# Generated by pormake.
# Topology umq, (4)-cn, num edge types: 1
# Building blocks:
#     Node 0, Type 0, BuildingBlock: KUFVIS_clean_sbu_0, # of connection points: 4
#     Node 1, Type 0, BuildingBlock: KUFVIS_clean_sbu_0, # of connection points: 4
#     Node 2, Type 0, BuildingBlock: KUFVIS_clean_sbu_0, # of connection points: 4
#     Node 3, Type 0, BuildingBlock: KUFVIS_clean_sbu_0, # of connection points: 4
#     Node 4, Type 0, BuildingBlock: KUFVIS_clean_sbu_0, # of connection points: 4
#     Node 5, Type 0, BuildingBlock: KUFVIS_clean_sbu_0, # of connection points: 4
#     Node 6, Type 0, BuildingBlock: KUFVIS_clean_sbu_0, # of connection points: 4
#     Node 7, Type 0, BuildingBlock: KUFVIS_clean_sbu_0, # of connection points: 4
#     Node 8, Type 0, BuildingBlock: KUFVIS_clean_sbu_0, # of connection points: 4
#     Node 9, Type 0, BuildingBlock: KUFVIS_clean_sbu_0, # of connection points: 4
#     Node 10, Type 0, BuildingBlock: KUFVIS_clean_sbu_0, # of connection points: 4
#     Node 11, Type 0, BuildingBlock: KUFVIS_clean_sbu_0, # of connection points: 4
#     Node 12, Type 0, BuildingBlock: KUFVIS_clean_sbu_0, # of connection points: 4
#     Node 13, Type 0, BuildingBlock: KUFVIS_clean_sbu_0, # of connection points: 4
#     Node 14, Type 0, BuildingBlock: KUFVIS_clean_sbu_0, # of connection points: 4
#     Node 15, Type 0, BuildingBlock: KUFVIS_clean_sbu_0, # of connection points: 4
#     Node 16, Type 0, BuildingBlock: KUFVIS_clean_sbu_0, # of connection points: 4
#     Node 17, Type 0, BuildingBlock: KUFVIS_clean_sbu_0, # of connection points: 4
#     Node 18, Type 0, BuildingBlock: KUFVIS_clean_sbu_0, # of connection points: 4
#     Node 19, Type 0, BuildingBlock: KUFVIS_clean_sbu_0, # of connection points: 4
#     Node 20, Type 0, BuildingBlock: KUFVIS_clean_sbu_0, # of connection points: 4
#     Node 21, Type 0, BuildingBlock: KUFVIS_clean_sbu_0, # of connection points: 4
#     Node 22, Type 0, BuildingBlock: KUFVIS_clean_sbu_0, # of connection points: 4
#     Node 23, Type 0, BuildingBlock: KUFVIS_clean_sbu_0, # of connection points: 4
#     Node 24, Type 0, BuildingBlock: KUFVIS_clean_sbu_0, # of connection points: 4
#     Node 25, Type 0, BuildingBlock: KUFVIS_clean_sbu_0, # of connection points: 4
#     Node 26, Type 0, BuildingBlock: KUFVIS_clean_sbu_0, # of connection points: 4
#     Node 27, Type 0, BuildingBlock: KUFVIS_clean_sbu_0, # of connection points: 4
#     Node 28, Type 0, BuildingBlock: KUFVIS_clean_sbu_0, # of connection points: 4
#     Node 29, Type 0, BuildingBlock: KUFVIS_clean_sbu_0, # of connection points: 4
#     Node 30, Type 0, BuildingBlock: KUFVIS_clean_sbu_0, # of connection points: 4
#     Node 31, Type 0, BuildingBlock: KUFVIS_clean_sbu_0, # of connection points: 4
#     Edge 32, Type (0, 0), BuildingBlock: TEMPAE_clean_linker_10, # of connection points: 2
#     Edge 33, Type (0, 0), BuildingBlock: TEMPAE_clean_linker_10, # of connection points: 2
#     Edge 34, Type (0, 0), BuildingBlock: TEMPAE_clean_linker_10, # of connection points: 2
#     Edge 35, Type (0, 0), BuildingBlock: TEMPAE_clean_linker_10, # of connection points: 2
#     Edge 36, Type (0, 0), BuildingBlock: TEMPAE_clean_linker_10, # of connection points: 2
#     Edge 37, Type (0, 0), BuildingBlock: TEMPAE_clean_linker_10, # of connection points: 2
#     Edge 38, Type (0, 0), BuildingBlock: TEMPAE_clean_linker_10, # of connection points: 2
#     Edge 39, Type (0, 0), BuildingBlock: TEMPAE_clean_linker_10, # of connection points: 2
#     Edge 40, Type (0, 0), BuildingBlock: TEMPAE_clean_linker_10, # of connection points: 2
#     Edge 41, Type (0, 0), BuildingBlock: TEMPAE_clean_linker_10, # of connection points: 2
#     Edge 42, Type (0, 0), BuildingBlock: TEMPAE_clean_linker_10, # of connection points: 2
#     Edge 43, Type (0, 0), BuildingBlock: TEMPAE_clean_linker_10, # of connection points: 2
#     Edge 44, Type (0, 0), BuildingBlock: TEMPAE_clean_linker_10, # of connection points: 2
#     Edge 45, Type (0, 0), BuildingBlock: TEMPAE_clean_linker_10, # of connection points: 2
#     Edge 46, Type (0, 0), BuildingBlock: TEMPAE_clean_linker_10, # of connection points: 2
#     Edge 47, Type (0, 0), BuildingBlock: TEMPAE_clean_linker_10, # of connection points: 2
#     Edge 48, Type (0, 0), BuildingBlock: TEMPAE_clean_linker_10, # of connection points: 2
#     Edge 49, Type (0, 0), BuildingBlock: TEMPAE_clean_linker_10, # of connection points: 2
#     Edge 50, Type (0, 0), BuildingBlock: TEMPAE_clean_linker_10, # of connection points: 2
#     Edge 51, Type (0, 0), BuildingBlock: TEMPAE_clean_linker_10, # of connection points: 2
#     Edge 52, Type (0, 0), BuildingBlock: TEMPAE_clean_linker_10, # of connection points: 2
#     Edge 53, Type (0, 0), BuildingBlock: TEMPAE_clean_linker_10, # of connection points: 2
#     Edge 54, Type (0, 0), BuildingBlock: TEMPAE_clean_linker_10, # of connection points: 2
#     Edge 55, Type (0, 0), BuildingBlock: TEMPAE_clean_linker_10, # of connection points: 2
#     Edge 56, Type (0, 0), BuildingBlock: TEMPAE_clean_linker_10, # of connection points: 2
#     Edge 57, Type (0, 0), BuildingBlock: TEMPAE_clean_linker_10, # of connection points: 2
#     Edge 58, Type (0, 0), BuildingBlock: TEMPAE_clean_linker_10, # of connection points: 2
#     Edge 59, Type (0, 0), BuildingBlock: TEMPAE_clean_linker_10, # of connection points: 2
#     Edge 60, Type (0, 0), BuildingBlock: TEMPAE_clean_linker_10, # of connection points: 2
#     Edge 61, Type (0, 0), BuildingBlock: TEMPAE_clean_linker_10, # of connection points: 2
#     Edge 62, Type (0, 0), BuildingBlock: TEMPAE_clean_linker_10, # of connection points: 2
#     Edge 63, Type (0, 0), BuildingBlock: TEMPAE_clean_linker_10, # of connection points: 2
#     Edge 64, Type (0, 0), BuildingBlock: TEMPAE_clean_linker_10, # of connection points: 2
#     Edge 65, Type (0, 0), BuildingBlock: TEMPAE_clean_linker_10, # of connection points: 2
#     Edge 66, Type (0, 0), BuildingBlock: TEMPAE_clean_linker_10, # of connection points: 2
#     Edge 67, Type (0, 0), BuildingBlock: TEMPAE_clean_linker_10, # of connection points: 2
#     Edge 68, Type (0, 0), BuildingBlock: TEMPAE_clean_linker_10, # of connection points: 2
#     Edge 69, Type (0, 0), BuildingBlock: TEMPAE_clean_linker_10, # of connection points: 2
#     Edge 70, Type (0, 0), BuildingBlock: TEMPAE_clean_linker_10, # of connection points: 2
#     Edge 71, Type (0, 0), BuildingBlock: TEMPAE_clean_linker_10, # of connection points: 2
#     Edge 72, Type (0, 0), BuildingBlock: TEMPAE_clean_linker_10, # of connection points: 2
#     Edge 73, Type (0, 0), BuildingBlock: TEMPAE_clean_linker_10, # of connection points: 2
#     Edge 74, Type (0, 0), BuildingBlock: TEMPAE_clean_linker_10, # of connection points: 2
#     Edge 75, Type (0, 0), BuildingBlock: TEMPAE_clean_linker_10, # of connection points: 2
#     Edge 76, Type (0, 0), BuildingBlock: TEMPAE_clean_linker_10, # of connection points: 2
#     Edge 77, Type (0, 0), BuildingBlock: TEMPAE_clean_linker_10, # of connection points: 2
#     Edge 78, Type (0, 0), BuildingBlock: TEMPAE_clean_linker_10, # of connection points: 2
#     Edge 79, Type (0, 0), BuildingBlock: TEMPAE_clean_linker_10, # of connection points: 2
#     Edge 80, Type (0, 0), BuildingBlock: TEMPAE_clean_linker_10, # of connection points: 2
#     Edge 81, Type (0, 0), BuildingBlock: TEMPAE_clean_linker_10, # of connection points: 2
#     Edge 82, Type (0, 0), BuildingBlock: TEMPAE_clean_linker_10, # of connection points: 2
#     Edge 83, Type (0, 0), BuildingBlock: TEMPAE_clean_linker_10, # of connection points: 2
#     Edge 84, Type (0, 0), BuildingBlock: TEMPAE_clean_linker_10, # of connection points: 2
#     Edge 85, Type (0, 0), BuildingBlock: TEMPAE_clean_linker_10, # of connection points: 2
#     Edge 86, Type (0, 0), BuildingBlock: TEMPAE_clean_linker_10, # of connection points: 2
#     Edge 87, Type (0, 0), BuildingBlock: TEMPAE_clean_linker_10, # of connection points: 2
#     Edge 88, Type (0, 0), BuildingBlock: TEMPAE_clean_linker_10, # of connection points: 2
#     Edge 89, Type (0, 0), BuildingBlock: TEMPAE_clean_linker_10, # of connection points: 2
#     Edge 90, Type (0, 0), BuildingBlock: TEMPAE_clean_linker_10, # of connection points: 2
#     Edge 91, Type (0, 0), BuildingBlock: TEMPAE_clean_linker_10, # of connection points: 2
#     Edge 92, Type (0, 0), BuildingBlock: TEMPAE_clean_linker_10, # of connection points: 2
#     Edge 93, Type (0, 0), BuildingBlock: TEMPAE_clean_linker_10, # of connection points: 2
#     Edge 94, Type (0, 0), BuildingBlock: TEMPAE_clean_linker_10, # of connection points: 2
#     Edge 95, Type (0, 0), BuildingBlock: TEMPAE_clean_linker_10, # of connection points: 2
# Relax obj value: 0.076
# Max RMSD: 0.055
# Mean RMSD: 0.055
data_MOF--net-umq--node1-KUFVIS_clean_sbu_0--edge1-TEMPAE_clean_linker_10
_symmetry_space_group_name_H-M    P1
_symmetry_Int_Tables_number       1
_symmetry_cell_setting            triclinic
loop_
_symmetry_equiv_pos_as_xyz
'x, y, z'
_cell_length_a     66.894546
_cell_length_b     66.896194
_cell_length_c     44.224506
_cell_angle_alpha  90.010485
_cell_angle_beta   89.906095
_cell_angle_gamma 90.003286
loop_
_atom_site_label
_atom_site_type_symbol
_atom_site_fract_x
_atom_site_fract_y
_atom_site_fract_z
_atom_type_partial_charge
Mn0 Mn 0.24031 0.10516 0.17495 0.0
Mn1 Mn 0.21857 0.14252 0.1352 0.0
C2 C 0.2197 0.12814 0.19959 0.0
C3 C 0.24113 0.07257 0.19441 0.0
C4 C 0.26105 0.14483 0.15748 0.0
O5 O 0.24417 0.09533 0.13149 0.0
O6 O 0.23085 0.12207 0.10883 0.0
C7 C 0.18646 0.1171 0.10976 0.0
N8 N 0.19225 0.134 0.12453 0.0
C9 C 0.15866 0.1468 0.12445 0.0
C10 C 0.15232 0.12956 0.10916 0.0
C11 C 0.16627 0.11458 0.10199 0.0
C12 C 0.17889 0.14824 0.13222 0.0
H13 H 0.19718 0.10568 0.10384 0.0
C14 C 0.23972 0.10519 0.10779 0.0
O15 O 0.25729 0.08305 0.19097 0.0
O16 O 0.22452 0.0807 0.18559 0.0
N17 N 0.20565 0.16404 0.15584 0.0
C18 C 0.21426 0.17987 0.17016 0.0
C19 C 0.20261 0.19663 0.17743 0.0
C20 C 0.18218 0.19691 0.1702 0.0
C21 C 0.17362 0.1805 0.15545 0.0
C22 C 0.18608 0.16441 0.14811 0.0
H23 H 0.22997 0.17984 0.17547 0.0
O24 O 0.23271 0.11753 0.21414 0.0
O25 O 0.21831 0.12459 0.17061 0.0
O26 O 0.2617 0.12704 0.16808 0.0
O27 O 0.24539 0.15251 0.14574 0.0
C28 C 0.15329 0.17963 0.14724 0.0
C29 C 0.14576 0.16267 0.13209 0.0
H30 H 0.1368 0.12769 0.1028 0.0
H31 H 0.1615 0.10123 0.09021 0.0
H32 H 0.20945 0.20942 0.18824 0.0
H33 H 0.17324 0.20991 0.17568 0.0
H34 H 0.14328 0.19184 0.15272 0.0
H35 H 0.13006 0.16205 0.12621 0.0
Mn36 Mn 0.90885 0.24169 0.17549 0.0
Mn37 Mn 0.87543 0.22429 0.12459 0.0
C38 C 0.88388 0.21986 0.19121 0.0
C39 C 0.94001 0.23999 0.19916 0.0
C40 C 0.87364 0.26596 0.15162 0.0
O41 O 0.92152 0.24899 0.13469 0.0
O42 O 0.90005 0.23305 0.10369 0.0
C43 C 0.89734 0.18835 0.10392 0.0
N44 N 0.88055 0.19684 0.11572 0.0
C45 C 0.86306 0.16543 0.11478 0.0
C46 C 0.88016 0.15632 0.10261 0.0
C47 C 0.89741 0.16781 0.09731 0.0
C48 C 0.86401 0.18587 0.12138 0.0
H49 H 0.91052 0.19722 0.0995 0.0
C50 C 0.91601 0.24301 0.1086 0.0
O51 O 0.92991 0.25652 0.19792 0.0
O52 O 0.93228 0.22446 0.18598 0.0
N53 N 0.85058 0.21524 0.14096 0.0
C54 C 0.83542 0.22633 0.15295 0.0
C55 C 0.81689 0.21726 0.15872 0.0
C56 C 0.81406 0.197 0.15165 0.0
C57 C 0.82994 0.18581 0.13975 0.0
C58 C 0.84801 0.1957 0.13424 0.0
H59 H 0.83732 0.24205 0.15762 0.0
O60 O 0.89359 0.23073 0.21053 0.0
O61 O 0.88967 0.22133 0.16316 0.0
O62 O 0.88792 0.26383 0.17042 0.0
O63 O 0.86856 0.25254 0.13257 0.0
C64 C 0.82849 0.16532 0.13271 0.0
C65 C 0.8451 0.15509 0.12052 0.0
H66 H 0.88021 0.14052 0.09724 0.0
H67 H 0.91065 0.16089 0.08791 0.0
H68 H 0.80471 0.22595 0.16804 0.0
H69 H 0.79954 0.19025 0.15523 0.0
H70 H 0.81471 0.15724 0.13679 0.0
H71 H 0.84387 0.13928 0.11552 0.0
Mn72 Mn 0.76735 0.90504 0.18332 0.0
Mn73 Mn 0.78608 0.86922 0.13768 0.0
C74 C 0.78748 0.88005 0.20402 0.0
C75 C 0.76877 0.93713 0.20432 0.0
C76 C 0.74281 0.87061 0.15855 0.0
O77 O 0.76298 0.91619 0.14037 0.0
O78 O 0.78149 0.89393 0.11429 0.0
C79 C 0.82535 0.88687 0.12206 0.0
N80 N 0.81434 0.87129 0.13275 0.0
C81 C 0.84327 0.84999 0.13454 0.0
C82 C 0.85493 0.86575 0.1233 0.0
C83 C 0.84596 0.88434 0.11731 0.0
C84 C 0.8229 0.85354 0.13936 0.0
H85 H 0.81842 0.90108 0.11716 0.0
C86 C 0.77162 0.91027 0.11615 0.0
O87 O 0.75207 0.92745 0.20184 0.0
O88 O 0.78472 0.92844 0.19389 0.0
N89 N 0.79146 0.84424 0.15699 0.0
C90 C 0.7783 0.831 0.16935 0.0
C91 C 0.78484 0.81169 0.17682 0.0
C92 C 0.80472 0.80613 0.17109 0.0
C93 C 0.81811 0.82014 0.15896 0.0
C94 C 0.81072 0.83913 0.15191 0.0
H95 H 0.76285 0.83496 0.17292 0.0
O96 O 0.77591 0.89088 0.22095 0.0
O97 O 0.78764 0.88469 0.17543 0.0
O98 O 0.74479 0.88469 0.17768 0.0
O99 O 0.75682 0.86496 0.14089 0.0
C100 C 0.83843 0.81597 0.15329 0.0
C101 C 0.85104 0.83094 0.14135 0.0
H102 H 0.8708 0.8638 0.11937 0.0
H103 H 0.85488 0.89661 0.10878 0.0
H104 H 0.77447 0.801 0.18639 0.0
H105 H 0.80955 0.79106 0.17619 0.0
H106 H 0.84457 0.80137 0.15833 0.0
H107 H 0.86671 0.82767 0.13764 0.0
Mn108 Mn 0.10596 0.76967 0.173 0.0
Mn109 Mn 0.14302 0.78907 0.12993 0.0
C110 C 0.12964 0.79071 0.19476 0.0
C111 C 0.07372 0.76994 0.19375 0.0
C112 C 0.14511 0.74764 0.15604 0.0
O113 O 0.09523 0.76467 0.13048 0.0
O114 O 0.12219 0.77571 0.10544 0.0
C115 C 0.11748 0.8201 0.1018 0.0
N116 N 0.13448 0.81491 0.11681 0.0
C117 C 0.14716 0.84849 0.11361 0.0
C118 C 0.12983 0.85419 0.09805 0.0
C119 C 0.11486 0.83995 0.0923 0.0
C120 C 0.14873 0.82858 0.12307 0.0
H121 H 0.10605 0.80917 0.09701 0.0
C122 C 0.10498 0.76745 0.10611 0.0
O123 O 0.08394 0.75356 0.19117 0.0
O124 O 0.08194 0.78616 0.18346 0.0
N125 N 0.16482 0.80277 0.14861 0.0
C126 C 0.18077 0.79476 0.16338 0.0
C127 C 0.19748 0.80675 0.16952 0.0
C128 C 0.19763 0.82688 0.16052 0.0
C129 C 0.1811 0.83481 0.14529 0.0
C130 C 0.16503 0.82203 0.13924 0.0
H131 H 0.18085 0.77926 0.17 0.0
O132 O 0.11917 0.77837 0.21088 0.0
O133 O 0.1256 0.79111 0.16586 0.0
O134 O 0.12735 0.74765 0.16688 0.0
O135 O 0.15299 0.76275 0.14297 0.0
C136 C 0.18007 0.85482 0.13544 0.0
C137 C 0.163 0.86172 0.11993 0.0
H138 H 0.12786 0.86944 0.09038 0.0
H139 H 0.10144 0.84423 0.08031 0.0
H140 H 0.21034 0.80039 0.18077 0.0
H141 H 0.21061 0.83606 0.165 0.0
H142 H 0.19225 0.86506 0.1399 0.0
H143 H 0.16228 0.87718 0.11275 0.0
Mn144 Mn 0.24172 0.90906 0.32949 0.0
Mn145 Mn 0.21999 0.87495 0.37543 0.0
C146 C 0.22119 0.88426 0.30897 0.0
C147 C 0.24172 0.94055 0.30628 0.0
C148 C 0.26372 0.87313 0.35638 0.0
O149 O 0.24545 0.92134 0.3717 0.0
O150 O 0.22699 0.89935 0.3983 0.0
C151 C 0.18266 0.89698 0.38924 0.0
N152 N 0.19206 0.88005 0.37977 0.0
C153 C 0.16104 0.86193 0.37808 0.0
C154 C 0.151 0.8791 0.38813 0.0
C155 C 0.16184 0.89676 0.39345 0.0
C156 C 0.18172 0.8632 0.37369 0.0
H157 H 0.19101 0.91049 0.39355 0.0
C158 C 0.23706 0.91554 0.39613 0.0
O159 O 0.25811 0.93054 0.31031 0.0
O160 O 0.22534 0.93253 0.31633 0.0
N161 N 0.21213 0.85028 0.35724 0.0
C162 C 0.22393 0.83541 0.34606 0.0
C163 C 0.2156 0.81656 0.3403 0.0
C164 C 0.19526 0.81317 0.34625 0.0
C165 C 0.18322 0.82891 0.35657 0.0
C166 C 0.19243 0.84728 0.36234 0.0
H167 H 0.23964 0.83782 0.34201 0.0
O168 O 0.23376 0.89405 0.29224 0.0
O169 O 0.22033 0.88975 0.33716 0.0
O170 O 0.26346 0.88813 0.33852 0.0
O171 O 0.24859 0.86779 0.37209 0.0
C172 C 0.16251 0.82705 0.36175 0.0
C173 C 0.15138 0.84362 0.37216 0.0
H174 H 0.13498 0.87893 0.39168 0.0
H175 H 0.15419 0.91011 0.40104 0.0
H176 H 0.2249 0.80456 0.33183 0.0
H177 H 0.18905 0.79842 0.34269 0.0
H178 H 0.15494 0.81302 0.35744 0.0
H179 H 0.13541 0.84211 0.37555 0.0
Mn180 Mn 0.10244 0.24001 0.33538 0.0
Mn181 Mn 0.13701 0.22125 0.38304 0.0
C182 C 0.12746 0.21921 0.31657 0.0
C183 C 0.07088 0.23878 0.31288 0.0
C184 C 0.13717 0.26414 0.36039 0.0
O185 O 0.09055 0.2454 0.37753 0.0
O186 O 0.11215 0.22732 0.40545 0.0
C187 C 0.11734 0.18306 0.39923 0.0
N188 N 0.13358 0.19317 0.38871 0.0
C189 C 0.15312 0.16303 0.38668 0.0
C190 C 0.13667 0.15228 0.39777 0.0
C191 C 0.11864 0.16233 0.40383 0.0
C192 C 0.15081 0.18359 0.38206 0.0
H193 H 0.10354 0.19079 0.40406 0.0
C194 C 0.09606 0.23745 0.40244 0.0
O195 O 0.08076 0.25538 0.31534 0.0
O196 O 0.07904 0.22286 0.32429 0.0
N197 N 0.16205 0.21448 0.36484 0.0
C198 C 0.1762 0.2269 0.353 0.0
C199 C 0.19513 0.21925 0.34569 0.0
C200 C 0.19942 0.19903 0.3511 0.0
C201 C 0.18456 0.18646 0.36289 0.0
C202 C 0.16599 0.19494 0.36982 0.0
H203 H 0.17319 0.24258 0.34959 0.0
O204 O 0.11722 0.23065 0.29868 0.0
O205 O 0.12218 0.21956 0.34489 0.0
O206 O 0.12303 0.26224 0.34135 0.0
O207 O 0.14243 0.25025 0.37853 0.0
C208 C 0.18747 0.1659 0.3683 0.0
C209 C 0.1717 0.15415 0.3799 0.0
H210 H 0.13766 0.13632 0.40155 0.0
H211 H 0.10584 0.15413 0.41223 0.0
H212 H 0.2065 0.229 0.33644 0.0
H213 H 0.21422 0.19333 0.34619 0.0
H214 H 0.20171 0.15892 0.36334 0.0
H215 H 0.17401 0.1383 0.38344 0.0
Mn216 Mn 0.7698 0.10454 0.32738 0.0
Mn217 Mn 0.7907 0.14203 0.36776 0.0
C218 C 0.79044 0.12767 0.30327 0.0
C219 C 0.7696 0.07192 0.30811 0.0
C220 C 0.74856 0.14412 0.34424 0.0
O221 O 0.76561 0.09461 0.37061 0.0
O222 O 0.7779 0.12166 0.39382 0.0
C223 C 0.8223 0.11658 0.39453 0.0
N224 N 0.81681 0.13346 0.37947 0.0
C225 C 0.85046 0.14609 0.38057 0.0
C226 C 0.85649 0.12887 0.39618 0.0
C227 C 0.84236 0.11399 0.40299 0.0
C228 C 0.83036 0.14761 0.37214 0.0
H229 H 0.81145 0.10522 0.40015 0.0
C230 C 0.7693 0.10463 0.39443 0.0
O231 O 0.75326 0.0822 0.31099 0.0
O232 O 0.78601 0.08032 0.31722 0.0
N233 N 0.80402 0.16349 0.34756 0.0
C234 C 0.79569 0.17934 0.33296 0.0
C235 C 0.80753 0.19603 0.32598 0.0
C236 C 0.82787 0.1962 0.33378 0.0
C237 C 0.83613 0.17978 0.34889 0.0
C238 C 0.82347 0.16377 0.35592 0.0
H239 H 0.78005 0.17941 0.32721 0.0
O240 O 0.77764 0.11698 0.28842 0.0
O241 O 0.79156 0.12413 0.3323 0.0
O242 O 0.7481 0.12624 0.33389 0.0
O243 O 0.76409 0.15199 0.35611 0.0
C244 C 0.85633 0.17881 0.35774 0.0
C245 C 0.86356 0.16186 0.37324 0.0
H246 H 0.8719 0.12694 0.40307 0.0
H247 H 0.84689 0.10065 0.41501 0.0
H248 H 0.8009 0.20885 0.31495 0.0
H249 H 0.83696 0.20912 0.32846 0.0
H250 H 0.86648 0.19095 0.35251 0.0
H251 H 0.87917 0.16118 0.37963 0.0
Mn252 Mn 0.90896 0.76518 0.32505 0.0
Mn253 Mn 0.87438 0.78172 0.37509 0.0
C254 C 0.88361 0.78639 0.30858 0.0
C255 C 0.94046 0.76743 0.30216 0.0
C256 C 0.87407 0.74002 0.34813 0.0
O257 O 0.92125 0.75822 0.36623 0.0
O258 O 0.8989 0.77355 0.3966 0.0
C259 C 0.89497 0.8182 0.39657 0.0
N260 N 0.87857 0.80925 0.3844 0.0
C261 C 0.8598 0.83987 0.38663 0.0
C262 C 0.87649 0.84947 0.39914 0.0
C263 C 0.89419 0.8386 0.40397 0.0
C264 C 0.86161 0.81962 0.37917 0.0
H265 H 0.90848 0.80978 0.40073 0.0
C266 C 0.91516 0.76397 0.39218 0.0
O267 O 0.93063 0.75074 0.30324 0.0
O268 O 0.93224 0.78285 0.315 0.0
N269 N 0.84949 0.79009 0.35828 0.0
C270 C 0.83487 0.77862 0.34568 0.0
C271 C 0.81597 0.78697 0.34038 0.0
C272 C 0.81222 0.80692 0.34848 0.0
C273 C 0.8276 0.81857 0.3608 0.0
C274 C 0.84607 0.80937 0.36586 0.0
H275 H 0.83747 0.7631 0.34031 0.0
O276 O 0.8939 0.77575 0.28962 0.0
O277 O 0.88907 0.78514 0.33681 0.0
O278 O 0.88849 0.74249 0.32959 0.0
O279 O 0.8684 0.75334 0.36694 0.0
C280 C 0.82526 0.83884 0.36874 0.0
C281 C 0.84141 0.84954 0.38136 0.0
H282 H 0.87588 0.86515 0.40516 0.0
H283 H 0.90713 0.8459 0.41366 0.0
H284 H 0.80419 0.77795 0.33068 0.0
H285 H 0.79741 0.81308 0.34529 0.0
H286 H 0.81115 0.84638 0.36501 0.0
H287 H 0.8395 0.86518 0.38703 0.0
Mn288 Mn 0.7667 0.90447 0.83505 0.0
Mn289 Mn 0.78287 0.86602 0.87848 0.0
C290 C 0.78547 0.87876 0.81343 0.0
C291 C 0.77017 0.93669 0.81495 0.0
C292 C 0.74056 0.86912 0.85508 0.0
O293 O 0.7626 0.91525 0.87817 0.0
O294 O 0.77501 0.88898 0.90372 0.0
C295 C 0.81981 0.88523 0.90104 0.0
N296 N 0.81056 0.86955 0.8873 0.0
C297 C 0.84109 0.85061 0.88587 0.0
C298 C 0.851 0.86654 0.90001 0.0
C299 C 0.84034 0.88398 0.90743 0.0
C300 C 0.82075 0.85292 0.87944 0.0
H301 H 0.81154 0.8985 0.90717 0.0
C302 C 0.76699 0.9063 0.90277 0.0
O303 O 0.75281 0.9283 0.81788 0.0
O304 O 0.78555 0.92667 0.82445 0.0
N305 N 0.79084 0.84214 0.85817 0.0
C306 C 0.77898 0.82819 0.8447 0.0
C307 C 0.787 0.80944 0.8373 0.0
C308 C 0.80702 0.80516 0.8442 0.0
C309 C 0.81908 0.81991 0.85737 0.0
C310 C 0.81018 0.8382 0.86465 0.0
H311 H 0.76338 0.83115 0.84036 0.0
O312 O 0.77443 0.89037 0.79695 0.0
O313 O 0.78583 0.88284 0.84222 0.0
O314 O 0.74279 0.88535 0.84027 0.0
O315 O 0.75445 0.86086 0.87035 0.0
C316 C 0.83946 0.81703 0.86419 0.0
C317 C 0.85052 0.83247 0.87809 0.0
H318 H 0.86677 0.86554 0.90531 0.0
H319 H 0.84787 0.89633 0.91836 0.0
H320 H 0.77765 0.79815 0.82696 0.0
H321 H 0.81292 0.79042 0.83947 0.0
H322 H 0.84679 0.80306 0.85868 0.0
H323 H 0.86622 0.83018 0.88292 0.0
Mn324 Mn 0.09718 0.76929 0.82627 0.0
Mn325 Mn 0.13368 0.78801 0.8708 0.0
C326 C 0.12317 0.78765 0.80451 0.0
C327 C 0.06534 0.77179 0.80465 0.0
C328 C 0.13107 0.74424 0.85255 0.0
O329 O 0.08554 0.76674 0.86911 0.0
O330 O 0.10909 0.78377 0.89476 0.0
C331 C 0.11613 0.82752 0.88521 0.0
N332 N 0.13166 0.81634 0.87473 0.0
C333 C 0.15299 0.8452 0.87167 0.0
C334 C 0.13726 0.85706 0.88257 0.0
C335 C 0.11869 0.8482 0.88911 0.0
C336 C 0.1494 0.82477 0.86764 0.0
H337 H 0.10196 0.82066 0.89065 0.0
C338 C 0.09226 0.77479 0.89323 0.0
O339 O 0.0738 0.7546 0.80917 0.0
O340 O 0.07511 0.78754 0.81328 0.0
N341 N 0.15867 0.79303 0.85131 0.0
C342 C 0.17198 0.77959 0.83984 0.0
C343 C 0.19138 0.78591 0.83247 0.0
C344 C 0.19696 0.80588 0.83737 0.0
C345 C 0.18288 0.81955 0.84853 0.0
C346 C 0.16382 0.81236 0.85563 0.0
H347 H 0.16799 0.76407 0.83699 0.0
O348 O 0.11212 0.77584 0.78832 0.0
O349 O 0.11832 0.78894 0.83296 0.0
O350 O 0.11633 0.74591 0.83448 0.0
O351 O 0.13773 0.75879 0.86828 0.0
C352 C 0.18707 0.83996 0.85331 0.0
C353 C 0.17207 0.85282 0.86458 0.0
H354 H 0.13924 0.87298 0.88589 0.0
H355 H 0.10646 0.85726 0.89746 0.0
H356 H 0.20214 0.77532 0.82364 0.0
H357 H 0.21212 0.81054 0.83244 0.0
H358 H 0.20172 0.84597 0.84813 0.0
H359 H 0.17537 0.86854 0.86767 0.0
Mn360 Mn 0.23997 0.09996 0.82896 0.0
Mn361 Mn 0.22298 0.13299 0.88079 0.0
C362 C 0.21822 0.1253 0.81403 0.0
C363 C 0.238 0.06882 0.80491 0.0
C364 C 0.26477 0.1344 0.85379 0.0
O365 O 0.24737 0.08704 0.86962 0.0
O366 O 0.23051 0.10771 0.90083 0.0
C367 C 0.18603 0.11211 0.89985 0.0
N368 N 0.19528 0.12878 0.88906 0.0
C369 C 0.16465 0.14756 0.89081 0.0
C370 C 0.15476 0.13061 0.90203 0.0
C371 C 0.16548 0.11277 0.90638 0.0
C372 C 0.18504 0.14588 0.88419 0.0
H373 H 0.19429 0.09847 0.90351 0.0
C374 C 0.24063 0.09188 0.89566 0.0
O375 O 0.25456 0.07888 0.80603 0.0
O376 O 0.22256 0.07662 0.81831 0.0
N377 N 0.21499 0.15838 0.86515 0.0
C378 C 0.22668 0.17324 0.85364 0.0
C379 C 0.21838 0.1922 0.84854 0.0
C380 C 0.19827 0.19578 0.85581 0.0
C381 C 0.18644 0.18021 0.86725 0.0
C382 C 0.19556 0.16166 0.87201 0.0
H383 H 0.24231 0.17078 0.84884 0.0
O384 O 0.22884 0.11561 0.79432 0.0
O385 O 0.21985 0.11925 0.84187 0.0
O386 O 0.26224 0.12072 0.83407 0.0
O387 O 0.25159 0.13902 0.87355 0.0
C388 C 0.16603 0.18243 0.87452 0.0
C389 C 0.15509 0.16605 0.88597 0.0
H390 H 0.13896 0.13112 0.90735 0.0
H391 H 0.15797 0.09962 0.91499 0.0
H392 H 0.22756 0.20413 0.83957 0.0
H393 H 0.19211 0.2106 0.85271 0.0
H394 H 0.15856 0.19662 0.87117 0.0
H395 H 0.13935 0.16786 0.89107 0.0
Mn396 Mn 0.90343 0.23742 0.82947 0.0
Mn397 Mn 0.86612 0.21563 0.8695 0.0
C398 C 0.87931 0.21819 0.80469 0.0
C399 C 0.93581 0.23772 0.80887 0.0
C400 C 0.86496 0.25896 0.85051 0.0
O401 O 0.91425 0.23928 0.87269 0.0
O402 O 0.88766 0.22585 0.89572 0.0
C403 C 0.89027 0.18141 0.89123 0.0
N404 N 0.87344 0.18858 0.87776 0.0
C405 C 0.8585 0.15589 0.87707 0.0
C406 C 0.87565 0.14813 0.891 0.0
C407 C 0.89167 0.16093 0.89787 0.0
C408 C 0.85819 0.17633 0.87033 0.0
H409 H 0.90246 0.19126 0.89703 0.0
C410 C 0.90492 0.23395 0.89651 0.0
O411 O 0.9262 0.25415 0.81449 0.0
O412 O 0.92689 0.22113 0.81584 0.0
N413 N 0.84364 0.20456 0.84885 0.0
C414 C 0.82826 0.21441 0.8353 0.0
C415 C 0.8107 0.20398 0.82817 0.0
C416 C 0.80915 0.18351 0.83484 0.0
C417 C 0.82522 0.17363 0.84852 0.0
C418 C 0.84219 0.18489 0.85566 0.0
H419 H 0.82928 0.23016 0.83042 0.0
O420 O 0.88983 0.23147 0.79041 0.0
O421 O 0.88341 0.21596 0.83333 0.0
O422 O 0.88253 0.25939 0.83901 0.0
O423 O 0.85714 0.24319 0.8617 0.0
C424 C 0.82492 0.15312 0.85585 0.0
C425 C 0.84166 0.14421 0.8698 0.0
H426 H 0.87667 0.13239 0.89652 0.0
H427 H 0.90496 0.15506 0.90862 0.0
H428 H 0.79828 0.21176 0.81783 0.0
H429 H 0.7955 0.17554 0.82966 0.0
H430 H 0.81199 0.14403 0.85056 0.0
H431 H 0.84137 0.12838 0.87495 0.0
Mn432 Mn 0.7685 0.09754 0.67455 0.0
Mn433 Mn 0.7854 0.1329 0.62615 0.0
C434 C 0.78808 0.12378 0.69262 0.0
C435 C 0.77132 0.06612 0.69751 0.0
C436 C 0.74272 0.13136 0.64961 0.0
O437 O 0.76385 0.08499 0.63271 0.0
O438 O 0.77968 0.10791 0.60398 0.0
C439 C 0.82386 0.11428 0.60861 0.0
N440 N 0.81347 0.13023 0.6195 0.0
C441 C 0.84301 0.1507 0.6199 0.0
C442 C 0.85405 0.13454 0.60849 0.0
C443 C 0.84445 0.1162 0.60306 0.0
C444 C 0.82264 0.14777 0.62553 0.0
H445 H 0.81646 0.10025 0.60416 0.0
C446 C 0.77077 0.09117 0.60745 0.0
O447 O 0.75417 0.07489 0.69436 0.0
O448 O 0.78689 0.07534 0.68685 0.0
N449 N 0.79172 0.15816 0.64389 0.0
C450 C 0.77906 0.17201 0.65594 0.0
C451 C 0.78623 0.19122 0.66259 0.0
C452 C 0.80622 0.1961 0.65626 0.0
C453 C 0.81904 0.18154 0.64424 0.0
C454 C 0.81104 0.16267 0.63804 0.0
H455 H 0.76353 0.16855 0.66001 0.0
O456 O 0.77706 0.11327 0.71084 0.0
O457 O 0.78793 0.11823 0.66446 0.0
O458 O 0.74515 0.1169 0.66801 0.0
O459 O 0.75639 0.13752 0.6317 0.0
C460 C 0.83939 0.18507 0.63782 0.0
C461 C 0.85142 0.1696 0.62596 0.0
H462 H 0.86989 0.13602 0.60393 0.0
H463 H 0.85287 0.10363 0.59436 0.0
H464 H 0.77628 0.20236 0.67202 0.0
H465 H 0.81152 0.21111 0.66063 0.0
H466 H 0.846 0.19956 0.64217 0.0
H467 H 0.86711 0.17239 0.62161 0.0
Mn468 Mn 0.90203 0.76892 0.67161 0.0
Mn469 Mn 0.86348 0.78612 0.62958 0.0
C470 C 0.87622 0.78674 0.69482 0.0
C471 C 0.93432 0.77207 0.69145 0.0
C472 C 0.8677 0.74283 0.64878 0.0
O473 O 0.91267 0.76671 0.62805 0.0
O474 O 0.88713 0.78149 0.60383 0.0
C475 C 0.88021 0.82538 0.6118 0.0
N476 N 0.86521 0.81438 0.62432 0.0
C477 C 0.84409 0.84332 0.62879 0.0
C478 C 0.8593 0.85501 0.61593 0.0
C479 C 0.87749 0.84602 0.6076 0.0
C480 C 0.84784 0.82294 0.633 0.0
H481 H 0.89406 0.81842 0.60492 0.0
C482 C 0.90454 0.77363 0.60408 0.0
O483 O 0.92609 0.75474 0.68734 0.0
O484 O 0.92406 0.78765 0.68336 0.0
N485 N 0.83924 0.79139 0.65097 0.0
C486 C 0.82641 0.77809 0.66396 0.0
C487 C 0.80735 0.78453 0.67301 0.0
C488 C 0.80161 0.80446 0.6682 0.0
C489 C 0.81522 0.81799 0.65541 0.0
C490 C 0.83394 0.81068 0.64668 0.0
H491 H 0.8305 0.7626 0.66679 0.0
O492 O 0.88796 0.77523 0.7104 0.0
O493 O 0.88021 0.78798 0.66607 0.0
O494 O 0.88327 0.74501 0.66502 0.0
O495 O 0.85977 0.75697 0.63364 0.0
C496 C 0.81086 0.83835 0.65056 0.0
C497 C 0.82537 0.85106 0.63757 0.0
H498 H 0.85718 0.87089 0.61237 0.0
H499 H 0.88929 0.85493 0.59767 0.0
H500 H 0.79696 0.77405 0.68307 0.0
H501 H 0.78669 0.8092 0.67443 0.0
H502 H 0.79646 0.84444 0.65696 0.0
H503 H 0.82196 0.86675 0.6344 0.0
Mn504 Mn 0.24015 0.90368 0.67505 0.0
Mn505 Mn 0.223 0.8673 0.62853 0.0
C506 C 0.2187 0.87919 0.69393 0.0
C507 C 0.2384 0.93586 0.69584 0.0
C508 C 0.26463 0.86732 0.65525 0.0
O509 O 0.24699 0.91454 0.63278 0.0
O510 O 0.23234 0.89048 0.60494 0.0
C511 C 0.18742 0.88838 0.60487 0.0
N512 N 0.19572 0.8721 0.61838 0.0
C513 C 0.16453 0.85425 0.61692 0.0
C514 C 0.15559 0.87083 0.603 0.0
C515 C 0.16706 0.88802 0.59714 0.0
C516 C 0.18473 0.85568 0.62472 0.0
H517 H 0.19633 0.90145 0.59991 0.0
C518 C 0.24199 0.90687 0.60743 0.0
O519 O 0.25498 0.92584 0.69495 0.0
O520 O 0.2228 0.92746 0.68381 0.0
N521 N 0.21362 0.84338 0.64729 0.0
C522 C 0.22455 0.82878 0.66098 0.0
C523 C 0.21564 0.81024 0.6671 0.0
C524 C 0.19569 0.80683 0.65874 0.0
C525 C 0.18458 0.82223 0.64537 0.0
C526 C 0.19435 0.84029 0.63943 0.0
H527 H 0.2401 0.83108 0.66648 0.0
O528 O 0.22966 0.88993 0.71182 0.0
O529 O 0.21984 0.88361 0.66529 0.0
O530 O 0.26265 0.88285 0.67173 0.0
O531 O 0.25101 0.86074 0.63774 0.0
C532 C 0.16434 0.82024 0.63711 0.0
C533 C 0.15425 0.83633 0.62323 0.0
H534 H 0.13995 0.87052 0.59668 0.0
H535 H 0.16028 0.90086 0.58638 0.0
H536 H 0.22425 0.79845 0.67761 0.0
H537 H 0.18911 0.79226 0.6625 0.0
H538 H 0.15635 0.80646 0.64155 0.0
H539 H 0.13862 0.83472 0.61731 0.0
Mn540 Mn 0.10267 0.24144 0.68303 0.0
Mn541 Mn 0.14088 0.22159 0.643 0.0
C542 C 0.12643 0.22155 0.70723 0.0
C543 C 0.07003 0.24076 0.70264 0.0
C544 C 0.14189 0.26362 0.66657 0.0
O545 O 0.0925 0.24479 0.63975 0.0
O546 O 0.12058 0.23449 0.61708 0.0
C547 C 0.11592 0.19 0.61505 0.0
N548 N 0.13266 0.19551 0.63044 0.0
C549 C 0.14573 0.16205 0.62834 0.0
C550 C 0.12867 0.15601 0.6124 0.0
C551 C 0.11363 0.17002 0.60592 0.0
C552 C 0.14695 0.18205 0.63747 0.0
H553 H 0.10446 0.20076 0.60966 0.0
C554 C 0.10315 0.24223 0.61619 0.0
O555 O 0.07953 0.25746 0.69861 0.0
O556 O 0.0792 0.22453 0.69455 0.0
N557 N 0.16241 0.20828 0.66296 0.0
C558 C 0.17817 0.21665 0.67772 0.0
C559 C 0.19502 0.20497 0.68429 0.0
C560 C 0.19545 0.18472 0.67591 0.0
C561 C 0.17914 0.17642 0.66061 0.0
C562 C 0.16296 0.18894 0.65401 0.0
H563 H 0.17805 0.23223 0.68385 0.0
O564 O 0.11563 0.23434 0.72203 0.0
O565 O 0.12284 0.2202 0.67827 0.0
O566 O 0.1237 0.26381 0.67574 0.0
O567 O 0.15042 0.24814 0.65558 0.0
C568 C 0.17848 0.15633 0.65109 0.0
C569 C 0.16166 0.14908 0.6353 0.0
H570 H 0.12697 0.14067 0.60497 0.0
H571 H 0.10041 0.16548 0.59363 0.0
H572 H 0.20777 0.21164 0.69543 0.0
H573 H 0.20851 0.17575 0.68088 0.0
H574 H 0.19076 0.14629 0.65598 0.0
H575 H 0.16122 0.13355 0.62837 0.0
Mn576 Mn 0.73686 0.60319 0.67778 0.0
Mn577 Mn 0.71471 0.63944 0.63617 0.0
C578 C 0.71647 0.62684 0.7014 0.0
C579 C 0.73735 0.57089 0.6983 0.0
C580 C 0.75789 0.64175 0.65653 0.0
O581 O 0.74043 0.59247 0.63477 0.0
O582 O 0.72516 0.6176 0.61052 0.0
C583 C 0.68076 0.61462 0.61522 0.0
N584 N 0.68774 0.63172 0.62817 0.0
C585 C 0.65478 0.64604 0.62936 0.0
C586 C 0.64723 0.62864 0.61586 0.0
C587 C 0.66026 0.6128 0.60899 0.0
C588 C 0.67527 0.6468 0.63561 0.0
H589 H 0.69077 0.60252 0.60957 0.0
C590 C 0.73429 0.60084 0.61062 0.0
O591 O 0.75364 0.58114 0.69457 0.0
O592 O 0.72082 0.57916 0.68945 0.0
N593 N 0.70338 0.66201 0.65637 0.0
C594 C 0.71301 0.67761 0.6697 0.0
C595 C 0.70232 0.69501 0.67687 0.0
C596 C 0.68179 0.69616 0.67048 0.0
C597 C 0.67211 0.67984 0.65715 0.0
C598 C 0.68364 0.66305 0.64991 0.0
H599 H 0.72878 0.67685 0.67447 0.0
O600 O 0.72944 0.6165 0.71647 0.0
O601 O 0.71504 0.62261 0.67267 0.0
O602 O 0.75836 0.62471 0.66963 0.0
O603 O 0.74226 0.64881 0.64377 0.0
C604 C 0.65154 0.67968 0.65032 0.0
C605 C 0.64283 0.66269 0.63674 0.0
H606 H 0.63146 0.62728 0.61071 0.0
H607 H 0.65454 0.5993 0.59864 0.0
H608 H 0.70992 0.70759 0.68708 0.0
H609 H 0.67362 0.7097 0.67564 0.0
H610 H 0.64224 0.69245 0.65572 0.0
H611 H 0.62695 0.66262 0.63198 0.0
Mn612 Mn 0.40534 0.73665 0.67453 0.0
Mn613 Mn 0.37026 0.71763 0.62778 0.0
C614 C 0.38143 0.71464 0.69323 0.0
C615 C 0.43691 0.73686 0.69723 0.0
C616 C 0.36554 0.75753 0.65757 0.0
O617 O 0.4171 0.74358 0.63314 0.0
O618 O 0.39058 0.73372 0.60621 0.0
C619 C 0.39902 0.69008 0.5983 0.0
N620 N 0.38136 0.69314 0.61297 0.0
C621 C 0.37267 0.65837 0.60862 0.0
C622 C 0.39075 0.65485 0.59343 0.0
C623 C 0.40402 0.67078 0.58837 0.0
C624 C 0.36871 0.67786 0.61855 0.0
H625 H 0.40924 0.70225 0.59411 0.0
C626 C 0.40751 0.74235 0.6084 0.0
O627 O 0.42617 0.75294 0.69513 0.0
O628 O 0.4296 0.72068 0.68535 0.0
N629 N 0.34902 0.7015 0.64326 0.0
C630 C 0.33133 0.7078 0.65523 0.0
C631 C 0.31571 0.69408 0.65931 0.0
C632 C 0.31836 0.674 0.651 0.0
C633 C 0.33649 0.66791 0.63809 0.0
C634 C 0.35135 0.68238 0.63386 0.0
H635 H 0.32902 0.72328 0.66099 0.0
O636 O 0.39132 0.72643 0.71095 0.0
O637 O 0.3865 0.71505 0.66467 0.0
O638 O 0.38326 0.75794 0.66853 0.0
O639 O 0.35829 0.74255 0.64328 0.0
C640 C 0.3401 0.6482 0.62827 0.0
C641 C 0.35829 0.64338 0.61387 0.0
H642 H 0.39453 0.64003 0.58542 0.0
H643 H 0.418 0.6682 0.57664 0.0
H644 H 0.3015 0.69911 0.66816 0.0
H645 H 0.30621 0.66347 0.65379 0.0
H646 H 0.32893 0.63667 0.63151 0.0
H647 H 0.36091 0.62818 0.60639 0.0
Mn648 Mn 0.26783 0.40785 0.68486 0.0
Mn649 Mn 0.28611 0.37161 0.63929 0.0
C650 C 0.28709 0.38212 0.70553 0.0
C651 C 0.26976 0.43981 0.7063 0.0
C652 C 0.24275 0.37367 0.65965 0.0
O653 O 0.26432 0.41945 0.64209 0.0
O654 O 0.2813 0.39618 0.61568 0.0
C655 C 0.32524 0.38953 0.62352 0.0
N656 N 0.31435 0.37387 0.63426 0.0
C657 C 0.34344 0.35279 0.63602 0.0
C658 C 0.35498 0.36864 0.62477 0.0
C659 C 0.34587 0.38715 0.61876 0.0
C660 C 0.32306 0.3562 0.64093 0.0
H661 H 0.31819 0.40367 0.61856 0.0
C662 C 0.27216 0.41291 0.61764 0.0
O663 O 0.2528 0.43079 0.7025 0.0
O664 O 0.2857 0.43047 0.69722 0.0
N665 N 0.29167 0.34665 0.65849 0.0
C666 C 0.27856 0.33323 0.67051 0.0
C667 C 0.28519 0.31391 0.67768 0.0
C668 C 0.30512 0.3085 0.67193 0.0
C669 C 0.31845 0.32268 0.66013 0.0
C670 C 0.31097 0.34168 0.65338 0.0
H671 H 0.26306 0.33708 0.67402 0.0
O672 O 0.27548 0.39295 0.72244 0.0
O673 O 0.28765 0.38704 0.67709 0.0
O674 O 0.24472 0.3883 0.67784 0.0
O675 O 0.25693 0.36726 0.6429 0.0
C676 C 0.33879 0.31865 0.65437 0.0
C677 C 0.35133 0.33376 0.64265 0.0
H678 H 0.37086 0.3668 0.62078 0.0
H679 H 0.35468 0.39948 0.61019 0.0
H680 H 0.27487 0.30307 0.68699 0.0
H681 H 0.31001 0.2934 0.6767 0.0
H682 H 0.34501 0.30404 0.65914 0.0
H683 H 0.36701 0.33059 0.63884 0.0
Mn684 Mn 0.60288 0.26355 0.67809 0.0
Mn685 Mn 0.63959 0.28285 0.63424 0.0
C686 C 0.6267 0.28487 0.6992 0.0
C687 C 0.57067 0.26385 0.69937 0.0
C688 C 0.64229 0.2418 0.66117 0.0
O689 O 0.59189 0.25809 0.63575 0.0
O690 O 0.61901 0.26856 0.61056 0.0
C691 C 0.61308 0.31275 0.60535 0.0
N692 N 0.63028 0.30826 0.62035 0.0
C693 C 0.64189 0.34217 0.61617 0.0
C694 C 0.62434 0.34716 0.60062 0.0
C695 C 0.60981 0.3324 0.59535 0.0
C696 C 0.6441 0.32243 0.62616 0.0
H697 H 0.60197 0.30143 0.60092 0.0
C698 C 0.60184 0.26025 0.61141 0.0
O699 O 0.58097 0.2475 0.69696 0.0
O700 O 0.57881 0.28 0.68868 0.0
N701 N 0.6612 0.29737 0.65193 0.0
C702 C 0.67771 0.28989 0.66592 0.0
C703 C 0.69419 0.30237 0.67108 0.0
C704 C 0.69355 0.32247 0.66197 0.0
C705 C 0.67652 0.32983 0.64736 0.0
C706 C 0.66073 0.31655 0.64218 0.0
H707 H 0.67845 0.2744 0.67247 0.0
O708 O 0.61637 0.27261 0.71567 0.0
O709 O 0.6224 0.28507 0.67038 0.0
O710 O 0.62446 0.24162 0.67179 0.0
O711 O 0.65013 0.25698 0.6482 0.0
C712 C 0.6748 0.3497 0.63712 0.0
C713 C 0.65738 0.35593 0.62186 0.0
H714 H 0.62188 0.36225 0.59255 0.0
H715 H 0.59622 0.33612 0.58335 0.0
H716 H 0.70751 0.29641 0.68158 0.0
H717 H 0.70635 0.33204 0.66575 0.0
H718 H 0.68675 0.36032 0.64096 0.0
H719 H 0.65615 0.37128 0.61428 0.0
Mn720 Mn 0.74072 0.40497 0.82624 0.0
Mn721 Mn 0.7223 0.37051 0.87446 0.0
C722 C 0.71984 0.37981 0.80781 0.0
C723 C 0.73928 0.43674 0.80408 0.0
C724 C 0.76518 0.37068 0.8516 0.0
O725 O 0.74636 0.41682 0.86839 0.0
O726 O 0.72788 0.39559 0.89643 0.0
C727 C 0.68375 0.38951 0.89051 0.0
N728 N 0.69417 0.37342 0.88017 0.0
C729 C 0.66452 0.35312 0.87931 0.0
C730 C 0.65345 0.36942 0.89017 0.0
C731 C 0.66308 0.38775 0.89554 0.0
C732 C 0.68497 0.3559 0.87418 0.0
H733 H 0.69118 0.40354 0.89492 0.0
C734 C 0.73819 0.41155 0.89331 0.0
O735 O 0.75588 0.42682 0.80597 0.0
O736 O 0.72346 0.42843 0.81562 0.0
N737 N 0.71602 0.34524 0.85667 0.0
C738 C 0.7287 0.33129 0.84496 0.0
C739 C 0.72149 0.31209 0.83838 0.0
C740 C 0.70144 0.30733 0.84439 0.0
C741 C 0.68857 0.32201 0.85596 0.0
C742 C 0.69661 0.34087 0.86212 0.0
H743 H 0.74428 0.33465 0.84117 0.0
O744 O 0.73107 0.39016 0.7897 0.0
O745 O 0.7204 0.38512 0.83609 0.0
O746 O 0.76304 0.38437 0.83185 0.0
O747 O 0.75141 0.36562 0.87015 0.0
C748 C 0.66815 0.31863 0.86197 0.0
C749 C 0.65608 0.33423 0.87331 0.0
H750 H 0.63754 0.36806 0.89432 0.0
H751 H 0.65463 0.40043 0.90379 0.0
H752 H 0.73147 0.30085 0.82927 0.0
H753 H 0.6961 0.29232 0.84005 0.0
H754 H 0.66151 0.30414 0.85766 0.0
H755 H 0.64033 0.33155 0.87731 0.0
Mn756 Mn 0.59891 0.73946 0.83527 0.0
Mn757 Mn 0.63445 0.72154 0.88221 0.0
C758 C 0.62287 0.71735 0.81712 0.0
C759 C 0.56729 0.73891 0.81273 0.0
C760 C 0.63845 0.76113 0.85129 0.0
O761 O 0.58717 0.74657 0.87651 0.0
O762 O 0.61398 0.73758 0.90361 0.0
C763 C 0.60657 0.69397 0.91352 0.0
N764 N 0.62397 0.69711 0.89817 0.0
C765 C 0.63358 0.66269 0.90418 0.0
C766 C 0.61577 0.6591 0.92002 0.0
C767 C 0.60217 0.6748 0.9246 0.0
C768 C 0.63696 0.68202 0.89314 0.0
H769 H 0.59612 0.70599 0.9174 0.0
C770 C 0.59684 0.74579 0.90121 0.0
O771 O 0.57779 0.75518 0.81431 0.0
O772 O 0.57487 0.723 0.82504 0.0
N773 N 0.65581 0.70554 0.86673 0.0
C774 C 0.67306 0.71187 0.8534 0.0
C775 C 0.68885 0.69836 0.84921 0.0
C776 C 0.68684 0.67848 0.85893 0.0
C777 C 0.66914 0.67235 0.87307 0.0
C778 C 0.65404 0.6866 0.87717 0.0
H779 H 0.67488 0.72722 0.84651 0.0
O780 O 0.61296 0.72895 0.79911 0.0
O781 O 0.61794 0.71815 0.84571 0.0
O782 O 0.62068 0.76121 0.84055 0.0
O783 O 0.64595 0.74639 0.86578 0.0
C784 C 0.66612 0.65281 0.88405 0.0
C785 C 0.64825 0.64792 0.89929 0.0
H786 H 0.61244 0.64438 0.92891 0.0
H787 H 0.58841 0.67218 0.93688 0.0
H788 H 0.7027 0.70339 0.83911 0.0
H789 H 0.69915 0.66814 0.85615 0.0
H790 H 0.67749 0.64146 0.88099 0.0
H791 H 0.64609 0.63285 0.90763 0.0
Mn792 Mn 0.2646 0.60512 0.83468 0.0
Mn793 Mn 0.28265 0.64432 0.87421 0.0
C794 C 0.28383 0.6294 0.81052 0.0
C795 C 0.26673 0.57249 0.81559 0.0
C796 C 0.24078 0.64347 0.84993 0.0
O797 O 0.26141 0.59514 0.87809 0.0
O798 O 0.27048 0.62369 0.9006 0.0
C799 C 0.31508 0.62102 0.90323 0.0
N800 N 0.30901 0.63726 0.88708 0.0
C801 C 0.34216 0.65117 0.88766 0.0
C802 C 0.34876 0.63464 0.90439 0.0
C803 C 0.33518 0.61944 0.91203 0.0
C804 C 0.32205 0.65171 0.879 0.0
H805 H 0.30468 0.6094 0.90946 0.0
C806 C 0.26353 0.60592 0.90161 0.0
O807 O 0.24962 0.58132 0.81923 0.0
O808 O 0.28253 0.5823 0.82383 0.0
N809 N 0.29522 0.66603 0.85348 0.0
C810 C 0.28636 0.68123 0.83803 0.0
C811 C 0.29763 0.6981 0.83 0.0
C812 C 0.31791 0.69921 0.83797 0.0
C813 C 0.32673 0.68345 0.85394 0.0
C814 C 0.31464 0.66718 0.86182 0.0
H815 H 0.27073 0.68065 0.83238 0.0
O816 O 0.27154 0.61814 0.79557 0.0
O817 O 0.28498 0.62601 0.83952 0.0
O818 O 0.24135 0.62522 0.8412 0.0
O819 O 0.25579 0.65269 0.86108 0.0
C820 C 0.34693 0.68344 0.86289 0.0
C821 C 0.35471 0.6672 0.87945 0.0
H822 H 0.36421 0.63348 0.91151 0.0
H823 H 0.34015 0.60662 0.92492 0.0
H824 H 0.29063 0.71033 0.81802 0.0
H825 H 0.32651 0.71236 0.83217 0.0
H826 H 0.35665 0.6958 0.857 0.0
H827 H 0.37031 0.66726 0.88596 0.0
Mn828 Mn 0.40572 0.26593 0.83191 0.0
Mn829 Mn 0.37037 0.28508 0.87843 0.0
C830 C 0.38193 0.28812 0.81299 0.0
C831 C 0.43756 0.26575 0.80936 0.0
C832 C 0.36605 0.2448 0.8494 0.0
O833 O 0.4174 0.25931 0.87343 0.0
O834 O 0.39099 0.26968 0.90034 0.0
C835 C 0.39835 0.3135 0.90759 0.0
N836 N 0.38075 0.30988 0.89311 0.0
C837 C 0.37045 0.3441 0.89907 0.0
C838 C 0.38844 0.3482 0.91408 0.0
C839 C 0.4025 0.33284 0.9182 0.0
C840 C 0.36735 0.32463 0.88841 0.0
H841 H 0.40912 0.30173 0.91113 0.0
C842 C 0.40795 0.26107 0.89828 0.0
O843 O 0.42681 0.24967 0.81141 0.0
O844 O 0.43006 0.28192 0.82102 0.0
N845 N 0.34882 0.30061 0.86262 0.0
C846 C 0.33169 0.29389 0.84948 0.0
C847 C 0.31553 0.307 0.84573 0.0
C848 C 0.31712 0.32693 0.85542 0.0
C849 C 0.33476 0.33348 0.86919 0.0
C850 C 0.35021 0.3196 0.873 0.0
H851 H 0.33022 0.27853 0.84252 0.0
O852 O 0.39175 0.2761 0.79543 0.0
O853 O 0.38684 0.28766 0.84158 0.0
O854 O 0.3837 0.24445 0.83806 0.0
O855 O 0.35884 0.25983 0.86357 0.0
C856 C 0.33743 0.35311 0.88001 0.0
C857 C 0.35537 0.35849 0.89461 0.0
H858 H 0.39158 0.36304 0.92263 0.0
H859 H 0.41641 0.33586 0.9298 0.0
H860 H 0.30173 0.30163 0.83595 0.0
H861 H 0.30456 0.33697 0.85279 0.0
H862 H 0.32577 0.3642 0.8772 0.0
H863 H 0.35729 0.37365 0.9027 0.0
Mn864 Mn 0.26887 0.40476 0.33702 0.0
Mn865 Mn 0.28904 0.36792 0.37946 0.0
C866 C 0.28986 0.38124 0.31465 0.0
C867 C 0.26885 0.43701 0.31626 0.0
C868 C 0.24762 0.36511 0.35388 0.0
O869 O 0.26398 0.41542 0.3797 0.0
O870 O 0.27499 0.38825 0.4041 0.0
C871 C 0.31923 0.39445 0.40759 0.0
N872 N 0.31461 0.37731 0.39249 0.0
C873 C 0.3487 0.36602 0.39482 0.0
C874 C 0.35383 0.38351 0.41048 0.0
C875 C 0.33904 0.39785 0.41672 0.0
C876 C 0.3288 0.36367 0.38575 0.0
H877 H 0.3079 0.40542 0.41273 0.0
C878 C 0.26657 0.40537 0.40381 0.0
O879 O 0.25251 0.42672 0.3191 0.0
O880 O 0.28514 0.42887 0.32636 0.0
N881 N 0.30342 0.34654 0.36075 0.0
C882 C 0.29586 0.33012 0.34662 0.0
C883 C 0.30842 0.31383 0.34041 0.0
C884 C 0.32867 0.3146 0.34864 0.0
C885 C 0.33611 0.33154 0.3634 0.0
C886 C 0.32277 0.34713 0.36964 0.0
H887 H 0.28028 0.3293 0.34068 0.0
O888 O 0.27733 0.39166 0.29887 0.0
O889 O 0.29056 0.38532 0.34355 0.0
O890 O 0.24716 0.38302 0.34363 0.0
O891 O 0.26302 0.35731 0.36625 0.0
C892 C 0.35616 0.3334 0.37273 0.0
C893 C 0.36251 0.35075 0.38811 0.0
H894 H 0.36904 0.38607 0.41786 0.0
H895 H 0.34286 0.41139 0.42879 0.0
H896 H 0.3024 0.30058 0.32976 0.0
H897 H 0.33831 0.30196 0.34404 0.0
H898 H 0.36683 0.32162 0.36807 0.0
H899 H 0.37799 0.35208 0.39496 0.0
Mn900 Mn 0.60278 0.26894 0.33116 0.0
Mn901 Mn 0.63851 0.28724 0.37732 0.0
C902 C 0.62772 0.28946 0.31131 0.0
C903 C 0.57087 0.27057 0.30975 0.0
C904 C 0.63778 0.2444 0.35452 0.0
O905 O 0.59156 0.26368 0.37383 0.0
O906 O 0.6141 0.28123 0.40077 0.0
C907 C 0.61941 0.32549 0.39471 0.0
N908 N 0.63538 0.31531 0.38342 0.0
C909 C 0.65519 0.34527 0.3812 0.0
C910 C 0.63901 0.35609 0.39304 0.0
C911 C 0.62099 0.34618 0.39958 0.0
C912 C 0.65259 0.32477 0.3763 0.0
H913 H 0.60562 0.31785 0.39996 0.0
C914 C 0.59778 0.27139 0.39857 0.0
O915 O 0.58057 0.25385 0.31189 0.0
O916 O 0.57939 0.28637 0.32095 0.0
N917 N 0.66325 0.2939 0.35816 0.0
C918 C 0.67711 0.28141 0.34575 0.0
C919 C 0.69606 0.28888 0.33815 0.0
C920 C 0.70066 0.309 0.34384 0.0
C921 C 0.68606 0.32168 0.35611 0.0
C922 C 0.66747 0.31336 0.36335 0.0
H923 H 0.67389 0.26578 0.34218 0.0
O924 O 0.61702 0.27813 0.29388 0.0
O925 O 0.62296 0.28917 0.33984 0.0
O926 O 0.62322 0.24644 0.33624 0.0
O927 O 0.64362 0.25825 0.37232 0.0
C928 C 0.68927 0.34216 0.36178 0.0
C929 C 0.67377 0.354 0.374 0.0
H930 H 0.64023 0.37202 0.39707 0.0
H931 H 0.60841 0.35444 0.40859 0.0
H932 H 0.70723 0.27905 0.32851 0.0
H933 H 0.7155 0.31454 0.33875 0.0
H934 H 0.70352 0.34902 0.35655 0.0
H935 H 0.6763 0.3698 0.37776 0.0
Mn936 Mn 0.74261 0.59946 0.33253 0.0
Mn937 Mn 0.72459 0.63433 0.38076 0.0
C938 C 0.72026 0.62348 0.31536 0.0
C939 C 0.74224 0.56807 0.30906 0.0
C940 C 0.76417 0.63888 0.34971 0.0
O941 O 0.74988 0.58727 0.37336 0.0
O942 O 0.74053 0.61355 0.40149 0.0
C943 C 0.69694 0.60614 0.41127 0.0
N944 N 0.70013 0.62373 0.39647 0.0
C945 C 0.66581 0.63349 0.40323 0.0
C946 C 0.66216 0.61549 0.41852 0.0
C947 C 0.67779 0.60172 0.42245 0.0
C948 C 0.68511 0.63688 0.39207 0.0
H949 H 0.70891 0.59558 0.41467 0.0
C950 C 0.74887 0.59651 0.39845 0.0
O951 O 0.75842 0.57869 0.31077 0.0
O952 O 0.72631 0.57539 0.32172 0.0
N953 N 0.70865 0.65591 0.36597 0.0
C954 C 0.715 0.67323 0.35293 0.0
C955 C 0.70157 0.68915 0.34937 0.0
C956 C 0.68174 0.68718 0.35939 0.0
C957 C 0.67557 0.66937 0.37313 0.0
C958 C 0.68974 0.65414 0.3766 0.0
H959 H 0.7303 0.675 0.34576 0.0
O960 O 0.73187 0.61388 0.29691 0.0
O961 O 0.72122 0.61822 0.34378 0.0
O962 O 0.76425 0.6213 0.33819 0.0
O963 O 0.74947 0.64604 0.36474 0.0
C964 C 0.65607 0.66635 0.38429 0.0
C965 C 0.65112 0.64831 0.39903 0.0
H966 H 0.64746 0.61214 0.42749 0.0
H967 H 0.67513 0.58782 0.4343 0.0
H968 H 0.70663 0.70307 0.33952 0.0
H969 H 0.67147 0.69959 0.35712 0.0
H970 H 0.64477 0.67782 0.38172 0.0
H971 H 0.63607 0.64615 0.40748 0.0
Mn972 Mn 0.40534 0.74329 0.32812 0.0
Mn973 Mn 0.36867 0.72534 0.37314 0.0
C974 C 0.38034 0.7232 0.30727 0.0
C975 C 0.43761 0.74135 0.30759 0.0
C976 C 0.37081 0.76839 0.35159 0.0
O977 O 0.41612 0.74787 0.37124 0.0
O978 O 0.393 0.73033 0.39715 0.0
C979 C 0.38617 0.68633 0.39042 0.0
N980 N 0.37071 0.69715 0.37897 0.0
C981 C 0.34951 0.66815 0.37734 0.0
C982 C 0.36514 0.65668 0.38938 0.0
C983 C 0.38361 0.66578 0.39567 0.0
C984 C 0.35308 0.68845 0.37206 0.0
H985 H 0.40029 0.69336 0.39553 0.0
C986 C 0.40955 0.73984 0.39556 0.0
O987 O 0.42809 0.75817 0.30974 0.0
O988 O 0.42866 0.72558 0.31815 0.0
N989 N 0.34399 0.71962 0.35325 0.0
C990 C 0.33091 0.73257 0.3401 0.0
C991 C 0.31174 0.72588 0.33218 0.0
C992 C 0.30613 0.70606 0.33829 0.0
C993 C 0.31997 0.69289 0.35127 0.0
C994 C 0.33883 0.70042 0.35873 0.0
H995 H 0.3349 0.74798 0.33623 0.0
O996 O 0.3914 0.73457 0.29036 0.0
O997 O 0.38469 0.72327 0.33594 0.0
O998 O 0.38525 0.76618 0.33312 0.0
O999 O 0.36447 0.75452 0.3689 0.0
C1000 C 0.31576 0.67264 0.3574 0.0
C1001 C 0.33058 0.66023 0.37016 0.0
H1002 H 0.36316 0.64086 0.39368 0.0
H1003 H 0.39578 0.65701 0.40481 0.0
H1004 H 0.30117 0.73608 0.32195 0.0
H1005 H 0.29115 0.70113 0.33284 0.0
H1006 H 0.30125 0.66639 0.35207 0.0
H1007 H 0.32729 0.6446 0.37421 0.0
Mn1008 Mn 0.26796 0.60079 0.18203 0.0
Mn1009 Mn 0.28661 0.63515 0.13375 0.0
C1010 C 0.28871 0.62601 0.20058 0.0
C1011 C 0.26912 0.56915 0.20466 0.0
C1012 C 0.24371 0.63514 0.1564 0.0
O1013 O 0.26242 0.5889 0.13989 0.0
O1014 O 0.28103 0.61004 0.11189 0.0
C1015 C 0.32516 0.61612 0.11778 0.0
N1016 N 0.31474 0.63222 0.12807 0.0
C1017 C 0.34432 0.65264 0.12835 0.0
C1018 C 0.3554 0.63631 0.11763 0.0
C1019 C 0.3458 0.61792 0.11256 0.0
C1020 C 0.32389 0.64982 0.1337 0.0
H1021 H 0.31774 0.60206 0.11351 0.0
C1022 C 0.27063 0.59414 0.11499 0.0
O1023 O 0.25258 0.57911 0.20229 0.0
O1024 O 0.28505 0.57728 0.19315 0.0
N1025 N 0.29287 0.66049 0.15129 0.0
C1026 C 0.28016 0.67449 0.16277 0.0
C1027 C 0.28729 0.69382 0.16876 0.0
C1028 C 0.30729 0.69861 0.16247 0.0
C1029 C 0.32021 0.68385 0.15128 0.0
C1030 C 0.31224 0.66489 0.14559 0.0
H1031 H 0.26461 0.67111 0.16674 0.0
O1032 O 0.2774 0.61564 0.21856 0.0
O1033 O 0.28839 0.62064 0.17229 0.0
O1034 O 0.24573 0.62142 0.17613 0.0
O1035 O 0.25753 0.64011 0.13792 0.0
C1036 C 0.34062 0.68725 0.14517 0.0
C1037 C 0.35271 0.6716 0.134 0.0
H1038 H 0.37128 0.6377 0.11331 0.0
H1039 H 0.35426 0.60523 0.10436 0.0
H1040 H 0.27727 0.70511 0.17761 0.0
H1041 H 0.31256 0.7137 0.16631 0.0
H1042 H 0.34722 0.70178 0.14926 0.0
H1043 H 0.36844 0.6743 0.12987 0.0
Mn1044 Mn 0.40694 0.26944 0.17746 0.0
Mn1045 Mn 0.37126 0.28823 0.13168 0.0
C1046 C 0.38198 0.28971 0.19781 0.0
C1047 C 0.43884 0.27089 0.19889 0.0
C1048 C 0.37205 0.24515 0.15327 0.0
O1049 O 0.41815 0.26461 0.13467 0.0
O1050 O 0.39571 0.28253 0.10814 0.0
C1051 C 0.39023 0.32671 0.11517 0.0
N1052 N 0.37432 0.31637 0.12631 0.0
C1053 C 0.3544 0.34623 0.1292 0.0
C1054 C 0.37053 0.35723 0.11759 0.0
C1055 C 0.38858 0.34744 0.11077 0.0
C1056 C 0.35707 0.3257 0.13364 0.0
H1057 H 0.40403 0.31916 0.10962 0.0
C1058 C 0.41198 0.27258 0.1101 0.0
O1059 O 0.42916 0.25418 0.19636 0.0
O1060 O 0.43031 0.28679 0.18807 0.0
N1061 N 0.3465 0.2946 0.15097 0.0
C1062 C 0.33268 0.28193 0.16306 0.0
C1063 C 0.3137 0.28926 0.17083 0.0
C1064 C 0.30904 0.30943 0.16565 0.0
C1065 C 0.32361 0.32228 0.15372 0.0
C1066 C 0.34222 0.3141 0.14628 0.0
H1067 H 0.33595 0.26628 0.16624 0.0
O1068 O 0.39269 0.27822 0.21496 0.0
O1069 O 0.38675 0.28975 0.16927 0.0
O1070 O 0.38649 0.24698 0.1718 0.0
O1071 O 0.36624 0.25918 0.13581 0.0
C1072 C 0.32033 0.34281 0.14855 0.0
C1073 C 0.33579 0.35482 0.13661 0.0
H1074 H 0.36926 0.37318 0.11392 0.0
H1075 H 0.40112 0.35582 0.10189 0.0
H1076 H 0.30256 0.2793 0.18023 0.0
H1077 H 0.29419 0.31486 0.17088 0.0
H1078 H 0.30605 0.34956 0.15396 0.0
H1079 H 0.33321 0.37065 0.13322 0.0
Mn1080 Mn 0.74087 0.40513 0.17315 0.0
Mn1081 Mn 0.72045 0.36823 0.13105 0.0
C1082 C 0.71964 0.38187 0.19573 0.0
C1083 C 0.74137 0.43741 0.19369 0.0
C1084 C 0.76182 0.36529 0.15678 0.0
O1085 O 0.74601 0.41552 0.13033 0.0
O1086 O 0.73458 0.3884 0.1063 0.0
C1087 C 0.69037 0.39484 0.10284 0.0
N1088 N 0.69492 0.37771 0.11798 0.0
C1089 C 0.66079 0.36653 0.11566 0.0
C1090 C 0.65573 0.38402 0.09996 0.0
C1091 C 0.67057 0.3983 0.0937 0.0
C1092 C 0.68068 0.36413 0.12477 0.0
H1093 H 0.70175 0.40576 0.09768 0.0
C1094 C 0.74325 0.40538 0.10633 0.0
O1095 O 0.75754 0.42688 0.19083 0.0
O1096 O 0.72494 0.42952 0.18362 0.0
N1097 N 0.70599 0.34696 0.14986 0.0
C1098 C 0.71353 0.33048 0.16384 0.0
C1099 C 0.70095 0.31418 0.16988 0.0
C1100 C 0.68069 0.31501 0.1617 0.0
C1101 C 0.67328 0.33202 0.14707 0.0
C1102 C 0.68665 0.34759 0.14093 0.0
H1103 H 0.72913 0.3296 0.16975 0.0
O1104 O 0.73221 0.39231 0.21142 0.0
O1105 O 0.71901 0.38582 0.16679 0.0
O1106 O 0.76232 0.3832 0.16695 0.0
O1107 O 0.74644 0.35754 0.14428 0.0
C1108 C 0.65324 0.33392 0.13771 0.0
C1109 C 0.64694 0.35129 0.12235 0.0
H1110 H 0.64053 0.38661 0.09254 0.0
H1111 H 0.6668 0.41184 0.0816 0.0
H1112 H 0.70696 0.30086 0.18033 0.0
H1113 H 0.67103 0.30237 0.1662 0.0
H1114 H 0.64254 0.32215 0.14231 0.0
H1115 H 0.63147 0.35266 0.11546 0.0
Mn1116 Mn 0.60422 0.73794 0.18103 0.0
Mn1117 Mn 0.64022 0.71596 0.13849 0.0
C1118 C 0.62813 0.71753 0.20399 0.0
C1119 C 0.57204 0.73826 0.20217 0.0
C1120 C 0.64243 0.75921 0.15893 0.0
O1121 O 0.59319 0.74154 0.13819 0.0
O1122 O 0.61792 0.72589 0.11341 0.0
C1123 C 0.61572 0.68148 0.11864 0.0
N1124 N 0.63288 0.68883 0.13088 0.0
C1125 C 0.64793 0.6562 0.13143 0.0
C1126 C 0.63049 0.64826 0.11859 0.0
C1127 C 0.61425 0.66094 0.11243 0.0
C1128 C 0.64834 0.6767 0.13773 0.0
H1129 H 0.60331 0.69123 0.11358 0.0
C1130 C 0.60119 0.73506 0.11391 0.0
O1131 O 0.58223 0.75458 0.19842 0.0
O1132 O 0.5803 0.72178 0.19299 0.0
N1133 N 0.66318 0.70511 0.15815 0.0
C1134 C 0.6787 0.71507 0.17115 0.0
C1135 C 0.69642 0.70475 0.17773 0.0
C1136 C 0.69797 0.68427 0.17107 0.0
C1137 C 0.6817 0.67425 0.15819 0.0
C1138 C 0.66458 0.68541 0.15155 0.0
H1139 H 0.67765 0.73081 0.17607 0.0
O1140 O 0.61785 0.73041 0.21942 0.0
O1141 O 0.62369 0.71621 0.17535 0.0
O1142 O 0.62562 0.75953 0.17278 0.0
O1143 O 0.64928 0.74369 0.14559 0.0
C1144 C 0.68191 0.65369 0.15123 0.0
C1145 C 0.66494 0.64462 0.13817 0.0
H1146 H 0.62939 0.63247 0.11345 0.0
H1147 H 0.60071 0.65493 0.10262 0.0
H1148 H 0.70894 0.7126 0.18767 0.0
H1149 H 0.71176 0.67641 0.17573 0.0
H1150 H 0.69496 0.64467 0.15615 0.0
H1151 H 0.66516 0.62874 0.13335 0.0
C1152 C 0.35101 0.21955 0.12734 0.0
C1153 C 0.35995 0.22665 0.15388 0.0
C1154 C 0.33703 0.20391 0.12822 0.0
C1155 C 0.33135 0.19563 0.15644 0.0
C1156 C 0.34102 0.20215 0.18318 0.0
C1157 C 0.35541 0.21742 0.18151 0.0
C1158 C 0.3275 0.19704 0.09908 0.0
C1159 C 0.33508 0.19411 0.21379 0.0
C1160 C 0.2774 0.17836 0.15977 0.0
C1161 C 0.27927 0.15748 0.15876 0.0
C1162 C 0.29425 0.1908 0.16005 0.0
C1163 C 0.31357 0.18224 0.15829 0.0
C1164 C 0.31565 0.16116 0.15732 0.0
C1165 C 0.29845 0.149 0.158 0.0
C1166 C 0.29132 0.21317 0.16187 0.0
C1167 C 0.33596 0.15151 0.15467 0.0
H1168 H 0.35459 0.2266 0.10592 0.0
H1169 H 0.36214 0.22304 0.20212 0.0
H1170 H 0.32704 0.18048 0.09806 0.0
H1171 H 0.31185 0.2025 0.09806 0.0
H1172 H 0.33562 0.20272 0.0789 0.0
H1173 H 0.34555 0.19893 0.23186 0.0
H1174 H 0.31988 0.19956 0.21961 0.0
H1175 H 0.33448 0.17755 0.21347 0.0
H1176 H 0.2627 0.18508 0.16042 0.0
H1177 H 0.3 0.13288 0.15694 0.0
H1178 H 0.29664 0.22029 0.14069 0.0
H1179 H 0.30027 0.21946 0.18072 0.0
H1180 H 0.27541 0.21734 0.16536 0.0
H1181 H 0.34311 0.15612 0.1331 0.0
H1182 H 0.3351 0.13493 0.15527 0.0
H1183 H 0.34582 0.15664 0.17325 0.0
C1184 C 0.85659 0.29289 0.18119 0.0
C1185 C 0.86109 0.28412 0.1532 0.0
C1186 C 0.84202 0.30797 0.18353 0.0
C1187 C 0.83208 0.31467 0.15714 0.0
C1188 C 0.83762 0.3068 0.1286 0.0
C1189 C 0.85185 0.29144 0.12703 0.0
C1190 C 0.83629 0.31567 0.21443 0.0
C1191 C 0.82773 0.31383 0.09983 0.0
C1192 C 0.77813 0.33183 0.16075 0.0
C1193 C 0.77999 0.35268 0.15916 0.0
C1194 C 0.795 0.31943 0.16137 0.0
C1195 C 0.8143 0.32801 0.15953 0.0
C1196 C 0.81636 0.34908 0.15838 0.0
C1197 C 0.79915 0.3612 0.15857 0.0
C1198 C 0.7921 0.29706 0.1633 0.0
C1199 C 0.83667 0.35876 0.15581 0.0
H1200 H 0.86357 0.28714 0.20152 0.0
H1201 H 0.85542 0.28478 0.10532 0.0
H1202 H 0.83557 0.33223 0.21446 0.0
H1203 H 0.82119 0.31006 0.22044 0.0
H1204 H 0.84696 0.31077 0.23217 0.0
H1205 H 0.83553 0.30822 0.07933 0.0
H1206 H 0.81203 0.30848 0.09926 0.0
H1207 H 0.82734 0.33041 0.099 0.0
H1208 H 0.76342 0.32512 0.16144 0.0
H1209 H 0.80069 0.37731 0.15713 0.0
H1210 H 0.80117 0.2908 0.18204 0.0
H1211 H 0.79732 0.28992 0.14206 0.0
H1212 H 0.77621 0.29288 0.167 0.0
H1213 H 0.84666 0.35332 0.17403 0.0
H1214 H 0.83582 0.37533 0.15707 0.0
H1215 H 0.84365 0.35453 0.13395 0.0
C1216 C 0.6469 0.79657 0.16293 0.0
C1217 C 0.65517 0.77745 0.159 0.0
C1218 C 0.65908 0.81378 0.16265 0.0
C1219 C 0.68007 0.81175 0.15942 0.0
C1220 C 0.68848 0.79247 0.15592 0.0
C1221 C 0.67593 0.77568 0.1551 0.0
C1222 C 0.6495 0.83412 0.16535 0.0
C1223 C 0.71081 0.78948 0.15323 0.0
C1224 C 0.71582 0.8519 0.13173 0.0
C1225 C 0.72432 0.85851 0.15888 0.0
C1226 C 0.70018 0.83786 0.13172 0.0
C1227 C 0.6935 0.8296 0.15946 0.0
C1228 C 0.70158 0.8368 0.18701 0.0
C1229 C 0.71668 0.85142 0.18638 0.0
C1230 C 0.69156 0.83112 0.10189 0.0
C1231 C 0.69543 0.82797 0.21703 0.0
H1232 H 0.63087 0.79812 0.16562 0.0
H1233 H 0.68253 0.76108 0.15182 0.0
H1234 H 0.6553 0.842 0.18558 0.0
H1235 H 0.65344 0.84334 0.14536 0.0
H1236 H 0.63295 0.8332 0.1671 0.0
H1237 H 0.71504 0.77343 0.15268 0.0
H1238 H 0.71641 0.79668 0.13227 0.0
H1239 H 0.71854 0.79669 0.17256 0.0
H1240 H 0.72172 0.8574 0.11045 0.0
H1241 H 0.72348 0.85629 0.20738 0.0
H1242 H 0.675 0.8305 0.10315 0.0
H1243 H 0.69696 0.81584 0.09658 0.0
H1244 H 0.69594 0.84119 0.08304 0.0
H1245 H 0.67892 0.82757 0.21912 0.0
H1246 H 0.70163 0.83648 0.23644 0.0
H1247 H 0.70084 0.81231 0.21845 0.0
C1248 C 0.21622 0.65257 0.18418 0.0
C1249 C 0.22535 0.64747 0.15667 0.0
C1250 C 0.20116 0.6672 0.1854 0.0
C1251 C 0.19477 0.67659 0.15836 0.0
C1252 C 0.20293 0.67037 0.13031 0.0
C1253 C 0.21833 0.65612 0.12985 0.0
C1254 C 0.19322 0.67368 0.21583 0.0
C1255 C 0.19621 0.67961 0.10088 0.0
C1256 C 0.14866 0.71022 0.15851 0.0
C1257 C 0.15744 0.72927 0.1585 0.0
C1258 C 0.16055 0.69284 0.15865 0.0
C1259 C 0.18165 0.6946 0.15963 0.0
C1260 C 0.19051 0.7138 0.16071 0.0
C1261 C 0.17834 0.73083 0.15968 0.0
C1262 C 0.15058 0.67264 0.15678 0.0
C1263 C 0.21292 0.71641 0.1625 0.0
H1264 H 0.22176 0.64607 0.205 0.0
H1265 H 0.22529 0.65212 0.10852 0.0
H1266 H 0.19895 0.68884 0.22116 0.0
H1267 H 0.17667 0.67458 0.2155 0.0
H1268 H 0.19783 0.66335 0.23421 0.0
H1269 H 0.20179 0.67115 0.08096 0.0
H1270 H 0.17965 0.68027 0.09986 0.0
H1271 H 0.20187 0.69516 0.09936 0.0
H1272 H 0.13252 0.70891 0.15735 0.0
H1273 H 0.18527 0.74544 0.15982 0.0
H1274 H 0.15565 0.66294 0.1756 0.0
H1275 H 0.15498 0.66516 0.13538 0.0
H1276 H 0.13402 0.67375 0.15756 0.0
H1277 H 0.21902 0.70765 0.18169 0.0
H1278 H 0.21733 0.73231 0.16542 0.0
H1279 H 0.22001 0.71066 0.14154 0.0
C1280 C 0.30022 0.86651 0.34555 0.0
C1281 C 0.28181 0.86014 0.35744 0.0
C1282 C 0.31688 0.85361 0.34484 0.0
C1283 C 0.3149 0.83369 0.35534 0.0
C1284 C 0.29644 0.82728 0.36765 0.0
C1285 C 0.28033 0.84066 0.3691 0.0
C1286 C 0.33652 0.8612 0.33255 0.0
C1287 C 0.29345 0.80605 0.37845 0.0
C1288 C 0.34783 0.79176 0.32542 0.0
C1289 C 0.35923 0.78711 0.35095 0.0
C1290 C 0.33386 0.80745 0.32609 0.0
C1291 C 0.33174 0.81913 0.35267 0.0
C1292 C 0.34426 0.81524 0.37784 0.0
C1293 C 0.35755 0.79895 0.37692 0.0
C1294 C 0.32039 0.81056 0.29913 0.0
C1295 C 0.34298 0.82769 0.40624 0.0
H1296 H 0.30162 0.88157 0.33675 0.0
H1297 H 0.26629 0.83552 0.37857 0.0
H1298 H 0.34871 0.85815 0.34891 0.0
H1299 H 0.34028 0.85321 0.31133 0.0
H1300 H 0.33612 0.8775 0.32778 0.0
H1301 H 0.27798 0.8033 0.38664 0.0
H1302 H 0.29669 0.79544 0.35978 0.0
H1303 H 0.30398 0.80266 0.39708 0.0
H1304 H 0.34896 0.78232 0.30554 0.0
H1305 H 0.36636 0.79523 0.3967 0.0
H1306 H 0.32055 0.82646 0.29205 0.0
H1307 H 0.30477 0.80679 0.30545 0.0
H1308 H 0.32483 0.80115 0.27954 0.0
H1309 H 0.34262 0.84384 0.40054 0.0
H1310 H 0.35575 0.82485 0.42167 0.0
H1311 H 0.32894 0.82415 0.4185 0.0
C1312 C 0.2103 0.36075 0.35538 0.0
C1313 C 0.22944 0.35251 0.35184 0.0
C1314 C 0.19324 0.34841 0.35643 0.0
C1315 C 0.1954 0.32744 0.3531 0.0
C1316 C 0.21463 0.31921 0.34822 0.0
C1317 C 0.23137 0.33179 0.34804 0.0
C1318 C 0.17304 0.3577 0.36224 0.0
C1319 C 0.21761 0.297 0.34382 0.0
C1320 C 0.15982 0.28882 0.38551 0.0
C1321 C 0.14949 0.28255 0.35963 0.0
C1322 C 0.17376 0.30449 0.38412 0.0
C1323 C 0.17788 0.31377 0.35599 0.0
C1324 C 0.16684 0.3081 0.33006 0.0
C1325 C 0.15262 0.2927 0.33227 0.0
C1326 C 0.18485 0.31037 0.41247 0.0
C1327 C 0.17104 0.3173 0.29953 0.0
H1328 H 0.20875 0.37674 0.35857 0.0
H1329 H 0.24606 0.32533 0.34502 0.0
H1330 H 0.1622 0.35289 0.34474 0.0
H1331 H 0.16722 0.35248 0.38439 0.0
H1332 H 0.17369 0.37429 0.36248 0.0
H1333 H 0.23333 0.29319 0.33806 0.0
H1334 H 0.21345 0.28892 0.36481 0.0
H1335 H 0.20776 0.29143 0.32551 0.0
H1336 H 0.15735 0.28112 0.40677 0.0
H1337 H 0.14481 0.28781 0.31211 0.0
H1338 H 0.18512 0.32687 0.41495 0.0
H1339 H 0.20058 0.3052 0.4109 0.0
H1340 H 0.17803 0.30375 0.43308 0.0
H1341 H 0.17156 0.33383 0.30118 0.0
H1342 H 0.15964 0.31304 0.28246 0.0
H1343 H 0.1859 0.31223 0.29139 0.0
C1344 C 0.73199 0.17741 0.34012 0.0
C1345 C 0.73026 0.1566 0.34286 0.0
C1346 C 0.71512 0.18982 0.34072 0.0
C1347 C 0.69596 0.18132 0.34506 0.0
C1348 C 0.694 0.16027 0.34744 0.0
C1349 C 0.71118 0.14811 0.34591 0.0
C1350 C 0.71791 0.21213 0.33732 0.0
C1351 C 0.67388 0.15069 0.35273 0.0
C1352 C 0.66018 0.21921 0.37883 0.0
C1353 C 0.64992 0.22591 0.35315 0.0
C1354 C 0.6741 0.20355 0.37691 0.0
C1355 C 0.67831 0.19477 0.34844 0.0
C1356 C 0.66731 0.20085 0.32269 0.0
C1357 C 0.65306 0.2162 0.32543 0.0
C1358 C 0.68514 0.19721 0.40507 0.0
C1359 C 0.6716 0.19222 0.29182 0.0
H1360 H 0.74662 0.1841 0.33759 0.0
H1361 H 0.70976 0.13205 0.34831 0.0
H1362 H 0.70801 0.21797 0.31926 0.0
H1363 H 0.71368 0.21976 0.35867 0.0
H1364 H 0.7336 0.2162 0.33175 0.0
H1365 H 0.67468 0.1341 0.35225 0.0
H1366 H 0.66796 0.15542 0.37507 0.0
H1367 H 0.66302 0.15573 0.33541 0.0
H1368 H 0.65769 0.22658 0.40035 0.0
H1369 H 0.64531 0.22145 0.30544 0.0
H1370 H 0.70081 0.20256 0.40391 0.0
H1371 H 0.68557 0.18067 0.4068 0.0
H1372 H 0.67816 0.20334 0.42592 0.0
H1373 H 0.68642 0.19758 0.2839 0.0
H1374 H 0.66017 0.19666 0.27491 0.0
H1375 H 0.67229 0.17567 0.2928 0.0
C1376 C 0.80125 0.6435 0.34383 0.0
C1377 C 0.78202 0.65176 0.34581 0.0
C1378 C 0.81829 0.65585 0.34262 0.0
C1379 C 0.81594 0.6769 0.34268 0.0
C1380 C 0.7965 0.68525 0.34337 0.0
C1381 C 0.77984 0.6726 0.34531 0.0
C1382 C 0.83877 0.6464 0.34248 0.0
C1383 C 0.79326 0.7076 0.34282 0.0
C1384 C 0.85415 0.71337 0.37334 0.0
C1385 C 0.86212 0.72149 0.34672 0.0
C1386 C 0.8402 0.69773 0.37235 0.0
C1387 C 0.83362 0.69043 0.34399 0.0
C1388 C 0.84233 0.69794 0.31706 0.0
C1389 C 0.85669 0.71326 0.31877 0.0
C1390 C 0.83166 0.68985 0.40164 0.0
C1391 C 0.83547 0.69086 0.28639 0.0
H1392 H 0.80303 0.62739 0.34439 0.0
H1393 H 0.76505 0.67911 0.34652 0.0
H1394 H 0.8479 0.65246 0.32364 0.0
H1395 H 0.84662 0.65014 0.36383 0.0
H1396 H 0.83806 0.62987 0.34029 0.0
H1397 H 0.7772 0.71163 0.34093 0.0
H1398 H 0.79926 0.71436 0.36385 0.0
H1399 H 0.80144 0.71438 0.32354 0.0
H1400 H 0.85845 0.71965 0.39499 0.0
H1401 H 0.8627 0.71968 0.29815 0.0
H1402 H 0.83153 0.67326 0.40156 0.0
H1403 H 0.81597 0.69496 0.40413 0.0
H1404 H 0.84027 0.69508 0.4216 0.0
H1405 H 0.83486 0.6743 0.28558 0.0
H1406 H 0.84538 0.69626 0.26794 0.0
H1407 H 0.82011 0.69646 0.28211 0.0
C1408 C 0.71231 0.85482 0.82527 0.0
C1409 C 0.72144 0.85822 0.85328 0.0
C1410 C 0.69663 0.84092 0.82252 0.0
C1411 C 0.68975 0.8306 0.84853 0.0
C1412 C 0.69792 0.83527 0.8772 0.0
C1413 C 0.71387 0.8488 0.87914 0.0
C1414 C 0.68856 0.83615 0.7915 0.0
C1415 C 0.69075 0.82499 0.90561 0.0
C1416 C 0.6428 0.79833 0.84824 0.0
C1417 C 0.65111 0.77909 0.84735 0.0
C1418 C 0.65511 0.8154 0.84772 0.0
C1419 C 0.67612 0.8131 0.84558 0.0
C1420 C 0.68443 0.7937 0.84306 0.0
C1421 C 0.67186 0.77697 0.84434 0.0
C1422 C 0.64572 0.8358 0.85094 0.0
C1423 C 0.70672 0.79054 0.84008 0.0
H1424 H 0.71834 0.86195 0.80521 0.0
H1425 H 0.72091 0.85152 0.90084 0.0
H1426 H 0.69416 0.82128 0.78429 0.0
H1427 H 0.672 0.83537 0.79187 0.0
H1428 H 0.69326 0.84739 0.77441 0.0
H1429 H 0.6966 0.83228 0.92636 0.0
H1430 H 0.67418 0.82494 0.90662 0.0
H1431 H 0.69579 0.80918 0.90548 0.0
H1432 H 0.62676 0.80002 0.85072 0.0
H1433 H 0.67833 0.76216 0.84323 0.0
H1434 H 0.65151 0.8461 0.83333 0.0
H1435 H 0.64979 0.84224 0.87323 0.0
H1436 H 0.62916 0.83522 0.84929 0.0
H1437 H 0.71282 0.79991 0.82155 0.0
H1438 H 0.71058 0.77467 0.83547 0.0
H1439 H 0.71425 0.79516 0.86129 0.0
C1440 C 0.15526 0.72125 0.87799 0.0
C1441 C 0.14253 0.72522 0.85351 0.0
C1442 C 0.16889 0.70532 0.87715 0.0
C1443 C 0.17005 0.69311 0.85105 0.0
C1444 C 0.15636 0.6962 0.82707 0.0
C1445 C 0.14268 0.71216 0.82865 0.0
C1446 C 0.18298 0.70243 0.90343 0.0
C1447 C 0.15711 0.68359 0.7988 0.0
C1448 C 0.22269 0.67461 0.83607 0.0
C1449 C 0.22197 0.65494 0.84686 0.0
C1450 C 0.20563 0.68676 0.83588 0.0
C1451 C 0.18735 0.67921 0.84732 0.0
C1452 C 0.1863 0.65907 0.85724 0.0
C1453 C 0.20364 0.64707 0.85662 0.0
C1454 C 0.20741 0.70799 0.82449 0.0
C1455 C 0.16717 0.65051 0.86988 0.0
H1456 H 0.15511 0.73111 0.89745 0.0
H1457 H 0.13295 0.71512 0.80959 0.0
H1458 H 0.18366 0.68643 0.90999 0.0
H1459 H 0.19828 0.70704 0.89665 0.0
H1460 H 0.17847 0.71136 0.9235 0.0
H1461 H 0.14365 0.68573 0.78448 0.0
H1462 H 0.1705 0.68775 0.78534 0.0
H1463 H 0.15848 0.66751 0.80455 0.0
H1464 H 0.23672 0.68062 0.82798 0.0
H1465 H 0.20308 0.63188 0.8651 0.0
H1466 H 0.20519 0.71858 0.84351 0.0
H1467 H 0.19562 0.7111 0.8075 0.0
H1468 H 0.22222 0.71102 0.81406 0.0
H1469 H 0.16381 0.6577 0.89192 0.0
H1470 H 0.16816 0.6341 0.87338 0.0
H1471 H 0.15446 0.65374 0.85457 0.0
C1472 C 0.33233 0.22915 0.84482 0.0
C1473 C 0.35313 0.22688 0.84655 0.0
C1474 C 0.31958 0.21253 0.84423 0.0
C1475 C 0.32775 0.19305 0.84621 0.0
C1476 C 0.34878 0.19059 0.84742 0.0
C1477 C 0.36126 0.20756 0.84721 0.0
C1478 C 0.29728 0.21587 0.84219 0.0
C1479 C 0.35804 0.1701 0.85012 0.0
C1480 C 0.29038 0.1561 0.87855 0.0
C1481 C 0.28304 0.14688 0.85235 0.0
C1482 C 0.30594 0.17015 0.87704 0.0
C1483 C 0.31402 0.17553 0.84855 0.0
C1484 C 0.30725 0.16565 0.82215 0.0
C1485 C 0.29198 0.15127 0.82441 0.0
C1486 C 0.31301 0.17999 0.90584 0.0
C1487 C 0.31516 0.1712 0.79129 0.0
H1488 H 0.32594 0.244 0.84402 0.0
H1489 H 0.37733 0.20572 0.84877 0.0
H1490 H 0.29089 0.2069 0.82343 0.0
H1491 H 0.28997 0.21085 0.8634 0.0
H1492 H 0.29344 0.23184 0.83844 0.0
H1493 H 0.37462 0.17061 0.84893 0.0
H1494 H 0.35361 0.16328 0.872 0.0
H1495 H 0.35245 0.16016 0.83193 0.0
H1496 H 0.28362 0.15265 0.90023 0.0
H1497 H 0.28624 0.14432 0.80404 0.0
H1498 H 0.30797 0.19579 0.9063 0.0
H1499 H 0.32958 0.18005 0.90683 0.0
H1500 H 0.30713 0.17236 0.92632 0.0
H1501 H 0.30992 0.18643 0.78531 0.0
H1502 H 0.31006 0.16065 0.77349 0.0
H1503 H 0.33173 0.17154 0.79133 0.0
C1504 C 0.86108 0.29648 0.84842 0.0
C1505 C 0.85248 0.27737 0.85017 0.0
C1506 C 0.84905 0.3138 0.84876 0.0
C1507 C 0.82795 0.31191 0.84993 0.0
C1508 C 0.81925 0.29265 0.85109 0.0
C1509 C 0.83158 0.27573 0.85175 0.0
C1510 C 0.8589 0.33409 0.8484 0.0
C1511 C 0.79682 0.28985 0.85163 0.0
C1512 C 0.79149 0.35105 0.87847 0.0
C1513 C 0.78366 0.35853 0.85137 0.0
C1514 C 0.80717 0.33708 0.87836 0.0
C1515 C 0.81469 0.32986 0.85044 0.0
C1516 C 0.8074 0.33803 0.82302 0.0
C1517 C 0.79215 0.35249 0.82385 0.0
C1518 C 0.81489 0.32922 0.90813 0.0
C1519 C 0.81455 0.3304 0.79276 0.0
H1520 H 0.8772 0.29792 0.84746 0.0
H1521 H 0.8247 0.26112 0.8532 0.0
H1522 H 0.85363 0.34285 0.82867 0.0
H1523 H 0.8546 0.34254 0.86901 0.0
H1524 H 0.87546 0.33305 0.84742 0.0
H1525 H 0.79243 0.27385 0.85056 0.0
H1526 H 0.79052 0.29639 0.87263 0.0
H1527 H 0.78989 0.29779 0.83227 0.0
H1528 H 0.78501 0.35579 0.89979 0.0
H1529 H 0.78595 0.35808 0.80284 0.0
H1530 H 0.83147 0.32862 0.90799 0.0
H1531 H 0.80935 0.31377 0.9117 0.0
H1532 H 0.80991 0.33856 0.9275 0.0
H1533 H 0.8311 0.32984 0.79199 0.0
H1534 H 0.80915 0.33979 0.77375 0.0
H1535 H 0.80901 0.31492 0.78937 0.0
C1536 C 0.64622 0.20445 0.65936 0.0
C1537 C 0.65468 0.22347 0.66316 0.0
C1538 C 0.65838 0.18727 0.65774 0.0
C1539 C 0.6794 0.18918 0.66072 0.0
C1540 C 0.68784 0.20827 0.666 0.0
C1541 C 0.67543 0.22515 0.66676 0.0
C1542 C 0.64885 0.16725 0.65156 0.0
C1543 C 0.71011 0.21099 0.67003 0.0
C1544 C 0.71416 0.14586 0.67894 0.0
C1545 C 0.72403 0.14323 0.6512 0.0
C1546 C 0.69879 0.16006 0.68211 0.0
C1547 C 0.69289 0.1716 0.65679 0.0
C1548 C 0.70181 0.1679 0.62824 0.0
C1549 C 0.71743 0.15396 0.62588 0.0
C1550 C 0.68996 0.16375 0.71304 0.0
C1551 C 0.69568 0.17952 0.6005 0.0
H1552 H 0.6302 0.2031 0.6563 0.0
H1553 H 0.68205 0.23975 0.66998 0.0
H1554 H 0.65361 0.16182 0.62896 0.0
H1555 H 0.65389 0.15605 0.66839 0.0
H1556 H 0.63226 0.16802 0.65207 0.0
H1557 H 0.7141 0.22657 0.67631 0.0
H1558 H 0.71575 0.20076 0.68782 0.0
H1559 H 0.71798 0.20715 0.6487 0.0
H1560 H 0.71931 0.13776 0.69867 0.0
H1561 H 0.72492 0.1519 0.60434 0.0
H1562 H 0.67343 0.16456 0.71185 0.0
H1563 H 0.69536 0.17834 0.72173 0.0
H1564 H 0.69421 0.15193 0.72946 0.0
H1565 H 0.67915 0.17998 0.59853 0.0
H1566 H 0.70198 0.173 0.57944 0.0
H1567 H 0.701 0.19517 0.60249 0.0
C1568 C 0.79534 0.6459 0.65773 0.0
C1569 C 0.77617 0.6544 0.65644 0.0
C1570 C 0.81259 0.65798 0.65651 0.0
C1571 C 0.8106 0.67905 0.65501 0.0
C1572 C 0.79127 0.68767 0.6545 0.0
C1573 C 0.77439 0.67526 0.65457 0.0
C1574 C 0.83292 0.64821 0.65608 0.0
C1575 C 0.78837 0.71008 0.65375 0.0
C1576 C 0.85152 0.7154 0.67797 0.0
C1577 C 0.85665 0.72374 0.64995 0.0
C1578 C 0.83729 0.69998 0.67996 0.0
C1579 C 0.82848 0.69236 0.6532 0.0
C1580 C 0.83492 0.69966 0.62472 0.0
C1581 C 0.84862 0.71556 0.62348 0.0
C1582 C 0.83046 0.69311 0.7108 0.0
C1583 C 0.82642 0.69156 0.5956 0.0
H1584 H 0.79685 0.62978 0.65884 0.0
H1585 H 0.75973 0.68202 0.65342 0.0
H1586 H 0.84079 0.6521 0.63476 0.0
H1587 H 0.84218 0.65391 0.67498 0.0
H1588 H 0.83197 0.63167 0.65785 0.0
H1589 H 0.77239 0.7144 0.65584 0.0
H1590 H 0.79683 0.71723 0.67241 0.0
H1591 H 0.79425 0.7162 0.6322 0.0
H1592 H 0.85749 0.72197 0.69848 0.0
H1593 H 0.85259 0.72203 0.60181 0.0
H1594 H 0.82978 0.67656 0.71188 0.0
H1595 H 0.81515 0.69882 0.71514 0.0
H1596 H 0.84044 0.69858 0.72908 0.0
H1597 H 0.82582 0.67499 0.5962 0.0
H1598 H 0.83534 0.69629 0.57563 0.0
H1599 H 0.8109 0.69708 0.59267 0.0
C1600 C 0.29159 0.8509 0.6854 0.0
C1601 C 0.28311 0.85538 0.65726 0.0
C1602 C 0.30687 0.83654 0.68786 0.0
C1603 C 0.31402 0.82687 0.66145 0.0
C1604 C 0.30645 0.83249 0.63281 0.0
C1605 C 0.2909 0.84647 0.63112 0.0
C1606 C 0.3143 0.83074 0.71883 0.0
C1607 C 0.31395 0.82289 0.60403 0.0
C1608 C 0.36094 0.79464 0.6617 0.0
C1609 C 0.35267 0.77537 0.66121 0.0
C1610 C 0.3486 0.81166 0.66261 0.0
C1611 C 0.32757 0.80928 0.66373 0.0
C1612 C 0.31925 0.78982 0.6647 0.0
C1613 C 0.33188 0.77315 0.66306 0.0
C1614 C 0.35801 0.83214 0.66102 0.0
C1615 C 0.29692 0.78659 0.66653 0.0
H1616 H 0.28542 0.85766 0.70565 0.0
H1617 H 0.2844 0.85005 0.60932 0.0
H1618 H 0.30866 0.8156 0.72457 0.0
H1619 H 0.33086 0.83005 0.71917 0.0
H1620 H 0.3092 0.84134 0.73658 0.0
H1621 H 0.30842 0.83072 0.58353 0.0
H1622 H 0.33054 0.82281 0.60354 0.0
H1623 H 0.30888 0.80711 0.60309 0.0
H1624 H 0.37702 0.79642 0.66016 0.0
H1625 H 0.32541 0.75832 0.66311 0.0
H1626 H 0.3521 0.84185 0.67929 0.0
H1627 H 0.35408 0.83929 0.63919 0.0
H1628 H 0.37456 0.83151 0.66288 0.0
H1629 H 0.29048 0.79541 0.68543 0.0
H1630 H 0.29298 0.77061 0.66988 0.0
H1631 H 0.28977 0.79185 0.64536 0.0
C1632 C 0.17472 0.28066 0.67339 0.0
C1633 C 0.15406 0.28212 0.66847 0.0
C1634 C 0.18703 0.29759 0.67302 0.0
C1635 C 0.17863 0.31656 0.66681 0.0
C1636 C 0.15771 0.31829 0.66241 0.0
C1637 C 0.1456 0.30104 0.66364 0.0
C1638 C 0.20919 0.29504 0.67854 0.0
C1639 C 0.14824 0.3382 0.65522 0.0
C1640 C 0.21305 0.35975 0.68698 0.0
C1641 C 0.22388 0.36204 0.66 0.0
C1642 C 0.19738 0.34579 0.68914 0.0
C1643 C 0.19216 0.33418 0.66354 0.0
C1644 C 0.20204 0.33761 0.63565 0.0
C1645 C 0.21795 0.35129 0.63432 0.0
C1646 C 0.18753 0.34239 0.71943 0.0
C1647 C 0.19668 0.32591 0.60763 0.0
H1648 H 0.18136 0.26616 0.67741 0.0
H1649 H 0.12967 0.30225 0.6596 0.0
H1650 H 0.21763 0.2988 0.65769 0.0
H1651 H 0.21425 0.30541 0.69655 0.0
H1652 H 0.2131 0.27953 0.68529 0.0
H1653 H 0.13166 0.33732 0.65466 0.0
H1654 H 0.15274 0.34957 0.67214 0.0
H1655 H 0.15362 0.34346 0.63285 0.0
H1656 H 0.21767 0.36789 0.70698 0.0
H1657 H 0.22616 0.35313 0.61335 0.0
H1658 H 0.19264 0.32789 0.72883 0.0
H1659 H 0.17105 0.34154 0.717 0.0
H1660 H 0.19122 0.35437 0.73589 0.0
H1661 H 0.20197 0.31027 0.61004 0.0
H1662 H 0.20356 0.33237 0.58695 0.0
H1663 H 0.18023 0.32543 0.60461 0.0
C1664 C 0.25009 0.07732 0.07206 0.0
C1665 C 0.24437 0.09725 0.07711 0.0
C1666 C 0.25285 0.06998 0.04237 0.0
C1667 C 0.24961 0.08284 0.01734 0.0
C1668 C 0.24456 0.10312 0.02253 0.0
C1669 C 0.24214 0.11 0.05212 0.0
C1670 C 0.25852 0.04837 0.0379 0.0
C1671 C 0.24099 0.11756 0.99674 0.0
C1672 C 0.26435 0.08169 0.93564 0.0
C1673 C 0.24538 0.07991 0.92259 0.0
C1674 C 0.26685 0.0794 0.96705 0.0
C1675 C 0.24992 0.07551 0.98547 0.0
C1676 C 0.23153 0.07049 0.97156 0.0
C1677 C 0.22946 0.07288 0.94021 0.0
C1678 C 0.2869 0.08414 0.98081 0.0
C1679 C 0.21316 0.06582 0.99008 0.0
H1680 H 0.25194 0.06734 0.09116 0.0
H1681 H 0.23806 0.12552 0.05556 0.0
H1682 H 0.24492 0.03958 0.03254 0.0
H1683 H 0.26911 0.04662 0.01874 0.0
H1684 H 0.26537 0.04194 0.05859 0.0
H1685 H 0.23753 0.13292 0.00474 0.0
H1686 H 0.25437 0.11833 0.98195 0.0
H1687 H 0.22829 0.11231 0.98271 0.0
H1688 H 0.27667 0.08724 0.92205 0.0
H1689 H 0.21478 0.07148 0.93006 0.0
H1690 H 0.28962 0.07495 1.00128 0.0
H1691 H 0.28721 0.10011 0.98765 0.0
H1692 H 0.29922 0.08161 0.96437 0.0
H1693 H 0.21694 0.0562 0.00967 0.0
H1694 H 0.20152 0.05824 0.97632 0.0
H1695 H 0.20677 0.07997 0.99896 0.0
C1696 C 0.90392 0.22876 0.95221 0.0
C1697 C 0.91374 0.23704 0.92706 0.0
C1698 C 0.91038 0.23243 0.9817 0.0
C1699 C 0.92748 0.24449 0.98659 0.0
C1700 C 0.93815 0.25217 0.96139 0.0
C1701 C 0.93106 0.24849 0.93183 0.0
C1702 C 0.89842 0.22377 0.00768 0.0
C1703 C 0.95666 0.26474 0.96547 0.0
C1704 C 0.92008 0.26484 0.06443 0.0
C1705 C 0.92725 0.24873 0.08142 0.0
C1706 C 0.9228 0.26544 0.03297 0.0
C1707 C 0.93291 0.24949 0.01842 0.0
C1708 C 0.94298 0.23504 0.0362 0.0
C1709 C 0.93971 0.2346 0.06761 0.0
C1710 C 0.91211 0.28135 0.01505 0.0
C1711 C 0.95474 0.21836 0.02172 0.0
H1712 H 0.89073 0.21959 0.94902 0.0
H1713 H 0.93885 0.25487 0.91262 0.0
H1714 H 0.908 0.21387 0.0216 0.0
H1715 H 0.89288 0.23595 0.02252 0.0
H1716 H 0.88534 0.21493 0.99988 0.0
H1717 H 0.96642 0.26409 0.94514 0.0
H1718 H 0.95222 0.28055 0.96895 0.0
H1719 H 0.96541 0.25992 0.98547 0.0
H1720 H 0.91027 0.27565 0.07515 0.0
H1721 H 0.94514 0.22204 0.08075 0.0
H1722 H 0.89804 0.27506 0.00579 0.0
H1723 H 0.9214 0.28642 0.99573 0.0
H1724 H 0.90828 0.29449 0.0293 0.0
H1725 H 0.94433 0.20639 0.0144 0.0
H1726 H 0.9656 0.21175 0.03786 0.0
H1727 H 0.9629 0.22378 1.00145 0.0
C1728 C 0.75477 0.90169 0.95489 0.0
C1729 C 0.76155 0.91489 0.93251 0.0
C1730 C 0.75368 0.90743 0.98521 0.0
C1731 C 0.75928 0.9271 0.99355 0.0
C1732 C 0.76396 0.94121 0.9706 0.0
C1733 C 0.76519 0.93489 0.94016 0.0
C1734 C 0.74846 0.89174 0.00854 0.0
C1735 C 0.76903 0.96258 0.97818 0.0
C1736 C 0.75149 0.92958 0.078 0.0
C1737 C 0.76984 0.92171 0.08762 0.0
C1738 C 0.74845 0.93443 0.04729 0.0
C1739 C 0.76397 0.93092 0.02604 0.0
C1740 C 0.78323 0.92566 0.0366 0.0
C1741 C 0.7859 0.9212 0.06724 0.0
C1742 C 0.72807 0.94132 0.03722 0.0
C1743 C 0.80043 0.92208 0.01509 0.0
H1744 H 0.75142 0.88633 0.94887 0.0
H1745 H 0.77018 0.94523 0.92285 0.0
H1746 H 0.76173 0.88852 0.02277 0.0
H1747 H 0.73642 0.8972 0.02367 0.0
H1748 H 0.74342 0.8775 0.99809 0.0
H1749 H 0.7643 0.97276 0.95968 0.0
H1750 H 0.76188 0.96745 0.9996 0.0
H1751 H 0.78547 0.96407 0.98065 0.0
H1752 H 0.73906 0.93029 0.09374 0.0
H1753 H 0.80027 0.91562 0.07475 0.0
H1754 H 0.719 0.92818 0.03046 0.0
H1755 H 0.72921 0.95148 0.01745 0.0
H1756 H 0.72006 0.94912 0.05582 0.0
H1757 H 0.79752 0.90835 1.00168 0.0
H1758 H 0.81486 0.92017 0.02715 0.0
H1759 H 0.80192 0.9347 0.99903 0.0
C1760 C 0.07574 0.75345 0.93237 0.0
C1761 C 0.08161 0.77243 0.92229 0.0
C1762 C 0.07294 0.74976 0.96347 0.0
C1763 C 0.07633 0.76536 0.98456 0.0
C1764 C 0.07939 0.78509 0.97388 0.0
C1765 C 0.08202 0.78835 0.94285 0.0
C1766 C 0.06869 0.72872 0.97386 0.0
C1767 C 0.0827 0.80233 0.99535 0.0
C1768 C 0.07572 0.76393 0.0706 0.0
C1769 C 0.09625 0.76211 0.07643 0.0
C1770 C 0.06844 0.76317 0.0407 0.0
C1771 C 0.08206 0.7607 0.01637 0.0
C1772 C 0.10249 0.75698 0.02262 0.0
C1773 C 0.10926 0.75766 0.05249 0.0
C1774 C 0.04645 0.76648 0.03521 0.0
C1775 C 0.11766 0.75406 0.99761 0.0
H1776 H 0.07532 0.7411 0.9165 0.0
H1777 H 0.08628 0.8031 0.93499 0.0
H1778 H 0.08298 0.72116 0.97941 0.0
H1779 H 0.05923 0.7287 0.9945 0.0
H1780 H 0.06113 0.71992 0.9559 0.0
H1781 H 0.08208 0.81699 0.98359 0.0
H1782 H 0.07134 0.80224 0.01361 0.0
H1783 H 0.09762 0.80082 0.00607 0.0
H1784 H 0.06556 0.76723 0.08906 0.0
H1785 H 0.12509 0.7558 0.05697 0.0
H1786 H 0.04129 0.75859 0.01457 0.0
H1787 H 0.04362 0.78269 0.03214 0.0
H1788 H 0.03741 0.76134 0.05483 0.0
H1789 H 0.11268 0.74218 0.98187 0.0
H1790 H 0.13265 0.74994 0.00642 0.0
H1791 H 0.11916 0.76809 0.98439 0.0
C1792 C 0.22364 0.92705 0.44525 0.0
C1793 C 0.23957 0.92686 0.42462 0.0
C1794 C 0.22682 0.93091 0.47595 0.0
C1795 C 0.24646 0.93477 0.48631 0.0
C1796 C 0.26198 0.93774 0.46487 0.0
C1797 C 0.25841 0.93354 0.43408 0.0
C1798 C 0.20961 0.92806 0.49769 0.0
C1799 C 0.28281 0.94323 0.47476 0.0
C1800 C 0.246 0.93639 0.57228 0.0
C1801 C 0.24837 0.91599 0.57853 0.0
C1802 C 0.24757 0.94351 0.5423 0.0
C1803 C 0.25124 0.92979 0.51839 0.0
C1804 C 0.25567 0.9096 0.52536 0.0
C1805 C 0.25432 0.90307 0.55527 0.0
C1806 C 0.24384 0.96535 0.53623 0.0
C1807 C 0.25979 0.89429 0.50096 0.0
H1808 H 0.20894 0.92235 0.43785 0.0
H1809 H 0.27074 0.93369 0.41815 0.0
H1810 H 0.21172 0.91393 0.51046 0.0
H1811 H 0.20907 0.94046 0.51428 0.0
H1812 H 0.19498 0.92732 0.48586 0.0
H1813 H 0.29107 0.95097 0.45635 0.0
H1814 H 0.28246 0.953 0.49506 0.0
H1815 H 0.29119 0.92946 0.48063 0.0
H1816 H 0.24164 0.94649 0.5903 0.0
H1817 H 0.25665 0.88736 0.56025 0.0
H1818 H 0.2275 0.96803 0.53471 0.0
H1819 H 0.25089 0.97032 0.51477 0.0
H1820 H 0.24963 0.97465 0.55509 0.0
H1821 H 0.24628 0.89231 0.48672 0.0
H1822 H 0.26396 0.87948 0.51041 0.0
H1823 H 0.27209 0.8994 0.48604 0.0
C1824 C 0.07509 0.24774 0.57873 0.0
C1825 C 0.09555 0.24755 0.58571 0.0
C1826 C 0.06862 0.24936 0.54844 0.0
C1827 C 0.08298 0.25056 0.52484 0.0
C1828 C 0.10353 0.25198 0.53221 0.0
C1829 C 0.10947 0.25063 0.56241 0.0
C1830 C 0.04654 0.24858 0.54182 0.0
C1831 C 0.11952 0.25335 0.50806 0.0
C1832 C 0.08211 0.22441 0.45022 0.0
C1833 C 0.08451 0.24062 0.43051 0.0
C1834 C 0.07861 0.22741 0.48112 0.0
C1835 C 0.07754 0.24716 0.49253 0.0
C1836 C 0.07686 0.26342 0.47198 0.0
C1837 C 0.08053 0.25998 0.44101 0.0
C1838 C 0.07897 0.20952 0.50193 0.0
C1839 C 0.07464 0.28461 0.48307 0.0
H1840 H 0.0642 0.2456 0.59662 0.0
H1841 H 0.1253 0.25106 0.56765 0.0
H1842 H 0.04278 0.25668 0.52068 0.0
H1843 H 0.04187 0.23277 0.53919 0.0
H1844 H 0.03777 0.25508 0.56078 0.0
H1845 H 0.13473 0.25521 0.51773 0.0
H1846 H 0.11943 0.23956 0.49409 0.0
H1847 H 0.11654 0.26615 0.49282 0.0
H1848 H 0.08487 0.2094 0.44199 0.0
H1849 H 0.08227 0.27256 0.42577 0.0
H1850 H 0.06704 0.2107 0.51925 0.0
H1851 H 0.09354 0.20899 0.5139 0.0
H1852 H 0.07701 0.19526 0.4894 0.0
H1853 H 0.06437 0.28534 0.50279 0.0
H1854 H 0.06894 0.29457 0.46493 0.0
H1855 H 0.08943 0.29033 0.49038 0.0
C1856 C 0.78406 0.07621 0.56066 0.0
C1857 C 0.76756 0.0797 0.57944 0.0
C1858 C 0.78168 0.07391 0.52937 0.0
C1859 C 0.76231 0.07529 0.51667 0.0
C1860 C 0.74544 0.07564 0.53612 0.0
C1861 C 0.74826 0.078 0.56748 0.0
C1862 C 0.80012 0.07308 0.50971 0.0
C1863 C 0.72451 0.07621 0.52359 0.0
C1864 C 0.76314 0.10987 0.44926 0.0
C1865 C 0.76424 0.09656 0.4248 0.0
C1866 C 0.76136 0.10303 0.479 0.0
C1867 C 0.76042 0.08222 0.48473 0.0
C1868 C 0.76002 0.06867 0.46006 0.0
C1869 C 0.76202 0.07601 0.43027 0.0
C1870 C 0.76171 0.11819 0.5044 0.0
C1871 C 0.75854 0.04642 0.46499 0.0
H1872 H 0.79898 0.07738 0.56999 0.0
H1873 H 0.73547 0.08074 0.58198 0.0
H1874 H 0.79807 0.06235 0.49086 0.0
H1875 H 0.80285 0.08806 0.49971 0.0
H1876 H 0.81359 0.06868 0.5228 0.0
H1877 H 0.71338 0.07126 0.5407 0.0
H1878 H 0.72079 0.09176 0.51689 0.0
H1879 H 0.72321 0.06662 0.50321 0.0
H1880 H 0.76437 0.12582 0.44528 0.0
H1881 H 0.76271 0.0656 0.4115 0.0
H1882 H 0.77528 0.11598 0.51841 0.0
H1883 H 0.74852 0.11618 0.51931 0.0
H1884 H 0.76171 0.13384 0.49597 0.0
H1885 H 0.77374 0.04022 0.46844 0.0
H1886 H 0.75191 0.03885 0.44502 0.0
H1887 H 0.74944 0.04281 0.48528 0.0
C1888 C 0.9069 0.78265 0.54963 0.0
C1889 C 0.91469 0.7719 0.5742 0.0
C1890 C 0.91332 0.77907 0.52003 0.0
C1891 C 0.92844 0.76468 0.51459 0.0
C1892 C 0.9377 0.75502 0.53945 0.0
C1893 C 0.93056 0.75858 0.56905 0.0
C1894 C 0.90287 0.78986 0.49445 0.0
C1895 C 0.95442 0.7402 0.53495 0.0
C1896 C 0.91677 0.74372 0.43825 0.0
C1897 C 0.92582 0.75812 0.41981 0.0
C1898 C 0.91981 0.74376 0.46962 0.0
C1899 C 0.9323 0.75852 0.48266 0.0
C1900 C 0.94392 0.77094 0.4635 0.0
C1901 C 0.94024 0.77089 0.43216 0.0
C1902 C 0.90729 0.73 0.48896 0.0
C1903 C 0.95833 0.786 0.47637 0.0
H1904 H 0.895 0.79338 0.55329 0.0
H1905 H 0.93688 0.75035 0.58786 0.0
H1906 H 0.91388 0.79821 0.48058 0.0
H1907 H 0.89539 0.77888 0.47943 0.0
H1908 H 0.89143 0.80061 0.50266 0.0
H1909 H 0.96462 0.74012 0.55475 0.0
H1910 H 0.94803 0.72497 0.53273 0.0
H1911 H 0.96325 0.7435 0.51427 0.0
H1912 H 0.9055 0.73396 0.42862 0.0
H1913 H 0.94715 0.78213 0.4179 0.0
H1914 H 0.89497 0.73868 0.49953 0.0
H1915 H 0.91639 0.72348 0.5074 0.0
H1916 H 0.90062 0.71765 0.47555 0.0
H1917 H 0.95006 0.79968 0.4831 0.0
H1918 H 0.96983 0.79034 0.45943 0.0
H1919 H 0.96588 0.77999 0.49678 0.0
C1920 C 0.75417 0.5787 0.57527 0.0
C1921 C 0.73796 0.59155 0.58062 0.0
C1922 C 0.75931 0.57297 0.54554 0.0
C1923 C 0.74808 0.58046 0.52082 0.0
C1924 C 0.73078 0.59209 0.52648 0.0
C1925 C 0.72593 0.59736 0.55619 0.0
C1926 C 0.77743 0.55995 0.54069 0.0
C1927 C 0.71812 0.60034 0.50103 0.0
C1928 C 0.7671 0.59904 0.44655 0.0
C1929 C 0.7559 0.58723 0.42668 0.0
C1930 C 0.76711 0.59516 0.47766 0.0
C1931 C 0.75552 0.57913 0.48907 0.0
C1932 C 0.74678 0.56538 0.46857 0.0
C1933 C 0.74694 0.56968 0.43739 0.0
C1934 C 0.77707 0.61001 0.49848 0.0
C1935 C 0.73515 0.54755 0.47974 0.0
H1936 H 0.76343 0.57396 0.59403 0.0
H1937 H 0.71307 0.60688 0.56013 0.0
H1938 H 0.77598 0.55067 0.52001 0.0
H1939 H 0.79084 0.56956 0.53813 0.0
H1940 H 0.77994 0.54998 0.56041 0.0
H1941 H 0.70465 0.60833 0.50942 0.0
H1942 H 0.72709 0.61094 0.48727 0.0
H1943 H 0.71316 0.58812 0.48587 0.0
H1944 H 0.77413 0.61256 0.43813 0.0
H1945 H 0.73825 0.56053 0.42202 0.0
H1946 H 0.78504 0.6022 0.51699 0.0
H1947 H 0.76551 0.61973 0.50891 0.0
H1948 H 0.78789 0.61967 0.48623 0.0
H1949 H 0.74207 0.54116 0.50039 0.0
H1950 H 0.73421 0.53574 0.46212 0.0
H1951 H 0.71971 0.55225 0.48555 0.0
C1952 C 0.41885 0.72643 0.44571 0.0
C1953 C 0.42049 0.74192 0.4245 0.0
C1954 C 0.42316 0.72958 0.47627 0.0
C1955 C 0.42957 0.74871 0.48595 0.0
C1956 C 0.43387 0.7636 0.46403 0.0
C1957 C 0.4291 0.7601 0.43339 0.0
C1958 C 0.41847 0.71306 0.49853 0.0
C1959 C 0.44181 0.78382 0.47309 0.0
C1960 C 0.40266 0.75852 0.55883 0.0
C1961 C 0.41592 0.7502 0.57984 0.0
C1962 C 0.40789 0.76039 0.52833 0.0
C1963 C 0.427 0.75391 0.51856 0.0
C1964 C 0.44139 0.74808 0.54039 0.0
C1965 C 0.43562 0.74611 0.57096 0.0
C1966 C 0.39203 0.76698 0.50617 0.0
C1967 C 0.46227 0.74215 0.53122 0.0
H1968 H 0.41262 0.71219 0.43881 0.0
H1969 H 0.43061 0.77208 0.41705 0.0
H1970 H 0.43117 0.71075 0.5142 0.0
H1971 H 0.40525 0.7173 0.51232 0.0
H1972 H 0.41519 0.69864 0.4871 0.0
H1973 H 0.45088 0.79047 0.45459 0.0
H1974 H 0.42911 0.79404 0.47766 0.0
H1975 H 0.45107 0.78288 0.49384 0.0
H1976 H 0.38752 0.76206 0.56586 0.0
H1977 H 0.44599 0.73984 0.58721 0.0
H1978 H 0.38721 0.754 0.49233 0.0
H1979 H 0.39806 0.77845 0.49056 0.0
H1980 H 0.37866 0.77326 0.5177 0.0
H1981 H 0.46256 0.72598 0.52567 0.0
H1982 H 0.473 0.74473 0.54997 0.0
H1983 H 0.46732 0.75057 0.51098 0.0
C1984 C 0.25532 0.39997 0.45651 0.0
C1985 C 0.26061 0.41349 0.43366 0.0
C1986 C 0.25422 0.40592 0.48677 0.0
C1987 C 0.25836 0.42604 0.49456 0.0
C1988 C 0.26158 0.44026 0.47124 0.0
C1989 C 0.26278 0.43379 0.44091 0.0
C1990 C 0.25052 0.39013 0.51061 0.0
C1991 C 0.26528 0.46199 0.47833 0.0
C1992 C 0.25095 0.43025 0.57902 0.0
C1993 C 0.26982 0.42387 0.58884 0.0
C1994 C 0.24738 0.43383 0.54807 0.0
C1995 C 0.26298 0.43067 0.52682 0.0
C1996 C 0.2826 0.42691 0.53736 0.0
C1997 C 0.28575 0.42359 0.56823 0.0
C1998 C 0.22649 0.43886 0.5379 0.0
C1999 C 0.29983 0.42371 0.51577 0.0
H2000 H 0.25319 0.38433 0.45089 0.0
H2001 H 0.26671 0.44436 0.42329 0.0
H2002 H 0.26432 0.38783 0.52406 0.0
H2003 H 0.23858 0.39501 0.52638 0.0
H2004 H 0.24607 0.37555 0.50064 0.0
H2005 H 0.26065 0.47168 0.45919 0.0
H2006 H 0.25717 0.46673 0.49904 0.0
H2007 H 0.28149 0.46437 0.48212 0.0
H2008 H 0.2386 0.43059 0.59491 0.0
H2009 H 0.30042 0.41896 0.57587 0.0
H2010 H 0.21851 0.4249 0.53177 0.0
H2011 H 0.22674 0.44868 0.51768 0.0
H2012 H 0.2179 0.44635 0.55621 0.0
H2013 H 0.29785 0.40925 0.50383 0.0
H2014 H 0.31446 0.42341 0.52763 0.0
H2015 H 0.30024 0.43568 0.49845 0.0
C2016 C 0.60698 0.24764 0.55947 0.0
C2017 C 0.59357 0.25408 0.58182 0.0
C2018 C 0.60152 0.24719 0.52898 0.0
C2019 C 0.58199 0.25312 0.5205 0.0
C2020 C 0.56761 0.25716 0.54334 0.0
C2021 C 0.57362 0.25775 0.57391 0.0
C2022 C 0.61743 0.24256 0.50568 0.0
C2023 C 0.54636 0.26253 0.53549 0.0
C2024 C 0.58792 0.28314 0.4495 0.0
C2025 C 0.58687 0.26819 0.42734 0.0
C2026 C 0.58398 0.27893 0.47991 0.0
C2027 C 0.57861 0.25924 0.48845 0.0
C2028 C 0.57478 0.24482 0.46565 0.0
C2029 C 0.57913 0.24941 0.43519 0.0
C2030 C 0.58804 0.29498 0.50318 0.0
C2031 C 0.56794 0.224 0.47358 0.0
H2032 H 0.62233 0.24437 0.56565 0.0
H2033 H 0.56313 0.26257 0.59115 0.0
H2034 H 0.61187 0.23144 0.48914 0.0
H2035 H 0.62125 0.25637 0.49302 0.0
H2036 H 0.63132 0.23663 0.5161 0.0
H2037 H 0.53599 0.25827 0.55404 0.0
H2038 H 0.5452 0.27893 0.53227 0.0
H2039 H 0.5415 0.25512 0.51428 0.0
H2040 H 0.5935 0.29782 0.44341 0.0
H2041 H 0.57808 0.23783 0.41812 0.0
H2042 H 0.60176 0.29115 0.51603 0.0
H2043 H 0.57553 0.29598 0.51956 0.0
H2044 H 0.59021 0.30992 0.49269 0.0
H2045 H 0.58115 0.21449 0.4783 0.0
H2046 H 0.55959 0.21712 0.45454 0.0
H2047 H 0.5583 0.22405 0.49404 0.0
C2048 C 0.72534 0.42483 0.94167 0.0
C2049 C 0.74134 0.42317 0.92133 0.0
C2050 C 0.72864 0.42844 0.97244 0.0
C2051 C 0.74847 0.43053 0.98311 0.0
C2052 C 0.76436 0.43198 0.96193 0.0
C2053 C 0.76064 0.42808 0.9311 0.0
C2054 C 0.7111 0.42716 0.99391 0.0
C2055 C 0.78556 0.43542 0.97218 0.0
C2056 C 0.7488 0.43355 0.06911 0.0
C2057 C 0.74944 0.41314 0.07632 0.0
C2058 C 0.75048 0.43994 0.03878 0.0
C2059 C 0.75257 0.42554 0.01541 0.0
C2060 C 0.7551 0.40514 0.02313 0.0
C2061 C 0.75366 0.39929 0.05339 0.0
C2062 C 0.74863 0.46192 0.03182 0.0
C2063 C 0.75749 0.38911 0.99926 0.0
H2064 H 0.71035 0.42138 0.93401 0.0
H2065 H 0.77306 0.42697 0.9154 0.0
H2066 H 0.71172 0.41277 0.0064 0.0
H2067 H 0.7117 0.4394 0.01076 0.0
H2068 H 0.69655 0.42797 0.98187 0.0
H2069 H 0.7948 0.44191 0.95373 0.0
H2070 H 0.78602 0.44553 0.99208 0.0
H2071 H 0.79234 0.42095 0.97886 0.0
H2072 H 0.74576 0.44438 0.08677 0.0
H2073 H 0.7547 0.38353 0.05893 0.0
H2074 H 0.7326 0.46582 0.02929 0.0
H2075 H 0.75649 0.46593 0.01055 0.0
H2076 H 0.75475 0.47108 0.0506 0.0
H2077 H 0.7437 0.38822 0.98539 0.0
H2078 H 0.76034 0.37413 0.0092 0.0
H2079 H 0.77005 0.39281 0.98388 0.0
C2080 C 0.57944 0.75495 0.07815 0.0
C2081 C 0.59148 0.73824 0.08415 0.0
C2082 C 0.57374 0.75961 0.04825 0.0
C2083 C 0.58042 0.74737 0.02406 0.0
C2084 C 0.59105 0.72956 0.03051 0.0
C2085 C 0.59631 0.72522 0.06036 0.0
C2086 C 0.56173 0.7783 0.04261 0.0
C2087 C 0.59841 0.71583 0.00567 0.0
C2088 C 0.57 0.74541 0.94051 0.0
C2089 C 0.58807 0.7532 0.92967 0.0
C2090 C 0.56556 0.74599 0.97167 0.0
C2091 C 0.57969 0.75426 0.992 0.0
C2092 C 0.59645 0.76468 0.98036 0.0
C2093 C 0.60044 0.76397 0.9493 0.0
C2094 C 0.54698 0.73569 0.98304 0.0
C2095 C 0.61176 0.77411 1.00098 0.0
H2096 H 0.57545 0.76498 0.09645 0.0
H2097 H 0.60519 0.712 0.06486 0.0
H2098 H 0.57205 0.79113 0.03959 0.0
H2099 H 0.55243 0.77697 0.02195 0.0
H2100 H 0.55187 0.78171 0.06218 0.0
H2101 H 0.6055 0.70205 0.0147 0.0
H2102 H 0.58589 0.71136 0.99076 0.0
H2103 H 0.60958 0.72377 0.99149 0.0
H2104 H 0.56037 0.73711 0.92532 0.0
H2105 H 0.61433 0.77017 0.94076 0.0
H2106 H 0.54098 0.74329 1.00344 0.0
H2107 H 0.55065 0.72006 0.98933 0.0
H2108 H 0.53521 0.73526 0.96536 0.0
H2109 H 0.60434 0.78302 0.0189 0.0
H2110 H 0.62224 0.78397 0.98842 0.0
H2111 H 0.62059 0.76218 0.01219 0.0
C2112 C 0.2476 0.57969 0.07635 0.0
C2113 C 0.26711 0.58283 0.08683 0.0
C2114 C 0.24394 0.57692 0.04524 0.0
C2115 C 0.26014 0.57766 0.02453 0.0
C2116 C 0.27995 0.5778 0.03575 0.0
C2117 C 0.28317 0.58038 0.0668 0.0
C2118 C 0.22265 0.57569 0.03431 0.0
C2119 C 0.29775 0.57819 0.01473 0.0
C2120 C 0.25837 0.57726 0.93824 0.0
C2121 C 0.25894 0.59785 0.93217 0.0
C2122 C 0.25715 0.57015 0.96825 0.0
C2123 C 0.25675 0.58399 0.99257 0.0
C2124 C 0.25587 0.60473 0.98626 0.0
C2125 C 0.25681 0.61132 0.9563 0.0
C2126 C 0.25742 0.54792 0.97376 0.0
C2127 C 0.25535 0.62018 0.01124 0.0
H2128 H 0.23513 0.58151 0.09179 0.0
H2129 H 0.29828 0.58256 0.07498 0.0
H2130 H 0.21743 0.59082 0.02778 0.0
H2131 H 0.2215 0.56589 0.01412 0.0
H2132 H 0.21256 0.56993 0.05227 0.0
H2133 H 0.31198 0.57535 0.02692 0.0
H2134 H 0.29609 0.56686 0.99662 0.0
H2135 H 0.29875 0.59309 1.00378 0.0
H2136 H 0.2598 0.5667 0.91976 0.0
H2137 H 0.25672 0.62726 0.95188 0.0
H2138 H 0.24936 0.54389 0.99485 0.0
H2139 H 0.27313 0.54281 0.97593 0.0
H2140 H 0.25061 0.53971 0.95451 0.0
H2141 H 0.24263 0.61727 0.02672 0.0
H2142 H 0.25391 0.63566 1.00241 0.0
H2143 H 0.26929 0.61928 0.02476 0.0
C2144 C 0.43649 0.25882 0.93505 0.0
C2145 C 0.41671 0.25428 0.92717 0.0
C2146 C 0.44258 0.25828 0.96558 0.0
C2147 C 0.42843 0.25347 0.98838 0.0
C2148 C 0.40925 0.24649 0.97986 0.0
C2149 C 0.40372 0.2469 0.94938 0.0
C2150 C 0.46354 0.26466 0.97348 0.0
C2151 C 0.39362 0.24095 1.00311 0.0
C2152 C 0.43138 0.25093 0.07384 0.0
C2153 C 0.42278 0.26943 0.0812 0.0
C2154 C 0.4359 0.24616 0.0435 0.0
C2155 C 0.43135 0.26008 0.02031 0.0
C2156 C 0.42502 0.27959 0.0283 0.0
C2157 C 0.42098 0.28403 0.05861 0.0
C2158 C 0.44379 0.22562 0.03619 0.0
C2159 C 0.42012 0.29513 1.0046 0.0
H2160 H 0.44666 0.2644 0.9179 0.0
H2161 H 0.38851 0.24302 0.94318 0.0
H2162 H 0.46388 0.28107 0.97698 0.0
H2163 H 0.46877 0.25735 0.99456 0.0
H2164 H 0.47409 0.26105 0.95484 0.0
H2165 H 0.38012 0.23419 0.99267 0.0
H2166 H 0.39981 0.2302 0.0197 0.0
H2167 H 0.38896 0.25453 0.01572 0.0
H2168 H 0.43304 0.23964 0.09123 0.0
H2169 H 0.41479 0.29853 0.06431 0.0
H2170 H 0.45298 0.22573 0.01526 0.0
H2171 H 0.43108 0.21523 0.03271 0.0
H2172 H 0.45294 0.2197 0.05513 0.0
H2173 H 0.43267 0.29675 0.9884 0.0
H2174 H 0.41695 0.31001 0.01468 0.0
H2175 H 0.40678 0.29032 0.99159 0.0
C2176 C 0.22777 0.03788 0.20188 0.0
C2177 C 0.2415 0.05284 0.20965 0.0
C2178 C 0.22781 0.01928 0.21681 0.0
C2179 C 0.24136 0.01589 0.24092 0.0
C2180 C 0.25504 0.03113 0.24908 0.0
C2181 C 0.2552 0.04925 0.23297 0.0
C2182 C 0.21348 1.00322 0.20663 0.0
C2183 C 0.26926 0.02846 0.27526 0.0
C2184 C 0.22814 0.975 0.29777 0.0
C2185 C 0.24165 0.95986 0.28987 0.0
C2186 C 0.22807 0.99341 0.28235 0.0
C2187 C 0.24127 0.99644 0.25762 0.0
C2188 C 0.25462 0.98095 0.24917 0.0
C2189 C 0.25492 0.96303 0.26578 0.0
C2190 C 0.21412 0.00975 0.29283 0.0
C2191 C 0.26842 0.98323 0.22235 0.0
H2192 H 0.2172 0.04061 0.18379 0.0
H2193 H 0.26567 0.06089 0.23928 0.0
H2194 H 0.22184 0.98937 0.20102 0.0
H2195 H 0.20297 0.99949 0.22521 0.0
H2196 H 0.20466 0.00783 0.18654 0.0
H2197 H 0.2784 0.04204 0.27949 0.0
H2198 H 0.26074 0.02485 0.29611 0.0
H2199 H 0.27948 0.01574 0.2708 0.0
H2200 H 0.21793 0.9726 0.31648 0.0
H2201 H 0.26522 0.95123 0.2594 0.0
H2202 H 0.20358 0.01373 0.27447 0.0
H2203 H 0.2228 0.0234 0.29834 0.0
H2204 H 0.20533 0.00529 0.31308 0.0
H2205 H 0.25965 0.9871 0.20189 0.0
H2206 H 0.27709 0.96939 0.21771 0.0
H2207 H 0.27908 0.99563 0.22637 0.0
C2208 C 0.96237 0.25142 0.24078 0.0
C2209 C 0.95911 0.23886 0.2159 0.0
C2210 C 0.98024 0.25048 0.25735 0.0
C2211 C 0.99554 0.23715 0.24818 0.0
C2212 C 0.99237 0.22451 0.22288 0.0
C2213 C 0.97403 0.22528 0.20736 0.0
C2214 C 0.98273 0.26379 0.28467 0.0
C2215 C 0.00852 0.21055 0.21179 0.0
C2216 C 0.04805 0.25153 0.27279 0.0
C2217 C 0.05164 0.23805 0.29643 0.0
C2218 C 0.03012 0.25097 0.25636 0.0
C2219 C 0.01509 0.23704 0.26442 0.0
C2220 C 0.01857 0.22348 0.2885 0.0
C2221 C 0.03698 0.22392 0.30388 0.0
C2222 C 0.02729 0.26528 0.2303 0.0
C2223 C 1.0027 0.20883 0.29842 0.0
H2224 H 0.95075 0.26178 0.24765 0.0
H2225 H 0.97157 0.21561 0.18804 0.0
H2226 H 0.98692 0.25469 0.30467 0.0
H2227 H 0.99501 0.27462 0.28068 0.0
H2228 H 0.9689 0.27227 0.29006 0.0
H2229 H 1.00372 0.20174 0.19178 0.0
H2230 H 0.02204 0.21927 0.20563 0.0
H2231 H 0.01288 0.20005 0.23002 0.0
H2232 H 0.05947 0.26232 0.26674 0.0
H2233 H 0.03971 0.21353 0.32223 0.0
H2234 H 0.01477 0.27564 0.23527 0.0
H2235 H 0.0233 0.2569 0.20951 0.0
H2236 H 0.04092 0.27428 0.2257 0.0
H2237 H 0.98901 0.21705 0.30527 0.0
H2238 H 0.00768 0.19942 0.31768 0.0
H2239 H 0.99855 0.19892 0.27935 0.0
C2240 C 0.78361 0.0374 0.30211 0.0
C2241 C 0.76967 0.05197 0.29356 0.0
C2242 C 0.78387 0.01849 0.28813 0.0
C2243 C 0.77039 0.01436 0.26421 0.0
C2244 C 0.75656 0.02924 0.25514 0.0
C2245 C 0.75611 0.0477 0.27031 0.0
C2246 C 0.79835 1.00284 0.29925 0.0
C2247 C 0.74237 0.02574 0.22915 0.0
C2248 C 0.78311 0.97156 0.21036 0.0
C2249 C 0.76953 0.95682 0.21959 0.0
C2250 C 0.78343 0.99045 0.22444 0.0
C2251 C 0.77041 0.99437 0.24908 0.0
C2252 C 0.75706 0.97927 0.25895 0.0
C2253 C 0.75652 0.96085 0.24371 0.0
C2254 C 0.7974 0.00633 0.21253 0.0
C2255 C 0.74341 0.98252 0.28574 0.0
H2256 H 0.79406 0.04066 0.32016 0.0
H2257 H 0.74549 0.05905 0.26339 0.0
H2258 H 0.79006 0.98925 0.3063 0.0
H2259 H 0.80862 0.99839 0.28074 0.0
H2260 H 0.80742 0.0082 0.31866 0.0
H2261 H 0.73333 0.03921 0.22378 0.0
H2262 H 0.75087 0.02131 0.20865 0.0
H2263 H 0.73204 0.01329 0.23464 0.0
H2264 H 0.7931 0.96849 0.1916 0.0
H2265 H 0.74615 0.94938 0.2511 0.0
H2266 H 0.80788 0.0111 0.23055 0.0
H2267 H 0.7887 0.01971 0.20571 0.0
H2268 H 0.80624 1.00107 0.19279 0.0
H2269 H 0.75228 0.98724 0.3057 0.0
H2270 H 0.73484 0.96886 0.29173 0.0
H2271 H 0.73266 0.9947 0.28076 0.0
C2272 C 0.04995 0.75638 0.23218 0.0
C2273 C 0.05403 0.7702 0.20916 0.0
C2274 C 0.03167 0.75672 0.24789 0.0
C2275 C 0.0168 0.77077 0.23968 0.0
C2276 C 0.02076 0.7846 0.21611 0.0
C2277 C 0.03948 0.78438 0.20151 0.0
C2278 C 0.02835 0.7421 0.27343 0.0
C2279 C 0.00509 0.79938 0.20597 0.0
C2280 C 0.96354 0.75641 0.26105 0.0
C2281 C 0.95985 0.76877 0.28604 0.0
C2282 C 0.98174 0.7574 0.2452 0.0
C2283 C 0.99694 0.77056 0.25524 0.0
C2284 C 0.99332 0.78299 0.28065 0.0
C2285 C 0.97466 0.78221 0.29542 0.0
C2286 C 0.98469 0.74434 0.2177 0.0
C2287 C 0.00932 0.79676 0.29269 0.0
H2288 H 0.06127 0.74554 0.23841 0.0
H2289 H 0.04258 0.79504 0.18364 0.0
H2290 H 0.02407 0.75026 0.29432 0.0
H2291 H 0.01585 0.73188 0.26779 0.0
H2292 H 0.04185 0.73297 0.27822 0.0
H2293 H 0.01039 0.8089 0.18699 0.0
H2294 H 0.99146 0.79127 0.19864 0.0
H2295 H 1.00072 0.80919 0.22507 0.0
H2296 H 0.95203 0.74616 0.25353 0.0
H2297 H 0.97186 0.79171 0.31484 0.0
H2298 H 0.99684 0.73342 0.22191 0.0
H2299 H 0.98929 0.75361 0.19807 0.0
H2300 H 0.97092 0.73598 0.2116 0.0
H2301 H 0.0227 0.78791 0.29909 0.0
H2302 H 0.0042 0.80536 0.31275 0.0
H2303 H 0.01404 0.80744 0.2749 0.0
C2304 C 0.78654 0.95866 0.77658 0.0
C2305 C 0.77231 0.9562 0.79955 0.0
C2306 C 0.78732 0.97638 0.75943 0.0
C2307 C 0.77412 0.99233 0.76632 0.0
C2308 C 0.76031 0.99016 0.79048 0.0
C2309 C 0.75924 0.97194 0.80629 0.0
C2310 C 0.80168 0.97768 0.73313 0.0
C2311 C 0.74652 0.00702 0.79945 0.0
C2312 C 0.78706 0.04442 0.73681 0.0
C2313 C 0.77297 0.04685 0.71371 0.0
C2314 C 0.78754 0.02683 0.7543 0.0
C2315 C 0.77418 0.01098 0.74761 0.0
C2316 C 0.76045 0.01316 0.72343 0.0
C2317 C 0.75969 0.03125 0.70727 0.0
C2318 C 0.80182 0.02552 0.78062 0.0
C2319 C 0.74649 0.9964 0.71467 0.0
H2320 H 0.79645 0.94635 0.7711 0.0
H2321 H 0.74825 0.97003 0.82412 0.0
H2322 H 0.79319 0.97989 0.71185 0.0
H2323 H 0.8117 0.99075 0.73582 0.0
H2324 H 0.811 0.96402 0.73082 0.0
H2325 H 0.73817 1.00369 0.82059 0.0
H2326 H 0.75519 0.021 0.80273 0.0
H2327 H 0.73557 0.00984 0.78115 0.0
H2328 H 0.79715 0.05662 0.74203 0.0
H2329 H 0.74882 0.03315 0.68933 0.0
H2330 H 0.81184 0.01244 0.77793 0.0
H2331 H 0.79328 0.0233 0.8019 0.0
H2332 H 0.81114 0.03918 0.78295 0.0
H2333 H 0.75505 0.98236 0.71126 0.0
H2334 H 0.73807 0.99978 0.69365 0.0
H2335 H 0.7356 0.99365 0.73313 0.0
C2336 C 0.96967 0.76103 0.69848 0.0
C2337 C 0.95398 0.77386 0.70643 0.0
C2338 C 0.98809 0.76177 0.71376 0.0
C2339 C 0.99052 0.77498 0.73857 0.0
C2340 C 0.97461 0.78791 0.74673 0.0
C2341 C 0.95668 0.7875 0.73012 0.0
C2342 C 0.00488 0.7483 0.70347 0.0
C2343 C 0.97622 0.80163 0.77373 0.0
C2344 C 0.03053 0.7597 0.7954 0.0
C2345 C 0.04587 0.77331 0.789 0.0
C2346 C 0.01218 0.76056 0.77993 0.0
C2347 C 0.00947 0.77478 0.75649 0.0
C2348 C 0.02507 0.78844 0.7498 0.0
C2349 C 0.04292 0.78781 0.7666 0.0
C2350 C 0.99572 0.74624 0.78866 0.0
C2351 C 0.02317 0.80327 0.72424 0.0
H2352 H 0.96757 0.75052 0.68009 0.0
H2353 H 0.94441 0.79722 0.73653 0.0
H2354 H 0.01873 0.75716 0.69998 0.0
H2355 H 0.00811 0.73701 0.72115 0.0
H2356 H 1.00125 0.74035 0.68212 0.0
H2357 H 0.9625 0.81071 0.77715 0.0
H2358 H 0.97894 0.79266 0.79443 0.0
H2359 H 0.98912 0.81188 0.77101 0.0
H2360 H 0.0328 0.74853 0.81282 0.0
H2361 H 0.0549 0.79818 0.7614 0.0
H2362 H 0.99269 0.7358 0.76973 0.0
H2363 H 0.98169 0.75459 0.79319 0.0
H2364 H 0.99956 0.73732 0.80903 0.0
H2365 H 0.02053 0.79519 0.70269 0.0
H2366 H 0.03675 0.8127 0.72168 0.0
H2367 H 0.01013 0.81318 0.72806 0.0
C2368 C 0.25052 0.95975 0.73507 0.0
C2369 C 0.23731 0.95549 0.71134 0.0
C2370 C 0.24966 0.97804 0.75062 0.0
C2371 C 0.23567 0.99277 0.74162 0.0
C2372 C 0.22239 0.98862 0.71744 0.0
C2373 C 0.22315 0.96988 0.70291 0.0
C2374 C 0.26371 0.98157 0.77679 0.0
C2375 C 0.20768 0.00411 0.70652 0.0
C2376 C 0.22321 0.03472 0.79712 0.0
C2377 C 0.23682 0.04958 0.78837 0.0
C2378 C 0.2226 0.01617 0.78208 0.0
C2379 C 0.23542 0.01267 0.75706 0.0
C2380 C 0.24872 0.02792 0.74759 0.0
C2381 C 0.2495 0.04603 0.76366 0.0
C2382 C 0.20864 1.00012 0.79351 0.0
C2383 C 0.26224 0.02508 0.72055 0.0
H2384 H 0.26135 0.94858 0.7419 0.0
H2385 H 0.21297 0.96666 0.6845 0.0
H2386 H 0.27396 0.99412 0.77145 0.0
H2387 H 0.2551 0.98587 0.79725 0.0
H2388 H 0.27283 0.96816 0.78214 0.0
H2389 H 0.1985 0.99863 0.68732 0.0
H2390 H 0.19754 0.00855 0.72521 0.0
H2391 H 0.21582 0.01775 0.69923 0.0
H2392 H 0.21346 0.0374 0.81629 0.0
H2393 H 0.25989 0.05757 0.75661 0.0
H2394 H 0.21742 0.98684 0.80055 0.0
H2395 H 0.19845 0.99524 0.77518 0.0
H2396 H 0.1995 0.00525 0.81302 0.0
H2397 H 0.27322 0.01306 0.72522 0.0
H2398 H 0.27056 0.03893 0.71468 0.0
H2399 H 0.25335 0.02036 0.70062 0.0
C2400 C 0.95955 0.22466 0.76994 0.0
C2401 C 0.9556 0.23788 0.79379 0.0
C2402 C 0.97785 0.22529 0.75422 0.0
C2403 C 0.99295 0.23885 0.76347 0.0
C2404 C 0.98915 0.25189 0.78813 0.0
C2405 C 0.97035 0.25157 0.80251 0.0
C2406 C 0.98088 0.2117 0.72733 0.0
C2407 C 0.00505 0.26598 0.79961 0.0
C2408 C 0.04641 0.226 0.74024 0.0
C2409 C 0.05019 0.2401 0.71751 0.0
C2410 C 0.02805 0.22572 0.75581 0.0
C2411 C 0.01272 0.23928 0.7475 0.0
C2412 C 0.01634 0.25321 0.72393 0.0
C2413 C 0.0352 0.25377 0.70972 0.0
C2414 C 0.02522 0.21118 0.78158 0.0
C2415 C 1.0002 0.26737 0.71344 0.0
H2416 H 0.94804 0.21423 0.76295 0.0
H2417 H 0.96731 0.26175 0.82104 0.0
H2418 H 0.98498 0.22068 0.70715 0.0
H2419 H 0.9934 0.20124 0.7317 0.0
H2420 H 0.9673 0.20282 0.72203 0.0
H2421 H 1.00014 0.27431 0.82005 0.0
H2422 H 0.01882 0.2575 0.80516 0.0
H2423 H 0.00903 0.27693 0.78178 0.0
H2424 H 0.0581 0.21557 0.74651 0.0
H2425 H 0.0381 0.26462 0.69204 0.0
H2426 H 0.01287 0.20069 0.77635 0.0
H2427 H 0.02096 0.2194 0.80243 0.0
H2428 H 0.03893 0.20235 0.78623 0.0
H2429 H 0.98658 0.25883 0.70724 0.0
H2430 H 0.00498 0.27641 0.69365 0.0
H2431 H 0.99602 0.27767 0.73204 0.0
C2432 C 0.75165 0.54681 0.73567 0.0
C2433 C 0.73751 0.55105 0.71321 0.0
C2434 C 0.75147 0.52842 0.7511 0.0
C2435 C 0.73729 0.5136 0.74309 0.0
C2436 C 0.72322 0.5177 0.71995 0.0
C2437 C 0.72326 0.53652 0.70571 0.0
C2438 C 0.76632 0.52496 0.77624 0.0
C2439 C 0.70831 0.50212 0.70995 0.0
C2440 C 0.75094 0.46001 0.76365 0.0
C2441 C 0.73846 0.45633 0.78852 0.0
C2442 C 0.75031 0.47836 0.74819 0.0
C2443 C 0.73743 0.49372 0.75857 0.0
C2444 C 0.72497 0.49015 0.78399 0.0
C2445 C 0.72535 0.47134 0.79829 0.0
C2446 C 0.76332 0.48124 0.7206 0.0
C2447 C 0.71154 0.50631 0.79644 0.0
H2448 H 0.76254 0.5581 0.74178 0.0
H2449 H 0.71236 0.53975 0.68825 0.0
H2450 H 0.75832 0.52081 0.79733 0.0
H2451 H 0.77633 0.51233 0.77036 0.0
H2452 H 0.77565 0.53836 0.78078 0.0
H2453 H 0.69882 0.50741 0.69098 0.0
H2454 H 0.71628 0.48837 0.70269 0.0
H2455 H 0.69846 0.49792 0.72912 0.0
H2456 H 0.76095 0.44834 0.75585 0.0
H2457 H 0.71578 0.46854 0.81764 0.0
H2458 H 0.77432 0.49334 0.72474 0.0
H2459 H 0.75402 0.48588 0.70107 0.0
H2460 H 0.7716 0.46743 0.7144 0.0
H2461 H 0.72058 0.51964 0.80246 0.0
H2462 H 0.70318 0.50133 0.81681 0.0
H2463 H 0.70063 0.51105 0.779 0.0
C2464 C 0.53312 0.72463 0.80411 0.0
C2465 C 0.54806 0.73837 0.79622 0.0
C2466 C 0.51485 0.72407 0.78838 0.0
C2467 C 0.51176 0.73707 0.76349 0.0
C2468 C 0.527 0.75069 0.75512 0.0
C2469 C 0.54481 0.75141 0.7719 0.0
C2470 C 0.49875 0.70978 0.79865 0.0
C2471 C 0.5246 0.7644 0.72824 0.0
C2472 C 0.47133 0.72331 0.70637 0.0
C2473 C 0.45613 0.73687 0.71381 0.0
C2474 C 0.48961 0.72333 0.72211 0.0
C2475 C 0.49245 0.73676 0.74655 0.0
C2476 C 0.47694 0.75019 0.75449 0.0
C2477 C 0.45913 0.75032 0.73769 0.0
C2478 C 0.50598 0.70921 0.7123 0.0
C2479 C 0.47908 0.76434 0.7809 0.0
H2480 H 0.53557 0.71458 0.82297 0.0
H2481 H 0.55643 0.76189 0.76551 0.0
H2482 H 0.48492 0.71819 0.80417 0.0
H2483 H 0.49501 0.69922 0.78017 0.0
H2484 H 0.5033 0.70102 0.81884 0.0
H2485 H 0.53826 0.77337 0.72376 0.0
H2486 H 0.52106 0.75551 0.70774 0.0
H2487 H 0.51192 0.77478 0.7321 0.0
H2488 H 0.46907 0.71295 0.68783 0.0
H2489 H 0.44731 0.76067 0.74374 0.0
H2490 H 0.50993 0.69901 0.73113 0.0
H2491 H 0.51964 0.71781 0.70647 0.0
H2492 H 0.50159 0.70006 0.69242 0.0
H2493 H 0.4828 0.75583 0.80169 0.0
H2494 H 0.46525 0.7731 0.78511 0.0
H2495 H 0.49154 0.77491 0.77669 0.0
C2496 C 0.25695 0.47449 0.71381 0.0
C2497 C 0.27073 0.45954 0.7213 0.0
C2498 C 0.25707 0.49306 0.72875 0.0
C2499 C 0.27068 0.4964 0.75278 0.0
C2500 C 0.28451 0.48119 0.7606 0.0
C2501 C 0.28466 0.4631 0.7443 0.0
C2502 C 0.24264 0.5091 0.71877 0.0
C2503 C 0.29873 0.48378 0.78678 0.0
C2504 C 0.28232 0.54976 0.77759 0.0
C2505 C 0.26828 0.55275 0.80071 0.0
C2506 C 0.28314 0.53159 0.76161 0.0
C2507 C 0.27022 0.5157 0.76988 0.0
C2508 C 0.25649 0.51848 0.79401 0.0
C2509 C 0.25535 0.53714 0.80863 0.0
C2510 C 0.29738 0.52964 0.73525 0.0
C2511 C 0.24301 0.50173 0.8044 0.0
H2512 H 0.24621 0.47173 0.69594 0.0
H2513 H 0.29514 0.45141 0.75035 0.0
H2514 H 0.23179 0.51228 0.73713 0.0
H2515 H 0.25083 0.52318 0.71403 0.0
H2516 H 0.23419 0.50472 0.6982 0.0
H2517 H 0.30824 0.47038 0.79038 0.0
H2518 H 0.30857 0.49686 0.78287 0.0
H2519 H 0.29014 0.48675 0.8078 0.0
H2520 H 0.29215 0.56195 0.77123 0.0
H2521 H 0.24456 0.53945 0.82661 0.0
H2522 H 0.28889 0.52612 0.71438 0.0
H2523 H 0.30793 0.51713 0.73915 0.0
H2524 H 0.30616 0.54351 0.73137 0.0
H2525 H 0.23223 0.4979 0.78629 0.0
H2526 H 0.23448 0.50573 0.82511 0.0
H2527 H 0.25198 0.48812 0.80908 0.0
C2528 C 0.47236 0.27893 0.80181 0.0
C2529 C 0.4571 0.26571 0.79339 0.0
C2530 C 0.49099 0.27879 0.78687 0.0
C2531 C 0.49417 0.26563 0.76216 0.0
C2532 C 0.47859 0.25256 0.7532 0.0
C2533 C 0.46041 0.2525 0.76926 0.0
C2534 C 0.50737 0.29249 0.79784 0.0
C2535 C 0.48103 0.23875 0.72643 0.0
C2536 C 0.53635 0.27823 0.70694 0.0
C2537 C 0.55099 0.2642 0.71492 0.0
C2538 C 0.51769 0.27868 0.72176 0.0
C2539 C 0.51385 0.26528 0.74594 0.0
C2540 C 0.52878 0.25133 0.75441 0.0
C2541 C 0.54699 0.25073 0.73845 0.0
C2542 C 0.502 0.29332 0.7113 0.0
C2543 C 0.52563 0.2372 0.78061 0.0
H2544 H 0.46989 0.28909 0.82055 0.0
H2545 H 0.44857 0.2424 0.76245 0.0
H2546 H 0.52079 0.28359 0.80383 0.0
H2547 H 0.51182 0.30294 0.77957 0.0
H2548 H 0.50274 0.30137 0.81789 0.0
H2549 H 0.46714 0.23029 0.72138 0.0
H2550 H 0.48531 0.24749 0.7061 0.0
H2551 H 0.49323 0.22792 0.73081 0.0
H2552 H 0.53935 0.28862 0.68868 0.0
H2553 H 0.55835 0.24 0.74494 0.0
H2554 H 0.4981 0.30373 0.72991 0.0
H2555 H 0.48814 0.28519 0.70507 0.0
H2556 H 0.50704 0.30223 0.69151 0.0
H2557 H 0.52183 0.24579 0.80131 0.0
H2558 H 0.53906 0.22794 0.78527 0.0
H2559 H 0.51288 0.2271 0.77584 0.0
C2560 C 0.28315 0.53473 0.2126 0.0
C2561 C 0.26974 0.54983 0.22104 0.0
C2562 C 0.28334 0.5162 0.22777 0.0
C2563 C 0.27034 0.51302 0.25269 0.0
C2564 C 0.25716 0.52849 0.26174 0.0
C2565 C 0.25676 0.54652 0.24546 0.0
C2566 C 0.29715 0.49991 0.21673 0.0
C2567 C 0.24353 0.52604 0.28874 0.0
C2568 C 0.25557 0.46039 0.27708 0.0
C2569 C 0.26909 0.45659 0.30058 0.0
C2570 C 0.25618 0.47844 0.26082 0.0
C2571 C 0.27017 0.49341 0.26898 0.0
C2572 C 0.28361 0.48978 0.29312 0.0
C2573 C 0.28316 0.47126 0.30824 0.0
C2574 C 0.242 0.4814 0.23467 0.0
C2575 C 0.29828 0.50556 0.30326 0.0
H2576 H 0.29313 0.53722 0.19362 0.0
H2577 H 0.24652 0.55826 0.25226 0.0
H2578 H 0.3076 0.49549 0.23498 0.0
H2579 H 0.28831 0.48645 0.21069 0.0
H2580 H 0.30601 0.50459 0.19669 0.0
H2581 H 0.23509 0.53992 0.29396 0.0
H2582 H 0.23267 0.51383 0.28451 0.0
H2583 H 0.25239 0.52176 0.30893 0.0
H2584 H 0.24484 0.44897 0.27083 0.0
H2585 H 0.2936 0.46838 0.32646 0.0
H2586 H 0.25052 0.48521 0.21391 0.0
H2587 H 0.2318 0.49409 0.23945 0.0
H2588 H 0.23283 0.46789 0.23013 0.0
H2589 H 0.30854 0.50944 0.28445 0.0
H2590 H 0.30733 0.50061 0.32292 0.0
H2591 H 0.29013 0.5194 0.30956 0.0
C2592 C 0.54786 0.25869 0.2693 0.0
C2593 C 0.55151 0.27159 0.29365 0.0
C2594 C 0.52982 0.25953 0.25314 0.0
C2595 C 0.51472 0.27311 0.26225 0.0
C2596 C 0.51827 0.28607 0.28706 0.0
C2597 C 0.5368 0.28541 0.30211 0.0
C2598 C 0.52695 0.24589 0.22628 0.0
C2599 C 0.50234 0.30028 0.29815 0.0
C2600 C 0.47283 0.28581 0.20695 0.0
C2601 C 0.45821 0.27178 0.21499 0.0
C2602 C 0.49136 0.2864 0.22202 0.0
C2603 C 0.495 0.27315 0.24643 0.0
C2604 C 0.47999 0.25934 0.25512 0.0
C2605 C 0.46195 0.25859 0.23894 0.0
C2606 C 0.50719 0.30086 0.21138 0.0
C2607 C 0.48295 0.24537 0.28155 0.0
H2608 H 0.55932 0.24815 0.26246 0.0
H2609 H 0.53959 0.29535 0.32101 0.0
H2610 H 0.51466 0.23519 0.23089 0.0
H2611 H 0.5226 0.25476 0.20613 0.0
H2612 H 0.54067 0.23726 0.22079 0.0
H2613 H 0.50739 0.30927 0.31782 0.0
H2614 H 0.49788 0.3106 0.27974 0.0
H2615 H 0.48881 0.29173 0.30481 0.0
H2616 H 0.46998 0.29598 0.18837 0.0
H2617 H 0.45056 0.24789 0.24546 0.0
H2618 H 0.52079 0.2925 0.20447 0.0
H2619 H 0.51157 0.31098 0.2301 0.0
H2620 H 0.50208 0.31008 0.19198 0.0
H2621 H 0.49532 0.23482 0.27662 0.0
H2622 H 0.46929 0.23657 0.28676 0.0
H2623 H 0.48724 0.254 0.30198 0.0
C2624 C 0.75457 0.54616 0.26731 0.0
C2625 C 0.74185 0.54894 0.29218 0.0
C2626 C 0.75408 0.52839 0.25033 0.0
C2627 C 0.74107 0.51271 0.25908 0.0
C2628 C 0.72838 0.51537 0.2845 0.0
C2629 C 0.72866 0.5336 0.3004 0.0
C2630 C 0.76739 0.52648 0.22287 0.0
C2631 C 0.71476 0.49882 0.2952 0.0
C2632 C 0.72742 0.47172 0.20269 0.0
C2633 C 0.74149 0.4569 0.20962 0.0
C2634 C 0.7273 0.49009 0.21823 0.0
C2635 C 0.7411 0.49341 0.24204 0.0
C2636 C 0.75512 0.47831 0.24938 0.0
C2637 C 0.75538 0.46041 0.23274 0.0
C2638 C 0.71256 0.50603 0.20899 0.0
C2639 C 0.76968 0.48093 0.27514 0.0
H2640 H 0.76463 0.55809 0.26067 0.0
H2641 H 0.71887 0.5357 0.3197 0.0
H2642 H 0.77828 0.51418 0.22623 0.0
H2643 H 0.75829 0.52264 0.20273 0.0
H2644 H 0.7758 0.54045 0.21809 0.0
H2645 H 0.70618 0.50307 0.31575 0.0
H2646 H 0.70404 0.49477 0.27711 0.0
H2647 H 0.72369 0.48525 0.3003 0.0
H2648 H 0.71671 0.46906 0.18477 0.0
H2649 H 0.76612 0.44887 0.23843 0.0
H2650 H 0.72064 0.52 0.20312 0.0
H2651 H 0.70243 0.50956 0.22814 0.0
H2652 H 0.70335 0.50142 0.18931 0.0
H2653 H 0.7797 0.49378 0.27056 0.0
H2654 H 0.77902 0.46742 0.27883 0.0
H2655 H 0.76143 0.48429 0.29634 0.0
C2656 C 0.46156 0.75304 0.26808 0.0
C2657 C 0.45734 0.74025 0.29238 0.0
C2658 C 0.47998 0.75213 0.2528 0.0
C2659 C 0.4949 0.73865 0.26279 0.0
C2660 C 0.49079 0.72587 0.28764 0.0
C2661 C 0.4719 0.72655 0.30176 0.0
C2662 C 0.4834 0.76553 0.2258 0.0
C2663 C 0.50648 0.71177 0.29969 0.0
C2664 C 0.53751 0.72448 0.20936 0.0
C2665 C 0.55229 0.73835 0.21739 0.0
C2666 C 0.5187 0.72452 0.2237 0.0
C2667 C 0.51487 0.73822 0.24749 0.0
C2668 C 0.52997 0.75194 0.25611 0.0
C2669 C 0.54833 0.75209 0.24057 0.0
C2670 C 0.50281 0.71015 0.21302 0.0
C2671 C 0.5268 0.76636 0.28195 0.0
H2672 H 0.45023 0.7635 0.26055 0.0
H2673 H 0.46869 0.71672 0.32065 0.0
H2674 H 0.49575 0.77612 0.23054 0.0
H2675 H 0.48792 0.75644 0.20593 0.0
H2676 H 0.46986 0.77427 0.21977 0.0
H2677 H 0.50113 0.7032 0.31964 0.0
H2678 H 0.51104 0.70104 0.28185 0.0
H2679 H 0.52002 0.72032 0.30625 0.0
H2680 H 0.54052 0.71389 0.19136 0.0
H2681 H 0.55983 0.76267 0.24708 0.0
H2682 H 0.48934 0.71858 0.20584 0.0
H2683 H 0.49822 0.70016 0.2318 0.0
H2684 H 0.50799 0.70078 0.1938 0.0
H2685 H 0.51455 0.7769 0.2764 0.0
H2686 H 0.54046 0.77516 0.28712 0.0
H2687 H 0.52224 0.75808 0.30259 0.0
C2688 C 0.18646 0.14414 0.21115 0.0
C2689 C 0.20696 0.14228 0.2168 0.0
C2690 C 0.17446 0.15709 0.22859 0.0
C2691 C 0.18287 0.16725 0.25374 0.0
C2692 C 0.20337 0.16443 0.26043 0.0
C2693 C 0.21517 0.15228 0.24169 0.0
C2694 C 0.15289 0.16016 0.21973 0.0
C2695 C 0.21279 0.17376 0.28788 0.0
C2696 C 0.15691 0.21411 0.2835 0.0
C2697 C 0.14311 0.2061 0.30388 0.0
C2698 C 0.1706 0.20189 0.26819 0.0
C2699 C 0.17022 0.18087 0.27275 0.0
C2700 C 0.15687 0.17282 0.29459 0.0
C2701 C 0.14312 0.18548 0.30932 0.0
C2702 C 0.18508 0.21206 0.24711 0.0
C2703 C 0.1573 0.15091 0.30272 0.0
H2704 H 0.17983 0.13547 0.19308 0.0
H2705 H 0.23089 0.15032 0.24682 0.0
H2706 H 0.14278 0.15529 0.23815 0.0
H2707 H 0.15006 0.17632 0.21593 0.0
H2708 H 0.14889 0.15175 0.19896 0.0
H2709 H 0.21024 0.19013 0.28809 0.0
H2710 H 0.20565 0.16734 0.30828 0.0
H2711 H 0.22914 0.17095 0.28914 0.0
H2712 H 0.1569 0.23009 0.27929 0.0
H2713 H 0.13216 0.17923 0.32472 0.0
H2714 H 0.19685 0.20202 0.23839 0.0
H2715 H 0.19245 0.22468 0.25903 0.0
H2716 H 0.17669 0.21861 0.22792 0.0
H2717 H 0.15278 0.14167 0.28311 0.0
H2718 H 0.1472 0.14737 0.32195 0.0
H2719 H 0.17276 0.14643 0.30877 0.0
C2720 C 0.86839 0.18586 0.19614 0.0
C2721 C 0.86797 0.2064 0.20217 0.0
C2722 C 0.8545 0.17283 0.20987 0.0
C2723 C 0.84057 0.18044 0.23123 0.0
C2724 C 0.83967 0.20141 0.23612 0.0
C2725 C 0.85353 0.21399 0.22189 0.0
C2726 C 0.85462 0.151 0.20126 0.0
C2727 C 0.82444 0.21116 0.25644 0.0
C2728 C 0.79553 0.15131 0.2607 0.0
C2729 C 0.80337 0.14171 0.28622 0.0
C2730 C 0.80755 0.16332 0.24207 0.0
C2731 C 0.82788 0.16649 0.24959 0.0
C2732 C 0.83595 0.15662 0.27524 0.0
C2733 C 0.82376 0.14376 0.29254 0.0
C2734 C 0.79857 0.17218 0.21395 0.0
C2735 C 0.85736 0.15991 0.28478 0.0
H2736 H 0.87977 0.17994 0.18115 0.0
H2737 H 0.85319 0.22992 0.2265 0.0
H2738 H 0.85921 0.1417 0.22077 0.0
H2739 H 0.83933 0.14622 0.1948 0.0
H2740 H 0.86495 0.14788 0.18213 0.0
H2741 H 0.81704 0.2236 0.24415 0.0
H2742 H 0.81272 0.20083 0.26451 0.0
H2743 H 0.8322 0.21792 0.27608 0.0
H2744 H 0.77992 0.14915 0.25499 0.0
H2745 H 0.83018 0.1353 0.311 0.0
H2746 H 0.8063 0.16571 0.19403 0.0
H2747 H 0.80079 0.1886 0.21356 0.0
H2748 H 0.78233 0.16902 0.21192 0.0
H2749 H 0.86777 0.15517 0.26666 0.0
H2750 H 0.86117 0.15153 0.30566 0.0
H2751 H 0.85996 0.1761 0.28871 0.0
C2752 C 0.86658 0.8198 0.30467 0.0
C2753 C 0.86755 0.79951 0.29701 0.0
C2754 C 0.8525 0.83257 0.29092 0.0
C2755 C 0.83985 0.82508 0.26778 0.0
C2756 C 0.84083 0.80451 0.26027 0.0
C2757 C 0.85464 0.79206 0.27488 0.0
C2758 C 0.85122 0.85407 0.30104 0.0
C2759 C 0.82822 0.79561 0.23556 0.0
C2760 C 0.79331 0.8535 0.24221 0.0
C2761 C 0.80067 0.86495 0.21819 0.0
C2762 C 0.80583 0.8406 0.25856 0.0
C2763 C 0.82629 0.83885 0.25059 0.0
C2764 C 0.83376 0.85033 0.22608 0.0
C2765 C 0.82099 0.86368 0.21079 0.0
C2766 C 0.79724 0.82963 0.28525 0.0
C2767 C 0.85525 0.84851 0.21599 0.0
H2768 H 0.87708 0.82575 0.32098 0.0
H2769 H 0.85568 0.77644 0.26844 0.0
H2770 H 0.85542 0.86419 0.28224 0.0
H2771 H 0.8356 0.85771 0.30747 0.0
H2772 H 0.86116 0.85722 0.32057 0.0
H2773 H 0.8131 0.80235 0.23481 0.0
H2774 H 0.83581 0.79852 0.21373 0.0
H2775 H 0.82661 0.77917 0.23814 0.0
H2776 H 0.77772 0.85494 0.24864 0.0
H2777 H 0.82698 0.8734 0.19342 0.0
H2778 H 0.80259 0.8371 0.30609 0.0
H2779 H 0.80232 0.81386 0.28565 0.0
H2780 H 0.78063 0.82985 0.2854 0.0
H2781 H 0.86546 0.85274 0.23462 0.0
H2782 H 0.85863 0.85811 0.19616 0.0
H2783 H 0.85855 0.83272 0.2101 0.0
C2784 C 0.21627 0.85546 0.27448 0.0
C2785 C 0.2081 0.86901 0.29512 0.0
C2786 C 0.20417 0.84186 0.25876 0.0
C2787 C 0.18313 0.84204 0.26324 0.0
C2788 C 0.17489 0.85534 0.28495 0.0
C2789 C 0.18742 0.86903 0.30002 0.0
C2790 C 0.21442 0.8277 0.23727 0.0
C2791 C 0.15291 0.85489 0.29268 0.0
C2792 C 0.14609 0.82414 0.2032 0.0
C2793 C 0.14423 0.80382 0.21026 0.0
C2794 C 0.15928 0.83657 0.21948 0.0
C2795 C 0.16973 0.82881 0.24483 0.0
C2796 C 0.16713 0.80844 0.25264 0.0
C2797 C 0.15467 0.79622 0.23511 0.0
C2798 C 0.16225 0.8579 0.20929 0.0
C2799 C 0.17664 0.7996 0.28035 0.0
H2800 H 0.23227 0.85552 0.27049 0.0
H2801 H 0.18101 0.87991 0.31539 0.0
H2802 H 0.22818 0.82158 0.24782 0.0
H2803 H 0.20489 0.81501 0.23037 0.0
H2804 H 0.21918 0.83615 0.21695 0.0
H2805 H 0.14913 0.8652 0.31153 0.0
H2806 H 0.14383 0.8591 0.27276 0.0
H2807 H 0.14847 0.83948 0.29913 0.0
H2808 H 0.13718 0.83032 0.18505 0.0
H2809 H 0.15274 0.78065 0.24131 0.0
H2810 H 0.17835 0.86057 0.20469 0.0
H2811 H 0.15771 0.86845 0.22732 0.0
H2812 H 0.15353 0.86142 0.18861 0.0
H2813 H 0.19238 0.80448 0.28272 0.0
H2814 H 0.17624 0.783 0.28023 0.0
H2815 H 0.16809 0.80491 0.30029 0.0
C2816 C 0.85945 0.81967 0.70455 0.0
C2817 C 0.86118 0.79919 0.71057 0.0
C2818 C 0.84625 0.83182 0.72131 0.0
C2819 C 0.83528 0.82348 0.74573 0.0
C2820 C 0.83726 0.80278 0.75195 0.0
C2821 C 0.85014 0.79095 0.73436 0.0
C2822 C 0.84415 0.85359 0.713 0.0
C2823 C 0.82669 0.79315 0.77815 0.0
C2824 C 0.81836 0.86152 0.80505 0.0
C2825 C 0.79792 0.86326 0.79872 0.0
C2826 C 0.8305 0.84793 0.78899 0.0
C2827 C 0.82219 0.83652 0.76504 0.0
C2828 C 0.80147 0.83827 0.75886 0.0
C2829 C 0.78968 0.85165 0.77562 0.0
C2830 C 0.85223 0.84589 0.79751 0.0
C2831 C 0.79176 0.82687 0.73355 0.0
H2832 H 0.8687 0.82628 0.68709 0.0
H2833 H 0.85188 0.77521 0.73959 0.0
H2834 H 0.82818 0.85713 0.70876 0.0
H2835 H 0.84916 0.86315 0.732 0.0
H2836 H 0.853 0.85756 0.6926 0.0
H2837 H 0.82603 0.77662 0.77586 0.0
H2838 H 0.8352 0.79672 0.79895 0.0
H2839 H 0.81125 0.79892 0.78064 0.0
H2840 H 0.82492 0.87103 0.8222 0.0
H2841 H 0.77394 0.85329 0.77029 0.0
H2842 H 0.86186 0.85094 0.77858 0.0
H2843 H 0.85582 0.82994 0.80183 0.0
H2844 H 0.85604 0.85475 0.81794 0.0
H2845 H 0.77526 0.82611 0.73624 0.0
H2846 H 0.79768 0.81144 0.73192 0.0
H2847 H 0.79506 0.8348 0.71215 0.0
C2848 C 0.18505 0.8628 0.69924 0.0
C2849 C 0.20532 0.86384 0.70699 0.0
C2850 C 0.17207 0.84932 0.71397 0.0
C2851 C 0.17932 0.83741 0.73815 0.0
C2852 C 0.19985 0.83851 0.74585 0.0
C2853 C 0.21251 0.85169 0.73027 0.0
C2854 C 0.15062 0.84789 0.70374 0.0
C2855 C 0.20846 0.82672 0.77166 0.0
C2856 C 0.14005 0.82067 0.79573 0.0
C2857 C 0.13854 0.80018 0.78963 0.0
C2858 C 0.15373 0.83281 0.77987 0.0
C2859 C 0.16534 0.82448 0.75613 0.0
C2860 C 0.16343 0.80382 0.7496 0.0
C2861 C 0.15013 0.79197 0.76642 0.0
C2862 C 0.15575 0.85453 0.78854 0.0
C2863 C 0.17455 0.79426 0.72384 0.0
H2864 H 0.17929 0.87276 0.68201 0.0
H2865 H 0.22811 0.8528 0.73676 0.0
H2866 H 0.14687 0.8321 0.69853 0.0
H2867 H 0.14044 0.85281 0.72209 0.0
H2868 H 0.14767 0.85718 0.68342 0.0
H2869 H 0.22494 0.82507 0.76963 0.0
H2870 H 0.20526 0.83498 0.79282 0.0
H2871 H 0.20173 0.81162 0.7733 0.0
H2872 H 0.1303 0.82727 0.81255 0.0
H2873 H 0.14852 0.77624 0.76103 0.0
H2874 H 0.15167 0.86425 0.76922 0.0
H2875 H 0.17156 0.85785 0.79428 0.0
H2876 H 0.14613 0.85856 0.8081 0.0
H2877 H 0.17489 0.7777 0.72577 0.0
H2878 H 0.19014 0.7998 0.72243 0.0
H2879 H 0.16668 0.79819 0.70263 0.0
C2880 C 0.14995 0.21578 0.74988 0.0
C2881 C 0.14029 0.20836 0.72414 0.0
C2882 C 0.16206 0.20344 0.76786 0.0
C2883 C 0.16518 0.18322 0.75951 0.0
C2884 C 0.15518 0.17558 0.73367 0.0
C2885 C 0.14229 0.18807 0.71701 0.0
C2886 C 0.17117 0.21198 0.79611 0.0
C2887 C 0.15837 0.15434 0.72322 0.0
C2888 C 0.21256 0.15643 0.78505 0.0
C2889 C 0.20488 0.14154 0.80389 0.0
C2890 C 0.20008 0.17089 0.77206 0.0
C2891 C 0.17913 0.17012 0.77718 0.0
C2892 C 0.17146 0.15569 0.79771 0.0
C2893 C 0.18437 0.14127 0.81028 0.0
C2894 C 0.20996 0.18669 0.75293 0.0
C2895 C 0.14968 0.15562 0.80668 0.0
H2896 H 0.14784 0.23131 0.75618 0.0
H2897 H 0.13382 0.18198 0.69831 0.0
H2898 H 0.16539 0.20355 0.81582 0.0
H2899 H 0.18765 0.21028 0.79554 0.0
H2900 H 0.16756 0.22805 0.79928 0.0
H2901 H 0.17457 0.15164 0.71947 0.0
H2902 H 0.15334 0.14364 0.74075 0.0
H2903 H 0.15015 0.15099 0.70203 0.0
H2904 H 0.22848 0.15672 0.7803 0.0
H2905 H 0.1784 0.1296 0.82468 0.0
H2906 H 0.22194 0.19407 0.76624 0.0
H2907 H 0.19957 0.19836 0.74493 0.0
H2908 H 0.21736 0.17948 0.7333 0.0
H2909 H 0.1451 0.17083 0.81397 0.0
H2910 H 0.14657 0.14494 0.82532 0.0
H2911 H 0.14021 0.15153 0.78711 0.0
C2912 C 0.85479 0.21349 0.763 0.0
C2913 C 0.86521 0.20541 0.78755 0.0
C2914 C 0.84234 0.20154 0.74491 0.0
C2915 C 0.83978 0.18102 0.7519 0.0
C2916 C 0.85042 0.17278 0.77669 0.0
C2917 C 0.86356 0.18492 0.79345 0.0
C2918 C 0.83243 0.21082 0.71785 0.0
C2919 C 0.84769 0.15121 0.78589 0.0
C2920 C 0.79297 0.15376 0.72477 0.0
C2921 C 0.801 0.13978 0.70471 0.0
C2922 C 0.80512 0.16806 0.73893 0.0
C2923 C 0.82607 0.16808 0.73355 0.0
C2924 C 0.83407 0.15454 0.71197 0.0
C2925 C 0.82151 0.14022 0.69839 0.0
C2926 C 0.7949 0.18287 0.75938 0.0
C2927 C 0.85582 0.15535 0.7029 0.0
H2928 H 0.85657 0.22921 0.75769 0.0
H2929 H 0.87252 0.1784 0.81126 0.0
H2930 H 0.83865 0.2038 0.69721 0.0
H2931 H 0.81611 0.20801 0.71829 0.0
H2932 H 0.83496 0.22721 0.71649 0.0
H2933 H 0.85608 0.14749 0.80677 0.0
H2934 H 0.83157 0.14808 0.7896 0.0
H2935 H 0.85287 0.14109 0.7677 0.0
H2936 H 0.77705 0.15351 0.7295 0.0
H2937 H 0.82778 0.1292 0.68312 0.0
H2938 H 0.78699 0.17474 0.77769 0.0
H2939 H 0.78329 0.19102 0.74634 0.0
H2940 H 0.80517 0.194 0.76926 0.0
H2941 H 0.85989 0.17085 0.69639 0.0
H2942 H 0.85922 0.14518 0.68371 0.0
H2943 H 0.8655 0.15114 0.72217 0.0
C2944 C 0.68311 0.6425 0.71269 0.0
C2945 C 0.70372 0.64137 0.71774 0.0
C2946 C 0.67101 0.65564 0.72961 0.0
C2947 C 0.6795 0.66693 0.75359 0.0
C2948 C 0.70035 0.6654 0.75907 0.0
C2949 C 0.71211 0.6527 0.7411 0.0
C2950 C 0.64922 0.65774 0.72136 0.0
C2951 C 0.71044 0.67658 0.78434 0.0
C2952 C 0.65184 0.71291 0.78304 0.0
C2953 C 0.63875 0.70457 0.80422 0.0
C2954 C 0.6657 0.70113 0.76732 0.0
C2955 C 0.66649 0.68021 0.77263 0.0
C2956 C 0.65386 0.67184 0.79519 0.0
C2957 C 0.6397 0.68402 0.81004 0.0
C2958 C 0.67913 0.71169 0.74513 0.0
C2959 C 0.65561 0.65014 0.80415 0.0
H2960 H 0.67645 0.63305 0.69556 0.0
H2961 H 0.728 0.65145 0.74558 0.0
H2962 H 0.63958 0.65253 0.74013 0.0
H2963 H 0.64563 0.67374 0.71741 0.0
H2964 H 0.64531 0.64904 0.70081 0.0
H2965 H 0.70374 0.6915 0.78801 0.0
H2966 H 0.70885 0.66772 0.80533 0.0
H2967 H 0.72668 0.67856 0.77993 0.0
H2968 H 0.6511 0.72883 0.77844 0.0
H2969 H 0.6293 0.67748 0.82605 0.0
H2970 H 0.66986 0.71837 0.727 0.0
H2971 H 0.69061 0.7019 0.73503 0.0
H2972 H 0.68685 0.72426 0.75667 0.0
H2973 H 0.65171 0.64028 0.78492 0.0
H2974 H 0.64575 0.64632 0.82353 0.0
H2975 H 0.67133 0.64677 0.81039 0.0
C2976 C 0.31735 0.64492 0.80033 0.0
C2977 C 0.29694 0.64341 0.79381 0.0
C2978 C 0.32996 0.65741 0.78315 0.0
C2979 C 0.32224 0.66768 0.75761 0.0
C2980 C 0.30157 0.66593 0.75088 0.0
C2981 C 0.28927 0.65382 0.76898 0.0
C2982 C 0.35147 0.6599 0.79276 0.0
C2983 C 0.29224 0.67629 0.72421 0.0
C2984 C 0.35147 0.71201 0.7258 0.0
C2985 C 0.36495 0.70264 0.70621 0.0
C2986 C 0.33697 0.70109 0.74166 0.0
C2987 C 0.33591 0.68001 0.73815 0.0
C2988 C 0.34901 0.67057 0.71721 0.0
C2989 C 0.36377 0.68192 0.70216 0.0
C2990 C 0.32325 0.71268 0.76221 0.0
C2991 C 0.34724 0.64854 0.71034 0.0
H2992 H 0.32348 0.63624 0.8188 0.0
H2993 H 0.27354 0.65232 0.7635 0.0
H2994 H 0.36167 0.65392 0.77521 0.0
H2995 H 0.35494 0.67604 0.79543 0.0
H2996 H 0.35471 0.65211 0.81437 0.0
H2997 H 0.29885 0.69123 0.72037 0.0
H2998 H 0.29477 0.66697 0.70389 0.0
H2999 H 0.27584 0.67809 0.7271 0.0
H3000 H 0.35242 0.72806 0.72908 0.0
H3001 H 0.37445 0.67459 0.68741 0.0
H3002 H 0.33218 0.71947 0.78064 0.0
H3003 H 0.31112 0.70355 0.772 0.0
H3004 H 0.31637 0.72521 0.74944 0.0
H3005 H 0.35734 0.64385 0.69168 0.0
H3006 H 0.33159 0.64496 0.70396 0.0
H3007 H 0.35085 0.63955 0.73063 0.0
C3008 C 0.35428 0.29353 0.77666 0.0
C3009 C 0.36646 0.30125 0.79954 0.0
C3010 C 0.34077 0.30571 0.76091 0.0
C3011 C 0.33909 0.32626 0.76832 0.0
C3012 C 0.35118 0.33409 0.79191 0.0
C3013 C 0.36519 0.32163 0.80652 0.0
C3014 C 0.32914 0.29658 0.73531 0.0
C3015 C 0.34914 0.35556 0.80196 0.0
C3016 C 0.32058 0.36591 0.71278 0.0
C3017 C 0.30012 0.36677 0.71942 0.0
C3018 C 0.3332 0.35217 0.72754 0.0
C3019 C 0.32539 0.33971 0.75071 0.0
C3020 C 0.30459 0.34054 0.75719 0.0
C3021 C 0.29234 0.35415 0.74168 0.0
C3022 C 0.35484 0.35081 0.71803 0.0
C3023 C 0.29489 0.32756 0.78082 0.0
H3024 H 0.35561 0.27787 0.7706 0.0
H3025 H 0.37521 0.32784 0.8233 0.0
H3026 H 0.3136 0.30227 0.73458 0.0
H3027 H 0.3367 0.30066 0.7139 0.0
H3028 H 0.32865 0.28001 0.7368 0.0
H3029 H 0.35895 0.35908 0.8215 0.0
H3030 H 0.35297 0.36586 0.78323 0.0
H3031 H 0.33338 0.3586 0.80836 0.0
H3032 H 0.32676 0.37616 0.69628 0.0
H3033 H 0.27655 0.355 0.74716 0.0
H3034 H 0.35853 0.33513 0.71197 0.0
H3035 H 0.36477 0.35511 0.73696 0.0
H3036 H 0.35828 0.36061 0.69844 0.0
H3037 H 0.30344 0.31374 0.78534 0.0
H3038 H 0.27953 0.32327 0.77384 0.0
H3039 H 0.29353 0.33629 0.802 0.0
C3040 C 0.6526 0.2904 0.73844 0.0
C3041 C 0.64155 0.29801 0.71417 0.0
C3042 C 0.66543 0.30264 0.75537 0.0
C3043 C 0.66773 0.32306 0.74759 0.0
C3044 C 0.65665 0.33082 0.72286 0.0
C3045 C 0.64318 0.31835 0.70715 0.0
C3046 C 0.6759 0.29378 0.78228 0.0
C3047 C 0.65924 0.35219 0.71266 0.0
C3048 C 0.68622 0.36362 0.80168 0.0
C3049 C 0.70674 0.36401 0.79543 0.0
C3050 C 0.67355 0.34962 0.78752 0.0
C3051 C 0.68144 0.33636 0.76542 0.0
C3052 C 0.70236 0.3365 0.75978 0.0
C3053 C 0.71461 0.35043 0.77457 0.0
C3054 C 0.65178 0.34887 0.79649 0.0
C3055 C 0.71231 0.32242 0.73788 0.0
H3056 H 0.65092 0.27479 0.74458 0.0
H3057 H 0.63388 0.32453 0.68944 0.0
H3058 H 0.66923 0.30028 0.80298 0.0
H3059 H 0.67431 0.27727 0.7834 0.0
H3060 H 0.69204 0.29752 0.78199 0.0
H3061 H 0.65012 0.35569 0.69237 0.0
H3062 H 0.65492 0.36266 0.73094 0.0
H3063 H 0.67523 0.35504 0.70741 0.0
H3064 H 0.68002 0.37448 0.81727 0.0
H3065 H 0.73049 0.35079 0.76956 0.0
H3066 H 0.64768 0.33338 0.80303 0.0
H3067 H 0.64218 0.35307 0.77713 0.0
H3068 H 0.64835 0.35906 0.81564 0.0
H3069 H 0.72636 0.3165 0.74778 0.0
H3070 H 0.71653 0.33086 0.71727 0.0
H3071 H 0.70278 0.3096 0.73154 0.0
C3072 C 0.35356 0.29439 0.23308 0.0
C3073 C 0.36649 0.30258 0.21155 0.0
C3074 C 0.34009 0.30641 0.24925 0.0
C3075 C 0.33977 0.32738 0.24426 0.0
C3076 C 0.35235 0.33561 0.22156 0.0
C3077 C 0.36593 0.32317 0.20604 0.0
C3078 C 0.32678 0.2962 0.27197 0.0
C3079 C 0.35134 0.3575 0.21342 0.0
C3080 C 0.29446 0.35567 0.27471 0.0
C3081 C 0.30263 0.36648 0.29881 0.0
C3082 C 0.30631 0.34309 0.25673 0.0
C3083 C 0.3269 0.34079 0.26329 0.0
C3084 C 0.33523 0.35157 0.2879 0.0
C3085 C 0.32313 0.36483 0.30467 0.0
C3086 C 0.29685 0.33299 0.22995 0.0
C3087 C 0.35684 0.34891 0.29679 0.0
H3088 H 0.35411 0.27845 0.23756 0.0
H3089 H 0.37635 0.3296 0.18997 0.0
H3090 H 0.33576 0.29251 0.29225 0.0
H3091 H 0.3138 0.30539 0.27875 0.0
H3092 H 0.32111 0.28185 0.26267 0.0
H3093 H 0.361 0.36122 0.19377 0.0
H3094 H 0.33568 0.36166 0.20802 0.0
H3095 H 0.35605 0.36683 0.23284 0.0
H3096 H 0.27872 0.35739 0.26948 0.0
H3097 H 0.3297 0.37398 0.32225 0.0
H3098 H 0.30089 0.31693 0.22912 0.0
H3099 H 0.30257 0.34024 0.20917 0.0
H3100 H 0.28029 0.33427 0.23009 0.0
H3101 H 0.35979 0.33288 0.30158 0.0
H3102 H 0.36083 0.35788 0.31703 0.0
H3103 H 0.36685 0.35335 0.278 0.0
C3104 C 0.64366 0.32305 0.30381 0.0
C3105 C 0.64321 0.30249 0.29793 0.0
C3106 C 0.65724 0.33566 0.28863 0.0
C3107 C 0.66997 0.32765 0.26592 0.0
C3108 C 0.66981 0.3067 0.26069 0.0
C3109 C 0.6563 0.29451 0.27647 0.0
C3110 C 0.65812 0.35749 0.29714 0.0
C3111 C 0.6834 0.29666 0.23817 0.0
C3112 C 0.68641 0.3654 0.20581 0.0
C3113 C 0.7069 0.36711 0.21164 0.0
C3114 C 0.67437 0.35206 0.22254 0.0
C3115 C 0.68275 0.34126 0.24708 0.0
C3116 C 0.70332 0.34368 0.25369 0.0
C3117 C 0.71512 0.35633 0.23574 0.0
C3118 C 0.65276 0.34934 0.21366 0.0
C3119 C 0.71282 0.33358 0.28042 0.0
H3120 H 0.63316 0.32931 0.31992 0.0
H3121 H 0.65587 0.2786 0.27177 0.0
H3122 H 0.67375 0.36171 0.30265 0.0
H3123 H 0.65337 0.36693 0.27788 0.0
H3124 H 0.64843 0.36101 0.31685 0.0
H3125 H 0.67456 0.29262 0.2179 0.0
H3126 H 0.69621 0.30607 0.23136 0.0
H3127 H 0.68934 0.2825 0.24772 0.0
H3128 H 0.6798 0.37453 0.18825 0.0
H3129 H 0.73086 0.35811 0.24096 0.0
H3130 H 0.64274 0.35374 0.23247 0.0
H3131 H 0.64985 0.3333 0.20886 0.0
H3132 H 0.64873 0.35831 0.19344 0.0
H3133 H 0.72935 0.33523 0.2806 0.0
H3134 H 0.70913 0.31744 0.28084 0.0
H3135 H 0.70677 0.34051 0.30126 0.0
C3136 C 0.68674 0.64009 0.30945 0.0
C3137 C 0.70723 0.63936 0.3031 0.0
C3138 C 0.67433 0.65434 0.29532 0.0
C3139 C 0.68239 0.66728 0.27292 0.0
C3140 C 0.70326 0.66669 0.26707 0.0
C3141 C 0.71529 0.65274 0.28211 0.0
C3142 C 0.65271 0.65587 0.3049 0.0
C3143 C 0.71353 0.68049 0.24509 0.0
C3144 C 0.64399 0.68418 0.21435 0.0
C3145 C 0.64281 0.70474 0.21984 0.0
C3146 C 0.65736 0.67201 0.23068 0.0
C3147 C 0.66884 0.68038 0.25455 0.0
C3148 C 0.66724 0.70117 0.26051 0.0
C3149 C 0.65431 0.713 0.2431 0.0
C3150 C 0.65949 0.6503 0.2219 0.0
C3151 C 0.67863 0.71115 0.28566 0.0
H3152 H 0.68042 0.62949 0.32534 0.0
H3153 H 0.73117 0.65218 0.27712 0.0
H3154 H 0.64933 0.6715 0.31168 0.0
H3155 H 0.64266 0.65213 0.28585 0.0
H3156 H 0.64915 0.64577 0.32411 0.0
H3157 H 0.72592 0.6884 0.25676 0.0
H3158 H 0.72044 0.67148 0.22679 0.0
H3159 H 0.70351 0.69182 0.2352 0.0
H3160 H 0.63441 0.6776 0.19732 0.0
H3161 H 0.65303 0.72884 0.24794 0.0
H3162 H 0.65446 0.64047 0.24056 0.0
H3163 H 0.67547 0.64681 0.21756 0.0
H3164 H 0.65065 0.64653 0.20146 0.0
H3165 H 0.66977 0.70977 0.30672 0.0
H3166 H 0.68083 0.72735 0.28115 0.0
H3167 H 0.69346 0.70427 0.28927 0.0
C3168 C 0.32193 0.6431 0.20649 0.0
C3169 C 0.30149 0.64202 0.21316 0.0
C3170 C 0.33429 0.65734 0.22073 0.0
C3171 C 0.32622 0.67002 0.24341 0.0
C3172 C 0.30552 0.66882 0.25011 0.0
C3173 C 0.29349 0.65487 0.23497 0.0
C3174 C 0.35598 0.65876 0.21156 0.0
C3175 C 0.29606 0.68138 0.27445 0.0
C3176 C 0.36411 0.68961 0.30086 0.0
C3177 C 0.36538 0.70987 0.29309 0.0
C3178 C 0.35088 0.67667 0.28566 0.0
C3179 C 0.33953 0.68389 0.26089 0.0
C3180 C 0.34118 0.70431 0.25268 0.0
C3181 C 0.35398 0.717 0.26891 0.0
C3182 C 0.34905 0.65527 0.29613 0.0
C3183 C 0.33022 0.71268 0.22588 0.0
H3184 H 0.32831 0.63259 0.19055 0.0
H3185 H 0.27775 0.65372 0.24068 0.0
H3186 H 0.35955 0.67435 0.20487 0.0
H3187 H 0.36577 0.65496 0.23091 0.0
H3188 H 0.35968 0.64861 0.19249 0.0
H3189 H 0.27961 0.68259 0.2715 0.0
H3190 H 0.29893 0.67404 0.29646 0.0
H3191 H 0.30244 0.69665 0.27511 0.0
H3192 H 0.37372 0.68381 0.31847 0.0
H3193 H 0.35539 0.73255 0.26227 0.0
H3194 H 0.35359 0.64489 0.27784 0.0
H3195 H 0.3332 0.65192 0.30163 0.0
H3196 H 0.35841 0.65215 0.3163 0.0
H3197 H 0.33016 0.72929 0.22576 0.0
H3198 H 0.31454 0.70734 0.22526 0.0
H3199 H 0.3379 0.70747 0.20512 0.0
loop_
_geom_bond_atom_site_label_1
_geom_bond_atom_site_label_2
_geom_bond_distance
_geom_bond_site_symmetry_2
_ccdc_geom_bond_type
Mn0 O5 2.095 . S
Mn0 O15 2.162 . S
Mn0 O16 2.297 . S
Mn0 O24 2.385 . S
Mn0 O25 2.209 . S
Mn0 O26 2.094 . S
Mn1 O6 2.121 . S
Mn1 N8 2.257 . S
Mn1 N17 2.282 . S
Mn1 O25 2.215 . S
Mn1 O27 2.117 . S
C2 O24 1.234 . S
C2 O25 1.283 . S
C3 O15 1.281 . S
C3 O16 1.236 . S
C4 O26 1.240 . S
C4 O27 1.264 . S
O5 Mn0 2.095 . S
O5 C14 1.250 . S
O6 Mn1 2.121 . S
O6 C14 1.258 . S
C7 N8 1.326 . S
C7 C11 1.460 . S
C7 H13 0.929 . S
N8 Mn1 2.257 . S
N8 C7 1.326 . S
N8 C12 1.362 . S
C9 C10 1.258 . S
C9 C12 1.431 . S
C9 C29 1.449 . S
C10 C9 1.258 . S
C10 C11 1.477 . S
C10 H30 0.931 . S
C11 C7 1.460 . S
C11 C10 1.477 . S
C11 H31 0.930 . S
C12 N8 1.362 . S
C12 C9 1.431 . S
C12 C22 1.476 . S
H13 C7 0.929 . S
C14 O5 1.250 . S
C14 O6 1.258 . S
O15 Mn0 2.162 . S
O15 C3 1.281 . S
O16 Mn0 2.297 . S
O16 C3 1.236 . S
N17 Mn1 2.282 . S
N17 C18 1.328 . S
N17 C22 1.318 . S
C18 N17 1.328 . S
C18 C19 1.457 . S
C18 H23 0.929 . S
C19 C18 1.457 . S
C19 C20 1.291 . S
C19 H32 0.931 . S
C20 C19 1.291 . S
C20 C21 1.373 . S
C20 H33 0.929 . S
C21 C20 1.373 . S
C21 C22 1.396 . S
C21 C28 1.403 . S
C22 C12 1.476 . S
C22 N17 1.318 . S
C22 C21 1.396 . S
H23 C18 0.929 . S
O24 Mn0 2.385 . S
O24 C2 1.234 . S
O25 Mn0 2.209 . S
O25 Mn1 2.215 . S
O25 C2 1.283 . S
O26 Mn0 2.094 . S
O26 C4 1.240 . S
O27 Mn1 2.117 . S
O27 C4 1.264 . S
C28 C21 1.403 . S
C28 C29 1.399 . S
C28 H34 0.929 . S
C29 C9 1.449 . S
C29 C28 1.399 . S
C29 H35 0.930 . S
H30 C10 0.931 . S
H31 C11 0.930 . S
H32 C19 0.931 . S
H33 C20 0.929 . S
H34 C28 0.929 . S
H35 C29 0.930 . S
Mn36 O41 2.095 . S
Mn36 O51 2.162 . S
Mn36 O52 2.297 . S
Mn36 O60 2.385 . S
Mn36 O61 2.209 . S
Mn36 O62 2.094 . S
Mn37 O42 2.121 . S
Mn37 N44 2.257 . S
Mn37 N53 2.282 . S
Mn37 O61 2.215 . S
Mn37 O63 2.117 . S
C38 O60 1.234 . S
C38 O61 1.283 . S
C39 O51 1.281 . S
C39 O52 1.236 . S
C40 O62 1.240 . S
C40 O63 1.264 . S
O41 Mn36 2.095 . S
O41 C50 1.250 . S
O42 Mn37 2.121 . S
O42 C50 1.258 . S
C43 N44 1.326 . S
C43 C47 1.460 . S
C43 H49 0.929 . S
N44 Mn37 2.257 . S
N44 C43 1.326 . S
N44 C48 1.362 . S
C45 C46 1.258 . S
C45 C48 1.431 . S
C45 C65 1.449 . S
C46 C45 1.258 . S
C46 C47 1.477 . S
C46 H66 0.931 . S
C47 C43 1.460 . S
C47 C46 1.477 . S
C47 H67 0.930 . S
C48 N44 1.362 . S
C48 C45 1.431 . S
C48 C58 1.476 . S
H49 C43 0.929 . S
C50 O41 1.250 . S
C50 O42 1.258 . S
O51 Mn36 2.162 . S
O51 C39 1.281 . S
O52 Mn36 2.297 . S
O52 C39 1.236 . S
N53 Mn37 2.282 . S
N53 C54 1.328 . S
N53 C58 1.318 . S
C54 N53 1.328 . S
C54 C55 1.457 . S
C54 H59 0.929 . S
C55 C54 1.457 . S
C55 C56 1.291 . S
C55 H68 0.931 . S
C56 C55 1.291 . S
C56 C57 1.373 . S
C56 H69 0.929 . S
C57 C56 1.373 . S
C57 C58 1.396 . S
C57 C64 1.403 . S
C58 C48 1.476 . S
C58 N53 1.318 . S
C58 C57 1.396 . S
H59 C54 0.929 . S
O60 Mn36 2.385 . S
O60 C38 1.234 . S
O61 Mn36 2.209 . S
O61 Mn37 2.215 . S
O61 C38 1.283 . S
O62 Mn36 2.094 . S
O62 C40 1.240 . S
O63 Mn37 2.117 . S
O63 C40 1.264 . S
C64 C57 1.403 . S
C64 C65 1.399 . S
C64 H70 0.929 . S
C65 C45 1.449 . S
C65 C64 1.399 . S
C65 H71 0.930 . S
H66 C46 0.931 . S
H67 C47 0.930 . S
H68 C55 0.931 . S
H69 C56 0.929 . S
H70 C64 0.929 . S
H71 C65 0.930 . S
Mn72 O77 2.095 . S
Mn72 O87 2.162 . S
Mn72 O88 2.297 . S
Mn72 O96 2.385 . S
Mn72 O97 2.209 . S
Mn72 O98 2.094 . S
Mn73 O78 2.121 . S
Mn73 N80 2.257 . S
Mn73 N89 2.282 . S
Mn73 O97 2.215 . S
Mn73 O99 2.117 . S
C74 O96 1.234 . S
C74 O97 1.283 . S
C75 O87 1.281 . S
C75 O88 1.236 . S
C76 O98 1.240 . S
C76 O99 1.264 . S
O77 Mn72 2.095 . S
O77 C86 1.250 . S
O78 Mn73 2.121 . S
O78 C86 1.258 . S
C79 N80 1.326 . S
C79 C83 1.460 . S
C79 H85 0.929 . S
N80 Mn73 2.257 . S
N80 C79 1.326 . S
N80 C84 1.362 . S
C81 C82 1.258 . S
C81 C84 1.431 . S
C81 C101 1.449 . S
C82 C81 1.258 . S
C82 C83 1.477 . S
C82 H102 0.931 . S
C83 C79 1.460 . S
C83 C82 1.477 . S
C83 H103 0.930 . S
C84 N80 1.362 . S
C84 C81 1.431 . S
C84 C94 1.476 . S
H85 C79 0.929 . S
C86 O77 1.250 . S
C86 O78 1.258 . S
O87 Mn72 2.162 . S
O87 C75 1.281 . S
O88 Mn72 2.297 . S
O88 C75 1.236 . S
N89 Mn73 2.282 . S
N89 C90 1.328 . S
N89 C94 1.318 . S
C90 N89 1.328 . S
C90 C91 1.457 . S
C90 H95 0.929 . S
C91 C90 1.457 . S
C91 C92 1.291 . S
C91 H104 0.931 . S
C92 C91 1.291 . S
C92 C93 1.373 . S
C92 H105 0.929 . S
C93 C92 1.373 . S
C93 C94 1.396 . S
C93 C100 1.403 . S
C94 C84 1.476 . S
C94 N89 1.318 . S
C94 C93 1.396 . S
H95 C90 0.929 . S
O96 Mn72 2.385 . S
O96 C74 1.234 . S
O97 Mn72 2.209 . S
O97 Mn73 2.215 . S
O97 C74 1.283 . S
O98 Mn72 2.094 . S
O98 C76 1.240 . S
O99 Mn73 2.117 . S
O99 C76 1.264 . S
C100 C93 1.403 . S
C100 C101 1.399 . S
C100 H106 0.929 . S
C101 C81 1.449 . S
C101 C100 1.399 . S
C101 H107 0.930 . S
H102 C82 0.931 . S
H103 C83 0.930 . S
H104 C91 0.931 . S
H105 C92 0.929 . S
H106 C100 0.929 . S
H107 C101 0.930 . S
Mn108 O113 2.095 . S
Mn108 O123 2.162 . S
Mn108 O124 2.297 . S
Mn108 O132 2.385 . S
Mn108 O133 2.209 . S
Mn108 O134 2.094 . S
Mn109 O114 2.121 . S
Mn109 N116 2.257 . S
Mn109 N125 2.282 . S
Mn109 O133 2.215 . S
Mn109 O135 2.117 . S
C110 O132 1.234 . S
C110 O133 1.283 . S
C111 O123 1.281 . S
C111 O124 1.236 . S
C112 O134 1.240 . S
C112 O135 1.264 . S
O113 Mn108 2.095 . S
O113 C122 1.250 . S
O114 Mn109 2.121 . S
O114 C122 1.258 . S
C115 N116 1.326 . S
C115 C119 1.460 . S
C115 H121 0.929 . S
N116 Mn109 2.257 . S
N116 C115 1.326 . S
N116 C120 1.362 . S
C117 C118 1.258 . S
C117 C120 1.431 . S
C117 C137 1.449 . S
C118 C117 1.258 . S
C118 C119 1.477 . S
C118 H138 0.931 . S
C119 C115 1.460 . S
C119 C118 1.477 . S
C119 H139 0.930 . S
C120 N116 1.362 . S
C120 C117 1.431 . S
C120 C130 1.476 . S
H121 C115 0.929 . S
C122 O113 1.250 . S
C122 O114 1.258 . S
O123 Mn108 2.162 . S
O123 C111 1.281 . S
O124 Mn108 2.297 . S
O124 C111 1.236 . S
N125 Mn109 2.282 . S
N125 C126 1.328 . S
N125 C130 1.318 . S
C126 N125 1.328 . S
C126 C127 1.457 . S
C126 H131 0.929 . S
C127 C126 1.457 . S
C127 C128 1.291 . S
C127 H140 0.931 . S
C128 C127 1.291 . S
C128 C129 1.373 . S
C128 H141 0.929 . S
C129 C128 1.373 . S
C129 C130 1.396 . S
C129 C136 1.403 . S
C130 C120 1.476 . S
C130 N125 1.318 . S
C130 C129 1.396 . S
H131 C126 0.929 . S
O132 Mn108 2.385 . S
O132 C110 1.234 . S
O133 Mn108 2.209 . S
O133 Mn109 2.215 . S
O133 C110 1.283 . S
O134 Mn108 2.094 . S
O134 C112 1.240 . S
O135 Mn109 2.117 . S
O135 C112 1.264 . S
C136 C129 1.403 . S
C136 C137 1.399 . S
C136 H142 0.929 . S
C137 C117 1.449 . S
C137 C136 1.399 . S
C137 H143 0.930 . S
H138 C118 0.931 . S
H139 C119 0.930 . S
H140 C127 0.931 . S
H141 C128 0.929 . S
H142 C136 0.929 . S
H143 C137 0.930 . S
Mn144 O149 2.095 . S
Mn144 O159 2.162 . S
Mn144 O160 2.297 . S
Mn144 O168 2.385 . S
Mn144 O169 2.209 . S
Mn144 O170 2.094 . S
Mn145 O150 2.121 . S
Mn145 N152 2.257 . S
Mn145 N161 2.282 . S
Mn145 O169 2.215 . S
Mn145 O171 2.117 . S
C146 O168 1.234 . S
C146 O169 1.283 . S
C147 O159 1.281 . S
C147 O160 1.236 . S
C148 O170 1.240 . S
C148 O171 1.264 . S
O149 Mn144 2.095 . S
O149 C158 1.250 . S
O150 Mn145 2.121 . S
O150 C158 1.258 . S
C151 N152 1.326 . S
C151 C155 1.460 . S
C151 H157 0.929 . S
N152 Mn145 2.257 . S
N152 C151 1.326 . S
N152 C156 1.362 . S
C153 C154 1.258 . S
C153 C156 1.431 . S
C153 C173 1.449 . S
C154 C153 1.258 . S
C154 C155 1.477 . S
C154 H174 0.931 . S
C155 C151 1.460 . S
C155 C154 1.477 . S
C155 H175 0.930 . S
C156 N152 1.362 . S
C156 C153 1.431 . S
C156 C166 1.476 . S
H157 C151 0.929 . S
C158 O149 1.250 . S
C158 O150 1.258 . S
O159 Mn144 2.162 . S
O159 C147 1.281 . S
O160 Mn144 2.297 . S
O160 C147 1.236 . S
N161 Mn145 2.282 . S
N161 C162 1.328 . S
N161 C166 1.318 . S
C162 N161 1.328 . S
C162 C163 1.457 . S
C162 H167 0.929 . S
C163 C162 1.457 . S
C163 C164 1.291 . S
C163 H176 0.931 . S
C164 C163 1.291 . S
C164 C165 1.373 . S
C164 H177 0.929 . S
C165 C164 1.373 . S
C165 C166 1.396 . S
C165 C172 1.403 . S
C166 C156 1.476 . S
C166 N161 1.318 . S
C166 C165 1.396 . S
H167 C162 0.929 . S
O168 Mn144 2.385 . S
O168 C146 1.234 . S
O169 Mn144 2.209 . S
O169 Mn145 2.215 . S
O169 C146 1.283 . S
O170 Mn144 2.094 . S
O170 C148 1.240 . S
O171 Mn145 2.117 . S
O171 C148 1.264 . S
C172 C165 1.403 . S
C172 C173 1.399 . S
C172 H178 0.929 . S
C173 C153 1.449 . S
C173 C172 1.399 . S
C173 H179 0.930 . S
H174 C154 0.931 . S
H175 C155 0.930 . S
H176 C163 0.931 . S
H177 C164 0.929 . S
H178 C172 0.929 . S
H179 C173 0.930 . S
Mn180 O185 2.095 . S
Mn180 O195 2.162 . S
Mn180 O196 2.297 . S
Mn180 O204 2.385 . S
Mn180 O205 2.209 . S
Mn180 O206 2.094 . S
Mn181 O186 2.121 . S
Mn181 N188 2.257 . S
Mn181 N197 2.282 . S
Mn181 O205 2.215 . S
Mn181 O207 2.117 . S
C182 O204 1.234 . S
C182 O205 1.283 . S
C183 O195 1.281 . S
C183 O196 1.236 . S
C184 O206 1.240 . S
C184 O207 1.264 . S
O185 Mn180 2.095 . S
O185 C194 1.250 . S
O186 Mn181 2.121 . S
O186 C194 1.258 . S
C187 N188 1.326 . S
C187 C191 1.460 . S
C187 H193 0.929 . S
N188 Mn181 2.257 . S
N188 C187 1.326 . S
N188 C192 1.362 . S
C189 C190 1.258 . S
C189 C192 1.431 . S
C189 C209 1.449 . S
C190 C189 1.258 . S
C190 C191 1.477 . S
C190 H210 0.931 . S
C191 C187 1.460 . S
C191 C190 1.477 . S
C191 H211 0.930 . S
C192 N188 1.362 . S
C192 C189 1.431 . S
C192 C202 1.476 . S
H193 C187 0.929 . S
C194 O185 1.250 . S
C194 O186 1.258 . S
O195 Mn180 2.162 . S
O195 C183 1.281 . S
O196 Mn180 2.297 . S
O196 C183 1.236 . S
N197 Mn181 2.282 . S
N197 C198 1.328 . S
N197 C202 1.318 . S
C198 N197 1.328 . S
C198 C199 1.457 . S
C198 H203 0.929 . S
C199 C198 1.457 . S
C199 C200 1.291 . S
C199 H212 0.931 . S
C200 C199 1.291 . S
C200 C201 1.373 . S
C200 H213 0.929 . S
C201 C200 1.373 . S
C201 C202 1.396 . S
C201 C208 1.403 . S
C202 C192 1.476 . S
C202 N197 1.318 . S
C202 C201 1.396 . S
H203 C198 0.929 . S
O204 Mn180 2.385 . S
O204 C182 1.234 . S
O205 Mn180 2.209 . S
O205 Mn181 2.215 . S
O205 C182 1.283 . S
O206 Mn180 2.094 . S
O206 C184 1.240 . S
O207 Mn181 2.117 . S
O207 C184 1.264 . S
C208 C201 1.403 . S
C208 C209 1.399 . S
C208 H214 0.929 . S
C209 C189 1.449 . S
C209 C208 1.399 . S
C209 H215 0.930 . S
H210 C190 0.931 . S
H211 C191 0.930 . S
H212 C199 0.931 . S
H213 C200 0.929 . S
H214 C208 0.929 . S
H215 C209 0.930 . S
Mn216 O221 2.095 . S
Mn216 O231 2.162 . S
Mn216 O232 2.297 . S
Mn216 O240 2.385 . S
Mn216 O241 2.209 . S
Mn216 O242 2.094 . S
Mn217 O222 2.121 . S
Mn217 N224 2.257 . S
Mn217 N233 2.282 . S
Mn217 O241 2.215 . S
Mn217 O243 2.117 . S
C218 O240 1.234 . S
C218 O241 1.283 . S
C219 O231 1.281 . S
C219 O232 1.236 . S
C220 O242 1.240 . S
C220 O243 1.264 . S
O221 Mn216 2.095 . S
O221 C230 1.250 . S
O222 Mn217 2.121 . S
O222 C230 1.258 . S
C223 N224 1.326 . S
C223 C227 1.460 . S
C223 H229 0.929 . S
N224 Mn217 2.257 . S
N224 C223 1.326 . S
N224 C228 1.362 . S
C225 C226 1.258 . S
C225 C228 1.431 . S
C225 C245 1.449 . S
C226 C225 1.258 . S
C226 C227 1.477 . S
C226 H246 0.931 . S
C227 C223 1.460 . S
C227 C226 1.477 . S
C227 H247 0.930 . S
C228 N224 1.362 . S
C228 C225 1.431 . S
C228 C238 1.476 . S
H229 C223 0.929 . S
C230 O221 1.250 . S
C230 O222 1.258 . S
O231 Mn216 2.162 . S
O231 C219 1.281 . S
O232 Mn216 2.297 . S
O232 C219 1.236 . S
N233 Mn217 2.282 . S
N233 C234 1.328 . S
N233 C238 1.318 . S
C234 N233 1.328 . S
C234 C235 1.457 . S
C234 H239 0.929 . S
C235 C234 1.457 . S
C235 C236 1.291 . S
C235 H248 0.931 . S
C236 C235 1.291 . S
C236 C237 1.373 . S
C236 H249 0.929 . S
C237 C236 1.373 . S
C237 C238 1.396 . S
C237 C244 1.403 . S
C238 C228 1.476 . S
C238 N233 1.318 . S
C238 C237 1.396 . S
H239 C234 0.929 . S
O240 Mn216 2.385 . S
O240 C218 1.234 . S
O241 Mn216 2.209 . S
O241 Mn217 2.215 . S
O241 C218 1.283 . S
O242 Mn216 2.094 . S
O242 C220 1.240 . S
O243 Mn217 2.117 . S
O243 C220 1.264 . S
C244 C237 1.403 . S
C244 C245 1.399 . S
C244 H250 0.929 . S
C245 C225 1.449 . S
C245 C244 1.399 . S
C245 H251 0.930 . S
H246 C226 0.931 . S
H247 C227 0.930 . S
H248 C235 0.931 . S
H249 C236 0.929 . S
H250 C244 0.929 . S
H251 C245 0.930 . S
Mn252 O257 2.095 . S
Mn252 O267 2.162 . S
Mn252 O268 2.297 . S
Mn252 O276 2.385 . S
Mn252 O277 2.209 . S
Mn252 O278 2.094 . S
Mn253 O258 2.121 . S
Mn253 N260 2.257 . S
Mn253 N269 2.282 . S
Mn253 O277 2.215 . S
Mn253 O279 2.117 . S
C254 O276 1.234 . S
C254 O277 1.283 . S
C255 O267 1.281 . S
C255 O268 1.236 . S
C256 O278 1.240 . S
C256 O279 1.264 . S
O257 Mn252 2.095 . S
O257 C266 1.250 . S
O258 Mn253 2.121 . S
O258 C266 1.258 . S
C259 N260 1.326 . S
C259 C263 1.460 . S
C259 H265 0.929 . S
N260 Mn253 2.257 . S
N260 C259 1.326 . S
N260 C264 1.362 . S
C261 C262 1.258 . S
C261 C264 1.431 . S
C261 C281 1.449 . S
C262 C261 1.258 . S
C262 C263 1.477 . S
C262 H282 0.931 . S
C263 C259 1.460 . S
C263 C262 1.477 . S
C263 H283 0.930 . S
C264 N260 1.362 . S
C264 C261 1.431 . S
C264 C274 1.476 . S
H265 C259 0.929 . S
C266 O257 1.250 . S
C266 O258 1.258 . S
O267 Mn252 2.162 . S
O267 C255 1.281 . S
O268 Mn252 2.297 . S
O268 C255 1.236 . S
N269 Mn253 2.282 . S
N269 C270 1.328 . S
N269 C274 1.318 . S
C270 N269 1.328 . S
C270 C271 1.457 . S
C270 H275 0.929 . S
C271 C270 1.457 . S
C271 C272 1.291 . S
C271 H284 0.931 . S
C272 C271 1.291 . S
C272 C273 1.373 . S
C272 H285 0.929 . S
C273 C272 1.373 . S
C273 C274 1.396 . S
C273 C280 1.403 . S
C274 C264 1.476 . S
C274 N269 1.318 . S
C274 C273 1.396 . S
H275 C270 0.929 . S
O276 Mn252 2.385 . S
O276 C254 1.234 . S
O277 Mn252 2.209 . S
O277 Mn253 2.215 . S
O277 C254 1.283 . S
O278 Mn252 2.094 . S
O278 C256 1.240 . S
O279 Mn253 2.117 . S
O279 C256 1.264 . S
C280 C273 1.403 . S
C280 C281 1.399 . S
C280 H286 0.929 . S
C281 C261 1.449 . S
C281 C280 1.399 . S
C281 H287 0.930 . S
H282 C262 0.931 . S
H283 C263 0.930 . S
H284 C271 0.931 . S
H285 C272 0.929 . S
H286 C280 0.929 . S
H287 C281 0.930 . S
Mn288 O293 2.095 . S
Mn288 O303 2.162 . S
Mn288 O304 2.297 . S
Mn288 O312 2.385 . S
Mn288 O313 2.209 . S
Mn288 O314 2.094 . S
Mn289 O294 2.121 . S
Mn289 N296 2.257 . S
Mn289 N305 2.282 . S
Mn289 O313 2.215 . S
Mn289 O315 2.117 . S
C290 O312 1.234 . S
C290 O313 1.283 . S
C291 O303 1.281 . S
C291 O304 1.236 . S
C292 O314 1.240 . S
C292 O315 1.264 . S
O293 Mn288 2.095 . S
O293 C302 1.250 . S
O294 Mn289 2.121 . S
O294 C302 1.258 . S
C295 N296 1.326 . S
C295 C299 1.460 . S
C295 H301 0.929 . S
N296 Mn289 2.257 . S
N296 C295 1.326 . S
N296 C300 1.362 . S
C297 C298 1.258 . S
C297 C300 1.431 . S
C297 C317 1.449 . S
C298 C297 1.258 . S
C298 C299 1.477 . S
C298 H318 0.931 . S
C299 C295 1.460 . S
C299 C298 1.477 . S
C299 H319 0.930 . S
C300 N296 1.362 . S
C300 C297 1.431 . S
C300 C310 1.476 . S
H301 C295 0.929 . S
C302 O293 1.250 . S
C302 O294 1.258 . S
O303 Mn288 2.162 . S
O303 C291 1.281 . S
O304 Mn288 2.297 . S
O304 C291 1.236 . S
N305 Mn289 2.282 . S
N305 C306 1.328 . S
N305 C310 1.318 . S
C306 N305 1.328 . S
C306 C307 1.457 . S
C306 H311 0.929 . S
C307 C306 1.457 . S
C307 C308 1.291 . S
C307 H320 0.931 . S
C308 C307 1.291 . S
C308 C309 1.373 . S
C308 H321 0.929 . S
C309 C308 1.373 . S
C309 C310 1.396 . S
C309 C316 1.403 . S
C310 C300 1.476 . S
C310 N305 1.318 . S
C310 C309 1.396 . S
H311 C306 0.929 . S
O312 Mn288 2.385 . S
O312 C290 1.234 . S
O313 Mn288 2.209 . S
O313 Mn289 2.215 . S
O313 C290 1.283 . S
O314 Mn288 2.094 . S
O314 C292 1.240 . S
O315 Mn289 2.117 . S
O315 C292 1.264 . S
C316 C309 1.403 . S
C316 C317 1.399 . S
C316 H322 0.929 . S
C317 C297 1.449 . S
C317 C316 1.399 . S
C317 H323 0.930 . S
H318 C298 0.931 . S
H319 C299 0.930 . S
H320 C307 0.931 . S
H321 C308 0.929 . S
H322 C316 0.929 . S
H323 C317 0.930 . S
Mn324 O329 2.095 . S
Mn324 O339 2.162 . S
Mn324 O340 2.297 . S
Mn324 O348 2.385 . S
Mn324 O349 2.209 . S
Mn324 O350 2.094 . S
Mn325 O330 2.121 . S
Mn325 N332 2.257 . S
Mn325 N341 2.282 . S
Mn325 O349 2.215 . S
Mn325 O351 2.117 . S
C326 O348 1.234 . S
C326 O349 1.283 . S
C327 O339 1.281 . S
C327 O340 1.236 . S
C328 O350 1.240 . S
C328 O351 1.264 . S
O329 Mn324 2.095 . S
O329 C338 1.250 . S
O330 Mn325 2.121 . S
O330 C338 1.258 . S
C331 N332 1.326 . S
C331 C335 1.460 . S
C331 H337 0.929 . S
N332 Mn325 2.257 . S
N332 C331 1.326 . S
N332 C336 1.362 . S
C333 C334 1.258 . S
C333 C336 1.431 . S
C333 C353 1.449 . S
C334 C333 1.258 . S
C334 C335 1.477 . S
C334 H354 0.931 . S
C335 C331 1.460 . S
C335 C334 1.477 . S
C335 H355 0.930 . S
C336 N332 1.362 . S
C336 C333 1.431 . S
C336 C346 1.476 . S
H337 C331 0.929 . S
C338 O329 1.250 . S
C338 O330 1.258 . S
O339 Mn324 2.162 . S
O339 C327 1.281 . S
O340 Mn324 2.297 . S
O340 C327 1.236 . S
N341 Mn325 2.282 . S
N341 C342 1.328 . S
N341 C346 1.318 . S
C342 N341 1.328 . S
C342 C343 1.457 . S
C342 H347 0.929 . S
C343 C342 1.457 . S
C343 C344 1.291 . S
C343 H356 0.931 . S
C344 C343 1.291 . S
C344 C345 1.373 . S
C344 H357 0.929 . S
C345 C344 1.373 . S
C345 C346 1.396 . S
C345 C352 1.403 . S
C346 C336 1.476 . S
C346 N341 1.318 . S
C346 C345 1.396 . S
H347 C342 0.929 . S
O348 Mn324 2.385 . S
O348 C326 1.234 . S
O349 Mn324 2.209 . S
O349 Mn325 2.215 . S
O349 C326 1.283 . S
O350 Mn324 2.094 . S
O350 C328 1.240 . S
O351 Mn325 2.117 . S
O351 C328 1.264 . S
C352 C345 1.403 . S
C352 C353 1.399 . S
C352 H358 0.929 . S
C353 C333 1.449 . S
C353 C352 1.399 . S
C353 H359 0.930 . S
H354 C334 0.931 . S
H355 C335 0.930 . S
H356 C343 0.931 . S
H357 C344 0.929 . S
H358 C352 0.929 . S
H359 C353 0.930 . S
Mn360 O365 2.095 . S
Mn360 O375 2.162 . S
Mn360 O376 2.297 . S
Mn360 O384 2.385 . S
Mn360 O385 2.209 . S
Mn360 O386 2.094 . S
Mn361 O366 2.121 . S
Mn361 N368 2.257 . S
Mn361 N377 2.282 . S
Mn361 O385 2.215 . S
Mn361 O387 2.117 . S
C362 O384 1.234 . S
C362 O385 1.283 . S
C363 O375 1.281 . S
C363 O376 1.236 . S
C364 O386 1.240 . S
C364 O387 1.264 . S
O365 Mn360 2.095 . S
O365 C374 1.250 . S
O366 Mn361 2.121 . S
O366 C374 1.258 . S
C367 N368 1.326 . S
C367 C371 1.460 . S
C367 H373 0.929 . S
N368 Mn361 2.257 . S
N368 C367 1.326 . S
N368 C372 1.362 . S
C369 C370 1.258 . S
C369 C372 1.431 . S
C369 C389 1.449 . S
C370 C369 1.258 . S
C370 C371 1.477 . S
C370 H390 0.931 . S
C371 C367 1.460 . S
C371 C370 1.477 . S
C371 H391 0.930 . S
C372 N368 1.362 . S
C372 C369 1.431 . S
C372 C382 1.476 . S
H373 C367 0.929 . S
C374 O365 1.250 . S
C374 O366 1.258 . S
O375 Mn360 2.162 . S
O375 C363 1.281 . S
O376 Mn360 2.297 . S
O376 C363 1.236 . S
N377 Mn361 2.282 . S
N377 C378 1.328 . S
N377 C382 1.318 . S
C378 N377 1.328 . S
C378 C379 1.457 . S
C378 H383 0.929 . S
C379 C378 1.457 . S
C379 C380 1.291 . S
C379 H392 0.931 . S
C380 C379 1.291 . S
C380 C381 1.373 . S
C380 H393 0.929 . S
C381 C380 1.373 . S
C381 C382 1.396 . S
C381 C388 1.403 . S
C382 C372 1.476 . S
C382 N377 1.318 . S
C382 C381 1.396 . S
H383 C378 0.929 . S
O384 Mn360 2.385 . S
O384 C362 1.234 . S
O385 Mn360 2.209 . S
O385 Mn361 2.215 . S
O385 C362 1.283 . S
O386 Mn360 2.094 . S
O386 C364 1.240 . S
O387 Mn361 2.117 . S
O387 C364 1.264 . S
C388 C381 1.403 . S
C388 C389 1.399 . S
C388 H394 0.929 . S
C389 C369 1.449 . S
C389 C388 1.399 . S
C389 H395 0.930 . S
H390 C370 0.931 . S
H391 C371 0.930 . S
H392 C379 0.931 . S
H393 C380 0.929 . S
H394 C388 0.929 . S
H395 C389 0.930 . S
Mn396 O401 2.095 . S
Mn396 O411 2.162 . S
Mn396 O412 2.297 . S
Mn396 O420 2.385 . S
Mn396 O421 2.209 . S
Mn396 O422 2.094 . S
Mn397 O402 2.121 . S
Mn397 N404 2.257 . S
Mn397 N413 2.282 . S
Mn397 O421 2.215 . S
Mn397 O423 2.117 . S
C398 O420 1.234 . S
C398 O421 1.283 . S
C399 O411 1.281 . S
C399 O412 1.236 . S
C400 O422 1.240 . S
C400 O423 1.264 . S
O401 Mn396 2.095 . S
O401 C410 1.250 . S
O402 Mn397 2.121 . S
O402 C410 1.258 . S
C403 N404 1.326 . S
C403 C407 1.460 . S
C403 H409 0.929 . S
N404 Mn397 2.257 . S
N404 C403 1.326 . S
N404 C408 1.362 . S
C405 C406 1.258 . S
C405 C408 1.431 . S
C405 C425 1.449 . S
C406 C405 1.258 . S
C406 C407 1.477 . S
C406 H426 0.931 . S
C407 C403 1.460 . S
C407 C406 1.477 . S
C407 H427 0.930 . S
C408 N404 1.362 . S
C408 C405 1.431 . S
C408 C418 1.476 . S
H409 C403 0.929 . S
C410 O401 1.250 . S
C410 O402 1.258 . S
O411 Mn396 2.162 . S
O411 C399 1.281 . S
O412 Mn396 2.297 . S
O412 C399 1.236 . S
N413 Mn397 2.282 . S
N413 C414 1.328 . S
N413 C418 1.318 . S
C414 N413 1.328 . S
C414 C415 1.457 . S
C414 H419 0.929 . S
C415 C414 1.457 . S
C415 C416 1.291 . S
C415 H428 0.931 . S
C416 C415 1.291 . S
C416 C417 1.373 . S
C416 H429 0.929 . S
C417 C416 1.373 . S
C417 C418 1.396 . S
C417 C424 1.403 . S
C418 C408 1.476 . S
C418 N413 1.318 . S
C418 C417 1.396 . S
H419 C414 0.929 . S
O420 Mn396 2.385 . S
O420 C398 1.234 . S
O421 Mn396 2.209 . S
O421 Mn397 2.215 . S
O421 C398 1.283 . S
O422 Mn396 2.094 . S
O422 C400 1.240 . S
O423 Mn397 2.117 . S
O423 C400 1.264 . S
C424 C417 1.403 . S
C424 C425 1.399 . S
C424 H430 0.929 . S
C425 C405 1.449 . S
C425 C424 1.399 . S
C425 H431 0.930 . S
H426 C406 0.931 . S
H427 C407 0.930 . S
H428 C415 0.931 . S
H429 C416 0.929 . S
H430 C424 0.929 . S
H431 C425 0.930 . S
Mn432 O437 2.095 . S
Mn432 O447 2.162 . S
Mn432 O448 2.297 . S
Mn432 O456 2.385 . S
Mn432 O457 2.209 . S
Mn432 O458 2.094 . S
Mn433 O438 2.121 . S
Mn433 N440 2.257 . S
Mn433 N449 2.282 . S
Mn433 O457 2.215 . S
Mn433 O459 2.117 . S
C434 O456 1.234 . S
C434 O457 1.283 . S
C435 O447 1.281 . S
C435 O448 1.236 . S
C436 O458 1.240 . S
C436 O459 1.264 . S
O437 Mn432 2.095 . S
O437 C446 1.250 . S
O438 Mn433 2.121 . S
O438 C446 1.258 . S
C439 N440 1.326 . S
C439 C443 1.460 . S
C439 H445 0.929 . S
N440 Mn433 2.257 . S
N440 C439 1.326 . S
N440 C444 1.362 . S
C441 C442 1.258 . S
C441 C444 1.431 . S
C441 C461 1.449 . S
C442 C441 1.258 . S
C442 C443 1.477 . S
C442 H462 0.931 . S
C443 C439 1.460 . S
C443 C442 1.477 . S
C443 H463 0.930 . S
C444 N440 1.362 . S
C444 C441 1.431 . S
C444 C454 1.476 . S
H445 C439 0.929 . S
C446 O437 1.250 . S
C446 O438 1.258 . S
O447 Mn432 2.162 . S
O447 C435 1.281 . S
O448 Mn432 2.297 . S
O448 C435 1.236 . S
N449 Mn433 2.282 . S
N449 C450 1.328 . S
N449 C454 1.318 . S
C450 N449 1.328 . S
C450 C451 1.457 . S
C450 H455 0.929 . S
C451 C450 1.457 . S
C451 C452 1.291 . S
C451 H464 0.931 . S
C452 C451 1.291 . S
C452 C453 1.373 . S
C452 H465 0.929 . S
C453 C452 1.373 . S
C453 C454 1.396 . S
C453 C460 1.403 . S
C454 C444 1.476 . S
C454 N449 1.318 . S
C454 C453 1.396 . S
H455 C450 0.929 . S
O456 Mn432 2.385 . S
O456 C434 1.234 . S
O457 Mn432 2.209 . S
O457 Mn433 2.215 . S
O457 C434 1.283 . S
O458 Mn432 2.094 . S
O458 C436 1.240 . S
O459 Mn433 2.117 . S
O459 C436 1.264 . S
C460 C453 1.403 . S
C460 C461 1.399 . S
C460 H466 0.929 . S
C461 C441 1.449 . S
C461 C460 1.399 . S
C461 H467 0.930 . S
H462 C442 0.931 . S
H463 C443 0.930 . S
H464 C451 0.931 . S
H465 C452 0.929 . S
H466 C460 0.929 . S
H467 C461 0.930 . S
Mn468 O473 2.095 . S
Mn468 O483 2.162 . S
Mn468 O484 2.297 . S
Mn468 O492 2.385 . S
Mn468 O493 2.209 . S
Mn468 O494 2.094 . S
Mn469 O474 2.121 . S
Mn469 N476 2.257 . S
Mn469 N485 2.282 . S
Mn469 O493 2.215 . S
Mn469 O495 2.117 . S
C470 O492 1.234 . S
C470 O493 1.283 . S
C471 O483 1.281 . S
C471 O484 1.236 . S
C472 O494 1.240 . S
C472 O495 1.264 . S
O473 Mn468 2.095 . S
O473 C482 1.250 . S
O474 Mn469 2.121 . S
O474 C482 1.258 . S
C475 N476 1.326 . S
C475 C479 1.460 . S
C475 H481 0.929 . S
N476 Mn469 2.257 . S
N476 C475 1.326 . S
N476 C480 1.362 . S
C477 C478 1.258 . S
C477 C480 1.431 . S
C477 C497 1.449 . S
C478 C477 1.258 . S
C478 C479 1.477 . S
C478 H498 0.931 . S
C479 C475 1.460 . S
C479 C478 1.477 . S
C479 H499 0.930 . S
C480 N476 1.362 . S
C480 C477 1.431 . S
C480 C490 1.476 . S
H481 C475 0.929 . S
C482 O473 1.250 . S
C482 O474 1.258 . S
O483 Mn468 2.162 . S
O483 C471 1.281 . S
O484 Mn468 2.297 . S
O484 C471 1.236 . S
N485 Mn469 2.282 . S
N485 C486 1.328 . S
N485 C490 1.318 . S
C486 N485 1.328 . S
C486 C487 1.457 . S
C486 H491 0.929 . S
C487 C486 1.457 . S
C487 C488 1.291 . S
C487 H500 0.931 . S
C488 C487 1.291 . S
C488 C489 1.373 . S
C488 H501 0.929 . S
C489 C488 1.373 . S
C489 C490 1.396 . S
C489 C496 1.403 . S
C490 C480 1.476 . S
C490 N485 1.318 . S
C490 C489 1.396 . S
H491 C486 0.929 . S
O492 Mn468 2.385 . S
O492 C470 1.234 . S
O493 Mn468 2.209 . S
O493 Mn469 2.215 . S
O493 C470 1.283 . S
O494 Mn468 2.094 . S
O494 C472 1.240 . S
O495 Mn469 2.117 . S
O495 C472 1.264 . S
C496 C489 1.403 . S
C496 C497 1.399 . S
C496 H502 0.929 . S
C497 C477 1.449 . S
C497 C496 1.399 . S
C497 H503 0.930 . S
H498 C478 0.931 . S
H499 C479 0.930 . S
H500 C487 0.931 . S
H501 C488 0.929 . S
H502 C496 0.929 . S
H503 C497 0.930 . S
Mn504 O509 2.095 . S
Mn504 O519 2.162 . S
Mn504 O520 2.297 . S
Mn504 O528 2.385 . S
Mn504 O529 2.209 . S
Mn504 O530 2.094 . S
Mn505 O510 2.121 . S
Mn505 N512 2.257 . S
Mn505 N521 2.282 . S
Mn505 O529 2.215 . S
Mn505 O531 2.117 . S
C506 O528 1.234 . S
C506 O529 1.283 . S
C507 O519 1.281 . S
C507 O520 1.236 . S
C508 O530 1.240 . S
C508 O531 1.264 . S
O509 Mn504 2.095 . S
O509 C518 1.250 . S
O510 Mn505 2.121 . S
O510 C518 1.258 . S
C511 N512 1.326 . S
C511 C515 1.460 . S
C511 H517 0.929 . S
N512 Mn505 2.257 . S
N512 C511 1.326 . S
N512 C516 1.362 . S
C513 C514 1.258 . S
C513 C516 1.431 . S
C513 C533 1.449 . S
C514 C513 1.258 . S
C514 C515 1.477 . S
C514 H534 0.931 . S
C515 C511 1.460 . S
C515 C514 1.477 . S
C515 H535 0.930 . S
C516 N512 1.362 . S
C516 C513 1.431 . S
C516 C526 1.476 . S
H517 C511 0.929 . S
C518 O509 1.250 . S
C518 O510 1.258 . S
O519 Mn504 2.162 . S
O519 C507 1.281 . S
O520 Mn504 2.297 . S
O520 C507 1.236 . S
N521 Mn505 2.282 . S
N521 C522 1.328 . S
N521 C526 1.318 . S
C522 N521 1.328 . S
C522 C523 1.457 . S
C522 H527 0.929 . S
C523 C522 1.457 . S
C523 C524 1.291 . S
C523 H536 0.931 . S
C524 C523 1.291 . S
C524 C525 1.373 . S
C524 H537 0.929 . S
C525 C524 1.373 . S
C525 C526 1.396 . S
C525 C532 1.403 . S
C526 C516 1.476 . S
C526 N521 1.318 . S
C526 C525 1.396 . S
H527 C522 0.929 . S
O528 Mn504 2.385 . S
O528 C506 1.234 . S
O529 Mn504 2.209 . S
O529 Mn505 2.215 . S
O529 C506 1.283 . S
O530 Mn504 2.094 . S
O530 C508 1.240 . S
O531 Mn505 2.117 . S
O531 C508 1.264 . S
C532 C525 1.403 . S
C532 C533 1.399 . S
C532 H538 0.929 . S
C533 C513 1.449 . S
C533 C532 1.399 . S
C533 H539 0.930 . S
H534 C514 0.931 . S
H535 C515 0.930 . S
H536 C523 0.931 . S
H537 C524 0.929 . S
H538 C532 0.929 . S
H539 C533 0.930 . S
Mn540 O545 2.095 . S
Mn540 O555 2.162 . S
Mn540 O556 2.297 . S
Mn540 O564 2.385 . S
Mn540 O565 2.209 . S
Mn540 O566 2.094 . S
Mn541 O546 2.121 . S
Mn541 N548 2.257 . S
Mn541 N557 2.282 . S
Mn541 O565 2.215 . S
Mn541 O567 2.117 . S
C542 O564 1.234 . S
C542 O565 1.283 . S
C543 O555 1.281 . S
C543 O556 1.236 . S
C544 O566 1.240 . S
C544 O567 1.264 . S
O545 Mn540 2.095 . S
O545 C554 1.250 . S
O546 Mn541 2.121 . S
O546 C554 1.258 . S
C547 N548 1.326 . S
C547 C551 1.460 . S
C547 H553 0.929 . S
N548 Mn541 2.257 . S
N548 C547 1.326 . S
N548 C552 1.362 . S
C549 C550 1.258 . S
C549 C552 1.431 . S
C549 C569 1.449 . S
C550 C549 1.258 . S
C550 C551 1.477 . S
C550 H570 0.931 . S
C551 C547 1.460 . S
C551 C550 1.477 . S
C551 H571 0.930 . S
C552 N548 1.362 . S
C552 C549 1.431 . S
C552 C562 1.476 . S
H553 C547 0.929 . S
C554 O545 1.250 . S
C554 O546 1.258 . S
O555 Mn540 2.162 . S
O555 C543 1.281 . S
O556 Mn540 2.297 . S
O556 C543 1.236 . S
N557 Mn541 2.282 . S
N557 C558 1.328 . S
N557 C562 1.318 . S
C558 N557 1.328 . S
C558 C559 1.457 . S
C558 H563 0.929 . S
C559 C558 1.457 . S
C559 C560 1.291 . S
C559 H572 0.931 . S
C560 C559 1.291 . S
C560 C561 1.373 . S
C560 H573 0.929 . S
C561 C560 1.373 . S
C561 C562 1.396 . S
C561 C568 1.403 . S
C562 C552 1.476 . S
C562 N557 1.318 . S
C562 C561 1.396 . S
H563 C558 0.929 . S
O564 Mn540 2.385 . S
O564 C542 1.234 . S
O565 Mn540 2.209 . S
O565 Mn541 2.215 . S
O565 C542 1.283 . S
O566 Mn540 2.094 . S
O566 C544 1.240 . S
O567 Mn541 2.117 . S
O567 C544 1.264 . S
C568 C561 1.403 . S
C568 C569 1.399 . S
C568 H574 0.929 . S
C569 C549 1.449 . S
C569 C568 1.399 . S
C569 H575 0.930 . S
H570 C550 0.931 . S
H571 C551 0.930 . S
H572 C559 0.931 . S
H573 C560 0.929 . S
H574 C568 0.929 . S
H575 C569 0.930 . S
Mn576 O581 2.095 . S
Mn576 O591 2.162 . S
Mn576 O592 2.297 . S
Mn576 O600 2.385 . S
Mn576 O601 2.209 . S
Mn576 O602 2.094 . S
Mn577 O582 2.121 . S
Mn577 N584 2.257 . S
Mn577 N593 2.282 . S
Mn577 O601 2.215 . S
Mn577 O603 2.117 . S
C578 O600 1.234 . S
C578 O601 1.283 . S
C579 O591 1.281 . S
C579 O592 1.236 . S
C580 O602 1.240 . S
C580 O603 1.264 . S
O581 Mn576 2.095 . S
O581 C590 1.250 . S
O582 Mn577 2.121 . S
O582 C590 1.258 . S
C583 N584 1.326 . S
C583 C587 1.460 . S
C583 H589 0.929 . S
N584 Mn577 2.257 . S
N584 C583 1.326 . S
N584 C588 1.362 . S
C585 C586 1.258 . S
C585 C588 1.431 . S
C585 C605 1.449 . S
C586 C585 1.258 . S
C586 C587 1.477 . S
C586 H606 0.931 . S
C587 C583 1.460 . S
C587 C586 1.477 . S
C587 H607 0.930 . S
C588 N584 1.362 . S
C588 C585 1.431 . S
C588 C598 1.476 . S
H589 C583 0.929 . S
C590 O581 1.250 . S
C590 O582 1.258 . S
O591 Mn576 2.162 . S
O591 C579 1.281 . S
O592 Mn576 2.297 . S
O592 C579 1.236 . S
N593 Mn577 2.282 . S
N593 C594 1.328 . S
N593 C598 1.318 . S
C594 N593 1.328 . S
C594 C595 1.457 . S
C594 H599 0.929 . S
C595 C594 1.457 . S
C595 C596 1.291 . S
C595 H608 0.931 . S
C596 C595 1.291 . S
C596 C597 1.373 . S
C596 H609 0.929 . S
C597 C596 1.373 . S
C597 C598 1.396 . S
C597 C604 1.403 . S
C598 C588 1.476 . S
C598 N593 1.318 . S
C598 C597 1.396 . S
H599 C594 0.929 . S
O600 Mn576 2.385 . S
O600 C578 1.234 . S
O601 Mn576 2.209 . S
O601 Mn577 2.215 . S
O601 C578 1.283 . S
O602 Mn576 2.094 . S
O602 C580 1.240 . S
O603 Mn577 2.117 . S
O603 C580 1.264 . S
C604 C597 1.403 . S
C604 C605 1.399 . S
C604 H610 0.929 . S
C605 C585 1.449 . S
C605 C604 1.399 . S
C605 H611 0.930 . S
H606 C586 0.931 . S
H607 C587 0.930 . S
H608 C595 0.931 . S
H609 C596 0.929 . S
H610 C604 0.929 . S
H611 C605 0.930 . S
Mn612 O617 2.095 . S
Mn612 O627 2.162 . S
Mn612 O628 2.297 . S
Mn612 O636 2.385 . S
Mn612 O637 2.209 . S
Mn612 O638 2.094 . S
Mn613 O618 2.121 . S
Mn613 N620 2.257 . S
Mn613 N629 2.282 . S
Mn613 O637 2.215 . S
Mn613 O639 2.117 . S
C614 O636 1.234 . S
C614 O637 1.283 . S
C615 O627 1.281 . S
C615 O628 1.236 . S
C616 O638 1.240 . S
C616 O639 1.264 . S
O617 Mn612 2.095 . S
O617 C626 1.250 . S
O618 Mn613 2.121 . S
O618 C626 1.258 . S
C619 N620 1.326 . S
C619 C623 1.460 . S
C619 H625 0.929 . S
N620 Mn613 2.257 . S
N620 C619 1.326 . S
N620 C624 1.362 . S
C621 C622 1.258 . S
C621 C624 1.431 . S
C621 C641 1.449 . S
C622 C621 1.258 . S
C622 C623 1.477 . S
C622 H642 0.931 . S
C623 C619 1.460 . S
C623 C622 1.477 . S
C623 H643 0.930 . S
C624 N620 1.362 . S
C624 C621 1.431 . S
C624 C634 1.476 . S
H625 C619 0.929 . S
C626 O617 1.250 . S
C626 O618 1.258 . S
O627 Mn612 2.162 . S
O627 C615 1.281 . S
O628 Mn612 2.297 . S
O628 C615 1.236 . S
N629 Mn613 2.282 . S
N629 C630 1.328 . S
N629 C634 1.318 . S
C630 N629 1.328 . S
C630 C631 1.457 . S
C630 H635 0.929 . S
C631 C630 1.457 . S
C631 C632 1.291 . S
C631 H644 0.931 . S
C632 C631 1.291 . S
C632 C633 1.373 . S
C632 H645 0.929 . S
C633 C632 1.373 . S
C633 C634 1.396 . S
C633 C640 1.403 . S
C634 C624 1.476 . S
C634 N629 1.318 . S
C634 C633 1.396 . S
H635 C630 0.929 . S
O636 Mn612 2.385 . S
O636 C614 1.234 . S
O637 Mn612 2.209 . S
O637 Mn613 2.215 . S
O637 C614 1.283 . S
O638 Mn612 2.094 . S
O638 C616 1.240 . S
O639 Mn613 2.117 . S
O639 C616 1.264 . S
C640 C633 1.403 . S
C640 C641 1.399 . S
C640 H646 0.929 . S
C641 C621 1.449 . S
C641 C640 1.399 . S
C641 H647 0.930 . S
H642 C622 0.931 . S
H643 C623 0.930 . S
H644 C631 0.931 . S
H645 C632 0.929 . S
H646 C640 0.929 . S
H647 C641 0.930 . S
Mn648 O653 2.095 . S
Mn648 O663 2.162 . S
Mn648 O664 2.297 . S
Mn648 O672 2.385 . S
Mn648 O673 2.209 . S
Mn648 O674 2.094 . S
Mn649 O654 2.121 . S
Mn649 N656 2.257 . S
Mn649 N665 2.282 . S
Mn649 O673 2.215 . S
Mn649 O675 2.117 . S
C650 O672 1.234 . S
C650 O673 1.283 . S
C651 O663 1.281 . S
C651 O664 1.236 . S
C652 O674 1.240 . S
C652 O675 1.264 . S
O653 Mn648 2.095 . S
O653 C662 1.250 . S
O654 Mn649 2.121 . S
O654 C662 1.258 . S
C655 N656 1.326 . S
C655 C659 1.460 . S
C655 H661 0.929 . S
N656 Mn649 2.257 . S
N656 C655 1.326 . S
N656 C660 1.362 . S
C657 C658 1.258 . S
C657 C660 1.431 . S
C657 C677 1.449 . S
C658 C657 1.258 . S
C658 C659 1.477 . S
C658 H678 0.931 . S
C659 C655 1.460 . S
C659 C658 1.477 . S
C659 H679 0.930 . S
C660 N656 1.362 . S
C660 C657 1.431 . S
C660 C670 1.476 . S
H661 C655 0.929 . S
C662 O653 1.250 . S
C662 O654 1.258 . S
O663 Mn648 2.162 . S
O663 C651 1.281 . S
O664 Mn648 2.297 . S
O664 C651 1.236 . S
N665 Mn649 2.282 . S
N665 C666 1.328 . S
N665 C670 1.318 . S
C666 N665 1.328 . S
C666 C667 1.457 . S
C666 H671 0.929 . S
C667 C666 1.457 . S
C667 C668 1.291 . S
C667 H680 0.931 . S
C668 C667 1.291 . S
C668 C669 1.373 . S
C668 H681 0.929 . S
C669 C668 1.373 . S
C669 C670 1.396 . S
C669 C676 1.403 . S
C670 C660 1.476 . S
C670 N665 1.318 . S
C670 C669 1.396 . S
H671 C666 0.929 . S
O672 Mn648 2.385 . S
O672 C650 1.234 . S
O673 Mn648 2.209 . S
O673 Mn649 2.215 . S
O673 C650 1.283 . S
O674 Mn648 2.094 . S
O674 C652 1.240 . S
O675 Mn649 2.117 . S
O675 C652 1.264 . S
C676 C669 1.403 . S
C676 C677 1.399 . S
C676 H682 0.929 . S
C677 C657 1.449 . S
C677 C676 1.399 . S
C677 H683 0.930 . S
H678 C658 0.931 . S
H679 C659 0.930 . S
H680 C667 0.931 . S
H681 C668 0.929 . S
H682 C676 0.929 . S
H683 C677 0.930 . S
Mn684 O689 2.095 . S
Mn684 O699 2.162 . S
Mn684 O700 2.297 . S
Mn684 O708 2.385 . S
Mn684 O709 2.209 . S
Mn684 O710 2.094 . S
Mn685 O690 2.121 . S
Mn685 N692 2.257 . S
Mn685 N701 2.282 . S
Mn685 O709 2.215 . S
Mn685 O711 2.117 . S
C686 O708 1.234 . S
C686 O709 1.283 . S
C687 O699 1.281 . S
C687 O700 1.236 . S
C688 O710 1.240 . S
C688 O711 1.264 . S
O689 Mn684 2.095 . S
O689 C698 1.250 . S
O690 Mn685 2.121 . S
O690 C698 1.258 . S
C691 N692 1.326 . S
C691 C695 1.460 . S
C691 H697 0.929 . S
N692 Mn685 2.257 . S
N692 C691 1.326 . S
N692 C696 1.362 . S
C693 C694 1.258 . S
C693 C696 1.431 . S
C693 C713 1.449 . S
C694 C693 1.258 . S
C694 C695 1.477 . S
C694 H714 0.931 . S
C695 C691 1.460 . S
C695 C694 1.477 . S
C695 H715 0.930 . S
C696 N692 1.362 . S
C696 C693 1.431 . S
C696 C706 1.476 . S
H697 C691 0.929 . S
C698 O689 1.250 . S
C698 O690 1.258 . S
O699 Mn684 2.162 . S
O699 C687 1.281 . S
O700 Mn684 2.297 . S
O700 C687 1.236 . S
N701 Mn685 2.282 . S
N701 C702 1.328 . S
N701 C706 1.318 . S
C702 N701 1.328 . S
C702 C703 1.457 . S
C702 H707 0.929 . S
C703 C702 1.457 . S
C703 C704 1.291 . S
C703 H716 0.931 . S
C704 C703 1.291 . S
C704 C705 1.373 . S
C704 H717 0.929 . S
C705 C704 1.373 . S
C705 C706 1.396 . S
C705 C712 1.403 . S
C706 C696 1.476 . S
C706 N701 1.318 . S
C706 C705 1.396 . S
H707 C702 0.929 . S
O708 Mn684 2.385 . S
O708 C686 1.234 . S
O709 Mn684 2.209 . S
O709 Mn685 2.215 . S
O709 C686 1.283 . S
O710 Mn684 2.094 . S
O710 C688 1.240 . S
O711 Mn685 2.117 . S
O711 C688 1.264 . S
C712 C705 1.403 . S
C712 C713 1.399 . S
C712 H718 0.929 . S
C713 C693 1.449 . S
C713 C712 1.399 . S
C713 H719 0.930 . S
H714 C694 0.931 . S
H715 C695 0.930 . S
H716 C703 0.931 . S
H717 C704 0.929 . S
H718 C712 0.929 . S
H719 C713 0.930 . S
Mn720 O725 2.095 . S
Mn720 O735 2.162 . S
Mn720 O736 2.297 . S
Mn720 O744 2.385 . S
Mn720 O745 2.209 . S
Mn720 O746 2.094 . S
Mn721 O726 2.121 . S
Mn721 N728 2.257 . S
Mn721 N737 2.282 . S
Mn721 O745 2.215 . S
Mn721 O747 2.117 . S
C722 O744 1.234 . S
C722 O745 1.283 . S
C723 O735 1.281 . S
C723 O736 1.236 . S
C724 O746 1.240 . S
C724 O747 1.264 . S
O725 Mn720 2.095 . S
O725 C734 1.250 . S
O726 Mn721 2.121 . S
O726 C734 1.258 . S
C727 N728 1.326 . S
C727 C731 1.460 . S
C727 H733 0.929 . S
N728 Mn721 2.257 . S
N728 C727 1.326 . S
N728 C732 1.362 . S
C729 C730 1.258 . S
C729 C732 1.431 . S
C729 C749 1.449 . S
C730 C729 1.258 . S
C730 C731 1.477 . S
C730 H750 0.931 . S
C731 C727 1.460 . S
C731 C730 1.477 . S
C731 H751 0.930 . S
C732 N728 1.362 . S
C732 C729 1.431 . S
C732 C742 1.476 . S
H733 C727 0.929 . S
C734 O725 1.250 . S
C734 O726 1.258 . S
O735 Mn720 2.162 . S
O735 C723 1.281 . S
O736 Mn720 2.297 . S
O736 C723 1.236 . S
N737 Mn721 2.282 . S
N737 C738 1.328 . S
N737 C742 1.318 . S
C738 N737 1.328 . S
C738 C739 1.457 . S
C738 H743 0.929 . S
C739 C738 1.457 . S
C739 C740 1.291 . S
C739 H752 0.931 . S
C740 C739 1.291 . S
C740 C741 1.373 . S
C740 H753 0.929 . S
C741 C740 1.373 . S
C741 C742 1.396 . S
C741 C748 1.403 . S
C742 C732 1.476 . S
C742 N737 1.318 . S
C742 C741 1.396 . S
H743 C738 0.929 . S
O744 Mn720 2.385 . S
O744 C722 1.234 . S
O745 Mn720 2.209 . S
O745 Mn721 2.215 . S
O745 C722 1.283 . S
O746 Mn720 2.094 . S
O746 C724 1.240 . S
O747 Mn721 2.117 . S
O747 C724 1.264 . S
C748 C741 1.403 . S
C748 C749 1.399 . S
C748 H754 0.929 . S
C749 C729 1.449 . S
C749 C748 1.399 . S
C749 H755 0.930 . S
H750 C730 0.931 . S
H751 C731 0.930 . S
H752 C739 0.931 . S
H753 C740 0.929 . S
H754 C748 0.929 . S
H755 C749 0.930 . S
Mn756 O761 2.095 . S
Mn756 O771 2.162 . S
Mn756 O772 2.297 . S
Mn756 O780 2.385 . S
Mn756 O781 2.209 . S
Mn756 O782 2.094 . S
Mn757 O762 2.121 . S
Mn757 N764 2.257 . S
Mn757 N773 2.282 . S
Mn757 O781 2.215 . S
Mn757 O783 2.117 . S
C758 O780 1.234 . S
C758 O781 1.283 . S
C759 O771 1.281 . S
C759 O772 1.236 . S
C760 O782 1.240 . S
C760 O783 1.264 . S
O761 Mn756 2.095 . S
O761 C770 1.250 . S
O762 Mn757 2.121 . S
O762 C770 1.258 . S
C763 N764 1.326 . S
C763 C767 1.460 . S
C763 H769 0.929 . S
N764 Mn757 2.257 . S
N764 C763 1.326 . S
N764 C768 1.362 . S
C765 C766 1.258 . S
C765 C768 1.431 . S
C765 C785 1.449 . S
C766 C765 1.258 . S
C766 C767 1.477 . S
C766 H786 0.931 . S
C767 C763 1.460 . S
C767 C766 1.477 . S
C767 H787 0.930 . S
C768 N764 1.362 . S
C768 C765 1.431 . S
C768 C778 1.476 . S
H769 C763 0.929 . S
C770 O761 1.250 . S
C770 O762 1.258 . S
O771 Mn756 2.162 . S
O771 C759 1.281 . S
O772 Mn756 2.297 . S
O772 C759 1.236 . S
N773 Mn757 2.282 . S
N773 C774 1.328 . S
N773 C778 1.318 . S
C774 N773 1.328 . S
C774 C775 1.457 . S
C774 H779 0.929 . S
C775 C774 1.457 . S
C775 C776 1.291 . S
C775 H788 0.931 . S
C776 C775 1.291 . S
C776 C777 1.373 . S
C776 H789 0.929 . S
C777 C776 1.373 . S
C777 C778 1.396 . S
C777 C784 1.403 . S
C778 C768 1.476 . S
C778 N773 1.318 . S
C778 C777 1.396 . S
H779 C774 0.929 . S
O780 Mn756 2.385 . S
O780 C758 1.234 . S
O781 Mn756 2.209 . S
O781 Mn757 2.215 . S
O781 C758 1.283 . S
O782 Mn756 2.094 . S
O782 C760 1.240 . S
O783 Mn757 2.117 . S
O783 C760 1.264 . S
C784 C777 1.403 . S
C784 C785 1.399 . S
C784 H790 0.929 . S
C785 C765 1.449 . S
C785 C784 1.399 . S
C785 H791 0.930 . S
H786 C766 0.931 . S
H787 C767 0.930 . S
H788 C775 0.931 . S
H789 C776 0.929 . S
H790 C784 0.929 . S
H791 C785 0.930 . S
Mn792 O797 2.095 . S
Mn792 O807 2.162 . S
Mn792 O808 2.297 . S
Mn792 O816 2.385 . S
Mn792 O817 2.209 . S
Mn792 O818 2.094 . S
Mn793 O798 2.121 . S
Mn793 N800 2.257 . S
Mn793 N809 2.282 . S
Mn793 O817 2.215 . S
Mn793 O819 2.117 . S
C794 O816 1.234 . S
C794 O817 1.283 . S
C795 O807 1.281 . S
C795 O808 1.236 . S
C796 O818 1.240 . S
C796 O819 1.264 . S
O797 Mn792 2.095 . S
O797 C806 1.250 . S
O798 Mn793 2.121 . S
O798 C806 1.258 . S
C799 N800 1.326 . S
C799 C803 1.460 . S
C799 H805 0.929 . S
N800 Mn793 2.257 . S
N800 C799 1.326 . S
N800 C804 1.362 . S
C801 C802 1.258 . S
C801 C804 1.431 . S
C801 C821 1.449 . S
C802 C801 1.258 . S
C802 C803 1.477 . S
C802 H822 0.931 . S
C803 C799 1.460 . S
C803 C802 1.477 . S
C803 H823 0.930 . S
C804 N800 1.362 . S
C804 C801 1.431 . S
C804 C814 1.476 . S
H805 C799 0.929 . S
C806 O797 1.250 . S
C806 O798 1.258 . S
O807 Mn792 2.162 . S
O807 C795 1.281 . S
O808 Mn792 2.297 . S
O808 C795 1.236 . S
N809 Mn793 2.282 . S
N809 C810 1.328 . S
N809 C814 1.318 . S
C810 N809 1.328 . S
C810 C811 1.457 . S
C810 H815 0.929 . S
C811 C810 1.457 . S
C811 C812 1.291 . S
C811 H824 0.931 . S
C812 C811 1.291 . S
C812 C813 1.373 . S
C812 H825 0.929 . S
C813 C812 1.373 . S
C813 C814 1.396 . S
C813 C820 1.403 . S
C814 C804 1.476 . S
C814 N809 1.318 . S
C814 C813 1.396 . S
H815 C810 0.929 . S
O816 Mn792 2.385 . S
O816 C794 1.234 . S
O817 Mn792 2.209 . S
O817 Mn793 2.215 . S
O817 C794 1.283 . S
O818 Mn792 2.094 . S
O818 C796 1.240 . S
O819 Mn793 2.117 . S
O819 C796 1.264 . S
C820 C813 1.403 . S
C820 C821 1.399 . S
C820 H826 0.929 . S
C821 C801 1.449 . S
C821 C820 1.399 . S
C821 H827 0.930 . S
H822 C802 0.931 . S
H823 C803 0.930 . S
H824 C811 0.931 . S
H825 C812 0.929 . S
H826 C820 0.929 . S
H827 C821 0.930 . S
Mn828 O833 2.095 . S
Mn828 O843 2.162 . S
Mn828 O844 2.297 . S
Mn828 O852 2.385 . S
Mn828 O853 2.209 . S
Mn828 O854 2.094 . S
Mn829 O834 2.121 . S
Mn829 N836 2.257 . S
Mn829 N845 2.282 . S
Mn829 O853 2.215 . S
Mn829 O855 2.117 . S
C830 O852 1.234 . S
C830 O853 1.283 . S
C831 O843 1.281 . S
C831 O844 1.236 . S
C832 O854 1.240 . S
C832 O855 1.264 . S
O833 Mn828 2.095 . S
O833 C842 1.250 . S
O834 Mn829 2.121 . S
O834 C842 1.258 . S
C835 N836 1.326 . S
C835 C839 1.460 . S
C835 H841 0.929 . S
N836 Mn829 2.257 . S
N836 C835 1.326 . S
N836 C840 1.362 . S
C837 C838 1.258 . S
C837 C840 1.431 . S
C837 C857 1.449 . S
C838 C837 1.258 . S
C838 C839 1.477 . S
C838 H858 0.931 . S
C839 C835 1.460 . S
C839 C838 1.477 . S
C839 H859 0.930 . S
C840 N836 1.362 . S
C840 C837 1.431 . S
C840 C850 1.476 . S
H841 C835 0.929 . S
C842 O833 1.250 . S
C842 O834 1.258 . S
O843 Mn828 2.162 . S
O843 C831 1.281 . S
O844 Mn828 2.297 . S
O844 C831 1.236 . S
N845 Mn829 2.282 . S
N845 C846 1.328 . S
N845 C850 1.318 . S
C846 N845 1.328 . S
C846 C847 1.457 . S
C846 H851 0.929 . S
C847 C846 1.457 . S
C847 C848 1.291 . S
C847 H860 0.931 . S
C848 C847 1.291 . S
C848 C849 1.373 . S
C848 H861 0.929 . S
C849 C848 1.373 . S
C849 C850 1.396 . S
C849 C856 1.403 . S
C850 C840 1.476 . S
C850 N845 1.318 . S
C850 C849 1.396 . S
H851 C846 0.929 . S
O852 Mn828 2.385 . S
O852 C830 1.234 . S
O853 Mn828 2.209 . S
O853 Mn829 2.215 . S
O853 C830 1.283 . S
O854 Mn828 2.094 . S
O854 C832 1.240 . S
O855 Mn829 2.117 . S
O855 C832 1.264 . S
C856 C849 1.403 . S
C856 C857 1.399 . S
C856 H862 0.929 . S
C857 C837 1.449 . S
C857 C856 1.399 . S
C857 H863 0.930 . S
H858 C838 0.931 . S
H859 C839 0.930 . S
H860 C847 0.931 . S
H861 C848 0.929 . S
H862 C856 0.929 . S
H863 C857 0.930 . S
Mn864 O869 2.095 . S
Mn864 O879 2.162 . S
Mn864 O880 2.297 . S
Mn864 O888 2.385 . S
Mn864 O889 2.209 . S
Mn864 O890 2.094 . S
Mn865 O870 2.121 . S
Mn865 N872 2.257 . S
Mn865 N881 2.282 . S
Mn865 O889 2.215 . S
Mn865 O891 2.117 . S
C866 O888 1.234 . S
C866 O889 1.283 . S
C867 O879 1.281 . S
C867 O880 1.236 . S
C868 O890 1.240 . S
C868 O891 1.264 . S
O869 Mn864 2.095 . S
O869 C878 1.250 . S
O870 Mn865 2.121 . S
O870 C878 1.258 . S
C871 N872 1.326 . S
C871 C875 1.460 . S
C871 H877 0.929 . S
N872 Mn865 2.257 . S
N872 C871 1.326 . S
N872 C876 1.362 . S
C873 C874 1.258 . S
C873 C876 1.431 . S
C873 C893 1.449 . S
C874 C873 1.258 . S
C874 C875 1.477 . S
C874 H894 0.931 . S
C875 C871 1.460 . S
C875 C874 1.477 . S
C875 H895 0.930 . S
C876 N872 1.362 . S
C876 C873 1.431 . S
C876 C886 1.476 . S
H877 C871 0.929 . S
C878 O869 1.250 . S
C878 O870 1.258 . S
O879 Mn864 2.162 . S
O879 C867 1.281 . S
O880 Mn864 2.297 . S
O880 C867 1.236 . S
N881 Mn865 2.282 . S
N881 C882 1.328 . S
N881 C886 1.318 . S
C882 N881 1.328 . S
C882 C883 1.457 . S
C882 H887 0.929 . S
C883 C882 1.457 . S
C883 C884 1.291 . S
C883 H896 0.931 . S
C884 C883 1.291 . S
C884 C885 1.373 . S
C884 H897 0.929 . S
C885 C884 1.373 . S
C885 C886 1.396 . S
C885 C892 1.403 . S
C886 C876 1.476 . S
C886 N881 1.318 . S
C886 C885 1.396 . S
H887 C882 0.929 . S
O888 Mn864 2.385 . S
O888 C866 1.234 . S
O889 Mn864 2.209 . S
O889 Mn865 2.215 . S
O889 C866 1.283 . S
O890 Mn864 2.094 . S
O890 C868 1.240 . S
O891 Mn865 2.117 . S
O891 C868 1.264 . S
C892 C885 1.403 . S
C892 C893 1.399 . S
C892 H898 0.929 . S
C893 C873 1.449 . S
C893 C892 1.399 . S
C893 H899 0.930 . S
H894 C874 0.931 . S
H895 C875 0.930 . S
H896 C883 0.931 . S
H897 C884 0.929 . S
H898 C892 0.929 . S
H899 C893 0.930 . S
Mn900 O905 2.095 . S
Mn900 O915 2.162 . S
Mn900 O916 2.297 . S
Mn900 O924 2.385 . S
Mn900 O925 2.209 . S
Mn900 O926 2.094 . S
Mn901 O906 2.121 . S
Mn901 N908 2.257 . S
Mn901 N917 2.282 . S
Mn901 O925 2.215 . S
Mn901 O927 2.117 . S
C902 O924 1.234 . S
C902 O925 1.283 . S
C903 O915 1.281 . S
C903 O916 1.236 . S
C904 O926 1.240 . S
C904 O927 1.264 . S
O905 Mn900 2.095 . S
O905 C914 1.250 . S
O906 Mn901 2.121 . S
O906 C914 1.258 . S
C907 N908 1.326 . S
C907 C911 1.460 . S
C907 H913 0.929 . S
N908 Mn901 2.257 . S
N908 C907 1.326 . S
N908 C912 1.362 . S
C909 C910 1.258 . S
C909 C912 1.431 . S
C909 C929 1.449 . S
C910 C909 1.258 . S
C910 C911 1.477 . S
C910 H930 0.931 . S
C911 C907 1.460 . S
C911 C910 1.477 . S
C911 H931 0.930 . S
C912 N908 1.362 . S
C912 C909 1.431 . S
C912 C922 1.476 . S
H913 C907 0.929 . S
C914 O905 1.250 . S
C914 O906 1.258 . S
O915 Mn900 2.162 . S
O915 C903 1.281 . S
O916 Mn900 2.297 . S
O916 C903 1.236 . S
N917 Mn901 2.282 . S
N917 C918 1.328 . S
N917 C922 1.318 . S
C918 N917 1.328 . S
C918 C919 1.457 . S
C918 H923 0.929 . S
C919 C918 1.457 . S
C919 C920 1.291 . S
C919 H932 0.931 . S
C920 C919 1.291 . S
C920 C921 1.373 . S
C920 H933 0.929 . S
C921 C920 1.373 . S
C921 C922 1.396 . S
C921 C928 1.403 . S
C922 C912 1.476 . S
C922 N917 1.318 . S
C922 C921 1.396 . S
H923 C918 0.929 . S
O924 Mn900 2.385 . S
O924 C902 1.234 . S
O925 Mn900 2.209 . S
O925 Mn901 2.215 . S
O925 C902 1.283 . S
O926 Mn900 2.094 . S
O926 C904 1.240 . S
O927 Mn901 2.117 . S
O927 C904 1.264 . S
C928 C921 1.403 . S
C928 C929 1.399 . S
C928 H934 0.929 . S
C929 C909 1.449 . S
C929 C928 1.399 . S
C929 H935 0.930 . S
H930 C910 0.931 . S
H931 C911 0.930 . S
H932 C919 0.931 . S
H933 C920 0.929 . S
H934 C928 0.929 . S
H935 C929 0.930 . S
Mn936 O941 2.095 . S
Mn936 O951 2.162 . S
Mn936 O952 2.297 . S
Mn936 O960 2.385 . S
Mn936 O961 2.209 . S
Mn936 O962 2.094 . S
Mn937 O942 2.121 . S
Mn937 N944 2.257 . S
Mn937 N953 2.282 . S
Mn937 O961 2.215 . S
Mn937 O963 2.117 . S
C938 O960 1.234 . S
C938 O961 1.283 . S
C939 O951 1.281 . S
C939 O952 1.236 . S
C940 O962 1.240 . S
C940 O963 1.264 . S
O941 Mn936 2.095 . S
O941 C950 1.250 . S
O942 Mn937 2.121 . S
O942 C950 1.258 . S
C943 N944 1.326 . S
C943 C947 1.460 . S
C943 H949 0.929 . S
N944 Mn937 2.257 . S
N944 C943 1.326 . S
N944 C948 1.362 . S
C945 C946 1.258 . S
C945 C948 1.431 . S
C945 C965 1.449 . S
C946 C945 1.258 . S
C946 C947 1.477 . S
C946 H966 0.931 . S
C947 C943 1.460 . S
C947 C946 1.477 . S
C947 H967 0.930 . S
C948 N944 1.362 . S
C948 C945 1.431 . S
C948 C958 1.476 . S
H949 C943 0.929 . S
C950 O941 1.250 . S
C950 O942 1.258 . S
O951 Mn936 2.162 . S
O951 C939 1.281 . S
O952 Mn936 2.297 . S
O952 C939 1.236 . S
N953 Mn937 2.282 . S
N953 C954 1.328 . S
N953 C958 1.318 . S
C954 N953 1.328 . S
C954 C955 1.457 . S
C954 H959 0.929 . S
C955 C954 1.457 . S
C955 C956 1.291 . S
C955 H968 0.931 . S
C956 C955 1.291 . S
C956 C957 1.373 . S
C956 H969 0.929 . S
C957 C956 1.373 . S
C957 C958 1.396 . S
C957 C964 1.403 . S
C958 C948 1.476 . S
C958 N953 1.318 . S
C958 C957 1.396 . S
H959 C954 0.929 . S
O960 Mn936 2.385 . S
O960 C938 1.234 . S
O961 Mn936 2.209 . S
O961 Mn937 2.215 . S
O961 C938 1.283 . S
O962 Mn936 2.094 . S
O962 C940 1.240 . S
O963 Mn937 2.117 . S
O963 C940 1.264 . S
C964 C957 1.403 . S
C964 C965 1.399 . S
C964 H970 0.929 . S
C965 C945 1.449 . S
C965 C964 1.399 . S
C965 H971 0.930 . S
H966 C946 0.931 . S
H967 C947 0.930 . S
H968 C955 0.931 . S
H969 C956 0.929 . S
H970 C964 0.929 . S
H971 C965 0.930 . S
Mn972 O977 2.095 . S
Mn972 O987 2.162 . S
Mn972 O988 2.297 . S
Mn972 O996 2.385 . S
Mn972 O997 2.209 . S
Mn972 O998 2.094 . S
Mn973 O978 2.121 . S
Mn973 N980 2.257 . S
Mn973 N989 2.282 . S
Mn973 O997 2.215 . S
Mn973 O999 2.117 . S
C974 O996 1.234 . S
C974 O997 1.283 . S
C975 O987 1.281 . S
C975 O988 1.236 . S
C976 O998 1.240 . S
C976 O999 1.264 . S
O977 Mn972 2.095 . S
O977 C986 1.250 . S
O978 Mn973 2.121 . S
O978 C986 1.258 . S
C979 N980 1.326 . S
C979 C983 1.460 . S
C979 H985 0.929 . S
N980 Mn973 2.257 . S
N980 C979 1.326 . S
N980 C984 1.362 . S
C981 C982 1.258 . S
C981 C984 1.431 . S
C981 C1001 1.449 . S
C982 C981 1.258 . S
C982 C983 1.477 . S
C982 H1002 0.931 . S
C983 C979 1.460 . S
C983 C982 1.477 . S
C983 H1003 0.930 . S
C984 N980 1.362 . S
C984 C981 1.431 . S
C984 C994 1.476 . S
H985 C979 0.929 . S
C986 O977 1.250 . S
C986 O978 1.258 . S
O987 Mn972 2.162 . S
O987 C975 1.281 . S
O988 Mn972 2.297 . S
O988 C975 1.236 . S
N989 Mn973 2.282 . S
N989 C990 1.328 . S
N989 C994 1.318 . S
C990 N989 1.328 . S
C990 C991 1.457 . S
C990 H995 0.929 . S
C991 C990 1.457 . S
C991 C992 1.291 . S
C991 H1004 0.931 . S
C992 C991 1.291 . S
C992 C993 1.373 . S
C992 H1005 0.929 . S
C993 C992 1.373 . S
C993 C994 1.396 . S
C993 C1000 1.403 . S
C994 C984 1.476 . S
C994 N989 1.318 . S
C994 C993 1.396 . S
H995 C990 0.929 . S
O996 Mn972 2.385 . S
O996 C974 1.234 . S
O997 Mn972 2.209 . S
O997 Mn973 2.215 . S
O997 C974 1.283 . S
O998 Mn972 2.094 . S
O998 C976 1.240 . S
O999 Mn973 2.117 . S
O999 C976 1.264 . S
C1000 C993 1.403 . S
C1000 C1001 1.399 . S
C1000 H1006 0.929 . S
C1001 C981 1.449 . S
C1001 C1000 1.399 . S
C1001 H1007 0.930 . S
H1002 C982 0.931 . S
H1003 C983 0.930 . S
H1004 C991 0.931 . S
H1005 C992 0.929 . S
H1006 C1000 0.929 . S
H1007 C1001 0.930 . S
Mn1008 O1013 2.095 . S
Mn1008 O1023 2.162 . S
Mn1008 O1024 2.297 . S
Mn1008 O1032 2.385 . S
Mn1008 O1033 2.209 . S
Mn1008 O1034 2.094 . S
Mn1009 O1014 2.121 . S
Mn1009 N1016 2.257 . S
Mn1009 N1025 2.282 . S
Mn1009 O1033 2.215 . S
Mn1009 O1035 2.117 . S
C1010 O1032 1.234 . S
C1010 O1033 1.283 . S
C1011 O1023 1.281 . S
C1011 O1024 1.236 . S
C1012 O1034 1.240 . S
C1012 O1035 1.264 . S
O1013 Mn1008 2.095 . S
O1013 C1022 1.250 . S
O1014 Mn1009 2.121 . S
O1014 C1022 1.258 . S
C1015 N1016 1.326 . S
C1015 C1019 1.460 . S
C1015 H1021 0.929 . S
N1016 Mn1009 2.257 . S
N1016 C1015 1.326 . S
N1016 C1020 1.362 . S
C1017 C1018 1.258 . S
C1017 C1020 1.431 . S
C1017 C1037 1.449 . S
C1018 C1017 1.258 . S
C1018 C1019 1.477 . S
C1018 H1038 0.931 . S
C1019 C1015 1.460 . S
C1019 C1018 1.477 . S
C1019 H1039 0.930 . S
C1020 N1016 1.362 . S
C1020 C1017 1.431 . S
C1020 C1030 1.476 . S
H1021 C1015 0.929 . S
C1022 O1013 1.250 . S
C1022 O1014 1.258 . S
O1023 Mn1008 2.162 . S
O1023 C1011 1.281 . S
O1024 Mn1008 2.297 . S
O1024 C1011 1.236 . S
N1025 Mn1009 2.282 . S
N1025 C1026 1.328 . S
N1025 C1030 1.318 . S
C1026 N1025 1.328 . S
C1026 C1027 1.457 . S
C1026 H1031 0.929 . S
C1027 C1026 1.457 . S
C1027 C1028 1.291 . S
C1027 H1040 0.931 . S
C1028 C1027 1.291 . S
C1028 C1029 1.373 . S
C1028 H1041 0.929 . S
C1029 C1028 1.373 . S
C1029 C1030 1.396 . S
C1029 C1036 1.403 . S
C1030 C1020 1.476 . S
C1030 N1025 1.318 . S
C1030 C1029 1.396 . S
H1031 C1026 0.929 . S
O1032 Mn1008 2.385 . S
O1032 C1010 1.234 . S
O1033 Mn1008 2.209 . S
O1033 Mn1009 2.215 . S
O1033 C1010 1.283 . S
O1034 Mn1008 2.094 . S
O1034 C1012 1.240 . S
O1035 Mn1009 2.117 . S
O1035 C1012 1.264 . S
C1036 C1029 1.403 . S
C1036 C1037 1.399 . S
C1036 H1042 0.929 . S
C1037 C1017 1.449 . S
C1037 C1036 1.399 . S
C1037 H1043 0.930 . S
H1038 C1018 0.931 . S
H1039 C1019 0.930 . S
H1040 C1027 0.931 . S
H1041 C1028 0.929 . S
H1042 C1036 0.929 . S
H1043 C1037 0.930 . S
Mn1044 O1049 2.095 . S
Mn1044 O1059 2.162 . S
Mn1044 O1060 2.297 . S
Mn1044 O1068 2.385 . S
Mn1044 O1069 2.209 . S
Mn1044 O1070 2.094 . S
Mn1045 O1050 2.121 . S
Mn1045 N1052 2.257 . S
Mn1045 N1061 2.282 . S
Mn1045 O1069 2.215 . S
Mn1045 O1071 2.117 . S
C1046 O1068 1.234 . S
C1046 O1069 1.283 . S
C1047 O1059 1.281 . S
C1047 O1060 1.236 . S
C1048 O1070 1.240 . S
C1048 O1071 1.264 . S
O1049 Mn1044 2.095 . S
O1049 C1058 1.250 . S
O1050 Mn1045 2.121 . S
O1050 C1058 1.258 . S
C1051 N1052 1.326 . S
C1051 C1055 1.460 . S
C1051 H1057 0.929 . S
N1052 Mn1045 2.257 . S
N1052 C1051 1.326 . S
N1052 C1056 1.362 . S
C1053 C1054 1.258 . S
C1053 C1056 1.431 . S
C1053 C1073 1.449 . S
C1054 C1053 1.258 . S
C1054 C1055 1.477 . S
C1054 H1074 0.931 . S
C1055 C1051 1.460 . S
C1055 C1054 1.477 . S
C1055 H1075 0.930 . S
C1056 N1052 1.362 . S
C1056 C1053 1.431 . S
C1056 C1066 1.476 . S
H1057 C1051 0.929 . S
C1058 O1049 1.250 . S
C1058 O1050 1.258 . S
O1059 Mn1044 2.162 . S
O1059 C1047 1.281 . S
O1060 Mn1044 2.297 . S
O1060 C1047 1.236 . S
N1061 Mn1045 2.282 . S
N1061 C1062 1.328 . S
N1061 C1066 1.318 . S
C1062 N1061 1.328 . S
C1062 C1063 1.457 . S
C1062 H1067 0.929 . S
C1063 C1062 1.457 . S
C1063 C1064 1.291 . S
C1063 H1076 0.931 . S
C1064 C1063 1.291 . S
C1064 C1065 1.373 . S
C1064 H1077 0.929 . S
C1065 C1064 1.373 . S
C1065 C1066 1.396 . S
C1065 C1072 1.403 . S
C1066 C1056 1.476 . S
C1066 N1061 1.318 . S
C1066 C1065 1.396 . S
H1067 C1062 0.929 . S
O1068 Mn1044 2.385 . S
O1068 C1046 1.234 . S
O1069 Mn1044 2.209 . S
O1069 Mn1045 2.215 . S
O1069 C1046 1.283 . S
O1070 Mn1044 2.094 . S
O1070 C1048 1.240 . S
O1071 Mn1045 2.117 . S
O1071 C1048 1.264 . S
C1072 C1065 1.403 . S
C1072 C1073 1.399 . S
C1072 H1078 0.929 . S
C1073 C1053 1.449 . S
C1073 C1072 1.399 . S
C1073 H1079 0.930 . S
H1074 C1054 0.931 . S
H1075 C1055 0.930 . S
H1076 C1063 0.931 . S
H1077 C1064 0.929 . S
H1078 C1072 0.929 . S
H1079 C1073 0.930 . S
Mn1080 O1085 2.095 . S
Mn1080 O1095 2.162 . S
Mn1080 O1096 2.297 . S
Mn1080 O1104 2.385 . S
Mn1080 O1105 2.209 . S
Mn1080 O1106 2.094 . S
Mn1081 O1086 2.121 . S
Mn1081 N1088 2.257 . S
Mn1081 N1097 2.282 . S
Mn1081 O1105 2.215 . S
Mn1081 O1107 2.117 . S
C1082 O1104 1.234 . S
C1082 O1105 1.283 . S
C1083 O1095 1.281 . S
C1083 O1096 1.236 . S
C1084 O1106 1.240 . S
C1084 O1107 1.264 . S
O1085 Mn1080 2.095 . S
O1085 C1094 1.250 . S
O1086 Mn1081 2.121 . S
O1086 C1094 1.258 . S
C1087 N1088 1.326 . S
C1087 C1091 1.460 . S
C1087 H1093 0.929 . S
N1088 Mn1081 2.257 . S
N1088 C1087 1.326 . S
N1088 C1092 1.362 . S
C1089 C1090 1.258 . S
C1089 C1092 1.431 . S
C1089 C1109 1.449 . S
C1090 C1089 1.258 . S
C1090 C1091 1.477 . S
C1090 H1110 0.931 . S
C1091 C1087 1.460 . S
C1091 C1090 1.477 . S
C1091 H1111 0.930 . S
C1092 N1088 1.362 . S
C1092 C1089 1.431 . S
C1092 C1102 1.476 . S
H1093 C1087 0.929 . S
C1094 O1085 1.250 . S
C1094 O1086 1.258 . S
O1095 Mn1080 2.162 . S
O1095 C1083 1.281 . S
O1096 Mn1080 2.297 . S
O1096 C1083 1.236 . S
N1097 Mn1081 2.282 . S
N1097 C1098 1.328 . S
N1097 C1102 1.318 . S
C1098 N1097 1.328 . S
C1098 C1099 1.457 . S
C1098 H1103 0.929 . S
C1099 C1098 1.457 . S
C1099 C1100 1.291 . S
C1099 H1112 0.931 . S
C1100 C1099 1.291 . S
C1100 C1101 1.373 . S
C1100 H1113 0.929 . S
C1101 C1100 1.373 . S
C1101 C1102 1.396 . S
C1101 C1108 1.403 . S
C1102 C1092 1.476 . S
C1102 N1097 1.318 . S
C1102 C1101 1.396 . S
H1103 C1098 0.929 . S
O1104 Mn1080 2.385 . S
O1104 C1082 1.234 . S
O1105 Mn1080 2.209 . S
O1105 Mn1081 2.215 . S
O1105 C1082 1.283 . S
O1106 Mn1080 2.094 . S
O1106 C1084 1.240 . S
O1107 Mn1081 2.117 . S
O1107 C1084 1.264 . S
C1108 C1101 1.403 . S
C1108 C1109 1.399 . S
C1108 H1114 0.929 . S
C1109 C1089 1.449 . S
C1109 C1108 1.399 . S
C1109 H1115 0.930 . S
H1110 C1090 0.931 . S
H1111 C1091 0.930 . S
H1112 C1099 0.931 . S
H1113 C1100 0.929 . S
H1114 C1108 0.929 . S
H1115 C1109 0.930 . S
Mn1116 O1121 2.095 . S
Mn1116 O1131 2.162 . S
Mn1116 O1132 2.297 . S
Mn1116 O1140 2.385 . S
Mn1116 O1141 2.209 . S
Mn1116 O1142 2.094 . S
Mn1117 O1122 2.121 . S
Mn1117 N1124 2.257 . S
Mn1117 N1133 2.282 . S
Mn1117 O1141 2.215 . S
Mn1117 O1143 2.117 . S
C1118 O1140 1.234 . S
C1118 O1141 1.283 . S
C1119 O1131 1.281 . S
C1119 O1132 1.236 . S
C1120 O1142 1.240 . S
C1120 O1143 1.264 . S
O1121 Mn1116 2.095 . S
O1121 C1130 1.250 . S
O1122 Mn1117 2.121 . S
O1122 C1130 1.258 . S
C1123 N1124 1.326 . S
C1123 C1127 1.460 . S
C1123 H1129 0.929 . S
N1124 Mn1117 2.257 . S
N1124 C1123 1.326 . S
N1124 C1128 1.362 . S
C1125 C1126 1.258 . S
C1125 C1128 1.431 . S
C1125 C1145 1.449 . S
C1126 C1125 1.258 . S
C1126 C1127 1.477 . S
C1126 H1146 0.931 . S
C1127 C1123 1.460 . S
C1127 C1126 1.477 . S
C1127 H1147 0.930 . S
C1128 N1124 1.362 . S
C1128 C1125 1.431 . S
C1128 C1138 1.476 . S
H1129 C1123 0.929 . S
C1130 O1121 1.250 . S
C1130 O1122 1.258 . S
O1131 Mn1116 2.162 . S
O1131 C1119 1.281 . S
O1132 Mn1116 2.297 . S
O1132 C1119 1.236 . S
N1133 Mn1117 2.282 . S
N1133 C1134 1.328 . S
N1133 C1138 1.318 . S
C1134 N1133 1.328 . S
C1134 C1135 1.457 . S
C1134 H1139 0.929 . S
C1135 C1134 1.457 . S
C1135 C1136 1.291 . S
C1135 H1148 0.931 . S
C1136 C1135 1.291 . S
C1136 C1137 1.373 . S
C1136 H1149 0.929 . S
C1137 C1136 1.373 . S
C1137 C1138 1.396 . S
C1137 C1144 1.403 . S
C1138 C1128 1.476 . S
C1138 N1133 1.318 . S
C1138 C1137 1.396 . S
H1139 C1134 0.929 . S
O1140 Mn1116 2.385 . S
O1140 C1118 1.234 . S
O1141 Mn1116 2.209 . S
O1141 Mn1117 2.215 . S
O1141 C1118 1.283 . S
O1142 Mn1116 2.094 . S
O1142 C1120 1.240 . S
O1143 Mn1117 2.117 . S
O1143 C1120 1.264 . S
C1144 C1137 1.403 . S
C1144 C1145 1.399 . S
C1144 H1150 0.929 . S
C1145 C1125 1.449 . S
C1145 C1144 1.399 . S
C1145 H1151 0.930 . S
H1146 C1126 0.931 . S
H1147 C1127 0.930 . S
H1148 C1135 0.931 . S
H1149 C1136 0.929 . S
H1150 C1144 0.929 . S
H1151 C1145 0.930 . S
C1152 C1153 1.391 . S
C1152 C1154 1.394 . S
C1152 H1168 0.931 . S
C1153 C1152 1.391 . S
C1153 C1157 1.376 . S
C1154 C1152 1.394 . S
C1154 C1155 1.369 . S
C1154 C1158 1.531 . S
C1155 C1154 1.369 . S
C1155 C1156 1.410 . S
C1155 C1163 1.503 . S
C1156 C1155 1.410 . S
C1156 C1157 1.392 . S
C1156 C1159 1.511 . S
C1157 C1153 1.376 . S
C1157 C1156 1.392 . S
C1157 H1169 0.929 . S
C1158 C1154 1.531 . S
C1158 H1170 0.960 . S
C1158 H1171 0.962 . S
C1158 H1172 0.960 . S
C1159 C1156 1.511 . S
C1159 H1173 0.961 . S
C1159 H1174 0.961 . S
C1159 H1175 0.961 . S
C1160 C1161 1.370 . S
C1160 C1162 1.363 . S
C1160 H1176 0.931 . S
C1161 C1160 1.370 . S
C1161 C1165 1.408 . S
C1162 C1160 1.363 . S
C1162 C1163 1.370 . S
C1162 C1166 1.524 . S
C1163 C1155 1.503 . S
C1163 C1162 1.370 . S
C1163 C1164 1.403 . S
C1164 C1163 1.403 . S
C1164 C1165 1.404 . S
C1164 C1167 1.539 . S
C1165 C1161 1.408 . S
C1165 C1164 1.404 . S
C1165 H1177 0.930 . S
C1166 C1162 1.524 . S
C1166 H1178 0.956 . S
C1166 H1179 0.961 . S
C1166 H1180 0.961 . S
C1167 C1164 1.539 . S
C1167 H1181 0.958 . S
C1167 H1182 0.961 . S
C1167 H1183 0.960 . S
H1168 C1152 0.931 . S
H1169 C1157 0.929 . S
H1170 C1158 0.960 . S
H1171 C1158 0.962 . S
H1172 C1158 0.960 . S
H1173 C1159 0.961 . S
H1174 C1159 0.961 . S
H1175 C1159 0.961 . S
H1176 C1160 0.931 . S
H1177 C1165 0.930 . S
H1178 C1166 0.956 . S
H1179 C1166 0.961 . S
H1180 C1166 0.961 . S
H1181 C1167 0.958 . S
H1182 C1167 0.961 . S
H1183 C1167 0.960 . S
C1184 C1185 1.391 . S
C1184 C1186 1.394 . S
C1184 H1200 0.931 . S
C1185 C1184 1.391 . S
C1185 C1189 1.376 . S
C1186 C1184 1.394 . S
C1186 C1187 1.369 . S
C1186 C1190 1.531 . S
C1187 C1186 1.369 . S
C1187 C1188 1.410 . S
C1187 C1195 1.503 . S
C1188 C1187 1.410 . S
C1188 C1189 1.392 . S
C1188 C1191 1.511 . S
C1189 C1185 1.376 . S
C1189 C1188 1.392 . S
C1189 H1201 0.929 . S
C1190 C1186 1.531 . S
C1190 H1202 0.960 . S
C1190 H1203 0.962 . S
C1190 H1204 0.960 . S
C1191 C1188 1.511 . S
C1191 H1205 0.961 . S
C1191 H1206 0.961 . S
C1191 H1207 0.961 . S
C1192 C1193 1.370 . S
C1192 C1194 1.363 . S
C1192 H1208 0.931 . S
C1193 C1192 1.370 . S
C1193 C1197 1.408 . S
C1194 C1192 1.363 . S
C1194 C1195 1.370 . S
C1194 C1198 1.524 . S
C1195 C1187 1.503 . S
C1195 C1194 1.370 . S
C1195 C1196 1.403 . S
C1196 C1195 1.403 . S
C1196 C1197 1.404 . S
C1196 C1199 1.539 . S
C1197 C1193 1.408 . S
C1197 C1196 1.404 . S
C1197 H1209 0.930 . S
C1198 C1194 1.524 . S
C1198 H1210 0.956 . S
C1198 H1211 0.961 . S
C1198 H1212 0.961 . S
C1199 C1196 1.539 . S
C1199 H1213 0.958 . S
C1199 H1214 0.961 . S
C1199 H1215 0.960 . S
H1200 C1184 0.931 . S
H1201 C1189 0.929 . S
H1202 C1190 0.960 . S
H1203 C1190 0.962 . S
H1204 C1190 0.960 . S
H1205 C1191 0.961 . S
H1206 C1191 0.961 . S
H1207 C1191 0.961 . S
H1208 C1192 0.931 . S
H1209 C1197 0.930 . S
H1210 C1198 0.956 . S
H1211 C1198 0.961 . S
H1212 C1198 0.961 . S
H1213 C1199 0.958 . S
H1214 C1199 0.961 . S
H1215 C1199 0.960 . S
C1216 C1217 1.391 . S
C1216 C1218 1.394 . S
C1216 H1232 0.931 . S
C1217 C1216 1.391 . S
C1217 C1221 1.376 . S
C1218 C1216 1.394 . S
C1218 C1219 1.369 . S
C1218 C1222 1.531 . S
C1219 C1218 1.369 . S
C1219 C1220 1.410 . S
C1219 C1227 1.503 . S
C1220 C1219 1.410 . S
C1220 C1221 1.392 . S
C1220 C1223 1.511 . S
C1221 C1217 1.376 . S
C1221 C1220 1.392 . S
C1221 H1233 0.929 . S
C1222 C1218 1.531 . S
C1222 H1234 0.960 . S
C1222 H1235 0.962 . S
C1222 H1236 0.960 . S
C1223 C1220 1.511 . S
C1223 H1237 0.961 . S
C1223 H1238 0.961 . S
C1223 H1239 0.961 . S
C1224 C1225 1.370 . S
C1224 C1226 1.363 . S
C1224 H1240 0.931 . S
C1225 C1224 1.370 . S
C1225 C1229 1.408 . S
C1226 C1224 1.363 . S
C1226 C1227 1.370 . S
C1226 C1230 1.524 . S
C1227 C1219 1.503 . S
C1227 C1226 1.370 . S
C1227 C1228 1.403 . S
C1228 C1227 1.403 . S
C1228 C1229 1.404 . S
C1228 C1231 1.539 . S
C1229 C1225 1.408 . S
C1229 C1228 1.404 . S
C1229 H1241 0.930 . S
C1230 C1226 1.524 . S
C1230 H1242 0.956 . S
C1230 H1243 0.961 . S
C1230 H1244 0.961 . S
C1231 C1228 1.539 . S
C1231 H1245 0.958 . S
C1231 H1246 0.961 . S
C1231 H1247 0.960 . S
H1232 C1216 0.931 . S
H1233 C1221 0.929 . S
H1234 C1222 0.960 . S
H1235 C1222 0.962 . S
H1236 C1222 0.960 . S
H1237 C1223 0.961 . S
H1238 C1223 0.961 . S
H1239 C1223 0.961 . S
H1240 C1224 0.931 . S
H1241 C1229 0.930 . S
H1242 C1230 0.956 . S
H1243 C1230 0.961 . S
H1244 C1230 0.961 . S
H1245 C1231 0.958 . S
H1246 C1231 0.961 . S
H1247 C1231 0.960 . S
C1248 C1249 1.391 . S
C1248 C1250 1.394 . S
C1248 H1264 0.931 . S
C1249 C1248 1.391 . S
C1249 C1253 1.376 . S
C1250 C1248 1.394 . S
C1250 C1251 1.369 . S
C1250 C1254 1.531 . S
C1251 C1250 1.369 . S
C1251 C1252 1.410 . S
C1251 C1259 1.503 . S
C1252 C1251 1.410 . S
C1252 C1253 1.392 . S
C1252 C1255 1.511 . S
C1253 C1249 1.376 . S
C1253 C1252 1.392 . S
C1253 H1265 0.929 . S
C1254 C1250 1.531 . S
C1254 H1266 0.960 . S
C1254 H1267 0.962 . S
C1254 H1268 0.960 . S
C1255 C1252 1.511 . S
C1255 H1269 0.961 . S
C1255 H1270 0.961 . S
C1255 H1271 0.961 . S
C1256 C1257 1.370 . S
C1256 C1258 1.363 . S
C1256 H1272 0.931 . S
C1257 C1256 1.370 . S
C1257 C1261 1.408 . S
C1258 C1256 1.363 . S
C1258 C1259 1.370 . S
C1258 C1262 1.524 . S
C1259 C1251 1.503 . S
C1259 C1258 1.370 . S
C1259 C1260 1.403 . S
C1260 C1259 1.403 . S
C1260 C1261 1.404 . S
C1260 C1263 1.539 . S
C1261 C1257 1.408 . S
C1261 C1260 1.404 . S
C1261 H1273 0.930 . S
C1262 C1258 1.524 . S
C1262 H1274 0.956 . S
C1262 H1275 0.961 . S
C1262 H1276 0.961 . S
C1263 C1260 1.539 . S
C1263 H1277 0.958 . S
C1263 H1278 0.961 . S
C1263 H1279 0.960 . S
H1264 C1248 0.931 . S
H1265 C1253 0.929 . S
H1266 C1254 0.960 . S
H1267 C1254 0.962 . S
H1268 C1254 0.960 . S
H1269 C1255 0.961 . S
H1270 C1255 0.961 . S
H1271 C1255 0.961 . S
H1272 C1256 0.931 . S
H1273 C1261 0.930 . S
H1274 C1262 0.956 . S
H1275 C1262 0.961 . S
H1276 C1262 0.961 . S
H1277 C1263 0.958 . S
H1278 C1263 0.961 . S
H1279 C1263 0.960 . S
C1280 C1281 1.391 . S
C1280 C1282 1.394 . S
C1280 H1296 0.931 . S
C1281 C1280 1.391 . S
C1281 C1285 1.376 . S
C1282 C1280 1.394 . S
C1282 C1283 1.369 . S
C1282 C1286 1.531 . S
C1283 C1282 1.369 . S
C1283 C1284 1.410 . S
C1283 C1291 1.503 . S
C1284 C1283 1.410 . S
C1284 C1285 1.392 . S
C1284 C1287 1.511 . S
C1285 C1281 1.376 . S
C1285 C1284 1.392 . S
C1285 H1297 0.929 . S
C1286 C1282 1.531 . S
C1286 H1298 0.960 . S
C1286 H1299 0.962 . S
C1286 H1300 0.960 . S
C1287 C1284 1.511 . S
C1287 H1301 0.961 . S
C1287 H1302 0.961 . S
C1287 H1303 0.961 . S
C1288 C1289 1.370 . S
C1288 C1290 1.363 . S
C1288 H1304 0.931 . S
C1289 C1288 1.370 . S
C1289 C1293 1.408 . S
C1290 C1288 1.363 . S
C1290 C1291 1.370 . S
C1290 C1294 1.524 . S
C1291 C1283 1.503 . S
C1291 C1290 1.370 . S
C1291 C1292 1.403 . S
C1292 C1291 1.403 . S
C1292 C1293 1.404 . S
C1292 C1295 1.539 . S
C1293 C1289 1.408 . S
C1293 C1292 1.404 . S
C1293 H1305 0.930 . S
C1294 C1290 1.524 . S
C1294 H1306 0.956 . S
C1294 H1307 0.961 . S
C1294 H1308 0.961 . S
C1295 C1292 1.539 . S
C1295 H1309 0.958 . S
C1295 H1310 0.961 . S
C1295 H1311 0.960 . S
H1296 C1280 0.931 . S
H1297 C1285 0.929 . S
H1298 C1286 0.960 . S
H1299 C1286 0.962 . S
H1300 C1286 0.960 . S
H1301 C1287 0.961 . S
H1302 C1287 0.961 . S
H1303 C1287 0.961 . S
H1304 C1288 0.931 . S
H1305 C1293 0.930 . S
H1306 C1294 0.956 . S
H1307 C1294 0.961 . S
H1308 C1294 0.961 . S
H1309 C1295 0.958 . S
H1310 C1295 0.961 . S
H1311 C1295 0.960 . S
C1312 C1313 1.391 . S
C1312 C1314 1.394 . S
C1312 H1328 0.931 . S
C1313 C1312 1.391 . S
C1313 C1317 1.376 . S
C1314 C1312 1.394 . S
C1314 C1315 1.369 . S
C1314 C1318 1.531 . S
C1315 C1314 1.369 . S
C1315 C1316 1.410 . S
C1315 C1323 1.503 . S
C1316 C1315 1.410 . S
C1316 C1317 1.392 . S
C1316 C1319 1.511 . S
C1317 C1313 1.376 . S
C1317 C1316 1.392 . S
C1317 H1329 0.929 . S
C1318 C1314 1.531 . S
C1318 H1330 0.960 . S
C1318 H1331 0.962 . S
C1318 H1332 0.960 . S
C1319 C1316 1.511 . S
C1319 H1333 0.961 . S
C1319 H1334 0.961 . S
C1319 H1335 0.961 . S
C1320 C1321 1.370 . S
C1320 C1322 1.363 . S
C1320 H1336 0.931 . S
C1321 C1320 1.370 . S
C1321 C1325 1.408 . S
C1322 C1320 1.363 . S
C1322 C1323 1.370 . S
C1322 C1326 1.524 . S
C1323 C1315 1.503 . S
C1323 C1322 1.370 . S
C1323 C1324 1.403 . S
C1324 C1323 1.403 . S
C1324 C1325 1.404 . S
C1324 C1327 1.539 . S
C1325 C1321 1.408 . S
C1325 C1324 1.404 . S
C1325 H1337 0.930 . S
C1326 C1322 1.524 . S
C1326 H1338 0.956 . S
C1326 H1339 0.961 . S
C1326 H1340 0.961 . S
C1327 C1324 1.539 . S
C1327 H1341 0.958 . S
C1327 H1342 0.961 . S
C1327 H1343 0.960 . S
H1328 C1312 0.931 . S
H1329 C1317 0.929 . S
H1330 C1318 0.960 . S
H1331 C1318 0.962 . S
H1332 C1318 0.960 . S
H1333 C1319 0.961 . S
H1334 C1319 0.961 . S
H1335 C1319 0.961 . S
H1336 C1320 0.931 . S
H1337 C1325 0.930 . S
H1338 C1326 0.956 . S
H1339 C1326 0.961 . S
H1340 C1326 0.961 . S
H1341 C1327 0.958 . S
H1342 C1327 0.961 . S
H1343 C1327 0.960 . S
C1344 C1345 1.391 . S
C1344 C1346 1.394 . S
C1344 H1360 0.931 . S
C1345 C1344 1.391 . S
C1345 C1349 1.376 . S
C1346 C1344 1.394 . S
C1346 C1347 1.369 . S
C1346 C1350 1.531 . S
C1347 C1346 1.369 . S
C1347 C1348 1.410 . S
C1347 C1355 1.503 . S
C1348 C1347 1.410 . S
C1348 C1349 1.392 . S
C1348 C1351 1.511 . S
C1349 C1345 1.376 . S
C1349 C1348 1.392 . S
C1349 H1361 0.929 . S
C1350 C1346 1.531 . S
C1350 H1362 0.960 . S
C1350 H1363 0.962 . S
C1350 H1364 0.960 . S
C1351 C1348 1.511 . S
C1351 H1365 0.961 . S
C1351 H1366 0.961 . S
C1351 H1367 0.961 . S
C1352 C1353 1.370 . S
C1352 C1354 1.363 . S
C1352 H1368 0.931 . S
C1353 C1352 1.370 . S
C1353 C1357 1.408 . S
C1354 C1352 1.363 . S
C1354 C1355 1.370 . S
C1354 C1358 1.524 . S
C1355 C1347 1.503 . S
C1355 C1354 1.370 . S
C1355 C1356 1.403 . S
C1356 C1355 1.403 . S
C1356 C1357 1.404 . S
C1356 C1359 1.539 . S
C1357 C1353 1.408 . S
C1357 C1356 1.404 . S
C1357 H1369 0.930 . S
C1358 C1354 1.524 . S
C1358 H1370 0.956 . S
C1358 H1371 0.961 . S
C1358 H1372 0.961 . S
C1359 C1356 1.539 . S
C1359 H1373 0.958 . S
C1359 H1374 0.961 . S
C1359 H1375 0.960 . S
H1360 C1344 0.931 . S
H1361 C1349 0.929 . S
H1362 C1350 0.960 . S
H1363 C1350 0.962 . S
H1364 C1350 0.960 . S
H1365 C1351 0.961 . S
H1366 C1351 0.961 . S
H1367 C1351 0.961 . S
H1368 C1352 0.931 . S
H1369 C1357 0.930 . S
H1370 C1358 0.956 . S
H1371 C1358 0.961 . S
H1372 C1358 0.961 . S
H1373 C1359 0.958 . S
H1374 C1359 0.961 . S
H1375 C1359 0.960 . S
C1376 C1377 1.391 . S
C1376 C1378 1.394 . S
C1376 H1392 0.931 . S
C1377 C1376 1.391 . S
C1377 C1381 1.376 . S
C1378 C1376 1.394 . S
C1378 C1379 1.369 . S
C1378 C1382 1.531 . S
C1379 C1378 1.369 . S
C1379 C1380 1.410 . S
C1379 C1387 1.503 . S
C1380 C1379 1.410 . S
C1380 C1381 1.392 . S
C1380 C1383 1.511 . S
C1381 C1377 1.376 . S
C1381 C1380 1.392 . S
C1381 H1393 0.929 . S
C1382 C1378 1.531 . S
C1382 H1394 0.960 . S
C1382 H1395 0.962 . S
C1382 H1396 0.960 . S
C1383 C1380 1.511 . S
C1383 H1397 0.961 . S
C1383 H1398 0.961 . S
C1383 H1399 0.961 . S
C1384 C1385 1.370 . S
C1384 C1386 1.363 . S
C1384 H1400 0.931 . S
C1385 C1384 1.370 . S
C1385 C1389 1.408 . S
C1386 C1384 1.363 . S
C1386 C1387 1.370 . S
C1386 C1390 1.524 . S
C1387 C1379 1.503 . S
C1387 C1386 1.370 . S
C1387 C1388 1.403 . S
C1388 C1387 1.403 . S
C1388 C1389 1.404 . S
C1388 C1391 1.539 . S
C1389 C1385 1.408 . S
C1389 C1388 1.404 . S
C1389 H1401 0.930 . S
C1390 C1386 1.524 . S
C1390 H1402 0.956 . S
C1390 H1403 0.961 . S
C1390 H1404 0.961 . S
C1391 C1388 1.539 . S
C1391 H1405 0.958 . S
C1391 H1406 0.961 . S
C1391 H1407 0.960 . S
H1392 C1376 0.931 . S
H1393 C1381 0.929 . S
H1394 C1382 0.960 . S
H1395 C1382 0.962 . S
H1396 C1382 0.960 . S
H1397 C1383 0.961 . S
H1398 C1383 0.961 . S
H1399 C1383 0.961 . S
H1400 C1384 0.931 . S
H1401 C1389 0.930 . S
H1402 C1390 0.956 . S
H1403 C1390 0.961 . S
H1404 C1390 0.961 . S
H1405 C1391 0.958 . S
H1406 C1391 0.961 . S
H1407 C1391 0.960 . S
C1408 C1409 1.391 . S
C1408 C1410 1.394 . S
C1408 H1424 0.931 . S
C1409 C1408 1.391 . S
C1409 C1413 1.376 . S
C1410 C1408 1.394 . S
C1410 C1411 1.369 . S
C1410 C1414 1.531 . S
C1411 C1410 1.369 . S
C1411 C1412 1.410 . S
C1411 C1419 1.503 . S
C1412 C1411 1.410 . S
C1412 C1413 1.392 . S
C1412 C1415 1.511 . S
C1413 C1409 1.376 . S
C1413 C1412 1.392 . S
C1413 H1425 0.929 . S
C1414 C1410 1.531 . S
C1414 H1426 0.960 . S
C1414 H1427 0.962 . S
C1414 H1428 0.960 . S
C1415 C1412 1.511 . S
C1415 H1429 0.961 . S
C1415 H1430 0.961 . S
C1415 H1431 0.961 . S
C1416 C1417 1.370 . S
C1416 C1418 1.363 . S
C1416 H1432 0.931 . S
C1417 C1416 1.370 . S
C1417 C1421 1.408 . S
C1418 C1416 1.363 . S
C1418 C1419 1.370 . S
C1418 C1422 1.524 . S
C1419 C1411 1.503 . S
C1419 C1418 1.370 . S
C1419 C1420 1.403 . S
C1420 C1419 1.403 . S
C1420 C1421 1.404 . S
C1420 C1423 1.539 . S
C1421 C1417 1.408 . S
C1421 C1420 1.404 . S
C1421 H1433 0.930 . S
C1422 C1418 1.524 . S
C1422 H1434 0.956 . S
C1422 H1435 0.961 . S
C1422 H1436 0.961 . S
C1423 C1420 1.539 . S
C1423 H1437 0.958 . S
C1423 H1438 0.961 . S
C1423 H1439 0.960 . S
H1424 C1408 0.931 . S
H1425 C1413 0.929 . S
H1426 C1414 0.960 . S
H1427 C1414 0.962 . S
H1428 C1414 0.960 . S
H1429 C1415 0.961 . S
H1430 C1415 0.961 . S
H1431 C1415 0.961 . S
H1432 C1416 0.931 . S
H1433 C1421 0.930 . S
H1434 C1422 0.956 . S
H1435 C1422 0.961 . S
H1436 C1422 0.961 . S
H1437 C1423 0.958 . S
H1438 C1423 0.961 . S
H1439 C1423 0.960 . S
C1440 C1441 1.391 . S
C1440 C1442 1.394 . S
C1440 H1456 0.931 . S
C1441 C1440 1.391 . S
C1441 C1445 1.376 . S
C1442 C1440 1.394 . S
C1442 C1443 1.369 . S
C1442 C1446 1.531 . S
C1443 C1442 1.369 . S
C1443 C1444 1.410 . S
C1443 C1451 1.503 . S
C1444 C1443 1.410 . S
C1444 C1445 1.392 . S
C1444 C1447 1.511 . S
C1445 C1441 1.376 . S
C1445 C1444 1.392 . S
C1445 H1457 0.929 . S
C1446 C1442 1.531 . S
C1446 H1458 0.960 . S
C1446 H1459 0.962 . S
C1446 H1460 0.960 . S
C1447 C1444 1.511 . S
C1447 H1461 0.961 . S
C1447 H1462 0.961 . S
C1447 H1463 0.961 . S
C1448 C1449 1.370 . S
C1448 C1450 1.363 . S
C1448 H1464 0.931 . S
C1449 C1448 1.370 . S
C1449 C1453 1.408 . S
C1450 C1448 1.363 . S
C1450 C1451 1.370 . S
C1450 C1454 1.524 . S
C1451 C1443 1.503 . S
C1451 C1450 1.370 . S
C1451 C1452 1.403 . S
C1452 C1451 1.403 . S
C1452 C1453 1.404 . S
C1452 C1455 1.539 . S
C1453 C1449 1.408 . S
C1453 C1452 1.404 . S
C1453 H1465 0.930 . S
C1454 C1450 1.524 . S
C1454 H1466 0.956 . S
C1454 H1467 0.961 . S
C1454 H1468 0.961 . S
C1455 C1452 1.539 . S
C1455 H1469 0.958 . S
C1455 H1470 0.961 . S
C1455 H1471 0.960 . S
H1456 C1440 0.931 . S
H1457 C1445 0.929 . S
H1458 C1446 0.960 . S
H1459 C1446 0.962 . S
H1460 C1446 0.960 . S
H1461 C1447 0.961 . S
H1462 C1447 0.961 . S
H1463 C1447 0.961 . S
H1464 C1448 0.931 . S
H1465 C1453 0.930 . S
H1466 C1454 0.956 . S
H1467 C1454 0.961 . S
H1468 C1454 0.961 . S
H1469 C1455 0.958 . S
H1470 C1455 0.961 . S
H1471 C1455 0.960 . S
C1472 C1473 1.391 . S
C1472 C1474 1.394 . S
C1472 H1488 0.931 . S
C1473 C1472 1.391 . S
C1473 C1477 1.376 . S
C1474 C1472 1.394 . S
C1474 C1475 1.369 . S
C1474 C1478 1.531 . S
C1475 C1474 1.369 . S
C1475 C1476 1.410 . S
C1475 C1483 1.503 . S
C1476 C1475 1.410 . S
C1476 C1477 1.392 . S
C1476 C1479 1.511 . S
C1477 C1473 1.376 . S
C1477 C1476 1.392 . S
C1477 H1489 0.929 . S
C1478 C1474 1.531 . S
C1478 H1490 0.960 . S
C1478 H1491 0.962 . S
C1478 H1492 0.960 . S
C1479 C1476 1.511 . S
C1479 H1493 0.961 . S
C1479 H1494 0.961 . S
C1479 H1495 0.961 . S
C1480 C1481 1.370 . S
C1480 C1482 1.363 . S
C1480 H1496 0.931 . S
C1481 C1480 1.370 . S
C1481 C1485 1.408 . S
C1482 C1480 1.363 . S
C1482 C1483 1.370 . S
C1482 C1486 1.524 . S
C1483 C1475 1.503 . S
C1483 C1482 1.370 . S
C1483 C1484 1.403 . S
C1484 C1483 1.403 . S
C1484 C1485 1.404 . S
C1484 C1487 1.539 . S
C1485 C1481 1.408 . S
C1485 C1484 1.404 . S
C1485 H1497 0.930 . S
C1486 C1482 1.524 . S
C1486 H1498 0.956 . S
C1486 H1499 0.961 . S
C1486 H1500 0.961 . S
C1487 C1484 1.539 . S
C1487 H1501 0.958 . S
C1487 H1502 0.961 . S
C1487 H1503 0.960 . S
H1488 C1472 0.931 . S
H1489 C1477 0.929 . S
H1490 C1478 0.960 . S
H1491 C1478 0.962 . S
H1492 C1478 0.960 . S
H1493 C1479 0.961 . S
H1494 C1479 0.961 . S
H1495 C1479 0.961 . S
H1496 C1480 0.931 . S
H1497 C1485 0.930 . S
H1498 C1486 0.956 . S
H1499 C1486 0.961 . S
H1500 C1486 0.961 . S
H1501 C1487 0.958 . S
H1502 C1487 0.961 . S
H1503 C1487 0.960 . S
C1504 C1505 1.391 . S
C1504 C1506 1.394 . S
C1504 H1520 0.931 . S
C1505 C1504 1.391 . S
C1505 C1509 1.376 . S
C1506 C1504 1.394 . S
C1506 C1507 1.369 . S
C1506 C1510 1.531 . S
C1507 C1506 1.369 . S
C1507 C1508 1.410 . S
C1507 C1515 1.503 . S
C1508 C1507 1.410 . S
C1508 C1509 1.392 . S
C1508 C1511 1.511 . S
C1509 C1505 1.376 . S
C1509 C1508 1.392 . S
C1509 H1521 0.929 . S
C1510 C1506 1.531 . S
C1510 H1522 0.960 . S
C1510 H1523 0.962 . S
C1510 H1524 0.960 . S
C1511 C1508 1.511 . S
C1511 H1525 0.961 . S
C1511 H1526 0.961 . S
C1511 H1527 0.961 . S
C1512 C1513 1.370 . S
C1512 C1514 1.363 . S
C1512 H1528 0.931 . S
C1513 C1512 1.370 . S
C1513 C1517 1.408 . S
C1514 C1512 1.363 . S
C1514 C1515 1.370 . S
C1514 C1518 1.524 . S
C1515 C1507 1.503 . S
C1515 C1514 1.370 . S
C1515 C1516 1.403 . S
C1516 C1515 1.403 . S
C1516 C1517 1.404 . S
C1516 C1519 1.539 . S
C1517 C1513 1.408 . S
C1517 C1516 1.404 . S
C1517 H1529 0.930 . S
C1518 C1514 1.524 . S
C1518 H1530 0.956 . S
C1518 H1531 0.961 . S
C1518 H1532 0.961 . S
C1519 C1516 1.539 . S
C1519 H1533 0.958 . S
C1519 H1534 0.961 . S
C1519 H1535 0.960 . S
H1520 C1504 0.931 . S
H1521 C1509 0.929 . S
H1522 C1510 0.960 . S
H1523 C1510 0.962 . S
H1524 C1510 0.960 . S
H1525 C1511 0.961 . S
H1526 C1511 0.961 . S
H1527 C1511 0.961 . S
H1528 C1512 0.931 . S
H1529 C1517 0.930 . S
H1530 C1518 0.956 . S
H1531 C1518 0.961 . S
H1532 C1518 0.961 . S
H1533 C1519 0.958 . S
H1534 C1519 0.961 . S
H1535 C1519 0.960 . S
C1536 C1537 1.391 . S
C1536 C1538 1.394 . S
C1536 H1552 0.931 . S
C1537 C1536 1.391 . S
C1537 C1541 1.376 . S
C1538 C1536 1.394 . S
C1538 C1539 1.369 . S
C1538 C1542 1.531 . S
C1539 C1538 1.369 . S
C1539 C1540 1.410 . S
C1539 C1547 1.503 . S
C1540 C1539 1.410 . S
C1540 C1541 1.392 . S
C1540 C1543 1.511 . S
C1541 C1537 1.376 . S
C1541 C1540 1.392 . S
C1541 H1553 0.929 . S
C1542 C1538 1.531 . S
C1542 H1554 0.960 . S
C1542 H1555 0.962 . S
C1542 H1556 0.960 . S
C1543 C1540 1.511 . S
C1543 H1557 0.961 . S
C1543 H1558 0.961 . S
C1543 H1559 0.961 . S
C1544 C1545 1.370 . S
C1544 C1546 1.363 . S
C1544 H1560 0.931 . S
C1545 C1544 1.370 . S
C1545 C1549 1.408 . S
C1546 C1544 1.363 . S
C1546 C1547 1.370 . S
C1546 C1550 1.524 . S
C1547 C1539 1.503 . S
C1547 C1546 1.370 . S
C1547 C1548 1.403 . S
C1548 C1547 1.403 . S
C1548 C1549 1.404 . S
C1548 C1551 1.539 . S
C1549 C1545 1.408 . S
C1549 C1548 1.404 . S
C1549 H1561 0.930 . S
C1550 C1546 1.524 . S
C1550 H1562 0.956 . S
C1550 H1563 0.961 . S
C1550 H1564 0.961 . S
C1551 C1548 1.539 . S
C1551 H1565 0.958 . S
C1551 H1566 0.961 . S
C1551 H1567 0.960 . S
H1552 C1536 0.931 . S
H1553 C1541 0.929 . S
H1554 C1542 0.960 . S
H1555 C1542 0.962 . S
H1556 C1542 0.960 . S
H1557 C1543 0.961 . S
H1558 C1543 0.961 . S
H1559 C1543 0.961 . S
H1560 C1544 0.931 . S
H1561 C1549 0.930 . S
H1562 C1550 0.956 . S
H1563 C1550 0.961 . S
H1564 C1550 0.961 . S
H1565 C1551 0.958 . S
H1566 C1551 0.961 . S
H1567 C1551 0.960 . S
C1568 C1569 1.391 . S
C1568 C1570 1.394 . S
C1568 H1584 0.931 . S
C1569 C1568 1.391 . S
C1569 C1573 1.376 . S
C1570 C1568 1.394 . S
C1570 C1571 1.369 . S
C1570 C1574 1.531 . S
C1571 C1570 1.369 . S
C1571 C1572 1.410 . S
C1571 C1579 1.503 . S
C1572 C1571 1.410 . S
C1572 C1573 1.392 . S
C1572 C1575 1.511 . S
C1573 C1569 1.376 . S
C1573 C1572 1.392 . S
C1573 H1585 0.929 . S
C1574 C1570 1.531 . S
C1574 H1586 0.960 . S
C1574 H1587 0.962 . S
C1574 H1588 0.960 . S
C1575 C1572 1.511 . S
C1575 H1589 0.961 . S
C1575 H1590 0.961 . S
C1575 H1591 0.961 . S
C1576 C1577 1.370 . S
C1576 C1578 1.363 . S
C1576 H1592 0.931 . S
C1577 C1576 1.370 . S
C1577 C1581 1.408 . S
C1578 C1576 1.363 . S
C1578 C1579 1.370 . S
C1578 C1582 1.524 . S
C1579 C1571 1.503 . S
C1579 C1578 1.370 . S
C1579 C1580 1.403 . S
C1580 C1579 1.403 . S
C1580 C1581 1.404 . S
C1580 C1583 1.539 . S
C1581 C1577 1.408 . S
C1581 C1580 1.404 . S
C1581 H1593 0.930 . S
C1582 C1578 1.524 . S
C1582 H1594 0.956 . S
C1582 H1595 0.961 . S
C1582 H1596 0.961 . S
C1583 C1580 1.539 . S
C1583 H1597 0.958 . S
C1583 H1598 0.961 . S
C1583 H1599 0.960 . S
H1584 C1568 0.931 . S
H1585 C1573 0.929 . S
H1586 C1574 0.960 . S
H1587 C1574 0.962 . S
H1588 C1574 0.960 . S
H1589 C1575 0.961 . S
H1590 C1575 0.961 . S
H1591 C1575 0.961 . S
H1592 C1576 0.931 . S
H1593 C1581 0.930 . S
H1594 C1582 0.956 . S
H1595 C1582 0.961 . S
H1596 C1582 0.961 . S
H1597 C1583 0.958 . S
H1598 C1583 0.961 . S
H1599 C1583 0.960 . S
C1600 C1601 1.391 . S
C1600 C1602 1.394 . S
C1600 H1616 0.931 . S
C1601 C1600 1.391 . S
C1601 C1605 1.376 . S
C1602 C1600 1.394 . S
C1602 C1603 1.369 . S
C1602 C1606 1.531 . S
C1603 C1602 1.369 . S
C1603 C1604 1.410 . S
C1603 C1611 1.503 . S
C1604 C1603 1.410 . S
C1604 C1605 1.392 . S
C1604 C1607 1.511 . S
C1605 C1601 1.376 . S
C1605 C1604 1.392 . S
C1605 H1617 0.929 . S
C1606 C1602 1.531 . S
C1606 H1618 0.960 . S
C1606 H1619 0.962 . S
C1606 H1620 0.960 . S
C1607 C1604 1.511 . S
C1607 H1621 0.961 . S
C1607 H1622 0.961 . S
C1607 H1623 0.961 . S
C1608 C1609 1.370 . S
C1608 C1610 1.363 . S
C1608 H1624 0.931 . S
C1609 C1608 1.370 . S
C1609 C1613 1.408 . S
C1610 C1608 1.363 . S
C1610 C1611 1.370 . S
C1610 C1614 1.524 . S
C1611 C1603 1.503 . S
C1611 C1610 1.370 . S
C1611 C1612 1.403 . S
C1612 C1611 1.403 . S
C1612 C1613 1.404 . S
C1612 C1615 1.539 . S
C1613 C1609 1.408 . S
C1613 C1612 1.404 . S
C1613 H1625 0.930 . S
C1614 C1610 1.524 . S
C1614 H1626 0.956 . S
C1614 H1627 0.961 . S
C1614 H1628 0.961 . S
C1615 C1612 1.539 . S
C1615 H1629 0.958 . S
C1615 H1630 0.961 . S
C1615 H1631 0.960 . S
H1616 C1600 0.931 . S
H1617 C1605 0.929 . S
H1618 C1606 0.960 . S
H1619 C1606 0.962 . S
H1620 C1606 0.960 . S
H1621 C1607 0.961 . S
H1622 C1607 0.961 . S
H1623 C1607 0.961 . S
H1624 C1608 0.931 . S
H1625 C1613 0.930 . S
H1626 C1614 0.956 . S
H1627 C1614 0.961 . S
H1628 C1614 0.961 . S
H1629 C1615 0.958 . S
H1630 C1615 0.961 . S
H1631 C1615 0.960 . S
C1632 C1633 1.391 . S
C1632 C1634 1.394 . S
C1632 H1648 0.931 . S
C1633 C1632 1.391 . S
C1633 C1637 1.376 . S
C1634 C1632 1.394 . S
C1634 C1635 1.369 . S
C1634 C1638 1.531 . S
C1635 C1634 1.369 . S
C1635 C1636 1.410 . S
C1635 C1643 1.503 . S
C1636 C1635 1.410 . S
C1636 C1637 1.392 . S
C1636 C1639 1.511 . S
C1637 C1633 1.376 . S
C1637 C1636 1.392 . S
C1637 H1649 0.929 . S
C1638 C1634 1.531 . S
C1638 H1650 0.960 . S
C1638 H1651 0.962 . S
C1638 H1652 0.960 . S
C1639 C1636 1.511 . S
C1639 H1653 0.961 . S
C1639 H1654 0.961 . S
C1639 H1655 0.961 . S
C1640 C1641 1.370 . S
C1640 C1642 1.363 . S
C1640 H1656 0.931 . S
C1641 C1640 1.370 . S
C1641 C1645 1.408 . S
C1642 C1640 1.363 . S
C1642 C1643 1.370 . S
C1642 C1646 1.524 . S
C1643 C1635 1.503 . S
C1643 C1642 1.370 . S
C1643 C1644 1.403 . S
C1644 C1643 1.403 . S
C1644 C1645 1.404 . S
C1644 C1647 1.539 . S
C1645 C1641 1.408 . S
C1645 C1644 1.404 . S
C1645 H1657 0.930 . S
C1646 C1642 1.524 . S
C1646 H1658 0.956 . S
C1646 H1659 0.961 . S
C1646 H1660 0.961 . S
C1647 C1644 1.539 . S
C1647 H1661 0.958 . S
C1647 H1662 0.961 . S
C1647 H1663 0.960 . S
H1648 C1632 0.931 . S
H1649 C1637 0.929 . S
H1650 C1638 0.960 . S
H1651 C1638 0.962 . S
H1652 C1638 0.960 . S
H1653 C1639 0.961 . S
H1654 C1639 0.961 . S
H1655 C1639 0.961 . S
H1656 C1640 0.931 . S
H1657 C1645 0.930 . S
H1658 C1646 0.956 . S
H1659 C1646 0.961 . S
H1660 C1646 0.961 . S
H1661 C1647 0.958 . S
H1662 C1647 0.961 . S
H1663 C1647 0.960 . S
C1664 C1665 1.391 . S
C1664 C1666 1.394 . S
C1664 H1680 0.931 . S
C1665 C1664 1.391 . S
C1665 C1669 1.376 . S
C1666 C1664 1.394 . S
C1666 C1667 1.369 . S
C1666 C1670 1.531 . S
C1667 C1666 1.369 . S
C1667 C1668 1.410 . S
C1667 C1675 1.503 1_554 S
C1668 C1667 1.410 . S
C1668 C1669 1.392 . S
C1668 C1671 1.511 . S
C1669 C1665 1.376 . S
C1669 C1668 1.392 . S
C1669 H1681 0.929 . S
C1670 C1666 1.531 . S
C1670 H1682 0.960 1_554 S
C1670 H1683 0.962 . S
C1670 H1684 0.960 . S
C1671 C1668 1.511 . S
C1671 H1685 0.961 . S
C1671 H1686 0.961 1_554 S
C1671 H1687 0.961 . S
C1672 C1673 1.370 . S
C1672 C1674 1.363 . S
C1672 H1688 0.931 . S
C1673 C1672 1.370 . S
C1673 C1677 1.408 . S
C1674 C1672 1.363 . S
C1674 C1675 1.370 . S
C1674 C1678 1.524 . S
C1675 C1667 1.503 1_556 S
C1675 C1674 1.370 . S
C1675 C1676 1.403 . S
C1676 C1675 1.403 . S
C1676 C1677 1.404 . S
C1676 C1679 1.539 . S
C1677 C1673 1.408 . S
C1677 C1676 1.404 . S
C1677 H1689 0.930 . S
C1678 C1674 1.524 . S
C1678 H1690 0.956 . S
C1678 H1691 0.961 1_556 S
C1678 H1692 0.961 . S
C1679 C1676 1.539 . S
C1679 H1693 0.958 . S
C1679 H1694 0.961 . S
C1679 H1695 0.971 . S
H1680 C1664 0.931 . S
H1681 C1669 0.929 . S
H1682 C1670 0.960 1_556 S
H1683 C1670 0.962 . S
H1684 C1670 0.960 . S
H1685 C1671 0.961 . S
H1686 C1671 0.961 1_556 S
H1687 C1671 0.961 . S
H1688 C1672 0.931 . S
H1689 C1677 0.930 . S
H1690 C1678 0.956 . S
H1691 C1678 0.961 1_554 S
H1692 C1678 0.961 . S
H1693 C1679 0.958 . S
H1694 C1679 0.961 . S
H1695 C1679 0.971 . S
C1696 C1697 1.391 . S
C1696 C1698 1.394 . S
C1696 H1712 0.931 . S
C1697 C1696 1.391 . S
C1697 C1701 1.376 . S
C1698 C1696 1.394 . S
C1698 C1699 1.369 . S
C1698 C1702 1.531 . S
C1699 C1698 1.369 . S
C1699 C1700 1.410 . S
C1699 C1707 1.503 1_556 S
C1700 C1699 1.410 . S
C1700 C1701 1.392 . S
C1700 C1703 1.511 . S
C1701 C1697 1.376 . S
C1701 C1700 1.392 . S
C1701 H1713 0.929 . S
C1702 C1698 1.531 . S
C1702 H1714 0.960 1_556 S
C1702 H1715 0.962 . S
C1702 H1716 0.960 . S
C1703 C1700 1.511 . S
C1703 H1717 0.961 . S
C1703 H1718 0.961 1_556 S
C1703 H1719 0.961 . S
C1704 C1705 1.370 . S
C1704 C1706 1.363 . S
C1704 H1720 0.931 . S
C1705 C1704 1.370 . S
C1705 C1709 1.408 . S
C1706 C1704 1.363 . S
C1706 C1707 1.370 . S
C1706 C1710 1.524 . S
C1707 C1699 1.503 1_554 S
C1707 C1706 1.370 . S
C1707 C1708 1.403 . S
C1708 C1707 1.403 . S
C1708 C1709 1.404 . S
C1708 C1711 1.539 . S
C1709 C1705 1.408 . S
C1709 C1708 1.404 . S
C1709 H1721 0.930 . S
C1710 C1706 1.524 . S
C1710 H1722 0.956 . S
C1710 H1723 0.961 1_554 S
C1710 H1724 0.961 . S
C1711 C1708 1.539 . S
C1711 H1725 0.958 . S
C1711 H1726 0.961 . S
C1711 H1727 0.971 . S
H1712 C1696 0.931 . S
H1713 C1701 0.929 . S
H1714 C1702 0.960 1_554 S
H1715 C1702 0.962 . S
H1716 C1702 0.960 . S
H1717 C1703 0.961 . S
H1718 C1703 0.961 1_554 S
H1719 C1703 0.961 . S
H1720 C1704 0.931 . S
H1721 C1709 0.930 . S
H1722 C1710 0.956 . S
H1723 C1710 0.961 1_556 S
H1724 C1710 0.961 . S
H1725 C1711 0.958 . S
H1726 C1711 0.961 . S
H1727 C1711 0.971 . S
C1728 C1729 1.391 . S
C1728 C1730 1.394 . S
C1728 H1744 0.931 . S
C1729 C1728 1.391 . S
C1729 C1733 1.376 . S
C1730 C1728 1.394 . S
C1730 C1731 1.369 . S
C1730 C1734 1.531 . S
C1731 C1730 1.369 . S
C1731 C1732 1.410 . S
C1731 C1739 1.503 1_556 S
C1732 C1731 1.410 . S
C1732 C1733 1.392 . S
C1732 C1735 1.511 . S
C1733 C1729 1.376 . S
C1733 C1732 1.392 . S
C1733 H1745 0.929 . S
C1734 C1730 1.531 . S
C1734 H1746 0.960 1_556 S
C1734 H1747 0.962 . S
C1734 H1748 0.960 . S
C1735 C1732 1.511 . S
C1735 H1749 0.961 . S
C1735 H1750 0.961 1_556 S
C1735 H1751 0.961 . S
C1736 C1737 1.370 . S
C1736 C1738 1.363 . S
C1736 H1752 0.931 . S
C1737 C1736 1.370 . S
C1737 C1741 1.408 . S
C1738 C1736 1.363 . S
C1738 C1739 1.370 . S
C1738 C1742 1.524 . S
C1739 C1731 1.503 1_554 S
C1739 C1738 1.370 . S
C1739 C1740 1.403 . S
C1740 C1739 1.403 . S
C1740 C1741 1.404 . S
C1740 C1743 1.539 . S
C1741 C1737 1.408 . S
C1741 C1740 1.404 . S
C1741 H1753 0.930 . S
C1742 C1738 1.524 . S
C1742 H1754 0.956 . S
C1742 H1755 0.961 1_554 S
C1742 H1756 0.961 . S
C1743 C1740 1.539 . S
C1743 H1757 0.958 . S
C1743 H1758 0.961 . S
C1743 H1759 0.971 . S
H1744 C1728 0.931 . S
H1745 C1733 0.929 . S
H1746 C1734 0.960 1_554 S
H1747 C1734 0.962 . S
H1748 C1734 0.960 . S
H1749 C1735 0.961 . S
H1750 C1735 0.961 1_554 S
H1751 C1735 0.961 . S
H1752 C1736 0.931 . S
H1753 C1741 0.930 . S
H1754 C1742 0.956 . S
H1755 C1742 0.961 1_556 S
H1756 C1742 0.961 . S
H1757 C1743 0.958 . S
H1758 C1743 0.961 . S
H1759 C1743 0.971 . S
C1760 C1761 1.391 . S
C1760 C1762 1.394 . S
C1760 H1776 0.931 . S
C1761 C1760 1.391 . S
C1761 C1765 1.376 . S
C1762 C1760 1.394 . S
C1762 C1763 1.369 . S
C1762 C1766 1.531 . S
C1763 C1762 1.369 . S
C1763 C1764 1.410 . S
C1763 C1771 1.503 1_556 S
C1764 C1763 1.410 . S
C1764 C1765 1.392 . S
C1764 C1767 1.511 . S
C1765 C1761 1.376 . S
C1765 C1764 1.392 . S
C1765 H1777 0.929 . S
C1766 C1762 1.531 . S
C1766 H1778 0.960 1_556 S
C1766 H1779 0.962 . S
C1766 H1780 0.960 . S
C1767 C1764 1.511 . S
C1767 H1781 0.961 . S
C1767 H1782 0.961 1_556 S
C1767 H1783 0.961 . S
C1768 C1769 1.370 . S
C1768 C1770 1.363 . S
C1768 H1784 0.931 . S
C1769 C1768 1.370 . S
C1769 C1773 1.408 . S
C1770 C1768 1.363 . S
C1770 C1771 1.370 . S
C1770 C1774 1.524 . S
C1771 C1763 1.503 1_554 S
C1771 C1770 1.370 . S
C1771 C1772 1.403 . S
C1772 C1771 1.403 . S
C1772 C1773 1.404 . S
C1772 C1775 1.539 . S
C1773 C1769 1.408 . S
C1773 C1772 1.404 . S
C1773 H1785 0.930 . S
C1774 C1770 1.524 . S
C1774 H1786 0.956 . S
C1774 H1787 0.961 1_554 S
C1774 H1788 0.961 . S
C1775 C1772 1.539 . S
C1775 H1789 0.958 . S
C1775 H1790 0.961 . S
C1775 H1791 0.971 . S
H1776 C1760 0.931 . S
H1777 C1765 0.929 . S
H1778 C1766 0.960 1_554 S
H1779 C1766 0.962 . S
H1780 C1766 0.960 . S
H1781 C1767 0.961 . S
H1782 C1767 0.961 1_554 S
H1783 C1767 0.961 . S
H1784 C1768 0.931 . S
H1785 C1773 0.930 . S
H1786 C1774 0.956 . S
H1787 C1774 0.961 1_556 S
H1788 C1774 0.961 . S
H1789 C1775 0.958 . S
H1790 C1775 0.961 . S
H1791 C1775 0.971 . S
C1792 C1793 1.391 . S
C1792 C1794 1.394 . S
C1792 H1808 0.931 . S
C1793 C1792 1.391 . S
C1793 C1797 1.376 . S
C1794 C1792 1.394 . S
C1794 C1795 1.369 . S
C1794 C1798 1.531 . S
C1795 C1794 1.369 . S
C1795 C1796 1.410 . S
C1795 C1803 1.503 . S
C1796 C1795 1.410 . S
C1796 C1797 1.392 . S
C1796 C1799 1.511 . S
C1797 C1793 1.376 . S
C1797 C1796 1.392 . S
C1797 H1809 0.929 . S
C1798 C1794 1.531 . S
C1798 H1810 0.960 . S
C1798 H1811 0.962 . S
C1798 H1812 0.960 . S
C1799 C1796 1.511 . S
C1799 H1813 0.961 . S
C1799 H1814 0.961 . S
C1799 H1815 0.961 . S
C1800 C1801 1.370 . S
C1800 C1802 1.363 . S
C1800 H1816 0.931 . S
C1801 C1800 1.370 . S
C1801 C1805 1.408 . S
C1802 C1800 1.363 . S
C1802 C1803 1.370 . S
C1802 C1806 1.524 . S
C1803 C1795 1.503 . S
C1803 C1802 1.370 . S
C1803 C1804 1.403 . S
C1804 C1803 1.403 . S
C1804 C1805 1.404 . S
C1804 C1807 1.539 . S
C1805 C1801 1.408 . S
C1805 C1804 1.404 . S
C1805 H1817 0.930 . S
C1806 C1802 1.524 . S
C1806 H1818 0.956 . S
C1806 H1819 0.961 . S
C1806 H1820 0.961 . S
C1807 C1804 1.539 . S
C1807 H1821 0.958 . S
C1807 H1822 0.961 . S
C1807 H1823 0.960 . S
H1808 C1792 0.931 . S
H1809 C1797 0.929 . S
H1810 C1798 0.960 . S
H1811 C1798 0.962 . S
H1812 C1798 0.960 . S
H1813 C1799 0.961 . S
H1814 C1799 0.961 . S
H1815 C1799 0.961 . S
H1816 C1800 0.931 . S
H1817 C1805 0.930 . S
H1818 C1806 0.956 . S
H1819 C1806 0.961 . S
H1820 C1806 0.961 . S
H1821 C1807 0.958 . S
H1822 C1807 0.961 . S
H1823 C1807 0.960 . S
C1824 C1825 1.391 . S
C1824 C1826 1.394 . S
C1824 H1840 0.931 . S
C1825 C1824 1.391 . S
C1825 C1829 1.376 . S
C1826 C1824 1.394 . S
C1826 C1827 1.369 . S
C1826 C1830 1.531 . S
C1827 C1826 1.369 . S
C1827 C1828 1.410 . S
C1827 C1835 1.503 . S
C1828 C1827 1.410 . S
C1828 C1829 1.392 . S
C1828 C1831 1.511 . S
C1829 C1825 1.376 . S
C1829 C1828 1.392 . S
C1829 H1841 0.929 . S
C1830 C1826 1.531 . S
C1830 H1842 0.960 . S
C1830 H1843 0.962 . S
C1830 H1844 0.960 . S
C1831 C1828 1.511 . S
C1831 H1845 0.961 . S
C1831 H1846 0.961 . S
C1831 H1847 0.961 . S
C1832 C1833 1.370 . S
C1832 C1834 1.363 . S
C1832 H1848 0.931 . S
C1833 C1832 1.370 . S
C1833 C1837 1.408 . S
C1834 C1832 1.363 . S
C1834 C1835 1.370 . S
C1834 C1838 1.524 . S
C1835 C1827 1.503 . S
C1835 C1834 1.370 . S
C1835 C1836 1.403 . S
C1836 C1835 1.403 . S
C1836 C1837 1.404 . S
C1836 C1839 1.539 . S
C1837 C1833 1.408 . S
C1837 C1836 1.404 . S
C1837 H1849 0.930 . S
C1838 C1834 1.524 . S
C1838 H1850 0.956 . S
C1838 H1851 0.961 . S
C1838 H1852 0.961 . S
C1839 C1836 1.539 . S
C1839 H1853 0.958 . S
C1839 H1854 0.961 . S
C1839 H1855 0.960 . S
H1840 C1824 0.931 . S
H1841 C1829 0.929 . S
H1842 C1830 0.960 . S
H1843 C1830 0.962 . S
H1844 C1830 0.960 . S
H1845 C1831 0.961 . S
H1846 C1831 0.961 . S
H1847 C1831 0.961 . S
H1848 C1832 0.931 . S
H1849 C1837 0.930 . S
H1850 C1838 0.956 . S
H1851 C1838 0.961 . S
H1852 C1838 0.961 . S
H1853 C1839 0.958 . S
H1854 C1839 0.961 . S
H1855 C1839 0.960 . S
C1856 C1857 1.391 . S
C1856 C1858 1.394 . S
C1856 H1872 0.931 . S
C1857 C1856 1.391 . S
C1857 C1861 1.376 . S
C1858 C1856 1.394 . S
C1858 C1859 1.369 . S
C1858 C1862 1.531 . S
C1859 C1858 1.369 . S
C1859 C1860 1.410 . S
C1859 C1867 1.503 . S
C1860 C1859 1.410 . S
C1860 C1861 1.392 . S
C1860 C1863 1.511 . S
C1861 C1857 1.376 . S
C1861 C1860 1.392 . S
C1861 H1873 0.929 . S
C1862 C1858 1.531 . S
C1862 H1874 0.960 . S
C1862 H1875 0.962 . S
C1862 H1876 0.960 . S
C1863 C1860 1.511 . S
C1863 H1877 0.961 . S
C1863 H1878 0.961 . S
C1863 H1879 0.961 . S
C1864 C1865 1.370 . S
C1864 C1866 1.363 . S
C1864 H1880 0.931 . S
C1865 C1864 1.370 . S
C1865 C1869 1.408 . S
C1866 C1864 1.363 . S
C1866 C1867 1.370 . S
C1866 C1870 1.524 . S
C1867 C1859 1.503 . S
C1867 C1866 1.370 . S
C1867 C1868 1.403 . S
C1868 C1867 1.403 . S
C1868 C1869 1.404 . S
C1868 C1871 1.539 . S
C1869 C1865 1.408 . S
C1869 C1868 1.404 . S
C1869 H1881 0.930 . S
C1870 C1866 1.524 . S
C1870 H1882 0.956 . S
C1870 H1883 0.961 . S
C1870 H1884 0.961 . S
C1871 C1868 1.539 . S
C1871 H1885 0.958 . S
C1871 H1886 0.961 . S
C1871 H1887 0.960 . S
H1872 C1856 0.931 . S
H1873 C1861 0.929 . S
H1874 C1862 0.960 . S
H1875 C1862 0.962 . S
H1876 C1862 0.960 . S
H1877 C1863 0.961 . S
H1878 C1863 0.961 . S
H1879 C1863 0.961 . S
H1880 C1864 0.931 . S
H1881 C1869 0.930 . S
H1882 C1870 0.956 . S
H1883 C1870 0.961 . S
H1884 C1870 0.961 . S
H1885 C1871 0.958 . S
H1886 C1871 0.961 . S
H1887 C1871 0.960 . S
C1888 C1889 1.391 . S
C1888 C1890 1.394 . S
C1888 H1904 0.931 . S
C1889 C1888 1.391 . S
C1889 C1893 1.376 . S
C1890 C1888 1.394 . S
C1890 C1891 1.369 . S
C1890 C1894 1.531 . S
C1891 C1890 1.369 . S
C1891 C1892 1.410 . S
C1891 C1899 1.503 . S
C1892 C1891 1.410 . S
C1892 C1893 1.392 . S
C1892 C1895 1.511 . S
C1893 C1889 1.376 . S
C1893 C1892 1.392 . S
C1893 H1905 0.929 . S
C1894 C1890 1.531 . S
C1894 H1906 0.960 . S
C1894 H1907 0.962 . S
C1894 H1908 0.960 . S
C1895 C1892 1.511 . S
C1895 H1909 0.961 . S
C1895 H1910 0.961 . S
C1895 H1911 0.961 . S
C1896 C1897 1.370 . S
C1896 C1898 1.363 . S
C1896 H1912 0.931 . S
C1897 C1896 1.370 . S
C1897 C1901 1.408 . S
C1898 C1896 1.363 . S
C1898 C1899 1.370 . S
C1898 C1902 1.524 . S
C1899 C1891 1.503 . S
C1899 C1898 1.370 . S
C1899 C1900 1.403 . S
C1900 C1899 1.403 . S
C1900 C1901 1.404 . S
C1900 C1903 1.539 . S
C1901 C1897 1.408 . S
C1901 C1900 1.404 . S
C1901 H1913 0.930 . S
C1902 C1898 1.524 . S
C1902 H1914 0.956 . S
C1902 H1915 0.961 . S
C1902 H1916 0.961 . S
C1903 C1900 1.539 . S
C1903 H1917 0.958 . S
C1903 H1918 0.961 . S
C1903 H1919 0.960 . S
H1904 C1888 0.931 . S
H1905 C1893 0.929 . S
H1906 C1894 0.960 . S
H1907 C1894 0.962 . S
H1908 C1894 0.960 . S
H1909 C1895 0.961 . S
H1910 C1895 0.961 . S
H1911 C1895 0.961 . S
H1912 C1896 0.931 . S
H1913 C1901 0.930 . S
H1914 C1902 0.956 . S
H1915 C1902 0.961 . S
H1916 C1902 0.961 . S
H1917 C1903 0.958 . S
H1918 C1903 0.961 . S
H1919 C1903 0.960 . S
C1920 C1921 1.391 . S
C1920 C1922 1.394 . S
C1920 H1936 0.931 . S
C1921 C1920 1.391 . S
C1921 C1925 1.376 . S
C1922 C1920 1.394 . S
C1922 C1923 1.369 . S
C1922 C1926 1.531 . S
C1923 C1922 1.369 . S
C1923 C1924 1.410 . S
C1923 C1931 1.503 . S
C1924 C1923 1.410 . S
C1924 C1925 1.392 . S
C1924 C1927 1.511 . S
C1925 C1921 1.376 . S
C1925 C1924 1.392 . S
C1925 H1937 0.929 . S
C1926 C1922 1.531 . S
C1926 H1938 0.960 . S
C1926 H1939 0.962 . S
C1926 H1940 0.960 . S
C1927 C1924 1.511 . S
C1927 H1941 0.961 . S
C1927 H1942 0.961 . S
C1927 H1943 0.961 . S
C1928 C1929 1.370 . S
C1928 C1930 1.363 . S
C1928 H1944 0.931 . S
C1929 C1928 1.370 . S
C1929 C1933 1.408 . S
C1930 C1928 1.363 . S
C1930 C1931 1.370 . S
C1930 C1934 1.524 . S
C1931 C1923 1.503 . S
C1931 C1930 1.370 . S
C1931 C1932 1.403 . S
C1932 C1931 1.403 . S
C1932 C1933 1.404 . S
C1932 C1935 1.539 . S
C1933 C1929 1.408 . S
C1933 C1932 1.404 . S
C1933 H1945 0.930 . S
C1934 C1930 1.524 . S
C1934 H1946 0.956 . S
C1934 H1947 0.961 . S
C1934 H1948 0.961 . S
C1935 C1932 1.539 . S
C1935 H1949 0.958 . S
C1935 H1950 0.961 . S
C1935 H1951 0.960 . S
H1936 C1920 0.931 . S
H1937 C1925 0.929 . S
H1938 C1926 0.960 . S
H1939 C1926 0.962 . S
H1940 C1926 0.960 . S
H1941 C1927 0.961 . S
H1942 C1927 0.961 . S
H1943 C1927 0.961 . S
H1944 C1928 0.931 . S
H1945 C1933 0.930 . S
H1946 C1934 0.956 . S
H1947 C1934 0.961 . S
H1948 C1934 0.961 . S
H1949 C1935 0.958 . S
H1950 C1935 0.961 . S
H1951 C1935 0.960 . S
C1952 C1953 1.391 . S
C1952 C1954 1.394 . S
C1952 H1968 0.931 . S
C1953 C1952 1.391 . S
C1953 C1957 1.376 . S
C1954 C1952 1.394 . S
C1954 C1955 1.369 . S
C1954 C1958 1.531 . S
C1955 C1954 1.369 . S
C1955 C1956 1.410 . S
C1955 C1963 1.503 . S
C1956 C1955 1.410 . S
C1956 C1957 1.392 . S
C1956 C1959 1.511 . S
C1957 C1953 1.376 . S
C1957 C1956 1.392 . S
C1957 H1969 0.929 . S
C1958 C1954 1.531 . S
C1958 H1970 0.960 . S
C1958 H1971 0.962 . S
C1958 H1972 0.960 . S
C1959 C1956 1.511 . S
C1959 H1973 0.961 . S
C1959 H1974 0.961 . S
C1959 H1975 0.961 . S
C1960 C1961 1.370 . S
C1960 C1962 1.363 . S
C1960 H1976 0.931 . S
C1961 C1960 1.370 . S
C1961 C1965 1.408 . S
C1962 C1960 1.363 . S
C1962 C1963 1.370 . S
C1962 C1966 1.524 . S
C1963 C1955 1.503 . S
C1963 C1962 1.370 . S
C1963 C1964 1.403 . S
C1964 C1963 1.403 . S
C1964 C1965 1.404 . S
C1964 C1967 1.539 . S
C1965 C1961 1.408 . S
C1965 C1964 1.404 . S
C1965 H1977 0.930 . S
C1966 C1962 1.524 . S
C1966 H1978 0.956 . S
C1966 H1979 0.961 . S
C1966 H1980 0.961 . S
C1967 C1964 1.539 . S
C1967 H1981 0.958 . S
C1967 H1982 0.961 . S
C1967 H1983 0.960 . S
H1968 C1952 0.931 . S
H1969 C1957 0.929 . S
H1970 C1958 0.960 . S
H1971 C1958 0.962 . S
H1972 C1958 0.960 . S
H1973 C1959 0.961 . S
H1974 C1959 0.961 . S
H1975 C1959 0.961 . S
H1976 C1960 0.931 . S
H1977 C1965 0.930 . S
H1978 C1966 0.956 . S
H1979 C1966 0.961 . S
H1980 C1966 0.961 . S
H1981 C1967 0.958 . S
H1982 C1967 0.961 . S
H1983 C1967 0.960 . S
C1984 C1985 1.391 . S
C1984 C1986 1.394 . S
C1984 H2000 0.931 . S
C1985 C1984 1.391 . S
C1985 C1989 1.376 . S
C1986 C1984 1.394 . S
C1986 C1987 1.369 . S
C1986 C1990 1.531 . S
C1987 C1986 1.369 . S
C1987 C1988 1.410 . S
C1987 C1995 1.503 . S
C1988 C1987 1.410 . S
C1988 C1989 1.392 . S
C1988 C1991 1.511 . S
C1989 C1985 1.376 . S
C1989 C1988 1.392 . S
C1989 H2001 0.929 . S
C1990 C1986 1.531 . S
C1990 H2002 0.960 . S
C1990 H2003 0.962 . S
C1990 H2004 0.960 . S
C1991 C1988 1.511 . S
C1991 H2005 0.961 . S
C1991 H2006 0.961 . S
C1991 H2007 0.961 . S
C1992 C1993 1.370 . S
C1992 C1994 1.363 . S
C1992 H2008 0.931 . S
C1993 C1992 1.370 . S
C1993 C1997 1.408 . S
C1994 C1992 1.363 . S
C1994 C1995 1.370 . S
C1994 C1998 1.524 . S
C1995 C1987 1.503 . S
C1995 C1994 1.370 . S
C1995 C1996 1.403 . S
C1996 C1995 1.403 . S
C1996 C1997 1.404 . S
C1996 C1999 1.539 . S
C1997 C1993 1.408 . S
C1997 C1996 1.404 . S
C1997 H2009 0.930 . S
C1998 C1994 1.524 . S
C1998 H2010 0.956 . S
C1998 H2011 0.961 . S
C1998 H2012 0.961 . S
C1999 C1996 1.539 . S
C1999 H2013 0.958 . S
C1999 H2014 0.961 . S
C1999 H2015 0.960 . S
H2000 C1984 0.931 . S
H2001 C1989 0.929 . S
H2002 C1990 0.960 . S
H2003 C1990 0.962 . S
H2004 C1990 0.960 . S
H2005 C1991 0.961 . S
H2006 C1991 0.961 . S
H2007 C1991 0.961 . S
H2008 C1992 0.931 . S
H2009 C1997 0.930 . S
H2010 C1998 0.956 . S
H2011 C1998 0.961 . S
H2012 C1998 0.961 . S
H2013 C1999 0.958 . S
H2014 C1999 0.961 . S
H2015 C1999 0.960 . S
C2016 C2017 1.391 . S
C2016 C2018 1.394 . S
C2016 H2032 0.931 . S
C2017 C2016 1.391 . S
C2017 C2021 1.376 . S
C2018 C2016 1.394 . S
C2018 C2019 1.369 . S
C2018 C2022 1.531 . S
C2019 C2018 1.369 . S
C2019 C2020 1.410 . S
C2019 C2027 1.503 . S
C2020 C2019 1.410 . S
C2020 C2021 1.392 . S
C2020 C2023 1.511 . S
C2021 C2017 1.376 . S
C2021 C2020 1.392 . S
C2021 H2033 0.929 . S
C2022 C2018 1.531 . S
C2022 H2034 0.960 . S
C2022 H2035 0.962 . S
C2022 H2036 0.960 . S
C2023 C2020 1.511 . S
C2023 H2037 0.961 . S
C2023 H2038 0.961 . S
C2023 H2039 0.961 . S
C2024 C2025 1.370 . S
C2024 C2026 1.363 . S
C2024 H2040 0.931 . S
C2025 C2024 1.370 . S
C2025 C2029 1.408 . S
C2026 C2024 1.363 . S
C2026 C2027 1.370 . S
C2026 C2030 1.524 . S
C2027 C2019 1.503 . S
C2027 C2026 1.370 . S
C2027 C2028 1.403 . S
C2028 C2027 1.403 . S
C2028 C2029 1.404 . S
C2028 C2031 1.539 . S
C2029 C2025 1.408 . S
C2029 C2028 1.404 . S
C2029 H2041 0.930 . S
C2030 C2026 1.524 . S
C2030 H2042 0.956 . S
C2030 H2043 0.961 . S
C2030 H2044 0.961 . S
C2031 C2028 1.539 . S
C2031 H2045 0.958 . S
C2031 H2046 0.961 . S
C2031 H2047 0.960 . S
H2032 C2016 0.931 . S
H2033 C2021 0.929 . S
H2034 C2022 0.960 . S
H2035 C2022 0.962 . S
H2036 C2022 0.960 . S
H2037 C2023 0.961 . S
H2038 C2023 0.961 . S
H2039 C2023 0.961 . S
H2040 C2024 0.931 . S
H2041 C2029 0.930 . S
H2042 C2030 0.956 . S
H2043 C2030 0.961 . S
H2044 C2030 0.961 . S
H2045 C2031 0.958 . S
H2046 C2031 0.961 . S
H2047 C2031 0.960 . S
C2048 C2049 1.391 . S
C2048 C2050 1.394 . S
C2048 H2064 0.931 . S
C2049 C2048 1.391 . S
C2049 C2053 1.376 . S
C2050 C2048 1.394 . S
C2050 C2051 1.369 . S
C2050 C2054 1.531 . S
C2051 C2050 1.369 . S
C2051 C2052 1.410 . S
C2051 C2059 1.503 1_556 S
C2052 C2051 1.410 . S
C2052 C2053 1.392 . S
C2052 C2055 1.511 . S
C2053 C2049 1.376 . S
C2053 C2052 1.392 . S
C2053 H2065 0.929 . S
C2054 C2050 1.531 . S
C2054 H2066 0.960 1_556 S
C2054 H2067 0.962 . S
C2054 H2068 0.960 . S
C2055 C2052 1.511 . S
C2055 H2069 0.961 . S
C2055 H2070 0.961 1_556 S
C2055 H2071 0.961 . S
C2056 C2057 1.370 . S
C2056 C2058 1.363 . S
C2056 H2072 0.931 . S
C2057 C2056 1.370 . S
C2057 C2061 1.408 . S
C2058 C2056 1.363 . S
C2058 C2059 1.370 . S
C2058 C2062 1.524 . S
C2059 C2051 1.503 1_554 S
C2059 C2058 1.370 . S
C2059 C2060 1.403 . S
C2060 C2059 1.403 . S
C2060 C2061 1.404 . S
C2060 C2063 1.539 . S
C2061 C2057 1.408 . S
C2061 C2060 1.404 . S
C2061 H2073 0.930 . S
C2062 C2058 1.524 . S
C2062 H2074 0.956 . S
C2062 H2075 0.961 1_554 S
C2062 H2076 0.961 . S
C2063 C2060 1.539 . S
C2063 H2077 0.958 . S
C2063 H2078 0.961 . S
C2063 H2079 0.971 . S
H2064 C2048 0.931 . S
H2065 C2053 0.929 . S
H2066 C2054 0.960 1_554 S
H2067 C2054 0.962 . S
H2068 C2054 0.960 . S
H2069 C2055 0.961 . S
H2070 C2055 0.961 1_554 S
H2071 C2055 0.961 . S
H2072 C2056 0.931 . S
H2073 C2061 0.930 . S
H2074 C2062 0.956 . S
H2075 C2062 0.961 1_556 S
H2076 C2062 0.961 . S
H2077 C2063 0.958 . S
H2078 C2063 0.961 . S
H2079 C2063 0.971 . S
C2080 C2081 1.391 . S
C2080 C2082 1.394 . S
C2080 H2096 0.931 . S
C2081 C2080 1.391 . S
C2081 C2085 1.376 . S
C2082 C2080 1.394 . S
C2082 C2083 1.369 . S
C2082 C2086 1.531 . S
C2083 C2082 1.369 . S
C2083 C2084 1.410 . S
C2083 C2091 1.503 1_554 S
C2084 C2083 1.410 . S
C2084 C2085 1.392 . S
C2084 C2087 1.511 . S
C2085 C2081 1.376 . S
C2085 C2084 1.392 . S
C2085 H2097 0.929 . S
C2086 C2082 1.531 . S
C2086 H2098 0.960 1_554 S
C2086 H2099 0.962 . S
C2086 H2100 0.960 . S
C2087 C2084 1.511 . S
C2087 H2101 0.961 . S
C2087 H2102 0.961 1_554 S
C2087 H2103 0.961 . S
C2088 C2089 1.370 . S
C2088 C2090 1.363 . S
C2088 H2104 0.931 . S
C2089 C2088 1.370 . S
C2089 C2093 1.408 . S
C2090 C2088 1.363 . S
C2090 C2091 1.370 . S
C2090 C2094 1.524 . S
C2091 C2083 1.503 1_556 S
C2091 C2090 1.370 . S
C2091 C2092 1.403 . S
C2092 C2091 1.403 . S
C2092 C2093 1.404 . S
C2092 C2095 1.539 . S
C2093 C2089 1.408 . S
C2093 C2092 1.404 . S
C2093 H2105 0.930 . S
C2094 C2090 1.524 . S
C2094 H2106 0.956 . S
C2094 H2107 0.961 1_556 S
C2094 H2108 0.961 . S
C2095 C2092 1.539 . S
C2095 H2109 0.958 . S
C2095 H2110 0.961 . S
C2095 H2111 0.971 . S
H2096 C2080 0.931 . S
H2097 C2085 0.929 . S
H2098 C2086 0.960 1_556 S
H2099 C2086 0.962 . S
H2100 C2086 0.960 . S
H2101 C2087 0.961 . S
H2102 C2087 0.961 1_556 S
H2103 C2087 0.961 . S
H2104 C2088 0.931 . S
H2105 C2093 0.930 . S
H2106 C2094 0.956 . S
H2107 C2094 0.961 1_554 S
H2108 C2094 0.961 . S
H2109 C2095 0.958 . S
H2110 C2095 0.961 . S
H2111 C2095 0.971 . S
C2112 C2113 1.391 . S
C2112 C2114 1.394 . S
C2112 H2128 0.931 . S
C2113 C2112 1.391 . S
C2113 C2117 1.376 . S
C2114 C2112 1.394 . S
C2114 C2115 1.369 . S
C2114 C2118 1.531 . S
C2115 C2114 1.369 . S
C2115 C2116 1.410 . S
C2115 C2123 1.503 1_554 S
C2116 C2115 1.410 . S
C2116 C2117 1.392 . S
C2116 C2119 1.511 . S
C2117 C2113 1.376 . S
C2117 C2116 1.392 . S
C2117 H2129 0.929 . S
C2118 C2114 1.531 . S
C2118 H2130 0.960 1_554 S
C2118 H2131 0.962 . S
C2118 H2132 0.960 . S
C2119 C2116 1.511 . S
C2119 H2133 0.961 . S
C2119 H2134 0.961 1_554 S
C2119 H2135 0.961 . S
C2120 C2121 1.370 . S
C2120 C2122 1.363 . S
C2120 H2136 0.931 . S
C2121 C2120 1.370 . S
C2121 C2125 1.408 . S
C2122 C2120 1.363 . S
C2122 C2123 1.370 . S
C2122 C2126 1.524 . S
C2123 C2115 1.503 1_556 S
C2123 C2122 1.370 . S
C2123 C2124 1.403 . S
C2124 C2123 1.403 . S
C2124 C2125 1.404 . S
C2124 C2127 1.539 . S
C2125 C2121 1.408 . S
C2125 C2124 1.404 . S
C2125 H2137 0.930 . S
C2126 C2122 1.524 . S
C2126 H2138 0.956 . S
C2126 H2139 0.961 1_556 S
C2126 H2140 0.961 . S
C2127 C2124 1.539 . S
C2127 H2141 0.958 . S
C2127 H2142 0.961 . S
C2127 H2143 0.971 . S
H2128 C2112 0.931 . S
H2129 C2117 0.929 . S
H2130 C2118 0.960 1_556 S
H2131 C2118 0.962 . S
H2132 C2118 0.960 . S
H2133 C2119 0.961 . S
H2134 C2119 0.961 1_556 S
H2135 C2119 0.961 . S
H2136 C2120 0.931 . S
H2137 C2125 0.930 . S
H2138 C2126 0.956 . S
H2139 C2126 0.961 1_554 S
H2140 C2126 0.961 . S
H2141 C2127 0.958 . S
H2142 C2127 0.961 . S
H2143 C2127 0.971 . S
C2144 C2145 1.391 . S
C2144 C2146 1.394 . S
C2144 H2160 0.931 . S
C2145 C2144 1.391 . S
C2145 C2149 1.376 . S
C2146 C2144 1.394 . S
C2146 C2147 1.369 . S
C2146 C2150 1.531 . S
C2147 C2146 1.369 . S
C2147 C2148 1.410 . S
C2147 C2155 1.503 1_556 S
C2148 C2147 1.410 . S
C2148 C2149 1.392 . S
C2148 C2151 1.511 . S
C2149 C2145 1.376 . S
C2149 C2148 1.392 . S
C2149 H2161 0.929 . S
C2150 C2146 1.531 . S
C2150 H2162 0.960 1_556 S
C2150 H2163 0.962 . S
C2150 H2164 0.960 . S
C2151 C2148 1.511 . S
C2151 H2165 0.961 . S
C2151 H2166 0.961 1_556 S
C2151 H2167 0.961 . S
C2152 C2153 1.370 . S
C2152 C2154 1.363 . S
C2152 H2168 0.931 . S
C2153 C2152 1.370 . S
C2153 C2157 1.408 . S
C2154 C2152 1.363 . S
C2154 C2155 1.370 . S
C2154 C2158 1.524 . S
C2155 C2147 1.503 1_554 S
C2155 C2154 1.370 . S
C2155 C2156 1.403 . S
C2156 C2155 1.403 . S
C2156 C2157 1.404 . S
C2156 C2159 1.539 . S
C2157 C2153 1.408 . S
C2157 C2156 1.404 . S
C2157 H2169 0.930 . S
C2158 C2154 1.524 . S
C2158 H2170 0.956 . S
C2158 H2171 0.961 1_554 S
C2158 H2172 0.961 . S
C2159 C2156 1.539 . S
C2159 H2173 0.958 . S
C2159 H2174 0.961 . S
C2159 H2175 0.971 . S
H2160 C2144 0.931 . S
H2161 C2149 0.929 . S
H2162 C2150 0.960 1_554 S
H2163 C2150 0.962 . S
H2164 C2150 0.960 . S
H2165 C2151 0.961 . S
H2166 C2151 0.961 1_554 S
H2167 C2151 0.961 . S
H2168 C2152 0.931 . S
H2169 C2157 0.930 . S
H2170 C2158 0.956 . S
H2171 C2158 0.961 1_556 S
H2172 C2158 0.961 . S
H2173 C2159 0.958 . S
H2174 C2159 0.961 . S
H2175 C2159 0.971 . S
C2176 C2177 1.391 . S
C2176 C2178 1.394 . S
C2176 H2192 0.931 . S
C2177 C2176 1.391 . S
C2177 C2181 1.376 . S
C2178 C2176 1.394 . S
C2178 C2179 1.369 . S
C2178 C2182 1.531 1_545 S
C2179 C2178 1.369 . S
C2179 C2180 1.410 . S
C2179 C2187 1.503 1_545 S
C2180 C2179 1.410 . S
C2180 C2181 1.392 . S
C2180 C2183 1.511 . S
C2181 C2177 1.376 . S
C2181 C2180 1.392 . S
C2181 H2193 0.929 . S
C2182 C2178 1.531 1_565 S
C2182 H2194 0.960 . S
C2182 H2195 0.962 . S
C2182 H2196 0.960 . S
C2183 C2180 1.511 . S
C2183 H2197 0.961 . S
C2183 H2198 0.961 . S
C2183 H2199 0.961 . S
C2184 C2185 1.370 . S
C2184 C2186 1.363 . S
C2184 H2200 0.931 . S
C2185 C2184 1.370 . S
C2185 C2189 1.408 . S
C2186 C2184 1.363 . S
C2186 C2187 1.370 . S
C2186 C2190 1.524 1_565 S
C2187 C2179 1.503 1_565 S
C2187 C2186 1.370 . S
C2187 C2188 1.403 . S
C2188 C2187 1.403 . S
C2188 C2189 1.404 . S
C2188 C2191 1.539 . S
C2189 C2185 1.408 . S
C2189 C2188 1.404 . S
C2189 H2201 0.930 . S
C2190 C2186 1.524 1_545 S
C2190 H2202 0.956 . S
C2190 H2203 0.961 . S
C2190 H2204 0.961 . S
C2191 C2188 1.539 . S
C2191 H2205 0.958 . S
C2191 H2206 0.961 . S
C2191 H2207 0.960 . S
H2192 C2176 0.931 . S
H2193 C2181 0.929 . S
H2194 C2182 0.960 . S
H2195 C2182 0.962 . S
H2196 C2182 0.960 . S
H2197 C2183 0.961 . S
H2198 C2183 0.961 . S
H2199 C2183 0.961 . S
H2200 C2184 0.931 . S
H2201 C2189 0.930 . S
H2202 C2190 0.956 . S
H2203 C2190 0.961 . S
H2204 C2190 0.961 . S
H2205 C2191 0.958 . S
H2206 C2191 0.961 . S
H2207 C2191 0.960 . S
C2208 C2209 1.391 . S
C2208 C2210 1.394 . S
C2208 H2224 0.931 . S
C2209 C2208 1.391 . S
C2209 C2213 1.376 . S
C2210 C2208 1.394 . S
C2210 C2211 1.369 . S
C2210 C2214 1.531 . S
C2211 C2210 1.369 . S
C2211 C2212 1.410 . S
C2211 C2219 1.503 1_655 S
C2212 C2211 1.410 . S
C2212 C2213 1.392 . S
C2212 C2215 1.511 1_655 S
C2213 C2209 1.376 . S
C2213 C2212 1.392 . S
C2213 H2225 0.929 . S
C2214 C2210 1.531 . S
C2214 H2226 0.960 . S
C2214 H2227 0.962 . S
C2214 H2228 0.960 . S
C2215 C2212 1.511 1_455 S
C2215 H2229 0.961 . S
C2215 H2230 0.961 . S
C2215 H2231 0.961 . S
C2216 C2217 1.370 . S
C2216 C2218 1.363 . S
C2216 H2232 0.931 . S
C2217 C2216 1.370 . S
C2217 C2221 1.408 . S
C2218 C2216 1.363 . S
C2218 C2219 1.370 . S
C2218 C2222 1.524 . S
C2219 C2211 1.503 1_455 S
C2219 C2218 1.370 . S
C2219 C2220 1.403 . S
C2220 C2219 1.403 . S
C2220 C2221 1.404 . S
C2220 C2223 1.539 1_455 S
C2221 C2217 1.408 . S
C2221 C2220 1.404 . S
C2221 H2233 0.930 . S
C2222 C2218 1.524 . S
C2222 H2234 0.956 . S
C2222 H2235 0.961 . S
C2222 H2236 0.961 . S
C2223 C2220 1.539 1_655 S
C2223 H2237 0.958 . S
C2223 H2238 0.961 1_655 S
C2223 H2239 0.960 . S
H2224 C2208 0.931 . S
H2225 C2213 0.929 . S
H2226 C2214 0.960 . S
H2227 C2214 0.962 . S
H2228 C2214 0.960 . S
H2229 C2215 0.961 . S
H2230 C2215 0.961 . S
H2231 C2215 0.961 . S
H2232 C2216 0.931 . S
H2233 C2221 0.930 . S
H2234 C2222 0.956 . S
H2235 C2222 0.961 . S
H2236 C2222 0.961 . S
H2237 C2223 0.958 . S
H2238 C2223 0.961 1_455 S
H2239 C2223 0.960 . S
C2240 C2241 1.391 . S
C2240 C2242 1.394 . S
C2240 H2256 0.931 . S
C2241 C2240 1.391 . S
C2241 C2245 1.376 . S
C2242 C2240 1.394 . S
C2242 C2243 1.369 . S
C2242 C2246 1.531 1_545 S
C2243 C2242 1.369 . S
C2243 C2244 1.410 . S
C2243 C2251 1.503 1_545 S
C2244 C2243 1.410 . S
C2244 C2245 1.392 . S
C2244 C2247 1.511 . S
C2245 C2241 1.376 . S
C2245 C2244 1.392 . S
C2245 H2257 0.929 . S
C2246 C2242 1.531 1_565 S
C2246 H2258 0.960 . S
C2246 H2259 0.961 . S
C2246 H2260 0.960 . S
C2247 C2244 1.511 . S
C2247 H2261 0.961 . S
C2247 H2262 0.961 . S
C2247 H2263 0.961 . S
C2248 C2249 1.370 . S
C2248 C2250 1.363 . S
C2248 H2264 0.931 . S
C2249 C2248 1.370 . S
C2249 C2253 1.408 . S
C2250 C2248 1.363 . S
C2250 C2251 1.370 . S
C2250 C2254 1.524 1_565 S
C2251 C2243 1.503 1_565 S
C2251 C2250 1.370 . S
C2251 C2252 1.403 . S
C2252 C2251 1.403 . S
C2252 C2253 1.404 . S
C2252 C2255 1.539 . S
C2253 C2249 1.408 . S
C2253 C2252 1.404 . S
C2253 H2265 0.930 . S
C2254 C2250 1.524 1_545 S
C2254 H2266 0.956 . S
C2254 H2267 0.961 . S
C2254 H2268 0.961 . S
C2255 C2252 1.539 . S
C2255 H2269 0.958 . S
C2255 H2270 0.961 . S
C2255 H2271 0.960 . S
H2256 C2240 0.931 . S
H2257 C2245 0.929 . S
H2258 C2246 0.960 . S
H2259 C2246 0.961 . S
H2260 C2246 0.960 . S
H2261 C2247 0.961 . S
H2262 C2247 0.961 . S
H2263 C2247 0.961 . S
H2264 C2248 0.931 . S
H2265 C2253 0.930 . S
H2266 C2254 0.956 . S
H2267 C2254 0.961 . S
H2268 C2254 0.961 . S
H2269 C2255 0.958 . S
H2270 C2255 0.961 . S
H2271 C2255 0.960 . S
C2272 C2273 1.391 . S
C2272 C2274 1.394 . S
C2272 H2288 0.931 . S
C2273 C2272 1.391 . S
C2273 C2277 1.376 . S
C2274 C2272 1.394 . S
C2274 C2275 1.369 . S
C2274 C2278 1.531 . S
C2275 C2274 1.369 . S
C2275 C2276 1.410 . S
C2275 C2283 1.503 1_455 S
C2276 C2275 1.410 . S
C2276 C2277 1.392 . S
C2276 C2279 1.511 1_455 S
C2277 C2273 1.376 . S
C2277 C2276 1.392 . S
C2277 H2289 0.929 . S
C2278 C2274 1.531 . S
C2278 H2290 0.960 . S
C2278 H2291 0.962 . S
C2278 H2292 0.960 . S
C2279 C2276 1.511 1_655 S
C2279 H2293 0.961 . S
C2279 H2294 0.961 . S
C2279 H2295 0.961 . S
C2280 C2281 1.370 . S
C2280 C2282 1.363 . S
C2280 H2296 0.931 . S
C2281 C2280 1.370 . S
C2281 C2285 1.408 . S
C2282 C2280 1.363 . S
C2282 C2283 1.370 . S
C2282 C2286 1.524 . S
C2283 C2275 1.503 1_655 S
C2283 C2282 1.370 . S
C2283 C2284 1.403 . S
C2284 C2283 1.403 . S
C2284 C2285 1.404 . S
C2284 C2287 1.539 . S
C2285 C2281 1.408 . S
C2285 C2284 1.404 . S
C2285 H2297 0.930 . S
C2286 C2282 1.524 . S
C2286 H2298 0.956 1_655 S
C2286 H2299 0.961 . S
C2286 H2300 0.961 . S
C2287 C2284 1.539 . S
C2287 H2301 0.963 . S
C2287 H2302 0.961 . S
C2287 H2303 0.960 . S
H2288 C2272 0.931 . S
H2289 C2277 0.929 . S
H2290 C2278 0.960 . S
H2291 C2278 0.962 . S
H2292 C2278 0.960 . S
H2293 C2279 0.961 . S
H2294 C2279 0.961 . S
H2295 C2279 0.961 . S
H2296 C2280 0.931 . S
H2297 C2285 0.930 . S
H2298 C2286 0.956 1_455 S
H2299 C2286 0.961 . S
H2300 C2286 0.961 . S
H2301 C2287 0.963 . S
H2302 C2287 0.961 . S
H2303 C2287 0.960 . S
C2304 C2305 1.391 . S
C2304 C2306 1.394 . S
C2304 H2320 0.931 . S
C2305 C2304 1.391 . S
C2305 C2309 1.376 . S
C2306 C2304 1.394 . S
C2306 C2307 1.369 . S
C2306 C2310 1.531 . S
C2307 C2306 1.369 . S
C2307 C2308 1.410 . S
C2307 C2315 1.503 1_565 S
C2308 C2307 1.410 . S
C2308 C2309 1.392 . S
C2308 C2311 1.511 1_565 S
C2309 C2305 1.376 . S
C2309 C2308 1.392 . S
C2309 H2321 0.929 . S
C2310 C2306 1.531 . S
C2310 H2322 0.960 . S
C2310 H2323 0.962 . S
C2310 H2324 0.960 . S
C2311 C2308 1.511 1_545 S
C2311 H2325 0.961 . S
C2311 H2326 0.961 . S
C2311 H2327 0.963 . S
C2312 C2313 1.370 . S
C2312 C2314 1.363 . S
C2312 H2328 0.931 . S
C2313 C2312 1.370 . S
C2313 C2317 1.408 . S
C2314 C2312 1.363 . S
C2314 C2315 1.370 . S
C2314 C2318 1.524 . S
C2315 C2307 1.503 1_545 S
C2315 C2314 1.370 . S
C2315 C2316 1.403 . S
C2316 C2315 1.403 . S
C2316 C2317 1.404 . S
C2316 C2319 1.539 1_545 S
C2317 C2313 1.408 . S
C2317 C2316 1.404 . S
C2317 H2329 0.930 . S
C2318 C2314 1.524 . S
C2318 H2330 0.956 . S
C2318 H2331 0.961 . S
C2318 H2332 0.961 . S
C2319 C2316 1.539 1_565 S
C2319 H2333 0.958 . S
C2319 H2334 0.961 1_565 S
C2319 H2335 0.960 . S
H2320 C2304 0.931 . S
H2321 C2309 0.929 . S
H2322 C2310 0.960 . S
H2323 C2310 0.962 . S
H2324 C2310 0.960 . S
H2325 C2311 0.961 . S
H2326 C2311 0.961 . S
H2327 C2311 0.963 . S
H2328 C2312 0.931 . S
H2329 C2317 0.930 . S
H2330 C2318 0.956 . S
H2331 C2318 0.961 . S
H2332 C2318 0.961 . S
H2333 C2319 0.958 . S
H2334 C2319 0.961 1_545 S
H2335 C2319 0.960 . S
C2336 C2337 1.391 . S
C2336 C2338 1.394 . S
C2336 H2352 0.931 . S
C2337 C2336 1.391 . S
C2337 C2341 1.376 . S
C2338 C2336 1.394 . S
C2338 C2339 1.369 . S
C2338 C2342 1.531 1_655 S
C2339 C2338 1.369 . S
C2339 C2340 1.410 . S
C2339 C2347 1.503 1_655 S
C2340 C2339 1.410 . S
C2340 C2341 1.392 . S
C2340 C2343 1.511 . S
C2341 C2337 1.376 . S
C2341 C2340 1.392 . S
C2341 H2353 0.929 . S
C2342 C2338 1.531 1_455 S
C2342 H2354 0.960 . S
C2342 H2355 0.962 . S
C2342 H2356 0.960 . S
C2343 C2340 1.511 . S
C2343 H2357 0.961 . S
C2343 H2358 0.961 . S
C2343 H2359 0.961 . S
C2344 C2345 1.370 . S
C2344 C2346 1.363 . S
C2344 H2360 0.931 . S
C2345 C2344 1.370 . S
C2345 C2349 1.408 . S
C2346 C2344 1.363 . S
C2346 C2347 1.370 . S
C2346 C2350 1.524 1_455 S
C2347 C2339 1.503 1_455 S
C2347 C2346 1.370 . S
C2347 C2348 1.403 . S
C2348 C2347 1.403 . S
C2348 C2349 1.404 . S
C2348 C2351 1.539 . S
C2349 C2345 1.408 . S
C2349 C2348 1.404 . S
C2349 H2361 0.930 . S
C2350 C2346 1.524 1_655 S
C2350 H2362 0.956 . S
C2350 H2363 0.961 . S
C2350 H2364 0.952 1_655 S
C2351 C2348 1.539 . S
C2351 H2365 0.958 . S
C2351 H2366 0.961 . S
C2351 H2367 0.960 . S
H2352 C2336 0.931 . S
H2353 C2341 0.929 . S
H2354 C2342 0.960 . S
H2355 C2342 0.962 . S
H2356 C2342 0.960 . S
H2357 C2343 0.961 . S
H2358 C2343 0.961 . S
H2359 C2343 0.961 . S
H2360 C2344 0.931 . S
H2361 C2349 0.930 . S
H2362 C2350 0.956 . S
H2363 C2350 0.961 . S
H2364 C2350 0.952 1_455 S
H2365 C2351 0.958 . S
H2366 C2351 0.961 . S
H2367 C2351 0.960 . S
C2368 C2369 1.391 . S
C2368 C2370 1.394 . S
C2368 H2384 0.931 . S
C2369 C2368 1.391 . S
C2369 C2373 1.376 . S
C2370 C2368 1.394 . S
C2370 C2371 1.369 . S
C2370 C2374 1.547 . S
C2371 C2370 1.369 . S
C2371 C2372 1.410 . S
C2371 C2379 1.503 1_565 S
C2372 C2371 1.410 . S
C2372 C2373 1.392 . S
C2372 C2375 1.511 . S
C2373 C2369 1.376 . S
C2373 C2372 1.392 . S
C2373 H2385 0.929 . S
C2374 C2370 1.547 . S
C2374 H2386 0.933 1_565 S
C2374 H2387 0.969 . S
C2374 H2388 0.965 . S
C2375 C2372 1.511 . S
C2375 H2389 0.961 . S
C2375 H2390 0.961 . S
C2375 H2391 0.961 . S
C2376 C2377 1.370 . S
C2376 C2378 1.363 . S
C2376 H2392 0.931 . S
C2377 C2376 1.370 . S
C2377 C2381 1.408 . S
C2378 C2376 1.363 . S
C2378 C2379 1.370 . S
C2378 C2382 1.524 1_545 S
C2379 C2371 1.503 1_545 S
C2379 C2378 1.370 . S
C2379 C2380 1.403 . S
C2380 C2379 1.403 . S
C2380 C2381 1.404 . S
C2380 C2383 1.539 . S
C2381 C2377 1.408 . S
C2381 C2380 1.404 . S
C2381 H2393 0.930 . S
C2382 C2378 1.524 1_565 S
C2382 H2394 0.956 . S
C2382 H2395 0.961 . S
C2382 H2396 0.961 . S
C2383 C2380 1.539 . S
C2383 H2397 0.958 . S
C2383 H2398 0.961 . S
C2383 H2399 0.960 . S
H2384 C2368 0.931 . S
H2385 C2373 0.929 . S
H2386 C2374 0.933 1_545 S
H2387 C2374 0.969 . S
H2388 C2374 0.965 . S
H2389 C2375 0.961 . S
H2390 C2375 0.961 . S
H2391 C2375 0.961 . S
H2392 C2376 0.931 . S
H2393 C2381 0.930 . S
H2394 C2382 0.956 . S
H2395 C2382 0.961 . S
H2396 C2382 0.961 . S
H2397 C2383 0.958 . S
H2398 C2383 0.961 . S
H2399 C2383 0.960 . S
C2400 C2401 1.391 . S
C2400 C2402 1.394 . S
C2400 H2416 0.931 . S
C2401 C2400 1.391 . S
C2401 C2405 1.376 . S
C2402 C2400 1.394 . S
C2402 C2403 1.369 . S
C2402 C2406 1.531 . S
C2403 C2402 1.369 . S
C2403 C2404 1.410 . S
C2403 C2411 1.503 1_655 S
C2404 C2403 1.410 . S
C2404 C2405 1.392 . S
C2404 C2407 1.511 1_655 S
C2405 C2401 1.376 . S
C2405 C2404 1.392 . S
C2405 H2417 0.929 . S
C2406 C2402 1.531 . S
C2406 H2418 0.960 . S
C2406 H2419 0.962 . S
C2406 H2420 0.960 . S
C2407 C2404 1.511 1_455 S
C2407 H2421 0.963 . S
C2407 H2422 0.961 . S
C2407 H2423 0.961 1_455 S
C2408 C2409 1.370 . S
C2408 C2410 1.363 . S
C2408 H2424 0.931 . S
C2409 C2408 1.370 . S
C2409 C2413 1.408 . S
C2410 C2408 1.363 . S
C2410 C2411 1.370 . S
C2410 C2414 1.524 . S
C2411 C2403 1.503 1_455 S
C2411 C2410 1.370 . S
C2411 C2412 1.403 . S
C2412 C2411 1.403 . S
C2412 C2413 1.404 . S
C2412 C2415 1.539 1_455 S
C2413 C2409 1.408 . S
C2413 C2412 1.404 . S
C2413 H2425 0.930 . S
C2414 C2410 1.524 . S
C2414 H2426 0.956 . S
C2414 H2427 0.961 . S
C2414 H2428 0.961 . S
C2415 C2412 1.539 1_655 S
C2415 H2429 0.958 . S
C2415 H2430 0.978 . S
C2415 H2431 0.960 . S
H2416 C2400 0.931 . S
H2417 C2405 0.929 . S
H2418 C2406 0.960 . S
H2419 C2406 0.962 . S
H2420 C2406 0.960 . S
H2421 C2407 0.963 . S
H2422 C2407 0.961 . S
H2423 C2407 0.961 1_655 S
H2424 C2408 0.931 . S
H2425 C2413 0.930 . S
H2426 C2414 0.956 . S
H2427 C2414 0.961 . S
H2428 C2414 0.961 . S
H2429 C2415 0.958 . S
H2430 C2415 0.978 . S
H2431 C2415 0.960 . S
C2432 C2433 1.391 . S
C2432 C2434 1.394 . S
C2432 H2448 0.931 . S
C2433 C2432 1.391 . S
C2433 C2437 1.376 . S
C2434 C2432 1.394 . S
C2434 C2435 1.369 . S
C2434 C2438 1.531 . S
C2435 C2434 1.369 . S
C2435 C2436 1.410 . S
C2435 C2443 1.503 . S
C2436 C2435 1.410 . S
C2436 C2437 1.392 . S
C2436 C2439 1.511 . S
C2437 C2433 1.376 . S
C2437 C2436 1.392 . S
C2437 H2449 0.929 . S
C2438 C2434 1.531 . S
C2438 H2450 0.960 . S
C2438 H2451 0.962 . S
C2438 H2452 0.960 . S
C2439 C2436 1.511 . S
C2439 H2453 0.961 . S
C2439 H2454 0.961 . S
C2439 H2455 0.961 . S
C2440 C2441 1.370 . S
C2440 C2442 1.363 . S
C2440 H2456 0.931 . S
C2441 C2440 1.370 . S
C2441 C2445 1.408 . S
C2442 C2440 1.363 . S
C2442 C2443 1.370 . S
C2442 C2446 1.524 . S
C2443 C2435 1.503 . S
C2443 C2442 1.370 . S
C2443 C2444 1.403 . S
C2444 C2443 1.403 . S
C2444 C2445 1.404 . S
C2444 C2447 1.539 . S
C2445 C2441 1.408 . S
C2445 C2444 1.404 . S
C2445 H2457 0.930 . S
C2446 C2442 1.524 . S
C2446 H2458 0.956 . S
C2446 H2459 0.961 . S
C2446 H2460 0.961 . S
C2447 C2444 1.539 . S
C2447 H2461 0.958 . S
C2447 H2462 0.961 . S
C2447 H2463 0.960 . S
H2448 C2432 0.931 . S
H2449 C2437 0.929 . S
H2450 C2438 0.960 . S
H2451 C2438 0.962 . S
H2452 C2438 0.960 . S
H2453 C2439 0.961 . S
H2454 C2439 0.961 . S
H2455 C2439 0.961 . S
H2456 C2440 0.931 . S
H2457 C2445 0.930 . S
H2458 C2446 0.956 . S
H2459 C2446 0.961 . S
H2460 C2446 0.961 . S
H2461 C2447 0.958 . S
H2462 C2447 0.961 . S
H2463 C2447 0.960 . S
C2464 C2465 1.391 . S
C2464 C2466 1.394 . S
C2464 H2480 0.931 . S
C2465 C2464 1.391 . S
C2465 C2469 1.376 . S
C2466 C2464 1.394 . S
C2466 C2467 1.369 . S
C2466 C2470 1.531 . S
C2467 C2466 1.369 . S
C2467 C2468 1.410 . S
C2467 C2475 1.503 . S
C2468 C2467 1.410 . S
C2468 C2469 1.392 . S
C2468 C2471 1.511 . S
C2469 C2465 1.376 . S
C2469 C2468 1.392 . S
C2469 H2481 0.929 . S
C2470 C2466 1.531 . S
C2470 H2482 0.960 . S
C2470 H2483 0.962 . S
C2470 H2484 0.960 . S
C2471 C2468 1.511 . S
C2471 H2485 0.961 . S
C2471 H2486 0.961 . S
C2471 H2487 0.961 . S
C2472 C2473 1.370 . S
C2472 C2474 1.363 . S
C2472 H2488 0.931 . S
C2473 C2472 1.370 . S
C2473 C2477 1.408 . S
C2474 C2472 1.363 . S
C2474 C2475 1.370 . S
C2474 C2478 1.524 . S
C2475 C2467 1.503 . S
C2475 C2474 1.370 . S
C2475 C2476 1.403 . S
C2476 C2475 1.403 . S
C2476 C2477 1.404 . S
C2476 C2479 1.539 . S
C2477 C2473 1.408 . S
C2477 C2476 1.404 . S
C2477 H2489 0.930 . S
C2478 C2474 1.524 . S
C2478 H2490 0.956 . S
C2478 H2491 0.961 . S
C2478 H2492 0.961 . S
C2479 C2476 1.539 . S
C2479 H2493 0.958 . S
C2479 H2494 0.961 . S
C2479 H2495 0.960 . S
H2480 C2464 0.931 . S
H2481 C2469 0.929 . S
H2482 C2470 0.960 . S
H2483 C2470 0.962 . S
H2484 C2470 0.960 . S
H2485 C2471 0.961 . S
H2486 C2471 0.961 . S
H2487 C2471 0.961 . S
H2488 C2472 0.931 . S
H2489 C2477 0.930 . S
H2490 C2478 0.956 . S
H2491 C2478 0.961 . S
H2492 C2478 0.961 . S
H2493 C2479 0.958 . S
H2494 C2479 0.961 . S
H2495 C2479 0.960 . S
C2496 C2497 1.391 . S
C2496 C2498 1.394 . S
C2496 H2512 0.931 . S
C2497 C2496 1.391 . S
C2497 C2501 1.376 . S
C2498 C2496 1.394 . S
C2498 C2499 1.369 . S
C2498 C2502 1.531 . S
C2499 C2498 1.369 . S
C2499 C2500 1.410 . S
C2499 C2507 1.503 . S
C2500 C2499 1.410 . S
C2500 C2501 1.392 . S
C2500 C2503 1.511 . S
C2501 C2497 1.376 . S
C2501 C2500 1.392 . S
C2501 H2513 0.929 . S
C2502 C2498 1.531 . S
C2502 H2514 0.960 . S
C2502 H2515 0.962 . S
C2502 H2516 0.960 . S
C2503 C2500 1.511 . S
C2503 H2517 0.961 . S
C2503 H2518 0.961 . S
C2503 H2519 0.961 . S
C2504 C2505 1.370 . S
C2504 C2506 1.363 . S
C2504 H2520 0.931 . S
C2505 C2504 1.370 . S
C2505 C2509 1.408 . S
C2506 C2504 1.363 . S
C2506 C2507 1.370 . S
C2506 C2510 1.524 . S
C2507 C2499 1.503 . S
C2507 C2506 1.370 . S
C2507 C2508 1.403 . S
C2508 C2507 1.403 . S
C2508 C2509 1.404 . S
C2508 C2511 1.539 . S
C2509 C2505 1.408 . S
C2509 C2508 1.404 . S
C2509 H2521 0.930 . S
C2510 C2506 1.524 . S
C2510 H2522 0.956 . S
C2510 H2523 0.961 . S
C2510 H2524 0.961 . S
C2511 C2508 1.539 . S
C2511 H2525 0.958 . S
C2511 H2526 0.961 . S
C2511 H2527 0.960 . S
H2512 C2496 0.931 . S
H2513 C2501 0.929 . S
H2514 C2502 0.960 . S
H2515 C2502 0.962 . S
H2516 C2502 0.960 . S
H2517 C2503 0.961 . S
H2518 C2503 0.961 . S
H2519 C2503 0.961 . S
H2520 C2504 0.931 . S
H2521 C2509 0.930 . S
H2522 C2510 0.956 . S
H2523 C2510 0.961 . S
H2524 C2510 0.961 . S
H2525 C2511 0.958 . S
H2526 C2511 0.961 . S
H2527 C2511 0.960 . S
C2528 C2529 1.391 . S
C2528 C2530 1.394 . S
C2528 H2544 0.931 . S
C2529 C2528 1.391 . S
C2529 C2533 1.376 . S
C2530 C2528 1.394 . S
C2530 C2531 1.369 . S
C2530 C2534 1.531 . S
C2531 C2530 1.369 . S
C2531 C2532 1.410 . S
C2531 C2539 1.503 . S
C2532 C2531 1.410 . S
C2532 C2533 1.392 . S
C2532 C2535 1.511 . S
C2533 C2529 1.376 . S
C2533 C2532 1.392 . S
C2533 H2545 0.929 . S
C2534 C2530 1.531 . S
C2534 H2546 0.960 . S
C2534 H2547 0.962 . S
C2534 H2548 0.960 . S
C2535 C2532 1.511 . S
C2535 H2549 0.961 . S
C2535 H2550 0.961 . S
C2535 H2551 0.961 . S
C2536 C2537 1.370 . S
C2536 C2538 1.363 . S
C2536 H2552 0.931 . S
C2537 C2536 1.370 . S
C2537 C2541 1.408 . S
C2538 C2536 1.363 . S
C2538 C2539 1.370 . S
C2538 C2542 1.524 . S
C2539 C2531 1.503 . S
C2539 C2538 1.370 . S
C2539 C2540 1.403 . S
C2540 C2539 1.403 . S
C2540 C2541 1.404 . S
C2540 C2543 1.539 . S
C2541 C2537 1.408 . S
C2541 C2540 1.404 . S
C2541 H2553 0.930 . S
C2542 C2538 1.524 . S
C2542 H2554 0.956 . S
C2542 H2555 0.961 . S
C2542 H2556 0.961 . S
C2543 C2540 1.539 . S
C2543 H2557 0.958 . S
C2543 H2558 0.961 . S
C2543 H2559 0.960 . S
H2544 C2528 0.931 . S
H2545 C2533 0.929 . S
H2546 C2534 0.960 . S
H2547 C2534 0.962 . S
H2548 C2534 0.960 . S
H2549 C2535 0.961 . S
H2550 C2535 0.961 . S
H2551 C2535 0.961 . S
H2552 C2536 0.931 . S
H2553 C2541 0.930 . S
H2554 C2542 0.956 . S
H2555 C2542 0.961 . S
H2556 C2542 0.961 . S
H2557 C2543 0.958 . S
H2558 C2543 0.961 . S
H2559 C2543 0.960 . S
C2560 C2561 1.391 . S
C2560 C2562 1.394 . S
C2560 H2576 0.931 . S
C2561 C2560 1.391 . S
C2561 C2565 1.376 . S
C2562 C2560 1.394 . S
C2562 C2563 1.369 . S
C2562 C2566 1.531 . S
C2563 C2562 1.369 . S
C2563 C2564 1.410 . S
C2563 C2571 1.503 . S
C2564 C2563 1.410 . S
C2564 C2565 1.392 . S
C2564 C2567 1.511 . S
C2565 C2561 1.376 . S
C2565 C2564 1.392 . S
C2565 H2577 0.929 . S
C2566 C2562 1.531 . S
C2566 H2578 0.960 . S
C2566 H2579 0.962 . S
C2566 H2580 0.960 . S
C2567 C2564 1.511 . S
C2567 H2581 0.961 . S
C2567 H2582 0.961 . S
C2567 H2583 0.961 . S
C2568 C2569 1.370 . S
C2568 C2570 1.363 . S
C2568 H2584 0.931 . S
C2569 C2568 1.370 . S
C2569 C2573 1.408 . S
C2570 C2568 1.363 . S
C2570 C2571 1.370 . S
C2570 C2574 1.524 . S
C2571 C2563 1.503 . S
C2571 C2570 1.370 . S
C2571 C2572 1.403 . S
C2572 C2571 1.403 . S
C2572 C2573 1.404 . S
C2572 C2575 1.539 . S
C2573 C2569 1.408 . S
C2573 C2572 1.404 . S
C2573 H2585 0.930 . S
C2574 C2570 1.524 . S
C2574 H2586 0.956 . S
C2574 H2587 0.961 . S
C2574 H2588 0.961 . S
C2575 C2572 1.539 . S
C2575 H2589 0.958 . S
C2575 H2590 0.961 . S
C2575 H2591 0.960 . S
H2576 C2560 0.931 . S
H2577 C2565 0.929 . S
H2578 C2566 0.960 . S
H2579 C2566 0.962 . S
H2580 C2566 0.960 . S
H2581 C2567 0.961 . S
H2582 C2567 0.961 . S
H2583 C2567 0.961 . S
H2584 C2568 0.931 . S
H2585 C2573 0.930 . S
H2586 C2574 0.956 . S
H2587 C2574 0.961 . S
H2588 C2574 0.961 . S
H2589 C2575 0.958 . S
H2590 C2575 0.961 . S
H2591 C2575 0.960 . S
C2592 C2593 1.391 . S
C2592 C2594 1.394 . S
C2592 H2608 0.931 . S
C2593 C2592 1.391 . S
C2593 C2597 1.376 . S
C2594 C2592 1.394 . S
C2594 C2595 1.369 . S
C2594 C2598 1.531 . S
C2595 C2594 1.369 . S
C2595 C2596 1.410 . S
C2595 C2603 1.503 . S
C2596 C2595 1.410 . S
C2596 C2597 1.392 . S
C2596 C2599 1.511 . S
C2597 C2593 1.376 . S
C2597 C2596 1.392 . S
C2597 H2609 0.929 . S
C2598 C2594 1.531 . S
C2598 H2610 0.960 . S
C2598 H2611 0.962 . S
C2598 H2612 0.960 . S
C2599 C2596 1.511 . S
C2599 H2613 0.961 . S
C2599 H2614 0.961 . S
C2599 H2615 0.961 . S
C2600 C2601 1.370 . S
C2600 C2602 1.363 . S
C2600 H2616 0.931 . S
C2601 C2600 1.370 . S
C2601 C2605 1.408 . S
C2602 C2600 1.363 . S
C2602 C2603 1.370 . S
C2602 C2606 1.524 . S
C2603 C2595 1.503 . S
C2603 C2602 1.370 . S
C2603 C2604 1.403 . S
C2604 C2603 1.403 . S
C2604 C2605 1.404 . S
C2604 C2607 1.539 . S
C2605 C2601 1.408 . S
C2605 C2604 1.404 . S
C2605 H2617 0.930 . S
C2606 C2602 1.524 . S
C2606 H2618 0.956 . S
C2606 H2619 0.961 . S
C2606 H2620 0.961 . S
C2607 C2604 1.539 . S
C2607 H2621 0.958 . S
C2607 H2622 0.961 . S
C2607 H2623 0.960 . S
H2608 C2592 0.931 . S
H2609 C2597 0.929 . S
H2610 C2598 0.960 . S
H2611 C2598 0.962 . S
H2612 C2598 0.960 . S
H2613 C2599 0.961 . S
H2614 C2599 0.961 . S
H2615 C2599 0.961 . S
H2616 C2600 0.931 . S
H2617 C2605 0.930 . S
H2618 C2606 0.956 . S
H2619 C2606 0.961 . S
H2620 C2606 0.961 . S
H2621 C2607 0.958 . S
H2622 C2607 0.961 . S
H2623 C2607 0.960 . S
C2624 C2625 1.391 . S
C2624 C2626 1.394 . S
C2624 H2640 0.931 . S
C2625 C2624 1.391 . S
C2625 C2629 1.376 . S
C2626 C2624 1.394 . S
C2626 C2627 1.369 . S
C2626 C2630 1.531 . S
C2627 C2626 1.369 . S
C2627 C2628 1.410 . S
C2627 C2635 1.503 . S
C2628 C2627 1.410 . S
C2628 C2629 1.392 . S
C2628 C2631 1.511 . S
C2629 C2625 1.376 . S
C2629 C2628 1.392 . S
C2629 H2641 0.929 . S
C2630 C2626 1.531 . S
C2630 H2642 0.960 . S
C2630 H2643 0.962 . S
C2630 H2644 0.960 . S
C2631 C2628 1.511 . S
C2631 H2645 0.961 . S
C2631 H2646 0.961 . S
C2631 H2647 0.961 . S
C2632 C2633 1.370 . S
C2632 C2634 1.363 . S
C2632 H2648 0.931 . S
C2633 C2632 1.370 . S
C2633 C2637 1.408 . S
C2634 C2632 1.363 . S
C2634 C2635 1.370 . S
C2634 C2638 1.524 . S
C2635 C2627 1.503 . S
C2635 C2634 1.370 . S
C2635 C2636 1.403 . S
C2636 C2635 1.403 . S
C2636 C2637 1.404 . S
C2636 C2639 1.539 . S
C2637 C2633 1.408 . S
C2637 C2636 1.404 . S
C2637 H2649 0.930 . S
C2638 C2634 1.524 . S
C2638 H2650 0.956 . S
C2638 H2651 0.961 . S
C2638 H2652 0.961 . S
C2639 C2636 1.539 . S
C2639 H2653 0.958 . S
C2639 H2654 0.961 . S
C2639 H2655 0.960 . S
H2640 C2624 0.931 . S
H2641 C2629 0.929 . S
H2642 C2630 0.960 . S
H2643 C2630 0.962 . S
H2644 C2630 0.960 . S
H2645 C2631 0.961 . S
H2646 C2631 0.961 . S
H2647 C2631 0.961 . S
H2648 C2632 0.931 . S
H2649 C2637 0.930 . S
H2650 C2638 0.956 . S
H2651 C2638 0.961 . S
H2652 C2638 0.961 . S
H2653 C2639 0.958 . S
H2654 C2639 0.961 . S
H2655 C2639 0.960 . S
C2656 C2657 1.391 . S
C2656 C2658 1.394 . S
C2656 H2672 0.931 . S
C2657 C2656 1.391 . S
C2657 C2661 1.376 . S
C2658 C2656 1.394 . S
C2658 C2659 1.369 . S
C2658 C2662 1.531 . S
C2659 C2658 1.369 . S
C2659 C2660 1.410 . S
C2659 C2667 1.503 . S
C2660 C2659 1.410 . S
C2660 C2661 1.392 . S
C2660 C2663 1.511 . S
C2661 C2657 1.376 . S
C2661 C2660 1.392 . S
C2661 H2673 0.929 . S
C2662 C2658 1.531 . S
C2662 H2674 0.960 . S
C2662 H2675 0.962 . S
C2662 H2676 0.960 . S
C2663 C2660 1.511 . S
C2663 H2677 0.961 . S
C2663 H2678 0.961 . S
C2663 H2679 0.961 . S
C2664 C2665 1.370 . S
C2664 C2666 1.363 . S
C2664 H2680 0.931 . S
C2665 C2664 1.370 . S
C2665 C2669 1.408 . S
C2666 C2664 1.363 . S
C2666 C2667 1.370 . S
C2666 C2670 1.524 . S
C2667 C2659 1.503 . S
C2667 C2666 1.370 . S
C2667 C2668 1.403 . S
C2668 C2667 1.403 . S
C2668 C2669 1.404 . S
C2668 C2671 1.539 . S
C2669 C2665 1.408 . S
C2669 C2668 1.404 . S
C2669 H2681 0.930 . S
C2670 C2666 1.524 . S
C2670 H2682 0.956 . S
C2670 H2683 0.961 . S
C2670 H2684 0.961 . S
C2671 C2668 1.539 . S
C2671 H2685 0.958 . S
C2671 H2686 0.961 . S
C2671 H2687 0.960 . S
H2672 C2656 0.931 . S
H2673 C2661 0.929 . S
H2674 C2662 0.960 . S
H2675 C2662 0.962 . S
H2676 C2662 0.960 . S
H2677 C2663 0.961 . S
H2678 C2663 0.961 . S
H2679 C2663 0.961 . S
H2680 C2664 0.931 . S
H2681 C2669 0.930 . S
H2682 C2670 0.956 . S
H2683 C2670 0.961 . S
H2684 C2670 0.961 . S
H2685 C2671 0.958 . S
H2686 C2671 0.961 . S
H2687 C2671 0.960 . S
C2688 C2689 1.391 . S
C2688 C2690 1.394 . S
C2688 H2704 0.931 . S
C2689 C2688 1.391 . S
C2689 C2693 1.376 . S
C2690 C2688 1.394 . S
C2690 C2691 1.369 . S
C2690 C2694 1.531 . S
C2691 C2690 1.369 . S
C2691 C2692 1.410 . S
C2691 C2699 1.503 . S
C2692 C2691 1.410 . S
C2692 C2693 1.392 . S
C2692 C2695 1.511 . S
C2693 C2689 1.376 . S
C2693 C2692 1.392 . S
C2693 H2705 0.929 . S
C2694 C2690 1.531 . S
C2694 H2706 0.960 . S
C2694 H2707 0.962 . S
C2694 H2708 0.960 . S
C2695 C2692 1.511 . S
C2695 H2709 0.961 . S
C2695 H2710 0.961 . S
C2695 H2711 0.961 . S
C2696 C2697 1.370 . S
C2696 C2698 1.363 . S
C2696 H2712 0.931 . S
C2697 C2696 1.370 . S
C2697 C2701 1.408 . S
C2698 C2696 1.363 . S
C2698 C2699 1.370 . S
C2698 C2702 1.524 . S
C2699 C2691 1.503 . S
C2699 C2698 1.370 . S
C2699 C2700 1.403 . S
C2700 C2699 1.403 . S
C2700 C2701 1.404 . S
C2700 C2703 1.539 . S
C2701 C2697 1.408 . S
C2701 C2700 1.404 . S
C2701 H2713 0.930 . S
C2702 C2698 1.524 . S
C2702 H2714 0.956 . S
C2702 H2715 0.961 . S
C2702 H2716 0.961 . S
C2703 C2700 1.539 . S
C2703 H2717 0.958 . S
C2703 H2718 0.961 . S
C2703 H2719 0.960 . S
H2704 C2688 0.931 . S
H2705 C2693 0.929 . S
H2706 C2694 0.960 . S
H2707 C2694 0.962 . S
H2708 C2694 0.960 . S
H2709 C2695 0.961 . S
H2710 C2695 0.961 . S
H2711 C2695 0.961 . S
H2712 C2696 0.931 . S
H2713 C2701 0.930 . S
H2714 C2702 0.956 . S
H2715 C2702 0.961 . S
H2716 C2702 0.961 . S
H2717 C2703 0.958 . S
H2718 C2703 0.961 . S
H2719 C2703 0.960 . S
C2720 C2721 1.391 . S
C2720 C2722 1.394 . S
C2720 H2736 0.931 . S
C2721 C2720 1.391 . S
C2721 C2725 1.376 . S
C2722 C2720 1.394 . S
C2722 C2723 1.369 . S
C2722 C2726 1.531 . S
C2723 C2722 1.369 . S
C2723 C2724 1.410 . S
C2723 C2731 1.503 . S
C2724 C2723 1.410 . S
C2724 C2725 1.392 . S
C2724 C2727 1.511 . S
C2725 C2721 1.376 . S
C2725 C2724 1.392 . S
C2725 H2737 0.929 . S
C2726 C2722 1.531 . S
C2726 H2738 0.960 . S
C2726 H2739 0.962 . S
C2726 H2740 0.960 . S
C2727 C2724 1.511 . S
C2727 H2741 0.961 . S
C2727 H2742 0.961 . S
C2727 H2743 0.961 . S
C2728 C2729 1.370 . S
C2728 C2730 1.363 . S
C2728 H2744 0.931 . S
C2729 C2728 1.370 . S
C2729 C2733 1.408 . S
C2730 C2728 1.363 . S
C2730 C2731 1.370 . S
C2730 C2734 1.524 . S
C2731 C2723 1.503 . S
C2731 C2730 1.370 . S
C2731 C2732 1.403 . S
C2732 C2731 1.403 . S
C2732 C2733 1.404 . S
C2732 C2735 1.539 . S
C2733 C2729 1.408 . S
C2733 C2732 1.404 . S
C2733 H2745 0.930 . S
C2734 C2730 1.524 . S
C2734 H2746 0.956 . S
C2734 H2747 0.961 . S
C2734 H2748 0.961 . S
C2735 C2732 1.539 . S
C2735 H2749 0.958 . S
C2735 H2750 0.961 . S
C2735 H2751 0.960 . S
H2736 C2720 0.931 . S
H2737 C2725 0.929 . S
H2738 C2726 0.960 . S
H2739 C2726 0.962 . S
H2740 C2726 0.960 . S
H2741 C2727 0.961 . S
H2742 C2727 0.961 . S
H2743 C2727 0.961 . S
H2744 C2728 0.931 . S
H2745 C2733 0.930 . S
H2746 C2734 0.956 . S
H2747 C2734 0.961 . S
H2748 C2734 0.961 . S
H2749 C2735 0.958 . S
H2750 C2735 0.961 . S
H2751 C2735 0.960 . S
C2752 C2753 1.391 . S
C2752 C2754 1.394 . S
C2752 H2768 0.931 . S
C2753 C2752 1.391 . S
C2753 C2757 1.376 . S
C2754 C2752 1.394 . S
C2754 C2755 1.369 . S
C2754 C2758 1.531 . S
C2755 C2754 1.369 . S
C2755 C2756 1.410 . S
C2755 C2763 1.503 . S
C2756 C2755 1.410 . S
C2756 C2757 1.392 . S
C2756 C2759 1.511 . S
C2757 C2753 1.376 . S
C2757 C2756 1.392 . S
C2757 H2769 0.929 . S
C2758 C2754 1.531 . S
C2758 H2770 0.960 . S
C2758 H2771 0.962 . S
C2758 H2772 0.960 . S
C2759 C2756 1.511 . S
C2759 H2773 0.961 . S
C2759 H2774 0.961 . S
C2759 H2775 0.961 . S
C2760 C2761 1.370 . S
C2760 C2762 1.363 . S
C2760 H2776 0.931 . S
C2761 C2760 1.370 . S
C2761 C2765 1.408 . S
C2762 C2760 1.363 . S
C2762 C2763 1.370 . S
C2762 C2766 1.524 . S
C2763 C2755 1.503 . S
C2763 C2762 1.370 . S
C2763 C2764 1.403 . S
C2764 C2763 1.403 . S
C2764 C2765 1.404 . S
C2764 C2767 1.539 . S
C2765 C2761 1.408 . S
C2765 C2764 1.404 . S
C2765 H2777 0.930 . S
C2766 C2762 1.524 . S
C2766 H2778 0.956 . S
C2766 H2779 0.961 . S
C2766 H2780 0.961 . S
C2767 C2764 1.539 . S
C2767 H2781 0.958 . S
C2767 H2782 0.961 . S
C2767 H2783 0.960 . S
H2768 C2752 0.931 . S
H2769 C2757 0.929 . S
H2770 C2758 0.960 . S
H2771 C2758 0.962 . S
H2772 C2758 0.960 . S
H2773 C2759 0.961 . S
H2774 C2759 0.961 . S
H2775 C2759 0.961 . S
H2776 C2760 0.931 . S
H2777 C2765 0.930 . S
H2778 C2766 0.956 . S
H2779 C2766 0.961 . S
H2780 C2766 0.961 . S
H2781 C2767 0.958 . S
H2782 C2767 0.961 . S
H2783 C2767 0.960 . S
C2784 C2785 1.391 . S
C2784 C2786 1.394 . S
C2784 H2800 0.931 . S
C2785 C2784 1.391 . S
C2785 C2789 1.376 . S
C2786 C2784 1.394 . S
C2786 C2787 1.369 . S
C2786 C2790 1.531 . S
C2787 C2786 1.369 . S
C2787 C2788 1.410 . S
C2787 C2795 1.503 . S
C2788 C2787 1.410 . S
C2788 C2789 1.392 . S
C2788 C2791 1.511 . S
C2789 C2785 1.376 . S
C2789 C2788 1.392 . S
C2789 H2801 0.929 . S
C2790 C2786 1.531 . S
C2790 H2802 0.960 . S
C2790 H2803 0.962 . S
C2790 H2804 0.960 . S
C2791 C2788 1.511 . S
C2791 H2805 0.961 . S
C2791 H2806 0.961 . S
C2791 H2807 0.961 . S
C2792 C2793 1.370 . S
C2792 C2794 1.363 . S
C2792 H2808 0.931 . S
C2793 C2792 1.370 . S
C2793 C2797 1.408 . S
C2794 C2792 1.363 . S
C2794 C2795 1.370 . S
C2794 C2798 1.524 . S
C2795 C2787 1.503 . S
C2795 C2794 1.370 . S
C2795 C2796 1.403 . S
C2796 C2795 1.403 . S
C2796 C2797 1.404 . S
C2796 C2799 1.539 . S
C2797 C2793 1.408 . S
C2797 C2796 1.404 . S
C2797 H2809 0.930 . S
C2798 C2794 1.524 . S
C2798 H2810 0.956 . S
C2798 H2811 0.961 . S
C2798 H2812 0.961 . S
C2799 C2796 1.539 . S
C2799 H2813 0.958 . S
C2799 H2814 0.961 . S
C2799 H2815 0.960 . S
H2800 C2784 0.931 . S
H2801 C2789 0.929 . S
H2802 C2790 0.960 . S
H2803 C2790 0.962 . S
H2804 C2790 0.960 . S
H2805 C2791 0.961 . S
H2806 C2791 0.961 . S
H2807 C2791 0.961 . S
H2808 C2792 0.931 . S
H2809 C2797 0.930 . S
H2810 C2798 0.956 . S
H2811 C2798 0.961 . S
H2812 C2798 0.961 . S
H2813 C2799 0.958 . S
H2814 C2799 0.961 . S
H2815 C2799 0.960 . S
C2816 C2817 1.391 . S
C2816 C2818 1.394 . S
C2816 H2832 0.931 . S
C2817 C2816 1.391 . S
C2817 C2821 1.376 . S
C2818 C2816 1.394 . S
C2818 C2819 1.369 . S
C2818 C2822 1.531 . S
C2819 C2818 1.369 . S
C2819 C2820 1.410 . S
C2819 C2827 1.503 . S
C2820 C2819 1.410 . S
C2820 C2821 1.392 . S
C2820 C2823 1.511 . S
C2821 C2817 1.376 . S
C2821 C2820 1.392 . S
C2821 H2833 0.929 . S
C2822 C2818 1.531 . S
C2822 H2834 0.960 . S
C2822 H2835 0.962 . S
C2822 H2836 0.960 . S
C2823 C2820 1.511 . S
C2823 H2837 0.961 . S
C2823 H2838 0.961 . S
C2823 H2839 0.961 . S
C2824 C2825 1.370 . S
C2824 C2826 1.363 . S
C2824 H2840 0.931 . S
C2825 C2824 1.370 . S
C2825 C2829 1.408 . S
C2826 C2824 1.363 . S
C2826 C2827 1.370 . S
C2826 C2830 1.524 . S
C2827 C2819 1.503 . S
C2827 C2826 1.370 . S
C2827 C2828 1.403 . S
C2828 C2827 1.403 . S
C2828 C2829 1.404 . S
C2828 C2831 1.539 . S
C2829 C2825 1.408 . S
C2829 C2828 1.404 . S
C2829 H2841 0.930 . S
C2830 C2826 1.524 . S
C2830 H2842 0.956 . S
C2830 H2843 0.961 . S
C2830 H2844 0.961 . S
C2831 C2828 1.539 . S
C2831 H2845 0.958 . S
C2831 H2846 0.961 . S
C2831 H2847 0.960 . S
H2832 C2816 0.931 . S
H2833 C2821 0.929 . S
H2834 C2822 0.960 . S
H2835 C2822 0.962 . S
H2836 C2822 0.960 . S
H2837 C2823 0.961 . S
H2838 C2823 0.961 . S
H2839 C2823 0.961 . S
H2840 C2824 0.931 . S
H2841 C2829 0.930 . S
H2842 C2830 0.956 . S
H2843 C2830 0.961 . S
H2844 C2830 0.961 . S
H2845 C2831 0.958 . S
H2846 C2831 0.961 . S
H2847 C2831 0.960 . S
C2848 C2849 1.391 . S
C2848 C2850 1.394 . S
C2848 H2864 0.931 . S
C2849 C2848 1.391 . S
C2849 C2853 1.376 . S
C2850 C2848 1.394 . S
C2850 C2851 1.369 . S
C2850 C2854 1.531 . S
C2851 C2850 1.369 . S
C2851 C2852 1.410 . S
C2851 C2859 1.503 . S
C2852 C2851 1.410 . S
C2852 C2853 1.392 . S
C2852 C2855 1.511 . S
C2853 C2849 1.376 . S
C2853 C2852 1.392 . S
C2853 H2865 0.929 . S
C2854 C2850 1.531 . S
C2854 H2866 0.960 . S
C2854 H2867 0.962 . S
C2854 H2868 0.960 . S
C2855 C2852 1.511 . S
C2855 H2869 0.961 . S
C2855 H2870 0.961 . S
C2855 H2871 0.961 . S
C2856 C2857 1.370 . S
C2856 C2858 1.363 . S
C2856 H2872 0.931 . S
C2857 C2856 1.370 . S
C2857 C2861 1.408 . S
C2858 C2856 1.363 . S
C2858 C2859 1.370 . S
C2858 C2862 1.524 . S
C2859 C2851 1.503 . S
C2859 C2858 1.370 . S
C2859 C2860 1.403 . S
C2860 C2859 1.403 . S
C2860 C2861 1.404 . S
C2860 C2863 1.539 . S
C2861 C2857 1.408 . S
C2861 C2860 1.404 . S
C2861 H2873 0.930 . S
C2862 C2858 1.524 . S
C2862 H2874 0.956 . S
C2862 H2875 0.961 . S
C2862 H2876 0.961 . S
C2863 C2860 1.539 . S
C2863 H2877 0.958 . S
C2863 H2878 0.961 . S
C2863 H2879 0.960 . S
H2864 C2848 0.931 . S
H2865 C2853 0.929 . S
H2866 C2854 0.960 . S
H2867 C2854 0.962 . S
H2868 C2854 0.960 . S
H2869 C2855 0.961 . S
H2870 C2855 0.961 . S
H2871 C2855 0.961 . S
H2872 C2856 0.931 . S
H2873 C2861 0.930 . S
H2874 C2862 0.956 . S
H2875 C2862 0.961 . S
H2876 C2862 0.961 . S
H2877 C2863 0.958 . S
H2878 C2863 0.961 . S
H2879 C2863 0.960 . S
C2880 C2881 1.391 . S
C2880 C2882 1.394 . S
C2880 H2896 0.931 . S
C2881 C2880 1.391 . S
C2881 C2885 1.376 . S
C2882 C2880 1.394 . S
C2882 C2883 1.369 . S
C2882 C2886 1.531 . S
C2883 C2882 1.369 . S
C2883 C2884 1.410 . S
C2883 C2891 1.503 . S
C2884 C2883 1.410 . S
C2884 C2885 1.392 . S
C2884 C2887 1.511 . S
C2885 C2881 1.376 . S
C2885 C2884 1.392 . S
C2885 H2897 0.929 . S
C2886 C2882 1.531 . S
C2886 H2898 0.960 . S
C2886 H2899 0.962 . S
C2886 H2900 0.960 . S
C2887 C2884 1.511 . S
C2887 H2901 0.961 . S
C2887 H2902 0.961 . S
C2887 H2903 0.961 . S
C2888 C2889 1.370 . S
C2888 C2890 1.363 . S
C2888 H2904 0.931 . S
C2889 C2888 1.370 . S
C2889 C2893 1.408 . S
C2890 C2888 1.363 . S
C2890 C2891 1.370 . S
C2890 C2894 1.524 . S
C2891 C2883 1.503 . S
C2891 C2890 1.370 . S
C2891 C2892 1.403 . S
C2892 C2891 1.403 . S
C2892 C2893 1.404 . S
C2892 C2895 1.539 . S
C2893 C2889 1.408 . S
C2893 C2892 1.404 . S
C2893 H2905 0.930 . S
C2894 C2890 1.524 . S
C2894 H2906 0.956 . S
C2894 H2907 0.961 . S
C2894 H2908 0.961 . S
C2895 C2892 1.539 . S
C2895 H2909 0.958 . S
C2895 H2910 0.961 . S
C2895 H2911 0.960 . S
H2896 C2880 0.931 . S
H2897 C2885 0.929 . S
H2898 C2886 0.960 . S
H2899 C2886 0.962 . S
H2900 C2886 0.960 . S
H2901 C2887 0.961 . S
H2902 C2887 0.961 . S
H2903 C2887 0.961 . S
H2904 C2888 0.931 . S
H2905 C2893 0.930 . S
H2906 C2894 0.956 . S
H2907 C2894 0.961 . S
H2908 C2894 0.961 . S
H2909 C2895 0.958 . S
H2910 C2895 0.961 . S
H2911 C2895 0.960 . S
C2912 C2913 1.391 . S
C2912 C2914 1.394 . S
C2912 H2928 0.931 . S
C2913 C2912 1.391 . S
C2913 C2917 1.376 . S
C2914 C2912 1.394 . S
C2914 C2915 1.369 . S
C2914 C2918 1.531 . S
C2915 C2914 1.369 . S
C2915 C2916 1.410 . S
C2915 C2923 1.503 . S
C2916 C2915 1.410 . S
C2916 C2917 1.392 . S
C2916 C2919 1.511 . S
C2917 C2913 1.376 . S
C2917 C2916 1.392 . S
C2917 H2929 0.929 . S
C2918 C2914 1.531 . S
C2918 H2930 0.960 . S
C2918 H2931 0.962 . S
C2918 H2932 0.960 . S
C2919 C2916 1.511 . S
C2919 H2933 0.961 . S
C2919 H2934 0.961 . S
C2919 H2935 0.961 . S
C2920 C2921 1.370 . S
C2920 C2922 1.363 . S
C2920 H2936 0.931 . S
C2921 C2920 1.370 . S
C2921 C2925 1.408 . S
C2922 C2920 1.363 . S
C2922 C2923 1.370 . S
C2922 C2926 1.524 . S
C2923 C2915 1.503 . S
C2923 C2922 1.370 . S
C2923 C2924 1.403 . S
C2924 C2923 1.403 . S
C2924 C2925 1.404 . S
C2924 C2927 1.539 . S
C2925 C2921 1.408 . S
C2925 C2924 1.404 . S
C2925 H2937 0.930 . S
C2926 C2922 1.524 . S
C2926 H2938 0.956 . S
C2926 H2939 0.961 . S
C2926 H2940 0.961 . S
C2927 C2924 1.539 . S
C2927 H2941 0.958 . S
C2927 H2942 0.961 . S
C2927 H2943 0.960 . S
H2928 C2912 0.931 . S
H2929 C2917 0.929 . S
H2930 C2918 0.960 . S
H2931 C2918 0.962 . S
H2932 C2918 0.960 . S
H2933 C2919 0.961 . S
H2934 C2919 0.961 . S
H2935 C2919 0.961 . S
H2936 C2920 0.931 . S
H2937 C2925 0.930 . S
H2938 C2926 0.956 . S
H2939 C2926 0.961 . S
H2940 C2926 0.961 . S
H2941 C2927 0.958 . S
H2942 C2927 0.961 . S
H2943 C2927 0.960 . S
C2944 C2945 1.391 . S
C2944 C2946 1.394 . S
C2944 H2960 0.931 . S
C2945 C2944 1.391 . S
C2945 C2949 1.376 . S
C2946 C2944 1.394 . S
C2946 C2947 1.369 . S
C2946 C2950 1.531 . S
C2947 C2946 1.369 . S
C2947 C2948 1.410 . S
C2947 C2955 1.503 . S
C2948 C2947 1.410 . S
C2948 C2949 1.392 . S
C2948 C2951 1.511 . S
C2949 C2945 1.376 . S
C2949 C2948 1.392 . S
C2949 H2961 0.929 . S
C2950 C2946 1.531 . S
C2950 H2962 0.960 . S
C2950 H2963 0.962 . S
C2950 H2964 0.960 . S
C2951 C2948 1.511 . S
C2951 H2965 0.961 . S
C2951 H2966 0.961 . S
C2951 H2967 0.961 . S
C2952 C2953 1.370 . S
C2952 C2954 1.363 . S
C2952 H2968 0.931 . S
C2953 C2952 1.370 . S
C2953 C2957 1.408 . S
C2954 C2952 1.363 . S
C2954 C2955 1.370 . S
C2954 C2958 1.524 . S
C2955 C2947 1.503 . S
C2955 C2954 1.370 . S
C2955 C2956 1.403 . S
C2956 C2955 1.403 . S
C2956 C2957 1.404 . S
C2956 C2959 1.539 . S
C2957 C2953 1.408 . S
C2957 C2956 1.404 . S
C2957 H2969 0.930 . S
C2958 C2954 1.524 . S
C2958 H2970 0.956 . S
C2958 H2971 0.961 . S
C2958 H2972 0.961 . S
C2959 C2956 1.539 . S
C2959 H2973 0.958 . S
C2959 H2974 0.961 . S
C2959 H2975 0.960 . S
H2960 C2944 0.931 . S
H2961 C2949 0.929 . S
H2962 C2950 0.960 . S
H2963 C2950 0.962 . S
H2964 C2950 0.960 . S
H2965 C2951 0.961 . S
H2966 C2951 0.961 . S
H2967 C2951 0.961 . S
H2968 C2952 0.931 . S
H2969 C2957 0.930 . S
H2970 C2958 0.956 . S
H2971 C2958 0.961 . S
H2972 C2958 0.961 . S
H2973 C2959 0.958 . S
H2974 C2959 0.961 . S
H2975 C2959 0.960 . S
C2976 C2977 1.391 . S
C2976 C2978 1.394 . S
C2976 H2992 0.931 . S
C2977 C2976 1.391 . S
C2977 C2981 1.376 . S
C2978 C2976 1.394 . S
C2978 C2979 1.369 . S
C2978 C2982 1.531 . S
C2979 C2978 1.369 . S
C2979 C2980 1.410 . S
C2979 C2987 1.503 . S
C2980 C2979 1.410 . S
C2980 C2981 1.392 . S
C2980 C2983 1.511 . S
C2981 C2977 1.376 . S
C2981 C2980 1.392 . S
C2981 H2993 0.929 . S
C2982 C2978 1.531 . S
C2982 H2994 0.960 . S
C2982 H2995 0.962 . S
C2982 H2996 0.960 . S
C2983 C2980 1.511 . S
C2983 H2997 0.961 . S
C2983 H2998 0.961 . S
C2983 H2999 0.961 . S
C2984 C2985 1.370 . S
C2984 C2986 1.363 . S
C2984 H3000 0.931 . S
C2985 C2984 1.370 . S
C2985 C2989 1.408 . S
C2986 C2984 1.363 . S
C2986 C2987 1.370 . S
C2986 C2990 1.524 . S
C2987 C2979 1.503 . S
C2987 C2986 1.370 . S
C2987 C2988 1.403 . S
C2988 C2987 1.403 . S
C2988 C2989 1.404 . S
C2988 C2991 1.539 . S
C2989 C2985 1.408 . S
C2989 C2988 1.404 . S
C2989 H3001 0.930 . S
C2990 C2986 1.524 . S
C2990 H3002 0.956 . S
C2990 H3003 0.961 . S
C2990 H3004 0.961 . S
C2991 C2988 1.539 . S
C2991 H3005 0.958 . S
C2991 H3006 0.961 . S
C2991 H3007 0.960 . S
H2992 C2976 0.931 . S
H2993 C2981 0.929 . S
H2994 C2982 0.960 . S
H2995 C2982 0.962 . S
H2996 C2982 0.960 . S
H2997 C2983 0.961 . S
H2998 C2983 0.961 . S
H2999 C2983 0.961 . S
H3000 C2984 0.931 . S
H3001 C2989 0.930 . S
H3002 C2990 0.956 . S
H3003 C2990 0.961 . S
H3004 C2990 0.961 . S
H3005 C2991 0.958 . S
H3006 C2991 0.961 . S
H3007 C2991 0.960 . S
C3008 C3009 1.391 . S
C3008 C3010 1.394 . S
C3008 H3024 0.931 . S
C3009 C3008 1.391 . S
C3009 C3013 1.376 . S
C3010 C3008 1.394 . S
C3010 C3011 1.369 . S
C3010 C3014 1.531 . S
C3011 C3010 1.369 . S
C3011 C3012 1.410 . S
C3011 C3019 1.503 . S
C3012 C3011 1.410 . S
C3012 C3013 1.392 . S
C3012 C3015 1.511 . S
C3013 C3009 1.376 . S
C3013 C3012 1.392 . S
C3013 H3025 0.929 . S
C3014 C3010 1.531 . S
C3014 H3026 0.960 . S
C3014 H3027 0.962 . S
C3014 H3028 0.960 . S
C3015 C3012 1.511 . S
C3015 H3029 0.961 . S
C3015 H3030 0.961 . S
C3015 H3031 0.961 . S
C3016 C3017 1.370 . S
C3016 C3018 1.363 . S
C3016 H3032 0.931 . S
C3017 C3016 1.370 . S
C3017 C3021 1.408 . S
C3018 C3016 1.363 . S
C3018 C3019 1.370 . S
C3018 C3022 1.524 . S
C3019 C3011 1.503 . S
C3019 C3018 1.370 . S
C3019 C3020 1.403 . S
C3020 C3019 1.403 . S
C3020 C3021 1.404 . S
C3020 C3023 1.539 . S
C3021 C3017 1.408 . S
C3021 C3020 1.404 . S
C3021 H3033 0.930 . S
C3022 C3018 1.524 . S
C3022 H3034 0.956 . S
C3022 H3035 0.961 . S
C3022 H3036 0.961 . S
C3023 C3020 1.539 . S
C3023 H3037 0.958 . S
C3023 H3038 0.961 . S
C3023 H3039 0.960 . S
H3024 C3008 0.931 . S
H3025 C3013 0.929 . S
H3026 C3014 0.960 . S
H3027 C3014 0.962 . S
H3028 C3014 0.960 . S
H3029 C3015 0.961 . S
H3030 C3015 0.961 . S
H3031 C3015 0.961 . S
H3032 C3016 0.931 . S
H3033 C3021 0.930 . S
H3034 C3022 0.956 . S
H3035 C3022 0.961 . S
H3036 C3022 0.961 . S
H3037 C3023 0.958 . S
H3038 C3023 0.961 . S
H3039 C3023 0.960 . S
C3040 C3041 1.391 . S
C3040 C3042 1.394 . S
C3040 H3056 0.931 . S
C3041 C3040 1.391 . S
C3041 C3045 1.376 . S
C3042 C3040 1.394 . S
C3042 C3043 1.369 . S
C3042 C3046 1.531 . S
C3043 C3042 1.369 . S
C3043 C3044 1.410 . S
C3043 C3051 1.503 . S
C3044 C3043 1.410 . S
C3044 C3045 1.392 . S
C3044 C3047 1.511 . S
C3045 C3041 1.376 . S
C3045 C3044 1.392 . S
C3045 H3057 0.929 . S
C3046 C3042 1.531 . S
C3046 H3058 0.960 . S
C3046 H3059 0.962 . S
C3046 H3060 0.960 . S
C3047 C3044 1.511 . S
C3047 H3061 0.961 . S
C3047 H3062 0.961 . S
C3047 H3063 0.961 . S
C3048 C3049 1.370 . S
C3048 C3050 1.363 . S
C3048 H3064 0.931 . S
C3049 C3048 1.370 . S
C3049 C3053 1.408 . S
C3050 C3048 1.363 . S
C3050 C3051 1.370 . S
C3050 C3054 1.524 . S
C3051 C3043 1.503 . S
C3051 C3050 1.370 . S
C3051 C3052 1.403 . S
C3052 C3051 1.403 . S
C3052 C3053 1.404 . S
C3052 C3055 1.539 . S
C3053 C3049 1.408 . S
C3053 C3052 1.404 . S
C3053 H3065 0.930 . S
C3054 C3050 1.524 . S
C3054 H3066 0.956 . S
C3054 H3067 0.961 . S
C3054 H3068 0.961 . S
C3055 C3052 1.539 . S
C3055 H3069 0.958 . S
C3055 H3070 0.961 . S
C3055 H3071 0.960 . S
H3056 C3040 0.931 . S
H3057 C3045 0.929 . S
H3058 C3046 0.960 . S
H3059 C3046 0.962 . S
H3060 C3046 0.960 . S
H3061 C3047 0.961 . S
H3062 C3047 0.961 . S
H3063 C3047 0.961 . S
H3064 C3048 0.931 . S
H3065 C3053 0.930 . S
H3066 C3054 0.956 . S
H3067 C3054 0.961 . S
H3068 C3054 0.961 . S
H3069 C3055 0.958 . S
H3070 C3055 0.961 . S
H3071 C3055 0.960 . S
C3072 C3073 1.391 . S
C3072 C3074 1.394 . S
C3072 H3088 0.931 . S
C3073 C3072 1.391 . S
C3073 C3077 1.376 . S
C3074 C3072 1.394 . S
C3074 C3075 1.369 . S
C3074 C3078 1.531 . S
C3075 C3074 1.369 . S
C3075 C3076 1.410 . S
C3075 C3083 1.503 . S
C3076 C3075 1.410 . S
C3076 C3077 1.392 . S
C3076 C3079 1.511 . S
C3077 C3073 1.376 . S
C3077 C3076 1.392 . S
C3077 H3089 0.929 . S
C3078 C3074 1.531 . S
C3078 H3090 0.960 . S
C3078 H3091 0.962 . S
C3078 H3092 0.960 . S
C3079 C3076 1.511 . S
C3079 H3093 0.961 . S
C3079 H3094 0.961 . S
C3079 H3095 0.961 . S
C3080 C3081 1.370 . S
C3080 C3082 1.363 . S
C3080 H3096 0.931 . S
C3081 C3080 1.370 . S
C3081 C3085 1.408 . S
C3082 C3080 1.363 . S
C3082 C3083 1.370 . S
C3082 C3086 1.524 . S
C3083 C3075 1.503 . S
C3083 C3082 1.370 . S
C3083 C3084 1.403 . S
C3084 C3083 1.403 . S
C3084 C3085 1.404 . S
C3084 C3087 1.539 . S
C3085 C3081 1.408 . S
C3085 C3084 1.404 . S
C3085 H3097 0.930 . S
C3086 C3082 1.524 . S
C3086 H3098 0.956 . S
C3086 H3099 0.961 . S
C3086 H3100 0.961 . S
C3087 C3084 1.539 . S
C3087 H3101 0.958 . S
C3087 H3102 0.961 . S
C3087 H3103 0.960 . S
H3088 C3072 0.931 . S
H3089 C3077 0.929 . S
H3090 C3078 0.960 . S
H3091 C3078 0.962 . S
H3092 C3078 0.960 . S
H3093 C3079 0.961 . S
H3094 C3079 0.961 . S
H3095 C3079 0.961 . S
H3096 C3080 0.931 . S
H3097 C3085 0.930 . S
H3098 C3086 0.956 . S
H3099 C3086 0.961 . S
H3100 C3086 0.961 . S
H3101 C3087 0.958 . S
H3102 C3087 0.961 . S
H3103 C3087 0.960 . S
C3104 C3105 1.391 . S
C3104 C3106 1.394 . S
C3104 H3120 0.931 . S
C3105 C3104 1.391 . S
C3105 C3109 1.376 . S
C3106 C3104 1.394 . S
C3106 C3107 1.369 . S
C3106 C3110 1.531 . S
C3107 C3106 1.369 . S
C3107 C3108 1.410 . S
C3107 C3115 1.503 . S
C3108 C3107 1.410 . S
C3108 C3109 1.392 . S
C3108 C3111 1.511 . S
C3109 C3105 1.376 . S
C3109 C3108 1.392 . S
C3109 H3121 0.929 . S
C3110 C3106 1.531 . S
C3110 H3122 0.960 . S
C3110 H3123 0.962 . S
C3110 H3124 0.960 . S
C3111 C3108 1.511 . S
C3111 H3125 0.961 . S
C3111 H3126 0.961 . S
C3111 H3127 0.961 . S
C3112 C3113 1.370 . S
C3112 C3114 1.363 . S
C3112 H3128 0.931 . S
C3113 C3112 1.370 . S
C3113 C3117 1.408 . S
C3114 C3112 1.363 . S
C3114 C3115 1.370 . S
C3114 C3118 1.524 . S
C3115 C3107 1.503 . S
C3115 C3114 1.370 . S
C3115 C3116 1.403 . S
C3116 C3115 1.403 . S
C3116 C3117 1.404 . S
C3116 C3119 1.539 . S
C3117 C3113 1.408 . S
C3117 C3116 1.404 . S
C3117 H3129 0.930 . S
C3118 C3114 1.524 . S
C3118 H3130 0.956 . S
C3118 H3131 0.961 . S
C3118 H3132 0.961 . S
C3119 C3116 1.539 . S
C3119 H3133 0.958 . S
C3119 H3134 0.961 . S
C3119 H3135 0.960 . S
H3120 C3104 0.931 . S
H3121 C3109 0.929 . S
H3122 C3110 0.960 . S
H3123 C3110 0.962 . S
H3124 C3110 0.960 . S
H3125 C3111 0.961 . S
H3126 C3111 0.961 . S
H3127 C3111 0.961 . S
H3128 C3112 0.931 . S
H3129 C3117 0.930 . S
H3130 C3118 0.956 . S
H3131 C3118 0.961 . S
H3132 C3118 0.961 . S
H3133 C3119 0.958 . S
H3134 C3119 0.961 . S
H3135 C3119 0.960 . S
C3136 C3137 1.391 . S
C3136 C3138 1.394 . S
C3136 H3152 0.931 . S
C3137 C3136 1.391 . S
C3137 C3141 1.376 . S
C3138 C3136 1.394 . S
C3138 C3139 1.369 . S
C3138 C3142 1.531 . S
C3139 C3138 1.369 . S
C3139 C3140 1.410 . S
C3139 C3147 1.503 . S
C3140 C3139 1.410 . S
C3140 C3141 1.392 . S
C3140 C3143 1.511 . S
C3141 C3137 1.376 . S
C3141 C3140 1.392 . S
C3141 H3153 0.929 . S
C3142 C3138 1.531 . S
C3142 H3154 0.960 . S
C3142 H3155 0.962 . S
C3142 H3156 0.960 . S
C3143 C3140 1.511 . S
C3143 H3157 0.961 . S
C3143 H3158 0.961 . S
C3143 H3159 0.961 . S
C3144 C3145 1.370 . S
C3144 C3146 1.363 . S
C3144 H3160 0.931 . S
C3145 C3144 1.370 . S
C3145 C3149 1.408 . S
C3146 C3144 1.363 . S
C3146 C3147 1.370 . S
C3146 C3150 1.524 . S
C3147 C3139 1.503 . S
C3147 C3146 1.370 . S
C3147 C3148 1.403 . S
C3148 C3147 1.403 . S
C3148 C3149 1.404 . S
C3148 C3151 1.539 . S
C3149 C3145 1.408 . S
C3149 C3148 1.404 . S
C3149 H3161 0.930 . S
C3150 C3146 1.524 . S
C3150 H3162 0.956 . S
C3150 H3163 0.961 . S
C3150 H3164 0.961 . S
C3151 C3148 1.539 . S
C3151 H3165 0.958 . S
C3151 H3166 0.961 . S
C3151 H3167 0.960 . S
H3152 C3136 0.931 . S
H3153 C3141 0.929 . S
H3154 C3142 0.960 . S
H3155 C3142 0.962 . S
H3156 C3142 0.960 . S
H3157 C3143 0.961 . S
H3158 C3143 0.961 . S
H3159 C3143 0.961 . S
H3160 C3144 0.931 . S
H3161 C3149 0.930 . S
H3162 C3150 0.956 . S
H3163 C3150 0.961 . S
H3164 C3150 0.961 . S
H3165 C3151 0.958 . S
H3166 C3151 0.961 . S
H3167 C3151 0.960 . S
C3168 C3169 1.391 . S
C3168 C3170 1.394 . S
C3168 H3184 0.931 . S
C3169 C3168 1.391 . S
C3169 C3173 1.376 . S
C3170 C3168 1.394 . S
C3170 C3171 1.369 . S
C3170 C3174 1.531 . S
C3171 C3170 1.369 . S
C3171 C3172 1.410 . S
C3171 C3179 1.503 . S
C3172 C3171 1.410 . S
C3172 C3173 1.392 . S
C3172 C3175 1.511 . S
C3173 C3169 1.376 . S
C3173 C3172 1.392 . S
C3173 H3185 0.929 . S
C3174 C3170 1.531 . S
C3174 H3186 0.960 . S
C3174 H3187 0.962 . S
C3174 H3188 0.960 . S
C3175 C3172 1.511 . S
C3175 H3189 0.961 . S
C3175 H3190 0.961 . S
C3175 H3191 0.961 . S
C3176 C3177 1.370 . S
C3176 C3178 1.363 . S
C3176 H3192 0.931 . S
C3177 C3176 1.370 . S
C3177 C3181 1.408 . S
C3178 C3176 1.363 . S
C3178 C3179 1.370 . S
C3178 C3182 1.524 . S
C3179 C3171 1.503 . S
C3179 C3178 1.370 . S
C3179 C3180 1.403 . S
C3180 C3179 1.403 . S
C3180 C3181 1.404 . S
C3180 C3183 1.539 . S
C3181 C3177 1.408 . S
C3181 C3180 1.404 . S
C3181 H3193 0.930 . S
C3182 C3178 1.524 . S
C3182 H3194 0.956 . S
C3182 H3195 0.961 . S
C3182 H3196 0.961 . S
C3183 C3180 1.539 . S
C3183 H3197 0.958 . S
C3183 H3198 0.961 . S
C3183 H3199 0.960 . S
H3184 C3168 0.931 . S
H3185 C3173 0.929 . S
H3186 C3174 0.960 . S
H3187 C3174 0.962 . S
H3188 C3174 0.960 . S
H3189 C3175 0.961 . S
H3190 C3175 0.961 . S
H3191 C3175 0.961 . S
H3192 C3176 0.931 . S
H3193 C3181 0.930 . S
H3194 C3182 0.956 . S
H3195 C3182 0.961 . S
H3196 C3182 0.961 . S
H3197 C3183 0.958 . S
H3198 C3183 0.961 . S
H3199 C3183 0.960 . S
C1153 C1048 1.532 . S
C1161 C4 1.530 . S
C1185 C40 1.536 . S
C1193 C1084 1.530 . S
C1217 C1120 1.529 . S
C1225 C76 1.527 . S
C1249 C1012 1.509 . S
C1257 C112 1.520 . S
C1281 C148 1.523 . S
C1289 C976 1.524 . S
C1313 C868 1.524 . S
C1321 C184 1.525 . S
C1345 C220 1.523 . S
C1353 C904 1.527 . S
C1377 C940 1.519 . S
C1385 C256 1.523 . S
C1409 C292 1.505 . S
C1417 C760 1.518 . S
C1441 C328 1.521 . S
C1449 C796 1.526 . S
C1473 C832 1.529 . S
C1481 C364 1.529 . S
C1505 C400 1.525 . S
C1513 C724 1.525 . S
C1537 C688 1.514 . S
C1545 C436 1.521 . S
C1569 C580 1.510 . S
C1577 C472 1.519 . S
C1601 C508 1.505 . S
C1609 C616 1.518 . S
C1633 C544 1.526 . S
C1641 C652 1.527 . S
C1665 C14 1.341 . S
C1673 C374 1.319 . S
C1697 C410 1.327 . S
C1705 C50 1.317 . S
C1729 C302 1.268 . S
C1737 C86 1.292 . S
C1761 C338 1.261 . S
C1769 C122 1.288 . S
C1793 C158 1.260 . S
C1801 C518 1.286 . S
C1825 C554 1.281 . S
C1833 C194 1.293 . S
C1857 C446 1.338 . S
C1865 C230 1.317 . S
C1889 C482 1.332 . S
C1897 C266 1.319 . S
C1921 C590 1.335 . S
C1929 C950 1.316 . S
C1953 C986 1.321 . S
C1961 C626 1.315 . S
C1985 C878 1.264 . S
C1993 C662 1.290 . S
C2017 C698 1.324 . S
C2025 C914 1.316 . S
C2049 C734 1.258 . S
C2057 C1094 1.287 . S
C2081 C1130 1.263 . S
C2089 C770 1.286 . S
C2113 C1022 1.257 . S
C2121 C806 1.287 . S
C2145 C842 1.290 . S
C2153 C1058 1.296 . S
C2177 C3 1.430 . S
C2185 C147 1.428 . S
C2209 C39 1.430 . S
C2217 C183 1.437 . S
C2241 C219 1.432 . S
C2249 C75 1.428 . S
C2273 C111 1.436 . S
C2281 C255 1.436 . S
C2305 C291 1.419 . S
C2313 C435 1.432 . S
C2337 C471 1.439 . S
C2345 C327 1.435 . S
C2369 C507 1.438 . S
C2377 C363 1.431 . S
C2401 C399 1.419 . S
C2409 C543 1.432 . S
C2433 C579 1.420 . S
C2441 C723 1.435 . S
C2465 C759 1.426 . S
C2473 C615 1.429 . S
C2497 C651 1.420 . S
C2505 C795 1.435 . S
C2529 C831 1.425 . S
C2537 C687 1.429 . S
C2561 C1011 1.438 . S
C2569 C867 1.435 . S
C2593 C903 1.421 . S
C2601 C1047 1.429 . S
C2625 C939 1.421 . S
C2633 C1083 1.429 . S
C2657 C975 1.430 . S
C2665 C1119 1.429 . S
C2689 C2 1.367 . S
C2697 C182 1.368 . S
C2721 C38 1.354 . S
C2729 C218 1.366 . S
C2753 C254 1.373 . S
C2761 C74 1.367 . S
C2785 C146 1.362 . S
C2793 C110 1.355 . S
C2817 C470 1.338 . S
C2825 C290 1.356 . S
C2849 C506 1.355 . S
C2857 C326 1.352 . S
C2881 C542 1.375 . S
C2889 C362 1.360 . S
C2913 C398 1.341 . S
C2921 C434 1.363 . S
C2945 C578 1.363 . S
C2953 C758 1.367 . S
C2977 C794 1.338 . S
C2985 C614 1.357 . S
C3009 C830 1.348 . S
C3017 C650 1.352 . S
C3041 C686 1.337 . S
C3049 C722 1.354 . S
C3073 C1046 1.372 . S
C3081 C866 1.366 . S
C3105 C902 1.374 . S
C3113 C1082 1.359 . S
C3137 C938 1.351 . S
C3145 C1118 1.352 . S
C3169 C1010 1.356 . S
C3177 C974 1.352 . S
