# Generated by pormake.
# Topology uka, (4)-cn, num edge types: 1
# Building blocks:
#     Node 0, Type 0, BuildingBlock: UXUYUI_clean_sbu_0, # of connection points: 4
#     Node 1, Type 0, BuildingBlock: UXUYUI_clean_sbu_0, # of connection points: 4
#     Node 2, Type 0, BuildingBlock: UXUYUI_clean_sbu_0, # of connection points: 4
#     Node 3, Type 0, BuildingBlock: UXUYUI_clean_sbu_0, # of connection points: 4
#     Node 4, Type 0, BuildingBlock: UXUYUI_clean_sbu_0, # of connection points: 4
#     Node 5, Type 0, BuildingBlock: UXUYUI_clean_sbu_0, # of connection points: 4
#     Node 6, Type 0, BuildingBlock: UXUYUI_clean_sbu_0, # of connection points: 4
#     Node 7, Type 0, BuildingBlock: UXUYUI_clean_sbu_0, # of connection points: 4
#     Node 8, Type 0, BuildingBlock: UXUYUI_clean_sbu_0, # of connection points: 4
#     Node 9, Type 0, BuildingBlock: UXUYUI_clean_sbu_0, # of connection points: 4
#     Node 10, Type 0, BuildingBlock: UXUYUI_clean_sbu_0, # of connection points: 4
#     Node 11, Type 0, BuildingBlock: UXUYUI_clean_sbu_0, # of connection points: 4
#     Node 12, Type 0, BuildingBlock: UXUYUI_clean_sbu_0, # of connection points: 4
#     Node 13, Type 0, BuildingBlock: UXUYUI_clean_sbu_0, # of connection points: 4
#     Node 14, Type 0, BuildingBlock: UXUYUI_clean_sbu_0, # of connection points: 4
#     Node 15, Type 0, BuildingBlock: UXUYUI_clean_sbu_0, # of connection points: 4
#     Node 16, Type 0, BuildingBlock: UXUYUI_clean_sbu_0, # of connection points: 4
#     Node 17, Type 0, BuildingBlock: UXUYUI_clean_sbu_0, # of connection points: 4
#     Node 18, Type 0, BuildingBlock: UXUYUI_clean_sbu_0, # of connection points: 4
#     Node 19, Type 0, BuildingBlock: UXUYUI_clean_sbu_0, # of connection points: 4
#     Node 20, Type 0, BuildingBlock: UXUYUI_clean_sbu_0, # of connection points: 4
#     Node 21, Type 0, BuildingBlock: UXUYUI_clean_sbu_0, # of connection points: 4
#     Node 22, Type 0, BuildingBlock: UXUYUI_clean_sbu_0, # of connection points: 4
#     Node 23, Type 0, BuildingBlock: UXUYUI_clean_sbu_0, # of connection points: 4
#     Node 24, Type 0, BuildingBlock: UXUYUI_clean_sbu_0, # of connection points: 4
#     Node 25, Type 0, BuildingBlock: UXUYUI_clean_sbu_0, # of connection points: 4
#     Node 26, Type 0, BuildingBlock: UXUYUI_clean_sbu_0, # of connection points: 4
#     Node 27, Type 0, BuildingBlock: UXUYUI_clean_sbu_0, # of connection points: 4
#     Node 28, Type 0, BuildingBlock: UXUYUI_clean_sbu_0, # of connection points: 4
#     Node 29, Type 0, BuildingBlock: UXUYUI_clean_sbu_0, # of connection points: 4
#     Node 30, Type 0, BuildingBlock: UXUYUI_clean_sbu_0, # of connection points: 4
#     Node 31, Type 0, BuildingBlock: UXUYUI_clean_sbu_0, # of connection points: 4
#     Edge 32, Type (0, 0), BuildingBlock: TEMPAE_clean_linker_10, # of connection points: 2
#     Edge 33, Type (0, 0), BuildingBlock: TEMPAE_clean_linker_10, # of connection points: 2
#     Edge 34, Type (0, 0), BuildingBlock: TEMPAE_clean_linker_10, # of connection points: 2
#     Edge 35, Type (0, 0), BuildingBlock: TEMPAE_clean_linker_10, # of connection points: 2
#     Edge 36, Type (0, 0), BuildingBlock: TEMPAE_clean_linker_10, # of connection points: 2
#     Edge 37, Type (0, 0), BuildingBlock: TEMPAE_clean_linker_10, # of connection points: 2
#     Edge 38, Type (0, 0), BuildingBlock: TEMPAE_clean_linker_10, # of connection points: 2
#     Edge 39, Type (0, 0), BuildingBlock: TEMPAE_clean_linker_10, # of connection points: 2
#     Edge 40, Type (0, 0), BuildingBlock: TEMPAE_clean_linker_10, # of connection points: 2
#     Edge 41, Type (0, 0), BuildingBlock: TEMPAE_clean_linker_10, # of connection points: 2
#     Edge 42, Type (0, 0), BuildingBlock: TEMPAE_clean_linker_10, # of connection points: 2
#     Edge 43, Type (0, 0), BuildingBlock: TEMPAE_clean_linker_10, # of connection points: 2
#     Edge 44, Type (0, 0), BuildingBlock: TEMPAE_clean_linker_10, # of connection points: 2
#     Edge 45, Type (0, 0), BuildingBlock: TEMPAE_clean_linker_10, # of connection points: 2
#     Edge 46, Type (0, 0), BuildingBlock: TEMPAE_clean_linker_10, # of connection points: 2
#     Edge 47, Type (0, 0), BuildingBlock: TEMPAE_clean_linker_10, # of connection points: 2
#     Edge 48, Type (0, 0), BuildingBlock: TEMPAE_clean_linker_10, # of connection points: 2
#     Edge 49, Type (0, 0), BuildingBlock: TEMPAE_clean_linker_10, # of connection points: 2
#     Edge 50, Type (0, 0), BuildingBlock: TEMPAE_clean_linker_10, # of connection points: 2
#     Edge 51, Type (0, 0), BuildingBlock: TEMPAE_clean_linker_10, # of connection points: 2
#     Edge 52, Type (0, 0), BuildingBlock: TEMPAE_clean_linker_10, # of connection points: 2
#     Edge 53, Type (0, 0), BuildingBlock: TEMPAE_clean_linker_10, # of connection points: 2
#     Edge 54, Type (0, 0), BuildingBlock: TEMPAE_clean_linker_10, # of connection points: 2
#     Edge 55, Type (0, 0), BuildingBlock: TEMPAE_clean_linker_10, # of connection points: 2
#     Edge 56, Type (0, 0), BuildingBlock: TEMPAE_clean_linker_10, # of connection points: 2
#     Edge 57, Type (0, 0), BuildingBlock: TEMPAE_clean_linker_10, # of connection points: 2
#     Edge 58, Type (0, 0), BuildingBlock: TEMPAE_clean_linker_10, # of connection points: 2
#     Edge 59, Type (0, 0), BuildingBlock: TEMPAE_clean_linker_10, # of connection points: 2
#     Edge 60, Type (0, 0), BuildingBlock: TEMPAE_clean_linker_10, # of connection points: 2
#     Edge 61, Type (0, 0), BuildingBlock: TEMPAE_clean_linker_10, # of connection points: 2
#     Edge 62, Type (0, 0), BuildingBlock: TEMPAE_clean_linker_10, # of connection points: 2
#     Edge 63, Type (0, 0), BuildingBlock: TEMPAE_clean_linker_10, # of connection points: 2
#     Edge 64, Type (0, 0), BuildingBlock: TEMPAE_clean_linker_10, # of connection points: 2
#     Edge 65, Type (0, 0), BuildingBlock: TEMPAE_clean_linker_10, # of connection points: 2
#     Edge 66, Type (0, 0), BuildingBlock: TEMPAE_clean_linker_10, # of connection points: 2
#     Edge 67, Type (0, 0), BuildingBlock: TEMPAE_clean_linker_10, # of connection points: 2
#     Edge 68, Type (0, 0), BuildingBlock: TEMPAE_clean_linker_10, # of connection points: 2
#     Edge 69, Type (0, 0), BuildingBlock: TEMPAE_clean_linker_10, # of connection points: 2
#     Edge 70, Type (0, 0), BuildingBlock: TEMPAE_clean_linker_10, # of connection points: 2
#     Edge 71, Type (0, 0), BuildingBlock: TEMPAE_clean_linker_10, # of connection points: 2
#     Edge 72, Type (0, 0), BuildingBlock: TEMPAE_clean_linker_10, # of connection points: 2
#     Edge 73, Type (0, 0), BuildingBlock: TEMPAE_clean_linker_10, # of connection points: 2
#     Edge 74, Type (0, 0), BuildingBlock: TEMPAE_clean_linker_10, # of connection points: 2
#     Edge 75, Type (0, 0), BuildingBlock: TEMPAE_clean_linker_10, # of connection points: 2
#     Edge 76, Type (0, 0), BuildingBlock: TEMPAE_clean_linker_10, # of connection points: 2
#     Edge 77, Type (0, 0), BuildingBlock: TEMPAE_clean_linker_10, # of connection points: 2
#     Edge 78, Type (0, 0), BuildingBlock: TEMPAE_clean_linker_10, # of connection points: 2
#     Edge 79, Type (0, 0), BuildingBlock: TEMPAE_clean_linker_10, # of connection points: 2
#     Edge 80, Type (0, 0), BuildingBlock: TEMPAE_clean_linker_10, # of connection points: 2
#     Edge 81, Type (0, 0), BuildingBlock: TEMPAE_clean_linker_10, # of connection points: 2
#     Edge 82, Type (0, 0), BuildingBlock: TEMPAE_clean_linker_10, # of connection points: 2
#     Edge 83, Type (0, 0), BuildingBlock: TEMPAE_clean_linker_10, # of connection points: 2
#     Edge 84, Type (0, 0), BuildingBlock: TEMPAE_clean_linker_10, # of connection points: 2
#     Edge 85, Type (0, 0), BuildingBlock: TEMPAE_clean_linker_10, # of connection points: 2
#     Edge 86, Type (0, 0), BuildingBlock: TEMPAE_clean_linker_10, # of connection points: 2
#     Edge 87, Type (0, 0), BuildingBlock: TEMPAE_clean_linker_10, # of connection points: 2
#     Edge 88, Type (0, 0), BuildingBlock: TEMPAE_clean_linker_10, # of connection points: 2
#     Edge 89, Type (0, 0), BuildingBlock: TEMPAE_clean_linker_10, # of connection points: 2
#     Edge 90, Type (0, 0), BuildingBlock: TEMPAE_clean_linker_10, # of connection points: 2
#     Edge 91, Type (0, 0), BuildingBlock: TEMPAE_clean_linker_10, # of connection points: 2
#     Edge 92, Type (0, 0), BuildingBlock: TEMPAE_clean_linker_10, # of connection points: 2
#     Edge 93, Type (0, 0), BuildingBlock: TEMPAE_clean_linker_10, # of connection points: 2
#     Edge 94, Type (0, 0), BuildingBlock: TEMPAE_clean_linker_10, # of connection points: 2
#     Edge 95, Type (0, 0), BuildingBlock: TEMPAE_clean_linker_10, # of connection points: 2
# Relax obj value: 0.353
# Max RMSD: 0.280
# Mean RMSD: 0.280
data_MOF--net-uka--node1-UXUYUI_clean_sbu_0--edge1-TEMPAE_clean_linker_10
_symmetry_space_group_name_H-M    P1
_symmetry_Int_Tables_number       1
_symmetry_cell_setting            triclinic
loop_
_symmetry_equiv_pos_as_xyz
'x, y, z'
_cell_length_a     87.075609
_cell_length_b     87.044765
_cell_length_c     61.791386
_cell_angle_alpha  90.001146
_cell_angle_beta   89.977308
_cell_angle_gamma 90.007119
loop_
_atom_site_label
_atom_site_type_symbol
_atom_site_fract_x
_atom_site_fract_y
_atom_site_fract_z
_atom_type_partial_charge
Li0 Li 0.12059 0.25251 0.26578 0.0
Li1 Li 0.12341 0.27908 0.27954 0.0
Li2 Li 0.12061 0.27324 0.24187 0.0
Li3 Li 0.14412 0.26641 0.26017 0.0
C4 C 0.09257 0.27563 0.25633 0.0
N5 N 0.06722 0.28876 0.2368 0.0
C6 C 0.08837 0.29072 0.26126 0.0
C7 C 0.08376 0.26715 0.24166 0.0
C8 C 0.07553 0.29717 0.25118 0.0
C9 C 0.07103 0.27401 0.23189 0.0
C10 C 0.14489 0.26271 0.30453 0.0
C11 C 0.16313 0.27868 0.3234 0.0
N12 N 0.16561 0.26712 0.33779 0.0
C13 C 0.14762 0.25098 0.31947 0.0
C14 C 0.15271 0.27667 0.30646 0.0
C15 C 0.15814 0.25344 0.3362 0.0
C16 C 0.12384 0.22225 0.27981 0.0
N17 N 0.11332 0.2329 0.27359 0.0
C18 C 0.0927 0.21597 0.28216 0.0
C19 C 0.09801 0.22999 0.27427 0.0
C20 C 0.10327 0.20498 0.28964 0.0
C21 C 0.11904 0.20808 0.28788 0.0
H22 H 0.13595 0.225 0.27917 0.0
H23 H 0.08994 0.23874 0.26934 0.0
C24 C 0.11946 0.30793 0.29963 0.0
N25 N 0.11934 0.29248 0.30277 0.0
C26 C 0.11638 0.31784 0.31687 0.0
C27 C 0.11378 0.29569 0.34028 0.0
C28 C 0.11664 0.28623 0.32255 0.0
C29 C 0.11345 0.31168 0.33745 0.0
H30 H 0.12167 0.31252 0.28367 0.0
H31 H 0.11658 0.27389 0.32448 0.0
C32 C 0.13201 0.23942 0.231 0.0
N33 N 0.13057 0.2094 0.21653 0.0
C34 C 0.14542 0.23071 0.22898 0.0
C35 C 0.11791 0.23295 0.22516 0.0
C36 C 0.14444 0.21553 0.22175 0.0
C37 C 0.1174 0.21773 0.21805 0.0
C38 C 0.14403 0.29533 0.24041 0.0
C39 C 0.14891 0.28787 0.22157 0.0
C40 C 0.14751 0.31086 0.24342 0.0
C41 C 0.15722 0.2961 0.20608 0.0
C42 C 0.15585 0.31867 0.22755 0.0
N43 N 0.16049 0.31119 0.20937 0.0
C44 C 0.10922 0.29663 0.21563 0.0
C45 C 0.1086 0.27205 0.19913 0.0
C46 C 0.10224 0.30322 0.19763 0.0
N47 N 0.11213 0.28131 0.2161 0.0
C48 C 0.10146 0.27813 0.18082 0.0
C49 C 0.09809 0.2939 0.18001 0.0
H50 H 0.11215 0.3037 0.22942 0.0
H51 H 0.11108 0.25991 0.19995 0.0
C52 C 0.16963 0.2496 0.26893 0.0
N53 N 0.16551 0.26374 0.26172 0.0
C54 C 0.18481 0.24652 0.2743 0.0
C55 C 0.19132 0.27267 0.26466 0.0
C56 C 0.17593 0.27528 0.25959 0.0
C57 C 0.19582 0.25818 0.27234 0.0
H58 H 0.16096 0.24085 0.27124 0.0
H59 H 0.1723 0.28662 0.2548 0.0
O60 O 0.10533 0.26926 0.26565 0.0
O61 O 0.1349 0.26032 0.28777 0.0
O62 O 0.13274 0.25428 0.23823 0.0
O63 O 0.13566 0.28766 0.25575 0.0
H64 H 0.09502 0.29745 0.27256 0.0
H65 H 0.08682 0.25546 0.23763 0.0
H66 H 0.07221 0.30887 0.25474 0.0
H67 H 0.0642 0.26763 0.22036 0.0
H68 H 0.16929 0.28941 0.32507 0.0
H69 H 0.14173 0.24008 0.3181 0.0
H70 H 0.15086 0.28582 0.2949 0.0
H71 H 0.16038 0.24446 0.34788 0.0
H72 H 0.08045 0.21394 0.28308 0.0
H73 H 0.12754 0.2 0.29373 0.0
H74 H 0.11608 0.33012 0.31413 0.0
H75 H 0.11126 0.29055 0.35585 0.0
H76 H 0.15649 0.23564 0.23273 0.0
H77 H 0.10743 0.23953 0.22649 0.0
H78 H 0.15473 0.20865 0.22022 0.0
H79 H 0.10653 0.21253 0.21376 0.0
H80 H 0.14635 0.27589 0.21885 0.0
H81 H 0.1438 0.31681 0.25789 0.0
H82 H 0.16106 0.29047 0.19144 0.0
H83 H 0.15862 0.33069 0.22969 0.0
H84 H 0.10011 0.31547 0.19754 0.0
H85 H 0.09834 0.27051 0.16769 0.0
H86 H 0.18789 0.23516 0.27997 0.0
H87 H 0.19952 0.28197 0.26316 0.0
Li88 Li 0.95936 0.8734 0.53332 0.0
Li89 Li 0.98519 0.86758 0.52429 0.0
Li90 Li 0.97467 0.89179 0.51175 0.0
Li91 Li 0.96691 0.86675 0.49645 0.0
C92 C 0.98721 0.88595 0.55901 0.0
N93 N 0.00761 0.88701 0.59323 0.0
C94 C 0.98336 0.87925 0.57885 0.0
C95 C 0.0014 0.89328 0.55663 0.0
C96 C 0.99384 0.8799 0.59595 0.0
C97 C 0.01157 0.89365 0.5741 0.0
C98 C 0.97299 0.84025 0.5305 0.0
C99 C 0.98945 0.8181 0.52699 0.0
N100 N 0.98512 0.81337 0.54707 0.0
C101 C 0.96865 0.83514 0.55106 0.0
C102 C 0.98341 0.83162 0.51831 0.0
C103 C 0.97492 0.82153 0.55916 0.0
C104 C 0.93446 0.85977 0.5545 0.0
N105 N 0.94379 0.87224 0.55448 0.0
C106 C 0.93258 0.88148 0.58723 0.0
C107 C 0.9427 0.88331 0.56991 0.0
C108 C 0.92355 0.86814 0.58855 0.0
C109 C 0.92423 0.85744 0.5715 0.0
H110 H 0.93553 0.85125 0.54184 0.0
H111 H 0.95016 0.89324 0.56921 0.0
C112 C 0.01703 0.86167 0.52307 0.0
N113 N 0.00403 0.85937 0.53485 0.0
C114 C 0.03125 0.85695 0.53113 0.0
C115 C 0.01837 0.84762 0.56321 0.0
C116 C 0.00447 0.85247 0.55455 0.0
C117 C 0.03201 0.84986 0.5515 0.0
H118 H 0.01641 0.86744 0.50762 0.0
H119 H 0.99408 0.85112 0.56386 0.0
C120 C 0.93793 0.88421 0.50797 0.0
N121 N 0.90655 0.88355 0.5147 0.0
C122 C 0.92909 0.87222 0.49952 0.0
C123 C 0.93079 0.89584 0.51991 0.0
C124 C 0.91325 0.8721 0.50306 0.0
C125 C 0.91492 0.8953 0.52312 0.0
C126 C 0.99162 0.87568 0.47459 0.0
C127 C 0.98946 0.88802 0.46045 0.0
C128 C -0.00213 0.86195 0.46683 0.0
C129 C 0.99344 0.88636 0.43867 0.0
C130 C 0.00167 0.86073 0.44493 0.0
N131 N -0.00061 0.87285 0.43142 0.0
C132 C 0.99429 0.91624 0.50451 0.0
C133 C 0.96816 0.92332 0.50891 0.0
C134 C -0.00129 0.9316 0.50382 0.0
N135 N 0.97929 0.91248 0.50733 0.0
C136 C 0.97205 0.93884 0.50832 0.0
C137 C 0.98753 0.94309 0.5061 0.0
H138 H 0.00286 0.90727 0.50339 0.0
H139 H 0.95634 0.91994 0.51108 0.0
C140 C 0.959 0.8414 0.47053 0.0
N141 N 0.96075 0.85691 0.47061 0.0
C142 C 0.95434 0.83388 0.45175 0.0
C143 C 0.95335 0.85845 0.43349 0.0
C144 C 0.95784 0.86552 0.45273 0.0
C145 C 0.95151 0.84245 0.43294 0.0
H146 H 0.96104 0.83488 0.48511 0.0
H147 H 0.95892 0.87788 0.45347 0.0
O148 O 0.9772 0.88525 0.54198 0.0
O149 O 0.96696 0.85355 0.52228 0.0
O150 O 0.95354 0.88428 0.50523 0.0
O151 O 0.98761 0.877 0.49591 0.0
H152 H 0.97254 0.87333 0.58092 0.0
H153 H 0.00461 0.89844 0.54138 0.0
H154 H 0.99105 0.87466 0.61133 0.0
H155 H 0.02264 0.89918 0.57243 0.0
H156 H 0.9976 0.81137 0.51778 0.0
H157 H 0.96071 0.8417 0.56083 0.0
H158 H 0.9869 0.83541 0.50239 0.0
H159 H 0.97174 0.81749 0.57509 0.0
H160 H 0.93227 0.89009 0.59988 0.0
H161 H 0.91768 0.84687 0.57193 0.0
H162 H 0.04151 0.85886 0.52158 0.0
H163 H 0.01847 0.84255 0.57922 0.0
H164 H 0.93439 0.86298 0.49054 0.0
H165 H 0.93745 0.90501 0.52705 0.0
H166 H 0.90629 0.86287 0.49665 0.0
H167 H 0.90927 0.90418 0.53244 0.0
H168 H 0.98457 0.8987 0.46614 0.0
H169 H -0.0003 0.85233 0.47758 0.0
H170 H 0.99175 0.89578 0.42751 0.0
H171 H 0.00643 0.85015 0.43868 0.0
H172 H 0.01077 0.93444 0.50219 0.0
H173 H 0.96308 0.9474 0.50975 0.0
H174 H 0.95299 0.82151 0.45189 0.0
H175 H 0.95101 0.86543 0.41936 0.0
Li176 Li 0.37782 0.74658 0.77097 0.0
Li177 Li 0.37375 0.72089 0.78358 0.0
Li178 Li 0.38052 0.72607 0.74522 0.0
Li179 Li 0.35499 0.73355 0.76082 0.0
C180 C 0.40809 0.73276 0.77338 0.0
N181 N 0.43912 0.73889 0.77718 0.0
C182 C 0.4154 0.73133 0.79342 0.0
C183 C 0.41665 0.73701 0.75519 0.0
C184 C 0.43107 0.73458 0.79504 0.0
C185 C 0.4323 0.74014 0.75747 0.0
C186 C 0.36246 0.743 0.8115 0.0
C187 C 0.35077 0.74892 0.84589 0.0
N188 N 0.36497 0.75058 0.85477 0.0
C189 C 0.37691 0.74479 0.82094 0.0
C190 C 0.34926 0.74511 0.82403 0.0
C191 C 0.37796 0.74862 0.84284 0.0
C192 C 0.37346 0.77566 0.78855 0.0
N193 N 0.38444 0.76669 0.77928 0.0
C194 C 0.40339 0.78607 0.78514 0.0
C195 C 0.39908 0.77181 0.77681 0.0
C196 C 0.39251 0.79508 0.79608 0.0
C197 C 0.37728 0.78992 0.79724 0.0
H198 H 0.36178 0.77153 0.78972 0.0
H199 H 0.40752 0.76476 0.76887 0.0
C200 C 0.38966 0.69825 0.80567 0.0
N201 N 0.37652 0.70661 0.8062 0.0
C202 C 0.39322 0.68838 0.82267 0.0
C203 C 0.36932 0.69542 0.84 0.0
C204 C 0.36621 0.70516 0.8226 0.0
C205 C 0.38312 0.6871 0.84034 0.0
H206 H 0.39758 0.69962 0.79233 0.0
H207 H 0.35573 0.7118 0.82244 0.0
C208 C 0.37142 0.76001 0.73453 0.0
N209 N 0.37733 0.78996 0.72229 0.0
C210 C 0.36037 0.77141 0.73783 0.0
C211 C 0.38539 0.76379 0.72476 0.0
C212 C 0.3636 0.7865 0.7316 0.0
C213 C 0.38818 0.77901 0.71874 0.0
C214 C 0.35483 0.70031 0.7626 0.0
C215 C 0.35721 0.68602 0.75287 0.0
C216 C 0.34332 0.70198 0.77819 0.0
C217 C 0.34794 0.67362 0.75883 0.0
C218 C 0.33429 0.6893 0.78371 0.0
N219 N 0.33677 0.6755 0.77399 0.0
C220 C 0.40143 0.70684 0.72451 0.0
C221 C 0.38771 0.72346 0.70098 0.0
C222 C 0.4095 0.70063 0.7071 0.0
N223 N 0.39086 0.71805 0.72111 0.0
C224 C 0.39547 0.71752 0.68308 0.0
C225 C 0.40653 0.70597 0.68607 0.0
H226 H 0.40358 0.70277 0.74077 0.0
H227 H 0.3792 0.73238 0.69888 0.0
C228 C 0.32757 0.74825 0.76633 0.0
N229 N 0.33401 0.73604 0.7561 0.0
C230 C 0.31183 0.75071 0.76505 0.0
C231 C 0.30965 0.72781 0.74297 0.0
C232 C 0.32552 0.72595 0.74435 0.0
C233 C 0.30273 0.74031 0.75346 0.0
H234 H 0.3347 0.75594 0.77572 0.0
H235 H 0.33104 0.71634 0.73643 0.0
O236 O 0.39281 0.72932 0.77142 0.0
O237 O 0.3611 0.73911 0.79013 0.0
O238 O 0.36866 0.74526 0.74111 0.0
O239 O 0.36389 0.71252 0.75704 0.0
H240 H 0.40908 0.72765 0.80759 0.0
H241 H 0.41128 0.738 0.7395 0.0
H242 H 0.43684 0.73358 0.81047 0.0
H243 H 0.43903 0.74355 0.74355 0.0
H244 H 0.34066 0.75055 0.8558 0.0
H245 H 0.3872 0.74334 0.81143 0.0
H246 H 0.33798 0.74373 0.81695 0.0
H247 H 0.38909 0.75005 0.85034 0.0
H248 H 0.41529 0.78963 0.78401 0.0
H249 H 0.36853 0.79664 0.80535 0.0
H250 H 0.40412 0.68239 0.82243 0.0
H251 H 0.36119 0.69467 0.85324 0.0
H252 H 0.34949 0.76868 0.74534 0.0
H253 H 0.39403 0.75509 0.72197 0.0
H254 H 0.3552 0.79547 0.73421 0.0
H255 H 0.39899 0.78212 0.71129 0.0
H256 H 0.36613 0.68454 0.74083 0.0
H257 H 0.3414 0.71294 0.78601 0.0
H258 H 0.34963 0.66249 0.75141 0.0
H259 H 0.32534 0.69043 0.79575 0.0
H260 H 0.4178 0.6916 0.71002 0.0
H261 H 0.39295 0.72201 0.66712 0.0
H262 H 0.30677 0.76041 0.77342 0.0
H263 H 0.30286 0.71965 0.73382 0.0
Li264 Li 0.50235 0.13036 0.02351 0.0
Li265 Li 0.52761 0.12321 0.03518 0.0
Li266 Li 0.5228 0.13183 0.9976 0.0
Li267 Li 0.5129 0.10685 0.01127 0.0
C268 C 0.51913 0.159 0.0273 0.0
N269 N 0.51629 0.19041 0.03254 0.0
C270 C 0.52176 0.16572 0.04753 0.0
C271 C 0.51533 0.16831 0.00967 0.0
C272 C 0.52018 0.1816 0.04987 0.0
C273 C 0.51387 0.18415 0.01267 0.0
C274 C 0.50464 0.11368 0.0628 0.0
C275 C 0.49793 0.10217 0.09702 0.0
N276 N 0.49792 0.11632 0.10634 0.0
C277 C 0.50454 0.1281 0.07271 0.0
C278 C 0.50128 0.1006 0.07501 0.0
C279 C 0.50112 0.12921 0.09474 0.0
C280 C 0.47286 0.12811 0.04014 0.0
N281 N 0.48298 0.13861 0.03224 0.0
C282 C 0.4649 0.15884 0.03782 0.0
C283 C 0.47917 0.1537 0.03053 0.0
C284 C 0.45448 0.14832 0.04684 0.0
C285 C 0.4585 0.13273 0.04762 0.0
H286 H 0.47603 0.11611 0.04083 0.0
H287 H 0.48712 0.16178 0.02362 0.0
C288 C 0.55172 0.13642 0.05741 0.0
N289 N 0.54225 0.12405 0.05768 0.0
C290 C 0.56175 0.13904 0.07455 0.0
C291 C 0.5527 0.11565 0.0914 0.0
C292 C 0.5428 0.11349 0.07389 0.0
C293 C 0.56208 0.12877 0.09212 0.0
H294 H 0.55104 0.14457 0.04424 0.0
H295 H 0.53525 0.10365 0.07357 0.0
C296 C 0.48807 0.12632 0.98671 0.0
N297 N 0.45867 0.13478 0.97488 0.0
C298 C 0.47585 0.11611 0.98959 0.0
C299 C 0.48538 0.14074 0.97753 0.0
C300 C 0.46106 0.12063 0.98358 0.0
C301 C 0.47042 0.14483 0.97173 0.0
C302 C 0.54497 0.10197 0.01247 0.0
C303 C 0.55904 0.10122 0.00165 0.0
C304 C 0.54137 0.09093 0.02811 0.0
C305 C 0.5693 0.08939 0.00663 0.0
C306 C 0.55193 0.07928 0.03262 0.0
N307 N 0.56556 0.07876 0.02188 0.0
C308 C 0.54296 0.1522 0.97712 0.0
C309 C 0.52589 0.13891 0.95374 0.0
C310 C 0.54951 0.15988 0.9596 0.0
N311 N 0.53137 0.14203 0.97383 0.0
C312 C 0.53218 0.14623 0.93575 0.0
C313 C 0.54415 0.15684 0.93861 0.0
H314 H 0.54709 0.15432 0.99336 0.0
H315 H 0.51666 0.13071 0.95174 0.0
C316 C 0.49604 0.08035 0.01524 0.0
N317 N 0.50808 0.08655 0.00436 0.0
C318 C 0.49201 0.06507 0.01188 0.0
C319 C 0.51289 0.06292 0.98615 0.0
C320 C 0.5164 0.07834 0.98981 0.0
C321 C 0.50062 0.05616 0.99739 0.0
H322 H 0.4897 0.08726 0.02673 0.0
H323 H 0.52589 0.08368 0.98139 0.0
O324 O 0.521 0.14349 0.02462 0.0
O325 O 0.50817 0.11224 0.04131 0.0
O326 O 0.50255 0.12228 0.99308 0.0
O327 O 0.53486 0.11352 0.00777 0.0
H328 H 0.52507 0.15877 0.06127 0.0
H329 H 0.51337 0.16339 0.99388 0.0
H330 H 0.52212 0.18693 0.06545 0.0
H331 H 0.51083 0.19147 -0.00081 0.0
H332 H 0.49535 0.09213 0.10668 0.0
H333 H 0.50698 0.13833 0.06348 0.0
H334 H 0.50137 0.08933 0.06757 0.0
H335 H 0.501 0.14031 0.10261 0.0
H336 H 0.46212 0.17094 0.03663 0.0
H337 H 0.45087 0.12426 0.05462 0.0
H338 H 0.56853 0.14947 0.07455 0.0
H339 H 0.55269 0.10739 0.10452 0.0
H340 H 0.47773 0.1049 0.99664 0.0
H341 H 0.49472 0.14872 0.97502 0.0
H342 H 0.45147 0.11289 0.9859 0.0
H343 H 0.46816 0.15599 0.96474 0.0
H344 H 0.562 0.10971 0.98953 0.0
H345 H 0.53055 0.09132 0.03667 0.0
H346 H 0.58023 0.08867 -0.00162 0.0
H347 H 0.54929 0.07066 0.04467 0.0
H348 H 0.55884 0.16787 0.96237 0.0
H349 H 0.5277 0.14368 0.91979 0.0
H350 H 0.4826 0.06015 0.02101 0.0
H351 H 0.51972 0.05633 0.9748 0.0
Li352 Li 0.1076 0.72961 0.24386 0.0
Li353 Li 0.1332 0.73603 0.22832 0.0
Li354 Li 0.11157 0.75089 0.22078 0.0
Li355 Li 0.11341 0.72632 0.20417 0.0
C356 C 0.11757 0.76102 0.25988 0.0
N357 N 0.11082 0.78863 0.27982 0.0
C358 C 0.1283 0.77296 0.2598 0.0
C359 C 0.10344 0.7631 0.27021 0.0
C360 C 0.12466 0.78685 0.26991 0.0
C361 C 0.10024 0.77714 0.2802 0.0
C362 C 0.1299 0.70476 0.24178 0.0
C363 C 0.14182 0.6799 0.24583 0.0
N364 N 0.14438 0.68296 0.26711 0.0
C365 C 0.13283 0.70773 0.26362 0.0
C366 C 0.13455 0.69078 0.23275 0.0
C367 C 0.14008 0.69653 0.27618 0.0
C368 C 0.0855 0.7107 0.2631 0.0
N369 N 0.09689 0.72093 0.26731 0.0
C370 C 0.09374 0.71755 0.30534 0.0
C371 C 0.101 0.72459 0.28788 0.0
C372 C 0.0821 0.70672 0.30155 0.0
C373 C 0.07786 0.70343 0.2801 0.0
H374 H 0.08251 0.70808 0.24652 0.0
H375 H 0.11017 0.73272 0.29071 0.0
C376 C 0.16041 0.75141 0.22788 0.0
N377 N 0.15464 0.73729 0.23244 0.0
C378 C 0.17612 0.7541 0.22912 0.0
C379 C 0.17976 0.72752 0.23933 0.0
C380 C 0.16393 0.72535 0.23789 0.0
C381 C 0.186 0.74205 0.23487 0.0
H382 H 0.15276 0.76052 0.22287 0.0
H383 H 0.15926 0.71407 0.24062 0.0
C384 C 0.08259 0.74301 0.21133 0.0
N385 N 0.05745 0.75944 0.19702 0.0
C386 C 0.0824 0.74906 0.19038 0.0
C387 C 0.06995 0.74515 0.22493 0.0
C388 C 0.0696 0.7574 0.18348 0.0
C389 C 0.05735 0.75352 0.2174 0.0
C390 C 0.1379 0.73962 0.1846 0.0
C391 C 0.14181 0.74942 0.16754 0.0
C392 C 0.14493 0.7252 0.18609 0.0
C393 C 0.15272 0.74469 0.15236 0.0
C394 C 0.15579 0.7209 0.1706 0.0
N395 N 0.15944 0.73065 0.15419 0.0
C396 C 0.11538 0.77959 0.20219 0.0
C397 C 0.09294 0.77847 0.22379 0.0
C398 C 0.11177 0.79443 0.19554 0.0
N399 N 0.10576 0.77175 0.21549 0.0
C400 C 0.08895 0.7934 0.21776 0.0
C401 C 0.0982 0.80143 0.20291 0.0
H402 H 0.12568 0.77415 0.19623 0.0
H403 H 0.08561 0.77216 0.23472 0.0
C404 C 0.10838 0.69836 0.1832 0.0
N405 N 0.10982 0.71372 0.1799 0.0
C406 C 0.10624 0.68848 0.1657 0.0
C407 C 0.1067 0.7105 0.1418 0.0
C408 C 0.10911 0.71993 0.15974 0.0
C409 C 0.10526 0.69459 0.14476 0.0
H410 H 0.10872 0.69382 0.19947 0.0
H411 H 0.11035 0.7322 0.15762 0.0
O412 O 0.12088 0.74736 0.24994 0.0
O413 O 0.12278 0.71553 0.22916 0.0
O414 O 0.09505 0.73493 0.21847 0.0
O415 O 0.12712 0.74416 0.19948 0.0
H416 H 0.13932 0.77156 0.25204 0.0
H417 H 0.09488 0.75409 0.27014 0.0
H418 H 0.13284 0.7962 0.2699 0.0
H419 H 0.08931 0.77893 0.28812 0.0
H420 H 0.14547 0.66904 0.23904 0.0
H421 H 0.12987 0.7187 0.27064 0.0
H422 H 0.13273 0.6884 0.21577 0.0
H423 H 0.1424 0.69868 0.29311 0.0
H424 H 0.09754 0.72024 0.32159 0.0
H425 H 0.06883 0.69526 0.27651 0.0
H426 H 0.18048 0.76549 0.22562 0.0
H427 H 0.18705 0.71786 0.24337 0.0
H428 H 0.09213 0.74753 0.17972 0.0
H429 H 0.06993 0.74049 0.24118 0.0
H430 H 0.06934 0.76228 0.16739 0.0
H431 H 0.0475 0.75535 0.22777 0.0
H432 H 0.13641 0.76056 0.16594 0.0
H433 H 0.14208 0.71735 0.19899 0.0
H434 H 0.15583 0.75218 0.13909 0.0
H435 H 0.16132 0.70979 0.17161 0.0
H436 H 0.11918 0.8 0.18386 0.0
H437 H 0.07852 0.79841 0.22417 0.0
H438 H 0.10483 0.67628 0.16855 0.0
H439 H 0.10587 0.71556 0.12583 0.0
Li440 Li 0.51101 0.89061 0.48153 0.0
Li441 Li 0.51907 0.8683 0.49944 0.0
Li442 Li 0.52452 0.87216 0.46089 0.0
Li443 Li 0.49772 0.86762 0.47407 0.0
C444 C 0.5398 0.89206 0.50171 0.0
N445 N 0.55464 0.90807 0.53417 0.0
C446 C 0.5315 0.89776 0.51935 0.0
C447 C 0.55564 0.8945 0.50059 0.0
C448 C 0.53922 0.90582 0.53559 0.0
C449 C 0.56294 0.90263 0.51715 0.0
C450 C 0.48996 0.87061 0.51684 0.0
C451 C 0.48097 0.84675 0.53213 0.0
N452 N 0.47232 0.85476 0.54657 0.0
C453 C 0.48096 0.8786 0.53181 0.0
C454 C 0.48996 0.85454 0.51697 0.0
C455 C 0.47213 0.87039 0.54672 0.0
C456 C 0.49279 0.91633 0.48753 0.0
N457 N 0.50748 0.91183 0.4838 0.0
C458 C 0.51547 0.9377 0.47829 0.0
C459 C 0.51884 0.92209 0.47955 0.0
C460 C 0.50029 0.94267 0.48146 0.0
C461 C 0.4889 0.93182 0.48644 0.0
H462 H 0.48401 0.9078 0.49054 0.0
H463 H 0.53037 0.9181 0.47629 0.0
C464 C 0.53795 0.84799 0.52125 0.0
N465 N 0.52744 0.85928 0.52449 0.0
C466 C 0.5446 0.84053 0.53884 0.0
C467 C 0.52972 0.85674 0.56279 0.0
C468 C 0.5233 0.86384 0.5447 0.0
C469 C 0.54045 0.84487 0.55993 0.0
H470 H 0.54115 0.84481 0.50494 0.0
H471 H 0.51501 0.87297 0.54678 0.0
C472 C 0.50188 0.89561 0.44154 0.0
N473 N 0.49492 0.92287 0.42079 0.0
C474 C 0.48657 0.89979 0.4381 0.0
C475 C 0.51364 0.90522 0.43418 0.0
C476 C 0.48329 0.91364 0.42765 0.0
C477 C 0.50989 0.91897 0.42378 0.0
C478 C 0.51608 0.84014 0.4646 0.0
C479 C 0.51437 0.84004 0.44211 0.0
C480 C 0.5181 0.8263 0.4757 0.0
C481 C 0.51479 0.82604 0.43106 0.0
C482 C 0.5184 0.81254 0.46408 0.0
N483 N 0.51678 0.8127 0.44219 0.0
C484 C 0.55158 0.85992 0.44397 0.0
C485 C 0.53587 0.87247 0.41804 0.0
C486 C 0.56188 0.85549 0.42784 0.0
N487 N 0.53881 0.86807 0.43873 0.0
C488 C 0.54598 0.86851 0.40146 0.0
C489 C 0.55899 0.85968 0.40629 0.0
H490 H 0.55349 0.8565 0.46058 0.0
H491 H 0.52541 0.87857 0.41426 0.0
C492 C 0.46603 0.86933 0.47072 0.0
N493 N 0.47798 0.85951 0.46772 0.0
C494 C 0.45133 0.86538 0.46365 0.0
C495 C 0.46134 0.84082 0.45204 0.0
C496 C 0.47581 0.84524 0.45936 0.0
C497 C 0.44896 0.85115 0.45351 0.0
H498 H 0.46807 0.88051 0.47779 0.0
H499 H 0.48533 0.83746 0.45757 0.0
O500 O 0.5326 0.88402 0.48561 0.0
O501 O 0.49866 0.87864 0.50225 0.0
O502 O 0.50533 0.88227 0.45224 0.0
O503 O 0.51604 0.85371 0.47577 0.0
H504 H 0.51925 0.89601 0.52053 0.0
H505 H 0.56222 0.89014 0.48705 0.0
H506 H 0.53294 0.91028 0.54933 0.0
H507 H 0.57519 0.9046 0.51649 0.0
H508 H 0.48087 0.83433 0.53242 0.0
H509 H 0.48084 0.89104 0.5319 0.0
H510 H 0.4968 0.84811 0.50557 0.0
H511 H 0.46513 0.87643 0.55841 0.0
H512 H 0.52459 0.94577 0.4747 0.0
H513 H 0.47706 0.93522 0.4888 0.0
H514 H 0.55302 0.83161 0.53599 0.0
H515 H 0.52619 0.86035 0.57882 0.0
H516 H 0.47732 0.89247 0.4435 0.0
H517 H 0.52556 0.90226 0.43692 0.0
H518 H 0.4715 0.91705 0.42501 0.0
H519 H 0.51888 0.92658 0.41823 0.0
H520 H 0.51256 0.85062 0.43331 0.0
H521 H 0.51937 0.82619 0.49312 0.0
H522 H 0.51349 0.82577 0.41366 0.0
H523 H 0.51993 0.80174 0.47246 0.0
H524 H 0.57178 0.84858 0.43204 0.0
H525 H 0.54326 0.87163 0.38493 0.0
H526 H 0.44207 0.87359 0.46537 0.0
H527 H 0.4601 0.82978 0.44417 0.0
Li528 Li 0.35493 0.26841 0.74135 0.0
Li529 Li 0.38033 0.27217 0.75449 0.0
Li530 Li 0.37285 0.28169 0.71765 0.0
Li531 Li 0.37617 0.25404 0.72625 0.0
C532 C 0.35568 0.30063 0.74951 0.0
N533 N 0.33671 0.32573 0.75568 0.0
C534 C 0.35289 0.30617 0.77037 0.0
C535 C 0.34889 0.30794 0.73176 0.0
C536 C 0.34324 0.31884 0.77316 0.0
C537 C 0.33932 0.32059 0.73523 0.0
C538 C 0.37049 0.24811 0.77633 0.0
C539 C 0.38701 0.2368 0.80328 0.0
N540 N 0.37586 0.23887 0.81843 0.0
C541 C 0.35916 0.25006 0.79213 0.0
C542 C 0.3845 0.24135 0.7819 0.0
C543 C 0.36211 0.24533 0.81333 0.0
C544 C 0.3295 0.25089 0.7499 0.0
N545 N 0.33388 0.26583 0.74825 0.0
C546 C 0.30787 0.27416 0.75097 0.0
C547 C 0.32346 0.27744 0.74914 0.0
C548 C 0.30297 0.2588 0.75165 0.0
C549 C 0.31402 0.24708 0.75153 0.0
H550 H 0.33803 0.24189 0.74891 0.0
H551 H 0.32705 0.2892 0.74766 0.0
C552 C 0.40755 0.27842 0.77786 0.0
N553 N 0.39202 0.2772 0.77923 0.0
C554 C 0.41608 0.28276 0.79598 0.0
C555 C 0.39247 0.28421 0.81653 0.0
C556 C 0.38441 0.28004 0.79799 0.0
C557 C 0.40849 0.28575 0.81557 0.0
H558 H 0.41327 0.27626 0.76264 0.0
H559 H 0.37204 0.27922 0.79849 0.0
C560 C 0.34569 0.25983 0.70217 0.0
N561 N 0.31711 0.2506 0.68774 0.0
C562 C 0.34221 0.2442 0.70046 0.0
C563 C 0.33468 0.27076 0.69636 0.0
C564 C 0.32769 0.23977 0.69314 0.0
C565 C 0.32028 0.26586 0.68917 0.0
C566 C 0.40373 0.26397 0.7161 0.0
C567 C 0.4064 0.26764 0.6944 0.0
C568 C 0.41295 0.25303 0.72635 0.0
C569 C 0.41817 0.26014 0.68322 0.0
C570 C 0.42458 0.24576 0.7146 0.0
N571 N 0.42692 0.24944 0.69346 0.0
C572 C 0.38597 0.30818 0.69966 0.0
C573 C 0.36931 0.29439 0.67629 0.0
C574 C 0.39003 0.31809 0.68288 0.0
N575 N 0.37603 0.29647 0.69591 0.0
C576 C 0.37294 0.3041 0.65909 0.0
C577 C 0.38374 0.31585 0.66218 0.0
H578 H 0.39118 0.30942 0.71546 0.0
H579 H 0.36162 0.28481 0.67376 0.0
C580 C 0.38439 0.22227 0.72484 0.0
N581 N 0.38208 0.23536 0.7133 0.0
C582 C 0.38894 0.20881 0.7143 0.0
C583 C 0.3883 0.22263 0.68033 0.0
C584 C 0.38369 0.23572 0.69146 0.0
C585 C 0.39113 0.20901 0.69179 0.0
H586 H 0.38276 0.22229 0.74217 0.0
H587 H 0.38145 0.24626 0.68273 0.0
O588 O 0.36535 0.28842 0.74649 0.0
O589 O 0.36788 0.25282 0.75553 0.0
O590 O 0.35969 0.2644 0.70989 0.0
O591 O 0.39203 0.27091 0.72719 0.0
H592 H 0.35811 0.30076 0.78428 0.0
H593 H 0.35078 0.30381 0.71552 0.0
H594 H 0.34096 0.32322 0.78923 0.0
H595 H 0.33394 0.32629 0.72165 0.0
H596 H 0.39784 0.23166 0.80785 0.0
H597 H 0.34828 0.25535 0.78815 0.0
H598 H 0.3934 0.23981 0.7699 0.0
H599 H 0.35348 0.24685 0.82575 0.0
H600 H 0.29971 0.28355 0.75137 0.0
H601 H 0.31074 0.23508 0.75175 0.0
H602 H 0.42844 0.28387 0.79468 0.0
H603 H 0.3862 0.28669 0.83127 0.0
H604 H 0.35054 0.23557 0.70504 0.0
H605 H 0.33714 0.2829 0.69766 0.0
H606 H 0.32481 0.22771 0.69188 0.0
H607 H 0.3116 0.2742 0.68481 0.0
H608 H 0.39938 0.27606 0.68619 0.0
H609 H 0.41105 0.25006 0.74313 0.0
H610 H 0.42031 0.2628 0.66639 0.0
H611 H 0.43173 0.23719 0.72228 0.0
H612 H 0.39839 0.32707 0.68583 0.0
H613 H 0.36805 0.30189 0.64328 0.0
H614 H 0.39103 0.19849 0.72364 0.0
H615 H 0.38961 0.22315 0.66291 0.0
Li616 Li 0.9811 0.13516 -0.0015 0.0
Li617 Li 0.98694 0.10791 0.99276 0.0
Li618 Li 0.00399 0.12804 0.98093 0.0
Li619 Li 0.9793 0.12408 0.96202 0.0
C620 C 0.01199 0.1242 0.02081 0.0
N621 N 0.04084 0.12687 0.03907 0.0
C622 C 0.02005 0.11107 0.02717 0.0
C623 C 0.01851 0.13869 0.02404 0.0
C624 C 0.03464 0.11266 0.03631 0.0
C625 C 0.03313 0.1398 0.0332 0.0
C626 C 0.95445 0.11232 0.99668 0.0
C627 C 0.93212 0.096 0.9941 0.0
N628 N 0.92872 0.0991 0.01514 0.0
C629 C 0.95074 0.11532 0.0183 0.0
C630 C 0.94505 0.1026 0.98446 0.0
C631 C 0.93767 0.10854 0.02731 0.0
C632 C 0.95796 0.15573 0.01238 0.0
N633 N 0.97146 0.14889 0.01784 0.0
C634 C 0.96995 0.15884 0.05369 0.0
C635 C 0.97763 0.15042 0.0379 0.0
C636 C 0.95583 0.16573 0.0487 0.0
C637 C 0.94997 0.16443 0.02765 0.0
H638 H 0.95316 0.15395 0.99645 0.0
H639 H 0.9882 0.1446 0.0419 0.0
C640 C -0.00035 0.07941 0.998 0.0
N641 N 0.98679 0.08747 0.00309 0.0
C642 C 0.00064 0.06386 0.00291 0.0
C643 C 0.97523 0.06519 0.01864 0.0
C644 C 0.97483 0.08081 0.0137 0.0
C645 C 0.98819 0.05655 0.01294 0.0
H646 H 0.00901 0.08503 0.98965 0.0
H647 H 0.96484 0.08741 0.01798 0.0
C648 C 0.98384 0.15846 0.97149 0.0
N649 N 0.97245 0.18807 0.97351 0.0
C650 C 0.97128 0.16273 0.95875 0.0
C651 C 0.99072 0.16931 0.98505 0.0
C652 C 0.96567 0.17774 0.96004 0.0
C653 C 0.98476 0.1842 0.98591 0.0
C654 C 0.99578 0.09826 0.9498 0.0
C655 C 0.00743 0.09571 0.93468 0.0
C656 C 0.9827 0.08897 0.94967 0.0
C657 C 0.00579 0.08387 0.9196 0.0
C658 C 0.9815 0.07721 0.93437 0.0
N659 N 0.99297 0.07494 0.91976 0.0
C660 C 0.03529 0.12077 0.97566 0.0
C661 C 0.02869 0.14677 0.96896 0.0
C662 C 0.0503 0.12336 0.96857 0.0
N663 N 0.02484 0.13237 0.97535 0.0
C664 C 0.04348 0.14984 0.96162 0.0
C665 C 0.05444 0.13796 0.96081 0.0
H666 H 0.03178 0.10938 0.98063 0.0
H667 H 0.02005 0.15567 0.96855 0.0
C668 C 0.95345 0.12571 0.93508 0.0
N669 N 0.96899 0.12442 0.9352 0.0
C670 C 0.94568 0.12814 0.91567 0.0
C671 C 0.97001 0.12717 0.89681 0.0
C672 C 0.97732 0.12475 0.91661 0.0
C673 C 0.95403 0.12938 0.89629 0.0
H674 H 0.94719 0.12578 0.95018 0.0
H675 H 0.9897 0.12384 0.9173 0.0
O676 O 0.9978 0.12287 0.01146 0.0
O677 O 0.96708 0.11899 0.98741 0.0
O678 O 0.9894 0.14377 0.9706 0.0
O679 O 0.99714 0.10997 0.96441 0.0
H680 H 0.01512 0.09978 0.02511 0.0
H681 H 0.01241 0.14897 0.01931 0.0
H682 H 0.04104 0.10259 0.0412 0.0
H683 H 0.03837 0.15094 0.03561 0.0
H684 H 0.92477 0.08843 0.98485 0.0
H685 H 0.95796 0.12259 0.02814 0.0
H686 H 0.94772 0.10012 0.96773 0.0
H687 H 0.93469 0.11073 0.04403 0.0
H688 H 0.97479 0.15964 0.0698 0.0
H689 H 0.939 0.16946 0.02338 0.0
H690 H 0.01075 0.05747 0.99807 0.0
H691 H 0.96546 0.05986 0.02647 0.0
H692 H 0.96586 0.15456 0.94804 0.0
H693 H 0.00048 0.16625 0.99494 0.0
H694 H 0.95591 0.18117 0.95035 0.0
H695 H 0.98991 0.19267 0.99646 0.0
H696 H 0.0176 0.10287 0.93454 0.0
H697 H 0.97358 0.09081 0.96125 0.0
H698 H 0.01471 0.08178 0.90776 0.0
H699 H 0.97144 0.06992 0.93408 0.0
H700 H 0.05837 0.1139 0.96835 0.0
H701 H 0.04597 0.16119 0.95534 0.0
H702 H 0.9334 0.13011 0.91607 0.0
H703 H 0.97685 0.12806 0.88222 0.0
Li704 Li 0.88036 0.74771 0.7249 0.0
Li705 Li 0.85921 0.73082 0.73322 0.0
Li706 Li 0.88419 0.72689 0.74953 0.0
Li707 Li 0.8795 0.72129 0.71141 0.0
C708 C 0.86964 0.75922 0.76055 0.0
N709 N 0.86849 0.78959 0.77344 0.0
C710 C 0.85609 0.76765 0.75816 0.0
C711 C 0.8826 0.76622 0.76954 0.0
C712 C 0.85574 0.78299 0.76479 0.0
C713 C 0.88179 0.7816 0.77593 0.0
C714 C 0.86452 0.73785 0.68263 0.0
C715 C 0.85628 0.72515 0.64988 0.0
N716 N 0.86379 0.73591 0.63795 0.0
C717 C 0.87218 0.74877 0.66999 0.0
C718 C 0.8565 0.72593 0.67246 0.0
C719 C 0.87165 0.7476 0.64745 0.0
C720 C 0.90052 0.77244 0.71677 0.0
N721 N 0.88554 0.76818 0.7178 0.0
C722 C 0.87748 0.7925 0.70405 0.0
C723 C 0.87405 0.77794 0.7121 0.0
C724 C 0.89289 0.79692 0.70173 0.0
C725 C 0.90448 0.78689 0.70883 0.0
H726 H 0.90941 0.76439 0.72122 0.0
H727 H 0.86225 0.77409 0.71277 0.0
C728 C 0.83238 0.7333 0.75836 0.0
N729 N 0.83792 0.7306 0.73816 0.0
C730 C 0.81662 0.73495 0.76164 0.0
C731 C 0.81266 0.73006 0.72349 0.0
C732 C 0.82846 0.72877 0.72093 0.0
C733 C 0.80658 0.73364 0.74393 0.0
H734 H 0.84027 0.73475 0.77174 0.0
H735 H 0.83317 0.72667 0.70511 0.0
C736 C 0.91156 0.72853 0.73022 0.0
N737 N 0.94057 0.7198 0.74353 0.0
C738 C 0.91838 0.71531 0.72169 0.0
C739 C 0.91954 0.73736 0.74541 0.0
C740 C 0.93305 0.71109 0.72864 0.0
C741 C 0.93417 0.73273 0.75198 0.0
C742 C 0.85886 0.70262 0.74538 0.0
C743 C 0.85745 0.70126 0.76783 0.0
C744 C 0.84787 0.69585 0.73191 0.0
C745 C 0.84501 0.69316 0.77645 0.0
C746 C 0.8356 0.68787 0.74116 0.0
N747 N 0.83443 0.68671 0.76305 0.0
C748 C 0.89237 0.72787 0.79356 0.0
C749 C 0.90364 0.70756 0.77354 0.0
C750 C 0.89978 0.72302 0.81235 0.0
N751 N 0.89455 0.72021 0.77467 0.0
C752 C 0.91151 0.70248 0.79182 0.0
C753 C 0.90959 0.71021 0.81162 0.0
H754 H 0.88468 0.7376 0.79412 0.0
H755 H 0.90481 0.70144 0.75841 0.0
C756 C 0.89346 0.71495 0.67194 0.0
N757 N 0.88481 0.70854 0.68784 0.0
C758 C 0.89724 0.70647 0.65362 0.0
C759 C 0.88359 0.68475 0.66872 0.0
C760 C 0.87989 0.69375 0.68669 0.0
C761 C 0.8923 0.69118 0.65189 0.0
H762 H 0.89739 0.72668 0.67353 0.0
H763 H 0.87318 0.68892 0.69973 0.0
O764 O 0.87032 0.74426 0.75378 0.0
O765 O 0.86502 0.73871 0.70478 0.0
O766 O 0.89716 0.73281 0.72373 0.0
O767 O 0.87072 0.71085 0.73665 0.0
H768 H 0.84601 0.76249 0.75097 0.0
H769 H 0.89321 0.75991 0.77137 0.0
H770 H 0.84535 0.78967 0.76293 0.0
H771 H 0.89175 0.78718 0.78282 0.0
H772 H 0.85025 0.7159 0.64184 0.0
H773 H 0.87864 0.75794 0.67742 0.0
H774 H 0.8509 0.71708 0.68185 0.0
H775 H 0.87757 0.75595 0.63752 0.0
H776 H 0.86823 0.7998 0.69844 0.0
H777 H 0.9165 0.78994 0.70739 0.0
H778 H 0.81243 0.73781 0.77763 0.0
H779 H 0.80532 0.72858 0.7095 0.0
H780 H 0.91239 0.7083 0.70999 0.0
H781 H 0.91441 0.74758 0.75226 0.0
H782 H 0.93844 0.70085 0.72225 0.0
H783 H 0.94042 0.7394 0.76383 0.0
H784 H 0.86578 0.70651 0.77849 0.0
H785 H 0.84866 0.69699 0.71451 0.0
H786 H 0.84375 0.69206 0.79379 0.0
H787 H 0.82695 0.68268 0.73094 0.0
H788 H 0.8976 0.72909 0.82733 0.0
H789 H 0.91903 0.69263 0.79039 0.0
H790 H 0.90431 0.71169 0.6412 0.0
H791 H 0.87975 0.67292 0.66799 0.0
Li792 Li 0.02932 0.1253 0.45461 0.0
Li793 Li 0.02427 0.13211 0.49214 0.0
Li794 Li 0.0182 0.10687 0.4782 0.0
Li795 Li 0.00316 0.12907 0.46802 0.0
C796 C 0.04681 0.10492 0.48996 0.0
N797 N 0.06196 0.08062 0.5092 0.0
C798 C 0.04967 0.10506 0.51222 0.0
C799 C 0.05173 0.09248 0.47746 0.0
C800 C 0.05734 0.09266 0.52164 0.0
C801 C 0.05934 0.08028 0.4875 0.0
C802 C 0.0251 0.1585 0.47119 0.0
C803 C 0.02322 0.18184 0.49207 0.0
N804 N 0.03671 0.18675 0.48338 0.0
C805 C 0.03893 0.16379 0.46244 0.0
C806 C 0.01714 0.16761 0.48608 0.0
C807 C 0.04461 0.17811 0.46881 0.0
C808 C 0.03669 0.13709 0.4142 0.0
N809 N 0.04235 0.12835 0.43054 0.0
C810 C 0.06582 0.12438 0.41131 0.0
C811 C 0.0566 0.122 0.42952 0.0
C812 C 0.06014 0.13321 0.39408 0.0
C813 C 0.04536 0.13955 0.39563 0.0
H814 H 0.02541 0.1422 0.4157 0.0
H815 H 0.06085 0.11523 0.4429 0.0
C816 C 0.02319 0.14368 0.53453 0.0
N817 N 0.03181 0.14302 0.51625 0.0
C818 C 0.02847 0.15178 0.55249 0.0
C819 C 0.05144 0.15827 0.53245 0.0
C820 C 0.04578 0.14991 0.51495 0.0
C821 C 0.04275 0.15927 0.55157 0.0
H822 H 0.01229 0.13779 0.53524 0.0
H823 H 0.05246 0.14896 0.50026 0.0
C824 C 0.01181 0.11014 0.42746 0.0
N825 N 0.01443 0.10647 0.38317 0.0
C826 C 0.00227 0.1184 0.41348 0.0
C827 C 0.02267 0.09998 0.41888 0.0
C828 C 0.00376 0.11638 0.39115 0.0
C829 C 0.02383 0.09831 0.39645 0.0
C830 C 0.99064 0.1197 0.50364 0.0
C831 C 0.98214 0.10614 0.50183 0.0
C832 C 0.98353 0.13308 0.51116 0.0
C833 C 0.96661 0.1062 0.50754 0.0
C834 C 0.96797 0.13267 0.51666 0.0
N835 N 0.95991 0.11936 0.51475 0.0
C836 C 0.01762 0.08094 0.50568 0.0
C837 C 0.01346 0.07613 0.46834 0.0
C838 C 0.01529 0.06545 0.51053 0.0
N839 N 0.01663 0.08588 0.48486 0.0
C840 C 0.01107 0.06062 0.47242 0.0
C841 C 0.01175 0.05517 0.49376 0.0
H842 H 0.01986 0.08908 0.51851 0.0
H843 H 0.01241 0.08043 0.45206 0.0
C844 C 0.97995 0.1509 0.45976 0.0
N845 N 0.98322 0.13566 0.46034 0.0
C846 C 0.96586 0.15593 0.45178 0.0
C847 C 0.95859 0.12944 0.44582 0.0
C848 C 0.97279 0.12492 0.4541 0.0
C849 C 0.95518 0.14515 0.444 0.0
H850 H 0.98848 0.15916 0.46474 0.0
H851 H 0.97581 0.11287 0.45462 0.0
O852 O 0.03907 0.11683 0.4805 0.0
O853 O 0.01943 0.14444 0.46531 0.0
O854 O 0.0107 0.11214 0.4494 0.0
O855 O 0.00578 0.11997 0.4977 0.0
H856 H 0.04589 0.11457 0.52215 0.0
H857 H 0.0495 0.09213 0.46025 0.0
H858 H 0.05958 0.09258 0.53886 0.0
H859 H 0.06311 0.07052 0.47806 0.0
H860 H 0.01724 0.18895 0.5037 0.0
H861 H 0.0453 0.15688 0.45098 0.0
H862 H 0.00653 0.16362 0.49324 0.0
H863 H 0.05532 0.18233 0.46222 0.0
H864 H 0.07725 0.11949 0.41073 0.0
H865 H 0.04076 0.14677 0.38291 0.0
H866 H 0.02156 0.15194 0.56707 0.0
H867 H 0.06246 0.16394 0.53098 0.0
H868 H 0.99395 0.12647 0.41972 0.0
H869 H 0.03034 0.09367 0.4294 0.0
H870 H 0.9965 0.12275 0.38015 0.0
H871 H 0.03227 0.09058 0.38961 0.0
H872 H 0.9874 0.09572 0.49588 0.0
H873 H 0.98989 0.14371 0.51242 0.0
H874 H 0.95987 0.09581 0.50614 0.0
H875 H 0.9623 0.14296 0.52237 0.0
H876 H 0.01576 0.06167 0.52722 0.0
H877 H 0.00853 0.053 0.45903 0.0
H878 H 0.9636 0.16815 0.45091 0.0
H879 H 0.95078 0.12077 0.43976 0.0
Li880 Li 0.61455 0.27543 0.20852 0.0
Li881 Li 0.61001 0.27125 0.24694 0.0
Li882 Li 0.63457 0.26531 0.23038 0.0
Li883 Li 0.61217 0.24953 0.22354 0.0
C884 C 0.63632 0.29453 0.24051 0.0
N885 N 0.66071 0.31159 0.25602 0.0
C886 C 0.6367 0.29906 0.26221 0.0
C887 C 0.6483 0.29877 0.22666 0.0
C888 C 0.64914 0.30767 0.26974 0.0
C889 C 0.66055 0.30736 0.23483 0.0
C890 C 0.58229 0.27031 0.22888 0.0
C891 C 0.56021 0.26741 0.2521 0.0
N892 N 0.55399 0.28033 0.24337 0.0
C893 C 0.57566 0.28353 0.22007 0.0
C894 C 0.57448 0.26213 0.24495 0.0
C895 C 0.56134 0.28841 0.22763 0.0
C896 C 0.60001 0.28225 0.16946 0.0
N897 N 0.61005 0.28785 0.1843 0.0
C898 C 0.61371 0.31071 0.16358 0.0
C899 C 0.61691 0.30176 0.18177 0.0
C900 C 0.60333 0.30524 0.14799 0.0
C901 C 0.59656 0.29074 0.15101 0.0
H902 H 0.59473 0.27115 0.172 0.0
H903 H 0.62475 0.30595 0.19394 0.0
C904 C 0.60271 0.27176 0.29115 0.0
N905 N 0.60049 0.27911 0.27203 0.0
C906 C 0.59604 0.27741 0.31004 0.0
C907 C 0.58484 0.29804 0.28912 0.0
C908 C 0.592 0.29216 0.27073 0.0
C909 C 0.58686 0.29069 0.30918 0.0
H910 H 0.60985 0.26161 0.29178 0.0
H911 H 0.59076 0.29797 0.25537 0.0
C912 C 0.62859 0.25764 0.18067 0.0
N913 N 0.62984 0.25944 0.13606 0.0
C914 C 0.61927 0.24815 0.16801 0.0
C915 C 0.63861 0.26798 0.17064 0.0
C916 C 0.62007 0.24924 0.14547 0.0
C917 C 0.63904 0.26875 0.14807 0.0
C918 C 0.62376 0.23836 0.25906 0.0
C919 C 0.63737 0.23002 0.25663 0.0
C920 C 0.61098 0.23141 0.26863 0.0
C921 C 0.63793 0.21478 0.26369 0.0
C922 C 0.612 0.21614 0.27545 0.0
N923 N 0.62533 0.20821 0.27285 0.0
C924 C 0.66218 0.26718 0.25415 0.0
C925 C 0.66431 0.2582 0.21799 0.0
C926 C 0.67781 0.26469 0.25758 0.0
N927 N 0.65585 0.26394 0.23457 0.0
C928 C 0.67989 0.25538 0.22077 0.0
C929 C 0.68673 0.25848 0.24081 0.0
H930 H 0.65502 0.2713 0.26721 0.0
H931 H 0.65888 0.25535 0.20282 0.0
C932 C 0.5908 0.22553 0.21695 0.0
N933 N 0.60594 0.22924 0.21735 0.0
C934 C 0.58618 0.21115 0.20945 0.0
C935 C 0.61287 0.20451 0.2038 0.0
C936 C 0.61697 0.21902 0.2114 0.0
C937 C 0.59727 0.20063 0.20215 0.0
H938 H 0.5823 0.23395 0.22154 0.0
H939 H 0.62891 0.22244 0.21157 0.0
O940 O 0.62429 0.28602 0.23286 0.0
O941 O 0.59633 0.2654 0.22179 0.0
O942 O 0.62776 0.25698 0.20277 0.0
O943 O 0.62288 0.25319 0.25188 0.0
H944 H 0.62753 0.2959 0.27316 0.0
H945 H 0.64824 0.29528 0.20986 0.0
H946 H 0.64961 0.31121 0.28651 0.0
H947 H 0.66994 0.31062 0.22434 0.0
H948 H 0.55409 0.26125 0.26463 0.0
H949 H 0.58155 0.29003 0.20768 0.0
H950 H 0.57949 0.25193 0.25203 0.0
H951 H 0.5561 0.29866 0.22103 0.0
H952 H 0.619 0.32191 0.162 0.0
H953 H 0.58862 0.28603 0.13927 0.0
H954 H 0.59826 0.27156 0.32518 0.0
H955 H 0.57774 0.30819 0.28754 0.0
H956 H 0.61134 0.24018 0.17545 0.0
H957 H 0.64582 0.2755 0.1802 0.0
H958 H 0.61287 0.24202 0.13547 0.0
H959 H 0.64665 0.27678 0.1401 0.0
H960 H 0.64735 0.23518 0.24918 0.0
H961 H 0.60036 0.23769 0.27059 0.0
H962 H 0.64836 0.20817 0.26181 0.0
H963 H 0.60217 0.21058 0.28277 0.0
H964 H 0.68275 0.26704 0.27332 0.0
H965 H 0.68649 0.25062 0.20749 0.0
H966 H 0.57404 0.20853 0.20849 0.0
H967 H 0.62174 0.19681 0.19801 0.0
Li968 Li 0.49949 0.86901 0.9775 0.0
Li969 Li 0.48336 0.88985 0.99011 0.0
Li970 Li 0.47964 0.86394 0.00191 0.0
Li971 Li 0.47341 0.87108 0.96478 0.0
C972 C 0.49951 0.87631 0.02897 0.0
N973 N 0.50198 0.87406 0.07345 0.0
C974 C 0.49366 0.88794 0.04223 0.0
C975 C 0.5068 0.86365 0.03834 0.0
C976 C 0.49499 0.88657 0.06468 0.0
C977 C 0.50787 0.86268 0.06085 0.0
C978 C 0.48566 0.89714 0.94661 0.0
C979 C 0.46659 0.91536 0.93466 0.0
N980 N 0.47666 0.92082 0.91968 0.0
C981 C 0.49581 0.90292 0.9311 0.0
C982 C 0.47092 0.90339 0.94842 0.0
C983 C 0.49104 0.9149 0.91763 0.0
C984 C 0.52099 0.86483 0.94566 0.0
N985 N 0.51943 0.86459 0.9675 0.0
C986 C 0.54573 0.85749 0.97197 0.0
C987 C 0.53142 0.86125 0.98078 0.0
C988 C 0.5476 0.85748 0.94939 0.0
C989 C 0.53504 0.86132 0.93621 0.0
H990 H 0.51118 0.86746 0.93559 0.0
H991 H 0.52979 0.86122 -0.00187 0.0
C992 C 0.47121 0.91849 0.00421 0.0
N993 N 0.48349 0.9109 0.99585 0.0
C994 C 0.47131 0.93452 0.00513 0.0
C995 C 0.49669 0.93433 0.98906 0.0
C996 C 0.49621 0.91839 0.98878 0.0
C997 C 0.48404 0.94253 0.99697 0.0
H998 H 0.46123 0.91213 0.0095 0.0
H999 H 0.50571 0.91193 0.98211 0.0
C1000 C 0.4933 0.84055 0.96857 0.0
N1001 N 0.51285 0.81749 0.95482 0.0
C1002 C 0.49214 0.83474 0.94755 0.0
C1003 C 0.5042 0.83439 0.98272 0.0
C1004 C 0.50217 0.82314 0.94087 0.0
C1005 C 0.51404 0.82282 0.97544 0.0
C1006 C 0.44919 0.87287 0.9946 0.0
C1007 C 0.44656 0.85724 0.99078 0.0
C1008 C 0.43706 0.88223 0.00135 0.0
C1009 C 0.43182 0.85127 0.99374 0.0
C1010 C 0.42248 0.87582 0.00409 0.0
N1011 N 0.42018 0.8606 0.00026 0.0
C1012 C 0.46617 0.85942 0.04249 0.0
C1013 C 0.47384 0.83638 0.02507 0.0
C1014 C 0.46032 0.85115 0.05994 0.0
N1015 N 0.47287 0.85196 0.02565 0.0
C1016 C 0.46798 0.82763 0.04209 0.0
C1017 C 0.46112 0.83505 0.05978 0.0
H1018 H 0.46512 0.87179 0.04215 0.0
H1019 H 0.47884 0.83072 0.01121 0.0
C1020 C 0.46957 0.86521 0.92143 0.0
N1021 N 0.46126 0.86853 0.93943 0.0
C1022 C 0.4622 0.86158 0.9021 0.0
C1023 C 0.43781 0.86621 0.91963 0.0
C1024 C 0.44568 0.86973 0.93868 0.0
C1025 C 0.4461 0.86156 0.90127 0.0
H1026 H 0.48197 0.86492 0.92231 0.0
H1027 H 0.43929 0.87304 0.95287 0.0
O1028 O 0.4981 0.87734 0.00696 0.0
O1029 O 0.4903 0.88555 0.96009 0.0
O1030 O 0.48383 0.85218 0.97528 0.0
O1031 O 0.46357 0.87902 0.99225 0.0
H1032 H 0.488 0.89783 0.03531 0.0
H1033 H 0.51149 0.85459 0.02837 0.0
H1034 H 0.49042 0.89543 0.07513 0.0
H1035 H 0.51338 0.85288 0.06831 0.0
H1036 H 0.45524 0.92033 0.93591 0.0
H1037 H 0.50727 0.89823 0.92954 0.0
H1038 H 0.46291 0.89911 0.96035 0.0
H1039 H 0.49878 0.9195 0.90556 0.0
H1040 H 0.55515 0.85451 0.9826 0.0
H1041 H 0.53591 0.86109 0.91873 0.0
H1042 H 0.46138 0.94059 0.01132 0.0
H1043 H 0.50673 0.94022 0.98285 0.0
H1044 H 0.48355 0.83902 0.93652 0.0
H1045 H 0.5052 0.83866 -0.00093 0.0
H1046 H 0.50145 0.8186 0.9246 0.0
H1047 H 0.52264 0.81809 0.98617 0.0
H1048 H 0.45574 0.84978 0.98553 0.0
H1049 H 0.43889 0.89432 0.00445 0.0
H1050 H 0.42963 0.83921 0.99083 0.0
H1051 H 0.41299 0.88294 0.00928 0.0
H1052 H 0.45482 0.85726 0.07311 0.0
H1053 H 0.46873 0.81522 0.04141 0.0
H1054 H 0.469 0.85834 0.88814 0.0
H1055 H 0.42537 0.86637 0.91959 0.0
Li1056 Li 0.88095 0.25188 0.78426 0.0
Li1057 Li 0.8601 0.26895 0.77416 0.0
Li1058 Li 0.88416 0.27319 0.75764 0.0
Li1059 Li 0.87916 0.2785 0.7962 0.0
C1060 C 0.86001 0.24511 0.74765 0.0
N1061 N 0.8354 0.22771 0.73349 0.0
C1062 C 0.85141 0.23642 0.76236 0.0
C1063 C 0.85617 0.24478 0.72569 0.0
C1064 C 0.83899 0.22776 0.7549 0.0
C1065 C 0.84368 0.23594 0.71886 0.0
C1066 C 0.86258 0.26338 0.82473 0.0
C1067 C 0.85157 0.27827 0.85384 0.0
N1068 N 0.85787 0.26843 0.86844 0.0
C1069 C 0.8687 0.25327 0.84004 0.0
C1070 C 0.85372 0.27583 0.8317 0.0
C1071 C 0.86627 0.25607 0.86205 0.0
C1072 C 0.89792 0.23228 0.80968 0.0
N1073 N 0.88832 0.23225 0.7924 0.0
C1074 C 0.88996 0.2049 0.78971 0.0
C1075 C 0.88457 0.219 0.78198 0.0
C1076 C 0.89935 0.20458 0.80816 0.0
C1077 C 0.90357 0.21853 0.8179 0.0
H1078 H 0.901 0.24304 0.8173 0.0
H1079 H 0.87735 0.2193 0.7678 0.0
C1080 C 0.83303 0.27157 0.7487 0.0
N1081 N 0.83871 0.26879 0.76882 0.0
C1082 C 0.81765 0.26848 0.74415 0.0
C1083 C 0.81431 0.26023 0.78127 0.0
C1084 C 0.82965 0.26358 0.78513 0.0
C1085 C 0.80831 0.26229 0.76045 0.0
H1086 H 0.84062 0.27533 0.73591 0.0
H1087 H 0.83451 0.26114 0.8008 0.0
C1088 C 0.91085 0.26143 0.77773 0.0
N1089 N 0.93852 0.24814 0.76639 0.0
C1090 C 0.92413 0.26478 0.78951 0.0
C1091 C 0.91163 0.25127 0.76022 0.0
C1092 C 0.93801 0.25796 0.78351 0.0
C1093 C 0.92573 0.24469 0.75474 0.0
C1094 C 0.85936 0.29804 0.76214 0.0
C1095 C 0.85961 0.30203 0.74023 0.0
C1096 C 0.84754 0.30356 0.77535 0.0
C1097 C 0.84785 0.31117 0.7318 0.0
C1098 C 0.83598 0.31264 0.76632 0.0
N1099 N 0.83636 0.31622 0.7449 0.0
C1100 C 0.88955 0.27745 0.7131 0.0
C1101 C 0.9092 0.28669 0.73621 0.0
C1102 C 0.8975 0.28262 0.69494 0.0
N1103 N 0.89546 0.27962 0.73319 0.0
C1104 C 0.91768 0.29182 0.71849 0.0
C1105 C 0.91178 0.28994 0.69749 0.0
H1106 H 0.87844 0.27214 0.71126 0.0
H1107 H 0.91354 0.28844 0.75242 0.0
C1108 C 0.89368 0.28505 0.83501 0.0
N1109 N 0.88438 0.29122 0.81969 0.0
C1110 C 0.8975 0.29351 0.85335 0.0
C1111 C 0.88216 0.31457 0.83969 0.0
C1112 C 0.87862 0.30567 0.82157 0.0
C1113 C 0.89176 0.30849 0.85581 0.0
H1114 H 0.89798 0.27347 0.83304 0.0
H1115 H 0.87128 0.31025 0.80905 0.0
O1116 O 0.87185 0.25414 0.75486 0.0
O1117 O 0.86506 0.261 0.80307 0.0
O1118 O 0.89715 0.26788 0.78364 0.0
O1119 O 0.8708 0.28908 0.77065 0.0
H1120 H 0.85414 0.23657 0.77944 0.0
H1121 H 0.86267 0.25132 0.714 0.0
H1122 H 0.83215 0.22113 0.76616 0.0
H1123 H 0.84054 0.23566 0.70193 0.0
H1124 H 0.8449 0.28798 0.85941 0.0
H1125 H 0.87518 0.24333 0.83505 0.0
H1126 H 0.84867 0.28363 0.82014 0.0
H1127 H 0.87104 0.24838 0.87404 0.0
H1128 H 0.88657 0.19439 0.78164 0.0
H1129 H 0.91116 0.21883 0.83178 0.0
H1130 H 0.81336 0.27007 0.72786 0.0
H1131 H 0.80733 0.25557 0.79422 0.0
H1132 H 0.92368 0.27255 0.80317 0.0
H1133 H 0.90146 0.24846 0.75098 0.0
H1134 H 0.94839 0.26045 0.79248 0.0
H1135 H 0.9265 0.23682 0.74123 0.0
H1136 H 0.86875 0.29813 0.7298 0.0
H1137 H 0.84722 0.30079 0.79236 0.0
H1138 H 0.84787 0.31425 0.71484 0.0
H1139 H 0.82671 0.31686 0.77634 0.0
H1140 H 0.8923 0.28125 0.67914 0.0
H1141 H 0.92871 0.29722 0.72125 0.0
H1142 H 0.90479 0.28835 0.86555 0.0
H1143 H 0.87767 0.32614 0.84089 0.0
Li1144 Li 0.49408 0.12806 0.51981 0.0
Li1145 Li 0.47798 0.10714 0.50742 0.0
Li1146 Li 0.47471 0.13289 0.49357 0.0
Li1147 Li 0.4672 0.12615 0.53044 0.0
C1148 C 0.50779 0.11801 0.48548 0.0
N1149 N 0.53892 0.11535 0.4777 0.0
C1150 C 0.51504 0.10376 0.48748 0.0
C1151 C 0.51636 0.1309 0.47942 0.0
C1152 C 0.53079 0.10265 0.48348 0.0
C1153 C 0.53209 0.12932 0.4756 0.0
C1154 C 0.48206 0.10908 0.55862 0.0
C1155 C 0.46779 0.09725 0.58767 0.0
N1156 N 0.47682 0.10464 0.6023 0.0
C1157 C 0.49123 0.11652 0.57395 0.0
C1158 C 0.47028 0.09932 0.56552 0.0
C1159 C 0.48839 0.11412 0.59596 0.0
C1160 C 0.51757 0.14839 0.5315 0.0
N1161 N 0.51386 0.13331 0.52978 0.0
C1162 C 0.53765 0.12584 0.5458 0.0
C1163 C 0.52362 0.12204 0.53631 0.0
C1164 C 0.5415 0.14137 0.54862 0.0
C1165 C 0.53147 0.15271 0.54079 0.0
H1166 H 0.50954 0.15708 0.52632 0.0
H1167 H 0.52022 0.11013 0.5349 0.0
C1168 C 0.47703 0.08176 0.47906 0.0
N1169 N 0.47835 0.08624 0.50006 0.0
C1170 C 0.47862 0.0663 0.47357 0.0
C1171 C 0.48299 0.06054 0.5114 0.0
C1172 C 0.48122 0.07603 0.51615 0.0
C1173 C 0.48189 0.05558 0.48987 0.0
H1174 H 0.47515 0.09026 0.46658 0.0
H1175 H 0.48257 0.07998 0.53259 0.0
C1176 C 0.47426 0.15901 0.51501 0.0
N1177 N 0.46476 0.18795 0.50243 0.0
C1178 C 0.46024 0.16486 0.52234 0.0
C1179 C 0.48347 0.16791 0.50134 0.0
C1180 C 0.45564 0.17952 0.5158 0.0
C1181 C 0.47845 0.1825 0.49513 0.0
C1182 C 0.44967 0.10772 0.49317 0.0
C1183 C 0.44728 0.1085 0.47083 0.0
C1184 C 0.44344 0.09553 0.505 0.0
C1185 C 0.43876 0.09698 0.46065 0.0
C1186 C 0.43502 0.08421 0.49421 0.0
N1187 N 0.43288 0.08516 0.47245 0.0
C1188 C 0.47932 0.14372 0.45139 0.0
C1189 C 0.45634 0.1524 0.46803 0.0
C1190 C 0.47573 0.1516 0.43243 0.0
N1191 N 0.46966 0.1443 0.46864 0.0
C1192 C 0.45238 0.16061 0.44949 0.0
C1193 C 0.4621 0.16014 0.43137 0.0
H1194 H 0.48968 0.13694 0.4522 0.0
H1195 H 0.44872 0.15233 0.48185 0.0
C1196 C 0.45939 0.13843 0.57016 0.0
N1197 N 0.45358 0.12996 0.55364 0.0
C1198 C 0.4505 0.14147 0.58834 0.0
C1199 C 0.42956 0.12735 0.57197 0.0
C1200 C 0.43899 0.12439 0.55413 0.0
C1201 C 0.43537 0.13595 0.58937 0.0
H1202 H 0.47097 0.14286 0.56911 0.0
H1203 H 0.43466 0.11777 0.54066 0.0
O1204 O 0.49244 0.11941 0.48977 0.0
O1205 O 0.48445 0.1115 0.53698 0.0
O1206 O 0.47892 0.14463 0.5211 0.0
O1207 O 0.45812 0.11879 0.50339 0.0
H1208 H 0.50863 0.09368 0.49228 0.0
H1209 H 0.51095 0.14205 0.47802 0.0
H1210 H 0.53656 0.0917 0.48505 0.0
H1211 H 0.53888 0.13922 0.47106 0.0
H1212 H 0.45864 0.08983 0.59322 0.0
H1213 H 0.50029 0.12423 0.56897 0.0
H1214 H 0.46297 0.09358 0.5539 0.0
H1215 H 0.49534 0.11987 0.60799 0.0
H1216 H 0.54501 0.11678 0.55186 0.0
H1217 H 0.53412 0.16481 0.54249 0.0
H1218 H 0.47785 0.06285 0.45676 0.0
H1219 H 0.4854 0.05254 0.52439 0.0
H1220 H 0.45291 0.15813 0.53281 0.0
H1221 H 0.49426 0.16349 0.49527 0.0
H1222 H 0.4448 0.18417 0.52129 0.0
H1223 H 0.4854 0.18945 0.48443 0.0
H1224 H 0.45203 0.11784 0.46142 0.0
H1225 H 0.44525 0.09471 0.52228 0.0
H1226 H 0.43687 0.0974 0.44336 0.0
H1227 H 0.43023 0.07466 0.50313 0.0
H1228 H 0.48345 0.15095 0.41871 0.0
H1229 H 0.44162 0.16684 0.44907 0.0
H1230 H 0.45525 0.14849 0.60117 0.0
H1231 H 0.41789 0.12306 0.57215 0.0
Li1232 Li 0.6176 0.74712 0.27218 0.0
Li1233 Li 0.6393 0.73014 0.26665 0.0
Li1234 Li 0.61462 0.72482 0.24988 0.0
Li1235 Li 0.61868 0.72144 0.28862 0.0
C1236 C 0.62958 0.75635 0.23506 0.0
N1237 N 0.632 0.78518 0.21667 0.0
C1238 C 0.64363 0.76411 0.23524 0.0
C1239 C 0.61679 0.7632 0.22539 0.0
C1240 C 0.64462 0.77869 0.22587 0.0
C1241 C 0.61823 0.7778 0.21623 0.0
C1242 C 0.63303 0.73989 0.31586 0.0
C1243 C 0.64165 0.72937 0.34989 0.0
N1244 N 0.63363 0.74043 0.36058 0.0
C1245 C 0.62491 0.75117 0.3272 0.0
C1246 C 0.64153 0.72893 0.3273 0.0
C1247 C 0.62535 0.75124 0.3498 0.0
C1248 C 0.59715 0.77112 0.28124 0.0
N1249 N 0.61208 0.76776 0.27711 0.0
C1250 C 0.61974 0.79334 0.28587 0.0
C1251 C 0.62331 0.77851 0.27901 0.0
C1252 C 0.60452 0.79697 0.29146 0.0
C1253 C 0.5931 0.78571 0.2885 0.0
H1254 H 0.58853 0.76223 0.2801 0.0
H1255 H 0.63515 0.77535 0.2762 0.0
C1256 C 0.66721 0.72879 0.24328 0.0
N1257 N 0.6607 0.73061 0.26311 0.0
C1258 C 0.68288 0.7315 0.2405 0.0
C1259 C 0.68475 0.7374 0.2787 0.0
C1260 C 0.66912 0.7346 0.2807 0.0
C1261 C 0.69171 0.73624 0.25831 0.0
H1262 H 0.6601 0.72591 0.22951 0.0
H1263 H 0.66361 0.73624 0.29615 0.0
C1264 C 0.58676 0.72768 0.26795 0.0
N1265 N 0.55781 0.71894 0.25443 0.0
C1266 C 0.57962 0.71487 0.27718 0.0
C1267 C 0.57912 0.73614 0.25203 0.0
C1268 C 0.56498 0.71062 0.27009 0.0
C1269 C 0.56451 0.7315 0.24535 0.0
C1270 C 0.64021 0.70114 0.25764 0.0
C1271 C 0.64124 0.6972 0.23576 0.0
C1272 C 0.65161 0.69628 0.27202 0.0
C1273 C 0.65374 0.68851 0.2286 0.0
C1274 C 0.66393 0.68763 0.26422 0.0
N1275 N 0.66473 0.68396 0.24285 0.0
C1276 C 0.60757 0.72332 0.20556 0.0
C1277 C 0.59539 0.70436 0.22719 0.0
C1278 C 0.60061 0.71749 0.18698 0.0
N1279 N 0.60475 0.71678 0.22514 0.0
C1280 C 0.58792 0.69838 0.20912 0.0
C1281 C 0.59058 0.70496 0.18876 0.0
H1282 H 0.61534 0.73295 0.20435 0.0
H1283 H 0.59379 0.69909 0.24286 0.0
C1284 C 0.60486 0.71631 0.32905 0.0
N1285 N 0.61349 0.70971 0.31328 0.0
C1286 C 0.60174 0.70832 0.34808 0.0
C1287 C 0.61587 0.68663 0.33385 0.0
C1288 C 0.61891 0.69515 0.31521 0.0
C1289 C 0.60723 0.69324 0.35066 0.0
H1290 H 0.60064 0.7279 0.32695 0.0
H1291 H 0.6256 0.69014 0.30227 0.0
O1292 O 0.62834 0.74212 0.24428 0.0
O1293 O 0.63259 0.7395 0.29371 0.0
O1294 O 0.60112 0.73194 0.27455 0.0
O1295 O 0.62819 0.70983 0.26491 0.0
H1296 H 0.65364 0.75904 0.24273 0.0
H1297 H 0.60584 0.75734 0.22508 0.0
H1298 H 0.6554 0.78486 0.22599 0.0
H1299 H 0.60841 0.78327 0.20879 0.0
H1300 H 0.64806 0.72089 0.35893 0.0
H1301 H 0.61822 0.75971 0.3187 0.0
H1302 H 0.64774 0.72 0.31882 0.0
H1303 H 0.61908 0.75987 0.35877 0.0
H1304 H 0.62891 0.80164 0.28771 0.0
H1305 H 0.58128 0.78777 0.29309 0.0
H1306 H 0.68787 0.73061 0.22449 0.0
H1307 H 0.69125 0.74084 0.29284 0.0
H1308 H 0.58536 0.7082 0.28953 0.0
H1309 H 0.58446 0.74612 0.2448 0.0
H1310 H 0.55935 0.70069 0.27699 0.0
H1311 H 0.55851 0.73787 0.23293 0.0
H1312 H 0.63255 0.70089 0.2244 0.0
H1313 H 0.65104 0.69934 0.28898 0.0
H1314 H 0.65471 0.68542 0.2117 0.0
H1315 H 0.67288 0.68387 0.27514 0.0
H1316 H 0.60295 0.72273 0.17143 0.0
H1317 H 0.58042 0.68853 0.21091 0.0
H1318 H 0.59518 0.71395 0.36068 0.0
H1319 H 0.62004 0.67494 0.33489 0.0
Li1320 Li 0.00204 0.86973 0.01741 0.0
Li1321 Li 0.01458 0.89248 0.00368 0.0
Li1322 Li 0.02175 0.86717 0.99111 0.0
Li1323 Li 0.02865 0.87583 0.02754 0.0
C1324 C -0.00148 0.87555 0.96651 0.0
N1325 N 0.99345 0.87083 0.92288 0.0
C1326 C 0.00106 0.88744 0.95174 0.0
C1327 C 0.99329 0.8613 0.95913 0.0
C1328 C -0.00157 0.88482 0.92974 0.0
C1329 C 0.99084 0.85913 0.937 0.0
C1330 C 0.00513 0.90062 0.0431 0.0
C1331 C 0.01059 0.92587 0.05721 0.0
N1332 N 0.99527 0.92851 0.0593 0.0
C1333 C 0.98944 0.90353 0.04554 0.0
C1334 C 0.01581 0.91182 0.04914 0.0
C1335 C 0.98469 0.91772 0.05372 0.0
C1336 C 0.98219 0.86121 0.05025 0.0
N1337 N 0.98329 0.86237 0.02841 0.0
C1338 C 0.95781 0.85276 0.02395 0.0
C1339 C 0.97143 0.8585 0.01518 0.0
C1340 C 0.95646 0.85116 0.04648 0.0
C1341 C 0.96884 0.85555 0.05968 0.0
H1342 H 0.99182 0.86449 0.06029 0.0
H1343 H 0.9726 0.85977 0.99787 0.0
C1344 C 0.02219 0.92352 0.99568 0.0
N1345 N 0.01065 0.91307 0.99708 0.0
C1346 C 0.01877 0.93916 0.99558 0.0
C1347 C 0.99171 0.93278 0.9973 0.0
C1348 C 0.99564 0.9173 0.99699 0.0
C1349 C 0.00339 0.94384 0.99721 0.0
H1350 H 0.034 0.91974 0.99577 0.0
H1351 H 0.98679 0.90862 -0.00187 0.0
C1352 C 0.01374 0.8436 0.02919 0.0
N1353 N -0.00036 0.82004 0.05164 0.0
C1354 C 0.01705 0.84125 0.05107 0.0
C1355 C 0.00338 0.83387 0.01867 0.0
C1356 C 0.00979 0.82929 0.06215 0.0
C1357 C 0.99632 0.82207 0.03033 0.0
C1358 C 0.05092 0.88637 0.00122 0.0
C1359 C 0.06098 0.87634 0.99065 0.0
C1360 C 0.05682 0.89816 0.01413 0.0
C1361 C 0.0768 0.87823 0.99331 0.0
C1362 C 0.07272 0.89964 0.01641 0.0
N1363 N 0.08229 0.88973 0.00604 0.0
C1364 C 0.03256 0.86316 0.94869 0.0
C1365 C 0.02902 0.84007 0.96848 0.0
C1366 C 0.03717 0.85491 0.93049 0.0
N1367 N 0.02847 0.85563 0.96707 0.0
C1368 C 0.03368 0.83136 0.95072 0.0
C1369 C 0.03776 0.83881 0.93142 0.0
H1370 H 0.03225 0.87558 0.94823 0.0
H1371 H 0.02587 0.83442 0.98339 0.0
C1372 C 0.03782 0.87876 0.07069 0.0
N1373 N 0.04281 0.87441 0.05078 0.0
C1374 C 0.04663 0.87562 0.08901 0.0
C1375 C 0.06602 0.86451 0.06581 0.0
C1376 C 0.05665 0.86749 0.04802 0.0
C1377 C 0.06079 0.86803 0.08678 0.0
H1378 H 0.02656 0.88382 0.07252 0.0
H1379 H 0.06015 0.86366 0.03215 0.0
O1380 O 0.00126 0.87781 0.98807 0.0
O1381 O 0.01001 0.88697 0.03455 0.0
O1382 O 0.02041 0.85551 0.0182 0.0
O1383 O 0.03539 0.88475 -0.00124 0.0
H1384 H 0.00515 0.89853 0.95715 0.0
H1385 H 0.99139 0.85193 0.97033 0.0
H1386 H 0.00042 0.89389 0.9181 0.0
H1387 H 0.98693 0.84812 0.93103 0.0
H1388 H 0.01872 0.9347 0.06176 0.0
H1389 H 0.98102 0.89502 0.04086 0.0
H1390 H 0.02799 0.90972 0.04741 0.0
H1391 H 0.97258 0.92019 0.05553 0.0
H1392 H 0.94848 0.84958 0.01326 0.0
H1393 H 0.9684 0.85422 0.0771 0.0
H1394 H 0.02802 0.94748 0.99556 0.0
H1395 H 0.97974 0.93608 -0.00158 0.0
H1396 H 0.02505 0.84863 0.05948 0.0
H1397 H 0.00059 0.8356 0.00178 0.0
H1398 H 0.01218 0.82739 0.07911 0.0
H1399 H 0.98816 0.81456 0.02245 0.0
H1400 H 0.05665 0.86713 0.98064 0.0
H1401 H 0.04923 0.90599 0.0225 0.0
H1402 H 0.08472 0.87052 0.9853 0.0
H1403 H 0.07744 0.90866 0.02646 0.0
H1404 H 0.04049 0.86106 0.91599 0.0
H1405 H 0.03399 0.81895 0.952 0.0
H1406 H 0.0419 0.87827 0.10478 0.0
H1407 H 0.07694 0.85886 0.06319 0.0
Li1408 Li 0.62121 0.77121 0.78279 0.0
Li1409 Li 0.6177 0.74643 0.76631 0.0
Li1410 Li 0.64077 0.76007 0.75988 0.0
Li1411 Li 0.6162 0.76861 0.74342 0.0
C1412 C 0.63099 0.74675 0.80817 0.0
N1413 N 0.62607 0.7353 0.84929 0.0
C1414 C 0.61604 0.7448 0.8159 0.0
C1415 C 0.64344 0.74286 0.82132 0.0
C1416 C 0.61378 0.73899 0.83673 0.0
C1417 C 0.64072 0.73711 0.84208 0.0
C1418 C 0.58736 0.76131 0.76863 0.0
C1419 C 0.56326 0.75624 0.75074 0.0
N1420 N 0.55588 0.75736 0.77008 0.0
C1421 C 0.5795 0.7626 0.78828 0.0
C1422 C 0.57916 0.75828 0.74966 0.0
C1423 C 0.5636 0.76048 0.78869 0.0
C1424 C 0.60508 0.79388 0.80391 0.0
N1425 N 0.61702 0.78407 0.80662 0.0
C1426 C 0.62076 0.7927 0.84293 0.0
C1427 C 0.62512 0.78353 0.82543 0.0
C1428 C 0.60803 0.80249 0.84087 0.0
C1429 C 0.60037 0.80326 0.82089 0.0
H1430 H 0.59904 0.79419 0.78862 0.0
H1431 H 0.63478 0.77583 0.827 0.0
C1432 C 0.62119 0.7161 0.77937 0.0
N1433 N 0.61053 0.72608 0.77155 0.0
C1434 C 0.61675 0.70171 0.78697 0.0
C1435 C 0.59062 0.70764 0.77674 0.0
C1436 C 0.59557 0.72192 0.76933 0.0
C1437 C 0.60119 0.6976 0.78646 0.0
H1438 H 0.63306 0.71965 0.78067 0.0
H1439 H 0.58736 0.72984 0.76262 0.0
C1440 C 0.64218 0.79212 0.76646 0.0
N1441 N 0.66225 0.81382 0.78272 0.0
C1442 C 0.64284 0.80677 0.75726 0.0
C1443 C 0.65168 0.78852 0.78397 0.0
C1444 C 0.65308 0.81758 0.7657 0.0
C1445 C 0.66176 0.79964 0.79194 0.0
C1446 C 0.62556 0.73547 0.72899 0.0
C1447 C 0.63673 0.72402 0.73085 0.0
C1448 C 0.6117 0.73222 0.71857 0.0
C1449 C 0.63374 0.7094 0.72251 0.0
C1450 C 0.60914 0.71747 0.71044 0.0
N1451 N 0.62012 0.70645 0.71259 0.0
C1452 C 0.66796 0.74484 0.7653 0.0
C1453 C 0.67078 0.7683 0.74608 0.0
C1454 C 0.68367 0.74213 0.76418 0.0
N1455 N 0.66191 0.75772 0.75632 0.0
C1456 C 0.68664 0.76619 0.74492 0.0
C1457 C 0.69315 0.75295 0.75403 0.0
H1458 H 0.66052 0.73671 0.77341 0.0
H1459 H 0.66558 0.77841 0.73903 0.0
C1460 C 0.59627 0.78938 0.72393 0.0
N1461 N 0.60668 0.77814 0.71982 0.0
C1462 C 0.58867 0.7966 0.70689 0.0
C1463 C 0.60287 0.78064 0.68179 0.0
C1464 C 0.61014 0.77368 0.69934 0.0
C1465 C 0.59195 0.79224 0.68551 0.0
H1466 H 0.59384 0.79265 0.74048 0.0
H1467 H 0.6185 0.76469 0.69667 0.0
O1468 O 0.63355 0.75242 0.78783 0.0
O1469 O 0.6029 0.76363 0.76789 0.0
O1470 O 0.63215 0.78147 0.7584 0.0
O1471 O 0.6281 0.74972 0.7376 0.0
H1472 H 0.60631 0.7476 0.80588 0.0
H1473 H 0.6551 0.74432 0.81556 0.0
H1474 H 0.60226 0.73739 0.84289 0.0
H1475 H 0.65025 0.73408 0.85246 0.0
H1476 H 0.55679 0.75379 0.7362 0.0
H1477 H 0.58557 0.76528 0.80308 0.0
H1478 H 0.58498 0.7574 0.73427 0.0
H1479 H 0.55738 0.76138 0.80381 0.0
H1480 H 0.62694 0.79175 0.85807 0.0
H1481 H 0.5907 0.8109 0.8185 0.0
H1482 H 0.62524 0.69433 0.79448 0.0
H1483 H 0.57854 0.70475 0.77581 0.0
H1484 H 0.63552 0.80974 0.74374 0.0
H1485 H 0.65133 0.77725 0.79132 0.0
H1486 H 0.65373 0.82896 0.75873 0.0
H1487 H 0.6692 0.797 0.80546 0.0
H1488 H 0.64754 0.72634 0.73883 0.0
H1489 H 0.60297 0.74097 0.7169 0.0
H1490 H 0.64224 0.7004 0.72397 0.0
H1491 H 0.59842 0.71477 0.70246 0.0
H1492 H 0.6884 0.73185 0.77147 0.0
H1493 H 0.69371 0.77469 0.73686 0.0
H1494 H 0.58046 0.80561 0.71038 0.0
H1495 H 0.6056 0.77688 0.66553 0.0
Li1496 Li 0.49776 0.37215 0.02132 0.0
Li1497 Li 0.47256 0.37239 0.039 0.0
Li1498 Li 0.47535 0.3673 0.00044 0.0
Li1499 Li 0.47958 0.39268 0.0153 0.0
C1500 C 0.47854 0.34067 0.01918 0.0
N1501 N 0.46793 0.31231 0.00573 0.0
C1502 C 0.46511 0.33454 0.02807 0.0
C1503 C 0.48661 0.33234 0.00351 0.0
C1504 C 0.45993 0.32018 0.02106 0.0
C1505 C 0.48104 0.31805 0.99689 0.0
C1506 C 0.49069 0.3881 0.06452 0.0
C1507 C 0.48057 0.39677 0.09879 0.0
N1508 N 0.49204 0.38917 0.1092 0.0
C1509 C 0.50237 0.38038 0.07559 0.0
C1510 C 0.47971 0.3964 0.07622 0.0
C1511 C 0.50286 0.38107 0.09817 0.0
C1512 C 0.52899 0.37923 0.02847 0.0
N1513 N 0.51879 0.36761 0.02537 0.0
C1514 C 0.53808 0.34887 0.0323 0.0
C1515 C 0.52307 0.35266 0.02676 0.0
C1516 C 0.54876 0.36059 0.03662 0.0
C1517 C 0.54418 0.37595 0.03407 0.0
H1518 H 0.52516 0.39102 0.0275 0.0
H1519 H 0.51465 0.34369 0.02462 0.0
C1520 C 0.44657 0.37171 0.0661 0.0
N1521 N 0.46144 0.36718 0.06428 0.0
C1522 C 0.43797 0.36756 0.0842 0.0
C1523 C 0.46024 0.35432 0.09833 0.0
C1524 C 0.46838 0.35866 0.07989 0.0
C1525 C 0.44476 0.35861 0.10047 0.0
H1526 H 0.44128 0.37825 0.05328 0.0
H1527 H 0.48016 0.355 0.07779 0.0
C1528 C 0.50609 0.38434 0.98457 0.0
N1529 N 0.53518 0.38948 0.96819 0.0
C1530 C 0.51224 0.39917 0.98441 0.0
C1531 C 0.51474 0.37212 0.97634 0.0
C1532 C 0.52696 0.40154 0.97606 0.0
C1533 C 0.52943 0.37496 0.96817 0.0
C1534 C 0.45012 0.39154 0.00826 0.0
C1535 C 0.44533 0.39176 0.98667 0.0
C1536 C 0.44493 0.40289 0.02251 0.0
C1537 C 0.43542 0.40336 0.97969 0.0
C1538 C 0.43506 0.41432 0.01488 0.0
N1539 N 0.43055 0.41432 0.99381 0.0
C1540 C 0.45268 0.35003 0.97941 0.0
C1541 C 0.47563 0.35329 0.95922 0.0
C1542 C 0.44635 0.34107 0.96298 0.0
N1543 N 0.46707 0.35587 0.97723 0.0
C1544 C 0.46983 0.34426 0.94249 0.0
C1545 C 0.45501 0.33805 0.9443 0.0
H1546 H 0.44618 0.35229 0.99399 0.0
H1547 H 0.48697 0.35819 0.95787 0.0
C1548 C 0.48054 0.42332 0.02767 0.0
N1549 N 0.47775 0.41391 0.01061 0.0
C1550 C 0.47971 0.43915 0.02518 0.0
C1551 C 0.47322 0.43535 0.98746 0.0
C1552 C 0.47413 0.41953 0.99073 0.0
C1553 C 0.47612 0.44533 0.00484 0.0
H1554 H 0.48373 0.41853 0.04312 0.0
H1555 H 0.47216 0.41171 0.97742 0.0
O1556 O 0.4836 0.35487 0.02545 0.0
O1557 O 0.48991 0.38745 0.0424 0.0
O1558 O 0.49174 0.38176 0.99286 0.0
O1559 O 0.46 0.38039 0.01534 0.0
H1560 H 0.45864 0.34085 0.04007 0.0
H1561 H 0.4969 0.33701 0.99621 0.0
H1562 H 0.44952 0.31533 0.02773 0.0
H1563 H 0.48709 0.31155 0.98465 0.0
H1564 H 0.47209 0.40305 0.10802 0.0
H1565 H 0.5109 0.37379 0.06693 0.0
H1566 H 0.47043 0.40225 0.06799 0.0
H1567 H 0.51181 0.37511 0.10693 0.0
H1568 H 0.54097 0.33688 0.03462 0.0
H1569 H 0.55204 0.38532 0.0373 0.0
H1570 H 0.42604 0.37102 0.08525 0.0
H1571 H 0.46578 0.34713 0.11032 0.0
H1572 H 0.50579 0.40876 0.99082 0.0
H1573 H 0.5103 0.36052 0.97669 0.0
H1574 H 0.53187 0.41295 0.97589 0.0
H1575 H 0.53629 0.36559 0.96192 0.0
H1576 H 0.44933 0.38317 0.97536 0.0
H1577 H 0.4487 0.40304 0.03919 0.0
H1578 H 0.43166 0.4037 0.96301 0.0
H1579 H 0.43105 0.42324 0.02568 0.0
H1580 H 0.4349 0.33641 0.96493 0.0
H1581 H 0.47674 0.34235 0.92817 0.0
H1582 H 0.4824 0.44648 0.03883 0.0
H1583 H 0.47045 0.43974 0.97153 0.0
Li1584 Li 0.87495 0.24359 0.26715 0.0
Li1585 Li 0.87226 0.21776 0.27848 0.0
Li1586 Li 0.87647 0.22353 0.24044 0.0
Li1587 Li 0.8516 0.23001 0.25984 0.0
C1588 C 0.90555 0.23096 0.26252 0.0
N1589 N 0.9361 0.23894 0.25782 0.0
C1590 C 0.91592 0.22843 0.27942 0.0
C1591 C 0.91077 0.23746 0.24317 0.0
C1592 C 0.9313 0.23259 0.27675 0.0
C1593 C 0.92624 0.24143 0.24112 0.0
C1594 C 0.8641 0.23916 0.30911 0.0
C1595 C 0.85738 0.24525 0.34603 0.0
N1596 N 0.87254 0.24654 0.35099 0.0
C1597 C 0.87961 0.24048 0.31464 0.0
C1598 C 0.85289 0.24152 0.32497 0.0
C1599 C 0.88365 0.24425 0.33586 0.0
C1600 C 0.86967 0.2731 0.28204 0.0
N1601 N 0.88126 0.26383 0.27519 0.0
C1602 C 0.89983 0.28292 0.28427 0.0
C1603 C 0.89611 0.26858 0.27574 0.0
C1604 C 0.88814 0.29253 0.29223 0.0
C1605 C 0.87284 0.28763 0.29042 0.0
H1606 H 0.85796 0.26898 0.28166 0.0
H1607 H 0.9052 0.2611 0.2705 0.0
C1608 C 0.89006 0.19569 0.29989 0.0
N1609 N 0.87644 0.20324 0.30043 0.0
C1610 C 0.89399 0.18567 0.31657 0.0
C1611 C 0.86956 0.19103 0.33366 0.0
C1612 C 0.86608 0.20091 0.31657 0.0
C1613 C 0.88379 0.18346 0.33394 0.0
H1614 H 0.89798 0.19771 0.28672 0.0
H1615 H 0.85522 0.20695 0.31635 0.0
C1616 C 0.86296 0.25746 0.2326 0.0
N1617 N 0.86152 0.28789 0.22008 0.0
C1618 C 0.8498 0.26614 0.23689 0.0
C1619 C 0.87529 0.26419 0.22165 0.0
C1620 C 0.84932 0.28152 0.2305 0.0
C1621 C 0.87437 0.27961 0.21554 0.0
C1622 C 0.8583 0.19494 0.25988 0.0
C1623 C 0.86931 0.18367 0.25553 0.0
C1624 C 0.8452 0.19118 0.27185 0.0
C1625 C 0.86709 0.1688 0.26345 0.0
C1626 C 0.8434 0.17618 0.27946 0.0
N1627 N 0.8543 0.1654 0.27516 0.0
C1628 C 0.89768 0.20784 0.21464 0.0
C1629 C 0.87898 0.22217 0.1953 0.0
C1630 C 0.90493 0.20371 0.1954 0.0
N1631 N 0.8851 0.21705 0.21419 0.0
C1632 C 0.88573 0.21813 0.17563 0.0
C1633 C 0.89897 0.20895 0.17563 0.0
H1634 H 0.90223 0.20396 0.22999 0.0
H1635 H 0.86897 0.22952 0.19557 0.0
C1636 C 0.82292 0.23933 0.27335 0.0
N1637 N 0.8304 0.23165 0.25741 0.0
C1638 C 0.80709 0.24118 0.27235 0.0
C1639 C 0.80703 0.22728 0.23838 0.0
C1640 C 0.82291 0.22559 0.24015 0.0
C1641 C 0.799 0.23517 0.25466 0.0
H1642 H 0.82932 0.24423 0.28663 0.0
H1643 H 0.82929 0.21956 0.22775 0.0
O1644 O 0.89049 0.22675 0.26486 0.0
O1645 O 0.85981 0.23537 0.28843 0.0
O1646 O 0.86372 0.24243 0.23901 0.0
O1647 O 0.86048 0.20965 0.25286 0.0
H1648 H 0.91213 0.22333 0.29448 0.0
H1649 H 0.90297 0.23951 0.22992 0.0
H1650 H 0.93943 0.23074 0.28973 0.0
H1651 H 0.93041 0.2465 0.22625 0.0
H1652 H 0.84881 0.24709 0.35844 0.0
H1653 H 0.88847 0.23868 0.30274 0.0
H1654 H 0.84083 0.24038 0.32113 0.0
H1655 H 0.89561 0.24535 0.3403 0.0
H1656 H 0.91183 0.28601 0.28574 0.0
H1657 H 0.86344 0.29468 0.29615 0.0
H1658 H 0.90518 0.18024 0.31632 0.0
H1659 H 0.86136 0.18955 0.34667 0.0
H1660 H 0.84013 0.26111 0.24526 0.0
H1661 H 0.88546 0.2576 0.21791 0.0
H1662 H 0.83926 0.28841 0.23387 0.0
H1663 H 0.88386 0.28499 0.20717 0.0
H1664 H 0.87953 0.18645 0.24637 0.0
H1665 H 0.83662 0.19982 0.27541 0.0
H1666 H 0.87556 0.15998 0.26035 0.0
H1667 H 0.83337 0.17311 0.28885 0.0
H1668 H 0.91503 0.19646 0.19594 0.0
H1669 H 0.88088 0.22237 0.16064 0.0
H1670 H 0.80127 0.24755 0.285 0.0
H1671 H 0.8011 0.22248 0.22455 0.0
Li1672 Li 0.00976 0.6242 0.52186 0.0
Li1673 Li 0.0349 0.61575 0.53229 0.0
Li1674 Li 0.02938 0.62359 0.49457 0.0
Li1675 Li 0.01851 0.59978 0.51028 0.0
C1676 C 0.02859 0.65173 0.52333 0.0
N1677 N 0.02817 0.68333 0.52791 0.0
C1678 C 0.03234 0.65847 0.54319 0.0
C1679 C 0.02488 0.66111 0.50571 0.0
C1680 C 0.03198 0.67445 0.54521 0.0
C1681 C 0.02467 0.67704 0.50838 0.0
C1682 C 0.01204 0.60841 0.56176 0.0
C1683 C 0.00527 0.59823 0.59678 0.0
N1684 N 0.00642 0.61257 0.60538 0.0
C1685 C 0.01311 0.62304 0.57092 0.0
C1686 C 0.00805 0.5959 0.57475 0.0
C1687 C 0.01024 0.62492 0.593 0.0
C1688 C 0.98057 0.62417 0.53962 0.0
N1689 N 0.9913 0.63388 0.53131 0.0
C1690 C 0.97515 0.65548 0.53814 0.0
C1691 C 0.9887 0.64924 0.52998 0.0
C1692 C 0.96416 0.64577 0.54763 0.0
C1693 C 0.96685 0.6299 0.54792 0.0
H1694 H 0.9828 0.61196 0.5401 0.0
H1695 H 0.99713 0.65671 0.52282 0.0
C1696 C 0.06027 0.62824 0.55244 0.0
N1697 N 0.0501 0.61649 0.55406 0.0
C1698 C 0.07029 0.63139 0.56941 0.0
C1699 C 0.05994 0.60957 0.58879 0.0
C1700 C 0.0501 0.60685 0.57137 0.0
C1701 C 0.06986 0.62231 0.58821 0.0
H1702 H 0.06001 0.63567 0.53841 0.0
H1703 H 0.04201 0.59745 0.57212 0.0
C1704 C 0.9941 0.62016 0.48619 0.0
N1705 N 0.96502 0.63025 0.47534 0.0
C1706 C 0.98138 0.61065 0.4895 0.0
C1707 C 0.99206 0.63472 0.4771 0.0
C1708 C 0.96676 0.61599 0.48398 0.0
C1709 C 0.97726 0.63963 0.47179 0.0
C1710 C 0.05003 0.59269 0.51013 0.0
C1711 C 0.06366 0.59033 0.49866 0.0
C1712 C 0.046 0.58264 0.52684 0.0
C1713 C 0.07305 0.5779 0.5041 0.0
C1714 C 0.0557 0.57035 0.53178 0.0
N1715 N 0.06891 0.56825 0.5204 0.0
C1716 C 0.04911 0.64273 0.47071 0.0
C1717 C 0.02988 0.62981 0.45047 0.0
C1718 C 0.05401 0.65055 0.45227 0.0
N1719 N 0.03711 0.6328 0.46946 0.0
C1720 C 0.03443 0.63732 0.43162 0.0
C1721 C 0.04651 0.648 0.43245 0.0
H1722 H 0.05456 0.64486 0.48615 0.0
H1723 H 0.02041 0.62178 0.45006 0.0
C1724 C -0.00034 0.57477 0.5158 0.0
N1725 N 0.01203 0.57982 0.50446 0.0
C1726 C 0.99401 0.56003 0.51238 0.0
C1727 C 0.01409 0.55596 0.48584 0.0
C1728 C 0.01922 0.5709 0.48955 0.0
C1729 C 0.00134 0.55045 0.49737 0.0
H1730 H 0.99423 0.58224 0.52751 0.0
H1731 H 0.02898 0.57535 0.48071 0.0
O1732 O 0.0292 0.63609 0.52095 0.0
O1733 O 0.01497 0.60621 0.54022 0.0
O1734 O 0.00845 0.61531 0.49206 0.0
O1735 O 0.04079 0.60488 0.50501 0.0
H1736 H 0.03558 0.65146 0.5569 0.0
H1737 H 0.02205 0.65617 0.49019 0.0
H1738 H 0.0348 0.67979 0.5605 0.0
H1739 H 0.02171 0.68441 0.49492 0.0
H1740 H 0.00221 0.58864 0.60705 0.0
H1741 H 0.01603 0.63284 0.56107 0.0
H1742 H 0.0072 0.58448 0.56789 0.0
H1743 H 0.01104 0.63619 0.60029 0.0
H1744 H 0.97337 0.66778 0.53738 0.0
H1745 H 0.95872 0.62204 0.55526 0.0
H1746 H 0.07753 0.64148 0.56835 0.0
H1747 H 0.05935 0.60222 0.6029 0.0
H1748 H 0.98275 0.59935 0.49647 0.0
H1749 H 0.00177 0.64218 0.47429 0.0
H1750 H 0.9568 0.6088 0.48661 0.0
H1751 H 0.9755 0.65091 0.46487 0.0
H1752 H 0.06694 0.59804 0.48571 0.0
H1753 H 0.03551 0.58426 0.53591 0.0
H1754 H 0.08364 0.57594 0.49536 0.0
H1755 H 0.05272 0.56247 0.54466 0.0
H1756 H 0.06327 0.65881 0.45363 0.0
H1757 H 0.02853 0.63483 0.4166 0.0
H1758 H 0.98425 0.55603 0.5217 0.0
H1759 H 0.01996 0.54881 0.47411 0.0
Li1760 Li 0.6461 0.22828 0.7306 0.0
Li1761 Li 0.62137 0.22175 0.74836 0.0
Li1762 Li 0.62616 0.21667 0.70954 0.0
Li1763 Li 0.62366 0.24244 0.72296 0.0
C1764 C 0.64593 0.19569 0.72871 0.0
N1765 N 0.6643 0.17147 0.71588 0.0
C1766 C 0.64474 0.18147 0.73905 0.0
C1767 C 0.65646 0.19761 0.71183 0.0
C1768 C 0.65413 0.16936 0.73233 0.0
C1769 C 0.66564 0.18522 0.70559 0.0
C1770 C 0.63428 0.2553 0.75819 0.0
C1771 C 0.62198 0.2769 0.7754 0.0
N1772 N 0.63437 0.28579 0.77056 0.0
C1773 C 0.64694 0.2646 0.75352 0.0
C1774 C 0.62174 0.26144 0.76935 0.0
C1775 C 0.64674 0.28001 0.75987 0.0
C1776 C 0.6755 0.23648 0.71878 0.0
N1777 N 0.66724 0.22937 0.73448 0.0
C1778 C 0.68978 0.22468 0.75526 0.0
C1779 C 0.67394 0.2234 0.75244 0.0
C1780 C 0.69859 0.23204 0.7393 0.0
C1781 C 0.69132 0.23788 0.72081 0.0
H1782 H 0.66973 0.24125 0.70486 0.0
H1783 H 0.66696 0.21781 0.76459 0.0
C1784 C 0.60059 0.20355 0.77108 0.0
N1785 N 0.61185 0.21423 0.77334 0.0
C1786 C 0.59277 0.19815 0.78923 0.0
C1787 C 0.60859 0.2146 0.81164 0.0
C1788 C 0.616 0.21979 0.79302 0.0
C1789 C 0.59676 0.20371 0.8098 0.0
H1790 H 0.5976 0.19938 0.75513 0.0
H1791 H 0.625 0.22832 0.79419 0.0
C1792 C 0.63513 0.23911 0.68107 0.0
N1793 N 0.62738 0.24792 0.63947 0.0
C1794 C 0.61972 0.24091 0.67524 0.0
C1795 C 0.64659 0.24175 0.66565 0.0
C1796 C 0.61604 0.24539 0.65417 0.0
C1797 C 0.64244 0.2462 0.64473 0.0
C1798 C 0.59265 0.22894 0.72486 0.0
C1799 C 0.58314 0.22638 0.707 0.0
C1800 C 0.58626 0.23417 0.74428 0.0
C1801 C 0.56741 0.22932 0.70877 0.0
C1802 C 0.57048 0.23695 0.7454 0.0
N1803 N 0.56146 0.2345 0.72777 0.0
C1804 C 0.60918 0.19378 0.6894 0.0
C1805 C 0.63156 0.20101 0.67001 0.0
C1806 C 0.60516 0.1834 0.67322 0.0
N1807 N 0.62202 0.20247 0.68732 0.0
C1808 C 0.628 0.19074 0.65342 0.0
C1809 C 0.61453 0.18192 0.6548 0.0
H1810 H 0.60191 0.19516 0.70347 0.0
H1811 H 0.64184 0.20791 0.66896 0.0
C1812 C 0.62818 0.27225 0.70752 0.0
N1813 N 0.61732 0.26293 0.71636 0.0
C1814 C 0.62438 0.28705 0.70078 0.0
C1815 C 0.59845 0.28267 0.71326 0.0
C1816 C 0.60277 0.268 0.71983 0.0
C1817 C 0.60922 0.29228 0.70311 0.0
H1818 H 0.63975 0.26802 0.70527 0.0
H1819 H 0.59437 0.2606 0.72715 0.0
O1820 O 0.63672 0.2076 0.73503 0.0
O1821 O 0.63411 0.2403 0.75167 0.0
O1822 O 0.63909 0.23465 0.7016 0.0
O1823 O 0.60802 0.22577 0.72348 0.0
H1824 H 0.63661 0.17981 0.75211 0.0
H1825 H 0.65746 0.2085 0.70354 0.0
H1826 H 0.65333 0.15828 0.74018 0.0
H1827 H 0.67381 0.18653 0.69253 0.0
H1828 H 0.61232 0.28184 0.78392 0.0
H1829 H 0.65672 0.26002 0.74487 0.0
H1830 H 0.61189 0.25437 0.77315 0.0
H1831 H 0.65641 0.28738 0.75624 0.0
H1832 H 0.69507 0.22004 0.76971 0.0
H1833 H 0.69775 0.24387 0.70838 0.0
H1834 H 0.58383 0.18962 0.78724 0.0
H1835 H 0.61189 0.21919 0.82725 0.0
H1836 H 0.61067 0.23899 0.68682 0.0
H1837 H 0.65857 0.24029 0.66973 0.0
H1838 H 0.60415 0.24687 0.64951 0.0
H1839 H 0.65121 0.24826 0.63266 0.0
H1840 H 0.58784 0.22215 0.69192 0.0
H1841 H 0.5934 0.23628 0.75825 0.0
H1842 H 0.55994 0.22743 0.69504 0.0
H1843 H 0.5654 0.24109 0.76028 0.0
H1844 H 0.59453 0.17704 0.67476 0.0
H1845 H 0.63556 0.18986 0.63956 0.0
H1846 H 0.63309 0.29415 0.69325 0.0
H1847 H 0.58657 0.28611 0.71511 0.0
Li1848 Li 0.01054 0.39722 0.98614 0.0
Li1849 Li 0.01858 0.37328 0.00306 0.0
Li1850 Li 0.01822 0.37504 0.96438 0.0
Li1851 Li 0.99464 0.37463 0.98675 0.0
C1852 C 0.04097 0.39628 0.97304 0.0
N1853 N 0.06098 0.41459 0.9498 0.0
C1854 C 0.05615 0.39806 0.9799 0.0
C1855 C 0.03597 0.40378 0.95429 0.0
C1856 C 0.06609 0.40738 0.96794 0.0
C1857 C 0.04626 0.413 0.9428 0.0
C1858 C 0.98821 0.3893 0.02296 0.0
C1859 C 0.96689 0.37946 0.04373 0.0
N1860 N 0.96081 0.39383 0.04467 0.0
C1861 C 0.98184 0.404 0.0244 0.0
C1862 C 0.98078 0.37695 0.03297 0.0
C1863 C 0.96795 0.40605 0.03534 0.0
C1864 C 0.9966 0.4243 0.97687 0.0
N1865 N 0.00985 0.4187 0.98528 0.0
C1866 C 0.02061 0.44385 0.98722 0.0
C1867 C 0.02172 0.42805 0.99078 0.0
C1868 C 0.00714 0.44989 0.978 0.0
C1869 C 0.99497 0.43993 0.9731 0.0
H1870 H 0.98728 0.41654 0.97311 0.0
H1871 H 0.03213 0.42322 0.99746 0.0
C1872 C 0.04473 0.36034 0.02198 0.0
N1873 N 0.0299 0.36438 0.02579 0.0
C1874 C 0.05296 0.35218 0.03756 0.0
C1875 C 0.03048 0.35265 0.06062 0.0
C1876 C 0.02277 0.36099 0.04475 0.0
C1877 C 0.0457 0.34805 0.05697 0.0
H1878 H 0.04999 0.36309 0.00659 0.0
H1879 H 0.01096 0.36433 0.04724 0.0
C1880 C 0.99025 0.38479 0.94442 0.0
N1881 N 0.97035 0.37814 0.91082 0.0
C1882 C 0.98688 0.36951 0.93916 0.0
C1883 C 0.98358 0.39666 0.93243 0.0
C1884 C 0.97675 0.3664 0.92218 0.0
C1885 C 0.97356 0.39307 0.91551 0.0
C1886 C 0.01457 0.3446 0.9914 0.0
C1887 C 0.02742 0.33691 0.98323 0.0
C1888 C 0.00675 0.33848 0.00919 0.0
C1889 C 0.03244 0.32345 0.99328 0.0
C1890 C 0.01213 0.32499 0.01882 0.0
N1891 N 0.02478 0.31783 0.01076 0.0
C1892 C 0.04352 0.36435 0.94178 0.0
C1893 C 0.02337 0.37187 0.91831 0.0
C1894 C 0.05256 0.35996 0.92424 0.0
N1895 N 0.02905 0.36975 0.9386 0.0
C1896 C 0.03198 0.36752 0.90027 0.0
C1897 C 0.04666 0.36124 0.90319 0.0
H1898 H 0.04797 0.36329 0.95806 0.0
H1899 H 0.01221 0.3769 0.91593 0.0
C1900 C 0.9632 0.38037 0.98299 0.0
N1901 N 0.97365 0.36896 0.98594 0.0
C1902 C 0.94822 0.37683 0.97679 0.0
C1903 C 0.95487 0.34987 0.97821 0.0
C1904 C 0.9697 0.35393 0.98439 0.0
C1905 C 0.94412 0.36143 0.97338 0.0
H1906 H 0.96681 0.39224 0.98388 0.0
H1907 H 0.97836 0.34513 0.98614 0.0
O1908 O 0.0312 0.38707 0.98457 0.0
O1909 O 0.00179 0.38708 0.0122 0.0
O1910 O -0.00048 0.38812 0.96171 0.0
O1911 O 0.00969 0.35801 0.98206 0.0
H1912 H 0.06021 0.39228 0.99432 0.0
H1913 H 0.02428 0.40252 0.94866 0.0
H1914 H 0.07787 0.40886 0.97308 0.0
H1915 H 0.04254 0.41888 0.9283 0.0
H1916 H 0.96094 0.36997 0.05132 0.0
H1917 H 0.98759 0.41377 0.01729 0.0
H1918 H 0.98553 0.36552 0.03216 0.0
H1919 H 0.96287 0.41736 0.03648 0.0
H1920 H 0.03022 0.45121 0.99126 0.0
H1921 H 0.98423 0.44418 0.9666 0.0
H1922 H 0.06468 0.34875 0.03425 0.0
H1923 H 0.02461 0.34976 0.07554 0.0
H1924 H 0.99196 0.36014 0.94812 0.0
H1925 H 0.9861 0.40854 0.93611 0.0
H1926 H 0.97397 0.35465 0.91806 0.0
H1927 H 0.96831 0.40215 0.90615 0.0
H1928 H 0.03346 0.34127 0.96927 0.0
H1929 H 0.99676 0.34418 0.01571 0.0
H1930 H 0.04243 0.31746 0.98719 0.0
H1931 H 0.00629 0.32025 0.03275 0.0
H1932 H 0.06381 0.35508 0.92718 0.0
H1933 H 0.02715 0.36889 0.88424 0.0
H1934 H 0.94028 0.38606 0.97322 0.0
H1935 H 0.95232 0.33786 0.97533 0.0
Li1936 Li 0.8562 0.7591 0.23243 0.0
Li1937 Li 0.8812 0.76452 0.24759 0.0
Li1938 Li 0.87681 0.76525 0.20885 0.0
Li1939 Li 0.87707 0.74103 0.22883 0.0
C1940 C 0.85662 0.78875 0.2367 0.0
N1941 N 0.83315 0.80832 0.24882 0.0
C1942 C 0.85583 0.7943 0.2579 0.0
C1943 C 0.84547 0.79317 0.22166 0.0
C1944 C 0.84389 0.8042 0.2637 0.0
C1945 C 0.83369 0.80305 0.22811 0.0
C1946 C 0.86462 0.73417 0.26567 0.0
C1947 C 0.87431 0.7119 0.28446 0.0
N1948 N 0.86005 0.70555 0.28393 0.0
C1949 C 0.85005 0.72741 0.26531 0.0
C1950 C 0.87685 0.72636 0.27534 0.0
C1951 C 0.84798 0.71294 0.27464 0.0
C1952 C 0.82555 0.75719 0.21978 0.0
N1953 N 0.83491 0.76064 0.23665 0.0
C1954 C 0.81343 0.76469 0.25989 0.0
C1955 C 0.82925 0.76444 0.25643 0.0
C1956 C 0.8035 0.76098 0.24278 0.0
C1957 C 0.80971 0.75738 0.22246 0.0
H1958 H 0.83039 0.75387 0.20441 0.0
H1959 H 0.83705 0.76693 0.26959 0.0
C1960 C 0.89717 0.78892 0.26632 0.0
N1961 N 0.89198 0.77444 0.27009 0.0
C1962 C 0.90521 0.79682 0.28232 0.0
C1963 C 0.90261 0.77463 0.30564 0.0
C1964 C 0.89448 0.76722 0.28925 0.0
C1965 C 0.90799 0.78964 0.30226 0.0
H1966 H 0.89498 0.79433 0.25086 0.0
H1967 H 0.8901 0.75577 0.29184 0.0
C1968 C 0.86174 0.74612 0.18448 0.0
N1969 N 0.86154 0.74346 0.13989 0.0
C1970 C 0.86999 0.73436 0.17437 0.0
C1971 C 0.85338 0.75653 0.17188 0.0
C1972 C 0.86973 0.7332 0.15182 0.0
C1973 C 0.85344 0.755 0.14937 0.0
C1974 C 0.90821 0.76067 0.2305 0.0
C1975 C 0.91442 0.77378 0.22078 0.0
C1976 C 0.91622 0.75338 0.2472 0.0
C1977 C 0.92855 0.7794 0.22799 0.0
C1978 C 0.9303 0.75939 0.25398 0.0
N1979 N 0.93612 0.77216 0.24431 0.0
C1980 C 0.8775 0.78932 0.17823 0.0
C1981 C 0.89235 0.76737 0.1693 0.0
C1982 C 0.88234 0.79678 0.15947 0.0
N1983 N 0.88262 0.77494 0.18277 0.0
C1984 C 0.89749 0.77439 0.15038 0.0
C1985 C 0.89265 0.78938 0.14546 0.0
H1986 H 0.86999 0.79515 0.18943 0.0
H1987 H 0.89633 0.75598 0.1735 0.0
C1988 C 0.87019 0.70983 0.22256 0.0
N1989 N 0.88179 0.7199 0.22649 0.0
C1990 C 0.8735 0.69467 0.21686 0.0
C1991 C 0.90054 0.70041 0.22077 0.0
C1992 C 0.89671 0.71544 0.22628 0.0
C1993 C 0.88888 0.68998 0.21516 0.0
H1994 H 0.85843 0.71381 0.22256 0.0
H1995 H 0.90568 0.72377 0.22907 0.0
O1996 O 0.86811 0.77887 0.23078 0.0
O1997 O 0.86694 0.74824 0.25635 0.0
O1998 O 0.86202 0.74761 0.20655 0.0
O1999 O 0.89422 0.75519 0.22402 0.0
H2000 H 0.86423 0.79088 0.26985 0.0
H2001 H 0.84574 0.78879 0.20528 0.0
H2002 H 0.84312 0.80854 0.28007 0.0
H2003 H 0.82493 0.80647 0.21668 0.0
H2004 H 0.8837 0.70569 0.29186 0.0
H2005 H 0.84047 0.73318 0.25774 0.0
H2006 H 0.88826 0.73127 0.27543 0.0
H2007 H 0.83677 0.70757 0.27443 0.0
H2008 H 0.80901 0.76752 0.27579 0.0
H2009 H 0.80241 0.75413 0.20901 0.0
H2010 H 0.90925 0.80837 0.27915 0.0
H2011 H 0.90438 0.76883 0.32095 0.0
H2012 H 0.87669 0.72631 0.18374 0.0
H2013 H 0.84715 0.76588 0.17935 0.0
H2014 H 0.8761 0.72418 0.14379 0.0
H2015 H 0.84712 0.76304 0.13944 0.0
H2016 H 0.90833 0.77967 0.20799 0.0
H2017 H 0.91148 0.74337 0.25515 0.0
H2018 H 0.93346 0.78957 0.22068 0.0
H2019 H 0.93656 0.75393 0.267 0.0
H2020 H 0.87858 0.80845 0.15644 0.0
H2021 H 0.90541 0.7683 0.13992 0.0
H2022 H 0.8642 0.68698 0.21259 0.0
H2023 H 0.91255 0.69737 0.21921 0.0
Li2024 Li 0.48243 0.63044 0.50197 0.0
Li2025 Li 0.48696 0.6053 0.48383 0.0
Li2026 Li 0.50493 0.62569 0.47997 0.0
Li2027 Li 0.48073 0.62654 0.46157 0.0
C2028 C 0.51248 0.614 0.51736 0.0
N2029 N 0.54107 0.61176 0.53638 0.0
C2030 C 0.52116 0.60061 0.51493 0.0
C2031 C 0.51828 0.62623 0.52952 0.0
C2032 C 0.53561 0.59971 0.52466 0.0
C2033 C 0.53278 0.62488 0.53899 0.0
C2034 C 0.45749 0.60652 0.49087 0.0
C2035 C 0.44254 0.58391 0.48273 0.0
N2036 N 0.43757 0.58351 0.50359 0.0
C2037 C 0.45219 0.60592 0.5122 0.0
C2038 C 0.45258 0.59547 0.47596 0.0
C2039 C 0.44213 0.59419 0.51832 0.0
C2040 C 0.46397 0.65236 0.52205 0.0
N2041 N 0.47395 0.64069 0.52585 0.0
C2042 C 0.47095 0.6435 0.564 0.0
C2043 C 0.47754 0.63613 0.54625 0.0
C2044 C 0.4606 0.65564 0.56061 0.0
C2045 C 0.45716 0.66011 0.53931 0.0
H2046 H 0.46129 0.6556 0.50557 0.0
H2047 H 0.48543 0.62669 0.54869 0.0
C2048 C 0.48916 0.57502 0.46996 0.0
N2049 N 0.48549 0.58394 0.48722 0.0
C2050 C 0.48927 0.55913 0.47192 0.0
C2051 C 0.48184 0.56188 0.50948 0.0
C2052 C 0.48185 0.57778 0.50676 0.0
C2053 C 0.48574 0.55239 0.49193 0.0
H2054 H 0.49246 0.58025 0.45485 0.0
H2055 H 0.47924 0.58524 0.52027 0.0
C2056 C 0.49884 0.6567 0.47661 0.0
N2057 N 0.51552 0.68362 0.47328 0.0
C2058 C 0.50699 0.66002 0.45768 0.0
C2059 C 0.49919 0.66709 0.49387 0.0
C2060 C 0.51536 0.67367 0.45631 0.0
C2061 C 0.50768 0.68064 0.49185 0.0
C2062 C 0.4979 0.61131 0.43518 0.0
C2063 C 0.50922 0.61941 0.42387 0.0
C2064 C 0.48671 0.60316 0.42369 0.0
C2065 C 0.50917 0.61918 0.40126 0.0
C2066 C 0.48704 0.60325 0.40109 0.0
N2067 N 0.49817 0.61118 0.39043 0.0
C2068 C 0.53461 0.61758 0.46811 0.0
C2069 C 0.53356 0.64234 0.48382 0.0
C2070 C 0.54976 0.61995 0.46167 0.0
N2071 N 0.52656 0.6291 0.47768 0.0
C2072 C 0.54853 0.64541 0.47711 0.0
C2073 C 0.55654 0.63446 0.46469 0.0
H2074 H 0.52895 0.60686 0.46428 0.0
H2075 H 0.52729 0.65093 0.49275 0.0
C2076 C 0.45432 0.62882 0.43551 0.0
N2077 N 0.46936 0.63292 0.43685 0.0
C2078 C 0.4454 0.63363 0.41802 0.0
C2079 C 0.46766 0.64664 0.4035 0.0
C2080 C 0.47613 0.64157 0.42123 0.0
C2081 C 0.45204 0.64286 0.40192 0.0
H2082 H 0.44915 0.62209 0.44824 0.0
H2083 H 0.48808 0.64462 0.42252 0.0
O2084 O 0.49848 0.61523 0.50756 0.0
O2085 O 0.46754 0.61778 0.48466 0.0
O2086 O 0.49045 0.64346 0.47826 0.0
O2087 O 0.49766 0.61148 0.45736 0.0
H2088 H 0.51683 0.59108 0.50546 0.0
H2089 H 0.51173 0.63672 0.53137 0.0
H2090 H 0.5425 0.58945 0.52285 0.0
H2091 H 0.53746 0.63427 0.54835 0.0
H2092 H 0.43874 0.57523 0.47141 0.0
H2093 H 0.45586 0.61436 0.52396 0.0
H2094 H 0.45665 0.59571 0.45942 0.0
H2095 H 0.43798 0.59356 0.5348 0.0
H2096 H 0.47395 0.6398 0.58019 0.0
H2097 H 0.44908 0.66928 0.53604 0.0
H2098 H 0.49268 0.55221 0.45816 0.0
H2099 H 0.47905 0.55706 0.52516 0.0
H2100 H 0.50725 0.65195 0.44443 0.0
H2101 H 0.49306 0.6647 0.5087 0.0
H2102 H 0.52183 0.6763 0.44183 0.0
H2103 H 0.50806 0.68877 0.50508 0.0
H2104 H 0.51783 0.62599 0.43236 0.0
H2105 H 0.47772 0.59702 0.43212 0.0
H2106 H 0.51783 0.62544 0.39232 0.0
H2107 H 0.4784 0.59706 0.39202 0.0
H2108 H 0.55568 0.61089 0.45304 0.0
H2109 H 0.55319 0.65674 0.48016 0.0
H2110 H 0.43333 0.63066 0.41753 0.0
H2111 H 0.47322 0.65364 0.39129 0.0
Li2112 Li 0.36665 0.2143 0.21015 0.0
Li2113 Li 0.37746 0.2194 0.24632 0.0
Li2114 Li 0.35121 0.22321 0.23835 0.0
Li2115 Li 0.37001 0.24045 0.22274 0.0
C2116 C 0.35221 0.19438 0.24826 0.0
N2117 N 0.33075 0.17701 0.27037 0.0
C2118 C 0.35346 0.19241 0.27063 0.0
C2119 C 0.34015 0.18734 0.23709 0.0
C2120 C 0.34247 0.18362 0.28153 0.0
C2121 C 0.32938 0.17866 0.24857 0.0
C2122 C 0.40031 0.23142 0.21937 0.0
C2123 C 0.41831 0.24783 0.23796 0.0
N2124 N 0.42889 0.24503 0.22225 0.0
C2125 C 0.41134 0.22874 0.20339 0.0
C2126 C 0.40379 0.24107 0.23679 0.0
C2127 C 0.42574 0.23571 0.20515 0.0
C2128 C 0.37449 0.20989 0.16734 0.0
N2129 N 0.36908 0.20232 0.18497 0.0
C2130 C 0.36996 0.17838 0.1662 0.0
C2131 C 0.36655 0.18692 0.18473 0.0
C2132 C 0.37606 0.18584 0.14794 0.0
C2133 C 0.37798 0.20186 0.14851 0.0
H2134 H 0.37654 0.22213 0.16819 0.0
H2135 H 0.3624 0.18121 0.19913 0.0
C2136 C 0.38759 0.21697 0.28836 0.0
N2137 N 0.39148 0.21338 0.2677 0.0
C2138 C 0.39686 0.21229 0.30544 0.0
C2139 C 0.41432 0.20081 0.27956 0.0
C2140 C 0.40457 0.20559 0.26292 0.0
C2141 C 0.4103 0.20396 0.30111 0.0
H2142 H 0.37706 0.22314 0.29156 0.0
H2143 H 0.40731 0.20292 0.24627 0.0
C2144 C 0.34539 0.23034 0.18843 0.0
N2145 N 0.33298 0.2278 0.14739 0.0
C2146 C 0.34656 0.24253 0.1738 0.0
C2147 C 0.33755 0.21701 0.18233 0.0
C2148 C 0.3403 0.24099 0.15309 0.0
C2149 C 0.33147 0.21589 0.16147 0.0
C2150 C 0.35747 0.2501 0.26178 0.0
C2151 C 0.34572 0.25685 0.24962 0.0
C2152 C 0.36117 0.25613 0.28208 0.0
C2153 C 0.33787 0.26952 0.25802 0.0
C2154 C 0.35307 0.26883 0.28989 0.0
N2155 N 0.34168 0.27519 0.2778 0.0
C2156 C 0.33039 0.22382 0.27304 0.0
C2157 C 0.31914 0.22134 0.23824 0.0
C2158 C 0.31594 0.2248 0.28265 0.0
N2159 N 0.33165 0.22242 0.25119 0.0
C2160 C 0.30451 0.2221 0.24715 0.0
C2161 C 0.30282 0.22416 0.26956 0.0
H2162 H 0.34063 0.22461 0.28289 0.0
H2163 H 0.32052 0.22036 0.22095 0.0
C2164 C 0.38147 0.25981 0.1922 0.0
N2165 N 0.37662 0.26 0.21307 0.0
C2166 C 0.38852 0.27265 0.18327 0.0
C2167 C 0.38555 0.28578 0.21751 0.0
C2168 C 0.37849 0.27261 0.22582 0.0
C2169 C 0.39089 0.28575 0.19607 0.0
H2170 H 0.38025 0.24946 0.18269 0.0
H2171 H 0.37512 0.27232 0.24262 0.0
O2172 O 0.36267 0.20324 0.23739 0.0
O2173 O 0.38606 0.22492 0.21757 0.0
O2174 O 0.35154 0.23164 0.20876 0.0
O2175 O 0.36522 0.23751 0.25419 0.0
H2176 H 0.36272 0.1977 0.27954 0.0
H2177 H 0.33903 0.18863 0.21978 0.0
H2178 H 0.34325 0.1821 0.29887 0.0
H2179 H 0.31993 0.17325 0.24015 0.0
H2180 H 0.42115 0.25533 0.25133 0.0
H2181 H 0.40877 0.22138 0.18973 0.0
H2182 H 0.39534 0.24341 0.2492 0.0
H2183 H 0.43439 0.23374 0.1929 0.0
H2184 H 0.36836 0.16605 0.16639 0.0
H2185 H 0.38297 0.20802 0.135 0.0
H2186 H 0.39349 0.21498 0.32189 0.0
H2187 H 0.42457 0.19432 0.27571 0.0
H2188 H 0.35207 0.25315 0.17842 0.0
H2189 H 0.33637 0.20753 0.19346 0.0
H2190 H 0.34121 0.25032 0.14159 0.0
H2191 H 0.32555 0.20555 0.15648 0.0
H2192 H 0.34262 0.25242 0.23391 0.0
H2193 H 0.37024 0.25107 0.2917 0.0
H2194 H 0.32875 0.27483 0.2488 0.0
H2195 H 0.35583 0.27361 0.30557 0.0
H2196 H 0.31503 0.22639 0.29999 0.0
H2197 H 0.29464 0.22186 0.23648 0.0
H2198 H 0.3923 0.27221 0.16658 0.0
H2199 H 0.38736 0.29561 0.22794 0.0
Li2200 Li 0.50256 0.63085 0.9721 0.0
Li2201 Li 0.51586 0.6073 0.98093 0.0
Li2202 Li 0.52371 0.63162 0.99664 0.0
Li2203 Li 0.52858 0.62565 0.95879 0.0
C2204 C 0.48938 0.62153 0.00755 0.0
N2205 N 0.45888 0.62355 0.01956 0.0
C2206 C 0.47967 0.60885 0.00514 0.0
C2207 C 0.4836 0.6352 0.01619 0.0
C2208 C 0.46429 0.61011 0.01129 0.0
C2209 C 0.46814 0.636 0.02211 0.0
C2210 C 0.51013 0.61246 0.93053 0.0
C2211 C 0.52136 0.60034 0.89916 0.0
N2212 N 0.51266 0.60944 0.88613 0.0
C2213 C 0.50128 0.62167 0.91682 0.0
C2214 C 0.52022 0.60166 0.92163 0.0
C2215 C 0.50272 0.61996 0.89442 0.0
C2216 C 0.48024 0.65395 0.96441 0.0
N2217 N 0.48304 0.63861 0.96469 0.0
C2218 C 0.45809 0.63321 0.95067 0.0
C2219 C 0.47226 0.62824 0.95842 0.0
C2220 C 0.45508 0.64902 0.94929 0.0
C2221 C 0.46619 0.65945 0.95682 0.0
H2222 H 0.48906 0.66192 0.96938 0.0
H2223 H 0.47495 0.61611 0.95863 0.0
C2224 C 0.51277 0.58032 0.0061 0.0
N2225 N 0.51206 0.58637 0.98584 0.0
C2226 C 0.50806 0.56522 0.00973 0.0
C2227 C 0.50205 0.56302 0.97161 0.0
C2228 C 0.5069 0.57807 0.96874 0.0
C2229 C 0.50238 0.55651 0.99236 0.0
H2230 H 0.51652 0.58739 0.01949 0.0
H2231 H 0.50605 0.58328 0.95296 0.0
C2232 C 0.52597 0.65882 0.9769 0.0
N2233 N 0.53836 0.68649 0.9901 0.0
C2234 C 0.53991 0.66389 0.96827 0.0
C2235 C 0.51826 0.66787 0.99211 0.0
C2236 C 0.546 0.67791 0.97517 0.0
C2237 C 0.52474 0.68181 -0.00137 0.0
C2238 C 0.54408 0.60282 0.99313 0.0
C2239 C 0.54687 0.60216 0.01539 0.0
C2240 C 0.54804 0.59035 0.98001 0.0
C2241 C 0.5535 0.58895 0.02418 0.0
C2242 C 0.55461 0.57733 0.98944 0.0
N2243 N 0.55719 0.57691 0.01114 0.0
C2244 C 0.5237 0.64055 0.04036 0.0
C2245 C 0.54555 0.64851 0.02032 0.0
C2246 C 0.52936 0.64768 0.05893 0.0
N2247 N 0.53177 0.64124 0.02156 0.0
C2248 C 0.55146 0.65609 0.03835 0.0
C2249 C 0.5433 0.65568 0.05789 0.0
H2250 H 0.51293 0.63441 0.04096 0.0
H2251 H 0.5519 0.64848 0.00528 0.0
C2252 C 0.53699 0.63742 0.91876 0.0
N2253 N 0.54202 0.62829 0.93511 0.0
C2254 C 0.54574 0.63909 0.90009 0.0
C2255 C 0.56515 0.62264 0.91588 0.0
C2256 C 0.55582 0.62099 0.93414 0.0
C2257 C 0.55997 0.63162 0.89853 0.0
H2258 H 0.52609 0.64328 0.92022 0.0
H2259 H 0.55955 0.61392 0.94751 0.0
O2260 O 0.5044 0.62066 0.00116 0.0
O2261 O 0.5091 0.61414 0.95252 0.0
O2262 O 0.51989 0.64507 0.97046 0.0
O2263 O 0.53742 0.61557 0.98425 0.0
H2264 H 0.4839 0.59822 -0.00165 0.0
H2265 H 0.49094 0.64514 0.01806 0.0
H2266 H 0.45662 0.60042 0.00942 0.0
H2267 H 0.46349 0.64654 0.02869 0.0
H2268 H 0.5292 0.59212 0.89207 0.0
H2269 H 0.49354 0.6302 0.92334 0.0
H2270 H 0.52728 0.59455 0.93197 0.0
H2271 H 0.496 0.62707 0.88363 0.0
H2272 H 0.44995 0.62481 0.94472 0.0
H2273 H 0.46425 0.67173 0.95615 0.0
H2274 H 0.50834 0.56059 0.02599 0.0
H2275 H 0.4979 0.55658 0.95779 0.0
H2276 H 0.54605 0.65703 0.95651 0.0
H2277 H 0.50751 0.66408 -0.00095 0.0
H2278 H 0.55682 0.68195 0.96871 0.0
H2279 H 0.51897 0.68887 0.01052 0.0
H2280 H 0.54387 0.6117 0.02578 0.0
H2281 H 0.54588 0.59066 0.96277 0.0
H2282 H 0.55568 0.58825 0.04139 0.0
H2283 H 0.55764 0.56756 0.9795 0.0
H2284 H 0.52285 0.6471 0.07386 0.0
H2285 H 0.56238 0.662 0.03717 0.0
H2286 H 0.54161 0.64643 0.88718 0.0
H2287 H 0.57621 0.61696 0.91524 0.0
Li2288 Li 0.11887 0.77598 0.70533 0.0
Li2289 Li 0.11189 0.76925 0.74226 0.0
Li2290 Li 0.13738 0.76437 0.72847 0.0
Li2291 Li 0.11578 0.74921 0.71666 0.0
C2292 C 0.1387 0.79216 0.74241 0.0
N2293 N 0.16292 0.80628 0.76333 0.0
C2294 C 0.13943 0.79215 0.76501 0.0
C2295 C 0.15028 0.79935 0.73045 0.0
C2296 C 0.15177 0.79937 0.77528 0.0
C2297 C 0.16243 0.80642 0.74133 0.0
C2298 C 0.08596 0.77072 0.72135 0.0
C2299 C 0.06227 0.76778 0.74119 0.0
N2300 N 0.05807 0.78223 0.73524 0.0
C2301 C 0.08138 0.78551 0.71537 0.0
C2302 C 0.07631 0.76174 0.73428 0.0
C2303 C 0.06724 0.79113 0.72257 0.0
C2304 C 0.10789 0.78462 0.66487 0.0
N2305 N 0.11539 0.79004 0.68256 0.0
C2306 C 0.11688 0.81514 0.6671 0.0
C2307 C 0.11991 0.80496 0.68404 0.0
C2308 C 0.10935 0.80975 0.64854 0.0
C2309 C 0.10494 0.79427 0.64744 0.0
H2310 H 0.10411 0.77279 0.66444 0.0
H2311 H 0.12557 0.809 0.69852 0.0
C2312 C 0.09691 0.767 0.78314 0.0
N2313 N 0.10057 0.77636 0.76632 0.0
C2314 C 0.0888 0.77279 0.80082 0.0
C2315 C 0.08857 0.79774 0.78354 0.0
C2316 C 0.09659 0.79145 0.76617 0.0
C2317 C 0.08466 0.78837 0.80119 0.0
H2318 H 0.10048 0.75513 0.783 0.0
H2319 H 0.09978 0.79861 0.75258 0.0
C2320 C 0.13454 0.75949 0.67695 0.0
N2321 N 0.13817 0.76271 0.6327 0.0
C2322 C 0.1276 0.74908 0.66277 0.0
C2323 C 0.14333 0.77157 0.66855 0.0
C2324 C 0.12959 0.75089 0.64047 0.0
C2325 C 0.14501 0.773 0.64615 0.0
C2326 C 0.12412 0.73564 0.75222 0.0
C2327 C 0.13762 0.72695 0.75177 0.0
C2328 C 0.11024 0.72856 0.75777 0.0
C2329 C 0.13701 0.71133 0.75693 0.0
C2330 C 0.11011 0.71291 0.76277 0.0
N2331 N 0.12338 0.70469 0.76226 0.0
C2332 C 0.16317 0.75977 0.75556 0.0
C2333 C 0.16849 0.76552 0.71881 0.0
C2334 C 0.17875 0.75739 0.75966 0.0
N2335 N 0.15841 0.76339 0.73525 0.0
C2336 C 0.18412 0.76354 0.72223 0.0
C2337 C 0.18939 0.75895 0.74269 0.0
H2338 H 0.15481 0.75817 0.76832 0.0
H2339 H 0.16439 0.76843 0.70291 0.0
C2340 C 0.09487 0.72595 0.70434 0.0
N2341 N 0.10992 0.72934 0.70749 0.0
C2342 C 0.09065 0.71161 0.69623 0.0
C2343 C 0.11749 0.70445 0.69528 0.0
C2344 C 0.12119 0.71893 0.70335 0.0
C2345 C 0.10207 0.70077 0.69125 0.0
H2346 H 0.08619 0.7345 0.70762 0.0
H2347 H 0.13308 0.72209 0.7057 0.0
O2348 O 0.12694 0.7848 0.73205 0.0
O2349 O 0.09992 0.76515 0.7149 0.0
O2350 O 0.13265 0.75796 0.69888 0.0
O2351 O 0.12442 0.7509 0.74688 0.0
H2352 H 0.13067 0.78648 0.77452 0.0
H2353 H 0.15001 0.79926 0.71294 0.0
H2354 H 0.15251 0.79941 0.79276 0.0
H2355 H 0.17152 0.81195 0.73228 0.0
H2356 H 0.05475 0.76101 0.75134 0.0
H2357 H 0.08872 0.79267 0.70549 0.0
H2358 H 0.07971 0.75032 0.73921 0.0
H2359 H 0.06359 0.80258 0.71815 0.0
H2360 H 0.12014 0.82711 0.66858 0.0
H2361 H 0.0987 0.78984 0.63361 0.0
H2362 H 0.08616 0.76529 0.8143 0.0
H2363 H 0.08549 0.80979 0.78321 0.0
H2364 H 0.12062 0.73976 0.6688 0.0
H2365 H 0.1484 0.78006 0.67912 0.0
H2366 H 0.12424 0.74292 0.62935 0.0
H2367 H 0.15166 0.78237 0.63947 0.0
H2368 H 0.14842 0.73211 0.74716 0.0
H2369 H 0.09963 0.735 0.75776 0.0
H2370 H 0.14736 0.70447 0.75656 0.0
H2371 H 0.09943 0.70728 0.76693 0.0
H2372 H 0.18232 0.7538 0.77567 0.0
H2373 H 0.19195 0.7653 0.70884 0.0
H2374 H 0.07862 0.70915 0.69342 0.0
H2375 H 0.12664 0.69649 0.69131 0.0
Li2376 Li 0.97026 0.36605 0.4642 0.0
Li2377 Li 0.97691 0.36026 0.50181 0.0
Li2378 Li 0.98001 0.38636 0.48594 0.0
Li2379 Li 0.99764 0.36605 0.47609 0.0
C2380 C 0.94563 0.37327 0.48625 0.0
N2381 N 0.91493 0.36995 0.476 0.0
C2382 C 0.93706 0.36132 0.49532 0.0
C2383 C 0.93856 0.3836 0.47209 0.0
C2384 C 0.92155 0.35983 0.48992 0.0
C2385 C 0.92304 0.3817 0.46705 0.0
C2386 C 0.98715 0.33368 0.47718 0.0
C2387 C 0.00557 0.31453 0.48835 0.0
N2388 N 0.99632 0.30333 0.48024 0.0
C2389 C 0.9779 0.32197 0.4688 0.0
C2390 C 0.00116 0.32992 0.48691 0.0
C2391 C 0.9827 0.30671 0.47058 0.0
C2392 C 0.95755 0.36874 0.4223 0.0
N2393 N 0.9569 0.36082 0.44124 0.0
C2394 C 0.93768 0.34412 0.42708 0.0
C2395 C 0.94712 0.34884 0.44401 0.0
C2396 C 0.93834 0.35188 0.40719 0.0
C2397 C 0.94821 0.36451 0.40496 0.0
H2398 H 0.96557 0.3781 0.42046 0.0
H2399 H 0.9468 0.34281 0.45929 0.0
C2400 C 0.96426 0.35883 0.54245 0.0
N2401 N 0.97081 0.34975 0.52713 0.0
C2402 C 0.95862 0.35241 0.56151 0.0
C2403 C 0.967 0.32745 0.54896 0.0
C2404 C 0.97229 0.33433 0.53 0.0
C2405 C 0.95994 0.33653 0.56485 0.0
H2406 H 0.96323 0.37105 0.53964 0.0
H2407 H 0.97742 0.32731 0.51761 0.0
C2408 C 0.99052 0.39398 0.44671 0.0
N2409 N -0.00202 0.42185 0.42805 0.0
C2410 C 0.00589 0.39782 0.44304 0.0
C2411 C 0.97893 0.40424 0.44064 0.0
C2412 C 0.00942 0.41198 0.43362 0.0
C2413 C 0.98295 0.4183 0.43133 0.0
C2414 C 0.00615 0.37364 0.51948 0.0
C2415 C 0.01518 0.38641 0.52458 0.0
C2416 C 0.00912 0.35957 0.52953 0.0
C2417 C 0.02727 0.3848 0.53926 0.0
C2418 C 0.02131 0.35842 0.54413 0.0
N2419 N 0.03007 0.37095 0.54864 0.0
C2420 C 0.96512 0.41441 0.4953 0.0
C2421 C 0.99197 0.41577 0.48884 0.0
C2422 C 0.96416 0.4304 0.49623 0.0
N2423 N 0.97884 0.40754 0.4912 0.0
C2424 C 0.9915 0.43172 0.48924 0.0
C2425 C 0.97743 0.4391 0.49261 0.0
H2426 H 0.9549 0.40751 0.49727 0.0
H2427 H 0.0027 0.40994 0.48567 0.0
C2428 C 0.01737 0.35203 0.44854 0.0
N2429 N 0.01757 0.36097 0.46651 0.0
C2430 C 0.03103 0.34722 0.43913 0.0
C2431 C 0.04503 0.36125 0.46658 0.0
C2432 C 0.03099 0.36575 0.47559 0.0
C2433 C 0.04509 0.35175 0.44821 0.0
H2434 H 0.0065 0.34867 0.4415 0.0
H2435 H 0.03084 0.37312 0.48962 0.0
O2436 O 0.96089 0.37479 0.49108 0.0
O2437 O 0.98264 0.3487 0.47537 0.0
O2438 O 0.98685 0.38027 0.45626 0.0
O2439 O 0.99418 0.37509 0.50526 0.0
H2440 H 0.94235 0.35316 0.50623 0.0
H2441 H 0.94504 0.39288 0.46486 0.0
H2442 H 0.9148 0.35059 0.49673 0.0
H2443 H 0.91745 0.38955 0.456 0.0
H2444 H 0.01636 0.31148 0.49587 0.0
H2445 H 0.96712 0.32461 0.461 0.0
H2446 H 0.00862 0.33875 0.49319 0.0
H2447 H 0.97562 0.29755 0.46423 0.0
H2448 H 0.93011 0.33438 0.42937 0.0
H2449 H 0.94912 0.37062 0.38975 0.0
H2450 H 0.9533 0.35976 0.57352 0.0
H2451 H 0.96807 0.31514 0.55096 0.0
H2452 H 0.015 0.39002 0.44757 0.0
H2453 H 0.96699 0.40148 0.44343 0.0
H2454 H 0.02127 0.41514 0.4308 0.0
H2455 H 0.97411 0.42642 0.42678 0.0
H2456 H 0.01293 0.39745 0.51723 0.0
H2457 H 0.00206 0.34965 0.52625 0.0
H2458 H 0.03441 0.39458 0.54324 0.0
H2459 H 0.02377 0.34757 0.55195 0.0
H2460 H 0.95317 0.4359 0.49899 0.0
H2461 H 0.00194 0.43823 0.4866 0.0
H2462 H 0.03058 0.34024 0.42464 0.0
H2463 H 0.05566 0.36505 0.47392 0.0
Li2464 Li 0.37353 0.75264 0.2725 0.0
Li2465 Li 0.35164 0.76666 0.25887 0.0
Li2466 Li 0.37709 0.77123 0.24464 0.0
Li2467 Li 0.36987 0.77989 0.28082 0.0
C2468 C 0.36664 0.74781 0.22224 0.0
N2469 N 0.37058 0.7405 0.17908 0.0
C2470 C 0.35481 0.7505 0.20743 0.0
C2471 C 0.38043 0.74132 0.21513 0.0
C2472 C 0.35703 0.74673 0.18567 0.0
C2473 C 0.38221 0.73774 0.19323 0.0
C2474 C 0.34337 0.7584 0.29827 0.0
C2475 C 0.31819 0.7651 0.31154 0.0
N2476 N 0.31502 0.74994 0.31447 0.0
C2477 C 0.3399 0.74289 0.30151 0.0
C2478 C 0.33248 0.76961 0.30344 0.0
C2479 C 0.32549 0.73885 0.3097 0.0
C2480 C 0.38162 0.73344 0.30627 0.0
N2481 N 0.3798 0.73376 0.28447 0.0
C2482 C 0.38717 0.70743 0.28159 0.0
C2483 C 0.38224 0.72111 0.27205 0.0
C2484 C 0.38945 0.70685 0.30408 0.0
C2485 C 0.38653 0.72008 0.31645 0.0
H2486 H 0.37943 0.74369 0.31569 0.0
H2487 H 0.38046 0.72168 0.25477 0.0
C2488 C 0.32187 0.77691 0.24791 0.0
N2489 N 0.33081 0.7645 0.25213 0.0
C2490 C 0.30619 0.77501 0.24424 0.0
C2491 C 0.30944 0.74759 0.24896 0.0
C2492 C 0.32504 0.75002 0.2523 0.0
C2493 C 0.29978 0.7602 0.24504 0.0
H2494 H 0.32688 0.78826 0.2476 0.0
H2495 H 0.33256 0.7404 0.25553 0.0
C2496 C 0.40089 0.7627 0.28214 0.0
N2497 N 0.42407 0.74791 0.30447 0.0
C2498 C 0.40376 0.76636 0.3038 0.0
C2499 C 0.40989 0.7516 0.2718 0.0
C2500 C 0.41552 0.75874 0.3148 0.0
C2501 C 0.42151 0.74422 0.28338 0.0
C2502 C 0.36088 0.80213 0.25457 0.0
C2503 C 0.37181 0.81115 0.24393 0.0
C2504 C 0.34984 0.80916 0.26768 0.0
C2505 C 0.37158 0.82707 0.24673 0.0
C2506 C 0.35001 0.82511 0.27009 0.0
N2507 N 0.36079 0.83366 0.25965 0.0
C2508 C 0.38037 0.78089 0.20169 0.0
C2509 C 0.40388 0.7766 0.22008 0.0
C2510 C 0.38819 0.78546 0.1831 0.0
N2511 N 0.38829 0.77657 0.21961 0.0
C2512 C 0.41219 0.78121 0.2019 0.0
C2513 C 0.40433 0.78582 0.18314 0.0
H2514 H 0.36795 0.78096 0.20196 0.0
H2515 H 0.40985 0.77336 0.23471 0.0
C2516 C 0.36694 0.79294 0.32234 0.0
N2517 N 0.37331 0.79488 0.30245 0.0
C2518 C 0.37139 0.80233 0.33953 0.0
C2519 C 0.38825 0.816 0.3151 0.0
C2520 C 0.38363 0.80622 0.29848 0.0
C2521 C 0.38252 0.81377 0.33614 0.0
H2522 H 0.35907 0.78355 0.32517 0.0
H2523 H 0.38883 0.80722 0.28266 0.0
O2524 O 0.36478 0.75162 0.24355 0.0
O2525 O 0.3573 0.76257 0.28988 0.0
O2526 O 0.38919 0.76975 0.27122 0.0
O2527 O 0.36095 0.78651 0.25213 0.0
H2528 H 0.34409 0.75558 0.21262 0.0
H2529 H 0.38975 0.73927 0.22635 0.0
H2530 H 0.348 0.74881 0.17401 0.0
H2531 H 0.39286 0.73282 0.18748 0.0
H2532 H 0.30962 0.77365 0.31546 0.0
H2533 H 0.34815 0.73405 0.2975 0.0
H2534 H 0.33498 0.78166 0.30101 0.0
H2535 H 0.32262 0.72689 0.31218 0.0
H2536 H 0.3892 0.69745 0.27152 0.0
H2537 H 0.38843 0.72025 0.33377 0.0
H2538 H 0.29918 0.785 0.24088 0.0
H2539 H 0.30496 0.73601 0.25 0.0
H2540 H 0.3969 0.77487 0.3121 0.0
H2541 H 0.40775 0.74856 0.25509 0.0
H2542 H 0.41783 0.76141 0.33159 0.0
H2543 H 0.42847 0.73551 0.27564 0.0
H2544 H 0.38047 0.80592 0.23377 0.0
H2545 H 0.34132 0.80235 0.27607 0.0
H2546 H 0.38001 0.83419 0.23866 0.0
H2547 H 0.34159 0.83069 0.28029 0.0
H2548 H 0.38168 0.78877 0.16893 0.0
H2549 H 0.4246 0.78158 0.20277 0.0
H2550 H 0.36688 0.80002 0.35554 0.0
H2551 H 0.39673 0.82478 0.31171 0.0
Li2552 Li 0.9972 0.62655 0.02324 0.0
Li2553 Li 0.97788 0.60841 0.01172 0.0
Li2554 Li 0.97591 0.63519 0.00183 0.0
Li2555 Li 0.97142 0.62653 0.0388 0.0
C2556 C 0.0062 0.61822 0.98528 0.0
N2557 N 0.03587 0.61368 0.97077 0.0
C2558 C 0.01308 0.60376 0.98713 0.0
C2559 C 0.01443 0.63037 0.97609 0.0
C2560 C 0.02808 0.6017 0.97967 0.0
C2561 C 0.02942 0.62784 0.96885 0.0
C2562 C 0.98662 0.60684 0.06207 0.0
C2563 C 0.97381 0.59527 0.09266 0.0
N2564 N 0.98464 0.60129 0.10606 0.0
C2565 C 0.99757 0.61298 0.07619 0.0
C2566 C 0.97461 0.59794 0.0704 0.0
C2567 C 0.99639 0.61 0.09835 0.0
C2568 C 0.02491 0.64303 0.02693 0.0
N2569 N 0.01845 0.62891 0.02896 0.0
C2570 C 0.0418 0.61858 0.04308 0.0
C2571 C 0.02668 0.61663 0.03608 0.0
C2572 C 0.04847 0.63324 0.04222 0.0
C2573 C 0.04004 0.64544 0.03331 0.0
H2574 H 0.01813 0.65256 0.02124 0.0
H2575 H 0.02123 0.6055 0.03737 0.0
C2576 C 0.97646 0.5864 0.97903 0.0
N2577 N 0.97556 0.58843 0.0008 0.0
C2578 C 0.97737 0.57163 0.97044 0.0
C2579 C 0.97532 0.56145 0.0068 0.0
C2580 C 0.97473 0.57639 0.01468 0.0
C2581 C 0.97711 0.559 0.9845 0.0
H2582 H 0.97724 0.59629 0.96847 0.0
H2583 H 0.97433 0.57837 0.03189 0.0
C2584 C 0.98121 0.65966 0.02614 0.0
N2585 N 0.97529 0.69049 0.01935 0.0
C2586 C 0.96983 0.66713 0.03814 0.0
C2587 C 0.98958 0.66789 0.01067 0.0
C2588 C 0.96702 0.68272 0.03448 0.0
C2589 C 0.9864 0.68346 0.00746 0.0
C2590 C 0.9493 0.61203 0.00272 0.0
C2591 C 0.94593 0.61408 0.98079 0.0
C2592 C 0.9428 0.59969 0.01396 0.0
C2593 C 0.93615 0.6037 0.97044 0.0
C2594 C 0.93309 0.58955 0.00301 0.0
N2595 N 0.92999 0.59174 0.98167 0.0
C2596 C 0.97532 0.64655 0.95954 0.0
C2597 C 0.95789 0.65884 0.98339 0.0
C2598 C 0.96997 0.65527 0.94222 0.0
N2599 N 0.96925 0.64849 0.97959 0.0
C2600 C 0.95239 0.66803 0.96662 0.0
C2601 C 0.95829 0.66617 0.9456 0.0
H2602 H 0.98397 0.63786 0.95685 0.0
H2603 H 0.95297 0.65982 -0.0006 0.0
C2604 C 0.96738 0.63744 0.08099 0.0
N2605 N 0.96013 0.63011 0.06449 0.0
C2606 C 0.95965 0.64032 0.10029 0.0
C2607 C 0.93714 0.62794 0.08536 0.0
C2608 C 0.94532 0.62532 0.06628 0.0
C2609 C 0.94428 0.63569 0.10255 0.0
H2610 H 0.97915 0.64115 0.07902 0.0
H2611 H 0.93981 0.61965 0.05283 0.0
O2612 O 0.99167 0.62058 0.993 0.0
O2613 O 0.98743 0.60981 0.04032 0.0
O2614 O 0.98415 0.6444 0.02952 0.0
O2615 O 0.95912 0.62188 0.01303 0.0
H2616 H 0.007 0.59429 0.99455 0.0
H2617 H 0.00937 0.64169 0.97482 0.0
H2618 H 0.03356 0.59059 0.98107 0.0
H2619 H 0.03594 0.63715 0.96179 0.0
H2620 H 0.96452 0.5885 0.09931 0.0
H2621 H 0.00673 0.6202 0.07023 0.0
H2622 H 0.96576 0.59346 0.05989 0.0
H2623 H 0.00477 0.61472 0.10944 0.0
H2624 H 0.04795 0.60896 0.05004 0.0
H2625 H 0.04472 0.65697 0.03279 0.0
H2626 H 0.97881 0.57008 0.95316 0.0
H2627 H 0.97536 0.55194 0.01812 0.0
H2628 H 0.96315 0.66097 0.05005 0.0
H2629 H -0.00183 0.66225 0.00085 0.0
H2630 H 0.95823 0.68863 0.04363 0.0
H2631 H 0.99271 0.68992 0.99544 0.0
H2632 H 0.95089 0.62351 0.9718 0.0
H2633 H 0.94546 0.59778 0.03084 0.0
H2634 H 0.93348 0.60512 0.95346 0.0
H2635 H 0.92808 0.57989 0.01147 0.0
H2636 H 0.97458 0.65308 0.92624 0.0
H2637 H 0.94348 0.67635 0.97007 0.0
H2638 H 0.96557 0.64626 0.11324 0.0
H2639 H 0.92524 0.62442 0.08638 0.0
Li2640 Li 0.13818 0.22736 0.7622 0.0
Li2641 Li 0.1164 0.24082 0.77704 0.0
Li2642 Li 0.12149 0.21285 0.78485 0.0
Li2643 Li 0.1121 0.221 0.74935 0.0
C2644 C 0.14748 0.23557 0.80112 0.0
N2645 N 0.17612 0.24459 0.8156 0.0
C2646 C 0.15058 0.25109 0.80487 0.0
C2647 C 0.15887 0.22461 0.80507 0.0
C2648 C 0.16514 0.25543 0.81213 0.0
C2649 C 0.1733 0.22941 0.81227 0.0
C2650 C 0.1179 0.25283 0.73465 0.0
C2651 C 0.09679 0.26581 0.71717 0.0
N2652 N 0.10654 0.27705 0.7105 0.0
C2653 C 0.12775 0.26441 0.72734 0.0
C2654 C 0.10232 0.25346 0.72929 0.0
C2655 C 0.12178 0.2766 0.71527 0.0
C2656 C 0.16832 0.21837 0.7508 0.0
N2657 N 0.15877 0.23043 0.75443 0.0
C2658 C 0.17956 0.24814 0.75252 0.0
C2659 C 0.16397 0.24512 0.75485 0.0
C2660 C 0.18984 0.23588 0.74984 0.0
C2661 C 0.18405 0.22085 0.74845 0.0
H2662 H 0.16381 0.20681 0.7506 0.0
H2663 H 0.15608 0.25442 0.75809 0.0
C2664 C 0.09918 0.25817 0.80574 0.0
N2665 N 0.10947 0.25941 0.78935 0.0
C2666 C 0.09386 0.27125 0.81627 0.0
C2667 C 0.11023 0.28671 0.79332 0.0
C2668 C 0.11511 0.27327 0.78304 0.0
C2669 C 0.09951 0.28577 0.81027 0.0
H2670 H 0.09514 0.24696 0.8107 0.0
H2671 H 0.12368 0.27388 0.77044 0.0
C2672 C 0.1308 0.19127 0.75729 0.0
N2673 N 0.13319 0.1597 0.76066 0.0
C2674 C 0.12054 0.18177 0.74617 0.0
C2675 C 0.14237 0.18471 0.76994 0.0
C2676 C 0.12192 0.16584 0.74812 0.0
C2677 C 0.14335 0.16873 0.7715 0.0
C2678 C 0.08606 0.22333 0.77842 0.0
C2679 C 0.07806 0.2104 0.78576 0.0
C2680 C 0.07786 0.23646 0.77238 0.0
C2681 C 0.06202 0.21069 0.78639 0.0
C2682 C 0.06183 0.23631 0.77325 0.0
N2683 N 0.05431 0.22352 0.78014 0.0
C2684 C 0.12659 0.20006 0.8261 0.0
C2685 C 0.11104 0.18493 0.8029 0.0
C2686 C 0.124 0.18995 0.84326 0.0
N2687 N 0.11987 0.19754 0.80657 0.0
C2688 C 0.10808 0.17459 0.81959 0.0
C2689 C 0.11425 0.17731 0.84022 0.0
H2690 H 0.13338 0.21028 0.82867 0.0
H2691 H 0.10575 0.18326 0.78726 0.0
C2692 C 0.10697 0.21835 0.7053 0.0
N2693 N 0.10051 0.21527 0.72482 0.0
C2694 C 0.09958 0.21394 0.68628 0.0
C2695 C 0.07897 0.20335 0.70788 0.0
C2696 C 0.08679 0.20792 0.72647 0.0
C2697 C 0.08544 0.20624 0.68745 0.0
H2698 H 0.118 0.22404 0.70455 0.0
H2699 H 0.08205 0.20529 0.74214 0.0
O2700 O 0.13342 0.23114 0.79341 0.0
O2701 O 0.12361 0.24082 0.74652 0.0
O2702 O 0.12959 0.20691 0.75564 0.0
O2703 O 0.1018 0.22323 0.77786 0.0
H2704 H 0.14189 0.25973 0.80199 0.0
H2705 H 0.15666 0.21254 0.80234 0.0
H2706 H 0.16773 0.26742 0.81493 0.0
H2707 H 0.18227 0.22106 0.81516 0.0
H2708 H 0.08474 0.26643 0.71298 0.0
H2709 H 0.13988 0.26404 0.73096 0.0
H2710 H 0.09459 0.24442 0.73415 0.0
H2711 H 0.12927 0.28568 0.70966 0.0
H2712 H 0.18356 0.25991 0.75339 0.0
H2713 H 0.19165 0.21109 0.74654 0.0
H2714 H 0.0854 0.26997 0.82899 0.0
H2715 H 0.11506 0.29763 0.78842 0.0
H2716 H 0.11158 0.18662 0.73619 0.0
H2717 H 0.15041 0.19186 0.77866 0.0
H2718 H 0.11401 0.15836 0.73967 0.0
H2719 H 0.15219 0.1635 0.78136 0.0
H2720 H 0.08413 0.2002 0.79079 0.0
H2721 H 0.08377 0.24678 0.7674 0.0
H2722 H 0.05572 0.20072 0.79187 0.0
H2723 H 0.05538 0.24639 0.76857 0.0
H2724 H 0.12876 0.19253 0.85904 0.0
H2725 H 0.10051 0.16493 0.81667 0.0
H2726 H 0.10511 0.21615 0.67089 0.0
H2727 H 0.06805 0.19751 0.70948 0.0
Li2728 Li 0.49532 0.36653 0.5233 0.0
Li2729 Li 0.51297 0.38764 0.51771 0.0
Li2730 Li 0.51806 0.36248 0.50221 0.0
Li2731 Li 0.52061 0.36733 0.54088 0.0
C2732 C 0.48733 0.37781 0.48521 0.0
N2733 N 0.45908 0.38037 0.46519 0.0
C2734 C 0.47986 0.39201 0.48438 0.0
C2735 C 0.48049 0.36494 0.47572 0.0
C2736 C 0.46557 0.39306 0.47421 0.0
C2737 C 0.46619 0.36646 0.46573 0.0
C2738 C 0.50202 0.38246 0.56674 0.0
C2739 C 0.51201 0.39129 0.60098 0.0
N2740 N 0.50058 0.38363 0.6114 0.0
C2741 C 0.49035 0.37471 0.57781 0.0
C2742 C 0.51291 0.39088 0.57841 0.0
C2743 C 0.48982 0.37544 0.60039 0.0
C2744 C 0.47042 0.34703 0.53217 0.0
N2745 N 0.47442 0.36172 0.52753 0.0
C2746 C 0.44912 0.37059 0.53558 0.0
C2747 C 0.46411 0.37341 0.52872 0.0
C2748 C 0.44487 0.35567 0.54188 0.0
C2749 C 0.45563 0.34372 0.53943 0.0
H2750 H 0.47897 0.33804 0.53158 0.0
H2751 H 0.46776 0.38505 0.52551 0.0
C2752 C 0.51559 0.41505 0.4933 0.0
N2753 N 0.51315 0.40896 0.51327 0.0
C2754 C 0.51334 0.43074 0.48985 0.0
C2755 C 0.5066 0.43345 0.52767 0.0
C2756 C 0.50897 0.4178 0.53036 0.0
C2757 C 0.5084 0.44 0.5071 0.0
H2758 H 0.51861 0.40763 0.47993 0.0
H2759 H 0.50686 0.41262 0.54592 0.0
C2760 C 0.51396 0.33509 0.52133 0.0
N2761 N 0.52208 0.30554 0.50968 0.0
C2762 C 0.52636 0.32783 0.53143 0.0
C2763 C 0.5056 0.32727 0.50548 0.0
C2764 C 0.53029 0.31289 0.52528 0.0
C2765 C 0.50992 0.31236 0.49975 0.0
C2766 C 0.54218 0.38769 0.5101 0.0
C2767 C 0.54672 0.38818 0.48842 0.0
C2768 C 0.54694 0.39924 0.5243 0.0
C2769 C 0.55591 0.40031 0.48125 0.0
C2770 C 0.55611 0.4112 0.51649 0.0
N2771 N 0.56036 0.41148 0.49531 0.0
C2772 C 0.5206 0.3545 0.45838 0.0
C2773 C 0.5386 0.34227 0.48142 0.0
C2774 C 0.52677 0.34709 0.44038 0.0
N2775 N 0.52651 0.35189 0.47837 0.0
C2776 C 0.54493 0.33436 0.46394 0.0
C2777 C 0.53905 0.33676 0.44302 0.0
H2778 H 0.51127 0.36254 0.45636 0.0
H2779 H 0.54335 0.34077 0.49743 0.0
C2780 C 0.52483 0.35357 0.58155 0.0
N2781 N 0.53177 0.36214 0.56601 0.0
C2782 C 0.53286 0.34944 0.60016 0.0
C2783 C 0.55508 0.36289 0.58624 0.0
C2784 C 0.54655 0.36689 0.568 0.0
C2785 C 0.54828 0.35392 0.60253 0.0
H2786 H 0.51307 0.34986 0.57939 0.0
H2787 H 0.55182 0.37353 0.55523 0.0
O2788 O 0.50127 0.37651 0.49522 0.0
O2789 O 0.50283 0.38177 0.54463 0.0
O2790 O 0.50998 0.34973 0.52704 0.0
O2791 O 0.533 0.37602 0.51736 0.0
H2792 H 0.48494 0.40208 0.49171 0.0
H2793 H 0.48614 0.35388 0.47617 0.0
H2794 H 0.45962 0.40396 0.47354 0.0
H2795 H 0.46073 0.35658 0.4584 0.0
H2796 H 0.52043 0.39766 0.6102 0.0
H2797 H 0.48184 0.36809 0.56915 0.0
H2798 H 0.52212 0.39682 0.57015 0.0
H2799 H 0.48088 0.36946 0.60915 0.0
H2800 H 0.4412 0.38013 0.53703 0.0
H2801 H 0.45307 0.3321 0.54454 0.0
H2802 H 0.51473 0.43542 0.47373 0.0
H2803 H 0.50299 0.4403 0.5414 0.0
H2804 H 0.53296 0.3337 0.54374 0.0
H2805 H 0.49594 0.33271 0.49758 0.0
H2806 H 0.53991 0.30716 0.53287 0.0
H2807 H 0.50362 0.30621 0.48741 0.0
H2808 H 0.54311 0.37935 0.4772 0.0
H2809 H 0.54343 0.39909 0.5411 0.0
H2810 H 0.55947 0.40087 0.4645 0.0
H2811 H 0.5598 0.42027 0.52726 0.0
H2812 H 0.52213 0.34966 0.42454 0.0
H2813 H 0.55428 0.32644 0.46686 0.0
H2814 H 0.52712 0.34265 0.61241 0.0
H2815 H 0.56702 0.36633 0.58719 0.0
C2816 C 0.08425 0.14419 0.37904 0.0
C2817 C 0.06993 0.13734 0.37545 0.0
C2818 C 0.09171 0.15219 0.36239 0.0
C2819 C 0.08463 0.15323 0.34181 0.0
C2820 C 0.07122 0.14461 0.33745 0.0
C2821 C 0.06393 0.13683 0.35443 0.0
C2822 C 0.10612 0.16108 0.36764 0.0
C2823 C 0.06358 0.14504 0.31554 0.0
C2824 C 0.08634 0.19285 0.31714 0.0
C2825 C 0.09786 0.19122 0.3015 0.0
C2826 C 0.08181 0.18045 0.32998 0.0
C2827 C 0.08896 0.16598 0.32711 0.0
C2828 C 0.10032 0.16408 0.31095 0.0
C2829 C 0.10474 0.1768 0.29839 0.0
C2830 C 0.06965 0.18301 0.34709 0.0
C2831 C 0.10807 0.14879 0.3073 0.0
H2832 H 0.08893 0.14454 0.39529 0.0
H2833 H 0.05298 0.13124 0.3516 0.0
H2834 H 0.1145 0.16036 0.35417 0.0
H2835 H 0.10316 0.17337 0.36994 0.0
H2836 H 0.11167 0.15684 0.38269 0.0
H2837 H 0.05546 0.1353 0.31339 0.0
H2838 H 0.05703 0.15591 0.3139 0.0
H2839 H 0.07224 0.14471 0.30237 0.0
H2840 H 0.08121 0.20403 0.31991 0.0
H2841 H 0.11363 0.1755 0.28624 0.0
H2842 H 0.07448 0.18062 0.36336 0.0
H2843 H 0.05991 0.17499 0.34454 0.0
H2844 H 0.06511 0.19493 0.34697 0.0
H2845 H 0.11622 0.14652 0.32072 0.0
H2846 H 0.11458 0.14855 0.29184 0.0
H2847 H 0.09953 0.13933 0.30722 0.0
C2848 C 0.04787 0.83132 0.57246 0.0
C2849 C 0.04688 0.84517 0.56105 0.0
C2850 C 0.06102 0.82756 0.58425 0.0
C2851 C 0.07368 0.8378 0.58429 0.0
C2852 C 0.07322 0.85129 0.57154 0.0
C2853 C 0.05972 0.85491 0.56018 0.0
C2854 C 0.06104 0.81297 0.59754 0.0
C2855 C 0.0866 0.86229 0.57069 0.0
C2856 C 0.09432 0.83246 0.63694 0.0
C2857 C 0.10414 0.82035 0.63146 0.0
C2858 C 0.08541 0.83967 0.62105 0.0
C2859 C 0.08659 0.83471 0.59928 0.0
C2860 C 0.09806 0.824 0.59337 0.0
C2861 C 0.10659 0.81673 0.60964 0.0
C2862 C 0.0734 0.85117 0.628 0.0
C2863 C 0.10017 0.81898 0.57019 0.0
H2864 H 0.03811 0.82357 0.57269 0.0
H2865 H 0.05902 0.86566 0.5514 0.0
H2866 H 0.07095 0.80566 0.59298 0.0
H2867 H 0.06225 0.81583 0.61497 0.0
H2868 H 0.05035 0.80617 0.59539 0.0
H2869 H 0.0862 0.86955 0.55592 0.0
H2870 H 0.08618 0.86999 0.58497 0.0
H2871 H 0.09772 0.85607 0.57108 0.0
H2872 H 0.09247 0.83525 0.65384 0.0
H2873 H 0.11441 0.8075 0.60545 0.0
H2874 H 0.06191 0.84565 0.62752 0.0
H2875 H 0.07315 0.86111 0.61681 0.0
H2876 H 0.07546 0.85544 0.6447 0.0
H2877 H 0.09123 0.8104 0.56599 0.0
H2878 H 0.1116 0.81362 0.5676 0.0
H2879 H 0.09889 0.82886 0.55897 0.0
C2880 C 0.44293 0.84087 0.87399 0.0
C2881 C 0.43806 0.85502 0.88231 0.0
C2882 C 0.43458 0.83338 0.85781 0.0
C2883 C 0.42108 0.84029 0.84956 0.0
C2884 C 0.41651 0.85495 0.85708 0.0
C2885 C 0.42498 0.8621 0.8736 0.0
C2886 C 0.43977 0.81765 0.85042 0.0
C2887 C 0.40237 0.8628 0.8483 0.0
C2888 C 0.40759 0.81947 0.79941 0.0
C2889 C 0.39746 0.80874 0.80847 0.0
C2890 C 0.41437 0.83089 0.81228 0.0
C2891 C 0.41116 0.83129 0.83473 0.0
C2892 C 0.40012 0.82115 0.8436 0.0
C2893 C 0.39334 0.81004 0.83031 0.0
C2894 C 0.42577 0.8418 0.80215 0.0
C2895 C 0.39647 0.82108 0.86751 0.0
H2896 H 0.45291 0.83526 0.8809 0.0
H2897 H 0.42128 0.87311 0.87993 0.0
H2898 H 0.431 0.80896 0.85487 0.0
H2899 H 0.44101 0.8174 0.83257 0.0
H2900 H 0.4509 0.81423 0.85777 0.0
H2901 H 0.40177 0.87506 0.85323 0.0
H2902 H 0.40211 0.86212 0.83037 0.0
H2903 H 0.39195 0.85687 0.85441 0.0
H2904 H 0.41062 0.81859 0.78243 0.0
H2905 H 0.3856 0.80167 0.8374 0.0
H2906 H 0.4376 0.83815 0.80639 0.0
H2907 H 0.42414 0.85363 0.80846 0.0
H2908 H 0.42475 0.84202 0.78423 0.0
H2909 H 0.40654 0.81672 0.87663 0.0
H2910 H 0.38642 0.81371 0.87136 0.0
H2911 H 0.3941 0.8329 0.87333 0.0
C2912 C 0.39215 0.16446 0.13373 0.0
C2913 C 0.38249 0.177 0.12958 0.0
C2914 C 0.40148 0.15836 0.1174 0.0
C2915 C 0.4011 0.16497 0.09647 0.0
C2916 C 0.3902 0.17651 0.09163 0.0
C2917 C 0.38102 0.18244 0.10831 0.0
C2918 C 0.41287 0.14593 0.12318 0.0
C2919 C 0.3892 0.18358 0.06938 0.0
C2920 C 0.44038 0.16652 0.07074 0.0
C2921 C 0.44007 0.15367 0.05711 0.0
C2922 C 0.42747 0.1707 0.08285 0.0
C2923 C 0.41389 0.16182 0.08127 0.0
C2924 C 0.41321 0.14931 0.06668 0.0
C2925 C 0.42637 0.14533 0.05481 0.0
C2926 C 0.42866 0.18416 0.09822 0.0
C2927 C 0.39886 0.13973 0.06435 0.0
H2928 H 0.39339 0.16023 0.15013 0.0
H2929 H 0.37333 0.19195 0.10497 0.0
H2930 H 0.41307 0.13687 0.11058 0.0
H2931 H 0.42456 0.15098 0.12407 0.0
H2932 H 0.41021 0.14053 0.13903 0.0
H2933 H 0.37826 0.18995 0.06707 0.0
H2934 H 0.39885 0.19176 0.06717 0.0
H2935 H 0.39019 0.17467 0.05662 0.0
H2936 H 0.45098 0.17289 0.07278 0.0
H2937 H 0.42604 0.13549 0.04406 0.0
H2938 H 0.42761 0.18003 0.11516 0.0
H2939 H 0.41916 0.19238 0.09531 0.0
H2940 H 0.43974 0.19039 0.09657 0.0
H2941 H 0.39746 0.13237 0.07887 0.0
H2942 H 0.39933 0.13219 0.04986 0.0
H2943 H 0.38854 0.14716 0.06321 0.0
C2944 C 0.07745 0.81776 0.18705 0.0
C2945 C 0.09291 0.81604 0.19292 0.0
C2946 C 0.07285 0.82949 0.17297 0.0
C2947 C 0.08403 0.83955 0.16426 0.0
C2948 C 0.09931 0.83894 0.17195 0.0
C2949 C 0.10356 0.82724 0.18635 0.0
C2950 C 0.05633 0.83002 0.1656 0.0
C2951 C 0.11153 0.84961 0.16332 0.0
C2952 C 0.07577 0.84743 0.10544 0.0
C2953 C 0.06895 0.86203 0.10619 0.0
C2954 C 0.08163 0.8405 0.12409 0.0
C2955 C 0.08037 0.84817 0.14421 0.0
C2956 C 0.07426 0.86321 0.14504 0.0
C2957 C 0.06868 0.87001 0.12597 0.0
C2958 C 0.0883 0.8245 0.12242 0.0
C2959 C 0.07274 0.87177 0.16617 0.0
H2960 H 0.06908 0.80923 0.19197 0.0
H2961 H 0.11545 0.8263 0.19138 0.0
H2962 H 0.05215 0.84205 0.16485 0.0
H2963 H 0.05545 0.82509 0.14908 0.0
H2964 H 0.04867 0.82336 0.1765 0.0
H2965 H 0.12174 0.84997 0.17408 0.0
H2966 H 0.11528 0.84551 0.14715 0.0
H2967 H 0.10701 0.86144 0.16133 0.0
H2968 H 0.07583 0.84096 0.09046 0.0
H2969 H 0.0637 0.88141 0.1267 0.0
H2970 H 0.08059 0.8162 0.13065 0.0
H2971 H 0.09963 0.82398 0.1306 0.0
H2972 H 0.08979 0.82077 0.10536 0.0
H2973 H 0.06275 0.86718 0.17526 0.0
H2974 H 0.07091 0.88426 0.16358 0.0
H2975 H 0.08307 0.87014 0.17643 0.0
C2976 C 0.38061 0.82671 0.3725 0.0
C2977 C 0.38952 0.82191 0.3548 0.0
C2978 C 0.38754 0.83296 0.39106 0.0
C2979 C 0.40371 0.83436 0.39187 0.0
C2980 C 0.41269 0.83001 0.37378 0.0
C2981 C 0.4055 0.8238 0.35555 0.0
C2982 C 0.37761 0.8376 0.40999 0.0
C2983 C 0.43001 0.83136 0.37393 0.0
C2984 C 0.42763 0.859 0.42884 0.0
C2985 C 0.4344 0.84774 0.442 0.0
C2986 C 0.41623 0.8551 0.4138 0.0
C2987 C 0.41165 0.83957 0.41181 0.0
C2988 C 0.41725 0.8285 0.42661 0.0
C2989 C 0.42855 0.83274 0.4416 0.0
C2990 C 0.41033 0.8673 0.39857 0.0
C2991 C 0.41251 0.81185 0.4252 0.0
H2992 H 0.36824 0.82538 0.37195 0.0
H2993 H 0.41253 0.81984 0.34219 0.0
H2994 H 0.37933 0.82938 0.42349 0.0
H2995 H 0.38094 0.84914 0.416 0.0
H2996 H 0.36522 0.83774 0.40574 0.0
H2997 H 0.43522 0.82805 0.3582 0.0
H2998 H 0.43346 0.84334 0.37769 0.0
H2999 H 0.43486 0.82386 0.38674 0.0
H3000 H 0.43207 0.87064 0.429 0.0
H3001 H 0.43348 0.82409 0.45213 0.0
H3002 H 0.39786 0.86583 0.39551 0.0
H3003 H 0.41635 0.86627 0.3828 0.0
H3004 H 0.41237 0.87904 0.405 0.0
H3005 H 0.39992 0.81082 0.42295 0.0
H3006 H 0.41588 0.80529 0.43987 0.0
H3007 H 0.41812 0.80648 0.41094 0.0
C3008 C 0.38999 0.18082 0.6834 0.0
C3009 C 0.39671 0.19528 0.68012 0.0
C3010 C 0.39462 0.16807 0.67107 0.0
C3011 C 0.40619 0.16993 0.6552 0.0
C3012 C 0.41335 0.18441 0.65242 0.0
C3013 C 0.40854 0.19688 0.66494 0.0
C3014 C 0.38679 0.1528 0.67454 0.0
C3015 C 0.4259 0.18688 0.63585 0.0
C3016 C 0.43119 0.14022 0.62885 0.0
C3017 C 0.42548 0.14065 0.60765 0.0
C3018 C 0.42387 0.14834 0.64549 0.0
C3019 C 0.41067 0.15715 0.64063 0.0
C3020 C 0.40387 0.1561 0.61987 0.0
C3021 C 0.41138 0.14781 0.60356 0.0
C3022 C 0.43123 0.14881 0.66758 0.0
C3023 C 0.38967 0.16518 0.61414 0.0
H3024 H 0.3808 0.17961 0.69512 0.0
H3025 H 0.41394 0.20799 0.66272 0.0
H3026 H 0.37882 0.15053 0.6609 0.0
H3027 H 0.3953 0.14332 0.67487 0.0
H3028 H 0.38008 0.15258 0.68983 0.0
H3029 H 0.43048 0.19879 0.63611 0.0
H3030 H 0.43553 0.17882 0.63884 0.0
H3031 H 0.42141 0.18447 0.61939 0.0
H3032 H 0.44195 0.13438 0.63209 0.0
H3033 H 0.40691 0.14811 0.58719 0.0
H3034 H 0.42241 0.14866 0.68054 0.0
H3035 H 0.43788 0.15963 0.66926 0.0
H3036 H 0.43921 0.13901 0.67006 0.0
H3037 H 0.38105 0.16454 0.62733 0.0
H3038 H 0.38433 0.16103 0.5989 0.0
H3039 H 0.39281 0.17744 0.612 0.0
C3040 C 0.09293 0.16662 0.86211 0.0
C3041 C 0.10875 0.1684 0.85906 0.0
C3042 C 0.08712 0.15984 0.88089 0.0
C3043 C 0.09742 0.15445 0.89694 0.0
C3044 C 0.11346 0.15557 0.89355 0.0
C3045 C 0.11896 0.16278 0.87472 0.0
C3046 C 0.0699 0.15901 0.88389 0.0
C3047 C 0.12481 0.14964 0.91 0.0
C3048 C 0.07642 0.15481 0.94992 0.0
C3049 C 0.06911 0.14046 0.94905 0.0
C3050 C 0.08722 0.15904 0.9342 0.0
C3051 C 0.09098 0.14853 0.91756 0.0
C3052 C 0.08539 0.1333 0.91853 0.0
C3053 C 0.07436 0.12946 0.93416 0.0
C3054 C 0.0931 0.17535 0.93394 0.0
C3055 C 0.08969 0.12156 0.90161 0.0
H3056 H 0.08502 0.17119 0.85018 0.0
H3057 H 0.13122 0.16414 0.87231 0.0
H3058 H 0.06628 0.14692 0.88634 0.0
H3059 H 0.06649 0.16557 0.89853 0.0
H3060 H 0.06353 0.16371 0.8698 0.0
H3061 H 0.13632 0.14777 0.90269 0.0
H3062 H 0.12605 0.15817 0.92322 0.0
H3063 H 0.12079 0.13871 0.91731 0.0
H3064 H 0.07282 0.16318 0.96188 0.0
H3065 H 0.06892 0.11828 0.93339 0.0
H3066 H 0.08709 0.18188 0.92104 0.0
H3067 H 0.10556 0.17564 0.93025 0.0
H3068 H 0.0911 0.18127 0.94962 0.0
H3069 H 0.08281 0.12359 0.88677 0.0
H3070 H 0.0874 0.10967 0.90729 0.0
H3071 H 0.102 0.12257 0.89718 0.0
C3072 C 0.90142 0.85588 0.60777 0.0
C3073 C 0.91525 0.8641 0.60874 0.0
C3074 C 0.89592 0.84794 0.62591 0.0
C3075 C 0.90438 0.84844 0.64544 0.0
C3076 C 0.91709 0.85846 0.64732 0.0
C3077 C 0.92247 0.86611 0.62885 0.0
C3078 C 0.88215 0.83757 0.62333 0.0
C3079 C 0.9261 0.8597 0.6681 0.0
C3080 C 0.88895 0.82474 0.69234 0.0
C3081 C 0.89685 0.81086 0.68922 0.0
C3082 C 0.89166 0.83742 0.6788 0.0
C3083 C 0.90228 0.836 0.66157 0.0
C3084 C 0.91058 0.82214 0.65879 0.0
C3085 C 0.90779 0.80979 0.67268 0.0
C3086 C 0.88281 0.85208 0.6825 0.0
C3087 C 0.922 0.82009 0.64056 0.0
H3088 H 0.89553 0.85468 0.59241 0.0
H3089 H 0.93313 0.87251 0.62986 0.0
H3090 H 0.88609 0.82548 0.62194 0.0
H3091 H 0.87453 0.83831 0.63768 0.0
H3092 H 0.87538 0.84044 0.60864 0.0
H3093 H 0.9332 0.87031 0.6685 0.0
H3094 H 0.91834 0.85965 0.68235 0.0
H3095 H 0.93389 0.84967 0.66954 0.0
H3096 H 0.88051 0.82559 0.7052 0.0
H3097 H 0.91372 0.79901 0.66995 0.0
H3098 H 0.87336 0.85288 0.67053 0.0
H3099 H 0.89028 0.86229 0.68027 0.0
H3100 H 0.87769 0.85249 0.69897 0.0
H3101 H 0.9161 0.82137 0.62474 0.0
H3102 H 0.92767 0.80866 0.64095 0.0
H3103 H 0.93101 0.82907 0.64146 0.0
C3104 C 0.92734 0.14282 0.43365 0.0
C3105 C 0.94155 0.1503 0.43162 0.0
C3106 C 0.91492 0.14676 0.42022 0.0
C3107 C 0.9169 0.15831 0.40434 0.0
C3108 C 0.93107 0.16621 0.40275 0.0
C3109 C 0.94319 0.1621 0.41636 0.0
C3110 C 0.89993 0.13821 0.42252 0.0
C3111 C 0.93368 0.17863 0.38602 0.0
C3112 C 0.89722 0.16097 0.35043 0.0
C3113 C 0.8888 0.17456 0.3531 0.0
C3114 C 0.90521 0.15446 0.36782 0.0
C3115 C 0.90473 0.16175 0.38829 0.0
C3116 C 0.89483 0.17442 0.39162 0.0
C3117 C 0.887 0.18074 0.37391 0.0
C3118 C 0.91544 0.14077 0.36368 0.0
C3119 C 0.89377 0.18232 0.41331 0.0
H3120 H 0.92599 0.13376 0.44553 0.0
H3121 H 0.95421 0.16772 0.41439 0.0
H3122 H 0.89007 0.14627 0.42199 0.0
H3123 H 0.89861 0.1301 0.4088 0.0
H3124 H 0.8994 0.13155 0.43783 0.0
H3125 H 0.94518 0.18405 0.38753 0.0
H3126 H 0.93264 0.17368 0.36953 0.0
H3127 H 0.92482 0.18772 0.3876 0.0
H3128 H 0.89831 0.15596 0.33444 0.0
H3129 H 0.88047 0.19122 0.37611 0.0
H3130 H 0.91451 0.13231 0.37703 0.0
H3131 H 0.92758 0.14464 0.36292 0.0
H3132 H 0.91259 0.13496 0.34818 0.0
H3133 H 0.89358 0.17381 0.42668 0.0
H3134 H 0.88337 0.18966 0.41448 0.0
H3135 H 0.90402 0.18971 0.41562 0.0
C3136 C 0.56361 0.1317 0.13231 0.0
C3137 C 0.57069 0.13297 0.11198 0.0
C3138 C 0.56958 0.13945 0.15034 0.0
C3139 C 0.58273 0.14882 0.14779 0.0
C3140 C 0.59095 0.14855 0.12804 0.0
C3141 C 0.58487 0.14053 0.11036 0.0
C3142 C 0.5608 0.139 0.17139 0.0
C3143 C 0.60517 0.1582 0.12474 0.0
C3144 C 0.58149 0.18802 0.17383 0.0
C3145 C 0.59257 0.1867 0.19012 0.0
C3146 C 0.57797 0.1756 0.16039 0.0
C3147 C 0.58564 0.16142 0.16342 0.0
C3148 C 0.59643 0.15978 0.1804 0.0
C3149 C 0.59991 0.17255 0.19345 0.0
C3150 C 0.56644 0.1779 0.14238 0.0
C3151 C 0.60466 0.14479 0.18435 0.0
H3152 H 0.5527 0.12581 0.1338 0.0
H3153 H 0.59064 0.14112 0.09483 0.0
H3154 H 0.56876 0.13885 0.18541 0.0
H3155 H 0.55359 0.14946 0.17274 0.0
H3156 H 0.55316 0.1288 0.17232 0.0
H3157 H 0.61158 0.15477 0.10996 0.0
H3158 H 0.60179 0.17044 0.12305 0.0
H3159 H 0.61294 0.15732 0.13888 0.0
H3160 H 0.57601 0.19901 0.17094 0.0
H3161 H 0.60848 0.17151 0.20609 0.0
H3162 H 0.55701 0.16939 0.14382 0.0
H3163 H 0.57207 0.17605 0.12648 0.0
H3164 H 0.56133 0.18959 0.14251 0.0
H3165 H 0.59672 0.1349 0.18256 0.0
H3166 H 0.60992 0.14439 0.20072 0.0
H3167 H 0.61395 0.1434 0.17222 0.0
C3168 C 0.56842 0.83804 0.94524 0.0
C3169 C 0.56198 0.85214 0.93913 0.0
C3170 C 0.57929 0.83077 0.93198 0.0
C3171 C 0.58364 0.83778 0.91224 0.0
C3172 C 0.57856 0.85283 0.90741 0.0
C3173 C 0.56776 0.85985 0.92097 0.0
C3174 C 0.5847 0.81485 0.93791 0.0
C3175 C 0.58307 0.86081 0.88667 0.0
C3176 C 0.61213 0.81899 0.87378 0.0
C3177 C 0.60214 0.81126 0.85968 0.0
C3178 C 0.60639 0.82749 0.89136 0.0
C3179 C 0.59033 0.82826 0.8947 0.0
C3180 C 0.58026 0.82023 0.88071 0.0
C3181 C 0.5863 0.81179 0.86348 0.0
C3182 C 0.61743 0.83586 0.90602 0.0
C3183 C 0.56303 0.82069 0.88375 0.0
H3184 H 0.56401 0.83207 0.95933 0.0
H3185 H 0.56301 0.87092 0.91652 0.0
H3186 H 0.57799 0.80625 0.92861 0.0
H3187 H 0.59698 0.81327 0.93372 0.0
H3188 H 0.5831 0.81247 0.95543 0.0
H3189 H 0.58061 0.87333 0.88729 0.0
H3190 H 0.59545 0.85914 0.88317 0.0
H3191 H 0.57648 0.85577 0.87303 0.0
H3192 H 0.6244 0.81863 0.87085 0.0
H3193 H 0.57856 0.80552 0.85294 0.0
H3194 H 0.6148 0.83336 0.92324 0.0
H3195 H 0.61617 0.84843 0.90371 0.0
H3196 H 0.62957 0.83268 0.90274 0.0
H3197 H 0.55995 0.81638 0.90009 0.0
H3198 H 0.55684 0.81367 0.87152 0.0
H3199 H 0.55887 0.83271 0.88256 0.0
C3200 C 0.90486 0.18803 0.84005 0.0
C3201 C 0.90481 0.1899 0.81754 0.0
C3202 C 0.91194 0.17534 0.84964 0.0
C3203 C 0.91896 0.16409 0.83636 0.0
C3204 C 0.91781 0.16523 0.81357 0.0
C3205 C 0.91081 0.17823 0.80437 0.0
C3206 C 0.91279 0.17454 0.87406 0.0
C3207 C 0.92477 0.15325 0.7989 0.0
C3208 C 0.95306 0.14801 0.86584 0.0
C3209 C 0.94642 0.13553 0.87669 0.0
C3210 C 0.9446 0.15661 0.8509 0.0
C3211 C 0.92915 0.15255 0.84662 0.0
C3212 C 0.92294 0.13899 0.85572 0.0
C3213 C 0.93162 0.13068 0.87085 0.0
C3214 C 0.95169 0.171 0.84156 0.0
C3215 C 0.90669 0.134 0.85096 0.0
H3216 H 0.89981 0.19682 0.85025 0.0
H3217 H 0.9107 0.17958 0.78693 0.0
H3218 H 0.90859 0.16324 0.87987 0.0
H3219 H 0.92491 0.17572 0.87933 0.0
H3220 H 0.90592 0.18371 0.88198 0.0
H3221 H 0.91994 0.15388 0.78229 0.0
H3222 H 0.93735 0.1551 0.79783 0.0
H3223 H 0.92286 0.14152 0.80542 0.0
H3224 H 0.96445 0.15189 0.87037 0.0
H3225 H 0.92654 0.12087 0.87896 0.0
H3226 H 0.94637 0.18124 0.84923 0.0
H3227 H 0.9495 0.17174 0.82392 0.0
H3228 H 0.96429 0.1715 0.84433 0.0
H3229 H 0.89862 0.14085 0.86096 0.0
H3230 H 0.90491 0.12167 0.85482 0.0
H3231 H 0.90375 0.136 0.83372 0.0
C3232 C 0.60203 0.15828 0.64009 0.0
C3233 C 0.60932 0.17239 0.63636 0.0
C3234 C 0.59369 0.151 0.62364 0.0
C3235 C 0.59272 0.15803 0.60304 0.0
C3236 C 0.60158 0.17128 0.5985 0.0
C3237 C 0.60974 0.17836 0.61529 0.0
C3238 C 0.58456 0.13677 0.62907 0.0
C3239 C 0.60103 0.17898 0.57663 0.0
C3240 C 0.56927 0.13857 0.55895 0.0
C3241 C 0.55501 0.14581 0.5617 0.0
C3242 C 0.58185 0.14251 0.57207 0.0
C3243 C 0.57996 0.1538 0.58835 0.0
C3244 C 0.56558 0.16113 0.59109 0.0
C3245 C 0.55331 0.15704 0.57775 0.0
C3246 C 0.59706 0.13456 0.56868 0.0
C3247 C 0.56303 0.17317 0.60837 0.0
H3248 H 0.60203 0.15341 0.65624 0.0
H3249 H 0.61539 0.18925 0.61224 0.0
H3250 H 0.57237 0.14 0.63172 0.0
H3251 H 0.5849 0.12839 0.61557 0.0
H3252 H 0.58887 0.1311 0.64399 0.0
H3253 H 0.61087 0.18695 0.57429 0.0
H3254 H 0.60108 0.17037 0.5634 0.0
H3255 H 0.59025 0.18571 0.57527 0.0
H3256 H 0.57059 0.1299 0.5465 0.0
H3257 H 0.54221 0.1624 0.58024 0.0
H3258 H 0.60009 0.12783 0.58331 0.0
H3259 H 0.60629 0.14317 0.56624 0.0
H3260 H 0.59685 0.12668 0.55453 0.0
H3261 H 0.56529 0.1682 0.62459 0.0
H3262 H 0.55115 0.17781 0.6082 0.0
H3263 H 0.57115 0.18286 0.60604 0.0
C3264 C 0.58629 0.81823 0.30087 0.0
C3265 C 0.6008 0.81141 0.30319 0.0
C3266 C 0.58099 0.82903 0.31593 0.0
C3267 C 0.59061 0.83338 0.33334 0.0
C3268 C 0.60596 0.82813 0.33405 0.0
C3269 C 0.61083 0.81704 0.31913 0.0
C3270 C 0.56454 0.83441 0.31453 0.0
C3271 C 0.61676 0.833 0.35188 0.0
C3272 C 0.57452 0.86294 0.37249 0.0
C3273 C 0.56844 0.85337 0.3886 0.0
C3274 C 0.58241 0.85671 0.35472 0.0
C3275 C 0.58373 0.84055 0.35282 0.0
C3276 C 0.57779 0.8309 0.36929 0.0
C3277 C 0.57037 0.83746 0.38709 0.0
C3278 C 0.58898 0.86735 0.3378 0.0
C3279 C 0.5788 0.8136 0.36779 0.0
H3280 H 0.57866 0.81435 0.28814 0.0
H3281 H 0.62209 0.81195 0.32115 0.0
H3282 H 0.55765 0.82853 0.32717 0.0
H3283 H 0.56374 0.84694 0.31756 0.0
H3284 H 0.55936 0.83186 0.2985 0.0
H3285 H 0.62894 0.83079 0.34751 0.0
H3286 H 0.61537 0.84539 0.35565 0.0
H3287 H 0.61409 0.82642 0.3668 0.0
H3288 H 0.57301 0.87527 0.37377 0.0
H3289 H 0.56547 0.83009 0.39945 0.0
H3290 H 0.58166 0.86706 0.32313 0.0
H3291 H 0.60067 0.86362 0.33296 0.0
H3292 H 0.58955 0.87941 0.34364 0.0
H3293 H 0.57292 0.80956 0.35291 0.0
H3294 H 0.5735 0.80778 0.38195 0.0
H3295 H 0.59098 0.80996 0.36669 0.0
C3296 C 0.91542 0.79742 0.124 0.0
C3297 C 0.89949 0.79782 0.12706 0.0
C3298 C 0.92245 0.80649 0.10817 0.0
C3299 C 0.91331 0.81615 0.095 0.0
C3300 C 0.89715 0.81617 0.09738 0.0
C3301 C 0.89041 0.80705 0.11355 0.0
C3302 C 0.93976 0.80621 0.10623 0.0
C3303 C 0.88706 0.82617 0.08339 0.0
C3304 C 0.93688 0.84972 0.07591 0.0
C3305 C 0.94273 0.844 0.05638 0.0
C3306 C 0.92613 0.84133 0.08789 0.0
C3307 C 0.92104 0.82695 0.07999 0.0
C3308 C 0.92568 0.82188 0.05923 0.0
C3309 C 0.93657 0.83046 0.04768 0.0
C3310 C 0.92137 0.84719 0.1099 0.0
C3311 C 0.92022 0.80677 0.05008 0.0
H3312 H 0.92249 0.79048 0.13462 0.0
H3313 H 0.87807 0.80727 0.11581 0.0
H3314 H 0.94318 0.80354 0.08935 0.0
H3315 H 0.94449 0.8177 0.11026 0.0
H3316 H 0.94511 0.79759 0.11714 0.0
H3317 H 0.87471 0.82321 0.08513 0.0
H3318 H 0.88861 0.83838 0.08801 0.0
H3319 H 0.89035 0.82508 0.06611 0.0
H3320 H 0.94134 0.86041 0.0824 0.0
H3321 H 0.94102 0.82598 0.03255 0.0
H3322 H 0.92705 0.84021 0.12262 0.0
H3323 H 0.9088 0.84603 0.11217 0.0
H3324 H 0.92462 0.85941 0.11234 0.0
H3325 H 0.92645 0.79723 0.05813 0.0
H3326 H 0.92234 0.80598 0.03238 0.0
H3327 H 0.90778 0.8051 0.05319 0.0
C3328 C 0.58363 0.64229 0.88206 0.0
C3329 C 0.56969 0.63454 0.87948 0.0
C3330 C 0.59076 0.64934 0.86431 0.0
C3331 C 0.58377 0.64838 0.84365 0.0
C3332 C 0.57084 0.63878 0.8406 0.0
C3333 C 0.56378 0.63212 0.85868 0.0
C3334 C 0.60461 0.65939 0.86823 0.0
C3335 C 0.56343 0.63697 0.81868 0.0
C3336 C 0.58361 0.68604 0.81347 0.0
C3337 C 0.59576 0.68414 0.79889 0.0
C3338 C 0.57941 0.67429 0.82767 0.0
C3339 C 0.58747 0.66016 0.82712 0.0
C3340 C 0.59932 0.65786 0.81177 0.0
C3341 C 0.60347 0.67 0.79794 0.0
C3342 C 0.56675 0.67728 0.84389 0.0
C3343 C 0.60796 0.64287 0.81041 0.0
H3344 H 0.58817 0.6441 0.89821 0.0
H3345 H 0.55306 0.62592 0.85677 0.0
H3346 H 0.61324 0.65785 0.85522 0.0
H3347 H 0.60101 0.67162 0.86812 0.0
H3348 H 0.61011 0.65689 0.88406 0.0
H3349 H 0.55592 0.62666 0.81805 0.0
H3350 H 0.55628 0.64723 0.81519 0.0
H3351 H 0.57225 0.63608 0.80577 0.0
H3352 H 0.57783 0.69705 0.81453 0.0
H3353 H 0.61287 0.66852 0.78662 0.0
H3354 H 0.57134 0.6763 0.86059 0.0
H3355 H 0.55752 0.66859 0.84211 0.0
H3356 H 0.56157 0.68887 0.84198 0.0
H3357 H 0.61658 0.64237 0.82359 0.0
H3358 H 0.6141 0.64168 0.79474 0.0
H3359 H 0.6001 0.63294 0.81246 0.0
C3360 C 0.58341 0.31577 0.12326 0.0
C3361 C 0.59888 0.31489 0.12928 0.0
C3362 C 0.57875 0.32482 0.1058 0.0
C3363 C 0.58983 0.33338 0.0941 0.0
C3364 C 0.60549 0.33267 0.10011 0.0
C3365 C 0.60986 0.32336 0.11765 0.0
C3366 C 0.56187 0.32532 0.10005 0.0
C3367 C 0.61761 0.34158 0.08796 0.0
C3368 C 0.57144 0.34328 0.04125 0.0
C3369 C 0.56349 0.35662 0.04727 0.0
C3370 C 0.58196 0.33642 0.05543 0.0
C3371 C 0.58454 0.34317 0.07594 0.0
C3372 C 0.5784 0.35785 0.08057 0.0
C3373 C 0.56784 0.3644 0.06617 0.0
C3374 C 0.58862 0.32097 0.04962 0.0
C3375 C 0.58123 0.36565 0.10201 0.0
H3376 H 0.57485 0.30952 0.13247 0.0
H3377 H 0.62186 0.3226 0.12215 0.0
H3378 H 0.55749 0.33724 0.10154 0.0
H3379 H 0.56019 0.32167 0.083 0.0
H3380 H 0.55482 0.31777 0.1106 0.0
H3381 H 0.62878 0.34165 0.09664 0.0
H3382 H 0.61938 0.33631 0.07181 0.0
H3383 H 0.61389 0.35362 0.0853 0.0
H3384 H 0.56843 0.33747 0.02632 0.0
H3385 H 0.56187 0.37479 0.07091 0.0
H3386 H 0.58173 0.31181 0.0575 0.0
H3387 H 0.60061 0.3199 0.05549 0.0
H3388 H 0.58843 0.31897 0.03186 0.0
H3389 H 0.57369 0.36043 0.11449 0.0
H3390 H 0.57866 0.37814 0.1012 0.0
H3391 H 0.5933 0.3641 0.10731 0.0
C3392 C 0.9051 0.31525 0.29944 0.0
C3393 C 0.89218 0.30644 0.30494 0.0
C3394 C 0.91138 0.32575 0.31419 0.0
C3395 C 0.90441 0.32758 0.33472 0.0
C3396 C 0.89032 0.32018 0.33924 0.0
C3397 C 0.88443 0.30957 0.32436 0.0
C3398 C 0.92636 0.33355 0.30866 0.0
C3399 C 0.88234 0.3221 0.36077 0.0
C3400 C 0.9307 0.33044 0.38311 0.0
C3401 C 0.92966 0.34602 0.38842 0.0
C3402 C 0.92274 0.32445 0.36539 0.0
C3403 C 0.91335 0.33429 0.3528 0.0
C3404 C 0.91233 0.3501 0.35796 0.0
C3405 C 0.92062 0.35583 0.37572 0.0
C3406 C 0.92431 0.30754 0.36026 0.0
C3407 C 0.90228 0.36083 0.34505 0.0
H3408 H 0.91089 0.31324 0.28417 0.0
H3409 H 0.87444 0.30287 0.32886 0.0
H3410 H 0.92646 0.34561 0.31445 0.0
H3411 H 0.9359 0.32742 0.31685 0.0
H3412 H 0.9286 0.33345 0.29096 0.0
H3413 H 0.8702 0.31821 0.36009 0.0
H3414 H 0.8884 0.31516 0.37318 0.0
H3415 H 0.88262 0.33426 0.3661 0.0
H3416 H 0.93792 0.32293 0.39274 0.0
H3417 H 0.91984 0.36789 0.37992 0.0
H3418 H 0.9283 0.306 0.34334 0.0
H3419 H 0.91298 0.30181 0.36172 0.0
H3420 H 0.93252 0.30163 0.37122 0.0
H3421 H 0.90486 0.35983 0.32753 0.0
H3422 H 0.90374 0.37301 0.35004 0.0
H3423 H 0.89005 0.3576 0.34727 0.0
C3424 C 0.89686 0.68765 0.61235 0.0
C3425 C 0.89754 0.68177 0.63344 0.0
C3426 C 0.90486 0.68051 0.59544 0.0
C3427 C 0.9139 0.66739 0.59994 0.0
C3428 C 0.91336 0.66058 0.62074 0.0
C3429 C 0.90511 0.66785 0.63728 0.0
C3430 C 0.90479 0.68785 0.57331 0.0
C3431 C 0.9228 0.64655 0.62616 0.0
C3432 C 0.93613 0.64554 0.55698 0.0
C3433 C 0.95071 0.65225 0.55903 0.0
C3434 C 0.92373 0.65074 0.56953 0.0
C3435 C 0.92613 0.66273 0.58462 0.0
C3436 C 0.94072 0.66984 0.5862 0.0
C3437 C 0.9528 0.66454 0.57332 0.0
C3438 C 0.90827 0.64308 0.56717 0.0
C3439 C 0.94377 0.68265 0.60216 0.0
H3440 H 0.89074 0.69829 0.60934 0.0
H3441 H 0.90563 0.66329 0.6536 0.0
H3442 H 0.91555 0.69449 0.57105 0.0
H3443 H 0.90432 0.67899 0.56042 0.0
H3444 H 0.89493 0.69582 0.57129 0.0
H3445 H 0.91934 0.64137 0.64186 0.0
H3446 H 0.92171 0.63772 0.61331 0.0
H3447 H 0.9351 0.64982 0.62718 0.0
H3448 H 0.93448 0.63609 0.54578 0.0
H3449 H 0.9641 0.6696 0.57516 0.0
H3450 H 0.89896 0.65177 0.56655 0.0
H3451 H 0.90609 0.63567 0.58144 0.0
H3452 H 0.90765 0.63584 0.55239 0.0
H3453 H 0.9356 0.69224 0.59949 0.0
H3454 H 0.95564 0.68722 0.60087 0.0
H3455 H 0.94198 0.6784 0.61891 0.0
C3456 C 0.56863 0.35754 0.63094 0.0
C3457 C 0.55758 0.34818 0.62092 0.0
C3458 C 0.57841 0.35162 0.64698 0.0
C3459 C 0.57709 0.336 0.65298 0.0
C3460 C 0.56556 0.32669 0.64353 0.0
C3461 C 0.55601 0.33288 0.62759 0.0
C3462 C 0.59051 0.3619 0.65678 0.0
C3463 C 0.56371 0.30995 0.64956 0.0
C3464 C 0.60872 0.30984 0.67124 0.0
C3465 C 0.60402 0.30664 0.69248 0.0
C3466 C 0.60106 0.32085 0.65877 0.0
C3467 C 0.58835 0.32873 0.66775 0.0
C3468 C 0.58473 0.32686 0.68991 0.0
C3469 C 0.59265 0.31581 0.70207 0.0
C3470 C 0.60547 0.32272 0.63528 0.0
C3471 C 0.57149 0.33532 0.70019 0.0
H3472 H 0.56977 0.36944 0.62604 0.0
H3473 H 0.5477 0.32549 0.61971 0.0
H3474 H 0.59128 0.36013 0.67452 0.0
H3475 H 0.60187 0.359 0.64977 0.0
H3476 H 0.58817 0.37424 0.65354 0.0
H3477 H 0.55361 0.30458 0.6416 0.0
H3478 H 0.57414 0.30347 0.64475 0.0
H3479 H 0.5624 0.30874 0.66733 0.0
H3480 H 0.6175 0.30283 0.66366 0.0
H3481 H 0.58926 0.31367 0.71868 0.0
H3482 H 0.60529 0.335 0.63052 0.0
H3483 H 0.59701 0.31658 0.625 0.0
H3484 H 0.61706 0.31796 0.63187 0.0
H3485 H 0.57101 0.34741 0.69453 0.0
H3486 H 0.57227 0.33522 0.71814 0.0
H3487 H 0.56056 0.32969 0.69545 0.0
C3488 C 0.922 0.34398 0.96549 0.0
C3489 C 0.9302 0.35743 0.96083 0.0
C3490 C 0.91217 0.33746 0.95006 0.0
C3491 C 0.9106 0.3446 0.9296 0.0
C3492 C 0.91726 0.3592 0.92595 0.0
C3493 C 0.92704 0.36544 0.94163 0.0
C3494 C 0.90504 0.32201 0.95472 0.0
C3495 C 0.91574 0.3673 0.90446 0.0
C3496 C 0.91165 0.31791 0.88145 0.0
C3497 C 0.8963 0.31786 0.87474 0.0
C3498 C 0.91633 0.32653 0.89935 0.0
C3499 C 0.90538 0.33539 0.91082 0.0
C3500 C 0.88985 0.33551 0.90409 0.0
C3501 C 0.88548 0.32671 0.88604 0.0
C3502 C 0.93307 0.3262 0.90588 0.0
C3503 C 0.87792 0.34485 0.91595 0.0
H3504 H 0.92419 0.33793 0.98051 0.0
H3505 H 0.93336 0.37583 0.93783 0.0
H3506 H 0.89328 0.32126 0.9479 0.0
H3507 H 0.91207 0.31289 0.947 0.0
H3508 H 0.9045 0.31965 0.97237 0.0
H3509 H 0.91858 0.37971 0.90582 0.0
H3510 H 0.92378 0.36203 0.89267 0.0
H3511 H 0.90395 0.36613 0.89788 0.0
H3512 H 0.92009 0.31131 0.8725 0.0
H3513 H 0.87357 0.3266 0.88094 0.0
H3514 H 0.93418 0.32212 0.92282 0.0
H3515 H 0.93797 0.33795 0.90513 0.0
H3516 H 0.94005 0.31858 0.89531 0.0
H3517 H 0.87706 0.34088 0.93297 0.0
H3518 H 0.86641 0.34398 0.90832 0.0
H3519 H 0.88138 0.35711 0.9164 0.0
C3520 C 0.92564 0.62951 0.13233 0.0
C3521 C 0.93543 0.64004 0.12204 0.0
C3522 C 0.91667 0.63397 0.15017 0.0
C3523 C 0.91736 0.64936 0.15748 0.0
C3524 C 0.92744 0.65993 0.14733 0.0
C3525 C 0.93636 0.65511 0.12981 0.0
C3526 C 0.90622 0.62236 0.16074 0.0
C3527 C 0.92847 0.6765 0.15453 0.0
C3528 C 0.88623 0.67251 0.18358 0.0
C3529 C 0.89302 0.67564 0.20368 0.0
C3530 C 0.89312 0.66228 0.16904 0.0
C3531 C 0.90707 0.65504 0.17485 0.0
C3532 C 0.91275 0.65652 0.19621 0.0
C3533 C 0.90568 0.66691 0.2104 0.0
C3534 C 0.88657 0.6609 0.14651 0.0
C3535 C 0.9273 0.64856 0.20324 0.0
H3536 H 0.92499 0.61781 0.1264 0.0
H3537 H 0.94373 0.66333 0.12168 0.0
H3538 H 0.90678 0.62329 0.17864 0.0
H3539 H 0.89417 0.62465 0.15587 0.0
H3540 H 0.90915 0.61042 0.15595 0.0
H3541 H 0.93711 0.68312 0.14514 0.0
H3542 H 0.91714 0.68217 0.1526 0.0
H3543 H 0.93159 0.6771 0.17191 0.0
H3544 H 0.87643 0.67921 0.17826 0.0
H3545 H 0.91076 0.66908 0.22612 0.0
H3546 H 0.88724 0.6489 0.14061 0.0
H3547 H 0.89338 0.66817 0.13529 0.0
H3548 H 0.87441 0.66475 0.14582 0.0
H3549 H 0.92792 0.63675 0.19654 0.0
H3550 H 0.92819 0.64797 0.22116 0.0
H3551 H 0.93735 0.65506 0.19704 0.0
C3552 C 0.58869 0.68544 0.3795 0.0
C3553 C 0.60336 0.68421 0.37032 0.0
C3554 C 0.58441 0.67638 0.39719 0.0
C3555 C 0.59497 0.66561 0.40576 0.0
C3556 C 0.60996 0.66459 0.39708 0.0
C3557 C 0.614 0.67396 0.37946 0.0
C3558 C 0.5683 0.67791 0.40609 0.0
C3559 C 0.6215 0.6532 0.40572 0.0
C3560 C 0.58002 0.65086 0.45901 0.0
C3561 C 0.57016 0.63919 0.4517 0.0
C3562 C 0.58961 0.65874 0.44451 0.0
C3563 C 0.58952 0.65459 0.42237 0.0
C3564 C 0.5813 0.64144 0.41559 0.0
C3565 C 0.57161 0.63399 0.43026 0.0
C3566 C 0.59846 0.67253 0.45245 0.0
C3567 C 0.58123 0.63636 0.39221 0.0
H3568 H 0.5803 0.69311 0.37239 0.0
H3569 H 0.62546 0.67311 0.37269 0.0
H3570 H 0.56178 0.66719 0.40291 0.0
H3571 H 0.56864 0.67961 0.42388 0.0
H3572 H 0.56195 0.68766 0.39873 0.0
H3573 H 0.63334 0.65581 0.40011 0.0
H3574 H 0.62137 0.653 0.42366 0.0
H3575 H 0.61842 0.64151 0.40004 0.0
H3576 H 0.57945 0.65461 0.47571 0.0
H3577 H 0.56414 0.62502 0.4242 0.0
H3578 H 0.59197 0.68312 0.44842 0.0
H3579 H 0.60984 0.67332 0.44444 0.0
H3580 H 0.60016 0.67218 0.47027 0.0
H3581 H 0.57377 0.64418 0.38268 0.0
H3582 H 0.57677 0.62447 0.39038 0.0
H3583 H 0.59294 0.63691 0.3852 0.0
C3584 C 0.44104 0.35189 0.13954 0.0
C3585 C 0.43538 0.35227 0.11831 0.0
C3586 C 0.43332 0.34363 0.15574 0.0
C3587 C 0.41985 0.33538 0.15036 0.0
C3588 C 0.41352 0.33667 0.12934 0.0
C3589 C 0.42134 0.34516 0.11358 0.0
C3590 C 0.44017 0.34288 0.17814 0.0
C3591 C 0.39922 0.32797 0.12289 0.0
C3592 C 0.41256 0.2963 0.17446 0.0
C3593 C 0.39943 0.29897 0.18702 0.0
C3594 C 0.41979 0.30827 0.16336 0.0
C3595 C 0.41387 0.32336 0.16511 0.0
C3596 C 0.4013 0.32636 0.17903 0.0
C3597 C 0.39415 0.31406 0.18979 0.0
C3598 C 0.43322 0.30456 0.14875 0.0
C3599 C 0.39492 0.34236 0.18166 0.0
H3600 H 0.45178 0.3576 0.14329 0.0
H3601 H 0.41698 0.34534 0.09715 0.0
H3602 H 0.43106 0.34356 0.19068 0.0
H3603 H 0.44617 0.33174 0.18025 0.0
H3604 H 0.44859 0.35226 0.18092 0.0
H3605 H 0.39487 0.33154 0.10676 0.0
H3606 H 0.4018 0.31548 0.12235 0.0
H3607 H 0.38998 0.3297 0.135 0.0
H3608 H 0.41694 0.2847 0.17281 0.0
H3609 H 0.38404 0.31618 0.19959 0.0
H3610 H 0.44314 0.31205 0.15265 0.0
H3611 H 0.43001 0.30681 0.13166 0.0
H3612 H 0.43691 0.29239 0.15016 0.0
H3613 H 0.40433 0.35088 0.18333 0.0
H3614 H 0.38724 0.34325 0.19597 0.0
H3615 H 0.38822 0.34548 0.16705 0.0
C3616 C 0.42696 0.64747 0.94041 0.0
C3617 C 0.44131 0.65456 0.9376 0.0
C3618 C 0.41439 0.65154 0.92738 0.0
C3619 C 0.41635 0.66277 0.91107 0.0
C3620 C 0.43065 0.67034 0.90875 0.0
C3621 C 0.44292 0.66615 0.92206 0.0
C3622 C 0.39925 0.64338 0.93051 0.0
C3623 C 0.43324 0.6824 0.89151 0.0
C3624 C 0.39594 0.66456 0.85763 0.0
C3625 C 0.38795 0.67844 0.85982 0.0
C3626 C 0.40404 0.65829 0.8751 0.0
C3627 C 0.40402 0.6661 0.8952 0.0
C3628 C 0.39445 0.67906 0.89818 0.0
C3629 C 0.38656 0.68515 0.88038 0.0
C3630 C 0.41392 0.64429 0.87134 0.0
C3631 C 0.39382 0.68744 0.91954 0.0
H3632 H 0.42566 0.63857 0.95253 0.0
H3633 H 0.45404 0.67148 0.91955 0.0
H3634 H 0.38953 0.65158 0.92953 0.0
H3635 H 0.39769 0.63478 0.91745 0.0
H3636 H 0.39873 0.63731 0.94631 0.0
H3637 H 0.44488 0.68759 0.89245 0.0
H3638 H 0.43182 0.67719 0.87524 0.0
H3639 H 0.42462 0.69171 0.89306 0.0
H3640 H 0.39668 0.65911 0.84188 0.0
H3641 H 0.38035 0.69587 0.88224 0.0
H3642 H 0.41293 0.63614 0.88505 0.0
H3643 H 0.42613 0.64786 0.87019 0.0
H3644 H 0.41078 0.63822 0.85615 0.0
H3645 H 0.39365 0.67923 0.93327 0.0
H3646 H 0.38358 0.69501 0.92063 0.0
H3647 H 0.40423 0.69469 0.92127 0.0
C3648 C 0.08807 0.68689 0.66218 0.0
C3649 C 0.09807 0.68635 0.6799 0.0
C3650 C 0.08494 0.67374 0.65 0.0
C3651 C 0.09193 0.65961 0.65574 0.0
C3652 C 0.10173 0.65885 0.67397 0.0
C3653 C 0.1048 0.67231 0.68577 0.0
C3654 C 0.07444 0.67508 0.6306 0.0
C3655 C 0.10922 0.64397 0.6807 0.0
C3656 C 0.07007 0.62825 0.62774 0.0
C3657 C 0.07796 0.62765 0.60794 0.0
C3658 C 0.07557 0.63728 0.64485 0.0
C3659 C 0.08913 0.64598 0.6419 0.0
C3660 C 0.0981 0.64386 0.62303 0.0
C3661 C 0.09242 0.63463 0.60627 0.0
C3662 C 0.06591 0.6389 0.66499 0.0
C3663 C 0.11275 0.65277 0.61937 0.0
H3664 H 0.08306 0.69777 0.65737 0.0
H3665 H 0.1125 0.67188 0.69954 0.0
H3666 H 0.08076 0.67186 0.61567 0.0
H3667 H 0.06462 0.66705 0.63228 0.0
H3668 H 0.06984 0.68689 0.62851 0.0
H3669 H 0.11459 0.64482 0.69697 0.0
H3670 H 0.10072 0.63448 0.68085 0.0
H3671 H 0.11827 0.64087 0.66884 0.0
H3672 H 0.05891 0.62286 0.62926 0.0
H3673 H 0.09876 0.63383 0.59121 0.0
H3674 H 0.05904 0.64961 0.66392 0.0
H3675 H 0.07322 0.63971 0.67964 0.0
H3676 H 0.05786 0.62908 0.66692 0.0
H3677 H 0.10986 0.6648 0.61506 0.0
H3678 H 0.11972 0.64779 0.60604 0.0
H3679 H 0.11982 0.65308 0.63428 0.0
C3680 C 0.07113 0.35754 0.43294 0.0
C3681 C 0.05956 0.34686 0.43773 0.0
C3682 C 0.08336 0.35358 0.41918 0.0
C3683 C 0.08376 0.33872 0.40989 0.0
C3684 C 0.07284 0.32754 0.41627 0.0
C3685 C 0.06096 0.33174 0.43028 0.0
C3686 C 0.09513 0.36561 0.4134 0.0
C3687 C 0.07289 0.31151 0.40689 0.0
C3688 C 0.0956 0.33119 0.35234 0.0
C3689 C 0.10828 0.32158 0.35542 0.0
C3690 C 0.08821 0.33801 0.37001 0.0
C3691 C 0.09386 0.33532 0.39118 0.0
C3692 C 0.10764 0.32696 0.39411 0.0
C3693 C 0.11458 0.31995 0.37616 0.0
C3694 C 0.0735 0.34678 0.36616 0.0
C3695 C 0.11437 0.32439 0.41631 0.0
H3696 H 0.07014 0.36924 0.43881 0.0
H3697 H 0.05223 0.32336 0.43448 0.0
H3698 H 0.10673 0.36046 0.41179 0.0
H3699 H 0.09209 0.37085 0.3976 0.0
H3700 H 0.09556 0.37491 0.4257 0.0
H3701 H 0.06422 0.30394 0.41467 0.0
H3702 H 0.07037 0.31207 0.38929 0.0
H3703 H 0.08436 0.30616 0.40879 0.0
H3704 H 0.09071 0.33239 0.33629 0.0
H3705 H 0.12455 0.31266 0.37845 0.0
H3706 H 0.07369 0.35789 0.37493 0.0
H3707 H 0.06364 0.34004 0.37248 0.0
H3708 H 0.0715 0.3491 0.34871 0.0
H3709 H 0.11313 0.3348 0.42653 0.0
H3710 H 0.12671 0.32124 0.41539 0.0
H3711 H 0.10815 0.31488 0.42443 0.0
C3712 C 0.4317 0.64065 0.37333 0.0
C3713 C 0.44246 0.64959 0.3846 0.0
C3714 C 0.42202 0.64732 0.35778 0.0
C3715 C 0.42302 0.6633 0.35378 0.0
C3716 C 0.43405 0.67228 0.36488 0.0
C3717 C 0.44366 0.6653 0.38009 0.0
C3718 C 0.41053 0.63738 0.34601 0.0
C3719 C 0.43541 0.6894 0.3612 0.0
C3720 C 0.40841 0.68528 0.3055 0.0
C3721 C 0.39586 0.69299 0.31468 0.0
C3722 C 0.41657 0.67425 0.31738 0.0
C3723 C 0.41213 0.67107 0.33895 0.0
C3724 C 0.39861 0.67773 0.3475 0.0
C3725 C 0.39058 0.68857 0.33518 0.0
C3726 C 0.43073 0.6671 0.30754 0.0
C3727 C 0.39344 0.67458 0.37041 0.0
H3728 H 0.43085 0.62846 0.37673 0.0
H3729 H 0.4518 0.67228 0.38901 0.0
H3730 H 0.39874 0.64043 0.35125 0.0
H3731 H 0.41119 0.63944 0.32831 0.0
H3732 H 0.4124 0.62496 0.34917 0.0
H3733 H 0.44482 0.69464 0.37083 0.0
H3734 H 0.43756 0.6918 0.34383 0.0
H3735 H 0.42447 0.69513 0.36565 0.0
H3736 H 0.41254 0.68861 0.28962 0.0
H3737 H 0.38061 0.6942 0.34209 0.0
H3738 H 0.43155 0.65475 0.3118 0.0
H3739 H 0.44109 0.6729 0.31406 0.0
H3740 H 0.43084 0.66826 0.28963 0.0
H3741 H 0.39388 0.66211 0.37401 0.0
H3742 H 0.38159 0.67879 0.37345 0.0
H3743 H 0.40132 0.68044 0.38186 0.0
C3744 C 0.06323 0.63347 0.07639 0.0
C3745 C 0.06269 0.63671 0.05421 0.0
C3746 C 0.07373 0.641 0.08985 0.0
C3747 C 0.08406 0.65177 0.08072 0.0
C3748 C 0.085 0.65336 0.05797 0.0
C3749 C 0.07408 0.64598 0.04492 0.0
C3750 C 0.07237 0.63892 0.11403 0.0
C3751 C 0.09644 0.66409 0.0476 0.0
C3752 C 0.0879 0.68763 0.11462 0.0
C3753 C 0.10121 0.68453 0.12646 0.0
C3754 C 0.08255 0.67725 0.09908 0.0
C3755 C 0.09098 0.66362 0.09493 0.0
C3756 C 0.10499 0.66093 0.10589 0.0
C3757 C 0.10981 0.67131 0.1219 0.0
C3758 C 0.06742 0.6805 0.08799 0.0
C3759 C 0.11459 0.64685 0.10141 0.0
H3760 H 0.05439 0.62632 0.08357 0.0
H3761 H 0.07377 0.6483 0.02769 0.0
H3762 H 0.08386 0.6376 0.1215 0.0
H3763 H 0.06695 0.64928 0.1212 0.0
H3764 H 0.06527 0.62875 0.11832 0.0
H3765 H 0.09821 0.6613 0.03023 0.0
H3766 H 0.09214 0.67606 0.04871 0.0
H3767 H 0.10766 0.66358 0.05609 0.0
H3768 H 0.08123 0.69782 0.11834 0.0
H3769 H 0.12018 0.66902 0.13106 0.0
H3770 H 0.05905 0.67129 0.09188 0.0
H3771 H 0.06898 0.6806 0.07018 0.0
H3772 H 0.06241 0.6917 0.09296 0.0
H3773 H 0.11012 0.63706 0.11101 0.0
H3774 H 0.12677 0.64869 0.10609 0.0
H3775 H 0.11413 0.64359 0.08406 0.0
C3776 C 0.09095 0.31335 0.81072 0.0
C3777 C 0.09424 0.29971 0.82192 0.0
C3778 C 0.08458 0.32605 0.82151 0.0
C3779 C 0.0812 0.3249 0.84385 0.0
C3780 C 0.0852 0.31144 0.85539 0.0
C3781 C 0.09183 0.29911 0.84433 0.0
C3782 C 0.08085 0.34038 0.80882 0.0
C3783 C 0.08179 0.30974 0.87927 0.0
C3784 C 0.07108 0.35677 0.88271 0.0
C3785 C 0.05519 0.35455 0.88476 0.0
C3786 C 0.07966 0.34817 0.86779 0.0
C3787 C 0.07216 0.33695 0.85503 0.0
C3788 C 0.05597 0.33558 0.85583 0.0
C3789 C 0.04767 0.34446 0.87065 0.0
C3790 C 0.09685 0.35029 0.86689 0.0
C3791 C 0.04753 0.32371 0.84254 0.0
H3792 H 0.09279 0.31393 0.79339 0.0
H3793 H 0.09481 0.28879 0.85321 0.0
H3794 H 0.06829 0.34097 0.80597 0.0
H3795 H 0.08417 0.35082 0.81802 0.0
H3796 H 0.08675 0.34055 0.79288 0.0
H3797 H 0.08612 0.29872 0.88596 0.0
H3798 H 0.08708 0.31931 0.88848 0.0
H3799 H 0.0692 0.31029 0.88199 0.0
H3800 H 0.07687 0.36478 0.89338 0.0
H3801 H 0.0354 0.34268 0.87226 0.0
H3802 H 0.10103 0.34983 0.84993 0.0
H3803 H 0.10251 0.34085 0.87591 0.0
H3804 H 0.10044 0.36138 0.87423 0.0
H3805 H 0.05129 0.32415 0.8254 0.0
H3806 H 0.03488 0.32533 0.84314 0.0
H3807 H 0.05025 0.31207 0.84878 0.0
C3808 C 0.42289 0.33868 0.55258 0.0
C3809 C 0.43044 0.35288 0.55411 0.0
C3810 C 0.41217 0.33418 0.56826 0.0
C3811 C 0.40873 0.34426 0.58558 0.0
C3812 C 0.41471 0.35936 0.58551 0.0
C3813 C 0.42563 0.36345 0.5699 0.0
C3814 C 0.40593 0.318 0.56763 0.0
C3815 C 0.41092 0.37062 0.60331 0.0
C3816 C 0.37997 0.3307 0.62778 0.0
C3817 C 0.38982 0.3244 0.64338 0.0
C3818 C 0.38588 0.3377 0.60905 0.0
C3819 C 0.40197 0.33799 0.60575 0.0
C3820 C 0.41193 0.33182 0.62166 0.0
C3821 C 0.40572 0.3252 0.64032 0.0
C3822 C 0.37495 0.34444 0.59266 0.0
C3823 C 0.42917 0.3318 0.61873 0.0
H3824 H 0.42616 0.33064 0.54 0.0
H3825 H 0.43131 0.37448 0.57132 0.0
H3826 H 0.41206 0.3109 0.57978 0.0
H3827 H 0.39355 0.31782 0.57182 0.0
H3828 H 0.40749 0.31262 0.55147 0.0
H3829 H 0.41357 0.38262 0.59844 0.0
H3830 H 0.39862 0.36988 0.60788 0.0
H3831 H 0.41784 0.36783 0.61787 0.0
H3832 H 0.36765 0.33009 0.6302 0.0
H3833 H 0.41334 0.32009 0.65219 0.0
H3834 H 0.37457 0.33696 0.57814 0.0
H3835 H 0.37894 0.35594 0.58732 0.0
H3836 H 0.36311 0.3455 0.59919 0.0
H3837 H 0.43226 0.32538 0.60382 0.0
H3838 H 0.43525 0.32648 0.63263 0.0
H3839 H 0.43342 0.34373 0.61678 0.0
C3840 C 0.27487 0.21855 0.27165 0.0
C3841 C 0.28744 0.2273 0.2785 0.0
C3842 C 0.25987 0.22361 0.27537 0.0
C3843 C 0.2575 0.23773 0.28625 0.0
C3844 C 0.2701 0.24577 0.29518 0.0
C3845 C 0.28501 0.24045 0.29114 0.0
C3846 C 0.24668 0.21461 0.26582 0.0
C3847 C 0.26797 0.2607 0.30722 0.0
C3848 C 0.2236 0.25905 0.2632 0.0
C3849 C 0.21199 0.25495 0.27774 0.0
C3850 C 0.23873 0.25422 0.26653 0.0
C3851 C 0.24226 0.24514 0.2849 0.0
C3852 C 0.23079 0.24186 0.3004 0.0
C3853 C 0.21571 0.24675 0.29657 0.0
C3854 C 0.25071 0.258 0.24965 0.0
C3855 C 0.23422 0.23248 0.32037 0.0
H3856 H 0.27681 0.20823 0.26219 0.0
H3857 H 0.29475 0.24725 0.29644 0.0
H3858 H 0.23731 0.21327 0.27783 0.0
H3859 H 0.24192 0.22096 0.25176 0.0
H3860 H 0.2503 0.20303 0.26025 0.0
H3861 H 0.27826 0.26368 0.31698 0.0
H3862 H 0.26595 0.27009 0.29542 0.0
H3863 H 0.25783 0.26015 0.31807 0.0
H3864 H 0.22071 0.26534 0.24862 0.0
H3865 H 0.20673 0.24384 0.30802 0.0
H3866 H 0.25442 0.2473 0.2414 0.0
H3867 H 0.261 0.26313 0.25738 0.0
H3868 H 0.24634 0.26612 0.23722 0.0
H3869 H 0.2356 0.22024 0.31578 0.0
H3870 H 0.22487 0.23331 0.33254 0.0
H3871 H 0.24514 0.23626 0.32795 0.0
C3872 C 0.00253 0.96516 0.49139 0.0
C3873 C 0.99199 0.95945 0.50651 0.0
C3874 C 0.00642 0.98075 0.49111 0.0
C3875 C -0.00041 0.9908 0.50632 0.0
C3876 C 0.9893 0.98502 0.52206 0.0
C3877 C 0.9856 0.96938 0.52194 0.0
C3878 C 0.0174 0.98657 0.47404 0.0
C3879 C 0.98188 0.99543 0.53858 0.0
C3880 C 0.01749 0.03025 0.5122 0.0
C3881 C 0.00818 0.03892 0.49832 0.0
C3882 C 0.01463 0.01457 0.51545 0.0
C3883 C 0.0022 0.00753 0.50452 0.0
C3884 C 0.99251 0.01636 0.49102 0.0
C3885 C 0.9956 0.03197 0.48815 0.0
C3886 C 0.02512 0.00545 0.53005 0.0
C3887 C 0.97909 0.00924 0.47919 0.0
H3888 H 0.00741 0.9575 0.47938 0.0
H3889 H 0.97766 0.9649 0.5339 0.0
H3890 H 0.01124 0.99443 0.46287 0.0
H3891 H 0.02681 0.99325 0.48165 0.0
H3892 H 0.02252 0.9771 0.46439 0.0
H3893 H 0.97509 0.98893 0.55074 0.0
H3894 H 0.99074 0.00228 0.54713 0.0
H3895 H 0.97412 0.00366 0.5303 0.0
H3896 H 0.02725 0.03563 0.52002 0.0
H3897 H 0.9882 0.03875 0.47777 0.0
H3898 H 0.03145 0.99678 0.52037 0.0
H3899 H 0.0183 -0.00089 0.54232 0.0
H3900 H 0.03359 0.01286 0.53852 0.0
H3901 H 0.9833 0.00031 0.46782 0.0
H3902 H 0.9724 0.01785 0.46985 0.0
H3903 H 0.97128 0.0035 0.49084 0.0
C3904 C 0.27618 0.73082 0.75967 0.0
C3905 C 0.28602 0.7425 0.75263 0.0
C3906 C 0.26024 0.73298 0.75962 0.0
C3907 C 0.25415 0.74702 0.75191 0.0
C3908 C 0.2641 0.75882 0.7447 0.0
C3909 C 0.27998 0.75646 0.74535 0.0
C3910 C 0.24993 0.72028 0.76778 0.0
C3911 C 0.25797 0.77382 0.73594 0.0
C3912 C 0.2139 0.74754 0.72941 0.0
C3913 C 0.20582 0.75523 0.74581 0.0
C3914 C 0.22961 0.74463 0.73134 0.0
C3915 C 0.23736 0.74918 0.75038 0.0
C3916 C 0.22921 0.75637 0.7674 0.0
C3917 C 0.21351 0.75944 0.76485 0.0
C3918 C 0.23799 0.73705 0.71277 0.0
C3919 C 0.23713 0.76112 0.78807 0.0
H3920 H 0.28098 0.7201 0.76553 0.0
H3921 H 0.2877 0.76542 0.73988 0.0
H3922 H 0.24234 0.7247 0.7808 0.0
H3923 H 0.24241 0.71617 0.75451 0.0
H3924 H 0.25655 0.71036 0.77416 0.0
H3925 H 0.26729 0.78184 0.73114 0.0
H3926 H 0.25062 0.77158 0.7216 0.0
H3927 H 0.25068 0.77953 0.74827 0.0
H3928 H 0.20794 0.74386 0.71491 0.0
H3929 H 0.20734 0.76543 0.77753 0.0
H3930 H 0.24379 0.72643 0.7184 0.0
H3931 H 0.24704 0.74487 0.70654 0.0
H3932 H 0.23019 0.73403 0.6992 0.0
H3933 H 0.24352 0.75126 0.79503 0.0
H3934 H 0.22892 0.76548 0.80039 0.0
H3935 H 0.24564 0.77028 0.78458 0.0
C3936 C 0.50913 0.02891 0.9974 0.0
C3937 C 0.49728 0.03965 0.99508 0.0
C3938 C 0.50602 0.01315 0.9971 0.0
C3939 C 0.49071 0.00808 0.99414 0.0
C3940 C 0.47876 0.01887 0.99117 0.0
C3941 C 0.48218 0.03459 0.99185 0.0
C3942 C 0.51904 0.00193 0.00049 0.0
C3943 C 0.46237 0.01382 0.98758 0.0
C3944 C 0.48714 0.96675 0.97629 0.0
C3945 C 0.48412 0.9594 0.99599 0.0
C3946 C 0.48862 0.98273 0.97527 0.0
C3947 C 0.48729 0.99144 0.99449 0.0
C3948 C 0.48375 0.98409 0.01433 0.0
C3949 C 0.48207 0.96809 0.0148 0.0
C3950 C 0.49213 0.99022 0.95378 0.0
C3951 C 0.48242 0.99305 0.03518 0.0
H3952 H 0.52077 0.03287 0.00017 0.0
H3953 H 0.47306 0.04296 0.98991 0.0
H3954 H 0.51682 0.99491 0.01516 0.0
H3955 H 0.5198 0.99392 0.98657 0.0
H3956 H 0.53029 0.00779 0.00241 0.0
H3957 H 0.45455 0.02368 0.98456 0.0
H3958 H 0.46174 0.00586 0.97358 0.0
H3959 H 0.45817 0.00745 0.00196 0.0
H3960 H 0.48855 0.95993 0.96173 0.0
H3961 H 0.47978 0.96229 0.03001 0.0
H3962 H 0.50389 0.99512 0.95409 0.0
H3963 H 0.48406 -0.00015 0.95074 0.0
H3964 H 0.49136 0.98198 0.94009 0.0
H3965 H 0.49369 -0.00171 0.03918 0.0
H3966 H 0.47876 0.98571 0.04896 0.0
H3967 H 0.47405 0.00256 0.03331 0.0
C3968 C 0.21012 0.75317 0.21968 0.0
C3969 C 0.20276 0.7446 0.23585 0.0
C3970 C 0.22594 0.7559 0.22056 0.0
C3971 C 0.23456 0.74982 0.23795 0.0
C3972 C 0.22724 0.74104 0.25422 0.0
C3973 C 0.21138 0.73855 0.253 0.0
C3974 C 0.23342 0.76533 0.20294 0.0
C3975 C 0.23614 0.73436 0.27298 0.0
C3976 C 0.27745 0.74522 0.23084 0.0
C3977 C 0.28305 0.75789 0.24243 0.0
C3978 C 0.26166 0.74245 0.22924 0.0
C3979 C 0.25126 0.75273 0.2392 0.0
C3980 C 0.2568 0.76571 0.25055 0.0
C3981 C 0.27265 0.76808 0.25214 0.0
C3982 C 0.25611 0.72845 0.2171 0.0
C3983 C 0.24598 0.77696 0.26123 0.0
H3984 H 0.20351 0.75765 0.20623 0.0
H3985 H 0.20567 0.73206 0.26563 0.0
H3986 H 0.23908 0.77555 0.21009 0.0
H3987 H 0.24248 0.75848 0.19478 0.0
H3988 H 0.22505 0.76925 0.19056 0.0
H3989 H 0.22873 0.72756 0.28406 0.0
H3990 H 0.24546 0.72684 0.26686 0.0
H3991 H 0.24163 0.74373 0.28238 0.0
H3992 H 0.28543 0.73744 0.22302 0.0
H3993 H 0.27691 0.77776 0.26141 0.0
H3994 H 0.24838 0.73195 0.20371 0.0
H3995 H 0.24935 0.72096 0.22809 0.0
H3996 H 0.26572 0.72162 0.21023 0.0
H3997 H 0.23775 0.78156 0.24915 0.0
H3998 H 0.25215 0.78674 0.26882 0.0
H3999 H 0.23916 0.77102 0.27388 0.0
C4000 C 0.50234 0.96791 0.46249 0.0
C4001 C 0.49638 0.95911 0.47955 0.0
C4002 C 0.49945 0.98371 0.46123 0.0
C4003 C 0.49043 0.99078 0.47745 0.0
C4004 C 0.4839 0.98184 0.49422 0.0
C4005 C 0.48697 0.96608 0.49507 0.0
C4006 C 0.50651 0.99291 0.44306 0.0
C4007 C 0.47424 0.98904 0.51183 0.0
C4008 C 0.4976 0.03194 0.49342 0.0
C4009 C 0.48476 0.03932 0.48461 0.0
C4010 C 0.4999 0.01621 0.49039 0.0
C4011 C 0.48906 0.0077 0.47827 0.0
C4012 C 0.47643 0.01521 0.46848 0.0
C4013 C 0.47444 0.03103 0.47175 0.0
C4014 C 0.5136 0.0086 0.5009 0.0
C4015 C 0.46471 0.00645 0.45541 0.0
H4016 H 0.50938 0.96245 0.45023 0.0
H4017 H 0.48243 0.95931 0.50833 0.0
H4018 H 0.4977 0.00023 0.43519 0.0
H4019 H 0.51545 0.00069 0.44968 0.0
H4020 H 0.51188 0.98546 0.43058 0.0
H4021 H 0.46901 0.9803 0.52268 0.0
H4022 H 0.48147 0.99682 0.52175 0.0
H4023 H 0.46493 0.99608 0.50464 0.0
H4024 H 0.50573 0.03847 0.50303 0.0
H4025 H 0.46451 0.0368 0.46496 0.0
H4026 H 0.52017 0.0019 0.48876 0.0
H4027 H 0.50962 0.00043 0.5135 0.0
H4028 H 0.52145 0.01705 0.50858 0.0
H4029 H 0.47047 -0.0009 0.44319 0.0
H4030 H 0.45653 0.01421 0.447 0.0
H4031 H 0.45809 -0.00126 0.46625 0.0
C4032 C 0.2162 0.23112 0.73517 0.0
C4033 C 0.20656 0.23874 0.74983 0.0
C4034 C 0.23207 0.23379 0.73522 0.0
C4035 C 0.23834 0.24433 0.75025 0.0
C4036 C 0.22868 0.25196 0.76518 0.0
C4037 C 0.2129 0.24901 0.76485 0.0
C4038 C 0.24211 0.22543 0.71914 0.0
C4039 C 0.235 0.26329 0.78142 0.0
C4040 C 0.28065 0.243 0.76408 0.0
C4041 C 0.28642 0.25502 0.75134 0.0
C4042 C 0.26503 0.23917 0.76357 0.0
C4043 C 0.25499 0.24768 0.75016 0.0
C4044 C 0.26074 0.25977 0.73719 0.0
C4045 C 0.27642 0.26324 0.73785 0.0
C4046 C 0.25925 0.22615 0.77752 0.0
C4047 C 0.25031 0.26912 0.72277 0.0
H4048 H 0.2113 0.22324 0.72349 0.0
H4049 H 0.20551 0.25466 0.77652 0.0
H4050 H 0.24792 0.23384 0.7084 0.0
H4051 H 0.25123 0.21897 0.72776 0.0
H4052 H 0.23548 0.21728 0.70895 0.0
H4053 H 0.2259 0.26818 0.79199 0.0
H4054 H 0.24372 0.25762 0.79179 0.0
H4055 H 0.24082 0.27286 0.77285 0.0
H4056 H 0.28833 0.23669 0.77465 0.0
H4057 H 0.28088 0.27231 0.72761 0.0
H4058 H 0.25315 0.21757 0.7674 0.0
H4059 H 0.25088 0.23059 0.78952 0.0
H4060 H 0.26868 0.22026 0.78633 0.0
H4061 H 0.24427 0.26149 0.71118 0.0
H4062 H 0.25666 0.27801 0.71348 0.0
H4063 H 0.24139 0.2749 0.73269 0.0
C4064 C 0.001 0.03243 0.02474 0.0
C4065 C 0.98831 0.03975 0.01544 0.0
C4066 C 0.00243 0.01643 0.02395 0.0
C4067 C 0.99101 0.0077 0.01324 0.0
C4068 C 0.97776 0.01499 0.00488 0.0
C4069 C 0.97653 0.031 0.00622 0.0
C4070 C 0.01655 0.00897 0.03347 0.0
C4071 C 0.96544 0.00605 0.9932 0.0
C4072 C 0.00501 0.97129 0.98637 0.0
C4073 C -0.00035 0.9601 0.00071 0.0
C4074 C 0.00199 0.98686 0.99009 0.0
C4075 C 0.99371 0.99123 0.00885 0.0
C4076 C 0.98828 0.97993 0.0234 0.0
C4077 C 0.99122 0.96443 0.01904 0.0
C4078 C 0.00774 -0.00138 0.97405 0.0
C4079 C 0.97968 0.98423 0.04374 0.0
H4080 H 0.01004 0.03928 0.032 0.0
H4081 H 0.96678 0.03674 -0.00113 0.0
H4082 H 0.01331 -0.0011 0.04351 0.0
H4083 H 0.02404 0.00473 0.02023 0.0
H4084 H 0.02329 0.01708 0.04359 0.0
H4085 H 0.95517 0.0132 0.98967 0.0
H4086 H 0.97009 0.00165 0.97767 0.0
H4087 H 0.96181 0.99596 0.0029 0.0
H4088 H 0.01151 0.96782 0.97221 0.0
H4089 H 0.98728 0.95568 0.03024 0.0
H4090 H 0.01606 0.00643 0.98204 0.0
H4091 H -0.00195 0.00577 0.96819 0.0
H4092 H 0.01345 0.99324 0.95987 0.0
H4093 H 0.98706 0.99154 0.05415 0.0
H4094 H 0.97606 0.974 0.0532 0.0
H4095 H 0.96934 0.99107 0.03963 0.0
C4096 C 0.78211 0.7449 0.73018 0.0
C4097 C 0.78995 0.73674 0.74635 0.0
C4098 C 0.76636 0.74772 0.73182 0.0
C4099 C 0.75831 0.74254 0.7503 0.0
C4100 C 0.76617 0.73463 0.76695 0.0
C4101 C 0.78192 0.73172 0.7647 0.0
C4102 C 0.75829 0.75608 0.71365 0.0
C4103 C 0.75792 0.72914 0.787 0.0
C4104 C 0.71995 0.76148 0.76102 0.0
C4105 C 0.70981 0.75036 0.75306 0.0
C4106 C 0.73583 0.75893 0.7607 0.0
C4107 C 0.74157 0.74508 0.75183 0.0
C4108 C 0.73134 0.73387 0.74366 0.0
C4109 C 0.71552 0.73659 0.74457 0.0
C4110 C 0.74645 0.77101 0.76985 0.0
C4111 C 0.7371 0.71911 0.73368 0.0
H4112 H 0.78831 0.74917 0.71622 0.0
H4113 H 0.78789 0.72532 0.77717 0.0
H4114 H 0.74903 0.74874 0.70691 0.0
H4115 H 0.7528 0.76669 0.7199 0.0
H4116 H 0.76625 0.75927 0.70033 0.0
H4117 H 0.76586 0.72385 0.79894 0.0
H4118 H 0.75188 0.73888 0.79487 0.0
H4119 H 0.74907 0.72053 0.78252 0.0
H4120 H 0.71542 0.77204 0.76778 0.0
H4121 H 0.70758 0.72807 0.73834 0.0
H4122 H 0.75414 0.77541 0.75695 0.0
H4123 H 0.75385 0.7659 0.78256 0.0
H4124 H 0.74008 0.78087 0.77693 0.0
H4125 H 0.74453 0.72175 0.71957 0.0
H4126 H 0.72758 0.71155 0.72821 0.0
H4127 H 0.74421 0.71271 0.74552 0.0
C4128 C 0.7131 0.26556 0.25284 0.0
C4129 C 0.70299 0.25463 0.24433 0.0
C4130 C 0.72874 0.26218 0.25517 0.0
C4131 C 0.73421 0.24748 0.24909 0.0
C4132 C 0.72393 0.23627 0.24107 0.0
C4133 C 0.70841 0.24002 0.23868 0.0
C4134 C 0.73946 0.27443 0.26362 0.0
C4135 C 0.72936 0.22041 0.23474 0.0
C4136 C 0.77605 0.24348 0.23378 0.0
C4137 C 0.78232 0.23765 0.25295 0.0
C4138 C 0.76035 0.24676 0.23233 0.0
C4139 C 0.75078 0.24397 0.25042 0.0
C4140 C 0.75702 0.23783 0.2697 0.0
C4141 C 0.77279 0.23481 0.27077 0.0
C4142 C 0.75405 0.25342 0.21157 0.0
C4143 C 0.74706 0.23453 0.28917 0.0
H4144 H 0.70884 0.27686 0.2571 0.0
H4145 H 0.70048 0.23153 0.23238 0.0
H4146 H 0.74575 0.27013 0.278 0.0
H4147 H 0.74815 0.27726 0.2511 0.0
H4148 H 0.73329 0.28512 0.26815 0.0
H4149 H 0.71973 0.21282 0.22975 0.0
H4150 H 0.73762 0.22125 0.22113 0.0
H4151 H 0.73547 0.21495 0.24848 0.0
H4152 H 0.7835 0.24584 0.22012 0.0
H4153 H 0.77768 0.23018 0.28552 0.0
H4154 H 0.74871 0.26476 0.21483 0.0
H4155 H 0.74495 0.24582 0.205 0.0
H4156 H 0.76307 0.2549 0.19903 0.0
H4157 H 0.74158 0.24529 0.2949 0.0
H4158 H 0.75369 0.22945 0.30276 0.0
H4159 H 0.73771 0.22649 0.28467 0.0
C4160 C 0.72056 0.24093 0.76164 0.0
C4161 C 0.71517 0.23451 0.74233 0.0
C4162 C 0.73605 0.24485 0.76399 0.0
C4163 C 0.74631 0.24211 0.74665 0.0
C4164 C 0.74102 0.23513 0.72738 0.0
C4165 C 0.72543 0.23147 0.7254 0.0
C4166 C 0.74133 0.25234 0.78475 0.0
C4167 C 0.75174 0.23184 0.70874 0.0
C4168 C 0.7821 0.2667 0.74559 0.0
C4169 C 0.79269 0.25693 0.75558 0.0
C4170 C 0.76695 0.26188 0.74213 0.0
C4171 C 0.76251 0.24692 0.74861 0.0
C4172 C 0.77335 0.23683 0.75795 0.0
C4173 C 0.78834 0.242 0.76142 0.0
C4174 C 0.7556 0.27293 0.7322 0.0
C4175 C 0.76904 0.22072 0.76474 0.0
H4176 H 0.71255 0.24343 0.77461 0.0
H4177 H 0.72121 0.22638 0.71053 0.0
H4178 H 0.75088 0.24565 0.79199 0.0
H4179 H 0.74578 0.26402 0.78127 0.0
H4180 H 0.73194 0.25329 0.79686 0.0
H4181 H 0.74595 0.22554 0.6954 0.0
H4182 H 0.75635 0.24278 0.70221 0.0
H4183 H 0.76168 0.22494 0.71438 0.0
H4184 H 0.78556 0.27823 0.7411 0.0
H4185 H 0.7967 0.2344 0.7688 0.0
H4186 H 0.74634 0.27549 0.74401 0.0
H4187 H 0.75011 0.26767 0.7178 0.0
H4188 H 0.76107 0.28392 0.72727 0.0
H4189 H 0.76048 0.2212 0.77802 0.0
H4190 H 0.77912 0.21401 0.7704 0.0
H4191 H 0.76363 0.21452 0.75104 0.0
C4192 C 0.77647 0.76548 0.23108 0.0
C4193 C 0.78681 0.75959 0.24633 0.0
C4194 C 0.7607 0.76263 0.23293 0.0
C4195 C 0.75527 0.75364 0.25039 0.0
C4196 C 0.7656 0.74814 0.26626 0.0
C4197 C 0.78129 0.75121 0.26405 0.0
C4198 C 0.74994 0.76882 0.21587 0.0
C4199 C 0.76015 0.73852 0.28511 0.0
C4200 C 0.71318 0.75445 0.2652 0.0
C4201 C 0.7079 0.74085 0.2556 0.0
C4202 C 0.72856 0.75889 0.26338 0.0
C4203 C 0.73884 0.74947 0.25167 0.0
C4204 C 0.73353 0.73585 0.24162 0.0
C4205 C 0.71805 0.7317 0.24367 0.0
C4206 C 0.73384 0.77355 0.27415 0.0
C4207 C 0.74425 0.72554 0.22903 0.0
H4208 H 0.78077 0.77209 0.21749 0.0
H4209 H 0.78932 0.74649 0.2757 0.0
H4210 H 0.74466 0.75914 0.20686 0.0
H4211 H 0.74047 0.77537 0.22355 0.0
H4212 H 0.7559 0.77643 0.20412 0.0
H4213 H 0.76957 0.7358 0.29661 0.0
H4214 H 0.75091 0.74459 0.29402 0.0
H4215 H 0.75524 0.72757 0.27905 0.0
H4216 H 0.70524 0.76168 0.27409 0.0
H4217 H 0.71396 0.72116 0.23634 0.0
H4218 H 0.73923 0.78127 0.26206 0.0
H4219 H 0.74269 0.7709 0.28651 0.0
H4220 H 0.72425 0.77979 0.28213 0.0
H4221 H 0.74988 0.73214 0.21588 0.0
H4222 H 0.73821 0.71555 0.2218 0.0
H4223 H 0.75346 0.72122 0.23984 0.0
C4224 C 0.48504 0.46819 0.9842 0.0
C4225 C 0.47676 0.46211 0.00164 0.0
C4226 C 0.48776 0.484 0.98267 0.0
C4227 C 0.48203 0.49387 -0.00101 0.0
C4228 C 0.47295 0.48789 0.016 0.0
C4229 C 0.47043 0.47203 0.01713 0.0
C4230 C 0.49744 0.49002 0.96424 0.0
C4231 C 0.46654 0.49814 0.03352 0.0
C4232 C 0.50506 0.53015 0.00763 0.0
C4233 C 0.49653 0.54079 0.99567 0.0
C4234 C 0.5002 0.51487 0.00937 0.0
C4235 C 0.48647 0.51025 -0.00104 0.0
C4236 C 0.47751 0.52109 0.98757 0.0
C4237 C 0.48267 0.53627 0.98604 0.0
C4238 C 0.51002 0.50356 0.02169 0.0
C4239 C 0.46274 0.51656 0.97645 0.0
H4240 H 0.49007 0.46052 0.97233 0.0
H4241 H 0.46386 0.46732 0.03048 0.0
H4242 H 0.49151 0.49966 0.95602 0.0
H4243 H 0.50845 0.49455 0.97068 0.0
H4244 H 0.50005 0.48099 0.95207 0.0
H4245 H 0.45847 0.49191 0.04435 0.0
H4246 H 0.47608 0.50276 0.04347 0.0
H4247 H 0.46046 0.5081 0.0263 0.0
H4248 H 0.51582 0.53365 0.01498 0.0
H4249 H 0.47593 0.54461 0.97711 0.0
H4250 H 0.51448 0.49467 0.01044 0.0
H4251 H 0.50305 0.49757 0.03413 0.0
H4252 H 0.51993 0.50918 0.02979 0.0
H4253 H 0.46527 0.50842 0.96309 0.0
H4254 H 0.45657 0.52662 0.96963 0.0
H4255 H 0.45502 0.51056 0.98796 0.0
C4256 C 0.98018 0.46341 0.47234 0.0
C4257 C 0.9768 0.4559 0.49176 0.0
C4258 C 0.98207 0.47936 0.47183 0.0
C4259 C 0.98088 0.48778 0.49134 0.0
C4260 C 0.97662 0.48028 0.51078 0.0
C4261 C 0.97451 0.46433 0.51072 0.0
C4262 C 0.9863 0.48702 0.45073 0.0
C4263 C 0.97542 0.4889 0.53192 0.0
C4264 C 0.00663 0.52247 0.49669 0.0
C4265 C 0.99611 0.5345 0.49459 0.0
C4266 C 0.00177 0.50718 0.49559 0.0
C4267 C 0.98604 0.50395 0.49197 0.0
C4268 C 0.97541 0.51608 0.48929 0.0
C4269 C 0.98057 0.53128 0.49085 0.0
C4270 C 0.01342 0.49451 0.49876 0.0
C4271 C 0.95863 0.51298 0.48496 0.0
H4272 H 0.98188 0.45671 0.45772 0.0
H4273 H 0.97196 0.45834 0.52568 0.0
H4274 H 0.97943 0.49762 0.44833 0.0
H4275 H -0.00143 0.49043 0.45113 0.0
H4276 H 0.9845 0.4793 0.43664 0.0
H4277 H 0.97041 0.48171 0.545 0.0
H4278 H 0.98703 0.49269 0.53705 0.0
H4279 H 0.96827 0.49935 0.52996 0.0
H4280 H 0.01862 0.52503 0.49983 0.0
H4281 H 0.97249 0.54068 0.48911 0.0
H4282 H 0.01368 0.48695 0.48432 0.0
H4283 H 0.01009 0.48729 0.5128 0.0
H4284 H 0.02518 0.49903 0.50158 0.0
H4285 H 0.95738 0.50555 0.47047 0.0
H4286 H 0.952 0.52372 0.48231 0.0
H4287 H 0.95351 0.5067 0.49881 0.0
C4288 C 0.0095 0.47705 0.99032 0.0
C4289 C 0.00532 0.46654 0.97422 0.0
C4290 C 0.00567 0.49261 0.98837 0.0
C4291 C 0.99744 0.49766 0.96994 0.0
C4292 C 0.99413 0.4873 0.95297 0.0
C4293 C -0.00185 0.47182 0.95531 0.0
C4294 C 0.00957 0.50342 0.00669 0.0
C4295 C 0.9855 0.49234 0.933 0.0
C4296 C 0.97159 0.53102 0.9833 0.0
C4297 C 0.98062 0.54344 0.97664 0.0
C4298 C 0.97651 0.51593 0.97985 0.0
C4299 C 0.99087 0.51331 0.96974 0.0
C4300 C -0.00048 0.5258 0.96165 0.0
C4301 C 0.99424 0.5408 0.96516 0.0
C4302 C 0.96684 0.50285 0.98836 0.0
C4303 C 0.01488 0.52343 0.95081 0.0
H4304 H 0.015 0.473 0.00498 0.0
H4305 H 0.99521 0.46373 0.94262 0.0
H4306 H 0.0151 0.51398 0.00035 0.0
H4307 H -0.00114 0.50695 0.01508 0.0
H4308 H 0.01736 0.49805 0.01875 0.0
H4309 H 0.98578 0.48348 0.92007 0.0
H4310 H 0.97333 0.49459 0.9373 0.0
H4311 H 0.99034 0.50319 0.92651 0.0
H4312 H 0.96101 0.53316 0.99207 0.0
H4313 H 0.00128 0.55046 0.96021 0.0
H4314 H 0.97275 0.4974 0.0023 0.0
H4315 H 0.96536 0.49391 0.97574 0.0
H4316 H 0.95531 0.50675 0.99377 0.0
H4317 H 0.02355 0.52031 0.9632 0.0
H4318 H 0.01887 0.53395 0.94232 0.0
H4319 H 0.01433 0.51385 0.93899 0.0
C4320 C 0.49045 0.4619 0.51227 0.0
C4321 C 0.50422 0.45623 0.50365 0.0
C4322 C 0.48649 0.47738 0.51007 0.0
C4323 C 0.49657 0.48738 0.49898 0.0
C4324 C 0.51032 0.48166 0.48977 0.0
C4325 C 0.51398 0.46607 0.49218 0.0
C4326 C 0.47167 0.48309 0.51994 0.0
C4327 C 0.52132 0.49206 0.47784 0.0
C4328 C 0.48176 0.5256 0.4787 0.0
C4329 C 0.48728 0.53562 0.49466 0.0
C4330 C 0.48452 0.50978 0.48002 0.0
C4331 C 0.49299 0.50395 0.49773 0.0
C4332 C 0.49823 0.51395 0.51419 0.0
C4333 C 0.4953 0.52971 0.51245 0.0
C4334 C 0.47866 0.49938 0.4623 0.0
C4335 C 0.50727 0.50807 0.53333 0.0
H4336 H 0.48276 0.45419 0.52079 0.0
H4337 H 0.52464 0.46166 0.48558 0.0
H4338 H 0.47421 0.49171 0.53267 0.0
H4339 H 0.46458 0.48888 0.50746 0.0
H4340 H 0.46482 0.47366 0.52726 0.0
H4341 H 0.53123 0.48568 0.47095 0.0
H4342 H 0.51527 0.49807 0.46451 0.0
H4343 H 0.52575 0.50101 0.48902 0.0
H4344 H 0.47542 0.53017 0.46504 0.0
H4345 H 0.49975 0.53747 0.52465 0.0
H4346 H 0.47145 0.49011 0.4693 0.0
H4347 H 0.48848 0.49377 0.45401 0.0
H4348 H 0.47179 0.50569 0.45005 0.0
H4349 H 0.50066 0.49903 0.5419 0.0
H4350 H 0.51011 0.51733 0.54504 0.0
H4351 H 0.51813 0.50276 0.52765 0.0
C4352 C 0.04713 0.32554 0.08175 0.0
C4353 C 0.05388 0.33888 0.07338 0.0
C4354 C 0.05443 0.31708 0.09807 0.0
C4355 C 0.06865 0.3223 0.10637 0.0
C4356 C 0.07565 0.33561 0.09762 0.0
C4357 C 0.06821 0.34369 0.08105 0.0
C4358 C 0.04678 0.30277 0.10673 0.0
C4359 C 0.0907 0.34162 0.1063 0.0
C4360 C 0.07888 0.31198 0.16406 0.0
C4361 C 0.09015 0.30067 0.16104 0.0
C4362 C 0.07172 0.31901 0.14638 0.0
C4363 C 0.07574 0.31444 0.12515 0.0
C4364 C 0.08676 0.30273 0.12194 0.0
C4365 C 0.09392 0.29603 0.13995 0.0
C4366 C 0.06001 0.3315 0.15041 0.0
C4367 C 0.09116 0.29744 0.09951 0.0
H4368 H 0.03612 0.32175 0.07554 0.0
H4369 H 0.07335 0.35406 0.07457 0.0
H4370 H 0.05493 0.29297 0.10641 0.0
H4371 H 0.04339 0.30459 0.12385 0.0
H4372 H 0.03638 0.2996 0.09732 0.0
H4373 H 0.09492 0.35173 0.09708 0.0
H4374 H 0.0893 0.34498 0.12351 0.0
H4375 H 0.09959 0.3325 0.10571 0.0
H4376 H 0.07564 0.31537 0.18032 0.0
H4377 H 0.10271 0.28738 0.13749 0.0
H4378 H 0.04886 0.32833 0.14298 0.0
H4379 H 0.06385 0.34236 0.1427 0.0
H4380 H 0.05815 0.33366 0.16794 0.0
H4381 H 0.08075 0.29404 0.09032 0.0
H4382 H 0.09924 0.28757 0.09984 0.0
H4383 H 0.09664 0.30703 0.09054 0.0
C4384 C 0.92777 0.79089 0.33143 0.0
C4385 C 0.91591 0.79797 0.31983 0.0
C4386 C 0.9347 0.79832 0.34903 0.0
C4387 C 0.92943 0.81306 0.35526 0.0
C4388 C 0.91771 0.8204 0.34325 0.0
C4389 C 0.91113 0.81278 0.32557 0.0
C4390 C 0.94734 0.79025 0.36129 0.0
C4391 C 0.91169 0.83604 0.34959 0.0
C4392 C 0.93384 0.82441 0.41405 0.0
C4393 C 0.94613 0.83475 0.41305 0.0
C4394 C 0.92833 0.81724 0.39532 0.0
C4395 C 0.93544 0.82036 0.3752 0.0
C4396 C 0.94802 0.83064 0.37413 0.0
C4397 C 0.95315 0.83783 0.39311 0.0
C4398 C 0.91476 0.80649 0.39703 0.0
C4399 C 0.956 0.83405 0.35298 0.0
H4400 H 0.93157 0.77949 0.3268 0.0
H4401 H 0.90186 0.81819 0.31668 0.0
H4402 H 0.9575 0.79788 0.3628 0.0
H4403 H 0.94337 0.78753 0.37791 0.0
H4404 H 0.95094 0.7794 0.3533 0.0
H4405 H 0.9031 0.8405 0.33788 0.0
H4406 H 0.90624 0.83539 0.3658 0.0
H4407 H 0.92127 0.8444 0.35074 0.0
H4408 H 0.92832 0.82217 0.42947 0.0
H4409 H 0.96276 0.84574 0.39243 0.0
H4410 H 0.91793 0.79495 0.39088 0.0
H4411 H 0.90519 0.81078 0.38683 0.0
H4412 H 0.91056 0.80529 0.41393 0.0
H4413 H 0.96015 0.82322 0.34553 0.0
H4414 H 0.96591 0.84195 0.35505 0.0
H4415 H 0.94778 0.83933 0.34145 0.0
C4416 C 0.40676 0.69525 0.64855 0.0
C4417 C 0.4148 0.69934 0.66733 0.0
C4418 C 0.41435 0.68849 0.63096 0.0
C4419 C 0.43036 0.68582 0.6322 0.0
C4420 C 0.43858 0.69015 0.65098 0.0
C4421 C 0.43069 0.69683 0.66836 0.0
C4422 C 0.40519 0.68394 0.61121 0.0
C4423 C 0.45569 0.68758 0.65278 0.0
C4424 C 0.44711 0.65477 0.59629 0.0
C4425 C 0.45317 0.66343 0.57917 0.0
C4426 C 0.43972 0.66194 0.61372 0.0
C4427 C 0.43842 0.67814 0.61403 0.0
C4428 C 0.44464 0.68696 0.5969 0.0
C4429 C 0.45192 0.67949 0.57963 0.0
C4430 C 0.43315 0.65216 0.63167 0.0
C4431 C 0.44354 0.70428 0.5968 0.0
H4432 H 0.39445 0.69702 0.64781 0.0
H4433 H 0.43696 0.70017 0.68277 0.0
H4434 H 0.41003 0.68953 0.59658 0.0
H4435 H 0.40597 0.67134 0.60872 0.0
H4436 H 0.39289 0.68716 0.61262 0.0
H4437 H 0.46044 0.69202 0.66825 0.0
H4438 H 0.45826 0.67513 0.65164 0.0
H4439 H 0.4617 0.69332 0.63916 0.0
H4440 H 0.44789 0.64235 0.59584 0.0
H4441 H 0.45675 0.68621 0.56652 0.0
H4442 H 0.42057 0.65404 0.63286 0.0
H4443 H 0.43823 0.65557 0.64741 0.0
H4444 H 0.43529 0.63972 0.62909 0.0
H4445 H 0.43131 0.70784 0.59698 0.0
H4446 H 0.44918 0.70945 0.58241 0.0
H4447 H 0.44896 0.70903 0.6116 0.0
C4448 C 0.57265 0.1971 0.82955 0.0
C4449 C 0.58872 0.19801 0.82924 0.0
C4450 C 0.5649 0.19117 0.84759 0.0
C4451 C 0.57347 0.18591 0.86557 0.0
C4452 C 0.58969 0.18703 0.86547 0.0
C4453 C 0.59713 0.19315 0.84731 0.0
C4454 C 0.54758 0.19031 0.84727 0.0
C4455 C 0.5992 0.1814 0.88431 0.0
C4456 C 0.55398 0.18029 0.91984 0.0
C4457 C 0.55128 0.16442 0.91972 0.0
C4458 C 0.561 0.18752 0.90215 0.0
C4459 C 0.56554 0.1786 0.88411 0.0
C4460 C 0.56278 0.16258 0.88388 0.0
C4461 C 0.55561 0.15568 0.90169 0.0
C4462 C 0.56362 0.20466 0.90279 0.0
C4463 C 0.5676 0.15269 0.86497 0.0
H4464 H 0.56615 0.20105 0.81566 0.0
H4465 H 0.60956 0.19375 0.84697 0.0
H4466 H 0.54386 0.17814 0.84798 0.0
H4467 H 0.54277 0.19617 0.86171 0.0
H4468 H 0.54261 0.19565 0.83251 0.0
H4469 H 0.61166 0.18357 0.88196 0.0
H4470 H 0.59547 0.18712 0.89946 0.0
H4471 H 0.59742 0.16887 0.88651 0.0
H4472 H 0.55048 0.18705 0.93373 0.0
H4473 H 0.55367 0.14338 0.90171 0.0
H4474 H 0.55808 0.21018 0.88861 0.0
H4475 H 0.57609 0.20716 0.90177 0.0
H4476 H 0.559 0.20999 0.91778 0.0
H4477 H 0.56211 0.15688 0.84989 0.0
H4478 H 0.56448 0.14042 0.86729 0.0
H4479 H 0.58021 0.15349 0.86265 0.0
C4480 C 0.06656 0.65917 0.40809 0.0
C4481 C 0.05102 0.65667 0.41282 0.0
C4482 C 0.07095 0.66747 0.38969 0.0
C4483 C 0.05952 0.67333 0.37566 0.0
C4484 C 0.04381 0.67082 0.38029 0.0
C4485 C 0.03974 0.66255 0.39888 0.0
C4486 C 0.08783 0.66997 0.38524 0.0
C4487 C 0.03133 0.6769 0.36565 0.0
C4488 C 0.07152 0.70616 0.3392 0.0
C4489 C 0.075 0.69839 0.31993 0.0
C4490 C 0.06612 0.69818 0.35736 0.0
C4491 C 0.06407 0.68208 0.35613 0.0
C4492 C 0.06702 0.67425 0.3365 0.0
C4493 C 0.07251 0.6825 0.31864 0.0
C4494 C 0.06305 0.7069 0.37805 0.0
C4495 C 0.06486 0.65709 0.33459 0.0
H4496 H 0.07531 0.65449 0.41868 0.0
H4497 H 0.02771 0.66085 0.40265 0.0
H4498 H 0.09093 0.66491 0.36935 0.0
H4499 H 0.09033 0.68245 0.38435 0.0
H4500 H 0.09526 0.66477 0.39788 0.0
H4501 H 0.01966 0.6738 0.37146 0.0
H4502 H 0.03213 0.68959 0.36454 0.0
H4503 H 0.03285 0.67229 0.34905 0.0
H4504 H 0.07319 0.71848 0.34016 0.0
H4505 H 0.07536 0.67641 0.30388 0.0
H4506 H 0.07101 0.70291 0.39088 0.0
H4507 H 0.05119 0.70462 0.3838 0.0
H4508 H 0.06452 0.7195 0.37601 0.0
H4509 H 0.07306 0.65111 0.34544 0.0
H4510 H 0.0667 0.65291 0.3178 0.0
H4511 H 0.05311 0.65382 0.33981 0.0
C4512 C 0.56819 0.80236 0.66787 0.0
C4513 C 0.58408 0.7998 0.66717 0.0
C4514 C 0.56061 0.80961 0.65067 0.0
C4515 C 0.56917 0.81445 0.63243 0.0
C4516 C 0.58521 0.81189 0.63162 0.0
C4517 C 0.59247 0.80455 0.64901 0.0
C4518 C 0.54347 0.81207 0.65198 0.0
C4519 C 0.5947 0.81697 0.61245 0.0
C4520 C 0.54879 0.82102 0.57909 0.0
C4521 C 0.54739 0.83706 0.57881 0.0
C4522 C 0.55569 0.81348 0.59659 0.0
C4523 C 0.56137 0.82223 0.61415 0.0
C4524 C 0.55985 0.83841 0.61408 0.0
C4525 C 0.55284 0.84565 0.59639 0.0
C4526 C 0.55702 0.79618 0.59622 0.0
C4527 C 0.56584 0.8481 0.63251 0.0
H4528 H 0.56166 0.79852 0.6818 0.0
H4529 H 0.60479 0.80275 0.64856 0.0
H4530 H 0.54081 0.8245 0.65083 0.0
H4531 H 0.53772 0.80632 0.63815 0.0
H4532 H 0.5385 0.80754 0.66727 0.0
H4533 H 0.60705 0.81408 0.61435 0.0
H4534 H 0.59038 0.81144 0.59747 0.0
H4535 H 0.59362 0.82957 0.61023 0.0
H4536 H 0.5444 0.81435 0.56563 0.0
H4537 H 0.55191 0.85807 0.5961 0.0
H4538 H 0.5514 0.79122 0.61074 0.0
H4539 H 0.56929 0.79278 0.59674 0.0
H4540 H 0.5517 0.79107 0.58156 0.0
H4541 H 0.56052 0.84439 0.64797 0.0
H4542 H 0.56348 0.86053 0.63015 0.0
H4543 H 0.57843 0.84647 0.63415 0.0
C4544 C 0.42712 0.30383 0.83251 0.0
C4545 C 0.417 0.29142 0.83464 0.0
C4546 C 0.43398 0.31049 0.85075 0.0
C4547 C 0.43073 0.30445 0.87152 0.0
C4548 C 0.42104 0.29148 0.87367 0.0
C4549 C 0.41419 0.28517 0.85517 0.0
C4550 C 0.44413 0.3244 0.84786 0.0
C4551 C 0.41752 0.28459 0.89554 0.0
C4552 C 0.45709 0.31699 0.91702 0.0
C4553 C 0.4485 0.32883 0.92647 0.0
C4554 C 0.45128 0.30861 0.89946 0.0
C4555 C 0.43664 0.31237 0.89104 0.0
C4556 C 0.42783 0.32418 0.90075 0.0
C4557 C 0.43385 0.33222 0.91846 0.0
C4558 C 0.46087 0.29592 0.8897 0.0
C4559 C 0.41223 0.32861 0.89207 0.0
H4560 H 0.42916 0.30875 0.81665 0.0
H4561 H 0.40645 0.27547 0.85675 0.0
H4562 H 0.43872 0.33451 0.85572 0.0
H4563 H 0.45538 0.32253 0.85584 0.0
H4564 H 0.44616 0.32716 0.83054 0.0
H4565 H 0.41092 0.27371 0.89423 0.0
H4566 H 0.42832 0.2823 0.90451 0.0
H4567 H 0.41073 0.29286 0.90529 0.0
H4568 H 0.46837 0.31428 0.92341 0.0
H4569 H 0.42727 0.34148 0.92567 0.0
H4570 H 0.46397 0.29892 0.87281 0.0
H4571 H 0.45416 0.28509 0.8891 0.0
H4572 H 0.4716 0.29384 0.89897 0.0
H4573 H 0.41336 0.33268 0.87513 0.0
H4574 H 0.40672 0.33781 0.90182 0.0
H4575 H 0.40453 0.31846 0.89188 0.0
C4576 C 0.89816 0.19811 0.13829 0.0
C4577 C 0.9066 0.20475 0.15515 0.0
C4578 C 0.90554 0.19282 0.11954 0.0
C4579 C 0.92166 0.19445 0.11762 0.0
C4580 C 0.9301 0.20186 0.13418 0.0
C4581 C 0.92246 0.20682 0.15286 0.0
C4582 C 0.8962 0.1848 0.10233 0.0
C4583 C 0.94727 0.20399 0.13255 0.0
C4584 C 0.94395 0.16517 0.08519 0.0
C4585 C 0.94677 0.17315 0.06593 0.0
C4586 C 0.9355 0.1719 0.10194 0.0
C4587 C 0.92992 0.18706 0.09943 0.0
C4588 C 0.93263 0.19516 0.07992 0.0
C4589 C 0.94095 0.18803 0.06325 0.0
C4590 C 0.93264 0.1628 0.12238 0.0
C4591 C 0.92701 0.21142 0.07687 0.0
H4592 H 0.88589 0.19648 0.14016 0.0
H4593 H 0.92892 0.21216 0.16584 0.0
H4594 H 0.89873 0.18972 0.08615 0.0
H4595 H 0.89939 0.17246 0.1018 0.0
H4596 H 0.88366 0.18568 0.10538 0.0
H4597 H 0.95186 0.21135 0.14575 0.0
H4598 H 0.95304 0.19264 0.13338 0.0
H4599 H 0.95034 0.20924 0.11677 0.0
H4600 H 0.94827 0.15356 0.08706 0.0
H4601 H 0.94319 0.19417 0.04831 0.0
H4602 H 0.92014 0.16219 0.12575 0.0
H4603 H 0.93812 0.16864 0.13634 0.0
H4604 H 0.93723 0.15092 0.12134 0.0
H4605 H 0.91441 0.21198 0.07934 0.0
H4606 H 0.92974 0.21597 0.06051 0.0
H4607 H 0.93237 0.21902 0.08915 0.0
C4608 C 0.96112 0.67943 0.90976 0.0
C4609 C 0.95172 0.67478 0.92702 0.0
C4610 C 0.95482 0.6861 0.89113 0.0
C4611 C 0.93878 0.68851 0.88996 0.0
C4612 C 0.92931 0.68457 0.90772 0.0
C4613 C 0.93587 0.6776 0.92593 0.0
C4614 C 0.96525 0.69001 0.87238 0.0
C4615 C 0.91217 0.68721 0.90717 0.0
C4616 C 0.92296 0.71521 0.84692 0.0
C4617 C 0.91746 0.70471 0.8315 0.0
C4618 C 0.92994 0.71012 0.86607 0.0
C4619 C 0.93174 0.69418 0.86965 0.0
C4620 C 0.92652 0.68353 0.854 0.0
C4621 C 0.91928 0.68892 0.83524 0.0
C4622 C 0.9352 0.72178 0.88258 0.0
C4623 C 0.92842 0.66643 0.85717 0.0
H4624 H 0.97342 0.6776 0.91063 0.0
H4625 H 0.92844 0.67387 0.93899 0.0
H4626 H 0.96224 0.68276 0.85823 0.0
H4627 H 0.96363 0.70215 0.86747 0.0
H4628 H 0.97756 0.68816 0.87631 0.0
H4629 H 0.90667 0.68492 0.92307 0.0
H4630 H 0.90962 0.69922 0.90235 0.0
H4631 H 0.90686 0.67957 0.89491 0.0
H4632 H 0.92185 0.72743 0.84403 0.0
H4633 H 0.91483 0.6807 0.82368 0.0
H4634 H 0.94767 0.72046 0.88567 0.0
H4635 H 0.92919 0.71978 0.89817 0.0
H4636 H 0.93297 0.73377 0.87731 0.0
H4637 H 0.94066 0.66363 0.86019 0.0
H4638 H 0.92442 0.65973 0.84294 0.0
H4639 H 0.92182 0.66265 0.87158 0.0
C4640 C 0.0715 0.18578 0.66702 0.0
C4641 C 0.0779 0.20055 0.66751 0.0
C4642 C 0.06516 0.17984 0.64796 0.0
C4643 C 0.06534 0.18885 0.62891 0.0
C4644 C 0.07148 0.2039 0.62937 0.0
C4645 C 0.07767 0.20959 0.64872 0.0
C4646 C 0.05865 0.16375 0.64806 0.0
C4647 C 0.07185 0.21381 0.60933 0.0
C4648 C 0.06424 0.16648 0.57643 0.0
C4649 C 0.0487 0.16766 0.57068 0.0
C4650 C 0.06989 0.17373 0.59503 0.0
C4651 C 0.05972 0.1822 0.60831 0.0
C4652 C 0.0441 0.1837 0.60242 0.0
C4653 C 0.03879 0.17646 0.5836 0.0
C4654 C 0.08666 0.17197 0.60077 0.0
C4655 C 0.03293 0.19262 0.61628 0.0
H4656 H 0.07184 0.17866 0.6814 0.0
H4657 H 0.08242 0.2211 0.64911 0.0
H4658 H 0.04671 0.16382 0.64178 0.0
H4659 H 0.06553 0.15628 0.63721 0.0
H4660 H 0.05861 0.15859 0.66451 0.0
H4661 H 0.07639 0.22551 0.61266 0.0
H4662 H 0.07919 0.20833 0.59684 0.0
H4663 H 0.06015 0.21489 0.6024 0.0
H4664 H 0.07193 0.15954 0.56671 0.0
H4665 H 0.02683 0.17763 0.57904 0.0
H4666 H 0.08777 0.16554 0.6162 0.0
H4667 H 0.09198 0.18342 0.60325 0.0
H4668 H 0.09322 0.16577 0.58805 0.0
H4669 H 0.03196 0.18713 0.63242 0.0
H4670 H 0.02131 0.19323 0.60893 0.0
H4671 H 0.03721 0.20448 0.61888 0.0
C4672 C 0.56181 0.32633 0.42287 0.0
C4673 C 0.54591 0.32889 0.42397 0.0
C4674 C 0.56848 0.31936 0.40471 0.0
C4675 C 0.55908 0.3152 0.387 0.0
C4676 C 0.54303 0.3176 0.38801 0.0
C4677 C 0.53662 0.32424 0.4066 0.0
C4678 C 0.58562 0.3167 0.40433 0.0
C4679 C 0.53268 0.31349 0.36928 0.0
C4680 C 0.57832 0.31287 0.33213 0.0
C4681 C 0.57963 0.29694 0.32913 0.0
C4682 C 0.57146 0.31894 0.35076 0.0
C4683 C 0.56611 0.30886 0.36706 0.0
C4684 C 0.56753 0.29279 0.36432 0.0
C4685 C 0.5741 0.28702 0.34527 0.0
C4686 C 0.56993 0.33616 0.35301 0.0
C4687 C 0.56218 0.28172 0.38156 0.0
H4688 H 0.56916 0.33008 0.436 0.0
H4689 H 0.5243 0.32584 0.40745 0.0
H4690 H 0.58813 0.30453 0.40037 0.0
H4691 H 0.59096 0.32386 0.39152 0.0
H4692 H 0.59113 0.31955 0.42003 0.0
H4693 H 0.52041 0.31596 0.37275 0.0
H4694 H 0.53616 0.32007 0.35469 0.0
H4695 H 0.53386 0.30112 0.3653 0.0
H4696 H 0.58282 0.32067 0.32002 0.0
H4697 H 0.57479 0.2747 0.34298 0.0
H4698 H 0.57652 0.34019 0.36729 0.0
H4699 H 0.55773 0.33929 0.35574 0.0
H4700 H 0.57415 0.34239 0.33848 0.0
H4701 H 0.56804 0.28427 0.3971 0.0
H4702 H 0.56449 0.26956 0.37717 0.0
H4703 H 0.54967 0.2831 0.38434 0.0
C4704 C 0.45694 0.83026 0.09915 0.0
C4705 C 0.45417 0.82611 0.0776 0.0
C4706 C 0.44949 0.82267 0.11617 0.0
C4707 C 0.43892 0.81077 0.11144 0.0
C4708 C 0.43641 0.80624 0.08973 0.0
C4709 C 0.44413 0.81395 0.07303 0.0
C4710 C 0.45257 0.82769 0.13915 0.0
C4711 C 0.42512 0.7937 0.08409 0.0
C4712 C 0.42664 0.78471 0.1575 0.0
C4713 C 0.41289 0.79168 0.16409 0.0
C4714 C 0.43518 0.79066 0.14017 0.0
C4715 C 0.42975 0.80382 0.12913 0.0
C4716 C 0.41573 0.81072 0.13541 0.0
C4717 C 0.40751 0.80461 0.15288 0.0
C4718 C 0.45011 0.78305 0.1339 0.0
C4719 C 0.40955 0.82475 0.12394 0.0
H4720 H 0.46483 0.83956 0.10266 0.0
H4721 H 0.44188 0.81084 0.05634 0.0
H4722 H 0.44199 0.83271 0.14623 0.0
H4723 H 0.45578 0.81765 0.14925 0.0
H4724 H 0.4619 0.83637 0.14014 0.0
H4725 H 0.42531 0.79082 0.06657 0.0
H4726 H 0.42765 0.78315 0.0935 0.0
H4727 H 0.41334 0.79741 0.08849 0.0
H4728 H 0.43075 0.77459 0.16593 0.0
H4729 H 0.39703 0.81022 0.15809 0.0
H4730 H 0.45974 0.79127 0.13596 0.0
H4731 H 0.44984 0.77971 0.11658 0.0
H4732 H 0.45252 0.77265 0.14377 0.0
H4733 H 0.41764 0.83449 0.12598 0.0
H4734 H 0.39812 0.82829 0.13019 0.0
H4735 H 0.40855 0.82248 0.10633 0.0
C4736 C 0.96247 0.31932 0.59695 0.0
C4737 C 0.95355 0.32941 0.58456 0.0
C4738 C 0.95648 0.31252 0.61571 0.0
C4739 C 0.94116 0.31574 0.62189 0.0
C4740 C 0.93208 0.32583 0.60929 0.0
C4741 C 0.93844 0.33264 0.59083 0.0
C4742 C 0.96654 0.30201 0.62899 0.0
C4743 C 0.91562 0.32934 0.61522 0.0
C4744 C 0.91998 0.28811 0.65866 0.0
C4745 C 0.92015 0.29608 0.67841 0.0
C4746 C 0.92697 0.29428 0.64017 0.0
C4747 C 0.93455 0.30861 0.64158 0.0
C4748 C 0.93523 0.31648 0.66158 0.0
C4749 C 0.92789 0.31019 0.6797 0.0
C4750 C 0.9259 0.28564 0.61902 0.0
C4751 C 0.94339 0.33172 0.6637 0.0
H4752 H 0.9742 0.31694 0.59212 0.0
H4753 H 0.93152 0.34032 0.58104 0.0
H4754 H 0.96755 0.3065 0.64573 0.0
H4755 H 0.96126 0.29044 0.63008 0.0
H4756 H 0.97825 0.30081 0.62204 0.0
H4757 H 0.91006 0.33725 0.60348 0.0
H4758 H 0.90887 0.31854 0.61592 0.0
H4759 H 0.91512 0.33465 0.63153 0.0
H4760 H 0.91428 0.27707 0.6576 0.0
H4761 H 0.9279 0.31657 0.69476 0.0
H4762 H 0.93756 0.28351 0.61243 0.0
H4763 H 0.91963 0.29269 0.60695 0.0
H4764 H 0.91989 0.27446 0.62078 0.0
H4765 H 0.95529 0.3308 0.65741 0.0
H4766 H 0.94386 0.33578 0.68073 0.0
H4767 H 0.93739 0.34052 0.65386 0.0
C4768 C 0.41226 0.18971 0.33577 0.0
C4769 C 0.41953 0.1979 0.31918 0.0
C4770 C 0.42063 0.18399 0.3533 0.0
C4771 C 0.43663 0.1867 0.35435 0.0
C4772 C 0.44408 0.19494 0.33761 0.0
C4773 C 0.43542 0.20036 0.32005 0.0
C4774 C 0.41232 0.17505 0.3707 0.0
C4775 C 0.4611 0.19817 0.33841 0.0
C4776 C 0.45205 0.18285 0.41124 0.0
C4777 C 0.45748 0.16771 0.41103 0.0
C4778 C 0.44612 0.18958 0.39242 0.0
C4779 C 0.44541 0.18083 0.37313 0.0
C4780 C 0.45152 0.16577 0.37262 0.0
C4781 C 0.45756 0.15941 0.39161 0.0
C4782 C 0.43991 0.20576 0.39345 0.0
C4783 C 0.45079 0.15604 0.35242 0.0
H4784 H 0.39999 0.18765 0.33489 0.0
H4785 H 0.44098 0.20678 0.30721 0.0
H4786 H 0.41751 0.16347 0.37244 0.0
H4787 H 0.41353 0.18098 0.3865 0.0
H4788 H 0.39989 0.17367 0.36714 0.0
H4789 H 0.46514 0.20465 0.32401 0.0
H4790 H 0.46387 0.2049 0.35315 0.0
H4791 H 0.4676 0.18723 0.33943 0.0
H4792 H 0.45217 0.18931 0.42624 0.0
H4793 H 0.46167 0.14765 0.39151 0.0
H4794 H 0.4272 0.20549 0.39216 0.0
H4795 H 0.44429 0.21266 0.37968 0.0
H4796 H 0.44303 0.21162 0.40881 0.0
H4797 H 0.43865 0.15303 0.34894 0.0
H4798 H 0.45747 0.14522 0.35407 0.0
H4799 H 0.45522 0.16251 0.33828 0.0
C4800 C 0.55273 0.67911 0.07675 0.0
C4801 C 0.54948 0.66337 0.07723 0.0
C4802 C 0.55883 0.68652 0.09496 0.0
C4803 C 0.56209 0.67783 0.11378 0.0
C4804 C 0.55882 0.6619 0.11427 0.0
C4805 C 0.55236 0.65488 0.09601 0.0
C4806 C 0.56185 0.70359 0.09405 0.0
C4807 C 0.56244 0.65222 0.1339 0.0
C4808 C 0.59231 0.69312 0.15225 0.0
C4809 C 0.58324 0.69847 0.16935 0.0
C4810 C 0.58555 0.68635 0.13402 0.0
C4811 C 0.56935 0.68529 0.13276 0.0
C4812 C 0.56014 0.69103 0.14983 0.0
C4813 C 0.56723 0.69739 0.16811 0.0
C4814 C 0.59574 0.68007 0.11633 0.0
C4815 C 0.54282 0.6904 0.14879 0.0
H4816 H 0.55035 0.68562 0.06217 0.0
H4817 H 0.5499 0.64267 0.09619 0.0
H4818 H 0.55593 0.70943 0.10767 0.0
H4819 H 0.57432 0.70584 0.09586 0.0
H4820 H 0.5579 0.70879 0.07861 0.0
H4821 H 0.55917 0.63999 0.13163 0.0
H4822 H 0.57492 0.6528 0.13745 0.0
H4823 H 0.55631 0.65675 0.14828 0.0
H4824 H 0.60471 0.6939 0.15341 0.0
H4825 H 0.56029 0.70166 0.18139 0.0
H4826 H 0.59305 0.68575 0.10072 0.0
H4827 H 0.59355 0.6676 0.11421 0.0
H4828 H 0.60814 0.68175 0.11987 0.0
H4829 H 0.53871 0.69611 0.13381 0.0
H4830 H 0.53734 0.69605 0.16295 0.0
H4831 H 0.53893 0.67828 0.14813 0.0
C4832 C 0.06421 0.78759 0.8296 0.0
C4833 C 0.07686 0.79502 0.82025 0.0
C4834 C 0.05681 0.79385 0.84775 0.0
C4835 C 0.06234 0.80773 0.85677 0.0
C4836 C 0.07516 0.81521 0.84742 0.0
C4837 C 0.08223 0.80878 0.82921 0.0
C4838 C 0.04308 0.78566 0.85722 0.0
C4839 C 0.08147 0.82996 0.85675 0.0
C4840 C 0.0375 0.83334 0.89177 0.0
C4841 C 0.04306 0.8299 0.91248 0.0
C4842 C 0.04322 0.82571 0.8735 0.0
C4843 C 0.05486 0.81451 0.87607 0.0
C4844 C 0.06016 0.81064 0.89703 0.0
C4845 C 0.05414 0.81837 0.91503 0.0
C4846 C 0.03718 0.82999 0.8514 0.0
C4847 C 0.07263 0.79883 0.90036 0.0
H4848 H 0.05999 0.777 0.82254 0.0
H4849 H 0.09215 0.81441 0.82216 0.0
H4850 H 0.04538 0.78255 0.87432 0.0
H4851 H 0.03296 0.7934 0.85715 0.0
H4852 H 0.04014 0.77504 0.84814 0.0
H4853 H 0.09157 0.83428 0.84758 0.0
H4854 H 0.07246 0.83897 0.85666 0.0
H4855 H 0.08493 0.82814 0.87384 0.0
H4856 H 0.02877 0.84211 0.88985 0.0
H4857 H 0.05853 0.81579 0.93104 0.0
H4858 H 0.03362 0.81954 0.84243 0.0
H4859 H 0.04642 0.83559 0.84187 0.0
H4860 H 0.02725 0.83797 0.85234 0.0
H4861 H 0.0696 0.78794 0.89207 0.0
H4862 H 0.07467 0.79636 0.91777 0.0
H4863 H 0.08351 0.80301 0.8931 0.0
loop_
_geom_bond_atom_site_label_1
_geom_bond_atom_site_label_2
_geom_bond_distance
_geom_bond_site_symmetry_2
_ccdc_geom_bond_type
Li0 N17 1.990 . S
Li0 O60 1.956 . S
Li0 O61 1.970 . S
Li0 O62 1.961 . S
Li1 N25 1.990 . S
Li1 O60 1.970 . S
Li1 O61 1.956 . S
Li1 O63 1.961 . S
Li2 N47 1.990 . S
Li2 O60 1.961 . S
Li2 O62 1.956 . S
Li2 O63 1.970 . S
Li3 N53 1.990 . S
Li3 O61 1.961 . S
Li3 O62 1.970 . S
Li3 O63 1.956 . S
C4 C6 1.348 . S
C4 C7 1.356 . S
C4 O60 1.325 . S
N5 C8 1.314 . S
N5 C9 1.279 . S
C6 C4 1.348 . S
C6 C8 1.353 . S
C6 H64 0.929 . S
C7 C4 1.356 . S
C7 C9 1.358 . S
C7 H65 0.930 . S
C8 N5 1.314 . S
C8 C6 1.353 . S
C8 H66 0.930 . S
C9 N5 1.279 . S
C9 C7 1.358 . S
C9 H67 0.930 . S
C10 C13 1.348 . S
C10 C14 1.356 . S
C10 O61 1.325 . S
C11 N12 1.279 . S
C11 C14 1.358 . S
C11 H68 0.930 . S
N12 C11 1.279 . S
N12 C15 1.314 . S
C13 C10 1.348 . S
C13 C15 1.353 . S
C13 H69 0.929 . S
C14 C10 1.356 . S
C14 C11 1.358 . S
C14 H70 0.930 . S
C15 N12 1.314 . S
C15 C13 1.353 . S
C15 H71 0.930 . S
C16 N17 1.314 . S
C16 C21 1.353 . S
C16 H22 0.930 . S
N17 Li0 1.990 . S
N17 C16 1.314 . S
N17 C19 1.279 . S
C18 C19 1.358 . S
C18 C20 1.356 . S
C18 H72 0.930 . S
C19 N17 1.279 . S
C19 C18 1.358 . S
C19 H23 0.930 . S
C20 C18 1.356 . S
C20 C21 1.348 . S
C21 C16 1.353 . S
C21 C20 1.348 . S
C21 H73 0.929 . S
H22 C16 0.930 . S
H23 C19 0.930 . S
C24 N25 1.314 . S
C24 C26 1.353 . S
C24 H30 0.930 . S
N25 Li1 1.990 . S
N25 C24 1.314 . S
N25 C28 1.279 . S
C26 C24 1.353 . S
C26 C29 1.348 . S
C26 H74 0.929 . S
C27 C28 1.358 . S
C27 C29 1.356 . S
C27 H75 0.930 . S
C28 N25 1.279 . S
C28 C27 1.358 . S
C28 H31 0.930 . S
C29 C26 1.348 . S
C29 C27 1.356 . S
H30 C24 0.930 . S
H31 C28 0.930 . S
C32 C34 1.348 . S
C32 C35 1.356 . S
C32 O62 1.325 . S
N33 C36 1.314 . S
N33 C37 1.279 . S
C34 C32 1.348 . S
C34 C36 1.353 . S
C34 H76 0.929 . S
C35 C32 1.356 . S
C35 C37 1.358 . S
C35 H77 0.930 . S
C36 N33 1.314 . S
C36 C34 1.353 . S
C36 H78 0.930 . S
C37 N33 1.279 . S
C37 C35 1.358 . S
C37 H79 0.930 . S
C38 C39 1.348 . S
C38 C40 1.356 . S
C38 O63 1.325 . S
C39 C38 1.348 . S
C39 C41 1.353 . S
C39 H80 0.929 . S
C40 C38 1.356 . S
C40 C42 1.358 . S
C40 H81 0.930 . S
C41 C39 1.353 . S
C41 N43 1.314 . S
C41 H82 0.930 . S
C42 C40 1.358 . S
C42 N43 1.279 . S
C42 H83 0.930 . S
N43 C41 1.314 . S
N43 C42 1.279 . S
C44 C46 1.353 . S
C44 N47 1.314 . S
C44 H50 0.930 . S
C45 N47 1.279 . S
C45 C48 1.358 . S
C45 H51 0.930 . S
C46 C44 1.353 . S
C46 C49 1.348 . S
C46 H84 0.929 . S
N47 Li2 1.990 . S
N47 C44 1.314 . S
N47 C45 1.279 . S
C48 C45 1.358 . S
C48 C49 1.356 . S
C48 H85 0.930 . S
C49 C46 1.348 . S
C49 C48 1.356 . S
H50 C44 0.930 . S
H51 C45 0.930 . S
C52 N53 1.314 . S
C52 C54 1.353 . S
C52 H58 0.930 . S
N53 Li3 1.990 . S
N53 C52 1.314 . S
N53 C56 1.279 . S
C54 C52 1.353 . S
C54 C57 1.348 . S
C54 H86 0.929 . S
C55 C56 1.358 . S
C55 C57 1.356 . S
C55 H87 0.930 . S
C56 N53 1.279 . S
C56 C55 1.358 . S
C56 H59 0.930 . S
C57 C54 1.348 . S
C57 C55 1.356 . S
H58 C52 0.930 . S
H59 C56 0.930 . S
O60 Li0 1.956 . S
O60 Li1 1.970 . S
O60 Li2 1.961 . S
O60 C4 1.325 . S
O61 Li0 1.970 . S
O61 Li1 1.956 . S
O61 Li3 1.961 . S
O61 C10 1.325 . S
O62 Li0 1.961 . S
O62 Li2 1.956 . S
O62 Li3 1.970 . S
O62 C32 1.325 . S
O63 Li1 1.961 . S
O63 Li2 1.970 . S
O63 Li3 1.956 . S
O63 C38 1.325 . S
H64 C6 0.929 . S
H65 C7 0.930 . S
H66 C8 0.930 . S
H67 C9 0.930 . S
H68 C11 0.930 . S
H69 C13 0.929 . S
H70 C14 0.930 . S
H71 C15 0.930 . S
H72 C18 0.930 . S
H73 C21 0.929 . S
H74 C26 0.929 . S
H75 C27 0.930 . S
H76 C34 0.929 . S
H77 C35 0.930 . S
H78 C36 0.930 . S
H79 C37 0.930 . S
H80 C39 0.929 . S
H81 C40 0.930 . S
H82 C41 0.930 . S
H83 C42 0.930 . S
H84 C46 0.929 . S
H85 C48 0.930 . S
H86 C54 0.929 . S
H87 C55 0.930 . S
Li88 N105 1.990 . S
Li88 O148 1.956 . S
Li88 O149 1.970 . S
Li88 O150 1.961 . S
Li89 N113 1.990 1_655 S
Li89 O148 1.970 . S
Li89 O149 1.956 . S
Li89 O151 1.961 . S
Li90 N135 1.990 . S
Li90 O148 1.961 . S
Li90 O150 1.956 . S
Li90 O151 1.970 . S
Li91 N141 1.990 . S
Li91 O149 1.961 . S
Li91 O150 1.970 . S
Li91 O151 1.956 . S
C92 C94 1.345 . S
C92 C95 1.356 . S
C92 O148 1.325 . S
N93 C96 1.314 1_655 S
N93 C97 1.279 . S
C94 C92 1.345 . S
C94 C96 1.354 1_655 S
C94 H152 0.932 1_655 S
C95 C92 1.356 . S
C95 C97 1.358 . S
C95 H153 0.930 . S
C96 N93 1.314 1_455 S
C96 C94 1.354 1_455 S
C96 H154 0.930 . S
C97 N93 1.279 . S
C97 C95 1.358 . S
C97 H155 0.930 . S
C98 C101 1.348 . S
C98 C102 1.356 . S
C98 O149 1.325 . S
C99 N100 1.279 . S
C99 C102 1.358 . S
C99 H156 0.930 . S
N100 C99 1.279 . S
N100 C103 1.314 . S
C101 C98 1.348 . S
C101 C103 1.353 . S
C101 H157 0.929 . S
C102 C98 1.356 . S
C102 C99 1.358 . S
C102 H158 0.930 . S
C103 N100 1.314 . S
C103 C101 1.353 . S
C103 H159 0.930 . S
C104 N105 1.314 . S
C104 C109 1.353 . S
C104 H110 0.930 . S
N105 Li88 1.990 . S
N105 C104 1.314 . S
N105 C107 1.279 . S
C106 C107 1.358 . S
C106 C108 1.356 . S
C106 H160 0.930 . S
C107 N105 1.279 . S
C107 C106 1.358 . S
C107 H111 0.930 . S
C108 C106 1.356 . S
C108 C109 1.348 . S
C109 C104 1.353 . S
C109 C108 1.348 . S
C109 H161 0.929 . S
H110 C104 0.930 . S
H111 C107 0.930 . S
C112 N113 1.314 . S
C112 C114 1.353 . S
C112 H118 0.930 . S
N113 Li89 1.990 1_455 S
N113 C112 1.314 . S
N113 C116 1.279 . S
C114 C112 1.353 . S
C114 C117 1.348 . S
C114 H162 0.929 . S
C115 C116 1.358 . S
C115 C117 1.356 . S
C115 H163 0.930 . S
C116 N113 1.279 . S
C116 C115 1.358 . S
C116 H119 0.930 . S
C117 C114 1.348 . S
C117 C115 1.356 . S
H118 C112 0.930 . S
H119 C116 0.930 . S
C120 C122 1.348 . S
C120 C123 1.356 . S
C120 O150 1.325 . S
N121 C124 1.314 . S
N121 C125 1.279 . S
C122 C120 1.348 . S
C122 C124 1.353 . S
C122 H164 0.929 . S
C123 C120 1.356 . S
C123 C125 1.358 . S
C123 H165 0.930 . S
C124 N121 1.314 . S
C124 C122 1.353 . S
C124 H166 0.930 . S
C125 N121 1.279 . S
C125 C123 1.358 . S
C125 H167 0.930 . S
C126 C127 1.348 . S
C126 C128 1.356 . S
C126 O151 1.325 1_455 S
C127 C126 1.348 . S
C127 C129 1.353 . S
C127 H168 0.981 . S
C128 C126 1.356 . S
C128 C130 1.358 . S
C128 H169 0.930 . S
C129 C127 1.353 . S
C129 N131 1.314 . S
C129 H170 0.930 . S
C130 C128 1.358 . S
C130 N131 1.279 . S
C130 H171 0.930 . S
N131 C129 1.314 . S
N131 C130 1.279 . S
C132 C134 1.353 . S
C132 N135 1.314 . S
C132 H138 0.904 1_655 S
C133 N135 1.279 . S
C133 C136 1.358 . S
C133 H139 0.930 . S
C134 C132 1.353 . S
C134 C137 1.348 . S
C134 H172 0.929 1_655 S
N135 Li90 1.990 . S
N135 C132 1.314 . S
N135 C133 1.279 . S
C136 C133 1.358 . S
C136 C137 1.356 . S
C136 H173 0.930 . S
C137 C134 1.348 . S
C137 C136 1.356 . S
H138 C132 0.904 1_455 S
H139 C133 0.930 . S
C140 N141 1.314 . S
C140 C142 1.353 . S
C140 H146 0.930 . S
N141 Li91 1.990 . S
N141 C140 1.314 . S
N141 C144 1.279 . S
C142 C140 1.353 . S
C142 C145 1.348 . S
C142 H174 0.929 . S
C143 C144 1.358 . S
C143 C145 1.356 . S
C143 H175 0.930 . S
C144 N141 1.279 . S
C144 C143 1.358 . S
C144 H147 0.930 . S
C145 C142 1.348 . S
C145 C143 1.356 . S
H146 C140 0.930 . S
H147 C144 0.930 . S
O148 Li88 1.956 . S
O148 Li89 1.970 . S
O148 Li90 1.961 . S
O148 C92 1.325 . S
O149 Li88 1.970 . S
O149 Li89 1.956 . S
O149 Li91 1.961 . S
O149 C98 1.325 . S
O150 Li88 1.961 . S
O150 Li90 1.956 . S
O150 Li91 1.970 . S
O150 C120 1.325 . S
O151 Li89 1.961 . S
O151 Li90 1.970 . S
O151 Li91 1.956 . S
O151 C126 1.325 1_655 S
H152 C94 0.932 1_455 S
H153 C95 0.930 . S
H154 C96 0.930 . S
H155 C97 0.930 . S
H156 C99 0.930 . S
H157 C101 0.929 . S
H158 C102 0.930 . S
H159 C103 0.930 . S
H160 C106 0.930 . S
H161 C109 0.929 . S
H162 C114 0.929 . S
H163 C115 0.930 . S
H164 C122 0.929 . S
H165 C123 0.930 . S
H166 C124 0.930 . S
H167 C125 0.930 . S
H168 C127 0.981 . S
H169 C128 0.930 . S
H170 C129 0.930 . S
H171 C130 0.930 . S
H172 C134 0.929 1_455 S
H173 C136 0.930 . S
H174 C142 0.929 . S
H175 C143 0.930 . S
Li176 N193 1.990 . S
Li176 O236 1.956 . S
Li176 O237 1.970 . S
Li176 O238 1.961 . S
Li177 N201 1.990 . S
Li177 O236 1.970 . S
Li177 O237 1.956 . S
Li177 O239 1.961 . S
Li178 N223 1.990 . S
Li178 O236 1.961 . S
Li178 O238 1.956 . S
Li178 O239 1.970 . S
Li179 N229 1.990 . S
Li179 O237 1.961 . S
Li179 O238 1.970 . S
Li179 O239 1.956 . S
C180 C182 1.348 . S
C180 C183 1.356 . S
C180 O236 1.325 . S
N181 C184 1.314 . S
N181 C185 1.279 . S
C182 C180 1.348 . S
C182 C184 1.353 . S
C182 H240 0.929 . S
C183 C180 1.356 . S
C183 C185 1.358 . S
C183 H241 0.930 . S
C184 N181 1.314 . S
C184 C182 1.353 . S
C184 H242 0.930 . S
C185 N181 1.279 . S
C185 C183 1.358 . S
C185 H243 0.930 . S
C186 C189 1.348 . S
C186 C190 1.356 . S
C186 O237 1.325 . S
C187 N188 1.279 . S
C187 C190 1.358 . S
C187 H244 0.930 . S
N188 C187 1.279 . S
N188 C191 1.314 . S
C189 C186 1.348 . S
C189 C191 1.353 . S
C189 H245 0.929 . S
C190 C186 1.356 . S
C190 C187 1.358 . S
C190 H246 0.930 . S
C191 N188 1.314 . S
C191 C189 1.353 . S
C191 H247 0.930 . S
C192 N193 1.314 . S
C192 C197 1.353 . S
C192 H198 0.930 . S
N193 Li176 1.990 . S
N193 C192 1.314 . S
N193 C195 1.279 . S
C194 C195 1.358 . S
C194 C196 1.356 . S
C194 H248 0.930 . S
C195 N193 1.279 . S
C195 C194 1.358 . S
C195 H199 0.930 . S
C196 C194 1.356 . S
C196 C197 1.348 . S
C197 C192 1.353 . S
C197 C196 1.348 . S
C197 H249 0.929 . S
H198 C192 0.930 . S
H199 C195 0.930 . S
C200 N201 1.314 . S
C200 C202 1.353 . S
C200 H206 0.930 . S
N201 Li177 1.990 . S
N201 C200 1.314 . S
N201 C204 1.279 . S
C202 C200 1.353 . S
C202 C205 1.348 . S
C202 H250 0.929 . S
C203 C204 1.358 . S
C203 C205 1.356 . S
C203 H251 0.930 . S
C204 N201 1.279 . S
C204 C203 1.358 . S
C204 H207 0.930 . S
C205 C202 1.348 . S
C205 C203 1.356 . S
H206 C200 0.930 . S
H207 C204 0.930 . S
C208 C210 1.348 . S
C208 C211 1.356 . S
C208 O238 1.325 . S
N209 C212 1.314 . S
N209 C213 1.279 . S
C210 C208 1.348 . S
C210 C212 1.353 . S
C210 H252 0.929 . S
C211 C208 1.356 . S
C211 C213 1.358 . S
C211 H253 0.930 . S
C212 N209 1.314 . S
C212 C210 1.353 . S
C212 H254 0.930 . S
C213 N209 1.279 . S
C213 C211 1.358 . S
C213 H255 0.930 . S
C214 C215 1.348 . S
C214 C216 1.356 . S
C214 O239 1.325 . S
C215 C214 1.348 . S
C215 C217 1.353 . S
C215 H256 0.929 . S
C216 C214 1.356 . S
C216 C218 1.358 . S
C216 H257 0.930 . S
C217 C215 1.353 . S
C217 N219 1.314 . S
C217 H258 0.930 . S
C218 C216 1.358 . S
C218 N219 1.279 . S
C218 H259 0.930 . S
N219 C217 1.314 . S
N219 C218 1.279 . S
C220 C222 1.353 . S
C220 N223 1.314 . S
C220 H226 0.930 . S
C221 N223 1.279 . S
C221 C224 1.358 . S
C221 H227 0.930 . S
C222 C220 1.353 . S
C222 C225 1.348 . S
C222 H260 0.929 . S
N223 Li178 1.990 . S
N223 C220 1.314 . S
N223 C221 1.279 . S
C224 C221 1.358 . S
C224 C225 1.356 . S
C224 H261 0.930 . S
C225 C222 1.348 . S
C225 C224 1.356 . S
H226 C220 0.930 . S
H227 C221 0.930 . S
C228 N229 1.314 . S
C228 C230 1.353 . S
C228 H234 0.930 . S
N229 Li179 1.990 . S
N229 C228 1.314 . S
N229 C232 1.279 . S
C230 C228 1.353 . S
C230 C233 1.348 . S
C230 H262 0.929 . S
C231 C232 1.358 . S
C231 C233 1.356 . S
C231 H263 0.930 . S
C232 N229 1.279 . S
C232 C231 1.358 . S
C232 H235 0.930 . S
C233 C230 1.348 . S
C233 C231 1.356 . S
H234 C228 0.930 . S
H235 C232 0.930 . S
O236 Li176 1.956 . S
O236 Li177 1.970 . S
O236 Li178 1.961 . S
O236 C180 1.325 . S
O237 Li176 1.970 . S
O237 Li177 1.956 . S
O237 Li179 1.961 . S
O237 C186 1.325 . S
O238 Li176 1.961 . S
O238 Li178 1.956 . S
O238 Li179 1.970 . S
O238 C208 1.325 . S
O239 Li177 1.961 . S
O239 Li178 1.970 . S
O239 Li179 1.956 . S
O239 C214 1.325 . S
H240 C182 0.929 . S
H241 C183 0.930 . S
H242 C184 0.930 . S
H243 C185 0.930 . S
H244 C187 0.930 . S
H245 C189 0.929 . S
H246 C190 0.930 . S
H247 C191 0.930 . S
H248 C194 0.930 . S
H249 C197 0.929 . S
H250 C202 0.929 . S
H251 C203 0.930 . S
H252 C210 0.929 . S
H253 C211 0.930 . S
H254 C212 0.930 . S
H255 C213 0.930 . S
H256 C215 0.929 . S
H257 C216 0.930 . S
H258 C217 0.930 . S
H259 C218 0.930 . S
H260 C222 0.929 . S
H261 C224 0.930 . S
H262 C230 0.929 . S
H263 C231 0.930 . S
Li264 N281 1.990 . S
Li264 O324 1.956 . S
Li264 O325 1.970 . S
Li264 O326 1.961 . S
Li265 N289 1.990 . S
Li265 O324 1.970 . S
Li265 O325 1.956 . S
Li265 O327 1.961 . S
Li266 N311 1.990 1_554 S
Li266 O324 1.961 . S
Li266 O326 1.956 . S
Li266 O327 1.970 . S
Li267 N317 1.990 . S
Li267 O325 1.961 . S
Li267 O326 1.970 . S
Li267 O327 1.956 . S
C268 C270 1.348 . S
C268 C271 1.356 . S
C268 O324 1.325 . S
N269 C272 1.314 . S
N269 C273 1.279 . S
C270 C268 1.348 . S
C270 C272 1.353 . S
C270 H328 0.929 . S
C271 C268 1.356 . S
C271 C273 1.358 . S
C271 H329 0.930 . S
C272 N269 1.314 . S
C272 C270 1.353 . S
C272 H330 0.930 . S
C273 N269 1.279 . S
C273 C271 1.358 . S
C273 H331 0.930 . S
C274 C277 1.348 . S
C274 C278 1.356 . S
C274 O325 1.325 . S
C275 N276 1.279 . S
C275 C278 1.358 . S
C275 H332 0.930 . S
N276 C275 1.279 . S
N276 C279 1.314 . S
C277 C274 1.348 . S
C277 C279 1.353 . S
C277 H333 0.929 . S
C278 C274 1.356 . S
C278 C275 1.358 . S
C278 H334 0.930 . S
C279 N276 1.314 . S
C279 C277 1.353 . S
C279 H335 0.930 . S
C280 N281 1.314 . S
C280 C285 1.353 . S
C280 H286 0.930 . S
N281 Li264 1.990 . S
N281 C280 1.314 . S
N281 C283 1.279 . S
C282 C283 1.358 . S
C282 C284 1.356 . S
C282 H336 0.930 . S
C283 N281 1.279 . S
C283 C282 1.358 . S
C283 H287 0.930 . S
C284 C282 1.356 . S
C284 C285 1.348 . S
C285 C280 1.353 . S
C285 C284 1.348 . S
C285 H337 0.929 . S
H286 C280 0.930 . S
H287 C283 0.930 . S
C288 N289 1.314 . S
C288 C290 1.353 . S
C288 H294 0.930 . S
N289 Li265 1.990 . S
N289 C288 1.314 . S
N289 C292 1.279 . S
C290 C288 1.353 . S
C290 C293 1.348 . S
C290 H338 0.929 . S
C291 C292 1.358 . S
C291 C293 1.356 . S
C291 H339 0.930 . S
C292 N289 1.279 . S
C292 C291 1.358 . S
C292 H295 0.930 . S
C293 C290 1.348 . S
C293 C291 1.356 . S
H294 C288 0.930 . S
H295 C292 0.930 . S
C296 C298 1.348 . S
C296 C299 1.356 . S
C296 O326 1.325 1_556 S
N297 C300 1.314 . S
N297 C301 1.279 . S
C298 C296 1.348 . S
C298 C300 1.353 . S
C298 H340 0.929 . S
C299 C296 1.356 . S
C299 C301 1.358 . S
C299 H341 0.930 . S
C300 N297 1.314 . S
C300 C298 1.353 . S
C300 H342 0.930 . S
C301 N297 1.279 . S
C301 C299 1.358 . S
C301 H343 0.930 . S
C302 C303 1.348 1_554 S
C302 C304 1.356 . S
C302 O327 1.325 . S
C303 C302 1.348 1_556 S
C303 C305 1.353 . S
C303 H344 0.929 . S
C304 C302 1.356 . S
C304 C306 1.358 . S
C304 H345 0.930 . S
C305 C303 1.353 . S
C305 N307 1.314 . S
C305 H346 0.930 . S
C306 C304 1.358 . S
C306 N307 1.279 1_554 S
C306 H347 0.930 . S
N307 C305 1.314 . S
N307 C306 1.279 1_556 S
C308 C310 1.353 . S
C308 N311 1.314 . S
C308 H314 0.930 . S
C309 N311 1.279 . S
C309 C312 1.358 . S
C309 H315 0.930 . S
C310 C308 1.353 . S
C310 C313 1.348 . S
C310 H348 0.929 . S
N311 Li266 1.990 1_556 S
N311 C308 1.314 . S
N311 C309 1.279 . S
C312 C309 1.358 . S
C312 C313 1.356 . S
C312 H349 0.930 . S
C313 C310 1.348 . S
C313 C312 1.356 . S
H314 C308 0.930 . S
H315 C309 0.930 . S
C316 N317 1.314 . S
C316 C318 1.353 . S
C316 H322 0.930 . S
N317 Li267 1.990 . S
N317 C316 1.314 . S
N317 C320 1.279 . S
C318 C316 1.353 . S
C318 C321 1.348 . S
C318 H350 0.929 . S
C319 C320 1.358 . S
C319 C321 1.356 . S
C319 H351 0.930 . S
C320 N317 1.279 . S
C320 C319 1.358 . S
C320 H323 0.930 . S
C321 C318 1.348 . S
C321 C319 1.356 . S
H322 C316 0.930 . S
H323 C320 0.930 . S
O324 Li264 1.956 . S
O324 Li265 1.970 . S
O324 Li266 1.961 . S
O324 C268 1.325 . S
O325 Li264 1.970 . S
O325 Li265 1.956 . S
O325 Li267 1.961 . S
O325 C274 1.325 . S
O326 Li264 1.961 . S
O326 Li266 1.956 . S
O326 Li267 1.970 . S
O326 C296 1.325 1_554 S
O327 Li265 1.961 . S
O327 Li266 1.970 . S
O327 Li267 1.956 . S
O327 C302 1.325 . S
H328 C270 0.929 . S
H329 C271 0.930 . S
H330 C272 0.930 . S
H331 C273 0.930 . S
H332 C275 0.930 . S
H333 C277 0.929 . S
H334 C278 0.930 . S
H335 C279 0.930 . S
H336 C282 0.930 . S
H337 C285 0.929 . S
H338 C290 0.929 . S
H339 C291 0.930 . S
H340 C298 0.929 . S
H341 C299 0.930 . S
H342 C300 0.930 . S
H343 C301 0.930 . S
H344 C303 0.929 . S
H345 C304 0.930 . S
H346 C305 0.930 . S
H347 C306 0.930 . S
H348 C310 0.929 . S
H349 C312 0.930 . S
H350 C318 0.929 . S
H351 C319 0.930 . S
Li352 N369 1.990 . S
Li352 O412 1.956 . S
Li352 O413 1.970 . S
Li352 O414 1.961 . S
Li353 N377 1.990 . S
Li353 O412 1.970 . S
Li353 O413 1.956 . S
Li353 O415 1.961 . S
Li354 N399 1.990 . S
Li354 O412 1.961 . S
Li354 O414 1.956 . S
Li354 O415 1.970 . S
Li355 N405 1.990 . S
Li355 O413 1.961 . S
Li355 O414 1.970 . S
Li355 O415 1.956 . S
C356 C358 1.348 . S
C356 C359 1.356 . S
C356 O412 1.325 . S
N357 C360 1.314 . S
N357 C361 1.279 . S
C358 C356 1.348 . S
C358 C360 1.353 . S
C358 H416 0.929 . S
C359 C356 1.356 . S
C359 C361 1.358 . S
C359 H417 0.930 . S
C360 N357 1.314 . S
C360 C358 1.353 . S
C360 H418 0.930 . S
C361 N357 1.279 . S
C361 C359 1.358 . S
C361 H419 0.930 . S
C362 C365 1.348 . S
C362 C366 1.356 . S
C362 O413 1.325 . S
C363 N364 1.279 . S
C363 C366 1.358 . S
C363 H420 0.930 . S
N364 C363 1.279 . S
N364 C367 1.314 . S
C365 C362 1.348 . S
C365 C367 1.353 . S
C365 H421 0.929 . S
C366 C362 1.356 . S
C366 C363 1.358 . S
C366 H422 0.930 . S
C367 N364 1.314 . S
C367 C365 1.353 . S
C367 H423 0.930 . S
C368 N369 1.314 . S
C368 C373 1.353 . S
C368 H374 0.930 . S
N369 Li352 1.990 . S
N369 C368 1.314 . S
N369 C371 1.279 . S
C370 C371 1.358 . S
C370 C372 1.356 . S
C370 H424 0.930 . S
C371 N369 1.279 . S
C371 C370 1.358 . S
C371 H375 0.930 . S
C372 C370 1.356 . S
C372 C373 1.348 . S
C373 C368 1.353 . S
C373 C372 1.348 . S
C373 H425 0.929 . S
H374 C368 0.930 . S
H375 C371 0.930 . S
C376 N377 1.314 . S
C376 C378 1.353 . S
C376 H382 0.930 . S
N377 Li353 1.990 . S
N377 C376 1.314 . S
N377 C380 1.279 . S
C378 C376 1.353 . S
C378 C381 1.348 . S
C378 H426 0.929 . S
C379 C380 1.358 . S
C379 C381 1.356 . S
C379 H427 0.930 . S
C380 N377 1.279 . S
C380 C379 1.358 . S
C380 H383 0.930 . S
C381 C378 1.348 . S
C381 C379 1.356 . S
H382 C376 0.930 . S
H383 C380 0.930 . S
C384 C386 1.348 . S
C384 C387 1.356 . S
C384 O414 1.325 . S
N385 C388 1.314 . S
N385 C389 1.279 . S
C386 C384 1.348 . S
C386 C388 1.353 . S
C386 H428 0.929 . S
C387 C384 1.356 . S
C387 C389 1.358 . S
C387 H429 0.930 . S
C388 N385 1.314 . S
C388 C386 1.353 . S
C388 H430 0.930 . S
C389 N385 1.279 . S
C389 C387 1.358 . S
C389 H431 0.930 . S
C390 C391 1.348 . S
C390 C392 1.356 . S
C390 O415 1.325 . S
C391 C390 1.348 . S
C391 C393 1.353 . S
C391 H432 0.929 . S
C392 C390 1.356 . S
C392 C394 1.358 . S
C392 H433 0.930 . S
C393 C391 1.353 . S
C393 N395 1.314 . S
C393 H434 0.930 . S
C394 C392 1.358 . S
C394 N395 1.279 . S
C394 H435 0.930 . S
N395 C393 1.314 . S
N395 C394 1.279 . S
C396 C398 1.353 . S
C396 N399 1.314 . S
C396 H402 0.930 . S
C397 N399 1.279 . S
C397 C400 1.358 . S
C397 H403 0.930 . S
C398 C396 1.353 . S
C398 C401 1.348 . S
C398 H436 0.929 . S
N399 Li354 1.990 . S
N399 C396 1.314 . S
N399 C397 1.279 . S
C400 C397 1.358 . S
C400 C401 1.356 . S
C400 H437 0.930 . S
C401 C398 1.348 . S
C401 C400 1.356 . S
H402 C396 0.930 . S
H403 C397 0.930 . S
C404 N405 1.314 . S
C404 C406 1.353 . S
C404 H410 0.930 . S
N405 Li355 1.990 . S
N405 C404 1.314 . S
N405 C408 1.279 . S
C406 C404 1.353 . S
C406 C409 1.348 . S
C406 H438 0.929 . S
C407 C408 1.358 . S
C407 C409 1.356 . S
C407 H439 0.930 . S
C408 N405 1.279 . S
C408 C407 1.358 . S
C408 H411 0.930 . S
C409 C406 1.348 . S
C409 C407 1.356 . S
H410 C404 0.930 . S
H411 C408 0.930 . S
O412 Li352 1.956 . S
O412 Li353 1.970 . S
O412 Li354 1.961 . S
O412 C356 1.325 . S
O413 Li352 1.970 . S
O413 Li353 1.956 . S
O413 Li355 1.961 . S
O413 C362 1.325 . S
O414 Li352 1.961 . S
O414 Li354 1.956 . S
O414 Li355 1.970 . S
O414 C384 1.325 . S
O415 Li353 1.961 . S
O415 Li354 1.970 . S
O415 Li355 1.956 . S
O415 C390 1.325 . S
H416 C358 0.929 . S
H417 C359 0.930 . S
H418 C360 0.930 . S
H419 C361 0.930 . S
H420 C363 0.930 . S
H421 C365 0.929 . S
H422 C366 0.930 . S
H423 C367 0.930 . S
H424 C370 0.930 . S
H425 C373 0.929 . S
H426 C378 0.929 . S
H427 C379 0.930 . S
H428 C386 0.929 . S
H429 C387 0.930 . S
H430 C388 0.930 . S
H431 C389 0.930 . S
H432 C391 0.929 . S
H433 C392 0.930 . S
H434 C393 0.930 . S
H435 C394 0.930 . S
H436 C398 0.929 . S
H437 C400 0.930 . S
H438 C406 0.929 . S
H439 C407 0.930 . S
Li440 N457 1.990 . S
Li440 O500 1.956 . S
Li440 O501 1.970 . S
Li440 O502 1.961 . S
Li441 N465 1.990 . S
Li441 O500 1.970 . S
Li441 O501 1.956 . S
Li441 O503 1.961 . S
Li442 N487 1.990 . S
Li442 O500 1.961 . S
Li442 O502 1.956 . S
Li442 O503 1.970 . S
Li443 N493 1.990 . S
Li443 O501 1.961 . S
Li443 O502 1.970 . S
Li443 O503 1.956 . S
C444 C446 1.348 . S
C444 C447 1.356 . S
C444 O500 1.325 . S
N445 C448 1.314 . S
N445 C449 1.279 . S
C446 C444 1.348 . S
C446 C448 1.353 . S
C446 H504 0.929 . S
C447 C444 1.356 . S
C447 C449 1.358 . S
C447 H505 0.930 . S
C448 N445 1.314 . S
C448 C446 1.353 . S
C448 H506 0.930 . S
C449 N445 1.279 . S
C449 C447 1.358 . S
C449 H507 0.930 . S
C450 C453 1.348 . S
C450 C454 1.356 . S
C450 O501 1.325 . S
C451 N452 1.279 . S
C451 C454 1.358 . S
C451 H508 0.930 . S
N452 C451 1.279 . S
N452 C455 1.314 . S
C453 C450 1.348 . S
C453 C455 1.353 . S
C453 H509 0.929 . S
C454 C450 1.356 . S
C454 C451 1.358 . S
C454 H510 0.930 . S
C455 N452 1.314 . S
C455 C453 1.353 . S
C455 H511 0.930 . S
C456 N457 1.314 . S
C456 C461 1.353 . S
C456 H462 0.930 . S
N457 Li440 1.990 . S
N457 C456 1.314 . S
N457 C459 1.279 . S
C458 C459 1.358 . S
C458 C460 1.356 . S
C458 H512 0.930 . S
C459 N457 1.279 . S
C459 C458 1.358 . S
C459 H463 0.930 . S
C460 C458 1.356 . S
C460 C461 1.348 . S
C461 C456 1.353 . S
C461 C460 1.348 . S
C461 H513 0.929 . S
H462 C456 0.930 . S
H463 C459 0.930 . S
C464 N465 1.314 . S
C464 C466 1.353 . S
C464 H470 0.930 . S
N465 Li441 1.990 . S
N465 C464 1.314 . S
N465 C468 1.279 . S
C466 C464 1.353 . S
C466 C469 1.348 . S
C466 H514 0.929 . S
C467 C468 1.358 . S
C467 C469 1.356 . S
C467 H515 0.930 . S
C468 N465 1.279 . S
C468 C467 1.358 . S
C468 H471 0.930 . S
C469 C466 1.348 . S
C469 C467 1.356 . S
H470 C464 0.930 . S
H471 C468 0.930 . S
C472 C474 1.348 . S
C472 C475 1.356 . S
C472 O502 1.325 . S
N473 C476 1.314 . S
N473 C477 1.279 . S
C474 C472 1.348 . S
C474 C476 1.353 . S
C474 H516 0.929 . S
C475 C472 1.356 . S
C475 C477 1.358 . S
C475 H517 0.930 . S
C476 N473 1.314 . S
C476 C474 1.353 . S
C476 H518 0.930 . S
C477 N473 1.279 . S
C477 C475 1.358 . S
C477 H519 0.930 . S
C478 C479 1.348 . S
C478 C480 1.356 . S
C478 O503 1.325 . S
C479 C478 1.348 . S
C479 C481 1.353 . S
C479 H520 0.929 . S
C480 C478 1.356 . S
C480 C482 1.358 . S
C480 H521 0.930 . S
C481 C479 1.353 . S
C481 N483 1.314 . S
C481 H522 0.930 . S
C482 C480 1.358 . S
C482 N483 1.279 . S
C482 H523 0.930 . S
N483 C481 1.314 . S
N483 C482 1.279 . S
C484 C486 1.353 . S
C484 N487 1.314 . S
C484 H490 0.930 . S
C485 N487 1.279 . S
C485 C488 1.358 . S
C485 H491 0.930 . S
C486 C484 1.353 . S
C486 C489 1.348 . S
C486 H524 0.929 . S
N487 Li442 1.990 . S
N487 C484 1.314 . S
N487 C485 1.279 . S
C488 C485 1.358 . S
C488 C489 1.356 . S
C488 H525 0.930 . S
C489 C486 1.348 . S
C489 C488 1.356 . S
H490 C484 0.930 . S
H491 C485 0.930 . S
C492 N493 1.314 . S
C492 C494 1.353 . S
C492 H498 0.930 . S
N493 Li443 1.990 . S
N493 C492 1.314 . S
N493 C496 1.279 . S
C494 C492 1.353 . S
C494 C497 1.348 . S
C494 H526 0.929 . S
C495 C496 1.358 . S
C495 C497 1.356 . S
C495 H527 0.930 . S
C496 N493 1.279 . S
C496 C495 1.358 . S
C496 H499 0.930 . S
C497 C494 1.348 . S
C497 C495 1.356 . S
H498 C492 0.930 . S
H499 C496 0.930 . S
O500 Li440 1.956 . S
O500 Li441 1.970 . S
O500 Li442 1.961 . S
O500 C444 1.325 . S
O501 Li440 1.970 . S
O501 Li441 1.956 . S
O501 Li443 1.961 . S
O501 C450 1.325 . S
O502 Li440 1.961 . S
O502 Li442 1.956 . S
O502 Li443 1.970 . S
O502 C472 1.325 . S
O503 Li441 1.961 . S
O503 Li442 1.970 . S
O503 Li443 1.956 . S
O503 C478 1.325 . S
H504 C446 0.929 . S
H505 C447 0.930 . S
H506 C448 0.930 . S
H507 C449 0.930 . S
H508 C451 0.930 . S
H509 C453 0.929 . S
H510 C454 0.930 . S
H511 C455 0.930 . S
H512 C458 0.930 . S
H513 C461 0.929 . S
H514 C466 0.929 . S
H515 C467 0.930 . S
H516 C474 0.929 . S
H517 C475 0.930 . S
H518 C476 0.930 . S
H519 C477 0.930 . S
H520 C479 0.929 . S
H521 C480 0.930 . S
H522 C481 0.930 . S
H523 C482 0.930 . S
H524 C486 0.929 . S
H525 C488 0.930 . S
H526 C494 0.929 . S
H527 C495 0.930 . S
Li528 N545 1.990 . S
Li528 O588 1.956 . S
Li528 O589 1.970 . S
Li528 O590 1.961 . S
Li529 N553 1.990 . S
Li529 O588 1.970 . S
Li529 O589 1.956 . S
Li529 O591 1.961 . S
Li530 N575 1.990 . S
Li530 O588 1.961 . S
Li530 O590 1.956 . S
Li530 O591 1.970 . S
Li531 N581 1.990 . S
Li531 O589 1.961 . S
Li531 O590 1.970 . S
Li531 O591 1.956 . S
C532 C534 1.348 . S
C532 C535 1.356 . S
C532 O588 1.325 . S
N533 C536 1.314 . S
N533 C537 1.279 . S
C534 C532 1.348 . S
C534 C536 1.353 . S
C534 H592 0.929 . S
C535 C532 1.356 . S
C535 C537 1.358 . S
C535 H593 0.930 . S
C536 N533 1.314 . S
C536 C534 1.353 . S
C536 H594 0.930 . S
C537 N533 1.279 . S
C537 C535 1.358 . S
C537 H595 0.930 . S
C538 C541 1.348 . S
C538 C542 1.356 . S
C538 O589 1.325 . S
C539 N540 1.279 . S
C539 C542 1.358 . S
C539 H596 0.930 . S
N540 C539 1.279 . S
N540 C543 1.314 . S
C541 C538 1.348 . S
C541 C543 1.353 . S
C541 H597 0.929 . S
C542 C538 1.356 . S
C542 C539 1.358 . S
C542 H598 0.930 . S
C543 N540 1.314 . S
C543 C541 1.353 . S
C543 H599 0.930 . S
C544 N545 1.314 . S
C544 C549 1.353 . S
C544 H550 0.930 . S
N545 Li528 1.990 . S
N545 C544 1.314 . S
N545 C547 1.279 . S
C546 C547 1.358 . S
C546 C548 1.356 . S
C546 H600 0.930 . S
C547 N545 1.279 . S
C547 C546 1.358 . S
C547 H551 0.930 . S
C548 C546 1.356 . S
C548 C549 1.348 . S
C549 C544 1.353 . S
C549 C548 1.348 . S
C549 H601 0.929 . S
H550 C544 0.930 . S
H551 C547 0.930 . S
C552 N553 1.314 . S
C552 C554 1.353 . S
C552 H558 0.930 . S
N553 Li529 1.990 . S
N553 C552 1.314 . S
N553 C556 1.279 . S
C554 C552 1.353 . S
C554 C557 1.348 . S
C554 H602 0.929 . S
C555 C556 1.358 . S
C555 C557 1.356 . S
C555 H603 0.930 . S
C556 N553 1.279 . S
C556 C555 1.358 . S
C556 H559 0.930 . S
C557 C554 1.348 . S
C557 C555 1.356 . S
H558 C552 0.930 . S
H559 C556 0.930 . S
C560 C562 1.348 . S
C560 C563 1.356 . S
C560 O590 1.325 . S
N561 C564 1.314 . S
N561 C565 1.279 . S
C562 C560 1.348 . S
C562 C564 1.353 . S
C562 H604 0.929 . S
C563 C560 1.356 . S
C563 C565 1.358 . S
C563 H605 0.930 . S
C564 N561 1.314 . S
C564 C562 1.353 . S
C564 H606 0.930 . S
C565 N561 1.279 . S
C565 C563 1.358 . S
C565 H607 0.930 . S
C566 C567 1.348 . S
C566 C568 1.356 . S
C566 O591 1.325 . S
C567 C566 1.348 . S
C567 C569 1.353 . S
C567 H608 0.929 . S
C568 C566 1.356 . S
C568 C570 1.358 . S
C568 H609 0.930 . S
C569 C567 1.353 . S
C569 N571 1.314 . S
C569 H610 0.930 . S
C570 C568 1.358 . S
C570 N571 1.279 . S
C570 H611 0.930 . S
N571 C569 1.314 . S
N571 C570 1.279 . S
C572 C574 1.353 . S
C572 N575 1.314 . S
C572 H578 0.930 . S
C573 N575 1.279 . S
C573 C576 1.358 . S
C573 H579 0.930 . S
C574 C572 1.353 . S
C574 C577 1.348 . S
C574 H612 0.929 . S
N575 Li530 1.990 . S
N575 C572 1.314 . S
N575 C573 1.279 . S
C576 C573 1.358 . S
C576 C577 1.356 . S
C576 H613 0.930 . S
C577 C574 1.348 . S
C577 C576 1.356 . S
H578 C572 0.930 . S
H579 C573 0.930 . S
C580 N581 1.314 . S
C580 C582 1.353 . S
C580 H586 0.930 . S
N581 Li531 1.990 . S
N581 C580 1.314 . S
N581 C584 1.279 . S
C582 C580 1.353 . S
C582 C585 1.348 . S
C582 H614 0.929 . S
C583 C584 1.358 . S
C583 C585 1.356 . S
C583 H615 0.930 . S
C584 N581 1.279 . S
C584 C583 1.358 . S
C584 H587 0.930 . S
C585 C582 1.348 . S
C585 C583 1.356 . S
H586 C580 0.930 . S
H587 C584 0.930 . S
O588 Li528 1.956 . S
O588 Li529 1.970 . S
O588 Li530 1.961 . S
O588 C532 1.325 . S
O589 Li528 1.970 . S
O589 Li529 1.956 . S
O589 Li531 1.961 . S
O589 C538 1.325 . S
O590 Li528 1.961 . S
O590 Li530 1.956 . S
O590 Li531 1.970 . S
O590 C560 1.325 . S
O591 Li529 1.961 . S
O591 Li530 1.970 . S
O591 Li531 1.956 . S
O591 C566 1.325 . S
H592 C534 0.929 . S
H593 C535 0.930 . S
H594 C536 0.930 . S
H595 C537 0.930 . S
H596 C539 0.930 . S
H597 C541 0.929 . S
H598 C542 0.930 . S
H599 C543 0.930 . S
H600 C546 0.930 . S
H601 C549 0.929 . S
H602 C554 0.929 . S
H603 C555 0.930 . S
H604 C562 0.929 . S
H605 C563 0.930 . S
H606 C564 0.930 . S
H607 C565 0.930 . S
H608 C567 0.929 . S
H609 C568 0.930 . S
H610 C569 0.930 . S
H611 C570 0.930 . S
H612 C574 0.929 . S
H613 C576 0.930 . S
H614 C582 0.929 . S
H615 C583 0.930 . S
Li616 N633 1.990 1_556 S
Li616 O676 1.956 . S
Li616 O677 1.970 . S
Li616 O678 1.961 . S
Li617 N641 1.990 . S
Li617 O676 1.970 . S
Li617 O677 1.956 . S
Li617 O679 1.961 . S
Li618 N663 1.990 1_655 S
Li618 O676 1.961 . S
Li618 O678 1.956 . S
Li618 O679 1.970 . S
Li619 N669 1.990 . S
Li619 O677 1.961 . S
Li619 O678 1.970 . S
Li619 O679 1.956 . S
C620 C622 1.348 . S
C620 C623 1.356 . S
C620 O676 1.325 1_454 S
N621 C624 1.314 . S
N621 C625 1.279 . S
C622 C620 1.348 . S
C622 C624 1.353 . S
C622 H680 0.981 . S
C623 C620 1.356 . S
C623 C625 1.358 . S
C623 H681 0.930 . S
C624 N621 1.314 . S
C624 C622 1.353 . S
C624 H682 0.930 . S
C625 N621 1.279 . S
C625 C623 1.358 . S
C625 H683 0.930 . S
C626 C629 1.348 1_556 S
C626 C630 1.356 . S
C626 O677 1.325 . S
C627 N628 1.279 1_556 S
C627 C630 1.358 . S
C627 H684 0.930 . S
N628 C627 1.279 1_554 S
N628 C631 1.314 . S
C629 C626 1.348 1_554 S
C629 C631 1.353 . S
C629 H685 0.929 . S
C630 C626 1.356 . S
C630 C627 1.358 . S
C630 H686 0.930 . S
C631 N628 1.314 . S
C631 C629 1.353 . S
C631 H687 0.930 . S
C632 N633 1.314 . S
C632 C637 1.353 . S
C632 H638 0.930 . S
N633 Li616 1.990 1_554 S
N633 C632 1.314 . S
N633 C635 1.279 . S
C634 C635 1.358 . S
C634 C636 1.356 . S
C634 H688 0.930 . S
C635 N633 1.279 . S
C635 C634 1.358 . S
C635 H639 0.930 . S
C636 C634 1.356 . S
C636 C637 1.348 . S
C637 C632 1.353 . S
C637 C636 1.348 . S
C637 H689 0.929 . S
H638 C632 0.930 . S
H639 C635 0.930 . S
C640 N641 1.314 . S
C640 C642 1.353 . S
C640 H646 0.904 1_655 S
N641 Li617 1.990 . S
N641 C640 1.314 . S
N641 C644 1.279 . S
C642 C640 1.353 . S
C642 C645 1.348 . S
C642 H690 0.929 1_655 S
C643 C644 1.358 . S
C643 C645 1.356 . S
C643 H691 0.930 . S
C644 N641 1.279 . S
C644 C643 1.358 . S
C644 H647 0.930 . S
C645 C642 1.348 . S
C645 C643 1.356 . S
H646 C640 0.904 1_455 S
H647 C644 0.930 . S
C648 C650 1.348 . S
C648 C651 1.356 . S
C648 O678 1.325 . S
N649 C652 1.314 . S
N649 C653 1.279 . S
C650 C648 1.348 . S
C650 C652 1.353 . S
C650 H692 0.929 . S
C651 C648 1.356 . S
C651 C653 1.358 . S
C651 H693 0.930 . S
C652 N649 1.314 . S
C652 C650 1.353 . S
C652 H694 0.930 . S
C653 N649 1.279 . S
C653 C651 1.358 . S
C653 H695 0.930 . S
C654 C655 1.345 . S
C654 C656 1.356 . S
C654 O679 1.325 . S
C655 C654 1.345 . S
C655 C657 1.354 1_655 S
C655 H696 0.932 1_655 S
C656 C654 1.356 . S
C656 C658 1.358 . S
C656 H697 0.930 . S
C657 C655 1.354 1_455 S
C657 N659 1.314 1_455 S
C657 H698 0.930 . S
C658 C656 1.358 . S
C658 N659 1.279 . S
C658 H699 0.930 . S
N659 C657 1.314 1_655 S
N659 C658 1.279 . S
C660 C662 1.353 . S
C660 N663 1.314 . S
C660 H666 0.930 . S
C661 N663 1.279 . S
C661 C664 1.358 . S
C661 H667 0.930 . S
C662 C660 1.353 . S
C662 C665 1.348 . S
C662 H700 0.929 . S
N663 Li618 1.990 1_455 S
N663 C660 1.314 . S
N663 C661 1.279 . S
C664 C661 1.358 . S
C664 C665 1.356 . S
C664 H701 0.930 . S
C665 C662 1.348 . S
C665 C664 1.356 . S
H666 C660 0.930 . S
H667 C661 0.930 . S
C668 N669 1.314 . S
C668 C670 1.353 . S
C668 H674 0.930 . S
N669 Li619 1.990 . S
N669 C668 1.314 . S
N669 C672 1.279 . S
C670 C668 1.353 . S
C670 C673 1.348 . S
C670 H702 0.929 . S
C671 C672 1.358 . S
C671 C673 1.356 . S
C671 H703 0.930 . S
C672 N669 1.279 . S
C672 C671 1.358 . S
C672 H675 0.930 . S
C673 C670 1.348 . S
C673 C671 1.356 . S
H674 C668 0.930 . S
H675 C672 0.930 . S
O676 Li616 1.956 . S
O676 Li617 1.970 . S
O676 Li618 1.961 . S
O676 C620 1.325 1_656 S
O677 Li616 1.970 . S
O677 Li617 1.956 . S
O677 Li619 1.961 . S
O677 C626 1.325 . S
O678 Li616 1.961 . S
O678 Li618 1.956 . S
O678 Li619 1.970 . S
O678 C648 1.325 . S
O679 Li617 1.961 . S
O679 Li618 1.970 . S
O679 Li619 1.956 . S
O679 C654 1.325 . S
H680 C622 0.981 . S
H681 C623 0.930 . S
H682 C624 0.930 . S
H683 C625 0.930 . S
H684 C627 0.930 . S
H685 C629 0.929 . S
H686 C630 0.930 . S
H687 C631 0.930 . S
H688 C634 0.930 . S
H689 C637 0.929 . S
H690 C642 0.929 1_455 S
H691 C643 0.930 . S
H692 C650 0.929 . S
H693 C651 0.930 . S
H694 C652 0.930 . S
H695 C653 0.930 . S
H696 C655 0.932 1_455 S
H697 C656 0.930 . S
H698 C657 0.930 . S
H699 C658 0.930 . S
H700 C662 0.929 . S
H701 C664 0.930 . S
H702 C670 0.929 . S
H703 C671 0.930 . S
Li704 N721 1.990 . S
Li704 O764 1.956 . S
Li704 O765 1.970 . S
Li704 O766 1.961 . S
Li705 N729 1.990 . S
Li705 O764 1.970 . S
Li705 O765 1.956 . S
Li705 O767 1.961 . S
Li706 N751 1.990 . S
Li706 O764 1.961 . S
Li706 O766 1.956 . S
Li706 O767 1.970 . S
Li707 N757 1.990 . S
Li707 O765 1.961 . S
Li707 O766 1.970 . S
Li707 O767 1.956 . S
C708 C710 1.348 . S
C708 C711 1.356 . S
C708 O764 1.325 . S
N709 C712 1.314 . S
N709 C713 1.279 . S
C710 C708 1.348 . S
C710 C712 1.353 . S
C710 H768 0.929 . S
C711 C708 1.356 . S
C711 C713 1.358 . S
C711 H769 0.930 . S
C712 N709 1.314 . S
C712 C710 1.353 . S
C712 H770 0.930 . S
C713 N709 1.279 . S
C713 C711 1.358 . S
C713 H771 0.930 . S
C714 C717 1.348 . S
C714 C718 1.356 . S
C714 O765 1.325 . S
C715 N716 1.279 . S
C715 C718 1.358 . S
C715 H772 0.930 . S
N716 C715 1.279 . S
N716 C719 1.314 . S
C717 C714 1.348 . S
C717 C719 1.353 . S
C717 H773 0.929 . S
C718 C714 1.356 . S
C718 C715 1.358 . S
C718 H774 0.930 . S
C719 N716 1.314 . S
C719 C717 1.353 . S
C719 H775 0.930 . S
C720 N721 1.314 . S
C720 C725 1.353 . S
C720 H726 0.930 . S
N721 Li704 1.990 . S
N721 C720 1.314 . S
N721 C723 1.279 . S
C722 C723 1.358 . S
C722 C724 1.356 . S
C722 H776 0.930 . S
C723 N721 1.279 . S
C723 C722 1.358 . S
C723 H727 0.930 . S
C724 C722 1.356 . S
C724 C725 1.348 . S
C725 C720 1.353 . S
C725 C724 1.348 . S
C725 H777 0.929 . S
H726 C720 0.930 . S
H727 C723 0.930 . S
C728 N729 1.314 . S
C728 C730 1.353 . S
C728 H734 0.930 . S
N729 Li705 1.990 . S
N729 C728 1.314 . S
N729 C732 1.279 . S
C730 C728 1.353 . S
C730 C733 1.348 . S
C730 H778 0.929 . S
C731 C732 1.358 . S
C731 C733 1.356 . S
C731 H779 0.930 . S
C732 N729 1.279 . S
C732 C731 1.358 . S
C732 H735 0.930 . S
C733 C730 1.348 . S
C733 C731 1.356 . S
H734 C728 0.930 . S
H735 C732 0.930 . S
C736 C738 1.348 . S
C736 C739 1.356 . S
C736 O766 1.325 . S
N737 C740 1.314 . S
N737 C741 1.279 . S
C738 C736 1.348 . S
C738 C740 1.353 . S
C738 H780 0.929 . S
C739 C736 1.356 . S
C739 C741 1.358 . S
C739 H781 0.930 . S
C740 N737 1.314 . S
C740 C738 1.353 . S
C740 H782 0.930 . S
C741 N737 1.279 . S
C741 C739 1.358 . S
C741 H783 0.930 . S
C742 C743 1.348 . S
C742 C744 1.356 . S
C742 O767 1.325 . S
C743 C742 1.348 . S
C743 C745 1.353 . S
C743 H784 0.929 . S
C744 C742 1.356 . S
C744 C746 1.358 . S
C744 H785 0.930 . S
C745 C743 1.353 . S
C745 N747 1.314 . S
C745 H786 0.930 . S
C746 C744 1.358 . S
C746 N747 1.279 . S
C746 H787 0.930 . S
N747 C745 1.314 . S
N747 C746 1.279 . S
C748 C750 1.353 . S
C748 N751 1.314 . S
C748 H754 0.930 . S
C749 N751 1.279 . S
C749 C752 1.358 . S
C749 H755 0.930 . S
C750 C748 1.353 . S
C750 C753 1.348 . S
C750 H788 0.929 . S
N751 Li706 1.990 . S
N751 C748 1.314 . S
N751 C749 1.279 . S
C752 C749 1.358 . S
C752 C753 1.356 . S
C752 H789 0.930 . S
C753 C750 1.348 . S
C753 C752 1.356 . S
H754 C748 0.930 . S
H755 C749 0.930 . S
C756 N757 1.314 . S
C756 C758 1.353 . S
C756 H762 0.930 . S
N757 Li707 1.990 . S
N757 C756 1.314 . S
N757 C760 1.279 . S
C758 C756 1.353 . S
C758 C761 1.348 . S
C758 H790 0.929 . S
C759 C760 1.358 . S
C759 C761 1.356 . S
C759 H791 0.930 . S
C760 N757 1.279 . S
C760 C759 1.358 . S
C760 H763 0.930 . S
C761 C758 1.348 . S
C761 C759 1.356 . S
H762 C756 0.930 . S
H763 C760 0.930 . S
O764 Li704 1.956 . S
O764 Li705 1.970 . S
O764 Li706 1.961 . S
O764 C708 1.325 . S
O765 Li704 1.970 . S
O765 Li705 1.956 . S
O765 Li707 1.961 . S
O765 C714 1.325 . S
O766 Li704 1.961 . S
O766 Li706 1.956 . S
O766 Li707 1.970 . S
O766 C736 1.325 . S
O767 Li705 1.961 . S
O767 Li706 1.970 . S
O767 Li707 1.956 . S
O767 C742 1.325 . S
H768 C710 0.929 . S
H769 C711 0.930 . S
H770 C712 0.930 . S
H771 C713 0.930 . S
H772 C715 0.930 . S
H773 C717 0.929 . S
H774 C718 0.930 . S
H775 C719 0.930 . S
H776 C722 0.930 . S
H777 C725 0.929 . S
H778 C730 0.929 . S
H779 C731 0.930 . S
H780 C738 0.929 . S
H781 C739 0.930 . S
H782 C740 0.930 . S
H783 C741 0.930 . S
H784 C743 0.929 . S
H785 C744 0.930 . S
H786 C745 0.930 . S
H787 C746 0.930 . S
H788 C750 0.929 . S
H789 C752 0.930 . S
H790 C758 0.929 . S
H791 C759 0.930 . S
Li792 N809 1.990 . S
Li792 O852 1.956 . S
Li792 O853 1.970 . S
Li792 O854 1.961 . S
Li793 N817 1.990 . S
Li793 O852 1.970 . S
Li793 O853 1.956 . S
Li793 O855 1.961 . S
Li794 N839 1.990 . S
Li794 O852 1.961 . S
Li794 O854 1.956 . S
Li794 O855 1.970 . S
Li795 N845 1.990 1_455 S
Li795 O853 1.961 . S
Li795 O854 1.970 . S
Li795 O855 1.956 . S
C796 C798 1.348 . S
C796 C799 1.356 . S
C796 O852 1.325 . S
N797 C800 1.314 . S
N797 C801 1.279 . S
C798 C796 1.348 . S
C798 C800 1.353 . S
C798 H856 0.929 . S
C799 C796 1.356 . S
C799 C801 1.358 . S
C799 H857 0.930 . S
C800 N797 1.314 . S
C800 C798 1.353 . S
C800 H858 0.930 . S
C801 N797 1.279 . S
C801 C799 1.358 . S
C801 H859 0.930 . S
C802 C805 1.348 . S
C802 C806 1.356 . S
C802 O853 1.325 . S
C803 N804 1.279 . S
C803 C806 1.358 . S
C803 H860 0.930 . S
N804 C803 1.279 . S
N804 C807 1.314 . S
C805 C802 1.348 . S
C805 C807 1.353 . S
C805 H861 0.929 . S
C806 C802 1.356 . S
C806 C803 1.358 . S
C806 H862 0.925 1_455 S
C807 N804 1.314 . S
C807 C805 1.353 . S
C807 H863 0.930 . S
C808 N809 1.314 . S
C808 C813 1.353 . S
C808 H814 0.930 . S
N809 Li792 1.990 . S
N809 C808 1.314 . S
N809 C811 1.279 . S
C810 C811 1.358 . S
C810 C812 1.356 . S
C810 H864 0.930 . S
C811 N809 1.279 . S
C811 C810 1.358 . S
C811 H815 0.930 . S
C812 C810 1.356 . S
C812 C813 1.348 . S
C813 C808 1.353 . S
C813 C812 1.348 . S
C813 H865 0.929 . S
H814 C808 0.930 . S
H815 C811 0.930 . S
C816 N817 1.314 . S
C816 C818 1.353 . S
C816 H822 0.930 . S
N817 Li793 1.990 . S
N817 C816 1.314 . S
N817 C820 1.279 . S
C818 C816 1.353 . S
C818 C821 1.348 . S
C818 H866 0.929 . S
C819 C820 1.358 . S
C819 C821 1.356 . S
C819 H867 0.930 . S
C820 N817 1.279 . S
C820 C819 1.358 . S
C820 H823 0.930 . S
C821 C818 1.348 . S
C821 C819 1.356 . S
H822 C816 0.930 . S
H823 C820 0.930 . S
C824 C826 1.348 1_455 S
C824 C827 1.356 . S
C824 O854 1.325 . S
N825 C828 1.314 1_455 S
N825 C829 1.279 . S
C826 C824 1.348 1_655 S
C826 C828 1.353 . S
C826 H868 0.929 . S
C827 C824 1.356 . S
C827 C829 1.358 . S
C827 H869 0.930 . S
C828 N825 1.314 1_655 S
C828 C826 1.353 . S
C828 H870 0.930 . S
C829 N825 1.279 . S
C829 C827 1.358 . S
C829 H871 0.930 . S
C830 C831 1.348 . S
C830 C832 1.356 . S
C830 O855 1.325 1_655 S
C831 C830 1.348 . S
C831 C833 1.353 . S
C831 H872 0.929 . S
C832 C830 1.356 . S
C832 C834 1.358 . S
C832 H873 0.930 . S
C833 C831 1.353 . S
C833 N835 1.314 . S
C833 H874 0.930 . S
C834 C832 1.358 . S
C834 N835 1.279 . S
C834 H875 0.930 . S
N835 C833 1.314 . S
N835 C834 1.279 . S
C836 C838 1.353 . S
C836 N839 1.314 . S
C836 H842 0.930 . S
C837 N839 1.279 . S
C837 C840 1.358 . S
C837 H843 0.930 . S
C838 C836 1.353 . S
C838 C841 1.348 . S
C838 H876 0.929 . S
N839 Li794 1.990 . S
N839 C836 1.314 . S
N839 C837 1.279 . S
C840 C837 1.358 . S
C840 C841 1.356 . S
C840 H877 0.930 . S
C841 C838 1.348 . S
C841 C840 1.356 . S
H842 C836 0.930 . S
H843 C837 0.930 . S
C844 N845 1.314 . S
C844 C846 1.353 . S
C844 H850 0.930 . S
N845 Li795 1.990 1_655 S
N845 C844 1.314 . S
N845 C848 1.279 . S
C846 C844 1.353 . S
C846 C849 1.348 . S
C846 H878 0.929 . S
C847 C848 1.358 . S
C847 C849 1.356 . S
C847 H879 0.930 . S
C848 N845 1.279 . S
C848 C847 1.358 . S
C848 H851 0.930 . S
C849 C846 1.348 . S
C849 C847 1.356 . S
H850 C844 0.930 . S
H851 C848 0.930 . S
O852 Li792 1.956 . S
O852 Li793 1.970 . S
O852 Li794 1.961 . S
O852 C796 1.325 . S
O853 Li792 1.970 . S
O853 Li793 1.956 . S
O853 Li795 1.961 . S
O853 C802 1.325 . S
O854 Li792 1.961 . S
O854 Li794 1.956 . S
O854 Li795 1.970 . S
O854 C824 1.325 . S
O855 Li793 1.961 . S
O855 Li794 1.970 . S
O855 Li795 1.956 . S
O855 C830 1.325 1_455 S
H856 C798 0.929 . S
H857 C799 0.930 . S
H858 C800 0.930 . S
H859 C801 0.930 . S
H860 C803 0.930 . S
H861 C805 0.929 . S
H862 C806 0.925 1_655 S
H863 C807 0.930 . S
H864 C810 0.930 . S
H865 C813 0.929 . S
H866 C818 0.929 . S
H867 C819 0.930 . S
H868 C826 0.929 . S
H869 C827 0.930 . S
H870 C828 0.930 . S
H871 C829 0.930 . S
H872 C831 0.929 . S
H873 C832 0.930 . S
H874 C833 0.930 . S
H875 C834 0.930 . S
H876 C838 0.929 . S
H877 C840 0.930 . S
H878 C846 0.929 . S
H879 C847 0.930 . S
Li880 N897 1.990 . S
Li880 O940 1.956 . S
Li880 O941 1.970 . S
Li880 O942 1.961 . S
Li881 N905 1.990 . S
Li881 O940 1.970 . S
Li881 O941 1.956 . S
Li881 O943 1.961 . S
Li882 N927 1.990 . S
Li882 O940 1.961 . S
Li882 O942 1.956 . S
Li882 O943 1.970 . S
Li883 N933 1.990 . S
Li883 O941 1.961 . S
Li883 O942 1.970 . S
Li883 O943 1.956 . S
C884 C886 1.348 . S
C884 C887 1.356 . S
C884 O940 1.325 . S
N885 C888 1.314 . S
N885 C889 1.279 . S
C886 C884 1.348 . S
C886 C888 1.353 . S
C886 H944 0.929 . S
C887 C884 1.356 . S
C887 C889 1.358 . S
C887 H945 0.930 . S
C888 N885 1.314 . S
C888 C886 1.353 . S
C888 H946 0.930 . S
C889 N885 1.279 . S
C889 C887 1.358 . S
C889 H947 0.930 . S
C890 C893 1.348 . S
C890 C894 1.356 . S
C890 O941 1.325 . S
C891 N892 1.279 . S
C891 C894 1.358 . S
C891 H948 0.930 . S
N892 C891 1.279 . S
N892 C895 1.314 . S
C893 C890 1.348 . S
C893 C895 1.353 . S
C893 H949 0.929 . S
C894 C890 1.356 . S
C894 C891 1.358 . S
C894 H950 0.930 . S
C895 N892 1.314 . S
C895 C893 1.353 . S
C895 H951 0.930 . S
C896 N897 1.314 . S
C896 C901 1.353 . S
C896 H902 0.930 . S
N897 Li880 1.990 . S
N897 C896 1.314 . S
N897 C899 1.279 . S
C898 C899 1.358 . S
C898 C900 1.356 . S
C898 H952 0.930 . S
C899 N897 1.279 . S
C899 C898 1.358 . S
C899 H903 0.930 . S
C900 C898 1.356 . S
C900 C901 1.348 . S
C901 C896 1.353 . S
C901 C900 1.348 . S
C901 H953 0.929 . S
H902 C896 0.930 . S
H903 C899 0.930 . S
C904 N905 1.314 . S
C904 C906 1.353 . S
C904 H910 0.930 . S
N905 Li881 1.990 . S
N905 C904 1.314 . S
N905 C908 1.279 . S
C906 C904 1.353 . S
C906 C909 1.348 . S
C906 H954 0.929 . S
C907 C908 1.358 . S
C907 C909 1.356 . S
C907 H955 0.930 . S
C908 N905 1.279 . S
C908 C907 1.358 . S
C908 H911 0.930 . S
C909 C906 1.348 . S
C909 C907 1.356 . S
H910 C904 0.930 . S
H911 C908 0.930 . S
C912 C914 1.348 . S
C912 C915 1.356 . S
C912 O942 1.325 . S
N913 C916 1.314 . S
N913 C917 1.279 . S
C914 C912 1.348 . S
C914 C916 1.353 . S
C914 H956 0.929 . S
C915 C912 1.356 . S
C915 C917 1.358 . S
C915 H957 0.930 . S
C916 N913 1.314 . S
C916 C914 1.353 . S
C916 H958 0.930 . S
C917 N913 1.279 . S
C917 C915 1.358 . S
C917 H959 0.930 . S
C918 C919 1.348 . S
C918 C920 1.356 . S
C918 O943 1.325 . S
C919 C918 1.348 . S
C919 C921 1.353 . S
C919 H960 0.929 . S
C920 C918 1.356 . S
C920 C922 1.358 . S
C920 H961 0.930 . S
C921 C919 1.353 . S
C921 N923 1.314 . S
C921 H962 0.930 . S
C922 C920 1.358 . S
C922 N923 1.279 . S
C922 H963 0.930 . S
N923 C921 1.314 . S
N923 C922 1.279 . S
C924 C926 1.353 . S
C924 N927 1.314 . S
C924 H930 0.930 . S
C925 N927 1.279 . S
C925 C928 1.358 . S
C925 H931 0.930 . S
C926 C924 1.353 . S
C926 C929 1.348 . S
C926 H964 0.929 . S
N927 Li882 1.990 . S
N927 C924 1.314 . S
N927 C925 1.279 . S
C928 C925 1.358 . S
C928 C929 1.356 . S
C928 H965 0.930 . S
C929 C926 1.348 . S
C929 C928 1.356 . S
H930 C924 0.930 . S
H931 C925 0.930 . S
C932 N933 1.314 . S
C932 C934 1.353 . S
C932 H938 0.930 . S
N933 Li883 1.990 . S
N933 C932 1.314 . S
N933 C936 1.279 . S
C934 C932 1.353 . S
C934 C937 1.348 . S
C934 H966 0.929 . S
C935 C936 1.358 . S
C935 C937 1.356 . S
C935 H967 0.930 . S
C936 N933 1.279 . S
C936 C935 1.358 . S
C936 H939 0.930 . S
C937 C934 1.348 . S
C937 C935 1.356 . S
H938 C932 0.930 . S
H939 C936 0.930 . S
O940 Li880 1.956 . S
O940 Li881 1.970 . S
O940 Li882 1.961 . S
O940 C884 1.325 . S
O941 Li880 1.970 . S
O941 Li881 1.956 . S
O941 Li883 1.961 . S
O941 C890 1.325 . S
O942 Li880 1.961 . S
O942 Li882 1.956 . S
O942 Li883 1.970 . S
O942 C912 1.325 . S
O943 Li881 1.961 . S
O943 Li882 1.970 . S
O943 Li883 1.956 . S
O943 C918 1.325 . S
H944 C886 0.929 . S
H945 C887 0.930 . S
H946 C888 0.930 . S
H947 C889 0.930 . S
H948 C891 0.930 . S
H949 C893 0.929 . S
H950 C894 0.930 . S
H951 C895 0.930 . S
H952 C898 0.930 . S
H953 C901 0.929 . S
H954 C906 0.929 . S
H955 C907 0.930 . S
H956 C914 0.929 . S
H957 C915 0.930 . S
H958 C916 0.930 . S
H959 C917 0.930 . S
H960 C919 0.929 . S
H961 C920 0.930 . S
H962 C921 0.930 . S
H963 C922 0.930 . S
H964 C926 0.929 . S
H965 C928 0.930 . S
H966 C934 0.929 . S
H967 C935 0.930 . S
Li968 N985 1.990 . S
Li968 O1028 1.956 . S
Li968 O1029 1.970 . S
Li968 O1030 1.961 . S
Li969 N993 1.990 . S
Li969 O1028 1.970 . S
Li969 O1029 1.956 . S
Li969 O1031 1.961 . S
Li970 N1015 1.990 1_556 S
Li970 O1028 1.961 . S
Li970 O1030 1.956 . S
Li970 O1031 1.970 . S
Li971 N1021 1.990 . S
Li971 O1029 1.961 . S
Li971 O1030 1.970 . S
Li971 O1031 1.956 . S
C972 C974 1.348 . S
C972 C975 1.356 . S
C972 O1028 1.325 1_554 S
N973 C976 1.314 . S
N973 C977 1.279 . S
C974 C972 1.348 . S
C974 C976 1.353 . S
C974 H1032 0.929 1_554 S
C975 C972 1.356 . S
C975 C977 1.358 . S
C975 H1033 0.930 . S
C976 N973 1.314 . S
C976 C974 1.353 . S
C976 H1034 0.930 . S
C977 N973 1.279 . S
C977 C975 1.358 . S
C977 H1035 0.930 . S
C978 C981 1.348 . S
C978 C982 1.356 . S
C978 O1029 1.325 . S
C979 N980 1.279 . S
C979 C982 1.358 . S
C979 H1036 0.930 . S
N980 C979 1.279 . S
N980 C983 1.314 . S
C981 C978 1.348 . S
C981 C983 1.353 . S
C981 H1037 0.929 . S
C982 C978 1.356 . S
C982 C979 1.358 . S
C982 H1038 0.930 . S
C983 N980 1.314 . S
C983 C981 1.353 . S
C983 H1039 0.930 . S
C984 N985 1.314 . S
C984 C989 1.353 . S
C984 H990 0.930 . S
N985 Li968 1.990 . S
N985 C984 1.314 . S
N985 C987 1.279 . S
C986 C987 1.358 . S
C986 C988 1.356 . S
C986 H1040 0.930 . S
C987 N985 1.279 . S
C987 C986 1.358 . S
C987 H991 0.930 . S
C988 C986 1.356 . S
C988 C989 1.348 . S
C989 C984 1.353 . S
C989 C988 1.348 . S
C989 H1041 0.929 . S
H990 C984 0.930 . S
H991 C987 0.930 . S
C992 N993 1.314 . S
C992 C994 1.353 . S
C992 H998 0.930 1_556 S
N993 Li969 1.990 . S
N993 C992 1.314 . S
N993 C996 1.279 . S
C994 C992 1.353 . S
C994 C997 1.348 . S
C994 H1042 0.929 1_556 S
C995 C996 1.358 . S
C995 C997 1.356 . S
C995 H1043 0.930 . S
C996 N993 1.279 . S
C996 C995 1.358 . S
C996 H999 0.930 . S
C997 C994 1.348 . S
C997 C995 1.356 . S
H998 C992 0.930 1_554 S
H999 C996 0.930 . S
C1000 C1002 1.348 . S
C1000 C1003 1.356 . S
C1000 O1030 1.325 . S
N1001 C1004 1.314 . S
N1001 C1005 1.279 . S
C1002 C1000 1.348 . S
C1002 C1004 1.353 . S
C1002 H1044 0.929 . S
C1003 C1000 1.356 . S
C1003 C1005 1.358 . S
C1003 H1045 0.930 . S
C1004 N1001 1.314 . S
C1004 C1002 1.353 . S
C1004 H1046 0.930 . S
C1005 N1001 1.279 . S
C1005 C1003 1.358 . S
C1005 H1047 0.930 . S
C1006 C1007 1.348 1_556 S
C1006 C1008 1.356 . S
C1006 O1031 1.325 . S
C1007 C1006 1.348 1_554 S
C1007 C1009 1.353 . S
C1007 H1048 0.929 . S
C1008 C1006 1.356 . S
C1008 C1010 1.358 . S
C1008 H1049 0.930 . S
C1009 C1007 1.353 . S
C1009 N1011 1.314 . S
C1009 H1050 0.930 . S
C1010 C1008 1.358 . S
C1010 N1011 1.279 1_556 S
C1010 H1051 0.930 . S
N1011 C1009 1.314 . S
N1011 C1010 1.279 1_554 S
C1012 C1014 1.353 . S
C1012 N1015 1.314 . S
C1012 H1018 0.930 . S
C1013 N1015 1.279 . S
C1013 C1016 1.358 . S
C1013 H1019 0.930 . S
C1014 C1012 1.353 . S
C1014 C1017 1.348 . S
C1014 H1052 0.929 . S
N1015 Li970 1.990 1_554 S
N1015 C1012 1.314 . S
N1015 C1013 1.279 . S
C1016 C1013 1.358 . S
C1016 C1017 1.356 . S
C1016 H1053 0.930 . S
C1017 C1014 1.348 . S
C1017 C1016 1.356 . S
H1018 C1012 0.930 . S
H1019 C1013 0.930 . S
C1020 N1021 1.314 . S
C1020 C1022 1.353 . S
C1020 H1026 0.930 . S
N1021 Li971 1.990 . S
N1021 C1020 1.314 . S
N1021 C1024 1.279 . S
C1022 C1020 1.353 . S
C1022 C1025 1.348 . S
C1022 H1054 0.929 . S
C1023 C1024 1.358 . S
C1023 C1025 1.356 . S
C1023 H1055 0.930 . S
C1024 N1021 1.279 . S
C1024 C1023 1.358 . S
C1024 H1027 0.930 . S
C1025 C1022 1.348 . S
C1025 C1023 1.356 . S
H1026 C1020 0.930 . S
H1027 C1024 0.930 . S
O1028 Li968 1.956 . S
O1028 Li969 1.970 . S
O1028 Li970 1.961 . S
O1028 C972 1.325 1_556 S
O1029 Li968 1.970 . S
O1029 Li969 1.956 . S
O1029 Li971 1.961 . S
O1029 C978 1.325 . S
O1030 Li968 1.961 . S
O1030 Li970 1.956 . S
O1030 Li971 1.970 . S
O1030 C1000 1.325 . S
O1031 Li969 1.961 . S
O1031 Li970 1.970 . S
O1031 Li971 1.956 . S
O1031 C1006 1.325 . S
H1032 C974 0.929 1_556 S
H1033 C975 0.930 . S
H1034 C976 0.930 . S
H1035 C977 0.930 . S
H1036 C979 0.930 . S
H1037 C981 0.929 . S
H1038 C982 0.930 . S
H1039 C983 0.930 . S
H1040 C986 0.930 . S
H1041 C989 0.929 . S
H1042 C994 0.929 1_554 S
H1043 C995 0.930 . S
H1044 C1002 0.929 . S
H1045 C1003 0.930 . S
H1046 C1004 0.930 . S
H1047 C1005 0.930 . S
H1048 C1007 0.929 . S
H1049 C1008 0.930 . S
H1050 C1009 0.930 . S
H1051 C1010 0.930 . S
H1052 C1014 0.929 . S
H1053 C1016 0.930 . S
H1054 C1022 0.929 . S
H1055 C1023 0.930 . S
Li1056 N1073 1.990 . S
Li1056 O1116 1.956 . S
Li1056 O1117 1.970 . S
Li1056 O1118 1.961 . S
Li1057 N1081 1.990 . S
Li1057 O1116 1.970 . S
Li1057 O1117 1.956 . S
Li1057 O1119 1.961 . S
Li1058 N1103 1.990 . S
Li1058 O1116 1.961 . S
Li1058 O1118 1.956 . S
Li1058 O1119 1.970 . S
Li1059 N1109 1.990 . S
Li1059 O1117 1.961 . S
Li1059 O1118 1.970 . S
Li1059 O1119 1.956 . S
C1060 C1062 1.348 . S
C1060 C1063 1.356 . S
C1060 O1116 1.325 . S
N1061 C1064 1.314 . S
N1061 C1065 1.279 . S
C1062 C1060 1.348 . S
C1062 C1064 1.353 . S
C1062 H1120 0.929 . S
C1063 C1060 1.356 . S
C1063 C1065 1.358 . S
C1063 H1121 0.930 . S
C1064 N1061 1.314 . S
C1064 C1062 1.353 . S
C1064 H1122 0.930 . S
C1065 N1061 1.279 . S
C1065 C1063 1.358 . S
C1065 H1123 0.930 . S
C1066 C1069 1.348 . S
C1066 C1070 1.356 . S
C1066 O1117 1.325 . S
C1067 N1068 1.279 . S
C1067 C1070 1.358 . S
C1067 H1124 0.930 . S
N1068 C1067 1.279 . S
N1068 C1071 1.314 . S
C1069 C1066 1.348 . S
C1069 C1071 1.353 . S
C1069 H1125 0.929 . S
C1070 C1066 1.356 . S
C1070 C1067 1.358 . S
C1070 H1126 0.930 . S
C1071 N1068 1.314 . S
C1071 C1069 1.353 . S
C1071 H1127 0.930 . S
C1072 N1073 1.314 . S
C1072 C1077 1.353 . S
C1072 H1078 0.930 . S
N1073 Li1056 1.990 . S
N1073 C1072 1.314 . S
N1073 C1075 1.279 . S
C1074 C1075 1.358 . S
C1074 C1076 1.356 . S
C1074 H1128 0.930 . S
C1075 N1073 1.279 . S
C1075 C1074 1.358 . S
C1075 H1079 0.930 . S
C1076 C1074 1.356 . S
C1076 C1077 1.348 . S
C1077 C1072 1.353 . S
C1077 C1076 1.348 . S
C1077 H1129 0.929 . S
H1078 C1072 0.930 . S
H1079 C1075 0.930 . S
C1080 N1081 1.314 . S
C1080 C1082 1.353 . S
C1080 H1086 0.930 . S
N1081 Li1057 1.990 . S
N1081 C1080 1.314 . S
N1081 C1084 1.279 . S
C1082 C1080 1.353 . S
C1082 C1085 1.348 . S
C1082 H1130 0.929 . S
C1083 C1084 1.358 . S
C1083 C1085 1.356 . S
C1083 H1131 0.930 . S
C1084 N1081 1.279 . S
C1084 C1083 1.358 . S
C1084 H1087 0.930 . S
C1085 C1082 1.348 . S
C1085 C1083 1.356 . S
H1086 C1080 0.930 . S
H1087 C1084 0.930 . S
C1088 C1090 1.348 . S
C1088 C1091 1.356 . S
C1088 O1118 1.325 . S
N1089 C1092 1.314 . S
N1089 C1093 1.279 . S
C1090 C1088 1.348 . S
C1090 C1092 1.353 . S
C1090 H1132 0.929 . S
C1091 C1088 1.356 . S
C1091 C1093 1.358 . S
C1091 H1133 0.930 . S
C1092 N1089 1.314 . S
C1092 C1090 1.353 . S
C1092 H1134 0.930 . S
C1093 N1089 1.279 . S
C1093 C1091 1.358 . S
C1093 H1135 0.930 . S
C1094 C1095 1.348 . S
C1094 C1096 1.356 . S
C1094 O1119 1.325 . S
C1095 C1094 1.348 . S
C1095 C1097 1.353 . S
C1095 H1136 0.929 . S
C1096 C1094 1.356 . S
C1096 C1098 1.358 . S
C1096 H1137 0.930 . S
C1097 C1095 1.353 . S
C1097 N1099 1.314 . S
C1097 H1138 0.930 . S
C1098 C1096 1.358 . S
C1098 N1099 1.279 . S
C1098 H1139 0.930 . S
N1099 C1097 1.314 . S
N1099 C1098 1.279 . S
C1100 C1102 1.353 . S
C1100 N1103 1.314 . S
C1100 H1106 0.930 . S
C1101 N1103 1.279 . S
C1101 C1104 1.358 . S
C1101 H1107 0.930 . S
C1102 C1100 1.353 . S
C1102 C1105 1.348 . S
C1102 H1140 0.929 . S
N1103 Li1058 1.990 . S
N1103 C1100 1.314 . S
N1103 C1101 1.279 . S
C1104 C1101 1.358 . S
C1104 C1105 1.356 . S
C1104 H1141 0.930 . S
C1105 C1102 1.348 . S
C1105 C1104 1.356 . S
H1106 C1100 0.930 . S
H1107 C1101 0.930 . S
C1108 N1109 1.314 . S
C1108 C1110 1.353 . S
C1108 H1114 0.930 . S
N1109 Li1059 1.990 . S
N1109 C1108 1.314 . S
N1109 C1112 1.279 . S
C1110 C1108 1.353 . S
C1110 C1113 1.348 . S
C1110 H1142 0.929 . S
C1111 C1112 1.358 . S
C1111 C1113 1.356 . S
C1111 H1143 0.930 . S
C1112 N1109 1.279 . S
C1112 C1111 1.358 . S
C1112 H1115 0.930 . S
C1113 C1110 1.348 . S
C1113 C1111 1.356 . S
H1114 C1108 0.930 . S
H1115 C1112 0.930 . S
O1116 Li1056 1.956 . S
O1116 Li1057 1.970 . S
O1116 Li1058 1.961 . S
O1116 C1060 1.325 . S
O1117 Li1056 1.970 . S
O1117 Li1057 1.956 . S
O1117 Li1059 1.961 . S
O1117 C1066 1.325 . S
O1118 Li1056 1.961 . S
O1118 Li1058 1.956 . S
O1118 Li1059 1.970 . S
O1118 C1088 1.325 . S
O1119 Li1057 1.961 . S
O1119 Li1058 1.970 . S
O1119 Li1059 1.956 . S
O1119 C1094 1.325 . S
H1120 C1062 0.929 . S
H1121 C1063 0.930 . S
H1122 C1064 0.930 . S
H1123 C1065 0.930 . S
H1124 C1067 0.930 . S
H1125 C1069 0.929 . S
H1126 C1070 0.930 . S
H1127 C1071 0.930 . S
H1128 C1074 0.930 . S
H1129 C1077 0.929 . S
H1130 C1082 0.929 . S
H1131 C1083 0.930 . S
H1132 C1090 0.929 . S
H1133 C1091 0.930 . S
H1134 C1092 0.930 . S
H1135 C1093 0.930 . S
H1136 C1095 0.929 . S
H1137 C1096 0.930 . S
H1138 C1097 0.930 . S
H1139 C1098 0.930 . S
H1140 C1102 0.929 . S
H1141 C1104 0.930 . S
H1142 C1110 0.929 . S
H1143 C1111 0.930 . S
Li1144 N1161 1.990 . S
Li1144 O1204 1.956 . S
Li1144 O1205 1.970 . S
Li1144 O1206 1.961 . S
Li1145 N1169 1.990 . S
Li1145 O1204 1.970 . S
Li1145 O1205 1.956 . S
Li1145 O1207 1.961 . S
Li1146 N1191 1.990 . S
Li1146 O1204 1.961 . S
Li1146 O1206 1.956 . S
Li1146 O1207 1.970 . S
Li1147 N1197 1.990 . S
Li1147 O1205 1.961 . S
Li1147 O1206 1.970 . S
Li1147 O1207 1.956 . S
C1148 C1150 1.348 . S
C1148 C1151 1.356 . S
C1148 O1204 1.325 . S
N1149 C1152 1.314 . S
N1149 C1153 1.279 . S
C1150 C1148 1.348 . S
C1150 C1152 1.353 . S
C1150 H1208 0.929 . S
C1151 C1148 1.356 . S
C1151 C1153 1.358 . S
C1151 H1209 0.930 . S
C1152 N1149 1.314 . S
C1152 C1150 1.353 . S
C1152 H1210 0.930 . S
C1153 N1149 1.279 . S
C1153 C1151 1.358 . S
C1153 H1211 0.930 . S
C1154 C1157 1.348 . S
C1154 C1158 1.356 . S
C1154 O1205 1.325 . S
C1155 N1156 1.279 . S
C1155 C1158 1.358 . S
C1155 H1212 0.930 . S
N1156 C1155 1.279 . S
N1156 C1159 1.314 . S
C1157 C1154 1.348 . S
C1157 C1159 1.353 . S
C1157 H1213 0.929 . S
C1158 C1154 1.356 . S
C1158 C1155 1.358 . S
C1158 H1214 0.930 . S
C1159 N1156 1.314 . S
C1159 C1157 1.353 . S
C1159 H1215 0.930 . S
C1160 N1161 1.314 . S
C1160 C1165 1.353 . S
C1160 H1166 0.930 . S
N1161 Li1144 1.990 . S
N1161 C1160 1.314 . S
N1161 C1163 1.279 . S
C1162 C1163 1.358 . S
C1162 C1164 1.356 . S
C1162 H1216 0.930 . S
C1163 N1161 1.279 . S
C1163 C1162 1.358 . S
C1163 H1167 0.930 . S
C1164 C1162 1.356 . S
C1164 C1165 1.348 . S
C1165 C1160 1.353 . S
C1165 C1164 1.348 . S
C1165 H1217 0.929 . S
H1166 C1160 0.930 . S
H1167 C1163 0.930 . S
C1168 N1169 1.314 . S
C1168 C1170 1.353 . S
C1168 H1174 0.930 . S
N1169 Li1145 1.990 . S
N1169 C1168 1.314 . S
N1169 C1172 1.279 . S
C1170 C1168 1.353 . S
C1170 C1173 1.348 . S
C1170 H1218 0.929 . S
C1171 C1172 1.358 . S
C1171 C1173 1.356 . S
C1171 H1219 0.930 . S
C1172 N1169 1.279 . S
C1172 C1171 1.358 . S
C1172 H1175 0.930 . S
C1173 C1170 1.348 . S
C1173 C1171 1.356 . S
H1174 C1168 0.930 . S
H1175 C1172 0.930 . S
C1176 C1178 1.348 . S
C1176 C1179 1.356 . S
C1176 O1206 1.325 . S
N1177 C1180 1.314 . S
N1177 C1181 1.279 . S
C1178 C1176 1.348 . S
C1178 C1180 1.353 . S
C1178 H1220 0.929 . S
C1179 C1176 1.356 . S
C1179 C1181 1.358 . S
C1179 H1221 0.930 . S
C1180 N1177 1.314 . S
C1180 C1178 1.353 . S
C1180 H1222 0.930 . S
C1181 N1177 1.279 . S
C1181 C1179 1.358 . S
C1181 H1223 0.930 . S
C1182 C1183 1.348 . S
C1182 C1184 1.356 . S
C1182 O1207 1.325 . S
C1183 C1182 1.348 . S
C1183 C1185 1.353 . S
C1183 H1224 0.929 . S
C1184 C1182 1.356 . S
C1184 C1186 1.358 . S
C1184 H1225 0.930 . S
C1185 C1183 1.353 . S
C1185 N1187 1.314 . S
C1185 H1226 0.930 . S
C1186 C1184 1.358 . S
C1186 N1187 1.279 . S
C1186 H1227 0.930 . S
N1187 C1185 1.314 . S
N1187 C1186 1.279 . S
C1188 C1190 1.353 . S
C1188 N1191 1.314 . S
C1188 H1194 0.930 . S
C1189 N1191 1.279 . S
C1189 C1192 1.358 . S
C1189 H1195 0.930 . S
C1190 C1188 1.353 . S
C1190 C1193 1.348 . S
C1190 H1228 0.929 . S
N1191 Li1146 1.990 . S
N1191 C1188 1.314 . S
N1191 C1189 1.279 . S
C1192 C1189 1.358 . S
C1192 C1193 1.356 . S
C1192 H1229 0.930 . S
C1193 C1190 1.348 . S
C1193 C1192 1.356 . S
H1194 C1188 0.930 . S
H1195 C1189 0.930 . S
C1196 N1197 1.314 . S
C1196 C1198 1.353 . S
C1196 H1202 0.930 . S
N1197 Li1147 1.990 . S
N1197 C1196 1.314 . S
N1197 C1200 1.279 . S
C1198 C1196 1.353 . S
C1198 C1201 1.348 . S
C1198 H1230 0.929 . S
C1199 C1200 1.358 . S
C1199 C1201 1.356 . S
C1199 H1231 0.930 . S
C1200 N1197 1.279 . S
C1200 C1199 1.358 . S
C1200 H1203 0.930 . S
C1201 C1198 1.348 . S
C1201 C1199 1.356 . S
H1202 C1196 0.930 . S
H1203 C1200 0.930 . S
O1204 Li1144 1.956 . S
O1204 Li1145 1.970 . S
O1204 Li1146 1.961 . S
O1204 C1148 1.325 . S
O1205 Li1144 1.970 . S
O1205 Li1145 1.956 . S
O1205 Li1147 1.961 . S
O1205 C1154 1.325 . S
O1206 Li1144 1.961 . S
O1206 Li1146 1.956 . S
O1206 Li1147 1.970 . S
O1206 C1176 1.325 . S
O1207 Li1145 1.961 . S
O1207 Li1146 1.970 . S
O1207 Li1147 1.956 . S
O1207 C1182 1.325 . S
H1208 C1150 0.929 . S
H1209 C1151 0.930 . S
H1210 C1152 0.930 . S
H1211 C1153 0.930 . S
H1212 C1155 0.930 . S
H1213 C1157 0.929 . S
H1214 C1158 0.930 . S
H1215 C1159 0.930 . S
H1216 C1162 0.930 . S
H1217 C1165 0.929 . S
H1218 C1170 0.929 . S
H1219 C1171 0.930 . S
H1220 C1178 0.929 . S
H1221 C1179 0.930 . S
H1222 C1180 0.930 . S
H1223 C1181 0.930 . S
H1224 C1183 0.929 . S
H1225 C1184 0.930 . S
H1226 C1185 0.930 . S
H1227 C1186 0.930 . S
H1228 C1190 0.929 . S
H1229 C1192 0.930 . S
H1230 C1198 0.929 . S
H1231 C1199 0.930 . S
Li1232 N1249 1.990 . S
Li1232 O1292 1.956 . S
Li1232 O1293 1.970 . S
Li1232 O1294 1.961 . S
Li1233 N1257 1.990 . S
Li1233 O1292 1.970 . S
Li1233 O1293 1.956 . S
Li1233 O1295 1.961 . S
Li1234 N1279 1.990 . S
Li1234 O1292 1.961 . S
Li1234 O1294 1.956 . S
Li1234 O1295 1.970 . S
Li1235 N1285 1.990 . S
Li1235 O1293 1.961 . S
Li1235 O1294 1.970 . S
Li1235 O1295 1.956 . S
C1236 C1238 1.348 . S
C1236 C1239 1.356 . S
C1236 O1292 1.325 . S
N1237 C1240 1.314 . S
N1237 C1241 1.279 . S
C1238 C1236 1.348 . S
C1238 C1240 1.353 . S
C1238 H1296 0.929 . S
C1239 C1236 1.356 . S
C1239 C1241 1.358 . S
C1239 H1297 0.930 . S
C1240 N1237 1.314 . S
C1240 C1238 1.353 . S
C1240 H1298 0.930 . S
C1241 N1237 1.279 . S
C1241 C1239 1.358 . S
C1241 H1299 0.930 . S
C1242 C1245 1.348 . S
C1242 C1246 1.356 . S
C1242 O1293 1.325 . S
C1243 N1244 1.279 . S
C1243 C1246 1.358 . S
C1243 H1300 0.930 . S
N1244 C1243 1.279 . S
N1244 C1247 1.314 . S
C1245 C1242 1.348 . S
C1245 C1247 1.353 . S
C1245 H1301 0.929 . S
C1246 C1242 1.356 . S
C1246 C1243 1.358 . S
C1246 H1302 0.930 . S
C1247 N1244 1.314 . S
C1247 C1245 1.353 . S
C1247 H1303 0.930 . S
C1248 N1249 1.314 . S
C1248 C1253 1.353 . S
C1248 H1254 0.930 . S
N1249 Li1232 1.990 . S
N1249 C1248 1.314 . S
N1249 C1251 1.279 . S
C1250 C1251 1.358 . S
C1250 C1252 1.356 . S
C1250 H1304 0.930 . S
C1251 N1249 1.279 . S
C1251 C1250 1.358 . S
C1251 H1255 0.930 . S
C1252 C1250 1.356 . S
C1252 C1253 1.348 . S
C1253 C1248 1.353 . S
C1253 C1252 1.348 . S
C1253 H1305 0.929 . S
H1254 C1248 0.930 . S
H1255 C1251 0.930 . S
C1256 N1257 1.314 . S
C1256 C1258 1.353 . S
C1256 H1262 0.930 . S
N1257 Li1233 1.990 . S
N1257 C1256 1.314 . S
N1257 C1260 1.279 . S
C1258 C1256 1.353 . S
C1258 C1261 1.348 . S
C1258 H1306 0.929 . S
C1259 C1260 1.358 . S
C1259 C1261 1.356 . S
C1259 H1307 0.930 . S
C1260 N1257 1.279 . S
C1260 C1259 1.358 . S
C1260 H1263 0.930 . S
C1261 C1258 1.348 . S
C1261 C1259 1.356 . S
H1262 C1256 0.930 . S
H1263 C1260 0.930 . S
C1264 C1266 1.348 . S
C1264 C1267 1.356 . S
C1264 O1294 1.325 . S
N1265 C1268 1.314 . S
N1265 C1269 1.279 . S
C1266 C1264 1.348 . S
C1266 C1268 1.353 . S
C1266 H1308 0.929 . S
C1267 C1264 1.356 . S
C1267 C1269 1.358 . S
C1267 H1309 0.930 . S
C1268 N1265 1.314 . S
C1268 C1266 1.353 . S
C1268 H1310 0.930 . S
C1269 N1265 1.279 . S
C1269 C1267 1.358 . S
C1269 H1311 0.930 . S
C1270 C1271 1.348 . S
C1270 C1272 1.356 . S
C1270 O1295 1.325 . S
C1271 C1270 1.348 . S
C1271 C1273 1.353 . S
C1271 H1312 0.929 . S
C1272 C1270 1.356 . S
C1272 C1274 1.358 . S
C1272 H1313 0.930 . S
C1273 C1271 1.353 . S
C1273 N1275 1.314 . S
C1273 H1314 0.930 . S
C1274 C1272 1.358 . S
C1274 N1275 1.279 . S
C1274 H1315 0.930 . S
N1275 C1273 1.314 . S
N1275 C1274 1.279 . S
C1276 C1278 1.353 . S
C1276 N1279 1.314 . S
C1276 H1282 0.930 . S
C1277 N1279 1.279 . S
C1277 C1280 1.358 . S
C1277 H1283 0.930 . S
C1278 C1276 1.353 . S
C1278 C1281 1.348 . S
C1278 H1316 0.929 . S
N1279 Li1234 1.990 . S
N1279 C1276 1.314 . S
N1279 C1277 1.279 . S
C1280 C1277 1.358 . S
C1280 C1281 1.356 . S
C1280 H1317 0.930 . S
C1281 C1278 1.348 . S
C1281 C1280 1.356 . S
H1282 C1276 0.930 . S
H1283 C1277 0.930 . S
C1284 N1285 1.314 . S
C1284 C1286 1.353 . S
C1284 H1290 0.930 . S
N1285 Li1235 1.990 . S
N1285 C1284 1.314 . S
N1285 C1288 1.279 . S
C1286 C1284 1.353 . S
C1286 C1289 1.348 . S
C1286 H1318 0.929 . S
C1287 C1288 1.358 . S
C1287 C1289 1.356 . S
C1287 H1319 0.930 . S
C1288 N1285 1.279 . S
C1288 C1287 1.358 . S
C1288 H1291 0.930 . S
C1289 C1286 1.348 . S
C1289 C1287 1.356 . S
H1290 C1284 0.930 . S
H1291 C1288 0.930 . S
O1292 Li1232 1.956 . S
O1292 Li1233 1.970 . S
O1292 Li1234 1.961 . S
O1292 C1236 1.325 . S
O1293 Li1232 1.970 . S
O1293 Li1233 1.956 . S
O1293 Li1235 1.961 . S
O1293 C1242 1.325 . S
O1294 Li1232 1.961 . S
O1294 Li1234 1.956 . S
O1294 Li1235 1.970 . S
O1294 C1264 1.325 . S
O1295 Li1233 1.961 . S
O1295 Li1234 1.970 . S
O1295 Li1235 1.956 . S
O1295 C1270 1.325 . S
H1296 C1238 0.929 . S
H1297 C1239 0.930 . S
H1298 C1240 0.930 . S
H1299 C1241 0.930 . S
H1300 C1243 0.930 . S
H1301 C1245 0.929 . S
H1302 C1246 0.930 . S
H1303 C1247 0.930 . S
H1304 C1250 0.930 . S
H1305 C1253 0.929 . S
H1306 C1258 0.929 . S
H1307 C1259 0.930 . S
H1308 C1266 0.929 . S
H1309 C1267 0.930 . S
H1310 C1268 0.930 . S
H1311 C1269 0.930 . S
H1312 C1271 0.929 . S
H1313 C1272 0.930 . S
H1314 C1273 0.930 . S
H1315 C1274 0.930 . S
H1316 C1278 0.929 . S
H1317 C1280 0.930 . S
H1318 C1286 0.929 . S
H1319 C1287 0.930 . S
Li1320 N1337 1.990 1_455 S
Li1320 O1380 1.956 . S
Li1320 O1381 1.970 . S
Li1320 O1382 1.961 . S
Li1321 N1345 1.990 . S
Li1321 O1380 1.970 . S
Li1321 O1381 1.956 . S
Li1321 O1383 1.961 . S
Li1322 N1367 1.990 1_554 S
Li1322 O1380 1.961 . S
Li1322 O1382 1.956 . S
Li1322 O1383 1.970 . S
Li1323 N1373 1.990 . S
Li1323 O1381 1.961 . S
Li1323 O1382 1.970 . S
Li1323 O1383 1.956 . S
C1324 C1326 1.348 . S
C1324 C1327 1.356 . S
C1324 O1380 1.325 1_656 S
N1325 C1328 1.314 . S
N1325 C1329 1.279 . S
C1326 C1324 1.348 . S
C1326 C1328 1.353 . S
C1326 H1384 0.929 1_556 S
C1327 C1324 1.356 . S
C1327 C1329 1.358 . S
C1327 H1385 0.930 . S
C1328 N1325 1.314 . S
C1328 C1326 1.353 . S
C1328 H1386 0.930 . S
C1329 N1325 1.279 . S
C1329 C1327 1.358 . S
C1329 H1387 0.930 . S
C1330 C1333 1.348 1_455 S
C1330 C1334 1.356 . S
C1330 O1381 1.325 . S
C1331 N1332 1.279 . S
C1331 C1334 1.358 . S
C1331 H1388 0.930 . S
N1332 C1331 1.279 . S
N1332 C1335 1.314 1_455 S
C1333 C1330 1.348 1_655 S
C1333 C1335 1.353 . S
C1333 H1389 0.929 . S
C1334 C1330 1.356 . S
C1334 C1331 1.358 . S
C1334 H1390 0.930 . S
C1335 N1332 1.314 1_655 S
C1335 C1333 1.353 . S
C1335 H1391 0.930 . S
C1336 N1337 1.314 . S
C1336 C1341 1.353 . S
C1336 H1342 0.930 . S
N1337 Li1320 1.990 1_655 S
N1337 C1336 1.314 . S
N1337 C1339 1.279 . S
C1338 C1339 1.358 . S
C1338 C1340 1.356 . S
C1338 H1392 0.930 . S
C1339 N1337 1.279 . S
C1339 C1338 1.358 . S
C1339 H1343 0.930 . S
C1340 C1338 1.356 . S
C1340 C1341 1.348 . S
C1341 C1336 1.353 . S
C1341 C1340 1.348 . S
C1341 H1393 0.929 . S
H1342 C1336 0.930 . S
H1343 C1339 0.930 . S
C1344 N1345 1.314 . S
C1344 C1346 1.353 . S
C1344 H1350 0.930 1_554 S
N1345 Li1321 1.990 . S
N1345 C1344 1.314 . S
N1345 C1348 1.279 . S
C1346 C1344 1.353 . S
C1346 C1349 1.348 . S
C1346 H1394 0.929 1_554 S
C1347 C1348 1.358 . S
C1347 C1349 1.356 . S
C1347 H1395 0.930 . S
C1348 N1345 1.279 . S
C1348 C1347 1.358 . S
C1348 H1351 0.930 . S
C1349 C1346 1.348 . S
C1349 C1347 1.356 . S
H1350 C1344 0.930 1_556 S
H1351 C1348 0.930 . S
C1352 C1354 1.348 . S
C1352 C1355 1.356 . S
C1352 O1382 1.325 . S
N1353 C1356 1.314 . S
N1353 C1357 1.279 . S
C1354 C1352 1.348 . S
C1354 C1356 1.353 . S
C1354 H1396 0.929 . S
C1355 C1352 1.356 . S
C1355 C1357 1.358 . S
C1355 H1397 0.925 1_455 S
C1356 N1353 1.314 . S
C1356 C1354 1.353 . S
C1356 H1398 0.930 . S
C1357 N1353 1.279 . S
C1357 C1355 1.358 . S
C1357 H1399 0.930 . S
C1358 C1359 1.348 1_554 S
C1358 C1360 1.356 . S
C1358 O1383 1.325 . S
C1359 C1358 1.348 1_556 S
C1359 C1361 1.353 . S
C1359 H1400 0.929 . S
C1360 C1358 1.356 . S
C1360 C1362 1.358 . S
C1360 H1401 0.930 . S
C1361 C1359 1.353 . S
C1361 N1363 1.314 . S
C1361 H1402 0.930 . S
C1362 C1360 1.358 . S
C1362 N1363 1.279 1_554 S
C1362 H1403 0.930 . S
N1363 C1361 1.314 . S
N1363 C1362 1.279 1_556 S
C1364 C1366 1.353 . S
C1364 N1367 1.314 . S
C1364 H1370 0.930 . S
C1365 N1367 1.279 . S
C1365 C1368 1.358 . S
C1365 H1371 0.930 . S
C1366 C1364 1.353 . S
C1366 C1369 1.348 . S
C1366 H1404 0.929 . S
N1367 Li1322 1.990 1_556 S
N1367 C1364 1.314 . S
N1367 C1365 1.279 . S
C1368 C1365 1.358 . S
C1368 C1369 1.356 . S
C1368 H1405 0.930 . S
C1369 C1366 1.348 . S
C1369 C1368 1.356 . S
H1370 C1364 0.930 . S
H1371 C1365 0.930 . S
C1372 N1373 1.314 . S
C1372 C1374 1.353 . S
C1372 H1378 0.930 . S
N1373 Li1323 1.990 . S
N1373 C1372 1.314 . S
N1373 C1376 1.279 . S
C1374 C1372 1.353 . S
C1374 C1377 1.348 . S
C1374 H1406 0.929 . S
C1375 C1376 1.358 . S
C1375 C1377 1.356 . S
C1375 H1407 0.930 . S
C1376 N1373 1.279 . S
C1376 C1375 1.358 . S
C1376 H1379 0.930 . S
C1377 C1374 1.348 . S
C1377 C1375 1.356 . S
H1378 C1372 0.930 . S
H1379 C1376 0.930 . S
O1380 Li1320 1.956 . S
O1380 Li1321 1.970 . S
O1380 Li1322 1.961 . S
O1380 C1324 1.325 1_454 S
O1381 Li1320 1.970 . S
O1381 Li1321 1.956 . S
O1381 Li1323 1.961 . S
O1381 C1330 1.325 . S
O1382 Li1320 1.961 . S
O1382 Li1322 1.956 . S
O1382 Li1323 1.970 . S
O1382 C1352 1.325 . S
O1383 Li1321 1.961 . S
O1383 Li1322 1.970 . S
O1383 Li1323 1.956 . S
O1383 C1358 1.325 . S
H1384 C1326 0.929 1_554 S
H1385 C1327 0.930 . S
H1386 C1328 0.930 . S
H1387 C1329 0.930 . S
H1388 C1331 0.930 . S
H1389 C1333 0.929 . S
H1390 C1334 0.930 . S
H1391 C1335 0.930 . S
H1392 C1338 0.930 . S
H1393 C1341 0.929 . S
H1394 C1346 0.929 1_556 S
H1395 C1347 0.930 . S
H1396 C1354 0.929 . S
H1397 C1355 0.925 1_655 S
H1398 C1356 0.930 . S
H1399 C1357 0.930 . S
H1400 C1359 0.929 . S
H1401 C1360 0.930 . S
H1402 C1361 0.930 . S
H1403 C1362 0.930 . S
H1404 C1366 0.929 . S
H1405 C1368 0.930 . S
H1406 C1374 0.929 . S
H1407 C1375 0.930 . S
Li1408 N1425 1.990 . S
Li1408 O1468 1.956 . S
Li1408 O1469 1.970 . S
Li1408 O1470 1.961 . S
Li1409 N1433 1.990 . S
Li1409 O1468 1.970 . S
Li1409 O1469 1.956 . S
Li1409 O1471 1.961 . S
Li1410 N1455 1.990 . S
Li1410 O1468 1.961 . S
Li1410 O1470 1.956 . S
Li1410 O1471 1.970 . S
Li1411 N1461 1.990 . S
Li1411 O1469 1.961 . S
Li1411 O1470 1.970 . S
Li1411 O1471 1.956 . S
C1412 C1414 1.348 . S
C1412 C1415 1.356 . S
C1412 O1468 1.325 . S
N1413 C1416 1.314 . S
N1413 C1417 1.279 . S
C1414 C1412 1.348 . S
C1414 C1416 1.353 . S
C1414 H1472 0.929 . S
C1415 C1412 1.356 . S
C1415 C1417 1.358 . S
C1415 H1473 0.930 . S
C1416 N1413 1.314 . S
C1416 C1414 1.353 . S
C1416 H1474 0.930 . S
C1417 N1413 1.279 . S
C1417 C1415 1.358 . S
C1417 H1475 0.930 . S
C1418 C1421 1.348 . S
C1418 C1422 1.356 . S
C1418 O1469 1.325 . S
C1419 N1420 1.279 . S
C1419 C1422 1.358 . S
C1419 H1476 0.930 . S
N1420 C1419 1.279 . S
N1420 C1423 1.314 . S
C1421 C1418 1.348 . S
C1421 C1423 1.353 . S
C1421 H1477 0.929 . S
C1422 C1418 1.356 . S
C1422 C1419 1.358 . S
C1422 H1478 0.930 . S
C1423 N1420 1.314 . S
C1423 C1421 1.353 . S
C1423 H1479 0.930 . S
C1424 N1425 1.314 . S
C1424 C1429 1.353 . S
C1424 H1430 0.930 . S
N1425 Li1408 1.990 . S
N1425 C1424 1.314 . S
N1425 C1427 1.279 . S
C1426 C1427 1.358 . S
C1426 C1428 1.356 . S
C1426 H1480 0.930 . S
C1427 N1425 1.279 . S
C1427 C1426 1.358 . S
C1427 H1431 0.930 . S
C1428 C1426 1.356 . S
C1428 C1429 1.348 . S
C1429 C1424 1.353 . S
C1429 C1428 1.348 . S
C1429 H1481 0.929 . S
H1430 C1424 0.930 . S
H1431 C1427 0.930 . S
C1432 N1433 1.314 . S
C1432 C1434 1.353 . S
C1432 H1438 0.930 . S
N1433 Li1409 1.990 . S
N1433 C1432 1.314 . S
N1433 C1436 1.279 . S
C1434 C1432 1.353 . S
C1434 C1437 1.348 . S
C1434 H1482 0.929 . S
C1435 C1436 1.358 . S
C1435 C1437 1.356 . S
C1435 H1483 0.930 . S
C1436 N1433 1.279 . S
C1436 C1435 1.358 . S
C1436 H1439 0.930 . S
C1437 C1434 1.348 . S
C1437 C1435 1.356 . S
H1438 C1432 0.930 . S
H1439 C1436 0.930 . S
C1440 C1442 1.348 . S
C1440 C1443 1.356 . S
C1440 O1470 1.325 . S
N1441 C1444 1.314 . S
N1441 C1445 1.279 . S
C1442 C1440 1.348 . S
C1442 C1444 1.353 . S
C1442 H1484 0.929 . S
C1443 C1440 1.356 . S
C1443 C1445 1.358 . S
C1443 H1485 0.930 . S
C1444 N1441 1.314 . S
C1444 C1442 1.353 . S
C1444 H1486 0.930 . S
C1445 N1441 1.279 . S
C1445 C1443 1.358 . S
C1445 H1487 0.930 . S
C1446 C1447 1.348 . S
C1446 C1448 1.356 . S
C1446 O1471 1.325 . S
C1447 C1446 1.348 . S
C1447 C1449 1.353 . S
C1447 H1488 0.929 . S
C1448 C1446 1.356 . S
C1448 C1450 1.358 . S
C1448 H1489 0.930 . S
C1449 C1447 1.353 . S
C1449 N1451 1.314 . S
C1449 H1490 0.930 . S
C1450 C1448 1.358 . S
C1450 N1451 1.279 . S
C1450 H1491 0.930 . S
N1451 C1449 1.314 . S
N1451 C1450 1.279 . S
C1452 C1454 1.353 . S
C1452 N1455 1.314 . S
C1452 H1458 0.930 . S
C1453 N1455 1.279 . S
C1453 C1456 1.358 . S
C1453 H1459 0.930 . S
C1454 C1452 1.353 . S
C1454 C1457 1.348 . S
C1454 H1492 0.929 . S
N1455 Li1410 1.990 . S
N1455 C1452 1.314 . S
N1455 C1453 1.279 . S
C1456 C1453 1.358 . S
C1456 C1457 1.356 . S
C1456 H1493 0.930 . S
C1457 C1454 1.348 . S
C1457 C1456 1.356 . S
H1458 C1452 0.930 . S
H1459 C1453 0.930 . S
C1460 N1461 1.314 . S
C1460 C1462 1.353 . S
C1460 H1466 0.930 . S
N1461 Li1411 1.990 . S
N1461 C1460 1.314 . S
N1461 C1464 1.279 . S
C1462 C1460 1.353 . S
C1462 C1465 1.348 . S
C1462 H1494 0.929 . S
C1463 C1464 1.358 . S
C1463 C1465 1.356 . S
C1463 H1495 0.930 . S
C1464 N1461 1.279 . S
C1464 C1463 1.358 . S
C1464 H1467 0.930 . S
C1465 C1462 1.348 . S
C1465 C1463 1.356 . S
H1466 C1460 0.930 . S
H1467 C1464 0.930 . S
O1468 Li1408 1.956 . S
O1468 Li1409 1.970 . S
O1468 Li1410 1.961 . S
O1468 C1412 1.325 . S
O1469 Li1408 1.970 . S
O1469 Li1409 1.956 . S
O1469 Li1411 1.961 . S
O1469 C1418 1.325 . S
O1470 Li1408 1.961 . S
O1470 Li1410 1.956 . S
O1470 Li1411 1.970 . S
O1470 C1440 1.325 . S
O1471 Li1409 1.961 . S
O1471 Li1410 1.970 . S
O1471 Li1411 1.956 . S
O1471 C1446 1.325 . S
H1472 C1414 0.929 . S
H1473 C1415 0.930 . S
H1474 C1416 0.930 . S
H1475 C1417 0.930 . S
H1476 C1419 0.930 . S
H1477 C1421 0.929 . S
H1478 C1422 0.930 . S
H1479 C1423 0.930 . S
H1480 C1426 0.930 . S
H1481 C1429 0.929 . S
H1482 C1434 0.929 . S
H1483 C1435 0.930 . S
H1484 C1442 0.929 . S
H1485 C1443 0.930 . S
H1486 C1444 0.930 . S
H1487 C1445 0.930 . S
H1488 C1447 0.929 . S
H1489 C1448 0.930 . S
H1490 C1449 0.930 . S
H1491 C1450 0.930 . S
H1492 C1454 0.929 . S
H1493 C1456 0.930 . S
H1494 C1462 0.929 . S
H1495 C1463 0.930 . S
Li1496 N1513 1.990 . S
Li1496 O1556 1.956 . S
Li1496 O1557 1.970 . S
Li1496 O1558 1.961 . S
Li1497 N1521 1.990 . S
Li1497 O1556 1.970 . S
Li1497 O1557 1.956 . S
Li1497 O1559 1.961 . S
Li1498 N1543 1.990 1_554 S
Li1498 O1556 1.961 . S
Li1498 O1558 1.956 . S
Li1498 O1559 1.970 . S
Li1499 N1549 1.990 . S
Li1499 O1557 1.961 . S
Li1499 O1558 1.970 . S
Li1499 O1559 1.956 . S
C1500 C1502 1.348 . S
C1500 C1503 1.356 . S
C1500 O1556 1.325 . S
N1501 C1504 1.314 . S
N1501 C1505 1.279 . S
C1502 C1500 1.348 . S
C1502 C1504 1.353 . S
C1502 H1560 0.929 . S
C1503 C1500 1.356 . S
C1503 C1505 1.358 . S
C1503 H1561 0.930 . S
C1504 N1501 1.314 . S
C1504 C1502 1.353 . S
C1504 H1562 0.930 . S
C1505 N1501 1.279 . S
C1505 C1503 1.358 . S
C1505 H1563 0.930 . S
C1506 C1509 1.348 . S
C1506 C1510 1.356 . S
C1506 O1557 1.325 . S
C1507 N1508 1.279 . S
C1507 C1510 1.358 . S
C1507 H1564 0.930 . S
N1508 C1507 1.279 . S
N1508 C1511 1.314 . S
C1509 C1506 1.348 . S
C1509 C1511 1.353 . S
C1509 H1565 0.929 . S
C1510 C1506 1.356 . S
C1510 C1507 1.358 . S
C1510 H1566 0.930 . S
C1511 N1508 1.314 . S
C1511 C1509 1.353 . S
C1511 H1567 0.930 . S
C1512 N1513 1.314 . S
C1512 C1517 1.353 . S
C1512 H1518 0.930 . S
N1513 Li1496 1.990 . S
N1513 C1512 1.314 . S
N1513 C1515 1.279 . S
C1514 C1515 1.358 . S
C1514 C1516 1.356 . S
C1514 H1568 0.930 . S
C1515 N1513 1.279 . S
C1515 C1514 1.358 . S
C1515 H1519 0.930 . S
C1516 C1514 1.356 . S
C1516 C1517 1.348 . S
C1517 C1512 1.353 . S
C1517 C1516 1.348 . S
C1517 H1569 0.929 . S
H1518 C1512 0.930 . S
H1519 C1515 0.930 . S
C1520 N1521 1.314 . S
C1520 C1522 1.353 . S
C1520 H1526 0.930 . S
N1521 Li1497 1.990 . S
N1521 C1520 1.314 . S
N1521 C1524 1.279 . S
C1522 C1520 1.353 . S
C1522 C1525 1.348 . S
C1522 H1570 0.929 . S
C1523 C1524 1.358 . S
C1523 C1525 1.356 . S
C1523 H1571 0.930 . S
C1524 N1521 1.279 . S
C1524 C1523 1.358 . S
C1524 H1527 0.930 . S
C1525 C1522 1.348 . S
C1525 C1523 1.356 . S
H1526 C1520 0.930 . S
H1527 C1524 0.930 . S
C1528 C1530 1.348 . S
C1528 C1531 1.356 . S
C1528 O1558 1.325 1_556 S
N1529 C1532 1.314 . S
N1529 C1533 1.279 . S
C1530 C1528 1.348 . S
C1530 C1532 1.353 . S
C1530 H1572 0.929 . S
C1531 C1528 1.356 . S
C1531 C1533 1.358 . S
C1531 H1573 0.930 . S
C1532 N1529 1.314 . S
C1532 C1530 1.353 . S
C1532 H1574 0.930 . S
C1533 N1529 1.279 . S
C1533 C1531 1.358 . S
C1533 H1575 0.930 . S
C1534 C1535 1.348 1_554 S
C1534 C1536 1.356 . S
C1534 O1559 1.325 . S
C1535 C1534 1.348 1_556 S
C1535 C1537 1.353 . S
C1535 H1576 0.929 . S
C1536 C1534 1.356 . S
C1536 C1538 1.358 . S
C1536 H1577 0.930 . S
C1537 C1535 1.353 . S
C1537 N1539 1.314 . S
C1537 H1578 0.930 . S
C1538 C1536 1.358 . S
C1538 N1539 1.279 1_554 S
C1538 H1579 0.930 . S
N1539 C1537 1.314 . S
N1539 C1538 1.279 1_556 S
C1540 C1542 1.353 . S
C1540 N1543 1.314 . S
C1540 H1546 0.930 . S
C1541 N1543 1.279 . S
C1541 C1544 1.358 . S
C1541 H1547 0.930 . S
C1542 C1540 1.353 . S
C1542 C1545 1.348 . S
C1542 H1580 0.929 . S
N1543 Li1498 1.990 1_556 S
N1543 C1540 1.314 . S
N1543 C1541 1.279 . S
C1544 C1541 1.358 . S
C1544 C1545 1.356 . S
C1544 H1581 0.930 . S
C1545 C1542 1.348 . S
C1545 C1544 1.356 . S
H1546 C1540 0.930 . S
H1547 C1541 0.930 . S
C1548 N1549 1.314 . S
C1548 C1550 1.353 . S
C1548 H1554 0.930 . S
N1549 Li1499 1.990 . S
N1549 C1548 1.314 . S
N1549 C1552 1.279 . S
C1550 C1548 1.353 . S
C1550 C1553 1.348 . S
C1550 H1582 0.929 . S
C1551 C1552 1.358 . S
C1551 C1553 1.356 . S
C1551 H1583 0.930 . S
C1552 N1549 1.279 . S
C1552 C1551 1.358 . S
C1552 H1555 0.930 . S
C1553 C1550 1.348 . S
C1553 C1551 1.356 . S
H1554 C1548 0.930 . S
H1555 C1552 0.930 . S
O1556 Li1496 1.956 . S
O1556 Li1497 1.970 . S
O1556 Li1498 1.961 . S
O1556 C1500 1.325 . S
O1557 Li1496 1.970 . S
O1557 Li1497 1.956 . S
O1557 Li1499 1.961 . S
O1557 C1506 1.325 . S
O1558 Li1496 1.961 . S
O1558 Li1498 1.956 . S
O1558 Li1499 1.970 . S
O1558 C1528 1.325 1_554 S
O1559 Li1497 1.961 . S
O1559 Li1498 1.970 . S
O1559 Li1499 1.956 . S
O1559 C1534 1.325 . S
H1560 C1502 0.929 . S
H1561 C1503 0.930 . S
H1562 C1504 0.930 . S
H1563 C1505 0.930 . S
H1564 C1507 0.930 . S
H1565 C1509 0.929 . S
H1566 C1510 0.930 . S
H1567 C1511 0.930 . S
H1568 C1514 0.930 . S
H1569 C1517 0.929 . S
H1570 C1522 0.929 . S
H1571 C1523 0.930 . S
H1572 C1530 0.929 . S
H1573 C1531 0.930 . S
H1574 C1532 0.930 . S
H1575 C1533 0.930 . S
H1576 C1535 0.929 . S
H1577 C1536 0.930 . S
H1578 C1537 0.930 . S
H1579 C1538 0.930 . S
H1580 C1542 0.929 . S
H1581 C1544 0.930 . S
H1582 C1550 0.929 . S
H1583 C1551 0.930 . S
Li1584 N1601 1.990 . S
Li1584 O1644 1.956 . S
Li1584 O1645 1.970 . S
Li1584 O1646 1.961 . S
Li1585 N1609 1.990 . S
Li1585 O1644 1.970 . S
Li1585 O1645 1.956 . S
Li1585 O1647 1.961 . S
Li1586 N1631 1.990 . S
Li1586 O1644 1.961 . S
Li1586 O1646 1.956 . S
Li1586 O1647 1.970 . S
Li1587 N1637 1.990 . S
Li1587 O1645 1.961 . S
Li1587 O1646 1.970 . S
Li1587 O1647 1.956 . S
C1588 C1590 1.348 . S
C1588 C1591 1.356 . S
C1588 O1644 1.325 . S
N1589 C1592 1.314 . S
N1589 C1593 1.279 . S
C1590 C1588 1.348 . S
C1590 C1592 1.353 . S
C1590 H1648 0.929 . S
C1591 C1588 1.356 . S
C1591 C1593 1.358 . S
C1591 H1649 0.930 . S
C1592 N1589 1.314 . S
C1592 C1590 1.353 . S
C1592 H1650 0.930 . S
C1593 N1589 1.279 . S
C1593 C1591 1.358 . S
C1593 H1651 0.930 . S
C1594 C1597 1.348 . S
C1594 C1598 1.356 . S
C1594 O1645 1.325 . S
C1595 N1596 1.279 . S
C1595 C1598 1.358 . S
C1595 H1652 0.930 . S
N1596 C1595 1.279 . S
N1596 C1599 1.314 . S
C1597 C1594 1.348 . S
C1597 C1599 1.353 . S
C1597 H1653 0.929 . S
C1598 C1594 1.356 . S
C1598 C1595 1.358 . S
C1598 H1654 0.930 . S
C1599 N1596 1.314 . S
C1599 C1597 1.353 . S
C1599 H1655 0.930 . S
C1600 N1601 1.314 . S
C1600 C1605 1.353 . S
C1600 H1606 0.930 . S
N1601 Li1584 1.990 . S
N1601 C1600 1.314 . S
N1601 C1603 1.279 . S
C1602 C1603 1.358 . S
C1602 C1604 1.356 . S
C1602 H1656 0.930 . S
C1603 N1601 1.279 . S
C1603 C1602 1.358 . S
C1603 H1607 0.930 . S
C1604 C1602 1.356 . S
C1604 C1605 1.348 . S
C1605 C1600 1.353 . S
C1605 C1604 1.348 . S
C1605 H1657 0.929 . S
H1606 C1600 0.930 . S
H1607 C1603 0.930 . S
C1608 N1609 1.314 . S
C1608 C1610 1.353 . S
C1608 H1614 0.930 . S
N1609 Li1585 1.990 . S
N1609 C1608 1.314 . S
N1609 C1612 1.279 . S
C1610 C1608 1.353 . S
C1610 C1613 1.348 . S
C1610 H1658 0.929 . S
C1611 C1612 1.358 . S
C1611 C1613 1.356 . S
C1611 H1659 0.930 . S
C1612 N1609 1.279 . S
C1612 C1611 1.358 . S
C1612 H1615 0.930 . S
C1613 C1610 1.348 . S
C1613 C1611 1.356 . S
H1614 C1608 0.930 . S
H1615 C1612 0.930 . S
C1616 C1618 1.348 . S
C1616 C1619 1.356 . S
C1616 O1646 1.325 . S
N1617 C1620 1.314 . S
N1617 C1621 1.279 . S
C1618 C1616 1.348 . S
C1618 C1620 1.353 . S
C1618 H1660 0.929 . S
C1619 C1616 1.356 . S
C1619 C1621 1.358 . S
C1619 H1661 0.930 . S
C1620 N1617 1.314 . S
C1620 C1618 1.353 . S
C1620 H1662 0.930 . S
C1621 N1617 1.279 . S
C1621 C1619 1.358 . S
C1621 H1663 0.930 . S
C1622 C1623 1.348 . S
C1622 C1624 1.356 . S
C1622 O1647 1.325 . S
C1623 C1622 1.348 . S
C1623 C1625 1.353 . S
C1623 H1664 0.929 . S
C1624 C1622 1.356 . S
C1624 C1626 1.358 . S
C1624 H1665 0.930 . S
C1625 C1623 1.353 . S
C1625 N1627 1.314 . S
C1625 H1666 0.930 . S
C1626 C1624 1.358 . S
C1626 N1627 1.279 . S
C1626 H1667 0.930 . S
N1627 C1625 1.314 . S
N1627 C1626 1.279 . S
C1628 C1630 1.353 . S
C1628 N1631 1.314 . S
C1628 H1634 0.930 . S
C1629 N1631 1.279 . S
C1629 C1632 1.358 . S
C1629 H1635 0.930 . S
C1630 C1628 1.353 . S
C1630 C1633 1.348 . S
C1630 H1668 0.929 . S
N1631 Li1586 1.990 . S
N1631 C1628 1.314 . S
N1631 C1629 1.279 . S
C1632 C1629 1.358 . S
C1632 C1633 1.356 . S
C1632 H1669 0.930 . S
C1633 C1630 1.348 . S
C1633 C1632 1.356 . S
H1634 C1628 0.930 . S
H1635 C1629 0.930 . S
C1636 N1637 1.314 . S
C1636 C1638 1.353 . S
C1636 H1642 0.930 . S
N1637 Li1587 1.990 . S
N1637 C1636 1.314 . S
N1637 C1640 1.279 . S
C1638 C1636 1.353 . S
C1638 C1641 1.348 . S
C1638 H1670 0.929 . S
C1639 C1640 1.358 . S
C1639 C1641 1.356 . S
C1639 H1671 0.930 . S
C1640 N1637 1.279 . S
C1640 C1639 1.358 . S
C1640 H1643 0.930 . S
C1641 C1638 1.348 . S
C1641 C1639 1.356 . S
H1642 C1636 0.930 . S
H1643 C1640 0.930 . S
O1644 Li1584 1.956 . S
O1644 Li1585 1.970 . S
O1644 Li1586 1.961 . S
O1644 C1588 1.325 . S
O1645 Li1584 1.970 . S
O1645 Li1585 1.956 . S
O1645 Li1587 1.961 . S
O1645 C1594 1.325 . S
O1646 Li1584 1.961 . S
O1646 Li1586 1.956 . S
O1646 Li1587 1.970 . S
O1646 C1616 1.325 . S
O1647 Li1585 1.961 . S
O1647 Li1586 1.970 . S
O1647 Li1587 1.956 . S
O1647 C1622 1.325 . S
H1648 C1590 0.929 . S
H1649 C1591 0.930 . S
H1650 C1592 0.930 . S
H1651 C1593 0.930 . S
H1652 C1595 0.930 . S
H1653 C1597 0.929 . S
H1654 C1598 0.930 . S
H1655 C1599 0.930 . S
H1656 C1602 0.930 . S
H1657 C1605 0.929 . S
H1658 C1610 0.929 . S
H1659 C1611 0.930 . S
H1660 C1618 0.929 . S
H1661 C1619 0.930 . S
H1662 C1620 0.930 . S
H1663 C1621 0.930 . S
H1664 C1623 0.929 . S
H1665 C1624 0.930 . S
H1666 C1625 0.930 . S
H1667 C1626 0.930 . S
H1668 C1630 0.929 . S
H1669 C1632 0.930 . S
H1670 C1638 0.929 . S
H1671 C1639 0.930 . S
Li1672 N1689 1.990 1_455 S
Li1672 O1732 1.956 . S
Li1672 O1733 1.970 . S
Li1672 O1734 1.961 . S
Li1673 N1697 1.990 . S
Li1673 O1732 1.970 . S
Li1673 O1733 1.956 . S
Li1673 O1735 1.961 . S
Li1674 N1719 1.990 . S
Li1674 O1732 1.961 . S
Li1674 O1734 1.956 . S
Li1674 O1735 1.970 . S
Li1675 N1725 1.990 . S
Li1675 O1733 1.961 . S
Li1675 O1734 1.970 . S
Li1675 O1735 1.956 . S
C1676 C1678 1.348 . S
C1676 C1679 1.356 . S
C1676 O1732 1.325 . S
N1677 C1680 1.314 . S
N1677 C1681 1.279 . S
C1678 C1676 1.348 . S
C1678 C1680 1.353 . S
C1678 H1736 0.929 . S
C1679 C1676 1.356 . S
C1679 C1681 1.358 . S
C1679 H1737 0.930 . S
C1680 N1677 1.314 . S
C1680 C1678 1.353 . S
C1680 H1738 0.930 . S
C1681 N1677 1.279 . S
C1681 C1679 1.358 . S
C1681 H1739 0.930 . S
C1682 C1685 1.345 . S
C1682 C1686 1.356 . S
C1682 O1733 1.325 . S
C1683 N1684 1.279 . S
C1683 C1686 1.358 . S
C1683 H1740 0.930 . S
N1684 C1683 1.279 . S
N1684 C1687 1.314 1_455 S
C1685 C1682 1.345 . S
C1685 C1687 1.354 1_455 S
C1685 H1741 0.932 1_455 S
C1686 C1682 1.356 . S
C1686 C1683 1.358 . S
C1686 H1742 0.930 . S
C1687 N1684 1.314 1_655 S
C1687 C1685 1.354 1_655 S
C1687 H1743 0.930 . S
C1688 N1689 1.314 . S
C1688 C1693 1.353 . S
C1688 H1694 0.930 . S
N1689 Li1672 1.990 1_655 S
N1689 C1688 1.314 . S
N1689 C1691 1.279 . S
C1690 C1691 1.358 . S
C1690 C1692 1.356 . S
C1690 H1744 0.930 . S
C1691 N1689 1.279 . S
C1691 C1690 1.358 . S
C1691 H1695 0.930 . S
C1692 C1690 1.356 . S
C1692 C1693 1.348 . S
C1693 C1688 1.353 . S
C1693 C1692 1.348 . S
C1693 H1745 0.929 . S
H1694 C1688 0.930 . S
H1695 C1691 0.930 . S
C1696 N1697 1.314 . S
C1696 C1698 1.353 . S
C1696 H1702 0.930 . S
N1697 Li1673 1.990 . S
N1697 C1696 1.314 . S
N1697 C1700 1.279 . S
C1698 C1696 1.353 . S
C1698 C1701 1.348 . S
C1698 H1746 0.929 . S
C1699 C1700 1.358 . S
C1699 C1701 1.356 . S
C1699 H1747 0.930 . S
C1700 N1697 1.279 . S
C1700 C1699 1.358 . S
C1700 H1703 0.930 . S
C1701 C1698 1.348 . S
C1701 C1699 1.356 . S
H1702 C1696 0.930 . S
H1703 C1700 0.930 . S
C1704 C1706 1.348 . S
C1704 C1707 1.356 . S
C1704 O1734 1.325 1_655 S
N1705 C1708 1.314 . S
N1705 C1709 1.279 . S
C1706 C1704 1.348 . S
C1706 C1708 1.353 . S
C1706 H1748 0.981 . S
C1707 C1704 1.356 . S
C1707 C1709 1.358 . S
C1707 H1749 0.930 . S
C1708 N1705 1.314 . S
C1708 C1706 1.353 . S
C1708 H1750 0.930 . S
C1709 N1705 1.279 . S
C1709 C1707 1.358 . S
C1709 H1751 0.930 . S
C1710 C1711 1.348 . S
C1710 C1712 1.356 . S
C1710 O1735 1.325 . S
C1711 C1710 1.348 . S
C1711 C1713 1.353 . S
C1711 H1752 0.929 . S
C1712 C1710 1.356 . S
C1712 C1714 1.358 . S
C1712 H1753 0.930 . S
C1713 C1711 1.353 . S
C1713 N1715 1.314 . S
C1713 H1754 0.930 . S
C1714 C1712 1.358 . S
C1714 N1715 1.279 . S
C1714 H1755 0.930 . S
N1715 C1713 1.314 . S
N1715 C1714 1.279 . S
C1716 C1718 1.353 . S
C1716 N1719 1.314 . S
C1716 H1722 0.930 . S
C1717 N1719 1.279 . S
C1717 C1720 1.358 . S
C1717 H1723 0.930 . S
C1718 C1716 1.353 . S
C1718 C1721 1.348 . S
C1718 H1756 0.929 . S
N1719 Li1674 1.990 . S
N1719 C1716 1.314 . S
N1719 C1717 1.279 . S
C1720 C1717 1.358 . S
C1720 C1721 1.356 . S
C1720 H1757 0.930 . S
C1721 C1718 1.348 . S
C1721 C1720 1.356 . S
H1722 C1716 0.930 . S
H1723 C1717 0.930 . S
C1724 N1725 1.314 . S
C1724 C1726 1.353 . S
C1724 H1730 0.904 1_455 S
N1725 Li1675 1.990 . S
N1725 C1724 1.314 . S
N1725 C1728 1.279 . S
C1726 C1724 1.353 . S
C1726 C1729 1.348 . S
C1726 H1758 0.929 1_455 S
C1727 C1728 1.358 . S
C1727 C1729 1.356 . S
C1727 H1759 0.930 . S
C1728 N1725 1.279 . S
C1728 C1727 1.358 . S
C1728 H1731 0.930 . S
C1729 C1726 1.348 . S
C1729 C1727 1.356 . S
H1730 C1724 0.904 1_655 S
H1731 C1728 0.930 . S
O1732 Li1672 1.956 . S
O1732 Li1673 1.970 . S
O1732 Li1674 1.961 . S
O1732 C1676 1.325 . S
O1733 Li1672 1.970 . S
O1733 Li1673 1.956 . S
O1733 Li1675 1.961 . S
O1733 C1682 1.325 . S
O1734 Li1672 1.961 . S
O1734 Li1674 1.956 . S
O1734 Li1675 1.970 . S
O1734 C1704 1.325 1_455 S
O1735 Li1673 1.961 . S
O1735 Li1674 1.970 . S
O1735 Li1675 1.956 . S
O1735 C1710 1.325 . S
H1736 C1678 0.929 . S
H1737 C1679 0.930 . S
H1738 C1680 0.930 . S
H1739 C1681 0.930 . S
H1740 C1683 0.930 . S
H1741 C1685 0.932 1_655 S
H1742 C1686 0.930 . S
H1743 C1687 0.930 . S
H1744 C1690 0.930 . S
H1745 C1693 0.929 . S
H1746 C1698 0.929 . S
H1747 C1699 0.930 . S
H1748 C1706 0.981 . S
H1749 C1707 0.930 . S
H1750 C1708 0.930 . S
H1751 C1709 0.930 . S
H1752 C1711 0.929 . S
H1753 C1712 0.930 . S
H1754 C1713 0.930 . S
H1755 C1714 0.930 . S
H1756 C1718 0.929 . S
H1757 C1720 0.930 . S
H1758 C1726 0.929 1_655 S
H1759 C1727 0.930 . S
Li1760 N1777 1.990 . S
Li1760 O1820 1.956 . S
Li1760 O1821 1.970 . S
Li1760 O1822 1.961 . S
Li1761 N1785 1.990 . S
Li1761 O1820 1.970 . S
Li1761 O1821 1.956 . S
Li1761 O1823 1.961 . S
Li1762 N1807 1.990 . S
Li1762 O1820 1.961 . S
Li1762 O1822 1.956 . S
Li1762 O1823 1.970 . S
Li1763 N1813 1.990 . S
Li1763 O1821 1.961 . S
Li1763 O1822 1.970 . S
Li1763 O1823 1.956 . S
C1764 C1766 1.348 . S
C1764 C1767 1.356 . S
C1764 O1820 1.325 . S
N1765 C1768 1.314 . S
N1765 C1769 1.279 . S
C1766 C1764 1.348 . S
C1766 C1768 1.353 . S
C1766 H1824 0.929 . S
C1767 C1764 1.356 . S
C1767 C1769 1.358 . S
C1767 H1825 0.930 . S
C1768 N1765 1.314 . S
C1768 C1766 1.353 . S
C1768 H1826 0.930 . S
C1769 N1765 1.279 . S
C1769 C1767 1.358 . S
C1769 H1827 0.930 . S
C1770 C1773 1.348 . S
C1770 C1774 1.356 . S
C1770 O1821 1.325 . S
C1771 N1772 1.279 . S
C1771 C1774 1.358 . S
C1771 H1828 0.930 . S
N1772 C1771 1.279 . S
N1772 C1775 1.314 . S
C1773 C1770 1.348 . S
C1773 C1775 1.353 . S
C1773 H1829 0.929 . S
C1774 C1770 1.356 . S
C1774 C1771 1.358 . S
C1774 H1830 0.930 . S
C1775 N1772 1.314 . S
C1775 C1773 1.353 . S
C1775 H1831 0.930 . S
C1776 N1777 1.314 . S
C1776 C1781 1.353 . S
C1776 H1782 0.930 . S
N1777 Li1760 1.990 . S
N1777 C1776 1.314 . S
N1777 C1779 1.279 . S
C1778 C1779 1.358 . S
C1778 C1780 1.356 . S
C1778 H1832 0.930 . S
C1779 N1777 1.279 . S
C1779 C1778 1.358 . S
C1779 H1783 0.930 . S
C1780 C1778 1.356 . S
C1780 C1781 1.348 . S
C1781 C1776 1.353 . S
C1781 C1780 1.348 . S
C1781 H1833 0.929 . S
H1782 C1776 0.930 . S
H1783 C1779 0.930 . S
C1784 N1785 1.314 . S
C1784 C1786 1.353 . S
C1784 H1790 0.930 . S
N1785 Li1761 1.990 . S
N1785 C1784 1.314 . S
N1785 C1788 1.279 . S
C1786 C1784 1.353 . S
C1786 C1789 1.348 . S
C1786 H1834 0.929 . S
C1787 C1788 1.358 . S
C1787 C1789 1.356 . S
C1787 H1835 0.930 . S
C1788 N1785 1.279 . S
C1788 C1787 1.358 . S
C1788 H1791 0.930 . S
C1789 C1786 1.348 . S
C1789 C1787 1.356 . S
H1790 C1784 0.930 . S
H1791 C1788 0.930 . S
C1792 C1794 1.348 . S
C1792 C1795 1.356 . S
C1792 O1822 1.325 . S
N1793 C1796 1.314 . S
N1793 C1797 1.279 . S
C1794 C1792 1.348 . S
C1794 C1796 1.353 . S
C1794 H1836 0.929 . S
C1795 C1792 1.356 . S
C1795 C1797 1.358 . S
C1795 H1837 0.930 . S
C1796 N1793 1.314 . S
C1796 C1794 1.353 . S
C1796 H1838 0.930 . S
C1797 N1793 1.279 . S
C1797 C1795 1.358 . S
C1797 H1839 0.930 . S
C1798 C1799 1.348 . S
C1798 C1800 1.356 . S
C1798 O1823 1.325 . S
C1799 C1798 1.348 . S
C1799 C1801 1.353 . S
C1799 H1840 0.929 . S
C1800 C1798 1.356 . S
C1800 C1802 1.358 . S
C1800 H1841 0.930 . S
C1801 C1799 1.353 . S
C1801 N1803 1.314 . S
C1801 H1842 0.930 . S
C1802 C1800 1.358 . S
C1802 N1803 1.279 . S
C1802 H1843 0.930 . S
N1803 C1801 1.314 . S
N1803 C1802 1.279 . S
C1804 C1806 1.353 . S
C1804 N1807 1.314 . S
C1804 H1810 0.930 . S
C1805 N1807 1.279 . S
C1805 C1808 1.358 . S
C1805 H1811 0.930 . S
C1806 C1804 1.353 . S
C1806 C1809 1.348 . S
C1806 H1844 0.929 . S
N1807 Li1762 1.990 . S
N1807 C1804 1.314 . S
N1807 C1805 1.279 . S
C1808 C1805 1.358 . S
C1808 C1809 1.356 . S
C1808 H1845 0.930 . S
C1809 C1806 1.348 . S
C1809 C1808 1.356 . S
H1810 C1804 0.930 . S
H1811 C1805 0.930 . S
C1812 N1813 1.314 . S
C1812 C1814 1.353 . S
C1812 H1818 0.930 . S
N1813 Li1763 1.990 . S
N1813 C1812 1.314 . S
N1813 C1816 1.279 . S
C1814 C1812 1.353 . S
C1814 C1817 1.348 . S
C1814 H1846 0.929 . S
C1815 C1816 1.358 . S
C1815 C1817 1.356 . S
C1815 H1847 0.930 . S
C1816 N1813 1.279 . S
C1816 C1815 1.358 . S
C1816 H1819 0.930 . S
C1817 C1814 1.348 . S
C1817 C1815 1.356 . S
H1818 C1812 0.930 . S
H1819 C1816 0.930 . S
O1820 Li1760 1.956 . S
O1820 Li1761 1.970 . S
O1820 Li1762 1.961 . S
O1820 C1764 1.325 . S
O1821 Li1760 1.970 . S
O1821 Li1761 1.956 . S
O1821 Li1763 1.961 . S
O1821 C1770 1.325 . S
O1822 Li1760 1.961 . S
O1822 Li1762 1.956 . S
O1822 Li1763 1.970 . S
O1822 C1792 1.325 . S
O1823 Li1761 1.961 . S
O1823 Li1762 1.970 . S
O1823 Li1763 1.956 . S
O1823 C1798 1.325 . S
H1824 C1766 0.929 . S
H1825 C1767 0.930 . S
H1826 C1768 0.930 . S
H1827 C1769 0.930 . S
H1828 C1771 0.930 . S
H1829 C1773 0.929 . S
H1830 C1774 0.930 . S
H1831 C1775 0.930 . S
H1832 C1778 0.930 . S
H1833 C1781 0.929 . S
H1834 C1786 0.929 . S
H1835 C1787 0.930 . S
H1836 C1794 0.929 . S
H1837 C1795 0.930 . S
H1838 C1796 0.930 . S
H1839 C1797 0.930 . S
H1840 C1799 0.929 . S
H1841 C1800 0.930 . S
H1842 C1801 0.930 . S
H1843 C1802 0.930 . S
H1844 C1806 0.929 . S
H1845 C1808 0.930 . S
H1846 C1814 0.929 . S
H1847 C1815 0.930 . S
Li1848 N1865 1.990 . S
Li1848 O1908 1.956 . S
Li1848 O1909 1.970 . S
Li1848 O1910 1.961 . S
Li1849 N1873 1.990 1_556 S
Li1849 O1908 1.970 . S
Li1849 O1909 1.956 . S
Li1849 O1911 1.961 . S
Li1850 N1895 1.990 . S
Li1850 O1908 1.961 . S
Li1850 O1910 1.956 . S
Li1850 O1911 1.970 . S
Li1851 N1901 1.990 1_455 S
Li1851 O1909 1.961 . S
Li1851 O1910 1.970 . S
Li1851 O1911 1.956 . S
C1852 C1854 1.348 1_556 S
C1852 C1855 1.356 . S
C1852 O1908 1.325 . S
N1853 C1856 1.314 . S
N1853 C1857 1.279 1_554 S
C1854 C1852 1.348 1_554 S
C1854 C1856 1.353 . S
C1854 H1912 0.929 . S
C1855 C1852 1.356 . S
C1855 C1857 1.358 . S
C1855 H1913 0.930 . S
C1856 N1853 1.314 . S
C1856 C1854 1.353 . S
C1856 H1914 0.930 . S
C1857 N1853 1.279 1_556 S
C1857 C1855 1.358 . S
C1857 H1915 0.930 . S
C1858 C1861 1.348 . S
C1858 C1862 1.356 . S
C1858 O1909 1.325 1_654 S
C1859 N1860 1.279 . S
C1859 C1862 1.358 . S
C1859 H1916 0.930 . S
N1860 C1859 1.279 . S
N1860 C1863 1.314 . S
C1861 C1858 1.348 . S
C1861 C1863 1.353 . S
C1861 H1917 0.981 . S
C1862 C1858 1.356 . S
C1862 C1859 1.358 . S
C1862 H1918 0.930 . S
C1863 N1860 1.314 . S
C1863 C1861 1.353 . S
C1863 H1919 0.930 . S
C1864 N1865 1.314 . S
C1864 C1869 1.353 . S
C1864 H1870 0.904 1_455 S
N1865 Li1848 1.990 . S
N1865 C1864 1.314 . S
N1865 C1867 1.279 . S
C1866 C1867 1.358 . S
C1866 C1868 1.356 . S
C1866 H1920 0.930 . S
C1867 N1865 1.279 . S
C1867 C1866 1.358 . S
C1867 H1871 0.930 . S
C1868 C1866 1.356 . S
C1868 C1869 1.348 . S
C1869 C1864 1.353 . S
C1869 C1868 1.348 . S
C1869 H1921 0.929 1_455 S
H1870 C1864 0.904 1_655 S
H1871 C1867 0.930 . S
C1872 N1873 1.314 . S
C1872 C1874 1.353 . S
C1872 H1878 0.930 . S
N1873 Li1849 1.990 1_554 S
N1873 C1872 1.314 . S
N1873 C1876 1.279 . S
C1874 C1872 1.353 . S
C1874 C1877 1.348 . S
C1874 H1922 0.929 . S
C1875 C1876 1.358 . S
C1875 C1877 1.356 . S
C1875 H1923 0.930 . S
C1876 N1873 1.279 . S
C1876 C1875 1.358 . S
C1876 H1879 0.930 . S
C1877 C1874 1.348 . S
C1877 C1875 1.356 . S
H1878 C1872 0.930 . S
H1879 C1876 0.930 . S
C1880 C1882 1.345 . S
C1880 C1883 1.356 . S
C1880 O1910 1.325 . S
N1881 C1884 1.314 1_455 S
N1881 C1885 1.279 . S
C1882 C1880 1.345 . S
C1882 C1884 1.354 1_455 S
C1882 H1924 0.932 1_455 S
C1883 C1880 1.356 . S
C1883 C1885 1.358 . S
C1883 H1925 0.930 . S
C1884 N1881 1.314 1_655 S
C1884 C1882 1.354 1_655 S
C1884 H1926 0.930 . S
C1885 N1881 1.279 . S
C1885 C1883 1.358 . S
C1885 H1927 0.930 . S
C1886 C1887 1.348 . S
C1886 C1888 1.356 . S
C1886 O1911 1.325 . S
C1887 C1886 1.348 . S
C1887 C1889 1.353 . S
C1887 H1928 0.929 . S
C1888 C1886 1.356 . S
C1888 C1890 1.358 . S
C1888 H1929 0.930 . S
C1889 C1887 1.353 . S
C1889 N1891 1.314 . S
C1889 H1930 0.930 . S
C1890 C1888 1.358 . S
C1890 N1891 1.279 . S
C1890 H1931 0.930 . S
N1891 C1889 1.314 . S
N1891 C1890 1.279 . S
C1892 C1894 1.353 . S
C1892 N1895 1.314 . S
C1892 H1898 0.930 . S
C1893 N1895 1.279 . S
C1893 C1896 1.358 . S
C1893 H1899 0.930 . S
C1894 C1892 1.353 . S
C1894 C1897 1.348 . S
C1894 H1932 0.929 . S
N1895 Li1850 1.990 . S
N1895 C1892 1.314 . S
N1895 C1893 1.279 . S
C1896 C1893 1.358 . S
C1896 C1897 1.356 . S
C1896 H1933 0.930 . S
C1897 C1894 1.348 . S
C1897 C1896 1.356 . S
H1898 C1892 0.930 . S
H1899 C1893 0.930 . S
C1900 N1901 1.314 . S
C1900 C1902 1.353 . S
C1900 H1906 0.930 . S
N1901 Li1851 1.990 1_655 S
N1901 C1900 1.314 . S
N1901 C1904 1.279 . S
C1902 C1900 1.353 . S
C1902 C1905 1.348 . S
C1902 H1934 0.929 . S
C1903 C1904 1.358 . S
C1903 C1905 1.356 . S
C1903 H1935 0.930 . S
C1904 N1901 1.279 . S
C1904 C1903 1.358 . S
C1904 H1907 0.930 . S
C1905 C1902 1.348 . S
C1905 C1903 1.356 . S
H1906 C1900 0.930 . S
H1907 C1904 0.930 . S
O1908 Li1848 1.956 . S
O1908 Li1849 1.970 . S
O1908 Li1850 1.961 . S
O1908 C1852 1.325 . S
O1909 Li1848 1.970 . S
O1909 Li1849 1.956 . S
O1909 Li1851 1.961 . S
O1909 C1858 1.325 1_456 S
O1910 Li1848 1.961 . S
O1910 Li1850 1.956 . S
O1910 Li1851 1.970 . S
O1910 C1880 1.325 . S
O1911 Li1849 1.961 . S
O1911 Li1850 1.970 . S
O1911 Li1851 1.956 . S
O1911 C1886 1.325 . S
H1912 C1854 0.929 . S
H1913 C1855 0.930 . S
H1914 C1856 0.930 . S
H1915 C1857 0.930 . S
H1916 C1859 0.930 . S
H1917 C1861 0.981 . S
H1918 C1862 0.930 . S
H1919 C1863 0.930 . S
H1920 C1866 0.930 . S
H1921 C1869 0.929 1_655 S
H1922 C1874 0.929 . S
H1923 C1875 0.930 . S
H1924 C1882 0.932 1_655 S
H1925 C1883 0.930 . S
H1926 C1884 0.930 . S
H1927 C1885 0.930 . S
H1928 C1887 0.929 . S
H1929 C1888 0.930 . S
H1930 C1889 0.930 . S
H1931 C1890 0.930 . S
H1932 C1894 0.929 . S
H1933 C1896 0.930 . S
H1934 C1902 0.929 . S
H1935 C1903 0.930 . S
Li1936 N1953 1.990 . S
Li1936 O1996 1.956 . S
Li1936 O1997 1.970 . S
Li1936 O1998 1.961 . S
Li1937 N1961 1.990 . S
Li1937 O1996 1.970 . S
Li1937 O1997 1.956 . S
Li1937 O1999 1.961 . S
Li1938 N1983 1.990 . S
Li1938 O1996 1.961 . S
Li1938 O1998 1.956 . S
Li1938 O1999 1.970 . S
Li1939 N1989 1.990 . S
Li1939 O1997 1.961 . S
Li1939 O1998 1.970 . S
Li1939 O1999 1.956 . S
C1940 C1942 1.348 . S
C1940 C1943 1.356 . S
C1940 O1996 1.325 . S
N1941 C1944 1.314 . S
N1941 C1945 1.279 . S
C1942 C1940 1.348 . S
C1942 C1944 1.353 . S
C1942 H2000 0.929 . S
C1943 C1940 1.356 . S
C1943 C1945 1.358 . S
C1943 H2001 0.930 . S
C1944 N1941 1.314 . S
C1944 C1942 1.353 . S
C1944 H2002 0.930 . S
C1945 N1941 1.279 . S
C1945 C1943 1.358 . S
C1945 H2003 0.930 . S
C1946 C1949 1.348 . S
C1946 C1950 1.356 . S
C1946 O1997 1.325 . S
C1947 N1948 1.279 . S
C1947 C1950 1.358 . S
C1947 H2004 0.930 . S
N1948 C1947 1.279 . S
N1948 C1951 1.314 . S
C1949 C1946 1.348 . S
C1949 C1951 1.353 . S
C1949 H2005 0.929 . S
C1950 C1946 1.356 . S
C1950 C1947 1.358 . S
C1950 H2006 0.930 . S
C1951 N1948 1.314 . S
C1951 C1949 1.353 . S
C1951 H2007 0.930 . S
C1952 N1953 1.314 . S
C1952 C1957 1.353 . S
C1952 H1958 0.930 . S
N1953 Li1936 1.990 . S
N1953 C1952 1.314 . S
N1953 C1955 1.279 . S
C1954 C1955 1.358 . S
C1954 C1956 1.356 . S
C1954 H2008 0.930 . S
C1955 N1953 1.279 . S
C1955 C1954 1.358 . S
C1955 H1959 0.930 . S
C1956 C1954 1.356 . S
C1956 C1957 1.348 . S
C1957 C1952 1.353 . S
C1957 C1956 1.348 . S
C1957 H2009 0.929 . S
H1958 C1952 0.930 . S
H1959 C1955 0.930 . S
C1960 N1961 1.314 . S
C1960 C1962 1.353 . S
C1960 H1966 0.930 . S
N1961 Li1937 1.990 . S
N1961 C1960 1.314 . S
N1961 C1964 1.279 . S
C1962 C1960 1.353 . S
C1962 C1965 1.348 . S
C1962 H2010 0.929 . S
C1963 C1964 1.358 . S
C1963 C1965 1.356 . S
C1963 H2011 0.930 . S
C1964 N1961 1.279 . S
C1964 C1963 1.358 . S
C1964 H1967 0.930 . S
C1965 C1962 1.348 . S
C1965 C1963 1.356 . S
H1966 C1960 0.930 . S
H1967 C1964 0.930 . S
C1968 C1970 1.348 . S
C1968 C1971 1.356 . S
C1968 O1998 1.325 . S
N1969 C1972 1.314 . S
N1969 C1973 1.279 . S
C1970 C1968 1.348 . S
C1970 C1972 1.353 . S
C1970 H2012 0.929 . S
C1971 C1968 1.356 . S
C1971 C1973 1.358 . S
C1971 H2013 0.930 . S
C1972 N1969 1.314 . S
C1972 C1970 1.353 . S
C1972 H2014 0.930 . S
C1973 N1969 1.279 . S
C1973 C1971 1.358 . S
C1973 H2015 0.930 . S
C1974 C1975 1.348 . S
C1974 C1976 1.356 . S
C1974 O1999 1.325 . S
C1975 C1974 1.348 . S
C1975 C1977 1.353 . S
C1975 H2016 0.929 . S
C1976 C1974 1.356 . S
C1976 C1978 1.358 . S
C1976 H2017 0.930 . S
C1977 C1975 1.353 . S
C1977 N1979 1.314 . S
C1977 H2018 0.930 . S
C1978 C1976 1.358 . S
C1978 N1979 1.279 . S
C1978 H2019 0.930 . S
N1979 C1977 1.314 . S
N1979 C1978 1.279 . S
C1980 C1982 1.353 . S
C1980 N1983 1.314 . S
C1980 H1986 0.930 . S
C1981 N1983 1.279 . S
C1981 C1984 1.358 . S
C1981 H1987 0.930 . S
C1982 C1980 1.353 . S
C1982 C1985 1.348 . S
C1982 H2020 0.929 . S
N1983 Li1938 1.990 . S
N1983 C1980 1.314 . S
N1983 C1981 1.279 . S
C1984 C1981 1.358 . S
C1984 C1985 1.356 . S
C1984 H2021 0.930 . S
C1985 C1982 1.348 . S
C1985 C1984 1.356 . S
H1986 C1980 0.930 . S
H1987 C1981 0.930 . S
C1988 N1989 1.314 . S
C1988 C1990 1.353 . S
C1988 H1994 0.930 . S
N1989 Li1939 1.990 . S
N1989 C1988 1.314 . S
N1989 C1992 1.279 . S
C1990 C1988 1.353 . S
C1990 C1993 1.348 . S
C1990 H2022 0.929 . S
C1991 C1992 1.358 . S
C1991 C1993 1.356 . S
C1991 H2023 0.930 . S
C1992 N1989 1.279 . S
C1992 C1991 1.358 . S
C1992 H1995 0.930 . S
C1993 C1990 1.348 . S
C1993 C1991 1.356 . S
H1994 C1988 0.930 . S
H1995 C1992 0.930 . S
O1996 Li1936 1.956 . S
O1996 Li1937 1.970 . S
O1996 Li1938 1.961 . S
O1996 C1940 1.325 . S
O1997 Li1936 1.970 . S
O1997 Li1937 1.956 . S
O1997 Li1939 1.961 . S
O1997 C1946 1.325 . S
O1998 Li1936 1.961 . S
O1998 Li1938 1.956 . S
O1998 Li1939 1.970 . S
O1998 C1968 1.325 . S
O1999 Li1937 1.961 . S
O1999 Li1938 1.970 . S
O1999 Li1939 1.956 . S
O1999 C1974 1.325 . S
H2000 C1942 0.929 . S
H2001 C1943 0.930 . S
H2002 C1944 0.930 . S
H2003 C1945 0.930 . S
H2004 C1947 0.930 . S
H2005 C1949 0.929 . S
H2006 C1950 0.930 . S
H2007 C1951 0.930 . S
H2008 C1954 0.930 . S
H2009 C1957 0.929 . S
H2010 C1962 0.929 . S
H2011 C1963 0.930 . S
H2012 C1970 0.929 . S
H2013 C1971 0.930 . S
H2014 C1972 0.930 . S
H2015 C1973 0.930 . S
H2016 C1975 0.929 . S
H2017 C1976 0.930 . S
H2018 C1977 0.930 . S
H2019 C1978 0.930 . S
H2020 C1982 0.929 . S
H2021 C1984 0.930 . S
H2022 C1990 0.929 . S
H2023 C1991 0.930 . S
Li2024 N2041 1.990 . S
Li2024 O2084 1.956 . S
Li2024 O2085 1.970 . S
Li2024 O2086 1.961 . S
Li2025 N2049 1.990 . S
Li2025 O2084 1.970 . S
Li2025 O2085 1.956 . S
Li2025 O2087 1.961 . S
Li2026 N2071 1.990 . S
Li2026 O2084 1.961 . S
Li2026 O2086 1.956 . S
Li2026 O2087 1.970 . S
Li2027 N2077 1.990 . S
Li2027 O2085 1.961 . S
Li2027 O2086 1.970 . S
Li2027 O2087 1.956 . S
C2028 C2030 1.348 . S
C2028 C2031 1.356 . S
C2028 O2084 1.325 . S
N2029 C2032 1.314 . S
N2029 C2033 1.279 . S
C2030 C2028 1.348 . S
C2030 C2032 1.353 . S
C2030 H2088 0.929 . S
C2031 C2028 1.356 . S
C2031 C2033 1.358 . S
C2031 H2089 0.930 . S
C2032 N2029 1.314 . S
C2032 C2030 1.353 . S
C2032 H2090 0.930 . S
C2033 N2029 1.279 . S
C2033 C2031 1.358 . S
C2033 H2091 0.930 . S
C2034 C2037 1.348 . S
C2034 C2038 1.356 . S
C2034 O2085 1.325 . S
C2035 N2036 1.279 . S
C2035 C2038 1.358 . S
C2035 H2092 0.930 . S
N2036 C2035 1.279 . S
N2036 C2039 1.314 . S
C2037 C2034 1.348 . S
C2037 C2039 1.353 . S
C2037 H2093 0.929 . S
C2038 C2034 1.356 . S
C2038 C2035 1.358 . S
C2038 H2094 0.930 . S
C2039 N2036 1.314 . S
C2039 C2037 1.353 . S
C2039 H2095 0.930 . S
C2040 N2041 1.314 . S
C2040 C2045 1.353 . S
C2040 H2046 0.930 . S
N2041 Li2024 1.990 . S
N2041 C2040 1.314 . S
N2041 C2043 1.279 . S
C2042 C2043 1.358 . S
C2042 C2044 1.356 . S
C2042 H2096 0.930 . S
C2043 N2041 1.279 . S
C2043 C2042 1.358 . S
C2043 H2047 0.930 . S
C2044 C2042 1.356 . S
C2044 C2045 1.348 . S
C2045 C2040 1.353 . S
C2045 C2044 1.348 . S
C2045 H2097 0.929 . S
H2046 C2040 0.930 . S
H2047 C2043 0.930 . S
C2048 N2049 1.314 . S
C2048 C2050 1.353 . S
C2048 H2054 0.930 . S
N2049 Li2025 1.990 . S
N2049 C2048 1.314 . S
N2049 C2052 1.279 . S
C2050 C2048 1.353 . S
C2050 C2053 1.348 . S
C2050 H2098 0.929 . S
C2051 C2052 1.358 . S
C2051 C2053 1.356 . S
C2051 H2099 0.930 . S
C2052 N2049 1.279 . S
C2052 C2051 1.358 . S
C2052 H2055 0.930 . S
C2053 C2050 1.348 . S
C2053 C2051 1.356 . S
H2054 C2048 0.930 . S
H2055 C2052 0.930 . S
C2056 C2058 1.348 . S
C2056 C2059 1.356 . S
C2056 O2086 1.325 . S
N2057 C2060 1.314 . S
N2057 C2061 1.279 . S
C2058 C2056 1.348 . S
C2058 C2060 1.353 . S
C2058 H2100 0.929 . S
C2059 C2056 1.356 . S
C2059 C2061 1.358 . S
C2059 H2101 0.930 . S
C2060 N2057 1.314 . S
C2060 C2058 1.353 . S
C2060 H2102 0.930 . S
C2061 N2057 1.279 . S
C2061 C2059 1.358 . S
C2061 H2103 0.930 . S
C2062 C2063 1.348 . S
C2062 C2064 1.356 . S
C2062 O2087 1.325 . S
C2063 C2062 1.348 . S
C2063 C2065 1.353 . S
C2063 H2104 0.929 . S
C2064 C2062 1.356 . S
C2064 C2066 1.358 . S
C2064 H2105 0.930 . S
C2065 C2063 1.353 . S
C2065 N2067 1.314 . S
C2065 H2106 0.930 . S
C2066 C2064 1.358 . S
C2066 N2067 1.279 . S
C2066 H2107 0.930 . S
N2067 C2065 1.314 . S
N2067 C2066 1.279 . S
C2068 C2070 1.353 . S
C2068 N2071 1.314 . S
C2068 H2074 0.930 . S
C2069 N2071 1.279 . S
C2069 C2072 1.358 . S
C2069 H2075 0.930 . S
C2070 C2068 1.353 . S
C2070 C2073 1.348 . S
C2070 H2108 0.929 . S
N2071 Li2026 1.990 . S
N2071 C2068 1.314 . S
N2071 C2069 1.279 . S
C2072 C2069 1.358 . S
C2072 C2073 1.356 . S
C2072 H2109 0.930 . S
C2073 C2070 1.348 . S
C2073 C2072 1.356 . S
H2074 C2068 0.930 . S
H2075 C2069 0.930 . S
C2076 N2077 1.314 . S
C2076 C2078 1.353 . S
C2076 H2082 0.930 . S
N2077 Li2027 1.990 . S
N2077 C2076 1.314 . S
N2077 C2080 1.279 . S
C2078 C2076 1.353 . S
C2078 C2081 1.348 . S
C2078 H2110 0.929 . S
C2079 C2080 1.358 . S
C2079 C2081 1.356 . S
C2079 H2111 0.930 . S
C2080 N2077 1.279 . S
C2080 C2079 1.358 . S
C2080 H2083 0.930 . S
C2081 C2078 1.348 . S
C2081 C2079 1.356 . S
H2082 C2076 0.930 . S
H2083 C2080 0.930 . S
O2084 Li2024 1.956 . S
O2084 Li2025 1.970 . S
O2084 Li2026 1.961 . S
O2084 C2028 1.325 . S
O2085 Li2024 1.970 . S
O2085 Li2025 1.956 . S
O2085 Li2027 1.961 . S
O2085 C2034 1.325 . S
O2086 Li2024 1.961 . S
O2086 Li2026 1.956 . S
O2086 Li2027 1.970 . S
O2086 C2056 1.325 . S
O2087 Li2025 1.961 . S
O2087 Li2026 1.970 . S
O2087 Li2027 1.956 . S
O2087 C2062 1.325 . S
H2088 C2030 0.929 . S
H2089 C2031 0.930 . S
H2090 C2032 0.930 . S
H2091 C2033 0.930 . S
H2092 C2035 0.930 . S
H2093 C2037 0.929 . S
H2094 C2038 0.930 . S
H2095 C2039 0.930 . S
H2096 C2042 0.930 . S
H2097 C2045 0.929 . S
H2098 C2050 0.929 . S
H2099 C2051 0.930 . S
H2100 C2058 0.929 . S
H2101 C2059 0.930 . S
H2102 C2060 0.930 . S
H2103 C2061 0.930 . S
H2104 C2063 0.929 . S
H2105 C2064 0.930 . S
H2106 C2065 0.930 . S
H2107 C2066 0.930 . S
H2108 C2070 0.929 . S
H2109 C2072 0.930 . S
H2110 C2078 0.929 . S
H2111 C2079 0.930 . S
Li2112 N2129 1.990 . S
Li2112 O2172 1.956 . S
Li2112 O2173 1.970 . S
Li2112 O2174 1.961 . S
Li2113 N2137 1.990 . S
Li2113 O2172 1.970 . S
Li2113 O2173 1.956 . S
Li2113 O2175 1.961 . S
Li2114 N2159 1.990 . S
Li2114 O2172 1.961 . S
Li2114 O2174 1.956 . S
Li2114 O2175 1.970 . S
Li2115 N2165 1.990 . S
Li2115 O2173 1.961 . S
Li2115 O2174 1.970 . S
Li2115 O2175 1.956 . S
C2116 C2118 1.348 . S
C2116 C2119 1.356 . S
C2116 O2172 1.325 . S
N2117 C2120 1.314 . S
N2117 C2121 1.279 . S
C2118 C2116 1.348 . S
C2118 C2120 1.353 . S
C2118 H2176 0.929 . S
C2119 C2116 1.356 . S
C2119 C2121 1.358 . S
C2119 H2177 0.930 . S
C2120 N2117 1.314 . S
C2120 C2118 1.353 . S
C2120 H2178 0.930 . S
C2121 N2117 1.279 . S
C2121 C2119 1.358 . S
C2121 H2179 0.930 . S
C2122 C2125 1.348 . S
C2122 C2126 1.356 . S
C2122 O2173 1.325 . S
C2123 N2124 1.279 . S
C2123 C2126 1.358 . S
C2123 H2180 0.930 . S
N2124 C2123 1.279 . S
N2124 C2127 1.314 . S
C2125 C2122 1.348 . S
C2125 C2127 1.353 . S
C2125 H2181 0.929 . S
C2126 C2122 1.356 . S
C2126 C2123 1.358 . S
C2126 H2182 0.930 . S
C2127 N2124 1.314 . S
C2127 C2125 1.353 . S
C2127 H2183 0.930 . S
C2128 N2129 1.314 . S
C2128 C2133 1.353 . S
C2128 H2134 0.930 . S
N2129 Li2112 1.990 . S
N2129 C2128 1.314 . S
N2129 C2131 1.279 . S
C2130 C2131 1.358 . S
C2130 C2132 1.356 . S
C2130 H2184 0.930 . S
C2131 N2129 1.279 . S
C2131 C2130 1.358 . S
C2131 H2135 0.930 . S
C2132 C2130 1.356 . S
C2132 C2133 1.348 . S
C2133 C2128 1.353 . S
C2133 C2132 1.348 . S
C2133 H2185 0.929 . S
H2134 C2128 0.930 . S
H2135 C2131 0.930 . S
C2136 N2137 1.314 . S
C2136 C2138 1.353 . S
C2136 H2142 0.930 . S
N2137 Li2113 1.990 . S
N2137 C2136 1.314 . S
N2137 C2140 1.279 . S
C2138 C2136 1.353 . S
C2138 C2141 1.348 . S
C2138 H2186 0.929 . S
C2139 C2140 1.358 . S
C2139 C2141 1.356 . S
C2139 H2187 0.930 . S
C2140 N2137 1.279 . S
C2140 C2139 1.358 . S
C2140 H2143 0.930 . S
C2141 C2138 1.348 . S
C2141 C2139 1.356 . S
H2142 C2136 0.930 . S
H2143 C2140 0.930 . S
C2144 C2146 1.348 . S
C2144 C2147 1.356 . S
C2144 O2174 1.325 . S
N2145 C2148 1.314 . S
N2145 C2149 1.279 . S
C2146 C2144 1.348 . S
C2146 C2148 1.353 . S
C2146 H2188 0.929 . S
C2147 C2144 1.356 . S
C2147 C2149 1.358 . S
C2147 H2189 0.930 . S
C2148 N2145 1.314 . S
C2148 C2146 1.353 . S
C2148 H2190 0.930 . S
C2149 N2145 1.279 . S
C2149 C2147 1.358 . S
C2149 H2191 0.930 . S
C2150 C2151 1.348 . S
C2150 C2152 1.356 . S
C2150 O2175 1.325 . S
C2151 C2150 1.348 . S
C2151 C2153 1.353 . S
C2151 H2192 0.929 . S
C2152 C2150 1.356 . S
C2152 C2154 1.358 . S
C2152 H2193 0.930 . S
C2153 C2151 1.353 . S
C2153 N2155 1.314 . S
C2153 H2194 0.930 . S
C2154 C2152 1.358 . S
C2154 N2155 1.279 . S
C2154 H2195 0.930 . S
N2155 C2153 1.314 . S
N2155 C2154 1.279 . S
C2156 C2158 1.353 . S
C2156 N2159 1.314 . S
C2156 H2162 0.930 . S
C2157 N2159 1.279 . S
C2157 C2160 1.358 . S
C2157 H2163 0.930 . S
C2158 C2156 1.353 . S
C2158 C2161 1.348 . S
C2158 H2196 0.929 . S
N2159 Li2114 1.990 . S
N2159 C2156 1.314 . S
N2159 C2157 1.279 . S
C2160 C2157 1.358 . S
C2160 C2161 1.356 . S
C2160 H2197 0.930 . S
C2161 C2158 1.348 . S
C2161 C2160 1.356 . S
H2162 C2156 0.930 . S
H2163 C2157 0.930 . S
C2164 N2165 1.314 . S
C2164 C2166 1.353 . S
C2164 H2170 0.930 . S
N2165 Li2115 1.990 . S
N2165 C2164 1.314 . S
N2165 C2168 1.279 . S
C2166 C2164 1.353 . S
C2166 C2169 1.348 . S
C2166 H2198 0.929 . S
C2167 C2168 1.358 . S
C2167 C2169 1.356 . S
C2167 H2199 0.930 . S
C2168 N2165 1.279 . S
C2168 C2167 1.358 . S
C2168 H2171 0.930 . S
C2169 C2166 1.348 . S
C2169 C2167 1.356 . S
H2170 C2164 0.930 . S
H2171 C2168 0.930 . S
O2172 Li2112 1.956 . S
O2172 Li2113 1.970 . S
O2172 Li2114 1.961 . S
O2172 C2116 1.325 . S
O2173 Li2112 1.970 . S
O2173 Li2113 1.956 . S
O2173 Li2115 1.961 . S
O2173 C2122 1.325 . S
O2174 Li2112 1.961 . S
O2174 Li2114 1.956 . S
O2174 Li2115 1.970 . S
O2174 C2144 1.325 . S
O2175 Li2113 1.961 . S
O2175 Li2114 1.970 . S
O2175 Li2115 1.956 . S
O2175 C2150 1.325 . S
H2176 C2118 0.929 . S
H2177 C2119 0.930 . S
H2178 C2120 0.930 . S
H2179 C2121 0.930 . S
H2180 C2123 0.930 . S
H2181 C2125 0.929 . S
H2182 C2126 0.930 . S
H2183 C2127 0.930 . S
H2184 C2130 0.930 . S
H2185 C2133 0.929 . S
H2186 C2138 0.929 . S
H2187 C2139 0.930 . S
H2188 C2146 0.929 . S
H2189 C2147 0.930 . S
H2190 C2148 0.930 . S
H2191 C2149 0.930 . S
H2192 C2151 0.929 . S
H2193 C2152 0.930 . S
H2194 C2153 0.930 . S
H2195 C2154 0.930 . S
H2196 C2158 0.929 . S
H2197 C2160 0.930 . S
H2198 C2166 0.929 . S
H2199 C2167 0.930 . S
Li2200 N2217 1.990 . S
Li2200 O2260 1.956 . S
Li2200 O2261 1.970 . S
Li2200 O2262 1.961 . S
Li2201 N2225 1.990 . S
Li2201 O2260 1.970 . S
Li2201 O2261 1.956 . S
Li2201 O2263 1.961 . S
Li2202 N2247 1.990 1_556 S
Li2202 O2260 1.961 . S
Li2202 O2262 1.956 . S
Li2202 O2263 1.970 . S
Li2203 N2253 1.990 . S
Li2203 O2261 1.961 . S
Li2203 O2262 1.970 . S
Li2203 O2263 1.956 . S
C2204 C2206 1.348 . S
C2204 C2207 1.356 . S
C2204 O2260 1.325 1_554 S
N2205 C2208 1.314 . S
N2205 C2209 1.279 . S
C2206 C2204 1.348 . S
C2206 C2208 1.353 . S
C2206 H2264 0.929 1_554 S
C2207 C2204 1.356 . S
C2207 C2209 1.358 . S
C2207 H2265 0.930 . S
C2208 N2205 1.314 . S
C2208 C2206 1.353 . S
C2208 H2266 0.930 . S
C2209 N2205 1.279 . S
C2209 C2207 1.358 . S
C2209 H2267 0.930 . S
C2210 C2213 1.348 . S
C2210 C2214 1.356 . S
C2210 O2261 1.325 . S
C2211 N2212 1.279 . S
C2211 C2214 1.358 . S
C2211 H2268 0.930 . S
N2212 C2211 1.279 . S
N2212 C2215 1.314 . S
C2213 C2210 1.348 . S
C2213 C2215 1.353 . S
C2213 H2269 0.929 . S
C2214 C2210 1.356 . S
C2214 C2211 1.358 . S
C2214 H2270 0.930 . S
C2215 N2212 1.314 . S
C2215 C2213 1.353 . S
C2215 H2271 0.930 . S
C2216 N2217 1.314 . S
C2216 C2221 1.353 . S
C2216 H2222 0.930 . S
N2217 Li2200 1.990 . S
N2217 C2216 1.314 . S
N2217 C2219 1.279 . S
C2218 C2219 1.358 . S
C2218 C2220 1.356 . S
C2218 H2272 0.930 . S
C2219 N2217 1.279 . S
C2219 C2218 1.358 . S
C2219 H2223 0.930 . S
C2220 C2218 1.356 . S
C2220 C2221 1.348 . S
C2221 C2216 1.353 . S
C2221 C2220 1.348 . S
C2221 H2273 0.929 . S
H2222 C2216 0.930 . S
H2223 C2219 0.930 . S
C2224 N2225 1.314 . S
C2224 C2226 1.353 . S
C2224 H2230 0.930 1_556 S
N2225 Li2201 1.990 . S
N2225 C2224 1.314 . S
N2225 C2228 1.279 . S
C2226 C2224 1.353 . S
C2226 C2229 1.348 . S
C2226 H2274 0.929 1_556 S
C2227 C2228 1.358 . S
C2227 C2229 1.356 . S
C2227 H2275 0.930 . S
C2228 N2225 1.279 . S
C2228 C2227 1.358 . S
C2228 H2231 0.930 . S
C2229 C2226 1.348 . S
C2229 C2227 1.356 . S
H2230 C2224 0.930 1_554 S
H2231 C2228 0.930 . S
C2232 C2234 1.348 . S
C2232 C2235 1.356 . S
C2232 O2262 1.325 . S
N2233 C2236 1.314 . S
N2233 C2237 1.279 . S
C2234 C2232 1.348 . S
C2234 C2236 1.353 . S
C2234 H2276 0.929 . S
C2235 C2232 1.356 . S
C2235 C2237 1.358 . S
C2235 H2277 0.930 . S
C2236 N2233 1.314 . S
C2236 C2234 1.353 . S
C2236 H2278 0.930 . S
C2237 N2233 1.279 . S
C2237 C2235 1.358 . S
C2237 H2279 0.930 . S
C2238 C2239 1.348 1_556 S
C2238 C2240 1.356 . S
C2238 O2263 1.325 . S
C2239 C2238 1.348 1_554 S
C2239 C2241 1.353 . S
C2239 H2280 0.929 . S
C2240 C2238 1.356 . S
C2240 C2242 1.358 . S
C2240 H2281 0.930 . S
C2241 C2239 1.353 . S
C2241 N2243 1.314 . S
C2241 H2282 0.930 . S
C2242 C2240 1.358 . S
C2242 N2243 1.279 1_556 S
C2242 H2283 0.930 . S
N2243 C2241 1.314 . S
N2243 C2242 1.279 1_554 S
C2244 C2246 1.353 . S
C2244 N2247 1.314 . S
C2244 H2250 0.930 . S
C2245 N2247 1.279 . S
C2245 C2248 1.358 . S
C2245 H2251 0.930 . S
C2246 C2244 1.353 . S
C2246 C2249 1.348 . S
C2246 H2284 0.929 . S
N2247 Li2202 1.990 1_554 S
N2247 C2244 1.314 . S
N2247 C2245 1.279 . S
C2248 C2245 1.358 . S
C2248 C2249 1.356 . S
C2248 H2285 0.930 . S
C2249 C2246 1.348 . S
C2249 C2248 1.356 . S
H2250 C2244 0.930 . S
H2251 C2245 0.930 . S
C2252 N2253 1.314 . S
C2252 C2254 1.353 . S
C2252 H2258 0.930 . S
N2253 Li2203 1.990 . S
N2253 C2252 1.314 . S
N2253 C2256 1.279 . S
C2254 C2252 1.353 . S
C2254 C2257 1.348 . S
C2254 H2286 0.929 . S
C2255 C2256 1.358 . S
C2255 C2257 1.356 . S
C2255 H2287 0.930 . S
C2256 N2253 1.279 . S
C2256 C2255 1.358 . S
C2256 H2259 0.930 . S
C2257 C2254 1.348 . S
C2257 C2255 1.356 . S
H2258 C2252 0.930 . S
H2259 C2256 0.930 . S
O2260 Li2200 1.956 . S
O2260 Li2201 1.970 . S
O2260 Li2202 1.961 . S
O2260 C2204 1.325 1_556 S
O2261 Li2200 1.970 . S
O2261 Li2201 1.956 . S
O2261 Li2203 1.961 . S
O2261 C2210 1.325 . S
O2262 Li2200 1.961 . S
O2262 Li2202 1.956 . S
O2262 Li2203 1.970 . S
O2262 C2232 1.325 . S
O2263 Li2201 1.961 . S
O2263 Li2202 1.970 . S
O2263 Li2203 1.956 . S
O2263 C2238 1.325 . S
H2264 C2206 0.929 1_556 S
H2265 C2207 0.930 . S
H2266 C2208 0.930 . S
H2267 C2209 0.930 . S
H2268 C2211 0.930 . S
H2269 C2213 0.929 . S
H2270 C2214 0.930 . S
H2271 C2215 0.930 . S
H2272 C2218 0.930 . S
H2273 C2221 0.929 . S
H2274 C2226 0.929 1_554 S
H2275 C2227 0.930 . S
H2276 C2234 0.929 . S
H2277 C2235 0.930 . S
H2278 C2236 0.930 . S
H2279 C2237 0.930 . S
H2280 C2239 0.929 . S
H2281 C2240 0.930 . S
H2282 C2241 0.930 . S
H2283 C2242 0.930 . S
H2284 C2246 0.929 . S
H2285 C2248 0.930 . S
H2286 C2254 0.929 . S
H2287 C2255 0.930 . S
Li2288 N2305 1.990 . S
Li2288 O2348 1.956 . S
Li2288 O2349 1.970 . S
Li2288 O2350 1.961 . S
Li2289 N2313 1.990 . S
Li2289 O2348 1.970 . S
Li2289 O2349 1.956 . S
Li2289 O2351 1.961 . S
Li2290 N2335 1.990 . S
Li2290 O2348 1.961 . S
Li2290 O2350 1.956 . S
Li2290 O2351 1.970 . S
Li2291 N2341 1.990 . S
Li2291 O2349 1.961 . S
Li2291 O2350 1.970 . S
Li2291 O2351 1.956 . S
C2292 C2294 1.348 . S
C2292 C2295 1.356 . S
C2292 O2348 1.325 . S
N2293 C2296 1.314 . S
N2293 C2297 1.279 . S
C2294 C2292 1.348 . S
C2294 C2296 1.353 . S
C2294 H2352 0.929 . S
C2295 C2292 1.356 . S
C2295 C2297 1.358 . S
C2295 H2353 0.930 . S
C2296 N2293 1.314 . S
C2296 C2294 1.353 . S
C2296 H2354 0.930 . S
C2297 N2293 1.279 . S
C2297 C2295 1.358 . S
C2297 H2355 0.930 . S
C2298 C2301 1.348 . S
C2298 C2302 1.356 . S
C2298 O2349 1.325 . S
C2299 N2300 1.279 . S
C2299 C2302 1.358 . S
C2299 H2356 0.930 . S
N2300 C2299 1.279 . S
N2300 C2303 1.314 . S
C2301 C2298 1.348 . S
C2301 C2303 1.353 . S
C2301 H2357 0.929 . S
C2302 C2298 1.356 . S
C2302 C2299 1.358 . S
C2302 H2358 0.930 . S
C2303 N2300 1.314 . S
C2303 C2301 1.353 . S
C2303 H2359 0.930 . S
C2304 N2305 1.314 . S
C2304 C2309 1.353 . S
C2304 H2310 0.930 . S
N2305 Li2288 1.990 . S
N2305 C2304 1.314 . S
N2305 C2307 1.279 . S
C2306 C2307 1.358 . S
C2306 C2308 1.356 . S
C2306 H2360 0.930 . S
C2307 N2305 1.279 . S
C2307 C2306 1.358 . S
C2307 H2311 0.930 . S
C2308 C2306 1.356 . S
C2308 C2309 1.348 . S
C2309 C2304 1.353 . S
C2309 C2308 1.348 . S
C2309 H2361 0.929 . S
H2310 C2304 0.930 . S
H2311 C2307 0.930 . S
C2312 N2313 1.314 . S
C2312 C2314 1.353 . S
C2312 H2318 0.930 . S
N2313 Li2289 1.990 . S
N2313 C2312 1.314 . S
N2313 C2316 1.279 . S
C2314 C2312 1.353 . S
C2314 C2317 1.348 . S
C2314 H2362 0.929 . S
C2315 C2316 1.358 . S
C2315 C2317 1.356 . S
C2315 H2363 0.930 . S
C2316 N2313 1.279 . S
C2316 C2315 1.358 . S
C2316 H2319 0.930 . S
C2317 C2314 1.348 . S
C2317 C2315 1.356 . S
H2318 C2312 0.930 . S
H2319 C2316 0.930 . S
C2320 C2322 1.348 . S
C2320 C2323 1.356 . S
C2320 O2350 1.325 . S
N2321 C2324 1.314 . S
N2321 C2325 1.279 . S
C2322 C2320 1.348 . S
C2322 C2324 1.353 . S
C2322 H2364 0.929 . S
C2323 C2320 1.356 . S
C2323 C2325 1.358 . S
C2323 H2365 0.930 . S
C2324 N2321 1.314 . S
C2324 C2322 1.353 . S
C2324 H2366 0.930 . S
C2325 N2321 1.279 . S
C2325 C2323 1.358 . S
C2325 H2367 0.930 . S
C2326 C2327 1.348 . S
C2326 C2328 1.356 . S
C2326 O2351 1.325 . S
C2327 C2326 1.348 . S
C2327 C2329 1.353 . S
C2327 H2368 0.929 . S
C2328 C2326 1.356 . S
C2328 C2330 1.358 . S
C2328 H2369 0.930 . S
C2329 C2327 1.353 . S
C2329 N2331 1.314 . S
C2329 H2370 0.930 . S
C2330 C2328 1.358 . S
C2330 N2331 1.279 . S
C2330 H2371 0.930 . S
N2331 C2329 1.314 . S
N2331 C2330 1.279 . S
C2332 C2334 1.353 . S
C2332 N2335 1.314 . S
C2332 H2338 0.930 . S
C2333 N2335 1.279 . S
C2333 C2336 1.358 . S
C2333 H2339 0.930 . S
C2334 C2332 1.353 . S
C2334 C2337 1.348 . S
C2334 H2372 0.929 . S
N2335 Li2290 1.990 . S
N2335 C2332 1.314 . S
N2335 C2333 1.279 . S
C2336 C2333 1.358 . S
C2336 C2337 1.356 . S
C2336 H2373 0.930 . S
C2337 C2334 1.348 . S
C2337 C2336 1.356 . S
H2338 C2332 0.930 . S
H2339 C2333 0.930 . S
C2340 N2341 1.314 . S
C2340 C2342 1.353 . S
C2340 H2346 0.930 . S
N2341 Li2291 1.990 . S
N2341 C2340 1.314 . S
N2341 C2344 1.279 . S
C2342 C2340 1.353 . S
C2342 C2345 1.348 . S
C2342 H2374 0.929 . S
C2343 C2344 1.358 . S
C2343 C2345 1.356 . S
C2343 H2375 0.930 . S
C2344 N2341 1.279 . S
C2344 C2343 1.358 . S
C2344 H2347 0.930 . S
C2345 C2342 1.348 . S
C2345 C2343 1.356 . S
H2346 C2340 0.930 . S
H2347 C2344 0.930 . S
O2348 Li2288 1.956 . S
O2348 Li2289 1.970 . S
O2348 Li2290 1.961 . S
O2348 C2292 1.325 . S
O2349 Li2288 1.970 . S
O2349 Li2289 1.956 . S
O2349 Li2291 1.961 . S
O2349 C2298 1.325 . S
O2350 Li2288 1.961 . S
O2350 Li2290 1.956 . S
O2350 Li2291 1.970 . S
O2350 C2320 1.325 . S
O2351 Li2289 1.961 . S
O2351 Li2290 1.970 . S
O2351 Li2291 1.956 . S
O2351 C2326 1.325 . S
H2352 C2294 0.929 . S
H2353 C2295 0.930 . S
H2354 C2296 0.930 . S
H2355 C2297 0.930 . S
H2356 C2299 0.930 . S
H2357 C2301 0.929 . S
H2358 C2302 0.930 . S
H2359 C2303 0.930 . S
H2360 C2306 0.930 . S
H2361 C2309 0.929 . S
H2362 C2314 0.929 . S
H2363 C2315 0.930 . S
H2364 C2322 0.929 . S
H2365 C2323 0.930 . S
H2366 C2324 0.930 . S
H2367 C2325 0.930 . S
H2368 C2327 0.929 . S
H2369 C2328 0.930 . S
H2370 C2329 0.930 . S
H2371 C2330 0.930 . S
H2372 C2334 0.929 . S
H2373 C2336 0.930 . S
H2374 C2342 0.929 . S
H2375 C2343 0.930 . S
Li2376 N2393 1.990 . S
Li2376 O2436 1.956 . S
Li2376 O2437 1.970 . S
Li2376 O2438 1.961 . S
Li2377 N2401 1.990 . S
Li2377 O2436 1.970 . S
Li2377 O2437 1.956 . S
Li2377 O2439 1.961 . S
Li2378 N2423 1.990 . S
Li2378 O2436 1.961 . S
Li2378 O2438 1.956 . S
Li2378 O2439 1.970 . S
Li2379 N2429 1.990 1_655 S
Li2379 O2437 1.961 . S
Li2379 O2438 1.970 . S
Li2379 O2439 1.956 . S
C2380 C2382 1.348 . S
C2380 C2383 1.356 . S
C2380 O2436 1.325 . S
N2381 C2384 1.314 . S
N2381 C2385 1.279 . S
C2382 C2380 1.348 . S
C2382 C2384 1.353 . S
C2382 H2440 0.929 . S
C2383 C2380 1.356 . S
C2383 C2385 1.358 . S
C2383 H2441 0.930 . S
C2384 N2381 1.314 . S
C2384 C2382 1.353 . S
C2384 H2442 0.930 . S
C2385 N2381 1.279 . S
C2385 C2383 1.358 . S
C2385 H2443 0.930 . S
C2386 C2389 1.348 . S
C2386 C2390 1.356 . S
C2386 O2437 1.325 . S
C2387 N2388 1.279 . S
C2387 C2390 1.358 . S
C2387 H2444 0.930 . S
N2388 C2387 1.279 . S
N2388 C2391 1.314 . S
C2389 C2386 1.348 . S
C2389 C2391 1.353 . S
C2389 H2445 0.929 . S
C2390 C2386 1.356 . S
C2390 C2387 1.358 . S
C2390 H2446 0.925 1_655 S
C2391 N2388 1.314 . S
C2391 C2389 1.353 . S
C2391 H2447 0.930 . S
C2392 N2393 1.314 . S
C2392 C2397 1.353 . S
C2392 H2398 0.930 . S
N2393 Li2376 1.990 . S
N2393 C2392 1.314 . S
N2393 C2395 1.279 . S
C2394 C2395 1.358 . S
C2394 C2396 1.356 . S
C2394 H2448 0.930 . S
C2395 N2393 1.279 . S
C2395 C2394 1.358 . S
C2395 H2399 0.930 . S
C2396 C2394 1.356 . S
C2396 C2397 1.348 . S
C2397 C2392 1.353 . S
C2397 C2396 1.348 . S
C2397 H2449 0.929 . S
H2398 C2392 0.930 . S
H2399 C2395 0.930 . S
C2400 N2401 1.314 . S
C2400 C2402 1.353 . S
C2400 H2406 0.930 . S
N2401 Li2377 1.990 . S
N2401 C2400 1.314 . S
N2401 C2404 1.279 . S
C2402 C2400 1.353 . S
C2402 C2405 1.348 . S
C2402 H2450 0.929 . S
C2403 C2404 1.358 . S
C2403 C2405 1.356 . S
C2403 H2451 0.930 . S
C2404 N2401 1.279 . S
C2404 C2403 1.358 . S
C2404 H2407 0.930 . S
C2405 C2402 1.348 . S
C2405 C2403 1.356 . S
H2406 C2400 0.930 . S
H2407 C2404 0.930 . S
C2408 C2410 1.348 1_655 S
C2408 C2411 1.356 . S
C2408 O2438 1.325 . S
N2409 C2412 1.314 1_655 S
N2409 C2413 1.279 . S
C2410 C2408 1.348 1_455 S
C2410 C2412 1.353 . S
C2410 H2452 0.929 . S
C2411 C2408 1.356 . S
C2411 C2413 1.358 . S
C2411 H2453 0.930 . S
C2412 N2409 1.314 1_455 S
C2412 C2410 1.353 . S
C2412 H2454 0.930 . S
C2413 N2409 1.279 . S
C2413 C2411 1.358 . S
C2413 H2455 0.930 . S
C2414 C2415 1.348 . S
C2414 C2416 1.356 . S
C2414 O2439 1.325 1_455 S
C2415 C2414 1.348 . S
C2415 C2417 1.353 . S
C2415 H2456 0.929 . S
C2416 C2414 1.356 . S
C2416 C2418 1.358 . S
C2416 H2457 0.930 . S
C2417 C2415 1.353 . S
C2417 N2419 1.314 . S
C2417 H2458 0.930 . S
C2418 C2416 1.358 . S
C2418 N2419 1.279 . S
C2418 H2459 0.930 . S
N2419 C2417 1.314 . S
N2419 C2418 1.279 . S
C2420 C2422 1.353 . S
C2420 N2423 1.314 . S
C2420 H2426 0.930 . S
C2421 N2423 1.279 . S
C2421 C2424 1.358 . S
C2421 H2427 0.930 . S
C2422 C2420 1.353 . S
C2422 C2425 1.348 . S
C2422 H2460 0.929 . S
N2423 Li2378 1.990 . S
N2423 C2420 1.314 . S
N2423 C2421 1.279 . S
C2424 C2421 1.358 . S
C2424 C2425 1.356 . S
C2424 H2461 0.930 . S
C2425 C2422 1.348 . S
C2425 C2424 1.356 . S
H2426 C2420 0.930 . S
H2427 C2421 0.930 . S
C2428 N2429 1.314 . S
C2428 C2430 1.353 . S
C2428 H2434 0.930 . S
N2429 Li2379 1.990 1_455 S
N2429 C2428 1.314 . S
N2429 C2432 1.279 . S
C2430 C2428 1.353 . S
C2430 C2433 1.348 . S
C2430 H2462 0.929 . S
C2431 C2432 1.358 . S
C2431 C2433 1.356 . S
C2431 H2463 0.930 . S
C2432 N2429 1.279 . S
C2432 C2431 1.358 . S
C2432 H2435 0.930 . S
C2433 C2430 1.348 . S
C2433 C2431 1.356 . S
H2434 C2428 0.930 . S
H2435 C2432 0.930 . S
O2436 Li2376 1.956 . S
O2436 Li2377 1.970 . S
O2436 Li2378 1.961 . S
O2436 C2380 1.325 . S
O2437 Li2376 1.970 . S
O2437 Li2377 1.956 . S
O2437 Li2379 1.961 . S
O2437 C2386 1.325 . S
O2438 Li2376 1.961 . S
O2438 Li2378 1.956 . S
O2438 Li2379 1.970 . S
O2438 C2408 1.325 . S
O2439 Li2377 1.961 . S
O2439 Li2378 1.970 . S
O2439 Li2379 1.956 . S
O2439 C2414 1.325 1_655 S
H2440 C2382 0.929 . S
H2441 C2383 0.930 . S
H2442 C2384 0.930 . S
H2443 C2385 0.930 . S
H2444 C2387 0.930 . S
H2445 C2389 0.929 . S
H2446 C2390 0.925 1_455 S
H2447 C2391 0.930 . S
H2448 C2394 0.930 . S
H2449 C2397 0.929 . S
H2450 C2402 0.929 . S
H2451 C2403 0.930 . S
H2452 C2410 0.929 . S
H2453 C2411 0.930 . S
H2454 C2412 0.930 . S
H2455 C2413 0.930 . S
H2456 C2415 0.929 . S
H2457 C2416 0.930 . S
H2458 C2417 0.930 . S
H2459 C2418 0.930 . S
H2460 C2422 0.929 . S
H2461 C2424 0.930 . S
H2462 C2430 0.929 . S
H2463 C2431 0.930 . S
Li2464 N2481 1.990 . S
Li2464 O2524 1.956 . S
Li2464 O2525 1.970 . S
Li2464 O2526 1.961 . S
Li2465 N2489 1.990 . S
Li2465 O2524 1.970 . S
Li2465 O2525 1.956 . S
Li2465 O2527 1.961 . S
Li2466 N2511 1.990 . S
Li2466 O2524 1.961 . S
Li2466 O2526 1.956 . S
Li2466 O2527 1.970 . S
Li2467 N2517 1.990 . S
Li2467 O2525 1.961 . S
Li2467 O2526 1.970 . S
Li2467 O2527 1.956 . S
C2468 C2470 1.348 . S
C2468 C2471 1.356 . S
C2468 O2524 1.325 . S
N2469 C2472 1.314 . S
N2469 C2473 1.279 . S
C2470 C2468 1.348 . S
C2470 C2472 1.353 . S
C2470 H2528 0.929 . S
C2471 C2468 1.356 . S
C2471 C2473 1.358 . S
C2471 H2529 0.930 . S
C2472 N2469 1.314 . S
C2472 C2470 1.353 . S
C2472 H2530 0.930 . S
C2473 N2469 1.279 . S
C2473 C2471 1.358 . S
C2473 H2531 0.930 . S
C2474 C2477 1.348 . S
C2474 C2478 1.356 . S
C2474 O2525 1.325 . S
C2475 N2476 1.279 . S
C2475 C2478 1.358 . S
C2475 H2532 0.930 . S
N2476 C2475 1.279 . S
N2476 C2479 1.314 . S
C2477 C2474 1.348 . S
C2477 C2479 1.353 . S
C2477 H2533 0.929 . S
C2478 C2474 1.356 . S
C2478 C2475 1.358 . S
C2478 H2534 0.930 . S
C2479 N2476 1.314 . S
C2479 C2477 1.353 . S
C2479 H2535 0.930 . S
C2480 N2481 1.314 . S
C2480 C2485 1.353 . S
C2480 H2486 0.930 . S
N2481 Li2464 1.990 . S
N2481 C2480 1.314 . S
N2481 C2483 1.279 . S
C2482 C2483 1.358 . S
C2482 C2484 1.356 . S
C2482 H2536 0.930 . S
C2483 N2481 1.279 . S
C2483 C2482 1.358 . S
C2483 H2487 0.930 . S
C2484 C2482 1.356 . S
C2484 C2485 1.348 . S
C2485 C2480 1.353 . S
C2485 C2484 1.348 . S
C2485 H2537 0.929 . S
H2486 C2480 0.930 . S
H2487 C2483 0.930 . S
C2488 N2489 1.314 . S
C2488 C2490 1.353 . S
C2488 H2494 0.930 . S
N2489 Li2465 1.990 . S
N2489 C2488 1.314 . S
N2489 C2492 1.279 . S
C2490 C2488 1.353 . S
C2490 C2493 1.348 . S
C2490 H2538 0.929 . S
C2491 C2492 1.358 . S
C2491 C2493 1.356 . S
C2491 H2539 0.930 . S
C2492 N2489 1.279 . S
C2492 C2491 1.358 . S
C2492 H2495 0.930 . S
C2493 C2490 1.348 . S
C2493 C2491 1.356 . S
H2494 C2488 0.930 . S
H2495 C2492 0.930 . S
C2496 C2498 1.348 . S
C2496 C2499 1.356 . S
C2496 O2526 1.325 . S
N2497 C2500 1.314 . S
N2497 C2501 1.279 . S
C2498 C2496 1.348 . S
C2498 C2500 1.353 . S
C2498 H2540 0.929 . S
C2499 C2496 1.356 . S
C2499 C2501 1.358 . S
C2499 H2541 0.930 . S
C2500 N2497 1.314 . S
C2500 C2498 1.353 . S
C2500 H2542 0.930 . S
C2501 N2497 1.279 . S
C2501 C2499 1.358 . S
C2501 H2543 0.930 . S
C2502 C2503 1.348 . S
C2502 C2504 1.356 . S
C2502 O2527 1.325 . S
C2503 C2502 1.348 . S
C2503 C2505 1.353 . S
C2503 H2544 0.929 . S
C2504 C2502 1.356 . S
C2504 C2506 1.358 . S
C2504 H2545 0.930 . S
C2505 C2503 1.353 . S
C2505 N2507 1.314 . S
C2505 H2546 0.930 . S
C2506 C2504 1.358 . S
C2506 N2507 1.279 . S
C2506 H2547 0.930 . S
N2507 C2505 1.314 . S
N2507 C2506 1.279 . S
C2508 C2510 1.353 . S
C2508 N2511 1.314 . S
C2508 H2514 0.930 . S
C2509 N2511 1.279 . S
C2509 C2512 1.358 . S
C2509 H2515 0.930 . S
C2510 C2508 1.353 . S
C2510 C2513 1.348 . S
C2510 H2548 0.929 . S
N2511 Li2466 1.990 . S
N2511 C2508 1.314 . S
N2511 C2509 1.279 . S
C2512 C2509 1.358 . S
C2512 C2513 1.356 . S
C2512 H2549 0.930 . S
C2513 C2510 1.348 . S
C2513 C2512 1.356 . S
H2514 C2508 0.930 . S
H2515 C2509 0.930 . S
C2516 N2517 1.314 . S
C2516 C2518 1.353 . S
C2516 H2522 0.930 . S
N2517 Li2467 1.990 . S
N2517 C2516 1.314 . S
N2517 C2520 1.279 . S
C2518 C2516 1.353 . S
C2518 C2521 1.348 . S
C2518 H2550 0.929 . S
C2519 C2520 1.358 . S
C2519 C2521 1.356 . S
C2519 H2551 0.930 . S
C2520 N2517 1.279 . S
C2520 C2519 1.358 . S
C2520 H2523 0.930 . S
C2521 C2518 1.348 . S
C2521 C2519 1.356 . S
H2522 C2516 0.930 . S
H2523 C2520 0.930 . S
O2524 Li2464 1.956 . S
O2524 Li2465 1.970 . S
O2524 Li2466 1.961 . S
O2524 C2468 1.325 . S
O2525 Li2464 1.970 . S
O2525 Li2465 1.956 . S
O2525 Li2467 1.961 . S
O2525 C2474 1.325 . S
O2526 Li2464 1.961 . S
O2526 Li2466 1.956 . S
O2526 Li2467 1.970 . S
O2526 C2496 1.325 . S
O2527 Li2465 1.961 . S
O2527 Li2466 1.970 . S
O2527 Li2467 1.956 . S
O2527 C2502 1.325 . S
H2528 C2470 0.929 . S
H2529 C2471 0.930 . S
H2530 C2472 0.930 . S
H2531 C2473 0.930 . S
H2532 C2475 0.930 . S
H2533 C2477 0.929 . S
H2534 C2478 0.930 . S
H2535 C2479 0.930 . S
H2536 C2482 0.930 . S
H2537 C2485 0.929 . S
H2538 C2490 0.929 . S
H2539 C2491 0.930 . S
H2540 C2498 0.929 . S
H2541 C2499 0.930 . S
H2542 C2500 0.930 . S
H2543 C2501 0.930 . S
H2544 C2503 0.929 . S
H2545 C2504 0.930 . S
H2546 C2505 0.930 . S
H2547 C2506 0.930 . S
H2548 C2510 0.929 . S
H2549 C2512 0.930 . S
H2550 C2518 0.929 . S
H2551 C2519 0.930 . S
Li2552 N2569 1.990 1_655 S
Li2552 O2612 1.956 . S
Li2552 O2613 1.970 . S
Li2552 O2614 1.961 . S
Li2553 N2577 1.990 . S
Li2553 O2612 1.970 . S
Li2553 O2613 1.956 . S
Li2553 O2615 1.961 . S
Li2554 N2599 1.990 1_554 S
Li2554 O2612 1.961 . S
Li2554 O2614 1.956 . S
Li2554 O2615 1.970 . S
Li2555 N2605 1.990 . S
Li2555 O2613 1.961 . S
Li2555 O2614 1.970 . S
Li2555 O2615 1.956 . S
C2556 C2558 1.348 . S
C2556 C2559 1.356 . S
C2556 O2612 1.325 1_456 S
N2557 C2560 1.314 . S
N2557 C2561 1.279 . S
C2558 C2556 1.348 . S
C2558 C2560 1.353 . S
C2558 H2616 0.929 1_556 S
C2559 C2556 1.356 . S
C2559 C2561 1.358 . S
C2559 H2617 0.930 . S
C2560 N2557 1.314 . S
C2560 C2558 1.353 . S
C2560 H2618 0.930 . S
C2561 N2557 1.279 . S
C2561 C2559 1.358 . S
C2561 H2619 0.930 . S
C2562 C2565 1.348 1_655 S
C2562 C2566 1.356 . S
C2562 O2613 1.325 . S
C2563 N2564 1.279 . S
C2563 C2566 1.358 . S
C2563 H2620 0.930 . S
N2564 C2563 1.279 . S
N2564 C2567 1.314 1_655 S
C2565 C2562 1.348 1_455 S
C2565 C2567 1.353 . S
C2565 H2621 0.929 . S
C2566 C2562 1.356 . S
C2566 C2563 1.358 . S
C2566 H2622 0.930 . S
C2567 N2564 1.314 1_455 S
C2567 C2565 1.353 . S
C2567 H2623 0.930 . S
C2568 N2569 1.314 . S
C2568 C2573 1.353 . S
C2568 H2574 0.930 . S
N2569 Li2552 1.990 1_455 S
N2569 C2568 1.314 . S
N2569 C2571 1.279 . S
C2570 C2571 1.358 . S
C2570 C2572 1.356 . S
C2570 H2624 0.930 . S
C2571 N2569 1.279 . S
C2571 C2570 1.358 . S
C2571 H2575 0.930 . S
C2572 C2570 1.356 . S
C2572 C2573 1.348 . S
C2573 C2568 1.353 . S
C2573 C2572 1.348 . S
C2573 H2625 0.929 . S
H2574 C2568 0.930 . S
H2575 C2571 0.930 . S
C2576 N2577 1.314 . S
C2576 C2578 1.353 . S
C2576 H2582 0.930 1_554 S
N2577 Li2553 1.990 . S
N2577 C2576 1.314 . S
N2577 C2580 1.279 . S
C2578 C2576 1.353 . S
C2578 C2581 1.348 . S
C2578 H2626 0.929 1_554 S
C2579 C2580 1.358 . S
C2579 C2581 1.356 . S
C2579 H2627 0.930 . S
C2580 N2577 1.279 . S
C2580 C2579 1.358 . S
C2580 H2583 0.930 . S
C2581 C2578 1.348 . S
C2581 C2579 1.356 . S
H2582 C2576 0.930 1_556 S
H2583 C2580 0.930 . S
C2584 C2586 1.348 . S
C2584 C2587 1.356 . S
C2584 O2614 1.325 . S
N2585 C2588 1.314 . S
N2585 C2589 1.279 . S
C2586 C2584 1.348 . S
C2586 C2588 1.353 . S
C2586 H2628 0.929 . S
C2587 C2584 1.356 . S
C2587 C2589 1.358 . S
C2587 H2629 0.925 1_655 S
C2588 N2585 1.314 . S
C2588 C2586 1.353 . S
C2588 H2630 0.930 . S
C2589 N2585 1.279 . S
C2589 C2587 1.358 . S
C2589 H2631 0.930 . S
C2590 C2591 1.348 1_554 S
C2590 C2592 1.356 . S
C2590 O2615 1.325 . S
C2591 C2590 1.348 1_556 S
C2591 C2593 1.353 . S
C2591 H2632 0.929 . S
C2592 C2590 1.356 . S
C2592 C2594 1.358 . S
C2592 H2633 0.930 . S
C2593 C2591 1.353 . S
C2593 N2595 1.314 . S
C2593 H2634 0.930 . S
C2594 C2592 1.358 . S
C2594 N2595 1.279 1_554 S
C2594 H2635 0.930 . S
N2595 C2593 1.314 . S
N2595 C2594 1.279 1_556 S
C2596 C2598 1.353 . S
C2596 N2599 1.314 . S
C2596 H2602 0.930 . S
C2597 N2599 1.279 . S
C2597 C2600 1.358 . S
C2597 H2603 0.930 . S
C2598 C2596 1.353 . S
C2598 C2601 1.348 . S
C2598 H2636 0.929 . S
N2599 Li2554 1.990 1_556 S
N2599 C2596 1.314 . S
N2599 C2597 1.279 . S
C2600 C2597 1.358 . S
C2600 C2601 1.356 . S
C2600 H2637 0.930 . S
C2601 C2598 1.348 . S
C2601 C2600 1.356 . S
H2602 C2596 0.930 . S
H2603 C2597 0.930 . S
C2604 N2605 1.314 . S
C2604 C2606 1.353 . S
C2604 H2610 0.930 . S
N2605 Li2555 1.990 . S
N2605 C2604 1.314 . S
N2605 C2608 1.279 . S
C2606 C2604 1.353 . S
C2606 C2609 1.348 . S
C2606 H2638 0.929 . S
C2607 C2608 1.358 . S
C2607 C2609 1.356 . S
C2607 H2639 0.930 . S
C2608 N2605 1.279 . S
C2608 C2607 1.358 . S
C2608 H2611 0.930 . S
C2609 C2606 1.348 . S
C2609 C2607 1.356 . S
H2610 C2604 0.930 . S
H2611 C2608 0.930 . S
O2612 Li2552 1.956 . S
O2612 Li2553 1.970 . S
O2612 Li2554 1.961 . S
O2612 C2556 1.325 1_654 S
O2613 Li2552 1.970 . S
O2613 Li2553 1.956 . S
O2613 Li2555 1.961 . S
O2613 C2562 1.325 . S
O2614 Li2552 1.961 . S
O2614 Li2554 1.956 . S
O2614 Li2555 1.970 . S
O2614 C2584 1.325 . S
O2615 Li2553 1.961 . S
O2615 Li2554 1.970 . S
O2615 Li2555 1.956 . S
O2615 C2590 1.325 . S
H2616 C2558 0.929 1_554 S
H2617 C2559 0.930 . S
H2618 C2560 0.930 . S
H2619 C2561 0.930 . S
H2620 C2563 0.930 . S
H2621 C2565 0.929 . S
H2622 C2566 0.930 . S
H2623 C2567 0.930 . S
H2624 C2570 0.930 . S
H2625 C2573 0.929 . S
H2626 C2578 0.929 1_556 S
H2627 C2579 0.930 . S
H2628 C2586 0.929 . S
H2629 C2587 0.925 1_455 S
H2630 C2588 0.930 . S
H2631 C2589 0.930 . S
H2632 C2591 0.929 . S
H2633 C2592 0.930 . S
H2634 C2593 0.930 . S
H2635 C2594 0.930 . S
H2636 C2598 0.929 . S
H2637 C2600 0.930 . S
H2638 C2606 0.929 . S
H2639 C2607 0.930 . S
Li2640 N2657 1.990 . S
Li2640 O2700 1.956 . S
Li2640 O2701 1.970 . S
Li2640 O2702 1.961 . S
Li2641 N2665 1.990 . S
Li2641 O2700 1.970 . S
Li2641 O2701 1.956 . S
Li2641 O2703 1.961 . S
Li2642 N2687 1.990 . S
Li2642 O2700 1.961 . S
Li2642 O2702 1.956 . S
Li2642 O2703 1.970 . S
Li2643 N2693 1.990 . S
Li2643 O2701 1.961 . S
Li2643 O2702 1.970 . S
Li2643 O2703 1.956 . S
C2644 C2646 1.348 . S
C2644 C2647 1.356 . S
C2644 O2700 1.325 . S
N2645 C2648 1.314 . S
N2645 C2649 1.279 . S
C2646 C2644 1.348 . S
C2646 C2648 1.353 . S
C2646 H2704 0.929 . S
C2647 C2644 1.356 . S
C2647 C2649 1.358 . S
C2647 H2705 0.930 . S
C2648 N2645 1.314 . S
C2648 C2646 1.353 . S
C2648 H2706 0.930 . S
C2649 N2645 1.279 . S
C2649 C2647 1.358 . S
C2649 H2707 0.930 . S
C2650 C2653 1.348 . S
C2650 C2654 1.356 . S
C2650 O2701 1.325 . S
C2651 N2652 1.279 . S
C2651 C2654 1.358 . S
C2651 H2708 0.930 . S
N2652 C2651 1.279 . S
N2652 C2655 1.314 . S
C2653 C2650 1.348 . S
C2653 C2655 1.353 . S
C2653 H2709 0.929 . S
C2654 C2650 1.356 . S
C2654 C2651 1.358 . S
C2654 H2710 0.930 . S
C2655 N2652 1.314 . S
C2655 C2653 1.353 . S
C2655 H2711 0.930 . S
C2656 N2657 1.314 . S
C2656 C2661 1.353 . S
C2656 H2662 0.930 . S
N2657 Li2640 1.990 . S
N2657 C2656 1.314 . S
N2657 C2659 1.279 . S
C2658 C2659 1.358 . S
C2658 C2660 1.356 . S
C2658 H2712 0.930 . S
C2659 N2657 1.279 . S
C2659 C2658 1.358 . S
C2659 H2663 0.930 . S
C2660 C2658 1.356 . S
C2660 C2661 1.348 . S
C2661 C2656 1.353 . S
C2661 C2660 1.348 . S
C2661 H2713 0.929 . S
H2662 C2656 0.930 . S
H2663 C2659 0.930 . S
C2664 N2665 1.314 . S
C2664 C2666 1.353 . S
C2664 H2670 0.930 . S
N2665 Li2641 1.990 . S
N2665 C2664 1.314 . S
N2665 C2668 1.279 . S
C2666 C2664 1.353 . S
C2666 C2669 1.348 . S
C2666 H2714 0.929 . S
C2667 C2668 1.358 . S
C2667 C2669 1.356 . S
C2667 H2715 0.930 . S
C2668 N2665 1.279 . S
C2668 C2667 1.358 . S
C2668 H2671 0.930 . S
C2669 C2666 1.348 . S
C2669 C2667 1.356 . S
H2670 C2664 0.930 . S
H2671 C2668 0.930 . S
C2672 C2674 1.348 . S
C2672 C2675 1.356 . S
C2672 O2702 1.325 . S
N2673 C2676 1.314 . S
N2673 C2677 1.279 . S
C2674 C2672 1.348 . S
C2674 C2676 1.353 . S
C2674 H2716 0.929 . S
C2675 C2672 1.356 . S
C2675 C2677 1.358 . S
C2675 H2717 0.930 . S
C2676 N2673 1.314 . S
C2676 C2674 1.353 . S
C2676 H2718 0.930 . S
C2677 N2673 1.279 . S
C2677 C2675 1.358 . S
C2677 H2719 0.930 . S
C2678 C2679 1.348 . S
C2678 C2680 1.356 . S
C2678 O2703 1.325 . S
C2679 C2678 1.348 . S
C2679 C2681 1.353 . S
C2679 H2720 0.929 . S
C2680 C2678 1.356 . S
C2680 C2682 1.358 . S
C2680 H2721 0.930 . S
C2681 C2679 1.353 . S
C2681 N2683 1.314 . S
C2681 H2722 0.930 . S
C2682 C2680 1.358 . S
C2682 N2683 1.279 . S
C2682 H2723 0.930 . S
N2683 C2681 1.314 . S
N2683 C2682 1.279 . S
C2684 C2686 1.353 . S
C2684 N2687 1.314 . S
C2684 H2690 0.930 . S
C2685 N2687 1.279 . S
C2685 C2688 1.358 . S
C2685 H2691 0.930 . S
C2686 C2684 1.353 . S
C2686 C2689 1.348 . S
C2686 H2724 0.929 . S
N2687 Li2642 1.990 . S
N2687 C2684 1.314 . S
N2687 C2685 1.279 . S
C2688 C2685 1.358 . S
C2688 C2689 1.356 . S
C2688 H2725 0.930 . S
C2689 C2686 1.348 . S
C2689 C2688 1.356 . S
H2690 C2684 0.930 . S
H2691 C2685 0.930 . S
C2692 N2693 1.314 . S
C2692 C2694 1.353 . S
C2692 H2698 0.930 . S
N2693 Li2643 1.990 . S
N2693 C2692 1.314 . S
N2693 C2696 1.279 . S
C2694 C2692 1.353 . S
C2694 C2697 1.348 . S
C2694 H2726 0.929 . S
C2695 C2696 1.358 . S
C2695 C2697 1.356 . S
C2695 H2727 0.930 . S
C2696 N2693 1.279 . S
C2696 C2695 1.358 . S
C2696 H2699 0.930 . S
C2697 C2694 1.348 . S
C2697 C2695 1.356 . S
H2698 C2692 0.930 . S
H2699 C2696 0.930 . S
O2700 Li2640 1.956 . S
O2700 Li2641 1.970 . S
O2700 Li2642 1.961 . S
O2700 C2644 1.325 . S
O2701 Li2640 1.970 . S
O2701 Li2641 1.956 . S
O2701 Li2643 1.961 . S
O2701 C2650 1.325 . S
O2702 Li2640 1.961 . S
O2702 Li2642 1.956 . S
O2702 Li2643 1.970 . S
O2702 C2672 1.325 . S
O2703 Li2641 1.961 . S
O2703 Li2642 1.970 . S
O2703 Li2643 1.956 . S
O2703 C2678 1.325 . S
H2704 C2646 0.929 . S
H2705 C2647 0.930 . S
H2706 C2648 0.930 . S
H2707 C2649 0.930 . S
H2708 C2651 0.930 . S
H2709 C2653 0.929 . S
H2710 C2654 0.930 . S
H2711 C2655 0.930 . S
H2712 C2658 0.930 . S
H2713 C2661 0.929 . S
H2714 C2666 0.929 . S
H2715 C2667 0.930 . S
H2716 C2674 0.929 . S
H2717 C2675 0.930 . S
H2718 C2676 0.930 . S
H2719 C2677 0.930 . S
H2720 C2679 0.929 . S
H2721 C2680 0.930 . S
H2722 C2681 0.930 . S
H2723 C2682 0.930 . S
H2724 C2686 0.929 . S
H2725 C2688 0.930 . S
H2726 C2694 0.929 . S
H2727 C2695 0.930 . S
Li2728 N2745 1.990 . S
Li2728 O2788 1.956 . S
Li2728 O2789 1.970 . S
Li2728 O2790 1.961 . S
Li2729 N2753 1.990 . S
Li2729 O2788 1.970 . S
Li2729 O2789 1.956 . S
Li2729 O2791 1.961 . S
Li2730 N2775 1.990 . S
Li2730 O2788 1.961 . S
Li2730 O2790 1.956 . S
Li2730 O2791 1.970 . S
Li2731 N2781 1.990 . S
Li2731 O2789 1.961 . S
Li2731 O2790 1.970 . S
Li2731 O2791 1.956 . S
C2732 C2734 1.348 . S
C2732 C2735 1.356 . S
C2732 O2788 1.325 . S
N2733 C2736 1.314 . S
N2733 C2737 1.279 . S
C2734 C2732 1.348 . S
C2734 C2736 1.353 . S
C2734 H2792 0.929 . S
C2735 C2732 1.356 . S
C2735 C2737 1.358 . S
C2735 H2793 0.930 . S
C2736 N2733 1.314 . S
C2736 C2734 1.353 . S
C2736 H2794 0.930 . S
C2737 N2733 1.279 . S
C2737 C2735 1.358 . S
C2737 H2795 0.930 . S
C2738 C2741 1.348 . S
C2738 C2742 1.356 . S
C2738 O2789 1.325 . S
C2739 N2740 1.279 . S
C2739 C2742 1.358 . S
C2739 H2796 0.930 . S
N2740 C2739 1.279 . S
N2740 C2743 1.314 . S
C2741 C2738 1.348 . S
C2741 C2743 1.353 . S
C2741 H2797 0.929 . S
C2742 C2738 1.356 . S
C2742 C2739 1.358 . S
C2742 H2798 0.930 . S
C2743 N2740 1.314 . S
C2743 C2741 1.353 . S
C2743 H2799 0.930 . S
C2744 N2745 1.314 . S
C2744 C2749 1.353 . S
C2744 H2750 0.930 . S
N2745 Li2728 1.990 . S
N2745 C2744 1.314 . S
N2745 C2747 1.279 . S
C2746 C2747 1.358 . S
C2746 C2748 1.356 . S
C2746 H2800 0.930 . S
C2747 N2745 1.279 . S
C2747 C2746 1.358 . S
C2747 H2751 0.930 . S
C2748 C2746 1.356 . S
C2748 C2749 1.348 . S
C2749 C2744 1.353 . S
C2749 C2748 1.348 . S
C2749 H2801 0.929 . S
H2750 C2744 0.930 . S
H2751 C2747 0.930 . S
C2752 N2753 1.314 . S
C2752 C2754 1.353 . S
C2752 H2758 0.930 . S
N2753 Li2729 1.990 . S
N2753 C2752 1.314 . S
N2753 C2756 1.279 . S
C2754 C2752 1.353 . S
C2754 C2757 1.348 . S
C2754 H2802 0.929 . S
C2755 C2756 1.358 . S
C2755 C2757 1.356 . S
C2755 H2803 0.930 . S
C2756 N2753 1.279 . S
C2756 C2755 1.358 . S
C2756 H2759 0.930 . S
C2757 C2754 1.348 . S
C2757 C2755 1.356 . S
H2758 C2752 0.930 . S
H2759 C2756 0.930 . S
C2760 C2762 1.348 . S
C2760 C2763 1.356 . S
C2760 O2790 1.325 . S
N2761 C2764 1.314 . S
N2761 C2765 1.279 . S
C2762 C2760 1.348 . S
C2762 C2764 1.353 . S
C2762 H2804 0.929 . S
C2763 C2760 1.356 . S
C2763 C2765 1.358 . S
C2763 H2805 0.930 . S
C2764 N2761 1.314 . S
C2764 C2762 1.353 . S
C2764 H2806 0.930 . S
C2765 N2761 1.279 . S
C2765 C2763 1.358 . S
C2765 H2807 0.930 . S
C2766 C2767 1.348 . S
C2766 C2768 1.356 . S
C2766 O2791 1.325 . S
C2767 C2766 1.348 . S
C2767 C2769 1.353 . S
C2767 H2808 0.929 . S
C2768 C2766 1.356 . S
C2768 C2770 1.358 . S
C2768 H2809 0.930 . S
C2769 C2767 1.353 . S
C2769 N2771 1.314 . S
C2769 H2810 0.930 . S
C2770 C2768 1.358 . S
C2770 N2771 1.279 . S
C2770 H2811 0.930 . S
N2771 C2769 1.314 . S
N2771 C2770 1.279 . S
C2772 C2774 1.353 . S
C2772 N2775 1.314 . S
C2772 H2778 0.930 . S
C2773 N2775 1.279 . S
C2773 C2776 1.358 . S
C2773 H2779 0.930 . S
C2774 C2772 1.353 . S
C2774 C2777 1.348 . S
C2774 H2812 0.929 . S
N2775 Li2730 1.990 . S
N2775 C2772 1.314 . S
N2775 C2773 1.279 . S
C2776 C2773 1.358 . S
C2776 C2777 1.356 . S
C2776 H2813 0.930 . S
C2777 C2774 1.348 . S
C2777 C2776 1.356 . S
H2778 C2772 0.930 . S
H2779 C2773 0.930 . S
C2780 N2781 1.314 . S
C2780 C2782 1.353 . S
C2780 H2786 0.930 . S
N2781 Li2731 1.990 . S
N2781 C2780 1.314 . S
N2781 C2784 1.279 . S
C2782 C2780 1.353 . S
C2782 C2785 1.348 . S
C2782 H2814 0.929 . S
C2783 C2784 1.358 . S
C2783 C2785 1.356 . S
C2783 H2815 0.930 . S
C2784 N2781 1.279 . S
C2784 C2783 1.358 . S
C2784 H2787 0.930 . S
C2785 C2782 1.348 . S
C2785 C2783 1.356 . S
H2786 C2780 0.930 . S
H2787 C2784 0.930 . S
O2788 Li2728 1.956 . S
O2788 Li2729 1.970 . S
O2788 Li2730 1.961 . S
O2788 C2732 1.325 . S
O2789 Li2728 1.970 . S
O2789 Li2729 1.956 . S
O2789 Li2731 1.961 . S
O2789 C2738 1.325 . S
O2790 Li2728 1.961 . S
O2790 Li2730 1.956 . S
O2790 Li2731 1.970 . S
O2790 C2760 1.325 . S
O2791 Li2729 1.961 . S
O2791 Li2730 1.970 . S
O2791 Li2731 1.956 . S
O2791 C2766 1.325 . S
H2792 C2734 0.929 . S
H2793 C2735 0.930 . S
H2794 C2736 0.930 . S
H2795 C2737 0.930 . S
H2796 C2739 0.930 . S
H2797 C2741 0.929 . S
H2798 C2742 0.930 . S
H2799 C2743 0.930 . S
H2800 C2746 0.930 . S
H2801 C2749 0.929 . S
H2802 C2754 0.929 . S
H2803 C2755 0.930 . S
H2804 C2762 0.929 . S
H2805 C2763 0.930 . S
H2806 C2764 0.930 . S
H2807 C2765 0.930 . S
H2808 C2767 0.929 . S
H2809 C2768 0.930 . S
H2810 C2769 0.930 . S
H2811 C2770 0.930 . S
H2812 C2774 0.929 . S
H2813 C2776 0.930 . S
H2814 C2782 0.929 . S
H2815 C2783 0.930 . S
C2816 C2817 1.391 . S
C2816 C2818 1.394 . S
C2816 H2832 0.931 . S
C2817 C2816 1.391 . S
C2817 C2821 1.376 . S
C2818 C2816 1.394 . S
C2818 C2819 1.369 . S
C2818 C2822 1.531 . S
C2819 C2818 1.369 . S
C2819 C2820 1.410 . S
C2819 C2827 1.503 . S
C2820 C2819 1.410 . S
C2820 C2821 1.392 . S
C2820 C2823 1.511 . S
C2821 C2817 1.376 . S
C2821 C2820 1.392 . S
C2821 H2833 0.929 . S
C2822 C2818 1.531 . S
C2822 H2834 0.960 . S
C2822 H2835 0.962 . S
C2822 H2836 0.960 . S
C2823 C2820 1.511 . S
C2823 H2837 0.961 . S
C2823 H2838 0.961 . S
C2823 H2839 0.961 . S
C2824 C2825 1.370 . S
C2824 C2826 1.363 . S
C2824 H2840 0.931 . S
C2825 C2824 1.370 . S
C2825 C2829 1.408 . S
C2826 C2824 1.363 . S
C2826 C2827 1.370 . S
C2826 C2830 1.524 . S
C2827 C2819 1.503 . S
C2827 C2826 1.370 . S
C2827 C2828 1.403 . S
C2828 C2827 1.403 . S
C2828 C2829 1.404 . S
C2828 C2831 1.539 . S
C2829 C2825 1.408 . S
C2829 C2828 1.404 . S
C2829 H2841 0.930 . S
C2830 C2826 1.524 . S
C2830 H2842 0.956 . S
C2830 H2843 0.961 . S
C2830 H2844 0.961 . S
C2831 C2828 1.539 . S
C2831 H2845 0.958 . S
C2831 H2846 0.961 . S
C2831 H2847 0.960 . S
H2832 C2816 0.931 . S
H2833 C2821 0.929 . S
H2834 C2822 0.960 . S
H2835 C2822 0.962 . S
H2836 C2822 0.960 . S
H2837 C2823 0.961 . S
H2838 C2823 0.961 . S
H2839 C2823 0.961 . S
H2840 C2824 0.931 . S
H2841 C2829 0.930 . S
H2842 C2830 0.956 . S
H2843 C2830 0.961 . S
H2844 C2830 0.961 . S
H2845 C2831 0.958 . S
H2846 C2831 0.961 . S
H2847 C2831 0.960 . S
C2848 C2849 1.391 . S
C2848 C2850 1.394 . S
C2848 H2864 0.931 . S
C2849 C2848 1.391 . S
C2849 C2853 1.376 . S
C2850 C2848 1.394 . S
C2850 C2851 1.369 . S
C2850 C2854 1.531 . S
C2851 C2850 1.369 . S
C2851 C2852 1.410 . S
C2851 C2859 1.503 . S
C2852 C2851 1.410 . S
C2852 C2853 1.392 . S
C2852 C2855 1.511 . S
C2853 C2849 1.376 . S
C2853 C2852 1.392 . S
C2853 H2865 0.929 . S
C2854 C2850 1.531 . S
C2854 H2866 0.960 . S
C2854 H2867 0.962 . S
C2854 H2868 0.960 . S
C2855 C2852 1.511 . S
C2855 H2869 0.961 . S
C2855 H2870 0.961 . S
C2855 H2871 0.961 . S
C2856 C2857 1.370 . S
C2856 C2858 1.363 . S
C2856 H2872 0.931 . S
C2857 C2856 1.370 . S
C2857 C2861 1.408 . S
C2858 C2856 1.363 . S
C2858 C2859 1.370 . S
C2858 C2862 1.524 . S
C2859 C2851 1.503 . S
C2859 C2858 1.370 . S
C2859 C2860 1.403 . S
C2860 C2859 1.403 . S
C2860 C2861 1.404 . S
C2860 C2863 1.539 . S
C2861 C2857 1.408 . S
C2861 C2860 1.404 . S
C2861 H2873 0.930 . S
C2862 C2858 1.524 . S
C2862 H2874 0.956 . S
C2862 H2875 0.961 . S
C2862 H2876 0.961 . S
C2863 C2860 1.539 . S
C2863 H2877 0.958 . S
C2863 H2878 0.961 . S
C2863 H2879 0.960 . S
H2864 C2848 0.931 . S
H2865 C2853 0.929 . S
H2866 C2854 0.960 . S
H2867 C2854 0.962 . S
H2868 C2854 0.960 . S
H2869 C2855 0.961 . S
H2870 C2855 0.961 . S
H2871 C2855 0.961 . S
H2872 C2856 0.931 . S
H2873 C2861 0.930 . S
H2874 C2862 0.956 . S
H2875 C2862 0.961 . S
H2876 C2862 0.961 . S
H2877 C2863 0.958 . S
H2878 C2863 0.961 . S
H2879 C2863 0.960 . S
C2880 C2881 1.391 . S
C2880 C2882 1.394 . S
C2880 H2896 0.931 . S
C2881 C2880 1.391 . S
C2881 C2885 1.376 . S
C2882 C2880 1.394 . S
C2882 C2883 1.369 . S
C2882 C2886 1.531 . S
C2883 C2882 1.369 . S
C2883 C2884 1.410 . S
C2883 C2891 1.503 . S
C2884 C2883 1.410 . S
C2884 C2885 1.392 . S
C2884 C2887 1.511 . S
C2885 C2881 1.376 . S
C2885 C2884 1.392 . S
C2885 H2897 0.929 . S
C2886 C2882 1.531 . S
C2886 H2898 0.960 . S
C2886 H2899 0.962 . S
C2886 H2900 0.960 . S
C2887 C2884 1.511 . S
C2887 H2901 0.961 . S
C2887 H2902 0.961 . S
C2887 H2903 0.961 . S
C2888 C2889 1.370 . S
C2888 C2890 1.363 . S
C2888 H2904 0.931 . S
C2889 C2888 1.370 . S
C2889 C2893 1.408 . S
C2890 C2888 1.363 . S
C2890 C2891 1.370 . S
C2890 C2894 1.524 . S
C2891 C2883 1.503 . S
C2891 C2890 1.370 . S
C2891 C2892 1.403 . S
C2892 C2891 1.403 . S
C2892 C2893 1.404 . S
C2892 C2895 1.539 . S
C2893 C2889 1.408 . S
C2893 C2892 1.404 . S
C2893 H2905 0.930 . S
C2894 C2890 1.524 . S
C2894 H2906 0.956 . S
C2894 H2907 0.961 . S
C2894 H2908 0.961 . S
C2895 C2892 1.539 . S
C2895 H2909 0.958 . S
C2895 H2910 0.961 . S
C2895 H2911 0.960 . S
H2896 C2880 0.931 . S
H2897 C2885 0.929 . S
H2898 C2886 0.960 . S
H2899 C2886 0.962 . S
H2900 C2886 0.960 . S
H2901 C2887 0.961 . S
H2902 C2887 0.961 . S
H2903 C2887 0.961 . S
H2904 C2888 0.931 . S
H2905 C2893 0.930 . S
H2906 C2894 0.956 . S
H2907 C2894 0.961 . S
H2908 C2894 0.961 . S
H2909 C2895 0.958 . S
H2910 C2895 0.961 . S
H2911 C2895 0.960 . S
C2912 C2913 1.391 . S
C2912 C2914 1.394 . S
C2912 H2928 0.931 . S
C2913 C2912 1.391 . S
C2913 C2917 1.376 . S
C2914 C2912 1.394 . S
C2914 C2915 1.369 . S
C2914 C2918 1.531 . S
C2915 C2914 1.369 . S
C2915 C2916 1.410 . S
C2915 C2923 1.503 . S
C2916 C2915 1.410 . S
C2916 C2917 1.392 . S
C2916 C2919 1.511 . S
C2917 C2913 1.376 . S
C2917 C2916 1.392 . S
C2917 H2929 0.929 . S
C2918 C2914 1.531 . S
C2918 H2930 0.960 . S
C2918 H2931 0.962 . S
C2918 H2932 0.960 . S
C2919 C2916 1.511 . S
C2919 H2933 0.961 . S
C2919 H2934 0.961 . S
C2919 H2935 0.961 . S
C2920 C2921 1.370 . S
C2920 C2922 1.363 . S
C2920 H2936 0.931 . S
C2921 C2920 1.370 . S
C2921 C2925 1.408 . S
C2922 C2920 1.363 . S
C2922 C2923 1.370 . S
C2922 C2926 1.524 . S
C2923 C2915 1.503 . S
C2923 C2922 1.370 . S
C2923 C2924 1.403 . S
C2924 C2923 1.403 . S
C2924 C2925 1.404 . S
C2924 C2927 1.539 . S
C2925 C2921 1.408 . S
C2925 C2924 1.404 . S
C2925 H2937 0.930 . S
C2926 C2922 1.524 . S
C2926 H2938 0.956 . S
C2926 H2939 0.961 . S
C2926 H2940 0.961 . S
C2927 C2924 1.539 . S
C2927 H2941 0.958 . S
C2927 H2942 0.961 . S
C2927 H2943 0.960 . S
H2928 C2912 0.931 . S
H2929 C2917 0.929 . S
H2930 C2918 0.960 . S
H2931 C2918 0.962 . S
H2932 C2918 0.960 . S
H2933 C2919 0.961 . S
H2934 C2919 0.961 . S
H2935 C2919 0.961 . S
H2936 C2920 0.931 . S
H2937 C2925 0.930 . S
H2938 C2926 0.956 . S
H2939 C2926 0.961 . S
H2940 C2926 0.961 . S
H2941 C2927 0.958 . S
H2942 C2927 0.961 . S
H2943 C2927 0.960 . S
C2944 C2945 1.391 . S
C2944 C2946 1.394 . S
C2944 H2960 0.931 . S
C2945 C2944 1.391 . S
C2945 C2949 1.376 . S
C2946 C2944 1.394 . S
C2946 C2947 1.369 . S
C2946 C2950 1.531 . S
C2947 C2946 1.369 . S
C2947 C2948 1.410 . S
C2947 C2955 1.503 . S
C2948 C2947 1.410 . S
C2948 C2949 1.392 . S
C2948 C2951 1.511 . S
C2949 C2945 1.376 . S
C2949 C2948 1.392 . S
C2949 H2961 0.929 . S
C2950 C2946 1.531 . S
C2950 H2962 0.960 . S
C2950 H2963 0.962 . S
C2950 H2964 0.960 . S
C2951 C2948 1.511 . S
C2951 H2965 0.961 . S
C2951 H2966 0.961 . S
C2951 H2967 0.961 . S
C2952 C2953 1.370 . S
C2952 C2954 1.363 . S
C2952 H2968 0.931 . S
C2953 C2952 1.370 . S
C2953 C2957 1.408 . S
C2954 C2952 1.363 . S
C2954 C2955 1.370 . S
C2954 C2958 1.524 . S
C2955 C2947 1.503 . S
C2955 C2954 1.370 . S
C2955 C2956 1.403 . S
C2956 C2955 1.403 . S
C2956 C2957 1.404 . S
C2956 C2959 1.539 . S
C2957 C2953 1.408 . S
C2957 C2956 1.404 . S
C2957 H2969 0.930 . S
C2958 C2954 1.524 . S
C2958 H2970 0.956 . S
C2958 H2971 0.961 . S
C2958 H2972 0.961 . S
C2959 C2956 1.539 . S
C2959 H2973 0.958 . S
C2959 H2974 0.961 . S
C2959 H2975 0.960 . S
H2960 C2944 0.931 . S
H2961 C2949 0.929 . S
H2962 C2950 0.960 . S
H2963 C2950 0.962 . S
H2964 C2950 0.960 . S
H2965 C2951 0.961 . S
H2966 C2951 0.961 . S
H2967 C2951 0.961 . S
H2968 C2952 0.931 . S
H2969 C2957 0.930 . S
H2970 C2958 0.956 . S
H2971 C2958 0.961 . S
H2972 C2958 0.961 . S
H2973 C2959 0.958 . S
H2974 C2959 0.961 . S
H2975 C2959 0.960 . S
C2976 C2977 1.391 . S
C2976 C2978 1.394 . S
C2976 H2992 0.931 . S
C2977 C2976 1.391 . S
C2977 C2981 1.376 . S
C2978 C2976 1.394 . S
C2978 C2979 1.369 . S
C2978 C2982 1.531 . S
C2979 C2978 1.369 . S
C2979 C2980 1.410 . S
C2979 C2987 1.503 . S
C2980 C2979 1.410 . S
C2980 C2981 1.392 . S
C2980 C2983 1.511 . S
C2981 C2977 1.376 . S
C2981 C2980 1.392 . S
C2981 H2993 0.929 . S
C2982 C2978 1.531 . S
C2982 H2994 0.960 . S
C2982 H2995 0.962 . S
C2982 H2996 0.960 . S
C2983 C2980 1.511 . S
C2983 H2997 0.961 . S
C2983 H2998 0.961 . S
C2983 H2999 0.961 . S
C2984 C2985 1.370 . S
C2984 C2986 1.363 . S
C2984 H3000 0.931 . S
C2985 C2984 1.370 . S
C2985 C2989 1.408 . S
C2986 C2984 1.363 . S
C2986 C2987 1.370 . S
C2986 C2990 1.524 . S
C2987 C2979 1.503 . S
C2987 C2986 1.370 . S
C2987 C2988 1.403 . S
C2988 C2987 1.403 . S
C2988 C2989 1.404 . S
C2988 C2991 1.539 . S
C2989 C2985 1.408 . S
C2989 C2988 1.404 . S
C2989 H3001 0.930 . S
C2990 C2986 1.524 . S
C2990 H3002 0.956 . S
C2990 H3003 0.961 . S
C2990 H3004 0.961 . S
C2991 C2988 1.539 . S
C2991 H3005 0.958 . S
C2991 H3006 0.961 . S
C2991 H3007 0.960 . S
H2992 C2976 0.931 . S
H2993 C2981 0.929 . S
H2994 C2982 0.960 . S
H2995 C2982 0.962 . S
H2996 C2982 0.960 . S
H2997 C2983 0.961 . S
H2998 C2983 0.961 . S
H2999 C2983 0.961 . S
H3000 C2984 0.931 . S
H3001 C2989 0.930 . S
H3002 C2990 0.956 . S
H3003 C2990 0.961 . S
H3004 C2990 0.961 . S
H3005 C2991 0.958 . S
H3006 C2991 0.961 . S
H3007 C2991 0.960 . S
C3008 C3009 1.391 . S
C3008 C3010 1.394 . S
C3008 H3024 0.931 . S
C3009 C3008 1.391 . S
C3009 C3013 1.376 . S
C3010 C3008 1.394 . S
C3010 C3011 1.369 . S
C3010 C3014 1.531 . S
C3011 C3010 1.369 . S
C3011 C3012 1.410 . S
C3011 C3019 1.503 . S
C3012 C3011 1.410 . S
C3012 C3013 1.392 . S
C3012 C3015 1.511 . S
C3013 C3009 1.376 . S
C3013 C3012 1.392 . S
C3013 H3025 0.929 . S
C3014 C3010 1.531 . S
C3014 H3026 0.960 . S
C3014 H3027 0.962 . S
C3014 H3028 0.960 . S
C3015 C3012 1.511 . S
C3015 H3029 0.961 . S
C3015 H3030 0.961 . S
C3015 H3031 0.961 . S
C3016 C3017 1.370 . S
C3016 C3018 1.363 . S
C3016 H3032 0.931 . S
C3017 C3016 1.370 . S
C3017 C3021 1.408 . S
C3018 C3016 1.363 . S
C3018 C3019 1.370 . S
C3018 C3022 1.524 . S
C3019 C3011 1.503 . S
C3019 C3018 1.370 . S
C3019 C3020 1.403 . S
C3020 C3019 1.403 . S
C3020 C3021 1.404 . S
C3020 C3023 1.539 . S
C3021 C3017 1.408 . S
C3021 C3020 1.404 . S
C3021 H3033 0.930 . S
C3022 C3018 1.524 . S
C3022 H3034 0.956 . S
C3022 H3035 0.961 . S
C3022 H3036 0.961 . S
C3023 C3020 1.539 . S
C3023 H3037 0.958 . S
C3023 H3038 0.961 . S
C3023 H3039 0.960 . S
H3024 C3008 0.931 . S
H3025 C3013 0.929 . S
H3026 C3014 0.960 . S
H3027 C3014 0.962 . S
H3028 C3014 0.960 . S
H3029 C3015 0.961 . S
H3030 C3015 0.961 . S
H3031 C3015 0.961 . S
H3032 C3016 0.931 . S
H3033 C3021 0.930 . S
H3034 C3022 0.956 . S
H3035 C3022 0.961 . S
H3036 C3022 0.961 . S
H3037 C3023 0.958 . S
H3038 C3023 0.961 . S
H3039 C3023 0.960 . S
C3040 C3041 1.391 . S
C3040 C3042 1.394 . S
C3040 H3056 0.931 . S
C3041 C3040 1.391 . S
C3041 C3045 1.376 . S
C3042 C3040 1.394 . S
C3042 C3043 1.369 . S
C3042 C3046 1.531 . S
C3043 C3042 1.369 . S
C3043 C3044 1.410 . S
C3043 C3051 1.503 . S
C3044 C3043 1.410 . S
C3044 C3045 1.392 . S
C3044 C3047 1.511 . S
C3045 C3041 1.376 . S
C3045 C3044 1.392 . S
C3045 H3057 0.929 . S
C3046 C3042 1.531 . S
C3046 H3058 0.960 . S
C3046 H3059 0.962 . S
C3046 H3060 0.960 . S
C3047 C3044 1.511 . S
C3047 H3061 0.961 . S
C3047 H3062 0.961 . S
C3047 H3063 0.961 . S
C3048 C3049 1.370 . S
C3048 C3050 1.363 . S
C3048 H3064 0.931 . S
C3049 C3048 1.370 . S
C3049 C3053 1.408 . S
C3050 C3048 1.363 . S
C3050 C3051 1.370 . S
C3050 C3054 1.524 . S
C3051 C3043 1.503 . S
C3051 C3050 1.370 . S
C3051 C3052 1.403 . S
C3052 C3051 1.403 . S
C3052 C3053 1.404 . S
C3052 C3055 1.539 . S
C3053 C3049 1.408 . S
C3053 C3052 1.404 . S
C3053 H3065 0.930 . S
C3054 C3050 1.524 . S
C3054 H3066 0.956 . S
C3054 H3067 0.961 . S
C3054 H3068 0.961 . S
C3055 C3052 1.539 . S
C3055 H3069 0.958 . S
C3055 H3070 0.961 . S
C3055 H3071 0.960 . S
H3056 C3040 0.931 . S
H3057 C3045 0.929 . S
H3058 C3046 0.960 . S
H3059 C3046 0.962 . S
H3060 C3046 0.960 . S
H3061 C3047 0.961 . S
H3062 C3047 0.961 . S
H3063 C3047 0.961 . S
H3064 C3048 0.931 . S
H3065 C3053 0.930 . S
H3066 C3054 0.956 . S
H3067 C3054 0.961 . S
H3068 C3054 0.961 . S
H3069 C3055 0.958 . S
H3070 C3055 0.961 . S
H3071 C3055 0.960 . S
C3072 C3073 1.391 . S
C3072 C3074 1.394 . S
C3072 H3088 0.931 . S
C3073 C3072 1.391 . S
C3073 C3077 1.376 . S
C3074 C3072 1.394 . S
C3074 C3075 1.369 . S
C3074 C3078 1.531 . S
C3075 C3074 1.369 . S
C3075 C3076 1.410 . S
C3075 C3083 1.503 . S
C3076 C3075 1.410 . S
C3076 C3077 1.392 . S
C3076 C3079 1.511 . S
C3077 C3073 1.376 . S
C3077 C3076 1.392 . S
C3077 H3089 0.929 . S
C3078 C3074 1.531 . S
C3078 H3090 0.960 . S
C3078 H3091 0.962 . S
C3078 H3092 0.960 . S
C3079 C3076 1.511 . S
C3079 H3093 0.961 . S
C3079 H3094 0.961 . S
C3079 H3095 0.961 . S
C3080 C3081 1.370 . S
C3080 C3082 1.363 . S
C3080 H3096 0.931 . S
C3081 C3080 1.370 . S
C3081 C3085 1.408 . S
C3082 C3080 1.363 . S
C3082 C3083 1.370 . S
C3082 C3086 1.524 . S
C3083 C3075 1.503 . S
C3083 C3082 1.370 . S
C3083 C3084 1.403 . S
C3084 C3083 1.403 . S
C3084 C3085 1.404 . S
C3084 C3087 1.539 . S
C3085 C3081 1.408 . S
C3085 C3084 1.404 . S
C3085 H3097 0.930 . S
C3086 C3082 1.524 . S
C3086 H3098 0.956 . S
C3086 H3099 0.961 . S
C3086 H3100 0.961 . S
C3087 C3084 1.539 . S
C3087 H3101 0.958 . S
C3087 H3102 0.961 . S
C3087 H3103 0.960 . S
H3088 C3072 0.931 . S
H3089 C3077 0.929 . S
H3090 C3078 0.960 . S
H3091 C3078 0.962 . S
H3092 C3078 0.960 . S
H3093 C3079 0.961 . S
H3094 C3079 0.961 . S
H3095 C3079 0.961 . S
H3096 C3080 0.931 . S
H3097 C3085 0.930 . S
H3098 C3086 0.956 . S
H3099 C3086 0.961 . S
H3100 C3086 0.961 . S
H3101 C3087 0.958 . S
H3102 C3087 0.961 . S
H3103 C3087 0.960 . S
C3104 C3105 1.391 . S
C3104 C3106 1.394 . S
C3104 H3120 0.931 . S
C3105 C3104 1.391 . S
C3105 C3109 1.376 . S
C3106 C3104 1.394 . S
C3106 C3107 1.369 . S
C3106 C3110 1.531 . S
C3107 C3106 1.369 . S
C3107 C3108 1.410 . S
C3107 C3115 1.503 . S
C3108 C3107 1.410 . S
C3108 C3109 1.392 . S
C3108 C3111 1.511 . S
C3109 C3105 1.376 . S
C3109 C3108 1.392 . S
C3109 H3121 0.929 . S
C3110 C3106 1.531 . S
C3110 H3122 0.960 . S
C3110 H3123 0.962 . S
C3110 H3124 0.960 . S
C3111 C3108 1.511 . S
C3111 H3125 0.961 . S
C3111 H3126 0.961 . S
C3111 H3127 0.961 . S
C3112 C3113 1.370 . S
C3112 C3114 1.363 . S
C3112 H3128 0.931 . S
C3113 C3112 1.370 . S
C3113 C3117 1.408 . S
C3114 C3112 1.363 . S
C3114 C3115 1.370 . S
C3114 C3118 1.524 . S
C3115 C3107 1.503 . S
C3115 C3114 1.370 . S
C3115 C3116 1.403 . S
C3116 C3115 1.403 . S
C3116 C3117 1.404 . S
C3116 C3119 1.539 . S
C3117 C3113 1.408 . S
C3117 C3116 1.404 . S
C3117 H3129 0.930 . S
C3118 C3114 1.524 . S
C3118 H3130 0.956 . S
C3118 H3131 0.961 . S
C3118 H3132 0.961 . S
C3119 C3116 1.539 . S
C3119 H3133 0.958 . S
C3119 H3134 0.961 . S
C3119 H3135 0.960 . S
H3120 C3104 0.931 . S
H3121 C3109 0.929 . S
H3122 C3110 0.960 . S
H3123 C3110 0.962 . S
H3124 C3110 0.960 . S
H3125 C3111 0.961 . S
H3126 C3111 0.961 . S
H3127 C3111 0.961 . S
H3128 C3112 0.931 . S
H3129 C3117 0.930 . S
H3130 C3118 0.956 . S
H3131 C3118 0.961 . S
H3132 C3118 0.961 . S
H3133 C3119 0.958 . S
H3134 C3119 0.961 . S
H3135 C3119 0.960 . S
C3136 C3137 1.391 . S
C3136 C3138 1.394 . S
C3136 H3152 0.931 . S
C3137 C3136 1.391 . S
C3137 C3141 1.376 . S
C3138 C3136 1.394 . S
C3138 C3139 1.369 . S
C3138 C3142 1.531 . S
C3139 C3138 1.369 . S
C3139 C3140 1.410 . S
C3139 C3147 1.503 . S
C3140 C3139 1.410 . S
C3140 C3141 1.392 . S
C3140 C3143 1.511 . S
C3141 C3137 1.376 . S
C3141 C3140 1.392 . S
C3141 H3153 0.929 . S
C3142 C3138 1.531 . S
C3142 H3154 0.960 . S
C3142 H3155 0.962 . S
C3142 H3156 0.960 . S
C3143 C3140 1.511 . S
C3143 H3157 0.961 . S
C3143 H3158 0.961 . S
C3143 H3159 0.961 . S
C3144 C3145 1.370 . S
C3144 C3146 1.363 . S
C3144 H3160 0.931 . S
C3145 C3144 1.370 . S
C3145 C3149 1.408 . S
C3146 C3144 1.363 . S
C3146 C3147 1.370 . S
C3146 C3150 1.524 . S
C3147 C3139 1.503 . S
C3147 C3146 1.370 . S
C3147 C3148 1.403 . S
C3148 C3147 1.403 . S
C3148 C3149 1.404 . S
C3148 C3151 1.539 . S
C3149 C3145 1.408 . S
C3149 C3148 1.404 . S
C3149 H3161 0.930 . S
C3150 C3146 1.524 . S
C3150 H3162 0.956 . S
C3150 H3163 0.961 . S
C3150 H3164 0.961 . S
C3151 C3148 1.539 . S
C3151 H3165 0.958 . S
C3151 H3166 0.961 . S
C3151 H3167 0.960 . S
H3152 C3136 0.931 . S
H3153 C3141 0.929 . S
H3154 C3142 0.960 . S
H3155 C3142 0.962 . S
H3156 C3142 0.960 . S
H3157 C3143 0.961 . S
H3158 C3143 0.961 . S
H3159 C3143 0.961 . S
H3160 C3144 0.931 . S
H3161 C3149 0.930 . S
H3162 C3150 0.956 . S
H3163 C3150 0.961 . S
H3164 C3150 0.961 . S
H3165 C3151 0.958 . S
H3166 C3151 0.961 . S
H3167 C3151 0.960 . S
C3168 C3169 1.391 . S
C3168 C3170 1.394 . S
C3168 H3184 0.931 . S
C3169 C3168 1.391 . S
C3169 C3173 1.376 . S
C3170 C3168 1.394 . S
C3170 C3171 1.369 . S
C3170 C3174 1.531 . S
C3171 C3170 1.369 . S
C3171 C3172 1.410 . S
C3171 C3179 1.503 . S
C3172 C3171 1.410 . S
C3172 C3173 1.392 . S
C3172 C3175 1.511 . S
C3173 C3169 1.376 . S
C3173 C3172 1.392 . S
C3173 H3185 0.929 . S
C3174 C3170 1.531 . S
C3174 H3186 0.960 . S
C3174 H3187 0.962 . S
C3174 H3188 0.960 . S
C3175 C3172 1.511 . S
C3175 H3189 0.961 . S
C3175 H3190 0.961 . S
C3175 H3191 0.961 . S
C3176 C3177 1.370 . S
C3176 C3178 1.363 . S
C3176 H3192 0.931 . S
C3177 C3176 1.370 . S
C3177 C3181 1.408 . S
C3178 C3176 1.363 . S
C3178 C3179 1.370 . S
C3178 C3182 1.524 . S
C3179 C3171 1.503 . S
C3179 C3178 1.370 . S
C3179 C3180 1.403 . S
C3180 C3179 1.403 . S
C3180 C3181 1.404 . S
C3180 C3183 1.539 . S
C3181 C3177 1.408 . S
C3181 C3180 1.404 . S
C3181 H3193 0.930 . S
C3182 C3178 1.524 . S
C3182 H3194 0.956 . S
C3182 H3195 0.961 . S
C3182 H3196 0.961 . S
C3183 C3180 1.539 . S
C3183 H3197 0.958 . S
C3183 H3198 0.961 . S
C3183 H3199 0.960 . S
H3184 C3168 0.931 . S
H3185 C3173 0.929 . S
H3186 C3174 0.960 . S
H3187 C3174 0.962 . S
H3188 C3174 0.960 . S
H3189 C3175 0.961 . S
H3190 C3175 0.961 . S
H3191 C3175 0.961 . S
H3192 C3176 0.931 . S
H3193 C3181 0.930 . S
H3194 C3182 0.956 . S
H3195 C3182 0.961 . S
H3196 C3182 0.961 . S
H3197 C3183 0.958 . S
H3198 C3183 0.961 . S
H3199 C3183 0.960 . S
C3200 C3201 1.391 . S
C3200 C3202 1.394 . S
C3200 H3216 0.931 . S
C3201 C3200 1.391 . S
C3201 C3205 1.376 . S
C3202 C3200 1.394 . S
C3202 C3203 1.369 . S
C3202 C3206 1.531 . S
C3203 C3202 1.369 . S
C3203 C3204 1.410 . S
C3203 C3211 1.503 . S
C3204 C3203 1.410 . S
C3204 C3205 1.392 . S
C3204 C3207 1.511 . S
C3205 C3201 1.376 . S
C3205 C3204 1.392 . S
C3205 H3217 0.929 . S
C3206 C3202 1.531 . S
C3206 H3218 0.960 . S
C3206 H3219 0.962 . S
C3206 H3220 0.960 . S
C3207 C3204 1.511 . S
C3207 H3221 0.961 . S
C3207 H3222 0.961 . S
C3207 H3223 0.961 . S
C3208 C3209 1.370 . S
C3208 C3210 1.363 . S
C3208 H3224 0.931 . S
C3209 C3208 1.370 . S
C3209 C3213 1.408 . S
C3210 C3208 1.363 . S
C3210 C3211 1.370 . S
C3210 C3214 1.524 . S
C3211 C3203 1.503 . S
C3211 C3210 1.370 . S
C3211 C3212 1.403 . S
C3212 C3211 1.403 . S
C3212 C3213 1.404 . S
C3212 C3215 1.539 . S
C3213 C3209 1.408 . S
C3213 C3212 1.404 . S
C3213 H3225 0.930 . S
C3214 C3210 1.524 . S
C3214 H3226 0.956 . S
C3214 H3227 0.961 . S
C3214 H3228 0.961 . S
C3215 C3212 1.539 . S
C3215 H3229 0.958 . S
C3215 H3230 0.961 . S
C3215 H3231 0.960 . S
H3216 C3200 0.931 . S
H3217 C3205 0.929 . S
H3218 C3206 0.960 . S
H3219 C3206 0.962 . S
H3220 C3206 0.960 . S
H3221 C3207 0.961 . S
H3222 C3207 0.961 . S
H3223 C3207 0.961 . S
H3224 C3208 0.931 . S
H3225 C3213 0.930 . S
H3226 C3214 0.956 . S
H3227 C3214 0.961 . S
H3228 C3214 0.961 . S
H3229 C3215 0.958 . S
H3230 C3215 0.961 . S
H3231 C3215 0.960 . S
C3232 C3233 1.391 . S
C3232 C3234 1.394 . S
C3232 H3248 0.931 . S
C3233 C3232 1.391 . S
C3233 C3237 1.376 . S
C3234 C3232 1.394 . S
C3234 C3235 1.369 . S
C3234 C3238 1.531 . S
C3235 C3234 1.369 . S
C3235 C3236 1.410 . S
C3235 C3243 1.503 . S
C3236 C3235 1.410 . S
C3236 C3237 1.392 . S
C3236 C3239 1.511 . S
C3237 C3233 1.376 . S
C3237 C3236 1.392 . S
C3237 H3249 0.929 . S
C3238 C3234 1.531 . S
C3238 H3250 0.960 . S
C3238 H3251 0.962 . S
C3238 H3252 0.960 . S
C3239 C3236 1.511 . S
C3239 H3253 0.961 . S
C3239 H3254 0.961 . S
C3239 H3255 0.961 . S
C3240 C3241 1.370 . S
C3240 C3242 1.363 . S
C3240 H3256 0.931 . S
C3241 C3240 1.370 . S
C3241 C3245 1.408 . S
C3242 C3240 1.363 . S
C3242 C3243 1.370 . S
C3242 C3246 1.524 . S
C3243 C3235 1.503 . S
C3243 C3242 1.370 . S
C3243 C3244 1.403 . S
C3244 C3243 1.403 . S
C3244 C3245 1.404 . S
C3244 C3247 1.539 . S
C3245 C3241 1.408 . S
C3245 C3244 1.404 . S
C3245 H3257 0.930 . S
C3246 C3242 1.524 . S
C3246 H3258 0.956 . S
C3246 H3259 0.961 . S
C3246 H3260 0.961 . S
C3247 C3244 1.539 . S
C3247 H3261 0.958 . S
C3247 H3262 0.961 . S
C3247 H3263 0.960 . S
H3248 C3232 0.931 . S
H3249 C3237 0.929 . S
H3250 C3238 0.960 . S
H3251 C3238 0.962 . S
H3252 C3238 0.960 . S
H3253 C3239 0.961 . S
H3254 C3239 0.961 . S
H3255 C3239 0.961 . S
H3256 C3240 0.931 . S
H3257 C3245 0.930 . S
H3258 C3246 0.956 . S
H3259 C3246 0.961 . S
H3260 C3246 0.961 . S
H3261 C3247 0.958 . S
H3262 C3247 0.961 . S
H3263 C3247 0.960 . S
C3264 C3265 1.391 . S
C3264 C3266 1.394 . S
C3264 H3280 0.931 . S
C3265 C3264 1.391 . S
C3265 C3269 1.376 . S
C3266 C3264 1.394 . S
C3266 C3267 1.369 . S
C3266 C3270 1.531 . S
C3267 C3266 1.369 . S
C3267 C3268 1.410 . S
C3267 C3275 1.503 . S
C3268 C3267 1.410 . S
C3268 C3269 1.392 . S
C3268 C3271 1.511 . S
C3269 C3265 1.376 . S
C3269 C3268 1.392 . S
C3269 H3281 0.929 . S
C3270 C3266 1.531 . S
C3270 H3282 0.960 . S
C3270 H3283 0.962 . S
C3270 H3284 0.960 . S
C3271 C3268 1.511 . S
C3271 H3285 0.961 . S
C3271 H3286 0.961 . S
C3271 H3287 0.961 . S
C3272 C3273 1.370 . S
C3272 C3274 1.363 . S
C3272 H3288 0.931 . S
C3273 C3272 1.370 . S
C3273 C3277 1.408 . S
C3274 C3272 1.363 . S
C3274 C3275 1.370 . S
C3274 C3278 1.524 . S
C3275 C3267 1.503 . S
C3275 C3274 1.370 . S
C3275 C3276 1.403 . S
C3276 C3275 1.403 . S
C3276 C3277 1.404 . S
C3276 C3279 1.539 . S
C3277 C3273 1.408 . S
C3277 C3276 1.404 . S
C3277 H3289 0.930 . S
C3278 C3274 1.524 . S
C3278 H3290 0.956 . S
C3278 H3291 0.961 . S
C3278 H3292 0.961 . S
C3279 C3276 1.539 . S
C3279 H3293 0.958 . S
C3279 H3294 0.961 . S
C3279 H3295 0.960 . S
H3280 C3264 0.931 . S
H3281 C3269 0.929 . S
H3282 C3270 0.960 . S
H3283 C3270 0.962 . S
H3284 C3270 0.960 . S
H3285 C3271 0.961 . S
H3286 C3271 0.961 . S
H3287 C3271 0.961 . S
H3288 C3272 0.931 . S
H3289 C3277 0.930 . S
H3290 C3278 0.956 . S
H3291 C3278 0.961 . S
H3292 C3278 0.961 . S
H3293 C3279 0.958 . S
H3294 C3279 0.961 . S
H3295 C3279 0.960 . S
C3296 C3297 1.391 . S
C3296 C3298 1.394 . S
C3296 H3312 0.931 . S
C3297 C3296 1.391 . S
C3297 C3301 1.376 . S
C3298 C3296 1.394 . S
C3298 C3299 1.369 . S
C3298 C3302 1.531 . S
C3299 C3298 1.369 . S
C3299 C3300 1.410 . S
C3299 C3307 1.503 . S
C3300 C3299 1.410 . S
C3300 C3301 1.392 . S
C3300 C3303 1.511 . S
C3301 C3297 1.376 . S
C3301 C3300 1.392 . S
C3301 H3313 0.929 . S
C3302 C3298 1.531 . S
C3302 H3314 0.960 . S
C3302 H3315 0.962 . S
C3302 H3316 0.960 . S
C3303 C3300 1.511 . S
C3303 H3317 0.961 . S
C3303 H3318 0.961 . S
C3303 H3319 0.961 . S
C3304 C3305 1.370 . S
C3304 C3306 1.363 . S
C3304 H3320 0.931 . S
C3305 C3304 1.370 . S
C3305 C3309 1.408 . S
C3306 C3304 1.363 . S
C3306 C3307 1.370 . S
C3306 C3310 1.524 . S
C3307 C3299 1.503 . S
C3307 C3306 1.370 . S
C3307 C3308 1.403 . S
C3308 C3307 1.403 . S
C3308 C3309 1.404 . S
C3308 C3311 1.539 . S
C3309 C3305 1.408 . S
C3309 C3308 1.404 . S
C3309 H3321 0.930 . S
C3310 C3306 1.524 . S
C3310 H3322 0.956 . S
C3310 H3323 0.961 . S
C3310 H3324 0.961 . S
C3311 C3308 1.539 . S
C3311 H3325 0.958 . S
C3311 H3326 0.961 . S
C3311 H3327 0.960 . S
H3312 C3296 0.931 . S
H3313 C3301 0.929 . S
H3314 C3302 0.960 . S
H3315 C3302 0.962 . S
H3316 C3302 0.960 . S
H3317 C3303 0.961 . S
H3318 C3303 0.961 . S
H3319 C3303 0.961 . S
H3320 C3304 0.931 . S
H3321 C3309 0.930 . S
H3322 C3310 0.956 . S
H3323 C3310 0.961 . S
H3324 C3310 0.961 . S
H3325 C3311 0.958 . S
H3326 C3311 0.961 . S
H3327 C3311 0.960 . S
C3328 C3329 1.391 . S
C3328 C3330 1.394 . S
C3328 H3344 0.931 . S
C3329 C3328 1.391 . S
C3329 C3333 1.376 . S
C3330 C3328 1.394 . S
C3330 C3331 1.369 . S
C3330 C3334 1.531 . S
C3331 C3330 1.369 . S
C3331 C3332 1.410 . S
C3331 C3339 1.503 . S
C3332 C3331 1.410 . S
C3332 C3333 1.392 . S
C3332 C3335 1.511 . S
C3333 C3329 1.376 . S
C3333 C3332 1.392 . S
C3333 H3345 0.929 . S
C3334 C3330 1.531 . S
C3334 H3346 0.960 . S
C3334 H3347 0.962 . S
C3334 H3348 0.960 . S
C3335 C3332 1.511 . S
C3335 H3349 0.961 . S
C3335 H3350 0.961 . S
C3335 H3351 0.961 . S
C3336 C3337 1.370 . S
C3336 C3338 1.363 . S
C3336 H3352 0.931 . S
C3337 C3336 1.370 . S
C3337 C3341 1.408 . S
C3338 C3336 1.363 . S
C3338 C3339 1.370 . S
C3338 C3342 1.524 . S
C3339 C3331 1.503 . S
C3339 C3338 1.370 . S
C3339 C3340 1.403 . S
C3340 C3339 1.403 . S
C3340 C3341 1.404 . S
C3340 C3343 1.539 . S
C3341 C3337 1.408 . S
C3341 C3340 1.404 . S
C3341 H3353 0.930 . S
C3342 C3338 1.524 . S
C3342 H3354 0.956 . S
C3342 H3355 0.961 . S
C3342 H3356 0.961 . S
C3343 C3340 1.539 . S
C3343 H3357 0.958 . S
C3343 H3358 0.961 . S
C3343 H3359 0.960 . S
H3344 C3328 0.931 . S
H3345 C3333 0.929 . S
H3346 C3334 0.960 . S
H3347 C3334 0.962 . S
H3348 C3334 0.960 . S
H3349 C3335 0.961 . S
H3350 C3335 0.961 . S
H3351 C3335 0.961 . S
H3352 C3336 0.931 . S
H3353 C3341 0.930 . S
H3354 C3342 0.956 . S
H3355 C3342 0.961 . S
H3356 C3342 0.961 . S
H3357 C3343 0.958 . S
H3358 C3343 0.961 . S
H3359 C3343 0.960 . S
C3360 C3361 1.391 . S
C3360 C3362 1.394 . S
C3360 H3376 0.931 . S
C3361 C3360 1.391 . S
C3361 C3365 1.376 . S
C3362 C3360 1.394 . S
C3362 C3363 1.369 . S
C3362 C3366 1.531 . S
C3363 C3362 1.369 . S
C3363 C3364 1.410 . S
C3363 C3371 1.503 . S
C3364 C3363 1.410 . S
C3364 C3365 1.392 . S
C3364 C3367 1.511 . S
C3365 C3361 1.376 . S
C3365 C3364 1.392 . S
C3365 H3377 0.929 . S
C3366 C3362 1.531 . S
C3366 H3378 0.960 . S
C3366 H3379 0.962 . S
C3366 H3380 0.960 . S
C3367 C3364 1.511 . S
C3367 H3381 0.961 . S
C3367 H3382 0.961 . S
C3367 H3383 0.961 . S
C3368 C3369 1.370 . S
C3368 C3370 1.363 . S
C3368 H3384 0.931 . S
C3369 C3368 1.370 . S
C3369 C3373 1.408 . S
C3370 C3368 1.363 . S
C3370 C3371 1.370 . S
C3370 C3374 1.524 . S
C3371 C3363 1.503 . S
C3371 C3370 1.370 . S
C3371 C3372 1.403 . S
C3372 C3371 1.403 . S
C3372 C3373 1.404 . S
C3372 C3375 1.539 . S
C3373 C3369 1.408 . S
C3373 C3372 1.404 . S
C3373 H3385 0.930 . S
C3374 C3370 1.524 . S
C3374 H3386 0.956 . S
C3374 H3387 0.961 . S
C3374 H3388 0.961 . S
C3375 C3372 1.539 . S
C3375 H3389 0.958 . S
C3375 H3390 0.961 . S
C3375 H3391 0.960 . S
H3376 C3360 0.931 . S
H3377 C3365 0.929 . S
H3378 C3366 0.960 . S
H3379 C3366 0.962 . S
H3380 C3366 0.960 . S
H3381 C3367 0.961 . S
H3382 C3367 0.961 . S
H3383 C3367 0.961 . S
H3384 C3368 0.931 . S
H3385 C3373 0.930 . S
H3386 C3374 0.956 . S
H3387 C3374 0.961 . S
H3388 C3374 0.961 . S
H3389 C3375 0.958 . S
H3390 C3375 0.961 . S
H3391 C3375 0.960 . S
C3392 C3393 1.391 . S
C3392 C3394 1.394 . S
C3392 H3408 0.931 . S
C3393 C3392 1.391 . S
C3393 C3397 1.376 . S
C3394 C3392 1.394 . S
C3394 C3395 1.369 . S
C3394 C3398 1.531 . S
C3395 C3394 1.369 . S
C3395 C3396 1.410 . S
C3395 C3403 1.503 . S
C3396 C3395 1.410 . S
C3396 C3397 1.392 . S
C3396 C3399 1.511 . S
C3397 C3393 1.376 . S
C3397 C3396 1.392 . S
C3397 H3409 0.929 . S
C3398 C3394 1.531 . S
C3398 H3410 0.960 . S
C3398 H3411 0.962 . S
C3398 H3412 0.960 . S
C3399 C3396 1.511 . S
C3399 H3413 0.961 . S
C3399 H3414 0.961 . S
C3399 H3415 0.961 . S
C3400 C3401 1.370 . S
C3400 C3402 1.363 . S
C3400 H3416 0.931 . S
C3401 C3400 1.370 . S
C3401 C3405 1.408 . S
C3402 C3400 1.363 . S
C3402 C3403 1.370 . S
C3402 C3406 1.524 . S
C3403 C3395 1.503 . S
C3403 C3402 1.370 . S
C3403 C3404 1.403 . S
C3404 C3403 1.403 . S
C3404 C3405 1.404 . S
C3404 C3407 1.539 . S
C3405 C3401 1.408 . S
C3405 C3404 1.404 . S
C3405 H3417 0.930 . S
C3406 C3402 1.524 . S
C3406 H3418 0.956 . S
C3406 H3419 0.961 . S
C3406 H3420 0.961 . S
C3407 C3404 1.539 . S
C3407 H3421 0.958 . S
C3407 H3422 0.961 . S
C3407 H3423 0.960 . S
H3408 C3392 0.931 . S
H3409 C3397 0.929 . S
H3410 C3398 0.960 . S
H3411 C3398 0.962 . S
H3412 C3398 0.960 . S
H3413 C3399 0.961 . S
H3414 C3399 0.961 . S
H3415 C3399 0.961 . S
H3416 C3400 0.931 . S
H3417 C3405 0.930 . S
H3418 C3406 0.956 . S
H3419 C3406 0.961 . S
H3420 C3406 0.961 . S
H3421 C3407 0.958 . S
H3422 C3407 0.961 . S
H3423 C3407 0.960 . S
C3424 C3425 1.391 . S
C3424 C3426 1.394 . S
C3424 H3440 0.931 . S
C3425 C3424 1.391 . S
C3425 C3429 1.376 . S
C3426 C3424 1.394 . S
C3426 C3427 1.369 . S
C3426 C3430 1.531 . S
C3427 C3426 1.369 . S
C3427 C3428 1.410 . S
C3427 C3435 1.503 . S
C3428 C3427 1.410 . S
C3428 C3429 1.392 . S
C3428 C3431 1.511 . S
C3429 C3425 1.376 . S
C3429 C3428 1.392 . S
C3429 H3441 0.929 . S
C3430 C3426 1.531 . S
C3430 H3442 0.960 . S
C3430 H3443 0.962 . S
C3430 H3444 0.960 . S
C3431 C3428 1.511 . S
C3431 H3445 0.961 . S
C3431 H3446 0.961 . S
C3431 H3447 0.961 . S
C3432 C3433 1.370 . S
C3432 C3434 1.363 . S
C3432 H3448 0.931 . S
C3433 C3432 1.370 . S
C3433 C3437 1.408 . S
C3434 C3432 1.363 . S
C3434 C3435 1.370 . S
C3434 C3438 1.524 . S
C3435 C3427 1.503 . S
C3435 C3434 1.370 . S
C3435 C3436 1.403 . S
C3436 C3435 1.403 . S
C3436 C3437 1.404 . S
C3436 C3439 1.539 . S
C3437 C3433 1.408 . S
C3437 C3436 1.404 . S
C3437 H3449 0.930 . S
C3438 C3434 1.524 . S
C3438 H3450 0.956 . S
C3438 H3451 0.961 . S
C3438 H3452 0.961 . S
C3439 C3436 1.539 . S
C3439 H3453 0.958 . S
C3439 H3454 0.961 . S
C3439 H3455 0.960 . S
H3440 C3424 0.931 . S
H3441 C3429 0.929 . S
H3442 C3430 0.960 . S
H3443 C3430 0.962 . S
H3444 C3430 0.960 . S
H3445 C3431 0.961 . S
H3446 C3431 0.961 . S
H3447 C3431 0.961 . S
H3448 C3432 0.931 . S
H3449 C3437 0.930 . S
H3450 C3438 0.956 . S
H3451 C3438 0.961 . S
H3452 C3438 0.961 . S
H3453 C3439 0.958 . S
H3454 C3439 0.961 . S
H3455 C3439 0.960 . S
C3456 C3457 1.391 . S
C3456 C3458 1.394 . S
C3456 H3472 0.931 . S
C3457 C3456 1.391 . S
C3457 C3461 1.376 . S
C3458 C3456 1.394 . S
C3458 C3459 1.369 . S
C3458 C3462 1.531 . S
C3459 C3458 1.369 . S
C3459 C3460 1.410 . S
C3459 C3467 1.503 . S
C3460 C3459 1.410 . S
C3460 C3461 1.392 . S
C3460 C3463 1.511 . S
C3461 C3457 1.376 . S
C3461 C3460 1.392 . S
C3461 H3473 0.929 . S
C3462 C3458 1.531 . S
C3462 H3474 0.960 . S
C3462 H3475 0.962 . S
C3462 H3476 0.960 . S
C3463 C3460 1.511 . S
C3463 H3477 0.961 . S
C3463 H3478 0.961 . S
C3463 H3479 0.961 . S
C3464 C3465 1.370 . S
C3464 C3466 1.363 . S
C3464 H3480 0.931 . S
C3465 C3464 1.370 . S
C3465 C3469 1.408 . S
C3466 C3464 1.363 . S
C3466 C3467 1.370 . S
C3466 C3470 1.524 . S
C3467 C3459 1.503 . S
C3467 C3466 1.370 . S
C3467 C3468 1.403 . S
C3468 C3467 1.403 . S
C3468 C3469 1.404 . S
C3468 C3471 1.539 . S
C3469 C3465 1.408 . S
C3469 C3468 1.404 . S
C3469 H3481 0.930 . S
C3470 C3466 1.524 . S
C3470 H3482 0.956 . S
C3470 H3483 0.961 . S
C3470 H3484 0.961 . S
C3471 C3468 1.539 . S
C3471 H3485 0.958 . S
C3471 H3486 0.961 . S
C3471 H3487 0.960 . S
H3472 C3456 0.931 . S
H3473 C3461 0.929 . S
H3474 C3462 0.960 . S
H3475 C3462 0.962 . S
H3476 C3462 0.960 . S
H3477 C3463 0.961 . S
H3478 C3463 0.961 . S
H3479 C3463 0.961 . S
H3480 C3464 0.931 . S
H3481 C3469 0.930 . S
H3482 C3470 0.956 . S
H3483 C3470 0.961 . S
H3484 C3470 0.961 . S
H3485 C3471 0.958 . S
H3486 C3471 0.961 . S
H3487 C3471 0.960 . S
C3488 C3489 1.391 . S
C3488 C3490 1.394 . S
C3488 H3504 0.931 . S
C3489 C3488 1.391 . S
C3489 C3493 1.376 . S
C3490 C3488 1.394 . S
C3490 C3491 1.369 . S
C3490 C3494 1.531 . S
C3491 C3490 1.369 . S
C3491 C3492 1.410 . S
C3491 C3499 1.503 . S
C3492 C3491 1.410 . S
C3492 C3493 1.392 . S
C3492 C3495 1.511 . S
C3493 C3489 1.376 . S
C3493 C3492 1.392 . S
C3493 H3505 0.929 . S
C3494 C3490 1.531 . S
C3494 H3506 0.960 . S
C3494 H3507 0.962 . S
C3494 H3508 0.960 . S
C3495 C3492 1.511 . S
C3495 H3509 0.961 . S
C3495 H3510 0.961 . S
C3495 H3511 0.961 . S
C3496 C3497 1.370 . S
C3496 C3498 1.363 . S
C3496 H3512 0.931 . S
C3497 C3496 1.370 . S
C3497 C3501 1.408 . S
C3498 C3496 1.363 . S
C3498 C3499 1.370 . S
C3498 C3502 1.524 . S
C3499 C3491 1.503 . S
C3499 C3498 1.370 . S
C3499 C3500 1.403 . S
C3500 C3499 1.403 . S
C3500 C3501 1.404 . S
C3500 C3503 1.539 . S
C3501 C3497 1.408 . S
C3501 C3500 1.404 . S
C3501 H3513 0.930 . S
C3502 C3498 1.524 . S
C3502 H3514 0.956 . S
C3502 H3515 0.961 . S
C3502 H3516 0.961 . S
C3503 C3500 1.539 . S
C3503 H3517 0.958 . S
C3503 H3518 0.961 . S
C3503 H3519 0.960 . S
H3504 C3488 0.931 . S
H3505 C3493 0.929 . S
H3506 C3494 0.960 . S
H3507 C3494 0.962 . S
H3508 C3494 0.960 . S
H3509 C3495 0.961 . S
H3510 C3495 0.961 . S
H3511 C3495 0.961 . S
H3512 C3496 0.931 . S
H3513 C3501 0.930 . S
H3514 C3502 0.956 . S
H3515 C3502 0.961 . S
H3516 C3502 0.961 . S
H3517 C3503 0.958 . S
H3518 C3503 0.961 . S
H3519 C3503 0.960 . S
C3520 C3521 1.391 . S
C3520 C3522 1.394 . S
C3520 H3536 0.931 . S
C3521 C3520 1.391 . S
C3521 C3525 1.376 . S
C3522 C3520 1.394 . S
C3522 C3523 1.369 . S
C3522 C3526 1.531 . S
C3523 C3522 1.369 . S
C3523 C3524 1.410 . S
C3523 C3531 1.503 . S
C3524 C3523 1.410 . S
C3524 C3525 1.392 . S
C3524 C3527 1.511 . S
C3525 C3521 1.376 . S
C3525 C3524 1.392 . S
C3525 H3537 0.929 . S
C3526 C3522 1.531 . S
C3526 H3538 0.960 . S
C3526 H3539 0.962 . S
C3526 H3540 0.960 . S
C3527 C3524 1.511 . S
C3527 H3541 0.961 . S
C3527 H3542 0.961 . S
C3527 H3543 0.961 . S
C3528 C3529 1.370 . S
C3528 C3530 1.363 . S
C3528 H3544 0.931 . S
C3529 C3528 1.370 . S
C3529 C3533 1.408 . S
C3530 C3528 1.363 . S
C3530 C3531 1.370 . S
C3530 C3534 1.524 . S
C3531 C3523 1.503 . S
C3531 C3530 1.370 . S
C3531 C3532 1.403 . S
C3532 C3531 1.403 . S
C3532 C3533 1.404 . S
C3532 C3535 1.539 . S
C3533 C3529 1.408 . S
C3533 C3532 1.404 . S
C3533 H3545 0.930 . S
C3534 C3530 1.524 . S
C3534 H3546 0.956 . S
C3534 H3547 0.961 . S
C3534 H3548 0.961 . S
C3535 C3532 1.539 . S
C3535 H3549 0.958 . S
C3535 H3550 0.961 . S
C3535 H3551 0.960 . S
H3536 C3520 0.931 . S
H3537 C3525 0.929 . S
H3538 C3526 0.960 . S
H3539 C3526 0.962 . S
H3540 C3526 0.960 . S
H3541 C3527 0.961 . S
H3542 C3527 0.961 . S
H3543 C3527 0.961 . S
H3544 C3528 0.931 . S
H3545 C3533 0.930 . S
H3546 C3534 0.956 . S
H3547 C3534 0.961 . S
H3548 C3534 0.961 . S
H3549 C3535 0.958 . S
H3550 C3535 0.961 . S
H3551 C3535 0.960 . S
C3552 C3553 1.391 . S
C3552 C3554 1.394 . S
C3552 H3568 0.931 . S
C3553 C3552 1.391 . S
C3553 C3557 1.376 . S
C3554 C3552 1.394 . S
C3554 C3555 1.369 . S
C3554 C3558 1.531 . S
C3555 C3554 1.369 . S
C3555 C3556 1.410 . S
C3555 C3563 1.503 . S
C3556 C3555 1.410 . S
C3556 C3557 1.392 . S
C3556 C3559 1.511 . S
C3557 C3553 1.376 . S
C3557 C3556 1.392 . S
C3557 H3569 0.929 . S
C3558 C3554 1.531 . S
C3558 H3570 0.960 . S
C3558 H3571 0.962 . S
C3558 H3572 0.960 . S
C3559 C3556 1.511 . S
C3559 H3573 0.961 . S
C3559 H3574 0.961 . S
C3559 H3575 0.961 . S
C3560 C3561 1.370 . S
C3560 C3562 1.363 . S
C3560 H3576 0.931 . S
C3561 C3560 1.370 . S
C3561 C3565 1.408 . S
C3562 C3560 1.363 . S
C3562 C3563 1.370 . S
C3562 C3566 1.524 . S
C3563 C3555 1.503 . S
C3563 C3562 1.370 . S
C3563 C3564 1.403 . S
C3564 C3563 1.403 . S
C3564 C3565 1.404 . S
C3564 C3567 1.539 . S
C3565 C3561 1.408 . S
C3565 C3564 1.404 . S
C3565 H3577 0.930 . S
C3566 C3562 1.524 . S
C3566 H3578 0.956 . S
C3566 H3579 0.961 . S
C3566 H3580 0.961 . S
C3567 C3564 1.539 . S
C3567 H3581 0.958 . S
C3567 H3582 0.961 . S
C3567 H3583 0.960 . S
H3568 C3552 0.931 . S
H3569 C3557 0.929 . S
H3570 C3558 0.960 . S
H3571 C3558 0.962 . S
H3572 C3558 0.960 . S
H3573 C3559 0.961 . S
H3574 C3559 0.961 . S
H3575 C3559 0.961 . S
H3576 C3560 0.931 . S
H3577 C3565 0.930 . S
H3578 C3566 0.956 . S
H3579 C3566 0.961 . S
H3580 C3566 0.961 . S
H3581 C3567 0.958 . S
H3582 C3567 0.961 . S
H3583 C3567 0.960 . S
C3584 C3585 1.391 . S
C3584 C3586 1.394 . S
C3584 H3600 0.931 . S
C3585 C3584 1.391 . S
C3585 C3589 1.376 . S
C3586 C3584 1.394 . S
C3586 C3587 1.369 . S
C3586 C3590 1.531 . S
C3587 C3586 1.369 . S
C3587 C3588 1.410 . S
C3587 C3595 1.503 . S
C3588 C3587 1.410 . S
C3588 C3589 1.392 . S
C3588 C3591 1.511 . S
C3589 C3585 1.376 . S
C3589 C3588 1.392 . S
C3589 H3601 0.929 . S
C3590 C3586 1.531 . S
C3590 H3602 0.960 . S
C3590 H3603 0.962 . S
C3590 H3604 0.960 . S
C3591 C3588 1.511 . S
C3591 H3605 0.961 . S
C3591 H3606 0.961 . S
C3591 H3607 0.961 . S
C3592 C3593 1.370 . S
C3592 C3594 1.363 . S
C3592 H3608 0.931 . S
C3593 C3592 1.370 . S
C3593 C3597 1.408 . S
C3594 C3592 1.363 . S
C3594 C3595 1.370 . S
C3594 C3598 1.524 . S
C3595 C3587 1.503 . S
C3595 C3594 1.370 . S
C3595 C3596 1.403 . S
C3596 C3595 1.403 . S
C3596 C3597 1.404 . S
C3596 C3599 1.539 . S
C3597 C3593 1.408 . S
C3597 C3596 1.404 . S
C3597 H3609 0.930 . S
C3598 C3594 1.524 . S
C3598 H3610 0.956 . S
C3598 H3611 0.961 . S
C3598 H3612 0.961 . S
C3599 C3596 1.539 . S
C3599 H3613 0.958 . S
C3599 H3614 0.961 . S
C3599 H3615 0.960 . S
H3600 C3584 0.931 . S
H3601 C3589 0.929 . S
H3602 C3590 0.960 . S
H3603 C3590 0.962 . S
H3604 C3590 0.960 . S
H3605 C3591 0.961 . S
H3606 C3591 0.961 . S
H3607 C3591 0.961 . S
H3608 C3592 0.931 . S
H3609 C3597 0.930 . S
H3610 C3598 0.956 . S
H3611 C3598 0.961 . S
H3612 C3598 0.961 . S
H3613 C3599 0.958 . S
H3614 C3599 0.961 . S
H3615 C3599 0.960 . S
C3616 C3617 1.391 . S
C3616 C3618 1.394 . S
C3616 H3632 0.931 . S
C3617 C3616 1.391 . S
C3617 C3621 1.376 . S
C3618 C3616 1.394 . S
C3618 C3619 1.369 . S
C3618 C3622 1.531 . S
C3619 C3618 1.369 . S
C3619 C3620 1.410 . S
C3619 C3627 1.503 . S
C3620 C3619 1.410 . S
C3620 C3621 1.392 . S
C3620 C3623 1.511 . S
C3621 C3617 1.376 . S
C3621 C3620 1.392 . S
C3621 H3633 0.929 . S
C3622 C3618 1.531 . S
C3622 H3634 0.960 . S
C3622 H3635 0.962 . S
C3622 H3636 0.960 . S
C3623 C3620 1.511 . S
C3623 H3637 0.961 . S
C3623 H3638 0.961 . S
C3623 H3639 0.961 . S
C3624 C3625 1.370 . S
C3624 C3626 1.363 . S
C3624 H3640 0.931 . S
C3625 C3624 1.370 . S
C3625 C3629 1.408 . S
C3626 C3624 1.363 . S
C3626 C3627 1.370 . S
C3626 C3630 1.524 . S
C3627 C3619 1.503 . S
C3627 C3626 1.370 . S
C3627 C3628 1.403 . S
C3628 C3627 1.403 . S
C3628 C3629 1.404 . S
C3628 C3631 1.539 . S
C3629 C3625 1.408 . S
C3629 C3628 1.404 . S
C3629 H3641 0.930 . S
C3630 C3626 1.524 . S
C3630 H3642 0.956 . S
C3630 H3643 0.961 . S
C3630 H3644 0.961 . S
C3631 C3628 1.539 . S
C3631 H3645 0.958 . S
C3631 H3646 0.961 . S
C3631 H3647 0.960 . S
H3632 C3616 0.931 . S
H3633 C3621 0.929 . S
H3634 C3622 0.960 . S
H3635 C3622 0.962 . S
H3636 C3622 0.960 . S
H3637 C3623 0.961 . S
H3638 C3623 0.961 . S
H3639 C3623 0.961 . S
H3640 C3624 0.931 . S
H3641 C3629 0.930 . S
H3642 C3630 0.956 . S
H3643 C3630 0.961 . S
H3644 C3630 0.961 . S
H3645 C3631 0.958 . S
H3646 C3631 0.961 . S
H3647 C3631 0.960 . S
C3648 C3649 1.391 . S
C3648 C3650 1.394 . S
C3648 H3664 0.931 . S
C3649 C3648 1.391 . S
C3649 C3653 1.376 . S
C3650 C3648 1.394 . S
C3650 C3651 1.369 . S
C3650 C3654 1.531 . S
C3651 C3650 1.369 . S
C3651 C3652 1.410 . S
C3651 C3659 1.503 . S
C3652 C3651 1.410 . S
C3652 C3653 1.392 . S
C3652 C3655 1.511 . S
C3653 C3649 1.376 . S
C3653 C3652 1.392 . S
C3653 H3665 0.929 . S
C3654 C3650 1.531 . S
C3654 H3666 0.960 . S
C3654 H3667 0.962 . S
C3654 H3668 0.960 . S
C3655 C3652 1.511 . S
C3655 H3669 0.961 . S
C3655 H3670 0.961 . S
C3655 H3671 0.961 . S
C3656 C3657 1.370 . S
C3656 C3658 1.363 . S
C3656 H3672 0.931 . S
C3657 C3656 1.370 . S
C3657 C3661 1.408 . S
C3658 C3656 1.363 . S
C3658 C3659 1.370 . S
C3658 C3662 1.524 . S
C3659 C3651 1.503 . S
C3659 C3658 1.370 . S
C3659 C3660 1.403 . S
C3660 C3659 1.403 . S
C3660 C3661 1.404 . S
C3660 C3663 1.539 . S
C3661 C3657 1.408 . S
C3661 C3660 1.404 . S
C3661 H3673 0.930 . S
C3662 C3658 1.524 . S
C3662 H3674 0.956 . S
C3662 H3675 0.961 . S
C3662 H3676 0.961 . S
C3663 C3660 1.539 . S
C3663 H3677 0.958 . S
C3663 H3678 0.961 . S
C3663 H3679 0.960 . S
H3664 C3648 0.931 . S
H3665 C3653 0.929 . S
H3666 C3654 0.960 . S
H3667 C3654 0.962 . S
H3668 C3654 0.960 . S
H3669 C3655 0.961 . S
H3670 C3655 0.961 . S
H3671 C3655 0.961 . S
H3672 C3656 0.931 . S
H3673 C3661 0.930 . S
H3674 C3662 0.956 . S
H3675 C3662 0.961 . S
H3676 C3662 0.961 . S
H3677 C3663 0.958 . S
H3678 C3663 0.961 . S
H3679 C3663 0.960 . S
C3680 C3681 1.391 . S
C3680 C3682 1.394 . S
C3680 H3696 0.931 . S
C3681 C3680 1.391 . S
C3681 C3685 1.376 . S
C3682 C3680 1.394 . S
C3682 C3683 1.369 . S
C3682 C3686 1.531 . S
C3683 C3682 1.369 . S
C3683 C3684 1.410 . S
C3683 C3691 1.503 . S
C3684 C3683 1.410 . S
C3684 C3685 1.392 . S
C3684 C3687 1.511 . S
C3685 C3681 1.376 . S
C3685 C3684 1.392 . S
C3685 H3697 0.929 . S
C3686 C3682 1.531 . S
C3686 H3698 0.960 . S
C3686 H3699 0.962 . S
C3686 H3700 0.960 . S
C3687 C3684 1.511 . S
C3687 H3701 0.961 . S
C3687 H3702 0.961 . S
C3687 H3703 0.961 . S
C3688 C3689 1.370 . S
C3688 C3690 1.363 . S
C3688 H3704 0.931 . S
C3689 C3688 1.370 . S
C3689 C3693 1.408 . S
C3690 C3688 1.363 . S
C3690 C3691 1.370 . S
C3690 C3694 1.524 . S
C3691 C3683 1.503 . S
C3691 C3690 1.370 . S
C3691 C3692 1.403 . S
C3692 C3691 1.403 . S
C3692 C3693 1.404 . S
C3692 C3695 1.539 . S
C3693 C3689 1.408 . S
C3693 C3692 1.404 . S
C3693 H3705 0.930 . S
C3694 C3690 1.524 . S
C3694 H3706 0.956 . S
C3694 H3707 0.961 . S
C3694 H3708 0.961 . S
C3695 C3692 1.539 . S
C3695 H3709 0.958 . S
C3695 H3710 0.961 . S
C3695 H3711 0.960 . S
H3696 C3680 0.931 . S
H3697 C3685 0.929 . S
H3698 C3686 0.960 . S
H3699 C3686 0.962 . S
H3700 C3686 0.960 . S
H3701 C3687 0.961 . S
H3702 C3687 0.961 . S
H3703 C3687 0.961 . S
H3704 C3688 0.931 . S
H3705 C3693 0.930 . S
H3706 C3694 0.956 . S
H3707 C3694 0.961 . S
H3708 C3694 0.961 . S
H3709 C3695 0.958 . S
H3710 C3695 0.961 . S
H3711 C3695 0.960 . S
C3712 C3713 1.391 . S
C3712 C3714 1.394 . S
C3712 H3728 0.931 . S
C3713 C3712 1.391 . S
C3713 C3717 1.376 . S
C3714 C3712 1.394 . S
C3714 C3715 1.369 . S
C3714 C3718 1.531 . S
C3715 C3714 1.369 . S
C3715 C3716 1.410 . S
C3715 C3723 1.503 . S
C3716 C3715 1.410 . S
C3716 C3717 1.392 . S
C3716 C3719 1.511 . S
C3717 C3713 1.376 . S
C3717 C3716 1.392 . S
C3717 H3729 0.929 . S
C3718 C3714 1.531 . S
C3718 H3730 0.960 . S
C3718 H3731 0.962 . S
C3718 H3732 0.960 . S
C3719 C3716 1.511 . S
C3719 H3733 0.961 . S
C3719 H3734 0.961 . S
C3719 H3735 0.961 . S
C3720 C3721 1.370 . S
C3720 C3722 1.363 . S
C3720 H3736 0.931 . S
C3721 C3720 1.370 . S
C3721 C3725 1.408 . S
C3722 C3720 1.363 . S
C3722 C3723 1.370 . S
C3722 C3726 1.524 . S
C3723 C3715 1.503 . S
C3723 C3722 1.370 . S
C3723 C3724 1.403 . S
C3724 C3723 1.403 . S
C3724 C3725 1.404 . S
C3724 C3727 1.539 . S
C3725 C3721 1.408 . S
C3725 C3724 1.404 . S
C3725 H3737 0.930 . S
C3726 C3722 1.524 . S
C3726 H3738 0.956 . S
C3726 H3739 0.961 . S
C3726 H3740 0.961 . S
C3727 C3724 1.539 . S
C3727 H3741 0.958 . S
C3727 H3742 0.961 . S
C3727 H3743 0.960 . S
H3728 C3712 0.931 . S
H3729 C3717 0.929 . S
H3730 C3718 0.960 . S
H3731 C3718 0.962 . S
H3732 C3718 0.960 . S
H3733 C3719 0.961 . S
H3734 C3719 0.961 . S
H3735 C3719 0.961 . S
H3736 C3720 0.931 . S
H3737 C3725 0.930 . S
H3738 C3726 0.956 . S
H3739 C3726 0.961 . S
H3740 C3726 0.961 . S
H3741 C3727 0.958 . S
H3742 C3727 0.961 . S
H3743 C3727 0.960 . S
C3744 C3745 1.391 . S
C3744 C3746 1.394 . S
C3744 H3760 0.931 . S
C3745 C3744 1.391 . S
C3745 C3749 1.376 . S
C3746 C3744 1.394 . S
C3746 C3747 1.369 . S
C3746 C3750 1.531 . S
C3747 C3746 1.369 . S
C3747 C3748 1.410 . S
C3747 C3755 1.503 . S
C3748 C3747 1.410 . S
C3748 C3749 1.392 . S
C3748 C3751 1.511 . S
C3749 C3745 1.376 . S
C3749 C3748 1.392 . S
C3749 H3761 0.929 . S
C3750 C3746 1.531 . S
C3750 H3762 0.960 . S
C3750 H3763 0.962 . S
C3750 H3764 0.960 . S
C3751 C3748 1.511 . S
C3751 H3765 0.961 . S
C3751 H3766 0.961 . S
C3751 H3767 0.961 . S
C3752 C3753 1.370 . S
C3752 C3754 1.363 . S
C3752 H3768 0.931 . S
C3753 C3752 1.370 . S
C3753 C3757 1.408 . S
C3754 C3752 1.363 . S
C3754 C3755 1.370 . S
C3754 C3758 1.524 . S
C3755 C3747 1.503 . S
C3755 C3754 1.370 . S
C3755 C3756 1.403 . S
C3756 C3755 1.403 . S
C3756 C3757 1.404 . S
C3756 C3759 1.539 . S
C3757 C3753 1.408 . S
C3757 C3756 1.404 . S
C3757 H3769 0.930 . S
C3758 C3754 1.524 . S
C3758 H3770 0.956 . S
C3758 H3771 0.961 . S
C3758 H3772 0.961 . S
C3759 C3756 1.539 . S
C3759 H3773 0.958 . S
C3759 H3774 0.961 . S
C3759 H3775 0.960 . S
H3760 C3744 0.931 . S
H3761 C3749 0.929 . S
H3762 C3750 0.960 . S
H3763 C3750 0.962 . S
H3764 C3750 0.960 . S
H3765 C3751 0.961 . S
H3766 C3751 0.961 . S
H3767 C3751 0.961 . S
H3768 C3752 0.931 . S
H3769 C3757 0.930 . S
H3770 C3758 0.956 . S
H3771 C3758 0.961 . S
H3772 C3758 0.961 . S
H3773 C3759 0.958 . S
H3774 C3759 0.961 . S
H3775 C3759 0.960 . S
C3776 C3777 1.391 . S
C3776 C3778 1.394 . S
C3776 H3792 0.931 . S
C3777 C3776 1.391 . S
C3777 C3781 1.376 . S
C3778 C3776 1.394 . S
C3778 C3779 1.369 . S
C3778 C3782 1.531 . S
C3779 C3778 1.369 . S
C3779 C3780 1.410 . S
C3779 C3787 1.503 . S
C3780 C3779 1.410 . S
C3780 C3781 1.392 . S
C3780 C3783 1.511 . S
C3781 C3777 1.376 . S
C3781 C3780 1.392 . S
C3781 H3793 0.929 . S
C3782 C3778 1.531 . S
C3782 H3794 0.960 . S
C3782 H3795 0.962 . S
C3782 H3796 0.960 . S
C3783 C3780 1.511 . S
C3783 H3797 0.961 . S
C3783 H3798 0.961 . S
C3783 H3799 0.961 . S
C3784 C3785 1.370 . S
C3784 C3786 1.363 . S
C3784 H3800 0.931 . S
C3785 C3784 1.370 . S
C3785 C3789 1.408 . S
C3786 C3784 1.363 . S
C3786 C3787 1.370 . S
C3786 C3790 1.524 . S
C3787 C3779 1.503 . S
C3787 C3786 1.370 . S
C3787 C3788 1.403 . S
C3788 C3787 1.403 . S
C3788 C3789 1.404 . S
C3788 C3791 1.539 . S
C3789 C3785 1.408 . S
C3789 C3788 1.404 . S
C3789 H3801 0.930 . S
C3790 C3786 1.524 . S
C3790 H3802 0.956 . S
C3790 H3803 0.961 . S
C3790 H3804 0.961 . S
C3791 C3788 1.539 . S
C3791 H3805 0.958 . S
C3791 H3806 0.961 . S
C3791 H3807 0.960 . S
H3792 C3776 0.931 . S
H3793 C3781 0.929 . S
H3794 C3782 0.960 . S
H3795 C3782 0.962 . S
H3796 C3782 0.960 . S
H3797 C3783 0.961 . S
H3798 C3783 0.961 . S
H3799 C3783 0.961 . S
H3800 C3784 0.931 . S
H3801 C3789 0.930 . S
H3802 C3790 0.956 . S
H3803 C3790 0.961 . S
H3804 C3790 0.961 . S
H3805 C3791 0.958 . S
H3806 C3791 0.961 . S
H3807 C3791 0.960 . S
C3808 C3809 1.391 . S
C3808 C3810 1.394 . S
C3808 H3824 0.931 . S
C3809 C3808 1.391 . S
C3809 C3813 1.376 . S
C3810 C3808 1.394 . S
C3810 C3811 1.369 . S
C3810 C3814 1.531 . S
C3811 C3810 1.369 . S
C3811 C3812 1.410 . S
C3811 C3819 1.503 . S
C3812 C3811 1.410 . S
C3812 C3813 1.392 . S
C3812 C3815 1.511 . S
C3813 C3809 1.376 . S
C3813 C3812 1.392 . S
C3813 H3825 0.929 . S
C3814 C3810 1.531 . S
C3814 H3826 0.960 . S
C3814 H3827 0.962 . S
C3814 H3828 0.960 . S
C3815 C3812 1.511 . S
C3815 H3829 0.961 . S
C3815 H3830 0.961 . S
C3815 H3831 0.961 . S
C3816 C3817 1.370 . S
C3816 C3818 1.363 . S
C3816 H3832 0.931 . S
C3817 C3816 1.370 . S
C3817 C3821 1.408 . S
C3818 C3816 1.363 . S
C3818 C3819 1.370 . S
C3818 C3822 1.524 . S
C3819 C3811 1.503 . S
C3819 C3818 1.370 . S
C3819 C3820 1.403 . S
C3820 C3819 1.403 . S
C3820 C3821 1.404 . S
C3820 C3823 1.539 . S
C3821 C3817 1.408 . S
C3821 C3820 1.404 . S
C3821 H3833 0.930 . S
C3822 C3818 1.524 . S
C3822 H3834 0.956 . S
C3822 H3835 0.961 . S
C3822 H3836 0.961 . S
C3823 C3820 1.539 . S
C3823 H3837 0.958 . S
C3823 H3838 0.961 . S
C3823 H3839 0.960 . S
H3824 C3808 0.931 . S
H3825 C3813 0.929 . S
H3826 C3814 0.960 . S
H3827 C3814 0.962 . S
H3828 C3814 0.960 . S
H3829 C3815 0.961 . S
H3830 C3815 0.961 . S
H3831 C3815 0.961 . S
H3832 C3816 0.931 . S
H3833 C3821 0.930 . S
H3834 C3822 0.956 . S
H3835 C3822 0.961 . S
H3836 C3822 0.961 . S
H3837 C3823 0.958 . S
H3838 C3823 0.961 . S
H3839 C3823 0.960 . S
C3840 C3841 1.391 . S
C3840 C3842 1.394 . S
C3840 H3856 0.931 . S
C3841 C3840 1.391 . S
C3841 C3845 1.376 . S
C3842 C3840 1.394 . S
C3842 C3843 1.369 . S
C3842 C3846 1.531 . S
C3843 C3842 1.369 . S
C3843 C3844 1.410 . S
C3843 C3851 1.503 . S
C3844 C3843 1.410 . S
C3844 C3845 1.392 . S
C3844 C3847 1.511 . S
C3845 C3841 1.376 . S
C3845 C3844 1.392 . S
C3845 H3857 0.929 . S
C3846 C3842 1.531 . S
C3846 H3858 0.960 . S
C3846 H3859 0.962 . S
C3846 H3860 0.960 . S
C3847 C3844 1.511 . S
C3847 H3861 0.961 . S
C3847 H3862 0.961 . S
C3847 H3863 0.961 . S
C3848 C3849 1.370 . S
C3848 C3850 1.363 . S
C3848 H3864 0.931 . S
C3849 C3848 1.370 . S
C3849 C3853 1.408 . S
C3850 C3848 1.363 . S
C3850 C3851 1.370 . S
C3850 C3854 1.524 . S
C3851 C3843 1.503 . S
C3851 C3850 1.370 . S
C3851 C3852 1.403 . S
C3852 C3851 1.403 . S
C3852 C3853 1.404 . S
C3852 C3855 1.539 . S
C3853 C3849 1.408 . S
C3853 C3852 1.404 . S
C3853 H3865 0.930 . S
C3854 C3850 1.524 . S
C3854 H3866 0.956 . S
C3854 H3867 0.961 . S
C3854 H3868 0.961 . S
C3855 C3852 1.539 . S
C3855 H3869 0.958 . S
C3855 H3870 0.961 . S
C3855 H3871 0.960 . S
H3856 C3840 0.931 . S
H3857 C3845 0.929 . S
H3858 C3846 0.960 . S
H3859 C3846 0.962 . S
H3860 C3846 0.960 . S
H3861 C3847 0.961 . S
H3862 C3847 0.961 . S
H3863 C3847 0.961 . S
H3864 C3848 0.931 . S
H3865 C3853 0.930 . S
H3866 C3854 0.956 . S
H3867 C3854 0.961 . S
H3868 C3854 0.961 . S
H3869 C3855 0.958 . S
H3870 C3855 0.961 . S
H3871 C3855 0.960 . S
C3872 C3873 1.391 . S
C3872 C3874 1.394 1_655 S
C3872 H3888 0.906 1_655 S
C3873 C3872 1.391 . S
C3873 C3877 1.376 . S
C3874 C3872 1.394 1_455 S
C3874 C3875 1.369 1_455 S
C3874 C3878 1.531 . S
C3875 C3874 1.369 1_655 S
C3875 C3876 1.410 . S
C3875 C3883 1.503 1_665 S
C3876 C3875 1.410 . S
C3876 C3877 1.392 . S
C3876 C3879 1.511 1_565 S
C3877 C3873 1.376 . S
C3877 C3876 1.392 . S
C3877 H3889 0.929 . S
C3878 C3874 1.531 . S
C3878 H3890 0.960 . S
C3878 H3891 0.962 . S
C3878 H3892 0.960 . S
C3879 C3876 1.511 1_545 S
C3879 H3893 0.961 . S
C3879 H3894 0.961 . S
C3879 H3895 0.961 . S
C3880 C3881 1.370 . S
C3880 C3882 1.363 . S
C3880 H3896 0.931 . S
C3881 C3880 1.370 . S
C3881 C3885 1.415 . S
C3882 C3880 1.363 . S
C3882 C3883 1.370 . S
C3882 C3886 1.524 . S
C3883 C3875 1.503 1_445 S
C3883 C3882 1.370 . S
C3883 C3884 1.403 1_455 S
C3884 C3883 1.403 1_655 S
C3884 C3885 1.401 1_655 S
C3884 C3887 1.539 . S
C3885 C3881 1.415 . S
C3885 C3884 1.401 1_455 S
C3885 H3897 0.926 1_455 S
C3886 C3882 1.524 . S
C3886 H3898 0.956 1_545 S
C3886 H3899 0.961 . S
C3886 H3900 0.961 . S
C3887 C3884 1.539 . S
C3887 H3901 0.958 . S
C3887 H3902 0.961 . S
C3887 H3903 0.960 . S
H3888 C3872 0.906 1_455 S
H3889 C3877 0.929 . S
H3890 C3878 0.960 . S
H3891 C3878 0.962 . S
H3892 C3878 0.960 . S
H3893 C3879 0.961 . S
H3894 C3879 0.961 . S
H3895 C3879 0.961 . S
H3896 C3880 0.931 . S
H3897 C3885 0.926 1_655 S
H3898 C3886 0.956 1_565 S
H3899 C3886 0.961 . S
H3900 C3886 0.961 . S
H3901 C3887 0.958 . S
H3902 C3887 0.961 . S
H3903 C3887 0.960 . S
C3904 C3905 1.391 . S
C3904 C3906 1.394 . S
C3904 H3920 0.931 . S
C3905 C3904 1.391 . S
C3905 C3909 1.376 . S
C3906 C3904 1.394 . S
C3906 C3907 1.369 . S
C3906 C3910 1.531 . S
C3907 C3906 1.369 . S
C3907 C3908 1.410 . S
C3907 C3915 1.503 . S
C3908 C3907 1.410 . S
C3908 C3909 1.392 . S
C3908 C3911 1.511 . S
C3909 C3905 1.376 . S
C3909 C3908 1.392 . S
C3909 H3921 0.929 . S
C3910 C3906 1.531 . S
C3910 H3922 0.960 . S
C3910 H3923 0.962 . S
C3910 H3924 0.960 . S
C3911 C3908 1.511 . S
C3911 H3925 0.961 . S
C3911 H3926 0.961 . S
C3911 H3927 0.961 . S
C3912 C3913 1.370 . S
C3912 C3914 1.363 . S
C3912 H3928 0.931 . S
C3913 C3912 1.370 . S
C3913 C3917 1.408 . S
C3914 C3912 1.363 . S
C3914 C3915 1.370 . S
C3914 C3918 1.524 . S
C3915 C3907 1.503 . S
C3915 C3914 1.370 . S
C3915 C3916 1.403 . S
C3916 C3915 1.403 . S
C3916 C3917 1.404 . S
C3916 C3919 1.539 . S
C3917 C3913 1.408 . S
C3917 C3916 1.404 . S
C3917 H3929 0.930 . S
C3918 C3914 1.524 . S
C3918 H3930 0.956 . S
C3918 H3931 0.961 . S
C3918 H3932 0.961 . S
C3919 C3916 1.539 . S
C3919 H3933 0.958 . S
C3919 H3934 0.961 . S
C3919 H3935 0.960 . S
H3920 C3904 0.931 . S
H3921 C3909 0.929 . S
H3922 C3910 0.960 . S
H3923 C3910 0.962 . S
H3924 C3910 0.960 . S
H3925 C3911 0.961 . S
H3926 C3911 0.961 . S
H3927 C3911 0.961 . S
H3928 C3912 0.931 . S
H3929 C3917 0.930 . S
H3930 C3918 0.956 . S
H3931 C3918 0.961 . S
H3932 C3918 0.961 . S
H3933 C3919 0.958 . S
H3934 C3919 0.961 . S
H3935 C3919 0.960 . S
C3936 C3937 1.391 . S
C3936 C3938 1.394 . S
C3936 H3952 0.931 . S
C3937 C3936 1.391 . S
C3937 C3941 1.376 . S
C3938 C3936 1.394 . S
C3938 C3939 1.369 . S
C3938 C3942 1.531 1_545 S
C3939 C3938 1.369 . S
C3939 C3940 1.410 . S
C3939 C3947 1.494 1_544 S
C3940 C3939 1.410 . S
C3940 C3941 1.392 . S
C3940 C3943 1.511 . S
C3941 C3937 1.376 . S
C3941 C3940 1.392 . S
C3941 H3953 0.929 . S
C3942 C3938 1.531 1_565 S
C3942 H3954 0.960 . S
C3942 H3955 0.960 1_554 S
C3942 H3956 0.961 . S
C3943 C3940 1.511 . S
C3943 H3957 0.961 . S
C3943 H3958 0.961 . S
C3943 H3959 0.961 . S
C3944 C3945 1.370 . S
C3944 C3946 1.363 . S
C3944 H3960 0.931 . S
C3945 C3944 1.370 . S
C3945 C3949 1.408 1_556 S
C3946 C3944 1.363 . S
C3946 C3947 1.394 . S
C3946 C3950 1.524 1_565 S
C3947 C3939 1.494 1_566 S
C3947 C3946 1.394 . S
C3947 C3948 1.388 1_556 S
C3948 C3947 1.388 1_554 S
C3948 C3949 1.404 . S
C3948 C3951 1.539 . S
C3949 C3945 1.408 1_554 S
C3949 C3948 1.404 . S
C3949 H3961 0.930 . S
C3950 C3946 1.524 1_545 S
C3950 H3962 0.956 . S
C3950 H3963 0.961 . S
C3950 H3964 0.961 . S
C3951 C3948 1.539 . S
C3951 H3965 0.958 . S
C3951 H3966 0.961 . S
C3951 H3967 0.960 . S
H3952 C3936 0.931 . S
H3953 C3941 0.929 . S
H3954 C3942 0.960 . S
H3955 C3942 0.960 1_556 S
H3956 C3942 0.961 . S
H3957 C3943 0.961 . S
H3958 C3943 0.961 . S
H3959 C3943 0.961 . S
H3960 C3944 0.931 . S
H3961 C3949 0.930 . S
H3962 C3950 0.956 . S
H3963 C3950 0.961 . S
H3964 C3950 0.961 . S
H3965 C3951 0.958 . S
H3966 C3951 0.961 . S
H3967 C3951 0.960 . S
C3968 C3969 1.391 . S
C3968 C3970 1.394 . S
C3968 H3984 0.931 . S
C3969 C3968 1.391 . S
C3969 C3973 1.376 . S
C3970 C3968 1.394 . S
C3970 C3971 1.369 . S
C3970 C3974 1.531 . S
C3971 C3970 1.369 . S
C3971 C3972 1.410 . S
C3971 C3979 1.503 . S
C3972 C3971 1.410 . S
C3972 C3973 1.392 . S
C3972 C3975 1.511 . S
C3973 C3969 1.376 . S
C3973 C3972 1.392 . S
C3973 H3985 0.929 . S
C3974 C3970 1.531 . S
C3974 H3986 0.960 . S
C3974 H3987 0.962 . S
C3974 H3988 0.960 . S
C3975 C3972 1.511 . S
C3975 H3989 0.961 . S
C3975 H3990 0.961 . S
C3975 H3991 0.961 . S
C3976 C3977 1.370 . S
C3976 C3978 1.363 . S
C3976 H3992 0.931 . S
C3977 C3976 1.370 . S
C3977 C3981 1.408 . S
C3978 C3976 1.363 . S
C3978 C3979 1.370 . S
C3978 C3982 1.524 . S
C3979 C3971 1.503 . S
C3979 C3978 1.370 . S
C3979 C3980 1.403 . S
C3980 C3979 1.403 . S
C3980 C3981 1.404 . S
C3980 C3983 1.539 . S
C3981 C3977 1.408 . S
C3981 C3980 1.404 . S
C3981 H3993 0.930 . S
C3982 C3978 1.524 . S
C3982 H3994 0.956 . S
C3982 H3995 0.961 . S
C3982 H3996 0.961 . S
C3983 C3980 1.539 . S
C3983 H3997 0.958 . S
C3983 H3998 0.961 . S
C3983 H3999 0.960 . S
H3984 C3968 0.931 . S
H3985 C3973 0.929 . S
H3986 C3974 0.960 . S
H3987 C3974 0.962 . S
H3988 C3974 0.960 . S
H3989 C3975 0.961 . S
H3990 C3975 0.961 . S
H3991 C3975 0.961 . S
H3992 C3976 0.931 . S
H3993 C3981 0.930 . S
H3994 C3982 0.956 . S
H3995 C3982 0.961 . S
H3996 C3982 0.961 . S
H3997 C3983 0.958 . S
H3998 C3983 0.961 . S
H3999 C3983 0.960 . S
C4000 C4001 1.391 . S
C4000 C4002 1.394 . S
C4000 H4016 0.931 . S
C4001 C4000 1.391 . S
C4001 C4005 1.376 . S
C4002 C4000 1.394 . S
C4002 C4003 1.369 . S
C4002 C4006 1.531 1_565 S
C4003 C4002 1.369 . S
C4003 C4004 1.410 . S
C4003 C4011 1.503 1_565 S
C4004 C4003 1.410 . S
C4004 C4005 1.392 . S
C4004 C4007 1.511 . S
C4005 C4001 1.376 . S
C4005 C4004 1.392 . S
C4005 H4017 0.929 . S
C4006 C4002 1.531 1_545 S
C4006 H4018 0.960 . S
C4006 H4019 0.962 . S
C4006 H4020 0.960 . S
C4007 C4004 1.511 . S
C4007 H4021 0.961 . S
C4007 H4022 0.961 . S
C4007 H4023 0.961 . S
C4008 C4009 1.370 . S
C4008 C4010 1.363 . S
C4008 H4024 0.931 . S
C4009 C4008 1.370 . S
C4009 C4013 1.408 . S
C4010 C4008 1.363 . S
C4010 C4011 1.370 . S
C4010 C4014 1.524 . S
C4011 C4003 1.503 1_545 S
C4011 C4010 1.370 . S
C4011 C4012 1.403 . S
C4012 C4011 1.403 . S
C4012 C4013 1.404 . S
C4012 C4015 1.539 . S
C4013 C4009 1.408 . S
C4013 C4012 1.404 . S
C4013 H4025 0.930 . S
C4014 C4010 1.524 . S
C4014 H4026 0.956 . S
C4014 H4027 0.961 1_545 S
C4014 H4028 0.961 . S
C4015 C4012 1.539 . S
C4015 H4029 0.958 . S
C4015 H4030 0.961 . S
C4015 H4031 0.960 1_545 S
H4016 C4000 0.931 . S
H4017 C4005 0.929 . S
H4018 C4006 0.960 . S
H4019 C4006 0.962 . S
H4020 C4006 0.960 . S
H4021 C4007 0.961 . S
H4022 C4007 0.961 . S
H4023 C4007 0.961 . S
H4024 C4008 0.931 . S
H4025 C4013 0.930 . S
H4026 C4014 0.956 . S
H4027 C4014 0.961 1_565 S
H4028 C4014 0.961 . S
H4029 C4015 0.958 . S
H4030 C4015 0.961 . S
H4031 C4015 0.960 1_565 S
C4032 C4033 1.391 . S
C4032 C4034 1.394 . S
C4032 H4048 0.931 . S
C4033 C4032 1.391 . S
C4033 C4037 1.376 . S
C4034 C4032 1.394 . S
C4034 C4035 1.369 . S
C4034 C4038 1.531 . S
C4035 C4034 1.369 . S
C4035 C4036 1.410 . S
C4035 C4043 1.503 . S
C4036 C4035 1.410 . S
C4036 C4037 1.392 . S
C4036 C4039 1.511 . S
C4037 C4033 1.376 . S
C4037 C4036 1.392 . S
C4037 H4049 0.929 . S
C4038 C4034 1.531 . S
C4038 H4050 0.960 . S
C4038 H4051 0.962 . S
C4038 H4052 0.960 . S
C4039 C4036 1.511 . S
C4039 H4053 0.961 . S
C4039 H4054 0.961 . S
C4039 H4055 0.961 . S
C4040 C4041 1.370 . S
C4040 C4042 1.363 . S
C4040 H4056 0.931 . S
C4041 C4040 1.370 . S
C4041 C4045 1.408 . S
C4042 C4040 1.363 . S
C4042 C4043 1.370 . S
C4042 C4046 1.524 . S
C4043 C4035 1.503 . S
C4043 C4042 1.370 . S
C4043 C4044 1.403 . S
C4044 C4043 1.403 . S
C4044 C4045 1.404 . S
C4044 C4047 1.539 . S
C4045 C4041 1.408 . S
C4045 C4044 1.404 . S
C4045 H4057 0.930 . S
C4046 C4042 1.524 . S
C4046 H4058 0.956 . S
C4046 H4059 0.961 . S
C4046 H4060 0.961 . S
C4047 C4044 1.539 . S
C4047 H4061 0.958 . S
C4047 H4062 0.961 . S
C4047 H4063 0.960 . S
H4048 C4032 0.931 . S
H4049 C4037 0.929 . S
H4050 C4038 0.960 . S
H4051 C4038 0.962 . S
H4052 C4038 0.960 . S
H4053 C4039 0.961 . S
H4054 C4039 0.961 . S
H4055 C4039 0.961 . S
H4056 C4040 0.931 . S
H4057 C4045 0.930 . S
H4058 C4046 0.956 . S
H4059 C4046 0.961 . S
H4060 C4046 0.961 . S
H4061 C4047 0.958 . S
H4062 C4047 0.961 . S
H4063 C4047 0.960 . S
C4064 C4065 1.391 1_455 S
C4064 C4066 1.394 . S
C4064 H4080 0.931 . S
C4065 C4064 1.391 1_655 S
C4065 C4069 1.376 . S
C4066 C4064 1.394 . S
C4066 C4067 1.365 1_456 S
C4066 C4070 1.531 1_556 S
C4067 C4066 1.365 1_654 S
C4067 C4068 1.396 1_554 S
C4067 C4075 1.518 1_645 S
C4068 C4067 1.396 1_556 S
C4068 C4069 1.392 . S
C4068 C4071 1.511 1_545 S
C4069 C4065 1.376 . S
C4069 C4068 1.392 . S
C4069 H4081 0.929 . S
C4070 C4066 1.531 1_554 S
C4070 H4082 0.960 . S
C4070 H4083 0.962 1_554 S
C4070 H4084 0.960 . S
C4071 C4068 1.511 1_565 S
C4071 H4085 0.961 . S
C4071 H4086 0.961 . S
C4071 H4087 0.961 1_556 S
C4072 C4073 1.370 1_556 S
C4072 C4074 1.363 . S
C4072 H4088 0.931 . S
C4073 C4072 1.370 1_554 S
C4073 C4077 1.408 . S
C4074 C4072 1.363 . S
C4074 C4075 1.370 1_556 S
C4074 C4078 1.524 . S
C4075 C4067 1.518 1_465 S
C4075 C4074 1.370 1_554 S
C4075 C4076 1.403 . S
C4076 C4075 1.403 . S
C4076 C4077 1.404 . S
C4076 C4079 1.568 1_455 S
C4077 C4073 1.408 . S
C4077 C4076 1.404 . S
C4077 H4089 0.930 . S
C4078 C4074 1.524 . S
C4078 H4090 0.956 . S
C4078 H4091 0.961 1_455 S
C4078 H4092 0.961 . S
C4079 C4076 1.568 1_655 S
C4079 H4093 0.933 1_665 S
C4079 H4094 0.989 . S
C4079 H4095 0.931 1_565 S
H4080 C4064 0.931 . S
H4081 C4069 0.929 . S
H4082 C4070 0.960 . S
H4083 C4070 0.962 1_556 S
H4084 C4070 0.960 . S
H4085 C4071 0.961 . S
H4086 C4071 0.961 . S
H4087 C4071 0.961 1_554 S
H4088 C4072 0.931 . S
H4089 C4077 0.930 . S
H4090 C4078 0.956 . S
H4091 C4078 0.961 1_655 S
H4092 C4078 0.961 . S
H4093 C4079 0.933 1_445 S
H4094 C4079 0.989 . S
H4095 C4079 0.931 1_545 S
C4096 C4097 1.391 . S
C4096 C4098 1.394 . S
C4096 H4112 0.931 . S
C4097 C4096 1.391 . S
C4097 C4101 1.376 . S
C4098 C4096 1.394 . S
C4098 C4099 1.369 . S
C4098 C4102 1.531 . S
C4099 C4098 1.369 . S
C4099 C4100 1.410 . S
C4099 C4107 1.503 . S
C4100 C4099 1.410 . S
C4100 C4101 1.392 . S
C4100 C4103 1.511 . S
C4101 C4097 1.376 . S
C4101 C4100 1.392 . S
C4101 H4113 0.929 . S
C4102 C4098 1.531 . S
C4102 H4114 0.960 . S
C4102 H4115 0.962 . S
C4102 H4116 0.960 . S
C4103 C4100 1.511 . S
C4103 H4117 0.961 . S
C4103 H4118 0.961 . S
C4103 H4119 0.961 . S
C4104 C4105 1.370 . S
C4104 C4106 1.363 . S
C4104 H4120 0.931 . S
C4105 C4104 1.370 . S
C4105 C4109 1.408 . S
C4106 C4104 1.363 . S
C4106 C4107 1.370 . S
C4106 C4110 1.524 . S
C4107 C4099 1.503 . S
C4107 C4106 1.370 . S
C4107 C4108 1.403 . S
C4108 C4107 1.403 . S
C4108 C4109 1.404 . S
C4108 C4111 1.539 . S
C4109 C4105 1.408 . S
C4109 C4108 1.404 . S
C4109 H4121 0.930 . S
C4110 C4106 1.524 . S
C4110 H4122 0.956 . S
C4110 H4123 0.961 . S
C4110 H4124 0.961 . S
C4111 C4108 1.539 . S
C4111 H4125 0.958 . S
C4111 H4126 0.961 . S
C4111 H4127 0.960 . S
H4112 C4096 0.931 . S
H4113 C4101 0.929 . S
H4114 C4102 0.960 . S
H4115 C4102 0.962 . S
H4116 C4102 0.960 . S
H4117 C4103 0.961 . S
H4118 C4103 0.961 . S
H4119 C4103 0.961 . S
H4120 C4104 0.931 . S
H4121 C4109 0.930 . S
H4122 C4110 0.956 . S
H4123 C4110 0.961 . S
H4124 C4110 0.961 . S
H4125 C4111 0.958 . S
H4126 C4111 0.961 . S
H4127 C4111 0.960 . S
C4128 C4129 1.391 . S
C4128 C4130 1.394 . S
C4128 H4144 0.931 . S
C4129 C4128 1.391 . S
C4129 C4133 1.376 . S
C4130 C4128 1.394 . S
C4130 C4131 1.369 . S
C4130 C4134 1.531 . S
C4131 C4130 1.369 . S
C4131 C4132 1.410 . S
C4131 C4139 1.503 . S
C4132 C4131 1.410 . S
C4132 C4133 1.392 . S
C4132 C4135 1.511 . S
C4133 C4129 1.376 . S
C4133 C4132 1.392 . S
C4133 H4145 0.929 . S
C4134 C4130 1.531 . S
C4134 H4146 0.960 . S
C4134 H4147 0.962 . S
C4134 H4148 0.960 . S
C4135 C4132 1.511 . S
C4135 H4149 0.961 . S
C4135 H4150 0.961 . S
C4135 H4151 0.961 . S
C4136 C4137 1.370 . S
C4136 C4138 1.363 . S
C4136 H4152 0.931 . S
C4137 C4136 1.370 . S
C4137 C4141 1.408 . S
C4138 C4136 1.363 . S
C4138 C4139 1.370 . S
C4138 C4142 1.524 . S
C4139 C4131 1.503 . S
C4139 C4138 1.370 . S
C4139 C4140 1.403 . S
C4140 C4139 1.403 . S
C4140 C4141 1.404 . S
C4140 C4143 1.539 . S
C4141 C4137 1.408 . S
C4141 C4140 1.404 . S
C4141 H4153 0.930 . S
C4142 C4138 1.524 . S
C4142 H4154 0.956 . S
C4142 H4155 0.961 . S
C4142 H4156 0.961 . S
C4143 C4140 1.539 . S
C4143 H4157 0.958 . S
C4143 H4158 0.961 . S
C4143 H4159 0.960 . S
H4144 C4128 0.931 . S
H4145 C4133 0.929 . S
H4146 C4134 0.960 . S
H4147 C4134 0.962 . S
H4148 C4134 0.960 . S
H4149 C4135 0.961 . S
H4150 C4135 0.961 . S
H4151 C4135 0.961 . S
H4152 C4136 0.931 . S
H4153 C4141 0.930 . S
H4154 C4142 0.956 . S
H4155 C4142 0.961 . S
H4156 C4142 0.961 . S
H4157 C4143 0.958 . S
H4158 C4143 0.961 . S
H4159 C4143 0.960 . S
C4160 C4161 1.391 . S
C4160 C4162 1.394 . S
C4160 H4176 0.931 . S
C4161 C4160 1.391 . S
C4161 C4165 1.376 . S
C4162 C4160 1.394 . S
C4162 C4163 1.369 . S
C4162 C4166 1.531 . S
C4163 C4162 1.369 . S
C4163 C4164 1.410 . S
C4163 C4171 1.503 . S
C4164 C4163 1.410 . S
C4164 C4165 1.392 . S
C4164 C4167 1.511 . S
C4165 C4161 1.376 . S
C4165 C4164 1.392 . S
C4165 H4177 0.929 . S
C4166 C4162 1.531 . S
C4166 H4178 0.960 . S
C4166 H4179 0.962 . S
C4166 H4180 0.960 . S
C4167 C4164 1.511 . S
C4167 H4181 0.961 . S
C4167 H4182 0.961 . S
C4167 H4183 0.961 . S
C4168 C4169 1.370 . S
C4168 C4170 1.363 . S
C4168 H4184 0.931 . S
C4169 C4168 1.370 . S
C4169 C4173 1.408 . S
C4170 C4168 1.363 . S
C4170 C4171 1.370 . S
C4170 C4174 1.524 . S
C4171 C4163 1.503 . S
C4171 C4170 1.370 . S
C4171 C4172 1.403 . S
C4172 C4171 1.403 . S
C4172 C4173 1.404 . S
C4172 C4175 1.539 . S
C4173 C4169 1.408 . S
C4173 C4172 1.404 . S
C4173 H4185 0.930 . S
C4174 C4170 1.524 . S
C4174 H4186 0.956 . S
C4174 H4187 0.961 . S
C4174 H4188 0.961 . S
C4175 C4172 1.539 . S
C4175 H4189 0.958 . S
C4175 H4190 0.961 . S
C4175 H4191 0.960 . S
H4176 C4160 0.931 . S
H4177 C4165 0.929 . S
H4178 C4166 0.960 . S
H4179 C4166 0.962 . S
H4180 C4166 0.960 . S
H4181 C4167 0.961 . S
H4182 C4167 0.961 . S
H4183 C4167 0.961 . S
H4184 C4168 0.931 . S
H4185 C4173 0.930 . S
H4186 C4174 0.956 . S
H4187 C4174 0.961 . S
H4188 C4174 0.961 . S
H4189 C4175 0.958 . S
H4190 C4175 0.961 . S
H4191 C4175 0.960 . S
C4192 C4193 1.391 . S
C4192 C4194 1.394 . S
C4192 H4208 0.931 . S
C4193 C4192 1.391 . S
C4193 C4197 1.376 . S
C4194 C4192 1.394 . S
C4194 C4195 1.369 . S
C4194 C4198 1.531 . S
C4195 C4194 1.369 . S
C4195 C4196 1.410 . S
C4195 C4203 1.503 . S
C4196 C4195 1.410 . S
C4196 C4197 1.392 . S
C4196 C4199 1.511 . S
C4197 C4193 1.376 . S
C4197 C4196 1.392 . S
C4197 H4209 0.929 . S
C4198 C4194 1.531 . S
C4198 H4210 0.960 . S
C4198 H4211 0.962 . S
C4198 H4212 0.960 . S
C4199 C4196 1.511 . S
C4199 H4213 0.961 . S
C4199 H4214 0.961 . S
C4199 H4215 0.961 . S
C4200 C4201 1.370 . S
C4200 C4202 1.363 . S
C4200 H4216 0.931 . S
C4201 C4200 1.370 . S
C4201 C4205 1.408 . S
C4202 C4200 1.363 . S
C4202 C4203 1.370 . S
C4202 C4206 1.524 . S
C4203 C4195 1.503 . S
C4203 C4202 1.370 . S
C4203 C4204 1.403 . S
C4204 C4203 1.403 . S
C4204 C4205 1.404 . S
C4204 C4207 1.539 . S
C4205 C4201 1.408 . S
C4205 C4204 1.404 . S
C4205 H4217 0.930 . S
C4206 C4202 1.524 . S
C4206 H4218 0.956 . S
C4206 H4219 0.961 . S
C4206 H4220 0.961 . S
C4207 C4204 1.539 . S
C4207 H4221 0.958 . S
C4207 H4222 0.961 . S
C4207 H4223 0.960 . S
H4208 C4192 0.931 . S
H4209 C4197 0.929 . S
H4210 C4198 0.960 . S
H4211 C4198 0.962 . S
H4212 C4198 0.960 . S
H4213 C4199 0.961 . S
H4214 C4199 0.961 . S
H4215 C4199 0.961 . S
H4216 C4200 0.931 . S
H4217 C4205 0.930 . S
H4218 C4206 0.956 . S
H4219 C4206 0.961 . S
H4220 C4206 0.961 . S
H4221 C4207 0.958 . S
H4222 C4207 0.961 . S
H4223 C4207 0.960 . S
C4224 C4225 1.391 1_556 S
C4224 C4226 1.394 . S
C4224 H4240 0.931 . S
C4225 C4224 1.391 1_554 S
C4225 C4229 1.376 . S
C4226 C4224 1.394 . S
C4226 C4227 1.369 1_556 S
C4226 C4230 1.531 . S
C4227 C4226 1.369 1_554 S
C4227 C4228 1.410 . S
C4227 C4235 1.503 1_554 S
C4228 C4227 1.410 . S
C4228 C4229 1.392 . S
C4228 C4231 1.511 . S
C4229 C4225 1.376 . S
C4229 C4228 1.392 . S
C4229 H4241 0.929 . S
C4230 C4226 1.531 . S
C4230 H4242 0.960 . S
C4230 H4243 0.962 . S
C4230 H4244 0.960 . S
C4231 C4228 1.511 . S
C4231 H4245 0.961 . S
C4231 H4246 0.961 . S
C4231 H4247 0.961 . S
C4232 C4233 1.370 . S
C4232 C4234 1.363 . S
C4232 H4248 0.931 . S
C4233 C4232 1.370 . S
C4233 C4237 1.408 . S
C4234 C4232 1.363 . S
C4234 C4235 1.370 . S
C4234 C4238 1.524 . S
C4235 C4227 1.503 1_556 S
C4235 C4234 1.370 . S
C4235 C4236 1.403 . S
C4236 C4235 1.403 . S
C4236 C4237 1.404 . S
C4236 C4239 1.539 1_556 S
C4237 C4233 1.408 . S
C4237 C4236 1.404 . S
C4237 H4249 0.930 . S
C4238 C4234 1.524 . S
C4238 H4250 0.956 . S
C4238 H4251 0.962 1_556 S
C4238 H4252 0.961 . S
C4239 C4236 1.539 1_554 S
C4239 H4253 0.945 1_554 S
C4239 H4254 0.961 . S
C4239 H4255 0.960 . S
H4240 C4224 0.931 . S
H4241 C4229 0.929 . S
H4242 C4230 0.960 . S
H4243 C4230 0.962 . S
H4244 C4230 0.960 . S
H4245 C4231 0.961 . S
H4246 C4231 0.961 . S
H4247 C4231 0.961 . S
H4248 C4232 0.931 . S
H4249 C4237 0.930 . S
H4250 C4238 0.956 . S
H4251 C4238 0.962 1_554 S
H4252 C4238 0.961 . S
H4253 C4239 0.945 1_556 S
H4254 C4239 0.961 . S
H4255 C4239 0.960 . S
C4256 C4257 1.391 . S
C4256 C4258 1.394 . S
C4256 H4272 0.931 . S
C4257 C4256 1.391 . S
C4257 C4261 1.376 . S
C4258 C4256 1.394 . S
C4258 C4259 1.369 . S
C4258 C4262 1.531 1_655 S
C4259 C4258 1.369 . S
C4259 C4260 1.410 . S
C4259 C4267 1.493 1_655 S
C4260 C4259 1.410 . S
C4260 C4261 1.392 . S
C4260 C4263 1.511 . S
C4261 C4257 1.376 . S
C4261 C4260 1.392 . S
C4261 H4273 0.929 . S
C4262 C4258 1.531 1_455 S
C4262 H4274 0.960 . S
C4262 H4275 0.962 . S
C4262 H4276 0.960 . S
C4263 C4260 1.511 . S
C4263 H4277 0.961 . S
C4263 H4278 0.961 . S
C4263 H4279 0.961 . S
C4264 C4265 1.370 . S
C4264 C4266 1.363 . S
C4264 H4280 0.931 . S
C4265 C4264 1.370 . S
C4265 C4269 1.408 1_455 S
C4266 C4264 1.363 . S
C4266 C4267 1.395 . S
C4266 C4270 1.524 . S
C4267 C4259 1.493 1_455 S
C4267 C4266 1.395 . S
C4267 C4268 1.388 1_455 S
C4268 C4267 1.388 1_655 S
C4268 C4269 1.404 . S
C4268 C4271 1.539 . S
C4269 C4265 1.408 1_655 S
C4269 C4268 1.404 . S
C4269 H4281 0.930 . S
C4270 C4266 1.524 . S
C4270 H4282 0.956 . S
C4270 H4283 0.961 . S
C4270 H4284 0.961 . S
C4271 C4268 1.539 . S
C4271 H4285 0.958 . S
C4271 H4286 0.961 . S
C4271 H4287 0.960 . S
H4272 C4256 0.931 . S
H4273 C4261 0.929 . S
H4274 C4262 0.960 . S
H4275 C4262 0.962 . S
H4276 C4262 0.960 . S
H4277 C4263 0.961 . S
H4278 C4263 0.961 . S
H4279 C4263 0.961 . S
H4280 C4264 0.931 . S
H4281 C4269 0.930 . S
H4282 C4270 0.956 . S
H4283 C4270 0.961 . S
H4284 C4270 0.961 . S
H4285 C4271 0.958 . S
H4286 C4271 0.961 . S
H4287 C4271 0.960 . S
C4288 C4289 1.391 . S
C4288 C4290 1.386 1_556 S
C4288 H4304 0.928 . S
C4289 C4288 1.391 . S
C4289 C4293 1.395 . S
C4290 C4288 1.386 1_554 S
C4290 C4291 1.358 1_554 S
C4290 C4294 1.551 . S
C4291 C4290 1.358 1_556 S
C4291 C4292 1.410 1_455 S
C4291 C4299 1.503 1_456 S
C4292 C4291 1.410 1_655 S
C4292 C4293 1.386 1_655 S
C4292 C4295 1.511 . S
C4293 C4289 1.395 . S
C4293 C4292 1.386 1_455 S
C4293 H4305 0.917 1_455 S
C4294 C4290 1.551 . S
C4294 H4306 0.960 . S
C4294 H4307 0.962 . S
C4294 H4308 0.960 . S
C4295 C4292 1.511 . S
C4295 H4309 0.961 . S
C4295 H4310 0.961 . S
C4295 H4311 0.961 . S
C4296 C4297 1.370 . S
C4296 C4298 1.363 . S
C4296 H4312 0.931 . S
C4297 C4296 1.370 . S
C4297 C4301 1.372 1_554 S
C4298 C4296 1.363 . S
C4298 C4299 1.370 . S
C4298 C4302 1.524 . S
C4299 C4291 1.503 1_654 S
C4299 C4298 1.370 . S
C4299 C4300 1.403 1_654 S
C4300 C4299 1.403 1_456 S
C4300 C4301 1.421 1_455 S
C4300 C4303 1.539 . S
C4301 C4297 1.372 1_556 S
C4301 C4300 1.421 1_655 S
C4301 H4313 0.970 . S
C4302 C4298 1.524 . S
C4302 H4314 0.956 . S
C4302 H4315 0.961 . S
C4302 H4316 0.961 . S
C4303 C4300 1.539 . S
C4303 H4317 0.958 . S
C4303 H4318 0.961 . S
C4303 H4319 0.960 . S
H4304 C4288 0.928 . S
H4305 C4293 0.917 1_655 S
H4306 C4294 0.960 . S
H4307 C4294 0.962 . S
H4308 C4294 0.960 . S
H4309 C4295 0.961 . S
H4310 C4295 0.961 . S
H4311 C4295 0.961 . S
H4312 C4296 0.931 . S
H4313 C4301 0.970 . S
H4314 C4302 0.956 . S
H4315 C4302 0.961 . S
H4316 C4302 0.961 . S
H4317 C4303 0.958 . S
H4318 C4303 0.961 . S
H4319 C4303 0.960 . S
C4320 C4321 1.391 . S
C4320 C4322 1.394 . S
C4320 H4336 0.931 . S
C4321 C4320 1.391 . S
C4321 C4325 1.376 . S
C4322 C4320 1.394 . S
C4322 C4323 1.369 . S
C4322 C4326 1.531 . S
C4323 C4322 1.369 . S
C4323 C4324 1.410 . S
C4323 C4331 1.503 . S
C4324 C4323 1.410 . S
C4324 C4325 1.392 . S
C4324 C4327 1.511 . S
C4325 C4321 1.376 . S
C4325 C4324 1.392 . S
C4325 H4337 0.929 . S
C4326 C4322 1.531 . S
C4326 H4338 0.960 . S
C4326 H4339 0.962 . S
C4326 H4340 0.960 . S
C4327 C4324 1.511 . S
C4327 H4341 0.961 . S
C4327 H4342 0.961 . S
C4327 H4343 0.961 . S
C4328 C4329 1.370 . S
C4328 C4330 1.363 . S
C4328 H4344 0.931 . S
C4329 C4328 1.370 . S
C4329 C4333 1.408 . S
C4330 C4328 1.363 . S
C4330 C4331 1.370 . S
C4330 C4334 1.524 . S
C4331 C4323 1.503 . S
C4331 C4330 1.370 . S
C4331 C4332 1.403 . S
C4332 C4331 1.403 . S
C4332 C4333 1.404 . S
C4332 C4335 1.539 . S
C4333 C4329 1.408 . S
C4333 C4332 1.404 . S
C4333 H4345 0.930 . S
C4334 C4330 1.524 . S
C4334 H4346 0.956 . S
C4334 H4347 0.961 . S
C4334 H4348 0.961 . S
C4335 C4332 1.539 . S
C4335 H4349 0.958 . S
C4335 H4350 0.961 . S
C4335 H4351 0.960 . S
H4336 C4320 0.931 . S
H4337 C4325 0.929 . S
H4338 C4326 0.960 . S
H4339 C4326 0.962 . S
H4340 C4326 0.960 . S
H4341 C4327 0.961 . S
H4342 C4327 0.961 . S
H4343 C4327 0.961 . S
H4344 C4328 0.931 . S
H4345 C4333 0.930 . S
H4346 C4334 0.956 . S
H4347 C4334 0.961 . S
H4348 C4334 0.961 . S
H4349 C4335 0.958 . S
H4350 C4335 0.961 . S
H4351 C4335 0.960 . S
C4352 C4353 1.391 . S
C4352 C4354 1.394 . S
C4352 H4368 0.931 . S
C4353 C4352 1.391 . S
C4353 C4357 1.376 . S
C4354 C4352 1.394 . S
C4354 C4355 1.369 . S
C4354 C4358 1.531 . S
C4355 C4354 1.369 . S
C4355 C4356 1.410 . S
C4355 C4363 1.503 . S
C4356 C4355 1.410 . S
C4356 C4357 1.392 . S
C4356 C4359 1.511 . S
C4357 C4353 1.376 . S
C4357 C4356 1.392 . S
C4357 H4369 0.929 . S
C4358 C4354 1.531 . S
C4358 H4370 0.960 . S
C4358 H4371 0.962 . S
C4358 H4372 0.960 . S
C4359 C4356 1.511 . S
C4359 H4373 0.961 . S
C4359 H4374 0.961 . S
C4359 H4375 0.961 . S
C4360 C4361 1.370 . S
C4360 C4362 1.363 . S
C4360 H4376 0.931 . S
C4361 C4360 1.370 . S
C4361 C4365 1.408 . S
C4362 C4360 1.363 . S
C4362 C4363 1.370 . S
C4362 C4366 1.524 . S
C4363 C4355 1.503 . S
C4363 C4362 1.370 . S
C4363 C4364 1.403 . S
C4364 C4363 1.403 . S
C4364 C4365 1.404 . S
C4364 C4367 1.539 . S
C4365 C4361 1.408 . S
C4365 C4364 1.404 . S
C4365 H4377 0.930 . S
C4366 C4362 1.524 . S
C4366 H4378 0.956 . S
C4366 H4379 0.961 . S
C4366 H4380 0.961 . S
C4367 C4364 1.539 . S
C4367 H4381 0.958 . S
C4367 H4382 0.961 . S
C4367 H4383 0.960 . S
H4368 C4352 0.931 . S
H4369 C4357 0.929 . S
H4370 C4358 0.960 . S
H4371 C4358 0.962 . S
H4372 C4358 0.960 . S
H4373 C4359 0.961 . S
H4374 C4359 0.961 . S
H4375 C4359 0.961 . S
H4376 C4360 0.931 . S
H4377 C4365 0.930 . S
H4378 C4366 0.956 . S
H4379 C4366 0.961 . S
H4380 C4366 0.961 . S
H4381 C4367 0.958 . S
H4382 C4367 0.961 . S
H4383 C4367 0.960 . S
C4384 C4385 1.391 . S
C4384 C4386 1.394 . S
C4384 H4400 0.931 . S
C4385 C4384 1.391 . S
C4385 C4389 1.376 . S
C4386 C4384 1.394 . S
C4386 C4387 1.369 . S
C4386 C4390 1.531 . S
C4387 C4386 1.369 . S
C4387 C4388 1.410 . S
C4387 C4395 1.503 . S
C4388 C4387 1.410 . S
C4388 C4389 1.392 . S
C4388 C4391 1.511 . S
C4389 C4385 1.376 . S
C4389 C4388 1.392 . S
C4389 H4401 0.929 . S
C4390 C4386 1.531 . S
C4390 H4402 0.960 . S
C4390 H4403 0.962 . S
C4390 H4404 0.960 . S
C4391 C4388 1.511 . S
C4391 H4405 0.961 . S
C4391 H4406 0.961 . S
C4391 H4407 0.961 . S
C4392 C4393 1.370 . S
C4392 C4394 1.363 . S
C4392 H4408 0.931 . S
C4393 C4392 1.370 . S
C4393 C4397 1.408 . S
C4394 C4392 1.363 . S
C4394 C4395 1.370 . S
C4394 C4398 1.524 . S
C4395 C4387 1.503 . S
C4395 C4394 1.370 . S
C4395 C4396 1.403 . S
C4396 C4395 1.403 . S
C4396 C4397 1.404 . S
C4396 C4399 1.539 . S
C4397 C4393 1.408 . S
C4397 C4396 1.404 . S
C4397 H4409 0.930 . S
C4398 C4394 1.524 . S
C4398 H4410 0.956 . S
C4398 H4411 0.961 . S
C4398 H4412 0.961 . S
C4399 C4396 1.539 . S
C4399 H4413 0.958 . S
C4399 H4414 0.961 . S
C4399 H4415 0.960 . S
H4400 C4384 0.931 . S
H4401 C4389 0.929 . S
H4402 C4390 0.960 . S
H4403 C4390 0.962 . S
H4404 C4390 0.960 . S
H4405 C4391 0.961 . S
H4406 C4391 0.961 . S
H4407 C4391 0.961 . S
H4408 C4392 0.931 . S
H4409 C4397 0.930 . S
H4410 C4398 0.956 . S
H4411 C4398 0.961 . S
H4412 C4398 0.961 . S
H4413 C4399 0.958 . S
H4414 C4399 0.961 . S
H4415 C4399 0.960 . S
C4416 C4417 1.391 . S
C4416 C4418 1.394 . S
C4416 H4432 0.931 . S
C4417 C4416 1.391 . S
C4417 C4421 1.376 . S
C4418 C4416 1.394 . S
C4418 C4419 1.369 . S
C4418 C4422 1.531 . S
C4419 C4418 1.369 . S
C4419 C4420 1.410 . S
C4419 C4427 1.503 . S
C4420 C4419 1.410 . S
C4420 C4421 1.392 . S
C4420 C4423 1.511 . S
C4421 C4417 1.376 . S
C4421 C4420 1.392 . S
C4421 H4433 0.929 . S
C4422 C4418 1.531 . S
C4422 H4434 0.960 . S
C4422 H4435 0.962 . S
C4422 H4436 0.960 . S
C4423 C4420 1.511 . S
C4423 H4437 0.961 . S
C4423 H4438 0.961 . S
C4423 H4439 0.961 . S
C4424 C4425 1.370 . S
C4424 C4426 1.363 . S
C4424 H4440 0.931 . S
C4425 C4424 1.370 . S
C4425 C4429 1.408 . S
C4426 C4424 1.363 . S
C4426 C4427 1.370 . S
C4426 C4430 1.524 . S
C4427 C4419 1.503 . S
C4427 C4426 1.370 . S
C4427 C4428 1.403 . S
C4428 C4427 1.403 . S
C4428 C4429 1.404 . S
C4428 C4431 1.539 . S
C4429 C4425 1.408 . S
C4429 C4428 1.404 . S
C4429 H4441 0.930 . S
C4430 C4426 1.524 . S
C4430 H4442 0.956 . S
C4430 H4443 0.961 . S
C4430 H4444 0.961 . S
C4431 C4428 1.539 . S
C4431 H4445 0.958 . S
C4431 H4446 0.961 . S
C4431 H4447 0.960 . S
H4432 C4416 0.931 . S
H4433 C4421 0.929 . S
H4434 C4422 0.960 . S
H4435 C4422 0.962 . S
H4436 C4422 0.960 . S
H4437 C4423 0.961 . S
H4438 C4423 0.961 . S
H4439 C4423 0.961 . S
H4440 C4424 0.931 . S
H4441 C4429 0.930 . S
H4442 C4430 0.956 . S
H4443 C4430 0.961 . S
H4444 C4430 0.961 . S
H4445 C4431 0.958 . S
H4446 C4431 0.961 . S
H4447 C4431 0.960 . S
C4448 C4449 1.391 . S
C4448 C4450 1.394 . S
C4448 H4464 0.931 . S
C4449 C4448 1.391 . S
C4449 C4453 1.376 . S
C4450 C4448 1.394 . S
C4450 C4451 1.369 . S
C4450 C4454 1.531 . S
C4451 C4450 1.369 . S
C4451 C4452 1.410 . S
C4451 C4459 1.503 . S
C4452 C4451 1.410 . S
C4452 C4453 1.392 . S
C4452 C4455 1.511 . S
C4453 C4449 1.376 . S
C4453 C4452 1.392 . S
C4453 H4465 0.929 . S
C4454 C4450 1.531 . S
C4454 H4466 0.960 . S
C4454 H4467 0.962 . S
C4454 H4468 0.960 . S
C4455 C4452 1.511 . S
C4455 H4469 0.961 . S
C4455 H4470 0.961 . S
C4455 H4471 0.961 . S
C4456 C4457 1.370 . S
C4456 C4458 1.363 . S
C4456 H4472 0.931 . S
C4457 C4456 1.370 . S
C4457 C4461 1.408 . S
C4458 C4456 1.363 . S
C4458 C4459 1.370 . S
C4458 C4462 1.524 . S
C4459 C4451 1.503 . S
C4459 C4458 1.370 . S
C4459 C4460 1.403 . S
C4460 C4459 1.403 . S
C4460 C4461 1.404 . S
C4460 C4463 1.539 . S
C4461 C4457 1.408 . S
C4461 C4460 1.404 . S
C4461 H4473 0.930 . S
C4462 C4458 1.524 . S
C4462 H4474 0.956 . S
C4462 H4475 0.961 . S
C4462 H4476 0.961 . S
C4463 C4460 1.539 . S
C4463 H4477 0.958 . S
C4463 H4478 0.961 . S
C4463 H4479 0.960 . S
H4464 C4448 0.931 . S
H4465 C4453 0.929 . S
H4466 C4454 0.960 . S
H4467 C4454 0.962 . S
H4468 C4454 0.960 . S
H4469 C4455 0.961 . S
H4470 C4455 0.961 . S
H4471 C4455 0.961 . S
H4472 C4456 0.931 . S
H4473 C4461 0.930 . S
H4474 C4462 0.956 . S
H4475 C4462 0.961 . S
H4476 C4462 0.961 . S
H4477 C4463 0.958 . S
H4478 C4463 0.961 . S
H4479 C4463 0.960 . S
C4480 C4481 1.391 . S
C4480 C4482 1.394 . S
C4480 H4496 0.931 . S
C4481 C4480 1.391 . S
C4481 C4485 1.376 . S
C4482 C4480 1.394 . S
C4482 C4483 1.369 . S
C4482 C4486 1.531 . S
C4483 C4482 1.369 . S
C4483 C4484 1.410 . S
C4483 C4491 1.503 . S
C4484 C4483 1.410 . S
C4484 C4485 1.392 . S
C4484 C4487 1.511 . S
C4485 C4481 1.376 . S
C4485 C4484 1.392 . S
C4485 H4497 0.929 . S
C4486 C4482 1.531 . S
C4486 H4498 0.960 . S
C4486 H4499 0.962 . S
C4486 H4500 0.960 . S
C4487 C4484 1.511 . S
C4487 H4501 0.961 . S
C4487 H4502 0.961 . S
C4487 H4503 0.961 . S
C4488 C4489 1.370 . S
C4488 C4490 1.363 . S
C4488 H4504 0.931 . S
C4489 C4488 1.370 . S
C4489 C4493 1.408 . S
C4490 C4488 1.363 . S
C4490 C4491 1.370 . S
C4490 C4494 1.524 . S
C4491 C4483 1.503 . S
C4491 C4490 1.370 . S
C4491 C4492 1.403 . S
C4492 C4491 1.403 . S
C4492 C4493 1.404 . S
C4492 C4495 1.539 . S
C4493 C4489 1.408 . S
C4493 C4492 1.404 . S
C4493 H4505 0.930 . S
C4494 C4490 1.524 . S
C4494 H4506 0.956 . S
C4494 H4507 0.961 . S
C4494 H4508 0.961 . S
C4495 C4492 1.539 . S
C4495 H4509 0.958 . S
C4495 H4510 0.961 . S
C4495 H4511 0.960 . S
H4496 C4480 0.931 . S
H4497 C4485 0.929 . S
H4498 C4486 0.960 . S
H4499 C4486 0.962 . S
H4500 C4486 0.960 . S
H4501 C4487 0.961 . S
H4502 C4487 0.961 . S
H4503 C4487 0.961 . S
H4504 C4488 0.931 . S
H4505 C4493 0.930 . S
H4506 C4494 0.956 . S
H4507 C4494 0.961 . S
H4508 C4494 0.961 . S
H4509 C4495 0.958 . S
H4510 C4495 0.961 . S
H4511 C4495 0.960 . S
C4512 C4513 1.391 . S
C4512 C4514 1.394 . S
C4512 H4528 0.931 . S
C4513 C4512 1.391 . S
C4513 C4517 1.376 . S
C4514 C4512 1.394 . S
C4514 C4515 1.369 . S
C4514 C4518 1.531 . S
C4515 C4514 1.369 . S
C4515 C4516 1.410 . S
C4515 C4523 1.503 . S
C4516 C4515 1.410 . S
C4516 C4517 1.392 . S
C4516 C4519 1.511 . S
C4517 C4513 1.376 . S
C4517 C4516 1.392 . S
C4517 H4529 0.929 . S
C4518 C4514 1.531 . S
C4518 H4530 0.960 . S
C4518 H4531 0.962 . S
C4518 H4532 0.960 . S
C4519 C4516 1.511 . S
C4519 H4533 0.961 . S
C4519 H4534 0.961 . S
C4519 H4535 0.961 . S
C4520 C4521 1.370 . S
C4520 C4522 1.363 . S
C4520 H4536 0.931 . S
C4521 C4520 1.370 . S
C4521 C4525 1.408 . S
C4522 C4520 1.363 . S
C4522 C4523 1.370 . S
C4522 C4526 1.524 . S
C4523 C4515 1.503 . S
C4523 C4522 1.370 . S
C4523 C4524 1.403 . S
C4524 C4523 1.403 . S
C4524 C4525 1.404 . S
C4524 C4527 1.539 . S
C4525 C4521 1.408 . S
C4525 C4524 1.404 . S
C4525 H4537 0.930 . S
C4526 C4522 1.524 . S
C4526 H4538 0.956 . S
C4526 H4539 0.961 . S
C4526 H4540 0.961 . S
C4527 C4524 1.539 . S
C4527 H4541 0.958 . S
C4527 H4542 0.961 . S
C4527 H4543 0.960 . S
H4528 C4512 0.931 . S
H4529 C4517 0.929 . S
H4530 C4518 0.960 . S
H4531 C4518 0.962 . S
H4532 C4518 0.960 . S
H4533 C4519 0.961 . S
H4534 C4519 0.961 . S
H4535 C4519 0.961 . S
H4536 C4520 0.931 . S
H4537 C4525 0.930 . S
H4538 C4526 0.956 . S
H4539 C4526 0.961 . S
H4540 C4526 0.961 . S
H4541 C4527 0.958 . S
H4542 C4527 0.961 . S
H4543 C4527 0.960 . S
C4544 C4545 1.391 . S
C4544 C4546 1.394 . S
C4544 H4560 0.931 . S
C4545 C4544 1.391 . S
C4545 C4549 1.376 . S
C4546 C4544 1.394 . S
C4546 C4547 1.369 . S
C4546 C4550 1.531 . S
C4547 C4546 1.369 . S
C4547 C4548 1.410 . S
C4547 C4555 1.503 . S
C4548 C4547 1.410 . S
C4548 C4549 1.392 . S
C4548 C4551 1.511 . S
C4549 C4545 1.376 . S
C4549 C4548 1.392 . S
C4549 H4561 0.929 . S
C4550 C4546 1.531 . S
C4550 H4562 0.960 . S
C4550 H4563 0.962 . S
C4550 H4564 0.960 . S
C4551 C4548 1.511 . S
C4551 H4565 0.961 . S
C4551 H4566 0.961 . S
C4551 H4567 0.961 . S
C4552 C4553 1.370 . S
C4552 C4554 1.363 . S
C4552 H4568 0.931 . S
C4553 C4552 1.370 . S
C4553 C4557 1.408 . S
C4554 C4552 1.363 . S
C4554 C4555 1.370 . S
C4554 C4558 1.524 . S
C4555 C4547 1.503 . S
C4555 C4554 1.370 . S
C4555 C4556 1.403 . S
C4556 C4555 1.403 . S
C4556 C4557 1.404 . S
C4556 C4559 1.539 . S
C4557 C4553 1.408 . S
C4557 C4556 1.404 . S
C4557 H4569 0.930 . S
C4558 C4554 1.524 . S
C4558 H4570 0.956 . S
C4558 H4571 0.961 . S
C4558 H4572 0.961 . S
C4559 C4556 1.539 . S
C4559 H4573 0.958 . S
C4559 H4574 0.961 . S
C4559 H4575 0.960 . S
H4560 C4544 0.931 . S
H4561 C4549 0.929 . S
H4562 C4550 0.960 . S
H4563 C4550 0.962 . S
H4564 C4550 0.960 . S
H4565 C4551 0.961 . S
H4566 C4551 0.961 . S
H4567 C4551 0.961 . S
H4568 C4552 0.931 . S
H4569 C4557 0.930 . S
H4570 C4558 0.956 . S
H4571 C4558 0.961 . S
H4572 C4558 0.961 . S
H4573 C4559 0.958 . S
H4574 C4559 0.961 . S
H4575 C4559 0.960 . S
C4576 C4577 1.391 . S
C4576 C4578 1.394 . S
C4576 H4592 0.931 . S
C4577 C4576 1.391 . S
C4577 C4581 1.376 . S
C4578 C4576 1.394 . S
C4578 C4579 1.369 . S
C4578 C4582 1.531 . S
C4579 C4578 1.369 . S
C4579 C4580 1.410 . S
C4579 C4587 1.503 . S
C4580 C4579 1.410 . S
C4580 C4581 1.392 . S
C4580 C4583 1.511 . S
C4581 C4577 1.376 . S
C4581 C4580 1.392 . S
C4581 H4593 0.929 . S
C4582 C4578 1.531 . S
C4582 H4594 0.960 . S
C4582 H4595 0.962 . S
C4582 H4596 0.960 . S
C4583 C4580 1.511 . S
C4583 H4597 0.961 . S
C4583 H4598 0.961 . S
C4583 H4599 0.961 . S
C4584 C4585 1.370 . S
C4584 C4586 1.363 . S
C4584 H4600 0.931 . S
C4585 C4584 1.370 . S
C4585 C4589 1.408 . S
C4586 C4584 1.363 . S
C4586 C4587 1.370 . S
C4586 C4590 1.524 . S
C4587 C4579 1.503 . S
C4587 C4586 1.370 . S
C4587 C4588 1.403 . S
C4588 C4587 1.403 . S
C4588 C4589 1.404 . S
C4588 C4591 1.539 . S
C4589 C4585 1.408 . S
C4589 C4588 1.404 . S
C4589 H4601 0.930 . S
C4590 C4586 1.524 . S
C4590 H4602 0.956 . S
C4590 H4603 0.961 . S
C4590 H4604 0.961 . S
C4591 C4588 1.539 . S
C4591 H4605 0.958 . S
C4591 H4606 0.961 . S
C4591 H4607 0.960 . S
H4592 C4576 0.931 . S
H4593 C4581 0.929 . S
H4594 C4582 0.960 . S
H4595 C4582 0.962 . S
H4596 C4582 0.960 . S
H4597 C4583 0.961 . S
H4598 C4583 0.961 . S
H4599 C4583 0.961 . S
H4600 C4584 0.931 . S
H4601 C4589 0.930 . S
H4602 C4590 0.956 . S
H4603 C4590 0.961 . S
H4604 C4590 0.961 . S
H4605 C4591 0.958 . S
H4606 C4591 0.961 . S
H4607 C4591 0.960 . S
C4608 C4609 1.391 . S
C4608 C4610 1.394 . S
C4608 H4624 0.931 . S
C4609 C4608 1.391 . S
C4609 C4613 1.376 . S
C4610 C4608 1.394 . S
C4610 C4611 1.369 . S
C4610 C4614 1.531 . S
C4611 C4610 1.369 . S
C4611 C4612 1.410 . S
C4611 C4619 1.503 . S
C4612 C4611 1.410 . S
C4612 C4613 1.392 . S
C4612 C4615 1.511 . S
C4613 C4609 1.376 . S
C4613 C4612 1.392 . S
C4613 H4625 0.929 . S
C4614 C4610 1.531 . S
C4614 H4626 0.960 . S
C4614 H4627 0.962 . S
C4614 H4628 0.960 . S
C4615 C4612 1.511 . S
C4615 H4629 0.961 . S
C4615 H4630 0.961 . S
C4615 H4631 0.961 . S
C4616 C4617 1.370 . S
C4616 C4618 1.363 . S
C4616 H4632 0.931 . S
C4617 C4616 1.370 . S
C4617 C4621 1.408 . S
C4618 C4616 1.363 . S
C4618 C4619 1.370 . S
C4618 C4622 1.524 . S
C4619 C4611 1.503 . S
C4619 C4618 1.370 . S
C4619 C4620 1.403 . S
C4620 C4619 1.403 . S
C4620 C4621 1.404 . S
C4620 C4623 1.539 . S
C4621 C4617 1.408 . S
C4621 C4620 1.404 . S
C4621 H4633 0.930 . S
C4622 C4618 1.524 . S
C4622 H4634 0.956 . S
C4622 H4635 0.961 . S
C4622 H4636 0.961 . S
C4623 C4620 1.539 . S
C4623 H4637 0.958 . S
C4623 H4638 0.961 . S
C4623 H4639 0.960 . S
H4624 C4608 0.931 . S
H4625 C4613 0.929 . S
H4626 C4614 0.960 . S
H4627 C4614 0.962 . S
H4628 C4614 0.960 . S
H4629 C4615 0.961 . S
H4630 C4615 0.961 . S
H4631 C4615 0.961 . S
H4632 C4616 0.931 . S
H4633 C4621 0.930 . S
H4634 C4622 0.956 . S
H4635 C4622 0.961 . S
H4636 C4622 0.961 . S
H4637 C4623 0.958 . S
H4638 C4623 0.961 . S
H4639 C4623 0.960 . S
C4640 C4641 1.391 . S
C4640 C4642 1.394 . S
C4640 H4656 0.931 . S
C4641 C4640 1.391 . S
C4641 C4645 1.376 . S
C4642 C4640 1.394 . S
C4642 C4643 1.369 . S
C4642 C4646 1.531 . S
C4643 C4642 1.369 . S
C4643 C4644 1.410 . S
C4643 C4651 1.503 . S
C4644 C4643 1.410 . S
C4644 C4645 1.392 . S
C4644 C4647 1.511 . S
C4645 C4641 1.376 . S
C4645 C4644 1.392 . S
C4645 H4657 0.929 . S
C4646 C4642 1.531 . S
C4646 H4658 0.960 . S
C4646 H4659 0.962 . S
C4646 H4660 0.960 . S
C4647 C4644 1.511 . S
C4647 H4661 0.961 . S
C4647 H4662 0.961 . S
C4647 H4663 0.961 . S
C4648 C4649 1.370 . S
C4648 C4650 1.363 . S
C4648 H4664 0.931 . S
C4649 C4648 1.370 . S
C4649 C4653 1.408 . S
C4650 C4648 1.363 . S
C4650 C4651 1.370 . S
C4650 C4654 1.524 . S
C4651 C4643 1.503 . S
C4651 C4650 1.370 . S
C4651 C4652 1.403 . S
C4652 C4651 1.403 . S
C4652 C4653 1.404 . S
C4652 C4655 1.539 . S
C4653 C4649 1.408 . S
C4653 C4652 1.404 . S
C4653 H4665 0.930 . S
C4654 C4650 1.524 . S
C4654 H4666 0.956 . S
C4654 H4667 0.961 . S
C4654 H4668 0.961 . S
C4655 C4652 1.539 . S
C4655 H4669 0.958 . S
C4655 H4670 0.961 . S
C4655 H4671 0.960 . S
H4656 C4640 0.931 . S
H4657 C4645 0.929 . S
H4658 C4646 0.960 . S
H4659 C4646 0.962 . S
H4660 C4646 0.960 . S
H4661 C4647 0.961 . S
H4662 C4647 0.961 . S
H4663 C4647 0.961 . S
H4664 C4648 0.931 . S
H4665 C4653 0.930 . S
H4666 C4654 0.956 . S
H4667 C4654 0.961 . S
H4668 C4654 0.961 . S
H4669 C4655 0.958 . S
H4670 C4655 0.961 . S
H4671 C4655 0.960 . S
C4672 C4673 1.391 . S
C4672 C4674 1.394 . S
C4672 H4688 0.931 . S
C4673 C4672 1.391 . S
C4673 C4677 1.376 . S
C4674 C4672 1.394 . S
C4674 C4675 1.369 . S
C4674 C4678 1.531 . S
C4675 C4674 1.369 . S
C4675 C4676 1.410 . S
C4675 C4683 1.503 . S
C4676 C4675 1.410 . S
C4676 C4677 1.392 . S
C4676 C4679 1.511 . S
C4677 C4673 1.376 . S
C4677 C4676 1.392 . S
C4677 H4689 0.929 . S
C4678 C4674 1.531 . S
C4678 H4690 0.960 . S
C4678 H4691 0.962 . S
C4678 H4692 0.960 . S
C4679 C4676 1.511 . S
C4679 H4693 0.961 . S
C4679 H4694 0.961 . S
C4679 H4695 0.961 . S
C4680 C4681 1.370 . S
C4680 C4682 1.363 . S
C4680 H4696 0.931 . S
C4681 C4680 1.370 . S
C4681 C4685 1.408 . S
C4682 C4680 1.363 . S
C4682 C4683 1.370 . S
C4682 C4686 1.524 . S
C4683 C4675 1.503 . S
C4683 C4682 1.370 . S
C4683 C4684 1.403 . S
C4684 C4683 1.403 . S
C4684 C4685 1.404 . S
C4684 C4687 1.539 . S
C4685 C4681 1.408 . S
C4685 C4684 1.404 . S
C4685 H4697 0.930 . S
C4686 C4682 1.524 . S
C4686 H4698 0.956 . S
C4686 H4699 0.961 . S
C4686 H4700 0.961 . S
C4687 C4684 1.539 . S
C4687 H4701 0.958 . S
C4687 H4702 0.961 . S
C4687 H4703 0.960 . S
H4688 C4672 0.931 . S
H4689 C4677 0.929 . S
H4690 C4678 0.960 . S
H4691 C4678 0.962 . S
H4692 C4678 0.960 . S
H4693 C4679 0.961 . S
H4694 C4679 0.961 . S
H4695 C4679 0.961 . S
H4696 C4680 0.931 . S
H4697 C4685 0.930 . S
H4698 C4686 0.956 . S
H4699 C4686 0.961 . S
H4700 C4686 0.961 . S
H4701 C4687 0.958 . S
H4702 C4687 0.961 . S
H4703 C4687 0.960 . S
C4704 C4705 1.391 . S
C4704 C4706 1.394 . S
C4704 H4720 0.931 . S
C4705 C4704 1.391 . S
C4705 C4709 1.376 . S
C4706 C4704 1.394 . S
C4706 C4707 1.369 . S
C4706 C4710 1.531 . S
C4707 C4706 1.369 . S
C4707 C4708 1.410 . S
C4707 C4715 1.503 . S
C4708 C4707 1.410 . S
C4708 C4709 1.392 . S
C4708 C4711 1.511 . S
C4709 C4705 1.376 . S
C4709 C4708 1.392 . S
C4709 H4721 0.929 . S
C4710 C4706 1.531 . S
C4710 H4722 0.960 . S
C4710 H4723 0.962 . S
C4710 H4724 0.960 . S
C4711 C4708 1.511 . S
C4711 H4725 0.961 . S
C4711 H4726 0.961 . S
C4711 H4727 0.961 . S
C4712 C4713 1.370 . S
C4712 C4714 1.363 . S
C4712 H4728 0.931 . S
C4713 C4712 1.370 . S
C4713 C4717 1.408 . S
C4714 C4712 1.363 . S
C4714 C4715 1.370 . S
C4714 C4718 1.524 . S
C4715 C4707 1.503 . S
C4715 C4714 1.370 . S
C4715 C4716 1.403 . S
C4716 C4715 1.403 . S
C4716 C4717 1.404 . S
C4716 C4719 1.539 . S
C4717 C4713 1.408 . S
C4717 C4716 1.404 . S
C4717 H4729 0.930 . S
C4718 C4714 1.524 . S
C4718 H4730 0.956 . S
C4718 H4731 0.961 . S
C4718 H4732 0.961 . S
C4719 C4716 1.539 . S
C4719 H4733 0.958 . S
C4719 H4734 0.961 . S
C4719 H4735 0.960 . S
H4720 C4704 0.931 . S
H4721 C4709 0.929 . S
H4722 C4710 0.960 . S
H4723 C4710 0.962 . S
H4724 C4710 0.960 . S
H4725 C4711 0.961 . S
H4726 C4711 0.961 . S
H4727 C4711 0.961 . S
H4728 C4712 0.931 . S
H4729 C4717 0.930 . S
H4730 C4718 0.956 . S
H4731 C4718 0.961 . S
H4732 C4718 0.961 . S
H4733 C4719 0.958 . S
H4734 C4719 0.961 . S
H4735 C4719 0.960 . S
C4736 C4737 1.391 . S
C4736 C4738 1.394 . S
C4736 H4752 0.931 . S
C4737 C4736 1.391 . S
C4737 C4741 1.376 . S
C4738 C4736 1.394 . S
C4738 C4739 1.369 . S
C4738 C4742 1.531 . S
C4739 C4738 1.369 . S
C4739 C4740 1.410 . S
C4739 C4747 1.503 . S
C4740 C4739 1.410 . S
C4740 C4741 1.392 . S
C4740 C4743 1.511 . S
C4741 C4737 1.376 . S
C4741 C4740 1.392 . S
C4741 H4753 0.929 . S
C4742 C4738 1.531 . S
C4742 H4754 0.960 . S
C4742 H4755 0.962 . S
C4742 H4756 0.960 . S
C4743 C4740 1.511 . S
C4743 H4757 0.961 . S
C4743 H4758 0.961 . S
C4743 H4759 0.961 . S
C4744 C4745 1.370 . S
C4744 C4746 1.363 . S
C4744 H4760 0.931 . S
C4745 C4744 1.370 . S
C4745 C4749 1.408 . S
C4746 C4744 1.363 . S
C4746 C4747 1.370 . S
C4746 C4750 1.524 . S
C4747 C4739 1.503 . S
C4747 C4746 1.370 . S
C4747 C4748 1.403 . S
C4748 C4747 1.403 . S
C4748 C4749 1.404 . S
C4748 C4751 1.539 . S
C4749 C4745 1.408 . S
C4749 C4748 1.404 . S
C4749 H4761 0.930 . S
C4750 C4746 1.524 . S
C4750 H4762 0.956 . S
C4750 H4763 0.961 . S
C4750 H4764 0.961 . S
C4751 C4748 1.539 . S
C4751 H4765 0.958 . S
C4751 H4766 0.961 . S
C4751 H4767 0.960 . S
H4752 C4736 0.931 . S
H4753 C4741 0.929 . S
H4754 C4742 0.960 . S
H4755 C4742 0.962 . S
H4756 C4742 0.960 . S
H4757 C4743 0.961 . S
H4758 C4743 0.961 . S
H4759 C4743 0.961 . S
H4760 C4744 0.931 . S
H4761 C4749 0.930 . S
H4762 C4750 0.956 . S
H4763 C4750 0.961 . S
H4764 C4750 0.961 . S
H4765 C4751 0.958 . S
H4766 C4751 0.961 . S
H4767 C4751 0.960 . S
C4768 C4769 1.391 . S
C4768 C4770 1.394 . S
C4768 H4784 0.931 . S
C4769 C4768 1.391 . S
C4769 C4773 1.376 . S
C4770 C4768 1.394 . S
C4770 C4771 1.369 . S
C4770 C4774 1.531 . S
C4771 C4770 1.369 . S
C4771 C4772 1.410 . S
C4771 C4779 1.503 . S
C4772 C4771 1.410 . S
C4772 C4773 1.392 . S
C4772 C4775 1.511 . S
C4773 C4769 1.376 . S
C4773 C4772 1.392 . S
C4773 H4785 0.929 . S
C4774 C4770 1.531 . S
C4774 H4786 0.960 . S
C4774 H4787 0.962 . S
C4774 H4788 0.960 . S
C4775 C4772 1.511 . S
C4775 H4789 0.961 . S
C4775 H4790 0.961 . S
C4775 H4791 0.961 . S
C4776 C4777 1.370 . S
C4776 C4778 1.363 . S
C4776 H4792 0.931 . S
C4777 C4776 1.370 . S
C4777 C4781 1.408 . S
C4778 C4776 1.363 . S
C4778 C4779 1.370 . S
C4778 C4782 1.524 . S
C4779 C4771 1.503 . S
C4779 C4778 1.370 . S
C4779 C4780 1.403 . S
C4780 C4779 1.403 . S
C4780 C4781 1.404 . S
C4780 C4783 1.539 . S
C4781 C4777 1.408 . S
C4781 C4780 1.404 . S
C4781 H4793 0.930 . S
C4782 C4778 1.524 . S
C4782 H4794 0.956 . S
C4782 H4795 0.961 . S
C4782 H4796 0.961 . S
C4783 C4780 1.539 . S
C4783 H4797 0.958 . S
C4783 H4798 0.961 . S
C4783 H4799 0.960 . S
H4784 C4768 0.931 . S
H4785 C4773 0.929 . S
H4786 C4774 0.960 . S
H4787 C4774 0.962 . S
H4788 C4774 0.960 . S
H4789 C4775 0.961 . S
H4790 C4775 0.961 . S
H4791 C4775 0.961 . S
H4792 C4776 0.931 . S
H4793 C4781 0.930 . S
H4794 C4782 0.956 . S
H4795 C4782 0.961 . S
H4796 C4782 0.961 . S
H4797 C4783 0.958 . S
H4798 C4783 0.961 . S
H4799 C4783 0.960 . S
C4800 C4801 1.391 . S
C4800 C4802 1.394 . S
C4800 H4816 0.931 . S
C4801 C4800 1.391 . S
C4801 C4805 1.376 . S
C4802 C4800 1.394 . S
C4802 C4803 1.369 . S
C4802 C4806 1.531 . S
C4803 C4802 1.369 . S
C4803 C4804 1.410 . S
C4803 C4811 1.503 . S
C4804 C4803 1.410 . S
C4804 C4805 1.392 . S
C4804 C4807 1.511 . S
C4805 C4801 1.376 . S
C4805 C4804 1.392 . S
C4805 H4817 0.929 . S
C4806 C4802 1.531 . S
C4806 H4818 0.960 . S
C4806 H4819 0.962 . S
C4806 H4820 0.960 . S
C4807 C4804 1.511 . S
C4807 H4821 0.961 . S
C4807 H4822 0.961 . S
C4807 H4823 0.961 . S
C4808 C4809 1.370 . S
C4808 C4810 1.363 . S
C4808 H4824 0.931 . S
C4809 C4808 1.370 . S
C4809 C4813 1.408 . S
C4810 C4808 1.363 . S
C4810 C4811 1.370 . S
C4810 C4814 1.524 . S
C4811 C4803 1.503 . S
C4811 C4810 1.370 . S
C4811 C4812 1.403 . S
C4812 C4811 1.403 . S
C4812 C4813 1.404 . S
C4812 C4815 1.539 . S
C4813 C4809 1.408 . S
C4813 C4812 1.404 . S
C4813 H4825 0.930 . S
C4814 C4810 1.524 . S
C4814 H4826 0.956 . S
C4814 H4827 0.961 . S
C4814 H4828 0.961 . S
C4815 C4812 1.539 . S
C4815 H4829 0.958 . S
C4815 H4830 0.961 . S
C4815 H4831 0.960 . S
H4816 C4800 0.931 . S
H4817 C4805 0.929 . S
H4818 C4806 0.960 . S
H4819 C4806 0.962 . S
H4820 C4806 0.960 . S
H4821 C4807 0.961 . S
H4822 C4807 0.961 . S
H4823 C4807 0.961 . S
H4824 C4808 0.931 . S
H4825 C4813 0.930 . S
H4826 C4814 0.956 . S
H4827 C4814 0.961 . S
H4828 C4814 0.961 . S
H4829 C4815 0.958 . S
H4830 C4815 0.961 . S
H4831 C4815 0.960 . S
C4832 C4833 1.391 . S
C4832 C4834 1.394 . S
C4832 H4848 0.931 . S
C4833 C4832 1.391 . S
C4833 C4837 1.376 . S
C4834 C4832 1.394 . S
C4834 C4835 1.369 . S
C4834 C4838 1.531 . S
C4835 C4834 1.369 . S
C4835 C4836 1.410 . S
C4835 C4843 1.503 . S
C4836 C4835 1.410 . S
C4836 C4837 1.392 . S
C4836 C4839 1.511 . S
C4837 C4833 1.376 . S
C4837 C4836 1.392 . S
C4837 H4849 0.929 . S
C4838 C4834 1.531 . S
C4838 H4850 0.960 . S
C4838 H4851 0.962 . S
C4838 H4852 0.960 . S
C4839 C4836 1.511 . S
C4839 H4853 0.961 . S
C4839 H4854 0.961 . S
C4839 H4855 0.961 . S
C4840 C4841 1.370 . S
C4840 C4842 1.363 . S
C4840 H4856 0.931 . S
C4841 C4840 1.370 . S
C4841 C4845 1.408 . S
C4842 C4840 1.363 . S
C4842 C4843 1.370 . S
C4842 C4846 1.524 . S
C4843 C4835 1.503 . S
C4843 C4842 1.370 . S
C4843 C4844 1.403 . S
C4844 C4843 1.403 . S
C4844 C4845 1.404 . S
C4844 C4847 1.539 . S
C4845 C4841 1.408 . S
C4845 C4844 1.404 . S
C4845 H4857 0.930 . S
C4846 C4842 1.524 . S
C4846 H4858 0.956 . S
C4846 H4859 0.961 . S
C4846 H4860 0.961 . S
C4847 C4844 1.539 . S
C4847 H4861 0.958 . S
C4847 H4862 0.961 . S
C4847 H4863 0.960 . S
H4848 C4832 0.931 . S
H4849 C4837 0.929 . S
H4850 C4838 0.960 . S
H4851 C4838 0.962 . S
H4852 C4838 0.960 . S
H4853 C4839 0.961 . S
H4854 C4839 0.961 . S
H4855 C4839 0.961 . S
H4856 C4840 0.931 . S
H4857 C4845 0.930 . S
H4858 C4846 0.956 . S
H4859 C4846 0.961 . S
H4860 C4846 0.961 . S
H4861 C4847 0.958 . S
H4862 C4847 0.961 . S
H4863 C4847 0.960 . S
C2817 C812 0.835 . S
C2825 C20 0.806 . S
C2849 C117 0.845 . S
C2857 C2308 0.794 . S
C2881 C1025 0.799 . S
C2889 C196 0.767 . S
C2913 C2132 0.824 . S
C2921 C284 0.811 . S
C2945 C401 0.831 . S
C2953 C1377 0.777 . S
C2977 C2521 0.730 . S
C2985 C497 0.786 . S
C3009 C585 0.730 . S
C3017 C1201 0.783 . S
C3041 C2689 0.845 . S
C3049 C665 0.794 . S
C3073 C108 0.757 . S
C3081 C724 0.787 . S
C3105 C849 0.827 . S
C3113 C1613 0.777 . S
C3137 C293 0.816 . S
C3145 C937 0.821 . S
C3169 C988 0.777 . S
C3177 C1428 0.780 . S
C3201 C1076 0.791 . S
C3209 C673 0.823 . S
C3233 C1809 0.775 . S
C3241 C1164 0.782 . S
C3265 C1252 0.744 . S
C3273 C489 0.805 . S
C3297 C1985 0.781 . S
C3305 C1340 0.823 . S
C3329 C2257 0.839 . S
C3337 C1437 0.804 . S
C3361 C900 0.845 . S
C3369 C1516 0.796 . S
C3393 C1604 0.824 . S
C3401 C2396 0.810 . S
C3425 C761 0.743 . S
C3433 C1692 0.770 . S
C3457 C2785 0.807 . S
C3465 C1817 0.812 . S
C3489 C1905 0.791 . S
C3497 C1113 0.812 . S
C3521 C2609 0.774 . S
C3529 C1993 0.809 . S
C3553 C1289 0.819 . S
C3561 C2073 0.773 . S
C3585 C1525 0.847 . S
C3593 C2169 0.810 . S
C3617 C2220 0.820 . S
C3625 C205 0.776 . S
C3649 C2345 0.764 . S
C3657 C1701 0.820 . S
C3681 C2433 0.833 . S
C3689 C29 0.817 . S
C3713 C2081 0.802 . S
C3721 C2484 0.777 . S
C3745 C2572 0.806 . S
C3753 C409 0.824 . S
C3777 C2669 0.816 . S
C3785 C1897 0.775 . S
C3809 C2748 0.755 . S
C3817 C577 0.790 . S
C3841 C2161 1.092 . S
C3849 C57 1.098 . S
C3873 C137 1.092 . S
C3881 C841 1.092 . S
C3905 C233 1.099 . S
C3913 C2337 1.095 . S
C3937 C321 1.117 . S
C3945 C997 1.086 . S
C3969 C381 1.070 . S
C3977 C2493 1.106 . S
C4001 C460 1.095 . S
C4009 C1173 1.096 . S
C4033 C2660 1.064 . S
C4041 C548 1.105 . S
C4065 C645 1.075 . S
C4073 C1349 1.099 . S
C4097 C733 1.122 . S
C4105 C1457 1.083 . S
C4129 C929 1.063 . S
C4137 C1641 1.107 . S
C4161 C1780 1.100 . S
C4169 C1085 1.089 . S
C4193 C1956 1.078 . S
C4201 C1261 1.103 . S
C4225 C1553 1.119 . S
C4233 C2229 1.082 . S
C4257 C2425 1.120 . S
C4265 C1729 1.084 . S
C4289 C1868 1.121 . S
C4297 C2581 1.083 . S
C4321 C2757 1.120 . S
C4329 C2053 1.082 . S
C4353 C1877 1.830 . S
C4361 C49 1.866 . S
C4385 C1965 1.832 . S
C4393 C145 1.867 . S
C4417 C225 1.862 . S
C4425 C2044 1.858 . S
C4449 C1789 1.838 . S
C4457 C313 1.859 . S
C4481 C1721 1.875 . S
C4489 C372 1.848 . S
C4513 C1465 1.829 . S
C4521 C469 1.866 . S
C4545 C557 1.856 . S
C4553 C1545 1.852 . S
C4577 C1633 1.875 . S
C4585 C636 1.851 . S
C4609 C2601 1.861 . S
C4617 C753 1.855 . S
C4641 C2697 1.830 . S
C4649 C821 1.869 . S
C4673 C2777 1.840 . S
C4681 C909 1.866 . S
C4705 C1017 1.854 . S
C4713 C2513 1.858 . S
C4737 C2405 1.877 . S
C4745 C1105 1.849 . S
C4769 C2141 1.833 . S
C4777 C1193 1.867 . S
C4801 C2249 1.875 . S
C4809 C1281 1.851 . S
C4833 C2317 1.879 . S
C4841 C1369 1.849 . S
