# Generated by pormake.
# Topology uni, (4)-cn, num edge types: 1
# Building blocks:
#     Node 0, Type 0, BuildingBlock: KUFVIS_clean_sbu_0, # of connection points: 4
#     Node 1, Type 0, BuildingBlock: KUFVIS_clean_sbu_0, # of connection points: 4
#     Node 2, Type 0, BuildingBlock: KUFVIS_clean_sbu_0, # of connection points: 4
#     Node 3, Type 0, BuildingBlock: KUFVIS_clean_sbu_0, # of connection points: 4
#     Node 4, Type 0, BuildingBlock: KUFVIS_clean_sbu_0, # of connection points: 4
#     Node 5, Type 0, BuildingBlock: KUFVIS_clean_sbu_0, # of connection points: 4
#     Edge 6, Type (0, 0), BuildingBlock: FUNLAD_clean_linker_1, # of connection points: 2
#     Edge 7, Type (0, 0), BuildingBlock: FUNLAD_clean_linker_1, # of connection points: 2
#     Edge 8, Type (0, 0), BuildingBlock: FUNLAD_clean_linker_1, # of connection points: 2
#     Edge 9, Type (0, 0), BuildingBlock: FUNLAD_clean_linker_1, # of connection points: 2
#     Edge 10, Type (0, 0), BuildingBlock: FUNLAD_clean_linker_1, # of connection points: 2
#     Edge 11, Type (0, 0), BuildingBlock: FUNLAD_clean_linker_1, # of connection points: 2
#     Edge 12, Type (0, 0), BuildingBlock: FUNLAD_clean_linker_1, # of connection points: 2
#     Edge 13, Type (0, 0), BuildingBlock: FUNLAD_clean_linker_1, # of connection points: 2
#     Edge 14, Type (0, 0), BuildingBlock: FUNLAD_clean_linker_1, # of connection points: 2
#     Edge 15, Type (0, 0), BuildingBlock: FUNLAD_clean_linker_1, # of connection points: 2
#     Edge 16, Type (0, 0), BuildingBlock: FUNLAD_clean_linker_1, # of connection points: 2
#     Edge 17, Type (0, 0), BuildingBlock: FUNLAD_clean_linker_1, # of connection points: 2
# Relax obj value: 0.055
# Max RMSD: 0.074
# Mean RMSD: 0.074
data_MOF--net-uni--node1-KUFVIS_clean_sbu_0--edge1-FUNLAD_clean_linker_1
_symmetry_space_group_name_H-M    P1
_symmetry_Int_Tables_number       1
_symmetry_cell_setting            triclinic
loop_
_symmetry_equiv_pos_as_xyz
'x, y, z'
_cell_length_a     39.618015
_cell_length_b     39.653356
_cell_length_c     23.949336
_cell_angle_alpha  90.195508
_cell_angle_beta   89.506071
_cell_angle_gamma 119.6657
loop_
_atom_site_label
_atom_site_type_symbol
_atom_site_fract_x
_atom_site_fract_y
_atom_site_fract_z
_atom_type_partial_charge
Mn0 Mn 0.65698 0.03156 0.08047 0.0
Mn1 Mn 0.66107 0.11777 0.10554 0.0
C2 C 0.61166 0.03434 0.13974 0.0
C3 C 0.67548 0.98532 0.10152 0.0
C4 C 0.62841 0.07183 0.99916 0.0
O5 O 0.71153 0.07123 0.05302 0.0
O6 O 0.71167 0.12659 0.07526 0.0
C7 C 0.71768 0.14429 0.19791 0.0
N8 N 0.68181 0.1347 0.17856 0.0
C9 C 0.66324 0.14944 0.26731 0.0
C10 C 0.70004 0.1596 0.28814 0.0
C11 C 0.72733 0.15689 0.25333 0.0
C12 C 0.6552 0.13681 0.21188 0.0
H13 H 0.73879 0.14238 0.17123 0.0
C14 C 0.72805 0.10822 0.05525 0.0
O15 O 0.66309 0.98728 0.05229 0.0
O16 O 0.67855 1.01104 0.13775 0.0
N17 N 0.6144 0.11428 0.13496 0.0
C18 C 0.58099 0.10544 0.10755 0.0
C19 C 0.55051 0.10634 0.13669 0.0
C20 C 0.55505 0.11719 0.19323 0.0
C21 C 0.59029 0.12772 0.21986 0.0
C22 C 0.61958 0.12617 0.18875 0.0
H23 H 0.5774 0.09726 0.06404 0.0
O24 O 0.60478 1.00166 0.11769 0.0
O25 O 0.64514 0.06427 0.12746 0.0
O26 O 0.63289 0.04299 0.01204 0.0
O27 O 0.63844 0.10136 0.03055 0.0
C28 C 0.59764 0.1401 0.27586 0.0
C29 C 0.63416 0.15115 0.29947 0.0
H30 H 0.70761 0.16939 0.33084 0.0
H31 H 0.75576 0.16461 0.26914 0.0
H32 H 0.52361 0.0987 0.11563 0.0
H33 H 0.53147 0.1178 0.21557 0.0
H34 H 0.57547 0.14139 0.30107 0.0
H35 H 0.63949 0.16068 0.34254 0.0
Mn36 Mn 0.66687 0.65282 0.23155 0.0
Mn37 Mn 0.58492 0.65769 0.25551 0.0
C38 C 0.62269 0.61414 0.29998 0.0
C39 C 0.73234 0.672 0.24532 0.0
C40 C 0.59574 0.61678 0.15554 0.0
O41 O 0.67901 0.70433 0.19447 0.0
O42 O 0.62483 0.70631 0.21903 0.0
C43 C 0.61572 0.72045 0.33985 0.0
N44 N 0.58932 0.68351 0.32485 0.0
C45 C 0.55812 0.67084 0.41505 0.0
C46 C 0.5848 0.70885 0.43131 0.0
C47 C 0.61372 0.73374 0.39354 0.0
C48 C 0.56126 0.65936 0.36079 0.0
H49 H 0.63821 0.73957 0.31112 0.0
C50 C 0.65865 0.7213 0.19632 0.0
O51 O 0.71443 0.65512 0.19988 0.0
O52 O 0.71283 0.67956 0.28241 0.0
N53 N 0.54394 0.61271 0.29116 0.0
C54 C 0.52173 0.57636 0.26995 0.0
C55 C 0.49162 0.54781 0.30264 0.0
C56 C 0.4849 0.55677 0.35694 0.0
C57 C 0.50796 0.59444 0.37772 0.0
C58 C 0.53682 0.62202 0.34261 0.0
H59 H 0.52692 0.56916 0.22843 0.0
O60 O 0.64687 0.60452 0.27827 0.0
O61 O 0.62506 0.6459 0.28107 0.0
O62 O 0.62908 0.62246 0.16925 0.0
O63 O 0.57687 0.62957 0.18368 0.0
C64 C 0.50398 0.6055 0.43227 0.0
C65 C 0.52904 0.64366 0.45092 0.0
H66 H 0.58358 0.7191 0.47285 0.0
H67 H 0.63455 0.76304 0.4059 0.0
H68 H 0.47385 0.51885 0.28619 0.0
H69 H 0.46218 0.53441 0.38244 0.0
H70 H 0.48205 0.58474 0.46045 0.0
H71 H 0.52598 0.65168 0.49316 0.0
Mn72 Mn 0.0529 0.66793 0.3997 0.0
Mn73 Mn 0.96711 0.58544 0.42068 0.0
C74 C 0.04803 0.62225 0.46442 0.0
C75 C 0.0986 0.73273 0.41758 0.0
C76 C 1.0186 0.59833 0.31965 0.0
O77 O 1.01336 0.68148 0.36719 0.0
O78 O 0.95788 0.62587 0.38674 0.0
C79 C 0.93427 0.61461 0.50735 0.0
N80 N 0.94538 0.58864 0.49075 0.0
C81 C 0.92717 0.55615 0.57971 0.0
C82 C 0.91513 0.5823 0.59754 0.0
C83 C 0.9187 0.61164 0.56118 0.0
C84 C 0.94191 0.56018 0.52531 0.0
H85 H 0.93744 0.63751 0.47983 0.0
C86 C 0.97628 0.66063 0.36753 0.0
O87 O 0.09774 0.71633 0.37039 0.0
O88 O 0.07177 0.71211 0.45406 0.0
N89 N 0.97175 0.54412 0.45407 0.0
C90 C 0.98674 0.52267 0.4316 0.0
C91 C 0.98604 0.49249 0.46297 0.0
C92 C 0.97028 0.48488 0.51725 0.0
C93 C 0.95483 0.5072 0.53938 0.0
C94 C 0.95541 0.53625 0.5056 0.0
H95 H 0.99924 0.52858 0.39011 0.0
O96 O 0.0815 0.64659 0.44265 0.0
O97 O 1.01854 0.62508 0.44724 0.0
O98 O 0.04547 0.63183 0.33399 0.0
O99 O 0.98751 0.57859 0.34818 0.0
C100 C 0.93969 0.50234 0.59404 0.0
C101 C 0.92585 0.52677 0.61418 0.0
H102 H 0.90348 0.58035 0.63923 0.0
H103 H 0.9097 0.63208 0.57474 0.0
H104 H 0.99799 0.47537 0.44556 0.0
H105 H 0.97054 0.46209 0.54173 0.0
H106 H 0.93903 0.48022 0.6212 0.0
H107 H 0.91468 0.52303 0.6565 0.0
Mn108 Mn 0.42383 0.04272 0.58509 0.0
Mn109 Mn 0.4155 0.95454 0.60621 0.0
C110 C 0.4647 0.03571 0.6471 0.0
C111 C 0.40715 0.09006 0.6086 0.0
C112 C 0.45328 1.00323 0.50283 0.0
O113 O 0.36964 1.00532 0.55481 0.0
O114 O 0.3664 0.9482 0.57489 0.0
C115 C 0.35591 0.92636 0.69598 0.0
N116 N 0.39196 0.93511 0.67756 0.0
C117 C 0.40682 0.9167 0.76568 0.0
C118 C 0.36974 0.90723 0.78547 0.0
C119 C 0.34418 0.91207 0.75043 0.0
C120 C 0.41669 0.9303 0.71077 0.0
H121 H 0.33629 0.93035 0.66937 0.0
C122 C 0.35164 0.96821 0.55586 0.0
O123 O 0.42108 0.08939 0.55956 0.0
O124 O 0.4015 0.06253 0.64289 0.0
N125 N 0.46085 0.95647 0.63705 0.0
C126 C 0.49636 0.9692 0.61279 0.0
C127 C 0.52559 0.96713 0.64273 0.0
C128 C 0.51813 0.95227 0.69736 0.0
C129 C 0.48131 0.93919 0.72137 0.0
C130 C 0.45303 0.94117 0.68907 0.0
H131 H 0.50241 0.98103 0.57102 0.0
O132 O 0.47477 0.06936 0.62536 0.0
O133 O 0.43137 1.00734 0.63145 0.0
O134 O 0.44967 0.03245 0.51685 0.0
O135 O 0.44083 0.97262 0.53254 0.0
C136 C 0.47186 0.92517 0.77652 0.0
C137 C 0.43463 0.91389 0.79864 0.0
H138 H 0.36072 0.89655 0.82762 0.0
H139 H 0.31557 0.90498 0.76547 0.0
H140 H 0.55396 0.97734 0.62395 0.0
H141 H 0.54101 0.95143 0.72069 0.0
H142 H 0.49318 0.92343 0.80255 0.0
H143 H 0.42785 0.90355 0.8413 0.0
Mn144 Mn 0.41408 0.42323 0.73087 0.0
Mn145 Mn 0.49671 0.42258 0.76275 0.0
C146 C 0.4588 0.47121 0.78914 0.0
C147 C 0.34892 0.40314 0.75175 0.0
C148 C 0.48423 0.45175 0.65193 0.0
O149 O 0.40207 0.36892 0.70711 0.0
O150 O 0.4568 0.37048 0.73552 0.0
C151 C 0.46638 0.36944 0.85973 0.0
N152 N 0.4934 0.40388 0.83709 0.0
C153 C 0.52906 0.42352 0.92301 0.0
C154 C 0.50174 0.38815 0.94723 0.0
C155 C 0.47019 0.36106 0.9155 0.0
C156 C 0.52366 0.43029 0.86735 0.0
H157 H 0.44211 0.3486 0.8354 0.0
C158 C 0.42294 0.35301 0.71374 0.0
O159 O 0.36293 0.41453 0.70173 0.0
O160 O 0.37204 0.40176 0.7883 0.0
N161 N 0.53883 0.47033 0.78943 0.0
C162 C 0.56238 0.50316 0.75991 0.0
C163 C 0.59621 0.5326 0.78475 0.0
C164 C 0.60528 0.52816 0.83987 0.0
C165 C 0.58058 0.49416 0.86946 0.0
C166 C 0.54806 0.46527 0.8418 0.0
H167 H 0.55584 0.50658 0.71733 0.0
O168 O 0.43321 0.47593 0.76235 0.0
O169 O 0.45759 0.43795 0.78148 0.0
O170 O 0.4503 0.44671 0.66232 0.0
O171 O 0.50327 0.44298 0.68603 0.0
C172 C 0.58706 0.48771 0.92519 0.0
C173 C 0.5611 0.45256 0.95212 0.0
H174 H 0.50454 0.3816 0.99025 0.0
H175 H 0.44888 0.33379 0.93398 0.0
H176 H 0.61511 0.55876 0.76163 0.0
H177 H 0.63106 0.55119 0.85921 0.0
H178 H 0.61176 0.50969 0.94784 0.0
H179 H 0.56608 0.44815 0.99521 0.0
Mn180 Mn 0.02647 0.41227 0.88963 0.0
Mn181 Mn 0.11108 0.4907 0.92774 0.0
C182 C 0.02473 0.45591 0.95293 0.0
C183 C 0.97877 0.34724 0.90195 0.0
C184 C 0.07134 0.48537 0.81772 0.0
O185 O 0.06699 0.39823 0.86278 0.0
O186 O 0.12098 0.45034 0.8942 0.0
C187 C 0.13025 0.45294 0.01887 0.0
N188 N 0.12505 0.48249 1.00048 0.0
C189 C 0.14173 0.51369 0.09025 0.0
C190 C 0.14751 0.48371 0.11013 0.0
C191 C 0.14161 0.45314 0.07432 0.0
C192 C 0.13032 0.51185 0.03466 0.0
H193 H 0.12567 0.4294 0.99142 0.0
C194 C 0.10366 0.41745 0.86941 0.0
O195 O 0.98354 0.36475 0.85445 0.0
O196 O 1.00267 0.36689 0.94152 0.0
N197 N 0.10809 0.53321 0.96051 0.0
C198 C 0.1015 0.55995 0.93463 0.0
C199 C 0.1078 0.59336 0.96379 0.0
C200 C 0.12026 0.59866 0.01949 0.0
C201 C 0.12717 0.57093 0.04509 0.0
C202 C 0.12195 0.53908 0.01317 0.0
H203 H 0.09219 0.55621 0.89171 0.0
O204 O 0.99449 0.43253 0.92434 0.0
O205 O 0.05592 0.45303 0.94444 0.0
O206 O 0.04186 0.45173 0.82544 0.0
O207 O 0.09878 0.50219 0.85287 0.0
C208 C 0.13933 0.57379 0.10088 0.0
C209 C 0.14624 0.54499 0.1236 0.0
H210 H 0.15619 0.48372 0.1529 0.0
H211 H 0.14581 0.4298 0.08944 0.0
H212 H 0.1026 0.61473 0.94361 0.0
H213 H 0.12431 0.62405 0.04221 0.0
H214 H 0.14323 0.59789 0.12677 0.0
H215 H 0.15507 0.54722 0.16676 0.0
H216 H 0.56564 0.04559 0.17205 0.0
C217 C 0.58528 0.03516 0.18278 0.0
H218 H 0.60404 1.01123 0.24499 0.0
H219 H 0.5629 0.07624 0.45749 0.0
H220 H 0.63266 0.10384 0.4646 0.0
H221 H 0.67046 0.0966 0.38784 0.0
H222 H 0.63899 0.06222 0.30339 0.0
C223 C 0.58444 0.02206 0.23471 0.0
C224 C 0.56093 0.02614 0.28086 0.0
C225 C 0.57997 0.04697 0.32987 0.0
C226 C 0.55821 0.05135 0.37419 0.0
C227 C 0.57799 0.07207 0.42262 0.0
C228 C 0.61804 0.08806 0.42729 0.0
C229 C 0.6393 0.0839 0.38414 0.0
C230 C 0.62073 0.06383 0.33587 0.0
H231 H 0.47262 0.97711 0.43774 0.0
C232 C 0.47344 1.00393 0.45015 0.0
H233 H 0.49752 0.06362 0.43173 0.0
H234 H 0.51364 0.97891 0.1976 0.0
H235 H 0.44427 0.95302 0.19005 0.0
H236 H 0.40768 0.96524 0.26359 0.0
H237 H 0.44035 1.00289 0.34579 0.0
C238 C 0.49436 0.0359 0.41895 0.0
C239 C 0.51737 0.03464 0.36995 0.0
C240 C 0.49836 0.01436 0.32077 0.0
C241 C 0.5199 1.00918 0.27685 0.0
C242 C 0.49938 0.98595 0.23055 0.0
C243 C 0.45936 0.97042 0.22601 0.0
C244 C 0.43873 0.97715 0.26753 0.0
C245 C 0.45782 0.99868 0.31456 0.0
H246 H 0.59135 0.61087 0.37765 0.0
C247 C 0.59942 0.59435 0.35012 0.0
H248 H 0.59793 0.54103 0.33799 0.0
H249 H 0.54379 0.54903 0.60453 0.0
H250 H 0.60705 0.60631 0.61515 0.0
H251 H 0.65295 0.632 0.53568 0.0
H252 H 0.63548 0.60119 0.44498 0.0
C253 C 0.58993 0.55806 0.36501 0.0
C254 C 0.56509 0.53922 0.41553 0.0
C255 C 0.57679 0.55624 0.46929 0.0
C256 C 0.55137 0.53991 0.51607 0.0
C257 C 0.56269 0.55911 0.56825 0.0
C258 C 0.59883 0.59217 0.57486 0.0
C259 C 0.62457 0.60675 0.53007 0.0
C260 C 0.61394 0.58902 0.47795 0.0
H261 H 0.53275 0.47231 0.59209 0.0
C262 C 0.50441 0.46982 0.5989 0.0
H263 H 0.46274 0.48253 0.56524 0.0
H264 H 0.53358 0.49828 0.31932 0.0
H265 H 0.47139 0.43966 0.31016 0.0
H266 H 0.42863 0.41023 0.39207 0.0
H267 H 0.4479 0.43936 0.48385 0.0
C268 C 0.49119 0.48504 0.56055 0.0
C269 C 0.51542 0.50502 0.51016 0.0
C270 C 0.50387 0.48778 0.45675 0.0
C271 C 0.52874 0.50472 0.40951 0.0
C272 C 0.51624 0.48663 0.35679 0.0
C273 C 0.48048 0.45295 0.35085 0.0
C274 C 0.45638 0.43641 0.39696 0.0
C275 C 0.46781 0.45343 0.44939 0.0
H276 H 0.10047 0.53557 0.76121 0.0
C277 C 0.07465 0.50725 0.76617 0.0
H278 H 0.02179 0.46601 0.72929 0.0
H279 H 0.07635 0.638 0.60736 0.0
H280 H 0.06381 0.65746 0.69763 0.0
H281 H 0.04408 0.613 0.77832 0.0
H282 H 0.03781 0.54925 0.76942 0.0
C283 C 0.04739 0.4946 0.7263 0.0
C284 C 0.05274 0.51878 0.67573 0.0
C285 C 0.0541 0.55511 0.68084 0.0
C286 C 0.06293 0.57972 0.63343 0.0
C287 C 0.06733 0.61714 0.64101 0.0
C288 C 0.06064 0.62888 0.69282 0.0
C289 C 0.04974 0.60394 0.7383 0.0
C290 C 0.04653 0.56751 0.73267 0.0
H291 H 0.02062 0.59072 0.54181 0.0
C292 C 0.04518 0.59911 0.51409 0.0
H293 H 0.09778 0.59883 0.50186 0.0
H294 H 0.051 0.45057 0.65098 0.0
H295 H 0.06009 0.42954 0.55965 0.0
H296 H 0.07273 0.47094 0.4767 0.0
H297 H 0.07647 0.5336 0.4845 0.0
C298 C 0.07273 0.5906 0.5289 0.0
C299 C 0.06771 0.56686 0.57998 0.0
C300 C 0.06581 0.5303 0.57479 0.0
C301 C 0.05819 0.50623 0.62261 0.0
C302 C 0.05647 0.4699 0.61607 0.0
C303 C 0.06166 0.45747 0.56388 0.0
C304 C 0.06883 0.4808 0.5172 0.0
C305 C 0.07098 0.5168 0.52233 0.0
H306 H 0.60746 0.09735 0.93644 0.0
C307 C 0.60977 0.07175 0.94594 0.0
H308 H 0.59672 0.01597 0.91785 0.0
H309 H 0.47971 0.06753 0.78642 0.0
H310 H 0.45008 0.06152 0.87734 0.0
H311 H 0.47548 0.04517 0.96047 0.0
H312 H 0.5313 0.03572 0.95319 0.0
C313 C 0.59421 0.04163 0.9103 0.0
C314 C 0.57415 0.04353 0.85881 0.0
C315 C 0.54002 0.0466 0.86315 0.0
C316 C 0.5238 0.05346 0.81461 0.0
C317 C 0.49181 0.05984 0.82116 0.0
C318 C 0.47474 0.05691 0.87331 0.0
C319 C 0.48915 0.04791 0.92013 0.0
C320 C 0.52142 0.04285 0.9154 0.0
H321 H 0.46866 1.00861 0.72475 0.0
C322 C 0.48513 0.03223 0.69599 0.0
H323 H 0.53879 0.0829 0.68134 0.0
H324 H 0.63792 0.03628 0.83535 0.0
H325 H 0.66515 0.03794 0.74359 0.0
H326 H 0.63554 0.04712 0.65897 0.0
H327 H 0.57868 0.05486 0.66548 0.0
C328 C 0.52161 0.05882 0.70944 0.0
C329 C 0.54007 0.05446 0.76109 0.0
C330 C 0.57346 0.05011 0.75663 0.0
C331 C 0.59041 0.04452 0.80547 0.0
C332 C 0.62379 0.04041 0.79967 0.0
C333 C 0.63972 0.04132 0.74725 0.0
C334 C 0.62308 0.04653 0.69961 0.0
C335 C 0.59043 0.05099 0.70399 0.0
H336 H 0.59611 0.58424 0.08103 0.0
C337 C 0.57887 0.59418 0.10403 0.0
H338 H 0.52545 0.59398 0.10734 0.0
H339 H 0.54944 0.55245 0.84325 0.0
H340 H 0.60293 0.61772 0.83943 0.0
H341 H 0.62194 0.6597 0.92271 0.0
H342 H 0.58775 0.63563 0.01054 0.0
C343 C 0.54385 0.58559 0.08425 0.0
C344 C 0.52848 0.56225 0.03209 0.0
C345 C 0.54701 0.57727 0.97995 0.0
C346 C 0.53443 0.55364 0.9311 0.0
C347 C 0.55589 0.56902 0.88106 0.0
C348 C 0.58714 0.6067 0.87832 0.0
C349 C 0.59796 0.63023 0.9252 0.0
C350 C 0.57823 0.61588 0.97548 0.0
H351 H 0.48438 0.52836 0.82886 0.0
C352 C 0.48039 0.49938 0.83383 0.0
H353 H 0.47851 0.45872 0.89003 0.0
H354 H 0.48616 0.52509 0.12516 0.0
H355 H 0.42922 0.46115 0.12909 0.0
H356 H 0.40334 0.42207 0.04369 0.0
H357 H 0.43433 0.44624 0.95432 0.0
C358 C 0.48768 0.48903 0.88365 0.0
C359 C 0.5015 0.51549 0.93369 0.0
C360 C 0.48174 0.50145 0.98576 0.0
C361 C 0.49567 0.52456 0.0349 0.0
C362 C 0.47638 0.50911 0.08644 0.0
C363 C 0.44364 0.4724 0.08936 0.0
C364 C 0.42916 0.45037 0.04133 0.0
C365 C 0.44767 0.46458 0.99012 0.0
H366 H 0.99471 0.48328 0.99358 0.0
C367 C 1.01889 0.47792 0.99844 0.0
H368 H 0.05636 0.47404 0.05456 0.0
H369 H 0.99425 0.59045 0.1733 0.0
H370 H 1.00452 0.62345 0.08481 0.0
H371 H 0.02634 0.60217 1.00198 0.0
H372 H 0.03674 0.54758 1.0069 0.0
C373 C 0.0363 0.48466 0.04828 0.0
C374 C 0.02497 0.5003 0.09824 0.0
C375 C 0.02086 0.53409 0.09506 0.0
C376 C 1.0107 0.54812 0.14371 0.0
C377 C 1.00399 0.57992 0.13852 0.0
C378 C 1.00944 0.59899 0.08782 0.0
C379 C 0.02149 0.58688 0.04121 0.0
C380 C 0.02709 0.55496 0.0446 0.0
H381 H 0.05155 0.59938 0.24426 0.0
C382 C 0.02474 0.58185 0.2675 0.0
H383 H 0.9728 0.5279 0.27172 0.0
H384 H 0.02504 0.43205 0.1204 0.0
H385 H 1.0187 0.40258 0.21052 0.0
H386 H 1.00791 0.43129 0.29554 0.0
H387 H 1.00274 0.48951 0.29046 0.0
C388 C 0.99911 0.54642 0.2481 0.0
C389 C 1.00725 0.53033 0.1963 0.0
C390 C 1.0114 0.49692 0.19979 0.0
C391 C 0.01939 0.48141 0.15084 0.0
C392 C 0.02111 0.44663 0.15594 0.0
C393 C 1.01706 0.42897 0.20761 0.0
C394 C 1.01084 0.44503 0.25543 0.0
C395 C 1.00787 0.47848 0.25183 0.0
H396 H 0.69944 0.77077 0.14247 0.0
C397 C 0.67418 0.7601 0.16981 0.0
H398 H 0.63104 0.77046 0.20463 0.0
H399 H 0.74887 0.95057 0.12545 0.0
H400 H 0.79718 0.94993 0.18642 0.0
H401 H 0.78581 0.88921 0.2312 0.0
H402 H 0.7265 0.8286 0.2143 0.0
C403 C 0.65664 0.78154 0.1779 0.0
C404 C 0.66673 0.81787 0.14648 0.0
C405 C 0.70112 0.85325 0.15799 0.0
C406 C 0.70689 0.8887 0.13421 0.0
C407 C 0.74227 0.92323 0.14437 0.0
C408 C 0.77036 0.9232 0.17893 0.0
C409 C 0.76401 0.88898 0.204 0.0
C410 C 0.72985 0.85434 0.19384 0.0
H411 H 0.68476 0.94924 0.16253 0.0
C412 C 0.6818 0.95295 0.11823 0.0
H413 H 0.67687 0.92981 0.03759 0.0
H414 H 0.60025 0.75478 0.1098 0.0
H415 H 0.5516 0.75532 0.04972 0.0
H416 H 0.55951 0.81689 0.01312 0.0
H417 H 0.61611 0.87814 0.03581 0.0
C418 C 0.68047 0.92639 0.08175 0.0
C419 C 0.67748 0.88904 0.10102 0.0
C420 C 0.64393 0.85333 0.08745 0.0
C421 C 0.63882 0.81783 0.10973 0.0
C422 C 0.60519 0.78264 0.09507 0.0
C423 C 0.57709 0.78249 0.06041 0.0
C424 C 0.5816 0.81714 0.03972 0.0
C425 C 0.61444 0.85219 0.053 0.0
H426 H 0.96693 0.70962 0.34432 0.0
C427 C 0.95283 0.67828 0.34878 0.0
H428 H 0.90023 0.62516 0.34681 0.0
H429 H 0.77329 0.66565 0.40038 0.0
H430 H 0.77453 0.63347 0.48523 0.0
H431 H 0.82791 0.61998 0.50329 0.0
H432 H 0.88006 0.63815 0.43599 0.0
C433 C 0.91414 0.65643 0.34126 0.0
C434 C 0.88744 0.67267 0.33444 0.0
C435 C 0.85781 0.66336 0.37514 0.0
C436 C 0.8276 0.67219 0.36542 0.0
C437 C 0.79745 0.66055 0.40576 0.0
C438 C 0.79771 0.64191 0.45481 0.0
C439 C 0.8277 0.63424 0.46493 0.0
C440 C 0.85739 0.6447 0.42575 0.0
H441 H 0.78238 0.66441 0.22584 0.0
C442 C 0.77157 0.67767 0.25556 0.0
H443 H 0.78141 0.70735 0.33192 0.0
H444 H 0.93961 0.69525 0.24736 0.0
H445 H 0.94214 0.7334 0.16702 0.0
H446 H 0.89384 0.75487 0.15544 0.0
H447 H 0.84197 0.73725 0.22354 0.0
C448 C 0.79246 0.69477 0.30148 0.0
C449 C 0.82747 0.6913 0.31547 0.0
C450 C 0.85922 0.70405 0.27743 0.0
C451 C 0.88852 0.69365 0.28592 0.0
C452 C 0.91771 0.70382 0.24454 0.0
C453 C 0.91937 0.72557 0.19797 0.0
C454 C 0.89208 0.73752 0.19131 0.0
C455 C 0.86229 0.72695 0.23042 0.0
H456 H 0.15646 0.78265 0.40183 0.0
C457 C 0.13179 0.7714 0.43042 0.0
H458 H 0.10997 0.7797 0.50646 0.0
H459 H 0.27362 0.87329 0.62144 0.0
H460 H 0.23705 0.82027 0.68588 0.0
H461 H 0.17076 0.76854 0.66326 0.0
H462 H 0.14047 0.76979 0.57674 0.0
C463 C 0.13435 0.79118 0.47742 0.0
C464 C 0.17227 0.82535 0.49442 0.0
C465 C 0.18962 0.82398 0.54538 0.0
C466 C 0.22832 0.85319 0.55773 0.0
C467 C 0.24472 0.85135 0.60924 0.0
C468 C 0.22399 0.82117 0.64679 0.0
C469 C 0.18666 0.79211 0.6341 0.0
C470 C 0.16957 0.79328 0.5841 0.0
H471 H 0.29467 0.96222 0.53279 0.0
C472 C 0.31072 0.94672 0.53692 0.0
H473 H 0.30907 0.89285 0.53264 0.0
H474 H 0.14428 0.84298 0.40171 0.0
H475 H 0.18108 0.89579 0.33663 0.0
H476 H 0.25039 0.94223 0.35266 0.0
H477 H 0.28299 0.93692 0.43447 0.0
C478 C 0.29286 0.90813 0.52759 0.0
C479 C 0.25017 0.8832 0.51865 0.0
C480 C 0.23209 0.88595 0.46932 0.0
C481 C 0.1927 0.85772 0.45823 0.0
C482 C 0.17463 0.86243 0.41049 0.0
C483 C 0.19533 0.89278 0.3731 0.0
C484 C 0.23431 0.91901 0.38226 0.0
C485 C 0.25265 0.91574 0.42965 0.0
H486 H 0.38356 0.30111 0.66398 0.0
C487 C 0.40863 0.31331 0.69127 0.0
H488 H 0.4532 0.30616 0.72672 0.0
H489 H 0.33591 0.12705 0.63268 0.0
H490 H 0.28547 0.12582 0.69225 0.0
H491 H 0.29638 0.1843 0.74379 0.0
H492 H 0.35736 0.24459 0.73498 0.0
C493 C 0.42762 0.29349 0.7004 0.0
C494 C 0.41948 0.25764 0.66886 0.0
C495 C 0.3842 0.22217 0.67634 0.0
C496 C 0.3787 0.18776 0.64906 0.0
C497 C 0.34233 0.15343 0.65459 0.0
C498 C 0.31301 0.15242 0.68829 0.0
C499 C 0.3191 0.18539 0.71712 0.0
C500 C 0.35422 0.21992 0.71144 0.0
H501 H 0.39673 0.12422 0.67211 0.0
C502 C 0.40176 0.12263 0.62773 0.0
H503 H 0.4119 0.1504 0.54975 0.0
H504 H 0.48868 0.32137 0.64002 0.0
H505 H 0.53962 0.32224 0.58242 0.0
H506 H 0.53211 0.26194 0.54091 0.0
H507 H 0.47352 0.20058 0.55609 0.0
C508 C 0.40611 0.15158 0.59393 0.0
C509 C 0.40929 0.18827 0.61694 0.0
C510 C 0.44412 0.224 0.60824 0.0
C511 C 0.44897 0.25866 0.63359 0.0
C512 C 0.48377 0.29399 0.62309 0.0
C513 C 0.51324 0.29498 0.58985 0.0
C514 C 0.50897 0.26105 0.56638 0.0
C515 C 0.47499 0.22594 0.57537 0.0
H516 H 0.11399 0.37787 0.81519 0.0
C517 C 0.12784 0.40255 0.84327 0.0
H518 H 0.18063 0.44608 0.87677 0.0
H519 H 0.24067 0.32904 0.77255 0.0
H520 H 0.19326 0.27857 0.83322 0.0
H521 H 0.14631 0.28924 0.88788 0.0
H522 H 0.14583 0.34998 0.88128 0.0
C523 C 0.16669 0.42073 0.84991 0.0
C524 C 0.19304 0.41217 0.81499 0.0
C525 C 0.19372 0.37691 0.82082 0.0
C526 C 0.22217 0.37148 0.79146 0.0
C527 C 0.22091 0.3353 0.79586 0.0
C528 C 0.19366 0.306 0.83017 0.0
C529 C 0.16713 0.31196 0.86079 0.0
C530 C 0.16706 0.34695 0.85641 0.0
H531 H 0.30346 0.39174 0.81399 0.0
C532 C 0.31019 0.39629 0.7696 0.0
H533 H 0.29222 0.40521 0.69128 0.0
H534 H 0.19669 0.48098 0.78837 0.0
H535 H 0.24454 0.53164 0.7288 0.0
H536 H 0.29633 0.52405 0.68291 0.0
H537 H 0.30036 0.4657 0.69568 0.0
C538 C 0.28518 0.39951 0.73541 0.0
C539 C 0.25121 0.40204 0.75864 0.0
C540 C 0.2494 0.43659 0.7509 0.0
C541 C 0.22012 0.44144 0.77861 0.0
C542 C 0.21881 0.47609 0.76949 0.0
C543 C 0.246 0.50538 0.73518 0.0
C544 C 0.2751 0.50107 0.70926 0.0
C545 C 0.27699 0.46724 0.71692 0.0
H546 H 0.92077 0.29809 0.88291 0.0
C547 C 0.94457 0.30857 0.91236 0.0
H548 H 0.96428 0.29931 0.98891 0.0
H549 H 0.80338 0.20924 0.11137 0.0
H550 H 0.83946 0.26549 0.17026 0.0
H551 H 0.90404 0.31822 0.14131 0.0
H552 H 0.93311 0.3148 0.05395 0.0
C553 C 0.94044 0.2884 0.9595 0.0
C554 C 0.90195 0.25527 0.97749 0.0
C555 C 0.88507 0.25807 0.02865 0.0
C556 C 0.84724 0.22829 0.04455 0.0
C557 C 0.83153 0.2315 0.09644 0.0
C558 C 0.852 0.26355 0.13086 0.0
C559 C 0.88838 0.29317 0.11463 0.0
C560 C 0.90482 0.29068 0.06424 0.0
H561 H 0.7864 0.1178 0.03033 0.0
C562 C 0.76863 0.13154 0.03459 0.0
H563 H 0.76569 0.18293 0.02668 0.0
H564 H 0.92863 0.23624 0.88355 0.0
H565 H 0.89172 0.1808 0.82325 0.0
H566 H 0.82362 0.13287 0.8456 0.0
H567 H 0.79237 0.13943 0.92905 0.0
C568 C 0.78371 0.16947 0.02199 0.0
C569 C 0.82561 0.19624 0.00868 0.0
C570 C 0.84288 0.19276 0.95839 0.0
C571 C 0.88151 0.2217 0.94371 0.0
C572 C 0.89883 0.21624 0.89513 0.0
C573 C 0.87807 0.18438 0.86041 0.0
C574 C 0.83977 0.1573 0.87313 0.0
C575 C 0.82222 0.16132 0.92141 0.0
loop_
_geom_bond_atom_site_label_1
_geom_bond_atom_site_label_2
_geom_bond_distance
_geom_bond_site_symmetry_2
_ccdc_geom_bond_type
Mn0 O5 2.095 . S
Mn0 O15 2.162 1_545 S
Mn0 O16 2.297 1_545 S
Mn0 O24 2.385 1_545 S
Mn0 O25 2.209 . S
Mn0 O26 2.094 1_554 S
Mn1 O6 2.121 . S
Mn1 N8 2.257 . S
Mn1 N17 2.282 . S
Mn1 O25 2.215 . S
Mn1 O27 2.117 . S
C2 O24 1.234 1_545 S
C2 O25 1.283 . S
C3 O15 1.281 . S
C3 O16 1.236 . S
C4 O26 1.240 . S
C4 O27 1.264 1_556 S
O5 Mn0 2.095 . S
O5 C14 1.250 . S
O6 Mn1 2.121 . S
O6 C14 1.258 . S
C7 N8 1.326 . S
C7 C11 1.460 . S
C7 H13 0.929 . S
N8 Mn1 2.257 . S
N8 C7 1.326 . S
N8 C12 1.362 . S
C9 C10 1.258 . S
C9 C12 1.431 . S
C9 C29 1.449 . S
C10 C9 1.258 . S
C10 C11 1.477 . S
C10 H30 0.931 . S
C11 C7 1.460 . S
C11 C10 1.477 . S
C11 H31 0.930 . S
C12 N8 1.362 . S
C12 C9 1.431 . S
C12 C22 1.476 . S
H13 C7 0.929 . S
C14 O5 1.250 . S
C14 O6 1.258 . S
O15 Mn0 2.162 1_565 S
O15 C3 1.281 . S
O16 Mn0 2.297 1_565 S
O16 C3 1.236 . S
N17 Mn1 2.282 . S
N17 C18 1.328 . S
N17 C22 1.318 . S
C18 N17 1.328 . S
C18 C19 1.457 . S
C18 H23 0.929 . S
C19 C18 1.457 . S
C19 C20 1.291 . S
C19 H32 0.931 . S
C20 C19 1.291 . S
C20 C21 1.373 . S
C20 H33 0.929 . S
C21 C20 1.373 . S
C21 C22 1.396 . S
C21 C28 1.403 . S
C22 C12 1.476 . S
C22 N17 1.318 . S
C22 C21 1.396 . S
H23 C18 0.929 . S
O24 Mn0 2.385 1_565 S
O24 C2 1.234 1_565 S
O25 Mn0 2.209 . S
O25 Mn1 2.215 . S
O25 C2 1.283 . S
O26 Mn0 2.094 1_556 S
O26 C4 1.240 . S
O27 Mn1 2.117 . S
O27 C4 1.264 1_554 S
C28 C21 1.403 . S
C28 C29 1.399 . S
C28 H34 0.929 . S
C29 C9 1.449 . S
C29 C28 1.399 . S
C29 H35 0.930 . S
H30 C10 0.931 . S
H31 C11 0.930 . S
H32 C19 0.931 . S
H33 C20 0.929 . S
H34 C28 0.929 . S
H35 C29 0.930 . S
Mn36 O41 2.095 . S
Mn36 O51 2.162 . S
Mn36 O52 2.297 . S
Mn36 O60 2.385 . S
Mn36 O61 2.209 . S
Mn36 O62 2.094 . S
Mn37 O42 2.121 . S
Mn37 N44 2.257 . S
Mn37 N53 2.282 . S
Mn37 O61 2.215 . S
Mn37 O63 2.117 . S
C38 O60 1.234 . S
C38 O61 1.283 . S
C39 O51 1.281 . S
C39 O52 1.236 . S
C40 O62 1.240 . S
C40 O63 1.264 . S
O41 Mn36 2.095 . S
O41 C50 1.250 . S
O42 Mn37 2.121 . S
O42 C50 1.258 . S
C43 N44 1.326 . S
C43 C47 1.460 . S
C43 H49 0.929 . S
N44 Mn37 2.257 . S
N44 C43 1.326 . S
N44 C48 1.362 . S
C45 C46 1.258 . S
C45 C48 1.431 . S
C45 C65 1.449 . S
C46 C45 1.258 . S
C46 C47 1.477 . S
C46 H66 0.931 . S
C47 C43 1.460 . S
C47 C46 1.477 . S
C47 H67 0.930 . S
C48 N44 1.362 . S
C48 C45 1.431 . S
C48 C58 1.476 . S
H49 C43 0.929 . S
C50 O41 1.250 . S
C50 O42 1.258 . S
O51 Mn36 2.162 . S
O51 C39 1.281 . S
O52 Mn36 2.297 . S
O52 C39 1.236 . S
N53 Mn37 2.282 . S
N53 C54 1.328 . S
N53 C58 1.318 . S
C54 N53 1.328 . S
C54 C55 1.457 . S
C54 H59 0.929 . S
C55 C54 1.457 . S
C55 C56 1.291 . S
C55 H68 0.931 . S
C56 C55 1.291 . S
C56 C57 1.373 . S
C56 H69 0.929 . S
C57 C56 1.373 . S
C57 C58 1.396 . S
C57 C64 1.403 . S
C58 C48 1.476 . S
C58 N53 1.318 . S
C58 C57 1.396 . S
H59 C54 0.929 . S
O60 Mn36 2.385 . S
O60 C38 1.234 . S
O61 Mn36 2.209 . S
O61 Mn37 2.215 . S
O61 C38 1.283 . S
O62 Mn36 2.094 . S
O62 C40 1.240 . S
O63 Mn37 2.117 . S
O63 C40 1.264 . S
C64 C57 1.403 . S
C64 C65 1.399 . S
C64 H70 0.929 . S
C65 C45 1.449 . S
C65 C64 1.399 . S
C65 H71 0.930 . S
H66 C46 0.931 . S
H67 C47 0.930 . S
H68 C55 0.931 . S
H69 C56 0.929 . S
H70 C64 0.929 . S
H71 C65 0.930 . S
Mn72 O77 2.095 1_455 S
Mn72 O87 2.162 . S
Mn72 O88 2.297 . S
Mn72 O96 2.385 . S
Mn72 O97 2.209 . S
Mn72 O98 2.094 . S
Mn73 O78 2.121 . S
Mn73 N80 2.257 . S
Mn73 N89 2.282 . S
Mn73 O97 2.215 1_655 S
Mn73 O99 2.117 . S
C74 O96 1.234 . S
C74 O97 1.284 . S
C75 O87 1.281 . S
C75 O88 1.236 . S
C76 O98 1.240 . S
C76 O99 1.264 1_455 S
O77 Mn72 2.095 1_655 S
O77 C86 1.250 . S
O78 Mn73 2.121 . S
O78 C86 1.258 . S
C79 N80 1.326 . S
C79 C83 1.460 . S
C79 H85 0.929 . S
N80 Mn73 2.257 . S
N80 C79 1.326 . S
N80 C84 1.362 . S
C81 C82 1.258 . S
C81 C84 1.431 . S
C81 C101 1.449 . S
C82 C81 1.258 . S
C82 C83 1.477 . S
C82 H102 0.931 . S
C83 C79 1.460 . S
C83 C82 1.477 . S
C83 H103 0.930 . S
C84 N80 1.362 . S
C84 C81 1.431 . S
C84 C94 1.476 . S
H85 C79 0.929 . S
C86 O77 1.250 . S
C86 O78 1.258 . S
O87 Mn72 2.162 . S
O87 C75 1.281 . S
O88 Mn72 2.297 . S
O88 C75 1.236 . S
N89 Mn73 2.282 . S
N89 C90 1.328 . S
N89 C94 1.318 . S
C90 N89 1.328 . S
C90 C91 1.457 . S
C90 H95 0.929 . S
C91 C90 1.457 . S
C91 C92 1.291 . S
C91 H104 0.931 1_655 S
C92 C91 1.291 . S
C92 C93 1.373 . S
C92 H105 0.929 . S
C93 C92 1.373 . S
C93 C94 1.396 . S
C93 C100 1.403 . S
C94 C84 1.476 . S
C94 N89 1.318 . S
C94 C93 1.396 . S
H95 C90 0.929 . S
O96 Mn72 2.385 . S
O96 C74 1.234 . S
O97 Mn72 2.209 . S
O97 Mn73 2.215 1_455 S
O97 C74 1.284 . S
O98 Mn72 2.094 . S
O98 C76 1.240 . S
O99 Mn73 2.117 . S
O99 C76 1.264 1_655 S
C100 C93 1.403 . S
C100 C101 1.399 . S
C100 H106 0.929 . S
C101 C81 1.449 . S
C101 C100 1.399 . S
C101 H107 0.930 . S
H102 C82 0.931 . S
H103 C83 0.930 . S
H104 C91 0.931 1_455 S
H105 C92 0.929 . S
H106 C100 0.929 . S
H107 C101 0.930 . S
Mn108 O113 2.095 1_545 S
Mn108 O123 2.162 . S
Mn108 O124 2.297 . S
Mn108 O132 2.385 . S
Mn108 O133 2.209 . S
Mn108 O134 2.094 . S
Mn109 O114 2.121 . S
Mn109 N116 2.257 . S
Mn109 N125 2.282 . S
Mn109 O133 2.215 1_565 S
Mn109 O135 2.117 . S
C110 O132 1.234 . S
C110 O133 1.283 . S
C111 O123 1.281 . S
C111 O124 1.236 . S
C112 O134 1.240 . S
C112 O135 1.264 1_545 S
O113 Mn108 2.095 1_565 S
O113 C122 1.250 . S
O114 Mn109 2.121 . S
O114 C122 1.258 . S
C115 N116 1.326 . S
C115 C119 1.460 . S
C115 H121 0.929 . S
N116 Mn109 2.257 . S
N116 C115 1.326 . S
N116 C120 1.362 . S
C117 C118 1.258 . S
C117 C120 1.431 . S
C117 C137 1.449 . S
C118 C117 1.258 . S
C118 C119 1.477 . S
C118 H138 0.931 . S
C119 C115 1.460 . S
C119 C118 1.477 . S
C119 H139 0.930 . S
C120 N116 1.362 . S
C120 C117 1.431 . S
C120 C130 1.476 . S
H121 C115 0.929 . S
C122 O113 1.250 . S
C122 O114 1.258 . S
O123 Mn108 2.162 . S
O123 C111 1.281 . S
O124 Mn108 2.297 . S
O124 C111 1.236 . S
N125 Mn109 2.282 . S
N125 C126 1.328 . S
N125 C130 1.318 . S
C126 N125 1.328 . S
C126 C127 1.457 . S
C126 H131 0.929 1_565 S
C127 C126 1.457 . S
C127 C128 1.291 . S
C127 H140 0.931 1_565 S
C128 C127 1.291 . S
C128 C129 1.373 . S
C128 H141 0.929 . S
C129 C128 1.373 . S
C129 C130 1.396 . S
C129 C136 1.403 . S
C130 C120 1.476 . S
C130 N125 1.318 . S
C130 C129 1.396 . S
H131 C126 0.929 1_545 S
O132 Mn108 2.385 . S
O132 C110 1.234 . S
O133 Mn108 2.209 . S
O133 Mn109 2.215 1_545 S
O133 C110 1.283 . S
O134 Mn108 2.094 . S
O134 C112 1.240 . S
O135 Mn109 2.117 . S
O135 C112 1.264 1_565 S
C136 C129 1.403 . S
C136 C137 1.399 . S
C136 H142 0.929 . S
C137 C117 1.449 . S
C137 C136 1.399 . S
C137 H143 0.930 . S
H138 C118 0.931 . S
H139 C119 0.930 . S
H140 C127 0.931 1_545 S
H141 C128 0.929 . S
H142 C136 0.929 . S
H143 C137 0.930 . S
Mn144 O149 2.095 . S
Mn144 O159 2.162 . S
Mn144 O160 2.297 . S
Mn144 O168 2.385 . S
Mn144 O169 2.209 . S
Mn144 O170 2.094 . S
Mn145 O150 2.121 . S
Mn145 N152 2.257 . S
Mn145 N161 2.282 . S
Mn145 O169 2.215 . S
Mn145 O171 2.117 . S
C146 O168 1.234 . S
C146 O169 1.283 . S
C147 O159 1.281 . S
C147 O160 1.236 . S
C148 O170 1.240 . S
C148 O171 1.264 . S
O149 Mn144 2.095 . S
O149 C158 1.250 . S
O150 Mn145 2.121 . S
O150 C158 1.258 . S
C151 N152 1.326 . S
C151 C155 1.460 . S
C151 H157 0.929 . S
N152 Mn145 2.257 . S
N152 C151 1.326 . S
N152 C156 1.362 . S
C153 C154 1.258 . S
C153 C156 1.431 . S
C153 C173 1.449 . S
C154 C153 1.258 . S
C154 C155 1.477 . S
C154 H174 0.931 . S
C155 C151 1.460 . S
C155 C154 1.477 . S
C155 H175 0.930 . S
C156 N152 1.362 . S
C156 C153 1.431 . S
C156 C166 1.476 . S
H157 C151 0.929 . S
C158 O149 1.250 . S
C158 O150 1.258 . S
O159 Mn144 2.162 . S
O159 C147 1.281 . S
O160 Mn144 2.297 . S
O160 C147 1.236 . S
N161 Mn145 2.282 . S
N161 C162 1.328 . S
N161 C166 1.318 . S
C162 N161 1.328 . S
C162 C163 1.457 . S
C162 H167 0.929 . S
C163 C162 1.457 . S
C163 C164 1.291 . S
C163 H176 0.931 . S
C164 C163 1.291 . S
C164 C165 1.373 . S
C164 H177 0.929 . S
C165 C164 1.373 . S
C165 C166 1.396 . S
C165 C172 1.403 . S
C166 C156 1.476 . S
C166 N161 1.318 . S
C166 C165 1.396 . S
H167 C162 0.929 . S
O168 Mn144 2.385 . S
O168 C146 1.234 . S
O169 Mn144 2.209 . S
O169 Mn145 2.215 . S
O169 C146 1.283 . S
O170 Mn144 2.094 . S
O170 C148 1.240 . S
O171 Mn145 2.117 . S
O171 C148 1.264 . S
C172 C165 1.403 . S
C172 C173 1.399 . S
C172 H178 0.929 . S
C173 C153 1.449 . S
C173 C172 1.399 . S
C173 H179 0.930 . S
H174 C154 0.931 . S
H175 C155 0.930 . S
H176 C163 0.931 . S
H177 C164 0.929 . S
H178 C172 0.929 . S
H179 C173 0.930 . S
Mn180 O185 2.095 . S
Mn180 O195 2.162 1_455 S
Mn180 O196 2.297 1_455 S
Mn180 O204 2.385 1_455 S
Mn180 O205 2.209 . S
Mn180 O206 2.094 1_455 S
Mn181 O186 2.121 . S
Mn181 N188 2.257 . S
Mn181 N197 2.282 . S
Mn181 O205 2.215 . S
Mn181 O207 2.117 . S
C182 O204 1.234 1_455 S
C182 O205 1.283 . S
C183 O195 1.281 . S
C183 O196 1.236 . S
C184 O206 1.240 1_455 S
C184 O207 1.264 . S
O185 Mn180 2.095 . S
O185 C194 1.250 . S
O186 Mn181 2.121 . S
O186 C194 1.258 . S
C187 N188 1.326 . S
C187 C191 1.460 1_556 S
C187 H193 0.929 . S
N188 Mn181 2.257 . S
N188 C187 1.326 . S
N188 C192 1.362 . S
C189 C190 1.258 . S
C189 C192 1.431 1_554 S
C189 C209 1.449 . S
C190 C189 1.258 . S
C190 C191 1.477 . S
C190 H210 0.931 . S
C191 C187 1.460 1_554 S
C191 C190 1.477 . S
C191 H211 0.930 . S
C192 N188 1.362 . S
C192 C189 1.431 1_556 S
C192 C202 1.476 . S
H193 C187 0.929 . S
C194 O185 1.250 . S
C194 O186 1.258 . S
O195 Mn180 2.162 1_655 S
O195 C183 1.281 . S
O196 Mn180 2.297 1_655 S
O196 C183 1.236 . S
N197 Mn181 2.282 . S
N197 C198 1.328 . S
N197 C202 1.318 . S
C198 N197 1.328 . S
C198 C199 1.457 . S
C198 H203 0.929 . S
C199 C198 1.457 . S
C199 C200 1.291 . S
C199 H212 0.931 . S
C200 C199 1.291 . S
C200 C201 1.373 1_556 S
C200 H213 0.929 1_556 S
C201 C200 1.373 1_554 S
C201 C202 1.396 1_554 S
C201 C208 1.403 . S
C202 C192 1.476 . S
C202 N197 1.318 . S
C202 C201 1.396 1_556 S
H203 C198 0.929 . S
O204 Mn180 2.385 1_655 S
O204 C182 1.234 1_655 S
O205 Mn180 2.209 . S
O205 Mn181 2.215 . S
O205 C182 1.283 . S
O206 Mn180 2.094 1_655 S
O206 C184 1.240 1_655 S
O207 Mn181 2.117 . S
O207 C184 1.264 . S
C208 C201 1.403 . S
C208 C209 1.399 . S
C208 H214 0.929 . S
C209 C189 1.449 . S
C209 C208 1.399 . S
C209 H215 0.930 . S
H210 C190 0.931 . S
H211 C191 0.930 . S
H212 C199 0.931 . S
H213 C200 0.929 1_554 S
H214 C208 0.929 . S
H215 C209 0.930 . S
H216 C217 0.951 . S
C217 H216 0.951 . S
C217 C223 1.265 . S
H218 C223 0.950 . S
H219 C227 0.949 . S
H220 C228 0.950 . S
H221 C229 0.951 . S
H222 C230 0.951 . S
C223 C217 1.265 . S
C223 H218 0.950 . S
C223 C224 1.478 . S
C224 C223 1.478 . S
C224 C225 1.397 . S
C224 C241 1.394 1_545 S
C225 C224 1.397 . S
C225 C226 1.438 . S
C225 C230 1.429 . S
C226 C225 1.438 . S
C226 C227 1.428 . S
C226 C239 1.394 . S
C227 H219 0.949 . S
C227 C226 1.428 . S
C227 C228 1.345 . S
C228 H220 0.950 . S
C228 C227 1.345 . S
C228 C229 1.424 . S
C229 H221 0.951 . S
C229 C228 1.424 . S
C229 C230 1.347 . S
C230 H222 0.951 . S
C230 C225 1.429 . S
C230 C229 1.347 . S
H231 C232 0.951 . S
C232 H231 0.951 . S
C232 C238 1.265 . S
H233 C238 0.950 . S
H234 C242 0.949 . S
H235 C243 0.950 . S
H236 C244 0.951 . S
H237 C245 0.951 . S
C238 C232 1.265 . S
C238 H233 0.950 . S
C238 C239 1.478 . S
C239 C226 1.394 . S
C239 C238 1.478 . S
C239 C240 1.397 1_545 S
C240 C239 1.397 1_565 S
C240 C241 1.438 . S
C240 C245 1.429 . S
C241 C224 1.394 1_565 S
C241 C240 1.438 . S
C241 C242 1.428 . S
C242 H234 0.949 . S
C242 C241 1.428 . S
C242 C243 1.345 . S
C243 H235 0.950 . S
C243 C242 1.345 . S
C243 C244 1.424 . S
C244 H236 0.951 . S
C244 C243 1.424 . S
C244 C245 1.347 . S
C245 H237 0.951 . S
C245 C240 1.429 . S
C245 C244 1.347 . S
H246 C247 0.951 . S
C247 H246 0.951 . S
C247 C253 1.265 . S
H248 C253 0.950 . S
H249 C257 0.949 . S
H250 C258 0.950 . S
H251 C259 0.951 . S
H252 C260 0.951 . S
C253 C247 1.265 . S
C253 H248 0.950 . S
C253 C254 1.478 . S
C254 C253 1.478 . S
C254 C255 1.397 . S
C254 C271 1.394 . S
C255 C254 1.397 . S
C255 C256 1.438 . S
C255 C260 1.429 . S
C256 C255 1.438 . S
C256 C257 1.428 . S
C256 C269 1.394 . S
C257 H249 0.949 . S
C257 C256 1.428 . S
C257 C258 1.345 . S
C258 H250 0.950 . S
C258 C257 1.345 . S
C258 C259 1.424 . S
C259 H251 0.951 . S
C259 C258 1.424 . S
C259 C260 1.347 . S
C260 H252 0.951 . S
C260 C255 1.429 . S
C260 C259 1.347 . S
H261 C262 0.951 . S
C262 H261 0.951 . S
C262 C268 1.265 . S
H263 C268 0.950 . S
H264 C272 0.949 . S
H265 C273 0.950 . S
H266 C274 0.951 . S
H267 C275 0.951 . S
C268 C262 1.265 . S
C268 H263 0.950 . S
C268 C269 1.478 . S
C269 C256 1.394 . S
C269 C268 1.478 . S
C269 C270 1.397 . S
C270 C269 1.397 . S
C270 C271 1.438 . S
C270 C275 1.429 . S
C271 C254 1.394 . S
C271 C270 1.438 . S
C271 C272 1.428 . S
C272 H264 0.949 . S
C272 C271 1.428 . S
C272 C273 1.345 . S
C273 H265 0.950 . S
C273 C272 1.345 . S
C273 C274 1.424 . S
C274 H266 0.951 . S
C274 C273 1.424 . S
C274 C275 1.347 . S
C275 H267 0.951 . S
C275 C270 1.429 . S
C275 C274 1.347 . S
H276 C277 0.951 . S
C277 H276 0.951 . S
C277 C283 1.265 . S
H278 C283 0.950 1_655 S
H279 C287 0.949 . S
H280 C288 0.950 . S
H281 C289 0.947 1_655 S
H282 C290 0.951 1_655 S
C283 C277 1.265 . S
C283 H278 0.950 1_455 S
C283 C284 1.478 . S
C284 C283 1.478 . S
C284 C285 1.397 . S
C284 C301 1.394 . S
C285 C284 1.397 . S
C285 C286 1.438 . S
C285 C290 1.429 . S
C286 C285 1.438 . S
C286 C287 1.428 . S
C286 C299 1.394 . S
C287 H279 0.949 . S
C287 C286 1.428 . S
C287 C288 1.345 . S
C288 H280 0.950 . S
C288 C287 1.345 . S
C288 C289 1.423 . S
C289 H281 0.947 1_455 S
C289 C288 1.423 . S
C289 C290 1.352 . S
C290 H282 0.951 1_455 S
C290 C285 1.429 . S
C290 C289 1.352 . S
H291 C292 0.951 1_655 S
C292 H291 0.951 1_455 S
C292 C298 1.265 . S
H293 C298 0.950 . S
H294 C302 0.949 . S
H295 C303 0.950 . S
H296 C304 0.951 . S
H297 C305 0.951 . S
C298 C292 1.265 . S
C298 H293 0.950 . S
C298 C299 1.478 . S
C299 C286 1.394 . S
C299 C298 1.478 . S
C299 C300 1.397 . S
C300 C299 1.397 . S
C300 C301 1.438 . S
C300 C305 1.429 . S
C301 C284 1.394 . S
C301 C300 1.438 . S
C301 C302 1.428 . S
C302 H294 0.949 . S
C302 C301 1.428 . S
C302 C303 1.345 . S
C303 H295 0.950 . S
C303 C302 1.345 . S
C303 C304 1.424 . S
C304 H296 0.951 . S
C304 C303 1.424 . S
C304 C305 1.347 . S
C305 H297 0.951 . S
C305 C300 1.429 . S
C305 C304 1.347 . S
H306 C307 0.951 . S
C307 H306 0.951 . S
C307 C313 1.265 . S
H308 C313 0.950 . S
H309 C317 0.949 . S
H310 C318 0.950 . S
H311 C319 0.951 . S
H312 C320 0.951 . S
C313 C307 1.265 . S
C313 H308 0.950 . S
C313 C314 1.478 . S
C314 C313 1.478 . S
C314 C315 1.397 . S
C314 C331 1.394 1_545 S
C315 C314 1.397 . S
C315 C316 1.438 . S
C315 C320 1.429 . S
C316 C315 1.438 . S
C316 C317 1.428 . S
C316 C329 1.394 . S
C317 H309 0.949 . S
C317 C316 1.428 . S
C317 C318 1.345 . S
C318 H310 0.950 . S
C318 C317 1.345 . S
C318 C319 1.424 . S
C319 H311 0.951 . S
C319 C318 1.424 . S
C319 C320 1.347 . S
C320 H312 0.951 . S
C320 C315 1.429 . S
C320 C319 1.347 . S
H321 C322 0.951 . S
C322 H321 0.951 . S
C322 C328 1.265 . S
H323 C328 0.950 . S
H324 C332 0.949 . S
H325 C333 0.950 . S
H326 C334 0.951 . S
H327 C335 0.951 . S
C328 C322 1.265 . S
C328 H323 0.950 . S
C328 C329 1.478 . S
C329 C316 1.394 . S
C329 C328 1.478 . S
C329 C330 1.397 1_545 S
C330 C329 1.397 1_565 S
C330 C331 1.438 . S
C330 C335 1.429 . S
C331 C314 1.394 1_565 S
C331 C330 1.438 . S
C331 C332 1.428 . S
C332 H324 0.949 . S
C332 C331 1.428 . S
C332 C333 1.345 . S
C333 H325 0.950 . S
C333 C332 1.345 . S
C333 C334 1.424 . S
C334 H326 0.951 . S
C334 C333 1.424 . S
C334 C335 1.347 . S
C335 H327 0.951 . S
C335 C330 1.429 . S
C335 C334 1.347 . S
H336 C337 0.951 . S
C337 H336 0.951 . S
C337 C343 1.265 . S
H338 C343 0.950 . S
H339 C347 0.949 . S
H340 C348 0.950 . S
H341 C349 0.951 . S
H342 C350 0.951 . S
C343 C337 1.265 . S
C343 H338 0.950 . S
C343 C344 1.478 . S
C344 C343 1.478 . S
C344 C345 1.397 1_554 S
C344 C361 1.394 . S
C345 C344 1.397 1_556 S
C345 C346 1.438 . S
C345 C350 1.429 . S
C346 C345 1.438 . S
C346 C347 1.428 . S
C346 C359 1.394 . S
C347 H339 0.949 . S
C347 C346 1.428 . S
C347 C348 1.345 . S
C348 H340 0.950 . S
C348 C347 1.345 . S
C348 C349 1.424 . S
C349 H341 0.951 . S
C349 C348 1.424 . S
C349 C350 1.347 . S
C350 H342 0.951 . S
C350 C345 1.429 . S
C350 C349 1.347 . S
H351 C352 0.951 . S
C352 H351 0.951 . S
C352 C358 1.265 . S
H353 C358 0.950 . S
H354 C362 0.949 . S
H355 C363 0.950 . S
H356 C364 0.951 . S
H357 C365 0.951 . S
C358 C352 1.265 . S
C358 H353 0.950 . S
C358 C359 1.478 . S
C359 C346 1.394 . S
C359 C358 1.478 . S
C359 C360 1.397 . S
C360 C359 1.397 . S
C360 C361 1.438 1_556 S
C360 C365 1.429 . S
C361 C344 1.394 . S
C361 C360 1.438 1_554 S
C361 C362 1.428 . S
C362 H354 0.949 . S
C362 C361 1.428 . S
C362 C363 1.345 . S
C363 H355 0.950 . S
C363 C362 1.345 . S
C363 C364 1.424 . S
C364 H356 0.951 . S
C364 C363 1.424 . S
C364 C365 1.347 1_554 S
C365 H357 0.951 . S
C365 C360 1.429 . S
C365 C364 1.347 1_556 S
H366 C367 0.951 1_655 S
C367 H366 0.951 1_455 S
C367 C373 1.265 . S
H368 C373 0.950 . S
H369 C377 0.949 . S
H370 C378 0.950 . S
H371 C379 0.951 . S
H372 C380 0.951 . S
C373 C367 1.265 . S
C373 H368 0.950 . S
C373 C374 1.478 . S
C374 C373 1.478 . S
C374 C375 1.397 . S
C374 C391 1.394 . S
C375 C374 1.397 . S
C375 C376 1.438 . S
C375 C380 1.429 . S
C376 C375 1.438 . S
C376 C377 1.428 . S
C376 C389 1.394 . S
C377 H369 0.949 . S
C377 C376 1.428 . S
C377 C378 1.345 . S
C378 H370 0.950 . S
C378 C377 1.345 . S
C378 C379 1.424 . S
C379 H371 0.951 . S
C379 C378 1.424 . S
C379 C380 1.347 . S
C380 H372 0.951 . S
C380 C375 1.429 . S
C380 C379 1.347 . S
H381 C382 0.951 . S
C382 H381 0.951 . S
C382 C388 1.272 . S
H383 C388 0.928 1_655 S
H384 C392 0.949 . S
H385 C393 0.950 . S
H386 C394 0.951 . S
H387 C395 0.951 . S
C388 C382 1.272 . S
C388 H383 0.928 1_455 S
C388 C389 1.491 . S
C389 C376 1.394 . S
C389 C388 1.491 . S
C389 C390 1.397 . S
C390 C389 1.397 . S
C390 C391 1.438 . S
C390 C395 1.429 1_455 S
C391 C374 1.394 . S
C391 C390 1.438 . S
C391 C392 1.428 . S
C392 H384 0.949 . S
C392 C391 1.428 . S
C392 C393 1.345 1_455 S
C393 H385 0.950 . S
C393 C392 1.345 1_655 S
C393 C394 1.424 . S
C394 H386 0.951 . S
C394 C393 1.424 . S
C394 C395 1.347 . S
C395 H387 0.951 . S
C395 C390 1.429 1_655 S
C395 C394 1.347 . S
H396 C397 0.951 . S
C397 H396 0.951 . S
C397 C403 1.265 . S
H398 C403 0.950 . S
H399 C407 0.949 . S
H400 C408 0.950 . S
H401 C409 0.951 . S
H402 C410 0.951 . S
C403 C397 1.265 . S
C403 H398 0.950 . S
C403 C404 1.478 . S
C404 C403 1.478 . S
C404 C405 1.397 . S
C404 C421 1.394 . S
C405 C404 1.397 . S
C405 C406 1.438 . S
C405 C410 1.429 . S
C406 C405 1.438 . S
C406 C407 1.428 . S
C406 C419 1.394 . S
C407 H399 0.949 . S
C407 C406 1.428 . S
C407 C408 1.345 . S
C408 H400 0.950 . S
C408 C407 1.345 . S
C408 C409 1.424 . S
C409 H401 0.951 . S
C409 C408 1.424 . S
C409 C410 1.347 . S
C410 H402 0.951 . S
C410 C405 1.429 . S
C410 C409 1.347 . S
H411 C412 0.951 . S
C412 H411 0.951 . S
C412 C418 1.265 . S
H413 C418 0.950 . S
H414 C422 0.949 . S
H415 C423 0.962 . S
H416 C424 0.951 1_556 S
H417 C425 0.951 . S
C418 C412 1.265 . S
C418 H413 0.950 . S
C418 C419 1.478 . S
C419 C406 1.394 . S
C419 C418 1.478 . S
C419 C420 1.397 . S
C420 C419 1.397 . S
C420 C421 1.438 . S
C420 C425 1.429 . S
C421 C404 1.394 . S
C421 C420 1.438 . S
C421 C422 1.428 . S
C422 H414 0.949 . S
C422 C421 1.428 . S
C422 C423 1.345 . S
C423 H415 0.962 . S
C423 C422 1.345 . S
C423 C424 1.424 . S
C424 H416 0.951 1_554 S
C424 C423 1.424 . S
C424 C425 1.347 . S
C425 H417 0.951 . S
C425 C420 1.429 . S
C425 C424 1.347 . S
H426 C427 0.951 . S
C427 H426 0.951 . S
C427 C433 1.265 . S
H428 C433 0.950 . S
H429 C437 0.949 . S
H430 C438 0.950 . S
H431 C439 0.951 . S
H432 C440 0.951 . S
C433 C427 1.265 . S
C433 H428 0.950 . S
C433 C434 1.478 . S
C434 C433 1.478 . S
C434 C435 1.397 . S
C434 C451 1.394 . S
C435 C434 1.397 . S
C435 C436 1.438 . S
C435 C440 1.429 . S
C436 C435 1.438 . S
C436 C437 1.428 . S
C436 C449 1.394 . S
C437 H429 0.949 . S
C437 C436 1.428 . S
C437 C438 1.345 . S
C438 H430 0.950 . S
C438 C437 1.345 . S
C438 C439 1.424 . S
C439 H431 0.951 . S
C439 C438 1.424 . S
C439 C440 1.347 . S
C440 H432 0.951 . S
C440 C435 1.429 . S
C440 C439 1.347 . S
H441 C442 0.951 . S
C442 H441 0.951 . S
C442 C448 1.265 . S
H443 C448 0.950 . S
H444 C452 0.949 . S
H445 C453 0.950 . S
H446 C454 0.951 . S
H447 C455 0.951 . S
C448 C442 1.265 . S
C448 H443 0.950 . S
C448 C449 1.478 . S
C449 C436 1.394 . S
C449 C448 1.478 . S
C449 C450 1.397 . S
C450 C449 1.397 . S
C450 C451 1.438 . S
C450 C455 1.429 . S
C451 C434 1.394 . S
C451 C450 1.438 . S
C451 C452 1.428 . S
C452 H444 0.949 . S
C452 C451 1.428 . S
C452 C453 1.345 . S
C453 H445 0.950 . S
C453 C452 1.345 . S
C453 C454 1.424 . S
C454 H446 0.951 . S
C454 C453 1.424 . S
C454 C455 1.347 . S
C455 H447 0.951 . S
C455 C450 1.429 . S
C455 C454 1.347 . S
H456 C457 0.951 . S
C457 H456 0.951 . S
C457 C463 1.265 . S
H458 C463 0.950 . S
H459 C467 0.949 . S
H460 C468 0.950 . S
H461 C469 0.951 . S
H462 C470 0.951 . S
C463 C457 1.265 . S
C463 H458 0.950 . S
C463 C464 1.478 . S
C464 C463 1.478 . S
C464 C465 1.397 . S
C464 C481 1.394 . S
C465 C464 1.397 . S
C465 C466 1.438 . S
C465 C470 1.429 . S
C466 C465 1.438 . S
C466 C467 1.428 . S
C466 C479 1.394 . S
C467 H459 0.949 . S
C467 C466 1.428 . S
C467 C468 1.345 . S
C468 H460 0.950 . S
C468 C467 1.345 . S
C468 C469 1.424 . S
C469 H461 0.951 . S
C469 C468 1.424 . S
C469 C470 1.347 . S
C470 H462 0.951 . S
C470 C465 1.429 . S
C470 C469 1.347 . S
H471 C472 0.951 . S
C472 H471 0.951 . S
C472 C478 1.265 . S
H473 C478 0.950 . S
H474 C482 0.949 . S
H475 C483 0.950 . S
H476 C484 0.951 . S
H477 C485 0.951 . S
C478 C472 1.265 . S
C478 H473 0.950 . S
C478 C479 1.478 . S
C479 C466 1.394 . S
C479 C478 1.478 . S
C479 C480 1.397 . S
C480 C479 1.397 . S
C480 C481 1.438 . S
C480 C485 1.429 . S
C481 C464 1.394 . S
C481 C480 1.438 . S
C481 C482 1.428 . S
C482 H474 0.949 . S
C482 C481 1.428 . S
C482 C483 1.345 . S
C483 H475 0.950 . S
C483 C482 1.345 . S
C483 C484 1.424 . S
C484 H476 0.951 . S
C484 C483 1.424 . S
C484 C485 1.347 . S
C485 H477 0.951 . S
C485 C480 1.429 . S
C485 C484 1.347 . S
H486 C487 0.951 . S
C487 H486 0.951 . S
C487 C493 1.265 . S
H488 C493 0.950 . S
H489 C497 0.949 . S
H490 C498 0.950 . S
H491 C499 0.951 . S
H492 C500 0.951 . S
C493 C487 1.265 . S
C493 H488 0.950 . S
C493 C494 1.478 . S
C494 C493 1.478 . S
C494 C495 1.397 . S
C494 C511 1.394 . S
C495 C494 1.397 . S
C495 C496 1.438 . S
C495 C500 1.429 . S
C496 C495 1.438 . S
C496 C497 1.428 . S
C496 C509 1.394 . S
C497 H489 0.949 . S
C497 C496 1.428 . S
C497 C498 1.345 . S
C498 H490 0.950 . S
C498 C497 1.345 . S
C498 C499 1.424 . S
C499 H491 0.951 . S
C499 C498 1.424 . S
C499 C500 1.347 . S
C500 H492 0.951 . S
C500 C495 1.429 . S
C500 C499 1.347 . S
H501 C502 0.951 . S
C502 H501 0.951 . S
C502 C508 1.265 . S
H503 C508 0.950 . S
H504 C512 0.949 . S
H505 C513 0.950 . S
H506 C514 0.951 . S
H507 C515 0.951 . S
C508 C502 1.265 . S
C508 H503 0.950 . S
C508 C509 1.478 . S
C509 C496 1.394 . S
C509 C508 1.478 . S
C509 C510 1.397 . S
C510 C509 1.397 . S
C510 C511 1.438 . S
C510 C515 1.429 . S
C511 C494 1.394 . S
C511 C510 1.438 . S
C511 C512 1.428 . S
C512 H504 0.949 . S
C512 C511 1.428 . S
C512 C513 1.345 . S
C513 H505 0.950 . S
C513 C512 1.345 . S
C513 C514 1.424 . S
C514 H506 0.951 . S
C514 C513 1.424 . S
C514 C515 1.347 . S
C515 H507 0.951 . S
C515 C510 1.429 . S
C515 C514 1.347 . S
H516 C517 0.951 . S
C517 H516 0.951 . S
C517 C523 1.265 . S
H518 C523 0.950 . S
H519 C527 0.949 . S
H520 C528 0.950 . S
H521 C529 0.951 . S
H522 C530 0.951 . S
C523 C517 1.265 . S
C523 H518 0.950 . S
C523 C524 1.478 . S
C524 C523 1.478 . S
C524 C525 1.397 . S
C524 C541 1.394 . S
C525 C524 1.397 . S
C525 C526 1.438 . S
C525 C530 1.429 . S
C526 C525 1.438 . S
C526 C527 1.428 . S
C526 C539 1.394 . S
C527 H519 0.949 . S
C527 C526 1.428 . S
C527 C528 1.345 . S
C528 H520 0.950 . S
C528 C527 1.345 . S
C528 C529 1.424 . S
C529 H521 0.951 . S
C529 C528 1.424 . S
C529 C530 1.347 . S
C530 H522 0.951 . S
C530 C525 1.429 . S
C530 C529 1.347 . S
H531 C532 0.951 . S
C532 H531 0.951 . S
C532 C538 1.265 . S
H533 C538 0.950 . S
H534 C542 0.949 . S
H535 C543 0.950 . S
H536 C544 0.951 . S
H537 C545 0.951 . S
C538 C532 1.265 . S
C538 H533 0.950 . S
C538 C539 1.478 . S
C539 C526 1.394 . S
C539 C538 1.478 . S
C539 C540 1.397 . S
C540 C539 1.397 . S
C540 C541 1.438 . S
C540 C545 1.429 . S
C541 C524 1.394 . S
C541 C540 1.438 . S
C541 C542 1.428 . S
C542 H534 0.949 . S
C542 C541 1.428 . S
C542 C543 1.345 . S
C543 H535 0.950 . S
C543 C542 1.345 . S
C543 C544 1.424 . S
C544 H536 0.951 . S
C544 C543 1.424 . S
C544 C545 1.347 . S
C545 H537 0.951 . S
C545 C540 1.429 . S
C545 C544 1.347 . S
H546 C547 0.951 . S
C547 H546 0.951 . S
C547 C553 1.265 . S
H548 C553 0.950 . S
H549 C557 0.949 . S
H550 C558 0.950 . S
H551 C559 0.951 . S
H552 C560 0.951 . S
C553 C547 1.265 . S
C553 H548 0.950 . S
C553 C554 1.478 . S
C554 C553 1.478 . S
C554 C555 1.397 1_556 S
C554 C571 1.394 . S
C555 C554 1.397 1_554 S
C555 C556 1.438 . S
C555 C560 1.429 . S
C556 C555 1.438 . S
C556 C557 1.428 . S
C556 C569 1.394 1_554 S
C557 H549 0.949 . S
C557 C556 1.428 . S
C557 C558 1.345 . S
C558 H550 0.950 . S
C558 C557 1.345 . S
C558 C559 1.424 . S
C559 H551 0.951 . S
C559 C558 1.424 . S
C559 C560 1.347 . S
C560 H552 0.951 . S
C560 C555 1.429 . S
C560 C559 1.347 . S
H561 C562 0.951 . S
C562 H561 0.951 . S
C562 C568 1.265 . S
H563 C568 0.950 . S
H564 C572 0.949 . S
H565 C573 0.950 . S
H566 C574 0.951 . S
H567 C575 0.951 . S
C568 C562 1.265 . S
C568 H563 0.950 . S
C568 C569 1.478 1_554 S
C569 C556 1.394 1_556 S
C569 C568 1.478 1_556 S
C569 C570 1.397 . S
C570 C569 1.397 . S
C570 C571 1.438 . S
C570 C575 1.429 . S
C571 C554 1.394 . S
C571 C570 1.438 . S
C571 C572 1.428 . S
C572 H564 0.949 . S
C572 C571 1.428 . S
C572 C573 1.345 . S
C573 H565 0.950 . S
C573 C572 1.345 . S
C573 C574 1.424 . S
C574 H566 0.951 . S
C574 C573 1.424 . S
C574 C575 1.347 . S
C575 H567 0.951 . S
C575 C570 1.429 . S
C575 C574 1.347 . S
C217 C2 1.565 . S
C232 C112 1.575 . S
C247 C38 1.584 . S
C262 C148 1.571 . S
C277 C184 1.582 . S
C292 C74 1.601 . S
C307 C4 1.601 . S
C322 C110 1.596 . S
C337 C40 1.599 . S
C352 C146 1.567 . S
C367 C182 1.566 1_554 S
C382 C76 1.597 . S
C397 C50 1.351 . S
C412 C3 1.349 . S
C427 C86 1.305 . S
C442 C39 1.352 . S
C457 C75 1.345 . S
C472 C122 1.355 . S
C487 C158 1.341 . S
C502 C111 1.353 . S
C517 C194 1.272 . S
C532 C147 1.372 . S
C547 C183 1.345 . S
C562 C14 1.355 . S
