# Generated by pormake.
# Topology ske, (6)-cn, num edge types: 1
# Building blocks:
#     Node 0, Type 0, BuildingBlock: MIFKUJ_clean_sbu_0, # of connection points: 6
#     Node 1, Type 0, BuildingBlock: MIFKUJ_clean_sbu_0, # of connection points: 6
#     Node 2, Type 0, BuildingBlock: MIFKUJ_clean_sbu_0, # of connection points: 6
#     Node 3, Type 0, BuildingBlock: MIFKUJ_clean_sbu_0, # of connection points: 6
#     Node 4, Type 0, BuildingBlock: MIFKUJ_clean_sbu_0, # of connection points: 6
#     Node 5, Type 0, BuildingBlock: MIFKUJ_clean_sbu_0, # of connection points: 6
#     Node 6, Type 0, BuildingBlock: MIFKUJ_clean_sbu_0, # of connection points: 6
#     Node 7, Type 0, BuildingBlock: MIFKUJ_clean_sbu_0, # of connection points: 6
#     Edge 8, Type (0, 0), BuildingBlock: UVAHIK_clean_linker_0, # of connection points: 2
#     Edge 9, Type (0, 0), BuildingBlock: UVAHIK_clean_linker_0, # of connection points: 2
#     Edge 10, Type (0, 0), BuildingBlock: UVAHIK_clean_linker_0, # of connection points: 2
#     Edge 11, Type (0, 0), BuildingBlock: UVAHIK_clean_linker_0, # of connection points: 2
#     Edge 12, Type (0, 0), BuildingBlock: UVAHIK_clean_linker_0, # of connection points: 2
#     Edge 13, Type (0, 0), BuildingBlock: UVAHIK_clean_linker_0, # of connection points: 2
#     Edge 14, Type (0, 0), BuildingBlock: UVAHIK_clean_linker_0, # of connection points: 2
#     Edge 15, Type (0, 0), BuildingBlock: UVAHIK_clean_linker_0, # of connection points: 2
#     Edge 16, Type (0, 0), BuildingBlock: UVAHIK_clean_linker_0, # of connection points: 2
#     Edge 17, Type (0, 0), BuildingBlock: UVAHIK_clean_linker_0, # of connection points: 2
#     Edge 18, Type (0, 0), BuildingBlock: UVAHIK_clean_linker_0, # of connection points: 2
#     Edge 19, Type (0, 0), BuildingBlock: UVAHIK_clean_linker_0, # of connection points: 2
#     Edge 20, Type (0, 0), BuildingBlock: UVAHIK_clean_linker_0, # of connection points: 2
#     Edge 21, Type (0, 0), BuildingBlock: UVAHIK_clean_linker_0, # of connection points: 2
#     Edge 22, Type (0, 0), BuildingBlock: UVAHIK_clean_linker_0, # of connection points: 2
#     Edge 23, Type (0, 0), BuildingBlock: UVAHIK_clean_linker_0, # of connection points: 2
#     Edge 24, Type (0, 0), BuildingBlock: UVAHIK_clean_linker_0, # of connection points: 2
#     Edge 25, Type (0, 0), BuildingBlock: UVAHIK_clean_linker_0, # of connection points: 2
#     Edge 26, Type (0, 0), BuildingBlock: UVAHIK_clean_linker_0, # of connection points: 2
#     Edge 27, Type (0, 0), BuildingBlock: UVAHIK_clean_linker_0, # of connection points: 2
#     Edge 28, Type (0, 0), BuildingBlock: UVAHIK_clean_linker_0, # of connection points: 2
#     Edge 29, Type (0, 0), BuildingBlock: UVAHIK_clean_linker_0, # of connection points: 2
#     Edge 30, Type (0, 0), BuildingBlock: UVAHIK_clean_linker_0, # of connection points: 2
#     Edge 31, Type (0, 0), BuildingBlock: UVAHIK_clean_linker_0, # of connection points: 2
# Relax obj value: 0.133
# Max RMSD: 0.176
# Mean RMSD: 0.154
data_MOF--net-ske--node1-MIFKUJ_clean_sbu_0--edge1-UVAHIK_clean_linker_0
_symmetry_space_group_name_H-M    P1
_symmetry_Int_Tables_number       1
_symmetry_cell_setting            triclinic
loop_
_symmetry_equiv_pos_as_xyz
'x, y, z'
_cell_length_a     88.707549
_cell_length_b     36.726161
_cell_length_c     21.655715
_cell_angle_alpha  91.08275
_cell_angle_beta   89.965437
_cell_angle_gamma 84.616385
loop_
_atom_site_label
_atom_site_type_symbol
_atom_site_fract_x
_atom_site_fract_y
_atom_site_fract_z
_atom_type_partial_charge
Zn0 Zn 0.15061 0.24413 0.60429 0.0
Zn1 Zn 0.11351 0.25445 0.49863 0.0
C2 C 0.14389 0.27513 0.72281 0.0
O3 O 0.15393 0.29649 0.70347 0.0
C4 C 0.11182 0.25153 0.37004 0.0
O5 O 0.10441 0.22393 0.38663 0.0
O6 O 0.17271 0.23614 0.62501 0.0
O7 O 0.14387 0.19954 0.55674 0.0
O8 O 0.12249 0.20223 0.50099 0.0
C9 C 0.17921 0.20635 0.64483 0.0
O10 O 0.17149 0.17766 0.64893 0.0
O11 O 0.13987 0.25021 0.68649 0.0
C12 C 0.0824 0.28267 0.48778 0.0
O13 O 0.08849 0.30536 0.45113 0.0
O14 O 0.09097 0.25832 0.51504 0.0
O15 O 0.12442 0.2804 0.5619 0.0
O16 O 0.14794 0.29113 0.55827 0.0
O17 O 0.11727 0.27116 0.41197 0.0
C18 C 0.13437 0.1845 0.52243 0.0
C19 C 0.13435 0.30033 0.54384 0.0
Zn20 Zn 0.89283 0.24474 0.45494 0.0
Zn21 Zn 0.85405 0.24781 0.56193 0.0
C22 C 0.8956 0.21915 0.32837 0.0
O23 O 0.90205 0.1893 0.35332 0.0
C24 C 0.85984 0.25931 0.68717 0.0
O25 O 0.85049 0.28814 0.67475 0.0
O26 O 0.91409 0.25359 0.47897 0.0
O27 O 0.8774 0.28377 0.49137 0.0
O28 O 0.85675 0.30038 0.5451 0.0
C29 C 0.92135 0.27593 0.44948 0.0
O30 O 0.91461 0.29428 0.40413 0.0
O31 O 0.89087 0.2461 0.36303 0.0
C32 C 0.82714 0.21912 0.60514 0.0
O33 O 0.8371 0.19841 0.63687 0.0
O34 O 0.8318 0.24115 0.56641 0.0
O35 O 0.8655 0.22056 0.49412 0.0
O36 O 0.88844 0.19492 0.48408 0.0
O37 O 0.86355 0.23623 0.64413 0.0
C38 C 0.86795 0.30891 0.51341 0.0
C39 C 0.87498 0.1932 0.50274 0.0
Zn40 Zn 0.14606 0.7364 0.41693 0.0
Zn41 Zn 0.11083 0.74851 0.51409 0.0
C42 C 0.1395 0.72842 0.292 0.0
O43 O 0.14739 0.6975 0.30542 0.0
C44 C 0.11252 0.77624 0.6407 0.0
O45 O 0.10505 0.80545 0.61768 0.0
O46 O 0.16846 0.7297 0.39913 0.0
O47 O 0.14277 0.77554 0.48274 0.0
O48 O 0.11847 0.79188 0.47218 0.0
C49 C 0.1741 0.75581 0.37233 0.0
O50 O 0.16533 0.78583 0.36131 0.0
O51 O 0.13656 0.75207 0.33513 0.0
C52 C 0.08015 0.73641 0.54319 0.0
O53 O 0.08702 0.71139 0.57865 0.0
O54 O 0.08808 0.75594 0.51077 0.0
O55 O 0.11664 0.69737 0.48084 0.0
O56 O 0.13918 0.68744 0.43543 0.0
O57 O 0.11655 0.74919 0.60486 0.0
C58 C 0.13206 0.80005 0.47301 0.0
C59 C 0.12706 0.67595 0.45559 0.0
Zn60 Zn 0.85285 0.75416 0.43309 0.0
Zn61 Zn 0.88722 0.74999 0.53338 0.0
C62 C 0.8572 0.76733 0.30682 0.0
O63 O 0.84632 0.79278 0.32163 0.0
C64 C 0.88837 0.7187 0.65635 0.0
O65 O 0.90095 0.70083 0.63565 0.0
O66 O 0.83062 0.75316 0.41474 0.0
O67 O 0.85888 0.71155 0.48726 0.0
O68 O 0.8836 0.70783 0.47608 0.0
C69 C 0.82622 0.72483 0.38831 0.0
O70 O 0.83613 0.69656 0.37729 0.0
O71 O 0.86297 0.74692 0.34918 0.0
C72 C 0.91723 0.77222 0.50545 0.0
O73 O 0.90995 0.79437 0.46627 0.0
O74 O 0.90983 0.75155 0.53791 0.0
O75 O 0.87775 0.80074 0.51687 0.0
O76 O 0.85571 0.80401 0.46754 0.0
O77 O 0.88046 0.73953 0.62005 0.0
C78 C 0.87125 0.69301 0.47356 0.0
C79 C 0.86605 0.81914 0.49608 0.0
Zn80 Zn 0.64545 0.75432 0.11112 0.0
Zn81 Zn 0.61072 0.75703 0.01859 0.0
C82 C 0.63992 0.76728 0.23746 0.0
O83 O 0.64718 0.79526 0.2215 0.0
C84 C 0.61414 0.73027 0.89172 0.0
O85 O 0.6062 0.70461 0.91254 0.0
O86 O 0.66784 0.75482 0.12614 0.0
O87 O 0.64302 0.71281 0.05029 0.0
O88 O 0.61848 0.71115 0.06298 0.0
C89 C 0.67578 0.72516 0.13802 0.0
O90 O 0.66934 0.69436 0.13671 0.0
O91 O 0.63702 0.744 0.1958 0.0
C92 C 0.57901 0.7831 1.00272 0.0
O93 O 0.5844 0.81457 0.99265 0.0
O94 O 0.58811 0.75532 0.01474 0.0
O95 O 0.61432 0.80652 0.05425 0.0
O96 O 0.63778 0.80584 0.0904 0.0
O97 O 0.61794 0.75491 0.9292 0.0
C98 C 0.63153 0.69478 0.05324 0.0
C99 C 0.62525 0.82301 0.07533 0.0
Zn100 Zn 0.38815 0.75158 0.95637 0.0
Zn101 Zn 0.34985 0.75375 0.065 0.0
C102 C 0.38903 0.7239 0.83059 0.0
O103 O 0.39361 0.69268 0.85626 0.0
C104 C 0.35804 0.76833 0.18756 0.0
O105 O 0.34937 0.79829 0.17532 0.0
O106 O 0.40932 0.76321 0.97767 0.0
O107 O 0.37201 0.78767 0.99279 0.0
O108 O 0.35156 0.80668 0.04453 0.0
C109 C 0.41969 0.73687 0.97466 0.0
O110 O 0.41597 0.70388 0.96099 0.0
O111 O 0.38598 0.7522 0.86454 0.0
C112 C 0.32424 0.7214 0.11354 0.0
O113 O 0.33498 0.70008 0.13995 0.0
O114 O 0.32789 0.74544 0.0762 0.0
O115 O 0.36052 0.7238 0.99666 0.0
O116 O 0.38421 0.70212 0.9882 0.0
O117 O 0.36041 0.74385 0.14557 0.0
C118 C 0.36276 0.81393 0.01178 0.0
C119 C 0.37086 0.6983 0.00659 0.0
Zn120 Zn 0.64883 0.24064 0.89579 0.0
Zn121 Zn 0.61146 0.24356 0.00399 0.0
C122 C 0.6443 0.21104 0.77643 0.0
O123 O 0.65524 0.18758 0.7963 0.0
C124 C 0.60997 0.24643 0.13317 0.0
O125 O 0.6017 0.27654 0.11825 0.0
O126 O 0.67086 0.2446 0.87924 0.0
O127 O 0.63963 0.28702 0.94251 0.0
O128 O 0.61863 0.29371 1.00079 0.0
C129 C 0.67486 0.26668 0.83924 0.0
O130 O 0.66443 0.28867 0.81229 0.0
O131 O 0.63902 0.23687 0.81246 0.0
C132 C 0.58063 0.22641 0.0176 0.0
O133 O 0.5869 0.20402 0.05884 0.0
O134 O 0.58899 0.2456 0.98639 0.0
O135 O 0.62406 0.21606 0.94187 0.0
O136 O 0.64739 0.19351 0.94023 0.0
O137 O 0.61583 0.22567 0.09021 0.0
C138 C 0.63008 0.30662 0.97647 0.0
C139 C 0.63396 0.19102 0.95784 0.0
Zn140 Zn 0.3537 0.25192 0.94634 0.0
Zn141 Zn 0.38852 0.25074 0.04643 0.0
C142 C 0.35805 0.26318 0.82021 0.0
O143 O 0.34706 0.28842 0.83463 0.0
C144 C 0.39057 0.2204 0.17023 0.0
O145 O 0.40295 0.20211 0.14853 0.0
O146 O 0.33161 0.24787 0.92923 0.0
O147 O 0.36054 0.2126 0.00549 0.0
O148 O 0.38514 0.20694 0.99263 0.0
C149 C 0.32802 0.21859 0.90324 0.0
O150 O 0.33866 0.19203 0.89139 0.0
O151 O 0.36392 0.24322 0.86293 0.0
C152 C 0.41781 0.27147 0.0066 0.0
O153 O 0.40994 0.28866 0.96279 0.0
O154 O 0.41097 0.25436 0.04686 0.0
O155 O 0.378 0.30033 0.027 0.0
O156 O 0.35613 0.30292 0.97632 0.0
O157 O 0.38254 0.24135 0.13448 0.0
C158 C 0.37253 0.1934 0.98913 0.0
C159 C 0.36641 0.31845 0.00458 0.0
C160 C 0.20148 0.23818 0.67975 0.0
C161 C 0.19486 0.20536 0.66876 0.0
C162 C 0.2158 0.2378 0.70641 0.0
C163 C 0.25137 0.18174 0.73015 0.0
H164 H 0.25607 0.24775 0.86928 0.0
C165 C 0.30784 0.18133 0.86277 0.0
C166 C 0.31234 0.21538 0.88217 0.0
C167 C 0.29329 0.17854 0.83954 0.0
C168 C 0.25504 0.22948 0.83001 0.0
H169 H 0.19827 0.14632 0.67551 0.0
H170 H 0.22355 0.14569 0.72122 0.0
H171 H 0.23135 0.24593 0.821 0.0
H172 H 0.30511 0.27321 0.89268 0.0
H173 H 0.27992 0.26862 0.85063 0.0
H174 H 0.27511 0.16604 0.73762 0.0
C175 C 0.21753 0.17166 0.70947 0.0
C176 C 0.24085 0.22836 0.80255 0.0
C177 C 0.20306 0.17204 0.68351 0.0
C178 C 0.30194 0.24653 0.87858 0.0
C179 C 0.28745 0.24382 0.8547 0.0
C180 C 0.26563 0.18317 0.75711 0.0
C181 C 0.22392 0.2046 0.72198 0.0
C182 C 0.23889 0.20466 0.75215 0.0
C183 C 0.28295 0.20982 0.83453 0.0
C184 C 0.26767 0.20724 0.8072 0.0
H185 H 0.19546 0.26433 0.66904 0.0
H186 H 0.22055 0.26355 0.7149 0.0
H187 H 0.25018 0.16343 0.691 0.0
H188 H 0.31558 0.15678 0.86533 0.0
H189 H 0.29015 0.15181 0.8256 0.0
C190 C 0.70162 0.23827 0.84253 0.0
C191 C 0.69079 0.26448 0.8181 0.0
C192 C 0.7163 0.23369 0.81848 0.0
C193 C 0.74393 0.2783 0.72539 0.0
H194 H 0.76149 0.17874 0.69566 0.0
C195 C 0.80038 0.24688 0.59453 0.0
C196 C 0.81087 0.22066 0.62104 0.0
C197 C 0.78539 0.25132 0.61529 0.0
C198 C 0.7568 0.20669 0.70412 0.0
H199 H 0.68704 0.30734 0.75071 0.0
H200 H 0.71268 0.29928 0.70868 0.0
H201 H 0.7363 0.18964 0.7413 0.0
H202 H 0.81368 0.1775 0.68829 0.0
H203 H 0.78758 0.18536 0.72457 0.0
H204 H 0.76446 0.29535 0.68855 0.0
C205 C 0.70982 0.28236 0.74658 0.0
C206 C 0.74238 0.21294 0.7304 0.0
C207 C 0.69511 0.28689 0.77055 0.0
C208 C 0.80589 0.19797 0.66689 0.0
C209 C 0.7909 0.20238 0.68756 0.0
C210 C 0.75836 0.27204 0.69915 0.0
C211 C 0.72049 0.25528 0.76959 0.0
C212 C 0.73581 0.24881 0.74158 0.0
C213 C 0.78055 0.22958 0.66284 0.0
C214 C 0.76498 0.23616 0.68841 0.0
H215 H 0.69869 0.22066 0.87937 0.0
H216 H 0.72435 0.21305 0.83795 0.0
H217 H 0.73924 0.30623 0.73406 0.0
H218 H 0.80384 0.26473 0.55899 0.0
H219 H 0.77761 0.2721 0.59459 0.0
C220 C 0.30419 0.69347 0.17318 0.0
C221 C 0.3083 0.72066 0.13333 0.0
C222 C 0.28949 0.69487 0.19708 0.0
C223 C 0.2504 0.73923 0.17655 0.0
H224 H 0.2461 0.71638 0.34947 0.0
C225 C 0.19521 0.77846 0.31172 0.0
C226 C 0.18985 0.75144 0.34886 0.0
C227 C 0.20968 0.77345 0.28575 0.0
C228 C 0.24711 0.72251 0.30099 0.0
H229 H 0.30008 0.77014 0.08605 0.0
H230 H 0.27459 0.77297 0.12844 0.0
H231 H 0.27109 0.70902 0.30132 0.0
H232 H 0.19567 0.69836 0.38922 0.0
H233 H 0.22106 0.68977 0.34411 0.0
H234 H 0.22644 0.75344 0.17675 0.0
C235 C 0.28261 0.75019 0.14058 0.0
C236 C 0.26142 0.71817 0.27326 0.0
C237 C 0.29727 0.74865 0.11639 0.0
C238 C 0.19946 0.71969 0.36079 0.0
C239 C 0.214 0.71481 0.33513 0.0
C240 C 0.23612 0.74381 0.2044 0.0
C241 C 0.27859 0.72361 0.18194 0.0
C242 C 0.26326 0.72667 0.21074 0.0
C243 C 0.21918 0.74143 0.29664 0.0
C244 C 0.23433 0.73572 0.267 0.0
H245 H 0.31239 0.6714 0.18686 0.0
H246 H 0.28672 0.67355 0.22783 0.0
H247 H 0.25134 0.74541 0.12808 0.0
H248 H 0.18813 0.80329 0.30171 0.0
H249 H 0.21345 0.79469 0.25706 0.0
C250 C 0.69764 0.7589 0.17293 0.0
C251 C 0.6917 0.72565 0.15821 0.0
C252 C 0.71231 0.75916 0.19639 0.0
C253 C 0.74903 0.70411 0.2073 0.0
H254 H 0.75474 0.76451 0.35269 0.0
C255 C 0.80521 0.69227 0.3424 0.0
C256 C 0.81049 0.72471 0.36557 0.0
C257 C 0.79066 0.69247 0.31761 0.0
C258 C 0.75342 0.74786 0.31161 0.0
H259 H 0.69665 0.66666 0.15493 0.0
H260 H 0.72231 0.6672 0.19536 0.0
H261 H 0.72975 0.76537 0.30571 0.0
H262 H 0.80461 0.78281 0.38123 0.0
H263 H 0.77937 0.78334 0.33689 0.0
H264 H 0.77269 0.68691 0.21248 0.0
C265 C 0.7156 0.69303 0.18878 0.0
C266 C 0.73908 0.74833 0.28476 0.0
C267 C 0.70088 0.69274 0.16587 0.0
C268 C 0.80084 0.75729 0.36416 0.0
C269 C 0.78633 0.75755 0.33891 0.0
C270 C 0.7634 0.70385 0.23383 0.0
C271 C 0.7214 0.72621 0.20504 0.0
C272 C 0.73672 0.72637 0.23247 0.0
C273 C 0.78108 0.72518 0.31492 0.0
C274 C 0.76578 0.7256 0.28651 0.0
H275 H 0.69085 0.78474 0.16761 0.0
H276 H 0.71654 0.78517 0.20787 0.0
H277 H 0.74759 0.68721 0.16658 0.0
H278 H 0.81234 0.66667 0.34312 0.0
H279 H 0.78691 0.66689 0.30072 0.0
C280 C 0.1238 0.86488 0.44712 0.0
C281 C 0.13528 0.83852 0.46613 0.0
C282 C 0.12656 0.90153 0.44328 0.0
C283 C 0.14949 0.96777 0.51281 0.0
H284 H 0.1335 0.02952 0.38029 0.0
C285 C 0.15061 0.12469 0.52502 0.0
C286 C 0.13708 0.14491 0.50748 0.0
C287 C 0.15291 0.08713 0.5121 0.0
C288 C 0.13798 0.01268 0.41778 0.0
H289 H 0.1588 0.82979 0.49428 0.0
H290 H 0.16352 0.89419 0.48855 0.0
H291 H 0.13296 0.96332 0.3711 0.0
H292 H 0.1155 0.14149 0.46145 0.0
H293 H 0.11935 0.0762 0.4404 0.0
H294 H 0.15385 0.01703 0.56092 0.0
C295 C 0.15241 0.88629 0.47663 0.0
C296 C 0.13772 0.97481 0.41235 0.0
C297 C 0.1497 0.84948 0.4798 0.0
C298 C 0.12606 0.12684 0.4757 0.0
C299 C 0.12833 0.08936 0.46306 0.0
C300 C 0.14964 0.00568 0.5185 0.0
C301 C 0.14082 0.91268 0.45886 0.0
C302 C 0.14311 0.95209 0.4605 0.0
C303 C 0.14172 0.06897 0.48147 0.0
C304 C 0.1435 0.02864 0.47176 0.0
H305 H 0.1126 0.8573 0.43591 0.0
H306 H 0.11737 0.92137 0.43011 0.0
H307 H 0.15362 0.95089 0.55084 0.0
H308 H 0.15941 0.13779 0.54896 0.0
H309 H 0.16343 0.07231 0.52625 0.0
C310 C 0.88268 0.35821 0.47245 0.0
C311 C 0.86931 0.34752 0.49863 0.0
C312 C 0.8838 0.39476 0.4578 0.0
C313 C 0.86074 0.48065 0.42528 0.0
H314 H 0.89484 0.52816 0.48951 0.0
C315 C 0.85831 0.63546 0.46755 0.0
C316 C 0.87152 0.65331 0.46078 0.0
C317 C 0.85877 0.5976 0.45978 0.0
C318 C 0.8854 0.51523 0.46998 0.0
H319 H 0.84661 0.36663 0.52958 0.0
H320 H 0.84857 0.43026 0.50385 0.0
H321 H 0.89447 0.46225 0.49909 0.0
H322 H 0.89542 0.64567 0.43733 0.0
H323 H 0.89615 0.57952 0.42298 0.0
H324 H 0.85153 0.53359 0.39694 0.0
C325 C 0.85814 0.41037 0.49432 0.0
C326 C 0.88519 0.47748 0.47567 0.0
C327 C 0.85708 0.374 0.50958 0.0
C328 C 0.88507 0.63266 0.44362 0.0
C329 C 0.88551 0.59476 0.43557 0.0
C330 C 0.861 0.51833 0.41913 0.0
C331 C 0.8715 0.42111 0.46838 0.0
C332 C 0.87266 0.46005 0.45493 0.0
C333 C 0.87242 0.57673 0.44468 0.0
C334 C 0.87313 0.5362 0.44302 0.0
H335 H 0.8923 0.33841 0.46369 0.0
H336 H 0.89422 0.40239 0.43782 0.0
H337 H 0.85107 0.46769 0.40796 0.0
H338 H 0.84768 0.65057 0.48065 0.0
H339 H 0.84851 0.58458 0.46801 0.0
C340 C 0.85014 0.87935 0.49787 0.0
C341 C 0.86405 0.85897 0.50918 0.0
C342 C 0.84816 0.91672 0.51251 0.0
C343 C 0.86542 0.98977 0.60204 0.0
H344 H 0.84639 0.05333 0.47796 0.0
C345 C 0.88151 0.13316 0.55247 0.0
C346 C 0.87045 0.15969 0.53091 0.0
C347 C 0.87763 0.09852 0.56776 0.0
C348 C 0.8514 0.03604 0.51392 0.0
H349 H 0.88682 0.86197 0.54442 0.0
H350 H 0.88351 0.92709 0.56812 0.0
H351 H 0.84559 0.98759 0.46723 0.0
H352 H 0.84651 0.17181 0.51242 0.0
H353 H 0.8397 0.11111 0.53916 0.0
H354 H 0.87199 0.03841 0.64661 0.0
C355 C 0.87398 0.91411 0.54957 0.0
C356 C 0.85097 -0.00172 0.5077 0.0
C357 C 0.87593 0.87679 0.53529 0.0
C358 C 0.85525 0.15189 0.52917 0.0
C359 C 0.85137 0.11712 0.54407 0.0
C360 C 0.86594 0.02756 0.60801 0.0
C361 C 0.86007 0.93454 0.53845 0.0
C362 C 0.85843 0.97464 0.55053 0.0
C363 C 0.86262 0.08971 0.56121 0.0
C364 C 0.85936 0.05094 0.56289 0.0
H365 H 0.84071 0.86641 0.47827 0.0
H366 H 0.83727 0.93161 0.50377 0.0
H367 H 0.87095 0.97233 0.63667 0.0
H368 H 0.89331 0.13853 0.55451 0.0
H369 H 0.88657 0.07789 0.58036 0.0
C370 C 0.1112 0.62331 0.46593 0.0
C371 C 0.12502 0.63648 0.44964 0.0
C372 C 0.10937 0.58599 0.46117 0.0
C373 C 0.12686 0.49765 0.39431 0.0
H374 H 0.10807 0.45651 0.53531 0.0
C375 C 0.14148 0.35181 0.4796 0.0
C376 C 0.13022 0.33379 0.50869 0.0
C377 C 0.13809 0.38682 0.45642 0.0
C378 C 0.11303 0.46753 0.49481 0.0
H379 H 0.14765 0.62071 0.4144 0.0
H380 H 0.14461 0.55569 0.40783 0.0
H381 H 0.10743 0.52243 0.52693 0.0
H382 H 0.10642 0.33718 0.53292 0.0
H383 H 0.10045 0.39827 0.49184 0.0
H384 H 0.13312 0.44237 0.36412 0.0
C385 C 0.13506 0.57423 0.42304 0.0
C386 C 0.11269 0.50542 0.49002 0.0
C387 C 0.13686 0.61154 0.42745 0.0
C388 C 0.1153 0.35033 0.51033 0.0
C389 C 0.11191 0.38542 0.48732 0.0
C390 C 0.12728 0.45968 0.39932 0.0
C391 C 0.12134 0.56095 0.44035 0.0
C392 C 0.11995 0.52094 0.44062 0.0
C393 C 0.1234 0.40454 0.46226 0.0
C394 C 0.12071 0.44425 0.4505 0.0
H395 H 0.10178 0.64179 0.4826 0.0
H396 H 0.09859 0.57675 0.47412 0.0
H397 H 0.13228 0.50875 0.35497 0.0
H398 H 0.15308 0.33963 0.47747 0.0
H399 H 0.14722 0.40092 0.43777 0.0
C400 C 0.62128 0.63404 0.06338 0.0
C401 C 0.63338 0.65435 0.04817 0.0
C402 C 0.6229 0.59593 0.05905 0.0
C403 C 0.64366 0.51896 0.97889 0.0
H404 H 0.62852 0.46275 0.1114 0.0
C405 C 0.64523 0.36075 0.96585 0.0
C406 C 0.63222 0.34577 0.98743 0.0
C407 C 0.64711 0.39777 0.97626 0.0
C408 C 0.63269 0.47802 0.07373 0.0
H409 H 0.65666 0.65049 0.01602 0.0
H410 H 0.65938 0.58359 0.00751 0.0
H411 H 0.62859 0.52881 0.12377 0.0
H412 H 0.61099 0.35816 0.0368 0.0
H413 H 0.61411 0.42249 0.05358 0.0
H414 H 0.64725 0.46839 0.92786 0.0
C415 C 0.64869 0.5974 0.02309 0.0
C416 C 0.63278 0.51583 0.08098 0.0
C417 C 0.64713 0.63563 0.02817 0.0
C418 C 0.62119 0.36864 0.01971 0.0
C419 C 0.62304 0.40558 0.02982 0.0
C420 C 0.64345 0.48109 0.97137 0.0
C421 C 0.6366 0.57722 0.03879 0.0
C422 C 0.63799 0.53677 0.03321 0.0
C423 C 0.63602 0.42064 0.00833 0.0
C424 C 0.63766 0.46028 0.01825 0.0
H425 H 0.61053 0.64755 0.07891 0.0
H426 H 0.61333 0.58108 0.07067 0.0
H427 H 0.64766 0.53451 0.9412 0.0
H428 H 0.65399 0.34388 0.94104 0.0
H429 H 0.65732 0.40838 0.95961 0.0
C430 C 0.35282 0.87961 0.00567 0.0
C431 C 0.36445 0.85179 0.99325 0.0
C432 C 0.35437 0.91548 0.9886 0.0
C433 C 0.38284 0.97826 0.96381 0.0
H434 H 0.349 0.04013 0.89804 0.0
C435 C 0.35864 0.13753 0.97948 0.0
C436 C 0.37199 0.15459 0.97105 0.0
C437 C 0.35834 0.10029 0.96651 0.0
C438 C 0.35855 0.02321 0.91641 0.0
H439 H 0.38677 0.83959 0.95261 0.0
H440 H 0.38956 0.9027 0.92364 0.0
H441 H 0.34735 0.97437 0.9051 0.0
H442 H 0.39532 0.14636 0.93971 0.0
H443 H 0.39476 0.08116 0.91669 0.0
H444 H 0.39376 0.02714 0.97817 0.0
C445 C 0.37924 0.89654 0.94637 0.0
C446 C 0.35761 0.98562 0.92032 0.0
C447 C 0.37763 0.86051 0.96292 0.0
C448 C 0.3849 0.13388 0.94729 0.0
C449 C 0.38459 0.09656 0.93417 0.0
C450 C 0.38375 0.01591 0.9603 0.0
C451 C 0.36763 0.92435 0.9592 0.0
C452 C 0.36956 0.96298 0.9458 0.0
C453 C 0.37138 0.07923 0.94471 0.0
C454 C 0.37142 0.03893 0.9384 0.0
H455 H 0.34252 0.87376 0.02884 0.0
H456 H 0.34534 0.93648 0.99994 0.0
H457 H 0.39218 0.96146 0.98401 0.0
H458 H 0.34851 0.15267 0.99793 0.0
H459 H 0.34804 0.08775 0.97615 0.0
C460 C 0.35062 0.37879 1.00255 0.0
C461 C 0.36449 0.35854 0.01514 0.0
C462 C 0.34871 0.41646 0.01461 0.0
C463 C 0.36595 0.49112 0.09995 0.0
H464 H 0.34596 0.55258 0.97519 0.0
C465 C 0.37893 0.63774 0.05198 0.0
C466 C 0.36724 0.66317 0.03193 0.0
C467 C 0.376 0.60209 0.06538 0.0
C468 C 0.35127 0.53584 0.01123 0.0
H469 H 0.38727 0.36212 0.04976 0.0
H470 H 0.3841 0.42775 0.06899 0.0
H471 H 0.34597 0.48652 0.96587 0.0
H472 H 0.34312 0.67208 0.01432 0.0
H473 H 0.33801 0.60953 0.03756 0.0
H474 H 0.37193 0.54067 0.14336 0.0
C475 C 0.37454 0.41446 0.05143 0.0
C476 C 0.3513 0.49791 0.00585 0.0
C477 C 0.37641 0.37682 0.03978 0.0
C478 C 0.35236 0.65302 0.02962 0.0
C479 C 0.34944 0.61722 0.04258 0.0
C480 C 0.36602 0.52907 0.10505 0.0
C481 C 0.36066 0.43475 0.03913 0.0
C482 C 0.359 0.47505 0.04922 0.0
C483 C 0.36134 0.59111 0.05852 0.0
C484 C 0.35901 0.55173 0.05986 0.0
H485 H 0.34116 0.36551 0.984 0.0
H486 H 0.33784 0.4312 0.00512 0.0
H487 H 0.37168 0.47432 0.13496 0.0
H488 H 0.39049 0.6449 0.05454 0.0
H489 H 0.38542 0.58252 0.07716 0.0
C490 C 0.61515 0.15145 0.99972 0.0
C491 C 0.63015 0.16055 0.99657 0.0
C492 C 0.61184 0.11892 0.02684 0.0
C493 C 0.61182 0.03659 0.02848 0.0
H494 H 0.63348 0.98932 0.16506 0.0
C495 C 0.63582 0.88277 0.09822 0.0
C496 C 0.62343 0.86344 0.08176 0.0
C497 C 0.63432 0.92094 0.1014 0.0
C498 C 0.62736 0.00214 0.12674 0.0
H499 H 0.65333 0.14401 0.02278 0.0
H500 H 0.64762 0.08702 0.06929 0.0
H501 H 0.63478 0.05466 0.14929 0.0
H502 H 0.59952 0.86919 0.05871 0.0
H503 H 0.59688 0.93578 0.06492 0.0
H504 H 0.60499 0.98406 0.00392 0.0
C505 C 0.63835 0.10514 0.05159 0.0
C506 C 0.62806 0.03956 0.11788 0.0
C507 C 0.64165 0.13767 0.02447 0.0
C508 C 0.60936 0.88318 0.07069 0.0
C509 C 0.60784 0.92139 0.07419 0.0
C510 C 0.61117 -0.00076 0.03718 0.0
C511 C 0.62349 0.09476 0.05102 0.0
C512 C 0.62064 0.05696 0.06759 0.0
C513 C 0.62037 0.94076 0.08857 0.0
C514 C 0.61928 0.98132 0.08532 0.0
H515 H 0.6061 0.16834 0.97785 0.0
H516 H 0.60025 0.11186 0.02631 0.0
H517 H 0.60616 0.04899 0.98874 0.0
H518 H 0.64682 0.86848 0.10723 0.0
H519 H 0.64426 0.93492 0.11171 0.0
C520 C 0.122 0.28766 0.28437 0.0
C521 C 0.11391 0.25876 0.30367 0.0
C522 C 0.12423 0.29337 0.22137 0.0
C523 C 0.10974 0.27044 0.06581 0.0
H524 H 0.14968 0.29018 0.01048 0.0
C525 C 0.12914 0.25269 0.81113 0.0
C526 C 0.13852 0.27798 0.78769 0.0
C527 C 0.12514 0.25373 0.8737 0.0
C528 C 0.13839 0.28522 0.02516 0.0
H529 H 0.10167 0.21348 0.27188 0.0
H530 H 0.10569 0.22317 0.16273 0.0
H531 H 0.1446 0.28634 0.12064 0.0
H532 H 0.15064 0.32499 0.81126 0.0
H533 H 0.14354 0.32697 0.92002 0.0
H534 H 0.10361 0.26874 0.97022 0.0
C535 C 0.11015 0.24177 0.19596 0.0
C536 C 0.13548 0.28305 0.08838 0.0
C537 C 0.10794 0.23606 0.25871 0.0
C538 C 0.14346 0.30495 0.82782 0.0
C539 C 0.13947 0.30597 0.8903 0.0
C540 C 0.11266 0.27258 1.00259 0.0
C541 C 0.11837 0.27036 0.17643 0.0
C542 C 0.12116 0.27522 0.10945 0.0
C543 C 0.13045 0.28007 0.91421 0.0
C544 C 0.12706 0.27964 0.98148 0.0
H545 H 0.12669 0.30572 0.31788 0.0
H546 H 0.13049 0.31588 0.20784 0.0
H547 H 0.09851 0.26497 0.08051 0.0
H548 H 0.12517 0.23152 0.78152 0.0
H549 H 0.11829 0.23314 0.8907 0.0
C550 C 0.88728 0.25413 0.23464 0.0
C551 C 0.89372 0.22155 0.26074 0.0
C552 C 0.88532 0.25657 0.17094 0.0
C553 C 0.8815 0.20072 0.03046 0.0
H554 H 0.88901 0.29039 0.94882 0.0
C555 C 0.87364 0.2205 0.76704 0.0
C556 C 0.86555 0.25365 0.7506 0.0
C557 C 0.8786 0.2151 0.82777 0.0
C558 C 0.88681 0.26523 0.97104 0.0
H559 H 0.90318 0.16599 0.2404 0.0
H560 H 0.8998 0.17038 0.12872 0.0
H561 H 0.89497 0.28348 0.05807 0.0
H562 H 0.85646 0.30721 0.78462 0.0
H563 H 0.86508 0.29777 0.89017 0.0
H564 H 0.87313 0.18273 0.94338 0.0
C565 C 0.89619 0.1939 0.15779 0.0
C566 C 0.89021 0.26129 0.03357 0.0
C567 C 0.89818 0.19147 0.22169 0.0
C568 C 0.86267 0.28137 0.79577 0.0
C569 C 0.8677 0.27607 0.85619 0.0
C570 C 0.87812 0.20464 0.96776 0.0
C571 C 0.88975 0.22652 0.13179 0.0
C572 C 0.88733 0.22928 0.06424 0.0
C573 C 0.87566 0.24286 0.87291 0.0
C574 C 0.8805 0.23722 0.93776 0.0
H575 H 0.88368 0.2778 0.2634 0.0
H576 H 0.88009 0.28189 0.15244 0.0
H577 H 0.87902 0.17586 0.05296 0.0
H578 H 0.87601 0.19861 0.73321 0.0
H579 H 0.88479 0.18931 0.83935 0.0
C580 C 0.13769 0.70767 0.18206 0.0
C581 C 0.13497 0.73558 0.22709 0.0
C582 C 0.13419 0.71407 0.12019 0.0
C583 C 0.12806 0.78742 0.00652 0.0
H584 H 0.11204 0.71076 0.9078 0.0
C585 C 0.11122 0.80397 0.74788 0.0
C586 C 0.1153 0.77385 0.70822 0.0
C587 C 0.11311 0.80108 0.81189 0.0
C588 C 0.11664 0.73233 0.93455 0.0
H589 H 0.12631 0.79223 0.24226 0.0
H590 H 0.12006 0.80343 0.13354 0.0
H591 H 0.11549 0.7029 0.01842 0.0
H592 H 0.12484 0.71726 0.70492 0.0
H593 H 0.12818 0.7123 0.81623 0.0
H594 H 0.12925 0.81675 0.92218 0.0
C595 C 0.12503 0.77659 0.1464 0.0
C596 C 0.11861 0.72785 0.99805 0.0
C597 C 0.1285 0.77011 0.20872 0.0
C598 C 0.12153 0.74098 0.73402 0.0
C599 C 0.12335 0.73805 0.79794 0.0
C600 C 0.12605 0.79196 0.94282 0.0
C601 C 0.12786 0.74859 0.10138 0.0
C602 C 0.12458 0.75504 0.03475 0.0
C603 C 0.11904 0.76795 0.83775 0.0
C604 C 0.12054 0.76419 0.90593 0.0
H605 H 0.14269 0.68076 0.19439 0.0
H606 H 0.13677 0.69204 0.0868 0.0
H607 H 0.13282 0.80877 0.03326 0.0
H608 H 0.10638 0.82971 0.72961 0.0
H609 H 0.1096 0.82456 0.84123 0.0
C610 C 0.89325 0.69569 0.76372 0.0
C611 C 0.88436 0.7179 0.72284 0.0
C612 C 0.89025 0.69736 0.82725 0.0
C613 C 0.86079 0.73031 0.94315 0.0
H614 H 0.89492 0.73075 0.05496 0.0
C615 C 0.85372 0.78128 0.19488 0.0
C616 C 0.86143 0.76057 0.24102 0.0
C617 C 0.85676 0.77363 0.13248 0.0
C618 C 0.88528 0.73024 0.02441 0.0
H619 H 0.8651 0.75867 0.71674 0.0
H620 H 0.86001 0.76196 0.82713 0.0
H621 H 0.8994 0.72095 0.94438 0.0
H622 H 0.87868 0.71597 0.25754 0.0
H623 H 0.88411 0.70279 0.14802 0.0
H624 H 0.84669 0.74042 0.02304 0.0
C625 C 0.86919 0.74282 0.81025 0.0
C626 C 0.88783 0.72453 0.96098 0.0
C627 C 0.87216 0.74107 0.74679 0.0
C628 C 0.87255 0.73249 0.22317 0.0
C629 C 0.87568 0.72498 0.16048 0.0
C630 C 0.85825 0.73622 0.00641 0.0
C631 C 0.8783 0.72132 0.85146 0.0
C632 C 0.87561 0.72494 0.91941 0.0
C633 C 0.86766 0.74518 0.11444 0.0
C634 C 0.87046 0.73673 0.0477 0.0
H635 H 0.90271 0.67741 0.74683 0.0
H636 H 0.89735 0.67996 0.85743 0.0
H637 H 0.8511 0.73005 0.9128 0.0
H638 H 0.84511 0.80317 0.20682 0.0
H639 H 0.85058 0.79013 0.09823 0.0
C640 C 0.62971 0.73123 0.32375 0.0
C641 C 0.63604 0.76261 0.30342 0.0
C642 C 0.6268 0.72675 0.38676 0.0
C643 C 0.62201 0.77901 0.53573 0.0
H644 H 0.63183 0.68446 0.60968 0.0
C645 C 0.62405 0.76211 0.80034 0.0
C646 C 0.61748 0.73203 0.82458 0.0
C647 C 0.62623 0.76487 0.73659 0.0
C648 C 0.62889 0.71098 0.58967 0.0
H649 H 0.64412 0.81401 0.33358 0.0
H650 H 0.63923 0.80608 0.44245 0.0
H651 H 0.63509 0.6911 0.49857 0.0
H652 H 0.60838 0.68083 0.80052 0.0
H653 H 0.61219 0.68567 0.68954 0.0
H654 H 0.61593 0.79899 0.62673 0.0
C655 C 0.6363 0.78508 0.41004 0.0
C656 C 0.63072 0.71476 0.52587 0.0
C657 C 0.6392 0.78951 0.34738 0.0
C658 C 0.61348 0.70439 0.78355 0.0
C659 C 0.61572 0.70707 0.71983 0.0
C660 C 0.62022 0.77525 0.59941 0.0
C661 C 0.63011 0.75361 0.43075 0.0
C662 C 0.62742 0.74892 0.49812 0.0
C663 C 0.62196 0.73756 0.69543 0.0
C664 C 0.62374 0.74126 0.62734 0.0
H665 H 0.62714 0.70998 0.29113 0.0
H666 H 0.62189 0.70233 0.40097 0.0
H667 H 0.61906 0.80558 0.51591 0.0
H668 H 0.6273 0.78389 0.83051 0.0
H669 H 0.63128 0.78847 0.71952 0.0
C670 C 0.39085 0.69542 0.72442 0.0
C671 C 0.3876 0.72644 0.76283 0.0
C672 C 0.38954 0.69814 0.66032 0.0
C673 C 0.38807 0.76541 0.53518 0.0
H674 H 0.3678 0.6927 0.44318 0.0
C675 C 0.36268 0.79108 0.29448 0.0
C676 C 0.36412 0.76243 0.25037 0.0
C677 C 0.36753 0.7852 0.355 0.0
C678 C 0.37371 0.71289 0.46806 0.0
H679 H 0.38039 0.78461 0.76414 0.0
H680 H 0.37794 0.78918 0.65272 0.0
H681 H 0.37239 0.68494 0.55345 0.0
H682 H 0.37207 0.70532 0.23467 0.0
H683 H 0.38055 0.69504 0.34087 0.0
H684 H 0.38906 0.79379 0.45011 0.0
C685 C 0.38173 0.76289 0.67194 0.0
C686 C 0.37633 0.70846 0.53119 0.0
C687 C 0.38302 0.76019 0.73588 0.0
C688 C 0.37081 0.72793 0.26768 0.0
C689 C 0.37558 0.72198 0.32847 0.0
C690 C 0.38542 0.76986 0.47217 0.0
C691 C 0.38499 0.73193 0.63344 0.0
C692 C 0.3833 0.73501 0.5656 0.0
C693 C 0.37387 0.7505 0.37281 0.0
C694 C 0.37799 0.74397 0.43819 0.0
H695 H 0.39443 0.66905 0.74379 0.0
H696 H 0.39223 0.67386 0.63177 0.0
H697 H 0.39374 0.78596 0.56025 0.0
H698 H 0.35759 0.81799 0.28256 0.0
H699 H 0.3659 0.8076 0.38833 0.0
C700 C 0.60552 0.26047 0.24532 0.0
C701 C 0.61241 0.23736 0.19889 0.0
C702 C 0.60806 0.2529 0.30753 0.0
C703 C 0.63558 0.20504 0.41125 0.0
H704 H 0.60316 0.22286 0.53144 0.0
C705 C 0.64549 0.18125 0.67135 0.0
C706 C 0.63913 0.20904 0.71158 0.0
C707 C 0.64142 0.18069 0.60904 0.0
C708 C 0.61235 0.21797 0.49848 0.0
H709 H 0.62717 0.18772 0.18138 0.0
H710 H 0.6316 0.17445 0.29052 0.0
H711 H 0.59754 0.22862 0.4216 0.0
H712 H 0.62323 0.25758 0.71819 0.0
H713 H 0.61623 0.25679 0.60941 0.0
H714 H 0.65044 0.19508 0.48813 0.0
C715 C 0.62433 0.19863 0.27854 0.0
C716 C 0.60913 0.22123 0.43558 0.0
C717 C 0.62175 0.20615 0.21609 0.0
C718 C 0.62832 0.23574 0.68847 0.0
C719 C 0.62425 0.23518 0.62615 0.0
C720 C 0.6388 0.20179 0.47419 0.0
C721 C 0.61756 0.22205 0.32493 0.0
C722 C 0.62075 0.21537 0.39129 0.0
C723 C 0.63088 0.20789 0.58556 0.0
C724 C 0.62725 0.20874 0.51858 0.0
H725 H 0.59826 0.28474 0.23372 0.0
H726 H 0.60285 0.2718 0.34204 0.0
H727 H 0.64482 0.20079 0.37838 0.0
H728 H 0.65381 0.16015 0.68771 0.0
H729 H 0.64658 0.15902 0.57917 0.0
C730 C 0.37446 0.24203 0.26134 0.0
C731 C 0.38671 0.21922 0.23681 0.0
C732 C 0.37143 0.24296 0.32473 0.0
C733 C 0.38974 0.22287 0.47541 0.0
H734 H 0.3484 0.23673 0.53562 0.0
C735 C 0.37367 0.22862 0.73699 0.0
C736 C 0.36241 0.25643 0.75455 0.0
C737 C 0.377 0.22136 0.67437 0.0
C738 C 0.36002 0.23306 0.51952 0.0
H739 H 0.40513 0.17868 0.25974 0.0
H740 H 0.39968 0.17985 0.3703 0.0
H741 H 0.35317 0.2278 0.42536 0.0
H742 H 0.34603 0.2988 0.72 0.0
H743 H 0.35184 0.28623 0.61162 0.0
H744 H 0.39652 0.22827 0.56997 0.0
C745 C 0.39258 0.19754 0.34058 0.0
C746 C 0.36276 0.228 0.45626 0.0
C747 C 0.39564 0.19669 0.27709 0.0
C748 C 0.35474 0.27709 0.70827 0.0
C749 C 0.35798 0.26972 0.64598 0.0
C750 C 0.38698 0.22776 0.53886 0.0
C751 C 0.38053 0.22097 0.36531 0.0
C752 C 0.37765 0.22346 0.4332 0.0
C753 C 0.36904 0.24157 0.62818 0.0
C754 C 0.37208 0.23357 0.56149 0.0
H755 H 0.36738 0.25987 0.23177 0.0
H756 H 0.3622 0.26174 0.34208 0.0
H757 H 0.40136 0.21985 0.45932 0.0
H758 H 0.37977 0.21215 0.7715 0.0
H759 H 0.38555 0.19941 0.66207 0.0
C760 C 0.05894 0.25934 0.53113 0.0
C761 C 0.06573 0.28427 0.49407 0.0
C762 C 0.04316 0.2599 0.53421 0.0
C763 C 0.00757 0.31773 0.50065 0.0
H764 H 0.99014 0.22487 0.49045 0.0
C765 C 0.94541 0.30498 0.43221 0.0
C766 C 0.93749 0.27945 0.46338 0.0
C767 C 0.96085 0.30691 0.44272 0.0
C768 C 0.99482 0.25102 0.49424 0.0
H769 H 0.06126 0.32973 0.43204 0.0
H770 H 0.03387 0.33036 0.43674 0.0
H771 H 0.01753 0.22572 0.49704 0.0
H772 H 0.93952 0.23646 0.53111 0.0
H773 H 0.96649 0.23991 0.54943 0.0
H774 H 0.98484 0.34299 0.49643 0.0
C775 C 0.04068 0.3107 0.46416 0.0
C776 C 0.01052 0.25152 0.49809 0.0
C777 C 0.05642 0.31017 0.46114 0.0
C778 C 0.94529 0.25639 0.50621 0.0
C779 C 0.96076 0.2582 0.51648 0.0
C780 C 0.99187 0.31723 0.49659 0.0
C781 C 0.03385 0.2854 0.50031 0.0
C782 C 0.0171 0.28488 0.50061 0.0
C783 C 0.96874 0.28326 0.48444 0.0
C784 C 0.98533 0.28387 0.49265 0.0
H785 H 0.06579 0.23912 0.55724 0.0
H786 H 0.03826 0.24033 0.5631 0.0
H787 H 0.01225 0.34391 0.50362 0.0
H788 H 0.93974 0.32315 0.39895 0.0
H789 H 0.96672 0.32625 0.41683 0.0
C790 C 0.9423 0.7932 0.4754 0.0
C791 C 0.93392 0.77067 0.51115 0.0
C792 C 0.95808 0.79107 0.48007 0.0
C793 C 0.98996 0.75886 0.58192 0.0
H794 H 0.01382 0.76074 0.43213 0.0
C795 C 0.05461 0.7202 0.57685 0.0
C796 C 0.0634 0.74162 0.54076 0.0
C797 C 0.0388 0.72492 0.57418 0.0
C798 C 0.00732 0.76061 0.47447 0.0
H799 H 0.93556 0.72842 0.58023 0.0
H800 H 0.96304 0.72446 0.58777 0.0
H801 H 0.98627 0.76723 0.42595 0.0
H802 H 0.06246 0.78503 0.47387 0.0
H803 H 0.0349 0.79338 0.46954 0.0
H804 H 0.01103 0.75194 0.63036 0.0
C805 C 0.95742 0.74411 0.5567 0.0
C806 C 0.99152 0.76437 0.47094 0.0
C807 C 0.94166 0.74623 0.55206 0.0
C808 C 0.05603 0.76797 0.50213 0.0
C809 C 0.04023 0.77264 0.49938 0.0
C810 C 0.00576 0.75506 0.58544 0.0
C811 C 0.96584 0.76639 0.5206 0.0
C812 C 0.98265 0.7634 0.52459 0.0
C813 C 0.03143 0.75113 0.53529 0.0
C814 C 0.01463 0.75577 0.53173 0.0
H815 H 0.93669 0.81243 0.44363 0.0
H816 H 0.96421 0.80897 0.4522 0.0
H817 H 0.98346 0.75857 0.62425 0.0
H818 H 0.05992 0.69961 0.60703 0.0
H819 H 0.03236 0.7076 0.60187 0.0
C820 C 0.55217 0.81114 0.99575 0.0
C821 C 0.56251 0.77985 0.9999 0.0
C822 C 0.53659 0.80791 0.99338 0.0
C823 C 0.509 0.74258 0.95324 0.0
H824 H 0.4812 0.80535 0.05557 0.0
C825 C 0.44698 0.71347 0.9821 0.0
C826 C 0.43583 0.74326 0.9821 0.0
C827 C 0.4623 0.71914 0.98521 0.0
C828 C 0.48878 0.78792 0.02611 0.0
H829 H 0.56461 0.72061 0.00448 0.0
H830 H 0.53748 0.71502 1.00008 0.0
H831 H 0.50824 0.81331 0.05777 0.0
H832 H 0.432 0.80245 0.9865 0.0
H833 H 0.45883 0.81241 0.99113 0.0
H834 H 0.48966 0.71732 0.9211 0.0
C835 C 0.54141 0.74204 0.99845 0.0
C836 C 0.50427 0.79247 0.02744 0.0
C837 C 0.55695 0.74528 1.00135 0.0
C838 C 0.44033 0.77891 0.98658 0.0
C839 C 0.4557 0.7846 0.98944 0.0
C840 C 0.49355 0.73816 0.95165 0.0
C841 C 0.53106 0.7733 0.99448 0.0
C842 C 0.51455 0.76959 0.99146 0.0
C843 C 0.46688 0.75476 0.98806 0.0
C844 C 0.48326 0.7605 0.98854 0.0
H845 H 0.55609 0.83818 0.99458 0.0
H846 H 0.52888 0.83245 0.98984 0.0
H847 H 0.51662 0.72497 0.92415 0.0
H848 H 0.44391 0.68563 0.97916 0.0
H849 H 0.47058 0.6955 0.9854 0.0
C850 C 0.44234 0.28932 0.96393 0.0
C851 C 0.43453 0.27042 0.00774 0.0
C852 C 0.45817 0.28704 0.96397 0.0
C853 C 0.49152 0.26148 0.06275 0.0
H854 H 0.51312 0.24908 0.90686 0.0
C855 C 0.55484 0.21252 0.05087 0.0
C856 C 0.56395 0.23124 0.01157 0.0
C857 C 0.53909 0.21873 0.04858 0.0
C858 C 0.50724 0.25291 0.95069 0.0
H859 H 0.43724 0.23454 0.08628 0.0
H860 H 0.46473 0.23016 0.08573 0.0
H861 H 0.48549 0.25835 0.90727 0.0
H862 H 0.56363 0.27048 0.93783 0.0
H863 H 0.53602 0.2812 0.93371 0.0
H864 H 0.51324 0.2554 0.10617 0.0
C865 C 0.45867 0.24723 0.05192 0.0
C866 C 0.49142 0.25832 0.95097 0.0
C867 C 0.44288 0.24957 0.05199 0.0
C868 C 0.55693 0.25563 0.96875 0.0
C869 C 0.54113 0.2617 0.96624 0.0
C870 C 0.5073 0.2559 0.06245 0.0
C871 C 0.46653 0.2658 0.00779 0.0
C872 C 0.48337 0.26226 0.00707 0.0
C873 C 0.53206 0.24368 0.00677 0.0
C874 C 0.51533 0.25114 0.00648 0.0
H875 H 0.43623 0.30572 0.92936 0.0
H876 H 0.46387 0.30206 0.92984 0.0
H877 H 0.48571 0.26518 0.10673 0.0
H878 H 0.55986 0.19342 0.08423 0.0
H879 H 0.5324 0.20397 0.07967 0.0
loop_
_geom_bond_atom_site_label_1
_geom_bond_atom_site_label_2
_geom_bond_distance
_geom_bond_site_symmetry_2
_ccdc_geom_bond_type
Zn0 O6 1.969 . S
Zn0 O7 1.965 . S
Zn0 O11 2.024 . S
Zn0 O16 1.969 . S
Zn1 O8 1.969 . S
Zn1 O14 1.969 . S
Zn1 O15 1.965 . S
Zn1 O17 2.024 . S
C2 O3 1.229 . S
C2 O11 1.058 . S
O3 C2 1.229 . S
C4 O5 1.229 . S
C4 O17 1.058 . S
O5 C4 1.229 . S
O6 Zn0 1.969 . S
O6 C9 1.267 . S
O7 Zn0 1.965 . S
O7 C18 1.260 . S
O8 Zn1 1.969 . S
O8 C18 1.258 . S
C9 O6 1.267 . S
C9 O10 1.228 . S
O10 C9 1.228 . S
O11 Zn0 2.024 . S
O11 C2 1.058 . S
C12 O13 1.228 . S
C12 O14 1.267 . S
O13 C12 1.228 . S
O14 Zn1 1.969 . S
O14 C12 1.267 . S
O15 Zn1 1.965 . S
O15 C19 1.260 . S
O16 Zn0 1.969 . S
O16 C19 1.258 . S
O17 Zn1 2.024 . S
O17 C4 1.058 . S
C18 O7 1.260 . S
C18 O8 1.258 . S
C19 O15 1.260 . S
C19 O16 1.258 . S
Zn20 O26 1.969 . S
Zn20 O27 1.965 . S
Zn20 O31 2.024 . S
Zn20 O36 1.969 . S
Zn21 O28 1.969 . S
Zn21 O34 1.969 . S
Zn21 O35 1.965 . S
Zn21 O37 2.024 . S
C22 O23 1.229 . S
C22 O31 1.058 . S
O23 C22 1.229 . S
C24 O25 1.229 . S
C24 O37 1.058 . S
O25 C24 1.229 . S
O26 Zn20 1.969 . S
O26 C29 1.267 . S
O27 Zn20 1.965 . S
O27 C38 1.260 . S
O28 Zn21 1.969 . S
O28 C38 1.258 . S
C29 O26 1.267 . S
C29 O30 1.228 . S
O30 C29 1.228 . S
O31 Zn20 2.024 . S
O31 C22 1.058 . S
C32 O33 1.228 . S
C32 O34 1.267 . S
O33 C32 1.228 . S
O34 Zn21 1.969 . S
O34 C32 1.267 . S
O35 Zn21 1.965 . S
O35 C39 1.260 . S
O36 Zn20 1.969 . S
O36 C39 1.258 . S
O37 Zn21 2.024 . S
O37 C24 1.058 . S
C38 O27 1.260 . S
C38 O28 1.258 . S
C39 O35 1.260 . S
C39 O36 1.258 . S
Zn40 O46 1.969 . S
Zn40 O47 1.965 . S
Zn40 O51 2.024 . S
Zn40 O56 1.969 . S
Zn41 O48 1.969 . S
Zn41 O54 1.969 . S
Zn41 O55 1.965 . S
Zn41 O57 2.024 . S
C42 O43 1.229 . S
C42 O51 1.058 . S
O43 C42 1.229 . S
C44 O45 1.229 . S
C44 O57 1.058 . S
O45 C44 1.229 . S
O46 Zn40 1.969 . S
O46 C49 1.267 . S
O47 Zn40 1.965 . S
O47 C58 1.260 . S
O48 Zn41 1.969 . S
O48 C58 1.258 . S
C49 O46 1.267 . S
C49 O50 1.228 . S
O50 C49 1.228 . S
O51 Zn40 2.024 . S
O51 C42 1.058 . S
C52 O53 1.228 . S
C52 O54 1.267 . S
O53 C52 1.228 . S
O54 Zn41 1.969 . S
O54 C52 1.267 . S
O55 Zn41 1.965 . S
O55 C59 1.260 . S
O56 Zn40 1.969 . S
O56 C59 1.258 . S
O57 Zn41 2.024 . S
O57 C44 1.058 . S
C58 O47 1.260 . S
C58 O48 1.258 . S
C59 O55 1.260 . S
C59 O56 1.258 . S
Zn60 O66 1.969 . S
Zn60 O67 1.965 . S
Zn60 O71 2.024 . S
Zn60 O76 1.969 . S
Zn61 O68 1.969 . S
Zn61 O74 1.969 . S
Zn61 O75 1.965 . S
Zn61 O77 2.024 . S
C62 O63 1.229 . S
C62 O71 1.058 . S
O63 C62 1.229 . S
C64 O65 1.229 . S
C64 O77 1.058 . S
O65 C64 1.229 . S
O66 Zn60 1.969 . S
O66 C69 1.267 . S
O67 Zn60 1.965 . S
O67 C78 1.260 . S
O68 Zn61 1.969 . S
O68 C78 1.258 . S
C69 O66 1.267 . S
C69 O70 1.228 . S
O70 C69 1.228 . S
O71 Zn60 2.024 . S
O71 C62 1.058 . S
C72 O73 1.228 . S
C72 O74 1.267 . S
O73 C72 1.228 . S
O74 Zn61 1.969 . S
O74 C72 1.267 . S
O75 Zn61 1.965 . S
O75 C79 1.260 . S
O76 Zn60 1.969 . S
O76 C79 1.258 . S
O77 Zn61 2.024 . S
O77 C64 1.058 . S
C78 O67 1.260 . S
C78 O68 1.258 . S
C79 O75 1.260 . S
C79 O76 1.258 . S
Zn80 O86 1.969 . S
Zn80 O87 1.965 . S
Zn80 O91 2.024 . S
Zn80 O96 1.969 . S
Zn81 O88 1.969 . S
Zn81 O94 1.969 . S
Zn81 O95 1.965 1_556 S
Zn81 O97 2.024 . S
C82 O83 1.229 . S
C82 O91 1.058 . S
O83 C82 1.229 . S
C84 O85 1.229 . S
C84 O97 1.058 . S
O85 C84 1.229 . S
O86 Zn80 1.969 . S
O86 C89 1.267 . S
O87 Zn80 1.965 . S
O87 C98 1.258 1_554 S
O88 Zn81 1.969 . S
O88 C98 1.262 . S
C89 O86 1.267 . S
C89 O90 1.228 . S
O90 C89 1.228 . S
O91 Zn80 2.024 . S
O91 C82 1.058 . S
C92 O93 1.228 . S
C92 O94 1.267 . S
O93 C92 1.228 . S
O94 Zn81 1.969 . S
O94 C92 1.267 . S
O95 Zn81 1.965 1_554 S
O95 C99 1.260 . S
O96 Zn80 1.969 . S
O96 C99 1.258 . S
O97 Zn81 2.024 . S
O97 C84 1.058 . S
C98 O87 1.258 1_556 S
C98 O88 1.262 . S
C99 O95 1.260 . S
C99 O96 1.258 . S
Zn100 O106 1.969 . S
Zn100 O107 1.965 1_556 S
Zn100 O111 2.024 . S
Zn100 O116 1.969 . S
Zn101 O108 1.969 . S
Zn101 O114 1.969 . S
Zn101 O115 1.965 . S
Zn101 O117 2.024 . S
C102 O103 1.229 . S
C102 O111 1.058 . S
O103 C102 1.229 . S
C104 O105 1.229 . S
C104 O117 1.058 . S
O105 C104 1.229 . S
O106 Zn100 1.969 . S
O106 C109 1.267 . S
O107 Zn100 1.965 1_554 S
O107 C118 1.260 . S
O108 Zn101 1.969 . S
O108 C118 1.258 . S
C109 O106 1.267 . S
C109 O110 1.228 . S
O110 C109 1.228 . S
O111 Zn100 2.024 . S
O111 C102 1.058 . S
C112 O113 1.228 . S
C112 O114 1.267 . S
O113 C112 1.228 . S
O114 Zn101 1.969 . S
O114 C112 1.267 . S
O115 Zn101 1.965 . S
O115 C119 1.260 1_554 S
O116 Zn100 1.969 . S
O116 C119 1.258 . S
O117 Zn101 2.024 . S
O117 C104 1.058 . S
C118 O107 1.260 . S
C118 O108 1.258 . S
C119 O115 1.260 1_556 S
C119 O116 1.258 . S
Zn120 O126 1.969 . S
Zn120 O127 1.965 . S
Zn120 O131 2.024 . S
Zn120 O136 1.969 . S
Zn121 O128 1.969 . S
Zn121 O134 1.969 . S
Zn121 O135 1.965 1_554 S
Zn121 O137 2.024 . S
C122 O123 1.229 . S
C122 O131 1.058 . S
O123 C122 1.229 . S
C124 O125 1.229 . S
C124 O137 1.058 . S
O125 C124 1.229 . S
O126 Zn120 1.969 . S
O126 C129 1.267 . S
O127 Zn120 1.965 . S
O127 C138 1.258 1_556 S
O128 Zn121 1.969 . S
O128 C138 1.261 . S
C129 O126 1.267 . S
C129 O130 1.228 . S
O130 C129 1.228 . S
O131 Zn120 2.024 . S
O131 C122 1.058 . S
C132 O133 1.228 . S
C132 O134 1.267 . S
O133 C132 1.228 . S
O134 Zn121 1.969 . S
O134 C132 1.267 . S
O135 Zn121 1.965 1_556 S
O135 C139 1.260 . S
O136 Zn120 1.969 . S
O136 C139 1.258 . S
O137 Zn121 2.024 . S
O137 C124 1.058 . S
C138 O127 1.258 1_554 S
C138 O128 1.261 . S
C139 O135 1.260 . S
C139 O136 1.258 . S
Zn140 O146 1.969 . S
Zn140 O147 1.965 . S
Zn140 O151 2.024 . S
Zn140 O156 1.969 . S
Zn141 O148 1.969 . S
Zn141 O154 1.969 . S
Zn141 O155 1.965 1_554 S
Zn141 O157 2.024 . S
C142 O143 1.229 . S
C142 O151 1.058 . S
O143 C142 1.229 . S
C144 O145 1.229 . S
C144 O157 1.058 . S
O145 C144 1.229 . S
O146 Zn140 1.969 . S
O146 C149 1.267 . S
O147 Zn140 1.965 . S
O147 C158 1.260 . S
O148 Zn141 1.969 . S
O148 C158 1.258 1_554 S
C149 O146 1.267 . S
C149 O150 1.228 . S
O150 C149 1.228 . S
O151 Zn140 2.024 . S
O151 C142 1.058 . S
C152 O153 1.228 . S
C152 O154 1.267 . S
O153 C152 1.228 . S
O154 Zn141 1.969 . S
O154 C152 1.267 . S
O155 Zn141 1.965 1_556 S
O155 C159 1.260 . S
O156 Zn140 1.969 . S
O156 C159 1.258 . S
O157 Zn141 2.024 . S
O157 C144 1.058 . S
C158 O147 1.260 . S
C158 O148 1.258 1_556 S
C159 O155 1.260 . S
C159 O156 1.258 . S
C160 C161 1.349 . S
C160 C162 1.327 . S
C160 H185 0.950 . S
C161 C160 1.349 . S
C161 C177 1.349 . S
C162 C160 1.327 . S
C162 C181 1.429 . S
C162 H186 0.950 . S
C163 C180 1.574 . S
C163 C182 1.368 . S
C163 H187 0.949 . S
H164 C168 0.949 . S
C165 C166 1.349 . S
C165 C167 1.327 . S
C165 H188 0.950 . S
C166 C165 1.349 . S
C166 C178 1.349 . S
C167 C165 1.327 . S
C167 C183 1.429 . S
C167 H189 0.950 . S
C168 H164 0.949 . S
C168 C176 1.574 . S
C168 C184 1.368 . S
H169 C177 0.950 . S
H170 C175 0.950 . S
H171 C176 0.949 . S
H172 C178 0.950 . S
H173 C179 0.950 . S
H174 C180 0.949 . S
C175 H170 0.950 . S
C175 C177 1.327 . S
C175 C181 1.429 . S
C176 C168 1.574 . S
C176 H171 0.949 . S
C176 C182 1.368 . S
C177 C161 1.349 . S
C177 H169 0.950 . S
C177 C175 1.327 . S
C178 C166 1.349 . S
C178 H172 0.950 . S
C178 C179 1.327 . S
C179 H173 0.950 . S
C179 C178 1.327 . S
C179 C183 1.429 . S
C180 C163 1.574 . S
C180 H174 0.949 . S
C180 C184 1.368 . S
C181 C162 1.429 . S
C181 C175 1.429 . S
C181 C182 1.523 . S
C182 C163 1.368 . S
C182 C176 1.368 . S
C182 C181 1.523 . S
C183 C167 1.429 . S
C183 C179 1.429 . S
C183 C184 1.523 . S
C184 C168 1.368 . S
C184 C180 1.368 . S
C184 C183 1.523 . S
H185 C160 0.950 . S
H186 C162 0.950 . S
H187 C163 0.949 . S
H188 C165 0.950 . S
H189 C167 0.950 . S
C190 C191 1.349 . S
C190 C192 1.327 . S
C190 H215 0.950 . S
C191 C190 1.349 . S
C191 C207 1.349 . S
C192 C190 1.327 . S
C192 C211 1.429 . S
C192 H216 0.950 . S
C193 C210 1.574 . S
C193 C212 1.368 . S
C193 H217 0.949 . S
H194 C198 0.949 . S
C195 C196 1.349 . S
C195 C197 1.327 . S
C195 H218 0.950 . S
C196 C195 1.349 . S
C196 C208 1.349 . S
C197 C195 1.327 . S
C197 C213 1.429 . S
C197 H219 0.950 . S
C198 H194 0.949 . S
C198 C206 1.574 . S
C198 C214 1.368 . S
H199 C207 0.950 . S
H200 C205 0.950 . S
H201 C206 0.949 . S
H202 C208 0.950 . S
H203 C209 0.950 . S
H204 C210 0.949 . S
C205 H200 0.950 . S
C205 C207 1.327 . S
C205 C211 1.429 . S
C206 C198 1.574 . S
C206 H201 0.949 . S
C206 C212 1.368 . S
C207 C191 1.349 . S
C207 H199 0.950 . S
C207 C205 1.327 . S
C208 C196 1.349 . S
C208 H202 0.950 . S
C208 C209 1.327 . S
C209 H203 0.950 . S
C209 C208 1.327 . S
C209 C213 1.429 . S
C210 C193 1.574 . S
C210 H204 0.949 . S
C210 C214 1.368 . S
C211 C192 1.429 . S
C211 C205 1.429 . S
C211 C212 1.523 . S
C212 C193 1.368 . S
C212 C206 1.368 . S
C212 C211 1.523 . S
C213 C197 1.429 . S
C213 C209 1.429 . S
C213 C214 1.523 . S
C214 C198 1.368 . S
C214 C210 1.368 . S
C214 C213 1.523 . S
H215 C190 0.950 . S
H216 C192 0.950 . S
H217 C193 0.949 . S
H218 C195 0.950 . S
H219 C197 0.950 . S
C220 C221 1.349 . S
C220 C222 1.327 . S
C220 H245 0.950 . S
C221 C220 1.349 . S
C221 C237 1.349 . S
C222 C220 1.327 . S
C222 C241 1.429 . S
C222 H246 0.950 . S
C223 C240 1.574 . S
C223 C242 1.368 . S
C223 H247 0.949 . S
H224 C228 0.949 . S
C225 C226 1.349 . S
C225 C227 1.327 . S
C225 H248 0.950 . S
C226 C225 1.349 . S
C226 C238 1.349 . S
C227 C225 1.327 . S
C227 C243 1.429 . S
C227 H249 0.950 . S
C228 H224 0.949 . S
C228 C236 1.574 . S
C228 C244 1.368 . S
H229 C237 0.950 . S
H230 C235 0.950 . S
H231 C236 0.949 . S
H232 C238 0.950 . S
H233 C239 0.950 . S
H234 C240 0.949 . S
C235 H230 0.950 . S
C235 C237 1.327 . S
C235 C241 1.429 . S
C236 C228 1.574 . S
C236 H231 0.949 . S
C236 C242 1.368 . S
C237 C221 1.349 . S
C237 H229 0.950 . S
C237 C235 1.327 . S
C238 C226 1.349 . S
C238 H232 0.950 . S
C238 C239 1.327 . S
C239 H233 0.950 . S
C239 C238 1.327 . S
C239 C243 1.429 . S
C240 C223 1.574 . S
C240 H234 0.949 . S
C240 C244 1.368 . S
C241 C222 1.429 . S
C241 C235 1.429 . S
C241 C242 1.523 . S
C242 C223 1.368 . S
C242 C236 1.368 . S
C242 C241 1.523 . S
C243 C227 1.429 . S
C243 C239 1.429 . S
C243 C244 1.523 . S
C244 C228 1.368 . S
C244 C240 1.368 . S
C244 C243 1.523 . S
H245 C220 0.950 . S
H246 C222 0.950 . S
H247 C223 0.949 . S
H248 C225 0.950 . S
H249 C227 0.950 . S
C250 C251 1.349 . S
C250 C252 1.327 . S
C250 H275 0.950 . S
C251 C250 1.349 . S
C251 C267 1.349 . S
C252 C250 1.327 . S
C252 C271 1.429 . S
C252 H276 0.950 . S
C253 C270 1.574 . S
C253 C272 1.368 . S
C253 H277 0.949 . S
H254 C258 0.949 . S
C255 C256 1.349 . S
C255 C257 1.327 . S
C255 H278 0.950 . S
C256 C255 1.349 . S
C256 C268 1.349 . S
C257 C255 1.327 . S
C257 C273 1.429 . S
C257 H279 0.950 . S
C258 H254 0.949 . S
C258 C266 1.574 . S
C258 C274 1.368 . S
H259 C267 0.950 . S
H260 C265 0.950 . S
H261 C266 0.949 . S
H262 C268 0.950 . S
H263 C269 0.950 . S
H264 C270 0.949 . S
C265 H260 0.950 . S
C265 C267 1.327 . S
C265 C271 1.429 . S
C266 C258 1.574 . S
C266 H261 0.949 . S
C266 C272 1.368 . S
C267 C251 1.349 . S
C267 H259 0.950 . S
C267 C265 1.327 . S
C268 C256 1.349 . S
C268 H262 0.950 . S
C268 C269 1.327 . S
C269 H263 0.950 . S
C269 C268 1.327 . S
C269 C273 1.429 . S
C270 C253 1.574 . S
C270 H264 0.949 . S
C270 C274 1.368 . S
C271 C252 1.429 . S
C271 C265 1.429 . S
C271 C272 1.523 . S
C272 C253 1.368 . S
C272 C266 1.368 . S
C272 C271 1.523 . S
C273 C257 1.429 . S
C273 C269 1.429 . S
C273 C274 1.523 . S
C274 C258 1.368 . S
C274 C270 1.368 . S
C274 C273 1.523 . S
H275 C250 0.950 . S
H276 C252 0.950 . S
H277 C253 0.949 . S
H278 C255 0.950 . S
H279 C257 0.950 . S
C280 C281 1.349 . S
C280 C282 1.327 . S
C280 H305 0.950 . S
C281 C280 1.349 . S
C281 C297 1.349 . S
C282 C280 1.327 . S
C282 C301 1.429 . S
C282 H306 0.950 . S
C283 C300 1.574 1_565 S
C283 C302 1.368 . S
C283 H307 0.949 . S
H284 C288 0.949 . S
C285 C286 1.349 . S
C285 C287 1.327 . S
C285 H308 0.950 . S
C286 C285 1.349 . S
C286 C298 1.349 . S
C287 C285 1.327 . S
C287 C303 1.429 . S
C287 H309 0.950 . S
C288 H284 0.949 . S
C288 C296 1.574 1_545 S
C288 C304 1.368 . S
H289 C297 0.950 . S
H290 C295 0.950 . S
H291 C296 0.949 . S
H292 C298 0.950 . S
H293 C299 0.950 . S
H294 C300 0.949 . S
C295 H290 0.950 . S
C295 C297 1.327 . S
C295 C301 1.429 . S
C296 C288 1.574 1_565 S
C296 H291 0.949 . S
C296 C302 1.368 . S
C297 C281 1.349 . S
C297 H289 0.950 . S
C297 C295 1.327 . S
C298 C286 1.349 . S
C298 H292 0.950 . S
C298 C299 1.327 . S
C299 H293 0.950 . S
C299 C298 1.327 . S
C299 C303 1.429 . S
C300 C283 1.574 1_545 S
C300 H294 0.949 . S
C300 C304 1.368 . S
C301 C282 1.429 . S
C301 C295 1.429 . S
C301 C302 1.523 . S
C302 C283 1.368 . S
C302 C296 1.368 . S
C302 C301 1.523 . S
C303 C287 1.429 . S
C303 C299 1.429 . S
C303 C304 1.523 . S
C304 C288 1.368 . S
C304 C300 1.368 . S
C304 C303 1.523 . S
H305 C280 0.950 . S
H306 C282 0.950 . S
H307 C283 0.949 . S
H308 C285 0.950 . S
H309 C287 0.950 . S
C310 C311 1.349 . S
C310 C312 1.327 . S
C310 H335 0.950 . S
C311 C310 1.349 . S
C311 C327 1.349 . S
C312 C310 1.327 . S
C312 C331 1.429 . S
C312 H336 0.950 . S
C313 C330 1.574 . S
C313 C332 1.368 . S
C313 H337 0.949 . S
H314 C318 0.949 . S
C315 C316 1.349 . S
C315 C317 1.327 . S
C315 H338 0.950 . S
C316 C315 1.349 . S
C316 C328 1.349 . S
C317 C315 1.327 . S
C317 C333 1.429 . S
C317 H339 0.950 . S
C318 H314 0.949 . S
C318 C326 1.574 . S
C318 C334 1.368 . S
H319 C327 0.950 . S
H320 C325 0.950 . S
H321 C326 0.949 . S
H322 C328 0.950 . S
H323 C329 0.950 . S
H324 C330 0.949 . S
C325 H320 0.950 . S
C325 C327 1.327 . S
C325 C331 1.429 . S
C326 C318 1.574 . S
C326 H321 0.949 . S
C326 C332 1.368 . S
C327 C311 1.349 . S
C327 H319 0.950 . S
C327 C325 1.327 . S
C328 C316 1.349 . S
C328 H322 0.950 . S
C328 C329 1.327 . S
C329 H323 0.950 . S
C329 C328 1.327 . S
C329 C333 1.429 . S
C330 C313 1.574 . S
C330 H324 0.949 . S
C330 C334 1.368 . S
C331 C312 1.429 . S
C331 C325 1.429 . S
C331 C332 1.523 . S
C332 C313 1.368 . S
C332 C326 1.368 . S
C332 C331 1.523 . S
C333 C317 1.429 . S
C333 C329 1.429 . S
C333 C334 1.523 . S
C334 C318 1.368 . S
C334 C330 1.368 . S
C334 C333 1.523 . S
H335 C310 0.950 . S
H336 C312 0.950 . S
H337 C313 0.949 . S
H338 C315 0.950 . S
H339 C317 0.950 . S
C340 C341 1.349 . S
C340 C342 1.327 . S
C340 H365 0.950 . S
C341 C340 1.349 . S
C341 C357 1.349 . S
C342 C340 1.327 . S
C342 C361 1.429 . S
C342 H366 0.950 . S
C343 C360 1.574 1_565 S
C343 C362 1.368 . S
C343 H367 0.949 . S
H344 C348 0.949 . S
C345 C346 1.349 . S
C345 C347 1.327 . S
C345 H368 0.950 . S
C346 C345 1.349 . S
C346 C358 1.349 . S
C347 C345 1.327 . S
C347 C363 1.429 . S
C347 H369 0.950 . S
C348 H344 0.949 . S
C348 C356 1.574 1_545 S
C348 C364 1.368 . S
H349 C357 0.950 . S
H350 C355 0.950 . S
H351 C356 0.949 . S
H352 C358 0.950 . S
H353 C359 0.950 . S
H354 C360 0.949 . S
C355 H350 0.950 . S
C355 C357 1.327 . S
C355 C361 1.429 . S
C356 C348 1.574 1_565 S
C356 H351 0.949 . S
C356 C362 1.368 . S
C357 C341 1.349 . S
C357 H349 0.950 . S
C357 C355 1.327 . S
C358 C346 1.349 . S
C358 H352 0.950 . S
C358 C359 1.327 . S
C359 H353 0.950 . S
C359 C358 1.327 . S
C359 C363 1.429 . S
C360 C343 1.574 1_545 S
C360 H354 0.949 . S
C360 C364 1.368 . S
C361 C342 1.429 . S
C361 C355 1.429 . S
C361 C362 1.523 . S
C362 C343 1.368 . S
C362 C356 1.368 . S
C362 C361 1.523 . S
C363 C347 1.429 . S
C363 C359 1.429 . S
C363 C364 1.523 . S
C364 C348 1.368 . S
C364 C360 1.368 . S
C364 C363 1.523 . S
H365 C340 0.950 . S
H366 C342 0.950 . S
H367 C343 0.949 . S
H368 C345 0.950 . S
H369 C347 0.950 . S
C370 C371 1.349 . S
C370 C372 1.327 . S
C370 H395 0.950 . S
C371 C370 1.349 . S
C371 C387 1.349 . S
C372 C370 1.327 . S
C372 C391 1.429 . S
C372 H396 0.950 . S
C373 C390 1.574 . S
C373 C392 1.368 . S
C373 H397 0.949 . S
H374 C378 0.949 . S
C375 C376 1.349 . S
C375 C377 1.327 . S
C375 H398 0.950 . S
C376 C375 1.349 . S
C376 C388 1.349 . S
C377 C375 1.327 . S
C377 C393 1.429 . S
C377 H399 0.950 . S
C378 H374 0.949 . S
C378 C386 1.574 . S
C378 C394 1.368 . S
H379 C387 0.950 . S
H380 C385 0.950 . S
H381 C386 0.949 . S
H382 C388 0.950 . S
H383 C389 0.950 . S
H384 C390 0.949 . S
C385 H380 0.950 . S
C385 C387 1.327 . S
C385 C391 1.429 . S
C386 C378 1.574 . S
C386 H381 0.949 . S
C386 C392 1.368 . S
C387 C371 1.349 . S
C387 H379 0.950 . S
C387 C385 1.327 . S
C388 C376 1.349 . S
C388 H382 0.950 . S
C388 C389 1.327 . S
C389 H383 0.950 . S
C389 C388 1.327 . S
C389 C393 1.429 . S
C390 C373 1.574 . S
C390 H384 0.949 . S
C390 C394 1.368 . S
C391 C372 1.429 . S
C391 C385 1.429 . S
C391 C392 1.523 . S
C392 C373 1.368 . S
C392 C386 1.368 . S
C392 C391 1.523 . S
C393 C377 1.429 . S
C393 C389 1.429 . S
C393 C394 1.523 . S
C394 C378 1.368 . S
C394 C390 1.368 . S
C394 C393 1.523 . S
H395 C370 0.950 . S
H396 C372 0.950 . S
H397 C373 0.949 . S
H398 C375 0.950 . S
H399 C377 0.950 . S
C400 C401 1.349 . S
C400 C402 1.327 . S
C400 H425 0.950 . S
C401 C400 1.349 . S
C401 C417 1.349 1_554 S
C402 C400 1.327 . S
C402 C421 1.429 . S
C402 H426 0.950 . S
C403 C420 1.574 . S
C403 C422 1.368 1_556 S
C403 H427 0.949 . S
H404 C408 0.949 . S
C405 C406 1.349 . S
C405 C407 1.327 . S
C405 H428 0.950 . S
C406 C405 1.349 . S
C406 C418 1.349 1_556 S
C407 C405 1.327 . S
C407 C423 1.429 . S
C407 H429 0.950 . S
C408 H404 0.949 . S
C408 C416 1.574 . S
C408 C424 1.368 1_554 S
H409 C417 0.950 . S
H410 C415 0.950 . S
H411 C416 0.949 . S
H412 C418 0.950 . S
H413 C419 0.950 . S
H414 C420 0.949 . S
C415 H410 0.950 . S
C415 C417 1.327 . S
C415 C421 1.429 1_556 S
C416 C408 1.574 . S
C416 H411 0.949 . S
C416 C422 1.368 . S
C417 C401 1.349 1_556 S
C417 H409 0.950 . S
C417 C415 1.327 . S
C418 C406 1.349 1_554 S
C418 H412 0.950 . S
C418 C419 1.327 . S
C419 H413 0.950 . S
C419 C418 1.327 . S
C419 C423 1.429 1_554 S
C420 C403 1.574 . S
C420 H414 0.949 . S
C420 C424 1.368 . S
C421 C402 1.429 . S
C421 C415 1.429 1_554 S
C421 C422 1.523 . S
C422 C403 1.368 1_554 S
C422 C416 1.368 . S
C422 C421 1.523 . S
C423 C407 1.429 . S
C423 C419 1.429 1_556 S
C423 C424 1.523 . S
C424 C408 1.368 1_556 S
C424 C420 1.368 . S
C424 C423 1.523 . S
H425 C400 0.950 . S
H426 C402 0.950 . S
H427 C403 0.949 . S
H428 C405 0.950 . S
H429 C407 0.950 . S
C430 C431 1.349 1_556 S
C430 C432 1.327 . S
C430 H455 0.950 . S
C431 C430 1.349 1_554 S
C431 C447 1.349 . S
C432 C430 1.327 . S
C432 C451 1.429 1_556 S
C432 H456 0.950 . S
C433 C450 1.574 1_565 S
C433 C452 1.368 . S
C433 H457 0.949 . S
H434 C438 0.949 . S
C435 C436 1.349 1_554 S
C435 C437 1.327 . S
C435 H458 0.950 . S
C436 C435 1.349 1_556 S
C436 C448 1.349 . S
C437 C435 1.327 . S
C437 C453 1.429 1_554 S
C437 H459 0.950 . S
C438 H434 0.949 . S
C438 C446 1.574 1_545 S
C438 C454 1.368 . S
H439 C447 0.950 . S
H440 C445 0.950 . S
H441 C446 0.949 . S
H442 C448 0.950 . S
H443 C449 0.950 . S
H444 C450 0.949 . S
C445 H440 0.950 . S
C445 C447 1.327 . S
C445 C451 1.429 . S
C446 C438 1.574 1_565 S
C446 H441 0.949 . S
C446 C452 1.368 1_556 S
C447 C431 1.349 . S
C447 H439 0.950 . S
C447 C445 1.327 . S
C448 C436 1.349 . S
C448 H442 0.950 . S
C448 C449 1.327 . S
C449 H443 0.950 . S
C449 C448 1.327 . S
C449 C453 1.429 . S
C450 C433 1.574 1_545 S
C450 H444 0.949 . S
C450 C454 1.368 1_554 S
C451 C432 1.429 1_554 S
C451 C445 1.429 . S
C451 C452 1.523 . S
C452 C433 1.368 . S
C452 C446 1.368 1_554 S
C452 C451 1.523 . S
C453 C437 1.429 1_556 S
C453 C449 1.429 . S
C453 C454 1.523 . S
C454 C438 1.368 . S
C454 C450 1.368 1_556 S
C454 C453 1.523 . S
H455 C430 0.950 . S
H456 C432 0.950 . S
H457 C433 0.949 . S
H458 C435 0.950 . S
H459 C437 0.950 . S
C460 C461 1.349 . S
C460 C462 1.327 . S
C460 H485 0.950 . S
C461 C460 1.349 . S
C461 C477 1.349 1_556 S
C462 C460 1.327 . S
C462 C481 1.429 . S
C462 H486 0.950 . S
C463 C480 1.574 . S
C463 C482 1.368 1_554 S
C463 H487 0.949 . S
H464 C468 0.949 . S
C465 C466 1.349 . S
C465 C467 1.327 . S
C465 H488 0.950 . S
C466 C465 1.349 . S
C466 C478 1.349 1_554 S
C467 C465 1.327 . S
C467 C483 1.429 . S
C467 H489 0.950 . S
C468 H464 0.949 . S
C468 C476 1.574 . S
C468 C484 1.368 1_556 S
H469 C477 0.950 . S
H470 C475 0.950 . S
H471 C476 0.949 . S
H472 C478 0.950 . S
H473 C479 0.950 . S
H474 C480 0.949 . S
C475 H470 0.950 . S
C475 C477 1.327 . S
C475 C481 1.429 1_554 S
C476 C468 1.574 . S
C476 H471 0.949 . S
C476 C482 1.368 . S
C477 C461 1.349 1_554 S
C477 H469 0.950 . S
C477 C475 1.327 . S
C478 C466 1.349 1_556 S
C478 H472 0.950 . S
C478 C479 1.327 . S
C479 H473 0.950 . S
C479 C478 1.327 . S
C479 C483 1.429 1_556 S
C480 C463 1.574 . S
C480 H474 0.949 . S
C480 C484 1.368 . S
C481 C462 1.429 . S
C481 C475 1.429 1_556 S
C481 C482 1.523 . S
C482 C463 1.368 1_556 S
C482 C476 1.368 . S
C482 C481 1.523 . S
C483 C467 1.429 . S
C483 C479 1.429 1_554 S
C483 C484 1.523 . S
C484 C468 1.368 1_554 S
C484 C480 1.368 . S
C484 C483 1.523 . S
H485 C460 0.950 . S
H486 C462 0.950 . S
H487 C463 0.949 . S
H488 C465 0.950 . S
H489 C467 0.950 . S
C490 C491 1.349 1_554 S
C490 C492 1.327 . S
C490 H515 0.950 . S
C491 C490 1.349 1_556 S
C491 C507 1.349 . S
C492 C490 1.327 . S
C492 C511 1.429 1_554 S
C492 H516 0.950 . S
C493 C510 1.574 1_545 S
C493 C512 1.368 . S
C493 H517 0.949 . S
H494 C498 0.949 . S
C495 C496 1.349 1_556 S
C495 C497 1.327 . S
C495 H518 0.950 . S
C496 C495 1.349 1_554 S
C496 C508 1.349 . S
C497 C495 1.327 . S
C497 C513 1.429 1_556 S
C497 H519 0.950 . S
C498 H494 0.949 . S
C498 C506 1.574 1_565 S
C498 C514 1.379 . S
H499 C507 0.950 . S
H500 C505 0.950 . S
H501 C506 0.949 . S
H502 C508 0.950 . S
H503 C509 0.950 . S
H504 C510 0.949 . S
C505 H500 0.950 . S
C505 C507 1.327 . S
C505 C511 1.429 . S
C506 C498 1.574 1_545 S
C506 H501 0.949 . S
C506 C512 1.368 1_554 S
C507 C491 1.349 . S
C507 H499 0.950 . S
C507 C505 1.327 . S
C508 C496 1.349 . S
C508 H502 0.950 . S
C508 C509 1.327 . S
C509 H503 0.950 . S
C509 C508 1.327 . S
C509 C513 1.429 . S
C510 C493 1.574 1_565 S
C510 H504 0.949 . S
C510 C514 1.357 1_556 S
C511 C492 1.429 1_556 S
C511 C505 1.429 . S
C511 C512 1.523 . S
C512 C493 1.368 . S
C512 C506 1.368 1_556 S
C512 C511 1.523 . S
C513 C497 1.429 1_554 S
C513 C509 1.429 . S
C513 C514 1.524 . S
C514 C498 1.379 . S
C514 C510 1.357 1_554 S
C514 C513 1.524 . S
H515 C490 0.950 . S
H516 C492 0.950 . S
H517 C493 0.949 . S
H518 C495 0.950 . S
H519 C497 0.950 . S
C520 C521 1.349 . S
C520 C522 1.327 . S
C520 H545 0.950 . S
C521 C520 1.349 . S
C521 C537 1.349 . S
C522 C520 1.327 . S
C522 C541 1.429 . S
C522 H546 0.950 . S
C523 C540 1.574 1_554 S
C523 C542 1.368 . S
C523 H547 0.949 . S
H524 C528 0.949 . S
C525 C526 1.349 . S
C525 C527 1.327 . S
C525 H548 0.950 . S
C526 C525 1.349 . S
C526 C538 1.349 . S
C527 C525 1.327 . S
C527 C543 1.429 . S
C527 H549 0.950 . S
C528 H524 0.949 . S
C528 C536 1.574 1_556 S
C528 C544 1.368 . S
H529 C537 0.950 . S
H530 C535 0.950 . S
H531 C536 0.949 . S
H532 C538 0.950 . S
H533 C539 0.950 . S
H534 C540 0.949 . S
C535 H530 0.950 . S
C535 C537 1.327 . S
C535 C541 1.429 . S
C536 C528 1.574 1_554 S
C536 H531 0.949 . S
C536 C542 1.368 . S
C537 C521 1.349 . S
C537 H529 0.950 . S
C537 C535 1.327 . S
C538 C526 1.349 . S
C538 H532 0.950 . S
C538 C539 1.327 . S
C539 H533 0.950 . S
C539 C538 1.327 . S
C539 C543 1.429 . S
C540 C523 1.574 1_556 S
C540 H534 0.949 . S
C540 C544 1.368 . S
C541 C522 1.429 . S
C541 C535 1.429 . S
C541 C542 1.523 . S
C542 C523 1.368 . S
C542 C536 1.368 . S
C542 C541 1.523 . S
C543 C527 1.429 . S
C543 C539 1.429 . S
C543 C544 1.523 . S
C544 C528 1.368 . S
C544 C540 1.368 . S
C544 C543 1.523 . S
H545 C520 0.950 . S
H546 C522 0.950 . S
H547 C523 0.949 . S
H548 C525 0.950 . S
H549 C527 0.950 . S
C550 C551 1.349 . S
C550 C552 1.327 . S
C550 H575 0.950 . S
C551 C550 1.349 . S
C551 C567 1.349 . S
C552 C550 1.327 . S
C552 C571 1.429 . S
C552 H576 0.950 . S
C553 C570 1.574 1_554 S
C553 C572 1.368 . S
C553 H577 0.949 . S
H554 C558 0.949 . S
C555 C556 1.349 . S
C555 C557 1.327 . S
C555 H578 0.950 . S
C556 C555 1.349 . S
C556 C568 1.349 . S
C557 C555 1.327 . S
C557 C573 1.429 . S
C557 H579 0.950 . S
C558 H554 0.949 . S
C558 C566 1.574 1_556 S
C558 C574 1.368 . S
H559 C567 0.950 . S
H560 C565 0.950 . S
H561 C566 0.949 . S
H562 C568 0.950 . S
H563 C569 0.950 . S
H564 C570 0.949 . S
C565 H560 0.950 . S
C565 C567 1.327 . S
C565 C571 1.429 . S
C566 C558 1.574 1_554 S
C566 H561 0.949 . S
C566 C572 1.368 . S
C567 C551 1.349 . S
C567 H559 0.950 . S
C567 C565 1.327 . S
C568 C556 1.349 . S
C568 H562 0.950 . S
C568 C569 1.327 . S
C569 H563 0.950 . S
C569 C568 1.327 . S
C569 C573 1.429 . S
C570 C553 1.574 1_556 S
C570 H564 0.949 . S
C570 C574 1.368 . S
C571 C552 1.429 . S
C571 C565 1.429 . S
C571 C572 1.523 . S
C572 C553 1.368 . S
C572 C566 1.368 . S
C572 C571 1.523 . S
C573 C557 1.429 . S
C573 C569 1.429 . S
C573 C574 1.523 . S
C574 C558 1.368 . S
C574 C570 1.368 . S
C574 C573 1.523 . S
H575 C550 0.950 . S
H576 C552 0.950 . S
H577 C553 0.949 . S
H578 C555 0.950 . S
H579 C557 0.950 . S
C580 C581 1.349 . S
C580 C582 1.327 . S
C580 H605 0.950 . S
C581 C580 1.349 . S
C581 C597 1.349 . S
C582 C580 1.327 . S
C582 C601 1.429 . S
C582 H606 0.950 . S
C583 C600 1.574 1_554 S
C583 C602 1.368 . S
C583 H607 0.949 . S
H584 C588 0.949 . S
C585 C586 1.349 . S
C585 C587 1.327 . S
C585 H608 0.950 . S
C586 C585 1.349 . S
C586 C598 1.349 . S
C587 C585 1.327 . S
C587 C603 1.429 . S
C587 H609 0.950 . S
C588 H584 0.949 . S
C588 C596 1.574 1_556 S
C588 C604 1.368 . S
H589 C597 0.950 . S
H590 C595 0.950 . S
H591 C596 0.949 . S
H592 C598 0.950 . S
H593 C599 0.950 . S
H594 C600 0.949 . S
C595 H590 0.950 . S
C595 C597 1.327 . S
C595 C601 1.429 . S
C596 C588 1.574 1_554 S
C596 H591 0.949 . S
C596 C602 1.368 . S
C597 C581 1.349 . S
C597 H589 0.950 . S
C597 C595 1.327 . S
C598 C586 1.349 . S
C598 H592 0.950 . S
C598 C599 1.327 . S
C599 H593 0.950 . S
C599 C598 1.327 . S
C599 C603 1.429 . S
C600 C583 1.574 1_556 S
C600 H594 0.949 . S
C600 C604 1.368 . S
C601 C582 1.429 . S
C601 C595 1.429 . S
C601 C602 1.523 . S
C602 C583 1.368 . S
C602 C596 1.368 . S
C602 C601 1.523 . S
C603 C587 1.429 . S
C603 C599 1.429 . S
C603 C604 1.523 . S
C604 C588 1.368 . S
C604 C600 1.368 . S
C604 C603 1.523 . S
H605 C580 0.950 . S
H606 C582 0.950 . S
H607 C583 0.949 . S
H608 C585 0.950 . S
H609 C587 0.950 . S
C610 C611 1.349 . S
C610 C612 1.327 . S
C610 H635 0.950 . S
C611 C610 1.349 . S
C611 C627 1.349 . S
C612 C610 1.327 . S
C612 C631 1.429 . S
C612 H636 0.950 . S
C613 C630 1.574 1_556 S
C613 C632 1.368 . S
C613 H637 0.949 . S
H614 C618 0.949 . S
C615 C616 1.349 . S
C615 C617 1.327 . S
C615 H638 0.950 . S
C616 C615 1.349 . S
C616 C628 1.349 . S
C617 C615 1.327 . S
C617 C633 1.429 . S
C617 H639 0.950 . S
C618 H614 0.949 . S
C618 C626 1.574 1_554 S
C618 C634 1.368 . S
H619 C627 0.950 . S
H620 C625 0.950 . S
H621 C626 0.949 . S
H622 C628 0.950 . S
H623 C629 0.950 . S
H624 C630 0.949 . S
C625 H620 0.950 . S
C625 C627 1.327 . S
C625 C631 1.429 . S
C626 C618 1.574 1_556 S
C626 H621 0.949 . S
C626 C632 1.368 . S
C627 C611 1.349 . S
C627 H619 0.950 . S
C627 C625 1.327 . S
C628 C616 1.349 . S
C628 H622 0.950 . S
C628 C629 1.327 . S
C629 H623 0.950 . S
C629 C628 1.327 . S
C629 C633 1.429 . S
C630 C613 1.574 1_554 S
C630 H624 0.949 . S
C630 C634 1.368 . S
C631 C612 1.429 . S
C631 C625 1.429 . S
C631 C632 1.523 . S
C632 C613 1.368 . S
C632 C626 1.368 . S
C632 C631 1.523 . S
C633 C617 1.429 . S
C633 C629 1.429 . S
C633 C634 1.523 . S
C634 C618 1.368 . S
C634 C630 1.368 . S
C634 C633 1.523 . S
H635 C610 0.950 . S
H636 C612 0.950 . S
H637 C613 0.949 . S
H638 C615 0.950 . S
H639 C617 0.950 . S
C640 C641 1.349 . S
C640 C642 1.327 . S
C640 H665 0.950 . S
C641 C640 1.349 . S
C641 C657 1.349 . S
C642 C640 1.327 . S
C642 C661 1.429 . S
C642 H666 0.950 . S
C643 C660 1.574 . S
C643 C662 1.368 . S
C643 H667 0.949 . S
H644 C648 0.949 . S
C645 C646 1.349 . S
C645 C647 1.327 . S
C645 H668 0.950 . S
C646 C645 1.349 . S
C646 C658 1.349 . S
C647 C645 1.327 . S
C647 C663 1.429 . S
C647 H669 0.950 . S
C648 H644 0.949 . S
C648 C656 1.574 . S
C648 C664 1.368 . S
H649 C657 0.950 . S
H650 C655 0.950 . S
H651 C656 0.949 . S
H652 C658 0.950 . S
H653 C659 0.950 . S
H654 C660 0.949 . S
C655 H650 0.950 . S
C655 C657 1.327 . S
C655 C661 1.429 . S
C656 C648 1.574 . S
C656 H651 0.949 . S
C656 C662 1.368 . S
C657 C641 1.349 . S
C657 H649 0.950 . S
C657 C655 1.327 . S
C658 C646 1.349 . S
C658 H652 0.950 . S
C658 C659 1.327 . S
C659 H653 0.950 . S
C659 C658 1.327 . S
C659 C663 1.429 . S
C660 C643 1.574 . S
C660 H654 0.949 . S
C660 C664 1.368 . S
C661 C642 1.429 . S
C661 C655 1.429 . S
C661 C662 1.523 . S
C662 C643 1.368 . S
C662 C656 1.368 . S
C662 C661 1.523 . S
C663 C647 1.429 . S
C663 C659 1.429 . S
C663 C664 1.523 . S
C664 C648 1.368 . S
C664 C660 1.368 . S
C664 C663 1.523 . S
H665 C640 0.950 . S
H666 C642 0.950 . S
H667 C643 0.949 . S
H668 C645 0.950 . S
H669 C647 0.950 . S
C670 C671 1.349 . S
C670 C672 1.327 . S
C670 H695 0.950 . S
C671 C670 1.349 . S
C671 C687 1.349 . S
C672 C670 1.327 . S
C672 C691 1.429 . S
C672 H696 0.950 . S
C673 C690 1.574 . S
C673 C692 1.368 . S
C673 H697 0.949 . S
H674 C678 0.949 . S
C675 C676 1.349 . S
C675 C677 1.327 . S
C675 H698 0.950 . S
C676 C675 1.349 . S
C676 C688 1.349 . S
C677 C675 1.327 . S
C677 C693 1.429 . S
C677 H699 0.950 . S
C678 H674 0.949 . S
C678 C686 1.574 . S
C678 C694 1.368 . S
H679 C687 0.950 . S
H680 C685 0.950 . S
H681 C686 0.949 . S
H682 C688 0.950 . S
H683 C689 0.950 . S
H684 C690 0.949 . S
C685 H680 0.950 . S
C685 C687 1.327 . S
C685 C691 1.429 . S
C686 C678 1.574 . S
C686 H681 0.949 . S
C686 C692 1.368 . S
C687 C671 1.349 . S
C687 H679 0.950 . S
C687 C685 1.327 . S
C688 C676 1.349 . S
C688 H682 0.950 . S
C688 C689 1.327 . S
C689 H683 0.950 . S
C689 C688 1.327 . S
C689 C693 1.429 . S
C690 C673 1.574 . S
C690 H684 0.949 . S
C690 C694 1.368 . S
C691 C672 1.429 . S
C691 C685 1.429 . S
C691 C692 1.523 . S
C692 C673 1.368 . S
C692 C686 1.368 . S
C692 C691 1.523 . S
C693 C677 1.429 . S
C693 C689 1.429 . S
C693 C694 1.523 . S
C694 C678 1.368 . S
C694 C690 1.368 . S
C694 C693 1.523 . S
H695 C670 0.950 . S
H696 C672 0.950 . S
H697 C673 0.949 . S
H698 C675 0.950 . S
H699 C677 0.950 . S
C700 C701 1.349 . S
C700 C702 1.327 . S
C700 H725 0.950 . S
C701 C700 1.349 . S
C701 C717 1.349 . S
C702 C700 1.327 . S
C702 C721 1.429 . S
C702 H726 0.950 . S
C703 C720 1.574 . S
C703 C722 1.368 . S
C703 H727 0.949 . S
H704 C708 0.949 . S
C705 C706 1.349 . S
C705 C707 1.327 . S
C705 H728 0.950 . S
C706 C705 1.349 . S
C706 C718 1.349 . S
C707 C705 1.327 . S
C707 C723 1.429 . S
C707 H729 0.950 . S
C708 H704 0.949 . S
C708 C716 1.574 . S
C708 C724 1.368 . S
H709 C717 0.950 . S
H710 C715 0.950 . S
H711 C716 0.949 . S
H712 C718 0.950 . S
H713 C719 0.950 . S
H714 C720 0.949 . S
C715 H710 0.950 . S
C715 C717 1.327 . S
C715 C721 1.429 . S
C716 C708 1.574 . S
C716 H711 0.949 . S
C716 C722 1.368 . S
C717 C701 1.349 . S
C717 H709 0.950 . S
C717 C715 1.327 . S
C718 C706 1.349 . S
C718 H712 0.950 . S
C718 C719 1.327 . S
C719 H713 0.950 . S
C719 C718 1.327 . S
C719 C723 1.429 . S
C720 C703 1.574 . S
C720 H714 0.949 . S
C720 C724 1.368 . S
C721 C702 1.429 . S
C721 C715 1.429 . S
C721 C722 1.523 . S
C722 C703 1.368 . S
C722 C716 1.368 . S
C722 C721 1.523 . S
C723 C707 1.429 . S
C723 C719 1.429 . S
C723 C724 1.523 . S
C724 C708 1.368 . S
C724 C720 1.368 . S
C724 C723 1.523 . S
H725 C700 0.950 . S
H726 C702 0.950 . S
H727 C703 0.949 . S
H728 C705 0.950 . S
H729 C707 0.950 . S
C730 C731 1.349 . S
C730 C732 1.327 . S
C730 H755 0.950 . S
C731 C730 1.349 . S
C731 C747 1.349 . S
C732 C730 1.327 . S
C732 C751 1.429 . S
C732 H756 0.950 . S
C733 C750 1.574 . S
C733 C752 1.368 . S
C733 H757 0.949 . S
H734 C738 0.949 . S
C735 C736 1.349 . S
C735 C737 1.327 . S
C735 H758 0.950 . S
C736 C735 1.349 . S
C736 C748 1.349 . S
C737 C735 1.327 . S
C737 C753 1.429 . S
C737 H759 0.950 . S
C738 H734 0.949 . S
C738 C746 1.574 . S
C738 C754 1.368 . S
H739 C747 0.950 . S
H740 C745 0.950 . S
H741 C746 0.949 . S
H742 C748 0.950 . S
H743 C749 0.950 . S
H744 C750 0.949 . S
C745 H740 0.950 . S
C745 C747 1.327 . S
C745 C751 1.429 . S
C746 C738 1.574 . S
C746 H741 0.949 . S
C746 C752 1.368 . S
C747 C731 1.349 . S
C747 H739 0.950 . S
C747 C745 1.327 . S
C748 C736 1.349 . S
C748 H742 0.950 . S
C748 C749 1.327 . S
C749 H743 0.950 . S
C749 C748 1.327 . S
C749 C753 1.429 . S
C750 C733 1.574 . S
C750 H744 0.949 . S
C750 C754 1.368 . S
C751 C732 1.429 . S
C751 C745 1.429 . S
C751 C752 1.523 . S
C752 C733 1.368 . S
C752 C746 1.368 . S
C752 C751 1.523 . S
C753 C737 1.429 . S
C753 C749 1.429 . S
C753 C754 1.523 . S
C754 C738 1.368 . S
C754 C750 1.368 . S
C754 C753 1.523 . S
H755 C730 0.950 . S
H756 C732 0.950 . S
H757 C733 0.949 . S
H758 C735 0.950 . S
H759 C737 0.950 . S
C760 C761 1.349 . S
C760 C762 1.327 . S
C760 H785 0.950 . S
C761 C760 1.349 . S
C761 C777 1.349 . S
C762 C760 1.327 . S
C762 C781 1.429 . S
C762 H786 0.950 . S
C763 C780 1.574 1_455 S
C763 C782 1.368 . S
C763 H787 0.949 . S
H764 C768 0.949 . S
C765 C766 1.349 . S
C765 C767 1.327 . S
C765 H788 0.950 . S
C766 C765 1.349 . S
C766 C778 1.349 . S
C767 C765 1.327 . S
C767 C783 1.429 . S
C767 H789 0.950 . S
C768 H764 0.949 . S
C768 C776 1.574 1_655 S
C768 C784 1.368 . S
H769 C777 0.950 . S
H770 C775 0.950 . S
H771 C776 0.949 . S
H772 C778 0.950 . S
H773 C779 0.950 . S
H774 C780 0.949 . S
C775 H770 0.950 . S
C775 C777 1.327 . S
C775 C781 1.429 . S
C776 C768 1.574 1_455 S
C776 H771 0.949 . S
C776 C782 1.368 . S
C777 C761 1.349 . S
C777 H769 0.950 . S
C777 C775 1.327 . S
C778 C766 1.349 . S
C778 H772 0.950 . S
C778 C779 1.327 . S
C779 H773 0.950 . S
C779 C778 1.327 . S
C779 C783 1.429 . S
C780 C763 1.574 1_655 S
C780 H774 0.949 . S
C780 C784 1.368 . S
C781 C762 1.429 . S
C781 C775 1.429 . S
C781 C782 1.523 . S
C782 C763 1.368 . S
C782 C776 1.368 . S
C782 C781 1.523 . S
C783 C767 1.429 . S
C783 C779 1.429 . S
C783 C784 1.523 . S
C784 C768 1.368 . S
C784 C780 1.368 . S
C784 C783 1.523 . S
H785 C760 0.950 . S
H786 C762 0.950 . S
H787 C763 0.949 . S
H788 C765 0.950 . S
H789 C767 0.950 . S
C790 C791 1.349 . S
C790 C792 1.327 . S
C790 H815 0.950 . S
C791 C790 1.349 . S
C791 C807 1.349 . S
C792 C790 1.327 . S
C792 C811 1.429 . S
C792 H816 0.950 . S
C793 C810 1.574 1_655 S
C793 C812 1.368 . S
C793 H817 0.949 . S
H794 C798 0.949 . S
C795 C796 1.349 . S
C795 C797 1.327 . S
C795 H818 0.950 . S
C796 C795 1.349 . S
C796 C808 1.349 . S
C797 C795 1.327 . S
C797 C813 1.429 . S
C797 H819 0.950 . S
C798 H794 0.949 . S
C798 C806 1.574 1_455 S
C798 C814 1.368 . S
H799 C807 0.950 . S
H800 C805 0.950 . S
H801 C806 0.949 . S
H802 C808 0.950 . S
H803 C809 0.950 . S
H804 C810 0.949 . S
C805 H800 0.950 . S
C805 C807 1.327 . S
C805 C811 1.429 . S
C806 C798 1.574 1_655 S
C806 H801 0.949 . S
C806 C812 1.368 . S
C807 C791 1.349 . S
C807 H799 0.950 . S
C807 C805 1.327 . S
C808 C796 1.349 . S
C808 H802 0.950 . S
C808 C809 1.327 . S
C809 H803 0.950 . S
C809 C808 1.327 . S
C809 C813 1.429 . S
C810 C793 1.574 1_455 S
C810 H804 0.949 . S
C810 C814 1.368 . S
C811 C792 1.429 . S
C811 C805 1.429 . S
C811 C812 1.523 . S
C812 C793 1.368 . S
C812 C806 1.368 . S
C812 C811 1.523 . S
C813 C797 1.429 . S
C813 C809 1.429 . S
C813 C814 1.523 . S
C814 C798 1.368 . S
C814 C810 1.368 . S
C814 C813 1.523 . S
H815 C790 0.950 . S
H816 C792 0.950 . S
H817 C793 0.949 . S
H818 C795 0.950 . S
H819 C797 0.950 . S
C820 C821 1.349 . S
C820 C822 1.327 . S
C820 H845 0.950 1_556 S
C821 C820 1.349 . S
C821 C837 1.349 . S
C822 C820 1.327 . S
C822 C841 1.429 . S
C822 H846 0.950 1_556 S
C823 C840 1.574 . S
C823 C842 1.368 . S
C823 H847 0.949 . S
H824 C828 0.949 1_554 S
C825 C826 1.349 . S
C825 C827 1.327 . S
C825 H848 0.950 . S
C826 C825 1.349 . S
C826 C838 1.349 . S
C827 C825 1.327 . S
C827 C843 1.429 . S
C827 H849 0.950 . S
C828 H824 0.949 1_556 S
C828 C836 1.574 . S
C828 C844 1.368 . S
H829 C837 0.950 . S
H830 C835 0.950 . S
H831 C836 0.949 1_554 S
H832 C838 0.950 1_554 S
H833 C839 0.950 1_554 S
H834 C840 0.949 . S
C835 H830 0.950 . S
C835 C837 1.327 . S
C835 C841 1.429 . S
C836 C828 1.574 . S
C836 H831 0.949 1_556 S
C836 C842 1.368 . S
C837 C821 1.349 . S
C837 H829 0.950 . S
C837 C835 1.327 . S
C838 C826 1.349 . S
C838 H832 0.950 1_556 S
C838 C839 1.327 . S
C839 H833 0.950 1_556 S
C839 C838 1.327 . S
C839 C843 1.429 . S
C840 C823 1.574 . S
C840 H834 0.949 . S
C840 C844 1.368 . S
C841 C822 1.429 . S
C841 C835 1.429 . S
C841 C842 1.523 . S
C842 C823 1.368 . S
C842 C836 1.368 . S
C842 C841 1.523 . S
C843 C827 1.429 . S
C843 C839 1.429 . S
C843 C844 1.523 . S
C844 C828 1.368 . S
C844 C840 1.368 . S
C844 C843 1.523 . S
H845 C820 0.950 1_554 S
H846 C822 0.950 1_554 S
H847 C823 0.949 . S
H848 C825 0.950 . S
H849 C827 0.950 . S
C850 C851 1.349 . S
C850 C852 1.327 . S
C850 H875 0.950 1_554 S
C851 C850 1.349 . S
C851 C867 1.349 . S
C852 C850 1.327 . S
C852 C871 1.429 . S
C852 H876 0.950 1_554 S
C853 C870 1.574 . S
C853 C872 1.368 . S
C853 H877 0.949 . S
H854 C858 0.949 1_556 S
C855 C856 1.349 . S
C855 C857 1.327 . S
C855 H878 0.950 . S
C856 C855 1.349 . S
C856 C868 1.349 . S
C857 C855 1.327 . S
C857 C873 1.429 . S
C857 H879 0.950 . S
C858 H854 0.949 1_554 S
C858 C866 1.574 . S
C858 C874 1.368 . S
H859 C867 0.950 . S
H860 C865 0.950 . S
H861 C866 0.949 1_556 S
H862 C868 0.950 1_556 S
H863 C869 0.950 1_556 S
H864 C870 0.949 . S
C865 H860 0.950 . S
C865 C867 1.327 . S
C865 C871 1.429 . S
C866 C858 1.574 . S
C866 H861 0.949 1_554 S
C866 C872 1.368 . S
C867 C851 1.349 . S
C867 H859 0.950 . S
C867 C865 1.327 . S
C868 C856 1.349 . S
C868 H862 0.950 1_554 S
C868 C869 1.327 . S
C869 H863 0.950 1_554 S
C869 C868 1.327 . S
C869 C873 1.429 . S
C870 C853 1.574 . S
C870 H864 0.949 . S
C870 C874 1.368 . S
C871 C852 1.429 . S
C871 C865 1.429 . S
C871 C872 1.523 . S
C872 C853 1.368 . S
C872 C866 1.368 . S
C872 C871 1.523 . S
C873 C857 1.429 . S
C873 C869 1.429 . S
C873 C874 1.523 . S
C874 C858 1.368 . S
C874 C870 1.368 . S
C874 C873 1.523 . S
H875 C850 0.950 1_556 S
H876 C852 0.950 1_556 S
H877 C853 0.949 . S
H878 C855 0.950 . S
H879 C857 0.950 . S
C161 C9 1.729 . S
C166 C149 1.725 . S
C191 C129 1.705 . S
C196 C32 1.704 . S
C221 C112 1.704 . S
C226 C49 1.705 . S
C251 C89 1.729 . S
C256 C69 1.725 . S
C281 C58 1.474 . S
C286 C18 1.468 . S
C311 C38 1.114 . S
C316 C78 1.105 . S
C341 C79 1.868 . S
C346 C39 1.860 . S
C371 C59 1.517 . S
C376 C19 1.511 . S
C401 C98 1.466 1_554 S
C406 C138 1.473 1_556 S
C431 C118 1.114 . S
C436 C158 1.105 . S
C461 C159 1.868 . S
C466 C119 1.860 1_554 S
C491 C139 1.517 . S
C496 C99 1.511 . S
C521 C4 1.430 . S
C526 C2 1.430 . S
C551 C22 1.427 . S
C556 C24 1.427 . S
C581 C42 1.426 . S
C586 C44 1.426 . S
C611 C64 1.425 . S
C616 C62 1.425 . S
C641 C82 1.430 . S
C646 C84 1.430 . S
C671 C102 1.427 . S
C676 C104 1.427 . S
C701 C124 1.426 . S
C706 C122 1.426 . S
C731 C144 1.425 . S
C736 C142 1.425 . S
C761 C12 1.994 . S
C766 C29 1.991 . S
C791 C72 1.968 . S
C796 C52 1.968 . S
C821 C92 1.994 . S
C826 C109 1.991 . S
C851 C152 1.967 . S
C856 C132 1.968 . S
