# Generated by pormake.
# Topology yfj, (5)-cn, num edge types: 1
# Building blocks:
#     Node 0, Type 0, BuildingBlock: XOMCOT_clean_sbu_1, # of connection points: 5
#     Node 1, Type 0, BuildingBlock: XOMCOT_clean_sbu_1, # of connection points: 5
#     Node 2, Type 0, BuildingBlock: XOMCOT_clean_sbu_1, # of connection points: 5
#     Node 3, Type 0, BuildingBlock: XOMCOT_clean_sbu_1, # of connection points: 5
#     Node 4, Type 0, BuildingBlock: XOMCOT_clean_sbu_1, # of connection points: 5
#     Node 5, Type 0, BuildingBlock: XOMCOT_clean_sbu_1, # of connection points: 5
#     Node 6, Type 0, BuildingBlock: XOMCOT_clean_sbu_1, # of connection points: 5
#     Node 7, Type 0, BuildingBlock: XOMCOT_clean_sbu_1, # of connection points: 5
#     Node 8, Type 0, BuildingBlock: XOMCOT_clean_sbu_1, # of connection points: 5
#     Node 9, Type 0, BuildingBlock: XOMCOT_clean_sbu_1, # of connection points: 5
#     Node 10, Type 0, BuildingBlock: XOMCOT_clean_sbu_1, # of connection points: 5
#     Node 11, Type 0, BuildingBlock: XOMCOT_clean_sbu_1, # of connection points: 5
#     Node 12, Type 0, BuildingBlock: XOMCOT_clean_sbu_1, # of connection points: 5
#     Node 13, Type 0, BuildingBlock: XOMCOT_clean_sbu_1, # of connection points: 5
#     Node 14, Type 0, BuildingBlock: XOMCOT_clean_sbu_1, # of connection points: 5
#     Node 15, Type 0, BuildingBlock: XOMCOT_clean_sbu_1, # of connection points: 5
#     Edge 16, Type (0, 0), BuildingBlock: TEMPAE_clean_linker_10, # of connection points: 2
#     Edge 17, Type (0, 0), BuildingBlock: TEMPAE_clean_linker_10, # of connection points: 2
#     Edge 18, Type (0, 0), BuildingBlock: TEMPAE_clean_linker_10, # of connection points: 2
#     Edge 19, Type (0, 0), BuildingBlock: TEMPAE_clean_linker_10, # of connection points: 2
#     Edge 20, Type (0, 0), BuildingBlock: TEMPAE_clean_linker_10, # of connection points: 2
#     Edge 21, Type (0, 0), BuildingBlock: TEMPAE_clean_linker_10, # of connection points: 2
#     Edge 22, Type (0, 0), BuildingBlock: TEMPAE_clean_linker_10, # of connection points: 2
#     Edge 23, Type (0, 0), BuildingBlock: TEMPAE_clean_linker_10, # of connection points: 2
#     Edge 24, Type (0, 0), BuildingBlock: TEMPAE_clean_linker_10, # of connection points: 2
#     Edge 25, Type (0, 0), BuildingBlock: TEMPAE_clean_linker_10, # of connection points: 2
#     Edge 26, Type (0, 0), BuildingBlock: TEMPAE_clean_linker_10, # of connection points: 2
#     Edge 27, Type (0, 0), BuildingBlock: TEMPAE_clean_linker_10, # of connection points: 2
#     Edge 28, Type (0, 0), BuildingBlock: TEMPAE_clean_linker_10, # of connection points: 2
#     Edge 29, Type (0, 0), BuildingBlock: TEMPAE_clean_linker_10, # of connection points: 2
#     Edge 30, Type (0, 0), BuildingBlock: TEMPAE_clean_linker_10, # of connection points: 2
#     Edge 31, Type (0, 0), BuildingBlock: TEMPAE_clean_linker_10, # of connection points: 2
#     Edge 32, Type (0, 0), BuildingBlock: TEMPAE_clean_linker_10, # of connection points: 2
#     Edge 33, Type (0, 0), BuildingBlock: TEMPAE_clean_linker_10, # of connection points: 2
#     Edge 34, Type (0, 0), BuildingBlock: TEMPAE_clean_linker_10, # of connection points: 2
#     Edge 35, Type (0, 0), BuildingBlock: TEMPAE_clean_linker_10, # of connection points: 2
#     Edge 36, Type (0, 0), BuildingBlock: TEMPAE_clean_linker_10, # of connection points: 2
#     Edge 37, Type (0, 0), BuildingBlock: TEMPAE_clean_linker_10, # of connection points: 2
#     Edge 38, Type (0, 0), BuildingBlock: TEMPAE_clean_linker_10, # of connection points: 2
#     Edge 39, Type (0, 0), BuildingBlock: TEMPAE_clean_linker_10, # of connection points: 2
#     Edge 40, Type (0, 0), BuildingBlock: TEMPAE_clean_linker_10, # of connection points: 2
#     Edge 41, Type (0, 0), BuildingBlock: TEMPAE_clean_linker_10, # of connection points: 2
#     Edge 42, Type (0, 0), BuildingBlock: TEMPAE_clean_linker_10, # of connection points: 2
#     Edge 43, Type (0, 0), BuildingBlock: TEMPAE_clean_linker_10, # of connection points: 2
#     Edge 44, Type (0, 0), BuildingBlock: TEMPAE_clean_linker_10, # of connection points: 2
#     Edge 45, Type (0, 0), BuildingBlock: TEMPAE_clean_linker_10, # of connection points: 2
#     Edge 46, Type (0, 0), BuildingBlock: TEMPAE_clean_linker_10, # of connection points: 2
#     Edge 47, Type (0, 0), BuildingBlock: TEMPAE_clean_linker_10, # of connection points: 2
#     Edge 48, Type (0, 0), BuildingBlock: TEMPAE_clean_linker_10, # of connection points: 2
#     Edge 49, Type (0, 0), BuildingBlock: TEMPAE_clean_linker_10, # of connection points: 2
#     Edge 50, Type (0, 0), BuildingBlock: TEMPAE_clean_linker_10, # of connection points: 2
#     Edge 51, Type (0, 0), BuildingBlock: TEMPAE_clean_linker_10, # of connection points: 2
#     Edge 52, Type (0, 0), BuildingBlock: TEMPAE_clean_linker_10, # of connection points: 2
#     Edge 53, Type (0, 0), BuildingBlock: TEMPAE_clean_linker_10, # of connection points: 2
#     Edge 54, Type (0, 0), BuildingBlock: TEMPAE_clean_linker_10, # of connection points: 2
#     Edge 55, Type (0, 0), BuildingBlock: TEMPAE_clean_linker_10, # of connection points: 2
# Relax obj value: 0.476
# Max RMSD: 0.238
# Mean RMSD: 0.238
data_MOF--net-yfj--node1-XOMCOT_clean_sbu_1--edge1-TEMPAE_clean_linker_10
_symmetry_space_group_name_H-M    P1
_symmetry_Int_Tables_number       1
_symmetry_cell_setting            triclinic
loop_
_symmetry_equiv_pos_as_xyz
'x, y, z'
_cell_length_a     49.739459
_cell_length_b     49.547597
_cell_length_c     45.024939
_cell_angle_alpha  90.128494
_cell_angle_beta   89.969904
_cell_angle_gamma 89.733875
loop_
_atom_site_label
_atom_site_type_symbol
_atom_site_fract_x
_atom_site_fract_y
_atom_site_fract_z
_atom_type_partial_charge
C0 C 0.11291 0.09355 0.34836 0.0
C1 C 0.11142 0.08637 0.37769 0.0
N2 N 0.11981 0.10732 0.3945 0.0
N3 N 0.12179 0.11909 0.34635 0.0
C4 C 0.12607 0.12691 0.3747 0.0
H5 H 0.10827 0.08079 0.32955 0.0
Co6 Co 0.12993 0.13632 0.31058 0.0
C7 C 0.11169 0.19225 0.33545 0.0
O8 O 0.08769 0.19315 0.32341 0.0
N9 N 0.13985 0.15237 0.27418 0.0
C10 C 0.1479 0.17788 0.23459 0.0
C11 C 0.13287 0.17544 0.26039 0.0
C12 C 0.15876 0.14118 0.25625 0.0
N13 N 0.16446 0.15625 0.23204 0.0
O14 O 0.16585 0.13558 0.32132 0.0
H15 H 0.11812 0.1897 0.26861 0.0
H16 H 0.16852 0.12232 0.26129 0.0
O17 O 0.1272 0.17203 0.33063 0.0
C18 C 0.17542 0.1119 0.31869 0.0
O19 O 0.1605 0.0927 0.30723 0.0
N20 N 0.09344 0.13359 0.29919 0.0
C21 C 0.05335 0.09435 0.29756 0.0
C22 C 0.05267 0.11479 0.31919 0.0
C23 C 0.07297 0.13448 0.31958 0.0
C24 C 0.09172 0.11643 0.2755 0.0
C25 C 0.07201 0.09652 0.27442 0.0
H26 H 0.07485 0.14676 0.33931 0.0
H27 H 0.10814 0.11482 0.2599 0.0
H28 H 0.13446 0.1463 0.38042 0.0
H29 H 0.10487 0.06691 0.3856 0.0
H30 H 0.14663 0.19449 0.21912 0.0
H31 H 0.03867 0.11368 0.33757 0.0
H32 H 0.07305 0.08124 0.25719 0.0
C33 C 0.91219 0.61444 0.59875 0.0
C34 C 0.91776 0.61185 0.62845 0.0
N35 N 0.89538 0.61807 0.64404 0.0
N36 N 0.88627 0.62178 0.59539 0.0
C37 C 0.87659 0.62414 0.62334 0.0
H38 H 0.92616 0.61128 0.58065 0.0
Co39 Co 0.87035 0.62987 0.55882 0.0
C40 C 0.81458 0.60907 0.58227 0.0
O41 O 0.81519 0.58417 0.57232 0.0
N42 N 0.8552 0.64 0.52113 0.0
C43 C 0.84137 0.6399 0.47385 0.0
C44 C 0.84327 0.62498 0.49982 0.0
C45 C 0.85932 0.66421 0.50762 0.0
N46 N 0.85134 0.66468 0.47904 0.0
O47 O 0.86849 0.66502 0.57098 0.0
H48 H 0.83801 0.60394 0.50228 0.0
H49 H 0.86957 0.68105 0.51759 0.0
O50 O 0.83415 0.62502 0.57684 0.0
C51 C 0.89139 0.67591 0.56824 0.0
O52 O 0.91058 0.66322 0.55369 0.0
N53 N 0.87615 0.59369 0.54669 0.0
C54 C 0.9161 0.55373 0.54519 0.0
C55 C 0.89557 0.55291 0.56656 0.0
C56 C 0.87531 0.57279 0.56655 0.0
C57 C 0.89449 0.59305 0.52407 0.0
C58 C 0.91436 0.57306 0.52269 0.0
H59 H 0.86233 0.57399 0.58574 0.0
H60 H 0.89658 0.61023 0.50953 0.0
H61 H 0.85644 0.63106 0.62838 0.0
H62 H 0.9369 0.6057 0.63768 0.0
H63 H 0.83406 0.63281 0.4526 0.0
H64 H 0.89641 0.5384 0.5845 0.0
H65 H 0.93003 0.5746 0.50606 0.0
C66 C 0.3895 0.40574 0.84907 0.0
C67 C 0.39111 0.41186 0.87842 0.0
N68 N 0.39189 0.38875 0.89403 0.0
N69 N 0.38924 0.37869 0.84517 0.0
C70 C 0.39069 0.36878 0.87326 0.0
H71 H 0.38693 0.42052 0.83171 0.0
Co72 Co 0.38111 0.36393 0.80715 0.0
C73 C 0.37305 0.31502 0.82966 0.0
O74 O 0.39647 0.31336 0.81623 0.0
N75 N 0.37054 0.35126 0.76891 0.0
C76 C 0.37019 0.34805 0.71951 0.0
C77 C 0.38618 0.34813 0.74465 0.0
C78 C 0.34503 0.352 0.75784 0.0
N79 N 0.34427 0.3505 0.72783 0.0
O80 O 0.35256 0.38905 0.80495 0.0
H81 H 0.40792 0.3487 0.74493 0.0
H82 H 0.32745 0.35623 0.77127 0.0
O83 O 0.35931 0.33673 0.82637 0.0
C84 C 0.33344 0.40593 0.80339 0.0
O85 O 0.33128 0.42151 0.77994 0.0
N86 N 0.40516 0.38863 0.78994 0.0
C87 C 0.44123 0.43151 0.78674 0.0
C88 C 0.44859 0.40708 0.80038 0.0
C89 C 0.4305 0.38567 0.801 0.0
C90 C 0.39871 0.41058 0.77316 0.0
C91 C 0.41656 0.43233 0.77128 0.0
H92 H 0.4355 0.36779 0.81365 0.0
H93 H 0.3792 0.41214 0.76285 0.0
H94 H 0.38976 0.34752 0.8784 0.0
H95 H 0.38998 0.43209 0.88738 0.0
H96 H 0.37721 0.34811 0.69675 0.0
H97 H 0.46725 0.40495 0.8125 0.0
H98 H 0.41046 0.45006 0.75897 0.0
C99 C 0.60738 0.90721 0.10224 0.0
C100 C 0.60267 0.90806 0.13215 0.0
N101 N 0.62529 0.90054 0.14583 0.0
N102 N 0.63318 0.89951 0.09661 0.0
C103 C 0.64333 0.89517 0.12426 0.0
H104 H 0.59174 0.9098 0.08593 0.0
Co105 Co 0.64628 0.88745 0.05849 0.0
C106 C 0.69571 0.88543 0.08427 0.0
O107 O 0.69381 0.91052 0.07508 0.0
N108 N 0.65735 0.8735 0.02126 0.0
C109 C 0.66612 0.87182 0.97282 0.0
C110 C 0.66587 0.88801 0.99785 0.0
C111 C 0.6531 0.84836 0.00995 0.0
N112 N 0.6579 0.84684 0.98038 0.0
O113 O 0.62485 0.85663 0.06466 0.0
H114 H 0.66992 0.90943 0.99855 0.0
H115 H 0.64485 0.83184 0.02264 0.0
O116 O 0.67643 0.86936 0.07801 0.0
C117 C 0.60179 0.846 0.06745 0.0
O118 O 0.57963 0.86034 0.06544 0.0
N119 N 0.61925 0.90756 0.03937 0.0
C120 C 0.57565 0.94157 0.03056 0.0
C121 C 0.60012 0.952 0.04063 0.0
C122 C 0.62194 0.93457 0.04446 0.0
C123 C 0.59759 0.89815 0.02406 0.0
C124 C 0.57492 0.91472 0.02043 0.0
H125 H 0.64001 0.942 0.055 0.0
H126 H 0.5969 0.87734 0.0169 0.0
H127 H 0.66262 0.88616 0.12891 0.0
H128 H 0.58363 0.91209 0.14299 0.0
H129 H 0.67107 0.87827 0.95054 0.0
H130 H 0.60166 0.97276 0.04804 0.0
H131 H 0.55664 0.90634 0.01127 0.0
C132 C 0.11506 0.41371 0.91127 0.0
C133 C 0.11207 0.42019 0.88186 0.0
N134 N 0.11639 0.39777 0.86532 0.0
N135 N 0.12103 0.3873 0.91352 0.0
C136 C 0.12199 0.37817 0.88531 0.0
H137 H 0.11337 0.42744 0.92989 0.0
Co138 Co 0.12893 0.36986 0.94888 0.0
C139 C 0.10868 0.31278 0.92817 0.0
O140 O 0.08929 0.30851 0.94733 0.0
N141 N 0.13849 0.35354 0.98541 0.0
C142 C 0.14253 0.33011 0.02736 0.0
C143 C 0.12792 0.33324 1.00143 0.0
C144 C 0.15912 0.36259 1.00238 0.0
N145 N 0.16229 0.3487 0.02795 0.0
O146 O 0.16434 0.36669 0.93622 0.0
H147 H 0.1104 0.32181 0.99525 0.0
H148 H 0.17172 0.37924 0.99611 0.0
O149 O 0.12231 0.33458 0.92931 0.0
C150 C 0.17772 0.38834 0.93839 0.0
O151 O 0.1669 0.40953 0.95144 0.0
N152 N 0.09341 0.37591 0.96149 0.0
C153 C 0.05378 0.41594 0.96286 0.0
C154 C 0.05175 0.39415 0.94293 0.0
C155 C 0.07188 0.37404 0.94269 0.0
C156 C 0.09351 0.39485 0.98351 0.0
C157 C 0.07395 0.41507 0.98452 0.0
H158 H 0.07235 0.35978 0.92449 0.0
H159 H 0.11099 0.39702 0.99754 0.0
H160 H 0.12734 0.35766 0.87974 0.0
H161 H 0.10744 0.44014 0.87366 0.0
H162 H 0.13843 0.31558 0.04466 0.0
H163 H 0.03649 0.39415 0.92579 0.0
H164 H 0.07607 0.43136 1.00044 0.0
C165 C 0.59433 0.61853 0.16156 0.0
C166 C 0.58844 0.61683 0.13176 0.0
N167 N 0.61116 0.62161 0.11654 0.0
N168 N 0.62061 0.62452 0.16489 0.0
C169 C 0.63036 0.62624 0.13694 0.0
H170 H 0.58018 0.6167 0.17968 0.0
Co171 Co 0.63658 0.63429 0.20078 0.0
C172 C 0.6936 0.61399 0.18129 0.0
O173 O 0.69621 0.59255 0.19816 0.0
N174 N 0.65169 0.64572 0.23749 0.0
C175 C 0.66856 0.64713 0.28339 0.0
C176 C 0.66665 0.63206 0.25753 0.0
C177 C 0.64531 0.66918 0.25159 0.0
N178 N 0.65525 0.67058 0.27941 0.0
O179 O 0.63852 0.66909 0.18659 0.0
H180 H 0.67433 0.61182 0.25424 0.0
H181 H 0.63223 0.68451 0.2425 0.0
O182 O 0.67226 0.62835 0.18304 0.0
C183 C 0.61578 0.68073 0.18691 0.0
O184 O 0.5958 0.66988 0.20171 0.0
N185 N 0.6317 0.59893 0.2146 0.0
C186 C 0.59682 0.5554 0.2202 0.0
C187 C 0.61722 0.555 0.19868 0.0
C188 C 0.63489 0.57693 0.19651 0.0
C189 C 0.61343 0.59841 0.23722 0.0
C190 C 0.59597 0.57668 0.2406 0.0
H191 H 0.64819 0.57792 0.17757 0.0
H192 H 0.6098 0.61637 0.25033 0.0
H193 H 0.65066 0.63228 0.13152 0.0
H194 H 0.56893 0.61308 0.12196 0.0
H195 H 0.67836 0.64105 0.30378 0.0
H196 H 0.61811 0.539 0.18229 0.0
H197 H 0.58017 0.57779 0.25714 0.0
C198 C 0.39608 0.09595 0.41091 0.0
C199 C 0.39892 0.08932 0.38144 0.0
N200 N 0.39021 0.11033 0.36509 0.0
N201 N 0.38603 0.12122 0.41315 0.0
C202 C 0.38231 0.12933 0.38481 0.0
H203 H 0.40086 0.08314 0.42961 0.0
Co204 Co 0.37681 0.1385 0.44876 0.0
C205 C 0.39194 0.19491 0.42382 0.0
O206 O 0.41542 0.19675 0.43689 0.0
N207 N 0.36567 0.1549 0.48498 0.0
C208 C 0.35868 0.18064 0.52494 0.0
C209 C 0.37433 0.1769 0.49975 0.0
C210 C 0.34505 0.1456 0.50185 0.0
N211 N 0.33996 0.16101 0.52601 0.0
O212 O 0.34105 0.13487 0.43821 0.0
H213 H 0.39084 0.18947 0.49269 0.0
H214 H 0.33403 0.12749 0.49685 0.0
O215 O 0.37721 0.17412 0.42802 0.0
C216 C 0.33373 0.11066 0.44258 0.0
O217 O 0.35053 0.09322 0.45442 0.0
N218 N 0.41354 0.13827 0.46018 0.0
C219 C 0.45392 0.09889 0.46256 0.0
C220 C 0.45388 0.11836 0.43986 0.0
C221 C 0.43369 0.1384 0.43938 0.0
C222 C 0.41635 0.12265 0.48494 0.0
C223 C 0.43638 0.10291 0.48656 0.0
H224 H 0.43141 0.15012 0.41931 0.0
H225 H 0.40055 0.12191 0.50135 0.0
H226 H 0.37395 0.14873 0.3787 0.0
H227 H 0.40632 0.07031 0.37273 0.0
H228 H 0.36065 0.19692 0.54082 0.0
H229 H 0.46719 0.11631 0.42094 0.0
H230 H 0.43628 0.08909 0.50517 0.0
C231 C 0.90974 0.89494 0.66648 0.0
C232 C 0.91654 0.89607 0.63686 0.0
N233 N 0.89415 0.89171 0.62092 0.0
N234 N 0.88324 0.88957 0.66902 0.0
C235 C 0.87428 0.88791 0.64074 0.0
H236 H 0.92347 0.89646 0.68502 0.0
Co237 Co 0.86629 0.87924 0.70443 0.0
C238 C 0.80815 0.89494 0.6868 0.0
O239 O 0.8032 0.91146 0.70901 0.0
N240 N 0.85041 0.86701 0.74069 0.0
C241 C 0.8345 0.86474 0.78706 0.0
C242 C 0.83638 0.88051 0.76178 0.0
C243 C 0.85613 0.84287 0.75366 0.0
N244 N 0.84682 0.84098 0.7817 0.0
O245 O 0.86711 0.84455 0.69055 0.0
H246 H 0.82966 0.90121 0.75984 0.0
H247 H 0.86848 0.82734 0.74374 0.0
O248 O 0.83106 0.8833 0.68501 0.0
C249 C 0.89063 0.83465 0.69202 0.0
O250 O 0.90888 0.84642 0.70864 0.0
N251 N 0.86854 0.9148 0.71803 0.0
C252 C 0.90593 0.95637 0.71976 0.0
C253 C 0.88467 0.95702 0.69917 0.0
C254 C 0.86565 0.93613 0.69906 0.0
C255 C 0.88666 0.916 0.74068 0.0
C256 C 0.90521 0.93685 0.74224 0.0
H257 H 0.85183 0.93474 0.68058 0.0
H258 H 0.88972 0.89873 0.75492 0.0
H259 H 0.85411 0.8823 0.63461 0.0
H260 H 0.93643 0.89906 0.6277 0.0
H261 H 0.82562 0.87062 0.80806 0.0
H262 H 0.88427 0.97179 0.68148 0.0
H263 H 0.92059 0.93605 0.75924 0.0
C264 C 0.61249 0.6001 0.85039 0.0
C265 C 0.60823 0.59553 0.88011 0.0
N266 N 0.61653 0.61738 0.89534 0.0
N267 N 0.62304 0.62491 0.84678 0.0
C268 C 0.62567 0.63479 0.87467 0.0
H269 H 0.60806 0.58626 0.83246 0.0
Co270 Co 0.63281 0.64033 0.81021 0.0
C271 C 0.61542 0.69696 0.8331 0.0
O272 O 0.59195 0.69786 0.81982 0.0
N273 N 0.64423 0.65515 0.77302 0.0
C274 C 0.64709 0.67549 0.72884 0.0
C275 C 0.63237 0.6734 0.75495 0.0
C276 C 0.66614 0.64671 0.75735 0.0
N277 N 0.66841 0.65876 0.73069 0.0
O278 O 0.66824 0.63776 0.82165 0.0
H279 H 0.61372 0.68376 0.75991 0.0
H280 H 0.68 0.63129 0.76459 0.0
O281 O 0.63103 0.67666 0.82906 0.0
C282 C 0.67493 0.61326 0.81739 0.0
O283 O 0.65777 0.59642 0.80528 0.0
N284 N 0.59662 0.6385 0.79791 0.0
C285 C 0.55453 0.60117 0.79395 0.0
C286 C 0.55405 0.62184 0.81548 0.0
C287 C 0.57531 0.6404 0.81711 0.0
C288 C 0.59555 0.62074 0.77474 0.0
C289 C 0.57497 0.60192 0.77248 0.0
H290 H 0.57667 0.65291 0.83672 0.0
H291 H 0.61285 0.6178 0.76059 0.0
H292 H 0.63396 0.6544 0.87979 0.0
H293 H 0.60004 0.57737 0.88982 0.0
H294 H 0.64224 0.68792 0.70983 0.0
H295 H 0.53858 0.6224 0.8324 0.0
H296 H 0.57691 0.58632 0.75576 0.0
C297 C 0.41297 0.11985 0.09877 0.0
C298 C 0.41949 0.11678 0.12828 0.0
N299 N 0.39648 0.11673 0.14393 0.0
N300 N 0.38604 0.12223 0.0961 0.0
C301 C 0.37656 0.11995 0.12407 0.0
H302 H 0.427 0.12145 0.08051 0.0
Co303 Co 0.36851 0.13205 0.06115 0.0
C304 C 0.3102 0.11705 0.07873 0.0
O305 O 0.30515 0.10099 0.05622 0.0
N306 N 0.352 0.14342 0.02508 0.0
C307 C 0.33258 0.14555 0.9805 0.0
C308 C 0.33636 0.12998 1.00559 0.0
C309 C 0.35745 0.167 0.01104 0.0
N310 N 0.34604 0.16892 0.98391 0.0
O311 O 0.36861 0.16723 0.07484 0.0
H312 H 0.32955 0.10948 0.00839 0.0
H313 H 0.3701 0.18248 0.02013 0.0
O314 O 0.3333 0.12807 0.08099 0.0
C315 C 0.39073 0.17959 0.07197 0.0
O316 O 0.41012 0.16913 0.05576 0.0
N317 N 0.37125 0.09641 0.04799 0.0
C318 C 0.40594 0.05243 0.04432 0.0
C319 C 0.38559 0.05311 0.06591 0.0
C320 C 0.3678 0.07517 0.06691 0.0
C321 C 0.38922 0.09467 0.02517 0.0
C322 C 0.40656 0.07262 0.02272 0.0
H323 H 0.35426 0.07705 0.0856 0.0
H324 H 0.39287 0.11205 0.01129 0.0
H325 H 0.3557 0.12191 0.13016 0.0
H326 H 0.43949 0.11539 0.13765 0.0
H327 H 0.32183 0.13944 0.96073 0.0
H328 H 0.38473 0.03783 0.08305 0.0
H329 H 0.42223 0.07284 0.006 0.0
C330 C 0.89633 0.91311 0.35531 0.0
C331 C 0.90006 0.91739 0.38519 0.0
N332 N 0.89256 0.89495 0.39979 0.0
N333 N 0.88696 0.8879 0.35101 0.0
C334 C 0.88445 0.87748 0.37861 0.0
H335 H 0.90028 0.92741 0.33774 0.0
Co336 Co 0.87807 0.87257 0.31416 0.0
C337 C 0.89712 0.8162 0.33623 0.0
O338 O 0.92146 0.81665 0.325 0.0
N339 N 0.86754 0.85745 0.27679 0.0
C340 C 0.8669 0.83896 0.23148 0.0
C341 C 0.88163 0.84207 0.25738 0.0
C342 C 0.8441 0.86271 0.26232 0.0
N343 N 0.84321 0.85182 0.23491 0.0
O344 O 0.84253 0.8736 0.32562 0.0
H345 H 0.90177 0.83457 0.26126 0.0
H346 H 0.82812 0.87528 0.27085 0.0
O347 O 0.88104 0.83604 0.33194 0.0
C348 C 0.83479 0.89778 0.32136 0.0
O349 O 0.85111 0.91528 0.30908 0.0
N350 N 0.91429 0.87627 0.30197 0.0
C351 C 0.95449 0.91575 0.29873 0.0
C352 C 0.95576 0.89512 0.32017 0.0
C353 C 0.93553 0.87536 0.32131 0.0
C354 C 0.9147 0.89419 0.27896 0.0
C355 C 0.93448 0.91392 0.27693 0.0
H356 H 0.93466 0.86267 0.34076 0.0
H357 H 0.89738 0.89642 0.26473 0.0
H358 H 0.87692 0.85746 0.38316 0.0
H359 H 0.90728 0.93576 0.39542 0.0
H360 H 0.87322 0.82838 0.2116 0.0
H361 H 0.97094 0.89548 0.33739 0.0
H362 H 0.93213 0.92942 0.26021 0.0
C363 C 0.0932 0.39026 0.59744 0.0
C364 C 0.08616 0.39285 0.62681 0.0
N365 N 0.10832 0.38868 0.64343 0.0
N366 N 0.11969 0.38474 0.59554 0.0
C367 C 0.12835 0.38385 0.6239 0.0
H368 H 0.07976 0.39164 0.57863 0.0
Co369 Co 0.13775 0.37612 0.56068 0.0
C370 C 0.19691 0.39046 0.57694 0.0
O371 O 0.2046 0.39747 0.55017 0.0
N372 N 0.15471 0.36574 0.52402 0.0
C373 C 0.16684 0.3665 0.47618 0.0
C374 C 0.16477 0.3814 0.50214 0.0
C375 C 0.15164 0.34123 0.51067 0.0
N376 N 0.1586 0.34118 0.4817 0.0
O377 O 0.14043 0.34108 0.57436 0.0
H378 H 0.16818 0.40287 0.50407 0.0
H379 H 0.14232 0.32404 0.52096 0.0
O380 O 0.17251 0.38342 0.5813 0.0
C381 C 0.1186 0.32818 0.57151 0.0
O382 O 0.09922 0.33811 0.55493 0.0
N383 N 0.13171 0.41148 0.54756 0.0
C384 C 0.09315 0.45249 0.5467 0.0
C385 C 0.11555 0.45431 0.56562 0.0
C386 C 0.13495 0.4335 0.56555 0.0
C387 C 0.1117 0.41107 0.52687 0.0
C388 C 0.0922 0.43137 0.52609 0.0
H389 H 0.14999 0.43313 0.58289 0.0
H390 H 0.10836 0.39298 0.51393 0.0
H391 H 0.14859 0.37825 0.63018 0.0
H392 H 0.06623 0.39725 0.63521 0.0
H393 H 0.17263 0.37407 0.45458 0.0
H394 H 0.11669 0.47021 0.5821 0.0
H395 H 0.07508 0.42919 0.51142 0.0
C396 C 0.60794 0.91191 0.4089 0.0
C397 C 0.60437 0.91527 0.37886 0.0
N398 N 0.61355 0.89295 0.36503 0.0
N399 N 0.61869 0.88729 0.41398 0.0
C400 C 0.62237 0.87643 0.38671 0.0
H401 H 0.60324 0.92657 0.42598 0.0
Co402 Co 0.62869 0.87307 0.45091 0.0
C403 C 0.60847 0.81654 0.42969 0.0
O404 O 0.58402 0.81711 0.44062 0.0
N405 N 0.64026 0.85929 0.48807 0.0
C406 C 0.64639 0.83713 0.53043 0.0
C407 C 0.63127 0.83867 0.50467 0.0
C408 C 0.66066 0.86992 0.50425 0.0
N409 N 0.66513 0.85686 0.53021 0.0
O410 O 0.66381 0.87208 0.43794 0.0
H411 H 0.61466 0.82577 0.49863 0.0
H412 H 0.67191 0.88723 0.49707 0.0
O413 O 0.62439 0.8363 0.43427 0.0
C414 C 0.67271 0.89604 0.43901 0.0
O415 O 0.65746 0.91538 0.44999 0.0
N416 N 0.59315 0.87819 0.46471 0.0
C417 C 0.55414 0.91941 0.46796 0.0
C418 C 0.55096 0.89724 0.44852 0.0
C419 C 0.57082 0.87691 0.44702 0.0
C420 C 0.59436 0.89722 0.4866 0.0
C421 C 0.57554 0.91805 0.48828 0.0
H422 H 0.57033 0.86326 0.42831 0.0
H423 H 0.61236 0.89946 0.4997 0.0
H424 H 0.63163 0.85695 0.38272 0.0
H425 H 0.59648 0.93305 0.36792 0.0
H426 H 0.6434 0.82257 0.54795 0.0
H427 H 0.53456 0.89659 0.43277 0.0
H428 H 0.57986 0.93434 0.50352 0.0
C429 C 0.10209 0.11756 0.66194 0.0
C430 C 0.09614 0.11464 0.63263 0.0
N431 N 0.11926 0.11424 0.61713 0.0
N432 N 0.12904 0.11822 0.66588 0.0
C433 C 0.13901 0.11628 0.63786 0.0
H434 H 0.08727 0.12011 0.67926 0.0
Co435 Co 0.14396 0.12632 0.70381 0.0
C436 C 0.19253 0.13094 0.67901 0.0
O437 O 0.19186 0.10658 0.69051 0.0
N438 N 0.15679 0.13677 0.74186 0.0
C439 C 0.15832 0.13706 0.79132 0.0
C440 C 0.15877 0.12101 0.76616 0.0
C441 C 0.15641 0.16238 0.75293 0.0
N442 N 0.15681 0.1631 0.78295 0.0
O443 O 0.12079 0.15677 0.70458 0.0
H444 H 0.15742 0.09923 0.76582 0.0
H445 H 0.153 0.18011 0.73944 0.0
O446 O 0.17247 0.14658 0.68423 0.0
C447 C 0.10314 0.17477 0.7098 0.0
O448 O 0.08657 0.17263 0.73234 0.0
N449 N 0.11819 0.10359 0.72141 0.0
C450 C 0.0745 0.06904 0.72577 0.0
C451 C 0.09839 0.06045 0.71211 0.0
C452 C 0.1202 0.07792 0.71064 0.0
C453 C 0.09707 0.1107 0.7391 0.0
C454 C 0.07456 0.09386 0.74106 0.0
H455 H 0.13776 0.07206 0.69793 0.0
H456 H 0.09705 0.12968 0.75063 0.0
H457 H 0.16014 0.11771 0.63257 0.0
H458 H 0.07604 0.11343 0.62361 0.0
H459 H 0.15702 0.13005 0.81403 0.0
H460 H 0.09978 0.04095 0.70127 0.0
H461 H 0.05695 0.10091 0.75295 0.0
C462 C 0.89295 0.59391 0.91167 0.0
C463 C 0.89523 0.58786 0.88201 0.0
N464 N 0.8866 0.60931 0.86618 0.0
N465 N 0.88339 0.61924 0.91474 0.0
C466 C 0.87943 0.62802 0.88667 0.0
H467 H 0.89785 0.58064 0.92995 0.0
Co468 Co 0.87469 0.6358 0.95102 0.0
C469 C 0.89325 0.69154 0.92702 0.0
O470 O 0.91729 0.69177 0.939 0.0
N471 N 0.8641 0.65147 0.98772 0.0
C472 C 0.85628 0.67679 0.02786 0.0
C473 C 0.87187 0.67384 1.00246 0.0
C474 C 0.84404 0.64123 1.00469 0.0
N475 N 0.83852 0.65631 0.02895 0.0
O476 O 0.83902 0.63503 0.93991 0.0
H477 H 0.88753 0.68733 0.99508 0.0
H478 H 0.83358 0.62278 0.99959 0.0
O479 O 0.87739 0.67174 0.93177 0.0
C480 C 0.83032 0.61113 0.94284 0.0
O481 O 0.84598 0.59244 0.95433 0.0
N482 N 0.91105 0.63285 0.96287 0.0
C483 C 0.95175 0.59363 0.96538 0.0
C484 C 0.95216 0.61387 0.94351 0.0
C485 C 0.9317 0.63352 0.94275 0.0
C486 C 0.91269 0.61586 0.98664 0.0
C487 C 0.9327 0.59607 0.98823 0.0
H488 H 0.93001 0.64568 0.92296 0.0
H489 H 0.89608 0.61431 1.00198 0.0
H490 H 0.87063 0.64744 0.88144 0.0
H491 H 0.90286 0.56909 0.87298 0.0
H492 H 0.85747 0.69312 0.0438 0.0
H493 H 0.96669 0.61315 0.92561 0.0
H494 H 0.93123 0.58101 1.00552 0.0
C495 C 0.40262 0.39259 0.16282 0.0
C496 C 0.40954 0.39351 0.13368 0.0
N497 N 0.38703 0.39261 0.11714 0.0
N498 N 0.37559 0.39199 0.16582 0.0
C499 C 0.36657 0.39193 0.1373 0.0
H500 H 0.41699 0.39067 0.18061 0.0
Co501 Co 0.35984 0.38443 0.20355 0.0
C502 C 0.30923 0.37802 0.18105 0.0
O503 O 0.30715 0.40113 0.19524 0.0
N504 N 0.34622 0.37442 0.2415 0.0
C505 C 0.3447 0.37464 0.29096 0.0
C506 C 0.34464 0.39044 0.2657 0.0
C507 C 0.34585 0.34891 0.25276 0.0
N508 N 0.34568 0.34846 0.28283 0.0
O509 O 0.38206 0.35348 0.20459 0.0
H510 H 0.34649 0.41218 0.26523 0.0
H511 H 0.34867 0.33097 0.23934 0.0
O512 O 0.33122 0.36465 0.18348 0.0
C513 C 0.39825 0.33425 0.20988 0.0
O514 O 0.41111 0.33274 0.23528 0.0
N515 N 0.38606 0.40654 0.22177 0.0
C516 C 0.42964 0.44092 0.22872 0.0
C517 C 0.40593 0.45021 0.21545 0.0
C518 C 0.38421 0.43266 0.2124 0.0
C519 C 0.40745 0.39844 0.23855 0.0
C520 C 0.42995 0.41514 0.24154 0.0
H521 H 0.36677 0.43907 0.19987 0.0
H522 H 0.40787 0.37872 0.24828 0.0
H523 H 0.34563 0.38991 0.13149 0.0
H524 H 0.43002 0.39378 0.12576 0.0
H525 H 0.34594 0.38192 0.31361 0.0
H526 H 0.40488 0.47015 0.2057 0.0
H527 H 0.44773 0.40769 0.25279 0.0
C528 C 0.11684 0.08509 0.44378 0.0
C529 C 0.12213 0.10818 0.42662 0.0
C530 C 0.11819 0.08572 0.47486 0.0
C531 C 0.12518 0.10998 0.48943 0.0
C532 C 0.13103 0.13325 0.47252 0.0
C533 C 0.12939 0.13211 0.44141 0.0
C534 C 0.11111 0.06059 0.4921 0.0
C535 C 0.13849 0.15954 0.48737 0.0
C536 C 0.09902 0.12058 0.56748 0.0
C537 C 0.12144 0.11386 0.58508 0.0
C538 C 0.09999 0.11915 0.53648 0.0
C539 C 0.12424 0.11158 0.52238 0.0
C540 C 0.14722 0.10539 0.53971 0.0
C541 C 0.14552 0.10646 0.5709 0.0
C542 C 0.0749 0.1256 0.51885 0.0
C543 C 0.17343 0.09727 0.52527 0.0
H544 H 0.11133 0.06635 0.4332 0.0
H545 H 0.13345 0.15023 0.42893 0.0
H546 H 0.12617 0.05664 0.50974 0.0
H547 H 0.09136 0.06353 0.50314 0.0
H548 H 0.1098 0.04248 0.47759 0.0
H549 H 0.14253 0.17585 0.47109 0.0
H550 H 0.12203 0.16628 0.50233 0.0
H551 H 0.15666 0.15658 0.50131 0.0
H552 H 0.08048 0.12715 0.57776 0.0
H553 H 0.16292 0.10113 0.58409 0.0
H554 H 0.06907 0.10787 0.50525 0.0
H555 H 0.07881 0.14249 0.50334 0.0
H556 H 0.05762 0.13122 0.53328 0.0
H557 H 0.1706 0.07849 0.51218 0.0
H558 H 0.18967 0.09382 0.54178 0.0
H559 H 0.18 0.11316 0.50957 0.0
C560 C 0.8856 0.58817 0.81636 0.0
C561 C 0.88528 0.61148 0.83418 0.0
C562 C 0.88586 0.58983 0.78528 0.0
C563 C 0.88532 0.61544 0.77149 0.0
C564 C 0.88417 0.63908 0.78917 0.0
C565 C 0.88429 0.63684 0.82028 0.0
C566 C 0.88755 0.56412 0.76725 0.0
C567 C 0.88326 0.66676 0.77521 0.0
C568 C 0.91539 0.61997 0.69426 0.0
C569 C 0.89254 0.61851 0.67602 0.0
C570 C 0.91325 0.61917 0.72528 0.0
C571 C 0.88757 0.61742 0.73861 0.0
C572 C 0.86431 0.61666 0.72051 0.0
C573 C 0.86707 0.61702 0.68944 0.0
C574 C 0.93859 0.61976 0.74378 0.0
C575 C 0.83655 0.6149 0.73395 0.0
H576 H 0.88578 0.56846 0.82663 0.0
H577 H 0.88422 0.65502 0.83363 0.0
H578 H 0.87129 0.56359 0.75042 0.0
H579 H 0.90697 0.56343 0.75511 0.0
H580 H 0.88607 0.54578 0.78129 0.0
H581 H 0.88267 0.68316 0.79206 0.0
H582 H 0.90113 0.66974 0.76085 0.0
H583 H 0.86524 0.66855 0.76082 0.0
H584 H 0.93512 0.62174 0.68439 0.0
H585 H 0.84926 0.6156 0.67574 0.0
H586 H 0.94006 0.60111 0.75729 0.0
H587 H 0.93795 0.63708 0.75942 0.0
H588 H 0.95702 0.6214 0.72996 0.0
H589 H 0.83424 0.59527 0.74546 0.0
H590 H 0.82044 0.61675 0.71698 0.0
H591 H 0.83369 0.631 0.75084 0.0
C592 C 0.41011 0.38544 0.06885 0.0
C593 C 0.38622 0.39009 0.08498 0.0
C594 C 0.4103 0.38337 0.03789 0.0
C595 C 0.38595 0.3861 0.02204 0.0
C596 C 0.36161 0.39038 0.03783 0.0
C597 C 0.36199 0.39218 0.06911 0.0
C598 C 0.43702 0.37904 0.02246 0.0
C599 C 0.33526 0.39364 0.02162 0.0
C600 C 0.39722 0.4101 0.94333 0.0
C601 C 0.39123 0.38712 0.92617 0.0
C602 C 0.39415 0.41032 0.97418 0.0
C603 C 0.38654 0.38641 0.98895 0.0
C604 C 0.38175 0.36263 0.97215 0.0
C605 C 0.38353 0.36343 0.94091 0.0
C606 C 0.39956 0.4363 0.9908 0.0
C607 C 0.37468 0.33624 0.98682 0.0
H608 H 0.42913 0.38324 0.08009 0.0
H609 H 0.34335 0.3957 0.08093 0.0
H610 H 0.43491 0.36838 1.00091 0.0
H611 H 0.44644 0.39893 0.01829 0.0
H612 H 0.45108 0.3673 0.03666 0.0
H613 H 0.31853 0.39932 0.03679 0.0
H614 H 0.3371 0.40929 1.00413 0.0
H615 H 0.33004 0.37439 0.01047 0.0
H616 H 0.40432 0.42829 0.93278 0.0
H617 H 0.37879 0.3455 0.92821 0.0
H618 H 0.42034 0.43586 0.99969 0.0
H619 H 0.38551 0.43898 0.00974 0.0
H620 H 0.39775 0.45418 0.97606 0.0
H621 H 0.38144 0.31881 0.97312 0.0
H622 H 0.35251 0.33494 0.98908 0.0
H623 H 0.38371 0.33434 0.00926 0.0
C624 C 0.63834 0.87771 0.32064 0.0
C625 C 0.61508 0.88868 0.33352 0.0
C626 C 0.64116 0.87634 0.28963 0.0
C627 C 0.61999 0.88573 0.27128 0.0
C628 C 0.59584 0.89533 0.28431 0.0
C629 C 0.59381 0.89694 0.31531 0.0
C630 C 0.66728 0.8662 0.27654 0.0
C631 C 0.57252 0.90489 0.26555 0.0
C632 C 0.63564 0.91583 0.19598 0.0
C633 C 0.62761 0.89521 0.17689 0.0
C634 C 0.63399 0.91264 0.22684 0.0
C635 C 0.62398 0.88817 0.23869 0.0
C636 C 0.61648 0.86693 0.2193 0.0
C637 C 0.61838 0.87076 0.18847 0.0
C638 C 0.64189 0.93588 0.24671 0.0
C639 C 0.60569 0.84061 0.23108 0.0
H640 H 0.65482 0.87145 0.33482 0.0
H641 H 0.5757 0.90501 0.32544 0.0
H642 H 0.66336 0.85054 0.25946 0.0
H643 H 0.6778 0.88307 0.26536 0.0
H644 H 0.68088 0.8576 0.29369 0.0
H645 H 0.55452 0.9099 0.27914 0.0
H646 H 0.57844 0.92313 0.25292 0.0
H647 H 0.56698 0.88915 0.24913 0.0
H648 H 0.64226 0.9348 0.1866 0.0
H649 H 0.61184 0.85509 0.1733 0.0
H650 H 0.65675 0.92903 0.26347 0.0
H651 H 0.62397 0.9434 0.25892 0.0
H652 H 0.65064 0.95292 0.23402 0.0
H653 H 0.62103 0.83072 0.2453 0.0
H654 H 0.60005 0.82644 0.21298 0.0
H655 H 0.58776 0.84441 0.24518 0.0
C656 C 0.08738 0.38226 0.69255 0.0
C657 C 0.11007 0.38832 0.67534 0.0
C658 C 0.08857 0.38262 0.72362 0.0
C659 C 0.11304 0.3892 0.73783 0.0
C660 C 0.13617 0.39489 0.72065 0.0
C661 C 0.13441 0.39421 0.6896 0.0
C662 C 0.06351 0.37642 0.74125 0.0
C663 C 0.16297 0.40152 0.73458 0.0
C664 C 0.10889 0.41788 0.81562 0.0
C665 C 0.11565 0.39545 0.83324 0.0
C666 C 0.1081 0.41608 0.7846 0.0
C667 C 0.11402 0.39121 0.77064 0.0
C668 C 0.12113 0.36852 0.78791 0.0
C669 C 0.1217 0.37083 0.81897 0.0
C670 C 0.10136 0.44096 0.76669 0.0
C671 C 0.12804 0.34178 0.77358 0.0
H672 H 0.06867 0.37708 0.68173 0.0
H673 H 0.15206 0.39895 0.67655 0.0
H674 H 0.06761 0.35993 0.75728 0.0
H675 H 0.05739 0.39447 0.7543 0.0
H676 H 0.04643 0.37039 0.72684 0.0
H677 H 0.17371 0.41687 0.7212 0.0
H678 H 0.16122 0.40919 0.75765 0.0
H679 H 0.1756 0.38298 0.73489 0.0
H680 H 0.10417 0.43707 0.82578 0.0
H681 H 0.12699 0.35319 0.83177 0.0
H682 H 0.08348 0.43714 0.75259 0.0
H683 H 0.11836 0.44577 0.75164 0.0
H684 H 0.09721 0.45884 0.78093 0.0
H685 H 0.10958 0.33278 0.76399 0.0
H686 H 0.13686 0.3273 0.78968 0.0
H687 H 0.14257 0.34463 0.75516 0.0
C688 C 0.63599 0.63535 0.94182 0.0
C689 C 0.61568 0.62107 0.92707 0.0
C690 C 0.63605 0.63762 0.97295 0.0
C691 C 0.61519 0.62548 0.9896 0.0
C692 C 0.59418 0.61183 0.9747 0.0
C693 C 0.59476 0.60972 0.94366 0.0
C694 C 0.65884 0.65225 0.98806 0.0
C695 C 0.57134 0.59898 0.99159 0.0
C696 C 0.62774 0.60381 0.06923 0.0
C697 C 0.61374 0.62366 0.08501 0.0
C698 C 0.62877 0.60442 0.03809 0.0
C699 C 0.61589 0.62576 0.02263 0.0
C700 C 0.60251 0.64643 0.03875 0.0
C701 C 0.60139 0.64497 0.06986 0.0
C702 C 0.64287 0.58179 0.02174 0.0
C703 C 0.58905 0.6698 0.02315 0.0
H704 H 0.65229 0.64399 0.92907 0.0
H705 H 0.57877 0.59914 0.93227 0.0
H706 H 0.65087 0.66735 1.00408 0.0
H707 H 0.67115 0.63762 1.00087 0.0
H708 H 0.67211 0.66268 0.97194 0.0
H709 H 0.55612 0.58989 0.9766 0.0
H710 H 0.5793 0.58298 0.00642 0.0
H711 H 0.56123 0.61424 0.00585 0.0
H712 H 0.63714 0.5874 0.08133 0.0
H713 H 0.59081 0.66035 0.08249 0.0
H714 H 0.65839 0.5901 0.00664 0.0
H715 H 0.62819 0.57071 0.0078 0.0
H716 H 0.65263 0.56722 0.03709 0.0
H717 H 0.60401 0.68082 0.00956 0.0
H718 H 0.5796 0.68423 0.03899 0.0
H719 H 0.57337 0.66222 0.00777 0.0
C720 C 0.40966 0.09895 0.31644 0.0
C721 C 0.38972 0.11198 0.3332 0.0
C722 C 0.4096 0.10013 0.28537 0.0
C723 C 0.38901 0.11468 0.27067 0.0
C724 C 0.3687 0.12785 0.28742 0.0
C725 C 0.36935 0.1264 0.31857 0.0
C726 C 0.43169 0.08594 0.26829 0.0
C727 C 0.34627 0.1433 0.27245 0.0
C728 C 0.4065 0.13659 0.19248 0.0
C729 C 0.39373 0.11676 0.17555 0.0
C730 C 0.4041 0.13688 0.2235 0.0
C731 C 0.38918 0.11635 0.23776 0.0
C732 C 0.37591 0.09648 0.22056 0.0
C733 C 0.37806 0.09718 0.1895 0.0
C734 C 0.41785 0.15886 0.24101 0.0
C735 C 0.36024 0.074 0.23497 0.0
H736 H 0.42562 0.08812 0.32771 0.0
H737 H 0.35369 0.13617 0.33148 0.0
H738 H 0.42288 0.07131 0.25239 0.0
H739 H 0.44324 0.10084 0.25515 0.0
H740 H 0.44585 0.07497 0.2831 0.0
H741 H 0.33282 0.15354 0.28869 0.0
H742 H 0.35469 0.15867 0.25721 0.0
H743 H 0.33404 0.12931 0.25878 0.0
H744 H 0.41815 0.15197 0.1813 0.0
H745 H 0.36819 0.08201 0.17604 0.0
H746 H 0.43382 0.14992 0.25516 0.0
H747 H 0.40323 0.16899 0.25601 0.0
H748 H 0.42707 0.17432 0.22642 0.0
H749 H 0.37415 0.06088 0.24778 0.0
H750 H 0.34954 0.06133 0.21841 0.0
H751 H 0.34533 0.08236 0.25087 0.0
C752 C 0.87316 0.87552 0.44552 0.0
C753 C 0.89307 0.89085 0.43144 0.0
C754 C 0.87264 0.87295 0.47662 0.0
C755 C 0.89258 0.88592 0.4939 0.0
C756 C 0.91329 0.90053 0.47965 0.0
C757 C 0.91321 0.90287 0.44864 0.0
C758 C 0.85023 0.85721 0.49098 0.0
C759 C 0.9352 0.91427 0.49721 0.0
C760 C 0.87743 0.90784 0.57301 0.0
C761 C 0.89231 0.88908 0.58932 0.0
C762 C 0.87688 0.90668 0.54188 0.0
C763 C 0.89105 0.8858 0.52692 0.0
C764 C 0.90516 0.86605 0.54356 0.0
C765 C 0.90585 0.86812 0.57467 0.0
C766 C 0.86195 0.92835 0.52497 0.0
C767 C 0.9198 0.84303 0.5285 0.0
H768 H 0.85748 0.86632 0.43229 0.0
H769 H 0.92892 0.91425 0.43775 0.0
H770 H 0.85841 0.84296 0.5077 0.0
H771 H 0.83653 0.87131 0.50284 0.0
H772 H 0.83829 0.84566 0.47447 0.0
H773 H 0.95036 0.92401 0.48267 0.0
H774 H 0.92625 0.92992 0.51192 0.0
H775 H 0.94561 0.89942 0.51163 0.0
H776 H 0.867 0.92392 0.5847 0.0
H777 H 0.91696 0.85345 0.58767 0.0
H778 H 0.84718 0.91907 0.50962 0.0
H779 H 0.87632 0.94001 0.51124 0.0
H780 H 0.85115 0.94257 0.53995 0.0
H781 H 0.90548 0.8311 0.51497 0.0
H782 H 0.92972 0.82933 0.54469 0.0
H783 H 0.93527 0.85101 0.51314 0.0
C784 C 0.29476 0.13602 0.12821 0.0
C785 C 0.2887 0.12301 0.10125 0.0
C786 C 0.27478 0.14122 0.14976 0.0
C787 C 0.24764 0.13439 0.14388 0.0
C788 C 0.24124 0.12189 0.11642 0.0
C789 C 0.26179 0.11603 0.09573 0.0
C790 C 0.28282 0.15372 0.17904 0.0
C791 C 0.21255 0.11493 0.10875 0.0
C792 C 0.19813 0.12545 0.20818 0.0
C793 C 0.18486 0.15066 0.20945 0.0
C794 C 0.21862 0.12006 0.18732 0.0
C795 C 0.226 0.14006 0.16648 0.0
C796 C 0.21255 0.16536 0.16718 0.0
C797 C 0.19242 0.1704 0.18865 0.0
C798 C 0.23254 0.0929 0.18777 0.0
C799 C 0.21952 0.18723 0.14525 0.0
H800 H 0.31519 0.14208 0.1327 0.0
H801 H 0.25665 0.10632 0.07491 0.0
H802 H 0.27189 0.17303 0.18247 0.0
H803 H 0.27715 0.14011 0.19754 0.0
H804 H 0.30477 0.15762 0.18036 0.0
H805 H 0.21077 0.1055 0.08643 0.0
H806 H 0.20424 0.10085 0.12548 0.0
H807 H 0.19994 0.13347 0.1093 0.0
H808 H 0.19266 0.10961 0.22344 0.0
H809 H 0.18281 0.19001 0.18914 0.0
H810 H 0.25448 0.09565 0.19099 0.0
H811 H 0.22977 0.08251 0.16615 0.0
H812 H 0.22485 0.07961 0.20567 0.0
H813 H 0.2406 0.19375 0.14869 0.0
H814 H 0.20617 0.20517 0.14742 0.0
H815 H 0.21803 0.17935 0.12222 0.0
C816 C 0.84797 0.71273 0.46429 0.0
C817 C 0.85629 0.68621 0.45802 0.0
C818 C 0.85375 0.73422 0.44474 0.0
C819 C 0.86901 0.72934 0.4186 0.0
C820 C 0.87787 0.70259 0.41253 0.0
C821 C 0.87109 0.68137 0.43203 0.0
C822 C 0.84355 0.76217 0.45213 0.0
C823 C 0.89504 0.69645 0.38569 0.0
C824 C 0.86537 0.78008 0.35417 0.0
C825 C 0.88957 0.79423 0.3573 0.0
C826 C 0.85859 0.75884 0.37371 0.0
C827 C 0.87589 0.75213 0.39771 0.0
C828 C 0.89999 0.76702 0.4014 0.0
C829 C 0.90669 0.78751 0.38096 0.0
C830 C 0.83302 0.74328 0.36844 0.0
C831 C 0.91862 0.76153 0.42716 0.0
H832 H 0.83672 0.71654 0.4845 0.0
H833 H 0.8781 0.66103 0.4275 0.0
H834 H 0.86066 0.77632 0.45418 0.0
H835 H 0.83056 0.7697 0.43388 0.0
H836 H 0.83183 0.76265 0.47313 0.0
H837 H 0.89997 0.67463 0.38374 0.0
H838 H 0.88454 0.70301 0.36518 0.0
H839 H 0.9141 0.70794 0.38706 0.0
H840 H 0.85204 0.78519 0.33597 0.0
H841 H 0.92518 0.79871 0.38383 0.0
H842 H 0.81985 0.74467 0.38828 0.0
H843 H 0.83782 0.72161 0.36495 0.0
H844 H 0.82172 0.75079 0.34883 0.0
H845 H 0.90829 0.7667 0.44828 0.0
H846 H 0.93744 0.77345 0.42578 0.0
H847 H 0.92392 0.73977 0.4281 0.0
C848 C 0.32164 0.38156 0.6927 0.0
C849 C 0.32179 0.35727 0.70865 0.0
C850 C 0.30043 0.38824 0.67312 0.0
C851 C 0.27895 0.36988 0.66856 0.0
C852 C 0.27893 0.3454 0.68501 0.0
C853 C 0.30011 0.33958 0.70508 0.0
C854 C 0.30098 0.41505 0.65734 0.0
C855 C 0.25691 0.32493 0.68074 0.0
C856 C 0.21279 0.39247 0.63074 0.0
C857 C 0.21768 0.38609 0.60075 0.0
C858 C 0.23261 0.388 0.65291 0.0
C859 C 0.25755 0.37558 0.64534 0.0
C860 C 0.26223 0.36869 0.61515 0.0
C861 C 0.24263 0.37452 0.59335 0.0
C862 C 0.22674 0.39663 0.68441 0.0
C863 C 0.28792 0.35474 0.60581 0.0
H864 H 0.33822 0.39542 0.69573 0.0
H865 H 0.30017 0.32082 0.71739 0.0
H866 H 0.30113 0.41192 0.63294 0.0
H867 H 0.28252 0.42671 0.66283 0.0
H868 H 0.3188 0.42727 0.66353 0.0
H869 H 0.25968 0.30691 0.69507 0.0
H870 H 0.23711 0.33421 0.68583 0.0
H871 H 0.25641 0.3183 0.65718 0.0
H872 H 0.19368 0.40151 0.63682 0.0
H873 H 0.24657 0.36921 0.57038 0.0
H874 H 0.24472 0.40582 0.69488 0.0
H875 H 0.2211 0.37874 0.69775 0.0
H876 H 0.20993 0.41141 0.68539 0.0
H877 H 0.30531 0.36815 0.60997 0.0
H878 H 0.28784 0.34909 0.58192 0.0
H879 H 0.29101 0.33621 0.61921 0.0
C880 C 0.64287 0.8294 0.93138 0.0
C881 C 0.65202 0.82448 0.9604 0.0
C882 C 0.63695 0.80813 0.91161 0.0
C883 C 0.64043 0.78094 0.9207 0.0
C884 C 0.64949 0.77577 0.95008 0.0
C885 C 0.65499 0.79752 0.96956 0.0
C886 C 0.62679 0.81482 0.8809 0.0
C887 C 0.65354 0.74723 0.96089 0.0
C888 C 0.60222 0.72811 0.87495 0.0
C889 C 0.62223 0.7179 0.8559 0.0
C890 C 0.60808 0.74765 0.89687 0.0
C891 C 0.63448 0.75815 0.89935 0.0
C892 C 0.65482 0.74777 0.88026 0.0
C893 C 0.64858 0.72748 0.85921 0.0
C894 C 0.5859 0.75719 0.9173 0.0
C895 C 0.68308 0.75864 0.88154 0.0
H896 H 0.63988 0.85004 0.92422 0.0
H897 H 0.66206 0.79344 0.99186 0.0
H898 H 0.64007 0.8055 0.86389 0.0
H899 H 0.6064 0.80631 0.87776 0.0
H900 H 0.62579 0.83692 0.8769 0.0
H901 H 0.65948 0.74646 0.98466 0.0
H902 H 0.63481 0.73545 0.95792 0.0
H903 H 0.66941 0.73715 0.94749 0.0
H904 H 0.58191 0.72045 0.87301 0.0
H905 H 0.6642 0.71966 0.84472 0.0
H906 H 0.58167 0.77888 0.91331 0.0
H907 H 0.59227 0.75518 0.94081 0.0
H908 H 0.56701 0.74567 0.91409 0.0
H909 H 0.68292 0.78039 0.87568 0.0
H910 H 0.69688 0.74785 0.8661 0.0
H911 H 0.69113 0.75696 0.90443 0.0
C912 C 0.19675 0.37741 0.05277 0.0
C913 C 0.18281 0.3528 0.05059 0.0
C914 C 0.2173 0.38132 0.07392 0.0
C915 C 0.22435 0.36014 0.09363 0.0
C916 C 0.21008 0.33547 0.09191 0.0
C917 C 0.18968 0.33208 0.0705 0.0
C918 C 0.23179 0.40804 0.07464 0.0
C919 C 0.21641 0.31254 0.1128 0.0
C920 C 0.29332 0.3589 0.132 0.0
C921 C 0.28745 0.37046 0.15977 0.0
C922 C 0.27319 0.35604 0.11005 0.0
C923 C 0.24624 0.36378 0.11638 0.0
C924 C 0.24015 0.37475 0.1447 0.0
C925 C 0.26081 0.37833 0.16574 0.0
C926 C 0.28091 0.34559 0.07971 0.0
C927 C 0.21185 0.38332 0.1526 0.0
H928 H 0.19157 0.39386 0.03806 0.0
H929 H 0.1794 0.31293 0.0691 0.0
H930 H 0.2345 0.41527 0.09776 0.0
H931 H 0.25209 0.40544 0.06478 0.0
H932 H 0.22092 0.42385 0.06188 0.0
H933 H 0.20325 0.2948 0.10907 0.0
H934 H 0.23766 0.30612 0.10993 0.0
H935 H 0.214 0.31938 0.13614 0.0
H936 H 0.31387 0.35321 0.1269 0.0
H937 H 0.25611 0.38757 0.18698 0.0
H938 H 0.27583 0.36091 0.06262 0.0
H939 H 0.26927 0.32716 0.07442 0.0
H940 H 0.30271 0.34083 0.07804 0.0
H941 H 0.20536 0.40008 0.13792 0.0
H942 H 0.2101 0.39014 0.17604 0.0
H943 H 0.19776 0.36633 0.14895 0.0
C944 C 0.5976 0.78655 0.38624 0.0
C945 C 0.61614 0.79508 0.40779 0.0
C946 C 0.60458 0.76713 0.36455 0.0
C947 C 0.63049 0.75503 0.36488 0.0
C948 C 0.64928 0.76354 0.38668 0.0
C949 C 0.64207 0.78379 0.40745 0.0
C950 C 0.58414 0.75952 0.34125 0.0
C951 C 0.67699 0.7511 0.38816 0.0
C952 C 0.63899 0.68524 0.32886 0.0
C953 C 0.64997 0.69158 0.30108 0.0
C954 C 0.6324 0.70562 0.34961 0.0
C955 C 0.63764 0.7331 0.3429 0.0
C956 C 0.64925 0.73949 0.31496 0.0
C957 C 0.65478 0.71874 0.29425 0.0
C958 C 0.61941 0.69776 0.3786 0.0
C959 C 0.65551 0.7683 0.30673 0.0
H960 H 0.57771 0.79558 0.38591 0.0
H961 H 0.65657 0.7904 0.42387 0.0
H962 H 0.59297 0.76146 0.31873 0.0
H963 H 0.57828 0.73811 0.34413 0.0
H964 H 0.56576 0.77229 0.34245 0.0
H965 H 0.68925 0.75967 0.40649 0.0
H966 H 0.67537 0.72897 0.39143 0.0
H967 H 0.68772 0.75434 0.36686 0.0
H968 H 0.63485 0.6643 0.33395 0.0
H969 H 0.66318 0.72365 0.27273 0.0
H970 H 0.59935 0.7075 0.38048 0.0
H971 H 0.63172 0.70506 0.39749 0.0
H972 H 0.61688 0.67558 0.38065 0.0
H973 H 0.63648 0.77974 0.3037 0.0
H974 H 0.66739 0.76962 0.28588 0.0
H975 H 0.66689 0.77834 0.32481 0.0
C976 C 0.23546 0.11881 0.65276 0.0
C977 C 0.21424 0.13734 0.65698 0.0
C978 C 0.25524 0.12261 0.63081 0.0
C979 C 0.25427 0.14576 0.61246 0.0
C980 C 0.23287 0.16455 0.6164 0.0
C981 C 0.21314 0.16015 0.63855 0.0
C982 C 0.27716 0.10165 0.62718 0.0
C983 C 0.23063 0.18913 0.59684 0.0
C984 C 0.32057 0.16772 0.57651 0.0
C985 C 0.31837 0.15746 0.54751 0.0
C986 C 0.29982 0.16432 0.59756 0.0
C987 C 0.27599 0.1504 0.58966 0.0
C988 C 0.27354 0.14007 0.56037 0.0
C989 C 0.29466 0.14366 0.53981 0.0
C990 C 0.30357 0.17539 0.62852 0.0
C991 C 0.2489 0.12459 0.5508 0.0
H992 H 0.23656 0.10093 0.66652 0.0
H993 H 0.19664 0.17432 0.64109 0.0
H994 H 0.27766 0.0942 0.60394 0.0
H995 H 0.29701 0.11083 0.63189 0.0
H996 H 0.27438 0.08412 0.6422 0.0
H997 H 0.21302 0.20195 0.60268 0.0
H998 H 0.24916 0.2014 0.59873 0.0
H999 H 0.22879 0.1828 0.57327 0.0
H1000 H 0.33878 0.17806 0.58297 0.0
H1001 H 0.29238 0.13581 0.5175 0.0
H1002 H 0.30315 0.15865 0.64484 0.0
H1003 H 0.28677 0.18931 0.63413 0.0
H1004 H 0.32285 0.18637 0.63104 0.0
H1005 H 0.24972 0.10399 0.56039 0.0
H1006 H 0.24761 0.12265 0.52625 0.0
H1007 H 0.23024 0.13441 0.55904 0.0
C1008 C 0.90391 0.72057 0.8829 0.0
C1009 C 0.8857 0.7129 0.90514 0.0
C1010 C 0.89724 0.74053 0.86178 0.0
C1011 C 0.87207 0.75406 0.86349 0.0
C1012 C 0.85361 0.74634 0.88597 0.0
C1013 C 0.86043 0.72555 0.90612 0.0
C1014 C 0.91729 0.74729 0.83777 0.0
C1015 C 0.82674 0.76033 0.88896 0.0
C1016 C 0.86515 0.82474 0.82956 0.0
C1017 C 0.85241 0.81939 0.80244 0.0
C1018 C 0.87202 0.80372 0.8493 0.0
C1019 C 0.8653 0.77662 0.84226 0.0
C1020 C 0.85214 0.77122 0.81491 0.0
C1021 C 0.84632 0.79257 0.79516 0.0
C1022 C 0.8868 0.81049 0.87758 0.0
C1023 C 0.84441 0.74283 0.80634 0.0
H1024 H 0.92332 0.71057 0.8817 0.0
H1025 H 0.84625 0.71968 0.92319 0.0
H1026 H 0.90751 0.74683 0.81564 0.0
H1027 H 0.92496 0.76804 0.84128 0.0
H1028 H 0.93464 0.73309 0.83751 0.0
H1029 H 0.81464 0.75218 0.90761 0.0
H1030 H 0.82976 0.78226 0.89267 0.0
H1031 H 0.81512 0.75809 0.86807 0.0
H1032 H 0.87037 0.8454 0.83492 0.0
H1033 H 0.83666 0.78841 0.77408 0.0
H1034 H 0.90638 0.79968 0.87809 0.0
H1035 H 0.87503 0.80362 0.89707 0.0
H1036 H 0.89061 0.83247 0.87986 0.0
H1037 H 0.86282 0.73046 0.80308 0.0
H1038 H 0.83237 0.74222 0.78558 0.0
H1039 H 0.83264 0.73332 0.82442 0.0
C1040 C 0.68398 0.63449 0.68577 0.0
C1041 C 0.68874 0.65322 0.70849 0.0
C1042 C 0.70425 0.62754 0.66507 0.0
C1043 C 0.73002 0.63971 0.66695 0.0
C1044 C 0.73476 0.6588 0.68995 0.0
C1045 C 0.71416 0.66515 0.71048 0.0
C1046 C 0.69819 0.60682 0.64144 0.0
C1047 C 0.76173 0.67234 0.69304 0.0
C1048 C 0.78961 0.60281 0.63033 0.0
C1049 C 0.79318 0.61732 0.60387 0.0
C1050 C 0.76967 0.61021 0.65123 0.0
C1051 C 0.75207 0.63217 0.64525 0.0
C1052 C 0.75556 0.64682 0.61843 0.0
C1053 C 0.77631 0.63953 0.59837 0.0
C1054 C 0.76745 0.59445 0.67977 0.0
C1055 C 0.73708 0.66999 0.61072 0.0
H1056 H 0.66444 0.62495 0.6846 0.0
H1057 H 0.7179 0.67938 0.72831 0.0
H1058 H 0.7027 0.61512 0.61913 0.0
H1059 H 0.71124 0.58884 0.64462 0.0
H1060 H 0.67686 0.60026 0.64195 0.0
H1061 H 0.76228 0.68667 0.71204 0.0
H1062 H 0.77771 0.65692 0.69619 0.0
H1063 H 0.76656 0.68351 0.6724 0.0
H1064 H 0.80281 0.58585 0.63491 0.0
H1065 H 0.77894 0.65082 0.57798 0.0
H1066 H 0.74775 0.58407 0.68066 0.0
H1067 H 0.76834 0.60832 0.69913 0.0
H1068 H 0.78368 0.57912 0.68205 0.0
H1069 H 0.71607 0.66266 0.6092 0.0
H1070 H 0.74253 0.67962 0.58931 0.0
H1071 H 0.73761 0.68549 0.62852 0.0
C1072 C 0.33051 0.19421 0.93945 0.0
C1073 C 0.34914 0.19068 0.96255 0.0
C1074 C 0.33339 0.21498 0.91838 0.0
C1075 C 0.35539 0.23298 0.92028 0.0
C1076 C 0.37428 0.22967 0.94358 0.0
C1077 C 0.37093 0.20868 0.96433 0.0
C1078 C 0.31298 0.21745 0.89374 0.0
C1079 C 0.39807 0.24831 0.94674 0.0
C1080 C 0.37769 0.26795 0.849 0.0
C1081 C 0.36598 0.29371 0.85168 0.0
C1082 C 0.37446 0.2482 0.8711 0.0
C1083 C 0.35929 0.25423 0.89692 0.0
C1084 C 0.34756 0.28028 0.89996 0.0
C1085 C 0.35078 0.29959 0.87718 0.0
C1086 C 0.38778 0.22098 0.86704 0.0
C1087 C 0.33213 0.28794 0.9276 0.0
H1088 H 0.31347 0.18079 0.93786 0.0
H1089 H 0.3858 0.2062 0.98165 0.0
H1090 H 0.30388 0.23794 0.89397 0.0
H1091 H 0.32306 0.21476 0.87193 0.0
H1092 H 0.29667 0.20231 0.89565 0.0
H1093 H 0.41294 0.24071 0.96316 0.0
H1094 H 0.40838 0.25106 0.92512 0.0
H1095 H 0.39094 0.26846 0.95419 0.0
H1096 H 0.38979 0.26328 0.82961 0.0
H1097 H 0.34232 0.31962 0.87985 0.0
H1098 H 0.37248 0.20478 0.86793 0.0
H1099 H 0.40219 0.21726 0.88541 0.0
H1100 H 0.39879 0.21937 0.84563 0.0
H1101 H 0.31466 0.27433 0.93037 0.0
H1102 H 0.3248 0.30914 0.92699 0.0
H1103 H 0.34512 0.28536 0.94743 0.0
C1104 C 0.79521 0.84919 0.22098 0.0
C1105 C 0.82188 0.85522 0.21343 0.0
C1106 C 0.77407 0.85292 0.2005 0.0
C1107 C 0.77955 0.86376 0.172 0.0
C1108 C 0.80645 0.87058 0.16466 0.0
C1109 C 0.82729 0.86581 0.18525 0.0
C1110 C 0.74584 0.84531 0.20939 0.0
C1111 C 0.81312 0.88355 0.13529 0.0
C1112 C 0.72935 0.8536 0.10815 0.0
C1113 C 0.71636 0.87874 0.10718 0.0
C1114 C 0.74995 0.84845 0.12908 0.0
C1115 C 0.75719 0.8686 0.1501 0.0
C1116 C 0.74337 0.89366 0.14975 0.0
C1117 C 0.72343 0.89846 0.12822 0.0
C1118 C 0.76439 0.82162 0.12839 0.0
C1119 C 0.74953 0.9155 0.17218 0.0
H1120 H 0.79103 0.84123 0.24289 0.0
H1121 H 0.84781 0.8711 0.17971 0.0
H1122 H 0.73259 0.86336 0.2088 0.0
H1123 H 0.73758 0.83049 0.19333 0.0
H1124 H 0.74499 0.83646 0.23202 0.0
H1125 H 0.83502 0.88709 0.13263 0.0
H1126 H 0.80606 0.87064 0.11672 0.0
H1127 H 0.80247 0.90321 0.13346 0.0
H1128 H 0.72398 0.83828 0.09202 0.0
H1129 H 0.71307 0.91776 0.12805 0.0
H1130 H 0.76271 0.81161 0.15032 0.0
H1131 H 0.78611 0.82483 0.12404 0.0
H1132 H 0.75629 0.80791 0.11105 0.0
H1133 H 0.74314 0.90881 0.19458 0.0
H1134 H 0.73902 0.93476 0.16704 0.0
H1135 H 0.77146 0.91934 0.17316 0.0
C1136 C 0.10317 0.21927 0.38179 0.0
C1137 C 0.11966 0.21352 0.35725 0.0
C1138 C 0.11014 0.23933 0.40272 0.0
C1139 C 0.13372 0.25491 0.39855 0.0
C1140 C 0.15038 0.2492 0.37366 0.0
C1141 C 0.14343 0.22829 0.35366 0.0
C1142 C 0.09203 0.244 0.42916 0.0
C1143 C 0.17543 0.26545 0.36795 0.0
C1144 C 0.13769 0.32494 0.43506 0.0
C1145 C 0.15328 0.31987 0.46041 0.0
C1146 C 0.13097 0.30404 0.41504 0.0
C1147 C 0.14067 0.2774 0.41989 0.0
C1148 C 0.15678 0.27233 0.44534 0.0
C1149 C 0.16246 0.29347 0.46549 0.0
C1150 C 0.11311 0.31041 0.38888 0.0
C1151 C 0.16783 0.24448 0.45146 0.0
H1152 H 0.08492 0.20772 0.38485 0.0
H1153 H 0.15622 0.22398 0.33472 0.0
H1154 H 0.10392 0.24396 0.45 0.0
H1155 H 0.08228 0.26411 0.4273 0.0
H1156 H 0.07611 0.22844 0.43093 0.0
H1157 H 0.18619 0.25875 0.34758 0.0
H1158 H 0.1701 0.28711 0.36555 0.0
H1159 H 0.18929 0.26375 0.38716 0.0
H1160 H 0.13012 0.3452 0.43139 0.0
H1161 H 0.17436 0.28948 0.48516 0.0
H1162 H 0.0945 0.2982 0.39012 0.0
H1163 H 0.12346 0.30493 0.36787 0.0
H1164 H 0.10737 0.33209 0.38802 0.0
H1165 H 0.15104 0.23038 0.45582 0.0
H1166 H 0.18162 0.24422 0.47086 0.0
H1167 H 0.17886 0.23675 0.43175 0.0
C1168 C 0.70259 0.88543 0.54995 0.0
C1169 C 0.68561 0.86281 0.5526 0.0
C1170 C 0.72262 0.8912 0.57122 0.0
C1171 C 0.72601 0.87414 0.59616 0.0
C1172 C 0.70901 0.85142 0.59917 0.0
C1173 C 0.68924 0.84602 0.57749 0.0
C1174 C 0.74043 0.91546 0.56673 0.0
C1175 C 0.71166 0.83274 0.62545 0.0
C1176 C 0.79263 0.87297 0.63897 0.0
C1177 C 0.78717 0.88984 0.66345 0.0
C1178 C 0.77327 0.86827 0.61667 0.0
C1179 C 0.74729 0.87997 0.61911 0.0
C1180 C 0.74153 0.89682 0.64385 0.0
C1181 C 0.7615 0.90172 0.66548 0.0
C1182 C 0.78067 0.85068 0.59045 0.0
C1183 C 0.71415 0.90965 0.64755 0.0
H1184 H 0.70048 0.89889 0.53126 0.0
H1185 H 0.67673 0.82843 0.58023 0.0
H1186 H 0.7404 0.92837 0.58689 0.0
H1187 H 0.76145 0.90866 0.563 0.0
H1188 H 0.73404 0.92791 0.54747 0.0
H1189 H 0.69686 0.81603 0.6248 0.0
H1190 H 0.73219 0.82392 0.62609 0.0
H1191 H 0.70876 0.84428 0.64637 0.0
H1192 H 0.81208 0.86325 0.63717 0.0
H1193 H 0.75686 0.91473 0.68418 0.0
H1194 H 0.77717 0.86182 0.56944 0.0
H1195 H 0.76766 0.83256 0.58997 0.0
H1196 H 0.80202 0.84401 0.5911 0.0
H1197 H 0.70989 0.92318 0.62851 0.0
H1198 H 0.7125 0.92156 0.66841 0.0
H1199 H 0.69841 0.89384 0.64763 0.0
C1200 C 0.12632 0.26674 0.91476 0.0
C1201 C 0.11552 0.29159 0.90573 0.0
C1202 C 0.13306 0.24644 0.89392 0.0
C1203 C 0.12819 0.25062 0.86319 0.0
C1204 C 0.1167 0.27558 0.85407 0.0
C1205 C 0.11094 0.29587 0.87534 0.0
C1206 C 0.14561 0.2205 0.90481 0.0
C1207 C 0.10994 0.28061 0.82189 0.0
C1208 C 0.16718 0.20692 0.80691 0.0
C1209 C 0.14929 0.18568 0.80171 0.0
C1210 C 0.16051 0.22827 0.82653 0.0
C1211 C 0.13501 0.22882 0.84082 0.0
C1212 C 0.11651 0.20781 0.83458 0.0
C1213 C 0.12401 0.18639 0.81551 0.0
C1214 C 0.18105 0.24989 0.8326 0.0
C1215 C 0.08887 0.20762 0.84843 0.0
H1216 H 0.1299 0.26334 0.93821 0.0
H1217 H 0.10223 0.31489 0.86827 0.0
H1218 H 0.13252 0.20319 0.89908 0.0
H1219 H 0.16522 0.21713 0.8936 0.0
H1220 H 0.14887 0.2206 0.92921 0.0
H1221 H 0.10051 0.30073 0.81842 0.0
H1222 H 0.12838 0.27918 0.80811 0.0
H1223 H 0.09591 0.26487 0.8138 0.0
H1224 H 0.18669 0.20639 0.79619 0.0
H1225 H 0.11007 0.17009 0.81124 0.0
H1226 H 0.18608 0.25015 0.85661 0.0
H1227 H 0.17264 0.27002 0.82701 0.0
H1228 H 0.19986 0.24675 0.81969 0.0
H1229 H 0.09056 0.20246 0.87231 0.0
H1230 H 0.07544 0.19267 0.83763 0.0
H1231 H 0.07936 0.22788 0.84695 0.0
C1232 C 0.82071 0.65831 0.08054 0.0
C1233 C 0.81729 0.6516 0.0505 0.0
C1234 C 0.80056 0.65281 0.10179 0.0
C1235 C 0.77607 0.64058 0.09289 0.0
C1236 C 0.77229 0.63431 0.06242 0.0
C1237 C 0.79289 0.63973 0.04174 0.0
C1238 C 0.80568 0.65969 0.13394 0.0
C1239 C 0.74643 0.62183 0.0516 0.0
C1240 C 0.73521 0.60232 0.15146 0.0
C1241 C 0.71479 0.62088 0.1588 0.0
C1242 C 0.75495 0.60835 0.12994 0.0
C1243 C 0.75474 0.63378 0.11549 0.0
C1244 C 0.73414 0.65259 0.12273 0.0
C1245 C 0.71444 0.64589 0.14407 0.0
C1246 C 0.77602 0.58737 0.1225 0.0
C1247 C 0.73302 0.67995 0.1081 0.0
H1248 H 0.83949 0.66729 0.08756 0.0
H1249 H 0.78978 0.63491 0.01852 0.0
H1250 H 0.78933 0.67284 0.14258 0.0
H1251 H 0.80571 0.64096 0.1474 0.0
H1252 H 0.8252 0.6701 0.13718 0.0
H1253 H 0.74693 0.61728 0.02743 0.0
H1254 H 0.74238 0.60287 0.06384 0.0
H1255 H 0.72937 0.63576 0.05605 0.0
H1256 H 0.73561 0.58282 0.16231 0.0
H1257 H 0.69881 0.66045 0.14938 0.0
H1258 H 0.79634 0.59545 0.12724 0.0
H1259 H 0.77528 0.58251 0.09844 0.0
H1260 H 0.77328 0.56843 0.13527 0.0
H1261 H 0.75124 0.69161 0.11405 0.0
H1262 H 0.71499 0.69176 0.11488 0.0
H1263 H 0.73291 0.67771 0.08358 0.0
C1264 C 0.37255 0.32762 0.3232 0.0
C1265 C 0.35202 0.32567 0.3019 0.0
C1266 C 0.37915 0.30577 0.34198 0.0
C1267 C 0.36449 0.28131 0.34013 0.0
C1268 C 0.34377 0.27922 0.3185 0.0
C1269 C 0.33808 0.30121 0.29942 0.0
C1270 C 0.40198 0.30889 0.36377 0.0
C1271 C 0.32731 0.25384 0.31583 0.0
C1272 C 0.39635 0.2175 0.37409 0.0
C1273 C 0.38373 0.21605 0.40194 0.0
C1274 C 0.38987 0.2381 0.35356 0.0
C1275 C 0.37059 0.25822 0.36112 0.0
C1276 C 0.35773 0.25668 0.38927 0.0
C1277 C 0.36428 0.23556 0.40917 0.0
C1278 C 0.40401 0.23855 0.3239 0.0
C1279 C 0.3374 0.27772 0.39864 0.0
H1280 H 0.38378 0.34625 0.32482 0.0
H1281 H 0.32228 0.29956 0.28297 0.0
H1282 H 0.3947 0.30537 0.38672 0.0
H1283 H 0.41774 0.29354 0.35909 0.0
H1284 H 0.41126 0.32922 0.36273 0.0
H1285 H 0.31226 0.2551 0.29766 0.0
H1286 H 0.34066 0.23623 0.31166 0.0
H1287 H 0.31661 0.25004 0.33704 0.0
H1288 H 0.4114 0.20246 0.36839 0.0
H1289 H 0.35463 0.23467 0.43073 0.0
H1290 H 0.41632 0.25709 0.32212 0.0
H1291 H 0.38908 0.23911 0.30561 0.0
H1292 H 0.41732 0.22072 0.32065 0.0
H1293 H 0.3472 0.29777 0.3999 0.0
H1294 H 0.32831 0.27318 0.4206 0.0
H1295 H 0.32113 0.27922 0.38187 0.0
C1296 C 0.05279 0.04418 0.3026 0.0
C1297 C 0.03841 0.06861 0.30153 0.0
C1298 C 0.03957 0.01929 0.30504 0.0
C1299 C 0.01113 0.01859 0.30589 0.0
C1300 C 0.99649 0.04329 0.30579 0.0
C1301 C 0.01034 0.06805 0.30395 0.0
C1302 C 0.05608 0.99364 0.30597 0.0
C1303 C 0.96618 0.0435 0.30675 0.0
C1304 C 0.97922 0.95455 0.2751 0.0
C1305 C 0.97116 0.94087 0.30091 0.0
C1306 C 0.99167 0.97994 0.27652 0.0
C1307 C 0.9969 0.992 0.30448 0.0
C1308 C 0.98941 0.97813 0.3307 0.0
C1309 C 0.97657 0.95286 0.32862 0.0
C1310 C 0.999 0.99404 0.24796 0.0
C1311 C 0.99509 0.98986 0.36102 0.0
H1312 H 0.07456 0.04457 0.30141 0.0
H1313 H 0.99921 0.0869 0.30342 0.0
H1314 H 0.04998 0.98113 0.32521 0.0
H1315 H 0.05237 0.98158 0.2856 0.0
H1316 H 0.07797 0.99771 0.3076 0.0
H1317 H 0.95776 0.06431 0.30699 0.0
H1318 H 0.95812 0.03263 0.28712 0.0
H1319 H 0.95903 0.03271 0.3268 0.0
H1320 H 0.97553 0.9455 0.25357 0.0
H1321 H 0.97008 0.9429 0.34876 0.0
H1322 H 0.02111 0.99664 0.2467 0.0
H1323 H 0.98979 0.01448 0.24744 0.0
H1324 H 0.99229 0.98269 0.22801 0.0
H1325 H 0.01702 0.98886 0.3654 0.0
H1326 H 0.98451 0.97877 0.37894 0.0
H1327 H 0.98906 0.01142 0.36205 0.0
C1328 C 0.04597 0.45773 0.56455 0.0
C1329 C 0.06866 0.46932 0.55127 0.0
C1330 C 0.02131 0.47169 0.56597 0.0
C1331 C 0.01911 0.49785 0.55351 0.0
C1332 C 0.04231 0.50999 0.54097 0.0
C1333 C 0.06685 0.49557 0.54003 0.0
C1334 C 0.99733 0.45802 0.57983 0.0
C1335 C 0.04101 0.53793 0.52779 0.0
C1336 C 0.95038 0.52106 0.52521 0.0
C1337 C 0.94125 0.53756 0.54845 0.0
C1338 C 0.97543 0.50778 0.52683 0.0
C1339 C 0.99222 0.51168 0.55194 0.0
C1340 C 0.98311 0.52851 0.57543 0.0
C1341 C 0.95762 0.54097 0.57356 0.0
C1342 C 0.98402 0.48969 0.50151 0.0
C1343 C 1.00037 0.53358 0.60243 0.0
H1344 H 0.04741 0.43736 0.5732 0.0
H1345 H 0.08436 0.50444 0.52963 0.0
H1346 H 0.98843 0.47111 0.59731 0.0
H1347 H 0.98161 0.45475 0.56273 0.0
H1348 H 1.00265 0.43824 0.58985 0.0
H1349 H 0.06085 0.54473 0.51937 0.0
H1350 H 0.02639 0.53831 0.50919 0.0
H1351 H 0.03379 0.55254 0.54475 0.0
H1352 H 0.93788 0.51864 0.50568 0.0
H1353 H 0.95086 0.55419 0.59131 0.0
H1354 H 0.98792 0.46899 0.50988 0.0
H1355 H 0.00306 0.49716 0.49174 0.0
H1356 H 0.9686 0.48859 0.48371 0.0
H1357 H 1.00224 0.51473 0.61552 0.0
H1358 H 0.99183 0.54959 0.61701 0.0
H1359 H 0.02095 0.53956 0.59567 0.0
C1360 C 0.446 0.48196 0.7919 0.0
C1361 C 0.45814 0.4563 0.79049 0.0
C1362 C 0.46135 0.50548 0.79545 0.0
C1363 C 0.4896 0.5035 0.79841 0.0
C1364 C 0.50196 0.4777 0.7986 0.0
C1365 C 0.4862 0.45451 0.79418 0.0
C1366 C 0.44734 0.53257 0.79525 0.0
C1367 C 0.53193 0.47461 0.80281 0.0
C1368 C 0.52891 0.56346 0.76934 0.0
C1369 C 0.53621 0.57721 0.79544 0.0
C1370 C 0.5146 0.53913 0.77026 0.0
C1371 C 0.50629 0.52851 0.7979 0.0
C1372 C 0.51306 0.54235 0.82442 0.0
C1373 C 0.52807 0.5664 0.8229 0.0
C1374 C 0.50846 0.52468 0.74148 0.0
C1375 C 0.5044 0.53189 0.85439 0.0
H1376 H 0.42435 0.48382 0.79033 0.0
H1377 H 0.4961 0.43503 0.79311 0.0
H1378 H 0.45289 0.54431 0.81531 0.0
H1379 H 0.45397 0.54431 0.77562 0.0
H1380 H 0.4251 0.53067 0.79446 0.0
H1381 H 0.53819 0.45312 0.80468 0.0
H1382 H 0.54268 0.4838 0.78378 0.0
H1383 H 0.5384 0.48545 0.82316 0.0
H1384 H 0.53453 0.5716 0.74794 0.0
H1385 H 0.53396 0.5763 0.84334 0.0
H1386 H 0.48638 0.52326 0.73842 0.0
H1387 H 0.51652 0.50377 0.74223 0.0
H1388 H 0.51722 0.53503 0.7219 0.0
H1389 H 0.48245 0.53511 0.8571 0.0
H1390 H 0.51486 0.54231 0.87292 0.0
H1391 H 0.50823 0.50988 0.85618 0.0
C1392 C 0.44837 0.03723 0.06866 0.0
C1393 C 0.42896 0.03353 0.04645 0.0
C1394 C 0.47265 0.02254 0.06825 0.0
C1395 C 0.47742 1.00359 0.04518 0.0
C1396 C 0.4574 0.99927 0.0233 0.0
C1397 C 0.43355 0.01453 0.02401 0.0
C1398 C 0.49354 0.02807 0.09178 0.0
C1399 C 0.46152 0.97899 0.99863 0.0
C1400 C 0.54848 0.98362 0.0221 0.0
C1401 C 0.55062 0.95763 0.03403 0.0
C1402 C 0.52502 0.99915 0.0262 0.0
C1403 C 0.50347 0.98861 0.04318 0.0
C1404 C 0.50612 0.96282 0.05637 0.0
C1405 C 0.52954 0.94752 0.05137 0.0
C1406 C 0.52311 0.02662 0.01193 0.0
C1407 C 0.48414 0.95135 0.07567 0.0
H1408 H 0.44501 0.05246 0.08562 0.0
H1409 H 0.41865 0.01204 0.00666 0.0
H1410 H 0.501 0.00892 0.10155 0.0
H1411 H 0.51104 0.03832 0.08159 0.0
H1412 H 0.4856 0.04112 0.1099 0.0
H1413 H 0.44379 0.97759 0.98373 0.0
H1414 H 0.47932 0.98465 0.98518 0.0
H1415 H 0.46558 0.95873 0.00814 0.0
H1416 H 0.56502 0.99161 0.00918 0.0
H1417 H 0.5316 0.92776 0.06145 0.0
H1418 H 0.51889 0.04222 0.02904 0.0
H1419 H 0.50615 0.027 0.99592 0.0
H1420 H 0.54184 0.03214 0.99999 0.0
H1421 H 0.47972 0.96538 0.0943 0.0
H1422 H 0.48964 0.93134 0.08502 0.0
H1423 H 0.46539 0.94921 0.06257 0.0
C1424 C 0.05168 0.46596 0.95618 0.0
C1425 C 0.038 0.44135 0.95882 0.0
C1426 C 0.03774 0.49064 0.9544 0.0
C1427 C 0.00931 0.49092 0.95572 0.0
C1428 C 0.9953 0.46603 0.95721 0.0
C1429 C 0.00983 0.44149 0.95845 0.0
C1430 C 0.05354 0.5165 0.952 0.0
C1431 C 0.96501 0.4654 0.95845 0.0
C1432 C 0.97777 0.55492 0.98796 0.0
C1433 C 0.96827 0.56833 0.96256 0.0
C1434 C 0.9906 0.52962 0.98598 0.0
C1435 C 0.99457 0.51734 0.95785 0.0
C1436 C 0.98542 0.53085 0.93202 0.0
C1437 C 0.97234 0.55606 0.93468 0.0
C1438 C 0.99983 0.51593 0.01414 0.0
C1439 C 0.98959 0.51884 0.90152 0.0
H1440 H 0.07348 0.46591 0.95577 0.0
H1441 H 0.9992 0.42251 0.96023 0.0
H1442 H 0.04603 0.52875 0.93312 0.0
H1443 H 0.05075 0.52869 0.97247 0.0
H1444 H 0.07539 0.51273 0.94881 0.0
H1445 H 0.95709 0.44448 0.95905 0.0
H1446 H 0.95784 0.47636 0.97848 0.0
H1447 H 0.95646 0.47588 0.93883 0.0
H1448 H 0.97504 0.56416 0.00959 0.0
H1449 H 0.96465 0.56579 0.91488 0.0
H1450 H 0.02202 0.51354 0.01384 0.0
H1451 H 0.99106 0.49542 0.01558 0.0
H1452 H 0.99407 0.52744 0.03438 0.0
H1453 H 0.01126 0.51963 0.89574 0.0
H1454 H 0.97809 0.52984 0.88417 0.0
H1455 H 0.98357 0.49731 0.90112 0.0
C1456 C 0.4565 0.48169 0.24231 0.0
C1457 C 0.45444 0.45723 0.22691 0.0
C1458 C 0.47983 0.49751 0.24016 0.0
C1459 C 0.50129 0.48895 0.22154 0.0
C1460 C 0.49883 0.46459 0.20524 0.0
C1461 C 0.47555 0.44886 0.2084 0.0
C1462 C 0.48154 0.52334 0.25787 0.0
C1463 C 0.52079 0.45515 0.18447 0.0
C1464 C 0.55305 0.54144 0.19835 0.0
C1465 C 0.57385 0.53656 0.21866 0.0
C1466 C 0.52938 0.52599 0.19879 0.0
C1467 C 0.52662 0.50502 0.21991 0.0
C1468 C 0.54794 0.4997 0.24002 0.0
C1469 C 0.57121 0.51574 0.23935 0.0
C1470 C 0.50715 0.5325 0.17709 0.0
C1471 C 0.54587 0.47744 0.26271 0.0
H1472 H 0.43994 0.48824 0.25628 0.0
H1473 H 0.4736 0.43017 0.19602 0.0
H1474 H 0.4999 0.52321 0.27185 0.0
H1475 H 0.48308 0.54078 0.24258 0.0
H1476 H 0.46376 0.5264 0.27246 0.0
H1477 H 0.51525 0.43643 0.17235 0.0
H1478 H 0.52533 0.47111 0.16799 0.0
H1479 H 0.5395 0.45129 0.1972 0.0
H1480 H 0.555 0.55793 0.1827 0.0
H1481 H 0.5872 0.51229 0.25526 0.0
H1482 H 0.48868 0.53843 0.18934 0.0
H1483 H 0.50218 0.51437 0.16373 0.0
H1484 H 0.51263 0.54914 0.16177 0.0
H1485 H 0.52867 0.48151 0.27781 0.0
H1486 H 0.56444 0.4754 0.27623 0.0
H1487 H 0.54194 0.45791 0.25146 0.0
C1488 C 0.53583 0.96341 0.48902 0.0
C1489 C 0.5378 0.94509 0.46511 0.0
C1490 C 0.5239 0.98899 0.48578 0.0
C1491 C 0.51173 0.99621 0.45854 0.0
C1492 C 0.51256 0.97767 0.43455 0.0
C1493 C 0.52605 0.95272 0.43786 0.0
C1494 C 0.52422 0.00833 0.51177 0.0
C1495 C 0.49916 0.98418 0.40534 0.0
C1496 C 0.4561 0.04847 0.46768 0.0
C1497 C 0.46887 0.07265 0.45962 0.0
C1498 C 0.46948 0.02349 0.46621 0.0
C1499 C 0.49646 0.02231 0.45629 0.0
C1500 C 0.50916 0.04639 0.44674 0.0
C1501 C 0.49521 0.07127 0.44848 0.0
C1502 C 0.45487 0.99836 0.47602 0.0
C1503 C 0.53787 0.04617 0.43595 0.0
H1504 H 0.54369 0.958 0.5106 0.0
H1505 H 0.52766 0.93952 0.41877 0.0
H1506 H 0.53161 0.02839 0.5046 0.0
H1507 H 0.5035 0.01117 0.52038 0.0
H1508 H 0.53717 1.00102 0.5302 0.0
H1509 H 0.50094 0.96739 0.38906 0.0
H1510 H 0.47751 0.98861 0.40901 0.0
H1511 H 0.50825 1.00253 0.39557 0.0
H1512 H 0.43541 0.04901 0.47521 0.0
H1513 H 0.50521 0.0897 0.4419 0.0
H1514 H 0.46442 0.99019 0.49638 0.0
H1515 H 0.45633 0.98252 0.45862 0.0
H1516 H 0.4333 1.0023 0.48082 0.0
H1517 H 0.55153 0.04393 0.45527 0.0
H1518 H 0.54308 0.06511 0.42414 0.0
H1519 H 0.54165 0.02884 0.42086 0.0
C1520 C 0.03157 0.04992 0.74624 0.0
C1521 C 0.04948 0.05288 0.72246 0.0
C1522 C 0.00789 0.03484 0.74312 0.0
C1523 C 1.00189 0.0224 0.71554 0.0
C1524 C 0.01975 0.0255 0.69133 0.0
C1525 C 0.04325 0.04077 0.69505 0.0
C1526 C 0.98953 0.03172 0.76958 0.0
C1527 C 0.01409 0.01269 0.66152 0.0
C1528 C 0.95598 0.96183 0.72144 0.0
C1529 C 0.9305 0.97328 0.7161 0.0
C1530 C 0.97943 0.97735 0.7202 0.0
C1531 C 0.97761 0.00502 0.71285 0.0
C1532 C 0.95227 0.01633 0.70535 0.0
C1533 C 0.92896 1.00036 0.70722 0.0
C1534 C 0.00607 0.9643 0.7278 0.0
C1535 C 0.94967 0.04556 0.69643 0.0
H1536 H 0.0363 0.05901 0.76751 0.0
H1537 H 0.05664 0.04346 0.6763 0.0
H1538 H 0.96885 0.03831 0.76377 0.0
H1539 H 0.98849 0.01013 0.77598 0.0
H1540 H 0.99644 0.04357 0.78908 0.0
H1541 H 0.03055 0.01617 0.64529 0.0
H1542 H 0.01125 0.99062 0.66402 0.0
H1543 H 0.99515 0.02104 0.65226 0.0
H1544 H 0.95765 0.94061 0.72694 0.0
H1545 H 0.9095 0.00932 0.70258 0.0
H1546 H 0.01426 0.97355 0.74835 0.0
H1547 H 0.02089 0.96784 0.70983 0.0
H1548 H 0.00427 0.9422 0.73134 0.0
H1549 H 0.95353 0.05861 0.71601 0.0
H1550 H 0.92936 0.05036 0.6876 0.0
H1551 H 0.96486 0.05066 0.67932 0.0
C1552 C 0.31162 0.08499 0.40356 0.0
C1553 C 0.30946 0.10116 0.42885 0.0
C1554 C 0.28926 0.0808 0.38558 0.0
C1555 C 0.26452 0.09273 0.39389 0.0
C1556 C 0.26178 0.10659 0.42127 0.0
C1557 C 0.2847 0.11119 0.4383 0.0
C1558 C 0.29292 0.0665 0.35619 0.0
C1559 C 0.23536 0.11885 0.43108 0.0
C1560 C 0.22075 0.12386 0.33559 0.0
C1561 C 0.20006 0.10503 0.33405 0.0
C1562 C 0.24276 0.11925 0.354 0.0
C1563 C 0.24331 0.09566 0.37168 0.0
C1564 C 0.22282 0.07617 0.36947 0.0
C1565 C 0.20143 0.08096 0.35016 0.0
C1566 C 0.26472 0.14023 0.35559 0.0
C1567 C 0.22282 0.05112 0.38851 0.0
H1568 H 0.33121 0.0776 0.39655 0.0
H1569 H 0.28354 0.12363 0.45813 0.0
H1570 H 0.27541 0.05357 0.35097 0.0
H1571 H 0.29462 0.08176 0.33827 0.0
H1572 H 0.31144 0.05387 0.35593 0.0
H1573 H 0.23558 0.12437 0.45501 0.0
H1574 H 0.23132 0.1374 0.41802 0.0
H1575 H 0.21854 0.10469 0.42702 0.0
H1576 H 0.21936 0.14243 0.32296 0.0
H1577 H 0.185 0.06668 0.34906 0.0
H1578 H 0.28474 0.13059 0.35273 0.0
H1579 H 0.26446 0.15008 0.37774 0.0
H1580 H 0.26231 0.15611 0.33839 0.0
H1581 H 0.24121 0.03901 0.38415 0.0
H1582 H 0.20496 0.03827 0.38438 0.0
H1583 H 0.22313 0.05684 0.41235 0.0
C1584 C 0.91723 0.71801 0.57417 0.0
C1585 C 0.8971 0.70061 0.58409 0.0
C1586 C 0.92266 0.74173 0.58978 0.0
C1587 C 0.90775 0.74741 0.61573 0.0
C1588 C 0.88814 0.72923 0.62639 0.0
C1589 C 0.88291 0.70605 0.61017 0.0
C1590 C 0.94365 0.76096 0.57821 0.0
C1591 C 0.87193 0.73466 0.65426 0.0
C1592 C 0.91965 0.79667 0.67635 0.0
C1593 C 0.89863 0.81459 0.67033 0.0
C1594 C 0.92548 0.77585 0.65644 0.0
C1595 C 0.90989 0.77356 0.63033 0.0
C1596 C 0.89087 0.79359 0.62264 0.0
C1597 C 0.88524 0.81383 0.64305 0.0
C1598 C 0.94606 0.75476 0.66492 0.0
C1599 C 0.87421 0.79192 0.59461 0.0
H1600 H 0.92823 0.71337 0.55399 0.0
H1601 H 0.86779 0.69205 0.61804 0.0
H1602 H 0.93392 0.78006 0.57107 0.0
H1603 H 0.95809 0.76616 0.59607 0.0
H1604 H 0.95494 0.7524 0.55906 0.0
H1605 H 0.85872 0.71747 0.66022 0.0
H1606 H 0.88548 0.73873 0.67328 0.0
H1607 H 0.85909 0.7528 0.65105 0.0
H1608 H 0.93037 0.79795 0.69728 0.0
H1609 H 0.86966 0.8285 0.63804 0.0
H1610 H 0.95732 0.74751 0.64516 0.0
H1611 H 0.93566 0.73715 0.67478 0.0
H1612 H 0.96055 0.76265 0.68154 0.0
H1613 H 0.88711 0.78737 0.57514 0.0
H1614 H 0.863 0.81095 0.59024 0.0
H1615 H 0.85943 0.7753 0.59671 0.0
C1616 C 0.22256 0.40895 0.93247 0.0
C1617 C 0.20289 0.39111 0.92231 0.0
C1618 C 0.24576 0.41342 0.9157 0.0
C1619 C 0.24862 0.4002 0.88804 0.0
C1620 C 0.22878 0.38207 0.8778 0.0
C1621 C 0.2062 0.37748 0.89534 0.0
C1622 C 0.26697 0.43243 0.9273 0.0
C1623 C 0.23116 0.3679 0.84813 0.0
C1624 C 0.29215 0.42556 0.82602 0.0
C1625 C 0.31343 0.40703 0.82726 0.0
C1626 C 0.27157 0.42482 0.84714 0.0
C1627 C 0.27244 0.40492 0.86959 0.0
C1628 C 0.2947 0.38733 0.87207 0.0
C1629 C 0.31503 0.38866 0.85085 0.0
C1630 C 0.2482 0.44422 0.8444 0.0
C1631 C 0.29624 0.3659 0.89587 0.0
H1632 H 0.21974 0.4194 0.95343 0.0
H1633 H 0.19061 0.36403 0.8874 0.0
H1634 H 0.28685 0.42219 0.92775 0.0
H1635 H 0.26877 0.45001 0.91223 0.0
H1636 H 0.26227 0.4399 0.95001 0.0
H1637 H 0.21356 0.35487 0.84331 0.0
H1638 H 0.233 0.38297 0.83006 0.0
H1639 H 0.24959 0.35521 0.84769 0.0
H1640 H 0.2911 0.44008 0.80808 0.0
H1641 H 0.33166 0.37459 0.85226 0.0
H1642 H 0.24347 0.45349 0.86625 0.0
H1643 H 0.23007 0.43309 0.83703 0.0
H1644 H 0.25227 0.46056 0.82817 0.0
H1645 H 0.28951 0.37393 0.91766 0.0
H1646 H 0.31696 0.3578 0.8984 0.0
H1647 H 0.28273 0.34898 0.88987 0.0
C1648 C 0.58246 0.80006 0.07312 0.0
C1649 C 0.60115 0.81963 0.08144 0.0
C1650 C 0.58259 0.77482 0.08711 0.0
C1651 C 0.60128 0.76996 0.11017 0.0
C1652 C 0.62009 0.78984 0.11855 0.0
C1653 C 0.6199 0.81439 0.10385 0.0
C1654 C 0.56274 0.75354 0.07756 0.0
C1655 C 0.64015 0.78544 0.14337 0.0
C1656 C 0.59091 0.7219 0.17296 0.0
C1657 C 0.61054 0.70261 0.16633 0.0
C1658 C 0.58613 0.74324 0.15349 0.0
C1659 C 0.60103 0.74462 0.12677 0.0
C1660 C 0.61953 0.72406 0.11907 0.0
C1661 C 0.62435 0.70334 0.13926 0.0
C1662 C 0.5667 0.76529 0.16256 0.0
C1663 C 0.63529 0.72476 0.09038 0.0
H1664 H 0.56814 0.80437 0.0556 0.0
H1665 H 0.63412 0.82984 0.11042 0.0
H1666 H 0.57335 0.73431 0.07257 0.0
H1667 H 0.54847 0.74945 0.09593 0.0
H1668 H 0.55109 0.75977 0.05766 0.0
H1669 H 0.65327 0.80324 0.14699 0.0
H1670 H 0.62941 0.78113 0.16443 0.0
H1671 H 0.65312 0.76776 0.1383 0.0
H1672 H 0.5801 0.72087 0.19385 0.0
H1673 H 0.63898 0.68778 0.1339 0.0
H1674 H 0.55312 0.77051 0.1439 0.0
H1675 H 0.57812 0.78375 0.16841 0.0
H1676 H 0.55433 0.75944 0.18204 0.0
H1677 H 0.62149 0.72765 0.07129 0.0
H1678 H 0.64715 0.70598 0.08673 0.0
H1679 H 0.64933 0.74211 0.09064 0.0
C1680 C 0.69659 0.58443 0.85393 0.0
C1681 C 0.69903 0.60292 0.83079 0.0
C1682 C 0.71847 0.57911 0.87228 0.0
C1683 C 0.74303 0.59222 0.86637 0.0
C1684 C 0.74624 0.60839 0.84073 0.0
C1685 C 0.72375 0.61413 0.82345 0.0
C1686 C 0.71427 0.56239 0.89988 0.0
C1687 C 0.77257 0.62195 0.83341 0.0
C1688 C 0.78404 0.62124 0.92792 0.0
C1689 C 0.80583 0.60348 0.92794 0.0
C1690 C 0.76228 0.61656 0.90926 0.0
C1691 C 0.76318 0.59408 0.88979 0.0
C1692 C 0.78462 0.57538 0.89081 0.0
C1693 C 0.80572 0.58015 0.91043 0.0
C1694 C 0.73928 0.63665 0.90894 0.0
C1695 C 0.78613 0.55159 0.86984 0.0
H1696 H 0.67704 0.5761 0.8593 0.0
H1697 H 0.72515 0.62831 0.80519 0.0
H1698 H 0.73214 0.54974 0.9048 0.0
H1699 H 0.71102 0.57608 0.91911 0.0
H1700 H 0.6964 0.54914 0.8978 0.0
H1701 H 0.77301 0.62933 0.81013 0.0
H1702 H 0.77549 0.63949 0.84842 0.0
H1703 H 0.78972 0.6079 0.83681 0.0
H1704 H 0.78449 0.63922 0.94172 0.0
H1705 H 0.82302 0.56672 0.91048 0.0
H1706 H 0.71969 0.62606 0.90978 0.0
H1707 H 0.73983 0.64843 0.88802 0.0
H1708 H 0.74029 0.65102 0.92789 0.0
H1709 H 0.76791 0.53895 0.87213 0.0
H1710 H 0.80415 0.5388 0.8739 0.0
H1711 H 0.78675 0.55884 0.84655 0.0
C1712 C 0.40678 0.22616 0.0793 0.0
C1713 C 0.39602 0.20249 0.09094 0.0
C1714 C 0.41031 0.24866 0.09764 0.0
C1715 C 0.40357 0.24663 0.12808 0.0
C1716 C 0.39408 0.22212 0.14009 0.0
C1717 C 0.39008 0.20033 0.12114 0.0
C1718 C 0.42014 0.27479 0.08436 0.0
C1719 C 0.38698 0.21924 0.17259 0.0
C1720 C 0.42416 0.29755 0.18562 0.0
C1721 C 0.40046 0.31263 0.18811 0.0
C1722 C 0.42608 0.2767 0.16478 0.0
C1723 C 0.40352 0.27072 0.14693 0.0
C1724 C 0.37968 0.28622 0.14908 0.0
C1725 C 0.37855 0.30723 0.16957 0.0
C1726 C 0.45187 0.26064 0.1624 0.0
C1727 C 0.35504 0.27994 0.13067 0.0
H1728 H 0.4114 0.22734 0.05579 0.0
H1729 H 0.38222 0.18156 0.12989 0.0
H1730 H 0.40453 0.2907 0.0869 0.0
H1731 H 0.43828 0.28181 0.09638 0.0
H1732 H 0.42507 0.27271 0.06039 0.0
H1733 H 0.38218 0.19807 0.17864 0.0
H1734 H 0.40383 0.22619 0.18675 0.0
H1735 H 0.36927 0.2321 0.17783 0.0
H1736 H 0.44113 0.30214 0.19983 0.0
H1737 H 0.36016 0.31891 0.17171 0.0
H1738 H 0.45861 0.25965 0.13893 0.0
H1739 H 0.44837 0.23962 0.16984 0.0
H1740 H 0.46824 0.26944 0.17605 0.0
H1741 H 0.36027 0.27941 0.10672 0.0
H1742 H 0.33865 0.29496 0.13404 0.0
H1743 H 0.3473 0.2597 0.13664 0.0
C1744 C 0.81224 0.92175 0.36142 0.0
C1745 C 0.8104 0.90717 0.335 0.0
C1746 C 0.78938 0.9262 0.3786 0.0
C1747 C 0.76455 0.91607 0.36838 0.0
C1748 C 0.76231 0.90392 0.34 0.0
C1749 C 0.78566 0.89907 0.32371 0.0
C1750 C 0.79248 0.93869 0.40902 0.0
C1751 C 0.73582 0.89358 0.32826 0.0
C1752 C 0.71799 0.88321 0.42233 0.0
C1753 C 0.69773 0.90265 0.42438 0.0
C1754 C 0.74074 0.88808 0.40523 0.0
C1755 C 0.74255 0.91269 0.38946 0.0
C1756 C 0.72256 0.93279 0.3923 0.0
C1757 C 0.70032 0.92761 0.41021 0.0
C1758 C 0.76216 0.86639 0.40295 0.0
C1759 C 0.72404 0.95902 0.37537 0.0
H1760 H 0.83181 0.92776 0.36973 0.0
H1761 H 0.78477 0.88793 0.30297 0.0
H1762 H 0.77517 0.95197 0.41452 0.0
H1763 H 0.79323 0.92241 0.42589 0.0
H1764 H 0.8113 0.95058 0.41078 0.0
H1765 H 0.73674 0.88926 0.30405 0.0
H1766 H 0.73049 0.87464 0.33993 0.0
H1767 H 0.71945 0.90839 0.33246 0.0
H1768 H 0.71577 0.86402 0.43362 0.0
H1769 H 0.68432 0.94248 0.41181 0.0
H1770 H 0.7823 0.87503 0.40739 0.0
H1771 H 0.76246 0.85796 0.3801 0.0
H1772 H 0.75868 0.84957 0.41875 0.0
H1773 H 0.74289 0.96977 0.38095 0.0
H1774 H 0.70672 0.97256 0.38026 0.0
H1775 H 0.72448 0.95487 0.35115 0.0
C1776 C 0.07967 0.21512 0.68965 0.0
C1777 C 0.10249 0.19854 0.69077 0.0
C1778 C 0.0789 0.23729 0.67052 0.0
C1779 C 0.10153 0.24267 0.65255 0.0
C1780 C 0.12474 0.22621 0.65395 0.0
C1781 C 0.1249 0.20425 0.67308 0.0
C1782 C 0.05395 0.25472 0.6693 0.0
C1783 C 0.14946 0.23181 0.63537 0.0
C1784 C 0.09952 0.28341 0.58248 0.0
C1785 C 0.11273 0.3066 0.59209 0.0
C1786 C 0.09431 0.26258 0.60251 0.0
C1787 C 0.10172 0.26593 0.63263 0.0
C1788 C 0.11335 0.29022 0.64267 0.0
C1789 C 0.11931 0.3101 0.62201 0.0
C1790 C 0.08243 0.23651 0.5912 0.0
C1791 C 0.12082 0.29467 0.67485 0.0
H1792 H 0.06234 0.21053 0.70332 0.0
H1793 H 0.14271 0.19163 0.67424 0.0
H1794 H 0.05924 0.27629 0.67231 0.0
H1795 H 0.04441 0.25275 0.64715 0.0
H1796 H 0.03901 0.24905 0.68651 0.0
H1797 H 0.16558 0.21653 0.63876 0.0
H1798 H 0.14411 0.23211 0.61146 0.0
H1799 H 0.15766 0.25195 0.64106 0.0
H1800 H 0.09428 0.28117 0.55923 0.0
H1801 H 0.1291 0.32842 0.62931 0.0
H1802 H 0.06548 0.23012 0.60553 0.0
H1803 H 0.09792 0.22033 0.59208 0.0
H1804 H 0.07517 0.23827 0.56796 0.0
H1805 H 0.10413 0.28854 0.68969 0.0
H1806 H 0.12581 0.31611 0.67955 0.0
H1807 H 0.13856 0.28203 0.68049 0.0
loop_
_geom_bond_atom_site_label_1
_geom_bond_atom_site_label_2
_geom_bond_distance
_geom_bond_site_symmetry_2
_ccdc_geom_bond_type
C0 C1 1.351 . S
C0 N3 1.368 . S
C0 H5 0.931 . S
C1 C0 1.351 . S
C1 N2 1.373 . S
C1 H29 0.930 . S
N2 C1 1.373 . S
N2 C4 1.340 . S
N3 C0 1.368 . S
N3 C4 1.321 . S
N3 Co6 2.135 . S
C4 N2 1.340 . S
C4 N3 1.321 . S
C4 H28 0.930 . S
H5 C0 0.931 . S
Co6 N3 2.135 . S
Co6 N9 2.121 . S
Co6 O14 2.055 . S
Co6 O17 2.039 . S
Co6 N20 2.140 . S
C7 O8 1.227 . S
C7 O17 1.265 . S
O8 C7 1.227 . S
N9 Co6 2.121 . S
N9 C11 1.375 . S
N9 C12 1.313 . S
C10 C11 1.338 . S
C10 N13 1.377 . S
C10 H30 0.930 . S
C11 N9 1.375 . S
C11 C10 1.338 . S
C11 H15 0.931 . S
C12 N9 1.313 . S
C12 N13 1.344 . S
C12 H16 0.930 . S
N13 C10 1.377 . S
N13 C12 1.344 . S
O14 Co6 2.055 . S
O14 C18 1.253 . S
H15 C11 0.931 . S
H16 C12 0.930 . S
O17 Co6 2.039 . S
O17 C7 1.265 . S
C18 O14 1.253 . S
C18 O19 1.227 . S
O19 C18 1.227 . S
N20 Co6 2.140 . S
N20 C23 1.346 . S
N20 C24 1.345 . S
C21 C22 1.387 . S
C21 C25 1.391 . S
C22 C21 1.387 . S
C22 C23 1.369 . S
C22 H31 0.929 . S
C23 N20 1.346 . S
C23 C22 1.369 . S
C23 H26 0.928 . S
C24 N20 1.345 . S
C24 C25 1.371 . S
C24 H27 0.931 . S
C25 C21 1.391 . S
C25 C24 1.371 . S
C25 H32 0.930 . S
H26 C23 0.928 . S
H27 C24 0.931 . S
H28 C4 0.930 . S
H29 C1 0.930 . S
H30 C10 0.930 . S
H31 C22 0.929 . S
H32 C25 0.930 . S
C33 C34 1.351 . S
C33 N36 1.368 . S
C33 H38 0.931 . S
C34 C33 1.351 . S
C34 N35 1.373 . S
C34 H62 0.930 . S
N35 C34 1.373 . S
N35 C37 1.340 . S
N36 C33 1.368 . S
N36 C37 1.321 . S
N36 Co39 2.135 . S
C37 N35 1.340 . S
C37 N36 1.321 . S
C37 H61 0.930 . S
H38 C33 0.931 . S
Co39 N36 2.135 . S
Co39 N42 2.121 . S
Co39 O47 2.055 . S
Co39 O50 2.039 . S
Co39 N53 2.140 . S
C40 O41 1.227 . S
C40 O50 1.265 . S
O41 C40 1.227 . S
N42 Co39 2.121 . S
N42 C44 1.375 . S
N42 C45 1.313 . S
C43 C44 1.338 . S
C43 N46 1.377 . S
C43 H63 0.930 . S
C44 N42 1.375 . S
C44 C43 1.338 . S
C44 H48 0.931 . S
C45 N42 1.313 . S
C45 N46 1.344 . S
C45 H49 0.930 . S
N46 C43 1.377 . S
N46 C45 1.344 . S
O47 Co39 2.055 . S
O47 C51 1.253 . S
H48 C44 0.931 . S
H49 C45 0.930 . S
O50 Co39 2.039 . S
O50 C40 1.265 . S
C51 O47 1.253 . S
C51 O52 1.227 . S
O52 C51 1.227 . S
N53 Co39 2.140 . S
N53 C56 1.346 . S
N53 C57 1.345 . S
C54 C55 1.387 . S
C54 C58 1.391 . S
C55 C54 1.387 . S
C55 C56 1.369 . S
C55 H64 0.929 . S
C56 N53 1.346 . S
C56 C55 1.369 . S
C56 H59 0.928 . S
C57 N53 1.345 . S
C57 C58 1.371 . S
C57 H60 0.931 . S
C58 C54 1.391 . S
C58 C57 1.371 . S
C58 H65 0.930 . S
H59 C56 0.928 . S
H60 C57 0.931 . S
H61 C37 0.930 . S
H62 C34 0.930 . S
H63 C43 0.930 . S
H64 C55 0.929 . S
H65 C58 0.930 . S
C66 C67 1.351 . S
C66 N69 1.368 . S
C66 H71 0.931 . S
C67 C66 1.351 . S
C67 N68 1.373 . S
C67 H95 0.930 . S
N68 C67 1.373 . S
N68 C70 1.340 . S
N69 C66 1.368 . S
N69 C70 1.321 . S
N69 Co72 2.135 . S
C70 N68 1.340 . S
C70 N69 1.321 . S
C70 H94 0.930 . S
H71 C66 0.931 . S
Co72 N69 2.135 . S
Co72 N75 2.121 . S
Co72 O80 2.055 . S
Co72 O83 2.039 . S
Co72 N86 2.140 . S
C73 O74 1.227 . S
C73 O83 1.265 . S
O74 C73 1.227 . S
N75 Co72 2.121 . S
N75 C77 1.375 . S
N75 C78 1.313 . S
C76 C77 1.338 . S
C76 N79 1.377 . S
C76 H96 0.930 . S
C77 N75 1.375 . S
C77 C76 1.338 . S
C77 H81 0.931 . S
C78 N75 1.313 . S
C78 N79 1.344 . S
C78 H82 0.930 . S
N79 C76 1.377 . S
N79 C78 1.344 . S
O80 Co72 2.055 . S
O80 C84 1.253 . S
H81 C77 0.931 . S
H82 C78 0.930 . S
O83 Co72 2.039 . S
O83 C73 1.265 . S
C84 O80 1.253 . S
C84 O85 1.227 . S
O85 C84 1.227 . S
N86 Co72 2.140 . S
N86 C89 1.346 . S
N86 C90 1.345 . S
C87 C88 1.387 . S
C87 C91 1.391 . S
C88 C87 1.387 . S
C88 C89 1.369 . S
C88 H97 0.929 . S
C89 N86 1.346 . S
C89 C88 1.369 . S
C89 H92 0.928 . S
C90 N86 1.345 . S
C90 C91 1.371 . S
C90 H93 0.931 . S
C91 C87 1.391 . S
C91 C90 1.371 . S
C91 H98 0.930 . S
H92 C89 0.928 . S
H93 C90 0.931 . S
H94 C70 0.930 . S
H95 C67 0.930 . S
H96 C76 0.930 . S
H97 C88 0.929 . S
H98 C91 0.930 . S
C99 C100 1.351 . S
C99 N102 1.368 . S
C99 H104 0.931 . S
C100 C99 1.351 . S
C100 N101 1.373 . S
C100 H128 0.930 . S
N101 C100 1.373 . S
N101 C103 1.340 . S
N102 C99 1.368 . S
N102 C103 1.321 . S
N102 Co105 2.135 . S
C103 N101 1.340 . S
C103 N102 1.321 . S
C103 H127 0.930 . S
H104 C99 0.931 . S
Co105 N102 2.135 . S
Co105 N108 2.121 . S
Co105 O113 2.055 . S
Co105 O116 2.039 . S
Co105 N119 2.140 . S
C106 O107 1.227 . S
C106 O116 1.265 . S
O107 C106 1.227 . S
N108 Co105 2.121 . S
N108 C110 1.375 . S
N108 C111 1.313 . S
C109 C110 1.338 1_556 S
C109 N112 1.377 . S
C109 H129 0.930 . S
C110 N108 1.375 . S
C110 C109 1.338 1_554 S
C110 H114 0.931 . S
C111 N108 1.313 . S
C111 N112 1.344 1_554 S
C111 H115 0.930 . S
N112 C109 1.377 . S
N112 C111 1.344 1_556 S
O113 Co105 2.055 . S
O113 C117 1.253 . S
H114 C110 0.931 . S
H115 C111 0.930 . S
O116 Co105 2.039 . S
O116 C106 1.265 . S
C117 O113 1.253 . S
C117 O118 1.227 . S
O118 C117 1.227 . S
N119 Co105 2.140 . S
N119 C122 1.346 . S
N119 C123 1.345 . S
C120 C121 1.387 . S
C120 C124 1.391 . S
C121 C120 1.387 . S
C121 C122 1.369 . S
C121 H130 0.929 . S
C122 N119 1.346 . S
C122 C121 1.369 . S
C122 H125 0.928 . S
C123 N119 1.345 . S
C123 C124 1.371 . S
C123 H126 0.931 . S
C124 C120 1.391 . S
C124 C123 1.371 . S
C124 H131 0.930 . S
H125 C122 0.928 . S
H126 C123 0.931 . S
H127 C103 0.930 . S
H128 C100 0.930 . S
H129 C109 0.930 . S
H130 C121 0.929 . S
H131 C124 0.930 . S
C132 C133 1.351 . S
C132 N135 1.368 . S
C132 H137 0.931 . S
C133 C132 1.351 . S
C133 N134 1.373 . S
C133 H161 0.930 . S
N134 C133 1.373 . S
N134 C136 1.340 . S
N135 C132 1.368 . S
N135 C136 1.321 . S
N135 Co138 2.135 . S
C136 N134 1.340 . S
C136 N135 1.321 . S
C136 H160 0.930 . S
H137 C132 0.931 . S
Co138 N135 2.135 . S
Co138 N141 2.121 . S
Co138 O146 2.055 . S
Co138 O149 2.039 . S
Co138 N152 2.140 . S
C139 O140 1.227 . S
C139 O149 1.265 . S
O140 C139 1.227 . S
N141 Co138 2.121 . S
N141 C143 1.375 . S
N141 C144 1.313 . S
C142 C143 1.338 1_554 S
C142 N145 1.377 . S
C142 H162 0.930 . S
C143 N141 1.375 . S
C143 C142 1.338 1_556 S
C143 H147 0.931 . S
C144 N141 1.313 . S
C144 N145 1.344 1_556 S
C144 H148 0.930 . S
N145 C142 1.377 . S
N145 C144 1.344 1_554 S
O146 Co138 2.055 . S
O146 C150 1.253 . S
H147 C143 0.931 . S
H148 C144 0.930 . S
O149 Co138 2.039 . S
O149 C139 1.265 . S
C150 O146 1.253 . S
C150 O151 1.227 . S
O151 C150 1.227 . S
N152 Co138 2.140 . S
N152 C155 1.346 . S
N152 C156 1.345 . S
C153 C154 1.387 . S
C153 C157 1.391 . S
C154 C153 1.387 . S
C154 C155 1.369 . S
C154 H163 0.929 . S
C155 N152 1.346 . S
C155 C154 1.369 . S
C155 H158 0.928 . S
C156 N152 1.345 . S
C156 C157 1.371 . S
C156 H159 0.931 . S
C157 C153 1.391 . S
C157 C156 1.371 . S
C157 H164 0.930 . S
H158 C155 0.928 . S
H159 C156 0.931 . S
H160 C136 0.930 . S
H161 C133 0.930 . S
H162 C142 0.930 . S
H163 C154 0.929 . S
H164 C157 0.930 . S
C165 C166 1.351 . S
C165 N168 1.368 . S
C165 H170 0.931 . S
C166 C165 1.351 . S
C166 N167 1.373 . S
C166 H194 0.930 . S
N167 C166 1.373 . S
N167 C169 1.340 . S
N168 C165 1.368 . S
N168 C169 1.321 . S
N168 Co171 2.135 . S
C169 N167 1.340 . S
C169 N168 1.321 . S
C169 H193 0.930 . S
H170 C165 0.931 . S
Co171 N168 2.135 . S
Co171 N174 2.121 . S
Co171 O179 2.055 . S
Co171 O182 2.039 . S
Co171 N185 2.140 . S
C172 O173 1.227 . S
C172 O182 1.265 . S
O173 C172 1.227 . S
N174 Co171 2.121 . S
N174 C176 1.375 . S
N174 C177 1.313 . S
C175 C176 1.338 . S
C175 N178 1.377 . S
C175 H195 0.930 . S
C176 N174 1.375 . S
C176 C175 1.338 . S
C176 H180 0.931 . S
C177 N174 1.313 . S
C177 N178 1.344 . S
C177 H181 0.930 . S
N178 C175 1.377 . S
N178 C177 1.344 . S
O179 Co171 2.055 . S
O179 C183 1.253 . S
H180 C176 0.931 . S
H181 C177 0.930 . S
O182 Co171 2.039 . S
O182 C172 1.265 . S
C183 O179 1.253 . S
C183 O184 1.227 . S
O184 C183 1.227 . S
N185 Co171 2.140 . S
N185 C188 1.346 . S
N185 C189 1.345 . S
C186 C187 1.387 . S
C186 C190 1.391 . S
C187 C186 1.387 . S
C187 C188 1.369 . S
C187 H196 0.929 . S
C188 N185 1.346 . S
C188 C187 1.369 . S
C188 H191 0.928 . S
C189 N185 1.345 . S
C189 C190 1.371 . S
C189 H192 0.931 . S
C190 C186 1.391 . S
C190 C189 1.371 . S
C190 H197 0.930 . S
H191 C188 0.928 . S
H192 C189 0.931 . S
H193 C169 0.930 . S
H194 C166 0.930 . S
H195 C175 0.930 . S
H196 C187 0.929 . S
H197 C190 0.930 . S
C198 C199 1.351 . S
C198 N201 1.368 . S
C198 H203 0.931 . S
C199 C198 1.351 . S
C199 N200 1.373 . S
C199 H227 0.930 . S
N200 C199 1.373 . S
N200 C202 1.340 . S
N201 C198 1.368 . S
N201 C202 1.321 . S
N201 Co204 2.135 . S
C202 N200 1.340 . S
C202 N201 1.321 . S
C202 H226 0.930 . S
H203 C198 0.931 . S
Co204 N201 2.135 . S
Co204 N207 2.121 . S
Co204 O212 2.055 . S
Co204 O215 2.039 . S
Co204 N218 2.140 . S
C205 O206 1.227 . S
C205 O215 1.265 . S
O206 C205 1.227 . S
N207 Co204 2.121 . S
N207 C209 1.375 . S
N207 C210 1.313 . S
C208 C209 1.338 . S
C208 N211 1.377 . S
C208 H228 0.930 . S
C209 N207 1.375 . S
C209 C208 1.338 . S
C209 H213 0.931 . S
C210 N207 1.313 . S
C210 N211 1.344 . S
C210 H214 0.930 . S
N211 C208 1.377 . S
N211 C210 1.344 . S
O212 Co204 2.055 . S
O212 C216 1.253 . S
H213 C209 0.931 . S
H214 C210 0.930 . S
O215 Co204 2.039 . S
O215 C205 1.265 . S
C216 O212 1.253 . S
C216 O217 1.227 . S
O217 C216 1.227 . S
N218 Co204 2.140 . S
N218 C221 1.346 . S
N218 C222 1.345 . S
C219 C220 1.387 . S
C219 C223 1.391 . S
C220 C219 1.387 . S
C220 C221 1.369 . S
C220 H229 0.929 . S
C221 N218 1.346 . S
C221 C220 1.369 . S
C221 H224 0.928 . S
C222 N218 1.345 . S
C222 C223 1.371 . S
C222 H225 0.931 . S
C223 C219 1.391 . S
C223 C222 1.371 . S
C223 H230 0.930 . S
H224 C221 0.928 . S
H225 C222 0.931 . S
H226 C202 0.930 . S
H227 C199 0.930 . S
H228 C208 0.930 . S
H229 C220 0.929 . S
H230 C223 0.930 . S
C231 C232 1.351 . S
C231 N234 1.368 . S
C231 H236 0.931 . S
C232 C231 1.351 . S
C232 N233 1.373 . S
C232 H260 0.930 . S
N233 C232 1.373 . S
N233 C235 1.340 . S
N234 C231 1.368 . S
N234 C235 1.321 . S
N234 Co237 2.135 . S
C235 N233 1.340 . S
C235 N234 1.321 . S
C235 H259 0.930 . S
H236 C231 0.931 . S
Co237 N234 2.135 . S
Co237 N240 2.121 . S
Co237 O245 2.055 . S
Co237 O248 2.039 . S
Co237 N251 2.140 . S
C238 O239 1.227 . S
C238 O248 1.265 . S
O239 C238 1.227 . S
N240 Co237 2.121 . S
N240 C242 1.375 . S
N240 C243 1.313 . S
C241 C242 1.338 . S
C241 N244 1.377 . S
C241 H261 0.930 . S
C242 N240 1.375 . S
C242 C241 1.338 . S
C242 H246 0.931 . S
C243 N240 1.313 . S
C243 N244 1.344 . S
C243 H247 0.930 . S
N244 C241 1.377 . S
N244 C243 1.344 . S
O245 Co237 2.055 . S
O245 C249 1.253 . S
H246 C242 0.931 . S
H247 C243 0.930 . S
O248 Co237 2.039 . S
O248 C238 1.265 . S
C249 O245 1.253 . S
C249 O250 1.227 . S
O250 C249 1.227 . S
N251 Co237 2.140 . S
N251 C254 1.346 . S
N251 C255 1.345 . S
C252 C253 1.387 . S
C252 C256 1.391 . S
C253 C252 1.387 . S
C253 C254 1.369 . S
C253 H262 0.929 . S
C254 N251 1.346 . S
C254 C253 1.369 . S
C254 H257 0.928 . S
C255 N251 1.345 . S
C255 C256 1.371 . S
C255 H258 0.931 . S
C256 C252 1.391 . S
C256 C255 1.371 . S
C256 H263 0.930 . S
H257 C254 0.928 . S
H258 C255 0.931 . S
H259 C235 0.930 . S
H260 C232 0.930 . S
H261 C241 0.930 . S
H262 C253 0.929 . S
H263 C256 0.930 . S
C264 C265 1.351 . S
C264 N267 1.368 . S
C264 H269 0.931 . S
C265 C264 1.351 . S
C265 N266 1.373 . S
C265 H293 0.930 . S
N266 C265 1.373 . S
N266 C268 1.340 . S
N267 C264 1.368 . S
N267 C268 1.321 . S
N267 Co270 2.135 . S
C268 N266 1.340 . S
C268 N267 1.321 . S
C268 H292 0.930 . S
H269 C264 0.931 . S
Co270 N267 2.135 . S
Co270 N273 2.121 . S
Co270 O278 2.055 . S
Co270 O281 2.039 . S
Co270 N284 2.140 . S
C271 O272 1.227 . S
C271 O281 1.265 . S
O272 C271 1.227 . S
N273 Co270 2.121 . S
N273 C275 1.375 . S
N273 C276 1.313 . S
C274 C275 1.338 . S
C274 N277 1.377 . S
C274 H294 0.930 . S
C275 N273 1.375 . S
C275 C274 1.338 . S
C275 H279 0.931 . S
C276 N273 1.313 . S
C276 N277 1.344 . S
C276 H280 0.930 . S
N277 C274 1.377 . S
N277 C276 1.344 . S
O278 Co270 2.055 . S
O278 C282 1.253 . S
H279 C275 0.931 . S
H280 C276 0.930 . S
O281 Co270 2.039 . S
O281 C271 1.265 . S
C282 O278 1.253 . S
C282 O283 1.227 . S
O283 C282 1.227 . S
N284 Co270 2.140 . S
N284 C287 1.346 . S
N284 C288 1.345 . S
C285 C286 1.387 . S
C285 C289 1.391 . S
C286 C285 1.387 . S
C286 C287 1.369 . S
C286 H295 0.929 . S
C287 N284 1.346 . S
C287 C286 1.369 . S
C287 H290 0.928 . S
C288 N284 1.345 . S
C288 C289 1.371 . S
C288 H291 0.931 . S
C289 C285 1.391 . S
C289 C288 1.371 . S
C289 H296 0.930 . S
H290 C287 0.928 . S
H291 C288 0.931 . S
H292 C268 0.930 . S
H293 C265 0.930 . S
H294 C274 0.930 . S
H295 C286 0.929 . S
H296 C289 0.930 . S
C297 C298 1.351 . S
C297 N300 1.368 . S
C297 H302 0.931 . S
C298 C297 1.351 . S
C298 N299 1.373 . S
C298 H326 0.930 . S
N299 C298 1.373 . S
N299 C301 1.340 . S
N300 C297 1.368 . S
N300 C301 1.321 . S
N300 Co303 2.135 . S
C301 N299 1.340 . S
C301 N300 1.321 . S
C301 H325 0.930 . S
H302 C297 0.931 . S
Co303 N300 2.135 . S
Co303 N306 2.121 . S
Co303 O311 2.055 . S
Co303 O314 2.039 . S
Co303 N317 2.140 . S
C304 O305 1.227 . S
C304 O314 1.265 . S
O305 C304 1.227 . S
N306 Co303 2.121 . S
N306 C308 1.375 . S
N306 C309 1.313 . S
C307 C308 1.338 1_556 S
C307 N310 1.377 . S
C307 H327 0.930 . S
C308 N306 1.375 . S
C308 C307 1.338 1_554 S
C308 H312 0.931 . S
C309 N306 1.313 . S
C309 N310 1.344 1_554 S
C309 H313 0.930 . S
N310 C307 1.377 . S
N310 C309 1.344 1_556 S
O311 Co303 2.055 . S
O311 C315 1.253 . S
H312 C308 0.931 . S
H313 C309 0.930 . S
O314 Co303 2.039 . S
O314 C304 1.265 . S
C315 O311 1.253 . S
C315 O316 1.227 . S
O316 C315 1.227 . S
N317 Co303 2.140 . S
N317 C320 1.346 . S
N317 C321 1.345 . S
C318 C319 1.387 . S
C318 C322 1.391 . S
C319 C318 1.387 . S
C319 C320 1.369 . S
C319 H328 0.929 . S
C320 N317 1.346 . S
C320 C319 1.369 . S
C320 H323 0.928 . S
C321 N317 1.345 . S
C321 C322 1.371 . S
C321 H324 0.931 . S
C322 C318 1.391 . S
C322 C321 1.371 . S
C322 H329 0.930 . S
H323 C320 0.928 . S
H324 C321 0.931 . S
H325 C301 0.930 . S
H326 C298 0.930 . S
H327 C307 0.930 . S
H328 C319 0.929 . S
H329 C322 0.930 . S
C330 C331 1.351 . S
C330 N333 1.368 . S
C330 H335 0.931 . S
C331 C330 1.351 . S
C331 N332 1.373 . S
C331 H359 0.930 . S
N332 C331 1.373 . S
N332 C334 1.340 . S
N333 C330 1.368 . S
N333 C334 1.321 . S
N333 Co336 2.135 . S
C334 N332 1.340 . S
C334 N333 1.321 . S
C334 H358 0.930 . S
H335 C330 0.931 . S
Co336 N333 2.135 . S
Co336 N339 2.121 . S
Co336 O344 2.055 . S
Co336 O347 2.039 . S
Co336 N350 2.140 . S
C337 O338 1.227 . S
C337 O347 1.265 . S
O338 C337 1.227 . S
N339 Co336 2.121 . S
N339 C341 1.375 . S
N339 C342 1.313 . S
C340 C341 1.338 . S
C340 N343 1.377 . S
C340 H360 0.930 . S
C341 N339 1.375 . S
C341 C340 1.338 . S
C341 H345 0.931 . S
C342 N339 1.313 . S
C342 N343 1.344 . S
C342 H346 0.930 . S
N343 C340 1.377 . S
N343 C342 1.344 . S
O344 Co336 2.055 . S
O344 C348 1.253 . S
H345 C341 0.931 . S
H346 C342 0.930 . S
O347 Co336 2.039 . S
O347 C337 1.265 . S
C348 O344 1.253 . S
C348 O349 1.227 . S
O349 C348 1.227 . S
N350 Co336 2.140 . S
N350 C353 1.346 . S
N350 C354 1.345 . S
C351 C352 1.387 . S
C351 C355 1.391 . S
C352 C351 1.387 . S
C352 C353 1.369 . S
C352 H361 0.929 . S
C353 N350 1.346 . S
C353 C352 1.369 . S
C353 H356 0.928 . S
C354 N350 1.345 . S
C354 C355 1.371 . S
C354 H357 0.931 . S
C355 C351 1.391 . S
C355 C354 1.371 . S
C355 H362 0.930 . S
H356 C353 0.928 . S
H357 C354 0.931 . S
H358 C334 0.930 . S
H359 C331 0.930 . S
H360 C340 0.930 . S
H361 C352 0.929 . S
H362 C355 0.930 . S
C363 C364 1.351 . S
C363 N366 1.368 . S
C363 H368 0.931 . S
C364 C363 1.351 . S
C364 N365 1.373 . S
C364 H392 0.930 . S
N365 C364 1.373 . S
N365 C367 1.340 . S
N366 C363 1.368 . S
N366 C367 1.321 . S
N366 Co369 2.135 . S
C367 N365 1.340 . S
C367 N366 1.321 . S
C367 H391 0.930 . S
H368 C363 0.931 . S
Co369 N366 2.135 . S
Co369 N372 2.121 . S
Co369 O377 2.055 . S
Co369 O380 2.039 . S
Co369 N383 2.140 . S
C370 O371 1.227 . S
C370 O380 1.265 . S
O371 C370 1.227 . S
N372 Co369 2.121 . S
N372 C374 1.375 . S
N372 C375 1.313 . S
C373 C374 1.338 . S
C373 N376 1.377 . S
C373 H393 0.930 . S
C374 N372 1.375 . S
C374 C373 1.338 . S
C374 H378 0.931 . S
C375 N372 1.313 . S
C375 N376 1.344 . S
C375 H379 0.930 . S
N376 C373 1.377 . S
N376 C375 1.344 . S
O377 Co369 2.055 . S
O377 C381 1.253 . S
H378 C374 0.931 . S
H379 C375 0.930 . S
O380 Co369 2.039 . S
O380 C370 1.265 . S
C381 O377 1.253 . S
C381 O382 1.227 . S
O382 C381 1.227 . S
N383 Co369 2.140 . S
N383 C386 1.346 . S
N383 C387 1.345 . S
C384 C385 1.387 . S
C384 C388 1.391 . S
C385 C384 1.387 . S
C385 C386 1.369 . S
C385 H394 0.929 . S
C386 N383 1.346 . S
C386 C385 1.369 . S
C386 H389 0.928 . S
C387 N383 1.345 . S
C387 C388 1.371 . S
C387 H390 0.931 . S
C388 C384 1.391 . S
C388 C387 1.371 . S
C388 H395 0.930 . S
H389 C386 0.928 . S
H390 C387 0.931 . S
H391 C367 0.930 . S
H392 C364 0.930 . S
H393 C373 0.930 . S
H394 C385 0.929 . S
H395 C388 0.930 . S
C396 C397 1.351 . S
C396 N399 1.368 . S
C396 H401 0.931 . S
C397 C396 1.351 . S
C397 N398 1.373 . S
C397 H425 0.930 . S
N398 C397 1.373 . S
N398 C400 1.340 . S
N399 C396 1.368 . S
N399 C400 1.321 . S
N399 Co402 2.135 . S
C400 N398 1.340 . S
C400 N399 1.321 . S
C400 H424 0.930 . S
H401 C396 0.931 . S
Co402 N399 2.135 . S
Co402 N405 2.121 . S
Co402 O410 2.055 . S
Co402 O413 2.039 . S
Co402 N416 2.140 . S
C403 O404 1.227 . S
C403 O413 1.265 . S
O404 C403 1.227 . S
N405 Co402 2.121 . S
N405 C407 1.375 . S
N405 C408 1.313 . S
C406 C407 1.338 . S
C406 N409 1.377 . S
C406 H426 0.930 . S
C407 N405 1.375 . S
C407 C406 1.338 . S
C407 H411 0.931 . S
C408 N405 1.313 . S
C408 N409 1.344 . S
C408 H412 0.930 . S
N409 C406 1.377 . S
N409 C408 1.344 . S
O410 Co402 2.055 . S
O410 C414 1.253 . S
H411 C407 0.931 . S
H412 C408 0.930 . S
O413 Co402 2.039 . S
O413 C403 1.265 . S
C414 O410 1.253 . S
C414 O415 1.227 . S
O415 C414 1.227 . S
N416 Co402 2.140 . S
N416 C419 1.346 . S
N416 C420 1.345 . S
C417 C418 1.387 . S
C417 C421 1.391 . S
C418 C417 1.387 . S
C418 C419 1.369 . S
C418 H427 0.929 . S
C419 N416 1.346 . S
C419 C418 1.369 . S
C419 H422 0.928 . S
C420 N416 1.345 . S
C420 C421 1.371 . S
C420 H423 0.931 . S
C421 C417 1.391 . S
C421 C420 1.371 . S
C421 H428 0.930 . S
H422 C419 0.928 . S
H423 C420 0.931 . S
H424 C400 0.930 . S
H425 C397 0.930 . S
H426 C406 0.930 . S
H427 C418 0.929 . S
H428 C421 0.930 . S
C429 C430 1.351 . S
C429 N432 1.368 . S
C429 H434 0.931 . S
C430 C429 1.351 . S
C430 N431 1.373 . S
C430 H458 0.930 . S
N431 C430 1.373 . S
N431 C433 1.340 . S
N432 C429 1.368 . S
N432 C433 1.321 . S
N432 Co435 2.135 . S
C433 N431 1.340 . S
C433 N432 1.321 . S
C433 H457 0.930 . S
H434 C429 0.931 . S
Co435 N432 2.135 . S
Co435 N438 2.121 . S
Co435 O443 2.055 . S
Co435 O446 2.039 . S
Co435 N449 2.140 . S
C436 O437 1.227 . S
C436 O446 1.265 . S
O437 C436 1.227 . S
N438 Co435 2.121 . S
N438 C440 1.375 . S
N438 C441 1.313 . S
C439 C440 1.338 . S
C439 N442 1.377 . S
C439 H459 0.930 . S
C440 N438 1.375 . S
C440 C439 1.338 . S
C440 H444 0.931 . S
C441 N438 1.313 . S
C441 N442 1.344 . S
C441 H445 0.930 . S
N442 C439 1.377 . S
N442 C441 1.344 . S
O443 Co435 2.055 . S
O443 C447 1.253 . S
H444 C440 0.931 . S
H445 C441 0.930 . S
O446 Co435 2.039 . S
O446 C436 1.265 . S
C447 O443 1.253 . S
C447 O448 1.227 . S
O448 C447 1.227 . S
N449 Co435 2.140 . S
N449 C452 1.346 . S
N449 C453 1.345 . S
C450 C451 1.387 . S
C450 C454 1.391 . S
C451 C450 1.387 . S
C451 C452 1.369 . S
C451 H460 0.929 . S
C452 N449 1.346 . S
C452 C451 1.369 . S
C452 H455 0.928 . S
C453 N449 1.345 . S
C453 C454 1.371 . S
C453 H456 0.931 . S
C454 C450 1.391 . S
C454 C453 1.371 . S
C454 H461 0.930 . S
H455 C452 0.928 . S
H456 C453 0.931 . S
H457 C433 0.930 . S
H458 C430 0.930 . S
H459 C439 0.930 . S
H460 C451 0.929 . S
H461 C454 0.930 . S
C462 C463 1.351 . S
C462 N465 1.368 . S
C462 H467 0.931 . S
C463 C462 1.351 . S
C463 N464 1.373 . S
C463 H491 0.930 . S
N464 C463 1.373 . S
N464 C466 1.340 . S
N465 C462 1.368 . S
N465 C466 1.321 . S
N465 Co468 2.135 . S
C466 N464 1.340 . S
C466 N465 1.321 . S
C466 H490 0.930 . S
H467 C462 0.931 . S
Co468 N465 2.135 . S
Co468 N471 2.121 . S
Co468 O476 2.055 . S
Co468 O479 2.039 . S
Co468 N482 2.140 . S
C469 O470 1.227 . S
C469 O479 1.265 . S
O470 C469 1.227 . S
N471 Co468 2.121 . S
N471 C473 1.375 . S
N471 C474 1.313 . S
C472 C473 1.338 1_554 S
C472 N475 1.377 . S
C472 H492 0.930 . S
C473 N471 1.375 . S
C473 C472 1.338 1_556 S
C473 H477 0.931 . S
C474 N471 1.313 . S
C474 N475 1.344 1_556 S
C474 H478 0.930 . S
N475 C472 1.377 . S
N475 C474 1.344 1_554 S
O476 Co468 2.055 . S
O476 C480 1.253 . S
H477 C473 0.931 . S
H478 C474 0.930 . S
O479 Co468 2.039 . S
O479 C469 1.265 . S
C480 O476 1.253 . S
C480 O481 1.227 . S
O481 C480 1.227 . S
N482 Co468 2.140 . S
N482 C485 1.346 . S
N482 C486 1.345 . S
C483 C484 1.387 . S
C483 C487 1.391 . S
C484 C483 1.387 . S
C484 C485 1.369 . S
C484 H493 0.929 . S
C485 N482 1.346 . S
C485 C484 1.369 . S
C485 H488 0.928 . S
C486 N482 1.345 . S
C486 C487 1.371 . S
C486 H489 0.931 . S
C487 C483 1.391 . S
C487 C486 1.371 . S
C487 H494 0.930 . S
H488 C485 0.928 . S
H489 C486 0.931 . S
H490 C466 0.930 . S
H491 C463 0.930 . S
H492 C472 0.930 . S
H493 C484 0.929 . S
H494 C487 0.930 . S
C495 C496 1.351 . S
C495 N498 1.368 . S
C495 H500 0.931 . S
C496 C495 1.351 . S
C496 N497 1.373 . S
C496 H524 0.930 . S
N497 C496 1.373 . S
N497 C499 1.340 . S
N498 C495 1.368 . S
N498 C499 1.321 . S
N498 Co501 2.135 . S
C499 N497 1.340 . S
C499 N498 1.321 . S
C499 H523 0.930 . S
H500 C495 0.931 . S
Co501 N498 2.135 . S
Co501 N504 2.121 . S
Co501 O509 2.055 . S
Co501 O512 2.039 . S
Co501 N515 2.140 . S
C502 O503 1.227 . S
C502 O512 1.265 . S
O503 C502 1.227 . S
N504 Co501 2.121 . S
N504 C506 1.375 . S
N504 C507 1.313 . S
C505 C506 1.338 . S
C505 N508 1.377 . S
C505 H525 0.930 . S
C506 N504 1.375 . S
C506 C505 1.338 . S
C506 H510 0.931 . S
C507 N504 1.313 . S
C507 N508 1.344 . S
C507 H511 0.930 . S
N508 C505 1.377 . S
N508 C507 1.344 . S
O509 Co501 2.055 . S
O509 C513 1.253 . S
H510 C506 0.931 . S
H511 C507 0.930 . S
O512 Co501 2.039 . S
O512 C502 1.265 . S
C513 O509 1.253 . S
C513 O514 1.227 . S
O514 C513 1.227 . S
N515 Co501 2.140 . S
N515 C518 1.346 . S
N515 C519 1.345 . S
C516 C517 1.387 . S
C516 C520 1.391 . S
C517 C516 1.387 . S
C517 C518 1.369 . S
C517 H526 0.929 . S
C518 N515 1.346 . S
C518 C517 1.369 . S
C518 H521 0.928 . S
C519 N515 1.345 . S
C519 C520 1.371 . S
C519 H522 0.931 . S
C520 C516 1.391 . S
C520 C519 1.371 . S
C520 H527 0.930 . S
H521 C518 0.928 . S
H522 C519 0.931 . S
H523 C499 0.930 . S
H524 C496 0.930 . S
H525 C505 0.930 . S
H526 C517 0.929 . S
H527 C520 0.930 . S
C528 C529 1.391 . S
C528 C530 1.394 . S
C528 H544 0.931 . S
C529 C528 1.391 . S
C529 C533 1.376 . S
C530 C528 1.394 . S
C530 C531 1.369 . S
C530 C534 1.531 . S
C531 C530 1.369 . S
C531 C532 1.410 . S
C531 C539 1.503 . S
C532 C531 1.410 . S
C532 C533 1.392 . S
C532 C535 1.511 . S
C533 C529 1.376 . S
C533 C532 1.392 . S
C533 H545 0.929 . S
C534 C530 1.531 . S
C534 H546 0.960 . S
C534 H547 0.962 . S
C534 H548 0.960 . S
C535 C532 1.511 . S
C535 H549 0.961 . S
C535 H550 0.961 . S
C535 H551 0.961 . S
C536 C537 1.370 . S
C536 C538 1.363 . S
C536 H552 0.931 . S
C537 C536 1.370 . S
C537 C541 1.408 . S
C538 C536 1.363 . S
C538 C539 1.370 . S
C538 C542 1.524 . S
C539 C531 1.503 . S
C539 C538 1.370 . S
C539 C540 1.403 . S
C540 C539 1.403 . S
C540 C541 1.404 . S
C540 C543 1.539 . S
C541 C537 1.408 . S
C541 C540 1.404 . S
C541 H553 0.930 . S
C542 C538 1.524 . S
C542 H554 0.956 . S
C542 H555 0.961 . S
C542 H556 0.961 . S
C543 C540 1.539 . S
C543 H557 0.958 . S
C543 H558 0.961 . S
C543 H559 0.960 . S
H544 C528 0.931 . S
H545 C533 0.929 . S
H546 C534 0.960 . S
H547 C534 0.962 . S
H548 C534 0.960 . S
H549 C535 0.961 . S
H550 C535 0.961 . S
H551 C535 0.961 . S
H552 C536 0.931 . S
H553 C541 0.930 . S
H554 C542 0.956 . S
H555 C542 0.961 . S
H556 C542 0.961 . S
H557 C543 0.958 . S
H558 C543 0.961 . S
H559 C543 0.960 . S
C560 C561 1.391 . S
C560 C562 1.394 . S
C560 H576 0.931 . S
C561 C560 1.391 . S
C561 C565 1.376 . S
C562 C560 1.394 . S
C562 C563 1.369 . S
C562 C566 1.531 . S
C563 C562 1.369 . S
C563 C564 1.410 . S
C563 C571 1.503 . S
C564 C563 1.410 . S
C564 C565 1.392 . S
C564 C567 1.511 . S
C565 C561 1.376 . S
C565 C564 1.392 . S
C565 H577 0.929 . S
C566 C562 1.531 . S
C566 H578 0.960 . S
C566 H579 0.962 . S
C566 H580 0.960 . S
C567 C564 1.511 . S
C567 H581 0.961 . S
C567 H582 0.961 . S
C567 H583 0.961 . S
C568 C569 1.370 . S
C568 C570 1.363 . S
C568 H584 0.931 . S
C569 C568 1.370 . S
C569 C573 1.408 . S
C570 C568 1.363 . S
C570 C571 1.370 . S
C570 C574 1.524 . S
C571 C563 1.503 . S
C571 C570 1.370 . S
C571 C572 1.403 . S
C572 C571 1.403 . S
C572 C573 1.404 . S
C572 C575 1.539 . S
C573 C569 1.408 . S
C573 C572 1.404 . S
C573 H585 0.930 . S
C574 C570 1.524 . S
C574 H586 0.956 . S
C574 H587 0.961 . S
C574 H588 0.961 . S
C575 C572 1.539 . S
C575 H589 0.958 . S
C575 H590 0.961 . S
C575 H591 0.960 . S
H576 C560 0.931 . S
H577 C565 0.929 . S
H578 C566 0.960 . S
H579 C566 0.962 . S
H580 C566 0.960 . S
H581 C567 0.961 . S
H582 C567 0.961 . S
H583 C567 0.961 . S
H584 C568 0.931 . S
H585 C573 0.930 . S
H586 C574 0.956 . S
H587 C574 0.961 . S
H588 C574 0.961 . S
H589 C575 0.958 . S
H590 C575 0.961 . S
H591 C575 0.960 . S
C592 C593 1.391 . S
C592 C594 1.394 . S
C592 H608 0.931 . S
C593 C592 1.391 . S
C593 C597 1.376 . S
C594 C592 1.394 . S
C594 C595 1.369 . S
C594 C598 1.531 . S
C595 C594 1.369 . S
C595 C596 1.410 . S
C595 C603 1.503 1_554 S
C596 C595 1.410 . S
C596 C597 1.392 . S
C596 C599 1.511 . S
C597 C593 1.376 . S
C597 C596 1.392 . S
C597 H609 0.929 . S
C598 C594 1.531 . S
C598 H610 0.960 . S
C598 H611 0.962 . S
C598 H612 0.960 . S
C599 C596 1.511 . S
C599 H613 0.961 . S
C599 H614 0.961 1_554 S
C599 H615 0.961 . S
C600 C601 1.370 . S
C600 C602 1.363 . S
C600 H616 0.931 . S
C601 C600 1.370 . S
C601 C605 1.408 . S
C602 C600 1.363 . S
C602 C603 1.370 . S
C602 C606 1.524 . S
C603 C595 1.503 1_556 S
C603 C602 1.370 . S
C603 C604 1.403 . S
C604 C603 1.403 . S
C604 C605 1.404 . S
C604 C607 1.539 . S
C605 C601 1.408 . S
C605 C604 1.404 . S
C605 H617 0.930 . S
C606 C602 1.524 . S
C606 H618 0.956 . S
C606 H619 0.961 . S
C606 H620 0.961 . S
C607 C604 1.539 . S
C607 H621 0.958 . S
C607 H622 0.961 . S
C607 H623 0.960 1_556 S
H608 C592 0.931 . S
H609 C597 0.929 . S
H610 C598 0.960 . S
H611 C598 0.962 . S
H612 C598 0.960 . S
H613 C599 0.961 . S
H614 C599 0.961 1_556 S
H615 C599 0.961 . S
H616 C600 0.931 . S
H617 C605 0.930 . S
H618 C606 0.956 . S
H619 C606 0.961 . S
H620 C606 0.961 . S
H621 C607 0.958 . S
H622 C607 0.961 . S
H623 C607 0.960 1_554 S
C624 C625 1.391 . S
C624 C626 1.394 . S
C624 H640 0.931 . S
C625 C624 1.391 . S
C625 C629 1.376 . S
C626 C624 1.394 . S
C626 C627 1.369 . S
C626 C630 1.531 . S
C627 C626 1.369 . S
C627 C628 1.410 . S
C627 C635 1.503 . S
C628 C627 1.410 . S
C628 C629 1.392 . S
C628 C631 1.511 . S
C629 C625 1.376 . S
C629 C628 1.392 . S
C629 H641 0.929 . S
C630 C626 1.531 . S
C630 H642 0.960 . S
C630 H643 0.962 . S
C630 H644 0.960 . S
C631 C628 1.511 . S
C631 H645 0.961 . S
C631 H646 0.961 . S
C631 H647 0.961 . S
C632 C633 1.370 . S
C632 C634 1.363 . S
C632 H648 0.931 . S
C633 C632 1.370 . S
C633 C637 1.408 . S
C634 C632 1.363 . S
C634 C635 1.370 . S
C634 C638 1.524 . S
C635 C627 1.503 . S
C635 C634 1.370 . S
C635 C636 1.403 . S
C636 C635 1.403 . S
C636 C637 1.404 . S
C636 C639 1.539 . S
C637 C633 1.408 . S
C637 C636 1.404 . S
C637 H649 0.930 . S
C638 C634 1.524 . S
C638 H650 0.956 . S
C638 H651 0.961 . S
C638 H652 0.961 . S
C639 C636 1.539 . S
C639 H653 0.958 . S
C639 H654 0.961 . S
C639 H655 0.960 . S
H640 C624 0.931 . S
H641 C629 0.929 . S
H642 C630 0.960 . S
H643 C630 0.962 . S
H644 C630 0.960 . S
H645 C631 0.961 . S
H646 C631 0.961 . S
H647 C631 0.961 . S
H648 C632 0.931 . S
H649 C637 0.930 . S
H650 C638 0.956 . S
H651 C638 0.961 . S
H652 C638 0.961 . S
H653 C639 0.958 . S
H654 C639 0.961 . S
H655 C639 0.960 . S
C656 C657 1.391 . S
C656 C658 1.394 . S
C656 H672 0.931 . S
C657 C656 1.391 . S
C657 C661 1.376 . S
C658 C656 1.394 . S
C658 C659 1.369 . S
C658 C662 1.531 . S
C659 C658 1.369 . S
C659 C660 1.410 . S
C659 C667 1.503 . S
C660 C659 1.410 . S
C660 C661 1.392 . S
C660 C663 1.511 . S
C661 C657 1.376 . S
C661 C660 1.392 . S
C661 H673 0.929 . S
C662 C658 1.531 . S
C662 H674 0.960 . S
C662 H675 0.962 . S
C662 H676 0.960 . S
C663 C660 1.511 . S
C663 H677 0.961 . S
C663 H678 0.961 . S
C663 H679 0.961 . S
C664 C665 1.370 . S
C664 C666 1.363 . S
C664 H680 0.931 . S
C665 C664 1.370 . S
C665 C669 1.408 . S
C666 C664 1.363 . S
C666 C667 1.370 . S
C666 C670 1.524 . S
C667 C659 1.503 . S
C667 C666 1.370 . S
C667 C668 1.403 . S
C668 C667 1.403 . S
C668 C669 1.404 . S
C668 C671 1.539 . S
C669 C665 1.408 . S
C669 C668 1.404 . S
C669 H681 0.930 . S
C670 C666 1.524 . S
C670 H682 0.956 . S
C670 H683 0.961 . S
C670 H684 0.961 . S
C671 C668 1.539 . S
C671 H685 0.958 . S
C671 H686 0.961 . S
C671 H687 0.960 . S
H672 C656 0.931 . S
H673 C661 0.929 . S
H674 C662 0.960 . S
H675 C662 0.962 . S
H676 C662 0.960 . S
H677 C663 0.961 . S
H678 C663 0.961 . S
H679 C663 0.961 . S
H680 C664 0.931 . S
H681 C669 0.930 . S
H682 C670 0.956 . S
H683 C670 0.961 . S
H684 C670 0.961 . S
H685 C671 0.958 . S
H686 C671 0.961 . S
H687 C671 0.960 . S
C688 C689 1.391 . S
C688 C690 1.394 . S
C688 H704 0.931 . S
C689 C688 1.391 . S
C689 C693 1.376 . S
C690 C688 1.394 . S
C690 C691 1.369 . S
C690 C694 1.531 . S
C691 C690 1.369 . S
C691 C692 1.410 . S
C691 C699 1.503 1_556 S
C692 C691 1.410 . S
C692 C693 1.392 . S
C692 C695 1.511 . S
C693 C689 1.376 . S
C693 C692 1.392 . S
C693 H705 0.929 . S
C694 C690 1.531 . S
C694 H706 0.960 1_556 S
C694 H707 0.962 . S
C694 H708 0.960 . S
C695 C692 1.511 . S
C695 H709 0.961 . S
C695 H710 0.961 1_556 S
C695 H711 0.961 . S
C696 C697 1.370 . S
C696 C698 1.363 . S
C696 H712 0.931 . S
C697 C696 1.370 . S
C697 C701 1.408 . S
C698 C696 1.363 . S
C698 C699 1.370 . S
C698 C702 1.524 . S
C699 C691 1.503 1_554 S
C699 C698 1.370 . S
C699 C700 1.403 . S
C700 C699 1.403 . S
C700 C701 1.404 . S
C700 C703 1.539 . S
C701 C697 1.408 . S
C701 C700 1.404 . S
C701 H713 0.930 . S
C702 C698 1.524 . S
C702 H714 0.956 1_554 S
C702 H715 0.961 1_554 S
C702 H716 0.961 . S
C703 C700 1.539 . S
C703 H717 0.958 . S
C703 H718 0.961 . S
C703 H719 0.960 . S
H704 C688 0.931 . S
H705 C693 0.929 . S
H706 C694 0.960 1_554 S
H707 C694 0.962 . S
H708 C694 0.960 . S
H709 C695 0.961 . S
H710 C695 0.961 1_554 S
H711 C695 0.961 . S
H712 C696 0.931 . S
H713 C701 0.930 . S
H714 C702 0.956 1_556 S
H715 C702 0.961 1_556 S
H716 C702 0.961 . S
H717 C703 0.958 . S
H718 C703 0.961 . S
H719 C703 0.960 . S
C720 C721 1.391 . S
C720 C722 1.394 . S
C720 H736 0.931 . S
C721 C720 1.391 . S
C721 C725 1.376 . S
C722 C720 1.394 . S
C722 C723 1.369 . S
C722 C726 1.531 . S
C723 C722 1.369 . S
C723 C724 1.410 . S
C723 C731 1.503 . S
C724 C723 1.410 . S
C724 C725 1.392 . S
C724 C727 1.511 . S
C725 C721 1.376 . S
C725 C724 1.392 . S
C725 H737 0.929 . S
C726 C722 1.531 . S
C726 H738 0.960 . S
C726 H739 0.962 . S
C726 H740 0.960 . S
C727 C724 1.511 . S
C727 H741 0.961 . S
C727 H742 0.961 . S
C727 H743 0.961 . S
C728 C729 1.370 . S
C728 C730 1.363 . S
C728 H744 0.931 . S
C729 C728 1.370 . S
C729 C733 1.408 . S
C730 C728 1.363 . S
C730 C731 1.370 . S
C730 C734 1.524 . S
C731 C723 1.503 . S
C731 C730 1.370 . S
C731 C732 1.403 . S
C732 C731 1.403 . S
C732 C733 1.404 . S
C732 C735 1.539 . S
C733 C729 1.408 . S
C733 C732 1.404 . S
C733 H745 0.930 . S
C734 C730 1.524 . S
C734 H746 0.956 . S
C734 H747 0.961 . S
C734 H748 0.961 . S
C735 C732 1.539 . S
C735 H749 0.958 . S
C735 H750 0.961 . S
C735 H751 0.960 . S
H736 C720 0.931 . S
H737 C725 0.929 . S
H738 C726 0.960 . S
H739 C726 0.962 . S
H740 C726 0.960 . S
H741 C727 0.961 . S
H742 C727 0.961 . S
H743 C727 0.961 . S
H744 C728 0.931 . S
H745 C733 0.930 . S
H746 C734 0.956 . S
H747 C734 0.961 . S
H748 C734 0.961 . S
H749 C735 0.958 . S
H750 C735 0.961 . S
H751 C735 0.960 . S
C752 C753 1.391 . S
C752 C754 1.394 . S
C752 H768 0.931 . S
C753 C752 1.391 . S
C753 C757 1.376 . S
C754 C752 1.394 . S
C754 C755 1.369 . S
C754 C758 1.531 . S
C755 C754 1.369 . S
C755 C756 1.410 . S
C755 C763 1.503 . S
C756 C755 1.410 . S
C756 C757 1.392 . S
C756 C759 1.511 . S
C757 C753 1.376 . S
C757 C756 1.392 . S
C757 H769 0.929 . S
C758 C754 1.531 . S
C758 H770 0.960 . S
C758 H771 0.962 . S
C758 H772 0.960 . S
C759 C756 1.511 . S
C759 H773 0.961 . S
C759 H774 0.961 . S
C759 H775 0.961 . S
C760 C761 1.370 . S
C760 C762 1.363 . S
C760 H776 0.931 . S
C761 C760 1.370 . S
C761 C765 1.408 . S
C762 C760 1.363 . S
C762 C763 1.370 . S
C762 C766 1.524 . S
C763 C755 1.503 . S
C763 C762 1.370 . S
C763 C764 1.403 . S
C764 C763 1.403 . S
C764 C765 1.404 . S
C764 C767 1.539 . S
C765 C761 1.408 . S
C765 C764 1.404 . S
C765 H777 0.930 . S
C766 C762 1.524 . S
C766 H778 0.956 . S
C766 H779 0.961 . S
C766 H780 0.961 . S
C767 C764 1.539 . S
C767 H781 0.958 . S
C767 H782 0.961 . S
C767 H783 0.960 . S
H768 C752 0.931 . S
H769 C757 0.929 . S
H770 C758 0.960 . S
H771 C758 0.962 . S
H772 C758 0.960 . S
H773 C759 0.961 . S
H774 C759 0.961 . S
H775 C759 0.961 . S
H776 C760 0.931 . S
H777 C765 0.930 . S
H778 C766 0.956 . S
H779 C766 0.961 . S
H780 C766 0.961 . S
H781 C767 0.958 . S
H782 C767 0.961 . S
H783 C767 0.960 . S
C784 C785 1.391 . S
C784 C786 1.394 . S
C784 H800 0.931 . S
C785 C784 1.391 . S
C785 C789 1.376 . S
C786 C784 1.394 . S
C786 C787 1.369 . S
C786 C790 1.531 . S
C787 C786 1.369 . S
C787 C788 1.410 . S
C787 C795 1.503 . S
C788 C787 1.410 . S
C788 C789 1.392 . S
C788 C791 1.511 . S
C789 C785 1.376 . S
C789 C788 1.392 . S
C789 H801 0.929 . S
C790 C786 1.531 . S
C790 H802 0.960 . S
C790 H803 0.962 . S
C790 H804 0.960 . S
C791 C788 1.511 . S
C791 H805 0.961 . S
C791 H806 0.961 . S
C791 H807 0.961 . S
C792 C793 1.370 . S
C792 C794 1.363 . S
C792 H808 0.931 . S
C793 C792 1.370 . S
C793 C797 1.408 . S
C794 C792 1.363 . S
C794 C795 1.370 . S
C794 C798 1.524 . S
C795 C787 1.503 . S
C795 C794 1.370 . S
C795 C796 1.403 . S
C796 C795 1.403 . S
C796 C797 1.404 . S
C796 C799 1.539 . S
C797 C793 1.408 . S
C797 C796 1.404 . S
C797 H809 0.930 . S
C798 C794 1.524 . S
C798 H810 0.956 . S
C798 H811 0.961 . S
C798 H812 0.961 . S
C799 C796 1.539 . S
C799 H813 0.958 . S
C799 H814 0.961 . S
C799 H815 0.960 . S
H800 C784 0.931 . S
H801 C789 0.929 . S
H802 C790 0.960 . S
H803 C790 0.962 . S
H804 C790 0.960 . S
H805 C791 0.961 . S
H806 C791 0.961 . S
H807 C791 0.961 . S
H808 C792 0.931 . S
H809 C797 0.930 . S
H810 C798 0.956 . S
H811 C798 0.961 . S
H812 C798 0.961 . S
H813 C799 0.958 . S
H814 C799 0.961 . S
H815 C799 0.960 . S
C816 C817 1.391 . S
C816 C818 1.394 . S
C816 H832 0.931 . S
C817 C816 1.391 . S
C817 C821 1.376 . S
C818 C816 1.394 . S
C818 C819 1.369 . S
C818 C822 1.531 . S
C819 C818 1.369 . S
C819 C820 1.410 . S
C819 C827 1.503 . S
C820 C819 1.410 . S
C820 C821 1.392 . S
C820 C823 1.511 . S
C821 C817 1.376 . S
C821 C820 1.392 . S
C821 H833 0.929 . S
C822 C818 1.531 . S
C822 H834 0.960 . S
C822 H835 0.962 . S
C822 H836 0.960 . S
C823 C820 1.511 . S
C823 H837 0.961 . S
C823 H838 0.961 . S
C823 H839 0.961 . S
C824 C825 1.370 . S
C824 C826 1.363 . S
C824 H840 0.931 . S
C825 C824 1.370 . S
C825 C829 1.408 . S
C826 C824 1.363 . S
C826 C827 1.370 . S
C826 C830 1.524 . S
C827 C819 1.503 . S
C827 C826 1.370 . S
C827 C828 1.403 . S
C828 C827 1.403 . S
C828 C829 1.404 . S
C828 C831 1.539 . S
C829 C825 1.408 . S
C829 C828 1.404 . S
C829 H841 0.930 . S
C830 C826 1.524 . S
C830 H842 0.956 . S
C830 H843 0.961 . S
C830 H844 0.961 . S
C831 C828 1.539 . S
C831 H845 0.958 . S
C831 H846 0.961 . S
C831 H847 0.960 . S
H832 C816 0.931 . S
H833 C821 0.929 . S
H834 C822 0.960 . S
H835 C822 0.962 . S
H836 C822 0.960 . S
H837 C823 0.961 . S
H838 C823 0.961 . S
H839 C823 0.961 . S
H840 C824 0.931 . S
H841 C829 0.930 . S
H842 C830 0.956 . S
H843 C830 0.961 . S
H844 C830 0.961 . S
H845 C831 0.958 . S
H846 C831 0.961 . S
H847 C831 0.960 . S
C848 C849 1.391 . S
C848 C850 1.394 . S
C848 H864 0.931 . S
C849 C848 1.391 . S
C849 C853 1.376 . S
C850 C848 1.394 . S
C850 C851 1.369 . S
C850 C854 1.531 . S
C851 C850 1.369 . S
C851 C852 1.410 . S
C851 C859 1.503 . S
C852 C851 1.410 . S
C852 C853 1.392 . S
C852 C855 1.511 . S
C853 C849 1.376 . S
C853 C852 1.392 . S
C853 H865 0.929 . S
C854 C850 1.531 . S
C854 H866 0.960 . S
C854 H867 0.962 . S
C854 H868 0.960 . S
C855 C852 1.511 . S
C855 H869 0.961 . S
C855 H870 0.961 . S
C855 H871 0.961 . S
C856 C857 1.370 . S
C856 C858 1.363 . S
C856 H872 0.931 . S
C857 C856 1.370 . S
C857 C861 1.408 . S
C858 C856 1.363 . S
C858 C859 1.370 . S
C858 C862 1.524 . S
C859 C851 1.503 . S
C859 C858 1.370 . S
C859 C860 1.403 . S
C860 C859 1.403 . S
C860 C861 1.404 . S
C860 C863 1.539 . S
C861 C857 1.408 . S
C861 C860 1.404 . S
C861 H873 0.930 . S
C862 C858 1.524 . S
C862 H874 0.956 . S
C862 H875 0.961 . S
C862 H876 0.961 . S
C863 C860 1.539 . S
C863 H877 0.958 . S
C863 H878 0.961 . S
C863 H879 0.960 . S
H864 C848 0.931 . S
H865 C853 0.929 . S
H866 C854 0.960 . S
H867 C854 0.962 . S
H868 C854 0.960 . S
H869 C855 0.961 . S
H870 C855 0.961 . S
H871 C855 0.961 . S
H872 C856 0.931 . S
H873 C861 0.930 . S
H874 C862 0.956 . S
H875 C862 0.961 . S
H876 C862 0.961 . S
H877 C863 0.958 . S
H878 C863 0.961 . S
H879 C863 0.960 . S
C880 C881 1.391 . S
C880 C882 1.394 . S
C880 H896 0.931 . S
C881 C880 1.391 . S
C881 C885 1.376 . S
C882 C880 1.394 . S
C882 C883 1.369 . S
C882 C886 1.531 . S
C883 C882 1.369 . S
C883 C884 1.410 . S
C883 C891 1.503 . S
C884 C883 1.410 . S
C884 C885 1.392 . S
C884 C887 1.511 . S
C885 C881 1.376 . S
C885 C884 1.392 . S
C885 H897 0.929 . S
C886 C882 1.531 . S
C886 H898 0.960 . S
C886 H899 0.962 . S
C886 H900 0.960 . S
C887 C884 1.511 . S
C887 H901 0.961 . S
C887 H902 0.961 . S
C887 H903 0.961 . S
C888 C889 1.370 . S
C888 C890 1.363 . S
C888 H904 0.931 . S
C889 C888 1.370 . S
C889 C893 1.408 . S
C890 C888 1.363 . S
C890 C891 1.370 . S
C890 C894 1.524 . S
C891 C883 1.503 . S
C891 C890 1.370 . S
C891 C892 1.403 . S
C892 C891 1.403 . S
C892 C893 1.404 . S
C892 C895 1.539 . S
C893 C889 1.408 . S
C893 C892 1.404 . S
C893 H905 0.930 . S
C894 C890 1.524 . S
C894 H906 0.956 . S
C894 H907 0.961 . S
C894 H908 0.961 . S
C895 C892 1.539 . S
C895 H909 0.958 . S
C895 H910 0.961 . S
C895 H911 0.960 . S
H896 C880 0.931 . S
H897 C885 0.929 . S
H898 C886 0.960 . S
H899 C886 0.962 . S
H900 C886 0.960 . S
H901 C887 0.961 . S
H902 C887 0.961 . S
H903 C887 0.961 . S
H904 C888 0.931 . S
H905 C893 0.930 . S
H906 C894 0.956 . S
H907 C894 0.961 . S
H908 C894 0.961 . S
H909 C895 0.958 . S
H910 C895 0.961 . S
H911 C895 0.960 . S
C912 C913 1.391 . S
C912 C914 1.394 . S
C912 H928 0.931 . S
C913 C912 1.391 . S
C913 C917 1.376 . S
C914 C912 1.394 . S
C914 C915 1.369 . S
C914 C918 1.531 . S
C915 C914 1.369 . S
C915 C916 1.410 . S
C915 C923 1.503 . S
C916 C915 1.410 . S
C916 C917 1.392 . S
C916 C919 1.511 . S
C917 C913 1.376 . S
C917 C916 1.392 . S
C917 H929 0.929 . S
C918 C914 1.531 . S
C918 H930 0.960 . S
C918 H931 0.962 . S
C918 H932 0.960 . S
C919 C916 1.511 . S
C919 H933 0.961 . S
C919 H934 0.961 . S
C919 H935 0.961 . S
C920 C921 1.370 . S
C920 C922 1.363 . S
C920 H936 0.931 . S
C921 C920 1.370 . S
C921 C925 1.408 . S
C922 C920 1.363 . S
C922 C923 1.370 . S
C922 C926 1.524 . S
C923 C915 1.503 . S
C923 C922 1.370 . S
C923 C924 1.403 . S
C924 C923 1.403 . S
C924 C925 1.404 . S
C924 C927 1.539 . S
C925 C921 1.408 . S
C925 C924 1.404 . S
C925 H937 0.930 . S
C926 C922 1.524 . S
C926 H938 0.956 . S
C926 H939 0.961 . S
C926 H940 0.961 . S
C927 C924 1.539 . S
C927 H941 0.958 . S
C927 H942 0.961 . S
C927 H943 0.960 . S
H928 C912 0.931 . S
H929 C917 0.929 . S
H930 C918 0.960 . S
H931 C918 0.962 . S
H932 C918 0.960 . S
H933 C919 0.961 . S
H934 C919 0.961 . S
H935 C919 0.961 . S
H936 C920 0.931 . S
H937 C925 0.930 . S
H938 C926 0.956 . S
H939 C926 0.961 . S
H940 C926 0.961 . S
H941 C927 0.958 . S
H942 C927 0.961 . S
H943 C927 0.960 . S
C944 C945 1.391 . S
C944 C946 1.394 . S
C944 H960 0.931 . S
C945 C944 1.391 . S
C945 C949 1.376 . S
C946 C944 1.394 . S
C946 C947 1.369 . S
C946 C950 1.531 . S
C947 C946 1.369 . S
C947 C948 1.410 . S
C947 C955 1.503 . S
C948 C947 1.410 . S
C948 C949 1.392 . S
C948 C951 1.511 . S
C949 C945 1.376 . S
C949 C948 1.392 . S
C949 H961 0.929 . S
C950 C946 1.531 . S
C950 H962 0.960 . S
C950 H963 0.962 . S
C950 H964 0.960 . S
C951 C948 1.511 . S
C951 H965 0.961 . S
C951 H966 0.961 . S
C951 H967 0.961 . S
C952 C953 1.370 . S
C952 C954 1.363 . S
C952 H968 0.931 . S
C953 C952 1.370 . S
C953 C957 1.408 . S
C954 C952 1.363 . S
C954 C955 1.370 . S
C954 C958 1.524 . S
C955 C947 1.503 . S
C955 C954 1.370 . S
C955 C956 1.403 . S
C956 C955 1.403 . S
C956 C957 1.404 . S
C956 C959 1.539 . S
C957 C953 1.408 . S
C957 C956 1.404 . S
C957 H969 0.930 . S
C958 C954 1.524 . S
C958 H970 0.956 . S
C958 H971 0.961 . S
C958 H972 0.961 . S
C959 C956 1.539 . S
C959 H973 0.958 . S
C959 H974 0.961 . S
C959 H975 0.960 . S
H960 C944 0.931 . S
H961 C949 0.929 . S
H962 C950 0.960 . S
H963 C950 0.962 . S
H964 C950 0.960 . S
H965 C951 0.961 . S
H966 C951 0.961 . S
H967 C951 0.961 . S
H968 C952 0.931 . S
H969 C957 0.930 . S
H970 C958 0.956 . S
H971 C958 0.961 . S
H972 C958 0.961 . S
H973 C959 0.958 . S
H974 C959 0.961 . S
H975 C959 0.960 . S
C976 C977 1.391 . S
C976 C978 1.394 . S
C976 H992 0.931 . S
C977 C976 1.391 . S
C977 C981 1.376 . S
C978 C976 1.394 . S
C978 C979 1.369 . S
C978 C982 1.531 . S
C979 C978 1.369 . S
C979 C980 1.410 . S
C979 C987 1.503 . S
C980 C979 1.410 . S
C980 C981 1.392 . S
C980 C983 1.511 . S
C981 C977 1.376 . S
C981 C980 1.392 . S
C981 H993 0.929 . S
C982 C978 1.531 . S
C982 H994 0.960 . S
C982 H995 0.962 . S
C982 H996 0.960 . S
C983 C980 1.511 . S
C983 H997 0.961 . S
C983 H998 0.961 . S
C983 H999 0.961 . S
C984 C985 1.370 . S
C984 C986 1.363 . S
C984 H1000 0.931 . S
C985 C984 1.370 . S
C985 C989 1.408 . S
C986 C984 1.363 . S
C986 C987 1.370 . S
C986 C990 1.524 . S
C987 C979 1.503 . S
C987 C986 1.370 . S
C987 C988 1.403 . S
C988 C987 1.403 . S
C988 C989 1.404 . S
C988 C991 1.539 . S
C989 C985 1.408 . S
C989 C988 1.404 . S
C989 H1001 0.930 . S
C990 C986 1.524 . S
C990 H1002 0.956 . S
C990 H1003 0.961 . S
C990 H1004 0.961 . S
C991 C988 1.539 . S
C991 H1005 0.958 . S
C991 H1006 0.961 . S
C991 H1007 0.960 . S
H992 C976 0.931 . S
H993 C981 0.929 . S
H994 C982 0.960 . S
H995 C982 0.962 . S
H996 C982 0.960 . S
H997 C983 0.961 . S
H998 C983 0.961 . S
H999 C983 0.961 . S
H1000 C984 0.931 . S
H1001 C989 0.930 . S
H1002 C990 0.956 . S
H1003 C990 0.961 . S
H1004 C990 0.961 . S
H1005 C991 0.958 . S
H1006 C991 0.961 . S
H1007 C991 0.960 . S
C1008 C1009 1.391 . S
C1008 C1010 1.394 . S
C1008 H1024 0.931 . S
C1009 C1008 1.391 . S
C1009 C1013 1.376 . S
C1010 C1008 1.394 . S
C1010 C1011 1.369 . S
C1010 C1014 1.531 . S
C1011 C1010 1.369 . S
C1011 C1012 1.410 . S
C1011 C1019 1.503 . S
C1012 C1011 1.410 . S
C1012 C1013 1.392 . S
C1012 C1015 1.511 . S
C1013 C1009 1.376 . S
C1013 C1012 1.392 . S
C1013 H1025 0.929 . S
C1014 C1010 1.531 . S
C1014 H1026 0.960 . S
C1014 H1027 0.962 . S
C1014 H1028 0.960 . S
C1015 C1012 1.511 . S
C1015 H1029 0.961 . S
C1015 H1030 0.961 . S
C1015 H1031 0.961 . S
C1016 C1017 1.370 . S
C1016 C1018 1.363 . S
C1016 H1032 0.931 . S
C1017 C1016 1.370 . S
C1017 C1021 1.408 . S
C1018 C1016 1.363 . S
C1018 C1019 1.370 . S
C1018 C1022 1.524 . S
C1019 C1011 1.503 . S
C1019 C1018 1.370 . S
C1019 C1020 1.403 . S
C1020 C1019 1.403 . S
C1020 C1021 1.404 . S
C1020 C1023 1.539 . S
C1021 C1017 1.408 . S
C1021 C1020 1.404 . S
C1021 H1033 0.930 . S
C1022 C1018 1.524 . S
C1022 H1034 0.956 . S
C1022 H1035 0.961 . S
C1022 H1036 0.961 . S
C1023 C1020 1.539 . S
C1023 H1037 0.958 . S
C1023 H1038 0.961 . S
C1023 H1039 0.960 . S
H1024 C1008 0.931 . S
H1025 C1013 0.929 . S
H1026 C1014 0.960 . S
H1027 C1014 0.962 . S
H1028 C1014 0.960 . S
H1029 C1015 0.961 . S
H1030 C1015 0.961 . S
H1031 C1015 0.961 . S
H1032 C1016 0.931 . S
H1033 C1021 0.930 . S
H1034 C1022 0.956 . S
H1035 C1022 0.961 . S
H1036 C1022 0.961 . S
H1037 C1023 0.958 . S
H1038 C1023 0.961 . S
H1039 C1023 0.960 . S
C1040 C1041 1.391 . S
C1040 C1042 1.394 . S
C1040 H1056 0.931 . S
C1041 C1040 1.391 . S
C1041 C1045 1.376 . S
C1042 C1040 1.394 . S
C1042 C1043 1.369 . S
C1042 C1046 1.531 . S
C1043 C1042 1.369 . S
C1043 C1044 1.410 . S
C1043 C1051 1.503 . S
C1044 C1043 1.410 . S
C1044 C1045 1.392 . S
C1044 C1047 1.511 . S
C1045 C1041 1.376 . S
C1045 C1044 1.392 . S
C1045 H1057 0.929 . S
C1046 C1042 1.531 . S
C1046 H1058 0.960 . S
C1046 H1059 0.962 . S
C1046 H1060 0.960 . S
C1047 C1044 1.511 . S
C1047 H1061 0.961 . S
C1047 H1062 0.961 . S
C1047 H1063 0.961 . S
C1048 C1049 1.370 . S
C1048 C1050 1.363 . S
C1048 H1064 0.931 . S
C1049 C1048 1.370 . S
C1049 C1053 1.408 . S
C1050 C1048 1.363 . S
C1050 C1051 1.370 . S
C1050 C1054 1.524 . S
C1051 C1043 1.503 . S
C1051 C1050 1.370 . S
C1051 C1052 1.403 . S
C1052 C1051 1.403 . S
C1052 C1053 1.404 . S
C1052 C1055 1.539 . S
C1053 C1049 1.408 . S
C1053 C1052 1.404 . S
C1053 H1065 0.930 . S
C1054 C1050 1.524 . S
C1054 H1066 0.956 . S
C1054 H1067 0.961 . S
C1054 H1068 0.961 . S
C1055 C1052 1.539 . S
C1055 H1069 0.958 . S
C1055 H1070 0.961 . S
C1055 H1071 0.960 . S
H1056 C1040 0.931 . S
H1057 C1045 0.929 . S
H1058 C1046 0.960 . S
H1059 C1046 0.962 . S
H1060 C1046 0.960 . S
H1061 C1047 0.961 . S
H1062 C1047 0.961 . S
H1063 C1047 0.961 . S
H1064 C1048 0.931 . S
H1065 C1053 0.930 . S
H1066 C1054 0.956 . S
H1067 C1054 0.961 . S
H1068 C1054 0.961 . S
H1069 C1055 0.958 . S
H1070 C1055 0.961 . S
H1071 C1055 0.960 . S
C1072 C1073 1.391 . S
C1072 C1074 1.394 . S
C1072 H1088 0.931 . S
C1073 C1072 1.391 . S
C1073 C1077 1.376 . S
C1074 C1072 1.394 . S
C1074 C1075 1.369 . S
C1074 C1078 1.531 . S
C1075 C1074 1.369 . S
C1075 C1076 1.410 . S
C1075 C1083 1.503 . S
C1076 C1075 1.410 . S
C1076 C1077 1.392 . S
C1076 C1079 1.511 . S
C1077 C1073 1.376 . S
C1077 C1076 1.392 . S
C1077 H1089 0.929 . S
C1078 C1074 1.531 . S
C1078 H1090 0.960 . S
C1078 H1091 0.962 . S
C1078 H1092 0.960 . S
C1079 C1076 1.511 . S
C1079 H1093 0.961 . S
C1079 H1094 0.961 . S
C1079 H1095 0.961 . S
C1080 C1081 1.370 . S
C1080 C1082 1.363 . S
C1080 H1096 0.931 . S
C1081 C1080 1.370 . S
C1081 C1085 1.408 . S
C1082 C1080 1.363 . S
C1082 C1083 1.370 . S
C1082 C1086 1.524 . S
C1083 C1075 1.503 . S
C1083 C1082 1.370 . S
C1083 C1084 1.403 . S
C1084 C1083 1.403 . S
C1084 C1085 1.404 . S
C1084 C1087 1.539 . S
C1085 C1081 1.408 . S
C1085 C1084 1.404 . S
C1085 H1097 0.930 . S
C1086 C1082 1.524 . S
C1086 H1098 0.956 . S
C1086 H1099 0.961 . S
C1086 H1100 0.961 . S
C1087 C1084 1.539 . S
C1087 H1101 0.958 . S
C1087 H1102 0.961 . S
C1087 H1103 0.960 . S
H1088 C1072 0.931 . S
H1089 C1077 0.929 . S
H1090 C1078 0.960 . S
H1091 C1078 0.962 . S
H1092 C1078 0.960 . S
H1093 C1079 0.961 . S
H1094 C1079 0.961 . S
H1095 C1079 0.961 . S
H1096 C1080 0.931 . S
H1097 C1085 0.930 . S
H1098 C1086 0.956 . S
H1099 C1086 0.961 . S
H1100 C1086 0.961 . S
H1101 C1087 0.958 . S
H1102 C1087 0.961 . S
H1103 C1087 0.960 . S
C1104 C1105 1.391 . S
C1104 C1106 1.394 . S
C1104 H1120 0.931 . S
C1105 C1104 1.391 . S
C1105 C1109 1.376 . S
C1106 C1104 1.394 . S
C1106 C1107 1.369 . S
C1106 C1110 1.531 . S
C1107 C1106 1.369 . S
C1107 C1108 1.410 . S
C1107 C1115 1.503 . S
C1108 C1107 1.410 . S
C1108 C1109 1.392 . S
C1108 C1111 1.511 . S
C1109 C1105 1.376 . S
C1109 C1108 1.392 . S
C1109 H1121 0.929 . S
C1110 C1106 1.531 . S
C1110 H1122 0.960 . S
C1110 H1123 0.962 . S
C1110 H1124 0.960 . S
C1111 C1108 1.511 . S
C1111 H1125 0.961 . S
C1111 H1126 0.961 . S
C1111 H1127 0.961 . S
C1112 C1113 1.370 . S
C1112 C1114 1.363 . S
C1112 H1128 0.931 . S
C1113 C1112 1.370 . S
C1113 C1117 1.408 . S
C1114 C1112 1.363 . S
C1114 C1115 1.370 . S
C1114 C1118 1.524 . S
C1115 C1107 1.503 . S
C1115 C1114 1.370 . S
C1115 C1116 1.403 . S
C1116 C1115 1.403 . S
C1116 C1117 1.404 . S
C1116 C1119 1.539 . S
C1117 C1113 1.408 . S
C1117 C1116 1.404 . S
C1117 H1129 0.930 . S
C1118 C1114 1.524 . S
C1118 H1130 0.956 . S
C1118 H1131 0.961 . S
C1118 H1132 0.961 . S
C1119 C1116 1.539 . S
C1119 H1133 0.958 . S
C1119 H1134 0.961 . S
C1119 H1135 0.960 . S
H1120 C1104 0.931 . S
H1121 C1109 0.929 . S
H1122 C1110 0.960 . S
H1123 C1110 0.962 . S
H1124 C1110 0.960 . S
H1125 C1111 0.961 . S
H1126 C1111 0.961 . S
H1127 C1111 0.961 . S
H1128 C1112 0.931 . S
H1129 C1117 0.930 . S
H1130 C1118 0.956 . S
H1131 C1118 0.961 . S
H1132 C1118 0.961 . S
H1133 C1119 0.958 . S
H1134 C1119 0.961 . S
H1135 C1119 0.960 . S
C1136 C1137 1.391 . S
C1136 C1138 1.394 . S
C1136 H1152 0.931 . S
C1137 C1136 1.391 . S
C1137 C1141 1.376 . S
C1138 C1136 1.394 . S
C1138 C1139 1.369 . S
C1138 C1142 1.531 . S
C1139 C1138 1.369 . S
C1139 C1140 1.410 . S
C1139 C1147 1.503 . S
C1140 C1139 1.410 . S
C1140 C1141 1.392 . S
C1140 C1143 1.511 . S
C1141 C1137 1.376 . S
C1141 C1140 1.392 . S
C1141 H1153 0.929 . S
C1142 C1138 1.531 . S
C1142 H1154 0.960 . S
C1142 H1155 0.962 . S
C1142 H1156 0.960 . S
C1143 C1140 1.511 . S
C1143 H1157 0.961 . S
C1143 H1158 0.961 . S
C1143 H1159 0.961 . S
C1144 C1145 1.370 . S
C1144 C1146 1.363 . S
C1144 H1160 0.931 . S
C1145 C1144 1.370 . S
C1145 C1149 1.408 . S
C1146 C1144 1.363 . S
C1146 C1147 1.370 . S
C1146 C1150 1.524 . S
C1147 C1139 1.503 . S
C1147 C1146 1.370 . S
C1147 C1148 1.403 . S
C1148 C1147 1.403 . S
C1148 C1149 1.404 . S
C1148 C1151 1.539 . S
C1149 C1145 1.408 . S
C1149 C1148 1.404 . S
C1149 H1161 0.930 . S
C1150 C1146 1.524 . S
C1150 H1162 0.956 . S
C1150 H1163 0.961 . S
C1150 H1164 0.961 . S
C1151 C1148 1.539 . S
C1151 H1165 0.958 . S
C1151 H1166 0.961 . S
C1151 H1167 0.960 . S
H1152 C1136 0.931 . S
H1153 C1141 0.929 . S
H1154 C1142 0.960 . S
H1155 C1142 0.962 . S
H1156 C1142 0.960 . S
H1157 C1143 0.961 . S
H1158 C1143 0.961 . S
H1159 C1143 0.961 . S
H1160 C1144 0.931 . S
H1161 C1149 0.930 . S
H1162 C1150 0.956 . S
H1163 C1150 0.961 . S
H1164 C1150 0.961 . S
H1165 C1151 0.958 . S
H1166 C1151 0.961 . S
H1167 C1151 0.960 . S
C1168 C1169 1.391 . S
C1168 C1170 1.394 . S
C1168 H1184 0.931 . S
C1169 C1168 1.391 . S
C1169 C1173 1.376 . S
C1170 C1168 1.394 . S
C1170 C1171 1.369 . S
C1170 C1174 1.531 . S
C1171 C1170 1.369 . S
C1171 C1172 1.410 . S
C1171 C1179 1.503 . S
C1172 C1171 1.410 . S
C1172 C1173 1.392 . S
C1172 C1175 1.511 . S
C1173 C1169 1.376 . S
C1173 C1172 1.392 . S
C1173 H1185 0.929 . S
C1174 C1170 1.531 . S
C1174 H1186 0.960 . S
C1174 H1187 0.962 . S
C1174 H1188 0.960 . S
C1175 C1172 1.511 . S
C1175 H1189 0.961 . S
C1175 H1190 0.961 . S
C1175 H1191 0.961 . S
C1176 C1177 1.370 . S
C1176 C1178 1.363 . S
C1176 H1192 0.931 . S
C1177 C1176 1.370 . S
C1177 C1181 1.408 . S
C1178 C1176 1.363 . S
C1178 C1179 1.370 . S
C1178 C1182 1.524 . S
C1179 C1171 1.503 . S
C1179 C1178 1.370 . S
C1179 C1180 1.403 . S
C1180 C1179 1.403 . S
C1180 C1181 1.404 . S
C1180 C1183 1.539 . S
C1181 C1177 1.408 . S
C1181 C1180 1.404 . S
C1181 H1193 0.930 . S
C1182 C1178 1.524 . S
C1182 H1194 0.956 . S
C1182 H1195 0.961 . S
C1182 H1196 0.961 . S
C1183 C1180 1.539 . S
C1183 H1197 0.958 . S
C1183 H1198 0.961 . S
C1183 H1199 0.960 . S
H1184 C1168 0.931 . S
H1185 C1173 0.929 . S
H1186 C1174 0.960 . S
H1187 C1174 0.962 . S
H1188 C1174 0.960 . S
H1189 C1175 0.961 . S
H1190 C1175 0.961 . S
H1191 C1175 0.961 . S
H1192 C1176 0.931 . S
H1193 C1181 0.930 . S
H1194 C1182 0.956 . S
H1195 C1182 0.961 . S
H1196 C1182 0.961 . S
H1197 C1183 0.958 . S
H1198 C1183 0.961 . S
H1199 C1183 0.960 . S
C1200 C1201 1.391 . S
C1200 C1202 1.394 . S
C1200 H1216 0.931 . S
C1201 C1200 1.391 . S
C1201 C1205 1.376 . S
C1202 C1200 1.394 . S
C1202 C1203 1.369 . S
C1202 C1206 1.531 . S
C1203 C1202 1.369 . S
C1203 C1204 1.410 . S
C1203 C1211 1.503 . S
C1204 C1203 1.410 . S
C1204 C1205 1.392 . S
C1204 C1207 1.511 . S
C1205 C1201 1.376 . S
C1205 C1204 1.392 . S
C1205 H1217 0.929 . S
C1206 C1202 1.531 . S
C1206 H1218 0.960 . S
C1206 H1219 0.962 . S
C1206 H1220 0.960 . S
C1207 C1204 1.511 . S
C1207 H1221 0.961 . S
C1207 H1222 0.961 . S
C1207 H1223 0.961 . S
C1208 C1209 1.370 . S
C1208 C1210 1.363 . S
C1208 H1224 0.931 . S
C1209 C1208 1.370 . S
C1209 C1213 1.408 . S
C1210 C1208 1.363 . S
C1210 C1211 1.370 . S
C1210 C1214 1.524 . S
C1211 C1203 1.503 . S
C1211 C1210 1.370 . S
C1211 C1212 1.403 . S
C1212 C1211 1.403 . S
C1212 C1213 1.404 . S
C1212 C1215 1.539 . S
C1213 C1209 1.408 . S
C1213 C1212 1.404 . S
C1213 H1225 0.930 . S
C1214 C1210 1.524 . S
C1214 H1226 0.956 . S
C1214 H1227 0.961 . S
C1214 H1228 0.961 . S
C1215 C1212 1.539 . S
C1215 H1229 0.958 . S
C1215 H1230 0.961 . S
C1215 H1231 0.960 . S
H1216 C1200 0.931 . S
H1217 C1205 0.929 . S
H1218 C1206 0.960 . S
H1219 C1206 0.962 . S
H1220 C1206 0.960 . S
H1221 C1207 0.961 . S
H1222 C1207 0.961 . S
H1223 C1207 0.961 . S
H1224 C1208 0.931 . S
H1225 C1213 0.930 . S
H1226 C1214 0.956 . S
H1227 C1214 0.961 . S
H1228 C1214 0.961 . S
H1229 C1215 0.958 . S
H1230 C1215 0.961 . S
H1231 C1215 0.960 . S
C1232 C1233 1.391 . S
C1232 C1234 1.394 . S
C1232 H1248 0.931 . S
C1233 C1232 1.391 . S
C1233 C1237 1.376 . S
C1234 C1232 1.394 . S
C1234 C1235 1.369 . S
C1234 C1238 1.531 . S
C1235 C1234 1.369 . S
C1235 C1236 1.410 . S
C1235 C1243 1.503 . S
C1236 C1235 1.410 . S
C1236 C1237 1.392 . S
C1236 C1239 1.511 . S
C1237 C1233 1.376 . S
C1237 C1236 1.392 . S
C1237 H1249 0.929 . S
C1238 C1234 1.531 . S
C1238 H1250 0.960 . S
C1238 H1251 0.962 . S
C1238 H1252 0.960 . S
C1239 C1236 1.511 . S
C1239 H1253 0.961 . S
C1239 H1254 0.961 . S
C1239 H1255 0.961 . S
C1240 C1241 1.370 . S
C1240 C1242 1.363 . S
C1240 H1256 0.931 . S
C1241 C1240 1.370 . S
C1241 C1245 1.408 . S
C1242 C1240 1.363 . S
C1242 C1243 1.370 . S
C1242 C1246 1.524 . S
C1243 C1235 1.503 . S
C1243 C1242 1.370 . S
C1243 C1244 1.403 . S
C1244 C1243 1.403 . S
C1244 C1245 1.404 . S
C1244 C1247 1.539 . S
C1245 C1241 1.408 . S
C1245 C1244 1.404 . S
C1245 H1257 0.930 . S
C1246 C1242 1.524 . S
C1246 H1258 0.956 . S
C1246 H1259 0.961 . S
C1246 H1260 0.961 . S
C1247 C1244 1.539 . S
C1247 H1261 0.958 . S
C1247 H1262 0.961 . S
C1247 H1263 0.960 . S
H1248 C1232 0.931 . S
H1249 C1237 0.929 . S
H1250 C1238 0.960 . S
H1251 C1238 0.962 . S
H1252 C1238 0.960 . S
H1253 C1239 0.961 . S
H1254 C1239 0.961 . S
H1255 C1239 0.961 . S
H1256 C1240 0.931 . S
H1257 C1245 0.930 . S
H1258 C1246 0.956 . S
H1259 C1246 0.961 . S
H1260 C1246 0.961 . S
H1261 C1247 0.958 . S
H1262 C1247 0.961 . S
H1263 C1247 0.960 . S
C1264 C1265 1.391 . S
C1264 C1266 1.394 . S
C1264 H1280 0.931 . S
C1265 C1264 1.391 . S
C1265 C1269 1.376 . S
C1266 C1264 1.394 . S
C1266 C1267 1.369 . S
C1266 C1270 1.531 . S
C1267 C1266 1.369 . S
C1267 C1268 1.410 . S
C1267 C1275 1.503 . S
C1268 C1267 1.410 . S
C1268 C1269 1.392 . S
C1268 C1271 1.511 . S
C1269 C1265 1.376 . S
C1269 C1268 1.392 . S
C1269 H1281 0.929 . S
C1270 C1266 1.531 . S
C1270 H1282 0.960 . S
C1270 H1283 0.962 . S
C1270 H1284 0.960 . S
C1271 C1268 1.511 . S
C1271 H1285 0.961 . S
C1271 H1286 0.961 . S
C1271 H1287 0.961 . S
C1272 C1273 1.370 . S
C1272 C1274 1.363 . S
C1272 H1288 0.931 . S
C1273 C1272 1.370 . S
C1273 C1277 1.408 . S
C1274 C1272 1.363 . S
C1274 C1275 1.370 . S
C1274 C1278 1.524 . S
C1275 C1267 1.503 . S
C1275 C1274 1.370 . S
C1275 C1276 1.403 . S
C1276 C1275 1.403 . S
C1276 C1277 1.404 . S
C1276 C1279 1.539 . S
C1277 C1273 1.408 . S
C1277 C1276 1.404 . S
C1277 H1289 0.930 . S
C1278 C1274 1.524 . S
C1278 H1290 0.956 . S
C1278 H1291 0.961 . S
C1278 H1292 0.961 . S
C1279 C1276 1.539 . S
C1279 H1293 0.958 . S
C1279 H1294 0.961 . S
C1279 H1295 0.960 . S
H1280 C1264 0.931 . S
H1281 C1269 0.929 . S
H1282 C1270 0.960 . S
H1283 C1270 0.962 . S
H1284 C1270 0.960 . S
H1285 C1271 0.961 . S
H1286 C1271 0.961 . S
H1287 C1271 0.961 . S
H1288 C1272 0.931 . S
H1289 C1277 0.930 . S
H1290 C1278 0.956 . S
H1291 C1278 0.961 . S
H1292 C1278 0.961 . S
H1293 C1279 0.958 . S
H1294 C1279 0.961 . S
H1295 C1279 0.960 . S
C1296 C1297 1.391 . S
C1296 C1298 1.394 . S
C1296 H1312 0.931 . S
C1297 C1296 1.391 . S
C1297 C1301 1.376 . S
C1298 C1296 1.394 . S
C1298 C1299 1.369 . S
C1298 C1302 1.531 1_545 S
C1299 C1298 1.369 . S
C1299 C1300 1.410 . S
C1299 C1307 1.503 1_445 S
C1300 C1299 1.410 . S
C1300 C1301 1.392 . S
C1300 C1303 1.511 1_455 S
C1301 C1297 1.376 . S
C1301 C1300 1.392 . S
C1301 H1313 0.929 . S
C1302 C1298 1.531 1_565 S
C1302 H1314 0.960 . S
C1302 H1315 0.962 . S
C1302 H1316 0.960 . S
C1303 C1300 1.511 1_655 S
C1303 H1317 0.961 . S
C1303 H1318 0.961 . S
C1303 H1319 0.961 . S
C1304 C1305 1.370 . S
C1304 C1306 1.363 . S
C1304 H1320 0.931 . S
C1305 C1304 1.370 . S
C1305 C1309 1.408 . S
C1306 C1304 1.363 . S
C1306 C1307 1.370 . S
C1306 C1310 1.524 . S
C1307 C1299 1.503 1_665 S
C1307 C1306 1.370 . S
C1307 C1308 1.403 . S
C1308 C1307 1.403 . S
C1308 C1309 1.404 . S
C1308 C1311 1.539 . S
C1309 C1305 1.408 . S
C1309 C1308 1.404 . S
C1309 H1321 0.930 . S
C1310 C1306 1.524 . S
C1310 H1322 0.956 1_655 S
C1310 H1323 0.961 1_565 S
C1310 H1324 0.961 . S
C1311 C1308 1.539 . S
C1311 H1325 0.958 1_655 S
C1311 H1326 0.961 . S
C1311 H1327 0.960 1_565 S
H1312 C1296 0.931 . S
H1313 C1301 0.929 . S
H1314 C1302 0.960 . S
H1315 C1302 0.962 . S
H1316 C1302 0.960 . S
H1317 C1303 0.961 . S
H1318 C1303 0.961 . S
H1319 C1303 0.961 . S
H1320 C1304 0.931 . S
H1321 C1309 0.930 . S
H1322 C1310 0.956 1_455 S
H1323 C1310 0.961 1_545 S
H1324 C1310 0.961 . S
H1325 C1311 0.958 1_455 S
H1326 C1311 0.961 . S
H1327 C1311 0.960 1_545 S
C1328 C1329 1.391 . S
C1328 C1330 1.394 . S
C1328 H1344 0.931 . S
C1329 C1328 1.391 . S
C1329 C1333 1.376 . S
C1330 C1328 1.394 . S
C1330 C1331 1.369 . S
C1330 C1334 1.531 1_455 S
C1331 C1330 1.369 . S
C1331 C1332 1.410 . S
C1331 C1339 1.503 1_455 S
C1332 C1331 1.410 . S
C1332 C1333 1.392 . S
C1332 C1335 1.511 . S
C1333 C1329 1.376 . S
C1333 C1332 1.392 . S
C1333 H1345 0.929 . S
C1334 C1330 1.531 1_655 S
C1334 H1346 0.960 . S
C1334 H1347 0.962 . S
C1334 H1348 0.960 . S
C1335 C1332 1.511 . S
C1335 H1349 0.961 . S
C1335 H1350 0.961 . S
C1335 H1351 0.961 . S
C1336 C1337 1.370 . S
C1336 C1338 1.363 . S
C1336 H1352 0.931 . S
C1337 C1336 1.370 . S
C1337 C1341 1.408 . S
C1338 C1336 1.363 . S
C1338 C1339 1.370 . S
C1338 C1342 1.524 . S
C1339 C1331 1.503 1_655 S
C1339 C1338 1.370 . S
C1339 C1340 1.403 . S
C1340 C1339 1.403 . S
C1340 C1341 1.404 . S
C1340 C1343 1.539 1_655 S
C1341 C1337 1.408 . S
C1341 C1340 1.404 . S
C1341 H1353 0.930 . S
C1342 C1338 1.524 . S
C1342 H1354 0.956 . S
C1342 H1355 0.961 . S
C1342 H1356 0.961 . S
C1343 C1340 1.539 1_455 S
C1343 H1357 0.958 . S
C1343 H1358 0.961 . S
C1343 H1359 0.960 . S
H1344 C1328 0.931 . S
H1345 C1333 0.929 . S
H1346 C1334 0.960 . S
H1347 C1334 0.962 . S
H1348 C1334 0.960 . S
H1349 C1335 0.961 . S
H1350 C1335 0.961 . S
H1351 C1335 0.961 . S
H1352 C1336 0.931 . S
H1353 C1341 0.930 . S
H1354 C1342 0.956 . S
H1355 C1342 0.961 . S
H1356 C1342 0.961 . S
H1357 C1343 0.958 . S
H1358 C1343 0.961 . S
H1359 C1343 0.960 . S
C1360 C1361 1.391 . S
C1360 C1362 1.394 . S
C1360 H1376 0.931 . S
C1361 C1360 1.391 . S
C1361 C1365 1.376 . S
C1362 C1360 1.394 . S
C1362 C1363 1.369 . S
C1362 C1366 1.531 . S
C1363 C1362 1.369 . S
C1363 C1364 1.410 . S
C1363 C1371 1.503 . S
C1364 C1363 1.410 . S
C1364 C1365 1.392 . S
C1364 C1367 1.511 . S
C1365 C1361 1.376 . S
C1365 C1364 1.392 . S
C1365 H1377 0.929 . S
C1366 C1362 1.531 . S
C1366 H1378 0.960 . S
C1366 H1379 0.962 . S
C1366 H1380 0.960 . S
C1367 C1364 1.511 . S
C1367 H1381 0.961 . S
C1367 H1382 0.961 . S
C1367 H1383 0.961 . S
C1368 C1369 1.370 . S
C1368 C1370 1.363 . S
C1368 H1384 0.931 . S
C1369 C1368 1.370 . S
C1369 C1373 1.408 . S
C1370 C1368 1.363 . S
C1370 C1371 1.370 . S
C1370 C1374 1.524 . S
C1371 C1363 1.503 . S
C1371 C1370 1.370 . S
C1371 C1372 1.403 . S
C1372 C1371 1.403 . S
C1372 C1373 1.404 . S
C1372 C1375 1.539 . S
C1373 C1369 1.408 . S
C1373 C1372 1.404 . S
C1373 H1385 0.930 . S
C1374 C1370 1.524 . S
C1374 H1386 0.956 . S
C1374 H1387 0.961 . S
C1374 H1388 0.961 . S
C1375 C1372 1.539 . S
C1375 H1389 0.958 . S
C1375 H1390 0.961 . S
C1375 H1391 0.960 . S
H1376 C1360 0.931 . S
H1377 C1365 0.929 . S
H1378 C1366 0.960 . S
H1379 C1366 0.962 . S
H1380 C1366 0.960 . S
H1381 C1367 0.961 . S
H1382 C1367 0.961 . S
H1383 C1367 0.961 . S
H1384 C1368 0.931 . S
H1385 C1373 0.930 . S
H1386 C1374 0.956 . S
H1387 C1374 0.961 . S
H1388 C1374 0.961 . S
H1389 C1375 0.958 . S
H1390 C1375 0.961 . S
H1391 C1375 0.960 . S
C1392 C1393 1.391 . S
C1392 C1394 1.394 . S
C1392 H1408 0.931 . S
C1393 C1392 1.391 . S
C1393 C1397 1.376 . S
C1394 C1392 1.394 . S
C1394 C1395 1.369 . S
C1394 C1398 1.531 . S
C1395 C1394 1.369 . S
C1395 C1396 1.410 . S
C1395 C1403 1.503 1_545 S
C1396 C1395 1.410 . S
C1396 C1397 1.392 . S
C1396 C1399 1.511 1_545 S
C1397 C1393 1.376 . S
C1397 C1396 1.392 . S
C1397 H1409 0.929 . S
C1398 C1394 1.531 . S
C1398 H1410 0.960 . S
C1398 H1411 0.962 . S
C1398 H1412 0.960 . S
C1399 C1396 1.511 1_565 S
C1399 H1413 0.961 1_554 S
C1399 H1414 0.961 . S
C1399 H1415 0.961 . S
C1400 C1401 1.370 . S
C1400 C1402 1.363 . S
C1400 H1416 0.931 . S
C1401 C1400 1.370 . S
C1401 C1405 1.408 . S
C1402 C1400 1.363 . S
C1402 C1403 1.370 . S
C1402 C1406 1.524 1_565 S
C1403 C1395 1.503 1_565 S
C1403 C1402 1.370 . S
C1403 C1404 1.403 . S
C1404 C1403 1.403 . S
C1404 C1405 1.404 . S
C1404 C1407 1.539 . S
C1405 C1401 1.408 . S
C1405 C1404 1.404 . S
C1405 H1417 0.930 . S
C1406 C1402 1.524 1_545 S
C1406 H1418 0.956 . S
C1406 H1419 0.961 . S
C1406 H1420 0.961 . S
C1407 C1404 1.539 . S
C1407 H1421 0.958 . S
C1407 H1422 0.961 . S
C1407 H1423 0.960 . S
H1408 C1392 0.931 . S
H1409 C1397 0.929 . S
H1410 C1398 0.960 . S
H1411 C1398 0.962 . S
H1412 C1398 0.960 . S
H1413 C1399 0.961 1_556 S
H1414 C1399 0.961 . S
H1415 C1399 0.961 . S
H1416 C1400 0.931 . S
H1417 C1405 0.930 . S
H1418 C1406 0.956 . S
H1419 C1406 0.961 . S
H1420 C1406 0.961 . S
H1421 C1407 0.958 . S
H1422 C1407 0.961 . S
H1423 C1407 0.960 . S
C1424 C1425 1.391 . S
C1424 C1426 1.394 . S
C1424 H1440 0.931 . S
C1425 C1424 1.391 . S
C1425 C1429 1.376 . S
C1426 C1424 1.394 . S
C1426 C1427 1.369 . S
C1426 C1430 1.531 . S
C1427 C1426 1.369 . S
C1427 C1428 1.423 . S
C1427 C1435 1.503 1_455 S
C1428 C1427 1.423 . S
C1428 C1429 1.421 . S
C1428 C1431 1.471 1_455 S
C1429 C1425 1.376 . S
C1429 C1428 1.421 . S
C1429 H1441 0.929 . S
C1430 C1426 1.531 . S
C1430 H1442 0.960 . S
C1430 H1443 0.962 . S
C1430 H1444 0.960 . S
C1431 C1428 1.471 1_655 S
C1431 H1445 0.961 . S
C1431 H1446 0.961 . S
C1431 H1447 0.961 . S
C1432 C1433 1.370 . S
C1432 C1434 1.363 . S
C1432 H1448 0.931 . S
C1433 C1432 1.370 . S
C1433 C1437 1.408 . S
C1434 C1432 1.363 . S
C1434 C1435 1.370 . S
C1434 C1438 1.524 1_556 S
C1435 C1427 1.503 1_655 S
C1435 C1434 1.370 . S
C1435 C1436 1.403 . S
C1436 C1435 1.403 . S
C1436 C1437 1.404 . S
C1436 C1439 1.539 . S
C1437 C1433 1.408 . S
C1437 C1436 1.404 . S
C1437 H1449 0.930 . S
C1438 C1434 1.524 1_554 S
C1438 H1450 0.956 1_655 S
C1438 H1451 0.961 . S
C1438 H1452 0.961 . S
C1439 C1436 1.539 . S
C1439 H1453 0.967 . S
C1439 H1454 0.961 . S
C1439 H1455 0.960 . S
H1440 C1424 0.931 . S
H1441 C1429 0.929 . S
H1442 C1430 0.960 . S
H1443 C1430 0.962 . S
H1444 C1430 0.960 . S
H1445 C1431 0.961 . S
H1446 C1431 0.961 . S
H1447 C1431 0.961 . S
H1448 C1432 0.931 . S
H1449 C1437 0.930 . S
H1450 C1438 0.956 1_455 S
H1451 C1438 0.961 . S
H1452 C1438 0.961 . S
H1453 C1439 0.967 . S
H1454 C1439 0.961 . S
H1455 C1439 0.960 . S
C1456 C1457 1.391 . S
C1456 C1458 1.394 . S
C1456 H1472 0.931 . S
C1457 C1456 1.391 . S
C1457 C1461 1.376 . S
C1458 C1456 1.394 . S
C1458 C1459 1.369 . S
C1458 C1462 1.531 . S
C1459 C1458 1.369 . S
C1459 C1460 1.410 . S
C1459 C1467 1.503 . S
C1460 C1459 1.410 . S
C1460 C1461 1.392 . S
C1460 C1463 1.511 . S
C1461 C1457 1.376 . S
C1461 C1460 1.392 . S
C1461 H1473 0.929 . S
C1462 C1458 1.531 . S
C1462 H1474 0.960 . S
C1462 H1475 0.962 . S
C1462 H1476 0.960 . S
C1463 C1460 1.511 . S
C1463 H1477 0.961 . S
C1463 H1478 0.961 . S
C1463 H1479 0.961 . S
C1464 C1465 1.370 . S
C1464 C1466 1.363 . S
C1464 H1480 0.931 . S
C1465 C1464 1.370 . S
C1465 C1469 1.408 . S
C1466 C1464 1.363 . S
C1466 C1467 1.370 . S
C1466 C1470 1.524 . S
C1467 C1459 1.503 . S
C1467 C1466 1.370 . S
C1467 C1468 1.403 . S
C1468 C1467 1.403 . S
C1468 C1469 1.404 . S
C1468 C1471 1.539 . S
C1469 C1465 1.408 . S
C1469 C1468 1.404 . S
C1469 H1481 0.930 . S
C1470 C1466 1.524 . S
C1470 H1482 0.956 . S
C1470 H1483 0.961 . S
C1470 H1484 0.961 . S
C1471 C1468 1.539 . S
C1471 H1485 0.958 . S
C1471 H1486 0.961 . S
C1471 H1487 0.960 . S
H1472 C1456 0.931 . S
H1473 C1461 0.929 . S
H1474 C1462 0.960 . S
H1475 C1462 0.962 . S
H1476 C1462 0.960 . S
H1477 C1463 0.961 . S
H1478 C1463 0.961 . S
H1479 C1463 0.961 . S
H1480 C1464 0.931 . S
H1481 C1469 0.930 . S
H1482 C1470 0.956 . S
H1483 C1470 0.961 . S
H1484 C1470 0.961 . S
H1485 C1471 0.958 . S
H1486 C1471 0.961 . S
H1487 C1471 0.960 . S
C1488 C1489 1.391 . S
C1488 C1490 1.394 . S
C1488 H1504 0.931 . S
C1489 C1488 1.391 . S
C1489 C1493 1.376 . S
C1490 C1488 1.394 . S
C1490 C1491 1.369 . S
C1490 C1494 1.531 1_565 S
C1491 C1490 1.369 . S
C1491 C1492 1.410 . S
C1491 C1499 1.503 1_565 S
C1492 C1491 1.410 . S
C1492 C1493 1.392 . S
C1492 C1495 1.511 . S
C1493 C1489 1.376 . S
C1493 C1492 1.392 . S
C1493 H1505 0.929 . S
C1494 C1490 1.531 1_545 S
C1494 H1506 0.960 . S
C1494 H1507 0.962 . S
C1494 H1508 0.960 . S
C1495 C1492 1.511 . S
C1495 H1509 0.961 . S
C1495 H1510 0.961 . S
C1495 H1511 0.961 . S
C1496 C1497 1.370 . S
C1496 C1498 1.363 . S
C1496 H1512 0.931 . S
C1497 C1496 1.370 . S
C1497 C1501 1.408 . S
C1498 C1496 1.363 . S
C1498 C1499 1.370 . S
C1498 C1502 1.524 1_545 S
C1499 C1491 1.503 1_545 S
C1499 C1498 1.370 . S
C1499 C1500 1.403 . S
C1500 C1499 1.403 . S
C1500 C1501 1.404 . S
C1500 C1503 1.539 . S
C1501 C1497 1.408 . S
C1501 C1500 1.404 . S
C1501 H1513 0.930 . S
C1502 C1498 1.524 1_565 S
C1502 H1514 0.956 . S
C1502 H1515 0.961 . S
C1502 H1516 0.961 . S
C1503 C1500 1.539 . S
C1503 H1517 0.958 . S
C1503 H1518 0.961 . S
C1503 H1519 0.960 . S
H1504 C1488 0.931 . S
H1505 C1493 0.929 . S
H1506 C1494 0.960 . S
H1507 C1494 0.962 . S
H1508 C1494 0.960 . S
H1509 C1495 0.961 . S
H1510 C1495 0.961 . S
H1511 C1495 0.961 . S
H1512 C1496 0.931 . S
H1513 C1501 0.930 . S
H1514 C1502 0.956 . S
H1515 C1502 0.961 . S
H1516 C1502 0.961 . S
H1517 C1503 0.958 . S
H1518 C1503 0.961 . S
H1519 C1503 0.960 . S
C1520 C1521 1.391 . S
C1520 C1522 1.394 . S
C1520 H1536 0.931 . S
C1521 C1520 1.391 . S
C1521 C1525 1.376 . S
C1522 C1520 1.394 . S
C1522 C1523 1.369 . S
C1522 C1526 1.531 1_455 S
C1523 C1522 1.369 . S
C1523 C1524 1.410 . S
C1523 C1531 1.503 1_445 S
C1524 C1523 1.410 . S
C1524 C1525 1.392 . S
C1524 C1527 1.519 . S
C1525 C1521 1.376 . S
C1525 C1524 1.392 . S
C1525 H1537 0.929 . S
C1526 C1522 1.531 1_655 S
C1526 H1538 0.960 . S
C1526 H1539 0.964 . S
C1526 H1540 0.960 . S
C1527 C1524 1.519 . S
C1527 H1541 0.959 1_545 S
C1527 H1542 0.949 1_545 S
C1527 H1543 0.968 . S
C1528 C1529 1.370 . S
C1528 C1530 1.363 . S
C1528 H1544 0.931 . S
C1529 C1528 1.370 . S
C1529 C1533 1.408 . S
C1530 C1528 1.363 . S
C1530 C1531 1.370 . S
C1530 C1534 1.524 1_655 S
C1531 C1523 1.503 1_665 S
C1531 C1530 1.370 . S
C1531 C1532 1.410 . S
C1532 C1531 1.410 . S
C1532 C1533 1.427 . S
C1532 C1535 1.510 1_565 S
C1533 C1529 1.408 . S
C1533 C1532 1.427 . S
C1533 H1545 0.930 . S
C1534 C1530 1.524 1_455 S
C1534 H1546 0.956 . S
C1534 H1547 0.961 . S
C1534 H1548 0.961 . S
C1535 C1532 1.510 1_545 S
C1535 H1549 0.958 . S
C1535 H1550 0.961 . S
C1535 H1551 0.960 . S
H1536 C1520 0.931 . S
H1537 C1525 0.929 . S
H1538 C1526 0.960 . S
H1539 C1526 0.964 . S
H1540 C1526 0.960 . S
H1541 C1527 0.959 1_565 S
H1542 C1527 0.949 1_565 S
H1543 C1527 0.968 . S
H1544 C1528 0.931 . S
H1545 C1533 0.930 . S
H1546 C1534 0.956 . S
H1547 C1534 0.961 . S
H1548 C1534 0.961 . S
H1549 C1535 0.958 . S
H1550 C1535 0.961 . S
H1551 C1535 0.960 . S
C1552 C1553 1.391 . S
C1552 C1554 1.394 . S
C1552 H1568 0.931 . S
C1553 C1552 1.391 . S
C1553 C1557 1.376 . S
C1554 C1552 1.394 . S
C1554 C1555 1.369 . S
C1554 C1558 1.531 . S
C1555 C1554 1.369 . S
C1555 C1556 1.410 . S
C1555 C1563 1.503 . S
C1556 C1555 1.410 . S
C1556 C1557 1.392 . S
C1556 C1559 1.511 . S
C1557 C1553 1.376 . S
C1557 C1556 1.392 . S
C1557 H1569 0.929 . S
C1558 C1554 1.531 . S
C1558 H1570 0.960 . S
C1558 H1571 0.962 . S
C1558 H1572 0.960 . S
C1559 C1556 1.511 . S
C1559 H1573 0.961 . S
C1559 H1574 0.961 . S
C1559 H1575 0.961 . S
C1560 C1561 1.370 . S
C1560 C1562 1.363 . S
C1560 H1576 0.931 . S
C1561 C1560 1.370 . S
C1561 C1565 1.408 . S
C1562 C1560 1.363 . S
C1562 C1563 1.370 . S
C1562 C1566 1.524 . S
C1563 C1555 1.503 . S
C1563 C1562 1.370 . S
C1563 C1564 1.403 . S
C1564 C1563 1.403 . S
C1564 C1565 1.404 . S
C1564 C1567 1.539 . S
C1565 C1561 1.408 . S
C1565 C1564 1.404 . S
C1565 H1577 0.930 . S
C1566 C1562 1.524 . S
C1566 H1578 0.956 . S
C1566 H1579 0.961 . S
C1566 H1580 0.961 . S
C1567 C1564 1.539 . S
C1567 H1581 0.958 . S
C1567 H1582 0.961 . S
C1567 H1583 0.960 . S
H1568 C1552 0.931 . S
H1569 C1557 0.929 . S
H1570 C1558 0.960 . S
H1571 C1558 0.962 . S
H1572 C1558 0.960 . S
H1573 C1559 0.961 . S
H1574 C1559 0.961 . S
H1575 C1559 0.961 . S
H1576 C1560 0.931 . S
H1577 C1565 0.930 . S
H1578 C1566 0.956 . S
H1579 C1566 0.961 . S
H1580 C1566 0.961 . S
H1581 C1567 0.958 . S
H1582 C1567 0.961 . S
H1583 C1567 0.960 . S
C1584 C1585 1.391 . S
C1584 C1586 1.394 . S
C1584 H1600 0.931 . S
C1585 C1584 1.391 . S
C1585 C1589 1.376 . S
C1586 C1584 1.394 . S
C1586 C1587 1.369 . S
C1586 C1590 1.531 . S
C1587 C1586 1.369 . S
C1587 C1588 1.410 . S
C1587 C1595 1.503 . S
C1588 C1587 1.410 . S
C1588 C1589 1.392 . S
C1588 C1591 1.511 . S
C1589 C1585 1.376 . S
C1589 C1588 1.392 . S
C1589 H1601 0.929 . S
C1590 C1586 1.531 . S
C1590 H1602 0.960 . S
C1590 H1603 0.962 . S
C1590 H1604 0.960 . S
C1591 C1588 1.511 . S
C1591 H1605 0.961 . S
C1591 H1606 0.961 . S
C1591 H1607 0.961 . S
C1592 C1593 1.370 . S
C1592 C1594 1.363 . S
C1592 H1608 0.931 . S
C1593 C1592 1.370 . S
C1593 C1597 1.408 . S
C1594 C1592 1.363 . S
C1594 C1595 1.370 . S
C1594 C1598 1.524 . S
C1595 C1587 1.503 . S
C1595 C1594 1.370 . S
C1595 C1596 1.403 . S
C1596 C1595 1.403 . S
C1596 C1597 1.404 . S
C1596 C1599 1.539 . S
C1597 C1593 1.408 . S
C1597 C1596 1.404 . S
C1597 H1609 0.930 . S
C1598 C1594 1.524 . S
C1598 H1610 0.956 . S
C1598 H1611 0.961 . S
C1598 H1612 0.961 . S
C1599 C1596 1.539 . S
C1599 H1613 0.958 . S
C1599 H1614 0.961 . S
C1599 H1615 0.960 . S
H1600 C1584 0.931 . S
H1601 C1589 0.929 . S
H1602 C1590 0.960 . S
H1603 C1590 0.962 . S
H1604 C1590 0.960 . S
H1605 C1591 0.961 . S
H1606 C1591 0.961 . S
H1607 C1591 0.961 . S
H1608 C1592 0.931 . S
H1609 C1597 0.930 . S
H1610 C1598 0.956 . S
H1611 C1598 0.961 . S
H1612 C1598 0.961 . S
H1613 C1599 0.958 . S
H1614 C1599 0.961 . S
H1615 C1599 0.960 . S
C1616 C1617 1.391 . S
C1616 C1618 1.394 . S
C1616 H1632 0.931 . S
C1617 C1616 1.391 . S
C1617 C1621 1.376 . S
C1618 C1616 1.394 . S
C1618 C1619 1.369 . S
C1618 C1622 1.531 . S
C1619 C1618 1.369 . S
C1619 C1620 1.410 . S
C1619 C1627 1.503 . S
C1620 C1619 1.410 . S
C1620 C1621 1.392 . S
C1620 C1623 1.511 . S
C1621 C1617 1.376 . S
C1621 C1620 1.392 . S
C1621 H1633 0.929 . S
C1622 C1618 1.531 . S
C1622 H1634 0.960 . S
C1622 H1635 0.962 . S
C1622 H1636 0.960 . S
C1623 C1620 1.511 . S
C1623 H1637 0.961 . S
C1623 H1638 0.961 . S
C1623 H1639 0.961 . S
C1624 C1625 1.370 . S
C1624 C1626 1.363 . S
C1624 H1640 0.931 . S
C1625 C1624 1.370 . S
C1625 C1629 1.408 . S
C1626 C1624 1.363 . S
C1626 C1627 1.370 . S
C1626 C1630 1.524 . S
C1627 C1619 1.503 . S
C1627 C1626 1.370 . S
C1627 C1628 1.403 . S
C1628 C1627 1.403 . S
C1628 C1629 1.404 . S
C1628 C1631 1.539 . S
C1629 C1625 1.408 . S
C1629 C1628 1.404 . S
C1629 H1641 0.930 . S
C1630 C1626 1.524 . S
C1630 H1642 0.956 . S
C1630 H1643 0.961 . S
C1630 H1644 0.961 . S
C1631 C1628 1.539 . S
C1631 H1645 0.958 . S
C1631 H1646 0.961 . S
C1631 H1647 0.960 . S
H1632 C1616 0.931 . S
H1633 C1621 0.929 . S
H1634 C1622 0.960 . S
H1635 C1622 0.962 . S
H1636 C1622 0.960 . S
H1637 C1623 0.961 . S
H1638 C1623 0.961 . S
H1639 C1623 0.961 . S
H1640 C1624 0.931 . S
H1641 C1629 0.930 . S
H1642 C1630 0.956 . S
H1643 C1630 0.961 . S
H1644 C1630 0.961 . S
H1645 C1631 0.958 . S
H1646 C1631 0.961 . S
H1647 C1631 0.960 . S
C1648 C1649 1.391 . S
C1648 C1650 1.394 . S
C1648 H1664 0.931 . S
C1649 C1648 1.391 . S
C1649 C1653 1.376 . S
C1650 C1648 1.394 . S
C1650 C1651 1.369 . S
C1650 C1654 1.531 . S
C1651 C1650 1.369 . S
C1651 C1652 1.410 . S
C1651 C1659 1.503 . S
C1652 C1651 1.410 . S
C1652 C1653 1.392 . S
C1652 C1655 1.511 . S
C1653 C1649 1.376 . S
C1653 C1652 1.392 . S
C1653 H1665 0.929 . S
C1654 C1650 1.531 . S
C1654 H1666 0.960 . S
C1654 H1667 0.962 . S
C1654 H1668 0.960 . S
C1655 C1652 1.511 . S
C1655 H1669 0.961 . S
C1655 H1670 0.961 . S
C1655 H1671 0.961 . S
C1656 C1657 1.370 . S
C1656 C1658 1.363 . S
C1656 H1672 0.931 . S
C1657 C1656 1.370 . S
C1657 C1661 1.408 . S
C1658 C1656 1.363 . S
C1658 C1659 1.370 . S
C1658 C1662 1.524 . S
C1659 C1651 1.503 . S
C1659 C1658 1.370 . S
C1659 C1660 1.403 . S
C1660 C1659 1.403 . S
C1660 C1661 1.404 . S
C1660 C1663 1.539 . S
C1661 C1657 1.408 . S
C1661 C1660 1.404 . S
C1661 H1673 0.930 . S
C1662 C1658 1.524 . S
C1662 H1674 0.956 . S
C1662 H1675 0.961 . S
C1662 H1676 0.961 . S
C1663 C1660 1.539 . S
C1663 H1677 0.958 . S
C1663 H1678 0.961 . S
C1663 H1679 0.960 . S
H1664 C1648 0.931 . S
H1665 C1653 0.929 . S
H1666 C1654 0.960 . S
H1667 C1654 0.962 . S
H1668 C1654 0.960 . S
H1669 C1655 0.961 . S
H1670 C1655 0.961 . S
H1671 C1655 0.961 . S
H1672 C1656 0.931 . S
H1673 C1661 0.930 . S
H1674 C1662 0.956 . S
H1675 C1662 0.961 . S
H1676 C1662 0.961 . S
H1677 C1663 0.958 . S
H1678 C1663 0.961 . S
H1679 C1663 0.960 . S
C1680 C1681 1.391 . S
C1680 C1682 1.394 . S
C1680 H1696 0.931 . S
C1681 C1680 1.391 . S
C1681 C1685 1.376 . S
C1682 C1680 1.394 . S
C1682 C1683 1.369 . S
C1682 C1686 1.531 . S
C1683 C1682 1.369 . S
C1683 C1684 1.410 . S
C1683 C1691 1.503 . S
C1684 C1683 1.410 . S
C1684 C1685 1.392 . S
C1684 C1687 1.511 . S
C1685 C1681 1.376 . S
C1685 C1684 1.392 . S
C1685 H1697 0.929 . S
C1686 C1682 1.531 . S
C1686 H1698 0.960 . S
C1686 H1699 0.962 . S
C1686 H1700 0.960 . S
C1687 C1684 1.511 . S
C1687 H1701 0.961 . S
C1687 H1702 0.961 . S
C1687 H1703 0.961 . S
C1688 C1689 1.370 . S
C1688 C1690 1.363 . S
C1688 H1704 0.931 . S
C1689 C1688 1.370 . S
C1689 C1693 1.408 . S
C1690 C1688 1.363 . S
C1690 C1691 1.370 . S
C1690 C1694 1.524 . S
C1691 C1683 1.503 . S
C1691 C1690 1.370 . S
C1691 C1692 1.403 . S
C1692 C1691 1.403 . S
C1692 C1693 1.404 . S
C1692 C1695 1.539 . S
C1693 C1689 1.408 . S
C1693 C1692 1.404 . S
C1693 H1705 0.930 . S
C1694 C1690 1.524 . S
C1694 H1706 0.956 . S
C1694 H1707 0.961 . S
C1694 H1708 0.961 . S
C1695 C1692 1.539 . S
C1695 H1709 0.958 . S
C1695 H1710 0.961 . S
C1695 H1711 0.960 . S
H1696 C1680 0.931 . S
H1697 C1685 0.929 . S
H1698 C1686 0.960 . S
H1699 C1686 0.962 . S
H1700 C1686 0.960 . S
H1701 C1687 0.961 . S
H1702 C1687 0.961 . S
H1703 C1687 0.961 . S
H1704 C1688 0.931 . S
H1705 C1693 0.930 . S
H1706 C1694 0.956 . S
H1707 C1694 0.961 . S
H1708 C1694 0.961 . S
H1709 C1695 0.958 . S
H1710 C1695 0.961 . S
H1711 C1695 0.960 . S
C1712 C1713 1.391 . S
C1712 C1714 1.394 . S
C1712 H1728 0.931 . S
C1713 C1712 1.391 . S
C1713 C1717 1.376 . S
C1714 C1712 1.394 . S
C1714 C1715 1.369 . S
C1714 C1718 1.531 . S
C1715 C1714 1.369 . S
C1715 C1716 1.410 . S
C1715 C1723 1.503 . S
C1716 C1715 1.410 . S
C1716 C1717 1.392 . S
C1716 C1719 1.511 . S
C1717 C1713 1.376 . S
C1717 C1716 1.392 . S
C1717 H1729 0.929 . S
C1718 C1714 1.531 . S
C1718 H1730 0.960 . S
C1718 H1731 0.962 . S
C1718 H1732 0.960 . S
C1719 C1716 1.511 . S
C1719 H1733 0.961 . S
C1719 H1734 0.961 . S
C1719 H1735 0.961 . S
C1720 C1721 1.370 . S
C1720 C1722 1.363 . S
C1720 H1736 0.931 . S
C1721 C1720 1.370 . S
C1721 C1725 1.408 . S
C1722 C1720 1.363 . S
C1722 C1723 1.370 . S
C1722 C1726 1.524 . S
C1723 C1715 1.503 . S
C1723 C1722 1.370 . S
C1723 C1724 1.403 . S
C1724 C1723 1.403 . S
C1724 C1725 1.404 . S
C1724 C1727 1.539 . S
C1725 C1721 1.408 . S
C1725 C1724 1.404 . S
C1725 H1737 0.930 . S
C1726 C1722 1.524 . S
C1726 H1738 0.956 . S
C1726 H1739 0.961 . S
C1726 H1740 0.961 . S
C1727 C1724 1.539 . S
C1727 H1741 0.958 . S
C1727 H1742 0.961 . S
C1727 H1743 0.960 . S
H1728 C1712 0.931 . S
H1729 C1717 0.929 . S
H1730 C1718 0.960 . S
H1731 C1718 0.962 . S
H1732 C1718 0.960 . S
H1733 C1719 0.961 . S
H1734 C1719 0.961 . S
H1735 C1719 0.961 . S
H1736 C1720 0.931 . S
H1737 C1725 0.930 . S
H1738 C1726 0.956 . S
H1739 C1726 0.961 . S
H1740 C1726 0.961 . S
H1741 C1727 0.958 . S
H1742 C1727 0.961 . S
H1743 C1727 0.960 . S
C1744 C1745 1.391 . S
C1744 C1746 1.394 . S
C1744 H1760 0.931 . S
C1745 C1744 1.391 . S
C1745 C1749 1.376 . S
C1746 C1744 1.394 . S
C1746 C1747 1.369 . S
C1746 C1750 1.531 . S
C1747 C1746 1.369 . S
C1747 C1748 1.410 . S
C1747 C1755 1.503 . S
C1748 C1747 1.410 . S
C1748 C1749 1.392 . S
C1748 C1751 1.511 . S
C1749 C1745 1.376 . S
C1749 C1748 1.392 . S
C1749 H1761 0.929 . S
C1750 C1746 1.531 . S
C1750 H1762 0.960 . S
C1750 H1763 0.962 . S
C1750 H1764 0.960 . S
C1751 C1748 1.511 . S
C1751 H1765 0.961 . S
C1751 H1766 0.961 . S
C1751 H1767 0.961 . S
C1752 C1753 1.370 . S
C1752 C1754 1.363 . S
C1752 H1768 0.931 . S
C1753 C1752 1.370 . S
C1753 C1757 1.408 . S
C1754 C1752 1.363 . S
C1754 C1755 1.370 . S
C1754 C1758 1.524 . S
C1755 C1747 1.503 . S
C1755 C1754 1.370 . S
C1755 C1756 1.403 . S
C1756 C1755 1.403 . S
C1756 C1757 1.404 . S
C1756 C1759 1.539 . S
C1757 C1753 1.408 . S
C1757 C1756 1.404 . S
C1757 H1769 0.930 . S
C1758 C1754 1.524 . S
C1758 H1770 0.956 . S
C1758 H1771 0.961 . S
C1758 H1772 0.961 . S
C1759 C1756 1.539 . S
C1759 H1773 0.958 . S
C1759 H1774 0.961 . S
C1759 H1775 0.960 . S
H1760 C1744 0.931 . S
H1761 C1749 0.929 . S
H1762 C1750 0.960 . S
H1763 C1750 0.962 . S
H1764 C1750 0.960 . S
H1765 C1751 0.961 . S
H1766 C1751 0.961 . S
H1767 C1751 0.961 . S
H1768 C1752 0.931 . S
H1769 C1757 0.930 . S
H1770 C1758 0.956 . S
H1771 C1758 0.961 . S
H1772 C1758 0.961 . S
H1773 C1759 0.958 . S
H1774 C1759 0.961 . S
H1775 C1759 0.960 . S
C1776 C1777 1.391 . S
C1776 C1778 1.394 . S
C1776 H1792 0.931 . S
C1777 C1776 1.391 . S
C1777 C1781 1.376 . S
C1778 C1776 1.394 . S
C1778 C1779 1.369 . S
C1778 C1782 1.531 . S
C1779 C1778 1.369 . S
C1779 C1780 1.410 . S
C1779 C1787 1.503 . S
C1780 C1779 1.410 . S
C1780 C1781 1.392 . S
C1780 C1783 1.511 . S
C1781 C1777 1.376 . S
C1781 C1780 1.392 . S
C1781 H1793 0.929 . S
C1782 C1778 1.531 . S
C1782 H1794 0.960 . S
C1782 H1795 0.962 . S
C1782 H1796 0.960 . S
C1783 C1780 1.511 . S
C1783 H1797 0.961 . S
C1783 H1798 0.961 . S
C1783 H1799 0.961 . S
C1784 C1785 1.370 . S
C1784 C1786 1.363 . S
C1784 H1800 0.931 . S
C1785 C1784 1.370 . S
C1785 C1789 1.408 . S
C1786 C1784 1.363 . S
C1786 C1787 1.370 . S
C1786 C1790 1.524 . S
C1787 C1779 1.503 . S
C1787 C1786 1.370 . S
C1787 C1788 1.403 . S
C1788 C1787 1.403 . S
C1788 C1789 1.404 . S
C1788 C1791 1.539 . S
C1789 C1785 1.408 . S
C1789 C1788 1.404 . S
C1789 H1801 0.930 . S
C1790 C1786 1.524 . S
C1790 H1802 0.956 . S
C1790 H1803 0.961 . S
C1790 H1804 0.961 . S
C1791 C1788 1.539 . S
C1791 H1805 0.958 . S
C1791 H1806 0.961 . S
C1791 H1807 0.960 . S
H1792 C1776 0.931 . S
H1793 C1781 0.929 . S
H1794 C1782 0.960 . S
H1795 C1782 0.962 . S
H1796 C1782 0.960 . S
H1797 C1783 0.961 . S
H1798 C1783 0.961 . S
H1799 C1783 0.961 . S
H1800 C1784 0.931 . S
H1801 C1789 0.930 . S
H1802 C1790 0.956 . S
H1803 C1790 0.961 . S
H1804 C1790 0.961 . S
H1805 C1791 0.958 . S
H1806 C1791 0.961 . S
H1807 C1791 0.960 . S
C529 N2 0.389 . S
C537 N431 0.534 . S
C561 N464 0.393 . S
C569 N35 0.519 . S
C593 N497 0.412 . S
C601 N68 0.503 . S
C625 N398 0.583 . S
C633 N101 0.459 . S
C657 N365 0.407 . S
C665 N134 0.506 . S
C689 N266 0.596 . S
C697 N167 0.462 . S
C721 N200 0.428 . S
C729 N299 0.553 . S
C753 N332 0.599 . S
C761 N233 0.463 . S
C785 C304 1.969 . S
C793 N13 2.106 . S
C817 N46 2.087 . S
C825 C337 1.982 . S
C849 N79 2.109 . S
C857 C370 1.987 . S
C881 N112 2.105 . S
C889 C271 1.978 . S
C913 N145 2.106 . S
C921 C502 1.993 . S
C945 C403 1.946 . S
C953 N178 2.100 . S
C977 C436 1.963 . S
C985 N211 2.098 . S
C1009 C469 1.946 . S
C1017 N244 2.100 . S
C1041 N277 2.108 . S
C1049 C40 1.983 . S
C1073 N310 2.090 . S
C1081 C73 1.969 . S
C1105 N343 2.088 . S
C1113 C106 1.984 . S
C1137 C7 1.946 . S
C1145 N376 2.101 . S
C1169 N409 2.104 . S
C1177 C238 1.994 . S
C1201 C139 2.001 . S
C1209 N442 2.101 . S
C1233 N475 2.098 . S
C1241 C172 1.970 . S
C1265 N508 2.108 . S
C1273 C205 1.985 . S
C1297 C21 1.230 . S
C1305 C351 1.244 . S
C1329 C384 1.236 . S
C1337 C54 1.244 . S
C1361 C87 1.228 . S
C1369 C285 1.245 . S
C1393 C318 1.242 . S
C1401 C120 1.246 . S
C1425 C153 1.230 . S
C1433 C483 1.244 . S
C1457 C516 1.259 . S
C1465 C186 1.260 . S
C1489 C417 1.233 . S
C1497 C219 1.249 . S
C1521 C450 1.235 . S
C1529 C252 1.251 . S
C1553 C216 0.649 . S
C1561 C18 0.573 . S
C1585 C51 0.599 . S
C1593 C249 0.544 . S
C1617 C150 0.588 . S
C1625 C84 0.546 . S
C1649 C117 0.605 . S
C1657 C183 0.543 . S
C1681 C282 0.652 . S
C1689 C480 0.570 . S
C1713 C315 0.562 . S
C1721 C513 0.554 . S
C1745 C348 0.645 . S
C1753 C414 0.577 . S
C1777 C447 0.634 . S
C1785 C381 0.540 . S
