# Generated by pormake.
# Topology wfv, (7)-cn, num edge types: 1
# Building blocks:
#     Node 0, Type 0, BuildingBlock: NUHQUE_clean_sbu_2, # of connection points: 7
#     Node 1, Type 0, BuildingBlock: NUHQUE_clean_sbu_2, # of connection points: 7
#     Node 2, Type 0, BuildingBlock: NUHQUE_clean_sbu_2, # of connection points: 7
#     Node 3, Type 0, BuildingBlock: NUHQUE_clean_sbu_2, # of connection points: 7
#     Node 4, Type 0, BuildingBlock: NUHQUE_clean_sbu_2, # of connection points: 7
#     Node 5, Type 0, BuildingBlock: NUHQUE_clean_sbu_2, # of connection points: 7
#     Node 6, Type 0, BuildingBlock: NUHQUE_clean_sbu_2, # of connection points: 7
#     Node 7, Type 0, BuildingBlock: NUHQUE_clean_sbu_2, # of connection points: 7
#     Node 8, Type 0, BuildingBlock: NUHQUE_clean_sbu_2, # of connection points: 7
#     Node 9, Type 0, BuildingBlock: NUHQUE_clean_sbu_2, # of connection points: 7
#     Node 10, Type 0, BuildingBlock: NUHQUE_clean_sbu_2, # of connection points: 7
#     Node 11, Type 0, BuildingBlock: NUHQUE_clean_sbu_2, # of connection points: 7
#     Node 12, Type 0, BuildingBlock: NUHQUE_clean_sbu_2, # of connection points: 7
#     Node 13, Type 0, BuildingBlock: NUHQUE_clean_sbu_2, # of connection points: 7
#     Node 14, Type 0, BuildingBlock: NUHQUE_clean_sbu_2, # of connection points: 7
#     Node 15, Type 0, BuildingBlock: NUHQUE_clean_sbu_2, # of connection points: 7
#     Edge 16, Type (0, 0), BuildingBlock: UVAHIK_clean_linker_0, # of connection points: 2
#     Edge 17, Type (0, 0), BuildingBlock: UVAHIK_clean_linker_0, # of connection points: 2
#     Edge 18, Type (0, 0), BuildingBlock: UVAHIK_clean_linker_0, # of connection points: 2
#     Edge 19, Type (0, 0), BuildingBlock: UVAHIK_clean_linker_0, # of connection points: 2
#     Edge 20, Type (0, 0), BuildingBlock: UVAHIK_clean_linker_0, # of connection points: 2
#     Edge 21, Type (0, 0), BuildingBlock: UVAHIK_clean_linker_0, # of connection points: 2
#     Edge 22, Type (0, 0), BuildingBlock: UVAHIK_clean_linker_0, # of connection points: 2
#     Edge 23, Type (0, 0), BuildingBlock: UVAHIK_clean_linker_0, # of connection points: 2
#     Edge 24, Type (0, 0), BuildingBlock: UVAHIK_clean_linker_0, # of connection points: 2
#     Edge 25, Type (0, 0), BuildingBlock: UVAHIK_clean_linker_0, # of connection points: 2
#     Edge 26, Type (0, 0), BuildingBlock: UVAHIK_clean_linker_0, # of connection points: 2
#     Edge 27, Type (0, 0), BuildingBlock: UVAHIK_clean_linker_0, # of connection points: 2
#     Edge 28, Type (0, 0), BuildingBlock: UVAHIK_clean_linker_0, # of connection points: 2
#     Edge 29, Type (0, 0), BuildingBlock: UVAHIK_clean_linker_0, # of connection points: 2
#     Edge 30, Type (0, 0), BuildingBlock: UVAHIK_clean_linker_0, # of connection points: 2
#     Edge 31, Type (0, 0), BuildingBlock: UVAHIK_clean_linker_0, # of connection points: 2
#     Edge 32, Type (0, 0), BuildingBlock: UVAHIK_clean_linker_0, # of connection points: 2
#     Edge 33, Type (0, 0), BuildingBlock: UVAHIK_clean_linker_0, # of connection points: 2
#     Edge 34, Type (0, 0), BuildingBlock: UVAHIK_clean_linker_0, # of connection points: 2
#     Edge 35, Type (0, 0), BuildingBlock: UVAHIK_clean_linker_0, # of connection points: 2
#     Edge 36, Type (0, 0), BuildingBlock: UVAHIK_clean_linker_0, # of connection points: 2
#     Edge 37, Type (0, 0), BuildingBlock: UVAHIK_clean_linker_0, # of connection points: 2
#     Edge 38, Type (0, 0), BuildingBlock: UVAHIK_clean_linker_0, # of connection points: 2
#     Edge 39, Type (0, 0), BuildingBlock: UVAHIK_clean_linker_0, # of connection points: 2
#     Edge 40, Type (0, 0), BuildingBlock: UVAHIK_clean_linker_0, # of connection points: 2
#     Edge 41, Type (0, 0), BuildingBlock: UVAHIK_clean_linker_0, # of connection points: 2
#     Edge 42, Type (0, 0), BuildingBlock: UVAHIK_clean_linker_0, # of connection points: 2
#     Edge 43, Type (0, 0), BuildingBlock: UVAHIK_clean_linker_0, # of connection points: 2
#     Edge 44, Type (0, 0), BuildingBlock: UVAHIK_clean_linker_0, # of connection points: 2
#     Edge 45, Type (0, 0), BuildingBlock: UVAHIK_clean_linker_0, # of connection points: 2
#     Edge 46, Type (0, 0), BuildingBlock: UVAHIK_clean_linker_0, # of connection points: 2
#     Edge 47, Type (0, 0), BuildingBlock: UVAHIK_clean_linker_0, # of connection points: 2
#     Edge 48, Type (0, 0), BuildingBlock: UVAHIK_clean_linker_0, # of connection points: 2
#     Edge 49, Type (0, 0), BuildingBlock: UVAHIK_clean_linker_0, # of connection points: 2
#     Edge 50, Type (0, 0), BuildingBlock: UVAHIK_clean_linker_0, # of connection points: 2
#     Edge 51, Type (0, 0), BuildingBlock: UVAHIK_clean_linker_0, # of connection points: 2
#     Edge 52, Type (0, 0), BuildingBlock: UVAHIK_clean_linker_0, # of connection points: 2
#     Edge 53, Type (0, 0), BuildingBlock: UVAHIK_clean_linker_0, # of connection points: 2
#     Edge 54, Type (0, 0), BuildingBlock: UVAHIK_clean_linker_0, # of connection points: 2
#     Edge 55, Type (0, 0), BuildingBlock: UVAHIK_clean_linker_0, # of connection points: 2
#     Edge 56, Type (0, 0), BuildingBlock: UVAHIK_clean_linker_0, # of connection points: 2
#     Edge 57, Type (0, 0), BuildingBlock: UVAHIK_clean_linker_0, # of connection points: 2
#     Edge 58, Type (0, 0), BuildingBlock: UVAHIK_clean_linker_0, # of connection points: 2
#     Edge 59, Type (0, 0), BuildingBlock: UVAHIK_clean_linker_0, # of connection points: 2
#     Edge 60, Type (0, 0), BuildingBlock: UVAHIK_clean_linker_0, # of connection points: 2
#     Edge 61, Type (0, 0), BuildingBlock: UVAHIK_clean_linker_0, # of connection points: 2
#     Edge 62, Type (0, 0), BuildingBlock: UVAHIK_clean_linker_0, # of connection points: 2
#     Edge 63, Type (0, 0), BuildingBlock: UVAHIK_clean_linker_0, # of connection points: 2
#     Edge 64, Type (0, 0), BuildingBlock: UVAHIK_clean_linker_0, # of connection points: 2
#     Edge 65, Type (0, 0), BuildingBlock: UVAHIK_clean_linker_0, # of connection points: 2
#     Edge 66, Type (0, 0), BuildingBlock: UVAHIK_clean_linker_0, # of connection points: 2
#     Edge 67, Type (0, 0), BuildingBlock: UVAHIK_clean_linker_0, # of connection points: 2
#     Edge 68, Type (0, 0), BuildingBlock: UVAHIK_clean_linker_0, # of connection points: 2
#     Edge 69, Type (0, 0), BuildingBlock: UVAHIK_clean_linker_0, # of connection points: 2
#     Edge 70, Type (0, 0), BuildingBlock: UVAHIK_clean_linker_0, # of connection points: 2
#     Edge 71, Type (0, 0), BuildingBlock: UVAHIK_clean_linker_0, # of connection points: 2
# Relax obj value: 0.195
# Max RMSD: 0.255
# Mean RMSD: 0.255
data_MOF--net-wfv--node1-NUHQUE_clean_sbu_2--edge1-UVAHIK_clean_linker_0
_symmetry_space_group_name_H-M    P1
_symmetry_Int_Tables_number       1
_symmetry_cell_setting            triclinic
loop_
_symmetry_equiv_pos_as_xyz
'x, y, z'
_cell_length_a     56.677898
_cell_length_b     56.684318
_cell_length_c     55.801803
_cell_angle_alpha  90.012381
_cell_angle_beta   89.975633
_cell_angle_gamma 90.038831
loop_
_atom_site_label
_atom_site_type_symbol
_atom_site_fract_x
_atom_site_fract_y
_atom_site_fract_z
_atom_type_partial_charge
O0 O 0.65175 0.11507 0.09363 0.0
Tb1 Tb 0.68423 0.10043 0.10772 0.0
Eu2 Eu 0.68971 0.01936 0.12716 0.0
C3 C 0.64822 0.11241 0.07051 0.0
O4 O 0.66197 0.09773 0.05883 0.0
C5 C 0.71038 0.05398 0.09034 0.0
O6 O 0.71988 0.00532 0.14912 0.0
C7 C 0.66036 0.98627 0.11504 0.0
C8 C 0.73856 0.01848 0.15312 0.0
O9 O 0.73866 0.0404 0.14551 0.0
C10 C 0.68159 0.06919 0.15252 0.0
C11 C 0.63553 0.97887 0.11142 0.0
C12 C 0.62031 0.98992 0.09477 0.0
C13 C 0.59743 0.98085 0.09089 0.0
C14 C 0.59029 0.96048 0.10315 0.0
C15 C 0.60539 0.94912 0.11921 0.0
C16 C 0.62777 0.95858 0.12364 0.0
O17 O 0.69055 0.0641 0.09689 0.0
O18 O 0.71374 0.03219 0.09761 0.0
O19 O 0.70872 0.12092 0.08543 0.0
O20 O 0.70699 0.1275 0.1228 0.0
C21 C 0.71662 0.13414 0.10278 0.0
O22 O 0.67252 0.05371 0.13753 0.0
O23 O 0.68214 0.09149 0.14577 0.0
O24 O 0.66734 0.98984 0.13726 0.0
O25 O 0.67033 1.00049 0.09935 0.0
H26 H 0.62618 0.00525 0.08483 0.0
H27 H 0.57307 0.95288 0.09957 0.0
H28 H 0.63961 0.94942 0.13575 0.0
O29 O 0.38692 0.65078 0.09574 0.0
Tb30 Tb 0.40231 0.68408 0.10646 0.0
Eu31 Eu 0.48337 0.68586 0.12701 0.0
C32 C 0.39185 0.64267 0.07425 0.0
O33 O 0.40926 0.65243 0.06225 0.0
C34 C 0.45044 0.70652 0.08856 0.0
O35 O 0.49944 0.71544 0.14835 0.0
C36 C 0.51446 0.65396 0.11633 0.0
C37 C 0.48859 0.73583 0.15033 0.0
O38 O 0.46739 0.73817 0.14113 0.0
C39 C 0.43297 0.68335 0.15181 0.0
C40 C 0.52078 0.62885 0.11296 0.0
C41 C 0.50911 0.61393 0.09646 0.0
C42 C 0.51736 0.59075 0.09264 0.0
C43 C 0.53756 0.583 0.1048 0.0
C44 C 0.54962 0.59784 0.12062 0.0
C45 C 0.54089 0.62051 0.12505 0.0
O46 O 0.43909 0.68759 0.09578 0.0
O47 O 0.47223 0.70912 0.09619 0.0
O48 O 0.38369 0.70773 0.08171 0.0
O49 O 0.3747 0.70783 0.11861 0.0
C50 C 0.3695 0.71659 0.09776 0.0
O51 O 0.44776 0.67187 0.13786 0.0
O52 O 0.41095 0.6856 0.14457 0.0
O53 O 0.5106 0.66131 0.13837 0.0
O54 O 0.50146 0.66465 0.10008 0.0
H55 H 0.49397 0.6203 0.08654 0.0
H56 H 0.54455 0.56554 0.10119 0.0
H57 H 0.55057 0.63218 0.13693 0.0
O58 O 0.84181 0.38493 0.09145 0.0
Tb59 Tb 0.814 0.40403 0.11008 0.0
Eu60 Eu 0.81802 0.48597 0.12769 0.0
C61 C 0.83487 0.37144 0.07357 0.0
O62 O 0.81266 0.37216 0.06703 0.0
C63 C 0.79555 0.45335 0.09037 0.0
O64 O 0.78808 0.50132 0.14902 0.0
C65 C 0.84981 0.51743 0.11739 0.0
C66 C 0.76805 0.48982 0.15113 0.0
O67 O 0.76633 0.46853 0.14198 0.0
C68 C 0.82165 0.43601 0.15399 0.0
C69 C 0.87516 0.52382 0.11579 0.0
C70 C 0.89047 0.51411 0.09839 0.0
C71 C 0.91386 0.52238 0.09635 0.0
C72 C 0.92153 0.54069 0.11139 0.0
C73 C 0.90645 0.55092 0.12838 0.0
C74 C 0.8834 0.54213 0.13064 0.0
O75 O 0.81279 0.44096 0.09973 0.0
O76 O 0.79455 0.47566 0.09666 0.0
O77 O 0.79363 0.37611 0.12681 0.0
O78 O 0.78035 0.39176 0.09496 0.0
C79 C 0.77678 0.37544 0.11106 0.0
O80 O 0.83237 0.45063 0.1392 0.0
O81 O 0.81978 0.41367 0.14759 0.0
O82 O 0.84077 0.51473 0.13896 0.0
O83 O 0.84059 0.50322 0.10124 0.0
H84 H 0.88424 0.50043 0.08639 0.0
H85 H 0.93905 0.54795 0.10879 0.0
H86 H 0.87153 0.55001 0.14361 0.0
O87 O 0.11828 0.85023 0.09606 0.0
Tb88 Tb 0.09981 0.81753 0.10324 0.0
Eu89 Eu 0.02005 0.81951 0.12794 0.0
C90 C 0.11431 0.86086 0.07552 0.0
O91 O 0.09622 0.85394 0.06257 0.0
C92 C 0.04983 0.79906 0.08619 0.0
O93 O 0.00438 0.78962 0.14914 0.0
C94 C 0.98992 0.85326 0.12093 0.0
C95 C 0.01542 0.76928 0.15034 0.0
O96 O 0.03626 0.76722 0.14023 0.0
C97 C 0.07199 0.81932 0.14989 0.0
C98 C 0.98547 0.87865 0.11694 0.0
C99 C 0.99866 0.89222 0.10048 0.0
C100 C 0.99267 0.916 0.09635 0.0
C101 C 0.97333 0.92579 0.10844 0.0
C102 C 0.95937 0.91223 0.12393 0.0
C103 C 0.9659 0.88881 0.12855 0.0
O104 O 0.06277 0.81728 0.09264 0.0
O105 O 0.02842 0.79759 0.09522 0.0
O106 O 0.12101 0.78644 0.11157 0.0
O107 O 0.12058 0.79915 0.0759 0.0
C108 C 0.12967 0.78349 0.09019 0.0
O109 O 0.05717 0.83108 0.1362 0.0
O110 O 0.09361 0.81622 0.14178 0.0
O111 O 0.99687 0.84666 0.14242 0.0
O112 O 0.99924 0.84083 0.10339 0.0
H113 H 0.01324 0.88435 0.09079 0.0
H114 H 0.96841 0.94394 0.10485 0.0
H115 H 0.95505 0.87806 0.14026 0.0
O116 O 0.65511 0.38562 0.41885 0.0
Tb117 Tb 0.68723 0.40456 0.41014 0.0
Eu118 Eu 0.68652 0.48463 0.38725 0.0
C119 C 0.65487 0.36273 0.41496 0.0
O120 O 0.672 0.35355 0.40212 0.0
C121 C 0.70616 0.45379 0.42804 0.0
O122 O 0.71698 0.49989 0.36655 0.0
C123 C 0.65378 0.51579 0.39472 0.0
C124 C 0.73708 0.48843 0.36496 0.0
O125 O 0.73875 0.46733 0.37454 0.0
C126 C 0.68551 0.43344 0.36382 0.0
C127 C 0.6284 0.52183 0.39645 0.0
C128 C 0.61324 0.51176 0.41375 0.0
C129 C 0.58975 0.5197 0.41584 0.0
C130 C 0.58185 0.53801 0.40096 0.0
C131 C 0.59681 0.5486 0.38408 0.0
C132 C 0.61996 0.54012 0.38173 0.0
O133 O 0.68785 0.44154 0.42064 0.0
O134 O 0.70849 0.47533 0.41961 0.0
O135 O 0.71704 0.38231 0.40025 0.0
O136 O 0.70866 0.38621 0.43701 0.0
C137 C 0.72251 0.37562 0.42182 0.0
O138 O 0.67372 0.44826 0.37748 0.0
O139 O 0.68837 0.41169 0.37169 0.0
O140 O 0.66228 0.51096 0.37331 0.0
O141 O 0.66382 0.50376 0.41213 0.0
H142 H 0.61965 0.49808 0.42563 0.0
H143 H 0.56425 0.54502 0.40365 0.0
H144 H 0.63175 0.54824 0.36884 0.0
O145 O 0.11768 0.6541 0.41696 0.0
Tb146 Tb 0.09992 0.68694 0.4089 0.0
Eu147 Eu 0.01971 0.68769 0.38643 0.0
C148 C 0.11305 0.6438 0.43752 0.0
O149 O 0.0948 0.65118 0.44997 0.0
C150 C 0.05116 0.70683 0.42701 0.0
O151 O 0.00433 0.71863 0.36663 0.0
C152 C 0.98858 0.65496 0.39426 0.0
C153 C 0.01668 0.7381 0.36418 0.0
O154 O 0.03843 0.73868 0.37228 0.0
C155 C 0.07092 0.68639 0.36259 0.0
C156 C 0.98268 0.62953 0.39593 0.0
C157 C 0.99273 0.61444 0.41328 0.0
C158 C 0.98487 0.59091 0.41538 0.0
C159 C 0.96662 0.58291 0.40045 0.0
C160 C 0.95606 0.59779 0.38349 0.0
C161 C 0.9645 0.62096 0.38113 0.0
O162 O 0.06301 0.68834 0.41948 0.0
O163 O 0.02959 0.70948 0.41877 0.0
O164 O 0.12343 0.71596 0.39959 0.0
O165 O 0.11854 0.70757 0.43626 0.0
C166 C 0.12984 0.72113 0.42133 0.0
O167 O 0.0559 0.67468 0.37613 0.0
O168 O 0.0927 0.6889 0.37052 0.0
O169 O 0.99303 0.66362 0.37282 0.0
O170 O 1.00091 0.66494 0.41151 0.0
H171 H 0.00634 0.62094 0.42522 0.0
H172 H 0.95964 0.56531 0.40316 0.0
H173 H 0.95641 0.63269 0.36818 0.0
O174 O 0.85217 0.1181 0.41625 0.0
Tb175 Tb 0.81845 0.10222 0.40784 0.0
Eu176 Eu 0.81584 0.02086 0.38768 0.0
C177 C 0.86136 0.11404 0.43747 0.0
O178 O 0.85239 0.09701 0.45059 0.0
C179 C 0.79631 0.05443 0.42652 0.0
O180 O 0.78592 0.00479 0.36683 0.0
C181 C 0.84815 0.99004 0.39799 0.0
C182 C 0.76582 0.01613 0.36461 0.0
O183 O 0.76396 0.03747 0.37358 0.0
C184 C 0.81789 0.07125 0.36275 0.0
C185 C 0.87341 0.98484 0.40212 0.0
C186 C 0.88747 0.99791 0.4183 0.0
C187 C 0.91107 0.99123 0.42247 0.0
C188 C 0.92016 0.97132 0.41084 0.0
C189 C 0.90613 0.95752 0.39568 0.0
C190 C 0.88293 0.96471 0.39093 0.0
O191 O 0.81534 0.06563 0.41931 0.0
O192 O 0.79339 0.03266 0.4189 0.0
O193 O 0.79692 0.12178 0.43382 0.0
O194 O 0.79324 0.12899 0.39674 0.0
C195 C 0.78644 0.13515 0.41809 0.0
O196 O 0.82948 0.05658 0.37673 0.0
O197 O 0.8157 0.09333 0.36987 0.0
O198 O 0.84156 0.99481 0.3759 0.0
O199 O 0.83638 1.00186 0.41442 0.0
H200 H 0.88014 0.01295 0.4277 0.0
H201 H 0.93816 0.96589 0.41449 0.0
H202 H 0.87186 0.95396 0.37942 0.0
O203 O 0.38525 0.85286 0.41602 0.0
Tb204 Tb 0.40155 0.81951 0.40696 0.0
Eu205 Eu 0.48249 0.81781 0.38644 0.0
C206 C 0.38979 0.86204 0.43714 0.0
O207 O 0.40745 0.8534 0.44961 0.0
C208 C 0.4498 0.79826 0.42569 0.0
O209 O 0.49826 0.78742 0.36604 0.0
C210 C 0.51369 0.85015 0.39553 0.0
C211 C 0.48683 0.76733 0.36398 0.0
O212 O 0.46542 0.76562 0.37283 0.0
C213 C 0.4321 0.81947 0.36151 0.0
C214 C 0.5198 0.87553 0.39727 0.0
C215 C 0.50975 0.89069 0.41458 0.0
C216 C 0.51778 0.91415 0.41673 0.0
C217 C 0.53616 0.92203 0.40189 0.0
C218 C 0.54673 0.90707 0.385 0.0
C219 C 0.53815 0.88396 0.3826 0.0
O220 O 0.43832 0.81689 0.41795 0.0
O221 O 0.4716 0.79557 0.4181 0.0
O222 O 0.38283 0.79737 0.43305 0.0
O223 O 0.37499 0.79395 0.39607 0.0
C224 C 0.36936 0.7868 0.41745 0.0
O225 O 0.44681 0.83131 0.37524 0.0
O226 O 0.41011 0.81705 0.36887 0.0
O227 O 0.51003 0.84146 0.37396 0.0
O228 O 0.50054 0.84039 0.41228 0.0
H229 H 0.49603 0.88429 0.42644 0.0
H230 H 0.54324 0.9396 0.40462 0.0
H231 H 0.54625 0.87218 0.3697 0.0
O232 O 0.35335 0.88665 0.91619 0.0
Tb233 Tb 0.32027 0.90363 0.90745 0.0
Eu234 Eu 0.31955 0.98426 0.88717 0.0
C235 C 0.3626 0.89069 0.93739 0.0
O236 O 0.3542 0.90821 0.95023 0.0
C237 C 0.29884 0.95177 0.92593 0.0
O238 O 0.28997 0.99986 0.86551 0.0
C239 C 0.35154 0.01557 0.89725 0.0
C240 C 0.26983 0.98862 0.86306 0.0
O241 O 0.26747 0.96756 0.8726 0.0
C242 C 0.32167 0.93392 0.86199 0.0
C243 C 0.37684 0.02188 0.89925 0.0
C244 C 0.39266 0.00984 0.91449 0.0
C245 C 0.41625 0.01751 0.91649 0.0
C246 C 0.42368 0.03729 0.90337 0.0
C247 C 0.40788 0.05029 0.88926 0.0
C248 C 0.38458 0.04214 0.88698 0.0
O249 O 0.31769 0.94029 0.91872 0.0
O250 O 0.29632 0.97353 0.91818 0.0
O251 O 0.29897 0.88363 0.93326 0.0
O252 O 0.29293 0.87906 0.89609 0.0
C253 C 0.28689 0.87192 0.91736 0.0
O254 O 0.33323 0.94861 0.87602 0.0
O255 O 0.31918 0.91192 0.86926 0.0
O256 O 0.34303 0.01234 0.87556 0.0
O257 O 0.34188 1.00183 0.91357 0.0
H258 H 0.38668 0.99483 0.92486 0.0
H259 H 0.44178 0.04323 0.9051 0.0
H260 H 0.37201 0.0522 0.8765 0.0
O261 O 0.6173 0.35209 0.9174 0.0
Tb262 Tb 0.59898 0.31949 0.90938 0.0
Eu263 Eu 0.5186 0.31885 0.88694 0.0
C264 C 0.61319 0.36241 0.93808 0.0
O265 O 0.59503 0.35532 0.95085 0.0
C266 C 0.54967 0.30053 0.92874 0.0
O267 O 0.5076 0.28581 0.86743 0.0
C268 C 0.48575 0.35048 0.89116 0.0
C269 C 0.48623 0.28256 0.85886 0.0
O270 O 0.47079 0.29978 0.86003 0.0
C271 C 0.56961 0.32196 0.8638 0.0
C272 C 0.4798 0.37586 0.89291 0.0
C273 C 0.48981 0.39093 0.91033 0.0
C274 C 0.48257 0.41469 0.91188 0.0
C275 C 0.4652 0.42301 0.8961 0.0
C276 C 0.45466 0.40812 0.87916 0.0
C277 C 0.46213 0.3846 0.8776 0.0
O278 O 0.56227 0.31853 0.92113 0.0
O279 O 0.52788 0.29888 0.92071 0.0
O280 O 0.62156 0.30001 0.93436 0.0
O281 O 0.61997 0.28918 0.89812 0.0
C282 C 0.63005 0.28531 0.91867 0.0
O283 O 0.55474 0.33272 0.87824 0.0
O284 O 0.59163 0.31977 0.87102 0.0
O285 O 0.49344 0.34275 0.87031 0.0
O286 O 0.49566 0.34004 0.90968 0.0
H287 H 0.50297 0.38426 0.92267 0.0
H288 H 0.45878 0.44094 0.89801 0.0
H289 H 0.45386 0.37291 0.86471 0.0
O290 O 0.15134 0.61403 0.92128 0.0
Tb291 Tb 0.1837 0.59945 0.90684 0.0
Eu292 Eu 0.18734 0.51828 0.88647 0.0
C293 C 0.1479 0.61115 0.94438 0.0
O294 O 0.16191 0.59662 0.95592 0.0
C295 C 0.20806 0.55194 0.92401 0.0
O296 O 0.21744 0.5036 0.8648 0.0
C297 C 0.15662 0.48612 0.89775 0.0
C298 C 0.23652 0.51629 0.86116 0.0
O299 O 0.23723 0.53804 0.86921 0.0
C300 C 0.18155 0.56862 0.8615 0.0
C301 C 0.13129 0.48013 0.90025 0.0
C302 C 0.11591 0.49244 0.91575 0.0
C303 C 0.09216 0.48533 0.91797 0.0
C304 C 0.08412 0.46589 0.90471 0.0
C305 C 0.09947 0.45258 0.89034 0.0
C306 C 0.12296 0.46013 0.88794 0.0
O307 O 0.1888 0.5627 0.91683 0.0
O308 O 0.21105 0.53012 0.91666 0.0
O309 O 0.20567 0.62784 0.89313 0.0
O310 O 0.21002 0.61728 0.92938 0.0
C311 C 0.21693 0.6321 0.91294 0.0
O312 O 0.17143 0.55321 0.87586 0.0
O313 O 0.18274 0.59078 0.86866 0.0
O314 O 0.16461 0.48926 0.87581 0.0
O315 O 0.16652 0.5001 0.9137 0.0
H316 H 0.12233 0.50726 0.92614 0.0
H317 H 0.06586 0.46048 0.9065 0.0
H318 H 0.1352 0.44988 0.87725 0.0
O319 O 0.88739 0.15022 0.91476 0.0
Tb320 Tb 0.90399 0.18211 0.90146 0.0
Eu321 Eu 0.9875 0.18451 0.88808 0.0
C322 C 0.89302 0.14192 0.936 0.0
O323 O 0.91203 0.15002 0.94666 0.0
C324 C 0.95206 0.20126 0.92655 0.0
O325 O 1.00025 0.21947 0.87397 0.0
C326 C 0.02067 0.15367 0.89471 0.0
C327 C 0.0155 0.2226 0.8565 0.0
O328 O 0.02457 0.20432 0.84536 0.0
C329 C 0.93867 0.17875 0.85893 0.0
C330 C 0.02719 0.12834 0.89508 0.0
C331 C 0.01832 0.11255 0.91247 0.0
C332 C 0.0267 0.08918 0.9135 0.0
C333 C 0.04422 0.08194 0.89734 0.0
C334 C 0.05362 0.09749 0.88026 0.0
C335 C 0.04473 0.12058 0.87908 0.0
O336 O 0.94023 0.18539 0.91427 0.0
O337 O 0.97477 0.20257 0.92188 0.0
O338 O 0.87551 0.20225 0.88523 0.0
O339 O 0.88567 0.21034 0.92091 0.0
C340 C 0.87085 0.2153 0.90378 0.0
O341 O 0.95276 0.16957 0.87519 0.0
O342 O 0.91605 0.18082 0.8641 0.0
O343 O 0.01609 0.16322 0.87369 0.0
O344 O 0.00761 0.16211 0.91226 0.0
H345 H 0.00524 0.11842 0.92532 0.0
H346 H 0.05166 0.06442 0.89918 0.0
H347 H 0.052 0.13284 0.86611 0.0
O348 O 0.35042 0.61928 0.59758 0.0
Tb349 Tb 0.31745 0.60173 0.60567 0.0
Eu350 Eu 0.31707 0.5213 0.62702 0.0
C351 C 0.36073 0.61448 0.57706 0.0
O352 O 0.35332 0.59613 0.56477 0.0
C353 C 0.29752 0.55307 0.58703 0.0
O354 O 0.28659 0.50576 0.64745 0.0
C355 C 0.34971 0.49025 0.61869 0.0
C356 C 0.26654 0.51727 0.64921 0.0
O357 O 0.26498 0.53852 0.63996 0.0
C358 C 0.31812 0.57198 0.65148 0.0
C359 C 0.37513 0.48432 0.61705 0.0
C360 C 0.39033 0.49452 0.59987 0.0
C361 C 0.41384 0.48667 0.59781 0.0
C362 C 0.42175 0.46829 0.61261 0.0
C363 C 0.40675 0.45756 0.62937 0.0
C364 C 0.38358 0.46597 0.63169 0.0
O365 O 0.31597 0.56492 0.59469 0.0
O366 O 0.29499 0.53138 0.59497 0.0
O367 O 0.28904 0.62572 0.61551 0.0
O368 O 0.29654 0.62052 0.57868 0.0
C369 C 0.28351 0.63211 0.59387 0.0
O370 O 0.33006 0.55733 0.63777 0.0
O371 O 0.31536 0.59385 0.64391 0.0
O372 O 0.34098 0.49431 0.64017 0.0
O373 O 0.33987 0.50293 0.60164 0.0
H374 H 0.38392 0.50824 0.58803 0.0
H375 H 0.43937 0.46134 0.60994 0.0
H376 H 0.37176 0.45774 0.64449 0.0
O377 O 0.88605 0.35072 0.59685 0.0
Tb378 Tb 0.90418 0.31787 0.60391 0.0
Eu379 Eu 0.98392 0.3182 0.627 0.0
C380 C 0.89025 0.36152 0.57646 0.0
O381 O 0.90825 0.3545 0.56344 0.0
C382 C 0.95313 0.2984 0.58629 0.0
O383 O 0.99976 0.28818 0.64787 0.0
C384 C 0.01458 0.35129 0.61888 0.0
C385 C 0.98878 0.2678 0.6494 0.0
O386 O 0.96783 0.26556 0.6396 0.0
C387 C 0.93267 0.31859 0.65036 0.0
C388 C 0.02042 0.37671 0.61697 0.0
C389 C 0.01029 0.39168 0.59956 0.0
C390 C 0.01814 0.4152 0.59729 0.0
C391 C 0.03646 0.42329 0.61208 0.0
C392 C 0.04711 0.40851 0.62907 0.0
C393 C 0.03865 0.38537 0.63163 0.0
O394 O 0.94111 0.31696 0.59335 0.0
O395 O 0.97458 0.29589 0.59489 0.0
O396 O 0.88184 0.28774 0.61254 0.0
O397 O 0.88498 0.29823 0.57623 0.0
C398 C 0.87467 0.28357 0.59083 0.0
O399 O 0.9475 0.3307 0.63699 0.0
O400 O 0.911 0.31568 0.64231 0.0
O401 O 0.0102 0.34281 0.64039 0.0
O402 O 0.00238 0.34105 0.6017 0.0
H403 H 0.99663 0.3851 0.58773 0.0
H404 H 0.04343 0.44089 0.60924 0.0
H405 H 0.04679 0.37373 0.64463 0.0
O406 O 0.15167 0.88719 0.59801 0.0
Tb407 Tb 0.18492 0.90386 0.60692 0.0
Eu408 Eu 0.18677 0.98477 0.62763 0.0
C409 C 0.14278 0.89096 0.57661 0.0
O410 O 0.15167 0.90808 0.56354 0.0
C411 C 0.20603 0.95217 0.58814 0.0
O412 O 0.21745 1.00021 0.64786 0.0
C413 C 0.1546 0.01632 0.61918 0.0
C414 C 0.23745 0.98864 0.64979 0.0
O415 O 0.23895 0.96724 0.6409 0.0
C416 C 0.18505 0.9343 0.65249 0.0
C417 C 0.12927 0.02279 0.61803 0.0
C418 C 0.11368 0.01326 0.60079 0.0
C419 C 0.09028 0.02157 0.59927 0.0
C420 C 0.08287 0.03969 0.61464 0.0
C421 C 0.09824 0.0498 0.63143 0.0
C422 C 0.12132 0.04098 0.63319 0.0
O423 O 0.18744 0.94065 0.59598 0.0
O424 O 0.20876 0.97397 0.59573 0.0
O425 O 0.20696 0.88507 0.5808 0.0
O426 O 0.21086 0.87771 0.61782 0.0
C427 C 0.21782 0.87189 0.59643 0.0
O428 O 0.1732 0.94909 0.63886 0.0
O429 O 0.18733 0.91233 0.64504 0.0
O430 O 0.16372 0.01259 0.64054 0.0
O431 O 0.16381 0.00299 0.60225 0.0
H432 H 0.1197 0.99974 0.5885 0.0
H433 H 0.06532 0.04696 0.61239 0.0
H434 H 0.13343 0.04878 0.64599 0.0
O435 O 0.61811 0.15036 0.60104 0.0
Tb436 Tb 0.60249 0.18405 0.61 0.0
Eu437 Eu 0.52078 0.1873 0.6276 0.0
C438 C 0.6131 0.14088 0.58017 0.0
O439 O 0.59505 0.1492 0.56807 0.0
C440 C 0.55491 0.20504 0.58874 0.0
O441 O 0.50481 0.21822 0.64694 0.0
C442 C 0.4896 0.15487 0.6186 0.0
C443 C 0.5163 0.23827 0.64881 0.0
O444 O 0.53782 0.23976 0.64019 0.0
C445 C 0.57028 0.18581 0.65437 0.0
C446 C 0.4836 0.12942 0.61725 0.0
C447 C 0.49363 0.11413 0.60005 0.0
C448 C 0.4857 0.09062 0.59814 0.0
C449 C 0.46742 0.0828 0.61313 0.0
C450 C 0.45685 0.09786 0.62993 0.0
C451 C 0.46533 0.12105 0.63207 0.0
O452 O 0.56597 0.18694 0.59821 0.0
O453 O 0.53289 0.20826 0.5954 0.0
O454 O 0.62117 0.20722 0.58481 0.0
O455 O 0.63076 0.20735 0.62156 0.0
C456 C 0.63578 0.2159 0.60056 0.0
O457 O 0.55586 0.17369 0.64056 0.0
O458 O 0.5925 0.18782 0.64764 0.0
O459 O 0.49291 0.16398 0.64004 0.0
O460 O 0.50304 0.16431 0.60191 0.0
H461 H 0.50727 0.12047 0.58805 0.0
H462 H 0.46039 0.06519 0.61057 0.0
H463 H 0.45719 0.13292 0.64487 0.0
C464 C 0.75547 0.34655 0.08505 0.0
C465 C 0.76172 0.35448 0.10804 0.0
C466 C 0.74749 0.32336 0.08172 0.0
C467 C 0.72637 0.27006 0.11436 0.0
H468 H 0.76046 0.23526 0.06548 0.0
C469 C 0.73412 0.17032 0.12031 0.0
C470 C 0.72778 0.15747 0.0998 0.0
C471 C 0.7385 0.19448 0.11883 0.0
C472 C 0.75065 0.24479 0.07904 0.0
H473 H 0.76288 0.34531 0.14566 0.0
H474 H 0.7486 0.30528 0.14004 0.0
H475 H 0.76372 0.27832 0.06719 0.0
H476 H 0.72297 0.15932 0.06133 0.0
H477 H 0.73091 0.2018 0.05869 0.0
H478 H 0.71384 0.23662 0.12666 0.0
C479 C 0.74984 0.31667 0.12451 0.0
C480 C 0.75236 0.26945 0.07993 0.0
C481 C 0.75801 0.33965 0.12778 0.0
C482 C 0.72792 0.16882 0.07741 0.0
C483 C 0.73234 0.19313 0.07592 0.0
C484 C 0.72477 0.24551 0.11354 0.0
C485 C 0.74534 0.30793 0.10137 0.0
C486 C 0.74066 0.28231 0.09798 0.0
C487 C 0.73662 0.20635 0.09681 0.0
C488 C 0.73734 0.23255 0.09626 0.0
H489 H 0.75842 0.35761 0.0695 0.0
H490 H 0.74389 0.31722 0.0637 0.0
H491 H 0.71678 0.27943 0.1282 0.0
H492 H 0.73428 0.16198 0.13778 0.0
H493 H 0.74238 0.2041 0.13515 0.0
C494 C 0.16299 0.75834 0.10383 0.0
C495 C 0.15144 0.77011 0.08511 0.0
C496 C 0.18613 0.7504 0.10095 0.0
C497 C 0.23949 0.76365 0.06516 0.0
H498 H 0.26477 0.71156 0.10206 0.0
C499 C 0.33855 0.73107 0.06911 0.0
C500 C 0.34678 0.72829 0.09272 0.0
C501 C 0.31483 0.73686 0.06484 0.0
C502 C 0.25792 0.72614 0.09162 0.0
H503 H 0.15425 0.78123 0.04809 0.0
H504 H 0.19454 0.76666 0.04272 0.0
H505 H 0.22221 0.7168 0.09934 0.0
H506 H 0.33727 0.73113 0.13025 0.0
H507 H 0.2961 0.74096 0.12276 0.0
H508 H 0.27557 0.7727 0.05742 0.0
C509 C 0.18598 0.76414 0.05988 0.0
C510 C 0.23354 0.72922 0.09012 0.0
C511 C 0.1628 0.77223 0.06284 0.0
C512 C 0.33142 0.73303 0.11187 0.0
C513 C 0.30782 0.7385 0.10762 0.0
C514 C 0.26397 0.76031 0.06637 0.0
C515 C 0.19824 0.75384 0.07917 0.0
C516 C 0.22397 0.74845 0.07751 0.0
C517 C 0.29911 0.73965 0.08412 0.0
C518 C 0.27336 0.74193 0.08022 0.0
H519 H 0.15471 0.75656 0.12124 0.0
H520 H 0.19494 0.74283 0.11634 0.0
H521 H 0.23285 0.7788 0.05546 0.0
H522 H 0.35002 0.72745 0.05402 0.0
H523 H 0.30849 0.73778 0.04655 0.0
C524 C 0.74651 0.34161 0.40798 0.0
C525 C 0.73619 0.35406 0.42699 0.0
C526 C 0.75449 0.31855 0.41125 0.0
C527 C 0.74338 0.26678 0.44995 0.0
H528 H 0.79236 0.23959 0.41009 0.0
C529 C 0.77457 0.16721 0.44672 0.0
C530 C 0.77535 0.15817 0.42326 0.0
C531 C 0.76938 0.19112 0.45067 0.0
C532 C 0.77866 0.24697 0.42137 0.0
H533 H 0.72773 0.35293 0.46483 0.0
H534 H 0.74237 0.31271 0.47082 0.0
H535 H 0.78786 0.28228 0.41182 0.0
H536 H 0.76963 0.16648 0.38579 0.0
H537 H 0.76086 0.20801 0.39267 0.0
H538 H 0.73448 0.2311 0.45951 0.0
C539 C 0.74373 0.32054 0.45318 0.0
C540 C 0.776 0.27143 0.42231 0.0
C541 C 0.73561 0.34368 0.44984 0.0
C542 C 0.76925 0.17295 0.40406 0.0
C543 C 0.76439 0.19676 0.40795 0.0
C544 C 0.74633 0.24223 0.44928 0.0
C545 C 0.75254 0.3074 0.43371 0.0
C546 C 0.75783 0.28168 0.43597 0.0
C547 C 0.7652 0.20624 0.43117 0.0
C548 C 0.76353 0.23213 0.43439 0.0
H549 H 0.74709 0.34912 0.39014 0.0
H550 H 0.76087 0.30905 0.39571 0.0
H551 H 0.72906 0.27395 0.46051 0.0
H552 H 0.77929 0.1562 0.46184 0.0
H553 H 0.77001 0.19806 0.46874 0.0
C554 C 0.16385 0.74566 0.40842 0.0
C555 C 0.15139 0.73464 0.42703 0.0
C556 C 0.18683 0.75374 0.41207 0.0
C557 C 0.2386 0.74163 0.45021 0.0
H558 H 0.26533 0.7924 0.41237 0.0
C559 C 0.33803 0.77412 0.44658 0.0
C560 C 0.34664 0.77522 0.42295 0.0
C561 C 0.31426 0.76858 0.45091 0.0
C562 C 0.25807 0.77822 0.42312 0.0
H563 H 0.15243 0.72496 0.46456 0.0
H564 H 0.19257 0.73966 0.47119 0.0
H565 H 0.22265 0.78763 0.41426 0.0
H566 H 0.33775 0.76965 0.38559 0.0
H567 H 0.29645 0.7603 0.39316 0.0
H568 H 0.27441 0.73247 0.45902 0.0
C569 C 0.18477 0.74156 0.45359 0.0
C570 C 0.23363 0.7754 0.42414 0.0
C571 C 0.16169 0.73339 0.44989 0.0
C572 C 0.33162 0.76903 0.40397 0.0
C573 C 0.30794 0.76382 0.40826 0.0
C574 C 0.26315 0.74471 0.44947 0.0
C575 C 0.1979 0.75114 0.43449 0.0
C576 C 0.22356 0.75658 0.437 0.0
C577 C 0.29887 0.76437 0.43165 0.0
C578 C 0.27305 0.76258 0.43527 0.0
H579 H 0.15639 0.74679 0.39059 0.0
H580 H 0.19634 0.76072 0.3968 0.0
H581 H 0.23155 0.72682 0.46015 0.0
H582 H 0.34925 0.77889 0.46153 0.0
H583 H 0.30761 0.769 0.46911 0.0
C584 C 0.27568 0.83837 0.9444 0.0
C585 C 0.27489 0.84919 0.92174 0.0
C586 C 0.26978 0.81445 0.94694 0.0
C587 C 0.27307 0.76092 0.91148 0.0
H588 H 0.23048 0.73181 0.95709 0.0
C589 C 0.23628 0.66821 0.89735 0.0
C590 C 0.23055 0.65393 0.91703 0.0
C591 C 0.24479 0.69104 0.90077 0.0
C592 C 0.24284 0.73959 0.94458 0.0
H593 H 0.26546 0.84415 0.88445 0.0
H594 H 0.25523 0.80263 0.88887 0.0
H595 H 0.23686 0.77459 0.95821 0.0
H596 H 0.23043 0.65175 0.95578 0.0
H597 H 0.24578 0.69182 0.96186 0.0
H598 H 0.27929 0.72629 0.89781 0.0
C599 C 0.26069 0.81244 0.90459 0.0
C600 C 0.24633 0.7641 0.94515 0.0
C601 C 0.26635 0.83627 0.90211 0.0
C602 C 0.2348 0.66241 0.94029 0.0
C603 C 0.24332 0.68542 0.94375 0.0
C604 C 0.26984 0.73653 0.9111 0.0
C605 C 0.26323 0.80107 0.92679 0.0
C606 C 0.26094 0.77502 0.92811 0.0
C607 C 0.24786 0.70022 0.92399 0.0
C608 C 0.25412 0.72559 0.92712 0.0
H609 H 0.28227 0.84794 0.95982 0.0
H610 H 0.27177 0.80609 0.96427 0.0
H611 H 0.28489 0.76885 0.89851 0.0
H612 H 0.23309 0.66216 0.87922 0.0
H613 H 0.24776 0.70191 0.88509 0.0
C614 C 0.66318 0.26236 0.90104 0.0
C615 C 0.65279 0.27288 0.92123 0.0
C616 C 0.687 0.2561 0.90125 0.0
C617 C 0.73935 0.2452 0.93864 0.0
H618 H 0.7729 0.2701 0.88356 0.0
C619 C 0.84076 0.23574 0.92938 0.0
C620 C 0.84851 0.22838 0.90667 0.0
C621 C 0.81754 0.2437 0.93259 0.0
C622 C 0.76384 0.26284 0.89898 0.0
H623 H 0.6586 0.2833 0.95813 0.0
H624 H 0.70031 0.27192 0.95863 0.0
H625 H 0.73048 0.27575 0.88682 0.0
H626 H 0.83864 0.22472 0.86936 0.0
H627 H 0.79843 0.23833 0.87485 0.0
H628 H 0.77267 0.23171 0.95049 0.0
C629 C 0.69003 0.26874 0.94259 0.0
C630 C 0.73949 0.26606 0.90082 0.0
C631 C 0.66616 0.27517 0.94232 0.0
C632 C 0.83317 0.23038 0.88705 0.0
C633 C 0.81007 0.23828 0.89023 0.0
C634 C 0.76377 0.24175 0.93668 0.0
C635 C 0.70091 0.26007 0.92171 0.0
C636 C 0.72691 0.25697 0.92046 0.0
C637 C 0.80172 0.24448 0.91313 0.0
C638 C 0.77627 0.25023 0.91662 0.0
H639 H 0.6533 0.26032 0.88455 0.0
H640 H 0.6948 0.249 0.88506 0.0
H641 H 0.7301 0.23805 0.954 0.0
H642 H 0.85223 0.2343 0.94483 0.0
H643 H 0.81183 0.24871 0.9504 0.0
C644 C 0.23028 0.84025 0.56758 0.0
C645 C 0.22948 0.8492 0.59108 0.0
C646 C 0.23587 0.81645 0.56352 0.0
C647 C 0.227 0.76061 0.59242 0.0
H648 H 0.27756 0.73383 0.55442 0.0
C649 C 0.25966 0.66644 0.60714 0.0
C650 C 0.27016 0.6538 0.58836 0.0
C651 C 0.25167 0.68944 0.60354 0.0
C652 C 0.26298 0.74095 0.56466 0.0
H653 H 0.23568 0.8409 0.62848 0.0
H654 H 0.24515 0.79955 0.62139 0.0
H655 H 0.27184 0.77667 0.55518 0.0
H656 H 0.27909 0.65459 0.55063 0.0
H657 H 0.26452 0.69477 0.54408 0.0
H658 H 0.21786 0.72528 0.60193 0.0
C659 C 0.24133 0.8108 0.60617 0.0
C660 C 0.25986 0.76549 0.56518 0.0
C661 C 0.23606 0.83449 0.61019 0.0
C662 C 0.27103 0.66398 0.56543 0.0
C663 C 0.26295 0.68709 0.56177 0.0
C664 C 0.22984 0.73618 0.59162 0.0
C665 C 0.24047 0.80136 0.58294 0.0
C666 C 0.24231 0.77551 0.57969 0.0
C667 C 0.25383 0.70037 0.58099 0.0
C668 C 0.24837 0.72601 0.57841 0.0
H669 H 0.22521 0.8512 0.55254 0.0
H670 H 0.2352 0.80953 0.54544 0.0
H671 H 0.21304 0.76795 0.60341 0.0
H672 H 0.25883 0.65907 0.62504 0.0
H673 H 0.24506 0.69907 0.6189 0.0
C674 C 0.66619 0.23025 0.57119 0.0
C675 C 0.65859 0.22726 0.595 0.0
C676 C 0.68983 0.23588 0.56628 0.0
C677 C 0.74739 0.22444 0.59108 0.0
H678 H 0.7718 0.27815 0.556 0.0
C679 C 0.8417 0.25764 0.60371 0.0
C680 C 0.8532 0.26987 0.58526 0.0
C681 C 0.81873 0.24932 0.60056 0.0
C682 C 0.76532 0.26272 0.56535 0.0
H683 H 0.66918 0.22946 0.63227 0.0
H684 H 0.71023 0.23901 0.62368 0.0
H685 H 0.72911 0.27191 0.55862 0.0
H686 H 0.8505 0.28148 0.54838 0.0
H687 H 0.81039 0.2664 0.54258 0.0
H688 H 0.78324 0.21503 0.59791 0.0
C689 C 0.69807 0.23685 0.60886 0.0
C690 C 0.74087 0.25929 0.56695 0.0
C691 C 0.67453 0.23155 0.61375 0.0
C692 C 0.84199 0.2721 0.56293 0.0
C693 C 0.81892 0.26371 0.55972 0.0
C694 C 0.77173 0.22763 0.58921 0.0
C695 C 0.70611 0.23829 0.58512 0.0
C696 C 0.73174 0.24054 0.5805 0.0
C697 C 0.80672 0.25291 0.57878 0.0
C698 C 0.78106 0.24727 0.57704 0.0
H699 H 0.65424 0.22696 0.55641 0.0
H700 H 0.69566 0.23702 0.54783 0.0
H701 H 0.74073 0.20959 0.60128 0.0
H702 H 0.84989 0.25572 0.62115 0.0
H703 H 0.80995 0.24137 0.61578 0.0
C704 C 0.6207 0.14722 0.06855 0.0
C705 C 0.63358 0.12942 0.05689 0.0
C706 C 0.60985 0.16523 0.05532 0.0
C707 C 0.60225 0.20915 0.02487 0.0
H708 H 0.57913 0.19712 0.96069 0.0
C709 C 0.57801 0.28518 0.95961 0.0
C710 C 0.5595 0.28122 0.94345 0.0
C711 C 0.58665 0.2667 0.97382 0.0
C712 C 0.58518 0.20089 0.97869 0.0
H713 H 0.64455 0.11624 0.0221 0.0
H714 H 0.62648 0.14764 0.99933 0.0
H715 H 0.59215 0.16449 0.98523 0.0
H716 H 0.53458 0.25521 0.93036 0.0
H717 H 0.54865 0.22352 0.95571 0.0
H718 H 0.59417 0.24552 0.01862 0.0
C719 C 0.62413 0.14763 0.01858 0.0
C720 C 0.59305 0.18209 0.99271 0.0
C721 C 0.63466 0.12956 0.03173 0.0
C722 C 0.5492 0.25872 0.94235 0.0
C723 C 0.55747 0.24043 0.95678 0.0
C724 C 0.59398 0.22798 0.01094 0.0
C725 C 0.61183 0.16593 0.03015 0.0
C726 C 0.60195 0.18593 0.01591 0.0
C727 C 0.57648 0.24402 0.97258 0.0
C728 C 0.58542 0.22412 0.98759 0.0
H729 H 0.61953 0.14762 0.08792 0.0
H730 H 0.60015 0.17873 0.06487 0.0
H731 H 0.60927 0.21294 0.04249 0.0
H732 H 0.58553 0.30264 0.96154 0.0
H733 H 0.60137 0.27023 0.98566 0.0
C734 C 0.22114 0.57526 0.95949 0.0
C735 C 0.22666 0.56364 0.93803 0.0
C736 C 0.23914 0.58359 0.97443 0.0
C737 C 0.30186 0.60009 0.9758 0.0
H738 H 0.29845 0.58316 0.04305 0.0
C739 C 0.3799 0.61869 0.03864 0.0
C740 C 0.37446 0.62788 0.06135 0.0
C741 C 0.36224 0.60885 0.02428 0.0
C742 C 0.2996 0.58828 0.0244 0.0
H743 H 0.25504 0.5515 0.91519 0.0
H744 H 0.28655 0.56645 0.94101 0.0
H745 H 0.26629 0.57228 0.01616 0.0
H746 H 0.34642 0.63281 0.08734 0.0
H747 H 0.3156 0.61615 0.06221 0.0
H748 H 0.33481 0.61655 0.98394 0.0
C749 C 0.26837 0.56933 0.94625 0.0
C750 C 0.28114 0.58205 0.009 0.0
C751 C 0.25039 0.56076 0.93151 0.0
C752 C 0.35125 0.62577 0.06997 0.0
C753 C 0.33353 0.61617 0.05551 0.0
C754 C 0.32019 0.60655 0.99121 0.0
C755 C 0.26294 0.58046 0.96807 0.0
C756 C 0.28212 0.58784 0.98454 0.0
C757 C 0.33867 0.60821 0.03219 0.0
C758 C 0.31937 0.60066 0.01572 0.0
H759 H 0.20298 0.57711 0.96514 0.0
H760 H 0.23446 0.5922 0.99109 0.0
H761 H 0.30297 0.60498 0.95706 0.0
H762 H 0.39766 0.6199 0.03155 0.0
H763 H 0.367 0.6023 0.0067 0.0
C764 C 0.84021 0.33266 0.05386 0.0
C765 C 0.85037 0.35363 0.06249 0.0
C766 C 0.85393 0.31587 0.04217 0.0
C767 C 0.90357 0.31004 1.00331 0.0
H768 H 0.90046 0.2435 0.01929 0.0
C769 C 0.95217 0.24045 0.94654 0.0
C770 C 0.94126 0.21845 0.94312 0.0
C771 C 0.94303 0.25668 0.96287 0.0
C772 C 0.90129 0.26195 0.01435 0.0
H773 H 0.88288 0.3734 0.06603 0.0
H774 H 0.90703 0.34404 0.04451 0.0
H775 H 0.88175 0.27244 0.04549 0.0
H776 H 0.91308 0.19565 0.95513 0.0
H777 H 0.89594 0.22452 0.98252 0.0
H778 H 0.92177 0.29975 0.9715 0.0
C779 C 0.88841 0.34066 0.04725 0.0
C780 C 0.89081 0.27852 0.02954 0.0
C781 C 0.87469 0.35735 0.05955 0.0
C782 C 0.92133 0.21277 0.9568 0.0
C783 C 0.91183 0.22921 0.97286 0.0
C784 C 0.91369 0.29346 0.98788 0.0
C785 C 0.87805 0.31983 0.03842 0.0
C786 C 0.89167 0.30267 0.02403 0.0
C787 C 0.92258 0.25143 0.97612 0.0
C788 C 0.9125 0.26914 0.99305 0.0
H789 H 0.82152 0.32924 0.05606 0.0
H790 H 0.84549 0.30008 0.03535 0.0
H791 H 0.90411 0.32854 0.99849 0.0
H792 H 0.9679 0.24515 0.93658 0.0
H793 H 0.95222 0.27326 0.96525 0.0
C794 C 0.25652 0.94666 0.93662 0.0
C795 C 0.28023 0.94085 0.94067 0.0
C796 C 0.2389 0.93849 0.95204 0.0
C797 C 0.22669 0.89515 1.00068 0.0
H798 H 0.17472 0.93764 0.01423 0.0
C799 C 0.1564 0.87406 0.07249 0.0
C800 C 0.13299 0.87537 0.06423 0.0
C801 C 0.17483 0.88378 0.05902 0.0
C802 C 0.1891 0.92558 0.01057 0.0
H803 H 0.30432 0.92235 0.96409 0.0
H804 H 0.27362 0.90828 0.99141 0.0
H805 H 0.20602 0.95003 0.98704 0.0
H806 H 0.11043 0.88921 0.03621 0.0
H807 H 0.14254 0.90664 0.01302 0.0
H808 H 0.20976 0.87085 0.02457 0.0
C809 C 0.26845 0.91859 0.97595 0.0
C810 C 0.20699 0.93258 0.99485 0.0
C811 C 0.28606 0.9266 0.96033 0.0
C812 C 0.12826 0.88792 0.04305 0.0
C813 C 0.14665 0.89791 0.02977 0.0
C814 C 0.20891 0.88826 0.01663 0.0
C815 C 0.24464 0.92471 0.97219 0.0
C816 C 0.22591 0.91737 0.98946 0.0
C817 C 0.17019 0.89532 0.03724 0.0
C818 C 0.18982 0.90333 0.02157 0.0
H819 H 0.2516 0.95772 0.9216 0.0
H820 H 0.22076 0.94315 0.94821 0.0
H821 H 0.24076 0.88282 0.99676 0.0
H822 H 0.16068 0.86442 0.08867 0.0
H823 H 0.19278 0.88178 0.06534 0.0
C824 C 0.62479 0.35621 0.44738 0.0
C825 C 0.63954 0.34701 0.42941 0.0
C826 C 0.61369 0.34116 0.46379 0.0
C827 C 0.59893 0.27811 0.47571 0.0
H828 H 0.60132 0.29776 0.54224 0.0
C829 C 0.58082 0.21341 0.55356 0.0
C830 C 0.56623 0.22169 0.57203 0.0
C831 C 0.58953 0.22897 0.5362 0.0
C832 C 0.60033 0.2921 0.52373 0.0
H833 H 0.65312 0.31468 0.41381 0.0
H834 H 0.63405 0.28861 0.44239 0.0
H835 H 0.61504 0.32453 0.511 0.0
H836 H 0.54897 0.25248 0.58683 0.0
H837 H 0.56423 0.27974 0.55661 0.0
H838 H 0.58454 0.24553 0.48854 0.0
C839 C 0.63084 0.30738 0.44381 0.0
C840 C 0.60808 0.30749 0.50578 0.0
C841 C 0.64187 0.3224 0.42741 0.0
C842 C 0.5605 0.24576 0.57293 0.0
C843 C 0.56929 0.26134 0.55568 0.0
C844 C 0.59128 0.26269 0.49367 0.0
C845 C 0.61709 0.31659 0.46259 0.0
C846 C 0.60756 0.30067 0.48153 0.0
C847 C 0.58369 0.25308 0.53695 0.0
C848 C 0.59197 0.26946 0.51789 0.0
H849 H 0.62256 0.37508 0.44941 0.0
H850 H 0.60284 0.34882 0.47774 0.0
H851 H 0.59795 0.27238 0.45722 0.0
H852 H 0.58504 0.19483 0.55221 0.0
H853 H 0.60074 0.22209 0.52212 0.0
C854 C 0.12597 0.61734 0.47085 0.0
C855 C 0.13124 0.62917 0.44939 0.0
C856 C 0.14398 0.60747 0.4847 0.0
C857 C 0.208 0.59178 0.48478 0.0
H858 H 0.20126 0.60136 0.55328 0.0
C859 C 0.28465 0.57746 0.55214 0.0
C860 C 0.27888 0.56381 0.57228 0.0
C861 C 0.26687 0.58571 0.53688 0.0
C862 C 0.20334 0.59845 0.5342 0.0
H863 H 0.15943 0.63881 0.42498 0.0
H864 H 0.19084 0.62206 0.4493 0.0
H865 H 0.16962 0.6134 0.52647 0.0
H866 H 0.25028 0.54786 0.59229 0.0
H867 H 0.2192 0.56257 0.56593 0.0
H868 H 0.24204 0.57726 0.49272 0.0
C869 C 0.1728 0.62006 0.45536 0.0
C870 C 0.18513 0.60518 0.5188 0.0
C871 C 0.15474 0.6297 0.44137 0.0
C872 C 0.25513 0.55864 0.57703 0.0
C873 C 0.23736 0.56709 0.56198 0.0
C874 C 0.22633 0.58525 0.50021 0.0
C875 C 0.16773 0.60944 0.47757 0.0
C876 C 0.18711 0.6018 0.49388 0.0
C877 C 0.24305 0.5805 0.5416 0.0
C878 C 0.22411 0.5884 0.52509 0.0
H879 H 0.10801 0.61648 0.47743 0.0
H880 H 0.13931 0.59884 0.50135 0.0
H881 H 0.21009 0.58867 0.46576 0.0
H882 H 0.30292 0.58127 0.54792 0.0
H883 H 0.27174 0.59611 0.52136 0.0
C884 C 0.88764 0.12724 0.47091 0.0
C885 C 0.87646 0.13209 0.44897 0.0
C886 C 0.89799 0.14541 0.48422 0.0
C887 C 0.89055 0.20803 0.49565 0.0
H888 H 0.95134 0.20397 0.52712 0.0
C889 C 0.92911 0.28533 0.55123 0.0
C890 C 0.94272 0.27966 0.57138 0.0
C891 C 0.92123 0.26755 0.53576 0.0
C892 C 0.93414 0.20527 0.51879 0.0
H893 H 0.86839 0.15965 0.42326 0.0
H894 H 0.88628 0.19137 0.44667 0.0
H895 H 0.93873 0.1724 0.50034 0.0
H896 H 0.95865 0.25117 0.59148 0.0
H897 H 0.94422 0.22005 0.56518 0.0
H898 H 0.88545 0.24041 0.51465 0.0
C899 C 0.88697 0.1735 0.45353 0.0
C900 C 0.92704 0.18723 0.5033 0.0
C901 C 0.87695 0.15528 0.44003 0.0
C902 C 0.94809 0.25596 0.57605 0.0
C903 C 0.94001 0.23817 0.56081 0.0
C904 C 0.89749 0.22592 0.51141 0.0
C905 C 0.89707 0.16882 0.47601 0.0
C906 C 0.90518 0.18842 0.49159 0.0
C907 C 0.9268 0.24372 0.54021 0.0
C908 C 0.91937 0.22477 0.52326 0.0
H909 H 0.88752 0.10956 0.47827 0.0
H910 H 0.90562 0.14132 0.50152 0.0
H911 H 0.87341 0.20921 0.48714 0.0
H912 H 0.92519 0.30357 0.54703 0.0
H913 H 0.9114 0.27259 0.51995 0.0
C914 C 0.34836 0.8768 0.44121 0.0
C915 C 0.37181 0.87665 0.44939 0.0
C916 C 0.33037 0.88626 0.45544 0.0
C917 C 0.31792 0.89942 0.51934 0.0
H918 H 0.26142 0.92864 0.49385 0.0
C919 C 0.24835 0.94591 0.57828 0.0
C920 C 0.22454 0.94109 0.57345 0.0
C921 C 0.26604 0.93738 0.56317 0.0
C922 C 0.27701 0.92028 0.50117 0.0
H923 H 0.39506 0.88795 0.47799 0.0
H924 H 0.36391 0.90536 0.50233 0.0
H925 H 0.29336 0.91759 0.46669 0.0
H926 H 0.20034 0.92413 0.5489 0.0
H927 H 0.2314 0.90922 0.52218 0.0
H928 H 0.3017 0.90261 0.55387 0.0
C929 C 0.35919 0.89736 0.48537 0.0
C930 C 0.29534 0.91395 0.48563 0.0
C931 C 0.37713 0.88764 0.47129 0.0
C932 C 0.21865 0.92767 0.55319 0.0
C933 C 0.23636 0.91937 0.53784 0.0
C934 C 0.29973 0.90598 0.53487 0.0
C935 C 0.33546 0.89603 0.47805 0.0
C936 C 0.31608 0.90347 0.49451 0.0
C937 C 0.26023 0.92428 0.54263 0.0
C938 C 0.2791 0.91649 0.52596 0.0
H939 H 0.34363 0.86832 0.4245 0.0
H940 H 0.31234 0.88475 0.44921 0.0
H941 H 0.33329 0.89084 0.52684 0.0
H942 H 0.25329 0.95652 0.59363 0.0
H943 H 0.28425 0.94167 0.56717 0.0
C944 C 0.38822 0.87713 0.97116 0.0
C945 C 0.3771 0.87235 0.94918 0.0
C946 C 0.39799 0.85884 0.98471 0.0
C947 C 0.38918 0.79632 0.99643 0.0
H948 H 0.44934 0.80002 0.02918 0.0
C949 C 0.42618 0.71922 0.05353 0.0
C950 C 0.43948 0.72506 0.07386 0.0
C951 C 0.4185 0.73689 0.03783 0.0
C952 C 0.43231 0.79882 0.02049 0.0
H953 H 0.36853 0.84477 0.92364 0.0
H954 H 0.38544 0.81284 0.94746 0.0
H955 H 0.43772 0.83143 1.00182 0.0
H956 H 0.45498 0.75374 0.09406 0.0
H957 H 0.44089 0.78465 0.06736 0.0
H958 H 0.38331 0.76415 0.01559 0.0
C959 C 0.38652 0.83074 0.95418 0.0
C960 C 0.42578 0.81677 1.00466 0.0
C961 C 0.37705 0.84908 0.94045 0.0
C962 C 0.44461 0.74882 0.07853 0.0
C963 C 0.43675 0.76649 0.06305 0.0
C964 C 0.39557 0.77849 0.01249 0.0
C965 C 0.39656 0.83537 0.9767 0.0
C966 C 0.40413 0.81574 0.99252 0.0
C967 C 0.42401 0.76075 0.0422 0.0
C968 C 0.41718 0.77955 0.02484 0.0
H969 H 0.38852 0.89487 0.97837 0.0
H970 H 0.40558 0.86291 1.00204 0.0
H971 H 0.37221 0.79525 0.98757 0.0
H972 H 0.42247 0.70093 0.04931 0.0
H973 H 0.40899 0.73172 0.02185 0.0
C974 C 0.75363 0.45056 0.07753 0.0
C975 C 0.77707 0.44306 0.07504 0.0
C976 C 0.73623 0.44245 0.06184 0.0
C977 C 0.72375 0.39664 0.01551 0.0
H978 H 0.67382 0.44014 0.99796 0.0
C979 C 0.65535 0.37506 0.94198 0.0
C980 C 0.63177 0.37685 0.94962 0.0
C981 C 0.67357 0.3848 0.9557 0.0
C982 C 0.68765 0.42782 1.00273 0.0
H983 H 0.80097 0.4216 0.05414 0.0
H984 H 0.77074 0.4078 0.02617 0.0
H985 H 0.7048 0.45294 0.02532 0.0
H986 H 0.6087 0.39148 0.97681 0.0
H987 H 0.64051 0.4091 1.00038 0.0
H988 H 0.70665 0.37172 0.99239 0.0
C989 C 0.76552 0.41938 0.04065 0.0
C990 C 0.70534 0.43505 0.01857 0.0
C991 C 0.78289 0.42729 0.0566 0.0
C992 C 0.62668 0.38984 0.97045 0.0
C993 C 0.64488 0.39992 0.98394 0.0
C994 C 0.70623 0.38955 0.99937 0.0
C995 C 0.74197 0.42706 0.0429 0.0
C996 C 0.72351 0.41948 0.02542 0.0
C997 C 0.66854 0.39688 0.97708 0.0
C998 C 0.68789 0.405 0.99299 0.0
H999 H 0.74875 0.46277 0.09162 0.0
H1000 H 0.71827 0.44834 0.06457 0.0
H1001 H 0.73716 0.38401 0.02059 0.0
H1002 H 0.65989 0.36504 0.92611 0.0
H1003 H 0.69165 0.38242 0.94989 0.0
C1004 C 0.11886 0.64466 0.94654 0.0
C1005 C 0.13286 0.62769 0.95813 0.0
C1006 C 0.10748 0.66232 0.95979 0.0
C1007 C 0.09895 0.70643 0.98955 0.0
H1008 H 0.0792 0.69519 0.05503 0.0
C1009 C 0.07627 0.78336 0.05393 0.0
C1010 C 0.05907 0.77947 0.07152 0.0
C1011 C 0.08443 0.76468 0.03973 0.0
C1012 C 0.08425 0.69873 0.03667 0.0
H1013 H 0.14525 0.61555 0.9928 0.0
H1014 H 0.12635 0.64644 0.01557 0.0
H1015 H 0.09209 0.66242 0.0306 0.0
H1016 H 0.03575 0.75334 0.08716 0.0
H1017 H 0.04886 0.72119 0.06177 0.0
H1018 H 0.08997 0.74262 0.99532 0.0
C1019 C 0.12348 0.64601 0.9964 0.0
C1020 C 0.09208 0.67985 0.0227 0.0
C1021 C 0.13451 0.62824 0.98324 0.0
C1022 C 0.04942 0.75679 0.07404 0.0
C1023 C 0.05715 0.73825 0.05958 0.0
C1024 C 0.09069 0.72529 1.00341 0.0
C1025 C 0.11008 0.66354 0.98489 0.0
C1026 C 0.09988 0.68345 0.99904 0.0
C1027 C 0.07495 0.74182 0.04235 0.0
C1028 C 0.08343 0.72175 0.02727 0.0
H1029 H 0.11719 0.64468 0.92721 0.0
H1030 H 0.09693 0.6752 0.9503 0.0
H1031 H 0.10508 0.71005 0.97154 0.0
H1032 H 0.08316 0.80093 0.05091 0.0
H1033 H 0.09824 0.76822 0.02682 0.0
C1034 C 0.75275 0.06242 0.08233 0.0
C1035 C 0.72893 0.06617 0.07659 0.0
C1036 C 0.77061 0.07117 0.0675 0.0
C1037 C 0.78204 0.0855 1.00494 0.0
H1038 H 0.83756 0.11754 0.02916 0.0
C1039 C 0.85178 0.12728 0.94227 0.0
C1040 C 0.87536 0.12841 0.95 0.0
C1041 C 0.83418 0.11846 0.95738 0.0
C1042 C 0.8224 0.10823 0.02209 0.0
H1043 H 0.70501 0.08164 0.05086 0.0
H1044 H 0.73625 0.09697 0.02475 0.0
H1045 H 0.80615 0.10628 0.05675 0.0
H1046 H 0.89916 0.11972 0.97907 0.0
H1047 H 0.86866 0.10344 1.00506 0.0
H1048 H 0.79838 0.08682 0.97042 0.0
C1049 C 0.7411 0.08751 0.04088 0.0
C1050 C 0.80431 0.10196 0.03792 0.0
C1051 C 0.72324 0.07903 0.05593 0.0
C1052 C 0.88114 0.11923 0.97263 0.0
C1053 C 0.86357 0.11014 0.98765 0.0
C1054 C 0.80024 0.09149 0.98914 0.0
C1055 C 0.76496 0.08337 0.04635 0.0
C1056 C 0.78391 0.09062 0.0295 0.0
C1057 C 0.83974 0.11028 0.98052 0.0
C1058 C 0.82067 0.10302 0.99747 0.0
H1059 H 0.75756 0.05227 0.09803 0.0
H1060 H 0.78882 0.06753 0.07206 0.0
H1061 H 0.76667 0.07641 0.99801 0.0
H1062 H 0.84665 0.13435 0.92501 0.0
H1063 H 0.81607 0.11911 0.95127 0.0
C1064 C 0.38692 0.6273 0.54344 0.0
C1065 C 0.37526 0.63263 0.56498 0.0
C1066 C 0.39656 0.64527 0.52936 0.0
C1067 C 0.41187 0.70937 0.52859 0.0
H1068 H 0.40127 0.70213 0.4603 0.0
C1069 C 0.42529 0.78564 0.46061 0.0
C1070 C 0.43874 0.77975 0.44038 0.0
C1071 C 0.41708 0.76794 0.47602 0.0
C1072 C 0.40445 0.70435 0.47931 0.0
H1073 H 0.36576 0.66093 0.58932 0.0
H1074 H 0.38212 0.69227 0.56461 0.0
H1075 H 0.38982 0.67058 0.48752 0.0
H1076 H 0.45435 0.75103 0.4203 0.0
H1077 H 0.43973 0.7201 0.44691 0.0
H1078 H 0.42609 0.74345 0.52018 0.0
C1079 C 0.38415 0.6742 0.55865 0.0
C1080 C 0.39806 0.6862 0.49495 0.0
C1081 C 0.37473 0.65618 0.57287 0.0
C1082 C 0.4437 0.75596 0.43563 0.0
C1083 C 0.4353 0.73828 0.45082 0.0
C1084 C 0.41805 0.72765 0.51293 0.0
C1085 C 0.39453 0.66904 0.53635 0.0
C1086 C 0.40183 0.68836 0.51979 0.0
C1087 C 0.42216 0.74409 0.47135 0.0
C1088 C 0.41453 0.72525 0.48812 0.0
H1089 H 0.38779 0.6093 0.53697 0.0
H1090 H 0.40503 0.64055 0.51264 0.0
H1091 H 0.41526 0.7116 0.54754 0.0
H1092 H 0.42166 0.80394 0.46484 0.0
H1093 H 0.40689 0.7729 0.49166 0.0
C1094 C 0.74847 0.44933 0.43902 0.0
C1095 C 0.72475 0.44361 0.44325 0.0
C1096 C 0.7661 0.44134 0.45449 0.0
C1097 C 0.77812 0.39807 0.50308 0.0
H1098 H 0.83087 0.43983 0.51606 0.0
C1099 C 0.84855 0.37587 0.57405 0.0
C1100 C 0.87186 0.37653 0.56543 0.0
C1101 C 0.83023 0.38606 0.56086 0.0
C1102 C 0.81626 0.42799 0.51257 0.0
H1103 H 0.70063 0.42566 0.46711 0.0
H1104 H 0.73135 0.41193 0.49453 0.0
H1105 H 0.79947 0.45268 0.48922 0.0
H1106 H 0.89445 0.38979 0.5371 0.0
H1107 H 0.8625 0.40804 0.51436 0.0
H1108 H 0.79492 0.37352 0.52675 0.0
C1109 C 0.73652 0.42199 0.4789 0.0
C1110 C 0.79832 0.43524 0.49706 0.0
C1111 C 0.7189 0.42984 0.46324 0.0
C1112 C 0.87667 0.38897 0.5442 0.0
C1113 C 0.85839 0.39943 0.53118 0.0
C1114 C 0.79594 0.39093 0.51882 0.0
C1115 C 0.76035 0.42783 0.47484 0.0
C1116 C 0.77912 0.42029 0.4919 0.0
C1117 C 0.8349 0.39743 0.539 0.0
C1118 C 0.81528 0.40574 0.52356 0.0
H1119 H 0.75339 0.46006 0.42374 0.0
H1120 H 0.78425 0.44581 0.45047 0.0
H1121 H 0.76385 0.38592 0.49928 0.0
H1122 H 0.84422 0.36636 0.59031 0.0
H1123 H 0.81231 0.38451 0.56744 0.0
C1124 C 0.12765 0.84952 0.57389 0.0
C1125 C 0.12798 0.87272 0.56497 0.0
C1126 C 0.11776 0.83123 0.56036 0.0
C1127 C 0.07774 0.81756 0.51038 0.0
H1128 H 0.1189 0.76396 0.49952 0.0
C1129 C 0.05682 0.74917 0.43728 0.0
C1130 C 0.06179 0.72539 0.442 0.0
C1131 C 0.06496 0.76684 0.45265 0.0
C1132 C 0.10699 0.77857 0.50262 0.0
H1133 H 0.11688 0.89517 0.53563 0.0
H1134 H 0.09905 0.86332 0.51233 0.0
H1135 H 0.131 0.7951 0.52709 0.0
H1136 H 0.07865 0.70121 0.46656 0.0
H1137 H 0.09257 0.732 0.49385 0.0
H1138 H 0.05352 0.80104 0.48632 0.0
C1139 C 0.10667 0.85925 0.52964 0.0
C1140 C 0.11396 0.79644 0.51842 0.0
C1141 C 0.11687 0.87748 0.54299 0.0
C1142 C 0.07505 0.71951 0.46233 0.0
C1143 C 0.08301 0.73718 0.47791 0.0
C1144 C 0.07062 0.79958 0.49483 0.0
C1145 C 0.10766 0.83584 0.53786 0.0
C1146 C 0.0995 0.81621 0.5223 0.0
C1147 C 0.07782 0.76109 0.47342 0.0
C1148 C 0.08525 0.77994 0.49052 0.0
H1149 H 0.13617 0.84522 0.5907 0.0
H1150 H 0.11852 0.81337 0.56723 0.0
H1151 H 0.06616 0.8325 0.5132 0.0
H1152 H 0.04652 0.75411 0.42172 0.0
H1153 H 0.06104 0.78502 0.44826 0.0
C1154 C 0.7837 0.07914 0.4613 0.0
C1155 C 0.77781 0.06568 0.44107 0.0
C1156 C 0.76601 0.08722 0.4768 0.0
C1157 C 0.70243 0.09953 0.4807 0.0
H1158 H 0.7099 0.08708 0.54861 0.0
C1159 C 0.62559 0.11569 0.54563 0.0
C1160 C 0.63106 0.12654 0.56756 0.0
C1161 C 0.64347 0.10641 0.53116 0.0
C1162 C 0.7076 0.09095 0.52976 0.0
H1163 H 0.74906 0.05014 0.42098 0.0
H1164 H 0.71814 0.06461 0.4477 0.0
H1165 H 0.74168 0.07704 0.52088 0.0
H1166 H 0.6595 0.13501 0.59212 0.0
H1167 H 0.69064 0.11935 0.56676 0.0
H1168 H 0.66868 0.1139 0.48939 0.0
C1169 C 0.73633 0.06906 0.45158 0.0
C1170 C 0.72584 0.0852 0.51389 0.0
C1171 C 0.754 0.06076 0.43632 0.0
C1172 C 0.65464 0.12664 0.57539 0.0
C1173 C 0.67256 0.11762 0.56079 0.0
C1174 C 0.68431 0.10551 0.49656 0.0
C1175 C 0.74216 0.08206 0.47219 0.0
C1176 C 0.72337 0.08931 0.48919 0.0
C1177 C 0.66729 0.10804 0.53814 0.0
C1178 C 0.68655 0.10116 0.5213 0.0
H1179 H 0.802 0.08275 0.46554 0.0
H1180 H 0.77098 0.09731 0.4925 0.0
H1181 H 0.70015 0.10311 0.46177 0.0
H1182 H 0.60758 0.11519 0.53918 0.0
H1183 H 0.63864 0.09854 0.51417 0.0
C1184 C 0.78252 0.07526 0.33644 0.0
C1185 C 0.80318 0.06291 0.34248 0.0
C1186 C 0.76895 0.06852 0.31672 0.0
C1187 C 0.77463 0.0451 0.25747 0.0
H1188 H 0.70621 0.04251 0.25897 0.0
C1189 C 0.69122 0.04117 0.18628 0.0
C1190 C 0.69607 0.06193 0.17339 0.0
C1191 C 0.70464 0.03529 0.2066 0.0
C1192 C 0.72531 0.04277 0.25827 0.0
H1193 H 0.82565 0.03356 0.33272 0.0
H1194 H 0.8023 0.02235 0.29725 0.0
H1195 H 0.72853 0.04258 0.29662 0.0
H1196 H 0.71929 0.09233 0.17123 0.0
H1197 H 0.74291 0.08171 0.206 0.0
H1198 H 0.77134 0.04693 0.21919 0.0
C1199 C 0.79649 0.03699 0.30825 0.0
C1200 C 0.73806 0.04293 0.27979 0.0
C1201 C 0.80981 0.04339 0.32848 0.0
C1202 C 0.71495 0.07629 0.18083 0.0
C1203 C 0.72865 0.07012 0.20063 0.0
C1204 C 0.76186 0.04537 0.23598 0.0
C1205 C 0.77597 0.04961 0.30213 0.0
C1206 C 0.76281 0.04477 0.27961 0.0
C1207 C 0.72351 0.04974 0.21393 0.0
C1208 C 0.73705 0.04488 0.2362 0.0
H1209 H 0.7768 0.09028 0.34695 0.0
H1210 H 0.75338 0.07872 0.31232 0.0
H1211 H 0.79366 0.04668 0.25679 0.0
H1212 H 0.67678 0.0298 0.18095 0.0
H1213 H 0.70029 0.0195 0.21661 0.0
C1214 C 0.42867 0.71861 0.17825 0.0
C1215 C 0.44122 0.69809 0.17212 0.0
C1216 C 0.43531 0.73218 0.198 0.0
C1217 C 0.45991 0.72668 0.25707 0.0
H1218 H 0.4594 0.79513 0.25587 0.0
C1219 C 0.46023 0.81113 0.32751 0.0
C1220 C 0.44041 0.80475 0.34121 0.0
C1221 C 0.46674 0.79773 0.30737 0.0
C1222 C 0.46003 0.77604 0.2565 0.0
H1223 H 0.47083 0.67591 0.1817 0.0
H1224 H 0.48195 0.69933 0.21714 0.0
H1225 H 0.45957 0.77301 0.21816 0.0
H1226 H 0.41256 0.77875 0.3452 0.0
H1227 H 0.42421 0.75528 0.31068 0.0
H1228 H 0.45894 0.72972 0.29541 0.0
C1229 C 0.46719 0.70499 0.20625 0.0
C1230 C 0.45998 0.76339 0.23493 0.0
C1231 C 0.46085 0.69163 0.18603 0.0
C1232 C 0.42781 0.78428 0.33493 0.0
C1233 C 0.43462 0.77067 0.31526 0.0
C1234 C 0.45962 0.73934 0.27864 0.0
C1235 C 0.45435 0.72535 0.21249 0.0
C1236 C 0.45918 0.73858 0.235 0.0
C1237 C 0.45388 0.77741 0.301 0.0
C1238 C 0.45894 0.76415 0.27856 0.0
H1239 H 0.41357 0.7242 0.16781 0.0
H1240 H 0.42492 0.74761 0.20247 0.0
H1241 H 0.45918 0.70759 0.25769 0.0
H1242 H 0.47026 0.8268 0.33195 0.0
H1243 H 0.48167 0.80332 0.29665 0.0
C1244 C 0.78609 0.43191 0.17999 0.0
C1245 C 0.80668 0.44447 0.17404 0.0
C1246 C 0.77241 0.43843 0.19969 0.0
C1247 C 0.77781 0.46227 0.25905 0.0
H1248 H 0.70935 0.46145 0.25775 0.0
C1249 C 0.69331 0.46135 0.32949 0.0
C1250 C 0.6999 0.44161 0.34319 0.0
C1251 C 0.7066 0.468 0.30931 0.0
C1252 C 0.72843 0.46215 0.25842 0.0
H1253 H 0.82883 0.47405 0.18387 0.0
H1254 H 0.80523 0.48495 0.21931 0.0
H1255 H 0.73153 0.46239 0.22008 0.0
H1256 H 0.72606 0.41393 0.34697 0.0
H1257 H 0.74931 0.42578 0.31235 0.0
H1258 H 0.77471 0.46062 0.29736 0.0
C1259 C 0.79959 0.47027 0.20828 0.0
C1260 C 0.74112 0.46256 0.23687 0.0
C1261 C 0.81306 0.46407 0.18805 0.0
C1262 C 0.72037 0.42913 0.33673 0.0
C1263 C 0.73387 0.43606 0.31701 0.0
C1264 C 0.76511 0.46153 0.2806 0.0
C1265 C 0.77921 0.45736 0.21437 0.0
C1266 C 0.76594 0.46188 0.23694 0.0
C1267 C 0.727 0.45534 0.30285 0.0
C1268 C 0.7403 0.46071 0.28048 0.0
H1269 H 0.78054 0.41684 0.16945 0.0
H1270 H 0.75697 0.42799 0.20402 0.0
H1271 H 0.7969 0.46161 0.25968 0.0
H1272 H 0.67763 0.4713 0.33405 0.0
H1273 H 0.7009 0.48293 0.29869 0.0
C1274 C 0.07616 0.7845 0.17694 0.0
C1275 C 0.06398 0.80522 0.17076 0.0
C1276 C 0.06957 0.77134 0.197 0.0
C1277 C 0.04476 0.74108 0.23468 0.0
H1278 H 0.04678 0.77534 0.2948 0.0
C1279 C 0.04337 0.69453 0.32801 0.0
C1280 C 0.06321 0.70073 0.34177 0.0
C1281 C 0.03732 0.70769 0.30756 0.0
C1282 C 0.04584 0.76556 0.27814 0.0
H1283 H 0.03513 0.82826 0.18068 0.0
H1284 H 0.02411 0.80557 0.21664 0.0
H1285 H 0.04689 0.79708 0.25687 0.0
H1286 H 0.09163 0.72616 0.34541 0.0
H1287 H 0.08079 0.74921 0.31038 0.0
H1288 H 0.04469 0.70954 0.25594 0.0
C1289 C 0.03854 0.79941 0.20555 0.0
C1290 C 0.04575 0.778 0.25644 0.0
C1291 C 0.04482 0.81237 0.18503 0.0
C1292 C 0.07635 0.72075 0.33513 0.0
C1293 C 0.07 0.73414 0.31516 0.0
C1294 C 0.04451 0.72865 0.25638 0.0
C1295 C 0.05095 0.77879 0.21177 0.0
C1296 C 0.0461 0.76587 0.23448 0.0
C1297 C 0.05067 0.72761 0.30092 0.0
C1298 C 0.04594 0.74074 0.27832 0.0
H1299 H 0.09089 0.77838 0.16625 0.0
H1300 H 0.07965 0.75571 0.20145 0.0
H1301 H 0.04484 0.73128 0.218 0.0
H1302 H 0.03292 0.6792 0.3327 0.0
H1303 H 0.02233 0.70226 0.29687 0.0
C1304 C 0.19364 0.96227 0.6866 0.0
C1305 C 0.19986 0.94248 0.67279 0.0
C1306 C 0.20713 0.96862 0.70674 0.0
C1307 C 0.26559 0.96104 0.73523 0.0
H1308 H 0.23215 0.96126 0.79587 0.0
C1309 C 0.28642 0.92982 0.8355 0.0
C1310 C 0.30704 0.94223 0.84163 0.0
C1311 C 0.27285 0.93658 0.8158 0.0
C1312 C 0.24171 0.96159 0.77905 0.0
H1313 H 0.22567 0.91451 0.66864 0.0
H1314 H 0.24928 0.92588 0.70314 0.0
H1315 H 0.20987 0.96129 0.75825 0.0
H1316 H 0.32945 0.9717 0.83202 0.0
H1317 H 0.30605 0.98301 0.79663 0.0
H1318 H 0.29741 0.96033 0.75603 0.0
C1319 C 0.23395 0.93639 0.69864 0.0
C1320 C 0.22897 0.96175 0.75754 0.0
C1321 C 0.22025 0.92975 0.67898 0.0
C1322 C 0.31365 0.96182 0.8277 0.0
C1323 C 0.30029 0.96827 0.80751 0.0
C1324 C 0.27833 0.96122 0.75674 0.0
C1325 C 0.22738 0.95564 0.71301 0.0
C1326 C 0.24077 0.96056 0.73541 0.0
C1327 C 0.27979 0.9556 0.80132 0.0
C1328 C 0.26652 0.96057 0.77887 0.0
H1329 H 0.17803 0.9724 0.68223 0.0
H1330 H 0.20165 0.98354 0.71752 0.0
H1331 H 0.27514 0.96029 0.71842 0.0
H1332 H 0.28071 0.91474 0.84594 0.0
H1333 H 0.25733 0.92631 0.81137 0.0
C1334 C 0.57384 0.28685 0.83712 0.0
C1335 C 0.56136 0.30736 0.84339 0.0
C1336 C 0.56718 0.27344 0.81726 0.0
C1337 C 0.54236 0.27925 0.75824 0.0
H1338 H 0.54264 0.21079 0.75919 0.0
C1339 C 0.54169 0.19469 0.68783 0.0
C1340 C 0.56158 0.20095 0.67417 0.0
C1341 C 0.53511 0.20825 0.70784 0.0
C1342 C 0.54206 0.22988 0.75863 0.0
H1343 H 0.53174 0.32963 0.83401 0.0
H1344 H 0.52052 0.30645 0.79844 0.0
H1345 H 0.54279 0.23277 0.79697 0.0
H1346 H 0.58934 0.22699 0.66997 0.0
H1347 H 0.57756 0.25076 0.70423 0.0
H1348 H 0.54309 0.27634 0.71989 0.0
C1349 C 0.53531 0.30071 0.80925 0.0
C1350 C 0.5423 0.24246 0.78024 0.0
C1351 C 0.5417 0.31393 0.82956 0.0
C1352 C 0.57405 0.22155 0.68023 0.0
C1353 C 0.56717 0.23533 0.69975 0.0
C1354 C 0.54247 0.26667 0.73662 0.0
C1355 C 0.54812 0.28039 0.80283 0.0
C1356 C 0.54318 0.26726 0.78027 0.0
C1357 C 0.54795 0.22862 0.7141 0.0
C1358 C 0.54305 0.24185 0.7366 0.0
H1359 H 0.58895 0.28118 0.84751 0.0
H1360 H 0.57755 0.25804 0.81266 0.0
H1361 H 0.54314 0.29834 0.7577 0.0
H1362 H 0.53176 0.17891 0.68355 0.0
H1363 H 0.52021 0.20268 0.7186 0.0
C1364 C 0.28284 0.57586 0.67801 0.0
C1365 C 0.30355 0.56362 0.67187 0.0
C1366 C 0.26928 0.56893 0.69768 0.0
C1367 C 0.2749 0.54464 0.7567 0.0
H1368 H 0.20646 0.54267 0.75508 0.0
C1369 C 0.19085 0.54091 0.82735 0.0
C1370 C 0.19617 0.56124 0.84075 0.0
C1371 C 0.20435 0.53504 0.80706 0.0
C1372 C 0.22556 0.54274 0.75581 0.0
H1373 H 0.32615 0.53431 0.68145 0.0
H1374 H 0.3028 0.52277 0.71681 0.0
H1375 H 0.22884 0.54315 0.71747 0.0
H1376 H 0.22032 0.59082 0.8439 0.0
H1377 H 0.24401 0.58024 0.80918 0.0
H1378 H 0.27157 0.54581 0.79499 0.0
C1379 C 0.29695 0.53747 0.70594 0.0
C1380 C 0.23835 0.54315 0.73432 0.0
C1381 C 0.31028 0.54406 0.68577 0.0
C1382 C 0.2156 0.57513 0.83389 0.0
C1383 C 0.22936 0.56896 0.81411 0.0
C1384 C 0.2621 0.54462 0.77818 0.0
C1385 C 0.27635 0.54994 0.71212 0.0
C1386 C 0.26312 0.54481 0.73455 0.0
C1387 C 0.22374 0.54906 0.80027 0.0
C1388 C 0.23728 0.54438 0.77793 0.0
H1389 H 0.27704 0.59089 0.66758 0.0
H1390 H 0.25366 0.57904 0.70213 0.0
H1391 H 0.29395 0.54605 0.75743 0.0
H1392 H 0.17598 0.5299 0.83223 0.0
H1393 H 0.19962 0.51962 0.79664 0.0
C1394 C 0.92907 0.28253 0.67577 0.0
C1395 C 0.94076 0.30384 0.67068 0.0
C1396 C 0.93577 0.26873 0.69533 0.0
C1397 C 0.95528 0.27276 0.75537 0.0
H1398 H 0.96935 0.20603 0.75034 0.0
C1399 C 0.95684 0.21432 0.84015 0.0
C1400 C 0.94767 0.19149 0.83782 0.0
C1401 C 0.96219 0.2278 0.81979 0.0
C1402 C 0.96521 0.22458 0.75219 0.0
H1403 H 0.96873 0.32735 0.68205 0.0
H1404 H 0.97969 0.30359 0.71734 0.0
H1405 H 0.96714 0.23011 0.71415 0.0
H1406 H 0.93584 0.16504 0.81269 0.0
H1407 H 0.94399 0.18862 0.77717 0.0
H1408 H 0.95144 0.26725 0.793 0.0
C1409 C 0.96571 0.29745 0.70566 0.0
C1410 C 0.96423 0.23839 0.7314 0.0
C1411 C 0.95945 0.311 0.68556 0.0
C1412 C 0.94363 0.18237 0.81486 0.0
C1413 C 0.94848 0.19595 0.79449 0.0
C1414 C 0.95577 0.25889 0.77613 0.0
C1415 C 0.95385 0.27622 0.71071 0.0
C1416 C 0.95879 0.2625 0.73278 0.0
C1417 C 0.95755 0.21905 0.79659 0.0
C1418 C 0.96017 0.23442 0.77484 0.0
H1419 H 0.91472 0.27641 0.66455 0.0
H1420 H 0.92624 0.25254 0.69893 0.0
H1421 H 0.95079 0.29128 0.75686 0.0
H1422 H 0.95886 0.22213 0.85772 0.0
H1423 H 0.96935 0.24533 0.82236 0.0
C1424 C 0.42753 0.00651 0.95847 0.0
C1425 C 0.43309 0.00711 0.93396 0.0
C1426 C 0.44526 0.00274 0.97557 0.0
C1427 C 0.50778 0.98359 0.98359 0.0
H1428 H 0.50624 0.02682 0.03742 0.0
C1429 C 0.58679 0.99146 0.04859 0.0
C1430 C 0.58087 0.99093 0.07301 0.0
C1431 C 0.56927 0.99514 0.03122 0.0
C1432 C 0.5069 0.01451 0.0226 0.0
H1433 H 0.46113 0.00251 0.90801 0.0
H1434 H 0.49197 0.9958 0.93766 0.0
H1435 H 0.47382 0.02657 0.00876 0.0
H1436 H 0.55244 0.99526 0.09854 0.0
H1437 H 0.52202 1.00189 0.06848 0.0
H1438 H 0.54087 0.97152 0.99746 0.0
C1439 C 0.47402 0.99825 0.94384 0.0
C1440 C 0.4882 0.01425 1.00621 0.0
C1441 C 0.45635 1.0021 0.92681 0.0
C1442 C 0.55748 0.99574 0.07981 0.0
C1443 C 0.54005 0.99952 0.06254 0.0
C1444 C 0.52649 0.98384 0.99998 0.0
C1445 C 0.46889 0.99937 0.96847 0.0
C1446 C 0.48835 0.99876 0.9865 0.0
C1447 C 0.54554 0.99849 0.03799 0.0
C1448 C 0.52629 0.99927 0.01974 0.0
H1449 H 0.40981 0.01053 0.96451 0.0
H1450 H 0.44059 0.00326 0.99438 0.0
H1451 H 0.50842 0.97127 0.96876 0.0
H1452 H 0.60463 0.98754 0.04287 0.0
H1453 H 0.57419 0.99462 0.01248 0.0
C1454 C 0.48947 0.42471 0.95522 0.0
C1455 C 0.49114 0.43094 0.93091 0.0
C1456 C 0.49238 0.44184 0.97314 0.0
C1457 C 0.48656 0.50635 0.98135 0.0
H1458 H 0.51741 0.49507 0.04219 0.0
C1459 C 0.50688 0.58058 0.05025 0.0
C1460 C 0.50681 0.57461 0.07466 0.0
C1461 C 0.50288 0.56323 0.03278 0.0
C1462 C 0.50837 0.49843 0.02544 0.0
H1463 H 0.49894 0.4595 0.90636 0.0
H1464 H 0.50445 0.4892 0.93749 0.0
H1465 H 0.51685 0.46406 0.01193 0.0
H1466 H 0.50087 0.54639 0.10007 0.0
H1467 H 0.49305 0.51634 0.06978 0.0
H1468 H 0.47804 0.5407 0.99483 0.0
C1469 C 0.50026 0.4713 0.94279 0.0
C1470 C 0.50816 0.48063 0.00805 0.0
C1471 C 0.49735 0.45424 0.92496 0.0
C1472 C 0.50101 0.55143 0.08133 0.0
C1473 C 0.49687 0.53416 0.06396 0.0
C1474 C 0.48672 0.52413 0.99877 0.0
C1475 C 0.49704 0.46552 0.96706 0.0
C1476 C 0.49736 0.48439 0.98572 0.0
C1477 C 0.49865 0.5396 0.03943 0.0
C1478 C 0.49766 0.52045 0.02105 0.0
H1479 H 0.48443 0.40697 0.96032 0.0
H1480 H 0.48975 0.43677 0.99165 0.0
H1481 H 0.47766 0.50972 0.96452 0.0
H1482 H 0.51167 0.59824 0.04463 0.0
H1483 H 0.50448 0.56809 0.01409 0.0
C1484 C 0.05253 0.50159 0.92901 0.0
C1485 C 0.07577 0.496 0.93575 0.0
C1486 C 0.03522 0.50584 0.94635 0.0
C1487 C 0.02158 0.48986 0.00879 0.0
H1488 H 0.97005 0.53421 1.0015 0.0
C1489 C 0.95382 0.50828 0.08388 0.0
C1490 C 0.93042 0.5137 0.07763 0.0
C1491 C 0.97098 0.50488 0.06623 0.0
C1492 C 0.98411 0.52146 1.00363 0.0
H1493 H 0.09942 0.49195 0.9659 0.0
H1494 H 0.06928 0.49987 0.9963 0.0
H1495 H 1.00199 0.53376 0.97216 0.0
H1496 H 0.9064 0.51866 0.04793 0.0
H1497 H 0.93634 0.51222 0.01688 0.0
H1498 H 0.00371 0.47746 0.04016 0.0
C1499 C 0.06435 0.50056 0.97757 0.0
C1500 C 0.00252 0.52131 0.98686 0.0
C1501 C 0.08172 0.4964 0.96017 0.0
C1502 C 0.92425 0.51431 0.05327 0.0
C1503 C 0.94149 0.51098 0.03552 0.0
C1504 C 0.00317 0.48998 0.02552 0.0
C1505 C 0.0407 0.50453 0.97089 0.0
C1506 C 0.02155 0.50555 0.98925 0.0
C1507 C 0.96522 0.50683 0.0418 0.0
C1508 C 0.98419 0.50581 0.02322 0.0
H1509 H 0.04745 0.50136 0.91029 0.0
H1510 H 0.01725 0.50876 0.94048 0.0
H1511 H 0.03563 0.4771 0.01093 0.0
H1512 H 0.95909 0.50771 0.10254 0.0
H1513 H 0.98902 0.50189 0.07183 0.0
C1514 C 0.02066 0.07858 0.95681 0.0
C1515 C 0.01919 0.07238 0.93249 0.0
C1516 C 0.01823 0.06133 0.97465 0.0
C1517 C 0.99778 0.99988 0.98583 0.0
H1518 H 0.04382 1.00147 0.03719 0.0
C1519 C 0.00385 0.92358 0.05363 0.0
C1520 C 0.00434 0.93063 0.07775 0.0
C1521 C 0.0084 0.93996 0.03538 0.0
C1522 C 0.03076 1.00081 0.02305 0.0
H1523 H 0.01261 0.04362 0.9078 0.0
H1524 H 0.00828 0.01362 0.93876 0.0
H1525 H 0.04345 0.03285 0.00727 0.0
H1526 H 0.01174 0.95968 0.10179 0.0
H1527 H 0.01981 0.98815 0.07014 0.0
H1528 H 0.98496 0.96797 1.00166 0.0
C1529 C 0.01132 0.03171 0.9442 0.0
C1530 C 0.03045 0.01889 1.00596 0.0
C1531 C 0.01386 0.04889 0.92643 0.0
C1532 C 0.01135 0.95378 0.08332 0.0
C1533 C 0.01596 0.97009 0.06514 0.0
C1534 C 0.99808 0.98182 1.00292 0.0
C1535 C 0.01412 0.03756 0.96852 0.0
C1536 C 0.01391 0.0187 0.98716 0.0
C1537 C 0.01361 0.96366 0.04092 0.0
C1538 C 0.01453 0.98205 0.0218 0.0
H1539 H 0.02496 0.09649 0.962 0.0
H1540 H 0.0201 0.0665 0.99324 0.0
H1541 H 0.98464 0.99927 0.97176 0.0
H1542 H 0.99827 0.90592 0.04884 0.0
H1543 H 0.00689 0.9343 0.01691 0.0
C1544 C 0.42405 0.49481 0.55477 0.0
C1545 C 0.43022 0.49568 0.57912 0.0
C1546 C 0.44126 0.49814 0.537 0.0
C1547 C 0.5059 0.49237 0.52892 0.0
H1548 H 0.49438 0.5234 0.46821 0.0
C1549 C 0.57962 0.51177 0.45895 0.0
C1550 C 0.57339 0.51081 0.43461 0.0
C1551 C 0.56243 0.50853 0.47676 0.0
C1552 C 0.49781 0.51437 0.48495 0.0
H1553 H 0.45875 0.50241 0.604 0.0
H1554 H 0.48858 0.50879 0.57317 0.0
H1555 H 0.46351 0.52284 0.49863 0.0
H1556 H 0.54481 0.504 0.40981 0.0
H1557 H 0.51503 0.49778 0.44073 0.0
H1558 H 0.5402 0.4839 0.51523 0.0
C1559 C 0.47068 0.50488 0.56767 0.0
C1560 C 0.48009 0.51412 0.50243 0.0
C1561 C 0.45354 0.50149 0.58535 0.0
C1562 C 0.55005 0.50499 0.42845 0.0
C1563 C 0.53295 0.50169 0.44618 0.0
C1564 C 0.52362 0.49262 0.51143 0.0
C1565 C 0.46496 0.50246 0.54328 0.0
C1566 C 0.4839 0.50315 0.52468 0.0
C1567 C 0.53871 0.50421 0.47055 0.0
C1568 C 0.51981 0.50358 0.48918 0.0
H1569 H 0.40628 0.49007 0.54946 0.0
H1570 H 0.43622 0.49607 0.51841 0.0
H1571 H 0.50933 0.48334 0.54565 0.0
H1572 H 0.5974 0.51651 0.4642 0.0
H1573 H 0.56751 0.51066 0.49534 0.0
C1574 C 0.99289 0.58099 0.45853 0.0
C1575 C 0.99375 0.57463 0.43422 0.0
C1576 C 0.99622 0.56391 0.47641 0.0
C1577 C 0.01745 0.50253 0.48733 0.0
H1578 H 0.97233 0.50389 0.53955 0.0
C1579 C 0.00993 0.42496 0.55414 0.0
C1580 C 0.00913 0.43139 0.57844 0.0
C1581 C 0.00651 0.44197 0.53622 0.0
C1582 C 0.98517 0.50331 0.52519 0.0
H1583 H 1.00026 0.54586 0.40955 0.0
H1584 H 0.00615 0.5162 0.44054 0.0
H1585 H 0.97228 0.53543 0.50985 0.0
H1586 H 0.00261 0.46021 0.60303 0.0
H1587 H 0.99656 0.48976 0.57197 0.0
H1588 H 0.03035 0.4704 0.50267 0.0
C1589 C 0.00293 0.53426 0.44597 0.0
C1590 C 0.98524 0.5215 0.50821 0.0
C1591 C 0.99951 0.55125 0.42817 0.0
C1592 C 0.00332 0.45477 0.58443 0.0
C1593 C 0.99981 0.4717 0.56659 0.0
C1594 C 0.01738 0.48434 0.5043 0.0
C1595 C 1.00062 0.54018 0.47032 0.0
C1596 C 1.00138 0.52137 0.48905 0.0
C1597 C 1.00206 0.46571 0.54225 0.0
C1598 C 1.00125 0.48448 0.52348 0.0
H1599 H 0.98829 0.59882 0.46371 0.0
H1600 H 0.99472 0.56917 0.49501 0.0
H1601 H 0.0303 0.50195 0.47297 0.0
H1602 H 0.01457 0.40712 0.549 0.0
H1603 H 0.00797 0.43666 0.51763 0.0
C1604 C 0.94923 0.00985 0.43417 0.0
C1605 C 0.9263 0.00281 0.4406 0.0
C1606 C 0.96638 0.01381 0.45171 0.0
C1607 C 0.98076 0.9937 0.51263 0.0
H1608 H 0.03183 0.03897 0.50774 0.0
C1609 C 0.0503 0.00735 0.58717 0.0
C1610 C 0.07349 0.01334 0.58061 0.0
C1611 C 0.03269 0.00492 0.56983 0.0
C1612 C 0.01789 0.02598 0.50916 0.0
H1613 H 0.90288 0.99594 0.47041 0.0
H1614 H 0.93273 0.00344 0.50125 0.0
H1615 H 0.99927 0.04049 0.47918 0.0
H1616 H 0.09671 0.02031 0.55065 0.0
H1617 H 0.06598 0.01561 0.52009 0.0
H1618 H 0.99939 0.97912 0.54253 0.0
C1619 C 0.93756 0.00552 0.48259 0.0
C1620 C 0.99912 0.02695 0.49287 0.0
C1621 C 0.92034 1.00164 0.46498 0.0
C1622 C 0.07904 0.01545 0.55618 0.0
C1623 C 0.06135 0.01313 0.53875 0.0
C1624 C 0.99952 0.99272 0.52891 0.0
C1625 C 0.96104 0.01073 0.47612 0.0
C1626 C 0.9803 0.01081 0.49437 0.0
C1627 C 0.0378 0.00851 0.54544 0.0
C1628 C 0.01835 0.00883 0.5274 0.0
H1629 H 0.95432 0.01063 0.41547 0.0
H1630 H 0.98423 0.01768 0.44599 0.0
H1631 H 0.96689 0.98063 0.51403 0.0
H1632 H 0.04553 0.00572 0.60591 0.0
H1633 H 0.01481 1.0015 0.57571 0.0
C1634 C 0.50959 0.92409 0.45984 0.0
C1635 C 0.5089 0.93048 0.43554 0.0
C1636 C 0.50627 0.94117 0.47773 0.0
C1637 C 0.48543 0.00268 0.48864 0.0
H1638 H 0.53052 1.0011 0.54084 0.0
C1639 C 0.49372 0.08047 0.55505 0.0
C1640 C 0.4945 0.07419 0.57938 0.0
C1641 C 0.49695 0.06332 0.53722 0.0
C1642 C 0.51768 1.00174 0.52649 0.0
H1643 H 0.50268 0.9593 0.41088 0.0
H1644 H 0.49682 0.98897 0.44188 0.0
H1645 H 0.53034 0.96948 0.51121 0.0
H1646 H 0.50077 0.04547 0.60414 0.0
H1647 H 0.50646 0.01565 0.57325 0.0
H1648 H 0.47277 0.03494 0.50391 0.0
C1649 C 0.4999 0.97089 0.44729 0.0
C1650 C 0.51748 0.98351 0.50955 0.0
C1651 C 0.50331 0.95389 0.42949 0.0
C1652 C 0.50008 0.0508 0.58551 0.0
C1653 C 0.50339 0.03371 0.56777 0.0
C1654 C 0.48563 0.02091 0.50557 0.0
C1655 C 0.50205 0.96493 0.47165 0.0
C1656 C 0.50136 0.98373 0.49038 0.0
C1657 C 0.50115 0.03957 0.54339 0.0
C1658 C 0.50176 0.0207 0.52473 0.0
H1659 H 0.51405 0.90623 0.46502 0.0
H1660 H 0.50765 0.93588 0.49633 0.0
H1661 H 0.4726 0.00332 0.47428 0.0
H1662 H 0.48926 0.09832 0.5498 0.0
H1663 H 0.49552 0.06852 0.51861 0.0
C1664 C 0.52554 0.7549 0.16548 0.0
C1665 C 0.50166 0.75679 0.15895 0.0
C1666 C 0.53916 0.77514 0.16915 0.0
C1667 C 0.53712 0.84062 0.17504 0.0
H1668 H 0.59359 0.83802 0.13583 0.0
C1669 C 0.59327 0.90741 0.11361 0.0
C1670 C 0.5983 0.9261 0.12927 0.0
C1671 C 0.5848 0.88603 0.12244 0.0
C1672 C 0.57802 0.83896 0.14707 0.0
H1673 H 0.47282 0.78132 0.15339 0.0
H1674 H 0.49663 0.81659 0.15952 0.0
H1675 H 0.57151 0.80201 0.14373 0.0
H1676 H 0.59885 0.93725 0.16634 0.0
H1677 H 0.58341 0.89962 0.18197 0.0
H1678 H 0.54317 0.87793 0.17725 0.0
C1679 C 0.50486 0.7995 0.16185 0.0
C1680 C 0.56546 0.8183 0.15179 0.0
C1681 C 0.49123 0.77926 0.15816 0.0
C1682 C 0.59515 0.92296 0.15402 0.0
C1683 C 0.58626 0.90158 0.16288 0.0
C1684 C 0.54983 0.86133 0.17043 0.0
C1685 C 0.52919 0.79768 0.16644 0.0
C1686 C 0.54447 0.81898 0.16521 0.0
C1687 C 0.58089 0.88297 0.1471 0.0
C1688 C 0.56996 0.86077 0.15573 0.0
H1689 H 0.53406 0.73784 0.16657 0.0
H1690 H 0.55777 0.77315 0.17311 0.0
H1691 H 0.52113 0.84167 0.18561 0.0
H1692 H 0.59558 0.9095 0.09445 0.0
H1693 H 0.58054 0.87213 0.10982 0.0
C1694 C 0.72477 0.49063 0.16012 0.0
C1695 C 0.7467 0.5022 0.15978 0.0
C1696 C 0.70397 0.50339 0.16376 0.0
C1697 C 0.682 0.56207 0.15065 0.0
H1698 H 0.62425 0.53909 0.17981 0.0
C1699 C 0.57712 0.58948 0.15495 0.0
C1700 C 0.57275 0.59037 0.13019 0.0
C1701 C 0.59888 0.58127 0.16351 0.0
C1702 C 0.64033 0.54592 0.17192 0.0
H1703 H 0.76421 0.53582 0.16532 0.0
H1704 H 0.72791 0.55803 0.17165 0.0
H1705 H 0.66176 0.51921 0.18831 0.0
H1706 H 0.58761 0.58425 0.09498 0.0
H1707 H 0.62562 0.5704 0.10982 0.0
H1708 H 0.66051 0.58805 0.13341 0.0
C1709 C 0.72678 0.53917 0.16871 0.0
C1710 C 0.66173 0.53447 0.17663 0.0
C1711 C 0.74757 0.52641 0.16515 0.0
C1712 C 0.59057 0.58358 0.11416 0.0
C1713 C 0.61232 0.57583 0.12264 0.0
C1714 C 0.66065 0.57331 0.14578 0.0
C1715 C 0.70471 0.52796 0.1671 0.0
C1716 C 0.68269 0.54209 0.16556 0.0
C1717 C 0.61667 0.57441 0.14737 0.0
C1718 C 0.63954 0.56496 0.15583 0.0
H1719 H 0.72352 0.47193 0.15629 0.0
H1720 H 0.68725 0.49423 0.16233 0.0
H1721 H 0.69775 0.56824 0.14161 0.0
H1722 H 0.56357 0.59464 0.1676 0.0
H1723 H 0.60186 0.58033 0.18266 0.0
C1724 C 0.01505 0.72648 0.1614 0.0
C1725 C 0.00311 0.74812 0.15957 0.0
C1726 C 0.00261 0.70569 0.16619 0.0
C1727 C 0.94457 0.68122 0.1545 0.0
H1728 H 0.96711 0.6277 0.19114 0.0
C1729 C 0.89906 0.5916 0.14478 0.0
C1730 C 0.91431 0.57226 0.14182 0.0
C1731 C 0.90753 0.61304 0.15371 0.0
C1732 C 0.9606 0.64245 0.18074 0.0
H1733 H 0.96907 0.76524 0.16324 0.0
H1734 H 0.94738 0.72894 0.17144 0.0
H1735 H 0.987 0.66582 0.1948 0.0
H1736 H 0.94997 0.55977 0.14794 0.0
H1737 H 0.96497 0.5973 0.16238 0.0
H1738 H 0.91913 0.6579 0.13931 0.0
C1739 C 0.96631 0.72802 0.16891 0.0
C1740 C 0.97196 0.66429 0.18293 0.0
C1741 C 0.97876 0.74882 0.1643 0.0
C1742 C 0.93784 0.57445 0.1495 0.0
C1743 C 0.94638 0.59596 0.15814 0.0
C1744 C 0.9334 0.65941 0.15211 0.0
C1745 C 0.97797 0.70615 0.16911 0.0
C1746 C 0.96431 0.68379 0.16948 0.0
C1747 C 0.93152 0.61578 0.15962 0.0
C1748 C 0.94154 0.63958 0.16482 0.0
H1749 H 0.03385 0.7254 0.1581 0.0
H1750 H 0.01209 0.68911 0.16615 0.0
H1751 H 0.93849 0.6958 0.14358 0.0
H1752 H 0.88085 0.59066 0.139 0.0
H1753 H 0.89542 0.62774 0.15513 0.0
C1754 C 0.77983 0.02199 0.16858 0.0
C1755 C 0.76057 0.00772 0.16219 0.0
C1756 C 0.80199 0.01198 0.17269 0.0
C1757 C 0.8347 0.95462 0.17749 0.0
H1758 H 0.88211 0.98894 0.14152 0.0
C1759 C 0.92989 0.91916 0.15725 0.0
C1760 C 0.93693 0.92224 0.13327 0.0
C1761 C 0.90913 0.92978 0.16575 0.0
C1762 C 0.86911 0.97917 0.15173 0.0
H1763 H 0.74894 0.97161 0.15711 0.0
H1764 H 0.78761 0.95423 0.16351 0.0
H1765 H 0.84426 0.00725 0.1494 0.0
H1766 H 0.9269 0.93754 0.09911 0.0
H1767 H 0.8912 0.95604 0.11387 0.0
H1768 H 0.85947 0.92598 0.17847 0.0
C1769 C 0.78569 0.97311 0.16572 0.0
C1770 C 0.84746 0.98979 0.15656 0.0
C1771 C 0.76347 0.98311 0.16188 0.0
C1772 C 0.92242 0.93542 0.11786 0.0
C1773 C 0.90191 0.94603 0.12632 0.0
C1774 C 0.85649 0.94394 0.17261 0.0
C1775 C 0.80543 0.9875 0.17019 0.0
C1776 C 0.82969 0.97745 0.16891 0.0
C1777 C 0.89519 0.94368 0.15041 0.0
C1778 C 0.8736 0.95587 0.15899 0.0
H1779 H 0.77802 0.041 0.16941 0.0
H1780 H 0.81667 0.02354 0.17675 0.0
H1781 H 0.82152 0.94472 0.18732 0.0
H1782 H 0.94068 0.90904 0.16952 0.0
H1783 H 0.90429 0.9276 0.1844 0.0
C1784 C 0.56516 0.57212 0.36337 0.0
C1785 C 0.58873 0.57004 0.37096 0.0
C1786 C 0.55639 0.59368 0.35516 0.0
C1787 C 0.56882 0.65716 0.36235 0.0
H1788 H 0.51527 0.66389 0.31965 0.0
C1789 C 0.5236 0.74667 0.35072 0.0
C1790 C 0.49918 0.74607 0.35506 0.0
C1791 C 0.53602 0.72585 0.3462 0.0
C1792 C 0.53028 0.66226 0.33155 0.0
H1793 H 0.62202 0.58875 0.37402 0.0
H1794 H 0.60706 0.62595 0.35862 0.0
H1795 H 0.5353 0.62582 0.32279 0.0
H1796 H 0.46832 0.72345 0.35601 0.0
H1797 H 0.49003 0.68709 0.34815 0.0
H1798 H 0.56358 0.6934 0.37141 0.0
C1799 C 0.59509 0.6111 0.3598 0.0
C1800 C 0.54172 0.64045 0.33343 0.0
C1801 C 0.60379 0.5896 0.3683 0.0
C1802 C 0.48717 0.72446 0.353 0.0
C1803 C 0.49959 0.70364 0.34833 0.0
C1804 C 0.55755 0.67894 0.36028 0.0
C1805 C 0.57106 0.61369 0.35402 0.0
C1806 C 0.56082 0.63747 0.3493 0.0
C1807 C 0.52426 0.70402 0.34573 0.0
C1808 C 0.53785 0.68163 0.34527 0.0
H1809 H 0.55317 0.55729 0.3647 0.0
H1810 H 0.53778 0.5949 0.35099 0.0
H1811 H 0.58309 0.65555 0.37513 0.0
H1812 H 0.53337 0.76306 0.35194 0.0
H1813 H 0.55498 0.72673 0.3439 0.0
C1814 C 0.93254 0.56598 0.36293 0.0
C1815 C 0.93466 0.58963 0.37032 0.0
C1816 C 0.91097 0.55717 0.35473 0.0
C1817 C 0.84751 0.5699 0.36158 0.0
H1818 H 0.84066 0.51563 0.31983 0.0
C1819 C 0.75785 0.52477 0.35067 0.0
C1820 C 0.75837 0.50048 0.35568 0.0
C1821 C 0.77872 0.53702 0.34583 0.0
C1822 C 0.84232 0.53085 0.33145 0.0
H1823 H 0.91603 0.62297 0.37296 0.0
H1824 H 0.87888 0.60794 0.35752 0.0
H1825 H 0.87881 0.53562 0.3227 0.0
H1826 H 0.78088 0.4696 0.35742 0.0
H1827 H 0.81732 0.49101 0.34898 0.0
H1828 H 0.81121 0.56494 0.37063 0.0
C1829 C 0.89368 0.59595 0.35889 0.0
C1830 C 0.86418 0.54226 0.33319 0.0
C1831 C 0.91516 0.60469 0.36741 0.0
C1832 C 0.77993 0.48837 0.35391 0.0
C1833 C 0.8008 0.5006 0.3489 0.0
C1834 C 0.82568 0.55868 0.35964 0.0
C1835 C 0.89102 0.57186 0.35337 0.0
C1836 C 0.8672 0.56162 0.34873 0.0
C1837 C 0.80051 0.5252 0.34568 0.0
C1838 C 0.82294 0.53873 0.34498 0.0
H1839 H 0.94733 0.55398 0.36443 0.0
H1840 H 0.90971 0.53852 0.35076 0.0
H1841 H 0.84913 0.58438 0.37414 0.0
H1842 H 0.7415 0.5346 0.35164 0.0
H1843 H 0.77792 0.55591 0.34305 0.0
C1844 C 0.91306 0.92776 0.36267 0.0
C1845 C 0.91549 0.93468 0.38675 0.0
C1846 C 0.9237 0.90691 0.35445 0.0
C1847 C 0.97286 0.86732 0.36973 0.0
H1848 H 0.94061 0.81976 0.33205 0.0
C1849 C 0.01887 0.78007 0.35063 0.0
C1850 C 0.00521 0.76011 0.35609 0.0
C1851 C 0.00813 0.80201 0.34728 0.0
C1852 C 0.94989 0.83294 0.34248 0.0
H1853 H 0.92941 0.92434 0.42141 0.0
H1854 H 0.9479 0.88838 0.40715 0.0
H1855 H 0.92071 0.85709 0.34118 0.0
H1856 H 0.96949 0.74704 0.36036 0.0
H1857 H 0.95081 0.78534 0.35524 0.0
H1858 H 1.0015 0.84312 0.37225 0.0
C1859 C 0.93841 0.89926 0.39443 0.0
C1860 C 0.93855 0.85435 0.34752 0.0
C1861 C 0.9278 0.91987 0.4026 0.0
C1862 C 0.98051 0.76213 0.35629 0.0
C1863 C 0.96977 0.78413 0.3532 0.0
C1864 C 0.98415 0.84606 0.3647 0.0
C1865 C 0.93694 0.89277 0.3702 0.0
C1866 C 0.94971 0.87144 0.36183 0.0
C1867 C 0.98352 0.80449 0.34961 0.0
C1868 C 0.97263 0.82833 0.35152 0.0
H1869 H 0.90359 0.93881 0.3501 0.0
H1870 H 0.92221 0.90224 0.33569 0.0
H1871 H 0.98205 0.88032 0.38048 0.0
H1872 H 0.03794 0.77894 0.34989 0.0
H1873 H 0.01921 0.81722 0.34391 0.0
C1874 C 0.58768 0.89991 0.36921 0.0
C1875 C 0.56823 0.91507 0.37192 0.0
C1876 C 0.60922 0.90848 0.36062 0.0
C1877 C 0.63887 0.96153 0.33396 0.0
H1878 H 0.69175 0.93957 0.37191 0.0
C1879 C 0.7231 0.01582 0.35316 0.0
C1880 C 0.74464 0.00377 0.3555 0.0
C1881 C 0.70227 0.00343 0.34844 0.0
C1882 C 0.67732 0.94562 0.36077 0.0
H1883 H 0.55572 0.95071 0.36572 0.0
H1884 H 0.59342 0.96587 0.35184 0.0
H1885 H 0.65378 0.9203 0.37584 0.0
H1886 H 0.76153 0.96954 0.35276 0.0
H1887 H 0.72518 0.94796 0.34459 0.0
H1888 H 0.66246 0.98776 0.31994 0.0
C1889 C 0.59207 0.94728 0.35604 0.0
C1890 C 0.65546 0.9345 0.36297 0.0
C1891 C 0.57046 0.93864 0.36434 0.0
C1892 C 0.74519 0.97933 0.35132 0.0
C1893 C 0.72436 0.96693 0.34673 0.0
C1894 C 0.66077 0.97282 0.33193 0.0
C1895 C 0.61195 0.93248 0.35481 0.0
C1896 C 0.6358 0.94255 0.34995 0.0
C1897 C 0.70257 0.97874 0.34604 0.0
C1898 C 0.68011 0.96522 0.34564 0.0
H1899 H 0.58672 0.88168 0.37493 0.0
H1900 H 0.62398 0.89642 0.35939 0.0
H1901 H 0.62425 0.96798 0.32335 0.0
H1902 H 0.72213 0.0347 0.35603 0.0
H1903 H 0.68576 0.01304 0.34809 0.0
C1904 C 0.43083 0.08815 0.89157 0.0
C1905 C 0.41535 0.07334 0.87875 0.0
C1906 C 0.43779 0.10988 0.88225 0.0
C1907 C 0.42083 0.16035 0.85499 0.0
H1908 H 0.48484 0.17056 0.83266 0.0
C1909 C 0.45607 0.25462 0.84208 0.0
C1910 C 0.47876 0.25862 0.85139 0.0
C1911 C 0.4479 0.2316 0.83833 0.0
C1912 C 0.46691 0.16809 0.83888 0.0
H1913 H 0.39497 0.0702 0.84594 0.0
H1914 H 0.40656 0.10898 0.83014 0.0
H1915 H 0.47081 0.13043 0.84012 0.0
H1916 H 0.51116 0.2416 0.86272 0.0
H1917 H 0.49678 0.20175 0.85707 0.0
H1918 H 0.41727 0.19783 0.85583 0.0
C1919 C 0.41349 0.10319 0.84724 0.0
C1920 C 0.45887 0.1451 0.84285 0.0
C1921 C 0.40678 0.08114 0.8564 0.0
C1922 C 0.49355 0.23918 0.85559 0.0
C1923 C 0.48531 0.21621 0.85213 0.0
C1924 C 0.42895 0.18338 0.85138 0.0
C1925 C 0.42912 0.11758 0.86012 0.0
C1926 C 0.43596 0.14114 0.85142 0.0
C1927 C 0.46214 0.21206 0.84407 0.0
C1928 C 0.45235 0.1876 0.84395 0.0
H1929 H 0.43727 0.08326 0.90914 0.0
H1930 H 0.4496 0.12095 0.89259 0.0
H1931 H 0.40318 0.1576 0.86194 0.0
H1932 H 0.44433 0.26924 0.83837 0.0
H1933 H 0.43017 0.22915 0.83156 0.0
C1934 C 0.43497 0.4396 0.85482 0.0
C1935 C 0.43428 0.41696 0.86506 0.0
C1936 C 0.41443 0.45 0.84591 0.0
C1937 C 0.35128 0.43957 0.83075 0.0
H1938 H 0.34321 0.50197 0.85796 0.0
C1939 C 0.26039 0.48058 0.85091 0.0
C1940 C 0.25808 0.50525 0.85134 0.0
C1941 C 0.28212 0.47016 0.84559 0.0
C1942 C 0.34521 0.48483 0.84965 0.0
H1943 H 0.41189 0.38683 0.87248 0.0
H1944 H 0.37598 0.40501 0.85701 0.0
H1945 H 0.38118 0.48265 0.8607 0.0
H1946 H 0.27601 0.5383 0.84426 0.0
H1947 H 0.31375 0.52014 0.83424 0.0
H1948 H 0.31496 0.44159 0.82029 0.0
C1949 C 0.39241 0.41467 0.85567 0.0
C1950 C 0.36709 0.47369 0.85127 0.0
C1951 C 0.413 0.40423 0.86454 0.0
C1952 C 0.2774 0.51923 0.8445 0.0
C1953 C 0.29905 0.50881 0.83888 0.0
C1954 C 0.32934 0.4508 0.82899 0.0
C1955 C 0.39274 0.43802 0.84711 0.0
C1956 C 0.37028 0.45074 0.84231 0.0
C1957 C 0.30195 0.48418 0.84028 0.0
C1958 C 0.32589 0.47338 0.83892 0.0
H1959 H 0.45121 0.44968 0.85468 0.0
H1960 H 0.41536 0.46782 0.83899 0.0
H1961 H 0.35325 0.42198 0.82344 0.0
H1962 H 0.2458 0.46931 0.85606 0.0
H1963 H 0.28364 0.45118 0.84704 0.0
C1964 C 0.07504 0.41563 0.892 0.0
C1965 C 0.09126 0.4299 0.87952 0.0
C1966 C 0.06707 0.39447 0.88223 0.0
C1967 C 0.08262 0.34465 0.84849 0.0
H1968 H 0.01524 0.3353 0.84093 0.0
C1969 C 0.0425 0.2514 0.83566 0.0
C1970 C 0.02306 0.24694 0.85066 0.0
C1971 C 0.05069 0.27454 0.83234 0.0
C1972 C 0.03411 0.33757 0.84293 0.0
H1973 H 0.11211 0.43249 0.84693 0.0
H1974 H 0.09886 0.39456 0.83044 0.0
H1975 H 0.03064 0.37481 0.8485 0.0
H1976 H 0.99627 0.26336 0.87291 0.0
H1977 H 0.01064 0.30314 0.86756 0.0
H1978 H 0.08603 0.3072 0.84488 0.0
C1979 C 0.09209 0.40038 0.8476 0.0
C1980 C 0.04289 0.36021 0.84705 0.0
C1981 C 0.09974 0.42197 0.85716 0.0
C1982 C 0.0114 0.26609 0.86136 0.0
C1983 C 0.01952 0.28905 0.85806 0.0
C1984 C 0.0738 0.32186 0.84471 0.0
C1985 C 0.07551 0.38665 0.86002 0.0
C1986 C 0.06711 0.3638 0.85062 0.0
C1987 C 0.03949 0.2936 0.84383 0.0
C1988 C 0.04933 0.31796 0.84282 0.0
H1989 H 0.06869 0.42052 0.90961 0.0
H1990 H 0.05459 0.3839 0.89232 0.0
H1991 H 0.10137 0.34706 0.85138 0.0
H1992 H 0.0518 0.23702 0.82707 0.0
H1993 H 0.06599 0.27745 0.82108 0.0
C1994 C 0.22748 0.98907 0.85023 0.0
C1995 C 0.24917 1.00085 0.85271 0.0
C1996 C 0.20706 1.00158 0.84424 0.0
C1997 C 0.18306 0.06008 0.85388 0.0
H1998 H 0.13022 0.03729 0.81635 0.0
C1999 C 0.09369 0.10548 0.86265 0.0
C2000 C 0.07448 0.09008 0.86583 0.0
C2001 C 0.11504 0.09718 0.85336 0.0
C2002 C 0.14478 0.04389 0.82696 0.0
H2003 H 0.26683 0.03461 0.8488 0.0
H2004 H 0.23118 0.05641 0.83851 0.0
H2005 H 0.16824 0.01706 0.81396 0.0
H2006 H 0.06197 0.05447 0.85937 0.0
H2007 H 0.09936 0.03974 0.8444 0.0
H2008 H 0.15964 0.08589 0.86811 0.0
C2009 C 0.22993 0.03757 0.84149 0.0
C2010 C 0.16657 0.03233 0.82551 0.0
C2011 C 0.25035 0.02505 0.84733 0.0
C2012 C 0.07658 0.06668 0.85771 0.0
C2013 C 0.09802 0.0583 0.84876 0.0
C2014 C 0.16131 0.07144 0.85554 0.0
C2015 C 0.20794 0.02613 0.84072 0.0
C2016 C 0.1858 0.04004 0.83934 0.0
C2017 C 0.11782 0.07321 0.84735 0.0
C2018 C 0.14169 0.06321 0.84254 0.0
H2019 H 0.22605 0.97037 0.85397 0.0
H2020 H 0.19037 0.99227 0.84386 0.0
H2021 H 0.19741 0.06623 0.86508 0.0
H2022 H 0.0928 0.12361 0.86869 0.0
H2023 H 0.1297 0.10935 0.85193 0.0
C2024 C 0.51609 0.28122 0.65949 0.0
C2025 C 0.504 0.25966 0.65747 0.0
C2026 C 0.50375 0.3021 0.66413 0.0
C2027 C 0.44591 0.32706 0.65224 0.0
H2028 H 0.46817 0.37988 0.69014 0.0
C2029 C 0.39975 0.41646 0.64484 0.0
C2030 C 0.41481 0.43604 0.64235 0.0
C2031 C 0.40843 0.3949 0.65319 0.0
C2032 C 0.46175 0.36534 0.67939 0.0
H2033 H 0.46974 0.24281 0.66057 0.0
H2034 H 0.44826 0.27923 0.66852 0.0
H2035 H 0.48815 0.34176 0.69304 0.0
H2036 H 0.45036 0.44875 0.64878 0.0
H2037 H 0.46573 0.41103 0.66222 0.0
H2038 H 0.42043 0.35059 0.63751 0.0
C2039 C 0.46722 0.28003 0.66623 0.0
C2040 C 0.47316 0.3435 0.68113 0.0
C2041 C 0.47957 0.25916 0.66175 0.0
C2042 C 0.43837 0.43391 0.64997 0.0
C2043 C 0.44713 0.41228 0.65803 0.0
C2044 C 0.43468 0.34887 0.65031 0.0
C2045 C 0.47907 0.3018 0.66673 0.0
C2046 C 0.46557 0.32424 0.66727 0.0
C2047 C 0.43246 0.39227 0.65898 0.0
C2048 C 0.44268 0.36845 0.66352 0.0
H2049 H 0.53496 0.28216 0.65653 0.0
H2050 H 0.51337 0.31861 0.66432 0.0
H2051 H 0.43987 0.31268 0.641 0.0
H2052 H 0.38153 0.41734 0.63909 0.0
H2053 H 0.39646 0.38004 0.65424 0.0
C2054 C 0.07076 0.44036 0.6494 0.0
C2055 C 0.06857 0.4167 0.64209 0.0
C2056 C 0.09234 0.44911 0.65764 0.0
C2057 C 0.15577 0.43622 0.65108 0.0
H2058 H 0.16263 0.49006 0.6934 0.0
C2059 C 0.24557 0.48083 0.6629 0.0
C2060 C 0.24518 0.50519 0.65825 0.0
C2061 C 0.22462 0.46862 0.66748 0.0
C2062 C 0.16097 0.47497 0.68162 0.0
H2063 H 0.08712 0.3833 0.6395 0.0
H2064 H 0.12429 0.39824 0.65498 0.0
H2065 H 0.1244 0.47031 0.69008 0.0
H2066 H 0.22282 0.5362 0.65687 0.0
H2067 H 0.18625 0.51485 0.66483 0.0
H2068 H 0.19213 0.44108 0.64229 0.0
C2069 C 0.10953 0.41027 0.65356 0.0
C2070 C 0.13907 0.46369 0.67963 0.0
C2071 C 0.08803 0.40159 0.64502 0.0
C2072 C 0.22366 0.51738 0.6601 0.0
C2073 C 0.20272 0.50517 0.66484 0.0
C2074 C 0.17764 0.44732 0.65325 0.0
C2075 C 0.11223 0.43435 0.65909 0.0
C2076 C 0.13605 0.44448 0.6639 0.0
C2077 C 0.20289 0.48054 0.66771 0.0
C2078 C 0.18038 0.46712 0.66813 0.0
H2079 H 0.05601 0.4524 0.64787 0.0
H2080 H 0.09366 0.46776 0.66162 0.0
H2081 H 0.15415 0.42185 0.6384 0.0
H2082 H 0.26188 0.47094 0.66184 0.0
H2083 H 0.22533 0.44968 0.66999 0.0
C2084 C 0.02556 0.24775 0.66353 0.0
C2085 C 1.00121 0.24683 0.65886 0.0
C2086 C 0.03811 0.22713 0.66858 0.0
C2087 C 0.03278 0.16375 0.68427 0.0
H2088 H 0.08566 0.15657 0.6408 0.0
C2089 C 0.06721 0.07334 0.65302 0.0
C2090 C 0.09063 0.07114 0.645 0.0
C2091 C 0.05869 0.09496 0.66136 0.0
C2092 C 0.07138 0.15831 0.65358 0.0
H2093 H 0.97057 0.22391 0.65792 0.0
H2094 H 0.9925 0.18791 0.66675 0.0
H2095 H 0.06608 0.19442 0.64403 0.0
H2096 H 0.12401 0.0896 0.64147 0.0
H2097 H 0.10951 0.12691 0.65713 0.0
H2098 H 0.03786 0.12745 0.69352 0.0
C2099 C 1.00191 0.20454 0.66639 0.0
C2100 C 0.06008 0.1801 0.65535 0.0
C2101 C 0.98938 0.22515 0.66115 0.0
C2102 C 0.10587 0.09057 0.6475 0.0
C2103 C 0.09743 0.11213 0.65615 0.0
C2104 C 0.04428 0.14195 0.6827 0.0
C2105 C 0.02654 0.2052 0.66931 0.0
C2106 C 0.04031 0.18294 0.67027 0.0
C2107 C 0.07348 0.11489 0.66223 0.0
C2108 C 0.06337 0.13877 0.66685 0.0
H2109 H 0.03519 0.2642 0.66213 0.0
H2110 H 0.05703 0.22821 0.67109 0.0
H2111 H 0.01773 0.1655 0.6961 0.0
H2112 H 0.0551 0.0586 0.65183 0.0
H2113 H 0.04014 0.09629 0.66578 0.0
C2114 C 0.25842 0.02521 0.66314 0.0
C2115 C 0.25884 1.00081 0.65867 0.0
C2116 C 0.27934 0.03749 0.66766 0.0
C2117 C 0.34289 0.03139 0.6822 0.0
H2118 H 0.34989 0.08433 0.63881 0.0
C2119 C 0.43328 0.06628 0.65078 0.0
C2120 C 0.4354 0.08984 0.64312 0.0
C2121 C 0.41167 0.05752 0.65894 0.0
C2122 C 0.34821 0.07002 0.65154 0.0
H2123 H 0.28125 0.96983 0.65746 0.0
H2124 H 0.31779 0.9913 0.66534 0.0
H2125 H 0.31196 0.06492 0.64242 0.0
H2126 H 0.41673 0.12312 0.63996 0.0
H2127 H 0.37949 0.10819 0.65533 0.0
H2128 H 0.37933 0.03631 0.69105 0.0
C2129 C 0.3013 1.00095 0.66526 0.0
C2130 C 0.32638 0.05881 0.65354 0.0
C2131 C 0.28038 0.98867 0.66058 0.0
C2132 C 0.41586 0.1049 0.64572 0.0
C2133 C 0.39432 0.09621 0.6542 0.0
C2134 C 0.36475 0.0428 0.6804 0.0
C2135 C 0.30109 0.0256 0.668 0.0
C2136 C 0.32357 0.03908 0.66849 0.0
C2137 C 0.39167 0.07218 0.65999 0.0
C2138 C 0.36784 0.06195 0.66461 0.0
H2139 H 0.2421 0.03508 0.66204 0.0
H2140 H 0.2786 0.05644 0.67007 0.0
H2141 H 0.34117 0.01635 0.69404 0.0
H2142 H 0.44809 0.05429 0.64951 0.0
H2143 H 0.41041 0.03892 0.66314 0.0
loop_
_geom_bond_atom_site_label_1
_geom_bond_atom_site_label_2
_geom_bond_distance
_geom_bond_site_symmetry_2
_ccdc_geom_bond_type
O0 Tb1 2.292 . S
O0 C3 1.255 . S
Tb1 O0 2.292 . S
Tb1 O17 2.326 . S
Tb1 O19 2.500 . S
Tb1 O20 2.473 . S
Tb1 O23 2.324 . S
Eu2 O6 2.292 . S
Eu2 C7 2.852 . S
Eu2 O18 2.324 . S
Eu2 O22 2.326 . S
Eu2 O24 2.500 . S
Eu2 O25 2.473 . S
C3 O0 1.255 . S
C3 O4 1.247 . S
O4 C3 1.247 . S
C5 O17 1.242 . S
C5 O18 1.258 . S
O6 Eu2 2.292 . S
O6 C8 1.255 . S
C7 Eu2 2.852 . S
C7 C11 1.503 . S
C7 O24 1.273 . S
C7 O25 1.257 . S
C8 O6 1.255 . S
C8 O9 1.247 . S
O9 C8 1.247 . S
C10 O22 1.242 . S
C10 O23 1.258 . S
C11 C7 1.503 . S
C11 C12 1.379 . S
C11 C16 1.392 1_545 S
C12 C11 1.379 . S
C12 C13 1.404 . S
C12 H26 0.929 . S
C13 C12 1.404 . S
C13 C14 1.389 1_545 S
C14 C13 1.389 1_565 S
C14 C15 1.399 . S
C14 H27 0.931 . S
C15 C14 1.399 . S
C15 C16 1.390 . S
C16 C11 1.392 1_565 S
C16 C15 1.390 . S
C16 H28 0.929 . S
O17 Tb1 2.326 . S
O17 C5 1.242 . S
O18 Eu2 2.324 . S
O18 C5 1.258 . S
O19 Tb1 2.500 . S
O19 C21 1.273 . S
O20 Tb1 2.473 . S
O20 C21 1.257 . S
C21 O19 1.273 . S
C21 O20 1.257 . S
O22 Eu2 2.326 . S
O22 C10 1.242 . S
O23 Tb1 2.324 . S
O23 C10 1.258 . S
O24 Eu2 2.500 . S
O24 C7 1.273 . S
O25 Eu2 2.473 . S
O25 C7 1.257 . S
H26 C12 0.929 . S
H27 C14 0.931 . S
H28 C16 0.929 . S
O29 Tb30 2.292 . S
O29 C32 1.255 . S
Tb30 O29 2.292 . S
Tb30 O46 2.326 . S
Tb30 O48 2.500 . S
Tb30 O49 2.473 . S
Tb30 O52 2.324 . S
Eu31 O35 2.292 . S
Eu31 C36 2.852 . S
Eu31 O47 2.324 . S
Eu31 O51 2.326 . S
Eu31 O53 2.500 . S
Eu31 O54 2.473 . S
C32 O29 1.255 . S
C32 O33 1.247 . S
O33 C32 1.247 . S
C34 O46 1.242 . S
C34 O47 1.258 . S
O35 Eu31 2.292 . S
O35 C37 1.255 . S
C36 Eu31 2.852 . S
C36 C40 1.503 . S
C36 O53 1.273 . S
C36 O54 1.257 . S
C37 O35 1.255 . S
C37 O38 1.247 . S
O38 C37 1.247 . S
C39 O51 1.242 . S
C39 O52 1.258 . S
C40 C36 1.503 . S
C40 C41 1.379 . S
C40 C45 1.392 . S
C41 C40 1.379 . S
C41 C42 1.404 . S
C41 H55 0.929 . S
C42 C41 1.404 . S
C42 C43 1.389 . S
C43 C42 1.389 . S
C43 C44 1.399 . S
C43 H56 0.931 . S
C44 C43 1.399 . S
C44 C45 1.390 . S
C45 C40 1.392 . S
C45 C44 1.390 . S
C45 H57 0.929 . S
O46 Tb30 2.326 . S
O46 C34 1.242 . S
O47 Eu31 2.324 . S
O47 C34 1.258 . S
O48 Tb30 2.500 . S
O48 C50 1.273 . S
O49 Tb30 2.473 . S
O49 C50 1.257 . S
C50 O48 1.273 . S
C50 O49 1.257 . S
O51 Eu31 2.326 . S
O51 C39 1.242 . S
O52 Tb30 2.324 . S
O52 C39 1.258 . S
O53 Eu31 2.500 . S
O53 C36 1.273 . S
O54 Eu31 2.473 . S
O54 C36 1.257 . S
H55 C41 0.929 . S
H56 C43 0.931 . S
H57 C45 0.929 . S
O58 Tb59 2.292 . S
O58 C61 1.255 . S
Tb59 O58 2.292 . S
Tb59 O75 2.326 . S
Tb59 O77 2.500 . S
Tb59 O78 2.473 . S
Tb59 O81 2.324 . S
Eu60 O64 2.292 . S
Eu60 C65 2.852 . S
Eu60 O76 2.324 . S
Eu60 O80 2.326 . S
Eu60 O82 2.500 . S
Eu60 O83 2.473 . S
C61 O58 1.255 . S
C61 O62 1.247 . S
O62 C61 1.247 . S
C63 O75 1.242 . S
C63 O76 1.258 . S
O64 Eu60 2.292 . S
O64 C66 1.255 . S
C65 Eu60 2.852 . S
C65 C69 1.503 . S
C65 O82 1.273 . S
C65 O83 1.257 . S
C66 O64 1.255 . S
C66 O67 1.247 . S
O67 C66 1.247 . S
C68 O80 1.242 . S
C68 O81 1.258 . S
C69 C65 1.503 . S
C69 C70 1.379 . S
C69 C74 1.392 . S
C70 C69 1.379 . S
C70 C71 1.404 . S
C70 H84 0.929 . S
C71 C70 1.404 . S
C71 C72 1.389 . S
C72 C71 1.389 . S
C72 C73 1.399 . S
C72 H85 0.931 . S
C73 C72 1.399 . S
C73 C74 1.390 . S
C74 C69 1.392 . S
C74 C73 1.390 . S
C74 H86 0.929 . S
O75 Tb59 2.326 . S
O75 C63 1.242 . S
O76 Eu60 2.324 . S
O76 C63 1.258 . S
O77 Tb59 2.500 . S
O77 C79 1.273 . S
O78 Tb59 2.473 . S
O78 C79 1.257 . S
C79 O77 1.273 . S
C79 O78 1.257 . S
O80 Eu60 2.326 . S
O80 C68 1.242 . S
O81 Tb59 2.324 . S
O81 C68 1.258 . S
O82 Eu60 2.500 . S
O82 C65 1.273 . S
O83 Eu60 2.473 . S
O83 C65 1.257 . S
H84 C70 0.929 . S
H85 C72 0.931 . S
H86 C74 0.929 . S
O87 Tb88 2.292 . S
O87 C90 1.255 . S
Tb88 O87 2.292 . S
Tb88 O104 2.326 . S
Tb88 O106 2.500 . S
Tb88 O107 2.473 . S
Tb88 O110 2.324 . S
Eu89 O93 2.292 . S
Eu89 C94 2.852 . S
Eu89 O105 2.324 . S
Eu89 O109 2.326 . S
Eu89 O111 2.500 . S
Eu89 O112 2.473 . S
C90 O87 1.255 . S
C90 O91 1.247 . S
O91 C90 1.247 . S
C92 O104 1.242 . S
C92 O105 1.258 . S
O93 Eu89 2.292 . S
O93 C95 1.255 . S
C94 Eu89 2.852 . S
C94 C98 1.503 . S
C94 O111 1.273 . S
C94 O112 1.257 . S
C95 O93 1.255 . S
C95 O96 1.247 . S
O96 C95 1.247 . S
C97 O109 1.242 . S
C97 O110 1.258 . S
C98 C94 1.503 . S
C98 C99 1.379 . S
C98 C103 1.392 1_455 S
C99 C98 1.379 . S
C99 C100 1.404 . S
C99 H113 0.929 . S
C100 C99 1.404 . S
C100 C101 1.389 1_455 S
C101 C100 1.389 1_655 S
C101 C102 1.399 . S
C101 H114 0.931 . S
C102 C101 1.399 . S
C102 C103 1.390 . S
C103 C98 1.392 1_655 S
C103 C102 1.390 . S
C103 H115 0.929 . S
O104 Tb88 2.326 . S
O104 C92 1.242 . S
O105 Eu89 2.324 . S
O105 C92 1.258 . S
O106 Tb88 2.500 . S
O106 C108 1.273 . S
O107 Tb88 2.473 . S
O107 C108 1.257 . S
C108 O106 1.273 . S
C108 O107 1.257 . S
O109 Eu89 2.326 . S
O109 C97 1.242 . S
O110 Tb88 2.324 . S
O110 C97 1.258 . S
O111 Eu89 2.500 . S
O111 C94 1.273 . S
O112 Eu89 2.473 . S
O112 C94 1.257 . S
H113 C99 0.929 . S
H114 C101 0.931 . S
H115 C103 0.929 . S
O116 Tb117 2.292 . S
O116 C119 1.255 . S
Tb117 O116 2.292 . S
Tb117 O133 2.326 . S
Tb117 O135 2.500 . S
Tb117 O136 2.473 . S
Tb117 O139 2.324 . S
Eu118 O122 2.292 . S
Eu118 C123 2.852 . S
Eu118 O134 2.324 . S
Eu118 O138 2.326 . S
Eu118 O140 2.500 . S
Eu118 O141 2.473 . S
C119 O116 1.255 . S
C119 O120 1.247 . S
O120 C119 1.247 . S
C121 O133 1.242 . S
C121 O134 1.258 . S
O122 Eu118 2.292 . S
O122 C124 1.255 . S
C123 Eu118 2.852 . S
C123 C127 1.503 . S
C123 O140 1.273 . S
C123 O141 1.257 . S
C124 O122 1.255 . S
C124 O125 1.247 . S
O125 C124 1.247 . S
C126 O138 1.242 . S
C126 O139 1.258 . S
C127 C123 1.503 . S
C127 C128 1.379 . S
C127 C132 1.392 . S
C128 C127 1.379 . S
C128 C129 1.404 . S
C128 H142 0.929 . S
C129 C128 1.404 . S
C129 C130 1.389 . S
C130 C129 1.389 . S
C130 C131 1.399 . S
C130 H143 0.931 . S
C131 C130 1.399 . S
C131 C132 1.390 . S
C132 C127 1.392 . S
C132 C131 1.390 . S
C132 H144 0.929 . S
O133 Tb117 2.326 . S
O133 C121 1.242 . S
O134 Eu118 2.324 . S
O134 C121 1.258 . S
O135 Tb117 2.500 . S
O135 C137 1.273 . S
O136 Tb117 2.473 . S
O136 C137 1.257 . S
C137 O135 1.273 . S
C137 O136 1.257 . S
O138 Eu118 2.326 . S
O138 C126 1.242 . S
O139 Tb117 2.324 . S
O139 C126 1.258 . S
O140 Eu118 2.500 . S
O140 C123 1.273 . S
O141 Eu118 2.473 . S
O141 C123 1.257 . S
H142 C128 0.929 . S
H143 C130 0.931 . S
H144 C132 0.929 . S
O145 Tb146 2.292 . S
O145 C148 1.255 . S
Tb146 O145 2.292 . S
Tb146 O162 2.326 . S
Tb146 O164 2.500 . S
Tb146 O165 2.473 . S
Tb146 O168 2.324 . S
Eu147 O151 2.292 . S
Eu147 C152 2.852 . S
Eu147 O163 2.324 . S
Eu147 O167 2.326 . S
Eu147 O169 2.500 . S
Eu147 O170 2.473 . S
C148 O145 1.255 . S
C148 O149 1.247 . S
O149 C148 1.247 . S
C150 O162 1.242 . S
C150 O163 1.258 . S
O151 Eu147 2.292 . S
O151 C153 1.255 . S
C152 Eu147 2.852 . S
C152 C156 1.503 . S
C152 O169 1.273 . S
C152 O170 1.257 . S
C153 O151 1.255 . S
C153 O154 1.247 . S
O154 C153 1.247 . S
C155 O167 1.242 . S
C155 O168 1.258 . S
C156 C152 1.503 . S
C156 C157 1.379 . S
C156 C161 1.392 1_455 S
C157 C156 1.379 . S
C157 C158 1.404 . S
C157 H171 0.929 . S
C158 C157 1.404 . S
C158 C159 1.389 1_455 S
C159 C158 1.389 1_655 S
C159 C160 1.399 . S
C159 H172 0.931 . S
C160 C159 1.399 . S
C160 C161 1.390 . S
C161 C156 1.392 1_655 S
C161 C160 1.390 . S
C161 H173 0.929 . S
O162 Tb146 2.326 . S
O162 C150 1.242 . S
O163 Eu147 2.324 . S
O163 C150 1.258 . S
O164 Tb146 2.500 . S
O164 C166 1.273 . S
O165 Tb146 2.473 . S
O165 C166 1.257 . S
C166 O164 1.273 . S
C166 O165 1.257 . S
O167 Eu147 2.326 . S
O167 C155 1.242 . S
O168 Tb146 2.324 . S
O168 C155 1.258 . S
O169 Eu147 2.500 . S
O169 C152 1.273 . S
O170 Eu147 2.473 . S
O170 C152 1.257 . S
H171 C157 0.929 . S
H172 C159 0.931 . S
H173 C161 0.929 . S
O174 Tb175 2.292 . S
O174 C177 1.255 . S
Tb175 O174 2.292 . S
Tb175 O191 2.326 . S
Tb175 O193 2.500 . S
Tb175 O194 2.473 . S
Tb175 O197 2.324 . S
Eu176 O180 2.292 . S
Eu176 C181 2.852 . S
Eu176 O192 2.324 . S
Eu176 O196 2.326 . S
Eu176 O198 2.500 . S
Eu176 O199 2.473 . S
C177 O174 1.255 . S
C177 O178 1.247 . S
O178 C177 1.247 . S
C179 O191 1.242 . S
C179 O192 1.258 . S
O180 Eu176 2.292 . S
O180 C182 1.255 . S
C181 Eu176 2.852 . S
C181 C185 1.503 . S
C181 O198 1.273 . S
C181 O199 1.257 . S
C182 O180 1.255 . S
C182 O183 1.247 . S
O183 C182 1.247 . S
C184 O196 1.242 . S
C184 O197 1.258 . S
C185 C181 1.503 . S
C185 C186 1.379 . S
C185 C190 1.392 1_545 S
C186 C185 1.379 . S
C186 C187 1.404 . S
C186 H200 0.929 . S
C187 C186 1.404 . S
C187 C188 1.389 1_545 S
C188 C187 1.389 1_565 S
C188 C189 1.399 . S
C188 H201 0.931 . S
C189 C188 1.399 . S
C189 C190 1.390 . S
C190 C185 1.392 1_565 S
C190 C189 1.390 . S
C190 H202 0.929 . S
O191 Tb175 2.326 . S
O191 C179 1.242 . S
O192 Eu176 2.324 . S
O192 C179 1.258 . S
O193 Tb175 2.500 . S
O193 C195 1.273 . S
O194 Tb175 2.473 . S
O194 C195 1.257 . S
C195 O193 1.273 . S
C195 O194 1.257 . S
O196 Eu176 2.326 . S
O196 C184 1.242 . S
O197 Tb175 2.324 . S
O197 C184 1.258 . S
O198 Eu176 2.500 . S
O198 C181 1.273 . S
O199 Eu176 2.473 . S
O199 C181 1.257 . S
H200 C186 0.929 . S
H201 C188 0.931 . S
H202 C190 0.929 . S
O203 Tb204 2.292 . S
O203 C206 1.255 . S
Tb204 O203 2.292 . S
Tb204 O220 2.326 . S
Tb204 O222 2.500 . S
Tb204 O223 2.473 . S
Tb204 O226 2.324 . S
Eu205 O209 2.292 . S
Eu205 C210 2.852 . S
Eu205 O221 2.324 . S
Eu205 O225 2.326 . S
Eu205 O227 2.500 . S
Eu205 O228 2.473 . S
C206 O203 1.255 . S
C206 O207 1.247 . S
O207 C206 1.247 . S
C208 O220 1.242 . S
C208 O221 1.258 . S
O209 Eu205 2.292 . S
O209 C211 1.255 . S
C210 Eu205 2.852 . S
C210 C214 1.503 . S
C210 O227 1.273 . S
C210 O228 1.257 . S
C211 O209 1.255 . S
C211 O212 1.247 . S
O212 C211 1.247 . S
C213 O225 1.242 . S
C213 O226 1.258 . S
C214 C210 1.503 . S
C214 C215 1.379 . S
C214 C219 1.392 . S
C215 C214 1.379 . S
C215 C216 1.404 . S
C215 H229 0.929 . S
C216 C215 1.404 . S
C216 C217 1.389 . S
C217 C216 1.389 . S
C217 C218 1.399 . S
C217 H230 0.931 . S
C218 C217 1.399 . S
C218 C219 1.390 . S
C219 C214 1.392 . S
C219 C218 1.390 . S
C219 H231 0.929 . S
O220 Tb204 2.326 . S
O220 C208 1.242 . S
O221 Eu205 2.324 . S
O221 C208 1.258 . S
O222 Tb204 2.500 . S
O222 C224 1.273 . S
O223 Tb204 2.473 . S
O223 C224 1.257 . S
C224 O222 1.273 . S
C224 O223 1.257 . S
O225 Eu205 2.326 . S
O225 C213 1.242 . S
O226 Tb204 2.324 . S
O226 C213 1.258 . S
O227 Eu205 2.500 . S
O227 C210 1.273 . S
O228 Eu205 2.473 . S
O228 C210 1.257 . S
H229 C215 0.929 . S
H230 C217 0.931 . S
H231 C219 0.929 . S
O232 Tb233 2.292 . S
O232 C235 1.255 . S
Tb233 O232 2.292 . S
Tb233 O249 2.326 . S
Tb233 O251 2.500 . S
Tb233 O252 2.473 . S
Tb233 O255 2.324 . S
Eu234 O238 2.292 . S
Eu234 C239 2.852 . S
Eu234 O250 2.324 . S
Eu234 O254 2.326 . S
Eu234 O256 2.500 . S
Eu234 O257 2.473 . S
C235 O232 1.255 . S
C235 O236 1.247 . S
O236 C235 1.247 . S
C237 O249 1.242 . S
C237 O250 1.258 . S
O238 Eu234 2.292 . S
O238 C240 1.255 . S
C239 Eu234 2.852 . S
C239 C243 1.503 . S
C239 O256 1.273 . S
C239 O257 1.257 . S
C240 O238 1.255 . S
C240 O241 1.247 . S
O241 C240 1.247 . S
C242 O254 1.242 . S
C242 O255 1.258 . S
C243 C239 1.503 . S
C243 C244 1.379 . S
C243 C248 1.392 1_565 S
C244 C243 1.379 . S
C244 C245 1.404 . S
C244 H258 0.929 . S
C245 C244 1.404 . S
C245 C246 1.389 1_565 S
C246 C245 1.389 1_545 S
C246 C247 1.399 . S
C246 H259 0.931 . S
C247 C246 1.399 . S
C247 C248 1.390 . S
C248 C243 1.392 1_545 S
C248 C247 1.390 . S
C248 H260 0.929 . S
O249 Tb233 2.326 . S
O249 C237 1.242 . S
O250 Eu234 2.324 . S
O250 C237 1.258 . S
O251 Tb233 2.500 . S
O251 C253 1.273 . S
O252 Tb233 2.473 . S
O252 C253 1.257 . S
C253 O251 1.273 . S
C253 O252 1.257 . S
O254 Eu234 2.326 . S
O254 C242 1.242 . S
O255 Tb233 2.324 . S
O255 C242 1.258 . S
O256 Eu234 2.500 . S
O256 C239 1.273 . S
O257 Eu234 2.473 . S
O257 C239 1.257 . S
H258 C244 0.929 . S
H259 C246 0.931 . S
H260 C248 0.929 . S
O261 Tb262 2.292 . S
O261 C264 1.255 . S
Tb262 O261 2.292 . S
Tb262 O278 2.326 . S
Tb262 O280 2.500 . S
Tb262 O281 2.473 . S
Tb262 O284 2.324 . S
Eu263 O267 2.292 . S
Eu263 C268 2.852 . S
Eu263 O279 2.324 . S
Eu263 O283 2.326 . S
Eu263 O285 2.500 . S
Eu263 O286 2.473 . S
C264 O261 1.255 . S
C264 O265 1.247 . S
O265 C264 1.247 . S
C266 O278 1.242 . S
C266 O279 1.258 . S
O267 Eu263 2.292 . S
O267 C269 1.255 . S
C268 Eu263 2.852 . S
C268 C272 1.503 . S
C268 O285 1.273 . S
C268 O286 1.257 . S
C269 O267 1.255 . S
C269 O270 1.247 . S
O270 C269 1.247 . S
C271 O283 1.242 . S
C271 O284 1.258 . S
C272 C268 1.503 . S
C272 C273 1.379 . S
C272 C277 1.392 . S
C273 C272 1.379 . S
C273 C274 1.404 . S
C273 H287 0.929 . S
C274 C273 1.404 . S
C274 C275 1.389 . S
C275 C274 1.389 . S
C275 C276 1.399 . S
C275 H288 0.931 . S
C276 C275 1.399 . S
C276 C277 1.390 . S
C277 C272 1.392 . S
C277 C276 1.390 . S
C277 H289 0.929 . S
O278 Tb262 2.326 . S
O278 C266 1.242 . S
O279 Eu263 2.324 . S
O279 C266 1.258 . S
O280 Tb262 2.500 . S
O280 C282 1.273 . S
O281 Tb262 2.473 . S
O281 C282 1.257 . S
C282 O280 1.273 . S
C282 O281 1.257 . S
O283 Eu263 2.326 . S
O283 C271 1.242 . S
O284 Tb262 2.324 . S
O284 C271 1.258 . S
O285 Eu263 2.500 . S
O285 C268 1.273 . S
O286 Eu263 2.473 . S
O286 C268 1.257 . S
H287 C273 0.929 . S
H288 C275 0.931 . S
H289 C277 0.929 . S
O290 Tb291 2.292 . S
O290 C293 1.255 . S
Tb291 O290 2.292 . S
Tb291 O307 2.326 . S
Tb291 O309 2.500 . S
Tb291 O310 2.473 . S
Tb291 O313 2.324 . S
Eu292 O296 2.292 . S
Eu292 C297 2.852 . S
Eu292 O308 2.324 . S
Eu292 O312 2.326 . S
Eu292 O314 2.500 . S
Eu292 O315 2.473 . S
C293 O290 1.255 . S
C293 O294 1.247 . S
O294 C293 1.247 . S
C295 O307 1.242 . S
C295 O308 1.258 . S
O296 Eu292 2.292 . S
O296 C298 1.255 . S
C297 Eu292 2.852 . S
C297 C301 1.503 . S
C297 O314 1.273 . S
C297 O315 1.257 . S
C298 O296 1.255 . S
C298 O299 1.247 . S
O299 C298 1.247 . S
C300 O312 1.242 . S
C300 O313 1.258 . S
C301 C297 1.503 . S
C301 C302 1.379 . S
C301 C306 1.392 . S
C302 C301 1.379 . S
C302 C303 1.404 . S
C302 H316 0.929 . S
C303 C302 1.404 . S
C303 C304 1.389 . S
C304 C303 1.389 . S
C304 C305 1.399 . S
C304 H317 0.931 . S
C305 C304 1.399 . S
C305 C306 1.390 . S
C306 C301 1.392 . S
C306 C305 1.390 . S
C306 H318 0.929 . S
O307 Tb291 2.326 . S
O307 C295 1.242 . S
O308 Eu292 2.324 . S
O308 C295 1.258 . S
O309 Tb291 2.500 . S
O309 C311 1.273 . S
O310 Tb291 2.473 . S
O310 C311 1.257 . S
C311 O309 1.273 . S
C311 O310 1.257 . S
O312 Eu292 2.326 . S
O312 C300 1.242 . S
O313 Tb291 2.324 . S
O313 C300 1.258 . S
O314 Eu292 2.500 . S
O314 C297 1.273 . S
O315 Eu292 2.473 . S
O315 C297 1.257 . S
H316 C302 0.929 . S
H317 C304 0.931 . S
H318 C306 0.929 . S
O319 Tb320 2.292 . S
O319 C322 1.255 . S
Tb320 O319 2.292 . S
Tb320 O336 2.326 . S
Tb320 O338 2.500 . S
Tb320 O339 2.473 . S
Tb320 O342 2.324 . S
Eu321 O325 2.292 . S
Eu321 C326 2.852 . S
Eu321 O337 2.324 . S
Eu321 O341 2.326 . S
Eu321 O343 2.500 . S
Eu321 O344 2.473 . S
C322 O319 1.255 . S
C322 O323 1.247 . S
O323 C322 1.247 . S
C324 O336 1.242 . S
C324 O337 1.258 . S
O325 Eu321 2.292 . S
O325 C327 1.255 . S
C326 Eu321 2.852 . S
C326 C330 1.503 . S
C326 O343 1.273 . S
C326 O344 1.257 . S
C327 O325 1.255 . S
C327 O328 1.247 . S
O328 C327 1.247 . S
C329 O341 1.242 . S
C329 O342 1.258 . S
C330 C326 1.503 . S
C330 C331 1.379 . S
C330 C335 1.392 1_655 S
C331 C330 1.379 . S
C331 C332 1.404 . S
C331 H345 0.929 . S
C332 C331 1.404 . S
C332 C333 1.389 1_655 S
C333 C332 1.389 1_455 S
C333 C334 1.399 . S
C333 H346 0.931 . S
C334 C333 1.399 . S
C334 C335 1.390 . S
C335 C330 1.392 1_455 S
C335 C334 1.390 . S
C335 H347 0.929 . S
O336 Tb320 2.326 . S
O336 C324 1.242 . S
O337 Eu321 2.324 . S
O337 C324 1.258 . S
O338 Tb320 2.500 . S
O338 C340 1.273 . S
O339 Tb320 2.473 . S
O339 C340 1.257 . S
C340 O338 1.273 . S
C340 O339 1.257 . S
O341 Eu321 2.326 . S
O341 C329 1.242 . S
O342 Tb320 2.324 . S
O342 C329 1.258 . S
O343 Eu321 2.500 . S
O343 C326 1.273 . S
O344 Eu321 2.473 . S
O344 C326 1.257 . S
H345 C331 0.929 . S
H346 C333 0.931 . S
H347 C335 0.929 . S
O348 Tb349 2.292 . S
O348 C351 1.255 . S
Tb349 O348 2.292 . S
Tb349 O365 2.326 . S
Tb349 O367 2.500 . S
Tb349 O368 2.473 . S
Tb349 O371 2.324 . S
Eu350 O354 2.292 . S
Eu350 C355 2.852 . S
Eu350 O366 2.324 . S
Eu350 O370 2.326 . S
Eu350 O372 2.500 . S
Eu350 O373 2.473 . S
C351 O348 1.255 . S
C351 O352 1.247 . S
O352 C351 1.247 . S
C353 O365 1.242 . S
C353 O366 1.258 . S
O354 Eu350 2.292 . S
O354 C356 1.255 . S
C355 Eu350 2.852 . S
C355 C359 1.503 . S
C355 O372 1.273 . S
C355 O373 1.257 . S
C356 O354 1.255 . S
C356 O357 1.247 . S
O357 C356 1.247 . S
C358 O370 1.242 . S
C358 O371 1.258 . S
C359 C355 1.503 . S
C359 C360 1.379 . S
C359 C364 1.392 . S
C360 C359 1.379 . S
C360 C361 1.404 . S
C360 H374 0.929 . S
C361 C360 1.404 . S
C361 C362 1.389 . S
C362 C361 1.389 . S
C362 C363 1.399 . S
C362 H375 0.931 . S
C363 C362 1.399 . S
C363 C364 1.390 . S
C364 C359 1.392 . S
C364 C363 1.390 . S
C364 H376 0.929 . S
O365 Tb349 2.326 . S
O365 C353 1.242 . S
O366 Eu350 2.324 . S
O366 C353 1.258 . S
O367 Tb349 2.500 . S
O367 C369 1.273 . S
O368 Tb349 2.473 . S
O368 C369 1.257 . S
C369 O367 1.273 . S
C369 O368 1.257 . S
O370 Eu350 2.326 . S
O370 C358 1.242 . S
O371 Tb349 2.324 . S
O371 C358 1.258 . S
O372 Eu350 2.500 . S
O372 C355 1.273 . S
O373 Eu350 2.473 . S
O373 C355 1.257 . S
H374 C360 0.929 . S
H375 C362 0.931 . S
H376 C364 0.929 . S
O377 Tb378 2.292 . S
O377 C380 1.255 . S
Tb378 O377 2.292 . S
Tb378 O394 2.326 . S
Tb378 O396 2.500 . S
Tb378 O397 2.473 . S
Tb378 O400 2.324 . S
Eu379 O383 2.292 . S
Eu379 C384 2.852 . S
Eu379 O395 2.324 . S
Eu379 O399 2.326 . S
Eu379 O401 2.500 . S
Eu379 O402 2.473 . S
C380 O377 1.255 . S
C380 O381 1.247 . S
O381 C380 1.247 . S
C382 O394 1.242 . S
C382 O395 1.258 . S
O383 Eu379 2.292 . S
O383 C385 1.255 . S
C384 Eu379 2.852 . S
C384 C388 1.503 . S
C384 O401 1.273 . S
C384 O402 1.257 . S
C385 O383 1.255 . S
C385 O386 1.247 . S
O386 C385 1.247 . S
C387 O399 1.242 . S
C387 O400 1.258 . S
C388 C384 1.503 . S
C388 C389 1.379 . S
C388 C393 1.392 1_655 S
C389 C388 1.379 . S
C389 C390 1.404 . S
C389 H403 0.929 . S
C390 C389 1.404 . S
C390 C391 1.389 1_655 S
C391 C390 1.389 1_455 S
C391 C392 1.399 . S
C391 H404 0.931 . S
C392 C391 1.399 . S
C392 C393 1.390 . S
C393 C388 1.392 1_455 S
C393 C392 1.390 . S
C393 H405 0.929 . S
O394 Tb378 2.326 . S
O394 C382 1.242 . S
O395 Eu379 2.324 . S
O395 C382 1.258 . S
O396 Tb378 2.500 . S
O396 C398 1.273 . S
O397 Tb378 2.473 . S
O397 C398 1.257 . S
C398 O396 1.273 . S
C398 O397 1.257 . S
O399 Eu379 2.326 . S
O399 C387 1.242 . S
O400 Tb378 2.324 . S
O400 C387 1.258 . S
O401 Eu379 2.500 . S
O401 C384 1.273 . S
O402 Eu379 2.473 . S
O402 C384 1.257 . S
H403 C389 0.929 . S
H404 C391 0.931 . S
H405 C393 0.929 . S
O406 Tb407 2.292 . S
O406 C409 1.255 . S
Tb407 O406 2.292 . S
Tb407 O423 2.326 . S
Tb407 O425 2.500 . S
Tb407 O426 2.473 . S
Tb407 O429 2.324 . S
Eu408 O412 2.292 . S
Eu408 C413 2.852 . S
Eu408 O424 2.324 . S
Eu408 O428 2.326 . S
Eu408 O430 2.500 . S
Eu408 O431 2.473 . S
C409 O406 1.255 . S
C409 O410 1.247 . S
O410 C409 1.247 . S
C411 O423 1.242 . S
C411 O424 1.258 . S
O412 Eu408 2.292 . S
O412 C414 1.255 . S
C413 Eu408 2.852 . S
C413 C417 1.503 . S
C413 O430 1.273 . S
C413 O431 1.257 . S
C414 O412 1.255 . S
C414 O415 1.247 . S
O415 C414 1.247 . S
C416 O428 1.242 . S
C416 O429 1.258 . S
C417 C413 1.503 . S
C417 C418 1.379 . S
C417 C422 1.392 1_565 S
C418 C417 1.379 . S
C418 C419 1.404 . S
C418 H432 0.929 . S
C419 C418 1.404 . S
C419 C420 1.389 1_565 S
C420 C419 1.389 1_545 S
C420 C421 1.399 . S
C420 H433 0.931 . S
C421 C420 1.399 . S
C421 C422 1.390 . S
C422 C417 1.392 1_545 S
C422 C421 1.390 . S
C422 H434 0.929 . S
O423 Tb407 2.326 . S
O423 C411 1.242 . S
O424 Eu408 2.324 . S
O424 C411 1.258 . S
O425 Tb407 2.500 . S
O425 C427 1.273 . S
O426 Tb407 2.473 . S
O426 C427 1.257 . S
C427 O425 1.273 . S
C427 O426 1.257 . S
O428 Eu408 2.326 . S
O428 C416 1.242 . S
O429 Tb407 2.324 . S
O429 C416 1.258 . S
O430 Eu408 2.500 . S
O430 C413 1.273 . S
O431 Eu408 2.473 . S
O431 C413 1.257 . S
H432 C418 0.929 . S
H433 C420 0.931 . S
H434 C422 0.929 . S
O435 Tb436 2.292 . S
O435 C438 1.255 . S
Tb436 O435 2.292 . S
Tb436 O452 2.326 . S
Tb436 O454 2.500 . S
Tb436 O455 2.473 . S
Tb436 O458 2.324 . S
Eu437 O441 2.292 . S
Eu437 C442 2.852 . S
Eu437 O453 2.324 . S
Eu437 O457 2.326 . S
Eu437 O459 2.500 . S
Eu437 O460 2.473 . S
C438 O435 1.255 . S
C438 O439 1.247 . S
O439 C438 1.247 . S
C440 O452 1.242 . S
C440 O453 1.258 . S
O441 Eu437 2.292 . S
O441 C443 1.255 . S
C442 Eu437 2.852 . S
C442 C446 1.503 . S
C442 O459 1.273 . S
C442 O460 1.257 . S
C443 O441 1.255 . S
C443 O444 1.247 . S
O444 C443 1.247 . S
C445 O457 1.242 . S
C445 O458 1.258 . S
C446 C442 1.503 . S
C446 C447 1.379 . S
C446 C451 1.392 . S
C447 C446 1.379 . S
C447 C448 1.404 . S
C447 H461 0.929 . S
C448 C447 1.404 . S
C448 C449 1.389 . S
C449 C448 1.389 . S
C449 C450 1.399 . S
C449 H462 0.931 . S
C450 C449 1.399 . S
C450 C451 1.390 . S
C451 C446 1.392 . S
C451 C450 1.390 . S
C451 H463 0.929 . S
O452 Tb436 2.326 . S
O452 C440 1.242 . S
O453 Eu437 2.324 . S
O453 C440 1.258 . S
O454 Tb436 2.500 . S
O454 C456 1.273 . S
O455 Tb436 2.473 . S
O455 C456 1.257 . S
C456 O454 1.273 . S
C456 O455 1.257 . S
O457 Eu437 2.326 . S
O457 C445 1.242 . S
O458 Tb436 2.324 . S
O458 C445 1.258 . S
O459 Eu437 2.500 . S
O459 C442 1.273 . S
O460 Eu437 2.473 . S
O460 C442 1.257 . S
H461 C447 0.929 . S
H462 C449 0.931 . S
H463 C451 0.929 . S
C464 C465 1.349 . S
C464 C466 1.327 . S
C464 H489 0.950 . S
C465 C464 1.349 . S
C465 C481 1.349 . S
C466 C464 1.327 . S
C466 C485 1.429 . S
C466 H490 0.950 . S
C467 C484 1.574 . S
C467 C486 1.368 . S
C467 H491 0.949 . S
H468 C472 0.949 . S
C469 C470 1.349 . S
C469 C471 1.327 . S
C469 H492 0.950 . S
C470 C469 1.349 . S
C470 C482 1.349 . S
C471 C469 1.327 . S
C471 C487 1.429 . S
C471 H493 0.950 . S
C472 H468 0.949 . S
C472 C480 1.574 . S
C472 C488 1.368 . S
H473 C481 0.950 . S
H474 C479 0.950 . S
H475 C480 0.949 . S
H476 C482 0.950 . S
H477 C483 0.950 . S
H478 C484 0.949 . S
C479 H474 0.950 . S
C479 C481 1.327 . S
C479 C485 1.429 . S
C480 C472 1.574 . S
C480 H475 0.949 . S
C480 C486 1.368 . S
C481 C465 1.349 . S
C481 H473 0.950 . S
C481 C479 1.327 . S
C482 C470 1.349 . S
C482 H476 0.950 . S
C482 C483 1.327 . S
C483 H477 0.950 . S
C483 C482 1.327 . S
C483 C487 1.429 . S
C484 C467 1.574 . S
C484 H478 0.949 . S
C484 C488 1.368 . S
C485 C466 1.429 . S
C485 C479 1.429 . S
C485 C486 1.523 . S
C486 C467 1.368 . S
C486 C480 1.368 . S
C486 C485 1.523 . S
C487 C471 1.429 . S
C487 C483 1.429 . S
C487 C488 1.523 . S
C488 C472 1.368 . S
C488 C484 1.368 . S
C488 C487 1.523 . S
H489 C464 0.950 . S
H490 C466 0.950 . S
H491 C467 0.949 . S
H492 C469 0.950 . S
H493 C471 0.950 . S
C494 C495 1.349 . S
C494 C496 1.327 . S
C494 H519 0.950 . S
C495 C494 1.349 . S
C495 C511 1.349 . S
C496 C494 1.327 . S
C496 C515 1.429 . S
C496 H520 0.950 . S
C497 C514 1.574 . S
C497 C516 1.368 . S
C497 H521 0.949 . S
H498 C502 0.949 . S
C499 C500 1.349 . S
C499 C501 1.327 . S
C499 H522 0.950 . S
C500 C499 1.349 . S
C500 C512 1.349 . S
C501 C499 1.327 . S
C501 C517 1.429 . S
C501 H523 0.950 . S
C502 H498 0.949 . S
C502 C510 1.574 . S
C502 C518 1.368 . S
H503 C511 0.950 . S
H504 C509 0.950 . S
H505 C510 0.949 . S
H506 C512 0.950 . S
H507 C513 0.950 . S
H508 C514 0.949 . S
C509 H504 0.950 . S
C509 C511 1.327 . S
C509 C515 1.429 . S
C510 C502 1.574 . S
C510 H505 0.949 . S
C510 C516 1.368 . S
C511 C495 1.349 . S
C511 H503 0.950 . S
C511 C509 1.327 . S
C512 C500 1.349 . S
C512 H506 0.950 . S
C512 C513 1.327 . S
C513 H507 0.950 . S
C513 C512 1.327 . S
C513 C517 1.429 . S
C514 C497 1.574 . S
C514 H508 0.949 . S
C514 C518 1.368 . S
C515 C496 1.429 . S
C515 C509 1.429 . S
C515 C516 1.523 . S
C516 C497 1.368 . S
C516 C510 1.368 . S
C516 C515 1.523 . S
C517 C501 1.429 . S
C517 C513 1.429 . S
C517 C518 1.523 . S
C518 C502 1.368 . S
C518 C514 1.368 . S
C518 C517 1.523 . S
H519 C494 0.950 . S
H520 C496 0.950 . S
H521 C497 0.949 . S
H522 C499 0.950 . S
H523 C501 0.950 . S
C524 C525 1.349 . S
C524 C526 1.327 . S
C524 H549 0.950 . S
C525 C524 1.349 . S
C525 C541 1.349 . S
C526 C524 1.327 . S
C526 C545 1.429 . S
C526 H550 0.950 . S
C527 C544 1.574 . S
C527 C546 1.368 . S
C527 H551 0.949 . S
H528 C532 0.949 . S
C529 C530 1.349 . S
C529 C531 1.327 . S
C529 H552 0.950 . S
C530 C529 1.349 . S
C530 C542 1.349 . S
C531 C529 1.327 . S
C531 C547 1.429 . S
C531 H553 0.950 . S
C532 H528 0.949 . S
C532 C540 1.574 . S
C532 C548 1.368 . S
H533 C541 0.950 . S
H534 C539 0.950 . S
H535 C540 0.949 . S
H536 C542 0.950 . S
H537 C543 0.950 . S
H538 C544 0.949 . S
C539 H534 0.950 . S
C539 C541 1.327 . S
C539 C545 1.429 . S
C540 C532 1.574 . S
C540 H535 0.949 . S
C540 C546 1.368 . S
C541 C525 1.349 . S
C541 H533 0.950 . S
C541 C539 1.327 . S
C542 C530 1.349 . S
C542 H536 0.950 . S
C542 C543 1.327 . S
C543 H537 0.950 . S
C543 C542 1.327 . S
C543 C547 1.429 . S
C544 C527 1.574 . S
C544 H538 0.949 . S
C544 C548 1.368 . S
C545 C526 1.429 . S
C545 C539 1.429 . S
C545 C546 1.523 . S
C546 C527 1.368 . S
C546 C540 1.368 . S
C546 C545 1.523 . S
C547 C531 1.429 . S
C547 C543 1.429 . S
C547 C548 1.523 . S
C548 C532 1.368 . S
C548 C544 1.368 . S
C548 C547 1.523 . S
H549 C524 0.950 . S
H550 C526 0.950 . S
H551 C527 0.949 . S
H552 C529 0.950 . S
H553 C531 0.950 . S
C554 C555 1.349 . S
C554 C556 1.327 . S
C554 H579 0.950 . S
C555 C554 1.349 . S
C555 C571 1.349 . S
C556 C554 1.327 . S
C556 C575 1.429 . S
C556 H580 0.950 . S
C557 C574 1.574 . S
C557 C576 1.368 . S
C557 H581 0.949 . S
H558 C562 0.949 . S
C559 C560 1.349 . S
C559 C561 1.327 . S
C559 H582 0.950 . S
C560 C559 1.349 . S
C560 C572 1.349 . S
C561 C559 1.327 . S
C561 C577 1.429 . S
C561 H583 0.950 . S
C562 H558 0.949 . S
C562 C570 1.574 . S
C562 C578 1.368 . S
H563 C571 0.950 . S
H564 C569 0.950 . S
H565 C570 0.949 . S
H566 C572 0.950 . S
H567 C573 0.950 . S
H568 C574 0.949 . S
C569 H564 0.950 . S
C569 C571 1.327 . S
C569 C575 1.429 . S
C570 C562 1.574 . S
C570 H565 0.949 . S
C570 C576 1.368 . S
C571 C555 1.349 . S
C571 H563 0.950 . S
C571 C569 1.327 . S
C572 C560 1.349 . S
C572 H566 0.950 . S
C572 C573 1.327 . S
C573 H567 0.950 . S
C573 C572 1.327 . S
C573 C577 1.429 . S
C574 C557 1.574 . S
C574 H568 0.949 . S
C574 C578 1.368 . S
C575 C556 1.429 . S
C575 C569 1.429 . S
C575 C576 1.523 . S
C576 C557 1.368 . S
C576 C570 1.368 . S
C576 C575 1.523 . S
C577 C561 1.429 . S
C577 C573 1.429 . S
C577 C578 1.523 . S
C578 C562 1.368 . S
C578 C574 1.368 . S
C578 C577 1.523 . S
H579 C554 0.950 . S
H580 C556 0.950 . S
H581 C557 0.949 . S
H582 C559 0.950 . S
H583 C561 0.950 . S
C584 C585 1.349 . S
C584 C586 1.327 . S
C584 H609 0.950 . S
C585 C584 1.349 . S
C585 C601 1.349 . S
C586 C584 1.327 . S
C586 C605 1.429 . S
C586 H610 0.950 . S
C587 C604 1.574 . S
C587 C606 1.368 . S
C587 H611 0.949 . S
H588 C592 0.949 . S
C589 C590 1.349 . S
C589 C591 1.327 . S
C589 H612 0.950 . S
C590 C589 1.349 . S
C590 C602 1.349 . S
C591 C589 1.327 . S
C591 C607 1.429 . S
C591 H613 0.950 . S
C592 H588 0.949 . S
C592 C600 1.574 . S
C592 C608 1.368 . S
H593 C601 0.950 . S
H594 C599 0.950 . S
H595 C600 0.949 . S
H596 C602 0.950 . S
H597 C603 0.950 . S
H598 C604 0.949 . S
C599 H594 0.950 . S
C599 C601 1.327 . S
C599 C605 1.429 . S
C600 C592 1.574 . S
C600 H595 0.949 . S
C600 C606 1.368 . S
C601 C585 1.349 . S
C601 H593 0.950 . S
C601 C599 1.327 . S
C602 C590 1.349 . S
C602 H596 0.950 . S
C602 C603 1.327 . S
C603 H597 0.950 . S
C603 C602 1.327 . S
C603 C607 1.429 . S
C604 C587 1.574 . S
C604 H598 0.949 . S
C604 C608 1.368 . S
C605 C586 1.429 . S
C605 C599 1.429 . S
C605 C606 1.523 . S
C606 C587 1.368 . S
C606 C600 1.368 . S
C606 C605 1.523 . S
C607 C591 1.429 . S
C607 C603 1.429 . S
C607 C608 1.523 . S
C608 C592 1.368 . S
C608 C604 1.368 . S
C608 C607 1.523 . S
H609 C584 0.950 . S
H610 C586 0.950 . S
H611 C587 0.949 . S
H612 C589 0.950 . S
H613 C591 0.950 . S
C614 C615 1.349 . S
C614 C616 1.327 . S
C614 H639 0.950 . S
C615 C614 1.349 . S
C615 C631 1.349 . S
C616 C614 1.327 . S
C616 C635 1.429 . S
C616 H640 0.950 . S
C617 C634 1.574 . S
C617 C636 1.368 . S
C617 H641 0.949 . S
H618 C622 0.949 . S
C619 C620 1.349 . S
C619 C621 1.327 . S
C619 H642 0.950 . S
C620 C619 1.349 . S
C620 C632 1.349 . S
C621 C619 1.327 . S
C621 C637 1.429 . S
C621 H643 0.950 . S
C622 H618 0.949 . S
C622 C630 1.574 . S
C622 C638 1.368 . S
H623 C631 0.950 . S
H624 C629 0.950 . S
H625 C630 0.949 . S
H626 C632 0.950 . S
H627 C633 0.950 . S
H628 C634 0.949 . S
C629 H624 0.950 . S
C629 C631 1.327 . S
C629 C635 1.429 . S
C630 C622 1.574 . S
C630 H625 0.949 . S
C630 C636 1.368 . S
C631 C615 1.349 . S
C631 H623 0.950 . S
C631 C629 1.327 . S
C632 C620 1.349 . S
C632 H626 0.950 . S
C632 C633 1.327 . S
C633 H627 0.950 . S
C633 C632 1.327 . S
C633 C637 1.429 . S
C634 C617 1.574 . S
C634 H628 0.949 . S
C634 C638 1.368 . S
C635 C616 1.429 . S
C635 C629 1.429 . S
C635 C636 1.523 . S
C636 C617 1.368 . S
C636 C630 1.368 . S
C636 C635 1.523 . S
C637 C621 1.429 . S
C637 C633 1.429 . S
C637 C638 1.523 . S
C638 C622 1.368 . S
C638 C634 1.368 . S
C638 C637 1.523 . S
H639 C614 0.950 . S
H640 C616 0.950 . S
H641 C617 0.949 . S
H642 C619 0.950 . S
H643 C621 0.950 . S
C644 C645 1.349 . S
C644 C646 1.327 . S
C644 H669 0.950 . S
C645 C644 1.349 . S
C645 C661 1.349 . S
C646 C644 1.327 . S
C646 C665 1.429 . S
C646 H670 0.950 . S
C647 C664 1.574 . S
C647 C666 1.368 . S
C647 H671 0.949 . S
H648 C652 0.949 . S
C649 C650 1.349 . S
C649 C651 1.327 . S
C649 H672 0.950 . S
C650 C649 1.349 . S
C650 C662 1.349 . S
C651 C649 1.327 . S
C651 C667 1.429 . S
C651 H673 0.950 . S
C652 H648 0.949 . S
C652 C660 1.574 . S
C652 C668 1.368 . S
H653 C661 0.950 . S
H654 C659 0.950 . S
H655 C660 0.949 . S
H656 C662 0.950 . S
H657 C663 0.950 . S
H658 C664 0.949 . S
C659 H654 0.950 . S
C659 C661 1.327 . S
C659 C665 1.429 . S
C660 C652 1.574 . S
C660 H655 0.949 . S
C660 C666 1.368 . S
C661 C645 1.349 . S
C661 H653 0.950 . S
C661 C659 1.327 . S
C662 C650 1.349 . S
C662 H656 0.950 . S
C662 C663 1.327 . S
C663 H657 0.950 . S
C663 C662 1.327 . S
C663 C667 1.429 . S
C664 C647 1.574 . S
C664 H658 0.949 . S
C664 C668 1.368 . S
C665 C646 1.429 . S
C665 C659 1.429 . S
C665 C666 1.523 . S
C666 C647 1.368 . S
C666 C660 1.368 . S
C666 C665 1.523 . S
C667 C651 1.429 . S
C667 C663 1.429 . S
C667 C668 1.523 . S
C668 C652 1.368 . S
C668 C664 1.368 . S
C668 C667 1.523 . S
H669 C644 0.950 . S
H670 C646 0.950 . S
H671 C647 0.949 . S
H672 C649 0.950 . S
H673 C651 0.950 . S
C674 C675 1.349 . S
C674 C676 1.327 . S
C674 H699 0.950 . S
C675 C674 1.349 . S
C675 C691 1.349 . S
C676 C674 1.327 . S
C676 C695 1.429 . S
C676 H700 0.950 . S
C677 C694 1.574 . S
C677 C696 1.368 . S
C677 H701 0.949 . S
H678 C682 0.949 . S
C679 C680 1.349 . S
C679 C681 1.327 . S
C679 H702 0.950 . S
C680 C679 1.349 . S
C680 C692 1.349 . S
C681 C679 1.327 . S
C681 C697 1.429 . S
C681 H703 0.950 . S
C682 H678 0.949 . S
C682 C690 1.574 . S
C682 C698 1.368 . S
H683 C691 0.950 . S
H684 C689 0.950 . S
H685 C690 0.949 . S
H686 C692 0.950 . S
H687 C693 0.950 . S
H688 C694 0.949 . S
C689 H684 0.950 . S
C689 C691 1.327 . S
C689 C695 1.429 . S
C690 C682 1.574 . S
C690 H685 0.949 . S
C690 C696 1.368 . S
C691 C675 1.349 . S
C691 H683 0.950 . S
C691 C689 1.327 . S
C692 C680 1.349 . S
C692 H686 0.950 . S
C692 C693 1.327 . S
C693 H687 0.950 . S
C693 C692 1.327 . S
C693 C697 1.429 . S
C694 C677 1.574 . S
C694 H688 0.949 . S
C694 C698 1.368 . S
C695 C676 1.429 . S
C695 C689 1.429 . S
C695 C696 1.523 . S
C696 C677 1.368 . S
C696 C690 1.368 . S
C696 C695 1.523 . S
C697 C681 1.429 . S
C697 C693 1.429 . S
C697 C698 1.523 . S
C698 C682 1.368 . S
C698 C694 1.368 . S
C698 C697 1.523 . S
H699 C674 0.950 . S
H700 C676 0.950 . S
H701 C677 0.949 . S
H702 C679 0.950 . S
H703 C681 0.950 . S
C704 C705 1.349 . S
C704 C706 1.327 . S
C704 H729 0.950 . S
C705 C704 1.349 . S
C705 C721 1.349 . S
C706 C704 1.327 . S
C706 C725 1.429 . S
C706 H730 0.950 . S
C707 C724 1.574 1_554 S
C707 C726 1.368 . S
C707 H731 0.949 . S
H708 C712 0.949 . S
C709 C710 1.349 . S
C709 C711 1.327 . S
C709 H732 0.950 . S
C710 C709 1.349 . S
C710 C722 1.349 . S
C711 C709 1.327 . S
C711 C727 1.429 . S
C711 H733 0.950 . S
C712 H708 0.949 . S
C712 C720 1.574 1_556 S
C712 C728 1.368 . S
H713 C721 0.950 . S
H714 C719 0.950 . S
H715 C720 0.949 . S
H716 C722 0.950 . S
H717 C723 0.950 . S
H718 C724 0.949 . S
C719 H714 0.950 . S
C719 C721 1.327 . S
C719 C725 1.429 . S
C720 C712 1.574 1_554 S
C720 H715 0.949 . S
C720 C726 1.368 . S
C721 C705 1.349 . S
C721 H713 0.950 . S
C721 C719 1.327 . S
C722 C710 1.349 . S
C722 H716 0.950 . S
C722 C723 1.327 . S
C723 H717 0.950 . S
C723 C722 1.327 . S
C723 C727 1.429 . S
C724 C707 1.574 1_556 S
C724 H718 0.949 . S
C724 C728 1.368 . S
C725 C706 1.429 . S
C725 C719 1.429 . S
C725 C726 1.523 . S
C726 C707 1.368 . S
C726 C720 1.368 . S
C726 C725 1.523 . S
C727 C711 1.429 . S
C727 C723 1.429 . S
C727 C728 1.523 . S
C728 C712 1.368 . S
C728 C724 1.368 . S
C728 C727 1.523 . S
H729 C704 0.950 . S
H730 C706 0.950 . S
H731 C707 0.949 . S
H732 C709 0.950 . S
H733 C711 0.950 . S
C734 C735 1.349 . S
C734 C736 1.327 . S
C734 H759 0.950 . S
C735 C734 1.349 . S
C735 C751 1.349 . S
C736 C734 1.327 . S
C736 C755 1.429 . S
C736 H760 0.950 . S
C737 C754 1.574 . S
C737 C756 1.368 . S
C737 H761 0.949 . S
H738 C742 0.949 . S
C739 C740 1.349 . S
C739 C741 1.327 . S
C739 H762 0.950 . S
C740 C739 1.349 . S
C740 C752 1.349 . S
C741 C739 1.327 . S
C741 C757 1.429 . S
C741 H763 0.950 . S
C742 H738 0.949 . S
C742 C750 1.574 . S
C742 C758 1.368 . S
H743 C751 0.950 . S
H744 C749 0.950 . S
H745 C750 0.949 . S
H746 C752 0.950 . S
H747 C753 0.950 . S
H748 C754 0.949 . S
C749 H744 0.950 . S
C749 C751 1.327 . S
C749 C755 1.429 . S
C750 C742 1.574 . S
C750 H745 0.949 . S
C750 C756 1.368 1_554 S
C751 C735 1.349 . S
C751 H743 0.950 . S
C751 C749 1.327 . S
C752 C740 1.349 . S
C752 H746 0.950 . S
C752 C753 1.327 . S
C753 H747 0.950 . S
C753 C752 1.327 . S
C753 C757 1.429 . S
C754 C737 1.574 . S
C754 H748 0.949 . S
C754 C758 1.368 1_556 S
C755 C736 1.429 . S
C755 C749 1.429 . S
C755 C756 1.523 . S
C756 C737 1.368 . S
C756 C750 1.368 1_556 S
C756 C755 1.523 . S
C757 C741 1.429 . S
C757 C753 1.429 . S
C757 C758 1.523 . S
C758 C742 1.368 . S
C758 C754 1.368 1_554 S
C758 C757 1.523 . S
H759 C734 0.950 . S
H760 C736 0.950 . S
H761 C737 0.949 . S
H762 C739 0.950 . S
H763 C741 0.950 . S
C764 C765 1.349 . S
C764 C766 1.327 . S
C764 H789 0.950 . S
C765 C764 1.349 . S
C765 C781 1.349 . S
C766 C764 1.327 . S
C766 C785 1.429 . S
C766 H790 0.950 . S
C767 C784 1.574 1_554 S
C767 C786 1.368 . S
C767 H791 0.949 . S
H768 C772 0.949 . S
C769 C770 1.349 . S
C769 C771 1.327 . S
C769 H792 0.950 . S
C770 C769 1.349 . S
C770 C782 1.349 . S
C771 C769 1.327 . S
C771 C787 1.429 . S
C771 H793 0.950 . S
C772 H768 0.949 . S
C772 C780 1.574 1_556 S
C772 C788 1.368 . S
H773 C781 0.950 . S
H774 C779 0.950 . S
H775 C780 0.949 . S
H776 C782 0.950 . S
H777 C783 0.950 . S
H778 C784 0.949 . S
C779 H774 0.950 . S
C779 C781 1.327 . S
C779 C785 1.429 . S
C780 C772 1.574 1_554 S
C780 H775 0.949 . S
C780 C786 1.368 . S
C781 C765 1.349 . S
C781 H773 0.950 . S
C781 C779 1.327 . S
C782 C770 1.349 . S
C782 H776 0.950 . S
C782 C783 1.327 . S
C783 H777 0.950 . S
C783 C782 1.327 . S
C783 C787 1.429 . S
C784 C767 1.574 1_556 S
C784 H778 0.949 . S
C784 C788 1.368 . S
C785 C766 1.429 . S
C785 C779 1.429 . S
C785 C786 1.523 . S
C786 C767 1.368 . S
C786 C780 1.368 . S
C786 C785 1.523 . S
C787 C771 1.429 . S
C787 C783 1.429 . S
C787 C788 1.523 . S
C788 C772 1.368 . S
C788 C784 1.368 . S
C788 C787 1.523 . S
H789 C764 0.950 . S
H790 C766 0.950 . S
H791 C767 0.949 . S
H792 C769 0.950 . S
H793 C771 0.950 . S
C794 C795 1.349 . S
C794 C796 1.327 . S
C794 H819 0.950 . S
C795 C794 1.349 . S
C795 C811 1.349 . S
C796 C794 1.327 . S
C796 C815 1.429 . S
C796 H820 0.950 . S
C797 C814 1.574 . S
C797 C816 1.368 1_554 S
C797 H821 0.951 . S
H798 C802 0.949 . S
C799 C800 1.349 . S
C799 C801 1.327 . S
C799 H822 0.950 . S
C800 C799 1.349 . S
C800 C812 1.349 . S
C801 C799 1.327 . S
C801 C817 1.429 . S
C801 H823 0.950 . S
C802 H798 0.949 . S
C802 C810 1.574 1_554 S
C802 C818 1.368 . S
H803 C811 0.950 . S
H804 C809 0.950 . S
H805 C810 0.949 . S
H806 C812 0.950 . S
H807 C813 0.950 . S
H808 C814 0.949 . S
C809 H804 0.950 . S
C809 C811 1.327 . S
C809 C815 1.429 . S
C810 C802 1.574 1_556 S
C810 H805 0.949 . S
C810 C816 1.368 . S
C811 C795 1.349 . S
C811 H803 0.950 . S
C811 C809 1.327 . S
C812 C800 1.349 . S
C812 H806 0.950 . S
C812 C813 1.327 . S
C813 H807 0.950 . S
C813 C812 1.327 . S
C813 C817 1.429 . S
C814 C797 1.574 . S
C814 H808 0.949 . S
C814 C818 1.368 . S
C815 C796 1.429 . S
C815 C809 1.429 . S
C815 C816 1.523 . S
C816 C797 1.368 1_556 S
C816 C810 1.368 . S
C816 C815 1.523 . S
C817 C801 1.429 . S
C817 C813 1.429 . S
C817 C818 1.523 . S
C818 C802 1.368 . S
C818 C814 1.368 . S
C818 C817 1.523 . S
H819 C794 0.950 . S
H820 C796 0.950 . S
H821 C797 0.951 . S
H822 C799 0.950 . S
H823 C801 0.950 . S
C824 C825 1.349 . S
C824 C826 1.327 . S
C824 H849 0.950 . S
C825 C824 1.349 . S
C825 C841 1.349 . S
C826 C824 1.327 . S
C826 C845 1.429 . S
C826 H850 0.950 . S
C827 C844 1.574 . S
C827 C846 1.368 . S
C827 H851 0.949 . S
H828 C832 0.949 . S
C829 C830 1.349 . S
C829 C831 1.327 . S
C829 H852 0.950 . S
C830 C829 1.349 . S
C830 C842 1.349 . S
C831 C829 1.327 . S
C831 C847 1.429 . S
C831 H853 0.950 . S
C832 H828 0.949 . S
C832 C840 1.574 . S
C832 C848 1.368 . S
H833 C841 0.950 . S
H834 C839 0.950 . S
H835 C840 0.949 . S
H836 C842 0.950 . S
H837 C843 0.950 . S
H838 C844 0.949 . S
C839 H834 0.950 . S
C839 C841 1.327 . S
C839 C845 1.429 . S
C840 C832 1.574 . S
C840 H835 0.949 . S
C840 C846 1.368 . S
C841 C825 1.349 . S
C841 H833 0.950 . S
C841 C839 1.327 . S
C842 C830 1.349 . S
C842 H836 0.950 . S
C842 C843 1.327 . S
C843 H837 0.950 . S
C843 C842 1.327 . S
C843 C847 1.429 . S
C844 C827 1.574 . S
C844 H838 0.949 . S
C844 C848 1.368 . S
C845 C826 1.429 . S
C845 C839 1.429 . S
C845 C846 1.523 . S
C846 C827 1.368 . S
C846 C840 1.368 . S
C846 C845 1.523 . S
C847 C831 1.429 . S
C847 C843 1.429 . S
C847 C848 1.523 . S
C848 C832 1.368 . S
C848 C844 1.368 . S
C848 C847 1.523 . S
H849 C824 0.950 . S
H850 C826 0.950 . S
H851 C827 0.949 . S
H852 C829 0.950 . S
H853 C831 0.950 . S
C854 C855 1.349 . S
C854 C856 1.327 . S
C854 H879 0.950 . S
C855 C854 1.349 . S
C855 C871 1.349 . S
C856 C854 1.327 . S
C856 C875 1.429 . S
C856 H880 0.950 . S
C857 C874 1.574 . S
C857 C876 1.368 . S
C857 H881 0.949 . S
H858 C862 0.949 . S
C859 C860 1.349 . S
C859 C861 1.327 . S
C859 H882 0.950 . S
C860 C859 1.349 . S
C860 C872 1.349 . S
C861 C859 1.327 . S
C861 C877 1.429 . S
C861 H883 0.950 . S
C862 H858 0.949 . S
C862 C870 1.574 . S
C862 C878 1.368 . S
H863 C871 0.950 . S
H864 C869 0.950 . S
H865 C870 0.949 . S
H866 C872 0.950 . S
H867 C873 0.950 . S
H868 C874 0.949 . S
C869 H864 0.950 . S
C869 C871 1.327 . S
C869 C875 1.429 . S
C870 C862 1.574 . S
C870 H865 0.949 . S
C870 C876 1.368 . S
C871 C855 1.349 . S
C871 H863 0.950 . S
C871 C869 1.327 . S
C872 C860 1.349 . S
C872 H866 0.950 . S
C872 C873 1.327 . S
C873 H867 0.950 . S
C873 C872 1.327 . S
C873 C877 1.429 . S
C874 C857 1.574 . S
C874 H868 0.949 . S
C874 C878 1.368 . S
C875 C856 1.429 . S
C875 C869 1.429 . S
C875 C876 1.523 . S
C876 C857 1.368 . S
C876 C870 1.368 . S
C876 C875 1.523 . S
C877 C861 1.429 . S
C877 C873 1.429 . S
C877 C878 1.523 . S
C878 C862 1.368 . S
C878 C874 1.368 . S
C878 C877 1.523 . S
H879 C854 0.950 . S
H880 C856 0.950 . S
H881 C857 0.949 . S
H882 C859 0.950 . S
H883 C861 0.950 . S
C884 C885 1.349 . S
C884 C886 1.327 . S
C884 H909 0.950 . S
C885 C884 1.349 . S
C885 C901 1.349 . S
C886 C884 1.327 . S
C886 C905 1.429 . S
C886 H910 0.950 . S
C887 C904 1.574 . S
C887 C906 1.368 . S
C887 H911 0.949 . S
H888 C892 0.949 . S
C889 C890 1.349 . S
C889 C891 1.327 . S
C889 H912 0.950 . S
C890 C889 1.349 . S
C890 C902 1.349 . S
C891 C889 1.327 . S
C891 C907 1.429 . S
C891 H913 0.950 . S
C892 H888 0.949 . S
C892 C900 1.574 . S
C892 C908 1.368 . S
H893 C901 0.950 . S
H894 C899 0.950 . S
H895 C900 0.949 . S
H896 C902 0.950 . S
H897 C903 0.950 . S
H898 C904 0.949 . S
C899 H894 0.950 . S
C899 C901 1.327 . S
C899 C905 1.429 . S
C900 C892 1.574 . S
C900 H895 0.949 . S
C900 C906 1.368 . S
C901 C885 1.349 . S
C901 H893 0.950 . S
C901 C899 1.327 . S
C902 C890 1.349 . S
C902 H896 0.950 . S
C902 C903 1.327 . S
C903 H897 0.950 . S
C903 C902 1.327 . S
C903 C907 1.429 . S
C904 C887 1.574 . S
C904 H898 0.949 . S
C904 C908 1.368 . S
C905 C886 1.429 . S
C905 C899 1.429 . S
C905 C906 1.523 . S
C906 C887 1.368 . S
C906 C900 1.368 . S
C906 C905 1.523 . S
C907 C891 1.429 . S
C907 C903 1.429 . S
C907 C908 1.523 . S
C908 C892 1.368 . S
C908 C904 1.368 . S
C908 C907 1.523 . S
H909 C884 0.950 . S
H910 C886 0.950 . S
H911 C887 0.949 . S
H912 C889 0.950 . S
H913 C891 0.950 . S
C914 C915 1.349 . S
C914 C916 1.327 . S
C914 H939 0.950 . S
C915 C914 1.349 . S
C915 C931 1.349 . S
C916 C914 1.327 . S
C916 C935 1.429 . S
C916 H940 0.950 . S
C917 C934 1.574 . S
C917 C936 1.368 . S
C917 H941 0.949 . S
H918 C922 0.949 . S
C919 C920 1.349 . S
C919 C921 1.327 . S
C919 H942 0.950 . S
C920 C919 1.349 . S
C920 C932 1.349 . S
C921 C919 1.327 . S
C921 C937 1.429 . S
C921 H943 0.950 . S
C922 H918 0.949 . S
C922 C930 1.574 . S
C922 C938 1.368 . S
H923 C931 0.950 . S
H924 C929 0.950 . S
H925 C930 0.949 . S
H926 C932 0.950 . S
H927 C933 0.950 . S
H928 C934 0.949 . S
C929 H924 0.950 . S
C929 C931 1.327 . S
C929 C935 1.429 . S
C930 C922 1.574 . S
C930 H925 0.949 . S
C930 C936 1.368 . S
C931 C915 1.349 . S
C931 H923 0.950 . S
C931 C929 1.327 . S
C932 C920 1.349 . S
C932 H926 0.950 . S
C932 C933 1.327 . S
C933 H927 0.950 . S
C933 C932 1.327 . S
C933 C937 1.429 . S
C934 C917 1.574 . S
C934 H928 0.949 . S
C934 C938 1.368 . S
C935 C916 1.429 . S
C935 C929 1.429 . S
C935 C936 1.523 . S
C936 C917 1.368 . S
C936 C930 1.368 . S
C936 C935 1.523 . S
C937 C921 1.429 . S
C937 C933 1.429 . S
C937 C938 1.523 . S
C938 C922 1.368 . S
C938 C934 1.368 . S
C938 C937 1.523 . S
H939 C914 0.950 . S
H940 C916 0.950 . S
H941 C917 0.949 . S
H942 C919 0.950 . S
H943 C921 0.950 . S
C944 C945 1.349 . S
C944 C946 1.327 . S
C944 H969 0.950 . S
C945 C944 1.349 . S
C945 C961 1.349 . S
C946 C944 1.327 . S
C946 C965 1.429 . S
C946 H970 0.950 . S
C947 C964 1.574 . S
C947 C966 1.368 . S
C947 H971 0.949 . S
H948 C952 0.949 . S
C949 C950 1.349 . S
C949 C951 1.327 . S
C949 H972 0.950 . S
C950 C949 1.349 . S
C950 C962 1.349 . S
C951 C949 1.327 . S
C951 C967 1.429 . S
C951 H973 0.950 . S
C952 H948 0.949 . S
C952 C960 1.574 . S
C952 C968 1.368 . S
H953 C961 0.950 . S
H954 C959 0.950 . S
H955 C960 0.949 . S
H956 C962 0.950 . S
H957 C963 0.950 . S
H958 C964 0.949 . S
C959 H954 0.950 . S
C959 C961 1.327 . S
C959 C965 1.429 . S
C960 C952 1.574 . S
C960 H955 0.949 . S
C960 C966 1.368 1_554 S
C961 C945 1.349 . S
C961 H953 0.950 . S
C961 C959 1.327 . S
C962 C950 1.349 . S
C962 H956 0.950 . S
C962 C963 1.327 . S
C963 H957 0.950 . S
C963 C962 1.327 . S
C963 C967 1.429 . S
C964 C947 1.574 . S
C964 H958 0.949 . S
C964 C968 1.368 1_556 S
C965 C946 1.429 . S
C965 C959 1.429 . S
C965 C966 1.523 . S
C966 C947 1.368 . S
C966 C960 1.368 1_556 S
C966 C965 1.523 . S
C967 C951 1.429 . S
C967 C963 1.429 . S
C967 C968 1.523 . S
C968 C952 1.368 . S
C968 C964 1.368 1_554 S
C968 C967 1.523 . S
H969 C944 0.950 . S
H970 C946 0.950 . S
H971 C947 0.949 . S
H972 C949 0.950 . S
H973 C951 0.950 . S
C974 C975 1.349 . S
C974 C976 1.327 . S
C974 H999 0.950 . S
C975 C974 1.349 . S
C975 C991 1.349 . S
C976 C974 1.327 . S
C976 C995 1.429 . S
C976 H1000 0.950 . S
C977 C994 1.574 . S
C977 C996 1.368 1_556 S
C977 H1001 0.949 . S
H978 C982 0.948 1_554 S
C979 C980 1.349 . S
C979 C981 1.327 . S
C979 H1002 0.950 . S
C980 C979 1.349 . S
C980 C992 1.349 . S
C981 C979 1.327 . S
C981 C997 1.429 . S
C981 H1003 0.950 . S
C982 H978 0.948 1_556 S
C982 C990 1.570 1_556 S
C982 C998 1.373 . S
H983 C991 0.950 . S
H984 C989 0.950 . S
H985 C990 0.949 . S
H986 C992 0.950 . S
H987 C993 0.950 . S
H988 C994 0.949 . S
C989 H984 0.950 . S
C989 C991 1.327 . S
C989 C995 1.429 . S
C990 C982 1.570 1_554 S
C990 H985 0.949 . S
C990 C996 1.368 . S
C991 C975 1.349 . S
C991 H983 0.950 . S
C991 C989 1.327 . S
C992 C980 1.349 . S
C992 H986 0.950 . S
C992 C993 1.327 . S
C993 H987 0.950 . S
C993 C992 1.327 . S
C993 C997 1.429 . S
C994 C977 1.574 . S
C994 H988 0.949 . S
C994 C998 1.368 . S
C995 C976 1.429 . S
C995 C989 1.429 . S
C995 C996 1.523 . S
C996 C977 1.368 1_554 S
C996 C990 1.368 . S
C996 C995 1.523 . S
C997 C981 1.429 . S
C997 C993 1.429 . S
C997 C998 1.523 . S
C998 C982 1.373 . S
C998 C994 1.368 . S
C998 C997 1.523 . S
H999 C974 0.950 . S
H1000 C976 0.950 . S
H1001 C977 0.949 . S
H1002 C979 0.950 . S
H1003 C981 0.950 . S
C1004 C1005 1.349 . S
C1004 C1006 1.327 . S
C1004 H1029 0.950 . S
C1005 C1004 1.349 . S
C1005 C1021 1.349 . S
C1006 C1004 1.327 . S
C1006 C1025 1.429 . S
C1006 H1030 0.950 . S
C1007 C1024 1.574 1_556 S
C1007 C1026 1.368 . S
C1007 H1031 0.949 . S
H1008 C1012 0.949 . S
C1009 C1010 1.349 . S
C1009 C1011 1.327 . S
C1009 H1032 0.950 . S
C1010 C1009 1.349 . S
C1010 C1022 1.349 . S
C1011 C1009 1.327 . S
C1011 C1027 1.429 . S
C1011 H1033 0.950 . S
C1012 H1008 0.949 . S
C1012 C1020 1.574 . S
C1012 C1028 1.368 1_556 S
H1013 C1021 0.950 . S
H1014 C1019 0.950 . S
H1015 C1020 0.949 . S
H1016 C1022 0.950 . S
H1017 C1023 0.950 . S
H1018 C1024 0.949 . S
C1019 H1014 0.950 . S
C1019 C1021 1.327 . S
C1019 C1025 1.429 . S
C1020 C1012 1.574 . S
C1020 H1015 0.949 . S
C1020 C1026 1.368 . S
C1021 C1005 1.349 . S
C1021 H1013 0.950 . S
C1021 C1019 1.327 . S
C1022 C1010 1.349 . S
C1022 H1016 0.950 . S
C1022 C1023 1.327 . S
C1023 H1017 0.950 . S
C1023 C1022 1.327 . S
C1023 C1027 1.429 . S
C1024 C1007 1.574 1_554 S
C1024 H1018 0.949 . S
C1024 C1028 1.368 . S
C1025 C1006 1.429 . S
C1025 C1019 1.429 . S
C1025 C1026 1.523 . S
C1026 C1007 1.368 . S
C1026 C1020 1.368 . S
C1026 C1025 1.523 . S
C1027 C1011 1.429 . S
C1027 C1023 1.429 . S
C1027 C1028 1.523 . S
C1028 C1012 1.368 1_554 S
C1028 C1024 1.368 . S
C1028 C1027 1.523 . S
H1029 C1004 0.950 . S
H1030 C1006 0.950 . S
H1031 C1007 0.949 . S
H1032 C1009 0.950 . S
H1033 C1011 0.950 . S
C1034 C1035 1.349 . S
C1034 C1036 1.327 . S
C1034 H1059 0.950 . S
C1035 C1034 1.349 . S
C1035 C1051 1.349 . S
C1036 C1034 1.327 . S
C1036 C1055 1.429 . S
C1036 H1060 0.950 . S
C1037 C1054 1.574 . S
C1037 C1056 1.368 1_556 S
C1037 H1061 0.949 . S
H1038 C1042 0.949 . S
C1039 C1040 1.349 . S
C1039 C1041 1.327 . S
C1039 H1062 0.950 . S
C1040 C1039 1.349 . S
C1040 C1052 1.349 . S
C1041 C1039 1.327 . S
C1041 C1057 1.429 . S
C1041 H1063 0.950 . S
C1042 H1038 0.949 . S
C1042 C1050 1.574 . S
C1042 C1058 1.368 1_554 S
H1043 C1051 0.950 . S
H1044 C1049 0.950 . S
H1045 C1050 0.949 . S
H1046 C1052 0.950 . S
H1047 C1053 0.950 . S
H1048 C1054 0.949 . S
C1049 H1044 0.950 . S
C1049 C1051 1.327 . S
C1049 C1055 1.429 . S
C1050 C1042 1.574 . S
C1050 H1045 0.949 . S
C1050 C1056 1.368 . S
C1051 C1035 1.349 . S
C1051 H1043 0.950 . S
C1051 C1049 1.327 . S
C1052 C1040 1.349 . S
C1052 H1046 0.950 . S
C1052 C1053 1.327 . S
C1053 H1047 0.950 . S
C1053 C1052 1.327 . S
C1053 C1057 1.429 . S
C1054 C1037 1.574 . S
C1054 H1048 0.949 . S
C1054 C1058 1.368 . S
C1055 C1036 1.429 . S
C1055 C1049 1.429 . S
C1055 C1056 1.523 . S
C1056 C1037 1.368 1_554 S
C1056 C1050 1.368 . S
C1056 C1055 1.523 . S
C1057 C1041 1.429 . S
C1057 C1053 1.429 . S
C1057 C1058 1.523 . S
C1058 C1042 1.368 1_556 S
C1058 C1054 1.368 . S
C1058 C1057 1.523 . S
H1059 C1034 0.950 . S
H1060 C1036 0.950 . S
H1061 C1037 0.949 . S
H1062 C1039 0.950 . S
H1063 C1041 0.950 . S
C1064 C1065 1.349 . S
C1064 C1066 1.327 . S
C1064 H1089 0.950 . S
C1065 C1064 1.349 . S
C1065 C1081 1.349 . S
C1066 C1064 1.327 . S
C1066 C1085 1.429 . S
C1066 H1090 0.950 . S
C1067 C1084 1.574 . S
C1067 C1086 1.368 . S
C1067 H1091 0.949 . S
H1068 C1072 0.949 . S
C1069 C1070 1.349 . S
C1069 C1071 1.327 . S
C1069 H1092 0.950 . S
C1070 C1069 1.349 . S
C1070 C1082 1.349 . S
C1071 C1069 1.327 . S
C1071 C1087 1.429 . S
C1071 H1093 0.950 . S
C1072 H1068 0.949 . S
C1072 C1080 1.574 . S
C1072 C1088 1.368 . S
H1073 C1081 0.950 . S
H1074 C1079 0.950 . S
H1075 C1080 0.949 . S
H1076 C1082 0.950 . S
H1077 C1083 0.950 . S
H1078 C1084 0.949 . S
C1079 H1074 0.950 . S
C1079 C1081 1.327 . S
C1079 C1085 1.429 . S
C1080 C1072 1.574 . S
C1080 H1075 0.949 . S
C1080 C1086 1.368 . S
C1081 C1065 1.349 . S
C1081 H1073 0.950 . S
C1081 C1079 1.327 . S
C1082 C1070 1.349 . S
C1082 H1076 0.950 . S
C1082 C1083 1.327 . S
C1083 H1077 0.950 . S
C1083 C1082 1.327 . S
C1083 C1087 1.429 . S
C1084 C1067 1.574 . S
C1084 H1078 0.949 . S
C1084 C1088 1.368 . S
C1085 C1066 1.429 . S
C1085 C1079 1.429 . S
C1085 C1086 1.523 . S
C1086 C1067 1.368 . S
C1086 C1080 1.368 . S
C1086 C1085 1.523 . S
C1087 C1071 1.429 . S
C1087 C1083 1.429 . S
C1087 C1088 1.523 . S
C1088 C1072 1.368 . S
C1088 C1084 1.368 . S
C1088 C1087 1.523 . S
H1089 C1064 0.950 . S
H1090 C1066 0.950 . S
H1091 C1067 0.949 . S
H1092 C1069 0.950 . S
H1093 C1071 0.950 . S
C1094 C1095 1.349 . S
C1094 C1096 1.327 . S
C1094 H1119 0.950 . S
C1095 C1094 1.349 . S
C1095 C1111 1.349 . S
C1096 C1094 1.327 . S
C1096 C1115 1.429 . S
C1096 H1120 0.950 . S
C1097 C1114 1.574 . S
C1097 C1116 1.368 . S
C1097 H1121 0.949 . S
H1098 C1102 0.949 . S
C1099 C1100 1.349 . S
C1099 C1101 1.327 . S
C1099 H1122 0.950 . S
C1100 C1099 1.349 . S
C1100 C1112 1.349 . S
C1101 C1099 1.327 . S
C1101 C1117 1.429 . S
C1101 H1123 0.950 . S
C1102 H1098 0.949 . S
C1102 C1110 1.574 . S
C1102 C1118 1.368 . S
H1103 C1111 0.950 . S
H1104 C1109 0.950 . S
H1105 C1110 0.949 . S
H1106 C1112 0.950 . S
H1107 C1113 0.950 . S
H1108 C1114 0.949 . S
C1109 H1104 0.950 . S
C1109 C1111 1.327 . S
C1109 C1115 1.429 . S
C1110 C1102 1.574 . S
C1110 H1105 0.949 . S
C1110 C1116 1.368 . S
C1111 C1095 1.349 . S
C1111 H1103 0.950 . S
C1111 C1109 1.327 . S
C1112 C1100 1.349 . S
C1112 H1106 0.950 . S
C1112 C1113 1.327 . S
C1113 H1107 0.950 . S
C1113 C1112 1.327 . S
C1113 C1117 1.429 . S
C1114 C1097 1.574 . S
C1114 H1108 0.949 . S
C1114 C1118 1.368 . S
C1115 C1096 1.429 . S
C1115 C1109 1.429 . S
C1115 C1116 1.523 . S
C1116 C1097 1.368 . S
C1116 C1110 1.368 . S
C1116 C1115 1.523 . S
C1117 C1101 1.429 . S
C1117 C1113 1.429 . S
C1117 C1118 1.523 . S
C1118 C1102 1.368 . S
C1118 C1114 1.368 . S
C1118 C1117 1.523 . S
H1119 C1094 0.950 . S
H1120 C1096 0.950 . S
H1121 C1097 0.949 . S
H1122 C1099 0.950 . S
H1123 C1101 0.950 . S
C1124 C1125 1.349 . S
C1124 C1126 1.327 . S
C1124 H1149 0.950 . S
C1125 C1124 1.349 . S
C1125 C1141 1.349 . S
C1126 C1124 1.327 . S
C1126 C1145 1.429 . S
C1126 H1150 0.950 . S
C1127 C1144 1.574 . S
C1127 C1146 1.368 . S
C1127 H1151 0.949 . S
H1128 C1132 0.949 . S
C1129 C1130 1.349 . S
C1129 C1131 1.327 . S
C1129 H1152 0.950 . S
C1130 C1129 1.349 . S
C1130 C1142 1.349 . S
C1131 C1129 1.327 . S
C1131 C1147 1.429 . S
C1131 H1153 0.950 . S
C1132 H1128 0.949 . S
C1132 C1140 1.574 . S
C1132 C1148 1.368 . S
H1133 C1141 0.950 . S
H1134 C1139 0.950 . S
H1135 C1140 0.949 . S
H1136 C1142 0.950 . S
H1137 C1143 0.950 . S
H1138 C1144 0.949 . S
C1139 H1134 0.950 . S
C1139 C1141 1.327 . S
C1139 C1145 1.429 . S
C1140 C1132 1.574 . S
C1140 H1135 0.949 . S
C1140 C1146 1.368 . S
C1141 C1125 1.349 . S
C1141 H1133 0.950 . S
C1141 C1139 1.327 . S
C1142 C1130 1.349 . S
C1142 H1136 0.950 . S
C1142 C1143 1.327 . S
C1143 H1137 0.950 . S
C1143 C1142 1.327 . S
C1143 C1147 1.429 . S
C1144 C1127 1.574 . S
C1144 H1138 0.949 . S
C1144 C1148 1.368 . S
C1145 C1126 1.429 . S
C1145 C1139 1.429 . S
C1145 C1146 1.523 . S
C1146 C1127 1.368 . S
C1146 C1140 1.368 . S
C1146 C1145 1.523 . S
C1147 C1131 1.429 . S
C1147 C1143 1.429 . S
C1147 C1148 1.523 . S
C1148 C1132 1.368 . S
C1148 C1144 1.368 . S
C1148 C1147 1.523 . S
H1149 C1124 0.950 . S
H1150 C1126 0.950 . S
H1151 C1127 0.949 . S
H1152 C1129 0.950 . S
H1153 C1131 0.950 . S
C1154 C1155 1.349 . S
C1154 C1156 1.327 . S
C1154 H1179 0.950 . S
C1155 C1154 1.349 . S
C1155 C1171 1.349 . S
C1156 C1154 1.327 . S
C1156 C1175 1.429 . S
C1156 H1180 0.950 . S
C1157 C1174 1.574 . S
C1157 C1176 1.368 . S
C1157 H1181 0.949 . S
H1158 C1162 0.949 . S
C1159 C1160 1.349 . S
C1159 C1161 1.327 . S
C1159 H1182 0.950 . S
C1160 C1159 1.349 . S
C1160 C1172 1.349 . S
C1161 C1159 1.327 . S
C1161 C1177 1.429 . S
C1161 H1183 0.950 . S
C1162 H1158 0.949 . S
C1162 C1170 1.574 . S
C1162 C1178 1.368 . S
H1163 C1171 0.950 . S
H1164 C1169 0.950 . S
H1165 C1170 0.949 . S
H1166 C1172 0.950 . S
H1167 C1173 0.950 . S
H1168 C1174 0.949 . S
C1169 H1164 0.950 . S
C1169 C1171 1.327 . S
C1169 C1175 1.429 . S
C1170 C1162 1.574 . S
C1170 H1165 0.949 . S
C1170 C1176 1.368 . S
C1171 C1155 1.349 . S
C1171 H1163 0.950 . S
C1171 C1169 1.327 . S
C1172 C1160 1.349 . S
C1172 H1166 0.950 . S
C1172 C1173 1.327 . S
C1173 H1167 0.950 . S
C1173 C1172 1.327 . S
C1173 C1177 1.429 . S
C1174 C1157 1.574 . S
C1174 H1168 0.949 . S
C1174 C1178 1.368 . S
C1175 C1156 1.429 . S
C1175 C1169 1.429 . S
C1175 C1176 1.523 . S
C1176 C1157 1.368 . S
C1176 C1170 1.368 . S
C1176 C1175 1.523 . S
C1177 C1161 1.429 . S
C1177 C1173 1.429 . S
C1177 C1178 1.523 . S
C1178 C1162 1.368 . S
C1178 C1174 1.368 . S
C1178 C1177 1.523 . S
H1179 C1154 0.950 . S
H1180 C1156 0.950 . S
H1181 C1157 0.949 . S
H1182 C1159 0.950 . S
H1183 C1161 0.950 . S
C1184 C1185 1.349 . S
C1184 C1186 1.327 . S
C1184 H1209 0.950 . S
C1185 C1184 1.349 . S
C1185 C1201 1.349 . S
C1186 C1184 1.327 . S
C1186 C1205 1.429 . S
C1186 H1210 0.950 . S
C1187 C1204 1.574 . S
C1187 C1206 1.368 . S
C1187 H1211 0.949 . S
H1188 C1192 0.949 . S
C1189 C1190 1.349 . S
C1189 C1191 1.327 . S
C1189 H1212 0.950 . S
C1190 C1189 1.349 . S
C1190 C1202 1.349 . S
C1191 C1189 1.327 . S
C1191 C1207 1.429 . S
C1191 H1213 0.950 . S
C1192 H1188 0.949 . S
C1192 C1200 1.574 . S
C1192 C1208 1.368 . S
H1193 C1201 0.950 . S
H1194 C1199 0.950 . S
H1195 C1200 0.949 . S
H1196 C1202 0.950 . S
H1197 C1203 0.950 . S
H1198 C1204 0.949 . S
C1199 H1194 0.950 . S
C1199 C1201 1.327 . S
C1199 C1205 1.429 . S
C1200 C1192 1.574 . S
C1200 H1195 0.949 . S
C1200 C1206 1.368 . S
C1201 C1185 1.349 . S
C1201 H1193 0.950 . S
C1201 C1199 1.327 . S
C1202 C1190 1.349 . S
C1202 H1196 0.950 . S
C1202 C1203 1.327 . S
C1203 H1197 0.950 . S
C1203 C1202 1.327 . S
C1203 C1207 1.429 . S
C1204 C1187 1.574 . S
C1204 H1198 0.949 . S
C1204 C1208 1.368 . S
C1205 C1186 1.429 . S
C1205 C1199 1.429 . S
C1205 C1206 1.523 . S
C1206 C1187 1.368 . S
C1206 C1200 1.368 . S
C1206 C1205 1.523 . S
C1207 C1191 1.429 . S
C1207 C1203 1.429 . S
C1207 C1208 1.523 . S
C1208 C1192 1.368 . S
C1208 C1204 1.368 . S
C1208 C1207 1.523 . S
H1209 C1184 0.950 . S
H1210 C1186 0.950 . S
H1211 C1187 0.949 . S
H1212 C1189 0.950 . S
H1213 C1191 0.950 . S
C1214 C1215 1.349 . S
C1214 C1216 1.327 . S
C1214 H1239 0.950 . S
C1215 C1214 1.349 . S
C1215 C1231 1.349 . S
C1216 C1214 1.327 . S
C1216 C1235 1.429 . S
C1216 H1240 0.950 . S
C1217 C1234 1.574 . S
C1217 C1236 1.368 . S
C1217 H1241 0.949 . S
H1218 C1222 0.949 . S
C1219 C1220 1.349 . S
C1219 C1221 1.327 . S
C1219 H1242 0.950 . S
C1220 C1219 1.349 . S
C1220 C1232 1.349 . S
C1221 C1219 1.327 . S
C1221 C1237 1.429 . S
C1221 H1243 0.950 . S
C1222 H1218 0.949 . S
C1222 C1230 1.574 . S
C1222 C1238 1.368 . S
H1223 C1231 0.950 . S
H1224 C1229 0.950 . S
H1225 C1230 0.949 . S
H1226 C1232 0.950 . S
H1227 C1233 0.950 . S
H1228 C1234 0.949 . S
C1229 H1224 0.950 . S
C1229 C1231 1.327 . S
C1229 C1235 1.429 . S
C1230 C1222 1.574 . S
C1230 H1225 0.949 . S
C1230 C1236 1.368 . S
C1231 C1215 1.349 . S
C1231 H1223 0.950 . S
C1231 C1229 1.327 . S
C1232 C1220 1.349 . S
C1232 H1226 0.950 . S
C1232 C1233 1.327 . S
C1233 H1227 0.950 . S
C1233 C1232 1.327 . S
C1233 C1237 1.429 . S
C1234 C1217 1.574 . S
C1234 H1228 0.949 . S
C1234 C1238 1.368 . S
C1235 C1216 1.429 . S
C1235 C1229 1.429 . S
C1235 C1236 1.523 . S
C1236 C1217 1.368 . S
C1236 C1230 1.368 . S
C1236 C1235 1.523 . S
C1237 C1221 1.429 . S
C1237 C1233 1.429 . S
C1237 C1238 1.523 . S
C1238 C1222 1.368 . S
C1238 C1234 1.368 . S
C1238 C1237 1.523 . S
H1239 C1214 0.950 . S
H1240 C1216 0.950 . S
H1241 C1217 0.949 . S
H1242 C1219 0.950 . S
H1243 C1221 0.950 . S
C1244 C1245 1.349 . S
C1244 C1246 1.327 . S
C1244 H1269 0.950 . S
C1245 C1244 1.349 . S
C1245 C1261 1.349 . S
C1246 C1244 1.327 . S
C1246 C1265 1.429 . S
C1246 H1270 0.950 . S
C1247 C1264 1.574 . S
C1247 C1266 1.368 . S
C1247 H1271 0.949 . S
H1248 C1252 0.949 . S
C1249 C1250 1.349 . S
C1249 C1251 1.327 . S
C1249 H1272 0.950 . S
C1250 C1249 1.349 . S
C1250 C1262 1.349 . S
C1251 C1249 1.327 . S
C1251 C1267 1.429 . S
C1251 H1273 0.950 . S
C1252 H1248 0.949 . S
C1252 C1260 1.574 . S
C1252 C1268 1.368 . S
H1253 C1261 0.950 . S
H1254 C1259 0.950 . S
H1255 C1260 0.949 . S
H1256 C1262 0.950 . S
H1257 C1263 0.950 . S
H1258 C1264 0.949 . S
C1259 H1254 0.950 . S
C1259 C1261 1.327 . S
C1259 C1265 1.429 . S
C1260 C1252 1.574 . S
C1260 H1255 0.949 . S
C1260 C1266 1.368 . S
C1261 C1245 1.349 . S
C1261 H1253 0.950 . S
C1261 C1259 1.327 . S
C1262 C1250 1.349 . S
C1262 H1256 0.950 . S
C1262 C1263 1.327 . S
C1263 H1257 0.950 . S
C1263 C1262 1.327 . S
C1263 C1267 1.429 . S
C1264 C1247 1.574 . S
C1264 H1258 0.949 . S
C1264 C1268 1.368 . S
C1265 C1246 1.429 . S
C1265 C1259 1.429 . S
C1265 C1266 1.523 . S
C1266 C1247 1.368 . S
C1266 C1260 1.368 . S
C1266 C1265 1.523 . S
C1267 C1251 1.429 . S
C1267 C1263 1.429 . S
C1267 C1268 1.523 . S
C1268 C1252 1.368 . S
C1268 C1264 1.368 . S
C1268 C1267 1.523 . S
H1269 C1244 0.950 . S
H1270 C1246 0.950 . S
H1271 C1247 0.949 . S
H1272 C1249 0.950 . S
H1273 C1251 0.950 . S
C1274 C1275 1.349 . S
C1274 C1276 1.327 . S
C1274 H1299 0.950 . S
C1275 C1274 1.349 . S
C1275 C1291 1.349 . S
C1276 C1274 1.327 . S
C1276 C1295 1.429 . S
C1276 H1300 0.950 . S
C1277 C1294 1.574 . S
C1277 C1296 1.368 . S
C1277 H1301 0.949 . S
H1278 C1282 0.949 . S
C1279 C1280 1.349 . S
C1279 C1281 1.327 . S
C1279 H1302 0.950 . S
C1280 C1279 1.349 . S
C1280 C1292 1.349 . S
C1281 C1279 1.327 . S
C1281 C1297 1.429 . S
C1281 H1303 0.950 . S
C1282 H1278 0.949 . S
C1282 C1290 1.574 . S
C1282 C1298 1.368 . S
H1283 C1291 0.950 . S
H1284 C1289 0.950 . S
H1285 C1290 0.949 . S
H1286 C1292 0.950 . S
H1287 C1293 0.950 . S
H1288 C1294 0.949 . S
C1289 H1284 0.950 . S
C1289 C1291 1.327 . S
C1289 C1295 1.429 . S
C1290 C1282 1.574 . S
C1290 H1285 0.949 . S
C1290 C1296 1.368 . S
C1291 C1275 1.349 . S
C1291 H1283 0.950 . S
C1291 C1289 1.327 . S
C1292 C1280 1.349 . S
C1292 H1286 0.950 . S
C1292 C1293 1.327 . S
C1293 H1287 0.950 . S
C1293 C1292 1.327 . S
C1293 C1297 1.429 . S
C1294 C1277 1.574 . S
C1294 H1288 0.949 . S
C1294 C1298 1.368 . S
C1295 C1276 1.429 . S
C1295 C1289 1.429 . S
C1295 C1296 1.523 . S
C1296 C1277 1.368 . S
C1296 C1290 1.368 . S
C1296 C1295 1.523 . S
C1297 C1281 1.429 . S
C1297 C1293 1.429 . S
C1297 C1298 1.523 . S
C1298 C1282 1.368 . S
C1298 C1294 1.368 . S
C1298 C1297 1.523 . S
H1299 C1274 0.950 . S
H1300 C1276 0.950 . S
H1301 C1277 0.949 . S
H1302 C1279 0.950 . S
H1303 C1281 0.950 . S
C1304 C1305 1.349 . S
C1304 C1306 1.327 . S
C1304 H1329 0.950 . S
C1305 C1304 1.349 . S
C1305 C1321 1.349 . S
C1306 C1304 1.327 . S
C1306 C1325 1.429 . S
C1306 H1330 0.950 . S
C1307 C1324 1.574 . S
C1307 C1326 1.368 . S
C1307 H1331 0.949 . S
H1308 C1312 0.949 . S
C1309 C1310 1.349 . S
C1309 C1311 1.327 . S
C1309 H1332 0.950 . S
C1310 C1309 1.349 . S
C1310 C1322 1.349 . S
C1311 C1309 1.327 . S
C1311 C1327 1.429 . S
C1311 H1333 0.950 . S
C1312 H1308 0.949 . S
C1312 C1320 1.574 . S
C1312 C1328 1.368 . S
H1313 C1321 0.950 . S
H1314 C1319 0.950 . S
H1315 C1320 0.949 . S
H1316 C1322 0.950 . S
H1317 C1323 0.950 . S
H1318 C1324 0.949 . S
C1319 H1314 0.950 . S
C1319 C1321 1.327 . S
C1319 C1325 1.429 . S
C1320 C1312 1.574 . S
C1320 H1315 0.949 . S
C1320 C1326 1.368 . S
C1321 C1305 1.349 . S
C1321 H1313 0.950 . S
C1321 C1319 1.327 . S
C1322 C1310 1.349 . S
C1322 H1316 0.950 . S
C1322 C1323 1.327 . S
C1323 H1317 0.950 . S
C1323 C1322 1.327 . S
C1323 C1327 1.429 . S
C1324 C1307 1.574 . S
C1324 H1318 0.949 . S
C1324 C1328 1.368 . S
C1325 C1306 1.429 . S
C1325 C1319 1.429 . S
C1325 C1326 1.523 . S
C1326 C1307 1.368 . S
C1326 C1320 1.368 . S
C1326 C1325 1.523 . S
C1327 C1311 1.429 . S
C1327 C1323 1.429 . S
C1327 C1328 1.523 . S
C1328 C1312 1.368 . S
C1328 C1324 1.368 . S
C1328 C1327 1.523 . S
H1329 C1304 0.950 . S
H1330 C1306 0.950 . S
H1331 C1307 0.949 . S
H1332 C1309 0.950 . S
H1333 C1311 0.950 . S
C1334 C1335 1.349 . S
C1334 C1336 1.327 . S
C1334 H1359 0.950 . S
C1335 C1334 1.349 . S
C1335 C1351 1.349 . S
C1336 C1334 1.327 . S
C1336 C1355 1.429 . S
C1336 H1360 0.950 . S
C1337 C1354 1.574 . S
C1337 C1356 1.368 . S
C1337 H1361 0.949 . S
H1338 C1342 0.949 . S
C1339 C1340 1.349 . S
C1339 C1341 1.327 . S
C1339 H1362 0.950 . S
C1340 C1339 1.349 . S
C1340 C1352 1.349 . S
C1341 C1339 1.327 . S
C1341 C1357 1.429 . S
C1341 H1363 0.950 . S
C1342 H1338 0.949 . S
C1342 C1350 1.574 . S
C1342 C1358 1.368 . S
H1343 C1351 0.950 . S
H1344 C1349 0.950 . S
H1345 C1350 0.949 . S
H1346 C1352 0.950 . S
H1347 C1353 0.950 . S
H1348 C1354 0.949 . S
C1349 H1344 0.950 . S
C1349 C1351 1.327 . S
C1349 C1355 1.429 . S
C1350 C1342 1.574 . S
C1350 H1345 0.949 . S
C1350 C1356 1.368 . S
C1351 C1335 1.349 . S
C1351 H1343 0.950 . S
C1351 C1349 1.327 . S
C1352 C1340 1.349 . S
C1352 H1346 0.950 . S
C1352 C1353 1.327 . S
C1353 H1347 0.950 . S
C1353 C1352 1.327 . S
C1353 C1357 1.429 . S
C1354 C1337 1.574 . S
C1354 H1348 0.949 . S
C1354 C1358 1.368 . S
C1355 C1336 1.429 . S
C1355 C1349 1.429 . S
C1355 C1356 1.523 . S
C1356 C1337 1.368 . S
C1356 C1350 1.368 . S
C1356 C1355 1.523 . S
C1357 C1341 1.429 . S
C1357 C1353 1.429 . S
C1357 C1358 1.523 . S
C1358 C1342 1.368 . S
C1358 C1354 1.368 . S
C1358 C1357 1.523 . S
H1359 C1334 0.950 . S
H1360 C1336 0.950 . S
H1361 C1337 0.949 . S
H1362 C1339 0.950 . S
H1363 C1341 0.950 . S
C1364 C1365 1.349 . S
C1364 C1366 1.327 . S
C1364 H1389 0.950 . S
C1365 C1364 1.349 . S
C1365 C1381 1.349 . S
C1366 C1364 1.327 . S
C1366 C1385 1.429 . S
C1366 H1390 0.950 . S
C1367 C1384 1.574 . S
C1367 C1386 1.368 . S
C1367 H1391 0.949 . S
H1368 C1372 0.949 . S
C1369 C1370 1.349 . S
C1369 C1371 1.327 . S
C1369 H1392 0.950 . S
C1370 C1369 1.349 . S
C1370 C1382 1.349 . S
C1371 C1369 1.327 . S
C1371 C1387 1.429 . S
C1371 H1393 0.950 . S
C1372 H1368 0.949 . S
C1372 C1380 1.574 . S
C1372 C1388 1.368 . S
H1373 C1381 0.950 . S
H1374 C1379 0.950 . S
H1375 C1380 0.949 . S
H1376 C1382 0.950 . S
H1377 C1383 0.950 . S
H1378 C1384 0.949 . S
C1379 H1374 0.950 . S
C1379 C1381 1.327 . S
C1379 C1385 1.429 . S
C1380 C1372 1.574 . S
C1380 H1375 0.949 . S
C1380 C1386 1.368 . S
C1381 C1365 1.349 . S
C1381 H1373 0.950 . S
C1381 C1379 1.327 . S
C1382 C1370 1.349 . S
C1382 H1376 0.950 . S
C1382 C1383 1.327 . S
C1383 H1377 0.950 . S
C1383 C1382 1.327 . S
C1383 C1387 1.429 . S
C1384 C1367 1.574 . S
C1384 H1378 0.949 . S
C1384 C1388 1.368 . S
C1385 C1366 1.429 . S
C1385 C1379 1.429 . S
C1385 C1386 1.523 . S
C1386 C1367 1.368 . S
C1386 C1380 1.368 . S
C1386 C1385 1.523 . S
C1387 C1371 1.429 . S
C1387 C1383 1.429 . S
C1387 C1388 1.523 . S
C1388 C1372 1.368 . S
C1388 C1384 1.368 . S
C1388 C1387 1.523 . S
H1389 C1364 0.950 . S
H1390 C1366 0.950 . S
H1391 C1367 0.949 . S
H1392 C1369 0.950 . S
H1393 C1371 0.950 . S
C1394 C1395 1.349 . S
C1394 C1396 1.327 . S
C1394 H1419 0.950 . S
C1395 C1394 1.349 . S
C1395 C1411 1.349 . S
C1396 C1394 1.327 . S
C1396 C1415 1.429 . S
C1396 H1420 0.950 . S
C1397 C1414 1.574 . S
C1397 C1416 1.368 . S
C1397 H1421 0.949 . S
H1398 C1402 0.949 . S
C1399 C1400 1.349 . S
C1399 C1401 1.327 . S
C1399 H1422 0.950 . S
C1400 C1399 1.349 . S
C1400 C1412 1.349 . S
C1401 C1399 1.327 . S
C1401 C1417 1.429 . S
C1401 H1423 0.950 . S
C1402 H1398 0.949 . S
C1402 C1410 1.574 . S
C1402 C1418 1.368 . S
H1403 C1411 0.950 . S
H1404 C1409 0.950 . S
H1405 C1410 0.949 . S
H1406 C1412 0.950 . S
H1407 C1413 0.950 . S
H1408 C1414 0.949 . S
C1409 H1404 0.950 . S
C1409 C1411 1.327 . S
C1409 C1415 1.429 . S
C1410 C1402 1.574 . S
C1410 H1405 0.949 . S
C1410 C1416 1.368 . S
C1411 C1395 1.349 . S
C1411 H1403 0.950 . S
C1411 C1409 1.327 . S
C1412 C1400 1.349 . S
C1412 H1406 0.950 . S
C1412 C1413 1.327 . S
C1413 H1407 0.950 . S
C1413 C1412 1.327 . S
C1413 C1417 1.429 . S
C1414 C1397 1.574 . S
C1414 H1408 0.949 . S
C1414 C1418 1.368 . S
C1415 C1396 1.429 . S
C1415 C1409 1.429 . S
C1415 C1416 1.523 . S
C1416 C1397 1.368 . S
C1416 C1410 1.368 . S
C1416 C1415 1.523 . S
C1417 C1401 1.429 . S
C1417 C1413 1.429 . S
C1417 C1418 1.523 . S
C1418 C1402 1.368 . S
C1418 C1414 1.368 . S
C1418 C1417 1.523 . S
H1419 C1394 0.950 . S
H1420 C1396 0.950 . S
H1421 C1397 0.949 . S
H1422 C1399 0.950 . S
H1423 C1401 0.950 . S
C1424 C1425 1.349 1_545 S
C1424 C1426 1.327 . S
C1424 H1449 0.950 . S
C1425 C1424 1.349 1_565 S
C1425 C1441 1.349 . S
C1426 C1424 1.327 . S
C1426 C1445 1.429 1_545 S
C1426 H1450 0.950 . S
C1427 C1444 1.574 1_556 S
C1427 C1446 1.368 . S
C1427 H1451 0.949 . S
H1428 C1432 0.949 . S
C1429 C1430 1.349 1_565 S
C1429 C1431 1.327 . S
C1429 H1452 0.950 . S
C1430 C1429 1.349 1_545 S
C1430 C1442 1.349 . S
C1431 C1429 1.327 . S
C1431 C1447 1.429 1_565 S
C1431 H1453 0.950 . S
C1432 H1428 0.949 . S
C1432 C1440 1.574 1_554 S
C1432 C1448 1.368 . S
H1433 C1441 0.950 . S
H1434 C1439 0.950 . S
H1435 C1440 0.949 . S
H1436 C1442 0.950 . S
H1437 C1443 0.950 . S
H1438 C1444 0.949 . S
C1439 H1434 0.950 . S
C1439 C1441 1.327 . S
C1439 C1445 1.429 . S
C1440 C1432 1.574 1_556 S
C1440 H1435 0.949 . S
C1440 C1446 1.368 1_545 S
C1441 C1425 1.349 . S
C1441 H1433 0.950 . S
C1441 C1439 1.327 . S
C1442 C1430 1.349 . S
C1442 H1436 0.950 . S
C1442 C1443 1.327 . S
C1443 H1437 0.950 . S
C1443 C1442 1.327 . S
C1443 C1447 1.429 . S
C1444 C1427 1.574 1_554 S
C1444 H1438 0.949 . S
C1444 C1448 1.368 1_565 S
C1445 C1426 1.429 1_565 S
C1445 C1439 1.429 . S
C1445 C1446 1.523 . S
C1446 C1427 1.368 . S
C1446 C1440 1.368 1_565 S
C1446 C1445 1.523 . S
C1447 C1431 1.429 1_545 S
C1447 C1443 1.429 . S
C1447 C1448 1.523 . S
C1448 C1432 1.368 . S
C1448 C1444 1.368 1_545 S
C1448 C1447 1.523 . S
H1449 C1424 0.950 . S
H1450 C1426 0.950 . S
H1451 C1427 0.949 . S
H1452 C1429 0.950 . S
H1453 C1431 0.950 . S
C1454 C1455 1.349 . S
C1454 C1456 1.327 . S
C1454 H1479 0.950 . S
C1455 C1454 1.349 . S
C1455 C1471 1.349 . S
C1456 C1454 1.327 . S
C1456 C1475 1.429 . S
C1456 H1480 0.950 . S
C1457 C1474 1.574 . S
C1457 C1476 1.368 . S
C1457 H1481 0.949 . S
H1458 C1462 0.949 . S
C1459 C1460 1.349 . S
C1459 C1461 1.327 . S
C1459 H1482 0.950 . S
C1460 C1459 1.349 . S
C1460 C1472 1.349 . S
C1461 C1459 1.327 . S
C1461 C1477 1.429 . S
C1461 H1483 0.950 . S
C1462 H1458 0.949 . S
C1462 C1470 1.574 . S
C1462 C1478 1.368 . S
H1463 C1471 0.950 . S
H1464 C1469 0.950 . S
H1465 C1470 0.949 . S
H1466 C1472 0.950 . S
H1467 C1473 0.950 . S
H1468 C1474 0.949 . S
C1469 H1464 0.950 . S
C1469 C1471 1.327 . S
C1469 C1475 1.429 . S
C1470 C1462 1.574 . S
C1470 H1465 0.949 . S
C1470 C1476 1.368 1_554 S
C1471 C1455 1.349 . S
C1471 H1463 0.950 . S
C1471 C1469 1.327 . S
C1472 C1460 1.349 . S
C1472 H1466 0.950 . S
C1472 C1473 1.327 . S
C1473 H1467 0.950 . S
C1473 C1472 1.327 . S
C1473 C1477 1.429 . S
C1474 C1457 1.574 . S
C1474 H1468 0.949 . S
C1474 C1478 1.368 1_556 S
C1475 C1456 1.429 . S
C1475 C1469 1.429 . S
C1475 C1476 1.523 . S
C1476 C1457 1.368 . S
C1476 C1470 1.368 1_556 S
C1476 C1475 1.523 . S
C1477 C1461 1.429 . S
C1477 C1473 1.429 . S
C1477 C1478 1.523 . S
C1478 C1462 1.368 . S
C1478 C1474 1.368 1_554 S
C1478 C1477 1.523 . S
H1479 C1454 0.950 . S
H1480 C1456 0.950 . S
H1481 C1457 0.949 . S
H1482 C1459 0.950 . S
H1483 C1461 0.950 . S
C1484 C1485 1.349 . S
C1484 C1486 1.327 . S
C1484 H1509 0.950 . S
C1485 C1484 1.349 . S
C1485 C1501 1.349 . S
C1486 C1484 1.327 . S
C1486 C1505 1.429 . S
C1486 H1510 0.950 . S
C1487 C1504 1.574 1_456 S
C1487 C1506 1.368 . S
C1487 H1511 0.949 . S
H1488 C1492 0.949 . S
C1489 C1490 1.349 . S
C1489 C1491 1.327 . S
C1489 H1512 0.950 . S
C1490 C1489 1.349 . S
C1490 C1502 1.349 . S
C1491 C1489 1.327 . S
C1491 C1507 1.429 . S
C1491 H1513 0.950 . S
C1492 H1488 0.949 . S
C1492 C1500 1.574 1_654 S
C1492 C1508 1.368 . S
H1493 C1501 0.950 . S
H1494 C1499 0.950 . S
H1495 C1500 0.949 . S
H1496 C1502 0.950 . S
H1497 C1503 0.950 . S
H1498 C1504 0.949 . S
C1499 H1494 0.950 . S
C1499 C1501 1.327 . S
C1499 C1505 1.429 . S
C1500 C1492 1.574 1_456 S
C1500 H1495 0.949 . S
C1500 C1506 1.368 . S
C1501 C1485 1.349 . S
C1501 H1493 0.950 . S
C1501 C1499 1.327 . S
C1502 C1490 1.349 . S
C1502 H1496 0.950 . S
C1502 C1503 1.327 . S
C1503 H1497 0.950 . S
C1503 C1502 1.327 . S
C1503 C1507 1.429 . S
C1504 C1487 1.574 1_654 S
C1504 H1498 0.949 . S
C1504 C1508 1.368 . S
C1505 C1486 1.429 . S
C1505 C1499 1.429 . S
C1505 C1506 1.523 . S
C1506 C1487 1.368 . S
C1506 C1500 1.368 . S
C1506 C1505 1.523 . S
C1507 C1491 1.429 . S
C1507 C1503 1.429 . S
C1507 C1508 1.523 . S
C1508 C1492 1.368 . S
C1508 C1504 1.368 . S
C1508 C1507 1.523 . S
H1509 C1484 0.950 . S
H1510 C1486 0.950 . S
H1511 C1487 0.949 . S
H1512 C1489 0.950 . S
H1513 C1491 0.950 . S
C1514 C1515 1.349 1_455 S
C1514 C1516 1.327 . S
C1514 H1539 0.950 . S
C1515 C1514 1.349 1_655 S
C1515 C1531 1.349 . S
C1516 C1514 1.327 . S
C1516 C1535 1.429 1_455 S
C1516 H1540 0.950 . S
C1517 C1534 1.541 1_546 S
C1517 C1536 1.399 . S
C1517 H1541 0.953 . S
H1518 C1522 0.953 . S
C1519 C1520 1.349 1_655 S
C1519 C1521 1.327 . S
C1519 H1542 0.950 . S
C1520 C1519 1.349 1_455 S
C1520 C1532 1.349 . S
C1521 C1519 1.327 . S
C1521 C1537 1.429 1_655 S
C1521 H1543 0.950 . S
C1522 H1518 0.953 . S
C1522 C1530 1.541 1_564 S
C1522 C1538 1.399 . S
H1523 C1531 0.950 . S
H1524 C1529 0.950 . S
H1525 C1530 0.949 . S
H1526 C1532 0.950 . S
H1527 C1533 0.950 . S
H1528 C1534 0.949 . S
C1529 H1524 0.950 . S
C1529 C1531 1.327 . S
C1529 C1535 1.429 . S
C1530 C1522 1.541 1_546 S
C1530 H1525 0.949 . S
C1530 C1536 1.368 1_455 S
C1531 C1515 1.349 . S
C1531 H1523 0.950 . S
C1531 C1529 1.327 . S
C1532 C1520 1.349 . S
C1532 H1526 0.950 . S
C1532 C1533 1.327 . S
C1533 H1527 0.950 . S
C1533 C1532 1.327 . S
C1533 C1537 1.429 . S
C1534 C1517 1.541 1_564 S
C1534 H1528 0.949 . S
C1534 C1538 1.368 1_655 S
C1535 C1516 1.429 1_655 S
C1535 C1529 1.429 . S
C1535 C1536 1.523 . S
C1536 C1517 1.399 . S
C1536 C1530 1.368 1_655 S
C1536 C1535 1.523 . S
C1537 C1521 1.429 1_455 S
C1537 C1533 1.429 . S
C1537 C1538 1.523 . S
C1538 C1522 1.399 . S
C1538 C1534 1.368 1_455 S
C1538 C1537 1.523 . S
H1539 C1514 0.950 . S
H1540 C1516 0.950 . S
H1541 C1517 0.953 . S
H1542 C1519 0.950 . S
H1543 C1521 0.950 . S
C1544 C1545 1.349 . S
C1544 C1546 1.327 . S
C1544 H1569 0.950 . S
C1545 C1544 1.349 . S
C1545 C1561 1.349 . S
C1546 C1544 1.327 . S
C1546 C1565 1.429 . S
C1546 H1570 0.950 . S
C1547 C1564 1.574 . S
C1547 C1566 1.368 . S
C1547 H1571 0.949 . S
H1548 C1552 0.949 . S
C1549 C1550 1.349 . S
C1549 C1551 1.327 . S
C1549 H1572 0.950 . S
C1550 C1549 1.349 . S
C1550 C1562 1.349 . S
C1551 C1549 1.327 . S
C1551 C1567 1.429 . S
C1551 H1573 0.950 . S
C1552 H1548 0.949 . S
C1552 C1560 1.574 . S
C1552 C1568 1.368 . S
H1553 C1561 0.950 . S
H1554 C1559 0.950 . S
H1555 C1560 0.949 . S
H1556 C1562 0.950 . S
H1557 C1563 0.950 . S
H1558 C1564 0.949 . S
C1559 H1554 0.950 . S
C1559 C1561 1.327 . S
C1559 C1565 1.429 . S
C1560 C1552 1.574 . S
C1560 H1555 0.949 . S
C1560 C1566 1.368 . S
C1561 C1545 1.349 . S
C1561 H1553 0.950 . S
C1561 C1559 1.327 . S
C1562 C1550 1.349 . S
C1562 H1556 0.950 . S
C1562 C1563 1.327 . S
C1563 H1557 0.950 . S
C1563 C1562 1.327 . S
C1563 C1567 1.429 . S
C1564 C1547 1.574 . S
C1564 H1558 0.949 . S
C1564 C1568 1.368 . S
C1565 C1546 1.429 . S
C1565 C1559 1.429 . S
C1565 C1566 1.523 . S
C1566 C1547 1.368 . S
C1566 C1560 1.368 . S
C1566 C1565 1.523 . S
C1567 C1551 1.429 . S
C1567 C1563 1.429 . S
C1567 C1568 1.523 . S
C1568 C1552 1.368 . S
C1568 C1564 1.368 . S
C1568 C1567 1.523 . S
H1569 C1544 0.950 . S
H1570 C1546 0.950 . S
H1571 C1547 0.949 . S
H1572 C1549 0.950 . S
H1573 C1551 0.950 . S
C1574 C1575 1.349 1_655 S
C1574 C1576 1.327 . S
C1574 H1599 0.950 . S
C1575 C1574 1.349 1_455 S
C1575 C1591 1.349 . S
C1576 C1574 1.327 . S
C1576 C1595 1.429 1_655 S
C1576 H1600 0.950 . S
C1577 C1594 1.574 . S
C1577 C1596 1.368 . S
C1577 H1601 0.949 . S
H1578 C1582 0.949 . S
C1579 C1580 1.349 1_455 S
C1579 C1581 1.327 . S
C1579 H1602 0.950 . S
C1580 C1579 1.349 1_655 S
C1580 C1592 1.349 . S
C1581 C1579 1.327 . S
C1581 C1597 1.429 1_455 S
C1581 H1603 0.950 . S
C1582 H1578 0.949 . S
C1582 C1590 1.574 . S
C1582 C1598 1.368 . S
H1583 C1591 0.950 . S
H1584 C1589 0.950 . S
H1585 C1590 0.949 . S
H1586 C1592 0.950 . S
H1587 C1593 0.950 . S
H1588 C1594 0.949 . S
C1589 H1584 0.950 . S
C1589 C1591 1.327 . S
C1589 C1595 1.429 . S
C1590 C1582 1.574 . S
C1590 H1585 0.949 . S
C1590 C1596 1.368 1_655 S
C1591 C1575 1.349 . S
C1591 H1583 0.950 . S
C1591 C1589 1.327 . S
C1592 C1580 1.349 . S
C1592 H1586 0.950 . S
C1592 C1593 1.327 . S
C1593 H1587 0.950 . S
C1593 C1592 1.327 . S
C1593 C1597 1.429 . S
C1594 C1577 1.574 . S
C1594 H1588 0.949 . S
C1594 C1598 1.368 1_455 S
C1595 C1576 1.429 1_455 S
C1595 C1589 1.429 . S
C1595 C1596 1.523 . S
C1596 C1577 1.368 . S
C1596 C1590 1.368 1_455 S
C1596 C1595 1.523 . S
C1597 C1581 1.429 1_655 S
C1597 C1593 1.429 . S
C1597 C1598 1.523 . S
C1598 C1582 1.368 . S
C1598 C1594 1.368 1_655 S
C1598 C1597 1.523 . S
H1599 C1574 0.950 . S
H1600 C1576 0.950 . S
H1601 C1577 0.949 . S
H1602 C1579 0.950 . S
H1603 C1581 0.950 . S
C1604 C1605 1.349 . S
C1604 C1606 1.327 . S
C1604 H1629 0.950 . S
C1605 C1604 1.349 . S
C1605 C1621 1.361 . S
C1606 C1604 1.327 . S
C1606 C1625 1.429 . S
C1606 H1630 0.950 . S
C1607 C1624 1.574 . S
C1607 C1626 1.368 1_565 S
C1607 H1631 0.949 . S
H1608 C1612 0.949 . S
C1609 C1610 1.349 . S
C1609 C1611 1.327 . S
C1609 H1632 0.950 . S
C1610 C1609 1.349 . S
C1610 C1622 1.361 . S
C1611 C1609 1.327 . S
C1611 C1627 1.429 . S
C1611 H1633 0.950 . S
C1612 H1608 0.949 . S
C1612 C1620 1.574 . S
C1612 C1628 1.368 1_545 S
H1613 C1621 0.941 1_565 S
H1614 C1619 0.950 . S
H1615 C1620 0.949 . S
H1616 C1622 0.941 1_545 S
H1617 C1623 0.950 . S
H1618 C1624 0.949 . S
C1619 H1614 0.950 . S
C1619 C1621 1.324 1_565 S
C1619 C1625 1.429 1_565 S
C1620 C1612 1.574 . S
C1620 H1615 0.949 . S
C1620 C1626 1.368 1_455 S
C1621 C1605 1.361 . S
C1621 H1613 0.941 1_545 S
C1621 C1619 1.324 1_545 S
C1622 C1610 1.361 . S
C1622 H1616 0.941 1_565 S
C1622 C1623 1.324 1_565 S
C1623 H1617 0.950 . S
C1623 C1622 1.324 1_545 S
C1623 C1627 1.429 1_545 S
C1624 C1607 1.574 . S
C1624 H1618 0.949 . S
C1624 C1628 1.368 1_655 S
C1625 C1606 1.429 . S
C1625 C1619 1.429 1_545 S
C1625 C1626 1.523 . S
C1626 C1607 1.368 1_545 S
C1626 C1620 1.368 1_655 S
C1626 C1625 1.523 . S
C1627 C1611 1.429 . S
C1627 C1623 1.429 1_565 S
C1627 C1628 1.523 . S
C1628 C1612 1.368 1_565 S
C1628 C1624 1.368 1_455 S
C1628 C1627 1.523 . S
H1629 C1604 0.950 . S
H1630 C1606 0.950 . S
H1631 C1607 0.949 . S
H1632 C1609 0.950 . S
H1633 C1611 0.950 . S
C1634 C1635 1.349 . S
C1634 C1636 1.327 . S
C1634 H1659 0.950 . S
C1635 C1634 1.349 . S
C1635 C1651 1.349 . S
C1636 C1634 1.327 . S
C1636 C1655 1.429 . S
C1636 H1660 0.950 . S
C1637 C1654 1.574 . S
C1637 C1656 1.368 1_545 S
C1637 H1661 0.949 . S
H1638 C1642 0.949 . S
C1639 C1640 1.349 . S
C1639 C1641 1.327 . S
C1639 H1662 0.950 . S
C1640 C1639 1.349 . S
C1640 C1652 1.349 . S
C1641 C1639 1.327 . S
C1641 C1657 1.429 . S
C1641 H1663 0.950 . S
C1642 H1638 0.949 . S
C1642 C1650 1.574 . S
C1642 C1658 1.368 1_565 S
H1643 C1651 0.950 . S
H1644 C1649 0.950 . S
H1645 C1650 0.949 . S
H1646 C1652 0.950 . S
H1647 C1653 0.950 . S
H1648 C1654 0.949 . S
C1649 H1644 0.950 . S
C1649 C1651 1.327 . S
C1649 C1655 1.429 . S
C1650 C1642 1.574 . S
C1650 H1645 0.949 . S
C1650 C1656 1.368 . S
C1651 C1635 1.349 . S
C1651 H1643 0.950 . S
C1651 C1649 1.327 . S
C1652 C1640 1.349 . S
C1652 H1646 0.950 . S
C1652 C1653 1.327 . S
C1653 H1647 0.950 . S
C1653 C1652 1.327 . S
C1653 C1657 1.429 . S
C1654 C1637 1.574 . S
C1654 H1648 0.949 . S
C1654 C1658 1.368 . S
C1655 C1636 1.429 . S
C1655 C1649 1.429 . S
C1655 C1656 1.523 . S
C1656 C1637 1.368 1_565 S
C1656 C1650 1.368 . S
C1656 C1655 1.523 . S
C1657 C1641 1.429 . S
C1657 C1653 1.429 . S
C1657 C1658 1.523 . S
C1658 C1642 1.368 1_545 S
C1658 C1654 1.368 . S
C1658 C1657 1.523 . S
H1659 C1634 0.950 . S
H1660 C1636 0.950 . S
H1661 C1637 0.949 . S
H1662 C1639 0.950 . S
H1663 C1641 0.950 . S
C1664 C1665 1.349 . S
C1664 C1666 1.327 . S
C1664 H1689 0.950 . S
C1665 C1664 1.349 . S
C1665 C1681 1.349 . S
C1666 C1664 1.327 . S
C1666 C1685 1.429 . S
C1666 H1690 0.950 . S
C1667 C1684 1.574 . S
C1667 C1686 1.368 . S
C1667 H1691 0.949 . S
H1668 C1672 0.949 . S
C1669 C1670 1.349 . S
C1669 C1671 1.327 . S
C1669 H1692 0.950 . S
C1670 C1669 1.349 . S
C1670 C1682 1.349 . S
C1671 C1669 1.327 . S
C1671 C1687 1.429 . S
C1671 H1693 0.950 . S
C1672 H1668 0.949 . S
C1672 C1680 1.574 . S
C1672 C1688 1.368 . S
H1673 C1681 0.950 . S
H1674 C1679 0.950 . S
H1675 C1680 0.949 . S
H1676 C1682 0.950 . S
H1677 C1683 0.950 . S
H1678 C1684 0.949 . S
C1679 H1674 0.950 . S
C1679 C1681 1.327 . S
C1679 C1685 1.429 . S
C1680 C1672 1.574 . S
C1680 H1675 0.949 . S
C1680 C1686 1.368 . S
C1681 C1665 1.349 . S
C1681 H1673 0.950 . S
C1681 C1679 1.327 . S
C1682 C1670 1.349 . S
C1682 H1676 0.950 . S
C1682 C1683 1.327 . S
C1683 H1677 0.950 . S
C1683 C1682 1.327 . S
C1683 C1687 1.429 . S
C1684 C1667 1.574 . S
C1684 H1678 0.949 . S
C1684 C1688 1.368 . S
C1685 C1666 1.429 . S
C1685 C1679 1.429 . S
C1685 C1686 1.523 . S
C1686 C1667 1.368 . S
C1686 C1680 1.368 . S
C1686 C1685 1.523 . S
C1687 C1671 1.429 . S
C1687 C1683 1.429 . S
C1687 C1688 1.523 . S
C1688 C1672 1.368 . S
C1688 C1684 1.368 . S
C1688 C1687 1.523 . S
H1689 C1664 0.950 . S
H1690 C1666 0.950 . S
H1691 C1667 0.949 . S
H1692 C1669 0.950 . S
H1693 C1671 0.950 . S
C1694 C1695 1.349 . S
C1694 C1696 1.327 . S
C1694 H1719 0.950 . S
C1695 C1694 1.349 . S
C1695 C1711 1.349 . S
C1696 C1694 1.327 . S
C1696 C1715 1.429 . S
C1696 H1720 0.950 . S
C1697 C1714 1.574 . S
C1697 C1716 1.368 . S
C1697 H1721 0.949 . S
H1698 C1702 0.949 . S
C1699 C1700 1.349 . S
C1699 C1701 1.327 . S
C1699 H1722 0.950 . S
C1700 C1699 1.349 . S
C1700 C1712 1.349 . S
C1701 C1699 1.327 . S
C1701 C1717 1.429 . S
C1701 H1723 0.950 . S
C1702 H1698 0.949 . S
C1702 C1710 1.574 . S
C1702 C1718 1.368 . S
H1703 C1711 0.950 . S
H1704 C1709 0.950 . S
H1705 C1710 0.949 . S
H1706 C1712 0.950 . S
H1707 C1713 0.950 . S
H1708 C1714 0.949 . S
C1709 H1704 0.950 . S
C1709 C1711 1.327 . S
C1709 C1715 1.429 . S
C1710 C1702 1.574 . S
C1710 H1705 0.949 . S
C1710 C1716 1.368 . S
C1711 C1695 1.349 . S
C1711 H1703 0.950 . S
C1711 C1709 1.327 . S
C1712 C1700 1.349 . S
C1712 H1706 0.950 . S
C1712 C1713 1.327 . S
C1713 H1707 0.950 . S
C1713 C1712 1.327 . S
C1713 C1717 1.429 . S
C1714 C1697 1.574 . S
C1714 H1708 0.949 . S
C1714 C1718 1.368 . S
C1715 C1696 1.429 . S
C1715 C1709 1.429 . S
C1715 C1716 1.523 . S
C1716 C1697 1.368 . S
C1716 C1710 1.368 . S
C1716 C1715 1.523 . S
C1717 C1701 1.429 . S
C1717 C1713 1.429 . S
C1717 C1718 1.523 . S
C1718 C1702 1.368 . S
C1718 C1714 1.368 . S
C1718 C1717 1.523 . S
H1719 C1694 0.950 . S
H1720 C1696 0.950 . S
H1721 C1697 0.949 . S
H1722 C1699 0.950 . S
H1723 C1701 0.950 . S
C1724 C1725 1.349 1_455 S
C1724 C1726 1.327 1_455 S
C1724 H1749 0.950 . S
C1725 C1724 1.349 1_655 S
C1725 C1741 1.349 . S
C1726 C1724 1.327 1_655 S
C1726 C1745 1.429 . S
C1726 H1750 0.950 . S
C1727 C1744 1.574 . S
C1727 C1746 1.368 . S
C1727 H1751 0.949 . S
H1728 C1732 0.949 . S
C1729 C1730 1.349 . S
C1729 C1731 1.327 . S
C1729 H1752 0.950 . S
C1730 C1729 1.349 . S
C1730 C1742 1.349 . S
C1731 C1729 1.327 . S
C1731 C1747 1.429 . S
C1731 H1753 0.950 . S
C1732 H1728 0.949 . S
C1732 C1740 1.574 . S
C1732 C1748 1.368 . S
H1733 C1741 0.950 . S
H1734 C1739 0.950 . S
H1735 C1740 0.949 . S
H1736 C1742 0.950 . S
H1737 C1743 0.950 . S
H1738 C1744 0.949 . S
C1739 H1734 0.950 . S
C1739 C1741 1.327 . S
C1739 C1745 1.429 . S
C1740 C1732 1.574 . S
C1740 H1735 0.949 . S
C1740 C1746 1.368 . S
C1741 C1725 1.349 . S
C1741 H1733 0.950 . S
C1741 C1739 1.327 . S
C1742 C1730 1.349 . S
C1742 H1736 0.950 . S
C1742 C1743 1.327 . S
C1743 H1737 0.950 . S
C1743 C1742 1.327 . S
C1743 C1747 1.429 . S
C1744 C1727 1.574 . S
C1744 H1738 0.949 . S
C1744 C1748 1.368 . S
C1745 C1726 1.429 . S
C1745 C1739 1.429 . S
C1745 C1746 1.523 . S
C1746 C1727 1.368 . S
C1746 C1740 1.368 . S
C1746 C1745 1.523 . S
C1747 C1731 1.429 . S
C1747 C1743 1.429 . S
C1747 C1748 1.523 . S
C1748 C1732 1.368 . S
C1748 C1744 1.368 . S
C1748 C1747 1.523 . S
H1749 C1724 0.950 . S
H1750 C1726 0.950 . S
H1751 C1727 0.949 . S
H1752 C1729 0.950 . S
H1753 C1731 0.950 . S
C1754 C1755 1.349 1_545 S
C1754 C1756 1.327 1_545 S
C1754 H1779 0.950 . S
C1755 C1754 1.349 1_565 S
C1755 C1771 1.349 . S
C1756 C1754 1.327 1_565 S
C1756 C1775 1.429 . S
C1756 H1780 0.950 1_565 S
C1757 C1774 1.574 . S
C1757 C1776 1.368 . S
C1757 H1781 0.949 . S
H1758 C1762 0.949 . S
C1759 C1760 1.349 . S
C1759 C1761 1.327 . S
C1759 H1782 0.950 . S
C1760 C1759 1.349 . S
C1760 C1772 1.349 . S
C1761 C1759 1.327 . S
C1761 C1777 1.429 . S
C1761 H1783 0.950 . S
C1762 H1758 0.949 . S
C1762 C1770 1.574 . S
C1762 C1778 1.368 . S
H1763 C1771 0.950 . S
H1764 C1769 0.950 . S
H1765 C1770 0.949 . S
H1766 C1772 0.950 . S
H1767 C1773 0.950 . S
H1768 C1774 0.949 . S
C1769 H1764 0.950 . S
C1769 C1771 1.327 . S
C1769 C1775 1.429 . S
C1770 C1762 1.574 . S
C1770 H1765 0.949 . S
C1770 C1776 1.368 . S
C1771 C1755 1.349 . S
C1771 H1763 0.950 . S
C1771 C1769 1.327 . S
C1772 C1760 1.349 . S
C1772 H1766 0.950 . S
C1772 C1773 1.327 . S
C1773 H1767 0.950 . S
C1773 C1772 1.327 . S
C1773 C1777 1.429 . S
C1774 C1757 1.574 . S
C1774 H1768 0.949 . S
C1774 C1778 1.368 . S
C1775 C1756 1.429 . S
C1775 C1769 1.429 . S
C1775 C1776 1.523 . S
C1776 C1757 1.368 . S
C1776 C1770 1.368 . S
C1776 C1775 1.523 . S
C1777 C1761 1.429 . S
C1777 C1773 1.429 . S
C1777 C1778 1.523 . S
C1778 C1762 1.368 . S
C1778 C1774 1.368 . S
C1778 C1777 1.523 . S
H1779 C1754 0.950 . S
H1780 C1756 0.950 1_545 S
H1781 C1757 0.949 . S
H1782 C1759 0.950 . S
H1783 C1761 0.950 . S
C1784 C1785 1.349 . S
C1784 C1786 1.327 . S
C1784 H1809 0.950 . S
C1785 C1784 1.349 . S
C1785 C1801 1.349 . S
C1786 C1784 1.327 . S
C1786 C1805 1.429 . S
C1786 H1810 0.950 . S
C1787 C1804 1.574 . S
C1787 C1806 1.368 . S
C1787 H1811 0.949 . S
H1788 C1792 0.949 . S
C1789 C1790 1.349 . S
C1789 C1791 1.327 . S
C1789 H1812 0.950 . S
C1790 C1789 1.349 . S
C1790 C1802 1.349 . S
C1791 C1789 1.327 . S
C1791 C1807 1.429 . S
C1791 H1813 0.950 . S
C1792 H1788 0.949 . S
C1792 C1800 1.574 . S
C1792 C1808 1.368 . S
H1793 C1801 0.950 . S
H1794 C1799 0.950 . S
H1795 C1800 0.949 . S
H1796 C1802 0.950 . S
H1797 C1803 0.950 . S
H1798 C1804 0.949 . S
C1799 H1794 0.950 . S
C1799 C1801 1.327 . S
C1799 C1805 1.429 . S
C1800 C1792 1.574 . S
C1800 H1795 0.949 . S
C1800 C1806 1.368 . S
C1801 C1785 1.349 . S
C1801 H1793 0.950 . S
C1801 C1799 1.327 . S
C1802 C1790 1.349 . S
C1802 H1796 0.950 . S
C1802 C1803 1.327 . S
C1803 H1797 0.950 . S
C1803 C1802 1.327 . S
C1803 C1807 1.429 . S
C1804 C1787 1.574 . S
C1804 H1798 0.949 . S
C1804 C1808 1.368 . S
C1805 C1786 1.429 . S
C1805 C1799 1.429 . S
C1805 C1806 1.523 . S
C1806 C1787 1.368 . S
C1806 C1800 1.368 . S
C1806 C1805 1.523 . S
C1807 C1791 1.429 . S
C1807 C1803 1.429 . S
C1807 C1808 1.523 . S
C1808 C1792 1.368 . S
C1808 C1804 1.368 . S
C1808 C1807 1.523 . S
H1809 C1784 0.950 . S
H1810 C1786 0.950 . S
H1811 C1787 0.949 . S
H1812 C1789 0.950 . S
H1813 C1791 0.950 . S
C1814 C1815 1.349 . S
C1814 C1816 1.327 . S
C1814 H1839 0.950 . S
C1815 C1814 1.349 . S
C1815 C1831 1.349 . S
C1816 C1814 1.327 . S
C1816 C1835 1.429 . S
C1816 H1840 0.950 . S
C1817 C1834 1.574 . S
C1817 C1836 1.368 . S
C1817 H1841 0.949 . S
H1818 C1822 0.949 . S
C1819 C1820 1.349 . S
C1819 C1821 1.327 . S
C1819 H1842 0.950 . S
C1820 C1819 1.349 . S
C1820 C1832 1.349 . S
C1821 C1819 1.327 . S
C1821 C1837 1.429 . S
C1821 H1843 0.950 . S
C1822 H1818 0.949 . S
C1822 C1830 1.574 . S
C1822 C1838 1.368 . S
H1823 C1831 0.950 . S
H1824 C1829 0.950 . S
H1825 C1830 0.949 . S
H1826 C1832 0.950 . S
H1827 C1833 0.950 . S
H1828 C1834 0.949 . S
C1829 H1824 0.950 . S
C1829 C1831 1.327 . S
C1829 C1835 1.429 . S
C1830 C1822 1.574 . S
C1830 H1825 0.949 . S
C1830 C1836 1.368 . S
C1831 C1815 1.349 . S
C1831 H1823 0.950 . S
C1831 C1829 1.327 . S
C1832 C1820 1.349 . S
C1832 H1826 0.950 . S
C1832 C1833 1.327 . S
C1833 H1827 0.950 . S
C1833 C1832 1.327 . S
C1833 C1837 1.429 . S
C1834 C1817 1.574 . S
C1834 H1828 0.949 . S
C1834 C1838 1.368 . S
C1835 C1816 1.429 . S
C1835 C1829 1.429 . S
C1835 C1836 1.523 . S
C1836 C1817 1.368 . S
C1836 C1830 1.368 . S
C1836 C1835 1.523 . S
C1837 C1821 1.429 . S
C1837 C1833 1.429 . S
C1837 C1838 1.523 . S
C1838 C1822 1.368 . S
C1838 C1834 1.368 . S
C1838 C1837 1.523 . S
H1839 C1814 0.950 . S
H1840 C1816 0.950 . S
H1841 C1817 0.949 . S
H1842 C1819 0.950 . S
H1843 C1821 0.950 . S
C1844 C1845 1.349 . S
C1844 C1846 1.327 . S
C1844 H1869 0.950 . S
C1845 C1844 1.349 . S
C1845 C1861 1.349 . S
C1846 C1844 1.327 . S
C1846 C1865 1.429 . S
C1846 H1870 0.950 . S
C1847 C1864 1.574 . S
C1847 C1866 1.368 . S
C1847 H1871 0.949 . S
H1848 C1852 0.949 . S
C1849 C1850 1.349 1_455 S
C1849 C1851 1.327 1_455 S
C1849 H1872 0.950 . S
C1850 C1849 1.349 1_655 S
C1850 C1862 1.349 . S
C1851 C1849 1.327 1_655 S
C1851 C1867 1.429 . S
C1851 H1873 0.932 1_655 S
C1852 H1848 0.949 . S
C1852 C1860 1.574 . S
C1852 C1868 1.368 . S
H1853 C1861 0.950 . S
H1854 C1859 0.950 . S
H1855 C1860 0.949 . S
H1856 C1862 0.950 . S
H1857 C1863 0.950 . S
H1858 C1864 0.949 . S
C1859 H1854 0.950 . S
C1859 C1861 1.327 . S
C1859 C1865 1.429 . S
C1860 C1852 1.574 . S
C1860 H1855 0.949 . S
C1860 C1866 1.368 . S
C1861 C1845 1.349 . S
C1861 H1853 0.950 . S
C1861 C1859 1.327 . S
C1862 C1850 1.349 . S
C1862 H1856 0.950 . S
C1862 C1863 1.327 . S
C1863 H1857 0.950 . S
C1863 C1862 1.327 . S
C1863 C1867 1.429 . S
C1864 C1847 1.574 . S
C1864 H1858 0.949 . S
C1864 C1868 1.368 . S
C1865 C1846 1.429 . S
C1865 C1859 1.429 . S
C1865 C1866 1.523 . S
C1866 C1847 1.368 . S
C1866 C1860 1.368 . S
C1866 C1865 1.523 . S
C1867 C1851 1.429 . S
C1867 C1863 1.429 . S
C1867 C1868 1.523 . S
C1868 C1852 1.368 . S
C1868 C1864 1.368 . S
C1868 C1867 1.523 . S
H1869 C1844 0.950 . S
H1870 C1846 0.950 . S
H1871 C1847 0.949 . S
H1872 C1849 0.950 . S
H1873 C1851 0.932 1_455 S
C1874 C1875 1.349 . S
C1874 C1876 1.327 . S
C1874 H1899 0.950 . S
C1875 C1874 1.349 . S
C1875 C1891 1.349 . S
C1876 C1874 1.327 . S
C1876 C1895 1.429 . S
C1876 H1900 0.950 . S
C1877 C1894 1.574 . S
C1877 C1896 1.368 . S
C1877 H1901 0.949 . S
H1878 C1882 0.949 . S
C1879 C1880 1.349 . S
C1879 C1881 1.327 . S
C1879 H1902 0.950 1_565 S
C1880 C1879 1.349 . S
C1880 C1892 1.349 . S
C1881 C1879 1.327 . S
C1881 C1897 1.429 . S
C1881 H1903 0.950 . S
C1882 H1878 0.949 . S
C1882 C1890 1.574 . S
C1882 C1898 1.368 . S
H1883 C1891 0.950 . S
H1884 C1889 0.950 . S
H1885 C1890 0.949 . S
H1886 C1892 0.950 . S
H1887 C1893 0.950 . S
H1888 C1894 0.949 . S
C1889 H1884 0.950 . S
C1889 C1891 1.327 . S
C1889 C1895 1.429 . S
C1890 C1882 1.574 . S
C1890 H1885 0.949 . S
C1890 C1896 1.368 . S
C1891 C1875 1.349 . S
C1891 H1883 0.950 . S
C1891 C1889 1.327 . S
C1892 C1880 1.349 . S
C1892 H1886 0.950 . S
C1892 C1893 1.327 . S
C1893 H1887 0.950 . S
C1893 C1892 1.327 . S
C1893 C1897 1.429 . S
C1894 C1877 1.574 . S
C1894 H1888 0.949 . S
C1894 C1898 1.368 . S
C1895 C1876 1.429 . S
C1895 C1889 1.429 . S
C1895 C1896 1.523 . S
C1896 C1877 1.368 . S
C1896 C1890 1.368 . S
C1896 C1895 1.523 . S
C1897 C1881 1.429 . S
C1897 C1893 1.429 . S
C1897 C1898 1.523 . S
C1898 C1882 1.368 . S
C1898 C1894 1.368 . S
C1898 C1897 1.523 . S
H1899 C1874 0.950 . S
H1900 C1876 0.950 . S
H1901 C1877 0.949 . S
H1902 C1879 0.950 1_545 S
H1903 C1881 0.950 . S
C1904 C1905 1.349 . S
C1904 C1906 1.327 . S
C1904 H1929 0.950 . S
C1905 C1904 1.349 . S
C1905 C1921 1.349 . S
C1906 C1904 1.327 . S
C1906 C1925 1.429 . S
C1906 H1930 0.950 . S
C1907 C1924 1.574 . S
C1907 C1926 1.368 . S
C1907 H1931 0.949 . S
H1908 C1912 0.949 . S
C1909 C1910 1.349 . S
C1909 C1911 1.327 . S
C1909 H1932 0.950 . S
C1910 C1909 1.349 . S
C1910 C1922 1.349 . S
C1911 C1909 1.327 . S
C1911 C1927 1.429 . S
C1911 H1933 0.950 . S
C1912 H1908 0.949 . S
C1912 C1920 1.574 . S
C1912 C1928 1.368 . S
H1913 C1921 0.950 . S
H1914 C1919 0.950 . S
H1915 C1920 0.949 . S
H1916 C1922 0.950 . S
H1917 C1923 0.950 . S
H1918 C1924 0.949 . S
C1919 H1914 0.950 . S
C1919 C1921 1.327 . S
C1919 C1925 1.429 . S
C1920 C1912 1.574 . S
C1920 H1915 0.949 . S
C1920 C1926 1.368 . S
C1921 C1905 1.349 . S
C1921 H1913 0.950 . S
C1921 C1919 1.327 . S
C1922 C1910 1.349 . S
C1922 H1916 0.950 . S
C1922 C1923 1.327 . S
C1923 H1917 0.950 . S
C1923 C1922 1.327 . S
C1923 C1927 1.429 . S
C1924 C1907 1.574 . S
C1924 H1918 0.949 . S
C1924 C1928 1.368 . S
C1925 C1906 1.429 . S
C1925 C1919 1.429 . S
C1925 C1926 1.523 . S
C1926 C1907 1.368 . S
C1926 C1920 1.368 . S
C1926 C1925 1.523 . S
C1927 C1911 1.429 . S
C1927 C1923 1.429 . S
C1927 C1928 1.523 . S
C1928 C1912 1.368 . S
C1928 C1924 1.368 . S
C1928 C1927 1.523 . S
H1929 C1904 0.950 . S
H1930 C1906 0.950 . S
H1931 C1907 0.949 . S
H1932 C1909 0.950 . S
H1933 C1911 0.950 . S
C1934 C1935 1.349 . S
C1934 C1936 1.327 . S
C1934 H1959 0.950 . S
C1935 C1934 1.349 . S
C1935 C1951 1.349 . S
C1936 C1934 1.327 . S
C1936 C1955 1.429 . S
C1936 H1960 0.950 . S
C1937 C1954 1.574 . S
C1937 C1956 1.368 . S
C1937 H1961 0.949 . S
H1938 C1942 0.949 . S
C1939 C1940 1.349 . S
C1939 C1941 1.327 . S
C1939 H1962 0.950 . S
C1940 C1939 1.349 . S
C1940 C1952 1.349 . S
C1941 C1939 1.327 . S
C1941 C1957 1.429 . S
C1941 H1963 0.950 . S
C1942 H1938 0.949 . S
C1942 C1950 1.574 . S
C1942 C1958 1.368 . S
H1943 C1951 0.950 . S
H1944 C1949 0.950 . S
H1945 C1950 0.949 . S
H1946 C1952 0.950 . S
H1947 C1953 0.950 . S
H1948 C1954 0.949 . S
C1949 H1944 0.950 . S
C1949 C1951 1.327 . S
C1949 C1955 1.429 . S
C1950 C1942 1.574 . S
C1950 H1945 0.949 . S
C1950 C1956 1.368 . S
C1951 C1935 1.349 . S
C1951 H1943 0.950 . S
C1951 C1949 1.327 . S
C1952 C1940 1.349 . S
C1952 H1946 0.950 . S
C1952 C1953 1.327 . S
C1953 H1947 0.950 . S
C1953 C1952 1.327 . S
C1953 C1957 1.429 . S
C1954 C1937 1.574 . S
C1954 H1948 0.949 . S
C1954 C1958 1.368 . S
C1955 C1936 1.429 . S
C1955 C1949 1.429 . S
C1955 C1956 1.523 . S
C1956 C1937 1.368 . S
C1956 C1950 1.368 . S
C1956 C1955 1.523 . S
C1957 C1941 1.429 . S
C1957 C1953 1.429 . S
C1957 C1958 1.523 . S
C1958 C1942 1.368 . S
C1958 C1954 1.368 . S
C1958 C1957 1.523 . S
H1959 C1934 0.950 . S
H1960 C1936 0.950 . S
H1961 C1937 0.949 . S
H1962 C1939 0.950 . S
H1963 C1941 0.950 . S
C1964 C1965 1.349 . S
C1964 C1966 1.327 . S
C1964 H1989 0.950 . S
C1965 C1964 1.349 . S
C1965 C1981 1.349 . S
C1966 C1964 1.327 . S
C1966 C1985 1.429 . S
C1966 H1990 0.950 . S
C1967 C1984 1.574 . S
C1967 C1986 1.368 . S
C1967 H1991 0.949 . S
H1968 C1972 0.949 . S
C1969 C1970 1.349 . S
C1969 C1971 1.327 . S
C1969 H1992 0.950 . S
C1970 C1969 1.349 . S
C1970 C1982 1.349 1_455 S
C1971 C1969 1.327 . S
C1971 C1987 1.429 . S
C1971 H1993 0.950 . S
C1972 H1968 0.949 . S
C1972 C1980 1.574 . S
C1972 C1988 1.368 . S
H1973 C1981 0.950 . S
H1974 C1979 0.950 . S
H1975 C1980 0.949 . S
H1976 C1982 0.950 . S
H1977 C1983 0.950 . S
H1978 C1984 0.949 . S
C1979 H1974 0.950 . S
C1979 C1981 1.327 . S
C1979 C1985 1.429 . S
C1980 C1972 1.574 . S
C1980 H1975 0.949 . S
C1980 C1986 1.368 . S
C1981 C1965 1.349 . S
C1981 H1973 0.950 . S
C1981 C1979 1.327 . S
C1982 C1970 1.349 1_655 S
C1982 H1976 0.950 . S
C1982 C1983 1.327 1_655 S
C1983 H1977 0.950 . S
C1983 C1982 1.327 1_455 S
C1983 C1987 1.429 . S
C1984 C1967 1.574 . S
C1984 H1978 0.949 . S
C1984 C1988 1.368 . S
C1985 C1966 1.429 . S
C1985 C1979 1.429 . S
C1985 C1986 1.523 . S
C1986 C1967 1.368 . S
C1986 C1980 1.368 . S
C1986 C1985 1.523 . S
C1987 C1971 1.429 . S
C1987 C1983 1.429 . S
C1987 C1988 1.523 . S
C1988 C1972 1.368 . S
C1988 C1984 1.368 . S
C1988 C1987 1.523 . S
H1989 C1964 0.950 . S
H1990 C1966 0.950 . S
H1991 C1967 0.949 . S
H1992 C1969 0.950 . S
H1993 C1971 0.950 . S
C1994 C1995 1.349 . S
C1994 C1996 1.327 . S
C1994 H2019 0.950 1_545 S
C1995 C1994 1.349 . S
C1995 C2011 1.349 . S
C1996 C1994 1.327 . S
C1996 C2015 1.429 . S
C1996 H2020 0.950 . S
C1997 C2014 1.574 . S
C1997 C2016 1.368 . S
C1997 H2021 0.949 . S
H1998 C2002 0.949 . S
C1999 C2000 1.349 . S
C1999 C2001 1.327 . S
C1999 H2022 0.950 . S
C2000 C1999 1.349 . S
C2000 C2012 1.349 . S
C2001 C1999 1.327 . S
C2001 C2017 1.429 . S
C2001 H2023 0.950 . S
C2002 H1998 0.949 . S
C2002 C2010 1.574 . S
C2002 C2018 1.368 . S
H2003 C2011 0.950 . S
H2004 C2009 0.950 . S
H2005 C2010 0.949 . S
H2006 C2012 0.950 . S
H2007 C2013 0.950 . S
H2008 C2014 0.949 . S
C2009 H2004 0.950 . S
C2009 C2011 1.327 . S
C2009 C2015 1.429 . S
C2010 C2002 1.574 . S
C2010 H2005 0.949 . S
C2010 C2016 1.368 . S
C2011 C1995 1.349 . S
C2011 H2003 0.950 . S
C2011 C2009 1.327 . S
C2012 C2000 1.349 . S
C2012 H2006 0.950 . S
C2012 C2013 1.327 . S
C2013 H2007 0.950 . S
C2013 C2012 1.327 . S
C2013 C2017 1.429 . S
C2014 C1997 1.574 . S
C2014 H2008 0.949 . S
C2014 C2018 1.368 . S
C2015 C1996 1.429 . S
C2015 C2009 1.429 . S
C2015 C2016 1.523 . S
C2016 C1997 1.368 . S
C2016 C2010 1.368 . S
C2016 C2015 1.523 . S
C2017 C2001 1.429 . S
C2017 C2013 1.429 . S
C2017 C2018 1.523 . S
C2018 C2002 1.368 . S
C2018 C2014 1.368 . S
C2018 C2017 1.523 . S
H2019 C1994 0.950 1_565 S
H2020 C1996 0.950 . S
H2021 C1997 0.949 . S
H2022 C1999 0.950 . S
H2023 C2001 0.950 . S
C2024 C2025 1.349 . S
C2024 C2026 1.327 . S
C2024 H2049 0.950 . S
C2025 C2024 1.349 . S
C2025 C2041 1.349 . S
C2026 C2024 1.327 . S
C2026 C2045 1.429 . S
C2026 H2050 0.950 . S
C2027 C2044 1.574 . S
C2027 C2046 1.368 . S
C2027 H2051 0.949 . S
H2028 C2032 0.949 . S
C2029 C2030 1.349 . S
C2029 C2031 1.327 . S
C2029 H2052 0.950 . S
C2030 C2029 1.349 . S
C2030 C2042 1.349 . S
C2031 C2029 1.327 . S
C2031 C2047 1.429 . S
C2031 H2053 0.950 . S
C2032 H2028 0.949 . S
C2032 C2040 1.574 . S
C2032 C2048 1.368 . S
H2033 C2041 0.950 . S
H2034 C2039 0.950 . S
H2035 C2040 0.949 . S
H2036 C2042 0.950 . S
H2037 C2043 0.950 . S
H2038 C2044 0.949 . S
C2039 H2034 0.950 . S
C2039 C2041 1.327 . S
C2039 C2045 1.429 . S
C2040 C2032 1.574 . S
C2040 H2035 0.949 . S
C2040 C2046 1.368 . S
C2041 C2025 1.349 . S
C2041 H2033 0.950 . S
C2041 C2039 1.327 . S
C2042 C2030 1.349 . S
C2042 H2036 0.950 . S
C2042 C2043 1.327 . S
C2043 H2037 0.950 . S
C2043 C2042 1.327 . S
C2043 C2047 1.429 . S
C2044 C2027 1.574 . S
C2044 H2038 0.949 . S
C2044 C2048 1.368 . S
C2045 C2026 1.429 . S
C2045 C2039 1.429 . S
C2045 C2046 1.523 . S
C2046 C2027 1.368 . S
C2046 C2040 1.368 . S
C2046 C2045 1.523 . S
C2047 C2031 1.429 . S
C2047 C2043 1.429 . S
C2047 C2048 1.523 . S
C2048 C2032 1.368 . S
C2048 C2044 1.368 . S
C2048 C2047 1.523 . S
H2049 C2024 0.950 . S
H2050 C2026 0.950 . S
H2051 C2027 0.949 . S
H2052 C2029 0.950 . S
H2053 C2031 0.950 . S
C2054 C2055 1.349 . S
C2054 C2056 1.327 . S
C2054 H2079 0.950 . S
C2055 C2054 1.349 . S
C2055 C2071 1.349 . S
C2056 C2054 1.327 . S
C2056 C2075 1.429 . S
C2056 H2080 0.950 . S
C2057 C2074 1.574 . S
C2057 C2076 1.368 . S
C2057 H2081 0.949 . S
H2058 C2062 0.949 . S
C2059 C2060 1.349 . S
C2059 C2061 1.327 . S
C2059 H2082 0.950 . S
C2060 C2059 1.349 . S
C2060 C2072 1.349 . S
C2061 C2059 1.327 . S
C2061 C2077 1.429 . S
C2061 H2083 0.950 . S
C2062 H2058 0.949 . S
C2062 C2070 1.574 . S
C2062 C2078 1.368 . S
H2063 C2071 0.950 . S
H2064 C2069 0.950 . S
H2065 C2070 0.949 . S
H2066 C2072 0.950 . S
H2067 C2073 0.950 . S
H2068 C2074 0.949 . S
C2069 H2064 0.950 . S
C2069 C2071 1.327 . S
C2069 C2075 1.429 . S
C2070 C2062 1.574 . S
C2070 H2065 0.949 . S
C2070 C2076 1.368 . S
C2071 C2055 1.349 . S
C2071 H2063 0.950 . S
C2071 C2069 1.327 . S
C2072 C2060 1.349 . S
C2072 H2066 0.950 . S
C2072 C2073 1.327 . S
C2073 H2067 0.950 . S
C2073 C2072 1.327 . S
C2073 C2077 1.429 . S
C2074 C2057 1.574 . S
C2074 H2068 0.949 . S
C2074 C2078 1.368 . S
C2075 C2056 1.429 . S
C2075 C2069 1.429 . S
C2075 C2076 1.523 . S
C2076 C2057 1.368 . S
C2076 C2070 1.368 . S
C2076 C2075 1.523 . S
C2077 C2061 1.429 . S
C2077 C2073 1.429 . S
C2077 C2078 1.523 . S
C2078 C2062 1.368 . S
C2078 C2074 1.368 . S
C2078 C2077 1.523 . S
H2079 C2054 0.950 . S
H2080 C2056 0.950 . S
H2081 C2057 0.949 . S
H2082 C2059 0.950 . S
H2083 C2061 0.950 . S
C2084 C2085 1.349 . S
C2084 C2086 1.327 . S
C2084 H2109 0.950 . S
C2085 C2084 1.349 . S
C2085 C2101 1.349 . S
C2086 C2084 1.327 . S
C2086 C2105 1.429 . S
C2086 H2110 0.950 . S
C2087 C2104 1.574 . S
C2087 C2106 1.368 . S
C2087 H2111 0.949 . S
H2088 C2092 0.949 . S
C2089 C2090 1.349 . S
C2089 C2091 1.327 . S
C2089 H2112 0.950 . S
C2090 C2089 1.349 . S
C2090 C2102 1.349 . S
C2091 C2089 1.327 . S
C2091 C2107 1.429 . S
C2091 H2113 0.950 . S
C2092 H2088 0.949 . S
C2092 C2100 1.574 . S
C2092 C2108 1.368 . S
H2093 C2101 0.950 1_655 S
H2094 C2099 0.950 . S
H2095 C2100 0.949 . S
H2096 C2102 0.950 . S
H2097 C2103 0.950 . S
H2098 C2104 0.949 . S
C2099 H2094 0.950 . S
C2099 C2101 1.327 . S
C2099 C2105 1.429 . S
C2100 C2092 1.574 . S
C2100 H2095 0.949 . S
C2100 C2106 1.368 . S
C2101 C2085 1.349 . S
C2101 H2093 0.950 1_455 S
C2101 C2099 1.327 . S
C2102 C2090 1.349 . S
C2102 H2096 0.950 . S
C2102 C2103 1.327 . S
C2103 H2097 0.950 . S
C2103 C2102 1.327 . S
C2103 C2107 1.429 . S
C2104 C2087 1.574 . S
C2104 H2098 0.949 . S
C2104 C2108 1.368 . S
C2105 C2086 1.429 . S
C2105 C2099 1.429 . S
C2105 C2106 1.523 . S
C2106 C2087 1.368 . S
C2106 C2100 1.368 . S
C2106 C2105 1.523 . S
C2107 C2091 1.429 . S
C2107 C2103 1.429 . S
C2107 C2108 1.523 . S
C2108 C2092 1.368 . S
C2108 C2104 1.368 . S
C2108 C2107 1.523 . S
H2109 C2084 0.950 . S
H2110 C2086 0.950 . S
H2111 C2087 0.949 . S
H2112 C2089 0.950 . S
H2113 C2091 0.950 . S
C2114 C2115 1.349 . S
C2114 C2116 1.327 . S
C2114 H2139 0.950 . S
C2115 C2114 1.349 . S
C2115 C2131 1.349 . S
C2116 C2114 1.327 . S
C2116 C2135 1.429 . S
C2116 H2140 0.950 . S
C2117 C2134 1.574 . S
C2117 C2136 1.368 . S
C2117 H2141 0.949 . S
H2118 C2122 0.949 . S
C2119 C2120 1.349 . S
C2119 C2121 1.327 . S
C2119 H2142 0.950 . S
C2120 C2119 1.349 . S
C2120 C2132 1.349 . S
C2121 C2119 1.327 . S
C2121 C2137 1.429 . S
C2121 H2143 0.950 . S
C2122 H2118 0.949 . S
C2122 C2130 1.574 . S
C2122 C2138 1.368 . S
H2123 C2131 0.950 1_565 S
H2124 C2129 0.950 . S
H2125 C2130 0.949 . S
H2126 C2132 0.950 . S
H2127 C2133 0.950 . S
H2128 C2134 0.949 . S
C2129 H2124 0.950 . S
C2129 C2131 1.327 . S
C2129 C2135 1.429 . S
C2130 C2122 1.574 . S
C2130 H2125 0.949 . S
C2130 C2136 1.368 . S
C2131 C2115 1.349 . S
C2131 H2123 0.950 1_545 S
C2131 C2129 1.327 . S
C2132 C2120 1.349 . S
C2132 H2126 0.950 . S
C2132 C2133 1.327 . S
C2133 H2127 0.950 . S
C2133 C2132 1.327 . S
C2133 C2137 1.429 . S
C2134 C2117 1.574 . S
C2134 H2128 0.949 . S
C2134 C2138 1.368 . S
C2135 C2116 1.429 . S
C2135 C2129 1.429 . S
C2135 C2136 1.523 . S
C2136 C2117 1.368 . S
C2136 C2130 1.368 . S
C2136 C2135 1.523 . S
C2137 C2121 1.429 . S
C2137 C2133 1.429 . S
C2137 C2138 1.523 . S
C2138 C2122 1.368 . S
C2138 C2134 1.368 . S
C2138 C2137 1.523 . S
H2139 C2114 0.950 . S
H2140 C2116 0.950 . S
H2141 C2117 0.949 . S
H2142 C2119 0.950 . S
H2143 C2121 0.950 . S
C465 C79 1.225 . S
C470 C21 1.225 . S
C495 C108 1.225 . S
C500 C50 1.225 . S
C525 C137 1.225 . S
C530 C195 1.225 . S
C555 C166 1.225 . S
C560 C224 1.225 . S
C585 C253 1.225 . S
C590 C311 1.225 . S
C615 C282 1.225 . S
C620 C340 1.225 . S
C645 C427 1.225 . S
C650 C369 1.225 . S
C675 C456 1.225 . S
C680 C398 1.225 . S
C705 C3 0.773 . S
C710 C266 0.766 . S
C735 C295 0.766 . S
C740 C32 0.773 . S
C765 C61 0.773 . S
C770 C324 0.766 . S
C795 C237 0.766 . S
C800 C90 0.773 . S
C825 C119 0.773 . S
C830 C440 0.766 . S
C855 C148 0.773 . S
C860 C353 0.766 . S
C885 C177 0.773 . S
C890 C382 0.766 . S
C915 C206 0.773 . S
C920 C411 0.766 . S
C945 C235 0.773 . S
C950 C34 0.766 . S
C975 C63 0.766 . S
C980 C264 0.773 . S
C1005 C293 0.773 . S
C1010 C92 0.766 . S
C1035 C5 0.766 . S
C1040 C322 0.773 . S
C1065 C351 0.773 . S
C1070 C208 0.766 . S
C1095 C121 0.766 . S
C1100 C380 0.773 . S
C1125 C409 0.773 . S
C1130 C150 0.766 . S
C1155 C179 0.766 . S
C1160 C438 0.773 . S
C1185 C184 1.346 . S
C1190 C10 1.346 . S
C1215 C39 1.346 . S
C1220 C213 1.346 . S
C1245 C68 1.346 . S
C1250 C126 1.346 . S
C1275 C97 1.346 . S
C1280 C155 1.346 . S
C1305 C416 1.346 . S
C1310 C242 1.346 . S
C1335 C271 1.346 . S
C1340 C445 1.346 . S
C1365 C358 1.346 . S
C1370 C300 1.346 . S
C1395 C387 1.346 . S
C1400 C329 1.346 . S
C1425 C245 2.290 . S
C1430 C13 2.290 . S
C1455 C274 2.290 . S
C1460 C42 2.290 . S
C1485 C303 2.290 . S
C1490 C71 2.290 . S
C1515 C332 2.290 . S
C1520 C100 2.290 . S
C1545 C361 2.290 . S
C1550 C129 2.290 . S
C1575 C158 2.290 . S
C1580 C390 2.290 . S
C1605 C187 2.290 . S
C1610 C419 2.290 . S
C1635 C216 2.290 . S
C1640 C448 2.290 . S
C1665 C37 2.015 . S
C1670 C15 2.176 . S
C1695 C66 2.015 . S
C1700 C44 2.176 . S
C1725 C95 2.015 1_655 S
C1730 C73 2.176 . S
C1755 C8 2.015 1_565 S
C1760 C102 2.176 . S
C1785 C131 2.176 . S
C1790 C211 2.015 . S
C1815 C160 2.176 . S
C1820 C124 2.015 . S
C1845 C189 2.176 . S
C1850 C153 2.015 1_655 S
C1875 C218 2.176 . S
C1880 C182 2.015 1_565 S
C1905 C247 2.176 . S
C1910 C269 2.015 . S
C1935 C276 2.176 . S
C1940 C298 2.015 . S
C1965 C305 2.176 . S
C1970 C327 2.015 1_455 S
C1995 C240 2.015 1_545 S
C2000 C334 2.176 . S
C2025 C443 2.015 . S
C2030 C363 2.176 . S
C2055 C392 2.176 . S
C2060 C356 2.015 . S
C2085 C385 2.015 1_455 S
C2090 C421 2.176 . S
C2115 C414 2.015 1_545 S
C2120 C450 2.176 . S
