# Generated by pormake.
# Topology kag, (6)-cn, num edge types: 1
# Building blocks:
#     Node 0, Type 0, BuildingBlock: NUHQIS_clean_sbu_0, # of connection points: 6
#     Node 1, Type 0, BuildingBlock: NUHQIS_clean_sbu_0, # of connection points: 6
#     Node 2, Type 0, BuildingBlock: NUHQIS_clean_sbu_0, # of connection points: 6
#     Edge 3, Type (0, 0), BuildingBlock: TEMPAE_clean_linker_10, # of connection points: 2
#     Edge 4, Type (0, 0), BuildingBlock: TEMPAE_clean_linker_10, # of connection points: 2
#     Edge 5, Type (0, 0), BuildingBlock: TEMPAE_clean_linker_10, # of connection points: 2
#     Edge 6, Type (0, 0), BuildingBlock: TEMPAE_clean_linker_10, # of connection points: 2
#     Edge 7, Type (0, 0), BuildingBlock: TEMPAE_clean_linker_10, # of connection points: 2
#     Edge 8, Type (0, 0), BuildingBlock: TEMPAE_clean_linker_10, # of connection points: 2
#     Edge 9, Type (0, 0), BuildingBlock: TEMPAE_clean_linker_10, # of connection points: 2
#     Edge 10, Type (0, 0), BuildingBlock: TEMPAE_clean_linker_10, # of connection points: 2
#     Edge 11, Type (0, 0), BuildingBlock: TEMPAE_clean_linker_10, # of connection points: 2
# Relax obj value: 0.077
# Max RMSD: 0.191
# Mean RMSD: 0.109
data_MOF--net-kag--node1-NUHQIS_clean_sbu_0--edge1-TEMPAE_clean_linker_10
_symmetry_space_group_name_H-M    P1
_symmetry_Int_Tables_number       1
_symmetry_cell_setting            triclinic
loop_
_symmetry_equiv_pos_as_xyz
'x, y, z'
_cell_length_a     49.887407
_cell_length_b     31.471788
_cell_length_c     15.439956
_cell_angle_alpha  88.121572
_cell_angle_beta   95.840102
_cell_angle_gamma 121.92144
loop_
_atom_site_label
_atom_site_type_symbol
_atom_site_fract_x
_atom_site_fract_y
_atom_site_fract_z
_atom_type_partial_charge
Tb0 Tb 0.04115 0.49894 0.98373 0.0
Eu1 Eu 1.02877 0.59132 0.9715 0.0
C2 C 1.03521 0.54508 0.15117 0.0
C3 C 0.97108 0.47567 0.97585 0.0
C4 C 0.08735 0.4395 0.98519 0.0
C5 C 0.12582 0.41712 0.03712 0.0
C6 C 0.09572 0.41024 0.03745 0.0
C7 C 0.10955 0.47589 0.93272 0.0
C8 C 0.13948 0.48252 0.93182 0.0
C9 C 0.14809 0.45333 0.98415 0.0
C10 C 0.05618 0.43381 -0.01139 0.0
O11 O 1.02415 0.50271 0.84944 0.0
O12 O 0.0464 0.58691 0.84637 0.0
O13 O 0.08154 0.62864 0.00793 0.0
O14 O 0.08728 0.56511 0.96278 0.0
C15 C 0.03568 0.54426 0.8058 0.0
O16 O 1.01125 0.63163 0.8919 0.0
O17 O 1.02916 0.65457 0.02698 0.0
O18 O 1.01802 0.55927 0.10445 0.0
O19 O 0.05263 0.53255 0.11391 0.0
O20 O 0.99112 0.46231 0.00697 0.0
O21 O 0.98107 0.52007 0.94274 0.0
C22 C 0.09948 0.6119 -0.01162 0.0
O23 O 0.05299 0.45261 0.05778 0.0
O24 O 0.04476 0.44505 0.91821 0.0
C25 C 0.98396 0.65611 0.97059 0.0
C26 C 0.92441 0.64469 0.98042 0.0
C27 C 0.94766 0.68468 0.93503 0.0
C28 C 0.97719 0.6903 0.93019 0.0
C29 C 0.96102 0.61641 0.01656 0.0
C30 C 0.93156 0.61086 0.02177 0.0
C31 C 1.01351 0.6588 0.95748 0.0
H32 H 0.13179 0.39457 0.07941 0.0
H33 H 0.0791 0.38246 0.07925 0.0
H34 H 0.10383 0.4994 0.89239 0.0
H35 H 0.15574 0.51029 0.88936 0.0
H36 H 0.94275 0.71091 0.90126 0.0
H37 H 0.99445 0.7206 0.89315 0.0
H38 H 0.96571 0.58917 0.04712 0.0
H39 H 0.91438 0.58 0.05805 0.0
Tb40 Tb 0.57463 0.08067 -0.00886 0.0
Eu41 Eu 0.49545 1.02041 0.97252 0.0
C42 C 0.53698 0.04983 0.15627 0.0
C43 C 0.53244 0.96066 0.98766 0.0
C44 C 0.66708 0.16938 0.0044 0.0
C45 C 0.72111 0.20971 0.07662 0.0
C46 C 0.68859 0.17324 0.07477 0.0
C47 C 0.67881 0.20429 0.93756 0.0
C48 C 0.71131 0.24055 0.9392 0.0
C49 C 0.73306 0.24295 0.00755 0.0
C50 C 0.63449 0.12378 -0.00707 0.0
O51 O 0.55525 1.046 0.86188 0.0
O52 O 0.51363 0.05684 0.84591 0.0
O53 O 0.51319 0.10109 0.00544 0.0
O54 O 0.56454 0.14063 0.96796 0.0
C55 C 0.53501 0.05252 0.81148 0.0
O56 O 0.45008 0.97578 0.89218 0.0
O57 O 0.45087 1.00028 0.02289 0.0
O58 O 0.51207 1.01336 0.11033 0.0
O59 O 0.56106 0.08621 0.11851 0.0
O60 O 0.55875 1.00213 0.01789 0.0
O61 O 0.50691 0.96057 0.95519 0.0
C62 C 0.53987 0.14197 -0.01161 0.0
O63 O 0.6191 0.10224 0.0605 0.0
O64 O 0.61549 0.12049 0.92543 0.0
C65 C 0.40094 0.93228 0.95767 0.0
C66 C 0.33659 0.85531 0.97006 0.0
C67 C 0.34551 0.88657 0.8976 0.0
C68 C 0.37719 0.9243 0.89151 0.0
C69 C 0.39248 0.90098 0.02986 0.0
C70 C 0.36063 0.86277 0.03585 0.0
C71 C 0.43341 0.97617 0.95167 0.0
H72 H 0.7371 0.21011 0.13004 0.0
H73 H 0.68052 0.14639 0.12643 0.0
H74 H 0.66314 0.20227 0.88172 0.0
H75 H 0.71952 0.26599 0.88557 0.0
H76 H 0.32787 0.88301 0.84639 0.0
H77 H 0.38305 0.94836 0.83573 0.0
H78 H 0.41034 0.90646 0.08204 0.0
H79 H 0.35486 0.83919 0.09215 0.0
Tb80 Tb 0.49947 0.51863 -0.00585 0.0
Eu81 Eu 0.57662 0.58704 0.01523 0.0
C82 C 0.53735 0.55142 0.83104 0.0
C83 C 0.53931 0.46599 0.0032 0.0
C84 C 0.41316 0.47633 0.97157 0.0
C85 C 0.35859 0.44673 0.91666 0.0
C86 C 0.38509 0.44219 0.92115 0.0
C87 C 0.41478 0.51629 0.01513 0.0
C88 C 0.38817 0.52056 0.01137 0.0
C89 C 0.35966 0.48533 0.96323 0.0
C90 C 0.43947 0.46745 0.98298 0.0
O91 O 0.51663 0.5131 0.12711 0.0
O92 O 0.55881 0.59265 0.13952 0.0
O93 O 0.56054 0.64081 0.97747 0.0
O94 O 0.51006 0.59466 0.01966 0.0
C95 C 0.5371 0.55263 0.17575 0.0
O96 O 0.6208 0.61426 0.09863 0.0
O97 O 0.62197 0.64053 0.96646 0.0
O98 O 0.56145 0.5542 0.87919 0.0
O99 O 0.5143 0.55035 0.86737 0.0
O100 O 0.51358 0.46507 0.96979 0.0
O101 O 0.56438 0.50738 0.03796 0.0
C102 C 0.53441 0.63751 -0.00326 0.0
O103 O 0.45579 0.47607 0.91686 0.0
O104 O 0.45769 0.48382 0.05593 0.0
C105 C 0.66533 0.63445 0.02721 0.0
C106 C 0.7171 0.62316 0.01374 0.0
C107 C 0.71901 0.65652 0.07596 0.0
C108 C 0.69335 0.66212 0.08249 0.0
C109 C 0.66313 0.60083 0.96516 0.0
C110 C 0.68895 0.59545 0.95813 0.0
C111 C 0.63855 0.64035 0.03746 0.0
H112 H 0.33686 0.41884 0.8796 0.0
H113 H 0.38336 0.4111 0.88722 0.0
H114 H 0.4363 0.54341 0.05394 0.0
H115 H 0.38974 0.55098 0.04707 0.0
H116 H 0.74054 0.67884 0.11886 0.0
H117 H 0.69537 0.68809 0.13092 0.0
H118 H 0.6415 0.57871 0.92252 0.0
H119 H 0.68679 0.56924 0.91003 0.0
C120 C 1.01928 0.49756 0.66257 0.0
C121 C 0.03586 0.54313 0.70996 0.0
C122 C 1.01887 0.49638 0.5715 0.0
C123 C 0.03573 0.54181 0.52696 0.0
C124 C 0.05284 0.58785 0.5746 0.0
C125 C 0.05257 0.58797 0.66537 0.0
C126 C 1.00012 0.44658 0.52284 0.0
C127 C 0.07139 0.63706 0.52963 0.0
C128 C 0.05796 0.53866 0.29985 0.0
C129 C 1.03522 0.54375 0.24722 0.0
C130 C 0.05833 0.53776 0.39097 0.0
C131 C 1.03519 0.54142 0.43036 0.0
C132 C 1.01193 0.54592 0.37753 0.0
C133 C 1.01234 0.54732 0.28668 0.0
C134 C 0.08373 0.53348 0.44516 0.0
C135 C 0.98666 0.54941 0.41702 0.0
H136 H 1.00626 0.46276 0.69647 0.0
H137 H 0.06563 0.62336 0.70147 0.0
H138 H 0.98164 0.44594 0.4754 0.0
H139 H 1.01595 0.4412 0.4852 0.0
H140 H 0.98842 0.41463 0.56709 0.0
H141 H 0.0841 0.66949 0.57631 0.0
H142 H 0.089 0.63664 0.49178 0.0
H143 H 0.05514 0.64259 0.48283 0.0
H144 H 0.07577 0.53599 0.26992 0.0
H145 H 0.99453 0.55088 0.24651 0.0
H146 H 0.07267 0.50011 0.48654 0.0
H147 H 0.09814 0.56674 0.48944 0.0
H148 H 0.09981 0.53046 0.4045 0.0
H149 H 0.97319 0.51654 0.45801 0.0
H150 H 0.96969 0.55119 0.36678 0.0
H151 H 0.99787 0.5833 0.46 0.0
C152 C 0.55955 0.09383 0.30235 0.0
C153 C 0.53737 0.05057 0.25261 0.0
C154 C 0.55953 0.0953 0.3933 0.0
C155 C 0.53704 0.0523 0.43582 0.0
C156 C 0.51481 1.00838 0.38609 0.0
C157 C 0.51512 1.00814 0.2952 0.0
C158 C 0.58345 0.143 0.44386 0.0
C159 C 0.49068 0.96154 0.42893 0.0
C160 C 0.55486 1.03987 0.67781 0.0
C161 C 0.53561 0.05286 0.71543 0.0
C162 C 0.55556 1.03957 0.58708 0.0
C163 C 0.53681 0.05308 0.53239 0.0
C164 C 0.51755 0.06668 0.56994 0.0
C165 C 0.51706 0.06617 0.66091 0.0
C166 C 0.57619 1.02436 0.5497 0.0
C167 C 0.49743 0.08176 0.51397 0.0
H168 H 0.57673 0.1269 0.27011 0.0
H169 H 0.49797 0.97444 0.25753 0.0
H170 H 0.57098 0.15626 0.47992 0.0
H171 H 0.59841 0.13584 0.49279 0.0
H172 H 0.59916 0.17332 0.40108 0.0
H173 H 0.47527 0.93029 0.3812 0.0
H174 H 0.50294 0.94921 0.47775 0.0
H175 H 0.47543 0.96945 0.46417 0.0
H176 H 0.56924 1.02942 0.71925 0.0
H177 H 0.50223 0.07651 0.68931 0.0
H178 H 0.59358 0.05514 0.51082 0.0
H179 H 0.56135 0.99137 0.50507 0.0
H180 H 0.58936 1.01489 0.60103 0.0
H181 H 0.51261 0.11392 0.47355 0.0
H182 H 0.4843 0.09238 0.55326 0.0
H183 H 0.48003 0.05041 0.46875 0.0
C184 C 0.55762 0.54258 0.69509 0.0
C185 C 0.53651 0.55057 0.73475 0.0
C186 C 0.55721 0.54176 0.60405 0.0
C187 C 0.53538 0.54967 0.55123 0.0
C188 C 0.51398 0.55772 0.5908 0.0
C189 C 0.51467 0.55778 0.68203 0.0
C190 C 0.5802 0.53255 0.56438 0.0
C191 C 0.49058 0.5668 0.53678 0.0
C192 C 0.55568 0.59583 0.32232 0.0
C193 C 0.5363 0.55177 0.27162 0.0
C194 C 0.55536 0.59574 0.41317 0.0
C195 C 0.53537 0.55041 0.45462 0.0
C196 C 0.51571 0.50581 0.40387 0.0
C197 C 0.5163 0.50706 0.31296 0.0
C198 C 0.57648 0.64418 0.46484 0.0
C199 C 0.49425 0.45666 0.44571 0.0
H200 H 0.57444 0.53664 0.73522 0.0
H201 H 0.49833 0.56412 0.71206 0.0
H202 H 0.56703 0.49968 0.51885 0.0
H203 H 0.59603 0.56528 0.52602 0.0
H204 H 0.5951 0.52577 0.61438 0.0
H205 H 0.4754 0.57213 0.57746 0.0
H206 H 0.50348 0.60058 0.49722 0.0
H207 H 0.47505 0.53475 0.49078 0.0
H208 H 0.5711 0.63062 0.29099 0.0
H209 H 0.50128 0.47283 0.27437 0.0
H210 H 0.59349 0.64065 0.51199 0.0
H211 H 0.56198 0.65238 0.503 0.0
H212 H 0.59012 0.67642 0.42262 0.0
H213 H 0.50858 0.44721 0.4927 0.0
H214 H 0.48035 0.42536 0.39712 0.0
H215 H 0.47749 0.45991 0.4829 0.0
C216 C 0.18385 0.4194 0.98721 0.0
C217 C 0.18011 0.46062 0.983 0.0
C218 C 0.2138 0.42569 0.98485 0.0
C219 C 0.24068 0.47433 0.97721 0.0
C220 C 0.23716 0.51612 0.97311 0.0
C221 C 0.20698 0.50877 0.9764 0.0
C222 C 0.21663 0.38019 -0.0101 0.0
C223 C 0.26523 0.56858 0.96473 0.0
C224 C 0.32132 0.49191 0.04572 0.0
C225 C 0.33049 0.48677 0.96574 0.0
C226 C 0.29243 0.48897 0.05027 0.0
C227 C 0.2724 0.48119 0.97286 0.0
C228 C 0.28206 0.47769 0.89161 0.0
C229 C 0.31091 0.4802 0.88909 0.0
C230 C 0.28286 0.49247 0.13819 0.0
C231 C 0.26158 0.47021 0.80754 0.0
H232 H 0.16326 0.38197 -0.00916 0.0
H233 H 0.20451 0.54094 0.97422 0.0
H234 H 0.22562 0.37628 0.9297 0.0
H235 H 0.23402 0.3847 0.04532 0.0
H236 H 0.19359 0.34513 -0.00184 0.0
H237 H 0.25848 0.59709 0.96262 0.0
H238 H 0.28353 0.57796 0.02037 0.0
H239 H 0.27629 0.57097 0.9045 0.0
H240 H 0.33624 0.49642 0.10521 0.0
H241 H 0.31812 0.47672 0.82711 0.0
H242 H 0.26116 0.4565 0.15172 0.0
H243 H 0.27704 0.52195 0.13851 0.0
H244 H 0.3018 0.501 0.19168 0.0
H245 H 0.23886 0.4336 0.8075 0.0
H246 H 0.27333 0.47114 0.74951 0.0
H247 H 0.2557 0.49967 0.80167 0.0
C248 C 0.78818 0.30425 0.07878 0.0
C249 C 0.76811 0.27779 0.00403 0.0
C250 C 0.82123 0.3363 0.076 0.0
C251 C 0.83477 0.34187 -0.00323 0.0
C252 C 0.81465 0.3151 0.92127 0.0
C253 C 0.78171 0.28364 0.92574 0.0
C254 C 0.84168 0.36443 0.15786 0.0
C255 C 0.82795 0.31955 0.83555 0.0
C256 C 0.9155 0.45841 0.964 0.0
C257 C 0.93622 0.44088 0.98058 0.0
C258 C 0.88266 0.42686 0.9698 0.0
C259 C 0.86987 0.37614 -0.00771 0.0
C260 C 0.89059 0.35811 0.00902 0.0
C261 C 0.92346 0.39067 0.0034 0.0
C262 C 0.86169 0.44805 0.9523 0.0
C263 C 0.87801 0.30427 0.03251 0.0
H264 H 0.77798 0.30036 0.13943 0.0
H265 H 0.7666 0.26279 0.86791 0.0
H266 H 0.86003 0.3549 0.17424 0.0
H267 H 0.85428 0.40533 0.14716 0.0
H268 H 0.82764 0.35586 0.21438 0.0
H269 H 0.80925 0.29585 0.78303 0.0
H270 H 0.84029 0.35907 0.81498 0.0
H271 H 0.84577 0.30845 0.84311 0.0
H272 H 0.92497 0.4972 0.94724 0.0
H273 H 0.93913 0.37663 0.01647 0.0
H274 H 0.85034 0.44596 0.0118 0.0
H275 H 0.84237 0.42559 0.90036 0.0
H276 H 0.87511 0.48766 0.93215 0.0
H277 H 0.86557 0.2955 0.09224 0.0
H278 H 0.89713 0.29599 0.04375 0.0
H279 H 0.8604 0.27898 0.97954 0.0
C280 C 0.55283 0.90638 0.04899 0.0
C281 C 0.53167 0.91235 -0.00971 0.0
C282 C 0.55252 0.86122 0.05178 0.0
C283 C 0.53106 0.82104 -0.00699 0.0
C284 C 0.50976 0.82698 0.93325 0.0
C285 C 0.51006 0.87212 0.93334 0.0
C286 C 0.57521 0.8565 0.11791 0.0
C287 C 0.48698 0.78589 0.86796 0.0
C288 C 0.55303 0.72491 0.94528 0.0
C289 C 0.53285 0.68382 -0.0056 0.0
C290 C 0.55228 0.76915 0.94308 0.0
C291 C 0.53137 0.77334 -0.00711 0.0
C292 C 0.51101 0.73204 0.04294 0.0
C293 C 0.51171 0.68773 0.04224 0.0
C294 C 0.5739 0.81145 0.88709 0.0
C295 C 0.48881 0.73494 0.09851 0.0
H296 H 0.5695 0.93694 0.09375 0.0
H297 H 0.49375 0.87627 0.88722 0.0
H298 H 0.56187 0.82317 0.15813 0.0
H299 H 0.59175 0.85091 0.08419 0.0
H300 H 0.58937 0.89009 0.16173 0.0
H301 H 0.47212 0.79631 0.82534 0.0
H302 H 0.50039 0.77706 0.82642 0.0
H303 H 0.47113 0.75123 0.90219 0.0
H304 H 0.56931 0.72235 0.9075 0.0
H305 H 0.49613 0.65647 0.08087 0.0
H306 H 0.59068 0.84516 0.92844 0.0
H307 H 0.55974 0.82158 0.84083 0.0
H308 H 0.58782 0.80169 0.84941 0.0
H309 H 0.5026 0.76664 0.1463 0.0
H310 H 0.47474 0.69997 0.13446 0.0
H311 H 0.4722 0.74229 0.05732 0.0
C312 C 0.88997 0.67956 -0.00598 0.0
C313 C 0.89269 0.63794 0.98362 0.0
C314 C 0.86023 0.67386 -0.00339 0.0
C315 C 0.83251 0.62531 -0.01056 0.0
C316 C 0.83502 0.58308 0.97909 0.0
C317 C 0.86508 0.58993 0.97592 0.0
C318 C 0.85849 0.71985 0.00765 0.0
C319 C 0.80601 0.53072 0.97158 0.0
C320 C 0.76169 0.6147 0.0815 0.0
C321 C 0.74481 0.61844 0.00636 0.0
C322 C 0.78963 0.61481 0.07652 0.0
C323 C 0.80104 0.61908 -0.00556 0.0
C324 C 0.78345 0.62091 0.91798 0.0
C325 C 0.75544 0.62042 0.92485 0.0
C326 C 0.80751 0.6121 0.1594 0.0
C327 C 0.79492 0.62559 0.82934 0.0
H328 H 0.91117 0.71669 0.00132 0.0
H329 H 0.8669 0.55763 0.96649 0.0
H330 H 0.84289 0.72171 0.95306 0.0
H331 H 0.8479 0.71765 0.06869 0.0
H332 H 0.8822 0.75501 0.00997 0.0
H333 H 0.81208 0.50183 0.96431 0.0
H334 H 0.79308 0.52256 0.03023 0.0
H335 H 0.78954 0.52757 0.91462 0.0
H336 H 0.75323 0.61235 0.14449 0.0
H337 H 0.74254 0.62361 0.8667 0.0
H338 H 0.83071 0.64786 0.17081 0.0
H339 H 0.81248 0.58194 0.15348 0.0
H340 H 0.79421 0.60507 0.2171 0.0
H341 H 0.81733 0.6623 0.82554 0.0
H342 H 0.77729 0.62266 0.77589 0.0
H343 H 0.80015 0.5961 0.8188 0.0
C344 C 0.14782 0.69878 0.98526 0.0
C345 C 0.13452 0.64696 -0.00809 0.0
C346 C 0.18083 0.7319 0.98445 0.0
C347 C 0.20123 0.71303 -0.00738 0.0
C348 C 0.18796 0.66087 0.00217 0.0
C349 C 0.15483 0.62849 0.00027 0.0
C350 C 0.1938 0.78705 0.97275 0.0
C351 C 0.20853 0.63874 0.0127 0.0
C352 C 0.28178 0.79043 0.90263 0.0
C353 C 0.30224 0.81645 0.97724 0.0
C354 C 0.24906 0.75663 0.90689 0.0
C355 C 0.23624 0.7477 0.98797 0.0
C356 C 0.25682 0.77245 0.06405 0.0
C357 C 0.28943 0.80665 0.05776 0.0
C358 C 0.22811 0.73093 0.82418 0.0
C359 C 0.2443 0.76303 0.15213 0.0
H360 H 0.13235 0.71339 0.97828 0.0
H361 H 0.14485 0.58855 0.00601 0.0
H362 H 0.21165 0.80906 0.02791 0.0
H363 H 0.20603 0.79945 0.91242 0.0
H364 H 0.17492 0.79593 0.96847 0.0
H365 H 0.19602 0.60124 0.0422 0.0
H366 H 0.2147 0.63454 0.9478 0.0
H367 H 0.23099 0.66331 0.05398 0.0
H368 H 0.29131 0.79655 0.84029 0.0
H369 H 0.30473 0.82663 0.11588 0.0
H370 H 0.20909 0.73943 0.81402 0.0
H371 H 0.21639 0.68975 0.82975 0.0
H372 H 0.24158 0.74262 0.76597 0.0
H373 H 0.22688 0.7747 0.15274 0.0
H374 H 0.26349 0.78356 0.20554 0.0
H375 H 0.23168 0.72237 0.16532 0.0
C376 C 0.56198 0.4136 0.05757 0.0
C377 C 0.5403 0.41923 0.00049 0.0
C378 C 0.56294 0.36955 0.05648 0.0
C379 C 0.54224 0.3302 -0.00457 0.0
C380 C 0.52068 0.33607 0.93661 0.0
C381 C 0.51973 0.38004 0.94051 0.0
C382 C 0.58579 0.36477 0.12184 0.0
C383 C 0.49857 0.29582 0.86926 0.0
C384 C 0.56277 0.23231 0.94504 0.0
C385 C 0.54159 0.19095 -0.0081 0.0
C386 C 0.56316 0.2776 0.94511 0.0
C387 C 0.54241 0.28238 -0.00514 0.0
C388 C 0.5215 0.24106 0.04377 0.0
C389 C 0.52111 0.19597 0.04093 0.0
C390 C 0.58542 0.3201 0.89059 0.0
C391 C 0.49944 0.2444 0.09935 0.0
H392 H 0.57792 0.44338 0.1045 0.0
H393 H 0.50306 0.38397 0.89552 0.0
H394 H 0.57247 0.33171 0.16263 0.0
H395 H 0.602 0.3586 0.08766 0.0
H396 H 0.60027 0.3985 0.16521 0.0
H397 H 0.48436 0.30697 0.8254 0.0
H398 H 0.51238 0.28706 0.82921 0.0
H399 H 0.48207 0.26092 0.90192 0.0
H400 H 0.57855 0.22891 0.90646 0.0
H401 H 0.50479 0.16456 0.07803 0.0
H402 H 0.60165 0.35382 0.93249 0.0
H403 H 0.57162 0.33009 0.84259 0.0
H404 H 0.59988 0.31055 0.85497 0.0
H405 H 0.51324 0.27657 0.1462 0.0
H406 H 0.48557 0.2098 0.13637 0.0
H407 H 0.48261 0.25111 0.05778 0.0
loop_
_geom_bond_atom_site_label_1
_geom_bond_atom_site_label_2
_geom_bond_distance
_geom_bond_site_symmetry_2
_ccdc_geom_bond_type
Tb0 C10 2.825 . S
Tb0 O11 2.347 1_554 S
Tb0 O14 2.366 . S
Tb0 O19 2.418 . S
Tb0 O20 2.384 1_455 S
Tb0 O23 2.479 . S
Tb0 O24 2.471 1_554 S
Eu1 O12 2.418 . S
Eu1 O13 2.384 1_655 S
Eu1 O16 2.479 . S
Eu1 O17 2.471 1_556 S
Eu1 O18 2.347 1_556 S
Eu1 O21 2.366 . S
Eu1 C31 2.825 . S
C2 O18 1.259 1_455 S
C2 O19 1.265 . S
C3 O20 1.255 1_556 S
C3 O21 1.265 . S
C4 C6 1.379 1_556 S
C4 C7 1.374 . S
C4 C10 1.507 1_556 S
C5 C6 1.384 . S
C5 C9 1.387 1_554 S
C5 H32 0.930 . S
C6 C4 1.379 1_554 S
C6 C5 1.384 . S
C6 H33 0.931 . S
C7 C4 1.374 . S
C7 C8 1.390 . S
C7 H34 0.930 . S
C8 C7 1.390 . S
C8 C9 1.391 . S
C8 H35 0.930 . S
C9 C5 1.387 1_556 S
C9 C8 1.391 . S
C10 Tb0 2.825 . S
C10 C4 1.507 1_554 S
C10 O23 1.238 . S
C10 O24 1.247 1_554 S
O11 Tb0 2.347 1_556 S
O11 C15 1.259 1_455 S
O12 Eu1 2.418 . S
O12 C15 1.265 . S
O13 Eu1 2.384 1_455 S
O13 C22 1.255 1_556 S
O14 Tb0 2.366 . S
O14 C22 1.265 . S
C15 O11 1.259 1_655 S
C15 O12 1.265 . S
O16 Eu1 2.479 . S
O16 C31 1.238 . S
O17 Eu1 2.471 1_554 S
O17 C31 1.247 1_554 S
O18 Eu1 2.347 1_554 S
O18 C2 1.259 1_655 S
O19 Tb0 2.418 . S
O19 C2 1.265 . S
O20 Tb0 2.384 1_655 S
O20 C3 1.255 1_554 S
O21 Eu1 2.366 . S
O21 C3 1.265 . S
C22 O13 1.255 1_554 S
C22 O14 1.265 . S
O23 Tb0 2.479 . S
O23 C10 1.238 . S
O24 Tb0 2.471 1_556 S
O24 C10 1.247 1_556 S
C25 C28 1.375 1_554 S
C25 C29 1.380 . S
C25 C31 1.505 1_554 S
C26 C27 1.387 1_554 S
C26 C30 1.391 . S
C27 C26 1.387 1_556 S
C27 C28 1.384 . S
C27 H36 0.930 . S
C28 C25 1.375 1_556 S
C28 C27 1.384 . S
C28 H37 0.931 . S
C29 C25 1.380 . S
C29 C30 1.390 . S
C29 H38 0.930 . S
C30 C26 1.391 . S
C30 C29 1.390 . S
C30 H39 0.930 . S
C31 Eu1 2.825 . S
C31 O16 1.238 . S
C31 O17 1.247 1_556 S
C31 C25 1.505 1_556 S
H32 C5 0.930 . S
H33 C6 0.931 . S
H34 C7 0.930 . S
H35 C8 0.930 . S
H36 C27 0.930 . S
H37 C28 0.931 . S
H38 C29 0.930 . S
H39 C30 0.930 . S
Tb40 C50 2.825 . S
Tb40 O51 2.347 1_554 S
Tb40 O54 2.366 . S
Tb40 O59 2.418 . S
Tb40 O60 2.384 1_545 S
Tb40 O63 2.479 . S
Tb40 O64 2.471 1_554 S
Eu41 O52 2.418 . S
Eu41 O53 2.384 1_565 S
Eu41 O56 2.479 . S
Eu41 O57 2.471 1_556 S
Eu41 O58 2.347 1_556 S
Eu41 O61 2.366 . S
Eu41 C71 2.825 . S
C42 O58 1.259 1_545 S
C42 O59 1.265 . S
C43 O60 1.253 1_556 S
C43 O61 1.267 . S
C44 C46 1.380 . S
C44 C47 1.374 1_554 S
C44 C50 1.507 . S
C45 C46 1.384 . S
C45 C49 1.387 1_554 S
C45 H72 0.930 . S
C46 C44 1.380 . S
C46 C45 1.384 . S
C46 H73 0.931 . S
C47 C44 1.374 1_556 S
C47 C48 1.390 . S
C47 H74 0.930 . S
C48 C47 1.390 . S
C48 C49 1.391 . S
C48 H75 0.930 . S
C49 C45 1.387 1_556 S
C49 C48 1.391 . S
C50 Tb40 2.825 . S
C50 C44 1.507 . S
C50 O63 1.238 . S
C50 O64 1.247 1_554 S
O51 Tb40 2.347 1_556 S
O51 C55 1.259 1_545 S
O52 Eu41 2.418 . S
O52 C55 1.265 . S
O53 Eu41 2.384 1_545 S
O53 C62 1.255 1_556 S
O54 Tb40 2.366 . S
O54 C62 1.265 . S
C55 O51 1.259 1_565 S
C55 O52 1.265 . S
O56 Eu41 2.479 . S
O56 C71 1.238 . S
O57 Eu41 2.471 1_554 S
O57 C71 1.247 1_554 S
O58 Eu41 2.347 1_554 S
O58 C42 1.259 1_565 S
O59 Tb40 2.418 . S
O59 C42 1.265 . S
O60 Tb40 2.384 1_565 S
O60 C43 1.253 1_554 S
O61 Eu41 2.366 . S
O61 C43 1.267 . S
C62 O53 1.255 1_554 S
C62 O54 1.265 . S
O63 Tb40 2.479 . S
O63 C50 1.238 . S
O64 Tb40 2.471 1_556 S
O64 C50 1.247 1_556 S
C65 C68 1.380 . S
C65 C69 1.374 1_556 S
C65 C71 1.507 . S
C66 C67 1.387 1_554 S
C66 C70 1.391 . S
C67 C66 1.387 1_556 S
C67 C68 1.384 . S
C67 H76 0.930 . S
C68 C65 1.380 . S
C68 C67 1.384 . S
C68 H77 0.931 . S
C69 C65 1.374 1_554 S
C69 C70 1.390 . S
C69 H78 0.930 . S
C70 C66 1.391 . S
C70 C69 1.390 . S
C70 H79 0.930 . S
C71 Eu41 2.825 . S
C71 O56 1.238 . S
C71 O57 1.247 1_556 S
C71 C65 1.507 . S
H72 C45 0.930 . S
H73 C46 0.931 . S
H74 C47 0.930 . S
H75 C48 0.930 . S
H76 C67 0.930 . S
H77 C68 0.931 . S
H78 C69 0.930 . S
H79 C70 0.930 . S
Tb80 C90 2.825 . S
Tb80 O91 2.347 1_556 S
Tb80 O94 2.366 . S
Tb80 O99 2.418 . S
Tb80 O100 2.384 . S
Tb80 O103 2.479 . S
Tb80 O104 2.471 1_556 S
Eu81 O92 2.418 . S
Eu81 O93 2.384 . S
Eu81 O96 2.479 . S
Eu81 O97 2.471 1_554 S
Eu81 O98 2.347 1_554 S
Eu81 O101 2.366 . S
Eu81 C111 2.825 . S
C82 O98 1.259 . S
C82 O99 1.265 . S
C83 O100 1.255 1_554 S
C83 O101 1.265 . S
C84 C86 1.380 . S
C84 C87 1.374 1_556 S
C84 C90 1.507 . S
C85 C86 1.384 . S
C85 C89 1.387 1_556 S
C85 H112 0.930 . S
C86 C84 1.380 . S
C86 C85 1.384 . S
C86 H113 0.931 . S
C87 C84 1.374 1_554 S
C87 C88 1.390 . S
C87 H114 0.930 . S
C88 C87 1.390 . S
C88 C89 1.391 . S
C88 H115 0.930 . S
C89 C85 1.387 1_554 S
C89 C88 1.391 . S
C90 Tb80 2.825 . S
C90 C84 1.507 . S
C90 O103 1.238 . S
C90 O104 1.247 1_556 S
O91 Tb80 2.347 1_554 S
O91 C95 1.259 . S
O92 Eu81 2.418 . S
O92 C95 1.265 . S
O93 Eu81 2.384 . S
O93 C102 1.255 1_554 S
O94 Tb80 2.366 . S
O94 C102 1.265 . S
C95 O91 1.259 . S
C95 O92 1.265 . S
O96 Eu81 2.479 . S
O96 C111 1.238 . S
O97 Eu81 2.471 1_556 S
O97 C111 1.247 1_556 S
O98 Eu81 2.347 1_556 S
O98 C82 1.259 . S
O99 Tb80 2.418 . S
O99 C82 1.265 . S
O100 Tb80 2.384 . S
O100 C83 1.255 1_556 S
O101 Eu81 2.366 . S
O101 C83 1.265 . S
C102 O93 1.255 1_556 S
C102 O94 1.265 . S
O103 Tb80 2.479 . S
O103 C90 1.238 . S
O104 Tb80 2.471 1_554 S
O104 C90 1.247 1_554 S
C105 C108 1.380 . S
C105 C109 1.374 1_554 S
C105 C111 1.507 . S
C106 C107 1.387 1_556 S
C106 C110 1.391 . S
C107 C106 1.387 1_554 S
C107 C108 1.384 . S
C107 H116 0.930 . S
C108 C105 1.380 . S
C108 C107 1.384 . S
C108 H117 0.931 . S
C109 C105 1.374 1_556 S
C109 C110 1.390 . S
C109 H118 0.930 . S
C110 C106 1.391 . S
C110 C109 1.390 . S
C110 H119 0.930 . S
C111 Eu81 2.825 . S
C111 O96 1.238 . S
C111 O97 1.247 1_554 S
C111 C105 1.507 . S
H112 C85 0.930 . S
H113 C86 0.931 . S
H114 C87 0.930 . S
H115 C88 0.930 . S
H116 C107 0.930 . S
H117 C108 0.931 . S
H118 C109 0.930 . S
H119 C110 0.930 . S
C120 C121 1.391 . S
C120 C122 1.394 . S
C120 H136 0.931 . S
C121 C120 1.391 . S
C121 C125 1.376 1_655 S
C122 C120 1.394 . S
C122 C123 1.369 . S
C122 C126 1.531 . S
C123 C122 1.369 . S
C123 C124 1.410 1_655 S
C123 C131 1.510 . S
C124 C123 1.410 1_455 S
C124 C125 1.392 . S
C124 C127 1.511 . S
C125 C121 1.376 1_455 S
C125 C124 1.392 . S
C125 H137 0.929 . S
C126 C122 1.531 . S
C126 H138 0.960 . S
C126 H139 0.962 . S
C126 H140 0.960 . S
C127 C124 1.511 . S
C127 H141 0.961 . S
C127 H142 0.961 . S
C127 H143 0.961 . S
C128 C129 1.370 . S
C128 C130 1.363 . S
C128 H144 0.931 . S
C129 C128 1.370 . S
C129 C133 1.408 1_455 S
C130 C128 1.363 . S
C130 C131 1.338 1_455 S
C130 C134 1.524 . S
C131 C123 1.510 . S
C131 C130 1.338 1_655 S
C131 C132 1.429 . S
C132 C131 1.429 . S
C132 C133 1.404 . S
C132 C135 1.539 . S
C133 C129 1.408 1_655 S
C133 C132 1.404 . S
C133 H145 0.930 . S
C134 C130 1.524 . S
C134 H146 0.956 . S
C134 H147 0.961 . S
C134 H148 0.961 . S
C135 C132 1.539 . S
C135 H149 0.958 . S
C135 H150 0.961 . S
C135 H151 0.960 . S
H136 C120 0.931 . S
H137 C125 0.929 . S
H138 C126 0.960 . S
H139 C126 0.962 . S
H140 C126 0.960 . S
H141 C127 0.961 . S
H142 C127 0.961 . S
H143 C127 0.961 . S
H144 C128 0.931 . S
H145 C133 0.930 . S
H146 C134 0.956 . S
H147 C134 0.961 . S
H148 C134 0.961 . S
H149 C135 0.958 . S
H150 C135 0.961 . S
H151 C135 0.960 . S
C152 C153 1.391 . S
C152 C154 1.394 . S
C152 H168 0.931 . S
C153 C152 1.391 . S
C153 C157 1.376 1_545 S
C154 C152 1.394 . S
C154 C155 1.369 . S
C154 C158 1.531 . S
C155 C154 1.369 . S
C155 C156 1.410 1_545 S
C155 C163 1.503 . S
C156 C155 1.410 1_565 S
C156 C157 1.392 . S
C156 C159 1.511 . S
C157 C153 1.376 1_565 S
C157 C156 1.392 . S
C157 H169 0.929 . S
C158 C154 1.531 . S
C158 H170 0.960 . S
C158 H171 0.962 . S
C158 H172 0.960 . S
C159 C156 1.511 . S
C159 H173 0.961 . S
C159 H174 0.961 . S
C159 H175 0.961 . S
C160 C161 1.370 1_565 S
C160 C162 1.363 . S
C160 H176 0.931 . S
C161 C160 1.370 1_545 S
C161 C165 1.408 . S
C162 C160 1.363 . S
C162 C163 1.370 1_565 S
C162 C166 1.524 . S
C163 C155 1.503 . S
C163 C162 1.370 1_545 S
C163 C164 1.403 . S
C164 C163 1.403 . S
C164 C165 1.404 . S
C164 C167 1.539 . S
C165 C161 1.408 . S
C165 C164 1.404 . S
C165 H177 0.930 . S
C166 C162 1.524 . S
C166 H178 0.956 . S
C166 H179 0.961 . S
C166 H180 0.961 . S
C167 C164 1.539 . S
C167 H181 0.958 . S
C167 H182 0.961 . S
C167 H183 0.960 . S
H168 C152 0.931 . S
H169 C157 0.929 . S
H170 C158 0.960 . S
H171 C158 0.962 . S
H172 C158 0.960 . S
H173 C159 0.961 . S
H174 C159 0.961 . S
H175 C159 0.961 . S
H176 C160 0.931 . S
H177 C165 0.930 . S
H178 C166 0.956 . S
H179 C166 0.961 . S
H180 C166 0.961 . S
H181 C167 0.958 . S
H182 C167 0.961 . S
H183 C167 0.960 . S
C184 C185 1.391 . S
C184 C186 1.394 . S
C184 H200 0.931 . S
C185 C184 1.391 . S
C185 C189 1.376 . S
C186 C184 1.394 . S
C186 C187 1.369 . S
C186 C190 1.531 . S
C187 C186 1.369 . S
C187 C188 1.410 . S
C187 C195 1.503 . S
C188 C187 1.410 . S
C188 C189 1.392 . S
C188 C191 1.511 . S
C189 C185 1.376 . S
C189 C188 1.392 . S
C189 H201 0.929 . S
C190 C186 1.531 . S
C190 H202 0.960 . S
C190 H203 0.962 . S
C190 H204 0.960 . S
C191 C188 1.511 . S
C191 H205 0.961 . S
C191 H206 0.961 . S
C191 H207 0.961 . S
C192 C193 1.370 . S
C192 C194 1.363 . S
C192 H208 0.931 . S
C193 C192 1.370 . S
C193 C197 1.408 . S
C194 C192 1.363 . S
C194 C195 1.370 . S
C194 C198 1.524 . S
C195 C187 1.503 . S
C195 C194 1.370 . S
C195 C196 1.403 . S
C196 C195 1.403 . S
C196 C197 1.404 . S
C196 C199 1.539 . S
C197 C193 1.408 . S
C197 C196 1.404 . S
C197 H209 0.930 . S
C198 C194 1.524 . S
C198 H210 0.956 . S
C198 H211 0.961 . S
C198 H212 0.961 . S
C199 C196 1.539 . S
C199 H213 0.958 . S
C199 H214 0.961 . S
C199 H215 0.960 . S
H200 C184 0.931 . S
H201 C189 0.929 . S
H202 C190 0.960 . S
H203 C190 0.962 . S
H204 C190 0.960 . S
H205 C191 0.961 . S
H206 C191 0.961 . S
H207 C191 0.961 . S
H208 C192 0.931 . S
H209 C197 0.930 . S
H210 C198 0.956 . S
H211 C198 0.961 . S
H212 C198 0.961 . S
H213 C199 0.958 . S
H214 C199 0.961 . S
H215 C199 0.960 . S
C216 C217 1.391 . S
C216 C218 1.394 . S
C216 H232 0.931 1_556 S
C217 C216 1.391 . S
C217 C221 1.376 . S
C218 C216 1.394 . S
C218 C219 1.369 . S
C218 C222 1.531 1_556 S
C219 C218 1.369 . S
C219 C220 1.410 . S
C219 C227 1.503 . S
C220 C219 1.410 . S
C220 C221 1.392 . S
C220 C223 1.511 . S
C221 C217 1.376 . S
C221 C220 1.392 . S
C221 H233 0.929 . S
C222 C218 1.531 1_554 S
C222 H234 0.960 1_554 S
C222 H235 0.962 . S
C222 H236 0.960 . S
C223 C220 1.511 . S
C223 H237 0.961 . S
C223 H238 0.961 . S
C223 H239 0.961 . S
C224 C225 1.370 . S
C224 C226 1.363 . S
C224 H240 0.931 . S
C225 C224 1.370 . S
C225 C229 1.408 1_554 S
C226 C224 1.363 . S
C226 C227 1.370 1_554 S
C226 C230 1.524 . S
C227 C219 1.503 . S
C227 C226 1.370 1_556 S
C227 C228 1.403 . S
C228 C227 1.403 . S
C228 C229 1.404 . S
C228 C231 1.539 . S
C229 C225 1.408 1_556 S
C229 C228 1.404 . S
C229 H241 0.930 . S
C230 C226 1.524 . S
C230 H242 0.956 . S
C230 H243 0.961 . S
C230 H244 0.961 . S
C231 C228 1.539 . S
C231 H245 0.958 . S
C231 H246 0.961 . S
C231 H247 0.960 . S
H232 C216 0.931 1_554 S
H233 C221 0.929 . S
H234 C222 0.960 1_556 S
H235 C222 0.962 . S
H236 C222 0.960 . S
H237 C223 0.961 . S
H238 C223 0.961 . S
H239 C223 0.961 . S
H240 C224 0.931 . S
H241 C229 0.930 . S
H242 C230 0.956 . S
H243 C230 0.961 . S
H244 C230 0.961 . S
H245 C231 0.958 . S
H246 C231 0.961 . S
H247 C231 0.960 . S
C248 C249 1.391 1_554 S
C248 C250 1.394 . S
C248 H264 0.931 . S
C249 C248 1.391 1_556 S
C249 C253 1.376 . S
C250 C248 1.394 . S
C250 C251 1.369 1_554 S
C250 C254 1.531 . S
C251 C250 1.369 1_556 S
C251 C252 1.410 . S
C251 C259 1.503 . S
C252 C251 1.410 . S
C252 C253 1.392 . S
C252 C255 1.511 . S
C253 C249 1.376 . S
C253 C252 1.392 . S
C253 H265 0.929 . S
C254 C250 1.531 . S
C254 H266 0.960 . S
C254 H267 0.962 . S
C254 H268 0.960 . S
C255 C252 1.511 . S
C255 H269 0.961 . S
C255 H270 0.961 . S
C255 H271 0.961 . S
C256 C257 1.370 . S
C256 C258 1.363 . S
C256 H272 0.931 . S
C257 C256 1.370 . S
C257 C261 1.408 1_556 S
C258 C256 1.363 . S
C258 C259 1.370 . S
C258 C262 1.524 . S
C259 C251 1.503 . S
C259 C258 1.370 . S
C259 C260 1.403 1_556 S
C260 C259 1.403 1_554 S
C260 C261 1.404 . S
C260 C263 1.539 . S
C261 C257 1.408 1_554 S
C261 C260 1.404 . S
C261 H273 0.930 . S
C262 C258 1.524 . S
C262 H274 0.956 . S
C262 H275 0.961 . S
C262 H276 0.961 . S
C263 C260 1.539 . S
C263 H277 0.958 . S
C263 H278 0.961 . S
C263 H279 0.960 . S
H264 C248 0.931 . S
H265 C253 0.929 . S
H266 C254 0.960 . S
H267 C254 0.962 . S
H268 C254 0.960 . S
H269 C255 0.961 . S
H270 C255 0.961 . S
H271 C255 0.961 . S
H272 C256 0.931 . S
H273 C261 0.930 . S
H274 C262 0.956 . S
H275 C262 0.961 . S
H276 C262 0.961 . S
H277 C263 0.958 . S
H278 C263 0.961 . S
H279 C263 0.960 . S
C280 C281 1.391 . S
C280 C282 1.394 . S
C280 H296 0.931 . S
C281 C280 1.391 . S
C281 C285 1.376 1_554 S
C282 C280 1.394 . S
C282 C283 1.369 . S
C282 C286 1.531 . S
C283 C282 1.369 . S
C283 C284 1.410 1_554 S
C283 C291 1.503 . S
C284 C283 1.410 1_556 S
C284 C285 1.392 . S
C284 C287 1.511 . S
C285 C281 1.376 1_556 S
C285 C284 1.392 . S
C285 H297 0.929 . S
C286 C282 1.531 . S
C286 H298 0.960 . S
C286 H299 0.962 . S
C286 H300 0.960 . S
C287 C284 1.511 . S
C287 H301 0.961 . S
C287 H302 0.961 . S
C287 H303 0.961 . S
C288 C289 1.370 . S
C288 C290 1.363 . S
C288 H304 0.931 . S
C289 C288 1.370 . S
C289 C293 1.408 1_556 S
C290 C288 1.363 . S
C290 C291 1.370 1_556 S
C290 C294 1.524 . S
C291 C283 1.503 . S
C291 C290 1.370 1_554 S
C291 C292 1.403 . S
C292 C291 1.403 . S
C292 C293 1.404 . S
C292 C295 1.539 . S
C293 C289 1.408 1_554 S
C293 C292 1.404 . S
C293 H305 0.930 . S
C294 C290 1.524 . S
C294 H306 0.956 . S
C294 H307 0.961 . S
C294 H308 0.961 . S
C295 C292 1.539 . S
C295 H309 0.958 . S
C295 H310 0.961 . S
C295 H311 0.960 . S
H296 C280 0.931 . S
H297 C285 0.929 . S
H298 C286 0.960 . S
H299 C286 0.962 . S
H300 C286 0.960 . S
H301 C287 0.961 . S
H302 C287 0.961 . S
H303 C287 0.961 . S
H304 C288 0.931 . S
H305 C293 0.930 . S
H306 C294 0.956 . S
H307 C294 0.961 . S
H308 C294 0.961 . S
H309 C295 0.958 . S
H310 C295 0.961 . S
H311 C295 0.960 . S
C312 C313 1.391 1_556 S
C312 C314 1.394 . S
C312 H328 0.931 . S
C313 C312 1.391 1_554 S
C313 C317 1.376 . S
C314 C312 1.394 . S
C314 C315 1.369 . S
C314 C318 1.531 . S
C315 C314 1.369 . S
C315 C316 1.410 1_556 S
C315 C323 1.503 . S
C316 C315 1.410 1_554 S
C316 C317 1.392 . S
C316 C319 1.511 . S
C317 C313 1.376 . S
C317 C316 1.392 . S
C317 H329 0.929 . S
C318 C314 1.531 . S
C318 H330 0.960 . S
C318 H331 0.962 . S
C318 H332 0.960 . S
C319 C316 1.511 . S
C319 H333 0.961 . S
C319 H334 0.961 . S
C319 H335 0.961 1_554 S
C320 C321 1.370 1_554 S
C320 C322 1.363 . S
C320 H336 0.931 . S
C321 C320 1.370 1_556 S
C321 C325 1.408 . S
C322 C320 1.363 . S
C322 C323 1.370 1_554 S
C322 C326 1.524 . S
C323 C315 1.503 . S
C323 C322 1.370 1_556 S
C323 C324 1.403 . S
C324 C323 1.403 . S
C324 C325 1.404 . S
C324 C327 1.539 . S
C325 C321 1.408 . S
C325 C324 1.404 . S
C325 H337 0.930 . S
C326 C322 1.524 . S
C326 H338 0.956 . S
C326 H339 0.961 . S
C326 H340 0.961 . S
C327 C324 1.539 . S
C327 H341 0.958 . S
C327 H342 0.961 . S
C327 H343 0.960 . S
H328 C312 0.931 . S
H329 C317 0.929 . S
H330 C318 0.960 . S
H331 C318 0.962 . S
H332 C318 0.960 . S
H333 C319 0.961 . S
H334 C319 0.961 . S
H335 C319 0.961 1_556 S
H336 C320 0.931 . S
H337 C325 0.930 . S
H338 C326 0.956 . S
H339 C326 0.961 . S
H340 C326 0.961 . S
H341 C327 0.958 . S
H342 C327 0.961 . S
H343 C327 0.960 . S
C344 C345 1.391 1_556 S
C344 C346 1.394 . S
C344 H360 0.931 . S
C345 C344 1.391 1_554 S
C345 C349 1.376 . S
C346 C344 1.394 . S
C346 C347 1.369 1_556 S
C346 C350 1.531 . S
C347 C346 1.369 1_554 S
C347 C348 1.410 . S
C347 C355 1.503 . S
C348 C347 1.410 . S
C348 C349 1.392 . S
C348 C351 1.511 . S
C349 C345 1.376 . S
C349 C348 1.392 . S
C349 H361 0.929 . S
C350 C346 1.531 . S
C350 H362 0.960 . S
C350 H363 0.962 . S
C350 H364 0.960 . S
C351 C348 1.511 . S
C351 H365 0.961 . S
C351 H366 0.961 . S
C351 H367 0.961 . S
C352 C353 1.370 1_556 S
C352 C354 1.363 . S
C352 H368 0.931 . S
C353 C352 1.370 1_554 S
C353 C357 1.408 . S
C354 C352 1.363 . S
C354 C355 1.370 1_556 S
C354 C358 1.524 . S
C355 C347 1.503 . S
C355 C354 1.370 1_554 S
C355 C356 1.403 . S
C356 C355 1.403 . S
C356 C357 1.404 . S
C356 C359 1.539 . S
C357 C353 1.408 . S
C357 C356 1.404 . S
C357 H369 0.930 . S
C358 C354 1.524 . S
C358 H370 0.956 . S
C358 H371 0.961 . S
C358 H372 0.961 . S
C359 C356 1.539 . S
C359 H373 0.958 . S
C359 H374 0.961 . S
C359 H375 0.960 . S
H360 C344 0.931 . S
H361 C349 0.929 . S
H362 C350 0.960 . S
H363 C350 0.962 . S
H364 C350 0.960 . S
H365 C351 0.961 . S
H366 C351 0.961 . S
H367 C351 0.961 . S
H368 C352 0.931 . S
H369 C357 0.930 . S
H370 C358 0.956 . S
H371 C358 0.961 . S
H372 C358 0.961 . S
H373 C359 0.958 . S
H374 C359 0.961 . S
H375 C359 0.960 . S
C376 C377 1.391 . S
C376 C378 1.394 . S
C376 H392 0.931 . S
C377 C376 1.391 . S
C377 C381 1.376 1_554 S
C378 C376 1.394 . S
C378 C379 1.369 . S
C378 C382 1.531 . S
C379 C378 1.369 . S
C379 C380 1.410 1_554 S
C379 C387 1.503 . S
C380 C379 1.410 1_556 S
C380 C381 1.392 . S
C380 C383 1.511 . S
C381 C377 1.376 1_556 S
C381 C380 1.392 . S
C381 H393 0.929 . S
C382 C378 1.531 . S
C382 H394 0.960 . S
C382 H395 0.962 . S
C382 H396 0.960 . S
C383 C380 1.511 . S
C383 H397 0.961 . S
C383 H398 0.961 . S
C383 H399 0.961 . S
C384 C385 1.370 1_556 S
C384 C386 1.363 . S
C384 H400 0.931 . S
C385 C384 1.370 1_554 S
C385 C389 1.408 . S
C386 C384 1.363 . S
C386 C387 1.370 1_556 S
C386 C390 1.524 . S
C387 C379 1.503 . S
C387 C386 1.370 1_554 S
C387 C388 1.403 . S
C388 C387 1.403 . S
C388 C389 1.404 . S
C388 C391 1.539 . S
C389 C385 1.408 . S
C389 C388 1.404 . S
C389 H401 0.930 . S
C390 C386 1.524 . S
C390 H402 0.956 . S
C390 H403 0.961 . S
C390 H404 0.961 . S
C391 C388 1.539 . S
C391 H405 0.958 . S
C391 H406 0.961 . S
C391 H407 0.960 . S
H392 C376 0.931 . S
H393 C381 0.929 . S
H394 C382 0.960 . S
H395 C382 0.962 . S
H396 C382 0.960 . S
H397 C383 0.961 . S
H398 C383 0.961 . S
H399 C383 0.961 . S
H400 C384 0.931 . S
H401 C389 0.930 . S
H402 C390 0.956 . S
H403 C390 0.961 . S
H404 C390 0.961 . S
H405 C391 0.958 . S
H406 C391 0.961 . S
H407 C391 0.960 . S
C121 C15 1.443 . S
C129 C2 1.479 . S
C153 C42 1.474 . S
C161 C55 1.455 1_545 S
C185 C82 1.438 . S
C193 C95 1.477 . S
C217 C9 0.906 . S
C225 C89 0.874 . S
C249 C49 1.899 . S
C257 C3 2.016 . S
C281 C43 2.580 1_554 S
C289 C102 2.608 . S
C313 C26 0.868 . S
C321 C106 0.895 . S
C345 C22 2.019 . S
C353 C66 1.923 . S
C377 C83 2.605 . S
C385 C62 2.574 . S
