# Generated by pormake.
# Topology nov, (5)-cn, num edge types: 1
# Building blocks:
#     Node 0, Type 0, BuildingBlock: XOMCOT_clean_sbu_1, # of connection points: 5
#     Node 1, Type 0, BuildingBlock: XOMCOT_clean_sbu_1, # of connection points: 5
#     Node 2, Type 0, BuildingBlock: XOMCOT_clean_sbu_1, # of connection points: 5
#     Node 3, Type 0, BuildingBlock: XOMCOT_clean_sbu_1, # of connection points: 5
#     Node 4, Type 0, BuildingBlock: XOMCOT_clean_sbu_1, # of connection points: 5
#     Node 5, Type 0, BuildingBlock: XOMCOT_clean_sbu_1, # of connection points: 5
#     Node 6, Type 0, BuildingBlock: XOMCOT_clean_sbu_1, # of connection points: 5
#     Node 7, Type 0, BuildingBlock: XOMCOT_clean_sbu_1, # of connection points: 5
#     Edge 8, Type (0, 0), BuildingBlock: MIFKUJ_clean_linker_0, # of connection points: 2
#     Edge 9, Type (0, 0), BuildingBlock: MIFKUJ_clean_linker_0, # of connection points: 2
#     Edge 10, Type (0, 0), BuildingBlock: MIFKUJ_clean_linker_0, # of connection points: 2
#     Edge 11, Type (0, 0), BuildingBlock: MIFKUJ_clean_linker_0, # of connection points: 2
#     Edge 12, Type (0, 0), BuildingBlock: MIFKUJ_clean_linker_0, # of connection points: 2
#     Edge 13, Type (0, 0), BuildingBlock: MIFKUJ_clean_linker_0, # of connection points: 2
#     Edge 14, Type (0, 0), BuildingBlock: MIFKUJ_clean_linker_0, # of connection points: 2
#     Edge 15, Type (0, 0), BuildingBlock: MIFKUJ_clean_linker_0, # of connection points: 2
#     Edge 16, Type (0, 0), BuildingBlock: MIFKUJ_clean_linker_0, # of connection points: 2
#     Edge 17, Type (0, 0), BuildingBlock: MIFKUJ_clean_linker_0, # of connection points: 2
#     Edge 18, Type (0, 0), BuildingBlock: MIFKUJ_clean_linker_0, # of connection points: 2
#     Edge 19, Type (0, 0), BuildingBlock: MIFKUJ_clean_linker_0, # of connection points: 2
#     Edge 20, Type (0, 0), BuildingBlock: MIFKUJ_clean_linker_0, # of connection points: 2
#     Edge 21, Type (0, 0), BuildingBlock: MIFKUJ_clean_linker_0, # of connection points: 2
#     Edge 22, Type (0, 0), BuildingBlock: MIFKUJ_clean_linker_0, # of connection points: 2
#     Edge 23, Type (0, 0), BuildingBlock: MIFKUJ_clean_linker_0, # of connection points: 2
#     Edge 24, Type (0, 0), BuildingBlock: MIFKUJ_clean_linker_0, # of connection points: 2
#     Edge 25, Type (0, 0), BuildingBlock: MIFKUJ_clean_linker_0, # of connection points: 2
#     Edge 26, Type (0, 0), BuildingBlock: MIFKUJ_clean_linker_0, # of connection points: 2
#     Edge 27, Type (0, 0), BuildingBlock: MIFKUJ_clean_linker_0, # of connection points: 2
# Relax obj value: 0.132
# Max RMSD: 0.166
# Mean RMSD: 0.166
data_MOF--net-nov--node1-XOMCOT_clean_sbu_1--edge1-MIFKUJ_clean_linker_0
_symmetry_space_group_name_H-M    P1
_symmetry_Int_Tables_number       1
_symmetry_cell_setting            triclinic
loop_
_symmetry_equiv_pos_as_xyz
'x, y, z'
_cell_length_a     35.145002
_cell_length_b     67.501427
_cell_length_c     35.32108
_cell_angle_alpha  90.028232
_cell_angle_beta   89.630565
_cell_angle_gamma 90.254987
loop_
_atom_site_label
_atom_site_type_symbol
_atom_site_fract_x
_atom_site_fract_y
_atom_site_fract_z
_atom_type_partial_charge
C0 C 0.09111 0.12952 0.09262 0.0
C1 C 0.08732 0.11187 0.07384 0.0
N2 N 0.05349 0.10391 0.08341 0.0
N3 N 0.05971 0.13282 0.11375 0.0
C4 C 0.03713 0.11682 0.1078 0.0
H5 H 0.11487 0.13968 0.09022 0.0
Co6 Co 0.05481 0.1568 0.13878 0.0
C7 C 0.97744 0.15907 0.17273 0.0
O8 O 0.97773 0.17798 0.16416 0.0
N9 N 0.05212 0.18189 0.164 0.0
C10 C 0.04896 0.21423 0.1762 0.0
C11 C 0.04714 0.20004 0.14859 0.0
C12 C 0.05692 0.1857 0.20143 0.0
N13 N 0.05555 0.2053 0.20955 0.0
O14 O 0.0843 0.14619 0.17993 0.0
H15 H 0.04174 0.20322 0.11926 0.0
H16 H 0.06201 0.17431 0.22226 0.0
O17 O 1.00584 0.14818 0.16314 0.0
C18 C 0.11844 0.15267 0.17744 0.0
O19 O 0.12681 0.16561 0.15085 0.0
N20 N 0.03087 0.16694 0.09565 0.0
C21 C 1.01044 0.1843 0.02694 0.0
C22 C 0.98331 0.17409 0.04907 0.0
C23 C 0.9943 0.16512 0.08316 0.0
C24 C 0.05788 0.17556 0.07322 0.0
C25 C 0.04826 0.18467 0.03937 0.0
H26 H 0.97353 0.15661 0.09887 0.0
H27 H 0.08707 0.17609 0.08271 0.0
H28 H 1.0089 0.11501 0.11978 0.0
H29 H 0.10762 0.10541 0.05427 0.0
H30 H 0.04522 0.22994 0.17176 0.0
H31 H 0.95406 0.1728 0.03992 0.0
H32 H 0.07032 0.1924 0.02369 0.0
C33 C 0.50817 0.87573 0.5711 0.0
C34 C 0.50168 0.89276 0.55076 0.0
N35 N 0.5107 0.90838 0.57269 0.0
N36 N 0.52161 0.88056 0.60562 0.0
C37 C 0.52192 0.90061 0.60601 0.0
H38 H 0.50325 0.86076 0.56136 0.0
Co39 Co 0.5321 0.8626 0.64471 0.0
C40 C 0.60411 0.88941 0.64844 0.0
O41 O 0.60053 0.89804 0.61536 0.0
N42 N 0.54223 0.84464 0.6842 0.0
C43 C 0.5745 0.82628 0.72524 0.0
C44 C 0.57728 0.83834 0.69403 0.0
C45 C 0.51846 0.83574 0.70939 0.0
N46 N 0.53755 0.82464 0.73463 0.0
O47 O 0.50009 0.87799 0.67842 0.0
H48 H 0.60339 0.84242 0.67959 0.0
H49 H 0.48794 0.83763 0.70993 0.0
O50 O 0.5791 0.87684 0.65979 0.0
C51 C 0.4667 0.87117 0.67198 0.0
O52 O 0.46316 0.85711 0.64644 0.0
N53 N 0.55839 0.84602 0.61044 0.0
C54 C 0.5778 0.81973 0.55211 0.0
C55 C 0.59779 0.83766 0.55681 0.0
C56 C 0.58758 0.85066 0.58624 0.0
C57 C 0.53987 0.82833 0.60708 0.0
C58 C 0.54949 0.81491 0.57875 0.0
H59 H 0.60159 0.8648 0.58781 0.0
H60 H 0.51608 0.82496 0.62557 0.0
H61 H 0.53012 0.90937 0.63033 0.0
H62 H 0.49183 0.89361 0.52183 0.0
H63 H 0.59774 0.8193 0.74006 0.0
H64 H 0.61965 0.84212 0.53679 0.0
H65 H 0.53378 0.8011 0.57703 0.0
C66 C 0.0709 0.88005 0.92333 0.0
C67 C 0.07198 0.89684 0.94532 0.0
N68 N 0.04834 0.91031 0.93019 0.0
N69 N 0.04641 0.8828 0.89461 0.0
C70 C 0.03347 0.9015 0.89919 0.0
H71 H 0.08629 0.86647 0.92839 0.0
Co72 Co 0.03396 0.86332 0.8591 0.0
C73 C 0.95066 0.87564 0.85365 0.0
O74 O 0.94016 0.8626 0.87912 0.0
N75 N 0.0216 0.84385 0.82234 0.0
C76 C 0.98953 0.82176 0.78809 0.0
C77 C 0.98749 0.83488 0.81763 0.0
C78 C 0.04403 0.83564 0.79526 0.0
N79 N 0.02512 0.82226 0.77392 0.0
O80 O 0.06318 0.8778 0.82148 0.0
H81 H 0.96275 0.83705 0.8352 0.0
H82 H 0.07361 0.83939 0.79095 0.0
O83 O 0.98599 0.87747 0.84453 0.0
C84 C 0.09747 0.87196 0.82585 0.0
O85 O 0.10407 0.85854 0.85194 0.0
N86 N 1.01124 0.84772 0.8985 0.0
C87 C 0.99462 0.82303 0.96048 0.0
C88 C 0.98419 0.84308 0.96084 0.0
C89 C 0.99352 0.85525 0.93001 0.0
C90 C 0.02277 0.8284 0.89863 0.0
C91 C 1.01407 0.81579 0.92869 0.0
H92 H 0.98673 0.87083 0.93169 0.0
H93 H 0.04065 0.82276 0.87615 0.0
H94 H 1.01274 0.90831 0.88087 0.0
H95 H 0.08894 0.89899 0.97048 0.0
H96 H 0.96673 0.81221 0.77848 0.0
H97 H 0.96969 0.84946 0.98505 0.0
H98 H 0.02449 0.80072 0.92783 0.0
C99 C 0.49514 0.13678 0.41676 0.0
C100 C 0.48745 0.11938 0.43549 0.0
N101 N 0.5135 0.10589 0.42479 0.0
N102 N 0.52576 0.13431 0.3941 0.0
C103 C 0.53649 0.11529 0.39966 0.0
H104 H 0.47923 0.1504 0.41924 0.0
Co105 Co 0.54353 0.15401 0.3612 0.0
C106 C 0.62578 0.13952 0.36123 0.0
O107 O 0.63503 0.15072 0.39005 0.0
N108 N 0.56114 0.17379 0.3269 0.0
C109 C 0.59749 0.19671 0.29897 0.0
C110 C 0.59593 0.18245 0.32662 0.0
C111 C 0.54228 0.18305 0.29865 0.0
N112 N 0.56373 0.19704 0.28135 0.0
O113 O 0.51717 0.14071 0.32064 0.0
H114 H 0.61849 0.17926 0.3462 0.0
H115 H 0.513 0.18015 0.29142 0.0
O116 O 0.59132 0.13919 0.34934 0.0
C117 C 0.4835 0.1478 0.32182 0.0
O118 O 0.47624 0.16202 0.34625 0.0
N119 N 0.56331 0.16844 0.40341 0.0
C120 C 0.57285 0.19163 0.4687 0.0
C121 C 0.5829 0.17154 0.46858 0.0
C122 C 0.57693 0.16008 0.43597 0.0
C123 C 0.55271 0.1879 0.40378 0.0
C124 C 0.55807 0.19978 0.43554 0.0
H125 H 0.58236 0.14435 0.43733 0.0
H126 H 0.53794 0.19425 0.38001 0.0
H127 H 0.56004 0.10832 0.38502 0.0
H128 H 0.46461 0.11684 0.45565 0.0
H129 H 0.62152 0.20623 0.29252 0.0
H130 H 0.59326 0.1645 0.49403 0.0
H131 H 0.54924 0.21513 0.43452 0.0
C132 C 0.55649 0.64532 0.06745 0.0
C133 C 0.56118 0.6287 0.04551 0.0
N134 N 0.55557 0.61257 0.0674 0.0
N135 N 0.54738 0.63989 0.10312 0.0
C136 C 0.54817 0.61983 0.10244 0.0
H137 H 0.5598 0.66044 0.0579 0.0
Co138 Co 0.53922 0.65734 0.14402 0.0
C139 C 0.46781 0.63065 0.1501 0.0
O140 O 0.4697 0.623 0.11595 0.0
N141 N 0.531 0.67472 0.18484 0.0
C142 C 0.49963 0.69375 0.22562 0.0
C143 C 0.4965 0.68204 0.19413 0.0
C144 C 0.55484 0.68235 0.21116 0.0
N145 N 0.53628 0.69391 0.23659 0.0
O146 O 0.5724 0.64142 0.17491 0.0
H147 H 0.47048 0.679 0.17896 0.0
H148 H 0.58496 0.67919 0.21215 0.0
O149 O 0.49323 0.64298 0.1611 0.0
C150 C 0.60579 0.64672 0.16425 0.0
O151 O 0.60865 0.66055 0.13816 0.0
N152 N 0.51173 0.67446 0.11239 0.0
C153 C 0.48949 0.70196 0.05771 0.0
C154 C 0.46728 0.68499 0.06511 0.0
C155 C 0.47889 0.67137 0.09273 0.0
C156 C 0.53283 0.69115 0.10634 0.0
C157 C 0.52226 0.70505 0.07939 0.0
H158 H 0.46226 0.65815 0.09687 0.0
H159 H 0.55925 0.69319 0.12141 0.0
H160 H 0.54239 0.61079 0.12711 0.0
H161 H 0.56859 0.6286 0.01574 0.0
H162 H 0.47657 0.70168 0.23919 0.0
H163 H 0.44168 0.68204 0.04912 0.0
H164 H 0.54088 0.71761 0.07429 0.0
C165 C 0.99879 0.37835 0.58472 0.0
C166 C 0.99536 0.39517 0.56321 0.0
N167 N 1.0192 0.40904 0.57699 0.0
N168 N 0.02462 0.38152 0.61214 0.0
C169 C 0.03668 0.4004 0.60672 0.0
H170 H 0.98365 0.36455 0.58048 0.0
Co171 Co 0.03708 0.36244 0.64845 0.0
C172 C 0.12022 0.376 0.65401 0.0
O173 O 0.13162 0.36312 0.62869 0.0
N174 N 0.04925 0.34337 0.68575 0.0
C175 C 0.08117 0.32098 0.71878 0.0
C176 C 0.08344 0.33471 0.69038 0.0
C177 C 0.02656 0.33451 0.712 0.0
N178 N 0.04537 0.3208 0.73263 0.0
O179 O 1.00704 0.37699 0.6852 0.0
H180 H 0.10825 0.33733 0.67304 0.0
H181 H 0.99674 0.33787 0.71561 0.0
O182 O 0.08476 0.37716 0.66305 0.0
C183 C 0.97284 0.37143 0.6785 0.0
O184 O 0.96758 0.35724 0.65356 0.0
N185 N 0.06028 0.34675 0.60972 0.0
C186 C 0.07563 0.32204 0.54747 0.0
C187 C 0.08711 0.342 0.54737 0.0
C188 C 0.07824 0.35421 0.57824 0.0
C189 C 0.04806 0.3275 0.60956 0.0
C190 C 0.05597 0.3149 0.57931 0.0
H191 H 0.08525 0.36979 0.57644 0.0
H192 H 0.02995 0.32197 0.63202 0.0
H193 H 0.0575 0.40773 0.62436 0.0
H194 H 0.97721 0.39693 0.5388 0.0
H195 H 0.10399 0.31129 0.72731 0.0
H196 H 0.10192 0.34835 0.52327 0.0
H197 H 0.04468 0.29995 0.58011 0.0
C198 C 0.58133 0.38049 0.92588 0.0
C199 C 0.58628 0.39736 0.94708 0.0
N200 N 0.56438 0.41176 0.93246 0.0
N201 N 0.55609 0.38409 0.89816 0.0
C202 C 0.5466 0.40337 0.90255 0.0
H203 H 0.59486 0.36635 0.9306 0.0
Co204 Co 0.5403 0.36515 0.86266 0.0
C205 C 0.45843 0.38043 0.86147 0.0
O206 O 0.44781 0.36841 0.88867 0.0
N207 N 0.52491 0.34639 0.82595 0.0
C208 C 0.48907 0.32583 0.7921 0.0
C209 C 0.48933 0.33917 0.82132 0.0
C210 C 0.54588 0.33698 0.79915 0.0
N211 N 0.52462 0.32444 0.77802 0.0
O212 O 0.5696 0.37923 0.82466 0.0
H213 H 0.46509 0.3427 0.83882 0.0
H214 H 0.57611 0.33925 0.79512 0.0
O215 O 0.49325 0.38066 0.85003 0.0
C216 C 0.60397 0.37366 0.82956 0.0
O217 O 0.61051 0.35965 0.85448 0.0
N218 N 0.5172 0.34985 0.90262 0.0
C219 C 0.50362 0.32596 0.96641 0.0
C220 C 0.49589 0.3463 0.96741 0.0
C221 C 0.50327 0.35799 0.93547 0.0
C222 C 0.52526 0.33004 0.90176 0.0
C223 C 0.51779 0.31782 0.93278 0.0
H224 H 0.49878 0.37378 0.9377 0.0
H225 H 0.54001 0.32361 0.87788 0.0
H226 H 0.52655 0.41099 0.88465 0.0
H227 H 0.60486 0.39894 0.97122 0.0
H228 H 0.46468 0.31733 0.78276 0.0
H229 H 0.48543 0.35325 0.99307 0.0
H230 H 0.52566 0.30234 0.93126 0.0
C231 C 0.9955 0.63178 0.42034 0.0
C232 C 0.99413 0.61321 0.43585 0.0
N233 N 0.02049 0.60198 0.41846 0.0
N234 N 0.02238 0.63237 0.39295 0.0
C235 C 0.03753 0.61394 0.39259 0.0
H236 H 0.97768 0.64414 0.42831 0.0
Co237 Co 0.02983 0.65529 0.36422 0.0
C238 C 0.11285 0.6545 0.34563 0.0
O239 O 0.11605 0.67215 0.36076 0.0
N240 N 0.03611 0.67919 0.33494 0.0
C241 C 0.04996 0.71023 0.31759 0.0
C242 C 0.05384 0.69624 0.3452 0.0
C243 C 0.02165 0.68355 0.30031 0.0
N244 N 0.02941 0.70237 0.28939 0.0
O245 O 1.00382 0.64273 0.32257 0.0
H246 H 0.06887 0.69879 0.3713 0.0
H247 H 1.00487 0.67339 0.28363 0.0
O248 O 0.0804 0.64567 0.34553 0.0
C249 C 0.96829 0.64501 0.32923 0.0
O250 O 0.95798 0.65551 0.35884 0.0
N251 N 0.04935 0.66754 0.40768 0.0
C252 C 0.06344 0.68758 0.47528 0.0
C253 C 0.08778 0.67236 0.46299 0.0
C254 C 0.07956 0.66207 0.42943 0.0
C255 C 0.02419 0.68127 0.42071 0.0
C256 C 0.03113 0.69179 0.45374 0.0
H257 H 0.09715 0.64968 0.42116 0.0
H258 H 0.99882 0.68439 0.40463 0.0
H259 H 0.05972 0.60924 0.37324 0.0
H260 H 0.97525 0.60828 0.45832 0.0
H261 H 0.06163 0.72509 0.31829 0.0
H262 H 0.1123 0.66818 0.47953 0.0
H263 H 1.01141 0.70331 0.46199 0.0
H264 H 0.03131 0.94334 0.89014 0.0
H265 H 0.02202 0.97688 0.91534 0.0
H266 H 0.03809 0.95494 0.02873 0.0
H267 H 0.04716 0.92147 0.00374 0.0
H268 H 0.97857 0.98276 0.02356 0.0
H269 H 0.11041 0.97574 0.98599 0.0
H270 H 0.16247 0.96821 0.94117 0.0
H271 H 0.12343 0.0139 0.86652 0.0
H272 H 0.07078 0.02151 0.9107 0.0
H273 H 0.03375 0.07108 0.12241 0.0
H274 H 0.0227 0.03804 0.09523 0.0
H275 H 0.02946 0.06301 0.98281 0.0
H276 H 0.04228 0.09567 0.01026 0.0
H277 H 0.07361 0.03357 0.98528 0.0
H278 H 0.94431 0.04272 0.02393 0.0
H279 H 0.89159 0.05041 0.06786 0.0
H280 H 0.92331 1.00158 0.13864 0.0
H281 H 0.97656 0.99375 0.09541 0.0
C282 C 0.03234 0.94565 0.92044 0.0
C283 C 0.04036 0.92981 0.94492 0.0
C284 C 0.02716 0.9648 0.93481 0.0
C285 C 0.02962 0.96842 0.97392 0.0
C286 C 0.03609 0.95249 0.99849 0.0
C287 C 0.04165 0.93342 0.98413 0.0
C288 C 0.02794 0.98893 0.98911 0.0
C289 C 0.99941 0.9939 0.01543 0.0
C290 C 0.05468 1.00353 0.9779 0.0
C291 C 0.08642 0.99904 0.95143 0.0
C292 C 0.11274 0.98407 0.95987 0.0
C293 C 0.14239 0.97981 0.93461 0.0
C294 C 0.14618 0.99053 0.90096 0.0
C295 C 0.12041 1.00558 0.89256 0.0
C296 C 0.09067 0.00988 0.9177 0.0
C297 C 0.0317 0.06945 0.09199 0.0
C298 C 0.03857 0.08576 0.06829 0.0
C299 C 0.02541 0.05062 0.07638 0.0
C300 C 0.02511 0.04793 0.03681 0.0
C301 C 0.02975 0.06458 0.01334 0.0
C302 C 0.03675 0.08324 0.02893 0.0
C303 C 0.02389 0.0277 0.01974 0.0
C304 C 0.05223 0.02266 0.99319 0.0
C305 C 0.99673 0.01315 0.03057 0.0
C306 C 0.96465 0.01776 0.05658 0.0
C307 C 0.94022 0.03371 0.04901 0.0
C308 C 0.91021 0.03808 0.07376 0.0
C309 C 0.90416 0.02652 0.10607 0.0
C310 C 0.92805 0.01053 0.11363 0.0
C311 C 0.95813 1.00611 0.08898 0.0
H312 H 0.88092 0.02993 0.1252 0.0
H313 H 0.16916 0.98722 0.88144 0.0
H314 H 0.45452 0.08097 0.43592 0.0
H315 H 0.45653 0.04755 0.46226 0.0
H316 H 0.57873 0.05196 0.47132 0.0
H317 H 0.57665 0.08523 0.44308 0.0
H318 H 0.56274 0.01649 0.45205 0.0
H319 H 0.51568 0.05793 0.54995 0.0
H320 H 0.47506 0.08309 0.5804 0.0
H321 H 0.37653 0.04656 0.56215 0.0
H322 H 0.41649 0.02128 0.53108 0.0
H323 H 0.56416 0.93598 0.58886 0.0
H324 H 0.56709 0.9702 0.56504 0.0
H325 H 0.4605 0.96135 0.50762 0.0
H326 H 0.45806 0.927 0.5305 0.0
H327 H 0.47276 0.99938 0.556 0.0
H328 H 0.52557 0.95879 0.45387 0.0
H329 H 0.57065 0.9341 0.42869 0.0
H330 H 0.66467 0.97053 0.46332 0.0
H331 H 0.62008 0.9953 0.48925 0.0
C332 C 0.48178 0.07473 0.4434 0.0
C333 C 0.5154 0.0857 0.4378 0.0
C334 C 0.48295 0.05567 0.45872 0.0
C335 C 0.51768 0.04733 0.46996 0.0
C336 C 0.55151 0.05805 0.4632 0.0
C337 C 0.55038 0.07702 0.44704 0.0
C338 C 0.51837 0.02752 0.48882 0.0
C339 C 0.54339 0.01294 0.47514 0.0
C340 C 0.49325 0.02265 0.51912 0.0
C341 C 0.46906 0.03778 0.53789 0.0
C342 C 0.48531 0.05532 0.55219 0.0
C343 C 0.46241 0.06959 0.56959 0.0
C344 C 0.42323 0.06644 0.57313 0.0
C345 C 0.40688 0.04898 0.55935 0.0
C346 C 0.42965 0.03467 0.54187 0.0
C347 C 0.54121 0.94145 0.57151 0.0
C348 C 0.51086 0.9289 0.56149 0.0
C349 C 0.54299 0.96091 0.5578 0.0
C350 C 0.51405 0.96824 0.53452 0.0
C351 C 0.4831 0.95594 0.52554 0.0
C352 C 0.48177 0.93637 0.5385 0.0
C353 C 0.51642 0.98855 0.51862 0.0
C354 C 0.49211 1.00315 0.53302 0.0
C355 C 0.54279 0.99356 0.48975 0.0
C356 C 0.56952 0.97876 0.4739 0.0
C357 C 0.55586 0.96143 0.45646 0.0
C358 C 0.58131 0.94745 0.44197 0.0
C359 C 0.62051 0.95072 0.44451 0.0
C360 C 0.63431 0.96801 0.46144 0.0
C361 C 0.60896 0.98202 0.47601 0.0
H362 H 0.64017 0.93987 0.43327 0.0
H363 H 0.40555 0.07751 0.58661 0.0
H364 H 0.56458 0.57953 0.11091 0.0
H365 H 0.56363 0.54506 0.08963 0.0
H366 H 0.54665 0.56446 0.97468 0.0
H367 H 0.54585 0.59873 0.99579 0.0
H368 H 0.50183 0.53403 0.98938 0.0
H369 H 0.63495 0.54871 0.00778 0.0
H370 H 0.69096 0.55968 0.04407 0.0
H371 H 0.67135 0.5133 0.12512 0.0
H372 H 0.61492 0.5022 0.08956 0.0
H373 H 0.5501 0.44503 0.89192 0.0
H374 H 0.54676 0.47903 0.916 0.0
H375 H 0.56663 0.45769 0.02926 0.0
H376 H 0.57057 0.42384 0.00521 0.0
H377 H 0.60891 0.48882 0.01716 0.0
H378 H 0.47698 0.47343 0.99832 0.0
H379 H 0.42084 0.46231 0.96242 0.0
H380 H 0.43754 0.50975 0.88302 0.0
H381 H 0.4941 0.52101 0.91816 0.0
C382 C 0.56035 0.57651 0.08115 0.0
C383 C 0.55561 0.59209 0.05514 0.0
C384 C 0.56016 0.55674 0.06894 0.0
C385 C 0.55557 0.55211 0.03041 0.0
C386 C 0.55038 0.5676 0.00452 0.0
C387 C 0.55039 0.5873 0.01668 0.0
C388 C 0.55612 0.5312 0.01679 0.0
C389 C 0.52546 0.52421 0.99512 0.0
C390 C 0.58645 0.51818 0.02497 0.0
C391 C 0.6205 0.52476 0.04622 0.0
C392 C 0.64243 0.54094 0.03349 0.0
C393 C 0.67428 0.54717 0.0539 0.0
C394 C 0.68464 0.53723 0.08693 0.0
C395 C 0.66325 0.521 0.09956 0.0
C396 C 0.63136 0.51473 0.07928 0.0
C397 C 0.55336 0.4476 0.92197 0.0
C398 C 0.56071 0.43174 0.94661 0.0
C399 C 0.55142 0.46704 0.93577 0.0
C400 C 0.55611 0.47098 0.9746 0.0
C401 C 0.5631 0.45511 0.99921 0.0
C402 C 0.5654 0.43574 0.9854 0.0
C403 C 0.55468 0.49164 0.98958 0.0
C404 C 0.58519 0.49859 0.01151 0.0
C405 C 0.52415 0.5046 0.98171 0.0
C406 C 0.48998 0.49795 0.96069 0.0
C407 C 0.46883 0.48141 0.97306 0.0
C408 C 0.43691 0.4751 0.95287 0.0
C409 C 0.42569 0.48529 0.92041 0.0
C410 C 0.44629 0.50186 0.90814 0.0
C411 C 0.47826 0.50822 0.9282 0.0
H412 H 0.40097 0.48037 0.90481 0.0
H413 H 0.7093 0.54207 0.1027 0.0
H414 H 0.96582 0.43225 0.54551 0.0
H415 H 0.9753 0.46431 0.51509 0.0
H416 H 0.09453 0.46269 0.54319 0.0
H417 H 0.08482 0.43049 0.57449 0.0
H418 H 0.06748 0.49932 0.55232 0.0
H419 H 0.06452 0.45202 0.45269 0.0
H420 H 0.04017 0.42362 0.41605 0.0
H421 H 0.93698 0.45521 0.39355 0.0
H422 H 0.96046 0.4837 0.43053 0.0
H423 H 0.08848 0.58387 0.42804 0.0
H424 H 0.09823 0.54976 0.45108 0.0
H425 H 0.97686 0.53995 0.45018 0.0
H426 H 0.9673 0.57381 0.42773 0.0
H427 H 1.01784 0.50778 0.42212 0.0
H428 H 1.01869 0.55274 0.53004 0.0
H429 H 0.04356 0.58102 0.56673 0.0
H430 H 0.15321 0.55337 0.57192 0.0
H431 H 0.12907 0.52504 0.53476 0.0
C432 C 0.99407 0.4387 0.5452 0.0
C433 C 0.02467 0.42873 0.56196 0.0
C434 C 0.99952 0.45703 0.5277 0.0
C435 C 0.03586 0.46573 0.52586 0.0
C436 C 0.06629 0.45621 0.54392 0.0
C437 C 0.06072 0.43786 0.56189 0.0
C438 C 0.04158 0.48464 0.50475 0.0
C439 C 0.05739 0.50104 0.52355 0.0
C440 C 0.02834 0.487 0.46718 0.0
C441 C 1.0142 0.46997 0.44458 0.0
C442 C 0.03654 0.45287 0.44011 0.0
C443 C 0.0229 0.43676 0.41927 0.0
C444 C 0.98703 0.4376 0.40253 0.0
C445 C 0.96476 0.45458 0.40653 0.0
C446 C 0.97825 0.47073 0.42739 0.0
C447 C 0.06413 0.57421 0.4321 0.0
C448 C 0.02716 0.58138 0.42629 0.0
C449 C 0.06963 0.55484 0.44547 0.0
C450 C 0.0382 0.54237 0.45264 0.0
C451 C 1.0015 0.54928 0.44489 0.0
C452 C 0.99603 0.56861 0.43217 0.0
C453 C 0.04264 0.52248 0.4701 0.0
C454 C 0.02869 0.50591 0.45058 0.0
C455 C 0.05783 0.51995 0.5068 0.0
C456 C 0.07224 0.53692 0.52922 0.0
C457 C 0.04819 0.55278 0.53872 0.0
C458 C 0.06213 0.5688 0.55965 0.0
C459 C 0.09998 0.56902 0.57153 0.0
C460 C 0.12393 0.5532 0.56261 0.0
C461 C 0.11014 0.53716 0.54163 0.0
H462 H 0.11072 0.58143 0.58775 0.0
H463 H 0.97651 0.42511 0.38641 0.0
H464 H 0.43708 0.17163 0.28307 0.0
H465 H 0.37403 0.16333 0.25933 0.0
H466 H 0.39382 0.10161 0.28293 0.0
H467 H 0.45768 0.10999 0.30722 0.0
H468 H 0.34561 0.11628 0.20797 0.0
H469 H 0.35037 0.11499 0.3445 0.0
H470 H 0.37259 0.12748 0.40618 0.0
H471 H 0.32051 0.18372 0.38432 0.0
H472 H 0.29871 0.17169 0.32211 0.0
H473 H 0.14143 0.11477 0.19281 0.0
H474 H 0.20291 0.10527 0.2206 0.0
H475 H 0.22722 0.16676 0.24394 0.0
H476 H 0.16657 0.17615 0.21594 0.0
H477 H 0.25214 0.14246 0.30117 0.0
H478 H 0.25739 0.14616 0.16332 0.0
H479 H 0.23772 0.136 0.09925 0.0
H480 H 0.27144 0.07619 0.1226 0.0
H481 H 0.2908 0.08598 0.18707 0.0
C482 C 0.42865 0.15618 0.28186 0.0
C483 C 0.45227 0.14144 0.2968 0.0
C484 C 0.39254 0.15147 0.26839 0.0
C485 C 0.37912 0.13191 0.2697 0.0
C486 C 0.40379 0.1168 0.28154 0.0
C487 C 0.44029 0.12155 0.29513 0.0
C488 C 0.33781 0.12833 0.26386 0.0
C489 C 0.325 0.12135 0.22876 0.0
C490 C 0.311 0.13532 0.29074 0.0
C491 C 0.32314 0.14248 0.32854 0.0
C492 C 0.34391 0.13007 0.35272 0.0
C493 C 0.35641 0.13706 0.38779 0.0
C494 C 0.34801 0.15639 0.39914 0.0
C495 C 0.327 0.16875 0.37548 0.0
C496 C 0.31455 0.16185 0.34032 0.0
C497 C 0.15941 0.1261 0.20517 0.0
C498 C 0.14928 0.14616 0.20263 0.0
C499 C 0.19464 0.12071 0.22065 0.0
C500 C 0.21989 0.13533 0.23406 0.0
C501 C 0.20831 0.15521 0.23389 0.0
C502 C 0.1736 0.16057 0.21797 0.0
C503 C 0.25972 0.13062 0.24503 0.0
C504 C 0.2724 0.13645 0.28096 0.0
C505 C 0.28629 0.12255 0.21891 0.0
C506 C 0.27505 0.11673 0.18011 0.0
C507 C 0.26033 0.13081 0.15487 0.0
C508 C 0.24928 0.12513 0.11849 0.0
C509 C 0.25321 0.10544 0.1069 0.0
C510 C 0.26832 0.09142 0.13165 0.0
C511 C 0.27933 0.09702 0.16811 0.0
H512 H 0.24464 0.10107 0.07872 0.0
H513 H 0.35772 0.16178 0.42629 0.0
H514 H 0.44054 0.90845 0.69228 0.0
H515 H 0.37562 0.91621 0.71521 0.0
H516 H 0.35027 0.85372 0.72178 0.0
H517 H 0.41396 0.84609 0.69903 0.0
H518 H 0.29862 0.87335 0.67912 0.0
H519 H 0.3615 0.88162 0.80061 0.0
H520 H 0.40693 0.89738 0.84433 0.0
H521 H 0.35379 0.95375 0.82659 0.0
H522 H 0.30832 0.93834 0.78234 0.0
H523 H 0.14634 0.84677 0.79316 0.0
H524 H 0.20659 0.85434 0.7622 0.0
H525 H 0.18339 0.91686 0.77163 0.0
H526 H 0.12207 0.90914 0.80325 0.0
H527 H 0.25632 0.90697 0.7968 0.0
H528 H 0.18484 0.89606 0.68475 0.0
H529 H 0.13915 0.8791 0.64293 0.0
H530 H 0.20856 0.82693 0.64324 0.0
H531 H 0.2544 0.84344 0.68546 0.0
C532 C 0.42134 0.89647 0.69977 0.0
C533 C 0.43223 0.87668 0.69386 0.0
C534 C 0.3842 0.90088 0.71257 0.0
C535 C 0.35778 0.88553 0.7197 0.0
C536 C 0.36979 0.86584 0.716 0.0
C537 C 0.40638 0.86149 0.7032 0.0
C538 C 0.31684 0.88932 0.7286 0.0
C539 C 0.28939 0.88075 0.70483 0.0
C540 C 0.30452 0.89966 0.7613 0.0
C541 C 0.33189 0.90889 0.78777 0.0
C542 C 0.35976 0.89741 0.80573 0.0
C543 C 0.38545 0.90627 0.83068 0.0
C544 C 0.38335 0.92657 0.83812 0.0
C545 C 0.35546 0.93804 0.82072 0.0
C546 C 0.32972 0.92925 0.79571 0.0
C547 C 0.15351 0.86215 0.78779 0.0
C548 C 0.12929 0.87736 0.80017 0.0
C549 C 0.18808 0.86648 0.77007 0.0
C550 C 0.19961 0.88617 0.76423 0.0
C551 C 0.17504 0.90153 0.77565 0.0
C552 C 0.13987 0.89714 0.79324 0.0
C553 C 0.23836 0.8901 0.74822 0.0
C554 C 0.26539 0.9001 0.7705 0.0
C555 C 0.25046 0.88099 0.71412 0.0
C556 C 0.22309 0.87103 0.68835 0.0
C557 C 0.19029 0.88094 0.67605 0.0
C558 C 0.16436 0.8714 0.65226 0.0
C559 C 0.17098 0.85196 0.64043 0.0
C560 C 0.20352 0.84201 0.65237 0.0
C561 C 0.22953 0.85147 0.67616 0.0
H562 H 0.15096 0.84461 0.62194 0.0
H563 H 0.40325 0.9334 0.85746 0.0
H564 H 0.87809 0.88172 0.87664 0.0
H565 H 0.82322 0.88891 0.83733 0.0
H566 H 0.89693 0.89773 0.74083 0.0
H567 H 0.95266 0.88999 0.78018 0.0
H568 H 0.81877 0.92577 0.7606 0.0
H569 H 0.86974 0.86074 0.72739 0.0
H570 H 0.89847 0.82884 0.74531 0.0
H571 H 0.80146 0.81547 0.81545 0.0
H572 H 0.77257 0.84753 0.79857 0.0
H573 H 0.66733 0.9109 0.62785 0.0
H574 H 0.72855 0.91276 0.65998 0.0
H575 H 0.68451 0.87579 0.74979 0.0
H576 H 0.62319 0.87372 0.71765 0.0
H577 H 0.7524 0.86298 0.72828 0.0
H578 H 0.70008 0.92617 0.76148 0.0
H579 H 0.67117 0.95881 0.74988 0.0
H580 H 0.76882 0.97637 0.68416 0.0
H581 H 0.79812 0.94372 0.69495 0.0
C582 C 0.88294 0.88563 0.84725 0.0
C583 C 0.91982 0.88507 0.83148 0.0
C584 C 0.85143 0.88979 0.82484 0.0
C585 C 0.85594 0.89369 0.78616 0.0
C586 C 0.89291 0.89479 0.77073 0.0
C587 C 0.92472 0.89044 0.79325 0.0
C588 C 0.82154 0.89397 0.76187 0.0
C589 C 0.80464 0.91209 0.75258 0.0
C590 C 0.8025 0.87612 0.75272 0.0
C591 C 0.81921 0.8566 0.76203 0.0
C592 C 0.85471 0.85107 0.74689 0.0
C593 C 0.871 0.83296 0.75683 0.0
C594 C 0.85184 0.82016 0.78158 0.0
C595 C 0.81629 0.82542 0.79632 0.0
C596 C 0.79994 0.84355 0.78658 0.0
C597 C 0.67042 0.90331 0.65464 0.0
C598 C 0.64017 0.89206 0.66997 0.0
C599 C 0.70557 0.90443 0.67307 0.0
C600 C 0.71133 0.89447 0.70748 0.0
C601 C 0.68096 0.88354 0.72321 0.0
C602 C 0.64578 0.88241 0.7048 0.0
C603 C 0.74928 0.89487 0.72642 0.0
C604 C 0.7667 0.87677 0.73529 0.0
C605 C 0.76864 0.91279 0.7352 0.0
C606 C 0.75109 0.93242 0.72866 0.0
C607 C 0.71524 0.93693 0.74427 0.0
C608 C 0.69882 0.95544 0.7379 0.0
C609 C 0.71809 0.96963 0.7162 0.0
C610 C 0.75389 0.96535 0.70091 0.0
C611 C 0.77043 0.94685 0.70716 0.0
H612 H 0.70533 0.98396 0.71131 0.0
H613 H 0.8645 0.80615 0.78926 0.0
H614 H 0.69646 0.13002 0.38554 0.0
H615 H 0.7534 0.1254 0.347 0.0
H616 H 0.6852 0.12618 0.24592 0.0
H617 H 0.6278 0.13136 0.28466 0.0
H618 H 0.78508 0.10179 0.29624 0.0
H619 H 0.73047 0.15273 0.17993 0.0
H620 H 0.68142 0.17828 0.1702 0.0
H621 H 0.68859 0.19496 0.28732 0.0
H622 H 0.7375 0.1695 0.29764 0.0
H623 H 0.94639 0.1212 0.16938 0.0
H624 H 0.88417 0.11053 0.19517 0.0
H625 H 0.8686 0.16848 0.24438 0.0
H626 H 0.92939 0.17913 0.21832 0.0
H627 H 0.80682 0.15871 0.20998 0.0
H628 H 0.89217 0.12572 0.2971 0.0
H629 H 0.9435 0.10261 0.31405 0.0
H630 H 0.88025 0.05424 0.26616 0.0
H631 H 0.82871 0.07714 0.24856 0.0
C632 C 0.69335 0.12872 0.35514 0.0
C633 C 0.65758 0.13131 0.33818 0.0
C634 C 0.72606 0.12599 0.33307 0.0
C635 C 0.72393 0.12582 0.29341 0.0
C636 C 0.68776 0.12658 0.27645 0.0
C637 C 0.65485 0.12935 0.29864 0.0
C638 C 0.75982 0.12749 0.27058 0.0
C639 C 0.78965 0.11407 0.27691 0.0
C640 C 0.76628 0.14361 0.24567 0.0
C641 C 0.73728 0.15912 0.23958 0.0
C642 C 0.72155 0.1619 0.20353 0.0
C643 C 0.69372 0.17634 0.19794 0.0
C644 C 0.68172 0.18821 0.22815 0.0
C645 C 0.69765 0.1857 0.26397 0.0
C646 C 0.72538 0.17126 0.26972 0.0
C647 C 0.92979 0.1315 0.18614 0.0
C648 C 0.94273 0.15104 0.19161 0.0
C649 C 0.89418 0.12543 0.2008 0.0
C650 C 0.87129 0.13875 0.22157 0.0
C651 C 0.88516 0.15797 0.22804 0.0
C652 C 0.92018 0.16403 0.21321 0.0
C653 C 0.83259 0.13332 0.23633 0.0
C654 C 0.8021 0.14607 0.22841 0.0
C655 C 0.82597 0.11689 0.26049 0.0
C656 C 0.85685 0.10316 0.27111 0.0
C657 C 0.88936 0.11018 0.28994 0.0
C658 C 0.91846 0.09712 0.29971 0.0
C659 C 0.9152 0.07698 0.29107 0.0
C660 C 0.88277 0.06985 0.27276 0.0
C661 C 0.85361 0.08286 0.2629 0.0
H662 H 0.93775 0.06689 0.29866 0.0
H663 H 0.66016 0.19936 0.22378 0.0
H664 H 0.9117 0.62134 0.35362 0.0
H665 H 0.85121 0.61501 0.32206 0.0
H666 H 0.89346 0.64459 0.22195 0.0
H667 H 0.95449 0.65082 0.25372 0.0
H668 H 0.82735 0.66069 0.2484 0.0
H669 H 0.87158 0.59548 0.21974 0.0
H670 H 0.89951 0.56281 0.23312 0.0
H671 H 0.80784 0.5497 0.31017 0.0
H672 H 0.7796 0.58242 0.29767 0.0
H673 H 0.6742 0.64591 0.12961 0.0
H674 H 0.73588 0.63921 0.15734 0.0
H675 H 0.68157 0.62293 0.26262 0.0
H676 H 0.61867 0.62991 0.23477 0.0
H677 H 0.7523 0.59863 0.2349 0.0
H678 H 0.71024 0.66419 0.2669 0.0
H679 H 0.6815 0.69668 0.25356 0.0
H680 H 0.76929 0.70894 0.17162 0.0
H681 H 0.79821 0.67634 0.18407 0.0
C682 C 0.90859 0.62576 0.32431 0.0
C683 C 0.93786 0.63631 0.30587 0.0
C684 C 0.87394 0.62219 0.30631 0.0
C685 C 0.86764 0.6293 0.26958 0.0
C686 C 0.8977 0.6389 0.25026 0.0
C687 C 0.93271 0.64226 0.26821 0.0
C688 C 0.82846 0.62889 0.25361 0.0
C689 C 0.81128 0.64706 0.24493 0.0
C690 C 0.80677 0.6112 0.25045 0.0
C691 C 0.82366 0.5915 0.25803 0.0
C692 C 0.85754 0.58571 0.2398 0.0
C693 C 0.8734 0.56716 0.24717 0.0
C694 C 0.85552 0.55421 0.27255 0.0
C695 C 0.82168 0.55976 0.29054 0.0
C696 C 0.80571 0.5783 0.28329 0.0
C697 C 0.67508 0.64059 0.15853 0.0
C698 C 0.64151 0.63869 0.18018 0.0
C699 C 0.71048 0.6367 0.17426 0.0
C700 C 0.71338 0.63077 0.21209 0.0
C701 C 0.67987 0.62747 0.23328 0.0
C702 C 0.64402 0.63143 0.21739 0.0
C703 C 0.75167 0.63037 0.22971 0.0
C704 C 0.76856 0.61218 0.2386 0.0
C705 C 0.77318 0.64803 0.23346 0.0
C706 C 0.75616 0.66774 0.22614 0.0
C707 C 0.72321 0.67374 0.24578 0.0
C708 C 0.70692 0.69218 0.23843 0.0
C709 C 0.72349 0.70484 0.21167 0.0
C710 C 0.75645 0.6991 0.1923 0.0
C711 C 0.77283 0.68065 0.19952 0.0
H712 H 0.71084 0.71912 0.20602 0.0
H713 H 0.86783 0.53985 0.27821 0.0
H714 H 0.90707 0.37859 0.64309 0.0
H715 H 0.84586 0.38697 0.6709 0.0
H716 H 0.89823 0.39271 0.78053 0.0
H717 H 0.96039 0.38392 0.75232 0.0
H718 H 0.83718 0.3691 0.78406 0.0
H719 H 0.85939 0.43338 0.73408 0.0
H720 H 0.87759 0.4584 0.68641 0.0
H721 H 0.78576 0.43943 0.61527 0.0
H722 H 0.76732 0.41408 0.66225 0.0
H723 H 0.66164 0.39085 0.86659 0.0
H724 H 0.72513 0.39827 0.84172 0.0
H725 H 0.68707 0.38427 0.72896 0.0
H726 H 0.62285 0.37698 0.75406 0.0
H727 H 0.74247 0.41579 0.73146 0.0
H728 H 0.72595 0.3492 0.77808 0.0
H729 H 0.70783 0.32397 0.82542 0.0
H730 H 0.79026 0.34759 0.9027 0.0
H731 H 0.8084 0.37319 0.85602 0.0
C732 C 0.90582 0.38207 0.67303 0.0
C733 C 0.93855 0.38061 0.69555 0.0
C734 C 0.8707 0.387 0.6889 0.0
C735 C 0.86718 0.39069 0.72783 0.0
C736 C 0.90019 0.39005 0.75035 0.0
C737 C 0.93575 0.3852 0.73425 0.0
C738 C 0.8284 0.39305 0.74488 0.0
C739 C 0.81685 0.37968 0.77317 0.0
C740 C 0.80126 0.40643 0.72998 0.0
C741 C 0.81211 0.42173 0.70165 0.0
C742 C 0.84323 0.43444 0.70816 0.0
C743 C 0.85356 0.4487 0.68127 0.0
C744 C 0.83288 0.45048 0.64781 0.0
C745 C 0.80176 0.43803 0.64121 0.0
C746 C 0.79131 0.42373 0.66799 0.0
C747 C 0.66645 0.39006 0.83628 0.0
C748 C 0.63735 0.38352 0.81216 0.0
C749 C 0.70283 0.39417 0.82214 0.0
C750 C 0.71113 0.3915 0.78358 0.0
C751 C 0.68133 0.38644 0.75884 0.0
C752 C 0.6446 0.38241 0.77308 0.0
C753 C 0.75153 0.39178 0.7703 0.0
C754 C 0.76316 0.4055 0.74268 0.0
C755 C 0.77887 0.37873 0.78575 0.0
C756 C 0.76821 0.36325 0.81374 0.0
C757 C 0.73997 0.34912 0.80529 0.0
C758 C 0.72973 0.33474 0.83199 0.0
C759 C 0.7478 0.33422 0.86709 0.0
C760 C 0.77623 0.34804 0.87553 0.0
C761 C 0.7865 0.36249 0.84897 0.0
H762 H 0.73985 0.32306 0.88772 0.0
H763 H 0.84093 0.46153 0.62702 0.0
H764 H 0.3916 0.39383 0.88956 0.0
H765 H 0.33369 0.40071 0.85431 0.0
H766 H 0.39559 0.39463 0.74924 0.0
H767 H 0.45417 0.38767 0.7847 0.0
H768 H 0.33484 0.42457 0.74836 0.0
H769 H 0.35434 0.35598 0.77896 0.0
H770 H 0.36876 0.32819 0.82171 0.0
H771 H 0.27036 0.34197 0.88929 0.0
H772 H 0.25578 0.37012 0.84731 0.0
H773 H 0.18836 0.38887 0.62764 0.0
H774 H 0.24448 0.39743 0.66446 0.0
H775 H 0.17813 0.39349 0.76736 0.0
H776 H 0.12151 0.38469 0.73021 0.0
H777 H 0.24032 0.371 0.77152 0.0
H778 H 0.21735 0.43801 0.73688 0.0
H779 H 0.20369 0.46592 0.69418 0.0
H780 H 0.30784 0.45524 0.63348 0.0
H781 H 0.32189 0.42706 0.67548 0.0
C782 C 0.39325 0.39456 0.85894 0.0
C783 C 0.42747 0.39011 0.83993 0.0
C784 C 0.36003 0.39845 0.83882 0.0
C785 C 0.36006 0.39786 0.79912 0.0
C786 C 0.39487 0.39515 0.77989 0.0
C787 C 0.4284 0.39128 0.80016 0.0
C788 C 0.32312 0.39753 0.77849 0.0
C789 C 0.31429 0.41278 0.75305 0.0
C790 C 0.29586 0.38238 0.78527 0.0
C791 C 0.30421 0.36529 0.81024 0.0
C792 C 0.33595 0.35319 0.80312 0.0
C793 C 0.34414 0.33736 0.82719 0.0
C794 C 0.32054 0.33334 0.85825 0.0
C795 C 0.28865 0.34512 0.86525 0.0
C796 C 0.28041 0.36102 0.84132 0.0
C797 C 0.18539 0.39042 0.65805 0.0
C798 C 0.15043 0.38618 0.67599 0.0
C799 C 0.2176 0.39537 0.67914 0.0
C800 C 0.21578 0.39618 0.71882 0.0
C801 C 0.18033 0.39301 0.73678 0.0
C802 C 0.14785 0.38819 0.71553 0.0
C803 C 0.25163 0.3981 0.74122 0.0
C804 C 0.26049 0.38299 0.76697 0.0
C805 C 0.27882 0.41335 0.73452 0.0
C806 C 0.27052 0.4303 0.70918 0.0
C807 C 0.2372 0.4415 0.71424 0.0
C808 C 0.22942 0.45739 0.69019 0.0
C809 C 0.25484 0.46233 0.66109 0.0
C810 C 0.28816 0.45139 0.65603 0.0
C811 C 0.29607 0.43547 0.67998 0.0
H812 H 0.24876 0.47464 0.6425 0.0
H813 H 0.32691 0.32108 0.87685 0.0
H814 H 0.12065 0.63056 0.2825 0.0
H815 H 0.18073 0.62207 0.25013 0.0
H816 H 0.24379 0.6503 0.33978 0.0
H817 H 0.18444 0.6591 0.37129 0.0
H818 H 0.26756 0.664 0.2752 0.0
H819 H 0.24233 0.59878 0.325 0.0
H820 H 0.20474 0.56829 0.33518 0.0
H821 H 0.20315 0.55766 0.21533 0.0
H822 H 0.24031 0.58824 0.20439 0.0
H823 H 0.45515 0.64164 0.22388 0.0
H824 H 0.39501 0.64071 0.25899 0.0
H825 H 0.33996 0.61336 0.16338 0.0
H826 H 0.40032 0.61362 0.12856 0.0
H827 H 0.31086 0.59863 0.22791 0.0
H828 H 0.3359 0.66386 0.17842 0.0
H829 H 0.37605 0.69349 0.1685 0.0
H830 H 0.37814 0.7039 0.2884 0.0
H831 H 0.33848 0.67413 0.29909 0.0
C832 C 0.14742 0.63448 0.29562 0.0
C833 C 0.14783 0.64558 0.32931 0.0
C834 C 0.18179 0.62969 0.27709 0.0
C835 C 0.21704 0.63566 0.29232 0.0
C836 C 0.21718 0.64571 0.3271 0.0
C837 C 0.18313 0.65066 0.34522 0.0
C838 C 0.25377 0.6329 0.27133 0.0
C839 C 0.2771 0.64962 0.26534 0.0
C840 C 0.26606 0.6143 0.25732 0.0
C841 C 0.24374 0.59592 0.26385 0.0
C842 C 0.23368 0.59003 0.30079 0.0
C843 C 0.21251 0.57271 0.30671 0.0
C844 C 0.20146 0.56108 0.27592 0.0
C845 C 0.21166 0.5667 0.23915 0.0
C846 C 0.23281 0.58402 0.23308 0.0
C847 C 0.43042 0.63515 0.21049 0.0
C848 C 0.43259 0.6279 0.17319 0.0
C849 C 0.39592 0.63469 0.23057 0.0
C850 C 0.36257 0.62738 0.21358 0.0
C851 C 0.36513 0.61917 0.17712 0.0
C852 C 0.39975 0.61938 0.15717 0.0
C853 C 0.32475 0.62964 0.23268 0.0
C854 C 0.30118 0.61295 0.23792 0.0
C855 C 0.31207 0.64828 0.24605 0.0
C856 C 0.33443 0.6667 0.23957 0.0
C857 C 0.34497 0.67246 0.20267 0.0
C858 C 0.36768 0.68926 0.19691 0.0
C859 C 0.3797 0.70055 0.22781 0.0
C860 C 0.36883 0.69513 0.26451 0.0
C861 C 0.34619 0.67831 0.27043 0.0
H862 H 0.3974 0.71351 0.2233 0.0
H863 H 0.18508 0.54767 0.28056 0.0
H864 H 0.97104 0.31085 0.74715 0.0
H865 H 0.9478 0.28683 0.79421 0.0
H866 H 0.06284 0.27643 0.83017 0.0
H867 H 0.08618 0.30083 0.78517 0.0
H868 H 1.00436 0.24092 0.80324 0.0
H869 H 0.02987 0.29908 0.88822 0.0
H870 H 1.0164 0.33366 0.90639 0.0
H871 H 0.89719 0.31999 0.91503 0.0
H872 H 0.91003 0.28536 0.89646 0.0
H873 H 0.05193 0.18717 0.96136 0.0
H874 H 0.04115 0.20906 0.90833 0.0
H875 H 0.93343 0.22668 0.95684 0.0
H876 H 0.94575 0.20582 0.01215 0.0
H877 H 0.96651 0.25782 0.93486 0.0
H878 H 0.94173 0.19823 0.87061 0.0
H879 H 0.94971 0.16354 0.85032 0.0
H880 H 0.05641 0.17837 0.79745 0.0
H881 H 0.04941 0.21309 0.81787 0.0
C882 C 0.99139 0.30373 0.76543 0.0
C883 C 0.03069 0.30769 0.76174 0.0
C884 C 0.97801 0.28992 0.79214 0.0
C885 C 1.00372 0.27981 0.81528 0.0
C886 C 0.04264 0.28399 0.81225 0.0
C887 C 0.05593 0.29791 0.78617 0.0
C888 C 0.99105 0.26435 0.84223 0.0
C889 C 0.99584 0.24446 0.83202 0.0
C890 C 0.97831 0.26907 0.87907 0.0
C891 C 0.97083 0.28977 0.89053 0.0
C892 C 1.00078 0.30351 0.89366 0.0
C893 C 0.99327 0.3231 0.90412 0.0
C894 C 0.95594 0.32904 0.91174 0.0
C895 C 0.92607 0.31538 0.90905 0.0
C896 C 0.93345 0.29578 0.89858 0.0
C897 C 0.02588 0.19567 0.96095 0.0
C898 C 1.00005 0.19494 0.9915 0.0
C899 C 1.01934 0.20798 0.93003 0.0
C900 C 0.98611 0.21941 0.92799 0.0
C901 C 0.95926 0.218 0.95758 0.0
C902 C 0.96616 0.20589 0.98905 0.0
C903 C 0.98176 0.23406 0.89669 0.0
C904 C 0.9738 0.2539 0.90593 0.0
C905 C 0.99069 0.22918 0.85857 0.0
C906 C 0.99503 0.2083 0.84588 0.0
C907 C 0.96699 0.19409 0.85481 0.0
C908 C 0.97134 0.17441 0.84328 0.0
C909 C 1.00355 0.16876 0.82262 0.0
C910 C 0.03145 0.18278 0.8134 0.0
C911 C 0.02726 0.20248 0.82488 0.0
H912 H 1.00687 0.15351 0.81374 0.0
H913 H 0.95018 0.34421 0.91982 0.0
H914 H 0.52382 0.79995 0.51153 0.0
H915 H 0.53278 0.77697 0.45932 0.0
H916 H 0.65377 0.78745 0.46164 0.0
H917 H 0.64527 0.81023 0.5155 0.0
H918 H 0.61587 0.78718 0.38509 0.0
H919 H 0.63181 0.74679 0.49481 0.0
H920 H 0.61603 0.7346 0.55883 0.0
H921 H 0.50704 0.71449 0.51981 0.0
H922 H 0.5219 0.72684 0.45568 0.0
H923 H 0.60828 0.70816 0.24687 0.0
H924 H 0.63123 0.7275 0.30125 0.0
H925 H 0.52048 0.72243 0.35392 0.0
H926 H 0.49821 0.7027 0.30104 0.0
H927 H 0.57301 0.71781 0.40515 0.0
H928 H 0.5505 0.7644 0.30194 0.0
H929 H 0.56205 0.77796 0.23801 0.0
H930 H 0.67992 0.78705 0.26456 0.0
H931 H 0.66909 0.77333 0.32854 0.0
C932 C 0.55252 0.79725 0.50152 0.0
C933 C 0.58393 0.80666 0.5185 0.0
C934 C 0.55751 0.7842 0.47134 0.0
C935 C 0.59394 0.78031 0.45693 0.0
C936 C 0.6254 0.79022 0.47251 0.0
C937 C 0.62047 0.80324 0.5032 0.0
C938 C 0.5982 0.76544 0.42622 0.0
C939 C 0.60755 0.77186 0.38953 0.0
C940 C 0.58686 0.74554 0.43201 0.0
C941 C 0.57795 0.73782 0.47044 0.0
C942 C 0.60438 0.73988 0.49993 0.0
C943 C 0.59561 0.73293 0.53624 0.0
C944 C 0.56054 0.72379 0.54339 0.0
C945 C 0.5342 0.72156 0.51422 0.0
C946 C 0.54281 0.72851 0.47786 0.0
C947 C 0.58911 0.71096 0.27035 0.0
C948 C 0.55122 0.70412 0.26929 0.0
C949 C 0.60214 0.72214 0.30127 0.0
C950 C 0.57744 0.72668 0.33157 0.0
C951 C 0.54013 0.71922 0.33098 0.0
C952 C 0.52724 0.70809 0.30038 0.0
C953 C 0.58908 0.73971 0.3636 0.0
C954 C 0.58259 0.73294 0.40069 0.0
C955 C 0.60269 0.7593 0.35807 0.0
C956 C 0.6091 0.76763 0.31977 0.0
C957 C 0.57892 0.76917 0.29402 0.0
C958 C 0.58533 0.7769 0.25781 0.0
C959 C 0.62173 0.7833 0.24718 0.0
C960 C 0.65177 0.78204 0.2728 0.0
C961 C 0.64551 0.7743 0.30903 0.0
H962 H 0.62664 0.78928 0.21914 0.0
H963 H 0.5538 0.71843 0.57153 0.0
H964 H 0.97449 0.7837 0.96192 0.0
H965 H 0.97399 0.76145 0.01648 0.0
H966 H 1.00029 0.81068 0.08987 0.0
H967 H 1.00247 0.83283 0.03533 0.0
H968 H 0.04703 0.78107 0.10231 0.0
H969 H 0.91156 0.78752 0.08947 0.0
H970 H 0.85016 0.78622 0.05616 0.0
H971 H 0.86537 0.7241 0.035 0.0
H972 H 0.92715 0.72508 0.06776 0.0
H973 H 1.01725 0.74164 0.28171 0.0
H974 H 1.00531 0.75967 0.22341 0.0
H975 H 1.00208 0.70469 0.16133 0.0
H976 H 1.01495 0.68635 0.22005 0.0
H977 H 0.94435 0.73426 0.14013 0.0
H978 H 0.07926 0.72798 0.15474 0.0
H979 H 0.13987 0.7295 0.1894 0.0
H980 H 0.12481 0.79189 0.2076 0.0
H981 H 0.06377 0.79067 0.17355 0.0
C982 C 0.97997 0.78982 0.98971 0.0
C983 C 0.98875 0.81007 0.99415 0.0
C984 C 0.97929 0.77709 0.02095 0.0
C985 C 0.98698 0.78438 0.05735 0.0
C986 C 0.99428 0.80471 0.06205 0.0
C987 C 0.99513 0.81742 0.03083 0.0
C988 C 0.99033 0.77069 0.09012 0.0
C989 C 0.02432 0.77104 0.11077 0.0
C990 C 0.9613 0.75704 0.10042 0.0
C991 C 0.92419 0.75643 0.08071 0.0
C992 C 0.90198 0.77362 0.07742 0.0
C993 C 0.86707 0.77293 0.0587 0.0
C994 C 0.85393 0.7551 0.04338 0.0
C995 C 0.87562 0.73791 0.04683 0.0
C996 C 0.91057 0.73852 0.0655 0.0
C997 C 1.01414 0.7333 0.25574 0.0
C998 C 1.01794 0.71256 0.25544 0.0
C999 C 1.007 0.74365 0.22247 0.0
C1000 C 1.00337 0.73354 0.18803 0.0
C1001 C 1.00491 0.71275 0.1877 0.0
C1002 C 1.01223 0.7023 0.22122 0.0
C1003 C 1.0006 0.74507 0.15248 0.0
C1004 C 0.96698 0.74426 0.13135 0.0
C1005 C 0.02991 0.75837 0.14161 0.0
C1006 C 0.06677 0.7592 0.16186 0.0
C1007 C 0.08871 0.74199 0.1664 0.0
C1008 C 0.12318 0.74281 0.18589 0.0
C1009 C 0.13614 0.76077 0.20076 0.0
C1010 C 0.11471 0.77797 0.19609 0.0
C1011 C 0.08019 0.77724 0.17667 0.0
H1012 H 0.16284 0.76137 0.21584 0.0
H1013 H 0.82689 0.7546 0.0289 0.0
H1014 H 0.59418 0.30753 0.7676 0.0
H1015 H 0.61167 0.28335 0.71849 0.0
H1016 H 0.49944 0.2881 0.67072 0.0
H1017 H 0.48209 0.31217 0.71909 0.0
H1018 H 0.51909 0.24992 0.68162 0.0
H1019 H 0.57682 0.30925 0.6284 0.0
H1020 H 0.62028 0.33803 0.62908 0.0
H1021 H 0.71585 0.29929 0.64232 0.0
H1022 H 0.67285 0.27027 0.64222 0.0
H1023 H 0.51725 0.21548 0.49657 0.0
H1024 H 0.51861 0.23608 0.55317 0.0
H1025 H 0.63191 0.21572 0.57785 0.0
H1026 H 0.63088 0.19499 0.52038 0.0
H1027 H 0.62219 0.25769 0.58609 0.0
H1028 H 0.56439 0.19805 0.63005 0.0
H1029 H 0.52042 0.16951 0.6282 0.0
H1030 H 0.42482 0.20884 0.63259 0.0
H1031 H 0.4682 0.23765 0.63387 0.0
C1032 C 0.5735 0.30362 0.74627 0.0
C1033 C 0.53658 0.3116 0.74754 0.0
C1034 C 0.58348 0.28976 0.7183 0.0
C1035 C 0.55675 0.28381 0.69107 0.0
C1036 C 0.52038 0.29226 0.6917 0.0
C1037 C 0.51046 0.30601 0.71947 0.0
C1038 C 0.56554 0.26833 0.66241 0.0
C1039 C 0.54159 0.25166 0.66069 0.0
C1040 C 0.59578 0.2702 0.63595 0.0
C1041 C 0.6216 0.28762 0.6358 0.0
C1042 C 0.60707 0.30688 0.63179 0.0
C1043 C 0.63162 0.32323 0.632 0.0
C1044 C 0.67079 0.3205 0.63588 0.0
C1045 C 0.6855 0.30139 0.63941 0.0
C1046 C 0.66106 0.28499 0.63926 0.0
C1047 C 0.54263 0.21545 0.51382 0.0
C1048 C 0.57408 0.2037 0.50388 0.0
C1049 C 0.54326 0.22715 0.54632 0.0
C1050 C 0.57527 0.22736 0.56983 0.0
C1051 C 0.60693 0.21575 0.56005 0.0
C1052 C 0.6062 0.20384 0.52745 0.0
C1053 C 0.57476 0.23974 0.60458 0.0
C1054 C 0.60023 0.25576 0.60752 0.0
C1055 C 0.54588 0.23732 0.63229 0.0
C1056 C 0.5196 0.22002 0.63186 0.0
C1057 C 0.53399 0.20062 0.63037 0.0
C1058 C 0.50917 0.18439 0.62945 0.0
C1059 C 0.46985 0.18736 0.63023 0.0
C1060 C 0.45528 0.20656 0.632 0.0
C1061 C 0.47998 0.22285 0.63288 0.0
H1062 H 0.45068 0.17477 0.6295 0.0
H1063 H 0.68975 0.33318 0.63605 0.0
H1064 H 0.54944 0.83367 0.80732 0.0
H1065 H 0.53104 0.81385 0.86266 0.0
H1066 H 0.47632 0.77137 0.78925 0.0
H1067 H 0.49313 0.79203 0.73409 0.0
H1068 H 0.43739 0.77348 0.85229 0.0
H1069 H 0.56885 0.76469 0.82315 0.0
H1070 H 0.63497 0.77482 0.80926 0.0
H1071 H 0.64302 0.80213 0.91876 0.0
H1072 H 0.57672 0.79241 0.93311 0.0
H1073 H 0.46473 0.69256 0.98622 0.0
H1074 H 0.46243 0.71451 0.93103 0.0
H1075 H 0.49491 0.764 1.00107 0.0
H1076 H 0.49612 0.74239 0.05646 0.0
H1077 H 0.54365 0.75691 0.93831 0.0
H1078 H 0.40955 0.76344 0.96613 0.0
H1079 H 0.34458 0.7508 0.9777 0.0
H1080 H 0.34384 0.72388 0.86753 0.0
H1081 H 0.40906 0.73613 0.8555 0.0
C1082 C 0.53282 0.82029 0.80335 0.0
C1083 C 0.52264 0.81423 0.76685 0.0
C1084 C 0.52257 0.80888 0.83478 0.0
C1085 C 0.50318 0.79077 0.83014 0.0
C1086 C 0.49143 0.78519 0.79363 0.0
C1087 C 0.50098 0.79692 0.76219 0.0
C1088 C 0.4973 0.77727 0.86308 0.0
C1089 C 0.46074 0.76968 0.87083 0.0
C1090 C 0.52768 0.77224 0.88745 0.0
C1091 C 0.56769 0.77797 0.87906 0.0
C1092 C 0.58464 0.77296 0.84418 0.0
C1093 C 0.62216 0.77862 0.83623 0.0
C1094 C 0.64315 0.78915 0.86307 0.0
C1095 C 0.6267 0.79399 0.89797 0.0
C1096 C 0.58917 0.7884 0.90604 0.0
C1097 C 0.47018 0.70822 0.99015 0.0
C1098 C 0.48108 0.71565 0.02575 0.0
C1099 C 0.46904 0.72073 0.9585 0.0
C1100 C 0.4788 0.74084 0.96194 0.0
C1101 C 0.48755 0.74849 0.99777 0.0
C1102 C 0.48837 0.73609 0.02937 0.0
C1103 C 0.48372 0.75352 0.92791 0.0
C1104 C 0.52031 0.76078 0.9198 0.0
C1105 C 0.45359 0.75782 0.90291 0.0
C1106 C 0.41434 0.75053 0.91008 0.0
C1107 C 0.39568 0.75467 0.9445 0.0
C1108 C 0.35877 0.74761 0.95111 0.0
C1109 C 0.34014 0.7365 0.92341 0.0
C1110 C 0.35833 0.73247 0.88899 0.0
C1111 C 0.39525 0.73948 0.88224 0.0
H1112 H 0.31156 0.73105 0.92858 0.0
H1113 H 0.6722 0.79352 0.85686 0.0
H1114 H 0.09034 0.28207 0.54527 0.0
H1115 H 0.08951 0.2603 0.49019 0.0
H1116 H 0.07321 0.31083 0.4174 0.0
H1117 H 0.07134 0.33253 0.47248 0.0
H1118 H 0.02547 0.28365 0.39895 0.0
H1119 H 0.15979 0.28388 0.42332 0.0
H1120 H 0.21778 0.27976 0.46141 0.0
H1121 H 0.18983 0.2185 0.47969 0.0
H1122 H 0.13138 0.22232 0.4421 0.0
H1123 H 0.07354 0.24402 0.22152 0.0
H1124 H 0.07874 0.26103 0.28174 0.0
H1125 H 0.05756 0.20626 0.34093 0.0
H1126 H 0.05061 0.18895 0.28028 0.0
H1127 H 0.1221 0.23255 0.36876 0.0
H1128 H 0.98832 0.23306 0.34076 0.0
H1129 H 0.93258 0.23801 0.29987 0.0
H1130 H 0.96259 0.29933 0.28608 0.0
H1131 H 1.01889 0.29467 0.32643 0.0
C1132 C 0.08652 0.2886 0.51756 0.0
C1133 C 0.08064 0.30912 0.51352 0.0
C1134 C 0.08655 0.27611 0.48596 0.0
C1135 C 0.08154 0.28389 0.44949 0.0
C1136 C 0.07708 0.30444 0.44523 0.0
C1137 C 0.07652 0.3169 0.47683 0.0
C1138 C 0.07859 0.2706 0.41596 0.0
C1139 C 0.04691 0.27266 0.39225 0.0
C1140 C 0.10587 0.25577 0.40765 0.0
C1141 C 0.141 0.25344 0.43024 0.0
C1142 C 0.16585 0.26957 0.43572 0.0
C1143 C 0.19883 0.26728 0.45717 0.0
C1144 C 0.20742 0.24889 0.47305 0.0
C1145 C 0.1831 0.23274 0.46742 0.0
C1146 C 0.15006 0.23496 0.44602 0.0
C1147 C 0.06943 0.23545 0.24706 0.0
C1148 C 0.06089 0.21504 0.24566 0.0
C1149 C 0.07284 0.24525 0.2816 0.0
C1150 C 0.06828 0.23492 0.31567 0.0
C1151 C 0.0612 0.21446 0.31479 0.0
C1152 C 0.05728 0.2046 0.28005 0.0
C1153 C 0.0695 0.24598 0.35185 0.0
C1154 C 0.10068 0.24348 0.3759 0.0
C1155 C 0.04203 0.26056 0.36038 0.0
C1156 C 1.00801 0.26347 0.33636 0.0
C1157 C 0.98322 0.24756 0.32875 0.0
C1158 C 0.95149 0.25032 0.30572 0.0
C1159 C 0.94409 0.26896 0.29032 0.0
C1160 C 0.96837 0.28489 0.298 0.0
C1161 C 1.00018 0.2822 0.32098 0.0
H1162 H 0.91951 0.27107 0.27249 0.0
H1163 H 0.23297 0.24715 0.48965 0.0
H1164 H 0.47352 0.28867 0.97425 0.0
H1165 H 0.4778 0.26685 0.02957 0.0
H1166 H 0.53425 0.31332 0.09175 0.0
H1167 H 0.53006 0.33517 0.03668 0.0
H1168 H 0.57342 0.27698 0.09083 0.0
H1169 H 0.44678 0.30147 0.11546 0.0
H1170 H 0.37985 0.30821 0.09962 0.0
H1171 H 0.35972 0.24606 0.08271 0.0
H1172 H 0.42671 0.23896 0.09792 0.0
H1173 H 0.58702 0.23481 0.2707 0.0
H1174 H 0.57107 0.2566 0.21813 0.0
H1175 H 0.50006 0.21076 0.17041 0.0
H1176 H 0.51537 0.18899 0.22378 0.0
H1177 H 0.46693 0.24554 0.16189 0.0
H1178 H 0.59019 0.22001 0.1349 0.0
H1179 H 0.65698 0.21147 0.1477 0.0
H1180 H 0.68386 0.27296 0.16428 0.0
H1181 H 0.61707 0.28187 0.15186 0.0
C1182 C 0.48633 0.2943 0.99993 0.0
C1183 C 0.50138 0.31364 1.00118 0.0
C1184 C 0.48864 0.28186 0.0315 0.0
C1185 C 0.50633 0.28849 0.06473 0.0
C1186 C 0.52044 0.30795 0.06638 0.0
C1187 C 0.51774 0.32046 0.03501 0.0
C1188 C 0.51256 0.27477 0.09685 0.0
C1189 C 0.55015 0.27032 0.10674 0.0
C1190 C 0.48217 0.26546 0.11649 0.0
C1191 C 0.44187 0.26971 0.10744 0.0
C1192 C 0.42818 0.28925 0.10802 0.0
C1193 C 0.39021 0.29314 0.09923 0.0
C1194 C 0.36558 0.27758 0.09006 0.0
C1195 C 0.37884 0.2581 0.08976 0.0
C1196 C 0.4168 0.25414 0.0985 0.0
C1197 C 0.56809 0.22935 0.24898 0.0
C1198 C 0.55281 0.21011 0.2511 0.0
C1199 C 0.55897 0.24181 0.21891 0.0
C1200 C 0.535 0.23519 0.18981 0.0
C1201 C 0.51872 0.21618 0.19243 0.0
C1202 C 0.52748 0.20376 0.22289 0.0
C1203 C 0.52788 0.24802 0.15638 0.0
C1204 C 0.49022 0.25219 0.14604 0.0
C1205 C 0.55822 0.25683 0.13573 0.0
C1206 C 0.59855 0.25159 0.14278 0.0
C1207 C 0.61029 0.2317 0.1415 0.0
C1208 C 0.64816 0.22679 0.14867 0.0
C1209 C 0.67462 0.24164 0.15697 0.0
C1210 C 0.66331 0.26146 0.15791 0.0
C1211 C 0.62546 0.26646 0.15073 0.0
H1212 H 0.70392 0.2378 0.16258 0.0
H1213 H 0.33619 0.28062 0.08326 0.0
H1214 H 0.13161 0.70275 0.50039 0.0
H1215 H 0.141 0.72636 0.55273 0.0
H1216 H 0.02137 0.72309 0.57961 0.0
H1217 H 1.01197 0.6991 0.52891 0.0
H1218 H 0.06596 0.76437 0.55796 0.0
H1219 H 0.05621 0.70438 0.63922 0.0
H1220 H 0.07979 0.67166 0.65911 0.0
H1221 H 0.19011 0.69677 0.68032 0.0
H1222 H 0.16722 0.72961 0.65999 0.0
H1223 H 0.98477 0.80819 0.71489 0.0
H1224 H 1.00727 0.78679 0.66422 0.0
H1225 H 0.1207 0.78875 0.71007 0.0
H1226 H 0.09789 0.80991 0.762 0.0
H1227 H 0.09963 0.75105 0.69175 0.0
H1228 H 0.10304 0.81276 0.62915 0.0
H1229 H 0.08047 0.84571 0.60953 0.0
H1230 H 0.98698 0.81885 0.55079 0.0
H1231 H 1.00838 0.78576 0.5707 0.0
C1232 C 0.10755 0.70667 0.51814 0.0
C1233 C 0.07093 0.69929 0.51013 0.0
C1234 C 0.11294 0.72022 0.54779 0.0
C1235 C 0.08177 0.7265 0.56964 0.0
C1236 C 0.04568 0.71846 0.56284 0.0
C1237 C 0.04037 0.70483 0.53372 0.0
C1238 C 0.08537 0.74259 0.59772 0.0
C1239 C 0.07353 0.76159 0.5872 0.0
C1240 C 0.0966 0.739 0.63536 0.0
C1241 C 0.11021 0.71933 0.64755 0.0
C1242 C 0.08561 0.70286 0.64768 0.0
C1243 C 0.0988 0.68431 0.65915 0.0
C1244 C 0.13647 0.68211 0.67081 0.0
C1245 C 0.16098 0.69848 0.67116 0.0
C1246 C 0.14791 0.71705 0.65968 0.0
C1247 C 1.01448 0.80406 0.71439 0.0
C1248 C 0.03944 0.81066 0.74268 0.0
C1249 C 0.02744 0.79199 0.6851 0.0
C1250 C 0.06578 0.78635 0.68307 0.0
C1251 C 0.09103 0.79302 0.71101 0.0
C1252 C 0.07802 0.80521 0.74048 0.0
C1253 C 0.0783 0.77274 0.65247 0.0
C1254 C 0.0932 0.75418 0.66236 0.0
C1255 C 0.07018 0.77682 0.61404 0.0
C1256 C 0.05733 0.79672 0.60153 0.0
C1257 C 0.07754 0.81386 0.61222 0.0
C1258 C 0.06496 0.83258 0.60104 0.0
C1259 C 0.03237 0.83436 0.57891 0.0
C1260 C 1.01227 0.81744 0.56789 0.0
C1261 C 0.02464 0.79869 0.57909 0.0
H1262 H 0.02269 0.84887 0.57028 0.0
H1263 H 0.14663 0.66775 0.6797 0.0
loop_
_geom_bond_atom_site_label_1
_geom_bond_atom_site_label_2
_geom_bond_distance
_geom_bond_site_symmetry_2
_ccdc_geom_bond_type
C0 C1 1.351 . S
C0 N3 1.368 . S
C0 H5 0.931 . S
C1 C0 1.351 . S
C1 N2 1.373 . S
C1 H29 0.930 . S
N2 C1 1.373 . S
N2 C4 1.340 1_455 S
N3 C0 1.368 . S
N3 C4 1.321 1_455 S
N3 Co6 2.135 . S
C4 N2 1.340 1_655 S
C4 N3 1.321 1_655 S
C4 H28 0.930 . S
H5 C0 0.931 . S
Co6 N3 2.135 . S
Co6 N9 2.121 . S
Co6 O14 2.055 . S
Co6 O17 2.039 1_455 S
Co6 N20 2.140 . S
C7 O8 1.227 . S
C7 O17 1.265 . S
O8 C7 1.227 . S
N9 Co6 2.121 . S
N9 C11 1.375 1_455 S
N9 C12 1.313 . S
C10 C11 1.338 . S
C10 N13 1.377 1_655 S
C10 H30 0.930 . S
C11 N9 1.375 1_655 S
C11 C10 1.338 . S
C11 H15 0.931 . S
C12 N9 1.313 . S
C12 N13 1.344 . S
C12 H16 0.930 . S
N13 C10 1.377 1_455 S
N13 C12 1.344 . S
O14 Co6 2.055 . S
O14 C18 1.253 . S
H15 C11 0.931 . S
H16 C12 0.930 . S
O17 Co6 2.039 1_655 S
O17 C7 1.265 . S
C18 O14 1.253 . S
C18 O19 1.227 . S
O19 C18 1.227 . S
N20 Co6 2.140 . S
N20 C23 1.346 1_455 S
N20 C24 1.345 . S
C21 C22 1.387 1_455 S
C21 C25 1.391 . S
C22 C21 1.387 1_655 S
C22 C23 1.369 . S
C22 H31 0.929 . S
C23 N20 1.346 1_655 S
C23 C22 1.369 . S
C23 H26 0.928 . S
C24 N20 1.345 . S
C24 C25 1.371 . S
C24 H27 0.931 . S
C25 C21 1.391 . S
C25 C24 1.371 . S
C25 H32 0.930 . S
H26 C23 0.928 . S
H27 C24 0.931 . S
H28 C4 0.930 . S
H29 C1 0.930 . S
H30 C10 0.930 . S
H31 C22 0.929 . S
H32 C25 0.930 . S
C33 C34 1.351 . S
C33 N36 1.368 . S
C33 H38 0.931 . S
C34 C33 1.351 . S
C34 N35 1.373 . S
C34 H62 0.930 . S
N35 C34 1.373 . S
N35 C37 1.340 . S
N36 C33 1.368 . S
N36 C37 1.321 . S
N36 Co39 2.135 . S
C37 N35 1.340 . S
C37 N36 1.321 . S
C37 H61 0.930 . S
H38 C33 0.931 . S
Co39 N36 2.135 . S
Co39 N42 2.121 . S
Co39 O47 2.055 . S
Co39 O50 2.039 . S
Co39 N53 2.140 . S
C40 O41 1.227 . S
C40 O50 1.265 . S
O41 C40 1.227 . S
N42 Co39 2.121 . S
N42 C44 1.375 . S
N42 C45 1.313 . S
C43 C44 1.338 . S
C43 N46 1.377 . S
C43 H63 0.930 . S
C44 N42 1.375 . S
C44 C43 1.338 . S
C44 H48 0.931 . S
C45 N42 1.313 . S
C45 N46 1.344 . S
C45 H49 0.930 . S
N46 C43 1.377 . S
N46 C45 1.344 . S
O47 Co39 2.055 . S
O47 C51 1.253 . S
H48 C44 0.931 . S
H49 C45 0.930 . S
O50 Co39 2.039 . S
O50 C40 1.265 . S
C51 O47 1.253 . S
C51 O52 1.227 . S
O52 C51 1.227 . S
N53 Co39 2.140 . S
N53 C56 1.346 . S
N53 C57 1.345 . S
C54 C55 1.387 . S
C54 C58 1.391 . S
C55 C54 1.387 . S
C55 C56 1.369 . S
C55 H64 0.929 . S
C56 N53 1.346 . S
C56 C55 1.369 . S
C56 H59 0.928 . S
C57 N53 1.345 . S
C57 C58 1.371 . S
C57 H60 0.931 . S
C58 C54 1.391 . S
C58 C57 1.371 . S
C58 H65 0.930 . S
H59 C56 0.928 . S
H60 C57 0.931 . S
H61 C37 0.930 . S
H62 C34 0.930 . S
H63 C43 0.930 . S
H64 C55 0.929 . S
H65 C58 0.930 . S
C66 C67 1.351 . S
C66 N69 1.368 . S
C66 H71 0.931 . S
C67 C66 1.351 . S
C67 N68 1.373 . S
C67 H95 0.930 . S
N68 C67 1.373 . S
N68 C70 1.340 1_455 S
N69 C66 1.368 . S
N69 C70 1.321 1_455 S
N69 Co72 2.135 . S
C70 N68 1.340 1_655 S
C70 N69 1.321 1_655 S
C70 H94 0.930 . S
H71 C66 0.931 . S
Co72 N69 2.135 . S
Co72 N75 2.121 . S
Co72 O80 2.055 . S
Co72 O83 2.039 1_455 S
Co72 N86 2.140 . S
C73 O74 1.227 . S
C73 O83 1.265 . S
O74 C73 1.227 . S
N75 Co72 2.121 . S
N75 C77 1.375 1_455 S
N75 C78 1.313 . S
C76 C77 1.338 . S
C76 N79 1.377 1_655 S
C76 H96 0.930 . S
C77 N75 1.375 1_655 S
C77 C76 1.338 . S
C77 H81 0.931 . S
C78 N75 1.313 . S
C78 N79 1.344 . S
C78 H82 0.930 . S
N79 C76 1.377 1_455 S
N79 C78 1.344 . S
O80 Co72 2.055 . S
O80 C84 1.253 . S
H81 C77 0.931 . S
H82 C78 0.930 . S
O83 Co72 2.039 1_655 S
O83 C73 1.265 . S
C84 O80 1.253 . S
C84 O85 1.227 . S
O85 C84 1.227 . S
N86 Co72 2.140 . S
N86 C89 1.346 1_455 S
N86 C90 1.345 . S
C87 C88 1.387 1_455 S
C87 C91 1.391 . S
C88 C87 1.387 1_655 S
C88 C89 1.369 . S
C88 H97 0.929 . S
C89 N86 1.346 1_655 S
C89 C88 1.369 . S
C89 H92 0.928 . S
C90 N86 1.345 . S
C90 C91 1.371 . S
C90 H93 0.931 . S
C91 C87 1.391 . S
C91 C90 1.371 . S
C91 H98 0.930 . S
H92 C89 0.928 . S
H93 C90 0.931 . S
H94 C70 0.930 . S
H95 C67 0.930 . S
H96 C76 0.930 . S
H97 C88 0.929 . S
H98 C91 0.930 . S
C99 C100 1.351 . S
C99 N102 1.368 . S
C99 H104 0.931 . S
C100 C99 1.351 . S
C100 N101 1.373 . S
C100 H128 0.930 . S
N101 C100 1.373 . S
N101 C103 1.340 . S
N102 C99 1.368 . S
N102 C103 1.321 . S
N102 Co105 2.135 . S
C103 N101 1.340 . S
C103 N102 1.321 . S
C103 H127 0.930 . S
H104 C99 0.931 . S
Co105 N102 2.135 . S
Co105 N108 2.121 . S
Co105 O113 2.055 . S
Co105 O116 2.039 . S
Co105 N119 2.140 . S
C106 O107 1.227 . S
C106 O116 1.265 . S
O107 C106 1.227 . S
N108 Co105 2.121 . S
N108 C110 1.375 . S
N108 C111 1.313 . S
C109 C110 1.338 . S
C109 N112 1.377 . S
C109 H129 0.930 . S
C110 N108 1.375 . S
C110 C109 1.338 . S
C110 H114 0.931 . S
C111 N108 1.313 . S
C111 N112 1.344 . S
C111 H115 0.930 . S
N112 C109 1.377 . S
N112 C111 1.344 . S
O113 Co105 2.055 . S
O113 C117 1.253 . S
H114 C110 0.931 . S
H115 C111 0.930 . S
O116 Co105 2.039 . S
O116 C106 1.265 . S
C117 O113 1.253 . S
C117 O118 1.227 . S
O118 C117 1.227 . S
N119 Co105 2.140 . S
N119 C122 1.346 . S
N119 C123 1.345 . S
C120 C121 1.387 . S
C120 C124 1.391 . S
C121 C120 1.387 . S
C121 C122 1.369 . S
C121 H130 0.929 . S
C122 N119 1.346 . S
C122 C121 1.369 . S
C122 H125 0.928 . S
C123 N119 1.345 . S
C123 C124 1.371 . S
C123 H126 0.931 . S
C124 C120 1.391 . S
C124 C123 1.371 . S
C124 H131 0.930 . S
H125 C122 0.928 . S
H126 C123 0.931 . S
H127 C103 0.930 . S
H128 C100 0.930 . S
H129 C109 0.930 . S
H130 C121 0.929 . S
H131 C124 0.930 . S
C132 C133 1.351 . S
C132 N135 1.368 . S
C132 H137 0.931 . S
C133 C132 1.351 . S
C133 N134 1.373 . S
C133 H161 0.930 . S
N134 C133 1.373 . S
N134 C136 1.340 . S
N135 C132 1.368 . S
N135 C136 1.321 . S
N135 Co138 2.135 . S
C136 N134 1.340 . S
C136 N135 1.321 . S
C136 H160 0.930 . S
H137 C132 0.931 . S
Co138 N135 2.135 . S
Co138 N141 2.121 . S
Co138 O146 2.055 . S
Co138 O149 2.039 . S
Co138 N152 2.140 . S
C139 O140 1.227 . S
C139 O149 1.265 . S
O140 C139 1.227 . S
N141 Co138 2.121 . S
N141 C143 1.375 . S
N141 C144 1.313 . S
C142 C143 1.338 . S
C142 N145 1.377 . S
C142 H162 0.930 . S
C143 N141 1.375 . S
C143 C142 1.338 . S
C143 H147 0.931 . S
C144 N141 1.313 . S
C144 N145 1.344 . S
C144 H148 0.930 . S
N145 C142 1.377 . S
N145 C144 1.344 . S
O146 Co138 2.055 . S
O146 C150 1.253 . S
H147 C143 0.931 . S
H148 C144 0.930 . S
O149 Co138 2.039 . S
O149 C139 1.265 . S
C150 O146 1.253 . S
C150 O151 1.227 . S
O151 C150 1.227 . S
N152 Co138 2.140 . S
N152 C155 1.346 . S
N152 C156 1.345 . S
C153 C154 1.387 . S
C153 C157 1.391 . S
C154 C153 1.387 . S
C154 C155 1.369 . S
C154 H163 0.929 . S
C155 N152 1.346 . S
C155 C154 1.369 . S
C155 H158 0.928 . S
C156 N152 1.345 . S
C156 C157 1.371 . S
C156 H159 0.931 . S
C157 C153 1.391 . S
C157 C156 1.371 . S
C157 H164 0.930 . S
H158 C155 0.928 . S
H159 C156 0.931 . S
H160 C136 0.930 . S
H161 C133 0.930 . S
H162 C142 0.930 . S
H163 C154 0.929 . S
H164 C157 0.930 . S
C165 C166 1.351 . S
C165 N168 1.368 1_655 S
C165 H170 0.931 . S
C166 C165 1.351 . S
C166 N167 1.373 1_655 S
C166 H194 0.930 . S
N167 C166 1.373 1_455 S
N167 C169 1.340 . S
N168 C165 1.368 1_455 S
N168 C169 1.321 . S
N168 Co171 2.135 . S
C169 N167 1.340 . S
C169 N168 1.321 . S
C169 H193 0.930 . S
H170 C165 0.931 . S
Co171 N168 2.135 . S
Co171 N174 2.121 . S
Co171 O179 2.055 1_455 S
Co171 O182 2.039 . S
Co171 N185 2.140 . S
C172 O173 1.227 . S
C172 O182 1.265 . S
O173 C172 1.227 . S
N174 Co171 2.121 . S
N174 C176 1.375 . S
N174 C177 1.313 . S
C175 C176 1.338 . S
C175 N178 1.377 . S
C175 H195 0.930 . S
C176 N174 1.375 . S
C176 C175 1.338 . S
C176 H180 0.931 . S
C177 N174 1.313 . S
C177 N178 1.344 . S
C177 H181 0.930 1_455 S
N178 C175 1.377 . S
N178 C177 1.344 . S
O179 Co171 2.055 1_655 S
O179 C183 1.253 . S
H180 C176 0.931 . S
H181 C177 0.930 1_655 S
O182 Co171 2.039 . S
O182 C172 1.265 . S
C183 O179 1.253 . S
C183 O184 1.227 . S
O184 C183 1.227 . S
N185 Co171 2.140 . S
N185 C188 1.346 . S
N185 C189 1.345 . S
C186 C187 1.387 . S
C186 C190 1.391 . S
C187 C186 1.387 . S
C187 C188 1.369 . S
C187 H196 0.929 . S
C188 N185 1.346 . S
C188 C187 1.369 . S
C188 H191 0.928 . S
C189 N185 1.345 . S
C189 C190 1.371 . S
C189 H192 0.931 1_455 S
C190 C186 1.391 . S
C190 C189 1.371 . S
C190 H197 0.930 1_455 S
H191 C188 0.928 . S
H192 C189 0.931 1_655 S
H193 C169 0.930 . S
H194 C166 0.930 . S
H195 C175 0.930 . S
H196 C187 0.929 . S
H197 C190 0.930 1_655 S
C198 C199 1.351 . S
C198 N201 1.368 . S
C198 H203 0.931 . S
C199 C198 1.351 . S
C199 N200 1.373 . S
C199 H227 0.930 . S
N200 C199 1.373 . S
N200 C202 1.340 . S
N201 C198 1.368 . S
N201 C202 1.321 . S
N201 Co204 2.135 . S
C202 N200 1.340 . S
C202 N201 1.321 . S
C202 H226 0.930 . S
H203 C198 0.931 . S
Co204 N201 2.135 . S
Co204 N207 2.121 . S
Co204 O212 2.055 . S
Co204 O215 2.039 . S
Co204 N218 2.140 . S
C205 O206 1.227 . S
C205 O215 1.265 . S
O206 C205 1.227 . S
N207 Co204 2.121 . S
N207 C209 1.375 . S
N207 C210 1.313 . S
C208 C209 1.338 . S
C208 N211 1.377 . S
C208 H228 0.930 . S
C209 N207 1.375 . S
C209 C208 1.338 . S
C209 H213 0.931 . S
C210 N207 1.313 . S
C210 N211 1.344 . S
C210 H214 0.930 . S
N211 C208 1.377 . S
N211 C210 1.344 . S
O212 Co204 2.055 . S
O212 C216 1.253 . S
H213 C209 0.931 . S
H214 C210 0.930 . S
O215 Co204 2.039 . S
O215 C205 1.265 . S
C216 O212 1.253 . S
C216 O217 1.227 . S
O217 C216 1.227 . S
N218 Co204 2.140 . S
N218 C221 1.346 . S
N218 C222 1.345 . S
C219 C220 1.387 . S
C219 C223 1.391 . S
C220 C219 1.387 . S
C220 C221 1.369 . S
C220 H229 0.929 . S
C221 N218 1.346 . S
C221 C220 1.369 . S
C221 H224 0.928 . S
C222 N218 1.345 . S
C222 C223 1.371 . S
C222 H225 0.931 . S
C223 C219 1.391 . S
C223 C222 1.371 . S
C223 H230 0.930 . S
H224 C221 0.928 . S
H225 C222 0.931 . S
H226 C202 0.930 . S
H227 C199 0.930 . S
H228 C208 0.930 . S
H229 C220 0.929 . S
H230 C223 0.930 . S
C231 C232 1.351 . S
C231 N234 1.368 1_655 S
C231 H236 0.931 . S
C232 C231 1.351 . S
C232 N233 1.373 1_655 S
C232 H260 0.930 . S
N233 C232 1.373 1_455 S
N233 C235 1.340 . S
N234 C231 1.368 1_455 S
N234 C235 1.321 . S
N234 Co237 2.135 . S
C235 N233 1.340 . S
C235 N234 1.321 . S
C235 H259 0.930 . S
H236 C231 0.931 . S
Co237 N234 2.135 . S
Co237 N240 2.121 . S
Co237 O245 2.055 1_455 S
Co237 O248 2.039 . S
Co237 N251 2.140 . S
C238 O239 1.227 . S
C238 O248 1.265 . S
O239 C238 1.227 . S
N240 Co237 2.121 . S
N240 C242 1.375 . S
N240 C243 1.313 . S
C241 C242 1.338 . S
C241 N244 1.377 . S
C241 H261 0.930 . S
C242 N240 1.375 . S
C242 C241 1.338 . S
C242 H246 0.931 . S
C243 N240 1.313 . S
C243 N244 1.344 . S
C243 H247 0.930 1_455 S
N244 C241 1.377 . S
N244 C243 1.344 . S
O245 Co237 2.055 1_655 S
O245 C249 1.253 . S
H246 C242 0.931 . S
H247 C243 0.930 1_655 S
O248 Co237 2.039 . S
O248 C238 1.265 . S
C249 O245 1.253 . S
C249 O250 1.227 . S
O250 C249 1.227 . S
N251 Co237 2.140 . S
N251 C254 1.346 . S
N251 C255 1.345 . S
C252 C253 1.387 . S
C252 C256 1.391 . S
C253 C252 1.387 . S
C253 C254 1.369 . S
C253 H262 0.929 . S
C254 N251 1.346 . S
C254 C253 1.369 . S
C254 H257 0.928 . S
C255 N251 1.345 . S
C255 C256 1.371 . S
C255 H258 0.931 1_455 S
C256 C252 1.391 . S
C256 C255 1.371 . S
C256 H263 0.930 1_455 S
H257 C254 0.928 . S
H258 C255 0.931 1_655 S
H259 C235 0.930 . S
H260 C232 0.930 . S
H261 C241 0.930 . S
H262 C253 0.929 . S
H263 C256 0.930 1_655 S
H264 C282 0.951 . S
H265 C284 0.951 . S
H266 C286 0.950 1_554 S
H267 C287 0.950 . S
H268 C289 0.950 . S
H269 C292 0.950 . S
H270 C293 0.950 . S
H271 C295 0.947 . S
H272 C296 0.950 . S
H273 C297 0.951 . S
H274 C299 0.951 . S
H275 C301 0.950 1_556 S
H276 C302 0.950 . S
H277 C304 0.950 . S
H278 C307 0.950 . S
H279 C308 0.950 . S
H280 C310 0.947 . S
H281 C311 0.950 . S
C282 H264 0.951 . S
C282 C283 1.371 . S
C282 C284 1.388 . S
C283 C282 1.371 . S
C283 C287 1.381 1_455 S
C284 H265 0.951 . S
C284 C282 1.388 . S
C284 C285 1.366 . S
C285 C284 1.366 . S
C285 C286 1.414 1_455 S
C285 C288 1.499 . S
C286 H266 0.950 1_556 S
C286 C285 1.414 1_655 S
C286 C287 1.374 . S
C287 H267 0.950 . S
C287 C283 1.381 1_655 S
C287 C286 1.374 . S
C288 C285 1.499 . S
C288 C289 1.373 1_456 S
C288 C290 1.389 . S
C289 H268 0.950 . S
C289 C288 1.373 1_654 S
C289 C305 1.377 1_565 S
C290 C288 1.389 . S
C290 C291 1.524 . S
C290 C304 1.377 1_565 S
C291 C290 1.524 . S
C291 C292 1.397 . S
C291 C296 1.363 1_565 S
C292 H269 0.950 . S
C292 C291 1.397 . S
C292 C293 1.334 . S
C293 H270 0.950 . S
C293 C292 1.334 . S
C293 C294 1.287 . S
C294 C293 1.287 . S
C294 C295 1.528 1_565 S
C294 H313 0.913 . S
C295 H271 0.947 . S
C295 C294 1.528 1_545 S
C295 C296 1.414 . S
C296 H272 0.950 . S
C296 C291 1.363 1_545 S
C296 C295 1.414 . S
C297 H273 0.951 . S
C297 C298 1.361 1_655 S
C297 C299 1.388 . S
C298 C297 1.361 1_455 S
C298 C302 1.390 . S
C299 H274 0.951 . S
C299 C297 1.388 . S
C299 C300 1.366 . S
C300 C299 1.366 . S
C300 C301 1.414 1_655 S
C300 C303 1.499 . S
C301 H275 0.950 1_554 S
C301 C300 1.414 1_455 S
C301 C302 1.374 . S
C302 H276 0.950 . S
C302 C298 1.390 . S
C302 C301 1.374 . S
C303 C300 1.499 . S
C303 C304 1.349 1_654 S
C303 C305 1.412 . S
C304 H277 0.950 . S
C304 C290 1.377 1_545 S
C304 C303 1.349 1_456 S
C305 C289 1.377 1_545 S
C305 C303 1.412 . S
C305 C306 1.524 . S
C306 C305 1.524 . S
C306 C307 1.397 . S
C306 C311 1.363 1_545 S
C307 H278 0.950 . S
C307 C306 1.397 . S
C307 C308 1.334 . S
C308 H279 0.950 . S
C308 C307 1.334 . S
C308 C309 1.287 . S
C309 C308 1.287 . S
C309 C310 1.528 1_545 S
C309 H312 0.999 . S
C310 H280 0.947 . S
C310 C309 1.528 1_565 S
C310 C311 1.414 . S
C311 H281 0.950 . S
C311 C306 1.363 1_565 S
C311 C310 1.414 . S
H312 C309 0.999 . S
H313 C294 0.913 . S
H314 C332 0.951 . S
H315 C334 0.951 . S
H316 C336 0.950 . S
H317 C337 0.950 . S
H318 C339 0.950 . S
H319 C342 0.950 . S
H320 C343 0.950 . S
H321 C345 0.950 . S
H322 C346 0.950 . S
H323 C347 0.951 . S
H324 C349 0.951 . S
H325 C351 0.950 . S
H326 C352 0.950 . S
H327 C354 0.950 . S
H328 C357 0.950 . S
H329 C358 0.950 . S
H330 C360 0.950 . S
H331 C361 0.950 . S
C332 H314 0.951 . S
C332 C333 1.366 . S
C332 C334 1.388 . S
C333 C332 1.366 . S
C333 C337 1.385 . S
C334 H315 0.951 . S
C334 C332 1.388 . S
C334 C335 1.366 . S
C335 C334 1.366 . S
C335 C336 1.414 . S
C335 C338 1.499 . S
C336 H316 0.950 . S
C336 C335 1.414 . S
C336 C337 1.374 . S
C337 H317 0.950 . S
C337 C333 1.385 . S
C337 C336 1.374 . S
C338 C335 1.499 . S
C338 C339 1.373 . S
C338 C340 1.389 . S
C339 H318 0.950 . S
C339 C338 1.373 . S
C339 C355 1.377 1_545 S
C340 C338 1.389 . S
C340 C341 1.524 . S
C340 C354 1.377 1_545 S
C341 C340 1.524 . S
C341 C342 1.397 . S
C341 C346 1.363 . S
C342 H319 0.950 . S
C342 C341 1.397 . S
C342 C343 1.334 . S
C343 H320 0.950 . S
C343 C342 1.334 . S
C343 C344 1.287 . S
C344 C343 1.287 . S
C344 C345 1.524 . S
C344 H363 0.913 . S
C345 H321 0.950 . S
C345 C344 1.524 . S
C345 C346 1.415 . S
C346 H322 0.950 . S
C346 C341 1.363 . S
C346 C345 1.415 . S
C347 H323 0.951 . S
C347 C348 1.366 . S
C347 C349 1.388 . S
C348 C347 1.366 . S
C348 C352 1.385 . S
C349 H324 0.951 . S
C349 C347 1.388 . S
C349 C350 1.366 . S
C350 C349 1.366 . S
C350 C351 1.414 . S
C350 C353 1.499 . S
C351 H325 0.950 . S
C351 C350 1.414 . S
C351 C352 1.374 . S
C352 H326 0.950 . S
C352 C348 1.385 . S
C352 C351 1.374 . S
C353 C350 1.499 . S
C353 C354 1.373 . S
C353 C355 1.389 . S
C354 H327 0.950 . S
C354 C340 1.377 1_565 S
C354 C353 1.373 . S
C355 C339 1.377 1_565 S
C355 C353 1.389 . S
C355 C356 1.524 . S
C356 C355 1.524 . S
C356 C357 1.397 . S
C356 C361 1.363 . S
C357 H328 0.950 . S
C357 C356 1.397 . S
C357 C358 1.334 . S
C358 H329 0.950 . S
C358 C357 1.334 . S
C358 C359 1.287 . S
C359 C358 1.287 . S
C359 C360 1.524 . S
C359 H362 0.999 . S
C360 H330 0.950 . S
C360 C359 1.524 . S
C360 C361 1.415 . S
C361 H331 0.950 . S
C361 C356 1.363 . S
C361 C360 1.415 . S
H362 C359 0.999 . S
H363 C344 0.913 . S
H364 C382 0.951 . S
H365 C384 0.951 . S
H366 C386 0.950 1_556 S
H367 C387 0.950 . S
H368 C389 0.950 . S
H369 C392 0.950 . S
H370 C393 0.950 . S
H371 C395 0.950 . S
H372 C396 0.950 . S
H373 C397 0.951 . S
H374 C399 0.951 . S
H375 C401 0.950 1_554 S
H376 C402 0.950 . S
H377 C404 0.950 . S
H378 C407 0.950 . S
H379 C408 0.950 . S
H380 C410 0.950 . S
H381 C411 0.950 . S
C382 H364 0.951 . S
C382 C383 1.366 . S
C382 C384 1.388 . S
C383 C382 1.366 . S
C383 C387 1.385 . S
C384 H365 0.951 . S
C384 C382 1.388 . S
C384 C385 1.366 . S
C385 C384 1.366 . S
C385 C386 1.414 . S
C385 C388 1.499 . S
C386 H366 0.950 1_554 S
C386 C385 1.414 . S
C386 C387 1.374 . S
C387 H367 0.950 . S
C387 C383 1.385 . S
C387 C386 1.374 . S
C388 C385 1.499 . S
C388 C389 1.373 1_554 S
C388 C390 1.389 . S
C389 H368 0.950 . S
C389 C388 1.373 1_556 S
C389 C405 1.377 . S
C390 C388 1.389 . S
C390 C391 1.524 . S
C390 C404 1.377 . S
C391 C390 1.524 . S
C391 C392 1.397 . S
C391 C396 1.363 . S
C392 H369 0.950 . S
C392 C391 1.397 . S
C392 C393 1.334 . S
C393 H370 0.950 . S
C393 C392 1.334 . S
C393 C394 1.287 . S
C394 C393 1.287 . S
C394 C395 1.524 . S
C394 H413 0.913 . S
C395 H371 0.950 . S
C395 C394 1.524 . S
C395 C396 1.415 . S
C396 H372 0.950 . S
C396 C391 1.363 . S
C396 C395 1.415 . S
C397 H373 0.951 . S
C397 C398 1.366 . S
C397 C399 1.388 . S
C398 C397 1.366 . S
C398 C402 1.385 . S
C399 H374 0.951 . S
C399 C397 1.388 . S
C399 C400 1.366 . S
C400 C399 1.366 . S
C400 C401 1.414 . S
C400 C403 1.499 . S
C401 H375 0.950 1_556 S
C401 C400 1.414 . S
C401 C402 1.374 . S
C402 H376 0.950 . S
C402 C398 1.385 . S
C402 C401 1.374 . S
C403 C400 1.499 . S
C403 C404 1.373 1_556 S
C403 C405 1.389 . S
C404 H377 0.950 . S
C404 C390 1.377 . S
C404 C403 1.373 1_554 S
C405 C389 1.377 . S
C405 C403 1.389 . S
C405 C406 1.524 . S
C406 C405 1.524 . S
C406 C407 1.397 . S
C406 C411 1.363 . S
C407 H378 0.950 . S
C407 C406 1.397 . S
C407 C408 1.334 . S
C408 H379 0.950 . S
C408 C407 1.334 . S
C408 C409 1.287 . S
C409 C408 1.287 . S
C409 C410 1.524 . S
C409 H412 0.999 . S
C410 H380 0.950 . S
C410 C409 1.524 . S
C410 C411 1.415 . S
C411 H381 0.950 . S
C411 C406 1.363 . S
C411 C410 1.415 . S
H412 C409 0.999 . S
H413 C394 0.913 . S
H414 C432 0.951 1_655 S
H415 C434 0.951 1_655 S
H416 C436 0.950 . S
H417 C437 0.950 . S
H418 C439 0.950 . S
H419 C442 0.950 . S
H420 C443 0.950 . S
H421 C445 0.950 . S
H422 C446 0.950 . S
H423 C447 0.951 . S
H424 C449 0.951 . S
H425 C451 0.950 1_655 S
H426 C452 0.950 1_655 S
H427 C454 0.950 . S
H428 C457 0.950 . S
H429 C458 0.950 . S
H430 C460 0.950 . S
H431 C461 0.950 . S
C432 H414 0.951 1_455 S
C432 C433 1.366 . S
C432 C434 1.388 . S
C433 C432 1.366 . S
C433 C437 1.385 . S
C434 H415 0.951 1_455 S
C434 C432 1.388 . S
C434 C435 1.366 . S
C435 C434 1.366 . S
C435 C436 1.414 . S
C435 C438 1.499 . S
C436 H416 0.950 . S
C436 C435 1.414 . S
C436 C437 1.374 . S
C437 H417 0.950 . S
C437 C433 1.385 . S
C437 C436 1.374 . S
C438 C435 1.499 . S
C438 C439 1.373 . S
C438 C440 1.389 . S
C439 H418 0.950 . S
C439 C438 1.373 . S
C439 C455 1.377 . S
C440 C438 1.389 . S
C440 C441 1.524 . S
C440 C454 1.377 . S
C441 C440 1.524 . S
C441 C442 1.397 . S
C441 C446 1.363 1_455 S
C442 H419 0.950 . S
C442 C441 1.397 . S
C442 C443 1.334 . S
C443 H420 0.950 . S
C443 C442 1.334 . S
C443 C444 1.287 1_455 S
C444 C443 1.287 1_655 S
C444 C445 1.524 . S
C444 H463 0.913 . S
C445 H421 0.950 . S
C445 C444 1.524 . S
C445 C446 1.415 . S
C446 H422 0.950 . S
C446 C441 1.363 1_655 S
C446 C445 1.415 . S
C447 H423 0.951 . S
C447 C448 1.366 . S
C447 C449 1.388 . S
C448 C447 1.366 . S
C448 C452 1.385 . S
C449 H424 0.951 . S
C449 C447 1.388 . S
C449 C450 1.366 . S
C450 C449 1.366 . S
C450 C451 1.414 . S
C450 C453 1.499 . S
C451 H425 0.950 1_455 S
C451 C450 1.414 . S
C451 C452 1.374 . S
C452 H426 0.950 1_455 S
C452 C448 1.385 . S
C452 C451 1.374 . S
C453 C450 1.499 . S
C453 C454 1.373 . S
C453 C455 1.389 . S
C454 H427 0.950 . S
C454 C440 1.377 . S
C454 C453 1.373 . S
C455 C439 1.377 . S
C455 C453 1.389 . S
C455 C456 1.524 . S
C456 C455 1.524 . S
C456 C457 1.397 . S
C456 C461 1.363 . S
C457 H428 0.950 . S
C457 C456 1.397 . S
C457 C458 1.334 . S
C458 H429 0.950 . S
C458 C457 1.334 . S
C458 C459 1.287 . S
C459 C458 1.287 . S
C459 C460 1.524 . S
C459 H462 0.999 . S
C460 H430 0.950 . S
C460 C459 1.524 . S
C460 C461 1.415 . S
C461 H431 0.950 . S
C461 C456 1.363 . S
C461 C460 1.415 . S
H462 C459 0.999 . S
H463 C444 0.913 . S
H464 C482 0.951 . S
H465 C484 0.951 . S
H466 C486 0.950 . S
H467 C487 0.950 . S
H468 C489 0.950 . S
H469 C492 0.950 . S
H470 C493 0.950 . S
H471 C495 0.950 . S
H472 C496 0.950 . S
H473 C497 0.951 . S
H474 C499 0.951 . S
H475 C501 0.950 . S
H476 C502 0.950 . S
H477 C504 0.950 . S
H478 C507 0.950 . S
H479 C508 0.950 . S
H480 C510 0.950 . S
H481 C511 0.950 . S
C482 H464 0.951 . S
C482 C483 1.366 . S
C482 C484 1.388 . S
C483 C482 1.366 . S
C483 C487 1.385 . S
C484 H465 0.951 . S
C484 C482 1.388 . S
C484 C485 1.366 . S
C485 C484 1.366 . S
C485 C486 1.414 . S
C485 C488 1.499 . S
C486 H466 0.950 . S
C486 C485 1.414 . S
C486 C487 1.374 . S
C487 H467 0.950 . S
C487 C483 1.385 . S
C487 C486 1.374 . S
C488 C485 1.499 . S
C488 C489 1.373 . S
C488 C490 1.389 . S
C489 H468 0.950 . S
C489 C488 1.373 . S
C489 C505 1.377 . S
C490 C488 1.389 . S
C490 C491 1.524 . S
C490 C504 1.377 . S
C491 C490 1.524 . S
C491 C492 1.397 . S
C491 C496 1.363 . S
C492 H469 0.950 . S
C492 C491 1.397 . S
C492 C493 1.334 . S
C493 H470 0.950 . S
C493 C492 1.334 . S
C493 C494 1.287 . S
C494 C493 1.287 . S
C494 C495 1.524 . S
C494 H513 0.913 . S
C495 H471 0.950 . S
C495 C494 1.524 . S
C495 C496 1.415 . S
C496 H472 0.950 . S
C496 C491 1.363 . S
C496 C495 1.415 . S
C497 H473 0.951 . S
C497 C498 1.366 . S
C497 C499 1.388 . S
C498 C497 1.366 . S
C498 C502 1.385 . S
C499 H474 0.951 . S
C499 C497 1.388 . S
C499 C500 1.366 . S
C500 C499 1.366 . S
C500 C501 1.414 . S
C500 C503 1.499 . S
C501 H475 0.950 . S
C501 C500 1.414 . S
C501 C502 1.374 . S
C502 H476 0.950 . S
C502 C498 1.385 . S
C502 C501 1.374 . S
C503 C500 1.499 . S
C503 C504 1.373 . S
C503 C505 1.389 . S
C504 H477 0.950 . S
C504 C490 1.377 . S
C504 C503 1.373 . S
C505 C489 1.377 . S
C505 C503 1.389 . S
C505 C506 1.524 . S
C506 C505 1.524 . S
C506 C507 1.397 . S
C506 C511 1.363 . S
C507 H478 0.950 . S
C507 C506 1.397 . S
C507 C508 1.334 . S
C508 H479 0.950 . S
C508 C507 1.334 . S
C508 C509 1.287 . S
C509 C508 1.287 . S
C509 C510 1.524 . S
C509 H512 0.999 . S
C510 H480 0.950 . S
C510 C509 1.524 . S
C510 C511 1.415 . S
C511 H481 0.950 . S
C511 C506 1.363 . S
C511 C510 1.415 . S
H512 C509 0.999 . S
H513 C494 0.913 . S
H514 C532 0.951 . S
H515 C534 0.951 . S
H516 C536 0.950 . S
H517 C537 0.950 . S
H518 C539 0.950 . S
H519 C542 0.950 . S
H520 C543 0.950 . S
H521 C545 0.950 . S
H522 C546 0.950 . S
H523 C547 0.951 . S
H524 C549 0.951 . S
H525 C551 0.950 . S
H526 C552 0.950 . S
H527 C554 0.950 . S
H528 C557 0.950 . S
H529 C558 0.950 . S
H530 C560 0.950 . S
H531 C561 0.950 . S
C532 H514 0.951 . S
C532 C533 1.366 . S
C532 C534 1.388 . S
C533 C532 1.366 . S
C533 C537 1.385 . S
C534 H515 0.951 . S
C534 C532 1.388 . S
C534 C535 1.366 . S
C535 C534 1.366 . S
C535 C536 1.414 . S
C535 C538 1.499 . S
C536 H516 0.950 . S
C536 C535 1.414 . S
C536 C537 1.374 . S
C537 H517 0.950 . S
C537 C533 1.385 . S
C537 C536 1.374 . S
C538 C535 1.499 . S
C538 C539 1.373 . S
C538 C540 1.389 . S
C539 H518 0.950 . S
C539 C538 1.373 . S
C539 C555 1.377 . S
C540 C538 1.389 . S
C540 C541 1.524 . S
C540 C554 1.377 . S
C541 C540 1.524 . S
C541 C542 1.397 . S
C541 C546 1.363 . S
C542 H519 0.950 . S
C542 C541 1.397 . S
C542 C543 1.334 . S
C543 H520 0.950 . S
C543 C542 1.334 . S
C543 C544 1.287 . S
C544 C543 1.287 . S
C544 C545 1.524 . S
C544 H563 0.913 . S
C545 H521 0.950 . S
C545 C544 1.524 . S
C545 C546 1.415 . S
C546 H522 0.950 . S
C546 C541 1.363 . S
C546 C545 1.415 . S
C547 H523 0.951 . S
C547 C548 1.366 . S
C547 C549 1.388 . S
C548 C547 1.366 . S
C548 C552 1.385 . S
C549 H524 0.951 . S
C549 C547 1.388 . S
C549 C550 1.366 . S
C550 C549 1.366 . S
C550 C551 1.414 . S
C550 C553 1.499 . S
C551 H525 0.950 . S
C551 C550 1.414 . S
C551 C552 1.374 . S
C552 H526 0.950 . S
C552 C548 1.385 . S
C552 C551 1.374 . S
C553 C550 1.499 . S
C553 C554 1.373 . S
C553 C555 1.389 . S
C554 H527 0.950 . S
C554 C540 1.377 . S
C554 C553 1.373 . S
C555 C539 1.377 . S
C555 C553 1.389 . S
C555 C556 1.524 . S
C556 C555 1.524 . S
C556 C557 1.397 . S
C556 C561 1.363 . S
C557 H528 0.950 . S
C557 C556 1.397 . S
C557 C558 1.334 . S
C558 H529 0.950 . S
C558 C557 1.334 . S
C558 C559 1.287 . S
C559 C558 1.287 . S
C559 C560 1.524 . S
C559 H562 0.999 . S
C560 H530 0.950 . S
C560 C559 1.524 . S
C560 C561 1.415 . S
C561 H531 0.950 . S
C561 C556 1.363 . S
C561 C560 1.415 . S
H562 C559 0.999 . S
H563 C544 0.913 . S
H564 C582 0.951 . S
H565 C584 0.951 . S
H566 C586 0.950 . S
H567 C587 0.950 . S
H568 C589 0.950 . S
H569 C592 0.950 . S
H570 C593 0.950 . S
H571 C595 0.950 . S
H572 C596 0.950 . S
H573 C597 0.951 . S
H574 C599 0.951 . S
H575 C601 0.950 . S
H576 C602 0.950 . S
H577 C604 0.950 . S
H578 C607 0.950 . S
H579 C608 0.950 . S
H580 C610 0.950 . S
H581 C611 0.950 . S
C582 H564 0.951 . S
C582 C583 1.366 . S
C582 C584 1.388 . S
C583 C582 1.366 . S
C583 C587 1.385 . S
C584 H565 0.951 . S
C584 C582 1.388 . S
C584 C585 1.366 . S
C585 C584 1.366 . S
C585 C586 1.414 . S
C585 C588 1.499 . S
C586 H566 0.950 . S
C586 C585 1.414 . S
C586 C587 1.374 . S
C587 H567 0.950 . S
C587 C583 1.385 . S
C587 C586 1.374 . S
C588 C585 1.499 . S
C588 C589 1.373 . S
C588 C590 1.389 . S
C589 H568 0.950 . S
C589 C588 1.373 . S
C589 C605 1.377 . S
C590 C588 1.389 . S
C590 C591 1.524 . S
C590 C604 1.377 . S
C591 C590 1.524 . S
C591 C592 1.397 . S
C591 C596 1.363 . S
C592 H569 0.950 . S
C592 C591 1.397 . S
C592 C593 1.334 . S
C593 H570 0.950 . S
C593 C592 1.334 . S
C593 C594 1.287 . S
C594 C593 1.287 . S
C594 C595 1.524 . S
C594 H613 0.913 . S
C595 H571 0.950 . S
C595 C594 1.524 . S
C595 C596 1.415 . S
C596 H572 0.950 . S
C596 C591 1.363 . S
C596 C595 1.415 . S
C597 H573 0.951 . S
C597 C598 1.366 . S
C597 C599 1.388 . S
C598 C597 1.366 . S
C598 C602 1.385 . S
C599 H574 0.951 . S
C599 C597 1.388 . S
C599 C600 1.366 . S
C600 C599 1.366 . S
C600 C601 1.414 . S
C600 C603 1.499 . S
C601 H575 0.950 . S
C601 C600 1.414 . S
C601 C602 1.374 . S
C602 H576 0.950 . S
C602 C598 1.385 . S
C602 C601 1.374 . S
C603 C600 1.499 . S
C603 C604 1.373 . S
C603 C605 1.389 . S
C604 H577 0.950 . S
C604 C590 1.377 . S
C604 C603 1.373 . S
C605 C589 1.377 . S
C605 C603 1.389 . S
C605 C606 1.524 . S
C606 C605 1.524 . S
C606 C607 1.397 . S
C606 C611 1.363 . S
C607 H578 0.950 . S
C607 C606 1.397 . S
C607 C608 1.334 . S
C608 H579 0.950 . S
C608 C607 1.334 . S
C608 C609 1.287 . S
C609 C608 1.287 . S
C609 C610 1.524 . S
C609 H612 0.999 . S
C610 H580 0.950 . S
C610 C609 1.524 . S
C610 C611 1.415 . S
C611 H581 0.950 . S
C611 C606 1.363 . S
C611 C610 1.415 . S
H612 C609 0.999 . S
H613 C594 0.913 . S
H614 C632 0.951 . S
H615 C634 0.951 . S
H616 C636 0.950 . S
H617 C637 0.950 . S
H618 C639 0.950 . S
H619 C642 0.950 . S
H620 C643 0.950 . S
H621 C645 0.950 . S
H622 C646 0.950 . S
H623 C647 0.951 . S
H624 C649 0.951 . S
H625 C651 0.950 . S
H626 C652 0.950 . S
H627 C654 0.950 . S
H628 C657 0.950 . S
H629 C658 0.950 . S
H630 C660 0.950 . S
H631 C661 0.950 . S
C632 H614 0.951 . S
C632 C633 1.366 . S
C632 C634 1.388 . S
C633 C632 1.366 . S
C633 C637 1.385 . S
C634 H615 0.951 . S
C634 C632 1.388 . S
C634 C635 1.366 . S
C635 C634 1.366 . S
C635 C636 1.414 . S
C635 C638 1.499 . S
C636 H616 0.950 . S
C636 C635 1.414 . S
C636 C637 1.374 . S
C637 H617 0.950 . S
C637 C633 1.385 . S
C637 C636 1.374 . S
C638 C635 1.499 . S
C638 C639 1.373 . S
C638 C640 1.389 . S
C639 H618 0.950 . S
C639 C638 1.373 . S
C639 C655 1.377 . S
C640 C638 1.389 . S
C640 C641 1.524 . S
C640 C654 1.377 . S
C641 C640 1.524 . S
C641 C642 1.397 . S
C641 C646 1.363 . S
C642 H619 0.950 . S
C642 C641 1.397 . S
C642 C643 1.334 . S
C643 H620 0.950 . S
C643 C642 1.334 . S
C643 C644 1.287 . S
C644 C643 1.287 . S
C644 C645 1.524 . S
C644 H663 0.913 . S
C645 H621 0.950 . S
C645 C644 1.524 . S
C645 C646 1.415 . S
C646 H622 0.950 . S
C646 C641 1.363 . S
C646 C645 1.415 . S
C647 H623 0.951 . S
C647 C648 1.366 . S
C647 C649 1.388 . S
C648 C647 1.366 . S
C648 C652 1.385 . S
C649 H624 0.951 . S
C649 C647 1.388 . S
C649 C650 1.366 . S
C650 C649 1.366 . S
C650 C651 1.414 . S
C650 C653 1.499 . S
C651 H625 0.950 . S
C651 C650 1.414 . S
C651 C652 1.374 . S
C652 H626 0.950 . S
C652 C648 1.385 . S
C652 C651 1.374 . S
C653 C650 1.499 . S
C653 C654 1.373 . S
C653 C655 1.389 . S
C654 H627 0.950 . S
C654 C640 1.377 . S
C654 C653 1.373 . S
C655 C639 1.377 . S
C655 C653 1.389 . S
C655 C656 1.524 . S
C656 C655 1.524 . S
C656 C657 1.397 . S
C656 C661 1.363 . S
C657 H628 0.950 . S
C657 C656 1.397 . S
C657 C658 1.334 . S
C658 H629 0.950 . S
C658 C657 1.334 . S
C658 C659 1.287 . S
C659 C658 1.287 . S
C659 C660 1.524 . S
C659 H662 0.999 . S
C660 H630 0.950 . S
C660 C659 1.524 . S
C660 C661 1.415 . S
C661 H631 0.950 . S
C661 C656 1.363 . S
C661 C660 1.415 . S
H662 C659 0.999 . S
H663 C644 0.913 . S
H664 C682 0.951 . S
H665 C684 0.951 . S
H666 C686 0.950 . S
H667 C687 0.950 . S
H668 C689 0.950 . S
H669 C692 0.950 . S
H670 C693 0.950 . S
H671 C695 0.950 . S
H672 C696 0.950 . S
H673 C697 0.951 . S
H674 C699 0.951 . S
H675 C701 0.950 . S
H676 C702 0.950 . S
H677 C704 0.950 . S
H678 C707 0.950 . S
H679 C708 0.950 . S
H680 C710 0.950 . S
H681 C711 0.950 . S
C682 H664 0.951 . S
C682 C683 1.366 . S
C682 C684 1.388 . S
C683 C682 1.366 . S
C683 C687 1.385 . S
C684 H665 0.951 . S
C684 C682 1.388 . S
C684 C685 1.366 . S
C685 C684 1.366 . S
C685 C686 1.414 . S
C685 C688 1.499 . S
C686 H666 0.950 . S
C686 C685 1.414 . S
C686 C687 1.374 . S
C687 H667 0.950 . S
C687 C683 1.385 . S
C687 C686 1.374 . S
C688 C685 1.499 . S
C688 C689 1.373 . S
C688 C690 1.389 . S
C689 H668 0.950 . S
C689 C688 1.373 . S
C689 C705 1.377 . S
C690 C688 1.389 . S
C690 C691 1.524 . S
C690 C704 1.377 . S
C691 C690 1.524 . S
C691 C692 1.397 . S
C691 C696 1.363 . S
C692 H669 0.950 . S
C692 C691 1.397 . S
C692 C693 1.334 . S
C693 H670 0.950 . S
C693 C692 1.334 . S
C693 C694 1.287 . S
C694 C693 1.287 . S
C694 C695 1.524 . S
C694 H713 0.913 . S
C695 H671 0.950 . S
C695 C694 1.524 . S
C695 C696 1.415 . S
C696 H672 0.950 . S
C696 C691 1.363 . S
C696 C695 1.415 . S
C697 H673 0.951 . S
C697 C698 1.366 . S
C697 C699 1.388 . S
C698 C697 1.366 . S
C698 C702 1.385 . S
C699 H674 0.951 . S
C699 C697 1.388 . S
C699 C700 1.366 . S
C700 C699 1.366 . S
C700 C701 1.414 . S
C700 C703 1.499 . S
C701 H675 0.950 . S
C701 C700 1.414 . S
C701 C702 1.374 . S
C702 H676 0.950 . S
C702 C698 1.385 . S
C702 C701 1.374 . S
C703 C700 1.499 . S
C703 C704 1.373 . S
C703 C705 1.389 . S
C704 H677 0.950 . S
C704 C690 1.377 . S
C704 C703 1.373 . S
C705 C689 1.377 . S
C705 C703 1.389 . S
C705 C706 1.524 . S
C706 C705 1.524 . S
C706 C707 1.397 . S
C706 C711 1.363 . S
C707 H678 0.950 . S
C707 C706 1.397 . S
C707 C708 1.334 . S
C708 H679 0.950 . S
C708 C707 1.334 . S
C708 C709 1.287 . S
C709 C708 1.287 . S
C709 C710 1.524 . S
C709 H712 0.999 . S
C710 H680 0.950 . S
C710 C709 1.524 . S
C710 C711 1.415 . S
C711 H681 0.950 . S
C711 C706 1.363 . S
C711 C710 1.415 . S
H712 C709 0.999 . S
H713 C694 0.913 . S
H714 C732 0.951 . S
H715 C734 0.951 . S
H716 C736 0.950 . S
H717 C737 0.950 . S
H718 C739 0.950 . S
H719 C742 0.950 . S
H720 C743 0.950 . S
H721 C745 0.950 . S
H722 C746 0.950 . S
H723 C747 0.951 . S
H724 C749 0.951 . S
H725 C751 0.950 . S
H726 C752 0.950 . S
H727 C754 0.950 . S
H728 C757 0.950 . S
H729 C758 0.950 . S
H730 C760 0.950 . S
H731 C761 0.950 . S
C732 H714 0.951 . S
C732 C733 1.366 . S
C732 C734 1.388 . S
C733 C732 1.366 . S
C733 C737 1.385 . S
C734 H715 0.951 . S
C734 C732 1.388 . S
C734 C735 1.366 . S
C735 C734 1.366 . S
C735 C736 1.414 . S
C735 C738 1.499 . S
C736 H716 0.950 . S
C736 C735 1.414 . S
C736 C737 1.374 . S
C737 H717 0.950 . S
C737 C733 1.385 . S
C737 C736 1.374 . S
C738 C735 1.499 . S
C738 C739 1.373 . S
C738 C740 1.389 . S
C739 H718 0.950 . S
C739 C738 1.373 . S
C739 C755 1.377 . S
C740 C738 1.389 . S
C740 C741 1.524 . S
C740 C754 1.377 . S
C741 C740 1.524 . S
C741 C742 1.397 . S
C741 C746 1.363 . S
C742 H719 0.950 . S
C742 C741 1.397 . S
C742 C743 1.334 . S
C743 H720 0.950 . S
C743 C742 1.334 . S
C743 C744 1.287 . S
C744 C743 1.287 . S
C744 C745 1.524 . S
C744 H763 0.913 . S
C745 H721 0.950 . S
C745 C744 1.524 . S
C745 C746 1.415 . S
C746 H722 0.950 . S
C746 C741 1.363 . S
C746 C745 1.415 . S
C747 H723 0.951 . S
C747 C748 1.366 . S
C747 C749 1.388 . S
C748 C747 1.366 . S
C748 C752 1.385 . S
C749 H724 0.951 . S
C749 C747 1.388 . S
C749 C750 1.366 . S
C750 C749 1.366 . S
C750 C751 1.414 . S
C750 C753 1.499 . S
C751 H725 0.950 . S
C751 C750 1.414 . S
C751 C752 1.374 . S
C752 H726 0.950 . S
C752 C748 1.385 . S
C752 C751 1.374 . S
C753 C750 1.499 . S
C753 C754 1.373 . S
C753 C755 1.389 . S
C754 H727 0.950 . S
C754 C740 1.377 . S
C754 C753 1.373 . S
C755 C739 1.377 . S
C755 C753 1.389 . S
C755 C756 1.524 . S
C756 C755 1.524 . S
C756 C757 1.397 . S
C756 C761 1.363 . S
C757 H728 0.950 . S
C757 C756 1.397 . S
C757 C758 1.334 . S
C758 H729 0.950 . S
C758 C757 1.334 . S
C758 C759 1.287 . S
C759 C758 1.287 . S
C759 C760 1.524 . S
C759 H762 0.999 . S
C760 H730 0.950 . S
C760 C759 1.524 . S
C760 C761 1.415 . S
C761 H731 0.950 . S
C761 C756 1.363 . S
C761 C760 1.415 . S
H762 C759 0.999 . S
H763 C744 0.913 . S
H764 C782 0.951 . S
H765 C784 0.951 . S
H766 C786 0.950 . S
H767 C787 0.950 . S
H768 C789 0.950 . S
H769 C792 0.950 . S
H770 C793 0.950 . S
H771 C795 0.950 . S
H772 C796 0.950 . S
H773 C797 0.951 . S
H774 C799 0.951 . S
H775 C801 0.950 . S
H776 C802 0.950 . S
H777 C804 0.950 . S
H778 C807 0.950 . S
H779 C808 0.950 . S
H780 C810 0.950 . S
H781 C811 0.950 . S
C782 H764 0.951 . S
C782 C783 1.366 . S
C782 C784 1.388 . S
C783 C782 1.366 . S
C783 C787 1.385 . S
C784 H765 0.951 . S
C784 C782 1.388 . S
C784 C785 1.366 . S
C785 C784 1.366 . S
C785 C786 1.414 . S
C785 C788 1.499 . S
C786 H766 0.950 . S
C786 C785 1.414 . S
C786 C787 1.374 . S
C787 H767 0.950 . S
C787 C783 1.385 . S
C787 C786 1.374 . S
C788 C785 1.499 . S
C788 C789 1.373 . S
C788 C790 1.389 . S
C789 H768 0.950 . S
C789 C788 1.373 . S
C789 C805 1.377 . S
C790 C788 1.389 . S
C790 C791 1.524 . S
C790 C804 1.377 . S
C791 C790 1.524 . S
C791 C792 1.397 . S
C791 C796 1.363 . S
C792 H769 0.950 . S
C792 C791 1.397 . S
C792 C793 1.334 . S
C793 H770 0.950 . S
C793 C792 1.334 . S
C793 C794 1.287 . S
C794 C793 1.287 . S
C794 C795 1.524 . S
C794 H813 0.913 . S
C795 H771 0.950 . S
C795 C794 1.524 . S
C795 C796 1.415 . S
C796 H772 0.950 . S
C796 C791 1.363 . S
C796 C795 1.415 . S
C797 H773 0.951 . S
C797 C798 1.366 . S
C797 C799 1.388 . S
C798 C797 1.366 . S
C798 C802 1.385 . S
C799 H774 0.951 . S
C799 C797 1.388 . S
C799 C800 1.366 . S
C800 C799 1.366 . S
C800 C801 1.414 . S
C800 C803 1.499 . S
C801 H775 0.950 . S
C801 C800 1.414 . S
C801 C802 1.374 . S
C802 H776 0.950 . S
C802 C798 1.385 . S
C802 C801 1.374 . S
C803 C800 1.499 . S
C803 C804 1.373 . S
C803 C805 1.389 . S
C804 H777 0.950 . S
C804 C790 1.377 . S
C804 C803 1.373 . S
C805 C789 1.377 . S
C805 C803 1.389 . S
C805 C806 1.524 . S
C806 C805 1.524 . S
C806 C807 1.397 . S
C806 C811 1.363 . S
C807 H778 0.950 . S
C807 C806 1.397 . S
C807 C808 1.334 . S
C808 H779 0.950 . S
C808 C807 1.334 . S
C808 C809 1.287 . S
C809 C808 1.287 . S
C809 C810 1.524 . S
C809 H812 0.999 . S
C810 H780 0.950 . S
C810 C809 1.524 . S
C810 C811 1.415 . S
C811 H781 0.950 . S
C811 C806 1.363 . S
C811 C810 1.415 . S
H812 C809 0.999 . S
H813 C794 0.913 . S
H814 C832 0.951 . S
H815 C834 0.951 . S
H816 C836 0.950 . S
H817 C837 0.950 . S
H818 C839 0.950 . S
H819 C842 0.950 . S
H820 C843 0.950 . S
H821 C845 0.950 . S
H822 C846 0.950 . S
H823 C847 0.951 . S
H824 C849 0.951 . S
H825 C851 0.950 . S
H826 C852 0.950 . S
H827 C854 0.950 . S
H828 C857 0.950 . S
H829 C858 0.950 . S
H830 C860 0.950 . S
H831 C861 0.950 . S
C832 H814 0.951 . S
C832 C833 1.366 . S
C832 C834 1.388 . S
C833 C832 1.366 . S
C833 C837 1.385 . S
C834 H815 0.951 . S
C834 C832 1.388 . S
C834 C835 1.366 . S
C835 C834 1.366 . S
C835 C836 1.414 . S
C835 C838 1.499 . S
C836 H816 0.950 . S
C836 C835 1.414 . S
C836 C837 1.374 . S
C837 H817 0.950 . S
C837 C833 1.385 . S
C837 C836 1.374 . S
C838 C835 1.499 . S
C838 C839 1.373 . S
C838 C840 1.389 . S
C839 H818 0.950 . S
C839 C838 1.373 . S
C839 C855 1.377 . S
C840 C838 1.389 . S
C840 C841 1.524 . S
C840 C854 1.377 . S
C841 C840 1.524 . S
C841 C842 1.397 . S
C841 C846 1.363 . S
C842 H819 0.950 . S
C842 C841 1.397 . S
C842 C843 1.334 . S
C843 H820 0.950 . S
C843 C842 1.334 . S
C843 C844 1.287 . S
C844 C843 1.287 . S
C844 C845 1.524 . S
C844 H863 0.913 . S
C845 H821 0.950 . S
C845 C844 1.524 . S
C845 C846 1.415 . S
C846 H822 0.950 . S
C846 C841 1.363 . S
C846 C845 1.415 . S
C847 H823 0.951 . S
C847 C848 1.366 . S
C847 C849 1.388 . S
C848 C847 1.366 . S
C848 C852 1.385 . S
C849 H824 0.951 . S
C849 C847 1.388 . S
C849 C850 1.366 . S
C850 C849 1.366 . S
C850 C851 1.414 . S
C850 C853 1.499 . S
C851 H825 0.950 . S
C851 C850 1.414 . S
C851 C852 1.374 . S
C852 H826 0.950 . S
C852 C848 1.385 . S
C852 C851 1.374 . S
C853 C850 1.499 . S
C853 C854 1.373 . S
C853 C855 1.389 . S
C854 H827 0.950 . S
C854 C840 1.377 . S
C854 C853 1.373 . S
C855 C839 1.377 . S
C855 C853 1.389 . S
C855 C856 1.524 . S
C856 C855 1.524 . S
C856 C857 1.397 . S
C856 C861 1.363 . S
C857 H828 0.950 . S
C857 C856 1.397 . S
C857 C858 1.334 . S
C858 H829 0.950 . S
C858 C857 1.334 . S
C858 C859 1.287 . S
C859 C858 1.287 . S
C859 C860 1.524 . S
C859 H862 0.999 . S
C860 H830 0.950 . S
C860 C859 1.524 . S
C860 C861 1.415 . S
C861 H831 0.950 . S
C861 C856 1.363 . S
C861 C860 1.415 . S
H862 C859 0.999 . S
H863 C844 0.913 . S
H864 C882 0.951 . S
H865 C884 0.951 . S
H866 C886 0.950 . S
H867 C887 0.950 . S
H868 C889 0.950 . S
H869 C892 0.950 1_455 S
H870 C893 0.950 . S
H871 C895 0.950 . S
H872 C896 0.950 . S
H873 C897 0.951 . S
H874 C899 0.951 . S
H875 C901 0.950 . S
H876 C902 0.958 . S
H877 C904 0.950 . S
H878 C907 0.950 . S
H879 C908 0.950 . S
H880 C910 0.950 . S
H881 C911 0.950 . S
C882 H864 0.951 . S
C882 C883 1.366 1_655 S
C882 C884 1.388 . S
C883 C882 1.366 1_455 S
C883 C887 1.385 . S
C884 H865 0.951 . S
C884 C882 1.388 . S
C884 C885 1.366 1_655 S
C885 C884 1.366 1_455 S
C885 C886 1.414 . S
C885 C888 1.499 . S
C886 H866 0.950 . S
C886 C885 1.414 . S
C886 C887 1.374 . S
C887 H867 0.950 . S
C887 C883 1.385 . S
C887 C886 1.374 . S
C888 C885 1.499 . S
C888 C889 1.373 . S
C888 C890 1.389 1_455 S
C889 H868 0.950 . S
C889 C888 1.373 . S
C889 C905 1.377 . S
C890 C888 1.389 1_655 S
C890 C891 1.524 . S
C890 C904 1.377 . S
C891 C890 1.524 . S
C891 C892 1.397 . S
C891 C896 1.363 . S
C892 H869 0.950 1_655 S
C892 C891 1.397 . S
C892 C893 1.334 . S
C893 H870 0.950 . S
C893 C892 1.334 . S
C893 C894 1.287 . S
C894 C893 1.287 . S
C894 C895 1.524 . S
C894 H913 0.913 . S
C895 H871 0.950 . S
C895 C894 1.524 . S
C895 C896 1.415 . S
C896 H872 0.950 . S
C896 C891 1.363 . S
C896 C895 1.415 . S
C897 H873 0.951 . S
C897 C898 1.366 . S
C897 C899 1.388 1_554 S
C898 C897 1.366 . S
C898 C902 1.396 1_455 S
C899 H874 0.951 . S
C899 C897 1.388 1_556 S
C899 C900 1.366 . S
C900 C899 1.366 . S
C900 C901 1.414 1_455 S
C900 C903 1.499 . S
C901 H875 0.950 . S
C901 C900 1.414 1_655 S
C901 C902 1.354 1_556 S
C902 H876 0.958 . S
C902 C898 1.396 1_655 S
C902 C901 1.354 1_554 S
C903 C900 1.499 . S
C903 C904 1.373 1_455 S
C903 C905 1.389 . S
C904 H877 0.950 . S
C904 C890 1.377 . S
C904 C903 1.373 1_655 S
C905 C889 1.377 . S
C905 C903 1.389 . S
C905 C906 1.524 . S
C906 C905 1.524 . S
C906 C907 1.397 . S
C906 C911 1.363 . S
C907 H878 0.950 . S
C907 C906 1.397 . S
C907 C908 1.334 . S
C908 H879 0.950 . S
C908 C907 1.334 . S
C908 C909 1.287 . S
C909 C908 1.287 . S
C909 C910 1.524 . S
C909 H912 0.999 . S
C910 H880 0.950 . S
C910 C909 1.524 . S
C910 C911 1.415 . S
C911 H881 0.950 . S
C911 C906 1.363 . S
C911 C910 1.415 . S
H912 C909 0.999 . S
H913 C894 0.913 . S
H914 C932 0.951 . S
H915 C934 0.951 . S
H916 C936 0.950 . S
H917 C937 0.950 . S
H918 C939 0.950 . S
H919 C942 0.950 . S
H920 C943 0.950 . S
H921 C945 0.950 . S
H922 C946 0.950 . S
H923 C947 0.951 . S
H924 C949 0.951 . S
H925 C951 0.950 . S
H926 C952 0.950 . S
H927 C954 0.950 . S
H928 C957 0.950 . S
H929 C958 0.950 . S
H930 C960 0.950 . S
H931 C961 0.950 . S
C932 H914 0.951 . S
C932 C933 1.366 . S
C932 C934 1.388 . S
C933 C932 1.366 . S
C933 C937 1.385 . S
C934 H915 0.951 . S
C934 C932 1.388 . S
C934 C935 1.366 . S
C935 C934 1.366 . S
C935 C936 1.414 . S
C935 C938 1.499 . S
C936 H916 0.950 . S
C936 C935 1.414 . S
C936 C937 1.374 . S
C937 H917 0.950 . S
C937 C933 1.385 . S
C937 C936 1.374 . S
C938 C935 1.499 . S
C938 C939 1.373 . S
C938 C940 1.389 . S
C939 H918 0.950 . S
C939 C938 1.373 . S
C939 C955 1.377 . S
C940 C938 1.389 . S
C940 C941 1.524 . S
C940 C954 1.377 . S
C941 C940 1.524 . S
C941 C942 1.397 . S
C941 C946 1.363 . S
C942 H919 0.950 . S
C942 C941 1.397 . S
C942 C943 1.334 . S
C943 H920 0.950 . S
C943 C942 1.334 . S
C943 C944 1.287 . S
C944 C943 1.287 . S
C944 C945 1.524 . S
C944 H963 0.913 . S
C945 H921 0.950 . S
C945 C944 1.524 . S
C945 C946 1.415 . S
C946 H922 0.950 . S
C946 C941 1.363 . S
C946 C945 1.415 . S
C947 H923 0.951 . S
C947 C948 1.366 . S
C947 C949 1.388 . S
C948 C947 1.366 . S
C948 C952 1.385 . S
C949 H924 0.951 . S
C949 C947 1.388 . S
C949 C950 1.366 . S
C950 C949 1.366 . S
C950 C951 1.414 . S
C950 C953 1.499 . S
C951 H925 0.950 . S
C951 C950 1.414 . S
C951 C952 1.374 . S
C952 H926 0.950 . S
C952 C948 1.385 . S
C952 C951 1.374 . S
C953 C950 1.499 . S
C953 C954 1.373 . S
C953 C955 1.389 . S
C954 H927 0.950 . S
C954 C940 1.377 . S
C954 C953 1.373 . S
C955 C939 1.377 . S
C955 C953 1.389 . S
C955 C956 1.524 . S
C956 C955 1.524 . S
C956 C957 1.397 . S
C956 C961 1.363 . S
C957 H928 0.950 . S
C957 C956 1.397 . S
C957 C958 1.334 . S
C958 H929 0.950 . S
C958 C957 1.334 . S
C958 C959 1.287 . S
C959 C958 1.287 . S
C959 C960 1.524 . S
C959 H962 0.999 . S
C960 H930 0.950 . S
C960 C959 1.524 . S
C960 C961 1.415 . S
C961 H931 0.950 . S
C961 C956 1.363 . S
C961 C960 1.415 . S
H962 C959 0.999 . S
H963 C944 0.913 . S
H964 C982 0.951 . S
H965 C984 0.951 . S
H966 C986 0.950 . S
H967 C987 0.950 . S
H968 C989 0.950 . S
H969 C992 0.950 . S
H970 C993 0.950 . S
H971 C995 0.950 1_556 S
H972 C996 0.950 . S
H973 C997 0.951 . S
H974 C999 0.951 . S
H975 C1001 0.950 . S
H976 C1002 0.950 . S
H977 C1004 0.950 . S
H978 C1007 0.950 . S
H979 C1008 0.950 . S
H980 C1010 0.950 . S
H981 C1011 0.950 . S
C982 H964 0.951 . S
C982 C983 1.366 . S
C982 C984 1.388 1_556 S
C983 C982 1.366 . S
C983 C987 1.385 1_556 S
C984 H965 0.951 . S
C984 C982 1.388 1_554 S
C984 C985 1.366 . S
C985 C984 1.366 . S
C985 C986 1.414 . S
C985 C988 1.499 . S
C986 H966 0.950 . S
C986 C985 1.414 . S
C986 C987 1.374 . S
C987 H967 0.950 . S
C987 C983 1.385 1_554 S
C987 C986 1.374 . S
C988 C985 1.499 . S
C988 C989 1.373 . S
C988 C990 1.389 1_455 S
C989 H968 0.950 . S
C989 C988 1.373 . S
C989 C1005 1.377 . S
C990 C988 1.389 1_655 S
C990 C991 1.524 . S
C990 C1004 1.377 . S
C991 C990 1.524 . S
C991 C992 1.397 . S
C991 C996 1.363 . S
C992 H969 0.950 . S
C992 C991 1.397 . S
C992 C993 1.334 . S
C993 H970 0.950 . S
C993 C992 1.334 . S
C993 C994 1.287 . S
C994 C993 1.287 . S
C994 C995 1.524 . S
C994 H1013 0.913 1_554 S
C995 H971 0.950 1_554 S
C995 C994 1.524 . S
C995 C996 1.415 . S
C996 H972 0.950 . S
C996 C991 1.363 . S
C996 C995 1.415 . S
C997 H973 0.951 . S
C997 C998 1.366 . S
C997 C999 1.388 . S
C998 C997 1.366 . S
C998 C1002 1.385 . S
C999 H974 0.951 . S
C999 C997 1.388 . S
C999 C1000 1.366 . S
C1000 C999 1.366 . S
C1000 C1001 1.414 . S
C1000 C1003 1.499 . S
C1001 H975 0.950 . S
C1001 C1000 1.414 . S
C1001 C1002 1.374 . S
C1002 H976 0.950 . S
C1002 C998 1.385 . S
C1002 C1001 1.374 . S
C1003 C1000 1.499 . S
C1003 C1004 1.373 1_455 S
C1003 C1005 1.389 . S
C1004 H977 0.950 . S
C1004 C990 1.377 . S
C1004 C1003 1.373 1_655 S
C1005 C989 1.377 . S
C1005 C1003 1.389 . S
C1005 C1006 1.524 . S
C1006 C1005 1.524 . S
C1006 C1007 1.397 . S
C1006 C1011 1.363 . S
C1007 H978 0.950 . S
C1007 C1006 1.397 . S
C1007 C1008 1.334 . S
C1008 H979 0.950 . S
C1008 C1007 1.334 . S
C1008 C1009 1.287 . S
C1009 C1008 1.287 . S
C1009 C1010 1.524 . S
C1009 H1012 0.999 . S
C1010 H980 0.950 . S
C1010 C1009 1.524 . S
C1010 C1011 1.415 . S
C1011 H981 0.950 . S
C1011 C1006 1.363 . S
C1011 C1010 1.415 . S
H1012 C1009 0.999 . S
H1013 C994 0.913 1_556 S
H1014 C1032 0.951 . S
H1015 C1034 0.951 . S
H1016 C1036 0.950 . S
H1017 C1037 0.950 . S
H1018 C1039 0.950 . S
H1019 C1042 0.950 . S
H1020 C1043 0.950 . S
H1021 C1045 0.950 . S
H1022 C1046 0.950 . S
H1023 C1047 0.951 . S
H1024 C1049 0.951 . S
H1025 C1051 0.950 . S
H1026 C1052 0.950 . S
H1027 C1054 0.950 . S
H1028 C1057 0.950 . S
H1029 C1058 0.950 . S
H1030 C1060 0.950 . S
H1031 C1061 0.950 . S
C1032 H1014 0.951 . S
C1032 C1033 1.366 . S
C1032 C1034 1.388 . S
C1033 C1032 1.366 . S
C1033 C1037 1.385 . S
C1034 H1015 0.951 . S
C1034 C1032 1.388 . S
C1034 C1035 1.366 . S
C1035 C1034 1.366 . S
C1035 C1036 1.414 . S
C1035 C1038 1.499 . S
C1036 H1016 0.950 . S
C1036 C1035 1.414 . S
C1036 C1037 1.374 . S
C1037 H1017 0.950 . S
C1037 C1033 1.385 . S
C1037 C1036 1.374 . S
C1038 C1035 1.499 . S
C1038 C1039 1.373 . S
C1038 C1040 1.389 . S
C1039 H1018 0.950 . S
C1039 C1038 1.373 . S
C1039 C1055 1.377 . S
C1040 C1038 1.389 . S
C1040 C1041 1.524 . S
C1040 C1054 1.377 . S
C1041 C1040 1.524 . S
C1041 C1042 1.397 . S
C1041 C1046 1.363 . S
C1042 H1019 0.950 . S
C1042 C1041 1.397 . S
C1042 C1043 1.334 . S
C1043 H1020 0.950 . S
C1043 C1042 1.334 . S
C1043 C1044 1.287 . S
C1044 C1043 1.287 . S
C1044 C1045 1.524 . S
C1044 H1063 0.913 . S
C1045 H1021 0.950 . S
C1045 C1044 1.524 . S
C1045 C1046 1.415 . S
C1046 H1022 0.950 . S
C1046 C1041 1.363 . S
C1046 C1045 1.415 . S
C1047 H1023 0.951 . S
C1047 C1048 1.366 . S
C1047 C1049 1.388 . S
C1048 C1047 1.366 . S
C1048 C1052 1.385 . S
C1049 H1024 0.951 . S
C1049 C1047 1.388 . S
C1049 C1050 1.366 . S
C1050 C1049 1.366 . S
C1050 C1051 1.414 . S
C1050 C1053 1.499 . S
C1051 H1025 0.950 . S
C1051 C1050 1.414 . S
C1051 C1052 1.374 . S
C1052 H1026 0.950 . S
C1052 C1048 1.385 . S
C1052 C1051 1.374 . S
C1053 C1050 1.499 . S
C1053 C1054 1.373 . S
C1053 C1055 1.389 . S
C1054 H1027 0.950 . S
C1054 C1040 1.377 . S
C1054 C1053 1.373 . S
C1055 C1039 1.377 . S
C1055 C1053 1.389 . S
C1055 C1056 1.524 . S
C1056 C1055 1.524 . S
C1056 C1057 1.397 . S
C1056 C1061 1.363 . S
C1057 H1028 0.950 . S
C1057 C1056 1.397 . S
C1057 C1058 1.334 . S
C1058 H1029 0.950 . S
C1058 C1057 1.334 . S
C1058 C1059 1.287 . S
C1059 C1058 1.287 . S
C1059 C1060 1.524 . S
C1059 H1062 0.999 . S
C1060 H1030 0.950 . S
C1060 C1059 1.524 . S
C1060 C1061 1.415 . S
C1061 H1031 0.950 . S
C1061 C1056 1.363 . S
C1061 C1060 1.415 . S
H1062 C1059 0.999 . S
H1063 C1044 0.913 . S
H1064 C1082 0.951 . S
H1065 C1084 0.951 . S
H1066 C1086 0.950 . S
H1067 C1087 0.950 . S
H1068 C1089 0.950 . S
H1069 C1092 0.950 . S
H1070 C1093 0.950 . S
H1071 C1095 0.950 . S
H1072 C1096 0.950 . S
H1073 C1097 0.951 . S
H1074 C1099 0.951 . S
H1075 C1101 0.950 . S
H1076 C1102 0.950 . S
H1077 C1104 0.950 . S
H1078 C1107 0.950 . S
H1079 C1108 0.950 . S
H1080 C1110 0.950 . S
H1081 C1111 0.950 . S
C1082 H1064 0.951 . S
C1082 C1083 1.366 . S
C1082 C1084 1.388 . S
C1083 C1082 1.366 . S
C1083 C1087 1.385 . S
C1084 H1065 0.951 . S
C1084 C1082 1.388 . S
C1084 C1085 1.366 . S
C1085 C1084 1.366 . S
C1085 C1086 1.414 . S
C1085 C1088 1.499 . S
C1086 H1066 0.950 . S
C1086 C1085 1.414 . S
C1086 C1087 1.374 . S
C1087 H1067 0.950 . S
C1087 C1083 1.385 . S
C1087 C1086 1.374 . S
C1088 C1085 1.499 . S
C1088 C1089 1.373 . S
C1088 C1090 1.389 . S
C1089 H1068 0.950 . S
C1089 C1088 1.373 . S
C1089 C1105 1.377 . S
C1090 C1088 1.389 . S
C1090 C1091 1.524 . S
C1090 C1104 1.377 . S
C1091 C1090 1.524 . S
C1091 C1092 1.397 . S
C1091 C1096 1.363 . S
C1092 H1069 0.950 . S
C1092 C1091 1.397 . S
C1092 C1093 1.334 . S
C1093 H1070 0.950 . S
C1093 C1092 1.334 . S
C1093 C1094 1.287 . S
C1094 C1093 1.287 . S
C1094 C1095 1.524 . S
C1094 H1113 0.913 . S
C1095 H1071 0.950 . S
C1095 C1094 1.524 . S
C1095 C1096 1.415 . S
C1096 H1072 0.950 . S
C1096 C1091 1.363 . S
C1096 C1095 1.415 . S
C1097 H1073 0.951 . S
C1097 C1098 1.366 1_556 S
C1097 C1099 1.388 . S
C1098 C1097 1.366 1_554 S
C1098 C1102 1.385 . S
C1099 H1074 0.951 . S
C1099 C1097 1.388 . S
C1099 C1100 1.366 . S
C1100 C1099 1.366 . S
C1100 C1101 1.414 . S
C1100 C1103 1.499 . S
C1101 H1075 0.950 . S
C1101 C1100 1.414 . S
C1101 C1102 1.374 1_556 S
C1102 H1076 0.950 . S
C1102 C1098 1.385 . S
C1102 C1101 1.374 1_554 S
C1103 C1100 1.499 . S
C1103 C1104 1.373 . S
C1103 C1105 1.389 . S
C1104 H1077 0.950 . S
C1104 C1090 1.377 . S
C1104 C1103 1.373 . S
C1105 C1089 1.377 . S
C1105 C1103 1.389 . S
C1105 C1106 1.524 . S
C1106 C1105 1.524 . S
C1106 C1107 1.397 . S
C1106 C1111 1.363 . S
C1107 H1078 0.950 . S
C1107 C1106 1.397 . S
C1107 C1108 1.334 . S
C1108 H1079 0.950 . S
C1108 C1107 1.334 . S
C1108 C1109 1.287 . S
C1109 C1108 1.287 . S
C1109 C1110 1.524 . S
C1109 H1112 0.999 . S
C1110 H1080 0.950 . S
C1110 C1109 1.524 . S
C1110 C1111 1.415 . S
C1111 H1081 0.950 . S
C1111 C1106 1.363 . S
C1111 C1110 1.415 . S
H1112 C1109 0.999 . S
H1113 C1094 0.913 . S
H1114 C1132 0.951 . S
H1115 C1134 0.951 . S
H1116 C1136 0.950 . S
H1117 C1137 0.950 . S
H1118 C1139 0.950 1_655 S
H1119 C1142 0.950 . S
H1120 C1143 0.950 . S
H1121 C1145 0.950 . S
H1122 C1146 0.950 . S
H1123 C1147 0.951 . S
H1124 C1149 0.951 . S
H1125 C1151 0.950 . S
H1126 C1152 0.950 . S
H1127 C1154 0.950 . S
H1128 C1157 0.950 . S
H1129 C1158 0.950 . S
H1130 C1160 0.950 . S
H1131 C1161 0.940 1_455 S
C1132 H1114 0.951 . S
C1132 C1133 1.366 . S
C1132 C1134 1.388 . S
C1133 C1132 1.366 . S
C1133 C1137 1.385 . S
C1134 H1115 0.951 . S
C1134 C1132 1.388 . S
C1134 C1135 1.366 . S
C1135 C1134 1.366 . S
C1135 C1136 1.414 . S
C1135 C1138 1.499 . S
C1136 H1116 0.950 . S
C1136 C1135 1.414 . S
C1136 C1137 1.374 . S
C1137 H1117 0.950 . S
C1137 C1133 1.385 . S
C1137 C1136 1.374 . S
C1138 C1135 1.499 . S
C1138 C1139 1.373 . S
C1138 C1140 1.389 . S
C1139 H1118 0.950 1_455 S
C1139 C1138 1.373 . S
C1139 C1155 1.377 . S
C1140 C1138 1.389 . S
C1140 C1141 1.524 . S
C1140 C1154 1.377 . S
C1141 C1140 1.524 . S
C1141 C1142 1.397 . S
C1141 C1146 1.363 . S
C1142 H1119 0.950 . S
C1142 C1141 1.397 . S
C1142 C1143 1.334 . S
C1143 H1120 0.950 . S
C1143 C1142 1.334 . S
C1143 C1144 1.287 . S
C1144 C1143 1.287 . S
C1144 C1145 1.524 . S
C1144 H1163 0.913 . S
C1145 H1121 0.950 . S
C1145 C1144 1.524 . S
C1145 C1146 1.415 . S
C1146 H1122 0.950 . S
C1146 C1141 1.363 . S
C1146 C1145 1.415 . S
C1147 H1123 0.951 . S
C1147 C1148 1.366 . S
C1147 C1149 1.388 . S
C1148 C1147 1.366 . S
C1148 C1152 1.385 . S
C1149 H1124 0.951 . S
C1149 C1147 1.388 . S
C1149 C1150 1.366 . S
C1150 C1149 1.366 . S
C1150 C1151 1.414 . S
C1150 C1153 1.499 . S
C1151 H1125 0.950 . S
C1151 C1150 1.414 . S
C1151 C1152 1.374 . S
C1152 H1126 0.950 . S
C1152 C1148 1.385 . S
C1152 C1151 1.374 . S
C1153 C1150 1.499 . S
C1153 C1154 1.373 . S
C1153 C1155 1.389 . S
C1154 H1127 0.950 . S
C1154 C1140 1.377 . S
C1154 C1153 1.373 . S
C1155 C1139 1.377 . S
C1155 C1153 1.389 . S
C1155 C1156 1.524 1_455 S
C1156 C1155 1.524 1_655 S
C1156 C1157 1.397 . S
C1156 C1161 1.363 . S
C1157 H1128 0.950 . S
C1157 C1156 1.397 . S
C1157 C1158 1.334 . S
C1158 H1129 0.950 . S
C1158 C1157 1.334 . S
C1158 C1159 1.287 . S
C1159 C1158 1.287 . S
C1159 C1160 1.524 . S
C1159 H1162 0.999 . S
C1160 H1130 0.950 . S
C1160 C1159 1.524 . S
C1160 C1161 1.415 . S
C1161 H1131 0.940 1_655 S
C1161 C1156 1.363 . S
C1161 C1160 1.415 . S
H1162 C1159 0.999 . S
H1163 C1144 0.913 . S
H1164 C1182 0.951 . S
H1165 C1184 0.951 . S
H1166 C1186 0.950 . S
H1167 C1187 0.950 . S
H1168 C1189 0.950 . S
H1169 C1192 0.950 . S
H1170 C1193 0.950 . S
H1171 C1195 0.950 . S
H1172 C1196 0.950 . S
H1173 C1197 0.951 . S
H1174 C1199 0.951 . S
H1175 C1201 0.950 . S
H1176 C1202 0.950 . S
H1177 C1204 0.950 . S
H1178 C1207 0.950 . S
H1179 C1208 0.950 . S
H1180 C1210 0.950 . S
H1181 C1211 0.950 . S
C1182 H1164 0.951 . S
C1182 C1183 1.366 . S
C1182 C1184 1.388 1_556 S
C1183 C1182 1.366 . S
C1183 C1187 1.385 1_556 S
C1184 H1165 0.951 . S
C1184 C1182 1.388 1_554 S
C1184 C1185 1.366 . S
C1185 C1184 1.366 . S
C1185 C1186 1.414 . S
C1185 C1188 1.499 . S
C1186 H1166 0.950 . S
C1186 C1185 1.414 . S
C1186 C1187 1.374 . S
C1187 H1167 0.950 . S
C1187 C1183 1.385 1_554 S
C1187 C1186 1.374 . S
C1188 C1185 1.499 . S
C1188 C1189 1.373 . S
C1188 C1190 1.389 . S
C1189 H1168 0.950 . S
C1189 C1188 1.373 . S
C1189 C1205 1.377 . S
C1190 C1188 1.389 . S
C1190 C1191 1.524 . S
C1190 C1204 1.377 . S
C1191 C1190 1.524 . S
C1191 C1192 1.397 . S
C1191 C1196 1.363 . S
C1192 H1169 0.950 . S
C1192 C1191 1.397 . S
C1192 C1193 1.334 . S
C1193 H1170 0.950 . S
C1193 C1192 1.334 . S
C1193 C1194 1.287 . S
C1194 C1193 1.287 . S
C1194 C1195 1.524 . S
C1194 H1213 0.913 . S
C1195 H1171 0.950 . S
C1195 C1194 1.524 . S
C1195 C1196 1.415 . S
C1196 H1172 0.950 . S
C1196 C1191 1.363 . S
C1196 C1195 1.415 . S
C1197 H1173 0.951 . S
C1197 C1198 1.366 . S
C1197 C1199 1.388 . S
C1198 C1197 1.366 . S
C1198 C1202 1.385 . S
C1199 H1174 0.951 . S
C1199 C1197 1.388 . S
C1199 C1200 1.366 . S
C1200 C1199 1.366 . S
C1200 C1201 1.414 . S
C1200 C1203 1.499 . S
C1201 H1175 0.950 . S
C1201 C1200 1.414 . S
C1201 C1202 1.374 . S
C1202 H1176 0.950 . S
C1202 C1198 1.385 . S
C1202 C1201 1.374 . S
C1203 C1200 1.499 . S
C1203 C1204 1.373 . S
C1203 C1205 1.389 . S
C1204 H1177 0.950 . S
C1204 C1190 1.377 . S
C1204 C1203 1.373 . S
C1205 C1189 1.377 . S
C1205 C1203 1.389 . S
C1205 C1206 1.524 . S
C1206 C1205 1.524 . S
C1206 C1207 1.397 . S
C1206 C1211 1.363 . S
C1207 H1178 0.950 . S
C1207 C1206 1.397 . S
C1207 C1208 1.334 . S
C1208 H1179 0.950 . S
C1208 C1207 1.334 . S
C1208 C1209 1.287 . S
C1209 C1208 1.287 . S
C1209 C1210 1.524 . S
C1209 H1212 0.999 . S
C1210 H1180 0.950 . S
C1210 C1209 1.524 . S
C1210 C1211 1.415 . S
C1211 H1181 0.950 . S
C1211 C1206 1.363 . S
C1211 C1210 1.415 . S
H1212 C1209 0.999 . S
H1213 C1194 0.913 . S
H1214 C1232 0.951 . S
H1215 C1234 0.951 . S
H1216 C1236 0.950 . S
H1217 C1237 0.950 . S
H1218 C1239 0.950 . S
H1219 C1242 0.950 1_655 S
H1220 C1243 0.950 1_655 S
H1221 C1245 0.950 . S
H1222 C1246 0.950 . S
H1223 C1247 0.951 . S
H1224 C1249 0.951 . S
H1225 C1251 0.950 . S
H1226 C1252 0.950 . S
H1227 C1254 0.950 . S
H1228 C1257 0.950 . S
H1229 C1258 0.950 . S
H1230 C1260 0.950 . S
H1231 C1261 0.950 . S
C1232 H1214 0.951 . S
C1232 C1233 1.366 . S
C1232 C1234 1.388 . S
C1233 C1232 1.366 . S
C1233 C1237 1.385 1_455 S
C1234 H1215 0.951 . S
C1234 C1232 1.388 . S
C1234 C1235 1.366 . S
C1235 C1234 1.366 . S
C1235 C1236 1.414 1_455 S
C1235 C1238 1.499 . S
C1236 H1216 0.950 . S
C1236 C1235 1.414 1_655 S
C1236 C1237 1.374 . S
C1237 H1217 0.950 . S
C1237 C1233 1.385 1_655 S
C1237 C1236 1.374 . S
C1238 C1235 1.499 . S
C1238 C1239 1.373 . S
C1238 C1240 1.389 . S
C1239 H1218 0.950 . S
C1239 C1238 1.373 . S
C1239 C1255 1.377 . S
C1240 C1238 1.389 . S
C1240 C1241 1.524 . S
C1240 C1254 1.377 . S
C1241 C1240 1.524 . S
C1241 C1242 1.397 . S
C1241 C1246 1.363 . S
C1242 H1219 0.950 1_455 S
C1242 C1241 1.397 . S
C1242 C1243 1.334 . S
C1243 H1220 0.950 1_455 S
C1243 C1242 1.334 . S
C1243 C1244 1.287 . S
C1244 C1243 1.287 . S
C1244 C1245 1.524 . S
C1244 H1263 0.913 . S
C1245 H1221 0.950 . S
C1245 C1244 1.524 . S
C1245 C1246 1.415 . S
C1246 H1222 0.950 . S
C1246 C1241 1.363 . S
C1246 C1245 1.415 . S
C1247 H1223 0.951 . S
C1247 C1248 1.366 1_655 S
C1247 C1249 1.388 . S
C1248 C1247 1.366 1_455 S
C1248 C1252 1.385 . S
C1249 H1224 0.951 . S
C1249 C1247 1.388 . S
C1249 C1250 1.366 1_655 S
C1250 C1249 1.366 1_455 S
C1250 C1251 1.414 . S
C1250 C1253 1.499 . S
C1251 H1225 0.950 . S
C1251 C1250 1.414 . S
C1251 C1252 1.374 . S
C1252 H1226 0.950 . S
C1252 C1248 1.385 . S
C1252 C1251 1.374 . S
C1253 C1250 1.499 . S
C1253 C1254 1.373 . S
C1253 C1255 1.389 . S
C1254 H1227 0.950 . S
C1254 C1240 1.377 . S
C1254 C1253 1.373 . S
C1255 C1239 1.377 . S
C1255 C1253 1.389 . S
C1255 C1256 1.524 . S
C1256 C1255 1.524 . S
C1256 C1257 1.397 . S
C1256 C1261 1.363 1_455 S
C1257 H1228 0.950 . S
C1257 C1256 1.397 . S
C1257 C1258 1.334 . S
C1258 H1229 0.950 . S
C1258 C1257 1.334 . S
C1258 C1259 1.287 . S
C1259 C1258 1.287 . S
C1259 C1260 1.524 1_455 S
C1259 H1262 0.999 . S
C1260 H1230 0.950 . S
C1260 C1259 1.524 1_655 S
C1260 C1261 1.415 . S
C1261 H1231 0.950 . S
C1261 C1256 1.363 1_655 S
C1261 C1260 1.415 . S
H1262 C1259 0.999 . S
H1263 C1244 0.913 . S
C283 N68 1.380 . S
C298 N2 1.380 . S
C333 N101 1.372 . S
C348 N35 1.372 . S
C383 N134 1.373 . S
C398 N200 1.372 . S
C433 N167 1.372 . S
C448 N233 1.372 . S
C483 C117 1.434 . S
C498 C18 1.434 . S
C533 C51 1.434 . S
C548 C84 1.434 . S
C583 C73 1.111 . S
C598 C40 1.111 . S
C633 C106 1.111 . S
C648 C7 1.111 . S
C683 C249 1.434 . S
C698 C150 1.434 . S
C733 C183 1.434 . S
C748 C216 1.435 . S
C783 C205 1.111 . S
C798 C172 1.111 . S
C833 C238 1.111 . S
C848 C139 1.111 . S
C883 N178 1.513 . S
C898 C21 1.566 . S
C933 C54 1.566 . S
C948 N145 1.514 . S
C983 C87 1.565 . S
C998 N244 1.514 . S
C1033 N211 1.513 . S
C1048 C120 1.566 . S
C1083 N46 1.514 . S
C1098 C153 1.566 . S
C1133 C186 1.566 . S
C1148 N13 1.514 . S
C1183 C219 1.566 . S
C1198 N112 1.514 . S
C1233 C252 1.566 . S
C1248 N79 1.514 . S
