# Generated by pormake.
# Topology gme, (4)-cn, num edge types: 1
# Building blocks:
#     Node 0, Type 0, BuildingBlock: AZAVOO_clean_sbu_0, # of connection points: 4
#     Node 1, Type 0, BuildingBlock: AZAVOO_clean_sbu_0, # of connection points: 4
#     Node 2, Type 0, BuildingBlock: AZAVOO_clean_sbu_0, # of connection points: 4
#     Node 3, Type 0, BuildingBlock: AZAVOO_clean_sbu_0, # of connection points: 4
#     Node 4, Type 0, BuildingBlock: AZAVOO_clean_sbu_0, # of connection points: 4
#     Node 5, Type 0, BuildingBlock: AZAVOO_clean_sbu_0, # of connection points: 4
#     Node 6, Type 0, BuildingBlock: AZAVOO_clean_sbu_0, # of connection points: 4
#     Node 7, Type 0, BuildingBlock: AZAVOO_clean_sbu_0, # of connection points: 4
#     Node 8, Type 0, BuildingBlock: AZAVOO_clean_sbu_0, # of connection points: 4
#     Node 9, Type 0, BuildingBlock: AZAVOO_clean_sbu_0, # of connection points: 4
#     Node 10, Type 0, BuildingBlock: AZAVOO_clean_sbu_0, # of connection points: 4
#     Node 11, Type 0, BuildingBlock: AZAVOO_clean_sbu_0, # of connection points: 4
#     Node 12, Type 0, BuildingBlock: AZAVOO_clean_sbu_0, # of connection points: 4
#     Node 13, Type 0, BuildingBlock: AZAVOO_clean_sbu_0, # of connection points: 4
#     Node 14, Type 0, BuildingBlock: AZAVOO_clean_sbu_0, # of connection points: 4
#     Node 15, Type 0, BuildingBlock: AZAVOO_clean_sbu_0, # of connection points: 4
#     Node 16, Type 0, BuildingBlock: AZAVOO_clean_sbu_0, # of connection points: 4
#     Node 17, Type 0, BuildingBlock: AZAVOO_clean_sbu_0, # of connection points: 4
#     Node 18, Type 0, BuildingBlock: AZAVOO_clean_sbu_0, # of connection points: 4
#     Node 19, Type 0, BuildingBlock: AZAVOO_clean_sbu_0, # of connection points: 4
#     Node 20, Type 0, BuildingBlock: AZAVOO_clean_sbu_0, # of connection points: 4
#     Node 21, Type 0, BuildingBlock: AZAVOO_clean_sbu_0, # of connection points: 4
#     Node 22, Type 0, BuildingBlock: AZAVOO_clean_sbu_0, # of connection points: 4
#     Node 23, Type 0, BuildingBlock: AZAVOO_clean_sbu_0, # of connection points: 4
#     Edge 24, Type (0, 0), BuildingBlock: AJUNOK_clean_linker_0, # of connection points: 2
#     Edge 25, Type (0, 0), BuildingBlock: AJUNOK_clean_linker_0, # of connection points: 2
#     Edge 26, Type (0, 0), BuildingBlock: AJUNOK_clean_linker_0, # of connection points: 2
#     Edge 27, Type (0, 0), BuildingBlock: AJUNOK_clean_linker_0, # of connection points: 2
#     Edge 28, Type (0, 0), BuildingBlock: AJUNOK_clean_linker_0, # of connection points: 2
#     Edge 29, Type (0, 0), BuildingBlock: AJUNOK_clean_linker_0, # of connection points: 2
#     Edge 30, Type (0, 0), BuildingBlock: AJUNOK_clean_linker_0, # of connection points: 2
#     Edge 31, Type (0, 0), BuildingBlock: AJUNOK_clean_linker_0, # of connection points: 2
#     Edge 32, Type (0, 0), BuildingBlock: AJUNOK_clean_linker_0, # of connection points: 2
#     Edge 33, Type (0, 0), BuildingBlock: AJUNOK_clean_linker_0, # of connection points: 2
#     Edge 34, Type (0, 0), BuildingBlock: AJUNOK_clean_linker_0, # of connection points: 2
#     Edge 35, Type (0, 0), BuildingBlock: AJUNOK_clean_linker_0, # of connection points: 2
#     Edge 36, Type (0, 0), BuildingBlock: AJUNOK_clean_linker_0, # of connection points: 2
#     Edge 37, Type (0, 0), BuildingBlock: AJUNOK_clean_linker_0, # of connection points: 2
#     Edge 38, Type (0, 0), BuildingBlock: AJUNOK_clean_linker_0, # of connection points: 2
#     Edge 39, Type (0, 0), BuildingBlock: AJUNOK_clean_linker_0, # of connection points: 2
#     Edge 40, Type (0, 0), BuildingBlock: AJUNOK_clean_linker_0, # of connection points: 2
#     Edge 41, Type (0, 0), BuildingBlock: AJUNOK_clean_linker_0, # of connection points: 2
#     Edge 42, Type (0, 0), BuildingBlock: AJUNOK_clean_linker_0, # of connection points: 2
#     Edge 43, Type (0, 0), BuildingBlock: AJUNOK_clean_linker_0, # of connection points: 2
#     Edge 44, Type (0, 0), BuildingBlock: AJUNOK_clean_linker_0, # of connection points: 2
#     Edge 45, Type (0, 0), BuildingBlock: AJUNOK_clean_linker_0, # of connection points: 2
#     Edge 46, Type (0, 0), BuildingBlock: AJUNOK_clean_linker_0, # of connection points: 2
#     Edge 47, Type (0, 0), BuildingBlock: AJUNOK_clean_linker_0, # of connection points: 2
#     Edge 48, Type (0, 0), BuildingBlock: AJUNOK_clean_linker_0, # of connection points: 2
#     Edge 49, Type (0, 0), BuildingBlock: AJUNOK_clean_linker_0, # of connection points: 2
#     Edge 50, Type (0, 0), BuildingBlock: AJUNOK_clean_linker_0, # of connection points: 2
#     Edge 51, Type (0, 0), BuildingBlock: AJUNOK_clean_linker_0, # of connection points: 2
#     Edge 52, Type (0, 0), BuildingBlock: AJUNOK_clean_linker_0, # of connection points: 2
#     Edge 53, Type (0, 0), BuildingBlock: AJUNOK_clean_linker_0, # of connection points: 2
#     Edge 54, Type (0, 0), BuildingBlock: AJUNOK_clean_linker_0, # of connection points: 2
#     Edge 55, Type (0, 0), BuildingBlock: AJUNOK_clean_linker_0, # of connection points: 2
#     Edge 56, Type (0, 0), BuildingBlock: AJUNOK_clean_linker_0, # of connection points: 2
#     Edge 57, Type (0, 0), BuildingBlock: AJUNOK_clean_linker_0, # of connection points: 2
#     Edge 58, Type (0, 0), BuildingBlock: AJUNOK_clean_linker_0, # of connection points: 2
#     Edge 59, Type (0, 0), BuildingBlock: AJUNOK_clean_linker_0, # of connection points: 2
#     Edge 60, Type (0, 0), BuildingBlock: AJUNOK_clean_linker_0, # of connection points: 2
#     Edge 61, Type (0, 0), BuildingBlock: AJUNOK_clean_linker_0, # of connection points: 2
#     Edge 62, Type (0, 0), BuildingBlock: AJUNOK_clean_linker_0, # of connection points: 2
#     Edge 63, Type (0, 0), BuildingBlock: AJUNOK_clean_linker_0, # of connection points: 2
#     Edge 64, Type (0, 0), BuildingBlock: AJUNOK_clean_linker_0, # of connection points: 2
#     Edge 65, Type (0, 0), BuildingBlock: AJUNOK_clean_linker_0, # of connection points: 2
#     Edge 66, Type (0, 0), BuildingBlock: AJUNOK_clean_linker_0, # of connection points: 2
#     Edge 67, Type (0, 0), BuildingBlock: AJUNOK_clean_linker_0, # of connection points: 2
#     Edge 68, Type (0, 0), BuildingBlock: AJUNOK_clean_linker_0, # of connection points: 2
#     Edge 69, Type (0, 0), BuildingBlock: AJUNOK_clean_linker_0, # of connection points: 2
#     Edge 70, Type (0, 0), BuildingBlock: AJUNOK_clean_linker_0, # of connection points: 2
#     Edge 71, Type (0, 0), BuildingBlock: AJUNOK_clean_linker_0, # of connection points: 2
# Relax obj value: 0.170
# Max RMSD: 0.160
# Mean RMSD: 0.160
data_MOF--net-gme--node1-AZAVOO_clean_sbu_0--edge1-AJUNOK_clean_linker_0
_symmetry_space_group_name_H-M    P1
_symmetry_Int_Tables_number       1
_symmetry_cell_setting            triclinic
loop_
_symmetry_equiv_pos_as_xyz
'x, y, z'
_cell_length_a     48.171255
_cell_length_b     48.24889
_cell_length_c     36.250139
_cell_angle_alpha  90.101167
_cell_angle_beta   89.926495
_cell_angle_gamma 119.94885
loop_
_atom_site_label
_atom_site_type_symbol
_atom_site_fract_x
_atom_site_fract_y
_atom_site_fract_z
_atom_type_partial_charge
Mg0 Mg 0.41796 0.0969 0.092 0.0
O1 O 0.4706 0.11066 0.10195 0.0
O2 O 0.49022 0.1492 0.14459 0.0
Mg3 Mg 0.45201 0.16159 0.16012 0.0
C4 C 0.49349 0.13033 0.12265 0.0
C5 C 0.41809 0.04219 0.04799 0.0
O6 O 0.42564 0.03687 0.08099 0.0
O7 O 0.43341 0.1415 0.05614 0.0
O8 O 0.45294 0.17829 0.10101 0.0
O9 O 0.40291 0.06284 0.13956 0.0
O10 O 0.41536 0.11334 0.1441 0.0
C11 C 0.44666 0.17051 0.06709 0.0
C12 C 0.40777 0.08676 0.16017 0.0
O13 O 0.41512 0.06665 0.04301 0.0
Mg14 Mg 0.32548 0.43159 0.59697 0.0
O15 O 0.36471 0.48508 0.59973 0.0
O16 O 0.34454 0.50801 0.63635 0.0
Mg17 Mg 0.29574 0.47142 0.65835 0.0
C18 C 0.36689 0.50973 0.61588 0.0
C19 C 0.34212 0.39207 0.55093 0.0
O20 O 0.32098 0.37346 0.57556 0.0
O21 O 0.29496 0.44316 0.55803 0.0
O22 O 0.27749 0.46538 0.59941 0.0
O23 O 0.34631 0.42063 0.6461 0.0
O24 O 0.30968 0.4354 0.649 0.0
C25 C 0.27851 0.45633 0.56659 0.0
C26 C 0.32903 0.42861 0.66581 0.0
O27 O 0.35002 0.42142 0.55012 0.0
Mg28 Mg 0.88403 0.31531 0.09123 0.0
O29 O 0.87248 0.3558 0.09827 0.0
O30 O 0.83501 0.34097 0.14185 0.0
Mg31 Mg 0.82104 0.29086 0.16092 0.0
C32 C 0.854 0.36131 0.11838 0.0
C33 C 0.93891 0.36655 0.0445 0.0
O34 O 0.9466 0.37993 0.07728 0.0
O35 O 0.83823 0.28608 0.05717 0.0
O36 O 0.80257 0.27286 0.10289 0.0
O37 O 0.91921 0.33546 0.13795 0.0
O38 O 0.86817 0.29918 0.14417 0.0
C39 C 0.80939 0.27227 0.06895 0.0
C40 C 0.89529 0.31794 0.15937 0.0
O41 O 0.91337 0.33979 0.04077 0.0
Mg42 Mg 0.56608 0.8961 0.59179 0.0
O43 O 0.51491 0.8846 0.60466 0.0
O44 O 0.49414 0.84636 0.6473 0.0
Mg45 Mg 0.53147 0.83184 0.66002 0.0
C46 C 0.4919 0.86604 0.62576 0.0
C47 C 0.56396 0.95056 0.55149 0.0
O48 O 0.55956 0.95619 0.58584 0.0
O49 O 0.54734 0.85129 0.55567 0.0
O50 O 0.52756 0.81451 0.60044 0.0
O51 O 0.58452 0.93008 0.63971 0.0
O52 O 0.57007 0.87894 0.64273 0.0
C53 C 0.53308 0.82222 0.56641 0.0
C54 C 0.58017 0.90584 0.65929 0.0
O55 O 0.56668 0.92627 0.54415 0.0
Mg56 Mg 0.66571 0.56314 0.09257 0.0
O57 O 0.62544 0.51064 0.09922 0.0
O58 O 0.64344 0.48889 0.14033 0.0
Mg59 Mg 0.69341 0.52562 0.15945 0.0
C60 C 0.62187 0.48679 0.11826 0.0
C61 C 0.66061 0.59577 0.02626 0.0
O62 O 0.69055 0.61206 0.0373 0.0
O63 O 0.69529 0.54808 0.05658 0.0
O64 O 0.71143 0.52701 0.10085 0.0
O65 O 0.64662 0.57791 0.14072 0.0
O66 O 0.68323 0.56332 0.14438 0.0
C67 C 0.71086 0.53451 0.0672 0.0
C68 C 0.66556 0.57244 0.16082 0.0
O69 O 0.64158 0.57032 0.04335 0.0
Mg70 Mg 0.10364 0.66645 0.5937 0.0
O71 O 0.11755 0.62769 0.60316 0.0
O72 O 0.15676 0.64666 0.64494 0.0
Mg73 Mg 0.16959 0.69734 0.66034 0.0
C74 C 0.13751 0.62448 0.62334 0.0
C75 C 0.04302 0.6326 0.55039 0.0
O76 O 0.03654 0.64454 0.57955 0.0
O77 O 0.14765 0.69512 0.55657 0.0
O78 O 0.18502 0.71246 0.60078 0.0
O79 O 0.07066 0.64815 0.64247 0.0
O80 O 0.12123 0.68623 0.64542 0.0
C81 C 0.17686 0.71083 0.56699 0.0
C82 C 0.09485 0.6678 0.66228 0.0
O83 O 0.07152 0.63813 0.54598 0.0
Mg84 Mg 0.89068 0.56553 0.38811 0.0
O85 O 0.87658 0.51219 0.38498 0.0
O86 O 0.83485 0.48925 0.3464 0.0
Mg87 Mg 0.82424 0.52644 0.32249 0.0
C88 C 0.85466 0.48758 0.36829 0.0
C89 C 0.94738 0.57304 0.43556 0.0
O90 O 0.95539 0.56664 0.40334 0.0
O91 O 0.84643 0.55306 0.42377 0.0
O92 O 0.8086 0.53118 0.38026 0.0
O93 O 0.92493 0.57739 0.34089 0.0
O94 O 0.87375 0.5626 0.33475 0.0
C95 C 0.81721 0.53979 0.41354 0.0
C96 C 0.90064 0.56962 0.3196 0.0
O97 O 0.92113 0.57309 0.43858 0.0
Mg98 Mg 0.33073 0.88386 0.8911 0.0
O99 O 0.37126 0.87346 0.87694 0.0
O100 O 0.35309 0.83582 0.83321 0.0
Mg101 Mg 0.3009 0.81995 0.82178 0.0
C102 C 0.37541 0.85547 0.85436 0.0
C103 C 0.36204 0.9431 0.93631 0.0
O104 O 0.34759 0.94844 0.90882 0.0
O105 O 0.30525 0.83869 0.92695 0.0
O106 O 0.28839 0.80271 0.88122 0.0
O107 O 0.34541 0.91785 0.84332 0.0
O108 O 0.30929 0.86659 0.84019 0.0
C109 C 0.29061 0.80977 0.91547 0.0
C110 C 0.32554 0.89358 0.82376 0.0
O111 O 0.35962 0.91571 0.93873 0.0
Mg112 Mg 0.42878 0.32334 0.39132 0.0
O113 O 0.48042 0.3644 0.38244 0.0
O114 O 0.50272 0.34826 0.33979 0.0
Mg115 Mg 0.46699 0.29725 0.32301 0.0
C116 C 0.50414 0.36946 0.36204 0.0
C117 C 0.39398 0.33482 0.45163 0.0
O118 O 0.37351 0.30688 0.43738 0.0
O119 O 0.44621 0.29567 0.42694 0.0
O120 O 0.46794 0.28098 0.38179 0.0
O121 O 0.41219 0.34089 0.34368 0.0
O122 O 0.42793 0.30517 0.33948 0.0
C123 C 0.46099 0.2814 0.41572 0.0
C124 C 0.41808 0.32234 0.32337 0.0
O125 O 0.4226 0.34901 0.43986 0.0
Mg126 Mg 0.09549 0.42571 0.88804 0.0
O127 O 0.10821 0.47763 0.87613 0.0
O128 O 0.14654 0.49679 0.83308 0.0
Mg129 Mg 0.16145 0.45983 0.82122 0.0
C130 C 0.127 0.49981 0.85416 0.0
C131 C 0.03393 0.40268 0.92963 0.0
O132 O 0.02621 0.38503 0.8997 0.0
O133 O 0.13947 0.44299 0.92557 0.0
O134 O 0.17686 0.46292 0.88135 0.0
O135 O 0.06272 0.40992 0.83936 0.0
O136 O 0.11337 0.42252 0.83657 0.0
C137 C 0.16872 0.45721 0.91524 0.0
C138 C 0.08705 0.41473 0.81964 0.0
O139 O 0.06321 0.42323 0.93508 0.0
Mg140 Mg 0.66191 0.0945 0.38869 0.0
O141 O 0.62251 0.10698 0.37836 0.0
O142 O 0.63868 0.14364 0.33391 0.0
Mg143 Mg 0.68947 0.15662 0.3179 0.0
C144 C 0.61761 0.12509 0.35704 0.0
C145 C 0.60722 0.04223 0.43373 0.0
O146 O 0.59567 0.03482 0.40011 0.0
O147 O 0.69099 0.14033 0.42247 0.0
O148 O 0.70614 0.17562 0.37624 0.0
O149 O 0.64238 0.05891 0.3424 0.0
O150 O 0.68 0.10942 0.33599 0.0
C151 C 0.70567 0.169 0.41042 0.0
C152 C 0.66093 0.08231 0.32094 0.0
O153 O 0.63467 0.06659 0.43881 0.0
Mg154 Mg 0.57419 0.67371 0.88008 0.0
O155 O 0.52126 0.63377 0.87695 0.0
O156 O 0.49746 0.65128 0.83815 0.0
Mg157 Mg 0.53306 0.70101 0.81774 0.0
C158 C 0.49641 0.62997 0.85984 0.0
C159 C 0.61238 0.65339 0.92285 0.0
O160 O 0.63006 0.67148 0.89553 0.0
O161 O 0.56058 0.70272 0.91906 0.0
O162 O 0.53683 0.718 0.87713 0.0
O163 O 0.58612 0.65455 0.82958 0.0
O164 O 0.57168 0.69128 0.829 0.0
C165 C 0.54578 0.71754 0.91016 0.0
C166 C 0.57974 0.67351 0.81092 0.0
O167 O 0.5841 0.64868 0.92635 0.0
Mg168 Mg 0.57353 0.89687 0.8867 0.0
O169 O 0.52109 0.88086 0.8735 0.0
O170 O 0.50378 0.84313 0.83001 0.0
Mg171 Mg 0.54402 0.83263 0.81802 0.0
C172 C 0.49931 0.86145 0.85158 0.0
C173 C 0.56739 0.94905 0.92868 0.0
O174 O 0.56545 0.95674 0.89442 0.0
O175 O 0.55861 0.85254 0.92259 0.0
O176 O 0.54157 0.81598 0.87748 0.0
O177 O 0.58902 0.93081 0.83877 0.0
O178 O 0.57941 0.88115 0.83542 0.0
C179 C 0.54657 0.82368 0.91155 0.0
C180 C 0.58656 0.9074 0.81888 0.0
O181 O 0.57072 0.92498 0.935 0.0
Mg182 Mg 0.66575 0.56794 0.38914 0.0
O183 O 0.62743 0.51554 0.38003 0.0
O184 O 0.64546 0.49409 0.33868 0.0
Mg185 Mg 0.69616 0.53202 0.32288 0.0
C186 C 0.62363 0.49192 0.36044 0.0
C187 C 0.60997 0.56811 0.42936 0.0
O188 O 0.6004 0.56456 0.3949 0.0
O189 O 0.69493 0.55328 0.42622 0.0
O190 O 0.71194 0.53262 0.38225 0.0
O191 O 0.64749 0.58223 0.33985 0.0
O192 O 0.68572 0.56981 0.33785 0.0
C193 C 0.71061 0.53971 0.41591 0.0
C194 C 0.66743 0.57763 0.32056 0.0
O195 O 0.63653 0.5698 0.43687 0.0
Mg196 Mg 0.10662 0.67057 0.88983 0.0
O197 O 0.11441 0.62798 0.87717 0.0
O198 O 0.1512 0.64398 0.83245 0.0
Mg199 Mg 0.16947 0.69624 0.81966 0.0
C200 C 0.13134 0.6225 0.85427 0.0
C201 C 0.04871 0.6199 0.93388 0.0
O202 O 0.04125 0.60791 0.90044 0.0
O203 O 0.15249 0.69489 0.92466 0.0
O204 O 0.18808 0.70886 0.87878 0.0
O205 O 0.07158 0.65535 0.84326 0.0
O206 O 0.12332 0.68949 0.83777 0.0
C207 C 0.1813 0.70756 0.91303 0.0
C208 C 0.09589 0.67263 0.82226 0.0
O209 O 0.0757 0.64489 0.93917 0.0
Mg210 Mg 0.42187 0.09798 0.38822 0.0
O211 O 0.47339 0.10774 0.37899 0.0
O212 O 0.49537 0.14587 0.33609 0.0
Mg213 Mg 0.46011 0.16191 0.31987 0.0
C214 C 0.49692 0.12615 0.35823 0.0
C215 C 0.38477 0.04965 0.44402 0.0
O216 O 0.36498 0.05498 0.42441 0.0
O217 O 0.44038 0.14315 0.42398 0.0
O218 O 0.46241 0.17945 0.37895 0.0
O219 O 0.40465 0.06356 0.34087 0.0
O220 O 0.42113 0.11507 0.33614 0.0
C221 C 0.45574 0.17212 0.41291 0.0
C222 C 0.41125 0.08793 0.32021 0.0
O223 O 0.41453 0.06596 0.43701 0.0
Mg224 Mg 0.32386 0.43779 0.89292 0.0
O225 O 0.36633 0.48958 0.88873 0.0
O226 O 0.35005 0.51445 0.84986 0.0
Mg227 Mg 0.30022 0.48035 0.82809 0.0
C228 C 0.37126 0.51454 0.871 0.0
C229 C 0.33361 0.39727 0.94633 0.0
O230 O 0.30898 0.37787 0.92582 0.0
O231 O 0.29493 0.45331 0.92947 0.0
O232 O 0.28068 0.4766 0.88609 0.0
O233 O 0.34341 0.42306 0.84574 0.0
O234 O 0.30983 0.44151 0.83981 0.0
C235 C 0.28013 0.46779 0.91937 0.0
C236 C 0.32803 0.4323 0.82455 0.0
O237 O 0.34606 0.42719 0.94161 0.0
Mg238 Mg 0.88602 0.32234 0.38774 0.0
O239 O 0.87406 0.36273 0.38209 0.0
O240 O 0.83469 0.34649 0.34062 0.0
Mg241 Mg 0.8217 0.29709 0.31963 0.0
C242 C 0.85405 0.36713 0.36359 0.0
C243 C 0.94294 0.37213 0.43378 0.0
O244 O 0.95137 0.38492 0.40081 0.0
O245 O 0.8407 0.29272 0.42263 0.0
O246 O 0.80429 0.27837 0.3776 0.0
O247 O 0.92031 0.34185 0.33984 0.0
O248 O 0.86909 0.30581 0.33535 0.0
C249 C 0.8117 0.27806 0.41134 0.0
C250 C 0.89596 0.32371 0.31926 0.0
O251 O 0.91626 0.34654 0.43779 0.0
Mg252 Mg 0.09801 0.4265 0.59104 0.0
O253 O 0.11453 0.47969 0.60115 0.0
O254 O 0.15343 0.49787 0.64329 0.0
Mg255 Mg 0.16382 0.45815 0.65791 0.0
C256 C 0.13499 0.50213 0.62173 0.0
C257 C 0.03757 0.40476 0.54844 0.0
O258 O 0.02949 0.38678 0.57807 0.0
O259 O 0.14148 0.43969 0.55386 0.0
O260 O 0.17877 0.45785 0.5982 0.0
O261 O 0.06514 0.4136 0.63947 0.0
O262 O 0.11473 0.42294 0.64294 0.0
C263 C 0.17053 0.45176 0.56438 0.0
C264 C 0.08869 0.41681 0.65955 0.0
O265 O 0.06695 0.4252 0.54342 0.0
Mg266 Mg 0.65405 0.09297 0.09325 0.0
O267 O 0.61595 0.10754 0.10396 0.0
O268 O 0.63532 0.14568 0.14705 0.0
Mg269 Mg 0.6854 0.15649 0.1629 0.0
C270 C 0.61317 0.1274 0.1248 0.0
C271 C 0.60037 0.03807 0.04893 0.0
O272 O 0.58912 0.03031 0.08264 0.0
O273 O 0.6839 0.13802 0.05844 0.0
O274 O 0.70179 0.17403 0.1042 0.0
O275 O 0.63508 0.05829 0.14065 0.0
O276 O 0.67352 0.10856 0.14519 0.0
C277 C 0.70022 0.16678 0.07007 0.0
C278 C 0.65492 0.08185 0.16115 0.0
O279 O 0.62637 0.0641 0.04361 0.0
Mg280 Mg 0.56274 0.67193 0.58334 0.0
O281 O 0.51073 0.63331 0.59493 0.0
O282 O 0.49147 0.6519 0.63843 0.0
Mg283 Mg 0.52994 0.70234 0.6537 0.0
C284 C 0.48805 0.63002 0.61601 0.0
C285 C 0.56019 0.61576 0.54187 0.0
O286 O 0.554 0.60512 0.57592 0.0
O287 O 0.54546 0.70024 0.54853 0.0
O288 O 0.52712 0.71732 0.59496 0.0
O289 O 0.57984 0.65425 0.63071 0.0
O290 O 0.56689 0.69195 0.63513 0.0
C291 C 0.53219 0.7157 0.56066 0.0
C292 C 0.57592 0.67407 0.65108 0.0
O293 O 0.56352 0.64303 0.53468 0.0
Mg294 Mg 0.89118 0.56027 0.09207 0.0
O295 O 0.87681 0.50718 0.09745 0.0
O296 O 0.83574 0.48489 0.13682 0.0
Mg297 Mg 0.8247 0.5227 0.15812 0.0
C298 C 0.85565 0.48295 0.11524 0.0
C299 C 0.95175 0.5865 0.04711 0.0
O300 O 0.96021 0.60361 0.07753 0.0
O301 O 0.84703 0.54725 0.0558 0.0
O302 O 0.80957 0.52635 0.09983 0.0
O303 O 0.92492 0.57273 0.13993 0.0
O304 O 0.87401 0.55916 0.14527 0.0
C305 C 0.81788 0.53426 0.06635 0.0
C306 C 0.90072 0.56623 0.16085 0.0
O307 O 0.9225 0.5654 0.04285 0.0
Mg308 Mg 0.32146 0.89067 0.59615 0.0
O309 O 0.36391 0.88168 0.60443 0.0
O310 O 0.34757 0.84198 0.64532 0.0
Mg311 Mg 0.29577 0.82411 0.66089 0.0
C312 C 0.36911 0.86286 0.62432 0.0
C313 C 0.33412 0.94326 0.54687 0.0
O314 O 0.31091 0.9384 0.5697 0.0
O315 O 0.29572 0.84694 0.55801 0.0
O316 O 0.28113 0.80904 0.60112 0.0
O317 O 0.33746 0.92299 0.64541 0.0
O318 O 0.30295 0.87116 0.64718 0.0
C319 C 0.28198 0.81757 0.56762 0.0
C320 C 0.3195 0.89763 0.66459 0.0
O321 O 0.3461 0.92509 0.54912 0.0
Mg322 Mg 0.42354 0.32404 0.09489 0.0
O323 O 0.4765 0.36366 0.1009 0.0
O324 O 0.49859 0.34483 0.14047 0.0
Mg325 Mg 0.46185 0.29484 0.159 0.0
C326 C 0.50061 0.36673 0.11909 0.0
C327 C 0.38595 0.3395 0.04369 0.0
O328 O 0.3656 0.31485 0.06349 0.0
O329 O 0.43758 0.29483 0.05667 0.0
O330 O 0.45917 0.27809 0.09969 0.0
O331 O 0.41014 0.34259 0.14468 0.0
O332 O 0.42408 0.30547 0.14592 0.0
C333 C 0.45125 0.27908 0.06632 0.0
C334 C 0.41577 0.32322 0.16363 0.0
O335 O 0.41573 0.35017 0.04816 0.0
C336 C 0.40896 0.11057 0.25969 0.0
C337 C 0.40915 0.08569 0.27957 0.0
C338 C 0.40791 0.11019 0.22125 0.0
C339 C 0.40722 0.08502 0.20091 0.0
H340 H 0.40953 0.13061 0.2739 0.0
H341 H 0.40766 0.12995 0.20746 0.0
S342 S 0.40676 0.01365 0.2397 0.0
N343 N 0.40791 0.03471 0.27622 0.0
N344 N 0.4062 0.03411 0.20351 0.0
C345 C 0.40684 0.0596 0.22035 0.0
C346 C 0.40776 0.05992 0.25977 0.0
C347 C 0.32777 0.40463 0.72692 0.0
C348 C 0.33224 0.43107 0.70609 0.0
C349 C 0.32752 0.40555 0.76561 0.0
C350 C 0.33176 0.43294 0.78431 0.0
H351 H 0.32326 0.38277 0.71326 0.0
H352 H 0.32281 0.38436 0.78091 0.0
S353 S 0.35148 0.51057 0.74216 0.0
N354 N 0.34578 0.48669 0.70683 0.0
N355 N 0.34555 0.48852 0.77927 0.0
C356 C 0.33835 0.4601 0.76371 0.0
C357 C 0.33853 0.45914 0.72454 0.0
C358 C 0.87268 0.29636 0.22099 0.0
C359 C 0.89766 0.3203 0.20001 0.0
C360 C 0.87274 0.29788 0.25935 0.0
C361 C 0.89784 0.32336 0.2786 0.0
H362 H 0.85272 0.27606 0.20776 0.0
H363 H 0.85284 0.27865 0.27398 0.0
S364 S 0.96953 0.39197 0.23688 0.0
N365 N 0.94866 0.37016 0.20123 0.0
N366 N 0.94884 0.37294 0.27395 0.0
C367 C 0.92342 0.34728 0.25818 0.0
C368 C 0.92332 0.34576 0.21875 0.0
C369 C 0.58118 0.93086 0.7203 0.0
C370 C 0.58446 0.90793 0.69968 0.0
C371 C 0.58287 0.93131 0.75899 0.0
C372 C 0.58807 0.90897 0.77817 0.0
H373 H 0.57626 0.94787 0.70658 0.0
H374 H 0.57909 0.94861 0.77395 0.0
S375 S 0.60301 0.84725 0.73644 0.0
N376 N 0.59626 0.86446 0.70098 0.0
N377 N 0.60001 0.86566 0.77333 0.0
C378 C 0.59306 0.88707 0.75765 0.0
C379 C 0.59109 0.88645 0.71848 0.0
C380 C 0.64082 0.57426 0.25995 0.0
C381 C 0.66774 0.5785 0.27986 0.0
C382 C 0.64029 0.57283 0.22123 0.0
C383 C 0.66661 0.57551 0.20136 0.0
H384 H 0.61977 0.57123 0.27435 0.0
H385 H 0.61889 0.56886 0.20688 0.0
S386 S 0.74441 0.59126 0.24038 0.0
N387 N 0.72246 0.58853 0.27663 0.0
N388 N 0.72136 0.58559 0.20427 0.0
C389 C 0.69408 0.58101 0.22096 0.0
C390 C 0.69466 0.58259 0.26013 0.0
C391 C 0.11861 0.69363 0.72231 0.0
C392 C 0.0933 0.6684 0.70299 0.0
C393 C 0.11873 0.69493 0.76076 0.0
C394 C 0.09351 0.6711 0.78161 0.0
H395 H 0.13865 0.7127 0.70771 0.0
H396 H 0.1389 0.71487 0.7742 0.0
S397 S 0.02104 0.60019 0.74452 0.0
N398 N 0.04188 0.61922 0.70755 0.0
N399 N 0.04212 0.6217 0.78019 0.0
C400 C 0.06764 0.646 0.76276 0.0
C401 C 0.06753 0.64464 0.72337 0.0
C402 C 0.92543 0.59307 0.22037 0.0
C403 C 0.90314 0.56555 0.20117 0.0
C404 C 0.92542 0.59391 0.25911 0.0
C405 C 0.9031 0.56725 0.27945 0.0
H406 H 0.94205 0.61441 0.20538 0.0
H407 H 0.94203 0.61587 0.27313 0.0
S408 S 0.84475 0.48756 0.2421 0.0
N409 N 0.86174 0.50981 0.20534 0.0
N410 N 0.86168 0.51138 0.2778 0.0
C411 C 0.88227 0.53908 0.26052 0.0
C412 C 0.88229 0.53823 0.22134 0.0
C413 C 0.34802 0.92045 0.76325 0.0
C414 C 0.32293 0.8958 0.78349 0.0
C415 C 0.3465 0.92153 0.72466 0.0
C416 C 0.31985 0.89799 0.70524 0.0
H417 H 0.36931 0.93852 0.77716 0.0
H418 H 0.36669 0.94035 0.70995 0.0
S419 S 0.24598 0.83114 0.74586 0.0
N420 N 0.26935 0.84924 0.78154 0.0
N421 N 0.26653 0.85128 0.70929 0.0
C422 C 0.29405 0.8741 0.72533 0.0
C423 C 0.29558 0.873 0.76442 0.0
C424 C 0.41805 0.34825 0.26349 0.0
C425 C 0.41554 0.32184 0.28282 0.0
C426 C 0.41755 0.34849 0.22476 0.0
C427 C 0.41447 0.32229 0.2043 0.0
H428 H 0.42123 0.36916 0.2783 0.0
H429 H 0.42033 0.36956 0.21081 0.0
S430 S 0.40256 0.24561 0.24212 0.0
N431 N 0.4068 0.26772 0.27875 0.0
N432 N 0.40567 0.26806 0.20634 0.0
C433 C 0.41057 0.29525 0.22344 0.0
C434 C 0.41115 0.29505 0.26264 0.0
C435 C 0.11134 0.41476 0.72046 0.0
C436 C 0.08686 0.41558 0.70026 0.0
C437 C 0.11089 0.41416 0.75896 0.0
C438 C 0.08591 0.41427 0.77891 0.0
H439 H 0.13107 0.41445 0.7065 0.0
H440 H 0.13031 0.41347 0.77314 0.0
S441 S 0.01575 0.41596 0.73927 0.0
N442 N 0.03665 0.41615 0.70305 0.0
N443 N 0.03579 0.41496 0.77567 0.0
C444 C 0.06098 0.41465 0.75916 0.0
C445 C 0.06146 0.41532 0.71978 0.0
C446 C 0.6838 0.10355 0.25926 0.0
C447 C 0.6589 0.0796 0.28031 0.0
C448 C 0.68226 0.10352 0.22088 0.0
C449 C 0.65576 0.07952 0.20173 0.0
H450 H 0.70475 0.12277 0.27249 0.0
H451 H 0.70214 0.12269 0.20615 0.0
S452 S 0.58457 0.01051 0.2437 0.0
N453 N 0.6072 0.03051 0.27925 0.0
N454 N 0.60433 0.03043 0.20657 0.0
C455 C 0.63098 0.05481 0.22224 0.0
C456 C 0.63254 0.05484 0.26165 0.0
C457 C 0.57606 0.64811 0.71093 0.0
C458 C 0.57901 0.67473 0.69163 0.0
C459 C 0.57681 0.6479 0.74966 0.0
C460 C 0.58042 0.67427 0.77021 0.0
H461 H 0.57239 0.62703 0.6961 0.0
H462 H 0.5738 0.62672 0.76356 0.0
S463 S 0.5935 0.75144 0.7326 0.0
N464 N 0.58886 0.72926 0.69591 0.0
N465 N 0.59 0.72878 0.76832 0.0
C466 C 0.58464 0.70146 0.75113 0.0
C467 C 0.58401 0.70171 0.71192 0.0
C468 C 0.48019 0.22485 0.04323 0.0
C469 C 0.45059 0.19625 0.04219 0.0
C470 C 0.48148 0.25449 0.0425 0.0
C471 C 0.45314 0.25611 0.04117 0.0
H472 H 0.50173 0.22433 0.05058 0.0
H473 H 0.50398 0.27566 0.04941 0.0
S474 S 0.37142 0.18851 0.02451 0.0
N475 N 0.39378 0.17161 0.02898 0.0
N476 N 0.39617 0.22746 0.02797 0.0
C477 C 0.42455 0.22816 0.03206 0.0
C478 C 0.42325 0.19794 0.03263 0.0
C479 C 0.22436 0.4843 0.53895 0.0
C480 C 0.1957 0.45474 0.53905 0.0
C481 C 0.254 0.4855 0.53966 0.0
C482 C 0.25553 0.45715 0.54059 0.0
H483 H 0.22384 0.50609 0.5447 0.0
H484 H 0.27518 0.5082 0.54584 0.0
S485 S 0.18787 0.37502 0.52693 0.0
N486 N 0.17099 0.39756 0.52891 0.0
N487 N 0.22686 0.3998 0.53036 0.0
C488 C 0.2276 0.42828 0.53233 0.0
C489 C 0.19739 0.42708 0.53153 0.0
C490 C 0.75378 0.25074 0.04879 0.0
C491 C 0.78254 0.2501 0.04542 0.0
C492 C 0.72427 0.22227 0.04899 0.0
C493 C 0.7229 0.19258 0.04579 0.0
H494 H 0.75436 0.27259 0.05718 0.0
H495 H 0.70321 0.22324 0.0576 0.0
S496 S 0.79037 0.17946 0.02317 0.0
N497 N 0.80716 0.21859 0.02855 0.0
N498 N 0.75149 0.16491 0.02887 0.0
C499 C 0.75068 0.19233 0.03461 0.0
C500 C 0.7808 0.22137 0.03444 0.0
C501 C 0.49863 0.73805 0.54208 0.0
C502 C 0.52727 0.73749 0.5368 0.0
C503 C 0.49899 0.76719 0.54442 0.0
C504 C 0.5279 0.79629 0.54096 0.0
H505 H 0.47718 0.71655 0.55088 0.0
H506 H 0.47778 0.76702 0.55475 0.0
S507 S 0.60618 0.80642 0.51235 0.0
N508 N 0.58276 0.76737 0.51712 0.0
N509 N 0.58338 0.8223 0.521 0.0
C510 C 0.55479 0.79548 0.52735 0.0
C511 C 0.55445 0.76576 0.52521 0.0
C512 C 0.73413 0.50304 0.04317 0.0
C513 C 0.73381 0.532 0.0426 0.0
C514 C 0.76317 0.503 0.04263 0.0
C515 C 0.79251 0.53194 0.0418 0.0
H516 H 0.71246 0.48096 0.04997 0.0
H517 H 0.76276 0.48087 0.04908 0.0
S518 S 0.80346 0.61261 0.02689 0.0
N519 N 0.76428 0.58905 0.03066 0.0
N520 N 0.81905 0.58899 0.03001 0.0
C521 C 0.792 0.56006 0.0334 0.0
C522 C 0.76237 0.56008 0.03376 0.0
C523 C 0.26066 0.76295 0.54425 0.0
C524 C 0.2605 0.79197 0.54221 0.0
C525 C 0.23185 0.73372 0.54412 0.0
C526 C 0.20233 0.73293 0.54188 0.0
H527 H 0.28235 0.763 0.55226 0.0
H528 H 0.23248 0.71238 0.55203 0.0
S529 S 0.1905 0.80141 0.52143 0.0
N530 N 0.22965 0.81754 0.52651 0.0
N531 N 0.17536 0.76243 0.52627 0.0
C532 C 0.20257 0.76104 0.5314 0.0
C533 C 0.23195 0.79086 0.53153 0.0
C534 C 0.79155 0.56572 0.44638 0.0
C535 C 0.79208 0.53745 0.43851 0.0
C536 C 0.76231 0.56557 0.44768 0.0
C537 C 0.73329 0.53719 0.44079 0.0
H538 H 0.81357 0.58858 0.44545 0.0
H539 H 0.76299 0.58836 0.44754 0.0
S540 S 0.72204 0.45582 0.43269 0.0
N541 N 0.76128 0.4796 0.43462 0.0
N542 N 0.70644 0.47937 0.4368 0.0
C543 C 0.73348 0.50823 0.44094 0.0
C544 C 0.76307 0.50836 0.43971 0.0
C545 C 0.21139 0.75572 0.95119 0.0
C546 C 0.20848 0.72707 0.93762 0.0
C547 C 0.2415 0.78373 0.95244 0.0
C548 C 0.269 0.78341 0.93988 0.0
H549 H 0.1902 0.75787 0.9548 0.0
H550 H 0.24224 0.80632 0.9568 0.0
S551 S 0.27484 0.71187 0.91657 0.0
N552 N 0.23615 0.69807 0.92285 0.0
N553 N 0.29266 0.75065 0.92518 0.0
C554 C 0.26697 0.75364 0.93467 0.0
C555 C 0.23649 0.72529 0.93336 0.0
C556 C 0.43467 0.20089 0.44876 0.0
C557 C 0.46147 0.19868 0.4376 0.0
C558 C 0.43617 0.23074 0.44984 0.0
C559 C 0.46446 0.2587 0.4396 0.0
H560 H 0.41136 0.17948 0.45059 0.0
H561 H 0.41393 0.23109 0.45238 0.0
S562 S 0.54356 0.26607 0.42249 0.0
N563 N 0.51884 0.22724 0.42715 0.0
N564 N 0.52165 0.28324 0.42915 0.0
C565 C 0.49269 0.25717 0.43651 0.0
C566 C 0.49117 0.22696 0.4354 0.0
C567 C 0.2528 0.4963 0.94064 0.0
C568 C 0.25601 0.46894 0.94333 0.0
C569 C 0.22241 0.4934 0.93936 0.0
C570 C 0.19464 0.46314 0.94104 0.0
H571 H 0.27335 0.51909 0.93322 0.0
H572 H 0.22071 0.51406 0.93098 0.0
S573 S 0.19099 0.38651 0.96268 0.0
N574 N 0.22966 0.41252 0.95886 0.0
N575 N 0.1724 0.40713 0.9566 0.0
C576 C 0.19786 0.43702 0.95206 0.0
C577 C 0.22885 0.43995 0.95327 0.0
C578 C 0.72727 0.22446 0.43103 0.0
C579 C 0.72774 0.19568 0.43417 0.0
C580 C 0.75584 0.25388 0.43164 0.0
C581 C 0.78551 0.25509 0.43506 0.0
H582 H 0.70555 0.22407 0.42237 0.0
H583 H 0.75506 0.27506 0.42337 0.0
S584 S 0.79799 0.18727 0.45709 0.0
N585 N 0.75889 0.17072 0.45112 0.0
N586 N 0.81281 0.22617 0.45195 0.0
C587 C 0.78549 0.22718 0.44592 0.0
C588 C 0.75633 0.19718 0.44546 0.0
C589 C 0.51408 0.74012 0.93513 0.0
C590 C 0.54304 0.73965 0.93592 0.0
C591 C 0.51424 0.76922 0.93528 0.0
C592 C 0.5433 0.79834 0.93664 0.0
H593 H 0.49199 0.71861 0.92793 0.0
H594 H 0.49229 0.76901 0.92815 0.0
S595 S 0.62363 0.8087 0.95371 0.0
N596 N 0.59994 0.76965 0.94932 0.0
N597 N 0.60018 0.82446 0.95005 0.0
C598 C 0.57119 0.79758 0.94596 0.0
C599 C 0.57107 0.76793 0.94557 0.0
C600 C 0.38326 -0.00102 0.9581 0.0
C601 C 0.37959 0.96852 0.96403 0.0
C602 C 0.3972 0.02304 0.9847 0.0
C603 C 0.40802 0.01772 0.01851 0.0
H604 H 0.37465 0.00425 0.93298 0.0
H605 H 0.39852 0.0457 0.97901 0.0
S606 S 0.40719 0.94318 0.04618 0.0
N607 N 0.39029 0.93506 0.00501 0.0
N608 N 0.41655 0.98039 0.05529 0.0
C609 C 0.40607 0.98789 0.02413 0.0
C610 C 0.39182 0.96327 -0.00315 0.0
C611 C 0.35351 0.3315 0.4967 0.0
C612 C 0.38268 0.35029 0.47819 0.0
C613 C 0.34076 0.34537 0.52011 0.0
C614 C 0.35644 0.37865 0.52559 0.0
H615 H 0.34024 0.30578 0.49302 0.0
H616 H 0.31817 0.32979 0.53365 0.0
S617 S 0.43393 0.4386 0.48418 0.0
N618 N 0.42736 0.40399 0.46743 0.0
N619 N 0.40312 0.43014 0.51128 0.0
C620 C 0.38578 0.39782 0.50749 0.0
C621 C 0.39902 0.38361 0.48391 0.0
C622 C 0.01798 0.40841 -0.00638 0.0
C623 C 0.00912 0.39685 0.95741 0.0
C624 C -0.00513 0.39992 0.02136 0.0
C625 C 0.96213 0.37953 0.01384 0.0
H626 H 0.043 0.42304 0.001 0.0
H627 H 0.00293 0.40818 0.0492 0.0
S628 S 0.92602 0.34744 0.92222 0.0
N629 N 0.965 0.36736 0.91455 0.0
N630 N 0.92169 0.35132 0.96677 0.0
C631 C 0.9528 0.3696 0.97728 0.0
C632 C 0.97627 0.37827 0.94903 0.0
C633 C 0.5747 0.98655 0.45665 0.0
C634 C 0.59142 0.01953 0.46411 0.0
C635 C 0.56451 0.96423 0.48531 0.0
C636 C 0.57009 0.97417 0.52236 0.0
H637 H 0.57111 0.97787 0.42848 0.0
H638 H 0.55313 0.93905 0.47837 0.0
S639 S 0.60885 0.05788 0.55631 0.0
N640 N 0.61043 0.06113 0.51092 0.0
N641 N 0.59056 0.01914 0.56503 0.0
C642 C 0.58463 0.00705 0.53021 0.0
C643 C 0.59554 0.02978 0.50098 0.0
C644 C 0.61572 0.59894 -0.00407 0.0
C645 C 0.64862 0.60911 -0.00213 0.0
C646 C 0.60419 0.61344 0.97168 0.0
C647 C 0.62508 0.63839 0.94818 0.0
H648 H 0.59879 0.5802 0.01393 0.0
H649 H 0.57871 0.60503 0.97142 0.0
S650 S 0.71322 0.67269 0.94128 0.0
N651 N 0.70179 0.64483 0.9733 0.0
N652 N 0.68021 0.672 0.92765 0.0
C653 C 0.65795 0.64825 0.94924 0.0
C654 C 0.66969 0.63363 0.97409 0.0
C655 C 0.02616 0.6089 0.48733 0.0
C656 C 0.01784 0.61445 0.52265 0.0
C657 C 0.00295 0.5942 0.45972 0.0
C658 C 0.97057 0.58452 0.46642 0.0
H659 H 0.05092 0.61686 0.48051 0.0
H660 H 0.01074 0.59151 0.43257 0.0
S661 S 0.93564 0.5895 0.55584 0.0
N662 N 0.97441 0.60613 0.56394 0.0
N663 N 0.93091 0.5786 0.51209 0.0
C664 C 0.96168 0.58837 0.5022 0.0
C665 C 0.98528 0.60333 0.53029 0.0
C666 C 0.58517 0.00376 0.95254 0.0
C667 C 0.57055 0.97071 0.9591 0.0
C668 C 0.59329 0.0254 0.9818 0.0
C669 C 0.58648 0.0147 0.01852 0.0
H670 H 0.59204 0.01314 0.92485 0.0
H671 H 0.60599 0.05077 0.97568 0.0
S672 S 0.54425 0.93011 0.04961 0.0
N673 N 0.54673 0.92799 0.00437 0.0
N674 N 0.56134 0.96861 0.05946 0.0
C675 C 0.56971 0.98154 0.02516 0.0
C676 C 0.56195 0.95955 -0.0046 0.0
C677 C 0.57785 0.593 0.44865 0.0
C678 C 0.59292 0.57544 0.45799 0.0
C679 C 0.566 0.60483 0.476 0.0
C680 C 0.56818 0.59889 0.51353 0.0
H681 H 0.57676 0.59916 0.42017 0.0
H682 H 0.55594 0.61955 0.46774 0.0
S683 S 0.60176 0.55046 0.5518 0.0
N684 N 0.60694 0.55021 0.50679 0.0
N685 N 0.58393 0.57173 0.55836 0.0
C686 C 0.5812 0.57944 0.52302 0.0
C687 C 0.59382 0.56793 0.49518 0.0
C688 C 0.00787 0.61727 0.02405 0.0
C689 C 0.97616 0.59247 0.01859 0.0
C690 C 0.0314 0.62491 -0.00282 0.0
C691 C 0.02427 0.60814 0.96356 0.0
H692 H 0.01463 0.63149 0.04905 0.0
H693 H 0.05517 0.64483 0.00253 0.0
S694 S 0.94564 0.53881 0.93705 0.0
N695 N 0.93936 0.54943 0.97815 0.0
N696 N 0.98366 0.56384 0.92742 0.0
C697 C 0.99298 0.5823 0.95831 0.0
C698 C 0.96892 0.57449 0.98582 0.0
C699 C 0.37755 0.98275 0.50552 0.0
C700 C 0.34663 0.97021 0.52052 0.0
C701 C 0.39016 0.00907 0.48156 0.0
C702 C 0.37209 0.02345 0.47135 0.0
H703 H 0.39227 0.97239 0.5126 0.0
H704 H 0.41399 0.0178 0.47045 0.0
S705 S 0.28987 -0.00028 0.50306 0.0
N706 N 0.29831 0.97431 0.52354 0.0
N707 N 0.32188 0.02349 0.47847 0.0
C708 C 0.34118 0.01116 0.48622 0.0
C709 C 0.32848 0.98462 0.51081 0.0
C710 C 0.34182 0.33796 0.00664 0.0
C711 C 0.37388 0.35506 0.01842 0.0
C712 C 0.32903 0.35205 0.98374 0.0
C713 C 0.34764 0.38396 0.97213 0.0
H714 H 0.32642 0.31333 0.01494 0.0
H715 H 0.30428 0.33774 0.97515 0.0
S716 S 0.43288 0.43942 -0.00429 0.0
N717 N 0.42403 0.40577 0.01702 0.0
N718 N 0.39982 0.43246 0.97417 0.0
C719 C 0.3797 0.40154 0.98396 0.0
C720 C 0.39289 0.38702 0.00697 0.0
C721 C 0.02213 0.4113 0.48459 0.0
C722 C 0.01301 0.39967 0.52071 0.0
C723 C -0.00087 0.40367 0.45693 0.0
C724 C 0.96624 0.38412 0.46443 0.0
H725 H 0.04722 0.42535 0.47722 0.0
H726 H 0.00736 0.41199 0.42916 0.0
S727 S 0.9297 0.35214 0.55593 0.0
N728 N 0.96868 0.37094 0.56351 0.0
N729 N 0.92557 0.35656 0.5115 0.0
C730 C 0.95675 0.3741 0.50095 0.0
C731 C 0.98011 0.38187 0.52909 0.0
C732 C 0.527 0.10579 0.10513 0.0
C733 C 0.5246 0.13082 0.12204 0.0
C734 C 0.55574 0.10503 0.10578 0.0
C735 C 0.58329 0.12925 0.12337 0.0
H736 H 0.50637 0.08627 0.09179 0.0
H737 H 0.55615 0.08497 0.09285 0.0
S738 S 0.59052 0.20157 0.1692 0.0
N739 N 0.55299 0.18147 0.15509 0.0
N740 N 0.60674 0.18002 0.15633 0.0
C741 C 0.58143 0.15484 0.13961 0.0
C742 C 0.55221 0.15563 0.13893 0.0
C743 C 0.45429 0.57202 0.59907 0.0
C744 C 0.45666 0.60002 0.61426 0.0
C745 C 0.42502 0.5431 0.59863 0.0
C746 C 0.39696 0.5411 0.61319 0.0
H747 H 0.47534 0.57221 0.5882 0.0
H748 H 0.42464 0.52203 0.5876 0.0
S749 S 0.38969 0.60853 0.65242 0.0
N750 N 0.42791 0.62447 0.64166 0.0
N751 N 0.37309 0.57052 0.64064 0.0
C752 C 0.39883 0.56931 0.62713 0.0
C753 C 0.42859 0.59862 0.62774 0.0
C754 C 0.83273 0.39719 0.13604 0.0
C755 C 0.85447 0.39224 0.11505 0.0
C756 C 0.83296 0.42621 0.13504 0.0
C757 C 0.85499 0.45185 0.11305 0.0
H758 H 0.81539 0.37859 0.15387 0.0
H759 H 0.81589 0.42856 0.15232 0.0
S760 S 0.91618 0.45102 0.05124 0.0
N761 N 0.89806 0.4152 0.07035 0.0
N762 N 0.89852 0.46997 0.06851 0.0
C763 C 0.87648 0.44713 0.09115 0.0
C764 C 0.87622 0.41734 0.09214 0.0
C765 C 0.40696 0.84596 0.64843 0.0
C766 C 0.40104 0.86505 0.6239 0.0
C767 C 0.43636 0.84679 0.64894 0.0
C768 C 0.46138 0.86674 0.62494 0.0
H769 H 0.3887 0.83002 0.66762 0.0
H770 H 0.4393 0.83142 0.66839 0.0
S771 S 0.4588 0.92219 0.55569 0.0
N772 N 0.42308 0.90506 0.57523 0.0
N773 N 0.47848 0.90665 0.57613 0.0
C774 C 0.45606 0.88632 0.60044 0.0
C775 C 0.42594 0.88547 0.59994 0.0
C776 C 0.56301 0.45432 0.10407 0.0
C777 C 0.59159 0.45569 0.11555 0.0
C778 C 0.53372 0.42534 0.10433 0.0
C779 C 0.53198 0.3967 0.11605 0.0
H780 H 0.56304 0.47592 0.09589 0.0
H781 H 0.51221 0.42561 0.09629 0.0
S782 S 0.60071 0.38667 0.14377 0.0
N783 N 0.61673 0.42526 0.13545 0.0
N784 N 0.56203 0.37109 0.13589 0.0
C785 C 0.56067 0.39756 0.12593 0.0
C786 C 0.59035 0.42695 0.1257 0.0
C787 C 0.11362 0.53796 0.60253 0.0
C788 C 0.13692 0.5339 0.62134 0.0
C789 C 0.1142 0.56732 0.60296 0.0
C790 C 0.13809 0.59393 0.62222 0.0
H791 H 0.09444 0.51819 0.58768 0.0
H792 H 0.09545 0.56896 0.5884 0.0
S793 S 0.20596 0.59664 0.67416 0.0
N794 N 0.18549 0.55964 0.65855 0.0
N795 N 0.18657 0.61457 0.65937 0.0
C796 C 0.16193 0.59039 0.64059 0.0
C797 C 0.16135 0.56051 0.64014 0.0
C798 C 0.88079 0.4547 0.38084 0.0
C799 C 0.85317 0.45628 0.37192 0.0
C800 C 0.88072 0.42557 0.37928 0.0
C801 C 0.85308 0.3971 0.36861 0.0
H802 H 0.90296 0.47626 0.38759 0.0
H803 H 0.90279 0.4256 0.38509 0.0
S804 S 0.77319 0.38755 0.34857 0.0
N805 N 0.79646 0.42615 0.35646 0.0
N806 N 0.79644 0.37171 0.35331 0.0
C807 C 0.82488 0.39811 0.36173 0.0
C808 C 0.8249 0.42761 0.36346 0.0
C809 C 0.45885 0.87266 0.88111 0.0
C810 C 0.46787 0.86016 0.85124 0.0
C811 C 0.42908 0.87127 0.88179 0.0
C812 C 0.4071 0.85734 0.8526 0.0
H813 H 0.47472 0.88327 0.90448 0.0
H814 H 0.42312 0.88083 0.90565 0.0
S815 S 0.42033 0.82391 0.76619 0.0
N816 N 0.45316 0.8352 0.79059 0.0
N817 N 0.39737 0.83262 0.7918 0.0
C818 C 0.41612 0.84539 0.82214 0.0
C819 C 0.44642 0.84679 0.82147 0.0
C820 C 0.56043 0.40574 0.34132 0.0
C821 C 0.5343 0.40089 0.36339 0.0
C822 C 0.58902 0.43504 0.34088 0.0
C823 C 0.59295 0.46102 0.36248 0.0
H824 H 0.55893 0.38677 0.3239 0.0
H825 H 0.60813 0.43724 0.32316 0.0
S826 S 0.53216 0.46099 0.42583 0.0
N827 N 0.51439 0.42465 0.40798 0.0
N828 N 0.56823 0.47985 0.40719 0.0
C829 C 0.56716 0.45656 0.38506 0.0
C830 C 0.53788 0.42653 0.38551 0.0
C831 C 0.11578 0.5403 0.88369 0.0
C832 C 0.12635 0.53019 0.85297 0.0
C833 C 0.11676 0.56988 0.8837 0.0
C834 C 0.12833 0.59039 0.85297 0.0
H835 H 0.10743 0.52565 0.90828 0.0
H836 H 0.10916 0.57704 0.90831 0.0
S837 S 0.15441 0.57294 0.76362 0.0
N838 N 0.14574 0.54164 0.78968 0.0
N839 N 0.14754 0.59697 0.78963 0.0
C840 C 0.13765 0.57989 0.8215 0.0
C841 C 0.13668 0.54988 0.82152 0.0
C842 C 0.58136 0.14475 0.33515 0.0
C843 C 0.58652 0.12461 0.35869 0.0
C844 C 0.55247 0.14495 0.33544 0.0
C845 C 0.52721 0.125 0.35927 0.0
H846 H 0.59978 0.16064 0.3161 0.0
H847 H 0.55007 0.161 0.31656 0.0
S848 S 0.52825 0.06763 0.42676 0.0
N849 N 0.56378 0.08406 0.40683 0.0
N850 N 0.50933 0.08443 0.40733 0.0
C851 C 0.53192 0.10468 0.38312 0.0
C852 C 0.56154 0.10449 0.38284 0.0
C853 C 0.43761 0.59829 0.84851 0.0
C854 C 0.46493 0.60043 0.86531 0.0
C855 C 0.40758 0.57094 0.85177 0.0
C856 C 0.40319 0.54412 0.87192 0.0
H857 H 0.43926 0.61786 0.83222 0.0
H858 H 0.38773 0.57081 0.83761 0.0
S859 S 0.46648 0.53773 0.92321 0.0
N860 N 0.48543 0.57368 0.90443 0.0
N861 N 0.42867 0.52189 0.91042 0.0
C862 C 0.43006 0.54606 0.88984 0.0
C863 C 0.46093 0.57422 0.88655 0.0
loop_
_geom_bond_atom_site_label_1
_geom_bond_atom_site_label_2
_geom_bond_distance
_geom_bond_site_symmetry_2
_ccdc_geom_bond_type
Mg0 O1 2.028 . S
Mg0 O7 1.986 . S
Mg0 O9 2.114 . S
Mg0 O10 2.251 . S
Mg0 O13 2.010 . S
O1 Mg0 2.028 . S
O1 C4 1.250 . S
O2 Mg3 2.028 . S
O2 C4 1.248 . S
Mg3 O2 2.028 . S
Mg3 O8 2.032 . S
Mg3 O10 2.079 . S
C4 O1 1.250 . S
C4 O2 1.248 . S
C5 O6 1.264 . S
C5 O13 1.249 . S
O6 C5 1.264 . S
O7 Mg0 1.986 . S
O7 C11 1.246 . S
O8 Mg3 2.032 . S
O8 C11 1.259 . S
O9 Mg0 2.114 . S
O9 C12 1.252 . S
O10 Mg0 2.251 . S
O10 Mg3 2.079 . S
O10 C12 1.273 . S
C11 O7 1.246 . S
C11 O8 1.259 . S
C12 O9 1.252 . S
C12 O10 1.273 . S
O13 Mg0 2.010 . S
O13 C5 1.249 . S
Mg14 O15 2.028 . S
Mg14 O21 1.986 . S
Mg14 O23 2.114 . S
Mg14 O24 2.251 . S
Mg14 O27 2.010 . S
O15 Mg14 2.028 . S
O15 C18 1.250 . S
O16 Mg17 2.028 . S
O16 C18 1.248 . S
Mg17 O16 2.028 . S
Mg17 O22 2.032 . S
Mg17 O24 2.079 . S
C18 O15 1.250 . S
C18 O16 1.248 . S
C19 O20 1.264 . S
C19 O27 1.249 . S
O20 C19 1.264 . S
O21 Mg14 1.986 . S
O21 C25 1.246 . S
O22 Mg17 2.032 . S
O22 C25 1.259 . S
O23 Mg14 2.114 . S
O23 C26 1.252 . S
O24 Mg14 2.251 . S
O24 Mg17 2.079 . S
O24 C26 1.273 . S
C25 O21 1.246 . S
C25 O22 1.259 . S
C26 O23 1.252 . S
C26 O24 1.273 . S
O27 Mg14 2.010 . S
O27 C19 1.249 . S
Mg28 O29 2.028 . S
Mg28 O35 1.986 . S
Mg28 O37 2.114 . S
Mg28 O38 2.251 . S
Mg28 O41 2.010 . S
O29 Mg28 2.028 . S
O29 C32 1.250 . S
O30 Mg31 2.028 . S
O30 C32 1.248 . S
Mg31 O30 2.028 . S
Mg31 O36 2.032 . S
Mg31 O38 2.079 . S
C32 O29 1.250 . S
C32 O30 1.248 . S
C33 O34 1.264 . S
C33 O41 1.249 . S
O34 C33 1.264 . S
O35 Mg28 1.986 . S
O35 C39 1.246 . S
O36 Mg31 2.032 . S
O36 C39 1.259 . S
O37 Mg28 2.114 . S
O37 C40 1.252 . S
O38 Mg28 2.251 . S
O38 Mg31 2.079 . S
O38 C40 1.273 . S
C39 O35 1.246 . S
C39 O36 1.259 . S
C40 O37 1.252 . S
C40 O38 1.273 . S
O41 Mg28 2.010 . S
O41 C33 1.249 . S
Mg42 O43 2.028 . S
Mg42 O49 1.986 . S
Mg42 O51 2.114 . S
Mg42 O52 2.251 . S
Mg42 O55 2.010 . S
O43 Mg42 2.028 . S
O43 C46 1.250 . S
O44 Mg45 2.028 . S
O44 C46 1.248 . S
Mg45 O44 2.028 . S
Mg45 O50 2.032 . S
Mg45 O52 2.079 . S
C46 O43 1.250 . S
C46 O44 1.248 . S
C47 O48 1.264 . S
C47 O55 1.249 . S
O48 C47 1.264 . S
O49 Mg42 1.986 . S
O49 C53 1.246 . S
O50 Mg45 2.032 . S
O50 C53 1.259 . S
O51 Mg42 2.114 . S
O51 C54 1.252 . S
O52 Mg42 2.251 . S
O52 Mg45 2.079 . S
O52 C54 1.273 . S
C53 O49 1.246 . S
C53 O50 1.259 . S
C54 O51 1.252 . S
C54 O52 1.273 . S
O55 Mg42 2.010 . S
O55 C47 1.249 . S
Mg56 O57 2.028 . S
Mg56 O63 1.986 . S
Mg56 O65 2.114 . S
Mg56 O66 2.251 . S
Mg56 O69 2.010 . S
O57 Mg56 2.028 . S
O57 C60 1.250 . S
O58 Mg59 2.028 . S
O58 C60 1.248 . S
Mg59 O58 2.028 . S
Mg59 O64 2.032 . S
Mg59 O66 2.079 . S
C60 O57 1.250 . S
C60 O58 1.248 . S
C61 O62 1.264 . S
C61 O69 1.249 . S
O62 C61 1.264 . S
O63 Mg56 1.986 . S
O63 C67 1.246 . S
O64 Mg59 2.032 . S
O64 C67 1.259 . S
O65 Mg56 2.114 . S
O65 C68 1.252 . S
O66 Mg56 2.251 . S
O66 Mg59 2.079 . S
O66 C68 1.273 . S
C67 O63 1.246 . S
C67 O64 1.259 . S
C68 O65 1.252 . S
C68 O66 1.273 . S
O69 Mg56 2.010 . S
O69 C61 1.249 . S
Mg70 O71 2.028 . S
Mg70 O77 1.986 . S
Mg70 O79 2.114 . S
Mg70 O80 2.251 . S
Mg70 O83 2.010 . S
O71 Mg70 2.028 . S
O71 C74 1.250 . S
O72 Mg73 2.028 . S
O72 C74 1.248 . S
Mg73 O72 2.028 . S
Mg73 O78 2.032 . S
Mg73 O80 2.079 . S
C74 O71 1.250 . S
C74 O72 1.248 . S
C75 O76 1.264 . S
C75 O83 1.249 . S
O76 C75 1.264 . S
O77 Mg70 1.986 . S
O77 C81 1.246 . S
O78 Mg73 2.032 . S
O78 C81 1.259 . S
O79 Mg70 2.114 . S
O79 C82 1.252 . S
O80 Mg70 2.251 . S
O80 Mg73 2.079 . S
O80 C82 1.273 . S
C81 O77 1.246 . S
C81 O78 1.259 . S
C82 O79 1.252 . S
C82 O80 1.273 . S
O83 Mg70 2.010 . S
O83 C75 1.249 . S
Mg84 O85 2.028 . S
Mg84 O91 1.986 . S
Mg84 O93 2.114 . S
Mg84 O94 2.251 . S
Mg84 O97 2.010 . S
O85 Mg84 2.028 . S
O85 C88 1.250 . S
O86 Mg87 2.028 . S
O86 C88 1.248 . S
Mg87 O86 2.028 . S
Mg87 O92 2.032 . S
Mg87 O94 2.079 . S
C88 O85 1.250 . S
C88 O86 1.248 . S
C89 O90 1.264 . S
C89 O97 1.249 . S
O90 C89 1.264 . S
O91 Mg84 1.986 . S
O91 C95 1.246 . S
O92 Mg87 2.032 . S
O92 C95 1.259 . S
O93 Mg84 2.114 . S
O93 C96 1.252 . S
O94 Mg84 2.251 . S
O94 Mg87 2.079 . S
O94 C96 1.273 . S
C95 O91 1.246 . S
C95 O92 1.259 . S
C96 O93 1.252 . S
C96 O94 1.273 . S
O97 Mg84 2.010 . S
O97 C89 1.249 . S
Mg98 O99 2.028 . S
Mg98 O105 1.986 . S
Mg98 O107 2.114 . S
Mg98 O108 2.251 . S
Mg98 O111 2.010 . S
O99 Mg98 2.028 . S
O99 C102 1.250 . S
O100 Mg101 2.028 . S
O100 C102 1.248 . S
Mg101 O100 2.028 . S
Mg101 O106 2.032 . S
Mg101 O108 2.079 . S
C102 O99 1.250 . S
C102 O100 1.248 . S
C103 O104 1.264 . S
C103 O111 1.249 . S
O104 C103 1.264 . S
O105 Mg98 1.986 . S
O105 C109 1.246 . S
O106 Mg101 2.032 . S
O106 C109 1.259 . S
O107 Mg98 2.114 . S
O107 C110 1.252 . S
O108 Mg98 2.251 . S
O108 Mg101 2.079 . S
O108 C110 1.273 . S
C109 O105 1.246 . S
C109 O106 1.259 . S
C110 O107 1.252 . S
C110 O108 1.273 . S
O111 Mg98 2.010 . S
O111 C103 1.249 . S
Mg112 O113 2.028 . S
Mg112 O119 1.986 . S
Mg112 O121 2.114 . S
Mg112 O122 2.251 . S
Mg112 O125 2.010 . S
O113 Mg112 2.028 . S
O113 C116 1.250 . S
O114 Mg115 2.028 . S
O114 C116 1.248 . S
Mg115 O114 2.028 . S
Mg115 O120 2.032 . S
Mg115 O122 2.079 . S
C116 O113 1.250 . S
C116 O114 1.248 . S
C117 O118 1.264 . S
C117 O125 1.249 . S
O118 C117 1.264 . S
O119 Mg112 1.986 . S
O119 C123 1.246 . S
O120 Mg115 2.032 . S
O120 C123 1.259 . S
O121 Mg112 2.114 . S
O121 C124 1.252 . S
O122 Mg112 2.251 . S
O122 Mg115 2.079 . S
O122 C124 1.273 . S
C123 O119 1.246 . S
C123 O120 1.259 . S
C124 O121 1.252 . S
C124 O122 1.273 . S
O125 Mg112 2.010 . S
O125 C117 1.249 . S
Mg126 O127 2.028 . S
Mg126 O133 1.986 . S
Mg126 O135 2.114 . S
Mg126 O136 2.251 . S
Mg126 O139 2.010 . S
O127 Mg126 2.028 . S
O127 C130 1.250 . S
O128 Mg129 2.028 . S
O128 C130 1.248 . S
Mg129 O128 2.028 . S
Mg129 O134 2.032 . S
Mg129 O136 2.079 . S
C130 O127 1.250 . S
C130 O128 1.248 . S
C131 O132 1.264 . S
C131 O139 1.249 . S
O132 C131 1.264 . S
O133 Mg126 1.986 . S
O133 C137 1.246 . S
O134 Mg129 2.032 . S
O134 C137 1.259 . S
O135 Mg126 2.114 . S
O135 C138 1.252 . S
O136 Mg126 2.251 . S
O136 Mg129 2.079 . S
O136 C138 1.273 . S
C137 O133 1.246 . S
C137 O134 1.259 . S
C138 O135 1.252 . S
C138 O136 1.273 . S
O139 Mg126 2.010 . S
O139 C131 1.249 . S
Mg140 O141 2.028 . S
Mg140 O147 1.986 . S
Mg140 O149 2.114 . S
Mg140 O150 2.251 . S
Mg140 O153 2.010 . S
O141 Mg140 2.028 . S
O141 C144 1.250 . S
O142 Mg143 2.028 . S
O142 C144 1.248 . S
Mg143 O142 2.028 . S
Mg143 O148 2.032 . S
Mg143 O150 2.079 . S
C144 O141 1.250 . S
C144 O142 1.248 . S
C145 O146 1.264 . S
C145 O153 1.249 . S
O146 C145 1.264 . S
O147 Mg140 1.986 . S
O147 C151 1.246 . S
O148 Mg143 2.032 . S
O148 C151 1.259 . S
O149 Mg140 2.114 . S
O149 C152 1.252 . S
O150 Mg140 2.251 . S
O150 Mg143 2.079 . S
O150 C152 1.273 . S
C151 O147 1.246 . S
C151 O148 1.259 . S
C152 O149 1.252 . S
C152 O150 1.273 . S
O153 Mg140 2.010 . S
O153 C145 1.249 . S
Mg154 O155 2.028 . S
Mg154 O161 1.986 . S
Mg154 O163 2.114 . S
Mg154 O164 2.251 . S
Mg154 O167 2.010 . S
O155 Mg154 2.028 . S
O155 C158 1.250 . S
O156 Mg157 2.028 . S
O156 C158 1.248 . S
Mg157 O156 2.028 . S
Mg157 O162 2.032 . S
Mg157 O164 2.079 . S
C158 O155 1.250 . S
C158 O156 1.248 . S
C159 O160 1.264 . S
C159 O167 1.249 . S
O160 C159 1.264 . S
O161 Mg154 1.986 . S
O161 C165 1.246 . S
O162 Mg157 2.032 . S
O162 C165 1.259 . S
O163 Mg154 2.114 . S
O163 C166 1.252 . S
O164 Mg154 2.251 . S
O164 Mg157 2.079 . S
O164 C166 1.273 . S
C165 O161 1.246 . S
C165 O162 1.259 . S
C166 O163 1.252 . S
C166 O164 1.273 . S
O167 Mg154 2.010 . S
O167 C159 1.249 . S
Mg168 O169 2.028 . S
Mg168 O175 1.986 . S
Mg168 O177 2.114 . S
Mg168 O178 2.251 . S
Mg168 O181 2.010 . S
O169 Mg168 2.028 . S
O169 C172 1.250 . S
O170 Mg171 2.028 . S
O170 C172 1.248 . S
Mg171 O170 2.028 . S
Mg171 O176 2.032 . S
Mg171 O178 2.079 . S
C172 O169 1.250 . S
C172 O170 1.248 . S
C173 O174 1.264 . S
C173 O181 1.249 . S
O174 C173 1.264 . S
O175 Mg168 1.986 . S
O175 C179 1.246 . S
O176 Mg171 2.032 . S
O176 C179 1.259 . S
O177 Mg168 2.114 . S
O177 C180 1.252 . S
O178 Mg168 2.251 . S
O178 Mg171 2.079 . S
O178 C180 1.273 . S
C179 O175 1.246 . S
C179 O176 1.259 . S
C180 O177 1.252 . S
C180 O178 1.273 . S
O181 Mg168 2.010 . S
O181 C173 1.249 . S
Mg182 O183 2.028 . S
Mg182 O189 1.986 . S
Mg182 O191 2.114 . S
Mg182 O192 2.251 . S
Mg182 O195 2.010 . S
O183 Mg182 2.028 . S
O183 C186 1.250 . S
O184 Mg185 2.028 . S
O184 C186 1.248 . S
Mg185 O184 2.028 . S
Mg185 O190 2.032 . S
Mg185 O192 2.079 . S
C186 O183 1.250 . S
C186 O184 1.248 . S
C187 O188 1.264 . S
C187 O195 1.249 . S
O188 C187 1.264 . S
O189 Mg182 1.986 . S
O189 C193 1.246 . S
O190 Mg185 2.032 . S
O190 C193 1.259 . S
O191 Mg182 2.114 . S
O191 C194 1.252 . S
O192 Mg182 2.251 . S
O192 Mg185 2.079 . S
O192 C194 1.273 . S
C193 O189 1.246 . S
C193 O190 1.259 . S
C194 O191 1.252 . S
C194 O192 1.273 . S
O195 Mg182 2.010 . S
O195 C187 1.249 . S
Mg196 O197 2.028 . S
Mg196 O203 1.986 . S
Mg196 O205 2.114 . S
Mg196 O206 2.251 . S
Mg196 O209 2.010 . S
O197 Mg196 2.028 . S
O197 C200 1.250 . S
O198 Mg199 2.028 . S
O198 C200 1.248 . S
Mg199 O198 2.028 . S
Mg199 O204 2.032 . S
Mg199 O206 2.079 . S
C200 O197 1.250 . S
C200 O198 1.248 . S
C201 O202 1.264 . S
C201 O209 1.249 . S
O202 C201 1.264 . S
O203 Mg196 1.986 . S
O203 C207 1.246 . S
O204 Mg199 2.032 . S
O204 C207 1.259 . S
O205 Mg196 2.114 . S
O205 C208 1.252 . S
O206 Mg196 2.251 . S
O206 Mg199 2.079 . S
O206 C208 1.273 . S
C207 O203 1.246 . S
C207 O204 1.259 . S
C208 O205 1.252 . S
C208 O206 1.273 . S
O209 Mg196 2.010 . S
O209 C201 1.249 . S
Mg210 O211 2.028 . S
Mg210 O217 1.986 . S
Mg210 O219 2.114 . S
Mg210 O220 2.251 . S
Mg210 O223 2.010 . S
O211 Mg210 2.028 . S
O211 C214 1.250 . S
O212 Mg213 2.028 . S
O212 C214 1.248 . S
Mg213 O212 2.028 . S
Mg213 O218 2.032 . S
Mg213 O220 2.079 . S
C214 O211 1.250 . S
C214 O212 1.248 . S
C215 O216 1.264 . S
C215 O223 1.249 . S
O216 C215 1.264 . S
O217 Mg210 1.986 . S
O217 C221 1.246 . S
O218 Mg213 2.032 . S
O218 C221 1.259 . S
O219 Mg210 2.114 . S
O219 C222 1.252 . S
O220 Mg210 2.251 . S
O220 Mg213 2.079 . S
O220 C222 1.273 . S
C221 O217 1.246 . S
C221 O218 1.259 . S
C222 O219 1.252 . S
C222 O220 1.273 . S
O223 Mg210 2.010 . S
O223 C215 1.249 . S
Mg224 O225 2.028 . S
Mg224 O231 1.986 . S
Mg224 O233 2.114 . S
Mg224 O234 2.251 . S
Mg224 O237 2.010 . S
O225 Mg224 2.028 . S
O225 C228 1.250 . S
O226 Mg227 2.028 . S
O226 C228 1.248 . S
Mg227 O226 2.028 . S
Mg227 O232 2.032 . S
Mg227 O234 2.079 . S
C228 O225 1.250 . S
C228 O226 1.248 . S
C229 O230 1.264 . S
C229 O237 1.249 . S
O230 C229 1.264 . S
O231 Mg224 1.986 . S
O231 C235 1.246 . S
O232 Mg227 2.032 . S
O232 C235 1.259 . S
O233 Mg224 2.114 . S
O233 C236 1.252 . S
O234 Mg224 2.251 . S
O234 Mg227 2.079 . S
O234 C236 1.273 . S
C235 O231 1.246 . S
C235 O232 1.259 . S
C236 O233 1.252 . S
C236 O234 1.273 . S
O237 Mg224 2.010 . S
O237 C229 1.249 . S
Mg238 O239 2.028 . S
Mg238 O245 1.986 . S
Mg238 O247 2.114 . S
Mg238 O248 2.251 . S
Mg238 O251 2.010 . S
O239 Mg238 2.028 . S
O239 C242 1.250 . S
O240 Mg241 2.028 . S
O240 C242 1.248 . S
Mg241 O240 2.028 . S
Mg241 O246 2.032 . S
Mg241 O248 2.079 . S
C242 O239 1.250 . S
C242 O240 1.248 . S
C243 O244 1.264 . S
C243 O251 1.249 . S
O244 C243 1.264 . S
O245 Mg238 1.986 . S
O245 C249 1.246 . S
O246 Mg241 2.032 . S
O246 C249 1.259 . S
O247 Mg238 2.114 . S
O247 C250 1.252 . S
O248 Mg238 2.251 . S
O248 Mg241 2.079 . S
O248 C250 1.273 . S
C249 O245 1.246 . S
C249 O246 1.259 . S
C250 O247 1.252 . S
C250 O248 1.273 . S
O251 Mg238 2.010 . S
O251 C243 1.249 . S
Mg252 O253 2.028 . S
Mg252 O259 1.986 . S
Mg252 O261 2.114 . S
Mg252 O262 2.251 . S
Mg252 O265 2.010 . S
O253 Mg252 2.028 . S
O253 C256 1.250 . S
O254 Mg255 2.028 . S
O254 C256 1.248 . S
Mg255 O254 2.028 . S
Mg255 O260 2.032 . S
Mg255 O262 2.079 . S
C256 O253 1.250 . S
C256 O254 1.248 . S
C257 O258 1.264 . S
C257 O265 1.249 . S
O258 C257 1.264 . S
O259 Mg252 1.986 . S
O259 C263 1.246 . S
O260 Mg255 2.032 . S
O260 C263 1.259 . S
O261 Mg252 2.114 . S
O261 C264 1.252 . S
O262 Mg252 2.251 . S
O262 Mg255 2.079 . S
O262 C264 1.273 . S
C263 O259 1.246 . S
C263 O260 1.259 . S
C264 O261 1.252 . S
C264 O262 1.273 . S
O265 Mg252 2.010 . S
O265 C257 1.249 . S
Mg266 O267 2.028 . S
Mg266 O273 1.986 . S
Mg266 O275 2.114 . S
Mg266 O276 2.251 . S
Mg266 O279 2.010 . S
O267 Mg266 2.028 . S
O267 C270 1.250 . S
O268 Mg269 2.028 . S
O268 C270 1.248 . S
Mg269 O268 2.028 . S
Mg269 O274 2.032 . S
Mg269 O276 2.079 . S
C270 O267 1.250 . S
C270 O268 1.248 . S
C271 O272 1.264 . S
C271 O279 1.249 . S
O272 C271 1.264 . S
O273 Mg266 1.986 . S
O273 C277 1.246 . S
O274 Mg269 2.032 . S
O274 C277 1.259 . S
O275 Mg266 2.114 . S
O275 C278 1.252 . S
O276 Mg266 2.251 . S
O276 Mg269 2.079 . S
O276 C278 1.273 . S
C277 O273 1.246 . S
C277 O274 1.259 . S
C278 O275 1.252 . S
C278 O276 1.273 . S
O279 Mg266 2.010 . S
O279 C271 1.249 . S
Mg280 O281 2.028 . S
Mg280 O287 1.986 . S
Mg280 O289 2.114 . S
Mg280 O290 2.251 . S
Mg280 O293 2.010 . S
O281 Mg280 2.028 . S
O281 C284 1.250 . S
O282 Mg283 2.028 . S
O282 C284 1.248 . S
Mg283 O282 2.028 . S
Mg283 O288 2.032 . S
Mg283 O290 2.079 . S
C284 O281 1.250 . S
C284 O282 1.248 . S
C285 O286 1.264 . S
C285 O293 1.249 . S
O286 C285 1.264 . S
O287 Mg280 1.986 . S
O287 C291 1.246 . S
O288 Mg283 2.032 . S
O288 C291 1.259 . S
O289 Mg280 2.114 . S
O289 C292 1.252 . S
O290 Mg280 2.251 . S
O290 Mg283 2.079 . S
O290 C292 1.273 . S
C291 O287 1.246 . S
C291 O288 1.259 . S
C292 O289 1.252 . S
C292 O290 1.273 . S
O293 Mg280 2.010 . S
O293 C285 1.249 . S
Mg294 O295 2.028 . S
Mg294 O301 1.986 . S
Mg294 O303 2.114 . S
Mg294 O304 2.251 . S
Mg294 O307 2.010 . S
O295 Mg294 2.028 . S
O295 C298 1.250 . S
O296 Mg297 2.028 . S
O296 C298 1.248 . S
Mg297 O296 2.028 . S
Mg297 O302 2.032 . S
Mg297 O304 2.079 . S
C298 O295 1.250 . S
C298 O296 1.248 . S
C299 O300 1.264 . S
C299 O307 1.249 . S
O300 C299 1.264 . S
O301 Mg294 1.986 . S
O301 C305 1.246 . S
O302 Mg297 2.032 . S
O302 C305 1.259 . S
O303 Mg294 2.114 . S
O303 C306 1.252 . S
O304 Mg294 2.251 . S
O304 Mg297 2.079 . S
O304 C306 1.273 . S
C305 O301 1.246 . S
C305 O302 1.259 . S
C306 O303 1.252 . S
C306 O304 1.273 . S
O307 Mg294 2.010 . S
O307 C299 1.249 . S
Mg308 O309 2.028 . S
Mg308 O315 1.986 . S
Mg308 O317 2.114 . S
Mg308 O318 2.251 . S
Mg308 O321 2.010 . S
O309 Mg308 2.028 . S
O309 C312 1.250 . S
O310 Mg311 2.028 . S
O310 C312 1.248 . S
Mg311 O310 2.028 . S
Mg311 O316 2.032 . S
Mg311 O318 2.079 . S
C312 O309 1.250 . S
C312 O310 1.248 . S
C313 O314 1.264 . S
C313 O321 1.249 . S
O314 C313 1.264 . S
O315 Mg308 1.986 . S
O315 C319 1.246 . S
O316 Mg311 2.032 . S
O316 C319 1.259 . S
O317 Mg308 2.114 . S
O317 C320 1.252 . S
O318 Mg308 2.251 . S
O318 Mg311 2.079 . S
O318 C320 1.273 . S
C319 O315 1.246 . S
C319 O316 1.259 . S
C320 O317 1.252 . S
C320 O318 1.273 . S
O321 Mg308 2.010 . S
O321 C313 1.249 . S
Mg322 O323 2.028 . S
Mg322 O329 1.986 . S
Mg322 O331 2.114 . S
Mg322 O332 2.251 . S
Mg322 O335 2.010 . S
O323 Mg322 2.028 . S
O323 C326 1.250 . S
O324 Mg325 2.028 . S
O324 C326 1.248 . S
Mg325 O324 2.028 . S
Mg325 O330 2.032 . S
Mg325 O332 2.079 . S
C326 O323 1.250 . S
C326 O324 1.248 . S
C327 O328 1.264 . S
C327 O335 1.249 . S
O328 C327 1.264 . S
O329 Mg322 1.986 . S
O329 C333 1.246 . S
O330 Mg325 2.032 . S
O330 C333 1.259 . S
O331 Mg322 2.114 . S
O331 C334 1.252 . S
O332 Mg322 2.251 . S
O332 Mg325 2.079 . S
O332 C334 1.273 . S
C333 O329 1.246 . S
C333 O330 1.259 . S
C334 O331 1.252 . S
C334 O332 1.273 . S
O335 Mg322 2.010 . S
O335 C327 1.249 . S
C336 C337 1.369 . S
C336 C338 1.419 . S
C336 H340 0.930 . S
C337 C336 1.369 . S
C337 C346 1.429 . S
C338 C336 1.419 . S
C338 C339 1.363 . S
C338 H341 0.929 . S
C339 C338 1.363 . S
C339 C345 1.428 . S
H340 C336 0.930 . S
H341 C338 0.929 . S
S342 N343 1.613 . S
S342 N344 1.610 . S
N343 S342 1.613 . S
N343 C346 1.350 . S
N344 S342 1.610 . S
N344 C345 1.351 . S
C345 C339 1.428 . S
C345 N344 1.351 . S
C345 C346 1.434 . S
C346 C337 1.429 . S
C346 N343 1.350 . S
C346 C345 1.434 . S
C347 C348 1.369 . S
C347 C349 1.419 . S
C347 H351 0.930 . S
C348 C347 1.369 . S
C348 C357 1.429 . S
C349 C347 1.419 . S
C349 C350 1.363 . S
C349 H352 0.929 . S
C350 C349 1.363 . S
C350 C356 1.428 . S
H351 C347 0.930 . S
H352 C349 0.929 . S
S353 N354 1.613 . S
S353 N355 1.610 . S
N354 S353 1.613 . S
N354 C357 1.350 . S
N355 S353 1.610 . S
N355 C356 1.351 . S
C356 C350 1.428 . S
C356 N355 1.351 . S
C356 C357 1.434 . S
C357 C348 1.429 . S
C357 N354 1.350 . S
C357 C356 1.434 . S
C358 C359 1.369 . S
C358 C360 1.419 . S
C358 H362 0.930 . S
C359 C358 1.369 . S
C359 C368 1.429 . S
C360 C358 1.419 . S
C360 C361 1.363 . S
C360 H363 0.929 . S
C361 C360 1.363 . S
C361 C367 1.428 . S
H362 C358 0.930 . S
H363 C360 0.929 . S
S364 N365 1.613 . S
S364 N366 1.610 . S
N365 S364 1.613 . S
N365 C368 1.350 . S
N366 S364 1.610 . S
N366 C367 1.351 . S
C367 C361 1.428 . S
C367 N366 1.351 . S
C367 C368 1.434 . S
C368 C359 1.429 . S
C368 N365 1.350 . S
C368 C367 1.434 . S
C369 C370 1.369 . S
C369 C371 1.419 . S
C369 H373 0.930 . S
C370 C369 1.369 . S
C370 C379 1.429 . S
C371 C369 1.419 . S
C371 C372 1.363 . S
C371 H374 0.929 . S
C372 C371 1.363 . S
C372 C378 1.428 . S
H373 C369 0.930 . S
H374 C371 0.929 . S
S375 N376 1.613 . S
S375 N377 1.610 . S
N376 S375 1.613 . S
N376 C379 1.350 . S
N377 S375 1.610 . S
N377 C378 1.351 . S
C378 C372 1.428 . S
C378 N377 1.351 . S
C378 C379 1.434 . S
C379 C370 1.429 . S
C379 N376 1.350 . S
C379 C378 1.434 . S
C380 C381 1.369 . S
C380 C382 1.419 . S
C380 H384 0.930 . S
C381 C380 1.369 . S
C381 C390 1.429 . S
C382 C380 1.419 . S
C382 C383 1.363 . S
C382 H385 0.929 . S
C383 C382 1.363 . S
C383 C389 1.428 . S
H384 C380 0.930 . S
H385 C382 0.929 . S
S386 N387 1.613 . S
S386 N388 1.610 . S
N387 S386 1.613 . S
N387 C390 1.350 . S
N388 S386 1.610 . S
N388 C389 1.351 . S
C389 C383 1.428 . S
C389 N388 1.351 . S
C389 C390 1.434 . S
C390 C381 1.429 . S
C390 N387 1.350 . S
C390 C389 1.434 . S
C391 C392 1.369 . S
C391 C393 1.419 . S
C391 H395 0.930 . S
C392 C391 1.369 . S
C392 C401 1.429 . S
C393 C391 1.419 . S
C393 C394 1.363 . S
C393 H396 0.929 . S
C394 C393 1.363 . S
C394 C400 1.428 . S
H395 C391 0.930 . S
H396 C393 0.929 . S
S397 N398 1.613 . S
S397 N399 1.610 . S
N398 S397 1.613 . S
N398 C401 1.350 . S
N399 S397 1.610 . S
N399 C400 1.351 . S
C400 C394 1.428 . S
C400 N399 1.351 . S
C400 C401 1.434 . S
C401 C392 1.429 . S
C401 N398 1.350 . S
C401 C400 1.434 . S
C402 C403 1.369 . S
C402 C404 1.419 . S
C402 H406 0.930 . S
C403 C402 1.369 . S
C403 C412 1.429 . S
C404 C402 1.419 . S
C404 C405 1.363 . S
C404 H407 0.929 . S
C405 C404 1.363 . S
C405 C411 1.428 . S
H406 C402 0.930 . S
H407 C404 0.929 . S
S408 N409 1.613 . S
S408 N410 1.610 . S
N409 S408 1.613 . S
N409 C412 1.350 . S
N410 S408 1.610 . S
N410 C411 1.351 . S
C411 C405 1.428 . S
C411 N410 1.351 . S
C411 C412 1.434 . S
C412 C403 1.429 . S
C412 N409 1.350 . S
C412 C411 1.434 . S
C413 C414 1.369 . S
C413 C415 1.419 . S
C413 H417 0.930 . S
C414 C413 1.369 . S
C414 C423 1.429 . S
C415 C413 1.419 . S
C415 C416 1.363 . S
C415 H418 0.929 . S
C416 C415 1.363 . S
C416 C422 1.428 . S
H417 C413 0.930 . S
H418 C415 0.929 . S
S419 N420 1.613 . S
S419 N421 1.610 . S
N420 S419 1.613 . S
N420 C423 1.350 . S
N421 S419 1.610 . S
N421 C422 1.351 . S
C422 C416 1.428 . S
C422 N421 1.351 . S
C422 C423 1.434 . S
C423 C414 1.429 . S
C423 N420 1.350 . S
C423 C422 1.434 . S
C424 C425 1.369 . S
C424 C426 1.419 . S
C424 H428 0.930 . S
C425 C424 1.369 . S
C425 C434 1.429 . S
C426 C424 1.419 . S
C426 C427 1.363 . S
C426 H429 0.929 . S
C427 C426 1.363 . S
C427 C433 1.428 . S
H428 C424 0.930 . S
H429 C426 0.929 . S
S430 N431 1.613 . S
S430 N432 1.610 . S
N431 S430 1.613 . S
N431 C434 1.350 . S
N432 S430 1.610 . S
N432 C433 1.351 . S
C433 C427 1.428 . S
C433 N432 1.351 . S
C433 C434 1.434 . S
C434 C425 1.429 . S
C434 N431 1.350 . S
C434 C433 1.434 . S
C435 C436 1.369 . S
C435 C437 1.419 . S
C435 H439 0.930 . S
C436 C435 1.369 . S
C436 C445 1.429 . S
C437 C435 1.419 . S
C437 C438 1.363 . S
C437 H440 0.929 . S
C438 C437 1.363 . S
C438 C444 1.428 . S
H439 C435 0.930 . S
H440 C437 0.929 . S
S441 N442 1.613 . S
S441 N443 1.610 . S
N442 S441 1.613 . S
N442 C445 1.350 . S
N443 S441 1.610 . S
N443 C444 1.351 . S
C444 C438 1.428 . S
C444 N443 1.351 . S
C444 C445 1.434 . S
C445 C436 1.429 . S
C445 N442 1.350 . S
C445 C444 1.434 . S
C446 C447 1.369 . S
C446 C448 1.419 . S
C446 H450 0.930 . S
C447 C446 1.369 . S
C447 C456 1.429 . S
C448 C446 1.419 . S
C448 C449 1.363 . S
C448 H451 0.929 . S
C449 C448 1.363 . S
C449 C455 1.428 . S
H450 C446 0.930 . S
H451 C448 0.929 . S
S452 N453 1.613 . S
S452 N454 1.610 . S
N453 S452 1.613 . S
N453 C456 1.350 . S
N454 S452 1.610 . S
N454 C455 1.351 . S
C455 C449 1.428 . S
C455 N454 1.351 . S
C455 C456 1.434 . S
C456 C447 1.429 . S
C456 N453 1.350 . S
C456 C455 1.434 . S
C457 C458 1.369 . S
C457 C459 1.419 . S
C457 H461 0.930 . S
C458 C457 1.369 . S
C458 C467 1.429 . S
C459 C457 1.419 . S
C459 C460 1.363 . S
C459 H462 0.929 . S
C460 C459 1.363 . S
C460 C466 1.428 . S
H461 C457 0.930 . S
H462 C459 0.929 . S
S463 N464 1.613 . S
S463 N465 1.610 . S
N464 S463 1.613 . S
N464 C467 1.350 . S
N465 S463 1.610 . S
N465 C466 1.351 . S
C466 C460 1.428 . S
C466 N465 1.351 . S
C466 C467 1.434 . S
C467 C458 1.429 . S
C467 N464 1.350 . S
C467 C466 1.434 . S
C468 C469 1.369 . S
C468 C470 1.419 . S
C468 H472 0.930 . S
C469 C468 1.369 . S
C469 C478 1.429 . S
C470 C468 1.419 . S
C470 C471 1.363 . S
C470 H473 0.929 . S
C471 C470 1.363 . S
C471 C477 1.428 . S
H472 C468 0.930 . S
H473 C470 0.929 . S
S474 N475 1.613 . S
S474 N476 1.610 . S
N475 S474 1.613 . S
N475 C478 1.350 . S
N476 S474 1.610 . S
N476 C477 1.351 . S
C477 C471 1.428 . S
C477 N476 1.351 . S
C477 C478 1.434 . S
C478 C469 1.429 . S
C478 N475 1.350 . S
C478 C477 1.434 . S
C479 C480 1.369 . S
C479 C481 1.419 . S
C479 H483 0.930 . S
C480 C479 1.369 . S
C480 C489 1.429 . S
C481 C479 1.419 . S
C481 C482 1.363 . S
C481 H484 0.929 . S
C482 C481 1.363 . S
C482 C488 1.428 . S
H483 C479 0.930 . S
H484 C481 0.929 . S
S485 N486 1.613 . S
S485 N487 1.610 . S
N486 S485 1.613 . S
N486 C489 1.350 . S
N487 S485 1.610 . S
N487 C488 1.351 . S
C488 C482 1.428 . S
C488 N487 1.351 . S
C488 C489 1.434 . S
C489 C480 1.429 . S
C489 N486 1.350 . S
C489 C488 1.434 . S
C490 C491 1.369 . S
C490 C492 1.419 . S
C490 H494 0.930 . S
C491 C490 1.369 . S
C491 C500 1.429 . S
C492 C490 1.419 . S
C492 C493 1.363 . S
C492 H495 0.929 . S
C493 C492 1.363 . S
C493 C499 1.428 . S
H494 C490 0.930 . S
H495 C492 0.929 . S
S496 N497 1.613 . S
S496 N498 1.610 . S
N497 S496 1.613 . S
N497 C500 1.350 . S
N498 S496 1.610 . S
N498 C499 1.351 . S
C499 C493 1.428 . S
C499 N498 1.351 . S
C499 C500 1.434 . S
C500 C491 1.429 . S
C500 N497 1.350 . S
C500 C499 1.434 . S
C501 C502 1.369 . S
C501 C503 1.419 . S
C501 H505 0.930 . S
C502 C501 1.369 . S
C502 C511 1.429 . S
C503 C501 1.419 . S
C503 C504 1.363 . S
C503 H506 0.929 . S
C504 C503 1.363 . S
C504 C510 1.428 . S
H505 C501 0.930 . S
H506 C503 0.929 . S
S507 N508 1.613 . S
S507 N509 1.610 . S
N508 S507 1.613 . S
N508 C511 1.350 . S
N509 S507 1.610 . S
N509 C510 1.351 . S
C510 C504 1.428 . S
C510 N509 1.351 . S
C510 C511 1.434 . S
C511 C502 1.429 . S
C511 N508 1.350 . S
C511 C510 1.434 . S
C512 C513 1.369 . S
C512 C514 1.419 . S
C512 H516 0.930 . S
C513 C512 1.369 . S
C513 C522 1.429 . S
C514 C512 1.419 . S
C514 C515 1.363 . S
C514 H517 0.929 . S
C515 C514 1.363 . S
C515 C521 1.428 . S
H516 C512 0.930 . S
H517 C514 0.929 . S
S518 N519 1.613 . S
S518 N520 1.610 . S
N519 S518 1.613 . S
N519 C522 1.350 . S
N520 S518 1.610 . S
N520 C521 1.351 . S
C521 C515 1.428 . S
C521 N520 1.351 . S
C521 C522 1.434 . S
C522 C513 1.429 . S
C522 N519 1.350 . S
C522 C521 1.434 . S
C523 C524 1.369 . S
C523 C525 1.419 . S
C523 H527 0.930 . S
C524 C523 1.369 . S
C524 C533 1.429 . S
C525 C523 1.419 . S
C525 C526 1.363 . S
C525 H528 0.929 . S
C526 C525 1.363 . S
C526 C532 1.428 . S
H527 C523 0.930 . S
H528 C525 0.929 . S
S529 N530 1.613 . S
S529 N531 1.610 . S
N530 S529 1.613 . S
N530 C533 1.350 . S
N531 S529 1.610 . S
N531 C532 1.351 . S
C532 C526 1.428 . S
C532 N531 1.351 . S
C532 C533 1.434 . S
C533 C524 1.429 . S
C533 N530 1.350 . S
C533 C532 1.434 . S
C534 C535 1.369 . S
C534 C536 1.419 . S
C534 H538 0.930 . S
C535 C534 1.369 . S
C535 C544 1.429 . S
C536 C534 1.419 . S
C536 C537 1.363 . S
C536 H539 0.929 . S
C537 C536 1.363 . S
C537 C543 1.428 . S
H538 C534 0.930 . S
H539 C536 0.929 . S
S540 N541 1.613 . S
S540 N542 1.610 . S
N541 S540 1.613 . S
N541 C544 1.350 . S
N542 S540 1.610 . S
N542 C543 1.351 . S
C543 C537 1.428 . S
C543 N542 1.351 . S
C543 C544 1.434 . S
C544 C535 1.429 . S
C544 N541 1.350 . S
C544 C543 1.434 . S
C545 C546 1.369 . S
C545 C547 1.419 . S
C545 H549 0.930 . S
C546 C545 1.369 . S
C546 C555 1.429 . S
C547 C545 1.419 . S
C547 C548 1.363 . S
C547 H550 0.929 . S
C548 C547 1.363 . S
C548 C554 1.428 . S
H549 C545 0.930 . S
H550 C547 0.929 . S
S551 N552 1.613 . S
S551 N553 1.610 . S
N552 S551 1.613 . S
N552 C555 1.350 . S
N553 S551 1.610 . S
N553 C554 1.351 . S
C554 C548 1.428 . S
C554 N553 1.351 . S
C554 C555 1.434 . S
C555 C546 1.429 . S
C555 N552 1.350 . S
C555 C554 1.434 . S
C556 C557 1.369 . S
C556 C558 1.419 . S
C556 H560 0.930 . S
C557 C556 1.369 . S
C557 C566 1.429 . S
C558 C556 1.419 . S
C558 C559 1.363 . S
C558 H561 0.929 . S
C559 C558 1.363 . S
C559 C565 1.428 . S
H560 C556 0.930 . S
H561 C558 0.929 . S
S562 N563 1.613 . S
S562 N564 1.610 . S
N563 S562 1.613 . S
N563 C566 1.350 . S
N564 S562 1.610 . S
N564 C565 1.351 . S
C565 C559 1.428 . S
C565 N564 1.351 . S
C565 C566 1.434 . S
C566 C557 1.429 . S
C566 N563 1.350 . S
C566 C565 1.434 . S
C567 C568 1.369 . S
C567 C569 1.419 . S
C567 H571 0.930 . S
C568 C567 1.369 . S
C568 C577 1.429 . S
C569 C567 1.419 . S
C569 C570 1.363 . S
C569 H572 0.929 . S
C570 C569 1.363 . S
C570 C576 1.428 . S
H571 C567 0.930 . S
H572 C569 0.929 . S
S573 N574 1.613 . S
S573 N575 1.610 . S
N574 S573 1.613 . S
N574 C577 1.350 . S
N575 S573 1.610 . S
N575 C576 1.351 . S
C576 C570 1.428 . S
C576 N575 1.351 . S
C576 C577 1.434 . S
C577 C568 1.429 . S
C577 N574 1.350 . S
C577 C576 1.434 . S
C578 C579 1.369 . S
C578 C580 1.419 . S
C578 H582 0.930 . S
C579 C578 1.369 . S
C579 C588 1.429 . S
C580 C578 1.419 . S
C580 C581 1.363 . S
C580 H583 0.929 . S
C581 C580 1.363 . S
C581 C587 1.428 . S
H582 C578 0.930 . S
H583 C580 0.929 . S
S584 N585 1.613 . S
S584 N586 1.610 . S
N585 S584 1.613 . S
N585 C588 1.350 . S
N586 S584 1.610 . S
N586 C587 1.351 . S
C587 C581 1.428 . S
C587 N586 1.351 . S
C587 C588 1.434 . S
C588 C579 1.429 . S
C588 N585 1.350 . S
C588 C587 1.434 . S
C589 C590 1.369 . S
C589 C591 1.419 . S
C589 H593 0.930 . S
C590 C589 1.369 . S
C590 C599 1.429 . S
C591 C589 1.419 . S
C591 C592 1.363 . S
C591 H594 0.929 . S
C592 C591 1.363 . S
C592 C598 1.428 . S
H593 C589 0.930 . S
H594 C591 0.929 . S
S595 N596 1.613 . S
S595 N597 1.610 . S
N596 S595 1.613 . S
N596 C599 1.350 . S
N597 S595 1.610 . S
N597 C598 1.351 . S
C598 C592 1.428 . S
C598 N597 1.351 . S
C598 C599 1.434 . S
C599 C590 1.429 . S
C599 N596 1.350 . S
C599 C598 1.434 . S
C600 C601 1.369 1_545 S
C600 C602 1.419 . S
C600 H604 0.930 . S
C601 C600 1.369 1_565 S
C601 C610 1.429 1_556 S
C602 C600 1.419 . S
C602 C603 1.363 1_556 S
C602 H605 0.929 . S
C603 C602 1.363 1_554 S
C603 C609 1.428 1_545 S
H604 C600 0.930 . S
H605 C602 0.929 . S
S606 N607 1.613 . S
S606 N608 1.610 . S
N607 S606 1.613 . S
N607 C610 1.350 . S
N608 S606 1.610 . S
N608 C609 1.351 . S
C609 C603 1.428 1_565 S
C609 N608 1.351 . S
C609 C610 1.434 . S
C610 C601 1.429 1_554 S
C610 N607 1.350 . S
C610 C609 1.434 . S
C611 C612 1.369 . S
C611 C613 1.419 . S
C611 H615 0.930 . S
C612 C611 1.369 . S
C612 C621 1.429 . S
C613 C611 1.419 . S
C613 C614 1.363 . S
C613 H616 0.929 . S
C614 C613 1.363 . S
C614 C620 1.428 . S
H615 C611 0.930 . S
H616 C613 0.929 . S
S617 N618 1.613 . S
S617 N619 1.610 . S
N618 S617 1.613 . S
N618 C621 1.350 . S
N619 S617 1.610 . S
N619 C620 1.351 . S
C620 C614 1.428 . S
C620 N619 1.351 . S
C620 C621 1.434 . S
C621 C612 1.429 . S
C621 N618 1.350 . S
C621 C620 1.434 . S
C622 C623 1.369 1_554 S
C622 C624 1.419 . S
C622 H626 0.930 . S
C623 C622 1.369 1_556 S
C623 C632 1.429 1_455 S
C624 C622 1.419 . S
C624 C625 1.363 1_455 S
C624 H627 0.929 . S
C625 C624 1.363 1_655 S
C625 C631 1.428 1_554 S
H626 C622 0.930 . S
H627 C624 0.929 . S
S628 N629 1.613 . S
S628 N630 1.610 . S
N629 S628 1.613 . S
N629 C632 1.350 . S
N630 S628 1.610 . S
N630 C631 1.351 . S
C631 C625 1.428 1_556 S
C631 N630 1.351 . S
C631 C632 1.434 . S
C632 C623 1.429 1_655 S
C632 N629 1.350 . S
C632 C631 1.434 . S
C633 C634 1.378 . S
C633 C635 1.412 1_545 S
C633 H637 0.918 1_545 S
C634 C633 1.378 . S
C634 C643 1.429 . S
C635 C633 1.412 1_565 S
C635 C636 1.363 . S
C635 H638 0.929 . S
C636 C635 1.363 . S
C636 C642 1.389 1_565 S
H637 C633 0.918 1_565 S
H638 C635 0.929 . S
S639 N640 1.613 . S
S639 N641 1.610 . S
N640 S639 1.613 . S
N640 C643 1.350 . S
N641 S639 1.610 . S
N641 C642 1.366 . S
C642 C636 1.389 1_545 S
C642 N641 1.366 . S
C642 C643 1.463 . S
C643 C634 1.429 . S
C643 N640 1.350 . S
C643 C642 1.463 . S
C644 C645 1.369 . S
C644 C646 1.419 . S
C644 H648 0.930 . S
C645 C644 1.369 . S
C645 C654 1.429 1_554 S
C646 C644 1.419 . S
C646 C647 1.363 1_554 S
C646 H649 0.929 . S
C647 C646 1.363 1_556 S
C647 C653 1.428 . S
H648 C644 0.930 . S
H649 C646 0.929 . S
S650 N651 1.613 . S
S650 N652 1.610 . S
N651 S650 1.613 . S
N651 C654 1.350 . S
N652 S650 1.610 . S
N652 C653 1.351 . S
C653 C647 1.428 . S
C653 N652 1.351 . S
C653 C654 1.434 . S
C654 C645 1.429 1_556 S
C654 N651 1.350 . S
C654 C653 1.434 . S
C655 C656 1.369 . S
C655 C657 1.390 1_455 S
C655 H659 0.930 . S
C656 C655 1.369 . S
C656 C665 1.410 1_455 S
C657 C655 1.390 1_655 S
C657 C658 1.403 . S
C657 H660 0.921 . S
C658 C657 1.403 . S
C658 C664 1.428 . S
H659 C655 0.930 . S
H660 C657 0.921 . S
S661 N662 1.613 . S
S661 N663 1.610 . S
N662 S661 1.613 . S
N662 C665 1.357 . S
N663 S661 1.610 . S
N663 C664 1.351 . S
C664 C658 1.428 . S
C664 N663 1.351 . S
C664 C665 1.448 . S
C665 C656 1.410 1_655 S
C665 N662 1.357 . S
C665 C664 1.448 . S
C666 C667 1.369 1_545 S
C666 C668 1.419 . S
C666 H670 0.930 . S
C667 C666 1.369 1_565 S
C667 C676 1.429 1_556 S
C668 C666 1.419 . S
C668 C669 1.363 1_556 S
C668 H671 0.929 . S
C669 C668 1.363 1_554 S
C669 C675 1.428 1_545 S
H670 C666 0.930 . S
H671 C668 0.929 . S
S672 N673 1.613 . S
S672 N674 1.610 . S
N673 S672 1.613 . S
N673 C676 1.350 . S
N674 S672 1.610 . S
N674 C675 1.351 . S
C675 C669 1.428 1_565 S
C675 N674 1.351 . S
C675 C676 1.434 . S
C676 C667 1.429 1_554 S
C676 N673 1.350 . S
C676 C675 1.434 . S
C677 C678 1.369 . S
C677 C679 1.419 . S
C677 H681 0.930 . S
C678 C677 1.369 . S
C678 C687 1.429 . S
C679 C677 1.419 . S
C679 C680 1.363 . S
C679 H682 0.929 . S
C680 C679 1.363 . S
C680 C686 1.428 . S
H681 C677 0.930 . S
H682 C679 0.929 . S
S683 N684 1.613 . S
S683 N685 1.610 . S
N684 S683 1.613 . S
N684 C687 1.350 . S
N685 S683 1.610 . S
N685 C686 1.351 . S
C686 C680 1.428 . S
C686 N685 1.351 . S
C686 C687 1.434 . S
C687 C678 1.429 . S
C687 N684 1.350 . S
C687 C686 1.434 . S
C688 C689 1.369 . S
C688 C690 1.419 1_655 S
C688 H692 0.930 . S
C689 C688 1.369 . S
C689 C698 1.429 1_554 S
C690 C688 1.419 1_455 S
C690 C691 1.363 1_554 S
C690 H693 0.929 . S
C691 C690 1.363 1_556 S
C691 C697 1.428 . S
H692 C688 0.930 . S
H693 C690 0.929 . S
S694 N695 1.613 . S
S694 N696 1.598 1_655 S
N695 S694 1.613 . S
N695 C698 1.350 . S
N696 S694 1.598 1_455 S
N696 C697 1.344 . S
C697 C691 1.428 . S
C697 N696 1.344 . S
C697 C698 1.434 1_455 S
C698 C689 1.429 1_556 S
C698 N695 1.350 . S
C698 C697 1.434 1_655 S
C699 C700 1.369 . S
C699 C701 1.419 1_565 S
C699 H703 0.930 . S
C700 C699 1.369 . S
C700 C709 1.429 . S
C701 C699 1.419 1_545 S
C701 C702 1.363 . S
C701 H704 0.929 . S
C702 C701 1.363 . S
C702 C708 1.428 . S
H703 C699 0.930 . S
H704 C701 0.929 . S
S705 N706 1.613 1_545 S
S705 N707 1.610 . S
N706 S705 1.613 1_565 S
N706 C709 1.350 . S
N707 S705 1.610 . S
N707 C708 1.351 . S
C708 C702 1.428 . S
C708 N707 1.351 . S
C708 C709 1.434 1_545 S
C709 C700 1.429 . S
C709 N706 1.350 . S
C709 C708 1.434 1_565 S
C710 C711 1.369 . S
C710 C712 1.419 1_554 S
C710 H714 0.930 . S
C711 C710 1.369 . S
C711 C720 1.429 . S
C712 C710 1.419 1_556 S
C712 C713 1.363 . S
C712 H715 0.929 . S
C713 C712 1.363 . S
C713 C719 1.428 . S
H714 C710 0.930 . S
H715 C712 0.929 . S
S716 N717 1.613 . S
S716 N718 1.610 1_554 S
N717 S716 1.613 . S
N717 C720 1.350 . S
N718 S716 1.610 1_556 S
N718 C719 1.351 . S
C719 C713 1.428 . S
C719 N718 1.351 . S
C719 C720 1.434 1_556 S
C720 C711 1.429 . S
C720 N717 1.350 . S
C720 C719 1.434 1_554 S
C721 C722 1.369 . S
C721 C723 1.419 . S
C721 H725 0.930 . S
C722 C721 1.369 . S
C722 C731 1.429 1_455 S
C723 C721 1.419 . S
C723 C724 1.363 1_455 S
C723 H726 0.929 . S
C724 C723 1.363 1_655 S
C724 C730 1.428 . S
H725 C721 0.930 . S
H726 C723 0.929 . S
S727 N728 1.613 . S
S727 N729 1.610 . S
N728 S727 1.613 . S
N728 C731 1.350 . S
N729 S727 1.610 . S
N729 C730 1.351 . S
C730 C724 1.428 . S
C730 N729 1.351 . S
C730 C731 1.434 . S
C731 C722 1.429 1_655 S
C731 N728 1.350 . S
C731 C730 1.434 . S
C732 C733 1.369 . S
C732 C734 1.419 . S
C732 H736 0.930 . S
C733 C732 1.369 . S
C733 C742 1.429 . S
C734 C732 1.419 . S
C734 C735 1.363 . S
C734 H737 0.929 . S
C735 C734 1.363 . S
C735 C741 1.428 . S
H736 C732 0.930 . S
H737 C734 0.929 . S
S738 N739 1.613 . S
S738 N740 1.610 . S
N739 S738 1.613 . S
N739 C742 1.350 . S
N740 S738 1.610 . S
N740 C741 1.351 . S
C741 C735 1.428 . S
C741 N740 1.351 . S
C741 C742 1.434 . S
C742 C733 1.429 . S
C742 N739 1.350 . S
C742 C741 1.434 . S
C743 C744 1.369 . S
C743 C745 1.419 . S
C743 H747 0.930 . S
C744 C743 1.369 . S
C744 C753 1.429 . S
C745 C743 1.419 . S
C745 C746 1.363 . S
C745 H748 0.929 . S
C746 C745 1.363 . S
C746 C752 1.428 . S
H747 C743 0.930 . S
H748 C745 0.929 . S
S749 N750 1.613 . S
S749 N751 1.610 . S
N750 S749 1.613 . S
N750 C753 1.350 . S
N751 S749 1.610 . S
N751 C752 1.351 . S
C752 C746 1.428 . S
C752 N751 1.351 . S
C752 C753 1.434 . S
C753 C744 1.429 . S
C753 N750 1.350 . S
C753 C752 1.434 . S
C754 C755 1.369 . S
C754 C756 1.419 . S
C754 H758 0.930 . S
C755 C754 1.369 . S
C755 C764 1.429 . S
C756 C754 1.419 . S
C756 C757 1.363 . S
C756 H759 0.929 . S
C757 C756 1.363 . S
C757 C763 1.428 . S
H758 C754 0.930 . S
H759 C756 0.929 . S
S760 N761 1.613 1_556 S
S760 N762 1.610 1_556 S
N761 S760 1.613 1_554 S
N761 C764 1.350 . S
N762 S760 1.610 1_554 S
N762 C763 1.351 . S
C763 C757 1.428 . S
C763 N762 1.351 . S
C763 C764 1.434 . S
C764 C755 1.429 . S
C764 N761 1.350 . S
C764 C763 1.434 . S
C765 C766 1.369 . S
C765 C767 1.419 . S
C765 H769 0.930 . S
C766 C765 1.369 . S
C766 C775 1.429 . S
C767 C765 1.419 . S
C767 C768 1.363 . S
C767 H770 0.929 . S
C768 C767 1.363 . S
C768 C774 1.428 . S
H769 C765 0.930 . S
H770 C767 0.929 . S
S771 N772 1.613 . S
S771 N773 1.610 . S
N772 S771 1.613 . S
N772 C775 1.350 . S
N773 S771 1.610 . S
N773 C774 1.351 . S
C774 C768 1.428 . S
C774 N773 1.351 . S
C774 C775 1.434 . S
C775 C766 1.429 . S
C775 N772 1.350 . S
C775 C774 1.434 . S
C776 C777 1.369 . S
C776 C778 1.419 . S
C776 H780 0.930 . S
C777 C776 1.369 . S
C777 C786 1.429 . S
C778 C776 1.419 . S
C778 C779 1.363 . S
C778 H781 0.929 . S
C779 C778 1.363 . S
C779 C785 1.428 . S
H780 C776 0.930 . S
H781 C778 0.929 . S
S782 N783 1.613 . S
S782 N784 1.610 . S
N783 S782 1.613 . S
N783 C786 1.350 . S
N784 S782 1.610 . S
N784 C785 1.351 . S
C785 C779 1.428 . S
C785 N784 1.351 . S
C785 C786 1.434 . S
C786 C777 1.429 . S
C786 N783 1.350 . S
C786 C785 1.434 . S
C787 C788 1.369 . S
C787 C789 1.419 . S
C787 H791 0.930 . S
C788 C787 1.369 . S
C788 C797 1.429 . S
C789 C787 1.419 . S
C789 C790 1.363 . S
C789 H792 0.929 . S
C790 C789 1.363 . S
C790 C796 1.428 . S
H791 C787 0.930 . S
H792 C789 0.929 . S
S793 N794 1.613 . S
S793 N795 1.610 . S
N794 S793 1.613 . S
N794 C797 1.350 . S
N795 S793 1.610 . S
N795 C796 1.351 . S
C796 C790 1.428 . S
C796 N795 1.351 . S
C796 C797 1.434 . S
C797 C788 1.429 . S
C797 N794 1.350 . S
C797 C796 1.434 . S
C798 C799 1.369 . S
C798 C800 1.419 . S
C798 H802 0.930 . S
C799 C798 1.369 . S
C799 C808 1.429 . S
C800 C798 1.419 . S
C800 C801 1.363 . S
C800 H803 0.929 . S
C801 C800 1.363 . S
C801 C807 1.428 . S
H802 C798 0.930 . S
H803 C800 0.929 . S
S804 N805 1.613 . S
S804 N806 1.610 . S
N805 S804 1.613 . S
N805 C808 1.350 . S
N806 S804 1.610 . S
N806 C807 1.351 . S
C807 C801 1.428 . S
C807 N806 1.351 . S
C807 C808 1.434 . S
C808 C799 1.429 . S
C808 N805 1.350 . S
C808 C807 1.434 . S
C809 C810 1.369 . S
C809 C811 1.419 . S
C809 H813 0.930 . S
C810 C809 1.369 . S
C810 C819 1.429 . S
C811 C809 1.419 . S
C811 C812 1.363 . S
C811 H814 0.929 . S
C812 C811 1.363 . S
C812 C818 1.428 . S
H813 C809 0.930 . S
H814 C811 0.929 . S
S815 N816 1.613 . S
S815 N817 1.610 . S
N816 S815 1.613 . S
N816 C819 1.350 . S
N817 S815 1.610 . S
N817 C818 1.351 . S
C818 C812 1.428 . S
C818 N817 1.351 . S
C818 C819 1.434 . S
C819 C810 1.429 . S
C819 N816 1.350 . S
C819 C818 1.434 . S
C820 C821 1.369 . S
C820 C822 1.419 . S
C820 H824 0.930 . S
C821 C820 1.369 . S
C821 C830 1.429 . S
C822 C820 1.419 . S
C822 C823 1.363 . S
C822 H825 0.929 . S
C823 C822 1.363 . S
C823 C829 1.428 . S
H824 C820 0.930 . S
H825 C822 0.929 . S
S826 N827 1.613 . S
S826 N828 1.610 . S
N827 S826 1.613 . S
N827 C830 1.350 . S
N828 S826 1.610 . S
N828 C829 1.351 . S
C829 C823 1.428 . S
C829 N828 1.351 . S
C829 C830 1.434 . S
C830 C821 1.429 . S
C830 N827 1.350 . S
C830 C829 1.434 . S
C831 C832 1.369 . S
C831 C833 1.419 . S
C831 H835 0.930 . S
C832 C831 1.369 . S
C832 C841 1.429 . S
C833 C831 1.419 . S
C833 C834 1.363 . S
C833 H836 0.929 . S
C834 C833 1.363 . S
C834 C840 1.428 . S
H835 C831 0.930 . S
H836 C833 0.929 . S
S837 N838 1.613 . S
S837 N839 1.610 . S
N838 S837 1.613 . S
N838 C841 1.350 . S
N839 S837 1.610 . S
N839 C840 1.351 . S
C840 C834 1.428 . S
C840 N839 1.351 . S
C840 C841 1.434 . S
C841 C832 1.429 . S
C841 N838 1.350 . S
C841 C840 1.434 . S
C842 C843 1.369 . S
C842 C844 1.419 . S
C842 H846 0.930 . S
C843 C842 1.369 . S
C843 C852 1.429 . S
C844 C842 1.419 . S
C844 C845 1.363 . S
C844 H847 0.929 . S
C845 C844 1.363 . S
C845 C851 1.428 . S
H846 C842 0.930 . S
H847 C844 0.929 . S
S848 N849 1.613 . S
S848 N850 1.610 . S
N849 S848 1.613 . S
N849 C852 1.350 . S
N850 S848 1.610 . S
N850 C851 1.351 . S
C851 C845 1.428 . S
C851 N850 1.351 . S
C851 C852 1.434 . S
C852 C843 1.429 . S
C852 N849 1.350 . S
C852 C851 1.434 . S
C853 C854 1.369 . S
C853 C855 1.419 . S
C853 H857 0.930 . S
C854 C853 1.369 . S
C854 C863 1.429 . S
C855 C853 1.419 . S
C855 C856 1.363 . S
C855 H858 0.929 . S
C856 C855 1.363 . S
C856 C862 1.428 . S
H857 C853 0.930 . S
H858 C855 0.929 . S
S859 N860 1.613 . S
S859 N861 1.610 . S
N860 S859 1.613 . S
N860 C863 1.350 . S
N861 S859 1.610 . S
N861 C862 1.351 . S
C862 C856 1.428 . S
C862 N861 1.351 . S
C862 C863 1.434 . S
C863 C854 1.429 . S
C863 N860 1.350 . S
C863 C862 1.434 . S
C337 C222 1.443 . S
C339 C12 1.443 . S
C348 C26 1.440 . S
C350 C236 1.441 . S
C359 C40 1.442 . S
C361 C250 1.442 . S
C370 C54 1.441 . S
C372 C180 1.442 . S
C381 C194 1.443 . S
C383 C68 1.443 . S
C392 C82 1.443 . S
C394 C208 1.443 . S
C403 C306 1.441 . S
C405 C96 1.441 . S
C414 C110 1.441 . S
C416 C320 1.441 . S
C425 C124 1.441 . S
C427 C334 1.441 . S
C436 C264 1.444 . S
C438 C138 1.443 . S
C447 C152 1.443 . S
C449 C278 1.443 . S
C458 C292 1.443 . S
C460 C166 1.442 . S
C469 C11 1.235 . S
C471 C333 1.235 . S
C480 C263 1.236 . S
C482 C25 1.237 . S
C491 C39 1.240 . S
C493 C277 1.239 . S
C502 C291 1.231 . S
C504 C53 1.232 . S
C513 C67 1.232 . S
C515 C305 1.233 . S
C524 C319 1.240 . S
C526 C81 1.239 . S
C535 C95 1.239 . S
C537 C193 1.239 . S
C546 C207 1.232 . S
C548 C109 1.233 . S
C557 C221 1.236 . S
C559 C123 1.236 . S
C568 C235 1.236 . S
C570 C137 1.237 . S
C579 C151 1.240 . S
C581 C249 1.239 . S
C590 C165 1.239 . S
C592 C179 1.238 . S
C601 C103 1.145 . S
C603 C5 1.141 . S
C612 C117 1.151 . S
C614 C19 1.151 . S
C623 C131 1.143 . S
C625 C33 1.147 . S
C634 C145 1.148 . S
C636 C47 1.143 . S
C645 C61 1.136 . S
C647 C159 1.137 . S
C656 C75 1.139 . S
C658 C89 1.144 . S
C667 C173 1.150 . S
C669 C271 1.144 . S
C678 C187 1.150 . S
C680 C285 1.144 . S
C689 C299 1.153 . S
C691 C201 1.149 . S
C700 C313 1.136 . S
C702 C215 1.137 . S
C711 C327 1.149 . S
C713 C229 1.151 . S
C722 C257 1.140 . S
C724 C243 1.145 . S
C733 C4 1.398 . S
C735 C270 1.397 . S
C744 C284 1.392 . S
C746 C18 1.393 . S
C755 C32 1.400 . S
C757 C298 1.399 . S
C766 C312 1.400 . S
C768 C46 1.399 . S
C777 C60 1.395 . S
C779 C326 1.395 . S
C788 C256 1.392 . S
C790 C74 1.393 . S
C799 C88 1.400 . S
C801 C242 1.399 . S
C810 C172 1.392 . S
C812 C102 1.393 . S
C821 C116 1.398 . S
C823 C186 1.398 . S
C832 C130 1.392 . S
C834 C200 1.393 . S
C843 C144 1.393 . S
C845 C214 1.394 . S
C854 C158 1.400 . S
C856 C228 1.399 . S
