# Generated by pormake.
# Topology skb, (5)-cn, num edge types: 1
# Building blocks:
#     Node 0, Type 0, BuildingBlock: XOMCOT_clean_sbu_1, # of connection points: 5
#     Node 1, Type 0, BuildingBlock: XOMCOT_clean_sbu_1, # of connection points: 5
#     Node 2, Type 0, BuildingBlock: XOMCOT_clean_sbu_1, # of connection points: 5
#     Node 3, Type 0, BuildingBlock: XOMCOT_clean_sbu_1, # of connection points: 5
#     Node 4, Type 0, BuildingBlock: XOMCOT_clean_sbu_1, # of connection points: 5
#     Node 5, Type 0, BuildingBlock: XOMCOT_clean_sbu_1, # of connection points: 5
#     Node 6, Type 0, BuildingBlock: XOMCOT_clean_sbu_1, # of connection points: 5
#     Node 7, Type 0, BuildingBlock: XOMCOT_clean_sbu_1, # of connection points: 5
#     Node 8, Type 0, BuildingBlock: XOMCOT_clean_sbu_1, # of connection points: 5
#     Node 9, Type 0, BuildingBlock: XOMCOT_clean_sbu_1, # of connection points: 5
#     Node 10, Type 0, BuildingBlock: XOMCOT_clean_sbu_1, # of connection points: 5
#     Node 11, Type 0, BuildingBlock: XOMCOT_clean_sbu_1, # of connection points: 5
#     Node 12, Type 0, BuildingBlock: XOMCOT_clean_sbu_1, # of connection points: 5
#     Node 13, Type 0, BuildingBlock: XOMCOT_clean_sbu_1, # of connection points: 5
#     Node 14, Type 0, BuildingBlock: XOMCOT_clean_sbu_1, # of connection points: 5
#     Node 15, Type 0, BuildingBlock: XOMCOT_clean_sbu_1, # of connection points: 5
#     Edge 16, Type (0, 0), BuildingBlock: CIFDUS_clean_linker_0, # of connection points: 2
#     Edge 17, Type (0, 0), BuildingBlock: CIFDUS_clean_linker_0, # of connection points: 2
#     Edge 18, Type (0, 0), BuildingBlock: CIFDUS_clean_linker_0, # of connection points: 2
#     Edge 19, Type (0, 0), BuildingBlock: CIFDUS_clean_linker_0, # of connection points: 2
#     Edge 20, Type (0, 0), BuildingBlock: CIFDUS_clean_linker_0, # of connection points: 2
#     Edge 21, Type (0, 0), BuildingBlock: CIFDUS_clean_linker_0, # of connection points: 2
#     Edge 22, Type (0, 0), BuildingBlock: CIFDUS_clean_linker_0, # of connection points: 2
#     Edge 23, Type (0, 0), BuildingBlock: CIFDUS_clean_linker_0, # of connection points: 2
#     Edge 24, Type (0, 0), BuildingBlock: CIFDUS_clean_linker_0, # of connection points: 2
#     Edge 25, Type (0, 0), BuildingBlock: CIFDUS_clean_linker_0, # of connection points: 2
#     Edge 26, Type (0, 0), BuildingBlock: CIFDUS_clean_linker_0, # of connection points: 2
#     Edge 27, Type (0, 0), BuildingBlock: CIFDUS_clean_linker_0, # of connection points: 2
#     Edge 28, Type (0, 0), BuildingBlock: CIFDUS_clean_linker_0, # of connection points: 2
#     Edge 29, Type (0, 0), BuildingBlock: CIFDUS_clean_linker_0, # of connection points: 2
#     Edge 30, Type (0, 0), BuildingBlock: CIFDUS_clean_linker_0, # of connection points: 2
#     Edge 31, Type (0, 0), BuildingBlock: CIFDUS_clean_linker_0, # of connection points: 2
#     Edge 32, Type (0, 0), BuildingBlock: CIFDUS_clean_linker_0, # of connection points: 2
#     Edge 33, Type (0, 0), BuildingBlock: CIFDUS_clean_linker_0, # of connection points: 2
#     Edge 34, Type (0, 0), BuildingBlock: CIFDUS_clean_linker_0, # of connection points: 2
#     Edge 35, Type (0, 0), BuildingBlock: CIFDUS_clean_linker_0, # of connection points: 2
#     Edge 36, Type (0, 0), BuildingBlock: CIFDUS_clean_linker_0, # of connection points: 2
#     Edge 37, Type (0, 0), BuildingBlock: CIFDUS_clean_linker_0, # of connection points: 2
#     Edge 38, Type (0, 0), BuildingBlock: CIFDUS_clean_linker_0, # of connection points: 2
#     Edge 39, Type (0, 0), BuildingBlock: CIFDUS_clean_linker_0, # of connection points: 2
#     Edge 40, Type (0, 0), BuildingBlock: CIFDUS_clean_linker_0, # of connection points: 2
#     Edge 41, Type (0, 0), BuildingBlock: CIFDUS_clean_linker_0, # of connection points: 2
#     Edge 42, Type (0, 0), BuildingBlock: CIFDUS_clean_linker_0, # of connection points: 2
#     Edge 43, Type (0, 0), BuildingBlock: CIFDUS_clean_linker_0, # of connection points: 2
#     Edge 44, Type (0, 0), BuildingBlock: CIFDUS_clean_linker_0, # of connection points: 2
#     Edge 45, Type (0, 0), BuildingBlock: CIFDUS_clean_linker_0, # of connection points: 2
#     Edge 46, Type (0, 0), BuildingBlock: CIFDUS_clean_linker_0, # of connection points: 2
#     Edge 47, Type (0, 0), BuildingBlock: CIFDUS_clean_linker_0, # of connection points: 2
#     Edge 48, Type (0, 0), BuildingBlock: CIFDUS_clean_linker_0, # of connection points: 2
#     Edge 49, Type (0, 0), BuildingBlock: CIFDUS_clean_linker_0, # of connection points: 2
#     Edge 50, Type (0, 0), BuildingBlock: CIFDUS_clean_linker_0, # of connection points: 2
#     Edge 51, Type (0, 0), BuildingBlock: CIFDUS_clean_linker_0, # of connection points: 2
#     Edge 52, Type (0, 0), BuildingBlock: CIFDUS_clean_linker_0, # of connection points: 2
#     Edge 53, Type (0, 0), BuildingBlock: CIFDUS_clean_linker_0, # of connection points: 2
#     Edge 54, Type (0, 0), BuildingBlock: CIFDUS_clean_linker_0, # of connection points: 2
#     Edge 55, Type (0, 0), BuildingBlock: CIFDUS_clean_linker_0, # of connection points: 2
# Relax obj value: 0.060
# Max RMSD: 0.106
# Mean RMSD: 0.106
data_MOF--net-skb--node1-XOMCOT_clean_sbu_1--edge1-CIFDUS_clean_linker_0
_symmetry_space_group_name_H-M    P1
_symmetry_Int_Tables_number       1
_symmetry_cell_setting            triclinic
loop_
_symmetry_equiv_pos_as_xyz
'x, y, z'
_cell_length_a     44.041447
_cell_length_b     24.235812
_cell_length_c     61.441675
_cell_angle_alpha  89.931037
_cell_angle_beta   89.979168
_cell_angle_gamma 89.921058
loop_
_atom_site_label
_atom_site_type_symbol
_atom_site_fract_x
_atom_site_fract_y
_atom_site_fract_z
_atom_type_partial_charge
C0 C 0.16657 0.10946 0.12178 0.0
C1 C 0.16798 0.11738 0.09968 0.0
N2 N 0.18465 0.07649 0.09082 0.0
N3 N 0.18233 0.06377 0.12722 0.0
C4 C 0.19314 0.0444 0.10794 0.0
H5 H 0.15397 0.13464 0.13316 0.0
Co6 Co 0.18422 0.03784 0.1564 0.0
C7 C 0.19687 0.91828 0.1464 0.0
O8 O 0.16831 0.90518 0.14942 0.0
N9 N 0.18703 1.01168 0.18619 0.0
C10 C 0.17996 0.96202 0.21646 0.0
C11 C 0.17237 0.96782 0.19489 0.0
C12 C 0.20403 0.03096 0.20309 0.0
N13 N 0.19992 1.00177 0.2217 0.0
O14 O 0.22143 0.07713 0.1597 0.0
H15 H 0.15652 0.94181 0.18633 0.0
H16 H 0.21903 0.06607 0.20201 0.0
O17 O 0.2053 0.9689 0.14761 0.0
C18 C 0.21085 0.12408 0.16567 0.0
O19 O 0.18183 0.12742 0.17053 0.0
N20 N 0.14436 1.01054 0.15336 0.0
C21 C 0.08323 0.02934 0.14388 0.0
C22 C 0.10162 0.99995 0.12926 0.0
C23 C 0.13234 0.99121 0.13426 0.0
C24 C 0.12594 0.0356 0.16824 0.0
C25 C 0.09536 0.04418 0.16406 0.0
H26 H 0.14697 0.97433 0.12181 0.0
H27 H 0.13543 0.05491 0.18253 0.0
H28 H 0.2065 1.0071 0.10644 0.0
H29 H 0.1565 0.14977 0.09074 0.0
H30 H 0.17166 0.9304 0.22739 0.0
H31 H 0.09309 0.98798 0.11343 0.0
H32 H 0.08184 0.06617 0.17598 0.0
C33 C 0.82207 0.97126 0.11497 0.0
C34 C 0.82041 0.97133 0.09264 0.0
N35 N 0.80643 0.01807 0.0862 0.0
N36 N 0.80909 0.01758 0.12276 0.0
C37 C 0.79972 0.04535 0.10483 0.0
H38 H 0.83304 0.94021 0.12488 0.0
Co39 Co 0.80877 0.0363 0.15235 0.0
C40 C 0.79296 0.15515 0.15193 0.0
O41 O 0.81847 0.16514 0.16222 0.0
N42 N 0.80797 0.055 0.18287 0.0
C43 C 0.81869 0.08526 0.21636 0.0
C44 C 0.82921 0.07995 0.19541 0.0
C45 C 0.78449 0.04675 0.19685 0.0
N46 N 0.7905 0.06423 0.21731 0.0
O47 O 0.77223 0.99436 0.15554 0.0
H48 H 0.85088 0.09521 0.18984 0.0
H49 H 0.76319 0.0281 0.19223 0.0
O50 O 0.78631 0.10556 0.14641 0.0
C51 C 0.7824 0.94664 0.1608 0.0
O52 O 0.81153 0.94172 0.16494 0.0
N53 N 0.84724 0.06683 0.14851 0.0
C54 C 0.90756 0.066 0.13523 0.0
C55 C 0.88706 0.10366 0.12598 0.0
C56 C 0.85652 0.10269 0.13261 0.0
C57 C 0.86742 0.03133 0.15784 0.0
C58 C 0.89764 0.03083 0.15173 0.0
H59 H 0.84012 0.12731 0.12382 0.0
H60 H 0.85958 1.00057 0.16926 0.0
H61 H 0.78887 0.08538 0.10538 0.0
H62 H 0.83006 0.94046 0.08196 0.0
H63 H 0.83063 0.10461 0.22971 0.0
H64 H 0.89412 0.13078 0.11292 0.0
H65 H 0.91292 1.00115 0.15914 0.0
C66 C 0.17067 0.94399 0.93639 0.0
C67 C 0.17175 0.93818 0.95858 0.0
N68 N 0.18633 0.982 0.96708 0.0
N69 N 0.18457 0.99118 0.93052 0.0
C70 C 0.19377 1.01389 0.94965 0.0
H71 H 0.15993 0.91576 0.92518 0.0
Co72 Co 0.18666 1.01195 0.90088 0.0
C73 C 0.20115 0.13017 0.9009 0.0
O74 O 0.1783 0.13657 0.88743 0.0
N75 N 0.18899 0.03144 0.87006 0.0
C76 C 0.1776 0.05589 0.83585 0.0
C77 C 0.16693 0.05128 0.85678 0.0
C78 C 0.21315 0.0253 0.85637 0.0
N79 N 0.2067 0.03923 0.83545 0.0
O80 O 0.22401 0.97221 0.89868 0.0
H81 H 0.14438 0.06329 0.86173 0.0
H82 H 0.23505 1.00986 0.8615 0.0
O83 O 0.20713 0.08199 0.90844 0.0
C84 C 0.21438 0.92495 0.89249 0.0
O85 O 0.18592 0.9208 0.88635 0.0
N86 N 0.14761 0.04068 0.90371 0.0
C87 C 0.08699 0.03776 0.91642 0.0
C88 C 0.1068 0.07692 0.92545 0.0
C89 C 0.13749 0.07702 0.91912 0.0
C90 C 0.12813 1.00397 0.89444 0.0
C91 C 0.0978 1.00248 0.90023 0.0
H92 H 0.15335 0.1027 0.92788 0.0
H93 H 0.1366 0.97316 0.88331 0.0
H94 H 0.20565 0.05283 0.9508 0.0
H95 H 0.16179 0.90472 0.96781 0.0
H96 H 0.16493 0.07144 0.82206 0.0
H97 H 0.09915 0.10444 0.9382 0.0
H98 H 0.08315 0.97209 0.89271 0.0
C99 C 0.82367 0.11408 0.92988 0.0
C100 C 0.82141 0.1156 0.9522 0.0
N101 N 0.80632 0.07031 0.95891 0.0
N102 N 0.81001 0.06816 0.92239 0.0
C103 C 0.79946 0.04249 0.94045 0.0
H104 H 0.83574 0.14339 0.91982 0.0
Co105 Co 0.81078 0.04553 0.89317 0.0
C106 C 0.79655 0.92493 0.89875 0.0
O107 O 0.8239 0.91169 0.89211 0.0
N108 N 0.81117 0.0223 0.86311 0.0
C109 C 0.82373 0.98069 0.83193 0.0
C110 C 0.83043 0.98591 0.85361 0.0
C111 C 0.79249 0.03762 0.84653 0.0
N112 N 0.79988 1.0133 0.8274 0.0
O113 O 0.77374 0.08557 0.88878 0.0
H114 H 0.84865 0.96423 0.86168 0.0
H115 H 0.77392 0.06649 0.84823 0.0
O116 O 0.78898 0.97597 0.90038 0.0
C117 C 0.78393 0.13356 0.88387 0.0
O118 O 0.81306 0.13831 0.87961 0.0
N119 N 0.84987 0.01774 0.89793 0.0
C120 C 0.91013 0.02881 0.91102 0.0
C121 C 0.8903 0.99407 0.92257 0.0
C122 C 0.8599 0.98959 0.91587 0.0
C123 C 0.86948 0.04937 0.88614 0.0
C124 C 0.89965 0.05445 0.89207 0.0
H125 H 0.84402 0.96776 0.92615 0.0
H126 H 0.86116 0.07461 0.87291 0.0
H127 H 0.78792 1.00316 0.94016 0.0
H128 H 0.83162 0.14619 0.96271 0.0
H129 H 0.83528 0.95413 0.82044 0.0
H130 H 0.89761 0.97384 0.93739 0.0
H131 H 0.9143 0.08091 0.88248 0.0
C132 C 0.1711 0.61003 0.61325 0.0
C133 C 0.17316 0.6119 0.5909 0.0
N134 N 0.1899 0.56859 0.58412 0.0
N135 N 0.18646 0.56575 0.62074 0.0
C136 C 0.19797 0.54168 0.6026 0.0
H137 H 0.158 0.6378 0.62334 0.0
Co138 Co 0.18713 0.54237 0.65019 0.0
C139 C 0.20041 0.42219 0.63916 0.0
O140 O 0.17159 0.40878 0.63919 0.0
N141 N 0.18889 0.51788 0.67998 0.0
C142 C 0.18167 0.46438 0.70904 0.0
C143 C 0.17715 0.46961 0.68711 0.0
C144 C 0.20096 0.54091 0.69825 0.0
N145 N 0.19655 0.50922 0.71619 0.0
O146 O 0.22443 0.58147 0.65375 0.0
H147 H 0.1651 0.44031 0.67719 0.0
H148 H 0.21227 0.58046 0.6986 0.0
O149 O 0.20835 0.4725 0.64239 0.0
C150 C 0.21372 0.6292 0.65854 0.0
O151 O 0.18442 0.63338 0.66234 0.0
N152 N 0.14697 0.51535 0.64698 0.0
C153 C 0.08526 0.53249 0.63854 0.0
C154 C 0.10367 0.50518 0.62331 0.0
C155 C 0.1346 0.49716 0.62782 0.0
C156 C 0.12857 0.53863 0.66236 0.0
C157 C 0.09777 0.5461 0.65872 0.0
H158 H 0.14895 0.48151 0.61497 0.0
H159 H 0.138 0.55742 0.67675 0.0
H160 H 0.21111 0.50399 0.60286 0.0
H161 H 0.16175 0.64124 0.58042 0.0
H162 H 0.17454 0.42988 0.71901 0.0
H163 H 0.09491 0.49407 0.60745 0.0
H164 H 0.08432 0.56624 0.67117 0.0
C165 C 0.81511 0.45752 0.61424 0.0
C166 C 0.81303 0.45995 0.59199 0.0
N167 N 0.80439 0.51133 0.58627 0.0
N168 N 0.80769 0.50696 0.62271 0.0
C169 C 0.80129 0.53909 0.60527 0.0
H170 H 0.82273 0.42237 0.62361 0.0
Co171 Co 0.81067 0.52187 0.65236 0.0
C172 C 0.79813 0.64136 0.65749 0.0
O173 O 0.82228 0.64095 0.67002 0.0
N174 N 0.81342 0.5354 0.68292 0.0
C175 C 0.82766 0.54667 0.71746 0.0
C176 C 0.83758 0.54059 0.69638 0.0
C177 C 0.78916 0.53914 0.6964 0.0
N178 N 0.79713 0.54542 0.7175 0.0
O179 O 0.77373 0.47945 0.65699 0.0
H180 H 0.86111 0.54048 0.69157 0.0
H181 H 0.76594 0.53604 0.69083 0.0
O182 O 0.78935 0.59571 0.64873 0.0
C183 C 0.78409 0.43163 0.66231 0.0
O184 O 0.81333 0.42714 0.66603 0.0
N185 N 0.84925 0.55113 0.64699 0.0
C186 C 0.90866 0.55508 0.63155 0.0
C187 C 0.8881 0.59742 0.62634 0.0
C188 C 0.85795 0.5939 0.63381 0.0
C189 C 0.86935 0.51039 0.65208 0.0
C190 C 0.89907 0.51194 0.64489 0.0
H191 H 0.84149 0.62332 0.62786 0.0
H192 H 0.86196 0.47487 0.66121 0.0
H193 H 0.79527 0.58227 0.60645 0.0
H194 H 0.81895 0.42706 0.58087 0.0
H195 H 0.84196 0.55203 0.73162 0.0
H196 H 0.89481 0.63098 0.61573 0.0
H197 H 0.91432 0.47861 0.64931 0.0
C198 C 0.17862 0.46769 0.42768 0.0
C199 C 0.18034 0.46783 0.45003 0.0
N200 N 0.19231 0.51626 0.4565 0.0
N201 N 0.18961 0.51562 0.41983 0.0
C202 C 0.19785 0.5444 0.43781 0.0
H203 H 0.16883 0.43538 0.41782 0.0
Co204 Co 0.18848 0.53525 0.3901 0.0
C205 C 0.20419 0.6546 0.39168 0.0
O206 O 0.17799 0.66628 0.38264 0.0
N207 N 0.1877 0.55509 0.35944 0.0
C208 C 0.17431 0.59082 0.32729 0.0
C209 C 0.16685 0.58629 0.34887 0.0
C210 C 0.20795 0.54186 0.34346 0.0
N211 N 0.20013 0.56261 0.32371 0.0
O212 O 0.22494 0.49367 0.38579 0.0
H213 H 0.1473 0.60578 0.35618 0.0
H214 H 0.22798 0.51696 0.34609 0.0
O215 O 0.21112 0.60428 0.39595 0.0
C216 C 0.21456 0.44609 0.38063 0.0
O217 O 0.1853 0.44158 0.37686 0.0
N218 N 0.15001 0.56548 0.39496 0.0
C219 C 0.08909 0.56988 0.40715 0.0
C220 C 0.11044 0.60481 0.41705 0.0
C221 C 0.14113 0.60116 0.411 0.0
C222 C 0.12929 0.53201 0.38518 0.0
C223 C 0.09881 0.53432 0.39066 0.0
H224 H 0.15778 0.62441 0.42006 0.0
H225 H 0.1367 0.50148 0.37354 0.0
H226 H 0.20689 0.58584 0.43727 0.0
H227 H 0.17194 0.43574 0.46071 0.0
H228 H 0.16176 0.61411 0.31523 0.0
H229 H 0.10378 0.63232 0.43008 0.0
H230 H 0.08309 0.50712 0.3824 0.0
C231 C 0.83351 0.60905 0.43125 0.0
C232 C 0.83114 0.60973 0.45356 0.0
N233 N 0.8124 0.56865 0.45973 0.0
N234 N 0.81637 0.56777 0.42328 0.0
C235 C 0.80364 0.54403 0.44099 0.0
H236 H 0.84764 0.63584 0.42147 0.0
Co237 Co 0.81448 0.54904 0.39384 0.0
C238 C 0.79747 0.43032 0.39505 0.0
O239 O 0.82231 0.41903 0.38412 0.0
N240 N 0.81209 0.53032 0.36344 0.0
C241 C 0.82022 0.49692 0.33004 0.0
C242 C 0.83185 0.5022 0.35067 0.0
C243 C 0.78841 0.54088 0.3499 0.0
N244 N 0.79281 0.52136 0.32952 0.0
O245 O 0.77824 0.59237 0.39159 0.0
H246 H 0.85313 0.48449 0.35592 0.0
H247 H 0.76808 0.56243 0.35482 0.0
O248 O 0.79158 0.48039 0.40045 0.0
C249 C 0.78846 0.64044 0.38697 0.0
O250 O 0.81765 0.64548 0.38301 0.0
N251 N 0.8527 0.51667 0.39677 0.0
C252 C 0.914 0.51027 0.40764 0.0
C253 C 0.89276 0.47584 0.41795 0.0
C254 C 0.86188 0.48051 0.41257 0.0
C255 C 0.8733 0.54955 0.38652 0.0
C256 C 0.90397 0.54619 0.39132 0.0
H257 H 0.84532 0.45833 0.42217 0.0
H258 H 0.86562 0.58086 0.37525 0.0
H259 H 0.78868 0.50878 0.44018 0.0
H260 H 0.8434 0.63691 0.46439 0.0
H261 H 0.83082 0.47511 0.31669 0.0
H262 H 0.89967 0.44824 0.43092 0.0
H263 H 0.91961 0.57318 0.38284 0.0
C264 C 0.67851 0.10594 0.61836 0.0
C265 C 0.68091 0.1063 0.59609 0.0
N266 N 0.69289 0.0578 0.58965 0.0
N267 N 0.68903 0.05759 0.62617 0.0
C268 C 0.6977 0.02902 0.60827 0.0
H269 H 0.66855 0.13819 0.6282 0.0
Co270 Co 0.68681 0.03856 0.65572 0.0
C271 C 0.69603 0.91623 0.65505 0.0
O272 O 0.66964 0.91267 0.66482 0.0
N273 N 0.68468 0.01999 0.68638 0.0
C274 C 0.6685 0.99275 0.71918 0.0
C275 C 0.66177 0.99521 0.69743 0.0
C276 C 0.70542 0.03106 0.7022 0.0
N277 N 0.69591 0.01559 0.72226 0.0
O278 O 0.72475 0.07746 0.66016 0.0
H279 H 0.64111 0.9793 0.6904 0.0
H280 H 0.72691 0.05123 0.69929 0.0
O281 O 0.70658 0.96422 0.65006 0.0
C282 C 0.71467 0.12582 0.66497 0.0
O283 O 0.68552 0.1309 0.669 0.0
N284 N 0.64711 1.01402 0.65064 0.0
C285 C 0.5871 0.02363 0.63667 0.0
C286 C 0.60646 0.98411 0.62728 0.0
C287 C 0.63685 0.98072 0.63424 0.0
C288 C 0.62804 0.05134 0.66008 0.0
C289 C 0.59805 0.05609 0.65368 0.0
H290 H 0.65245 0.95444 0.62546 0.0
H291 H 0.63654 0.07988 0.67208 0.0
H292 H 0.7065 0.98737 0.60884 0.0
H293 H 0.67293 0.1388 0.58542 0.0
H294 H 0.65435 0.97494 0.73176 0.0
H295 H 0.59872 0.95865 0.61392 0.0
H296 H 0.58377 0.0866 0.66153 0.0
C297 C 0.32883 0.96146 0.61644 0.0
C298 C 0.32799 0.96242 0.59404 0.0
N299 N 0.3112 1.00605 0.5876 0.0
N300 N 0.31261 1.00417 0.62435 0.0
C301 C 0.30203 0.03048 0.60637 0.0
H302 H 0.34145 0.93253 0.62635 0.0
Co303 Co 0.30988 0.02219 0.65431 0.0
C304 C 0.29556 0.14231 0.65161 0.0
O305 O 0.32069 0.15325 0.66221 0.0
N306 N 0.30645 0.0405 0.68513 0.0
C307 C 0.31476 0.07458 0.71847 0.0
C308 C 0.32519 0.072 0.69741 0.0
C309 C 0.28438 0.02529 0.6995 0.0
N310 N 0.28903 0.04509 0.7199 0.0
O311 O 0.27294 0.98095 0.65573 0.0
H312 H 0.34533 0.09277 0.69165 0.0
H313 H 0.26517 0.99987 0.69521 0.0
O314 O 0.28874 0.09209 0.64723 0.0
C315 C 0.28353 0.93294 0.66021 0.0
O316 O 0.3126 0.92866 0.66475 0.0
N317 N 0.34905 0.05158 0.65245 0.0
C318 C 0.41005 0.04172 0.64097 0.0
C319 C 0.39103 0.07878 0.6298 0.0
C320 C 0.36026 0.08279 0.63571 0.0
C321 C 0.36791 0.01812 0.66411 0.0
C322 C 0.39842 1.01356 0.65899 0.0
H323 H 0.34503 0.1063 0.62547 0.0
H324 H 0.35874 0.99081 0.67636 0.0
H325 H 0.28842 0.0676 0.607 0.0
H326 H 0.34003 0.93444 0.58337 0.0
H327 H 0.32505 0.09771 0.73158 0.0
H328 H 0.39922 0.10106 0.61568 0.0
H329 H 0.41241 0.98529 0.6683 0.0
C330 C 0.67178 0.96602 0.4333 0.0
C331 C 0.67385 0.96471 0.45562 0.0
N332 N 0.6898 1.00906 0.46223 0.0
N333 N 0.68639 1.01087 0.4257 0.0
C334 C 0.69722 0.0363 0.4437 0.0
H335 H 0.65946 0.93705 0.42328 0.0
Co336 Co 0.68699 0.03078 0.39623 0.0
C337 C 0.70333 0.14955 0.39724 0.0
O338 O 0.67804 0.16027 0.38676 0.0
N339 N 0.68804 0.05063 0.3658 0.0
C340 C 0.67769 0.08303 0.33252 0.0
C341 C 0.66708 0.07697 0.35341 0.0
C342 C 0.71148 0.04225 0.35177 0.0
N343 N 0.70568 0.06106 0.33144 0.0
O344 O 0.72342 0.98836 0.39297 0.0
H345 H 0.64558 0.0929 0.35905 0.0
H346 H 0.7326 0.02265 0.35628 0.0
O347 O 0.70968 0.09963 0.40263 0.0
C348 C 0.71337 0.94064 0.3877 0.0
O349 O 0.68422 0.93568 0.38361 0.0
N350 N 0.64863 0.06206 0.40014 0.0
C351 C 0.58763 0.06694 0.41224 0.0
C352 C 0.60911 0.10162 0.42218 0.0
C353 C 0.6398 0.09785 0.41613 0.0
C354 C 0.62788 0.02869 0.39036 0.0
C355 C 0.59735 0.03147 0.39568 0.0
H356 H 0.65653 0.12056 0.42533 0.0
H357 H 0.63533 0.99772 0.37889 0.0
H358 H 0.70973 0.07465 0.44326 0.0
H359 H 0.66318 0.93467 0.46617 0.0
H360 H 0.66599 0.10364 0.31932 0.0
H361 H 0.60257 0.12894 0.43531 0.0
H362 H 0.58163 1.0045 0.38731 0.0
C363 C 0.31854 0.12144 0.432 0.0
C364 C 0.31686 0.11931 0.45434 0.0
N365 N 0.30801 0.06827 0.46033 0.0
N366 N 0.31064 0.07214 0.42363 0.0
C367 C 0.30431 0.04053 0.44132 0.0
H368 H 0.32622 0.15629 0.4225 0.0
Co369 Co 0.31322 0.05493 0.3937 0.0
C370 C 0.29678 0.93694 0.39165 0.0
O371 O 0.32181 0.92808 0.38058 0.0
N372 N 0.31554 0.03781 0.36283 0.0
C373 C 0.33196 1.01449 0.32964 0.0
C374 C 0.33943 0.01817 0.35126 0.0
C375 C 0.29345 0.04421 0.34746 0.0
N376 N 0.30306 0.03106 0.32714 0.0
O377 O 0.27693 0.09703 0.38879 0.0
H378 H 0.3611 1.00583 0.35783 0.0
H379 H 0.27084 0.05926 0.35093 0.0
O380 O 0.29048 0.98578 0.39829 0.0
C381 C 0.28734 0.14438 0.38328 0.0
O382 O 0.31669 0.14899 0.38001 0.0
N383 N 0.35132 0.02399 0.39925 0.0
C384 C 0.41177 0.01555 0.41245 0.0
C385 C 0.3901 0.9771 0.41974 0.0
C386 C 0.35963 0.98272 0.41325 0.0
C387 C 0.37222 0.06147 0.39233 0.0
C388 C 0.40244 0.05728 0.39822 0.0
H389 H 0.34273 0.95599 0.42038 0.0
H390 H 0.36523 0.09572 0.38227 0.0
H391 H 0.29789 0.99756 0.4403 0.0
H392 H 0.32316 0.15224 0.46532 0.0
H393 H 0.34662 0.9999 0.31672 0.0
H394 H 0.39635 0.94473 0.43104 0.0
H395 H 0.41831 0.08732 0.39182 0.0
C396 C 0.67274 0.62141 0.11582 0.0
C397 C 0.6735 0.61947 0.09348 0.0
N398 N 0.68307 0.56894 0.08739 0.0
N399 N 0.68194 0.57251 0.12393 0.0
C400 C 0.68802 0.54125 0.10621 0.0
H401 H 0.66508 0.65588 0.12554 0.0
Co402 Co 0.6823 0.55552 0.15357 0.0
C403 C 0.70083 0.43821 0.15578 0.0
O404 O 0.6776 0.42931 0.16871 0.0
N405 N 0.68298 0.53882 0.18405 0.0
C406 C 0.67171 0.51666 0.21837 0.0
C407 C 0.66035 0.52378 0.19774 0.0
C408 C 0.70794 0.53973 0.19698 0.0
N409 N 0.70171 0.52699 0.21796 0.0
O410 O 0.71853 0.59869 0.15658 0.0
H411 H 0.63699 0.51687 0.19331 0.0
H412 H 0.73036 0.55011 0.19114 0.0
O413 O 0.70547 0.48676 0.14811 0.0
C414 C 0.70879 0.64608 0.16258 0.0
O415 O 0.67993 0.65094 0.16759 0.0
N416 N 0.64434 0.52322 0.14998 0.0
C417 C 0.58296 0.51006 0.14076 0.0
C418 C 0.60423 0.47089 0.13349 0.0
C419 C 0.63522 0.47912 0.13778 0.0
C420 C 0.62379 0.56167 0.15666 0.0
C421 C 0.59312 0.55552 0.15259 0.0
H422 H 0.65167 0.45175 0.13047 0.0
H423 H 0.63141 0.59807 0.16513 0.0
H424 H 0.69544 0.49875 0.10708 0.0
H425 H 0.66634 0.6521 0.08258 0.0
H426 H 0.65881 0.50379 0.23248 0.0
H427 H 0.59709 0.43582 0.12387 0.0
H428 H 0.57746 0.58654 0.15856 0.0
C429 C 0.28667 0.45393 0.11342 0.0
C430 C 0.28532 0.45888 0.09119 0.0
N431 N 0.29394 0.5103 0.08563 0.0
N432 N 0.29593 0.50211 0.12217 0.0
C433 C 0.3002 0.53572 0.10476 0.0
H434 H 0.28239 0.41644 0.12238 0.0
Co435 Co 0.30467 0.51512 0.15194 0.0
C436 C 0.28462 0.63237 0.15984 0.0
O437 O 0.30348 0.63774 0.17624 0.0
N438 N 0.31294 0.52757 0.18203 0.0
C439 C 0.33545 0.53254 0.21437 0.0
C440 C 0.34 0.52758 0.19228 0.0
C441 C 0.29232 0.53193 0.19837 0.0
N442 N 0.30531 0.53498 0.21836 0.0
O443 O 0.26889 0.47463 0.15989 0.0
H444 H 0.36176 0.52278 0.18435 0.0
H445 H 0.26812 0.53147 0.19552 0.0
O446 O 0.28291 0.58644 0.14956 0.0
C447 C 0.28023 0.42766 0.16514 0.0
O448 O 0.30996 0.42304 0.16577 0.0
N449 N 0.34235 0.54403 0.14384 0.0
C450 C 0.4042 0.55182 0.13451 0.0
C451 C 0.38743 0.59898 0.14058 0.0
C452 C 0.35616 0.59437 0.14491 0.0
C453 C 0.35817 0.49895 0.13702 0.0
C454 C 0.38858 0.50219 0.13167 0.0
H455 H 0.34387 0.63062 0.14977 0.0
H456 H 0.34708 0.45929 0.13609 0.0
H457 H 0.30858 0.57753 0.1061 0.0
H458 H 0.27994 0.426 0.07993 0.0
H459 H 0.35326 0.53348 0.22646 0.0
H460 H 0.39844 0.63845 0.14283 0.0
H461 H 0.39989 0.46517 0.12605 0.0
C462 C 0.66257 0.46667 0.93164 0.0
C463 C 0.66281 0.46731 0.95403 0.0
N464 N 0.68065 0.50919 0.96066 0.0
N465 N 0.68022 0.50784 0.92408 0.0
C466 C 0.69101 0.53293 0.94214 0.0
H467 H 0.6495 0.43906 0.92151 0.0
Co468 Co 0.68506 0.5258 0.8946 0.0
C469 C 0.69872 0.64713 0.89877 0.0
O470 O 0.67271 0.65953 0.88962 0.0
N471 N 0.69048 0.54479 0.86442 0.0
C472 C 0.68576 0.58514 0.83191 0.0
C473 C 0.67402 0.58112 0.85248 0.0
C474 C 0.71238 0.52769 0.85038 0.0
N475 N 0.70994 0.55146 0.83049 0.0
O476 O 0.72241 0.48454 0.89446 0.0
H477 H 0.65456 0.60405 0.85816 0.0
H478 H 0.72993 0.49842 0.85458 0.0
O479 O 0.70576 0.59636 0.90212 0.0
C480 C 0.71222 0.43614 0.89016 0.0
O481 O 0.68321 0.43117 0.88564 0.0
N482 N 0.64564 0.55417 0.89472 0.0
C483 C 0.58231 0.55354 0.89719 0.0
C484 C 0.59953 0.58749 0.91111 0.0
C485 C 0.63144 0.58635 0.90991 0.0
C486 C 0.62906 0.52075 0.88149 0.0
C487 C 0.59777 0.52011 0.8823 0.0
H488 H 0.64463 0.60859 0.92187 0.0
H489 H 0.64033 0.49169 0.87089 0.0
H490 H 0.70581 0.56848 0.94176 0.0
H491 H 0.64977 0.44046 0.96456 0.0
H492 H 0.67744 0.61209 0.81918 0.0
H493 H 0.58858 0.61298 0.92327 0.0
H494 H 0.58598 0.49081 0.87205 0.0
C495 C 0.345 0.56279 0.92952 0.0
C496 C 0.34383 0.5673 0.95187 0.0
N497 N 0.31591 0.55222 0.95863 0.0
N498 N 0.31813 0.54392 0.92212 0.0
C499 C 0.30065 0.53964 0.94015 0.0
H500 H 0.36447 0.57159 0.91936 0.0
Co501 Co 0.30698 0.52884 0.89299 0.0
C502 C 0.28458 0.4217 0.91573 0.0
O503 O 0.30134 0.42366 0.93338 0.0
N504 N 0.29507 0.51314 0.86392 0.0
C505 C 0.28493 0.46332 0.83437 0.0
C506 C 0.29565 0.46182 0.85532 0.0
C507 C 0.28417 0.54546 0.8476 0.0
N508 N 0.27786 0.51579 0.8295 0.0
O509 O 0.27158 0.57289 0.89688 0.0
H510 H 0.30331 0.42526 0.86382 0.0
H511 H 0.28047 0.58945 0.849 0.0
O512 O 0.28619 0.46008 0.90142 0.0
C513 C 0.28278 0.62111 0.89402 0.0
O514 O 0.3117 0.62509 0.88891 0.0
N515 N 0.34427 0.49412 0.88811 0.0
C516 C 0.40688 0.4839 0.88388 0.0
C517 C 0.39111 0.45178 0.89918 0.0
C518 C 0.35945 0.4571 0.90091 0.0
C519 C 0.35937 0.52348 0.87259 0.0
C520 C 0.39044 0.51832 0.86995 0.0
H521 H 0.348 0.43559 0.91378 0.0
H522 H 0.34768 0.55495 0.86335 0.0
H523 H 0.27719 0.52654 0.93968 0.0
H524 H 0.36255 0.57878 0.96231 0.0
H525 H 0.28236 0.4285 0.8235 0.0
H526 H 0.40324 0.42507 0.91034 0.0
H527 H 0.40179 0.54477 0.85828 0.0
H528 H 0.25646 0.03987 0.23028 0.0
H529 H 0.17454 0.98188 0.26103 0.0
H530 H 0.19845 0.98914 0.29678 0.0
H531 H 0.24385 1.00746 0.31948 0.0
H532 H 0.32618 0.0623 0.28844 0.0
H533 H 0.3011 0.06136 0.25299 0.0
C534 C 0.24374 0.02953 0.24482 0.0
C535 C 0.21375 1.01007 0.24286 0.0
C536 C 0.25784 0.03304 0.26542 0.0
C537 C 0.19776 0.99624 0.26196 0.0
C538 C 0.21141 1.00058 0.28248 0.0
C539 C 0.25609 0.01988 0.30498 0.0
C540 C 0.28692 0.03469 0.30665 0.0
C541 C 0.2416 0.01823 0.28444 0.0
C542 C 0.30257 0.0501 0.28761 0.0
C543 C 0.28821 0.04969 0.2673 0.0
H544 H 0.8075 0.05986 0.25956 0.0
H545 H 0.72886 0.06355 0.21771 0.0
H546 H 0.6956 0.06135 0.24947 0.0
H547 H 0.68874 0.06002 0.28917 0.0
H548 H 0.76733 0.0586 0.33107 0.0
H549 H 0.80062 0.05814 0.29929 0.0
C550 C 0.7831 0.06063 0.25735 0.0
C551 C 0.77082 0.06204 0.23616 0.0
C552 C 0.76404 0.05967 0.27574 0.0
C553 C 0.73906 0.06188 0.23372 0.0
C554 C 0.71997 0.06097 0.25192 0.0
C555 C 0.71313 0.06005 0.2914 0.0
C556 C 0.72539 0.05954 0.3126 0.0
C557 C 0.7322 0.06013 0.27301 0.0
C558 C 0.75715 0.05842 0.31505 0.0
C559 C 0.77625 0.05851 0.29684 0.0
H560 H 0.30695 0.04897 0.76214 0.0
H561 H 0.22823 0.02645 0.72135 0.0
H562 H 0.19597 0.02059 0.75363 0.0
H563 H 0.1897 0.02516 0.79343 0.0
H564 H 0.26817 0.04888 0.83431 0.0
H565 H 0.30085 0.05074 0.80209 0.0
C566 C 0.28272 0.04304 0.76025 0.0
C567 C 0.27015 0.03857 0.73914 0.0
C568 C 0.26419 0.03995 0.77897 0.0
C569 C 0.23871 0.02965 0.73722 0.0
C570 C 0.22017 0.02663 0.75574 0.0
C571 C 0.21392 0.03106 0.79535 0.0
C572 C 0.2263 0.03739 0.81643 0.0
C573 C 0.23259 0.03229 0.77669 0.0
C574 C 0.25792 0.04361 0.81844 0.0
C575 C 0.27663 0.045 0.79995 0.0
H576 H 0.75632 1.01278 0.72995 0.0
H577 H 0.66951 0.03364 0.7613 0.0
H578 H 0.6942 0.03821 0.7968 0.0
H579 H 0.74035 0.03101 0.81932 0.0
H580 H 0.82708 1.00848 0.78805 0.0
H581 H 0.80276 1.01021 0.75235 0.0
C582 C 0.7429 0.01906 0.74453 0.0
C583 C 0.71109 0.02235 0.74294 0.0
C584 C 0.75727 0.02105 0.76501 0.0
C585 C 0.69399 0.03 0.76206 0.0
C586 C 0.7081 0.03287 0.7824 0.0
C587 C 0.75393 0.02731 0.80468 0.0
C588 C 0.78546 0.01923 0.8064 0.0
C589 C 0.7397 0.02763 0.78413 0.0
C590 C 0.80271 1.0139 0.78722 0.0
C591 C 0.78883 0.01506 0.76677 0.0
H592 H 0.24775 0.55889 0.7314 0.0
H593 H 0.1642 0.48175 0.75164 0.0
H594 H 0.18088 0.48296 0.7894 0.0
H595 H 0.22161 0.49537 0.81621 0.0
H596 H 0.30535 0.57196 0.79713 0.0
H597 H 0.28641 0.58253 0.75964 0.0
C598 C 0.23302 0.54353 0.74417 0.0
C599 C 0.20499 0.51922 0.7386 0.0
C600 C 0.24292 0.54402 0.76609 0.0
C601 C 0.18615 0.49944 0.75538 0.0
C602 C 0.19562 0.50025 0.77703 0.0
C603 C 0.23521 0.51583 0.8039 0.0
C604 C 0.26457 0.53345 0.80928 0.0
C605 C 0.22429 0.52083 0.78249 0.0
C606 C 0.28245 0.55903 0.79329 0.0
C607 C 0.2717 0.56448 0.77186 0.0
H608 H 0.81085 0.51928 0.75921 0.0
H609 H 0.73817 0.57803 0.71809 0.0
H610 H 0.70434 0.58218 0.74942 0.0
H611 H 0.69551 0.57052 0.78842 0.0
H612 H 0.76872 0.51659 0.83006 0.0
H613 H 0.80211 0.50873 0.79851 0.0
C614 C 0.78774 0.53358 0.75707 0.0
C615 C 0.77723 0.54836 0.73618 0.0
C616 C 0.76841 0.53648 0.77525 0.0
C617 C 0.74691 0.56572 0.73381 0.0
C618 C 0.72754 0.5684 0.75178 0.0
C619 C 0.71882 0.55758 0.79074 0.0
C620 C 0.72948 0.54454 0.81176 0.0
C621 C 0.73807 0.55408 0.77257 0.0
C622 C 0.75966 0.52644 0.81416 0.0
C623 C 0.77889 0.52232 0.7961 0.0
H624 H 0.24523 0.55281 0.22667 0.0
H625 H 0.33109 0.52313 0.25869 0.0
H626 H 0.30631 0.52833 0.29391 0.0
H627 H 0.26011 0.5423 0.31619 0.0
H628 H 0.17434 0.56794 0.28373 0.0
H629 H 0.19927 0.56281 0.24852 0.0
C630 C 0.25874 0.54694 0.24118 0.0
C631 C 0.29032 0.53774 0.2395 0.0
C632 C 0.24426 0.54931 0.26165 0.0
C633 C 0.30695 0.53093 0.25898 0.0
C634 C 0.2927 0.5336 0.27936 0.0
C635 C 0.24681 0.54623 0.30144 0.0
C636 C 0.2153 0.55624 0.30287 0.0
C637 C 0.26134 0.54286 0.28095 0.0
C638 C 0.19864 0.56149 0.28338 0.0
C639 C 0.21289 0.55822 0.2631 0.0
H640 H 0.68772 0.53747 0.26064 0.0
H641 H 0.76298 0.513 0.21664 0.0
H642 H 0.79798 0.51066 0.24737 0.0
H643 H 0.80726 0.51478 0.28676 0.0
H644 H 0.73153 0.53476 0.33072 0.0
H645 H 0.69681 0.5396 0.29995 0.0
C646 C 0.7117 0.53097 0.25768 0.0
C647 C 0.7225 0.52535 0.23619 0.0
C648 C 0.73173 0.52901 0.27547 0.0
C649 C 0.75388 0.51814 0.23287 0.0
C650 C 0.77397 0.51644 0.25049 0.0
C651 C 0.78315 0.51965 0.28969 0.0
C652 C 0.77223 0.52444 0.31119 0.0
C653 C 0.76314 0.5217 0.27187 0.0
C654 C 0.74085 0.53175 0.31448 0.0
C655 C 0.72085 0.53414 0.29684 0.0
H656 H 0.18889 0.22779 0.1673 0.0
H657 H 0.27298 0.13611 0.16472 0.0
H658 H 0.30149 0.22304 0.1655 0.0
H659 H 0.30212 0.32372 0.16633 0.0
H660 H 0.21804 0.41576 0.16709 0.0
H661 H 0.18953 0.3288 0.16785 0.0
C662 C 0.21351 0.22655 0.16705 0.0
C663 C 0.2289 0.17543 0.16611 0.0
C664 C 0.22953 0.27642 0.16722 0.0
C665 C 0.2607 0.17481 0.16545 0.0
C666 C 0.2769 0.22444 0.16594 0.0
C667 C 0.27752 0.32515 0.16682 0.0
C668 C 0.26216 0.37638 0.1668 0.0
C669 C 0.26149 0.27533 0.16678 0.0
C670 C 0.23034 0.37703 0.16719 0.0
C671 C 0.21413 0.32736 0.16757 0.0
H672 H 0.68828 0.75097 0.16296 0.0
H673 H 0.77099 0.65528 0.16038 0.0
H674 H 0.80073 0.74084 0.15963 0.0
H675 H 0.80287 0.8418 0.15998 0.0
H676 H 0.72011 0.9375 0.16143 0.0
H677 H 0.69037 0.85193 0.16228 0.0
C678 C 0.71286 0.74858 0.16235 0.0
C679 C 0.7275 0.6967 0.16196 0.0
C680 C 0.72959 0.79768 0.16168 0.0
C681 C 0.75926 0.69458 0.16077 0.0
C682 C 0.77618 0.74345 0.16035 0.0
C683 C 0.77829 0.84419 0.16058 0.0
C684 C 0.76364 0.89606 0.16087 0.0
C685 C 0.76154 0.79509 0.16087 0.0
C686 C 0.73185 0.89819 0.16125 0.0
C687 C 0.71493 0.84932 0.16177 0.0
H688 H 0.19223 0.82169 0.89321 0.0
H689 H 0.27634 0.91266 0.89648 0.0
H690 H 0.30463 0.82536 0.8984 0.0
H691 H 0.30509 0.72419 0.89767 0.0
H692 H 0.22079 0.63374 0.89452 0.0
H693 H 0.19253 0.721 0.89428 0.0
C694 C 0.21681 0.8227 0.89425 0.0
C695 C 0.23231 0.87363 0.89434 0.0
C696 C 0.23265 0.77275 0.89546 0.0
C697 C 0.26401 0.87404 0.89623 0.0
C698 C 0.28008 0.82421 0.89732 0.0
C699 C 0.28049 0.72338 0.89697 0.0
C700 C 0.26497 0.67253 0.89587 0.0
C701 C 0.26459 0.77345 0.89672 0.0
C702 C 0.23317 0.67227 0.89535 0.0
C703 C 0.2171 0.72209 0.89511 0.0
H704 H 0.69146 0.3317 0.89153 0.0
H705 H 0.77462 0.42558 0.88866 0.0
H706 H 0.80376 0.33927 0.88618 0.0
H707 H 0.8051 0.23822 0.884 0.0
H708 H 0.72187 0.14455 0.88749 0.0
H709 H 0.69288 0.23079 0.89037 0.0
C710 C 0.71601 0.33358 0.89034 0.0
C711 C 0.73091 0.38521 0.8901 0.0
C712 C 0.73238 0.28408 0.88889 0.0
C713 C 0.76267 0.38656 0.8889 0.0
C714 C 0.77923 0.33724 0.88739 0.0
C715 C 0.78056 0.23638 0.88526 0.0
C716 C 0.76558 0.18479 0.88527 0.0
C717 C 0.76425 0.28591 0.88718 0.0
C718 C 0.73388 0.18351 0.8873 0.0
C719 C 0.71739 0.2328 0.88899 0.0
H720 H 0.80808 0.81539 0.90472 0.0
H721 H 0.73441 0.93252 0.90058 0.0
H722 H 0.69771 0.85682 0.90178 0.0
H723 H 0.68671 0.75721 0.90104 0.0
H724 H 0.76027 0.63997 0.90558 0.0
H725 H 0.7968 0.71592 0.90743 0.0
C726 C 0.78398 0.82452 0.90428 0.0
C727 C 0.77409 0.8798 0.90233 0.0
C728 C 0.76298 0.78068 0.90496 0.0
C729 C 0.74274 0.89061 0.90206 0.0
C730 C 0.72172 0.84722 0.90265 0.0
C731 C 0.71072 0.74813 0.90265 0.0
C732 C 0.7207 0.69269 0.90294 0.0
C733 C 0.7316 0.79207 0.90365 0.0
C734 C 0.75189 0.682 0.90531 0.0
C735 C 0.77282 0.72552 0.90625 0.0
H736 H 0.28622 0.32134 0.93632 0.0
H737 H 0.2406 0.41024 0.88486 0.0
H738 H 0.21092 0.32836 0.87616 0.0
H739 H 0.19848 0.23162 0.88251 0.0
H740 H 0.24457 0.14021 0.93299 0.0
H741 H 0.2736 0.22299 0.94266 0.0
C742 C 0.26962 0.32294 0.92331 0.0
C743 C 0.26562 0.37219 0.91133 0.0
C744 C 0.25284 0.27518 0.91813 0.0
C745 C 0.24421 0.37314 0.89437 0.0
C746 C 0.22721 0.32623 0.88936 0.0
C747 C 0.21479 0.22957 0.89571 0.0
C748 C 0.21924 0.17958 0.90704 0.0
C749 C 0.23146 0.27703 0.90103 0.0
C750 C 0.2407 0.17797 0.92396 0.0
C751 C 0.25725 0.22538 0.92951 0.0
H752 H 0.68646 0.32954 0.15322 0.0
H753 H 0.76182 0.442 0.14746 0.0
H754 H 0.79693 0.36384 0.14432 0.0
H755 H 0.8065 0.26352 0.14641 0.0
H756 H 0.73092 0.15105 0.1504 0.0
H757 H 0.69551 0.22913 0.15076 0.0
C758 C 0.71056 0.33692 0.15104 0.0
C759 C 0.72159 0.39153 0.15084 0.0
C760 C 0.73052 0.29176 0.149 0.0
C761 C 0.75277 0.40046 0.14766 0.0
C762 C 0.77285 0.35573 0.14598 0.0
C763 C 0.78224 0.2561 0.14707 0.0
C764 C 0.77135 0.20151 0.14859 0.0
C765 C 0.76204 0.30122 0.1471 0.0
C766 C 0.73987 0.19254 0.14916 0.0
C767 C 0.71964 0.23724 0.14951 0.0
H768 H 0.18764 0.81271 0.13316 0.0
H769 H 0.25646 0.92067 0.15911 0.0
H770 H 0.29011 0.84152 0.16487 0.0
H771 H 0.29809 0.74076 0.1656 0.0
H772 H 0.23001 0.63302 0.13856 0.0
H773 H 0.19793 0.71295 0.13015 0.0
C774 C 0.21021 0.81906 0.13975 0.0
C775 C 0.21943 0.87262 0.14582 0.0
C776 C 0.22938 0.77328 0.1431 0.0
C777 C 0.24883 0.8801 0.15417 0.0
C778 C 0.26798 0.83472 0.15766 0.0
C779 C 0.27627 0.73477 0.15777 0.0
C780 C 0.26621 0.68086 0.15304 0.0
C781 C 0.25818 0.78099 0.15272 0.0
C782 C 0.2382 0.67395 0.14249 0.0
C783 C 0.21985 0.71966 0.13771 0.0
H784 H 0.19198 0.73325 0.65848 0.0
H785 H 0.27597 0.64105 0.65812 0.0
H786 H 0.30459 0.72792 0.6585 0.0
H787 H 0.30536 0.82894 0.65933 0.0
H788 H 0.22135 0.92109 0.6589 0.0
H789 H 0.19275 0.83422 0.65836 0.0
C790 C 0.2166 0.73185 0.65859 0.0
C791 C 0.2319 0.68055 0.65851 0.0
C792 C 0.23269 0.78167 0.65863 0.0
C793 C 0.26372 0.67982 0.65827 0.0
C794 C 0.28 0.72945 0.6585 0.0
C795 C 0.28075 0.8303 0.6592 0.0
C796 C 0.26542 0.88158 0.65936 0.0
C797 C 0.26466 0.78047 0.65876 0.0
C798 C 0.23361 0.88232 0.65883 0.0
C799 C 0.21735 0.83269 0.65856 0.0
H800 H 0.80595 0.32724 0.66279 0.0
H801 H 0.72169 0.41859 0.66177 0.0
H802 H 0.6934 0.33127 0.66256 0.0
H803 H 0.69293 0.23014 0.66386 0.0
H804 H 0.77714 0.13862 0.6639 0.0
H805 H 0.80546 0.22595 0.66312 0.0
C806 C 0.78134 0.32844 0.66283 0.0
C807 C 0.76592 0.37983 0.66245 0.0
C808 C 0.76541 0.27824 0.6631 0.0
C809 C 0.73409 0.37999 0.66214 0.0
C810 C 0.718 0.33002 0.66261 0.0
C811 C 0.71754 0.22889 0.66381 0.0
C812 C 0.73294 0.17749 0.66419 0.0
C813 C 0.73347 0.27905 0.66318 0.0
C814 C 0.76475 0.17725 0.66371 0.0
C815 C 0.78087 0.22722 0.66328 0.0
H816 H 0.19371 0.34143 0.38048 0.0
H817 H 0.2768 0.43586 0.38131 0.0
H818 H 0.30626 0.34986 0.38178 0.0
H819 H 0.30806 0.24899 0.38223 0.0
H820 H 0.22501 0.15443 0.38276 0.0
H821 H 0.19551 0.24041 0.38148 0.0
C822 C 0.21831 0.34346 0.38062 0.0
C823 C 0.23312 0.39514 0.38067 0.0
C824 C 0.2349 0.29409 0.38118 0.0
C825 C 0.26492 0.39676 0.38121 0.0
C826 C 0.28169 0.34762 0.38147 0.0
C827 C 0.28347 0.24687 0.38194 0.0
C828 C 0.26868 0.19519 0.38241 0.0
C829 C 0.26686 0.29621 0.38148 0.0
C830 C 0.23687 0.19354 0.38236 0.0
C831 C 0.22009 0.24266 0.38162 0.0
H832 H 0.80851 0.74568 0.38747 0.0
H833 H 0.72615 0.6492 0.38728 0.0
H834 H 0.69601 0.73442 0.38726 0.0
H835 H 0.69338 0.8354 0.38715 0.0
H836 H 0.7757 0.93192 0.38844 0.0
H837 H 0.80586 0.84671 0.38818 0.0
C838 C 0.78393 0.74306 0.38734 0.0
C839 C 0.76953 0.69101 0.3872 0.0
C840 C 0.76692 0.79201 0.38753 0.0
C841 C 0.73773 0.6886 0.38735 0.0
C842 C 0.72056 0.7373 0.38731 0.0
C843 C 0.71795 0.83806 0.38727 0.0
C844 C 0.73234 0.89011 0.38763 0.0
C845 C 0.73496 0.78911 0.38735 0.0
C846 C 0.76413 0.89252 0.38812 0.0
C847 C 0.78131 0.84383 0.38795 0.0
H848 H 0.81083 0.32151 0.39968 0.0
H849 H 0.73579 0.43599 0.40057 0.0
H850 H 0.70002 0.35879 0.40281 0.0
H851 H 0.69006 0.25862 0.40121 0.0
H852 H 0.76517 0.14424 0.40161 0.0
H853 H 0.80097 0.22151 0.40242 0.0
C854 C 0.78664 0.32961 0.40062 0.0
C855 C 0.77597 0.38452 0.39971 0.0
C856 C 0.76626 0.285 0.40203 0.0
C857 C 0.74461 0.39428 0.40126 0.0
C858 C 0.72415 0.35007 0.40241 0.0
C859 C 0.71428 0.25057 0.40173 0.0
C860 C 0.72494 0.19562 0.40111 0.0
C861 C 0.7347 0.29526 0.40231 0.0
C862 C 0.75635 0.18597 0.40211 0.0
C863 C 0.77683 0.23021 0.40243 0.0
H864 H 0.19084 0.76258 0.39811 0.0
H865 H 0.26632 0.64967 0.39335 0.0
H866 H 0.30182 0.72744 0.39411 0.0
H867 H 0.311 0.82786 0.39301 0.0
H868 H 0.23553 0.94047 0.39902 0.0
H869 H 0.20037 0.86243 0.40105 0.0
C870 C 0.21509 0.75493 0.39747 0.0
C871 C 0.22593 0.70039 0.39542 0.0
C872 C 0.2353 0.79982 0.398 0.0
C873 C 0.2574 0.69115 0.39495 0.0
C874 C 0.27768 0.73567 0.39524 0.0
C875 C 0.28687 0.83533 0.39495 0.0
C876 C 0.27584 0.88999 0.39558 0.0
C877 C 0.26684 0.79021 0.39627 0.0
C878 C 0.24459 0.89892 0.39846 0.0
C879 C 0.22448 0.85427 0.39953 0.0
H880 H 0.73823 0.66644 0.64704 0.0
H881 H 0.82555 0.74118 0.65852 0.0
H882 H 0.80306 0.83276 0.65648 0.0
H883 H 0.75765 0.89308 0.65486 0.0
H884 H 0.67 0.81857 0.64483 0.0
H885 H 0.69326 0.72741 0.64262 0.0
C886 C 0.75237 0.70276 0.64872 0.0
C887 C 0.78358 0.69631 0.65311 0.0
C888 C 0.73911 0.75623 0.64793 0.0
C889 C 0.8014 0.74434 0.65538 0.0
C890 C 0.78856 0.79715 0.6542 0.0
C891 C 0.74377 0.85705 0.65171 0.0
C892 C 0.71204 0.86311 0.65006 0.0
C893 C 0.75729 0.80385 0.65098 0.0
C894 C 0.69446 0.81545 0.6463 0.0
C895 C 0.70775 0.76296 0.64507 0.0
H896 H 0.19099 0.31336 0.63025 0.0
H897 H 0.26147 0.42856 0.6479 0.0
H898 H 0.29733 0.35218 0.65221 0.0
H899 H 0.30767 0.25243 0.65356 0.0
H900 H 0.2372 0.13714 0.63604 0.0
H901 H 0.20238 0.21395 0.62905 0.0
C902 C 0.21427 0.32199 0.63484 0.0
C903 C 0.22336 0.37691 0.6389 0.0
C904 C 0.23472 0.27775 0.6375 0.0
C905 C 0.25374 0.38696 0.64465 0.0
C906 C 0.27425 0.34318 0.64724 0.0
C907 C 0.28474 0.24394 0.6481 0.0
C908 C 0.27502 0.18879 0.64558 0.0
C909 C 0.26483 0.28835 0.64414 0.0
C910 C 0.24531 0.17894 0.63822 0.0
C911 C 0.22536 0.22293 0.63425 0.0
H912 H 0.95389 0.13766 0.14024 0.0
H913 H 0.93136 0.97779 0.1145 0.0
H914 H 0.98521 0.95361 0.11223 0.0
H915 H 0.0378 0.97237 0.12367 0.0
H916 H 0.05995 0.13201 0.15023 0.0
H917 H 0.00746 0.1619 0.14607 0.0
C918 C 0.96098 0.09848 0.13337 0.0
C919 C 0.93902 0.05953 0.12753 0.0
C920 C 0.99188 0.08422 0.13285 0.0
C921 C 0.94816 1.00838 0.11897 0.0
C922 C 0.97886 0.99435 0.1179 0.0
C923 C 0.03122 1.01402 0.12809 0.0
C924 C 0.05247 0.04922 0.13789 0.0
C925 C 0.00085 0.03099 0.12576 0.0
C926 C 0.04372 0.10338 0.14335 0.0
C927 C 0.01375 0.12073 0.14085 0.0
H928 H 0.04306 0.11616 0.91917 0.0
H929 H 0.06003 0.94308 0.92978 0.0
H930 H 0.0056 0.92538 0.93241 0.0
H931 H 0.95342 0.95671 0.92506 0.0
H932 H 0.9365 0.12982 0.91415 0.0
H933 H 0.99036 0.15004 0.91855 0.0
C934 C 0.03477 0.075 0.92275 0.0
C935 C 0.05529 0.03086 0.92384 0.0
C936 C 0.0034 0.06491 0.92377 0.0
C937 C 0.04443 0.97755 0.92851 0.0
C938 C 0.01335 0.96735 0.92994 0.0
C939 C 0.96146 0.99894 0.92426 0.0
C940 C 0.94126 0.0414 0.91866 0.0
C941 C 0.99258 1.01028 0.92656 0.0
C942 C 0.95188 0.09614 0.91782 0.0
C943 C 0.98265 0.10783 0.92038 0.0
H944 H 0.95308 0.62971 0.63881 0.0
H945 H 0.93471 0.47467 0.60733 0.0
H946 H 0.98908 0.45588 0.60429 0.0
H947 H 0.04104 0.47621 0.6166 0.0
H948 H 0.05926 0.63163 0.64818 0.0
H949 H 0.00602 0.65748 0.64522 0.0
C950 C 0.96113 0.59294 0.63055 0.0
C951 C 0.94018 0.55346 0.62344 0.0
C952 C 0.99238 0.58164 0.62948 0.0
C953 C 0.95066 0.50554 0.61294 0.0
C954 C 0.98169 0.49453 0.61141 0.0
C955 C 0.03348 0.51619 0.62239 0.0
C956 C 0.05389 0.55093 0.63331 0.0
C957 C 0.0027 0.53104 0.62059 0.0
C958 C 0.04376 0.603 0.64049 0.0
C959 C 0.01333 0.61816 0.63865 0.0
H960 H 0.94845 0.60037 0.4156 0.0
H961 H 0.95222 0.42259 0.41378 0.0
H962 H 0.00761 0.42579 0.41719 0.0
H963 H 0.05477 0.47947 0.41515 0.0
H964 H 0.05096 0.65731 0.41399 0.0
H965 H 0.99562 0.65397 0.41768 0.0
C966 C 0.96143 0.56231 0.41616 0.0
C967 C 0.94645 0.5113 0.41395 0.0
C968 C 0.99315 0.56463 0.41744 0.0
C969 C 0.9633 0.46226 0.41534 0.0
C970 C 0.99493 0.46416 0.41713 0.0
C971 C 0.0418 0.51751 0.41592 0.0
C972 C 0.05676 0.5686 0.41382 0.0
C973 C 0.01009 0.51514 0.41731 0.0
C974 C 0.03991 0.61758 0.41548 0.0
C975 C 0.0083 0.61562 0.41741 0.0
H976 H 0.45488 0.11338 0.62907 0.0
H977 H 0.43519 0.94003 0.63609 0.0
H978 H 0.48877 0.91746 0.63162 0.0
H979 H 0.54198 0.94829 0.63195 0.0
H980 H 0.56179 0.12148 0.62506 0.0
H981 H 0.50768 0.14265 0.62265 0.0
C982 C 0.46227 0.07067 0.62906 0.0
C983 C 0.44132 0.02866 0.63358 0.0
C984 C 0.49326 0.05789 0.62667 0.0
C985 C 0.45113 0.97332 0.63331 0.0
C986 C 0.48175 0.96028 0.63069 0.0
C987 C 0.5344 0.99033 0.6292 0.0
C988 C 0.55564 0.03332 0.62911 0.0
C989 C 0.50319 1.00238 0.62831 0.0
C990 C 0.54565 0.08779 0.62554 0.0
C991 C 0.51474 0.09998 0.62425 0.0
H992 H 0.44754 0.10167 0.42411 0.0
H993 H 0.44877 0.92495 0.41568 0.0
H994 H 0.50417 0.92493 0.41873 0.0
H995 H 0.552 0.97666 0.41794 0.0
H996 H 0.55057 0.15444 0.42192 0.0
H997 H 0.49544 0.15262 0.4267 0.0
C998 C 0.45993 0.06305 0.42309 0.0
C999 C 0.44415 1.01349 0.41913 0.0
C1000 C 0.49171 0.06374 0.42381 0.0
C1001 C 0.46036 0.96361 0.41862 0.0
C1002 C 0.49205 0.9637 0.42014 0.0
C1003 C 0.53964 0.01506 0.41992 0.0
C1004 C 0.55527 0.06577 0.41901 0.0
C1005 C 0.50793 1.01377 0.42177 0.0
C1006 C 0.5391 0.11496 0.42243 0.0
C1007 C 0.50756 0.11391 0.425 0.0
H1008 H 0.54569 0.58805 0.12398 0.0
H1009 H 0.54677 0.42147 0.14873 0.0
H1010 H 0.49119 0.41999 0.14872 0.0
H1011 H 0.44332 0.46939 0.14551 0.0
H1012 H 0.44137 0.635 0.11934 0.0
H1013 H 0.49682 0.63453 0.11711 0.0
C1014 C 0.53365 0.55118 0.12905 0.0
C1015 C 0.5501 0.50498 0.13649 0.0
C1016 C 0.50184 0.55108 0.12933 0.0
C1017 C 0.5345 0.45724 0.14282 0.0
C1018 C 0.5028 0.4567 0.14305 0.0
C1019 C 0.45471 0.50504 0.13868 0.0
C1020 C 0.43791 0.55213 0.13246 0.0
C1021 C 0.48635 0.50389 0.13688 0.0
C1022 C 0.45356 0.59846 0.12451 0.0
C1023 C 0.48527 0.598 0.12303 0.0
H1024 H 0.44438 0.50288 0.91826 0.0
H1025 H 0.44387 0.47738 0.84876 0.0
H1026 H 0.49713 0.50415 0.84668 0.0
H1027 H 0.54264 0.53854 0.86407 0.0
H1028 H 0.54626 0.55508 0.93397 0.0
H1029 H 0.49229 0.53143 0.93632 0.0
C1030 C 0.45625 0.5018 0.90279 0.0
C1031 C 0.44035 0.48802 0.88368 0.0
C1032 C 0.48694 0.51757 0.90169 0.0
C1033 C 0.45572 0.48778 0.86365 0.0
C1034 C 0.48603 0.50358 0.86243 0.0
C1035 C 0.53188 0.5363 0.87993 0.0
C1036 C 0.54873 0.54796 0.89882 0.0
C1037 C 0.50163 0.5194 0.88126 0.0
C1038 C 0.53389 0.54691 0.9191 0.0
C1039 C 0.50314 0.53242 0.92049 0.0
H1040 H 0.18902 0.08045 0.98821 0.0
H1041 H 0.19471 0.90469 0.99827 0.0
H1042 H 0.19659 0.91815 0.03753 0.0
H1043 H 0.19274 0.97938 0.06949 0.0
H1044 H 0.18765 0.15527 0.05958 0.0
H1045 H 0.18964 0.1423 1.02026 0.0
C1046 C 0.19119 0.04522 0.99897 0.0
C1047 C 0.19126 0.99158 0.99014 0.0
C1048 C 0.1921 0.0532 1.02178 0.0
C1049 C 0.19394 0.94641 1.00449 0.0
C1050 C 0.19514 0.95405 0.02705 0.0
C1051 C 0.1926 0.01491 0.05877 0.0
C1052 C 0.18962 0.0682 0.06767 0.0
C1053 C 0.19362 1.00718 0.03596 0.0
C1054 C 0.1893 0.11366 0.05332 0.0
C1055 C 0.19055 0.10632 0.03073 0.0
H1056 H 0.80269 0.13456 0.99478 0.0
H1057 H 0.80134 0.96491 0.97354 0.0
H1058 H 0.79903 0.93398 1.01126 0.0
H1059 H 0.80057 0.95464 0.05037 0.0
H1060 H 0.80401 0.12397 0.07177 0.0
H1061 H 0.80212 0.15535 0.034 0.0
C1062 C 0.80191 0.09082 0.99837 0.0
C1063 C 0.80237 0.05226 0.9812 0.0
C1064 C 0.80103 0.07316 1.0202 0.0
C1065 C 0.80073 0.9957 0.98627 0.0
C1066 C 0.79964 0.97788 1.00791 0.0
C1067 C 0.80096 0.99842 0.04681 0.0
C1068 C 0.80268 0.03677 0.06399 0.0
C1069 C 0.80029 0.01618 0.02501 0.0
C1070 C 0.80246 0.09343 0.05899 0.0
C1071 C 0.80161 0.11143 0.03734 0.0
H1072 H 0.19045 0.63306 0.54802 0.0
H1073 H 0.19914 0.46415 0.56946 0.0
H1074 H 0.20262 0.43355 0.53176 0.0
H1075 H 0.20036 0.45381 0.49256 0.0
H1076 H 0.19005 0.62218 0.47093 0.0
H1077 H 0.19024 0.65373 0.50869 0.0
C1078 C 0.19308 0.58953 0.54449 0.0
C1079 C 0.19438 0.5511 0.56176 0.0
C1080 C 0.19473 0.57199 0.52263 0.0
C1081 C 0.19837 0.49492 0.55671 0.0
C1082 C 0.20014 0.47725 0.53506 0.0
C1083 C 0.19811 0.49743 0.49606 0.0
C1084 C 0.19499 0.5354 0.47877 0.0
C1085 C 0.1979 0.51528 0.51788 0.0
C1086 C 0.19275 0.59192 0.48375 0.0
C1087 C 0.19262 0.61 0.50541 0.0
H1088 H 0.81424 0.63164 0.49604 0.0
H1089 H 0.7961 0.46633 0.47344 0.0
H1090 H 0.78924 0.43535 0.51082 0.0
H1091 H 0.79178 0.45343 0.54998 0.0
H1092 H 0.81289 0.61715 0.57289 0.0
H1093 H 0.81488 0.65053 0.53538 0.0
C1094 C 0.80887 0.5888 0.49925 0.0
C1095 C 0.80595 0.55143 0.48179 0.0
C1096 C 0.8055 0.57089 0.52089 0.0
C1097 C 0.79826 0.49629 0.48637 0.0
C1098 C 0.79454 0.47836 0.50782 0.0
C1099 C 0.7969 0.49641 0.54681 0.0
C1100 C 0.80251 0.53248 0.56431 0.0
C1101 C 0.79864 0.51505 0.5252 0.0
C1102 C 0.8083 0.58842 0.55984 0.0
C1103 C 0.80968 0.60747 0.53834 0.0
H1104 H 0.70114 0.12131 0.55397 0.0
H1105 H 0.69176 0.95214 0.57486 0.0
H1106 H 0.69229 0.92171 0.537 0.0
H1107 H 0.69198 0.94361 0.4979 0.0
H1108 H 0.69871 0.11332 0.47711 0.0
H1109 H 0.7028 0.14288 0.51492 0.0
C1110 C 0.69914 0.07776 0.55029 0.0
C1111 C 0.69613 0.03924 0.56738 0.0
C1112 C 0.6989 0.0606 0.52843 0.0
C1113 C 0.69432 0.98282 0.56219 0.0
C1114 C 0.69438 0.96537 0.54047 0.0
C1115 C 0.69426 0.9871 0.50159 0.0
C1116 C 0.69476 0.0261 0.48452 0.0
C1117 C 0.69609 1.00398 0.52346 0.0
C1118 C 0.69847 0.0822 0.48974 0.0
C1119 C 0.70059 0.09924 0.51144 0.0
H1120 H 0.29797 0.12692 0.4972 0.0
H1121 H 0.31427 0.96176 0.47375 0.0
H1122 H 0.31502 0.92744 0.51112 0.0
H1123 H 0.31355 0.94482 0.55064 0.0
H1124 H 0.29916 0.11069 0.574 0.0
H1125 H 0.29509 0.14387 0.53663 0.0
C1126 C 0.30181 0.08342 0.50019 0.0
C1127 C 0.30625 0.04723 0.48245 0.0
C1128 C 0.30261 0.06395 0.52183 0.0
C1129 C 0.31051 0.99073 0.48686 0.0
C1130 C 0.31117 0.97105 0.50833 0.0
C1131 C 0.30963 0.98828 0.54763 0.0
C1132 C 0.30685 0.02505 0.56537 0.0
C1133 C 0.30766 1.00737 0.52596 0.0
C1134 C 0.30113 0.0811 0.56091 0.0
C1135 C 0.29901 0.10028 0.53944 0.0
H1136 H 0.6935 0.62815 0.05094 0.0
H1137 H 0.67679 0.46279 0.07403 0.0
H1138 H 0.67636 0.42896 0.03661 0.0
H1139 H 0.67804 0.44717 0.9972 0.0
H1140 H 0.69293 0.61327 0.97424 0.0
H1141 H 0.69686 0.64582 1.01166 0.0
C1142 C 0.68965 0.58473 0.04782 0.0
C1143 C 0.68496 0.54824 0.06537 0.0
C1144 C 0.68907 0.56565 0.02622 0.0
C1145 C 0.68071 0.49184 0.06095 0.0
C1146 C 0.68024 0.47249 0.0395 0.0
C1147 C 0.68207 0.49051 1.00036 0.0
C1148 C 0.68502 0.52765 0.98281 0.0
C1149 C 0.68396 0.50915 1.022 0.0
C1150 C 0.69086 0.58354 0.9873 0.0
C1151 C 0.69289 0.60232 1.00875 0.0
H1152 H 0.33854 0.60059 0.99506 0.0
H1153 H 0.27057 0.48537 0.97286 0.0
H1154 H 0.25612 0.46624 1.01027 0.0
H1155 H 0.26473 0.47715 0.04939 0.0
H1156 H 0.33414 0.58836 0.07212 0.0
H1157 H 0.34577 0.61438 0.03456 0.0
C1158 C 0.32059 0.57126 0.99835 0.0
C1159 C 0.30586 0.54444 0.9809 0.0
C1160 C 0.31261 0.55956 1.02011 0.0
C1161 C 0.28222 0.50729 0.98569 0.0
C1162 C 0.27402 0.4959 1.0072 0.0
C1163 C 0.28245 0.50704 0.04618 0.0
C1164 C 0.29872 0.53023 0.06367 0.0
C1165 C 0.28938 0.52105 0.02453 0.0
C1166 C 0.32109 0.56999 0.0591 0.0
C1167 C 0.32793 0.58457 0.03756 0.0
loop_
_geom_bond_atom_site_label_1
_geom_bond_atom_site_label_2
_geom_bond_distance
_geom_bond_site_symmetry_2
_ccdc_geom_bond_type
C0 C1 1.351 . S
C0 N3 1.368 . S
C0 H5 0.931 . S
C1 C0 1.351 . S
C1 N2 1.373 . S
C1 H29 0.930 . S
N2 C1 1.373 . S
N2 C4 1.340 . S
N3 C0 1.368 . S
N3 C4 1.321 . S
N3 Co6 2.135 . S
C4 N2 1.340 . S
C4 N3 1.321 . S
C4 H28 0.930 1_545 S
H5 C0 0.931 . S
Co6 N3 2.135 . S
Co6 N9 2.121 . S
Co6 O14 2.055 . S
Co6 O17 2.039 1_545 S
Co6 N20 2.140 . S
C7 O8 1.227 . S
C7 O17 1.265 . S
O8 C7 1.227 . S
N9 Co6 2.121 . S
N9 C11 1.375 1_545 S
N9 C12 1.313 . S
C10 C11 1.338 . S
C10 N13 1.377 1_565 S
C10 H30 0.930 . S
C11 N9 1.375 1_565 S
C11 C10 1.338 . S
C11 H15 0.931 . S
C12 N9 1.313 . S
C12 N13 1.344 . S
C12 H16 0.930 . S
N13 C10 1.377 1_545 S
N13 C12 1.344 . S
O14 Co6 2.055 . S
O14 C18 1.253 . S
H15 C11 0.931 . S
H16 C12 0.930 . S
O17 Co6 2.039 1_565 S
O17 C7 1.265 . S
C18 O14 1.253 . S
C18 O19 1.227 . S
O19 C18 1.227 . S
N20 Co6 2.140 . S
N20 C23 1.346 . S
N20 C24 1.345 . S
C21 C22 1.387 1_545 S
C21 C25 1.391 . S
C22 C21 1.387 1_565 S
C22 C23 1.369 1_565 S
C22 H31 0.929 . S
C23 N20 1.346 . S
C23 C22 1.369 1_545 S
C23 H26 0.928 1_545 S
C24 N20 1.345 . S
C24 C25 1.371 . S
C24 H27 0.931 . S
C25 C21 1.391 . S
C25 C24 1.371 . S
C25 H32 0.930 . S
H26 C23 0.928 1_565 S
H27 C24 0.931 . S
H28 C4 0.930 1_565 S
H29 C1 0.930 . S
H30 C10 0.930 . S
H31 C22 0.929 . S
H32 C25 0.930 . S
C33 C34 1.351 . S
C33 N36 1.368 . S
C33 H38 0.931 . S
C34 C33 1.351 . S
C34 N35 1.373 1_565 S
C34 H62 0.930 . S
N35 C34 1.373 1_545 S
N35 C37 1.340 . S
N36 C33 1.368 . S
N36 C37 1.321 1_565 S
N36 Co39 2.135 1_565 S
C37 N35 1.340 . S
C37 N36 1.321 1_545 S
C37 H61 0.930 . S
H38 C33 0.931 . S
Co39 N36 2.135 1_545 S
Co39 N42 2.121 . S
Co39 O47 2.055 1_545 S
Co39 O50 2.039 . S
Co39 N53 2.140 . S
C40 O41 1.227 . S
C40 O50 1.265 . S
O41 C40 1.227 . S
N42 Co39 2.121 . S
N42 C44 1.375 . S
N42 C45 1.313 1_545 S
C43 C44 1.338 . S
C43 N46 1.377 . S
C43 H63 0.930 . S
C44 N42 1.375 . S
C44 C43 1.338 . S
C44 H48 0.931 . S
C45 N42 1.313 1_565 S
C45 N46 1.344 1_565 S
C45 H49 0.930 . S
N46 C43 1.377 . S
N46 C45 1.344 1_545 S
O47 Co39 2.055 1_565 S
O47 C51 1.253 . S
H48 C44 0.931 . S
H49 C45 0.930 . S
O50 Co39 2.039 . S
O50 C40 1.265 . S
C51 O47 1.253 . S
C51 O52 1.227 . S
O52 C51 1.227 . S
N53 Co39 2.140 . S
N53 C56 1.346 . S
N53 C57 1.345 1_545 S
C54 C55 1.387 . S
C54 C58 1.391 1_545 S
C55 C54 1.387 . S
C55 C56 1.369 . S
C55 H64 0.929 . S
C56 N53 1.346 . S
C56 C55 1.369 . S
C56 H59 0.928 . S
C57 N53 1.345 1_565 S
C57 C58 1.371 . S
C57 H60 0.931 . S
C58 C54 1.391 1_565 S
C58 C57 1.371 . S
C58 H65 0.930 . S
H59 C56 0.928 . S
H60 C57 0.931 . S
H61 C37 0.930 . S
H62 C34 0.930 . S
H63 C43 0.930 . S
H64 C55 0.929 . S
H65 C58 0.930 . S
C66 C67 1.351 . S
C66 N69 1.368 . S
C66 H71 0.931 . S
C67 C66 1.351 . S
C67 N68 1.373 1_565 S
C67 H95 0.930 . S
N68 C67 1.373 1_545 S
N68 C70 1.340 . S
N69 C66 1.368 . S
N69 C70 1.321 1_565 S
N69 Co72 2.135 1_565 S
C70 N68 1.340 . S
C70 N69 1.321 1_545 S
C70 H94 0.930 . S
H71 C66 0.931 . S
Co72 N69 2.135 1_545 S
Co72 N75 2.121 . S
Co72 O80 2.055 1_545 S
Co72 O83 2.039 . S
Co72 N86 2.140 . S
C73 O74 1.227 . S
C73 O83 1.265 . S
O74 C73 1.227 . S
N75 Co72 2.121 . S
N75 C77 1.375 . S
N75 C78 1.313 1_545 S
C76 C77 1.338 . S
C76 N79 1.377 . S
C76 H96 0.930 . S
C77 N75 1.375 . S
C77 C76 1.338 . S
C77 H81 0.931 . S
C78 N75 1.313 1_565 S
C78 N79 1.344 1_565 S
C78 H82 0.930 . S
N79 C76 1.377 . S
N79 C78 1.344 1_545 S
O80 Co72 2.055 1_565 S
O80 C84 1.253 . S
H81 C77 0.931 . S
H82 C78 0.930 . S
O83 Co72 2.039 . S
O83 C73 1.265 . S
C84 O80 1.253 . S
C84 O85 1.227 . S
O85 C84 1.227 . S
N86 Co72 2.140 . S
N86 C89 1.346 . S
N86 C90 1.345 1_545 S
C87 C88 1.387 . S
C87 C91 1.391 1_545 S
C88 C87 1.387 . S
C88 C89 1.369 . S
C88 H97 0.929 . S
C89 N86 1.346 . S
C89 C88 1.369 . S
C89 H92 0.928 . S
C90 N86 1.345 1_565 S
C90 C91 1.371 . S
C90 H93 0.931 . S
C91 C87 1.391 1_565 S
C91 C90 1.371 . S
C91 H98 0.930 . S
H92 C89 0.928 . S
H93 C90 0.931 . S
H94 C70 0.930 . S
H95 C67 0.930 . S
H96 C76 0.930 . S
H97 C88 0.929 . S
H98 C91 0.930 . S
C99 C100 1.351 . S
C99 N102 1.368 . S
C99 H104 0.931 . S
C100 C99 1.351 . S
C100 N101 1.373 . S
C100 H128 0.930 . S
N101 C100 1.373 . S
N101 C103 1.340 . S
N102 C99 1.368 . S
N102 C103 1.321 . S
N102 Co105 2.135 . S
C103 N101 1.340 . S
C103 N102 1.321 . S
C103 H127 0.930 1_545 S
H104 C99 0.931 . S
Co105 N102 2.135 . S
Co105 N108 2.121 . S
Co105 O113 2.055 . S
Co105 O116 2.039 1_545 S
Co105 N119 2.140 . S
C106 O107 1.227 . S
C106 O116 1.265 . S
O107 C106 1.227 . S
N108 Co105 2.121 . S
N108 C110 1.375 1_545 S
N108 C111 1.313 . S
C109 C110 1.338 . S
C109 N112 1.377 1_565 S
C109 H129 0.930 . S
C110 N108 1.375 1_565 S
C110 C109 1.338 . S
C110 H114 0.931 . S
C111 N108 1.313 . S
C111 N112 1.344 . S
C111 H115 0.930 . S
N112 C109 1.377 1_545 S
N112 C111 1.344 . S
O113 Co105 2.055 . S
O113 C117 1.253 . S
H114 C110 0.931 . S
H115 C111 0.930 . S
O116 Co105 2.039 1_565 S
O116 C106 1.265 . S
C117 O113 1.253 . S
C117 O118 1.227 . S
O118 C117 1.227 . S
N119 Co105 2.140 . S
N119 C122 1.346 . S
N119 C123 1.345 . S
C120 C121 1.387 1_545 S
C120 C124 1.391 . S
C121 C120 1.387 1_565 S
C121 C122 1.369 1_565 S
C121 H130 0.929 . S
C122 N119 1.346 . S
C122 C121 1.369 1_545 S
C122 H125 0.928 1_545 S
C123 N119 1.345 . S
C123 C124 1.371 . S
C123 H126 0.931 . S
C124 C120 1.391 . S
C124 C123 1.371 . S
C124 H131 0.930 . S
H125 C122 0.928 1_565 S
H126 C123 0.931 . S
H127 C103 0.930 1_565 S
H128 C100 0.930 . S
H129 C109 0.930 . S
H130 C121 0.929 . S
H131 C124 0.930 . S
C132 C133 1.351 . S
C132 N135 1.368 . S
C132 H137 0.931 . S
C133 C132 1.351 . S
C133 N134 1.373 . S
C133 H161 0.930 . S
N134 C133 1.373 . S
N134 C136 1.340 . S
N135 C132 1.368 . S
N135 C136 1.321 . S
N135 Co138 2.135 . S
C136 N134 1.340 . S
C136 N135 1.321 . S
C136 H160 0.930 . S
H137 C132 0.931 . S
Co138 N135 2.135 . S
Co138 N141 2.121 . S
Co138 O146 2.055 . S
Co138 O149 2.039 . S
Co138 N152 2.140 . S
C139 O140 1.227 . S
C139 O149 1.265 . S
O140 C139 1.227 . S
N141 Co138 2.121 . S
N141 C143 1.375 . S
N141 C144 1.313 . S
C142 C143 1.338 . S
C142 N145 1.377 . S
C142 H162 0.930 . S
C143 N141 1.375 . S
C143 C142 1.338 . S
C143 H147 0.931 . S
C144 N141 1.313 . S
C144 N145 1.344 . S
C144 H148 0.930 . S
N145 C142 1.377 . S
N145 C144 1.344 . S
O146 Co138 2.055 . S
O146 C150 1.253 . S
H147 C143 0.931 . S
H148 C144 0.930 . S
O149 Co138 2.039 . S
O149 C139 1.265 . S
C150 O146 1.253 . S
C150 O151 1.227 . S
O151 C150 1.227 . S
N152 Co138 2.140 . S
N152 C155 1.346 . S
N152 C156 1.345 . S
C153 C154 1.387 . S
C153 C157 1.391 . S
C154 C153 1.387 . S
C154 C155 1.369 . S
C154 H163 0.929 . S
C155 N152 1.346 . S
C155 C154 1.369 . S
C155 H158 0.928 . S
C156 N152 1.345 . S
C156 C157 1.371 . S
C156 H159 0.931 . S
C157 C153 1.391 . S
C157 C156 1.371 . S
C157 H164 0.930 . S
H158 C155 0.928 . S
H159 C156 0.931 . S
H160 C136 0.930 . S
H161 C133 0.930 . S
H162 C142 0.930 . S
H163 C154 0.929 . S
H164 C157 0.930 . S
C165 C166 1.351 . S
C165 N168 1.368 . S
C165 H170 0.931 . S
C166 C165 1.351 . S
C166 N167 1.373 . S
C166 H194 0.930 . S
N167 C166 1.373 . S
N167 C169 1.340 . S
N168 C165 1.368 . S
N168 C169 1.321 . S
N168 Co171 2.135 . S
C169 N167 1.340 . S
C169 N168 1.321 . S
C169 H193 0.930 . S
H170 C165 0.931 . S
Co171 N168 2.135 . S
Co171 N174 2.121 . S
Co171 O179 2.055 . S
Co171 O182 2.039 . S
Co171 N185 2.140 . S
C172 O173 1.227 . S
C172 O182 1.265 . S
O173 C172 1.227 . S
N174 Co171 2.121 . S
N174 C176 1.375 . S
N174 C177 1.313 . S
C175 C176 1.338 . S
C175 N178 1.377 . S
C175 H195 0.930 . S
C176 N174 1.375 . S
C176 C175 1.338 . S
C176 H180 0.931 . S
C177 N174 1.313 . S
C177 N178 1.344 . S
C177 H181 0.930 . S
N178 C175 1.377 . S
N178 C177 1.344 . S
O179 Co171 2.055 . S
O179 C183 1.253 . S
H180 C176 0.931 . S
H181 C177 0.930 . S
O182 Co171 2.039 . S
O182 C172 1.265 . S
C183 O179 1.253 . S
C183 O184 1.227 . S
O184 C183 1.227 . S
N185 Co171 2.140 . S
N185 C188 1.346 . S
N185 C189 1.345 . S
C186 C187 1.387 . S
C186 C190 1.391 . S
C187 C186 1.387 . S
C187 C188 1.369 . S
C187 H196 0.929 . S
C188 N185 1.346 . S
C188 C187 1.369 . S
C188 H191 0.928 . S
C189 N185 1.345 . S
C189 C190 1.371 . S
C189 H192 0.931 . S
C190 C186 1.391 . S
C190 C189 1.371 . S
C190 H197 0.930 . S
H191 C188 0.928 . S
H192 C189 0.931 . S
H193 C169 0.930 . S
H194 C166 0.930 . S
H195 C175 0.930 . S
H196 C187 0.929 . S
H197 C190 0.930 . S
C198 C199 1.351 . S
C198 N201 1.368 . S
C198 H203 0.931 . S
C199 C198 1.351 . S
C199 N200 1.373 . S
C199 H227 0.930 . S
N200 C199 1.373 . S
N200 C202 1.340 . S
N201 C198 1.368 . S
N201 C202 1.321 . S
N201 Co204 2.135 . S
C202 N200 1.340 . S
C202 N201 1.321 . S
C202 H226 0.930 . S
H203 C198 0.931 . S
Co204 N201 2.135 . S
Co204 N207 2.121 . S
Co204 O212 2.055 . S
Co204 O215 2.039 . S
Co204 N218 2.140 . S
C205 O206 1.227 . S
C205 O215 1.265 . S
O206 C205 1.227 . S
N207 Co204 2.121 . S
N207 C209 1.375 . S
N207 C210 1.313 . S
C208 C209 1.338 . S
C208 N211 1.377 . S
C208 H228 0.930 . S
C209 N207 1.375 . S
C209 C208 1.338 . S
C209 H213 0.931 . S
C210 N207 1.313 . S
C210 N211 1.344 . S
C210 H214 0.930 . S
N211 C208 1.377 . S
N211 C210 1.344 . S
O212 Co204 2.055 . S
O212 C216 1.253 . S
H213 C209 0.931 . S
H214 C210 0.930 . S
O215 Co204 2.039 . S
O215 C205 1.265 . S
C216 O212 1.253 . S
C216 O217 1.227 . S
O217 C216 1.227 . S
N218 Co204 2.140 . S
N218 C221 1.346 . S
N218 C222 1.345 . S
C219 C220 1.387 . S
C219 C223 1.391 . S
C220 C219 1.387 . S
C220 C221 1.369 . S
C220 H229 0.929 . S
C221 N218 1.346 . S
C221 C220 1.369 . S
C221 H224 0.928 . S
C222 N218 1.345 . S
C222 C223 1.371 . S
C222 H225 0.931 . S
C223 C219 1.391 . S
C223 C222 1.371 . S
C223 H230 0.930 . S
H224 C221 0.928 . S
H225 C222 0.931 . S
H226 C202 0.930 . S
H227 C199 0.930 . S
H228 C208 0.930 . S
H229 C220 0.929 . S
H230 C223 0.930 . S
C231 C232 1.351 . S
C231 N234 1.368 . S
C231 H236 0.931 . S
C232 C231 1.351 . S
C232 N233 1.373 . S
C232 H260 0.930 . S
N233 C232 1.373 . S
N233 C235 1.340 . S
N234 C231 1.368 . S
N234 C235 1.321 . S
N234 Co237 2.135 . S
C235 N233 1.340 . S
C235 N234 1.321 . S
C235 H259 0.930 . S
H236 C231 0.931 . S
Co237 N234 2.135 . S
Co237 N240 2.121 . S
Co237 O245 2.055 . S
Co237 O248 2.039 . S
Co237 N251 2.140 . S
C238 O239 1.227 . S
C238 O248 1.265 . S
O239 C238 1.227 . S
N240 Co237 2.121 . S
N240 C242 1.375 . S
N240 C243 1.313 . S
C241 C242 1.338 . S
C241 N244 1.377 . S
C241 H261 0.930 . S
C242 N240 1.375 . S
C242 C241 1.338 . S
C242 H246 0.931 . S
C243 N240 1.313 . S
C243 N244 1.344 . S
C243 H247 0.930 . S
N244 C241 1.377 . S
N244 C243 1.344 . S
O245 Co237 2.055 . S
O245 C249 1.253 . S
H246 C242 0.931 . S
H247 C243 0.930 . S
O248 Co237 2.039 . S
O248 C238 1.265 . S
C249 O245 1.253 . S
C249 O250 1.227 . S
O250 C249 1.227 . S
N251 Co237 2.140 . S
N251 C254 1.346 . S
N251 C255 1.345 . S
C252 C253 1.387 . S
C252 C256 1.391 . S
C253 C252 1.387 . S
C253 C254 1.369 . S
C253 H262 0.929 . S
C254 N251 1.346 . S
C254 C253 1.369 . S
C254 H257 0.928 . S
C255 N251 1.345 . S
C255 C256 1.371 . S
C255 H258 0.931 . S
C256 C252 1.391 . S
C256 C255 1.371 . S
C256 H263 0.930 . S
H257 C254 0.928 . S
H258 C255 0.931 . S
H259 C235 0.930 . S
H260 C232 0.930 . S
H261 C241 0.930 . S
H262 C253 0.929 . S
H263 C256 0.930 . S
C264 C265 1.351 . S
C264 N267 1.368 . S
C264 H269 0.931 . S
C265 C264 1.351 . S
C265 N266 1.373 . S
C265 H293 0.930 . S
N266 C265 1.373 . S
N266 C268 1.340 . S
N267 C264 1.368 . S
N267 C268 1.321 . S
N267 Co270 2.135 . S
C268 N266 1.340 . S
C268 N267 1.321 . S
C268 H292 0.930 1_545 S
H269 C264 0.931 . S
Co270 N267 2.135 . S
Co270 N273 2.121 . S
Co270 O278 2.055 . S
Co270 O281 2.039 1_545 S
Co270 N284 2.140 . S
C271 O272 1.227 . S
C271 O281 1.265 . S
O272 C271 1.227 . S
N273 Co270 2.121 . S
N273 C275 1.375 1_545 S
N273 C276 1.313 . S
C274 C275 1.338 . S
C274 N277 1.377 1_565 S
C274 H294 0.930 . S
C275 N273 1.375 1_565 S
C275 C274 1.338 . S
C275 H279 0.931 . S
C276 N273 1.313 . S
C276 N277 1.344 . S
C276 H280 0.930 . S
N277 C274 1.377 1_545 S
N277 C276 1.344 . S
O278 Co270 2.055 . S
O278 C282 1.253 . S
H279 C275 0.931 . S
H280 C276 0.930 . S
O281 Co270 2.039 1_565 S
O281 C271 1.265 . S
C282 O278 1.253 . S
C282 O283 1.227 . S
O283 C282 1.227 . S
N284 Co270 2.140 . S
N284 C287 1.346 . S
N284 C288 1.345 . S
C285 C286 1.387 1_545 S
C285 C289 1.391 . S
C286 C285 1.387 1_565 S
C286 C287 1.369 1_565 S
C286 H295 0.929 . S
C287 N284 1.346 . S
C287 C286 1.369 1_545 S
C287 H290 0.928 1_545 S
C288 N284 1.345 . S
C288 C289 1.371 . S
C288 H291 0.931 . S
C289 C285 1.391 . S
C289 C288 1.371 . S
C289 H296 0.930 . S
H290 C287 0.928 1_565 S
H291 C288 0.931 . S
H292 C268 0.930 1_565 S
H293 C265 0.930 . S
H294 C274 0.930 . S
H295 C286 0.929 . S
H296 C289 0.930 . S
C297 C298 1.351 . S
C297 N300 1.368 . S
C297 H302 0.931 . S
C298 C297 1.351 . S
C298 N299 1.373 1_565 S
C298 H326 0.930 . S
N299 C298 1.373 1_545 S
N299 C301 1.340 . S
N300 C297 1.368 . S
N300 C301 1.321 1_565 S
N300 Co303 2.135 1_565 S
C301 N299 1.340 . S
C301 N300 1.321 1_545 S
C301 H325 0.930 . S
H302 C297 0.931 . S
Co303 N300 2.135 1_545 S
Co303 N306 2.121 . S
Co303 O311 2.055 1_545 S
Co303 O314 2.039 . S
Co303 N317 2.140 . S
C304 O305 1.227 . S
C304 O314 1.265 . S
O305 C304 1.227 . S
N306 Co303 2.121 . S
N306 C308 1.375 . S
N306 C309 1.313 1_545 S
C307 C308 1.338 . S
C307 N310 1.377 . S
C307 H327 0.930 . S
C308 N306 1.375 . S
C308 C307 1.338 . S
C308 H312 0.931 . S
C309 N306 1.313 1_565 S
C309 N310 1.344 1_565 S
C309 H313 0.930 . S
N310 C307 1.377 . S
N310 C309 1.344 1_545 S
O311 Co303 2.055 1_565 S
O311 C315 1.253 . S
H312 C308 0.931 . S
H313 C309 0.930 . S
O314 Co303 2.039 . S
O314 C304 1.265 . S
C315 O311 1.253 . S
C315 O316 1.227 . S
O316 C315 1.227 . S
N317 Co303 2.140 . S
N317 C320 1.346 . S
N317 C321 1.345 1_545 S
C318 C319 1.387 . S
C318 C322 1.391 1_545 S
C319 C318 1.387 . S
C319 C320 1.369 . S
C319 H328 0.929 . S
C320 N317 1.346 . S
C320 C319 1.369 . S
C320 H323 0.928 . S
C321 N317 1.345 1_565 S
C321 C322 1.371 . S
C321 H324 0.931 . S
C322 C318 1.391 1_565 S
C322 C321 1.371 . S
C322 H329 0.930 . S
H323 C320 0.928 . S
H324 C321 0.931 . S
H325 C301 0.930 . S
H326 C298 0.930 . S
H327 C307 0.930 . S
H328 C319 0.929 . S
H329 C322 0.930 . S
C330 C331 1.351 . S
C330 N333 1.368 . S
C330 H335 0.931 . S
C331 C330 1.351 . S
C331 N332 1.373 1_565 S
C331 H359 0.930 . S
N332 C331 1.373 1_545 S
N332 C334 1.340 . S
N333 C330 1.368 . S
N333 C334 1.321 1_565 S
N333 Co336 2.135 1_565 S
C334 N332 1.340 . S
C334 N333 1.321 1_545 S
C334 H358 0.930 . S
H335 C330 0.931 . S
Co336 N333 2.135 1_545 S
Co336 N339 2.121 . S
Co336 O344 2.055 1_545 S
Co336 O347 2.039 . S
Co336 N350 2.140 . S
C337 O338 1.227 . S
C337 O347 1.265 . S
O338 C337 1.227 . S
N339 Co336 2.121 . S
N339 C341 1.375 . S
N339 C342 1.313 1_545 S
C340 C341 1.338 . S
C340 N343 1.377 . S
C340 H360 0.930 . S
C341 N339 1.375 . S
C341 C340 1.338 . S
C341 H345 0.931 . S
C342 N339 1.313 1_565 S
C342 N343 1.344 1_565 S
C342 H346 0.930 . S
N343 C340 1.377 . S
N343 C342 1.344 1_545 S
O344 Co336 2.055 1_565 S
O344 C348 1.253 . S
H345 C341 0.931 . S
H346 C342 0.930 . S
O347 Co336 2.039 . S
O347 C337 1.265 . S
C348 O344 1.253 . S
C348 O349 1.227 . S
O349 C348 1.227 . S
N350 Co336 2.140 . S
N350 C353 1.346 . S
N350 C354 1.345 1_545 S
C351 C352 1.387 . S
C351 C355 1.391 1_545 S
C352 C351 1.387 . S
C352 C353 1.369 . S
C352 H361 0.929 . S
C353 N350 1.346 . S
C353 C352 1.369 . S
C353 H356 0.928 . S
C354 N350 1.345 1_565 S
C354 C355 1.371 . S
C354 H357 0.931 . S
C355 C351 1.391 1_565 S
C355 C354 1.371 . S
C355 H362 0.930 . S
H356 C353 0.928 . S
H357 C354 0.931 . S
H358 C334 0.930 . S
H359 C331 0.930 . S
H360 C340 0.930 . S
H361 C352 0.929 . S
H362 C355 0.930 . S
C363 C364 1.351 . S
C363 N366 1.368 . S
C363 H368 0.931 . S
C364 C363 1.351 . S
C364 N365 1.373 . S
C364 H392 0.930 . S
N365 C364 1.373 . S
N365 C367 1.340 . S
N366 C363 1.368 . S
N366 C367 1.321 . S
N366 Co369 2.135 . S
C367 N365 1.340 . S
C367 N366 1.321 . S
C367 H391 0.930 1_545 S
H368 C363 0.931 . S
Co369 N366 2.135 . S
Co369 N372 2.121 . S
Co369 O377 2.055 . S
Co369 O380 2.039 1_545 S
Co369 N383 2.140 . S
C370 O371 1.227 . S
C370 O380 1.265 . S
O371 C370 1.227 . S
N372 Co369 2.121 . S
N372 C374 1.375 1_545 S
N372 C375 1.313 . S
C373 C374 1.338 . S
C373 N376 1.377 1_565 S
C373 H393 0.930 . S
C374 N372 1.375 1_565 S
C374 C373 1.338 . S
C374 H378 0.931 . S
C375 N372 1.313 . S
C375 N376 1.344 . S
C375 H379 0.930 . S
N376 C373 1.377 1_545 S
N376 C375 1.344 . S
O377 Co369 2.055 . S
O377 C381 1.253 . S
H378 C374 0.931 . S
H379 C375 0.930 . S
O380 Co369 2.039 1_565 S
O380 C370 1.265 . S
C381 O377 1.253 . S
C381 O382 1.227 . S
O382 C381 1.227 . S
N383 Co369 2.140 . S
N383 C386 1.346 . S
N383 C387 1.345 . S
C384 C385 1.387 1_545 S
C384 C388 1.391 . S
C385 C384 1.387 1_565 S
C385 C386 1.369 1_565 S
C385 H394 0.929 . S
C386 N383 1.346 . S
C386 C385 1.369 1_545 S
C386 H389 0.928 1_545 S
C387 N383 1.345 . S
C387 C388 1.371 . S
C387 H390 0.931 . S
C388 C384 1.391 . S
C388 C387 1.371 . S
C388 H395 0.930 . S
H389 C386 0.928 1_565 S
H390 C387 0.931 . S
H391 C367 0.930 1_565 S
H392 C364 0.930 . S
H393 C373 0.930 . S
H394 C385 0.929 . S
H395 C388 0.930 . S
C396 C397 1.351 . S
C396 N399 1.368 . S
C396 H401 0.931 . S
C397 C396 1.351 . S
C397 N398 1.373 . S
C397 H425 0.930 . S
N398 C397 1.373 . S
N398 C400 1.340 . S
N399 C396 1.368 . S
N399 C400 1.321 . S
N399 Co402 2.135 . S
C400 N398 1.340 . S
C400 N399 1.321 . S
C400 H424 0.930 . S
H401 C396 0.931 . S
Co402 N399 2.135 . S
Co402 N405 2.121 . S
Co402 O410 2.055 . S
Co402 O413 2.039 . S
Co402 N416 2.140 . S
C403 O404 1.227 . S
C403 O413 1.265 . S
O404 C403 1.227 . S
N405 Co402 2.121 . S
N405 C407 1.375 . S
N405 C408 1.313 . S
C406 C407 1.338 . S
C406 N409 1.377 . S
C406 H426 0.930 . S
C407 N405 1.375 . S
C407 C406 1.338 . S
C407 H411 0.931 . S
C408 N405 1.313 . S
C408 N409 1.344 . S
C408 H412 0.930 . S
N409 C406 1.377 . S
N409 C408 1.344 . S
O410 Co402 2.055 . S
O410 C414 1.253 . S
H411 C407 0.931 . S
H412 C408 0.930 . S
O413 Co402 2.039 . S
O413 C403 1.265 . S
C414 O410 1.253 . S
C414 O415 1.227 . S
O415 C414 1.227 . S
N416 Co402 2.140 . S
N416 C419 1.346 . S
N416 C420 1.345 . S
C417 C418 1.387 . S
C417 C421 1.391 . S
C418 C417 1.387 . S
C418 C419 1.369 . S
C418 H427 0.929 . S
C419 N416 1.346 . S
C419 C418 1.369 . S
C419 H422 0.928 . S
C420 N416 1.345 . S
C420 C421 1.371 . S
C420 H423 0.931 . S
C421 C417 1.391 . S
C421 C420 1.371 . S
C421 H428 0.930 . S
H422 C419 0.928 . S
H423 C420 0.931 . S
H424 C400 0.930 . S
H425 C397 0.930 . S
H426 C406 0.930 . S
H427 C418 0.929 . S
H428 C421 0.930 . S
C429 C430 1.351 . S
C429 N432 1.368 . S
C429 H434 0.931 . S
C430 C429 1.351 . S
C430 N431 1.373 . S
C430 H458 0.930 . S
N431 C430 1.373 . S
N431 C433 1.340 . S
N432 C429 1.368 . S
N432 C433 1.321 . S
N432 Co435 2.135 . S
C433 N431 1.340 . S
C433 N432 1.321 . S
C433 H457 0.930 . S
H434 C429 0.931 . S
Co435 N432 2.135 . S
Co435 N438 2.121 . S
Co435 O443 2.055 . S
Co435 O446 2.039 . S
Co435 N449 2.140 . S
C436 O437 1.227 . S
C436 O446 1.265 . S
O437 C436 1.227 . S
N438 Co435 2.121 . S
N438 C440 1.375 . S
N438 C441 1.313 . S
C439 C440 1.338 . S
C439 N442 1.377 . S
C439 H459 0.930 . S
C440 N438 1.375 . S
C440 C439 1.338 . S
C440 H444 0.931 . S
C441 N438 1.313 . S
C441 N442 1.344 . S
C441 H445 0.930 . S
N442 C439 1.377 . S
N442 C441 1.344 . S
O443 Co435 2.055 . S
O443 C447 1.253 . S
H444 C440 0.931 . S
H445 C441 0.930 . S
O446 Co435 2.039 . S
O446 C436 1.265 . S
C447 O443 1.253 . S
C447 O448 1.227 . S
O448 C447 1.227 . S
N449 Co435 2.140 . S
N449 C452 1.346 . S
N449 C453 1.345 . S
C450 C451 1.387 . S
C450 C454 1.391 . S
C451 C450 1.387 . S
C451 C452 1.369 . S
C451 H460 0.929 . S
C452 N449 1.346 . S
C452 C451 1.369 . S
C452 H455 0.928 . S
C453 N449 1.345 . S
C453 C454 1.371 . S
C453 H456 0.931 . S
C454 C450 1.391 . S
C454 C453 1.371 . S
C454 H461 0.930 . S
H455 C452 0.928 . S
H456 C453 0.931 . S
H457 C433 0.930 . S
H458 C430 0.930 . S
H459 C439 0.930 . S
H460 C451 0.929 . S
H461 C454 0.930 . S
C462 C463 1.351 . S
C462 N465 1.368 . S
C462 H467 0.931 . S
C463 C462 1.351 . S
C463 N464 1.373 . S
C463 H491 0.930 . S
N464 C463 1.373 . S
N464 C466 1.340 . S
N465 C462 1.368 . S
N465 C466 1.321 . S
N465 Co468 2.135 . S
C466 N464 1.340 . S
C466 N465 1.321 . S
C466 H490 0.930 . S
H467 C462 0.931 . S
Co468 N465 2.135 . S
Co468 N471 2.121 . S
Co468 O476 2.055 . S
Co468 O479 2.039 . S
Co468 N482 2.140 . S
C469 O470 1.227 . S
C469 O479 1.265 . S
O470 C469 1.227 . S
N471 Co468 2.121 . S
N471 C473 1.375 . S
N471 C474 1.313 . S
C472 C473 1.338 . S
C472 N475 1.377 . S
C472 H492 0.930 . S
C473 N471 1.375 . S
C473 C472 1.338 . S
C473 H477 0.931 . S
C474 N471 1.313 . S
C474 N475 1.344 . S
C474 H478 0.930 . S
N475 C472 1.377 . S
N475 C474 1.344 . S
O476 Co468 2.055 . S
O476 C480 1.253 . S
H477 C473 0.931 . S
H478 C474 0.930 . S
O479 Co468 2.039 . S
O479 C469 1.265 . S
C480 O476 1.253 . S
C480 O481 1.227 . S
O481 C480 1.227 . S
N482 Co468 2.140 . S
N482 C485 1.346 . S
N482 C486 1.345 . S
C483 C484 1.387 . S
C483 C487 1.391 . S
C484 C483 1.387 . S
C484 C485 1.369 . S
C484 H493 0.929 . S
C485 N482 1.346 . S
C485 C484 1.369 . S
C485 H488 0.928 . S
C486 N482 1.345 . S
C486 C487 1.371 . S
C486 H489 0.931 . S
C487 C483 1.391 . S
C487 C486 1.371 . S
C487 H494 0.930 . S
H488 C485 0.928 . S
H489 C486 0.931 . S
H490 C466 0.930 . S
H491 C463 0.930 . S
H492 C472 0.930 . S
H493 C484 0.929 . S
H494 C487 0.930 . S
C495 C496 1.351 . S
C495 N498 1.368 . S
C495 H500 0.931 . S
C496 C495 1.351 . S
C496 N497 1.373 . S
C496 H524 0.930 . S
N497 C496 1.373 . S
N497 C499 1.340 . S
N498 C495 1.368 . S
N498 C499 1.321 . S
N498 Co501 2.135 . S
C499 N497 1.340 . S
C499 N498 1.321 . S
C499 H523 0.930 . S
H500 C495 0.931 . S
Co501 N498 2.135 . S
Co501 N504 2.121 . S
Co501 O509 2.055 . S
Co501 O512 2.039 . S
Co501 N515 2.140 . S
C502 O503 1.227 . S
C502 O512 1.265 . S
O503 C502 1.227 . S
N504 Co501 2.121 . S
N504 C506 1.375 . S
N504 C507 1.313 . S
C505 C506 1.338 . S
C505 N508 1.377 . S
C505 H525 0.930 . S
C506 N504 1.375 . S
C506 C505 1.338 . S
C506 H510 0.931 . S
C507 N504 1.313 . S
C507 N508 1.344 . S
C507 H511 0.930 . S
N508 C505 1.377 . S
N508 C507 1.344 . S
O509 Co501 2.055 . S
O509 C513 1.253 . S
H510 C506 0.931 . S
H511 C507 0.930 . S
O512 Co501 2.039 . S
O512 C502 1.265 . S
C513 O509 1.253 . S
C513 O514 1.227 . S
O514 C513 1.227 . S
N515 Co501 2.140 . S
N515 C518 1.346 . S
N515 C519 1.345 . S
C516 C517 1.387 . S
C516 C520 1.391 . S
C517 C516 1.387 . S
C517 C518 1.369 . S
C517 H526 0.929 . S
C518 N515 1.346 . S
C518 C517 1.369 . S
C518 H521 0.928 . S
C519 N515 1.345 . S
C519 C520 1.371 . S
C519 H522 0.931 . S
C520 C516 1.391 . S
C520 C519 1.371 . S
C520 H527 0.930 . S
H521 C518 0.928 . S
H522 C519 0.931 . S
H523 C499 0.930 . S
H524 C496 0.930 . S
H525 C505 0.930 . S
H526 C517 0.929 . S
H527 C520 0.930 . S
H528 C534 0.930 1_565 S
H529 C537 0.930 . S
H530 C538 0.930 . S
H531 C539 0.930 . S
H532 C542 0.923 1_565 S
H533 C543 0.930 . S
C534 H528 0.930 1_545 S
C534 C535 1.355 . S
C534 C536 1.415 . S
C535 C534 1.355 . S
C535 C537 1.419 . S
C536 C534 1.415 . S
C536 C541 1.425 . S
C536 C543 1.409 1_545 S
C537 H529 0.930 . S
C537 C535 1.419 . S
C537 C538 1.362 . S
C538 H530 0.930 . S
C538 C537 1.362 . S
C538 C541 1.409 . S
C539 H531 0.930 . S
C539 C540 1.355 . S
C539 C541 1.415 . S
C540 C539 1.355 . S
C540 C542 1.428 . S
C541 C536 1.425 . S
C541 C538 1.409 . S
C541 C539 1.415 . S
C542 H532 0.923 1_545 S
C542 C540 1.428 . S
C542 C543 1.361 1_545 S
C543 H533 0.930 . S
C543 C536 1.409 1_565 S
C543 C542 1.361 1_565 S
H544 C550 0.930 . S
H545 C553 0.930 . S
H546 C554 0.930 . S
H547 C555 0.930 . S
H548 C558 0.930 . S
H549 C559 0.930 . S
C550 H544 0.930 . S
C550 C551 1.355 1_545 S
C550 C552 1.415 . S
C551 C550 1.355 1_565 S
C551 C553 1.419 . S
C552 C550 1.415 . S
C552 C557 1.425 1_545 S
C552 C559 1.409 . S
C553 H545 0.930 . S
C553 C551 1.419 . S
C553 C554 1.362 . S
C554 H546 0.930 . S
C554 C553 1.362 . S
C554 C557 1.409 . S
C555 H547 0.930 . S
C555 C556 1.355 . S
C555 C557 1.415 . S
C556 C555 1.355 . S
C556 C558 1.419 1_565 S
C557 C552 1.425 1_565 S
C557 C554 1.409 . S
C557 C555 1.415 . S
C558 H548 0.930 . S
C558 C556 1.419 1_545 S
C558 C559 1.362 . S
C559 H549 0.930 . S
C559 C552 1.409 . S
C559 C558 1.362 . S
H560 C566 0.930 . S
H561 C569 0.930 . S
H562 C570 0.930 . S
H563 C571 0.930 . S
H564 C574 0.930 . S
H565 C575 0.930 . S
C566 H560 0.930 . S
C566 C567 1.355 1_545 S
C566 C568 1.415 . S
C567 C566 1.355 1_565 S
C567 C569 1.419 . S
C568 C566 1.415 . S
C568 C573 1.425 1_545 S
C568 C575 1.409 . S
C569 H561 0.930 . S
C569 C567 1.419 . S
C569 C570 1.362 . S
C570 H562 0.930 . S
C570 C569 1.362 . S
C570 C573 1.409 . S
C571 H563 0.930 . S
C571 C572 1.355 . S
C571 C573 1.415 . S
C572 C571 1.355 . S
C572 C574 1.419 1_565 S
C573 C568 1.425 1_565 S
C573 C570 1.409 . S
C573 C571 1.415 . S
C574 H564 0.930 . S
C574 C572 1.419 1_545 S
C574 C575 1.362 . S
C575 H565 0.930 . S
C575 C568 1.409 . S
C575 C574 1.362 . S
H576 C582 0.930 . S
H577 C585 0.930 . S
H578 C586 0.930 . S
H579 C587 0.930 . S
H580 C590 0.930 . S
H581 C591 0.930 . S
C582 H576 0.930 . S
C582 C583 1.355 . S
C582 C584 1.415 . S
C583 C582 1.355 . S
C583 C585 1.419 . S
C584 C582 1.415 . S
C584 C589 1.425 . S
C584 C591 1.409 . S
C585 H577 0.930 . S
C585 C583 1.419 . S
C585 C586 1.362 . S
C586 H578 0.930 . S
C586 C585 1.362 . S
C586 C589 1.409 . S
C587 H579 0.930 . S
C587 C588 1.355 . S
C587 C589 1.415 . S
C588 C587 1.355 . S
C588 C590 1.419 . S
C589 C584 1.425 . S
C589 C586 1.409 . S
C589 C587 1.415 . S
C590 H580 0.930 . S
C590 C588 1.419 . S
C590 C591 1.362 . S
C591 H581 0.930 . S
C591 C584 1.409 . S
C591 C590 1.362 . S
H592 C598 0.930 . S
H593 C601 0.930 . S
H594 C602 0.930 . S
H595 C603 0.930 . S
H596 C606 0.930 . S
H597 C607 0.930 . S
C598 H592 0.930 . S
C598 C599 1.355 . S
C598 C600 1.415 . S
C599 C598 1.355 . S
C599 C601 1.419 . S
C600 C598 1.415 . S
C600 C605 1.425 . S
C600 C607 1.409 . S
C601 H593 0.930 . S
C601 C599 1.419 . S
C601 C602 1.362 . S
C602 H594 0.930 . S
C602 C601 1.362 . S
C602 C605 1.409 . S
C603 H595 0.930 . S
C603 C604 1.355 . S
C603 C605 1.415 . S
C604 C603 1.355 . S
C604 C606 1.419 . S
C605 C600 1.425 . S
C605 C602 1.409 . S
C605 C603 1.415 . S
C606 H596 0.930 . S
C606 C604 1.419 . S
C606 C607 1.362 . S
C607 H597 0.930 . S
C607 C600 1.409 . S
C607 C606 1.362 . S
H608 C614 0.930 . S
H609 C617 0.930 . S
H610 C618 0.930 . S
H611 C619 0.930 . S
H612 C622 0.930 . S
H613 C623 0.930 . S
C614 H608 0.930 . S
C614 C615 1.355 . S
C614 C616 1.415 . S
C615 C614 1.355 . S
C615 C617 1.419 . S
C616 C614 1.415 . S
C616 C621 1.425 . S
C616 C623 1.409 . S
C617 H609 0.930 . S
C617 C615 1.419 . S
C617 C618 1.362 . S
C618 H610 0.930 . S
C618 C617 1.362 . S
C618 C621 1.409 . S
C619 H611 0.930 . S
C619 C620 1.355 . S
C619 C621 1.415 . S
C620 C619 1.355 . S
C620 C622 1.419 . S
C621 C616 1.425 . S
C621 C618 1.409 . S
C621 C619 1.415 . S
C622 H612 0.930 . S
C622 C620 1.419 . S
C622 C623 1.362 . S
C623 H613 0.930 . S
C623 C616 1.409 . S
C623 C622 1.362 . S
H624 C630 0.930 . S
H625 C633 0.930 . S
H626 C634 0.930 . S
H627 C635 0.930 . S
H628 C638 0.930 . S
H629 C639 0.930 . S
C630 H624 0.930 . S
C630 C631 1.355 . S
C630 C632 1.415 . S
C631 C630 1.355 . S
C631 C633 1.419 . S
C632 C630 1.415 . S
C632 C637 1.425 . S
C632 C639 1.409 . S
C633 H625 0.930 . S
C633 C631 1.419 . S
C633 C634 1.362 . S
C634 H626 0.930 . S
C634 C633 1.362 . S
C634 C637 1.409 . S
C635 H627 0.930 . S
C635 C636 1.355 . S
C635 C637 1.415 . S
C636 C635 1.355 . S
C636 C638 1.419 . S
C637 C632 1.425 . S
C637 C634 1.409 . S
C637 C635 1.415 . S
C638 H628 0.930 . S
C638 C636 1.419 . S
C638 C639 1.362 . S
C639 H629 0.930 . S
C639 C632 1.409 . S
C639 C638 1.362 . S
H640 C646 0.930 . S
H641 C649 0.930 . S
H642 C650 0.930 . S
H643 C651 0.930 . S
H644 C654 0.930 . S
H645 C655 0.930 . S
C646 H640 0.930 . S
C646 C647 1.355 . S
C646 C648 1.415 . S
C647 C646 1.355 . S
C647 C649 1.419 . S
C648 C646 1.415 . S
C648 C653 1.425 . S
C648 C655 1.409 . S
C649 H641 0.930 . S
C649 C647 1.419 . S
C649 C650 1.362 . S
C650 H642 0.930 . S
C650 C649 1.362 . S
C650 C653 1.409 . S
C651 H643 0.930 . S
C651 C652 1.355 . S
C651 C653 1.415 . S
C652 C651 1.355 . S
C652 C654 1.419 . S
C653 C648 1.425 . S
C653 C650 1.409 . S
C653 C651 1.415 . S
C654 H644 0.930 . S
C654 C652 1.419 . S
C654 C655 1.362 . S
C655 H645 0.930 . S
C655 C648 1.409 . S
C655 C654 1.362 . S
H656 C662 0.930 . S
H657 C665 0.930 . S
H658 C666 0.930 . S
H659 C667 0.930 . S
H660 C670 0.930 . S
H661 C671 0.930 . S
C662 H656 0.930 . S
C662 C663 1.355 . S
C662 C664 1.415 . S
C663 C662 1.355 . S
C663 C665 1.419 . S
C664 C662 1.415 . S
C664 C669 1.425 . S
C664 C671 1.409 . S
C665 H657 0.930 . S
C665 C663 1.419 . S
C665 C666 1.362 . S
C666 H658 0.930 . S
C666 C665 1.362 . S
C666 C669 1.409 . S
C667 H659 0.930 . S
C667 C668 1.355 . S
C667 C669 1.415 . S
C668 C667 1.355 . S
C668 C670 1.419 . S
C669 C664 1.425 . S
C669 C666 1.409 . S
C669 C667 1.415 . S
C670 H660 0.930 . S
C670 C668 1.419 . S
C670 C671 1.362 . S
C671 H661 0.930 . S
C671 C664 1.409 . S
C671 C670 1.362 . S
H672 C678 0.930 . S
H673 C681 0.930 . S
H674 C682 0.930 . S
H675 C683 0.930 . S
H676 C686 0.930 . S
H677 C687 0.930 . S
C678 H672 0.930 . S
C678 C679 1.355 . S
C678 C680 1.415 . S
C679 C678 1.355 . S
C679 C681 1.419 . S
C680 C678 1.415 . S
C680 C685 1.425 . S
C680 C687 1.409 . S
C681 H673 0.930 . S
C681 C679 1.419 . S
C681 C682 1.362 . S
C682 H674 0.930 . S
C682 C681 1.362 . S
C682 C685 1.409 . S
C683 H675 0.930 . S
C683 C684 1.355 . S
C683 C685 1.415 . S
C684 C683 1.355 . S
C684 C686 1.419 . S
C685 C680 1.425 . S
C685 C682 1.409 . S
C685 C683 1.415 . S
C686 H676 0.930 . S
C686 C684 1.419 . S
C686 C687 1.362 . S
C687 H677 0.930 . S
C687 C680 1.409 . S
C687 C686 1.362 . S
H688 C694 0.930 . S
H689 C697 0.930 . S
H690 C698 0.930 . S
H691 C699 0.930 . S
H692 C702 0.930 . S
H693 C703 0.930 . S
C694 H688 0.930 . S
C694 C695 1.355 . S
C694 C696 1.415 . S
C695 C694 1.355 . S
C695 C697 1.419 . S
C696 C694 1.415 . S
C696 C701 1.425 . S
C696 C703 1.409 . S
C697 H689 0.930 . S
C697 C695 1.419 . S
C697 C698 1.362 . S
C698 H690 0.930 . S
C698 C697 1.362 . S
C698 C701 1.409 . S
C699 H691 0.930 . S
C699 C700 1.355 . S
C699 C701 1.415 . S
C700 C699 1.355 . S
C700 C702 1.419 . S
C701 C696 1.425 . S
C701 C698 1.409 . S
C701 C699 1.415 . S
C702 H692 0.930 . S
C702 C700 1.419 . S
C702 C703 1.362 . S
C703 H693 0.930 . S
C703 C696 1.409 . S
C703 C702 1.362 . S
H704 C710 0.930 . S
H705 C713 0.930 . S
H706 C714 0.930 . S
H707 C715 0.930 . S
H708 C718 0.930 . S
H709 C719 0.930 . S
C710 H704 0.930 . S
C710 C711 1.355 . S
C710 C712 1.415 . S
C711 C710 1.355 . S
C711 C713 1.419 . S
C712 C710 1.415 . S
C712 C717 1.425 . S
C712 C719 1.409 . S
C713 H705 0.930 . S
C713 C711 1.419 . S
C713 C714 1.362 . S
C714 H706 0.930 . S
C714 C713 1.362 . S
C714 C717 1.409 . S
C715 H707 0.930 . S
C715 C716 1.355 . S
C715 C717 1.415 . S
C716 C715 1.355 . S
C716 C718 1.419 . S
C717 C712 1.425 . S
C717 C714 1.409 . S
C717 C715 1.415 . S
C718 H708 0.930 . S
C718 C716 1.419 . S
C718 C719 1.362 . S
C719 H709 0.930 . S
C719 C712 1.409 . S
C719 C718 1.362 . S
H720 C726 0.930 . S
H721 C729 0.930 . S
H722 C730 0.930 . S
H723 C731 0.930 . S
H724 C734 0.930 . S
H725 C735 0.930 . S
C726 H720 0.930 . S
C726 C727 1.355 . S
C726 C728 1.415 . S
C727 C726 1.355 . S
C727 C729 1.419 . S
C728 C726 1.415 . S
C728 C733 1.425 . S
C728 C735 1.409 . S
C729 H721 0.930 . S
C729 C727 1.419 . S
C729 C730 1.362 . S
C730 H722 0.930 . S
C730 C729 1.362 . S
C730 C733 1.409 . S
C731 H723 0.930 . S
C731 C732 1.355 . S
C731 C733 1.415 . S
C732 C731 1.355 . S
C732 C734 1.419 . S
C733 C728 1.425 . S
C733 C730 1.409 . S
C733 C731 1.415 . S
C734 H724 0.930 . S
C734 C732 1.419 . S
C734 C735 1.362 . S
C735 H725 0.930 . S
C735 C728 1.409 . S
C735 C734 1.362 . S
H736 C742 0.930 . S
H737 C745 0.930 . S
H738 C746 0.930 . S
H739 C747 0.930 . S
H740 C750 0.930 . S
H741 C751 0.930 . S
C742 H736 0.930 . S
C742 C743 1.355 . S
C742 C744 1.415 . S
C743 C742 1.355 . S
C743 C745 1.419 . S
C744 C742 1.415 . S
C744 C749 1.425 . S
C744 C751 1.409 . S
C745 H737 0.930 . S
C745 C743 1.419 . S
C745 C746 1.362 . S
C746 H738 0.930 . S
C746 C745 1.362 . S
C746 C749 1.409 . S
C747 H739 0.930 . S
C747 C748 1.355 . S
C747 C749 1.415 . S
C748 C747 1.355 . S
C748 C750 1.419 . S
C749 C744 1.425 . S
C749 C746 1.409 . S
C749 C747 1.415 . S
C750 H740 0.930 . S
C750 C748 1.419 . S
C750 C751 1.362 . S
C751 H741 0.930 . S
C751 C744 1.409 . S
C751 C750 1.362 . S
H752 C758 0.930 . S
H753 C761 0.930 . S
H754 C762 0.930 . S
H755 C763 0.930 . S
H756 C766 0.930 . S
H757 C767 0.930 . S
C758 H752 0.930 . S
C758 C759 1.355 . S
C758 C760 1.415 . S
C759 C758 1.355 . S
C759 C761 1.419 . S
C760 C758 1.415 . S
C760 C765 1.425 . S
C760 C767 1.409 . S
C761 H753 0.930 . S
C761 C759 1.419 . S
C761 C762 1.362 . S
C762 H754 0.930 . S
C762 C761 1.362 . S
C762 C765 1.409 . S
C763 H755 0.930 . S
C763 C764 1.355 . S
C763 C765 1.415 . S
C764 C763 1.355 . S
C764 C766 1.419 . S
C765 C760 1.425 . S
C765 C762 1.409 . S
C765 C763 1.415 . S
C766 H756 0.930 . S
C766 C764 1.419 . S
C766 C767 1.362 . S
C767 H757 0.930 . S
C767 C760 1.409 . S
C767 C766 1.362 . S
H768 C774 0.930 . S
H769 C777 0.930 . S
H770 C778 0.930 . S
H771 C779 0.930 . S
H772 C782 0.930 . S
H773 C783 0.930 . S
C774 H768 0.930 . S
C774 C775 1.355 . S
C774 C776 1.415 . S
C775 C774 1.355 . S
C775 C777 1.419 . S
C776 C774 1.415 . S
C776 C781 1.425 . S
C776 C783 1.409 . S
C777 H769 0.930 . S
C777 C775 1.419 . S
C777 C778 1.362 . S
C778 H770 0.930 . S
C778 C777 1.362 . S
C778 C781 1.409 . S
C779 H771 0.930 . S
C779 C780 1.355 . S
C779 C781 1.415 . S
C780 C779 1.355 . S
C780 C782 1.419 . S
C781 C776 1.425 . S
C781 C778 1.409 . S
C781 C779 1.415 . S
C782 H772 0.930 . S
C782 C780 1.419 . S
C782 C783 1.362 . S
C783 H773 0.930 . S
C783 C776 1.409 . S
C783 C782 1.362 . S
H784 C790 0.930 . S
H785 C793 0.930 . S
H786 C794 0.930 . S
H787 C795 0.930 . S
H788 C798 0.930 . S
H789 C799 0.930 . S
C790 H784 0.930 . S
C790 C791 1.355 . S
C790 C792 1.415 . S
C791 C790 1.355 . S
C791 C793 1.419 . S
C792 C790 1.415 . S
C792 C797 1.425 . S
C792 C799 1.409 . S
C793 H785 0.930 . S
C793 C791 1.419 . S
C793 C794 1.362 . S
C794 H786 0.930 . S
C794 C793 1.362 . S
C794 C797 1.409 . S
C795 H787 0.930 . S
C795 C796 1.355 . S
C795 C797 1.415 . S
C796 C795 1.355 . S
C796 C798 1.419 . S
C797 C792 1.425 . S
C797 C794 1.409 . S
C797 C795 1.415 . S
C798 H788 0.930 . S
C798 C796 1.419 . S
C798 C799 1.362 . S
C799 H789 0.930 . S
C799 C792 1.409 . S
C799 C798 1.362 . S
H800 C806 0.930 . S
H801 C809 0.930 . S
H802 C810 0.930 . S
H803 C811 0.930 . S
H804 C814 0.930 . S
H805 C815 0.930 . S
C806 H800 0.930 . S
C806 C807 1.355 . S
C806 C808 1.415 . S
C807 C806 1.355 . S
C807 C809 1.419 . S
C808 C806 1.415 . S
C808 C813 1.425 . S
C808 C815 1.409 . S
C809 H801 0.930 . S
C809 C807 1.419 . S
C809 C810 1.362 . S
C810 H802 0.930 . S
C810 C809 1.362 . S
C810 C813 1.409 . S
C811 H803 0.930 . S
C811 C812 1.355 . S
C811 C813 1.415 . S
C812 C811 1.355 . S
C812 C814 1.419 . S
C813 C808 1.425 . S
C813 C810 1.409 . S
C813 C811 1.415 . S
C814 H804 0.930 . S
C814 C812 1.419 . S
C814 C815 1.362 . S
C815 H805 0.930 . S
C815 C808 1.409 . S
C815 C814 1.362 . S
H816 C822 0.930 . S
H817 C825 0.930 . S
H818 C826 0.930 . S
H819 C827 0.930 . S
H820 C830 0.930 . S
H821 C831 0.930 . S
C822 H816 0.930 . S
C822 C823 1.355 . S
C822 C824 1.415 . S
C823 C822 1.355 . S
C823 C825 1.419 . S
C824 C822 1.415 . S
C824 C829 1.425 . S
C824 C831 1.409 . S
C825 H817 0.930 . S
C825 C823 1.419 . S
C825 C826 1.362 . S
C826 H818 0.930 . S
C826 C825 1.362 . S
C826 C829 1.409 . S
C827 H819 0.930 . S
C827 C828 1.355 . S
C827 C829 1.415 . S
C828 C827 1.355 . S
C828 C830 1.419 . S
C829 C824 1.425 . S
C829 C826 1.409 . S
C829 C827 1.415 . S
C830 H820 0.930 . S
C830 C828 1.419 . S
C830 C831 1.362 . S
C831 H821 0.930 . S
C831 C824 1.409 . S
C831 C830 1.362 . S
H832 C838 0.930 . S
H833 C841 0.930 . S
H834 C842 0.930 . S
H835 C843 0.930 . S
H836 C846 0.930 . S
H837 C847 0.930 . S
C838 H832 0.930 . S
C838 C839 1.355 . S
C838 C840 1.415 . S
C839 C838 1.355 . S
C839 C841 1.419 . S
C840 C838 1.415 . S
C840 C845 1.425 . S
C840 C847 1.409 . S
C841 H833 0.930 . S
C841 C839 1.419 . S
C841 C842 1.362 . S
C842 H834 0.930 . S
C842 C841 1.362 . S
C842 C845 1.409 . S
C843 H835 0.930 . S
C843 C844 1.355 . S
C843 C845 1.415 . S
C844 C843 1.355 . S
C844 C846 1.419 . S
C845 C840 1.425 . S
C845 C842 1.409 . S
C845 C843 1.415 . S
C846 H836 0.930 . S
C846 C844 1.419 . S
C846 C847 1.362 . S
C847 H837 0.930 . S
C847 C840 1.409 . S
C847 C846 1.362 . S
H848 C854 0.930 . S
H849 C857 0.930 . S
H850 C858 0.930 . S
H851 C859 0.930 . S
H852 C862 0.930 . S
H853 C863 0.930 . S
C854 H848 0.930 . S
C854 C855 1.355 . S
C854 C856 1.415 . S
C855 C854 1.355 . S
C855 C857 1.419 . S
C856 C854 1.415 . S
C856 C861 1.425 . S
C856 C863 1.409 . S
C857 H849 0.930 . S
C857 C855 1.419 . S
C857 C858 1.362 . S
C858 H850 0.930 . S
C858 C857 1.362 . S
C858 C861 1.409 . S
C859 H851 0.930 . S
C859 C860 1.355 . S
C859 C861 1.415 . S
C860 C859 1.355 . S
C860 C862 1.419 . S
C861 C856 1.425 . S
C861 C858 1.409 . S
C861 C859 1.415 . S
C862 H852 0.930 . S
C862 C860 1.419 . S
C862 C863 1.362 . S
C863 H853 0.930 . S
C863 C856 1.409 . S
C863 C862 1.362 . S
H864 C870 0.930 . S
H865 C873 0.930 . S
H866 C874 0.930 . S
H867 C875 0.930 . S
H868 C878 0.930 . S
H869 C879 0.930 . S
C870 H864 0.930 . S
C870 C871 1.355 . S
C870 C872 1.415 . S
C871 C870 1.355 . S
C871 C873 1.419 . S
C872 C870 1.415 . S
C872 C877 1.425 . S
C872 C879 1.409 . S
C873 H865 0.930 . S
C873 C871 1.419 . S
C873 C874 1.362 . S
C874 H866 0.930 . S
C874 C873 1.362 . S
C874 C877 1.409 . S
C875 H867 0.930 . S
C875 C876 1.355 . S
C875 C877 1.415 . S
C876 C875 1.355 . S
C876 C878 1.419 . S
C877 C872 1.425 . S
C877 C874 1.409 . S
C877 C875 1.415 . S
C878 H868 0.930 . S
C878 C876 1.419 . S
C878 C879 1.362 . S
C879 H869 0.930 . S
C879 C872 1.409 . S
C879 C878 1.362 . S
H880 C886 0.930 . S
H881 C889 0.930 . S
H882 C890 0.930 . S
H883 C891 0.930 . S
H884 C894 0.930 . S
H885 C895 0.930 . S
C886 H880 0.930 . S
C886 C887 1.355 . S
C886 C888 1.415 . S
C887 C886 1.355 . S
C887 C889 1.419 . S
C888 C886 1.415 . S
C888 C893 1.425 . S
C888 C895 1.409 . S
C889 H881 0.930 . S
C889 C887 1.419 . S
C889 C890 1.362 . S
C890 H882 0.930 . S
C890 C889 1.362 . S
C890 C893 1.409 . S
C891 H883 0.930 . S
C891 C892 1.355 . S
C891 C893 1.415 . S
C892 C891 1.355 . S
C892 C894 1.419 . S
C893 C888 1.425 . S
C893 C890 1.409 . S
C893 C891 1.415 . S
C894 H884 0.930 . S
C894 C892 1.419 . S
C894 C895 1.362 . S
C895 H885 0.930 . S
C895 C888 1.409 . S
C895 C894 1.362 . S
H896 C902 0.930 . S
H897 C905 0.930 . S
H898 C906 0.930 . S
H899 C907 0.930 . S
H900 C910 0.930 . S
H901 C911 0.930 . S
C902 H896 0.930 . S
C902 C903 1.355 . S
C902 C904 1.415 . S
C903 C902 1.355 . S
C903 C905 1.419 . S
C904 C902 1.415 . S
C904 C909 1.425 . S
C904 C911 1.409 . S
C905 H897 0.930 . S
C905 C903 1.419 . S
C905 C906 1.362 . S
C906 H898 0.930 . S
C906 C905 1.362 . S
C906 C909 1.409 . S
C907 H899 0.930 . S
C907 C908 1.355 . S
C907 C909 1.415 . S
C908 C907 1.355 . S
C908 C910 1.419 . S
C909 C904 1.425 . S
C909 C906 1.409 . S
C909 C907 1.415 . S
C910 H900 0.930 . S
C910 C908 1.419 . S
C910 C911 1.362 . S
C911 H901 0.930 . S
C911 C904 1.409 . S
C911 C910 1.362 . S
H912 C918 0.930 . S
H913 C921 0.930 . S
H914 C922 0.930 . S
H915 C923 0.930 . S
H916 C926 0.930 . S
H917 C927 0.930 . S
C918 H912 0.930 . S
C918 C919 1.355 . S
C918 C920 1.415 . S
C919 C918 1.355 . S
C919 C921 1.419 1_545 S
C920 C918 1.415 . S
C920 C925 1.425 1_645 S
C920 C927 1.409 1_655 S
C921 H913 0.930 . S
C921 C919 1.419 1_565 S
C921 C922 1.362 . S
C922 H914 0.930 . S
C922 C921 1.362 . S
C922 C925 1.409 1_655 S
C923 H915 0.930 . S
C923 C924 1.355 1_565 S
C923 C925 1.415 . S
C924 C923 1.355 1_545 S
C924 C926 1.419 . S
C925 C920 1.425 1_465 S
C925 C922 1.409 1_455 S
C925 C923 1.415 . S
C926 H916 0.930 . S
C926 C924 1.419 . S
C926 C927 1.362 . S
C927 H917 0.930 . S
C927 C920 1.409 1_455 S
C927 C926 1.362 . S
H928 C934 0.930 . S
H929 C937 0.930 . S
H930 C938 0.930 . S
H931 C939 0.940 . S
H932 C942 0.930 . S
H933 C943 0.930 . S
C934 H928 0.930 . S
C934 C935 1.355 . S
C934 C936 1.415 . S
C935 C934 1.355 . S
C935 C937 1.419 1_545 S
C936 C934 1.415 . S
C936 C941 1.425 1_455 S
C936 C943 1.409 1_455 S
C937 H929 0.930 . S
C937 C935 1.419 1_565 S
C937 C938 1.362 . S
C938 H930 0.930 . S
C938 C937 1.362 . S
C938 C941 1.409 1_465 S
C939 H931 0.940 . S
C939 C940 1.346 1_565 S
C939 C941 1.414 1_565 S
C940 C939 1.346 1_545 S
C940 C942 1.419 . S
C941 C936 1.425 1_655 S
C941 C938 1.409 1_645 S
C941 C939 1.414 1_545 S
C942 H932 0.930 . S
C942 C940 1.419 . S
C942 C943 1.362 . S
C943 H933 0.930 . S
C943 C936 1.409 1_655 S
C943 C942 1.362 . S
H944 C950 0.930 . S
H945 C953 0.930 . S
H946 C954 0.930 . S
H947 C955 0.930 . S
H948 C958 0.930 . S
H949 C959 0.930 . S
C950 H944 0.930 . S
C950 C951 1.355 . S
C950 C952 1.415 . S
C951 C950 1.355 . S
C951 C953 1.419 . S
C952 C950 1.415 . S
C952 C957 1.425 1_655 S
C952 C959 1.409 1_655 S
C953 H945 0.930 . S
C953 C951 1.419 . S
C953 C954 1.362 . S
C954 H946 0.930 . S
C954 C953 1.362 . S
C954 C957 1.409 1_655 S
C955 H947 0.930 . S
C955 C956 1.355 . S
C955 C957 1.415 . S
C956 C955 1.355 . S
C956 C958 1.419 . S
C957 C952 1.425 1_455 S
C957 C954 1.409 1_455 S
C957 C955 1.415 . S
C958 H948 0.930 . S
C958 C956 1.419 . S
C958 C959 1.362 . S
C959 H949 0.930 . S
C959 C952 1.409 1_455 S
C959 C958 1.362 . S
H960 C966 0.930 . S
H961 C969 0.930 . S
H962 C970 0.930 . S
H963 C971 0.930 . S
H964 C974 0.930 . S
H965 C975 0.930 . S
C966 H960 0.930 . S
C966 C967 1.355 . S
C966 C968 1.415 . S
C967 C966 1.355 . S
C967 C969 1.419 . S
C968 C966 1.415 . S
C968 C973 1.425 1_655 S
C968 C975 1.409 1_655 S
C969 H961 0.930 . S
C969 C967 1.419 . S
C969 C970 1.362 . S
C970 H962 0.930 . S
C970 C969 1.362 . S
C970 C973 1.409 1_655 S
C971 H963 0.930 . S
C971 C972 1.355 . S
C971 C973 1.415 . S
C972 C971 1.355 . S
C972 C974 1.419 . S
C973 C968 1.425 1_455 S
C973 C970 1.409 1_455 S
C973 C971 1.415 . S
C974 H964 0.930 . S
C974 C972 1.419 . S
C974 C975 1.362 . S
C975 H965 0.930 . S
C975 C968 1.409 1_455 S
C975 C974 1.362 . S
H976 C982 0.930 . S
H977 C985 0.930 . S
H978 C986 0.930 . S
H979 C987 0.930 . S
H980 C990 0.930 . S
H981 C991 0.930 . S
C982 H976 0.930 . S
C982 C983 1.355 . S
C982 C984 1.415 . S
C983 C982 1.355 . S
C983 C985 1.419 1_545 S
C984 C982 1.415 . S
C984 C989 1.425 1_545 S
C984 C991 1.409 . S
C985 H977 0.930 . S
C985 C983 1.419 1_565 S
C985 C986 1.362 . S
C986 H978 0.930 . S
C986 C985 1.362 . S
C986 C989 1.409 . S
C987 H979 0.930 . S
C987 C988 1.355 1_565 S
C987 C989 1.415 . S
C988 C987 1.355 1_545 S
C988 C990 1.419 . S
C989 C984 1.425 1_565 S
C989 C986 1.409 . S
C989 C987 1.415 . S
C990 H980 0.930 . S
C990 C988 1.419 . S
C990 C991 1.362 . S
C991 H981 0.930 . S
C991 C984 1.409 . S
C991 C990 1.362 . S
H992 C998 0.930 . S
H993 C1001 0.930 . S
H994 C1002 0.930 . S
H995 C1003 0.930 . S
H996 C1006 0.930 . S
H997 C1007 0.930 . S
C998 H992 0.930 . S
C998 C999 1.355 . S
C998 C1000 1.415 . S
C999 C998 1.355 . S
C999 C1001 1.419 1_545 S
C1000 C998 1.415 . S
C1000 C1005 1.425 1_545 S
C1000 C1007 1.409 . S
C1001 H993 0.930 . S
C1001 C999 1.419 1_565 S
C1001 C1002 1.362 . S
C1002 H994 0.930 . S
C1002 C1001 1.362 . S
C1002 C1005 1.409 . S
C1003 H995 0.930 . S
C1003 C1004 1.355 1_565 S
C1003 C1005 1.415 . S
C1004 C1003 1.355 1_545 S
C1004 C1006 1.419 . S
C1005 C1000 1.425 1_565 S
C1005 C1002 1.409 . S
C1005 C1003 1.415 . S
C1006 H996 0.930 . S
C1006 C1004 1.419 . S
C1006 C1007 1.362 . S
C1007 H997 0.930 . S
C1007 C1000 1.409 . S
C1007 C1006 1.362 . S
H1008 C1014 0.930 . S
H1009 C1017 0.930 . S
H1010 C1018 0.930 . S
H1011 C1019 0.930 . S
H1012 C1022 0.930 . S
H1013 C1023 0.930 . S
C1014 H1008 0.930 . S
C1014 C1015 1.355 . S
C1014 C1016 1.415 . S
C1015 C1014 1.355 . S
C1015 C1017 1.419 . S
C1016 C1014 1.415 . S
C1016 C1021 1.425 . S
C1016 C1023 1.409 . S
C1017 H1009 0.930 . S
C1017 C1015 1.419 . S
C1017 C1018 1.362 . S
C1018 H1010 0.930 . S
C1018 C1017 1.362 . S
C1018 C1021 1.409 . S
C1019 H1011 0.930 . S
C1019 C1020 1.355 . S
C1019 C1021 1.415 . S
C1020 C1019 1.355 . S
C1020 C1022 1.419 . S
C1021 C1016 1.425 . S
C1021 C1018 1.409 . S
C1021 C1019 1.415 . S
C1022 H1012 0.930 . S
C1022 C1020 1.419 . S
C1022 C1023 1.362 . S
C1023 H1013 0.930 . S
C1023 C1016 1.409 . S
C1023 C1022 1.362 . S
H1024 C1030 0.930 . S
H1025 C1033 0.930 . S
H1026 C1034 0.930 . S
H1027 C1035 0.930 . S
H1028 C1038 0.930 . S
H1029 C1039 0.930 . S
C1030 H1024 0.930 . S
C1030 C1031 1.355 . S
C1030 C1032 1.415 . S
C1031 C1030 1.355 . S
C1031 C1033 1.419 . S
C1032 C1030 1.415 . S
C1032 C1037 1.425 . S
C1032 C1039 1.409 . S
C1033 H1025 0.930 . S
C1033 C1031 1.419 . S
C1033 C1034 1.362 . S
C1034 H1026 0.930 . S
C1034 C1033 1.362 . S
C1034 C1037 1.409 . S
C1035 H1027 0.930 . S
C1035 C1036 1.355 . S
C1035 C1037 1.415 . S
C1036 C1035 1.355 . S
C1036 C1038 1.419 . S
C1037 C1032 1.425 . S
C1037 C1034 1.409 . S
C1037 C1035 1.415 . S
C1038 H1028 0.930 . S
C1038 C1036 1.419 . S
C1038 C1039 1.362 . S
C1039 H1029 0.930 . S
C1039 C1032 1.409 . S
C1039 C1038 1.362 . S
H1040 C1046 0.930 . S
H1041 C1049 0.930 . S
H1042 C1050 0.930 . S
H1043 C1051 0.930 . S
H1044 C1054 0.930 . S
H1045 C1055 0.930 . S
C1046 H1040 0.930 . S
C1046 C1047 1.355 . S
C1046 C1048 1.415 . S
C1047 C1046 1.355 . S
C1047 C1049 1.419 1_545 S
C1048 C1046 1.415 . S
C1048 C1053 1.425 1_546 S
C1048 C1055 1.409 1_556 S
C1049 H1041 0.930 . S
C1049 C1047 1.419 1_565 S
C1049 C1050 1.362 . S
C1050 H1042 0.930 . S
C1050 C1049 1.362 . S
C1050 C1053 1.409 1_556 S
C1051 H1043 0.930 . S
C1051 C1052 1.355 1_565 S
C1051 C1053 1.415 . S
C1052 C1051 1.355 1_545 S
C1052 C1054 1.419 . S
C1053 C1048 1.425 1_564 S
C1053 C1050 1.409 1_554 S
C1053 C1051 1.415 . S
C1054 H1044 0.930 . S
C1054 C1052 1.419 . S
C1054 C1055 1.362 . S
C1055 H1045 0.930 . S
C1055 C1048 1.409 1_554 S
C1055 C1054 1.362 . S
H1056 C1062 0.930 . S
H1057 C1065 0.930 . S
H1058 C1066 0.930 . S
H1059 C1067 0.930 . S
H1060 C1070 0.930 . S
H1061 C1071 0.930 . S
C1062 H1056 0.930 . S
C1062 C1063 1.355 . S
C1062 C1064 1.415 . S
C1063 C1062 1.355 . S
C1063 C1065 1.419 1_545 S
C1064 C1062 1.415 . S
C1064 C1069 1.425 1_556 S
C1064 C1071 1.409 1_556 S
C1065 H1057 0.930 . S
C1065 C1063 1.419 1_565 S
C1065 C1066 1.362 . S
C1066 H1058 0.930 . S
C1066 C1065 1.362 . S
C1066 C1069 1.409 1_566 S
C1067 H1059 0.930 . S
C1067 C1068 1.355 1_565 S
C1067 C1069 1.415 1_565 S
C1068 C1067 1.355 1_545 S
C1068 C1070 1.419 . S
C1069 C1064 1.425 1_554 S
C1069 C1066 1.409 1_544 S
C1069 C1067 1.415 1_545 S
C1070 H1060 0.930 . S
C1070 C1068 1.419 . S
C1070 C1071 1.362 . S
C1071 H1061 0.930 . S
C1071 C1064 1.409 1_554 S
C1071 C1070 1.362 . S
H1072 C1078 0.930 . S
H1073 C1081 0.930 . S
H1074 C1082 0.930 . S
H1075 C1083 0.930 . S
H1076 C1086 0.930 . S
H1077 C1087 0.930 . S
C1078 H1072 0.930 . S
C1078 C1079 1.355 . S
C1078 C1080 1.415 . S
C1079 C1078 1.355 . S
C1079 C1081 1.419 . S
C1080 C1078 1.415 . S
C1080 C1085 1.425 . S
C1080 C1087 1.409 . S
C1081 H1073 0.930 . S
C1081 C1079 1.419 . S
C1081 C1082 1.362 . S
C1082 H1074 0.930 . S
C1082 C1081 1.362 . S
C1082 C1085 1.409 . S
C1083 H1075 0.930 . S
C1083 C1084 1.355 . S
C1083 C1085 1.415 . S
C1084 C1083 1.355 . S
C1084 C1086 1.419 . S
C1085 C1080 1.425 . S
C1085 C1082 1.409 . S
C1085 C1083 1.415 . S
C1086 H1076 0.930 . S
C1086 C1084 1.419 . S
C1086 C1087 1.362 . S
C1087 H1077 0.930 . S
C1087 C1080 1.409 . S
C1087 C1086 1.362 . S
H1088 C1094 0.930 . S
H1089 C1097 0.930 . S
H1090 C1098 0.930 . S
H1091 C1099 0.930 . S
H1092 C1102 0.930 . S
H1093 C1103 0.930 . S
C1094 H1088 0.930 . S
C1094 C1095 1.355 . S
C1094 C1096 1.415 . S
C1095 C1094 1.355 . S
C1095 C1097 1.419 . S
C1096 C1094 1.415 . S
C1096 C1101 1.425 . S
C1096 C1103 1.409 . S
C1097 H1089 0.930 . S
C1097 C1095 1.419 . S
C1097 C1098 1.362 . S
C1098 H1090 0.930 . S
C1098 C1097 1.362 . S
C1098 C1101 1.409 . S
C1099 H1091 0.930 . S
C1099 C1100 1.355 . S
C1099 C1101 1.415 . S
C1100 C1099 1.355 . S
C1100 C1102 1.419 . S
C1101 C1096 1.425 . S
C1101 C1098 1.409 . S
C1101 C1099 1.415 . S
C1102 H1092 0.930 . S
C1102 C1100 1.419 . S
C1102 C1103 1.362 . S
C1103 H1093 0.930 . S
C1103 C1096 1.409 . S
C1103 C1102 1.362 . S
H1104 C1110 0.930 . S
H1105 C1113 0.930 . S
H1106 C1114 0.930 . S
H1107 C1115 0.930 . S
H1108 C1118 0.930 . S
H1109 C1119 0.930 . S
C1110 H1104 0.930 . S
C1110 C1111 1.355 1_565 S
C1110 C1112 1.412 1_565 S
C1111 C1110 1.355 1_545 S
C1111 C1113 1.419 . S
C1112 C1110 1.412 1_545 S
C1112 C1117 1.440 . S
C1112 C1119 1.398 1_545 S
C1113 H1105 0.930 . S
C1113 C1111 1.419 . S
C1113 C1114 1.362 . S
C1114 H1106 0.930 . S
C1114 C1113 1.362 . S
C1114 C1117 1.409 . S
C1115 H1107 0.930 . S
C1115 C1116 1.355 . S
C1115 C1117 1.415 . S
C1116 C1115 1.355 . S
C1116 C1118 1.419 1_545 S
C1117 C1112 1.440 . S
C1117 C1114 1.409 . S
C1117 C1115 1.415 . S
C1118 H1108 0.930 . S
C1118 C1116 1.419 1_565 S
C1118 C1119 1.362 . S
C1119 H1109 0.930 . S
C1119 C1112 1.398 1_565 S
C1119 C1118 1.362 . S
H1120 C1126 0.930 . S
H1121 C1129 0.930 . S
H1122 C1130 0.930 . S
H1123 C1131 0.930 1_565 S
H1124 C1134 0.930 . S
H1125 C1135 0.930 . S
C1126 H1120 0.930 . S
C1126 C1127 1.355 . S
C1126 C1128 1.415 . S
C1127 C1126 1.355 . S
C1127 C1129 1.419 1_545 S
C1128 C1126 1.415 . S
C1128 C1133 1.425 . S
C1128 C1135 1.409 . S
C1129 H1121 0.930 . S
C1129 C1127 1.419 1_565 S
C1129 C1130 1.362 . S
C1130 H1122 0.930 . S
C1130 C1129 1.362 . S
C1130 C1133 1.409 1_565 S
C1131 H1123 0.930 1_545 S
C1131 C1132 1.355 . S
C1131 C1133 1.415 . S
C1132 C1131 1.355 . S
C1132 C1134 1.419 . S
C1133 C1128 1.425 . S
C1133 C1130 1.409 1_545 S
C1133 C1131 1.415 . S
C1134 H1124 0.930 . S
C1134 C1132 1.419 . S
C1134 C1135 1.362 . S
C1135 H1125 0.930 . S
C1135 C1128 1.409 . S
C1135 C1134 1.362 . S
H1136 C1142 0.930 . S
H1137 C1145 0.930 . S
H1138 C1146 0.930 . S
H1139 C1147 0.930 . S
H1140 C1150 0.930 . S
H1141 C1151 0.930 . S
C1142 H1136 0.930 . S
C1142 C1143 1.355 . S
C1142 C1144 1.415 . S
C1143 C1142 1.355 . S
C1143 C1145 1.419 . S
C1144 C1142 1.415 . S
C1144 C1149 1.425 1_554 S
C1144 C1151 1.409 1_554 S
C1145 H1137 0.930 . S
C1145 C1143 1.419 . S
C1145 C1146 1.362 . S
C1146 H1138 0.930 . S
C1146 C1145 1.362 . S
C1146 C1149 1.409 1_554 S
C1147 H1139 0.930 . S
C1147 C1148 1.355 . S
C1147 C1149 1.415 . S
C1148 C1147 1.355 . S
C1148 C1150 1.419 . S
C1149 C1144 1.425 1_556 S
C1149 C1146 1.409 1_556 S
C1149 C1147 1.415 . S
C1150 H1140 0.930 . S
C1150 C1148 1.419 . S
C1150 C1151 1.362 . S
C1151 H1141 0.930 . S
C1151 C1144 1.409 1_556 S
C1151 C1150 1.362 . S
H1152 C1158 0.930 . S
H1153 C1161 0.930 . S
H1154 C1162 0.930 . S
H1155 C1163 0.930 . S
H1156 C1166 0.930 . S
H1157 C1167 0.930 . S
C1158 H1152 0.930 . S
C1158 C1159 1.355 . S
C1158 C1160 1.415 . S
C1159 C1158 1.355 . S
C1159 C1161 1.419 . S
C1160 C1158 1.415 . S
C1160 C1165 1.425 1_556 S
C1160 C1167 1.409 1_556 S
C1161 H1153 0.930 . S
C1161 C1159 1.419 . S
C1161 C1162 1.362 . S
C1162 H1154 0.930 . S
C1162 C1161 1.362 . S
C1162 C1165 1.409 1_556 S
C1163 H1155 0.930 . S
C1163 C1164 1.355 . S
C1163 C1165 1.415 . S
C1164 C1163 1.355 . S
C1164 C1166 1.419 . S
C1165 C1160 1.425 1_554 S
C1165 C1162 1.409 1_554 S
C1165 C1163 1.415 . S
C1166 H1156 0.930 . S
C1166 C1164 1.419 . S
C1166 C1167 1.362 . S
C1167 H1157 0.930 . S
C1167 C1160 1.409 1_554 S
C1167 C1166 1.362 . S
C535 N13 1.579 . S
C540 N376 1.537 . S
C551 N46 1.581 1_565 S
C556 N343 1.527 1_565 S
C567 N310 1.561 1_565 S
C572 N79 1.509 1_565 S
C583 N277 1.560 . S
C588 N112 1.565 . S
C599 N145 1.576 . S
C604 N508 1.543 . S
C615 N178 1.531 . S
C620 N475 1.525 . S
C631 N442 1.557 . S
C636 N211 1.567 . S
C647 N409 1.560 . S
C652 N244 1.509 . S
C663 C18 1.070 . S
C668 C447 1.069 . S
C679 C414 1.107 . S
C684 C51 1.107 . S
C695 C84 1.101 . S
C700 C513 1.100 . S
C711 C480 1.074 . S
C716 C117 1.076 . S
C727 C106 1.619 . S
C732 C469 1.624 . S
C743 C502 1.610 . S
C748 C73 1.610 . S
C759 C403 1.639 . S
C764 C40 1.639 . S
C775 C7 1.637 . S
C780 C436 1.638 . S
C791 C150 1.081 . S
C796 C315 1.083 . S
C807 C183 1.089 . S
C812 C282 1.088 . S
C823 C216 1.066 . S
C828 C381 1.066 . S
C839 C249 1.089 . S
C844 C348 1.090 . S
C855 C238 1.634 . S
C860 C337 1.631 . S
C871 C205 1.620 . S
C876 C370 1.616 . S
C887 C172 1.612 . S
C892 C271 1.615 . S
C903 C139 1.638 . S
C908 C304 1.639 . S
C919 C54 1.487 . S
C924 C21 1.493 . S
C935 C87 1.493 . S
C940 C120 1.487 . S
C951 C186 1.485 . S
C956 C153 1.495 . S
C967 C252 1.491 . S
C972 C219 1.488 . S
C983 C318 1.491 . S
C988 C285 1.489 . S
C999 C384 1.491 . S
C1004 C351 1.488 . S
C1015 C417 1.495 . S
C1020 C450 1.485 . S
C1031 C516 1.495 . S
C1036 C483 1.485 . S
C1047 N68 1.435 . S
C1052 N2 1.444 . S
C1063 N101 1.499 . S
C1068 N35 1.478 . S
C1079 N134 1.505 . S
C1084 N200 1.489 . S
C1095 N233 1.503 . S
C1100 N167 1.485 . S
C1111 N266 1.445 . S
C1116 N332 1.435 . S
C1127 N365 1.496 . S
C1132 N299 1.509 . S
C1143 N398 1.445 . S
C1148 N464 1.435 . S
C1159 N497 1.441 . S
C1164 N431 1.435 . S
