# Generated by pormake.
# Topology sxg, (6)-cn, num edge types: 1
# Building blocks:
#     Node 0, Type 0, BuildingBlock: VOLQOD_clean_sbu_1, # of connection points: 6
#     Node 1, Type 0, BuildingBlock: VOLQOD_clean_sbu_1, # of connection points: 6
#     Node 2, Type 0, BuildingBlock: VOLQOD_clean_sbu_1, # of connection points: 6
#     Node 3, Type 0, BuildingBlock: VOLQOD_clean_sbu_1, # of connection points: 6
#     Node 4, Type 0, BuildingBlock: VOLQOD_clean_sbu_1, # of connection points: 6
#     Node 5, Type 0, BuildingBlock: VOLQOD_clean_sbu_1, # of connection points: 6
#     Node 6, Type 0, BuildingBlock: VOLQOD_clean_sbu_1, # of connection points: 6
#     Node 7, Type 0, BuildingBlock: VOLQOD_clean_sbu_1, # of connection points: 6
#     Node 8, Type 0, BuildingBlock: VOLQOD_clean_sbu_1, # of connection points: 6
#     Node 9, Type 0, BuildingBlock: VOLQOD_clean_sbu_1, # of connection points: 6
#     Node 10, Type 0, BuildingBlock: VOLQOD_clean_sbu_1, # of connection points: 6
#     Node 11, Type 0, BuildingBlock: VOLQOD_clean_sbu_1, # of connection points: 6
#     Node 12, Type 0, BuildingBlock: VOLQOD_clean_sbu_1, # of connection points: 6
#     Node 13, Type 0, BuildingBlock: VOLQOD_clean_sbu_1, # of connection points: 6
#     Node 14, Type 0, BuildingBlock: VOLQOD_clean_sbu_1, # of connection points: 6
#     Node 15, Type 0, BuildingBlock: VOLQOD_clean_sbu_1, # of connection points: 6
#     Node 16, Type 0, BuildingBlock: VOLQOD_clean_sbu_1, # of connection points: 6
#     Node 17, Type 0, BuildingBlock: VOLQOD_clean_sbu_1, # of connection points: 6
#     Node 18, Type 0, BuildingBlock: VOLQOD_clean_sbu_1, # of connection points: 6
#     Node 19, Type 0, BuildingBlock: VOLQOD_clean_sbu_1, # of connection points: 6
#     Node 20, Type 0, BuildingBlock: VOLQOD_clean_sbu_1, # of connection points: 6
#     Node 21, Type 0, BuildingBlock: VOLQOD_clean_sbu_1, # of connection points: 6
#     Node 22, Type 0, BuildingBlock: VOLQOD_clean_sbu_1, # of connection points: 6
#     Node 23, Type 0, BuildingBlock: VOLQOD_clean_sbu_1, # of connection points: 6
#     Edge 24, Type (0, 0), BuildingBlock: KIFKEQ_clean_linker_1, # of connection points: 2
#     Edge 25, Type (0, 0), BuildingBlock: KIFKEQ_clean_linker_1, # of connection points: 2
#     Edge 26, Type (0, 0), BuildingBlock: KIFKEQ_clean_linker_1, # of connection points: 2
#     Edge 27, Type (0, 0), BuildingBlock: KIFKEQ_clean_linker_1, # of connection points: 2
#     Edge 28, Type (0, 0), BuildingBlock: KIFKEQ_clean_linker_1, # of connection points: 2
#     Edge 29, Type (0, 0), BuildingBlock: KIFKEQ_clean_linker_1, # of connection points: 2
#     Edge 30, Type (0, 0), BuildingBlock: KIFKEQ_clean_linker_1, # of connection points: 2
#     Edge 31, Type (0, 0), BuildingBlock: KIFKEQ_clean_linker_1, # of connection points: 2
#     Edge 32, Type (0, 0), BuildingBlock: KIFKEQ_clean_linker_1, # of connection points: 2
#     Edge 33, Type (0, 0), BuildingBlock: KIFKEQ_clean_linker_1, # of connection points: 2
#     Edge 34, Type (0, 0), BuildingBlock: KIFKEQ_clean_linker_1, # of connection points: 2
#     Edge 35, Type (0, 0), BuildingBlock: KIFKEQ_clean_linker_1, # of connection points: 2
#     Edge 36, Type (0, 0), BuildingBlock: KIFKEQ_clean_linker_1, # of connection points: 2
#     Edge 37, Type (0, 0), BuildingBlock: KIFKEQ_clean_linker_1, # of connection points: 2
#     Edge 38, Type (0, 0), BuildingBlock: KIFKEQ_clean_linker_1, # of connection points: 2
#     Edge 39, Type (0, 0), BuildingBlock: KIFKEQ_clean_linker_1, # of connection points: 2
#     Edge 40, Type (0, 0), BuildingBlock: KIFKEQ_clean_linker_1, # of connection points: 2
#     Edge 41, Type (0, 0), BuildingBlock: KIFKEQ_clean_linker_1, # of connection points: 2
#     Edge 42, Type (0, 0), BuildingBlock: KIFKEQ_clean_linker_1, # of connection points: 2
#     Edge 43, Type (0, 0), BuildingBlock: KIFKEQ_clean_linker_1, # of connection points: 2
#     Edge 44, Type (0, 0), BuildingBlock: KIFKEQ_clean_linker_1, # of connection points: 2
#     Edge 45, Type (0, 0), BuildingBlock: KIFKEQ_clean_linker_1, # of connection points: 2
#     Edge 46, Type (0, 0), BuildingBlock: KIFKEQ_clean_linker_1, # of connection points: 2
#     Edge 47, Type (0, 0), BuildingBlock: KIFKEQ_clean_linker_1, # of connection points: 2
#     Edge 48, Type (0, 0), BuildingBlock: KIFKEQ_clean_linker_1, # of connection points: 2
#     Edge 49, Type (0, 0), BuildingBlock: KIFKEQ_clean_linker_1, # of connection points: 2
#     Edge 50, Type (0, 0), BuildingBlock: KIFKEQ_clean_linker_1, # of connection points: 2
#     Edge 51, Type (0, 0), BuildingBlock: KIFKEQ_clean_linker_1, # of connection points: 2
#     Edge 52, Type (0, 0), BuildingBlock: KIFKEQ_clean_linker_1, # of connection points: 2
#     Edge 53, Type (0, 0), BuildingBlock: KIFKEQ_clean_linker_1, # of connection points: 2
#     Edge 54, Type (0, 0), BuildingBlock: KIFKEQ_clean_linker_1, # of connection points: 2
#     Edge 55, Type (0, 0), BuildingBlock: KIFKEQ_clean_linker_1, # of connection points: 2
#     Edge 56, Type (0, 0), BuildingBlock: KIFKEQ_clean_linker_1, # of connection points: 2
#     Edge 57, Type (0, 0), BuildingBlock: KIFKEQ_clean_linker_1, # of connection points: 2
#     Edge 58, Type (0, 0), BuildingBlock: KIFKEQ_clean_linker_1, # of connection points: 2
#     Edge 59, Type (0, 0), BuildingBlock: KIFKEQ_clean_linker_1, # of connection points: 2
#     Edge 60, Type (0, 0), BuildingBlock: KIFKEQ_clean_linker_1, # of connection points: 2
#     Edge 61, Type (0, 0), BuildingBlock: KIFKEQ_clean_linker_1, # of connection points: 2
#     Edge 62, Type (0, 0), BuildingBlock: KIFKEQ_clean_linker_1, # of connection points: 2
#     Edge 63, Type (0, 0), BuildingBlock: KIFKEQ_clean_linker_1, # of connection points: 2
#     Edge 64, Type (0, 0), BuildingBlock: KIFKEQ_clean_linker_1, # of connection points: 2
#     Edge 65, Type (0, 0), BuildingBlock: KIFKEQ_clean_linker_1, # of connection points: 2
#     Edge 66, Type (0, 0), BuildingBlock: KIFKEQ_clean_linker_1, # of connection points: 2
#     Edge 67, Type (0, 0), BuildingBlock: KIFKEQ_clean_linker_1, # of connection points: 2
#     Edge 68, Type (0, 0), BuildingBlock: KIFKEQ_clean_linker_1, # of connection points: 2
#     Edge 69, Type (0, 0), BuildingBlock: KIFKEQ_clean_linker_1, # of connection points: 2
#     Edge 70, Type (0, 0), BuildingBlock: KIFKEQ_clean_linker_1, # of connection points: 2
#     Edge 71, Type (0, 0), BuildingBlock: KIFKEQ_clean_linker_1, # of connection points: 2
#     Edge 72, Type (0, 0), BuildingBlock: KIFKEQ_clean_linker_1, # of connection points: 2
#     Edge 73, Type (0, 0), BuildingBlock: KIFKEQ_clean_linker_1, # of connection points: 2
#     Edge 74, Type (0, 0), BuildingBlock: KIFKEQ_clean_linker_1, # of connection points: 2
#     Edge 75, Type (0, 0), BuildingBlock: KIFKEQ_clean_linker_1, # of connection points: 2
#     Edge 76, Type (0, 0), BuildingBlock: KIFKEQ_clean_linker_1, # of connection points: 2
#     Edge 77, Type (0, 0), BuildingBlock: KIFKEQ_clean_linker_1, # of connection points: 2
#     Edge 78, Type (0, 0), BuildingBlock: KIFKEQ_clean_linker_1, # of connection points: 2
#     Edge 79, Type (0, 0), BuildingBlock: KIFKEQ_clean_linker_1, # of connection points: 2
#     Edge 80, Type (0, 0), BuildingBlock: KIFKEQ_clean_linker_1, # of connection points: 2
#     Edge 81, Type (0, 0), BuildingBlock: KIFKEQ_clean_linker_1, # of connection points: 2
#     Edge 82, Type (0, 0), BuildingBlock: KIFKEQ_clean_linker_1, # of connection points: 2
#     Edge 83, Type (0, 0), BuildingBlock: KIFKEQ_clean_linker_1, # of connection points: 2
#     Edge 84, Type (0, 0), BuildingBlock: KIFKEQ_clean_linker_1, # of connection points: 2
#     Edge 85, Type (0, 0), BuildingBlock: KIFKEQ_clean_linker_1, # of connection points: 2
#     Edge 86, Type (0, 0), BuildingBlock: KIFKEQ_clean_linker_1, # of connection points: 2
#     Edge 87, Type (0, 0), BuildingBlock: KIFKEQ_clean_linker_1, # of connection points: 2
#     Edge 88, Type (0, 0), BuildingBlock: KIFKEQ_clean_linker_1, # of connection points: 2
#     Edge 89, Type (0, 0), BuildingBlock: KIFKEQ_clean_linker_1, # of connection points: 2
#     Edge 90, Type (0, 0), BuildingBlock: KIFKEQ_clean_linker_1, # of connection points: 2
#     Edge 91, Type (0, 0), BuildingBlock: KIFKEQ_clean_linker_1, # of connection points: 2
#     Edge 92, Type (0, 0), BuildingBlock: KIFKEQ_clean_linker_1, # of connection points: 2
#     Edge 93, Type (0, 0), BuildingBlock: KIFKEQ_clean_linker_1, # of connection points: 2
#     Edge 94, Type (0, 0), BuildingBlock: KIFKEQ_clean_linker_1, # of connection points: 2
#     Edge 95, Type (0, 0), BuildingBlock: KIFKEQ_clean_linker_1, # of connection points: 2
# Relax obj value: 0.328
# Max RMSD: 0.256
# Mean RMSD: 0.256
data_MOF--net-sxg--node1-VOLQOD_clean_sbu_1--edge1-KIFKEQ_clean_linker_1
_symmetry_space_group_name_H-M    P1
_symmetry_Int_Tables_number       1
_symmetry_cell_setting            triclinic
loop_
_symmetry_equiv_pos_as_xyz
'x, y, z'
_cell_length_a     47.886269
_cell_length_b     47.961109
_cell_length_c     47.990316
_cell_angle_alpha  89.996228
_cell_angle_beta   89.957131
_cell_angle_gamma 89.976811
loop_
_atom_site_label
_atom_site_type_symbol
_atom_site_fract_x
_atom_site_fract_y
_atom_site_fract_z
_atom_type_partial_charge
O0 O 0.06457 0.2704 0.24252 0.0
Zn1 Zn 0.05469 0.31096 0.23796 0.0
O2 O 0.03633 0.31621 0.20258 0.0
Zn3 Zn 0.05268 0.34586 0.18035 0.0
Zn4 Zn 0.03637 0.28239 0.18119 0.0
Zn5 Zn -0.00139 0.32599 0.21028 0.0
O6 O 0.02396 0.37642 0.17114 0.0
O7 O 0.99379 0.36643 0.20491 0.0
O8 O 0.08829 0.33627 0.24073 0.0
O9 O 0.08305 0.36311 0.20321 0.0
O10 O 0.07314 0.32996 0.14665 0.0
O11 O 0.06697 0.28451 0.15316 0.0
O12 O 0.00046 0.2799 0.1591 0.0
O13 O 0.02862 0.31883 0.27017 0.0
O14 O 0.97273 0.30849 0.18283 0.0
O15 O 0.98736 0.3183 0.24924 0.0
C16 C 0.05759 0.24829 0.22947 0.0
C17 C 0.00308 0.38292 0.18641 0.0
C18 C 0.07856 0.30466 0.14034 0.0
C19 C 0.09588 0.35682 0.22561 0.0
C20 C 0.97687 0.2917 0.16274 0.0
C21 C 0.00204 0.31881 0.27128 0.0
O22 O 0.04465 0.24926 0.2062 0.0
O23 O 0.43218 0.72502 0.73291 0.0
Zn24 Zn 0.44835 0.68804 0.72205 0.0
O25 O 0.45531 0.68745 0.68281 0.0
Zn26 Zn 0.44217 0.65334 0.66557 0.0
Zn27 Zn 0.4365 0.71778 0.66544 0.0
Zn28 Zn 0.49434 0.69288 0.67683 0.0
O29 O 0.47474 0.62912 0.65309 0.0
O30 O 0.51019 0.65714 0.66359 0.0
O31 O 0.42195 0.65735 0.73267 0.0
O32 O 0.4204 0.63175 0.69404 0.0
O33 O 0.41398 0.66205 0.63492 0.0
O34 O 0.40038 0.70365 0.65063 0.0
O35 O 0.45877 0.72915 0.63155 0.0
O36 O 0.48438 0.68463 0.74317 0.0
O37 O 0.50182 0.71959 0.64565 0.0
O38 O 0.51472 0.70141 0.71236 0.0
C39 C 0.42701 0.74751 0.71975 0.0
C40 C 0.50088 0.63405 0.65451 0.0
C41 C 0.39639 0.68206 0.63572 0.0
C42 C 0.41336 0.63609 0.71928 0.0
C43 C 0.48504 0.72909 0.62737 0.0
C44 C 0.50871 0.69347 0.73701 0.0
O45 O 0.42929 0.74886 0.69325 0.0
O46 O 0.54124 0.21225 0.73048 0.0
Zn47 Zn 0.5296 0.17216 0.73562 0.0
O48 O 0.52996 0.16306 0.7748 0.0
Zn49 Zn 0.55341 0.13079 0.78247 0.0
Zn50 Zn 0.54282 0.19391 0.7965 0.0
Zn51 Zn 0.49247 0.15586 0.78597 0.0
O52 O 0.52947 0.09568 0.78744 0.0
O53 O 0.48734 0.11529 0.78676 0.0
O54 O 0.55575 0.1473 0.7139 0.0
O55 O 0.57566 0.12315 0.74825 0.0
O56 O 0.58237 0.13921 0.81292 0.0
O57 O 0.58134 0.18547 0.80847 0.0
O58 O 0.52086 0.19784 0.83248 0.0
O59 O 0.49083 0.16885 0.72027 0.0
O60 O 0.48541 0.16927 0.82442 0.0
O61 O 0.46445 0.17015 0.75839 0.0
C62 C 0.54536 0.23249 0.74722 0.0
C63 C 0.50287 0.09387 0.78767 0.0
C64 C 0.59315 0.16327 0.81685 0.0
C65 C 0.57372 0.12983 0.72268 0.0
C66 C 0.4987 0.18554 0.84057 0.0
C67 C 0.46702 0.17078 0.73198 0.0
O68 O 0.54471 0.22903 0.77358 0.0
O69 O 0.92537 0.76297 0.23864 0.0
Zn70 Zn 0.94821 0.79563 0.2517 0.0
O71 O 0.95115 0.79572 0.29134 0.0
Zn72 Zn 0.94095 0.83119 0.3073 0.0
Zn73 Zn 0.92593 0.76939 0.30668 0.0
Zn74 Zn 0.98857 0.78568 0.30162 0.0
O75 O 0.97556 0.85238 0.31792 0.0
O76 O 0.00877 0.82066 0.31133 0.0
O77 O 0.93215 0.83167 0.23811 0.0
O78 O 0.92408 0.85496 0.27738 0.0
O79 O 0.91283 0.8259 0.33888 0.0
O80 O 0.89192 0.78902 0.32017 0.0
O81 O 0.94297 0.75297 0.34134 0.0
O82 O 0.98616 0.79105 0.23536 0.0
O83 O 0.9883 0.76138 0.33557 0.0
O84 O 0.01048 0.77057 0.26909 0.0
C85 C 0.9148 0.74225 0.25149 0.0
C86 C 0.00122 0.8454 0.31714 0.0
C87 C 0.89214 0.80919 0.33737 0.0
C88 C 0.92333 0.85321 0.25089 0.0
C89 C 0.96814 0.75135 0.34973 0.0
C90 C 0.00811 0.77876 0.24391 0.0
O91 O 0.91493 0.74089 0.27804 0.0
O92 O 0.24363 0.05717 0.25756 0.0
Zn93 Zn 0.24051 0.04412 0.29695 0.0
O94 O 0.20492 0.02657 0.30229 0.0
Zn95 Zn 0.18521 0.04094 0.33455 0.0
Zn96 Zn 0.18194 0.03076 0.26987 0.0
Zn97 Zn 0.21188 0.98782 0.30761 0.0
O98 O 0.17597 0.00949 0.36224 0.0
O99 O 0.20841 0.97958 0.34771 0.0
O100 O 0.2466 0.07444 0.32517 0.0
O101 O 0.21104 0.06711 0.35416 0.0
O102 O 0.15233 0.06536 0.32244 0.0
O103 O 0.15477 0.06144 0.27626 0.0
O104 O 0.15859 -0.00354 0.26512 0.0
O105 O 0.27198 0.0168 0.30064 0.0
O106 O 0.18195 0.96491 0.28971 0.0
O107 O 0.25039 0.9761 0.29672 0.0
C108 C 0.22938 0.0526 0.23561 0.0
C109 C 0.19102 0.98777 0.36595 0.0
C110 C 0.14417 0.07224 0.29804 0.0
C111 C 0.23366 0.07958 0.34782 0.0
C112 C 0.16124 0.97181 0.27461 0.0
C113 C 0.27272 0.99044 0.29779 0.0
O114 O 0.20549 0.04082 0.23642 0.0
O115 O 0.23357 0.93005 0.75493 0.0
Zn116 Zn 0.24199 0.95274 0.78921 0.0
O117 O 0.28042 0.9645 0.79034 0.0
Zn118 Zn 0.29786 0.95553 0.82598 0.0
Zn119 Zn 0.29957 0.94594 0.76075 0.0
Zn120 Zn 0.2831 0.00384 0.78269 0.0
O121 O 0.31021 0.99077 0.84649 0.0
O122 O 0.29423 0.02308 0.81739 0.0
O123 O 0.23158 0.9318 0.82394 0.0
O124 O 0.26901 0.93795 0.85078 0.0
O125 O 0.32893 0.9266 0.82022 0.0
O126 O 0.32009 0.91382 0.77635 0.0
O127 O 0.33002 0.97029 0.74599 0.0
O128 O 0.21762 0.9864 0.78666 0.0
O129 O 0.31498 0.01262 0.75666 0.0
O130 O 0.24583 0.02054 0.77272 0.0
C131 C 0.24754 0.92562 0.73277 0.0
C132 C 0.30548 0.01625 0.84036 0.0
C133 C 0.33265 0.91037 0.79942 0.0
C134 C 0.24421 0.92911 0.84713 0.0
C135 C 0.33334 -0.00342 0.746 0.0
C136 C 0.22148 0.01133 0.77838 0.0
O137 O 0.27318 0.93255 0.73094 0.0
O138 O 0.74153 0.42745 0.72141 0.0
Zn139 Zn 0.74388 0.43181 0.68047 0.0
O140 O 0.70815 0.44289 0.66666 0.0
Zn141 Zn 0.69373 0.41824 0.63836 0.0
Zn142 Zn 0.68154 0.44782 0.69612 0.0
Zn143 Zn 0.71413 0.47745 0.64891 0.0
O144 O 0.68906 0.43907 0.60122 0.0
O145 O 0.72216 0.47038 0.60928 0.0
O146 O 0.75713 0.39691 0.66164 0.0
O147 O 0.72195 0.38796 0.63261 0.0
O148 O 0.65867 0.39898 0.65227 0.0
O149 O 0.65491 0.41567 0.69541 0.0
O150 O 0.65799 0.48192 0.68837 0.0
O151 O 0.77236 0.46226 0.67744 0.0
O152 O 0.67917 0.49998 0.6513 0.0
O153 O 0.74627 0.49837 0.66498 0.0
C154 C 0.72521 0.43762 0.73974 0.0
C155 C 0.7064 0.45734 0.59249 0.0
C156 C 0.64703 0.39908 0.67623 0.0
C157 C 0.74568 0.38187 0.64298 0.0
C158 C 0.65893 0.49961 0.66852 0.0
C159 C 0.76915 0.48835 0.67387 0.0
O160 O 0.70161 0.44832 0.73342 0.0
O161 O 0.72172 0.53708 0.20612 0.0
Zn162 Zn 0.72461 0.52806 0.16529 0.0
O163 O 0.76366 0.52882 0.15493 0.0
Zn164 Zn 0.7689 0.55888 0.12861 0.0
Zn165 Zn 0.78776 0.53306 0.18649 0.0
Zn166 Zn 0.77326 0.49407 0.13813 0.0
O167 O 0.76632 0.54373 0.08902 0.0
O168 O 0.76823 0.49811 0.09751 0.0
O169 O 0.70182 0.55711 0.14433 0.0
O170 O 0.73666 0.58481 0.13127 0.0
O171 O 0.80309 0.58216 0.13786 0.0
O172 O 0.8087 0.56843 0.18188 0.0
O173 O 0.81901 0.50468 0.187 0.0
O174 O 0.70894 0.48934 0.16058 0.0
O175 O 0.81272 0.48316 0.14656 0.0
O176 O 0.74676 0.46419 0.15083 0.0
C177 C 0.7391 0.53813 0.22621 0.0
C178 C 0.76568 0.51847 0.08075 0.0
C179 C 0.81482 0.58445 0.16164 0.0
C180 C 0.71075 0.5803 0.13489 0.0
C181 C 0.8276 0.48828 0.16792 0.0
C182 C 0.72093 0.46586 0.15705 0.0
O183 O 0.76531 0.53518 0.22219 0.0
O184 O 0.27978 0.25578 0.06391 0.0
Zn185 Zn 0.32065 0.25274 0.05432 0.0
O186 O 0.32729 0.21695 0.03703 0.0
Zn187 Zn 0.35458 0.19453 0.05636 0.0
Zn188 Zn 0.2931 0.1965 0.03237 0.0
Zn189 Zn 0.34281 0.22335 0.0014 0.0
O190 O 0.38848 0.18537 0.03193 0.0
O191 O 0.38392 0.22157 0.0036 0.0
O192 O 0.34531 0.25737 0.08852 0.0
O193 O 0.36855 0.21716 0.08813 0.0
O194 O 0.33628 0.16074 0.07355 0.0
O195 O 0.29194 0.16609 0.0607 0.0
O196 O 0.29268 0.17645 -0.00462 0.0
O197 O 0.32722 0.28411 0.0267 0.0
O198 O 0.3307 0.19337 0.97501 0.0
O199 O 0.33337 0.26083 0.98718 0.0
C200 C 0.25804 0.24357 0.0545 0.0
C201 C 0.39865 0.20218 0.01397 0.0
C202 C 0.31072 0.15329 0.07441 0.0
C203 C 0.3635 0.24089 0.09892 0.0
C204 C 0.31023 0.17644 0.97538 0.0
C205 C 0.32989 0.28362 0.00026 0.0
O206 O 0.25985 0.22166 0.03944 0.0
O207 O 0.75351 0.25386 0.94147 0.0
Zn208 Zn 0.78593 0.27 0.96252 0.0
O209 O 0.78071 0.3093 0.96803 0.0
Zn210 Zn 0.81398 0.32904 0.95699 0.0
Zn211 Zn 0.74933 0.32243 0.94712 0.0
Zn212 Zn 0.77375 0.31605 0.00682 0.0
O213 O 0.83858 0.33592 0.9904 0.0
O214 O 0.8097 0.32635 0.02538 0.0
O215 O 0.8208 0.2618 0.94031 0.0
O216 O 0.83674 0.30455 0.93258 0.0
O217 O 0.80435 0.363 0.93386 0.0
O218 O 0.76296 0.34851 0.91801 0.0
O219 O 0.72547 0.34815 0.96991 0.0
O220 O 0.78693 0.25125 -0.00048 0.0
O221 O 0.74639 0.34754 0.01119 0.0
O222 O 0.76261 0.28064 0.02607 0.0
C223 C 0.73211 0.26435 0.92973 0.0
C224 C 0.83375 0.33311 0.01636 0.0
C225 C 0.78347 0.36538 0.91753 0.0
C226 C 0.83816 0.27835 0.92885 0.0
C227 C 0.72845 0.35777 -0.00556 0.0
C228 C 0.77406 0.25695 0.02207 0.0
O229 O 0.72758 0.29058 0.93004 0.0
O230 O 0.71364 0.73833 0.44047 0.0
Zn231 Zn 0.67462 0.72758 0.44946 0.0
O232 O 0.67334 0.68815 0.45521 0.0
Zn233 Zn 0.64472 0.67136 0.43241 0.0
Zn234 Zn 0.70864 0.671 0.44726 0.0
Zn235 Zn 0.66493 0.68225 0.49343 0.0
O236 O 0.60847 0.66679 0.45457 0.0
O237 O 0.62416 0.67757 0.49687 0.0
O238 O 0.65079 0.73938 0.41696 0.0
O239 O 0.63508 0.69825 0.40262 0.0
O240 O 0.65995 0.63754 0.41146 0.0
O241 O 0.70473 0.65011 0.4116 0.0
O242 O 0.71617 0.64014 0.47496 0.0
O243 O 0.66585 0.74834 0.48469 0.0
O244 O 0.68259 0.64697 0.50616 0.0
O245 O 0.67473 0.71583 0.5165 0.0
C246 C 0.73732 0.72633 0.43965 0.0
C247 C 0.60432 0.67131 0.48047 0.0
C248 C 0.68486 0.63522 0.40206 0.0
C249 C 0.63768 0.72441 0.39936 0.0
C250 C 0.70258 0.6324 0.49647 0.0
C251 C 0.6706 0.74125 0.50986 0.0
O252 O 0.73963 0.70003 0.44334 0.0
O253 O 0.19621 0.71412 0.54612 0.0
Zn254 Zn 0.15688 0.7201 0.53306 0.0
O255 O 0.1519 0.75894 0.52395 0.0
Zn256 Zn 0.1243 0.77715 0.54726 0.0
Zn257 Zn 0.18677 0.77793 0.52599 0.0
Zn258 Zn 0.13975 0.76166 0.48655 0.0
O259 O 0.0883 0.78564 0.52583 0.0
O260 O 0.09869 0.76174 0.48736 0.0
O261 O 0.12977 0.70789 0.56331 0.0
O262 O 0.11096 0.74891 0.57426 0.0
O263 O 0.14173 0.80866 0.57035 0.0
O264 O 0.18639 0.80053 0.56045 0.0
O265 O 0.19025 0.80656 0.49537 0.0
O266 O 0.15403 0.69658 0.4982 0.0
O267 O 0.15271 0.79769 0.46979 0.0
O268 O 0.15217 0.72843 0.46458 0.0
C269 C 0.21897 0.72685 0.54077 0.0
C270 C 0.08107 0.77364 0.5032 0.0
C271 C 0.16773 0.81284 0.5748 0.0
C272 C 0.11336 0.72278 0.57807 0.0
C273 C 0.17366 0.81296 0.4756 0.0
C274 C 0.15489 0.70319 0.47245 0.0
O275 O 0.21906 0.75093 0.52942 0.0
O276 O 0.9211 0.71429 0.75998 0.0
Zn277 Zn 0.93483 0.67523 0.76396 0.0
O278 O 0.94765 0.66919 0.80125 0.0
Zn279 Zn 0.92781 0.63918 0.82005 0.0
Zn280 Zn 0.94608 0.70331 0.82221 0.0
Zn281 Zn 0.98538 0.65767 0.79899 0.0
O282 O 0.9545 0.60816 0.83283 0.0
O283 O 0.98653 0.61673 0.80042 0.0
O284 O 0.90528 0.64748 0.75368 0.0
O285 O 0.90345 0.6206 0.79155 0.0
O286 O 0.90252 0.65529 0.85049 0.0
O287 O 0.91332 0.70034 0.84769 0.0
O288 O 0.98003 0.70671 0.84743 0.0
O289 O 0.96652 0.67158 0.73664 0.0
O290 O 0.00564 0.67092 0.83271 0.0
O291 O 0.00415 0.66851 0.76339 0.0
C292 C 0.92606 0.73679 0.77321 0.0
C293 C 0.97517 0.60042 0.81787 0.0
C294 C 0.89861 0.68065 0.85778 0.0
C295 C 0.89605 0.62626 0.76669 0.0
C296 C 0.00114 0.69063 0.84989 0.0
C297 C 0.99296 0.67076 0.73945 0.0
O298 O 0.93857 0.73657 0.79675 0.0
O299 O 0.56999 0.24654 0.26757 0.0
Zn300 Zn 0.55927 0.28687 0.26634 0.0
O301 O 0.55364 0.30068 0.30388 0.0
Zn302 Zn 0.57875 0.33211 0.31185 0.0
Zn303 Zn 0.55915 0.27095 0.33078 0.0
Zn304 Zn 0.51532 0.31244 0.30667 0.0
O305 O 0.55661 0.36878 0.3164 0.0
O306 O 0.51412 0.3534 0.30531 0.0
O307 O 0.58869 0.30886 0.24579 0.0
O308 O 0.6032 0.33827 0.27856 0.0
O309 O 0.60595 0.32261 0.34348 0.0
O310 O 0.59385 0.27861 0.35179 0.0
O311 O 0.52882 0.27037 0.36011 0.0
O312 O 0.52392 0.28806 0.24432 0.0
O313 O 0.49934 0.30199 0.34361 0.0
O314 O 0.49114 0.29897 0.27509 0.0
C315 C 0.57034 0.22791 0.28647 0.0
C316 C 0.53091 0.37314 0.31062 0.0
C317 C 0.60977 0.29938 0.35598 0.0
C318 C 0.60477 0.32833 0.25402 0.0
C319 C 0.50688 0.28518 0.36269 0.0
C320 C 0.49837 0.29161 0.25064 0.0
O321 O 0.56517 0.23367 0.31191 0.0
O322 O 0.43848 0.78929 0.24906 0.0
Zn323 Zn 0.46141 0.82274 0.23892 0.0
O324 O 0.4655 0.82483 0.19976 0.0
Zn325 Zn 0.46279 0.8625 0.18648 0.0
Zn326 Zn 0.43655 0.80463 0.18258 0.0
Zn327 Zn 0.50007 0.80818 0.18997 0.0
O328 O 0.50182 0.87807 0.17978 0.0
O329 O 0.52652 0.83895 0.18288 0.0
O330 O 0.44318 0.85739 0.25339 0.0
O331 O 0.44434 0.88531 0.21639 0.0
O332 O 0.43625 0.86299 0.15317 0.0
O333 O 0.40719 0.83184 0.17168 0.0
O334 O 0.45112 0.78924 0.14643 0.0
O335 O 0.49888 0.81632 0.25554 0.0
O336 O 0.49678 0.78628 0.15422 0.0
O337 O 0.51714 0.78868 0.22298 0.0
C338 C 0.42484 0.77165 0.23467 0.0
C339 C 0.5252 0.86523 0.17972 0.0
C340 C 0.41217 0.85154 0.15455 0.0
C341 C 0.43774 0.88062 0.24171 0.0
C342 C 0.47564 0.78269 0.13846 0.0
C343 C 0.51738 0.79893 0.24756 0.0
O344 O 0.42237 0.77433 0.20831 0.0
O345 O 0.05319 0.23185 0.77952 0.0
Zn346 Zn 0.03172 0.19797 0.76676 0.0
O347 O 0.0235 0.20109 0.72789 0.0
Zn348 Zn 0.03129 0.16815 0.70673 0.0
Zn349 Zn 0.04561 0.22983 0.71203 0.0
Zn350 Zn 0.98545 0.21025 0.72322 0.0
O351 O -0.00419 0.14626 0.69852 0.0
O352 O 0.96399 0.17556 0.71511 0.0
O353 O 0.05489 0.16318 0.77327 0.0
O354 O 0.05472 0.14397 0.7309 0.0
O355 O 0.05478 0.17845 0.67263 0.0
O356 O 0.07852 0.21242 0.69353 0.0
O357 O 0.02458 0.24666 0.68008 0.0
O358 O -0.00445 0.19968 0.78862 0.0
O359 O 0.98086 0.23473 0.68968 0.0
O360 O 0.97026 0.22498 0.75889 0.0
C361 C 0.0604 0.25442 0.76747 0.0
C362 C 0.97054 0.15205 0.70471 0.0
C363 C 0.0758 0.19482 0.67384 0.0
C364 C 0.06229 0.14398 0.75634 0.0
C365 C -0.0012 0.24614 0.67368 0.0
C366 C 0.97446 0.21511 0.78324 0.0
O367 O 0.05742 0.25764 0.74124 0.0
O368 O 0.72691 0.93073 0.71639 0.0
Zn369 Zn 0.73374 0.93898 0.6761 0.0
O370 O 0.77259 0.94971 0.67117 0.0
Zn371 Zn 0.79278 0.92433 0.64652 0.0
Zn372 Zn 0.79147 0.9529 0.70682 0.0
Zn373 Zn 0.77268 0.98522 0.65358 0.0
O374 O 0.80688 0.94327 0.61096 0.0
O375 O 0.77997 0.98089 0.61349 0.0
O376 O 0.72474 0.90503 0.65298 0.0
O377 O 0.76571 0.89552 0.6332 0.0
O378 O 0.82341 0.90412 0.6676 0.0
O379 O 0.81877 0.9214 0.71035 0.0
O380 O 0.81456 0.9886 0.70884 0.0
O381 O 0.70705 0.97041 0.66623 0.0
O382 O 0.80248 0.00946 0.66933 0.0
O383 O 0.73648 0.00465 0.65643 0.0
C384 C 0.73949 0.93702 0.73892 0.0
C385 C 0.7956 0.96457 0.59972 0.0
C386 C 0.83016 0.90448 0.69333 0.0
C387 C 0.73991 0.89021 0.63694 0.0
C388 C 0.81712 0.00856 0.69141 0.0
C389 C 0.71176 -0.00419 0.65999 0.0
O390 O 0.76374 0.94818 0.73869 0.0
O391 O 0.78613 0.05747 0.22653 0.0
Zn392 Zn 0.77591 0.04914 0.18723 0.0
O393 O 0.74014 0.03131 0.1873 0.0
Zn394 Zn 0.71246 0.04864 0.16396 0.0
Zn395 Zn 0.72531 0.02638 0.22427 0.0
Zn396 Zn 0.74598 -0.00339 0.17025 0.0
O397 O 0.6987 0.02246 0.13304 0.0
O398 O 0.7383 -0.00103 0.13 0.0
O399 O 0.77391 0.08394 0.16399 0.0
O400 O 0.73064 0.08182 0.14689 0.0
O401 O 0.68121 0.06426 0.18733 0.0
O402 O 0.69491 0.0547 0.23057 0.0
O403 O 0.70543 0.98898 0.22601 0.0
O404 O 0.80722 0.02351 0.17471 0.0
O405 O 0.71882 0.96992 0.18594 0.0
O406 O 0.78449 0.98324 0.17391 0.0
C407 C 0.77834 0.04806 0.25013 0.0
C408 C 0.71488 0.00594 0.11984 0.0
C409 C 0.67828 0.06666 0.21363 0.0
C410 C 0.75426 0.09387 0.14903 0.0
C411 C 0.70399 0.96949 0.20793 0.0
C412 C 0.8071 -0.00299 0.17282 0.0
O413 O 0.75616 0.03339 0.25283 0.0
O414 O 0.27157 0.5625 0.25488 0.0
Zn415 Zn 0.26983 0.54371 0.29183 0.0
O416 O 0.30703 0.53402 0.30355 0.0
Zn417 Zn 0.31663 0.55297 0.33828 0.0
Zn418 Zn 0.33349 0.54244 0.27431 0.0
Zn419 Zn 0.30839 0.49472 0.30956 0.0
O420 O 0.32401 0.52513 0.36987 0.0
O421 O 0.30438 0.488 0.34995 0.0
O422 O 0.24993 0.56814 0.31983 0.0
O423 O 0.28299 0.57359 0.35176 0.0
O424 O 0.3464 0.58282 0.33136 0.0
O425 O 0.35371 0.57638 0.28598 0.0
O426 O 0.36368 0.51272 0.27143 0.0
O427 O 0.24711 0.50929 0.28551 0.0
O428 O 0.34606 0.47999 0.29896 0.0
O429 O 0.27696 0.47426 0.29077 0.0
C430 C 0.28918 0.56277 0.23497 0.0
C431 C 0.31352 0.50067 0.3713 0.0
C432 C 0.35797 0.58983 0.3084 0.0
C433 C 0.2583 0.57795 0.34302 0.0
C434 C 0.36593 0.4894 0.28402 0.0
C435 C 0.25285 0.4834 0.28425 0.0
O436 O 0.31379 0.55287 0.238 0.0
O437 O 0.24945 0.43262 0.78405 0.0
Zn438 Zn 0.24837 0.45504 0.81929 0.0
O439 O 0.21073 0.46582 0.82721 0.0
Zn440 Zn 0.19901 0.45723 0.8649 0.0
Zn441 Zn 0.18571 0.449 0.80155 0.0
Zn442 Zn 0.20841 0.50477 0.82156 0.0
O443 O 0.19448 0.49288 0.88815 0.0
O444 O 0.21402 0.52234 0.85801 0.0
O445 O 0.26497 0.43434 0.85187 0.0
O446 O 0.2305 0.43676 0.88292 0.0
O447 O 0.16589 0.43002 0.86462 0.0
O448 O 0.1682 0.4167 0.82008 0.0
O449 O 0.15337 0.47472 0.79404 0.0
O450 O 0.27157 0.48857 0.81009 0.0
O451 O 0.1697 0.51508 0.80958 0.0
O452 O 0.23931 0.51944 0.79754 0.0
C453 C 0.23175 0.42878 0.7646 0.0
C454 C 0.20565 0.51638 0.88238 0.0
C455 C 0.15913 0.41355 0.84479 0.0
C456 C 0.25504 0.42918 0.876 0.0
C457 C 0.14984 0.50041 0.79976 0.0
C458 C 0.26472 0.5116 0.79875 0.0
O459 O 0.20619 0.43586 0.76731 0.0
O460 O 0.7002 0.73627 0.94332 0.0
Zn461 Zn 0.65957 0.74408 0.95112 0.0
O462 O 0.65469 0.78351 0.95863 0.0
Zn463 Zn 0.62763 0.80038 0.93357 0.0
Zn464 Zn 0.68956 0.80293 0.95528 0.0
Zn465 Zn 0.64194 0.78778 -0.00382 0.0
O466 O 0.5896 0.80558 0.95255 0.0
O467 O 0.60104 0.79205 -0.00459 0.0
O468 O 0.63754 0.73229 0.91702 0.0
O469 O 0.62064 0.77322 0.90314 0.0
O470 O 0.64359 0.83463 0.91396 0.0
O471 O 0.68873 0.82633 0.92101 0.0
O472 O 0.69369 0.83123 0.98589 0.0
O473 O 0.64959 0.72116 0.98514 0.0
O474 O 0.65788 0.82219 0.01385 0.0
O475 O 0.64872 0.75325 0.01859 0.0
C476 C 0.72264 0.75035 0.94582 0.0
C477 C 0.58298 0.79959 0.9776 0.0
C478 C 0.66929 0.83956 0.90865 0.0
C479 C 0.62452 0.74727 0.89932 0.0
C480 C 0.67867 0.83723 0.00697 0.0
C481 C 0.64836 0.72782 0.01086 0.0
O482 O 0.72212 0.77616 0.95231 0.0
O483 O 0.23249 0.78772 0.06243 0.0
Zn484 Zn 0.19362 0.77616 0.05249 0.0
O485 O 0.19504 0.73969 0.03653 0.0
Zn486 Zn 0.17251 0.71184 0.05453 0.0
Zn487 Zn 0.23258 0.72624 0.03419 0.0
Zn488 Zn 0.17945 0.74253 0.00068 0.0
O489 O 0.14186 0.69689 0.02861 0.0
O490 O 0.13902 0.7346 0.00211 0.0
O491 O 0.16789 0.77545 0.08602 0.0
O492 O 0.15434 0.73089 0.08668 0.0
O493 O 0.19666 0.68133 0.07099 0.0
O494 O 0.23927 0.69876 0.06509 0.0
O495 O 0.23627 0.70321 -0.00084 0.0
O496 O 0.18296 0.80535 0.02377 0.0
O497 O 0.19643 0.71276 0.97739 0.0
O498 O 0.18363 0.78027 0.98478 0.0
C499 C 0.25638 0.78066 0.05297 0.0
C500 C 0.12875 0.71192 0.011 0.0
C501 C 0.22289 0.6807 0.07569 0.0
C502 C 0.15414 0.7554 0.09697 0.0
C503 C 0.21888 0.69869 0.97953 0.0
C504 C 0.18229 0.80359 -0.00273 0.0
O505 O 0.2598 0.75831 0.03885 0.0
O506 O 0.25256 0.23859 0.55539 0.0
Zn507 Zn 0.29268 0.24132 0.54541 0.0
O508 O 0.30072 0.27971 0.53725 0.0
Zn509 Zn 0.33047 0.29402 0.56067 0.0
Zn510 Zn 0.26781 0.30307 0.53973 0.0
Zn511 Zn 0.31335 0.2803 0.4999 0.0
O512 O 0.36682 0.29993 0.5389 0.0
O513 O 0.35445 0.27821 0.49982 0.0
O514 O 0.31561 0.22702 0.57756 0.0
O515 O 0.33909 0.26523 0.58935 0.0
O516 O 0.3173 0.32721 0.58304 0.0
O517 O 0.27175 0.32679 0.57364 0.0
O518 O 0.26716 0.33128 0.50792 0.0
O519 O 0.29703 0.21673 0.51178 0.0
O520 O 0.30282 0.31625 0.4824 0.0
O521 O 0.29976 0.24794 0.4778 0.0
C522 C 0.23094 0.25388 0.55318 0.0
C523 C 0.37298 0.28864 0.5156 0.0
C524 C 0.2925 0.33587 0.58752 0.0
C525 C 0.33246 0.23989 0.59353 0.0
C526 C 0.2841 0.33435 0.48757 0.0
C527 C 0.29693 0.22287 0.48596 0.0
O528 O 0.23264 0.27929 0.54518 0.0
O529 O 0.80678 0.23894 0.44477 0.0
Zn530 Zn 0.84419 0.23254 0.46249 0.0
O531 O 0.85113 0.19312 0.46524 0.0
Zn532 Zn 0.88697 0.18345 0.44914 0.0
Zn533 Zn 0.8215 0.17178 0.44868 0.0
Zn534 Zn 0.8515 0.1839 0.5037 0.0
O535 O 0.91696 0.17982 0.47909 0.0
O536 O 0.89036 0.18441 0.51677 0.0
O537 O 0.87378 0.25173 0.4395 0.0
O538 O 0.9005 0.21585 0.42717 0.0
O539 O 0.8825 0.15061 0.42237 0.0
O540 O 0.83652 0.15375 0.41469 0.0
O541 O 0.81137 0.13807 0.4723 0.0
O542 O 0.84158 0.24951 0.50074 0.0
O543 O 0.83722 0.14576 0.50977 0.0
O544 O 0.8315 0.21234 0.52654 0.0
C545 C 0.78662 0.22325 0.43745 0.0
C546 C 0.9142 0.1822 0.50541 0.0
C547 C 0.86051 0.14392 0.40883 0.0
C548 C 0.89454 0.24169 0.42624 0.0
C549 C 0.82135 0.13003 0.49557 0.0
C550 C 0.83323 0.23865 0.52352 0.0
O551 O 0.78854 0.19669 0.43882 0.0
H552 H 0.12961 0.35054 0.27149 0.0
H553 H 0.1172 0.40193 0.19844 0.0
H554 H 0.16872 0.38021 0.28543 0.0
H555 H 0.15623 0.43107 0.21223 0.0
H556 H 0.2013 0.49635 0.26415 0.0
H557 H 0.16439 0.46461 0.25027 0.0
H558 H 0.21713 0.39427 0.27001 0.0
H559 H 0.25431 0.42616 0.28435 0.0
C560 C 0.13526 0.36802 0.25836 0.0
C561 C 0.12011 0.37398 0.23398 0.0
C562 C 0.15774 0.38487 0.26626 0.0
C563 C 0.16534 0.40801 0.24999 0.0
C564 C 0.15055 0.41361 0.22539 0.0
C565 C 0.12822 0.39681 0.21747 0.0
C566 C 0.20515 0.47414 0.26555 0.0
C567 C 0.23081 0.4638 0.27531 0.0
C568 C 0.18401 0.45596 0.25744 0.0
C569 C 0.18796 0.427 0.25894 0.0
C570 C 0.21351 0.41653 0.26882 0.0
C571 C 0.23481 0.43478 0.27684 0.0
H572 H 0.26142 0.56698 0.78575 0.0
H573 H 0.31814 0.49678 0.78593 0.0
H574 H 0.29869 0.59676 0.76771 0.0
H575 H 0.35521 0.5266 0.76785 0.0
H576 H 0.39934 0.58361 0.70248 0.0
H577 H 0.36365 0.55323 0.72234 0.0
H578 H 0.34617 0.61479 0.78564 0.0
H579 H 0.38195 0.64527 0.76592 0.0
C580 C 0.28177 0.5579 0.78185 0.0
C581 C 0.28687 0.52957 0.78723 0.0
C582 C 0.3031 0.57498 0.77176 0.0
C583 C 0.32974 0.56391 0.76653 0.0
C584 C 0.33478 0.53555 0.77162 0.0
C585 C 0.31359 0.51857 0.78205 0.0
C586 C 0.38805 0.59059 0.72076 0.0
C587 C 0.3934 0.61684 0.73261 0.0
C588 C 0.36771 0.57317 0.73214 0.0
C589 C 0.35215 0.58182 0.75537 0.0
C590 C 0.35776 0.60783 0.76753 0.0
C591 C 0.37836 0.62513 0.75637 0.0
H592 H 0.55964 0.09601 0.67953 0.0
H593 H 0.62973 0.13119 0.7236 0.0
H594 H 0.59137 0.06401 0.65489 0.0
H595 H 0.66136 0.10006 0.69872 0.0
H596 H 0.65645 0.98757 0.67271 0.0
H597 H 0.62078 0.02361 0.67837 0.0
H598 H 0.67917 0.08594 0.64986 0.0
H599 H 0.71476 0.05024 0.64407 0.0
C600 C 0.58193 0.09755 0.68305 0.0
C601 C 0.59252 0.11594 0.70316 0.0
C602 C 0.59995 0.07924 0.66918 0.0
C603 C 0.62871 0.07969 0.67494 0.0
C604 C 0.63933 0.09956 0.69364 0.0
C605 C 0.62132 0.11731 0.70788 0.0
C606 C 0.66147 0.00884 0.667 0.0
C607 C 0.68862 0.01614 0.65863 0.0
C608 C 0.64099 0.0294 0.67001 0.0
C609 C 0.64743 0.0575 0.66476 0.0
C610 C 0.67383 0.06443 0.65423 0.0
C611 C 0.6942 0.04395 0.65109 0.0
H612 H 0.91952 0.85807 0.19416 0.0
H613 H 0.90462 0.90307 0.27087 0.0
H614 H 0.90094 0.89736 0.1677 0.0
H615 H 0.88572 0.94185 0.24453 0.0
H616 H 0.85648 0.01191 0.19701 0.0
H617 H 0.89354 0.97955 0.21056 0.0
H618 H 0.85289 0.91392 0.16407 0.0
H619 H 0.81641 0.94618 0.15031 0.0
C620 C 0.91243 0.87635 0.20537 0.0
C621 C 0.91305 0.87724 0.23466 0.0
C622 C 0.90198 0.89888 0.1902 0.0
C623 C 0.89199 0.9227 0.20402 0.0
C624 C 0.89375 0.92402 0.23321 0.0
C625 C 0.90416 0.90156 0.24836 0.0
C626 C 0.85621 0.99089 0.18875 0.0
C627 C 0.83337 0.98125 0.17319 0.0
C628 C 0.87726 0.97233 0.19666 0.0
C629 C 0.8757 0.94408 0.18892 0.0
C630 C 0.85471 0.93552 0.1704 0.0
C631 C 0.83368 0.95395 0.16266 0.0
H632 H 0.29545 0.22796 0.42923 0.0
H633 H 0.28721 0.16764 0.49577 0.0
H634 H 0.28275 0.19225 0.39542 0.0
H635 H 0.27491 0.13198 0.46184 0.0
H636 H 0.21415 0.09201 0.39966 0.0
H637 H 0.2328 0.12555 0.43258 0.0
H638 H 0.29816 0.14699 0.37432 0.0
H639 H 0.27931 0.11343 0.34093 0.0
C640 C 0.29128 0.20704 0.43662 0.0
C641 C 0.29199 0.20072 0.46522 0.0
C642 C 0.28419 0.18658 0.41722 0.0
C643 C 0.27763 0.15948 0.42609 0.0
C644 C 0.27947 0.15286 0.45453 0.0
C645 C 0.28661 0.17326 0.47392 0.0
C646 C 0.23251 0.10381 0.39377 0.0
C647 C 0.24521 0.10008 0.36762 0.0
C648 C 0.24332 0.12286 0.41277 0.0
C649 C 0.26702 0.13868 0.40605 0.0
C650 C 0.27978 0.13509 0.37993 0.0
C651 C 0.26902 0.11586 0.36089 0.0
H652 H 0.24632 0.94327 0.90183 0.0
H653 H 0.20989 0.88419 0.8447 0.0
H654 H 0.22441 0.91929 0.94086 0.0
H655 H 0.1899 0.85863 0.88353 0.0
H656 H 0.14955 0.81712 0.95329 0.0
H657 H 0.15872 0.85331 0.91883 0.0
H658 H 0.23026 0.88027 0.96705 0.0
H659 H 0.2192 0.84577 0.00238 0.0
C660 C 0.23369 0.92498 0.89775 0.0
C661 C 0.2299 0.91534 0.87043 0.0
C662 C 0.22124 0.9111 0.9201 0.0
C663 C 0.2055 0.88671 0.91565 0.0
C664 C 0.20126 0.8776 0.88802 0.0
C665 C 0.21299 0.89202 0.86565 0.0
C666 C 0.16657 0.83159 0.9568 0.0
C667 C 0.1837 0.82889 0.98028 0.0
C668 C 0.17217 0.85204 0.9369 0.0
C669 C 0.19577 0.86937 0.93955 0.0
C670 C 0.21174 0.86768 0.96417 0.0
C671 C 0.20551 0.84783 0.98451 0.0
H672 H 0.84643 0.29338 0.53076 0.0
H673 H 0.80012 0.22548 0.56793 0.0
H674 H 0.82801 0.32511 0.56595 0.0
H675 H 0.78156 0.25746 0.60303 0.0
H676 H 0.72299 0.33646 0.61793 0.0
H677 H 0.74765 0.29873 0.59449 0.0
H678 H 0.82659 0.33434 0.61939 0.0
H679 H 0.80188 0.37218 0.6432 0.0
C680 C 0.83258 0.28518 0.54664 0.0
C681 C 0.82439 0.25707 0.54642 0.0
C682 C 0.8223 0.30327 0.56691 0.0
C683 C 0.80341 0.29362 0.58708 0.0
C684 C 0.79609 0.2653 0.58759 0.0
C685 C 0.8067 0.24709 0.56754 0.0
C686 C 0.74559 0.33601 0.61879 0.0
C687 C 0.76057 0.35737 0.63207 0.0
C688 C 0.75967 0.3143 0.60561 0.0
C689 C 0.78895 0.31379 0.60517 0.0
C690 C 0.80397 0.33444 0.61946 0.0
C691 C 0.78985 0.35597 0.63308 0.0
H692 H 0.6619 0.5732 0.10632 0.0
H693 H 0.71687 0.63591 0.14013 0.0
H694 H 0.63752 0.60925 0.07938 0.0
H695 H 0.69282 0.67166 0.11356 0.0
H696 H 0.64479 0.73403 0.06742 0.0
H697 H 0.6501 0.69801 0.10281 0.0
H698 H 0.65629 0.63546 0.03837 0.0
H699 H 0.65059 0.67131 0.00293 0.0
C700 C 0.66803 0.5948 0.10877 0.0
C701 C 0.69131 0.60188 0.12504 0.0
C702 C 0.65429 0.61535 0.09322 0.0
C703 C 0.66344 0.64322 0.09415 0.0
C704 C 0.68508 0.65047 0.11252 0.0
C705 C 0.69897 0.62998 0.12766 0.0
C706 C 0.64683 0.71255 0.06076 0.0
C707 C 0.64788 0.70563 0.0323 0.0
C708 C 0.64979 0.69193 0.08107 0.0
C709 C 0.65383 0.66396 0.07337 0.0
C710 C 0.65293 0.65679 0.04499 0.0
C711 C 0.64998 0.67741 0.02465 0.0
H712 H 0.3633 0.2912 0.12685 0.0
H713 H 0.40133 0.20933 0.12689 0.0
H714 H 0.39437 0.30519 0.1651 0.0
H715 H 0.43185 0.22334 0.16454 0.0
H716 H 0.50644 0.26952 0.1991 0.0
H717 H 0.4716 0.25898 0.16399 0.0
H718 H 0.40679 0.29126 0.21759 0.0
H719 H 0.4419 0.30202 0.25324 0.0
C720 C 0.378 0.27616 0.13512 0.0
C721 C 0.38009 0.24929 0.12352 0.0
C722 C 0.39565 0.28414 0.15701 0.0
C723 C 0.41567 0.26542 0.16737 0.0
C724 C 0.4169 0.23831 0.15656 0.0
C725 C 0.39932 0.23032 0.13497 0.0
C726 C 0.48483 0.27454 0.20351 0.0
C727 C 0.47693 0.28639 0.22911 0.0
C728 C 0.46488 0.26842 0.18339 0.0
C729 C 0.43656 0.2741 0.18826 0.0
C730 C 0.42856 0.28675 0.21341 0.0
C731 C 0.4486 0.29272 0.23379 0.0
H732 H 0.87555 0.3084 0.89857 0.0
H733 H 0.85009 0.22367 0.91636 0.0
H734 H 0.90918 0.29128 0.86483 0.0
H735 H 0.88416 0.2066 0.88222 0.0
H736 H 0.97108 0.19306 0.83595 0.0
H737 H 0.93871 0.20678 0.87312 0.0
H738 H 0.90092 0.26707 0.81801 0.0
H739 H 0.93285 0.25362 0.78108 0.0
C740 C 0.87722 0.28609 0.89545 0.0
C741 C 0.85989 0.26739 0.90995 0.0
C742 C 0.89645 0.27635 0.87606 0.0
C743 C 0.89895 0.24771 0.87082 0.0
C744 C 0.88255 0.2288 0.88602 0.0
C745 C 0.86303 0.23859 0.90539 0.0
C746 C 0.9558 0.20918 0.8318 0.0
C747 C 0.95463 0.22237 0.80564 0.0
C748 C 0.93726 0.21688 0.85298 0.0
C749 C 0.91761 0.23808 0.84836 0.0
C750 C 0.91618 0.2509 0.82214 0.0
C751 C 0.93441 0.24308 0.80098 0.0
H752 H 0.52451 0.81781 0.30058 0.0
H753 H 0.55985 0.76147 0.23958 0.0
H754 H 0.55834 0.80209 0.3347 0.0
H755 H 0.59421 0.7461 0.27387 0.0
H756 H 0.63252 0.78007 0.38714 0.0
H757 H 0.60813 0.80062 0.34738 0.0
H758 H 0.58937 0.71814 0.31636 0.0
H759 H 0.61394 0.69769 0.35542 0.0
C760 C 0.5397 0.80227 0.29433 0.0
C761 C 0.53922 0.79054 0.26749 0.0
C762 C 0.5593 0.79352 0.31384 0.0
C763 C 0.57885 0.77287 0.30693 0.0
C764 C 0.57913 0.76188 0.27978 0.0
C765 C 0.55948 0.77066 0.2602 0.0
C766 C 0.62345 0.76638 0.37164 0.0
C767 C 0.62482 0.73729 0.37462 0.0
C768 C 0.60949 0.77813 0.34895 0.0
C769 C 0.59683 0.76094 0.32887 0.0
C770 C 0.59923 0.73191 0.3313 0.0
C771 C 0.61305 0.72021 0.35391 0.0
H772 H 0.06319 0.74161 0.59521 0.0
H773 H 0.12285 0.67544 0.60917 0.0
H774 H 0.0343 0.72396 0.6327 0.0
H775 H 0.09346 0.65754 0.64731 0.0
H776 H 0.05018 0.67025 0.73675 0.0
H777 H 0.07929 0.67736 0.69551 0.0
H778 H 0.00532 0.68222 0.64437 0.0
H779 H 0.97618 0.67546 0.68534 0.0
C780 C 0.07004 0.72311 0.60623 0.0
C781 C 0.09538 0.71 0.59946 0.0
C782 C 0.05333 0.71286 0.62755 0.0
C783 C 0.06161 0.68935 0.6428 0.0
C784 C 0.0867 0.67577 0.63581 0.0
C785 C 0.10338 0.68588 0.61401 0.0
C786 C 0.04013 0.67258 0.71667 0.0
C787 C 0.01084 0.67281 0.71441 0.0
C788 C 0.05683 0.67635 0.69306 0.0
C789 C 0.0445 0.68049 0.66686 0.0
C790 C 0.01531 0.67936 0.66442 0.0
C791 C -0.00135 0.67556 0.68792 0.0
H792 H 0.85149 0.63727 0.73321 0.0
H793 H 0.90192 0.57043 0.76607 0.0
H794 H 0.8222 0.60344 0.70899 0.0
H795 H 0.87464 0.53668 0.74007 0.0
H796 H 0.80238 0.48061 0.71858 0.0
H797 H 0.83327 0.5141 0.74013 0.0
H798 H 0.81673 0.57237 0.67314 0.0
H799 H 0.78377 0.53925 0.65296 0.0
C800 C 0.85639 0.61528 0.73491 0.0
C801 C 0.87847 0.60624 0.75176 0.0
C802 C 0.83989 0.59585 0.72079 0.0
C803 C 0.84583 0.5671 0.72255 0.0
C804 C 0.86872 0.55842 0.73879 0.0
C805 C 0.88452 0.57774 0.75362 0.0
C806 C 0.80567 0.50046 0.70829 0.0
C807 C 0.79084 0.5074 0.68411 0.0
C808 C 0.82355 0.51974 0.72057 0.0
C809 C 0.82771 0.54617 0.70848 0.0
C810 C 0.81364 0.55257 0.6835 0.0
C811 C 0.79502 0.53351 0.67168 0.0
H812 H 0.59852 0.33627 0.19801 0.0
H813 H 0.65562 0.34973 0.26631 0.0
H814 H 0.62842 0.36473 0.16767 0.0
H815 H 0.68563 0.37743 0.23597 0.0
H816 H 0.6644 0.45896 0.15652 0.0
H817 H 0.63818 0.41906 0.17421 0.0
H818 H 0.71531 0.37514 0.18961 0.0
H819 H 0.74168 0.41485 0.1715 0.0
C820 C 0.61783 0.34464 0.20627 0.0
C821 C 0.62474 0.34107 0.23449 0.0
C822 C 0.63481 0.36091 0.18899 0.0
C823 C 0.65925 0.37314 0.19956 0.0
C824 C 0.66704 0.36797 0.22727 0.0
C825 C 0.6498 0.35231 0.24465 0.0
C826 C 0.67574 0.44054 0.16306 0.0
C827 C 0.70508 0.44015 0.16299 0.0
C828 C 0.66073 0.41765 0.17295 0.0
C829 C 0.67481 0.39417 0.18333 0.0
C830 C 0.70406 0.39307 0.18172 0.0
C831 C 0.71908 0.41578 0.17135 0.0
H832 H 0.41211 0.87453 0.29228 0.0
H833 H 0.42304 0.93289 0.2244 0.0
H834 H 0.37523 0.90385 0.31143 0.0
H835 H 0.38603 0.96191 0.2435 0.0
H836 H 0.32396 0.01455 0.29056 0.0
H837 H 0.36855 0.99101 0.2831 0.0
H838 H 0.32761 0.9112 0.29138 0.0
H839 H 0.28316 0.93455 0.29903 0.0
C840 C 0.40713 0.89389 0.28178 0.0
C841 C 0.42013 0.90111 0.25651 0.0
C842 C 0.38593 0.91058 0.29271 0.0
C843 C 0.37752 0.93485 0.27869 0.0
C844 C 0.39214 0.94333 0.25478 0.0
C845 C 0.41325 0.92659 0.24376 0.0
C846 C 0.32454 0.99198 0.29111 0.0
C847 C 0.29999 0.97638 0.29511 0.0
C848 C 0.35005 0.97856 0.28683 0.0
C849 C 0.35151 0.94934 0.28674 0.0
C850 C 0.32717 0.93378 0.29176 0.0
C851 C 0.30165 0.94716 0.29583 0.0
H852 H 0.16646 -0.00301 0.78039 0.0
H853 H 0.22145 0.06819 0.77345 0.0
H854 H 0.12616 0.02796 0.77978 0.0
H855 H 0.1809 0.09913 0.77271 0.0
H856 H 0.10245 0.14758 0.79664 0.0
H857 H 0.14064 0.11447 0.80462 0.0
H858 H 0.10532 0.05906 0.74309 0.0
H859 H 0.06742 0.0919 0.73512 0.0
C860 C 0.16997 0.01924 0.7787 0.0
C861 C 0.19716 0.03015 0.77679 0.0
C862 C 0.14688 0.03692 0.77839 0.0
C863 C 0.15049 0.06587 0.77639 0.0
C864 C 0.17762 0.07687 0.77468 0.0
C865 C 0.20077 0.05915 0.77474 0.0
C866 C 0.10256 0.12801 0.78537 0.0
C867 C 0.08214 0.1223 0.76518 0.0
C868 C 0.1245 0.10927 0.78971 0.0
C869 C 0.12598 0.08441 0.77426 0.0
C870 C 0.1046 0.07802 0.75535 0.0
C871 C 0.08297 0.09684 0.75075 0.0
H872 H 0.69059 0.86271 0.6471 0.0
H873 H 0.76043 0.86627 0.58999 0.0
H874 H 0.66918 0.8261 0.61828 0.0
H875 H 0.73879 0.83045 0.56136 0.0
H876 H 0.67347 0.79726 0.5009 0.0
H877 H 0.68705 0.83309 0.53411 0.0
H878 H 0.68968 0.77182 0.59982 0.0
H879 H 0.67642 0.7354 0.56649 0.0
C880 C 0.70135 0.85568 0.62852 0.0
C881 C 0.72717 0.86735 0.62078 0.0
C882 C 0.68915 0.83479 0.61218 0.0
C883 C 0.70237 0.82585 0.58767 0.0
C884 C 0.72821 0.83728 0.58013 0.0
C885 C 0.7406 0.85766 0.59661 0.0
C886 C 0.6764 0.79135 0.52248 0.0
C887 C 0.67426 0.76337 0.53097 0.0
C888 C 0.68416 0.81191 0.54143 0.0
C889 C 0.68948 0.80499 0.56929 0.0
C890 C 0.68554 0.77749 0.57837 0.0
C891 C 0.67811 0.75674 0.55928 0.0
H892 H 0.74064 0.25599 0.06834 0.0
H893 H 0.80526 0.20974 0.02543 0.0
H894 H 0.7377 0.219 0.1033 0.0
H895 H 0.80214 0.17302 0.06015 0.0
H896 H 0.80354 0.12081 0.13853 0.0
H897 H 0.80999 0.16355 0.11148 0.0
H898 H 0.72084 0.16915 0.09906 0.0
H899 H 0.71426 0.1268 0.12602 0.0
C900 C 0.75432 0.23809 0.06649 0.0
C901 C 0.77291 0.23556 0.04399 0.0
C902 C 0.75263 0.217 0.08644 0.0
C903 C 0.76972 0.1933 0.08432 0.0
C904 C 0.78897 0.19127 0.06241 0.0
C905 C 0.79049 0.21215 0.04237 0.0
C906 C 0.78534 0.13133 0.13023 0.0
C907 C 0.75845 0.1203 0.13406 0.0
C908 C 0.78904 0.15571 0.1148 0.0
C909 C 0.76589 0.16951 0.1033 0.0
C910 C 0.73898 0.15904 0.108 0.0
C911 C 0.73529 0.13461 0.12316 0.0
H912 H 0.16031 0.70937 0.41594 0.0
H913 H 0.16667 0.6482 0.48188 0.0
H914 H 0.18097 0.67623 0.38336 0.0
H915 H 0.18704 0.61514 0.44916 0.0
H916 H 0.26502 0.59053 0.39778 0.0
H917 H 0.23445 0.61772 0.42753 0.0
H918 H 0.17708 0.62916 0.35907 0.0
H919 H 0.20796 0.60168 0.32887 0.0
C920 C 0.16553 0.68869 0.42337 0.0
C921 C 0.16233 0.68163 0.45166 0.0
C922 C 0.17722 0.66967 0.40463 0.0
C923 C 0.18597 0.64331 0.41386 0.0
C924 C 0.18088 0.63553 0.44163 0.0
C925 C 0.16913 0.65447 0.46033 0.0
C926 C 0.24587 0.59872 0.38896 0.0
C927 C 0.239 0.59408 0.36088 0.0
C928 C 0.2282 0.61406 0.40614 0.0
C929 C 0.20328 0.62534 0.39567 0.0
C930 C 0.1962 0.62066 0.36764 0.0
C931 C 0.21382 0.60494 0.35041 0.0
H932 H 0.31603 0.33582 0.01916 0.0
H933 H 0.33713 0.29011 0.94436 0.0
H934 H 0.30445 0.3765 0.99086 0.0
H935 H 0.32485 0.33021 0.91629 0.0
H936 H 0.30781 0.40776 0.86948 0.0
H937 H 0.33304 0.37773 0.90193 0.0
H938 H 0.2649 0.38441 0.96067 0.0
H939 H 0.24018 0.4148 0.92888 0.0
C940 C 0.31859 0.33456 -0.00323 0.0
C941 C 0.32696 0.30957 0.98397 0.0
C942 C 0.31188 0.35781 0.98057 0.0
C943 C 0.3134 0.35645 0.95133 0.0
C944 C 0.32366 0.33208 0.93875 0.0
C945 C 0.33042 0.30894 0.95489 0.0
C946 C 0.29844 0.40313 0.88949 0.0
C947 C 0.27178 0.41328 0.89638 0.0
C948 C 0.31287 0.38593 0.90806 0.0
C949 C 0.30089 0.37857 0.93379 0.0
C950 C 0.27492 0.38996 0.94121 0.0
C951 C 0.26057 0.40715 0.92276 0.0
H952 H 0.5041 0.67691 0.79135 0.0
H953 H 0.56166 0.71443 0.73282 0.0
H954 H 0.53726 0.68499 0.82894 0.0
H955 H 0.59487 0.72216 0.77049 0.0
H956 H 0.61439 0.77377 0.85065 0.0
H957 H 0.5908 0.75564 0.80981 0.0
H958 H 0.5852 0.67456 0.84865 0.0
H959 H 0.60905 0.69291 0.89005 0.0
C960 C 0.52397 0.6865 0.7864 0.0
C961 C 0.53002 0.69552 0.75917 0.0
C962 C 0.54308 0.69084 0.80792 0.0
C963 C 0.56853 0.70434 0.80262 0.0
C964 C 0.57524 0.71195 0.77515 0.0
C965 C 0.5562 0.70754 0.75362 0.0
C966 C 0.60845 0.75197 0.85041 0.0
C967 C 0.61322 0.73481 0.87364 0.0
C968 C 0.59519 0.74152 0.82687 0.0
C969 C 0.58618 0.71371 0.82607 0.0
C970 C 0.59187 0.69614 0.84885 0.0
C971 C 0.60556 0.70657 0.87242 0.0
H972 H 0.01325 0.80213 0.19255 0.0
H973 H 0.05661 0.7491 0.25126 0.0
H974 H 0.05214 0.79833 0.16037 0.0
H975 H 0.09581 0.7454 0.21868 0.0
H976 H 0.13403 0.71642 0.13286 0.0
H977 H 0.10152 0.72338 0.17115 0.0
H978 H 0.1028 0.81219 0.15629 0.0
H979 H 0.13541 0.80528 0.11762 0.0
C980 C 0.03108 0.78963 0.19863 0.0
C981 C 0.03174 0.77571 0.22441 0.0
C982 C 0.05351 0.78778 0.18028 0.0
C983 C 0.07702 0.7718 0.18718 0.0
C984 C 0.07784 0.75786 0.21293 0.0
C985 C 0.05543 0.75994 0.2315 0.0
C986 C 0.12762 0.73749 0.13788 0.0
C987 C 0.13693 0.7603 0.12197 0.0
C988 C 0.10921 0.74145 0.16 0.0
C989 C 0.09959 0.76827 0.16652 0.0
C990 C 0.10979 0.79125 0.15144 0.0
C991 C 0.12847 0.78732 0.12942 0.0
H992 H 0.46182 0.15877 0.67684 0.0
H993 H 0.41611 0.19162 0.7473 0.0
H994 H 0.42295 0.17037 0.6463 0.0
H995 H 0.37715 0.20337 0.71649 0.0
H996 H 0.34333 0.18412 0.59882 0.0
H997 H 0.37086 0.16172 0.63565 0.0
H998 H 0.37785 0.24074 0.67824 0.0
H999 H 0.35077 0.26304 0.64161 0.0
C1000 C 0.4433 0.16812 0.68586 0.0
C1001 C 0.44215 0.17474 0.71435 0.0
C1002 C 0.42094 0.17444 0.66842 0.0
C1003 C 0.39715 0.18778 0.6791 0.0
C1004 C 0.39536 0.19313 0.70782 0.0
C1005 C 0.41762 0.18644 0.72538 0.0
C1006 C 0.35031 0.19649 0.61637 0.0
C1007 C 0.34534 0.22533 0.61724 0.0
C1008 C 0.36602 0.18373 0.63734 0.0
C1009 C 0.37642 0.19956 0.65967 0.0
C1010 C 0.36982 0.22801 0.6614 0.0
C1011 C 0.35459 0.24081 0.64029 0.0
H1012 H 0.94693 0.23069 0.40783 0.0
H1013 H 0.88273 0.29409 0.40649 0.0
H1014 H 0.97462 0.25768 0.37537 0.0
H1015 H 0.91094 0.32154 0.3739 0.0
H1016 H 0.9462 0.32305 0.28143 0.0
H1017 H 0.92196 0.31189 0.32443 0.0
H1018 H 0.00112 0.30051 0.36606 0.0
H1019 H 0.02557 0.31118 0.32273 0.0
C1020 C 0.9389 0.25064 0.40088 0.0
C1021 C 0.9124 0.26003 0.40925 0.0
C1022 C 0.95499 0.26632 0.38257 0.0
C1023 C 0.94493 0.29172 0.37208 0.0
C1024 C 0.91909 0.30192 0.38158 0.0
C1025 C 0.90298 0.28625 0.40018 0.0
C1026 C 0.9585 0.31867 0.29985 0.0
C1027 C 0.9878 0.31726 0.29851 0.0
C1028 C 0.94457 0.3126 0.32461 0.0
C1029 C 0.95966 0.305 0.34848 0.0
C1030 C 0.989 0.30593 0.3478 0.0
C1031 C 0.00297 0.31204 0.323 0.0
H1032 H 0.14295 0.12206 0.32512 0.0
H1033 H 0.10156 0.07467 0.26098 0.0
H1034 H 0.11828 0.1639 0.31025 0.0
H1035 H 0.07522 0.11584 0.24718 0.0
H1036 H 0.06751 0.19932 0.20223 0.0
H1037 H 0.08386 0.15565 0.22204 0.0
H1038 H 0.07935 0.19158 0.30466 0.0
H1039 H 0.06471 0.23576 0.2844 0.0
C1040 C 0.12767 0.12043 0.30856 0.0
C1041 C 0.1242 0.09528 0.29409 0.0
C1042 C 0.11344 0.14443 0.29994 0.0
C1043 C 0.095 0.14359 0.27703 0.0
C1044 C 0.08989 0.11768 0.26422 0.0
C1045 C 0.10465 0.09392 0.27237 0.0
C1046 C 0.06985 0.19776 0.22463 0.0
C1047 C 0.0651 0.221 0.24172 0.0
C1048 C 0.07902 0.17259 0.23613 0.0
C1049 C 0.08305 0.16982 0.26513 0.0
C1050 C 0.07715 0.19291 0.28226 0.0
C1051 C 0.06859 0.21826 0.27066 0.0
H1052 H 0.38543 0.91325 0.78067 0.0
H1053 H 0.32502 0.85714 0.81652 0.0
H1054 H 0.41348 0.87355 0.76519 0.0
H1055 H 0.35281 0.81727 0.80093 0.0
H1056 H 0.41461 0.7503 0.77533 0.0
H1057 H 0.39747 0.79035 0.80153 0.0
H1058 H 0.40133 0.84068 0.72701 0.0
H1059 H 0.41863 0.80075 0.70075 0.0
C1060 C 0.37892 0.89237 0.78637 0.0
C1061 C 0.35346 0.88806 0.80016 0.0
C1062 C 0.39468 0.86968 0.77715 0.0
C1063 C 0.38511 0.84233 0.78145 0.0
C1064 C 0.36083 0.83809 0.79746 0.0
C1065 C 0.34501 0.86085 0.80659 0.0
C1066 C 0.41204 0.76996 0.76453 0.0
C1067 C 0.41784 0.77226 0.73583 0.0
C1068 C 0.40219 0.79287 0.77959 0.0
C1069 C 0.39817 0.81866 0.76639 0.0
C1070 C 0.40465 0.82117 0.73789 0.0
C1071 C 0.41431 0.79821 0.72276 0.0
H1072 H 0.60905 0.40045 0.71858 0.0
H1073 H 0.6368 0.34981 0.64945 0.0
H1074 H 0.57848 0.36294 0.73395 0.0
H1075 H 0.60709 0.31186 0.66539 0.0
H1076 H 0.54312 0.24996 0.69292 0.0
H1077 H 0.56185 0.29303 0.6735 0.0
H1078 H 0.58598 0.31957 0.75614 0.0
H1079 H 0.56644 0.27716 0.77555 0.0
C1080 C 0.60844 0.38137 0.70653 0.0
C1081 C 0.62557 0.37797 0.68298 0.0
C1082 C 0.59103 0.35979 0.71543 0.0
C1083 C 0.59062 0.33416 0.70121 0.0
C1084 C 0.60662 0.33136 0.67675 0.0
C1085 C 0.62379 0.3531 0.66764 0.0
C1086 C 0.55204 0.26521 0.70697 0.0
C1087 C 0.55348 0.26 0.73578 0.0
C1088 C 0.56292 0.28984 0.69581 0.0
C1089 C 0.57568 0.30972 0.71317 0.0
C1090 C 0.57599 0.30498 0.74211 0.0
C1091 C 0.5649 0.2805 0.75328 0.0
H1092 H 0.8146 0.63814 0.14207 0.0
H1093 H 0.86032 0.58096 0.19447 0.0
H1094 H 0.84177 0.67708 0.16114 0.0
H1095 H 0.88774 0.61941 0.21291 0.0
H1096 H 0.89251 0.69391 0.27147 0.0
H1097 H 0.8721 0.65589 0.2451 0.0
H1098 H 0.88852 0.69984 0.16825 0.0
H1099 H 0.90878 0.73839 0.19474 0.0
C1100 C 0.83107 0.63384 0.15692 0.0
C1101 C 0.83515 0.60674 0.16717 0.0
C1102 C 0.84657 0.65606 0.16787 0.0
C1103 C 0.86637 0.65129 0.18901 0.0
C1104 C 0.87209 0.62379 0.19722 0.0
C1105 C 0.85653 0.60178 0.18654 0.0
C1106 C 0.89187 0.69555 0.24896 0.0
C1107 C 0.90236 0.71919 0.23525 0.0
C1108 C 0.88036 0.67363 0.23381 0.0
C1109 C 0.87905 0.67475 0.20457 0.0
C1110 C 0.88926 0.69845 0.19076 0.0
C1111 C 0.90091 0.72044 0.20596 0.0
H1112 H 0.28358 0.04909 0.22023 0.0
H1113 H 0.20244 0.07468 0.19071 0.0
H1114 H 0.30495 0.06642 0.17763 0.0
H1115 H 0.22383 0.09393 0.14881 0.0
H1116 H 0.26526 0.11939 0.07043 0.0
H1117 H 0.2466 0.0887 0.10637 0.0
H1118 H 0.31667 0.1093 0.15946 0.0
H1119 H 0.33593 0.13841 0.12291 0.0
C1120 C 0.27036 0.05853 0.20451 0.0
C1121 C 0.24147 0.06091 0.20873 0.0
C1122 C 0.28259 0.06862 0.18017 0.0
C1123 C 0.26628 0.08207 0.15985 0.0
C1124 C 0.23711 0.0834 0.16371 0.0
C1125 C 0.22479 0.0726 0.18781 0.0
C1126 C 0.27691 0.11676 0.0896 0.0
C1127 C 0.30193 0.13136 0.09401 0.0
C1128 C 0.26611 0.09939 0.11032 0.0
C1129 C 0.2798 0.09677 0.1361 0.0
C1130 C 0.30563 0.11035 0.13982 0.0
C1131 C 0.3167 0.12721 0.11887 0.0
H1132 H 0.26621 0.92262 0.67913 0.0
H1133 H 0.19739 0.89816 0.73206 0.0
H1134 H 0.24454 0.89875 0.64005 0.0
H1135 H 0.17616 0.87334 0.69309 0.0
H1136 H 0.13635 0.84607 0.61007 0.0
H1137 H 0.15385 0.87633 0.64742 0.0
H1138 H 0.23831 0.85122 0.62788 0.0
H1139 H 0.22128 0.82214 0.59071 0.0
C1140 C 0.24649 0.91207 0.68245 0.0
C1141 C 0.23373 0.912 0.70879 0.0
C1142 C 0.23407 0.89832 0.66005 0.0
C1143 C 0.20876 0.88381 0.66351 0.0
C1144 C 0.19551 0.88449 0.68963 0.0
C1145 C 0.20782 0.89853 0.71202 0.0
C1146 C 0.15863 0.84726 0.6137 0.0
C1147 C 0.17734 0.83176 0.59726 0.0
C1148 C 0.16866 0.86446 0.63514 0.0
C1149 C 0.19753 0.86641 0.64046 0.0
C1150 C 0.21603 0.85083 0.62399 0.0
C1151 C 0.20614 0.83389 0.60269 0.0
H1152 H 0.69453 0.42963 0.78708 0.0
H1153 H 0.77812 0.44552 0.75741 0.0
H1154 H 0.7128 0.42141 0.83379 0.0
H1155 H 0.79641 0.43876 0.80423 0.0
H1156 H 0.81606 0.37143 0.87195 0.0
H1157 H 0.80363 0.398 0.83055 0.0
H1158 H 0.73489 0.43578 0.8754 0.0
H1159 H 0.74685 0.40795 0.91626 0.0
C1160 C 0.71669 0.43215 0.79082 0.0
C1161 C 0.73501 0.43752 0.76872 0.0
C1162 C 0.72724 0.42768 0.81759 0.0
C1163 C 0.75622 0.42905 0.82272 0.0
C1164 C 0.77413 0.43684 0.8009 0.0
C1165 C 0.76365 0.44075 0.77412 0.0
C1166 C 0.79904 0.38629 0.87314 0.0
C1167 C 0.78232 0.38778 0.89697 0.0
C1168 C 0.79181 0.40156 0.84945 0.0
C1169 C 0.76784 0.41867 0.84946 0.0
C1170 C 0.753 0.42228 0.87447 0.0
C1171 C 0.76 0.40666 0.89794 0.0
H1172 H 0.68787 0.55887 0.24033 0.0
H1173 H 0.76689 0.53379 0.27586 0.0
H1174 H 0.67334 0.57736 0.2852 0.0
H1175 H 0.75187 0.55126 0.32112 0.0
H1176 H 0.7357 0.62533 0.37885 0.0
H1177 H 0.74679 0.59683 0.33897 0.0
H1178 H 0.66048 0.57111 0.33311 0.0
H1179 H 0.64902 0.6008 0.37303 0.0
C1180 C 0.70191 0.5567 0.25788 0.0
C1181 C 0.72876 0.5453 0.2544 0.0
C1182 C 0.69346 0.56716 0.28372 0.0
C1183 C 0.71157 0.56619 0.30674 0.0
C1184 C 0.73766 0.55298 0.30366 0.0
C1185 C 0.74624 0.54285 0.27774 0.0
C1186 C 0.71898 0.6135 0.36931 0.0
C1187 C 0.69136 0.61562 0.37907 0.0
C1188 C 0.72547 0.59682 0.34649 0.0
C1189 C 0.70459 0.58152 0.33279 0.0
C1190 C 0.67704 0.58286 0.34302 0.0
C1191 C 0.67047 0.59976 0.36595 0.0
H1192 H 0.24629 0.2881 0.08805 0.0
H1193 H 0.20663 0.22504 0.03732 0.0
H1194 H 0.20079 0.30492 0.10273 0.0
H1195 H 0.16091 0.24246 0.05152 0.0
H1196 H 0.09223 0.25369 0.11921 0.0
H1197 H 0.13409 0.24112 0.09374 0.0
H1198 H 0.15792 0.32793 0.0897 0.0
H1199 H 0.11614 0.34054 0.11608 0.0
C1200 C 0.22786 0.27802 0.07971 0.0
C1201 C 0.23017 0.25496 0.06175 0.0
C1202 C 0.2017 0.2879 0.08793 0.0
C1203 C 0.17714 0.27505 0.07834 0.0
C1204 C 0.17942 0.25262 0.05958 0.0
C1205 C 0.20563 0.24265 0.05141 0.0
C1206 C 0.1061 0.27022 0.11253 0.0
C1207 C 0.10101 0.2981 0.12009 0.0
C1208 C 0.13009 0.263 0.09769 0.0
C1209 C 0.14958 0.28346 0.08994 0.0
C1210 C 0.14356 0.31159 0.09583 0.0
C1211 C 0.11949 0.31885 0.11074 0.0
H1212 H 0.69278 0.27907 0.8914 0.0
H1213 H 0.72813 0.20741 0.93316 0.0
H1214 H 0.6632 0.24833 0.86388 0.0
H1215 H 0.6981 0.1766 0.90555 0.0
H1216 H 0.60623 0.14706 0.86996 0.0
H1217 H 0.64294 0.16849 0.89873 0.0
H1218 H 0.67471 0.21123 0.82618 0.0
H1219 H 0.63829 0.19005 0.79778 0.0
C1220 C 0.69412 0.2568 0.89486 0.0
C1221 C 0.71291 0.24571 0.91436 0.0
C1222 C 0.67734 0.23918 0.87895 0.0
C1223 C 0.67871 0.2101 0.88239 0.0
C1224 C 0.69679 0.19894 0.90247 0.0
C1225 C 0.71395 0.21659 0.91817 0.0
C1226 C 0.62192 0.15998 0.86007 0.0
C1227 C 0.61963 0.16697 0.83177 0.0
C1228 C 0.64271 0.17241 0.8765 0.0
C1229 C 0.66116 0.19194 0.86468 0.0
C1230 C 0.66042 0.19662 0.83584 0.0
C1231 C 0.63982 0.18429 0.81957 0.0
H1232 H 0.7923 0.71005 0.43467 0.0
H1233 H 0.73805 0.7819 0.4278 0.0
H1234 H 0.83098 0.73786 0.41611 0.0
H1235 H 0.77648 0.80914 0.40904 0.0
H1236 H 0.8368 0.81443 0.32862 0.0
H1237 H 0.79999 0.79906 0.36034 0.0
H1238 H 0.86146 0.78453 0.42449 0.0
H1239 H 0.89826 0.80106 0.39285 0.0
C1240 C 0.78872 0.7318 0.42972 0.0
C1241 C 0.76195 0.74355 0.43231 0.0
C1242 C 0.81089 0.74774 0.4193 0.0
C1243 C 0.80655 0.77556 0.41111 0.0
C1244 C 0.78027 0.78772 0.41515 0.0
C1245 C 0.75828 0.77198 0.42582 0.0
C1246 C 0.84218 0.80926 0.34993 0.0
C1247 C 0.87012 0.80923 0.35855 0.0
C1248 C 0.82123 0.80031 0.36802 0.0
C1249 C 0.82803 0.79043 0.39473 0.0
C1250 C 0.8558 0.79202 0.40396 0.0
C1251 C 0.87672 0.80173 0.38604 0.0
H1252 H 0.34448 0.69032 0.65528 0.0
H1253 H 0.39029 0.6718 0.58006 0.0
H1254 H 0.30156 0.69517 0.62832 0.0
H1255 H 0.34714 0.67756 0.55267 0.0
H1256 H 0.27229 0.74286 0.52721 0.0
H1257 H 0.31585 0.72508 0.5471 0.0
H1258 H 0.26937 0.66464 0.59487 0.0
H1259 H 0.22591 0.68193 0.57492 0.0
C1260 C 0.34514 0.68682 0.63297 0.0
C1261 C 0.37043 0.6806 0.61963 0.0
C1262 C 0.32066 0.68951 0.6176 0.0
C1263 C 0.32117 0.68671 0.5885 0.0
C1264 C 0.34635 0.67973 0.57513 0.0
C1265 C 0.37084 0.6763 0.59071 0.0
C1266 C 0.2714 0.72545 0.54156 0.0
C1267 C 0.24561 0.71408 0.54977 0.0
C1268 C 0.29632 0.71514 0.55271 0.0
C1269 C 0.2958 0.69358 0.57249 0.0
C1270 C 0.27021 0.6813 0.57965 0.0
C1271 C 0.24538 0.69129 0.56823 0.0
H1272 H 0.84308 0.89401 0.74778 0.0
H1273 H 0.86187 0.86702 0.66389 0.0
H1274 H 0.87026 0.85551 0.7663 0.0
H1275 H 0.88998 0.82897 0.6825 0.0
H1276 H 0.89743 0.74364 0.72469 0.0
H1277 H 0.87897 0.7862 0.70504 0.0
H1278 H 0.91475 0.83338 0.77293 0.0
H1279 H 0.93272 0.7902 0.79331 0.0
C1280 C 0.85348 0.8802 0.73324 0.0
C1281 C 0.84993 0.88339 0.70431 0.0
C1282 C 0.86928 0.85818 0.74392 0.0
C1283 C 0.88209 0.83892 0.72593 0.0
C1284 C 0.87988 0.84308 0.69697 0.0
C1285 C 0.86388 0.86499 0.68627 0.0
C1286 C 0.9016 0.76304 0.73547 0.0
C1287 C 0.91644 0.76341 0.76075 0.0
C1288 C 0.89119 0.78759 0.72396 0.0
C1289 C 0.89544 0.81331 0.73728 0.0
C1290 C 0.91086 0.81387 0.76226 0.0
C1291 C 0.92124 0.78915 0.7739 0.0
H1292 H 0.65621 0.06823 0.26629 0.0
H1293 H 0.65184 0.10849 0.1859 0.0
H1294 H 0.62402 0.10277 0.28532 0.0
H1295 H 0.62118 0.14373 0.20502 0.0
H1296 H 0.55806 0.20043 0.23863 0.0
H1297 H 0.57819 0.15683 0.22213 0.0
H1298 H 0.62437 0.14925 0.29927 0.0
H1299 H 0.60256 0.19187 0.31629 0.0
C1300 C 0.64826 0.0844 0.25267 0.0
C1301 C 0.65663 0.0857 0.22463 0.0
C1302 C 0.62995 0.10433 0.26361 0.0
C1303 C 0.62001 0.1263 0.24686 0.0
C1304 C 0.62779 0.12693 0.21856 0.0
C1305 C 0.64563 0.10676 0.20755 0.0
C1306 C 0.57205 0.18901 0.25222 0.0
C1307 C 0.57898 0.19952 0.27859 0.0
C1308 C 0.58383 0.16416 0.24271 0.0
C1309 C 0.60351 0.1497 0.25902 0.0
C1310 C 0.60916 0.15953 0.28612 0.0
C1311 C 0.59677 0.18406 0.29591 0.0
H1312 H 0.42234 0.76086 0.29073 0.0
H1313 H 0.40297 0.72503 0.21033 0.0
H1314 H 0.4093 0.71705 0.31333 0.0
H1315 H 0.38996 0.68153 0.23298 0.0
H1316 H 0.40131 0.59969 0.27378 0.0
H1317 H 0.41812 0.6451 0.25866 0.0
H1318 H 0.36641 0.68502 0.32068 0.0
H1319 H 0.34955 0.63918 0.33604 0.0
C1320 C 0.41506 0.74378 0.27789 0.0
C1321 C 0.4139 0.74638 0.24866 0.0
C1322 C 0.40759 0.71875 0.29088 0.0
C1323 C 0.39913 0.69581 0.27487 0.0
C1324 C 0.39699 0.69874 0.24579 0.0
C1325 C 0.40421 0.72376 0.23283 0.0
C1326 C 0.39413 0.6181 0.28475 0.0
C1327 C 0.37392 0.61599 0.30587 0.0
C1328 C 0.40353 0.64408 0.2759 0.0
C1329 C 0.39293 0.66854 0.28797 0.0
C1330 C 0.37476 0.66643 0.31093 0.0
C1331 C 0.36529 0.64024 0.31986 0.0
H1332 H 0.07923 0.25244 0.82138 0.0
H1333 H 0.06697 0.30883 0.75217 0.0
H1334 H 0.09826 0.29078 0.84913 0.0
H1335 H 0.08584 0.3469 0.77987 0.0
H1336 H 0.10373 0.41559 0.83605 0.0
H1337 H 0.07518 0.37559 0.8225 0.0
H1338 H 0.14246 0.32014 0.84533 0.0
H1339 H 0.17083 0.36028 0.85896 0.0
C1340 C 0.08043 0.27301 0.81214 0.0
C1341 C 0.07173 0.27756 0.78448 0.0
C1342 C 0.09128 0.29491 0.82806 0.0
C1343 C 0.09321 0.32186 0.81679 0.0
C1344 C 0.08409 0.32646 0.78933 0.0
C1345 C 0.0736 0.30456 0.77332 0.0
C1346 C 0.11172 0.39474 0.83962 0.0
C1347 C 0.13919 0.39082 0.84891 0.0
C1348 C 0.09561 0.3719 0.83147 0.0
C1349 C 0.10683 0.34483 0.83238 0.0
C1350 C 0.13323 0.34075 0.84452 0.0
C1351 C 0.1494 0.36366 0.85255 0.0
H1352 H 0.63519 0.86883 0.87281 0.0
H1353 H 0.72179 0.85656 0.89512 0.0
H1354 H 0.64973 0.89871 0.83412 0.0
H1355 H 0.73617 0.88531 0.85634 0.0
H1356 H 0.75822 0.94754 0.79201 0.0
H1357 H 0.73853 0.93022 0.8356 0.0
H1358 H 0.67146 0.89104 0.78986 0.0
H1359 H 0.69044 0.90907 0.74665 0.0
C1360 C 0.65725 0.87268 0.86966 0.0
C1361 C 0.67729 0.86001 0.8869 0.0
C1362 C 0.66561 0.88968 0.84741 0.0
C1363 C 0.69416 0.89432 0.84197 0.0
C1364 C 0.71402 0.88261 0.86003 0.0
C1365 C 0.70571 0.86578 0.88219 0.0
C1366 C 0.73904 0.9356 0.79132 0.0
C1367 C 0.72617 0.9294 0.76577 0.0
C1368 C 0.72779 0.92556 0.8163 0.0
C1369 C 0.70356 0.90893 0.81626 0.0
C1370 C 0.68995 0.904 0.79081 0.0
C1371 C 0.70105 0.91417 0.76592 0.0
H1372 H 0.76357 0.04763 0.3054 0.0
H1373 H 0.83283 0.06387 0.24998 0.0
H1374 H 0.79111 0.06504 0.34448 0.0
H1375 H 0.86053 0.08053 0.289 0.0
H1376 H 0.84586 0.09003 0.41341 0.0
H1377 H 0.83092 0.06001 0.37504 0.0
H1378 H 0.85839 0.12257 0.31621 0.0
H1379 H 0.87385 0.15198 0.35469 0.0
C1380 C 0.78484 0.05435 0.30168 0.0
C1381 C 0.79581 0.05489 0.27458 0.0
C1382 C 0.80075 0.06416 0.32408 0.0
C1383 C 0.828 0.07443 0.3198 0.0
C1384 C 0.83947 0.07328 0.29292 0.0
C1385 C 0.82355 0.06372 0.27057 0.0
C1386 C 0.84989 0.09659 0.39217 0.0
C1387 C 0.86137 0.12294 0.38676 0.0
C1388 C 0.84094 0.07968 0.37025 0.0
C1389 C 0.84303 0.08906 0.34259 0.0
C1390 C 0.8567 0.11453 0.33723 0.0
C1391 C 0.86573 0.13137 0.3592 0.0
H1392 H 0.19665 0.63439 0.0962 0.0
H1393 H 0.27517 0.67874 0.09867 0.0
H1394 H 0.2141 0.60173 0.13089 0.0
H1395 H 0.29227 0.64661 0.13406 0.0
H1396 H 0.32135 0.57492 0.1888 0.0
H1397 H 0.30654 0.59964 0.14664 0.0
H1398 H 0.22272 0.60533 0.17961 0.0
H1399 H 0.2371 0.58029 0.22083 0.0
C1400 C 0.21767 0.63713 0.10406 0.0
C1401 C 0.23436 0.65941 0.09491 0.0
C1402 C 0.22766 0.61844 0.12403 0.0
C1403 C 0.25447 0.62174 0.13555 0.0
C1404 C 0.27163 0.64328 0.12548 0.0
C1405 C 0.26172 0.66185 0.10531 0.0
C1406 C 0.2997 0.58114 0.18679 0.0
C1407 C 0.28049 0.57573 0.20829 0.0
C1408 C 0.29125 0.59544 0.16273 0.0
C1409 C 0.26342 0.60447 0.1597 0.0
C1410 C 0.24418 0.59831 0.18092 0.0
C1411 C 0.25256 0.58413 0.2048 0.0
H1412 H 0.28521 0.42675 0.74527 0.0
H1413 H 0.20052 0.40457 0.72358 0.0
H1414 H 0.3016 0.40846 0.70092 0.0
H1415 H 0.21701 0.38509 0.67972 0.0
H1416 H 0.24872 0.37147 0.59368 0.0
H1417 H 0.23522 0.39672 0.63557 0.0
H1418 H 0.30905 0.36598 0.67743 0.0
H1419 H 0.32309 0.34184 0.63505 0.0
C1420 C 0.27012 0.41767 0.73112 0.0
C1421 C 0.24157 0.41699 0.73794 0.0
C1422 C 0.27954 0.40712 0.70571 0.0
C1423 C 0.26067 0.39531 0.68667 0.0
C1424 C 0.23209 0.39457 0.69358 0.0
C1425 C 0.22262 0.40549 0.71885 0.0
C1426 C 0.26229 0.37057 0.61171 0.0
C1427 C 0.28687 0.35461 0.6112 0.0
C1428 C 0.25443 0.3848 0.63581 0.0
C1429 C 0.27074 0.38298 0.66009 0.0
C1430 C 0.29606 0.36807 0.65909 0.0
C1431 C 0.30415 0.3542 0.6348 0.0
H1432 H 0.88459 0.73259 0.87584 0.0
H1433 H 0.8596 0.64624 0.8825 0.0
H1434 H 0.84365 0.74667 0.90151 0.0
H1435 H 0.81869 0.66041 0.90958 0.0
H1436 H 0.73117 0.70173 0.91745 0.0
H1437 H 0.77526 0.68262 0.9012 0.0
H1438 H 0.81956 0.74856 0.94383 0.0
H1439 H 0.77524 0.76842 0.95895 0.0
C1440 C 0.87062 0.71646 0.88326 0.0
C1441 C 0.87533 0.68824 0.87677 0.0
C1442 C 0.84712 0.72459 0.89833 0.0
C1443 C 0.82768 0.70474 0.90769 0.0
C1444 C 0.83298 0.67633 0.90233 0.0
C1445 C 0.85654 0.66816 0.88698 0.0
C1446 C 0.75034 0.71199 0.92364 0.0
C1447 C 0.74966 0.73686 0.93914 0.0
C1448 C 0.77572 0.70087 0.91447 0.0
C1449 C 0.80109 0.71417 0.92088 0.0
C1450 C 0.80043 0.73812 0.93786 0.0
C1451 C 0.77502 0.74946 0.94668 0.0
H1452 H 0.31217 0.76823 0.04899 0.0
H1453 H 0.25503 0.83446 0.07103 0.0
H1454 H 0.35104 0.79606 0.06647 0.0
H1455 H 0.29389 0.86236 0.08799 0.0
H1456 H 0.35787 0.86283 0.16327 0.0
H1457 H 0.32032 0.85323 0.13069 0.0
H1458 H 0.38083 0.83889 0.06536 0.0
H1459 H 0.41859 0.84892 0.09836 0.0
C1460 C 0.30799 0.78896 0.05694 0.0
C1461 C 0.28048 0.79883 0.05934 0.0
C1462 C 0.33029 0.80504 0.06669 0.0
C1463 C 0.32545 0.83131 0.07886 0.0
C1464 C 0.29819 0.84205 0.07909 0.0
C1465 C 0.27594 0.82596 0.06951 0.0
C1466 C 0.36302 0.85901 0.14161 0.0
C1467 C 0.39093 0.85659 0.13321 0.0
C1468 C 0.34154 0.85345 0.12289 0.0
C1469 C 0.34765 0.84489 0.09553 0.0
C1470 C 0.37557 0.84518 0.0864 0.0
C1471 C 0.39713 0.85123 0.10513 0.0
H1472 H 0.18063 0.2806 0.56195 0.0
H1473 H 0.22035 0.19966 0.56601 0.0
H1474 H 0.1397 0.26134 0.58607 0.0
H1475 H 0.17998 0.18104 0.59037 0.0
H1476 H 0.13171 0.19079 0.67828 0.0
H1477 H 0.1663 0.20199 0.6425 0.0
H1478 H 0.10023 0.2161 0.583 0.0
H1479 H 0.06545 0.20369 0.61879 0.0
C1480 C 0.18041 0.25867 0.56731 0.0
C1481 C 0.204 0.24186 0.56253 0.0
C1482 C 0.15698 0.24766 0.581 0.0
C1483 C 0.15698 0.21982 0.59014 0.0
C1484 C 0.17963 0.20259 0.58358 0.0
C1485 C 0.20278 0.2134 0.56973 0.0
C1486 C 0.12468 0.19541 0.65732 0.0
C1487 C 0.09614 0.19603 0.65103 0.0
C1488 C 0.14436 0.20191 0.63694 0.0
C1489 C 0.13578 0.20993 0.61014 0.0
C1490 C 0.10722 0.20992 0.60356 0.0
C1491 C 0.08747 0.2026 0.62385 0.0
H1492 H 0.66149 0.32371 0.35188 0.0
H1493 H 0.61433 0.26323 0.39908 0.0
H1494 H 0.70461 0.30689 0.37355 0.0
H1495 H 0.65704 0.24687 0.42105 0.0
H1496 H 0.73859 0.19756 0.41998 0.0
H1497 H 0.6958 0.21946 0.40352 0.0
H1498 H 0.73228 0.30084 0.41615 0.0
H1499 H 0.77533 0.27899 0.43217 0.0
C1500 C 0.66025 0.30748 0.36752 0.0
C1501 C 0.63462 0.29459 0.37359 0.0
C1502 C 0.68493 0.29774 0.37986 0.0
C1503 C 0.68431 0.27507 0.39855 0.0
C1504 C 0.65835 0.26379 0.40616 0.0
C1505 C 0.63384 0.27337 0.39377 0.0
C1506 C 0.73753 0.22011 0.4193 0.0
C1507 C 0.76044 0.23645 0.42743 0.0
C1508 C 0.7129 0.23271 0.41005 0.0
C1509 C 0.71053 0.26195 0.40874 0.0
C1510 C 0.73347 0.27829 0.41675 0.0
C1511 C 0.75811 0.2657 0.42603 0.0
H1512 H 0.92021 0.29172 0.16772 0.0
H1513 H 0.98688 0.29337 0.10729 0.0
H1514 H 0.88654 0.3022 0.1312 0.0
H1515 H 0.95395 0.3062 0.07112 0.0
H1516 H 0.88454 0.31033 0.00674 0.0
H1517 H 0.91869 0.29644 0.04135 0.0
H1518 H 0.87045 0.3385 0.10513 0.0
H1519 H 0.83515 0.35015 0.07053 0.0
C1520 C 0.92753 0.29393 0.14646 0.0
C1521 C 0.95602 0.29141 0.14023 0.0
C1522 C 0.90836 0.30057 0.12555 0.0
C1523 C 0.9174 0.30585 0.09808 0.0
C1524 C 0.94589 0.30206 0.09177 0.0
C1525 C 0.96489 0.29456 0.11254 0.0
C1526 C 0.88162 0.31711 0.02809 0.0
C1527 C 0.85731 0.33143 0.03599 0.0
C1528 C 0.90122 0.30906 0.04808 0.0
C1529 C 0.89734 0.31582 0.07639 0.0
C1530 C 0.87382 0.33191 0.08382 0.0
C1531 C 0.8538 0.33917 0.06393 0.0
H1532 H 0.564 0.70685 0.46261 0.0
H1533 H 0.58305 0.64563 0.52563 0.0
H1534 H 0.52841 0.72741 0.49336 0.0
H1535 H 0.54745 0.66581 0.55597 0.0
H1536 H 0.53784 0.74265 0.61142 0.0
H1537 H 0.55971 0.72794 0.56792 0.0
H1538 H 0.47939 0.70425 0.53516 0.0
H1539 H 0.45716 0.71916 0.57868 0.0
C1540 C 0.55934 0.69675 0.48227 0.0
C1541 C 0.57604 0.67458 0.49179 0.0
C1542 C 0.53927 0.70871 0.49991 0.0
C1543 C 0.53567 0.6983 0.52699 0.0
C1544 C 0.55005 0.67415 0.53514 0.0
C1545 C 0.57014 0.66242 0.5177 0.0
C1546 C 0.52463 0.73558 0.59451 0.0
C1547 C 0.49586 0.73175 0.59864 0.0
C1548 C 0.53717 0.72703 0.56971 0.0
C1549 C 0.52115 0.71462 0.54862 0.0
C1550 C 0.49203 0.7138 0.55124 0.0
C1551 C 0.47938 0.72255 0.5761 0.0
H1552 H 0.42095 0.15202 -0.00098 0.0
H1553 H 0.43587 0.2407 -0.00349 0.0
H1554 H 0.45354 0.1456 0.9603 0.0
H1555 H 0.46791 0.23449 0.95772 0.0
H1556 H 0.52294 0.21498 0.88349 0.0
H1557 H 0.50865 0.21535 0.93253 0.0
H1558 H 0.44013 0.1602 0.91288 0.0
H1559 H 0.45422 0.15965 0.86451 0.0
C1560 C 0.43225 0.16993 0.99113 0.0
C1561 C 0.42561 0.19688 0.00029 0.0
C1562 C 0.45062 0.16635 0.96875 0.0
C1563 C 0.46256 0.18967 0.95544 0.0
C1564 C 0.45897 0.21613 0.96737 0.0
C1565 C 0.44058 0.2197 0.98961 0.0
C1566 C 0.50481 0.203 0.8897 0.0
C1567 C 0.48959 0.18751 0.86999 0.0
C1568 C 0.4968 0.20302 0.91779 0.0
C1569 C 0.4736 0.18737 0.92666 0.0
C1570 C 0.45858 0.17183 0.90693 0.0
C1571 C 0.46642 0.17194 0.87901 0.0
H1572 H 0.04538 0.81222 0.48159 0.0
H1573 H 0.05253 0.72584 0.50539 0.0
H1574 H 0.00646 0.80032 0.45065 0.0
H1575 H 0.01422 0.71383 0.47407 0.0
H1576 H 0.93769 0.76705 0.3946 0.0
H1577 H 0.95521 0.77065 0.44242 0.0
H1578 H 0.02894 0.72468 0.41863 0.0
H1579 H 0.01213 0.72229 0.37065 0.0
C1580 C 0.03747 0.79106 0.4815 0.0
C1581 C 0.05168 0.76993 0.49579 0.0
C1582 C 0.01532 0.78418 0.46375 0.0
C1583 C 0.00766 0.75612 0.45994 0.0
C1584 C 0.01973 0.73557 0.47681 0.0
C1585 C 0.04152 0.74248 0.49476 0.0
C1586 C 0.95706 0.75668 0.39991 0.0
C1587 C 0.97365 0.74439 0.37904 0.0
C1588 C 0.96708 0.75891 0.42718 0.0
C1589 C 0.99332 0.74795 0.43403 0.0
C1590 C 0.00847 0.73303 0.41383 0.0
C1591 C -0.00111 0.73161 0.38643 0.0
H1592 H 0.16059 0.91489 0.2763 0.0
H1593 H 0.10689 0.98718 0.27491 0.0
H1594 H 0.12065 0.88555 0.2876 0.0
H1595 H 0.06754 0.95865 0.28842 0.0
H1596 H -0.00337 0.89603 0.29295 0.0
H1597 H 0.03469 0.92612 0.27881 0.0
H1598 H 0.09266 0.87424 0.32476 0.0
H1599 H 0.05451 0.84287 0.3368 0.0
C1600 C 0.14013 0.92438 0.27799 0.0
C1601 C 0.1368 0.95321 0.27452 0.0
C1602 C 0.11728 0.90772 0.28509 0.0
C1603 C 0.09079 0.9197 0.28972 0.0
C1604 C 0.08736 0.94843 0.28482 0.0
C1605 C 0.11001 0.96489 0.27693 0.0
C1606 C 0.01743 0.89151 0.30061 0.0
C1607 C 0.02269 0.86724 0.31605 0.0
C1608 C 0.0394 0.90873 0.2924 0.0
C1609 C 0.06707 0.90247 0.30011 0.0
C1610 C 0.07188 0.87926 0.31747 0.0
C1611 C 0.04997 0.86157 0.32495 0.0
H1612 H 0.50715 0.05806 0.74414 0.0
H1613 H 0.46384 0.07229 0.82165 0.0
H1614 H 0.46766 0.02999 0.7274 0.0
H1615 H 0.42467 0.04438 0.80507 0.0
H1616 H 0.38163 0.96743 0.73538 0.0
H1617 H 0.42898 0.98404 0.74499 0.0
H1618 H 0.39711 0.06721 0.75719 0.0
H1619 H 0.34994 0.05106 0.7475 0.0
C1620 C 0.49002 0.05367 0.75824 0.0
C1621 C 0.48847 0.06714 0.78422 0.0
C1622 C 0.46731 0.038 0.7485 0.0
C1623 C 0.44307 0.03575 0.76478 0.0
C1624 C 0.44311 0.04621 0.79208 0.0
C1625 C 0.46566 0.06176 0.80175 0.0
C1626 C 0.38478 0.98949 0.73903 0.0
C1627 C 0.36181 0.00783 0.74126 0.0
C1628 C 0.4119 -0.00114 0.74469 0.0
C1629 C 0.41633 0.02662 0.75255 0.0
C1630 C 0.39396 0.04553 0.75167 0.0
C1631 C 0.36698 0.03629 0.7459 0.0
H1632 H 0.61164 0.50511 0.70022 0.0
H1633 H 0.65163 0.53632 0.62563 0.0
H1634 H 0.57153 0.53509 0.69121 0.0
H1635 H 0.61132 0.56576 0.61643 0.0
H1636 H 0.49444 0.57746 0.6589 0.0
H1637 H 0.53199 0.54273 0.65887 0.0
H1638 H 0.59146 0.6071 0.63768 0.0
H1639 H 0.55418 0.64138 0.63726 0.0
C1640 C 0.61189 0.51832 0.68192 0.0
C1641 C 0.63501 0.51855 0.66385 0.0
C1642 C 0.58874 0.53521 0.67655 0.0
C1643 C 0.58821 0.55265 0.65302 0.0
C1644 C 0.61121 0.55269 0.63485 0.0
C1645 C 0.63435 0.53587 0.64021 0.0
C1646 C 0.51542 0.58392 0.65343 0.0
C1647 C 0.5215 0.6121 0.64835 0.0
C1648 C 0.53693 0.56416 0.65374 0.0
C1649 C 0.56472 0.57229 0.64868 0.0
C1650 C 0.5703 0.60012 0.64155 0.0
C1651 C 0.54894 0.6198 0.64143 0.0
H1652 H 0.98032 0.4164 0.22522 0.0
H1653 H 0.98644 0.4046 0.13632 0.0
H1654 H 0.94023 0.44653 0.21887 0.0
H1655 H 0.94635 0.43569 0.12962 0.0
H1656 H 0.87027 0.50506 0.20178 0.0
H1657 H 0.91797 0.48747 0.20289 0.0
H1658 H 0.89744 0.42789 0.1385 0.0
H1659 H 0.85007 0.44617 0.13671 0.0
C1660 C 0.97372 0.42129 0.20418 0.0
C1661 C 0.9863 0.4081 0.18127 0.0
C1662 C 0.95068 0.43861 0.20049 0.0
C1663 C 0.93965 0.44315 0.17375 0.0
C1664 C 0.95399 0.43213 0.15055 0.0
C1665 C 0.97723 0.41473 0.15429 0.0
C1666 C 0.87593 0.48817 0.1879 0.0
C1667 C 0.85625 0.47675 0.16943 0.0
C1668 C 0.90333 0.47816 0.18844 0.0
C1669 C 0.91165 0.45628 0.17075 0.0
C1670 C 0.89201 0.44513 0.15203 0.0
C1671 C 0.86468 0.45534 0.15129 0.0
H1672 H 0.34299 0.17064 0.92907 0.0
H1673 H 0.27567 0.13093 0.97421 0.0
H1674 H 0.34519 0.13097 0.8975 0.0
H1675 H 0.27776 0.09138 0.9423 0.0
H1676 H 0.30824 0.01292 0.89742 0.0
H1677 H 0.31021 0.05211 0.93021 0.0
H1678 H 0.3163 0.10956 0.86114 0.0
H1679 H 0.31467 0.07075 0.82868 0.0
C1680 C 0.3284 0.15364 0.93207 0.0
C1681 C 0.30907 0.15406 0.95414 0.0
C1682 C 0.32974 0.13087 0.91399 0.0
C1683 C 0.31184 0.10794 0.91761 0.0
C1684 C 0.29215 0.10854 0.93932 0.0
C1685 C 0.29071 0.13139 0.95735 0.0
C1686 C 0.31059 0.03389 0.88937 0.0
C1687 C 0.31117 0.03879 0.86053 0.0
C1688 C 0.31138 0.05631 0.90807 0.0
C1689 C 0.31311 0.08391 0.8982 0.0
C1690 C 0.31509 0.08857 0.86941 0.0
C1691 C 0.31405 0.0663 0.85081 0.0
H1692 H 0.71621 0.38033 0.04525 0.0
H1693 H 0.71806 0.3992 0.95726 0.0
H1694 H 0.71651 0.43017 0.05569 0.0
H1695 H 0.72007 0.44896 0.96791 0.0
H1696 H 0.71222 0.52226 0.06515 0.0
H1697 H 0.69028 0.48657 0.03614 0.0
H1698 H 0.77143 0.46066 0.00708 0.0
H1699 H 0.79342 0.49518 0.03734 0.0
C1700 C 0.7154 0.39508 0.02817 0.0
C1701 C 0.71746 0.38588 0.0005 0.0
C1702 C 0.71559 0.42357 0.03411 0.0
C1703 C 0.71847 0.44315 0.01252 0.0
C1704 C 0.7176 0.43417 0.9848 0.0
C1705 C 0.71644 0.40567 0.97881 0.0
C1706 C 0.72523 0.51025 0.05107 0.0
C1707 C 0.75447 0.51137 0.05333 0.0
C1708 C 0.71264 0.48971 0.03468 0.0
C1709 C 0.72925 0.47098 0.01963 0.0
C1710 C 0.75826 0.47517 0.01837 0.0
C1711 C 0.77087 0.49507 0.03546 0.0
H1712 H 0.73439 0.59007 0.47444 0.0
H1713 H 0.67768 0.60929 0.54197 0.0
H1714 H 0.73303 0.54077 0.48755 0.0
H1715 H 0.67644 0.56044 0.55486 0.0
H1716 H 0.65929 0.47441 0.56624 0.0
H1717 H 0.65836 0.51531 0.53596 0.0
H1718 H 0.74811 0.51144 0.52796 0.0
H1719 H 0.74888 0.47048 0.55788 0.0
C1720 C 0.722 0.58391 0.4923 0.0
C1721 C 0.70615 0.60368 0.50717 0.0
C1722 C 0.72097 0.55565 0.49955 0.0
C1723 C 0.70393 0.54666 0.52164 0.0
C1724 C 0.68897 0.56657 0.53708 0.0
C1725 C 0.69011 0.5947 0.52999 0.0
C1726 C 0.67856 0.48122 0.55653 0.0
C1727 C 0.70419 0.46967 0.56462 0.0
C1728 C 0.67812 0.50494 0.53963 0.0
C1729 C 0.70329 0.51709 0.53053 0.0
C1730 C 0.72843 0.50272 0.53487 0.0
C1731 C 0.72886 0.47911 0.55184 0.0
H1732 H 0.21043 0.85479 0.48806 0.0
H1733 H 0.14308 0.83349 0.43201 0.0
H1734 H 0.21245 0.90133 0.46791 0.0
H1735 H 0.14561 0.87983 0.41143 0.0
H1736 H 0.14214 0.97025 0.38991 0.0
H1737 H 0.13703 0.9294 0.42031 0.0
H1738 H 0.22688 0.92184 0.4247 0.0
H1739 H 0.23175 0.96254 0.39506 0.0
C1740 C 0.19628 0.85988 0.47121 0.0
C1741 C 0.17675 0.84027 0.4615 0.0
C1742 C 0.19735 0.88664 0.45976 0.0
C1743 C 0.17902 0.89441 0.43823 0.0
C1744 C 0.15961 0.87475 0.42841 0.0
C1745 C 0.15847 0.84802 0.43992 0.0
C1746 C 0.16067 0.96044 0.39838 0.0
C1747 C 0.18731 0.9694 0.39021 0.0
C1748 C 0.15781 0.93682 0.41536 0.0
C1749 C 0.18157 0.92208 0.42452 0.0
C1750 C 0.20815 0.93268 0.41819 0.0
C1751 C 0.21096 0.95603 0.40119 0.0
H1752 H 0.02828 0.6479 0.87499 0.0
H1753 H 0.01237 0.73619 0.88251 0.0
H1754 H 0.05399 0.64849 0.91847 0.0
H1755 H 0.0399 0.7374 0.92521 0.0
H1756 H 0.07685 0.73409 0.0089 0.0
H1757 H 0.04281 0.72638 0.97191 0.0
H1758 H 0.09555 0.66128 0.93808 0.0
H1759 H 0.12814 0.66788 0.97628 0.0
C1760 C 0.03083 0.66763 0.88571 0.0
C1761 C 0.01861 0.69211 0.87519 0.0
C1762 C 0.04562 0.66797 0.91073 0.0
C1763 C 0.04921 0.69297 0.92561 0.0
C1764 C 0.03711 0.71756 0.91485 0.0
C1765 C 0.02166 0.71704 0.89011 0.0
C1766 C 0.08026 0.71724 0.99424 0.0
C1767 C 0.10468 0.70118 -0.00441 0.0
C1768 C 0.06116 0.71321 0.97263 0.0
C1769 C 0.06663 0.69369 0.9514 0.0
C1770 C 0.09026 0.67633 0.95404 0.0
C1771 C 0.10897 0.67991 0.97608 0.0
H1772 H 0.51441 0.25113 0.40818 0.0
H1773 H 0.46465 0.32004 0.37794 0.0
H1774 H 0.48966 0.25325 0.45281 0.0
H1775 H 0.44019 0.322 0.42213 0.0
H1776 H 0.4017 0.24336 0.49946 0.0
H1777 H 0.44041 0.24298 0.46656 0.0
H1778 H 0.44634 0.33265 0.47276 0.0
H1779 H 0.4073 0.33285 0.50587 0.0
C1780 C 0.49824 0.26667 0.411 0.0
C1781 C 0.49131 0.2852 0.38936 0.0
C1782 C 0.48424 0.26799 0.43659 0.0
C1783 C 0.46332 0.28807 0.4411 0.0
C1784 C 0.45667 0.30673 0.41956 0.0
C1785 C 0.47041 0.30527 0.39401 0.0
C1786 C 0.41218 0.26283 0.49474 0.0
C1787 C 0.40168 0.28814 0.50503 0.0
C1788 C 0.43433 0.26263 0.47589 0.0
C1789 C 0.44603 0.28782 0.46672 0.0
C1790 C 0.43739 0.31295 0.47926 0.0
C1791 C 0.41534 0.3131 0.49842 0.0
H1792 H 0.55267 0.75277 0.97841 0.0
H1793 H 0.55002 0.83998 -0.00016 0.0
H1794 H 0.51632 0.74306 0.01284 0.0
H1795 H 0.513 0.83047 0.03375 0.0
H1796 H 0.44595 0.80242 0.09437 0.0
H1797 H 0.462 0.80492 0.04601 0.0
H1798 H 0.53271 0.7532 0.06682 0.0
H1799 H 0.51739 0.75161 0.11536 0.0
C1800 C 0.54292 0.77011 0.98916 0.0
C1801 C 0.5538 0.79715 0.98637 0.0
C1802 C 0.52234 0.7645 0.00901 0.0
C1803 C 0.5121 0.78598 0.02598 0.0
C1804 C 0.52041 0.8136 0.02066 0.0
C1805 C 0.54141 0.81912 0.00113 0.0
C1806 C 0.46438 0.79075 0.08842 0.0
C1807 C 0.48056 0.77691 0.10865 0.0
C1808 C 0.47355 0.79231 0.06078 0.0
C1809 C 0.4985 0.77926 0.05281 0.0
C1810 C 0.51321 0.7632 0.07244 0.0
C1811 C 0.5045 0.76231 0.1002 0.0
H1812 H 0.9552 0.22058 0.49697 0.0
H1813 H 0.92501 0.15917 0.55538 0.0
H1814 H 0.98039 0.2442 0.53488 0.0
H1815 H 0.95004 0.18254 0.5929 0.0
H1816 H 0.03319 0.24699 0.62804 0.0
H1817 H 0.01909 0.23167 0.58157 0.0
H1818 H 0.93261 0.23749 0.60595 0.0
H1819 H 0.94641 0.25257 0.65239 0.0
C1820 C 0.95525 0.21128 0.51755 0.0
C1821 C 0.93823 0.1881 0.5234 0.0
C1822 C 0.96929 0.22501 0.53921 0.0
C1823 C 0.96634 0.21551 0.56671 0.0
C1824 C 0.9521 0.19047 0.57184 0.0
C1825 C 0.93815 0.17688 0.55037 0.0
C1826 C 0.01112 0.24633 0.62316 0.0
C1827 C 0.99086 0.25022 0.64418 0.0
C1828 C 0.00315 0.23738 0.59655 0.0
C1829 C 0.9749 0.23266 0.59072 0.0
C1830 C 0.9546 0.24051 0.61034 0.0
C1831 C 0.9625 0.24936 0.63683 0.0
H1832 H 0.82031 0.059 0.66566 0.0
H1833 H 0.86315 0.00701 0.72553 0.0
H1834 H 0.8578 0.09306 0.6683 0.0
H1835 H 0.90086 0.04147 0.72821 0.0
H1836 H 0.97619 0.09546 0.69772 0.0
H1837 H 0.93878 0.06065 0.69585 0.0
H1838 H 0.87734 0.12617 0.70308 0.0
H1839 H 0.91438 0.16078 0.70482 0.0
C1840 C 0.83763 0.05494 0.6796 0.0
C1841 C 0.8387 0.03029 0.69544 0.0
C1842 C 0.85909 0.07451 0.68113 0.0
C1843 C 0.8823 0.06987 0.69836 0.0
C1844 C 0.88332 0.04542 0.71452 0.0
C1845 C 0.86161 0.02588 0.71322 0.0
C1846 C 0.95469 0.1024 0.69863 0.0
C1847 C 0.94827 0.13089 0.70135 0.0
C1848 C 0.93331 0.08247 0.69787 0.0
C1849 C 0.90516 0.09071 0.69945 0.0
C1850 C 0.89882 0.1192 0.70166 0.0
C1851 C 0.92009 0.13902 0.70271 0.0
H1852 H 0.65735 0.9708 0.24116 0.0
H1853 H 0.697 0.92365 0.17529 0.0
H1854 H 0.61401 0.94523 0.23326 0.0
H1855 H 0.65369 0.89914 0.16671 0.0
H1856 H 0.57738 0.84387 0.17367 0.0
H1857 H 0.62131 0.86648 0.18396 0.0
H1858 H 0.57804 0.94444 0.19744 0.0
H1859 H 0.53348 0.92132 0.18822 0.0
C1860 C 0.65706 0.95456 0.22548 0.0
C1861 C 0.68062 0.94939 0.20877 0.0
C1862 C 0.63207 0.94029 0.22059 0.0
C1863 C 0.63021 0.9206 0.19895 0.0
C1864 C 0.65434 0.91412 0.18359 0.0
C1865 C 0.67926 0.9282 0.18856 0.0
C1866 C 0.57714 0.86594 0.1785 0.0
C1867 C 0.55184 0.88077 0.18026 0.0
C1868 C 0.60243 0.87892 0.18439 0.0
C1869 C 0.60319 0.90718 0.1919 0.0
C1870 C 0.57807 0.92244 0.19235 0.0
C1871 C 0.55259 0.90935 0.18658 0.0
H1872 H 0.50545 0.40103 0.35227 0.0
H1873 H 0.52629 0.40577 0.26506 0.0
H1874 H 0.46737 0.43416 0.34508 0.0
H1875 H 0.488 0.43871 0.25761 0.0
H1876 H 0.41593 0.50519 0.26013 0.0
H1877 H 0.46203 0.48433 0.26821 0.0
H1878 H 0.42391 0.42068 0.31917 0.0
H1879 H 0.37831 0.44106 0.31117 0.0
C1880 C 0.50288 0.41044 0.3319 0.0
C1881 C 0.51899 0.40126 0.30931 0.0
C1882 C 0.48077 0.42898 0.32763 0.0
C1883 C 0.4743 0.43846 0.30064 0.0
C1884 C 0.49247 0.43178 0.27863 0.0
C1885 C 0.51459 0.41317 0.28294 0.0
C1886 C 0.41738 0.48653 0.27275 0.0
C1887 C 0.39333 0.47488 0.28504 0.0
C1888 C 0.4438 0.47474 0.27752 0.0
C1889 C 0.44665 0.45135 0.29494 0.0
C1890 C 0.42252 0.43922 0.30634 0.0
C1891 C 0.39626 0.45073 0.3014 0.0
H1892 H 0.10082 0.47417 0.78568 0.0
H1893 H 0.13363 0.55228 0.81661 0.0
H1894 H 0.05334 0.49052 0.79511 0.0
H1895 H 0.08646 0.56831 0.82596 0.0
H1896 H 0.00602 0.58581 0.86264 0.0
H1897 H 0.04746 0.5562 0.85923 0.0
H1898 H 0.02093 0.52854 0.77782 0.0
H1899 H 0.9796 0.55806 0.78142 0.0
C1900 C 0.09796 0.49494 0.79407 0.0
C1901 C 0.12112 0.5119 0.80038 0.0
C1902 C 0.07078 0.50414 0.79971 0.0
C1903 C 0.06629 0.53032 0.81203 0.0
C1904 C 0.08933 0.54765 0.8173 0.0
C1905 C 0.11638 0.53862 0.81146 0.0
C1906 C 0.0082 0.57203 0.84486 0.0
C1907 C 0.98968 0.57397 0.82236 0.0
C1908 C 0.03217 0.55553 0.84263 0.0
C1909 C 0.03774 0.54072 0.81791 0.0
C1910 C 0.01723 0.53977 0.79706 0.0
C1911 C 0.99341 0.55643 0.79923 0.0
H1912 H 0.70854 0.88183 0.98833 0.0
H1913 H 0.65791 0.85389 0.05748 0.0
H1914 H 0.71257 0.92759 0.00963 0.0
H1915 H 0.66298 0.8994 0.07949 0.0
H1916 H 0.66217 0.98681 0.10887 0.0
H1917 H 0.65086 0.94794 0.0778 0.0
H1918 H 0.73588 0.94812 0.0473 0.0
H1919 H 0.7466 0.9872 0.07735 0.0
C1920 C 0.69865 0.88531 0.00834 0.0
C1921 C 0.6832 0.86409 0.0214 0.0
C1922 C 0.70086 0.91163 0.02051 0.0
C1923 C 0.68803 0.9173 0.04626 0.0
C1924 C 0.67263 0.89601 0.05936 0.0
C1925 C 0.6701 0.86976 0.04698 0.0
C1926 C 0.67798 0.97927 0.09457 0.0
C1927 C 0.70528 0.98982 0.09558 0.0
C1928 C 0.6717 0.95668 0.07716 0.0
C1929 C 0.69264 0.94444 0.06051 0.0
C1930 C 0.71916 0.95694 0.05968 0.0
C1931 C 0.72536 0.9794 0.07696 0.0
H1932 H 0.25366 0.54259 0.8938 0.0
H1933 H 0.16662 0.53963 0.91684 0.0
H1934 H 0.25902 0.58672 0.91833 0.0
H1935 H 0.17189 0.5841 0.94169 0.0
H1936 H 0.1825 0.67912 0.94039 0.0
H1937 H 0.18019 0.63206 0.92185 0.0
H1938 H 0.25714 0.61137 0.9639 0.0
H1939 H 0.25966 0.65863 0.98259 0.0
C1940 C 0.23591 0.55104 0.90501 0.0
C1941 C 0.20977 0.53788 0.90363 0.0
C1942 C 0.23896 0.57629 0.91897 0.0
C1943 C 0.21579 0.58901 0.9315 0.0
C1944 C 0.19 0.57486 0.93179 0.0
C1945 C 0.18703 0.54931 0.91801 0.0
C1946 C 0.19927 0.66479 0.94533 0.0
C1947 C 0.22126 0.67271 0.96309 0.0
C1948 C 0.19764 0.63766 0.93507 0.0
C1949 C 0.21807 0.61789 0.94208 0.0
C1950 C 0.24096 0.62616 0.9584 0.0
C1951 C 0.24253 0.65331 0.96886 0.0
H1952 H 0.31496 0.34587 0.44138 0.0
H1953 H 0.25685 0.3836 0.4992 0.0
H1954 H 0.32331 0.39095 0.42016 0.0
H1955 H 0.26537 0.42915 0.47763 0.0
H1956 H 0.35423 0.47421 0.40033 0.0
H1957 H 0.34623 0.43566 0.43284 0.0
H1958 H 0.25772 0.45309 0.43173 0.0
H1959 H 0.26595 0.49167 0.39955 0.0
C1960 C 0.30376 0.36375 0.44947 0.0
C1961 C 0.28526 0.36106 0.47208 0.0
C1962 C 0.30889 0.38971 0.43752 0.0
C1963 C 0.29559 0.41372 0.44773 0.0
C1964 C 0.27613 0.41101 0.46953 0.0
C1965 C 0.27107 0.3849 0.48168 0.0
C1966 C 0.33333 0.47061 0.40822 0.0
C1967 C 0.31073 0.48594 0.39787 0.0
C1968 C 0.32864 0.44832 0.42642 0.0
C1969 C 0.30125 0.44104 0.43435 0.0
C1970 C 0.27901 0.45822 0.42609 0.0
C1971 C 0.28373 0.48039 0.40782 0.0
H1972 H 0.79322 0.08723 0.46937 0.0
H1973 H 0.8424 0.10638 0.54248 0.0
H1974 H 0.79122 0.03821 0.48395 0.0
H1975 H 0.84048 0.05813 0.55662 0.0
H1976 H 0.84733 0.97424 0.5785 0.0
H1977 H 0.85649 0.01035 0.54371 0.0
H1978 H 0.76847 0.01392 0.52444 0.0
H1979 H 0.75957 0.97774 0.5588 0.0
C1980 C 0.80349 0.08107 0.48851 0.0
C1981 C 0.81775 0.10082 0.50486 0.0
C1982 C 0.80261 0.053 0.49664 0.0
C1983 C 0.81631 0.0442 0.52102 0.0
C1984 C 0.8305 0.064 0.53724 0.0
C1985 C 0.83114 0.09188 0.52934 0.0
C1986 C 0.83029 0.9815 0.56554 0.0
C1987 C 0.80275 0.97368 0.57146 0.0
C1988 C 0.83542 0.00241 0.54589 0.0
C1989 C 0.81302 0.01557 0.53212 0.0
C1990 C 0.78612 0.00435 0.53482 0.0
C1991 C 0.78102 0.98355 0.55447 0.0
loop_
_geom_bond_atom_site_label_1
_geom_bond_atom_site_label_2
_geom_bond_distance
_geom_bond_site_symmetry_2
_ccdc_geom_bond_type
O0 Zn1 1.953 . S
O0 C16 1.225 . S
Zn1 O0 1.953 . S
Zn1 O2 1.949 . S
Zn1 O8 1.919 . S
Zn1 O13 1.924 . S
O2 Zn1 1.949 . S
O2 Zn3 1.923 . S
O2 Zn4 1.950 . S
O2 Zn5 1.945 . S
Zn3 O2 1.923 . S
Zn3 O6 1.933 . S
Zn3 O9 1.941 . S
Zn3 O10 1.965 . S
Zn4 O2 1.950 . S
Zn4 O11 1.938 . S
Zn4 O12 1.906 . S
Zn4 O22 1.953 . S
Zn5 O2 1.945 . S
Zn5 O7 1.932 1_455 S
Zn5 O14 1.977 1_455 S
Zn5 O15 1.910 1_455 S
O6 Zn3 1.933 . S
O6 C17 1.226 . S
O7 Zn5 1.932 1_655 S
O7 C17 1.307 1_655 S
O8 Zn1 1.919 . S
O8 C19 1.253 . S
O9 Zn3 1.941 . S
O9 C19 1.283 . S
O10 Zn3 1.965 . S
O10 C18 1.303 . S
O11 Zn4 1.938 . S
O11 C18 1.247 . S
O12 Zn4 1.906 . S
O12 C20 1.304 1_455 S
O13 Zn1 1.924 . S
O13 C21 1.301 1_455 S
O14 Zn5 1.977 1_655 S
O14 C20 1.272 . S
O15 Zn5 1.910 1_655 S
O15 C21 1.236 . S
C16 O0 1.225 . S
C16 O22 1.298 . S
C17 O6 1.226 . S
C17 O7 1.307 1_455 S
C18 O10 1.303 . S
C18 O11 1.247 . S
C19 O8 1.253 . S
C19 O9 1.283 . S
C20 O12 1.304 1_655 S
C20 O14 1.272 . S
C21 O13 1.301 1_655 S
C21 O15 1.236 . S
O22 Zn4 1.953 . S
O22 C16 1.298 . S
O23 Zn24 1.953 . S
O23 C39 1.225 . S
Zn24 O23 1.953 . S
Zn24 O25 1.949 . S
Zn24 O31 1.919 . S
Zn24 O36 1.924 . S
O25 Zn24 1.949 . S
O25 Zn26 1.923 . S
O25 Zn27 1.950 . S
O25 Zn28 1.945 . S
Zn26 O25 1.923 . S
Zn26 O29 1.933 . S
Zn26 O32 1.941 . S
Zn26 O33 1.965 . S
Zn27 O25 1.950 . S
Zn27 O34 1.938 . S
Zn27 O35 1.906 . S
Zn27 O45 1.953 . S
Zn28 O25 1.945 . S
Zn28 O30 1.932 . S
Zn28 O37 1.977 . S
Zn28 O38 1.910 . S
O29 Zn26 1.933 . S
O29 C40 1.226 . S
O30 Zn28 1.932 . S
O30 C40 1.307 . S
O31 Zn24 1.919 . S
O31 C42 1.253 . S
O32 Zn26 1.941 . S
O32 C42 1.283 . S
O33 Zn26 1.965 . S
O33 C41 1.303 . S
O34 Zn27 1.938 . S
O34 C41 1.247 . S
O35 Zn27 1.906 . S
O35 C43 1.304 . S
O36 Zn24 1.924 . S
O36 C44 1.311 . S
O37 Zn28 1.977 . S
O37 C43 1.272 . S
O38 Zn28 1.910 . S
O38 C44 1.231 . S
C39 O23 1.225 . S
C39 O45 1.298 . S
C40 O29 1.226 . S
C40 O30 1.307 . S
C41 O33 1.303 . S
C41 O34 1.247 . S
C42 O31 1.253 . S
C42 O32 1.283 . S
C43 O35 1.304 . S
C43 O37 1.272 . S
C44 O36 1.311 . S
C44 O38 1.231 . S
O45 Zn27 1.953 . S
O45 C39 1.298 . S
O46 Zn47 1.953 . S
O46 C62 1.225 . S
Zn47 O46 1.953 . S
Zn47 O48 1.949 . S
Zn47 O54 1.919 . S
Zn47 O59 1.924 . S
O48 Zn47 1.949 . S
O48 Zn49 1.923 . S
O48 Zn50 1.950 . S
O48 Zn51 1.945 . S
Zn49 O48 1.923 . S
Zn49 O52 1.933 . S
Zn49 O55 1.941 . S
Zn49 O56 1.965 . S
Zn50 O48 1.950 . S
Zn50 O57 1.938 . S
Zn50 O58 1.906 . S
Zn50 O68 1.953 . S
Zn51 O48 1.945 . S
Zn51 O53 1.932 . S
Zn51 O60 1.977 . S
Zn51 O61 1.910 . S
O52 Zn49 1.933 . S
O52 C63 1.226 . S
O53 Zn51 1.932 . S
O53 C63 1.307 . S
O54 Zn47 1.919 . S
O54 C65 1.253 . S
O55 Zn49 1.941 . S
O55 C65 1.283 . S
O56 Zn49 1.965 . S
O56 C64 1.303 . S
O57 Zn50 1.938 . S
O57 C64 1.247 . S
O58 Zn50 1.906 . S
O58 C66 1.304 . S
O59 Zn47 1.924 . S
O59 C67 1.311 . S
O60 Zn51 1.977 . S
O60 C66 1.272 . S
O61 Zn51 1.910 . S
O61 C67 1.231 . S
C62 O46 1.225 . S
C62 O68 1.298 . S
C63 O52 1.226 . S
C63 O53 1.307 . S
C64 O56 1.303 . S
C64 O57 1.247 . S
C65 O54 1.253 . S
C65 O55 1.283 . S
C66 O58 1.304 . S
C66 O60 1.272 . S
C67 O59 1.311 . S
C67 O61 1.231 . S
O68 Zn50 1.953 . S
O68 C62 1.298 . S
O69 Zn70 1.953 . S
O69 C85 1.225 . S
Zn70 O69 1.953 . S
Zn70 O71 1.949 . S
Zn70 O77 1.919 . S
Zn70 O82 1.924 . S
O71 Zn70 1.949 . S
O71 Zn72 1.923 . S
O71 Zn73 1.950 . S
O71 Zn74 1.945 . S
Zn72 O71 1.923 . S
Zn72 O75 1.933 . S
Zn72 O78 1.941 . S
Zn72 O79 1.965 . S
Zn73 O71 1.950 . S
Zn73 O80 1.938 . S
Zn73 O81 1.906 . S
Zn73 O91 1.953 . S
Zn74 O71 1.945 . S
Zn74 O76 1.932 1_655 S
Zn74 O83 1.977 1_655 S
Zn74 O84 1.910 1_655 S
O75 Zn72 1.933 . S
O75 C86 1.226 . S
O76 Zn74 1.932 1_455 S
O76 C86 1.307 1_455 S
O77 Zn70 1.919 . S
O77 C88 1.253 . S
O78 Zn72 1.941 . S
O78 C88 1.283 . S
O79 Zn72 1.965 . S
O79 C87 1.303 . S
O80 Zn73 1.938 . S
O80 C87 1.247 . S
O81 Zn73 1.906 . S
O81 C89 1.304 1_655 S
O82 Zn70 1.924 . S
O82 C90 1.301 1_655 S
O83 Zn74 1.977 1_455 S
O83 C89 1.272 . S
O84 Zn74 1.910 1_455 S
O84 C90 1.236 . S
C85 O69 1.225 . S
C85 O91 1.298 . S
C86 O75 1.226 . S
C86 O76 1.307 1_655 S
C87 O79 1.303 . S
C87 O80 1.247 . S
C88 O77 1.253 . S
C88 O78 1.283 . S
C89 O81 1.304 1_455 S
C89 O83 1.272 . S
C90 O82 1.301 1_455 S
C90 O84 1.236 . S
O91 Zn73 1.953 . S
O91 C85 1.298 . S
O92 Zn93 1.953 . S
O92 C108 1.225 . S
Zn93 O92 1.953 . S
Zn93 O94 1.949 . S
Zn93 O100 1.919 . S
Zn93 O105 1.924 . S
O94 Zn93 1.949 . S
O94 Zn95 1.923 . S
O94 Zn96 1.950 . S
O94 Zn97 1.945 . S
Zn95 O94 1.923 . S
Zn95 O98 1.933 . S
Zn95 O101 1.941 . S
Zn95 O102 1.965 . S
Zn96 O94 1.950 . S
Zn96 O103 1.938 . S
Zn96 O104 1.906 . S
Zn96 O114 1.953 . S
Zn97 O94 1.945 . S
Zn97 O99 1.932 1_545 S
Zn97 O106 1.977 1_545 S
Zn97 O107 1.910 1_545 S
O98 Zn95 1.933 . S
O98 C109 1.226 . S
O99 Zn97 1.932 1_565 S
O99 C109 1.307 1_565 S
O100 Zn93 1.919 . S
O100 C111 1.253 . S
O101 Zn95 1.941 . S
O101 C111 1.283 . S
O102 Zn95 1.965 . S
O102 C110 1.303 . S
O103 Zn96 1.938 . S
O103 C110 1.247 . S
O104 Zn96 1.906 . S
O104 C112 1.304 1_545 S
O105 Zn93 1.924 . S
O105 C113 1.301 1_545 S
O106 Zn97 1.977 1_565 S
O106 C112 1.272 . S
O107 Zn97 1.910 1_565 S
O107 C113 1.236 . S
C108 O92 1.225 . S
C108 O114 1.298 . S
C109 O98 1.226 . S
C109 O99 1.307 1_545 S
C110 O102 1.303 . S
C110 O103 1.247 . S
C111 O100 1.253 . S
C111 O101 1.283 . S
C112 O104 1.304 1_565 S
C112 O106 1.272 . S
C113 O105 1.301 1_565 S
C113 O107 1.236 . S
O114 Zn96 1.953 . S
O114 C108 1.298 . S
O115 Zn116 1.953 . S
O115 C131 1.225 . S
Zn116 O115 1.953 . S
Zn116 O117 1.949 . S
Zn116 O123 1.919 . S
Zn116 O128 1.924 . S
O117 Zn116 1.949 . S
O117 Zn118 1.923 . S
O117 Zn119 1.950 . S
O117 Zn120 1.945 . S
Zn118 O117 1.923 . S
Zn118 O121 1.933 . S
Zn118 O124 1.941 . S
Zn118 O125 1.965 . S
Zn119 O117 1.950 . S
Zn119 O126 1.938 . S
Zn119 O127 1.906 . S
Zn119 O137 1.953 . S
Zn120 O117 1.945 . S
Zn120 O122 1.932 1_565 S
Zn120 O129 1.977 1_565 S
Zn120 O130 1.910 1_565 S
O121 Zn118 1.933 . S
O121 C132 1.226 . S
O122 Zn120 1.932 1_545 S
O122 C132 1.307 1_545 S
O123 Zn116 1.919 . S
O123 C134 1.253 . S
O124 Zn118 1.941 . S
O124 C134 1.283 . S
O125 Zn118 1.965 . S
O125 C133 1.303 . S
O126 Zn119 1.938 . S
O126 C133 1.247 . S
O127 Zn119 1.906 . S
O127 C135 1.304 1_565 S
O128 Zn116 1.924 . S
O128 C136 1.301 1_565 S
O129 Zn120 1.977 1_545 S
O129 C135 1.272 . S
O130 Zn120 1.910 1_545 S
O130 C136 1.236 . S
C131 O115 1.225 . S
C131 O137 1.298 . S
C132 O121 1.226 . S
C132 O122 1.307 1_565 S
C133 O125 1.303 . S
C133 O126 1.247 . S
C134 O123 1.253 . S
C134 O124 1.283 . S
C135 O127 1.304 1_545 S
C135 O129 1.272 . S
C136 O128 1.301 1_545 S
C136 O130 1.236 . S
O137 Zn119 1.953 . S
O137 C131 1.298 . S
O138 Zn139 1.953 . S
O138 C154 1.225 . S
Zn139 O138 1.953 . S
Zn139 O140 1.949 . S
Zn139 O146 1.919 . S
Zn139 O151 1.924 . S
O140 Zn139 1.949 . S
O140 Zn141 1.923 . S
O140 Zn142 1.950 . S
O140 Zn143 1.945 . S
Zn141 O140 1.923 . S
Zn141 O144 1.933 . S
Zn141 O147 1.941 . S
Zn141 O148 1.965 . S
Zn142 O140 1.950 . S
Zn142 O149 1.938 . S
Zn142 O150 1.906 . S
Zn142 O160 1.953 . S
Zn143 O140 1.945 . S
Zn143 O145 1.932 . S
Zn143 O152 1.977 . S
Zn143 O153 1.910 . S
O144 Zn141 1.933 . S
O144 C155 1.226 . S
O145 Zn143 1.932 . S
O145 C155 1.307 . S
O146 Zn139 1.919 . S
O146 C157 1.253 . S
O147 Zn141 1.941 . S
O147 C157 1.283 . S
O148 Zn141 1.965 . S
O148 C156 1.303 . S
O149 Zn142 1.938 . S
O149 C156 1.247 . S
O150 Zn142 1.906 . S
O150 C158 1.304 . S
O151 Zn139 1.924 . S
O151 C159 1.311 . S
O152 Zn143 1.977 . S
O152 C158 1.272 . S
O153 Zn143 1.910 . S
O153 C159 1.231 . S
C154 O138 1.225 . S
C154 O160 1.298 . S
C155 O144 1.226 . S
C155 O145 1.307 . S
C156 O148 1.303 . S
C156 O149 1.247 . S
C157 O146 1.253 . S
C157 O147 1.283 . S
C158 O150 1.304 . S
C158 O152 1.272 . S
C159 O151 1.311 . S
C159 O153 1.231 . S
O160 Zn142 1.953 . S
O160 C154 1.298 . S
O161 Zn162 1.953 . S
O161 C177 1.225 . S
Zn162 O161 1.953 . S
Zn162 O163 1.949 . S
Zn162 O169 1.919 . S
Zn162 O174 1.924 . S
O163 Zn162 1.949 . S
O163 Zn164 1.923 . S
O163 Zn165 1.950 . S
O163 Zn166 1.945 . S
Zn164 O163 1.923 . S
Zn164 O167 1.933 . S
Zn164 O170 1.941 . S
Zn164 O171 1.965 . S
Zn165 O163 1.950 . S
Zn165 O172 1.938 . S
Zn165 O173 1.906 . S
Zn165 O183 1.953 . S
Zn166 O163 1.945 . S
Zn166 O168 1.932 . S
Zn166 O175 1.977 . S
Zn166 O176 1.910 . S
O167 Zn164 1.933 . S
O167 C178 1.226 . S
O168 Zn166 1.932 . S
O168 C178 1.307 . S
O169 Zn162 1.919 . S
O169 C180 1.253 . S
O170 Zn164 1.941 . S
O170 C180 1.283 . S
O171 Zn164 1.965 . S
O171 C179 1.303 . S
O172 Zn165 1.938 . S
O172 C179 1.247 . S
O173 Zn165 1.906 . S
O173 C181 1.304 . S
O174 Zn162 1.924 . S
O174 C182 1.311 . S
O175 Zn166 1.977 . S
O175 C181 1.272 . S
O176 Zn166 1.910 . S
O176 C182 1.231 . S
C177 O161 1.225 . S
C177 O183 1.298 . S
C178 O167 1.226 . S
C178 O168 1.307 . S
C179 O171 1.303 . S
C179 O172 1.247 . S
C180 O169 1.253 . S
C180 O170 1.283 . S
C181 O173 1.304 . S
C181 O175 1.272 . S
C182 O174 1.311 . S
C182 O176 1.231 . S
O183 Zn165 1.953 . S
O183 C177 1.298 . S
O184 Zn185 1.953 . S
O184 C200 1.225 . S
Zn185 O184 1.953 . S
Zn185 O186 1.949 . S
Zn185 O192 1.919 . S
Zn185 O197 1.924 . S
O186 Zn185 1.949 . S
O186 Zn187 1.923 . S
O186 Zn188 1.950 . S
O186 Zn189 1.945 . S
Zn187 O186 1.923 . S
Zn187 O190 1.933 . S
Zn187 O193 1.941 . S
Zn187 O194 1.965 . S
Zn188 O186 1.950 . S
Zn188 O195 1.938 . S
Zn188 O196 1.906 . S
Zn188 O206 1.953 . S
Zn189 O186 1.945 . S
Zn189 O191 1.932 1_554 S
Zn189 O198 1.977 1_554 S
Zn189 O199 1.910 1_554 S
O190 Zn187 1.933 . S
O190 C201 1.226 . S
O191 Zn189 1.932 1_556 S
O191 C201 1.307 1_556 S
O192 Zn185 1.919 . S
O192 C203 1.253 . S
O193 Zn187 1.941 . S
O193 C203 1.283 . S
O194 Zn187 1.965 . S
O194 C202 1.303 . S
O195 Zn188 1.938 . S
O195 C202 1.247 . S
O196 Zn188 1.906 . S
O196 C204 1.304 1_554 S
O197 Zn185 1.924 . S
O197 C205 1.301 1_554 S
O198 Zn189 1.977 1_556 S
O198 C204 1.272 . S
O199 Zn189 1.910 1_556 S
O199 C205 1.236 . S
C200 O184 1.225 . S
C200 O206 1.298 . S
C201 O190 1.226 . S
C201 O191 1.307 1_554 S
C202 O194 1.303 . S
C202 O195 1.247 . S
C203 O192 1.253 . S
C203 O193 1.283 . S
C204 O196 1.304 1_556 S
C204 O198 1.272 . S
C205 O197 1.301 1_556 S
C205 O199 1.236 . S
O206 Zn188 1.953 . S
O206 C200 1.298 . S
O207 Zn208 1.953 . S
O207 C223 1.225 . S
Zn208 O207 1.953 . S
Zn208 O209 1.949 . S
Zn208 O215 1.919 . S
Zn208 O220 1.924 . S
O209 Zn208 1.949 . S
O209 Zn210 1.923 . S
O209 Zn211 1.950 . S
O209 Zn212 1.945 . S
Zn210 O209 1.923 . S
Zn210 O213 1.933 . S
Zn210 O216 1.941 . S
Zn210 O217 1.965 . S
Zn211 O209 1.950 . S
Zn211 O218 1.938 . S
Zn211 O219 1.906 . S
Zn211 O229 1.953 . S
Zn212 O209 1.945 . S
Zn212 O214 1.932 1_556 S
Zn212 O221 1.977 1_556 S
Zn212 O222 1.910 1_556 S
O213 Zn210 1.933 . S
O213 C224 1.226 . S
O214 Zn212 1.932 1_554 S
O214 C224 1.307 1_554 S
O215 Zn208 1.919 . S
O215 C226 1.253 . S
O216 Zn210 1.941 . S
O216 C226 1.283 . S
O217 Zn210 1.965 . S
O217 C225 1.303 . S
O218 Zn211 1.938 . S
O218 C225 1.247 . S
O219 Zn211 1.906 . S
O219 C227 1.304 1_556 S
O220 Zn208 1.924 . S
O220 C228 1.301 1_556 S
O221 Zn212 1.977 1_554 S
O221 C227 1.272 . S
O222 Zn212 1.910 1_554 S
O222 C228 1.236 . S
C223 O207 1.225 . S
C223 O229 1.298 . S
C224 O213 1.226 . S
C224 O214 1.307 1_556 S
C225 O217 1.303 . S
C225 O218 1.247 . S
C226 O215 1.253 . S
C226 O216 1.283 . S
C227 O219 1.304 1_554 S
C227 O221 1.272 . S
C228 O220 1.301 1_554 S
C228 O222 1.236 . S
O229 Zn211 1.953 . S
O229 C223 1.298 . S
O230 Zn231 1.953 . S
O230 C246 1.225 . S
Zn231 O230 1.953 . S
Zn231 O232 1.949 . S
Zn231 O238 1.919 . S
Zn231 O243 1.924 . S
O232 Zn231 1.949 . S
O232 Zn233 1.923 . S
O232 Zn234 1.950 . S
O232 Zn235 1.945 . S
Zn233 O232 1.923 . S
Zn233 O236 1.933 . S
Zn233 O239 1.941 . S
Zn233 O240 1.965 . S
Zn234 O232 1.950 . S
Zn234 O241 1.938 . S
Zn234 O242 1.906 . S
Zn234 O252 1.953 . S
Zn235 O232 1.945 . S
Zn235 O237 1.932 . S
Zn235 O244 1.977 . S
Zn235 O245 1.910 . S
O236 Zn233 1.933 . S
O236 C247 1.226 . S
O237 Zn235 1.932 . S
O237 C247 1.307 . S
O238 Zn231 1.919 . S
O238 C249 1.253 . S
O239 Zn233 1.941 . S
O239 C249 1.283 . S
O240 Zn233 1.965 . S
O240 C248 1.303 . S
O241 Zn234 1.938 . S
O241 C248 1.247 . S
O242 Zn234 1.906 . S
O242 C250 1.304 . S
O243 Zn231 1.924 . S
O243 C251 1.311 . S
O244 Zn235 1.977 . S
O244 C250 1.272 . S
O245 Zn235 1.910 . S
O245 C251 1.231 . S
C246 O230 1.225 . S
C246 O252 1.298 . S
C247 O236 1.226 . S
C247 O237 1.307 . S
C248 O240 1.303 . S
C248 O241 1.247 . S
C249 O238 1.253 . S
C249 O239 1.283 . S
C250 O242 1.304 . S
C250 O244 1.272 . S
C251 O243 1.311 . S
C251 O245 1.231 . S
O252 Zn234 1.953 . S
O252 C246 1.298 . S
O253 Zn254 1.953 . S
O253 C269 1.225 . S
Zn254 O253 1.953 . S
Zn254 O255 1.949 . S
Zn254 O261 1.919 . S
Zn254 O266 1.924 . S
O255 Zn254 1.949 . S
O255 Zn256 1.923 . S
O255 Zn257 1.950 . S
O255 Zn258 1.945 . S
Zn256 O255 1.923 . S
Zn256 O259 1.933 . S
Zn256 O262 1.941 . S
Zn256 O263 1.965 . S
Zn257 O255 1.950 . S
Zn257 O264 1.938 . S
Zn257 O265 1.906 . S
Zn257 O275 1.953 . S
Zn258 O255 1.945 . S
Zn258 O260 1.932 . S
Zn258 O267 1.977 . S
Zn258 O268 1.910 . S
O259 Zn256 1.933 . S
O259 C270 1.226 . S
O260 Zn258 1.932 . S
O260 C270 1.307 . S
O261 Zn254 1.919 . S
O261 C272 1.253 . S
O262 Zn256 1.941 . S
O262 C272 1.283 . S
O263 Zn256 1.965 . S
O263 C271 1.303 . S
O264 Zn257 1.938 . S
O264 C271 1.247 . S
O265 Zn257 1.906 . S
O265 C273 1.304 . S
O266 Zn254 1.924 . S
O266 C274 1.311 . S
O267 Zn258 1.977 . S
O267 C273 1.272 . S
O268 Zn258 1.910 . S
O268 C274 1.231 . S
C269 O253 1.225 . S
C269 O275 1.298 . S
C270 O259 1.226 . S
C270 O260 1.307 . S
C271 O263 1.303 . S
C271 O264 1.247 . S
C272 O261 1.253 . S
C272 O262 1.283 . S
C273 O265 1.304 . S
C273 O267 1.272 . S
C274 O266 1.311 . S
C274 O268 1.231 . S
O275 Zn257 1.953 . S
O275 C269 1.298 . S
O276 Zn277 1.953 . S
O276 C292 1.225 . S
Zn277 O276 1.953 . S
Zn277 O278 1.949 . S
Zn277 O284 1.919 . S
Zn277 O289 1.924 . S
O278 Zn277 1.949 . S
O278 Zn279 1.923 . S
O278 Zn280 1.950 . S
O278 Zn281 1.945 . S
Zn279 O278 1.923 . S
Zn279 O282 1.933 . S
Zn279 O285 1.941 . S
Zn279 O286 1.965 . S
Zn280 O278 1.950 . S
Zn280 O287 1.938 . S
Zn280 O288 1.906 . S
Zn280 O298 1.953 . S
Zn281 O278 1.945 . S
Zn281 O283 1.932 1_655 S
Zn281 O290 1.977 1_655 S
Zn281 O291 1.910 1_655 S
O282 Zn279 1.933 . S
O282 C293 1.226 . S
O283 Zn281 1.932 1_455 S
O283 C293 1.307 1_455 S
O284 Zn277 1.919 . S
O284 C295 1.253 . S
O285 Zn279 1.941 . S
O285 C295 1.283 . S
O286 Zn279 1.965 . S
O286 C294 1.303 . S
O287 Zn280 1.938 . S
O287 C294 1.247 . S
O288 Zn280 1.906 . S
O288 C296 1.304 1_655 S
O289 Zn277 1.924 . S
O289 C297 1.301 1_655 S
O290 Zn281 1.977 1_455 S
O290 C296 1.272 . S
O291 Zn281 1.910 1_455 S
O291 C297 1.236 . S
C292 O276 1.225 . S
C292 O298 1.298 . S
C293 O282 1.226 . S
C293 O283 1.307 1_655 S
C294 O286 1.303 . S
C294 O287 1.247 . S
C295 O284 1.253 . S
C295 O285 1.283 . S
C296 O288 1.304 1_455 S
C296 O290 1.272 . S
C297 O289 1.301 1_455 S
C297 O291 1.236 . S
O298 Zn280 1.953 . S
O298 C292 1.298 . S
O299 Zn300 1.953 . S
O299 C315 1.225 . S
Zn300 O299 1.953 . S
Zn300 O301 1.949 . S
Zn300 O307 1.919 . S
Zn300 O312 1.924 . S
O301 Zn300 1.949 . S
O301 Zn302 1.923 . S
O301 Zn303 1.950 . S
O301 Zn304 1.945 . S
Zn302 O301 1.923 . S
Zn302 O305 1.933 . S
Zn302 O308 1.941 . S
Zn302 O309 1.965 . S
Zn303 O301 1.950 . S
Zn303 O310 1.938 . S
Zn303 O311 1.906 . S
Zn303 O321 1.953 . S
Zn304 O301 1.945 . S
Zn304 O306 1.932 . S
Zn304 O313 1.977 . S
Zn304 O314 1.910 . S
O305 Zn302 1.933 . S
O305 C316 1.226 . S
O306 Zn304 1.932 . S
O306 C316 1.307 . S
O307 Zn300 1.919 . S
O307 C318 1.253 . S
O308 Zn302 1.941 . S
O308 C318 1.283 . S
O309 Zn302 1.965 . S
O309 C317 1.303 . S
O310 Zn303 1.938 . S
O310 C317 1.247 . S
O311 Zn303 1.906 . S
O311 C319 1.304 . S
O312 Zn300 1.924 . S
O312 C320 1.311 . S
O313 Zn304 1.977 . S
O313 C319 1.272 . S
O314 Zn304 1.910 . S
O314 C320 1.231 . S
C315 O299 1.225 . S
C315 O321 1.298 . S
C316 O305 1.226 . S
C316 O306 1.307 . S
C317 O309 1.303 . S
C317 O310 1.247 . S
C318 O307 1.253 . S
C318 O308 1.283 . S
C319 O311 1.304 . S
C319 O313 1.272 . S
C320 O312 1.311 . S
C320 O314 1.231 . S
O321 Zn303 1.953 . S
O321 C315 1.298 . S
O322 Zn323 1.953 . S
O322 C338 1.225 . S
Zn323 O322 1.953 . S
Zn323 O324 1.949 . S
Zn323 O330 1.919 . S
Zn323 O335 1.924 . S
O324 Zn323 1.949 . S
O324 Zn325 1.923 . S
O324 Zn326 1.950 . S
O324 Zn327 1.945 . S
Zn325 O324 1.923 . S
Zn325 O328 1.933 . S
Zn325 O331 1.941 . S
Zn325 O332 1.965 . S
Zn326 O324 1.950 . S
Zn326 O333 1.938 . S
Zn326 O334 1.906 . S
Zn326 O344 1.953 . S
Zn327 O324 1.945 . S
Zn327 O329 1.932 . S
Zn327 O336 1.977 . S
Zn327 O337 1.910 . S
O328 Zn325 1.933 . S
O328 C339 1.226 . S
O329 Zn327 1.932 . S
O329 C339 1.307 . S
O330 Zn323 1.919 . S
O330 C341 1.253 . S
O331 Zn325 1.941 . S
O331 C341 1.283 . S
O332 Zn325 1.965 . S
O332 C340 1.303 . S
O333 Zn326 1.938 . S
O333 C340 1.247 . S
O334 Zn326 1.906 . S
O334 C342 1.304 . S
O335 Zn323 1.924 . S
O335 C343 1.311 . S
O336 Zn327 1.977 . S
O336 C342 1.272 . S
O337 Zn327 1.910 . S
O337 C343 1.231 . S
C338 O322 1.225 . S
C338 O344 1.298 . S
C339 O328 1.226 . S
C339 O329 1.307 . S
C340 O332 1.303 . S
C340 O333 1.247 . S
C341 O330 1.253 . S
C341 O331 1.283 . S
C342 O334 1.304 . S
C342 O336 1.272 . S
C343 O335 1.311 . S
C343 O337 1.231 . S
O344 Zn326 1.953 . S
O344 C338 1.298 . S
O345 Zn346 1.953 . S
O345 C361 1.225 . S
Zn346 O345 1.953 . S
Zn346 O347 1.949 . S
Zn346 O353 1.919 . S
Zn346 O358 1.924 . S
O347 Zn346 1.949 . S
O347 Zn348 1.923 . S
O347 Zn349 1.950 . S
O347 Zn350 1.945 . S
Zn348 O347 1.923 . S
Zn348 O351 1.933 . S
Zn348 O354 1.941 . S
Zn348 O355 1.965 . S
Zn349 O347 1.950 . S
Zn349 O356 1.938 . S
Zn349 O357 1.906 . S
Zn349 O367 1.953 . S
Zn350 O347 1.945 . S
Zn350 O352 1.932 1_455 S
Zn350 O359 1.977 1_455 S
Zn350 O360 1.910 1_455 S
O351 Zn348 1.933 . S
O351 C362 1.226 . S
O352 Zn350 1.932 1_655 S
O352 C362 1.307 1_655 S
O353 Zn346 1.919 . S
O353 C364 1.253 . S
O354 Zn348 1.941 . S
O354 C364 1.283 . S
O355 Zn348 1.965 . S
O355 C363 1.303 . S
O356 Zn349 1.938 . S
O356 C363 1.247 . S
O357 Zn349 1.906 . S
O357 C365 1.304 1_455 S
O358 Zn346 1.924 . S
O358 C366 1.301 1_455 S
O359 Zn350 1.977 1_655 S
O359 C365 1.272 . S
O360 Zn350 1.910 1_655 S
O360 C366 1.236 . S
C361 O345 1.225 . S
C361 O367 1.298 . S
C362 O351 1.226 . S
C362 O352 1.307 1_455 S
C363 O355 1.303 . S
C363 O356 1.247 . S
C364 O353 1.253 . S
C364 O354 1.283 . S
C365 O357 1.304 1_655 S
C365 O359 1.272 . S
C366 O358 1.301 1_655 S
C366 O360 1.236 . S
O367 Zn349 1.953 . S
O367 C361 1.298 . S
O368 Zn369 1.953 . S
O368 C384 1.225 . S
Zn369 O368 1.953 . S
Zn369 O370 1.949 . S
Zn369 O376 1.919 . S
Zn369 O381 1.924 . S
O370 Zn369 1.949 . S
O370 Zn371 1.923 . S
O370 Zn372 1.950 . S
O370 Zn373 1.945 . S
Zn371 O370 1.923 . S
Zn371 O374 1.933 . S
Zn371 O377 1.941 . S
Zn371 O378 1.965 . S
Zn372 O370 1.950 . S
Zn372 O379 1.938 . S
Zn372 O380 1.906 . S
Zn372 O390 1.953 . S
Zn373 O370 1.945 . S
Zn373 O375 1.932 1_565 S
Zn373 O382 1.977 1_565 S
Zn373 O383 1.910 1_565 S
O374 Zn371 1.933 . S
O374 C385 1.226 . S
O375 Zn373 1.932 1_545 S
O375 C385 1.307 1_545 S
O376 Zn369 1.919 . S
O376 C387 1.253 . S
O377 Zn371 1.941 . S
O377 C387 1.283 . S
O378 Zn371 1.965 . S
O378 C386 1.303 . S
O379 Zn372 1.938 . S
O379 C386 1.247 . S
O380 Zn372 1.906 . S
O380 C388 1.304 1_565 S
O381 Zn369 1.924 . S
O381 C389 1.301 1_565 S
O382 Zn373 1.977 1_545 S
O382 C388 1.272 . S
O383 Zn373 1.910 1_545 S
O383 C389 1.236 . S
C384 O368 1.225 . S
C384 O390 1.298 . S
C385 O374 1.226 . S
C385 O375 1.307 1_565 S
C386 O378 1.303 . S
C386 O379 1.247 . S
C387 O376 1.253 . S
C387 O377 1.283 . S
C388 O380 1.304 1_545 S
C388 O382 1.272 . S
C389 O381 1.301 1_545 S
C389 O383 1.236 . S
O390 Zn372 1.953 . S
O390 C384 1.298 . S
O391 Zn392 1.953 . S
O391 C407 1.225 . S
Zn392 O391 1.953 . S
Zn392 O393 1.949 . S
Zn392 O399 1.919 . S
Zn392 O404 1.924 . S
O393 Zn392 1.949 . S
O393 Zn394 1.923 . S
O393 Zn395 1.950 . S
O393 Zn396 1.945 . S
Zn394 O393 1.923 . S
Zn394 O397 1.933 . S
Zn394 O400 1.941 . S
Zn394 O401 1.965 . S
Zn395 O393 1.950 . S
Zn395 O402 1.938 . S
Zn395 O403 1.906 . S
Zn395 O413 1.953 . S
Zn396 O393 1.945 . S
Zn396 O398 1.932 1_545 S
Zn396 O405 1.977 1_545 S
Zn396 O406 1.910 1_545 S
O397 Zn394 1.933 . S
O397 C408 1.226 . S
O398 Zn396 1.932 1_565 S
O398 C408 1.307 1_565 S
O399 Zn392 1.919 . S
O399 C410 1.253 . S
O400 Zn394 1.941 . S
O400 C410 1.283 . S
O401 Zn394 1.965 . S
O401 C409 1.303 . S
O402 Zn395 1.938 . S
O402 C409 1.247 . S
O403 Zn395 1.906 . S
O403 C411 1.304 1_545 S
O404 Zn392 1.924 . S
O404 C412 1.301 1_545 S
O405 Zn396 1.977 1_565 S
O405 C411 1.272 . S
O406 Zn396 1.910 1_565 S
O406 C412 1.236 . S
C407 O391 1.225 . S
C407 O413 1.298 . S
C408 O397 1.226 . S
C408 O398 1.307 1_545 S
C409 O401 1.303 . S
C409 O402 1.247 . S
C410 O399 1.253 . S
C410 O400 1.283 . S
C411 O403 1.304 1_565 S
C411 O405 1.272 . S
C412 O404 1.301 1_565 S
C412 O406 1.236 . S
O413 Zn395 1.953 . S
O413 C407 1.298 . S
O414 Zn415 1.953 . S
O414 C430 1.225 . S
Zn415 O414 1.953 . S
Zn415 O416 1.949 . S
Zn415 O422 1.919 . S
Zn415 O427 1.924 . S
O416 Zn415 1.949 . S
O416 Zn417 1.923 . S
O416 Zn418 1.950 . S
O416 Zn419 1.945 . S
Zn417 O416 1.923 . S
Zn417 O420 1.933 . S
Zn417 O423 1.941 . S
Zn417 O424 1.965 . S
Zn418 O416 1.950 . S
Zn418 O425 1.938 . S
Zn418 O426 1.906 . S
Zn418 O436 1.953 . S
Zn419 O416 1.945 . S
Zn419 O421 1.932 . S
Zn419 O428 1.977 . S
Zn419 O429 1.910 . S
O420 Zn417 1.933 . S
O420 C431 1.226 . S
O421 Zn419 1.932 . S
O421 C431 1.307 . S
O422 Zn415 1.919 . S
O422 C433 1.253 . S
O423 Zn417 1.941 . S
O423 C433 1.283 . S
O424 Zn417 1.965 . S
O424 C432 1.303 . S
O425 Zn418 1.938 . S
O425 C432 1.247 . S
O426 Zn418 1.906 . S
O426 C434 1.304 . S
O427 Zn415 1.924 . S
O427 C435 1.311 . S
O428 Zn419 1.977 . S
O428 C434 1.272 . S
O429 Zn419 1.910 . S
O429 C435 1.231 . S
C430 O414 1.225 . S
C430 O436 1.298 . S
C431 O420 1.226 . S
C431 O421 1.307 . S
C432 O424 1.303 . S
C432 O425 1.247 . S
C433 O422 1.253 . S
C433 O423 1.283 . S
C434 O426 1.304 . S
C434 O428 1.272 . S
C435 O427 1.311 . S
C435 O429 1.231 . S
O436 Zn418 1.953 . S
O436 C430 1.298 . S
O437 Zn438 1.953 . S
O437 C453 1.225 . S
Zn438 O437 1.953 . S
Zn438 O439 1.949 . S
Zn438 O445 1.919 . S
Zn438 O450 1.924 . S
O439 Zn438 1.949 . S
O439 Zn440 1.923 . S
O439 Zn441 1.950 . S
O439 Zn442 1.945 . S
Zn440 O439 1.923 . S
Zn440 O443 1.933 . S
Zn440 O446 1.941 . S
Zn440 O447 1.965 . S
Zn441 O439 1.950 . S
Zn441 O448 1.938 . S
Zn441 O449 1.906 . S
Zn441 O459 1.953 . S
Zn442 O439 1.945 . S
Zn442 O444 1.932 . S
Zn442 O451 1.977 . S
Zn442 O452 1.910 . S
O443 Zn440 1.933 . S
O443 C454 1.226 . S
O444 Zn442 1.932 . S
O444 C454 1.307 . S
O445 Zn438 1.919 . S
O445 C456 1.253 . S
O446 Zn440 1.941 . S
O446 C456 1.283 . S
O447 Zn440 1.965 . S
O447 C455 1.303 . S
O448 Zn441 1.938 . S
O448 C455 1.247 . S
O449 Zn441 1.906 . S
O449 C457 1.304 . S
O450 Zn438 1.924 . S
O450 C458 1.311 . S
O451 Zn442 1.977 . S
O451 C457 1.272 . S
O452 Zn442 1.910 . S
O452 C458 1.231 . S
C453 O437 1.225 . S
C453 O459 1.298 . S
C454 O443 1.226 . S
C454 O444 1.307 . S
C455 O447 1.303 . S
C455 O448 1.247 . S
C456 O445 1.253 . S
C456 O446 1.283 . S
C457 O449 1.304 . S
C457 O451 1.272 . S
C458 O450 1.311 . S
C458 O452 1.231 . S
O459 Zn441 1.953 . S
O459 C453 1.298 . S
O460 Zn461 1.953 . S
O460 C476 1.225 . S
Zn461 O460 1.953 . S
Zn461 O462 1.949 . S
Zn461 O468 1.919 . S
Zn461 O473 1.924 . S
O462 Zn461 1.949 . S
O462 Zn463 1.923 . S
O462 Zn464 1.950 . S
O462 Zn465 1.945 . S
Zn463 O462 1.923 . S
Zn463 O466 1.933 . S
Zn463 O469 1.941 . S
Zn463 O470 1.965 . S
Zn464 O462 1.950 . S
Zn464 O471 1.938 . S
Zn464 O472 1.906 . S
Zn464 O482 1.953 . S
Zn465 O462 1.945 . S
Zn465 O467 1.932 1_556 S
Zn465 O474 1.977 1_556 S
Zn465 O475 1.910 1_556 S
O466 Zn463 1.933 . S
O466 C477 1.226 . S
O467 Zn465 1.932 1_554 S
O467 C477 1.307 1_554 S
O468 Zn461 1.919 . S
O468 C479 1.253 . S
O469 Zn463 1.941 . S
O469 C479 1.283 . S
O470 Zn463 1.965 . S
O470 C478 1.303 . S
O471 Zn464 1.938 . S
O471 C478 1.247 . S
O472 Zn464 1.906 . S
O472 C480 1.304 1_556 S
O473 Zn461 1.924 . S
O473 C481 1.301 1_556 S
O474 Zn465 1.977 1_554 S
O474 C480 1.272 . S
O475 Zn465 1.910 1_554 S
O475 C481 1.236 . S
C476 O460 1.225 . S
C476 O482 1.298 . S
C477 O466 1.226 . S
C477 O467 1.307 1_556 S
C478 O470 1.303 . S
C478 O471 1.247 . S
C479 O468 1.253 . S
C479 O469 1.283 . S
C480 O472 1.304 1_554 S
C480 O474 1.272 . S
C481 O473 1.301 1_554 S
C481 O475 1.236 . S
O482 Zn464 1.953 . S
O482 C476 1.298 . S
O483 Zn484 1.953 . S
O483 C499 1.225 . S
Zn484 O483 1.953 . S
Zn484 O485 1.949 . S
Zn484 O491 1.919 . S
Zn484 O496 1.924 . S
O485 Zn484 1.949 . S
O485 Zn486 1.923 . S
O485 Zn487 1.950 . S
O485 Zn488 1.945 . S
Zn486 O485 1.923 . S
Zn486 O489 1.933 . S
Zn486 O492 1.941 . S
Zn486 O493 1.965 . S
Zn487 O485 1.950 . S
Zn487 O494 1.938 . S
Zn487 O495 1.906 . S
Zn487 O505 1.953 . S
Zn488 O485 1.945 . S
Zn488 O490 1.932 1_554 S
Zn488 O497 1.977 1_554 S
Zn488 O498 1.910 1_554 S
O489 Zn486 1.933 . S
O489 C500 1.226 . S
O490 Zn488 1.932 1_556 S
O490 C500 1.307 1_556 S
O491 Zn484 1.919 . S
O491 C502 1.253 . S
O492 Zn486 1.941 . S
O492 C502 1.283 . S
O493 Zn486 1.965 . S
O493 C501 1.303 . S
O494 Zn487 1.938 . S
O494 C501 1.247 . S
O495 Zn487 1.906 . S
O495 C503 1.304 1_554 S
O496 Zn484 1.924 . S
O496 C504 1.301 1_554 S
O497 Zn488 1.977 1_556 S
O497 C503 1.272 . S
O498 Zn488 1.910 1_556 S
O498 C504 1.236 . S
C499 O483 1.225 . S
C499 O505 1.298 . S
C500 O489 1.226 . S
C500 O490 1.307 1_554 S
C501 O493 1.303 . S
C501 O494 1.247 . S
C502 O491 1.253 . S
C502 O492 1.283 . S
C503 O495 1.304 1_556 S
C503 O497 1.272 . S
C504 O496 1.301 1_556 S
C504 O498 1.236 . S
O505 Zn487 1.953 . S
O505 C499 1.298 . S
O506 Zn507 1.953 . S
O506 C522 1.225 . S
Zn507 O506 1.953 . S
Zn507 O508 1.949 . S
Zn507 O514 1.919 . S
Zn507 O519 1.924 . S
O508 Zn507 1.949 . S
O508 Zn509 1.923 . S
O508 Zn510 1.950 . S
O508 Zn511 1.945 . S
Zn509 O508 1.923 . S
Zn509 O512 1.933 . S
Zn509 O515 1.941 . S
Zn509 O516 1.965 . S
Zn510 O508 1.950 . S
Zn510 O517 1.938 . S
Zn510 O518 1.906 . S
Zn510 O528 1.953 . S
Zn511 O508 1.945 . S
Zn511 O513 1.932 . S
Zn511 O520 1.977 . S
Zn511 O521 1.910 . S
O512 Zn509 1.933 . S
O512 C523 1.226 . S
O513 Zn511 1.932 . S
O513 C523 1.307 . S
O514 Zn507 1.919 . S
O514 C525 1.253 . S
O515 Zn509 1.941 . S
O515 C525 1.283 . S
O516 Zn509 1.965 . S
O516 C524 1.303 . S
O517 Zn510 1.938 . S
O517 C524 1.247 . S
O518 Zn510 1.906 . S
O518 C526 1.304 . S
O519 Zn507 1.924 . S
O519 C527 1.311 . S
O520 Zn511 1.977 . S
O520 C526 1.272 . S
O521 Zn511 1.910 . S
O521 C527 1.231 . S
C522 O506 1.225 . S
C522 O528 1.298 . S
C523 O512 1.226 . S
C523 O513 1.307 . S
C524 O516 1.303 . S
C524 O517 1.247 . S
C525 O514 1.253 . S
C525 O515 1.283 . S
C526 O518 1.304 . S
C526 O520 1.272 . S
C527 O519 1.311 . S
C527 O521 1.231 . S
O528 Zn510 1.953 . S
O528 C522 1.298 . S
O529 Zn530 1.953 . S
O529 C545 1.225 . S
Zn530 O529 1.953 . S
Zn530 O531 1.949 . S
Zn530 O537 1.919 . S
Zn530 O542 1.924 . S
O531 Zn530 1.949 . S
O531 Zn532 1.923 . S
O531 Zn533 1.950 . S
O531 Zn534 1.945 . S
Zn532 O531 1.923 . S
Zn532 O535 1.933 . S
Zn532 O538 1.941 . S
Zn532 O539 1.965 . S
Zn533 O531 1.950 . S
Zn533 O540 1.938 . S
Zn533 O541 1.906 . S
Zn533 O551 1.953 . S
Zn534 O531 1.945 . S
Zn534 O536 1.932 . S
Zn534 O543 1.977 . S
Zn534 O544 1.910 . S
O535 Zn532 1.933 . S
O535 C546 1.226 . S
O536 Zn534 1.932 . S
O536 C546 1.307 . S
O537 Zn530 1.919 . S
O537 C548 1.253 . S
O538 Zn532 1.941 . S
O538 C548 1.283 . S
O539 Zn532 1.965 . S
O539 C547 1.303 . S
O540 Zn533 1.938 . S
O540 C547 1.247 . S
O541 Zn533 1.906 . S
O541 C549 1.304 . S
O542 Zn530 1.924 . S
O542 C550 1.311 . S
O543 Zn534 1.977 . S
O543 C549 1.272 . S
O544 Zn534 1.910 . S
O544 C550 1.231 . S
C545 O529 1.225 . S
C545 O551 1.298 . S
C546 O535 1.226 . S
C546 O536 1.307 . S
C547 O539 1.303 . S
C547 O540 1.247 . S
C548 O537 1.253 . S
C548 O538 1.283 . S
C549 O541 1.304 . S
C549 O543 1.272 . S
C550 O542 1.311 . S
C550 O544 1.231 . S
O551 Zn533 1.953 . S
O551 C545 1.298 . S
H552 C560 0.950 . S
H553 C565 0.950 . S
H554 C562 0.950 . S
H555 C564 0.950 . S
H556 C566 0.950 . S
H557 C568 0.950 . S
H558 C570 0.950 . S
H559 C571 0.950 . S
C560 H552 0.950 . S
C560 C561 1.386 . S
C560 C562 1.391 . S
C561 C560 1.386 . S
C561 C565 1.393 . S
C562 H554 0.950 . S
C562 C560 1.391 . S
C562 C563 1.400 . S
C563 C562 1.400 . S
C563 C564 1.398 . S
C563 C569 1.491 . S
C564 H555 0.950 . S
C564 C563 1.398 . S
C564 C565 1.391 . S
C565 H553 0.950 . S
C565 C561 1.393 . S
C565 C564 1.391 . S
C566 H556 0.950 . S
C566 C567 1.386 . S
C566 C568 1.391 . S
C567 C566 1.386 . S
C567 C571 1.393 . S
C568 H557 0.950 . S
C568 C566 1.391 . S
C568 C569 1.400 . S
C569 C563 1.491 . S
C569 C568 1.400 . S
C569 C570 1.398 . S
C570 H558 0.950 . S
C570 C569 1.398 . S
C570 C571 1.391 . S
C571 H559 0.950 . S
C571 C567 1.393 . S
C571 C570 1.391 . S
H572 C580 0.950 . S
H573 C585 0.950 . S
H574 C582 0.950 . S
H575 C584 0.950 . S
H576 C586 0.950 . S
H577 C588 0.950 . S
H578 C590 0.950 . S
H579 C591 0.950 . S
C580 H572 0.950 . S
C580 C581 1.386 . S
C580 C582 1.391 . S
C581 C580 1.386 . S
C581 C585 1.393 . S
C582 H574 0.950 . S
C582 C580 1.391 . S
C582 C583 1.400 . S
C583 C582 1.400 . S
C583 C584 1.398 . S
C583 C589 1.491 . S
C584 H575 0.950 . S
C584 C583 1.398 . S
C584 C585 1.391 . S
C585 H573 0.950 . S
C585 C581 1.393 . S
C585 C584 1.391 . S
C586 H576 0.950 . S
C586 C587 1.386 . S
C586 C588 1.391 . S
C587 C586 1.386 . S
C587 C591 1.393 . S
C588 H577 0.950 . S
C588 C586 1.391 . S
C588 C589 1.400 . S
C589 C583 1.491 . S
C589 C588 1.400 . S
C589 C590 1.398 . S
C590 H578 0.950 . S
C590 C589 1.398 . S
C590 C591 1.391 . S
C591 H579 0.950 . S
C591 C587 1.393 . S
C591 C590 1.391 . S
H592 C600 0.950 . S
H593 C605 0.950 . S
H594 C602 0.950 . S
H595 C604 0.950 . S
H596 C606 0.950 . S
H597 C608 0.950 . S
H598 C610 0.950 . S
H599 C611 0.950 . S
C600 H592 0.950 . S
C600 C601 1.386 . S
C600 C602 1.391 . S
C601 C600 1.386 . S
C601 C605 1.393 . S
C602 H594 0.950 . S
C602 C600 1.391 . S
C602 C603 1.400 . S
C603 C602 1.400 . S
C603 C604 1.398 . S
C603 C609 1.491 . S
C604 H595 0.950 . S
C604 C603 1.398 . S
C604 C605 1.391 . S
C605 H593 0.950 . S
C605 C601 1.393 . S
C605 C604 1.391 . S
C606 H596 0.950 . S
C606 C607 1.386 . S
C606 C608 1.391 . S
C607 C606 1.386 . S
C607 C611 1.393 . S
C608 H597 0.950 . S
C608 C606 1.391 . S
C608 C609 1.400 . S
C609 C603 1.491 . S
C609 C608 1.400 . S
C609 C610 1.398 . S
C610 H598 0.950 . S
C610 C609 1.398 . S
C610 C611 1.391 . S
C611 H599 0.950 . S
C611 C607 1.393 . S
C611 C610 1.391 . S
H612 C620 0.950 . S
H613 C625 0.950 . S
H614 C622 0.950 . S
H615 C624 0.950 . S
H616 C626 0.950 1_545 S
H617 C628 0.950 . S
H618 C630 0.950 . S
H619 C631 0.950 . S
C620 H612 0.950 . S
C620 C621 1.386 . S
C620 C622 1.391 . S
C621 C620 1.386 . S
C621 C625 1.393 . S
C622 H614 0.950 . S
C622 C620 1.391 . S
C622 C623 1.400 . S
C623 C622 1.400 . S
C623 C624 1.398 . S
C623 C629 1.491 . S
C624 H615 0.950 . S
C624 C623 1.398 . S
C624 C625 1.391 . S
C625 H613 0.950 . S
C625 C621 1.393 . S
C625 C624 1.391 . S
C626 H616 0.950 1_565 S
C626 C627 1.386 . S
C626 C628 1.391 . S
C627 C626 1.386 . S
C627 C631 1.393 . S
C628 H617 0.950 . S
C628 C626 1.391 . S
C628 C629 1.400 . S
C629 C623 1.491 . S
C629 C628 1.400 . S
C629 C630 1.398 . S
C630 H618 0.950 . S
C630 C629 1.398 . S
C630 C631 1.391 . S
C631 H619 0.950 . S
C631 C627 1.393 . S
C631 C630 1.391 . S
H632 C640 0.950 . S
H633 C645 0.950 . S
H634 C642 0.950 . S
H635 C644 0.950 . S
H636 C646 0.950 . S
H637 C648 0.950 . S
H638 C650 0.950 . S
H639 C651 0.950 . S
C640 H632 0.950 . S
C640 C641 1.386 . S
C640 C642 1.391 . S
C641 C640 1.386 . S
C641 C645 1.393 . S
C642 H634 0.950 . S
C642 C640 1.391 . S
C642 C643 1.400 . S
C643 C642 1.400 . S
C643 C644 1.398 . S
C643 C649 1.491 . S
C644 H635 0.950 . S
C644 C643 1.398 . S
C644 C645 1.391 . S
C645 H633 0.950 . S
C645 C641 1.393 . S
C645 C644 1.391 . S
C646 H636 0.950 . S
C646 C647 1.386 . S
C646 C648 1.391 . S
C647 C646 1.386 . S
C647 C651 1.393 . S
C648 H637 0.950 . S
C648 C646 1.391 . S
C648 C649 1.400 . S
C649 C643 1.491 . S
C649 C648 1.400 . S
C649 C650 1.398 . S
C650 H638 0.950 . S
C650 C649 1.398 . S
C650 C651 1.391 . S
C651 H639 0.950 . S
C651 C647 1.393 . S
C651 C650 1.391 . S
H652 C660 0.950 . S
H653 C665 0.950 . S
H654 C662 0.950 . S
H655 C664 0.950 . S
H656 C666 0.950 . S
H657 C668 0.950 . S
H658 C670 0.950 . S
H659 C671 0.950 1_554 S
C660 H652 0.950 . S
C660 C661 1.386 . S
C660 C662 1.391 . S
C661 C660 1.386 . S
C661 C665 1.393 . S
C662 H654 0.950 . S
C662 C660 1.391 . S
C662 C663 1.400 . S
C663 C662 1.400 . S
C663 C664 1.398 . S
C663 C669 1.491 . S
C664 H655 0.950 . S
C664 C663 1.398 . S
C664 C665 1.391 . S
C665 H653 0.950 . S
C665 C661 1.393 . S
C665 C664 1.391 . S
C666 H656 0.950 . S
C666 C667 1.386 . S
C666 C668 1.391 . S
C667 C666 1.386 . S
C667 C671 1.393 . S
C668 H657 0.950 . S
C668 C666 1.391 . S
C668 C669 1.400 . S
C669 C663 1.491 . S
C669 C668 1.400 . S
C669 C670 1.398 . S
C670 H658 0.950 . S
C670 C669 1.398 . S
C670 C671 1.391 . S
C671 H659 0.950 1_556 S
C671 C667 1.393 . S
C671 C670 1.391 . S
H672 C680 0.950 . S
H673 C685 0.950 . S
H674 C682 0.950 . S
H675 C684 0.950 . S
H676 C686 0.950 . S
H677 C688 0.950 . S
H678 C690 0.950 . S
H679 C691 0.950 . S
C680 H672 0.950 . S
C680 C681 1.386 . S
C680 C682 1.391 . S
C681 C680 1.386 . S
C681 C685 1.393 . S
C682 H674 0.950 . S
C682 C680 1.391 . S
C682 C683 1.400 . S
C683 C682 1.400 . S
C683 C684 1.398 . S
C683 C689 1.491 . S
C684 H675 0.950 . S
C684 C683 1.398 . S
C684 C685 1.391 . S
C685 H673 0.950 . S
C685 C681 1.393 . S
C685 C684 1.391 . S
C686 H676 0.950 . S
C686 C687 1.386 . S
C686 C688 1.391 . S
C687 C686 1.386 . S
C687 C691 1.393 . S
C688 H677 0.950 . S
C688 C686 1.391 . S
C688 C689 1.400 . S
C689 C683 1.491 . S
C689 C688 1.400 . S
C689 C690 1.398 . S
C690 H678 0.950 . S
C690 C689 1.398 . S
C690 C691 1.391 . S
C691 H679 0.950 . S
C691 C687 1.393 . S
C691 C690 1.391 . S
H692 C700 0.950 . S
H693 C705 0.950 . S
H694 C702 0.950 . S
H695 C704 0.950 . S
H696 C706 0.950 . S
H697 C708 0.950 . S
H698 C710 0.950 . S
H699 C711 0.950 1_556 S
C700 H692 0.950 . S
C700 C701 1.386 . S
C700 C702 1.391 . S
C701 C700 1.386 . S
C701 C705 1.393 . S
C702 H694 0.950 . S
C702 C700 1.391 . S
C702 C703 1.400 . S
C703 C702 1.400 . S
C703 C704 1.398 . S
C703 C709 1.491 . S
C704 H695 0.950 . S
C704 C703 1.398 . S
C704 C705 1.391 . S
C705 H693 0.950 . S
C705 C701 1.393 . S
C705 C704 1.391 . S
C706 H696 0.950 . S
C706 C707 1.386 . S
C706 C708 1.391 . S
C707 C706 1.386 . S
C707 C711 1.393 . S
C708 H697 0.950 . S
C708 C706 1.391 . S
C708 C709 1.400 . S
C709 C703 1.491 . S
C709 C708 1.400 . S
C709 C710 1.398 . S
C710 H698 0.950 . S
C710 C709 1.398 . S
C710 C711 1.391 . S
C711 H699 0.950 1_554 S
C711 C707 1.393 . S
C711 C710 1.391 . S
H712 C720 0.950 . S
H713 C725 0.950 . S
H714 C722 0.950 . S
H715 C724 0.950 . S
H716 C726 0.950 . S
H717 C728 0.950 . S
H718 C730 0.950 . S
H719 C731 0.950 . S
C720 H712 0.950 . S
C720 C721 1.386 . S
C720 C722 1.391 . S
C721 C720 1.386 . S
C721 C725 1.393 . S
C722 H714 0.950 . S
C722 C720 1.391 . S
C722 C723 1.400 . S
C723 C722 1.400 . S
C723 C724 1.398 . S
C723 C729 1.491 . S
C724 H715 0.950 . S
C724 C723 1.398 . S
C724 C725 1.391 . S
C725 H713 0.950 . S
C725 C721 1.393 . S
C725 C724 1.391 . S
C726 H716 0.950 . S
C726 C727 1.386 . S
C726 C728 1.391 . S
C727 C726 1.386 . S
C727 C731 1.393 . S
C728 H717 0.950 . S
C728 C726 1.391 . S
C728 C729 1.400 . S
C729 C723 1.491 . S
C729 C728 1.400 . S
C729 C730 1.398 . S
C730 H718 0.950 . S
C730 C729 1.398 . S
C730 C731 1.391 . S
C731 H719 0.950 . S
C731 C727 1.393 . S
C731 C730 1.391 . S
H732 C740 0.950 . S
H733 C745 0.950 . S
H734 C742 0.950 . S
H735 C744 0.950 . S
H736 C746 0.950 . S
H737 C748 0.950 . S
H738 C750 0.950 . S
H739 C751 0.950 1_455 S
C740 H732 0.950 . S
C740 C741 1.386 . S
C740 C742 1.391 . S
C741 C740 1.386 . S
C741 C745 1.393 . S
C742 H734 0.950 . S
C742 C740 1.391 . S
C742 C743 1.400 . S
C743 C742 1.400 . S
C743 C744 1.398 . S
C743 C749 1.491 . S
C744 H735 0.950 . S
C744 C743 1.398 . S
C744 C745 1.391 . S
C745 H733 0.950 . S
C745 C741 1.393 . S
C745 C744 1.391 . S
C746 H736 0.950 . S
C746 C747 1.386 . S
C746 C748 1.391 . S
C747 C746 1.386 . S
C747 C751 1.393 . S
C748 H737 0.950 . S
C748 C746 1.391 . S
C748 C749 1.400 . S
C749 C743 1.491 . S
C749 C748 1.400 . S
C749 C750 1.398 . S
C750 H738 0.950 . S
C750 C749 1.398 . S
C750 C751 1.391 . S
C751 H739 0.950 1_655 S
C751 C747 1.393 . S
C751 C750 1.391 . S
H752 C760 0.950 . S
H753 C765 0.950 . S
H754 C762 0.950 . S
H755 C764 0.950 . S
H756 C766 0.950 . S
H757 C768 0.950 . S
H758 C770 0.950 . S
H759 C771 0.950 . S
C760 H752 0.950 . S
C760 C761 1.386 . S
C760 C762 1.391 . S
C761 C760 1.386 . S
C761 C765 1.393 . S
C762 H754 0.950 . S
C762 C760 1.391 . S
C762 C763 1.400 . S
C763 C762 1.400 . S
C763 C764 1.398 . S
C763 C769 1.491 . S
C764 H755 0.950 . S
C764 C763 1.398 . S
C764 C765 1.391 . S
C765 H753 0.950 . S
C765 C761 1.393 . S
C765 C764 1.391 . S
C766 H756 0.950 . S
C766 C767 1.386 . S
C766 C768 1.391 . S
C767 C766 1.386 . S
C767 C771 1.393 . S
C768 H757 0.950 . S
C768 C766 1.391 . S
C768 C769 1.400 . S
C769 C763 1.491 . S
C769 C768 1.400 . S
C769 C770 1.398 . S
C770 H758 0.950 . S
C770 C769 1.398 . S
C770 C771 1.391 . S
C771 H759 0.950 . S
C771 C767 1.393 . S
C771 C770 1.391 . S
H772 C780 0.950 . S
H773 C785 0.950 . S
H774 C782 0.950 . S
H775 C784 0.950 . S
H776 C786 0.950 . S
H777 C788 0.950 . S
H778 C790 0.950 . S
H779 C791 0.950 . S
C780 H772 0.950 . S
C780 C781 1.386 . S
C780 C782 1.391 . S
C781 C780 1.386 . S
C781 C785 1.393 . S
C782 H774 0.950 . S
C782 C780 1.391 . S
C782 C783 1.400 . S
C783 C782 1.400 . S
C783 C784 1.398 . S
C783 C789 1.491 . S
C784 H775 0.950 . S
C784 C783 1.398 . S
C784 C785 1.391 . S
C785 H773 0.950 . S
C785 C781 1.393 . S
C785 C784 1.391 . S
C786 H776 0.950 . S
C786 C787 1.386 . S
C786 C788 1.391 . S
C787 C786 1.386 . S
C787 C791 1.393 . S
C788 H777 0.950 . S
C788 C786 1.391 . S
C788 C789 1.400 . S
C789 C783 1.491 . S
C789 C788 1.400 . S
C789 C790 1.398 . S
C790 H778 0.950 . S
C790 C789 1.398 . S
C790 C791 1.391 . S
C791 H779 0.950 . S
C791 C787 1.393 . S
C791 C790 1.391 . S
H792 C800 0.950 . S
H793 C805 0.950 . S
H794 C802 0.950 . S
H795 C804 0.950 . S
H796 C806 0.950 . S
H797 C808 0.950 . S
H798 C810 0.950 . S
H799 C811 0.950 . S
C800 H792 0.950 . S
C800 C801 1.386 . S
C800 C802 1.391 . S
C801 C800 1.386 . S
C801 C805 1.393 . S
C802 H794 0.950 . S
C802 C800 1.391 . S
C802 C803 1.400 . S
C803 C802 1.400 . S
C803 C804 1.398 . S
C803 C809 1.491 . S
C804 H795 0.950 . S
C804 C803 1.398 . S
C804 C805 1.391 . S
C805 H793 0.950 . S
C805 C801 1.393 . S
C805 C804 1.391 . S
C806 H796 0.950 . S
C806 C807 1.386 . S
C806 C808 1.391 . S
C807 C806 1.386 . S
C807 C811 1.393 . S
C808 H797 0.950 . S
C808 C806 1.391 . S
C808 C809 1.400 . S
C809 C803 1.491 . S
C809 C808 1.400 . S
C809 C810 1.398 . S
C810 H798 0.950 . S
C810 C809 1.398 . S
C810 C811 1.391 . S
C811 H799 0.950 . S
C811 C807 1.393 . S
C811 C810 1.391 . S
H812 C820 0.950 . S
H813 C825 0.950 . S
H814 C822 0.950 . S
H815 C824 0.950 . S
H816 C826 0.950 . S
H817 C828 0.950 . S
H818 C830 0.950 . S
H819 C831 0.950 . S
C820 H812 0.950 . S
C820 C821 1.386 . S
C820 C822 1.391 . S
C821 C820 1.386 . S
C821 C825 1.393 . S
C822 H814 0.950 . S
C822 C820 1.391 . S
C822 C823 1.400 . S
C823 C822 1.400 . S
C823 C824 1.398 . S
C823 C829 1.491 . S
C824 H815 0.950 . S
C824 C823 1.398 . S
C824 C825 1.391 . S
C825 H813 0.950 . S
C825 C821 1.393 . S
C825 C824 1.391 . S
C826 H816 0.950 . S
C826 C827 1.386 . S
C826 C828 1.391 . S
C827 C826 1.386 . S
C827 C831 1.393 . S
C828 H817 0.950 . S
C828 C826 1.391 . S
C828 C829 1.400 . S
C829 C823 1.491 . S
C829 C828 1.400 . S
C829 C830 1.398 . S
C830 H818 0.950 . S
C830 C829 1.398 . S
C830 C831 1.391 . S
C831 H819 0.950 . S
C831 C827 1.393 . S
C831 C830 1.391 . S
H832 C840 0.950 . S
H833 C845 0.950 . S
H834 C842 0.950 . S
H835 C844 0.950 . S
H836 C846 0.950 1_545 S
H837 C848 0.950 . S
H838 C850 0.950 . S
H839 C851 0.950 . S
C840 H832 0.950 . S
C840 C841 1.386 . S
C840 C842 1.391 . S
C841 C840 1.386 . S
C841 C845 1.393 . S
C842 H834 0.950 . S
C842 C840 1.391 . S
C842 C843 1.400 . S
C843 C842 1.400 . S
C843 C844 1.398 . S
C843 C849 1.491 . S
C844 H835 0.950 . S
C844 C843 1.398 . S
C844 C845 1.391 . S
C845 H833 0.950 . S
C845 C841 1.393 . S
C845 C844 1.391 . S
C846 H836 0.950 1_565 S
C846 C847 1.386 . S
C846 C848 1.391 . S
C847 C846 1.386 . S
C847 C851 1.393 . S
C848 H837 0.950 . S
C848 C846 1.391 . S
C848 C849 1.400 . S
C849 C843 1.491 . S
C849 C848 1.400 . S
C849 C850 1.398 . S
C850 H838 0.950 . S
C850 C849 1.398 . S
C850 C851 1.391 . S
C851 H839 0.950 . S
C851 C847 1.393 . S
C851 C850 1.391 . S
H852 C860 0.950 1_565 S
H853 C865 0.950 . S
H854 C862 0.950 . S
H855 C864 0.950 . S
H856 C866 0.950 . S
H857 C868 0.950 . S
H858 C870 0.950 . S
H859 C871 0.950 . S
C860 H852 0.950 1_545 S
C860 C861 1.386 . S
C860 C862 1.391 . S
C861 C860 1.386 . S
C861 C865 1.393 . S
C862 H854 0.950 . S
C862 C860 1.391 . S
C862 C863 1.400 . S
C863 C862 1.400 . S
C863 C864 1.398 . S
C863 C869 1.491 . S
C864 H855 0.950 . S
C864 C863 1.398 . S
C864 C865 1.391 . S
C865 H853 0.950 . S
C865 C861 1.393 . S
C865 C864 1.391 . S
C866 H856 0.950 . S
C866 C867 1.386 . S
C866 C868 1.391 . S
C867 C866 1.386 . S
C867 C871 1.393 . S
C868 H857 0.950 . S
C868 C866 1.391 . S
C868 C869 1.400 . S
C869 C863 1.491 . S
C869 C868 1.400 . S
C869 C870 1.398 . S
C870 H858 0.950 . S
C870 C869 1.398 . S
C870 C871 1.391 . S
C871 H859 0.950 . S
C871 C867 1.393 . S
C871 C870 1.391 . S
H872 C880 0.950 . S
H873 C885 0.950 . S
H874 C882 0.950 . S
H875 C884 0.950 . S
H876 C886 0.950 . S
H877 C888 0.950 . S
H878 C890 0.950 . S
H879 C891 0.950 . S
C880 H872 0.950 . S
C880 C881 1.386 . S
C880 C882 1.391 . S
C881 C880 1.386 . S
C881 C885 1.393 . S
C882 H874 0.950 . S
C882 C880 1.391 . S
C882 C883 1.400 . S
C883 C882 1.400 . S
C883 C884 1.398 . S
C883 C889 1.491 . S
C884 H875 0.950 . S
C884 C883 1.398 . S
C884 C885 1.391 . S
C885 H873 0.950 . S
C885 C881 1.393 . S
C885 C884 1.391 . S
C886 H876 0.950 . S
C886 C887 1.386 . S
C886 C888 1.391 . S
C887 C886 1.386 . S
C887 C891 1.393 . S
C888 H877 0.950 . S
C888 C886 1.391 . S
C888 C889 1.400 . S
C889 C883 1.491 . S
C889 C888 1.400 . S
C889 C890 1.398 . S
C890 H878 0.950 . S
C890 C889 1.398 . S
C890 C891 1.391 . S
C891 H879 0.950 . S
C891 C887 1.393 . S
C891 C890 1.391 . S
H892 C900 0.944 1_556 S
H893 C905 0.950 . S
H894 C902 0.950 . S
H895 C904 0.950 . S
H896 C906 0.950 . S
H897 C908 0.950 . S
H898 C910 0.950 . S
H899 C911 0.950 . S
C900 H892 0.944 1_554 S
C900 C901 1.386 . S
C900 C902 1.391 . S
C901 C900 1.386 . S
C901 C905 1.393 . S
C902 H894 0.950 . S
C902 C900 1.391 . S
C902 C903 1.400 . S
C903 C902 1.400 . S
C903 C904 1.398 . S
C903 C909 1.491 . S
C904 H895 0.950 . S
C904 C903 1.398 . S
C904 C905 1.391 . S
C905 H893 0.950 . S
C905 C901 1.393 . S
C905 C904 1.391 . S
C906 H896 0.950 . S
C906 C907 1.386 . S
C906 C908 1.391 . S
C907 C906 1.386 . S
C907 C911 1.393 . S
C908 H897 0.950 . S
C908 C906 1.391 . S
C908 C909 1.400 . S
C909 C903 1.491 . S
C909 C908 1.400 . S
C909 C910 1.398 . S
C910 H898 0.950 . S
C910 C909 1.398 . S
C910 C911 1.391 . S
C911 H899 0.950 . S
C911 C907 1.393 . S
C911 C910 1.391 . S
H912 C920 0.950 . S
H913 C925 0.950 . S
H914 C922 0.950 . S
H915 C924 0.950 . S
H916 C926 0.950 . S
H917 C928 0.950 . S
H918 C930 0.950 . S
H919 C931 0.950 . S
C920 H912 0.950 . S
C920 C921 1.386 . S
C920 C922 1.391 . S
C921 C920 1.386 . S
C921 C925 1.393 . S
C922 H914 0.950 . S
C922 C920 1.391 . S
C922 C923 1.400 . S
C923 C922 1.400 . S
C923 C924 1.398 . S
C923 C929 1.491 . S
C924 H915 0.950 . S
C924 C923 1.398 . S
C924 C925 1.391 . S
C925 H913 0.950 . S
C925 C921 1.393 . S
C925 C924 1.391 . S
C926 H916 0.950 . S
C926 C927 1.386 . S
C926 C928 1.391 . S
C927 C926 1.386 . S
C927 C931 1.393 . S
C928 H917 0.950 . S
C928 C926 1.391 . S
C928 C929 1.400 . S
C929 C923 1.491 . S
C929 C928 1.400 . S
C929 C930 1.398 . S
C930 H918 0.950 . S
C930 C929 1.398 . S
C930 C931 1.391 . S
C931 H919 0.950 . S
C931 C927 1.393 . S
C931 C930 1.391 . S
H932 C940 0.950 1_554 S
H933 C945 0.950 . S
H934 C942 0.950 . S
H935 C944 0.950 . S
H936 C946 0.950 . S
H937 C948 0.950 . S
H938 C950 0.950 . S
H939 C951 0.950 . S
C940 H932 0.950 1_556 S
C940 C941 1.386 . S
C940 C942 1.391 . S
C941 C940 1.386 . S
C941 C945 1.393 . S
C942 H934 0.950 . S
C942 C940 1.391 . S
C942 C943 1.400 . S
C943 C942 1.400 . S
C943 C944 1.398 . S
C943 C949 1.491 . S
C944 H935 0.950 . S
C944 C943 1.398 . S
C944 C945 1.391 . S
C945 H933 0.950 . S
C945 C941 1.393 . S
C945 C944 1.391 . S
C946 H936 0.950 . S
C946 C947 1.386 . S
C946 C948 1.391 . S
C947 C946 1.386 . S
C947 C951 1.393 . S
C948 H937 0.950 . S
C948 C946 1.391 . S
C948 C949 1.400 . S
C949 C943 1.491 . S
C949 C948 1.400 . S
C949 C950 1.398 . S
C950 H938 0.950 . S
C950 C949 1.398 . S
C950 C951 1.391 . S
C951 H939 0.950 . S
C951 C947 1.393 . S
C951 C950 1.391 . S
H952 C960 0.950 . S
H953 C965 0.950 . S
H954 C962 0.950 . S
H955 C964 0.950 . S
H956 C966 0.950 . S
H957 C968 0.950 . S
H958 C970 0.950 . S
H959 C971 0.950 . S
C960 H952 0.950 . S
C960 C961 1.386 . S
C960 C962 1.391 . S
C961 C960 1.386 . S
C961 C965 1.393 . S
C962 H954 0.950 . S
C962 C960 1.391 . S
C962 C963 1.400 . S
C963 C962 1.400 . S
C963 C964 1.398 . S
C963 C969 1.491 . S
C964 H955 0.950 . S
C964 C963 1.398 . S
C964 C965 1.391 . S
C965 H953 0.950 . S
C965 C961 1.393 . S
C965 C964 1.391 . S
C966 H956 0.950 . S
C966 C967 1.386 . S
C966 C968 1.391 . S
C967 C966 1.386 . S
C967 C971 1.393 . S
C968 H957 0.950 . S
C968 C966 1.391 . S
C968 C969 1.400 . S
C969 C963 1.491 . S
C969 C968 1.400 . S
C969 C970 1.398 . S
C970 H958 0.950 . S
C970 C969 1.398 . S
C970 C971 1.391 . S
C971 H959 0.950 . S
C971 C967 1.393 . S
C971 C970 1.391 . S
H972 C980 0.950 . S
H973 C985 0.950 . S
H974 C982 0.950 . S
H975 C984 0.950 . S
H976 C986 0.950 . S
H977 C988 0.950 . S
H978 C990 0.950 . S
H979 C991 0.950 . S
C980 H972 0.950 . S
C980 C981 1.386 . S
C980 C982 1.391 . S
C981 C980 1.386 . S
C981 C985 1.393 . S
C982 H974 0.950 . S
C982 C980 1.391 . S
C982 C983 1.400 . S
C983 C982 1.400 . S
C983 C984 1.398 . S
C983 C989 1.491 . S
C984 H975 0.950 . S
C984 C983 1.398 . S
C984 C985 1.391 . S
C985 H973 0.950 . S
C985 C981 1.393 . S
C985 C984 1.391 . S
C986 H976 0.950 . S
C986 C987 1.386 . S
C986 C988 1.391 . S
C987 C986 1.386 . S
C987 C991 1.393 . S
C988 H977 0.950 . S
C988 C986 1.391 . S
C988 C989 1.400 . S
C989 C983 1.491 . S
C989 C988 1.400 . S
C989 C990 1.398 . S
C990 H978 0.950 . S
C990 C989 1.398 . S
C990 C991 1.391 . S
C991 H979 0.950 . S
C991 C987 1.393 . S
C991 C990 1.391 . S
H992 C1000 0.950 . S
H993 C1005 0.950 . S
H994 C1002 0.950 . S
H995 C1004 0.950 . S
H996 C1006 0.950 . S
H997 C1008 0.950 . S
H998 C1010 0.950 . S
H999 C1011 0.950 . S
C1000 H992 0.950 . S
C1000 C1001 1.386 . S
C1000 C1002 1.391 . S
C1001 C1000 1.386 . S
C1001 C1005 1.393 . S
C1002 H994 0.950 . S
C1002 C1000 1.391 . S
C1002 C1003 1.400 . S
C1003 C1002 1.400 . S
C1003 C1004 1.398 . S
C1003 C1009 1.491 . S
C1004 H995 0.950 . S
C1004 C1003 1.398 . S
C1004 C1005 1.391 . S
C1005 H993 0.950 . S
C1005 C1001 1.393 . S
C1005 C1004 1.391 . S
C1006 H996 0.950 . S
C1006 C1007 1.386 . S
C1006 C1008 1.391 . S
C1007 C1006 1.386 . S
C1007 C1011 1.393 . S
C1008 H997 0.950 . S
C1008 C1006 1.391 . S
C1008 C1009 1.400 . S
C1009 C1003 1.491 . S
C1009 C1008 1.400 . S
C1009 C1010 1.398 . S
C1010 H998 0.950 . S
C1010 C1009 1.398 . S
C1010 C1011 1.391 . S
C1011 H999 0.950 . S
C1011 C1007 1.393 . S
C1011 C1010 1.391 . S
H1012 C1020 0.950 . S
H1013 C1025 0.950 . S
H1014 C1022 0.950 . S
H1015 C1024 0.950 . S
H1016 C1026 0.950 . S
H1017 C1028 0.950 . S
H1018 C1030 0.950 . S
H1019 C1031 0.950 . S
C1020 H1012 0.950 . S
C1020 C1021 1.386 . S
C1020 C1022 1.391 . S
C1021 C1020 1.386 . S
C1021 C1025 1.393 . S
C1022 H1014 0.950 . S
C1022 C1020 1.391 . S
C1022 C1023 1.400 . S
C1023 C1022 1.400 . S
C1023 C1024 1.398 . S
C1023 C1029 1.491 . S
C1024 H1015 0.950 . S
C1024 C1023 1.398 . S
C1024 C1025 1.391 . S
C1025 H1013 0.950 . S
C1025 C1021 1.393 . S
C1025 C1024 1.391 . S
C1026 H1016 0.950 . S
C1026 C1027 1.386 . S
C1026 C1028 1.391 . S
C1027 C1026 1.386 . S
C1027 C1031 1.393 . S
C1028 H1017 0.950 . S
C1028 C1026 1.391 . S
C1028 C1029 1.400 . S
C1029 C1023 1.491 . S
C1029 C1028 1.400 . S
C1029 C1030 1.398 . S
C1030 H1018 0.950 . S
C1030 C1029 1.398 . S
C1030 C1031 1.391 . S
C1031 H1019 0.950 . S
C1031 C1027 1.393 . S
C1031 C1030 1.391 . S
H1032 C1040 0.950 . S
H1033 C1045 0.950 . S
H1034 C1042 0.950 . S
H1035 C1044 0.950 . S
H1036 C1046 0.950 . S
H1037 C1048 0.950 . S
H1038 C1050 0.950 . S
H1039 C1051 0.950 . S
C1040 H1032 0.950 . S
C1040 C1041 1.386 . S
C1040 C1042 1.391 . S
C1041 C1040 1.386 . S
C1041 C1045 1.393 . S
C1042 H1034 0.950 . S
C1042 C1040 1.391 . S
C1042 C1043 1.400 . S
C1043 C1042 1.400 . S
C1043 C1044 1.398 . S
C1043 C1049 1.491 . S
C1044 H1035 0.950 . S
C1044 C1043 1.398 . S
C1044 C1045 1.391 . S
C1045 H1033 0.950 . S
C1045 C1041 1.393 . S
C1045 C1044 1.391 . S
C1046 H1036 0.950 . S
C1046 C1047 1.386 . S
C1046 C1048 1.391 . S
C1047 C1046 1.386 . S
C1047 C1051 1.393 . S
C1048 H1037 0.950 . S
C1048 C1046 1.391 . S
C1048 C1049 1.400 . S
C1049 C1043 1.491 . S
C1049 C1048 1.400 . S
C1049 C1050 1.398 . S
C1050 H1038 0.950 . S
C1050 C1049 1.398 . S
C1050 C1051 1.391 . S
C1051 H1039 0.950 . S
C1051 C1047 1.393 . S
C1051 C1050 1.391 . S
H1052 C1060 0.950 . S
H1053 C1065 0.950 . S
H1054 C1062 0.950 . S
H1055 C1064 0.950 . S
H1056 C1066 0.950 . S
H1057 C1068 0.950 . S
H1058 C1070 0.950 . S
H1059 C1071 0.950 . S
C1060 H1052 0.950 . S
C1060 C1061 1.386 . S
C1060 C1062 1.391 . S
C1061 C1060 1.386 . S
C1061 C1065 1.393 . S
C1062 H1054 0.950 . S
C1062 C1060 1.391 . S
C1062 C1063 1.400 . S
C1063 C1062 1.400 . S
C1063 C1064 1.398 . S
C1063 C1069 1.491 . S
C1064 H1055 0.950 . S
C1064 C1063 1.398 . S
C1064 C1065 1.391 . S
C1065 H1053 0.950 . S
C1065 C1061 1.393 . S
C1065 C1064 1.391 . S
C1066 H1056 0.950 . S
C1066 C1067 1.386 . S
C1066 C1068 1.391 . S
C1067 C1066 1.386 . S
C1067 C1071 1.393 . S
C1068 H1057 0.950 . S
C1068 C1066 1.391 . S
C1068 C1069 1.400 . S
C1069 C1063 1.491 . S
C1069 C1068 1.400 . S
C1069 C1070 1.398 . S
C1070 H1058 0.950 . S
C1070 C1069 1.398 . S
C1070 C1071 1.391 . S
C1071 H1059 0.950 . S
C1071 C1067 1.393 . S
C1071 C1070 1.391 . S
H1072 C1080 0.950 . S
H1073 C1085 0.950 . S
H1074 C1082 0.950 . S
H1075 C1084 0.950 . S
H1076 C1086 0.950 . S
H1077 C1088 0.950 . S
H1078 C1090 0.950 . S
H1079 C1091 0.950 . S
C1080 H1072 0.950 . S
C1080 C1081 1.386 . S
C1080 C1082 1.391 . S
C1081 C1080 1.386 . S
C1081 C1085 1.393 . S
C1082 H1074 0.950 . S
C1082 C1080 1.391 . S
C1082 C1083 1.400 . S
C1083 C1082 1.400 . S
C1083 C1084 1.398 . S
C1083 C1089 1.491 . S
C1084 H1075 0.950 . S
C1084 C1083 1.398 . S
C1084 C1085 1.391 . S
C1085 H1073 0.950 . S
C1085 C1081 1.393 . S
C1085 C1084 1.391 . S
C1086 H1076 0.950 . S
C1086 C1087 1.386 . S
C1086 C1088 1.391 . S
C1087 C1086 1.386 . S
C1087 C1091 1.393 . S
C1088 H1077 0.950 . S
C1088 C1086 1.391 . S
C1088 C1089 1.400 . S
C1089 C1083 1.491 . S
C1089 C1088 1.400 . S
C1089 C1090 1.398 . S
C1090 H1078 0.950 . S
C1090 C1089 1.398 . S
C1090 C1091 1.391 . S
C1091 H1079 0.950 . S
C1091 C1087 1.393 . S
C1091 C1090 1.391 . S
H1092 C1100 0.950 . S
H1093 C1105 0.950 . S
H1094 C1102 0.950 . S
H1095 C1104 0.950 . S
H1096 C1106 0.950 . S
H1097 C1108 0.950 . S
H1098 C1110 0.950 . S
H1099 C1111 0.950 . S
C1100 H1092 0.950 . S
C1100 C1101 1.386 . S
C1100 C1102 1.391 . S
C1101 C1100 1.386 . S
C1101 C1105 1.393 . S
C1102 H1094 0.950 . S
C1102 C1100 1.391 . S
C1102 C1103 1.400 . S
C1103 C1102 1.400 . S
C1103 C1104 1.398 . S
C1103 C1109 1.491 . S
C1104 H1095 0.950 . S
C1104 C1103 1.398 . S
C1104 C1105 1.391 . S
C1105 H1093 0.950 . S
C1105 C1101 1.393 . S
C1105 C1104 1.391 . S
C1106 H1096 0.950 . S
C1106 C1107 1.386 . S
C1106 C1108 1.391 . S
C1107 C1106 1.386 . S
C1107 C1111 1.393 . S
C1108 H1097 0.950 . S
C1108 C1106 1.391 . S
C1108 C1109 1.400 . S
C1109 C1103 1.491 . S
C1109 C1108 1.400 . S
C1109 C1110 1.398 . S
C1110 H1098 0.950 . S
C1110 C1109 1.398 . S
C1110 C1111 1.391 . S
C1111 H1099 0.950 . S
C1111 C1107 1.393 . S
C1111 C1110 1.391 . S
H1112 C1120 0.950 . S
H1113 C1125 0.950 . S
H1114 C1122 0.950 . S
H1115 C1124 0.950 . S
H1116 C1126 0.950 . S
H1117 C1128 0.950 . S
H1118 C1130 0.950 . S
H1119 C1131 0.950 . S
C1120 H1112 0.950 . S
C1120 C1121 1.386 . S
C1120 C1122 1.391 . S
C1121 C1120 1.386 . S
C1121 C1125 1.393 . S
C1122 H1114 0.950 . S
C1122 C1120 1.391 . S
C1122 C1123 1.400 . S
C1123 C1122 1.400 . S
C1123 C1124 1.398 . S
C1123 C1129 1.491 . S
C1124 H1115 0.950 . S
C1124 C1123 1.398 . S
C1124 C1125 1.391 . S
C1125 H1113 0.950 . S
C1125 C1121 1.393 . S
C1125 C1124 1.391 . S
C1126 H1116 0.950 . S
C1126 C1127 1.386 . S
C1126 C1128 1.391 . S
C1127 C1126 1.386 . S
C1127 C1131 1.393 . S
C1128 H1117 0.950 . S
C1128 C1126 1.391 . S
C1128 C1129 1.400 . S
C1129 C1123 1.491 . S
C1129 C1128 1.400 . S
C1129 C1130 1.398 . S
C1130 H1118 0.950 . S
C1130 C1129 1.398 . S
C1130 C1131 1.391 . S
C1131 H1119 0.950 . S
C1131 C1127 1.393 . S
C1131 C1130 1.391 . S
H1132 C1140 0.950 . S
H1133 C1145 0.950 . S
H1134 C1142 0.950 . S
H1135 C1144 0.950 . S
H1136 C1146 0.950 . S
H1137 C1148 0.950 . S
H1138 C1150 0.950 . S
H1139 C1151 0.950 . S
C1140 H1132 0.950 . S
C1140 C1141 1.386 . S
C1140 C1142 1.391 . S
C1141 C1140 1.386 . S
C1141 C1145 1.393 . S
C1142 H1134 0.950 . S
C1142 C1140 1.391 . S
C1142 C1143 1.400 . S
C1143 C1142 1.400 . S
C1143 C1144 1.398 . S
C1143 C1149 1.491 . S
C1144 H1135 0.950 . S
C1144 C1143 1.398 . S
C1144 C1145 1.391 . S
C1145 H1133 0.950 . S
C1145 C1141 1.393 . S
C1145 C1144 1.391 . S
C1146 H1136 0.950 . S
C1146 C1147 1.386 . S
C1146 C1148 1.391 . S
C1147 C1146 1.386 . S
C1147 C1151 1.393 . S
C1148 H1137 0.950 . S
C1148 C1146 1.391 . S
C1148 C1149 1.400 . S
C1149 C1143 1.491 . S
C1149 C1148 1.400 . S
C1149 C1150 1.398 . S
C1150 H1138 0.950 . S
C1150 C1149 1.398 . S
C1150 C1151 1.391 . S
C1151 H1139 0.950 . S
C1151 C1147 1.393 . S
C1151 C1150 1.391 . S
H1152 C1160 0.950 . S
H1153 C1165 0.950 . S
H1154 C1162 0.950 . S
H1155 C1164 0.950 . S
H1156 C1166 0.950 . S
H1157 C1168 0.950 . S
H1158 C1170 0.950 . S
H1159 C1171 0.950 . S
C1160 H1152 0.950 . S
C1160 C1161 1.386 . S
C1160 C1162 1.391 . S
C1161 C1160 1.386 . S
C1161 C1165 1.393 . S
C1162 H1154 0.950 . S
C1162 C1160 1.391 . S
C1162 C1163 1.400 . S
C1163 C1162 1.400 . S
C1163 C1164 1.398 . S
C1163 C1169 1.491 . S
C1164 H1155 0.950 . S
C1164 C1163 1.398 . S
C1164 C1165 1.391 . S
C1165 H1153 0.950 . S
C1165 C1161 1.393 . S
C1165 C1164 1.391 . S
C1166 H1156 0.950 . S
C1166 C1167 1.386 . S
C1166 C1168 1.391 . S
C1167 C1166 1.386 . S
C1167 C1171 1.393 . S
C1168 H1157 0.950 . S
C1168 C1166 1.391 . S
C1168 C1169 1.400 . S
C1169 C1163 1.491 . S
C1169 C1168 1.400 . S
C1169 C1170 1.398 . S
C1170 H1158 0.950 . S
C1170 C1169 1.398 . S
C1170 C1171 1.391 . S
C1171 H1159 0.950 . S
C1171 C1167 1.393 . S
C1171 C1170 1.391 . S
H1172 C1180 0.950 . S
H1173 C1185 0.950 . S
H1174 C1182 0.950 . S
H1175 C1184 0.950 . S
H1176 C1186 0.950 . S
H1177 C1188 0.950 . S
H1178 C1190 0.950 . S
H1179 C1191 0.950 . S
C1180 H1172 0.950 . S
C1180 C1181 1.386 . S
C1180 C1182 1.391 . S
C1181 C1180 1.386 . S
C1181 C1185 1.393 . S
C1182 H1174 0.950 . S
C1182 C1180 1.391 . S
C1182 C1183 1.400 . S
C1183 C1182 1.400 . S
C1183 C1184 1.398 . S
C1183 C1189 1.491 . S
C1184 H1175 0.950 . S
C1184 C1183 1.398 . S
C1184 C1185 1.391 . S
C1185 H1173 0.950 . S
C1185 C1181 1.393 . S
C1185 C1184 1.391 . S
C1186 H1176 0.950 . S
C1186 C1187 1.386 . S
C1186 C1188 1.391 . S
C1187 C1186 1.386 . S
C1187 C1191 1.393 . S
C1188 H1177 0.950 . S
C1188 C1186 1.391 . S
C1188 C1189 1.400 . S
C1189 C1183 1.491 . S
C1189 C1188 1.400 . S
C1189 C1190 1.398 . S
C1190 H1178 0.950 . S
C1190 C1189 1.398 . S
C1190 C1191 1.391 . S
C1191 H1179 0.950 . S
C1191 C1187 1.393 . S
C1191 C1190 1.391 . S
H1192 C1200 0.950 . S
H1193 C1205 0.950 . S
H1194 C1202 0.950 . S
H1195 C1204 0.950 . S
H1196 C1206 0.950 . S
H1197 C1208 0.950 . S
H1198 C1210 0.950 . S
H1199 C1211 0.950 . S
C1200 H1192 0.950 . S
C1200 C1201 1.386 . S
C1200 C1202 1.391 . S
C1201 C1200 1.386 . S
C1201 C1205 1.393 . S
C1202 H1194 0.950 . S
C1202 C1200 1.391 . S
C1202 C1203 1.400 . S
C1203 C1202 1.400 . S
C1203 C1204 1.398 . S
C1203 C1209 1.491 . S
C1204 H1195 0.950 . S
C1204 C1203 1.398 . S
C1204 C1205 1.391 . S
C1205 H1193 0.950 . S
C1205 C1201 1.393 . S
C1205 C1204 1.391 . S
C1206 H1196 0.950 . S
C1206 C1207 1.386 . S
C1206 C1208 1.391 . S
C1207 C1206 1.386 . S
C1207 C1211 1.393 . S
C1208 H1197 0.950 . S
C1208 C1206 1.391 . S
C1208 C1209 1.400 . S
C1209 C1203 1.491 . S
C1209 C1208 1.400 . S
C1209 C1210 1.398 . S
C1210 H1198 0.950 . S
C1210 C1209 1.398 . S
C1210 C1211 1.391 . S
C1211 H1199 0.950 . S
C1211 C1207 1.393 . S
C1211 C1210 1.391 . S
H1212 C1220 0.950 . S
H1213 C1225 0.950 . S
H1214 C1222 0.950 . S
H1215 C1224 0.950 . S
H1216 C1226 0.950 . S
H1217 C1228 0.950 . S
H1218 C1230 0.950 . S
H1219 C1231 0.950 . S
C1220 H1212 0.950 . S
C1220 C1221 1.386 . S
C1220 C1222 1.391 . S
C1221 C1220 1.386 . S
C1221 C1225 1.393 . S
C1222 H1214 0.950 . S
C1222 C1220 1.391 . S
C1222 C1223 1.400 . S
C1223 C1222 1.400 . S
C1223 C1224 1.398 . S
C1223 C1229 1.491 . S
C1224 H1215 0.950 . S
C1224 C1223 1.398 . S
C1224 C1225 1.391 . S
C1225 H1213 0.950 . S
C1225 C1221 1.393 . S
C1225 C1224 1.391 . S
C1226 H1216 0.950 . S
C1226 C1227 1.386 . S
C1226 C1228 1.391 . S
C1227 C1226 1.386 . S
C1227 C1231 1.393 . S
C1228 H1217 0.950 . S
C1228 C1226 1.391 . S
C1228 C1229 1.400 . S
C1229 C1223 1.491 . S
C1229 C1228 1.400 . S
C1229 C1230 1.398 . S
C1230 H1218 0.950 . S
C1230 C1229 1.398 . S
C1230 C1231 1.391 . S
C1231 H1219 0.950 . S
C1231 C1227 1.393 . S
C1231 C1230 1.391 . S
H1232 C1240 0.950 . S
H1233 C1245 0.950 . S
H1234 C1242 0.950 . S
H1235 C1244 0.950 . S
H1236 C1246 0.950 . S
H1237 C1248 0.950 . S
H1238 C1250 0.950 . S
H1239 C1251 0.950 . S
C1240 H1232 0.950 . S
C1240 C1241 1.386 . S
C1240 C1242 1.391 . S
C1241 C1240 1.386 . S
C1241 C1245 1.393 . S
C1242 H1234 0.950 . S
C1242 C1240 1.391 . S
C1242 C1243 1.400 . S
C1243 C1242 1.400 . S
C1243 C1244 1.398 . S
C1243 C1249 1.491 . S
C1244 H1235 0.950 . S
C1244 C1243 1.398 . S
C1244 C1245 1.391 . S
C1245 H1233 0.950 . S
C1245 C1241 1.393 . S
C1245 C1244 1.391 . S
C1246 H1236 0.950 . S
C1246 C1247 1.386 . S
C1246 C1248 1.391 . S
C1247 C1246 1.386 . S
C1247 C1251 1.393 . S
C1248 H1237 0.950 . S
C1248 C1246 1.391 . S
C1248 C1249 1.400 . S
C1249 C1243 1.491 . S
C1249 C1248 1.400 . S
C1249 C1250 1.398 . S
C1250 H1238 0.950 . S
C1250 C1249 1.398 . S
C1250 C1251 1.391 . S
C1251 H1239 0.950 . S
C1251 C1247 1.393 . S
C1251 C1250 1.391 . S
H1252 C1260 0.950 . S
H1253 C1265 0.950 . S
H1254 C1262 0.950 . S
H1255 C1264 0.950 . S
H1256 C1266 0.950 . S
H1257 C1268 0.950 . S
H1258 C1270 0.950 . S
H1259 C1271 0.950 . S
C1260 H1252 0.950 . S
C1260 C1261 1.386 . S
C1260 C1262 1.391 . S
C1261 C1260 1.386 . S
C1261 C1265 1.393 . S
C1262 H1254 0.950 . S
C1262 C1260 1.391 . S
C1262 C1263 1.400 . S
C1263 C1262 1.400 . S
C1263 C1264 1.398 . S
C1263 C1269 1.491 . S
C1264 H1255 0.950 . S
C1264 C1263 1.398 . S
C1264 C1265 1.391 . S
C1265 H1253 0.950 . S
C1265 C1261 1.393 . S
C1265 C1264 1.391 . S
C1266 H1256 0.950 . S
C1266 C1267 1.386 . S
C1266 C1268 1.391 . S
C1267 C1266 1.386 . S
C1267 C1271 1.393 . S
C1268 H1257 0.950 . S
C1268 C1266 1.391 . S
C1268 C1269 1.400 . S
C1269 C1263 1.491 . S
C1269 C1268 1.400 . S
C1269 C1270 1.398 . S
C1270 H1258 0.950 . S
C1270 C1269 1.398 . S
C1270 C1271 1.391 . S
C1271 H1259 0.950 . S
C1271 C1267 1.393 . S
C1271 C1270 1.391 . S
H1272 C1280 0.950 . S
H1273 C1285 0.950 . S
H1274 C1282 0.950 . S
H1275 C1284 0.950 . S
H1276 C1286 0.950 . S
H1277 C1288 0.950 . S
H1278 C1290 0.950 . S
H1279 C1291 0.950 . S
C1280 H1272 0.950 . S
C1280 C1281 1.386 . S
C1280 C1282 1.391 . S
C1281 C1280 1.386 . S
C1281 C1285 1.393 . S
C1282 H1274 0.950 . S
C1282 C1280 1.391 . S
C1282 C1283 1.400 . S
C1283 C1282 1.400 . S
C1283 C1284 1.398 . S
C1283 C1289 1.491 . S
C1284 H1275 0.950 . S
C1284 C1283 1.398 . S
C1284 C1285 1.391 . S
C1285 H1273 0.950 . S
C1285 C1281 1.393 . S
C1285 C1284 1.391 . S
C1286 H1276 0.950 . S
C1286 C1287 1.386 . S
C1286 C1288 1.391 . S
C1287 C1286 1.386 . S
C1287 C1291 1.393 . S
C1288 H1277 0.950 . S
C1288 C1286 1.391 . S
C1288 C1289 1.400 . S
C1289 C1283 1.491 . S
C1289 C1288 1.400 . S
C1289 C1290 1.398 . S
C1290 H1278 0.950 . S
C1290 C1289 1.398 . S
C1290 C1291 1.391 . S
C1291 H1279 0.950 . S
C1291 C1287 1.393 . S
C1291 C1290 1.391 . S
H1292 C1300 0.950 . S
H1293 C1305 0.950 . S
H1294 C1302 0.950 . S
H1295 C1304 0.950 . S
H1296 C1306 0.950 . S
H1297 C1308 0.950 . S
H1298 C1310 0.950 . S
H1299 C1311 0.950 . S
C1300 H1292 0.950 . S
C1300 C1301 1.386 . S
C1300 C1302 1.391 . S
C1301 C1300 1.386 . S
C1301 C1305 1.393 . S
C1302 H1294 0.950 . S
C1302 C1300 1.391 . S
C1302 C1303 1.400 . S
C1303 C1302 1.400 . S
C1303 C1304 1.398 . S
C1303 C1309 1.491 . S
C1304 H1295 0.950 . S
C1304 C1303 1.398 . S
C1304 C1305 1.391 . S
C1305 H1293 0.950 . S
C1305 C1301 1.393 . S
C1305 C1304 1.391 . S
C1306 H1296 0.950 . S
C1306 C1307 1.386 . S
C1306 C1308 1.391 . S
C1307 C1306 1.386 . S
C1307 C1311 1.393 . S
C1308 H1297 0.950 . S
C1308 C1306 1.391 . S
C1308 C1309 1.400 . S
C1309 C1303 1.491 . S
C1309 C1308 1.400 . S
C1309 C1310 1.398 . S
C1310 H1298 0.950 . S
C1310 C1309 1.398 . S
C1310 C1311 1.391 . S
C1311 H1299 0.950 . S
C1311 C1307 1.393 . S
C1311 C1310 1.391 . S
H1312 C1320 0.950 . S
H1313 C1325 0.950 . S
H1314 C1322 0.950 . S
H1315 C1324 0.950 . S
H1316 C1326 0.950 . S
H1317 C1328 0.950 . S
H1318 C1330 0.950 . S
H1319 C1331 0.950 . S
C1320 H1312 0.950 . S
C1320 C1321 1.386 . S
C1320 C1322 1.391 . S
C1321 C1320 1.386 . S
C1321 C1325 1.393 . S
C1322 H1314 0.950 . S
C1322 C1320 1.391 . S
C1322 C1323 1.400 . S
C1323 C1322 1.400 . S
C1323 C1324 1.398 . S
C1323 C1329 1.491 . S
C1324 H1315 0.950 . S
C1324 C1323 1.398 . S
C1324 C1325 1.391 . S
C1325 H1313 0.950 . S
C1325 C1321 1.393 . S
C1325 C1324 1.391 . S
C1326 H1316 0.950 . S
C1326 C1327 1.386 . S
C1326 C1328 1.391 . S
C1327 C1326 1.386 . S
C1327 C1331 1.393 . S
C1328 H1317 0.950 . S
C1328 C1326 1.391 . S
C1328 C1329 1.400 . S
C1329 C1323 1.491 . S
C1329 C1328 1.400 . S
C1329 C1330 1.398 . S
C1330 H1318 0.950 . S
C1330 C1329 1.398 . S
C1330 C1331 1.391 . S
C1331 H1319 0.950 . S
C1331 C1327 1.393 . S
C1331 C1330 1.391 . S
H1332 C1340 0.950 . S
H1333 C1345 0.950 . S
H1334 C1342 0.950 . S
H1335 C1344 0.950 . S
H1336 C1346 0.950 . S
H1337 C1348 0.950 . S
H1338 C1350 0.950 . S
H1339 C1351 0.950 . S
C1340 H1332 0.950 . S
C1340 C1341 1.386 . S
C1340 C1342 1.391 . S
C1341 C1340 1.386 . S
C1341 C1345 1.393 . S
C1342 H1334 0.950 . S
C1342 C1340 1.391 . S
C1342 C1343 1.400 . S
C1343 C1342 1.400 . S
C1343 C1344 1.398 . S
C1343 C1349 1.491 . S
C1344 H1335 0.950 . S
C1344 C1343 1.398 . S
C1344 C1345 1.391 . S
C1345 H1333 0.950 . S
C1345 C1341 1.393 . S
C1345 C1344 1.391 . S
C1346 H1336 0.950 . S
C1346 C1347 1.386 . S
C1346 C1348 1.391 . S
C1347 C1346 1.386 . S
C1347 C1351 1.393 . S
C1348 H1337 0.950 . S
C1348 C1346 1.391 . S
C1348 C1349 1.400 . S
C1349 C1343 1.491 . S
C1349 C1348 1.400 . S
C1349 C1350 1.398 . S
C1350 H1338 0.950 . S
C1350 C1349 1.398 . S
C1350 C1351 1.391 . S
C1351 H1339 0.950 . S
C1351 C1347 1.393 . S
C1351 C1350 1.391 . S
H1352 C1360 0.950 . S
H1353 C1365 0.950 . S
H1354 C1362 0.950 . S
H1355 C1364 0.950 . S
H1356 C1366 0.950 . S
H1357 C1368 0.950 . S
H1358 C1370 0.950 . S
H1359 C1371 0.950 . S
C1360 H1352 0.950 . S
C1360 C1361 1.386 . S
C1360 C1362 1.391 . S
C1361 C1360 1.386 . S
C1361 C1365 1.393 . S
C1362 H1354 0.950 . S
C1362 C1360 1.391 . S
C1362 C1363 1.400 . S
C1363 C1362 1.400 . S
C1363 C1364 1.398 . S
C1363 C1369 1.491 . S
C1364 H1355 0.950 . S
C1364 C1363 1.398 . S
C1364 C1365 1.391 . S
C1365 H1353 0.950 . S
C1365 C1361 1.393 . S
C1365 C1364 1.391 . S
C1366 H1356 0.950 . S
C1366 C1367 1.386 . S
C1366 C1368 1.391 . S
C1367 C1366 1.386 . S
C1367 C1371 1.393 . S
C1368 H1357 0.950 . S
C1368 C1366 1.391 . S
C1368 C1369 1.400 . S
C1369 C1363 1.491 . S
C1369 C1368 1.400 . S
C1369 C1370 1.398 . S
C1370 H1358 0.950 . S
C1370 C1369 1.398 . S
C1370 C1371 1.391 . S
C1371 H1359 0.950 . S
C1371 C1367 1.393 . S
C1371 C1370 1.391 . S
H1372 C1380 0.950 . S
H1373 C1385 0.950 . S
H1374 C1382 0.950 . S
H1375 C1384 0.950 . S
H1376 C1386 0.950 . S
H1377 C1388 0.950 . S
H1378 C1390 0.950 . S
H1379 C1391 0.950 . S
C1380 H1372 0.950 . S
C1380 C1381 1.386 . S
C1380 C1382 1.391 . S
C1381 C1380 1.386 . S
C1381 C1385 1.393 . S
C1382 H1374 0.950 . S
C1382 C1380 1.391 . S
C1382 C1383 1.400 . S
C1383 C1382 1.400 . S
C1383 C1384 1.398 . S
C1383 C1389 1.491 . S
C1384 H1375 0.950 . S
C1384 C1383 1.398 . S
C1384 C1385 1.391 . S
C1385 H1373 0.950 . S
C1385 C1381 1.393 . S
C1385 C1384 1.391 . S
C1386 H1376 0.950 . S
C1386 C1387 1.386 . S
C1386 C1388 1.391 . S
C1387 C1386 1.386 . S
C1387 C1391 1.393 . S
C1388 H1377 0.950 . S
C1388 C1386 1.391 . S
C1388 C1389 1.400 . S
C1389 C1383 1.491 . S
C1389 C1388 1.400 . S
C1389 C1390 1.398 . S
C1390 H1378 0.950 . S
C1390 C1389 1.398 . S
C1390 C1391 1.391 . S
C1391 H1379 0.950 . S
C1391 C1387 1.393 . S
C1391 C1390 1.391 . S
H1392 C1400 0.950 . S
H1393 C1405 0.950 . S
H1394 C1402 0.950 . S
H1395 C1404 0.950 . S
H1396 C1406 0.950 . S
H1397 C1408 0.950 . S
H1398 C1410 0.950 . S
H1399 C1411 0.950 . S
C1400 H1392 0.950 . S
C1400 C1401 1.386 . S
C1400 C1402 1.391 . S
C1401 C1400 1.386 . S
C1401 C1405 1.393 . S
C1402 H1394 0.950 . S
C1402 C1400 1.391 . S
C1402 C1403 1.400 . S
C1403 C1402 1.400 . S
C1403 C1404 1.398 . S
C1403 C1409 1.491 . S
C1404 H1395 0.950 . S
C1404 C1403 1.398 . S
C1404 C1405 1.391 . S
C1405 H1393 0.950 . S
C1405 C1401 1.393 . S
C1405 C1404 1.391 . S
C1406 H1396 0.950 . S
C1406 C1407 1.386 . S
C1406 C1408 1.391 . S
C1407 C1406 1.386 . S
C1407 C1411 1.393 . S
C1408 H1397 0.950 . S
C1408 C1406 1.391 . S
C1408 C1409 1.400 . S
C1409 C1403 1.491 . S
C1409 C1408 1.400 . S
C1409 C1410 1.398 . S
C1410 H1398 0.950 . S
C1410 C1409 1.398 . S
C1410 C1411 1.391 . S
C1411 H1399 0.950 . S
C1411 C1407 1.393 . S
C1411 C1410 1.391 . S
H1412 C1420 0.950 . S
H1413 C1425 0.950 . S
H1414 C1422 0.950 . S
H1415 C1424 0.950 . S
H1416 C1426 0.950 . S
H1417 C1428 0.950 . S
H1418 C1430 0.950 . S
H1419 C1431 0.950 . S
C1420 H1412 0.950 . S
C1420 C1421 1.386 . S
C1420 C1422 1.391 . S
C1421 C1420 1.386 . S
C1421 C1425 1.393 . S
C1422 H1414 0.950 . S
C1422 C1420 1.391 . S
C1422 C1423 1.400 . S
C1423 C1422 1.400 . S
C1423 C1424 1.398 . S
C1423 C1429 1.491 . S
C1424 H1415 0.950 . S
C1424 C1423 1.398 . S
C1424 C1425 1.391 . S
C1425 H1413 0.950 . S
C1425 C1421 1.393 . S
C1425 C1424 1.391 . S
C1426 H1416 0.950 . S
C1426 C1427 1.386 . S
C1426 C1428 1.391 . S
C1427 C1426 1.386 . S
C1427 C1431 1.393 . S
C1428 H1417 0.950 . S
C1428 C1426 1.391 . S
C1428 C1429 1.400 . S
C1429 C1423 1.491 . S
C1429 C1428 1.400 . S
C1429 C1430 1.398 . S
C1430 H1418 0.950 . S
C1430 C1429 1.398 . S
C1430 C1431 1.391 . S
C1431 H1419 0.950 . S
C1431 C1427 1.393 . S
C1431 C1430 1.391 . S
H1432 C1440 0.950 . S
H1433 C1445 0.950 . S
H1434 C1442 0.950 . S
H1435 C1444 0.950 . S
H1436 C1446 0.950 . S
H1437 C1448 0.950 . S
H1438 C1450 0.950 . S
H1439 C1451 0.950 . S
C1440 H1432 0.950 . S
C1440 C1441 1.386 . S
C1440 C1442 1.391 . S
C1441 C1440 1.386 . S
C1441 C1445 1.393 . S
C1442 H1434 0.950 . S
C1442 C1440 1.391 . S
C1442 C1443 1.400 . S
C1443 C1442 1.400 . S
C1443 C1444 1.398 . S
C1443 C1449 1.491 . S
C1444 H1435 0.950 . S
C1444 C1443 1.398 . S
C1444 C1445 1.391 . S
C1445 H1433 0.950 . S
C1445 C1441 1.393 . S
C1445 C1444 1.391 . S
C1446 H1436 0.950 . S
C1446 C1447 1.386 . S
C1446 C1448 1.391 . S
C1447 C1446 1.386 . S
C1447 C1451 1.393 . S
C1448 H1437 0.950 . S
C1448 C1446 1.391 . S
C1448 C1449 1.400 . S
C1449 C1443 1.491 . S
C1449 C1448 1.400 . S
C1449 C1450 1.398 . S
C1450 H1438 0.950 . S
C1450 C1449 1.398 . S
C1450 C1451 1.391 . S
C1451 H1439 0.950 . S
C1451 C1447 1.393 . S
C1451 C1450 1.391 . S
H1452 C1460 0.950 . S
H1453 C1465 0.950 . S
H1454 C1462 0.950 . S
H1455 C1464 0.950 . S
H1456 C1466 0.950 . S
H1457 C1468 0.950 . S
H1458 C1470 0.950 . S
H1459 C1471 0.950 . S
C1460 H1452 0.950 . S
C1460 C1461 1.386 . S
C1460 C1462 1.391 . S
C1461 C1460 1.386 . S
C1461 C1465 1.393 . S
C1462 H1454 0.950 . S
C1462 C1460 1.391 . S
C1462 C1463 1.400 . S
C1463 C1462 1.400 . S
C1463 C1464 1.398 . S
C1463 C1469 1.491 . S
C1464 H1455 0.950 . S
C1464 C1463 1.398 . S
C1464 C1465 1.391 . S
C1465 H1453 0.950 . S
C1465 C1461 1.393 . S
C1465 C1464 1.391 . S
C1466 H1456 0.950 . S
C1466 C1467 1.386 . S
C1466 C1468 1.391 . S
C1467 C1466 1.386 . S
C1467 C1471 1.393 . S
C1468 H1457 0.950 . S
C1468 C1466 1.391 . S
C1468 C1469 1.400 . S
C1469 C1463 1.491 . S
C1469 C1468 1.400 . S
C1469 C1470 1.398 . S
C1470 H1458 0.950 . S
C1470 C1469 1.398 . S
C1470 C1471 1.391 . S
C1471 H1459 0.950 . S
C1471 C1467 1.393 . S
C1471 C1470 1.391 . S
H1472 C1480 0.950 . S
H1473 C1485 0.950 . S
H1474 C1482 0.950 . S
H1475 C1484 0.950 . S
H1476 C1486 0.950 . S
H1477 C1488 0.950 . S
H1478 C1490 0.950 . S
H1479 C1491 0.950 . S
C1480 H1472 0.950 . S
C1480 C1481 1.386 . S
C1480 C1482 1.391 . S
C1481 C1480 1.386 . S
C1481 C1485 1.393 . S
C1482 H1474 0.950 . S
C1482 C1480 1.391 . S
C1482 C1483 1.400 . S
C1483 C1482 1.400 . S
C1483 C1484 1.398 . S
C1483 C1489 1.491 . S
C1484 H1475 0.950 . S
C1484 C1483 1.398 . S
C1484 C1485 1.391 . S
C1485 H1473 0.950 . S
C1485 C1481 1.393 . S
C1485 C1484 1.391 . S
C1486 H1476 0.950 . S
C1486 C1487 1.386 . S
C1486 C1488 1.391 . S
C1487 C1486 1.386 . S
C1487 C1491 1.393 . S
C1488 H1477 0.950 . S
C1488 C1486 1.391 . S
C1488 C1489 1.400 . S
C1489 C1483 1.491 . S
C1489 C1488 1.400 . S
C1489 C1490 1.398 . S
C1490 H1478 0.950 . S
C1490 C1489 1.398 . S
C1490 C1491 1.391 . S
C1491 H1479 0.950 . S
C1491 C1487 1.393 . S
C1491 C1490 1.391 . S
H1492 C1500 0.950 . S
H1493 C1505 0.950 . S
H1494 C1502 0.950 . S
H1495 C1504 0.950 . S
H1496 C1506 0.950 . S
H1497 C1508 0.950 . S
H1498 C1510 0.950 . S
H1499 C1511 0.950 . S
C1500 H1492 0.950 . S
C1500 C1501 1.386 . S
C1500 C1502 1.391 . S
C1501 C1500 1.386 . S
C1501 C1505 1.393 . S
C1502 H1494 0.950 . S
C1502 C1500 1.391 . S
C1502 C1503 1.400 . S
C1503 C1502 1.400 . S
C1503 C1504 1.398 . S
C1503 C1509 1.491 . S
C1504 H1495 0.950 . S
C1504 C1503 1.398 . S
C1504 C1505 1.391 . S
C1505 H1493 0.950 . S
C1505 C1501 1.393 . S
C1505 C1504 1.391 . S
C1506 H1496 0.950 . S
C1506 C1507 1.386 . S
C1506 C1508 1.391 . S
C1507 C1506 1.386 . S
C1507 C1511 1.393 . S
C1508 H1497 0.950 . S
C1508 C1506 1.391 . S
C1508 C1509 1.400 . S
C1509 C1503 1.491 . S
C1509 C1508 1.400 . S
C1509 C1510 1.398 . S
C1510 H1498 0.950 . S
C1510 C1509 1.398 . S
C1510 C1511 1.391 . S
C1511 H1499 0.950 . S
C1511 C1507 1.393 . S
C1511 C1510 1.391 . S
H1512 C1520 0.950 . S
H1513 C1525 0.950 . S
H1514 C1522 0.950 . S
H1515 C1524 0.950 . S
H1516 C1526 0.950 . S
H1517 C1528 0.950 . S
H1518 C1530 0.950 . S
H1519 C1531 0.950 . S
C1520 H1512 0.950 . S
C1520 C1521 1.386 . S
C1520 C1522 1.391 . S
C1521 C1520 1.386 . S
C1521 C1525 1.393 . S
C1522 H1514 0.950 . S
C1522 C1520 1.391 . S
C1522 C1523 1.400 . S
C1523 C1522 1.400 . S
C1523 C1524 1.398 . S
C1523 C1529 1.491 . S
C1524 H1515 0.950 . S
C1524 C1523 1.398 . S
C1524 C1525 1.391 . S
C1525 H1513 0.950 . S
C1525 C1521 1.393 . S
C1525 C1524 1.391 . S
C1526 H1516 0.950 . S
C1526 C1527 1.386 . S
C1526 C1528 1.391 . S
C1527 C1526 1.386 . S
C1527 C1531 1.393 . S
C1528 H1517 0.950 . S
C1528 C1526 1.391 . S
C1528 C1529 1.400 . S
C1529 C1523 1.491 . S
C1529 C1528 1.400 . S
C1529 C1530 1.398 . S
C1530 H1518 0.950 . S
C1530 C1529 1.398 . S
C1530 C1531 1.391 . S
C1531 H1519 0.950 . S
C1531 C1527 1.393 . S
C1531 C1530 1.391 . S
H1532 C1540 0.950 . S
H1533 C1545 0.950 . S
H1534 C1542 0.950 . S
H1535 C1544 0.950 . S
H1536 C1546 0.950 . S
H1537 C1548 0.950 . S
H1538 C1550 0.950 . S
H1539 C1551 0.950 . S
C1540 H1532 0.950 . S
C1540 C1541 1.386 . S
C1540 C1542 1.391 . S
C1541 C1540 1.386 . S
C1541 C1545 1.393 . S
C1542 H1534 0.950 . S
C1542 C1540 1.391 . S
C1542 C1543 1.400 . S
C1543 C1542 1.400 . S
C1543 C1544 1.398 . S
C1543 C1549 1.491 . S
C1544 H1535 0.950 . S
C1544 C1543 1.398 . S
C1544 C1545 1.391 . S
C1545 H1533 0.950 . S
C1545 C1541 1.393 . S
C1545 C1544 1.391 . S
C1546 H1536 0.950 . S
C1546 C1547 1.386 . S
C1546 C1548 1.391 . S
C1547 C1546 1.386 . S
C1547 C1551 1.393 . S
C1548 H1537 0.950 . S
C1548 C1546 1.391 . S
C1548 C1549 1.400 . S
C1549 C1543 1.491 . S
C1549 C1548 1.400 . S
C1549 C1550 1.398 . S
C1550 H1538 0.950 . S
C1550 C1549 1.398 . S
C1550 C1551 1.391 . S
C1551 H1539 0.950 . S
C1551 C1547 1.393 . S
C1551 C1550 1.391 . S
H1552 C1560 0.950 . S
H1553 C1565 0.950 . S
H1554 C1562 0.950 . S
H1555 C1564 0.950 . S
H1556 C1566 0.950 . S
H1557 C1568 0.950 . S
H1558 C1570 0.950 . S
H1559 C1571 0.950 . S
C1560 H1552 0.950 . S
C1560 C1561 1.386 . S
C1560 C1562 1.391 . S
C1561 C1560 1.386 . S
C1561 C1565 1.393 . S
C1562 H1554 0.950 . S
C1562 C1560 1.391 . S
C1562 C1563 1.400 . S
C1563 C1562 1.400 . S
C1563 C1564 1.398 . S
C1563 C1569 1.491 . S
C1564 H1555 0.950 . S
C1564 C1563 1.398 . S
C1564 C1565 1.391 . S
C1565 H1553 0.950 . S
C1565 C1561 1.393 . S
C1565 C1564 1.391 . S
C1566 H1556 0.950 . S
C1566 C1567 1.386 . S
C1566 C1568 1.391 . S
C1567 C1566 1.386 . S
C1567 C1571 1.393 . S
C1568 H1557 0.950 . S
C1568 C1566 1.391 . S
C1568 C1569 1.400 . S
C1569 C1563 1.491 . S
C1569 C1568 1.400 . S
C1569 C1570 1.398 . S
C1570 H1558 0.950 . S
C1570 C1569 1.398 . S
C1570 C1571 1.391 . S
C1571 H1559 0.950 . S
C1571 C1567 1.393 . S
C1571 C1570 1.391 . S
H1572 C1580 0.950 . S
H1573 C1585 0.950 . S
H1574 C1582 0.950 . S
H1575 C1584 0.950 . S
H1576 C1586 0.950 1_655 S
H1577 C1588 0.950 . S
H1578 C1590 0.950 . S
H1579 C1591 0.950 . S
C1580 H1572 0.950 . S
C1580 C1581 1.386 . S
C1580 C1582 1.391 . S
C1581 C1580 1.386 . S
C1581 C1585 1.393 . S
C1582 H1574 0.950 . S
C1582 C1580 1.391 . S
C1582 C1583 1.400 . S
C1583 C1582 1.400 . S
C1583 C1584 1.398 . S
C1583 C1589 1.491 . S
C1584 H1575 0.950 . S
C1584 C1583 1.398 . S
C1584 C1585 1.391 . S
C1585 H1573 0.950 . S
C1585 C1581 1.393 . S
C1585 C1584 1.391 . S
C1586 H1576 0.950 1_455 S
C1586 C1587 1.386 . S
C1586 C1588 1.391 . S
C1587 C1586 1.386 . S
C1587 C1591 1.393 . S
C1588 H1577 0.950 . S
C1588 C1586 1.391 . S
C1588 C1589 1.400 . S
C1589 C1583 1.491 . S
C1589 C1588 1.400 . S
C1589 C1590 1.398 . S
C1590 H1578 0.950 . S
C1590 C1589 1.398 . S
C1590 C1591 1.391 . S
C1591 H1579 0.950 . S
C1591 C1587 1.393 . S
C1591 C1590 1.391 . S
H1592 C1600 0.950 . S
H1593 C1605 0.950 . S
H1594 C1602 0.950 . S
H1595 C1604 0.950 . S
H1596 C1606 0.950 . S
H1597 C1608 0.950 . S
H1598 C1610 0.950 . S
H1599 C1611 0.950 . S
C1600 H1592 0.950 . S
C1600 C1601 1.386 . S
C1600 C1602 1.391 . S
C1601 C1600 1.386 . S
C1601 C1605 1.393 . S
C1602 H1594 0.950 . S
C1602 C1600 1.391 . S
C1602 C1603 1.400 . S
C1603 C1602 1.400 . S
C1603 C1604 1.398 . S
C1603 C1609 1.491 . S
C1604 H1595 0.950 . S
C1604 C1603 1.398 . S
C1604 C1605 1.391 . S
C1605 H1593 0.950 . S
C1605 C1601 1.393 . S
C1605 C1604 1.391 . S
C1606 H1596 0.950 . S
C1606 C1607 1.386 . S
C1606 C1608 1.391 . S
C1607 C1606 1.386 . S
C1607 C1611 1.393 . S
C1608 H1597 0.950 . S
C1608 C1606 1.391 . S
C1608 C1609 1.400 . S
C1609 C1603 1.491 . S
C1609 C1608 1.400 . S
C1609 C1610 1.398 . S
C1610 H1598 0.950 . S
C1610 C1609 1.398 . S
C1610 C1611 1.391 . S
C1611 H1599 0.950 . S
C1611 C1607 1.393 . S
C1611 C1610 1.391 . S
H1612 C1620 0.950 . S
H1613 C1625 0.950 . S
H1614 C1622 0.950 . S
H1615 C1624 0.950 . S
H1616 C1626 0.950 1_565 S
H1617 C1628 0.950 . S
H1618 C1630 0.950 . S
H1619 C1631 0.950 . S
C1620 H1612 0.950 . S
C1620 C1621 1.386 . S
C1620 C1622 1.391 . S
C1621 C1620 1.386 . S
C1621 C1625 1.393 . S
C1622 H1614 0.950 . S
C1622 C1620 1.391 . S
C1622 C1623 1.400 . S
C1623 C1622 1.400 . S
C1623 C1624 1.398 . S
C1623 C1629 1.491 . S
C1624 H1615 0.950 . S
C1624 C1623 1.398 . S
C1624 C1625 1.391 . S
C1625 H1613 0.950 . S
C1625 C1621 1.393 . S
C1625 C1624 1.391 . S
C1626 H1616 0.950 1_545 S
C1626 C1627 1.386 . S
C1626 C1628 1.391 . S
C1627 C1626 1.386 . S
C1627 C1631 1.393 . S
C1628 H1617 0.950 . S
C1628 C1626 1.391 . S
C1628 C1629 1.400 . S
C1629 C1623 1.491 . S
C1629 C1628 1.400 . S
C1629 C1630 1.398 . S
C1630 H1618 0.950 . S
C1630 C1629 1.398 . S
C1630 C1631 1.391 . S
C1631 H1619 0.950 . S
C1631 C1627 1.393 . S
C1631 C1630 1.391 . S
H1632 C1640 0.950 . S
H1633 C1645 0.950 . S
H1634 C1642 0.950 . S
H1635 C1644 0.950 . S
H1636 C1646 0.950 . S
H1637 C1648 0.950 . S
H1638 C1650 0.950 . S
H1639 C1651 0.950 . S
C1640 H1632 0.950 . S
C1640 C1641 1.386 . S
C1640 C1642 1.391 . S
C1641 C1640 1.386 . S
C1641 C1645 1.393 . S
C1642 H1634 0.950 . S
C1642 C1640 1.391 . S
C1642 C1643 1.400 . S
C1643 C1642 1.400 . S
C1643 C1644 1.398 . S
C1643 C1649 1.491 . S
C1644 H1635 0.950 . S
C1644 C1643 1.398 . S
C1644 C1645 1.391 . S
C1645 H1633 0.950 . S
C1645 C1641 1.393 . S
C1645 C1644 1.391 . S
C1646 H1636 0.950 . S
C1646 C1647 1.386 . S
C1646 C1648 1.391 . S
C1647 C1646 1.386 . S
C1647 C1651 1.393 . S
C1648 H1637 0.950 . S
C1648 C1646 1.391 . S
C1648 C1649 1.400 . S
C1649 C1643 1.491 . S
C1649 C1648 1.400 . S
C1649 C1650 1.398 . S
C1650 H1638 0.950 . S
C1650 C1649 1.398 . S
C1650 C1651 1.391 . S
C1651 H1639 0.950 . S
C1651 C1647 1.393 . S
C1651 C1650 1.391 . S
H1652 C1660 0.950 . S
H1653 C1665 0.950 . S
H1654 C1662 0.950 . S
H1655 C1664 0.950 . S
H1656 C1666 0.950 . S
H1657 C1668 0.950 . S
H1658 C1670 0.950 . S
H1659 C1671 0.950 . S
C1660 H1652 0.950 . S
C1660 C1661 1.386 . S
C1660 C1662 1.391 . S
C1661 C1660 1.386 . S
C1661 C1665 1.393 . S
C1662 H1654 0.950 . S
C1662 C1660 1.391 . S
C1662 C1663 1.400 . S
C1663 C1662 1.400 . S
C1663 C1664 1.398 . S
C1663 C1669 1.491 . S
C1664 H1655 0.950 . S
C1664 C1663 1.398 . S
C1664 C1665 1.391 . S
C1665 H1653 0.950 . S
C1665 C1661 1.393 . S
C1665 C1664 1.391 . S
C1666 H1656 0.950 . S
C1666 C1667 1.386 . S
C1666 C1668 1.391 . S
C1667 C1666 1.386 . S
C1667 C1671 1.393 . S
C1668 H1657 0.950 . S
C1668 C1666 1.391 . S
C1668 C1669 1.400 . S
C1669 C1663 1.491 . S
C1669 C1668 1.400 . S
C1669 C1670 1.398 . S
C1670 H1658 0.950 . S
C1670 C1669 1.398 . S
C1670 C1671 1.391 . S
C1671 H1659 0.950 . S
C1671 C1667 1.393 . S
C1671 C1670 1.391 . S
H1672 C1680 0.950 . S
H1673 C1685 0.950 1_554 S
H1674 C1682 0.950 . S
H1675 C1684 0.950 . S
H1676 C1686 0.950 . S
H1677 C1688 0.950 . S
H1678 C1690 0.950 . S
H1679 C1691 0.950 . S
C1680 H1672 0.950 . S
C1680 C1681 1.386 . S
C1680 C1682 1.391 . S
C1681 C1680 1.386 . S
C1681 C1685 1.393 . S
C1682 H1674 0.950 . S
C1682 C1680 1.391 . S
C1682 C1683 1.400 . S
C1683 C1682 1.400 . S
C1683 C1684 1.398 . S
C1683 C1689 1.491 . S
C1684 H1675 0.950 . S
C1684 C1683 1.398 . S
C1684 C1685 1.391 . S
C1685 H1673 0.950 1_556 S
C1685 C1681 1.393 . S
C1685 C1684 1.391 . S
C1686 H1676 0.950 . S
C1686 C1687 1.386 . S
C1686 C1688 1.391 . S
C1687 C1686 1.386 . S
C1687 C1691 1.393 . S
C1688 H1677 0.950 . S
C1688 C1686 1.391 . S
C1688 C1689 1.400 . S
C1689 C1683 1.491 . S
C1689 C1688 1.400 . S
C1689 C1690 1.398 . S
C1690 H1678 0.950 . S
C1690 C1689 1.398 . S
C1690 C1691 1.391 . S
C1691 H1679 0.950 . S
C1691 C1687 1.393 . S
C1691 C1690 1.391 . S
H1692 C1700 0.950 . S
H1693 C1705 0.950 1_556 S
H1694 C1702 0.950 . S
H1695 C1704 0.950 . S
H1696 C1706 0.950 . S
H1697 C1708 0.950 . S
H1698 C1710 0.950 . S
H1699 C1711 0.950 . S
C1700 H1692 0.950 . S
C1700 C1701 1.386 . S
C1700 C1702 1.391 . S
C1701 C1700 1.386 . S
C1701 C1705 1.393 . S
C1702 H1694 0.950 . S
C1702 C1700 1.391 . S
C1702 C1703 1.400 . S
C1703 C1702 1.400 . S
C1703 C1704 1.398 . S
C1703 C1709 1.491 . S
C1704 H1695 0.950 . S
C1704 C1703 1.398 . S
C1704 C1705 1.391 . S
C1705 H1693 0.950 1_554 S
C1705 C1701 1.393 . S
C1705 C1704 1.391 . S
C1706 H1696 0.950 . S
C1706 C1707 1.386 . S
C1706 C1708 1.391 . S
C1707 C1706 1.386 . S
C1707 C1711 1.393 . S
C1708 H1697 0.950 . S
C1708 C1706 1.391 . S
C1708 C1709 1.400 . S
C1709 C1703 1.491 . S
C1709 C1708 1.400 . S
C1709 C1710 1.398 . S
C1710 H1698 0.950 . S
C1710 C1709 1.398 . S
C1710 C1711 1.391 . S
C1711 H1699 0.950 . S
C1711 C1707 1.393 . S
C1711 C1710 1.391 . S
H1712 C1720 0.950 . S
H1713 C1725 0.950 . S
H1714 C1722 0.950 . S
H1715 C1724 0.950 . S
H1716 C1726 0.950 . S
H1717 C1728 0.950 . S
H1718 C1730 0.950 . S
H1719 C1731 0.950 . S
C1720 H1712 0.950 . S
C1720 C1721 1.386 . S
C1720 C1722 1.391 . S
C1721 C1720 1.386 . S
C1721 C1725 1.393 . S
C1722 H1714 0.950 . S
C1722 C1720 1.391 . S
C1722 C1723 1.400 . S
C1723 C1722 1.400 . S
C1723 C1724 1.398 . S
C1723 C1729 1.491 . S
C1724 H1715 0.950 . S
C1724 C1723 1.398 . S
C1724 C1725 1.391 . S
C1725 H1713 0.950 . S
C1725 C1721 1.393 . S
C1725 C1724 1.391 . S
C1726 H1716 0.950 . S
C1726 C1727 1.386 . S
C1726 C1728 1.391 . S
C1727 C1726 1.386 . S
C1727 C1731 1.393 . S
C1728 H1717 0.950 . S
C1728 C1726 1.391 . S
C1728 C1729 1.400 . S
C1729 C1723 1.491 . S
C1729 C1728 1.400 . S
C1729 C1730 1.398 . S
C1730 H1718 0.950 . S
C1730 C1729 1.398 . S
C1730 C1731 1.391 . S
C1731 H1719 0.950 . S
C1731 C1727 1.393 . S
C1731 C1730 1.391 . S
H1732 C1740 0.950 . S
H1733 C1745 0.950 . S
H1734 C1742 0.950 . S
H1735 C1744 0.950 . S
H1736 C1746 0.950 . S
H1737 C1748 0.950 . S
H1738 C1750 0.950 . S
H1739 C1751 0.950 . S
C1740 H1732 0.950 . S
C1740 C1741 1.386 . S
C1740 C1742 1.391 . S
C1741 C1740 1.386 . S
C1741 C1745 1.393 . S
C1742 H1734 0.950 . S
C1742 C1740 1.391 . S
C1742 C1743 1.400 . S
C1743 C1742 1.400 . S
C1743 C1744 1.398 . S
C1743 C1749 1.491 . S
C1744 H1735 0.950 . S
C1744 C1743 1.398 . S
C1744 C1745 1.391 . S
C1745 H1733 0.950 . S
C1745 C1741 1.393 . S
C1745 C1744 1.391 . S
C1746 H1736 0.950 . S
C1746 C1747 1.386 . S
C1746 C1748 1.391 . S
C1747 C1746 1.386 . S
C1747 C1751 1.393 . S
C1748 H1737 0.950 . S
C1748 C1746 1.391 . S
C1748 C1749 1.400 . S
C1749 C1743 1.491 . S
C1749 C1748 1.400 . S
C1749 C1750 1.398 . S
C1750 H1738 0.950 . S
C1750 C1749 1.398 . S
C1750 C1751 1.391 . S
C1751 H1739 0.950 . S
C1751 C1747 1.393 . S
C1751 C1750 1.391 . S
H1752 C1760 0.950 . S
H1753 C1765 0.950 . S
H1754 C1762 0.950 . S
H1755 C1764 0.950 . S
H1756 C1766 0.950 . S
H1757 C1768 0.950 . S
H1758 C1770 0.950 . S
H1759 C1771 0.950 . S
C1760 H1752 0.950 . S
C1760 C1761 1.386 . S
C1760 C1762 1.391 . S
C1761 C1760 1.386 . S
C1761 C1765 1.393 . S
C1762 H1754 0.950 . S
C1762 C1760 1.391 . S
C1762 C1763 1.400 . S
C1763 C1762 1.400 . S
C1763 C1764 1.398 . S
C1763 C1769 1.491 . S
C1764 H1755 0.950 . S
C1764 C1763 1.398 . S
C1764 C1765 1.391 . S
C1765 H1753 0.950 . S
C1765 C1761 1.393 . S
C1765 C1764 1.391 . S
C1766 H1756 0.950 . S
C1766 C1767 1.386 . S
C1766 C1768 1.391 . S
C1767 C1766 1.386 . S
C1767 C1771 1.393 . S
C1768 H1757 0.950 . S
C1768 C1766 1.391 . S
C1768 C1769 1.400 . S
C1769 C1763 1.491 . S
C1769 C1768 1.400 . S
C1769 C1770 1.398 . S
C1770 H1758 0.950 . S
C1770 C1769 1.398 . S
C1770 C1771 1.391 . S
C1771 H1759 0.950 . S
C1771 C1767 1.393 . S
C1771 C1770 1.391 . S
H1772 C1780 0.950 . S
H1773 C1785 0.950 . S
H1774 C1782 0.950 . S
H1775 C1784 0.950 . S
H1776 C1786 0.950 . S
H1777 C1788 0.950 . S
H1778 C1790 0.950 . S
H1779 C1791 0.950 . S
C1780 H1772 0.950 . S
C1780 C1781 1.386 . S
C1780 C1782 1.391 . S
C1781 C1780 1.386 . S
C1781 C1785 1.393 . S
C1782 H1774 0.950 . S
C1782 C1780 1.391 . S
C1782 C1783 1.400 . S
C1783 C1782 1.400 . S
C1783 C1784 1.398 . S
C1783 C1789 1.491 . S
C1784 H1775 0.950 . S
C1784 C1783 1.398 . S
C1784 C1785 1.391 . S
C1785 H1773 0.950 . S
C1785 C1781 1.393 . S
C1785 C1784 1.391 . S
C1786 H1776 0.950 . S
C1786 C1787 1.386 . S
C1786 C1788 1.391 . S
C1787 C1786 1.386 . S
C1787 C1791 1.393 . S
C1788 H1777 0.950 . S
C1788 C1786 1.391 . S
C1788 C1789 1.400 . S
C1789 C1783 1.491 . S
C1789 C1788 1.400 . S
C1789 C1790 1.398 . S
C1790 H1778 0.950 . S
C1790 C1789 1.398 . S
C1790 C1791 1.391 . S
C1791 H1779 0.950 . S
C1791 C1787 1.393 . S
C1791 C1790 1.391 . S
H1792 C1800 0.950 . S
H1793 C1805 0.950 . S
H1794 C1802 0.950 . S
H1795 C1804 0.950 . S
H1796 C1806 0.950 . S
H1797 C1808 0.950 . S
H1798 C1810 0.950 . S
H1799 C1811 0.950 . S
C1800 H1792 0.950 . S
C1800 C1801 1.386 . S
C1800 C1802 1.391 . S
C1801 C1800 1.386 . S
C1801 C1805 1.393 . S
C1802 H1794 0.950 . S
C1802 C1800 1.391 . S
C1802 C1803 1.400 . S
C1803 C1802 1.400 . S
C1803 C1804 1.398 . S
C1803 C1809 1.491 . S
C1804 H1795 0.950 . S
C1804 C1803 1.398 . S
C1804 C1805 1.391 . S
C1805 H1793 0.950 . S
C1805 C1801 1.393 . S
C1805 C1804 1.391 . S
C1806 H1796 0.950 . S
C1806 C1807 1.386 . S
C1806 C1808 1.391 . S
C1807 C1806 1.386 . S
C1807 C1811 1.393 . S
C1808 H1797 0.950 . S
C1808 C1806 1.391 . S
C1808 C1809 1.400 . S
C1809 C1803 1.491 . S
C1809 C1808 1.400 . S
C1809 C1810 1.398 . S
C1810 H1798 0.950 . S
C1810 C1809 1.398 . S
C1810 C1811 1.391 . S
C1811 H1799 0.950 . S
C1811 C1807 1.393 . S
C1811 C1810 1.391 . S
H1812 C1820 0.950 . S
H1813 C1825 0.950 . S
H1814 C1822 0.950 . S
H1815 C1824 0.950 . S
H1816 C1826 0.950 1_455 S
H1817 C1828 0.950 . S
H1818 C1830 0.950 . S
H1819 C1831 0.950 . S
C1820 H1812 0.950 . S
C1820 C1821 1.386 . S
C1820 C1822 1.391 . S
C1821 C1820 1.386 . S
C1821 C1825 1.393 . S
C1822 H1814 0.950 . S
C1822 C1820 1.391 . S
C1822 C1823 1.400 . S
C1823 C1822 1.400 . S
C1823 C1824 1.398 . S
C1823 C1829 1.491 . S
C1824 H1815 0.950 . S
C1824 C1823 1.398 . S
C1824 C1825 1.391 . S
C1825 H1813 0.950 . S
C1825 C1821 1.393 . S
C1825 C1824 1.391 . S
C1826 H1816 0.950 1_655 S
C1826 C1827 1.386 . S
C1826 C1828 1.391 . S
C1827 C1826 1.386 . S
C1827 C1831 1.393 . S
C1828 H1817 0.950 . S
C1828 C1826 1.391 . S
C1828 C1829 1.400 . S
C1829 C1823 1.491 . S
C1829 C1828 1.400 . S
C1829 C1830 1.398 . S
C1830 H1818 0.950 . S
C1830 C1829 1.398 . S
C1830 C1831 1.391 . S
C1831 H1819 0.950 . S
C1831 C1827 1.393 . S
C1831 C1830 1.391 . S
H1832 C1840 0.950 . S
H1833 C1845 0.950 1_565 S
H1834 C1842 0.950 . S
H1835 C1844 0.950 . S
H1836 C1846 0.950 . S
H1837 C1848 0.950 . S
H1838 C1850 0.950 . S
H1839 C1851 0.950 . S
C1840 H1832 0.950 . S
C1840 C1841 1.386 . S
C1840 C1842 1.391 . S
C1841 C1840 1.386 . S
C1841 C1845 1.393 . S
C1842 H1834 0.950 . S
C1842 C1840 1.391 . S
C1842 C1843 1.400 . S
C1843 C1842 1.400 . S
C1843 C1844 1.398 . S
C1843 C1849 1.491 . S
C1844 H1835 0.950 . S
C1844 C1843 1.398 . S
C1844 C1845 1.391 . S
C1845 H1833 0.950 1_545 S
C1845 C1841 1.393 . S
C1845 C1844 1.391 . S
C1846 H1836 0.950 . S
C1846 C1847 1.386 . S
C1846 C1848 1.391 . S
C1847 C1846 1.386 . S
C1847 C1851 1.393 . S
C1848 H1837 0.950 . S
C1848 C1846 1.391 . S
C1848 C1849 1.400 . S
C1849 C1843 1.491 . S
C1849 C1848 1.400 . S
C1849 C1850 1.398 . S
C1850 H1838 0.950 . S
C1850 C1849 1.398 . S
C1850 C1851 1.391 . S
C1851 H1839 0.950 . S
C1851 C1847 1.393 . S
C1851 C1850 1.391 . S
H1852 C1860 0.950 1_545 S
H1853 C1865 0.950 . S
H1854 C1862 0.950 . S
H1855 C1864 0.950 . S
H1856 C1866 0.950 . S
H1857 C1868 0.950 . S
H1858 C1870 0.950 . S
H1859 C1871 0.950 . S
C1860 H1852 0.950 1_565 S
C1860 C1861 1.386 . S
C1860 C1862 1.391 . S
C1861 C1860 1.386 . S
C1861 C1865 1.393 . S
C1862 H1854 0.950 . S
C1862 C1860 1.391 . S
C1862 C1863 1.400 . S
C1863 C1862 1.400 . S
C1863 C1864 1.398 . S
C1863 C1869 1.491 . S
C1864 H1855 0.950 . S
C1864 C1863 1.398 . S
C1864 C1865 1.391 . S
C1865 H1853 0.950 . S
C1865 C1861 1.393 . S
C1865 C1864 1.391 . S
C1866 H1856 0.950 . S
C1866 C1867 1.386 . S
C1866 C1868 1.391 . S
C1867 C1866 1.386 . S
C1867 C1871 1.393 . S
C1868 H1857 0.950 . S
C1868 C1866 1.391 . S
C1868 C1869 1.400 . S
C1869 C1863 1.491 . S
C1869 C1868 1.400 . S
C1869 C1870 1.398 . S
C1870 H1858 0.950 . S
C1870 C1869 1.398 . S
C1870 C1871 1.391 . S
C1871 H1859 0.950 . S
C1871 C1867 1.393 . S
C1871 C1870 1.391 . S
H1872 C1880 0.950 . S
H1873 C1885 0.950 . S
H1874 C1882 0.950 . S
H1875 C1884 0.950 . S
H1876 C1886 0.950 . S
H1877 C1888 0.950 . S
H1878 C1890 0.950 . S
H1879 C1891 0.950 . S
C1880 H1872 0.950 . S
C1880 C1881 1.386 . S
C1880 C1882 1.391 . S
C1881 C1880 1.386 . S
C1881 C1885 1.393 . S
C1882 H1874 0.950 . S
C1882 C1880 1.391 . S
C1882 C1883 1.400 . S
C1883 C1882 1.400 . S
C1883 C1884 1.398 . S
C1883 C1889 1.491 . S
C1884 H1875 0.950 . S
C1884 C1883 1.398 . S
C1884 C1885 1.391 . S
C1885 H1873 0.950 . S
C1885 C1881 1.393 . S
C1885 C1884 1.391 . S
C1886 H1876 0.950 . S
C1886 C1887 1.386 . S
C1886 C1888 1.391 . S
C1887 C1886 1.386 . S
C1887 C1891 1.393 . S
C1888 H1877 0.950 . S
C1888 C1886 1.391 . S
C1888 C1889 1.400 . S
C1889 C1883 1.491 . S
C1889 C1888 1.400 . S
C1889 C1890 1.398 . S
C1890 H1878 0.950 . S
C1890 C1889 1.398 . S
C1890 C1891 1.391 . S
C1891 H1879 0.950 . S
C1891 C1887 1.393 . S
C1891 C1890 1.391 . S
H1892 C1900 0.950 . S
H1893 C1905 0.950 . S
H1894 C1902 0.950 . S
H1895 C1904 0.950 . S
H1896 C1906 0.950 . S
H1897 C1908 0.950 . S
H1898 C1910 0.950 . S
H1899 C1911 0.950 . S
C1900 H1892 0.950 . S
C1900 C1901 1.386 . S
C1900 C1902 1.391 . S
C1901 C1900 1.386 . S
C1901 C1905 1.393 . S
C1902 H1894 0.950 . S
C1902 C1900 1.391 . S
C1902 C1903 1.400 . S
C1903 C1902 1.400 . S
C1903 C1904 1.398 . S
C1903 C1909 1.491 . S
C1904 H1895 0.950 . S
C1904 C1903 1.398 . S
C1904 C1905 1.391 . S
C1905 H1893 0.950 . S
C1905 C1901 1.393 . S
C1905 C1904 1.391 . S
C1906 H1896 0.950 . S
C1906 C1907 1.386 . S
C1906 C1908 1.391 . S
C1907 C1906 1.386 . S
C1907 C1911 1.393 . S
C1908 H1897 0.950 . S
C1908 C1906 1.391 . S
C1908 C1909 1.400 . S
C1909 C1903 1.491 . S
C1909 C1908 1.400 . S
C1909 C1910 1.398 . S
C1910 H1898 0.950 . S
C1910 C1909 1.398 . S
C1910 C1911 1.391 . S
C1911 H1899 0.950 . S
C1911 C1907 1.393 . S
C1911 C1910 1.391 . S
H1912 C1920 0.950 . S
H1913 C1925 0.950 . S
H1914 C1922 0.950 . S
H1915 C1924 0.950 . S
H1916 C1926 0.950 . S
H1917 C1928 0.950 . S
H1918 C1930 0.950 . S
H1919 C1931 0.950 . S
C1920 H1912 0.950 . S
C1920 C1921 1.386 . S
C1920 C1922 1.391 . S
C1921 C1920 1.386 . S
C1921 C1925 1.393 . S
C1922 H1914 0.950 . S
C1922 C1920 1.391 . S
C1922 C1923 1.400 . S
C1923 C1922 1.400 . S
C1923 C1924 1.398 . S
C1923 C1929 1.491 . S
C1924 H1915 0.950 . S
C1924 C1923 1.398 . S
C1924 C1925 1.391 . S
C1925 H1913 0.950 . S
C1925 C1921 1.393 . S
C1925 C1924 1.391 . S
C1926 H1916 0.950 . S
C1926 C1927 1.386 . S
C1926 C1928 1.391 . S
C1927 C1926 1.386 . S
C1927 C1931 1.393 . S
C1928 H1917 0.950 . S
C1928 C1926 1.391 . S
C1928 C1929 1.400 . S
C1929 C1923 1.491 . S
C1929 C1928 1.400 . S
C1929 C1930 1.398 . S
C1930 H1918 0.950 . S
C1930 C1929 1.398 . S
C1930 C1931 1.391 . S
C1931 H1919 0.950 . S
C1931 C1927 1.393 . S
C1931 C1930 1.391 . S
H1932 C1940 0.950 . S
H1933 C1945 0.950 . S
H1934 C1942 0.950 . S
H1935 C1944 0.950 . S
H1936 C1946 0.950 . S
H1937 C1948 0.950 . S
H1938 C1950 0.950 . S
H1939 C1951 0.950 1_554 S
C1940 H1932 0.950 . S
C1940 C1941 1.386 . S
C1940 C1942 1.391 . S
C1941 C1940 1.386 . S
C1941 C1945 1.393 . S
C1942 H1934 0.950 . S
C1942 C1940 1.391 . S
C1942 C1943 1.400 . S
C1943 C1942 1.400 . S
C1943 C1944 1.398 . S
C1943 C1949 1.491 . S
C1944 H1935 0.950 . S
C1944 C1943 1.398 . S
C1944 C1945 1.391 . S
C1945 H1933 0.950 . S
C1945 C1941 1.393 . S
C1945 C1944 1.391 . S
C1946 H1936 0.950 . S
C1946 C1947 1.386 . S
C1946 C1948 1.391 . S
C1947 C1946 1.386 . S
C1947 C1951 1.393 . S
C1948 H1937 0.950 . S
C1948 C1946 1.391 . S
C1948 C1949 1.400 . S
C1949 C1943 1.491 . S
C1949 C1948 1.400 . S
C1949 C1950 1.398 . S
C1950 H1938 0.950 . S
C1950 C1949 1.398 . S
C1950 C1951 1.391 . S
C1951 H1939 0.950 1_556 S
C1951 C1947 1.393 . S
C1951 C1950 1.391 . S
H1952 C1960 0.950 . S
H1953 C1965 0.950 . S
H1954 C1962 0.950 . S
H1955 C1964 0.950 . S
H1956 C1966 0.950 . S
H1957 C1968 0.950 . S
H1958 C1970 0.950 . S
H1959 C1971 0.950 . S
C1960 H1952 0.950 . S
C1960 C1961 1.386 . S
C1960 C1962 1.391 . S
C1961 C1960 1.386 . S
C1961 C1965 1.393 . S
C1962 H1954 0.950 . S
C1962 C1960 1.391 . S
C1962 C1963 1.400 . S
C1963 C1962 1.400 . S
C1963 C1964 1.398 . S
C1963 C1969 1.491 . S
C1964 H1955 0.950 . S
C1964 C1963 1.398 . S
C1964 C1965 1.391 . S
C1965 H1953 0.950 . S
C1965 C1961 1.393 . S
C1965 C1964 1.391 . S
C1966 H1956 0.950 . S
C1966 C1967 1.386 . S
C1966 C1968 1.391 . S
C1967 C1966 1.386 . S
C1967 C1971 1.393 . S
C1968 H1957 0.950 . S
C1968 C1966 1.391 . S
C1968 C1969 1.400 . S
C1969 C1963 1.491 . S
C1969 C1968 1.400 . S
C1969 C1970 1.398 . S
C1970 H1958 0.950 . S
C1970 C1969 1.398 . S
C1970 C1971 1.391 . S
C1971 H1959 0.950 . S
C1971 C1967 1.393 . S
C1971 C1970 1.391 . S
H1972 C1980 0.950 . S
H1973 C1985 0.950 . S
H1974 C1982 0.950 . S
H1975 C1984 0.950 . S
H1976 C1986 0.950 . S
H1977 C1988 0.950 . S
H1978 C1990 0.950 . S
H1979 C1991 0.950 . S
C1980 H1972 0.950 . S
C1980 C1981 1.386 . S
C1980 C1982 1.391 . S
C1981 C1980 1.386 . S
C1981 C1985 1.393 . S
C1982 H1974 0.950 . S
C1982 C1980 1.391 . S
C1982 C1983 1.400 . S
C1983 C1982 1.400 . S
C1983 C1984 1.398 . S
C1983 C1989 1.491 . S
C1984 H1975 0.950 . S
C1984 C1983 1.398 . S
C1984 C1985 1.391 . S
C1985 H1973 0.950 . S
C1985 C1981 1.393 . S
C1985 C1984 1.391 . S
C1986 H1976 0.950 . S
C1986 C1987 1.386 . S
C1986 C1988 1.391 . S
C1987 C1986 1.386 . S
C1987 C1991 1.393 . S
C1988 H1977 0.950 . S
C1988 C1986 1.391 . S
C1988 C1989 1.400 . S
C1989 C1983 1.491 . S
C1989 C1988 1.400 . S
C1989 C1990 1.398 . S
C1990 H1978 0.950 . S
C1990 C1989 1.398 . S
C1990 C1991 1.391 . S
C1991 H1979 0.950 . S
C1991 C1987 1.393 . S
C1991 C1990 1.391 . S
C561 C19 1.017 . S
C567 C435 1.063 . S
C581 C458 1.067 . S
C587 C42 1.021 . S
C601 C65 1.040 . S
C607 C389 1.058 . S
C621 C88 1.031 . S
C627 C412 1.056 . S
C641 C527 1.050 . S
C647 C111 1.020 . S
C661 C134 1.053 . S
C667 C504 1.070 . S
C681 C550 1.064 . S
C687 C157 1.018 . S
C701 C180 1.052 . S
C707 C481 1.072 . S
C721 C203 1.024 . S
C727 C320 1.049 . S
C741 C226 1.052 . S
C747 C366 1.069 . S
C761 C343 1.071 . S
C767 C249 1.040 . S
C781 C272 1.044 . S
C787 C297 1.060 . S
C801 C295 1.050 . S
C807 C159 1.058 . S
C821 C318 1.047 . S
C827 C182 1.070 . S
C841 C341 1.051 . S
C847 C113 1.074 . S
C861 C136 1.056 . S
C867 C364 1.031 . S
C881 C387 1.043 . S
C887 C251 1.071 . S
C901 C228 1.065 . S
C907 C410 1.013 . S
C921 C274 1.068 . S
C927 C433 1.051 . S
C941 C205 1.056 . S
C947 C456 1.020 . S
C961 C44 1.062 . S
C967 C479 1.052 . S
C981 C90 1.062 . S
C987 C502 1.047 . S
C1001 C67 1.064 . S
C1007 C525 1.017 . S
C1021 C548 1.022 . S
C1027 C21 1.072 . S
C1041 C110 1.345 . S
C1047 C16 1.372 . S
C1061 C133 1.364 . S
C1067 C39 1.381 . S
C1081 C156 1.365 . S
C1087 C62 1.382 . S
C1101 C179 1.345 . S
C1107 C85 1.372 . S
C1121 C108 1.375 . S
C1127 C202 1.353 . S
C1141 C131 1.373 . S
C1147 C271 1.345 . S
C1161 C154 1.382 . S
C1167 C225 1.366 . S
C1181 C177 1.381 . S
C1187 C248 1.366 . S
C1201 C200 1.378 . S
C1207 C18 1.360 . S
C1221 C223 1.374 . S
C1227 C64 1.348 . S
C1241 C246 1.381 . S
C1247 C87 1.364 . S
C1261 C41 1.348 . S
C1267 C269 1.373 . S
C1281 C386 1.359 . S
C1287 C292 1.378 . S
C1301 C409 1.345 . S
C1307 C315 1.372 . S
C1321 C338 1.382 . S
C1327 C432 1.366 . S
C1341 C361 1.379 . S
C1347 C455 1.357 . S
C1361 C478 1.347 . S
C1367 C384 1.374 . S
C1381 C407 1.380 . S
C1387 C547 1.363 . S
C1401 C501 1.349 . S
C1407 C430 1.375 . S
C1421 C453 1.380 . S
C1427 C524 1.361 . S
C1441 C294 1.360 . S
C1447 C476 1.378 . S
C1461 C499 1.372 . S
C1467 C340 1.345 . S
C1481 C522 1.374 . S
C1487 C363 1.350 . S
C1501 C317 1.362 . S
C1507 C545 1.380 . S
C1521 C20 1.523 . S
C1527 C224 1.439 1_554 S
C1541 C247 1.456 . S
C1547 C43 1.532 . S
C1561 C201 1.439 1_556 S
C1567 C66 1.523 . S
C1581 C270 1.450 . S
C1587 C89 1.524 . S
C1601 C112 1.522 . S
C1607 C86 1.439 1_455 S
C1621 C63 1.463 . S
C1627 C135 1.529 . S
C1641 C158 1.534 . S
C1647 C40 1.470 . S
C1661 C17 1.460 1_655 S
C1667 C181 1.528 . S
C1681 C204 1.526 . S
C1687 C132 1.457 1_545 S
C1701 C227 1.522 . S
C1707 C178 1.443 . S
C1721 C250 1.534 . S
C1727 C155 1.471 . S
C1741 C273 1.532 . S
C1747 C109 1.469 1_565 S
C1761 C296 1.531 . S
C1767 C500 1.466 1_556 S
C1781 C319 1.528 . S
C1787 C523 1.460 . S
C1801 C477 1.452 1_554 S
C1807 C342 1.530 . S
C1821 C546 1.454 . S
C1827 C365 1.531 . S
C1841 C388 1.529 . S
C1847 C362 1.450 1_655 S
C1861 C411 1.526 . S
C1867 C339 1.456 . S
C1881 C316 1.468 . S
C1887 C434 1.535 . S
C1901 C457 1.523 . S
C1907 C293 1.439 1_455 S
C1921 C480 1.523 . S
C1927 C408 1.439 1_565 S
C1941 C454 1.449 . S
C1947 C503 1.524 . S
C1961 C526 1.530 . S
C1967 C431 1.452 . S
C1981 C549 1.522 . S
C1987 C385 1.441 1_545 S
