# Generated by pormake.
# Topology qtz-x, (6)-cn, num edge types: 1
# Building blocks:
#     Node 0, Type 0, BuildingBlock: BETFEN_clean_sbu_0, # of connection points: 6
#     Node 1, Type 0, BuildingBlock: BETFEN_clean_sbu_0, # of connection points: 6
#     Node 2, Type 0, BuildingBlock: BETFEN_clean_sbu_0, # of connection points: 6
#     Edge 3, Type (0, 0), BuildingBlock: KIFKEQ_clean_linker_1, # of connection points: 2
#     Edge 4, Type (0, 0), BuildingBlock: KIFKEQ_clean_linker_1, # of connection points: 2
#     Edge 5, Type (0, 0), BuildingBlock: KIFKEQ_clean_linker_1, # of connection points: 2
#     Edge 6, Type (0, 0), BuildingBlock: KIFKEQ_clean_linker_1, # of connection points: 2
#     Edge 7, Type (0, 0), BuildingBlock: KIFKEQ_clean_linker_1, # of connection points: 2
#     Edge 8, Type (0, 0), BuildingBlock: KIFKEQ_clean_linker_1, # of connection points: 2
#     Edge 9, Type (0, 0), BuildingBlock: KIFKEQ_clean_linker_1, # of connection points: 2
#     Edge 10, Type (0, 0), BuildingBlock: KIFKEQ_clean_linker_1, # of connection points: 2
#     Edge 11, Type (0, 0), BuildingBlock: KIFKEQ_clean_linker_1, # of connection points: 2
# Relax obj value: 0.231
# Max RMSD: 0.262
# Mean RMSD: 0.238
data_MOF--net-qtz-x--node1-BETFEN_clean_sbu_0--edge1-KIFKEQ_clean_linker_1
_symmetry_space_group_name_H-M    P1
_symmetry_Int_Tables_number       1
_symmetry_cell_setting            triclinic
loop_
_symmetry_equiv_pos_as_xyz
'x, y, z'
_cell_length_a     14.923998
_cell_length_b     15.125582
_cell_length_c     54.41919
_cell_angle_alpha  68.143038
_cell_angle_beta   114.15175
_cell_angle_gamma 121.06165
loop_
_atom_site_label
_atom_site_type_symbol
_atom_site_fract_x
_atom_site_fract_y
_atom_site_fract_z
_atom_type_partial_charge
Pr0 Pr 1.04724 0.62531 0.19906 0.0
Pr1 Pr 0.26533 0.7631 0.19142 0.0
C2 C 0.87695 0.47473 0.21915 0.0
C3 C 0.85692 0.43505 0.24664 0.0
C4 C 0.7644 0.42841 0.24964 0.0
C5 C 0.74683 0.39466 0.2757 0.0
C6 C 0.82133 0.36642 0.29932 0.0
C7 C 0.91371 0.37284 0.29621 0.0
C8 C 0.93134 0.40679 0.27022 0.0
C9 C 0.10083 0.83939 0.19033 0.0
C10 C 0.26155 0.69099 0.25417 0.0
C11 C 0.43623 0.91108 0.17166 0.0
C12 C 0.46 0.93329 0.14552 0.0
C13 C 0.53783 0.90757 0.14545 0.0
C14 C 0.54996 0.91389 0.12061 0.0
C15 C 0.48449 0.94615 0.0953 0.0
C16 C 0.41024 -0.02342 0.0954 0.0
C17 C 0.39859 -0.02914 0.12023 0.0
C18 C 0.2124 0.54909 0.20002 0.0
C19 C 1.05615 0.70291 0.13569 0.0
O20 O 0.94765 0.45509 0.21638 0.0
O21 O 0.88543 0.56997 0.20664 0.0
O22 O 0.1631 0.79568 0.20615 0.0
O23 O 1.00817 0.77265 0.17795 0.0
O24 O 0.31524 0.77013 0.23713 0.0
O25 O 0.16478 0.61775 0.24455 0.0
O26 O 0.35679 0.92906 0.16996 0.0
O27 O 0.43595 0.8233 0.18884 0.0
O28 O 0.14911 0.59196 0.18448 0.0
O29 O 0.30596 0.61716 0.21153 0.0
O30 O 0.99733 0.62473 0.15204 0.0
O31 O 0.15284 0.77331 0.14619 0.0
H32 H 0.7059 0.44987 0.23181 0.0
H33 H 0.67434 0.38973 0.2773 0.0
H34 H 0.97366 0.35334 0.31395 0.0
H35 H 1.00393 0.41172 0.26868 0.0
H36 H 0.58659 0.8788 0.1646 0.0
H37 H 0.60756 0.88933 0.12126 0.0
H38 H 0.35995 0.00347 0.07626 0.0
H39 H 0.33882 -0.00726 0.11949 0.0
Pr40 Pr 0.84008 0.19152 0.55555 0.0
Pr41 Pr 0.73464 0.93703 0.55114 0.0
C42 C 0.87682 0.37486 0.563 0.0
C43 C 0.89306 0.41047 0.58681 0.0
C44 C 0.96613 0.51443 0.58974 0.0
C45 C 0.99436 0.54545 0.61407 0.0
C46 C 0.95011 0.47272 0.63594 0.0
C47 C 0.87419 0.36929 0.63253 0.0
C48 C 0.84614 0.33841 0.60821 0.0
C49 C 0.99909 0.13536 0.55896 0.0
C50 C 0.81108 -0.00678 0.61228 0.0
C51 C 0.69872 0.76309 0.53885 0.0
C52 C 0.66779 0.73828 0.51183 0.0
C53 C 0.57675 0.64503 0.50507 0.0
C54 C 0.536 0.62832 0.47817 0.0
C55 C 0.58572 0.70453 0.45748 0.0
C56 C 0.67941 0.79605 0.46459 0.0
C57 C 0.71976 0.81291 0.49141 0.0
C58 C 0.57419 -0.00846 0.54753 0.0
C59 C 0.75976 0.1363 0.49426 0.0
O60 O 0.77945 0.30527 0.55306 0.0
O61 O 0.95434 0.35413 0.56476 0.0
O62 O 0.89891 0.07843 0.55642 0.0
O63 O 1.0215 0.22828 0.5607 0.0
O64 O 0.79082 0.9228 0.59929 0.0
O65 O 0.82348 0.0914 0.59978 0.0
O66 O 0.79668 0.83607 0.54688 0.0
O67 O 0.62434 0.77101 0.54363 0.0
O68 O 0.67405 0.05052 0.54946 0.0
O69 O 0.55427 0.89776 0.54704 0.0
O70 O 0.78907 0.2082 0.50783 0.0
O71 O 0.74061 0.03633 0.5062 0.0
H72 H 1.00424 0.57066 0.57357 0.0
H73 H 1.05391 0.62532 0.61611 0.0
H74 H 0.83731 0.3118 0.64879 0.0
H75 H 0.79003 0.25751 0.60639 0.0
H76 H 0.53479 0.5867 0.52037 0.0
H77 H 0.46448 0.55643 0.47348 0.0
H78 H 0.71894 0.85707 0.44914 0.0
H79 H 0.78913 0.88642 0.49583 0.0
Pr80 Pr 0.7941 0.82187 0.86609 0.0
Pr81 Pr 0.96541 0.74525 0.88203 0.0
C82 C 0.62681 0.85337 0.8626 0.0
C83 C 0.58445 0.8502 0.88324 0.0
C84 C 0.55853 0.93147 0.88005 0.0
C85 C 0.5332 0.93734 0.90132 0.0
C86 C 0.53364 0.86195 0.92617 0.0
C87 C 0.55403 0.77757 0.92864 0.0
C88 C 0.57969 0.77202 0.90747 0.0
C89 C 1.00328 -0.01802 0.86742 0.0
C90 C 0.91248 0.75214 0.93313 0.0
C91 C 0.13386 0.71803 0.88468 0.0
C92 C 0.16294 0.70936 0.86303 0.0
C93 C 0.1593 0.61365 0.86382 0.0
C94 C 0.16061 0.59568 0.84055 0.0
C95 C 0.1655 0.67329 0.81617 0.0
C96 C 0.17945 0.77234 0.8163 0.0
C97 C 0.17806 0.79025 0.83945 0.0
C98 C 0.7567 0.58352 0.88052 0.0
C99 C 0.84747 0.81618 0.81467 0.0
O100 O 0.61557 0.76342 0.86128 0.0
O101 O 0.72236 0.93021 0.86102 0.0
O102 O 0.97936 0.89813 0.88546 0.0
O103 O 0.9177 -0.01365 0.84791 0.0
O104 O 0.9902 0.75889 0.92581 0.0
O105 O 0.82424 0.7595 0.91444 0.0
O106 O 0.14132 0.81008 0.88304 0.0
O107 O 1.04547 0.63971 0.89086 0.0
O108 O 0.77969 0.66844 0.86273 0.0
O109 O 0.84322 0.57817 0.89938 0.0
O110 O 0.77206 0.81509 0.82171 0.0
O111 O 0.93227 0.80227 0.83357 0.0
H112 H 0.56215 -0.00724 0.86155 0.0
H113 H 0.51856 0.00369 0.8988 0.0
H114 H 0.55296 0.71705 0.94727 0.0
H115 H 0.59935 0.70839 0.91049 0.0
H116 H 0.14817 0.55027 0.88179 0.0
H117 H 0.14998 0.51864 0.84103 0.0
H118 H 0.18541 0.83422 0.79792 0.0
H119 H 0.18194 0.86532 0.83815 0.0
H120 H 0.25416 0.96104 0.22807 0.0
H121 H 0.98835 0.95485 0.15479 0.0
H122 H 0.27756 0.12829 0.23127 0.0
H123 H 1.01516 0.12553 0.15684 0.0
H124 H 1.02088 0.38722 0.18061 0.0
H125 H 0.99346 0.21591 0.17866 0.0
H126 H 0.33897 0.30648 0.21396 0.0
H127 H 0.36419 0.47398 0.21731 0.0
C128 C 0.20172 -0.00355 0.21237 0.0
C129 C 0.11939 0.9447 0.19118 0.0
C130 C 0.21544 0.09311 0.21407 0.0
C131 C 0.14849 0.14196 0.19431 0.0
C132 C 0.06712 0.09032 0.17283 0.0
C133 C 1.05227 -0.00733 0.17143 0.0
C134 C 0.09057 0.36976 0.18811 0.0
C135 C 0.19454 0.44398 0.19919 0.0
C136 C 0.07525 0.27175 0.18677 0.0
C137 C 0.1639 0.24605 0.19608 0.0
C138 C 0.26794 0.32125 0.20709 0.0
C139 C 0.28278 0.41819 0.20886 0.0
H140 H 0.37374 0.85151 0.55394 0.0
H141 H 0.58502 0.18417 0.54395 0.0
H142 H 0.23549 0.88325 0.55716 0.0
H143 H 0.44588 0.21735 0.54685 0.0
H144 H 0.21709 0.22748 0.58071 0.0
H145 H 0.35594 0.19468 0.57787 0.0
H146 H 0.1055 0.95399 0.53149 0.0
H147 H 0.96693 -0.01283 0.53467 0.0
C148 C 0.39084 0.93198 0.55236 0.0
C149 C 0.49161 0.01549 0.54902 0.0
C150 C 0.31082 0.95025 0.55403 0.0
C151 C 0.32864 0.05291 0.5523 0.0
C152 C 0.42943 0.13684 0.54876 0.0
C153 C 0.50976 0.11822 0.54711 0.0
C154 C 0.19168 0.16675 0.57013 0.0
C155 C 0.08065 0.10791 0.5585 0.0
C156 C 0.27152 0.14862 0.56826 0.0
C157 C 0.24277 0.07164 0.55443 0.0
C158 C 0.13119 0.01253 0.54279 0.0
C159 C 1.0512 0.03061 0.54479 0.0
H160 H 0.07569 0.14738 0.82662 0.0
H161 H 0.18084 0.00976 0.91207 0.0
H162 H 0.25784 0.28977 0.82917 0.0
H163 H 0.36156 0.1553 0.91539 0.0
H164 H 0.70298 0.38001 0.90864 0.0
H165 H 0.52321 0.23309 0.9047 0.0
H166 H 0.3818 0.44292 0.84469 0.0
H167 H 0.56296 0.58718 0.84719 0.0
C168 C 0.13784 0.1484 0.84605 0.0
C169 C 0.11419 0.06789 0.86915 0.0
C170 C 0.24238 0.23065 0.84764 0.0
C171 C 0.32551 0.23556 0.87257 0.0
C172 C 0.30108 0.15415 0.89568 0.0
C173 C 0.197 0.07082 0.8939 0.0
C174 C 0.63328 0.39433 0.89453 0.0
C175 C 0.64688 0.49512 0.87831 0.0
C176 C 0.52969 0.31017 0.89242 0.0
C177 C 0.4366 0.32518 0.87446 0.0
C178 C 0.45088 0.42689 0.85838 0.0
C179 C 0.55484 0.51038 0.86003 0.0
H180 H 0.39345 0.92735 0.92692 0.0
H181 H 0.64844 0.82881 0.97988 0.0
H182 H 0.38153 0.95591 0.96667 0.0
H183 H 0.63328 0.85283 1.01944 0.0
H184 H 0.66633 0.01062 0.08027 0.0
H185 H 0.67559 -0.00524 1.03852 0.0
H186 H 0.32482 0.85795 1.00921 0.0
H187 H 0.31573 0.8745 0.05098 0.0
C188 C 0.44661 0.91146 0.947 0.0
C189 C 0.52157 0.87534 0.95021 0.0
C190 C 0.43915 0.92697 0.9698 0.0
C191 C 0.50691 0.90722 0.99622 0.0
C192 C 0.58106 0.87042 0.99935 0.0
C193 C 0.58852 0.855 0.97668 0.0
C194 C 0.59124 -0.0228 0.06492 0.0
C195 C 0.49037 0.94334 0.06901 0.0
C196 C 0.59644 0.96794 0.041 0.0
C197 C 0.50088 0.92413 1.02063 0.0
C198 C 0.39999 0.89297 1.02435 0.0
C199 C 0.39481 0.90248 0.04829 0.0
H200 H 0.82326 0.33739 0.46264 0.0
H201 H 0.68534 0.0109 0.45819 0.0
H202 H 0.83156 0.39158 0.41511 0.0
H203 H 0.69263 0.06499 0.41076 0.0
H204 H 0.85293 0.20443 0.3406 0.0
H205 H 0.83088 0.14994 0.38667 0.0
H206 H 0.72442 0.39101 0.36712 0.0
H207 H 0.74976 0.44772 0.32117 0.0
C208 C 0.7933 0.277 0.45147 0.0
C209 C 0.75449 0.16968 0.46446 0.0
C210 C 0.79784 0.30815 0.42414 0.0
C211 C 0.76373 0.23279 0.40911 0.0
C212 C 0.72162 0.12539 0.42183 0.0
C213 C 0.71699 0.09431 0.44908 0.0
C214 C 0.82538 0.24628 0.34614 0.0
C215 C 0.80352 0.33076 0.32715 0.0
C216 C 0.81149 0.21421 0.3725 0.0
C217 C 0.77557 0.26584 0.38068 0.0
C218 C 0.75304 0.34998 0.36164 0.0
C219 C 0.76649 0.3818 0.33518 0.0
H220 H 0.98073 0.81329 0.79229 0.0
H221 H 0.69431 0.86301 0.76945 0.0
H222 H 0.9703 0.85172 0.74361 0.0
H223 H 0.68343 0.89955 0.72089 0.0
H224 H 0.78964 0.09179 0.64112 0.0
H225 H 0.79556 0.0439 0.68939 0.0
H226 H 0.84902 0.77571 0.70015 0.0
H227 H 0.84242 0.82352 0.65124 0.0
C228 C 0.91501 0.83143 0.77697 0.0
C229 C 0.83851 0.83519 0.78495 0.0
C230 C 0.90859 0.8524 0.74906 0.0
C231 C 0.82575 0.87787 0.72836 0.0
C232 C 0.74872 0.88075 0.73631 0.0
C233 C 0.75478 0.85938 0.76419 0.0
C234 C 0.80289 0.02256 0.65362 0.0
C235 C 0.81578 0.96173 0.64211 0.0
C236 C 0.80535 -0.00536 0.68137 0.0
C237 C 0.8221 0.90565 0.69866 0.0
C238 C 0.83621 0.84498 0.68737 0.0
C239 C 0.83202 0.87211 0.65933 0.0
H240 H 0.76066 0.70877 0.95746 0.0
H241 H 0.0943 0.76503 0.97622 0.0
H242 H 0.7859 0.69308 1.00609 0.0
H243 H 0.11896 0.74945 1.0245 0.0
H244 H 0.16454 0.85461 0.09837 0.0
H245 H 0.12379 0.86086 0.05008 0.0
H246 H 0.8281 0.57539 0.05463 0.0
H247 H 0.87021 0.56769 0.10391 0.0
C248 C 0.83915 0.71734 0.9719 0.0
C249 C 0.92556 0.73858 0.9628 0.0
C250 C 0.85328 0.70767 0.9998 0.0
C251 C 0.95453 0.72044 1.01916 0.0
C252 C 1.04024 0.74028 1.01008 0.0
C253 C 1.02588 0.74877 0.98236 0.0
C254 C 0.0905 0.79285 0.08932 0.0
C255 C 1.02137 0.70994 0.10535 0.0
C256 C 0.06739 0.79643 0.06149 0.0
C257 C 0.97353 0.71792 0.04854 0.0
C258 C 0.90126 0.63707 0.06406 0.0
C259 C 0.92533 0.63267 0.09227 0.0
H260 H 0.45443 0.83233 0.28052 0.0
H261 H 0.17627 0.5399 0.29617 0.0
H262 H 0.5308 0.82902 0.3296 0.0
H263 H 0.2542 0.53521 0.34553 0.0
H264 H 0.37057 0.6325 0.42845 0.0
H265 H 0.29227 0.62356 0.37989 0.0
H266 H 0.61292 0.73905 0.37181 0.0
H267 H 0.69113 0.74897 0.4203 0.0
C268 C 0.40982 0.76668 0.29443 0.0
C269 C 0.30904 0.68631 0.2843 0.0
C270 C 0.45415 0.76443 0.32269 0.0
C271 C 0.39915 0.6816 0.34167 0.0
C272 C 0.29844 0.60083 0.33155 0.0
C273 C 0.25395 0.60317 0.30321 0.0
C274 C 0.42422 0.65448 0.41642 0.0
C275 C 0.53728 0.69176 0.42831 0.0
C276 C 0.37925 0.64935 0.38851 0.0
C277 C 0.44616 0.68115 0.37178 0.0
C278 C 0.55898 0.7159 0.38388 0.0
C279 C 0.60393 0.72137 0.41173 0.0
H280 H 1.02435 0.71286 0.76793 0.0
H281 H 0.24883 0.57053 0.80538 0.0
H282 H 0.97698 0.6669 0.7246 0.0
H283 H 0.20185 0.5241 0.76167 0.0
H284 H 0.99377 0.35709 0.68807 0.0
H285 H 1.05046 0.40714 0.73163 0.0
H286 H 1.04963 0.7107 0.68746 0.0
H287 H 0.98817 0.65886 0.64394 0.0
C288 C 0.06544 0.67386 0.76664 0.0
C289 C 0.14186 0.64735 0.78982 0.0
C290 C 1.03807 0.64708 0.74182 0.0
C291 C 0.08631 0.59266 0.73954 0.0
C292 C 0.16264 0.56544 0.76281 0.0
C293 C 0.18993 0.59227 0.78777 0.0
C294 C 1.0045 0.43407 0.68766 0.0
C295 C 0.98565 0.5037 0.6625 0.0
C296 C 1.03861 0.46334 0.71264 0.0
C297 C 1.05473 0.56294 0.71306 0.0
C298 C 1.03688 0.63291 0.68789 0.0
C299 C 1.00263 0.6036 0.66292 0.0
loop_
_geom_bond_atom_site_label_1
_geom_bond_atom_site_label_2
_geom_bond_distance
_geom_bond_site_symmetry_2
_ccdc_geom_bond_type
Pr0 C2 2.880 . S
Pr0 O20 2.562 . S
Pr0 O21 2.490 . S
Pr0 O22 2.695 1_655 S
Pr0 O23 2.512 . S
Pr0 O25 2.437 1_655 S
Pr0 O28 2.436 . S
Pr0 O30 2.438 . S
Pr1 C11 2.880 . S
Pr1 O22 2.436 . S
Pr1 O24 2.438 . S
Pr1 O26 2.562 . S
Pr1 O27 2.490 . S
Pr1 O28 2.695 1_455 S
Pr1 O29 2.512 . S
Pr1 O31 2.437 1_455 S
C2 Pr0 2.880 . S
C2 C3 1.491 . S
C2 O20 1.254 . S
C2 O21 1.225 . S
C3 C2 1.491 . S
C3 C4 1.392 . S
C3 C8 1.356 . S
C4 C3 1.392 . S
C4 C5 1.368 . S
C4 H32 0.929 . S
C5 C4 1.368 . S
C5 C6 1.386 . S
C5 H33 0.929 . S
C6 C5 1.386 . S
C6 C7 1.373 . S
C7 C6 1.373 . S
C7 C8 1.409 . S
C7 H34 0.931 . S
C8 C3 1.356 . S
C8 C7 1.409 . S
C8 H35 0.930 . S
C9 O22 1.270 1_655 S
C9 O23 1.248 . S
C10 O24 1.267 . S
C10 O25 1.278 . S
C11 Pr1 2.880 . S
C11 C12 1.491 . S
C11 O26 1.254 . S
C11 O27 1.225 . S
C12 C11 1.491 . S
C12 C13 1.392 . S
C12 C17 1.356 . S
C13 C12 1.392 . S
C13 C14 1.368 . S
C13 H36 0.929 . S
C14 C13 1.368 . S
C14 C15 1.386 . S
C14 H37 0.929 . S
C15 C14 1.386 . S
C15 C16 1.373 1_565 S
C16 C15 1.373 1_545 S
C16 C17 1.409 1_545 S
C16 H38 0.931 . S
C17 C12 1.356 . S
C17 C16 1.409 1_565 S
C17 H39 0.930 . S
C18 O28 1.270 1_455 S
C18 O29 1.248 . S
C19 O30 1.267 . S
C19 O31 1.278 . S
O20 Pr0 2.562 . S
O20 C2 1.254 . S
O21 Pr0 2.490 . S
O21 C2 1.225 . S
O22 Pr0 2.695 1_455 S
O22 Pr1 2.436 . S
O22 C9 1.270 1_455 S
O23 Pr0 2.512 . S
O23 C9 1.248 . S
O24 Pr1 2.438 . S
O24 C10 1.267 . S
O25 Pr0 2.437 1_455 S
O25 C10 1.278 . S
O26 Pr1 2.562 . S
O26 C11 1.254 . S
O27 Pr1 2.490 . S
O27 C11 1.225 . S
O28 Pr0 2.436 . S
O28 Pr1 2.695 1_655 S
O28 C18 1.270 1_655 S
O29 Pr1 2.512 . S
O29 C18 1.248 . S
O30 Pr0 2.438 . S
O30 C19 1.267 . S
O31 Pr1 2.437 1_655 S
O31 C19 1.278 . S
H32 C4 0.929 . S
H33 C5 0.929 . S
H34 C7 0.931 . S
H35 C8 0.930 . S
H36 C13 0.929 . S
H37 C14 0.929 . S
H38 C16 0.931 . S
H39 C17 0.930 . S
Pr40 C42 2.880 . S
Pr40 O60 2.562 . S
Pr40 O61 2.490 . S
Pr40 O62 2.695 1_545 S
Pr40 O63 2.512 . S
Pr40 O65 2.437 . S
Pr40 O68 2.436 . S
Pr40 O70 2.438 . S
Pr41 C51 2.880 . S
Pr41 O62 2.436 . S
Pr41 O64 2.438 . S
Pr41 O66 2.562 . S
Pr41 O67 2.490 . S
Pr41 O68 2.695 1_565 S
Pr41 O69 2.512 . S
Pr41 O71 2.437 1_565 S
C42 Pr40 2.880 . S
C42 C43 1.491 . S
C42 O60 1.254 . S
C42 O61 1.225 . S
C43 C42 1.491 . S
C43 C44 1.392 1_655 S
C43 C48 1.356 . S
C44 C43 1.392 1_455 S
C44 C45 1.368 . S
C44 H72 0.929 . S
C45 C44 1.368 . S
C45 C46 1.386 1_455 S
C45 H73 0.929 . S
C46 C45 1.386 1_655 S
C46 C47 1.373 . S
C47 C46 1.373 . S
C47 C48 1.409 . S
C47 H74 0.931 . S
C48 C43 1.356 . S
C48 C47 1.409 . S
C48 H75 0.930 . S
C49 O62 1.270 1_545 S
C49 O63 1.248 . S
C50 O64 1.267 . S
C50 O65 1.278 1_565 S
C51 Pr41 2.880 . S
C51 C52 1.491 . S
C51 O66 1.254 . S
C51 O67 1.225 . S
C52 C51 1.491 . S
C52 C53 1.392 . S
C52 C57 1.356 . S
C53 C52 1.392 . S
C53 C54 1.368 . S
C53 H76 0.929 . S
C54 C53 1.368 . S
C54 C55 1.386 . S
C54 H77 0.929 . S
C55 C54 1.386 . S
C55 C56 1.373 . S
C56 C55 1.373 . S
C56 C57 1.409 . S
C56 H78 0.931 . S
C57 C52 1.356 . S
C57 C56 1.409 . S
C57 H79 0.930 . S
C58 O68 1.270 1_565 S
C58 O69 1.248 . S
C59 O70 1.267 . S
C59 O71 1.278 . S
O60 Pr40 2.562 . S
O60 C42 1.254 . S
O61 Pr40 2.490 . S
O61 C42 1.225 . S
O62 Pr40 2.695 1_565 S
O62 Pr41 2.436 . S
O62 C49 1.270 1_565 S
O63 Pr40 2.512 . S
O63 C49 1.248 . S
O64 Pr41 2.438 . S
O64 C50 1.267 . S
O65 Pr40 2.437 . S
O65 C50 1.278 1_545 S
O66 Pr41 2.562 . S
O66 C51 1.254 . S
O67 Pr41 2.490 . S
O67 C51 1.225 . S
O68 Pr40 2.436 . S
O68 Pr41 2.695 1_545 S
O68 C58 1.270 1_545 S
O69 Pr41 2.512 . S
O69 C58 1.248 . S
O70 Pr40 2.438 . S
O70 C59 1.267 . S
O71 Pr41 2.437 1_545 S
O71 C59 1.278 . S
H72 C44 0.929 . S
H73 C45 0.929 . S
H74 C47 0.931 . S
H75 C48 0.930 . S
H76 C53 0.929 . S
H77 C54 0.929 . S
H78 C56 0.931 . S
H79 C57 0.930 . S
Pr80 C82 2.880 . S
Pr80 O100 2.562 1_545 S
Pr80 O101 2.490 . S
Pr80 O102 2.695 . S
Pr80 O103 2.512 1_655 S
Pr80 O105 2.437 1_545 S
Pr80 O108 2.436 1_545 S
Pr80 O110 2.438 . S
Pr81 C91 2.880 1_655 S
Pr81 O102 2.436 1_565 S
Pr81 O104 2.438 . S
Pr81 O106 2.562 1_655 S
Pr81 O107 2.490 . S
Pr81 O108 2.695 . S
Pr81 O109 2.512 . S
Pr81 O111 2.437 . S
C82 Pr80 2.880 . S
C82 C83 1.491 . S
C82 O100 1.254 1_545 S
C82 O101 1.225 . S
C83 C82 1.491 . S
C83 C84 1.392 . S
C83 C88 1.356 1_545 S
C84 C83 1.392 . S
C84 C85 1.368 . S
C84 H112 0.929 . S
C85 C84 1.368 . S
C85 C86 1.386 . S
C85 H113 0.929 . S
C86 C85 1.386 . S
C86 C87 1.373 1_545 S
C87 C86 1.373 1_565 S
C87 C88 1.409 . S
C87 H114 0.931 . S
C88 C83 1.356 1_565 S
C88 C87 1.409 . S
C88 H115 0.930 . S
C89 O102 1.270 1_455 S
C89 O103 1.248 . S
C90 O104 1.267 . S
C90 O105 1.278 . S
C91 Pr81 2.880 1_455 S
C91 C92 1.491 . S
C91 O106 1.254 . S
C91 O107 1.225 1_455 S
C92 C91 1.491 . S
C92 C93 1.392 1_455 S
C92 C97 1.356 . S
C93 C92 1.392 1_655 S
C93 C94 1.368 1_655 S
C93 H116 0.929 . S
C94 C93 1.368 1_455 S
C94 C95 1.386 . S
C94 H117 0.929 . S
C95 C94 1.386 . S
C95 C96 1.373 . S
C96 C95 1.373 . S
C96 C97 1.409 . S
C96 H118 0.931 . S
C97 C92 1.356 . S
C97 C96 1.409 . S
C97 H119 0.930 . S
C98 O108 1.270 . S
C98 O109 1.248 . S
C99 O110 1.267 1_565 S
C99 O111 1.278 . S
O100 Pr80 2.562 1_565 S
O100 C82 1.254 1_565 S
O101 Pr80 2.490 . S
O101 C82 1.225 . S
O102 Pr80 2.695 . S
O102 Pr81 2.436 1_545 S
O102 C89 1.270 1_655 S
O103 Pr80 2.512 1_455 S
O103 C89 1.248 . S
O104 Pr81 2.438 . S
O104 C90 1.267 . S
O105 Pr80 2.437 1_565 S
O105 C90 1.278 . S
O106 Pr81 2.562 1_455 S
O106 C91 1.254 . S
O107 Pr81 2.490 . S
O107 C91 1.225 1_655 S
O108 Pr80 2.436 1_565 S
O108 Pr81 2.695 . S
O108 C98 1.270 . S
O109 Pr81 2.512 . S
O109 C98 1.248 . S
O110 Pr80 2.438 . S
O110 C99 1.267 1_545 S
O111 Pr81 2.437 . S
O111 C99 1.278 . S
H112 C84 0.929 . S
H113 C85 0.929 . S
H114 C87 0.931 . S
H115 C88 0.930 . S
H116 C93 0.929 . S
H117 C94 0.929 . S
H118 C96 0.931 . S
H119 C97 0.930 . S
H120 C128 0.950 . S
H121 C133 0.950 . S
H122 C130 0.950 . S
H123 C132 0.950 . S
H124 C134 0.950 . S
H125 C136 0.950 . S
H126 C138 0.950 . S
H127 C139 0.950 . S
C128 H120 0.950 . S
C128 C129 1.386 1_655 S
C128 C130 1.391 1_565 S
C129 C128 1.386 1_455 S
C129 C133 1.393 1_565 S
C130 H122 0.950 . S
C130 C128 1.391 1_545 S
C130 C131 1.400 1_655 S
C131 C130 1.400 1_455 S
C131 C132 1.398 . S
C131 C137 1.491 1_455 S
C132 H123 0.950 . S
C132 C131 1.398 . S
C132 C133 1.391 . S
C133 H121 0.950 . S
C133 C129 1.393 1_545 S
C133 C132 1.391 . S
C134 H124 0.950 . S
C134 C135 1.386 1_455 S
C134 C136 1.391 . S
C135 C134 1.386 1_655 S
C135 C139 1.393 . S
C136 H125 0.950 . S
C136 C134 1.391 . S
C136 C137 1.400 1_455 S
C137 C131 1.491 1_655 S
C137 C136 1.400 1_655 S
C137 C138 1.398 . S
C138 H126 0.950 . S
C138 C137 1.398 . S
C138 C139 1.391 . S
C139 H127 0.950 . S
C139 C135 1.393 . S
C139 C138 1.391 . S
H140 C148 0.950 . S
H141 C153 0.948 1_565 S
H142 C150 0.950 . S
H143 C152 0.948 . S
H144 C154 0.950 . S
H145 C156 0.950 . S
H146 C158 0.950 . S
H147 C159 0.950 1_655 S
C148 H140 0.950 . S
C148 C149 1.386 . S
C148 C150 1.391 . S
C149 C148 1.386 . S
C149 C153 1.393 . S
C150 H142 0.950 . S
C150 C148 1.391 . S
C150 C151 1.400 . S
C151 C150 1.400 . S
C151 C152 1.397 1_545 S
C151 C157 1.491 . S
C152 H143 0.948 . S
C152 C151 1.397 1_565 S
C152 C153 1.394 1_565 S
C153 H141 0.948 1_545 S
C153 C149 1.393 . S
C153 C152 1.394 1_545 S
C154 H144 0.950 . S
C154 C155 1.386 . S
C154 C156 1.391 . S
C155 C154 1.386 . S
C155 C159 1.393 . S
C156 H145 0.950 . S
C156 C154 1.391 . S
C156 C157 1.400 . S
C157 C151 1.491 . S
C157 C156 1.400 . S
C157 C158 1.398 . S
C158 H146 0.950 . S
C158 C157 1.398 . S
C158 C159 1.391 . S
C159 H147 0.950 1_455 S
C159 C155 1.393 . S
C159 C158 1.391 . S
H160 C168 0.950 . S
H161 C173 0.950 . S
H162 C170 0.950 . S
H163 C172 0.950 . S
H164 C174 0.950 . S
H165 C176 0.950 . S
H166 C178 0.950 . S
H167 C179 0.950 . S
C168 H160 0.950 . S
C168 C169 1.386 . S
C168 C170 1.391 . S
C169 C168 1.386 . S
C169 C173 1.393 . S
C170 H162 0.950 . S
C170 C168 1.391 . S
C170 C171 1.400 . S
C171 C170 1.400 . S
C171 C172 1.398 . S
C171 C177 1.491 . S
C172 H163 0.950 . S
C172 C171 1.398 . S
C172 C173 1.391 . S
C173 H161 0.950 . S
C173 C169 1.393 . S
C173 C172 1.391 . S
C174 H164 0.950 . S
C174 C175 1.386 . S
C174 C176 1.391 . S
C175 C174 1.386 . S
C175 C179 1.393 . S
C176 H165 0.950 . S
C176 C174 1.391 . S
C176 C177 1.400 . S
C177 C171 1.491 . S
C177 C176 1.400 . S
C177 C178 1.398 . S
C178 H166 0.950 . S
C178 C177 1.398 . S
C178 C179 1.391 . S
C179 H167 0.950 . S
C179 C175 1.393 . S
C179 C178 1.391 . S
H180 C188 0.950 . S
H181 C193 0.950 . S
H182 C190 0.950 . S
H183 C192 0.950 . S
H184 C194 0.950 . S
H185 C196 0.950 . S
H186 C198 0.950 . S
H187 C199 0.950 . S
C188 H180 0.950 . S
C188 C189 1.386 . S
C188 C190 1.391 . S
C189 C188 1.386 . S
C189 C193 1.393 . S
C190 H182 0.950 . S
C190 C188 1.391 . S
C190 C191 1.400 . S
C191 C190 1.400 . S
C191 C192 1.398 . S
C191 C197 1.491 . S
C192 H183 0.950 . S
C192 C191 1.398 . S
C192 C193 1.391 . S
C193 H181 0.950 . S
C193 C189 1.393 . S
C193 C192 1.391 . S
C194 H184 0.950 . S
C194 C195 1.386 1_565 S
C194 C196 1.391 1_565 S
C195 C194 1.386 1_545 S
C195 C199 1.393 1_554 S
C196 H185 0.950 . S
C196 C194 1.391 1_545 S
C196 C197 1.400 1_554 S
C197 C191 1.491 . S
C197 C196 1.400 1_556 S
C197 C198 1.398 . S
C198 H186 0.950 . S
C198 C197 1.398 . S
C198 C199 1.391 . S
C199 H187 0.950 . S
C199 C195 1.393 1_556 S
C199 C198 1.391 . S
H200 C208 0.950 . S
H201 C213 0.950 . S
H202 C210 0.950 . S
H203 C212 0.950 . S
H204 C214 0.950 . S
H205 C216 0.950 . S
H206 C218 0.950 . S
H207 C219 0.950 . S
C208 H200 0.950 . S
C208 C209 1.386 . S
C208 C210 1.391 . S
C209 C208 1.386 . S
C209 C213 1.393 . S
C210 H202 0.950 . S
C210 C208 1.391 . S
C210 C211 1.400 . S
C211 C210 1.400 . S
C211 C212 1.398 . S
C211 C217 1.491 . S
C212 H203 0.950 . S
C212 C211 1.398 . S
C212 C213 1.391 . S
C213 H201 0.950 . S
C213 C209 1.393 . S
C213 C212 1.391 . S
C214 H204 0.950 . S
C214 C215 1.386 . S
C214 C216 1.391 . S
C215 C214 1.386 . S
C215 C219 1.393 . S
C216 H205 0.950 . S
C216 C214 1.391 . S
C216 C217 1.400 . S
C217 C211 1.491 . S
C217 C216 1.400 . S
C217 C218 1.398 . S
C218 H206 0.950 . S
C218 C217 1.398 . S
C218 C219 1.391 . S
C219 H207 0.950 . S
C219 C215 1.393 . S
C219 C218 1.391 . S
H220 C228 0.950 . S
H221 C233 0.950 . S
H222 C230 0.950 . S
H223 C232 0.950 . S
H224 C234 0.950 1_545 S
H225 C236 0.950 1_545 S
H226 C238 0.950 . S
H227 C239 0.950 . S
C228 H220 0.950 . S
C228 C229 1.386 . S
C228 C230 1.391 . S
C229 C228 1.386 . S
C229 C233 1.393 1_565 S
C230 H222 0.950 . S
C230 C228 1.391 . S
C230 C231 1.400 . S
C231 C230 1.400 . S
C231 C232 1.398 1_565 S
C231 C237 1.491 . S
C232 H223 0.950 . S
C232 C231 1.398 1_545 S
C232 C233 1.391 . S
C233 H221 0.950 . S
C233 C229 1.393 1_545 S
C233 C232 1.391 . S
C234 H224 0.950 1_565 S
C234 C235 1.386 . S
C234 C236 1.391 . S
C235 C234 1.386 . S
C235 C239 1.393 . S
C236 H225 0.950 1_565 S
C236 C234 1.391 . S
C236 C237 1.400 . S
C237 C231 1.491 . S
C237 C236 1.400 . S
C237 C238 1.398 . S
C238 H226 0.950 . S
C238 C237 1.398 . S
C238 C239 1.391 . S
C239 H227 0.950 . S
C239 C235 1.393 . S
C239 C238 1.391 . S
H240 C248 0.950 . S
H241 C253 0.950 . S
H242 C250 0.950 . S
H243 C252 0.950 . S
H244 C254 0.950 1_455 S
H245 C256 0.950 1_455 S
H246 C258 0.950 1_556 S
H247 C259 0.950 . S
C248 H240 0.950 . S
C248 C249 1.386 . S
C248 C250 1.391 . S
C249 C248 1.386 . S
C249 C253 1.393 1_655 S
C250 H242 0.950 . S
C250 C248 1.391 . S
C250 C251 1.400 . S
C251 C250 1.400 . S
C251 C252 1.398 1_655 S
C251 C257 1.491 1_556 S
C252 H243 0.950 . S
C252 C251 1.398 1_455 S
C252 C253 1.391 . S
C253 H241 0.950 . S
C253 C249 1.393 1_455 S
C253 C252 1.391 . S
C254 H244 0.950 1_655 S
C254 C255 1.386 . S
C254 C256 1.391 . S
C255 C254 1.386 . S
C255 C259 1.393 . S
C256 H245 0.950 1_655 S
C256 C254 1.391 . S
C256 C257 1.400 . S
C257 C251 1.491 1_554 S
C257 C256 1.400 . S
C257 C258 1.398 . S
C258 H246 0.950 1_554 S
C258 C257 1.398 . S
C258 C259 1.391 . S
C259 H247 0.950 . S
C259 C255 1.393 . S
C259 C258 1.391 . S
H260 C268 0.950 . S
H261 C273 0.950 . S
H262 C270 0.950 . S
H263 C272 0.950 . S
H264 C274 0.950 . S
H265 C276 0.950 . S
H266 C278 0.950 . S
H267 C279 0.950 . S
C268 H260 0.950 . S
C268 C269 1.386 . S
C268 C270 1.391 . S
C269 C268 1.386 . S
C269 C273 1.393 . S
C270 H262 0.950 . S
C270 C268 1.391 . S
C270 C271 1.400 . S
C271 C270 1.400 . S
C271 C272 1.398 . S
C271 C277 1.491 . S
C272 H263 0.950 . S
C272 C271 1.398 . S
C272 C273 1.391 . S
C273 H261 0.950 . S
C273 C269 1.393 . S
C273 C272 1.391 . S
C274 H264 0.950 . S
C274 C275 1.386 . S
C274 C276 1.391 . S
C275 C274 1.386 . S
C275 C279 1.393 . S
C276 H265 0.950 . S
C276 C274 1.391 . S
C276 C277 1.400 . S
C277 C271 1.491 . S
C277 C276 1.400 . S
C277 C278 1.398 . S
C278 H266 0.950 . S
C278 C277 1.398 . S
C278 C279 1.391 . S
C279 H267 0.950 . S
C279 C275 1.393 . S
C279 C278 1.391 . S
H280 C288 0.950 . S
H281 C293 0.950 . S
H282 C290 0.950 . S
H283 C292 0.950 . S
H284 C294 0.950 . S
H285 C296 0.950 . S
H286 C298 0.950 1_655 S
H287 C299 0.950 . S
C288 H280 0.950 . S
C288 C289 1.386 . S
C288 C290 1.391 . S
C289 C288 1.386 . S
C289 C293 1.393 . S
C290 H282 0.950 . S
C290 C288 1.391 . S
C290 C291 1.400 . S
C291 C290 1.400 . S
C291 C292 1.398 . S
C291 C297 1.491 . S
C292 H283 0.950 . S
C292 C291 1.398 . S
C292 C293 1.391 . S
C293 H281 0.950 . S
C293 C289 1.393 . S
C293 C292 1.391 . S
C294 H284 0.950 . S
C294 C295 1.386 . S
C294 C296 1.391 . S
C295 C294 1.386 . S
C295 C299 1.393 1_455 S
C296 H285 0.950 . S
C296 C294 1.391 . S
C296 C297 1.400 . S
C297 C291 1.491 . S
C297 C296 1.400 . S
C297 C298 1.398 . S
C298 H286 0.950 1_455 S
C298 C297 1.398 . S
C298 C299 1.391 1_455 S
C299 H287 0.950 . S
C299 C295 1.393 1_655 S
C299 C298 1.391 1_655 S
C129 C9 1.556 1_455 S
C135 C18 1.556 1_655 S
C149 C58 1.621 1_545 S
C155 C49 1.621 1_455 S
C169 C89 1.327 . S
C175 C98 1.327 . S
C189 C86 0.956 . S
C195 C15 0.983 1_545 S
C209 C59 1.940 . S
C215 C6 1.890 . S
C229 C99 2.419 . S
C235 C50 2.418 . S
C249 C90 2.360 . S
C255 C19 2.309 . S
C269 C10 1.747 . S
C275 C55 1.660 . S
C289 C95 0.976 . S
C295 C46 0.969 1_455 S
