# Generated by pormake.
# Topology yfc, (5)-cn, num edge types: 1
# Building blocks:
#     Node 0, Type 0, BuildingBlock: XOMCOT_clean_sbu_0, # of connection points: 5
#     Node 1, Type 0, BuildingBlock: XOMCOT_clean_sbu_0, # of connection points: 5
#     Node 2, Type 0, BuildingBlock: XOMCOT_clean_sbu_0, # of connection points: 5
#     Node 3, Type 0, BuildingBlock: XOMCOT_clean_sbu_0, # of connection points: 5
#     Node 4, Type 0, BuildingBlock: XOMCOT_clean_sbu_0, # of connection points: 5
#     Node 5, Type 0, BuildingBlock: XOMCOT_clean_sbu_0, # of connection points: 5
#     Node 6, Type 0, BuildingBlock: XOMCOT_clean_sbu_0, # of connection points: 5
#     Node 7, Type 0, BuildingBlock: XOMCOT_clean_sbu_0, # of connection points: 5
#     Node 8, Type 0, BuildingBlock: XOMCOT_clean_sbu_0, # of connection points: 5
#     Node 9, Type 0, BuildingBlock: XOMCOT_clean_sbu_0, # of connection points: 5
#     Node 10, Type 0, BuildingBlock: XOMCOT_clean_sbu_0, # of connection points: 5
#     Node 11, Type 0, BuildingBlock: XOMCOT_clean_sbu_0, # of connection points: 5
#     Node 12, Type 0, BuildingBlock: XOMCOT_clean_sbu_0, # of connection points: 5
#     Node 13, Type 0, BuildingBlock: XOMCOT_clean_sbu_0, # of connection points: 5
#     Node 14, Type 0, BuildingBlock: XOMCOT_clean_sbu_0, # of connection points: 5
#     Node 15, Type 0, BuildingBlock: XOMCOT_clean_sbu_0, # of connection points: 5
#     Edge 16, Type (0, 0), BuildingBlock: OJICUG_clean_linker_0, # of connection points: 2
#     Edge 17, Type (0, 0), BuildingBlock: OJICUG_clean_linker_0, # of connection points: 2
#     Edge 18, Type (0, 0), BuildingBlock: OJICUG_clean_linker_0, # of connection points: 2
#     Edge 19, Type (0, 0), BuildingBlock: OJICUG_clean_linker_0, # of connection points: 2
#     Edge 20, Type (0, 0), BuildingBlock: OJICUG_clean_linker_0, # of connection points: 2
#     Edge 21, Type (0, 0), BuildingBlock: OJICUG_clean_linker_0, # of connection points: 2
#     Edge 22, Type (0, 0), BuildingBlock: OJICUG_clean_linker_0, # of connection points: 2
#     Edge 23, Type (0, 0), BuildingBlock: OJICUG_clean_linker_0, # of connection points: 2
#     Edge 24, Type (0, 0), BuildingBlock: OJICUG_clean_linker_0, # of connection points: 2
#     Edge 25, Type (0, 0), BuildingBlock: OJICUG_clean_linker_0, # of connection points: 2
#     Edge 26, Type (0, 0), BuildingBlock: OJICUG_clean_linker_0, # of connection points: 2
#     Edge 27, Type (0, 0), BuildingBlock: OJICUG_clean_linker_0, # of connection points: 2
#     Edge 28, Type (0, 0), BuildingBlock: OJICUG_clean_linker_0, # of connection points: 2
#     Edge 29, Type (0, 0), BuildingBlock: OJICUG_clean_linker_0, # of connection points: 2
#     Edge 30, Type (0, 0), BuildingBlock: OJICUG_clean_linker_0, # of connection points: 2
#     Edge 31, Type (0, 0), BuildingBlock: OJICUG_clean_linker_0, # of connection points: 2
#     Edge 32, Type (0, 0), BuildingBlock: OJICUG_clean_linker_0, # of connection points: 2
#     Edge 33, Type (0, 0), BuildingBlock: OJICUG_clean_linker_0, # of connection points: 2
#     Edge 34, Type (0, 0), BuildingBlock: OJICUG_clean_linker_0, # of connection points: 2
#     Edge 35, Type (0, 0), BuildingBlock: OJICUG_clean_linker_0, # of connection points: 2
#     Edge 36, Type (0, 0), BuildingBlock: OJICUG_clean_linker_0, # of connection points: 2
#     Edge 37, Type (0, 0), BuildingBlock: OJICUG_clean_linker_0, # of connection points: 2
#     Edge 38, Type (0, 0), BuildingBlock: OJICUG_clean_linker_0, # of connection points: 2
#     Edge 39, Type (0, 0), BuildingBlock: OJICUG_clean_linker_0, # of connection points: 2
#     Edge 40, Type (0, 0), BuildingBlock: OJICUG_clean_linker_0, # of connection points: 2
#     Edge 41, Type (0, 0), BuildingBlock: OJICUG_clean_linker_0, # of connection points: 2
#     Edge 42, Type (0, 0), BuildingBlock: OJICUG_clean_linker_0, # of connection points: 2
#     Edge 43, Type (0, 0), BuildingBlock: OJICUG_clean_linker_0, # of connection points: 2
#     Edge 44, Type (0, 0), BuildingBlock: OJICUG_clean_linker_0, # of connection points: 2
#     Edge 45, Type (0, 0), BuildingBlock: OJICUG_clean_linker_0, # of connection points: 2
#     Edge 46, Type (0, 0), BuildingBlock: OJICUG_clean_linker_0, # of connection points: 2
#     Edge 47, Type (0, 0), BuildingBlock: OJICUG_clean_linker_0, # of connection points: 2
#     Edge 48, Type (0, 0), BuildingBlock: OJICUG_clean_linker_0, # of connection points: 2
#     Edge 49, Type (0, 0), BuildingBlock: OJICUG_clean_linker_0, # of connection points: 2
#     Edge 50, Type (0, 0), BuildingBlock: OJICUG_clean_linker_0, # of connection points: 2
#     Edge 51, Type (0, 0), BuildingBlock: OJICUG_clean_linker_0, # of connection points: 2
#     Edge 52, Type (0, 0), BuildingBlock: OJICUG_clean_linker_0, # of connection points: 2
#     Edge 53, Type (0, 0), BuildingBlock: OJICUG_clean_linker_0, # of connection points: 2
#     Edge 54, Type (0, 0), BuildingBlock: OJICUG_clean_linker_0, # of connection points: 2
#     Edge 55, Type (0, 0), BuildingBlock: OJICUG_clean_linker_0, # of connection points: 2
# Relax obj value: 0.559
# Max RMSD: 0.289
# Mean RMSD: 0.271
data_MOF--net-yfc--node1-XOMCOT_clean_sbu_0--edge1-OJICUG_clean_linker_0
_symmetry_space_group_name_H-M    P1
_symmetry_Int_Tables_number       1
_symmetry_cell_setting            triclinic
loop_
_symmetry_equiv_pos_as_xyz
'x, y, z'
_cell_length_a     31.496052
_cell_length_b     31.463976
_cell_length_c     35.766971
_cell_angle_alpha  89.683193
_cell_angle_beta   90.040072
_cell_angle_gamma 89.722393
loop_
_atom_site_label
_atom_site_type_symbol
_atom_site_fract_x
_atom_site_fract_y
_atom_site_fract_z
_atom_type_partial_charge
Co0 Co 0.73189 0.04765 0.22312 0.0
C1 C 0.75202 0.13705 0.20032 0.0
C2 C 0.6889 0.11941 0.18534 0.0
C3 C 0.69455 0.16101 0.17538 0.0
N4 N 0.725 0.10394 0.20097 0.0
N5 N 0.73406 0.17209 0.18506 0.0
H6 H 0.7829 0.13716 0.21341 0.0
H7 H 0.65891 0.10327 0.18379 0.0
C8 C 0.63025 0.03909 0.23104 0.0
O9 O 0.61892 0.00997 0.2069 0.0
N10 N 0.73665 0.99052 0.24446 0.0
C11 C 0.76971 0.96314 0.24183 0.0
C12 C 0.75657 0.92303 0.25257 0.0
C13 C 0.7045 0.96672 0.25811 0.0
N14 N 0.71552 0.92556 0.26278 0.0
C15 C 0.76597 0.00899 0.1581 0.0
C16 C 0.6994 0.02565 0.11022 0.0
C17 C 0.73902 0.01458 0.09498 0.0
C18 C 0.77184 1.00405 0.11967 0.0
C19 C 0.69465 0.02948 0.1491 0.0
N20 N 0.72846 0.02363 0.17258 0.0
H21 H 0.79326 0.00434 0.17575 0.0
H22 H 0.66462 0.04023 0.15946 0.0
H23 H 0.80087 0.97104 0.23139 0.0
H24 H 0.67279 0.97828 0.26294 0.0
O25 O 0.79348 0.05534 0.22557 0.0
O26 O 0.74924 0.07239 0.27067 0.0
O27 O 0.66907 0.04989 0.23495 0.0
C28 C 0.78815 0.07144 0.25865 0.0
H29 H 0.66996 0.18282 0.16606 0.0
H30 H 0.77533 0.89412 0.25196 0.0
H31 H 0.67277 0.03326 0.09216 0.0
H32 H 0.80301 0.99539 0.10934 0.0
Co33 Co 0.46693 0.72472 0.73037 0.0
C34 C 0.37276 0.72375 0.72118 0.0
C35 C 0.40497 0.67988 0.68519 0.0
C36 C 0.36232 0.6779 0.67763 0.0
N37 N 0.41157 0.70874 0.71235 0.0
N38 N 0.34236 0.70533 0.70039 0.0
H39 H 0.36663 0.7488 0.74098 0.0
H40 H 0.42964 0.6622 0.67106 0.0
C41 C 0.47867 0.62386 0.73387 0.0
O42 O 0.50721 0.59665 0.72172 0.0
N43 N 0.52358 0.73787 0.7476 0.0
C44 C 0.55029 0.76722 0.73352 0.0
C45 C 0.59152 0.75537 0.74234 0.0
C46 C 0.54876 0.70937 0.76534 0.0
N47 N 0.59028 0.71874 0.76202 0.0
C48 C 0.46494 0.76918 0.66126 0.0
C49 C 0.51496 0.71538 0.61917 0.0
C50 C 0.49409 0.74954 0.60117 0.0
C51 C 0.47025 0.77733 0.62333 0.0
C52 C 0.50961 0.7088 0.65795 0.0
N53 N 0.48367 0.73495 0.6783 0.0
H54 H 0.44396 0.78992 0.67648 0.0
H55 H 0.52534 0.68205 0.67108 0.0
H56 H 0.54101 0.79249 0.71455 0.0
H57 H 0.53742 0.67966 0.77688 0.0
O58 O 0.44844 0.78216 0.74123 0.0
O59 O 0.44461 0.73004 0.78207 0.0
O60 O 0.48569 0.66323 0.72711 0.0
C61 C 0.43792 0.77024 0.77443 0.0
H62 H 0.34716 0.65845 0.65666 0.0
H63 H 0.62015 0.76984 0.73153 0.0
H64 H 0.53398 0.69311 0.60331 0.0
H65 H 0.45459 0.80491 0.6113 0.0
Co66 Co 0.77459 0.46771 0.24113 0.0
C67 C 0.76404 0.37751 0.216 0.0
C68 C 0.80736 0.38627 0.26181 0.0
C69 C 0.80532 0.34398 0.25456 0.0
N70 N 0.78201 0.40742 0.2376 0.0
N71 N 0.77794 0.33843 0.22619 0.0
H72 H 0.74008 0.38382 0.19496 0.0
H73 H 0.82517 0.40064 0.28425 0.0
C74 C 0.87553 0.48406 0.25074 0.0
O75 O 0.8821 0.52502 0.24696 0.0
N76 N 0.76982 0.52892 0.24657 0.0
C77 C 0.74825 0.55637 0.22439 0.0
C78 C 0.76274 0.59694 0.23083 0.0
C79 C 0.7955 0.55355 0.26748 0.0
N80 N 0.79254 0.595 0.25779 0.0
C81 C 0.7394 0.47596 0.16788 0.0
C82 C 0.81308 0.48153 0.12684 0.0
C83 C 0.77379 0.48577 0.10829 0.0
C84 C 0.7369 0.48245 0.12951 0.0
C85 C 0.81429 0.47586 0.16604 0.0
N86 N 0.77751 0.47391 0.18634 0.0
H87 H 0.7097 0.47383 0.18247 0.0
H88 H 0.84473 0.47303 0.17959 0.0
H89 H 0.72548 0.54769 0.20328 0.0
H90 H 0.81828 0.5411 0.28739 0.0
O91 O 0.71397 0.46113 0.24481 0.0
O92 O 0.75644 0.45794 0.29337 0.0
O93 O 0.83831 0.46839 0.2482 0.0
C94 C 0.71827 0.45266 0.27991 0.0
H95 H 0.82147 0.31886 0.26981 0.0
H96 H 0.75385 0.62536 0.21546 0.0
H97 H 0.84254 0.48321 0.11132 0.0
H98 H 0.70587 0.48431 0.11646 0.0
Co99 Co 0.04914 0.77814 0.72769 0.0
C100 C 0.13714 0.75231 0.70647 0.0
C101 C 0.12947 0.81997 0.70559 0.0
C102 C 0.17074 0.81072 0.69674 0.0
N103 N 0.10798 0.78339 0.7116 0.0
N104 N 0.17523 0.76836 0.69735 0.0
H105 H 0.13155 0.71877 0.71054 0.0
H106 H 0.11692 0.85171 0.70804 0.0
C107 C 0.04232 0.87881 0.73244 0.0
O108 O 0.0237 0.88771 0.70047 0.0
N109 N 0.99025 0.77444 0.7438 0.0
C110 C 0.96981 0.74155 0.76007 0.0
C111 C 0.92882 0.75397 0.76829 0.0
C112 C 0.96103 0.80593 0.74172 0.0
N113 N 0.92346 0.79451 0.75677 0.0
C114 C 0.00718 0.7512 0.66204 0.0
C115 C 0.04439 0.80692 0.61233 0.0
C116 C 0.02398 0.77076 0.59798 0.0
C117 C 1.00366 0.74377 0.62356 0.0
C118 C 0.0475 0.81297 0.65111 0.0
N119 N 0.03042 0.78434 0.67563 0.0
H120 H 0.99405 0.72799 0.6811 0.0
H121 H 0.06607 0.8392 0.66095 0.0
H122 H 0.98348 0.7107 0.76605 0.0
H123 H 0.96729 0.83706 0.73034 0.0
O124 O 0.05505 0.71642 0.72834 0.0
O125 O 0.06857 0.75824 0.77626 0.0
O126 O 0.05032 0.84039 0.742 0.0
C127 C 0.0687 0.72004 0.76258 0.0
H128 H 0.19611 0.83327 0.69223 0.0
H129 H 0.90494 0.73477 0.78197 0.0
H130 H 0.05958 0.82952 0.59381 0.0
H131 H 0.98762 0.71537 0.61425 0.0
Co132 Co 0.73786 0.46917 0.81881 0.0
C133 C 0.74417 0.3751 0.82581 0.0
C134 C 0.70842 0.40219 0.87057 0.0
C135 C 0.70786 0.35884 0.87475 0.0
N136 N 0.73165 0.41265 0.84006 0.0
N137 N 0.73001 0.34214 0.84637 0.0
H138 H 0.76183 0.37128 0.80021 0.0
H139 H 0.69036 0.4238 0.88753 0.0
C140 C 0.63349 0.47445 0.81275 0.0
O141 O 0.61425 0.50926 0.82394 0.0
N142 N 0.74208 0.52647 0.79878 0.0
C143 C 0.77228 0.55509 0.80717 0.0
C144 C 0.75769 0.59521 0.79779 0.0
C145 C 0.71 0.54959 0.78367 0.0
N146 N 0.71829 0.59171 0.78333 0.0
C147 C 0.78026 0.49265 0.88565 0.0
C148 C 0.71033 0.50656 0.93027 0.0
C149 C 0.75052 0.50187 0.94723 0.0
C150 C 0.78576 0.49753 0.92389 0.0
C151 C 0.70624 0.50233 0.89116 0.0
N152 N 0.74078 0.49208 0.86976 0.0
H153 H 0.80843 0.48728 0.8694 0.0
H154 H 0.67493 0.50349 0.87899 0.0
H155 H 0.80148 0.54781 0.8218 0.0
H156 H 0.67975 0.53645 0.77571 0.0
O157 O 0.79823 0.45951 0.81125 0.0
O158 O 0.74983 0.44519 0.76906 0.0
O159 O 0.67399 0.47235 0.81508 0.0
C160 C 0.78984 0.4444 0.77856 0.0
H161 H 0.69027 0.34093 0.89545 0.0
H162 H 0.77395 0.6248 0.80307 0.0
H163 H 0.68209 0.51088 0.9471 0.0
H164 H 0.81763 0.49611 0.93525 0.0
Co165 Co 0.0467 0.73369 0.30508 0.0
C166 C 0.13776 0.73238 0.33107 0.0
C167 C 0.12705 0.70375 0.27771 0.0
C168 C 0.1687 0.69772 0.28708 0.0
N169 N 0.10746 0.72547 0.30517 0.0
N170 N 0.1756 0.71573 0.32061 0.0
H171 H 0.13263 0.74881 0.35697 0.0
H172 H 0.11165 0.69209 0.25277 0.0
C173 C 0.02815 0.63392 0.29404 0.0
O174 O 0.98674 0.6295 0.29439 0.0
N175 N 0.98544 0.73915 0.30325 0.0
C176 C 0.96048 0.7579 0.329 0.0
C177 C 0.91932 0.74443 0.32391 0.0
C178 C 0.95882 0.71624 0.28179 0.0
N179 N 0.91842 0.71777 0.29452 0.0
C180 C 0.05685 0.76517 0.37886 0.0
C181 C 0.02339 0.69813 0.4189 0.0
C182 C 0.03719 0.73439 0.43838 0.0
C183 C 0.0538 0.76802 0.41748 0.0
C184 C 0.02728 0.69639 0.37951 0.0
N185 N 0.04435 0.7297 0.35995 0.0
H186 H 0.07007 0.79207 0.36433 0.0
H187 H 0.01575 0.6688 0.36497 0.0
H188 H 0.97178 0.77726 0.35177 0.0
H189 H 0.9694 0.696 0.25927 0.0
O190 O 0.05283 0.79454 0.30157 0.0
O191 O 0.05223 0.75281 0.2526 0.0
O192 O 0.04558 0.67017 0.29804 0.0
C193 C 0.05834 0.79085 0.26597 0.0
H194 H 0.19226 0.68215 0.26995 0.0
H195 H 0.89261 0.75157 0.34189 0.0
H196 H 0.00995 0.67142 0.4339 0.0
H197 H 0.06396 0.79707 0.43084 0.0
Co198 Co 0.77138 0.04269 0.80234 0.0
C199 C 0.75346 0.13471 0.81964 0.0
C200 C 0.79713 0.124 0.77453 0.0
C201 C 0.79103 0.1667 0.77772 0.0
N202 N 0.77399 0.10376 0.80087 0.0
N203 N 0.76353 0.17327 0.80576 0.0
H204 H 0.73061 0.12975 0.84164 0.0
H205 H 0.81643 0.10854 0.75358 0.0
C206 C 0.87192 0.02953 0.79191 0.0
O207 O 0.87803 0.98831 0.79412 0.0
N208 N 0.77069 0.9814 0.80167 0.0
C209 C 0.75172 0.95527 0.82635 0.0
C210 C 0.76559 0.91437 0.81988 0.0
C211 C 0.79433 0.95604 0.77966 0.0
N212 N 0.79314 0.9149 0.79089 0.0
C213 C 0.73979 0.05352 0.87596 0.0
C214 C 0.80782 0.02157 0.91588 0.0
C215 C 0.77099 0.03411 0.9354 0.0
C216 C 0.7369 0.05009 0.91455 0.0
C217 C 0.80947 0.02561 0.87654 0.0
N218 N 0.77561 0.04177 0.85704 0.0
H219 H 0.71202 0.06479 0.8614 0.0
H220 H 0.83734 0.01456 0.86196 0.0
H221 H 0.73112 0.96545 0.84879 0.0
H222 H 0.81409 0.96812 0.75737 0.0
O223 O 0.7105 0.04409 0.79929 0.0
O224 O 0.75219 0.04611 0.75002 0.0
O225 O 0.83499 0.04603 0.79529 0.0
C226 C 0.71389 0.05 0.76367 0.0
H227 H 0.80541 0.19127 0.76076 0.0
H228 H 0.75737 0.88682 0.83652 0.0
H229 H 0.83495 0.00865 0.93075 0.0
H230 H 0.70722 0.05884 0.92778 0.0
Co231 Co 0.46063 0.78243 0.31102 0.0
C232 C 0.37647 0.75762 0.34183 0.0
C233 C 0.37818 0.82365 0.32696 0.0
C234 C 0.3387 0.81466 0.34053 0.0
N235 N 0.40223 0.78798 0.32785 0.0
N236 N 0.33742 0.77311 0.3495 0.0
H237 H 0.38526 0.72452 0.34486 0.0
H238 H 0.38747 0.85422 0.3162 0.0
C239 C 0.4667 0.8825 0.3068 0.0
O240 O 0.48321 0.89012 0.33977 0.0
N241 N 0.51929 0.77909 0.2943 0.0
C242 C 0.54073 0.74808 0.27643 0.0
C243 C 0.58192 0.76174 0.27019 0.0
C244 C 0.54774 0.81048 0.299 0.0
N245 N 0.58619 0.80124 0.28438 0.0
C246 C 0.50702 0.75956 0.37631 0.0
C247 C 0.46771 0.81465 0.42518 0.0
C248 C 0.49322 0.78183 0.44005 0.0
C249 C 0.51412 0.75497 0.41479 0.0
C250 C 0.46107 0.8178 0.38653 0.0
N251 N 0.48008 0.79003 0.36249 0.0
H252 H 0.52092 0.73643 0.35768 0.0
H253 H 0.43858 0.84107 0.37646 0.0
H254 H 0.52766 0.71779 0.26833 0.0
H255 H 0.54014 0.83988 0.31266 0.0
O256 O 0.45493 0.7206 0.31184 0.0
O257 O 0.44013 0.76164 0.26326 0.0
O258 O 0.45955 0.84456 0.29589 0.0
C259 C 0.43975 0.72376 0.27801 0.0
H260 H 0.31185 0.83629 0.34068 0.0
H261 H 0.60658 0.74385 0.25621 0.0
H262 H 0.45139 0.83675 0.44335 0.0
H263 H 0.53362 0.72877 0.42463 0.0
Co264 Co 0.28855 0.95085 0.86753 0.0
C265 C 0.33766 0.01578 0.82384 0.0
C266 C 0.35454 0.01548 0.88181 0.0
C267 C 0.37936 0.04496 0.86341 0.0
N268 N 0.32754 0.99774 0.85722 0.0
N269 N 0.36882 0.04513 0.82684 0.0
H270 H 0.32367 0.00697 0.79759 0.0
H271 H 0.35704 0.00671 0.911 0.0
C272 C 0.27223 0.00688 0.93694 0.0
O273 O 0.27291 0.04206 0.91699 0.0
N274 N 0.2503 0.90403 0.87768 0.0
C275 C 0.21286 0.89596 0.8609 0.0
C276 C 0.19747 0.85824 0.8736 0.0
C277 C 0.25785 0.86962 0.89938 0.0
N278 N 0.22663 0.84058 0.89646 0.0
C279 C 0.2374 0.98293 0.80754 0.0
C280 C 0.16411 0.99159 0.84908 0.0
C281 C 0.16056 0.98456 0.81039 0.0
C282 C 0.19806 0.9844 0.78937 0.0
C283 C 0.20438 0.99104 0.86624 0.0
N284 N 0.24026 0.98271 0.84574 0.0
H285 H 0.26444 0.97477 0.7907 0.0
H286 H 0.20512 0.98975 0.89632 0.0
H287 H 0.19951 0.91299 0.83764 0.0
H288 H 0.28782 0.86351 0.91327 0.0
O289 O 0.30867 0.92091 0.82298 0.0
O290 O 0.33711 0.91399 0.87902 0.0
O291 O 0.27723 0.97087 0.92091 0.0
C292 C 0.33672 0.90227 0.84425 0.0
H293 H 0.40442 0.06356 0.87587 0.0
H294 H 0.17051 0.84175 0.86181 0.0
H295 H 0.13599 0.99214 0.8665 0.0
H296 H 0.19719 0.97885 0.75952 0.0
Co297 Co 0.55024 0.28768 0.36991 0.0
C298 C 0.48394 0.33541 0.32714 0.0
C299 C 0.47994 0.34749 0.38583 0.0
C300 C 0.4511 0.37331 0.36753 0.0
N301 N 0.49998 0.32281 0.36066 0.0
N302 N 0.4537 0.36591 0.33046 0.0
H303 H 0.49641 0.32531 0.30059 0.0
H304 H 0.48732 0.34858 0.41532 0.0
C305 C 0.49777 0.26636 0.44029 0.0
O306 O 0.46235 0.26353 0.42107 0.0
N307 N 0.60062 0.25369 0.37873 0.0
C308 C 0.61473 0.2203 0.3587 0.0
C309 C 0.65508 0.21032 0.36998 0.0
C310 C 0.63306 0.26379 0.40148 0.0
N311 N 0.66707 0.23835 0.39622 0.0
C312 C 0.52036 0.23483 0.31068 0.0
C313 C 0.52263 0.16042 0.35181 0.0
C314 C 0.52696 0.15808 0.31276 0.0
C315 C 0.52204 0.19577 0.29215 0.0
C316 C 0.52035 0.20023 0.36935 0.0
N317 N 0.52287 0.23704 0.34883 0.0
H318 H 0.52382 0.26294 0.29381 0.0
H319 H 0.52359 0.20077 0.39933 0.0
H320 H 0.59933 0.20705 0.33458 0.0
H321 H 0.63401 0.29267 0.41774 0.0
O322 O 0.57643 0.31075 0.32483 0.0
O323 O 0.58242 0.3389 0.38097 0.0
O324 O 0.53275 0.27442 0.42355 0.0
C325 C 0.5927 0.34019 0.34583 0.0
H326 H 0.43083 0.39671 0.38066 0.0
H327 H 0.67641 0.18891 0.35547 0.0
H328 H 0.52582 0.13206 0.36892 0.0
H329 H 0.52537 0.1958 0.26201 0.0
Co330 Co 0.21694 0.54965 0.8689 0.0
C331 C 0.16962 0.48353 0.82719 0.0
C332 C 0.16032 0.47603 0.88603 0.0
C333 C 0.13512 0.44706 0.86746 0.0
N334 N 0.18298 0.49837 0.86079 0.0
N335 N 0.14088 0.45182 0.83025 0.0
H336 H 0.17872 0.49731 0.80081 0.0
H337 H 0.15995 0.48185 0.91576 0.0
C338 C 0.23886 0.50309 0.94239 0.0
O339 O 0.24658 0.46786 0.92399 0.0
N340 N 0.2496 0.60082 0.87512 0.0
C341 C 0.27969 0.61482 0.85139 0.0
C342 C 0.29243 0.65417 0.86214 0.0
C343 C 0.24263 0.6332 0.8988 0.0
N344 N 0.26806 0.66653 0.89107 0.0
C345 C 0.27314 0.51339 0.81542 0.0
C346 C 0.34462 0.53546 0.85542 0.0
C347 C 0.34644 0.53611 0.81619 0.0
C348 C 0.31126 0.52069 0.79653 0.0
C349 C 0.30583 0.52706 0.87336 0.0
N350 N 0.26953 0.52135 0.85281 0.0
H351 H 0.24548 0.50883 0.79851 0.0
H352 H 0.30398 0.53381 0.90284 0.0
H353 H 0.28854 0.59976 0.82559 0.0
H354 H 0.21588 0.63451 0.91777 0.0
O355 O 0.19766 0.57182 0.82085 0.0
O356 O 0.16506 0.58258 0.87473 0.0
O357 O 0.22692 0.53648 0.92447 0.0
C358 C 0.16666 0.58987 0.83892 0.0
H359 H 0.11261 0.4258 0.88052 0.0
H360 H 0.31257 0.67503 0.84579 0.0
H361 H 0.37144 0.54592 0.87189 0.0
H362 H 0.31113 0.51987 0.76626 0.0
Co363 Co 0.95688 0.22242 0.36418 0.0
C364 C 0.02475 0.17371 0.32582 0.0
C365 C 0.02603 0.1613 0.38461 0.0
C366 C 0.05564 0.13536 0.36738 0.0
N367 N 0.00727 0.18632 0.35861 0.0
N368 N 0.05482 0.14329 0.33026 0.0
H369 H 0.01321 0.18352 0.29875 0.0
H370 H 0.01741 0.16013 0.41383 0.0
C371 C 1.00244 0.24201 0.43802 0.0
O372 O 0.03821 0.24667 0.41959 0.0
N373 N 0.90641 0.25728 0.36778 0.0
C374 C 0.89578 0.28902 0.34408 0.0
C375 C 0.8559 0.30293 0.3522 0.0
C376 C 0.8716 0.25082 0.38888 0.0
N377 N 0.83986 0.27809 0.37954 0.0
C378 C 0.99785 0.27726 0.311 0.0
C379 C 0.98246 0.35022 0.35147 0.0
C380 C 0.98457 0.35329 0.3123 0.0
C381 C 0.99695 0.31673 0.29272 0.0
C382 C 0.98462 0.31008 0.3689 0.0
N383 N 0.98783 0.27371 0.34807 0.0
H384 H 0.99972 0.24965 0.29366 0.0
H385 H 0.97563 0.30845 0.39795 0.0
H386 H 0.91424 0.29959 0.32052 0.0
H387 H 0.86843 0.22433 0.40806 0.0
O388 O 0.9361 0.20248 0.31585 0.0
O389 O 0.92212 0.17184 0.37009 0.0
O390 O 0.9684 0.23293 0.42003 0.0
C391 C 0.91628 0.17263 0.33409 0.0
H392 H 0.07527 0.11165 0.3811 0.0
H393 H 0.8392 0.32764 0.33702 0.0
H394 H 0.97326 0.37739 0.36809 0.0
H395 H 1.00047 0.31756 0.26261 0.0
Co396 Co 0.28611 0.55327 0.17767 0.0
C397 C 0.33608 0.48664 0.21701 0.0
C398 C 0.34518 0.48222 0.15797 0.0
C399 C 0.37132 0.45279 0.1755 0.0
N400 N 0.322 0.50276 0.18401 0.0
N401 N 0.36566 0.45576 0.21278 0.0
H402 H 0.32687 0.49887 0.24387 0.0
H403 H 0.34512 0.48955 0.12842 0.0
C404 C 0.26396 0.50634 0.10534 0.0
O405 O 0.25848 0.47123 0.12478 0.0
N406 N 0.25158 0.60375 0.17313 0.0
C407 C 0.22258 0.61684 0.19824 0.0
C408 C 0.20884 0.65657 0.18841 0.0
C409 C 0.25599 0.63626 0.14888 0.0
N410 N 0.23037 0.66941 0.15775 0.0
C411 C 0.23241 0.5124 0.23166 0.0
C412 C 0.1586 0.52872 0.19231 0.0
C413 C 0.15645 0.52529 0.23142 0.0
C414 C 0.19345 0.51263 0.2504 0.0
C415 C 0.19822 0.52711 0.17438 0.0
N416 N 0.23501 0.52309 0.19466 0.0
H417 H 0.26042 0.51007 0.24857 0.0
H418 H 0.19923 0.53681 0.14543 0.0
H419 H 0.21387 0.59993 0.22342 0.0
H420 H 0.27948 0.6364 0.12686 0.0
O421 O 0.30678 0.57494 0.22548 0.0
O422 O 0.33671 0.58771 0.17082 0.0
O423 O 0.27463 0.54056 0.12225 0.0
C424 C 0.33647 0.59427 0.20671 0.0
H425 H 0.39441 0.43254 0.16188 0.0
H426 H 0.18725 0.67567 0.20472 0.0
H427 H 0.13104 0.53828 0.17616 0.0
H428 H 0.1933 0.5082 0.28045 0.0
Co429 Co 0.95573 0.28741 0.6743 0.0
C430 C 0.02152 0.33655 0.71482 0.0
C431 C 0.02875 0.34452 0.65579 0.0
C432 C 0.05812 0.36979 0.67381 0.0
N433 N 0.00632 0.32265 0.68152 0.0
N434 N 0.05359 0.36473 0.71112 0.0
H435 H 0.0074 0.32883 0.74144 0.0
H436 H 0.02311 0.34395 0.626 0.0
C437 C 1.00244 0.26487 0.60134 0.0
O438 O 0.03759 0.25773 0.62021 0.0
N439 N 0.90536 0.25338 0.66929 0.0
C440 C 0.89155 0.22486 0.69469 0.0
C441 C 0.85252 0.2106 0.68396 0.0
C442 C 0.87391 0.25708 0.64397 0.0
N443 N 0.84096 0.23129 0.6524 0.0
C444 C 0.99574 0.23294 0.72847 0.0
C445 C 0.97867 0.15944 0.68949 0.0
C446 C 0.98127 0.15733 0.72864 0.0
C447 C 0.99418 0.19403 0.74752 0.0
C448 C 0.98128 0.19903 0.6713 0.0
N449 N 0.98554 0.23577 0.6914 0.0
H450 H 0.99863 0.26101 0.74512 0.0
H451 H 0.9721 0.20029 0.64226 0.0
H452 H 0.90752 0.2168 0.72053 0.0
H453 H 0.87411 0.28008 0.62138 0.0
O454 O 0.93343 0.30766 0.72191 0.0
O455 O 0.92137 0.33845 0.66725 0.0
O456 O 0.96881 0.27655 0.61883 0.0
C457 C 0.91436 0.33774 0.70307 0.0
H458 H 0.08036 0.39096 0.66028 0.0
H459 H 0.83261 0.18949 0.70008 0.0
H460 H 0.96895 0.13204 0.67349 0.0
H461 H 0.99784 0.1938 0.77764 0.0
Co462 Co 0.21728 0.95971 0.16952 0.0
C463 C 0.17092 0.02488 0.21369 0.0
C464 C 0.16126 0.03441 0.15502 0.0
C465 C 0.13691 0.06361 0.17428 0.0
N466 N 0.18356 0.01067 0.17969 0.0
N467 N 0.14288 0.05749 0.2113 0.0
H468 H 0.18029 0.01047 0.23982 0.0
H469 H 0.16075 0.02956 0.12514 0.0
C470 C 0.24074 0.01158 0.09863 0.0
O471 O 0.2464 0.04666 0.11772 0.0
N472 N 0.24994 0.90878 0.16017 0.0
C473 C 0.28317 0.89345 0.18001 0.0
C474 C 0.292 0.85297 0.16825 0.0
C475 C 0.23886 0.87718 0.13699 0.0
N476 N 0.2637 0.84256 0.14165 0.0
C477 C 0.27157 0.98909 0.22791 0.0
C478 C 0.34527 0.98875 0.18635 0.0
C479 C 0.34845 0.98526 0.22548 0.0
C480 C 0.31083 0.98883 0.24619 0.0
C481 C 0.30524 0.98864 0.16906 0.0
N482 N 0.26883 0.98603 0.18986 0.0
H483 H 0.24384 0.98544 0.24504 0.0
H484 H 0.30445 0.98442 0.13922 0.0
H485 H 0.29745 0.90851 0.2039 0.0
H486 H 0.21026 0.87758 0.1202 0.0
O487 O 0.1952 0.93351 0.21497 0.0
O488 O 0.16508 0.92836 0.1595 0.0
O489 O 0.22973 0.97734 0.11554 0.0
C490 C 0.16478 0.91787 0.1947 0.0
H491 H 0.11482 0.08608 0.16192 0.0
H492 H 0.31356 0.83085 0.18188 0.0
H493 H 0.37337 0.98703 0.16899 0.0
H494 H 0.31106 0.98602 0.27637 0.0
Co495 Co 0.54964 0.2165 0.67252 0.0
C496 C 0.48226 0.16978 0.71412 0.0
C497 C 0.47362 0.16464 0.65504 0.0
C498 C 0.44424 0.13908 0.67273 0.0
N499 N 0.49701 0.18491 0.68097 0.0
N500 N 0.44973 0.14218 0.71003 0.0
H501 H 0.49732 0.1756 0.74066 0.0
H502 H 0.47908 0.16592 0.62525 0.0
C503 C 0.49922 0.24581 0.60318 0.0
O504 O 0.46508 0.25331 0.62322 0.0
N505 N 0.60233 0.24641 0.66494 0.0
C506 C 0.61999 0.2751 0.68805 0.0
C507 C 0.66013 0.28402 0.67578 0.0
C508 C 0.63261 0.23723 0.63963 0.0
N509 N 0.66816 0.25992 0.6456 0.0
C510 C 0.52119 0.26904 0.73229 0.0
C511 C 0.53575 0.34484 0.69528 0.0
C512 C 0.5384 0.34388 0.73445 0.0
C513 C 0.52756 0.30612 0.75286 0.0
C514 C 0.52928 0.30677 0.67559 0.0
N515 N 0.52584 0.26874 0.69428 0.0
H516 H 0.5193 0.23982 0.74777 0.0
H517 H 0.5342 0.30737 0.64574 0.0
H518 H 0.60642 0.28602 0.71397 0.0
H519 H 0.63019 0.21174 0.61955 0.0
O520 O 0.57375 0.19119 0.71739 0.0
O521 O 0.57862 0.1634 0.66089 0.0
O522 O 0.53321 0.23236 0.61906 0.0
C523 C 0.58849 0.16108 0.69615 0.0
H524 H 0.42167 0.11861 0.65895 0.0
H525 H 0.68348 0.3027 0.69059 0.0
H526 H 0.54388 0.37344 0.67994 0.0
H527 H 0.5287 0.30413 0.7831 0.0
C528 C 0.68751 0.85322 0.25133 0.0
C529 C 0.68682 0.89136 0.27164 0.0
H530 H 0.65584 0.79486 0.23889 0.0
C531 C 0.65501 0.89737 0.29848 0.0
H532 H 0.71157 0.84793 0.23024 0.0
C533 C 0.62354 0.86686 0.30398 0.0
C534 C 0.62226 0.82974 0.28208 0.0
H535 H 0.65412 0.92623 0.31483 0.0
H536 H 0.59977 0.87315 0.32502 0.0
C537 C 0.65544 0.82282 0.25633 0.0
C538 C 0.65496 0.61952 0.75004 0.0
C539 C 0.68806 0.62551 0.77586 0.0
H540 H 0.59798 0.64497 0.72542 0.0
C541 C 0.68935 0.66395 0.79595 0.0
H542 H 0.65323 0.59063 0.73383 0.0
C543 C 0.65781 0.69515 0.79085 0.0
C544 C 0.62433 0.68836 0.7658 0.0
H545 H 0.71389 0.66933 0.81654 0.0
H546 H 0.65878 0.72399 0.8072 0.0
C547 C 0.62343 0.65054 0.74516 0.0
C548 C 0.85969 0.67007 0.3131 0.0
C549 C 0.88462 0.68897 0.28491 0.0
H550 H 0.81117 0.62447 0.32639 0.0
C551 C 0.87777 0.67715 0.24759 0.0
H552 H 0.86473 0.67799 0.34217 0.0
C553 C 0.8466 0.64721 0.23866 0.0
C554 C 0.82246 0.62775 0.26695 0.0
H555 H 0.89666 0.69099 0.22541 0.0
H556 H 0.84212 0.63826 0.20974 0.0
C557 C 0.82931 0.63933 0.30423 0.0
C558 C 0.86237 0.81709 0.79536 0.0
C559 C 0.88724 0.82181 0.76305 0.0
H560 H 0.81356 0.84275 0.82984 0.0
C561 C 0.87789 0.85537 0.73826 0.0
H562 H 0.86902 0.7918 0.81519 0.0
C563 C 0.84557 0.88458 0.74638 0.0
C564 C 0.82209 0.88132 0.77977 0.0
H565 H 0.89601 0.85938 0.71279 0.0
H566 H 0.83971 0.91022 0.72676 0.0
C567 C 0.83036 0.8465 0.8037 0.0
C568 C 0.38812 0.05584 0.75987 0.0
C569 C 0.38834 0.07 0.79715 0.0
H570 H 0.40768 0.06686 0.70335 0.0
C571 C 0.40851 0.10882 0.80496 0.0
H572 H 0.37351 0.02594 0.75265 0.0
C573 C 0.42817 0.1325 0.77651 0.0
C574 C 0.42842 0.11811 0.73929 0.0
H575 H 0.40878 0.12125 0.8331 0.0
H576 H 0.44289 0.16235 0.78374 0.0
C577 C 0.40786 0.07948 0.73141 0.0
C578 C 0.41348 0.42881 0.30683 0.0
C579 C 0.43173 0.38853 0.30058 0.0
H580 H 0.37939 0.48185 0.28431 0.0
C581 C 0.42818 0.37102 0.26452 0.0
H582 H 0.41605 0.44397 0.33378 0.0
C583 C 0.40688 0.39306 0.23575 0.0
C584 C 0.3884 0.43319 0.2422 0.0
H585 H 0.4413 0.33996 0.25854 0.0
H586 H 0.40429 0.37827 0.20861 0.0
C587 C 0.39223 0.45073 0.27818 0.0
C588 C 0.09766 0.42488 0.73425 0.0
C589 C 0.07603 0.38653 0.74098 0.0
H590 H 0.1341 0.47586 0.75657 0.0
C591 C 0.07655 0.37002 0.77771 0.0
H592 H 0.09782 0.43907 0.70664 0.0
C593 C 0.09766 0.39125 0.80671 0.0
C594 C 0.11905 0.42979 0.80008 0.0
H595 H 0.06106 0.34027 0.78416 0.0
H596 H 0.09753 0.37699 0.83429 0.0
C597 C 0.11871 0.44616 0.76325 0.0
C598 C 0.08429 0.14171 0.26581 0.0
C599 C 0.07817 0.12186 0.30078 0.0
H600 H 0.10983 0.13734 0.21046 0.0
C601 C 0.09464 0.08054 0.30595 0.0
H602 H 0.07291 0.17375 0.26085 0.0
C603 C 0.11599 0.05957 0.27687 0.0
C604 C 0.12156 0.07929 0.24173 0.0
H605 H 0.09027 0.06392 0.33221 0.0
H606 H 0.12726 0.02749 0.28179 0.0
C607 C 0.10556 0.12076 0.23677 0.0
C608 C 0.5601 0.07732 0.23875 0.0
C609 C 0.59833 0.06194 0.25412 0.0
H610 H 0.50701 0.12 0.24528 0.0
C611 C 0.60905 0.0737 0.29076 0.0
H612 H 0.55123 0.06909 0.21044 0.0
C613 C 0.58359 0.10203 0.31085 0.0
C614 C 0.54697 0.12014 0.29465 0.0
H615 H 0.63834 0.06239 0.30335 0.0
H616 H 0.59447 0.11215 0.33811 0.0
C617 C 0.53489 0.10656 0.25866 0.0
C618 C 0.39551 0.59908 0.80793 0.0
C619 C 0.38075 0.55917 0.79562 0.0
H620 H 0.43771 0.65157 0.79797 0.0
C621 C 0.39601 0.54354 0.7615 0.0
H622 H 0.38375 0.61258 0.83374 0.0
C623 C 0.42562 0.56655 0.74066 0.0
C624 C 0.44095 0.60599 0.7531 0.0
H625 H 0.38544 0.51313 0.75103 0.0
H626 H 0.43749 0.55276 0.71499 0.0
C627 C 0.42541 0.62222 0.78691 0.0
C628 C 0.93688 0.38152 0.26147 0.0
C629 C 0.96393 0.38988 0.29196 0.0
H630 H 0.8888 0.40489 0.22429 0.0
C631 C 0.9657 0.43195 0.30536 0.0
H632 H 0.93361 0.34965 0.25062 0.0
C633 C 0.93945 0.46399 0.28996 0.0
C634 C 0.91047 0.4544 0.26131 0.0
H635 H 0.98613 0.43972 0.32867 0.0
H636 H 0.93983 0.49545 0.30211 0.0
C637 C 0.91065 0.41322 0.24647 0.0
C638 C 0.10221 0.9307 0.81169 0.0
C639 C 0.12133 0.96561 0.79373 0.0
H640 H 0.06219 0.87625 0.80648 0.0
C641 C 0.1082 0.97575 0.75704 0.0
H642 H 0.11189 0.92133 0.83963 0.0
C643 C 0.07914 0.9498 0.73793 0.0
C644 C 0.06323 0.91268 0.75489 0.0
H645 H 0.12233 1.00233 0.74234 0.0
H646 H 0.07183 0.95699 0.70899 0.0
C647 C 0.07384 0.90452 0.79249 0.0
C648 C 0.59798 0.36721 0.77578 0.0
C649 C 0.56115 0.37784 0.75533 0.0
H650 H 0.64997 0.38912 0.80907 0.0
C651 C 0.5482 0.4206 0.75394 0.0
H652 H 0.60906 0.33457 0.77702 0.0
C653 C 0.57131 0.45183 0.77314 0.0
C654 C 0.60862 0.44116 0.79306 0.0
H655 H 0.52016 0.42978 0.73825 0.0
H656 H 0.56045 0.48452 0.77173 0.0
C657 C 0.62166 0.39848 0.79399 0.0
C658 C 0.07802 0.54354 0.23927 0.0
C659 C 0.12023 0.54493 0.25247 0.0
H660 H 0.01492 0.56999 0.24282 0.0
C661 C 0.12914 0.57111 0.28331 0.0
H662 H 0.06987 0.52369 0.21572 0.0
C663 C 0.09791 0.59727 0.29864 0.0
C664 C 0.05667 0.59819 0.28381 0.0
H665 H 0.16113 0.57405 0.29404 0.0
H666 H 0.10677 0.61883 0.32082 0.0
C667 C 0.04642 0.56976 0.25499 0.0
C668 C 0.93253 0.13151 0.77909 0.0
C669 C 0.96057 0.1217 0.74968 0.0
H670 H 0.88329 0.11001 0.81557 0.0
C671 C 0.96324 0.0791 0.7378 0.0
H672 H 0.92869 0.1639 0.78865 0.0
C673 C 0.93686 0.04776 0.75366 0.0
C674 C 0.90685 0.05869 0.78116 0.0
H675 H 0.98444 0.07036 0.71527 0.0
H676 H 0.93797 0.01577 0.74267 0.0
C677 C 0.90606 0.10057 0.79444 0.0
C678 C 0.39768 0.97718 0.28149 0.0
C679 C 0.38787 0.9681 0.24385 0.0
H680 H 0.43118 0.95756 0.33113 0.0
C681 C 0.4115 0.93605 0.22589 0.0
H682 H 0.38076 1.00202 0.29619 0.0
C683 C 0.4405 0.91097 0.24583 0.0
C684 C 0.44693 0.91716 0.28428 0.0
H685 H 0.405 0.9275 0.19719 0.0
H686 H 0.45559 0.88454 0.23169 0.0
C687 C 0.42697 0.95198 0.30151 0.0
C688 C 0.42972 0.84375 0.79987 0.0
C689 C 0.41552 0.80132 0.79909 0.0
H690 H 0.41638 0.90859 0.81508 0.0
C691 C 0.37592 0.79206 0.81535 0.0
H692 H 0.45975 0.85209 0.78709 0.0
C693 C 0.35058 0.82481 0.83059 0.0
C694 C 0.36453 0.86733 0.8303 0.0
H695 H 0.36342 0.76007 0.81426 0.0
H696 H 0.31954 0.8171 0.84168 0.0
C697 C 0.40477 0.87624 0.81555 0.0
C698 C 0.68657 0.41623 0.33719 0.0
C699 C 0.68388 0.42858 0.2994 0.0
H700 H 0.65923 0.37909 0.38181 0.0
C701 C 0.64967 0.41307 0.27797 0.0
H702 H 0.7127 0.42696 0.35435 0.0
C703 C 0.62009 0.38489 0.29323 0.0
C704 C 0.62293 0.37216 0.33072 0.0
H705 H 0.64654 0.42127 0.24864 0.0
H706 H 0.59507 0.37276 0.27549 0.0
C707 C 0.65601 0.38874 0.35283 0.0
C708 C 0.10373 0.64809 0.76364 0.0
C709 C 0.08871 0.68389 0.78309 0.0
H710 H 0.14075 0.59057 0.76593 0.0
C711 C 0.09699 0.68673 0.82163 0.0
H712 H 0.09818 0.64505 0.73388 0.0
C713 C 0.12059 0.65505 0.8401 0.0
C714 C 0.13732 0.62035 0.82026 0.0
H715 H 0.08608 0.71398 0.83739 0.0
H716 H 0.1274 0.65875 0.8696 0.0
C717 C 0.12828 0.61697 0.78192 0.0
C718 C 0.88923 0.13422 0.27715 0.0
C719 C 0.8857 0.14351 0.31543 0.0
H720 H 0.86206 0.10308 0.22956 0.0
C721 C 0.85111 0.12661 0.3354 0.0
H722 H 0.91543 0.14676 0.26095 0.0
C723 C 0.81995 0.1024 0.31724 0.0
C724 C 0.82321 0.09344 0.27886 0.0
H725 H 0.84722 0.13346 0.36485 0.0
H726 H 0.79298 0.09115 0.33317 0.0
C727 C 0.85871 0.10898 0.25922 0.0
C728 C 0.40051 0.65399 0.28023 0.0
C729 C 0.41762 0.68781 0.25921 0.0
H730 H 0.36093 0.59842 0.28041 0.0
C731 C 0.40943 0.68917 0.22054 0.0
H732 H 0.40565 0.65222 0.31014 0.0
C733 C 0.38449 0.65789 0.20342 0.0
C734 C 0.36613 0.62495 0.22463 0.0
H735 H 0.42173 0.71491 0.20354 0.0
H736 H 0.37827 0.66045 0.1737 0.0
C737 C 0.37464 0.62327 0.26324 0.0
C738 C 0.85928 0.40502 0.77665 0.0
C739 C 0.82309 0.42034 0.75752 0.0
H740 H 0.91578 0.36657 0.77481 0.0
C741 C 0.81818 0.40958 0.71966 0.0
H742 H 0.86401 0.4122 0.80594 0.0
C743 C 0.84868 0.38408 0.70153 0.0
C744 C 0.88405 0.36775 0.72117 0.0
H745 H 0.79063 0.42053 0.70418 0.0
H746 H 0.84379 0.37588 0.67247 0.0
C747 C 0.88898 0.37864 0.7589 0.0
C748 C 0.09499 0.86122 0.26518 0.0
C749 C 0.07976 0.82601 0.24499 0.0
H750 H 0.134 0.91687 0.26544 0.0
C751 C 0.09025 0.82315 0.20682 0.0
H752 H 0.08795 0.86471 0.29464 0.0
C753 C 0.11604 0.85428 0.18974 0.0
C754 C 0.13307 0.88794 0.2108 0.0
H755 H 0.07962 0.79634 0.19049 0.0
H756 H 0.12434 0.85086 0.16052 0.0
C757 C 0.12169 0.89125 0.24852 0.0
C758 C 0.64458 0.08858 0.76488 0.0
C759 C 0.67845 0.07194 0.74359 0.0
H760 H 0.59055 0.13007 0.76681 0.0
C761 C 0.68038 0.08233 0.70533 0.0
H762 H 0.64206 0.08193 0.79453 0.0
C763 C 0.6497 0.10955 0.68917 0.0
C764 C 0.61742 0.12781 0.71125 0.0
H765 H 0.70625 0.07064 0.68826 0.0
H766 H 0.6525 0.11801 0.65988 0.0
C767 C 0.61497 0.11653 0.74909 0.0
C768 C 0.76066 0.28717 0.17674 0.0
C769 C 0.76285 0.29794 0.21469 0.0
H770 H 0.75007 0.23676 0.13733 0.0
C771 C 0.75445 0.2672 0.24218 0.0
H772 H 0.76734 0.31065 0.15532 0.0
C773 C 0.74595 0.22575 0.23214 0.0
C774 C 0.74521 0.21442 0.19443 0.0
H775 H 0.75523 0.27524 0.27157 0.0
H776 H 0.73955 0.20239 0.25375 0.0
C777 C 0.75155 0.2453 0.16659 0.0
C778 C 0.27673 0.72437 0.73324 0.0
C779 C 0.29838 0.71655 0.69971 0.0
H780 H 0.21886 0.74635 0.75836 0.0
C781 C 0.27744 0.72244 0.66538 0.0
H782 H 0.29246 0.71988 0.75992 0.0
C783 C 0.23591 0.73789 0.66458 0.0
C784 C 0.21483 0.74659 0.69806 0.0
H785 H 0.29392 0.71708 0.63926 0.0
H786 H 0.22065 0.74443 0.63801 0.0
C787 C 0.23495 0.73905 0.7324 0.0
C788 C 0.74751 0.22514 0.85479 0.0
C789 C 0.74815 0.21388 0.81694 0.0
H790 H 0.74166 0.27626 0.89394 0.0
C791 C 0.73867 0.24432 0.78942 0.0
H792 H 0.75512 0.20189 0.87624 0.0
C793 C 0.73135 0.28622 0.79932 0.0
C794 C 0.73339 0.29827 0.83691 0.0
H795 H 0.7384 0.23584 0.76011 0.0
H796 H 0.72493 0.30941 0.77753 0.0
C797 C 0.74012 0.26735 0.86478 0.0
C798 C 0.26379 0.76902 0.37088 0.0
C799 C 0.29884 0.74966 0.35366 0.0
H800 H 0.19653 0.77367 0.37374 0.0
C801 C 0.29286 0.71229 0.3332 0.0
H802 H 0.26792 0.79737 0.38749 0.0
C803 C 0.25192 0.69822 0.32558 0.0
C804 C 0.21644 0.72172 0.33785 0.0
H805 H 0.31935 0.69646 0.31983 0.0
H806 H 0.24829 0.67094 0.30762 0.0
C807 C 0.22283 0.75531 0.36293 0.0
C808 C 0.24047 0.73074 0.8625 0.0
C809 C 0.25493 0.70965 0.89462 0.0
H810 H 0.22152 0.78907 0.83788 0.0
C811 C 0.25794 0.7314 0.92862 0.0
H812 H 0.23783 0.71425 0.83608 0.0
C813 C 0.24779 0.77482 0.92989 0.0
C814 C 0.23412 0.79583 0.89727 0.0
H815 H 0.26907 0.71515 0.95354 0.0
H816 H 0.25099 0.79205 0.95585 0.0
C817 C 0.23064 0.77334 0.86369 0.0
C818 C 0.78187 0.24919 0.41897 0.0
C819 C 0.79545 0.27366 0.38812 0.0
H820 H 0.72896 0.21838 0.44579 0.0
C821 C 0.76478 0.29011 0.36321 0.0
H822 H 0.80449 0.23662 0.43899 0.0
C823 C 0.72233 0.28048 0.36774 0.0
C824 C 0.70936 0.25396 0.39697 0.0
H825 H 0.77325 0.3084 0.33873 0.0
H826 H 0.69961 0.29158 0.34705 0.0
C827 C 0.73891 0.23902 0.42316 0.0
C828 C 0.20407 0.74343 0.15755 0.0
C829 C 0.23339 0.71281 0.14484 0.0
H830 H 0.1918 0.80927 0.16695 0.0
C831 C 0.26889 0.72663 0.12415 0.0
H832 H 0.17574 0.73451 0.17265 0.0
C833 C 0.2773 0.76997 0.12023 0.0
C834 C 0.25001 0.79991 0.13625 0.0
H835 H 0.29194 0.70439 0.11331 0.0
H836 H 0.30637 0.78012 0.10681 0.0
C837 C 0.21262 0.78647 0.15366 0.0
C838 C 0.73843 0.28026 0.62333 0.0
C839 C 0.71021 0.24848 0.63466 0.0
H840 H 0.80306 0.29947 0.61927 0.0
C841 C 0.72585 0.2081 0.64419 0.0
H842 H 0.72664 0.31167 0.61623 0.0
C843 C 0.76946 0.20097 0.6462 0.0
C844 C 0.79801 0.23426 0.63894 0.0
H845 H 0.70445 0.18348 0.65374 0.0
H846 H 0.78072 0.17047 0.65641 0.0
C847 C 0.78212 0.27313 0.62512 0.0
C848 C 0.74326 0.06085 0.99691 0.0
C849 C 0.76623 0.02987 0.97691 0.0
H850 H 0.71623 0.07991 0.04908 0.0
C851 C 0.78105 0.99378 0.99644 0.0
H852 H 0.73221 0.08963 0.98321 0.0
C853 C 0.77203 0.9884 0.03467 0.0
C854 C 0.74765 0.01877 0.0541 0.0
H855 H 0.79851 0.96912 0.98198 0.0
H856 H 0.7835 0.96011 0.04889 0.0
C857 C 0.73382 0.05522 0.03476 0.0
C858 C 0.53136 0.75772 0.49938 0.0
C859 C 0.49451 0.77325 0.48132 0.0
H860 H 0.56049 0.73815 0.55119 0.0
C861 C 0.45765 0.77892 0.50288 0.0
H862 H 0.56039 0.7528 0.48376 0.0
C863 C 0.45768 0.77031 0.5412 0.0
C864 C 0.49465 0.75594 0.55961 0.0
H865 H 0.42819 0.78929 0.49006 0.0
H866 H 0.42827 0.77467 0.5564 0.0
C867 C 0.53142 0.74915 0.53806 0.0
C868 C 0.79301 0.46643 0.04231 0.0
C869 C 0.77003 0.49215 0.06704 0.0
H870 H 0.80367 0.44818 0.98565 0.0
C871 C 0.74039 0.52146 0.05211 0.0
H872 H 0.81525 0.44289 0.05287 0.0
C873 C 0.73369 0.52471 1.0134 0.0
C874 C 0.75654 0.49876 0.98865 0.0
H875 H 0.72218 0.54184 0.07047 0.0
H876 H 0.71096 0.54778 1.00288 0.0
C877 C 0.78617 0.46949 1.00372 0.0
C878 C 0.0684 0.75752 0.49957 0.0
C879 C 0.03452 0.73891 0.47998 0.0
H880 H 0.09183 0.78173 0.55124 0.0
C881 C 0.99732 0.72907 0.49991 0.0
H882 H 0.09786 0.76487 0.48537 0.0
C883 C 0.99362 0.73926 0.5381 0.0
C884 C 0.02708 0.75949 0.55727 0.0
H885 H 0.9705 0.71504 0.48569 0.0
H886 H 0.96411 0.73227 0.5523 0.0
C887 C 0.06476 0.76765 0.53744 0.0
C888 C 0.24994 0.97196 0.03775 0.0
C889 C 0.24879 0.01077 0.05722 0.0
H890 H 0.25834 0.94021 0.98533 0.0
C891 C 0.25562 0.04844 0.03662 0.0
H892 H 0.24507 0.94219 0.05245 0.0
C893 C 0.26302 0.04732 0.99777 0.0
C894 C 0.26423 0.00845 0.97835 0.0
H895 H 0.25503 0.07896 0.05047 0.0
H896 H 0.26799 0.077 0.98298 0.0
C897 C 0.25769 0.97081 0.99905 0.0
C898 C 0.53648 0.25135 0.54083 0.0
C899 C 0.49845 0.2516 0.56153 0.0
H900 H 0.56616 0.25592 0.48703 0.0
C901 C 0.45996 0.25654 0.54181 0.0
H902 H 0.56678 0.24768 0.55486 0.0
C903 C 0.45956 0.26078 0.50258 0.0
C904 C 0.49767 0.26075 0.48196 0.0
H905 H 0.43 0.25672 0.55665 0.0
H906 H 0.42934 0.26445 0.48844 0.0
C907 C 0.53612 0.25611 0.50176 0.0
C908 C 0.25368 0.54397 0.04269 0.0
C909 C 0.25751 0.506 0.0636 0.0
H910 H 0.24432 0.57302 0.98864 0.0
C911 C 0.25486 0.46728 0.04411 0.0
H912 H 0.25539 0.57444 0.05654 0.0
C913 C 0.249 0.46646 1.00509 0.0
C914 C 0.2449 0.50433 0.98416 0.0
H915 H 0.25769 0.43733 0.05898 0.0
H916 H 0.24739 0.43593 0.99134 0.0
C917 C 0.24715 0.54314 1.00364 0.0
C918 C 0.96351 0.25145 0.50001 0.0
C919 C 1.00184 0.24771 0.47987 0.0
H920 H 0.93341 0.26019 0.55352 0.0
C921 C 0.0401 0.24973 0.50028 0.0
H922 H 0.93336 0.25016 0.48549 0.0
C923 C 0.04012 0.25502 0.53934 0.0
C924 C 1.0019 0.25911 0.55951 0.0
H925 H 0.07032 0.24692 0.48607 0.0
H926 H 0.07035 0.25624 0.55374 0.0
C927 C 0.96355 0.25736 0.53915 0.0
loop_
_geom_bond_atom_site_label_1
_geom_bond_atom_site_label_2
_geom_bond_distance
_geom_bond_site_symmetry_2
_ccdc_geom_bond_type
Co0 N4 2.148 . S
Co0 N10 2.128 1_545 S
Co0 N20 2.194 . S
Co0 O25 2.351 . S
Co0 O26 2.155 . S
Co0 O27 2.096 . S
C1 N4 1.301 . S
C1 N5 1.328 . S
C1 H6 0.930 . S
C2 C3 1.333 . S
C2 N4 1.317 . S
C2 H7 0.930 . S
C3 C2 1.333 . S
C3 N5 1.350 . S
C3 H29 0.931 . S
N4 Co0 2.148 . S
N4 C1 1.301 . S
N4 C2 1.317 . S
N5 C1 1.328 . S
N5 C3 1.350 . S
H6 C1 0.930 . S
H7 C2 0.930 . S
C8 O9 1.224 . S
C8 O27 1.247 . S
O9 C8 1.224 . S
N10 Co0 2.128 1_565 S
N10 C11 1.355 . S
N10 C13 1.311 . S
C11 N10 1.355 . S
C11 C12 1.363 . S
C11 H23 0.929 . S
C12 C11 1.363 . S
C12 N14 1.375 . S
C12 H30 0.931 . S
C13 N10 1.311 . S
C13 N14 1.347 . S
C13 H24 0.929 . S
N14 C12 1.375 . S
N14 C13 1.347 . S
C15 C18 1.365 . S
C15 N20 1.328 . S
C15 H21 0.929 . S
C16 C17 1.362 . S
C16 C19 1.378 . S
C16 H31 0.929 . S
C17 C16 1.362 . S
C17 C18 1.366 . S
C18 C15 1.365 . S
C18 C17 1.366 . S
C18 H32 0.930 . S
C19 C16 1.378 . S
C19 N20 1.315 . S
C19 H22 0.930 . S
N20 Co0 2.194 . S
N20 C15 1.328 . S
N20 C19 1.315 . S
H21 C15 0.929 . S
H22 C19 0.930 . S
H23 C11 0.929 . S
H24 C13 0.929 . S
O25 Co0 2.351 . S
O25 C28 1.244 . S
O26 Co0 2.155 . S
O26 C28 1.240 . S
O27 Co0 2.096 . S
O27 C8 1.247 . S
C28 O25 1.244 . S
C28 O26 1.240 . S
H29 C3 0.931 . S
H30 C12 0.931 . S
H31 C16 0.929 . S
H32 C18 0.930 . S
Co33 N37 2.148 . S
Co33 N43 2.128 . S
Co33 N53 2.194 . S
Co33 O58 2.351 . S
Co33 O59 2.155 . S
Co33 O60 2.096 . S
C34 N37 1.301 . S
C34 N38 1.328 . S
C34 H39 0.930 . S
C35 C36 1.333 . S
C35 N37 1.317 . S
C35 H40 0.930 . S
C36 C35 1.333 . S
C36 N38 1.350 . S
C36 H62 0.931 . S
N37 Co33 2.148 . S
N37 C34 1.301 . S
N37 C35 1.317 . S
N38 C34 1.328 . S
N38 C36 1.350 . S
H39 C34 0.930 . S
H40 C35 0.930 . S
C41 O42 1.224 . S
C41 O60 1.247 . S
O42 C41 1.224 . S
N43 Co33 2.128 . S
N43 C44 1.355 . S
N43 C46 1.311 . S
C44 N43 1.355 . S
C44 C45 1.363 . S
C44 H56 0.929 . S
C45 C44 1.363 . S
C45 N47 1.375 . S
C45 H63 0.931 . S
C46 N43 1.311 . S
C46 N47 1.347 . S
C46 H57 0.929 . S
N47 C45 1.375 . S
N47 C46 1.347 . S
C48 C51 1.365 . S
C48 N53 1.328 . S
C48 H54 0.929 . S
C49 C50 1.362 . S
C49 C52 1.378 . S
C49 H64 0.929 . S
C50 C49 1.362 . S
C50 C51 1.366 . S
C51 C48 1.365 . S
C51 C50 1.366 . S
C51 H65 0.930 . S
C52 C49 1.378 . S
C52 N53 1.315 . S
C52 H55 0.930 . S
N53 Co33 2.194 . S
N53 C48 1.328 . S
N53 C52 1.315 . S
H54 C48 0.929 . S
H55 C52 0.930 . S
H56 C44 0.929 . S
H57 C46 0.929 . S
O58 Co33 2.351 . S
O58 C61 1.244 . S
O59 Co33 2.155 . S
O59 C61 1.240 . S
O60 Co33 2.096 . S
O60 C41 1.247 . S
C61 O58 1.244 . S
C61 O59 1.240 . S
H62 C36 0.931 . S
H63 C45 0.931 . S
H64 C49 0.929 . S
H65 C51 0.930 . S
Co66 N70 2.148 . S
Co66 N76 2.128 . S
Co66 N86 2.194 . S
Co66 O91 2.351 . S
Co66 O92 2.155 . S
Co66 O93 2.096 . S
C67 N70 1.301 . S
C67 N71 1.328 . S
C67 H72 0.930 . S
C68 C69 1.333 . S
C68 N70 1.317 . S
C68 H73 0.930 . S
C69 C68 1.333 . S
C69 N71 1.350 . S
C69 H95 0.931 . S
N70 Co66 2.148 . S
N70 C67 1.301 . S
N70 C68 1.317 . S
N71 C67 1.328 . S
N71 C69 1.350 . S
H72 C67 0.930 . S
H73 C68 0.930 . S
C74 O75 1.224 . S
C74 O93 1.247 . S
O75 C74 1.224 . S
N76 Co66 2.128 . S
N76 C77 1.355 . S
N76 C79 1.311 . S
C77 N76 1.355 . S
C77 C78 1.363 . S
C77 H89 0.929 . S
C78 C77 1.363 . S
C78 N80 1.375 . S
C78 H96 0.931 . S
C79 N76 1.311 . S
C79 N80 1.347 . S
C79 H90 0.929 . S
N80 C78 1.375 . S
N80 C79 1.347 . S
C81 C84 1.365 . S
C81 N86 1.328 . S
C81 H87 0.929 . S
C82 C83 1.362 . S
C82 C85 1.378 . S
C82 H97 0.929 . S
C83 C82 1.362 . S
C83 C84 1.366 . S
C84 C81 1.365 . S
C84 C83 1.366 . S
C84 H98 0.930 . S
C85 C82 1.378 . S
C85 N86 1.315 . S
C85 H88 0.930 . S
N86 Co66 2.194 . S
N86 C81 1.328 . S
N86 C85 1.315 . S
H87 C81 0.929 . S
H88 C85 0.930 . S
H89 C77 0.929 . S
H90 C79 0.929 . S
O91 Co66 2.351 . S
O91 C94 1.244 . S
O92 Co66 2.155 . S
O92 C94 1.240 . S
O93 Co66 2.096 . S
O93 C74 1.247 . S
C94 O91 1.244 . S
C94 O92 1.240 . S
H95 C69 0.931 . S
H96 C78 0.931 . S
H97 C82 0.929 . S
H98 C84 0.930 . S
Co99 N103 2.148 . S
Co99 N109 2.128 1_455 S
Co99 N119 2.194 . S
Co99 O124 2.351 . S
Co99 O125 2.155 . S
Co99 O126 2.096 . S
C100 N103 1.301 . S
C100 N104 1.328 . S
C100 H105 0.930 . S
C101 C102 1.333 . S
C101 N103 1.317 . S
C101 H106 0.930 . S
C102 C101 1.333 . S
C102 N104 1.350 . S
C102 H128 0.931 . S
N103 Co99 2.148 . S
N103 C100 1.301 . S
N103 C101 1.317 . S
N104 C100 1.328 . S
N104 C102 1.350 . S
H105 C100 0.930 . S
H106 C101 0.930 . S
C107 O108 1.224 . S
C107 O126 1.247 . S
O108 C107 1.224 . S
N109 Co99 2.128 1_655 S
N109 C110 1.355 . S
N109 C112 1.311 . S
C110 N109 1.355 . S
C110 C111 1.363 . S
C110 H122 0.929 . S
C111 C110 1.363 . S
C111 N113 1.375 . S
C111 H129 0.931 . S
C112 N109 1.311 . S
C112 N113 1.347 . S
C112 H123 0.929 . S
N113 C111 1.375 . S
N113 C112 1.347 . S
C114 C117 1.365 . S
C114 N119 1.328 . S
C114 H120 0.929 . S
C115 C116 1.362 . S
C115 C118 1.378 . S
C115 H130 0.929 . S
C116 C115 1.362 . S
C116 C117 1.366 . S
C117 C114 1.365 . S
C117 C116 1.366 . S
C117 H131 0.930 . S
C118 C115 1.378 . S
C118 N119 1.315 . S
C118 H121 0.930 . S
N119 Co99 2.194 . S
N119 C114 1.328 . S
N119 C118 1.315 . S
H120 C114 0.929 . S
H121 C118 0.930 . S
H122 C110 0.929 . S
H123 C112 0.929 . S
O124 Co99 2.351 . S
O124 C127 1.244 . S
O125 Co99 2.155 . S
O125 C127 1.240 . S
O126 Co99 2.096 . S
O126 C107 1.247 . S
C127 O124 1.244 . S
C127 O125 1.240 . S
H128 C102 0.931 . S
H129 C111 0.931 . S
H130 C115 0.929 . S
H131 C117 0.930 . S
Co132 N136 2.148 . S
Co132 N142 2.128 . S
Co132 N152 2.194 . S
Co132 O157 2.351 . S
Co132 O158 2.155 . S
Co132 O159 2.096 . S
C133 N136 1.301 . S
C133 N137 1.328 . S
C133 H138 0.930 . S
C134 C135 1.333 . S
C134 N136 1.317 . S
C134 H139 0.930 . S
C135 C134 1.333 . S
C135 N137 1.350 . S
C135 H161 0.931 . S
N136 Co132 2.148 . S
N136 C133 1.301 . S
N136 C134 1.317 . S
N137 C133 1.328 . S
N137 C135 1.350 . S
H138 C133 0.930 . S
H139 C134 0.930 . S
C140 O141 1.224 . S
C140 O159 1.247 . S
O141 C140 1.224 . S
N142 Co132 2.128 . S
N142 C143 1.355 . S
N142 C145 1.311 . S
C143 N142 1.355 . S
C143 C144 1.363 . S
C143 H155 0.929 . S
C144 C143 1.363 . S
C144 N146 1.375 . S
C144 H162 0.931 . S
C145 N142 1.311 . S
C145 N146 1.347 . S
C145 H156 0.929 . S
N146 C144 1.375 . S
N146 C145 1.347 . S
C147 C150 1.365 . S
C147 N152 1.328 . S
C147 H153 0.929 . S
C148 C149 1.362 . S
C148 C151 1.378 . S
C148 H163 0.929 . S
C149 C148 1.362 . S
C149 C150 1.366 . S
C150 C147 1.365 . S
C150 C149 1.366 . S
C150 H164 0.930 . S
C151 C148 1.378 . S
C151 N152 1.315 . S
C151 H154 0.930 . S
N152 Co132 2.194 . S
N152 C147 1.328 . S
N152 C151 1.315 . S
H153 C147 0.929 . S
H154 C151 0.930 . S
H155 C143 0.929 . S
H156 C145 0.929 . S
O157 Co132 2.351 . S
O157 C160 1.244 . S
O158 Co132 2.155 . S
O158 C160 1.240 . S
O159 Co132 2.096 . S
O159 C140 1.247 . S
C160 O157 1.244 . S
C160 O158 1.240 . S
H161 C135 0.931 . S
H162 C144 0.931 . S
H163 C148 0.929 . S
H164 C150 0.930 . S
Co165 N169 2.148 . S
Co165 N175 2.128 1_455 S
Co165 N185 2.194 . S
Co165 O190 2.351 . S
Co165 O191 2.155 . S
Co165 O192 2.096 . S
C166 N169 1.301 . S
C166 N170 1.328 . S
C166 H171 0.930 . S
C167 C168 1.333 . S
C167 N169 1.317 . S
C167 H172 0.930 . S
C168 C167 1.333 . S
C168 N170 1.350 . S
C168 H194 0.931 . S
N169 Co165 2.148 . S
N169 C166 1.301 . S
N169 C167 1.317 . S
N170 C166 1.328 . S
N170 C168 1.350 . S
H171 C166 0.930 . S
H172 C167 0.930 . S
C173 O174 1.224 . S
C173 O192 1.247 . S
O174 C173 1.224 . S
N175 Co165 2.128 1_655 S
N175 C176 1.355 . S
N175 C178 1.311 . S
C176 N175 1.355 . S
C176 C177 1.363 . S
C176 H188 0.929 . S
C177 C176 1.363 . S
C177 N179 1.375 . S
C177 H195 0.931 . S
C178 N175 1.311 . S
C178 N179 1.347 . S
C178 H189 0.929 . S
N179 C177 1.375 . S
N179 C178 1.347 . S
C180 C183 1.365 . S
C180 N185 1.328 . S
C180 H186 0.929 . S
C181 C182 1.362 . S
C181 C184 1.378 . S
C181 H196 0.929 . S
C182 C181 1.362 . S
C182 C183 1.366 . S
C183 C180 1.365 . S
C183 C182 1.366 . S
C183 H197 0.930 . S
C184 C181 1.378 . S
C184 N185 1.315 . S
C184 H187 0.930 . S
N185 Co165 2.194 . S
N185 C180 1.328 . S
N185 C184 1.315 . S
H186 C180 0.929 . S
H187 C184 0.930 . S
H188 C176 0.929 . S
H189 C178 0.929 . S
O190 Co165 2.351 . S
O190 C193 1.244 . S
O191 Co165 2.155 . S
O191 C193 1.240 . S
O192 Co165 2.096 . S
O192 C173 1.247 . S
C193 O190 1.244 . S
C193 O191 1.240 . S
H194 C168 0.931 . S
H195 C177 0.931 . S
H196 C181 0.929 . S
H197 C183 0.930 . S
Co198 N202 2.148 . S
Co198 N208 2.128 1_545 S
Co198 N218 2.194 . S
Co198 O223 2.351 . S
Co198 O224 2.155 . S
Co198 O225 2.096 . S
C199 N202 1.301 . S
C199 N203 1.328 . S
C199 H204 0.930 . S
C200 C201 1.333 . S
C200 N202 1.317 . S
C200 H205 0.930 . S
C201 C200 1.333 . S
C201 N203 1.350 . S
C201 H227 0.931 . S
N202 Co198 2.148 . S
N202 C199 1.301 . S
N202 C200 1.317 . S
N203 C199 1.328 . S
N203 C201 1.350 . S
H204 C199 0.930 . S
H205 C200 0.930 . S
C206 O207 1.224 . S
C206 O225 1.247 . S
O207 C206 1.224 . S
N208 Co198 2.128 1_565 S
N208 C209 1.355 . S
N208 C211 1.311 . S
C209 N208 1.355 . S
C209 C210 1.363 . S
C209 H221 0.929 . S
C210 C209 1.363 . S
C210 N212 1.375 . S
C210 H228 0.931 . S
C211 N208 1.311 . S
C211 N212 1.347 . S
C211 H222 0.929 . S
N212 C210 1.375 . S
N212 C211 1.347 . S
C213 C216 1.365 . S
C213 N218 1.328 . S
C213 H219 0.929 . S
C214 C215 1.362 . S
C214 C217 1.378 . S
C214 H229 0.929 . S
C215 C214 1.362 . S
C215 C216 1.366 . S
C216 C213 1.365 . S
C216 C215 1.366 . S
C216 H230 0.930 . S
C217 C214 1.378 . S
C217 N218 1.315 . S
C217 H220 0.930 . S
N218 Co198 2.194 . S
N218 C213 1.328 . S
N218 C217 1.315 . S
H219 C213 0.929 . S
H220 C217 0.930 . S
H221 C209 0.929 . S
H222 C211 0.929 . S
O223 Co198 2.351 . S
O223 C226 1.244 . S
O224 Co198 2.155 . S
O224 C226 1.240 . S
O225 Co198 2.096 . S
O225 C206 1.247 . S
C226 O223 1.244 . S
C226 O224 1.240 . S
H227 C201 0.931 . S
H228 C210 0.931 . S
H229 C214 0.929 . S
H230 C216 0.930 . S
Co231 N235 2.148 . S
Co231 N241 2.128 . S
Co231 N251 2.194 . S
Co231 O256 2.351 . S
Co231 O257 2.155 . S
Co231 O258 2.096 . S
C232 N235 1.301 . S
C232 N236 1.328 . S
C232 H237 0.930 . S
C233 C234 1.333 . S
C233 N235 1.317 . S
C233 H238 0.930 . S
C234 C233 1.333 . S
C234 N236 1.350 . S
C234 H260 0.931 . S
N235 Co231 2.148 . S
N235 C232 1.301 . S
N235 C233 1.317 . S
N236 C232 1.328 . S
N236 C234 1.350 . S
H237 C232 0.930 . S
H238 C233 0.930 . S
C239 O240 1.224 . S
C239 O258 1.247 . S
O240 C239 1.224 . S
N241 Co231 2.128 . S
N241 C242 1.355 . S
N241 C244 1.311 . S
C242 N241 1.355 . S
C242 C243 1.363 . S
C242 H254 0.929 . S
C243 C242 1.363 . S
C243 N245 1.375 . S
C243 H261 0.931 . S
C244 N241 1.311 . S
C244 N245 1.347 . S
C244 H255 0.929 . S
N245 C243 1.375 . S
N245 C244 1.347 . S
C246 C249 1.365 . S
C246 N251 1.328 . S
C246 H252 0.929 . S
C247 C248 1.362 . S
C247 C250 1.378 . S
C247 H262 0.929 . S
C248 C247 1.362 . S
C248 C249 1.366 . S
C249 C246 1.365 . S
C249 C248 1.366 . S
C249 H263 0.930 . S
C250 C247 1.378 . S
C250 N251 1.315 . S
C250 H253 0.930 . S
N251 Co231 2.194 . S
N251 C246 1.328 . S
N251 C250 1.315 . S
H252 C246 0.929 . S
H253 C250 0.930 . S
H254 C242 0.929 . S
H255 C244 0.929 . S
O256 Co231 2.351 . S
O256 C259 1.244 . S
O257 Co231 2.155 . S
O257 C259 1.240 . S
O258 Co231 2.096 . S
O258 C239 1.247 . S
C259 O256 1.244 . S
C259 O257 1.240 . S
H260 C234 0.931 . S
H261 C243 0.931 . S
H262 C247 0.929 . S
H263 C249 0.930 . S
Co264 N268 2.148 1_565 S
Co264 N274 2.128 . S
Co264 N284 2.194 . S
Co264 O289 2.351 . S
Co264 O290 2.155 . S
Co264 O291 2.096 . S
C265 N268 1.301 . S
C265 N269 1.328 . S
C265 H270 0.930 . S
C266 C267 1.333 . S
C266 N268 1.317 . S
C266 H271 0.930 . S
C267 C266 1.333 . S
C267 N269 1.350 . S
C267 H293 0.931 . S
N268 Co264 2.148 1_545 S
N268 C265 1.301 . S
N268 C266 1.317 . S
N269 C265 1.328 . S
N269 C267 1.350 . S
H270 C265 0.930 . S
H271 C266 0.930 . S
C272 O273 1.224 . S
C272 O291 1.247 . S
O273 C272 1.224 . S
N274 Co264 2.128 . S
N274 C275 1.355 . S
N274 C277 1.311 . S
C275 N274 1.355 . S
C275 C276 1.363 . S
C275 H287 0.929 . S
C276 C275 1.363 . S
C276 N278 1.375 . S
C276 H294 0.931 . S
C277 N274 1.311 . S
C277 N278 1.347 . S
C277 H288 0.929 . S
N278 C276 1.375 . S
N278 C277 1.347 . S
C279 C282 1.365 . S
C279 N284 1.328 . S
C279 H285 0.929 . S
C280 C281 1.362 . S
C280 C283 1.378 . S
C280 H295 0.929 . S
C281 C280 1.362 . S
C281 C282 1.366 . S
C282 C279 1.365 . S
C282 C281 1.366 . S
C282 H296 0.930 . S
C283 C280 1.378 . S
C283 N284 1.315 . S
C283 H286 0.930 . S
N284 Co264 2.194 . S
N284 C279 1.328 . S
N284 C283 1.315 . S
H285 C279 0.929 . S
H286 C283 0.930 . S
H287 C275 0.929 . S
H288 C277 0.929 . S
O289 Co264 2.351 . S
O289 C292 1.244 . S
O290 Co264 2.155 . S
O290 C292 1.240 . S
O291 Co264 2.096 . S
O291 C272 1.247 . S
C292 O289 1.244 . S
C292 O290 1.240 . S
H293 C267 0.931 . S
H294 C276 0.931 . S
H295 C280 0.929 . S
H296 C282 0.930 . S
Co297 N301 2.148 . S
Co297 N307 2.128 . S
Co297 N317 2.194 . S
Co297 O322 2.351 . S
Co297 O323 2.155 . S
Co297 O324 2.096 . S
C298 N301 1.301 . S
C298 N302 1.328 . S
C298 H303 0.930 . S
C299 C300 1.333 . S
C299 N301 1.317 . S
C299 H304 0.930 . S
C300 C299 1.333 . S
C300 N302 1.350 . S
C300 H326 0.931 . S
N301 Co297 2.148 . S
N301 C298 1.301 . S
N301 C299 1.317 . S
N302 C298 1.328 . S
N302 C300 1.350 . S
H303 C298 0.930 . S
H304 C299 0.930 . S
C305 O306 1.224 . S
C305 O324 1.247 . S
O306 C305 1.224 . S
N307 Co297 2.128 . S
N307 C308 1.355 . S
N307 C310 1.311 . S
C308 N307 1.355 . S
C308 C309 1.363 . S
C308 H320 0.929 . S
C309 C308 1.363 . S
C309 N311 1.375 . S
C309 H327 0.931 . S
C310 N307 1.311 . S
C310 N311 1.347 . S
C310 H321 0.929 . S
N311 C309 1.375 . S
N311 C310 1.347 . S
C312 C315 1.365 . S
C312 N317 1.328 . S
C312 H318 0.929 . S
C313 C314 1.362 . S
C313 C316 1.378 . S
C313 H328 0.929 . S
C314 C313 1.362 . S
C314 C315 1.366 . S
C315 C312 1.365 . S
C315 C314 1.366 . S
C315 H329 0.930 . S
C316 C313 1.378 . S
C316 N317 1.315 . S
C316 H319 0.930 . S
N317 Co297 2.194 . S
N317 C312 1.328 . S
N317 C316 1.315 . S
H318 C312 0.929 . S
H319 C316 0.930 . S
H320 C308 0.929 . S
H321 C310 0.929 . S
O322 Co297 2.351 . S
O322 C325 1.244 . S
O323 Co297 2.155 . S
O323 C325 1.240 . S
O324 Co297 2.096 . S
O324 C305 1.247 . S
C325 O322 1.244 . S
C325 O323 1.240 . S
H326 C300 0.931 . S
H327 C309 0.931 . S
H328 C313 0.929 . S
H329 C315 0.930 . S
Co330 N334 2.148 . S
Co330 N340 2.128 . S
Co330 N350 2.194 . S
Co330 O355 2.351 . S
Co330 O356 2.155 . S
Co330 O357 2.096 . S
C331 N334 1.301 . S
C331 N335 1.328 . S
C331 H336 0.930 . S
C332 C333 1.333 . S
C332 N334 1.317 . S
C332 H337 0.930 . S
C333 C332 1.333 . S
C333 N335 1.350 . S
C333 H359 0.931 . S
N334 Co330 2.148 . S
N334 C331 1.301 . S
N334 C332 1.317 . S
N335 C331 1.328 . S
N335 C333 1.350 . S
H336 C331 0.930 . S
H337 C332 0.930 . S
C338 O339 1.224 . S
C338 O357 1.247 . S
O339 C338 1.224 . S
N340 Co330 2.128 . S
N340 C341 1.355 . S
N340 C343 1.311 . S
C341 N340 1.355 . S
C341 C342 1.363 . S
C341 H353 0.929 . S
C342 C341 1.363 . S
C342 N344 1.375 . S
C342 H360 0.931 . S
C343 N340 1.311 . S
C343 N344 1.347 . S
C343 H354 0.929 . S
N344 C342 1.375 . S
N344 C343 1.347 . S
C345 C348 1.365 . S
C345 N350 1.328 . S
C345 H351 0.929 . S
C346 C347 1.362 . S
C346 C349 1.378 . S
C346 H361 0.929 . S
C347 C346 1.362 . S
C347 C348 1.366 . S
C348 C345 1.365 . S
C348 C347 1.366 . S
C348 H362 0.930 . S
C349 C346 1.378 . S
C349 N350 1.315 . S
C349 H352 0.930 . S
N350 Co330 2.194 . S
N350 C345 1.328 . S
N350 C349 1.315 . S
H351 C345 0.929 . S
H352 C349 0.930 . S
H353 C341 0.929 . S
H354 C343 0.929 . S
O355 Co330 2.351 . S
O355 C358 1.244 . S
O356 Co330 2.155 . S
O356 C358 1.240 . S
O357 Co330 2.096 . S
O357 C338 1.247 . S
C358 O355 1.244 . S
C358 O356 1.240 . S
H359 C333 0.931 . S
H360 C342 0.931 . S
H361 C346 0.929 . S
H362 C348 0.930 . S
Co363 N367 2.148 1_655 S
Co363 N373 2.128 . S
Co363 N383 2.194 . S
Co363 O388 2.351 . S
Co363 O389 2.155 . S
Co363 O390 2.096 . S
C364 N367 1.301 . S
C364 N368 1.328 . S
C364 H369 0.930 . S
C365 C366 1.333 . S
C365 N367 1.317 . S
C365 H370 0.930 . S
C366 C365 1.333 . S
C366 N368 1.350 . S
C366 H392 0.931 . S
N367 Co363 2.148 1_455 S
N367 C364 1.301 . S
N367 C365 1.317 . S
N368 C364 1.328 . S
N368 C366 1.350 . S
H369 C364 0.930 . S
H370 C365 0.930 . S
C371 O372 1.224 . S
C371 O390 1.247 . S
O372 C371 1.224 . S
N373 Co363 2.128 . S
N373 C374 1.355 . S
N373 C376 1.311 . S
C374 N373 1.355 . S
C374 C375 1.363 . S
C374 H386 0.929 . S
C375 C374 1.363 . S
C375 N377 1.375 . S
C375 H393 0.931 . S
C376 N373 1.311 . S
C376 N377 1.347 . S
C376 H387 0.929 . S
N377 C375 1.375 . S
N377 C376 1.347 . S
C378 C381 1.365 . S
C378 N383 1.328 . S
C378 H384 0.929 . S
C379 C380 1.362 . S
C379 C382 1.378 . S
C379 H394 0.929 . S
C380 C379 1.362 . S
C380 C381 1.366 . S
C381 C378 1.365 . S
C381 C380 1.366 . S
C381 H395 0.930 . S
C382 C379 1.378 . S
C382 N383 1.315 . S
C382 H385 0.930 . S
N383 Co363 2.194 . S
N383 C378 1.328 . S
N383 C382 1.315 . S
H384 C378 0.929 . S
H385 C382 0.930 . S
H386 C374 0.929 . S
H387 C376 0.929 . S
O388 Co363 2.351 . S
O388 C391 1.244 . S
O389 Co363 2.155 . S
O389 C391 1.240 . S
O390 Co363 2.096 . S
O390 C371 1.247 . S
C391 O388 1.244 . S
C391 O389 1.240 . S
H392 C366 0.931 . S
H393 C375 0.931 . S
H394 C379 0.929 . S
H395 C381 0.930 . S
Co396 N400 2.148 . S
Co396 N406 2.128 . S
Co396 N416 2.194 . S
Co396 O421 2.351 . S
Co396 O422 2.155 . S
Co396 O423 2.096 . S
C397 N400 1.301 . S
C397 N401 1.328 . S
C397 H402 0.930 . S
C398 C399 1.333 . S
C398 N400 1.317 . S
C398 H403 0.930 . S
C399 C398 1.333 . S
C399 N401 1.350 . S
C399 H425 0.931 . S
N400 Co396 2.148 . S
N400 C397 1.301 . S
N400 C398 1.317 . S
N401 C397 1.328 . S
N401 C399 1.350 . S
H402 C397 0.930 . S
H403 C398 0.930 . S
C404 O405 1.224 . S
C404 O423 1.247 . S
O405 C404 1.224 . S
N406 Co396 2.128 . S
N406 C407 1.355 . S
N406 C409 1.311 . S
C407 N406 1.355 . S
C407 C408 1.363 . S
C407 H419 0.929 . S
C408 C407 1.363 . S
C408 N410 1.375 . S
C408 H426 0.931 . S
C409 N406 1.311 . S
C409 N410 1.347 . S
C409 H420 0.929 . S
N410 C408 1.375 . S
N410 C409 1.347 . S
C411 C414 1.365 . S
C411 N416 1.328 . S
C411 H417 0.929 . S
C412 C413 1.362 . S
C412 C415 1.378 . S
C412 H427 0.929 . S
C413 C412 1.362 . S
C413 C414 1.366 . S
C414 C411 1.365 . S
C414 C413 1.366 . S
C414 H428 0.930 . S
C415 C412 1.378 . S
C415 N416 1.315 . S
C415 H418 0.930 . S
N416 Co396 2.194 . S
N416 C411 1.328 . S
N416 C415 1.315 . S
H417 C411 0.929 . S
H418 C415 0.930 . S
H419 C407 0.929 . S
H420 C409 0.929 . S
O421 Co396 2.351 . S
O421 C424 1.244 . S
O422 Co396 2.155 . S
O422 C424 1.240 . S
O423 Co396 2.096 . S
O423 C404 1.247 . S
C424 O421 1.244 . S
C424 O422 1.240 . S
H425 C399 0.931 . S
H426 C408 0.931 . S
H427 C412 0.929 . S
H428 C414 0.930 . S
Co429 N433 2.148 1_655 S
Co429 N439 2.128 . S
Co429 N449 2.194 . S
Co429 O454 2.351 . S
Co429 O455 2.155 . S
Co429 O456 2.096 . S
C430 N433 1.301 . S
C430 N434 1.328 . S
C430 H435 0.930 . S
C431 C432 1.333 . S
C431 N433 1.317 . S
C431 H436 0.930 . S
C432 C431 1.333 . S
C432 N434 1.350 . S
C432 H458 0.931 . S
N433 Co429 2.148 1_455 S
N433 C430 1.301 . S
N433 C431 1.317 . S
N434 C430 1.328 . S
N434 C432 1.350 . S
H435 C430 0.930 . S
H436 C431 0.930 . S
C437 O438 1.224 . S
C437 O456 1.247 . S
O438 C437 1.224 . S
N439 Co429 2.128 . S
N439 C440 1.355 . S
N439 C442 1.311 . S
C440 N439 1.355 . S
C440 C441 1.363 . S
C440 H452 0.929 . S
C441 C440 1.363 . S
C441 N443 1.375 . S
C441 H459 0.931 . S
C442 N439 1.311 . S
C442 N443 1.347 . S
C442 H453 0.929 . S
N443 C441 1.375 . S
N443 C442 1.347 . S
C444 C447 1.365 . S
C444 N449 1.328 . S
C444 H450 0.929 . S
C445 C446 1.362 . S
C445 C448 1.378 . S
C445 H460 0.929 . S
C446 C445 1.362 . S
C446 C447 1.366 . S
C447 C444 1.365 . S
C447 C446 1.366 . S
C447 H461 0.930 . S
C448 C445 1.378 . S
C448 N449 1.315 . S
C448 H451 0.930 . S
N449 Co429 2.194 . S
N449 C444 1.328 . S
N449 C448 1.315 . S
H450 C444 0.929 . S
H451 C448 0.930 . S
H452 C440 0.929 . S
H453 C442 0.929 . S
O454 Co429 2.351 . S
O454 C457 1.244 . S
O455 Co429 2.155 . S
O455 C457 1.240 . S
O456 Co429 2.096 . S
O456 C437 1.247 . S
C457 O454 1.244 . S
C457 O455 1.240 . S
H458 C432 0.931 . S
H459 C441 0.931 . S
H460 C445 0.929 . S
H461 C447 0.930 . S
Co462 N466 2.148 1_565 S
Co462 N472 2.128 . S
Co462 N482 2.194 . S
Co462 O487 2.351 . S
Co462 O488 2.155 . S
Co462 O489 2.096 . S
C463 N466 1.301 . S
C463 N467 1.328 . S
C463 H468 0.930 . S
C464 C465 1.333 . S
C464 N466 1.317 . S
C464 H469 0.930 . S
C465 C464 1.333 . S
C465 N467 1.350 . S
C465 H491 0.931 . S
N466 Co462 2.148 1_545 S
N466 C463 1.301 . S
N466 C464 1.317 . S
N467 C463 1.328 . S
N467 C465 1.350 . S
H468 C463 0.930 . S
H469 C464 0.930 . S
C470 O471 1.224 . S
C470 O489 1.247 . S
O471 C470 1.224 . S
N472 Co462 2.128 . S
N472 C473 1.355 . S
N472 C475 1.311 . S
C473 N472 1.355 . S
C473 C474 1.363 . S
C473 H485 0.929 . S
C474 C473 1.363 . S
C474 N476 1.375 . S
C474 H492 0.931 . S
C475 N472 1.311 . S
C475 N476 1.347 . S
C475 H486 0.929 . S
N476 C474 1.375 . S
N476 C475 1.347 . S
C477 C480 1.365 . S
C477 N482 1.328 . S
C477 H483 0.929 . S
C478 C479 1.362 . S
C478 C481 1.378 . S
C478 H493 0.929 . S
C479 C478 1.362 . S
C479 C480 1.366 . S
C480 C477 1.365 . S
C480 C479 1.366 . S
C480 H494 0.930 . S
C481 C478 1.378 . S
C481 N482 1.315 . S
C481 H484 0.930 . S
N482 Co462 2.194 . S
N482 C477 1.328 . S
N482 C481 1.315 . S
H483 C477 0.929 . S
H484 C481 0.930 . S
H485 C473 0.929 . S
H486 C475 0.929 . S
O487 Co462 2.351 . S
O487 C490 1.244 . S
O488 Co462 2.155 . S
O488 C490 1.240 . S
O489 Co462 2.096 . S
O489 C470 1.247 . S
C490 O487 1.244 . S
C490 O488 1.240 . S
H491 C465 0.931 . S
H492 C474 0.931 . S
H493 C478 0.929 . S
H494 C480 0.930 . S
Co495 N499 2.148 . S
Co495 N505 2.128 . S
Co495 N515 2.194 . S
Co495 O520 2.351 . S
Co495 O521 2.155 . S
Co495 O522 2.096 . S
C496 N499 1.301 . S
C496 N500 1.328 . S
C496 H501 0.930 . S
C497 C498 1.333 . S
C497 N499 1.317 . S
C497 H502 0.930 . S
C498 C497 1.333 . S
C498 N500 1.350 . S
C498 H524 0.931 . S
N499 Co495 2.148 . S
N499 C496 1.301 . S
N499 C497 1.317 . S
N500 C496 1.328 . S
N500 C498 1.350 . S
H501 C496 0.930 . S
H502 C497 0.930 . S
C503 O504 1.224 . S
C503 O522 1.247 . S
O504 C503 1.224 . S
N505 Co495 2.128 . S
N505 C506 1.355 . S
N505 C508 1.311 . S
C506 N505 1.355 . S
C506 C507 1.363 . S
C506 H518 0.929 . S
C507 C506 1.363 . S
C507 N509 1.375 . S
C507 H525 0.931 . S
C508 N505 1.311 . S
C508 N509 1.347 . S
C508 H519 0.929 . S
N509 C507 1.375 . S
N509 C508 1.347 . S
C510 C513 1.365 . S
C510 N515 1.328 . S
C510 H516 0.929 . S
C511 C512 1.362 . S
C511 C514 1.378 . S
C511 H526 0.929 . S
C512 C511 1.362 . S
C512 C513 1.366 . S
C513 C510 1.365 . S
C513 C512 1.366 . S
C513 H527 0.930 . S
C514 C511 1.378 . S
C514 N515 1.315 . S
C514 H517 0.930 . S
N515 Co495 2.194 . S
N515 C510 1.328 . S
N515 C514 1.315 . S
H516 C510 0.929 . S
H517 C514 0.930 . S
H518 C506 0.929 . S
H519 C508 0.929 . S
O520 Co495 2.351 . S
O520 C523 1.244 . S
O521 Co495 2.155 . S
O521 C523 1.240 . S
O522 Co495 2.096 . S
O522 C503 1.247 . S
C523 O520 1.244 . S
C523 O521 1.240 . S
H524 C498 0.931 . S
H525 C507 0.931 . S
H526 C511 0.929 . S
H527 C513 0.930 . S
C528 C529 1.387 . S
C528 H532 0.950 . S
C528 C537 1.390 . S
C529 C528 1.387 . S
C529 C531 1.387 . S
H530 C537 0.950 . S
C531 C529 1.387 . S
C531 C533 1.390 . S
C531 H535 0.950 . S
H532 C528 0.950 . S
C533 C531 1.390 . S
C533 C534 1.387 . S
C533 H536 0.950 . S
C534 C533 1.387 . S
C534 C537 1.387 . S
H535 C531 0.950 . S
H536 C533 0.950 . S
C537 C528 1.390 . S
C537 H530 0.950 . S
C537 C534 1.387 . S
C538 C539 1.387 . S
C538 H542 0.950 . S
C538 C547 1.390 . S
C539 C538 1.387 . S
C539 C541 1.387 . S
H540 C547 0.950 . S
C541 C539 1.387 . S
C541 C543 1.390 . S
C541 H545 0.950 . S
H542 C538 0.950 . S
C543 C541 1.390 . S
C543 C544 1.387 . S
C543 H546 0.950 . S
C544 C543 1.387 . S
C544 C547 1.387 . S
H545 C541 0.950 . S
H546 C543 0.950 . S
C547 C538 1.390 . S
C547 H540 0.950 . S
C547 C544 1.387 . S
C548 C549 1.387 . S
C548 H552 0.950 . S
C548 C557 1.390 . S
C549 C548 1.387 . S
C549 C551 1.387 . S
H550 C557 0.950 . S
C551 C549 1.387 . S
C551 C553 1.390 . S
C551 H555 0.950 . S
H552 C548 0.950 . S
C553 C551 1.390 . S
C553 C554 1.387 . S
C553 H556 0.950 . S
C554 C553 1.387 . S
C554 C557 1.387 . S
H555 C551 0.950 . S
H556 C553 0.950 . S
C557 C548 1.390 . S
C557 H550 0.950 . S
C557 C554 1.387 . S
C558 C559 1.387 . S
C558 H562 0.950 . S
C558 C567 1.390 . S
C559 C558 1.387 . S
C559 C561 1.387 . S
H560 C567 0.950 . S
C561 C559 1.387 . S
C561 C563 1.390 . S
C561 H565 0.950 . S
H562 C558 0.950 . S
C563 C561 1.390 . S
C563 C564 1.387 . S
C563 H566 0.950 . S
C564 C563 1.387 . S
C564 C567 1.387 . S
H565 C561 0.950 . S
H566 C563 0.950 . S
C567 C558 1.390 . S
C567 H560 0.950 . S
C567 C564 1.387 . S
C568 C569 1.387 . S
C568 H572 0.950 . S
C568 C577 1.390 . S
C569 C568 1.387 . S
C569 C571 1.387 . S
H570 C577 0.950 . S
C571 C569 1.387 . S
C571 C573 1.390 . S
C571 H575 0.950 . S
H572 C568 0.950 . S
C573 C571 1.390 . S
C573 C574 1.387 . S
C573 H576 0.950 . S
C574 C573 1.387 . S
C574 C577 1.387 . S
H575 C571 0.950 . S
H576 C573 0.950 . S
C577 C568 1.390 . S
C577 H570 0.950 . S
C577 C574 1.387 . S
C578 C579 1.387 . S
C578 H582 0.950 . S
C578 C587 1.390 . S
C579 C578 1.387 . S
C579 C581 1.387 . S
H580 C587 0.950 . S
C581 C579 1.387 . S
C581 C583 1.390 . S
C581 H585 0.950 . S
H582 C578 0.950 . S
C583 C581 1.390 . S
C583 C584 1.387 . S
C583 H586 0.950 . S
C584 C583 1.387 . S
C584 C587 1.387 . S
H585 C581 0.950 . S
H586 C583 0.950 . S
C587 C578 1.390 . S
C587 H580 0.950 . S
C587 C584 1.387 . S
C588 C589 1.387 . S
C588 H592 0.950 . S
C588 C597 1.390 . S
C589 C588 1.387 . S
C589 C591 1.387 . S
H590 C597 0.950 . S
C591 C589 1.387 . S
C591 C593 1.390 . S
C591 H595 0.950 . S
H592 C588 0.950 . S
C593 C591 1.390 . S
C593 C594 1.387 . S
C593 H596 0.950 . S
C594 C593 1.387 . S
C594 C597 1.387 . S
H595 C591 0.950 . S
H596 C593 0.950 . S
C597 C588 1.390 . S
C597 H590 0.950 . S
C597 C594 1.387 . S
C598 C599 1.387 . S
C598 H602 0.950 . S
C598 C607 1.390 . S
C599 C598 1.387 . S
C599 C601 1.387 . S
H600 C607 0.950 . S
C601 C599 1.387 . S
C601 C603 1.390 . S
C601 H605 0.950 . S
H602 C598 0.950 . S
C603 C601 1.390 . S
C603 C604 1.387 . S
C603 H606 0.950 . S
C604 C603 1.387 . S
C604 C607 1.387 . S
H605 C601 0.950 . S
H606 C603 0.950 . S
C607 C598 1.390 . S
C607 H600 0.950 . S
C607 C604 1.387 . S
C608 C609 1.387 . S
C608 H612 0.950 . S
C608 C617 1.390 . S
C609 C608 1.387 . S
C609 C611 1.387 . S
H610 C617 0.950 . S
C611 C609 1.387 . S
C611 C613 1.390 . S
C611 H615 0.950 . S
H612 C608 0.950 . S
C613 C611 1.390 . S
C613 C614 1.387 . S
C613 H616 0.950 . S
C614 C613 1.387 . S
C614 C617 1.387 . S
H615 C611 0.950 . S
H616 C613 0.950 . S
C617 C608 1.390 . S
C617 H610 0.950 . S
C617 C614 1.387 . S
C618 C619 1.387 . S
C618 H622 0.950 . S
C618 C627 1.390 . S
C619 C618 1.387 . S
C619 C621 1.387 . S
H620 C627 0.950 . S
C621 C619 1.387 . S
C621 C623 1.390 . S
C621 H625 0.950 . S
H622 C618 0.950 . S
C623 C621 1.390 . S
C623 C624 1.387 . S
C623 H626 0.950 . S
C624 C623 1.387 . S
C624 C627 1.387 . S
H625 C621 0.950 . S
H626 C623 0.950 . S
C627 C618 1.390 . S
C627 H620 0.950 . S
C627 C624 1.387 . S
C628 C629 1.387 . S
C628 H632 0.950 . S
C628 C637 1.390 . S
C629 C628 1.387 . S
C629 C631 1.387 . S
H630 C637 0.950 . S
C631 C629 1.387 . S
C631 C633 1.390 . S
C631 H635 0.950 . S
H632 C628 0.950 . S
C633 C631 1.390 . S
C633 C634 1.387 . S
C633 H636 0.950 . S
C634 C633 1.387 . S
C634 C637 1.387 . S
H635 C631 0.950 . S
H636 C633 0.950 . S
C637 C628 1.390 . S
C637 H630 0.950 . S
C637 C634 1.387 . S
C638 C639 1.387 . S
C638 H642 0.950 . S
C638 C647 1.390 . S
C639 C638 1.387 . S
C639 C641 1.387 . S
H640 C647 0.950 . S
C641 C639 1.387 . S
C641 C643 1.390 . S
C641 H645 0.950 . S
H642 C638 0.950 . S
C643 C641 1.390 . S
C643 C644 1.387 . S
C643 H646 0.950 . S
C644 C643 1.387 . S
C644 C647 1.387 . S
H645 C641 0.950 . S
H646 C643 0.950 . S
C647 C638 1.390 . S
C647 H640 0.950 . S
C647 C644 1.387 . S
C648 C649 1.387 . S
C648 H652 0.950 . S
C648 C657 1.390 . S
C649 C648 1.387 . S
C649 C651 1.387 . S
H650 C657 0.950 . S
C651 C649 1.387 . S
C651 C653 1.390 . S
C651 H655 0.950 . S
H652 C648 0.950 . S
C653 C651 1.390 . S
C653 C654 1.387 . S
C653 H656 0.950 . S
C654 C653 1.387 . S
C654 C657 1.387 . S
H655 C651 0.950 . S
H656 C653 0.950 . S
C657 C648 1.390 . S
C657 H650 0.950 . S
C657 C654 1.387 . S
C658 C659 1.387 . S
C658 H662 0.950 . S
C658 C667 1.390 . S
C659 C658 1.387 . S
C659 C661 1.387 . S
H660 C667 0.950 . S
C661 C659 1.387 . S
C661 C663 1.390 . S
C661 H665 0.950 . S
H662 C658 0.950 . S
C663 C661 1.390 . S
C663 C664 1.387 . S
C663 H666 0.950 . S
C664 C663 1.387 . S
C664 C667 1.387 . S
H665 C661 0.950 . S
H666 C663 0.950 . S
C667 C658 1.390 . S
C667 H660 0.950 . S
C667 C664 1.387 . S
C668 C669 1.387 . S
C668 H672 0.950 . S
C668 C677 1.390 . S
C669 C668 1.387 . S
C669 C671 1.387 . S
H670 C677 0.950 . S
C671 C669 1.387 . S
C671 C673 1.390 . S
C671 H675 0.950 . S
H672 C668 0.950 . S
C673 C671 1.390 . S
C673 C674 1.387 . S
C673 H676 0.950 . S
C674 C673 1.387 . S
C674 C677 1.387 . S
H675 C671 0.950 . S
H676 C673 0.950 . S
C677 C668 1.390 . S
C677 H670 0.950 . S
C677 C674 1.387 . S
C678 C679 1.387 . S
C678 H682 0.950 . S
C678 C687 1.390 . S
C679 C678 1.387 . S
C679 C681 1.387 . S
H680 C687 0.950 . S
C681 C679 1.387 . S
C681 C683 1.390 . S
C681 H685 0.950 . S
H682 C678 0.950 . S
C683 C681 1.390 . S
C683 C684 1.387 . S
C683 H686 0.950 . S
C684 C683 1.387 . S
C684 C687 1.387 . S
H685 C681 0.950 . S
H686 C683 0.950 . S
C687 C678 1.390 . S
C687 H680 0.950 . S
C687 C684 1.387 . S
C688 C689 1.387 . S
C688 H692 0.950 . S
C688 C697 1.390 . S
C689 C688 1.387 . S
C689 C691 1.387 . S
H690 C697 0.950 . S
C691 C689 1.387 . S
C691 C693 1.390 . S
C691 H695 0.950 . S
H692 C688 0.950 . S
C693 C691 1.390 . S
C693 C694 1.387 . S
C693 H696 0.950 . S
C694 C693 1.387 . S
C694 C697 1.387 . S
H695 C691 0.950 . S
H696 C693 0.950 . S
C697 C688 1.390 . S
C697 H690 0.950 . S
C697 C694 1.387 . S
C698 C699 1.387 . S
C698 H702 0.950 . S
C698 C707 1.390 . S
C699 C698 1.387 . S
C699 C701 1.387 . S
H700 C707 0.950 . S
C701 C699 1.387 . S
C701 C703 1.390 . S
C701 H705 0.950 . S
H702 C698 0.950 . S
C703 C701 1.390 . S
C703 C704 1.387 . S
C703 H706 0.950 . S
C704 C703 1.387 . S
C704 C707 1.387 . S
H705 C701 0.950 . S
H706 C703 0.950 . S
C707 C698 1.390 . S
C707 H700 0.950 . S
C707 C704 1.387 . S
C708 C709 1.387 . S
C708 H712 0.950 . S
C708 C717 1.390 . S
C709 C708 1.387 . S
C709 C711 1.387 . S
H710 C717 0.950 . S
C711 C709 1.387 . S
C711 C713 1.390 . S
C711 H715 0.950 . S
H712 C708 0.950 . S
C713 C711 1.390 . S
C713 C714 1.387 . S
C713 H716 0.950 . S
C714 C713 1.387 . S
C714 C717 1.387 . S
H715 C711 0.950 . S
H716 C713 0.950 . S
C717 C708 1.390 . S
C717 H710 0.950 . S
C717 C714 1.387 . S
C718 C719 1.387 . S
C718 H722 0.950 . S
C718 C727 1.390 . S
C719 C718 1.387 . S
C719 C721 1.387 . S
H720 C727 0.950 . S
C721 C719 1.387 . S
C721 C723 1.390 . S
C721 H725 0.950 . S
H722 C718 0.950 . S
C723 C721 1.390 . S
C723 C724 1.387 . S
C723 H726 0.950 . S
C724 C723 1.387 . S
C724 C727 1.387 . S
H725 C721 0.950 . S
H726 C723 0.950 . S
C727 C718 1.390 . S
C727 H720 0.950 . S
C727 C724 1.387 . S
C728 C729 1.387 . S
C728 H732 0.950 . S
C728 C737 1.390 . S
C729 C728 1.387 . S
C729 C731 1.387 . S
H730 C737 0.950 . S
C731 C729 1.387 . S
C731 C733 1.390 . S
C731 H735 0.950 . S
H732 C728 0.950 . S
C733 C731 1.390 . S
C733 C734 1.387 . S
C733 H736 0.950 . S
C734 C733 1.387 . S
C734 C737 1.387 . S
H735 C731 0.950 . S
H736 C733 0.950 . S
C737 C728 1.390 . S
C737 H730 0.950 . S
C737 C734 1.387 . S
C738 C739 1.387 . S
C738 H742 0.950 . S
C738 C747 1.390 . S
C739 C738 1.387 . S
C739 C741 1.387 . S
H740 C747 0.950 . S
C741 C739 1.387 . S
C741 C743 1.390 . S
C741 H745 0.950 . S
H742 C738 0.950 . S
C743 C741 1.390 . S
C743 C744 1.387 . S
C743 H746 0.950 . S
C744 C743 1.387 . S
C744 C747 1.387 . S
H745 C741 0.950 . S
H746 C743 0.950 . S
C747 C738 1.390 . S
C747 H740 0.950 . S
C747 C744 1.387 . S
C748 C749 1.387 . S
C748 H752 0.950 . S
C748 C757 1.390 . S
C749 C748 1.387 . S
C749 C751 1.387 . S
H750 C757 0.950 . S
C751 C749 1.387 . S
C751 C753 1.390 . S
C751 H755 0.950 . S
H752 C748 0.950 . S
C753 C751 1.390 . S
C753 C754 1.387 . S
C753 H756 0.950 . S
C754 C753 1.387 . S
C754 C757 1.387 . S
H755 C751 0.950 . S
H756 C753 0.950 . S
C757 C748 1.390 . S
C757 H750 0.950 . S
C757 C754 1.387 . S
C758 C759 1.387 . S
C758 H762 0.950 . S
C758 C767 1.390 . S
C759 C758 1.387 . S
C759 C761 1.387 . S
H760 C767 0.950 . S
C761 C759 1.387 . S
C761 C763 1.390 . S
C761 H765 0.950 . S
H762 C758 0.950 . S
C763 C761 1.390 . S
C763 C764 1.387 . S
C763 H766 0.950 . S
C764 C763 1.387 . S
C764 C767 1.387 . S
H765 C761 0.950 . S
H766 C763 0.950 . S
C767 C758 1.390 . S
C767 H760 0.950 . S
C767 C764 1.387 . S
C768 C769 1.387 . S
C768 H772 0.950 . S
C768 C777 1.390 . S
C769 C768 1.387 . S
C769 C771 1.387 . S
H770 C777 0.950 . S
C771 C769 1.387 . S
C771 C773 1.390 . S
C771 H775 0.950 . S
H772 C768 0.950 . S
C773 C771 1.390 . S
C773 C774 1.387 . S
C773 H776 0.950 . S
C774 C773 1.387 . S
C774 C777 1.387 . S
H775 C771 0.950 . S
H776 C773 0.950 . S
C777 C768 1.390 . S
C777 H770 0.950 . S
C777 C774 1.387 . S
C778 C779 1.387 . S
C778 H782 0.950 . S
C778 C787 1.390 . S
C779 C778 1.387 . S
C779 C781 1.387 . S
H780 C787 0.950 . S
C781 C779 1.387 . S
C781 C783 1.390 . S
C781 H785 0.950 . S
H782 C778 0.950 . S
C783 C781 1.390 . S
C783 C784 1.387 . S
C783 H786 0.950 . S
C784 C783 1.387 . S
C784 C787 1.387 . S
H785 C781 0.950 . S
H786 C783 0.950 . S
C787 C778 1.390 . S
C787 H780 0.950 . S
C787 C784 1.387 . S
C788 C789 1.387 . S
C788 H792 0.950 . S
C788 C797 1.390 . S
C789 C788 1.387 . S
C789 C791 1.387 . S
H790 C797 0.950 . S
C791 C789 1.387 . S
C791 C793 1.390 . S
C791 H795 0.950 . S
H792 C788 0.950 . S
C793 C791 1.390 . S
C793 C794 1.387 . S
C793 H796 0.950 . S
C794 C793 1.387 . S
C794 C797 1.387 . S
H795 C791 0.950 . S
H796 C793 0.950 . S
C797 C788 1.390 . S
C797 H790 0.950 . S
C797 C794 1.387 . S
C798 C799 1.387 . S
C798 H802 0.950 . S
C798 C807 1.390 . S
C799 C798 1.387 . S
C799 C801 1.387 . S
H800 C807 0.950 . S
C801 C799 1.387 . S
C801 C803 1.390 . S
C801 H805 0.950 . S
H802 C798 0.950 . S
C803 C801 1.390 . S
C803 C804 1.387 . S
C803 H806 0.950 . S
C804 C803 1.387 . S
C804 C807 1.387 . S
H805 C801 0.950 . S
H806 C803 0.950 . S
C807 C798 1.390 . S
C807 H800 0.950 . S
C807 C804 1.387 . S
C808 C809 1.387 . S
C808 H812 0.950 . S
C808 C817 1.390 . S
C809 C808 1.387 . S
C809 C811 1.387 . S
H810 C817 0.950 . S
C811 C809 1.387 . S
C811 C813 1.390 . S
C811 H815 0.950 . S
H812 C808 0.950 . S
C813 C811 1.390 . S
C813 C814 1.387 . S
C813 H816 0.950 . S
C814 C813 1.387 . S
C814 C817 1.387 . S
H815 C811 0.950 . S
H816 C813 0.950 . S
C817 C808 1.390 . S
C817 H810 0.950 . S
C817 C814 1.387 . S
C818 C819 1.387 . S
C818 H822 0.950 . S
C818 C827 1.390 . S
C819 C818 1.387 . S
C819 C821 1.387 . S
H820 C827 0.950 . S
C821 C819 1.387 . S
C821 C823 1.390 . S
C821 H825 0.950 . S
H822 C818 0.950 . S
C823 C821 1.390 . S
C823 C824 1.387 . S
C823 H826 0.950 . S
C824 C823 1.387 . S
C824 C827 1.387 . S
H825 C821 0.950 . S
H826 C823 0.950 . S
C827 C818 1.390 . S
C827 H820 0.950 . S
C827 C824 1.387 . S
C828 C829 1.387 . S
C828 H832 0.950 . S
C828 C837 1.390 . S
C829 C828 1.387 . S
C829 C831 1.387 . S
H830 C837 0.950 . S
C831 C829 1.387 . S
C831 C833 1.390 . S
C831 H835 0.950 . S
H832 C828 0.950 . S
C833 C831 1.390 . S
C833 C834 1.387 . S
C833 H836 0.950 . S
C834 C833 1.387 . S
C834 C837 1.387 . S
H835 C831 0.950 . S
H836 C833 0.950 . S
C837 C828 1.390 . S
C837 H830 0.950 . S
C837 C834 1.387 . S
C838 C839 1.387 . S
C838 H842 0.950 . S
C838 C847 1.390 . S
C839 C838 1.387 . S
C839 C841 1.387 . S
H840 C847 0.950 . S
C841 C839 1.387 . S
C841 C843 1.390 . S
C841 H845 0.950 . S
H842 C838 0.950 . S
C843 C841 1.390 . S
C843 C844 1.387 . S
C843 H846 0.950 . S
C844 C843 1.387 . S
C844 C847 1.387 . S
H845 C841 0.950 . S
H846 C843 0.950 . S
C847 C838 1.390 . S
C847 H840 0.950 . S
C847 C844 1.387 . S
C848 C849 1.387 . S
C848 H852 0.950 . S
C848 C857 1.390 1_556 S
C849 C848 1.387 . S
C849 C851 1.387 1_545 S
H850 C857 0.950 . S
C851 C849 1.387 1_565 S
C851 C853 1.390 1_556 S
C851 H855 0.950 . S
H852 C848 0.950 . S
C853 C851 1.390 1_554 S
C853 C854 1.387 1_565 S
C853 H856 0.950 . S
C854 C853 1.387 1_545 S
C854 C857 1.387 . S
H855 C851 0.950 . S
H856 C853 0.950 . S
C857 C848 1.390 1_554 S
C857 H850 0.950 . S
C857 C854 1.387 . S
C858 C859 1.387 . S
C858 H862 0.950 . S
C858 C867 1.390 . S
C859 C858 1.387 . S
C859 C861 1.387 . S
H860 C867 0.950 . S
C861 C859 1.387 . S
C861 C863 1.390 . S
C861 H865 0.950 . S
H862 C858 0.950 . S
C863 C861 1.390 . S
C863 C864 1.387 . S
C863 H866 0.950 . S
C864 C863 1.387 . S
C864 C867 1.387 . S
H865 C861 0.950 . S
H866 C863 0.950 . S
C867 C858 1.390 . S
C867 H860 0.950 . S
C867 C864 1.387 . S
C868 C869 1.387 . S
C868 H872 0.950 . S
C868 C877 1.390 1_554 S
C869 C868 1.387 . S
C869 C871 1.387 . S
H870 C877 0.950 . S
C871 C869 1.387 . S
C871 C873 1.390 1_554 S
C871 H875 0.950 . S
H872 C868 0.950 . S
C873 C871 1.390 1_556 S
C873 C874 1.387 . S
C873 H876 0.950 . S
C874 C873 1.387 . S
C874 C877 1.387 . S
H875 C871 0.950 . S
H876 C873 0.950 . S
C877 C868 1.390 1_556 S
C877 H870 0.950 . S
C877 C874 1.387 . S
C878 C879 1.387 . S
C878 H882 0.950 . S
C878 C887 1.390 . S
C879 C878 1.387 . S
C879 C881 1.387 1_455 S
H880 C887 0.950 . S
C881 C879 1.387 1_655 S
C881 C883 1.390 . S
C881 H885 0.950 . S
H882 C878 0.950 . S
C883 C881 1.390 . S
C883 C884 1.387 1_655 S
C883 H886 0.950 . S
C884 C883 1.387 1_455 S
C884 C887 1.387 . S
H885 C881 0.950 . S
H886 C883 0.950 . S
C887 C878 1.390 . S
C887 H880 0.950 . S
C887 C884 1.387 . S
C888 C889 1.387 . S
C888 H892 0.950 . S
C888 C897 1.390 1_554 S
C889 C888 1.387 . S
C889 C891 1.387 1_565 S
H890 C897 0.950 . S
C891 C889 1.387 1_545 S
C891 C893 1.390 1_554 S
C891 H895 0.950 . S
H892 C888 0.950 . S
C893 C891 1.390 1_556 S
C893 C894 1.387 1_545 S
C893 H896 0.950 . S
C894 C893 1.387 1_565 S
C894 C897 1.387 . S
H895 C891 0.950 . S
H896 C893 0.950 . S
C897 C888 1.390 1_556 S
C897 H890 0.950 . S
C897 C894 1.387 . S
C898 C899 1.387 . S
C898 H902 0.950 . S
C898 C907 1.390 . S
C899 C898 1.387 . S
C899 C901 1.387 . S
H900 C907 0.950 . S
C901 C899 1.387 . S
C901 C903 1.390 . S
C901 H905 0.950 . S
H902 C898 0.950 . S
C903 C901 1.390 . S
C903 C904 1.387 . S
C903 H906 0.950 . S
C904 C903 1.387 . S
C904 C907 1.387 . S
H905 C901 0.950 . S
H906 C903 0.950 . S
C907 C898 1.390 . S
C907 H900 0.950 . S
C907 C904 1.387 . S
C908 C909 1.387 . S
C908 H912 0.950 . S
C908 C917 1.390 1_554 S
C909 C908 1.387 . S
C909 C911 1.387 . S
H910 C917 0.950 . S
C911 C909 1.387 . S
C911 C913 1.390 1_554 S
C911 H915 0.950 . S
H912 C908 0.950 . S
C913 C911 1.390 1_556 S
C913 C914 1.387 . S
C913 H916 0.950 . S
C914 C913 1.387 . S
C914 C917 1.387 . S
H915 C911 0.950 . S
H916 C913 0.950 . S
C917 C908 1.390 1_556 S
C917 H910 0.950 . S
C917 C914 1.387 . S
C918 C919 1.387 . S
C918 H922 0.950 . S
C918 C927 1.390 . S
C919 C918 1.387 . S
C919 C921 1.387 1_655 S
H920 C927 0.950 . S
C921 C919 1.387 1_455 S
C921 C923 1.390 . S
C921 H925 0.950 . S
H922 C918 0.950 . S
C923 C921 1.390 . S
C923 C924 1.387 1_455 S
C923 H926 0.950 . S
C924 C923 1.387 1_655 S
C924 C927 1.387 . S
H925 C921 0.950 . S
H926 C923 0.950 . S
C927 C918 1.390 . S
C927 H920 0.950 . S
C927 C924 1.387 . S
C529 N14 1.698 . S
C534 N245 1.698 . S
C539 N146 1.698 . S
C544 N47 1.698 . S
C549 N179 1.698 . S
C554 N80 1.698 . S
C559 N113 1.698 . S
C564 N212 1.698 . S
C569 N269 2.176 . S
C574 N500 2.177 . S
C579 N302 2.177 . S
C584 N401 2.176 . S
C589 N434 2.177 . S
C594 N335 2.176 . S
C599 N368 2.176 . S
C604 N467 2.177 . S
C609 C8 1.316 . S
C614 C314 1.163 . S
C619 C347 1.159 . S
C624 C41 1.317 . S
C629 C380 1.163 . S
C634 C74 1.317 . S
C639 C281 1.158 . S
C644 C107 1.317 . S
C649 C512 1.161 . S
C654 C140 1.317 . S
C659 C413 1.158 . S
C664 C173 1.316 . S
C669 C446 1.162 . S
C674 C206 1.317 . S
C679 C479 1.163 . S
C684 C239 1.317 . S
C689 C61 1.379 . S
C694 C292 1.455 . S
C699 C94 1.377 . S
C704 C325 1.455 . S
C709 C127 1.380 . S
C714 C358 1.454 . S
C719 C391 1.453 . S
C724 C28 1.382 . S
C729 C259 1.381 . S
C734 C424 1.453 . S
C739 C160 1.381 . S
C744 C457 1.453 . S
C749 C193 1.381 . S
C754 C490 1.454 . S
C759 C226 1.381 . S
C764 C523 1.454 . S
C769 N71 1.186 . S
C774 N5 1.186 . S
C779 N38 1.179 . S
C784 N104 1.179 . S
C789 N203 1.186 . S
C794 N137 1.186 . S
C799 N236 1.186 . S
C804 N170 1.186 . S
C809 N344 1.212 . S
C814 N278 1.212 . S
C819 N377 1.209 . S
C824 N311 1.209 . S
C829 N410 1.212 . S
C834 N476 1.212 . S
C839 N509 1.209 . S
C844 N443 1.209 . S
C849 C215 1.404 . S
C854 C17 1.404 . S
C859 C248 1.403 . S
C864 C50 1.403 . S
C869 C83 1.405 . S
C874 C149 1.405 . S
C879 C182 1.404 . S
C884 C116 1.404 . S
C889 C470 1.511 . S
C894 C272 1.511 . S
C899 C503 1.511 . S
C904 C305 1.511 . S
C909 C404 1.511 . S
C914 C338 1.511 . S
C919 C371 1.511 . S
C924 C437 1.511 . S
