# Generated by pormake.
# Topology whr, (6)-cn, num edge types: 1
# Building blocks:
#     Node 0, Type 0, BuildingBlock: OJICUG_clean_sbu_0, # of connection points: 6
#     Node 1, Type 0, BuildingBlock: OJICUG_clean_sbu_0, # of connection points: 6
#     Node 2, Type 0, BuildingBlock: OJICUG_clean_sbu_0, # of connection points: 6
#     Node 3, Type 0, BuildingBlock: OJICUG_clean_sbu_0, # of connection points: 6
#     Node 4, Type 0, BuildingBlock: OJICUG_clean_sbu_0, # of connection points: 6
#     Node 5, Type 0, BuildingBlock: OJICUG_clean_sbu_0, # of connection points: 6
#     Node 6, Type 0, BuildingBlock: OJICUG_clean_sbu_0, # of connection points: 6
#     Node 7, Type 0, BuildingBlock: OJICUG_clean_sbu_0, # of connection points: 6
#     Node 8, Type 0, BuildingBlock: OJICUG_clean_sbu_0, # of connection points: 6
#     Node 9, Type 0, BuildingBlock: OJICUG_clean_sbu_0, # of connection points: 6
#     Node 10, Type 0, BuildingBlock: OJICUG_clean_sbu_0, # of connection points: 6
#     Node 11, Type 0, BuildingBlock: OJICUG_clean_sbu_0, # of connection points: 6
#     Node 12, Type 0, BuildingBlock: OJICUG_clean_sbu_0, # of connection points: 6
#     Node 13, Type 0, BuildingBlock: OJICUG_clean_sbu_0, # of connection points: 6
#     Node 14, Type 0, BuildingBlock: OJICUG_clean_sbu_0, # of connection points: 6
#     Node 15, Type 0, BuildingBlock: OJICUG_clean_sbu_0, # of connection points: 6
#     Edge 16, Type (0, 0), BuildingBlock: AJUNOK_clean_linker_0, # of connection points: 2
#     Edge 17, Type (0, 0), BuildingBlock: AJUNOK_clean_linker_0, # of connection points: 2
#     Edge 18, Type (0, 0), BuildingBlock: AJUNOK_clean_linker_0, # of connection points: 2
#     Edge 19, Type (0, 0), BuildingBlock: AJUNOK_clean_linker_0, # of connection points: 2
#     Edge 20, Type (0, 0), BuildingBlock: AJUNOK_clean_linker_0, # of connection points: 2
#     Edge 21, Type (0, 0), BuildingBlock: AJUNOK_clean_linker_0, # of connection points: 2
#     Edge 22, Type (0, 0), BuildingBlock: AJUNOK_clean_linker_0, # of connection points: 2
#     Edge 23, Type (0, 0), BuildingBlock: AJUNOK_clean_linker_0, # of connection points: 2
#     Edge 24, Type (0, 0), BuildingBlock: AJUNOK_clean_linker_0, # of connection points: 2
#     Edge 25, Type (0, 0), BuildingBlock: AJUNOK_clean_linker_0, # of connection points: 2
#     Edge 26, Type (0, 0), BuildingBlock: AJUNOK_clean_linker_0, # of connection points: 2
#     Edge 27, Type (0, 0), BuildingBlock: AJUNOK_clean_linker_0, # of connection points: 2
#     Edge 28, Type (0, 0), BuildingBlock: AJUNOK_clean_linker_0, # of connection points: 2
#     Edge 29, Type (0, 0), BuildingBlock: AJUNOK_clean_linker_0, # of connection points: 2
#     Edge 30, Type (0, 0), BuildingBlock: AJUNOK_clean_linker_0, # of connection points: 2
#     Edge 31, Type (0, 0), BuildingBlock: AJUNOK_clean_linker_0, # of connection points: 2
#     Edge 32, Type (0, 0), BuildingBlock: AJUNOK_clean_linker_0, # of connection points: 2
#     Edge 33, Type (0, 0), BuildingBlock: AJUNOK_clean_linker_0, # of connection points: 2
#     Edge 34, Type (0, 0), BuildingBlock: AJUNOK_clean_linker_0, # of connection points: 2
#     Edge 35, Type (0, 0), BuildingBlock: AJUNOK_clean_linker_0, # of connection points: 2
#     Edge 36, Type (0, 0), BuildingBlock: AJUNOK_clean_linker_0, # of connection points: 2
#     Edge 37, Type (0, 0), BuildingBlock: AJUNOK_clean_linker_0, # of connection points: 2
#     Edge 38, Type (0, 0), BuildingBlock: AJUNOK_clean_linker_0, # of connection points: 2
#     Edge 39, Type (0, 0), BuildingBlock: AJUNOK_clean_linker_0, # of connection points: 2
#     Edge 40, Type (0, 0), BuildingBlock: AJUNOK_clean_linker_0, # of connection points: 2
#     Edge 41, Type (0, 0), BuildingBlock: AJUNOK_clean_linker_0, # of connection points: 2
#     Edge 42, Type (0, 0), BuildingBlock: AJUNOK_clean_linker_0, # of connection points: 2
#     Edge 43, Type (0, 0), BuildingBlock: AJUNOK_clean_linker_0, # of connection points: 2
#     Edge 44, Type (0, 0), BuildingBlock: AJUNOK_clean_linker_0, # of connection points: 2
#     Edge 45, Type (0, 0), BuildingBlock: AJUNOK_clean_linker_0, # of connection points: 2
#     Edge 46, Type (0, 0), BuildingBlock: AJUNOK_clean_linker_0, # of connection points: 2
#     Edge 47, Type (0, 0), BuildingBlock: AJUNOK_clean_linker_0, # of connection points: 2
#     Edge 48, Type (0, 0), BuildingBlock: AJUNOK_clean_linker_0, # of connection points: 2
#     Edge 49, Type (0, 0), BuildingBlock: AJUNOK_clean_linker_0, # of connection points: 2
#     Edge 50, Type (0, 0), BuildingBlock: AJUNOK_clean_linker_0, # of connection points: 2
#     Edge 51, Type (0, 0), BuildingBlock: AJUNOK_clean_linker_0, # of connection points: 2
#     Edge 52, Type (0, 0), BuildingBlock: AJUNOK_clean_linker_0, # of connection points: 2
#     Edge 53, Type (0, 0), BuildingBlock: AJUNOK_clean_linker_0, # of connection points: 2
#     Edge 54, Type (0, 0), BuildingBlock: AJUNOK_clean_linker_0, # of connection points: 2
#     Edge 55, Type (0, 0), BuildingBlock: AJUNOK_clean_linker_0, # of connection points: 2
#     Edge 56, Type (0, 0), BuildingBlock: AJUNOK_clean_linker_0, # of connection points: 2
#     Edge 57, Type (0, 0), BuildingBlock: AJUNOK_clean_linker_0, # of connection points: 2
#     Edge 58, Type (0, 0), BuildingBlock: AJUNOK_clean_linker_0, # of connection points: 2
#     Edge 59, Type (0, 0), BuildingBlock: AJUNOK_clean_linker_0, # of connection points: 2
#     Edge 60, Type (0, 0), BuildingBlock: AJUNOK_clean_linker_0, # of connection points: 2
#     Edge 61, Type (0, 0), BuildingBlock: AJUNOK_clean_linker_0, # of connection points: 2
#     Edge 62, Type (0, 0), BuildingBlock: AJUNOK_clean_linker_0, # of connection points: 2
#     Edge 63, Type (0, 0), BuildingBlock: AJUNOK_clean_linker_0, # of connection points: 2
# Relax obj value: 0.342
# Max RMSD: 0.271
# Mean RMSD: 0.271
data_MOF--net-whr--node1-OJICUG_clean_sbu_0--edge1-AJUNOK_clean_linker_0
_symmetry_space_group_name_H-M    P1
_symmetry_Int_Tables_number       1
_symmetry_cell_setting            triclinic
loop_
_symmetry_equiv_pos_as_xyz
'x, y, z'
_cell_length_a     36.842853
_cell_length_b     36.852572
_cell_length_c     22.362202
_cell_angle_alpha  90.004729
_cell_angle_beta   90.02982
_cell_angle_gamma 89.957091
loop_
_atom_site_label
_atom_site_type_symbol
_atom_site_fract_x
_atom_site_fract_y
_atom_site_fract_z
_atom_type_partial_charge
Sc0 Sc 0.18367 0.05259 0.12263 0.0
Sc1 Sc 0.2309 0.10819 0.02543 0.0
Sc2 Sc 0.26094 0.01958 0.0521 0.0
O3 O 0.22542 0.06018 0.06646 0.0
C4 C 0.24616 0.00573 0.18504 0.0
C5 C 0.20722 0.1296 0.16039 0.0
C6 C 0.31241 0.08987 0.04562 0.0
C7 C 0.14741 0.10412 0.02447 0.0
C8 C 0.18308 0.98029 0.05361 0.0
C9 C 0.25171 0.05024 0.92292 0.0
O10 O 0.21326 0.01522 0.1784 0.0
O11 O 0.21414 0.13829 0.10607 0.0
O12 O 0.30737 0.05572 0.04224 0.0
O13 O 0.14711 0.0889 0.07547 0.0
O14 O 0.21775 0.97913 0.05331 0.0
O15 O 0.2465 0.0828 0.94074 0.0
O16 O 0.16494 0.00783 0.07037 0.0
O17 O 0.17606 0.10752 0.99372 0.0
O18 O 0.25367 0.02331 0.95812 0.0
O19 O 0.20174 0.09698 0.17664 0.0
O20 O 0.27063 0.01263 0.14663 0.0
O21 O 0.28662 0.11239 0.05256 0.0
Sc22 Sc 0.05272 0.81809 0.87293 0.0
Sc23 Sc 0.1083 0.77044 0.96924 0.0
Sc24 Sc 0.01986 0.74067 0.94064 0.0
O25 O 0.06051 0.7761 0.92791 0.0
C26 C 0.98029 0.81832 0.93906 0.0
C27 C 0.10527 0.85391 0.96996 0.0
C28 C 0.04927 0.75012 0.07042 0.0
C29 C 0.12938 0.79415 0.83433 0.0
C30 C 0.00682 0.75583 0.80841 0.0
C31 C 0.09002 0.68908 0.95005 0.0
O32 O 0.00875 0.83643 0.92729 0.0
O33 O 0.10816 0.82535 0.00114 0.0
O34 O 0.02249 0.74854 0.0347 0.0
O35 O 0.09673 0.79996 0.81834 0.0
O36 O 0.0147 0.731 0.84578 0.0
O37 O 0.11248 0.71473 0.94192 0.0
O38 O 0.01481 0.78896 0.81709 0.0
O39 O 0.13831 0.78712 0.88856 0.0
O40 O 0.05586 0.69425 0.95319 0.0
O41 O 0.08943 0.85424 0.9195 0.0
O42 O 0.97909 0.7837 0.93569 0.0
O43 O 0.08207 0.75489 0.05327 0.0
Sc44 Sc 0.74011 0.98196 0.06118 0.0
Sc45 Sc 0.76747 0.89381 0.02442 0.0
Sc46 Sc 0.81908 0.94702 0.1195 0.0
O47 O 0.77524 0.94049 0.06824 0.0
C48 C 0.81789 0.02037 0.05579 0.0
C49 C 0.74932 0.95686 0.92926 0.0
C50 C 0.85141 0.8952 0.01789 0.0
C51 C 0.68691 0.91343 0.04938 0.0
C52 C 0.75853 0.99132 0.19137 0.0
C53 C 0.79363 0.87013 0.1572 0.0
O54 O 0.78372 0.02256 0.06554 0.0
O55 O 0.75237 0.92302 0.94181 0.0
O56 O 0.8539 0.91161 0.06769 0.0
O57 O 0.69255 0.94751 0.04852 0.0
O58 O 0.79149 0.98387 0.17959 0.0
O59 O 0.78406 0.86198 0.10361 0.0
O60 O 0.73269 0.98403 0.15583 0.0
O61 O 0.71234 0.89041 0.05373 0.0
O62 O 0.80251 0.9021 0.17308 0.0
O63 O 0.74679 0.98145 0.96852 0.0
O64 O 0.83578 0.99151 0.0654 0.0
O65 O 0.82156 0.89195 0.99037 0.0
Sc66 Sc 0.98207 0.2612 0.94402 0.0
Sc67 Sc 0.89214 0.23365 0.96911 0.0
Sc68 Sc 0.94832 0.18354 0.87524 0.0
O69 O 0.94077 0.22617 0.92994 0.0
C70 C 0.9956 0.24509 0.8105 0.0
C71 C 0.91317 0.31456 0.94925 0.0
C72 C 0.87146 0.20911 0.83488 0.0
C73 C 0.94997 0.25383 0.07262 0.0
C74 C 0.02093 0.18292 0.94385 0.0
C75 C 0.89446 0.14921 0.97321 0.0
O76 O 0.98989 0.26978 0.84917 0.0
O77 O 0.89018 0.28937 0.94162 0.0
O78 O 0.90374 0.20048 0.82064 0.0
O79 O 0.97726 0.25513 0.03807 0.0
O80 O 0.99336 0.16504 0.92685 0.0
O81 O 0.88876 0.17883 0.00051 0.0
O82 O 0.02211 0.21754 0.94477 0.0
O83 O 0.9175 0.2483 0.05446 0.0
O84 O 0.91293 0.14761 0.92518 0.0
O85 O 0.94716 0.30867 0.95278 0.0
O86 O 0.98516 0.2125 0.81745 0.0
O87 O 0.86236 0.21832 0.88797 0.0
Sc88 Sc 0.74059 0.02078 0.55563 0.0
Sc89 Sc 0.76742 0.11057 0.52588 0.0
Sc90 Sc 0.81842 0.05599 0.61951 0.0
O91 O 0.77524 0.06272 0.56678 0.0
C92 C 0.75718 0.01168 0.68862 0.0
C93 C 0.68692 0.08939 0.54682 0.0
C94 C 0.79354 0.13313 0.6584 0.0
C95 C 0.74817 0.05038 0.42628 0.0
C96 C 0.81865 0.98237 0.55492 0.0
C97 C 0.8518 0.10863 0.52033 0.0
O98 O 0.73188 0.01571 0.65048 0.0
O99 O 0.71195 0.11251 0.55492 0.0
O100 O 0.80209 0.101 0.6738 0.0
O101 O 0.74778 0.02362 0.462 0.0
O102 O 0.83615 0.01115 0.5667 0.0
O103 O 0.8221 0.1139 0.49287 0.0
O104 O 0.78414 0.98045 0.55966 0.0
O105 O 0.75234 0.08338 0.44265 0.0
O106 O 0.85346 0.09094 0.56887 0.0
O107 O 0.69308 0.05542 0.54349 0.0
O108 O 0.78998 0.02015 0.67836 0.0
O109 O 0.78351 0.14144 0.60534 0.0
Sc110 Sc 0.05336 0.18553 0.3783 0.0
Sc111 Sc 0.10921 0.2372 0.46889 0.0
Sc112 Sc 0.01941 0.26406 0.44237 0.0
O113 O 0.06091 0.22913 0.42999 0.0
C114 C 0.00653 0.24635 0.31056 0.0
C115 C 0.12998 0.20921 0.336 0.0
C116 C 0.08822 0.31743 0.44679 0.0
C117 C 0.10749 0.15315 0.47707 0.0
C118 C 0.9809 0.18638 0.44549 0.0
C119 C 0.05054 0.25694 0.57154 0.0
O120 O 0.01581 0.2136 0.32021 0.0
O121 O 0.13893 0.21972 0.38861 0.0
O122 O 0.05435 0.31143 0.45235 0.0
O123 O 0.08937 0.15062 0.42885 0.0
O124 O 0.97888 0.2208 0.43995 0.0
O125 O 0.0833 0.25319 0.55329 0.0
O126 O 0.00953 0.16859 0.43373 0.0
O127 O 0.11227 0.18316 0.50361 0.0
O128 O 0.02326 0.25748 0.53672 0.0
O129 O 0.09751 0.20125 0.32167 0.0
O130 O 0.01326 0.27192 0.34726 0.0
O131 O 0.11104 0.29223 0.43774 0.0
Sc132 Sc 0.18224 0.94934 0.61474 0.0
Sc133 Sc 0.23485 0.89307 0.52577 0.0
Sc134 Sc 0.2614 0.98263 0.55238 0.0
O135 O 0.22618 0.94145 0.56397 0.0
C136 C 0.18402 0.02258 0.55053 0.0
C137 C 0.15079 0.89502 0.51529 0.0
C138 C 0.25516 0.95171 0.42362 0.0
C139 C 0.206 0.87248 0.65766 0.0
C140 C 0.24333 0.99503 0.68383 0.0
C141 C 0.31467 0.9138 0.54786 0.0
O142 O 0.16575 0.99393 0.55987 0.0
O143 O 0.1811 0.88976 0.48989 0.0
O144 O 0.25476 0.97911 0.45818 0.0
O145 O 0.1972 0.90483 0.67141 0.0
O146 O 0.26905 0.98796 0.64759 0.0
O147 O 0.28945 0.89139 0.55879 0.0
O148 O 0.21047 0.98628 0.67375 0.0
O149 O 0.21704 0.86345 0.60549 0.0
O150 O 0.30869 0.94759 0.54138 0.0
O151 O 0.14769 0.91373 0.56283 0.0
O152 O 0.21853 0.02352 0.55561 0.0
O153 O 0.25169 0.91895 0.44197 0.0
Sc154 Sc 0.98088 0.74018 0.44056 0.0
Sc155 Sc 0.89158 0.76824 0.46898 0.0
Sc156 Sc 0.94764 0.81913 0.3769 0.0
O157 O 0.93981 0.77576 0.42919 0.0
C158 C 0.02106 0.81752 0.44117 0.0
C159 C 0.95083 0.74713 0.57024 0.0
C160 C 0.8948 0.85259 0.47648 0.0
C161 C 0.91164 0.68759 0.44675 0.0
C162 C 0.99318 0.75759 0.30871 0.0
C163 C 0.87036 0.79505 0.33593 0.0
O164 O 0.02189 0.78294 0.4375 0.0
O165 O 0.91803 0.75228 0.55306 0.0
O166 O 0.91295 0.85467 0.4283 0.0
O167 O 0.94564 0.69313 0.45102 0.0
O168 O 0.98414 0.79041 0.31802 0.0
O169 O 0.86153 0.78483 0.38869 0.0
O170 O 0.98628 0.73215 0.34545 0.0
O171 O 0.88898 0.71307 0.439 0.0
O172 O 0.90264 0.80378 0.32161 0.0
O173 O 0.97778 0.74649 0.53482 0.0
O174 O 0.9926 0.83586 0.43048 0.0
O175 O 0.88864 0.82267 0.50259 0.0
Sc176 Sc 0.68485 0.54985 0.62441 0.0
Sc177 Sc 0.73181 0.60585 0.52808 0.0
Sc178 Sc 0.76191 0.51731 0.55446 0.0
O179 O 0.72644 0.55784 0.56868 0.0
C180 C 0.74786 0.50359 0.68656 0.0
C181 C 0.70777 0.62674 0.66308 0.0
C182 C 0.81312 0.58764 0.54619 0.0
C183 C 0.64856 0.60286 0.52844 0.0
C184 C 0.68442 0.47735 0.55769 0.0
C185 C 0.75232 0.54759 0.42563 0.0
O186 O 0.7147 0.51202 0.67927 0.0
O187 O 0.71482 0.6356 0.60887 0.0
O188 O 0.80805 0.55355 0.54169 0.0
O189 O 0.64844 0.58664 0.57855 0.0
O190 O 0.7191 0.47635 0.55962 0.0
O191 O 0.74751 0.58024 0.44351 0.0
O192 O 0.66633 0.50574 0.57032 0.0
O193 O 0.67688 0.60557 0.49662 0.0
O194 O 0.75341 0.52046 0.46061 0.0
O195 O 0.7028 0.59398 0.67919 0.0
O196 O 0.77238 0.51163 0.64884 0.0
O197 O 0.78742 0.60987 0.55574 0.0
Sc198 Sc 0.55199 0.31886 0.37897 0.0
Sc199 Sc 0.6076 0.26502 0.46716 0.0
Sc200 Sc 0.51783 0.23965 0.43978 0.0
O201 O 0.55932 0.27456 0.42907 0.0
C202 C 0.47869 0.31747 0.44382 0.0
C203 C 0.60616 0.34884 0.48011 0.0
C204 C 0.54885 0.24325 0.5682 0.0
C205 C 0.62892 0.29531 0.33671 0.0
C206 C 0.50617 0.2586 0.30804 0.0
C207 C 0.58633 0.18589 0.44298 0.0
O208 O 0.50744 0.33545 0.43378 0.0
O209 O 0.611 0.31827 0.50498 0.0
O210 O 0.52138 0.2453 0.53397 0.0
O211 O 0.59659 0.30392 0.32244 0.0
O212 O 0.51257 0.23279 0.34444 0.0
O213 O 0.6087 0.21103 0.43147 0.0
O214 O 0.51496 0.29139 0.31879 0.0
O215 O 0.63765 0.28399 0.38881 0.0
O216 O 0.55262 0.19206 0.45011 0.0
O217 O 0.58778 0.35254 0.43227 0.0
O218 O 0.47734 0.28301 0.43794 0.0
O219 O 0.58161 0.2468 0.55001 0.0
Sc220 Sc 0.24039 0.48618 0.55083 0.0
Sc221 Sc 0.26618 0.3963 0.5258 0.0
Sc222 Sc 0.31802 0.45181 0.61815 0.0
O223 O 0.27489 0.4446 0.56482 0.0
C224 C 0.31828 0.52509 0.55102 0.0
C225 C 0.24868 0.45476 0.4229 0.0
C226 C 0.35029 0.39758 0.51871 0.0
C227 C 0.18646 0.41778 0.54605 0.0
C228 C 0.25591 0.49843 0.68398 0.0
C229 C 0.29429 0.37445 0.65786 0.0
O230 O 0.28368 0.52651 0.55305 0.0
O231 O 0.25003 0.42183 0.44094 0.0
O232 O 0.3531 0.41612 0.56659 0.0
O233 O 0.19288 0.45145 0.53896 0.0
O234 O 0.28872 0.48848 0.67645 0.0
O235 O 0.28362 0.36611 0.60519 0.0
O236 O 0.23111 0.49275 0.64538 0.0
O237 O 0.21136 0.3951 0.55764 0.0
O238 O 0.30207 0.40679 0.67318 0.0
O239 O 0.24924 0.48189 0.45777 0.0
O240 O 0.33617 0.49702 0.56598 0.0
O241 O 0.3203 0.39302 0.49183 0.0
Sc242 Sc 0.48506 0.76328 0.44749 0.0
Sc243 Sc 0.3954 0.73471 0.46801 0.0
Sc244 Sc 0.45352 0.68608 0.37797 0.0
O245 O 0.44483 0.7279 0.43248 0.0
C246 C 0.5017 0.74708 0.31604 0.0
C247 C 0.41474 0.81498 0.44665 0.0
C248 C 0.37844 0.70699 0.33395 0.0
C249 C 0.45084 0.75714 0.57374 0.0
C250 C 0.52375 0.68496 0.45032 0.0
C251 C 0.39891 0.65176 0.47426 0.0
O252 O 0.49338 0.77207 0.35282 0.0
O253 O 0.39291 0.78931 0.43454 0.0
O254 O 0.4119 0.70651 0.32079 0.0
O255 O 0.47904 0.75656 0.54112 0.0
O256 O 0.49615 0.66692 0.43378 0.0
O257 O 0.39493 0.68076 0.50407 0.0
O258 O 0.5254 0.71963 0.44886 0.0
O259 O 0.41861 0.75321 0.55323 0.0
O260 O 0.41523 0.65089 0.42416 0.0
O261 O 0.44855 0.80968 0.4552 0.0
O262 O 0.49313 0.71411 0.32435 0.0
O263 O 0.36755 0.71399 0.38711 0.0
Sc264 Sc 0.23969 0.51791 0.0484 0.0
Sc265 Sc 0.26721 0.60798 0.02761 0.0
Sc266 Sc 0.31829 0.54894 0.10973 0.0
O267 O 0.27502 0.55834 0.06001 0.0
C268 C 0.26086 0.50335 0.17795 0.0
C269 C 0.18745 0.58766 0.05144 0.0
C270 C 0.29669 0.62115 0.16192 0.0
C271 C 0.2436 0.55271 0.92204 0.0
C272 C 0.31854 0.48111 0.03505 0.0
C273 C 0.34988 0.60667 0.01831 0.0
O274 O 0.23386 0.51097 0.14463 0.0
O275 O 0.21316 0.60942 0.06349 0.0
O276 O 0.29729 0.58726 0.17167 0.0
O277 O 0.24417 0.5243 0.95437 0.0
O278 O 0.33619 0.50994 0.04653 0.0
O279 O 0.32057 0.60953 0.98899 0.0
O280 O 0.28433 0.4782 0.04488 0.0
O281 O 0.24813 0.58495 0.94246 0.0
O282 O 0.35148 0.59041 0.06829 0.0
O283 O 0.19275 0.55389 0.04257 0.0
O284 O 0.29302 0.50587 0.15866 0.0
O285 O 0.28862 0.63405 0.11022 0.0
Sc286 Sc 0.55068 0.6851 0.87489 0.0
Sc287 Sc 0.60769 0.73421 0.96876 0.0
Sc288 Sc 0.51787 0.76251 0.9465 0.0
O289 O 0.55877 0.72725 0.9304 0.0
C290 C 0.50365 0.74787 0.81267 0.0
C291 C 0.62831 0.70773 0.83528 0.0
C292 C 0.58732 0.81508 0.95022 0.0
C293 C 0.60411 0.64997 0.97272 0.0
C294 C 0.47771 0.68503 0.94308 0.0
C295 C 0.5511 0.75431 0.07405 0.0
O296 O 0.51441 0.71527 0.81807 0.0
O297 O 0.63707 0.71744 0.88825 0.0
O298 O 0.55342 0.80936 0.95594 0.0
O299 O 0.58556 0.64864 0.92475 0.0
O300 O 0.47728 0.7196 0.9461 0.0
O301 O 0.58337 0.74978 0.05432 0.0
O302 O 0.50505 0.6669 0.92563 0.0
O303 O 0.61016 0.67944 0.0004 0.0
O304 O 0.52329 0.75516 0.04047 0.0
O305 O 0.59574 0.70103 0.82005 0.0
O306 O 0.50936 0.77213 0.85212 0.0
O307 O 0.60991 0.78977 0.94016 0.0
Sc308 Sc 0.68253 0.44913 0.11612 0.0
Sc309 Sc 0.73566 0.39236 0.02879 0.0
Sc310 Sc 0.76105 0.48273 0.05262 0.0
O311 O 0.72644 0.44116 0.06543 0.0
C312 C 0.68309 0.52109 0.04746 0.0
C313 C 0.6515 0.39432 0.01724 0.0
C314 C 0.75572 0.45013 0.925 0.0
C315 C 0.70718 0.37309 0.16138 0.0
C316 C 0.74315 0.49548 0.18458 0.0
C317 C 0.81521 0.41447 0.05047 0.0
O318 O 0.6655 0.49251 0.05983 0.0
O319 O 0.68192 0.3879 0.99284 0.0
O320 O 0.75467 0.47791 0.95868 0.0
O321 O 0.69799 0.40549 0.17388 0.0
O322 O 0.76866 0.48903 0.14766 0.0
O323 O 0.79027 0.39186 0.06208 0.0
O324 O 0.71027 0.4868 0.17456 0.0
O325 O 0.71801 0.36339 0.10941 0.0
O326 O 0.80881 0.44812 0.04302 0.0
O327 O 0.64837 0.41313 0.06462 0.0
O328 O 0.7175 0.52323 0.05367 0.0
O329 O 0.7525 0.41753 0.94425 0.0
Sc330 Sc 0.48363 0.2394 0.94017 0.0
Sc331 Sc 0.39435 0.26836 0.96379 0.0
Sc332 Sc 0.45082 0.3159 0.86854 0.0
O333 O 0.44277 0.27444 0.92451 0.0
C334 C 0.52305 0.31703 0.93705 0.0
C335 C 0.45231 0.24932 0.06792 0.0
C336 C 0.39789 0.35206 0.96492 0.0
C337 C 0.41375 0.18745 0.94696 0.0
C338 C 0.49671 0.25245 0.80708 0.0
C339 C 0.37384 0.2928 0.8289 0.0
O340 O 0.52463 0.28237 0.93538 0.0
O341 O 0.41967 0.25327 0.04925 0.0
O342 O 0.41507 0.35255 0.91568 0.0
O343 O 0.4477 0.19293 0.95309 0.0
O344 O 0.48815 0.28563 0.81348 0.0
O345 O 0.36482 0.28495 0.88269 0.0
O346 O 0.48973 0.22836 0.84613 0.0
O347 O 0.39148 0.21283 0.93575 0.0
O348 O 0.40659 0.29846 0.81344 0.0
O349 O 0.47973 0.24856 0.0336 0.0
O350 O 0.49478 0.33453 0.92215 0.0
O351 O 0.39299 0.3232 0.9947 0.0
C352 C 0.17249 0.18524 0.18772 0.0
C353 C 0.19741 0.15809 0.20433 0.0
C354 C 0.15296 0.20472 0.23116 0.0
C355 C 0.15842 0.19845 0.29264 0.0
H356 H 0.16534 0.18895 0.1411 0.0
H357 H 0.13159 0.22289 0.21655 0.0
S358 S 0.22438 0.134 0.35915 0.0
N359 N 0.22915 0.12859 0.28623 0.0
N360 N 0.19339 0.166 0.36768 0.0
C361 C 0.18592 0.17408 0.30966 0.0
C362 C 0.20517 0.15366 0.26551 0.0
C363 C 0.18423 0.82961 0.80642 0.0
C364 C 0.15764 0.80403 0.79027 0.0
C365 C 0.20274 0.84969 0.76263 0.0
C366 C 0.19613 0.84402 0.70133 0.0
H367 H 0.18807 0.83684 0.85296 0.0
H368 H 0.2204 0.87155 0.77686 0.0
S369 S 0.1332 0.77628 0.63604 0.0
N370 N 0.12845 0.77141 0.70907 0.0
N371 N 0.16424 0.80811 0.62687 0.0
C372 C 0.17251 0.81583 0.68474 0.0
C373 C 0.153 0.79606 0.72925 0.0
C374 C 0.84804 0.79684 0.23051 0.0
C375 C 0.84178 0.80378 0.2916 0.0
C376 C 0.8282 0.81495 0.18585 0.0
C377 C 0.80211 0.84127 0.20093 0.0
H378 H 0.87034 0.77946 0.21714 0.0
H379 H 0.83615 0.81124 0.1396 0.0
S380 S 0.77238 0.86604 0.35392 0.0
N381 N 0.80454 0.83545 0.36452 0.0
N382 N 0.7682 0.87034 0.28071 0.0
C383 C 0.79334 0.84594 0.26163 0.0
C384 C 0.81296 0.82695 0.30702 0.0
C385 C 0.79548 0.15785 0.76211 0.0
C386 C 0.8035 0.1621 0.70098 0.0
C387 C 0.81465 0.17725 0.80599 0.0
C388 C 0.84315 0.20073 0.7901 0.0
H389 H 0.77626 0.13733 0.77627 0.0
H390 H 0.80971 0.17086 0.85259 0.0
S391 S 0.87191 0.22438 0.63614 0.0
N392 N 0.83891 0.19461 0.62671 0.0
N393 N 0.87575 0.2301 0.70915 0.0
C394 C 0.84922 0.20753 0.72907 0.0
C395 C 0.82915 0.18844 0.68444 0.0
C396 C 0.65276 0.70234 0.73129 0.0
C397 C 0.65695 0.69598 0.79298 0.0
C398 C 0.67293 0.68267 0.68889 0.0
C399 C 0.69712 0.65512 0.70673 0.0
H400 H 0.63202 0.72091 0.7156 0.0
H401 H 0.66691 0.68667 0.64191 0.0
S402 S 0.72053 0.63038 0.86281 0.0
N403 N 0.68988 0.66283 0.86975 0.0
N404 N 0.7267 0.62501 0.79019 0.0
C405 C 0.70351 0.65045 0.76826 0.0
C406 C 0.68368 0.67109 0.81138 0.0
C407 C 0.65383 0.29817 0.23311 0.0
C408 C 0.65766 0.30611 0.29432 0.0
C409 C 0.67391 0.31707 0.18976 0.0
C410 C 0.69758 0.34529 0.20626 0.0
H411 H 0.63335 0.27904 0.21844 0.0
H412 H 0.66806 0.31206 0.14298 0.0
S413 S 0.71978 0.37416 0.36081 0.0
N414 N 0.68965 0.3414 0.36946 0.0
N415 N 0.72625 0.3779 0.28796 0.0
C416 C 0.70365 0.35154 0.26746 0.0
C417 C 0.68395 0.33168 0.31157 0.0
C418 C 0.31851 0.32853 0.80353 0.0
C419 C 0.34557 0.3039 0.78537 0.0
C420 C 0.29923 0.3493 0.76141 0.0
C421 C 0.30554 0.34536 0.69968 0.0
H422 H 0.31469 0.33444 0.85058 0.0
H423 H 0.28104 0.3703 0.77737 0.0
S424 S 0.36998 0.28099 0.62896 0.0
N425 N 0.37522 0.2743 0.70151 0.0
N426 N 0.33808 0.31227 0.62244 0.0
C427 C 0.32992 0.31827 0.6809 0.0
C428 C 0.35018 0.2978 0.72375 0.0
C429 C 0.30493 0.67961 0.22131 0.0
C430 C 0.31562 0.64385 0.20718 0.0
C431 C 0.32418 0.70022 0.2644 0.0
C432 C 0.35497 0.68574 0.29323 0.0
H433 H 0.28167 0.69158 0.19921 0.0
H434 H 0.3156 0.72772 0.27394 0.0
S435 S 0.3949 0.5943 0.27044 0.0
N436 N 0.35968 0.59565 0.22509 0.0
N437 N 0.39518 0.63399 0.30428 0.0
C438 C 0.36569 0.65021 0.27916 0.0
C439 C 0.34625 0.62939 0.23654 0.0
C440 C 0.14314 0.92699 0.0718 0.0
C441 C 0.16311 0.94855 0.03188 0.0
C442 C 0.12424 0.89632 0.05148 0.0
C443 C 0.12393 0.88706 0.99042 0.0
H444 H 0.14263 0.93356 0.11903 0.0
H445 H 0.10962 0.87988 0.08361 0.0
S446 S 0.17229 0.93535 0.86847 0.0
N447 N 0.18209 0.95874 0.9294 0.0
N448 N 0.1456 0.90192 0.89051 0.0
C449 C 0.14352 0.90888 0.95011 0.0
C450 C 0.1634 0.93947 0.97107 0.0
C451 C 0.91879 0.88921 0.0085 0.0
C452 C 0.88387 0.87671 0.99361 0.0
C453 C 0.94989 0.87055 0.98957 0.0
C454 C 0.94716 0.8383 0.95622 0.0
H455 H 0.92214 0.91349 0.03525 0.0
H456 H 0.97625 0.88098 0.00247 0.0
S457 S 0.86224 0.79462 0.90391 0.0
N458 N 0.8485 0.83053 0.94181 0.0
N459 N 0.90699 0.79533 0.90713 0.0
C460 C 0.9125 0.82574 0.94033 0.0
C461 C 0.88085 0.84502 0.9587 0.0
C462 C 0.84513 0.11866 0.03154 0.0
C463 C 0.87646 0.11582 0.99561 0.0
C464 C 0.82606 0.08775 0.05021 0.0
C465 C 0.8379 0.05277 0.03465 0.0
H466 H 0.83474 0.145 0.04442 0.0
H467 H 0.80205 0.09132 0.07761 0.0
S468 S 0.91816 0.03021 0.94128 0.0
N469 N 0.91827 0.07495 0.94502 0.0
N470 N 0.8827 0.01695 0.98068 0.0
C471 C 0.86929 0.04945 -0.00091 0.0
C472 C 0.88844 0.08093 0.97946 0.0
C473 C 0.06516 0.16543 0.02264 0.0
C474 C 0.05301 0.1625 0.96335 0.0
C475 C 0.09508 0.1453 0.04262 0.0
C476 C 0.11429 0.12243 0.0034 0.0
H477 H 0.0512 0.18309 0.05385 0.0
H478 H 0.10385 0.14838 0.08861 0.0
S479 S 0.09323 0.10581 0.84371 0.0
N480 N 0.06171 0.13474 0.86593 0.0
N481 N 0.11916 0.09814 0.9027 0.0
C482 C 0.10253 0.11956 0.94388 0.0
C483 C 0.07148 0.13927 0.92404 0.0
C484 C 0.82464 0.91491 0.54607 0.0
C485 C 0.83926 0.94968 0.53646 0.0
C486 C 0.84348 0.88361 0.52858 0.0
C487 C 0.87739 0.88589 0.49986 0.0
H488 H 0.79842 0.91179 0.56737 0.0
H489 H 0.83083 0.85747 0.53605 0.0
S490 S 0.92793 0.97032 0.46507 0.0
N491 N 0.8902 0.98446 0.49737 0.0
N492 N 0.92525 0.92561 0.4638 0.0
C493 C 0.8925 0.92042 0.49044 0.0
C494 C 0.87357 0.95229 0.50896 0.0
C495 C 0.88283 0.15704 0.46082 0.0
C496 C 0.88527 0.12647 0.49842 0.0
C497 C 0.91386 0.17663 0.44443 0.0
C498 C 0.94846 0.16598 0.46422 0.0
H499 H 0.85668 0.16655 0.44512 0.0
H500 H 0.91077 0.2001 0.41568 0.0
S501 S 0.96998 0.08801 0.56291 0.0
N502 N 0.92548 0.0865 0.55468 0.0
N503 N 0.98363 0.12321 0.52327 0.0
C504 C 0.95144 0.13528 0.50107 0.0
C505 C 0.9199 0.11555 0.51832 0.0
C506 C 0.11316 0.08563 0.48449 0.0
C507 C 0.12598 0.1203 0.50029 0.0
C508 C 0.13178 0.05417 0.5018 0.0
C509 C 0.16433 0.05618 0.53451 0.0
H510 H 0.08863 0.08274 0.45818 0.0
H511 H 0.12101 0.02809 0.4882 0.0
S512 S 0.20884 0.14013 0.58928 0.0
N513 N 0.17274 0.15461 0.55261 0.0
N514 N 0.2079 0.09546 0.58423 0.0
C515 C 0.17722 0.09058 0.55142 0.0
C516 C 0.15797 0.12262 0.53465 0.0
C517 C 0.08339 0.88946 0.50549 0.0
C518 C 0.11824 0.87621 0.49179 0.0
C519 C 0.05214 0.87056 0.48812 0.0
C520 C 0.05453 0.8373 0.45746 0.0
H521 H 0.08019 0.91454 0.53022 0.0
H522 H 0.0259 0.88172 0.50004 0.0
S523 S 0.13913 0.79128 0.40901 0.0
N524 N 0.15319 0.82816 0.44392 0.0
N525 N 0.09439 0.7925 0.41213 0.0
C526 C 0.08912 0.82393 0.44275 0.0
C527 C 0.12097 0.84345 0.45958 0.0
C528 C 0.63042 0.44697 0.51219 0.0
C529 C 0.66431 0.44413 0.54088 0.0
C530 C 0.61139 0.41599 0.4938 0.0
C531 C 0.62516 0.38098 0.50456 0.0
H532 H 0.61887 0.47337 0.5025 0.0
H533 H 0.58581 0.41953 0.47062 0.0
S534 S 0.71202 0.35878 0.58072 0.0
N535 N 0.71039 0.40354 0.58082 0.0
N536 N 0.67448 0.3453 0.54712 0.0
C537 C 0.65859 0.37775 0.53469 0.0
C538 C 0.67823 0.40931 0.55252 0.0
C539 C 0.41757 0.39161 0.50598 0.0
C540 C 0.38253 0.37768 0.49659 0.0
C541 C 0.44845 0.37211 0.48821 0.0
C542 C 0.44549 0.33758 0.46152 0.0
H543 H 0.42118 0.41779 0.52718 0.0
H544 H 0.47487 0.38399 0.4964 0.0
S545 S 0.35977 0.2886 0.42851 0.0
N546 N 0.34659 0.32708 0.45941 0.0
N547 N 0.40451 0.29034 0.42668 0.0
C548 C 0.41056 0.32328 0.45216 0.0
C549 C 0.37913 0.34337 0.46942 0.0
C550 C 0.37099 0.56761 0.55997 0.0
C551 C 0.33853 0.55752 0.53107 0.0
C552 C 0.39051 0.59844 0.54185 0.0
C553 C 0.37865 0.61943 0.49325 0.0
H554 H 0.38104 0.55189 0.59743 0.0
H555 H 0.41509 0.60575 0.56558 0.0
S556 S 0.29649 0.604 0.40117 0.0
N557 N 0.29578 0.57098 0.45115 0.0
N558 N 0.33323 0.62805 0.41594 0.0
C559 C 0.34669 0.60939 0.46346 0.0
C560 C 0.32638 0.57863 0.48269 0.0
C561 C 0.57645 0.64497 0.42959 0.0
C562 C 0.55548 0.66461 0.47082 0.0
C563 C 0.60651 0.62468 0.44857 0.0
C564 C 0.61574 0.62264 0.50952 0.0
H565 H 0.56976 0.64563 0.3824 0.0
H566 H 0.62249 0.61033 0.41547 0.0
S567 S 0.56884 0.6695 0.63463 0.0
N568 N 0.54573 0.68143 0.57441 0.0
N569 N 0.60153 0.6424 0.61083 0.0
C570 C 0.59453 0.64194 0.55115 0.0
C571 C 0.56452 0.66322 0.53156 0.0
C572 C 0.3463 0.38292 0.01574 0.0
C573 C 0.37942 0.38548 0.98476 0.0
C574 C 0.32643 0.41397 0.03069 0.0
C575 C 0.33923 0.44877 0.01608 0.0
H576 H 0.33513 0.35666 0.02736 0.0
H577 H 0.30107 0.41063 0.05456 0.0
S578 S 0.42493 0.47025 0.9362 0.0
N579 N 0.42443 0.42552 0.94049 0.0
N580 N 0.38731 0.48407 0.96925 0.0
C581 C 0.37257 0.45177 0.9857 0.0
C582 C 0.39259 0.42008 0.96984 0.0
C583 C 0.40043 0.64968 0.03725 0.0
C584 C 0.3822 0.62633 0.99758 0.0
C585 C 0.43103 0.66923 0.01881 0.0
C586 C 0.44496 0.66509 0.96081 0.0
H587 H 0.39063 0.65323 0.08258 0.0
H588 H 0.44427 0.6872 0.05039 0.0
S589 S 0.40754 0.60686 0.8406 0.0
N590 N 0.37989 0.60042 0.8978 0.0
N591 N 0.43866 0.63589 0.86395 0.0
C592 C 0.42728 0.64153 0.92098 0.0
C593 C 0.39548 0.62246 0.93918 0.0
C594 C 0.65547 0.61934 0.02548 0.0
C595 C 0.62251 0.6166 0.99381 0.0
C596 C 0.67518 0.58837 0.04184 0.0
C597 C 0.6624 0.55344 0.02809 0.0
H598 H 0.66665 0.64568 0.03657 0.0
H599 H 0.70044 0.59185 0.06601 0.0
S600 S 0.57751 0.53125 0.94629 0.0
N601 N 0.57798 0.57601 0.9494 0.0
N602 N 0.61474 0.51777 0.98092 0.0
C603 C 0.62931 0.55023 0.99698 0.0
C604 C 0.60947 0.58179 0.97961 0.0
C605 C 0.59031 0.32241 0.95038 0.0
C606 C 0.55554 0.33789 0.95563 0.0
C607 C 0.62138 0.34149 0.96817 0.0
C608 C 0.61877 0.37651 0.99288 0.0
H609 H 0.59362 0.29532 0.93233 0.0
H610 H 0.64752 0.32823 0.96427 0.0
S611 S 0.53442 0.42989 0.01437 0.0
N612 N 0.52055 0.39104 0.98559 0.0
N613 N 0.57898 0.42651 0.01976 0.0
C614 C 0.58431 0.39256 0.99762 0.0
C615 C 0.55271 0.37337 0.97877 0.0
C616 C 0.27629 0.00085 0.78055 0.0
C617 C 0.25068 0.01444 0.73997 0.0
C618 C 0.27787 0.01428 0.83913 0.0
C619 C 0.25441 0.04217 0.85848 0.0
H620 H 0.29347 0.97818 0.76824 0.0
H621 H 0.29658 0.00171 0.87029 0.0
S622 S 0.18583 0.08982 0.76613 0.0
N623 N 0.20362 0.05923 0.72078 0.0
N624 N 0.20723 0.08507 0.8306 0.0
C625 C 0.23065 0.05782 0.8168 0.0
C626 C 0.22857 0.0437 0.75756 0.0
C627 C 0.99912 0.72496 0.21175 0.0
C628 C 0.01291 0.75003 0.253 0.0
C629 C 0.0127 0.72371 0.15325 0.0
C630 C 0.04089 0.747 0.13469 0.0
H631 H 0.97615 0.70805 0.22345 0.0
H632 H 1.00001 0.70544 0.12156 0.0
S633 S 0.08932 0.81388 0.22913 0.0
N634 N 0.05833 0.79615 0.27377 0.0
N635 N 0.08446 0.79314 0.16411 0.0
C636 C 0.05683 0.77004 0.1771 0.0
C637 C 0.04258 0.77177 0.23626 0.0
C638 C 0.73538 0.95029 0.81928 0.0
C639 C 0.75043 0.97009 0.86705 0.0
C640 C 0.7349 0.96485 0.76104 0.0
C641 C 0.74962 0.99937 0.74955 0.0
H642 H 0.72402 0.92361 0.82693 0.0
H643 H 0.72442 0.94855 0.72462 0.0
S644 S 0.79318 0.0615 0.85832 0.0
N645 N 0.78147 0.02561 0.89783 0.0
N646 N 0.77932 0.05284 0.78968 0.0
C647 C 0.76424 0.0194 0.79697 0.0
C648 C 0.76512 0.00473 0.85538 0.0
C649 C 0.94642 0.23008 0.17646 0.0
C650 C 0.95756 0.25739 0.13693 0.0
C651 C 0.96106 0.22802 0.23419 0.0
C652 C 0.98672 0.25359 0.25453 0.0
H653 H 0.92839 0.20875 0.16133 0.0
H654 H 0.95341 0.20533 0.26232 0.0
S655 S 0.02069 0.33309 0.1704 0.0
N656 N 0.99293 0.31244 0.12338 0.0
N657 N 0.01974 0.30899 0.23269 0.0
C658 C 0.99573 0.28268 0.21708 0.0
C659 C 0.98134 0.28442 0.15793 0.0
C660 C 0.77516 0.03805 0.26618 0.0
C661 C 0.75108 0.01071 0.24722 0.0
C662 C 0.77202 0.05359 0.323 0.0
C663 C 0.74521 0.04156 0.3627 0.0
H664 H 0.79734 0.04658 0.23765 0.0
H665 H 0.7922 0.07312 0.33738 0.0
S666 S 0.67351 0.97343 0.33231 0.0
N667 N 0.69764 0.97481 0.27012 0.0
N668 N 0.6924 0.00312 0.37806 0.0
C669 C 0.71972 0.01581 0.34301 0.0
C670 C 0.72246 0.00059 0.28478 0.0
C671 C 0.01521 0.28246 0.65683 0.0
C672 C 0.04279 0.25905 0.6362 0.0
C673 C 0.00186 0.27997 0.71546 0.0
C674 C 0.01515 0.25343 0.75473 0.0
H675 H 0.0028 0.30181 0.62658 0.0
H676 H 0.9794 0.29718 0.72872 0.0
S677 S 0.08934 0.18785 0.72452 0.0
N678 N 0.08491 0.21068 0.66136 0.0
N679 N 0.05916 0.20527 0.77102 0.0
C680 C 0.04405 0.23127 0.73578 0.0
C681 C 0.05813 0.23431 0.6766 0.0
C682 C 0.28123 0.98786 0.34004 0.0
C683 C 0.25869 0.95921 0.35916 0.0
C684 C 0.27967 0.0009 0.28121 0.0
C685 C 0.25503 0.98605 0.24022 0.0
H686 H 0.29897 0.00141 0.37159 0.0
H687 H 0.29578 0.02436 0.26913 0.0
S688 S 0.19305 0.90836 0.26583 0.0
N689 N 0.21372 0.91422 0.33071 0.0
N690 N 0.21007 0.93935 0.22043 0.0
C691 C 0.23414 0.95592 0.25755 0.0
C692 C 0.23621 0.94223 0.31703 0.0
C693 C 0.95912 0.77042 0.73366 0.0
C694 C 0.98735 0.74729 0.75264 0.0
C695 C 0.94489 0.76816 0.67564 0.0
C696 C 0.9591 0.74324 0.63442 0.0
H697 H 0.94911 0.79155 0.76309 0.0
H698 H 0.92462 0.78774 0.66174 0.0
S699 S 0.03007 0.674 0.66412 0.0
N700 N 0.0263 0.69638 0.72784 0.0
N701 N 1.00035 0.69261 0.61803 0.0
C702 C 0.98564 0.71841 0.65409 0.0
C703 C 0.99957 0.72026 0.71352 0.0
C704 C 0.72929 0.55378 0.32146 0.0
C705 C 0.75526 0.53987 0.36122 0.0
C706 C 0.72685 0.54048 0.26288 0.0
C707 C 0.75085 0.51357 0.24189 0.0
H708 H 0.70925 0.57319 0.33683 0.0
H709 H 0.70514 0.55033 0.23445 0.0
S710 S 0.82631 0.47164 0.32664 0.0
N711 N 0.80725 0.49997 0.37454 0.0
N712 N 0.80318 0.47578 0.26369 0.0
C713 C 0.77859 0.50146 0.27983 0.0
C714 C 0.78062 0.51441 0.33981 0.0
C715 C 0.55804 0.26185 0.67388 0.0
C716 C 0.54152 0.23862 0.63234 0.0
C717 C 0.54485 0.26421 0.73245 0.0
C718 C 0.51542 0.24278 0.75145 0.0
H719 H 0.57931 0.28028 0.65988 0.0
H720 H 0.55646 0.28432 0.7622 0.0
S721 S 0.46646 0.17404 0.66199 0.0
N722 N 0.4968 0.19115 0.6155 0.0
N723 N 0.47266 0.19512 0.72639 0.0
C724 C 0.50084 0.21721 0.71194 0.0
C725 C 0.51375 0.21527 0.65201 0.0
C726 C 0.22686 0.46932 0.25864 0.0
C727 C 0.25667 0.49046 0.24023 0.0
C728 C 0.22486 0.45569 0.3175 0.0
C729 C 0.25253 0.46313 0.35912 0.0
H730 H 0.20525 0.46309 0.22745 0.0
H731 H 0.20123 0.44025 0.33096 0.0
S732 S 0.33557 0.51757 0.33415 0.0
N733 N 0.31392 0.51862 0.2696 0.0
N734 N 0.31009 0.49263 0.37865 0.0
C735 C 0.28228 0.48402 0.34116 0.0
C736 C 0.28435 0.49784 0.28212 0.0
C737 C 0.48436 0.78457 0.65903 0.0
C738 C 0.45701 0.76088 0.63854 0.0
C739 C 0.4973 0.78274 0.71794 0.0
C740 C 0.48369 0.75667 0.75761 0.0
H741 H 0.49721 0.80334 0.62833 0.0
H742 H 0.51989 0.79982 0.73098 0.0
S743 S 0.40947 0.69112 0.72816 0.0
N744 N 0.41444 0.71312 0.66432 0.0
N745 N 0.43931 0.70904 0.77475 0.0
C746 C 0.45469 0.73457 0.73898 0.0
C747 C 0.4411 0.73688 0.67942 0.0
C748 C 0.26912 0.55774 0.81992 0.0
C749 C 0.24064 0.5467 0.85727 0.0
C750 C 0.27268 0.54327 0.76228 0.0
C751 C 0.24749 0.51791 0.73986 0.0
H752 H 0.2903 0.57535 0.83691 0.0
H753 H 0.2962 0.55079 0.73599 0.0
S754 S 0.16562 0.48411 0.81785 0.0
N755 N 0.18517 0.51155 0.86661 0.0
N756 N 0.19128 0.48523 0.7573 0.0
C757 C 0.21728 0.50905 0.775 0.0
C758 C 0.21405 0.52322 0.83411 0.0
C759 C 0.51697 0.78106 0.15958 0.0
C760 C 0.54468 0.7578 0.13895 0.0
C761 C 0.50532 0.78015 0.21926 0.0
C762 C 0.52059 0.75544 0.25976 0.0
H763 H 0.50309 0.79898 0.12869 0.0
H764 H 0.48248 0.79685 0.2325 0.0
S765 S 0.59628 0.69154 0.23007 0.0
N766 N 0.58932 0.71195 0.1653 0.0
N767 N 0.56678 0.70952 0.27715 0.0
C768 C 0.54983 0.73375 0.24076 0.0
C769 C 0.56212 0.73515 0.18036 0.0
C770 C 0.78239 0.48599 0.84176 0.0
C771 C 0.76002 0.45711 0.86053 0.0
C772 C 0.78109 0.49897 0.78291 0.0
C773 C 0.75691 0.48381 0.74154 0.0
H774 H 0.79966 0.49985 0.87364 0.0
H775 H 0.79691 0.52269 0.77116 0.0
S776 S 0.69615 0.40502 0.76583 0.0
N777 N 0.71612 0.4113 0.83119 0.0
N778 N 0.71299 0.43628 0.72077 0.0
C779 C 0.73645 0.45328 0.7584 0.0
C780 C 0.73823 0.43968 0.81796 0.0
C781 C 0.46168 0.27638 0.2295 0.0
C782 C 0.48757 0.25136 0.25087 0.0
C783 C 0.44766 0.27377 0.17135 0.0
C784 C 0.45979 0.24653 0.13241 0.0
H785 H 0.45316 0.29894 0.25727 0.0
H786 H 0.42921 0.29458 0.15554 0.0
S787 S 0.52453 0.17251 0.16829 0.0
N788 N 0.52218 0.19667 0.2304 0.0
N789 N 0.4969 0.19245 0.12024 0.0
C790 C 0.48415 0.22023 0.15425 0.0
C791 C 0.49775 0.22242 0.21384 0.0
C792 C 0.37378 0.13367 0.93368 0.0
C793 C 0.3977 0.15355 0.96985 0.0
C794 C 0.34885 0.10937 0.95907 0.0
C795 C 0.3463 0.10507 0.02151 0.0
H796 H 0.37253 0.13888 0.88603 0.0
H797 H 0.32921 0.09639 0.92999 0.0
S798 S 0.40432 0.14916 0.13523 0.0
N799 N 0.41937 0.16506 0.07077 0.0
N800 N 0.37108 0.12082 0.11847 0.0
C801 C 0.37141 0.12309 0.05785 0.0
C802 C 0.39756 0.14698 0.03191 0.0
C803 C 0.15133 0.60776 0.96436 0.0
C804 C 0.15428 0.6044 0.02698 0.0
C805 C 0.12773 0.63323 0.93834 0.0
C806 C 0.10537 0.65511 0.9741 0.0
H807 H 0.16976 0.59301 0.93547 0.0
H808 H 0.1287 0.63747 0.89042 0.0
S809 S 0.10001 0.6539 0.13973 0.0
N810 N 0.13146 0.62342 0.12364 0.0
N811 N 0.0853 0.66953 0.07485 0.0
C812 C 0.10578 0.64963 0.03642 0.0
C813 C 0.13073 0.62469 0.06293 0.0
C814 C 0.63306 0.8739 0.06382 0.0
C815 C 0.65195 0.8989 0.02822 0.0
C816 C 0.60836 0.84947 0.03816 0.0
C817 C 0.60265 0.84851 0.9759 0.0
H818 H 0.63955 0.87129 0.1109 0.0
H819 H 0.59628 0.82893 0.06655 0.0
S820 S 0.64312 0.91026 0.86406 0.0
N821 N 0.66065 0.9236 0.92846 0.0
N822 N 0.61556 0.87626 0.88006 0.0
C823 C 0.61944 0.87486 0.94041 0.0
C824 C 0.64376 0.9005 0.96674 0.0
C825 C 0.86884 0.37407 0.06323 0.0
C826 C 0.84952 0.39893 0.02787 0.0
C827 C 0.89339 0.34959 0.03721 0.0
C828 C 0.8985 0.34836 0.97482 0.0
H829 H 0.86296 0.37174 0.11054 0.0
H830 H 0.90583 0.3292 0.06553 0.0
S831 S 0.85652 0.40945 0.86326 0.0
N832 N 0.83985 0.42319 0.928 0.0
N833 N 0.8843 0.37553 0.87897 0.0
C834 C 0.88119 0.37449 0.93946 0.0
C835 C 0.85713 0.40027 0.96614 0.0
C836 C 0.63143 0.12755 0.55821 0.0
C837 C 0.65244 0.10393 0.5232 0.0
C838 C 0.60614 0.15107 0.53157 0.0
C839 C 0.60206 0.15266 0.46896 0.0
H840 H 0.63641 0.12968 0.60584 0.0
H841 H 0.59225 0.17055 0.55976 0.0
S842 S 0.64883 0.09467 0.35812 0.0
N843 N 0.66504 0.08119 0.42334 0.0
N844 N 0.61919 0.12708 0.37325 0.0
C845 C 0.62124 0.12773 0.43389 0.0
C846 C 0.64603 0.1029 0.46113 0.0
C847 C 0.12767 0.37165 0.43283 0.0
C848 C 0.10336 0.35203 0.46867 0.0
C849 C 0.15166 0.39688 0.45831 0.0
C850 C 0.15296 0.40235 0.52062 0.0
H851 H 0.12996 0.36556 0.38558 0.0
H852 H 0.1717 0.40957 0.42969 0.0
S853 S 0.09336 0.35942 0.63328 0.0
N854 N 0.07979 0.34214 0.56886 0.0
N855 N 0.1265 0.38794 0.61691 0.0
C856 C 0.12738 0.38459 0.55643 0.0
C857 C 0.10211 0.35983 0.53031 0.0
C858 C 0.39356 0.84969 0.53436 0.0
C859 C 0.39821 0.84799 0.4719 0.0
C860 C 0.36872 0.87391 0.56028 0.0
C861 C 0.34872 0.8981 0.52471 0.0
H862 H 0.40682 0.83 0.56297 0.0
H863 H 0.36334 0.87202 0.60781 0.0
S864 S 0.35404 0.90708 0.35969 0.0
N865 N 0.3826 0.87386 0.37564 0.0
N866 N 0.33762 0.9211 0.42445 0.0
C867 C 0.35563 0.89886 0.46276 0.0
C868 C 0.37995 0.87329 0.43621 0.0
C869 C 0.87115 0.63431 0.43258 0.0
C870 C 0.89636 0.65299 0.46814 0.0
C871 C 0.84689 0.60944 0.45818 0.0
C872 C 0.8463 0.60336 0.52035 0.0
H873 H 0.8684 0.64092 0.38559 0.0
H874 H 0.82626 0.5974 0.42987 0.0
S875 S 0.90831 0.64368 0.63215 0.0
N876 N 0.9214 0.66137 0.56778 0.0
N877 N 0.87433 0.61607 0.61612 0.0
C878 C 0.87273 0.62011 0.5558 0.0
C879 C 0.89821 0.64457 0.52951 0.0
loop_
_geom_bond_atom_site_label_1
_geom_bond_atom_site_label_2
_geom_bond_distance
_geom_bond_site_symmetry_2
_ccdc_geom_bond_type
Sc0 O3 2.025 . S
Sc0 O10 2.105 . S
Sc0 O13 2.105 . S
Sc0 O16 2.105 1_545 S
Sc0 O19 2.105 . S
Sc1 O3 2.025 . S
Sc1 O11 2.105 . S
Sc1 O15 2.105 1_554 S
Sc1 O17 2.105 1_554 S
Sc1 O21 2.105 . S
Sc2 O3 2.025 . S
Sc2 O12 2.105 . S
Sc2 O14 2.105 1_545 S
Sc2 O18 2.105 1_554 S
Sc2 O20 2.105 . S
O3 Sc0 2.025 . S
O3 Sc1 2.025 . S
O3 Sc2 2.025 . S
C4 O10 1.268 . S
C4 O20 1.268 . S
C5 O11 1.268 . S
C5 O19 1.268 . S
C6 O12 1.268 . S
C6 O21 1.268 . S
C7 O13 1.268 . S
C7 O17 1.268 1_554 S
C8 O14 1.268 . S
C8 O16 1.268 . S
C9 O15 1.268 . S
C9 O18 1.268 . S
O10 Sc0 2.105 . S
O10 C4 1.268 . S
O11 Sc1 2.105 . S
O11 C5 1.268 . S
O12 Sc2 2.105 . S
O12 C6 1.268 . S
O13 Sc0 2.105 . S
O13 C7 1.268 . S
O14 Sc2 2.105 1_565 S
O14 C8 1.268 . S
O15 Sc1 2.105 1_556 S
O15 C9 1.268 . S
O16 Sc0 2.105 1_565 S
O16 C8 1.268 . S
O17 Sc1 2.105 1_556 S
O17 C7 1.268 1_556 S
O18 Sc2 2.105 1_556 S
O18 C9 1.268 . S
O19 Sc0 2.105 . S
O19 C5 1.268 . S
O20 Sc2 2.105 . S
O20 C4 1.268 . S
O21 Sc1 2.105 . S
O21 C6 1.268 . S
Sc22 O25 2.025 . S
Sc22 O32 2.105 1_455 S
Sc22 O35 2.105 . S
Sc22 O38 2.105 . S
Sc22 O41 2.105 . S
Sc23 O25 2.025 . S
Sc23 O33 2.105 1_556 S
Sc23 O37 2.105 . S
Sc23 O39 2.105 . S
Sc23 O43 2.105 1_556 S
Sc24 O25 2.025 . S
Sc24 O34 2.105 1_556 S
Sc24 O36 2.105 . S
Sc24 O40 2.105 . S
Sc24 O42 2.105 1_455 S
O25 Sc22 2.025 . S
O25 Sc23 2.025 . S
O25 Sc24 2.025 . S
C26 O32 1.268 . S
C26 O42 1.268 . S
C27 O33 1.268 1_556 S
C27 O41 1.268 . S
C28 O34 1.268 . S
C28 O43 1.268 . S
C29 O35 1.268 . S
C29 O39 1.268 . S
C30 O36 1.268 . S
C30 O38 1.268 . S
C31 O37 1.268 . S
C31 O40 1.268 . S
O32 Sc22 2.105 1_655 S
O32 C26 1.268 . S
O33 Sc23 2.105 1_554 S
O33 C27 1.268 1_554 S
O34 Sc24 2.105 1_554 S
O34 C28 1.268 . S
O35 Sc22 2.105 . S
O35 C29 1.268 . S
O36 Sc24 2.105 . S
O36 C30 1.268 . S
O37 Sc23 2.105 . S
O37 C31 1.268 . S
O38 Sc22 2.105 . S
O38 C30 1.268 . S
O39 Sc23 2.105 . S
O39 C29 1.268 . S
O40 Sc24 2.105 . S
O40 C31 1.268 . S
O41 Sc22 2.105 . S
O41 C27 1.268 . S
O42 Sc24 2.105 1_655 S
O42 C26 1.268 . S
O43 Sc23 2.105 1_554 S
O43 C28 1.268 . S
Sc44 O47 2.025 . S
Sc44 O54 2.105 1_565 S
Sc44 O57 2.105 . S
Sc44 O60 2.105 . S
Sc44 O63 2.105 1_554 S
Sc45 O47 2.025 . S
Sc45 O55 2.105 1_554 S
Sc45 O59 2.105 . S
Sc45 O61 2.105 . S
Sc45 O65 2.105 1_554 S
Sc46 O47 2.025 . S
Sc46 O56 2.105 . S
Sc46 O58 2.105 . S
Sc46 O62 2.105 . S
Sc46 O64 2.105 1_565 S
O47 Sc44 2.025 . S
O47 Sc45 2.025 . S
O47 Sc46 2.025 . S
C48 O54 1.268 . S
C48 O64 1.268 . S
C49 O55 1.268 . S
C49 O63 1.268 . S
C50 O56 1.268 . S
C50 O65 1.268 1_554 S
C51 O57 1.268 . S
C51 O61 1.268 . S
C52 O58 1.268 . S
C52 O60 1.268 . S
C53 O59 1.268 . S
C53 O62 1.268 . S
O54 Sc44 2.105 1_545 S
O54 C48 1.268 . S
O55 Sc45 2.105 1_556 S
O55 C49 1.268 . S
O56 Sc46 2.105 . S
O56 C50 1.268 . S
O57 Sc44 2.105 . S
O57 C51 1.268 . S
O58 Sc46 2.105 . S
O58 C52 1.268 . S
O59 Sc45 2.105 . S
O59 C53 1.268 . S
O60 Sc44 2.105 . S
O60 C52 1.268 . S
O61 Sc45 2.105 . S
O61 C51 1.268 . S
O62 Sc46 2.105 . S
O62 C53 1.268 . S
O63 Sc44 2.105 1_556 S
O63 C49 1.268 . S
O64 Sc46 2.105 1_545 S
O64 C48 1.268 . S
O65 Sc45 2.105 1_556 S
O65 C50 1.268 1_556 S
Sc66 O69 2.025 . S
Sc66 O76 2.105 . S
Sc66 O79 2.105 1_556 S
Sc66 O82 2.105 1_655 S
Sc66 O85 2.105 . S
Sc67 O69 2.025 . S
Sc67 O77 2.105 . S
Sc67 O81 2.105 1_556 S
Sc67 O83 2.105 1_556 S
Sc67 O87 2.105 . S
Sc68 O69 2.025 . S
Sc68 O78 2.105 . S
Sc68 O80 2.105 1_655 S
Sc68 O84 2.105 . S
Sc68 O86 2.105 . S
O69 Sc66 2.025 . S
O69 Sc67 2.025 . S
O69 Sc68 2.025 . S
C70 O76 1.268 . S
C70 O86 1.268 . S
C71 O77 1.268 . S
C71 O85 1.268 . S
C72 O78 1.268 . S
C72 O87 1.268 . S
C73 O79 1.268 . S
C73 O83 1.268 . S
C74 O80 1.268 . S
C74 O82 1.268 . S
C75 O81 1.268 1_556 S
C75 O84 1.268 . S
O76 Sc66 2.105 . S
O76 C70 1.268 . S
O77 Sc67 2.105 . S
O77 C71 1.268 . S
O78 Sc68 2.105 . S
O78 C72 1.268 . S
O79 Sc66 2.105 1_554 S
O79 C73 1.268 . S
O80 Sc68 2.105 1_455 S
O80 C74 1.268 . S
O81 Sc67 2.105 1_554 S
O81 C75 1.268 1_554 S
O82 Sc66 2.105 1_455 S
O82 C74 1.268 . S
O83 Sc67 2.105 1_554 S
O83 C73 1.268 . S
O84 Sc68 2.105 . S
O84 C75 1.268 . S
O85 Sc66 2.105 . S
O85 C71 1.268 . S
O86 Sc68 2.105 . S
O86 C70 1.268 . S
O87 Sc67 2.105 . S
O87 C72 1.268 . S
Sc88 O91 2.025 . S
Sc88 O98 2.105 . S
Sc88 O101 2.105 . S
Sc88 O104 2.105 1_545 S
Sc88 O107 2.105 . S
Sc89 O91 2.025 . S
Sc89 O99 2.105 . S
Sc89 O103 2.105 . S
Sc89 O105 2.105 . S
Sc89 O109 2.105 . S
Sc90 O91 2.025 . S
Sc90 O100 2.105 . S
Sc90 O102 2.105 1_545 S
Sc90 O106 2.105 . S
Sc90 O108 2.105 . S
O91 Sc88 2.025 . S
O91 Sc89 2.025 . S
O91 Sc90 2.025 . S
C92 O98 1.268 . S
C92 O108 1.268 . S
C93 O99 1.268 . S
C93 O107 1.268 . S
C94 O100 1.268 . S
C94 O109 1.268 . S
C95 O101 1.268 . S
C95 O105 1.268 . S
C96 O102 1.268 . S
C96 O104 1.268 . S
C97 O103 1.268 . S
C97 O106 1.268 . S
O98 Sc88 2.105 . S
O98 C92 1.268 . S
O99 Sc89 2.105 . S
O99 C93 1.268 . S
O100 Sc90 2.105 . S
O100 C94 1.268 . S
O101 Sc88 2.105 . S
O101 C95 1.268 . S
O102 Sc90 2.105 1_565 S
O102 C96 1.268 . S
O103 Sc89 2.105 . S
O103 C97 1.268 . S
O104 Sc88 2.105 1_565 S
O104 C96 1.268 . S
O105 Sc89 2.105 . S
O105 C95 1.268 . S
O106 Sc90 2.105 . S
O106 C97 1.268 . S
O107 Sc88 2.105 . S
O107 C93 1.268 . S
O108 Sc90 2.105 . S
O108 C92 1.268 . S
O109 Sc89 2.105 . S
O109 C94 1.268 . S
Sc110 O113 2.025 . S
Sc110 O120 2.105 . S
Sc110 O123 2.105 . S
Sc110 O126 2.105 1_455 S
Sc110 O129 2.105 . S
Sc111 O113 2.025 . S
Sc111 O121 2.105 . S
Sc111 O125 2.105 . S
Sc111 O127 2.105 . S
Sc111 O131 2.105 . S
Sc112 O113 2.025 . S
Sc112 O122 2.105 . S
Sc112 O124 2.105 1_455 S
Sc112 O128 2.105 . S
Sc112 O130 2.105 . S
O113 Sc110 2.025 . S
O113 Sc111 2.025 . S
O113 Sc112 2.025 . S
C114 O120 1.268 . S
C114 O130 1.268 . S
C115 O121 1.268 . S
C115 O129 1.268 . S
C116 O122 1.268 . S
C116 O131 1.268 . S
C117 O123 1.268 . S
C117 O127 1.268 . S
C118 O124 1.268 . S
C118 O126 1.268 . S
C119 O125 1.268 . S
C119 O128 1.268 . S
O120 Sc110 2.105 . S
O120 C114 1.268 . S
O121 Sc111 2.105 . S
O121 C115 1.268 . S
O122 Sc112 2.105 . S
O122 C116 1.268 . S
O123 Sc110 2.105 . S
O123 C117 1.268 . S
O124 Sc112 2.105 1_655 S
O124 C118 1.268 . S
O125 Sc111 2.105 . S
O125 C119 1.268 . S
O126 Sc110 2.105 1_655 S
O126 C118 1.268 . S
O127 Sc111 2.105 . S
O127 C117 1.268 . S
O128 Sc112 2.105 . S
O128 C119 1.268 . S
O129 Sc110 2.105 . S
O129 C115 1.268 . S
O130 Sc112 2.105 . S
O130 C114 1.268 . S
O131 Sc111 2.105 . S
O131 C116 1.268 . S
Sc132 O135 2.025 . S
Sc132 O142 2.105 1_565 S
Sc132 O145 2.105 . S
Sc132 O148 2.105 . S
Sc132 O151 2.105 . S
Sc133 O135 2.025 . S
Sc133 O143 2.105 . S
Sc133 O147 2.105 . S
Sc133 O149 2.105 . S
Sc133 O153 2.105 . S
Sc134 O135 2.025 . S
Sc134 O144 2.105 . S
Sc134 O146 2.105 . S
Sc134 O150 2.105 . S
Sc134 O152 2.105 1_565 S
O135 Sc132 2.025 . S
O135 Sc133 2.025 . S
O135 Sc134 2.025 . S
C136 O142 1.268 . S
C136 O152 1.268 . S
C137 O143 1.268 . S
C137 O151 1.268 . S
C138 O144 1.268 . S
C138 O153 1.268 . S
C139 O145 1.268 . S
C139 O149 1.268 . S
C140 O146 1.268 . S
C140 O148 1.268 . S
C141 O147 1.268 . S
C141 O150 1.268 . S
O142 Sc132 2.105 1_545 S
O142 C136 1.268 . S
O143 Sc133 2.105 . S
O143 C137 1.268 . S
O144 Sc134 2.105 . S
O144 C138 1.268 . S
O145 Sc132 2.105 . S
O145 C139 1.268 . S
O146 Sc134 2.105 . S
O146 C140 1.268 . S
O147 Sc133 2.105 . S
O147 C141 1.268 . S
O148 Sc132 2.105 . S
O148 C140 1.268 . S
O149 Sc133 2.105 . S
O149 C139 1.268 . S
O150 Sc134 2.105 . S
O150 C141 1.268 . S
O151 Sc132 2.105 . S
O151 C137 1.268 . S
O152 Sc134 2.105 1_545 S
O152 C136 1.268 . S
O153 Sc133 2.105 . S
O153 C138 1.268 . S
Sc154 O157 2.025 . S
Sc154 O164 2.105 1_655 S
Sc154 O167 2.105 . S
Sc154 O170 2.105 . S
Sc154 O173 2.105 . S
Sc155 O157 2.025 . S
Sc155 O165 2.105 . S
Sc155 O169 2.105 . S
Sc155 O171 2.105 . S
Sc155 O175 2.105 . S
Sc156 O157 2.025 . S
Sc156 O166 2.105 . S
Sc156 O168 2.105 . S
Sc156 O172 2.105 . S
Sc156 O174 2.105 1_655 S
O157 Sc154 2.025 . S
O157 Sc155 2.025 . S
O157 Sc156 2.025 . S
C158 O164 1.268 . S
C158 O174 1.268 . S
C159 O165 1.268 . S
C159 O173 1.268 . S
C160 O166 1.268 . S
C160 O175 1.268 . S
C161 O167 1.268 . S
C161 O171 1.268 . S
C162 O168 1.268 . S
C162 O170 1.268 . S
C163 O169 1.268 . S
C163 O172 1.268 . S
O164 Sc154 2.105 1_455 S
O164 C158 1.268 . S
O165 Sc155 2.105 . S
O165 C159 1.268 . S
O166 Sc156 2.105 . S
O166 C160 1.268 . S
O167 Sc154 2.105 . S
O167 C161 1.268 . S
O168 Sc156 2.105 . S
O168 C162 1.268 . S
O169 Sc155 2.105 . S
O169 C163 1.268 . S
O170 Sc154 2.105 . S
O170 C162 1.268 . S
O171 Sc155 2.105 . S
O171 C161 1.268 . S
O172 Sc156 2.105 . S
O172 C163 1.268 . S
O173 Sc154 2.105 . S
O173 C159 1.268 . S
O174 Sc156 2.105 1_455 S
O174 C158 1.268 . S
O175 Sc155 2.105 . S
O175 C160 1.268 . S
Sc176 O179 2.025 . S
Sc176 O186 2.105 . S
Sc176 O189 2.105 . S
Sc176 O192 2.105 . S
Sc176 O195 2.105 . S
Sc177 O179 2.025 . S
Sc177 O187 2.105 . S
Sc177 O191 2.105 . S
Sc177 O193 2.105 . S
Sc177 O197 2.105 . S
Sc178 O179 2.025 . S
Sc178 O188 2.105 . S
Sc178 O190 2.105 . S
Sc178 O194 2.105 . S
Sc178 O196 2.105 . S
O179 Sc176 2.025 . S
O179 Sc177 2.025 . S
O179 Sc178 2.025 . S
C180 O186 1.268 . S
C180 O196 1.268 . S
C181 O187 1.268 . S
C181 O195 1.268 . S
C182 O188 1.268 . S
C182 O197 1.268 . S
C183 O189 1.268 . S
C183 O193 1.268 . S
C184 O190 1.268 . S
C184 O192 1.268 . S
C185 O191 1.268 . S
C185 O194 1.268 . S
O186 Sc176 2.105 . S
O186 C180 1.268 . S
O187 Sc177 2.105 . S
O187 C181 1.268 . S
O188 Sc178 2.105 . S
O188 C182 1.268 . S
O189 Sc176 2.105 . S
O189 C183 1.268 . S
O190 Sc178 2.105 . S
O190 C184 1.268 . S
O191 Sc177 2.105 . S
O191 C185 1.268 . S
O192 Sc176 2.105 . S
O192 C184 1.268 . S
O193 Sc177 2.105 . S
O193 C183 1.268 . S
O194 Sc178 2.105 . S
O194 C185 1.268 . S
O195 Sc176 2.105 . S
O195 C181 1.268 . S
O196 Sc178 2.105 . S
O196 C180 1.268 . S
O197 Sc177 2.105 . S
O197 C182 1.268 . S
Sc198 O201 2.025 . S
Sc198 O208 2.105 . S
Sc198 O211 2.105 . S
Sc198 O214 2.105 . S
Sc198 O217 2.105 . S
Sc199 O201 2.025 . S
Sc199 O209 2.105 . S
Sc199 O213 2.105 . S
Sc199 O215 2.105 . S
Sc199 O219 2.105 . S
Sc200 O201 2.025 . S
Sc200 O210 2.105 . S
Sc200 O212 2.105 . S
Sc200 O216 2.105 . S
Sc200 O218 2.105 . S
O201 Sc198 2.025 . S
O201 Sc199 2.025 . S
O201 Sc200 2.025 . S
C202 O208 1.268 . S
C202 O218 1.268 . S
C203 O209 1.268 . S
C203 O217 1.268 . S
C204 O210 1.268 . S
C204 O219 1.268 . S
C205 O211 1.268 . S
C205 O215 1.268 . S
C206 O212 1.268 . S
C206 O214 1.268 . S
C207 O213 1.268 . S
C207 O216 1.268 . S
O208 Sc198 2.105 . S
O208 C202 1.268 . S
O209 Sc199 2.105 . S
O209 C203 1.268 . S
O210 Sc200 2.105 . S
O210 C204 1.268 . S
O211 Sc198 2.105 . S
O211 C205 1.268 . S
O212 Sc200 2.105 . S
O212 C206 1.268 . S
O213 Sc199 2.105 . S
O213 C207 1.268 . S
O214 Sc198 2.105 . S
O214 C206 1.268 . S
O215 Sc199 2.105 . S
O215 C205 1.268 . S
O216 Sc200 2.105 . S
O216 C207 1.268 . S
O217 Sc198 2.105 . S
O217 C203 1.268 . S
O218 Sc200 2.105 . S
O218 C202 1.268 . S
O219 Sc199 2.105 . S
O219 C204 1.268 . S
Sc220 O223 2.025 . S
Sc220 O230 2.105 . S
Sc220 O233 2.105 . S
Sc220 O236 2.105 . S
Sc220 O239 2.105 . S
Sc221 O223 2.025 . S
Sc221 O231 2.105 . S
Sc221 O235 2.105 . S
Sc221 O237 2.105 . S
Sc221 O241 2.105 . S
Sc222 O223 2.025 . S
Sc222 O232 2.105 . S
Sc222 O234 2.105 . S
Sc222 O238 2.105 . S
Sc222 O240 2.105 . S
O223 Sc220 2.025 . S
O223 Sc221 2.025 . S
O223 Sc222 2.025 . S
C224 O230 1.268 . S
C224 O240 1.268 . S
C225 O231 1.268 . S
C225 O239 1.268 . S
C226 O232 1.268 . S
C226 O241 1.268 . S
C227 O233 1.268 . S
C227 O237 1.268 . S
C228 O234 1.268 . S
C228 O236 1.268 . S
C229 O235 1.268 . S
C229 O238 1.268 . S
O230 Sc220 2.105 . S
O230 C224 1.268 . S
O231 Sc221 2.105 . S
O231 C225 1.268 . S
O232 Sc222 2.105 . S
O232 C226 1.268 . S
O233 Sc220 2.105 . S
O233 C227 1.268 . S
O234 Sc222 2.105 . S
O234 C228 1.268 . S
O235 Sc221 2.105 . S
O235 C229 1.268 . S
O236 Sc220 2.105 . S
O236 C228 1.268 . S
O237 Sc221 2.105 . S
O237 C227 1.268 . S
O238 Sc222 2.105 . S
O238 C229 1.268 . S
O239 Sc220 2.105 . S
O239 C225 1.268 . S
O240 Sc222 2.105 . S
O240 C224 1.268 . S
O241 Sc221 2.105 . S
O241 C226 1.268 . S
Sc242 O245 2.025 . S
Sc242 O252 2.105 . S
Sc242 O255 2.105 . S
Sc242 O258 2.105 . S
Sc242 O261 2.105 . S
Sc243 O245 2.025 . S
Sc243 O253 2.105 . S
Sc243 O257 2.105 . S
Sc243 O259 2.105 . S
Sc243 O263 2.105 . S
Sc244 O245 2.025 . S
Sc244 O254 2.105 . S
Sc244 O256 2.105 . S
Sc244 O260 2.105 . S
Sc244 O262 2.105 . S
O245 Sc242 2.025 . S
O245 Sc243 2.025 . S
O245 Sc244 2.025 . S
C246 O252 1.268 . S
C246 O262 1.268 . S
C247 O253 1.268 . S
C247 O261 1.268 . S
C248 O254 1.268 . S
C248 O263 1.268 . S
C249 O255 1.268 . S
C249 O259 1.268 . S
C250 O256 1.268 . S
C250 O258 1.268 . S
C251 O257 1.268 . S
C251 O260 1.268 . S
O252 Sc242 2.105 . S
O252 C246 1.268 . S
O253 Sc243 2.105 . S
O253 C247 1.268 . S
O254 Sc244 2.105 . S
O254 C248 1.268 . S
O255 Sc242 2.105 . S
O255 C249 1.268 . S
O256 Sc244 2.105 . S
O256 C250 1.268 . S
O257 Sc243 2.105 . S
O257 C251 1.268 . S
O258 Sc242 2.105 . S
O258 C250 1.268 . S
O259 Sc243 2.105 . S
O259 C249 1.268 . S
O260 Sc244 2.105 . S
O260 C251 1.268 . S
O261 Sc242 2.105 . S
O261 C247 1.268 . S
O262 Sc244 2.105 . S
O262 C246 1.268 . S
O263 Sc243 2.105 . S
O263 C248 1.268 . S
Sc264 O267 2.025 . S
Sc264 O274 2.105 . S
Sc264 O277 2.105 1_554 S
Sc264 O280 2.105 . S
Sc264 O283 2.105 . S
Sc265 O267 2.025 . S
Sc265 O275 2.105 . S
Sc265 O279 2.105 1_554 S
Sc265 O281 2.105 1_554 S
Sc265 O285 2.105 . S
Sc266 O267 2.025 . S
Sc266 O276 2.105 . S
Sc266 O278 2.105 . S
Sc266 O282 2.105 . S
Sc266 O284 2.105 . S
O267 Sc264 2.025 . S
O267 Sc265 2.025 . S
O267 Sc266 2.025 . S
C268 O274 1.268 . S
C268 O284 1.268 . S
C269 O275 1.268 . S
C269 O283 1.268 . S
C270 O276 1.268 . S
C270 O285 1.268 . S
C271 O277 1.268 . S
C271 O281 1.268 . S
C272 O278 1.268 . S
C272 O280 1.268 . S
C273 O279 1.268 1_554 S
C273 O282 1.268 . S
O274 Sc264 2.105 . S
O274 C268 1.268 . S
O275 Sc265 2.105 . S
O275 C269 1.268 . S
O276 Sc266 2.105 . S
O276 C270 1.268 . S
O277 Sc264 2.105 1_556 S
O277 C271 1.268 . S
O278 Sc266 2.105 . S
O278 C272 1.268 . S
O279 Sc265 2.105 1_556 S
O279 C273 1.268 1_556 S
O280 Sc264 2.105 . S
O280 C272 1.268 . S
O281 Sc265 2.105 1_556 S
O281 C271 1.268 . S
O282 Sc266 2.105 . S
O282 C273 1.268 . S
O283 Sc264 2.105 . S
O283 C269 1.268 . S
O284 Sc266 2.105 . S
O284 C268 1.268 . S
O285 Sc265 2.105 . S
O285 C270 1.268 . S
Sc286 O289 2.025 . S
Sc286 O296 2.105 . S
Sc286 O299 2.105 . S
Sc286 O302 2.105 . S
Sc286 O305 2.105 . S
Sc287 O289 2.025 . S
Sc287 O297 2.105 . S
Sc287 O301 2.105 1_556 S
Sc287 O303 2.105 1_556 S
Sc287 O307 2.105 . S
Sc288 O289 2.025 . S
Sc288 O298 2.105 . S
Sc288 O300 2.105 . S
Sc288 O304 2.105 1_556 S
Sc288 O306 2.105 . S
O289 Sc286 2.025 . S
O289 Sc287 2.025 . S
O289 Sc288 2.025 . S
C290 O296 1.268 . S
C290 O306 1.268 . S
C291 O297 1.268 . S
C291 O305 1.268 . S
C292 O298 1.268 . S
C292 O307 1.268 . S
C293 O299 1.268 . S
C293 O303 1.268 1_556 S
C294 O300 1.268 . S
C294 O302 1.268 . S
C295 O301 1.268 . S
C295 O304 1.268 . S
O296 Sc286 2.105 . S
O296 C290 1.268 . S
O297 Sc287 2.105 . S
O297 C291 1.268 . S
O298 Sc288 2.105 . S
O298 C292 1.268 . S
O299 Sc286 2.105 . S
O299 C293 1.268 . S
O300 Sc288 2.105 . S
O300 C294 1.268 . S
O301 Sc287 2.105 1_554 S
O301 C295 1.268 . S
O302 Sc286 2.105 . S
O302 C294 1.268 . S
O303 Sc287 2.105 1_554 S
O303 C293 1.268 1_554 S
O304 Sc288 2.105 1_554 S
O304 C295 1.268 . S
O305 Sc286 2.105 . S
O305 C291 1.268 . S
O306 Sc288 2.105 . S
O306 C290 1.268 . S
O307 Sc287 2.105 . S
O307 C292 1.268 . S
Sc308 O311 2.025 . S
Sc308 O318 2.105 . S
Sc308 O321 2.105 . S
Sc308 O324 2.105 . S
Sc308 O327 2.105 . S
Sc309 O311 2.025 . S
Sc309 O319 2.105 1_554 S
Sc309 O323 2.105 . S
Sc309 O325 2.105 . S
Sc309 O329 2.105 1_554 S
Sc310 O311 2.025 . S
Sc310 O320 2.105 1_554 S
Sc310 O322 2.105 . S
Sc310 O326 2.105 . S
Sc310 O328 2.105 . S
O311 Sc308 2.025 . S
O311 Sc309 2.025 . S
O311 Sc310 2.025 . S
C312 O318 1.268 . S
C312 O328 1.268 . S
C313 O319 1.268 1_554 S
C313 O327 1.268 . S
C314 O320 1.268 . S
C314 O329 1.268 . S
C315 O321 1.268 . S
C315 O325 1.268 . S
C316 O322 1.268 . S
C316 O324 1.268 . S
C317 O323 1.268 . S
C317 O326 1.268 . S
O318 Sc308 2.105 . S
O318 C312 1.268 . S
O319 Sc309 2.105 1_556 S
O319 C313 1.268 1_556 S
O320 Sc310 2.105 1_556 S
O320 C314 1.268 . S
O321 Sc308 2.105 . S
O321 C315 1.268 . S
O322 Sc310 2.105 . S
O322 C316 1.268 . S
O323 Sc309 2.105 . S
O323 C317 1.268 . S
O324 Sc308 2.105 . S
O324 C316 1.268 . S
O325 Sc309 2.105 . S
O325 C315 1.268 . S
O326 Sc310 2.105 . S
O326 C317 1.268 . S
O327 Sc308 2.105 . S
O327 C313 1.268 . S
O328 Sc310 2.105 . S
O328 C312 1.268 . S
O329 Sc309 2.105 1_556 S
O329 C314 1.268 . S
Sc330 O333 2.025 . S
Sc330 O340 2.105 . S
Sc330 O343 2.105 . S
Sc330 O346 2.105 . S
Sc330 O349 2.105 1_556 S
Sc331 O333 2.025 . S
Sc331 O341 2.105 1_556 S
Sc331 O345 2.105 . S
Sc331 O347 2.105 . S
Sc331 O351 2.105 1_556 S
Sc332 O333 2.025 . S
Sc332 O342 2.105 . S
Sc332 O344 2.105 . S
Sc332 O348 2.105 . S
Sc332 O350 2.105 . S
O333 Sc330 2.025 . S
O333 Sc331 2.025 . S
O333 Sc332 2.025 . S
C334 O340 1.268 . S
C334 O350 1.268 . S
C335 O341 1.268 . S
C335 O349 1.268 . S
C336 O342 1.268 . S
C336 O351 1.268 1_556 S
C337 O343 1.268 . S
C337 O347 1.268 . S
C338 O344 1.268 . S
C338 O346 1.268 . S
C339 O345 1.268 . S
C339 O348 1.268 . S
O340 Sc330 2.105 . S
O340 C334 1.268 . S
O341 Sc331 2.105 1_554 S
O341 C335 1.268 . S
O342 Sc332 2.105 . S
O342 C336 1.268 . S
O343 Sc330 2.105 . S
O343 C337 1.268 . S
O344 Sc332 2.105 . S
O344 C338 1.268 . S
O345 Sc331 2.105 . S
O345 C339 1.268 . S
O346 Sc330 2.105 . S
O346 C338 1.268 . S
O347 Sc331 2.105 . S
O347 C337 1.268 . S
O348 Sc332 2.105 . S
O348 C339 1.268 . S
O349 Sc330 2.105 1_554 S
O349 C335 1.268 . S
O350 Sc332 2.105 . S
O350 C334 1.268 . S
O351 Sc331 2.105 1_554 S
O351 C336 1.268 1_554 S
C352 C353 1.369 . S
C352 C354 1.419 . S
C352 H356 0.930 . S
C353 C352 1.369 . S
C353 C362 1.429 . S
C354 C352 1.419 . S
C354 C355 1.363 . S
C354 H357 0.929 . S
C355 C354 1.363 . S
C355 C361 1.428 . S
H356 C352 0.930 . S
H357 C354 0.929 . S
S358 N359 1.613 . S
S358 N360 1.610 . S
N359 S358 1.613 . S
N359 C362 1.350 . S
N360 S358 1.610 . S
N360 C361 1.351 . S
C361 C355 1.428 . S
C361 N360 1.351 . S
C361 C362 1.434 . S
C362 C353 1.429 . S
C362 N359 1.350 . S
C362 C361 1.434 . S
C363 C364 1.369 . S
C363 C365 1.419 . S
C363 H367 0.930 . S
C364 C363 1.369 . S
C364 C373 1.429 . S
C365 C363 1.419 . S
C365 C366 1.363 . S
C365 H368 0.929 . S
C366 C365 1.363 . S
C366 C372 1.428 . S
H367 C363 0.930 . S
H368 C365 0.929 . S
S369 N370 1.613 . S
S369 N371 1.610 . S
N370 S369 1.613 . S
N370 C373 1.350 . S
N371 S369 1.610 . S
N371 C372 1.351 . S
C372 C366 1.428 . S
C372 N371 1.351 . S
C372 C373 1.434 . S
C373 C364 1.429 . S
C373 N370 1.350 . S
C373 C372 1.434 . S
C374 C375 1.369 . S
C374 C376 1.419 . S
C374 H378 0.930 . S
C375 C374 1.369 . S
C375 C384 1.429 . S
C376 C374 1.419 . S
C376 C377 1.363 . S
C376 H379 0.929 . S
C377 C376 1.363 . S
C377 C383 1.428 . S
H378 C374 0.930 . S
H379 C376 0.929 . S
S380 N381 1.613 . S
S380 N382 1.610 . S
N381 S380 1.613 . S
N381 C384 1.350 . S
N382 S380 1.610 . S
N382 C383 1.351 . S
C383 C377 1.428 . S
C383 N382 1.351 . S
C383 C384 1.434 . S
C384 C375 1.429 . S
C384 N381 1.350 . S
C384 C383 1.434 . S
C385 C386 1.369 . S
C385 C387 1.419 . S
C385 H389 0.930 . S
C386 C385 1.369 . S
C386 C395 1.429 . S
C387 C385 1.419 . S
C387 C388 1.363 . S
C387 H390 0.929 . S
C388 C387 1.363 . S
C388 C394 1.428 . S
H389 C385 0.930 . S
H390 C387 0.929 . S
S391 N392 1.613 . S
S391 N393 1.610 . S
N392 S391 1.613 . S
N392 C395 1.350 . S
N393 S391 1.610 . S
N393 C394 1.351 . S
C394 C388 1.428 . S
C394 N393 1.351 . S
C394 C395 1.434 . S
C395 C386 1.429 . S
C395 N392 1.350 . S
C395 C394 1.434 . S
C396 C397 1.369 . S
C396 C398 1.419 . S
C396 H400 0.930 . S
C397 C396 1.369 . S
C397 C406 1.429 . S
C398 C396 1.419 . S
C398 C399 1.363 . S
C398 H401 0.929 . S
C399 C398 1.363 . S
C399 C405 1.428 . S
H400 C396 0.930 . S
H401 C398 0.929 . S
S402 N403 1.613 . S
S402 N404 1.610 . S
N403 S402 1.613 . S
N403 C406 1.350 . S
N404 S402 1.610 . S
N404 C405 1.351 . S
C405 C399 1.428 . S
C405 N404 1.351 . S
C405 C406 1.434 . S
C406 C397 1.429 . S
C406 N403 1.350 . S
C406 C405 1.434 . S
C407 C408 1.369 . S
C407 C409 1.419 . S
C407 H411 0.930 . S
C408 C407 1.369 . S
C408 C417 1.429 . S
C409 C407 1.419 . S
C409 C410 1.363 . S
C409 H412 0.929 . S
C410 C409 1.363 . S
C410 C416 1.428 . S
H411 C407 0.930 . S
H412 C409 0.929 . S
S413 N414 1.613 . S
S413 N415 1.610 . S
N414 S413 1.613 . S
N414 C417 1.350 . S
N415 S413 1.610 . S
N415 C416 1.351 . S
C416 C410 1.428 . S
C416 N415 1.351 . S
C416 C417 1.434 . S
C417 C408 1.429 . S
C417 N414 1.350 . S
C417 C416 1.434 . S
C418 C419 1.369 . S
C418 C420 1.419 . S
C418 H422 0.930 . S
C419 C418 1.369 . S
C419 C428 1.429 . S
C420 C418 1.419 . S
C420 C421 1.363 . S
C420 H423 0.929 . S
C421 C420 1.363 . S
C421 C427 1.428 . S
H422 C418 0.930 . S
H423 C420 0.929 . S
S424 N425 1.613 . S
S424 N426 1.610 . S
N425 S424 1.613 . S
N425 C428 1.350 . S
N426 S424 1.610 . S
N426 C427 1.351 . S
C427 C421 1.428 . S
C427 N426 1.351 . S
C427 C428 1.434 . S
C428 C419 1.429 . S
C428 N425 1.350 . S
C428 C427 1.434 . S
C429 C430 1.369 . S
C429 C431 1.419 . S
C429 H433 0.930 . S
C430 C429 1.369 . S
C430 C439 1.429 . S
C431 C429 1.419 . S
C431 C432 1.363 . S
C431 H434 0.929 . S
C432 C431 1.363 . S
C432 C438 1.428 . S
H433 C429 0.930 . S
H434 C431 0.929 . S
S435 N436 1.613 . S
S435 N437 1.610 . S
N436 S435 1.613 . S
N436 C439 1.350 . S
N437 S435 1.610 . S
N437 C438 1.351 . S
C438 C432 1.428 . S
C438 N437 1.351 . S
C438 C439 1.434 . S
C439 C430 1.429 . S
C439 N436 1.350 . S
C439 C438 1.434 . S
C440 C441 1.369 . S
C440 C442 1.419 . S
C440 H444 0.930 . S
C441 C440 1.369 . S
C441 C450 1.429 1_554 S
C442 C440 1.419 . S
C442 C443 1.363 . S
C442 H445 0.929 . S
C443 C442 1.363 . S
C443 C449 1.428 1_554 S
H444 C440 0.930 . S
H445 C442 0.929 . S
S446 N447 1.613 . S
S446 N448 1.610 . S
N447 S446 1.613 . S
N447 C450 1.350 . S
N448 S446 1.610 . S
N448 C449 1.351 . S
C449 C443 1.428 1_556 S
C449 N448 1.351 . S
C449 C450 1.434 . S
C450 C441 1.429 1_556 S
C450 N447 1.350 . S
C450 C449 1.434 . S
C451 C452 1.369 1_554 S
C451 C453 1.419 . S
C451 H455 0.930 . S
C452 C451 1.369 1_556 S
C452 C461 1.429 . S
C453 C451 1.419 . S
C453 C454 1.363 1_554 S
C453 H456 0.929 . S
C454 C453 1.363 1_556 S
C454 C460 1.428 . S
H455 C451 0.930 . S
H456 C453 0.929 . S
S457 N458 1.613 . S
S457 N459 1.610 . S
N458 S457 1.613 . S
N458 C461 1.350 . S
N459 S457 1.610 . S
N459 C460 1.351 . S
C460 C454 1.428 . S
C460 N459 1.351 . S
C460 C461 1.434 . S
C461 C452 1.429 . S
C461 N458 1.350 . S
C461 C460 1.434 . S
C462 C463 1.369 . S
C462 C464 1.419 . S
C462 H466 0.930 . S
C463 C462 1.369 . S
C463 C472 1.429 1_554 S
C464 C462 1.419 . S
C464 C465 1.363 . S
C464 H467 0.929 . S
C465 C464 1.363 . S
C465 C471 1.428 1_554 S
H466 C462 0.930 . S
H467 C464 0.929 . S
S468 N469 1.613 . S
S468 N470 1.610 . S
N469 S468 1.613 . S
N469 C472 1.350 . S
N470 S468 1.610 . S
N470 C471 1.351 . S
C471 C465 1.428 1_556 S
C471 N470 1.351 . S
C471 C472 1.434 . S
C472 C463 1.429 1_556 S
C472 N469 1.350 . S
C472 C471 1.434 . S
C473 C474 1.369 1_554 S
C473 C475 1.419 . S
C473 H477 0.930 . S
C474 C473 1.369 1_556 S
C474 C483 1.429 . S
C475 C473 1.419 . S
C475 C476 1.363 1_554 S
C475 H478 0.929 . S
C476 C475 1.363 1_556 S
C476 C482 1.428 . S
H477 C473 0.930 . S
H478 C475 0.929 . S
S479 N480 1.613 . S
S479 N481 1.610 . S
N480 S479 1.613 . S
N480 C483 1.350 . S
N481 S479 1.610 . S
N481 C482 1.351 . S
C482 C476 1.428 . S
C482 N481 1.351 . S
C482 C483 1.434 . S
C483 C474 1.429 . S
C483 N480 1.350 . S
C483 C482 1.434 . S
C484 C485 1.369 . S
C484 C486 1.419 . S
C484 H488 0.930 . S
C485 C484 1.369 . S
C485 C494 1.429 . S
C486 C484 1.419 . S
C486 C487 1.363 . S
C486 H489 0.929 . S
C487 C486 1.363 . S
C487 C493 1.428 . S
H488 C484 0.930 . S
H489 C486 0.929 . S
S490 N491 1.613 . S
S490 N492 1.610 . S
N491 S490 1.613 . S
N491 C494 1.350 . S
N492 S490 1.610 . S
N492 C493 1.351 . S
C493 C487 1.428 . S
C493 N492 1.351 . S
C493 C494 1.434 . S
C494 C485 1.429 . S
C494 N491 1.350 . S
C494 C493 1.434 . S
C495 C496 1.369 . S
C495 C497 1.419 . S
C495 H499 0.930 . S
C496 C495 1.369 . S
C496 C505 1.429 . S
C497 C495 1.419 . S
C497 C498 1.363 . S
C497 H500 0.929 . S
C498 C497 1.363 . S
C498 C504 1.428 . S
H499 C495 0.930 . S
H500 C497 0.929 . S
S501 N502 1.613 . S
S501 N503 1.610 . S
N502 S501 1.613 . S
N502 C505 1.350 . S
N503 S501 1.610 . S
N503 C504 1.351 . S
C504 C498 1.428 . S
C504 N503 1.351 . S
C504 C505 1.434 . S
C505 C496 1.429 . S
C505 N502 1.350 . S
C505 C504 1.434 . S
C506 C507 1.369 . S
C506 C508 1.419 . S
C506 H510 0.930 . S
C507 C506 1.369 . S
C507 C516 1.429 . S
C508 C506 1.419 . S
C508 C509 1.363 . S
C508 H511 0.929 . S
C509 C508 1.363 . S
C509 C515 1.428 . S
H510 C506 0.930 . S
H511 C508 0.929 . S
S512 N513 1.613 . S
S512 N514 1.610 . S
N513 S512 1.613 . S
N513 C516 1.350 . S
N514 S512 1.610 . S
N514 C515 1.351 . S
C515 C509 1.428 . S
C515 N514 1.351 . S
C515 C516 1.434 . S
C516 C507 1.429 . S
C516 N513 1.350 . S
C516 C515 1.434 . S
C517 C518 1.369 . S
C517 C519 1.419 . S
C517 H521 0.930 . S
C518 C517 1.369 . S
C518 C527 1.429 . S
C519 C517 1.419 . S
C519 C520 1.363 . S
C519 H522 0.929 . S
C520 C519 1.363 . S
C520 C526 1.428 . S
H521 C517 0.930 . S
H522 C519 0.929 . S
S523 N524 1.613 . S
S523 N525 1.610 . S
N524 S523 1.613 . S
N524 C527 1.350 . S
N525 S523 1.610 . S
N525 C526 1.351 . S
C526 C520 1.428 . S
C526 N525 1.351 . S
C526 C527 1.434 . S
C527 C518 1.429 . S
C527 N524 1.350 . S
C527 C526 1.434 . S
C528 C529 1.369 . S
C528 C530 1.419 . S
C528 H532 0.930 . S
C529 C528 1.369 . S
C529 C538 1.429 . S
C530 C528 1.419 . S
C530 C531 1.363 . S
C530 H533 0.929 . S
C531 C530 1.363 . S
C531 C537 1.428 . S
H532 C528 0.930 . S
H533 C530 0.929 . S
S534 N535 1.613 . S
S534 N536 1.610 . S
N535 S534 1.613 . S
N535 C538 1.350 . S
N536 S534 1.610 . S
N536 C537 1.351 . S
C537 C531 1.428 . S
C537 N536 1.351 . S
C537 C538 1.434 . S
C538 C529 1.429 . S
C538 N535 1.350 . S
C538 C537 1.434 . S
C539 C540 1.369 . S
C539 C541 1.419 . S
C539 H543 0.930 . S
C540 C539 1.369 . S
C540 C549 1.429 . S
C541 C539 1.419 . S
C541 C542 1.363 . S
C541 H544 0.929 . S
C542 C541 1.363 . S
C542 C548 1.428 . S
H543 C539 0.930 . S
H544 C541 0.929 . S
S545 N546 1.613 . S
S545 N547 1.610 . S
N546 S545 1.613 . S
N546 C549 1.350 . S
N547 S545 1.610 . S
N547 C548 1.351 . S
C548 C542 1.428 . S
C548 N547 1.351 . S
C548 C549 1.434 . S
C549 C540 1.429 . S
C549 N546 1.350 . S
C549 C548 1.434 . S
C550 C551 1.369 . S
C550 C552 1.419 . S
C550 H554 0.930 . S
C551 C550 1.369 . S
C551 C560 1.429 . S
C552 C550 1.419 . S
C552 C553 1.363 . S
C552 H555 0.929 . S
C553 C552 1.363 . S
C553 C559 1.428 . S
H554 C550 0.930 . S
H555 C552 0.929 . S
S556 N557 1.613 . S
S556 N558 1.610 . S
N557 S556 1.613 . S
N557 C560 1.350 . S
N558 S556 1.610 . S
N558 C559 1.351 . S
C559 C553 1.428 . S
C559 N558 1.351 . S
C559 C560 1.434 . S
C560 C551 1.429 . S
C560 N557 1.350 . S
C560 C559 1.434 . S
C561 C562 1.369 . S
C561 C563 1.419 . S
C561 H565 0.930 . S
C562 C561 1.369 . S
C562 C571 1.429 . S
C563 C561 1.419 . S
C563 C564 1.363 . S
C563 H566 0.929 . S
C564 C563 1.363 . S
C564 C570 1.428 . S
H565 C561 0.930 . S
H566 C563 0.929 . S
S567 N568 1.613 . S
S567 N569 1.610 . S
N568 S567 1.613 . S
N568 C571 1.350 . S
N569 S567 1.610 . S
N569 C570 1.351 . S
C570 C564 1.428 . S
C570 N569 1.351 . S
C570 C571 1.434 . S
C571 C562 1.429 . S
C571 N568 1.350 . S
C571 C570 1.434 . S
C572 C573 1.369 . S
C572 C574 1.419 . S
C572 H576 0.930 . S
C573 C572 1.369 . S
C573 C582 1.429 1_554 S
C574 C572 1.419 . S
C574 C575 1.363 . S
C574 H577 0.929 . S
C575 C574 1.363 . S
C575 C581 1.428 1_554 S
H576 C572 0.930 . S
H577 C574 0.929 . S
S578 N579 1.613 . S
S578 N580 1.610 . S
N579 S578 1.613 . S
N579 C582 1.350 . S
N580 S578 1.610 . S
N580 C581 1.351 . S
C581 C575 1.428 1_556 S
C581 N580 1.351 . S
C581 C582 1.434 . S
C582 C573 1.429 1_556 S
C582 N579 1.350 . S
C582 C581 1.434 . S
C583 C584 1.369 1_554 S
C583 C585 1.419 . S
C583 H587 0.930 . S
C584 C583 1.369 1_556 S
C584 C593 1.429 . S
C585 C583 1.419 . S
C585 C586 1.363 1_554 S
C585 H588 0.929 . S
C586 C585 1.363 1_556 S
C586 C592 1.428 . S
H587 C583 0.930 . S
H588 C585 0.929 . S
S589 N590 1.613 . S
S589 N591 1.610 . S
N590 S589 1.613 . S
N590 C593 1.350 . S
N591 S589 1.610 . S
N591 C592 1.351 . S
C592 C586 1.428 . S
C592 N591 1.351 . S
C592 C593 1.434 . S
C593 C584 1.429 . S
C593 N590 1.350 . S
C593 C592 1.434 . S
C594 C595 1.369 . S
C594 C596 1.419 . S
C594 H598 0.930 . S
C595 C594 1.369 . S
C595 C604 1.429 1_554 S
C596 C594 1.419 . S
C596 C597 1.363 . S
C596 H599 0.929 . S
C597 C596 1.363 . S
C597 C603 1.428 1_554 S
H598 C594 0.930 . S
H599 C596 0.929 . S
S600 N601 1.613 . S
S600 N602 1.610 . S
N601 S600 1.613 . S
N601 C604 1.350 . S
N602 S600 1.610 . S
N602 C603 1.351 . S
C603 C597 1.428 1_556 S
C603 N602 1.351 . S
C603 C604 1.434 . S
C604 C595 1.429 1_556 S
C604 N601 1.350 . S
C604 C603 1.434 . S
C605 C606 1.369 1_554 S
C605 C607 1.419 . S
C605 H609 0.930 . S
C606 C605 1.369 1_556 S
C606 C615 1.429 . S
C607 C605 1.419 . S
C607 C608 1.363 1_554 S
C607 H610 0.929 . S
C608 C607 1.363 1_556 S
C608 C614 1.428 . S
H609 C605 0.930 . S
H610 C607 0.929 . S
S611 N612 1.613 . S
S611 N613 1.610 . S
N612 S611 1.613 . S
N612 C615 1.350 . S
N613 S611 1.610 . S
N613 C614 1.351 . S
C614 C608 1.428 . S
C614 N613 1.351 . S
C614 C615 1.434 . S
C615 C606 1.429 . S
C615 N612 1.350 . S
C615 C614 1.434 . S
C616 C617 1.369 . S
C616 C618 1.419 1_565 S
C616 H620 0.930 . S
C617 C616 1.369 . S
C617 C626 1.429 1_565 S
C618 C616 1.419 1_545 S
C618 C619 1.363 . S
C618 H621 0.929 1_545 S
C619 C618 1.363 . S
C619 C625 1.428 . S
H620 C616 0.930 . S
H621 C618 0.929 1_565 S
S622 N623 1.613 . S
S622 N624 1.610 . S
N623 S622 1.613 . S
N623 C626 1.350 . S
N624 S622 1.610 . S
N624 C625 1.351 . S
C625 C619 1.428 . S
C625 N624 1.351 . S
C625 C626 1.434 . S
C626 C617 1.429 1_545 S
C626 N623 1.350 . S
C626 C625 1.434 . S
C627 C628 1.369 . S
C627 C629 1.419 1_655 S
C627 H631 0.930 . S
C628 C627 1.369 . S
C628 C637 1.429 1_655 S
C629 C627 1.419 1_455 S
C629 C630 1.363 . S
C629 H632 0.929 . S
C630 C629 1.363 . S
C630 C636 1.428 . S
H631 C627 0.930 . S
H632 C629 0.929 . S
S633 N634 1.613 . S
S633 N635 1.610 . S
N634 S633 1.613 . S
N634 C637 1.350 . S
N635 S633 1.610 . S
N635 C636 1.351 . S
C636 C630 1.428 . S
C636 N635 1.351 . S
C636 C637 1.434 . S
C637 C628 1.429 1_455 S
C637 N634 1.350 . S
C637 C636 1.434 . S
C638 C639 1.369 . S
C638 C640 1.419 . S
C638 H642 0.930 . S
C639 C638 1.369 . S
C639 C648 1.429 . S
C640 C638 1.419 . S
C640 C641 1.363 1_565 S
C640 H643 0.929 . S
C641 C640 1.363 1_545 S
C641 C647 1.428 . S
H642 C638 0.930 . S
H643 C640 0.929 . S
S644 N645 1.613 . S
S644 N646 1.610 . S
N645 S644 1.613 . S
N645 C648 1.350 1_545 S
N646 S644 1.610 . S
N646 C647 1.351 . S
C647 C641 1.428 . S
C647 N646 1.351 . S
C647 C648 1.434 1_545 S
C648 C639 1.429 . S
C648 N645 1.350 1_565 S
C648 C647 1.434 1_565 S
C649 C650 1.369 . S
C649 C651 1.419 1_655 S
C649 H653 0.930 . S
C650 C649 1.369 . S
C650 C659 1.429 . S
C651 C649 1.419 1_455 S
C651 C652 1.363 . S
C651 H654 0.929 . S
C652 C651 1.363 . S
C652 C658 1.428 1_455 S
H653 C649 0.930 . S
H654 C651 0.929 . S
S655 N656 1.613 . S
S655 N657 1.610 . S
N656 S655 1.613 . S
N656 C659 1.350 . S
N657 S655 1.610 . S
N657 C658 1.351 . S
C658 C652 1.428 1_655 S
C658 N657 1.351 . S
C658 C659 1.434 . S
C659 C650 1.429 . S
C659 N656 1.350 . S
C659 C658 1.434 . S
C660 C661 1.369 1_545 S
C660 C662 1.419 . S
C660 H664 0.930 . S
C661 C660 1.369 1_565 S
C661 C670 1.429 . S
C662 C660 1.419 . S
C662 C663 1.363 . S
C662 H665 0.929 . S
C663 C662 1.363 . S
C663 C669 1.428 . S
H664 C660 0.930 . S
H665 C662 0.929 . S
S666 N667 1.613 . S
S666 N668 1.610 . S
N667 S666 1.613 . S
N667 C670 1.350 . S
N668 S666 1.610 . S
N668 C669 1.351 1_565 S
C669 C663 1.428 . S
C669 N668 1.351 1_545 S
C669 C670 1.434 1_545 S
C670 C661 1.429 . S
C670 N667 1.350 . S
C670 C669 1.434 1_565 S
C671 C672 1.369 . S
C671 C673 1.419 . S
C671 H675 0.930 . S
C672 C671 1.369 . S
C672 C681 1.429 . S
C673 C671 1.419 . S
C673 C674 1.363 1_455 S
C673 H676 0.929 . S
C674 C673 1.363 1_655 S
C674 C680 1.428 1_655 S
H675 C671 0.930 . S
H676 C673 0.929 . S
S677 N678 1.613 . S
S677 N679 1.610 1_455 S
N678 S677 1.613 . S
N678 C681 1.350 . S
N679 S677 1.610 1_655 S
N679 C680 1.351 1_655 S
C680 C674 1.428 1_455 S
C680 N679 1.351 1_455 S
C680 C681 1.434 . S
C681 C672 1.429 . S
C681 N678 1.350 . S
C681 C680 1.434 . S
C682 C683 1.369 . S
C682 C684 1.419 1_565 S
C682 H686 0.930 1_565 S
C683 C682 1.369 . S
C683 C692 1.429 . S
C684 C682 1.419 1_545 S
C684 C685 1.363 . S
C684 H687 0.929 . S
C685 C684 1.363 . S
C685 C691 1.428 1_545 S
H686 C682 0.930 1_545 S
H687 C684 0.929 . S
S688 N689 1.613 . S
S688 N690 1.610 . S
N689 S688 1.613 . S
N689 C692 1.350 . S
N690 S688 1.610 . S
N690 C691 1.351 . S
C691 C685 1.428 1_565 S
C691 N690 1.351 . S
C691 C692 1.434 . S
C692 C683 1.429 . S
C692 N689 1.350 . S
C692 C691 1.434 . S
C693 C694 1.369 1_655 S
C693 C695 1.419 . S
C693 H697 0.930 . S
C694 C693 1.369 1_455 S
C694 C703 1.429 . S
C695 C693 1.419 . S
C695 C696 1.363 . S
C695 H698 0.929 . S
C696 C695 1.363 . S
C696 C702 1.428 . S
H697 C693 0.930 . S
H698 C695 0.929 . S
S699 N700 1.613 . S
S699 N701 1.610 1_455 S
N700 S699 1.613 . S
N700 C703 1.350 . S
N701 S699 1.610 1_655 S
N701 C702 1.351 . S
C702 C696 1.428 . S
C702 N701 1.351 . S
C702 C703 1.434 1_655 S
C703 C694 1.429 . S
C703 N700 1.350 . S
C703 C702 1.434 1_455 S
C704 C705 1.369 . S
C704 C706 1.419 . S
C704 H708 0.930 . S
C705 C704 1.369 . S
C705 C714 1.429 . S
C706 C704 1.419 . S
C706 C707 1.363 . S
C706 H709 0.929 . S
C707 C706 1.363 . S
C707 C713 1.428 . S
H708 C704 0.930 . S
H709 C706 0.929 . S
S710 N711 1.613 . S
S710 N712 1.610 . S
N711 S710 1.613 . S
N711 C714 1.350 . S
N712 S710 1.610 . S
N712 C713 1.351 . S
C713 C707 1.428 . S
C713 N712 1.351 . S
C713 C714 1.434 . S
C714 C705 1.429 . S
C714 N711 1.350 . S
C714 C713 1.434 . S
C715 C716 1.369 . S
C715 C717 1.419 . S
C715 H719 0.930 . S
C716 C715 1.369 . S
C716 C725 1.429 . S
C717 C715 1.419 . S
C717 C718 1.363 . S
C717 H720 0.929 . S
C718 C717 1.363 . S
C718 C724 1.428 . S
H719 C715 0.930 . S
H720 C717 0.929 . S
S721 N722 1.613 . S
S721 N723 1.610 . S
N722 S721 1.613 . S
N722 C725 1.350 . S
N723 S721 1.610 . S
N723 C724 1.351 . S
C724 C718 1.428 . S
C724 N723 1.351 . S
C724 C725 1.434 . S
C725 C716 1.429 . S
C725 N722 1.350 . S
C725 C724 1.434 . S
C726 C727 1.369 . S
C726 C728 1.419 . S
C726 H730 0.930 . S
C727 C726 1.369 . S
C727 C736 1.429 . S
C728 C726 1.419 . S
C728 C729 1.363 . S
C728 H731 0.929 . S
C729 C728 1.363 . S
C729 C735 1.428 . S
H730 C726 0.930 . S
H731 C728 0.929 . S
S732 N733 1.613 . S
S732 N734 1.610 . S
N733 S732 1.613 . S
N733 C736 1.350 . S
N734 S732 1.610 . S
N734 C735 1.351 . S
C735 C729 1.428 . S
C735 N734 1.351 . S
C735 C736 1.434 . S
C736 C727 1.429 . S
C736 N733 1.350 . S
C736 C735 1.434 . S
C737 C738 1.369 . S
C737 C739 1.419 . S
C737 H741 0.930 . S
C738 C737 1.369 . S
C738 C747 1.429 . S
C739 C737 1.419 . S
C739 C740 1.363 . S
C739 H742 0.929 . S
C740 C739 1.363 . S
C740 C746 1.428 . S
H741 C737 0.930 . S
H742 C739 0.929 . S
S743 N744 1.613 . S
S743 N745 1.610 . S
N744 S743 1.613 . S
N744 C747 1.350 . S
N745 S743 1.610 . S
N745 C746 1.351 . S
C746 C740 1.428 . S
C746 N745 1.351 . S
C746 C747 1.434 . S
C747 C738 1.429 . S
C747 N744 1.350 . S
C747 C746 1.434 . S
C748 C749 1.369 . S
C748 C750 1.419 . S
C748 H752 0.930 . S
C749 C748 1.369 . S
C749 C758 1.429 . S
C750 C748 1.419 . S
C750 C751 1.363 . S
C750 H753 0.929 . S
C751 C750 1.363 . S
C751 C757 1.428 . S
H752 C748 0.930 . S
H753 C750 0.929 . S
S754 N755 1.613 . S
S754 N756 1.610 . S
N755 S754 1.613 . S
N755 C758 1.350 . S
N756 S754 1.610 . S
N756 C757 1.351 . S
C757 C751 1.428 . S
C757 N756 1.351 . S
C757 C758 1.434 . S
C758 C749 1.429 . S
C758 N755 1.350 . S
C758 C757 1.434 . S
C759 C760 1.369 . S
C759 C761 1.419 . S
C759 H763 0.930 . S
C760 C759 1.369 . S
C760 C769 1.429 . S
C761 C759 1.419 . S
C761 C762 1.363 . S
C761 H764 0.929 . S
C762 C761 1.363 . S
C762 C768 1.428 . S
H763 C759 0.930 . S
H764 C761 0.929 . S
S765 N766 1.613 . S
S765 N767 1.610 . S
N766 S765 1.613 . S
N766 C769 1.350 . S
N767 S765 1.610 . S
N767 C768 1.351 . S
C768 C762 1.428 . S
C768 N767 1.351 . S
C768 C769 1.434 . S
C769 C760 1.429 . S
C769 N766 1.350 . S
C769 C768 1.434 . S
C770 C771 1.369 . S
C770 C772 1.419 . S
C770 H774 0.930 . S
C771 C770 1.369 . S
C771 C780 1.429 . S
C772 C770 1.419 . S
C772 C773 1.363 . S
C772 H775 0.929 . S
C773 C772 1.363 . S
C773 C779 1.428 . S
H774 C770 0.930 . S
H775 C772 0.929 . S
S776 N777 1.613 . S
S776 N778 1.610 . S
N777 S776 1.613 . S
N777 C780 1.350 . S
N778 S776 1.610 . S
N778 C779 1.351 . S
C779 C773 1.428 . S
C779 N778 1.351 . S
C779 C780 1.434 . S
C780 C771 1.429 . S
C780 N777 1.350 . S
C780 C779 1.434 . S
C781 C782 1.369 . S
C781 C783 1.419 . S
C781 H785 0.930 . S
C782 C781 1.369 . S
C782 C791 1.429 . S
C783 C781 1.419 . S
C783 C784 1.363 . S
C783 H786 0.929 . S
C784 C783 1.363 . S
C784 C790 1.428 . S
H785 C781 0.930 . S
H786 C783 0.929 . S
S787 N788 1.613 . S
S787 N789 1.610 . S
N788 S787 1.613 . S
N788 C791 1.350 . S
N789 S787 1.610 . S
N789 C790 1.351 . S
C790 C784 1.428 . S
C790 N789 1.351 . S
C790 C791 1.434 . S
C791 C782 1.429 . S
C791 N788 1.350 . S
C791 C790 1.434 . S
C792 C793 1.369 . S
C792 C794 1.429 . S
C792 H796 0.930 . S
C793 C792 1.369 . S
C793 C802 1.429 1_556 S
C794 C792 1.429 . S
C794 C795 1.351 1_556 S
C794 H797 0.930 . S
C795 C794 1.351 1_554 S
C795 C801 1.428 . S
H796 C792 0.930 . S
H797 C794 0.930 . S
S798 N799 1.613 . S
S798 N800 1.610 . S
N799 S798 1.613 . S
N799 C802 1.350 . S
N800 S798 1.610 . S
N800 C801 1.351 . S
C801 C795 1.428 . S
C801 N800 1.351 . S
C801 C802 1.434 . S
C802 C793 1.429 1_554 S
C802 N799 1.350 . S
C802 C801 1.434 . S
C803 C804 1.369 1_556 S
C803 C805 1.419 . S
C803 H807 0.930 . S
C804 C803 1.369 1_554 S
C804 C813 1.429 . S
C805 C803 1.419 . S
C805 C806 1.363 . S
C805 H808 0.929 . S
C806 C805 1.363 . S
C806 C812 1.428 1_556 S
H807 C803 0.930 . S
H808 C805 0.929 . S
S809 N810 1.613 . S
S809 N811 1.610 . S
N810 S809 1.613 . S
N810 C813 1.350 . S
N811 S809 1.610 . S
N811 C812 1.351 . S
C812 C806 1.428 1_554 S
C812 N811 1.351 . S
C812 C813 1.434 . S
C813 C804 1.429 . S
C813 N810 1.350 . S
C813 C812 1.434 . S
C814 C815 1.369 . S
C814 C816 1.419 . S
C814 H818 0.930 . S
C815 C814 1.369 . S
C815 C824 1.429 1_554 S
C816 C814 1.419 . S
C816 C817 1.363 1_554 S
C816 H819 0.929 . S
C817 C816 1.363 1_556 S
C817 C823 1.428 . S
H818 C814 0.930 . S
H819 C816 0.929 . S
S820 N821 1.613 . S
S820 N822 1.610 . S
N821 S820 1.613 . S
N821 C824 1.350 . S
N822 S820 1.610 . S
N822 C823 1.351 . S
C823 C817 1.428 . S
C823 N822 1.351 . S
C823 C824 1.434 . S
C824 C815 1.429 1_556 S
C824 N821 1.350 . S
C824 C823 1.434 . S
C825 C826 1.369 . S
C825 C827 1.419 . S
C825 H829 0.930 . S
C826 C825 1.369 . S
C826 C835 1.429 1_554 S
C827 C825 1.419 . S
C827 C828 1.363 1_554 S
C827 H830 0.929 . S
C828 C827 1.363 1_556 S
C828 C834 1.428 . S
H829 C825 0.930 . S
H830 C827 0.929 . S
S831 N832 1.613 . S
S831 N833 1.610 . S
N832 S831 1.613 . S
N832 C835 1.350 . S
N833 S831 1.610 . S
N833 C834 1.351 . S
C834 C828 1.428 . S
C834 N833 1.351 . S
C834 C835 1.434 . S
C835 C826 1.429 1_556 S
C835 N832 1.350 . S
C835 C834 1.434 . S
C836 C837 1.369 . S
C836 C838 1.419 . S
C836 H840 0.930 . S
C837 C836 1.369 . S
C837 C846 1.429 . S
C838 C836 1.419 . S
C838 C839 1.363 . S
C838 H841 0.929 . S
C839 C838 1.363 . S
C839 C845 1.428 . S
H840 C836 0.930 . S
H841 C838 0.929 . S
S842 N843 1.613 . S
S842 N844 1.610 . S
N843 S842 1.613 . S
N843 C846 1.350 . S
N844 S842 1.610 . S
N844 C845 1.351 . S
C845 C839 1.428 . S
C845 N844 1.351 . S
C845 C846 1.434 . S
C846 C837 1.429 . S
C846 N843 1.350 . S
C846 C845 1.434 . S
C847 C848 1.369 . S
C847 C849 1.419 . S
C847 H851 0.930 . S
C848 C847 1.369 . S
C848 C857 1.429 . S
C849 C847 1.419 . S
C849 C850 1.363 . S
C849 H852 0.929 . S
C850 C849 1.363 . S
C850 C856 1.428 . S
H851 C847 0.930 . S
H852 C849 0.929 . S
S853 N854 1.613 . S
S853 N855 1.610 . S
N854 S853 1.613 . S
N854 C857 1.350 . S
N855 S853 1.610 . S
N855 C856 1.351 . S
C856 C850 1.428 . S
C856 N855 1.351 . S
C856 C857 1.434 . S
C857 C848 1.429 . S
C857 N854 1.350 . S
C857 C856 1.434 . S
C858 C859 1.369 . S
C858 C860 1.419 . S
C858 H862 0.930 . S
C859 C858 1.369 . S
C859 C868 1.429 . S
C860 C858 1.419 . S
C860 C861 1.363 . S
C860 H863 0.929 . S
C861 C860 1.363 . S
C861 C867 1.428 . S
H862 C858 0.930 . S
H863 C860 0.929 . S
S864 N865 1.613 . S
S864 N866 1.610 . S
N865 S864 1.613 . S
N865 C868 1.350 . S
N866 S864 1.610 . S
N866 C867 1.351 . S
C867 C861 1.428 . S
C867 N866 1.351 . S
C867 C868 1.434 . S
C868 C859 1.429 . S
C868 N865 1.350 . S
C868 C867 1.434 . S
C869 C870 1.369 . S
C869 C871 1.419 . S
C869 H873 0.930 . S
C870 C869 1.369 . S
C870 C879 1.429 . S
C871 C869 1.419 . S
C871 C872 1.363 . S
C871 H874 0.929 . S
C872 C871 1.363 . S
C872 C878 1.428 . S
H873 C869 0.930 . S
H874 C871 0.929 . S
S875 N876 1.613 . S
S875 N877 1.610 . S
N876 S875 1.613 . S
N876 C879 1.350 . S
N877 S875 1.610 . S
N877 C878 1.351 . S
C878 C872 1.428 . S
C878 N877 1.351 . S
C878 C879 1.434 . S
C879 C870 1.429 . S
C879 N876 1.350 . S
C879 C878 1.434 . S
C353 C5 1.377 . S
C355 C115 1.375 . S
C364 C29 1.379 . S
C366 C139 1.375 . S
C375 C163 1.374 . S
C377 C53 1.376 . S
C386 C94 1.372 . S
C388 C72 1.376 . S
C397 C291 1.379 . S
C399 C181 1.380 . S
C408 C205 1.379 . S
C410 C315 1.380 . S
C419 C339 1.381 . S
C421 C229 1.379 . S
C430 C270 1.373 . S
C432 C248 1.372 . S
C441 C8 1.458 . S
C443 C27 1.340 1_554 S
C452 C50 1.341 1_556 S
C454 C26 1.456 . S
C463 C75 1.335 1_554 S
C465 C48 1.460 . S
C474 C74 1.454 . S
C476 C7 1.346 1_556 S
C485 C96 1.458 . S
C487 C160 1.342 . S
C496 C97 1.334 . S
C498 C118 1.460 . S
C507 C117 1.334 . S
C509 C136 1.459 . S
C518 C137 1.334 . S
C520 C158 1.460 . S
C529 C184 1.461 . S
C531 C203 1.336 . S
C540 C226 1.334 . S
C542 C202 1.460 . S
C551 C224 1.461 . S
C553 C251 1.336 . S
C562 C250 1.460 . S
C564 C183 1.337 . S
C573 C336 1.347 1_554 S
C575 C272 1.456 . S
C584 C273 1.349 1_556 S
C586 C294 1.454 . S
C595 C293 1.338 1_554 S
C597 C312 1.459 . S
C606 C334 1.453 . S
C608 C313 1.347 1_556 S
C617 C140 1.484 . S
C619 C9 1.561 . S
C628 C162 1.482 . S
C630 C28 1.561 . S
C639 C49 1.556 . S
C641 C92 1.489 . S
C650 C73 1.557 . S
C652 C114 1.491 . S
C661 C52 1.493 . S
C663 C95 1.556 . S
C672 C119 1.559 . S
C674 C70 1.485 . S
C683 C138 1.559 . S
C685 C4 1.488 . S
C694 C30 1.493 . S
C696 C159 1.556 . S
C705 C185 1.555 . S
C707 C316 1.492 . S
C716 C204 1.555 . S
C718 C338 1.492 . S
C727 C268 1.483 . S
C729 C225 1.559 . S
C738 C249 1.560 . S
C740 C290 1.484 . S
C749 C271 1.555 . S
C751 C228 1.492 . S
C760 C295 1.559 . S
C762 C246 1.485 . S
C771 C314 1.559 . S
C773 C180 1.488 . S
C782 C206 1.489 . S
C784 C335 1.557 . S
C793 C337 1.616 . S
C795 C6 1.625 . S
C804 C269 1.629 . S
C806 C31 1.619 . S
C815 C51 1.616 . S
C817 C292 1.627 . S
C826 C317 1.617 . S
C828 C71 1.628 . S
C837 C93 1.616 . S
C839 C207 1.627 . S
C848 C116 1.625 . S
C850 C227 1.625 . S
C859 C247 1.624 . S
C861 C141 1.625 . S
C870 C161 1.618 . S
C872 C182 1.623 . S
