# Generated by pormake.
# Topology smw, (6)-cn, num edge types: 1
# Building blocks:
#     Node 0, Type 0, BuildingBlock: MIDCAF_clean_sbu_0, # of connection points: 6
#     Node 1, Type 0, BuildingBlock: MIDCAF_clean_sbu_0, # of connection points: 6
#     Node 2, Type 0, BuildingBlock: MIDCAF_clean_sbu_0, # of connection points: 6
#     Node 3, Type 0, BuildingBlock: MIDCAF_clean_sbu_0, # of connection points: 6
#     Node 4, Type 0, BuildingBlock: MIDCAF_clean_sbu_0, # of connection points: 6
#     Node 5, Type 0, BuildingBlock: MIDCAF_clean_sbu_0, # of connection points: 6
#     Node 6, Type 0, BuildingBlock: MIDCAF_clean_sbu_0, # of connection points: 6
#     Node 7, Type 0, BuildingBlock: MIDCAF_clean_sbu_0, # of connection points: 6
#     Node 8, Type 0, BuildingBlock: MIDCAF_clean_sbu_0, # of connection points: 6
#     Node 9, Type 0, BuildingBlock: MIDCAF_clean_sbu_0, # of connection points: 6
#     Node 10, Type 0, BuildingBlock: MIDCAF_clean_sbu_0, # of connection points: 6
#     Node 11, Type 0, BuildingBlock: MIDCAF_clean_sbu_0, # of connection points: 6
#     Edge 12, Type (0, 0), None
#     Edge 13, Type (0, 0), None
#     Edge 14, Type (0, 0), None
#     Edge 15, Type (0, 0), None
#     Edge 16, Type (0, 0), None
#     Edge 17, Type (0, 0), None
#     Edge 18, Type (0, 0), None
#     Edge 19, Type (0, 0), None
#     Edge 20, Type (0, 0), None
#     Edge 21, Type (0, 0), None
#     Edge 22, Type (0, 0), None
#     Edge 23, Type (0, 0), None
#     Edge 24, Type (0, 0), None
#     Edge 25, Type (0, 0), None
#     Edge 26, Type (0, 0), None
#     Edge 27, Type (0, 0), None
#     Edge 28, Type (0, 0), None
#     Edge 29, Type (0, 0), None
#     Edge 30, Type (0, 0), None
#     Edge 31, Type (0, 0), None
#     Edge 32, Type (0, 0), None
#     Edge 33, Type (0, 0), None
#     Edge 34, Type (0, 0), None
#     Edge 35, Type (0, 0), None
#     Edge 36, Type (0, 0), None
#     Edge 37, Type (0, 0), None
#     Edge 38, Type (0, 0), None
#     Edge 39, Type (0, 0), None
#     Edge 40, Type (0, 0), None
#     Edge 41, Type (0, 0), None
#     Edge 42, Type (0, 0), None
#     Edge 43, Type (0, 0), None
#     Edge 44, Type (0, 0), None
#     Edge 45, Type (0, 0), None
#     Edge 46, Type (0, 0), None
#     Edge 47, Type (0, 0), None
# Relax obj value: 0.363
# Max RMSD: 0.258
# Mean RMSD: 0.258
data_MOF--net-smw--node1-MIDCAF_clean_sbu_0--edge1-none
_symmetry_space_group_name_H-M    P1
_symmetry_Int_Tables_number       1
_symmetry_cell_setting            triclinic
loop_
_symmetry_equiv_pos_as_xyz
'x, y, z'
_cell_length_a     31.010947
_cell_length_b     31.011234
_cell_length_c     7.887282
_cell_angle_alpha  90.000576
_cell_angle_beta   89.998932
_cell_angle_gamma 119.99721
loop_
_atom_site_label
_atom_site_type_symbol
_atom_site_fract_x
_atom_site_fract_y
_atom_site_fract_z
_atom_type_partial_charge
Zn0 Zn 0.33783 0.04632 0.69733 0.0
Zn1 Zn 0.3293 0.03615 0.33074 0.0
Zn2 Zn 0.33599 0.04097 1.014 0.0
C3 C 0.41741 0.03915 0.25079 0.0
C4 C 0.25179 -0.05177 0.24842 0.0
O5 O 0.32155 0.10175 0.92351 0.0
O6 O 0.30261 0.08366 0.65456 0.0
C7 C 0.43303 0.07079 0.77963 0.0
O8 O 0.40639 0.049 0.10371 0.0
O9 O 0.38703 0.02681 0.37165 0.0
O10 O 0.26204 -0.02286 0.37266 0.0
O11 O 0.27568 -0.03459 0.10722 0.0
O12 O 0.41126 0.07754 0.65624 0.0
O13 O 0.4103 0.05577 0.92326 0.0
O14 O 0.2805 -0.03315 0.92579 0.0
O15 O 0.3005 -0.02536 0.65485 0.0
C16 C 0.27533 -0.05207 0.77671 0.0
O17 O 0.32756 0.10435 0.10202 0.0
O18 O 0.34236 0.10394 0.37445 0.0
C19 C 0.30764 0.11068 0.77934 0.0
C20 C 0.33441 0.12416 0.25056 0.0
Zn21 Zn 0.21423 0.36878 0.33075 0.0
Zn22 Zn 0.21259 0.37731 0.69735 0.0
Zn23 Zn 0.2161 0.37547 1.01401 0.0
C24 C 0.24847 0.3148 0.77671 0.0
C25 C 0.28333 0.4725 0.77963 0.0
O26 O 0.14431 0.36708 0.10203 0.0
O27 O 0.15952 0.38187 0.37447 0.0
C28 C 0.22463 0.29126 0.24843 0.0
O29 O 0.23472 0.31997 0.9258 0.0
O30 O 0.24693 0.33997 0.65486 0.0
O31 O 0.2548 0.45074 0.65625 0.0
O32 O 0.27563 0.44978 0.92327 0.0
O33 O 0.20598 0.30152 0.37267 0.0
O34 O 0.23134 0.31515 0.10723 0.0
O35 O 0.27849 0.44587 0.10372 0.0
O36 O 0.28131 0.42651 0.37166 0.0
C37 C 0.29935 0.45688 0.25079 0.0
O38 O 0.14089 0.36106 0.92352 0.0
O39 O 0.14003 0.34211 0.65458 0.0
C40 C 0.13136 0.37393 0.25058 0.0
C41 C 0.11805 0.34716 0.77935 0.0
Zn42 Zn 0.75639 0.25206 0.69733 0.0
Zn43 Zn 0.76658 0.25371 0.33074 0.0
Zn44 Zn 0.76174 0.25557 1.014 0.0
C45 C 0.76356 0.33881 0.25078 0.0
C46 C 0.8545 0.26414 0.24841 0.0
O47 O 0.70097 0.18036 0.92352 0.0
O48 O 0.71905 0.17949 0.65458 0.0
C49 C 0.73192 0.32279 0.77961 0.0
O50 O 0.75371 0.31795 0.10371 0.0
O51 O 0.7759 0.32078 0.37164 0.0
O52 O 0.8256 0.24548 0.37265 0.0
O53 O 0.83732 0.27084 0.10722 0.0
O54 O 0.72517 0.29426 0.65624 0.0
O55 O 0.74694 0.31509 0.92325 0.0
O56 O 0.83587 0.27422 0.92579 0.0
O57 O 0.82807 0.28641 0.65485 0.0
C58 C 0.85479 0.28798 0.7767 0.0
O59 O 0.69837 0.18377 0.10203 0.0
O60 O 0.69879 0.19898 0.37447 0.0
C61 C 0.69204 0.15751 0.77935 0.0
C62 C 0.67857 0.17081 0.25058 0.0
Zn63 Zn 0.43393 0.80604 0.33074 0.0
Zn64 Zn 0.42539 0.79587 0.69734 0.0
Zn65 Zn 0.42724 0.80121 1.014 0.0
C66 C 0.48789 0.89426 0.77671 0.0
C67 C 0.3302 0.7714 0.77963 0.0
O68 O 0.43565 0.73783 0.10203 0.0
O69 O 0.42086 0.73825 0.37446 0.0
C70 C 0.51143 0.89395 0.24843 0.0
O71 O 0.48273 0.87534 0.92579 0.0
O72 O 0.46273 0.86754 0.65486 0.0
O73 O 0.35197 0.76465 0.65624 0.0
O74 O 0.35292 0.78642 0.92326 0.0
O75 O 0.50118 0.86505 0.37267 0.0
O76 O 0.48755 0.87677 0.10722 0.0
O77 O 0.35683 0.79319 0.10372 0.0
O78 O 0.37619 0.81537 0.37166 0.0
C79 C 0.34581 0.80303 0.25079 0.0
O80 O 0.44167 0.74043 0.92352 0.0
O81 O 0.46061 0.75852 0.65457 0.0
C82 C 0.42881 0.71803 0.25057 0.0
C83 C 0.45558 0.7315 0.77935 0.0
Zn84 Zn 0.5506 0.46486 0.69735 0.0
Zn85 Zn 0.54896 0.4734 0.33075 0.0
Zn86 Zn 0.5471 0.4667 1.01401 0.0
C87 C 0.46385 0.38529 0.25079 0.0
C88 C 0.53857 0.55091 0.24843 0.0
O89 O 0.62231 0.48112 0.92352 0.0
O90 O 0.62317 0.50007 0.65458 0.0
C91 C 0.47987 0.36967 0.77963 0.0
O92 O 0.48471 0.39631 0.10372 0.0
O93 O 0.48189 0.41567 0.37166 0.0
O94 O 0.55721 0.54065 0.37267 0.0
O95 O 0.53185 0.52702 0.10723 0.0
O96 O 0.5084 0.39144 0.65625 0.0
O97 O 0.48757 0.39239 0.92327 0.0
O98 O 0.52847 0.5222 0.9258 0.0
O99 O 0.51627 0.5022 0.65486 0.0
C100 C 0.51472 0.52737 0.77671 0.0
O101 O 0.61889 0.47511 0.10204 0.0
O102 O 0.60368 0.46031 0.37447 0.0
C103 C 0.64514 0.49503 0.77935 0.0
C104 C 0.63184 0.46825 0.25058 0.0
Zn105 Zn -0.00337 0.58849 0.33074 0.0
Zn106 Zn 0.00681 0.59015 0.69733 0.0
Zn107 Zn 0.00146 0.58663 1.014 0.0
C108 C -0.09158 0.55423 0.7767 0.0
C109 C 0.03128 0.51941 0.77961 0.0
O110 O 0.06485 0.65843 0.10203 0.0
O111 O 0.06442 0.64321 0.37447 0.0
C112 C -0.09129 0.57806 0.24841 0.0
O113 O -0.07266 0.56798 0.92579 0.0
O114 O -0.06486 0.5558 0.65484 0.0
O115 O 0.03804 0.54794 0.65623 0.0
O116 O 0.01626 0.52711 0.92325 0.0
O117 O -0.06239 0.59673 0.37265 0.0
O118 O -0.07411 0.57136 0.10722 0.0
O119 O 0.0095 0.52425 0.10371 0.0
O120 O -0.0127 0.52142 0.37164 0.0
C121 C -0.00035 0.50339 0.25078 0.0
O122 O 0.06225 0.66184 0.92352 0.0
O123 O 0.04416 0.66271 0.65458 0.0
C124 C 0.08464 0.67138 0.25058 0.0
C125 C 0.07118 0.68469 0.77936 0.0
Zn126 Zn 0.76653 0.4734 0.19809 0.0
Zn127 Zn 0.75636 0.46486 0.83155 0.0
Zn128 Zn 0.76171 0.46671 0.51486 0.0
C129 C 0.85474 0.52738 0.75217 0.0
C130 C 0.73191 0.36968 0.74923 0.0
O131 O 0.69831 0.47511 0.42684 0.0
O132 O 0.69873 0.46031 0.1544 0.0
C133 C 0.85443 0.55092 0.28044 0.0
O134 O 0.83582 0.52221 0.60308 0.0
O135 O 0.82803 0.50221 0.87402 0.0
O136 O 0.72515 0.39144 0.87263 0.0
O137 O 0.74693 0.3924 0.6056 0.0
O138 O 0.82554 0.54067 0.15618 0.0
O139 O 0.83726 0.52703 0.42165 0.0
O140 O 0.7537 0.39631 0.42514 0.0
O141 O 0.77589 0.41568 0.1572 0.0
C142 C 0.76355 0.3853 0.27807 0.0
O143 O 0.70092 0.48112 0.60534 0.0
O144 O 0.719 0.50007 0.8743 0.0
C145 C 0.67851 0.46825 0.27829 0.0
C146 C 0.69199 0.49503 0.74952 0.0
Zn147 Zn 0.21257 0.79586 0.83156 0.0
Zn148 Zn 0.21421 0.80604 0.1981 0.0
Zn149 Zn 0.21608 0.80121 0.51487 0.0
C150 C 0.29932 0.80303 0.27808 0.0
C151 C 0.22464 0.89396 0.28045 0.0
O152 O 0.14086 0.74044 0.60535 0.0
O153 O 0.14 0.75853 0.87431 0.0
C154 C 0.2833 0.77139 0.74925 0.0
O155 O 0.27845 0.79318 0.42515 0.0
O156 O 0.28128 0.81537 0.15721 0.0
O157 O 0.20598 0.86507 0.15618 0.0
O158 O 0.23135 0.87678 0.42165 0.0
O159 O 0.25477 0.76463 0.87264 0.0
O160 O 0.2756 0.78641 0.60561 0.0
O161 O 0.23473 0.87534 0.60308 0.0
O162 O 0.24693 0.86754 0.87402 0.0
C163 C 0.24848 0.89425 0.75217 0.0
O164 O 0.14427 0.73783 0.42684 0.0
O165 O 0.15948 0.73825 0.15441 0.0
C166 C 0.11802 0.73152 0.74952 0.0
C167 C 0.13131 0.71804 0.2783 0.0
Zn168 Zn 0.32924 0.25369 0.1981 0.0
Zn169 Zn 0.33779 0.25204 0.83155 0.0
Zn170 Zn 0.33595 0.25556 0.51486 0.0
C171 C 0.2753 0.28795 0.75218 0.0
C172 C 0.43298 0.32278 0.74925 0.0
O173 O 0.32755 0.18376 0.42683 0.0
O174 O 0.34233 0.19898 0.15439 0.0
C175 C 0.25175 0.26411 0.28045 0.0
O176 O 0.28046 0.2742 0.60308 0.0
O177 O 0.30046 0.28639 0.87403 0.0
O178 O 0.41121 0.29425 0.87263 0.0
O179 O 0.41026 0.31508 0.60561 0.0
O180 O 0.26199 0.24545 0.15619 0.0
O181 O 0.27564 0.27082 0.42165 0.0
O182 O 0.40635 0.31794 0.42515 0.0
O183 O 0.38698 0.32076 0.15722 0.0
C184 C 0.41736 0.3388 0.27808 0.0
O185 O 0.32153 0.18035 0.60534 0.0
O186 O 0.30257 0.17948 0.87429 0.0
C187 C 0.3344 0.17081 0.27828 0.0
C188 C 0.30762 0.15751 0.7495 0.0
Zn189 Zn 0.00685 0.37734 0.83155 0.0
Zn190 Zn -0.00332 0.3688 0.19809 0.0
Zn191 Zn 0.0015 0.37549 0.51486 0.0
C192 C -0.00034 0.4569 0.27806 0.0
C193 C -0.09122 0.29129 0.28044 0.0
O194 O 0.06229 0.36107 0.60534 0.0
O195 O 0.04421 0.34213 0.8743 0.0
C196 C 0.0313 0.47252 0.74923 0.0
O197 O 0.00951 0.44589 0.42514 0.0
O198 O -0.01268 0.42653 0.1572 0.0
O199 O -0.06233 0.30154 0.15617 0.0
O200 O -0.07405 0.31517 0.42165 0.0
O201 O 0.03806 0.45076 0.87262 0.0
O202 O 0.01628 0.4498 0.60559 0.0
O203 O -0.07262 0.31999 0.60307 0.0
O204 O -0.06483 0.34 0.87402 0.0
C205 C -0.09153 0.31483 0.75217 0.0
O206 O 0.0649 0.36709 0.42684 0.0
O207 O 0.06448 0.38189 0.15441 0.0
C208 C 0.07122 0.34716 0.74952 0.0
C209 C 0.0847 0.37394 0.27829 0.0
Zn210 Zn 0.54902 0.03614 0.1981 0.0
Zn211 Zn 0.55066 0.04633 0.83156 0.0
Zn212 Zn 0.54715 0.04097 0.51487 0.0
C213 C 0.51475 -0.05207 0.75217 0.0
C214 C 0.47992 0.07079 0.74924 0.0
O215 O 0.61895 0.10436 0.42684 0.0
O216 O 0.60374 0.10393 0.15441 0.0
C217 C 0.53859 -0.05177 0.28045 0.0
O218 O 0.5285 -0.03315 0.60308 0.0
O219 O 0.5163 -0.02535 0.87403 0.0
O220 O 0.50845 0.07755 0.87263 0.0
O221 O 0.48763 0.05577 0.60561 0.0
O222 O 0.55725 -0.02288 0.15618 0.0
O223 O 0.53188 -0.03459 0.42165 0.0
O224 O 0.48477 0.049 0.42515 0.0
O225 O 0.48194 0.02681 0.15721 0.0
C226 C 0.4639 0.03915 0.27807 0.0
O227 O 0.62236 0.10175 0.60535 0.0
O228 O 0.62322 0.08366 0.8743 0.0
C229 C 0.63191 0.12415 0.2783 0.0
C230 C 0.6452 0.11068 0.74952 0.0
Zn231 Zn 0.42541 0.59013 0.83156 0.0
Zn232 Zn 0.43395 0.58848 0.1981 0.0
Zn233 Zn 0.42725 0.58662 0.51487 0.0
C234 C 0.34584 0.50337 0.27808 0.0
C235 C 0.51144 0.57807 0.28046 0.0
O236 O 0.44167 0.66183 0.60534 0.0
O237 O 0.46063 0.66269 0.8743 0.0
C238 C 0.33022 0.5194 0.74925 0.0
O239 O 0.35685 0.52424 0.42515 0.0
O240 O 0.37622 0.52141 0.15722 0.0
O241 O 0.50121 0.59672 0.15619 0.0
O242 O 0.48755 0.57135 0.42166 0.0
O243 O 0.35198 0.54792 0.87264 0.0
O244 O 0.35294 0.5271 0.60561 0.0
O245 O 0.48273 0.56797 0.60309 0.0
O246 O 0.46273 0.55578 0.87404 0.0
C247 C 0.4879 0.55422 0.75218 0.0
O248 O 0.43566 0.65842 0.42684 0.0
O249 O 0.42087 0.6432 0.1544 0.0
C250 C 0.45559 0.68467 0.74951 0.0
C251 C 0.42881 0.67137 0.27829 0.0
loop_
_geom_bond_atom_site_label_1
_geom_bond_atom_site_label_2
_geom_bond_distance
_geom_bond_site_symmetry_2
_ccdc_geom_bond_type
Zn0 O6 1.920 . S
Zn0 O12 1.898 . S
Zn0 O15 1.905 . S
Zn1 O9 1.905 . S
Zn1 O10 1.898 . S
Zn1 O18 1.920 . S
Zn2 O5 2.080 1_554 S
Zn2 O8 2.114 . S
Zn2 O11 2.120 . S
Zn2 O13 2.120 1_554 S
Zn2 O14 2.114 1_554 S
Zn2 O17 2.080 . S
C3 O8 1.166 . S
C3 O9 1.182 . S
C4 O10 1.167 . S
C4 O11 1.299 . S
O5 Zn2 2.080 1_556 S
O5 C19 1.305 . S
O6 Zn0 1.920 . S
O6 C19 1.234 . S
C7 O12 1.167 . S
C7 O13 1.299 . S
O8 Zn2 2.114 . S
O8 C3 1.166 . S
O9 Zn1 1.905 . S
O9 C3 1.182 . S
O10 Zn1 1.898 . S
O10 C4 1.167 . S
O11 Zn2 2.120 . S
O11 C4 1.299 . S
O12 Zn0 1.898 . S
O12 C7 1.167 . S
O13 Zn2 2.120 1_556 S
O13 C7 1.299 . S
O14 Zn2 2.114 1_556 S
O14 C16 1.166 . S
O15 Zn0 1.905 . S
O15 C16 1.182 . S
C16 O14 1.166 . S
C16 O15 1.182 . S
O17 Zn2 2.080 . S
O17 C20 1.305 . S
O18 Zn1 1.920 . S
O18 C20 1.234 . S
C19 O5 1.305 . S
C19 O6 1.234 . S
C20 O17 1.305 . S
C20 O18 1.234 . S
Zn21 O27 1.920 . S
Zn21 O33 1.898 . S
Zn21 O36 1.905 . S
Zn22 O30 1.905 . S
Zn22 O31 1.898 . S
Zn22 O39 1.920 . S
Zn23 O26 2.080 . S
Zn23 O29 2.114 1_554 S
Zn23 O32 2.120 1_554 S
Zn23 O34 2.120 . S
Zn23 O35 2.114 . S
Zn23 O38 2.080 1_554 S
C24 O29 1.166 . S
C24 O30 1.182 . S
C25 O31 1.167 . S
C25 O32 1.299 . S
O26 Zn23 2.080 . S
O26 C40 1.305 . S
O27 Zn21 1.920 . S
O27 C40 1.234 . S
C28 O33 1.167 . S
C28 O34 1.299 . S
O29 Zn23 2.114 1_556 S
O29 C24 1.166 . S
O30 Zn22 1.905 . S
O30 C24 1.182 . S
O31 Zn22 1.898 . S
O31 C25 1.167 . S
O32 Zn23 2.120 1_556 S
O32 C25 1.299 . S
O33 Zn21 1.898 . S
O33 C28 1.167 . S
O34 Zn23 2.120 . S
O34 C28 1.299 . S
O35 Zn23 2.114 . S
O35 C37 1.166 . S
O36 Zn21 1.905 . S
O36 C37 1.182 . S
C37 O35 1.166 . S
C37 O36 1.182 . S
O38 Zn23 2.080 1_556 S
O38 C41 1.305 . S
O39 Zn22 1.920 . S
O39 C41 1.234 . S
C40 O26 1.305 . S
C40 O27 1.234 . S
C41 O38 1.305 . S
C41 O39 1.234 . S
Zn42 O48 1.920 . S
Zn42 O54 1.898 . S
Zn42 O57 1.905 . S
Zn43 O51 1.905 . S
Zn43 O52 1.898 . S
Zn43 O60 1.920 . S
Zn44 O47 2.080 1_554 S
Zn44 O50 2.114 . S
Zn44 O53 2.120 . S
Zn44 O55 2.120 1_554 S
Zn44 O56 2.114 1_554 S
Zn44 O59 2.080 . S
C45 O50 1.166 . S
C45 O51 1.182 . S
C46 O52 1.167 . S
C46 O53 1.299 . S
O47 Zn44 2.080 1_556 S
O47 C61 1.305 . S
O48 Zn42 1.920 . S
O48 C61 1.234 . S
C49 O54 1.167 . S
C49 O55 1.299 . S
O50 Zn44 2.114 . S
O50 C45 1.166 . S
O51 Zn43 1.905 . S
O51 C45 1.182 . S
O52 Zn43 1.898 . S
O52 C46 1.167 . S
O53 Zn44 2.120 . S
O53 C46 1.299 . S
O54 Zn42 1.898 . S
O54 C49 1.167 . S
O55 Zn44 2.120 1_556 S
O55 C49 1.299 . S
O56 Zn44 2.114 1_556 S
O56 C58 1.166 . S
O57 Zn42 1.905 . S
O57 C58 1.182 . S
C58 O56 1.166 . S
C58 O57 1.182 . S
O59 Zn44 2.080 . S
O59 C62 1.305 . S
O60 Zn43 1.920 . S
O60 C62 1.234 . S
C61 O47 1.305 . S
C61 O48 1.234 . S
C62 O59 1.305 . S
C62 O60 1.234 . S
Zn63 O69 1.920 . S
Zn63 O75 1.898 . S
Zn63 O78 1.905 . S
Zn64 O72 1.905 . S
Zn64 O73 1.898 . S
Zn64 O81 1.920 . S
Zn65 O68 2.080 . S
Zn65 O71 2.114 1_554 S
Zn65 O74 2.120 1_554 S
Zn65 O76 2.120 . S
Zn65 O77 2.114 . S
Zn65 O80 2.080 1_554 S
C66 O71 1.166 . S
C66 O72 1.182 . S
C67 O73 1.167 . S
C67 O74 1.299 . S
O68 Zn65 2.080 . S
O68 C82 1.305 . S
O69 Zn63 1.920 . S
O69 C82 1.234 . S
C70 O75 1.167 . S
C70 O76 1.299 . S
O71 Zn65 2.114 1_556 S
O71 C66 1.166 . S
O72 Zn64 1.905 . S
O72 C66 1.182 . S
O73 Zn64 1.898 . S
O73 C67 1.167 . S
O74 Zn65 2.120 1_556 S
O74 C67 1.299 . S
O75 Zn63 1.898 . S
O75 C70 1.167 . S
O76 Zn65 2.120 . S
O76 C70 1.299 . S
O77 Zn65 2.114 . S
O77 C79 1.166 . S
O78 Zn63 1.905 . S
O78 C79 1.182 . S
C79 O77 1.166 . S
C79 O78 1.182 . S
O80 Zn65 2.080 1_556 S
O80 C83 1.305 . S
O81 Zn64 1.920 . S
O81 C83 1.234 . S
C82 O68 1.305 . S
C82 O69 1.234 . S
C83 O80 1.305 . S
C83 O81 1.234 . S
Zn84 O90 1.920 . S
Zn84 O96 1.898 . S
Zn84 O99 1.905 . S
Zn85 O93 1.905 . S
Zn85 O94 1.898 . S
Zn85 O102 1.920 . S
Zn86 O89 2.080 1_554 S
Zn86 O92 2.114 . S
Zn86 O95 2.120 . S
Zn86 O97 2.120 1_554 S
Zn86 O98 2.114 1_554 S
Zn86 O101 2.080 . S
C87 O92 1.166 . S
C87 O93 1.182 . S
C88 O94 1.167 . S
C88 O95 1.299 . S
O89 Zn86 2.080 1_556 S
O89 C103 1.305 . S
O90 Zn84 1.920 . S
O90 C103 1.234 . S
C91 O96 1.167 . S
C91 O97 1.299 . S
O92 Zn86 2.114 . S
O92 C87 1.166 . S
O93 Zn85 1.905 . S
O93 C87 1.182 . S
O94 Zn85 1.898 . S
O94 C88 1.167 . S
O95 Zn86 2.120 . S
O95 C88 1.299 . S
O96 Zn84 1.898 . S
O96 C91 1.167 . S
O97 Zn86 2.120 1_556 S
O97 C91 1.299 . S
O98 Zn86 2.114 1_556 S
O98 C100 1.166 . S
O99 Zn84 1.905 . S
O99 C100 1.182 . S
C100 O98 1.166 . S
C100 O99 1.182 . S
O101 Zn86 2.080 . S
O101 C104 1.305 . S
O102 Zn85 1.920 . S
O102 C104 1.234 . S
C103 O89 1.305 . S
C103 O90 1.234 . S
C104 O101 1.305 . S
C104 O102 1.234 . S
Zn105 O111 1.920 . S
Zn105 O117 1.898 . S
Zn105 O120 1.905 . S
Zn106 O114 1.905 . S
Zn106 O115 1.898 . S
Zn106 O123 1.920 . S
Zn107 O110 2.080 . S
Zn107 O113 2.114 1_554 S
Zn107 O116 2.120 1_554 S
Zn107 O118 2.120 . S
Zn107 O119 2.114 . S
Zn107 O122 2.080 1_554 S
C108 O113 1.166 . S
C108 O114 1.182 . S
C109 O115 1.167 . S
C109 O116 1.299 . S
O110 Zn107 2.080 . S
O110 C124 1.305 . S
O111 Zn105 1.920 . S
O111 C124 1.234 . S
C112 O117 1.167 . S
C112 O118 1.299 . S
O113 Zn107 2.114 1_556 S
O113 C108 1.166 . S
O114 Zn106 1.905 . S
O114 C108 1.182 . S
O115 Zn106 1.898 . S
O115 C109 1.167 . S
O116 Zn107 2.120 1_556 S
O116 C109 1.299 . S
O117 Zn105 1.898 . S
O117 C112 1.167 . S
O118 Zn107 2.120 . S
O118 C112 1.299 . S
O119 Zn107 2.114 . S
O119 C121 1.166 . S
O120 Zn105 1.905 . S
O120 C121 1.182 . S
C121 O119 1.166 . S
C121 O120 1.182 . S
O122 Zn107 2.080 1_556 S
O122 C125 1.305 . S
O123 Zn106 1.920 . S
O123 C125 1.234 . S
C124 O110 1.305 . S
C124 O111 1.234 . S
C125 O122 1.305 . S
C125 O123 1.234 . S
Zn126 O132 1.920 . S
Zn126 O138 1.898 . S
Zn126 O141 1.905 . S
Zn127 O135 1.905 . S
Zn127 O136 1.898 . S
Zn127 O144 1.920 . S
Zn128 O131 2.080 . S
Zn128 O134 2.114 . S
Zn128 O137 2.120 . S
Zn128 O139 2.120 . S
Zn128 O140 2.114 . S
Zn128 O143 2.080 . S
C129 O134 1.166 . S
C129 O135 1.182 . S
C130 O136 1.167 . S
C130 O137 1.299 . S
O131 Zn128 2.080 . S
O131 C145 1.305 . S
O132 Zn126 1.920 . S
O132 C145 1.234 . S
C133 O138 1.167 . S
C133 O139 1.299 . S
O134 Zn128 2.114 . S
O134 C129 1.166 . S
O135 Zn127 1.905 . S
O135 C129 1.182 . S
O136 Zn127 1.898 . S
O136 C130 1.167 . S
O137 Zn128 2.120 . S
O137 C130 1.299 . S
O138 Zn126 1.898 . S
O138 C133 1.167 . S
O139 Zn128 2.120 . S
O139 C133 1.299 . S
O140 Zn128 2.114 . S
O140 C142 1.166 . S
O141 Zn126 1.905 . S
O141 C142 1.182 . S
C142 O140 1.166 . S
C142 O141 1.182 . S
O143 Zn128 2.080 . S
O143 C146 1.305 . S
O144 Zn127 1.920 . S
O144 C146 1.234 . S
C145 O131 1.305 . S
C145 O132 1.234 . S
C146 O143 1.305 . S
C146 O144 1.234 . S
Zn147 O153 1.920 . S
Zn147 O159 1.898 . S
Zn147 O162 1.905 . S
Zn148 O156 1.905 . S
Zn148 O157 1.898 . S
Zn148 O165 1.920 . S
Zn149 O152 2.080 . S
Zn149 O155 2.114 . S
Zn149 O158 2.120 . S
Zn149 O160 2.120 . S
Zn149 O161 2.114 . S
Zn149 O164 2.080 . S
C150 O155 1.166 . S
C150 O156 1.182 . S
C151 O157 1.167 . S
C151 O158 1.299 . S
O152 Zn149 2.080 . S
O152 C166 1.305 . S
O153 Zn147 1.920 . S
O153 C166 1.234 . S
C154 O159 1.167 . S
C154 O160 1.299 . S
O155 Zn149 2.114 . S
O155 C150 1.166 . S
O156 Zn148 1.905 . S
O156 C150 1.182 . S
O157 Zn148 1.898 . S
O157 C151 1.167 . S
O158 Zn149 2.120 . S
O158 C151 1.299 . S
O159 Zn147 1.898 . S
O159 C154 1.167 . S
O160 Zn149 2.120 . S
O160 C154 1.299 . S
O161 Zn149 2.114 . S
O161 C163 1.166 . S
O162 Zn147 1.905 . S
O162 C163 1.182 . S
C163 O161 1.166 . S
C163 O162 1.182 . S
O164 Zn149 2.080 . S
O164 C167 1.305 . S
O165 Zn148 1.920 . S
O165 C167 1.234 . S
C166 O152 1.305 . S
C166 O153 1.234 . S
C167 O164 1.305 . S
C167 O165 1.234 . S
Zn168 O174 1.920 . S
Zn168 O180 1.898 . S
Zn168 O183 1.905 . S
Zn169 O177 1.905 . S
Zn169 O178 1.898 . S
Zn169 O186 1.920 . S
Zn170 O173 2.080 . S
Zn170 O176 2.114 . S
Zn170 O179 2.120 . S
Zn170 O181 2.120 . S
Zn170 O182 2.114 . S
Zn170 O185 2.080 . S
C171 O176 1.166 . S
C171 O177 1.182 . S
C172 O178 1.167 . S
C172 O179 1.299 . S
O173 Zn170 2.080 . S
O173 C187 1.305 . S
O174 Zn168 1.920 . S
O174 C187 1.234 . S
C175 O180 1.167 . S
C175 O181 1.299 . S
O176 Zn170 2.114 . S
O176 C171 1.166 . S
O177 Zn169 1.905 . S
O177 C171 1.182 . S
O178 Zn169 1.898 . S
O178 C172 1.167 . S
O179 Zn170 2.120 . S
O179 C172 1.299 . S
O180 Zn168 1.898 . S
O180 C175 1.167 . S
O181 Zn170 2.120 . S
O181 C175 1.299 . S
O182 Zn170 2.114 . S
O182 C184 1.166 . S
O183 Zn168 1.905 . S
O183 C184 1.182 . S
C184 O182 1.166 . S
C184 O183 1.182 . S
O185 Zn170 2.080 . S
O185 C188 1.305 . S
O186 Zn169 1.920 . S
O186 C188 1.234 . S
C187 O173 1.305 . S
C187 O174 1.234 . S
C188 O185 1.305 . S
C188 O186 1.234 . S
Zn189 O195 1.920 . S
Zn189 O201 1.898 . S
Zn189 O204 1.905 . S
Zn190 O198 1.905 . S
Zn190 O199 1.898 . S
Zn190 O207 1.920 . S
Zn191 O194 2.080 . S
Zn191 O197 2.114 . S
Zn191 O200 2.120 . S
Zn191 O202 2.120 . S
Zn191 O203 2.114 . S
Zn191 O206 2.080 . S
C192 O197 1.166 . S
C192 O198 1.182 . S
C193 O199 1.167 . S
C193 O200 1.299 . S
O194 Zn191 2.080 . S
O194 C208 1.305 . S
O195 Zn189 1.920 . S
O195 C208 1.234 . S
C196 O201 1.167 . S
C196 O202 1.299 . S
O197 Zn191 2.114 . S
O197 C192 1.166 . S
O198 Zn190 1.905 . S
O198 C192 1.182 . S
O199 Zn190 1.898 . S
O199 C193 1.167 . S
O200 Zn191 2.120 . S
O200 C193 1.299 . S
O201 Zn189 1.898 . S
O201 C196 1.167 . S
O202 Zn191 2.120 . S
O202 C196 1.299 . S
O203 Zn191 2.114 . S
O203 C205 1.166 . S
O204 Zn189 1.905 . S
O204 C205 1.182 . S
C205 O203 1.166 . S
C205 O204 1.182 . S
O206 Zn191 2.080 . S
O206 C209 1.305 . S
O207 Zn190 1.920 . S
O207 C209 1.234 . S
C208 O194 1.305 . S
C208 O195 1.234 . S
C209 O206 1.305 . S
C209 O207 1.234 . S
Zn210 O216 1.920 . S
Zn210 O222 1.898 . S
Zn210 O225 1.905 . S
Zn211 O219 1.905 . S
Zn211 O220 1.898 . S
Zn211 O228 1.920 . S
Zn212 O215 2.080 . S
Zn212 O218 2.114 . S
Zn212 O221 2.120 . S
Zn212 O223 2.120 . S
Zn212 O224 2.114 . S
Zn212 O227 2.080 . S
C213 O218 1.166 . S
C213 O219 1.182 . S
C214 O220 1.167 . S
C214 O221 1.299 . S
O215 Zn212 2.080 . S
O215 C229 1.305 . S
O216 Zn210 1.920 . S
O216 C229 1.234 . S
C217 O222 1.167 . S
C217 O223 1.299 . S
O218 Zn212 2.114 . S
O218 C213 1.166 . S
O219 Zn211 1.905 . S
O219 C213 1.182 . S
O220 Zn211 1.898 . S
O220 C214 1.167 . S
O221 Zn212 2.120 . S
O221 C214 1.299 . S
O222 Zn210 1.898 . S
O222 C217 1.167 . S
O223 Zn212 2.120 . S
O223 C217 1.299 . S
O224 Zn212 2.114 . S
O224 C226 1.166 . S
O225 Zn210 1.905 . S
O225 C226 1.182 . S
C226 O224 1.166 . S
C226 O225 1.182 . S
O227 Zn212 2.080 . S
O227 C230 1.305 . S
O228 Zn211 1.920 . S
O228 C230 1.234 . S
C229 O215 1.305 . S
C229 O216 1.234 . S
C230 O227 1.305 . S
C230 O228 1.234 . S
Zn231 O237 1.920 . S
Zn231 O243 1.898 . S
Zn231 O246 1.905 . S
Zn232 O240 1.905 . S
Zn232 O241 1.898 . S
Zn232 O249 1.920 . S
Zn233 O236 2.080 . S
Zn233 O239 2.114 . S
Zn233 O242 2.120 . S
Zn233 O244 2.120 . S
Zn233 O245 2.114 . S
Zn233 O248 2.080 . S
C234 O239 1.166 . S
C234 O240 1.182 . S
C235 O241 1.167 . S
C235 O242 1.299 . S
O236 Zn233 2.080 . S
O236 C250 1.305 . S
O237 Zn231 1.920 . S
O237 C250 1.234 . S
C238 O243 1.167 . S
C238 O244 1.299 . S
O239 Zn233 2.114 . S
O239 C234 1.166 . S
O240 Zn232 1.905 . S
O240 C234 1.182 . S
O241 Zn232 1.898 . S
O241 C235 1.167 . S
O242 Zn233 2.120 . S
O242 C235 1.299 . S
O243 Zn231 1.898 . S
O243 C238 1.167 . S
O244 Zn233 2.120 . S
O244 C238 1.299 . S
O245 Zn233 2.114 . S
O245 C247 1.166 . S
O246 Zn231 1.905 . S
O246 C247 1.182 . S
C247 O245 1.166 . S
C247 O246 1.182 . S
O248 Zn233 2.080 . S
O248 C251 1.305 . S
O249 Zn232 1.920 . S
O249 C251 1.234 . S
C250 O236 1.305 . S
C250 O237 1.234 . S
C251 O248 1.305 . S
C251 O249 1.234 . S
C20 C187 0.939 . S
C209 C40 0.939 . S
C62 C229 0.939 . S
C251 C82 0.939 . S
C104 C145 0.939 . S
C167 C124 0.939 . S
C250 C83 1.426 . S
C103 C146 1.426 . S
C166 C125 1.426 . S
C188 C19 1.426 . S
C208 C41 1.426 . S
C61 C230 1.426 . S
C151 C4 1.741 1_565 S
C175 C28 1.741 . S
C193 C46 1.741 1_455 S
C70 C217 1.741 1_565 S
C88 C235 1.741 . S
C133 C112 1.741 1_655 S
C213 C66 0.876 1_545 S
C100 C247 0.876 . S
C129 C108 0.876 1_655 S
C163 C16 0.876 1_565 S
C24 C171 0.876 . S
C58 C205 0.876 1_655 S
C3 C226 1.409 . S
C37 C234 1.409 . S
C142 C45 1.409 . S
C150 C79 1.409 . S
C87 C184 1.409 . S
C192 C121 1.409 . S
C67 C154 1.747 . S
C91 C172 1.747 . S
C196 C109 1.747 . S
C214 C7 1.747 . S
C238 C25 1.747 . S
C130 C49 1.747 . S
