# Generated by pormake.
# Topology unr, (4)-cn, num edge types: 1
# Building blocks:
#     Node 0, Type 0, BuildingBlock: GALJAG_clean_sbu_0, # of connection points: 4
#     Node 1, Type 0, BuildingBlock: GALJAG_clean_sbu_0, # of connection points: 4
#     Node 2, Type 0, BuildingBlock: GALJAG_clean_sbu_0, # of connection points: 4
#     Node 3, Type 0, BuildingBlock: GALJAG_clean_sbu_0, # of connection points: 4
#     Node 4, Type 0, BuildingBlock: GALJAG_clean_sbu_0, # of connection points: 4
#     Node 5, Type 0, BuildingBlock: GALJAG_clean_sbu_0, # of connection points: 4
#     Node 6, Type 0, BuildingBlock: GALJAG_clean_sbu_0, # of connection points: 4
#     Node 7, Type 0, BuildingBlock: GALJAG_clean_sbu_0, # of connection points: 4
#     Node 8, Type 0, BuildingBlock: GALJAG_clean_sbu_0, # of connection points: 4
#     Node 9, Type 0, BuildingBlock: GALJAG_clean_sbu_0, # of connection points: 4
#     Node 10, Type 0, BuildingBlock: GALJAG_clean_sbu_0, # of connection points: 4
#     Node 11, Type 0, BuildingBlock: GALJAG_clean_sbu_0, # of connection points: 4
#     Node 12, Type 0, BuildingBlock: GALJAG_clean_sbu_0, # of connection points: 4
#     Node 13, Type 0, BuildingBlock: GALJAG_clean_sbu_0, # of connection points: 4
#     Node 14, Type 0, BuildingBlock: GALJAG_clean_sbu_0, # of connection points: 4
#     Node 15, Type 0, BuildingBlock: GALJAG_clean_sbu_0, # of connection points: 4
#     Node 16, Type 0, BuildingBlock: GALJAG_clean_sbu_0, # of connection points: 4
#     Node 17, Type 0, BuildingBlock: GALJAG_clean_sbu_0, # of connection points: 4
#     Node 18, Type 0, BuildingBlock: GALJAG_clean_sbu_0, # of connection points: 4
#     Node 19, Type 0, BuildingBlock: GALJAG_clean_sbu_0, # of connection points: 4
#     Node 20, Type 0, BuildingBlock: GALJAG_clean_sbu_0, # of connection points: 4
#     Node 21, Type 0, BuildingBlock: GALJAG_clean_sbu_0, # of connection points: 4
#     Node 22, Type 0, BuildingBlock: GALJAG_clean_sbu_0, # of connection points: 4
#     Node 23, Type 0, BuildingBlock: GALJAG_clean_sbu_0, # of connection points: 4
#     Node 24, Type 0, BuildingBlock: GALJAG_clean_sbu_0, # of connection points: 4
#     Node 25, Type 0, BuildingBlock: GALJAG_clean_sbu_0, # of connection points: 4
#     Node 26, Type 0, BuildingBlock: GALJAG_clean_sbu_0, # of connection points: 4
#     Node 27, Type 0, BuildingBlock: GALJAG_clean_sbu_0, # of connection points: 4
#     Node 28, Type 0, BuildingBlock: GALJAG_clean_sbu_0, # of connection points: 4
#     Node 29, Type 0, BuildingBlock: GALJAG_clean_sbu_0, # of connection points: 4
#     Node 30, Type 0, BuildingBlock: GALJAG_clean_sbu_0, # of connection points: 4
#     Node 31, Type 0, BuildingBlock: GALJAG_clean_sbu_0, # of connection points: 4
#     Node 32, Type 0, BuildingBlock: GALJAG_clean_sbu_0, # of connection points: 4
#     Node 33, Type 0, BuildingBlock: GALJAG_clean_sbu_0, # of connection points: 4
#     Node 34, Type 0, BuildingBlock: GALJAG_clean_sbu_0, # of connection points: 4
#     Node 35, Type 0, BuildingBlock: GALJAG_clean_sbu_0, # of connection points: 4
#     Edge 36, Type (0, 0), BuildingBlock: AJUNOK_clean_linker_0, # of connection points: 2
#     Edge 37, Type (0, 0), BuildingBlock: AJUNOK_clean_linker_0, # of connection points: 2
#     Edge 38, Type (0, 0), BuildingBlock: AJUNOK_clean_linker_0, # of connection points: 2
#     Edge 39, Type (0, 0), BuildingBlock: AJUNOK_clean_linker_0, # of connection points: 2
#     Edge 40, Type (0, 0), BuildingBlock: AJUNOK_clean_linker_0, # of connection points: 2
#     Edge 41, Type (0, 0), BuildingBlock: AJUNOK_clean_linker_0, # of connection points: 2
#     Edge 42, Type (0, 0), BuildingBlock: AJUNOK_clean_linker_0, # of connection points: 2
#     Edge 43, Type (0, 0), BuildingBlock: AJUNOK_clean_linker_0, # of connection points: 2
#     Edge 44, Type (0, 0), BuildingBlock: AJUNOK_clean_linker_0, # of connection points: 2
#     Edge 45, Type (0, 0), BuildingBlock: AJUNOK_clean_linker_0, # of connection points: 2
#     Edge 46, Type (0, 0), BuildingBlock: AJUNOK_clean_linker_0, # of connection points: 2
#     Edge 47, Type (0, 0), BuildingBlock: AJUNOK_clean_linker_0, # of connection points: 2
#     Edge 48, Type (0, 0), BuildingBlock: AJUNOK_clean_linker_0, # of connection points: 2
#     Edge 49, Type (0, 0), BuildingBlock: AJUNOK_clean_linker_0, # of connection points: 2
#     Edge 50, Type (0, 0), BuildingBlock: AJUNOK_clean_linker_0, # of connection points: 2
#     Edge 51, Type (0, 0), BuildingBlock: AJUNOK_clean_linker_0, # of connection points: 2
#     Edge 52, Type (0, 0), BuildingBlock: AJUNOK_clean_linker_0, # of connection points: 2
#     Edge 53, Type (0, 0), BuildingBlock: AJUNOK_clean_linker_0, # of connection points: 2
#     Edge 54, Type (0, 0), BuildingBlock: AJUNOK_clean_linker_0, # of connection points: 2
#     Edge 55, Type (0, 0), BuildingBlock: AJUNOK_clean_linker_0, # of connection points: 2
#     Edge 56, Type (0, 0), BuildingBlock: AJUNOK_clean_linker_0, # of connection points: 2
#     Edge 57, Type (0, 0), BuildingBlock: AJUNOK_clean_linker_0, # of connection points: 2
#     Edge 58, Type (0, 0), BuildingBlock: AJUNOK_clean_linker_0, # of connection points: 2
#     Edge 59, Type (0, 0), BuildingBlock: AJUNOK_clean_linker_0, # of connection points: 2
#     Edge 60, Type (0, 0), BuildingBlock: AJUNOK_clean_linker_0, # of connection points: 2
#     Edge 61, Type (0, 0), BuildingBlock: AJUNOK_clean_linker_0, # of connection points: 2
#     Edge 62, Type (0, 0), BuildingBlock: AJUNOK_clean_linker_0, # of connection points: 2
#     Edge 63, Type (0, 0), BuildingBlock: AJUNOK_clean_linker_0, # of connection points: 2
#     Edge 64, Type (0, 0), BuildingBlock: AJUNOK_clean_linker_0, # of connection points: 2
#     Edge 65, Type (0, 0), BuildingBlock: AJUNOK_clean_linker_0, # of connection points: 2
#     Edge 66, Type (0, 0), BuildingBlock: AJUNOK_clean_linker_0, # of connection points: 2
#     Edge 67, Type (0, 0), BuildingBlock: AJUNOK_clean_linker_0, # of connection points: 2
#     Edge 68, Type (0, 0), BuildingBlock: AJUNOK_clean_linker_0, # of connection points: 2
#     Edge 69, Type (0, 0), BuildingBlock: AJUNOK_clean_linker_0, # of connection points: 2
#     Edge 70, Type (0, 0), BuildingBlock: AJUNOK_clean_linker_0, # of connection points: 2
#     Edge 71, Type (0, 0), BuildingBlock: AJUNOK_clean_linker_0, # of connection points: 2
#     Edge 72, Type (0, 0), BuildingBlock: AJUNOK_clean_linker_0, # of connection points: 2
#     Edge 73, Type (0, 0), BuildingBlock: AJUNOK_clean_linker_0, # of connection points: 2
#     Edge 74, Type (0, 0), BuildingBlock: AJUNOK_clean_linker_0, # of connection points: 2
#     Edge 75, Type (0, 0), BuildingBlock: AJUNOK_clean_linker_0, # of connection points: 2
#     Edge 76, Type (0, 0), BuildingBlock: AJUNOK_clean_linker_0, # of connection points: 2
#     Edge 77, Type (0, 0), BuildingBlock: AJUNOK_clean_linker_0, # of connection points: 2
#     Edge 78, Type (0, 0), BuildingBlock: AJUNOK_clean_linker_0, # of connection points: 2
#     Edge 79, Type (0, 0), BuildingBlock: AJUNOK_clean_linker_0, # of connection points: 2
#     Edge 80, Type (0, 0), BuildingBlock: AJUNOK_clean_linker_0, # of connection points: 2
#     Edge 81, Type (0, 0), BuildingBlock: AJUNOK_clean_linker_0, # of connection points: 2
#     Edge 82, Type (0, 0), BuildingBlock: AJUNOK_clean_linker_0, # of connection points: 2
#     Edge 83, Type (0, 0), BuildingBlock: AJUNOK_clean_linker_0, # of connection points: 2
#     Edge 84, Type (0, 0), BuildingBlock: AJUNOK_clean_linker_0, # of connection points: 2
#     Edge 85, Type (0, 0), BuildingBlock: AJUNOK_clean_linker_0, # of connection points: 2
#     Edge 86, Type (0, 0), BuildingBlock: AJUNOK_clean_linker_0, # of connection points: 2
#     Edge 87, Type (0, 0), BuildingBlock: AJUNOK_clean_linker_0, # of connection points: 2
#     Edge 88, Type (0, 0), BuildingBlock: AJUNOK_clean_linker_0, # of connection points: 2
#     Edge 89, Type (0, 0), BuildingBlock: AJUNOK_clean_linker_0, # of connection points: 2
#     Edge 90, Type (0, 0), BuildingBlock: AJUNOK_clean_linker_0, # of connection points: 2
#     Edge 91, Type (0, 0), BuildingBlock: AJUNOK_clean_linker_0, # of connection points: 2
#     Edge 92, Type (0, 0), BuildingBlock: AJUNOK_clean_linker_0, # of connection points: 2
#     Edge 93, Type (0, 0), BuildingBlock: AJUNOK_clean_linker_0, # of connection points: 2
#     Edge 94, Type (0, 0), BuildingBlock: AJUNOK_clean_linker_0, # of connection points: 2
#     Edge 95, Type (0, 0), BuildingBlock: AJUNOK_clean_linker_0, # of connection points: 2
#     Edge 96, Type (0, 0), BuildingBlock: AJUNOK_clean_linker_0, # of connection points: 2
#     Edge 97, Type (0, 0), BuildingBlock: AJUNOK_clean_linker_0, # of connection points: 2
#     Edge 98, Type (0, 0), BuildingBlock: AJUNOK_clean_linker_0, # of connection points: 2
#     Edge 99, Type (0, 0), BuildingBlock: AJUNOK_clean_linker_0, # of connection points: 2
#     Edge 100, Type (0, 0), BuildingBlock: AJUNOK_clean_linker_0, # of connection points: 2
#     Edge 101, Type (0, 0), BuildingBlock: AJUNOK_clean_linker_0, # of connection points: 2
#     Edge 102, Type (0, 0), BuildingBlock: AJUNOK_clean_linker_0, # of connection points: 2
#     Edge 103, Type (0, 0), BuildingBlock: AJUNOK_clean_linker_0, # of connection points: 2
#     Edge 104, Type (0, 0), BuildingBlock: AJUNOK_clean_linker_0, # of connection points: 2
#     Edge 105, Type (0, 0), BuildingBlock: AJUNOK_clean_linker_0, # of connection points: 2
#     Edge 106, Type (0, 0), BuildingBlock: AJUNOK_clean_linker_0, # of connection points: 2
#     Edge 107, Type (0, 0), BuildingBlock: AJUNOK_clean_linker_0, # of connection points: 2
# Relax obj value: 0.387
# Max RMSD: 0.141
# Mean RMSD: 0.140
data_MOF--net-unr--node1-GALJAG_clean_sbu_0--edge1-AJUNOK_clean_linker_0
_symmetry_space_group_name_H-M    P1
_symmetry_Int_Tables_number       1
_symmetry_cell_setting            triclinic
loop_
_symmetry_equiv_pos_as_xyz
'x, y, z'
_cell_length_a     37.384005
_cell_length_b     37.259562
_cell_length_c     57.251288
_cell_angle_alpha  90.313411
_cell_angle_beta   89.85097
_cell_angle_gamma 119.77079
loop_
_atom_site_label
_atom_site_type_symbol
_atom_site_fract_x
_atom_site_fract_y
_atom_site_fract_z
_atom_type_partial_charge
In0 In 0.15515 0.08308 0.19962 0.0
O1 O 0.21453 0.14217 0.19051 0.0
O2 O 0.21734 0.10135 0.21518 0.0
C3 C 0.1158 0.10757 0.17017 0.0
C4 C 0.11314 0.07909 0.23879 0.0
C5 C 0.14042 0.00798 0.18528 0.0
O6 O 0.12238 0.07814 0.1657 0.0
O7 O 0.1329 0.12735 0.18865 0.0
O8 O 0.13155 0.01474 0.2055 0.0
O9 O 0.15885 0.03973 0.17273 0.0
C10 C 0.23641 0.13492 0.20428 0.0
O11 O 0.09595 0.06753 0.21918 0.0
O12 O 0.15113 0.0909 0.23884 0.0
In13 In 0.87262 0.02774 0.17432 0.0
O14 O 0.8352 0.0594 0.16663 0.0
O15 O 0.8672 0.07249 0.19894 0.0
C16 C 0.83509 0.97211 0.13979 0.0
C17 C 0.86499 0.98166 0.21229 0.0
C18 C 0.95166 0.06701 0.1605 0.0
O19 O 0.86648 0.007 0.13622 0.0
O20 O 0.81976 0.9686 0.15987 0.0
O21 O 0.92989 0.02823 0.16169 0.0
O22 O 0.93367 0.08672 0.16651 0.0
C23 C 0.84354 0.07836 0.18596 0.0
O24 O 0.89907 0.01188 0.20623 0.0
O25 O 0.83522 0.97511 0.1993 0.0
In26 In 0.92683 0.84272 0.17152 0.0
O27 O 0.92225 0.85946 0.20918 0.0
O28 O 0.96532 0.90759 0.18779 0.0
C29 C 0.87576 0.85553 0.14363 0.0
C30 C 0.89013 0.76183 0.18104 0.0
C31 C 0.00487 0.86322 0.16137 0.0
O32 O 0.90903 0.85881 0.13625 0.0
O33 O 0.86819 0.84498 0.1647 0.0
O34 O -0.01651 0.87244 0.14827 0.0
O35 O -0.01481 0.84017 0.17827 0.0
C36 C 0.95069 0.8965 0.208 0.0
O37 O 0.90861 0.77627 0.16191 0.0
O38 O 0.88892 0.78793 0.19456 0.0
In39 In 0.03414 0.14528 0.36145 0.0
O40 O 0.01465 0.11147 0.32582 0.0
O41 O 0.07817 0.14505 0.33437 0.0
C42 C 0.95584 0.09197 0.3737 0.0
C43 C 0.0497 0.22419 0.36397 0.0
C44 C 0.0852 0.12406 0.38278 0.0
O45 O 0.96583 0.1085 0.3538 0.0
O46 O -0.01468 0.10438 0.38805 0.0
O47 O 0.098 0.15806 0.37237 0.0
O48 O 0.04645 0.10325 0.38467 0.0
C49 C 0.05105 0.12174 0.32006 0.0
O50 O 0.05116 0.20496 0.38168 0.0
O51 O 0.039 0.20308 0.34549 0.0
In52 In 0.80946 0.85512 0.34109 0.0
O53 O 0.85704 0.89894 0.315 0.0
O54 O 0.79546 0.86211 0.30325 0.0
C55 C 0.85924 0.82427 0.35179 0.0
C56 C 0.72843 0.79945 0.34452 0.0
C57 C 0.83059 0.92638 0.36404 0.0
O58 O 0.8461 0.82354 0.33144 0.0
O59 O 0.8445 0.83764 0.36716 0.0
O60 O 0.8376 0.89904 0.37223 0.0
O61 O 0.81063 0.91629 0.34515 0.0
C62 C 0.83179 0.88964 0.29843 0.0
O63 O 0.74598 0.83158 0.357 0.0
O64 O 0.75242 0.79374 0.33157 0.0
In65 In 0.09039 0.94053 0.32386 0.0
O66 O 0.03608 0.94527 0.31033 0.0
O67 O 0.0859 0.96258 0.287 0.0
C68 C 0.12375 0.00798 0.35138 0.0
C69 C 0.14453 0.91583 0.31074 0.0
C70 C 0.02578 0.87568 0.34491 0.0
O71 O 0.12436 0.0103 0.32931 0.0
O72 O 0.10852 0.97175 0.35931 0.0
O73 O 0.04828 0.90961 0.35514 0.0
O74 O 0.03824 0.87347 0.32478 0.0
C75 C 0.0496 0.95589 0.28993 0.0
O76 O 0.15311 0.94323 0.32613 0.0
O77 O 0.10909 0.90127 0.30219 0.0
In78 In 0.80346 0.91671 0.80653 0.0
O79 O 0.86207 0.93855 0.78452 0.0
O80 O 0.80707 0.92599 0.76715 0.0
C81 C 0.82191 0.98298 0.83413 0.0
C82 C 0.72103 0.87161 0.80216 0.0
C83 C 0.83317 0.8684 0.82161 0.0
O84 O 0.82518 0.985 0.81221 0.0
O85 O 0.8079 0.94707 0.84213 0.0
O86 O 0.81029 0.85949 0.80385 0.0
O87 O 0.83963 0.90089 0.83222 0.0
C88 C 0.84448 0.93595 0.76532 0.0
O89 O 0.74116 0.8618 0.81577 0.0
O90 O 0.74239 0.90495 0.79135 0.0
In91 In 0.04551 0.86544 0.83139 0.0
O92 O 0.04038 0.89691 0.79868 0.0
O93 O 0.09382 0.8912 0.80268 0.0
C94 C 0.96356 0.83413 0.83291 0.0
C95 C 0.06555 0.80577 0.83579 0.0
C96 C 0.0749 0.93323 0.85892 0.0
O97 O -0.01709 0.83793 0.81415 0.0
O98 O -0.0146 0.84385 0.85116 0.0
O99 O 0.04466 0.8989 0.86475 0.0
O100 O 0.09276 0.93171 0.84059 0.0
C101 C 0.07462 0.90413 0.7904 0.0
O102 O 0.08096 0.83748 0.84871 0.0
O103 O 0.03827 0.8032 0.82201 0.0
In104 In 0.02246 0.11466 0.83205 0.0
O105 O 0.01408 0.07818 0.7976 0.0
O106 O 0.96858 0.09333 0.80711 0.0
C107 C 0.05061 0.06885 0.8531 0.0
C108 C 0.08288 0.19254 0.82397 0.0
C109 C 0.962 0.11267 0.85867 0.0
O110 O 0.01295 0.05634 0.84968 0.0
O111 O 0.07465 0.10488 0.84578 0.0
O112 O -0.01725 0.09591 0.8647 0.0
O113 O 0.97638 0.1356 0.84097 0.0
C114 C 0.98015 0.07588 0.79258 0.0
O115 O 0.06527 0.18092 0.84355 0.0
O116 O 0.07024 0.16466 0.80854 0.0
In117 In 0.88983 0.84325 0.64233 0.0
O118 O 0.9178 0.88353 0.67545 0.0
O119 O 0.85927 0.87196 0.66415 0.0
C120 C 0.96763 0.86329 0.63102 0.0
C121 C 0.84804 0.76073 0.64877 0.0
C122 C 0.85882 0.87363 0.6108 0.0
O123 O 0.95258 0.85112 0.65109 0.0
O124 O 0.94301 0.8644 0.61642 0.0
O125 O 0.83613 0.84177 0.62269 0.0
O126 O 0.89699 0.88757 0.61364 0.0
C127 C 0.88783 0.88952 0.67883 0.0
O128 O 0.8588 0.77663 0.62879 0.0
O129 O 0.85822 0.78643 0.66523 0.0
In130 In 0.16912 0.04866 0.66798 0.0
O131 O 0.12121 0.01798 0.69655 0.0
O132 O 0.1762 0.01454 0.69873 0.0
C133 C 0.13232 0.0942 0.66137 0.0
C134 C 0.25079 0.10142 0.66946 0.0
C135 C 0.13243 0.98257 0.63909 0.0
O136 O 0.14681 0.08303 0.64469 0.0
O137 O 0.13785 0.08359 0.68134 0.0
O138 O 0.13594 0.01713 0.63419 0.0
O139 O 0.15163 0.98305 0.65722 0.0
C140 C 0.14159 0.00482 0.70754 0.0
O141 O 0.23442 0.075 0.65333 0.0
O142 O 0.22586 0.10158 0.68416 0.0
In143 In 0.90807 0.07514 0.65787 0.0
O144 O 0.89261 0.06695 0.69656 0.0
O145 O 0.92543 0.03859 0.68307 0.0
C146 C 0.86237 0.01421 0.62712 0.0
C147 C 0.8808 0.12968 0.65704 0.0
C148 C -0.01003 0.11066 0.65175 0.0
O149 O 0.85572 0.01096 0.64881 0.0
O150 O 0.89142 0.04889 0.62084 0.0
O151 O 0.96433 0.08418 0.6377 0.0
O152 O 0.9741 0.12144 0.66786 0.0
C153 C 0.91075 0.04682 0.70082 0.0
O154 O 0.9147 0.13745 0.64803 0.0
O155 O 0.86049 0.09415 0.66575 0.0
In156 In 0.81605 0.40879 0.52454 0.0
O157 O 0.87319 0.43899 0.5476 0.0
O158 O 0.87957 0.42376 0.51267 0.0
C159 C 0.80684 0.46928 0.5048 0.0
C160 C 0.76347 0.39211 0.56061 0.0
C161 C 0.7908 0.33777 0.50068 0.0
O162 O 0.79493 0.43456 0.49532 0.0
O163 O 0.82653 0.4747 0.52356 0.0
O164 O 0.79299 0.33946 0.52272 0.0
O165 O 0.80118 0.37177 0.49095 0.0
C166 C 0.89657 0.43809 0.53206 0.0
O167 O 0.7554 0.39784 0.54007 0.0
O168 O 0.79665 0.39122 0.56257 0.0
In169 In 0.58861 0.43648 0.50549 0.0
O170 O 0.54156 0.44779 0.48674 0.0
O171 O 0.58135 0.49246 0.51137 0.0
C172 C 0.55923 0.36513 0.48126 0.0
C173 C 0.57262 0.40491 0.54905 0.0
C174 C 0.67026 0.4853 0.49899 0.0
O175 O 0.59328 0.39673 0.47658 0.0
O176 O 0.539 0.3706 0.49716 0.0
O177 O 0.65366 0.47655 0.5189 0.0
O178 O 0.64525 0.47048 0.48216 0.0
C179 C 0.55129 0.48084 0.49767 0.0
O180 O 0.59626 0.4001 0.53523 0.0
O181 O 0.55795 0.42628 0.54099 0.0
In182 In 0.59256 0.16988 0.49332 0.0
O183 O 0.55585 0.10584 0.47712 0.0
O184 O 0.53838 0.11579 0.51079 0.0
C185 C 0.66345 0.19148 0.47097 0.0
C186 C 0.63576 0.20446 0.53282 0.0
C187 C 0.5583 0.21382 0.47816 0.0
O188 O 0.63894 0.20372 0.46474 0.0
O189 O 0.64864 0.16316 0.48604 0.0
O190 O 0.57874 0.20355 0.46483 0.0
O191 O 0.55353 0.20001 0.49873 0.0
C192 C 0.5321 0.09074 0.4944 0.0
O193 O 0.61832 0.22048 0.5216 0.0
O194 O 0.62949 0.17024 0.52487 0.0
In195 In 0.73666 0.50423 0.67662 0.0
O196 O 0.71704 0.48205 0.63916 0.0
O197 O 0.72242 0.44097 0.66241 0.0
C198 C 0.66706 0.47955 0.70181 0.0
C199 C 0.76796 0.58504 0.66797 0.0
C200 C 0.80255 0.49709 0.68813 0.0
O201 O 0.67023 0.48903 0.68052 0.0
O202 O 0.69964 0.4835 0.71074 0.0
O203 O 0.7713 0.48441 0.70121 0.0
O204 O 0.80207 0.51744 0.67072 0.0
C205 C 0.71592 0.44791 0.6418 0.0
O206 O 0.76767 0.57176 0.68829 0.0
O207 O 0.75196 0.55748 0.65246 0.0
In208 In 0.50231 0.28289 0.68036 0.0
O209 O 0.5428 0.30378 0.64749 0.0
O210 O 0.49544 0.31901 0.65061 0.0
C211 C 0.55813 0.26041 0.6922 0.0
C212 C 0.42486 0.21881 0.67915 0.0
C213 C 0.51704 0.34562 0.70951 0.0
O214 O 0.56331 0.29608 0.6956 0.0
O215 O 0.52423 0.23536 0.68272 0.0
O216 O 0.51909 0.31436 0.71605 0.0
O217 O 0.50187 0.34184 0.68937 0.0
C218 C 0.52491 0.32159 0.63866 0.0
O219 O 0.43913 0.24202 0.69685 0.0
O220 O 0.44998 0.22751 0.66262 0.0
In221 In 0.77572 0.28462 0.65632 0.0
O222 O 0.73727 0.29506 0.62908 0.0
O223 O 0.76671 0.26142 0.61876 0.0
C224 C 0.82403 0.36422 0.66906 0.0
C225 C 0.81608 0.24225 0.66079 0.0
C226 C 0.70633 0.25579 0.68195 0.0
O227 O 0.81285 0.35344 0.64816 0.0
O228 O 0.8133 0.33452 0.68299 0.0
O229 O 0.73957 0.28772 0.68737 0.0
O230 O 0.70898 0.23658 0.66443 0.0
C231 C 0.74261 0.27453 0.61325 0.0
O232 O 0.78227 0.23173 0.67086 0.0
O233 O 0.83023 0.27508 0.64909 0.0
In234 In 0.49349 0.25229 0.20698 0.0
O235 O 0.52609 0.2671 0.17129 0.0
O236 O 0.48076 0.20512 0.17833 0.0
C237 C 0.53153 0.33165 0.22061 0.0
C238 C 0.41341 0.22866 0.2114 0.0
C239 C 0.53275 0.21896 0.22971 0.0
O240 O 0.52503 0.32081 0.19936 0.0
O241 O 0.51715 0.30218 0.23503 0.0
O242 O 0.54782 0.25729 0.22698 0.0
O243 O 0.49656 0.19717 0.22205 0.0
C244 C 0.50692 0.23012 0.16414 0.0
O245 O 0.43249 0.21998 0.22646 0.0
O246 O 0.43519 0.25031 0.19466 0.0
In247 In 0.75037 0.23887 0.20696 0.0
O248 O 0.79184 0.21469 0.22103 0.0
O249 O 0.74185 0.17612 0.19883 0.0
C250 C 0.7926 0.31578 0.22548 0.0
C251 C 0.75722 0.26253 0.16205 0.0
C252 C 0.67304 0.20427 0.22304 0.0
O253 O 0.76088 0.28707 0.23493 0.0
O254 O 0.8051 0.30439 0.20804 0.0
O255 O 0.68149 0.20544 0.20157 0.0
O256 O 0.70382 0.21967 0.23656 0.0
C257 C 0.77299 0.18103 0.20985 0.0
O258 O 0.72894 0.26031 0.17513 0.0
O259 O 0.78107 0.25221 0.17161 0.0
In260 In 0.75494 0.5087 0.2041 0.0
O261 O 0.77844 0.57401 0.21827 0.0
O262 O 0.81658 0.56332 0.1951 0.0
C263 C 0.681 0.47957 0.2252 0.0
C264 C 0.72635 0.49179 0.15992 0.0
C265 C 0.79091 0.4653 0.21777 0.0
O266 O 0.70929 0.47426 0.23339 0.0
O267 O 0.69158 0.5028 0.20763 0.0
O268 O 0.78599 0.47093 0.19656 0.0
O269 O 0.77881 0.48276 0.23219 0.0
C270 C 0.81112 0.58933 0.2063 0.0
O271 O 0.72118 0.46354 0.17395 0.0
O272 O 0.74691 0.52787 0.16807 0.0
In273 In 0.51976 0.14721 0.02822 0.0
O274 O 0.47236 0.09813 0.00405 0.0
O275 O 0.49743 0.07876 0.03118 0.0
C276 C 0.49235 0.19816 0.01519 0.0
C277 C 0.52544 0.1709 0.07326 0.0
C278 C 0.59478 0.16644 0.01184 0.0
O279 O 0.52254 0.19783 0.00549 0.0
O280 O 0.47357 0.17002 0.03006 0.0
O281 O 0.58257 0.15171 0.03198 0.0
O282 O 0.56892 0.17106 1.00008 0.0
C283 C 0.47422 0.06871 0.01356 0.0
O284 O 0.55121 0.19292 0.05793 0.0
O285 O 0.49805 0.13564 0.06616 0.0
In286 In 0.81118 0.35295 0.02326 0.0
O287 O 0.86941 0.36811 1.00259 0.0
O288 O 0.87426 0.40403 0.03255 0.0
C289 C 0.76174 0.27951 1.00266 0.0
C290 C 0.79186 0.32617 0.06742 0.0
C291 C 0.78735 0.40743 0.01163 0.0
O292 O 0.7635 0.31272 0.99646 0.0
O293 O 0.78777 0.28397 0.01802 0.0
O294 O 0.79214 0.38524 0.99663 0.0
O295 O 0.79441 0.40187 0.03247 0.0
C296 C 0.89235 0.39809 0.01575 0.0
O297 O 0.77063 0.33752 0.05573 0.0
O298 O 0.82281 0.32895 0.05684 0.0
In299 In 0.60279 0.44502 0.02975 0.0
O300 O 0.6211 0.42317 0.06245 0.0
O301 O 0.63486 0.48577 0.06099 0.0
C302 C 0.54305 0.36663 0.02268 0.0
C303 C 0.56407 0.48704 0.01968 0.0
C304 C 0.67191 0.46056 0.00705 0.0
O305 O 0.55254 0.38278 0.04279 0.0
O306 O 0.56329 0.39052 0.00617 0.0
O307 O 0.6381 0.42764 0.00426 0.0
O308 O 0.66992 0.48715 0.01983 0.0
C309 C 0.63783 0.45828 0.07217 0.0
O310 O 0.59081 0.48687 0.0063 0.0
O311 O 0.55772 0.46673 0.03822 0.0
In312 In 0.46234 0.74211 0.78829 0.0
O313 O 0.52597 0.77919 0.77133 0.0
O314 O 0.52155 0.75476 0.80534 0.0
C315 C 0.42123 0.76958 0.76216 0.0
C316 C 0.43483 0.75915 0.82828 0.0
C317 C 0.43772 0.6622 0.77952 0.0
O318 O 0.41092 0.73188 0.76354 0.0
O319 O 0.45517 0.79377 0.7718 0.0
O320 O 0.44392 0.67732 0.79989 0.0
O321 O 0.4443 0.68762 0.76327 0.0
C322 C 0.54455 0.77559 0.78879 0.0
O323 O 0.41858 0.72317 0.81971 0.0
O324 O 0.46538 0.7859 0.81705 0.0
In325 In 0.20528 0.68914 0.80731 0.0
O326 O 0.15065 0.69836 0.79905 0.0
O327 O 0.18833 0.72983 0.82829 0.0
C328 C 0.18939 0.62161 0.78261 0.0
C329 C 0.20723 0.65453 0.84811 0.0
C330 C 0.27114 0.74739 0.78436 0.0
O331 O 0.22539 0.65044 0.78698 0.0
O332 O 0.16078 0.62764 0.78984 0.0
O333 O 0.27121 0.74133 0.80605 0.0
O334 O 0.23696 0.72512 0.77432 0.0
C335 C 0.15703 0.72195 0.81637 0.0
O336 O 0.23697 0.68874 0.84157 0.0
O337 O 0.17727 0.63847 0.83418 0.0
In338 In 0.24991 0.44829 0.80479 0.0
O339 O 0.22723 0.38117 0.7923 0.0
O340 O 0.19666 0.39187 0.82037 0.0
C341 C 0.32214 0.49209 0.78181 0.0
C342 C 0.28303 0.47865 0.84704 0.0
C343 C 0.20582 0.48147 0.78832 0.0
O344 O 0.28816 0.48526 0.77349 0.0
O345 O 0.31872 0.47207 0.80015 0.0
O346 O 0.20988 0.47753 0.8099 0.0
O347 O 0.22265 0.46706 0.77499 0.0
C348 C 0.19902 0.3658 0.80748 0.0
O349 O 0.2619 0.49107 0.83615 0.0
O350 O 0.28681 0.4507 0.8367 0.0
In351 In 0.37838 0.82739 0.95843 0.0
O352 O 0.42273 0.88249 0.97985 0.0
O353 O 0.38426 0.89127 0.95609 0.0
C354 C 0.41662 0.79023 0.97797 0.0
C355 C 0.38498 0.80594 0.91419 0.0
C356 C 0.29962 0.79267 0.97316 0.0
O357 O 0.38183 0.78405 0.9846 0.0
O358 O 0.43308 0.81667 0.96198 0.0
O359 O 0.30941 0.80174 0.95198 0.0
O360 O 0.32969 0.80225 0.98659 0.0
C361 C 0.41129 0.90658 0.97189 0.0
O362 O 0.36223 0.78031 0.92934 0.0
O363 O 0.40277 0.84322 0.92095 0.0
In364 In 0.14135 0.56446 0.98295 0.0
O365 O 0.08646 0.54235 0.00698 0.0
O366 O 0.07764 0.51182 0.9743 0.0
C367 C 0.16059 0.6429 0.99173 0.0
C368 C 0.17296 0.58311 0.93968 0.0
C369 C 0.17964 0.52767 1.00319 0.0
O370 O 0.17243 0.62321 0.00446 0.0
O371 O 0.13596 0.62162 0.97567 0.0
O372 O 0.1603 0.51529 0.98418 0.0
O373 O 0.17899 0.55831 0.01214 0.0
C374 C 0.06213 0.51394 0.99344 0.0
O375 O 0.19505 0.59667 0.95774 0.0
O376 O 0.13519 0.55852 0.94347 0.0
In377 In 0.39539 0.56365 0.97996 0.0
O378 O 0.41825 0.52959 1.00244 0.0
O379 O 0.45834 0.56894 0.97609 0.0
C380 C 0.32498 0.52459 0.00452 0.0
C381 C 0.36331 0.54206 0.93663 0.0
C382 C 0.42825 0.6456 0.98615 0.0
O383 O 0.35426 0.55982 0.00994 0.0
O384 O 0.33233 0.50791 0.98732 0.0
O385 O 0.41197 0.6199 1.00244 0.0
O386 O 0.42956 0.62998 0.96677 0.0
C387 C 0.4528 0.5445 0.99258 0.0
O388 O 0.359 0.56756 0.94918 0.0
O389 O 0.38465 0.52813 0.94578 0.0
In390 In 0.15317 0.5631 0.53745 0.0
O391 O 0.14841 0.57045 0.49836 0.0
O392 O 0.20026 0.56713 0.51006 0.0
C393 C 0.17218 0.64105 0.54865 0.0
C394 C 0.07211 0.51207 0.54236 0.0
C395 C 0.19068 0.52772 0.55994 0.0
O396 O 0.15371 0.62297 0.53016 0.0
O397 O 0.18053 0.61935 0.562 0.0
O398 O 0.20271 0.56589 0.56137 0.0
O399 O 0.1581 0.5071 0.54826 0.0
C400 C 0.18061 0.56964 0.49289 0.0
O401 O 0.09325 0.50945 0.52606 0.0
O402 O 0.09232 0.54018 0.55718 0.0
In403 In 0.39528 0.58303 0.51214 0.0
O404 O 0.45075 0.57752 0.52285 0.0
O405 O 0.41033 0.53665 0.49668 0.0
C406 C 0.4055 0.6535 0.5305 0.0
C407 C 0.4009 0.61126 0.46855 0.0
C408 C 0.33146 0.52986 0.53802 0.0
O409 O 0.43535 0.64666 0.52861 0.0
O410 O 0.37092 0.6242 0.52421 0.0
O411 O 0.32951 0.5317 0.51601 0.0
O412 O 0.3667 0.55312 0.5467 0.0
C413 C 0.44298 0.54889 0.50828 0.0
O414 O 0.368 0.5804 0.47578 0.0
O415 O 0.42987 0.62657 0.48317 0.0
In416 In 0.35189 0.83787 0.50468 0.0
O417 O 0.37565 0.90597 0.51402 0.0
O418 O 0.41536 0.8896 0.49624 0.0
C419 C 0.28251 0.80403 0.53051 0.0
C420 C 0.32264 0.82115 0.46074 0.0
C421 C 0.38655 0.79352 0.51922 0.0
O422 O 0.31787 0.82305 0.53968 0.0
O423 O 0.2826 0.80535 0.50853 0.0
O424 O 0.38763 0.80401 0.4982 0.0
O425 O 0.36826 0.8056 0.53293 0.0
C426 C 0.41018 0.91799 0.50443 0.0
O427 O 0.33282 0.79827 0.47174 0.0
O428 O 0.32672 0.85212 0.47212 0.0
In429 In 0.19012 0.48465 0.35741 0.0
O430 O 0.13806 0.42361 0.34264 0.0
O431 O 0.16119 0.42293 0.37618 0.0
C432 C 0.17838 0.5383 0.3317 0.0
C433 C 0.19607 0.52215 0.39893 0.0
C434 C 0.26045 0.49293 0.33928 0.0
O435 O 0.14977 0.51036 0.34367 0.0
O436 O 0.21191 0.53799 0.33215 0.0
O437 O 0.25618 0.49814 0.36071 0.0
O438 O 0.22845 0.48166 0.32711 0.0
C439 C 0.13607 0.40257 0.36025 0.0
O440 O 0.22126 0.51061 0.39282 0.0
O441 O 0.16797 0.5142 0.3843 0.0
In442 In 0.46947 0.68442 0.32963 0.0
O443 O 0.41759 0.66177 0.35674 0.0
O444 O 0.47902 0.68584 0.3687 0.0
C445 C 0.44898 0.73693 0.30958 0.0
C446 C 0.55223 0.72002 0.32875 0.0
C447 C 0.42311 0.6052 0.31593 0.0
O448 O 0.45348 0.73527 0.33127 0.0
O449 O 0.45566 0.71236 0.29751 0.0
O450 O 0.42469 0.63495 0.30458 0.0
O451 O 0.44902 0.61617 0.33231 0.0
C452 C 0.44142 0.66957 0.37389 0.0
O453 O 0.52964 0.68581 0.31865 0.0
O454 O 0.53302 0.7365 0.33752 0.0
In455 In 0.26615 0.78256 0.316 0.0
O456 O 0.27425 0.84517 0.30552 0.0
O457 O 0.21522 0.7924 0.30126 0.0
C458 C 0.33941 0.79735 0.29851 0.0
C459 C 0.277 0.79156 0.36273 0.0
C460 C 0.21362 0.70091 0.31086 0.0
O461 O 0.30622 0.77763 0.28723 0.0
O462 O 0.33581 0.81262 0.31745 0.0
O463 O 0.21273 0.72128 0.32832 0.0
O464 O 0.23946 0.72234 0.29538 0.0
C465 C 0.23694 0.83119 0.3003 0.0
O466 O 0.28276 0.76605 0.35108 0.0
O467 O 0.2651 0.81205 0.35082 0.0
C468 C 0.06514 0.13243 0.17098 0.0
C469 C 0.08014 0.10868 0.15988 0.0
C470 C 0.02362 0.12166 0.16897 0.0
C471 C -0.00388 0.08683 0.15588 0.0
H472 H 0.08427 0.15663 0.18325 0.0
H473 H 0.01227 0.13796 0.17966 0.0
S474 S 0.02243 0.02205 0.11826 0.0
N475 N 0.06623 0.05484 0.13113 0.0
N476 N -0.01193 0.03417 0.12787 0.0
C477 C 0.01194 0.06661 0.14216 0.0
C478 C 0.05419 0.07785 0.14393 0.0
C479 C 0.8646 0.93855 0.11518 0.0
C480 C 0.8304 0.93475 0.12774 0.0
C481 C 0.8764 0.90837 0.11719 0.0
C482 C 0.85376 0.87357 0.1314 0.0
H483 H 0.88615 0.96767 0.10713 0.0
H484 H 0.90628 0.91538 0.11043 0.0
S485 S 0.75165 0.84065 0.15781 0.0
N486 N 0.76634 0.88703 0.14714 0.0
N487 N 0.78867 0.83042 0.1511 0.0
C488 C 0.81476 0.86521 0.13919 0.0
C489 C 0.80268 0.89576 0.13701 0.0
C490 C 0.10347 0.93212 0.19084 0.0
C491 C 0.12001 0.96578 0.17544 0.0
C492 C 0.06932 0.89442 0.18438 0.0
C493 C 0.05008 0.88992 0.16259 0.0
H494 H 0.11387 0.93632 0.20882 0.0
H495 H 0.05468 0.8711 0.19776 0.0
S496 S 0.0904 0.96395 0.11349 0.0
N497 N 0.12196 -0.01156 0.13542 0.0
N498 N 0.05679 0.91783 0.12356 0.0
C499 C 0.07094 0.92061 0.14571 0.0
C500 C 0.10623 0.95877 0.15214 0.0
C501 C 0.09222 0.06357 0.39366 0.0
C502 C 0.10988 0.10297 0.38345 0.0
C503 C 0.10163 0.03385 0.38526 0.0
C504 C 0.12857 0.0426 0.36622 0.0
H505 H 0.06738 0.05398 0.40619 0.0
H506 H 0.08379 0.00257 0.39178 0.0
S507 S 0.19367 0.1451 0.33929 0.0
N508 N 0.1643 0.15251 0.35807 0.0
N509 N 0.18061 0.09592 0.34167 0.0
C510 C 0.15145 0.08364 0.35865 0.0
C511 C 0.14259 0.11421 0.36757 0.0
C512 C 0.88344 0.98162 0.38962 0.0
C513 C 0.85289 0.96984 0.37232 0.0
C514 C 0.9145 0.02299 0.39215 0.0
C515 C 0.91608 0.05375 0.37733 0.0
H516 H 0.88571 0.9584 0.39979 0.0
H517 H 0.93961 0.03002 0.40408 0.0
S518 S 0.8372 0.04076 0.33387 0.0
N519 N 0.82124 -0.00636 0.34374 0.0
N520 N 0.88007 0.07119 0.34826 0.0
C521 C 0.88274 0.04324 0.36224 0.0
C522 C 0.85093 0.00124 0.3598 0.0
C523 C 0.91234 0.80832 0.33699 0.0
C524 C 0.89712 0.8218 0.35554 0.0
C525 C 0.95435 0.82108 0.33533 0.0
C526 C -0.01749 0.84804 0.35208 0.0
H527 H 0.89257 0.7915 0.3224 0.0
H528 H 0.96522 0.81363 0.31947 0.0
S529 S 0.95613 0.88115 0.40761 0.0
N530 N 0.91171 0.85493 0.39378 0.0
N531 N -0.00917 0.87924 0.39054 0.0
C532 C 0.96665 0.85601 0.37253 0.0
C533 C 0.92376 0.84276 0.3743 0.0
C534 C 0.87924 0.85692 0.84803 0.0
C535 C 0.85718 0.84776 0.82693 0.0
C536 C 0.91099 0.84775 0.85099 0.0
C537 C 0.92211 0.82972 0.83278 0.0
H538 H 0.87396 0.87394 0.86173 0.0
H539 H 0.92931 0.85842 0.86679 0.0
S540 S 0.86857 0.79224 0.77597 0.0
N541 N 0.84419 0.81351 0.78904 0.0
N542 N 0.90447 0.797 0.7945 0.0
C543 C 0.89742 0.81637 0.81263 0.0
C544 C 0.86473 0.82522 0.80972 0.0
C545 C 0.03649 0.00509 0.87415 0.0
C546 C 0.06461 0.04082 0.86202 0.0
C547 C 0.04343 0.97172 0.87665 0.0
C548 C 0.07828 0.97273 0.86659 0.0
H549 H 0.00733 0.00148 0.88007 0.0
H550 H 0.01895 0.94338 0.88403 0.0
S551 S 0.16626 0.06334 0.83878 0.0
N552 N 0.13263 0.07876 0.84441 0.0
N553 N 0.14535 0.01556 0.84868 0.0
C554 C 0.10934 0.01047 0.85749 0.0
C555 C 0.10248 0.0447 0.8552 0.0
C556 C 0.85588 0.05917 0.83862 0.0
C557 C 0.84349 0.02052 0.84881 0.0
C558 C 0.89191 0.0944 0.84609 0.0
C559 C 0.91708 0.09117 0.86327 0.0
H560 H 0.8408 0.06125 0.82297 0.0
H561 H 0.90343 0.12204 0.83556 0.0
S562 S 0.88742 0.00175 0.90224 0.0
N563 N 0.85061 0.98467 0.88234 0.0
N564 N 0.91898 0.05083 0.89596 0.0
C565 C 0.89957 0.05542 0.87713 0.0
C566 C 0.8626 0.01963 0.86974 0.0
C567 C 0.87438 0.97549 0.59586 0.0
C568 C 0.84705 0.97715 0.61218 0.0
C569 C 0.87293 0.93793 0.591 0.0
C570 C 0.84421 0.90151 0.60241 0.0
H571 H 0.90072 0.00368 0.58966 0.0
H572 H 0.89834 0.93875 0.58139 0.0
S573 S 0.75426 0.88768 0.63691 0.0
N574 N 0.782 0.93807 0.63264 0.0
N575 N 0.7788 0.86717 0.6232 0.0
C576 C 0.81096 0.90159 0.6139 0.0
C577 C 0.8127 0.93986 0.61907 0.0
C578 C 0.07237 0.94617 0.61249 0.0
C579 C 0.09728 0.94378 0.63011 0.0
C580 C 0.03052 0.91642 0.61082 0.0
C581 C 0.01243 0.88365 0.62683 0.0
H582 H 0.08397 0.97346 0.60165 0.0
H583 H 0.01154 0.92182 0.59866 0.0
S584 S 0.06709 0.85636 0.67099 0.0
N585 N 0.10313 0.90033 0.65978 0.0
N586 N 0.02421 0.84503 0.65694 0.0
C587 C 0.03829 0.87744 0.64197 0.0
C588 C 0.081 0.90736 0.64345 0.0
C589 C 0.04951 0.10889 0.63342 0.0
C590 C 0.0331 0.11953 0.65263 0.0
C591 C 0.08459 0.1048 0.63582 0.0
C592 C 0.10403 0.1106 0.65763 0.0
H593 H 0.03349 0.10079 0.61681 0.0
H594 H 0.09433 0.09365 0.62096 0.0
S595 S 0.07761 0.14603 0.71234 0.0
N596 N 0.04255 0.14175 0.69333 0.0
N597 N 0.10809 0.13341 0.6979 0.0
C598 C 0.09041 0.12526 0.67637 0.0
C599 C 0.05501 0.12995 0.67385 0.0
C600 C 0.72805 0.48718 0.47672 0.0
C601 C 0.71474 0.50062 0.49617 0.0
C602 C 0.76346 0.4835 0.47811 0.0
C603 C 0.78647 0.49334 0.49891 0.0
H604 H 0.7084 0.47434 0.46154 0.0
H605 H 0.76968 0.46793 0.46396 0.0
S606 S 0.77293 0.54505 0.55099 0.0
N607 N 0.73342 0.53508 0.53396 0.0
N608 N 0.80026 0.52843 0.53657 0.0
C609 C 0.77793 0.51442 0.51656 0.0
C610 C 0.74171 0.51788 0.51521 0.0
C611 C 0.52031 0.289 0.48657 0.0
C612 C 0.5494 0.32323 0.47369 0.0
C613 C 0.52036 0.25149 0.48604 0.0
C614 C 0.54891 0.24673 0.47229 0.0
H615 H 0.50007 0.29225 0.49891 0.0
H616 H 0.50017 0.22724 0.4979 0.0
S617 S 0.62443 0.32361 0.43104 0.0
N618 N 0.60231 0.34761 0.44362 0.0
N619 N 0.60186 0.27671 0.4423 0.0
C620 C 0.57424 0.27876 0.45694 0.0
C621 C 0.5746 0.31721 0.45772 0.0
C622 C 0.73076 0.22323 0.49077 0.0
C623 C 0.70812 0.2211 0.47066 0.0
C624 C 0.76118 0.26146 0.49947 0.0
C625 C 0.77098 0.29821 0.48772 0.0
H626 H 0.72082 0.19642 0.50183 0.0
H627 H 0.77408 0.26247 0.51655 0.0
S628 S 0.73244 0.30642 0.42945 0.0
N629 N 0.70583 0.25673 0.43582 0.0
N630 N 0.76439 0.32865 0.45155 0.0
C631 C 0.75467 0.2953 0.4652 0.0
C632 C 0.72313 0.25642 0.45662 0.0
C633 C 0.84336 0.47249 0.666 0.0
C634 C 0.82698 0.47577 0.68759 0.0
C635 C 0.84775 0.4381 0.66087 0.0
C636 C 0.8369 0.40657 0.67736 0.0
H637 H 0.84767 0.49353 0.65189 0.0
H638 H 0.85543 0.43415 0.64313 0.0
S639 S 0.80653 0.40827 0.73897 0.0
N640 N 0.80996 0.45032 0.72733 0.0
N641 N 0.81946 0.38624 0.71802 0.0
C642 C 0.82789 0.41346 0.70031 0.0
C643 C 0.82272 0.44813 0.70539 0.0
C644 C 0.55251 0.42145 0.70495 0.0
C645 C 0.54633 0.38745 0.71854 0.0
C646 C 0.59211 0.45528 0.70197 0.0
C647 C 0.62621 0.45656 0.71309 0.0
H648 H 0.5282 0.41916 0.69369 0.0
H649 H 0.5966 0.47793 0.6888 0.0
S650 S 0.62231 0.38493 0.75898 0.0
N651 N 0.57443 0.36405 0.74939 0.0
N652 N 0.64894 0.42817 0.74413 0.0
C653 C 0.6187 0.42757 0.73074 0.0
C654 C 0.57837 0.39287 0.73358 0.0
C655 C 0.62966 0.21875 0.67994 0.0
C656 C 0.66618 0.2484 0.69098 0.0
C657 C 0.59308 0.22021 0.68222 0.0
C658 C 0.59202 0.25147 0.69552 0.0
H659 H 0.63009 0.19646 0.66787 0.0
H660 H 0.56663 0.19897 0.6719 0.0
S661 S 0.67641 0.32998 0.73237 0.0
N662 N 0.69681 0.30486 0.7192 0.0
N663 N 0.62819 0.30782 0.72327 0.0
C664 C 0.62687 0.27808 0.70884 0.0
C665 C 0.66397 0.27642 0.70666 0.0
C666 C 0.62872 0.22016 0.24821 0.0
C667 C 0.63185 0.19519 0.23074 0.0
C668 C 0.59341 0.22398 0.24996 0.0
C669 C 0.55993 0.20204 0.23476 0.0
H670 H 0.65527 0.24045 0.25875 0.0
H671 H 0.59387 0.2471 0.26172 0.0
S672 S 0.54971 0.12564 0.18975 0.0
N673 N 0.5964 0.14328 0.20063 0.0
N674 N 0.52932 0.14932 0.20449 0.0
C675 C 0.56053 0.17266 0.21953 0.0
C676 C 0.59684 0.16955 0.21734 0.0
C677 C 0.82722 0.38822 0.21143 0.0
C678 C 0.80492 0.35974 0.22918 0.0
C679 C 0.82574 0.42481 0.20906 0.0
C680 C 0.80285 0.43464 0.22469 0.0
H681 H 0.84239 0.38038 0.19782 0.0
H682 H 0.84006 0.44395 0.19389 0.0
S683 S 0.74749 0.37543 0.27736 0.0
N684 N 0.76541 0.34737 0.265 0.0
N685 N 0.76351 0.4168 0.26084 0.0
C686 C 0.78518 0.40932 0.2443 0.0
C687 C 0.78611 0.37166 0.24652 0.0
C688 C 0.57068 0.40653 0.21143 0.0
C689 C 0.56149 0.37455 0.22735 0.0
C690 C 0.60771 0.44408 0.21299 0.0
C691 C 0.63714 0.45035 0.23019 0.0
H692 H 0.55089 0.40124 0.19649 0.0
H693 H 0.61513 0.46621 0.19904 0.0
S694 S 0.62298 0.38033 0.27945 0.0
N695 N 0.58067 0.35481 0.26366 0.0
N696 N 0.65088 0.42511 0.26622 0.0
C697 C 0.62572 0.42094 0.24806 0.0
C698 C 0.58765 0.38293 0.2467 0.0
C699 C 0.51799 0.30429 0.9974 0.0
C700 C 0.51672 0.32165 0.01907 0.0
C701 C 0.5047 0.26209 0.99533 0.0
C702 C 0.48907 0.23587 0.01473 0.0
H703 H 0.53291 0.32388 0.98248 0.0
H704 H 0.51023 0.25071 0.97903 0.0
S705 S 0.47045 0.26445 0.07387 0.0
N706 N 0.49202 0.30827 0.05919 0.0
N707 N 0.46639 0.22872 0.05517 0.0
C708 C 0.4824 0.25179 0.03559 0.0
C709 C 0.4965 0.29489 0.03782 0.0
C710 C 0.70921 0.21095 0.01727 0.0
C711 C 0.7237 0.23976 0.99894 0.0
C712 C 0.66697 0.18364 0.02008 0.0
C713 C 0.63818 0.18403 0.00447 0.0
H714 H 0.72981 0.21279 0.03109 0.0
H715 H 0.65675 0.16499 0.03574 0.0
S716 S 0.66221 0.24413 0.94956 0.0
N717 N 0.70744 0.2603 0.96209 0.0
N718 N 0.62799 0.20833 0.96701 0.0
C719 C 0.65297 0.20789 0.98407 0.0
C720 C 0.69592 0.23591 0.98135 0.0
C721 C 0.74009 0.42009 0.9872 0.0
C722 C 0.76799 0.4323 0.00594 0.0
C723 C 0.71164 0.43401 0.98569 0.0
C724 C 0.71089 0.46109 1.00261 0.0
H725 H 0.73732 0.39649 0.97501 0.0
H726 H 0.68765 0.42045 0.97255 0.0
S727 S 0.78452 0.5099 0.05161 0.0
N728 N 0.79826 0.47847 0.03918 0.0
N729 N 0.74548 0.50561 0.03603 0.0
C730 C 0.7425 0.47803 0.01942 0.0
C731 C 0.77088 0.4632 0.02123 0.0
C732 C 0.31504 0.74839 0.75177 0.0
C733 C 0.31023 0.76848 0.77139 0.0
C734 C 0.35394 0.75425 0.74578 0.0
C735 C 0.38896 0.78091 0.75899 0.0
H736 H 0.28827 0.72381 0.74308 0.0
H737 H 0.35572 0.7339 0.73281 0.0
S738 S 0.39356 0.85049 0.8069 0.0
N739 N 0.34413 0.82284 0.80033 0.0
N740 N 0.41759 0.83533 0.78851 0.0
C741 C 0.38532 0.80684 0.77565 0.0
C742 C 0.34563 0.80009 0.78211 0.0
C743 C 0.15531 0.54665 0.79008 0.0
C744 C 0.18262 0.58045 0.77635 0.0
C745 C 0.16024 0.51192 0.79218 0.0
C746 C 0.19165 0.50953 0.77999 0.0
H747 H 0.13331 0.54903 0.80141 0.0
H748 H 0.1416 0.48841 0.80481 0.0
S749 S 0.26586 0.58665 0.73842 0.0
N750 N 0.23837 0.60725 0.7481 0.0
N751 N 0.24649 0.5411 0.75118 0.0
C752 C 0.21558 0.54076 0.76392 0.0
C753 C 0.21129 0.57655 0.76228 0.0
C754 C 0.36035 0.55594 0.75798 0.0
C755 C 0.36074 0.53063 0.77607 0.0
C756 C 0.38857 0.59852 0.75772 0.0
C757 C 0.41779 0.61712 0.77567 0.0
H758 H 0.33572 0.54362 0.7452 0.0
H759 H 0.38482 0.61741 0.74471 0.0
S760 S 0.43844 0.56326 0.8235 0.0
N761 N 0.39838 0.5262 0.80957 0.0
N762 N 0.45062 0.60631 0.80933 0.0
C763 C 0.4218 0.59151 0.7921 0.0
C764 C 0.39355 0.54811 0.79216 0.0
C765 C 0.45561 0.71598 0.96954 0.0
C766 C 0.43676 0.68859 0.98823 0.0
C767 C 0.45325 0.75219 0.96771 0.0
C768 C 0.43141 0.76167 0.98433 0.0
H769 H 0.46956 0.70792 0.95534 0.0
H770 H 0.46514 0.77059 0.95204 0.0
S771 S 0.3843 0.70479 0.03901 0.0
N772 N 0.40189 0.67719 0.02575 0.0
N773 N 0.3967 0.74484 0.02191 0.0
C774 C 0.41653 0.73705 0.00437 0.0
C775 C 0.41942 0.70053 0.00643 0.0
C776 C 0.18996 0.70755 0.96872 0.0
C777 C 0.18472 0.6884 0.99057 0.0
C778 C 0.2256 0.74513 0.96386 0.0
C779 C 0.25679 0.7645 0.98074 0.0
H780 H 0.16917 0.69122 0.95441 0.0
H781 H 0.23057 0.75655 0.94612 0.0
S782 S 0.25026 0.7341 0.0429 0.0
N783 N 0.20793 0.69675 0.03083 0.0
N784 N 0.27475 0.76766 0.02185 0.0
C785 C 0.24829 0.74933 0.00373 0.0
C786 C 0.21214 0.71106 0.00863 0.0
C787 C 0.2131 0.4851 0.99734 0.0
C788 C 0.20842 0.51394 0.01105 0.0
C789 C 0.24971 0.48359 0.99802 0.0
C790 C 0.2826 0.51112 0.01231 0.0
H791 H 0.19044 0.46687 0.98417 0.0
H792 H 0.25397 0.46455 0.98519 0.0
S793 S 0.27934 0.58091 0.0576 0.0
N794 N 0.23466 0.56182 0.04395 0.0
N795 N 0.30371 0.5591 0.04511 0.0
C796 C 0.27518 0.5343 0.0291 0.0
C797 C 0.23788 0.53578 0.02846 0.0
C798 C 0.21944 0.48357 0.54779 0.0
C799 C 0.21973 0.51246 0.56383 0.0
C800 C 0.25614 0.48435 0.54181 0.0
C801 C 0.29362 0.51329 0.55215 0.0
H802 H 0.19237 0.46462 0.53727 0.0
H803 H 0.25596 0.46606 0.52698 0.0
S804 S 0.3068 0.5836 0.60155 0.0
N805 N 0.25757 0.5621 0.59453 0.0
N806 N 0.32645 0.56258 0.58395 0.0
C807 C 0.29241 0.53588 0.57162 0.0
C808 C 0.25523 0.53571 0.57734 0.0
C809 C 0.38215 0.70002 0.54669 0.0
C810 C 0.41099 0.69499 0.5334 0.0
C811 C 0.37715 0.7345 0.54354 0.0
C812 C 0.39986 0.76412 0.5264 0.0
H813 H 0.36138 0.67573 0.55837 0.0
H814 H 0.35289 0.73601 0.55312 0.0
S815 S 0.48201 0.76689 0.48881 0.0
N816 N 0.46539 0.72427 0.5043 0.0
N817 N 0.45491 0.78843 0.49769 0.0
C818 C 0.43079 0.76091 0.51422 0.0
C819 C 0.43668 0.72643 0.51792 0.0
C820 C 0.254 0.75002 0.56099 0.0
C821 C 0.24675 0.77095 0.54284 0.0
C822 C 0.22636 0.70809 0.56516 0.0
C823 C 0.19077 0.68626 0.55138 0.0
H824 H 0.28346 0.76426 0.5699 0.0
H825 H 0.23543 0.69182 0.57729 0.0
S826 S 0.15128 0.7313 0.50781 0.0
N827 N 0.19671 0.77006 0.51555 0.0
N828 N 0.1445 0.69134 0.5235 0.0
C829 C 0.17987 0.70882 0.53622 0.0
C830 C 0.208 0.75137 0.53197 0.0
C831 C 0.21183 0.63618 0.29822 0.0
C832 C 0.19405 0.65538 0.31132 0.0
C833 C 0.20349 0.59614 0.30352 0.0
C834 C 0.17639 0.57362 0.32171 0.0
H835 H 0.23523 0.65341 0.28523 0.0
H836 H 0.22059 0.58387 0.29442 0.0
S837 S 0.11558 0.6068 0.35796 0.0
N838 N 0.14363 0.64673 0.34091 0.0
N839 N 0.12717 0.5709 0.35048 0.0
C840 C 0.15475 0.59055 0.33306 0.0
C841 C 0.16381 0.63167 0.32795 0.0
C842 C 0.33444 0.51388 0.34336 0.0
C843 C 0.30176 0.50842 0.32893 0.0
C844 C 0.3754 0.54101 0.33709 0.0
C845 C 0.38491 0.56444 0.31645 0.0
H846 H 0.32826 0.49998 0.36054 0.0
H847 H 0.39914 0.54718 0.34985 0.0
S848 S 0.31105 0.55332 0.27005 0.0
N849 N 0.28197 0.52187 0.29092 0.0
N850 N 0.35902 0.57381 0.27942 0.0
C851 C 0.35292 0.55478 0.30042 0.0
C852 C 0.31118 0.52658 0.30665 0.0
C853 C 0.40931 0.81147 0.30963 0.0
C854 C 0.37572 0.79228 0.29416 0.0
C855 C 0.43609 0.79584 0.31275 0.0
C856 C 0.43068 0.76097 0.30022 0.0
H857 H 0.41257 0.83612 0.32113 0.0
H858 H 0.45908 0.80906 0.32644 0.0
S859 S 0.35371 0.70557 0.25366 0.0
N860 N 0.34311 0.74121 0.26315 0.0
N861 N 0.39403 0.7122 0.26889 0.0
C862 C 0.4009 0.74509 0.28243 0.0
C863 C 0.37326 0.76078 0.27937 0.0
C864 C 0.09394 0.09646 0.30128 0.0
C865 C 0.06186 0.1056 0.29938 0.0
C866 C 0.10885 0.08557 0.2817 0.0
C867 C 0.09204 0.08331 0.25949 0.0
H868 H 0.10819 0.09855 0.31803 0.0
H869 H 0.13455 0.08012 0.28387 0.0
S870 S 0.00641 0.10295 0.24534 0.0
N871 N 0.01256 0.11026 0.27388 0.0
N872 N 0.04038 0.08951 0.23677 0.0
C873 C 0.05844 0.09032 0.25748 0.0
C874 C 0.04335 0.10156 0.27754 0.0
C875 C 0.82073 0.92158 0.23754 0.0
C876 C 0.8593 0.95676 0.23341 0.0
C877 C 0.8127 0.89928 0.25829 0.0
C878 C 0.84283 0.91142 0.27581 0.0
H879 H 0.79613 0.91153 0.22483 0.0
H880 H 0.78222 0.87291 0.26082 0.0
S881 S 0.94983 -0.00031 0.27298 0.0
N882 N 0.92893 0.00116 0.24788 0.0
N883 N 0.91343 0.95997 0.2873 0.0
C884 C 0.88203 0.94577 0.27162 0.0
C885 C 0.89039 0.96822 0.2503 0.0
C886 C 0.03787 0.96642 0.24808 0.0
C887 C 0.0217 0.9499 0.27016 0.0
C888 C 0.01318 0.95232 0.22795 0.0
C889 C 0.97172 0.92055 0.22923 0.0
H890 H 0.07042 -0.0117 0.24613 0.0
H891 H 0.02771 0.96377 0.21115 0.0
S892 S 0.91373 0.86969 0.2831 0.0
N893 N 0.96057 0.90285 0.2923 0.0
N894 N 0.91464 0.87607 0.25458 0.0
C895 C 0.95438 0.90636 0.25141 0.0
C896 C 0.9793 0.92104 0.27187 0.0
C897 C 0.90508 0.91368 0.72032 0.0
C898 C 0.8838 0.91113 0.69959 0.0
C899 C 0.89481 0.92563 0.74148 0.0
C900 C 0.86293 0.93535 0.74253 0.0
H901 H 0.92776 0.90364 0.72056 0.0
H902 H 0.9098 0.92417 0.75733 0.0
S903 S 0.80533 0.94349 0.6922 0.0
N904 N 0.83494 0.92673 0.6807 0.0
N905 N 0.81553 0.94882 0.72044 0.0
C906 C 0.8446 0.93711 0.72153 0.0
C907 C 0.85506 0.92506 0.70004 0.0
C908 C 0.07023 0.9448 0.75724 0.0
C909 C 0.09192 0.92834 0.76887 0.0
C910 C 0.08663 0.96955 0.73746 0.0
C911 C 0.12536 0.97882 0.72855 0.0
H912 H 0.04045 0.93888 0.76356 0.0
H913 H 0.0688 0.98162 0.72916 0.0
S914 S 0.19408 0.94233 0.75218 0.0
N915 N 0.15381 0.92231 0.76978 0.0
N916 N 0.18467 0.96888 0.73255 0.0
C917 C 0.14723 0.96221 0.73985 0.0
C918 C 0.13049 0.93694 0.76001 0.0
C919 C 0.95944 0.04279 0.72903 0.0
C920 C 0.92214 0.04241 0.72487 0.0
C921 C 0.97696 0.05079 0.75146 0.0
C922 C 0.95759 0.05845 0.7704 0.0
H923 H 0.97686 0.0402 0.71461 0.0
H924 H 0.00708 0.05371 0.7536 0.0
S925 S 0.85501 0.05154 0.76937 0.0
N926 N 0.86333 0.04361 0.74201 0.0
N927 N 0.89573 0.05813 0.78414 0.0
C928 C 0.91822 0.05376 0.76682 0.0
C929 C 0.90061 0.04585 0.74404 0.0
C930 C 0.75196 0.38938 0.60372 0.0
C931 C 0.74153 0.39605 0.58119 0.0
C932 C 0.73959 0.40241 0.62366 0.0
C933 C 0.71732 0.42359 0.62171 0.0
H934 H 0.77169 0.37603 0.60595 0.0
H935 H 0.75058 0.39892 0.64053 0.0
S936 S 0.67834 0.44463 0.56711 0.0
N937 N 0.70356 0.42109 0.55836 0.0
N938 N 0.68166 0.44676 0.59586 0.0
C939 C 0.70405 0.42763 0.59949 0.0
C940 C 0.71587 0.41362 0.5792 0.0
C941 C 0.57722 0.36018 0.58 0.0
C942 C 0.56146 0.38546 0.57238 0.0
C943 C 0.56567 0.34003 0.6016 0.0
C944 C 0.53757 0.34403 0.61624 0.0
H945 H 0.59836 0.35554 0.56912 0.0
H946 H 0.57837 0.3207 0.6067 0.0
S947 S 0.48867 0.40796 0.60488 0.0
N948 N 0.51737 0.41448 0.58161 0.0
N949 N 0.49536 0.3763 0.622 0.0
C950 C 0.52202 0.36964 0.60898 0.0
C951 C 0.53402 0.39042 0.5871 0.0
C952 C 0.69498 0.21543 0.55746 0.0
C953 C 0.66393 0.22513 0.5526 0.0
C954 C 0.72172 0.23344 0.57638 0.0
C955 C 0.718 0.26132 0.59148 0.0
H956 H 0.6986 0.19354 0.54659 0.0
H957 H 0.74461 0.22429 0.5796 0.0
S958 S 0.64232 0.29788 0.58586 0.0
N959 N 0.63207 0.26589 0.56358 0.0
N960 N 0.68106 0.29839 0.59994 0.0
C961 C 0.68761 0.27204 0.5865 0.0
C962 C 0.66088 0.25429 0.56686 0.0
C963 C 0.49895 0.15932 0.11416 0.0
C964 C 0.52437 0.18681 0.09686 0.0
C965 C 0.4941 0.17376 0.1359 0.0
C966 C 0.51424 0.21632 0.14119 0.0
H967 H 0.48215 0.12634 0.11079 0.0
H968 H 0.47394 0.15125 0.14857 0.0
S969 S 0.58426 0.30134 0.10186 0.0
N970 N 0.57028 0.25879 0.08648 0.0
N971 N 0.56096 0.28588 0.12736 0.0
C972 C 0.54032 0.24421 0.12419 0.0
C973 C 0.54544 0.22947 0.10204 0.0
C974 C 0.80699 0.29792 0.10286 0.0
C975 C 0.7814 0.30996 0.09147 0.0
C976 C 0.7984 0.28221 0.12551 0.0
C977 C 0.76388 0.2779 0.13779 0.0
H978 H 0.83409 0.30067 0.09427 0.0
H979 H 0.81934 0.27366 0.13349 0.0
S980 S 0.68647 0.30418 0.11572 0.0
N981 N 0.71956 0.31598 0.09399 0.0
N982 N 0.70344 0.28644 0.13682 0.0
C983 C 0.73773 0.28954 0.12663 0.0
C984 C 0.74649 0.30558 0.10341 0.0
C985 C 0.67843 0.4428 0.1297 0.0
C986 C 0.70643 0.48355 0.13672 0.0
C987 C 0.6564 0.43477 0.10871 0.0
C988 C 0.66132 0.46723 0.09417 0.0
H989 H 0.67289 0.41693 0.14066 0.0
H990 H 0.63488 0.40296 0.10406 0.0
S991 S 0.73339 0.57919 0.10361 0.0
N992 N 0.73976 0.55656 0.12666 0.0
N993 N 0.69814 0.54143 0.08747 0.0
C994 C 0.68999 0.508 0.10068 0.0
C995 C 0.71263 0.51617 0.12189 0.0
C996 C 0.42103 0.82288 0.8756 0.0
C997 C 0.39399 0.79289 0.89144 0.0
C998 C 0.43366 0.81155 0.85514 0.0
C999 C 0.41947 0.76977 0.84957 0.0
H1000 H 0.43335 0.85547 0.87927 0.0
H1001 H 0.45502 0.83585 0.84368 0.0
S1002 S 0.34765 0.67904 0.88487 0.0
N1003 N 0.35334 0.71934 0.90003 0.0
N1004 N 0.37606 0.69819 0.8612 0.0
C1005 C 0.39154 0.73937 0.86488 0.0
C1006 C 0.37907 0.75089 0.88589 0.0
C1007 C 0.16791 0.5759 0.89649 0.0
C1008 C 0.18835 0.59969 0.91623 0.0
C1009 C 0.17634 0.59348 0.87423 0.0
C1010 C 0.20522 0.63557 0.87097 0.0
H1011 H 0.14402 0.5439 0.89837 0.0
H1012 H 0.15875 0.57434 0.85959 0.0
S1013 S 0.2673 0.7109 0.91708 0.0
N1014 N 0.23967 0.66703 0.93116 0.0
N1015 N 0.25522 0.70025 0.88922 0.0
C1016 C 0.22744 0.6592 0.8904 0.0
C1017 C 0.21902 0.64118 0.91311 0.0
C1018 C 0.33105 0.48472 0.87887 0.0
C1019 C 0.30318 0.49606 0.86975 0.0
C1020 C 0.35072 0.5003 0.9003 0.0
C1021 C 0.34334 0.52785 0.91352 0.0
H1022 H 0.33783 0.46355 0.86939 0.0
H1023 H 0.37172 0.49037 0.90658 0.0
S1024 S 0.27273 0.56714 0.89756 0.0
N1025 N 0.26908 0.53659 0.87559 0.0
N1026 N 0.30602 0.56589 0.91598 0.0
C1027 C 0.31571 0.53975 0.90458 0.0
C1028 C 0.29565 0.52385 0.88267 0.0
C1029 C 0.21665 0.54916 0.4633 0.0
C1030 C 0.19052 0.56534 0.46835 0.0
C1031 C 0.22001 0.53711 0.44049 0.0
C1032 C 0.19732 0.5408 0.42201 0.0
H1033 H 0.23289 0.54366 0.47722 0.0
H1034 H 0.2389 0.52295 0.43758 0.0
S1035 S 0.13072 0.58848 0.42533 0.0
N1036 N 0.14605 0.58959 0.45247 0.0
N1037 N 0.15237 0.56702 0.40971 0.0
C1038 C 0.17363 0.55987 0.42654 0.0
C1039 C 0.17025 0.57215 0.4497 0.0
C1040 C 0.45466 0.67766 0.41638 0.0
C1041 C 0.427 0.65748 0.39802 0.0
C1042 C 0.44481 0.66334 0.43924 0.0
C1043 C 0.40707 0.6279 0.44462 0.0
H1044 H 0.48475 0.70412 0.413 0.0
H1045 H 0.46774 0.67954 0.45266 0.0
S1046 S 0.32267 0.56563 0.4029 0.0
N1047 N 0.35918 0.60189 0.38667 0.0
N1048 N 0.34065 0.57449 0.4299 0.0
C1049 C 0.37817 0.60851 0.4266 0.0
C1050 C 0.38815 0.62344 0.4032 0.0
C1051 C 0.30841 0.78017 0.42389 0.0
C1052 C 0.30828 0.81287 0.43621 0.0
C1053 C 0.29739 0.77303 0.40027 0.0
C1054 C 0.28565 0.7982 0.38806 0.0
H1055 H 0.31782 0.7603 0.43242 0.0
H1056 H 0.29869 0.7479 0.39145 0.0
S1057 S 0.27813 0.88667 0.41258 0.0
N1058 N 0.29393 0.86978 0.43466 0.0
N1059 N 0.27307 0.85625 0.39027 0.0
C1060 C 0.2843 0.83034 0.40031 0.0
C1061 C 0.29567 0.83772 0.42438 0.0
C1062 C 0.30197 0.1541 0.22482 0.0
C1063 C 0.28104 0.16267 0.20728 0.0
C1064 C 0.34478 0.17738 0.22693 0.0
C1065 C 0.36823 0.20988 0.21147 0.0
H1066 H 0.28532 0.12849 0.23667 0.0
H1067 H 0.35964 0.16858 0.24014 0.0
S1068 S 0.32785 0.24778 0.16418 0.0
N1069 N 0.2865 0.20814 0.17546 0.0
N1070 N 0.36725 0.25191 0.17933 0.0
C1071 C 0.34754 0.22027 0.19465 0.0
C1072 C 0.30383 0.19662 0.19257 0.0
C1073 C 0.79049 0.09938 0.18172 0.0
C1074 C 0.82553 0.10392 0.19328 0.0
C1075 C 0.77257 0.12306 0.18817 0.0
C1076 C 0.78939 0.1527 0.20621 0.0
H1077 H 0.77676 0.07739 0.1675 0.0
H1078 H 0.74604 0.11893 0.17835 0.0
S1079 S 0.88011 0.17534 0.24265 0.0
N1080 N 0.8756 0.13892 0.22433 0.0
N1081 N 0.84223 0.18428 0.23614 0.0
C1082 C 0.82392 0.15698 0.2183 0.0
C1083 C 0.84194 0.13239 0.21191 0.0
C1084 C 0.84527 0.70311 0.20698 0.0
C1085 C 0.87239 0.71821 0.18783 0.0
C1086 C 0.82727 0.66173 0.21373 0.0
C1087 C 0.8361 0.63406 0.20174 0.0
H1088 H 0.83705 0.72316 0.21653 0.0
H1089 H 0.80533 0.65111 0.22799 0.0
S1090 S 0.90826 0.65929 0.15176 0.0
N1091 N 0.90935 0.70315 0.15792 0.0
N1092 N 0.87599 0.62536 0.17071 0.0
C1093 C 0.8647 0.64925 0.18322 0.0
C1094 C 0.88263 0.69132 0.17618 0.0
C1095 C 0.10915 0.3365 0.38216 0.0
C1096 C 0.10882 0.35728 0.36177 0.0
C1097 C 0.08771 0.29328 0.38326 0.0
C1098 C 0.06526 0.26922 0.36397 0.0
H1099 H 0.1273 0.35365 0.39717 0.0
H1100 H 0.09041 0.27871 0.39896 0.0
S1101 S 0.05013 0.30857 0.30754 0.0
N1102 N 0.08083 0.35061 0.32266 0.0
N1103 N 0.04055 0.2693 0.32468 0.0
C1104 C 0.06256 0.2896 0.34398 0.0
C1105 C 0.08434 0.33367 0.34289 0.0
C1106 C 0.61753 0.7739 0.34656 0.0
C1107 C 0.59709 0.7383 0.33244 0.0
C1108 C 0.65954 0.79195 0.35133 0.0
C1109 C 0.68315 0.77549 0.34201 0.0
H1110 H 0.60102 0.78825 0.35403 0.0
H1111 H 0.6738 0.81988 0.36185 0.0
S1112 S 0.64424 0.68121 0.30511 0.0
N1113 N 0.6032 0.68588 0.31012 0.0
N1114 N 0.68284 0.72044 0.31877 0.0
C1115 C 0.6631 0.73934 0.32827 0.0
C1116 C 0.61994 0.72063 0.32354 0.0
C1117 C 0.15513 0.86102 0.29252 0.0
C1118 C 0.17168 0.89886 0.30469 0.0
C1119 C 0.17777 0.84065 0.2896 0.0
C1120 C 0.21802 0.85767 0.29839 0.0
H1121 H 0.12362 0.84581 0.28628 0.0
H1122 H 0.16288 0.8104 0.28137 0.0
S1123 S 0.27755 0.95887 0.32863 0.0
N1124 N 0.23215 0.9546 0.3235 0.0
N1125 N 0.27511 0.91663 0.31767 0.0
C1126 C 0.23615 0.89705 0.30895 0.0
C1127 C 0.21282 0.91755 0.31223 0.0
C1128 C 0.6567 0.85576 0.78085 0.0
C1129 C 0.67624 0.84556 0.79849 0.0
C1130 C 0.61419 0.83186 0.77709 0.0
C1131 C 0.58975 0.79719 0.79098 0.0
H1132 H 0.67428 0.88261 0.76996 0.0
H1133 H 0.60025 0.8414 0.7637 0.0
S1134 S 0.62623 0.75568 0.8384 0.0
N1135 N 0.66819 0.79713 0.82916 0.0
N1136 N 0.58826 0.7524 0.8222 0.0
C1137 C 0.60903 0.78597 0.80824 0.0
C1138 C 0.65231 0.81013 0.81198 0.0
C1139 C 0.14299 0.76942 0.84037 0.0
C1140 C 0.13049 0.73948 0.82252 0.0
C1141 C 0.12012 0.78877 0.84572 0.0
C1142 C 0.08384 0.77881 0.83345 0.0
H1143 H 0.1714 0.77906 0.84985 0.0
H1144 H 0.13203 0.81301 0.85884 0.0
S1145 S 0.03491 0.69841 0.78729 0.0
N1146 N 0.07748 0.69783 0.79413 0.0
N1147 N 0.0342 0.73405 0.80423 0.0
C1148 C 0.06961 0.74705 0.81655 0.0
C1149 C 0.09307 0.72748 0.81102 0.0
C1150 C 0.14847 0.30801 0.83189 0.0
C1151 C 0.1712 0.32109 0.81099 0.0
C1152 C 0.12077 0.26633 0.83602 0.0
C1153 C 0.11429 0.23594 0.81934 0.0
H1154 H 0.15195 0.33019 0.84527 0.0
H1155 H 0.1038 0.25804 0.85232 0.0
S1156 S 0.16671 0.25368 0.7619 0.0
N1157 N 0.18621 0.30032 0.77358 0.0
N1158 N 0.13348 0.22152 0.7812 0.0
C1159 C 0.13713 0.24838 0.79842 0.0
C1160 C 0.16579 0.29106 0.79429 0.0
C1161 C 0.80088 0.6587 0.68073 0.0
C1162 C 0.78684 0.62946 0.66254 0.0
C1163 C 0.82012 0.70105 0.67605 0.0
C1164 C 0.8263 0.71575 0.65295 0.0
H1165 H 0.7972 0.64888 0.69881 0.0
H1166 H 0.83066 0.72238 0.69066 0.0
S1167 S 0.79458 0.65182 0.59897 0.0
N1168 N 0.77979 0.61803 0.62044 0.0
N1169 N 0.81624 0.69774 0.61166 0.0
C1170 C 0.81207 0.68686 0.63456 0.0
C1171 C 0.79224 0.64366 0.63933 0.0
C1172 C 0.35282 0.18373 0.69393 0.0
C1173 C 0.38128 0.18639 0.67702 0.0
C1174 C 0.31075 0.15596 0.69127 0.0
C1175 C 0.29554 0.12967 0.67167 0.0
H1176 H 0.36292 0.20386 0.70909 0.0
H1177 H 0.28996 0.15544 0.70468 0.0
S1178 S 0.35764 0.1228 0.62304 0.0
N1179 N 0.39169 0.15918 0.64041 0.0
N1180 N 0.31238 0.10678 0.63552 0.0
C1181 C 0.32374 0.13118 0.6549 0.0
C1182 C 0.36668 0.15961 0.65757 0.0
C1183 C 0.8139 0.17654 0.6712 0.0
C1184 C 0.83514 0.21581 0.66087 0.0
C1185 C 0.82905 0.14906 0.66982 0.0
C1186 C 0.86614 0.15982 0.65813 0.0
H1187 H 0.78482 0.16647 0.68005 0.0
H1188 H 0.81129 0.11901 0.67789 0.0
S1189 S 0.93474 0.25984 0.62916 0.0
N1190 N 0.89599 0.2648 0.63924 0.0
N1191 N 0.92467 0.21305 0.63676 0.0
C1192 C 0.88828 0.19936 0.64817 0.0
C1193 C 0.87274 0.22739 0.64952 0.0
C1194 C 0.00372 0.4977 0.55749 0.0
C1195 C 0.02683 0.48806 0.54188 0.0
C1196 C 0.9611 0.48027 0.55469 0.0
C1197 C 0.9405 0.45303 0.53608 0.0
H1198 H 0.01879 0.5201 0.57138 0.0
H1199 H 0.94453 0.48947 0.56662 0.0
S1200 S -0.01398 0.4135 0.49237 0.0
N1201 N 0.02525 0.44605 0.50868 0.0
N1202 N 0.94533 0.41389 0.50329 0.0
C1203 C 0.96284 0.44138 0.52116 0.0
C1204 C 0.00602 0.45871 0.52413 0.0
C1205 C 0.53507 0.53335 0.51342 0.0
C1206 C 0.52564 0.50066 0.49771 0.0
C1207 C 0.50817 0.54879 0.51667 0.0
C1208 C 0.47091 0.53221 0.50429 0.0
H1209 H 0.56289 0.54637 0.52387 0.0
H1210 H 0.51648 0.57357 0.52922 0.0
S1211 S 0.43323 0.44836 0.45976 0.0
N1212 N 0.47755 0.45366 0.46869 0.0
N1213 N 0.42687 0.48279 0.4747 0.0
C1214 C 0.46173 0.50048 0.48788 0.0
C1215 C 0.48917 0.48473 0.48459 0.0
C1216 C 0.46907 0.03401 0.51279 0.0
C1217 C 0.50062 0.0468 0.49603 0.0
C1218 C 0.43966 -0.00779 0.51539 0.0
C1219 C 0.44135 0.96183 0.50159 0.0
H1220 H 0.467 0.05645 0.52398 0.0
H1221 H 0.41579 0.98363 0.52845 0.0
S1222 S 0.5178 0.97935 0.4551 0.0
N1223 N 0.5316 0.02596 0.46527 0.0
N1224 N 0.47677 0.94731 0.47032 0.0
C1225 C 0.47274 0.97423 0.48473 0.0
C1226 C 0.50227 0.01679 0.48188 0.0
C1227 C 0.46541 -0.00176 0.01245 0.0
C1228 C 0.45514 0.02687 1.00333 0.0
C1229 C 0.45143 0.95973 1.00189 0.0
C1230 C 0.42634 0.94817 0.98187 0.0
H1231 H 0.48517 0.00584 0.02765 0.0
H1232 H 0.46038 0.93887 0.00957 0.0
S1233 S 0.38937 0.01137 0.95154 0.0
N1234 N 0.41763 0.04087 0.97338 0.0
N1235 N 0.39087 0.96794 0.95359 0.0
C1236 C 0.41516 0.97615 0.97275 0.0
C1237 C 0.42964 0.01563 0.98347 0.0
C1238 C 0.9536 0.42359 0.9898 0.0
C1239 C 0.93629 0.42627 0.01107 0.0
C1240 C -0.00559 0.45225 0.98422 0.0
C1241 C 0.01924 0.48445 0.99975 0.0
H1242 H 0.93535 0.39968 0.97717 0.0
H1243 H 0.00644 0.4492 0.96755 0.0
S1244 S -0.0111 0.50394 0.05817 0.0
N1245 N 0.94735 0.46285 0.04811 0.0
N1246 N 0.02404 0.51674 0.03756 0.0
C1247 C 0.00251 0.48707 0.02126 0.0
C1248 C 0.96101 0.45791 0.02695 0.0
C1249 C 0.47755 0.51112 0.02047 0.0
C1250 C 0.48373 0.53339 0.99973 0.0
C1251 C 0.50479 0.49776 0.02721 0.0
C1252 C 0.53904 0.50589 0.01333 0.0
H1253 H 0.45109 0.50333 0.03149 0.0
H1254 H 0.49817 0.47985 0.04308 0.0
S1255 S 0.57049 0.56545 0.95812 0.0
N1256 N 0.52774 0.56505 0.96593 0.0
N1257 N 0.57905 0.53949 0.97854 0.0
C1258 C 0.54644 0.52934 0.99292 0.0
C1259 C 0.51873 0.54323 0.98612 0.0
loop_
_geom_bond_atom_site_label_1
_geom_bond_atom_site_label_2
_geom_bond_distance
_geom_bond_site_symmetry_2
_ccdc_geom_bond_type
In0 O1 2.294 . S
In0 O2 2.326 . S
In0 O6 2.266 . S
In0 O7 2.326 . S
In0 O8 2.266 . S
In0 O9 2.326 . S
In0 O11 2.294 . S
In0 O12 2.326 . S
O1 In0 2.294 . S
O1 C10 1.240 . S
O2 In0 2.326 . S
O2 C10 1.252 . S
C3 O6 1.252 . S
C3 O7 1.260 . S
C4 O11 1.240 . S
C4 O12 1.252 . S
C5 O8 1.252 . S
C5 O9 1.260 . S
O6 In0 2.266 . S
O6 C3 1.252 . S
O7 In0 2.326 . S
O7 C3 1.260 . S
O8 In0 2.266 . S
O8 C5 1.252 . S
O9 In0 2.326 . S
O9 C5 1.260 . S
C10 O1 1.240 . S
C10 O2 1.252 . S
O11 In0 2.294 . S
O11 C4 1.240 . S
O12 In0 2.326 . S
O12 C4 1.252 . S
In13 O14 2.294 . S
In13 O15 2.326 . S
In13 O19 2.266 1_545 S
In13 O20 2.326 1_545 S
In13 O21 2.266 . S
In13 O22 2.326 . S
In13 O24 2.294 . S
In13 O25 2.326 1_545 S
O14 In13 2.294 . S
O14 C23 1.240 . S
O15 In13 2.326 . S
O15 C23 1.252 . S
C16 O19 1.252 . S
C16 O20 1.260 . S
C17 O24 1.240 . S
C17 O25 1.252 1_545 S
C18 O21 1.252 . S
C18 O22 1.260 . S
O19 In13 2.266 1_565 S
O19 C16 1.252 . S
O20 In13 2.326 1_565 S
O20 C16 1.260 . S
O21 In13 2.266 . S
O21 C18 1.252 . S
O22 In13 2.326 . S
O22 C18 1.260 . S
C23 O14 1.240 . S
C23 O15 1.252 . S
O24 In13 2.294 . S
O24 C17 1.240 . S
O25 In13 2.326 1_565 S
O25 C17 1.252 1_565 S
In26 O27 2.294 . S
In26 O28 2.326 1_655 S
In26 O32 2.266 . S
In26 O33 2.326 . S
In26 O34 2.266 1_655 S
In26 O35 2.326 1_655 S
In26 O37 2.294 . S
In26 O38 2.326 . S
O27 In26 2.294 . S
O27 C36 1.240 . S
O28 In26 2.326 1_455 S
O28 C36 1.252 1_455 S
C29 O32 1.252 . S
C29 O33 1.260 . S
C30 O37 1.240 . S
C30 O38 1.252 . S
C31 O34 1.252 . S
C31 O35 1.260 . S
O32 In26 2.266 . S
O32 C29 1.252 . S
O33 In26 2.326 . S
O33 C29 1.260 . S
O34 In26 2.266 1_455 S
O34 C31 1.252 . S
O35 In26 2.326 1_455 S
O35 C31 1.260 . S
C36 O27 1.240 . S
C36 O28 1.252 1_655 S
O37 In26 2.294 . S
O37 C30 1.240 . S
O38 In26 2.326 . S
O38 C30 1.252 . S
In39 O40 2.294 . S
In39 O41 2.326 . S
In39 O45 2.266 . S
In39 O46 2.326 . S
In39 O47 2.266 . S
In39 O48 2.326 . S
In39 O50 2.294 . S
In39 O51 2.326 . S
O40 In39 2.294 . S
O40 C49 1.240 . S
O41 In39 2.326 . S
O41 C49 1.252 . S
C42 O45 1.252 . S
C42 O46 1.260 . S
C43 O50 1.240 . S
C43 O51 1.252 . S
C44 O47 1.252 . S
C44 O48 1.260 . S
O45 In39 2.266 . S
O45 C42 1.252 . S
O46 In39 2.326 . S
O46 C42 1.260 . S
O47 In39 2.266 . S
O47 C44 1.252 . S
O48 In39 2.326 . S
O48 C44 1.260 . S
C49 O40 1.240 . S
C49 O41 1.252 . S
O50 In39 2.294 . S
O50 C43 1.240 . S
O51 In39 2.326 . S
O51 C43 1.252 . S
In52 O53 2.294 . S
In52 O54 2.326 1_565 S
In52 O58 2.266 . S
In52 O59 2.326 . S
In52 O60 2.266 1_565 S
In52 O61 2.326 1_565 S
In52 O63 2.294 . S
In52 O64 2.326 . S
O53 In52 2.294 . S
O53 C62 1.240 . S
O54 In52 2.326 1_545 S
O54 C62 1.252 1_545 S
C55 O58 1.252 . S
C55 O59 1.260 . S
C56 O63 1.240 . S
C56 O64 1.252 . S
C57 O60 1.252 . S
C57 O61 1.260 . S
O58 In52 2.266 . S
O58 C55 1.252 . S
O59 In52 2.326 . S
O59 C55 1.260 . S
O60 In52 2.266 1_545 S
O60 C57 1.252 . S
O61 In52 2.326 1_545 S
O61 C57 1.260 . S
C62 O53 1.240 . S
C62 O54 1.252 1_565 S
O63 In52 2.294 . S
O63 C56 1.240 . S
O64 In52 2.326 . S
O64 C56 1.252 . S
In65 O66 2.294 . S
In65 O67 2.326 1_455 S
In65 O71 2.266 . S
In65 O72 2.326 . S
In65 O73 2.266 1_455 S
In65 O74 2.326 1_455 S
In65 O76 2.294 . S
In65 O77 2.326 . S
O66 In65 2.294 . S
O66 C75 1.240 . S
O67 In65 2.326 1_655 S
O67 C75 1.252 1_655 S
C68 O71 1.252 . S
C68 O72 1.260 . S
C69 O76 1.240 . S
C69 O77 1.252 . S
C70 O73 1.252 . S
C70 O74 1.260 . S
O71 In65 2.266 . S
O71 C68 1.252 . S
O72 In65 2.326 . S
O72 C68 1.260 . S
O73 In65 2.266 1_655 S
O73 C70 1.252 . S
O74 In65 2.326 1_655 S
O74 C70 1.260 . S
C75 O66 1.240 . S
C75 O67 1.252 1_455 S
O76 In65 2.294 . S
O76 C69 1.240 . S
O77 In65 2.326 . S
O77 C69 1.252 . S
In78 O79 2.294 . S
In78 O80 2.326 . S
In78 O84 2.266 . S
In78 O85 2.326 . S
In78 O86 2.266 . S
In78 O87 2.326 . S
In78 O89 2.294 . S
In78 O90 2.326 . S
O79 In78 2.294 . S
O79 C88 1.240 . S
O80 In78 2.326 . S
O80 C88 1.252 . S
C81 O84 1.252 . S
C81 O85 1.260 . S
C82 O89 1.240 . S
C82 O90 1.252 . S
C83 O86 1.252 . S
C83 O87 1.260 . S
O84 In78 2.266 . S
O84 C81 1.252 . S
O85 In78 2.326 . S
O85 C81 1.260 . S
O86 In78 2.266 . S
O86 C83 1.252 . S
O87 In78 2.326 . S
O87 C83 1.260 . S
C88 O79 1.240 . S
C88 O80 1.252 . S
O89 In78 2.294 . S
O89 C82 1.240 . S
O90 In78 2.326 . S
O90 C82 1.252 . S
In91 O92 2.294 . S
In91 O93 2.326 1_565 S
In91 O97 2.266 . S
In91 O98 2.326 . S
In91 O99 2.266 1_565 S
In91 O100 2.326 1_565 S
In91 O102 2.294 . S
In91 O103 2.326 . S
O92 In91 2.294 . S
O92 C101 1.240 . S
O93 In91 2.326 1_545 S
O93 C101 1.252 1_545 S
C94 O97 1.252 . S
C94 O98 1.260 . S
C95 O102 1.240 . S
C95 O103 1.252 . S
C96 O99 1.252 . S
C96 O100 1.260 . S
O97 In91 2.266 . S
O97 C94 1.252 . S
O98 In91 2.326 . S
O98 C94 1.260 . S
O99 In91 2.266 1_545 S
O99 C96 1.252 . S
O100 In91 2.326 1_545 S
O100 C96 1.260 . S
C101 O92 1.240 . S
C101 O93 1.252 1_565 S
O102 In91 2.294 . S
O102 C95 1.240 . S
O103 In91 2.326 . S
O103 C95 1.252 . S
In104 O105 2.294 . S
In104 O106 2.326 1_455 S
In104 O110 2.266 . S
In104 O111 2.326 . S
In104 O112 2.266 1_455 S
In104 O113 2.326 1_455 S
In104 O115 2.294 . S
In104 O116 2.326 . S
O105 In104 2.294 . S
O105 C114 1.240 . S
O106 In104 2.326 1_655 S
O106 C114 1.252 1_655 S
C107 O110 1.252 . S
C107 O111 1.260 . S
C108 O115 1.240 . S
C108 O116 1.252 . S
C109 O112 1.252 . S
C109 O113 1.260 . S
O110 In104 2.266 . S
O110 C107 1.252 . S
O111 In104 2.326 . S
O111 C107 1.260 . S
O112 In104 2.266 1_655 S
O112 C109 1.252 . S
O113 In104 2.326 1_655 S
O113 C109 1.260 . S
C114 O105 1.240 . S
C114 O106 1.252 1_455 S
O115 In104 2.294 . S
O115 C108 1.240 . S
O116 In104 2.326 . S
O116 C108 1.252 . S
In117 O118 2.294 . S
In117 O119 2.326 . S
In117 O123 2.266 . S
In117 O124 2.326 . S
In117 O125 2.266 . S
In117 O126 2.326 . S
In117 O128 2.294 . S
In117 O129 2.326 . S
O118 In117 2.294 . S
O118 C127 1.240 . S
O119 In117 2.326 . S
O119 C127 1.252 . S
C120 O123 1.252 . S
C120 O124 1.260 . S
C121 O128 1.240 . S
C121 O129 1.252 . S
C122 O125 1.252 . S
C122 O126 1.260 . S
O123 In117 2.266 . S
O123 C120 1.252 . S
O124 In117 2.326 . S
O124 C120 1.260 . S
O125 In117 2.266 . S
O125 C122 1.252 . S
O126 In117 2.326 . S
O126 C122 1.260 . S
C127 O118 1.240 . S
C127 O119 1.252 . S
O128 In117 2.294 . S
O128 C121 1.240 . S
O129 In117 2.326 . S
O129 C121 1.252 . S
In130 O131 2.294 . S
In130 O132 2.326 1_545 S
In130 O136 2.266 . S
In130 O137 2.326 . S
In130 O138 2.266 1_545 S
In130 O139 2.326 1_545 S
In130 O141 2.294 . S
In130 O142 2.326 . S
O131 In130 2.294 . S
O131 C140 1.240 . S
O132 In130 2.326 1_565 S
O132 C140 1.252 1_565 S
C133 O136 1.252 . S
C133 O137 1.260 . S
C134 O141 1.240 . S
C134 O142 1.252 . S
C135 O138 1.252 . S
C135 O139 1.260 . S
O136 In130 2.266 . S
O136 C133 1.252 . S
O137 In130 2.326 . S
O137 C133 1.260 . S
O138 In130 2.266 1_565 S
O138 C135 1.252 . S
O139 In130 2.326 1_565 S
O139 C135 1.260 . S
C140 O131 1.240 . S
C140 O132 1.252 1_545 S
O141 In130 2.294 . S
O141 C134 1.240 . S
O142 In130 2.326 . S
O142 C134 1.252 . S
In143 O144 2.294 . S
In143 O145 2.326 1_655 S
In143 O149 2.266 . S
In143 O150 2.326 . S
In143 O151 2.266 1_655 S
In143 O152 2.326 1_655 S
In143 O154 2.294 . S
In143 O155 2.326 . S
O144 In143 2.294 . S
O144 C153 1.240 . S
O145 In143 2.326 1_455 S
O145 C153 1.252 1_455 S
C146 O149 1.252 . S
C146 O150 1.260 . S
C147 O154 1.240 . S
C147 O155 1.252 . S
C148 O151 1.252 . S
C148 O152 1.260 . S
O149 In143 2.266 . S
O149 C146 1.252 . S
O150 In143 2.326 . S
O150 C146 1.260 . S
O151 In143 2.266 1_455 S
O151 C148 1.252 . S
O152 In143 2.326 1_455 S
O152 C148 1.260 . S
C153 O144 1.240 . S
C153 O145 1.252 1_655 S
O154 In143 2.294 . S
O154 C147 1.240 . S
O155 In143 2.326 . S
O155 C147 1.252 . S
In156 O157 2.294 . S
In156 O158 2.326 . S
In156 O162 2.266 . S
In156 O163 2.326 . S
In156 O164 2.266 . S
In156 O165 2.326 . S
In156 O167 2.294 . S
In156 O168 2.326 . S
O157 In156 2.294 . S
O157 C166 1.240 . S
O158 In156 2.326 . S
O158 C166 1.252 . S
C159 O162 1.252 . S
C159 O163 1.260 . S
C160 O167 1.240 . S
C160 O168 1.252 . S
C161 O164 1.252 . S
C161 O165 1.260 . S
O162 In156 2.266 . S
O162 C159 1.252 . S
O163 In156 2.326 . S
O163 C159 1.260 . S
O164 In156 2.266 . S
O164 C161 1.252 . S
O165 In156 2.326 . S
O165 C161 1.260 . S
C166 O157 1.240 . S
C166 O158 1.252 . S
O167 In156 2.294 . S
O167 C160 1.240 . S
O168 In156 2.326 . S
O168 C160 1.252 . S
In169 O170 2.294 . S
In169 O171 2.326 . S
In169 O175 2.266 . S
In169 O176 2.326 . S
In169 O177 2.266 . S
In169 O178 2.326 . S
In169 O180 2.294 . S
In169 O181 2.326 . S
O170 In169 2.294 . S
O170 C179 1.240 . S
O171 In169 2.326 . S
O171 C179 1.252 . S
C172 O175 1.252 . S
C172 O176 1.260 . S
C173 O180 1.240 . S
C173 O181 1.252 . S
C174 O177 1.252 . S
C174 O178 1.260 . S
O175 In169 2.266 . S
O175 C172 1.252 . S
O176 In169 2.326 . S
O176 C172 1.260 . S
O177 In169 2.266 . S
O177 C174 1.252 . S
O178 In169 2.326 . S
O178 C174 1.260 . S
C179 O170 1.240 . S
C179 O171 1.252 . S
O180 In169 2.294 . S
O180 C173 1.240 . S
O181 In169 2.326 . S
O181 C173 1.252 . S
In182 O183 2.294 . S
In182 O184 2.326 . S
In182 O188 2.266 . S
In182 O189 2.326 . S
In182 O190 2.266 . S
In182 O191 2.326 . S
In182 O193 2.294 . S
In182 O194 2.326 . S
O183 In182 2.294 . S
O183 C192 1.240 . S
O184 In182 2.326 . S
O184 C192 1.252 . S
C185 O188 1.252 . S
C185 O189 1.260 . S
C186 O193 1.240 . S
C186 O194 1.252 . S
C187 O190 1.252 . S
C187 O191 1.260 . S
O188 In182 2.266 . S
O188 C185 1.252 . S
O189 In182 2.326 . S
O189 C185 1.260 . S
O190 In182 2.266 . S
O190 C187 1.252 . S
O191 In182 2.326 . S
O191 C187 1.260 . S
C192 O183 1.240 . S
C192 O184 1.252 . S
O193 In182 2.294 . S
O193 C186 1.240 . S
O194 In182 2.326 . S
O194 C186 1.252 . S
In195 O196 2.294 . S
In195 O197 2.326 . S
In195 O201 2.266 . S
In195 O202 2.326 . S
In195 O203 2.266 . S
In195 O204 2.326 . S
In195 O206 2.294 . S
In195 O207 2.326 . S
O196 In195 2.294 . S
O196 C205 1.240 . S
O197 In195 2.326 . S
O197 C205 1.252 . S
C198 O201 1.252 . S
C198 O202 1.260 . S
C199 O206 1.240 . S
C199 O207 1.252 . S
C200 O203 1.252 . S
C200 O204 1.260 . S
O201 In195 2.266 . S
O201 C198 1.252 . S
O202 In195 2.326 . S
O202 C198 1.260 . S
O203 In195 2.266 . S
O203 C200 1.252 . S
O204 In195 2.326 . S
O204 C200 1.260 . S
C205 O196 1.240 . S
C205 O197 1.252 . S
O206 In195 2.294 . S
O206 C199 1.240 . S
O207 In195 2.326 . S
O207 C199 1.252 . S
In208 O209 2.294 . S
In208 O210 2.326 . S
In208 O214 2.266 . S
In208 O215 2.326 . S
In208 O216 2.266 . S
In208 O217 2.326 . S
In208 O219 2.294 . S
In208 O220 2.326 . S
O209 In208 2.294 . S
O209 C218 1.240 . S
O210 In208 2.326 . S
O210 C218 1.252 . S
C211 O214 1.252 . S
C211 O215 1.260 . S
C212 O219 1.240 . S
C212 O220 1.252 . S
C213 O216 1.252 . S
C213 O217 1.260 . S
O214 In208 2.266 . S
O214 C211 1.252 . S
O215 In208 2.326 . S
O215 C211 1.260 . S
O216 In208 2.266 . S
O216 C213 1.252 . S
O217 In208 2.326 . S
O217 C213 1.260 . S
C218 O209 1.240 . S
C218 O210 1.252 . S
O219 In208 2.294 . S
O219 C212 1.240 . S
O220 In208 2.326 . S
O220 C212 1.252 . S
In221 O222 2.294 . S
In221 O223 2.326 . S
In221 O227 2.266 . S
In221 O228 2.326 . S
In221 O229 2.266 . S
In221 O230 2.326 . S
In221 O232 2.294 . S
In221 O233 2.326 . S
O222 In221 2.294 . S
O222 C231 1.240 . S
O223 In221 2.326 . S
O223 C231 1.252 . S
C224 O227 1.252 . S
C224 O228 1.260 . S
C225 O232 1.240 . S
C225 O233 1.252 . S
C226 O229 1.252 . S
C226 O230 1.260 . S
O227 In221 2.266 . S
O227 C224 1.252 . S
O228 In221 2.326 . S
O228 C224 1.260 . S
O229 In221 2.266 . S
O229 C226 1.252 . S
O230 In221 2.326 . S
O230 C226 1.260 . S
C231 O222 1.240 . S
C231 O223 1.252 . S
O232 In221 2.294 . S
O232 C225 1.240 . S
O233 In221 2.326 . S
O233 C225 1.252 . S
In234 O235 2.294 . S
In234 O236 2.326 . S
In234 O240 2.266 . S
In234 O241 2.326 . S
In234 O242 2.266 . S
In234 O243 2.326 . S
In234 O245 2.294 . S
In234 O246 2.326 . S
O235 In234 2.294 . S
O235 C244 1.240 . S
O236 In234 2.326 . S
O236 C244 1.252 . S
C237 O240 1.252 . S
C237 O241 1.260 . S
C238 O245 1.240 . S
C238 O246 1.252 . S
C239 O242 1.252 . S
C239 O243 1.260 . S
O240 In234 2.266 . S
O240 C237 1.252 . S
O241 In234 2.326 . S
O241 C237 1.260 . S
O242 In234 2.266 . S
O242 C239 1.252 . S
O243 In234 2.326 . S
O243 C239 1.260 . S
C244 O235 1.240 . S
C244 O236 1.252 . S
O245 In234 2.294 . S
O245 C238 1.240 . S
O246 In234 2.326 . S
O246 C238 1.252 . S
In247 O248 2.294 . S
In247 O249 2.326 . S
In247 O253 2.266 . S
In247 O254 2.326 . S
In247 O255 2.266 . S
In247 O256 2.326 . S
In247 O258 2.294 . S
In247 O259 2.326 . S
O248 In247 2.294 . S
O248 C257 1.240 . S
O249 In247 2.326 . S
O249 C257 1.252 . S
C250 O253 1.252 . S
C250 O254 1.260 . S
C251 O258 1.240 . S
C251 O259 1.252 . S
C252 O255 1.252 . S
C252 O256 1.260 . S
O253 In247 2.266 . S
O253 C250 1.252 . S
O254 In247 2.326 . S
O254 C250 1.260 . S
O255 In247 2.266 . S
O255 C252 1.252 . S
O256 In247 2.326 . S
O256 C252 1.260 . S
C257 O248 1.240 . S
C257 O249 1.252 . S
O258 In247 2.294 . S
O258 C251 1.240 . S
O259 In247 2.326 . S
O259 C251 1.252 . S
In260 O261 2.294 . S
In260 O262 2.326 . S
In260 O266 2.266 . S
In260 O267 2.326 . S
In260 O268 2.266 . S
In260 O269 2.326 . S
In260 O271 2.294 . S
In260 O272 2.326 . S
O261 In260 2.294 . S
O261 C270 1.240 . S
O262 In260 2.326 . S
O262 C270 1.252 . S
C263 O266 1.252 . S
C263 O267 1.260 . S
C264 O271 1.240 . S
C264 O272 1.252 . S
C265 O268 1.252 . S
C265 O269 1.260 . S
O266 In260 2.266 . S
O266 C263 1.252 . S
O267 In260 2.326 . S
O267 C263 1.260 . S
O268 In260 2.266 . S
O268 C265 1.252 . S
O269 In260 2.326 . S
O269 C265 1.260 . S
C270 O261 1.240 . S
C270 O262 1.252 . S
O271 In260 2.294 . S
O271 C264 1.240 . S
O272 In260 2.326 . S
O272 C264 1.252 . S
In273 O274 2.293 1_554 S
In273 O275 2.327 . S
In273 O279 2.265 1_554 S
In273 O280 2.326 . S
In273 O281 2.267 . S
In273 O282 2.324 1_554 S
In273 O284 2.296 . S
In273 O285 2.328 . S
O274 In273 2.293 1_556 S
O274 C283 1.240 . S
O275 In273 2.327 . S
O275 C283 1.252 1_554 S
C276 O279 1.252 . S
C276 O280 1.260 1_556 S
C277 O284 1.240 . S
C277 O285 1.252 . S
C278 O281 1.252 1_556 S
C278 O282 1.260 . S
O279 In273 2.265 1_556 S
O279 C276 1.252 . S
O280 In273 2.326 . S
O280 C276 1.260 1_554 S
O281 In273 2.267 . S
O281 C278 1.252 1_554 S
O282 In273 2.324 1_556 S
O282 C278 1.260 . S
C283 O274 1.240 . S
C283 O275 1.252 1_556 S
O284 In273 2.296 . S
O284 C277 1.240 . S
O285 In273 2.328 . S
O285 C277 1.252 . S
In286 O287 2.293 1_554 S
In286 O288 2.327 . S
In286 O292 2.265 1_554 S
In286 O293 2.326 . S
In286 O294 2.267 . S
In286 O295 2.324 1_554 S
In286 O297 2.296 . S
In286 O298 2.328 . S
O287 In286 2.293 1_556 S
O287 C296 1.240 . S
O288 In286 2.327 . S
O288 C296 1.252 1_554 S
C289 O292 1.252 . S
C289 O293 1.260 1_556 S
C290 O297 1.240 . S
C290 O298 1.252 . S
C291 O294 1.252 1_556 S
C291 O295 1.260 . S
O292 In286 2.265 1_556 S
O292 C289 1.252 . S
O293 In286 2.326 . S
O293 C289 1.260 1_554 S
O294 In286 2.267 . S
O294 C291 1.252 1_554 S
O295 In286 2.324 1_556 S
O295 C291 1.260 . S
C296 O287 1.240 . S
C296 O288 1.252 1_556 S
O297 In286 2.296 . S
O297 C290 1.240 . S
O298 In286 2.328 . S
O298 C290 1.252 . S
In299 O300 2.296 . S
In299 O301 2.328 . S
In299 O305 2.267 . S
In299 O306 2.324 1_554 S
In299 O307 2.265 1_554 S
In299 O308 2.326 . S
In299 O310 2.293 1_554 S
In299 O311 2.327 . S
O300 In299 2.296 . S
O300 C309 1.240 . S
O301 In299 2.328 . S
O301 C309 1.252 . S
C302 O305 1.252 1_556 S
C302 O306 1.260 . S
C303 O310 1.240 . S
C303 O311 1.252 1_556 S
C304 O307 1.252 . S
C304 O308 1.260 1_556 S
O305 In299 2.267 . S
O305 C302 1.252 1_554 S
O306 In299 2.324 1_556 S
O306 C302 1.260 . S
O307 In299 2.265 1_556 S
O307 C304 1.252 . S
O308 In299 2.326 . S
O308 C304 1.260 1_554 S
C309 O300 1.240 . S
C309 O301 1.252 . S
O310 In299 2.293 1_556 S
O310 C303 1.240 . S
O311 In299 2.327 . S
O311 C303 1.252 1_554 S
In312 O313 2.294 . S
In312 O314 2.326 . S
In312 O318 2.266 . S
In312 O319 2.326 . S
In312 O320 2.266 . S
In312 O321 2.326 . S
In312 O323 2.294 . S
In312 O324 2.326 . S
O313 In312 2.294 . S
O313 C322 1.240 . S
O314 In312 2.326 . S
O314 C322 1.252 . S
C315 O318 1.252 . S
C315 O319 1.260 . S
C316 O323 1.240 . S
C316 O324 1.252 . S
C317 O320 1.252 . S
C317 O321 1.260 . S
O318 In312 2.266 . S
O318 C315 1.252 . S
O319 In312 2.326 . S
O319 C315 1.260 . S
O320 In312 2.266 . S
O320 C317 1.252 . S
O321 In312 2.326 . S
O321 C317 1.260 . S
C322 O313 1.240 . S
C322 O314 1.252 . S
O323 In312 2.294 . S
O323 C316 1.240 . S
O324 In312 2.326 . S
O324 C316 1.252 . S
In325 O326 2.294 . S
In325 O327 2.326 . S
In325 O331 2.266 . S
In325 O332 2.326 . S
In325 O333 2.266 . S
In325 O334 2.326 . S
In325 O336 2.294 . S
In325 O337 2.326 . S
O326 In325 2.294 . S
O326 C335 1.240 . S
O327 In325 2.326 . S
O327 C335 1.252 . S
C328 O331 1.252 . S
C328 O332 1.260 . S
C329 O336 1.240 . S
C329 O337 1.252 . S
C330 O333 1.252 . S
C330 O334 1.260 . S
O331 In325 2.266 . S
O331 C328 1.252 . S
O332 In325 2.326 . S
O332 C328 1.260 . S
O333 In325 2.266 . S
O333 C330 1.252 . S
O334 In325 2.326 . S
O334 C330 1.260 . S
C335 O326 1.240 . S
C335 O327 1.252 . S
O336 In325 2.294 . S
O336 C329 1.240 . S
O337 In325 2.326 . S
O337 C329 1.252 . S
In338 O339 2.294 . S
In338 O340 2.326 . S
In338 O344 2.266 . S
In338 O345 2.326 . S
In338 O346 2.266 . S
In338 O347 2.326 . S
In338 O349 2.294 . S
In338 O350 2.326 . S
O339 In338 2.294 . S
O339 C348 1.240 . S
O340 In338 2.326 . S
O340 C348 1.252 . S
C341 O344 1.252 . S
C341 O345 1.260 . S
C342 O349 1.240 . S
C342 O350 1.252 . S
C343 O346 1.252 . S
C343 O347 1.260 . S
O344 In338 2.266 . S
O344 C341 1.252 . S
O345 In338 2.326 . S
O345 C341 1.260 . S
O346 In338 2.266 . S
O346 C343 1.252 . S
O347 In338 2.326 . S
O347 C343 1.260 . S
C348 O339 1.240 . S
C348 O340 1.252 . S
O349 In338 2.294 . S
O349 C342 1.240 . S
O350 In338 2.326 . S
O350 C342 1.252 . S
In351 O352 2.293 1_556 S
In351 O353 2.327 . S
In351 O357 2.265 1_556 S
In351 O358 2.326 . S
In351 O359 2.267 . S
In351 O360 2.324 1_556 S
In351 O362 2.296 . S
In351 O363 2.328 . S
O352 In351 2.293 1_554 S
O352 C361 1.240 . S
O353 In351 2.327 . S
O353 C361 1.252 1_556 S
C354 O357 1.252 . S
C354 O358 1.260 1_554 S
C355 O362 1.240 . S
C355 O363 1.252 . S
C356 O359 1.252 1_554 S
C356 O360 1.260 . S
O357 In351 2.265 1_554 S
O357 C354 1.252 . S
O358 In351 2.326 . S
O358 C354 1.260 1_556 S
O359 In351 2.267 . S
O359 C356 1.252 1_556 S
O360 In351 2.324 1_554 S
O360 C356 1.260 . S
C361 O352 1.240 . S
C361 O353 1.252 1_554 S
O362 In351 2.296 . S
O362 C355 1.240 . S
O363 In351 2.328 . S
O363 C355 1.252 . S
In364 O365 2.293 1_556 S
In364 O366 2.327 . S
In364 O370 2.265 1_556 S
In364 O371 2.326 . S
In364 O372 2.267 . S
In364 O373 2.324 1_556 S
In364 O375 2.296 . S
In364 O376 2.328 . S
O365 In364 2.293 1_554 S
O365 C374 1.240 . S
O366 In364 2.327 . S
O366 C374 1.252 1_556 S
C367 O370 1.252 . S
C367 O371 1.260 1_554 S
C368 O375 1.240 . S
C368 O376 1.252 . S
C369 O372 1.252 1_554 S
C369 O373 1.260 . S
O370 In364 2.265 1_554 S
O370 C367 1.252 . S
O371 In364 2.326 . S
O371 C367 1.260 1_556 S
O372 In364 2.267 . S
O372 C369 1.252 1_556 S
O373 In364 2.324 1_554 S
O373 C369 1.260 . S
C374 O365 1.240 . S
C374 O366 1.252 1_554 S
O375 In364 2.296 . S
O375 C368 1.240 . S
O376 In364 2.328 . S
O376 C368 1.252 . S
In377 O378 2.293 1_556 S
In377 O379 2.327 . S
In377 O383 2.265 1_556 S
In377 O384 2.326 . S
In377 O385 2.267 . S
In377 O386 2.324 1_556 S
In377 O388 2.296 . S
In377 O389 2.328 . S
O378 In377 2.293 1_554 S
O378 C387 1.240 . S
O379 In377 2.327 . S
O379 C387 1.252 1_556 S
C380 O383 1.252 . S
C380 O384 1.260 1_554 S
C381 O388 1.240 . S
C381 O389 1.252 . S
C382 O385 1.252 1_554 S
C382 O386 1.260 . S
O383 In377 2.265 1_554 S
O383 C380 1.252 . S
O384 In377 2.326 . S
O384 C380 1.260 1_556 S
O385 In377 2.267 . S
O385 C382 1.252 1_556 S
O386 In377 2.324 1_554 S
O386 C382 1.260 . S
C387 O378 1.240 . S
C387 O379 1.252 1_554 S
O388 In377 2.296 . S
O388 C381 1.240 . S
O389 In377 2.328 . S
O389 C381 1.252 . S
In390 O391 2.294 . S
In390 O392 2.326 . S
In390 O396 2.266 . S
In390 O397 2.326 . S
In390 O398 2.266 . S
In390 O399 2.326 . S
In390 O401 2.294 . S
In390 O402 2.326 . S
O391 In390 2.294 . S
O391 C400 1.240 . S
O392 In390 2.326 . S
O392 C400 1.252 . S
C393 O396 1.252 . S
C393 O397 1.260 . S
C394 O401 1.240 . S
C394 O402 1.252 . S
C395 O398 1.252 . S
C395 O399 1.260 . S
O396 In390 2.266 . S
O396 C393 1.252 . S
O397 In390 2.326 . S
O397 C393 1.260 . S
O398 In390 2.266 . S
O398 C395 1.252 . S
O399 In390 2.326 . S
O399 C395 1.260 . S
C400 O391 1.240 . S
C400 O392 1.252 . S
O401 In390 2.294 . S
O401 C394 1.240 . S
O402 In390 2.326 . S
O402 C394 1.252 . S
In403 O404 2.294 . S
In403 O405 2.326 . S
In403 O409 2.266 . S
In403 O410 2.326 . S
In403 O411 2.266 . S
In403 O412 2.326 . S
In403 O414 2.294 . S
In403 O415 2.326 . S
O404 In403 2.294 . S
O404 C413 1.240 . S
O405 In403 2.326 . S
O405 C413 1.252 . S
C406 O409 1.252 . S
C406 O410 1.260 . S
C407 O414 1.240 . S
C407 O415 1.252 . S
C408 O411 1.252 . S
C408 O412 1.260 . S
O409 In403 2.266 . S
O409 C406 1.252 . S
O410 In403 2.326 . S
O410 C406 1.260 . S
O411 In403 2.266 . S
O411 C408 1.252 . S
O412 In403 2.326 . S
O412 C408 1.260 . S
C413 O404 1.240 . S
C413 O405 1.252 . S
O414 In403 2.294 . S
O414 C407 1.240 . S
O415 In403 2.326 . S
O415 C407 1.252 . S
In416 O417 2.294 . S
In416 O418 2.326 . S
In416 O422 2.266 . S
In416 O423 2.326 . S
In416 O424 2.266 . S
In416 O425 2.326 . S
In416 O427 2.294 . S
In416 O428 2.326 . S
O417 In416 2.294 . S
O417 C426 1.240 . S
O418 In416 2.326 . S
O418 C426 1.252 . S
C419 O422 1.252 . S
C419 O423 1.260 . S
C420 O427 1.240 . S
C420 O428 1.252 . S
C421 O424 1.252 . S
C421 O425 1.260 . S
O422 In416 2.266 . S
O422 C419 1.252 . S
O423 In416 2.326 . S
O423 C419 1.260 . S
O424 In416 2.266 . S
O424 C421 1.252 . S
O425 In416 2.326 . S
O425 C421 1.260 . S
C426 O417 1.240 . S
C426 O418 1.252 . S
O427 In416 2.294 . S
O427 C420 1.240 . S
O428 In416 2.326 . S
O428 C420 1.252 . S
In429 O430 2.294 . S
In429 O431 2.326 . S
In429 O435 2.266 . S
In429 O436 2.326 . S
In429 O437 2.266 . S
In429 O438 2.326 . S
In429 O440 2.294 . S
In429 O441 2.326 . S
O430 In429 2.294 . S
O430 C439 1.240 . S
O431 In429 2.326 . S
O431 C439 1.252 . S
C432 O435 1.252 . S
C432 O436 1.260 . S
C433 O440 1.240 . S
C433 O441 1.252 . S
C434 O437 1.252 . S
C434 O438 1.260 . S
O435 In429 2.266 . S
O435 C432 1.252 . S
O436 In429 2.326 . S
O436 C432 1.260 . S
O437 In429 2.266 . S
O437 C434 1.252 . S
O438 In429 2.326 . S
O438 C434 1.260 . S
C439 O430 1.240 . S
C439 O431 1.252 . S
O440 In429 2.294 . S
O440 C433 1.240 . S
O441 In429 2.326 . S
O441 C433 1.252 . S
In442 O443 2.294 . S
In442 O444 2.326 . S
In442 O448 2.266 . S
In442 O449 2.326 . S
In442 O450 2.266 . S
In442 O451 2.326 . S
In442 O453 2.294 . S
In442 O454 2.326 . S
O443 In442 2.294 . S
O443 C452 1.240 . S
O444 In442 2.326 . S
O444 C452 1.252 . S
C445 O448 1.252 . S
C445 O449 1.260 . S
C446 O453 1.240 . S
C446 O454 1.252 . S
C447 O450 1.252 . S
C447 O451 1.260 . S
O448 In442 2.266 . S
O448 C445 1.252 . S
O449 In442 2.326 . S
O449 C445 1.260 . S
O450 In442 2.266 . S
O450 C447 1.252 . S
O451 In442 2.326 . S
O451 C447 1.260 . S
C452 O443 1.240 . S
C452 O444 1.252 . S
O453 In442 2.294 . S
O453 C446 1.240 . S
O454 In442 2.326 . S
O454 C446 1.252 . S
In455 O456 2.294 . S
In455 O457 2.326 . S
In455 O461 2.266 . S
In455 O462 2.326 . S
In455 O463 2.266 . S
In455 O464 2.326 . S
In455 O466 2.294 . S
In455 O467 2.326 . S
O456 In455 2.294 . S
O456 C465 1.240 . S
O457 In455 2.326 . S
O457 C465 1.252 . S
C458 O461 1.252 . S
C458 O462 1.260 . S
C459 O466 1.240 . S
C459 O467 1.252 . S
C460 O463 1.252 . S
C460 O464 1.260 . S
O461 In455 2.266 . S
O461 C458 1.252 . S
O462 In455 2.326 . S
O462 C458 1.260 . S
O463 In455 2.266 . S
O463 C460 1.252 . S
O464 In455 2.326 . S
O464 C460 1.260 . S
C465 O456 1.240 . S
C465 O457 1.252 . S
O466 In455 2.294 . S
O466 C459 1.240 . S
O467 In455 2.326 . S
O467 C459 1.252 . S
C468 C469 1.369 . S
C468 C470 1.417 . S
C468 H472 0.930 . S
C469 C468 1.369 . S
C469 C478 1.429 . S
C470 C468 1.417 . S
C470 C471 1.363 1_455 S
C470 H473 0.931 1_455 S
C471 C470 1.363 1_655 S
C471 C477 1.428 1_655 S
H472 C468 0.930 . S
H473 C470 0.931 1_655 S
S474 N475 1.613 . S
S474 N476 1.610 1_455 S
N475 S474 1.613 . S
N475 C478 1.350 . S
N476 S474 1.610 1_655 S
N476 C477 1.351 1_655 S
C477 C471 1.428 1_455 S
C477 N476 1.351 1_455 S
C477 C478 1.434 . S
C478 C469 1.429 . S
C478 N475 1.350 . S
C478 C477 1.434 . S
C479 C480 1.369 . S
C479 C481 1.419 . S
C479 H483 0.930 . S
C480 C479 1.369 . S
C480 C489 1.429 . S
C481 C479 1.419 . S
C481 C482 1.363 . S
C481 H484 0.929 . S
C482 C481 1.363 . S
C482 C488 1.428 . S
H483 C479 0.930 . S
H484 C481 0.929 . S
S485 N486 1.613 . S
S485 N487 1.610 . S
N486 S485 1.613 . S
N486 C489 1.350 . S
N487 S485 1.610 . S
N487 C488 1.351 . S
C488 C482 1.428 . S
C488 N487 1.351 . S
C488 C489 1.434 . S
C489 C480 1.429 . S
C489 N486 1.350 . S
C489 C488 1.434 . S
C490 C491 1.369 1_565 S
C490 C492 1.419 . S
C490 H494 0.930 1_565 S
C491 C490 1.369 1_545 S
C491 C500 1.430 . S
C492 C490 1.419 . S
C492 C493 1.363 . S
C492 H495 0.929 . S
C493 C492 1.363 . S
C493 C499 1.428 . S
H494 C490 0.930 1_545 S
H495 C492 0.929 . S
S496 N497 1.613 1_565 S
S496 N498 1.610 . S
N497 S496 1.613 1_545 S
N497 C500 1.350 . S
N498 S496 1.610 . S
N498 C499 1.351 . S
C499 C493 1.428 . S
C499 N498 1.351 . S
C499 C500 1.432 1_565 S
C500 C491 1.430 . S
C500 N497 1.350 . S
C500 C499 1.432 1_545 S
C501 C502 1.369 . S
C501 C503 1.419 . S
C501 H505 0.930 . S
C502 C501 1.369 . S
C502 C511 1.429 . S
C503 C501 1.419 . S
C503 C504 1.363 1_545 S
C503 H506 0.929 1_545 S
C504 C503 1.363 1_565 S
C504 C510 1.428 . S
H505 C501 0.930 . S
H506 C503 0.929 1_565 S
S507 N508 1.613 . S
S507 N509 1.610 1_545 S
N508 S507 1.613 . S
N508 C511 1.350 . S
N509 S507 1.610 1_565 S
N509 C510 1.351 . S
C510 C504 1.428 . S
C510 N509 1.351 . S
C510 C511 1.434 1_565 S
C511 C502 1.429 . S
C511 N508 1.350 . S
C511 C510 1.434 1_545 S
C512 C513 1.369 . S
C512 C514 1.419 . S
C512 H516 0.930 . S
C513 C512 1.369 . S
C513 C522 1.429 . S
C514 C512 1.419 . S
C514 C515 1.363 1_655 S
C514 H517 0.929 1_655 S
C515 C514 1.363 1_455 S
C515 C521 1.428 . S
H516 C512 0.930 . S
H517 C514 0.929 1_455 S
S518 N519 1.613 . S
S518 N520 1.610 1_655 S
N519 S518 1.613 . S
N519 C522 1.350 . S
N520 S518 1.610 1_455 S
N520 C521 1.351 . S
C521 C515 1.428 . S
C521 N520 1.351 . S
C521 C522 1.434 1_455 S
C522 C513 1.429 . S
C522 N519 1.350 . S
C522 C521 1.434 1_655 S
C523 C524 1.369 . S
C523 C525 1.419 . S
C523 H527 0.930 . S
C524 C523 1.369 . S
C524 C533 1.429 . S
C525 C523 1.419 . S
C525 C526 1.363 . S
C525 H528 0.929 . S
C526 C525 1.363 . S
C526 C532 1.428 . S
H527 C523 0.930 . S
H528 C525 0.929 . S
S529 N530 1.613 . S
S529 N531 1.610 . S
N530 S529 1.613 . S
N530 C533 1.350 . S
N531 S529 1.610 . S
N531 C532 1.351 . S
C532 C526 1.428 . S
C532 N531 1.351 . S
C532 C533 1.434 . S
C533 C524 1.429 . S
C533 N530 1.350 . S
C533 C532 1.434 . S
C534 C535 1.369 . S
C534 C536 1.429 . S
C534 H538 0.930 . S
C535 C534 1.369 . S
C535 C544 1.429 . S
C536 C534 1.429 . S
C536 C537 1.359 1_655 S
C536 H539 0.922 1_655 S
C537 C536 1.359 1_455 S
C537 C543 1.428 1_455 S
H538 C534 0.930 . S
H539 C536 0.922 1_455 S
S540 N541 1.613 . S
S540 N542 1.610 1_655 S
N541 S540 1.613 . S
N541 C544 1.350 . S
N542 S540 1.610 1_455 S
N542 C543 1.351 1_455 S
C543 C537 1.428 1_655 S
C543 N542 1.351 1_655 S
C543 C544 1.434 . S
C544 C535 1.429 . S
C544 N541 1.350 . S
C544 C543 1.434 . S
C545 C546 1.369 . S
C545 C547 1.419 . S
C545 H549 0.930 . S
C546 C545 1.369 . S
C546 C555 1.429 . S
C547 C545 1.419 . S
C547 C548 1.363 . S
C547 H550 0.929 . S
C548 C547 1.363 . S
C548 C554 1.428 . S
H549 C545 0.930 . S
H550 C547 0.929 . S
S551 N552 1.613 . S
S551 N553 1.610 . S
N552 S551 1.613 . S
N552 C555 1.350 . S
N553 S551 1.610 . S
N553 C554 1.351 . S
C554 C548 1.428 . S
C554 N553 1.351 . S
C554 C555 1.434 . S
C555 C546 1.429 . S
C555 N552 1.350 . S
C555 C554 1.434 . S
C556 C557 1.369 1_545 S
C556 C558 1.419 . S
C556 H560 0.930 1_545 S
C557 C556 1.369 1_565 S
C557 C566 1.429 1_565 S
C558 C556 1.419 . S
C558 C559 1.363 . S
C558 H561 0.929 . S
C559 C558 1.363 . S
C559 C565 1.428 . S
H560 C556 0.930 1_565 S
H561 C558 0.929 . S
S562 N563 1.613 1_445 S
S562 N564 1.610 1_455 S
N563 S562 1.613 1_665 S
N563 C566 1.350 1_565 S
N564 S562 1.610 1_655 S
N564 C565 1.351 . S
C565 C559 1.428 . S
C565 N564 1.351 . S
C565 C566 1.434 . S
C566 C557 1.429 1_545 S
C566 N563 1.350 1_545 S
C566 C565 1.434 . S
C567 C568 1.355 1_565 S
C567 C569 1.436 . S
C567 H571 0.926 1_565 S
C568 C567 1.355 1_545 S
C568 C577 1.421 1_545 S
C569 C567 1.436 . S
C569 C570 1.363 . S
C569 H572 0.929 . S
C570 C569 1.363 . S
C570 C576 1.428 . S
H571 C567 0.926 1_545 S
H572 C569 0.929 . S
S573 N574 1.613 1_565 S
S573 N575 1.610 . S
N574 S573 1.613 1_545 S
N574 C577 1.334 1_545 S
N575 S573 1.610 . S
N575 C576 1.351 . S
C576 C570 1.428 . S
C576 N575 1.351 . S
C576 C577 1.460 . S
C577 C568 1.421 1_565 S
C577 N574 1.334 1_565 S
C577 C576 1.460 . S
C578 C579 1.369 . S
C578 C580 1.415 . S
C578 H582 0.930 . S
C579 C578 1.369 . S
C579 C588 1.429 . S
C580 C578 1.415 . S
C580 C581 1.364 1_455 S
C580 H583 0.931 1_455 S
C581 C580 1.364 1_655 S
C581 C587 1.428 1_655 S
H582 C578 0.930 . S
H583 C580 0.931 1_655 S
S584 N585 1.613 . S
S584 N586 1.610 1_455 S
N585 S584 1.613 . S
N585 C588 1.350 . S
N586 S584 1.610 1_655 S
N586 C587 1.351 1_655 S
C587 C581 1.428 1_455 S
C587 N586 1.351 1_455 S
C587 C588 1.434 . S
C588 C579 1.429 . S
C588 N585 1.350 . S
C588 C587 1.434 . S
C589 C590 1.369 . S
C589 C591 1.419 . S
C589 H593 0.930 . S
C590 C589 1.369 . S
C590 C599 1.429 . S
C591 C589 1.419 . S
C591 C592 1.363 . S
C591 H594 0.929 . S
C592 C591 1.363 . S
C592 C598 1.428 . S
H593 C589 0.930 . S
H594 C591 0.929 . S
S595 N596 1.613 . S
S595 N597 1.610 . S
N596 S595 1.613 . S
N596 C599 1.350 . S
N597 S595 1.610 . S
N597 C598 1.351 . S
C598 C592 1.428 . S
C598 N597 1.351 . S
C598 C599 1.434 . S
C599 C590 1.429 . S
C599 N596 1.350 . S
C599 C598 1.434 . S
C600 C601 1.369 . S
C600 C602 1.419 . S
C600 H604 0.930 . S
C601 C600 1.369 . S
C601 C610 1.429 . S
C602 C600 1.419 . S
C602 C603 1.363 . S
C602 H605 0.929 . S
C603 C602 1.363 . S
C603 C609 1.428 . S
H604 C600 0.930 . S
H605 C602 0.929 . S
S606 N607 1.613 . S
S606 N608 1.610 . S
N607 S606 1.613 . S
N607 C610 1.350 . S
N608 S606 1.610 . S
N608 C609 1.351 . S
C609 C603 1.428 . S
C609 N608 1.351 . S
C609 C610 1.434 . S
C610 C601 1.429 . S
C610 N607 1.350 . S
C610 C609 1.434 . S
C611 C612 1.369 . S
C611 C613 1.419 . S
C611 H615 0.930 . S
C612 C611 1.369 . S
C612 C621 1.429 . S
C613 C611 1.419 . S
C613 C614 1.363 . S
C613 H616 0.929 . S
C614 C613 1.363 . S
C614 C620 1.428 . S
H615 C611 0.930 . S
H616 C613 0.929 . S
S617 N618 1.613 . S
S617 N619 1.610 . S
N618 S617 1.613 . S
N618 C621 1.350 . S
N619 S617 1.610 . S
N619 C620 1.351 . S
C620 C614 1.428 . S
C620 N619 1.351 . S
C620 C621 1.434 . S
C621 C612 1.429 . S
C621 N618 1.350 . S
C621 C620 1.434 . S
C622 C623 1.369 . S
C622 C624 1.419 . S
C622 H626 0.930 . S
C623 C622 1.369 . S
C623 C632 1.429 . S
C624 C622 1.419 . S
C624 C625 1.363 . S
C624 H627 0.929 . S
C625 C624 1.363 . S
C625 C631 1.428 . S
H626 C622 0.930 . S
H627 C624 0.929 . S
S628 N629 1.613 . S
S628 N630 1.610 . S
N629 S628 1.613 . S
N629 C632 1.350 . S
N630 S628 1.610 . S
N630 C631 1.351 . S
C631 C625 1.428 . S
C631 N630 1.351 . S
C631 C632 1.434 . S
C632 C623 1.429 . S
C632 N629 1.350 . S
C632 C631 1.434 . S
C633 C634 1.369 . S
C633 C635 1.419 . S
C633 H637 0.930 . S
C634 C633 1.369 . S
C634 C643 1.429 . S
C635 C633 1.419 . S
C635 C636 1.363 . S
C635 H638 0.929 . S
C636 C635 1.363 . S
C636 C642 1.428 . S
H637 C633 0.930 . S
H638 C635 0.929 . S
S639 N640 1.613 . S
S639 N641 1.610 . S
N640 S639 1.613 . S
N640 C643 1.350 . S
N641 S639 1.610 . S
N641 C642 1.351 . S
C642 C636 1.428 . S
C642 N641 1.351 . S
C642 C643 1.434 . S
C643 C634 1.429 . S
C643 N640 1.350 . S
C643 C642 1.434 . S
C644 C645 1.369 . S
C644 C646 1.419 . S
C644 H648 0.930 . S
C645 C644 1.369 . S
C645 C654 1.429 . S
C646 C644 1.419 . S
C646 C647 1.363 . S
C646 H649 0.929 . S
C647 C646 1.363 . S
C647 C653 1.428 . S
H648 C644 0.930 . S
H649 C646 0.929 . S
S650 N651 1.613 . S
S650 N652 1.610 . S
N651 S650 1.613 . S
N651 C654 1.350 . S
N652 S650 1.610 . S
N652 C653 1.351 . S
C653 C647 1.428 . S
C653 N652 1.351 . S
C653 C654 1.434 . S
C654 C645 1.429 . S
C654 N651 1.350 . S
C654 C653 1.434 . S
C655 C656 1.369 . S
C655 C657 1.419 . S
C655 H659 0.930 . S
C656 C655 1.369 . S
C656 C665 1.429 . S
C657 C655 1.419 . S
C657 C658 1.363 . S
C657 H660 0.929 . S
C658 C657 1.363 . S
C658 C664 1.428 . S
H659 C655 0.930 . S
H660 C657 0.929 . S
S661 N662 1.613 . S
S661 N663 1.610 . S
N662 S661 1.613 . S
N662 C665 1.350 . S
N663 S661 1.610 . S
N663 C664 1.351 . S
C664 C658 1.428 . S
C664 N663 1.351 . S
C664 C665 1.434 . S
C665 C656 1.429 . S
C665 N662 1.350 . S
C665 C664 1.434 . S
C666 C667 1.369 . S
C666 C668 1.419 . S
C666 H670 0.930 . S
C667 C666 1.369 . S
C667 C676 1.429 . S
C668 C666 1.419 . S
C668 C669 1.363 . S
C668 H671 0.929 . S
C669 C668 1.363 . S
C669 C675 1.428 . S
H670 C666 0.930 . S
H671 C668 0.929 . S
S672 N673 1.613 . S
S672 N674 1.610 . S
N673 S672 1.613 . S
N673 C676 1.350 . S
N674 S672 1.610 . S
N674 C675 1.351 . S
C675 C669 1.428 . S
C675 N674 1.351 . S
C675 C676 1.434 . S
C676 C667 1.429 . S
C676 N673 1.350 . S
C676 C675 1.434 . S
C677 C678 1.369 . S
C677 C679 1.419 . S
C677 H681 0.930 . S
C678 C677 1.369 . S
C678 C687 1.429 . S
C679 C677 1.419 . S
C679 C680 1.363 . S
C679 H682 0.929 . S
C680 C679 1.363 . S
C680 C686 1.428 . S
H681 C677 0.930 . S
H682 C679 0.929 . S
S683 N684 1.613 . S
S683 N685 1.610 . S
N684 S683 1.613 . S
N684 C687 1.350 . S
N685 S683 1.610 . S
N685 C686 1.351 . S
C686 C680 1.428 . S
C686 N685 1.351 . S
C686 C687 1.434 . S
C687 C678 1.429 . S
C687 N684 1.350 . S
C687 C686 1.434 . S
C688 C689 1.369 . S
C688 C690 1.419 . S
C688 H692 0.930 . S
C689 C688 1.369 . S
C689 C698 1.429 . S
C690 C688 1.419 . S
C690 C691 1.363 . S
C690 H693 0.929 . S
C691 C690 1.363 . S
C691 C697 1.428 . S
H692 C688 0.930 . S
H693 C690 0.929 . S
S694 N695 1.613 . S
S694 N696 1.610 . S
N695 S694 1.613 . S
N695 C698 1.350 . S
N696 S694 1.610 . S
N696 C697 1.351 . S
C697 C691 1.428 . S
C697 N696 1.351 . S
C697 C698 1.434 . S
C698 C689 1.429 . S
C698 N695 1.350 . S
C698 C697 1.434 . S
C699 C700 1.369 . S
C699 C701 1.419 . S
C699 H703 0.930 . S
C700 C699 1.369 . S
C700 C709 1.429 1_556 S
C701 C699 1.419 . S
C701 C702 1.363 . S
C701 H704 0.929 . S
C702 C701 1.363 . S
C702 C708 1.396 1_556 S
H703 C699 0.930 . S
H704 C701 0.929 . S
S705 N706 1.613 . S
S705 N707 1.610 . S
N706 S705 1.613 . S
N706 C709 1.350 . S
N707 S705 1.610 . S
N707 C708 1.385 . S
C708 C702 1.396 1_554 S
C708 N707 1.385 . S
C708 C709 1.435 . S
C709 C700 1.429 1_554 S
C709 N706 1.350 . S
C709 C708 1.435 . S
C710 C711 1.369 . S
C710 C712 1.419 . S
C710 H714 0.930 1_556 S
C711 C710 1.369 . S
C711 C720 1.429 . S
C712 C710 1.419 . S
C712 C713 1.363 . S
C712 H715 0.929 1_556 S
C713 C712 1.363 . S
C713 C719 1.428 . S
H714 C710 0.930 1_554 S
H715 C712 0.929 1_554 S
S716 N717 1.613 . S
S716 N718 1.610 . S
N717 S716 1.613 . S
N717 C720 1.350 . S
N718 S716 1.610 . S
N718 C719 1.351 . S
C719 C713 1.428 . S
C719 N718 1.351 . S
C719 C720 1.434 . S
C720 C711 1.429 . S
C720 N717 1.350 . S
C720 C719 1.434 . S
C721 C722 1.369 . S
C721 C723 1.419 . S
C721 H725 0.930 1_556 S
C722 C721 1.369 . S
C722 C731 1.429 . S
C723 C721 1.419 . S
C723 C724 1.363 . S
C723 H726 0.929 1_556 S
C724 C723 1.363 . S
C724 C730 1.428 . S
H725 C721 0.930 1_554 S
H726 C723 0.929 1_554 S
S727 N728 1.613 . S
S727 N729 1.610 . S
N728 S727 1.613 . S
N728 C731 1.350 . S
N729 S727 1.610 . S
N729 C730 1.351 . S
C730 C724 1.428 . S
C730 N729 1.351 . S
C730 C731 1.434 . S
C731 C722 1.429 . S
C731 N728 1.350 . S
C731 C730 1.434 . S
C732 C733 1.369 . S
C732 C734 1.419 . S
C732 H736 0.930 . S
C733 C732 1.369 . S
C733 C742 1.429 . S
C734 C732 1.419 . S
C734 C735 1.363 . S
C734 H737 0.929 . S
C735 C734 1.363 . S
C735 C741 1.428 . S
H736 C732 0.930 . S
H737 C734 0.929 . S
S738 N739 1.613 . S
S738 N740 1.610 . S
N739 S738 1.613 . S
N739 C742 1.350 . S
N740 S738 1.610 . S
N740 C741 1.351 . S
C741 C735 1.428 . S
C741 N740 1.351 . S
C741 C742 1.434 . S
C742 C733 1.429 . S
C742 N739 1.350 . S
C742 C741 1.434 . S
C743 C744 1.369 . S
C743 C745 1.419 . S
C743 H747 0.930 . S
C744 C743 1.369 . S
C744 C753 1.429 . S
C745 C743 1.419 . S
C745 C746 1.363 . S
C745 H748 0.929 . S
C746 C745 1.363 . S
C746 C752 1.428 . S
H747 C743 0.930 . S
H748 C745 0.929 . S
S749 N750 1.613 . S
S749 N751 1.610 . S
N750 S749 1.613 . S
N750 C753 1.350 . S
N751 S749 1.610 . S
N751 C752 1.351 . S
C752 C746 1.428 . S
C752 N751 1.351 . S
C752 C753 1.434 . S
C753 C744 1.429 . S
C753 N750 1.350 . S
C753 C752 1.434 . S
C754 C755 1.369 . S
C754 C756 1.419 . S
C754 H758 0.930 . S
C755 C754 1.369 . S
C755 C764 1.429 . S
C756 C754 1.419 . S
C756 C757 1.363 . S
C756 H759 0.929 . S
C757 C756 1.363 . S
C757 C763 1.428 . S
H758 C754 0.930 . S
H759 C756 0.929 . S
S760 N761 1.613 . S
S760 N762 1.610 . S
N761 S760 1.613 . S
N761 C764 1.350 . S
N762 S760 1.610 . S
N762 C763 1.351 . S
C763 C757 1.428 . S
C763 N762 1.351 . S
C763 C764 1.434 . S
C764 C755 1.429 . S
C764 N761 1.350 . S
C764 C763 1.434 . S
C765 C766 1.369 . S
C765 C767 1.419 . S
C765 H769 0.930 . S
C766 C765 1.369 . S
C766 C775 1.429 . S
C767 C765 1.419 . S
C767 C768 1.363 . S
C767 H770 0.929 . S
C768 C767 1.363 . S
C768 C774 1.428 . S
H769 C765 0.930 . S
H770 C767 0.929 . S
S771 N772 1.613 . S
S771 N773 1.610 . S
N772 S771 1.613 . S
N772 C775 1.350 1_556 S
N773 S771 1.610 . S
N773 C774 1.351 1_556 S
C774 C768 1.428 . S
C774 N773 1.351 1_554 S
C774 C775 1.434 . S
C775 C766 1.429 . S
C775 N772 1.350 1_554 S
C775 C774 1.434 . S
C776 C777 1.369 . S
C776 C778 1.419 . S
C776 H780 0.930 . S
C777 C776 1.369 . S
C777 C786 1.429 . S
C778 C776 1.419 . S
C778 C779 1.363 . S
C778 H781 0.929 . S
C779 C778 1.363 . S
C779 C785 1.428 . S
H780 C776 0.930 . S
H781 C778 0.929 . S
S782 N783 1.613 . S
S782 N784 1.610 . S
N783 S782 1.613 . S
N783 C786 1.350 . S
N784 S782 1.610 . S
N784 C785 1.351 . S
C785 C779 1.428 . S
C785 N784 1.351 . S
C785 C786 1.434 . S
C786 C777 1.429 . S
C786 N783 1.350 . S
C786 C785 1.434 . S
C787 C788 1.369 . S
C787 C789 1.419 . S
C787 H791 0.930 1_554 S
C788 C787 1.369 . S
C788 C797 1.429 . S
C789 C787 1.419 . S
C789 C790 1.363 . S
C789 H792 0.929 1_554 S
C790 C789 1.363 . S
C790 C796 1.428 . S
H791 C787 0.930 1_556 S
H792 C789 0.929 1_556 S
S793 N794 1.613 . S
S793 N795 1.610 . S
N794 S793 1.613 . S
N794 C797 1.350 . S
N795 S793 1.610 . S
N795 C796 1.351 . S
C796 C790 1.428 . S
C796 N795 1.351 . S
C796 C797 1.434 . S
C797 C788 1.429 . S
C797 N794 1.350 . S
C797 C796 1.434 . S
C798 C799 1.369 . S
C798 C800 1.419 . S
C798 H802 0.930 . S
C799 C798 1.369 . S
C799 C808 1.429 . S
C800 C798 1.419 . S
C800 C801 1.363 . S
C800 H803 0.929 . S
C801 C800 1.363 . S
C801 C807 1.428 . S
H802 C798 0.930 . S
H803 C800 0.929 . S
S804 N805 1.613 . S
S804 N806 1.610 . S
N805 S804 1.613 . S
N805 C808 1.350 . S
N806 S804 1.610 . S
N806 C807 1.351 . S
C807 C801 1.428 . S
C807 N806 1.351 . S
C807 C808 1.434 . S
C808 C799 1.429 . S
C808 N805 1.350 . S
C808 C807 1.434 . S
C809 C810 1.369 . S
C809 C811 1.419 . S
C809 H813 0.930 . S
C810 C809 1.369 . S
C810 C819 1.429 . S
C811 C809 1.419 . S
C811 C812 1.363 . S
C811 H814 0.929 . S
C812 C811 1.363 . S
C812 C818 1.428 . S
H813 C809 0.930 . S
H814 C811 0.929 . S
S815 N816 1.613 . S
S815 N817 1.610 . S
N816 S815 1.613 . S
N816 C819 1.350 . S
N817 S815 1.610 . S
N817 C818 1.351 . S
C818 C812 1.428 . S
C818 N817 1.351 . S
C818 C819 1.434 . S
C819 C810 1.429 . S
C819 N816 1.350 . S
C819 C818 1.434 . S
C820 C821 1.369 . S
C820 C822 1.419 . S
C820 H824 0.930 . S
C821 C820 1.369 . S
C821 C830 1.429 . S
C822 C820 1.419 . S
C822 C823 1.363 . S
C822 H825 0.929 . S
C823 C822 1.363 . S
C823 C829 1.428 . S
H824 C820 0.930 . S
H825 C822 0.929 . S
S826 N827 1.613 . S
S826 N828 1.610 . S
N827 S826 1.613 . S
N827 C830 1.350 . S
N828 S826 1.610 . S
N828 C829 1.351 . S
C829 C823 1.428 . S
C829 N828 1.351 . S
C829 C830 1.434 . S
C830 C821 1.429 . S
C830 N827 1.350 . S
C830 C829 1.434 . S
C831 C832 1.369 . S
C831 C833 1.419 . S
C831 H835 0.930 . S
C832 C831 1.369 . S
C832 C841 1.429 . S
C833 C831 1.419 . S
C833 C834 1.363 . S
C833 H836 0.929 . S
C834 C833 1.363 . S
C834 C840 1.428 . S
H835 C831 0.930 . S
H836 C833 0.929 . S
S837 N838 1.613 . S
S837 N839 1.610 . S
N838 S837 1.613 . S
N838 C841 1.350 . S
N839 S837 1.610 . S
N839 C840 1.351 . S
C840 C834 1.428 . S
C840 N839 1.351 . S
C840 C841 1.434 . S
C841 C832 1.429 . S
C841 N838 1.350 . S
C841 C840 1.434 . S
C842 C843 1.369 . S
C842 C844 1.419 . S
C842 H846 0.930 . S
C843 C842 1.369 . S
C843 C852 1.429 . S
C844 C842 1.419 . S
C844 C845 1.363 . S
C844 H847 0.929 . S
C845 C844 1.363 . S
C845 C851 1.428 . S
H846 C842 0.930 . S
H847 C844 0.929 . S
S848 N849 1.613 . S
S848 N850 1.610 . S
N849 S848 1.613 . S
N849 C852 1.350 . S
N850 S848 1.610 . S
N850 C851 1.351 . S
C851 C845 1.428 . S
C851 N850 1.351 . S
C851 C852 1.434 . S
C852 C843 1.429 . S
C852 N849 1.350 . S
C852 C851 1.434 . S
C853 C854 1.369 . S
C853 C855 1.419 . S
C853 H857 0.930 . S
C854 C853 1.369 . S
C854 C863 1.429 . S
C855 C853 1.419 . S
C855 C856 1.363 . S
C855 H858 0.929 . S
C856 C855 1.363 . S
C856 C862 1.428 . S
H857 C853 0.930 . S
H858 C855 0.929 . S
S859 N860 1.613 . S
S859 N861 1.610 . S
N860 S859 1.613 . S
N860 C863 1.350 . S
N861 S859 1.610 . S
N861 C862 1.351 . S
C862 C856 1.428 . S
C862 N861 1.351 . S
C862 C863 1.434 . S
C863 C854 1.429 . S
C863 N860 1.350 . S
C863 C862 1.434 . S
C864 C865 1.369 . S
C864 C866 1.419 . S
C864 H868 0.930 . S
C865 C864 1.369 . S
C865 C874 1.429 . S
C866 C864 1.419 . S
C866 C867 1.363 . S
C866 H869 0.929 . S
C867 C866 1.363 . S
C867 C873 1.428 . S
H868 C864 0.930 . S
H869 C866 0.929 . S
S870 N871 1.613 . S
S870 N872 1.610 . S
N871 S870 1.613 . S
N871 C874 1.350 . S
N872 S870 1.610 . S
N872 C873 1.351 . S
C873 C867 1.428 . S
C873 N872 1.351 . S
C873 C874 1.434 . S
C874 C865 1.429 . S
C874 N871 1.350 . S
C874 C873 1.434 . S
C875 C876 1.369 1_565 S
C875 C877 1.419 . S
C875 H879 0.930 . S
C876 C875 1.369 1_545 S
C876 C885 1.429 . S
C877 C875 1.419 . S
C877 C878 1.362 1_565 S
C877 H880 0.929 . S
C878 C877 1.362 1_545 S
C878 C884 1.430 . S
H879 C875 0.930 . S
H880 C877 0.929 . S
S881 N882 1.613 . S
S881 N883 1.610 . S
N882 S881 1.613 . S
N882 C885 1.350 . S
N883 S881 1.610 . S
N883 C884 1.351 . S
C884 C878 1.430 . S
C884 N883 1.351 . S
C884 C885 1.434 . S
C885 C876 1.429 . S
C885 N882 1.350 . S
C885 C884 1.434 . S
C886 C887 1.369 1_455 S
C886 C888 1.419 . S
C886 H890 0.930 . S
C887 C886 1.369 1_655 S
C887 C896 1.429 . S
C888 C886 1.419 . S
C888 C889 1.363 1_455 S
C888 H891 0.929 . S
C889 C888 1.363 1_655 S
C889 C895 1.428 . S
H890 C886 0.930 . S
H891 C888 0.929 . S
S892 N893 1.613 . S
S892 N894 1.610 . S
N893 S892 1.613 . S
N893 C896 1.350 . S
N894 S892 1.610 . S
N894 C895 1.351 . S
C895 C889 1.428 . S
C895 N894 1.351 . S
C895 C896 1.434 . S
C896 C887 1.429 . S
C896 N893 1.350 . S
C896 C895 1.434 . S
C897 C898 1.369 . S
C897 C899 1.419 . S
C897 H901 0.930 . S
C898 C897 1.369 . S
C898 C907 1.429 . S
C899 C897 1.419 . S
C899 C900 1.363 . S
C899 H902 0.929 . S
C900 C899 1.363 . S
C900 C906 1.428 . S
H901 C897 0.930 . S
H902 C899 0.929 . S
S903 N904 1.613 . S
S903 N905 1.610 . S
N904 S903 1.613 . S
N904 C907 1.350 . S
N905 S903 1.610 . S
N905 C906 1.351 . S
C906 C900 1.428 . S
C906 N905 1.351 . S
C906 C907 1.434 . S
C907 C898 1.429 . S
C907 N904 1.350 . S
C907 C906 1.434 . S
C908 C909 1.369 1_545 S
C908 C910 1.419 . S
C908 H912 0.930 . S
C909 C908 1.369 1_565 S
C909 C918 1.429 . S
C910 C908 1.419 . S
C910 C911 1.343 1_545 S
C910 H913 0.929 . S
C911 C910 1.343 1_565 S
C911 C917 1.450 . S
H912 C908 0.930 . S
H913 C910 0.929 . S
S914 N915 1.613 . S
S914 N916 1.610 . S
N915 S914 1.613 . S
N915 C918 1.350 . S
N916 S914 1.610 . S
N916 C917 1.351 . S
C917 C911 1.450 . S
C917 N916 1.351 . S
C917 C918 1.434 . S
C918 C909 1.429 . S
C918 N915 1.350 . S
C918 C917 1.434 . S
C919 C920 1.367 . S
C919 C921 1.419 . S
C919 H923 0.930 . S
C920 C919 1.367 . S
C920 C929 1.430 1_455 S
C921 C919 1.419 . S
C921 C922 1.363 . S
C921 H924 0.929 . S
C922 C921 1.363 . S
C922 C928 1.428 1_455 S
H923 C919 0.930 . S
H924 C921 0.929 . S
S925 N926 1.613 . S
S925 N927 1.610 . S
N926 S925 1.613 . S
N926 C929 1.350 . S
N927 S925 1.610 . S
N927 C928 1.351 . S
C928 C922 1.428 1_655 S
C928 N927 1.351 . S
C928 C929 1.434 . S
C929 C920 1.430 1_655 S
C929 N926 1.350 . S
C929 C928 1.434 . S
C930 C931 1.369 . S
C930 C932 1.419 . S
C930 H934 0.930 . S
C931 C930 1.369 . S
C931 C940 1.429 . S
C932 C930 1.419 . S
C932 C933 1.363 . S
C932 H935 0.929 . S
C933 C932 1.363 . S
C933 C939 1.428 . S
H934 C930 0.930 . S
H935 C932 0.929 . S
S936 N937 1.613 . S
S936 N938 1.610 . S
N937 S936 1.613 . S
N937 C940 1.350 . S
N938 S936 1.610 . S
N938 C939 1.351 . S
C939 C933 1.428 . S
C939 N938 1.351 . S
C939 C940 1.434 . S
C940 C931 1.429 . S
C940 N937 1.350 . S
C940 C939 1.434 . S
C941 C942 1.369 . S
C941 C943 1.419 . S
C941 H945 0.930 . S
C942 C941 1.369 . S
C942 C951 1.429 . S
C943 C941 1.419 . S
C943 C944 1.363 . S
C943 H946 0.929 . S
C944 C943 1.363 . S
C944 C950 1.428 . S
H945 C941 0.930 . S
H946 C943 0.929 . S
S947 N948 1.613 . S
S947 N949 1.610 . S
N948 S947 1.613 . S
N948 C951 1.350 . S
N949 S947 1.610 . S
N949 C950 1.351 . S
C950 C944 1.428 . S
C950 N949 1.351 . S
C950 C951 1.434 . S
C951 C942 1.429 . S
C951 N948 1.350 . S
C951 C950 1.434 . S
C952 C953 1.369 . S
C952 C954 1.419 . S
C952 H956 0.930 . S
C953 C952 1.369 . S
C953 C962 1.429 . S
C954 C952 1.419 . S
C954 C955 1.363 . S
C954 H957 0.929 . S
C955 C954 1.363 . S
C955 C961 1.428 . S
H956 C952 0.930 . S
H957 C954 0.929 . S
S958 N959 1.613 . S
S958 N960 1.610 . S
N959 S958 1.613 . S
N959 C962 1.350 . S
N960 S958 1.610 . S
N960 C961 1.351 . S
C961 C955 1.428 . S
C961 N960 1.351 . S
C961 C962 1.434 . S
C962 C953 1.429 . S
C962 N959 1.350 . S
C962 C961 1.434 . S
C963 C964 1.369 . S
C963 C965 1.419 . S
C963 H967 0.930 . S
C964 C963 1.369 . S
C964 C973 1.429 . S
C965 C963 1.419 . S
C965 C966 1.363 . S
C965 H968 0.929 . S
C966 C965 1.363 . S
C966 C972 1.428 . S
H967 C963 0.930 . S
H968 C965 0.929 . S
S969 N970 1.613 . S
S969 N971 1.610 . S
N970 S969 1.613 . S
N970 C973 1.350 . S
N971 S969 1.610 . S
N971 C972 1.351 . S
C972 C966 1.428 . S
C972 N971 1.351 . S
C972 C973 1.434 . S
C973 C964 1.429 . S
C973 N970 1.350 . S
C973 C972 1.434 . S
C974 C975 1.369 . S
C974 C976 1.419 . S
C974 H978 0.930 . S
C975 C974 1.369 . S
C975 C984 1.429 . S
C976 C974 1.419 . S
C976 C977 1.363 . S
C976 H979 0.929 . S
C977 C976 1.363 . S
C977 C983 1.428 . S
H978 C974 0.930 . S
H979 C976 0.929 . S
S980 N981 1.613 . S
S980 N982 1.610 . S
N981 S980 1.613 . S
N981 C984 1.350 . S
N982 S980 1.610 . S
N982 C983 1.351 . S
C983 C977 1.428 . S
C983 N982 1.351 . S
C983 C984 1.434 . S
C984 C975 1.429 . S
C984 N981 1.350 . S
C984 C983 1.434 . S
C985 C986 1.369 . S
C985 C987 1.419 . S
C985 H989 0.930 . S
C986 C985 1.369 . S
C986 C995 1.429 . S
C987 C985 1.419 . S
C987 C988 1.363 . S
C987 H990 0.929 . S
C988 C987 1.363 . S
C988 C994 1.428 . S
H989 C985 0.930 . S
H990 C987 0.929 . S
S991 N992 1.613 . S
S991 N993 1.610 . S
N992 S991 1.613 . S
N992 C995 1.350 . S
N993 S991 1.610 . S
N993 C994 1.351 . S
C994 C988 1.428 . S
C994 N993 1.351 . S
C994 C995 1.434 . S
C995 C986 1.429 . S
C995 N992 1.350 . S
C995 C994 1.434 . S
C996 C997 1.369 . S
C996 C998 1.419 . S
C996 H1000 0.930 . S
C997 C996 1.369 . S
C997 C1006 1.429 . S
C998 C996 1.419 . S
C998 C999 1.363 . S
C998 H1001 0.929 . S
C999 C998 1.363 . S
C999 C1005 1.428 . S
H1000 C996 0.930 . S
H1001 C998 0.929 . S
S1002 N1003 1.613 . S
S1002 N1004 1.610 . S
N1003 S1002 1.613 . S
N1003 C1006 1.350 . S
N1004 S1002 1.610 . S
N1004 C1005 1.351 . S
C1005 C999 1.428 . S
C1005 N1004 1.351 . S
C1005 C1006 1.434 . S
C1006 C997 1.429 . S
C1006 N1003 1.350 . S
C1006 C1005 1.434 . S
C1007 C1008 1.369 . S
C1007 C1009 1.419 . S
C1007 H1011 0.930 . S
C1008 C1007 1.369 . S
C1008 C1017 1.429 . S
C1009 C1007 1.419 . S
C1009 C1010 1.363 . S
C1009 H1012 0.929 . S
C1010 C1009 1.363 . S
C1010 C1016 1.428 . S
H1011 C1007 0.930 . S
H1012 C1009 0.929 . S
S1013 N1014 1.613 . S
S1013 N1015 1.610 . S
N1014 S1013 1.613 . S
N1014 C1017 1.350 . S
N1015 S1013 1.610 . S
N1015 C1016 1.351 . S
C1016 C1010 1.428 . S
C1016 N1015 1.351 . S
C1016 C1017 1.434 . S
C1017 C1008 1.429 . S
C1017 N1014 1.350 . S
C1017 C1016 1.434 . S
C1018 C1019 1.369 . S
C1018 C1020 1.419 . S
C1018 H1022 0.930 . S
C1019 C1018 1.369 . S
C1019 C1028 1.429 . S
C1020 C1018 1.419 . S
C1020 C1021 1.363 . S
C1020 H1023 0.929 . S
C1021 C1020 1.363 . S
C1021 C1027 1.428 . S
H1022 C1018 0.930 . S
H1023 C1020 0.929 . S
S1024 N1025 1.613 . S
S1024 N1026 1.610 . S
N1025 S1024 1.613 . S
N1025 C1028 1.350 . S
N1026 S1024 1.610 . S
N1026 C1027 1.351 . S
C1027 C1021 1.428 . S
C1027 N1026 1.351 . S
C1027 C1028 1.434 . S
C1028 C1019 1.429 . S
C1028 N1025 1.350 . S
C1028 C1027 1.434 . S
C1029 C1030 1.369 . S
C1029 C1031 1.419 . S
C1029 H1033 0.930 . S
C1030 C1029 1.369 . S
C1030 C1039 1.429 . S
C1031 C1029 1.419 . S
C1031 C1032 1.363 . S
C1031 H1034 0.929 . S
C1032 C1031 1.363 . S
C1032 C1038 1.428 . S
H1033 C1029 0.930 . S
H1034 C1031 0.929 . S
S1035 N1036 1.613 . S
S1035 N1037 1.610 . S
N1036 S1035 1.613 . S
N1036 C1039 1.350 . S
N1037 S1035 1.610 . S
N1037 C1038 1.351 . S
C1038 C1032 1.428 . S
C1038 N1037 1.351 . S
C1038 C1039 1.434 . S
C1039 C1030 1.429 . S
C1039 N1036 1.350 . S
C1039 C1038 1.434 . S
C1040 C1041 1.369 . S
C1040 C1042 1.419 . S
C1040 H1044 0.930 . S
C1041 C1040 1.369 . S
C1041 C1050 1.429 . S
C1042 C1040 1.419 . S
C1042 C1043 1.363 . S
C1042 H1045 0.929 . S
C1043 C1042 1.363 . S
C1043 C1049 1.428 . S
H1044 C1040 0.930 . S
H1045 C1042 0.929 . S
S1046 N1047 1.613 . S
S1046 N1048 1.610 . S
N1047 S1046 1.613 . S
N1047 C1050 1.350 . S
N1048 S1046 1.610 . S
N1048 C1049 1.351 . S
C1049 C1043 1.428 . S
C1049 N1048 1.351 . S
C1049 C1050 1.434 . S
C1050 C1041 1.429 . S
C1050 N1047 1.350 . S
C1050 C1049 1.434 . S
C1051 C1052 1.369 . S
C1051 C1053 1.419 . S
C1051 H1055 0.930 . S
C1052 C1051 1.369 . S
C1052 C1061 1.429 . S
C1053 C1051 1.419 . S
C1053 C1054 1.363 . S
C1053 H1056 0.929 . S
C1054 C1053 1.363 . S
C1054 C1060 1.428 . S
H1055 C1051 0.930 . S
H1056 C1053 0.929 . S
S1057 N1058 1.613 . S
S1057 N1059 1.610 . S
N1058 S1057 1.613 . S
N1058 C1061 1.350 . S
N1059 S1057 1.610 . S
N1059 C1060 1.351 . S
C1060 C1054 1.428 . S
C1060 N1059 1.351 . S
C1060 C1061 1.434 . S
C1061 C1052 1.429 . S
C1061 N1058 1.350 . S
C1061 C1060 1.434 . S
C1062 C1063 1.369 . S
C1062 C1064 1.419 . S
C1062 H1066 0.930 . S
C1063 C1062 1.369 . S
C1063 C1072 1.429 . S
C1064 C1062 1.419 . S
C1064 C1065 1.363 . S
C1064 H1067 0.929 . S
C1065 C1064 1.363 . S
C1065 C1071 1.428 . S
H1066 C1062 0.930 . S
H1067 C1064 0.929 . S
S1068 N1069 1.613 . S
S1068 N1070 1.610 . S
N1069 S1068 1.613 . S
N1069 C1072 1.350 . S
N1070 S1068 1.610 . S
N1070 C1071 1.351 . S
C1071 C1065 1.428 . S
C1071 N1070 1.351 . S
C1071 C1072 1.434 . S
C1072 C1063 1.429 . S
C1072 N1069 1.350 . S
C1072 C1071 1.434 . S
C1073 C1074 1.369 . S
C1073 C1075 1.419 . S
C1073 H1077 0.930 . S
C1074 C1073 1.369 . S
C1074 C1083 1.429 . S
C1075 C1073 1.419 . S
C1075 C1076 1.363 . S
C1075 H1078 0.929 . S
C1076 C1075 1.363 . S
C1076 C1082 1.428 . S
H1077 C1073 0.930 . S
H1078 C1075 0.929 . S
S1079 N1080 1.613 . S
S1079 N1081 1.610 . S
N1080 S1079 1.613 . S
N1080 C1083 1.350 . S
N1081 S1079 1.610 . S
N1081 C1082 1.351 . S
C1082 C1076 1.428 . S
C1082 N1081 1.351 . S
C1082 C1083 1.434 . S
C1083 C1074 1.429 . S
C1083 N1080 1.350 . S
C1083 C1082 1.434 . S
C1084 C1085 1.369 . S
C1084 C1086 1.419 . S
C1084 H1088 0.930 . S
C1085 C1084 1.369 . S
C1085 C1094 1.429 . S
C1086 C1084 1.419 . S
C1086 C1087 1.363 . S
C1086 H1089 0.929 . S
C1087 C1086 1.363 . S
C1087 C1093 1.428 . S
H1088 C1084 0.930 . S
H1089 C1086 0.929 . S
S1090 N1091 1.613 . S
S1090 N1092 1.610 . S
N1091 S1090 1.613 . S
N1091 C1094 1.350 . S
N1092 S1090 1.610 . S
N1092 C1093 1.351 . S
C1093 C1087 1.428 . S
C1093 N1092 1.351 . S
C1093 C1094 1.434 . S
C1094 C1085 1.429 . S
C1094 N1091 1.350 . S
C1094 C1093 1.434 . S
C1095 C1096 1.369 . S
C1095 C1097 1.419 . S
C1095 H1099 0.930 . S
C1096 C1095 1.369 . S
C1096 C1105 1.429 . S
C1097 C1095 1.419 . S
C1097 C1098 1.363 . S
C1097 H1100 0.929 . S
C1098 C1097 1.363 . S
C1098 C1104 1.428 . S
H1099 C1095 0.930 . S
H1100 C1097 0.929 . S
S1101 N1102 1.613 . S
S1101 N1103 1.610 . S
N1102 S1101 1.613 . S
N1102 C1105 1.350 . S
N1103 S1101 1.610 . S
N1103 C1104 1.351 . S
C1104 C1098 1.428 . S
C1104 N1103 1.351 . S
C1104 C1105 1.434 . S
C1105 C1096 1.429 . S
C1105 N1102 1.350 . S
C1105 C1104 1.434 . S
C1106 C1107 1.369 . S
C1106 C1108 1.419 . S
C1106 H1110 0.930 . S
C1107 C1106 1.369 . S
C1107 C1116 1.429 . S
C1108 C1106 1.419 . S
C1108 C1109 1.363 . S
C1108 H1111 0.929 . S
C1109 C1108 1.363 . S
C1109 C1115 1.428 . S
H1110 C1106 0.930 . S
H1111 C1108 0.929 . S
S1112 N1113 1.613 . S
S1112 N1114 1.610 . S
N1113 S1112 1.613 . S
N1113 C1116 1.350 . S
N1114 S1112 1.610 . S
N1114 C1115 1.351 . S
C1115 C1109 1.428 . S
C1115 N1114 1.351 . S
C1115 C1116 1.434 . S
C1116 C1107 1.429 . S
C1116 N1113 1.350 . S
C1116 C1115 1.434 . S
C1117 C1118 1.369 . S
C1117 C1119 1.419 . S
C1117 H1121 0.930 . S
C1118 C1117 1.369 . S
C1118 C1127 1.429 . S
C1119 C1117 1.419 . S
C1119 C1120 1.363 . S
C1119 H1122 0.929 . S
C1120 C1119 1.363 . S
C1120 C1126 1.428 . S
H1121 C1117 0.930 . S
H1122 C1119 0.929 . S
S1123 N1124 1.613 . S
S1123 N1125 1.610 . S
N1124 S1123 1.613 . S
N1124 C1127 1.350 . S
N1125 S1123 1.610 . S
N1125 C1126 1.351 . S
C1126 C1120 1.428 . S
C1126 N1125 1.351 . S
C1126 C1127 1.434 . S
C1127 C1118 1.429 . S
C1127 N1124 1.350 . S
C1127 C1126 1.434 . S
C1128 C1129 1.369 . S
C1128 C1130 1.419 . S
C1128 H1132 0.930 . S
C1129 C1128 1.369 . S
C1129 C1138 1.429 . S
C1130 C1128 1.419 . S
C1130 C1131 1.363 . S
C1130 H1133 0.929 . S
C1131 C1130 1.363 . S
C1131 C1137 1.428 . S
H1132 C1128 0.930 . S
H1133 C1130 0.929 . S
S1134 N1135 1.613 . S
S1134 N1136 1.610 . S
N1135 S1134 1.613 . S
N1135 C1138 1.350 . S
N1136 S1134 1.610 . S
N1136 C1137 1.351 . S
C1137 C1131 1.428 . S
C1137 N1136 1.351 . S
C1137 C1138 1.434 . S
C1138 C1129 1.429 . S
C1138 N1135 1.350 . S
C1138 C1137 1.434 . S
C1139 C1140 1.369 . S
C1139 C1141 1.419 . S
C1139 H1143 0.930 . S
C1140 C1139 1.369 . S
C1140 C1149 1.429 . S
C1141 C1139 1.419 . S
C1141 C1142 1.363 . S
C1141 H1144 0.929 . S
C1142 C1141 1.363 . S
C1142 C1148 1.428 . S
H1143 C1139 0.930 . S
H1144 C1141 0.929 . S
S1145 N1146 1.613 . S
S1145 N1147 1.610 . S
N1146 S1145 1.613 . S
N1146 C1149 1.350 . S
N1147 S1145 1.610 . S
N1147 C1148 1.351 . S
C1148 C1142 1.428 . S
C1148 N1147 1.351 . S
C1148 C1149 1.434 . S
C1149 C1140 1.429 . S
C1149 N1146 1.350 . S
C1149 C1148 1.434 . S
C1150 C1151 1.369 . S
C1150 C1152 1.419 . S
C1150 H1154 0.930 . S
C1151 C1150 1.369 . S
C1151 C1160 1.429 . S
C1152 C1150 1.419 . S
C1152 C1153 1.363 . S
C1152 H1155 0.929 . S
C1153 C1152 1.363 . S
C1153 C1159 1.428 . S
H1154 C1150 0.930 . S
H1155 C1152 0.929 . S
S1156 N1157 1.613 . S
S1156 N1158 1.610 . S
N1157 S1156 1.613 . S
N1157 C1160 1.350 . S
N1158 S1156 1.610 . S
N1158 C1159 1.351 . S
C1159 C1153 1.428 . S
C1159 N1158 1.351 . S
C1159 C1160 1.434 . S
C1160 C1151 1.429 . S
C1160 N1157 1.350 . S
C1160 C1159 1.434 . S
C1161 C1162 1.369 . S
C1161 C1163 1.419 . S
C1161 H1165 0.930 . S
C1162 C1161 1.369 . S
C1162 C1171 1.429 . S
C1163 C1161 1.419 . S
C1163 C1164 1.363 . S
C1163 H1166 0.929 . S
C1164 C1163 1.363 . S
C1164 C1170 1.428 . S
H1165 C1161 0.930 . S
H1166 C1163 0.929 . S
S1167 N1168 1.613 . S
S1167 N1169 1.610 . S
N1168 S1167 1.613 . S
N1168 C1171 1.350 . S
N1169 S1167 1.610 . S
N1169 C1170 1.351 . S
C1170 C1164 1.428 . S
C1170 N1169 1.351 . S
C1170 C1171 1.434 . S
C1171 C1162 1.429 . S
C1171 N1168 1.350 . S
C1171 C1170 1.434 . S
C1172 C1173 1.369 . S
C1172 C1174 1.419 . S
C1172 H1176 0.930 . S
C1173 C1172 1.369 . S
C1173 C1182 1.429 . S
C1174 C1172 1.419 . S
C1174 C1175 1.363 . S
C1174 H1177 0.929 . S
C1175 C1174 1.363 . S
C1175 C1181 1.428 . S
H1176 C1172 0.930 . S
H1177 C1174 0.929 . S
S1178 N1179 1.613 . S
S1178 N1180 1.610 . S
N1179 S1178 1.613 . S
N1179 C1182 1.350 . S
N1180 S1178 1.610 . S
N1180 C1181 1.351 . S
C1181 C1175 1.428 . S
C1181 N1180 1.351 . S
C1181 C1182 1.434 . S
C1182 C1173 1.429 . S
C1182 N1179 1.350 . S
C1182 C1181 1.434 . S
C1183 C1184 1.369 . S
C1183 C1185 1.419 . S
C1183 H1187 0.930 . S
C1184 C1183 1.369 . S
C1184 C1193 1.429 . S
C1185 C1183 1.419 . S
C1185 C1186 1.363 . S
C1185 H1188 0.929 . S
C1186 C1185 1.363 . S
C1186 C1192 1.428 . S
H1187 C1183 0.930 . S
H1188 C1185 0.929 . S
S1189 N1190 1.613 . S
S1189 N1191 1.610 . S
N1190 S1189 1.613 . S
N1190 C1193 1.350 . S
N1191 S1189 1.610 . S
N1191 C1192 1.351 . S
C1192 C1186 1.428 . S
C1192 N1191 1.351 . S
C1192 C1193 1.434 . S
C1193 C1184 1.429 . S
C1193 N1190 1.350 . S
C1193 C1192 1.434 . S
C1194 C1195 1.369 . S
C1194 C1196 1.419 1_455 S
C1194 H1198 0.930 . S
C1195 C1194 1.369 . S
C1195 C1204 1.429 . S
C1196 C1194 1.419 1_655 S
C1196 C1197 1.363 . S
C1196 H1199 0.929 . S
C1197 C1196 1.363 . S
C1197 C1203 1.428 . S
H1198 C1194 0.930 . S
H1199 C1196 0.929 . S
S1200 N1201 1.613 1_655 S
S1200 N1202 1.610 . S
N1201 S1200 1.613 1_455 S
N1201 C1204 1.350 . S
N1202 S1200 1.610 . S
N1202 C1203 1.351 . S
C1203 C1197 1.428 . S
C1203 N1202 1.351 . S
C1203 C1204 1.434 1_655 S
C1204 C1195 1.429 . S
C1204 N1201 1.350 . S
C1204 C1203 1.434 1_455 S
C1205 C1206 1.369 . S
C1205 C1207 1.419 . S
C1205 H1209 0.930 . S
C1206 C1205 1.369 . S
C1206 C1215 1.429 . S
C1207 C1205 1.419 . S
C1207 C1208 1.363 . S
C1207 H1210 0.929 . S
C1208 C1207 1.363 . S
C1208 C1214 1.428 . S
H1209 C1205 0.930 . S
H1210 C1207 0.929 . S
S1211 N1212 1.613 . S
S1211 N1213 1.610 . S
N1212 S1211 1.613 . S
N1212 C1215 1.350 . S
N1213 S1211 1.610 . S
N1213 C1214 1.351 . S
C1214 C1208 1.428 . S
C1214 N1213 1.351 . S
C1214 C1215 1.434 . S
C1215 C1206 1.429 . S
C1215 N1212 1.350 . S
C1215 C1214 1.434 . S
C1216 C1217 1.369 . S
C1216 C1218 1.419 . S
C1216 H1220 0.930 . S
C1217 C1216 1.369 . S
C1217 C1226 1.429 1_545 S
C1218 C1216 1.419 . S
C1218 C1219 1.363 1_545 S
C1218 H1221 0.929 . S
C1219 C1218 1.363 1_565 S
C1219 C1225 1.428 . S
H1220 C1216 0.930 . S
H1221 C1218 0.929 . S
S1222 N1223 1.613 . S
S1222 N1224 1.610 . S
N1223 S1222 1.613 . S
N1223 C1226 1.350 . S
N1224 S1222 1.610 . S
N1224 C1225 1.351 . S
C1225 C1219 1.428 . S
C1225 N1224 1.351 . S
C1225 C1226 1.434 . S
C1226 C1217 1.429 1_565 S
C1226 N1223 1.350 . S
C1226 C1225 1.434 . S
C1227 C1228 1.376 . S
C1227 C1229 1.411 1_556 S
C1227 H1231 0.930 . S
C1228 C1227 1.376 . S
C1228 C1237 1.429 1_545 S
C1229 C1227 1.411 1_554 S
C1229 C1230 1.363 1_545 S
C1229 H1232 0.929 . S
C1230 C1229 1.363 1_565 S
C1230 C1236 1.441 . S
H1231 C1227 0.930 . S
H1232 C1229 0.929 . S
S1233 N1234 1.613 . S
S1233 N1235 1.610 1_556 S
N1234 S1233 1.613 . S
N1234 C1237 1.350 . S
N1235 S1233 1.610 1_554 S
N1235 C1236 1.354 . S
C1236 C1230 1.441 . S
C1236 N1235 1.354 . S
C1236 C1237 1.421 1_554 S
C1237 C1228 1.429 1_565 S
C1237 N1234 1.350 . S
C1237 C1236 1.421 1_556 S
C1238 C1239 1.369 1_454 S
C1238 C1240 1.419 . S
C1238 H1242 0.930 . S
C1239 C1238 1.369 1_656 S
C1239 C1248 1.429 . S
C1240 C1238 1.419 . S
C1240 C1241 1.363 . S
C1240 H1243 0.929 . S
C1241 C1240 1.363 . S
C1241 C1247 1.428 1_454 S
H1242 C1238 0.930 . S
H1243 C1240 0.929 . S
S1244 N1245 1.613 . S
S1244 N1246 1.610 . S
N1245 S1244 1.613 . S
N1245 C1248 1.350 . S
N1246 S1244 1.610 . S
N1246 C1247 1.351 . S
C1247 C1241 1.428 1_656 S
C1247 N1246 1.351 . S
C1247 C1248 1.434 . S
C1248 C1239 1.429 . S
C1248 N1245 1.350 . S
C1248 C1247 1.434 . S
C1249 C1250 1.369 . S
C1249 C1251 1.419 . S
C1249 H1253 0.930 . S
C1250 C1249 1.369 . S
C1250 C1259 1.429 1_554 S
C1251 C1249 1.419 . S
C1251 C1252 1.363 1_554 S
C1251 H1254 0.929 . S
C1252 C1251 1.363 1_556 S
C1252 C1258 1.428 . S
H1253 C1249 0.930 . S
H1254 C1251 0.929 . S
S1255 N1256 1.613 . S
S1255 N1257 1.610 . S
N1256 S1255 1.613 . S
N1256 C1259 1.350 . S
N1257 S1255 1.610 . S
N1257 C1258 1.351 . S
C1258 C1252 1.428 . S
C1258 N1257 1.351 . S
C1258 C1259 1.434 . S
C1259 C1250 1.429 1_556 S
C1259 N1256 1.350 . S
C1259 C1258 1.434 . S
C469 C3 1.454 . S
C471 C18 1.588 . S
C480 C16 1.465 . S
C482 C29 1.588 . S
C491 C5 1.589 . S
C493 C31 1.463 . S
C502 C44 1.468 . S
C504 C68 1.598 . S
C513 C57 1.468 . S
C515 C42 1.597 . S
C524 C55 1.600 . S
C526 C70 1.471 . S
C535 C83 1.456 . S
C537 C94 1.586 . S
C546 C107 1.588 . S
C548 C96 1.465 . S
C557 C81 1.589 . S
C559 C109 1.457 . S
C568 C146 1.597 . S
C570 C122 1.464 . S
C579 C135 1.467 . S
C581 C120 1.597 . S
C590 C148 1.473 . S
C592 C133 1.599 . S
C601 C174 1.594 . S
C603 C159 1.466 . S
C612 C172 1.458 . S
C614 C187 1.594 . S
C623 C185 1.467 . S
C625 C161 1.596 . S
C634 C200 1.466 . S
C636 C224 1.596 . S
C645 C213 1.470 . S
C647 C198 1.595 . S
C656 C226 1.458 . S
C658 C211 1.593 . S
C667 C252 1.624 . S
C669 C239 1.485 . S
C678 C250 1.486 . S
C680 C265 1.626 . S
C689 C237 1.627 . S
C691 C263 1.491 . S
C700 C302 1.507 . S
C702 C276 1.393 . S
C711 C289 1.401 . S
C713 C278 1.510 . S
C722 C291 1.508 . S
C724 C304 1.401 . S
C733 C330 1.623 . S
C735 C315 1.488 . S
C744 C328 1.495 . S
C746 C343 1.627 . S
C755 C341 1.487 . S
C757 C317 1.623 . S
C766 C382 1.507 . S
C768 C354 1.392 . S
C777 C367 1.392 . S
C779 C356 1.509 . S
C788 C369 1.510 . S
C790 C380 1.396 . S
C799 C395 1.458 . S
C801 C408 1.595 . S
C810 C406 1.468 . S
C812 C421 1.594 . S
C821 C419 1.460 . S
C823 C393 1.593 . S
C832 C460 1.592 . S
C834 C432 1.464 . S
C843 C434 1.596 . S
C845 C447 1.466 . S
C854 C458 1.468 . S
C856 C445 1.596 . S
C865 C49 1.739 . S
C867 C4 1.741 . S
C876 C17 1.739 . S
C878 C62 1.737 1_545 S
C887 C75 1.743 1_655 S
C889 C36 1.740 . S
C898 C127 1.744 . S
C900 C88 1.741 . S
C909 C101 1.743 . S
C911 C140 1.740 1_565 S
C920 C153 1.742 1_455 S
C922 C114 1.744 . S
C931 C160 1.740 . S
C933 C205 1.738 . S
C942 C173 1.742 . S
C944 C218 1.742 . S
C953 C186 1.739 . S
C955 C231 1.738 . S
C964 C277 1.761 . S
C966 C244 1.762 . S
C975 C290 1.759 . S
C977 C251 1.764 . S
C986 C264 1.769 . S
C988 C309 1.758 . S
C997 C355 1.761 . S
C999 C316 1.762 . S
C1008 C368 1.761 . S
C1010 C329 1.762 . S
C1019 C342 1.767 . S
C1021 C381 1.755 . S
C1030 C400 1.740 . S
C1032 C433 1.743 . S
C1041 C452 1.737 . S
C1043 C407 1.740 . S
C1052 C420 1.742 . S
C1054 C459 1.742 . S
C1063 C10 1.943 . S
C1065 C238 1.926 . S
C1074 C23 1.932 . S
C1076 C257 1.935 . S
C1085 C30 1.942 . S
C1087 C270 1.926 . S
C1096 C439 1.927 . S
C1098 C43 1.923 . S
C1107 C446 1.922 . S
C1109 C56 1.925 . S
C1118 C69 1.925 . S
C1120 C465 1.923 . S
C1129 C82 1.941 . S
C1131 C322 1.928 . S
C1140 C335 1.935 . S
C1142 C95 1.934 . S
C1151 C348 1.931 . S
C1153 C108 1.936 . S
C1162 C199 1.921 . S
C1164 C121 1.928 . S
C1173 C212 1.919 . S
C1175 C134 1.927 . S
C1184 C225 1.922 . S
C1186 C147 1.926 . S
C1195 C394 1.918 . S
C1197 C166 1.923 . S
C1206 C179 1.926 . S
C1208 C413 1.916 . S
C1217 C192 1.926 . S
C1219 C426 1.915 . S
C1228 C283 1.801 . S
C1230 C361 1.794 . S
C1239 C296 1.796 . S
C1241 C374 1.797 . S
C1250 C387 1.791 . S
C1252 C303 1.800 . S
