# Generated by pormake.
# Topology hbo, (4)-cn, num edge types: 1
# Building blocks:
#     Node 0, Type 0, BuildingBlock: KOZSID_clean_sbu_0, # of connection points: 4
#     Node 1, Type 0, BuildingBlock: KOZSID_clean_sbu_0, # of connection points: 4
#     Node 2, Type 0, BuildingBlock: KOZSID_clean_sbu_0, # of connection points: 4
#     Node 3, Type 0, BuildingBlock: KOZSID_clean_sbu_0, # of connection points: 4
#     Node 4, Type 0, BuildingBlock: KOZSID_clean_sbu_0, # of connection points: 4
#     Node 5, Type 0, BuildingBlock: KOZSID_clean_sbu_0, # of connection points: 4
#     Node 6, Type 0, BuildingBlock: KOZSID_clean_sbu_0, # of connection points: 4
#     Node 7, Type 0, BuildingBlock: KOZSID_clean_sbu_0, # of connection points: 4
#     Node 8, Type 0, BuildingBlock: KOZSID_clean_sbu_0, # of connection points: 4
#     Node 9, Type 0, BuildingBlock: KOZSID_clean_sbu_0, # of connection points: 4
#     Node 10, Type 0, BuildingBlock: KOZSID_clean_sbu_0, # of connection points: 4
#     Node 11, Type 0, BuildingBlock: KOZSID_clean_sbu_0, # of connection points: 4
#     Node 12, Type 0, BuildingBlock: KOZSID_clean_sbu_0, # of connection points: 4
#     Node 13, Type 0, BuildingBlock: KOZSID_clean_sbu_0, # of connection points: 4
#     Node 14, Type 0, BuildingBlock: KOZSID_clean_sbu_0, # of connection points: 4
#     Node 15, Type 0, BuildingBlock: KOZSID_clean_sbu_0, # of connection points: 4
#     Node 16, Type 0, BuildingBlock: KOZSID_clean_sbu_0, # of connection points: 4
#     Node 17, Type 0, BuildingBlock: KOZSID_clean_sbu_0, # of connection points: 4
#     Node 18, Type 0, BuildingBlock: KOZSID_clean_sbu_0, # of connection points: 4
#     Node 19, Type 0, BuildingBlock: KOZSID_clean_sbu_0, # of connection points: 4
#     Node 20, Type 0, BuildingBlock: KOZSID_clean_sbu_0, # of connection points: 4
#     Node 21, Type 0, BuildingBlock: KOZSID_clean_sbu_0, # of connection points: 4
#     Node 22, Type 0, BuildingBlock: KOZSID_clean_sbu_0, # of connection points: 4
#     Node 23, Type 0, BuildingBlock: KOZSID_clean_sbu_0, # of connection points: 4
#     Edge 24, Type (0, 0), BuildingBlock: UVAHIK_clean_linker_0, # of connection points: 2
#     Edge 25, Type (0, 0), BuildingBlock: UVAHIK_clean_linker_0, # of connection points: 2
#     Edge 26, Type (0, 0), BuildingBlock: UVAHIK_clean_linker_0, # of connection points: 2
#     Edge 27, Type (0, 0), BuildingBlock: UVAHIK_clean_linker_0, # of connection points: 2
#     Edge 28, Type (0, 0), BuildingBlock: UVAHIK_clean_linker_0, # of connection points: 2
#     Edge 29, Type (0, 0), BuildingBlock: UVAHIK_clean_linker_0, # of connection points: 2
#     Edge 30, Type (0, 0), BuildingBlock: UVAHIK_clean_linker_0, # of connection points: 2
#     Edge 31, Type (0, 0), BuildingBlock: UVAHIK_clean_linker_0, # of connection points: 2
#     Edge 32, Type (0, 0), BuildingBlock: UVAHIK_clean_linker_0, # of connection points: 2
#     Edge 33, Type (0, 0), BuildingBlock: UVAHIK_clean_linker_0, # of connection points: 2
#     Edge 34, Type (0, 0), BuildingBlock: UVAHIK_clean_linker_0, # of connection points: 2
#     Edge 35, Type (0, 0), BuildingBlock: UVAHIK_clean_linker_0, # of connection points: 2
#     Edge 36, Type (0, 0), BuildingBlock: UVAHIK_clean_linker_0, # of connection points: 2
#     Edge 37, Type (0, 0), BuildingBlock: UVAHIK_clean_linker_0, # of connection points: 2
#     Edge 38, Type (0, 0), BuildingBlock: UVAHIK_clean_linker_0, # of connection points: 2
#     Edge 39, Type (0, 0), BuildingBlock: UVAHIK_clean_linker_0, # of connection points: 2
#     Edge 40, Type (0, 0), BuildingBlock: UVAHIK_clean_linker_0, # of connection points: 2
#     Edge 41, Type (0, 0), BuildingBlock: UVAHIK_clean_linker_0, # of connection points: 2
#     Edge 42, Type (0, 0), BuildingBlock: UVAHIK_clean_linker_0, # of connection points: 2
#     Edge 43, Type (0, 0), BuildingBlock: UVAHIK_clean_linker_0, # of connection points: 2
#     Edge 44, Type (0, 0), BuildingBlock: UVAHIK_clean_linker_0, # of connection points: 2
#     Edge 45, Type (0, 0), BuildingBlock: UVAHIK_clean_linker_0, # of connection points: 2
#     Edge 46, Type (0, 0), BuildingBlock: UVAHIK_clean_linker_0, # of connection points: 2
#     Edge 47, Type (0, 0), BuildingBlock: UVAHIK_clean_linker_0, # of connection points: 2
#     Edge 48, Type (0, 0), BuildingBlock: UVAHIK_clean_linker_0, # of connection points: 2
#     Edge 49, Type (0, 0), BuildingBlock: UVAHIK_clean_linker_0, # of connection points: 2
#     Edge 50, Type (0, 0), BuildingBlock: UVAHIK_clean_linker_0, # of connection points: 2
#     Edge 51, Type (0, 0), BuildingBlock: UVAHIK_clean_linker_0, # of connection points: 2
#     Edge 52, Type (0, 0), BuildingBlock: UVAHIK_clean_linker_0, # of connection points: 2
#     Edge 53, Type (0, 0), BuildingBlock: UVAHIK_clean_linker_0, # of connection points: 2
#     Edge 54, Type (0, 0), BuildingBlock: UVAHIK_clean_linker_0, # of connection points: 2
#     Edge 55, Type (0, 0), BuildingBlock: UVAHIK_clean_linker_0, # of connection points: 2
#     Edge 56, Type (0, 0), BuildingBlock: UVAHIK_clean_linker_0, # of connection points: 2
#     Edge 57, Type (0, 0), BuildingBlock: UVAHIK_clean_linker_0, # of connection points: 2
#     Edge 58, Type (0, 0), BuildingBlock: UVAHIK_clean_linker_0, # of connection points: 2
#     Edge 59, Type (0, 0), BuildingBlock: UVAHIK_clean_linker_0, # of connection points: 2
#     Edge 60, Type (0, 0), BuildingBlock: UVAHIK_clean_linker_0, # of connection points: 2
#     Edge 61, Type (0, 0), BuildingBlock: UVAHIK_clean_linker_0, # of connection points: 2
#     Edge 62, Type (0, 0), BuildingBlock: UVAHIK_clean_linker_0, # of connection points: 2
#     Edge 63, Type (0, 0), BuildingBlock: UVAHIK_clean_linker_0, # of connection points: 2
#     Edge 64, Type (0, 0), BuildingBlock: UVAHIK_clean_linker_0, # of connection points: 2
#     Edge 65, Type (0, 0), BuildingBlock: UVAHIK_clean_linker_0, # of connection points: 2
#     Edge 66, Type (0, 0), BuildingBlock: UVAHIK_clean_linker_0, # of connection points: 2
#     Edge 67, Type (0, 0), BuildingBlock: UVAHIK_clean_linker_0, # of connection points: 2
#     Edge 68, Type (0, 0), BuildingBlock: UVAHIK_clean_linker_0, # of connection points: 2
#     Edge 69, Type (0, 0), BuildingBlock: UVAHIK_clean_linker_0, # of connection points: 2
#     Edge 70, Type (0, 0), BuildingBlock: UVAHIK_clean_linker_0, # of connection points: 2
#     Edge 71, Type (0, 0), BuildingBlock: UVAHIK_clean_linker_0, # of connection points: 2
# Relax obj value: 0.072
# Max RMSD: 0.312
# Mean RMSD: 0.296
data_MOF--net-hbo--node1-KOZSID_clean_sbu_0--edge1-UVAHIK_clean_linker_0
_symmetry_space_group_name_H-M    P1
_symmetry_Int_Tables_number       1
_symmetry_cell_setting            triclinic
loop_
_symmetry_equiv_pos_as_xyz
'x, y, z'
_cell_length_a     85.090078
_cell_length_b     79.145816
_cell_length_c     79.168705
_cell_angle_alpha  90.106918
_cell_angle_beta   90.418042
_cell_angle_gamma 88.766573
loop_
_atom_site_label
_atom_site_type_symbol
_atom_site_fract_x
_atom_site_fract_y
_atom_site_fract_z
_atom_type_partial_charge
C0 C 0.1624 0.34818 0.30255 0.0
C1 C 0.1654 0.34577 0.31968 0.0
C2 C 0.16942 0.36107 0.32618 0.0
C3 C 0.16863 0.37196 0.31279 0.0
N4 N 0.16396 0.36472 0.29823 0.0
Co5 Co 0.1614 0.37648 0.2759 0.0
N6 N 0.16477 0.39917 0.28626 0.0
C7 C 0.17059 0.40208 0.30184 0.0
C8 C 0.17206 0.41889 0.30557 0.0
C9 C 0.1668 0.42723 0.29149 0.0
C10 C 0.16233 0.41497 0.27994 0.0
N11 N 0.15817 0.38851 0.25384 0.0
C12 C 0.15576 0.40526 0.25045 0.0
C13 C 0.15385 0.40799 0.23325 0.0
C14 C 0.15528 0.3925 0.22558 0.0
C15 C 0.15791 0.38119 0.23848 0.0
N16 N 0.15869 0.35368 0.26543 0.0
C17 C 0.15847 0.35045 0.24869 0.0
C18 C 0.15785 0.33357 0.24489 0.0
C19 C 0.15813 0.32551 0.26016 0.0
C20 C 0.15901 0.33797 0.27246 0.0
N21 N 0.13849 0.37866 0.27983 0.0
C22 C 0.10554 0.38223 0.2839 0.0
C23 C 0.11206 0.3756 0.26904 0.0
C24 C 0.12834 0.37395 0.26728 0.0
C25 C 0.11601 0.38678 0.2969 0.0
C26 C 0.1324 0.38495 0.29459 0.0
N27 N 0.18427 0.37387 0.27129 0.0
C28 C 0.20512 0.37834 0.25123 0.0
C29 C 0.21222 0.36269 0.25542 0.0
C30 C 0.20627 0.35417 0.26938 0.0
C31 C 0.19243 0.35989 0.27705 0.0
C32 C 0.19141 0.38388 0.25962 0.0
H33 H 0.18808 0.35218 0.28693 0.0
H34 H 0.18612 0.39577 0.25579 0.0
H35 H 0.13261 0.36892 0.25556 0.0
H36 H 0.14008 0.38877 0.30471 0.0
C37 C 0.17213 0.38903 0.31348 0.0
C38 C 0.1618 0.33409 0.29041 0.0
C39 C 0.15626 0.41896 0.26302 0.0
C40 C 0.15846 0.36361 0.23691 0.0
H41 H 0.16567 0.33407 0.32667 0.0
H42 H 0.17294 0.3638 0.33905 0.0
H43 H 0.1759 0.42444 0.31737 0.0
H44 H 0.16624 0.44082 0.28996 0.0
H45 H 0.15178 0.41994 0.22691 0.0
H46 H 0.15415 0.38978 0.21223 0.0
H47 H 0.15748 0.32778 0.2325 0.0
H48 H 0.15828 0.31196 0.26205 0.0
H49 H 0.10461 0.37151 0.25873 0.0
H50 H 0.11163 0.39202 0.30864 0.0
H51 H 0.20949 0.38585 0.24094 0.0
H52 H 0.21184 0.34262 0.27398 0.0
C53 C 0.15588 0.6675 0.73446 0.0
C54 C 0.15935 0.67043 0.71763 0.0
C55 C 0.15704 0.65549 0.70924 0.0
C56 C 0.1523 0.64436 0.72139 0.0
N57 N 0.15142 0.6514 0.73682 0.0
Co58 Co 0.14539 0.63992 0.75793 0.0
N59 N 0.15055 0.61731 0.74826 0.0
C60 C 0.15219 0.61384 0.73168 0.0
C61 C 0.15524 0.59706 0.72847 0.0
C62 C 0.15529 0.58941 0.74395 0.0
C63 C 0.15221 0.60199 0.75583 0.0
N64 N 0.13886 0.62827 0.77887 0.0
C65 C 0.14093 0.61189 0.78376 0.0
C66 C 0.13348 0.60908 0.799 0.0
C67 C 0.12629 0.62411 0.80358 0.0
C68 C 0.12973 0.6353 0.79095 0.0
N69 N 0.14068 0.66268 0.76735 0.0
C70 C 0.13166 0.66613 0.78081 0.0
C71 C 0.13151 0.68307 0.78485 0.0
C72 C 0.14108 0.69059 0.77319 0.0
C73 C 0.14656 0.6778 0.76268 0.0
N74 N 0.12342 0.63847 0.74959 0.0
C75 C 0.09031 0.63845 0.74499 0.0
C76 C 0.09909 0.65294 0.74169 0.0
C77 C 0.11553 0.65265 0.74391 0.0
C78 C 0.09882 0.62367 0.74944 0.0
C79 C 0.1152 0.62393 0.75164 0.0
N80 N 0.16697 0.64203 0.76695 0.0
C81 C 0.18267 0.65307 0.78978 0.0
C82 C 0.19566 0.65451 0.77924 0.0
C83 C 0.19444 0.64809 0.7627 0.0
C84 C 0.17995 0.64185 0.7568 0.0
C85 C 0.16862 0.64679 0.7835 0.0
H86 H 0.17901 0.63782 0.7438 0.0
H87 H 0.15878 0.64705 0.7919 0.0
H88 H 0.12176 0.66419 0.74183 0.0
H89 H 0.12107 0.61247 0.75578 0.0
C90 C 0.15228 0.62679 0.71968 0.0
C91 C 0.15673 0.68017 0.7479 0.0
C92 C 0.14872 0.59846 0.77365 0.0
C93 C 0.12647 0.65285 0.79103 0.0
H94 H 0.16341 0.68201 0.71207 0.0
H95 H 0.15952 0.65282 0.69611 0.0
H96 H 0.15728 0.59111 0.71634 0.0
H97 H 0.15683 0.57598 0.74612 0.0
H98 H 0.13306 0.59733 0.80594 0.0
H99 H 0.11963 0.62663 0.81493 0.0
H100 H 0.12584 0.68911 0.79554 0.0
H101 H 0.14382 0.70386 0.77258 0.0
H102 H 0.0933 0.66474 0.73816 0.0
H103 H 0.09286 0.61192 0.75158 0.0
H104 H 0.18313 0.65744 0.80275 0.0
H105 H 0.20427 0.64876 0.75414 0.0
C106 C 0.87297 0.67261 0.28853 0.0
C107 C 0.86894 0.67561 0.30524 0.0
C108 C 0.87105 0.66053 0.31357 0.0
C109 C 0.87621 0.64925 0.3015 0.0
N110 N 0.87756 0.65635 0.28619 0.0
Co111 Co 0.88423 0.64479 0.26514 0.0
N112 N 0.87896 0.62232 0.2744 0.0
C113 C 0.87673 0.61881 0.29086 0.0
C114 C 0.87372 0.60213 0.29377 0.0
C115 C 0.87434 0.59456 0.27823 0.0
C116 C 0.87776 0.6071 0.26661 0.0
N117 N 0.89142 0.63311 0.24424 0.0
C118 C 0.88971 0.61683 0.23913 0.0
C119 C 0.89754 0.61389 0.22406 0.0
C120 C 0.90463 0.62871 0.21983 0.0
C121 C 0.90075 0.63991 0.23248 0.0
N122 N 0.88908 0.6674 0.2561 0.0
C123 C 0.89843 0.67064 0.24296 0.0
C124 C 0.89857 0.6876 0.23912 0.0
C125 C 0.88863 0.69538 0.25056 0.0
C126 C 0.88297 0.68269 0.26072 0.0
N127 N 0.90588 0.64242 0.27422 0.0
C128 C 0.93852 0.6408 0.28112 0.0
C129 C 0.92958 0.65558 0.28437 0.0
C130 C 0.91334 0.65611 0.28088 0.0
C131 C 0.93046 0.62658 0.2754 0.0
C132 C 0.91426 0.6276 0.27216 0.0
N133 N 0.86287 0.64772 0.25556 0.0
C134 C 0.84705 0.65795 0.23213 0.0
C135 C 0.83375 0.65939 0.24233 0.0
C136 C 0.83513 0.65397 0.25919 0.0
C137 C 0.84973 0.64788 0.26547 0.0
C138 C 0.86137 0.65225 0.23893 0.0
H139 H 0.85055 0.64404 0.27853 0.0
H140 H 0.87142 0.65253 0.23081 0.0
H141 H 0.90695 0.66786 0.28289 0.0
H142 H 0.9087 0.61651 0.26729 0.0
C143 C 0.87621 0.63168 0.303 0.0
C144 C 0.87241 0.6853 0.27515 0.0
C145 C 0.88211 0.60351 0.24898 0.0
C146 C 0.90394 0.6573 0.2327 0.0
H147 H 0.86463 0.68734 0.31073 0.0
H148 H 0.86813 0.65788 0.32657 0.0
H149 H 0.87131 0.59617 0.30574 0.0
H150 H 0.87304 0.58119 0.27587 0.0
H151 H 0.89831 0.60216 0.21703 0.0
H152 H 0.91155 0.63109 0.2087 0.0
H153 H 0.90447 0.69352 0.22869 0.0
H154 H 0.88576 0.70875 0.25126 0.0
H155 H 0.93517 0.66691 0.28886 0.0
H156 H 0.93668 0.61472 0.27313 0.0
H157 H 0.84665 0.66209 0.21909 0.0
H158 H 0.82509 0.65467 0.26751 0.0
C159 C 0.87172 0.34874 0.73317 0.0
C160 C 0.86721 0.3468 0.71641 0.0
C161 C 0.86857 0.36233 0.70897 0.0
C162 C 0.87381 0.37281 0.72158 0.0
N163 N 0.87595 0.36479 0.73639 0.0
Co164 Co 0.88291 0.37505 0.75797 0.0
N165 N 0.87674 0.39813 0.75014 0.0
C166 C 0.87344 0.40255 0.73404 0.0
C167 C 0.8695 0.41933 0.73223 0.0
C168 C 0.87068 0.42603 0.74811 0.0
C169 C 0.87547 0.41292 0.75877 0.0
N170 N 0.89045 0.38545 0.77938 0.0
C171 C 0.88885 0.40156 0.78528 0.0
C172 C 0.89727 0.40352 0.80021 0.0
C173 C 0.90457 0.38825 0.80357 0.0
C174 C 0.90028 0.37778 0.79055 0.0
N175 N 0.88854 0.35183 0.7656 0.0
C176 C 0.89825 0.34768 0.77843 0.0
C177 C 0.89884 0.33053 0.78135 0.0
C178 C 0.88878 0.32359 0.76963 0.0
C179 C 0.88261 0.33693 0.76024 0.0
N180 N 0.9043 0.37762 0.74874 0.0
C181 C 0.93702 0.37881 0.74301 0.0
C182 C 0.92845 0.36439 0.7388 0.0
C183 C 0.91215 0.36407 0.7417 0.0
C184 C 0.92852 0.39302 0.74884 0.0
C185 C 0.91229 0.39222 0.75147 0.0
N186 N 0.86191 0.37183 0.76777 0.0
C187 C 0.84755 0.35947 0.79064 0.0
C188 C 0.83419 0.35774 0.78043 0.0
C189 C 0.83453 0.36483 0.76414 0.0
C190 C 0.84848 0.37196 0.7581 0.0
C191 C 0.86114 0.36639 0.78414 0.0
H192 H 0.84866 0.37661 0.7453 0.0
H193 H 0.87135 0.36615 0.79219 0.0
H194 H 0.90605 0.35253 0.73905 0.0
H195 H 0.90643 0.40324 0.75656 0.0
C196 C 0.87294 0.39043 0.72119 0.0
C197 C 0.87174 0.33529 0.74581 0.0
C198 C 0.88105 0.41571 0.77618 0.0
C199 C 0.90376 0.36034 0.78931 0.0
H200 H 0.86297 0.33551 0.71032 0.0
H201 H 0.86504 0.36581 0.69626 0.0
H202 H 0.86613 0.42592 0.72075 0.0
H203 H 0.86887 0.43922 0.75134 0.0
H204 H 0.89834 0.41494 0.80764 0.0
H205 H 0.91201 0.38513 0.81432 0.0
H206 H 0.90511 0.32393 0.79138 0.0
H207 H 0.88617 0.31034 0.76825 0.0
H208 H 0.93437 0.3531 0.73413 0.0
H209 H 0.93444 0.40465 0.7518 0.0
H210 H 0.84779 0.35488 0.80352 0.0
H211 H 0.82444 0.36407 0.75579 0.0
C212 C 0.22945 0.16627 0.34555 0.0
C213 C 0.21502 0.16856 0.33745 0.0
C214 C 0.20867 0.15292 0.33584 0.0
C215 C 0.21955 0.14199 0.34293 0.0
N216 N 0.23239 0.1497 0.34892 0.0
Co217 Co 0.25099 0.13834 0.35981 0.0
N218 N 0.24486 0.11567 0.35114 0.0
C219 C 0.23078 0.11192 0.34437 0.0
C220 C 0.22951 0.0953 0.33982 0.0
C221 C 0.24359 0.08791 0.34423 0.0
C222 C 0.2527 0.10049 0.35131 0.0
N223 N 0.2694 0.12679 0.37104 0.0
C224 C 0.27491 0.11051 0.37001 0.0
C225 C 0.28738 0.10775 0.38113 0.0
C226 C 0.2895 0.12261 0.38969 0.0
C227 C 0.27828 0.13364 0.38334 0.0
N228 N 0.25703 0.16109 0.36821 0.0
C229 C 0.26734 0.16407 0.38075 0.0
C230 C 0.26915 0.18101 0.38387 0.0
C231 C 0.25928 0.1892 0.37261 0.0
C232 C 0.252 0.17676 0.36321 0.0
N233 N 0.23882 0.13496 0.38063 0.0
C234 C 0.23001 0.13395 0.41485 0.0
C235 C 0.22656 0.14819 0.40482 0.0
C236 C 0.23091 0.14837 0.38778 0.0
C237 C 0.23637 0.11958 0.40678 0.0
C238 C 0.24051 0.12029 0.38968 0.0
N239 N 0.26363 0.14239 0.33947 0.0
C240 C 0.28728 0.15414 0.32813 0.0
C241 C 0.28076 0.1548 0.31186 0.0
C242 C 0.2656 0.14834 0.30959 0.0
C243 C 0.25731 0.14204 0.32352 0.0
C244 C 0.27863 0.14795 0.34159 0.0
H245 H 0.24559 0.13746 0.32147 0.0
H246 H 0.28394 0.14857 0.35391 0.0
H247 H 0.22883 0.15986 0.38075 0.0
H248 H 0.24611 0.10929 0.38423 0.0
C249 C 0.2194 0.12449 0.3414 0.0
C250 C 0.23955 0.18022 0.35059 0.0
C251 C 0.26767 0.09687 0.3601 0.0
C252 C 0.27654 0.1508 0.38755 0.0
H253 H 0.20964 0.18028 0.33307 0.0
H254 H 0.19778 0.14982 0.32952 0.0
H255 H 0.21954 0.08926 0.33401 0.0
H256 H 0.24653 0.0746 0.34295 0.0
H257 H 0.29395 0.09607 0.38318 0.0
H258 H 0.29821 0.12508 0.39936 0.0
H259 H 0.27702 0.18675 0.3929 0.0
H260 H 0.25754 0.20274 0.37151 0.0
H261 H 0.2211 0.15941 0.41023 0.0
H262 H 0.23912 0.10816 0.41381 0.0
H263 H 0.29879 0.15914 0.33074 0.0
H264 H 0.26009 0.14834 0.29722 0.0
C265 C 0.37152 0.79451 0.84537 0.0
C266 C 0.36803 0.8117 0.84384 0.0
C267 C 0.36409 0.81744 0.85952 0.0
C268 C 0.36542 0.80359 0.86977 0.0
N269 N 0.37039 0.78943 0.86175 0.0
Co270 Co 0.37394 0.76669 0.87246 0.0
N271 N 0.37038 0.77598 0.89564 0.0
C272 C 0.36399 0.79125 0.89936 0.0
C273 C 0.36248 0.7942 0.91633 0.0
C274 C 0.36833 0.77994 0.92394 0.0
C275 C 0.3732 0.76908 0.91109 0.0
N276 N 0.37818 0.74424 0.88347 0.0
C277 C 0.38092 0.74025 0.90001 0.0
C278 C 0.38361 0.72303 0.90198 0.0
C279 C 0.38236 0.71596 0.88621 0.0
C280 C 0.37905 0.72922 0.87551 0.0
N281 N 0.37679 0.75731 0.84916 0.0
C282 C 0.3777 0.74072 0.84523 0.0
C283 C 0.37806 0.73766 0.82817 0.0
C284 C 0.37684 0.75324 0.82078 0.0
C285 C 0.37572 0.76497 0.83377 0.0
N286 N 0.39677 0.77121 0.87427 0.0
C287 C 0.42965 0.77583 0.87774 0.0
C288 C 0.4236 0.76119 0.87039 0.0
C289 C 0.40736 0.75917 0.86879 0.0
C290 C 0.41873 0.78835 0.883 0.0
C291 C 0.40241 0.78578 0.88122 0.0
N292 N 0.35119 0.7614 0.8702 0.0
C293 C 0.33106 0.74061 0.87435 0.0
C294 C 0.32349 0.74539 0.85919 0.0
C295 C 0.32893 0.75984 0.85112 0.0
C296 C 0.3426 0.7676 0.85678 0.0
C297 C 0.34463 0.74901 0.8798 0.0
H298 H 0.34642 0.77804 0.8495 0.0
H299 H 0.35024 0.74471 0.8913 0.0
H300 H 0.40348 0.74763 0.8632 0.0
H301 H 0.39441 0.79552 0.88566 0.0
C302 C 0.36201 0.80344 0.8869 0.0
C303 C 0.372 0.78297 0.83076 0.0
C304 C 0.3801 0.75226 0.91422 0.0
C305 C 0.37839 0.7284 0.85788 0.0
H306 H 0.36736 0.81925 0.83251 0.0
H307 H 0.36022 0.8301 0.86293 0.0
H308 H 0.35825 0.80564 0.92247 0.0
H309 H 0.36906 0.77786 0.93743 0.0
H310 H 0.38609 0.71627 0.9136 0.0
H311 H 0.38405 0.70277 0.88291 0.0
H312 H 0.3788 0.72553 0.82186 0.0
H313 H 0.3762 0.75569 0.80734 0.0
H314 H 0.43138 0.75125 0.86576 0.0
H315 H 0.42272 0.7999 0.88882 0.0
H316 H 0.32709 0.7299 0.88152 0.0
H317 H 0.323 0.76485 0.84 0.0
C318 C 0.72964 0.85683 0.3405 0.0
C319 C 0.71441 0.85127 0.33822 0.0
C320 C 0.70763 0.85128 0.35386 0.0
C321 C 0.71902 0.85691 0.36473 0.0
N322 N 0.73249 0.86059 0.35689 0.0
Co323 Co 0.75182 0.86923 0.36774 0.0
N324 N 0.74522 0.86126 0.39041 0.0
C325 C 0.73073 0.85609 0.39445 0.0
C326 C 0.72952 0.85101 0.41092 0.0
C327 C 0.74405 0.85345 0.41786 0.0
C328 C 0.75332 0.86014 0.40523 0.0
N329 N 0.77096 0.87845 0.37879 0.0
C330 C 0.77645 0.8769 0.39493 0.0
C331 C 0.78946 0.8869 0.39747 0.0
C332 C 0.792 0.89519 0.38256 0.0
C333 C 0.78043 0.88988 0.37174 0.0
N334 N 0.7583 0.8766 0.34487 0.0
C335 C 0.76935 0.88795 0.34147 0.0
C336 C 0.77195 0.88954 0.32442 0.0
C337 C 0.76191 0.87846 0.31669 0.0
C338 C 0.75367 0.87076 0.32948 0.0
N339 N 0.74122 0.89139 0.37155 0.0
C340 C 0.73422 0.92626 0.37478 0.0
C341 C 0.73107 0.91761 0.35965 0.0
C342 C 0.73452 0.90018 0.35835 0.0
C343 C 0.73944 0.91663 0.38865 0.0
C344 C 0.74277 0.89935 0.38681 0.0
N345 N 0.76296 0.84757 0.36348 0.0
C346 C 0.78609 0.83362 0.35222 0.0
C347 C 0.77866 0.81803 0.35192 0.0
C348 C 0.76319 0.81746 0.35806 0.0
C349 C 0.75561 0.83235 0.36396 0.0
C350 C 0.77815 0.84804 0.35797 0.0
H351 H 0.74369 0.83164 0.36841 0.0
H352 H 0.78421 0.85975 0.35714 0.0
H353 H 0.73265 0.89406 0.34632 0.0
H354 H 0.74752 0.89277 0.3976 0.0
C355 C 0.71886 0.8551 0.38224 0.0
C356 C 0.74106 0.85848 0.3269 0.0
C357 C 0.76859 0.8679 0.40869 0.0
C358 C 0.77893 0.89407 0.35453 0.0
H359 H 0.70891 0.84729 0.32654 0.0
H360 H 0.69614 0.84667 0.35703 0.0
H361 H 0.71929 0.84614 0.41716 0.0
H362 H 0.74724 0.85132 0.43096 0.0
H363 H 0.79612 0.88844 0.40905 0.0
H364 H 0.80121 0.90402 0.37994 0.0
H365 H 0.7807 0.89713 0.31835 0.0
H366 H 0.76092 0.87622 0.30325 0.0
H367 H 0.72681 0.92437 0.3486 0.0
H368 H 0.74151 0.92251 0.40081 0.0
H369 H 0.79787 0.83492 0.34735 0.0
H370 H 0.75697 0.80568 0.35822 0.0
C371 C 0.66502 0.22933 0.84634 0.0
C372 C 0.66828 0.2125 0.84251 0.0
C373 C 0.66616 0.20357 0.85712 0.0
C374 C 0.66167 0.2154 0.86896 0.0
N375 N 0.66076 0.23116 0.86267 0.0
Co376 Co 0.65463 0.2519 0.87527 0.0
N377 N 0.65978 0.2411 0.89735 0.0
C378 C 0.6616 0.22434 0.89995 0.0
C379 C 0.66455 0.22028 0.91651 0.0
C380 C 0.66435 0.23537 0.92496 0.0
C381 C 0.66122 0.2479 0.91304 0.0
N382 N 0.64794 0.27247 0.88806 0.0
C383 C 0.64986 0.27654 0.90466 0.0
C384 C 0.64235 0.29185 0.90827 0.0
C385 C 0.63528 0.29732 0.89355 0.0
C386 C 0.63883 0.28512 0.88173 0.0
N387 N 0.6499 0.26244 0.85303 0.0
C388 C 0.64098 0.2764 0.85042 0.0
C389 C 0.64094 0.28135 0.83376 0.0
C390 C 0.65047 0.26976 0.8255 0.0
C391 C 0.65577 0.25831 0.83758 0.0
N392 N 0.63275 0.244 0.8766 0.0
C393 C 0.59973 0.23993 0.87648 0.0
C394 C 0.60881 0.23641 0.86205 0.0
C395 C 0.62517 0.23852 0.86236 0.0
C396 C 0.6079 0.24436 0.89129 0.0
C397 C 0.62428 0.24611 0.89113 0.0
N398 N 0.67617 0.26049 0.87328 0.0
C399 C 0.69169 0.28369 0.86365 0.0
C400 C 0.70446 0.27284 0.86021 0.0
C401 C 0.70331 0.25584 0.86518 0.0
C402 C 0.68909 0.24995 0.87186 0.0
C403 C 0.6778 0.27734 0.87 0.0
H404 H 0.68826 0.2367 0.87485 0.0
H405 H 0.66805 0.28609 0.87098 0.0
H406 H 0.63161 0.2364 0.85082 0.0
H407 H 0.62993 0.25006 0.90264 0.0
C408 C 0.66173 0.21294 0.88642 0.0
C409 C 0.66583 0.24323 0.83423 0.0
C410 C 0.65747 0.26558 0.91756 0.0
C411 C 0.63574 0.28612 0.86425 0.0
H412 H 0.67203 0.20729 0.83052 0.0
H413 H 0.66854 0.19023 0.8591 0.0
H414 H 0.66664 0.20783 0.92182 0.0
H415 H 0.66573 0.23687 0.93848 0.0
H416 H 0.64182 0.29825 0.92035 0.0
H417 H 0.62863 0.30897 0.89164 0.0
H418 H 0.6354 0.29257 0.82841 0.0
H419 H 0.65331 0.26989 0.81221 0.0
H420 H 0.60334 0.23236 0.85038 0.0
H421 H 0.60171 0.24728 0.90285 0.0
H422 H 0.69211 0.29704 0.86075 0.0
H423 H 0.71295 0.24696 0.86308 0.0
C424 C 0.29231 0.84949 0.67588 0.0
C425 C 0.3075 0.8428 0.67734 0.0
C426 C 0.31366 0.84255 0.66145 0.0
C427 C 0.30194 0.849 0.65121 0.0
N428 N 0.28875 0.8533 0.6596 0.0
Co429 Co 0.26899 0.86276 0.64942 0.0
N430 N 0.27522 0.85515 0.62631 0.0
C431 C 0.28984 0.85019 0.62173 0.0
C432 C 0.29117 0.84643 0.60492 0.0
C433 C 0.27654 0.84945 0.59829 0.0
C434 C 0.26699 0.85491 0.61151 0.0
N435 N 0.24939 0.87257 0.63901 0.0
C436 C 0.2434 0.87116 0.62304 0.0
C437 C 0.22987 0.8811 0.62119 0.0
C438 C 0.22759 0.88936 0.63626 0.0
C439 C 0.23976 0.88399 0.64654 0.0
N440 N 0.26299 0.87009 0.6726 0.0
C441 C 0.25185 0.88175 0.67638 0.0
C442 C 0.25022 0.8841 0.6935 0.0
C443 C 0.26106 0.87325 0.70091 0.0
C444 C 0.26871 0.86485 0.68787 0.0
N445 N 0.27913 0.88474 0.64587 0.0
C446 C 0.28531 0.91972 0.64471 0.0
C447 C 0.29003 0.90972 0.65862 0.0
C448 C 0.28689 0.89237 0.65893 0.0
C449 C 0.27884 0.91126 0.63075 0.0
C450 C 0.2761 0.89387 0.63149 0.0
N451 N 0.25826 0.84127 0.65366 0.0
C452 C 0.23574 0.82792 0.66586 0.0
C453 C 0.24337 0.81208 0.66579 0.0
C454 C 0.25861 0.81111 0.65893 0.0
C455 C 0.26578 0.82581 0.65278 0.0
C456 C 0.24328 0.84214 0.65982 0.0
H457 H 0.27755 0.82477 0.64783 0.0
H458 H 0.23707 0.85402 0.66099 0.0
H459 H 0.2899 0.88536 0.67021 0.0
H460 H 0.27052 0.88814 0.62075 0.0
C461 C 0.30181 0.84812 0.63367 0.0
C462 C 0.28197 0.85279 0.69029 0.0
C463 C 0.25102 0.86201 0.60889 0.0
C464 C 0.2417 0.88805 0.66371 0.0
H465 H 0.3135 0.83844 0.68867 0.0
H466 H 0.32503 0.83748 0.65771 0.0
H467 H 0.30155 0.84209 0.59824 0.0
H468 H 0.27354 0.84843 0.58504 0.0
H469 H 0.22264 0.88258 0.60997 0.0
H470 H 0.21811 0.89813 0.63937 0.0
H471 H 0.24178 0.89226 0.69987 0.0
H472 H 0.26314 0.87172 0.71433 0.0
H473 H 0.29569 0.9153 0.66951 0.0
H474 H 0.27501 0.91809 0.61958 0.0
H475 H 0.22416 0.8296 0.67126 0.0
H476 H 0.26499 0.79914 0.65841 0.0
C477 C 0.66539 0.79447 0.17026 0.0
C478 C 0.66869 0.81132 0.17321 0.0
C479 C 0.66657 0.81954 0.15809 0.0
C480 C 0.66204 0.80729 0.14686 0.0
N481 N 0.6611 0.79196 0.154 0.0
Co482 Co 0.65488 0.77085 0.14248 0.0
N483 N 0.65999 0.78017 0.11991 0.0
C484 C 0.66196 0.79665 0.1164 0.0
C485 C 0.66498 0.7996 0.09969 0.0
C486 C 0.66463 0.78407 0.0921 0.0
C487 C 0.66134 0.77243 0.10464 0.0
N488 N 0.64807 0.74994 0.13079 0.0
C489 C 0.6498 0.74492 0.11445 0.0
C490 C 0.64218 0.72984 0.11157 0.0
C491 C 0.63525 0.72549 0.12651 0.0
C492 C 0.63897 0.7381 0.1377 0.0
N493 N 0.65026 0.76174 0.1652 0.0
C494 C 0.64133 0.74837 0.16849 0.0
C495 C 0.64134 0.74435 0.18539 0.0
C496 C 0.65091 0.75591 0.19311 0.0
C497 C 0.65618 0.76644 0.18048 0.0
N498 N 0.63304 0.77976 0.14042 0.0
C499 C 0.60022 0.78627 0.13928 0.0
C500 C 0.60906 0.78924 0.15403 0.0
C501 C 0.62537 0.78604 0.1543 0.0
C502 C 0.60847 0.78097 0.12485 0.0
C503 C 0.62475 0.77787 0.12566 0.0
N504 N 0.67642 0.76138 0.14509 0.0
C505 C 0.69258 0.73776 0.15458 0.0
C506 C 0.7056 0.74806 0.15647 0.0
C507 C 0.70396 0.76509 0.15168 0.0
C508 C 0.68935 0.77142 0.14565 0.0
C509 C 0.67821 0.74462 0.14909 0.0
H510 H 0.68834 0.78459 0.14221 0.0
H511 H 0.66836 0.73638 0.14913 0.0
H512 H 0.63168 0.78802 0.16599 0.0
H513 H 0.63045 0.77317 0.11445 0.0
C514 C 0.66214 0.80878 0.12928 0.0
C515 C 0.66623 0.7812 0.18312 0.0
C516 C 0.6573 0.75479 0.10104 0.0
C517 C 0.63598 0.73818 0.15517 0.0
H518 H 0.67249 0.817 0.18496 0.0
H519 H 0.66899 0.83263 0.15542 0.0
H520 H 0.66719 0.81161 0.09373 0.0
H521 H 0.66602 0.78171 0.07872 0.0
H522 H 0.64148 0.72288 0.09982 0.0
H523 H 0.62854 0.71431 0.12898 0.0
H524 H 0.6358 0.73371 0.19129 0.0
H525 H 0.6538 0.75638 0.20643 0.0
H526 H 0.60339 0.79375 0.16543 0.0
H527 H 0.60233 0.77842 0.11313 0.0
H528 H 0.69323 0.72457 0.15823 0.0
H529 H 0.7138 0.77348 0.15278 0.0
C530 C 0.73013 0.17225 0.6748 0.0
C531 C 0.71483 0.17804 0.67746 0.0
C532 C 0.7074 0.17784 0.66205 0.0
C533 C 0.71852 0.17188 0.65093 0.0
N534 N 0.73244 0.16825 0.65837 0.0
Co535 Co 0.75147 0.15898 0.647 0.0
N536 N 0.74367 0.16661 0.62443 0.0
C537 C 0.72872 0.17134 0.62073 0.0
C538 C 0.72645 0.1756 0.60411 0.0
C539 C 0.74079 0.17314 0.59673 0.0
C540 C 0.75106 0.1674 0.60931 0.0
N541 N 0.77031 0.14925 0.63538 0.0
C542 C 0.77526 0.15089 0.61914 0.0
C543 C 0.78844 0.1407 0.61624 0.0
C544 C 0.79165 0.13221 0.63103 0.0
C545 C 0.78029 0.13763 0.64216 0.0
N546 N 0.75907 0.15176 0.66971 0.0
C547 C 0.77047 0.14015 0.67281 0.0
C548 C 0.77372 0.1385 0.68978 0.0
C549 C 0.76371 0.14979 0.69777 0.0
C550 C 0.75483 0.15768 0.68521 0.0
N551 N 0.74119 0.13697 0.644 0.0
C552 C 0.73429 0.10213 0.64274 0.0
C553 C 0.73079 0.11202 0.65708 0.0
C554 C 0.73432 0.12929 0.65746 0.0
C555 C 0.74001 0.11064 0.62854 0.0
C556 C 0.74311 0.12796 0.62935 0.0
N557 N 0.76238 0.18048 0.65063 0.0
C558 C 0.78573 0.19374 0.66134 0.0
C559 C 0.77793 0.20942 0.66253 0.0
C560 C 0.76217 0.21043 0.65699 0.0
C561 C 0.75467 0.19585 0.65087 0.0
C562 C 0.77785 0.17962 0.65547 0.0
H563 H 0.74251 0.19689 0.64695 0.0
H564 H 0.78424 0.1678 0.65582 0.0
H565 H 0.73225 0.13621 0.66902 0.0
H566 H 0.74803 0.13375 0.61835 0.0
C567 C 0.71742 0.17289 0.63338 0.0
C568 C 0.74199 0.17018 0.68818 0.0
C569 C 0.76691 0.16055 0.60574 0.0
C570 C 0.7796 0.13365 0.65946 0.0
H571 H 0.70962 0.18213 0.68925 0.0
H572 H 0.69559 0.18237 0.65918 0.0
H573 H 0.71567 0.17999 0.59807 0.0
H574 H 0.74321 0.17475 0.58344 0.0
H575 H 0.79484 0.13928 0.60455 0.0
H576 H 0.80123 0.12331 0.63342 0.0
H577 H 0.78281 0.13067 0.69562 0.0
H578 H 0.76312 0.15201 0.71124 0.0
H579 H 0.72577 0.10645 0.66822 0.0
H580 H 0.74293 0.10391 0.61704 0.0
H581 H 0.79775 0.19208 0.6657 0.0
H582 H 0.75565 0.22232 0.6575 0.0
C583 C 0.37365 0.2277 0.17271 0.0
C584 C 0.36852 0.2112 0.1736 0.0
C585 C 0.37015 0.20448 0.15771 0.0
C586 C 0.37619 0.2172 0.1481 0.0
N587 N 0.37854 0.23142 0.15699 0.0
Co588 Co 0.3868 0.25286 0.14819 0.0
N589 N 0.38114 0.24672 0.12462 0.0
C590 C 0.3776 0.2311 0.11914 0.0
C591 C 0.37421 0.2305 0.1022 0.0
C592 C 0.37598 0.24666 0.09656 0.0
C593 C 0.38051 0.25628 0.11042 0.0
N594 N 0.39553 0.27414 0.13929 0.0
C595 C 0.39447 0.2811 0.12362 0.0
C596 C 0.40348 0.29547 0.12268 0.0
C597 C 0.4106 0.29736 0.13817 0.0
C598 C 0.40559 0.28408 0.14774 0.0
N599 N 0.39198 0.25881 0.17191 0.0
C600 C 0.4022 0.27051 0.17697 0.0
C601 C 0.4025 0.27236 0.19426 0.0
C602 C 0.39175 0.26113 0.20033 0.0
C603 C 0.3855 0.25305 0.18637 0.0
N604 N 0.40783 0.24212 0.14552 0.0
C605 C 0.44028 0.23398 0.14447 0.0
C606 C 0.43122 0.23006 0.15865 0.0
C607 C 0.41504 0.23403 0.15885 0.0
C608 C 0.4324 0.24089 0.13039 0.0
C609 C 0.41629 0.24481 0.13116 0.0
N610 N 0.36617 0.26411 0.15131 0.0
C611 C 0.3518 0.28788 0.16305 0.0
C612 C 0.33755 0.27953 0.16132 0.0
C613 C 0.3379 0.26336 0.15387 0.0
C614 C 0.35233 0.25595 0.14878 0.0
C615 C 0.3658 0.28005 0.15803 0.0
H616 H 0.35235 0.24344 0.14332 0.0
H617 H 0.37645 0.28673 0.1604 0.0
H618 H 0.40852 0.23131 0.17013 0.0
H619 H 0.41095 0.2509 0.12036 0.0
C620 C 0.37614 0.2177 0.13047 0.0
C621 C 0.37394 0.23948 0.18695 0.0
C622 C 0.38648 0.27353 0.10895 0.0
C623 C 0.40856 0.28159 0.1651 0.0
H624 H 0.36382 0.20484 0.18448 0.0
H625 H 0.36639 0.19219 0.15347 0.0
H626 H 0.37076 0.21963 0.09484 0.0
H627 H 0.37471 0.25074 0.08357 0.0
H628 H 0.40503 0.30351 0.1118 0.0
H629 H 0.41834 0.30735 0.14204 0.0
H630 H 0.40908 0.28142 0.20155 0.0
H631 H 0.38877 0.25922 0.21344 0.0
H632 H 0.43664 0.22431 0.16971 0.0
H633 H 0.43877 0.24418 0.11911 0.0
H634 H 0.35231 0.3002 0.16899 0.0
H635 H 0.32718 0.25644 0.15212 0.0
C636 C 0.84543 0.65322 0.77258 0.0
C637 C 0.83304 0.65131 0.76128 0.0
C638 C 0.83943 0.6505 0.74548 0.0
C639 C 0.85532 0.65183 0.74796 0.0
N640 N 0.85947 0.653 0.76439 0.0
Co641 Co 0.88123 0.6569 0.77294 0.0
N642 N 0.89096 0.65205 0.75042 0.0
C643 C 0.88316 0.65103 0.73562 0.0
C644 C 0.89282 0.64723 0.72225 0.0
C645 C 0.90768 0.64585 0.72902 0.0
C646 C 0.90628 0.64897 0.74619 0.0
N647 N 0.90292 0.66138 0.78138 0.0
C648 C 0.91716 0.65808 0.77433 0.0
C649 C 0.92927 0.66403 0.78444 0.0
C650 C 0.92242 0.67108 0.79839 0.0
C651 C 0.90659 0.66915 0.79598 0.0
N652 N 0.87187 0.66123 0.79576 0.0
C653 C 0.87945 0.66786 0.80915 0.0
C654 C 0.87033 0.66962 0.82321 0.0
C655 C 0.85588 0.66415 0.8184 0.0
C656 C 0.85697 0.65936 0.80151 0.0
N657 N 0.88377 0.63264 0.77852 0.0
C658 C 0.88711 0.59768 0.78498 0.0
C659 C 0.89121 0.60963 0.79731 0.0
C660 C 0.88962 0.62707 0.79375 0.0
C661 C 0.88121 0.60362 0.76955 0.0
C662 C 0.87947 0.62095 0.76668 0.0
N663 N 0.87813 0.68106 0.76661 0.0
C664 C 0.85932 0.70424 0.76393 0.0
C665 C 0.8663 0.70974 0.74897 0.0
C666 C 0.88073 0.70195 0.74455 0.0
C667 C 0.88664 0.68801 0.75384 0.0
C668 C 0.86524 0.68995 0.77235 0.0
H669 H 0.89757 0.68221 0.74982 0.0
H670 H 0.85857 0.68572 0.78286 0.0
H671 H 0.89316 0.636 0.80328 0.0
H672 H 0.87464 0.62478 0.75471 0.0
C673 C 0.86672 0.65141 0.73527 0.0
C674 C 0.84307 0.65688 0.79067 0.0
C675 C 0.91977 0.64994 0.75791 0.0
C676 C 0.89524 0.67189 0.80825 0.0
H677 H 0.82063 0.65111 0.76415 0.0
H678 H 0.83319 0.64927 0.73359 0.0
H679 H 0.88942 0.64517 0.70922 0.0
H680 H 0.91832 0.64295 0.72209 0.0
H681 H 0.94177 0.66331 0.78206 0.0
H682 H 0.92832 0.67635 0.80929 0.0
H683 H 0.87368 0.67462 0.83542 0.0
H684 H 0.84559 0.6647 0.8263 0.0
H685 H 0.89587 0.60555 0.80943 0.0
H686 H 0.87777 0.59486 0.75973 0.0
H687 H 0.84883 0.71039 0.76886 0.0
H688 H 0.88708 0.70585 0.7335 0.0
C689 C 0.88024 0.34356 0.27198 0.0
C690 C 0.88088 0.3298 0.26111 0.0
C691 C 0.88163 0.33615 0.24509 0.0
C692 C 0.88145 0.35338 0.24705 0.0
N693 N 0.88105 0.35839 0.26335 0.0
Co694 Co 0.87877 0.38234 0.27127 0.0
N695 N 0.88295 0.39166 0.24826 0.0
C696 C 0.88319 0.38278 0.23374 0.0
C697 C 0.88625 0.3925 0.21985 0.0
C698 C 0.88794 0.40858 0.22594 0.0
C699 C 0.88582 0.40775 0.24327 0.0
N700 N 0.87589 0.40619 0.27913 0.0
C701 C 0.87905 0.421 0.27137 0.0
C702 C 0.87506 0.43476 0.28152 0.0
C703 C 0.86916 0.42839 0.29611 0.0
C704 C 0.86989 0.4112 0.29408 0.0
N705 N 0.87511 0.37322 0.29449 0.0
C706 C 0.87024 0.38225 0.308 0.0
C707 C 0.86898 0.37291 0.32242 0.0
C708 C 0.87294 0.35679 0.31777 0.0
C709 C 0.87635 0.35718 0.30062 0.0
N710 N 0.90158 0.38308 0.27618 0.0
C711 C 0.93444 0.38511 0.28128 0.0
C712 C 0.9238 0.39137 0.29341 0.0
C713 C 0.90745 0.3903 0.29058 0.0
C714 C 0.92817 0.37749 0.26683 0.0
C715 C 0.91191 0.37658 0.26456 0.0
N716 N 0.85604 0.38126 0.26566 0.0
C717 C 0.83353 0.36329 0.26349 0.0
C718 C 0.82795 0.37209 0.24927 0.0
C719 C 0.83573 0.38685 0.24474 0.0
C720 C 0.84949 0.39145 0.25338 0.0
C721 C 0.84741 0.36813 0.27151 0.0
H722 H 0.85528 0.4027 0.24936 0.0
H723 H 0.85153 0.36042 0.28173 0.0
H724 H 0.89963 0.3955 0.29997 0.0
H725 H 0.90779 0.37072 0.25318 0.0
C726 C 0.88208 0.36519 0.23397 0.0
C727 C 0.8771 0.34185 0.29013 0.0
C728 C 0.88525 0.4227 0.25428 0.0
C729 C 0.86745 0.39957 0.30685 0.0
H730 H 0.88028 0.31657 0.26443 0.0
H731 H 0.88201 0.32906 0.2334 0.0
H732 H 0.88738 0.38835 0.20687 0.0
H733 H 0.89023 0.4197 0.21849 0.0
H734 H 0.87635 0.44804 0.27874 0.0
H735 H 0.86541 0.43544 0.30715 0.0
H736 H 0.86534 0.37724 0.3348 0.0
H737 H 0.87246 0.3459 0.32594 0.0
H738 H 0.92803 0.3974 0.3048 0.0
H739 H 0.93579 0.37213 0.25722 0.0
H740 H 0.82785 0.35198 0.26779 0.0
H741 H 0.83151 0.39452 0.23426 0.0
C742 C 0.16275 0.33615 0.75902 0.0
C743 C 0.16265 0.32313 0.77071 0.0
C744 C 0.16254 0.33051 0.78636 0.0
C745 C 0.16257 0.34758 0.78339 0.0
N746 N 0.16233 0.35152 0.76682 0.0
Co747 Co 0.16435 0.37481 0.75744 0.0
N748 N 0.1606 0.38578 0.7799 0.0
C749 C 0.1609 0.37788 0.79494 0.0
C750 C 0.15801 0.3886 0.80828 0.0
C751 C 0.15585 0.4043 0.80123 0.0
C752 C 0.15754 0.40228 0.78394 0.0
N753 N 0.16691 0.39801 0.74811 0.0
C754 C 0.16364 0.41342 0.75496 0.0
C755 C 0.16737 0.42634 0.74392 0.0
C756 C 0.17323 0.4188 0.72971 0.0
C757 C 0.17273 0.4018 0.73281 0.0
N758 N 0.16758 0.36411 0.73474 0.0
C759 C 0.17242 0.37199 0.72068 0.0
C760 C 0.17339 0.36167 0.70681 0.0
C761 C 0.16923 0.34612 0.71244 0.0
C762 C 0.16603 0.34783 0.72956 0.0
N763 N 0.14143 0.37614 0.75301 0.0
C764 C 0.10845 0.37812 0.74808 0.0
C765 C 0.11882 0.38304 0.73532 0.0
C766 C 0.13522 0.38208 0.73808 0.0
C767 C 0.11506 0.372 0.76318 0.0
C768 C 0.13138 0.37104 0.76533 0.0
N769 N 0.18724 0.37303 0.76258 0.0
C770 C 0.21024 0.35462 0.7644 0.0
C771 C 0.21628 0.36376 0.77811 0.0
C772 C 0.20828 0.37893 0.78237 0.0
C773 C 0.19408 0.38352 0.77416 0.0
C774 C 0.19582 0.35932 0.75702 0.0
H775 H 0.18824 0.3951 0.778 0.0
H776 H 0.1914 0.35115 0.74743 0.0
H777 H 0.14284 0.38622 0.72816 0.0
H778 H 0.13579 0.36617 0.77713 0.0
C779 C 0.16223 0.36025 0.79575 0.0
C780 C 0.16481 0.33323 0.74081 0.0
C781 C 0.15753 0.41646 0.77197 0.0
C782 C 0.17516 0.38924 0.72075 0.0
H783 H 0.1631 0.30968 0.76816 0.0
H784 H 0.1626 0.32417 0.79846 0.0
H785 H 0.15727 0.38535 0.82152 0.0
H786 H 0.15353 0.41596 0.80803 0.0
H787 H 0.16591 0.43981 0.74586 0.0
H788 H 0.17679 0.42498 0.71821 0.0
H789 H 0.17686 0.36501 0.69414 0.0
H790 H 0.16936 0.33462 0.70501 0.0
H791 H 0.1143 0.38792 0.72343 0.0
H792 H 0.10765 0.36776 0.77333 0.0
H793 H 0.21625 0.34344 0.75961 0.0
H794 H 0.21242 0.3869 0.7925 0.0
C795 C 0.16243 0.6819 0.27065 0.0
C796 C 0.16155 0.69452 0.25853 0.0
C797 C 0.16114 0.68663 0.24314 0.0
C798 C 0.16174 0.66966 0.24668 0.0
N799 N 0.16211 0.66628 0.26337 0.0
Co800 Co 0.165 0.64325 0.27344 0.0
N801 N 0.16095 0.6316 0.25142 0.0
C802 C 0.16066 0.639 0.23613 0.0
C803 C 0.15752 0.62792 0.22322 0.0
C804 C 0.15581 0.61252 0.23083 0.0
C805 C 0.15804 0.61505 0.248 0.0
N806 N 0.16842 0.62032 0.28345 0.0
C807 C 0.16524 0.60476 0.27719 0.0
C808 C 0.16999 0.59212 0.28838 0.0
C809 C 0.17623 0.59999 0.30216 0.0
C810 C 0.17502 0.61691 0.29861 0.0
N811 N 0.16865 0.65463 0.29572 0.0
C812 C 0.17418 0.64707 0.30987 0.0
C813 C 0.17547 0.65778 0.32338 0.0
C814 C 0.17083 0.67325 0.31739 0.0
C815 C 0.167 0.67113 0.30042 0.0
N816 N 0.14227 0.64242 0.27825 0.0
C817 C 0.10951 0.64034 0.28328 0.0
C818 C 0.12026 0.63583 0.29616 0.0
C819 C 0.13658 0.63684 0.29335 0.0
C820 C 0.11559 0.64624 0.26807 0.0
C821 C 0.1318 0.64727 0.26587 0.0
N822 N 0.18764 0.64446 0.26786 0.0
C823 C 0.2095 0.66295 0.26368 0.0
C824 C 0.21536 0.65267 0.25067 0.0
C825 C 0.20803 0.63718 0.24782 0.0
C826 C 0.19444 0.63313 0.25685 0.0
C827 C 0.19581 0.65859 0.27211 0.0
H828 H 0.18892 0.62131 0.25407 0.0
H829 H 0.19139 0.66744 0.2812 0.0
H830 H 0.14456 0.63295 0.30331 0.0
H831 H 0.13579 0.65186 0.25394 0.0
C832 C 0.16145 0.65658 0.23474 0.0
C833 C 0.16525 0.68542 0.28868 0.0
C834 C 0.15837 0.60133 0.26054 0.0
C835 C 0.17748 0.62979 0.31022 0.0
H836 H 0.16175 0.70804 0.26061 0.0
H837 H 0.16066 0.69256 0.23083 0.0
H838 H 0.15622 0.63077 0.20991 0.0
H839 H 0.15333 0.60075 0.22447 0.0
H840 H 0.16901 0.57859 0.28681 0.0
H841 H 0.18054 0.5941 0.31367 0.0
H842 H 0.17956 0.65475 0.33602 0.0
H843 H 0.17112 0.6849 0.32452 0.0
H844 H 0.11614 0.63117 0.30815 0.0
H845 H 0.10782 0.65017 0.25784 0.0
H846 H 0.21479 0.67494 0.2666 0.0
H847 H 0.21246 0.62847 0.23832 0.0
C848 C 0.76665 0.83994 0.6471 0.0
C849 C 0.75676 0.82629 0.64567 0.0
C850 C 0.74172 0.83274 0.64523 0.0
C851 C 0.74323 0.84993 0.6463 0.0
N852 N 0.75831 0.85483 0.64699 0.0
Co853 Co 0.76527 0.87856 0.65031 0.0
N854 N 0.74368 0.88828 0.64597 0.0
C855 C 0.7303 0.87951 0.6455 0.0
C856 C 0.71717 0.88947 0.64249 0.0
C857 C 0.72256 0.90561 0.64109 0.0
C858 C 0.73873 0.90458 0.64332 0.0
N859 N 0.77221 0.90224 0.65411 0.0
C860 C 0.7648 0.91727 0.65091 0.0
C861 C 0.7742 0.93076 0.65534 0.0
C862 C 0.78785 0.924 0.66174 0.0
C863 C 0.7861 0.90686 0.66076 0.0
N864 N 0.78707 0.86915 0.6542 0.0
C865 C 0.79941 0.87782 0.66013 0.0
C866 C 0.813 0.86839 0.66149 0.0
C867 C 0.80904 0.85256 0.65647 0.0
C868 C 0.7931 0.8532 0.65232 0.0
N869 N 0.76966 0.88038 0.62586 0.0
C870 C 0.77483 0.88215 0.59067 0.0
C871 C 0.78634 0.88733 0.60229 0.0
C872 C 0.78346 0.88653 0.6198 0.0
C873 C 0.76081 0.876 0.59711 0.0
C874 C 0.75855 0.87508 0.61454 0.0
N875 N 0.76024 0.87611 0.67466 0.0
C876 C 0.75893 0.85679 0.6982 0.0
C877 C 0.74514 0.86472 0.70417 0.0
C878 C 0.74048 0.87997 0.69625 0.0
C879 C 0.74846 0.88566 0.6819 0.0
C880 C 0.76612 0.86251 0.68352 0.0
H881 H 0.74431 0.89722 0.67606 0.0
H882 H 0.77586 0.85508 0.67899 0.0
H883 H 0.79239 0.89088 0.62839 0.0
H884 H 0.74769 0.86998 0.61875 0.0
C885 C 0.73083 0.86185 0.64608 0.0
C886 C 0.78367 0.83797 0.65027 0.0
C887 C 0.74873 0.91947 0.6444 0.0
C888 C 0.79809 0.89501 0.66345 0.0
H889 H 0.76009 0.81301 0.64556 0.0
H890 H 0.73097 0.82572 0.6444 0.0
H891 H 0.70515 0.88546 0.64116 0.0
H892 H 0.71542 0.91689 0.63896 0.0
H893 H 0.77154 0.94412 0.65402 0.0
H894 H 0.7981 0.93077 0.66593 0.0
H895 H 0.82441 0.87248 0.66581 0.0
H896 H 0.81695 0.84172 0.65677 0.0
H897 H 0.79737 0.89223 0.59788 0.0
H898 H 0.75165 0.87164 0.5887 0.0
H899 H 0.76393 0.8457 0.70434 0.0
H900 H 0.73024 0.88712 0.70042 0.0
C901 C 0.66418 0.25277 0.1812 0.0
C902 C 0.66338 0.26497 0.19379 0.0
C903 C 0.66272 0.28031 0.18585 0.0
C904 C 0.66312 0.27665 0.16892 0.0
N905 N 0.6636 0.25993 0.16556 0.0
Co906 Co 0.66639 0.24966 0.14263 0.0
N907 N 0.66218 0.2717 0.13084 0.0
C908 C 0.66157 0.28702 0.13826 0.0
C909 C 0.65857 0.29996 0.12708 0.0
C910 C 0.6573 0.29237 0.11157 0.0
C911 C 0.65961 0.27517 0.11416 0.0
N912 N 0.66985 0.23949 0.11978 0.0
C913 C 0.66705 0.24585 0.10409 0.0
C914 C 0.67141 0.23431 0.09164 0.0
C915 C 0.67719 0.22029 0.09975 0.0
C916 C 0.67603 0.22399 0.11662 0.0
N917 N 0.66992 0.22734 0.15417 0.0
C918 C 0.67507 0.21292 0.14677 0.0
C919 C 0.67622 0.19946 0.15758 0.0
C920 C 0.67186 0.20575 0.17294 0.0
C921 C 0.66832 0.22282 0.17064 0.0
N922 N 0.64366 0.24508 0.14124 0.0
C923 C 0.61101 0.23913 0.14115 0.0
C924 C 0.62179 0.22693 0.135 0.0
C925 C 0.63804 0.23011 0.13524 0.0
C926 C 0.617 0.25445 0.14691 0.0
C927 C 0.63316 0.25717 0.14677 0.0
N928 N 0.68907 0.25494 0.14461 0.0
C929 C 0.7106 0.25806 0.1643 0.0
C930 C 0.71577 0.27235 0.15577 0.0
C931 C 0.70876 0.27607 0.14005 0.0
C932 C 0.69564 0.26693 0.13453 0.0
C933 C 0.6974 0.24957 0.15853 0.0
H934 H 0.69023 0.2705 0.12268 0.0
H935 H 0.69348 0.23949 0.16628 0.0
H936 H 0.646 0.22039 0.13072 0.0
H937 H 0.63707 0.26917 0.15129 0.0
C938 C 0.66249 0.28851 0.15583 0.0
C939 C 0.66696 0.23473 0.18482 0.0
C940 C 0.66072 0.26279 0.10032 0.0
C941 C 0.67825 0.21235 0.12958 0.0
H942 H 0.66373 0.26296 0.20731 0.0
H943 H 0.66219 0.29266 0.19174 0.0
H944 H 0.65726 0.3133 0.12989 0.0
H945 H 0.65521 0.29875 0.09966 0.0
H946 H 0.67039 0.2358 0.07809 0.0
H947 H 0.68115 0.20852 0.09404 0.0
H948 H 0.68005 0.18665 0.1547 0.0
H949 H 0.67213 0.19875 0.18466 0.0
H950 H 0.61776 0.21487 0.1304 0.0
H951 H 0.60921 0.26445 0.15143 0.0
H952 H 0.71619 0.25396 0.17597 0.0
H953 H 0.71266 0.2866 0.13257 0.0
C954 C 0.24924 0.18208 0.65526 0.0
C955 C 0.25943 0.1955 0.65429 0.0
C956 C 0.27424 0.18866 0.65267 0.0
C957 C 0.27233 0.17151 0.65278 0.0
N958 N 0.25719 0.16697 0.65395 0.0
Co959 Co 0.24996 0.14321 0.65705 0.0
N960 N 0.27108 0.13316 0.65133 0.0
C961 C 0.28454 0.14171 0.65016 0.0
C962 C 0.29731 0.13157 0.64629 0.0
C963 C 0.2916 0.11556 0.64506 0.0
C964 C 0.27562 0.11683 0.64826 0.0
N965 N 0.2428 0.11961 0.66078 0.0
C966 C 0.24985 0.10448 0.65721 0.0
C967 C 0.24041 0.09114 0.66175 0.0
C968 C 0.22709 0.09808 0.66857 0.0
C969 C 0.22906 0.11519 0.66774 0.0
N970 N 0.22862 0.15304 0.66219 0.0
C971 C 0.21616 0.14449 0.66776 0.0
C972 C 0.20272 0.15422 0.66919 0.0
C973 C 0.20696 0.17008 0.6646 0.0
C974 C 0.22288 0.16915 0.66085 0.0
N975 N 0.24413 0.14189 0.63289 0.0
C976 C 0.23707 0.14024 0.59802 0.0
C977 C 0.22692 0.13343 0.61004 0.0
C978 C 0.23062 0.13448 0.62739 0.0
C979 C 0.25082 0.14771 0.60392 0.0
C980 C 0.25411 0.14835 0.6212 0.0
N981 N 0.25648 0.14493 0.68103 0.0
C982 C 0.26141 0.16469 0.70353 0.0
C983 C 0.27507 0.1557 0.70826 0.0
C984 C 0.27777 0.13978 0.70085 0.0
C985 C 0.26811 0.13449 0.68744 0.0
C986 C 0.25222 0.159 0.6901 0.0
H987 H 0.27096 0.1226 0.68141 0.0
H988 H 0.24253 0.16691 0.68629 0.0
H989 H 0.22253 0.12926 0.63626 0.0
H990 H 0.26492 0.15403 0.62498 0.0
C991 C 0.2844 0.15932 0.65139 0.0
C992 C 0.2325 0.18426 0.65953 0.0
C993 C 0.26557 0.10206 0.65004 0.0
C994 C 0.21728 0.12722 0.67072 0.0
H995 H 0.25658 0.20884 0.6553 0.0
H996 H 0.28514 0.19541 0.65183 0.0
H997 H 0.30931 0.13539 0.64441 0.0
H998 H 0.29846 0.10418 0.64248 0.0
H999 H 0.24279 0.07775 0.66015 0.0
H1000 H 0.21688 0.09145 0.6729 0.0
H1001 H 0.19124 0.15028 0.67323 0.0
H1002 H 0.19943 0.18127 0.66489 0.0
H1003 H 0.21611 0.12756 0.60611 0.0
H1004 H 0.25923 0.15285 0.59521 0.0
H1005 H 0.25832 0.17663 0.70948 0.0
H1006 H 0.28789 0.13205 0.70446 0.0
C1007 C 0.3759 0.77005 0.17579 0.0
C1008 C 0.37723 0.75875 0.18913 0.0
C1009 C 0.37833 0.74292 0.1822 0.0
C1010 C 0.37771 0.74541 0.16506 0.0
N1011 N 0.37673 0.76186 0.16065 0.0
Co1012 Co 0.37378 0.77045 0.13707 0.0
N1013 N 0.37847 0.74776 0.12677 0.0
C1014 C 0.37938 0.73299 0.13514 0.0
C1015 C 0.38288 0.71944 0.12487 0.0
C1016 C 0.3842 0.72605 0.10896 0.0
C1017 C 0.38136 0.74331 0.1104 0.0
N1018 N 0.37019 0.77894 0.11357 0.0
C1019 C 0.37327 0.77165 0.09838 0.0
C1020 C 0.36824 0.78198 0.08514 0.0
C1021 C 0.36196 0.7963 0.09223 0.0
C1022 C 0.36341 0.79389 0.10931 0.0
N1023 N 0.36972 0.79343 0.14706 0.0
C1024 C 0.36426 0.80713 0.1386 0.0
C1025 C 0.36263 0.82129 0.1484 0.0
C1026 C 0.36694 0.81624 0.16425 0.0
C1027 C 0.37095 0.79912 0.16326 0.0
N1028 N 0.39645 0.77544 0.13573 0.0
C1029 C 0.42908 0.7817 0.13543 0.0
C1030 C 0.41812 0.79341 0.12855 0.0
C1031 C 0.40188 0.79008 0.12889 0.0
C1032 C 0.42325 0.76671 0.14204 0.0
C1033 C 0.40712 0.76385 0.14203 0.0
N1034 N 0.35122 0.76473 0.13905 0.0
C1035 C 0.32977 0.76223 0.15863 0.0
C1036 C 0.32501 0.74721 0.15097 0.0
C1037 C 0.33214 0.74269 0.13561 0.0
C1038 C 0.34497 0.75188 0.12967 0.0
C1039 C 0.34272 0.77076 0.15249 0.0
H1040 H 0.35049 0.7477 0.11814 0.0
H1041 H 0.34631 0.7815 0.15961 0.0
H1042 H 0.39377 0.79939 0.12374 0.0
H1043 H 0.40338 0.75212 0.14723 0.0
C1044 C 0.37856 0.73269 0.15277 0.0
C1045 C 0.37221 0.78815 0.17824 0.0
C1046 C 0.38044 0.75486 0.09585 0.0
C1047 C 0.36095 0.80636 0.12141 0.0
H1048 H 0.37685 0.76164 0.20249 0.0
H1049 H 0.37925 0.73101 0.18887 0.0
H1050 H 0.38463 0.70637 0.12855 0.0
H1051 H 0.3868 0.71897 0.09757 0.0
H1052 H 0.36908 0.77951 0.07173 0.0
H1053 H 0.35746 0.80741 0.08571 0.0
H1054 H 0.35842 0.83372 0.14458 0.0
H1055 H 0.36621 0.82419 0.17532 0.0
H1056 H 0.42202 0.8052 0.12326 0.0
H1057 H 0.43113 0.75705 0.14713 0.0
H1058 H 0.32406 0.76695 0.16993 0.0
H1059 H 0.32856 0.73154 0.12877 0.0
C1060 C 0.75511 0.16364 0.34247 0.0
C1061 C 0.76618 0.16175 0.32978 0.0
C1062 C 0.78061 0.16093 0.33754 0.0
C1063 C 0.77761 0.16237 0.35449 0.0
N1064 N 0.76215 0.16368 0.35801 0.0
Co1065 Co 0.75323 0.16797 0.38099 0.0
N1066 N 0.77372 0.16277 0.39265 0.0
C1067 C 0.78783 0.16166 0.38511 0.0
C1068 C 0.79993 0.15815 0.39622 0.0
C1069 C 0.79305 0.15711 0.41179 0.0
C1070 C 0.77708 0.16007 0.40931 0.0
N1071 N 0.74433 0.17261 0.40387 0.0
C1072 C 0.75023 0.16921 0.41952 0.0
C1073 C 0.74005 0.17493 0.43203 0.0
C1074 C 0.72734 0.1821 0.42399 0.0
C1075 C 0.73044 0.18041 0.4071 0.0
N1076 N 0.73256 0.17297 0.36963 0.0
C1077 C 0.71968 0.17977 0.37702 0.0
C1078 C 0.70693 0.18123 0.3664 0.0
C1079 C 0.71212 0.17533 0.35118 0.0
C1080 C 0.72786 0.17076 0.35334 0.0
N1081 N 0.74781 0.1439 0.38274 0.0
C1082 C 0.74109 0.10914 0.38419 0.0
C1083 C 0.72965 0.12149 0.38841 0.0
C1084 C 0.73329 0.13878 0.38776 0.0
C1085 C 0.75585 0.11466 0.37919 0.0
C1086 C 0.75891 0.1319 0.37848 0.0
N1087 N 0.75933 0.19187 0.37877 0.0
C1088 C 0.76462 0.21443 0.35927 0.0
C1089 C 0.77618 0.2209 0.37004 0.0
C1090 C 0.77789 0.21348 0.3861 0.0
C1091 C 0.76918 0.19917 0.39031 0.0
C1092 C 0.75631 0.20018 0.36393 0.0
H1093 H 0.77117 0.19347 0.40251 0.0
H1094 H 0.74831 0.19526 0.3548 0.0
H1095 H 0.72436 0.14796 0.39128 0.0
H1096 H 0.77036 0.13542 0.37435 0.0
C1097 C 0.78889 0.16194 0.36748 0.0
C1098 C 0.73839 0.16757 0.33902 0.0
C1099 C 0.76567 0.16143 0.42317 0.0
C1100 C 0.71962 0.18352 0.39418 0.0
H1101 H 0.76406 0.16161 0.31629 0.0
H1102 H 0.79195 0.15965 0.33151 0.0
H1103 H 0.81225 0.15619 0.39332 0.0
H1104 H 0.79909 0.15465 0.42364 0.0
H1105 H 0.74162 0.174 0.44558 0.0
H1106 H 0.71681 0.18733 0.42977 0.0
H1107 H 0.69527 0.18605 0.36937 0.0
H1108 H 0.70531 0.17519 0.33958 0.0
H1109 H 0.71807 0.11783 0.39243 0.0
H1110 H 0.76501 0.10569 0.37555 0.0
H1111 H 0.76264 0.21958 0.34676 0.0
H1112 H 0.78623 0.21834 0.39519 0.0
C1113 C 0.35444 0.27553 0.87331 0.0
C1114 C 0.34255 0.26398 0.87522 0.0
C1115 C 0.34956 0.24827 0.87523 0.0
C1116 C 0.36532 0.25107 0.87347 0.0
N1117 N 0.36881 0.2676 0.87278 0.0
Co1118 Co 0.3902 0.27669 0.86867 0.0
N1119 N 0.40081 0.25407 0.87214 0.0
C1120 C 0.39356 0.23913 0.87265 0.0
C1121 C 0.40375 0.22563 0.87498 0.0
C1122 C 0.4184 0.23244 0.87587 0.0
C1123 C 0.41632 0.24978 0.87406 0.0
N1124 N 0.41153 0.28571 0.86414 0.0
C1125 C 0.42608 0.27869 0.86659 0.0
C1126 C 0.43776 0.28983 0.86214 0.0
C1127 C 0.43032 0.30417 0.85644 0.0
C1128 C 0.41461 0.30109 0.85786 0.0
N1129 N 0.37982 0.29951 0.86562 0.0
C1130 C 0.38682 0.31344 0.85979 0.0
C1131 C 0.37709 0.32739 0.85898 0.0
C1132 C 0.36285 0.32197 0.86423 0.0
C1133 C 0.36466 0.30485 0.86797 0.0
N1134 N 0.3927 0.28129 0.89307 0.0
C1135 C 0.39554 0.28671 0.92814 0.0
C1136 C 0.39889 0.29959 0.91664 0.0
C1137 C 0.39759 0.29655 0.89913 0.0
C1138 C 0.39072 0.27121 0.92173 0.0
C1139 C 0.3892 0.26884 0.90434 0.0
N1140 N 0.38719 0.27139 0.84439 0.0
C1141 C 0.36748 0.26765 0.82277 0.0
C1142 C 0.3755 0.25336 0.8166 0.0
C1143 C 0.39073 0.24999 0.82283 0.0
C1144 C 0.3965 0.25943 0.83654 0.0
C1145 C 0.37356 0.27653 0.83645 0.0
H1146 H 0.40793 0.25605 0.84159 0.0
H1147 H 0.36637 0.28662 0.84128 0.0
H1148 H 0.40053 0.30654 0.89059 0.0
H1149 H 0.38513 0.25682 0.90012 0.0
C1150 C 0.37716 0.23855 0.87289 0.0
C1151 C 0.35125 0.29361 0.87005 0.0
C1152 C 0.42945 0.26144 0.87258 0.0
C1153 C 0.40271 0.31322 0.85595 0.0
H1154 H 0.33004 0.26664 0.87585 0.0
H1155 H 0.34383 0.23624 0.87616 0.0
H1156 H 0.40085 0.21244 0.87621 0.0
H1157 H 0.42938 0.22545 0.8774 0.0
H1158 H 0.45036 0.28791 0.86306 0.0
H1159 H 0.43574 0.31574 0.85246 0.0
H1160 H 0.37995 0.33998 0.85483 0.0
H1161 H 0.35225 0.3297 0.86436 0.0
H1162 H 0.40271 0.31178 0.92111 0.0
H1163 H 0.38789 0.26096 0.93017 0.0
H1164 H 0.35604 0.27134 0.81774 0.0
H1165 H 0.39767 0.23942 0.81804 0.0
C1166 C 0.25672 0.83435 0.36657 0.0
C1167 C 0.26775 0.8212 0.36667 0.0
C1168 C 0.28219 0.82838 0.36798 0.0
C1169 C 0.27921 0.84548 0.36857 0.0
N1170 N 0.26375 0.84962 0.36813 0.0
Co1171 Co 0.25486 0.87322 0.36619 0.0
N1172 N 0.27562 0.8838 0.37112 0.0
C1173 C 0.28961 0.87555 0.37181 0.0
C1174 C 0.30194 0.88598 0.3752 0.0
C1175 C 0.29537 0.90188 0.3766 0.0
C1176 C 0.27935 0.90027 0.37392 0.0
N1177 N 0.24598 0.89669 0.36338 0.0
C1178 C 0.2524 0.91201 0.36627 0.0
C1179 C 0.24204 0.92512 0.36187 0.0
C1180 C 0.22865 0.91785 0.35611 0.0
C1181 C 0.23157 0.90081 0.35723 0.0
N1182 N 0.23384 0.86291 0.36207 0.0
C1183 C 0.22048 0.87123 0.35757 0.0
C1184 C 0.20764 0.86114 0.3564 0.0
C1185 C 0.21321 0.84526 0.36005 0.0
C1186 C 0.22924 0.84659 0.36305 0.0
N1187 N 0.25043 0.87373 0.39081 0.0
C1188 C 0.24502 0.87327 0.4261 0.0
C1189 C 0.23425 0.8812 0.41495 0.0
C1190 C 0.23708 0.88113 0.39738 0.0
C1191 C 0.25858 0.86588 0.41916 0.0
C1192 C 0.26112 0.86642 0.40173 0.0
N1193 N 0.26006 0.87215 0.3417 0.0
C1194 C 0.26253 0.85399 0.31721 0.0
C1195 C 0.27609 0.86222 0.31187 0.0
C1196 C 0.27995 0.8771 0.32062 0.0
C1197 C 0.27151 0.88208 0.3351 0.0
C1198 C 0.25485 0.85905 0.33201 0.0
H1199 H 0.27505 0.89342 0.34146 0.0
H1200 H 0.24527 0.85155 0.33595 0.0
H1201 H 0.22843 0.88701 0.38918 0.0
H1202 H 0.27189 0.86085 0.39723 0.0
C1203 C 0.29053 0.85798 0.37007 0.0
C1204 C 0.23989 0.83179 0.36334 0.0
C1205 C 0.26836 0.91486 0.37256 0.0
C1206 C 0.22034 0.88855 0.35487 0.0
H1207 H 0.2656 0.80783 0.36541 0.0
H1208 H 0.29353 0.82192 0.36824 0.0
H1209 H 0.31425 0.88244 0.37654 0.0
H1210 H 0.30167 0.9134 0.3789 0.0
H1211 H 0.2439 0.93857 0.36275 0.0
H1212 H 0.21789 0.92424 0.3521 0.0
H1213 H 0.19571 0.86483 0.35302 0.0
H1214 H 0.20644 0.83384 0.35959 0.0
H1215 H 0.22357 0.8871 0.41973 0.0
H1216 H 0.26737 0.85984 0.42722 0.0
H1217 H 0.25808 0.8432 0.31043 0.0
H1218 H 0.2899 0.8845 0.317 0.0
C1219 C 0.65437 0.76597 0.83929 0.0
C1220 C 0.65355 0.75452 0.82604 0.0
C1221 C 0.65374 0.73874 0.83307 0.0
C1222 C 0.65458 0.74139 0.85017 0.0
N1223 N 0.65452 0.7579 0.85448 0.0
Co1224 Co 0.65732 0.76682 0.87792 0.0
N1225 N 0.65444 0.7441 0.88845 0.0
C1226 C 0.65448 0.72923 0.88019 0.0
C1227 C 0.65231 0.71566 0.89064 0.0
C1228 C 0.65091 0.72237 0.90656 0.0
C1229 C 0.65231 0.7397 0.90491 0.0
N1230 N 0.66072 0.77571 0.90128 0.0
C1231 C 0.65839 0.7685 0.91658 0.0
C1232 C 0.66263 0.77925 0.92967 0.0
C1233 C 0.66776 0.79369 0.92237 0.0
C1234 C 0.66639 0.79097 0.90533 0.0
N1235 N 0.65966 0.7898 0.86772 0.0
C1236 C 0.66438 0.80375 0.87595 0.0
C1237 C 0.66484 0.81784 0.86603 0.0
C1238 C 0.66049 0.8125 0.85034 0.0
C1239 C 0.65765 0.79529 0.85154 0.0
N1240 N 0.63431 0.77105 0.87975 0.0
C1241 C 0.60121 0.77564 0.88219 0.0
C1242 C 0.61155 0.78823 0.88767 0.0
C1243 C 0.628 0.78566 0.88642 0.0
C1244 C 0.60796 0.7609 0.87529 0.0
C1245 C 0.62429 0.75889 0.87419 0.0
N1246 N 0.68027 0.76185 0.87556 0.0
C1247 C 0.70255 0.76067 0.85672 0.0
C1248 C 0.70911 0.74655 0.86511 0.0
C1249 C 0.70178 0.74176 0.88022 0.0
C1250 C 0.6877 0.74985 0.88542 0.0
C1251 C 0.68826 0.76793 0.86198 0.0
H1252 H 0.68244 0.74559 0.89694 0.0
H1253 H 0.68348 0.77789 0.85429 0.0
H1254 H 0.63556 0.79547 0.89092 0.0
H1255 H 0.62873 0.7473 0.86883 0.0
C1256 C 0.65493 0.72878 0.86255 0.0
C1257 C 0.65661 0.78417 0.83668 0.0
C1258 C 0.65278 0.75138 0.91937 0.0
C1259 C 0.6679 0.80332 0.89309 0.0
H1260 H 0.65339 0.75731 0.81266 0.0
H1261 H 0.65351 0.72675 0.82647 0.0
H1262 H 0.65154 0.70249 0.88709 0.0
H1263 H 0.64925 0.71532 0.91809 0.0
H1264 H 0.66203 0.77696 0.94312 0.0
H1265 H 0.67144 0.80507 0.92873 0.0
H1266 H 0.66823 0.83044 0.86968 0.0
H1267 H 0.66038 0.82037 0.83922 0.0
H1268 H 0.60701 0.79985 0.89318 0.0
H1269 H 0.60066 0.75089 0.87052 0.0
H1270 H 0.70805 0.7659 0.84568 0.0
H1271 H 0.70633 0.73131 0.88769 0.0
C1272 C 0.16626 0.57367 0.24664 0.0
C1273 C 0.15523 0.58329 0.25591 0.0
C1274 C 0.16499 0.55601 0.24528 0.0
C1275 C 0.14712 0.51961 0.26765 0.0
H1276 H 0.16052 0.49406 0.22832 0.0
C1277 C 0.14137 0.44673 0.26537 0.0
C1278 C 0.15381 0.43723 0.25828 0.0
C1279 C 0.14047 0.46438 0.26351 0.0
C1280 C 0.15684 0.50094 0.23949 0.0
H1281 H 0.13411 0.58198 0.27078 0.0
H1282 H 0.13153 0.55136 0.26804 0.0
H1283 H 0.16075 0.52491 0.22774 0.0
H1284 H 0.17506 0.43881 0.24363 0.0
H1285 H 0.17355 0.46958 0.24026 0.0
H1286 H 0.14339 0.49574 0.2795 0.0
C1287 C 0.14133 0.5573 0.26196 0.0
C1288 C 0.15698 0.51873 0.23916 0.0
C1289 C 0.14264 0.57492 0.26334 0.0
C1290 C 0.16514 0.44576 0.2489 0.0
C1291 C 0.16426 0.46344 0.24703 0.0
C1292 C 0.14698 0.50186 0.26798 0.0
C1293 C 0.15269 0.54746 0.25325 0.0
C1294 C 0.15214 0.5284 0.25326 0.0
C1295 C 0.15208 0.47311 0.25461 0.0
C1296 C 0.15186 0.49218 0.25393 0.0
H1297 H 0.17631 0.57972 0.24115 0.0
H1298 H 0.1741 0.549 0.23863 0.0
H1299 H 0.14364 0.52642 0.27894 0.0
H1300 H 0.13259 0.44052 0.27285 0.0
H1301 H 0.13075 0.47121 0.26931 0.0
C1302 C 0.94548 0.63385 0.76133 0.0
C1303 C 0.93644 0.64614 0.75261 0.0
C1304 C 0.9618 0.63229 0.7589 0.0
C1305 C 0.99611 0.65684 0.7434 0.0
H1306 H 0.01826 0.61382 0.7483 0.0
C1307 C 0.06398 0.64944 0.73324 0.0
C1308 C 0.07252 0.63885 0.74449 0.0
C1309 C 0.04742 0.65004 0.73322 0.0
C1310 C 1.01232 0.626 0.74703 0.0
H1311 H 0.93753 0.66641 0.73442 0.0
H1312 H 0.96584 0.66333 0.7296 0.0
H1313 H 0.98965 0.61499 0.74945 0.0
H1314 H 0.06977 0.62082 0.76486 0.0
H1315 H 0.0412 0.62168 0.7646 0.0
H1316 H 0.01885 0.6678 0.74093 0.0
C1317 C 0.96043 0.65497 0.73854 0.0
C1318 C 0.9958 0.62668 0.74772 0.0
C1319 C 0.94409 0.65657 0.74105 0.0
C1320 C 0.06383 0.62886 0.75567 0.0
C1321 C 0.04731 0.62938 0.75557 0.0
C1322 C 1.01264 0.65613 0.74262 0.0
C1323 C 0.96965 0.64301 0.74767 0.0
C1324 C 0.98736 0.64214 0.74607 0.0
C1325 C 0.03879 0.64001 0.74439 0.0
C1326 C 0.02105 0.64072 0.74457 0.0
H1327 H 0.93998 0.62591 0.77061 0.0
H1328 H 0.96832 0.6231 0.76642 0.0
H1329 H 0.99024 0.66907 0.74236 0.0
H1330 H 0.07006 0.65718 0.72424 0.0
H1331 H 0.04137 0.65825 0.72426 0.0
C1332 C 0.87388 0.44907 0.24101 0.0
C1333 C 0.88704 0.44014 0.24743 0.0
C1334 C 0.87442 0.46656 0.23821 0.0
C1335 C 0.89687 0.50415 0.25238 0.0
H1336 H 0.87147 0.52749 0.21853 0.0
C1337 C 0.89834 0.57687 0.24538 0.0
C1338 C 0.88373 0.58535 0.2438 0.0
C1339 C 0.89952 0.55925 0.24358 0.0
C1340 C 0.87858 0.52118 0.22812 0.0
H1341 H 0.91122 0.4423 0.25548 0.0
H1342 H 0.91253 0.47265 0.24992 0.0
H1343 H 0.87252 0.49662 0.21899 0.0
H1344 H 0.85896 0.58214 0.2389 0.0
H1345 H 0.86097 0.55134 0.2355 0.0
H1346 H 0.9029 0.52868 0.26151 0.0
C1347 C 0.9016 0.46634 0.24736 0.0
C1348 C 0.87917 0.50342 0.22842 0.0
C1349 C 0.90099 0.44887 0.25029 0.0
C1350 C 0.8704 0.57592 0.23985 0.0
C1351 C 0.87158 0.55828 0.23795 0.0
C1352 C 0.89637 0.52187 0.25199 0.0
C1353 C 0.88819 0.47558 0.24175 0.0
C1354 C 0.88823 0.49458 0.24065 0.0
C1355 C 0.88611 0.54964 0.24018 0.0
C1356 C 0.88713 0.53068 0.23994 0.0
H1357 H 0.86288 0.44266 0.23907 0.0
H1358 H 0.86377 0.47309 0.23411 0.0
H1359 H 0.90371 0.49799 0.26227 0.0
H1360 H 0.90875 0.58383 0.2487 0.0
H1361 H 0.91093 0.55311 0.24519 0.0
C1362 C 0.08331 0.37386 0.73119 0.0
C1363 C 0.09089 0.37932 0.74604 0.0
C1364 C 0.06677 0.3738 0.73004 0.0
C1365 C 0.03088 0.3753 0.75756 0.0
H1366 H 1.00859 0.38371 0.71544 0.0
C1367 C 0.96339 0.38649 0.75537 0.0
C1368 C 0.95469 0.37883 0.74234 0.0
C1369 C 0.97988 0.38629 0.75519 0.0
C1370 C 1.01462 0.38117 0.72729 0.0
H1371 H 0.08684 0.38985 0.77095 0.0
H1372 H 0.05833 0.39018 0.76883 0.0
H1373 H 0.03731 0.38428 0.71616 0.0
H1374 H 0.95682 0.36508 0.71874 0.0
H1375 H 0.98564 0.3648 0.71839 0.0
H1376 H 1.00822 0.37246 0.76872 0.0
C1377 C 0.06501 0.38533 0.75823 0.0
C1378 C 0.03117 0.38147 0.72771 0.0
C1379 C 0.08146 0.38524 0.75943 0.0
C1380 C 0.96306 0.37104 0.72904 0.0
C1381 C 0.97962 0.371 0.72877 0.0
C1382 C 1.01439 0.37515 0.75715 0.0
C1383 C 0.05732 0.37933 0.74365 0.0
C1384 C 0.0396 0.37866 0.7429 0.0
C1385 C 0.98829 0.37853 0.74192 0.0
C1386 C 1.00597 0.37819 0.74205 0.0
H1387 H 0.09015 0.3691 0.72066 0.0
H1388 H 0.06143 0.36895 0.71862 0.0
H1389 H 0.03678 0.37259 0.76944 0.0
H1390 H 0.95745 0.39242 0.76596 0.0
H1391 H 0.98606 0.39237 0.76546 0.0
C1392 C 0.16799 0.44397 0.78289 0.0
C1393 C 0.1551 0.43441 0.77767 0.0
C1394 C 0.1665 0.46156 0.78503 0.0
C1395 C 0.1407 0.4983 0.77173 0.0
H1396 H 0.16655 0.52305 0.80332 0.0
C1397 C 0.13454 0.57124 0.77834 0.0
C1398 C 0.14857 0.58028 0.77906 0.0
C1399 C 0.13471 0.55358 0.78016 0.0
C1400 C 0.15929 0.51637 0.79435 0.0
H1401 H 0.13046 0.43569 0.77097 0.0
H1402 H 0.12755 0.46623 0.77537 0.0
H1403 H 0.16769 0.49221 0.80322 0.0
H1404 H 0.17374 0.57791 0.78237 0.0
H1405 H 0.17411 0.54712 0.78586 0.0
H1406 H 0.1323 0.52247 0.76289 0.0
C1407 C 0.13898 0.46032 0.77749 0.0
C1408 C 0.15997 0.49858 0.79424 0.0
C1409 C 0.14053 0.44273 0.77522 0.0
C1410 C 0.16272 0.57131 0.78214 0.0
C1411 C 0.1629 0.55364 0.78408 0.0
C1412 C 0.13994 0.51605 0.77193 0.0
C1413 C 0.15203 0.47014 0.78204 0.0
C1414 C 0.15076 0.4892 0.78283 0.0
C1415 C 0.14894 0.54444 0.78274 0.0
C1416 C 0.1493 0.5254 0.78316 0.0
H1417 H 0.17944 0.4379 0.7845 0.0
H1418 H 0.17692 0.46849 0.78829 0.0
H1419 H 0.13365 0.49175 0.76247 0.0
H1420 H 0.12349 0.5778 0.77565 0.0
H1421 H 0.12369 0.54704 0.77923 0.0
C1422 C 0.96382 0.64852 0.29631 0.0
C1423 C 0.95613 0.64035 0.28287 0.0
C1424 C 0.98033 0.64803 0.29771 0.0
C1425 C 0.01606 0.62451 0.28153 0.0
H1426 H 0.03838 0.66335 0.29834 0.0
C1427 C 0.08298 0.63205 0.27203 0.0
C1428 C 0.09207 0.63884 0.28523 0.0
C1429 C 0.06656 0.6316 0.27308 0.0
C1430 C 0.03234 0.6523 0.29381 0.0
H1431 H 0.96007 0.62571 0.26006 0.0
H1432 H 0.98855 0.62505 0.26232 0.0
H1433 H 1.00967 0.66407 0.29742 0.0
H1434 H 0.09083 0.65032 0.31005 0.0
H1435 H 0.06204 0.64963 0.31188 0.0
H1436 H 0.03874 0.61292 0.27756 0.0
C1437 C 0.98191 0.63143 0.27214 0.0
C1438 C 0.0158 0.65269 0.29329 0.0
C1439 C 0.96547 0.63184 0.27081 0.0
C1440 C 0.08422 0.64492 0.29969 0.0
C1441 C 0.0677 0.64467 0.30065 0.0
C1442 C 0.03256 0.62418 0.28193 0.0
C1443 C 0.98967 0.63944 0.28565 0.0
C1444 C 1.00737 0.63886 0.28697 0.0
C1445 C 0.05862 0.63807 0.28731 0.0
C1446 C 0.04097 0.63812 0.28791 0.0
H1447 H 0.95707 0.6551 0.30592 0.0
H1448 H 0.98573 0.65419 0.30843 0.0
H1449 H 1.01014 0.61341 0.27698 0.0
H1450 H 0.08859 0.62712 0.26076 0.0
H1451 H 0.06004 0.62656 0.26248 0.0
C1452 C 0.88031 0.57064 0.79994 0.0
C1453 C 0.88898 0.57907 0.78762 0.0
C1454 C 0.88035 0.55285 0.80055 0.0
C1455 C 0.89 0.51509 0.77318 0.0
H1456 H 0.8834 0.48979 0.8143 0.0
C1457 C 0.89634 0.44239 0.77435 0.0
C1458 C 0.88387 0.43359 0.78151 0.0
C1459 C 0.89761 0.45987 0.77668 0.0
C1460 C 0.88519 0.49669 0.8027 0.0
H1461 H 0.90507 0.57552 0.76684 0.0
H1462 H 0.9059 0.54481 0.76839 0.0
H1463 H 0.88485 0.52062 0.81548 0.0
H1464 H 0.8633 0.43602 0.79724 0.0
H1465 H 0.86573 0.46665 0.80178 0.0
H1466 H 0.89065 0.49115 0.76049 0.0
C1467 C 0.89849 0.55167 0.77721 0.0
C1468 C 0.88596 0.51444 0.80333 0.0
C1469 C 0.89822 0.56937 0.77644 0.0
C1470 C 0.87311 0.44249 0.79175 0.0
C1471 C 0.8745 0.46002 0.79429 0.0
C1472 C 0.88947 0.49741 0.77261 0.0
C1473 C 0.88922 0.54302 0.78895 0.0
C1474 C 0.88843 0.52398 0.78856 0.0
C1475 C 0.88653 0.46901 0.78639 0.0
C1476 C 0.88709 0.48793 0.78733 0.0
H1477 H 0.87294 0.57779 0.80859 0.0
H1478 H 0.87292 0.54685 0.8097 0.0
H1479 H 0.89141 0.52176 0.76139 0.0
H1480 H 0.90472 0.43583 0.7663 0.0
H1481 H 0.90713 0.46631 0.77059 0.0
C1482 C 0.96122 0.39057 0.26923 0.0
C1483 C 0.95194 0.38656 0.28326 0.0
C1484 C 0.97765 0.39077 0.27046 0.0
C1485 C 1.01153 0.39178 0.30088 0.0
H1486 H 0.03453 0.37468 0.26215 0.0
C1487 C 0.08011 0.38061 0.30054 0.0
C1488 C 0.08799 0.38433 0.28544 0.0
C1489 C 0.06356 0.38135 0.30129 0.0
C1490 C 0.02836 0.37969 0.27303 0.0
H1491 H 0.95293 0.38007 0.30982 0.0
H1492 H 0.98168 0.38028 0.31198 0.0
H1493 H 1.006 0.37505 0.26166 0.0
H1494 H 0.08442 0.39281 0.25963 0.0
H1495 H 0.0559 0.39404 0.26092 0.0
H1496 H 0.0341 0.39626 0.31225 0.0
C1497 C 0.97618 0.38342 0.29999 0.0
C1498 C 1.01189 0.37993 0.27275 0.0
C1499 C 0.95964 0.38328 0.29876 0.0
C1500 C 0.07885 0.3894 0.27136 0.0
C1501 C 0.06241 0.3901 0.27209 0.0
C1502 C 0.0281 0.39149 0.30117 0.0
C1503 C 0.98546 0.38689 0.28576 0.0
C1504 C 1.00316 0.38617 0.28656 0.0
C1505 C 0.05445 0.38581 0.28695 0.0
C1506 C 0.03677 0.38563 0.28715 0.0
H1507 H 0.95576 0.39356 0.25717 0.0
H1508 H 0.98424 0.394 0.25931 0.0
H1509 H 1.00531 0.39678 0.31173 0.0
H1510 H 0.08668 0.37658 0.31163 0.0
H1511 H 0.0579 0.37789 0.31295 0.0
C1512 C 0.23691 0.15368 0.5692 0.0
C1513 C 0.23369 0.13966 0.57942 0.0
C1514 C 0.23522 0.15286 0.55162 0.0
C1515 C 0.21762 0.1282 0.51622 0.0
H1516 H 0.24971 0.15015 0.49016 0.0
C1517 C 0.22394 0.1203 0.44304 0.0
C1518 C 0.22831 0.13459 0.43371 0.0
C1519 C 0.22362 0.12071 0.46079 0.0
C1520 C 0.24051 0.14412 0.49718 0.0
H1521 H 0.22567 0.11387 0.579 0.0
H1522 H 0.22278 0.11237 0.54822 0.0
H1523 H 0.2508 0.15117 0.52082 0.0
H1524 H 0.23569 0.16057 0.43609 0.0
H1525 H 0.23479 0.16138 0.46675 0.0
H1526 H 0.20743 0.12107 0.49242 0.0
C1527 C 0.22651 0.1241 0.55387 0.0
C1528 C 0.24113 0.14471 0.51485 0.0
C1529 C 0.22816 0.12495 0.57155 0.0
C1530 C 0.23204 0.14937 0.4427 0.0
C1531 C 0.23176 0.14976 0.46038 0.0
C1532 C 0.21701 0.12759 0.49847 0.0
C1533 C 0.2303 0.13796 0.54362 0.0
C1534 C 0.22963 0.1369 0.52468 0.0
C1535 C 0.22776 0.13538 0.46973 0.0
C1536 C 0.22839 0.13567 0.48868 0.0
H1537 H 0.24086 0.16535 0.57481 0.0
H1538 H 0.23784 0.16397 0.54428 0.0
H1539 H 0.20848 0.12214 0.5233 0.0
H1540 H 0.22085 0.10873 0.43663 0.0
H1541 H 0.22055 0.10936 0.4675 0.0
C1542 C 0.37221 0.73701 0.94078 0.0
C1543 C 0.38304 0.74699 0.93223 0.0
C1544 C 0.37313 0.73499 0.95842 0.0
C1545 C 0.39921 0.74187 0.9964 0.0
H1546 H 0.35972 0.74364 0.02046 0.0
C1547 C 0.39538 0.7563 0.06855 0.0
C1548 C 0.38338 0.74903 0.07804 0.0
C1549 C 0.39626 0.75379 0.05099 0.0
C1550 C 0.3709 0.74284 0.01403 0.0
H1551 H 0.4034 0.76255 0.93545 0.0
H1552 H 0.40516 0.75904 0.9661 0.0
H1553 H 0.35963 0.74323 0.98973 0.0
H1554 H 0.36299 0.73327 0.07656 0.0
H1555 H 0.36469 0.72844 0.04603 0.0
H1556 H 0.41046 0.74177 0.02075 0.0
C1557 C 0.39606 0.75247 0.95928 0.0
C1558 C 0.37085 0.7426 0.99627 0.0
C1559 C 0.39511 0.75447 0.94166 0.0
C1560 C 0.37255 0.73875 0.06963 0.0
C1561 C 0.37341 0.73624 0.05206 0.0
C1562 C 0.39926 0.74212 0.01417 0.0
C1563 C 0.38488 0.743 0.96805 0.0
C1564 C 0.385 0.74225 0.98711 0.0
C1565 C 0.38507 0.74402 0.04236 0.0
C1566 C 0.3851 0.74275 0.02332 0.0
H1567 H 0.36259 0.73137 0.9339 0.0
H1568 H 0.36442 0.7274 0.96456 0.0
H1569 H 0.41038 0.74133 0.98993 0.0
H1570 H 0.40366 0.7646 0.07462 0.0
H1571 H 0.4053 0.76021 0.04409 0.0
C1572 C 0.76329 0.8832 0.43599 0.0
C1573 C 0.77269 0.87171 0.42678 0.0
C1574 C 0.76559 0.8854 0.45339 0.0
C1575 C 0.78405 0.86425 0.49127 0.0
H1576 H 0.77263 0.90677 0.51276 0.0
C1577 C 0.79044 0.87582 0.56415 0.0
C1578 C 0.77706 0.883 0.57193 0.0
C1579 C 0.79158 0.87517 0.54641 0.0
C1580 C 0.77584 0.89478 0.50699 0.0
H1581 H 0.79226 0.85394 0.42846 0.0
H1582 H 0.79679 0.85817 0.45882 0.0
H1583 H 0.77214 0.90459 0.48208 0.0
H1584 H 0.75466 0.89567 0.5671 0.0
H1585 H 0.75679 0.89491 0.53637 0.0
H1586 H 0.78793 0.85461 0.51636 0.0
C1587 C 0.7873 0.86521 0.45273 0.0
C1588 C 0.77547 0.89346 0.4893 0.0
C1589 C 0.78487 0.8629 0.43526 0.0
C1590 C 0.76512 0.89001 0.56154 0.0
C1591 C 0.76637 0.88964 0.54389 0.0
C1592 C 0.78462 0.86565 0.50899 0.0
C1593 C 0.77752 0.87632 0.46218 0.0
C1594 C 0.77927 0.87808 0.48109 0.0
C1595 C 0.77951 0.882 0.53603 0.0
C1596 C 0.78025 0.88086 0.51711 0.0
H1597 H 0.75374 0.89007 0.42978 0.0
H1598 H 0.75758 0.89384 0.46003 0.0
H1599 H 0.78688 0.8521 0.48564 0.0
H1600 H 0.79979 0.87019 0.57176 0.0
H1601 H 0.80191 0.86929 0.54081 0.0
C1602 C 0.67226 0.27258 0.07287 0.0
C1603 C 0.659 0.268 0.08215 0.0
C1604 C 0.67139 0.27455 0.05523 0.0
C1605 C 0.64673 0.26208 0.01787 0.0
H1606 H 0.67345 0.29282 0.99385 0.0
C1607 C 0.64264 0.26947 0.94485 0.0
C1608 C 0.65689 0.27012 0.93601 0.0
C1609 C 0.64237 0.27089 0.96256 0.0
C1610 C 0.66596 0.28407 1.00032 0.0
H1611 H 0.63437 0.26223 0.0803 0.0
H1612 H 0.63256 0.26627 0.04967 0.0
H1613 H 0.67366 0.2926 0.02467 0.0
H1614 H 0.68198 0.2728 0.9388 0.0
H1615 H 0.68157 0.27556 0.96967 0.0
H1616 H 0.63902 0.25359 0.9935 0.0
C1617 C 0.64379 0.26803 0.05584 0.0
C1618 C 0.6661 0.2839 0.0181 0.0
C1619 C 0.64472 0.26596 0.07348 0.0
C1620 C 0.67081 0.27261 0.94525 0.0
C1621 C 0.67054 0.27415 0.96297 0.0
C1622 C 0.64651 0.26234 1.00011 0.0
C1623 C 0.65719 0.27202 0.04632 0.0
C1624 C 0.65656 0.27282 0.02724 0.0
C1625 C 0.65634 0.27299 0.97196 0.0
C1626 C 0.6562 0.27326 0.99101 0.0
H1627 H 0.6835 0.2739 0.0792 0.0
H1628 H 0.68206 0.27737 0.04854 0.0
H1629 H 0.63943 0.25308 0.02422 0.0
H1630 H 0.63177 0.26725 0.93808 0.0
H1631 H 0.63118 0.27012 0.96891 0.0
C1632 C 0.2442 0.85691 0.45338 0.0
C1633 C 0.24241 0.8724 0.44483 0.0
C1634 C 0.24309 0.85602 0.47104 0.0
C1635 C 0.23157 0.88132 0.50997 0.0
H1636 H 0.2564 0.84632 0.53248 0.0
C1637 C 0.24564 0.8798 0.58283 0.0
C1638 C 0.24521 0.86401 0.59095 0.0
C1639 C 0.24338 0.88113 0.56524 0.0
C1640 C 0.24924 0.85608 0.52643 0.0
H1641 H 0.23787 0.89916 0.44833 0.0
H1642 H 0.23652 0.89785 0.47915 0.0
H1643 H 0.25668 0.84823 0.50189 0.0
H1644 H 0.24169 0.83733 0.58696 0.0
H1645 H 0.23789 0.83956 0.5563 0.0
H1646 H 0.22479 0.88953 0.53488 0.0
C1647 C 0.23836 0.88618 0.47225 0.0
C1648 C 0.24931 0.85716 0.50872 0.0
C1649 C 0.23917 0.88699 0.45448 0.0
C1650 C 0.24189 0.84969 0.58112 0.0
C1651 C 0.2399 0.85096 0.56351 0.0
C1652 C 0.23173 0.8804 0.52776 0.0
C1653 C 0.24049 0.87068 0.48093 0.0
C1654 C 0.24039 0.86972 0.50006 0.0
C1655 C 0.24095 0.86665 0.55524 0.0
C1656 C 0.2405 0.86769 0.53626 0.0
H1657 H 0.24653 0.84538 0.44635 0.0
H1658 H 0.2443 0.84372 0.47688 0.0
H1659 H 0.22432 0.89105 0.50405 0.0
H1660 H 0.2485 0.89102 0.58998 0.0
H1661 H 0.24437 0.8934 0.55934 0.0
C1662 C 0.66951 0.7442 0.07394 0.0
C1663 C 0.65609 0.74944 0.08289 0.0
C1664 C 0.66881 0.74157 0.05637 0.0
C1665 C 0.64052 0.73755 0.01962 0.0
H1666 H 0.67669 0.75046 0.99354 0.0
C1667 C 0.63829 0.75005 0.94692 0.0
C1668 C 0.65149 0.74541 0.93726 0.0
C1669 C 0.63846 0.74811 0.96458 0.0
C1670 C 0.66654 0.74656 1.00059 0.0
H1671 H 0.63143 0.75616 0.08052 0.0
H1672 H 0.63012 0.75188 0.04997 0.0
H1673 H 0.6778 0.75179 0.02422 0.0
H1674 H 0.67513 0.73494 0.93846 0.0
H1675 H 0.67545 0.73131 0.96922 0.0
H1676 H 0.62913 0.73284 0.99581 0.0
C1677 C 0.64117 0.74928 0.0564 0.0
C1678 C 0.66718 0.74728 0.01831 0.0
C1679 C 0.64188 0.75177 0.07396 0.0
C1680 C 0.66468 0.73827 0.94556 0.0
C1681 C 0.66492 0.73646 0.96322 0.0
C1682 C 0.63984 0.73697 1.00187 0.0
C1683 C 0.65468 0.74437 0.04721 0.0
C1684 C 0.65416 0.74287 0.02819 0.0
C1685 C 0.65195 0.74171 0.97306 0.0
C1686 C 0.65282 0.74152 0.99206 0.0
H1687 H 0.68065 0.74252 0.08049 0.0
H1688 H 0.67943 0.73751 0.04997 0.0
H1689 H 0.63031 0.73374 0.02661 0.0
H1690 H 0.62813 0.75598 0.94089 0.0
H1691 H 0.62831 0.75246 0.97165 0.0
C1692 C 0.77768 0.17269 0.5788 0.0
C1693 C 0.77162 0.15888 0.58753 0.0
C1694 C 0.7794 0.17222 0.56113 0.0
C1695 C 0.77825 0.14301 0.52323 0.0
H1696 H 0.7698 0.18473 0.49896 0.0
C1697 C 0.76479 0.14545 0.4507 0.0
C1698 C 0.77046 0.15909 0.44135 0.0
C1699 C 0.76675 0.14478 0.46835 0.0
C1700 C 0.77241 0.17297 0.50547 0.0
H1701 H 0.76255 0.13375 0.5846 0.0
H1702 H 0.76532 0.13285 0.5539 0.0
H1703 H 0.7699 0.18478 0.52968 0.0
H1704 H 0.78261 0.18272 0.44318 0.0
H1705 H 0.78621 0.18157 0.47394 0.0
H1706 H 0.7803 0.13117 0.49887 0.0
C1707 C 0.7692 0.14397 0.56057 0.0
C1708 C 0.77251 0.17299 0.52324 0.0
C1709 C 0.76762 0.14443 0.57824 0.0
C1710 C 0.7784 0.17189 0.45002 0.0
C1711 C 0.78025 0.17132 0.46769 0.0
C1712 C 0.77802 0.14297 0.50544 0.0
C1713 C 0.77487 0.15798 0.55161 0.0
C1714 C 0.77538 0.158 0.5325 0.0
C1715 C 0.77422 0.15789 0.4772 0.0
C1716 C 0.77505 0.15795 0.49625 0.0
H1717 H 0.78063 0.18409 0.58561 0.0
H1718 H 0.78408 0.18318 0.55494 0.0
H1719 H 0.78079 0.13121 0.52969 0.0
H1720 H 0.7583 0.13561 0.44439 0.0
H1721 H 0.76177 0.13434 0.47514 0.0
C1722 C 0.37828 0.28953 0.08267 0.0
C1723 C 0.38962 0.27984 0.09154 0.0
C1724 C 0.38002 0.29265 0.06531 0.0
C1725 C 0.39736 0.27265 0.02793 0.0
H1726 H 0.39065 0.31573 1.00555 0.0
C1727 C 0.40679 0.27798 0.95619 0.0
C1728 C 0.39699 0.28898 0.94677 0.0
C1729 C 0.40684 0.27848 0.97387 0.0
C1730 C 0.39236 0.30352 0.01151 0.0
H1731 H 0.41176 0.26612 0.08945 0.0
H1732 H 0.41479 0.27139 0.05918 0.0
H1733 H 0.38872 0.31398 0.03633 0.0
H1734 H 0.3797 0.30931 0.94847 0.0
H1735 H 0.37927 0.30987 0.97938 0.0
H1736 H 0.40031 0.2619 1.00341 0.0
C1737 C 0.4046 0.27669 0.06557 0.0
C1738 C 0.39132 0.30257 0.02921 0.0
C1739 C 0.40297 0.2738 0.08291 0.0
C1740 C 0.3875 0.30082 0.95543 0.0
C1741 C 0.38731 0.30112 0.9732 0.0
C1742 C 0.39814 0.27352 1.0103 0.0
C1743 C 0.39299 0.28583 0.05645 0.0
C1744 C 0.39395 0.28713 0.03764 0.0
C1745 C 0.39678 0.28972 0.98274 0.0
C1746 C 0.39581 0.28899 1.00173 0.0
H1747 H 0.36777 0.29407 0.08902 0.0
H1748 H 0.37083 0.29964 0.05864 0.0
H1749 H 0.39914 0.26048 0.03398 0.0
H1750 H 0.41427 0.26877 0.94982 0.0
H1751 H 0.4147 0.26984 0.98055 0.0
C1752 C 0.58551 0.22894 0.1282 0.0
C1753 C 0.59367 0.23618 0.14184 0.0
C1754 C 0.56905 0.22753 0.12854 0.0
C1755 C 0.53363 0.24538 0.15082 0.0
H1756 H 0.51221 0.20806 0.12967 0.0
C1757 C 0.46669 0.23635 0.15906 0.0
C1758 C 0.45788 0.23197 0.14463 0.0
C1759 C 0.48319 0.23593 0.15881 0.0
C1760 C 0.51799 0.21865 0.13554 0.0
H1761 H 0.59084 0.24673 0.16695 0.0
H1762 H 0.56247 0.24398 0.16773 0.0
H1763 H 0.54089 0.20892 0.12905 0.0
H1764 H 0.45979 0.22309 0.11878 0.0
H1765 H 0.48851 0.22238 0.11836 0.0
H1766 H 0.51077 0.25506 0.15739 0.0
C1767 C 0.5686 0.23989 0.15646 0.0
C1768 C 0.5345 0.21918 0.13515 0.0
C1769 C 0.58497 0.24141 0.15605 0.0
C1770 C 0.46612 0.2267 0.1301 0.0
C1771 C 0.48264 0.22616 0.1299 0.0
C1772 C 0.51717 0.2448 0.1513 0.0
C1773 C 0.56029 0.2332 0.14261 0.0
C1774 C 0.54261 0.23254 0.14283 0.0
C1775 C 0.49144 0.231 0.14418 0.0
C1776 C 0.50907 0.23142 0.1437 0.0
H1777 H 0.59179 0.22488 0.117 0.0
H1778 H 0.56317 0.22243 0.11755 0.0
H1779 H 0.53928 0.25612 0.15655 0.0
H1780 H 0.46084 0.24065 0.17043 0.0
H1781 H 0.4895 0.23955 0.17014 0.0
C1782 C 0.57556 0.7929 0.88019 0.0
C1783 C 0.58356 0.77749 0.8836 0.0
C1784 C 0.55899 0.79408 0.88052 0.0
C1785 C 0.5235 0.77151 0.89626 0.0
H1786 H 0.50094 0.79781 0.86231 0.0
C1787 C 0.45671 0.76348 0.88439 0.0
C1788 C 0.44718 0.77759 0.87993 0.0
C1789 C 0.47312 0.76463 0.88566 0.0
C1790 C 0.50699 0.79056 0.87205 0.0
H1791 H 0.58005 0.75138 0.8907 0.0
H1792 H 0.55154 0.75334 0.89103 0.0
H1793 H 0.52966 0.79779 0.8631 0.0
H1794 H 0.44784 0.80417 0.87353 0.0
H1795 H 0.47648 0.80624 0.87591 0.0
H1796 H 0.50093 0.76416 0.90515 0.0
C1797 C 0.55797 0.76462 0.88815 0.0
C1798 C 0.52356 0.79055 0.87251 0.0
C1799 C 0.57444 0.76344 0.88775 0.0
C1800 C 0.45468 0.79302 0.87707 0.0
C1801 C 0.47119 0.79416 0.87826 0.0
C1802 C 0.50699 0.77151 0.8958 0.0
C1803 C 0.54989 0.77992 0.88444 0.0
C1804 C 0.53213 0.78084 0.8845 0.0
C1805 C 0.4807 0.77995 0.88253 0.0
C1806 C 0.49841 0.78085 0.88356 0.0
H1807 H 0.58208 0.80399 0.87685 0.0
H1808 H 0.55332 0.80615 0.87777 0.0
H1809 H 0.52951 0.76416 0.90596 0.0
H1810 H 0.45148 0.7514 0.88695 0.0
H1811 H 0.47989 0.75331 0.88878 0.0
C1812 C 0.74468 0.95405 0.38505 0.0
C1813 C 0.73316 0.9452 0.37598 0.0
C1814 C 0.74402 0.9717 0.3863 0.0
C1815 C 0.72626 1.01058 0.36661 0.0
H1816 H 0.74065 0.03127 0.4082 0.0
C1817 C 0.72431 0.08377 0.37774 0.0
C1818 C 0.738 0.09058 0.38487 0.0
C1819 C 0.7223 0.06617 0.3771 0.0
C1820 C 0.73667 0.02574 0.39644 0.0
H1821 H 0.71191 0.94833 0.36096 0.0
H1822 H 0.71064 0.97919 0.36327 0.0
H1823 H 0.73971 1.00064 0.40607 0.0
H1824 H 0.76 0.08413 0.39749 0.0
H1825 H 0.75649 0.05368 0.3965 0.0
H1826 H 0.72321 0.03584 0.35706 0.0
C1827 C 0.72032 0.9724 0.36931 0.0
C1828 C 0.73618 1.00809 0.39518 0.0
C1829 C 0.72102 0.95465 0.368 0.0
C1830 C 0.74936 0.07936 0.3918 0.0
C1831 C 0.74729 0.06185 0.39133 0.0
C1832 C 0.72667 0.02829 0.36792 0.0
C1833 C 0.73179 0.98121 0.37857 0.0
C1834 C 0.73123 1.00017 0.38015 0.0
C1835 C 0.73382 0.05495 0.38382 0.0
C1836 C 0.73213 0.03613 0.38277 0.0
H1837 H 0.75446 0.94734 0.391 0.0
H1838 H 0.75333 0.9779 0.39314 0.0
H1839 H 0.72251 1.00505 0.35477 0.0
H1840 H 0.71538 0.09203 0.37219 0.0
H1841 H 0.71172 0.06134 0.37134 0.0
C1842 C 0.45484 0.25344 0.85813 0.0
C1843 C 0.44623 0.25514 0.87315 0.0
C1844 C 0.47113 0.25028 0.85856 0.0
C1845 C 0.50457 0.23484 0.8852 0.0
H1846 H 0.52927 0.26343 0.85644 0.0
C1847 C 0.57307 0.23613 0.8904 0.0
C1848 C 0.58195 0.23981 0.87593 0.0
C1849 C 0.55654 0.23711 0.89009 0.0
C1850 C 0.52267 0.25505 0.86436 0.0
H1851 H 0.4478 0.25399 0.90038 0.0
H1852 H 0.47629 0.24799 0.90121 0.0
H1853 H 0.50075 0.26596 0.85576 0.0
H1854 H 0.57978 0.24729 0.84961 0.0
H1855 H 0.55132 0.24804 0.84883 0.0
H1856 H 0.52642 0.22366 0.89358 0.0
C1857 C 0.47046 0.24927 0.88906 0.0
C1858 C 0.5062 0.25659 0.86401 0.0
C1859 C 0.45414 0.25267 0.88862 0.0
C1860 C 0.5736 0.2441 0.86103 0.0
C1861 C 0.55709 0.24487 0.86067 0.0
C1862 C 0.52107 0.23312 0.88539 0.0
C1863 C 0.47926 0.24847 0.87404 0.0
C1864 C 0.49688 0.24653 0.87442 0.0
C1865 C 0.54821 0.24162 0.87524 0.0
C1866 C 0.53046 0.24322 0.87498 0.0
H1867 H 0.44903 0.25527 0.84603 0.0
H1868 H 0.47742 0.24949 0.84674 0.0
H1869 H 0.4978 0.22679 0.8933 0.0
H1870 H 0.57884 0.23249 0.9021 0.0
H1871 H 0.55035 0.23464 0.90168 0.0
C1872 C 0.28125 0.94033 0.36001 0.0
C1873 C 0.27374 0.93281 0.37376 0.0
C1874 C 0.28305 0.95795 0.35931 0.0
C1875 C 0.28051 0.99797 0.38501 0.0
H1876 H 0.27202 0.01892 0.34161 0.0
C1877 C 0.26796 0.07048 0.37801 0.0
C1878 C 0.27232 0.07864 0.36305 0.0
C1879 C 0.26991 0.05287 0.37979 0.0
C1880 C 0.27471 0.01338 0.35382 0.0
H1881 H 0.26244 0.93787 0.39764 0.0
H1882 H 0.26574 0.96852 0.39665 0.0
H1883 H 0.27259 0.98827 0.34397 0.0
H1884 H 0.28234 0.07474 0.33832 0.0
H1885 H 0.28623 0.04414 0.34149 0.0
H1886 H 0.28253 0.0231 0.39488 0.0
C1887 C 0.27046 0.96088 0.38644 0.0
C1888 C 0.27502 0.99566 0.35518 0.0
C1889 C 0.26861 0.94326 0.38709 0.0
C1890 C 0.27906 0.06883 0.35007 0.0
C1891 C 0.28106 0.05121 0.35185 0.0
C1892 C 0.28025 0.01571 0.38364 0.0
C1893 C 0.27736 0.9686 0.37233 0.0
C1894 C 0.27782 0.98761 0.37082 0.0
C1895 C 0.27626 0.04284 0.36662 0.0
C1896 C 0.27724 0.02378 0.36803 0.0
H1897 H 0.28504 0.93263 0.34941 0.0
H1898 H 0.28863 0.96327 0.34835 0.0
H1899 H 0.28293 0.99236 0.39725 0.0
H1900 H 0.26244 0.07767 0.38809 0.0
H1901 H 0.26582 0.04707 0.39127 0.0
C1902 C 0.57424 0.79365 0.12472 0.0
C1903 C 0.58255 0.78781 0.13912 0.0
C1904 C 0.55771 0.79411 0.12428 0.0
C1905 C 0.52303 0.77513 0.14503 0.0
H1906 H 0.49943 0.81128 0.12283 0.0
C1907 C 0.4554 0.77994 0.15031 0.0
C1908 C 0.44646 0.78473 0.13599 0.0
C1909 C 0.47179 0.78126 0.15057 0.0
C1910 C 0.5058 0.80097 0.12893 0.0
H1911 H 0.57959 0.77795 0.16441 0.0
H1912 H 0.55098 0.77906 0.16377 0.0
H1913 H 0.52814 0.81182 0.12359 0.0
H1914 H 0.44802 0.79522 0.11082 0.0
H1915 H 0.4767 0.79747 0.1112 0.0
H1916 H 0.50082 0.76418 0.15029 0.0
C1917 C 0.55723 0.78312 0.15269 0.0
C1918 C 0.52234 0.80128 0.12938 0.0
C1919 C 0.57374 0.78271 0.15315 0.0
C1920 C 0.45445 0.79148 0.12211 0.0
C1921 C 0.47095 0.79276 0.12235 0.0
C1922 C 0.50655 0.77481 0.14456 0.0
C1923 C 0.54892 0.78867 0.13819 0.0
C1924 C 0.53123 0.78841 0.13753 0.0
C1925 C 0.47992 0.78739 0.1365 0.0
C1926 C 0.49762 0.78776 0.13661 0.0
H1927 H 0.58051 0.79787 0.1137 0.0
H1928 H 0.55182 0.79836 0.11283 0.0
H1929 H 0.52936 0.76477 0.1511 0.0
H1930 H 0.44969 0.77505 0.16141 0.0
H1931 H 0.47811 0.77743 0.1619 0.0
C1932 C 0.74189 0.94598 0.628 0.0
C1933 C 0.74196 0.93709 0.64334 0.0
C1934 C 0.73885 0.96353 0.62767 0.0
C1935 C 0.74346 1.00097 0.65466 0.0
H1936 H 0.71693 0.02445 0.62196 0.0
C1937 C 0.73511 0.07382 0.65792 0.0
C1938 C 0.73291 0.08311 0.64287 0.0
C1939 C 0.73484 0.05608 0.65797 0.0
C1940 C 0.72461 0.01821 0.63106 0.0
H1941 H 0.73848 0.93943 0.67027 0.0
H1942 H 0.73326 0.97001 0.66978 0.0
H1943 H 0.71869 0.9936 0.62167 0.0
H1944 H 0.72815 0.08033 0.61602 0.0
H1945 H 0.72859 0.04969 0.61595 0.0
H1946 H 0.75 0.0253 0.66368 0.0
C1947 C 0.7355 0.96349 0.65797 0.0
C1948 C 0.72552 1.00043 0.63093 0.0
C1949 C 0.73829 0.94596 0.65825 0.0
C1950 C 0.7302 0.07388 0.62789 0.0
C1951 C 0.73019 0.05611 0.62789 0.0
C1952 C 0.74277 0.0187 0.65463 0.0
C1953 C 0.7361 0.97261 0.64274 0.0
C1954 C 0.7349 0.99156 0.6428 0.0
C1955 C 0.73265 0.04683 0.64292 0.0
C1956 C 0.73328 0.02772 0.64289 0.0
H1957 H 0.74494 0.93949 0.61638 0.0
H1958 H 0.73948 0.97013 0.61573 0.0
H1959 H 0.75103 0.9946 0.6638 0.0
H1960 H 0.73747 0.08017 0.66976 0.0
H1961 H 0.73642 0.04966 0.66994 0.0
C1962 C 0.27597 0.07529 0.66349 0.0
C1963 C 0.2722 0.0844 0.64873 0.0
C1964 C 0.27919 0.05785 0.66282 0.0
C1965 C 0.29016 0.02189 0.63477 0.0
H1966 H 0.2675 0.99537 0.66729 0.0
C1967 C 0.28779 0.94831 0.63026 0.0
C1968 C 0.28613 0.93877 0.64516 0.0
C1969 C 0.2872 0.96608 0.6306 0.0
C1970 C 0.27422 1.00245 0.65828 0.0
H1971 H 0.26951 0.08256 0.62163 0.0
H1972 H 0.27559 0.05206 0.62032 0.0
H1973 H 0.26526 0.02601 0.66804 0.0
H1974 H 0.28279 0.94108 0.67225 0.0
H1975 H 0.28269 0.97166 0.67296 0.0
H1976 H 0.29937 0.99838 0.62517 0.0
C1977 C 0.27598 0.0584 0.63245 0.0
C1978 C 0.27284 0.02015 0.65868 0.0
C1979 C 0.27255 0.07586 0.63316 0.0
C1980 C 0.28434 0.94772 0.66046 0.0
C1981 C 0.28396 0.96547 0.66083 0.0
C1982 C 0.29172 1.00415 0.6345 0.0
C1983 C 0.2789 0.04905 0.64734 0.0
C1984 C 0.28076 0.03015 0.64693 0.0
C1985 C 0.28511 0.97501 0.64588 0.0
C1986 C 0.28374 0.99408 0.64624 0.0
H1987 H 0.27567 0.08156 0.67566 0.0
H1988 H 0.2816 0.05115 0.67451 0.0
H1989 H 0.29651 0.02917 0.62559 0.0
H1990 H 0.28946 0.9421 0.6182 0.0
H1991 H 0.28801 0.97276 0.61874 0.0
C1992 C 0.16229 0.3069 0.30737 0.0
C1993 C 0.16921 0.31733 0.29531 0.0
C1994 C 0.17021 0.29229 0.31334 0.0
C1995 C 0.21064 0.27166 0.31493 0.0
H1996 H 0.18762 0.23332 0.33119 0.0
C1997 C 0.23969 0.20596 0.33188 0.0
C1998 C 0.23419 0.19789 0.3464 0.0
C1999 C 0.23251 0.22108 0.32612 0.0
C2000 C 0.19425 0.24398 0.32684 0.0
H2001 H 0.18953 0.32005 0.27934 0.0
H2002 H 0.20298 0.2943 0.28898 0.0
H2003 H 0.17333 0.25759 0.31942 0.0
H2004 H 0.2171 0.19937 0.36644 0.0
H2005 H 0.20451 0.22569 0.35643 0.0
H2006 H 0.23158 0.25762 0.32195 0.0
C2007 C 0.19174 0.29763 0.2945 0.0
C2008 C 0.18602 0.25802 0.3201 0.0
C2009 C 0.18391 0.31235 0.28874 0.0
C2010 C 0.22169 0.20548 0.35534 0.0
C2011 C 0.21437 0.22043 0.34947 0.0
C2012 C 0.21886 0.25748 0.32145 0.0
C2013 C 0.18519 0.28748 0.30717 0.0
C2014 C 0.19404 0.2722 0.31408 0.0
C2015 C 0.21947 0.22829 0.3346 0.0
C2016 C 0.21079 0.24348 0.3276 0.0
H2017 H 0.15095 0.31037 0.31261 0.0
H2018 H 0.1647 0.28509 0.32318 0.0
H2019 H 0.21738 0.28232 0.31083 0.0
H2020 H 0.24913 0.2002 0.32461 0.0
H2021 H 0.23671 0.22671 0.31459 0.0
C2022 C 0.29955 0.72665 0.86098 0.0
C2023 C 0.31066 0.73518 0.85123 0.0
C2024 C 0.28768 0.71717 0.85323 0.0
C2025 C 0.27635 0.69721 0.8118 0.0
H2026 H 0.23478 0.69758 0.83137 0.0
C2027 C 0.22505 0.65683 0.78445 0.0
C2028 C 0.20973 0.66372 0.78558 0.0
C2029 C 0.2378 0.665 0.79218 0.0
C2030 C 0.24627 0.69742 0.82558 0.0
H2031 H 0.31805 0.7397 0.82545 0.0
H2032 H 0.29728 0.72389 0.81212 0.0
H2033 H 0.25576 0.71269 0.84537 0.0
H2034 H 0.19599 0.68515 0.79475 0.0
H2035 H 0.21799 0.69948 0.80772 0.0
H2036 H 0.26667 0.68239 0.79169 0.0
C2037 C 0.29775 0.72431 0.82578 0.0
C2038 C 0.25844 0.70593 0.83381 0.0
C2039 C 0.30959 0.7337 0.8335 0.0
C2040 C 0.20759 0.67931 0.79393 0.0
C2041 C 0.22025 0.68749 0.8015 0.0
C2042 C 0.26415 0.68874 0.80352 0.0
C2043 C 0.28656 0.71588 0.83547 0.0
C2044 C 0.27368 0.70611 0.82701 0.0
C2045 C 0.23554 0.68034 0.80111 0.0
C2046 C 0.24884 0.68884 0.81018 0.0
H2047 H 0.29988 0.72745 0.87463 0.0
H2048 H 0.27946 0.71073 0.86121 0.0
H2049 H 0.28793 0.69674 0.80622 0.0
H2050 H 0.22709 0.64483 0.77816 0.0
H2051 H 0.24934 0.65901 0.7916 0.0
C2052 C 0.84663 0.70096 0.27526 0.0
C2053 C 0.86294 0.70109 0.27791 0.0
C2054 C 0.83693 0.71406 0.2815 0.0
C2055 C 0.83767 0.75735 0.30116 0.0
H2056 H 0.79785 0.74411 0.32007 0.0
C2057 C 0.80337 0.80058 0.34726 0.0
C2058 C 0.78709 0.80295 0.34453 0.0
C2059 C 0.8119 0.78803 0.33858 0.0
C2060 C 0.80885 0.74807 0.31471 0.0
H2061 H 0.882 0.71496 0.28901 0.0
H2062 H 0.86525 0.7378 0.30009 0.0
H2063 H 0.81414 0.7233 0.30511 0.0
H2064 H 0.76698 0.79328 0.33094 0.0
H2065 H 0.78188 0.77104 0.31603 0.0
H2066 H 0.83253 0.782 0.31121 0.0
C2067 C 0.85981 0.72789 0.29281 0.0
C2068 C 0.81822 0.73613 0.30603 0.0
C2069 C 0.86949 0.71484 0.28642 0.0
C2070 C 0.77945 0.79177 0.33349 0.0
C2071 C 0.78802 0.77906 0.32486 0.0
C2072 C 0.82838 0.76921 0.30998 0.0
C2073 C 0.84331 0.72752 0.29082 0.0
C2074 C 0.83286 0.74053 0.29922 0.0
C2075 C 0.80443 0.77732 0.327 0.0
C2076 C 0.81392 0.76471 0.31702 0.0
H2077 H 0.84132 0.69031 0.269 0.0
H2078 H 0.82438 0.71339 0.27936 0.0
H2079 H 0.84864 0.76142 0.29585 0.0
H2080 H 0.80963 0.80866 0.35593 0.0
H2081 H 0.82444 0.7868 0.34089 0.0
C2082 C 0.80488 0.3526 0.78333 0.0
C2083 C 0.8206 0.34778 0.78676 0.0
C2084 C 0.7924 0.34356 0.79028 0.0
C2085 C 0.78346 0.31503 0.82603 0.0
H2086 H 0.74599 0.30474 0.80028 0.0
C2087 C 0.73383 0.27455 0.85464 0.0
C2088 C 0.71824 0.27942 0.85067 0.0
C2089 C 0.74652 0.2818 0.84615 0.0
C2090 C 0.75627 0.30766 0.80779 0.0
H2091 H 0.83532 0.32882 0.79934 0.0
H2092 H 0.81378 0.31345 0.81153 0.0
H2093 H 0.76716 0.31999 0.78691 0.0
H2094 H 0.70393 0.29508 0.83383 0.0
H2095 H 0.72573 0.30799 0.8197 0.0
H2096 H 0.77253 0.30308 0.84702 0.0
C2097 C 0.81104 0.32443 0.80382 0.0
C2098 C 0.76845 0.31642 0.80005 0.0
C2099 C 0.82343 0.33333 0.79682 0.0
C2100 C 0.71573 0.29126 0.8376 0.0
C2101 C 0.72833 0.29852 0.82922 0.0
C2102 C 0.77124 0.3064 0.83382 0.0
C2103 C 0.79534 0.3295 0.80087 0.0
C2104 C 0.78222 0.32025 0.80906 0.0
C2105 C 0.74397 0.29407 0.83343 0.0
C2106 C 0.75739 0.30261 0.82486 0.0
H2107 H 0.8022 0.36362 0.77567 0.0
H2108 H 0.78045 0.34786 0.78774 0.0
H2109 H 0.7938 0.31793 0.83346 0.0
H2110 H 0.73626 0.26546 0.86457 0.0
H2111 H 0.75835 0.27777 0.84961 0.0
C2112 C 0.21899 0.79543 0.67166 0.0
C2113 C 0.23537 0.79716 0.67344 0.0
C2114 C 0.211 0.78284 0.68033 0.0
C2115 C 0.21502 0.75321 0.71716 0.0
H2116 H 0.17733 0.73436 0.69765 0.0
C2117 C 0.18197 0.6957 0.74549 0.0
C2118 C 0.16547 0.69598 0.74449 0.0
C2119 C 0.1907 0.70865 0.73822 0.0
C2120 C 0.18771 0.73963 0.70341 0.0
H2121 H 0.25616 0.78633 0.68552 0.0
H2122 H 0.24233 0.76394 0.70019 0.0
H2123 H 0.19245 0.75428 0.68144 0.0
H2124 H 0.14515 0.7101 0.7353 0.0
H2125 H 0.16031 0.73284 0.72272 0.0
H2126 H 0.21035 0.73808 0.73901 0.0
C2127 C 0.23557 0.77267 0.69236 0.0
C2128 C 0.19645 0.75115 0.69408 0.0
C2129 C 0.24359 0.78539 0.68371 0.0
C2130 C 0.15784 0.70979 0.7366 0.0
C2131 C 0.16656 0.72265 0.72916 0.0
C2132 C 0.20633 0.74152 0.72644 0.0
C2133 C 0.21908 0.77132 0.69101 0.0
C2134 C 0.21019 0.7583 0.70081 0.0
C2135 C 0.18315 0.72205 0.72947 0.0
C2136 C 0.19246 0.73467 0.71977 0.0
H2137 H 0.2122 0.80403 0.66371 0.0
H2138 H 0.19835 0.78253 0.67898 0.0
H2139 H 0.22535 0.75852 0.72299 0.0
H2140 H 0.18814 0.68499 0.75114 0.0
H2141 H 0.20341 0.70764 0.73864 0.0
C2142 C 0.7267 0.72545 0.15838 0.0
C2143 C 0.72029 0.74085 0.16429 0.0
C2144 C 0.739 0.71718 0.16712 0.0
C2145 C 0.7691 0.7224 0.20168 0.0
H2146 H 0.76854 0.67343 0.20154 0.0
C2147 C 0.81127 0.68078 0.24373 0.0
C2148 C 0.819 0.66735 0.2353 0.0
C2149 C 0.7988 0.68979 0.23591 0.0
C2150 C 0.76893 0.6871 0.20166 0.0
H2151 H 0.722 0.75981 0.1839 0.0
H2152 H 0.74326 0.74527 0.19943 0.0
H2153 H 0.74835 0.68938 0.18615 0.0
H2154 H 0.81916 0.65244 0.21232 0.0
H2155 H 0.79728 0.66782 0.1989 0.0
H2156 H 0.78961 0.71993 0.21755 0.0
C2157 C 0.73904 0.73967 0.18781 0.0
C2158 C 0.75737 0.69632 0.1927 0.0
C2159 C 0.72684 0.74807 0.1789 0.0
C2160 C 0.8135 0.66273 0.21917 0.0
C2161 C 0.80091 0.67153 0.21148 0.0
C2162 C 0.78058 0.71314 0.21082 0.0
C2163 C 0.74511 0.72388 0.18226 0.0
C2164 C 0.75735 0.71414 0.19233 0.0
C2165 C 0.79355 0.68539 0.21959 0.0
C2166 C 0.78076 0.69535 0.21078 0.0
H2167 H 0.72196 0.7196 0.14712 0.0
H2168 H 0.74357 0.70537 0.16205 0.0
H2169 H 0.76968 0.73605 0.20165 0.0
H2170 H 0.81526 0.68474 0.25611 0.0
H2171 H 0.79331 0.70028 0.2426 0.0
C2172 C 0.7791 0.23481 0.68214 0.0
C2173 C 0.78637 0.22407 0.6702 0.0
C2174 C 0.78782 0.24701 0.69092 0.0
C2175 C 0.82658 0.26918 0.69043 0.0
H2176 H 0.81777 0.27751 0.73772 0.0
C2177 C 0.86949 0.30676 0.73221 0.0
C2178 C 0.86273 0.31973 0.74205 0.0
C2179 C 0.86004 0.29449 0.72466 0.0
C2180 C 0.82035 0.27539 0.7245 0.0
H2181 H 0.80842 0.21849 0.65759 0.0
H2182 H 0.82353 0.23914 0.67298 0.0
H2183 H 0.80121 0.25841 0.7215 0.0
H2184 H 0.84093 0.32976 0.75217 0.0
H2185 H 0.82443 0.30809 0.73943 0.0
H2186 H 0.84585 0.28592 0.6935 0.0
C2187 C 0.8111 0.23842 0.67559 0.0
C2188 C 0.81077 0.26448 0.71512 0.0
C2189 C 0.80241 0.22635 0.66682 0.0
C2190 C 0.84646 0.31968 0.74494 0.0
C2191 C 0.83702 0.30731 0.73754 0.0
C2192 C 0.83623 0.2799 0.69983 0.0
C2193 C 0.80405 0.24883 0.68797 0.0
C2194 C 0.81377 0.26111 0.69792 0.0
C2195 C 0.8436 0.29486 0.72682 0.0
C2196 C 0.83333 0.28311 0.71702 0.0
H2197 H 0.76681 0.23338 0.68519 0.0
H2198 H 0.78183 0.25492 0.70012 0.0
H2199 H 0.82915 0.26735 0.67717 0.0
H2200 H 0.88196 0.30674 0.72951 0.0
H2201 H 0.86557 0.28499 0.71667 0.0
C2202 C 0.23625 0.3642 0.23652 0.0
C2203 C 0.22496 0.3546 0.2449 0.0
C2204 C 0.24784 0.35631 0.22649 0.0
C2205 C 0.25766 0.31514 0.20481 0.0
H2206 H 0.29967 0.33301 0.20375 0.0
C2207 C 0.31198 0.27825 0.1774 0.0
C2208 C 0.32282 0.28761 0.16812 0.0
C2209 C 0.29935 0.28638 0.18566 0.0
C2210 C 0.28795 0.32793 0.20377 0.0
H2211 H 0.21697 0.32897 0.24865 0.0
H2212 H 0.23738 0.31539 0.23209 0.0
H2213 H 0.27942 0.34739 0.22036 0.0
H2214 H 0.32815 0.31282 0.15941 0.0
H2215 H 0.30635 0.3269 0.17387 0.0
H2216 H 0.26641 0.29542 0.18852 0.0
C2217 C 0.23722 0.32904 0.23296 0.0
C2218 C 0.27628 0.33624 0.21327 0.0
C2219 C 0.22561 0.3369 0.24282 0.0
C2220 C 0.32026 0.3052 0.16672 0.0
C2221 C 0.30776 0.31331 0.17505 0.0
C2222 C 0.26939 0.30674 0.19545 0.0
C2223 C 0.24852 0.33857 0.22456 0.0
C2224 C 0.26093 0.32996 0.214 0.0
C2225 C 0.2973 0.30408 0.18491 0.0
C2226 C 0.2847 0.31302 0.19479 0.0
H2227 H 0.23624 0.37782 0.23779 0.0
H2228 H 0.25617 0.36417 0.22009 0.0
H2229 H 0.24596 0.31003 0.20469 0.0
H2230 H 0.31365 0.26473 0.17892 0.0
H2231 H 0.29156 0.27888 0.1932 0.0
C2232 C 0.34814 0.23745 0.20163 0.0
C2233 C 0.36456 0.23543 0.20222 0.0
C2234 C 0.33871 0.23016 0.214 0.0
C2235 C 0.34002 0.20863 0.2563 0.0
H2236 H 0.30116 0.18907 0.24053 0.0
C2237 C 0.30613 0.16109 0.29694 0.0
C2238 C 0.28965 0.16297 0.29784 0.0
C2239 C 0.31479 0.17026 0.28524 0.0
C2240 C 0.31189 0.19459 0.24522 0.0
H2241 H 0.38405 0.22425 0.21616 0.0
H2242 H 0.36774 0.21143 0.23777 0.0
H2243 H 0.31709 0.20515 0.22107 0.0
H2244 H 0.26942 0.17575 0.2865 0.0
H2245 H 0.28452 0.19155 0.26586 0.0
H2246 H 0.33492 0.19775 0.28037 0.0
C2247 C 0.36202 0.21899 0.22804 0.0
C2248 C 0.32105 0.20392 0.23404 0.0
C2249 C 0.37144 0.2264 0.21571 0.0
C2250 C 0.28205 0.1738 0.28612 0.0
C2251 C 0.29074 0.18294 0.27431 0.0
C2252 C 0.33091 0.19921 0.26744 0.0
C2253 C 0.34546 0.2204 0.22717 0.0
C2254 C 0.33533 0.21104 0.23936 0.0
C2255 C 0.30728 0.18155 0.27392 0.0
C2256 C 0.31675 0.19195 0.26205 0.0
H2257 H 0.34254 0.24411 0.19117 0.0
H2258 H 0.32608 0.23187 0.21298 0.0
H2259 H 0.35073 0.21411 0.26106 0.0
H2260 H 0.31243 0.15263 0.30546 0.0
H2261 H 0.32745 0.1685 0.28508 0.0
C2262 C 0.34899 0.78128 0.81049 0.0
C2263 C 0.36353 0.78829 0.81477 0.0
C2264 C 0.33988 0.78779 0.79703 0.0
C2265 C 0.34106 0.81791 0.75992 0.0
H2266 H 0.29571 0.81634 0.76373 0.0
C2267 C 0.29933 0.85673 0.71573 0.0
C2268 C 0.2877 0.84741 0.70743 0.0
C2269 C 0.30783 0.84976 0.7294 0.0
C2270 C 0.30836 0.81684 0.76245 0.0
H2271 H 0.38035 0.80695 0.80751 0.0
H2272 H 0.36435 0.81889 0.78463 0.0
H2273 H 0.31234 0.80347 0.78559 0.0
H2274 H 0.27549 0.82375 0.70725 0.0
H2275 H 0.28982 0.81181 0.73169 0.0
H2276 H 0.3369 0.83187 0.73703 0.0
C2277 C 0.35989 0.80816 0.79139 0.0
C2278 C 0.31799 0.8093 0.77495 0.0
C2279 C 0.36911 0.8014 0.80466 0.0
C2280 C 0.28415 0.83134 0.71366 0.0
C2281 C 0.29245 0.82448 0.72756 0.0
C2282 C 0.33141 0.82573 0.74761 0.0
C2283 C 0.34494 0.80169 0.78749 0.0
C2284 C 0.33457 0.80963 0.77393 0.0
C2285 C 0.30475 0.83338 0.73527 0.0
C2286 C 0.31493 0.82529 0.74868 0.0
H2287 H 0.34443 0.771 0.81785 0.0
H2288 H 0.32878 0.78194 0.79426 0.0
H2289 H 0.35366 0.81824 0.75823 0.0
H2290 H 0.30251 0.869 0.71096 0.0
H2291 H 0.31712 0.85702 0.73512 0.0
C2292 C 0.73248 0.85861 0.29621 0.0
C2293 C 0.73787 0.84965 0.3105 0.0
C2294 C 0.7263 0.85002 0.28215 0.0
C2295 C 0.70659 0.81004 0.27124 0.0
H2296 H 0.71376 0.82343 0.22492 0.0
C2297 C 0.66781 0.78805 0.21434 0.0
C2298 C 0.6754 0.78451 0.19898 0.0
C2299 C 0.67623 0.79454 0.22818 0.0
C2300 C 0.71169 0.81941 0.23777 0.0
H2301 H 0.74115 0.82468 0.32119 0.0
H2302 H 0.73053 0.80968 0.29672 0.0
H2303 H 0.7275 0.8377 0.24792 0.0
H2304 H 0.69773 0.78489 0.18615 0.0
H2305 H 0.71245 0.79604 0.21023 0.0
H2306 H 0.69067 0.79186 0.2611 0.0
C2307 C 0.73103 0.82333 0.29629 0.0
C2308 C 0.71949 0.82773 0.25099 0.0
C2309 C 0.73732 0.8319 0.31024 0.0
C2310 C 0.69164 0.78724 0.19792 0.0
C2311 C 0.70002 0.79384 0.21166 0.0
C2312 C 0.69866 0.80185 0.25803 0.0
C2313 C 0.72511 0.83227 0.28217 0.0
C2314 C 0.71707 0.82318 0.26794 0.0
C2315 C 0.6924 0.79793 0.22691 0.0
C2316 C 0.70109 0.8064 0.24108 0.0
H2317 H 0.73225 0.8723 0.29625 0.0
H2318 H 0.72172 0.85737 0.27162 0.0
H2319 H 0.70426 0.80628 0.28411 0.0
H2320 H 0.65523 0.78665 0.21537 0.0
H2321 H 0.6699 0.79769 0.23962 0.0
C2322 C 0.73373 0.16903 0.71882 0.0
C2323 C 0.73878 0.17846 0.70492 0.0
C2324 C 0.72735 0.17716 0.73312 0.0
C2325 C 0.70663 0.21712 0.74542 0.0
H2326 H 0.71399 0.20144 0.79118 0.0
C2327 C 0.66756 0.23799 0.80268 0.0
C2328 C 0.67507 0.24039 0.81836 0.0
C2329 C 0.67605 0.23184 0.78868 0.0
C2330 C 0.71186 0.20611 0.7785 0.0
H2331 H 0.74123 0.20377 0.6952 0.0
H2332 H 0.73031 0.21798 0.72012 0.0
H2333 H 0.72802 0.18789 0.76781 0.0
H2334 H 0.69736 0.23831 0.83156 0.0
H2335 H 0.7122 0.22782 0.80722 0.0
H2336 H 0.69039 0.23526 0.75611 0.0
C2337 C 0.73122 0.20431 0.72005 0.0
C2338 C 0.71983 0.19819 0.76504 0.0
C2339 C 0.7377 0.19619 0.70585 0.0
C2340 C 0.69131 0.23687 0.81957 0.0
C2341 C 0.69976 0.23063 0.80566 0.0
C2342 C 0.69854 0.22492 0.75886 0.0
C2343 C 0.72562 0.19493 0.73378 0.0
C2344 C 0.71736 0.20358 0.74827 0.0
C2345 C 0.69222 0.22766 0.79006 0.0
C2346 C 0.70103 0.21956 0.77564 0.0
H2347 H 0.73391 0.15536 0.71826 0.0
H2348 H 0.72304 0.16946 0.74331 0.0
H2349 H 0.70424 0.22153 0.7327 0.0
H2350 H 0.65498 0.24002 0.80148 0.0
H2351 H 0.66977 0.22957 0.77698 0.0
C2352 C 0.7848 0.81578 0.67305 0.0
C2353 C 0.79019 0.82169 0.65742 0.0
C2354 C 0.79262 0.80237 0.68136 0.0
C2355 C 0.83116 0.78486 0.68879 0.0
H2356 H 0.81137 0.74366 0.70288 0.0
C2357 C 0.86619 0.73294 0.72651 0.0
C2358 C 0.85799 0.72264 0.73782 0.0
C2359 C 0.85812 0.74432 0.71572 0.0
C2360 C 0.81711 0.7552 0.69942 0.0
H2361 H 0.80751 0.8176 0.63788 0.0
H2362 H 0.82158 0.7945 0.65275 0.0
H2363 H 0.79651 0.76434 0.68613 0.0
H2364 H 0.83442 0.71643 0.74596 0.0
H2365 H 0.8208 0.7369 0.72863 0.0
H2366 H 0.85144 0.77646 0.70279 0.0
C2367 C 0.81122 0.80022 0.65846 0.0
C2368 C 0.80856 0.76698 0.6896 0.0
C2369 C 0.80313 0.81333 0.64992 0.0
C2370 C 0.84144 0.7243 0.73796 0.0
C2371 C 0.83345 0.73591 0.72752 0.0
C2372 C 0.83962 0.77331 0.69899 0.0
C2373 C 0.80619 0.7948 0.6744 0.0
C2374 C 0.81548 0.78193 0.68419 0.0
C2375 C 0.84156 0.74604 0.71603 0.0
C2376 C 0.83273 0.75826 0.7046 0.0
H2377 H 0.77492 0.82202 0.67918 0.0
H2378 H 0.78848 0.79844 0.69362 0.0
H2379 H 0.83674 0.79639 0.68492 0.0
H2380 H 0.87888 0.73232 0.72594 0.0
H2381 H 0.86495 0.75161 0.70699 0.0
C2382 C 0.72649 0.28669 0.18161 0.0
C2383 C 0.72737 0.28375 0.16409 0.0
C2384 C 0.73721 0.29707 0.18985 0.0
C2385 C 0.76607 0.33096 0.1834 0.0
H2386 H 0.7811 0.31625 0.22744 0.0
C2387 C 0.81605 0.36453 0.22098 0.0
C2388 C 0.81497 0.365 0.23872 0.0
C2389 C 0.8051 0.35568 0.21121 0.0
C2390 C 0.77689 0.32073 0.21527 0.0
H2391 H 0.74017 0.29004 0.14146 0.0
H2392 H 0.75902 0.30826 0.15592 0.0
H2393 H 0.76317 0.29869 0.21156 0.0
H2394 H 0.80081 0.35736 0.25992 0.0
H2395 H 0.78169 0.34219 0.24298 0.0
H2396 H 0.7799 0.35305 0.18722 0.0
C2397 C 0.74991 0.30244 0.16325 0.0
C2398 C 0.76658 0.31059 0.2061 0.0
C2399 C 0.73912 0.29196 0.15495 0.0
C2400 C 0.8022 0.35705 0.24633 0.0
C2401 C 0.79125 0.34825 0.23659 0.0
C2402 C 0.77642 0.34115 0.19262 0.0
C2403 C 0.7492 0.30497 0.18088 0.0
C2404 C 0.76086 0.3156 0.19011 0.0
C2405 C 0.79274 0.34706 0.21892 0.0
C2406 C 0.78185 0.33626 0.20879 0.0
H2407 H 0.71733 0.28111 0.18906 0.0
H2408 H 0.73595 0.29905 0.20331 0.0
H2409 H 0.76184 0.33532 0.1712 0.0
H2410 H 0.82582 0.37032 0.21468 0.0
H2411 H 0.80672 0.35499 0.19767 0.0
C2412 C 0.18752 0.31332 0.73495 0.0
C2413 C 0.17122 0.31657 0.73461 0.0
C2414 C 0.19401 0.29902 0.72692 0.0
C2415 C 0.18508 0.25646 0.71063 0.0
H2416 H 0.22194 0.26254 0.68289 0.0
C2417 C 0.22223 0.19995 0.68506 0.0
C2418 C 0.22661 0.20024 0.66795 0.0
C2419 C 0.21547 0.21423 0.69283 0.0
C2420 C 0.21161 0.26063 0.69051 0.0
H2421 H 0.14889 0.30727 0.72588 0.0
H2422 H 0.16016 0.28189 0.71218 0.0
H2423 H 0.20994 0.28684 0.69747 0.0
H2424 H 0.22758 0.21599 0.64571 0.0
H2425 H 0.21614 0.24128 0.65946 0.0
H2426 H 0.18686 0.23023 0.70383 0.0
C2427 C 0.16795 0.29045 0.71864 0.0
C2428 C 0.2048 0.27454 0.699 0.0
C2429 C 0.16147 0.30492 0.72652 0.0
C2430 C 0.22445 0.21541 0.65893 0.0
C2431 C 0.21787 0.22985 0.66681 0.0
C2432 C 0.19204 0.24252 0.70235 0.0
C2433 C 0.18436 0.28748 0.71845 0.0
C2434 C 0.19146 0.27265 0.70922 0.0
C2435 C 0.21306 0.22936 0.68381 0.0
C2436 C 0.20543 0.24439 0.6922 0.0
H2437 H 0.19533 0.32211 0.74102 0.0
H2438 H 0.20664 0.29704 0.72726 0.0
H2439 H 0.17487 0.2545 0.71842 0.0
H2440 H 0.22373 0.18851 0.69242 0.0
H2441 H 0.21215 0.21342 0.70598 0.0
C2442 C 0.24082 0.66788 0.24634 0.0
C2443 C 0.22817 0.65886 0.23953 0.0
C2444 C 0.25174 0.67554 0.23579 0.0
C2445 C 0.25602 0.69237 0.19239 0.0
H2446 H 0.30005 0.69425 0.20497 0.0
C2447 C 0.30246 0.72652 0.15106 0.0
C2448 C 0.31375 0.73595 0.15985 0.0
C2449 C 0.29221 0.71593 0.15978 0.0
C2450 C 0.28777 0.69402 0.20131 0.0
H2451 H 0.21738 0.65063 0.21612 0.0
H2452 H 0.23655 0.66381 0.19772 0.0
H2453 H 0.28224 0.67775 0.22193 0.0
H2454 H 0.32329 0.74101 0.18484 0.0
H2455 H 0.30538 0.72314 0.19985 0.0
H2456 H 0.26155 0.70889 0.1719 0.0
C2457 C 0.23794 0.66507 0.21126 0.0
C2458 C 0.27753 0.6845 0.21107 0.0
C2459 C 0.22705 0.6573 0.22184 0.0
C2460 C 0.31458 0.7343 0.17756 0.0
C2461 C 0.30442 0.72376 0.18622 0.0
C2462 C 0.26629 0.70195 0.18263 0.0
C2463 C 0.25033 0.6745 0.21809 0.0
C2464 C 0.26145 0.6837 0.20692 0.0
C2465 C 0.29309 0.71435 0.17752 0.0
C2466 C 0.28228 0.70314 0.18709 0.0
H2467 H 0.24213 0.66928 0.25988 0.0
H2468 H 0.26101 0.68277 0.24157 0.0
H2469 H 0.24371 0.69223 0.18887 0.0
H2470 H 0.30143 0.72744 0.13745 0.0
H2471 H 0.28373 0.7088 0.1526 0.0
C2472 C 0.8533 0.32358 0.29082 0.0
C2473 C 0.86871 0.3266 0.29639 0.0
C2474 C 0.84408 0.31161 0.29886 0.0
C2475 C 0.84465 0.2744 0.32715 0.0
H2476 H 0.80274 0.29047 0.33878 0.0
C2477 C 0.80305 0.23396 0.36804 0.0
C2478 C 0.78692 0.23437 0.36389 0.0
C2479 C 0.81342 0.24535 0.36065 0.0
C2480 C 0.81429 0.28559 0.33546 0.0
H2481 H 0.88694 0.3185 0.31393 0.0
H2482 H 0.87091 0.29719 0.32786 0.0
H2483 H 0.82014 0.30876 0.3233 0.0
H2484 H 0.7691 0.24787 0.34916 0.0
H2485 H 0.78704 0.26709 0.33594 0.0
H2486 H 0.83871 0.25105 0.33894 0.0
C2487 C 0.86589 0.3043 0.31738 0.0
C2488 C 0.82432 0.29616 0.32658 0.0
C2489 C 0.87509 0.31645 0.3094 0.0
C2490 C 0.78143 0.24689 0.35255 0.0
C2491 C 0.79178 0.25815 0.34507 0.0
C2492 C 0.83453 0.2637 0.33587 0.0
C2493 C 0.85009 0.30212 0.31256 0.0
C2494 C 0.8396 0.2907 0.3222 0.0
C2495 C 0.808 0.25747 0.34882 0.0
C2496 C 0.81913 0.26908 0.3401 0.0
H2497 H 0.84813 0.33096 0.28064 0.0
H2498 H 0.8321 0.31 0.29454 0.0
H2499 H 0.85631 0.26975 0.32392 0.0
H2500 H 0.80783 0.22445 0.37657 0.0
H2501 H 0.82573 0.24453 0.36416 0.0
C2502 C 0.23354 0.33939 0.78884 0.0
C2503 C 0.23022 0.35697 0.78816 0.0
C2504 C 0.24635 0.33284 0.79812 0.0
C2505 C 0.27039 0.33787 0.83498 0.0
H2506 H 0.30339 0.31341 0.81121 0.0
C2507 C 0.32683 0.31261 0.86989 0.0
C2508 C 0.33557 0.29915 0.86279 0.0
C2509 C 0.31362 0.31956 0.86144 0.0
C2510 C 0.29419 0.31982 0.81825 0.0
H2511 H 0.23828 0.38122 0.7974 0.0
H2512 H 0.26009 0.36954 0.81431 0.0
H2513 H 0.28137 0.32579 0.79547 0.0
H2514 H 0.33644 0.28148 0.84193 0.0
H2515 H 0.31292 0.29251 0.82789 0.0
H2516 H 0.28256 0.33128 0.85785 0.0
C2517 C 0.25273 0.361 0.80725 0.0
C2518 C 0.28162 0.32714 0.80909 0.0
C2519 C 0.24011 0.36766 0.79758 0.0
C2520 C 0.33008 0.29198 0.84767 0.0
C2521 C 0.31666 0.29859 0.83944 0.0
C2522 C 0.28277 0.33019 0.84424 0.0
C2523 C 0.25605 0.34353 0.80749 0.0
C2524 C 0.26962 0.33628 0.81733 0.0
C2525 C 0.30845 0.31289 0.84584 0.0
C2526 C 0.29495 0.321 0.83605 0.0
H2527 H 0.2261 0.33047 0.78245 0.0
H2528 H 0.24853 0.3193 0.79823 0.0
H2529 H 0.26119 0.34471 0.84167 0.0
H2530 H 0.33069 0.31831 0.88162 0.0
H2531 H 0.30788 0.33056 0.86693 0.0
C2532 C 0.23147 0.80125 0.36486 0.0
C2533 C 0.23433 0.81575 0.35525 0.0
C2534 C 0.22448 0.78705 0.3574 0.0
C2535 C 0.21477 0.76773 0.31516 0.0
H2536 H 0.18465 0.74256 0.34092 0.0
C2537 C 0.18742 0.70602 0.28933 0.0
C2538 C 0.17204 0.70202 0.29399 0.0
C2539 C 0.1949 0.72006 0.29633 0.0
C2540 C 0.19289 0.74953 0.33342 0.0
H2541 H 0.23221 0.82662 0.33026 0.0
H2542 H 0.22006 0.80225 0.31735 0.0
H2543 H 0.19822 0.76601 0.35412 0.0
H2544 H 0.15224 0.70994 0.30923 0.0
H2545 H 0.16503 0.73481 0.32112 0.0
H2546 H 0.20911 0.75165 0.29431 0.0
C2547 C 0.22339 0.8015 0.33055 0.0
C2548 C 0.20091 0.76289 0.34113 0.0
C2549 C 0.23037 0.81559 0.33798 0.0
C2550 C 0.16407 0.71278 0.30535 0.0
C2551 C 0.17153 0.72689 0.31234 0.0
C2552 C 0.20671 0.75444 0.30744 0.0
C2553 C 0.22016 0.78702 0.34012 0.0
C2554 C 0.21197 0.77227 0.33212 0.0
C2555 C 0.1872 0.73061 0.30818 0.0
C2556 C 0.19561 0.74509 0.31641 0.0
H2557 H 0.23429 0.80106 0.37822 0.0
H2558 H 0.22243 0.77612 0.36521 0.0
H2559 H 0.2233 0.7744 0.30776 0.0
H2560 H 0.19391 0.69791 0.2807 0.0
H2561 H 0.20697 0.72223 0.29287 0.0
C2562 C 0.82096 0.6787 0.78978 0.0
C2563 C 0.8274 0.66368 0.79668 0.0
C2564 C 0.80748 0.68642 0.79678 0.0
C2565 C 0.78766 0.69342 0.83643 0.0
H2566 H 0.75016 0.70418 0.81027 0.0
C2567 C 0.73312 0.72658 0.86768 0.0
C2568 C 0.72287 0.73668 0.85766 0.0
C2569 C 0.74545 0.71696 0.8604 0.0
C2570 C 0.76059 0.70169 0.81782 0.0
H2571 H 0.82438 0.64472 0.81595 0.0
H2572 H 0.80115 0.65859 0.82864 0.0
H2573 H 0.77207 0.68914 0.79702 0.0
H2574 H 0.71796 0.74392 0.83159 0.0
H2575 H 0.7398 0.72872 0.81942 0.0
H2576 H 0.77681 0.70669 0.85697 0.0
C2577 C 0.80649 0.66427 0.81771 0.0
C2578 C 0.77313 0.69284 0.81016 0.0
C2579 C 0.81972 0.6563 0.81041 0.0
C2580 C 0.72561 0.73684 0.84009 0.0
C2581 C 0.73812 0.7276 0.8329 0.0
C2582 C 0.77529 0.70268 0.844 0.0
C2583 C 0.80032 0.67953 0.81109 0.0
C2584 C 0.7868 0.68857 0.81936 0.0
C2585 C 0.74822 0.71729 0.84283 0.0
C2586 C 0.76148 0.70706 0.83485 0.0
H2587 H 0.82666 0.68478 0.77929 0.0
H2588 H 0.80301 0.69817 0.79141 0.0
H2589 H 0.79812 0.69045 0.84381 0.0
H2590 H 0.73175 0.72605 0.88124 0.0
H2591 H 0.75265 0.7091 0.86867 0.0
C2592 C 0.72505 0.86599 0.72807 0.0
C2593 C 0.73543 0.85655 0.71771 0.0
C2594 C 0.71554 0.85802 0.74001 0.0
C2595 C 0.70166 0.81464 0.7528 0.0
H2596 H 0.68823 0.83844 0.79318 0.0
C2597 C 0.67816 0.78415 0.81497 0.0
C2598 C 0.66337 0.79027 0.82034 0.0
C2599 C 0.6858 0.79164 0.80132 0.0
C2600 C 0.69183 0.83168 0.7819 0.0
H2601 H 0.74337 0.83081 0.71214 0.0
H2602 H 0.72821 0.81743 0.73355 0.0
H2603 H 0.70427 0.85284 0.77251 0.0
H2604 H 0.64466 0.80846 0.81501 0.0
H2605 H 0.65831 0.82203 0.79153 0.0
H2606 H 0.68987 0.79317 0.76295 0.0
C2607 C 0.72684 0.83097 0.73215 0.0
C2608 C 0.70098 0.83997 0.76989 0.0
C2609 C 0.73601 0.83886 0.71997 0.0
C2610 C 0.65608 0.80355 0.81122 0.0
C2611 C 0.66391 0.81136 0.79786 0.0
C2612 C 0.69287 0.80625 0.76503 0.0
C2613 C 0.71625 0.84032 0.7423 0.0
C2614 C 0.70613 0.8316 0.7551 0.0
C2615 C 0.67896 0.80564 0.79295 0.0
C2616 C 0.68784 0.81468 0.77968 0.0
H2617 H 0.72419 0.8796 0.72706 0.0
H2618 H 0.70748 0.86584 0.74727 0.0
H2619 H 0.70484 0.80771 0.7415 0.0
H2620 H 0.68411 0.77397 0.82175 0.0
H2621 H 0.69737 0.78696 0.79779 0.0
C2622 C 0.72985 0.16352 0.3085 0.0
C2623 C 0.7333 0.17432 0.32205 0.0
C2624 C 0.72331 0.17001 0.29338 0.0
C2625 C 0.71584 0.21082 0.26983 0.0
H2626 H 0.68466 0.18484 0.24592 0.0
C2627 C 0.68938 0.23347 0.20571 0.0
C2628 C 0.67383 0.22945 0.20158 0.0
C2629 C 0.69668 0.22692 0.22031 0.0
C2630 C 0.6932 0.19241 0.2525 0.0
H2631 H 0.73277 0.20042 0.33029 0.0
H2632 H 0.72129 0.21167 0.30439 0.0
H2633 H 0.69753 0.17302 0.27094 0.0
H2634 H 0.65356 0.21573 0.2097 0.0
H2635 H 0.666 0.20471 0.23558 0.0
H2636 H 0.71111 0.23047 0.25187 0.0
C2637 C 0.72384 0.19823 0.30505 0.0
C2638 C 0.70083 0.18546 0.26678 0.0
C2639 C 0.73042 0.19176 0.32002 0.0
C2640 C 0.66555 0.21909 0.21264 0.0
C2641 C 0.6728 0.2126 0.22736 0.0
C2642 C 0.70814 0.21781 0.25566 0.0
C2643 C 0.72001 0.18749 0.29148 0.0
C2644 C 0.71226 0.19457 0.27575 0.0
C2645 C 0.68858 0.21622 0.23134 0.0
C2646 C 0.69667 0.20875 0.24671 0.0
H2647 H 0.73186 0.15002 0.30975 0.0
H2648 H 0.72079 0.16129 0.28322 0.0
H2649 H 0.7247 0.21824 0.2761 0.0
H2650 H 0.69609 0.24133 0.19737 0.0
H2651 H 0.70886 0.22989 0.22263 0.0
C2652 C 0.29052 0.18089 0.71716 0.0
C2653 C 0.28696 0.16377 0.7195 0.0
C2654 C 0.30172 0.18876 0.72729 0.0
C2655 C 0.3213 0.18617 0.76882 0.0
H2656 H 0.34924 0.21884 0.74929 0.0
C2657 C 0.37447 0.23403 0.791 0.0
C2658 C 0.36718 0.2414 0.80519 0.0
C2659 C 0.36614 0.22303 0.78039 0.0
C2660 C 0.34167 0.20962 0.75494 0.0
H2661 H 0.29264 0.14146 0.73434 0.0
H2662 H 0.31225 0.15531 0.75223 0.0
H2663 H 0.33222 0.2023 0.73091 0.0
H2664 H 0.34565 0.24237 0.81971 0.0
H2665 H 0.33127 0.22344 0.80134 0.0
H2666 H 0.33058 0.19366 0.79287 0.0
C2667 C 0.30624 0.16263 0.74251 0.0
C2668 C 0.33178 0.20025 0.74441 0.0
C2669 C 0.29507 0.15466 0.73221 0.0
C2670 C 0.35156 0.23717 0.80873 0.0
C2671 C 0.34335 0.22612 0.7983 0.0
C2672 C 0.3311 0.19563 0.77935 0.0
C2673 C 0.30972 0.17979 0.74014 0.0
C2674 C 0.32127 0.1886 0.75123 0.0
C2675 C 0.35046 0.21894 0.78394 0.0
C2676 C 0.34122 0.20769 0.77258 0.0
H2677 H 0.28474 0.18824 0.70729 0.0
H2678 H 0.30393 0.20202 0.7252 0.0
H2679 H 0.31333 0.17739 0.77453 0.0
H2680 H 0.38648 0.23699 0.78795 0.0
H2681 H 0.372 0.21765 0.76948 0.0
C2682 C 0.2966 0.86476 0.28854 0.0
C2683 C 0.28636 0.85478 0.29805 0.0
C2684 C 0.3067 0.85747 0.2764 0.0
C2685 C 0.32261 0.81485 0.26137 0.0
H2686 H 0.33648 0.84106 0.2232 0.0
C2687 C 0.35019 0.78703 0.19943 0.0
C2688 C 0.36446 0.79405 0.19432 0.0
C2689 C 0.34172 0.79394 0.21303 0.0
C2690 C 0.33278 0.83362 0.23387 0.0
H2691 H 0.27927 0.82879 0.3018 0.0
H2692 H 0.29547 0.81662 0.28005 0.0
H2693 H 0.31921 0.8542 0.2441 0.0
H2694 H 0.38138 0.81327 0.20013 0.0
H2695 H 0.36621 0.82582 0.22351 0.0
H2696 H 0.33559 0.79402 0.25037 0.0
C2697 C 0.29628 0.83005 0.2823 0.0
C2698 C 0.3229 0.84118 0.24601 0.0
C2699 C 0.28651 0.83725 0.29468 0.0
C2700 C 0.37035 0.80771 0.20365 0.0
C2701 C 0.36166 0.81492 0.21697 0.0
C2702 C 0.33214 0.80721 0.24899 0.0
C2703 C 0.30675 0.83994 0.27303 0.0
C2704 C 0.31757 0.83194 0.26003 0.0
C2705 C 0.34714 0.80825 0.22167 0.0
C2706 C 0.33737 0.8165 0.23511 0.0
H2707 H 0.29692 0.87829 0.29037 0.0
H2708 H 0.31462 0.86568 0.26988 0.0
H2709 H 0.31933 0.80724 0.27207 0.0
H2710 H 0.34532 0.77652 0.19253 0.0
H2711 H 0.33059 0.78851 0.21637 0.0
loop_
_geom_bond_atom_site_label_1
_geom_bond_atom_site_label_2
_geom_bond_distance
_geom_bond_site_symmetry_2
_ccdc_geom_bond_type
C0 C1 1.443 . S
C0 N4 1.376 . S
C0 C38 1.389 . S
C1 C0 1.443 . S
C1 C2 1.340 . S
C1 H41 0.951 . S
C2 C1 1.340 . S
C2 C3 1.439 . S
C2 H42 0.950 . S
C3 C2 1.439 . S
C3 N4 1.374 . S
C3 C37 1.395 . S
N4 C0 1.376 . S
N4 C3 1.374 . S
N4 Co5 2.008 . S
Co5 N4 2.008 . S
Co5 N6 1.995 . S
Co5 N11 2.008 . S
Co5 N16 1.995 . S
Co5 N21 2.282 . S
Co5 N27 2.282 . S
N6 Co5 1.995 . S
N6 C7 1.376 . S
N6 C10 1.383 . S
C7 N6 1.376 . S
C7 C8 1.446 . S
C7 C37 1.391 . S
C8 C7 1.446 . S
C8 C9 1.339 . S
C8 H43 0.949 . S
C9 C8 1.339 . S
C9 C10 1.439 . S
C9 H44 0.950 . S
C10 N6 1.383 . S
C10 C9 1.439 . S
C10 C39 1.392 . S
N11 Co5 2.008 . S
N11 C12 1.376 . S
N11 C15 1.374 . S
C12 N11 1.376 . S
C12 C13 1.443 . S
C12 C39 1.389 . S
C13 C12 1.443 . S
C13 C14 1.340 . S
C13 H45 0.951 . S
C14 C13 1.340 . S
C14 C15 1.439 . S
C14 H46 0.950 . S
C15 N11 1.374 . S
C15 C14 1.439 . S
C15 C40 1.395 . S
N16 Co5 1.995 . S
N16 C17 1.376 . S
N16 C20 1.383 . S
C17 N16 1.376 . S
C17 C18 1.446 . S
C17 C40 1.391 . S
C18 C17 1.446 . S
C18 C19 1.339 . S
C18 H47 0.949 . S
C19 C18 1.339 . S
C19 C20 1.439 . S
C19 H48 0.950 . S
C20 N16 1.383 . S
C20 C19 1.439 . S
C20 C38 1.392 . S
N21 Co5 2.282 . S
N21 C24 1.332 . S
N21 C26 1.332 . S
C22 C23 1.386 . S
C22 C25 1.388 . S
C23 C22 1.386 . S
C23 C24 1.382 . S
C23 H49 0.950 . S
C24 N21 1.332 . S
C24 C23 1.382 . S
C24 H35 0.952 . S
C25 C22 1.388 . S
C25 C26 1.382 . S
C25 H50 0.950 . S
C26 N21 1.332 . S
C26 C25 1.382 . S
C26 H36 0.948 . S
N27 Co5 2.282 . S
N27 C31 1.332 . S
N27 C32 1.332 . S
C28 C29 1.388 . S
C28 C32 1.382 . S
C28 H51 0.950 . S
C29 C28 1.388 . S
C29 C30 1.386 . S
C30 C29 1.386 . S
C30 C31 1.382 . S
C30 H52 0.950 . S
C31 N27 1.332 . S
C31 C30 1.382 . S
C31 H33 0.952 . S
C32 N27 1.332 . S
C32 C28 1.382 . S
C32 H34 0.948 . S
H33 C31 0.952 . S
H34 C32 0.948 . S
H35 C24 0.952 . S
H36 C26 0.948 . S
C37 C3 1.395 . S
C37 C7 1.391 . S
C38 C0 1.389 . S
C38 C20 1.392 . S
C39 C10 1.392 . S
C39 C12 1.389 . S
C40 C15 1.395 . S
C40 C17 1.391 . S
H41 C1 0.951 . S
H42 C2 0.950 . S
H43 C8 0.949 . S
H44 C9 0.950 . S
H45 C13 0.951 . S
H46 C14 0.950 . S
H47 C18 0.949 . S
H48 C19 0.950 . S
H49 C23 0.950 . S
H50 C25 0.950 . S
H51 C28 0.950 . S
H52 C30 0.950 . S
C53 C54 1.443 . S
C53 N57 1.376 . S
C53 C91 1.389 . S
C54 C53 1.443 . S
C54 C55 1.340 . S
C54 H94 0.951 . S
C55 C54 1.340 . S
C55 C56 1.439 . S
C55 H95 0.950 . S
C56 C55 1.439 . S
C56 N57 1.374 . S
C56 C90 1.395 . S
N57 C53 1.376 . S
N57 C56 1.374 . S
N57 Co58 2.008 . S
Co58 N57 2.008 . S
Co58 N59 1.995 . S
Co58 N64 2.008 . S
Co58 N69 1.995 . S
Co58 N74 2.282 . S
Co58 N80 2.282 . S
N59 Co58 1.995 . S
N59 C60 1.376 . S
N59 C63 1.383 . S
C60 N59 1.376 . S
C60 C61 1.446 . S
C60 C90 1.391 . S
C61 C60 1.446 . S
C61 C62 1.339 . S
C61 H96 0.949 . S
C62 C61 1.339 . S
C62 C63 1.439 . S
C62 H97 0.950 . S
C63 N59 1.383 . S
C63 C62 1.439 . S
C63 C92 1.392 . S
N64 Co58 2.008 . S
N64 C65 1.376 . S
N64 C68 1.374 . S
C65 N64 1.376 . S
C65 C66 1.443 . S
C65 C92 1.389 . S
C66 C65 1.443 . S
C66 C67 1.340 . S
C66 H98 0.951 . S
C67 C66 1.340 . S
C67 C68 1.439 . S
C67 H99 0.950 . S
C68 N64 1.374 . S
C68 C67 1.439 . S
C68 C93 1.395 . S
N69 Co58 1.995 . S
N69 C70 1.376 . S
N69 C73 1.383 . S
C70 N69 1.376 . S
C70 C71 1.446 . S
C70 C93 1.391 . S
C71 C70 1.446 . S
C71 C72 1.339 . S
C71 H100 0.949 . S
C72 C71 1.339 . S
C72 C73 1.439 . S
C72 H101 0.950 . S
C73 N69 1.383 . S
C73 C72 1.439 . S
C73 C91 1.392 . S
N74 Co58 2.282 . S
N74 C77 1.332 . S
N74 C79 1.332 . S
C75 C76 1.386 . S
C75 C78 1.388 . S
C76 C75 1.386 . S
C76 C77 1.382 . S
C76 H102 0.950 . S
C77 N74 1.332 . S
C77 C76 1.382 . S
C77 H88 0.952 . S
C78 C75 1.388 . S
C78 C79 1.382 . S
C78 H103 0.950 . S
C79 N74 1.332 . S
C79 C78 1.382 . S
C79 H89 0.948 . S
N80 Co58 2.282 . S
N80 C84 1.332 . S
N80 C85 1.332 . S
C81 C82 1.388 . S
C81 C85 1.382 . S
C81 H104 0.950 . S
C82 C81 1.388 . S
C82 C83 1.386 . S
C83 C82 1.386 . S
C83 C84 1.382 . S
C83 H105 0.950 . S
C84 N80 1.332 . S
C84 C83 1.382 . S
C84 H86 0.952 . S
C85 N80 1.332 . S
C85 C81 1.382 . S
C85 H87 0.948 . S
H86 C84 0.952 . S
H87 C85 0.948 . S
H88 C77 0.952 . S
H89 C79 0.948 . S
C90 C56 1.395 . S
C90 C60 1.391 . S
C91 C53 1.389 . S
C91 C73 1.392 . S
C92 C63 1.392 . S
C92 C65 1.389 . S
C93 C68 1.395 . S
C93 C70 1.391 . S
H94 C54 0.951 . S
H95 C55 0.950 . S
H96 C61 0.949 . S
H97 C62 0.950 . S
H98 C66 0.951 . S
H99 C67 0.950 . S
H100 C71 0.949 . S
H101 C72 0.950 . S
H102 C76 0.950 . S
H103 C78 0.950 . S
H104 C81 0.950 . S
H105 C83 0.950 . S
C106 C107 1.443 . S
C106 N110 1.376 . S
C106 C144 1.389 . S
C107 C106 1.443 . S
C107 C108 1.340 . S
C107 H147 0.951 . S
C108 C107 1.340 . S
C108 C109 1.439 . S
C108 H148 0.950 . S
C109 C108 1.439 . S
C109 N110 1.374 . S
C109 C143 1.395 . S
N110 C106 1.376 . S
N110 C109 1.374 . S
N110 Co111 2.008 . S
Co111 N110 2.008 . S
Co111 N112 1.995 . S
Co111 N117 2.008 . S
Co111 N122 1.995 . S
Co111 N127 2.282 . S
Co111 N133 2.282 . S
N112 Co111 1.995 . S
N112 C113 1.376 . S
N112 C116 1.383 . S
C113 N112 1.376 . S
C113 C114 1.446 . S
C113 C143 1.391 . S
C114 C113 1.446 . S
C114 C115 1.339 . S
C114 H149 0.949 . S
C115 C114 1.339 . S
C115 C116 1.439 . S
C115 H150 0.950 . S
C116 N112 1.383 . S
C116 C115 1.439 . S
C116 C145 1.392 . S
N117 Co111 2.008 . S
N117 C118 1.376 . S
N117 C121 1.374 . S
C118 N117 1.376 . S
C118 C119 1.443 . S
C118 C145 1.389 . S
C119 C118 1.443 . S
C119 C120 1.340 . S
C119 H151 0.951 . S
C120 C119 1.340 . S
C120 C121 1.439 . S
C120 H152 0.950 . S
C121 N117 1.374 . S
C121 C120 1.439 . S
C121 C146 1.395 . S
N122 Co111 1.995 . S
N122 C123 1.376 . S
N122 C126 1.383 . S
C123 N122 1.376 . S
C123 C124 1.446 . S
C123 C146 1.391 . S
C124 C123 1.446 . S
C124 C125 1.339 . S
C124 H153 0.949 . S
C125 C124 1.339 . S
C125 C126 1.439 . S
C125 H154 0.950 . S
C126 N122 1.383 . S
C126 C125 1.439 . S
C126 C144 1.392 . S
N127 Co111 2.282 . S
N127 C130 1.332 . S
N127 C132 1.332 . S
C128 C129 1.386 . S
C128 C131 1.388 . S
C129 C128 1.386 . S
C129 C130 1.382 . S
C129 H155 0.950 . S
C130 N127 1.332 . S
C130 C129 1.382 . S
C130 H141 0.952 . S
C131 C128 1.388 . S
C131 C132 1.382 . S
C131 H156 0.950 . S
C132 N127 1.332 . S
C132 C131 1.382 . S
C132 H142 0.948 . S
N133 Co111 2.282 . S
N133 C137 1.332 . S
N133 C138 1.332 . S
C134 C135 1.388 . S
C134 C138 1.382 . S
C134 H157 0.950 . S
C135 C134 1.388 . S
C135 C136 1.386 . S
C136 C135 1.386 . S
C136 C137 1.382 . S
C136 H158 0.950 . S
C137 N133 1.332 . S
C137 C136 1.382 . S
C137 H139 0.952 . S
C138 N133 1.332 . S
C138 C134 1.382 . S
C138 H140 0.948 . S
H139 C137 0.952 . S
H140 C138 0.948 . S
H141 C130 0.952 . S
H142 C132 0.948 . S
C143 C109 1.395 . S
C143 C113 1.391 . S
C144 C106 1.389 . S
C144 C126 1.392 . S
C145 C116 1.392 . S
C145 C118 1.389 . S
C146 C121 1.395 . S
C146 C123 1.391 . S
H147 C107 0.951 . S
H148 C108 0.950 . S
H149 C114 0.949 . S
H150 C115 0.950 . S
H151 C119 0.951 . S
H152 C120 0.950 . S
H153 C124 0.949 . S
H154 C125 0.950 . S
H155 C129 0.950 . S
H156 C131 0.950 . S
H157 C134 0.950 . S
H158 C136 0.950 . S
C159 C160 1.443 . S
C159 N163 1.376 . S
C159 C197 1.389 . S
C160 C159 1.443 . S
C160 C161 1.340 . S
C160 H200 0.951 . S
C161 C160 1.340 . S
C161 C162 1.439 . S
C161 H201 0.950 . S
C162 C161 1.439 . S
C162 N163 1.374 . S
C162 C196 1.395 . S
N163 C159 1.376 . S
N163 C162 1.374 . S
N163 Co164 2.008 . S
Co164 N163 2.008 . S
Co164 N165 1.995 . S
Co164 N170 2.008 . S
Co164 N175 1.995 . S
Co164 N180 2.282 . S
Co164 N186 2.282 . S
N165 Co164 1.995 . S
N165 C166 1.376 . S
N165 C169 1.383 . S
C166 N165 1.376 . S
C166 C167 1.446 . S
C166 C196 1.391 . S
C167 C166 1.446 . S
C167 C168 1.339 . S
C167 H202 0.949 . S
C168 C167 1.339 . S
C168 C169 1.439 . S
C168 H203 0.950 . S
C169 N165 1.383 . S
C169 C168 1.439 . S
C169 C198 1.392 . S
N170 Co164 2.008 . S
N170 C171 1.376 . S
N170 C174 1.374 . S
C171 N170 1.376 . S
C171 C172 1.443 . S
C171 C198 1.389 . S
C172 C171 1.443 . S
C172 C173 1.340 . S
C172 H204 0.951 . S
C173 C172 1.340 . S
C173 C174 1.439 . S
C173 H205 0.950 . S
C174 N170 1.374 . S
C174 C173 1.439 . S
C174 C199 1.395 . S
N175 Co164 1.995 . S
N175 C176 1.376 . S
N175 C179 1.383 . S
C176 N175 1.376 . S
C176 C177 1.446 . S
C176 C199 1.391 . S
C177 C176 1.446 . S
C177 C178 1.339 . S
C177 H206 0.949 . S
C178 C177 1.339 . S
C178 C179 1.439 . S
C178 H207 0.950 . S
C179 N175 1.383 . S
C179 C178 1.439 . S
C179 C197 1.392 . S
N180 Co164 2.282 . S
N180 C183 1.332 . S
N180 C185 1.332 . S
C181 C182 1.386 . S
C181 C184 1.388 . S
C182 C181 1.386 . S
C182 C183 1.382 . S
C182 H208 0.950 . S
C183 N180 1.332 . S
C183 C182 1.382 . S
C183 H194 0.952 . S
C184 C181 1.388 . S
C184 C185 1.382 . S
C184 H209 0.950 . S
C185 N180 1.332 . S
C185 C184 1.382 . S
C185 H195 0.948 . S
N186 Co164 2.282 . S
N186 C190 1.332 . S
N186 C191 1.332 . S
C187 C188 1.388 . S
C187 C191 1.382 . S
C187 H210 0.950 . S
C188 C187 1.388 . S
C188 C189 1.386 . S
C189 C188 1.386 . S
C189 C190 1.382 . S
C189 H211 0.950 . S
C190 N186 1.332 . S
C190 C189 1.382 . S
C190 H192 0.952 . S
C191 N186 1.332 . S
C191 C187 1.382 . S
C191 H193 0.948 . S
H192 C190 0.952 . S
H193 C191 0.948 . S
H194 C183 0.952 . S
H195 C185 0.948 . S
C196 C162 1.395 . S
C196 C166 1.391 . S
C197 C159 1.389 . S
C197 C179 1.392 . S
C198 C169 1.392 . S
C198 C171 1.389 . S
C199 C174 1.395 . S
C199 C176 1.391 . S
H200 C160 0.951 . S
H201 C161 0.950 . S
H202 C167 0.949 . S
H203 C168 0.950 . S
H204 C172 0.951 . S
H205 C173 0.950 . S
H206 C177 0.949 . S
H207 C178 0.950 . S
H208 C182 0.950 . S
H209 C184 0.950 . S
H210 C187 0.950 . S
H211 C189 0.950 . S
C212 C213 1.443 . S
C212 N216 1.376 . S
C212 C250 1.389 . S
C213 C212 1.443 . S
C213 C214 1.340 . S
C213 H253 0.951 . S
C214 C213 1.340 . S
C214 C215 1.439 . S
C214 H254 0.950 . S
C215 C214 1.439 . S
C215 N216 1.374 . S
C215 C249 1.395 . S
N216 C212 1.376 . S
N216 C215 1.374 . S
N216 Co217 2.008 . S
Co217 N216 2.008 . S
Co217 N218 1.995 . S
Co217 N223 2.008 . S
Co217 N228 1.995 . S
Co217 N233 2.282 . S
Co217 N239 2.282 . S
N218 Co217 1.995 . S
N218 C219 1.376 . S
N218 C222 1.383 . S
C219 N218 1.376 . S
C219 C220 1.446 . S
C219 C249 1.391 . S
C220 C219 1.446 . S
C220 C221 1.339 . S
C220 H255 0.949 . S
C221 C220 1.339 . S
C221 C222 1.439 . S
C221 H256 0.950 . S
C222 N218 1.383 . S
C222 C221 1.439 . S
C222 C251 1.392 . S
N223 Co217 2.008 . S
N223 C224 1.376 . S
N223 C227 1.374 . S
C224 N223 1.376 . S
C224 C225 1.443 . S
C224 C251 1.389 . S
C225 C224 1.443 . S
C225 C226 1.340 . S
C225 H257 0.951 . S
C226 C225 1.340 . S
C226 C227 1.439 . S
C226 H258 0.950 . S
C227 N223 1.374 . S
C227 C226 1.439 . S
C227 C252 1.395 . S
N228 Co217 1.995 . S
N228 C229 1.376 . S
N228 C232 1.383 . S
C229 N228 1.376 . S
C229 C230 1.446 . S
C229 C252 1.391 . S
C230 C229 1.446 . S
C230 C231 1.339 . S
C230 H259 0.949 . S
C231 C230 1.339 . S
C231 C232 1.439 . S
C231 H260 0.950 . S
C232 N228 1.383 . S
C232 C231 1.439 . S
C232 C250 1.392 . S
N233 Co217 2.282 . S
N233 C236 1.332 . S
N233 C238 1.332 . S
C234 C235 1.386 . S
C234 C237 1.388 . S
C235 C234 1.386 . S
C235 C236 1.382 . S
C235 H261 0.950 . S
C236 N233 1.332 . S
C236 C235 1.382 . S
C236 H247 0.952 . S
C237 C234 1.388 . S
C237 C238 1.382 . S
C237 H262 0.950 . S
C238 N233 1.332 . S
C238 C237 1.382 . S
C238 H248 0.948 . S
N239 Co217 2.282 . S
N239 C243 1.332 . S
N239 C244 1.332 . S
C240 C241 1.388 . S
C240 C244 1.382 . S
C240 H263 0.950 . S
C241 C240 1.388 . S
C241 C242 1.386 . S
C242 C241 1.386 . S
C242 C243 1.382 . S
C242 H264 0.950 . S
C243 N239 1.332 . S
C243 C242 1.382 . S
C243 H245 0.952 . S
C244 N239 1.332 . S
C244 C240 1.382 . S
C244 H246 0.948 . S
H245 C243 0.952 . S
H246 C244 0.948 . S
H247 C236 0.952 . S
H248 C238 0.948 . S
C249 C215 1.395 . S
C249 C219 1.391 . S
C250 C212 1.389 . S
C250 C232 1.392 . S
C251 C222 1.392 . S
C251 C224 1.389 . S
C252 C227 1.395 . S
C252 C229 1.391 . S
H253 C213 0.951 . S
H254 C214 0.950 . S
H255 C220 0.949 . S
H256 C221 0.950 . S
H257 C225 0.951 . S
H258 C226 0.950 . S
H259 C230 0.949 . S
H260 C231 0.950 . S
H261 C235 0.950 . S
H262 C237 0.950 . S
H263 C240 0.950 . S
H264 C242 0.950 . S
C265 C266 1.443 . S
C265 N269 1.376 . S
C265 C303 1.389 . S
C266 C265 1.443 . S
C266 C267 1.340 . S
C266 H306 0.951 . S
C267 C266 1.340 . S
C267 C268 1.439 . S
C267 H307 0.950 . S
C268 C267 1.439 . S
C268 N269 1.374 . S
C268 C302 1.395 . S
N269 C265 1.376 . S
N269 C268 1.374 . S
N269 Co270 2.008 . S
Co270 N269 2.008 . S
Co270 N271 1.995 . S
Co270 N276 2.008 . S
Co270 N281 1.995 . S
Co270 N286 2.282 . S
Co270 N292 2.282 . S
N271 Co270 1.995 . S
N271 C272 1.376 . S
N271 C275 1.383 . S
C272 N271 1.376 . S
C272 C273 1.446 . S
C272 C302 1.391 . S
C273 C272 1.446 . S
C273 C274 1.339 . S
C273 H308 0.949 . S
C274 C273 1.339 . S
C274 C275 1.439 . S
C274 H309 0.950 . S
C275 N271 1.383 . S
C275 C274 1.439 . S
C275 C304 1.392 . S
N276 Co270 2.008 . S
N276 C277 1.376 . S
N276 C280 1.374 . S
C277 N276 1.376 . S
C277 C278 1.443 . S
C277 C304 1.389 . S
C278 C277 1.443 . S
C278 C279 1.340 . S
C278 H310 0.951 . S
C279 C278 1.340 . S
C279 C280 1.439 . S
C279 H311 0.950 . S
C280 N276 1.374 . S
C280 C279 1.439 . S
C280 C305 1.395 . S
N281 Co270 1.995 . S
N281 C282 1.376 . S
N281 C285 1.383 . S
C282 N281 1.376 . S
C282 C283 1.446 . S
C282 C305 1.391 . S
C283 C282 1.446 . S
C283 C284 1.339 . S
C283 H312 0.949 . S
C284 C283 1.339 . S
C284 C285 1.439 . S
C284 H313 0.950 . S
C285 N281 1.383 . S
C285 C284 1.439 . S
C285 C303 1.392 . S
N286 Co270 2.282 . S
N286 C289 1.332 . S
N286 C291 1.332 . S
C287 C288 1.386 . S
C287 C290 1.388 . S
C288 C287 1.386 . S
C288 C289 1.382 . S
C288 H314 0.950 . S
C289 N286 1.332 . S
C289 C288 1.382 . S
C289 H300 0.952 . S
C290 C287 1.388 . S
C290 C291 1.382 . S
C290 H315 0.950 . S
C291 N286 1.332 . S
C291 C290 1.382 . S
C291 H301 0.948 . S
N292 Co270 2.282 . S
N292 C296 1.332 . S
N292 C297 1.332 . S
C293 C294 1.388 . S
C293 C297 1.382 . S
C293 H316 0.950 . S
C294 C293 1.388 . S
C294 C295 1.386 . S
C295 C294 1.386 . S
C295 C296 1.382 . S
C295 H317 0.950 . S
C296 N292 1.332 . S
C296 C295 1.382 . S
C296 H298 0.952 . S
C297 N292 1.332 . S
C297 C293 1.382 . S
C297 H299 0.948 . S
H298 C296 0.952 . S
H299 C297 0.948 . S
H300 C289 0.952 . S
H301 C291 0.948 . S
C302 C268 1.395 . S
C302 C272 1.391 . S
C303 C265 1.389 . S
C303 C285 1.392 . S
C304 C275 1.392 . S
C304 C277 1.389 . S
C305 C280 1.395 . S
C305 C282 1.391 . S
H306 C266 0.951 . S
H307 C267 0.950 . S
H308 C273 0.949 . S
H309 C274 0.950 . S
H310 C278 0.951 . S
H311 C279 0.950 . S
H312 C283 0.949 . S
H313 C284 0.950 . S
H314 C288 0.950 . S
H315 C290 0.950 . S
H316 C293 0.950 . S
H317 C295 0.950 . S
C318 C319 1.443 . S
C318 N322 1.376 . S
C318 C356 1.389 . S
C319 C318 1.443 . S
C319 C320 1.340 . S
C319 H359 0.951 . S
C320 C319 1.340 . S
C320 C321 1.439 . S
C320 H360 0.950 . S
C321 C320 1.439 . S
C321 N322 1.374 . S
C321 C355 1.395 . S
N322 C318 1.376 . S
N322 C321 1.374 . S
N322 Co323 2.008 . S
Co323 N322 2.008 . S
Co323 N324 1.995 . S
Co323 N329 2.008 . S
Co323 N334 1.995 . S
Co323 N339 2.282 . S
Co323 N345 2.282 . S
N324 Co323 1.995 . S
N324 C325 1.376 . S
N324 C328 1.383 . S
C325 N324 1.376 . S
C325 C326 1.446 . S
C325 C355 1.391 . S
C326 C325 1.446 . S
C326 C327 1.339 . S
C326 H361 0.949 . S
C327 C326 1.339 . S
C327 C328 1.439 . S
C327 H362 0.950 . S
C328 N324 1.383 . S
C328 C327 1.439 . S
C328 C357 1.392 . S
N329 Co323 2.008 . S
N329 C330 1.376 . S
N329 C333 1.374 . S
C330 N329 1.376 . S
C330 C331 1.443 . S
C330 C357 1.389 . S
C331 C330 1.443 . S
C331 C332 1.340 . S
C331 H363 0.951 . S
C332 C331 1.340 . S
C332 C333 1.439 . S
C332 H364 0.950 . S
C333 N329 1.374 . S
C333 C332 1.439 . S
C333 C358 1.395 . S
N334 Co323 1.995 . S
N334 C335 1.376 . S
N334 C338 1.383 . S
C335 N334 1.376 . S
C335 C336 1.446 . S
C335 C358 1.391 . S
C336 C335 1.446 . S
C336 C337 1.339 . S
C336 H365 0.949 . S
C337 C336 1.339 . S
C337 C338 1.439 . S
C337 H366 0.950 . S
C338 N334 1.383 . S
C338 C337 1.439 . S
C338 C356 1.392 . S
N339 Co323 2.282 . S
N339 C342 1.332 . S
N339 C344 1.332 . S
C340 C341 1.386 . S
C340 C343 1.388 . S
C341 C340 1.386 . S
C341 C342 1.382 . S
C341 H367 0.950 . S
C342 N339 1.332 . S
C342 C341 1.382 . S
C342 H353 0.952 . S
C343 C340 1.388 . S
C343 C344 1.382 . S
C343 H368 0.950 . S
C344 N339 1.332 . S
C344 C343 1.382 . S
C344 H354 0.948 . S
N345 Co323 2.282 . S
N345 C349 1.332 . S
N345 C350 1.332 . S
C346 C347 1.388 . S
C346 C350 1.382 . S
C346 H369 0.950 . S
C347 C346 1.388 . S
C347 C348 1.386 . S
C348 C347 1.386 . S
C348 C349 1.382 . S
C348 H370 0.950 . S
C349 N345 1.332 . S
C349 C348 1.382 . S
C349 H351 0.952 . S
C350 N345 1.332 . S
C350 C346 1.382 . S
C350 H352 0.948 . S
H351 C349 0.952 . S
H352 C350 0.948 . S
H353 C342 0.952 . S
H354 C344 0.948 . S
C355 C321 1.395 . S
C355 C325 1.391 . S
C356 C318 1.389 . S
C356 C338 1.392 . S
C357 C328 1.392 . S
C357 C330 1.389 . S
C358 C333 1.395 . S
C358 C335 1.391 . S
H359 C319 0.951 . S
H360 C320 0.950 . S
H361 C326 0.949 . S
H362 C327 0.950 . S
H363 C331 0.951 . S
H364 C332 0.950 . S
H365 C336 0.949 . S
H366 C337 0.950 . S
H367 C341 0.950 . S
H368 C343 0.950 . S
H369 C346 0.950 . S
H370 C348 0.950 . S
C371 C372 1.443 . S
C371 N375 1.376 . S
C371 C409 1.389 . S
C372 C371 1.443 . S
C372 C373 1.340 . S
C372 H412 0.951 . S
C373 C372 1.340 . S
C373 C374 1.439 . S
C373 H413 0.950 . S
C374 C373 1.439 . S
C374 N375 1.374 . S
C374 C408 1.395 . S
N375 C371 1.376 . S
N375 C374 1.374 . S
N375 Co376 2.008 . S
Co376 N375 2.008 . S
Co376 N377 1.995 . S
Co376 N382 2.008 . S
Co376 N387 1.995 . S
Co376 N392 2.282 . S
Co376 N398 2.282 . S
N377 Co376 1.995 . S
N377 C378 1.376 . S
N377 C381 1.383 . S
C378 N377 1.376 . S
C378 C379 1.446 . S
C378 C408 1.391 . S
C379 C378 1.446 . S
C379 C380 1.339 . S
C379 H414 0.949 . S
C380 C379 1.339 . S
C380 C381 1.439 . S
C380 H415 0.950 . S
C381 N377 1.383 . S
C381 C380 1.439 . S
C381 C410 1.392 . S
N382 Co376 2.008 . S
N382 C383 1.376 . S
N382 C386 1.374 . S
C383 N382 1.376 . S
C383 C384 1.443 . S
C383 C410 1.389 . S
C384 C383 1.443 . S
C384 C385 1.340 . S
C384 H416 0.951 . S
C385 C384 1.340 . S
C385 C386 1.439 . S
C385 H417 0.950 . S
C386 N382 1.374 . S
C386 C385 1.439 . S
C386 C411 1.395 . S
N387 Co376 1.995 . S
N387 C388 1.376 . S
N387 C391 1.383 . S
C388 N387 1.376 . S
C388 C389 1.446 . S
C388 C411 1.391 . S
C389 C388 1.446 . S
C389 C390 1.339 . S
C389 H418 0.949 . S
C390 C389 1.339 . S
C390 C391 1.439 . S
C390 H419 0.950 . S
C391 N387 1.383 . S
C391 C390 1.439 . S
C391 C409 1.392 . S
N392 Co376 2.282 . S
N392 C395 1.332 . S
N392 C397 1.332 . S
C393 C394 1.386 . S
C393 C396 1.388 . S
C394 C393 1.386 . S
C394 C395 1.382 . S
C394 H420 0.950 . S
C395 N392 1.332 . S
C395 C394 1.382 . S
C395 H406 0.952 . S
C396 C393 1.388 . S
C396 C397 1.382 . S
C396 H421 0.950 . S
C397 N392 1.332 . S
C397 C396 1.382 . S
C397 H407 0.948 . S
N398 Co376 2.282 . S
N398 C402 1.332 . S
N398 C403 1.332 . S
C399 C400 1.388 . S
C399 C403 1.382 . S
C399 H422 0.950 . S
C400 C399 1.388 . S
C400 C401 1.386 . S
C401 C400 1.386 . S
C401 C402 1.382 . S
C401 H423 0.950 . S
C402 N398 1.332 . S
C402 C401 1.382 . S
C402 H404 0.952 . S
C403 N398 1.332 . S
C403 C399 1.382 . S
C403 H405 0.948 . S
H404 C402 0.952 . S
H405 C403 0.948 . S
H406 C395 0.952 . S
H407 C397 0.948 . S
C408 C374 1.395 . S
C408 C378 1.391 . S
C409 C371 1.389 . S
C409 C391 1.392 . S
C410 C381 1.392 . S
C410 C383 1.389 . S
C411 C386 1.395 . S
C411 C388 1.391 . S
H412 C372 0.951 . S
H413 C373 0.950 . S
H414 C379 0.949 . S
H415 C380 0.950 . S
H416 C384 0.951 . S
H417 C385 0.950 . S
H418 C389 0.949 . S
H419 C390 0.950 . S
H420 C394 0.950 . S
H421 C396 0.950 . S
H422 C399 0.950 . S
H423 C401 0.950 . S
C424 C425 1.443 . S
C424 N428 1.376 . S
C424 C462 1.389 . S
C425 C424 1.443 . S
C425 C426 1.340 . S
C425 H465 0.951 . S
C426 C425 1.340 . S
C426 C427 1.439 . S
C426 H466 0.950 . S
C427 C426 1.439 . S
C427 N428 1.374 . S
C427 C461 1.395 . S
N428 C424 1.376 . S
N428 C427 1.374 . S
N428 Co429 2.008 . S
Co429 N428 2.008 . S
Co429 N430 1.995 . S
Co429 N435 2.008 . S
Co429 N440 1.995 . S
Co429 N445 2.282 . S
Co429 N451 2.282 . S
N430 Co429 1.995 . S
N430 C431 1.376 . S
N430 C434 1.383 . S
C431 N430 1.376 . S
C431 C432 1.446 . S
C431 C461 1.391 . S
C432 C431 1.446 . S
C432 C433 1.339 . S
C432 H467 0.949 . S
C433 C432 1.339 . S
C433 C434 1.439 . S
C433 H468 0.950 . S
C434 N430 1.383 . S
C434 C433 1.439 . S
C434 C463 1.392 . S
N435 Co429 2.008 . S
N435 C436 1.376 . S
N435 C439 1.374 . S
C436 N435 1.376 . S
C436 C437 1.443 . S
C436 C463 1.389 . S
C437 C436 1.443 . S
C437 C438 1.340 . S
C437 H469 0.951 . S
C438 C437 1.340 . S
C438 C439 1.439 . S
C438 H470 0.950 . S
C439 N435 1.374 . S
C439 C438 1.439 . S
C439 C464 1.395 . S
N440 Co429 1.995 . S
N440 C441 1.376 . S
N440 C444 1.383 . S
C441 N440 1.376 . S
C441 C442 1.446 . S
C441 C464 1.391 . S
C442 C441 1.446 . S
C442 C443 1.339 . S
C442 H471 0.949 . S
C443 C442 1.339 . S
C443 C444 1.439 . S
C443 H472 0.950 . S
C444 N440 1.383 . S
C444 C443 1.439 . S
C444 C462 1.392 . S
N445 Co429 2.282 . S
N445 C448 1.332 . S
N445 C450 1.332 . S
C446 C447 1.386 . S
C446 C449 1.388 . S
C447 C446 1.386 . S
C447 C448 1.382 . S
C447 H473 0.950 . S
C448 N445 1.332 . S
C448 C447 1.382 . S
C448 H459 0.952 . S
C449 C446 1.388 . S
C449 C450 1.382 . S
C449 H474 0.950 . S
C450 N445 1.332 . S
C450 C449 1.382 . S
C450 H460 0.948 . S
N451 Co429 2.282 . S
N451 C455 1.332 . S
N451 C456 1.332 . S
C452 C453 1.388 . S
C452 C456 1.382 . S
C452 H475 0.950 . S
C453 C452 1.388 . S
C453 C454 1.386 . S
C454 C453 1.386 . S
C454 C455 1.382 . S
C454 H476 0.950 . S
C455 N451 1.332 . S
C455 C454 1.382 . S
C455 H457 0.952 . S
C456 N451 1.332 . S
C456 C452 1.382 . S
C456 H458 0.948 . S
H457 C455 0.952 . S
H458 C456 0.948 . S
H459 C448 0.952 . S
H460 C450 0.948 . S
C461 C427 1.395 . S
C461 C431 1.391 . S
C462 C424 1.389 . S
C462 C444 1.392 . S
C463 C434 1.392 . S
C463 C436 1.389 . S
C464 C439 1.395 . S
C464 C441 1.391 . S
H465 C425 0.951 . S
H466 C426 0.950 . S
H467 C432 0.949 . S
H468 C433 0.950 . S
H469 C437 0.951 . S
H470 C438 0.950 . S
H471 C442 0.949 . S
H472 C443 0.950 . S
H473 C447 0.950 . S
H474 C449 0.950 . S
H475 C452 0.950 . S
H476 C454 0.950 . S
C477 C478 1.443 . S
C477 N481 1.376 . S
C477 C515 1.389 . S
C478 C477 1.443 . S
C478 C479 1.340 . S
C478 H518 0.951 . S
C479 C478 1.340 . S
C479 C480 1.439 . S
C479 H519 0.950 . S
C480 C479 1.439 . S
C480 N481 1.374 . S
C480 C514 1.395 . S
N481 C477 1.376 . S
N481 C480 1.374 . S
N481 Co482 2.008 . S
Co482 N481 2.008 . S
Co482 N483 1.995 . S
Co482 N488 2.008 . S
Co482 N493 1.995 . S
Co482 N498 2.282 . S
Co482 N504 2.282 . S
N483 Co482 1.995 . S
N483 C484 1.376 . S
N483 C487 1.383 . S
C484 N483 1.376 . S
C484 C485 1.446 . S
C484 C514 1.391 . S
C485 C484 1.446 . S
C485 C486 1.339 . S
C485 H520 0.949 . S
C486 C485 1.339 . S
C486 C487 1.439 . S
C486 H521 0.950 . S
C487 N483 1.383 . S
C487 C486 1.439 . S
C487 C516 1.392 . S
N488 Co482 2.008 . S
N488 C489 1.376 . S
N488 C492 1.374 . S
C489 N488 1.376 . S
C489 C490 1.443 . S
C489 C516 1.389 . S
C490 C489 1.443 . S
C490 C491 1.340 . S
C490 H522 0.951 . S
C491 C490 1.340 . S
C491 C492 1.439 . S
C491 H523 0.950 . S
C492 N488 1.374 . S
C492 C491 1.439 . S
C492 C517 1.395 . S
N493 Co482 1.995 . S
N493 C494 1.376 . S
N493 C497 1.383 . S
C494 N493 1.376 . S
C494 C495 1.446 . S
C494 C517 1.391 . S
C495 C494 1.446 . S
C495 C496 1.339 . S
C495 H524 0.949 . S
C496 C495 1.339 . S
C496 C497 1.439 . S
C496 H525 0.950 . S
C497 N493 1.383 . S
C497 C496 1.439 . S
C497 C515 1.392 . S
N498 Co482 2.282 . S
N498 C501 1.332 . S
N498 C503 1.332 . S
C499 C500 1.386 . S
C499 C502 1.388 . S
C500 C499 1.386 . S
C500 C501 1.382 . S
C500 H526 0.950 . S
C501 N498 1.332 . S
C501 C500 1.382 . S
C501 H512 0.952 . S
C502 C499 1.388 . S
C502 C503 1.382 . S
C502 H527 0.950 . S
C503 N498 1.332 . S
C503 C502 1.382 . S
C503 H513 0.948 . S
N504 Co482 2.282 . S
N504 C508 1.332 . S
N504 C509 1.332 . S
C505 C506 1.388 . S
C505 C509 1.382 . S
C505 H528 0.950 . S
C506 C505 1.388 . S
C506 C507 1.386 . S
C507 C506 1.386 . S
C507 C508 1.382 . S
C507 H529 0.950 . S
C508 N504 1.332 . S
C508 C507 1.382 . S
C508 H510 0.952 . S
C509 N504 1.332 . S
C509 C505 1.382 . S
C509 H511 0.948 . S
H510 C508 0.952 . S
H511 C509 0.948 . S
H512 C501 0.952 . S
H513 C503 0.948 . S
C514 C480 1.395 . S
C514 C484 1.391 . S
C515 C477 1.389 . S
C515 C497 1.392 . S
C516 C487 1.392 . S
C516 C489 1.389 . S
C517 C492 1.395 . S
C517 C494 1.391 . S
H518 C478 0.951 . S
H519 C479 0.950 . S
H520 C485 0.949 . S
H521 C486 0.950 . S
H522 C490 0.951 . S
H523 C491 0.950 . S
H524 C495 0.949 . S
H525 C496 0.950 . S
H526 C500 0.950 . S
H527 C502 0.950 . S
H528 C505 0.950 . S
H529 C507 0.950 . S
C530 C531 1.443 . S
C530 N534 1.376 . S
C530 C568 1.389 . S
C531 C530 1.443 . S
C531 C532 1.340 . S
C531 H571 0.951 . S
C532 C531 1.340 . S
C532 C533 1.439 . S
C532 H572 0.950 . S
C533 C532 1.439 . S
C533 N534 1.374 . S
C533 C567 1.395 . S
N534 C530 1.376 . S
N534 C533 1.374 . S
N534 Co535 2.008 . S
Co535 N534 2.008 . S
Co535 N536 1.995 . S
Co535 N541 2.008 . S
Co535 N546 1.995 . S
Co535 N551 2.282 . S
Co535 N557 2.282 . S
N536 Co535 1.995 . S
N536 C537 1.376 . S
N536 C540 1.383 . S
C537 N536 1.376 . S
C537 C538 1.446 . S
C537 C567 1.391 . S
C538 C537 1.446 . S
C538 C539 1.339 . S
C538 H573 0.949 . S
C539 C538 1.339 . S
C539 C540 1.439 . S
C539 H574 0.950 . S
C540 N536 1.383 . S
C540 C539 1.439 . S
C540 C569 1.392 . S
N541 Co535 2.008 . S
N541 C542 1.376 . S
N541 C545 1.374 . S
C542 N541 1.376 . S
C542 C543 1.443 . S
C542 C569 1.389 . S
C543 C542 1.443 . S
C543 C544 1.340 . S
C543 H575 0.951 . S
C544 C543 1.340 . S
C544 C545 1.439 . S
C544 H576 0.950 . S
C545 N541 1.374 . S
C545 C544 1.439 . S
C545 C570 1.395 . S
N546 Co535 1.995 . S
N546 C547 1.376 . S
N546 C550 1.383 . S
C547 N546 1.376 . S
C547 C548 1.446 . S
C547 C570 1.391 . S
C548 C547 1.446 . S
C548 C549 1.339 . S
C548 H577 0.949 . S
C549 C548 1.339 . S
C549 C550 1.439 . S
C549 H578 0.950 . S
C550 N546 1.383 . S
C550 C549 1.439 . S
C550 C568 1.392 . S
N551 Co535 2.282 . S
N551 C554 1.332 . S
N551 C556 1.332 . S
C552 C553 1.386 . S
C552 C555 1.388 . S
C553 C552 1.386 . S
C553 C554 1.382 . S
C553 H579 0.950 . S
C554 N551 1.332 . S
C554 C553 1.382 . S
C554 H565 0.952 . S
C555 C552 1.388 . S
C555 C556 1.382 . S
C555 H580 0.950 . S
C556 N551 1.332 . S
C556 C555 1.382 . S
C556 H566 0.948 . S
N557 Co535 2.282 . S
N557 C561 1.332 . S
N557 C562 1.332 . S
C558 C559 1.388 . S
C558 C562 1.382 . S
C558 H581 0.950 . S
C559 C558 1.388 . S
C559 C560 1.386 . S
C560 C559 1.386 . S
C560 C561 1.382 . S
C560 H582 0.950 . S
C561 N557 1.332 . S
C561 C560 1.382 . S
C561 H563 0.952 . S
C562 N557 1.332 . S
C562 C558 1.382 . S
C562 H564 0.948 . S
H563 C561 0.952 . S
H564 C562 0.948 . S
H565 C554 0.952 . S
H566 C556 0.948 . S
C567 C533 1.395 . S
C567 C537 1.391 . S
C568 C530 1.389 . S
C568 C550 1.392 . S
C569 C540 1.392 . S
C569 C542 1.389 . S
C570 C545 1.395 . S
C570 C547 1.391 . S
H571 C531 0.951 . S
H572 C532 0.950 . S
H573 C538 0.949 . S
H574 C539 0.950 . S
H575 C543 0.951 . S
H576 C544 0.950 . S
H577 C548 0.949 . S
H578 C549 0.950 . S
H579 C553 0.950 . S
H580 C555 0.950 . S
H581 C558 0.950 . S
H582 C560 0.950 . S
C583 C584 1.443 . S
C583 N587 1.376 . S
C583 C621 1.389 . S
C584 C583 1.443 . S
C584 C585 1.340 . S
C584 H624 0.951 . S
C585 C584 1.340 . S
C585 C586 1.439 . S
C585 H625 0.950 . S
C586 C585 1.439 . S
C586 N587 1.374 . S
C586 C620 1.395 . S
N587 C583 1.376 . S
N587 C586 1.374 . S
N587 Co588 2.008 . S
Co588 N587 2.008 . S
Co588 N589 1.995 . S
Co588 N594 2.008 . S
Co588 N599 1.995 . S
Co588 N604 2.282 . S
Co588 N610 2.282 . S
N589 Co588 1.995 . S
N589 C590 1.376 . S
N589 C593 1.383 . S
C590 N589 1.376 . S
C590 C591 1.446 . S
C590 C620 1.391 . S
C591 C590 1.446 . S
C591 C592 1.339 . S
C591 H626 0.949 . S
C592 C591 1.339 . S
C592 C593 1.439 . S
C592 H627 0.950 . S
C593 N589 1.383 . S
C593 C592 1.439 . S
C593 C622 1.392 . S
N594 Co588 2.008 . S
N594 C595 1.376 . S
N594 C598 1.374 . S
C595 N594 1.376 . S
C595 C596 1.443 . S
C595 C622 1.389 . S
C596 C595 1.443 . S
C596 C597 1.340 . S
C596 H628 0.951 . S
C597 C596 1.340 . S
C597 C598 1.439 . S
C597 H629 0.950 . S
C598 N594 1.374 . S
C598 C597 1.439 . S
C598 C623 1.395 . S
N599 Co588 1.995 . S
N599 C600 1.376 . S
N599 C603 1.383 . S
C600 N599 1.376 . S
C600 C601 1.446 . S
C600 C623 1.391 . S
C601 C600 1.446 . S
C601 C602 1.339 . S
C601 H630 0.949 . S
C602 C601 1.339 . S
C602 C603 1.439 . S
C602 H631 0.950 . S
C603 N599 1.383 . S
C603 C602 1.439 . S
C603 C621 1.392 . S
N604 Co588 2.282 . S
N604 C607 1.332 . S
N604 C609 1.332 . S
C605 C606 1.386 . S
C605 C608 1.388 . S
C606 C605 1.386 . S
C606 C607 1.382 . S
C606 H632 0.950 . S
C607 N604 1.332 . S
C607 C606 1.382 . S
C607 H618 0.952 . S
C608 C605 1.388 . S
C608 C609 1.382 . S
C608 H633 0.950 . S
C609 N604 1.332 . S
C609 C608 1.382 . S
C609 H619 0.948 . S
N610 Co588 2.282 . S
N610 C614 1.332 . S
N610 C615 1.332 . S
C611 C612 1.388 . S
C611 C615 1.382 . S
C611 H634 0.950 . S
C612 C611 1.388 . S
C612 C613 1.386 . S
C613 C612 1.386 . S
C613 C614 1.382 . S
C613 H635 0.950 . S
C614 N610 1.332 . S
C614 C613 1.382 . S
C614 H616 0.952 . S
C615 N610 1.332 . S
C615 C611 1.382 . S
C615 H617 0.948 . S
H616 C614 0.952 . S
H617 C615 0.948 . S
H618 C607 0.952 . S
H619 C609 0.948 . S
C620 C586 1.395 . S
C620 C590 1.391 . S
C621 C583 1.389 . S
C621 C603 1.392 . S
C622 C593 1.392 . S
C622 C595 1.389 . S
C623 C598 1.395 . S
C623 C600 1.391 . S
H624 C584 0.951 . S
H625 C585 0.950 . S
H626 C591 0.949 . S
H627 C592 0.950 . S
H628 C596 0.951 . S
H629 C597 0.950 . S
H630 C601 0.949 . S
H631 C602 0.950 . S
H632 C606 0.950 . S
H633 C608 0.950 . S
H634 C611 0.950 . S
H635 C613 0.950 . S
C636 C637 1.443 . S
C636 N640 1.376 . S
C636 C674 1.389 . S
C637 C636 1.443 . S
C637 C638 1.340 . S
C637 H677 0.951 . S
C638 C637 1.340 . S
C638 C639 1.439 . S
C638 H678 0.950 . S
C639 C638 1.439 . S
C639 N640 1.374 . S
C639 C673 1.395 . S
N640 C636 1.376 . S
N640 C639 1.374 . S
N640 Co641 2.008 . S
Co641 N640 2.008 . S
Co641 N642 1.995 . S
Co641 N647 2.008 . S
Co641 N652 1.995 . S
Co641 N657 2.282 . S
Co641 N663 2.282 . S
N642 Co641 1.995 . S
N642 C643 1.376 . S
N642 C646 1.383 . S
C643 N642 1.376 . S
C643 C644 1.446 . S
C643 C673 1.391 . S
C644 C643 1.446 . S
C644 C645 1.339 . S
C644 H679 0.949 . S
C645 C644 1.339 . S
C645 C646 1.439 . S
C645 H680 0.950 . S
C646 N642 1.383 . S
C646 C645 1.439 . S
C646 C675 1.392 . S
N647 Co641 2.008 . S
N647 C648 1.376 . S
N647 C651 1.374 . S
C648 N647 1.376 . S
C648 C649 1.443 . S
C648 C675 1.389 . S
C649 C648 1.443 . S
C649 C650 1.340 . S
C649 H681 0.951 . S
C650 C649 1.340 . S
C650 C651 1.439 . S
C650 H682 0.950 . S
C651 N647 1.374 . S
C651 C650 1.439 . S
C651 C676 1.395 . S
N652 Co641 1.995 . S
N652 C653 1.376 . S
N652 C656 1.383 . S
C653 N652 1.376 . S
C653 C654 1.446 . S
C653 C676 1.391 . S
C654 C653 1.446 . S
C654 C655 1.339 . S
C654 H683 0.949 . S
C655 C654 1.339 . S
C655 C656 1.439 . S
C655 H684 0.950 . S
C656 N652 1.383 . S
C656 C655 1.439 . S
C656 C674 1.392 . S
N657 Co641 2.282 . S
N657 C660 1.332 . S
N657 C662 1.332 . S
C658 C659 1.386 . S
C658 C661 1.388 . S
C659 C658 1.386 . S
C659 C660 1.382 . S
C659 H685 0.950 . S
C660 N657 1.332 . S
C660 C659 1.382 . S
C660 H671 0.952 . S
C661 C658 1.388 . S
C661 C662 1.382 . S
C661 H686 0.950 . S
C662 N657 1.332 . S
C662 C661 1.382 . S
C662 H672 0.948 . S
N663 Co641 2.282 . S
N663 C667 1.332 . S
N663 C668 1.332 . S
C664 C665 1.388 . S
C664 C668 1.382 . S
C664 H687 0.950 . S
C665 C664 1.388 . S
C665 C666 1.386 . S
C666 C665 1.386 . S
C666 C667 1.382 . S
C666 H688 0.950 . S
C667 N663 1.332 . S
C667 C666 1.382 . S
C667 H669 0.952 . S
C668 N663 1.332 . S
C668 C664 1.382 . S
C668 H670 0.948 . S
H669 C667 0.952 . S
H670 C668 0.948 . S
H671 C660 0.952 . S
H672 C662 0.948 . S
C673 C639 1.395 . S
C673 C643 1.391 . S
C674 C636 1.389 . S
C674 C656 1.392 . S
C675 C646 1.392 . S
C675 C648 1.389 . S
C676 C651 1.395 . S
C676 C653 1.391 . S
H677 C637 0.951 . S
H678 C638 0.950 . S
H679 C644 0.949 . S
H680 C645 0.950 . S
H681 C649 0.951 . S
H682 C650 0.950 . S
H683 C654 0.949 . S
H684 C655 0.950 . S
H685 C659 0.950 . S
H686 C661 0.950 . S
H687 C664 0.950 . S
H688 C666 0.950 . S
C689 C690 1.443 . S
C689 N693 1.376 . S
C689 C727 1.389 . S
C690 C689 1.443 . S
C690 C691 1.340 . S
C690 H730 0.951 . S
C691 C690 1.340 . S
C691 C692 1.439 . S
C691 H731 0.950 . S
C692 C691 1.439 . S
C692 N693 1.374 . S
C692 C726 1.395 . S
N693 C689 1.376 . S
N693 C692 1.374 . S
N693 Co694 2.008 . S
Co694 N693 2.008 . S
Co694 N695 1.995 . S
Co694 N700 2.008 . S
Co694 N705 1.995 . S
Co694 N710 2.282 . S
Co694 N716 2.282 . S
N695 Co694 1.995 . S
N695 C696 1.376 . S
N695 C699 1.383 . S
C696 N695 1.376 . S
C696 C697 1.446 . S
C696 C726 1.391 . S
C697 C696 1.446 . S
C697 C698 1.339 . S
C697 H732 0.949 . S
C698 C697 1.339 . S
C698 C699 1.439 . S
C698 H733 0.950 . S
C699 N695 1.383 . S
C699 C698 1.439 . S
C699 C728 1.392 . S
N700 Co694 2.008 . S
N700 C701 1.376 . S
N700 C704 1.374 . S
C701 N700 1.376 . S
C701 C702 1.443 . S
C701 C728 1.389 . S
C702 C701 1.443 . S
C702 C703 1.340 . S
C702 H734 0.951 . S
C703 C702 1.340 . S
C703 C704 1.439 . S
C703 H735 0.950 . S
C704 N700 1.374 . S
C704 C703 1.439 . S
C704 C729 1.395 . S
N705 Co694 1.995 . S
N705 C706 1.376 . S
N705 C709 1.383 . S
C706 N705 1.376 . S
C706 C707 1.446 . S
C706 C729 1.391 . S
C707 C706 1.446 . S
C707 C708 1.339 . S
C707 H736 0.949 . S
C708 C707 1.339 . S
C708 C709 1.439 . S
C708 H737 0.950 . S
C709 N705 1.383 . S
C709 C708 1.439 . S
C709 C727 1.392 . S
N710 Co694 2.282 . S
N710 C713 1.332 . S
N710 C715 1.332 . S
C711 C712 1.386 . S
C711 C714 1.388 . S
C712 C711 1.386 . S
C712 C713 1.382 . S
C712 H738 0.950 . S
C713 N710 1.332 . S
C713 C712 1.382 . S
C713 H724 0.952 . S
C714 C711 1.388 . S
C714 C715 1.382 . S
C714 H739 0.950 . S
C715 N710 1.332 . S
C715 C714 1.382 . S
C715 H725 0.948 . S
N716 Co694 2.282 . S
N716 C720 1.332 . S
N716 C721 1.332 . S
C717 C718 1.388 . S
C717 C721 1.382 . S
C717 H740 0.950 . S
C718 C717 1.388 . S
C718 C719 1.386 . S
C719 C718 1.386 . S
C719 C720 1.382 . S
C719 H741 0.950 . S
C720 N716 1.332 . S
C720 C719 1.382 . S
C720 H722 0.952 . S
C721 N716 1.332 . S
C721 C717 1.382 . S
C721 H723 0.948 . S
H722 C720 0.952 . S
H723 C721 0.948 . S
H724 C713 0.952 . S
H725 C715 0.948 . S
C726 C692 1.395 . S
C726 C696 1.391 . S
C727 C689 1.389 . S
C727 C709 1.392 . S
C728 C699 1.392 . S
C728 C701 1.389 . S
C729 C704 1.395 . S
C729 C706 1.391 . S
H730 C690 0.951 . S
H731 C691 0.950 . S
H732 C697 0.949 . S
H733 C698 0.950 . S
H734 C702 0.951 . S
H735 C703 0.950 . S
H736 C707 0.949 . S
H737 C708 0.950 . S
H738 C712 0.950 . S
H739 C714 0.950 . S
H740 C717 0.950 . S
H741 C719 0.950 . S
C742 C743 1.443 . S
C742 N746 1.376 . S
C742 C780 1.389 . S
C743 C742 1.443 . S
C743 C744 1.340 . S
C743 H783 0.951 . S
C744 C743 1.340 . S
C744 C745 1.439 . S
C744 H784 0.950 . S
C745 C744 1.439 . S
C745 N746 1.374 . S
C745 C779 1.395 . S
N746 C742 1.376 . S
N746 C745 1.374 . S
N746 Co747 2.008 . S
Co747 N746 2.008 . S
Co747 N748 1.995 . S
Co747 N753 2.008 . S
Co747 N758 1.995 . S
Co747 N763 2.282 . S
Co747 N769 2.282 . S
N748 Co747 1.995 . S
N748 C749 1.376 . S
N748 C752 1.383 . S
C749 N748 1.376 . S
C749 C750 1.446 . S
C749 C779 1.391 . S
C750 C749 1.446 . S
C750 C751 1.339 . S
C750 H785 0.949 . S
C751 C750 1.339 . S
C751 C752 1.439 . S
C751 H786 0.950 . S
C752 N748 1.383 . S
C752 C751 1.439 . S
C752 C781 1.392 . S
N753 Co747 2.008 . S
N753 C754 1.376 . S
N753 C757 1.374 . S
C754 N753 1.376 . S
C754 C755 1.443 . S
C754 C781 1.389 . S
C755 C754 1.443 . S
C755 C756 1.340 . S
C755 H787 0.951 . S
C756 C755 1.340 . S
C756 C757 1.439 . S
C756 H788 0.950 . S
C757 N753 1.374 . S
C757 C756 1.439 . S
C757 C782 1.395 . S
N758 Co747 1.995 . S
N758 C759 1.376 . S
N758 C762 1.383 . S
C759 N758 1.376 . S
C759 C760 1.446 . S
C759 C782 1.391 . S
C760 C759 1.446 . S
C760 C761 1.339 . S
C760 H789 0.949 . S
C761 C760 1.339 . S
C761 C762 1.439 . S
C761 H790 0.950 . S
C762 N758 1.383 . S
C762 C761 1.439 . S
C762 C780 1.392 . S
N763 Co747 2.282 . S
N763 C766 1.332 . S
N763 C768 1.332 . S
C764 C765 1.386 . S
C764 C767 1.388 . S
C765 C764 1.386 . S
C765 C766 1.382 . S
C765 H791 0.950 . S
C766 N763 1.332 . S
C766 C765 1.382 . S
C766 H777 0.952 . S
C767 C764 1.388 . S
C767 C768 1.382 . S
C767 H792 0.950 . S
C768 N763 1.332 . S
C768 C767 1.382 . S
C768 H778 0.948 . S
N769 Co747 2.282 . S
N769 C773 1.332 . S
N769 C774 1.332 . S
C770 C771 1.388 . S
C770 C774 1.382 . S
C770 H793 0.950 . S
C771 C770 1.388 . S
C771 C772 1.386 . S
C772 C771 1.386 . S
C772 C773 1.382 . S
C772 H794 0.950 . S
C773 N769 1.332 . S
C773 C772 1.382 . S
C773 H775 0.952 . S
C774 N769 1.332 . S
C774 C770 1.382 . S
C774 H776 0.948 . S
H775 C773 0.952 . S
H776 C774 0.948 . S
H777 C766 0.952 . S
H778 C768 0.948 . S
C779 C745 1.395 . S
C779 C749 1.391 . S
C780 C742 1.389 . S
C780 C762 1.392 . S
C781 C752 1.392 . S
C781 C754 1.389 . S
C782 C757 1.395 . S
C782 C759 1.391 . S
H783 C743 0.951 . S
H784 C744 0.950 . S
H785 C750 0.949 . S
H786 C751 0.950 . S
H787 C755 0.951 . S
H788 C756 0.950 . S
H789 C760 0.949 . S
H790 C761 0.950 . S
H791 C765 0.950 . S
H792 C767 0.950 . S
H793 C770 0.950 . S
H794 C772 0.950 . S
C795 C796 1.443 . S
C795 N799 1.376 . S
C795 C833 1.389 . S
C796 C795 1.443 . S
C796 C797 1.340 . S
C796 H836 0.951 . S
C797 C796 1.340 . S
C797 C798 1.439 . S
C797 H837 0.950 . S
C798 C797 1.439 . S
C798 N799 1.374 . S
C798 C832 1.395 . S
N799 C795 1.376 . S
N799 C798 1.374 . S
N799 Co800 2.008 . S
Co800 N799 2.008 . S
Co800 N801 1.995 . S
Co800 N806 2.008 . S
Co800 N811 1.995 . S
Co800 N816 2.282 . S
Co800 N822 2.282 . S
N801 Co800 1.995 . S
N801 C802 1.376 . S
N801 C805 1.383 . S
C802 N801 1.376 . S
C802 C803 1.446 . S
C802 C832 1.391 . S
C803 C802 1.446 . S
C803 C804 1.339 . S
C803 H838 0.949 . S
C804 C803 1.339 . S
C804 C805 1.439 . S
C804 H839 0.950 . S
C805 N801 1.383 . S
C805 C804 1.439 . S
C805 C834 1.392 . S
N806 Co800 2.008 . S
N806 C807 1.376 . S
N806 C810 1.374 . S
C807 N806 1.376 . S
C807 C808 1.443 . S
C807 C834 1.389 . S
C808 C807 1.443 . S
C808 C809 1.340 . S
C808 H840 0.951 . S
C809 C808 1.340 . S
C809 C810 1.439 . S
C809 H841 0.950 . S
C810 N806 1.374 . S
C810 C809 1.439 . S
C810 C835 1.395 . S
N811 Co800 1.995 . S
N811 C812 1.376 . S
N811 C815 1.383 . S
C812 N811 1.376 . S
C812 C813 1.446 . S
C812 C835 1.391 . S
C813 C812 1.446 . S
C813 C814 1.339 . S
C813 H842 0.949 . S
C814 C813 1.339 . S
C814 C815 1.439 . S
C814 H843 0.950 . S
C815 N811 1.383 . S
C815 C814 1.439 . S
C815 C833 1.392 . S
N816 Co800 2.282 . S
N816 C819 1.332 . S
N816 C821 1.332 . S
C817 C818 1.386 . S
C817 C820 1.388 . S
C818 C817 1.386 . S
C818 C819 1.382 . S
C818 H844 0.950 . S
C819 N816 1.332 . S
C819 C818 1.382 . S
C819 H830 0.952 . S
C820 C817 1.388 . S
C820 C821 1.382 . S
C820 H845 0.950 . S
C821 N816 1.332 . S
C821 C820 1.382 . S
C821 H831 0.948 . S
N822 Co800 2.282 . S
N822 C826 1.332 . S
N822 C827 1.332 . S
C823 C824 1.388 . S
C823 C827 1.382 . S
C823 H846 0.950 . S
C824 C823 1.388 . S
C824 C825 1.386 . S
C825 C824 1.386 . S
C825 C826 1.382 . S
C825 H847 0.950 . S
C826 N822 1.332 . S
C826 C825 1.382 . S
C826 H828 0.952 . S
C827 N822 1.332 . S
C827 C823 1.382 . S
C827 H829 0.948 . S
H828 C826 0.952 . S
H829 C827 0.948 . S
H830 C819 0.952 . S
H831 C821 0.948 . S
C832 C798 1.395 . S
C832 C802 1.391 . S
C833 C795 1.389 . S
C833 C815 1.392 . S
C834 C805 1.392 . S
C834 C807 1.389 . S
C835 C810 1.395 . S
C835 C812 1.391 . S
H836 C796 0.951 . S
H837 C797 0.950 . S
H838 C803 0.949 . S
H839 C804 0.950 . S
H840 C808 0.951 . S
H841 C809 0.950 . S
H842 C813 0.949 . S
H843 C814 0.950 . S
H844 C818 0.950 . S
H845 C820 0.950 . S
H846 C823 0.950 . S
H847 C825 0.950 . S
C848 C849 1.443 . S
C848 N852 1.376 . S
C848 C886 1.389 . S
C849 C848 1.443 . S
C849 C850 1.340 . S
C849 H889 0.951 . S
C850 C849 1.340 . S
C850 C851 1.439 . S
C850 H890 0.950 . S
C851 C850 1.439 . S
C851 N852 1.374 . S
C851 C885 1.395 . S
N852 C848 1.376 . S
N852 C851 1.374 . S
N852 Co853 2.008 . S
Co853 N852 2.008 . S
Co853 N854 1.995 . S
Co853 N859 2.008 . S
Co853 N864 1.995 . S
Co853 N869 2.282 . S
Co853 N875 2.282 . S
N854 Co853 1.995 . S
N854 C855 1.376 . S
N854 C858 1.383 . S
C855 N854 1.376 . S
C855 C856 1.446 . S
C855 C885 1.391 . S
C856 C855 1.446 . S
C856 C857 1.339 . S
C856 H891 0.949 . S
C857 C856 1.339 . S
C857 C858 1.439 . S
C857 H892 0.950 . S
C858 N854 1.383 . S
C858 C857 1.439 . S
C858 C887 1.392 . S
N859 Co853 2.008 . S
N859 C860 1.376 . S
N859 C863 1.374 . S
C860 N859 1.376 . S
C860 C861 1.443 . S
C860 C887 1.389 . S
C861 C860 1.443 . S
C861 C862 1.340 . S
C861 H893 0.951 . S
C862 C861 1.340 . S
C862 C863 1.439 . S
C862 H894 0.950 . S
C863 N859 1.374 . S
C863 C862 1.439 . S
C863 C888 1.395 . S
N864 Co853 1.995 . S
N864 C865 1.376 . S
N864 C868 1.383 . S
C865 N864 1.376 . S
C865 C866 1.446 . S
C865 C888 1.391 . S
C866 C865 1.446 . S
C866 C867 1.339 . S
C866 H895 0.949 . S
C867 C866 1.339 . S
C867 C868 1.439 . S
C867 H896 0.950 . S
C868 N864 1.383 . S
C868 C867 1.439 . S
C868 C886 1.392 . S
N869 Co853 2.282 . S
N869 C872 1.332 . S
N869 C874 1.332 . S
C870 C871 1.386 . S
C870 C873 1.388 . S
C871 C870 1.386 . S
C871 C872 1.382 . S
C871 H897 0.950 . S
C872 N869 1.332 . S
C872 C871 1.382 . S
C872 H883 0.952 . S
C873 C870 1.388 . S
C873 C874 1.382 . S
C873 H898 0.950 . S
C874 N869 1.332 . S
C874 C873 1.382 . S
C874 H884 0.948 . S
N875 Co853 2.282 . S
N875 C879 1.332 . S
N875 C880 1.332 . S
C876 C877 1.388 . S
C876 C880 1.382 . S
C876 H899 0.950 . S
C877 C876 1.388 . S
C877 C878 1.386 . S
C878 C877 1.386 . S
C878 C879 1.382 . S
C878 H900 0.950 . S
C879 N875 1.332 . S
C879 C878 1.382 . S
C879 H881 0.952 . S
C880 N875 1.332 . S
C880 C876 1.382 . S
C880 H882 0.948 . S
H881 C879 0.952 . S
H882 C880 0.948 . S
H883 C872 0.952 . S
H884 C874 0.948 . S
C885 C851 1.395 . S
C885 C855 1.391 . S
C886 C848 1.389 . S
C886 C868 1.392 . S
C887 C858 1.392 . S
C887 C860 1.389 . S
C888 C863 1.395 . S
C888 C865 1.391 . S
H889 C849 0.951 . S
H890 C850 0.950 . S
H891 C856 0.949 . S
H892 C857 0.950 . S
H893 C861 0.951 . S
H894 C862 0.950 . S
H895 C866 0.949 . S
H896 C867 0.950 . S
H897 C871 0.950 . S
H898 C873 0.950 . S
H899 C876 0.950 . S
H900 C878 0.950 . S
C901 C902 1.443 . S
C901 N905 1.376 . S
C901 C939 1.389 . S
C902 C901 1.443 . S
C902 C903 1.340 . S
C902 H942 0.951 . S
C903 C902 1.340 . S
C903 C904 1.439 . S
C903 H943 0.950 . S
C904 C903 1.439 . S
C904 N905 1.374 . S
C904 C938 1.395 . S
N905 C901 1.376 . S
N905 C904 1.374 . S
N905 Co906 2.008 . S
Co906 N905 2.008 . S
Co906 N907 1.995 . S
Co906 N912 2.008 . S
Co906 N917 1.995 . S
Co906 N922 2.282 . S
Co906 N928 2.282 . S
N907 Co906 1.995 . S
N907 C908 1.376 . S
N907 C911 1.383 . S
C908 N907 1.376 . S
C908 C909 1.446 . S
C908 C938 1.391 . S
C909 C908 1.446 . S
C909 C910 1.339 . S
C909 H944 0.949 . S
C910 C909 1.339 . S
C910 C911 1.439 . S
C910 H945 0.950 . S
C911 N907 1.383 . S
C911 C910 1.439 . S
C911 C940 1.392 . S
N912 Co906 2.008 . S
N912 C913 1.376 . S
N912 C916 1.374 . S
C913 N912 1.376 . S
C913 C914 1.443 . S
C913 C940 1.389 . S
C914 C913 1.443 . S
C914 C915 1.340 . S
C914 H946 0.951 . S
C915 C914 1.340 . S
C915 C916 1.439 . S
C915 H947 0.950 . S
C916 N912 1.374 . S
C916 C915 1.439 . S
C916 C941 1.395 . S
N917 Co906 1.995 . S
N917 C918 1.376 . S
N917 C921 1.383 . S
C918 N917 1.376 . S
C918 C919 1.446 . S
C918 C941 1.391 . S
C919 C918 1.446 . S
C919 C920 1.339 . S
C919 H948 0.949 . S
C920 C919 1.339 . S
C920 C921 1.439 . S
C920 H949 0.950 . S
C921 N917 1.383 . S
C921 C920 1.439 . S
C921 C939 1.392 . S
N922 Co906 2.282 . S
N922 C925 1.332 . S
N922 C927 1.332 . S
C923 C924 1.386 . S
C923 C926 1.388 . S
C924 C923 1.386 . S
C924 C925 1.382 . S
C924 H950 0.950 . S
C925 N922 1.332 . S
C925 C924 1.382 . S
C925 H936 0.952 . S
C926 C923 1.388 . S
C926 C927 1.382 . S
C926 H951 0.950 . S
C927 N922 1.332 . S
C927 C926 1.382 . S
C927 H937 0.948 . S
N928 Co906 2.282 . S
N928 C932 1.332 . S
N928 C933 1.332 . S
C929 C930 1.388 . S
C929 C933 1.382 . S
C929 H952 0.950 . S
C930 C929 1.388 . S
C930 C931 1.386 . S
C931 C930 1.386 . S
C931 C932 1.382 . S
C931 H953 0.950 . S
C932 N928 1.332 . S
C932 C931 1.382 . S
C932 H934 0.952 . S
C933 N928 1.332 . S
C933 C929 1.382 . S
C933 H935 0.948 . S
H934 C932 0.952 . S
H935 C933 0.948 . S
H936 C925 0.952 . S
H937 C927 0.948 . S
C938 C904 1.395 . S
C938 C908 1.391 . S
C939 C901 1.389 . S
C939 C921 1.392 . S
C940 C911 1.392 . S
C940 C913 1.389 . S
C941 C916 1.395 . S
C941 C918 1.391 . S
H942 C902 0.951 . S
H943 C903 0.950 . S
H944 C909 0.949 . S
H945 C910 0.950 . S
H946 C914 0.951 . S
H947 C915 0.950 . S
H948 C919 0.949 . S
H949 C920 0.950 . S
H950 C924 0.950 . S
H951 C926 0.950 . S
H952 C929 0.950 . S
H953 C931 0.950 . S
C954 C955 1.443 . S
C954 N958 1.376 . S
C954 C992 1.389 . S
C955 C954 1.443 . S
C955 C956 1.340 . S
C955 H995 0.951 . S
C956 C955 1.340 . S
C956 C957 1.439 . S
C956 H996 0.950 . S
C957 C956 1.439 . S
C957 N958 1.374 . S
C957 C991 1.395 . S
N958 C954 1.376 . S
N958 C957 1.374 . S
N958 Co959 2.008 . S
Co959 N958 2.008 . S
Co959 N960 1.995 . S
Co959 N965 2.008 . S
Co959 N970 1.995 . S
Co959 N975 2.282 . S
Co959 N981 2.282 . S
N960 Co959 1.995 . S
N960 C961 1.376 . S
N960 C964 1.383 . S
C961 N960 1.376 . S
C961 C962 1.446 . S
C961 C991 1.391 . S
C962 C961 1.446 . S
C962 C963 1.339 . S
C962 H997 0.949 . S
C963 C962 1.339 . S
C963 C964 1.439 . S
C963 H998 0.950 . S
C964 N960 1.383 . S
C964 C963 1.439 . S
C964 C993 1.392 . S
N965 Co959 2.008 . S
N965 C966 1.376 . S
N965 C969 1.374 . S
C966 N965 1.376 . S
C966 C967 1.443 . S
C966 C993 1.389 . S
C967 C966 1.443 . S
C967 C968 1.340 . S
C967 H999 0.951 . S
C968 C967 1.340 . S
C968 C969 1.439 . S
C968 H1000 0.950 . S
C969 N965 1.374 . S
C969 C968 1.439 . S
C969 C994 1.395 . S
N970 Co959 1.995 . S
N970 C971 1.376 . S
N970 C974 1.383 . S
C971 N970 1.376 . S
C971 C972 1.446 . S
C971 C994 1.391 . S
C972 C971 1.446 . S
C972 C973 1.339 . S
C972 H1001 0.949 . S
C973 C972 1.339 . S
C973 C974 1.439 . S
C973 H1002 0.950 . S
C974 N970 1.383 . S
C974 C973 1.439 . S
C974 C992 1.392 . S
N975 Co959 2.282 . S
N975 C978 1.332 . S
N975 C980 1.332 . S
C976 C977 1.386 . S
C976 C979 1.388 . S
C977 C976 1.386 . S
C977 C978 1.382 . S
C977 H1003 0.950 . S
C978 N975 1.332 . S
C978 C977 1.382 . S
C978 H989 0.952 . S
C979 C976 1.388 . S
C979 C980 1.382 . S
C979 H1004 0.950 . S
C980 N975 1.332 . S
C980 C979 1.382 . S
C980 H990 0.948 . S
N981 Co959 2.282 . S
N981 C985 1.332 . S
N981 C986 1.332 . S
C982 C983 1.388 . S
C982 C986 1.382 . S
C982 H1005 0.950 . S
C983 C982 1.388 . S
C983 C984 1.386 . S
C984 C983 1.386 . S
C984 C985 1.382 . S
C984 H1006 0.950 . S
C985 N981 1.332 . S
C985 C984 1.382 . S
C985 H987 0.952 . S
C986 N981 1.332 . S
C986 C982 1.382 . S
C986 H988 0.948 . S
H987 C985 0.952 . S
H988 C986 0.948 . S
H989 C978 0.952 . S
H990 C980 0.948 . S
C991 C957 1.395 . S
C991 C961 1.391 . S
C992 C954 1.389 . S
C992 C974 1.392 . S
C993 C964 1.392 . S
C993 C966 1.389 . S
C994 C969 1.395 . S
C994 C971 1.391 . S
H995 C955 0.951 . S
H996 C956 0.950 . S
H997 C962 0.949 . S
H998 C963 0.950 . S
H999 C967 0.951 . S
H1000 C968 0.950 . S
H1001 C972 0.949 . S
H1002 C973 0.950 . S
H1003 C977 0.950 . S
H1004 C979 0.950 . S
H1005 C982 0.950 . S
H1006 C984 0.950 . S
C1007 C1008 1.443 . S
C1007 N1011 1.376 . S
C1007 C1045 1.389 . S
C1008 C1007 1.443 . S
C1008 C1009 1.340 . S
C1008 H1048 0.951 . S
C1009 C1008 1.340 . S
C1009 C1010 1.439 . S
C1009 H1049 0.950 . S
C1010 C1009 1.439 . S
C1010 N1011 1.374 . S
C1010 C1044 1.395 . S
N1011 C1007 1.376 . S
N1011 C1010 1.374 . S
N1011 Co1012 2.008 . S
Co1012 N1011 2.008 . S
Co1012 N1013 1.995 . S
Co1012 N1018 2.008 . S
Co1012 N1023 1.995 . S
Co1012 N1028 2.282 . S
Co1012 N1034 2.282 . S
N1013 Co1012 1.995 . S
N1013 C1014 1.376 . S
N1013 C1017 1.383 . S
C1014 N1013 1.376 . S
C1014 C1015 1.446 . S
C1014 C1044 1.391 . S
C1015 C1014 1.446 . S
C1015 C1016 1.339 . S
C1015 H1050 0.949 . S
C1016 C1015 1.339 . S
C1016 C1017 1.439 . S
C1016 H1051 0.950 . S
C1017 N1013 1.383 . S
C1017 C1016 1.439 . S
C1017 C1046 1.392 . S
N1018 Co1012 2.008 . S
N1018 C1019 1.376 . S
N1018 C1022 1.374 . S
C1019 N1018 1.376 . S
C1019 C1020 1.443 . S
C1019 C1046 1.389 . S
C1020 C1019 1.443 . S
C1020 C1021 1.340 . S
C1020 H1052 0.951 . S
C1021 C1020 1.340 . S
C1021 C1022 1.439 . S
C1021 H1053 0.950 . S
C1022 N1018 1.374 . S
C1022 C1021 1.439 . S
C1022 C1047 1.395 . S
N1023 Co1012 1.995 . S
N1023 C1024 1.376 . S
N1023 C1027 1.383 . S
C1024 N1023 1.376 . S
C1024 C1025 1.446 . S
C1024 C1047 1.391 . S
C1025 C1024 1.446 . S
C1025 C1026 1.339 . S
C1025 H1054 0.949 . S
C1026 C1025 1.339 . S
C1026 C1027 1.439 . S
C1026 H1055 0.950 . S
C1027 N1023 1.383 . S
C1027 C1026 1.439 . S
C1027 C1045 1.392 . S
N1028 Co1012 2.282 . S
N1028 C1031 1.332 . S
N1028 C1033 1.332 . S
C1029 C1030 1.386 . S
C1029 C1032 1.388 . S
C1030 C1029 1.386 . S
C1030 C1031 1.382 . S
C1030 H1056 0.950 . S
C1031 N1028 1.332 . S
C1031 C1030 1.382 . S
C1031 H1042 0.952 . S
C1032 C1029 1.388 . S
C1032 C1033 1.382 . S
C1032 H1057 0.950 . S
C1033 N1028 1.332 . S
C1033 C1032 1.382 . S
C1033 H1043 0.948 . S
N1034 Co1012 2.282 . S
N1034 C1038 1.332 . S
N1034 C1039 1.332 . S
C1035 C1036 1.388 . S
C1035 C1039 1.382 . S
C1035 H1058 0.950 . S
C1036 C1035 1.388 . S
C1036 C1037 1.386 . S
C1037 C1036 1.386 . S
C1037 C1038 1.382 . S
C1037 H1059 0.950 . S
C1038 N1034 1.332 . S
C1038 C1037 1.382 . S
C1038 H1040 0.952 . S
C1039 N1034 1.332 . S
C1039 C1035 1.382 . S
C1039 H1041 0.948 . S
H1040 C1038 0.952 . S
H1041 C1039 0.948 . S
H1042 C1031 0.952 . S
H1043 C1033 0.948 . S
C1044 C1010 1.395 . S
C1044 C1014 1.391 . S
C1045 C1007 1.389 . S
C1045 C1027 1.392 . S
C1046 C1017 1.392 . S
C1046 C1019 1.389 . S
C1047 C1022 1.395 . S
C1047 C1024 1.391 . S
H1048 C1008 0.951 . S
H1049 C1009 0.950 . S
H1050 C1015 0.949 . S
H1051 C1016 0.950 . S
H1052 C1020 0.951 . S
H1053 C1021 0.950 . S
H1054 C1025 0.949 . S
H1055 C1026 0.950 . S
H1056 C1030 0.950 . S
H1057 C1032 0.950 . S
H1058 C1035 0.950 . S
H1059 C1037 0.950 . S
C1060 C1061 1.443 . S
C1060 N1064 1.376 . S
C1060 C1098 1.389 . S
C1061 C1060 1.443 . S
C1061 C1062 1.340 . S
C1061 H1101 0.951 . S
C1062 C1061 1.340 . S
C1062 C1063 1.439 . S
C1062 H1102 0.950 . S
C1063 C1062 1.439 . S
C1063 N1064 1.374 . S
C1063 C1097 1.395 . S
N1064 C1060 1.376 . S
N1064 C1063 1.374 . S
N1064 Co1065 2.008 . S
Co1065 N1064 2.008 . S
Co1065 N1066 1.995 . S
Co1065 N1071 2.008 . S
Co1065 N1076 1.995 . S
Co1065 N1081 2.282 . S
Co1065 N1087 2.282 . S
N1066 Co1065 1.995 . S
N1066 C1067 1.376 . S
N1066 C1070 1.383 . S
C1067 N1066 1.376 . S
C1067 C1068 1.446 . S
C1067 C1097 1.391 . S
C1068 C1067 1.446 . S
C1068 C1069 1.339 . S
C1068 H1103 0.949 . S
C1069 C1068 1.339 . S
C1069 C1070 1.439 . S
C1069 H1104 0.950 . S
C1070 N1066 1.383 . S
C1070 C1069 1.439 . S
C1070 C1099 1.392 . S
N1071 Co1065 2.008 . S
N1071 C1072 1.376 . S
N1071 C1075 1.374 . S
C1072 N1071 1.376 . S
C1072 C1073 1.443 . S
C1072 C1099 1.389 . S
C1073 C1072 1.443 . S
C1073 C1074 1.340 . S
C1073 H1105 0.951 . S
C1074 C1073 1.340 . S
C1074 C1075 1.439 . S
C1074 H1106 0.950 . S
C1075 N1071 1.374 . S
C1075 C1074 1.439 . S
C1075 C1100 1.395 . S
N1076 Co1065 1.995 . S
N1076 C1077 1.376 . S
N1076 C1080 1.383 . S
C1077 N1076 1.376 . S
C1077 C1078 1.446 . S
C1077 C1100 1.391 . S
C1078 C1077 1.446 . S
C1078 C1079 1.339 . S
C1078 H1107 0.949 . S
C1079 C1078 1.339 . S
C1079 C1080 1.439 . S
C1079 H1108 0.950 . S
C1080 N1076 1.383 . S
C1080 C1079 1.439 . S
C1080 C1098 1.392 . S
N1081 Co1065 2.282 . S
N1081 C1084 1.332 . S
N1081 C1086 1.332 . S
C1082 C1083 1.386 . S
C1082 C1085 1.388 . S
C1083 C1082 1.386 . S
C1083 C1084 1.382 . S
C1083 H1109 0.950 . S
C1084 N1081 1.332 . S
C1084 C1083 1.382 . S
C1084 H1095 0.952 . S
C1085 C1082 1.388 . S
C1085 C1086 1.382 . S
C1085 H1110 0.950 . S
C1086 N1081 1.332 . S
C1086 C1085 1.382 . S
C1086 H1096 0.948 . S
N1087 Co1065 2.282 . S
N1087 C1091 1.332 . S
N1087 C1092 1.332 . S
C1088 C1089 1.388 . S
C1088 C1092 1.382 . S
C1088 H1111 0.950 . S
C1089 C1088 1.388 . S
C1089 C1090 1.386 . S
C1090 C1089 1.386 . S
C1090 C1091 1.382 . S
C1090 H1112 0.950 . S
C1091 N1087 1.332 . S
C1091 C1090 1.382 . S
C1091 H1093 0.952 . S
C1092 N1087 1.332 . S
C1092 C1088 1.382 . S
C1092 H1094 0.948 . S
H1093 C1091 0.952 . S
H1094 C1092 0.948 . S
H1095 C1084 0.952 . S
H1096 C1086 0.948 . S
C1097 C1063 1.395 . S
C1097 C1067 1.391 . S
C1098 C1060 1.389 . S
C1098 C1080 1.392 . S
C1099 C1070 1.392 . S
C1099 C1072 1.389 . S
C1100 C1075 1.395 . S
C1100 C1077 1.391 . S
H1101 C1061 0.951 . S
H1102 C1062 0.950 . S
H1103 C1068 0.949 . S
H1104 C1069 0.950 . S
H1105 C1073 0.951 . S
H1106 C1074 0.950 . S
H1107 C1078 0.949 . S
H1108 C1079 0.950 . S
H1109 C1083 0.950 . S
H1110 C1085 0.950 . S
H1111 C1088 0.950 . S
H1112 C1090 0.950 . S
C1113 C1114 1.443 . S
C1113 N1117 1.376 . S
C1113 C1151 1.389 . S
C1114 C1113 1.443 . S
C1114 C1115 1.340 . S
C1114 H1154 0.951 . S
C1115 C1114 1.340 . S
C1115 C1116 1.439 . S
C1115 H1155 0.950 . S
C1116 C1115 1.439 . S
C1116 N1117 1.374 . S
C1116 C1150 1.395 . S
N1117 C1113 1.376 . S
N1117 C1116 1.374 . S
N1117 Co1118 2.008 . S
Co1118 N1117 2.008 . S
Co1118 N1119 1.995 . S
Co1118 N1124 2.008 . S
Co1118 N1129 1.995 . S
Co1118 N1134 2.282 . S
Co1118 N1140 2.282 . S
N1119 Co1118 1.995 . S
N1119 C1120 1.376 . S
N1119 C1123 1.383 . S
C1120 N1119 1.376 . S
C1120 C1121 1.446 . S
C1120 C1150 1.391 . S
C1121 C1120 1.446 . S
C1121 C1122 1.339 . S
C1121 H1156 0.949 . S
C1122 C1121 1.339 . S
C1122 C1123 1.439 . S
C1122 H1157 0.950 . S
C1123 N1119 1.383 . S
C1123 C1122 1.439 . S
C1123 C1152 1.392 . S
N1124 Co1118 2.008 . S
N1124 C1125 1.376 . S
N1124 C1128 1.374 . S
C1125 N1124 1.376 . S
C1125 C1126 1.443 . S
C1125 C1152 1.389 . S
C1126 C1125 1.443 . S
C1126 C1127 1.340 . S
C1126 H1158 0.951 . S
C1127 C1126 1.340 . S
C1127 C1128 1.439 . S
C1127 H1159 0.950 . S
C1128 N1124 1.374 . S
C1128 C1127 1.439 . S
C1128 C1153 1.395 . S
N1129 Co1118 1.995 . S
N1129 C1130 1.376 . S
N1129 C1133 1.383 . S
C1130 N1129 1.376 . S
C1130 C1131 1.446 . S
C1130 C1153 1.391 . S
C1131 C1130 1.446 . S
C1131 C1132 1.339 . S
C1131 H1160 0.949 . S
C1132 C1131 1.339 . S
C1132 C1133 1.439 . S
C1132 H1161 0.950 . S
C1133 N1129 1.383 . S
C1133 C1132 1.439 . S
C1133 C1151 1.392 . S
N1134 Co1118 2.282 . S
N1134 C1137 1.332 . S
N1134 C1139 1.332 . S
C1135 C1136 1.386 . S
C1135 C1138 1.388 . S
C1136 C1135 1.386 . S
C1136 C1137 1.382 . S
C1136 H1162 0.950 . S
C1137 N1134 1.332 . S
C1137 C1136 1.382 . S
C1137 H1148 0.952 . S
C1138 C1135 1.388 . S
C1138 C1139 1.382 . S
C1138 H1163 0.950 . S
C1139 N1134 1.332 . S
C1139 C1138 1.382 . S
C1139 H1149 0.948 . S
N1140 Co1118 2.282 . S
N1140 C1144 1.332 . S
N1140 C1145 1.332 . S
C1141 C1142 1.388 . S
C1141 C1145 1.382 . S
C1141 H1164 0.950 . S
C1142 C1141 1.388 . S
C1142 C1143 1.386 . S
C1143 C1142 1.386 . S
C1143 C1144 1.382 . S
C1143 H1165 0.950 . S
C1144 N1140 1.332 . S
C1144 C1143 1.382 . S
C1144 H1146 0.952 . S
C1145 N1140 1.332 . S
C1145 C1141 1.382 . S
C1145 H1147 0.948 . S
H1146 C1144 0.952 . S
H1147 C1145 0.948 . S
H1148 C1137 0.952 . S
H1149 C1139 0.948 . S
C1150 C1116 1.395 . S
C1150 C1120 1.391 . S
C1151 C1113 1.389 . S
C1151 C1133 1.392 . S
C1152 C1123 1.392 . S
C1152 C1125 1.389 . S
C1153 C1128 1.395 . S
C1153 C1130 1.391 . S
H1154 C1114 0.951 . S
H1155 C1115 0.950 . S
H1156 C1121 0.949 . S
H1157 C1122 0.950 . S
H1158 C1126 0.951 . S
H1159 C1127 0.950 . S
H1160 C1131 0.949 . S
H1161 C1132 0.950 . S
H1162 C1136 0.950 . S
H1163 C1138 0.950 . S
H1164 C1141 0.950 . S
H1165 C1143 0.950 . S
C1166 C1167 1.443 . S
C1166 N1170 1.376 . S
C1166 C1204 1.389 . S
C1167 C1166 1.443 . S
C1167 C1168 1.340 . S
C1167 H1207 0.951 . S
C1168 C1167 1.340 . S
C1168 C1169 1.439 . S
C1168 H1208 0.950 . S
C1169 C1168 1.439 . S
C1169 N1170 1.374 . S
C1169 C1203 1.395 . S
N1170 C1166 1.376 . S
N1170 C1169 1.374 . S
N1170 Co1171 2.008 . S
Co1171 N1170 2.008 . S
Co1171 N1172 1.995 . S
Co1171 N1177 2.008 . S
Co1171 N1182 1.995 . S
Co1171 N1187 2.282 . S
Co1171 N1193 2.282 . S
N1172 Co1171 1.995 . S
N1172 C1173 1.376 . S
N1172 C1176 1.383 . S
C1173 N1172 1.376 . S
C1173 C1174 1.446 . S
C1173 C1203 1.391 . S
C1174 C1173 1.446 . S
C1174 C1175 1.339 . S
C1174 H1209 0.949 . S
C1175 C1174 1.339 . S
C1175 C1176 1.439 . S
C1175 H1210 0.950 . S
C1176 N1172 1.383 . S
C1176 C1175 1.439 . S
C1176 C1205 1.392 . S
N1177 Co1171 2.008 . S
N1177 C1178 1.376 . S
N1177 C1181 1.374 . S
C1178 N1177 1.376 . S
C1178 C1179 1.443 . S
C1178 C1205 1.389 . S
C1179 C1178 1.443 . S
C1179 C1180 1.340 . S
C1179 H1211 0.951 . S
C1180 C1179 1.340 . S
C1180 C1181 1.439 . S
C1180 H1212 0.950 . S
C1181 N1177 1.374 . S
C1181 C1180 1.439 . S
C1181 C1206 1.395 . S
N1182 Co1171 1.995 . S
N1182 C1183 1.376 . S
N1182 C1186 1.383 . S
C1183 N1182 1.376 . S
C1183 C1184 1.446 . S
C1183 C1206 1.391 . S
C1184 C1183 1.446 . S
C1184 C1185 1.339 . S
C1184 H1213 0.949 . S
C1185 C1184 1.339 . S
C1185 C1186 1.439 . S
C1185 H1214 0.950 . S
C1186 N1182 1.383 . S
C1186 C1185 1.439 . S
C1186 C1204 1.392 . S
N1187 Co1171 2.282 . S
N1187 C1190 1.332 . S
N1187 C1192 1.332 . S
C1188 C1189 1.386 . S
C1188 C1191 1.388 . S
C1189 C1188 1.386 . S
C1189 C1190 1.382 . S
C1189 H1215 0.950 . S
C1190 N1187 1.332 . S
C1190 C1189 1.382 . S
C1190 H1201 0.952 . S
C1191 C1188 1.388 . S
C1191 C1192 1.382 . S
C1191 H1216 0.950 . S
C1192 N1187 1.332 . S
C1192 C1191 1.382 . S
C1192 H1202 0.948 . S
N1193 Co1171 2.282 . S
N1193 C1197 1.332 . S
N1193 C1198 1.332 . S
C1194 C1195 1.388 . S
C1194 C1198 1.382 . S
C1194 H1217 0.950 . S
C1195 C1194 1.388 . S
C1195 C1196 1.386 . S
C1196 C1195 1.386 . S
C1196 C1197 1.382 . S
C1196 H1218 0.950 . S
C1197 N1193 1.332 . S
C1197 C1196 1.382 . S
C1197 H1199 0.952 . S
C1198 N1193 1.332 . S
C1198 C1194 1.382 . S
C1198 H1200 0.948 . S
H1199 C1197 0.952 . S
H1200 C1198 0.948 . S
H1201 C1190 0.952 . S
H1202 C1192 0.948 . S
C1203 C1169 1.395 . S
C1203 C1173 1.391 . S
C1204 C1166 1.389 . S
C1204 C1186 1.392 . S
C1205 C1176 1.392 . S
C1205 C1178 1.389 . S
C1206 C1181 1.395 . S
C1206 C1183 1.391 . S
H1207 C1167 0.951 . S
H1208 C1168 0.950 . S
H1209 C1174 0.949 . S
H1210 C1175 0.950 . S
H1211 C1179 0.951 . S
H1212 C1180 0.950 . S
H1213 C1184 0.949 . S
H1214 C1185 0.950 . S
H1215 C1189 0.950 . S
H1216 C1191 0.950 . S
H1217 C1194 0.950 . S
H1218 C1196 0.950 . S
C1219 C1220 1.443 . S
C1219 N1223 1.376 . S
C1219 C1257 1.389 . S
C1220 C1219 1.443 . S
C1220 C1221 1.340 . S
C1220 H1260 0.951 . S
C1221 C1220 1.340 . S
C1221 C1222 1.439 . S
C1221 H1261 0.950 . S
C1222 C1221 1.439 . S
C1222 N1223 1.374 . S
C1222 C1256 1.395 . S
N1223 C1219 1.376 . S
N1223 C1222 1.374 . S
N1223 Co1224 2.008 . S
Co1224 N1223 2.008 . S
Co1224 N1225 1.995 . S
Co1224 N1230 2.008 . S
Co1224 N1235 1.995 . S
Co1224 N1240 2.282 . S
Co1224 N1246 2.282 . S
N1225 Co1224 1.995 . S
N1225 C1226 1.376 . S
N1225 C1229 1.383 . S
C1226 N1225 1.376 . S
C1226 C1227 1.446 . S
C1226 C1256 1.391 . S
C1227 C1226 1.446 . S
C1227 C1228 1.339 . S
C1227 H1262 0.949 . S
C1228 C1227 1.339 . S
C1228 C1229 1.439 . S
C1228 H1263 0.950 . S
C1229 N1225 1.383 . S
C1229 C1228 1.439 . S
C1229 C1258 1.392 . S
N1230 Co1224 2.008 . S
N1230 C1231 1.376 . S
N1230 C1234 1.374 . S
C1231 N1230 1.376 . S
C1231 C1232 1.443 . S
C1231 C1258 1.389 . S
C1232 C1231 1.443 . S
C1232 C1233 1.340 . S
C1232 H1264 0.951 . S
C1233 C1232 1.340 . S
C1233 C1234 1.439 . S
C1233 H1265 0.950 . S
C1234 N1230 1.374 . S
C1234 C1233 1.439 . S
C1234 C1259 1.395 . S
N1235 Co1224 1.995 . S
N1235 C1236 1.376 . S
N1235 C1239 1.383 . S
C1236 N1235 1.376 . S
C1236 C1237 1.446 . S
C1236 C1259 1.391 . S
C1237 C1236 1.446 . S
C1237 C1238 1.339 . S
C1237 H1266 0.949 . S
C1238 C1237 1.339 . S
C1238 C1239 1.439 . S
C1238 H1267 0.950 . S
C1239 N1235 1.383 . S
C1239 C1238 1.439 . S
C1239 C1257 1.392 . S
N1240 Co1224 2.282 . S
N1240 C1243 1.332 . S
N1240 C1245 1.332 . S
C1241 C1242 1.386 . S
C1241 C1244 1.388 . S
C1242 C1241 1.386 . S
C1242 C1243 1.382 . S
C1242 H1268 0.950 . S
C1243 N1240 1.332 . S
C1243 C1242 1.382 . S
C1243 H1254 0.952 . S
C1244 C1241 1.388 . S
C1244 C1245 1.382 . S
C1244 H1269 0.950 . S
C1245 N1240 1.332 . S
C1245 C1244 1.382 . S
C1245 H1255 0.948 . S
N1246 Co1224 2.282 . S
N1246 C1250 1.332 . S
N1246 C1251 1.332 . S
C1247 C1248 1.388 . S
C1247 C1251 1.382 . S
C1247 H1270 0.950 . S
C1248 C1247 1.388 . S
C1248 C1249 1.386 . S
C1249 C1248 1.386 . S
C1249 C1250 1.382 . S
C1249 H1271 0.950 . S
C1250 N1246 1.332 . S
C1250 C1249 1.382 . S
C1250 H1252 0.952 . S
C1251 N1246 1.332 . S
C1251 C1247 1.382 . S
C1251 H1253 0.948 . S
H1252 C1250 0.952 . S
H1253 C1251 0.948 . S
H1254 C1243 0.952 . S
H1255 C1245 0.948 . S
C1256 C1222 1.395 . S
C1256 C1226 1.391 . S
C1257 C1219 1.389 . S
C1257 C1239 1.392 . S
C1258 C1229 1.392 . S
C1258 C1231 1.389 . S
C1259 C1234 1.395 . S
C1259 C1236 1.391 . S
H1260 C1220 0.951 . S
H1261 C1221 0.950 . S
H1262 C1227 0.949 . S
H1263 C1228 0.950 . S
H1264 C1232 0.951 . S
H1265 C1233 0.950 . S
H1266 C1237 0.949 . S
H1267 C1238 0.950 . S
H1268 C1242 0.950 . S
H1269 C1244 0.950 . S
H1270 C1247 0.950 . S
H1271 C1249 0.950 . S
C1272 C1273 1.349 . S
C1272 C1274 1.327 . S
C1272 H1297 0.950 . S
C1273 C1272 1.349 . S
C1273 C1289 1.349 . S
C1274 C1272 1.327 . S
C1274 C1293 1.429 . S
C1274 H1298 0.950 . S
C1275 C1292 1.574 . S
C1275 C1294 1.368 . S
C1275 H1299 0.949 . S
H1276 C1280 0.949 . S
C1277 C1278 1.349 . S
C1277 C1279 1.327 . S
C1277 H1300 0.950 . S
C1278 C1277 1.349 . S
C1278 C1290 1.349 . S
C1279 C1277 1.327 . S
C1279 C1295 1.429 . S
C1279 H1301 0.950 . S
C1280 H1276 0.949 . S
C1280 C1288 1.574 . S
C1280 C1296 1.368 . S
H1281 C1289 0.950 . S
H1282 C1287 0.950 . S
H1283 C1288 0.949 . S
H1284 C1290 0.950 . S
H1285 C1291 0.950 . S
H1286 C1292 0.949 . S
C1287 H1282 0.950 . S
C1287 C1289 1.327 . S
C1287 C1293 1.429 . S
C1288 C1280 1.574 . S
C1288 H1283 0.949 . S
C1288 C1294 1.368 . S
C1289 C1273 1.349 . S
C1289 H1281 0.950 . S
C1289 C1287 1.327 . S
C1290 C1278 1.349 . S
C1290 H1284 0.950 . S
C1290 C1291 1.327 . S
C1291 H1285 0.950 . S
C1291 C1290 1.327 . S
C1291 C1295 1.429 . S
C1292 C1275 1.574 . S
C1292 H1286 0.949 . S
C1292 C1296 1.368 . S
C1293 C1274 1.429 . S
C1293 C1287 1.429 . S
C1293 C1294 1.523 . S
C1294 C1275 1.368 . S
C1294 C1288 1.368 . S
C1294 C1293 1.523 . S
C1295 C1279 1.429 . S
C1295 C1291 1.429 . S
C1295 C1296 1.523 . S
C1296 C1280 1.368 . S
C1296 C1292 1.368 . S
C1296 C1295 1.523 . S
H1297 C1272 0.950 . S
H1298 C1274 0.950 . S
H1299 C1275 0.949 . S
H1300 C1277 0.950 . S
H1301 C1279 0.950 . S
C1302 C1303 1.349 . S
C1302 C1304 1.327 . S
C1302 H1327 0.950 . S
C1303 C1302 1.349 . S
C1303 C1319 1.349 . S
C1304 C1302 1.327 . S
C1304 C1323 1.429 . S
C1304 H1328 0.950 . S
C1305 C1322 1.635 . S
C1305 C1324 1.368 . S
C1305 H1329 0.949 . S
H1306 C1310 0.949 1_455 S
C1307 C1308 1.349 . S
C1307 C1309 1.327 . S
C1307 H1330 0.950 . S
C1308 C1307 1.349 . S
C1308 C1320 1.349 . S
C1309 C1307 1.327 . S
C1309 C1325 1.429 . S
C1309 H1331 0.950 . S
C1310 H1306 0.949 1_655 S
C1310 C1318 1.574 . S
C1310 C1326 1.368 1_655 S
H1311 C1319 0.950 . S
H1312 C1317 0.950 . S
H1313 C1318 0.949 . S
H1314 C1320 0.950 . S
H1315 C1321 0.950 . S
H1316 C1322 0.913 1_455 S
C1317 H1312 0.950 . S
C1317 C1319 1.327 . S
C1317 C1323 1.429 . S
C1318 C1310 1.574 . S
C1318 H1313 0.949 . S
C1318 C1324 1.368 . S
C1319 C1303 1.349 . S
C1319 H1311 0.950 . S
C1319 C1317 1.327 . S
C1320 C1308 1.349 . S
C1320 H1314 0.950 . S
C1320 C1321 1.327 . S
C1321 H1315 0.950 . S
C1321 C1320 1.327 . S
C1321 C1325 1.429 . S
C1322 C1305 1.635 . S
C1322 H1316 0.913 1_655 S
C1322 C1326 1.350 1_655 S
C1323 C1304 1.429 . S
C1323 C1317 1.429 . S
C1323 C1324 1.523 . S
C1324 C1305 1.368 . S
C1324 C1318 1.368 . S
C1324 C1323 1.523 . S
C1325 C1309 1.429 . S
C1325 C1321 1.429 . S
C1325 C1326 1.523 . S
C1326 C1310 1.368 1_455 S
C1326 C1322 1.350 1_455 S
C1326 C1325 1.523 . S
H1327 C1302 0.950 . S
H1328 C1304 0.950 . S
H1329 C1305 0.949 . S
H1330 C1307 0.950 . S
H1331 C1309 0.950 . S
C1332 C1333 1.349 . S
C1332 C1334 1.327 . S
C1332 H1357 0.950 . S
C1333 C1332 1.349 . S
C1333 C1349 1.349 . S
C1334 C1332 1.327 . S
C1334 C1353 1.429 . S
C1334 H1358 0.950 . S
C1335 C1352 1.574 . S
C1335 C1354 1.368 . S
C1335 H1359 0.949 . S
H1336 C1340 0.949 . S
C1337 C1338 1.349 . S
C1337 C1339 1.327 . S
C1337 H1360 0.950 . S
C1338 C1337 1.349 . S
C1338 C1350 1.349 . S
C1339 C1337 1.327 . S
C1339 C1355 1.429 . S
C1339 H1361 0.950 . S
C1340 H1336 0.949 . S
C1340 C1348 1.574 . S
C1340 C1356 1.368 . S
H1341 C1349 0.950 . S
H1342 C1347 0.950 . S
H1343 C1348 0.949 . S
H1344 C1350 0.950 . S
H1345 C1351 0.950 . S
H1346 C1352 0.949 . S
C1347 H1342 0.950 . S
C1347 C1349 1.327 . S
C1347 C1353 1.429 . S
C1348 C1340 1.574 . S
C1348 H1343 0.949 . S
C1348 C1354 1.368 . S
C1349 C1333 1.349 . S
C1349 H1341 0.950 . S
C1349 C1347 1.327 . S
C1350 C1338 1.349 . S
C1350 H1344 0.950 . S
C1350 C1351 1.327 . S
C1351 H1345 0.950 . S
C1351 C1350 1.327 . S
C1351 C1355 1.429 . S
C1352 C1335 1.574 . S
C1352 H1346 0.949 . S
C1352 C1356 1.368 . S
C1353 C1334 1.429 . S
C1353 C1347 1.429 . S
C1353 C1354 1.523 . S
C1354 C1335 1.368 . S
C1354 C1348 1.368 . S
C1354 C1353 1.523 . S
C1355 C1339 1.429 . S
C1355 C1351 1.429 . S
C1355 C1356 1.523 . S
C1356 C1340 1.368 . S
C1356 C1352 1.368 . S
C1356 C1355 1.523 . S
H1357 C1332 0.950 . S
H1358 C1334 0.950 . S
H1359 C1335 0.949 . S
H1360 C1337 0.950 . S
H1361 C1339 0.950 . S
C1362 C1363 1.349 . S
C1362 C1364 1.327 . S
C1362 H1387 0.950 . S
C1363 C1362 1.349 . S
C1363 C1379 1.349 . S
C1364 C1362 1.327 . S
C1364 C1383 1.429 . S
C1364 H1388 0.950 . S
C1365 C1382 1.574 1_455 S
C1365 C1384 1.368 . S
C1365 H1389 0.949 . S
H1366 C1370 0.949 . S
C1367 C1368 1.349 . S
C1367 C1369 1.327 . S
C1367 H1390 0.950 . S
C1368 C1367 1.349 . S
C1368 C1380 1.349 . S
C1369 C1367 1.327 . S
C1369 C1385 1.429 . S
C1369 H1391 0.950 . S
C1370 H1366 0.949 . S
C1370 C1378 1.574 1_655 S
C1370 C1386 1.368 . S
H1371 C1379 0.950 . S
H1372 C1377 0.950 . S
H1373 C1378 0.949 . S
H1374 C1380 0.950 . S
H1375 C1381 0.950 . S
H1376 C1382 0.949 . S
C1377 H1372 0.950 . S
C1377 C1379 1.327 . S
C1377 C1383 1.429 . S
C1378 C1370 1.574 1_455 S
C1378 H1373 0.949 . S
C1378 C1384 1.368 . S
C1379 C1363 1.349 . S
C1379 H1371 0.950 . S
C1379 C1377 1.327 . S
C1380 C1368 1.349 . S
C1380 H1374 0.950 . S
C1380 C1381 1.327 . S
C1381 H1375 0.950 . S
C1381 C1380 1.327 . S
C1381 C1385 1.429 . S
C1382 C1365 1.574 1_655 S
C1382 H1376 0.949 . S
C1382 C1386 1.368 . S
C1383 C1364 1.429 . S
C1383 C1377 1.429 . S
C1383 C1384 1.523 . S
C1384 C1365 1.368 . S
C1384 C1378 1.368 . S
C1384 C1383 1.523 . S
C1385 C1369 1.429 . S
C1385 C1381 1.429 . S
C1385 C1386 1.523 . S
C1386 C1370 1.368 . S
C1386 C1382 1.368 . S
C1386 C1385 1.523 . S
H1387 C1362 0.950 . S
H1388 C1364 0.950 . S
H1389 C1365 0.949 . S
H1390 C1367 0.950 . S
H1391 C1369 0.950 . S
C1392 C1393 1.349 . S
C1392 C1394 1.327 . S
C1392 H1417 0.950 . S
C1393 C1392 1.349 . S
C1393 C1409 1.349 . S
C1394 C1392 1.327 . S
C1394 C1413 1.429 . S
C1394 H1418 0.950 . S
C1395 C1412 1.574 . S
C1395 C1414 1.368 . S
C1395 H1419 0.949 . S
H1396 C1400 0.949 . S
C1397 C1398 1.349 . S
C1397 C1399 1.327 . S
C1397 H1420 0.950 . S
C1398 C1397 1.349 . S
C1398 C1410 1.349 . S
C1399 C1397 1.327 . S
C1399 C1415 1.429 . S
C1399 H1421 0.950 . S
C1400 H1396 0.949 . S
C1400 C1408 1.574 . S
C1400 C1416 1.368 . S
H1401 C1409 0.950 . S
H1402 C1407 0.950 . S
H1403 C1408 0.949 . S
H1404 C1410 0.950 . S
H1405 C1411 0.950 . S
H1406 C1412 0.949 . S
C1407 H1402 0.950 . S
C1407 C1409 1.327 . S
C1407 C1413 1.429 . S
C1408 C1400 1.574 . S
C1408 H1403 0.949 . S
C1408 C1414 1.368 . S
C1409 C1393 1.349 . S
C1409 H1401 0.950 . S
C1409 C1407 1.327 . S
C1410 C1398 1.349 . S
C1410 H1404 0.950 . S
C1410 C1411 1.327 . S
C1411 H1405 0.950 . S
C1411 C1410 1.327 . S
C1411 C1415 1.429 . S
C1412 C1395 1.574 . S
C1412 H1406 0.949 . S
C1412 C1416 1.368 . S
C1413 C1394 1.429 . S
C1413 C1407 1.429 . S
C1413 C1414 1.523 . S
C1414 C1395 1.368 . S
C1414 C1408 1.368 . S
C1414 C1413 1.523 . S
C1415 C1399 1.429 . S
C1415 C1411 1.429 . S
C1415 C1416 1.523 . S
C1416 C1400 1.368 . S
C1416 C1412 1.368 . S
C1416 C1415 1.523 . S
H1417 C1392 0.950 . S
H1418 C1394 0.950 . S
H1419 C1395 0.949 . S
H1420 C1397 0.950 . S
H1421 C1399 0.950 . S
C1422 C1423 1.349 . S
C1422 C1424 1.327 . S
C1422 H1447 0.950 . S
C1423 C1422 1.349 . S
C1423 C1439 1.349 . S
C1424 C1422 1.327 . S
C1424 C1443 1.429 . S
C1424 H1448 0.950 . S
C1425 C1442 1.574 1_655 S
C1425 C1444 1.368 . S
C1425 H1449 0.949 . S
H1426 C1430 0.949 . S
C1427 C1428 1.349 . S
C1427 C1429 1.327 . S
C1427 H1450 0.950 . S
C1428 C1427 1.349 . S
C1428 C1440 1.349 . S
C1429 C1427 1.327 . S
C1429 C1445 1.429 . S
C1429 H1451 0.950 . S
C1430 H1426 0.949 . S
C1430 C1438 1.574 1_455 S
C1430 C1446 1.368 . S
H1431 C1439 0.950 . S
H1432 C1437 0.950 . S
H1433 C1438 0.949 . S
H1434 C1440 0.950 . S
H1435 C1441 0.950 . S
H1436 C1442 0.949 . S
C1437 H1432 0.950 . S
C1437 C1439 1.327 . S
C1437 C1443 1.429 . S
C1438 C1430 1.574 1_655 S
C1438 H1433 0.949 . S
C1438 C1444 1.368 . S
C1439 C1423 1.349 . S
C1439 H1431 0.950 . S
C1439 C1437 1.327 . S
C1440 C1428 1.349 . S
C1440 H1434 0.950 . S
C1440 C1441 1.327 . S
C1441 H1435 0.950 . S
C1441 C1440 1.327 . S
C1441 C1445 1.429 . S
C1442 C1425 1.574 1_455 S
C1442 H1436 0.949 . S
C1442 C1446 1.368 . S
C1443 C1424 1.429 . S
C1443 C1437 1.429 . S
C1443 C1444 1.523 . S
C1444 C1425 1.368 . S
C1444 C1438 1.368 . S
C1444 C1443 1.523 . S
C1445 C1429 1.429 . S
C1445 C1441 1.429 . S
C1445 C1446 1.523 . S
C1446 C1430 1.368 . S
C1446 C1442 1.368 . S
C1446 C1445 1.523 . S
H1447 C1422 0.950 . S
H1448 C1424 0.950 . S
H1449 C1425 0.949 . S
H1450 C1427 0.950 . S
H1451 C1429 0.950 . S
C1452 C1453 1.349 . S
C1452 C1454 1.327 . S
C1452 H1477 0.950 . S
C1453 C1452 1.349 . S
C1453 C1469 1.349 . S
C1454 C1452 1.327 . S
C1454 C1473 1.429 . S
C1454 H1478 0.950 . S
C1455 C1472 1.574 . S
C1455 C1474 1.368 . S
C1455 H1479 0.949 . S
H1456 C1460 0.949 . S
C1457 C1458 1.349 . S
C1457 C1459 1.327 . S
C1457 H1480 0.950 . S
C1458 C1457 1.349 . S
C1458 C1470 1.349 . S
C1459 C1457 1.327 . S
C1459 C1475 1.429 . S
C1459 H1481 0.950 . S
C1460 H1456 0.949 . S
C1460 C1468 1.574 . S
C1460 C1476 1.368 . S
H1461 C1469 0.950 . S
H1462 C1467 0.950 . S
H1463 C1468 0.949 . S
H1464 C1470 0.950 . S
H1465 C1471 0.950 . S
H1466 C1472 0.949 . S
C1467 H1462 0.950 . S
C1467 C1469 1.327 . S
C1467 C1473 1.429 . S
C1468 C1460 1.574 . S
C1468 H1463 0.949 . S
C1468 C1474 1.368 . S
C1469 C1453 1.349 . S
C1469 H1461 0.950 . S
C1469 C1467 1.327 . S
C1470 C1458 1.349 . S
C1470 H1464 0.950 . S
C1470 C1471 1.327 . S
C1471 H1465 0.950 . S
C1471 C1470 1.327 . S
C1471 C1475 1.429 . S
C1472 C1455 1.574 . S
C1472 H1466 0.949 . S
C1472 C1476 1.368 . S
C1473 C1454 1.429 . S
C1473 C1467 1.429 . S
C1473 C1474 1.523 . S
C1474 C1455 1.368 . S
C1474 C1468 1.368 . S
C1474 C1473 1.523 . S
C1475 C1459 1.429 . S
C1475 C1471 1.429 . S
C1475 C1476 1.523 . S
C1476 C1460 1.368 . S
C1476 C1472 1.368 . S
C1476 C1475 1.523 . S
H1477 C1452 0.950 . S
H1478 C1454 0.950 . S
H1479 C1455 0.949 . S
H1480 C1457 0.950 . S
H1481 C1459 0.950 . S
C1482 C1483 1.349 . S
C1482 C1484 1.327 . S
C1482 H1507 0.950 . S
C1483 C1482 1.349 . S
C1483 C1499 1.349 . S
C1484 C1482 1.327 . S
C1484 C1503 1.429 . S
C1484 H1508 0.950 . S
C1485 C1502 1.574 1_655 S
C1485 C1504 1.368 . S
C1485 H1509 0.949 . S
H1486 C1490 0.949 . S
C1487 C1488 1.349 . S
C1487 C1489 1.327 . S
C1487 H1510 0.950 . S
C1488 C1487 1.349 . S
C1488 C1500 1.349 . S
C1489 C1487 1.327 . S
C1489 C1505 1.429 . S
C1489 H1511 0.950 . S
C1490 H1486 0.949 . S
C1490 C1498 1.574 1_455 S
C1490 C1506 1.368 . S
H1491 C1499 0.950 . S
H1492 C1497 0.950 . S
H1493 C1498 0.949 . S
H1494 C1500 0.950 . S
H1495 C1501 0.950 . S
H1496 C1502 0.949 . S
C1497 H1492 0.950 . S
C1497 C1499 1.327 . S
C1497 C1503 1.429 . S
C1498 C1490 1.574 1_655 S
C1498 H1493 0.949 . S
C1498 C1504 1.368 . S
C1499 C1483 1.349 . S
C1499 H1491 0.950 . S
C1499 C1497 1.327 . S
C1500 C1488 1.349 . S
C1500 H1494 0.950 . S
C1500 C1501 1.327 . S
C1501 H1495 0.950 . S
C1501 C1500 1.327 . S
C1501 C1505 1.429 . S
C1502 C1485 1.574 1_455 S
C1502 H1496 0.949 . S
C1502 C1506 1.368 . S
C1503 C1484 1.429 . S
C1503 C1497 1.429 . S
C1503 C1504 1.523 . S
C1504 C1485 1.368 . S
C1504 C1498 1.368 . S
C1504 C1503 1.523 . S
C1505 C1489 1.429 . S
C1505 C1501 1.429 . S
C1505 C1506 1.523 . S
C1506 C1490 1.368 . S
C1506 C1502 1.368 . S
C1506 C1505 1.523 . S
H1507 C1482 0.950 . S
H1508 C1484 0.950 . S
H1509 C1485 0.949 . S
H1510 C1487 0.950 . S
H1511 C1489 0.950 . S
C1512 C1513 1.349 . S
C1512 C1514 1.327 . S
C1512 H1537 0.950 . S
C1513 C1512 1.349 . S
C1513 C1529 1.349 . S
C1514 C1512 1.327 . S
C1514 C1533 1.429 . S
C1514 H1538 0.950 . S
C1515 C1532 1.574 . S
C1515 C1534 1.368 . S
C1515 H1539 0.949 . S
H1516 C1520 0.949 . S
C1517 C1518 1.349 . S
C1517 C1519 1.327 . S
C1517 H1540 0.950 . S
C1518 C1517 1.349 . S
C1518 C1530 1.349 . S
C1519 C1517 1.327 . S
C1519 C1535 1.429 . S
C1519 H1541 0.950 . S
C1520 H1516 0.949 . S
C1520 C1528 1.574 . S
C1520 C1536 1.368 . S
H1521 C1529 0.950 . S
H1522 C1527 0.950 . S
H1523 C1528 0.949 . S
H1524 C1530 0.950 . S
H1525 C1531 0.950 . S
H1526 C1532 0.949 . S
C1527 H1522 0.950 . S
C1527 C1529 1.327 . S
C1527 C1533 1.429 . S
C1528 C1520 1.574 . S
C1528 H1523 0.949 . S
C1528 C1534 1.368 . S
C1529 C1513 1.349 . S
C1529 H1521 0.950 . S
C1529 C1527 1.327 . S
C1530 C1518 1.349 . S
C1530 H1524 0.950 . S
C1530 C1531 1.327 . S
C1531 H1525 0.950 . S
C1531 C1530 1.327 . S
C1531 C1535 1.429 . S
C1532 C1515 1.574 . S
C1532 H1526 0.949 . S
C1532 C1536 1.368 . S
C1533 C1514 1.429 . S
C1533 C1527 1.429 . S
C1533 C1534 1.523 . S
C1534 C1515 1.368 . S
C1534 C1528 1.368 . S
C1534 C1533 1.523 . S
C1535 C1519 1.429 . S
C1535 C1531 1.429 . S
C1535 C1536 1.523 . S
C1536 C1520 1.368 . S
C1536 C1532 1.368 . S
C1536 C1535 1.523 . S
H1537 C1512 0.950 . S
H1538 C1514 0.950 . S
H1539 C1515 0.949 . S
H1540 C1517 0.950 . S
H1541 C1519 0.950 . S
C1542 C1543 1.349 . S
C1542 C1544 1.327 . S
C1542 H1567 0.950 . S
C1543 C1542 1.349 . S
C1543 C1559 1.349 . S
C1544 C1542 1.327 . S
C1544 C1563 1.429 . S
C1544 H1568 0.950 . S
C1545 C1562 1.574 1_556 S
C1545 C1564 1.368 . S
C1545 H1569 0.949 . S
H1546 C1550 0.949 . S
C1547 C1548 1.349 . S
C1547 C1549 1.327 . S
C1547 H1570 0.950 . S
C1548 C1547 1.349 . S
C1548 C1560 1.349 . S
C1549 C1547 1.327 . S
C1549 C1565 1.429 . S
C1549 H1571 0.950 . S
C1550 H1546 0.949 . S
C1550 C1558 1.574 1_554 S
C1550 C1566 1.368 . S
H1551 C1559 0.950 . S
H1552 C1557 0.950 . S
H1553 C1558 0.949 . S
H1554 C1560 0.950 . S
H1555 C1561 0.950 . S
H1556 C1562 0.949 . S
C1557 H1552 0.950 . S
C1557 C1559 1.327 . S
C1557 C1563 1.429 . S
C1558 C1550 1.574 1_556 S
C1558 H1553 0.949 . S
C1558 C1564 1.368 . S
C1559 C1543 1.349 . S
C1559 H1551 0.950 . S
C1559 C1557 1.327 . S
C1560 C1548 1.349 . S
C1560 H1554 0.950 . S
C1560 C1561 1.327 . S
C1561 H1555 0.950 . S
C1561 C1560 1.327 . S
C1561 C1565 1.429 . S
C1562 C1545 1.574 1_554 S
C1562 H1556 0.949 . S
C1562 C1566 1.368 . S
C1563 C1544 1.429 . S
C1563 C1557 1.429 . S
C1563 C1564 1.523 . S
C1564 C1545 1.368 . S
C1564 C1558 1.368 . S
C1564 C1563 1.523 . S
C1565 C1549 1.429 . S
C1565 C1561 1.429 . S
C1565 C1566 1.523 . S
C1566 C1550 1.368 . S
C1566 C1562 1.368 . S
C1566 C1565 1.523 . S
H1567 C1542 0.950 . S
H1568 C1544 0.950 . S
H1569 C1545 0.949 . S
H1570 C1547 0.950 . S
H1571 C1549 0.950 . S
C1572 C1573 1.349 . S
C1572 C1574 1.327 . S
C1572 H1597 0.950 . S
C1573 C1572 1.349 . S
C1573 C1589 1.349 . S
C1574 C1572 1.327 . S
C1574 C1593 1.429 . S
C1574 H1598 0.950 . S
C1575 C1592 1.574 . S
C1575 C1594 1.368 . S
C1575 H1599 0.949 . S
H1576 C1580 0.949 . S
C1577 C1578 1.349 . S
C1577 C1579 1.327 . S
C1577 H1600 0.950 . S
C1578 C1577 1.349 . S
C1578 C1590 1.349 . S
C1579 C1577 1.327 . S
C1579 C1595 1.429 . S
C1579 H1601 0.950 . S
C1580 H1576 0.949 . S
C1580 C1588 1.574 . S
C1580 C1596 1.368 . S
H1581 C1589 0.950 . S
H1582 C1587 0.950 . S
H1583 C1588 0.949 . S
H1584 C1590 0.950 . S
H1585 C1591 0.950 . S
H1586 C1592 0.949 . S
C1587 H1582 0.950 . S
C1587 C1589 1.327 . S
C1587 C1593 1.429 . S
C1588 C1580 1.574 . S
C1588 H1583 0.949 . S
C1588 C1594 1.368 . S
C1589 C1573 1.349 . S
C1589 H1581 0.950 . S
C1589 C1587 1.327 . S
C1590 C1578 1.349 . S
C1590 H1584 0.950 . S
C1590 C1591 1.327 . S
C1591 H1585 0.950 . S
C1591 C1590 1.327 . S
C1591 C1595 1.429 . S
C1592 C1575 1.574 . S
C1592 H1586 0.949 . S
C1592 C1596 1.368 . S
C1593 C1574 1.429 . S
C1593 C1587 1.429 . S
C1593 C1594 1.523 . S
C1594 C1575 1.368 . S
C1594 C1588 1.368 . S
C1594 C1593 1.523 . S
C1595 C1579 1.429 . S
C1595 C1591 1.429 . S
C1595 C1596 1.523 . S
C1596 C1580 1.368 . S
C1596 C1592 1.368 . S
C1596 C1595 1.523 . S
H1597 C1572 0.950 . S
H1598 C1574 0.950 . S
H1599 C1575 0.949 . S
H1600 C1577 0.950 . S
H1601 C1579 0.950 . S
C1602 C1603 1.349 . S
C1602 C1604 1.327 . S
C1602 H1627 0.950 . S
C1603 C1602 1.349 . S
C1603 C1619 1.349 . S
C1604 C1602 1.327 . S
C1604 C1623 1.429 . S
C1604 H1628 0.950 . S
C1605 C1622 1.574 1_554 S
C1605 C1624 1.368 . S
C1605 H1629 0.949 . S
H1606 C1610 0.949 . S
C1607 C1608 1.349 . S
C1607 C1609 1.327 . S
C1607 H1630 0.950 . S
C1608 C1607 1.349 . S
C1608 C1620 1.349 . S
C1609 C1607 1.327 . S
C1609 C1625 1.429 . S
C1609 H1631 0.950 . S
C1610 H1606 0.949 . S
C1610 C1618 1.574 1_556 S
C1610 C1626 1.368 . S
H1611 C1619 0.950 . S
H1612 C1617 0.950 . S
H1613 C1618 0.949 . S
H1614 C1620 0.950 . S
H1615 C1621 0.950 . S
H1616 C1622 0.949 . S
C1617 H1612 0.950 . S
C1617 C1619 1.327 . S
C1617 C1623 1.429 . S
C1618 C1610 1.574 1_554 S
C1618 H1613 0.949 . S
C1618 C1624 1.368 . S
C1619 C1603 1.349 . S
C1619 H1611 0.950 . S
C1619 C1617 1.327 . S
C1620 C1608 1.349 . S
C1620 H1614 0.950 . S
C1620 C1621 1.327 . S
C1621 H1615 0.950 . S
C1621 C1620 1.327 . S
C1621 C1625 1.429 . S
C1622 C1605 1.574 1_556 S
C1622 H1616 0.949 . S
C1622 C1626 1.368 . S
C1623 C1604 1.429 . S
C1623 C1617 1.429 . S
C1623 C1624 1.523 . S
C1624 C1605 1.368 . S
C1624 C1618 1.368 . S
C1624 C1623 1.523 . S
C1625 C1609 1.429 . S
C1625 C1621 1.429 . S
C1625 C1626 1.523 . S
C1626 C1610 1.368 . S
C1626 C1622 1.368 . S
C1626 C1625 1.523 . S
H1627 C1602 0.950 . S
H1628 C1604 0.950 . S
H1629 C1605 0.949 . S
H1630 C1607 0.950 . S
H1631 C1609 0.950 . S
C1632 C1633 1.349 . S
C1632 C1634 1.327 . S
C1632 H1657 0.950 . S
C1633 C1632 1.349 . S
C1633 C1649 1.349 . S
C1634 C1632 1.327 . S
C1634 C1653 1.429 . S
C1634 H1658 0.950 . S
C1635 C1652 1.574 . S
C1635 C1654 1.368 . S
C1635 H1659 0.949 . S
H1636 C1640 0.949 . S
C1637 C1638 1.349 . S
C1637 C1639 1.327 . S
C1637 H1660 0.950 . S
C1638 C1637 1.349 . S
C1638 C1650 1.349 . S
C1639 C1637 1.327 . S
C1639 C1655 1.429 . S
C1639 H1661 0.950 . S
C1640 H1636 0.949 . S
C1640 C1648 1.574 . S
C1640 C1656 1.368 . S
H1641 C1649 0.950 . S
H1642 C1647 0.950 . S
H1643 C1648 0.949 . S
H1644 C1650 0.950 . S
H1645 C1651 0.950 . S
H1646 C1652 0.949 . S
C1647 H1642 0.950 . S
C1647 C1649 1.327 . S
C1647 C1653 1.429 . S
C1648 C1640 1.574 . S
C1648 H1643 0.949 . S
C1648 C1654 1.368 . S
C1649 C1633 1.349 . S
C1649 H1641 0.950 . S
C1649 C1647 1.327 . S
C1650 C1638 1.349 . S
C1650 H1644 0.950 . S
C1650 C1651 1.327 . S
C1651 H1645 0.950 . S
C1651 C1650 1.327 . S
C1651 C1655 1.429 . S
C1652 C1635 1.574 . S
C1652 H1646 0.949 . S
C1652 C1656 1.368 . S
C1653 C1634 1.429 . S
C1653 C1647 1.429 . S
C1653 C1654 1.523 . S
C1654 C1635 1.368 . S
C1654 C1648 1.368 . S
C1654 C1653 1.523 . S
C1655 C1639 1.429 . S
C1655 C1651 1.429 . S
C1655 C1656 1.523 . S
C1656 C1640 1.368 . S
C1656 C1652 1.368 . S
C1656 C1655 1.523 . S
H1657 C1632 0.950 . S
H1658 C1634 0.950 . S
H1659 C1635 0.949 . S
H1660 C1637 0.950 . S
H1661 C1639 0.950 . S
C1662 C1663 1.349 . S
C1662 C1664 1.327 . S
C1662 H1687 0.950 . S
C1663 C1662 1.349 . S
C1663 C1679 1.349 . S
C1664 C1662 1.327 . S
C1664 C1683 1.429 . S
C1664 H1688 0.950 . S
C1665 C1682 1.574 1_554 S
C1665 C1684 1.368 . S
C1665 H1689 0.949 . S
H1666 C1670 0.949 . S
C1667 C1668 1.349 . S
C1667 C1669 1.327 . S
C1667 H1690 0.950 . S
C1668 C1667 1.349 . S
C1668 C1680 1.349 . S
C1669 C1667 1.327 . S
C1669 C1685 1.429 . S
C1669 H1691 0.950 . S
C1670 H1666 0.949 . S
C1670 C1678 1.574 1_556 S
C1670 C1686 1.368 . S
H1671 C1679 0.950 . S
H1672 C1677 0.950 . S
H1673 C1678 0.949 . S
H1674 C1680 0.950 . S
H1675 C1681 0.950 . S
H1676 C1682 0.949 . S
C1677 H1672 0.950 . S
C1677 C1679 1.327 . S
C1677 C1683 1.429 . S
C1678 C1670 1.574 1_554 S
C1678 H1673 0.949 . S
C1678 C1684 1.368 . S
C1679 C1663 1.349 . S
C1679 H1671 0.950 . S
C1679 C1677 1.327 . S
C1680 C1668 1.349 . S
C1680 H1674 0.950 . S
C1680 C1681 1.327 . S
C1681 H1675 0.950 . S
C1681 C1680 1.327 . S
C1681 C1685 1.429 . S
C1682 C1665 1.574 1_556 S
C1682 H1676 0.949 . S
C1682 C1686 1.368 . S
C1683 C1664 1.429 . S
C1683 C1677 1.429 . S
C1683 C1684 1.523 . S
C1684 C1665 1.368 . S
C1684 C1678 1.368 . S
C1684 C1683 1.523 . S
C1685 C1669 1.429 . S
C1685 C1681 1.429 . S
C1685 C1686 1.523 . S
C1686 C1670 1.368 . S
C1686 C1682 1.368 . S
C1686 C1685 1.523 . S
H1687 C1662 0.950 . S
H1688 C1664 0.950 . S
H1689 C1665 0.949 . S
H1690 C1667 0.950 . S
H1691 C1669 0.950 . S
C1692 C1693 1.349 . S
C1692 C1694 1.327 . S
C1692 H1717 0.950 . S
C1693 C1692 1.349 . S
C1693 C1709 1.349 . S
C1694 C1692 1.327 . S
C1694 C1713 1.429 . S
C1694 H1718 0.950 . S
C1695 C1712 1.574 . S
C1695 C1714 1.368 . S
C1695 H1719 0.949 . S
H1696 C1700 0.949 . S
C1697 C1698 1.349 . S
C1697 C1699 1.327 . S
C1697 H1720 0.950 . S
C1698 C1697 1.349 . S
C1698 C1710 1.349 . S
C1699 C1697 1.327 . S
C1699 C1715 1.429 . S
C1699 H1721 0.950 . S
C1700 H1696 0.949 . S
C1700 C1708 1.574 . S
C1700 C1716 1.368 . S
H1701 C1709 0.950 . S
H1702 C1707 0.950 . S
H1703 C1708 0.949 . S
H1704 C1710 0.950 . S
H1705 C1711 0.950 . S
H1706 C1712 0.949 . S
C1707 H1702 0.950 . S
C1707 C1709 1.327 . S
C1707 C1713 1.429 . S
C1708 C1700 1.574 . S
C1708 H1703 0.949 . S
C1708 C1714 1.368 . S
C1709 C1693 1.349 . S
C1709 H1701 0.950 . S
C1709 C1707 1.327 . S
C1710 C1698 1.349 . S
C1710 H1704 0.950 . S
C1710 C1711 1.327 . S
C1711 H1705 0.950 . S
C1711 C1710 1.327 . S
C1711 C1715 1.429 . S
C1712 C1695 1.574 . S
C1712 H1706 0.949 . S
C1712 C1716 1.368 . S
C1713 C1694 1.429 . S
C1713 C1707 1.429 . S
C1713 C1714 1.523 . S
C1714 C1695 1.368 . S
C1714 C1708 1.368 . S
C1714 C1713 1.523 . S
C1715 C1699 1.429 . S
C1715 C1711 1.429 . S
C1715 C1716 1.523 . S
C1716 C1700 1.368 . S
C1716 C1712 1.368 . S
C1716 C1715 1.523 . S
H1717 C1692 0.950 . S
H1718 C1694 0.950 . S
H1719 C1695 0.949 . S
H1720 C1697 0.950 . S
H1721 C1699 0.950 . S
C1722 C1723 1.349 . S
C1722 C1724 1.327 . S
C1722 H1747 0.950 . S
C1723 C1722 1.349 . S
C1723 C1739 1.349 . S
C1724 C1722 1.327 . S
C1724 C1743 1.429 . S
C1724 H1748 0.950 . S
C1725 C1742 1.610 . S
C1725 C1744 1.368 . S
C1725 H1749 0.949 . S
H1726 C1730 0.949 1_556 S
C1727 C1728 1.349 . S
C1727 C1729 1.327 . S
C1727 H1750 0.950 . S
C1728 C1727 1.349 . S
C1728 C1740 1.349 . S
C1729 C1727 1.327 . S
C1729 C1745 1.429 . S
C1729 H1751 0.950 . S
C1730 H1726 0.949 1_554 S
C1730 C1738 1.574 . S
C1730 C1746 1.368 1_554 S
H1731 C1739 0.950 . S
H1732 C1737 0.950 . S
H1733 C1738 0.949 . S
H1734 C1740 0.950 . S
H1735 C1741 0.950 . S
H1736 C1742 0.926 1_556 S
C1737 H1732 0.950 . S
C1737 C1739 1.327 . S
C1737 C1743 1.429 . S
C1738 C1730 1.574 . S
C1738 H1733 0.949 . S
C1738 C1744 1.368 . S
C1739 C1723 1.349 . S
C1739 H1731 0.950 . S
C1739 C1737 1.327 . S
C1740 C1728 1.349 . S
C1740 H1734 0.950 . S
C1740 C1741 1.327 . S
C1741 H1735 0.950 . S
C1741 C1740 1.327 . S
C1741 C1745 1.429 . S
C1742 C1725 1.610 . S
C1742 H1736 0.926 1_554 S
C1742 C1746 1.358 1_554 S
C1743 C1724 1.429 . S
C1743 C1737 1.429 . S
C1743 C1744 1.523 . S
C1744 C1725 1.368 . S
C1744 C1738 1.368 . S
C1744 C1743 1.523 . S
C1745 C1729 1.429 . S
C1745 C1741 1.429 . S
C1745 C1746 1.523 . S
C1746 C1730 1.368 1_556 S
C1746 C1742 1.358 1_556 S
C1746 C1745 1.523 . S
H1747 C1722 0.950 . S
H1748 C1724 0.950 . S
H1749 C1725 0.949 . S
H1750 C1727 0.950 . S
H1751 C1729 0.950 . S
C1752 C1753 1.349 . S
C1752 C1754 1.327 . S
C1752 H1777 0.950 . S
C1753 C1752 1.349 . S
C1753 C1769 1.349 . S
C1754 C1752 1.327 . S
C1754 C1773 1.429 . S
C1754 H1778 0.950 . S
C1755 C1772 1.574 . S
C1755 C1774 1.368 . S
C1755 H1779 0.949 . S
H1756 C1760 0.949 . S
C1757 C1758 1.349 . S
C1757 C1759 1.327 . S
C1757 H1780 0.950 . S
C1758 C1757 1.349 . S
C1758 C1770 1.349 . S
C1759 C1757 1.327 . S
C1759 C1775 1.429 . S
C1759 H1781 0.950 . S
C1760 H1756 0.949 . S
C1760 C1768 1.574 . S
C1760 C1776 1.368 . S
H1761 C1769 0.950 . S
H1762 C1767 0.950 . S
H1763 C1768 0.949 . S
H1764 C1770 0.950 . S
H1765 C1771 0.950 . S
H1766 C1772 0.949 . S
C1767 H1762 0.950 . S
C1767 C1769 1.327 . S
C1767 C1773 1.429 . S
C1768 C1760 1.574 . S
C1768 H1763 0.949 . S
C1768 C1774 1.368 . S
C1769 C1753 1.349 . S
C1769 H1761 0.950 . S
C1769 C1767 1.327 . S
C1770 C1758 1.349 . S
C1770 H1764 0.950 . S
C1770 C1771 1.327 . S
C1771 H1765 0.950 . S
C1771 C1770 1.327 . S
C1771 C1775 1.429 . S
C1772 C1755 1.574 . S
C1772 H1766 0.949 . S
C1772 C1776 1.368 . S
C1773 C1754 1.429 . S
C1773 C1767 1.429 . S
C1773 C1774 1.523 . S
C1774 C1755 1.368 . S
C1774 C1768 1.368 . S
C1774 C1773 1.523 . S
C1775 C1759 1.429 . S
C1775 C1771 1.429 . S
C1775 C1776 1.523 . S
C1776 C1760 1.368 . S
C1776 C1772 1.368 . S
C1776 C1775 1.523 . S
H1777 C1752 0.950 . S
H1778 C1754 0.950 . S
H1779 C1755 0.949 . S
H1780 C1757 0.950 . S
H1781 C1759 0.950 . S
C1782 C1783 1.349 . S
C1782 C1784 1.327 . S
C1782 H1807 0.950 . S
C1783 C1782 1.349 . S
C1783 C1799 1.349 . S
C1784 C1782 1.327 . S
C1784 C1803 1.429 . S
C1784 H1808 0.950 . S
C1785 C1802 1.574 . S
C1785 C1804 1.368 . S
C1785 H1809 0.949 . S
H1786 C1790 0.949 . S
C1787 C1788 1.349 . S
C1787 C1789 1.327 . S
C1787 H1810 0.950 . S
C1788 C1787 1.349 . S
C1788 C1800 1.349 . S
C1789 C1787 1.327 . S
C1789 C1805 1.429 . S
C1789 H1811 0.950 . S
C1790 H1786 0.949 . S
C1790 C1798 1.574 . S
C1790 C1806 1.368 . S
H1791 C1799 0.950 . S
H1792 C1797 0.950 . S
H1793 C1798 0.949 . S
H1794 C1800 0.950 . S
H1795 C1801 0.950 . S
H1796 C1802 0.949 . S
C1797 H1792 0.950 . S
C1797 C1799 1.327 . S
C1797 C1803 1.429 . S
C1798 C1790 1.574 . S
C1798 H1793 0.949 . S
C1798 C1804 1.368 . S
C1799 C1783 1.349 . S
C1799 H1791 0.950 . S
C1799 C1797 1.327 . S
C1800 C1788 1.349 . S
C1800 H1794 0.950 . S
C1800 C1801 1.327 . S
C1801 H1795 0.950 . S
C1801 C1800 1.327 . S
C1801 C1805 1.429 . S
C1802 C1785 1.574 . S
C1802 H1796 0.949 . S
C1802 C1806 1.368 . S
C1803 C1784 1.429 . S
C1803 C1797 1.429 . S
C1803 C1804 1.523 . S
C1804 C1785 1.368 . S
C1804 C1798 1.368 . S
C1804 C1803 1.523 . S
C1805 C1789 1.429 . S
C1805 C1801 1.429 . S
C1805 C1806 1.523 . S
C1806 C1790 1.368 . S
C1806 C1802 1.368 . S
C1806 C1805 1.523 . S
H1807 C1782 0.950 . S
H1808 C1784 0.950 . S
H1809 C1785 0.949 . S
H1810 C1787 0.950 . S
H1811 C1789 0.950 . S
C1812 C1813 1.349 . S
C1812 C1814 1.327 . S
C1812 H1837 0.950 . S
C1813 C1812 1.349 . S
C1813 C1829 1.349 . S
C1814 C1812 1.327 . S
C1814 C1833 1.429 . S
C1814 H1838 0.950 . S
C1815 C1832 1.574 1_565 S
C1815 C1834 1.368 . S
C1815 H1839 0.949 . S
H1816 C1820 0.949 . S
C1817 C1818 1.349 . S
C1817 C1819 1.327 . S
C1817 H1840 0.950 . S
C1818 C1817 1.349 . S
C1818 C1830 1.349 . S
C1819 C1817 1.327 . S
C1819 C1835 1.429 . S
C1819 H1841 0.950 . S
C1820 H1816 0.949 . S
C1820 C1828 1.574 1_545 S
C1820 C1836 1.368 . S
H1821 C1829 0.950 . S
H1822 C1827 0.950 . S
H1823 C1828 0.949 . S
H1824 C1830 0.950 . S
H1825 C1831 0.950 . S
H1826 C1832 0.949 . S
C1827 H1822 0.950 . S
C1827 C1829 1.327 . S
C1827 C1833 1.429 . S
C1828 C1820 1.574 1_565 S
C1828 H1823 0.949 . S
C1828 C1834 1.368 . S
C1829 C1813 1.349 . S
C1829 H1821 0.950 . S
C1829 C1827 1.327 . S
C1830 C1818 1.349 . S
C1830 H1824 0.950 . S
C1830 C1831 1.327 . S
C1831 H1825 0.950 . S
C1831 C1830 1.327 . S
C1831 C1835 1.429 . S
C1832 C1815 1.574 1_545 S
C1832 H1826 0.949 . S
C1832 C1836 1.368 . S
C1833 C1814 1.429 . S
C1833 C1827 1.429 . S
C1833 C1834 1.523 . S
C1834 C1815 1.368 . S
C1834 C1828 1.368 . S
C1834 C1833 1.523 . S
C1835 C1819 1.429 . S
C1835 C1831 1.429 . S
C1835 C1836 1.523 . S
C1836 C1820 1.368 . S
C1836 C1832 1.368 . S
C1836 C1835 1.523 . S
H1837 C1812 0.950 . S
H1838 C1814 0.950 . S
H1839 C1815 0.949 . S
H1840 C1817 0.950 . S
H1841 C1819 0.950 . S
C1842 C1843 1.349 . S
C1842 C1844 1.327 . S
C1842 H1867 0.950 . S
C1843 C1842 1.349 . S
C1843 C1859 1.349 . S
C1844 C1842 1.327 . S
C1844 C1863 1.429 . S
C1844 H1868 0.950 . S
C1845 C1862 1.574 . S
C1845 C1864 1.368 . S
C1845 H1869 0.949 . S
H1846 C1850 0.949 . S
C1847 C1848 1.349 . S
C1847 C1849 1.327 . S
C1847 H1870 0.950 . S
C1848 C1847 1.349 . S
C1848 C1860 1.349 . S
C1849 C1847 1.327 . S
C1849 C1865 1.429 . S
C1849 H1871 0.950 . S
C1850 H1846 0.949 . S
C1850 C1858 1.574 . S
C1850 C1866 1.368 . S
H1851 C1859 0.950 . S
H1852 C1857 0.950 . S
H1853 C1858 0.949 . S
H1854 C1860 0.950 . S
H1855 C1861 0.950 . S
H1856 C1862 0.949 . S
C1857 H1852 0.950 . S
C1857 C1859 1.327 . S
C1857 C1863 1.429 . S
C1858 C1850 1.574 . S
C1858 H1853 0.949 . S
C1858 C1864 1.368 . S
C1859 C1843 1.349 . S
C1859 H1851 0.950 . S
C1859 C1857 1.327 . S
C1860 C1848 1.349 . S
C1860 H1854 0.950 . S
C1860 C1861 1.327 . S
C1861 H1855 0.950 . S
C1861 C1860 1.327 . S
C1861 C1865 1.429 . S
C1862 C1845 1.574 . S
C1862 H1856 0.949 . S
C1862 C1866 1.368 . S
C1863 C1844 1.429 . S
C1863 C1857 1.429 . S
C1863 C1864 1.523 . S
C1864 C1845 1.368 . S
C1864 C1858 1.368 . S
C1864 C1863 1.523 . S
C1865 C1849 1.429 . S
C1865 C1861 1.429 . S
C1865 C1866 1.523 . S
C1866 C1850 1.368 . S
C1866 C1862 1.368 . S
C1866 C1865 1.523 . S
H1867 C1842 0.950 . S
H1868 C1844 0.950 . S
H1869 C1845 0.949 . S
H1870 C1847 0.950 . S
H1871 C1849 0.950 . S
C1872 C1873 1.349 . S
C1872 C1874 1.327 . S
C1872 H1897 0.950 . S
C1873 C1872 1.349 . S
C1873 C1889 1.349 . S
C1874 C1872 1.327 . S
C1874 C1893 1.429 . S
C1874 H1898 0.950 . S
C1875 C1892 1.574 1_565 S
C1875 C1894 1.368 . S
C1875 H1899 0.949 . S
H1876 C1880 0.949 . S
C1877 C1878 1.349 . S
C1877 C1879 1.327 . S
C1877 H1900 0.950 . S
C1878 C1877 1.349 . S
C1878 C1890 1.349 . S
C1879 C1877 1.327 . S
C1879 C1895 1.429 . S
C1879 H1901 0.950 . S
C1880 H1876 0.949 . S
C1880 C1888 1.574 1_545 S
C1880 C1896 1.368 . S
H1881 C1889 0.950 . S
H1882 C1887 0.950 . S
H1883 C1888 0.949 . S
H1884 C1890 0.950 . S
H1885 C1891 0.950 . S
H1886 C1892 0.949 . S
C1887 H1882 0.950 . S
C1887 C1889 1.327 . S
C1887 C1893 1.429 . S
C1888 C1880 1.574 1_565 S
C1888 H1883 0.949 . S
C1888 C1894 1.368 . S
C1889 C1873 1.349 . S
C1889 H1881 0.950 . S
C1889 C1887 1.327 . S
C1890 C1878 1.349 . S
C1890 H1884 0.950 . S
C1890 C1891 1.327 . S
C1891 H1885 0.950 . S
C1891 C1890 1.327 . S
C1891 C1895 1.429 . S
C1892 C1875 1.574 1_545 S
C1892 H1886 0.949 . S
C1892 C1896 1.368 . S
C1893 C1874 1.429 . S
C1893 C1887 1.429 . S
C1893 C1894 1.523 . S
C1894 C1875 1.368 . S
C1894 C1888 1.368 . S
C1894 C1893 1.523 . S
C1895 C1879 1.429 . S
C1895 C1891 1.429 . S
C1895 C1896 1.523 . S
C1896 C1880 1.368 . S
C1896 C1892 1.368 . S
C1896 C1895 1.523 . S
H1897 C1872 0.950 . S
H1898 C1874 0.950 . S
H1899 C1875 0.949 . S
H1900 C1877 0.950 . S
H1901 C1879 0.950 . S
C1902 C1903 1.349 . S
C1902 C1904 1.327 . S
C1902 H1927 0.950 . S
C1903 C1902 1.349 . S
C1903 C1919 1.349 . S
C1904 C1902 1.327 . S
C1904 C1923 1.429 . S
C1904 H1928 0.950 . S
C1905 C1922 1.574 . S
C1905 C1924 1.368 . S
C1905 H1929 0.949 . S
H1906 C1910 0.949 . S
C1907 C1908 1.349 . S
C1907 C1909 1.327 . S
C1907 H1930 0.950 . S
C1908 C1907 1.349 . S
C1908 C1920 1.349 . S
C1909 C1907 1.327 . S
C1909 C1925 1.429 . S
C1909 H1931 0.950 . S
C1910 H1906 0.949 . S
C1910 C1918 1.574 . S
C1910 C1926 1.368 . S
H1911 C1919 0.950 . S
H1912 C1917 0.950 . S
H1913 C1918 0.949 . S
H1914 C1920 0.950 . S
H1915 C1921 0.950 . S
H1916 C1922 0.949 . S
C1917 H1912 0.950 . S
C1917 C1919 1.327 . S
C1917 C1923 1.429 . S
C1918 C1910 1.574 . S
C1918 H1913 0.949 . S
C1918 C1924 1.368 . S
C1919 C1903 1.349 . S
C1919 H1911 0.950 . S
C1919 C1917 1.327 . S
C1920 C1908 1.349 . S
C1920 H1914 0.950 . S
C1920 C1921 1.327 . S
C1921 H1915 0.950 . S
C1921 C1920 1.327 . S
C1921 C1925 1.429 . S
C1922 C1905 1.574 . S
C1922 H1916 0.949 . S
C1922 C1926 1.368 . S
C1923 C1904 1.429 . S
C1923 C1917 1.429 . S
C1923 C1924 1.523 . S
C1924 C1905 1.368 . S
C1924 C1918 1.368 . S
C1924 C1923 1.523 . S
C1925 C1909 1.429 . S
C1925 C1921 1.429 . S
C1925 C1926 1.523 . S
C1926 C1910 1.368 . S
C1926 C1922 1.368 . S
C1926 C1925 1.523 . S
H1927 C1902 0.950 . S
H1928 C1904 0.950 . S
H1929 C1905 0.949 . S
H1930 C1907 0.950 . S
H1931 C1909 0.950 . S
C1932 C1933 1.349 . S
C1932 C1934 1.327 . S
C1932 H1957 0.950 . S
C1933 C1932 1.349 . S
C1933 C1949 1.349 . S
C1934 C1932 1.327 . S
C1934 C1953 1.429 . S
C1934 H1958 0.950 . S
C1935 C1952 1.574 1_565 S
C1935 C1954 1.368 . S
C1935 H1959 0.949 . S
H1936 C1940 0.949 . S
C1937 C1938 1.349 . S
C1937 C1939 1.327 . S
C1937 H1960 0.950 . S
C1938 C1937 1.349 . S
C1938 C1950 1.349 . S
C1939 C1937 1.327 . S
C1939 C1955 1.429 . S
C1939 H1961 0.950 . S
C1940 H1936 0.949 . S
C1940 C1948 1.574 1_545 S
C1940 C1956 1.368 . S
H1941 C1949 0.950 . S
H1942 C1947 0.950 . S
H1943 C1948 0.949 . S
H1944 C1950 0.950 . S
H1945 C1951 0.950 . S
H1946 C1952 0.949 . S
C1947 H1942 0.950 . S
C1947 C1949 1.327 . S
C1947 C1953 1.429 . S
C1948 C1940 1.574 1_565 S
C1948 H1943 0.949 . S
C1948 C1954 1.368 . S
C1949 C1933 1.349 . S
C1949 H1941 0.950 . S
C1949 C1947 1.327 . S
C1950 C1938 1.349 . S
C1950 H1944 0.950 . S
C1950 C1951 1.327 . S
C1951 H1945 0.950 . S
C1951 C1950 1.327 . S
C1951 C1955 1.429 . S
C1952 C1935 1.574 1_545 S
C1952 H1946 0.949 . S
C1952 C1956 1.368 . S
C1953 C1934 1.429 . S
C1953 C1947 1.429 . S
C1953 C1954 1.523 . S
C1954 C1935 1.368 . S
C1954 C1948 1.368 . S
C1954 C1953 1.523 . S
C1955 C1939 1.429 . S
C1955 C1951 1.429 . S
C1955 C1956 1.523 . S
C1956 C1940 1.368 . S
C1956 C1952 1.368 . S
C1956 C1955 1.523 . S
H1957 C1932 0.950 . S
H1958 C1934 0.950 . S
H1959 C1935 0.949 . S
H1960 C1937 0.950 . S
H1961 C1939 0.950 . S
C1962 C1963 1.349 . S
C1962 C1964 1.327 . S
C1962 H1987 0.950 . S
C1963 C1962 1.349 . S
C1963 C1979 1.349 . S
C1964 C1962 1.327 . S
C1964 C1983 1.429 . S
C1964 H1988 0.950 . S
C1965 C1982 1.574 1_545 S
C1965 C1984 1.368 . S
C1965 H1989 0.949 . S
H1966 C1970 0.949 . S
C1967 C1968 1.349 . S
C1967 C1969 1.327 . S
C1967 H1990 0.950 . S
C1968 C1967 1.349 . S
C1968 C1980 1.349 . S
C1969 C1967 1.327 . S
C1969 C1985 1.429 . S
C1969 H1991 0.950 . S
C1970 H1966 0.949 . S
C1970 C1978 1.574 1_565 S
C1970 C1986 1.368 . S
H1971 C1979 0.950 . S
H1972 C1977 0.950 . S
H1973 C1978 0.949 . S
H1974 C1980 0.950 . S
H1975 C1981 0.950 . S
H1976 C1982 0.949 . S
C1977 H1972 0.950 . S
C1977 C1979 1.327 . S
C1977 C1983 1.429 . S
C1978 C1970 1.574 1_545 S
C1978 H1973 0.949 . S
C1978 C1984 1.368 . S
C1979 C1963 1.349 . S
C1979 H1971 0.950 . S
C1979 C1977 1.327 . S
C1980 C1968 1.349 . S
C1980 H1974 0.950 . S
C1980 C1981 1.327 . S
C1981 H1975 0.950 . S
C1981 C1980 1.327 . S
C1981 C1985 1.429 . S
C1982 C1965 1.574 1_565 S
C1982 H1976 0.949 . S
C1982 C1986 1.368 . S
C1983 C1964 1.429 . S
C1983 C1977 1.429 . S
C1983 C1984 1.523 . S
C1984 C1965 1.368 . S
C1984 C1978 1.368 . S
C1984 C1983 1.523 . S
C1985 C1969 1.429 . S
C1985 C1981 1.429 . S
C1985 C1986 1.523 . S
C1986 C1970 1.368 . S
C1986 C1982 1.368 . S
C1986 C1985 1.523 . S
H1987 C1962 0.950 . S
H1988 C1964 0.950 . S
H1989 C1965 0.949 . S
H1990 C1967 0.950 . S
H1991 C1969 0.950 . S
C1992 C1993 1.349 . S
C1992 C1994 1.327 . S
C1992 H2017 0.950 . S
C1993 C1992 1.349 . S
C1993 C2009 1.349 . S
C1994 C1992 1.327 . S
C1994 C2013 1.429 . S
C1994 H2018 0.950 . S
C1995 C2012 1.574 . S
C1995 C2014 1.368 . S
C1995 H2019 0.949 . S
H1996 C2000 0.949 . S
C1997 C1998 1.349 . S
C1997 C1999 1.327 . S
C1997 H2020 0.950 . S
C1998 C1997 1.349 . S
C1998 C2010 1.349 . S
C1999 C1997 1.327 . S
C1999 C2015 1.429 . S
C1999 H2021 0.950 . S
C2000 H1996 0.949 . S
C2000 C2008 1.574 . S
C2000 C2016 1.368 . S
H2001 C2009 0.950 . S
H2002 C2007 0.950 . S
H2003 C2008 0.949 . S
H2004 C2010 0.950 . S
H2005 C2011 0.950 . S
H2006 C2012 0.949 . S
C2007 H2002 0.950 . S
C2007 C2009 1.327 . S
C2007 C2013 1.429 . S
C2008 C2000 1.574 . S
C2008 H2003 0.949 . S
C2008 C2014 1.368 . S
C2009 C1993 1.349 . S
C2009 H2001 0.950 . S
C2009 C2007 1.327 . S
C2010 C1998 1.349 . S
C2010 H2004 0.950 . S
C2010 C2011 1.327 . S
C2011 H2005 0.950 . S
C2011 C2010 1.327 . S
C2011 C2015 1.429 . S
C2012 C1995 1.574 . S
C2012 H2006 0.949 . S
C2012 C2016 1.368 . S
C2013 C1994 1.429 . S
C2013 C2007 1.429 . S
C2013 C2014 1.523 . S
C2014 C1995 1.368 . S
C2014 C2008 1.368 . S
C2014 C2013 1.523 . S
C2015 C1999 1.429 . S
C2015 C2011 1.429 . S
C2015 C2016 1.523 . S
C2016 C2000 1.368 . S
C2016 C2012 1.368 . S
C2016 C2015 1.523 . S
H2017 C1992 0.950 . S
H2018 C1994 0.950 . S
H2019 C1995 0.949 . S
H2020 C1997 0.950 . S
H2021 C1999 0.950 . S
C2022 C2023 1.349 . S
C2022 C2024 1.327 . S
C2022 H2047 0.950 . S
C2023 C2022 1.349 . S
C2023 C2039 1.349 . S
C2024 C2022 1.327 . S
C2024 C2043 1.429 . S
C2024 H2048 0.950 . S
C2025 C2042 1.574 . S
C2025 C2044 1.368 . S
C2025 H2049 0.949 . S
H2026 C2030 0.949 . S
C2027 C2028 1.349 . S
C2027 C2029 1.327 . S
C2027 H2050 0.950 . S
C2028 C2027 1.349 . S
C2028 C2040 1.349 . S
C2029 C2027 1.327 . S
C2029 C2045 1.429 . S
C2029 H2051 0.950 . S
C2030 H2026 0.949 . S
C2030 C2038 1.574 . S
C2030 C2046 1.368 . S
H2031 C2039 0.950 . S
H2032 C2037 0.950 . S
H2033 C2038 0.949 . S
H2034 C2040 0.950 . S
H2035 C2041 0.950 . S
H2036 C2042 0.949 . S
C2037 H2032 0.950 . S
C2037 C2039 1.327 . S
C2037 C2043 1.429 . S
C2038 C2030 1.574 . S
C2038 H2033 0.949 . S
C2038 C2044 1.368 . S
C2039 C2023 1.349 . S
C2039 H2031 0.950 . S
C2039 C2037 1.327 . S
C2040 C2028 1.349 . S
C2040 H2034 0.950 . S
C2040 C2041 1.327 . S
C2041 H2035 0.950 . S
C2041 C2040 1.327 . S
C2041 C2045 1.429 . S
C2042 C2025 1.574 . S
C2042 H2036 0.949 . S
C2042 C2046 1.368 . S
C2043 C2024 1.429 . S
C2043 C2037 1.429 . S
C2043 C2044 1.523 . S
C2044 C2025 1.368 . S
C2044 C2038 1.368 . S
C2044 C2043 1.523 . S
C2045 C2029 1.429 . S
C2045 C2041 1.429 . S
C2045 C2046 1.523 . S
C2046 C2030 1.368 . S
C2046 C2042 1.368 . S
C2046 C2045 1.523 . S
H2047 C2022 0.950 . S
H2048 C2024 0.950 . S
H2049 C2025 0.949 . S
H2050 C2027 0.950 . S
H2051 C2029 0.950 . S
C2052 C2053 1.349 . S
C2052 C2054 1.327 . S
C2052 H2077 0.950 . S
C2053 C2052 1.349 . S
C2053 C2069 1.349 . S
C2054 C2052 1.327 . S
C2054 C2073 1.429 . S
C2054 H2078 0.950 . S
C2055 C2072 1.574 . S
C2055 C2074 1.368 . S
C2055 H2079 0.949 . S
H2056 C2060 0.949 . S
C2057 C2058 1.349 . S
C2057 C2059 1.327 . S
C2057 H2080 0.950 . S
C2058 C2057 1.349 . S
C2058 C2070 1.349 . S
C2059 C2057 1.327 . S
C2059 C2075 1.429 . S
C2059 H2081 0.950 . S
C2060 H2056 0.949 . S
C2060 C2068 1.574 . S
C2060 C2076 1.368 . S
H2061 C2069 0.950 . S
H2062 C2067 0.950 . S
H2063 C2068 0.949 . S
H2064 C2070 0.950 . S
H2065 C2071 0.950 . S
H2066 C2072 0.949 . S
C2067 H2062 0.950 . S
C2067 C2069 1.327 . S
C2067 C2073 1.429 . S
C2068 C2060 1.574 . S
C2068 H2063 0.949 . S
C2068 C2074 1.368 . S
C2069 C2053 1.349 . S
C2069 H2061 0.950 . S
C2069 C2067 1.327 . S
C2070 C2058 1.349 . S
C2070 H2064 0.950 . S
C2070 C2071 1.327 . S
C2071 H2065 0.950 . S
C2071 C2070 1.327 . S
C2071 C2075 1.429 . S
C2072 C2055 1.574 . S
C2072 H2066 0.949 . S
C2072 C2076 1.368 . S
C2073 C2054 1.429 . S
C2073 C2067 1.429 . S
C2073 C2074 1.523 . S
C2074 C2055 1.368 . S
C2074 C2068 1.368 . S
C2074 C2073 1.523 . S
C2075 C2059 1.429 . S
C2075 C2071 1.429 . S
C2075 C2076 1.523 . S
C2076 C2060 1.368 . S
C2076 C2072 1.368 . S
C2076 C2075 1.523 . S
H2077 C2052 0.950 . S
H2078 C2054 0.950 . S
H2079 C2055 0.949 . S
H2080 C2057 0.950 . S
H2081 C2059 0.950 . S
C2082 C2083 1.349 . S
C2082 C2084 1.327 . S
C2082 H2107 0.950 . S
C2083 C2082 1.349 . S
C2083 C2099 1.349 . S
C2084 C2082 1.327 . S
C2084 C2103 1.429 . S
C2084 H2108 0.950 . S
C2085 C2102 1.574 . S
C2085 C2104 1.368 . S
C2085 H2109 0.949 . S
H2086 C2090 0.949 . S
C2087 C2088 1.349 . S
C2087 C2089 1.327 . S
C2087 H2110 0.950 . S
C2088 C2087 1.349 . S
C2088 C2100 1.349 . S
C2089 C2087 1.327 . S
C2089 C2105 1.429 . S
C2089 H2111 0.950 . S
C2090 H2086 0.949 . S
C2090 C2098 1.574 . S
C2090 C2106 1.368 . S
H2091 C2099 0.950 . S
H2092 C2097 0.950 . S
H2093 C2098 0.949 . S
H2094 C2100 0.950 . S
H2095 C2101 0.950 . S
H2096 C2102 0.949 . S
C2097 H2092 0.950 . S
C2097 C2099 1.327 . S
C2097 C2103 1.429 . S
C2098 C2090 1.574 . S
C2098 H2093 0.949 . S
C2098 C2104 1.368 . S
C2099 C2083 1.349 . S
C2099 H2091 0.950 . S
C2099 C2097 1.327 . S
C2100 C2088 1.349 . S
C2100 H2094 0.950 . S
C2100 C2101 1.327 . S
C2101 H2095 0.950 . S
C2101 C2100 1.327 . S
C2101 C2105 1.429 . S
C2102 C2085 1.574 . S
C2102 H2096 0.949 . S
C2102 C2106 1.368 . S
C2103 C2084 1.429 . S
C2103 C2097 1.429 . S
C2103 C2104 1.523 . S
C2104 C2085 1.368 . S
C2104 C2098 1.368 . S
C2104 C2103 1.523 . S
C2105 C2089 1.429 . S
C2105 C2101 1.429 . S
C2105 C2106 1.523 . S
C2106 C2090 1.368 . S
C2106 C2102 1.368 . S
C2106 C2105 1.523 . S
H2107 C2082 0.950 . S
H2108 C2084 0.950 . S
H2109 C2085 0.949 . S
H2110 C2087 0.950 . S
H2111 C2089 0.950 . S
C2112 C2113 1.349 . S
C2112 C2114 1.327 . S
C2112 H2137 0.950 . S
C2113 C2112 1.349 . S
C2113 C2129 1.349 . S
C2114 C2112 1.327 . S
C2114 C2133 1.429 . S
C2114 H2138 0.950 . S
C2115 C2132 1.574 . S
C2115 C2134 1.368 . S
C2115 H2139 0.949 . S
H2116 C2120 0.949 . S
C2117 C2118 1.349 . S
C2117 C2119 1.327 . S
C2117 H2140 0.950 . S
C2118 C2117 1.349 . S
C2118 C2130 1.349 . S
C2119 C2117 1.327 . S
C2119 C2135 1.429 . S
C2119 H2141 0.950 . S
C2120 H2116 0.949 . S
C2120 C2128 1.574 . S
C2120 C2136 1.368 . S
H2121 C2129 0.950 . S
H2122 C2127 0.950 . S
H2123 C2128 0.949 . S
H2124 C2130 0.950 . S
H2125 C2131 0.950 . S
H2126 C2132 0.949 . S
C2127 H2122 0.950 . S
C2127 C2129 1.327 . S
C2127 C2133 1.429 . S
C2128 C2120 1.574 . S
C2128 H2123 0.949 . S
C2128 C2134 1.368 . S
C2129 C2113 1.349 . S
C2129 H2121 0.950 . S
C2129 C2127 1.327 . S
C2130 C2118 1.349 . S
C2130 H2124 0.950 . S
C2130 C2131 1.327 . S
C2131 H2125 0.950 . S
C2131 C2130 1.327 . S
C2131 C2135 1.429 . S
C2132 C2115 1.574 . S
C2132 H2126 0.949 . S
C2132 C2136 1.368 . S
C2133 C2114 1.429 . S
C2133 C2127 1.429 . S
C2133 C2134 1.523 . S
C2134 C2115 1.368 . S
C2134 C2128 1.368 . S
C2134 C2133 1.523 . S
C2135 C2119 1.429 . S
C2135 C2131 1.429 . S
C2135 C2136 1.523 . S
C2136 C2120 1.368 . S
C2136 C2132 1.368 . S
C2136 C2135 1.523 . S
H2137 C2112 0.950 . S
H2138 C2114 0.950 . S
H2139 C2115 0.949 . S
H2140 C2117 0.950 . S
H2141 C2119 0.950 . S
C2142 C2143 1.349 . S
C2142 C2144 1.327 . S
C2142 H2167 0.950 . S
C2143 C2142 1.349 . S
C2143 C2159 1.349 . S
C2144 C2142 1.327 . S
C2144 C2163 1.429 . S
C2144 H2168 0.950 . S
C2145 C2162 1.574 . S
C2145 C2164 1.368 . S
C2145 H2169 0.949 . S
H2146 C2150 0.949 . S
C2147 C2148 1.349 . S
C2147 C2149 1.327 . S
C2147 H2170 0.950 . S
C2148 C2147 1.349 . S
C2148 C2160 1.349 . S
C2149 C2147 1.327 . S
C2149 C2165 1.429 . S
C2149 H2171 0.950 . S
C2150 H2146 0.949 . S
C2150 C2158 1.574 . S
C2150 C2166 1.368 . S
H2151 C2159 0.950 . S
H2152 C2157 0.950 . S
H2153 C2158 0.949 . S
H2154 C2160 0.950 . S
H2155 C2161 0.950 . S
H2156 C2162 0.949 . S
C2157 H2152 0.950 . S
C2157 C2159 1.327 . S
C2157 C2163 1.429 . S
C2158 C2150 1.574 . S
C2158 H2153 0.949 . S
C2158 C2164 1.368 . S
C2159 C2143 1.349 . S
C2159 H2151 0.950 . S
C2159 C2157 1.327 . S
C2160 C2148 1.349 . S
C2160 H2154 0.950 . S
C2160 C2161 1.327 . S
C2161 H2155 0.950 . S
C2161 C2160 1.327 . S
C2161 C2165 1.429 . S
C2162 C2145 1.574 . S
C2162 H2156 0.949 . S
C2162 C2166 1.368 . S
C2163 C2144 1.429 . S
C2163 C2157 1.429 . S
C2163 C2164 1.523 . S
C2164 C2145 1.368 . S
C2164 C2158 1.368 . S
C2164 C2163 1.523 . S
C2165 C2149 1.429 . S
C2165 C2161 1.429 . S
C2165 C2166 1.523 . S
C2166 C2150 1.368 . S
C2166 C2162 1.368 . S
C2166 C2165 1.523 . S
H2167 C2142 0.950 . S
H2168 C2144 0.950 . S
H2169 C2145 0.949 . S
H2170 C2147 0.950 . S
H2171 C2149 0.950 . S
C2172 C2173 1.349 . S
C2172 C2174 1.327 . S
C2172 H2197 0.950 . S
C2173 C2172 1.349 . S
C2173 C2189 1.349 . S
C2174 C2172 1.327 . S
C2174 C2193 1.429 . S
C2174 H2198 0.950 . S
C2175 C2192 1.574 . S
C2175 C2194 1.368 . S
C2175 H2199 0.949 . S
H2176 C2180 0.949 . S
C2177 C2178 1.349 . S
C2177 C2179 1.327 . S
C2177 H2200 0.950 . S
C2178 C2177 1.349 . S
C2178 C2190 1.349 . S
C2179 C2177 1.327 . S
C2179 C2195 1.429 . S
C2179 H2201 0.950 . S
C2180 H2176 0.949 . S
C2180 C2188 1.574 . S
C2180 C2196 1.368 . S
H2181 C2189 0.950 . S
H2182 C2187 0.950 . S
H2183 C2188 0.949 . S
H2184 C2190 0.950 . S
H2185 C2191 0.950 . S
H2186 C2192 0.949 . S
C2187 H2182 0.950 . S
C2187 C2189 1.327 . S
C2187 C2193 1.429 . S
C2188 C2180 1.574 . S
C2188 H2183 0.949 . S
C2188 C2194 1.368 . S
C2189 C2173 1.349 . S
C2189 H2181 0.950 . S
C2189 C2187 1.327 . S
C2190 C2178 1.349 . S
C2190 H2184 0.950 . S
C2190 C2191 1.327 . S
C2191 H2185 0.950 . S
C2191 C2190 1.327 . S
C2191 C2195 1.429 . S
C2192 C2175 1.574 . S
C2192 H2186 0.949 . S
C2192 C2196 1.368 . S
C2193 C2174 1.429 . S
C2193 C2187 1.429 . S
C2193 C2194 1.523 . S
C2194 C2175 1.368 . S
C2194 C2188 1.368 . S
C2194 C2193 1.523 . S
C2195 C2179 1.429 . S
C2195 C2191 1.429 . S
C2195 C2196 1.523 . S
C2196 C2180 1.368 . S
C2196 C2192 1.368 . S
C2196 C2195 1.523 . S
H2197 C2172 0.950 . S
H2198 C2174 0.950 . S
H2199 C2175 0.949 . S
H2200 C2177 0.950 . S
H2201 C2179 0.950 . S
C2202 C2203 1.349 . S
C2202 C2204 1.327 . S
C2202 H2227 0.950 . S
C2203 C2202 1.349 . S
C2203 C2219 1.349 . S
C2204 C2202 1.327 . S
C2204 C2223 1.429 . S
C2204 H2228 0.950 . S
C2205 C2222 1.574 . S
C2205 C2224 1.368 . S
C2205 H2229 0.949 . S
H2206 C2210 0.949 . S
C2207 C2208 1.349 . S
C2207 C2209 1.327 . S
C2207 H2230 0.950 . S
C2208 C2207 1.349 . S
C2208 C2220 1.349 . S
C2209 C2207 1.327 . S
C2209 C2225 1.429 . S
C2209 H2231 0.950 . S
C2210 H2206 0.949 . S
C2210 C2218 1.574 . S
C2210 C2226 1.368 . S
H2211 C2219 0.950 . S
H2212 C2217 0.950 . S
H2213 C2218 0.949 . S
H2214 C2220 0.950 . S
H2215 C2221 0.950 . S
H2216 C2222 0.949 . S
C2217 H2212 0.950 . S
C2217 C2219 1.327 . S
C2217 C2223 1.429 . S
C2218 C2210 1.574 . S
C2218 H2213 0.949 . S
C2218 C2224 1.368 . S
C2219 C2203 1.349 . S
C2219 H2211 0.950 . S
C2219 C2217 1.327 . S
C2220 C2208 1.349 . S
C2220 H2214 0.950 . S
C2220 C2221 1.327 . S
C2221 H2215 0.950 . S
C2221 C2220 1.327 . S
C2221 C2225 1.429 . S
C2222 C2205 1.574 . S
C2222 H2216 0.949 . S
C2222 C2226 1.368 . S
C2223 C2204 1.429 . S
C2223 C2217 1.429 . S
C2223 C2224 1.523 . S
C2224 C2205 1.368 . S
C2224 C2218 1.368 . S
C2224 C2223 1.523 . S
C2225 C2209 1.429 . S
C2225 C2221 1.429 . S
C2225 C2226 1.523 . S
C2226 C2210 1.368 . S
C2226 C2222 1.368 . S
C2226 C2225 1.523 . S
H2227 C2202 0.950 . S
H2228 C2204 0.950 . S
H2229 C2205 0.949 . S
H2230 C2207 0.950 . S
H2231 C2209 0.950 . S
C2232 C2233 1.349 . S
C2232 C2234 1.327 . S
C2232 H2257 0.950 . S
C2233 C2232 1.349 . S
C2233 C2249 1.349 . S
C2234 C2232 1.327 . S
C2234 C2253 1.429 . S
C2234 H2258 0.950 . S
C2235 C2252 1.574 . S
C2235 C2254 1.368 . S
C2235 H2259 0.949 . S
H2236 C2240 0.949 . S
C2237 C2238 1.349 . S
C2237 C2239 1.327 . S
C2237 H2260 0.950 . S
C2238 C2237 1.349 . S
C2238 C2250 1.349 . S
C2239 C2237 1.327 . S
C2239 C2255 1.429 . S
C2239 H2261 0.950 . S
C2240 H2236 0.949 . S
C2240 C2248 1.574 . S
C2240 C2256 1.368 . S
H2241 C2249 0.950 . S
H2242 C2247 0.950 . S
H2243 C2248 0.949 . S
H2244 C2250 0.950 . S
H2245 C2251 0.950 . S
H2246 C2252 0.949 . S
C2247 H2242 0.950 . S
C2247 C2249 1.327 . S
C2247 C2253 1.429 . S
C2248 C2240 1.574 . S
C2248 H2243 0.949 . S
C2248 C2254 1.368 . S
C2249 C2233 1.349 . S
C2249 H2241 0.950 . S
C2249 C2247 1.327 . S
C2250 C2238 1.349 . S
C2250 H2244 0.950 . S
C2250 C2251 1.327 . S
C2251 H2245 0.950 . S
C2251 C2250 1.327 . S
C2251 C2255 1.429 . S
C2252 C2235 1.574 . S
C2252 H2246 0.949 . S
C2252 C2256 1.368 . S
C2253 C2234 1.429 . S
C2253 C2247 1.429 . S
C2253 C2254 1.523 . S
C2254 C2235 1.368 . S
C2254 C2248 1.368 . S
C2254 C2253 1.523 . S
C2255 C2239 1.429 . S
C2255 C2251 1.429 . S
C2255 C2256 1.523 . S
C2256 C2240 1.368 . S
C2256 C2252 1.368 . S
C2256 C2255 1.523 . S
H2257 C2232 0.950 . S
H2258 C2234 0.950 . S
H2259 C2235 0.949 . S
H2260 C2237 0.950 . S
H2261 C2239 0.950 . S
C2262 C2263 1.349 . S
C2262 C2264 1.327 . S
C2262 H2287 0.950 . S
C2263 C2262 1.349 . S
C2263 C2279 1.349 . S
C2264 C2262 1.327 . S
C2264 C2283 1.429 . S
C2264 H2288 0.950 . S
C2265 C2282 1.574 . S
C2265 C2284 1.368 . S
C2265 H2289 0.949 . S
H2266 C2270 0.949 . S
C2267 C2268 1.349 . S
C2267 C2269 1.327 . S
C2267 H2290 0.950 . S
C2268 C2267 1.349 . S
C2268 C2280 1.349 . S
C2269 C2267 1.327 . S
C2269 C2285 1.429 . S
C2269 H2291 0.950 . S
C2270 H2266 0.949 . S
C2270 C2278 1.574 . S
C2270 C2286 1.368 . S
H2271 C2279 0.950 . S
H2272 C2277 0.950 . S
H2273 C2278 0.949 . S
H2274 C2280 0.950 . S
H2275 C2281 0.950 . S
H2276 C2282 0.949 . S
C2277 H2272 0.950 . S
C2277 C2279 1.327 . S
C2277 C2283 1.429 . S
C2278 C2270 1.574 . S
C2278 H2273 0.949 . S
C2278 C2284 1.368 . S
C2279 C2263 1.349 . S
C2279 H2271 0.950 . S
C2279 C2277 1.327 . S
C2280 C2268 1.349 . S
C2280 H2274 0.950 . S
C2280 C2281 1.327 . S
C2281 H2275 0.950 . S
C2281 C2280 1.327 . S
C2281 C2285 1.429 . S
C2282 C2265 1.574 . S
C2282 H2276 0.949 . S
C2282 C2286 1.368 . S
C2283 C2264 1.429 . S
C2283 C2277 1.429 . S
C2283 C2284 1.523 . S
C2284 C2265 1.368 . S
C2284 C2278 1.368 . S
C2284 C2283 1.523 . S
C2285 C2269 1.429 . S
C2285 C2281 1.429 . S
C2285 C2286 1.523 . S
C2286 C2270 1.368 . S
C2286 C2282 1.368 . S
C2286 C2285 1.523 . S
H2287 C2262 0.950 . S
H2288 C2264 0.950 . S
H2289 C2265 0.949 . S
H2290 C2267 0.950 . S
H2291 C2269 0.950 . S
C2292 C2293 1.349 . S
C2292 C2294 1.327 . S
C2292 H2317 0.950 . S
C2293 C2292 1.349 . S
C2293 C2309 1.349 . S
C2294 C2292 1.327 . S
C2294 C2313 1.429 . S
C2294 H2318 0.950 . S
C2295 C2312 1.574 . S
C2295 C2314 1.368 . S
C2295 H2319 0.949 . S
H2296 C2300 0.949 . S
C2297 C2298 1.349 . S
C2297 C2299 1.327 . S
C2297 H2320 0.950 . S
C2298 C2297 1.349 . S
C2298 C2310 1.349 . S
C2299 C2297 1.327 . S
C2299 C2315 1.429 . S
C2299 H2321 0.950 . S
C2300 H2296 0.949 . S
C2300 C2308 1.574 . S
C2300 C2316 1.368 . S
H2301 C2309 0.950 . S
H2302 C2307 0.950 . S
H2303 C2308 0.949 . S
H2304 C2310 0.950 . S
H2305 C2311 0.950 . S
H2306 C2312 0.949 . S
C2307 H2302 0.950 . S
C2307 C2309 1.327 . S
C2307 C2313 1.429 . S
C2308 C2300 1.574 . S
C2308 H2303 0.949 . S
C2308 C2314 1.368 . S
C2309 C2293 1.349 . S
C2309 H2301 0.950 . S
C2309 C2307 1.327 . S
C2310 C2298 1.349 . S
C2310 H2304 0.950 . S
C2310 C2311 1.327 . S
C2311 H2305 0.950 . S
C2311 C2310 1.327 . S
C2311 C2315 1.429 . S
C2312 C2295 1.574 . S
C2312 H2306 0.949 . S
C2312 C2316 1.368 . S
C2313 C2294 1.429 . S
C2313 C2307 1.429 . S
C2313 C2314 1.523 . S
C2314 C2295 1.368 . S
C2314 C2308 1.368 . S
C2314 C2313 1.523 . S
C2315 C2299 1.429 . S
C2315 C2311 1.429 . S
C2315 C2316 1.523 . S
C2316 C2300 1.368 . S
C2316 C2312 1.368 . S
C2316 C2315 1.523 . S
H2317 C2292 0.950 . S
H2318 C2294 0.950 . S
H2319 C2295 0.949 . S
H2320 C2297 0.950 . S
H2321 C2299 0.950 . S
C2322 C2323 1.349 . S
C2322 C2324 1.327 . S
C2322 H2347 0.950 . S
C2323 C2322 1.349 . S
C2323 C2339 1.349 . S
C2324 C2322 1.327 . S
C2324 C2343 1.429 . S
C2324 H2348 0.950 . S
C2325 C2342 1.574 . S
C2325 C2344 1.368 . S
C2325 H2349 0.949 . S
H2326 C2330 0.949 . S
C2327 C2328 1.349 . S
C2327 C2329 1.327 . S
C2327 H2350 0.950 . S
C2328 C2327 1.349 . S
C2328 C2340 1.349 . S
C2329 C2327 1.327 . S
C2329 C2345 1.429 . S
C2329 H2351 0.950 . S
C2330 H2326 0.949 . S
C2330 C2338 1.574 . S
C2330 C2346 1.368 . S
H2331 C2339 0.950 . S
H2332 C2337 0.950 . S
H2333 C2338 0.949 . S
H2334 C2340 0.950 . S
H2335 C2341 0.950 . S
H2336 C2342 0.949 . S
C2337 H2332 0.950 . S
C2337 C2339 1.327 . S
C2337 C2343 1.429 . S
C2338 C2330 1.574 . S
C2338 H2333 0.949 . S
C2338 C2344 1.368 . S
C2339 C2323 1.349 . S
C2339 H2331 0.950 . S
C2339 C2337 1.327 . S
C2340 C2328 1.349 . S
C2340 H2334 0.950 . S
C2340 C2341 1.327 . S
C2341 H2335 0.950 . S
C2341 C2340 1.327 . S
C2341 C2345 1.429 . S
C2342 C2325 1.574 . S
C2342 H2336 0.949 . S
C2342 C2346 1.368 . S
C2343 C2324 1.429 . S
C2343 C2337 1.429 . S
C2343 C2344 1.523 . S
C2344 C2325 1.368 . S
C2344 C2338 1.368 . S
C2344 C2343 1.523 . S
C2345 C2329 1.429 . S
C2345 C2341 1.429 . S
C2345 C2346 1.523 . S
C2346 C2330 1.368 . S
C2346 C2342 1.368 . S
C2346 C2345 1.523 . S
H2347 C2322 0.950 . S
H2348 C2324 0.950 . S
H2349 C2325 0.949 . S
H2350 C2327 0.950 . S
H2351 C2329 0.950 . S
C2352 C2353 1.349 . S
C2352 C2354 1.327 . S
C2352 H2377 0.950 . S
C2353 C2352 1.349 . S
C2353 C2369 1.349 . S
C2354 C2352 1.327 . S
C2354 C2373 1.429 . S
C2354 H2378 0.950 . S
C2355 C2372 1.574 . S
C2355 C2374 1.368 . S
C2355 H2379 0.949 . S
H2356 C2360 0.949 . S
C2357 C2358 1.349 . S
C2357 C2359 1.327 . S
C2357 H2380 0.950 . S
C2358 C2357 1.349 . S
C2358 C2370 1.349 . S
C2359 C2357 1.327 . S
C2359 C2375 1.429 . S
C2359 H2381 0.950 . S
C2360 H2356 0.949 . S
C2360 C2368 1.574 . S
C2360 C2376 1.368 . S
H2361 C2369 0.950 . S
H2362 C2367 0.950 . S
H2363 C2368 0.949 . S
H2364 C2370 0.950 . S
H2365 C2371 0.950 . S
H2366 C2372 0.949 . S
C2367 H2362 0.950 . S
C2367 C2369 1.327 . S
C2367 C2373 1.429 . S
C2368 C2360 1.574 . S
C2368 H2363 0.949 . S
C2368 C2374 1.368 . S
C2369 C2353 1.349 . S
C2369 H2361 0.950 . S
C2369 C2367 1.327 . S
C2370 C2358 1.349 . S
C2370 H2364 0.950 . S
C2370 C2371 1.327 . S
C2371 H2365 0.950 . S
C2371 C2370 1.327 . S
C2371 C2375 1.429 . S
C2372 C2355 1.574 . S
C2372 H2366 0.949 . S
C2372 C2376 1.368 . S
C2373 C2354 1.429 . S
C2373 C2367 1.429 . S
C2373 C2374 1.523 . S
C2374 C2355 1.368 . S
C2374 C2368 1.368 . S
C2374 C2373 1.523 . S
C2375 C2359 1.429 . S
C2375 C2371 1.429 . S
C2375 C2376 1.523 . S
C2376 C2360 1.368 . S
C2376 C2372 1.368 . S
C2376 C2375 1.523 . S
H2377 C2352 0.950 . S
H2378 C2354 0.950 . S
H2379 C2355 0.949 . S
H2380 C2357 0.950 . S
H2381 C2359 0.950 . S
C2382 C2383 1.349 . S
C2382 C2384 1.327 . S
C2382 H2407 0.950 . S
C2383 C2382 1.349 . S
C2383 C2399 1.349 . S
C2384 C2382 1.327 . S
C2384 C2403 1.429 . S
C2384 H2408 0.950 . S
C2385 C2402 1.574 . S
C2385 C2404 1.368 . S
C2385 H2409 0.949 . S
H2386 C2390 0.949 . S
C2387 C2388 1.349 . S
C2387 C2389 1.327 . S
C2387 H2410 0.950 . S
C2388 C2387 1.349 . S
C2388 C2400 1.349 . S
C2389 C2387 1.327 . S
C2389 C2405 1.429 . S
C2389 H2411 0.950 . S
C2390 H2386 0.949 . S
C2390 C2398 1.574 . S
C2390 C2406 1.368 . S
H2391 C2399 0.950 . S
H2392 C2397 0.950 . S
H2393 C2398 0.949 . S
H2394 C2400 0.950 . S
H2395 C2401 0.950 . S
H2396 C2402 0.949 . S
C2397 H2392 0.950 . S
C2397 C2399 1.327 . S
C2397 C2403 1.429 . S
C2398 C2390 1.574 . S
C2398 H2393 0.949 . S
C2398 C2404 1.368 . S
C2399 C2383 1.349 . S
C2399 H2391 0.950 . S
C2399 C2397 1.327 . S
C2400 C2388 1.349 . S
C2400 H2394 0.950 . S
C2400 C2401 1.327 . S
C2401 H2395 0.950 . S
C2401 C2400 1.327 . S
C2401 C2405 1.429 . S
C2402 C2385 1.574 . S
C2402 H2396 0.949 . S
C2402 C2406 1.368 . S
C2403 C2384 1.429 . S
C2403 C2397 1.429 . S
C2403 C2404 1.523 . S
C2404 C2385 1.368 . S
C2404 C2398 1.368 . S
C2404 C2403 1.523 . S
C2405 C2389 1.429 . S
C2405 C2401 1.429 . S
C2405 C2406 1.523 . S
C2406 C2390 1.368 . S
C2406 C2402 1.368 . S
C2406 C2405 1.523 . S
H2407 C2382 0.950 . S
H2408 C2384 0.950 . S
H2409 C2385 0.949 . S
H2410 C2387 0.950 . S
H2411 C2389 0.950 . S
C2412 C2413 1.349 . S
C2412 C2414 1.327 . S
C2412 H2437 0.950 . S
C2413 C2412 1.349 . S
C2413 C2429 1.349 . S
C2414 C2412 1.327 . S
C2414 C2433 1.429 . S
C2414 H2438 0.950 . S
C2415 C2432 1.574 . S
C2415 C2434 1.368 . S
C2415 H2439 0.949 . S
H2416 C2420 0.949 . S
C2417 C2418 1.349 . S
C2417 C2419 1.327 . S
C2417 H2440 0.950 . S
C2418 C2417 1.349 . S
C2418 C2430 1.349 . S
C2419 C2417 1.327 . S
C2419 C2435 1.429 . S
C2419 H2441 0.950 . S
C2420 H2416 0.949 . S
C2420 C2428 1.574 . S
C2420 C2436 1.368 . S
H2421 C2429 0.950 . S
H2422 C2427 0.950 . S
H2423 C2428 0.949 . S
H2424 C2430 0.950 . S
H2425 C2431 0.950 . S
H2426 C2432 0.949 . S
C2427 H2422 0.950 . S
C2427 C2429 1.327 . S
C2427 C2433 1.429 . S
C2428 C2420 1.574 . S
C2428 H2423 0.949 . S
C2428 C2434 1.368 . S
C2429 C2413 1.349 . S
C2429 H2421 0.950 . S
C2429 C2427 1.327 . S
C2430 C2418 1.349 . S
C2430 H2424 0.950 . S
C2430 C2431 1.327 . S
C2431 H2425 0.950 . S
C2431 C2430 1.327 . S
C2431 C2435 1.429 . S
C2432 C2415 1.574 . S
C2432 H2426 0.949 . S
C2432 C2436 1.368 . S
C2433 C2414 1.429 . S
C2433 C2427 1.429 . S
C2433 C2434 1.523 . S
C2434 C2415 1.368 . S
C2434 C2428 1.368 . S
C2434 C2433 1.523 . S
C2435 C2419 1.429 . S
C2435 C2431 1.429 . S
C2435 C2436 1.523 . S
C2436 C2420 1.368 . S
C2436 C2432 1.368 . S
C2436 C2435 1.523 . S
H2437 C2412 0.950 . S
H2438 C2414 0.950 . S
H2439 C2415 0.949 . S
H2440 C2417 0.950 . S
H2441 C2419 0.950 . S
C2442 C2443 1.349 . S
C2442 C2444 1.327 . S
C2442 H2467 0.950 . S
C2443 C2442 1.349 . S
C2443 C2459 1.349 . S
C2444 C2442 1.327 . S
C2444 C2463 1.429 . S
C2444 H2468 0.950 . S
C2445 C2462 1.574 . S
C2445 C2464 1.368 . S
C2445 H2469 0.949 . S
H2446 C2450 0.949 . S
C2447 C2448 1.349 . S
C2447 C2449 1.327 . S
C2447 H2470 0.950 . S
C2448 C2447 1.349 . S
C2448 C2460 1.349 . S
C2449 C2447 1.327 . S
C2449 C2465 1.429 . S
C2449 H2471 0.950 . S
C2450 H2446 0.949 . S
C2450 C2458 1.574 . S
C2450 C2466 1.368 . S
H2451 C2459 0.950 . S
H2452 C2457 0.950 . S
H2453 C2458 0.949 . S
H2454 C2460 0.950 . S
H2455 C2461 0.950 . S
H2456 C2462 0.949 . S
C2457 H2452 0.950 . S
C2457 C2459 1.327 . S
C2457 C2463 1.429 . S
C2458 C2450 1.574 . S
C2458 H2453 0.949 . S
C2458 C2464 1.368 . S
C2459 C2443 1.349 . S
C2459 H2451 0.950 . S
C2459 C2457 1.327 . S
C2460 C2448 1.349 . S
C2460 H2454 0.950 . S
C2460 C2461 1.327 . S
C2461 H2455 0.950 . S
C2461 C2460 1.327 . S
C2461 C2465 1.429 . S
C2462 C2445 1.574 . S
C2462 H2456 0.949 . S
C2462 C2466 1.368 . S
C2463 C2444 1.429 . S
C2463 C2457 1.429 . S
C2463 C2464 1.523 . S
C2464 C2445 1.368 . S
C2464 C2458 1.368 . S
C2464 C2463 1.523 . S
C2465 C2449 1.429 . S
C2465 C2461 1.429 . S
C2465 C2466 1.523 . S
C2466 C2450 1.368 . S
C2466 C2462 1.368 . S
C2466 C2465 1.523 . S
H2467 C2442 0.950 . S
H2468 C2444 0.950 . S
H2469 C2445 0.949 . S
H2470 C2447 0.950 . S
H2471 C2449 0.950 . S
C2472 C2473 1.349 . S
C2472 C2474 1.327 . S
C2472 H2497 0.950 . S
C2473 C2472 1.349 . S
C2473 C2489 1.349 . S
C2474 C2472 1.327 . S
C2474 C2493 1.429 . S
C2474 H2498 0.950 . S
C2475 C2492 1.574 . S
C2475 C2494 1.368 . S
C2475 H2499 0.949 . S
H2476 C2480 0.949 . S
C2477 C2478 1.349 . S
C2477 C2479 1.327 . S
C2477 H2500 0.950 . S
C2478 C2477 1.349 . S
C2478 C2490 1.349 . S
C2479 C2477 1.327 . S
C2479 C2495 1.429 . S
C2479 H2501 0.950 . S
C2480 H2476 0.949 . S
C2480 C2488 1.574 . S
C2480 C2496 1.368 . S
H2481 C2489 0.950 . S
H2482 C2487 0.950 . S
H2483 C2488 0.949 . S
H2484 C2490 0.950 . S
H2485 C2491 0.950 . S
H2486 C2492 0.949 . S
C2487 H2482 0.950 . S
C2487 C2489 1.327 . S
C2487 C2493 1.429 . S
C2488 C2480 1.574 . S
C2488 H2483 0.949 . S
C2488 C2494 1.368 . S
C2489 C2473 1.349 . S
C2489 H2481 0.950 . S
C2489 C2487 1.327 . S
C2490 C2478 1.349 . S
C2490 H2484 0.950 . S
C2490 C2491 1.327 . S
C2491 H2485 0.950 . S
C2491 C2490 1.327 . S
C2491 C2495 1.429 . S
C2492 C2475 1.574 . S
C2492 H2486 0.949 . S
C2492 C2496 1.368 . S
C2493 C2474 1.429 . S
C2493 C2487 1.429 . S
C2493 C2494 1.523 . S
C2494 C2475 1.368 . S
C2494 C2488 1.368 . S
C2494 C2493 1.523 . S
C2495 C2479 1.429 . S
C2495 C2491 1.429 . S
C2495 C2496 1.523 . S
C2496 C2480 1.368 . S
C2496 C2492 1.368 . S
C2496 C2495 1.523 . S
H2497 C2472 0.950 . S
H2498 C2474 0.950 . S
H2499 C2475 0.949 . S
H2500 C2477 0.950 . S
H2501 C2479 0.950 . S
C2502 C2503 1.349 . S
C2502 C2504 1.327 . S
C2502 H2527 0.950 . S
C2503 C2502 1.349 . S
C2503 C2519 1.349 . S
C2504 C2502 1.327 . S
C2504 C2523 1.429 . S
C2504 H2528 0.950 . S
C2505 C2522 1.574 . S
C2505 C2524 1.368 . S
C2505 H2529 0.949 . S
H2506 C2510 0.949 . S
C2507 C2508 1.349 . S
C2507 C2509 1.327 . S
C2507 H2530 0.950 . S
C2508 C2507 1.349 . S
C2508 C2520 1.349 . S
C2509 C2507 1.327 . S
C2509 C2525 1.429 . S
C2509 H2531 0.950 . S
C2510 H2506 0.949 . S
C2510 C2518 1.574 . S
C2510 C2526 1.368 . S
H2511 C2519 0.950 . S
H2512 C2517 0.950 . S
H2513 C2518 0.949 . S
H2514 C2520 0.950 . S
H2515 C2521 0.950 . S
H2516 C2522 0.949 . S
C2517 H2512 0.950 . S
C2517 C2519 1.327 . S
C2517 C2523 1.429 . S
C2518 C2510 1.574 . S
C2518 H2513 0.949 . S
C2518 C2524 1.368 . S
C2519 C2503 1.349 . S
C2519 H2511 0.950 . S
C2519 C2517 1.327 . S
C2520 C2508 1.349 . S
C2520 H2514 0.950 . S
C2520 C2521 1.327 . S
C2521 H2515 0.950 . S
C2521 C2520 1.327 . S
C2521 C2525 1.429 . S
C2522 C2505 1.574 . S
C2522 H2516 0.949 . S
C2522 C2526 1.368 . S
C2523 C2504 1.429 . S
C2523 C2517 1.429 . S
C2523 C2524 1.523 . S
C2524 C2505 1.368 . S
C2524 C2518 1.368 . S
C2524 C2523 1.523 . S
C2525 C2509 1.429 . S
C2525 C2521 1.429 . S
C2525 C2526 1.523 . S
C2526 C2510 1.368 . S
C2526 C2522 1.368 . S
C2526 C2525 1.523 . S
H2527 C2502 0.950 . S
H2528 C2504 0.950 . S
H2529 C2505 0.949 . S
H2530 C2507 0.950 . S
H2531 C2509 0.950 . S
C2532 C2533 1.349 . S
C2532 C2534 1.327 . S
C2532 H2557 0.950 . S
C2533 C2532 1.349 . S
C2533 C2549 1.349 . S
C2534 C2532 1.327 . S
C2534 C2553 1.429 . S
C2534 H2558 0.950 . S
C2535 C2552 1.574 . S
C2535 C2554 1.368 . S
C2535 H2559 0.949 . S
H2536 C2540 0.949 . S
C2537 C2538 1.349 . S
C2537 C2539 1.327 . S
C2537 H2560 0.950 . S
C2538 C2537 1.349 . S
C2538 C2550 1.349 . S
C2539 C2537 1.327 . S
C2539 C2555 1.429 . S
C2539 H2561 0.950 . S
C2540 H2536 0.949 . S
C2540 C2548 1.574 . S
C2540 C2556 1.368 . S
H2541 C2549 0.950 . S
H2542 C2547 0.950 . S
H2543 C2548 0.949 . S
H2544 C2550 0.950 . S
H2545 C2551 0.950 . S
H2546 C2552 0.949 . S
C2547 H2542 0.950 . S
C2547 C2549 1.327 . S
C2547 C2553 1.429 . S
C2548 C2540 1.574 . S
C2548 H2543 0.949 . S
C2548 C2554 1.368 . S
C2549 C2533 1.349 . S
C2549 H2541 0.950 . S
C2549 C2547 1.327 . S
C2550 C2538 1.349 . S
C2550 H2544 0.950 . S
C2550 C2551 1.327 . S
C2551 H2545 0.950 . S
C2551 C2550 1.327 . S
C2551 C2555 1.429 . S
C2552 C2535 1.574 . S
C2552 H2546 0.949 . S
C2552 C2556 1.368 . S
C2553 C2534 1.429 . S
C2553 C2547 1.429 . S
C2553 C2554 1.523 . S
C2554 C2535 1.368 . S
C2554 C2548 1.368 . S
C2554 C2553 1.523 . S
C2555 C2539 1.429 . S
C2555 C2551 1.429 . S
C2555 C2556 1.523 . S
C2556 C2540 1.368 . S
C2556 C2552 1.368 . S
C2556 C2555 1.523 . S
H2557 C2532 0.950 . S
H2558 C2534 0.950 . S
H2559 C2535 0.949 . S
H2560 C2537 0.950 . S
H2561 C2539 0.950 . S
C2562 C2563 1.349 . S
C2562 C2564 1.327 . S
C2562 H2587 0.950 . S
C2563 C2562 1.349 . S
C2563 C2579 1.349 . S
C2564 C2562 1.327 . S
C2564 C2583 1.429 . S
C2564 H2588 0.950 . S
C2565 C2582 1.574 . S
C2565 C2584 1.368 . S
C2565 H2589 0.949 . S
H2566 C2570 0.949 . S
C2567 C2568 1.349 . S
C2567 C2569 1.327 . S
C2567 H2590 0.950 . S
C2568 C2567 1.349 . S
C2568 C2580 1.349 . S
C2569 C2567 1.327 . S
C2569 C2585 1.429 . S
C2569 H2591 0.950 . S
C2570 H2566 0.949 . S
C2570 C2578 1.574 . S
C2570 C2586 1.368 . S
H2571 C2579 0.950 . S
H2572 C2577 0.950 . S
H2573 C2578 0.949 . S
H2574 C2580 0.950 . S
H2575 C2581 0.950 . S
H2576 C2582 0.949 . S
C2577 H2572 0.950 . S
C2577 C2579 1.327 . S
C2577 C2583 1.429 . S
C2578 C2570 1.574 . S
C2578 H2573 0.949 . S
C2578 C2584 1.368 . S
C2579 C2563 1.349 . S
C2579 H2571 0.950 . S
C2579 C2577 1.327 . S
C2580 C2568 1.349 . S
C2580 H2574 0.950 . S
C2580 C2581 1.327 . S
C2581 H2575 0.950 . S
C2581 C2580 1.327 . S
C2581 C2585 1.429 . S
C2582 C2565 1.574 . S
C2582 H2576 0.949 . S
C2582 C2586 1.368 . S
C2583 C2564 1.429 . S
C2583 C2577 1.429 . S
C2583 C2584 1.523 . S
C2584 C2565 1.368 . S
C2584 C2578 1.368 . S
C2584 C2583 1.523 . S
C2585 C2569 1.429 . S
C2585 C2581 1.429 . S
C2585 C2586 1.523 . S
C2586 C2570 1.368 . S
C2586 C2582 1.368 . S
C2586 C2585 1.523 . S
H2587 C2562 0.950 . S
H2588 C2564 0.950 . S
H2589 C2565 0.949 . S
H2590 C2567 0.950 . S
H2591 C2569 0.950 . S
C2592 C2593 1.349 . S
C2592 C2594 1.327 . S
C2592 H2617 0.950 . S
C2593 C2592 1.349 . S
C2593 C2609 1.349 . S
C2594 C2592 1.327 . S
C2594 C2613 1.429 . S
C2594 H2618 0.950 . S
C2595 C2612 1.574 . S
C2595 C2614 1.368 . S
C2595 H2619 0.949 . S
H2596 C2600 0.949 . S
C2597 C2598 1.349 . S
C2597 C2599 1.327 . S
C2597 H2620 0.950 . S
C2598 C2597 1.349 . S
C2598 C2610 1.349 . S
C2599 C2597 1.327 . S
C2599 C2615 1.429 . S
C2599 H2621 0.950 . S
C2600 H2596 0.949 . S
C2600 C2608 1.574 . S
C2600 C2616 1.368 . S
H2601 C2609 0.950 . S
H2602 C2607 0.950 . S
H2603 C2608 0.949 . S
H2604 C2610 0.950 . S
H2605 C2611 0.950 . S
H2606 C2612 0.949 . S
C2607 H2602 0.950 . S
C2607 C2609 1.327 . S
C2607 C2613 1.429 . S
C2608 C2600 1.574 . S
C2608 H2603 0.949 . S
C2608 C2614 1.368 . S
C2609 C2593 1.349 . S
C2609 H2601 0.950 . S
C2609 C2607 1.327 . S
C2610 C2598 1.349 . S
C2610 H2604 0.950 . S
C2610 C2611 1.327 . S
C2611 H2605 0.950 . S
C2611 C2610 1.327 . S
C2611 C2615 1.429 . S
C2612 C2595 1.574 . S
C2612 H2606 0.949 . S
C2612 C2616 1.368 . S
C2613 C2594 1.429 . S
C2613 C2607 1.429 . S
C2613 C2614 1.523 . S
C2614 C2595 1.368 . S
C2614 C2608 1.368 . S
C2614 C2613 1.523 . S
C2615 C2599 1.429 . S
C2615 C2611 1.429 . S
C2615 C2616 1.523 . S
C2616 C2600 1.368 . S
C2616 C2612 1.368 . S
C2616 C2615 1.523 . S
H2617 C2592 0.950 . S
H2618 C2594 0.950 . S
H2619 C2595 0.949 . S
H2620 C2597 0.950 . S
H2621 C2599 0.950 . S
C2622 C2623 1.349 . S
C2622 C2624 1.327 . S
C2622 H2647 0.950 . S
C2623 C2622 1.349 . S
C2623 C2639 1.349 . S
C2624 C2622 1.327 . S
C2624 C2643 1.429 . S
C2624 H2648 0.950 . S
C2625 C2642 1.574 . S
C2625 C2644 1.368 . S
C2625 H2649 0.949 . S
H2626 C2630 0.949 . S
C2627 C2628 1.349 . S
C2627 C2629 1.327 . S
C2627 H2650 0.950 . S
C2628 C2627 1.349 . S
C2628 C2640 1.349 . S
C2629 C2627 1.327 . S
C2629 C2645 1.429 . S
C2629 H2651 0.950 . S
C2630 H2626 0.949 . S
C2630 C2638 1.574 . S
C2630 C2646 1.368 . S
H2631 C2639 0.950 . S
H2632 C2637 0.950 . S
H2633 C2638 0.949 . S
H2634 C2640 0.950 . S
H2635 C2641 0.950 . S
H2636 C2642 0.949 . S
C2637 H2632 0.950 . S
C2637 C2639 1.327 . S
C2637 C2643 1.429 . S
C2638 C2630 1.574 . S
C2638 H2633 0.949 . S
C2638 C2644 1.368 . S
C2639 C2623 1.349 . S
C2639 H2631 0.950 . S
C2639 C2637 1.327 . S
C2640 C2628 1.349 . S
C2640 H2634 0.950 . S
C2640 C2641 1.327 . S
C2641 H2635 0.950 . S
C2641 C2640 1.327 . S
C2641 C2645 1.429 . S
C2642 C2625 1.574 . S
C2642 H2636 0.949 . S
C2642 C2646 1.368 . S
C2643 C2624 1.429 . S
C2643 C2637 1.429 . S
C2643 C2644 1.523 . S
C2644 C2625 1.368 . S
C2644 C2638 1.368 . S
C2644 C2643 1.523 . S
C2645 C2629 1.429 . S
C2645 C2641 1.429 . S
C2645 C2646 1.523 . S
C2646 C2630 1.368 . S
C2646 C2642 1.368 . S
C2646 C2645 1.523 . S
H2647 C2622 0.950 . S
H2648 C2624 0.950 . S
H2649 C2625 0.949 . S
H2650 C2627 0.950 . S
H2651 C2629 0.950 . S
C2652 C2653 1.349 . S
C2652 C2654 1.327 . S
C2652 H2677 0.950 . S
C2653 C2652 1.349 . S
C2653 C2669 1.349 . S
C2654 C2652 1.327 . S
C2654 C2673 1.429 . S
C2654 H2678 0.950 . S
C2655 C2672 1.574 . S
C2655 C2674 1.368 . S
C2655 H2679 0.949 . S
H2656 C2660 0.949 . S
C2657 C2658 1.349 . S
C2657 C2659 1.327 . S
C2657 H2680 0.950 . S
C2658 C2657 1.349 . S
C2658 C2670 1.349 . S
C2659 C2657 1.327 . S
C2659 C2675 1.429 . S
C2659 H2681 0.950 . S
C2660 H2656 0.949 . S
C2660 C2668 1.574 . S
C2660 C2676 1.368 . S
H2661 C2669 0.950 . S
H2662 C2667 0.950 . S
H2663 C2668 0.949 . S
H2664 C2670 0.950 . S
H2665 C2671 0.950 . S
H2666 C2672 0.949 . S
C2667 H2662 0.950 . S
C2667 C2669 1.327 . S
C2667 C2673 1.429 . S
C2668 C2660 1.574 . S
C2668 H2663 0.949 . S
C2668 C2674 1.368 . S
C2669 C2653 1.349 . S
C2669 H2661 0.950 . S
C2669 C2667 1.327 . S
C2670 C2658 1.349 . S
C2670 H2664 0.950 . S
C2670 C2671 1.327 . S
C2671 H2665 0.950 . S
C2671 C2670 1.327 . S
C2671 C2675 1.429 . S
C2672 C2655 1.574 . S
C2672 H2666 0.949 . S
C2672 C2676 1.368 . S
C2673 C2654 1.429 . S
C2673 C2667 1.429 . S
C2673 C2674 1.523 . S
C2674 C2655 1.368 . S
C2674 C2668 1.368 . S
C2674 C2673 1.523 . S
C2675 C2659 1.429 . S
C2675 C2671 1.429 . S
C2675 C2676 1.523 . S
C2676 C2660 1.368 . S
C2676 C2672 1.368 . S
C2676 C2675 1.523 . S
H2677 C2652 0.950 . S
H2678 C2654 0.950 . S
H2679 C2655 0.949 . S
H2680 C2657 0.950 . S
H2681 C2659 0.950 . S
C2682 C2683 1.349 . S
C2682 C2684 1.327 . S
C2682 H2707 0.950 . S
C2683 C2682 1.349 . S
C2683 C2699 1.349 . S
C2684 C2682 1.327 . S
C2684 C2703 1.429 . S
C2684 H2708 0.950 . S
C2685 C2702 1.574 . S
C2685 C2704 1.368 . S
C2685 H2709 0.949 . S
H2686 C2690 0.949 . S
C2687 C2688 1.349 . S
C2687 C2689 1.327 . S
C2687 H2710 0.950 . S
C2688 C2687 1.349 . S
C2688 C2700 1.349 . S
C2689 C2687 1.327 . S
C2689 C2705 1.429 . S
C2689 H2711 0.950 . S
C2690 H2686 0.949 . S
C2690 C2698 1.574 . S
C2690 C2706 1.368 . S
H2691 C2699 0.950 . S
H2692 C2697 0.950 . S
H2693 C2698 0.949 . S
H2694 C2700 0.950 . S
H2695 C2701 0.950 . S
H2696 C2702 0.949 . S
C2697 H2692 0.950 . S
C2697 C2699 1.327 . S
C2697 C2703 1.429 . S
C2698 C2690 1.574 . S
C2698 H2693 0.949 . S
C2698 C2704 1.368 . S
C2699 C2683 1.349 . S
C2699 H2691 0.950 . S
C2699 C2697 1.327 . S
C2700 C2688 1.349 . S
C2700 H2694 0.950 . S
C2700 C2701 1.327 . S
C2701 H2695 0.950 . S
C2701 C2700 1.327 . S
C2701 C2705 1.429 . S
C2702 C2685 1.574 . S
C2702 H2696 0.949 . S
C2702 C2706 1.368 . S
C2703 C2684 1.429 . S
C2703 C2697 1.429 . S
C2703 C2704 1.523 . S
C2704 C2685 1.368 . S
C2704 C2698 1.368 . S
C2704 C2703 1.523 . S
C2705 C2689 1.429 . S
C2705 C2701 1.429 . S
C2705 C2706 1.523 . S
C2706 C2690 1.368 . S
C2706 C2702 1.368 . S
C2706 C2705 1.523 . S
H2707 C2682 0.950 . S
H2708 C2684 0.950 . S
H2709 C2685 0.949 . S
H2710 C2687 0.950 . S
H2711 C2689 0.950 . S
C1273 C834 2.082 . S
C1278 C39 2.090 . S
C1303 C675 2.141 . S
C1308 C75 2.120 . S
C1333 C728 1.717 . S
C1338 C145 1.720 . S
C1363 C764 1.947 . S
C1368 C181 1.955 . S
C1393 C781 2.074 . S
C1398 C92 2.068 . S
C1423 C128 1.904 . S
C1428 C817 1.894 . S
C1453 C658 1.864 . S
C1458 C198 1.885 . S
C1483 C711 1.852 . S
C1488 C22 1.857 . S
C1513 C976 1.725 . S
C1518 C234 1.719 . S
C1543 C304 2.026 . S
C1548 C1046 2.023 . S
C1573 C357 1.891 . S
C1578 C870 1.865 . S
C1603 C940 2.201 . S
C1608 C410 2.204 . S
C1633 C1188 2.155 . S
C1638 C463 2.179 . S
C1663 C516 1.948 . S
C1668 C1258 1.940 . S
C1693 C569 2.231 . S
C1698 C1099 2.228 . S
C1723 C622 1.658 . S
C1728 C1135 1.620 . S
C1753 C923 1.765 . S
C1758 C605 1.769 . S
C1783 C1241 2.072 . S
C1788 C287 2.084 . S
C1813 C340 1.865 . S
C1818 C1082 1.854 . S
C1843 C1152 2.085 . S
C1848 C393 2.064 . S
C1873 C1205 2.167 . S
C1878 C251 2.187 . S
C1903 C499 1.926 . S
C1908 C1029 1.922 . S
C1933 C887 2.035 . S
C1938 C552 2.015 . S
C1963 C993 1.922 . S
C1968 C446 1.911 . S
C1993 C38 1.965 . S
C1998 C250 1.968 . S
C2023 C294 1.736 . S
C2028 C82 1.728 . S
C2053 C144 1.740 . S
C2058 C347 1.738 . S
C2083 C188 1.669 . S
C2088 C400 1.665 . S
C2113 C453 1.898 . S
C2118 C91 1.897 . S
C2143 C506 1.643 . S
C2148 C135 1.644 . S
C2173 C559 1.905 . S
C2178 C197 1.907 . S
C2203 C29 1.570 . S
C2208 C612 1.567 . S
C2233 C621 1.825 . S
C2238 C241 1.813 . S
C2263 C303 2.104 . S
C2268 C462 2.106 . S
C2293 C356 1.954 . S
C2298 C515 1.953 . S
C2323 C568 2.186 . S
C2328 C409 2.185 . S
C2353 C886 1.884 . S
C2358 C665 1.875 . S
C2383 C930 1.678 . S
C2388 C718 1.675 . S
C2413 C780 1.952 . S
C2418 C992 1.948 . S
C2443 C824 1.759 . S
C2448 C1036 1.760 . S
C2473 C727 1.850 . S
C2478 C1089 1.844 . S
C2503 C771 1.851 . S
C2508 C1151 1.858 . S
C2533 C1204 2.119 . S
C2538 C833 2.119 . S
C2563 C674 1.912 . S
C2568 C1248 1.900 . S
C2593 C877 1.779 . S
C2598 C1257 1.786 . S
C2623 C1098 2.011 . S
C2628 C939 2.010 . S
C2653 C983 1.657 . S
C2658 C1142 1.646 . S
C2683 C1195 1.890 . S
C2688 C1045 1.894 . S
