# Generated by pormake.
# Topology kfi, (4)-cn, num edge types: 1
# Building blocks:
#     Node 0, Type 0, BuildingBlock: CEKHIL_clean_sbu_0, # of connection points: 4
#     Node 1, Type 0, BuildingBlock: CEKHIL_clean_sbu_0, # of connection points: 4
#     Node 2, Type 0, BuildingBlock: CEKHIL_clean_sbu_0, # of connection points: 4
#     Node 3, Type 0, BuildingBlock: CEKHIL_clean_sbu_0, # of connection points: 4
#     Node 4, Type 0, BuildingBlock: CEKHIL_clean_sbu_0, # of connection points: 4
#     Node 5, Type 0, BuildingBlock: CEKHIL_clean_sbu_0, # of connection points: 4
#     Node 6, Type 0, BuildingBlock: CEKHIL_clean_sbu_0, # of connection points: 4
#     Node 7, Type 0, BuildingBlock: CEKHIL_clean_sbu_0, # of connection points: 4
#     Node 8, Type 0, BuildingBlock: CEKHIL_clean_sbu_0, # of connection points: 4
#     Node 9, Type 0, BuildingBlock: CEKHIL_clean_sbu_0, # of connection points: 4
#     Node 10, Type 0, BuildingBlock: CEKHIL_clean_sbu_0, # of connection points: 4
#     Node 11, Type 0, BuildingBlock: CEKHIL_clean_sbu_0, # of connection points: 4
#     Node 12, Type 0, BuildingBlock: CEKHIL_clean_sbu_0, # of connection points: 4
#     Node 13, Type 0, BuildingBlock: CEKHIL_clean_sbu_0, # of connection points: 4
#     Node 14, Type 0, BuildingBlock: CEKHIL_clean_sbu_0, # of connection points: 4
#     Node 15, Type 0, BuildingBlock: CEKHIL_clean_sbu_0, # of connection points: 4
#     Node 16, Type 0, BuildingBlock: CEKHIL_clean_sbu_0, # of connection points: 4
#     Node 17, Type 0, BuildingBlock: CEKHIL_clean_sbu_0, # of connection points: 4
#     Node 18, Type 0, BuildingBlock: CEKHIL_clean_sbu_0, # of connection points: 4
#     Node 19, Type 0, BuildingBlock: CEKHIL_clean_sbu_0, # of connection points: 4
#     Node 20, Type 0, BuildingBlock: CEKHIL_clean_sbu_0, # of connection points: 4
#     Node 21, Type 0, BuildingBlock: CEKHIL_clean_sbu_0, # of connection points: 4
#     Node 22, Type 0, BuildingBlock: CEKHIL_clean_sbu_0, # of connection points: 4
#     Node 23, Type 0, BuildingBlock: CEKHIL_clean_sbu_0, # of connection points: 4
#     Node 24, Type 0, BuildingBlock: CEKHIL_clean_sbu_0, # of connection points: 4
#     Node 25, Type 0, BuildingBlock: CEKHIL_clean_sbu_0, # of connection points: 4
#     Node 26, Type 0, BuildingBlock: CEKHIL_clean_sbu_0, # of connection points: 4
#     Node 27, Type 0, BuildingBlock: CEKHIL_clean_sbu_0, # of connection points: 4
#     Node 28, Type 0, BuildingBlock: CEKHIL_clean_sbu_0, # of connection points: 4
#     Node 29, Type 0, BuildingBlock: CEKHIL_clean_sbu_0, # of connection points: 4
#     Node 30, Type 0, BuildingBlock: CEKHIL_clean_sbu_0, # of connection points: 4
#     Node 31, Type 0, BuildingBlock: CEKHIL_clean_sbu_0, # of connection points: 4
#     Node 32, Type 0, BuildingBlock: CEKHIL_clean_sbu_0, # of connection points: 4
#     Node 33, Type 0, BuildingBlock: CEKHIL_clean_sbu_0, # of connection points: 4
#     Node 34, Type 0, BuildingBlock: CEKHIL_clean_sbu_0, # of connection points: 4
#     Node 35, Type 0, BuildingBlock: CEKHIL_clean_sbu_0, # of connection points: 4
#     Node 36, Type 0, BuildingBlock: CEKHIL_clean_sbu_0, # of connection points: 4
#     Node 37, Type 0, BuildingBlock: CEKHIL_clean_sbu_0, # of connection points: 4
#     Node 38, Type 0, BuildingBlock: CEKHIL_clean_sbu_0, # of connection points: 4
#     Node 39, Type 0, BuildingBlock: CEKHIL_clean_sbu_0, # of connection points: 4
#     Node 40, Type 0, BuildingBlock: CEKHIL_clean_sbu_0, # of connection points: 4
#     Node 41, Type 0, BuildingBlock: CEKHIL_clean_sbu_0, # of connection points: 4
#     Node 42, Type 0, BuildingBlock: CEKHIL_clean_sbu_0, # of connection points: 4
#     Node 43, Type 0, BuildingBlock: CEKHIL_clean_sbu_0, # of connection points: 4
#     Node 44, Type 0, BuildingBlock: CEKHIL_clean_sbu_0, # of connection points: 4
#     Node 45, Type 0, BuildingBlock: CEKHIL_clean_sbu_0, # of connection points: 4
#     Node 46, Type 0, BuildingBlock: CEKHIL_clean_sbu_0, # of connection points: 4
#     Node 47, Type 0, BuildingBlock: CEKHIL_clean_sbu_0, # of connection points: 4
#     Node 48, Type 0, BuildingBlock: CEKHIL_clean_sbu_0, # of connection points: 4
#     Node 49, Type 0, BuildingBlock: CEKHIL_clean_sbu_0, # of connection points: 4
#     Node 50, Type 0, BuildingBlock: CEKHIL_clean_sbu_0, # of connection points: 4
#     Node 51, Type 0, BuildingBlock: CEKHIL_clean_sbu_0, # of connection points: 4
#     Node 52, Type 0, BuildingBlock: CEKHIL_clean_sbu_0, # of connection points: 4
#     Node 53, Type 0, BuildingBlock: CEKHIL_clean_sbu_0, # of connection points: 4
#     Node 54, Type 0, BuildingBlock: CEKHIL_clean_sbu_0, # of connection points: 4
#     Node 55, Type 0, BuildingBlock: CEKHIL_clean_sbu_0, # of connection points: 4
#     Node 56, Type 0, BuildingBlock: CEKHIL_clean_sbu_0, # of connection points: 4
#     Node 57, Type 0, BuildingBlock: CEKHIL_clean_sbu_0, # of connection points: 4
#     Node 58, Type 0, BuildingBlock: CEKHIL_clean_sbu_0, # of connection points: 4
#     Node 59, Type 0, BuildingBlock: CEKHIL_clean_sbu_0, # of connection points: 4
#     Node 60, Type 0, BuildingBlock: CEKHIL_clean_sbu_0, # of connection points: 4
#     Node 61, Type 0, BuildingBlock: CEKHIL_clean_sbu_0, # of connection points: 4
#     Node 62, Type 0, BuildingBlock: CEKHIL_clean_sbu_0, # of connection points: 4
#     Node 63, Type 0, BuildingBlock: CEKHIL_clean_sbu_0, # of connection points: 4
#     Node 64, Type 0, BuildingBlock: CEKHIL_clean_sbu_0, # of connection points: 4
#     Node 65, Type 0, BuildingBlock: CEKHIL_clean_sbu_0, # of connection points: 4
#     Node 66, Type 0, BuildingBlock: CEKHIL_clean_sbu_0, # of connection points: 4
#     Node 67, Type 0, BuildingBlock: CEKHIL_clean_sbu_0, # of connection points: 4
#     Node 68, Type 0, BuildingBlock: CEKHIL_clean_sbu_0, # of connection points: 4
#     Node 69, Type 0, BuildingBlock: CEKHIL_clean_sbu_0, # of connection points: 4
#     Node 70, Type 0, BuildingBlock: CEKHIL_clean_sbu_0, # of connection points: 4
#     Node 71, Type 0, BuildingBlock: CEKHIL_clean_sbu_0, # of connection points: 4
#     Node 72, Type 0, BuildingBlock: CEKHIL_clean_sbu_0, # of connection points: 4
#     Node 73, Type 0, BuildingBlock: CEKHIL_clean_sbu_0, # of connection points: 4
#     Node 74, Type 0, BuildingBlock: CEKHIL_clean_sbu_0, # of connection points: 4
#     Node 75, Type 0, BuildingBlock: CEKHIL_clean_sbu_0, # of connection points: 4
#     Node 76, Type 0, BuildingBlock: CEKHIL_clean_sbu_0, # of connection points: 4
#     Node 77, Type 0, BuildingBlock: CEKHIL_clean_sbu_0, # of connection points: 4
#     Node 78, Type 0, BuildingBlock: CEKHIL_clean_sbu_0, # of connection points: 4
#     Node 79, Type 0, BuildingBlock: CEKHIL_clean_sbu_0, # of connection points: 4
#     Node 80, Type 0, BuildingBlock: CEKHIL_clean_sbu_0, # of connection points: 4
#     Node 81, Type 0, BuildingBlock: CEKHIL_clean_sbu_0, # of connection points: 4
#     Node 82, Type 0, BuildingBlock: CEKHIL_clean_sbu_0, # of connection points: 4
#     Node 83, Type 0, BuildingBlock: CEKHIL_clean_sbu_0, # of connection points: 4
#     Node 84, Type 0, BuildingBlock: CEKHIL_clean_sbu_0, # of connection points: 4
#     Node 85, Type 0, BuildingBlock: CEKHIL_clean_sbu_0, # of connection points: 4
#     Node 86, Type 0, BuildingBlock: CEKHIL_clean_sbu_0, # of connection points: 4
#     Node 87, Type 0, BuildingBlock: CEKHIL_clean_sbu_0, # of connection points: 4
#     Node 88, Type 0, BuildingBlock: CEKHIL_clean_sbu_0, # of connection points: 4
#     Node 89, Type 0, BuildingBlock: CEKHIL_clean_sbu_0, # of connection points: 4
#     Node 90, Type 0, BuildingBlock: CEKHIL_clean_sbu_0, # of connection points: 4
#     Node 91, Type 0, BuildingBlock: CEKHIL_clean_sbu_0, # of connection points: 4
#     Node 92, Type 0, BuildingBlock: CEKHIL_clean_sbu_0, # of connection points: 4
#     Node 93, Type 0, BuildingBlock: CEKHIL_clean_sbu_0, # of connection points: 4
#     Node 94, Type 0, BuildingBlock: CEKHIL_clean_sbu_0, # of connection points: 4
#     Node 95, Type 0, BuildingBlock: CEKHIL_clean_sbu_0, # of connection points: 4
#     Edge 96, Type (0, 0), BuildingBlock: UVAHIK_clean_linker_0, # of connection points: 2
#     Edge 97, Type (0, 0), BuildingBlock: UVAHIK_clean_linker_0, # of connection points: 2
#     Edge 98, Type (0, 0), BuildingBlock: UVAHIK_clean_linker_0, # of connection points: 2
#     Edge 99, Type (0, 0), BuildingBlock: UVAHIK_clean_linker_0, # of connection points: 2
#     Edge 100, Type (0, 0), BuildingBlock: UVAHIK_clean_linker_0, # of connection points: 2
#     Edge 101, Type (0, 0), BuildingBlock: UVAHIK_clean_linker_0, # of connection points: 2
#     Edge 102, Type (0, 0), BuildingBlock: UVAHIK_clean_linker_0, # of connection points: 2
#     Edge 103, Type (0, 0), BuildingBlock: UVAHIK_clean_linker_0, # of connection points: 2
#     Edge 104, Type (0, 0), BuildingBlock: UVAHIK_clean_linker_0, # of connection points: 2
#     Edge 105, Type (0, 0), BuildingBlock: UVAHIK_clean_linker_0, # of connection points: 2
#     Edge 106, Type (0, 0), BuildingBlock: UVAHIK_clean_linker_0, # of connection points: 2
#     Edge 107, Type (0, 0), BuildingBlock: UVAHIK_clean_linker_0, # of connection points: 2
#     Edge 108, Type (0, 0), BuildingBlock: UVAHIK_clean_linker_0, # of connection points: 2
#     Edge 109, Type (0, 0), BuildingBlock: UVAHIK_clean_linker_0, # of connection points: 2
#     Edge 110, Type (0, 0), BuildingBlock: UVAHIK_clean_linker_0, # of connection points: 2
#     Edge 111, Type (0, 0), BuildingBlock: UVAHIK_clean_linker_0, # of connection points: 2
#     Edge 112, Type (0, 0), BuildingBlock: UVAHIK_clean_linker_0, # of connection points: 2
#     Edge 113, Type (0, 0), BuildingBlock: UVAHIK_clean_linker_0, # of connection points: 2
#     Edge 114, Type (0, 0), BuildingBlock: UVAHIK_clean_linker_0, # of connection points: 2
#     Edge 115, Type (0, 0), BuildingBlock: UVAHIK_clean_linker_0, # of connection points: 2
#     Edge 116, Type (0, 0), BuildingBlock: UVAHIK_clean_linker_0, # of connection points: 2
#     Edge 117, Type (0, 0), BuildingBlock: UVAHIK_clean_linker_0, # of connection points: 2
#     Edge 118, Type (0, 0), BuildingBlock: UVAHIK_clean_linker_0, # of connection points: 2
#     Edge 119, Type (0, 0), BuildingBlock: UVAHIK_clean_linker_0, # of connection points: 2
#     Edge 120, Type (0, 0), BuildingBlock: UVAHIK_clean_linker_0, # of connection points: 2
#     Edge 121, Type (0, 0), BuildingBlock: UVAHIK_clean_linker_0, # of connection points: 2
#     Edge 122, Type (0, 0), BuildingBlock: UVAHIK_clean_linker_0, # of connection points: 2
#     Edge 123, Type (0, 0), BuildingBlock: UVAHIK_clean_linker_0, # of connection points: 2
#     Edge 124, Type (0, 0), BuildingBlock: UVAHIK_clean_linker_0, # of connection points: 2
#     Edge 125, Type (0, 0), BuildingBlock: UVAHIK_clean_linker_0, # of connection points: 2
#     Edge 126, Type (0, 0), BuildingBlock: UVAHIK_clean_linker_0, # of connection points: 2
#     Edge 127, Type (0, 0), BuildingBlock: UVAHIK_clean_linker_0, # of connection points: 2
#     Edge 128, Type (0, 0), BuildingBlock: UVAHIK_clean_linker_0, # of connection points: 2
#     Edge 129, Type (0, 0), BuildingBlock: UVAHIK_clean_linker_0, # of connection points: 2
#     Edge 130, Type (0, 0), BuildingBlock: UVAHIK_clean_linker_0, # of connection points: 2
#     Edge 131, Type (0, 0), BuildingBlock: UVAHIK_clean_linker_0, # of connection points: 2
#     Edge 132, Type (0, 0), BuildingBlock: UVAHIK_clean_linker_0, # of connection points: 2
#     Edge 133, Type (0, 0), BuildingBlock: UVAHIK_clean_linker_0, # of connection points: 2
#     Edge 134, Type (0, 0), BuildingBlock: UVAHIK_clean_linker_0, # of connection points: 2
#     Edge 135, Type (0, 0), BuildingBlock: UVAHIK_clean_linker_0, # of connection points: 2
#     Edge 136, Type (0, 0), BuildingBlock: UVAHIK_clean_linker_0, # of connection points: 2
#     Edge 137, Type (0, 0), BuildingBlock: UVAHIK_clean_linker_0, # of connection points: 2
#     Edge 138, Type (0, 0), BuildingBlock: UVAHIK_clean_linker_0, # of connection points: 2
#     Edge 139, Type (0, 0), BuildingBlock: UVAHIK_clean_linker_0, # of connection points: 2
#     Edge 140, Type (0, 0), BuildingBlock: UVAHIK_clean_linker_0, # of connection points: 2
#     Edge 141, Type (0, 0), BuildingBlock: UVAHIK_clean_linker_0, # of connection points: 2
#     Edge 142, Type (0, 0), BuildingBlock: UVAHIK_clean_linker_0, # of connection points: 2
#     Edge 143, Type (0, 0), BuildingBlock: UVAHIK_clean_linker_0, # of connection points: 2
#     Edge 144, Type (0, 0), BuildingBlock: UVAHIK_clean_linker_0, # of connection points: 2
#     Edge 145, Type (0, 0), BuildingBlock: UVAHIK_clean_linker_0, # of connection points: 2
#     Edge 146, Type (0, 0), BuildingBlock: UVAHIK_clean_linker_0, # of connection points: 2
#     Edge 147, Type (0, 0), BuildingBlock: UVAHIK_clean_linker_0, # of connection points: 2
#     Edge 148, Type (0, 0), BuildingBlock: UVAHIK_clean_linker_0, # of connection points: 2
#     Edge 149, Type (0, 0), BuildingBlock: UVAHIK_clean_linker_0, # of connection points: 2
#     Edge 150, Type (0, 0), BuildingBlock: UVAHIK_clean_linker_0, # of connection points: 2
#     Edge 151, Type (0, 0), BuildingBlock: UVAHIK_clean_linker_0, # of connection points: 2
#     Edge 152, Type (0, 0), BuildingBlock: UVAHIK_clean_linker_0, # of connection points: 2
#     Edge 153, Type (0, 0), BuildingBlock: UVAHIK_clean_linker_0, # of connection points: 2
#     Edge 154, Type (0, 0), BuildingBlock: UVAHIK_clean_linker_0, # of connection points: 2
#     Edge 155, Type (0, 0), BuildingBlock: UVAHIK_clean_linker_0, # of connection points: 2
#     Edge 156, Type (0, 0), BuildingBlock: UVAHIK_clean_linker_0, # of connection points: 2
#     Edge 157, Type (0, 0), BuildingBlock: UVAHIK_clean_linker_0, # of connection points: 2
#     Edge 158, Type (0, 0), BuildingBlock: UVAHIK_clean_linker_0, # of connection points: 2
#     Edge 159, Type (0, 0), BuildingBlock: UVAHIK_clean_linker_0, # of connection points: 2
#     Edge 160, Type (0, 0), BuildingBlock: UVAHIK_clean_linker_0, # of connection points: 2
#     Edge 161, Type (0, 0), BuildingBlock: UVAHIK_clean_linker_0, # of connection points: 2
#     Edge 162, Type (0, 0), BuildingBlock: UVAHIK_clean_linker_0, # of connection points: 2
#     Edge 163, Type (0, 0), BuildingBlock: UVAHIK_clean_linker_0, # of connection points: 2
#     Edge 164, Type (0, 0), BuildingBlock: UVAHIK_clean_linker_0, # of connection points: 2
#     Edge 165, Type (0, 0), BuildingBlock: UVAHIK_clean_linker_0, # of connection points: 2
#     Edge 166, Type (0, 0), BuildingBlock: UVAHIK_clean_linker_0, # of connection points: 2
#     Edge 167, Type (0, 0), BuildingBlock: UVAHIK_clean_linker_0, # of connection points: 2
#     Edge 168, Type (0, 0), BuildingBlock: UVAHIK_clean_linker_0, # of connection points: 2
#     Edge 169, Type (0, 0), BuildingBlock: UVAHIK_clean_linker_0, # of connection points: 2
#     Edge 170, Type (0, 0), BuildingBlock: UVAHIK_clean_linker_0, # of connection points: 2
#     Edge 171, Type (0, 0), BuildingBlock: UVAHIK_clean_linker_0, # of connection points: 2
#     Edge 172, Type (0, 0), BuildingBlock: UVAHIK_clean_linker_0, # of connection points: 2
#     Edge 173, Type (0, 0), BuildingBlock: UVAHIK_clean_linker_0, # of connection points: 2
#     Edge 174, Type (0, 0), BuildingBlock: UVAHIK_clean_linker_0, # of connection points: 2
#     Edge 175, Type (0, 0), BuildingBlock: UVAHIK_clean_linker_0, # of connection points: 2
#     Edge 176, Type (0, 0), BuildingBlock: UVAHIK_clean_linker_0, # of connection points: 2
#     Edge 177, Type (0, 0), BuildingBlock: UVAHIK_clean_linker_0, # of connection points: 2
#     Edge 178, Type (0, 0), BuildingBlock: UVAHIK_clean_linker_0, # of connection points: 2
#     Edge 179, Type (0, 0), BuildingBlock: UVAHIK_clean_linker_0, # of connection points: 2
#     Edge 180, Type (0, 0), BuildingBlock: UVAHIK_clean_linker_0, # of connection points: 2
#     Edge 181, Type (0, 0), BuildingBlock: UVAHIK_clean_linker_0, # of connection points: 2
#     Edge 182, Type (0, 0), BuildingBlock: UVAHIK_clean_linker_0, # of connection points: 2
#     Edge 183, Type (0, 0), BuildingBlock: UVAHIK_clean_linker_0, # of connection points: 2
#     Edge 184, Type (0, 0), BuildingBlock: UVAHIK_clean_linker_0, # of connection points: 2
#     Edge 185, Type (0, 0), BuildingBlock: UVAHIK_clean_linker_0, # of connection points: 2
#     Edge 186, Type (0, 0), BuildingBlock: UVAHIK_clean_linker_0, # of connection points: 2
#     Edge 187, Type (0, 0), BuildingBlock: UVAHIK_clean_linker_0, # of connection points: 2
#     Edge 188, Type (0, 0), BuildingBlock: UVAHIK_clean_linker_0, # of connection points: 2
#     Edge 189, Type (0, 0), BuildingBlock: UVAHIK_clean_linker_0, # of connection points: 2
#     Edge 190, Type (0, 0), BuildingBlock: UVAHIK_clean_linker_0, # of connection points: 2
#     Edge 191, Type (0, 0), BuildingBlock: UVAHIK_clean_linker_0, # of connection points: 2
#     Edge 192, Type (0, 0), BuildingBlock: UVAHIK_clean_linker_0, # of connection points: 2
#     Edge 193, Type (0, 0), BuildingBlock: UVAHIK_clean_linker_0, # of connection points: 2
#     Edge 194, Type (0, 0), BuildingBlock: UVAHIK_clean_linker_0, # of connection points: 2
#     Edge 195, Type (0, 0), BuildingBlock: UVAHIK_clean_linker_0, # of connection points: 2
#     Edge 196, Type (0, 0), BuildingBlock: UVAHIK_clean_linker_0, # of connection points: 2
#     Edge 197, Type (0, 0), BuildingBlock: UVAHIK_clean_linker_0, # of connection points: 2
#     Edge 198, Type (0, 0), BuildingBlock: UVAHIK_clean_linker_0, # of connection points: 2
#     Edge 199, Type (0, 0), BuildingBlock: UVAHIK_clean_linker_0, # of connection points: 2
#     Edge 200, Type (0, 0), BuildingBlock: UVAHIK_clean_linker_0, # of connection points: 2
#     Edge 201, Type (0, 0), BuildingBlock: UVAHIK_clean_linker_0, # of connection points: 2
#     Edge 202, Type (0, 0), BuildingBlock: UVAHIK_clean_linker_0, # of connection points: 2
#     Edge 203, Type (0, 0), BuildingBlock: UVAHIK_clean_linker_0, # of connection points: 2
#     Edge 204, Type (0, 0), BuildingBlock: UVAHIK_clean_linker_0, # of connection points: 2
#     Edge 205, Type (0, 0), BuildingBlock: UVAHIK_clean_linker_0, # of connection points: 2
#     Edge 206, Type (0, 0), BuildingBlock: UVAHIK_clean_linker_0, # of connection points: 2
#     Edge 207, Type (0, 0), BuildingBlock: UVAHIK_clean_linker_0, # of connection points: 2
#     Edge 208, Type (0, 0), BuildingBlock: UVAHIK_clean_linker_0, # of connection points: 2
#     Edge 209, Type (0, 0), BuildingBlock: UVAHIK_clean_linker_0, # of connection points: 2
#     Edge 210, Type (0, 0), BuildingBlock: UVAHIK_clean_linker_0, # of connection points: 2
#     Edge 211, Type (0, 0), BuildingBlock: UVAHIK_clean_linker_0, # of connection points: 2
#     Edge 212, Type (0, 0), BuildingBlock: UVAHIK_clean_linker_0, # of connection points: 2
#     Edge 213, Type (0, 0), BuildingBlock: UVAHIK_clean_linker_0, # of connection points: 2
#     Edge 214, Type (0, 0), BuildingBlock: UVAHIK_clean_linker_0, # of connection points: 2
#     Edge 215, Type (0, 0), BuildingBlock: UVAHIK_clean_linker_0, # of connection points: 2
#     Edge 216, Type (0, 0), BuildingBlock: UVAHIK_clean_linker_0, # of connection points: 2
#     Edge 217, Type (0, 0), BuildingBlock: UVAHIK_clean_linker_0, # of connection points: 2
#     Edge 218, Type (0, 0), BuildingBlock: UVAHIK_clean_linker_0, # of connection points: 2
#     Edge 219, Type (0, 0), BuildingBlock: UVAHIK_clean_linker_0, # of connection points: 2
#     Edge 220, Type (0, 0), BuildingBlock: UVAHIK_clean_linker_0, # of connection points: 2
#     Edge 221, Type (0, 0), BuildingBlock: UVAHIK_clean_linker_0, # of connection points: 2
#     Edge 222, Type (0, 0), BuildingBlock: UVAHIK_clean_linker_0, # of connection points: 2
#     Edge 223, Type (0, 0), BuildingBlock: UVAHIK_clean_linker_0, # of connection points: 2
#     Edge 224, Type (0, 0), BuildingBlock: UVAHIK_clean_linker_0, # of connection points: 2
#     Edge 225, Type (0, 0), BuildingBlock: UVAHIK_clean_linker_0, # of connection points: 2
#     Edge 226, Type (0, 0), BuildingBlock: UVAHIK_clean_linker_0, # of connection points: 2
#     Edge 227, Type (0, 0), BuildingBlock: UVAHIK_clean_linker_0, # of connection points: 2
#     Edge 228, Type (0, 0), BuildingBlock: UVAHIK_clean_linker_0, # of connection points: 2
#     Edge 229, Type (0, 0), BuildingBlock: UVAHIK_clean_linker_0, # of connection points: 2
#     Edge 230, Type (0, 0), BuildingBlock: UVAHIK_clean_linker_0, # of connection points: 2
#     Edge 231, Type (0, 0), BuildingBlock: UVAHIK_clean_linker_0, # of connection points: 2
#     Edge 232, Type (0, 0), BuildingBlock: UVAHIK_clean_linker_0, # of connection points: 2
#     Edge 233, Type (0, 0), BuildingBlock: UVAHIK_clean_linker_0, # of connection points: 2
#     Edge 234, Type (0, 0), BuildingBlock: UVAHIK_clean_linker_0, # of connection points: 2
#     Edge 235, Type (0, 0), BuildingBlock: UVAHIK_clean_linker_0, # of connection points: 2
#     Edge 236, Type (0, 0), BuildingBlock: UVAHIK_clean_linker_0, # of connection points: 2
#     Edge 237, Type (0, 0), BuildingBlock: UVAHIK_clean_linker_0, # of connection points: 2
#     Edge 238, Type (0, 0), BuildingBlock: UVAHIK_clean_linker_0, # of connection points: 2
#     Edge 239, Type (0, 0), BuildingBlock: UVAHIK_clean_linker_0, # of connection points: 2
#     Edge 240, Type (0, 0), BuildingBlock: UVAHIK_clean_linker_0, # of connection points: 2
#     Edge 241, Type (0, 0), BuildingBlock: UVAHIK_clean_linker_0, # of connection points: 2
#     Edge 242, Type (0, 0), BuildingBlock: UVAHIK_clean_linker_0, # of connection points: 2
#     Edge 243, Type (0, 0), BuildingBlock: UVAHIK_clean_linker_0, # of connection points: 2
#     Edge 244, Type (0, 0), BuildingBlock: UVAHIK_clean_linker_0, # of connection points: 2
#     Edge 245, Type (0, 0), BuildingBlock: UVAHIK_clean_linker_0, # of connection points: 2
#     Edge 246, Type (0, 0), BuildingBlock: UVAHIK_clean_linker_0, # of connection points: 2
#     Edge 247, Type (0, 0), BuildingBlock: UVAHIK_clean_linker_0, # of connection points: 2
#     Edge 248, Type (0, 0), BuildingBlock: UVAHIK_clean_linker_0, # of connection points: 2
#     Edge 249, Type (0, 0), BuildingBlock: UVAHIK_clean_linker_0, # of connection points: 2
#     Edge 250, Type (0, 0), BuildingBlock: UVAHIK_clean_linker_0, # of connection points: 2
#     Edge 251, Type (0, 0), BuildingBlock: UVAHIK_clean_linker_0, # of connection points: 2
#     Edge 252, Type (0, 0), BuildingBlock: UVAHIK_clean_linker_0, # of connection points: 2
#     Edge 253, Type (0, 0), BuildingBlock: UVAHIK_clean_linker_0, # of connection points: 2
#     Edge 254, Type (0, 0), BuildingBlock: UVAHIK_clean_linker_0, # of connection points: 2
#     Edge 255, Type (0, 0), BuildingBlock: UVAHIK_clean_linker_0, # of connection points: 2
#     Edge 256, Type (0, 0), BuildingBlock: UVAHIK_clean_linker_0, # of connection points: 2
#     Edge 257, Type (0, 0), BuildingBlock: UVAHIK_clean_linker_0, # of connection points: 2
#     Edge 258, Type (0, 0), BuildingBlock: UVAHIK_clean_linker_0, # of connection points: 2
#     Edge 259, Type (0, 0), BuildingBlock: UVAHIK_clean_linker_0, # of connection points: 2
#     Edge 260, Type (0, 0), BuildingBlock: UVAHIK_clean_linker_0, # of connection points: 2
#     Edge 261, Type (0, 0), BuildingBlock: UVAHIK_clean_linker_0, # of connection points: 2
#     Edge 262, Type (0, 0), BuildingBlock: UVAHIK_clean_linker_0, # of connection points: 2
#     Edge 263, Type (0, 0), BuildingBlock: UVAHIK_clean_linker_0, # of connection points: 2
#     Edge 264, Type (0, 0), BuildingBlock: UVAHIK_clean_linker_0, # of connection points: 2
#     Edge 265, Type (0, 0), BuildingBlock: UVAHIK_clean_linker_0, # of connection points: 2
#     Edge 266, Type (0, 0), BuildingBlock: UVAHIK_clean_linker_0, # of connection points: 2
#     Edge 267, Type (0, 0), BuildingBlock: UVAHIK_clean_linker_0, # of connection points: 2
#     Edge 268, Type (0, 0), BuildingBlock: UVAHIK_clean_linker_0, # of connection points: 2
#     Edge 269, Type (0, 0), BuildingBlock: UVAHIK_clean_linker_0, # of connection points: 2
#     Edge 270, Type (0, 0), BuildingBlock: UVAHIK_clean_linker_0, # of connection points: 2
#     Edge 271, Type (0, 0), BuildingBlock: UVAHIK_clean_linker_0, # of connection points: 2
#     Edge 272, Type (0, 0), BuildingBlock: UVAHIK_clean_linker_0, # of connection points: 2
#     Edge 273, Type (0, 0), BuildingBlock: UVAHIK_clean_linker_0, # of connection points: 2
#     Edge 274, Type (0, 0), BuildingBlock: UVAHIK_clean_linker_0, # of connection points: 2
#     Edge 275, Type (0, 0), BuildingBlock: UVAHIK_clean_linker_0, # of connection points: 2
#     Edge 276, Type (0, 0), BuildingBlock: UVAHIK_clean_linker_0, # of connection points: 2
#     Edge 277, Type (0, 0), BuildingBlock: UVAHIK_clean_linker_0, # of connection points: 2
#     Edge 278, Type (0, 0), BuildingBlock: UVAHIK_clean_linker_0, # of connection points: 2
#     Edge 279, Type (0, 0), BuildingBlock: UVAHIK_clean_linker_0, # of connection points: 2
#     Edge 280, Type (0, 0), BuildingBlock: UVAHIK_clean_linker_0, # of connection points: 2
#     Edge 281, Type (0, 0), BuildingBlock: UVAHIK_clean_linker_0, # of connection points: 2
#     Edge 282, Type (0, 0), BuildingBlock: UVAHIK_clean_linker_0, # of connection points: 2
#     Edge 283, Type (0, 0), BuildingBlock: UVAHIK_clean_linker_0, # of connection points: 2
#     Edge 284, Type (0, 0), BuildingBlock: UVAHIK_clean_linker_0, # of connection points: 2
#     Edge 285, Type (0, 0), BuildingBlock: UVAHIK_clean_linker_0, # of connection points: 2
#     Edge 286, Type (0, 0), BuildingBlock: UVAHIK_clean_linker_0, # of connection points: 2
#     Edge 287, Type (0, 0), BuildingBlock: UVAHIK_clean_linker_0, # of connection points: 2
# Relax obj value: 0.163
# Max RMSD: 0.097
# Mean RMSD: 0.097
data_MOF--net-kfi--node1-CEKHIL_clean_sbu_0--edge1-UVAHIK_clean_linker_0
_symmetry_space_group_name_H-M    P1
_symmetry_Int_Tables_number       1
_symmetry_cell_setting            triclinic
loop_
_symmetry_equiv_pos_as_xyz
'x, y, z'
_cell_length_a     113.88505
_cell_length_b     113.88369
_cell_length_c     113.87213
_cell_angle_alpha  89.994922
_cell_angle_beta   90.002776
_cell_angle_gamma 90.004007
loop_
_atom_site_label
_atom_site_type_symbol
_atom_site_fract_x
_atom_site_fract_y
_atom_site_fract_z
_atom_type_partial_charge
Co0 Co 0.08097 0.19527 0.31901 0.0
O1 O 0.06636 0.18858 0.31383 0.0
O2 O 0.068 0.20356 0.32613 0.0
C3 C 0.09005 0.17805 0.32275 0.0
O4 O 0.09431 0.20432 0.32671 0.0
Co5 Co 0.10444 0.19047 0.30593 0.0
O6 O 0.11173 0.19827 0.31971 0.0
C7 C 0.08675 0.2064 0.29553 0.0
C8 C 0.06123 0.19641 0.32035 0.0
C9 C 0.10562 0.20433 0.32686 0.0
O10 O 0.08086 0.20641 0.30519 0.0
O11 O 0.0957 0.19981 0.2938 0.0
O12 O 0.08302 0.18259 0.33053 0.0
O13 O 0.0906 0.18354 0.31288 0.0
Co14 Co 0.80218 0.08133 0.31858 0.0
O15 O 0.80903 0.06681 0.31338 0.0
O16 O 0.79374 0.06826 0.32533 0.0
C17 C 0.8193 0.09033 0.32292 0.0
O18 O 0.79292 0.09454 0.32623 0.0
Co19 Co 0.80725 0.10497 0.30598 0.0
O20 O 0.79898 0.11209 0.31959 0.0
C21 C 0.79139 0.08756 0.29502 0.0
C22 C 0.80108 0.06159 0.31967 0.0
C23 C 0.79279 0.10583 0.3265 0.0
O24 O 0.79137 0.08142 0.30452 0.0
O25 O 0.79795 0.09659 0.29357 0.0
O26 O 0.81453 0.0832 0.33046 0.0
O27 O 0.81409 0.09106 0.31289 0.0
Co28 Co 0.91512 0.80018 0.31782 0.0
O29 O 0.9295 0.80802 0.31371 0.0
O30 O 0.92821 0.79248 0.32537 0.0
C31 C 0.90449 0.81643 0.32174 0.0
O32 O 0.90195 0.79004 0.32441 0.0
Co33 Co 0.89244 0.80393 0.30303 0.0
O34 O 0.88485 0.79447 0.31556 0.0
C35 C 0.91189 0.78986 0.29347 0.0
C36 C 0.93479 0.80027 0.3202 0.0
C37 C 0.89076 0.78892 0.32329 0.0
O38 O 0.91679 0.78957 0.30366 0.0
O39 O 0.90285 0.79613 0.29118 0.0
O40 O 0.91157 0.81221 0.32965 0.0
O41 O 0.90502 0.81144 0.3116 0.0
Co42 Co 0.19539 0.91568 0.31833 0.0
O43 O 0.18822 0.93021 0.31363 0.0
O44 O 0.20362 0.9287 0.32543 0.0
C45 C 0.17849 0.90618 0.32247 0.0
O46 O 0.20493 0.90238 0.32548 0.0
Co47 Co 0.19068 0.89245 0.30483 0.0
O48 O 0.1991 0.88501 0.31817 0.0
C49 C 0.20593 0.91067 0.2944 0.0
C50 C 0.19614 0.9354 0.31999 0.0
C51 C 0.20521 0.89109 0.32532 0.0
O52 O 0.2061 0.91629 0.30421 0.0
O53 O 0.19946 0.90164 0.2926 0.0
O54 O 0.18315 0.91318 0.33021 0.0
O55 O 0.18364 0.90592 0.31239 0.0
Co56 Co 0.0814 0.80012 0.67829 0.0
O57 O 0.06682 0.80735 0.68274 0.0
O58 O 0.06848 0.79218 0.67068 0.0
C59 C 0.0912 0.81697 0.67476 0.0
O60 O 0.09479 0.79058 0.67129 0.0
Co61 Co 0.10428 0.80424 0.69254 0.0
O62 O 0.112 0.79631 0.67906 0.0
C63 C 0.08564 0.78896 0.70213 0.0
C64 C 0.06171 0.79961 0.6761 0.0
C65 C 0.10608 0.79035 0.67165 0.0
O66 O 0.08026 0.78916 0.69218 0.0
O67 O 0.09475 0.79519 0.70429 0.0
O68 O 0.08436 0.81257 0.66675 0.0
O69 O 0.09112 0.81161 0.68474 0.0
Co70 Co 0.19585 0.08064 0.67765 0.0
O71 O 0.18824 0.06625 0.68222 0.0
O72 O 0.20361 0.06747 0.67035 0.0
C73 C 0.17941 0.09094 0.67362 0.0
O74 O 0.20579 0.09368 0.67054 0.0
Co75 Co 0.19214 0.10386 0.6915 0.0
O76 O 0.20039 0.11114 0.67798 0.0
C77 C 0.20712 0.08518 0.70145 0.0
C78 C 0.19596 0.06092 0.67573 0.0
C79 C 0.20628 0.10497 0.67073 0.0
O80 O 0.20668 0.07952 0.69167 0.0
O81 O 0.20111 0.09448 0.70342 0.0
O82 O 0.18363 0.08368 0.66588 0.0
O83 O 0.18454 0.09083 0.68371 0.0
Co84 Co 0.91523 0.19505 0.67952 0.0
O85 O 0.92953 0.18747 0.68435 0.0
O86 O 0.92854 0.20302 0.67269 0.0
C87 C 0.90517 0.17859 0.67494 0.0
O88 O 0.90224 0.20496 0.67227 0.0
Co89 Co 0.89176 0.19076 0.69284 0.0
O90 O 0.88471 0.19918 0.67929 0.0
C91 C 0.91011 0.20564 0.70348 0.0
C92 C 0.93499 0.19532 0.67813 0.0
C93 C 0.89093 0.20528 0.67225 0.0
O94 O 0.91589 0.20564 0.69375 0.0
O95 O 0.90093 0.19937 0.70516 0.0
O96 O 0.91258 0.183 0.66746 0.0
O97 O 0.90502 0.18354 0.68512 0.0
Co98 Co 0.80085 0.91553 0.67933 0.0
O99 O 0.80741 0.92999 0.6851 0.0
O100 O 0.79281 0.92871 0.67231 0.0
C101 C 0.81819 0.90659 0.67583 0.0
O102 O 0.79202 0.90242 0.67094 0.0
Co103 Co 0.80523 0.89158 0.69164 0.0
O104 O 0.79844 0.88483 0.6771 0.0
C105 C 0.78809 0.90839 0.70169 0.0
C106 C 0.79983 0.93531 0.67844 0.0
C107 C 0.79235 0.89115 0.67017 0.0
O108 O 0.78928 0.91526 0.69279 0.0
O109 O 0.79416 0.89903 0.70313 0.0
O110 O 0.81385 0.91383 0.66814 0.0
O111 O 0.81243 0.90569 0.68553 0.0
Co112 Co 0.31813 0.08118 0.19663 0.0
O113 O 0.31419 0.06668 0.18891 0.0
O114 O 0.3259 0.06825 0.20436 0.0
C115 C 0.32184 0.09175 0.18028 0.0
O116 O 0.32465 0.09447 0.20665 0.0
Co117 Co 0.30318 0.10373 0.19289 0.0
O118 O 0.31576 0.11151 0.20211 0.0
C119 C 0.29396 0.08449 0.20754 0.0
C120 C 0.32083 0.06155 0.19663 0.0
C121 C 0.32352 0.10567 0.20768 0.0
O122 O 0.30407 0.07941 0.20736 0.0
O123 O 0.29158 0.09361 0.20142 0.0
O124 O 0.32985 0.08479 0.18451 0.0
O125 O 0.31173 0.09117 0.18533 0.0
Co126 Co 0.91531 0.31758 0.1952 0.0
O127 O 0.92972 0.31259 0.18793 0.0
O128 O 0.92851 0.32454 0.20324 0.0
C129 C 0.90553 0.32184 0.17847 0.0
O130 O 0.90219 0.32505 0.20478 0.0
Co131 Co 0.8918 0.30435 0.19077 0.0
O132 O 0.88471 0.31814 0.19874 0.0
C133 C 0.90985 0.29387 0.20617 0.0
C134 C 0.93507 0.31898 0.19572 0.0
C135 C 0.89089 0.3252 0.20486 0.0
O136 O 0.91575 0.30352 0.20606 0.0
O137 O 0.90073 0.29218 0.19981 0.0
O138 O 0.91287 0.32941 0.18287 0.0
O139 O 0.90528 0.31178 0.18364 0.0
Co140 Co 0.67903 0.91645 0.19562 0.0
O141 O 0.68317 0.93079 0.18772 0.0
O142 O 0.6714 0.92957 0.20317 0.0
C143 C 0.67524 0.90566 0.17945 0.0
O144 O 0.6724 0.90333 0.2058 0.0
Co145 Co 0.69398 0.89385 0.19224 0.0
O146 O 0.68134 0.88625 0.20153 0.0
C147 C 0.70318 0.91325 0.20661 0.0
C148 C 0.67665 0.93611 0.19542 0.0
C149 C 0.67355 0.89215 0.20698 0.0
O150 O 0.69305 0.91826 0.20636 0.0
O151 O 0.70562 0.90407 0.20061 0.0
O152 O 0.6673 0.91279 0.18354 0.0
O153 O 0.68537 0.90626 0.18448 0.0
Co154 Co 0.08163 0.67992 0.1965 0.0
O155 O 0.06707 0.6846 0.18936 0.0
O156 O 0.06865 0.67238 0.20442 0.0
C157 C 0.09134 0.6764 0.17961 0.0
O158 O 0.09497 0.67267 0.20593 0.0
Co159 Co 0.10468 0.69391 0.19243 0.0
O160 O 0.11225 0.68021 0.20012 0.0
C161 C 0.08629 0.70354 0.20801 0.0
C162 C 0.06192 0.67792 0.19703 0.0
C163 C 0.10627 0.67284 0.20606 0.0
O164 O 0.0807 0.69371 0.20761 0.0
O165 O 0.09543 0.70565 0.2018 0.0
O166 O 0.0844 0.66845 0.18396 0.0
O167 O 0.0914 0.68634 0.18502 0.0
Co168 Co 0.31821 0.91556 0.80129 0.0
O169 O 0.31379 0.93011 0.80857 0.0
O170 O 0.32571 0.92851 0.79328 0.0
C171 C 0.32197 0.90571 0.81806 0.0
O172 O 0.32512 0.90215 0.79169 0.0
Co173 Co 0.30375 0.89284 0.80555 0.0
O174 O 0.3165 0.88507 0.79656 0.0
C175 C 0.29423 0.91145 0.79029 0.0
C176 C 0.32032 0.93525 0.80076 0.0
C177 C 0.32419 0.89091 0.7909 0.0
O178 O 0.30424 0.91671 0.79042 0.0
O179 O 0.29196 0.90244 0.79662 0.0
O180 O 0.32989 0.91261 0.81358 0.0
O181 O 0.3119 0.90582 0.81288 0.0
Co182 Co 0.08115 0.31733 0.80144 0.0
O183 O 0.06642 0.31294 0.80837 0.0
O184 O 0.06839 0.32483 0.7931 0.0
C185 C 0.0906 0.3211 0.81845 0.0
O186 O 0.09481 0.32422 0.79218 0.0
Co187 Co 0.1038 0.3029 0.80642 0.0
O188 O 0.11176 0.31568 0.79764 0.0
C189 C 0.08544 0.29324 0.79093 0.0
C190 C 0.06147 0.31947 0.80045 0.0
C191 C 0.10607 0.32333 0.79177 0.0
O192 O 0.08029 0.3033 0.79059 0.0
O193 O 0.09418 0.29104 0.79765 0.0
O194 O 0.08383 0.32904 0.81381 0.0
O195 O 0.09058 0.31105 0.81325 0.0
Co196 Co 0.67832 0.08214 0.80119 0.0
O197 O 0.68284 0.06774 0.80876 0.0
O198 O 0.67118 0.06899 0.79323 0.0
C199 C 0.67404 0.09229 0.81767 0.0
O200 O 0.67134 0.09526 0.79125 0.0
Co201 Co 0.69208 0.10537 0.80538 0.0
O202 O 0.67874 0.11268 0.79685 0.0
C203 C 0.70237 0.08671 0.79063 0.0
C204 C 0.67649 0.06242 0.80091 0.0
C205 C 0.67158 0.10655 0.79081 0.0
O206 O 0.69252 0.08116 0.79057 0.0
O207 O 0.70423 0.09587 0.7969 0.0
O208 O 0.66636 0.08507 0.81328 0.0
O209 O 0.68419 0.09223 0.81266 0.0
Co210 Co 0.91559 0.6785 0.80074 0.0
O211 O 0.92966 0.68466 0.80787 0.0
O212 O 0.92921 0.67186 0.79321 0.0
C213 C 0.90589 0.67464 0.81761 0.0
O214 O 0.90313 0.66974 0.79138 0.0
Co215 Co 0.89106 0.69003 0.80407 0.0
O216 O 0.88508 0.67522 0.79713 0.0
C217 C 0.90824 0.70061 0.78763 0.0
C218 C 0.9354 0.67813 0.80047 0.0
C219 C 0.89189 0.66853 0.7913 0.0
O220 O 0.91538 0.69196 0.78915 0.0
O221 O 0.8986 0.70173 0.79332 0.0
O222 O 0.91367 0.66726 0.81368 0.0
O223 O 0.90503 0.68434 0.81184 0.0
Co224 Co 0.19619 0.31955 0.08074 0.0
O225 O 0.18857 0.31585 0.06614 0.0
O226 O 0.20426 0.32721 0.06794 0.0
C227 C 0.17978 0.32358 0.09111 0.0
O228 O 0.20616 0.32576 0.09422 0.0
Co229 Co 0.19174 0.30451 0.10312 0.0
O230 O 0.20117 0.3168 0.11111 0.0
C231 C 0.20615 0.29503 0.08386 0.0
C232 C 0.19649 0.32234 0.06112 0.0
C233 C 0.207 0.3245 0.10543 0.0
O234 O 0.20661 0.30526 0.07905 0.0
O235 O 0.19968 0.29272 0.09276 0.0
O236 O 0.18427 0.33153 0.08425 0.0
O237 O 0.18461 0.31336 0.09052 0.0
Co238 Co 0.19648 0.67847 0.91691 0.0
O239 O 0.18909 0.6823 0.9316 0.0
O240 O 0.20456 0.67066 0.92962 0.0
C241 C 0.17988 0.67472 0.90673 0.0
O242 O 0.20617 0.67208 0.90332 0.0
Co243 Co 0.19198 0.69353 0.89453 0.0
O244 O 0.20101 0.681 0.88646 0.0
C245 C 0.2069 0.70277 0.91355 0.0
C246 C 0.19695 0.67566 0.93652 0.0
C247 C 0.20681 0.67325 0.89209 0.0
O248 O 0.20717 0.69258 0.91845 0.0
O249 O 0.20038 0.70517 0.90471 0.0
O250 O 0.18432 0.6667 0.91355 0.0
O251 O 0.1849 0.68485 0.90727 0.0
Co252 Co 0.31827 0.19587 0.91554 0.0
O253 O 0.31376 0.18851 0.93004 0.0
O254 O 0.32597 0.20358 0.92854 0.0
C255 C 0.32167 0.1791 0.90555 0.0
O256 O 0.32537 0.20549 0.90225 0.0
Co257 Co 0.30397 0.19215 0.89263 0.0
O258 O 0.31752 0.20003 0.88499 0.0
C259 C 0.29462 0.20748 0.91135 0.0
C260 C 0.32051 0.1961 0.93523 0.0
C261 C 0.325 0.20585 0.89095 0.0
O262 O 0.30452 0.20699 0.91679 0.0
O263 O 0.29236 0.20139 0.90216 0.0
O264 O 0.3297 0.18336 0.91246 0.0
O265 O 0.31173 0.18452 0.90567 0.0
Co266 Co 0.80176 0.31873 0.91541 0.0
O267 O 0.80898 0.31403 0.92993 0.0
O268 O 0.79365 0.32591 0.92846 0.0
C269 C 0.81861 0.32278 0.90581 0.0
O270 O 0.79217 0.32592 0.90215 0.0
Co271 Co 0.80617 0.30517 0.8922 0.0
O272 O 0.79801 0.31867 0.88476 0.0
C273 C 0.79064 0.29499 0.91032 0.0
C274 C 0.80116 0.32048 0.93514 0.0
C275 C 0.79193 0.32583 0.89085 0.0
O276 O 0.79095 0.30469 0.91612 0.0
O277 O 0.79687 0.29314 0.90113 0.0
O278 O 0.81401 0.33054 0.91282 0.0
O279 O 0.81343 0.31271 0.90558 0.0
Co280 Co 0.67919 0.80053 0.91604 0.0
O281 O 0.68374 0.80803 0.93048 0.0
O282 O 0.67187 0.79267 0.92916 0.0
C283 C 0.67518 0.81709 0.90591 0.0
O284 O 0.67211 0.79073 0.90287 0.0
Co285 Co 0.69311 0.80461 0.89289 0.0
O286 O 0.67956 0.79648 0.88551 0.0
C287 C 0.70314 0.78973 0.91159 0.0
C288 C 0.67723 0.80029 0.93576 0.0
C289 C 0.6723 0.79048 0.89156 0.0
O290 O 0.69325 0.78973 0.91708 0.0
O291 O 0.70512 0.796 0.90247 0.0
O292 O 0.6674 0.81278 0.91308 0.0
O293 O 0.68526 0.81195 0.90601 0.0
Co294 Co 0.80123 0.67734 0.08124 0.0
O295 O 0.80902 0.68115 0.06676 0.0
O296 O 0.79324 0.66987 0.06828 0.0
C297 C 0.81749 0.67309 0.09174 0.0
O298 O 0.79109 0.67107 0.09458 0.0
Co299 Co 0.8056 0.69221 0.10377 0.0
O300 O 0.79606 0.67988 0.11156 0.0
C301 C 0.79135 0.7019 0.08449 0.0
C302 C 0.80111 0.67476 0.0616 0.0
C303 C 0.79021 0.67226 0.10579 0.0
O304 O 0.79091 0.69171 0.07959 0.0
O305 O 0.79776 0.70412 0.09346 0.0
O306 O 0.81302 0.66525 0.08475 0.0
O307 O 0.81275 0.68336 0.09119 0.0
Co308 Co 0.31903 0.8002 0.08135 0.0
O309 O 0.31497 0.80738 0.06665 0.0
O310 O 0.32692 0.79216 0.06865 0.0
C311 C 0.32242 0.81704 0.09122 0.0
O312 O 0.3256 0.79074 0.09501 0.0
Co313 Co 0.30387 0.80454 0.10361 0.0
O314 O 0.31649 0.79576 0.1118 0.0
C315 C 0.29498 0.78914 0.08482 0.0
C316 C 0.32166 0.79958 0.06172 0.0
C317 C 0.32437 0.79008 0.10623 0.0
O318 O 0.30515 0.78926 0.07988 0.0
O319 O 0.29242 0.79553 0.09371 0.0
O320 O 0.33056 0.81258 0.08456 0.0
O321 O 0.31239 0.8118 0.09084 0.0
Co322 Co 0.67835 0.1955 0.08116 0.0
O323 O 0.68263 0.18778 0.06677 0.0
O324 O 0.67127 0.20352 0.068 0.0
C325 C 0.67379 0.1792 0.09147 0.0
O326 O 0.67165 0.2056 0.09431 0.0
Co327 Co 0.69248 0.19113 0.10414 0.0
O328 O 0.67999 0.20076 0.11156 0.0
C329 C 0.70273 0.20555 0.08528 0.0
C330 C 0.6764 0.19571 0.06144 0.0
C331 C 0.67253 0.20656 0.10554 0.0
O332 O 0.69273 0.20587 0.08 0.0
O333 O 0.70468 0.19917 0.09433 0.0
O334 O 0.66617 0.18368 0.08423 0.0
O335 O 0.68406 0.18396 0.09127 0.0
Co336 Co 0.91593 0.80191 0.67791 0.0
O337 O 0.93067 0.80886 0.68218 0.0
O338 O 0.9286 0.79382 0.67001 0.0
C339 C 0.90628 0.8189 0.67464 0.0
O340 O 0.90219 0.79273 0.67114 0.0
Co341 Co 0.89372 0.80638 0.69312 0.0
O342 O 0.88548 0.79771 0.68042 0.0
C343 C 0.91248 0.79101 0.70194 0.0
C344 C 0.93556 0.80109 0.67542 0.0
C345 C 0.89097 0.79212 0.67241 0.0
O346 O 0.91713 0.79075 0.69165 0.0
O347 O 0.90389 0.79774 0.70465 0.0
O348 O 0.91296 0.81448 0.6665 0.0
O349 O 0.90655 0.81355 0.68462 0.0
Co350 Co 0.19591 0.91506 0.67925 0.0
O351 O 0.18851 0.92962 0.68348 0.0
O352 O 0.20379 0.92797 0.67155 0.0
C353 C 0.17921 0.90504 0.67562 0.0
O354 O 0.20557 0.90163 0.67246 0.0
Co355 Co 0.19181 0.89247 0.69398 0.0
O356 O 0.20061 0.88461 0.68117 0.0
C357 C 0.20696 0.91129 0.70326 0.0
C358 C 0.19622 0.93472 0.67681 0.0
C359 C 0.20629 0.89038 0.67343 0.0
O360 O 0.20678 0.91645 0.6932 0.0
O361 O 0.20069 0.90226 0.70562 0.0
O362 O 0.18362 0.91188 0.66761 0.0
O363 O 0.1844 0.90531 0.68569 0.0
Co364 Co 0.08119 0.19511 0.678 0.0
O365 O 0.06704 0.18737 0.68305 0.0
O366 O 0.06772 0.20271 0.67109 0.0
C367 C 0.09154 0.17874 0.67376 0.0
O368 O 0.0939 0.20517 0.67047 0.0
Co369 Co 0.1049 0.19165 0.69111 0.0
O370 O 0.11166 0.19996 0.67734 0.0
C371 C 0.08617 0.20606 0.70176 0.0
C372 C 0.06142 0.19503 0.67672 0.0
C373 C 0.10519 0.20577 0.67029 0.0
O374 O 0.08039 0.20594 0.69204 0.0
O375 O 0.0955 0.2 0.70344 0.0
O376 O 0.08403 0.18285 0.66619 0.0
O377 O 0.09166 0.18396 0.6838 0.0
Co378 Co 0.80067 0.08145 0.67812 0.0
O379 O 0.80832 0.06712 0.68272 0.0
O380 O 0.79272 0.06819 0.67114 0.0
C381 C 0.81704 0.0917 0.67365 0.0
O382 O 0.79065 0.09451 0.67113 0.0
Co383 Co 0.80489 0.10462 0.69199 0.0
O384 O 0.79533 0.11186 0.67935 0.0
C385 C 0.79043 0.08586 0.70235 0.0
C386 C 0.80044 0.0617 0.67651 0.0
C387 C 0.78963 0.10574 0.6719 0.0
O388 O 0.79014 0.08048 0.6924 0.0
O389 O 0.79682 0.09491 0.70424 0.0
O390 O 0.81267 0.08438 0.66606 0.0
O391 O 0.81213 0.09162 0.68385 0.0
Co392 Co 0.91529 0.19494 0.31877 0.0
O393 O 0.93 0.18823 0.31397 0.0
O394 O 0.92813 0.20358 0.32577 0.0
C395 C 0.90634 0.17778 0.32304 0.0
O396 O 0.9017 0.20405 0.32598 0.0
Co397 Co 0.89227 0.18937 0.3052 0.0
O398 O 0.88457 0.19829 0.31803 0.0
C399 C 0.90982 0.20539 0.29484 0.0
C400 C 0.93501 0.1963 0.32027 0.0
C401 C 0.89042 0.20436 0.3254 0.0
O402 O 0.91548 0.20567 0.30462 0.0
O403 O 0.90106 0.19857 0.29302 0.0
O404 O 0.91325 0.18267 0.33071 0.0
O405 O 0.9059 0.18285 0.31293 0.0
Co406 Co 0.80056 0.91566 0.31766 0.0
O407 O 0.80839 0.93003 0.31357 0.0
O408 O 0.79295 0.92872 0.32535 0.0
C409 C 0.81678 0.90494 0.32141 0.0
O410 O 0.79046 0.90245 0.32425 0.0
Co411 Co 0.80408 0.89318 0.30256 0.0
O412 O 0.79501 0.88545 0.31528 0.0
C413 C 0.78961 0.91256 0.29347 0.0
C414 C 0.80069 0.93531 0.32012 0.0
C415 C 0.78947 0.89125 0.32309 0.0
O416 O 0.78982 0.9175 0.30364 0.0
O417 O 0.79566 0.90342 0.29098 0.0
O418 O 0.81265 0.91201 0.32938 0.0
O419 O 0.81176 0.90557 0.31128 0.0
Co420 Co 0.08083 0.80189 0.31942 0.0
O421 O 0.06633 0.80911 0.31469 0.0
O422 O 0.06777 0.79388 0.32672 0.0
C423 C 0.09051 0.81875 0.32325 0.0
O424 O 0.0941 0.79235 0.32665 0.0
Co425 Co 0.10398 0.80615 0.30566 0.0
O426 O 0.11144 0.79811 0.31921 0.0
C427 C 0.0857 0.79067 0.2957 0.0
C428 C 0.06111 0.80133 0.32119 0.0
C429 C 0.1054 0.79211 0.32647 0.0
O430 O 0.08003 0.79096 0.30548 0.0
O431 O 0.09485 0.79691 0.29373 0.0
O432 O 0.08351 0.81428 0.33109 0.0
O433 O 0.09066 0.81346 0.31324 0.0
Co434 Co 0.19564 0.08139 0.31864 0.0
O435 O 0.18834 0.0669 0.31399 0.0
O436 O 0.20354 0.06834 0.32606 0.0
C437 C 0.17885 0.09123 0.32237 0.0
O438 O 0.20525 0.09464 0.32578 0.0
Co439 Co 0.19166 0.10439 0.3046 0.0
O440 O 0.19976 0.11195 0.31808 0.0
C441 C 0.20706 0.08592 0.29493 0.0
C442 C 0.19607 0.06168 0.32054 0.0
C443 C 0.20564 0.10593 0.32546 0.0
O444 O 0.20662 0.08037 0.30477 0.0
O445 O 0.20092 0.0951 0.29279 0.0
O446 O 0.18325 0.08424 0.33025 0.0
O447 O 0.18414 0.09126 0.31234 0.0
Co448 Co 0.67771 0.91648 0.8022 0.0
O449 O 0.68191 0.93096 0.80975 0.0
O450 O 0.66994 0.92945 0.79449 0.0
C451 C 0.67416 0.906 0.81863 0.0
O452 O 0.67105 0.90309 0.79242 0.0
Co453 Co 0.69303 0.89416 0.80599 0.0
O454 O 0.68035 0.88626 0.79697 0.0
C455 C 0.70188 0.91347 0.79138 0.0
C456 C 0.67527 0.93613 0.80207 0.0
C457 C 0.67237 0.8919 0.79149 0.0
O458 O 0.69157 0.91809 0.79121 0.0
O459 O 0.70459 0.90467 0.79784 0.0
O460 O 0.66615 0.91302 0.81451 0.0
O461 O 0.68423 0.90658 0.81348 0.0
Co462 Co 0.08158 0.67958 0.80198 0.0
O463 O 0.06727 0.68411 0.80971 0.0
O464 O 0.06835 0.67211 0.79443 0.0
C465 C 0.09212 0.67577 0.8183 0.0
O466 O 0.09469 0.67256 0.79203 0.0
Co467 Co 0.10438 0.69421 0.80546 0.0
O468 O 0.11186 0.68117 0.79666 0.0
C469 C 0.08534 0.70352 0.79068 0.0
C470 C 0.06186 0.67759 0.80208 0.0
C471 C 0.10593 0.67344 0.79114 0.0
O472 O 0.08013 0.69349 0.79105 0.0
O473 O 0.09451 0.70589 0.79674 0.0
O474 O 0.08489 0.66793 0.81424 0.0
O475 O 0.09176 0.68586 0.81316 0.0
Co476 Co 0.31803 0.08127 0.80053 0.0
O477 O 0.3131 0.06679 0.80768 0.0
O478 O 0.32549 0.06819 0.79274 0.0
C479 C 0.32147 0.09102 0.81744 0.0
O480 O 0.32552 0.09446 0.7911 0.0
Co481 Co 0.30433 0.10453 0.80431 0.0
O482 O 0.31807 0.1119 0.79651 0.0
C483 C 0.29459 0.08617 0.78877 0.0
C484 C 0.31978 0.06154 0.80007 0.0
C485 C 0.32543 0.10575 0.79074 0.0
O486 O 0.30434 0.08046 0.78928 0.0
O487 O 0.29255 0.09537 0.79491 0.0
O488 O 0.32939 0.08397 0.8132 0.0
O489 O 0.3116 0.09118 0.8119 0.0
Co490 Co 0.91553 0.31884 0.80141 0.0
O491 O 0.93016 0.314 0.80829 0.0
O492 O 0.92847 0.32583 0.79294 0.0
C493 C 0.90641 0.32303 0.81851 0.0
O494 O 0.90212 0.32614 0.79213 0.0
Co495 Co 0.89223 0.30562 0.8066 0.0
O496 O 0.88479 0.31908 0.79839 0.0
C497 C 0.91003 0.29497 0.79098 0.0
C498 C 0.93526 0.32032 0.80029 0.0
C499 C 0.89081 0.32614 0.79213 0.0
O500 O 0.91578 0.3047 0.79069 0.0
O501 O 0.9011 0.29331 0.79763 0.0
O502 O 0.91337 0.33073 0.81373 0.0
O503 O 0.90595 0.31298 0.81333 0.0
Co504 Co 0.67888 0.08224 0.19583 0.0
O505 O 0.68381 0.06787 0.18847 0.0
O506 O 0.67211 0.069 0.20397 0.0
C507 C 0.67431 0.09202 0.1792 0.0
O508 O 0.67152 0.09531 0.20557 0.0
Co509 Co 0.69193 0.10581 0.19124 0.0
O510 O 0.67831 0.11284 0.19955 0.0
C511 C 0.70273 0.08779 0.20645 0.0
C512 C 0.67759 0.06248 0.19636 0.0
C513 C 0.67137 0.10661 0.20575 0.0
O514 O 0.69311 0.08184 0.20647 0.0
O515 O 0.70429 0.09694 0.20009 0.0
O516 O 0.66684 0.08465 0.18371 0.0
O517 O 0.68445 0.09232 0.18421 0.0
Co518 Co 0.91597 0.67757 0.19572 0.0
O519 O 0.93041 0.68172 0.18805 0.0
O520 O 0.92903 0.67023 0.20369 0.0
C521 C 0.90558 0.67335 0.17938 0.0
O522 O 0.90268 0.67098 0.20571 0.0
Co523 Co 0.89331 0.69224 0.19143 0.0
O524 O 0.88563 0.67964 0.20072 0.0
C525 C 0.91243 0.702 0.2058 0.0
C526 C 0.93566 0.67539 0.19595 0.0
C527 C 0.89145 0.67201 0.2065 0.0
O528 O 0.91738 0.69184 0.20621 0.0
O529 O 0.90348 0.70421 0.19936 0.0
O530 O 0.91269 0.66556 0.18378 0.0
O531 O 0.90599 0.68357 0.18424 0.0
Co532 Co 0.31745 0.91594 0.19509 0.0
O533 O 0.31364 0.93067 0.18779 0.0
O534 O 0.3252 0.92862 0.2033 0.0
C535 C 0.32127 0.90603 0.17835 0.0
O536 O 0.3238 0.90229 0.20471 0.0
Co537 Co 0.30236 0.89367 0.19031 0.0
O538 O 0.314 0.88562 0.20047 0.0
C539 C 0.29302 0.91262 0.20519 0.0
C540 C 0.32023 0.93556 0.1957 0.0
C541 C 0.32204 0.89119 0.20591 0.0
O542 O 0.30327 0.9174 0.2057 0.0
O543 O 0.29064 0.90392 0.19849 0.0
O544 O 0.3293 0.9127 0.18299 0.0
O545 O 0.31111 0.90644 0.18333 0.0
Co546 Co 0.08114 0.31748 0.19485 0.0
O547 O 0.0667 0.31267 0.18752 0.0
O548 O 0.068 0.32458 0.20285 0.0
C549 C 0.09105 0.32164 0.17818 0.0
O550 O 0.09432 0.32476 0.20449 0.0
Co551 Co 0.10448 0.30393 0.1905 0.0
O552 O 0.11173 0.31757 0.19859 0.0
C553 C 0.08625 0.29371 0.20586 0.0
C554 C 0.0614 0.31909 0.19532 0.0
C555 C 0.10562 0.32473 0.20467 0.0
O556 O 0.08048 0.30344 0.20571 0.0
O557 O 0.09536 0.29187 0.19953 0.0
O558 O 0.08378 0.3293 0.18255 0.0
O559 O 0.09115 0.31156 0.18332 0.0
Co560 Co 0.80179 0.67751 0.91583 0.0
O561 O 0.80937 0.68157 0.93037 0.0
O562 O 0.79378 0.67005 0.92877 0.0
C563 C 0.81825 0.67339 0.90556 0.0
O564 O 0.79187 0.67093 0.90249 0.0
Co565 Co 0.80611 0.69207 0.89311 0.0
O566 O 0.79672 0.67957 0.8854 0.0
C567 C 0.79148 0.70182 0.91208 0.0
C568 C 0.8015 0.67511 0.93549 0.0
C569 C 0.79097 0.67196 0.89127 0.0
O570 O 0.79123 0.69174 0.9172 0.0
O571 O 0.79789 0.70399 0.9031 0.0
O572 O 0.81381 0.66556 0.91259 0.0
O573 O 0.81333 0.68358 0.90591 0.0
Co574 Co 0.80094 0.31802 0.0811 0.0
O575 O 0.80863 0.31377 0.06667 0.0
O576 O 0.79295 0.32521 0.06799 0.0
C577 C 0.8173 0.32242 0.09139 0.0
O578 O 0.7909 0.32473 0.09427 0.0
Co579 Co 0.80523 0.30384 0.10406 0.0
O580 O 0.79566 0.31635 0.11152 0.0
C581 C 0.79081 0.29368 0.08515 0.0
C582 C 0.80073 0.32008 0.06139 0.0
C583 C 0.78991 0.32384 0.1055 0.0
O584 O 0.7905 0.30369 0.07989 0.0
O585 O 0.79719 0.29169 0.0942 0.0
O586 O 0.81285 0.33011 0.08421 0.0
O587 O 0.81246 0.31219 0.09117 0.0
Co588 Co 0.67952 0.80052 0.08168 0.0
O589 O 0.6838 0.80819 0.06725 0.0
O590 O 0.6721 0.7927 0.0686 0.0
C591 C 0.67551 0.81694 0.09203 0.0
O592 O 0.67274 0.79054 0.09487 0.0
Co593 Co 0.69377 0.80449 0.10466 0.0
O594 O 0.68044 0.79611 0.11217 0.0
C595 C 0.70365 0.78994 0.08563 0.0
C596 C 0.67731 0.80043 0.06199 0.0
C597 C 0.67313 0.79012 0.10616 0.0
O598 O 0.69366 0.78987 0.08034 0.0
O599 O 0.70572 0.79615 0.09477 0.0
O600 O 0.66768 0.81264 0.08492 0.0
O601 O 0.68564 0.81189 0.09174 0.0
Co602 Co 0.19682 0.67826 0.08201 0.0
O603 O 0.18954 0.68219 0.0673 0.0
O604 O 0.2047 0.67017 0.06933 0.0
C605 C 0.18004 0.67507 0.09203 0.0
O606 O 0.20635 0.67172 0.09565 0.0
Co607 Co 0.19279 0.69357 0.10421 0.0
O608 O 0.20141 0.68086 0.11244 0.0
C609 C 0.20805 0.70226 0.08519 0.0
C610 C 0.19721 0.67532 0.06241 0.0
C611 C 0.20702 0.67293 0.10687 0.0
O612 O 0.20784 0.69207 0.08031 0.0
O613 O 0.20176 0.7049 0.09413 0.0
O614 O 0.1844 0.66684 0.08542 0.0
O615 O 0.18535 0.68507 0.09153 0.0
Co616 Co 0.3175 0.19578 0.08104 0.0
O617 O 0.31331 0.18814 0.06656 0.0
O618 O 0.32509 0.20357 0.06804 0.0
C619 C 0.32132 0.17935 0.09145 0.0
O620 O 0.32422 0.20574 0.09427 0.0
Co621 Co 0.30307 0.19194 0.10392 0.0
O622 O 0.31633 0.20034 0.11153 0.0
C623 C 0.29341 0.20654 0.08481 0.0
C624 C 0.3199 0.19588 0.06138 0.0
C625 C 0.32372 0.20625 0.10555 0.0
O626 O 0.30344 0.20653 0.07957 0.0
O627 O 0.29123 0.20035 0.09394 0.0
O628 O 0.32924 0.18361 0.08441 0.0
O629 O 0.31123 0.18445 0.09106 0.0
Co630 Co 0.19615 0.31836 0.91561 0.0
O631 O 0.18894 0.31444 0.93036 0.0
O632 O 0.20421 0.32631 0.92826 0.0
C633 C 0.17932 0.3218 0.90575 0.0
O634 O 0.20564 0.32488 0.90194 0.0
Co635 Co 0.19177 0.30327 0.89333 0.0
O636 O 0.20048 0.31593 0.88512 0.0
C637 C 0.20718 0.2943 0.9121 0.0
C638 C 0.19671 0.32122 0.93522 0.0
C639 C 0.20622 0.32375 0.89071 0.0
O640 O 0.20704 0.30442 0.91713 0.0
O641 O 0.20081 0.2918 0.90317 0.0
O642 O 0.18384 0.32994 0.91237 0.0
O643 O 0.18451 0.31174 0.90613 0.0
Co644 Co 0.67894 0.19662 0.91539 0.0
O645 O 0.68368 0.18901 0.92972 0.0
O646 O 0.67186 0.20444 0.92865 0.0
C647 C 0.67469 0.18016 0.90521 0.0
O648 O 0.67171 0.20654 0.90239 0.0
Co649 Co 0.69248 0.19273 0.892 0.0
O650 O 0.67883 0.20091 0.88487 0.0
C651 C 0.70276 0.20771 0.9105 0.0
C652 C 0.67728 0.19676 0.93513 0.0
C653 C 0.67171 0.2069 0.89109 0.0
O654 O 0.69305 0.20736 0.91629 0.0
O655 O 0.70457 0.20166 0.90119 0.0
O656 O 0.66707 0.18445 0.91255 0.0
O657 O 0.68481 0.18524 0.90517 0.0
Co658 Co 0.31928 0.80132 0.91597 0.0
O659 O 0.31498 0.80816 0.93076 0.0
O660 O 0.32695 0.79297 0.92862 0.0
C661 C 0.32286 0.8184 0.90658 0.0
O662 O 0.32609 0.79216 0.90221 0.0
Co663 Co 0.30463 0.8063 0.89346 0.0
O664 O 0.31736 0.79759 0.88535 0.0
C665 C 0.29523 0.79066 0.91183 0.0
C666 C 0.3216 0.80025 0.93562 0.0
C667 C 0.32508 0.79174 0.89096 0.0
O668 O 0.30533 0.79038 0.9169 0.0
O669 O 0.29291 0.79738 0.90312 0.0
O670 O 0.3309 0.81378 0.91324 0.0
O671 O 0.31284 0.81315 0.90665 0.0
Co672 Co 0.5808 0.69642 0.81804 0.0
O673 O 0.56646 0.68872 0.81355 0.0
O674 O 0.56764 0.7038 0.82579 0.0
C675 C 0.59139 0.68002 0.82141 0.0
O676 O 0.5939 0.70633 0.8251 0.0
Co677 Co 0.60367 0.6933 0.80345 0.0
O678 O 0.61119 0.7011 0.81712 0.0
C679 C 0.58451 0.70819 0.79434 0.0
C680 C 0.56111 0.69619 0.8203 0.0
C681 C 0.60519 0.70678 0.82468 0.0
O682 O 0.57921 0.70756 0.80431 0.0
O683 O 0.5938 0.7023 0.79195 0.0
O684 O 0.58426 0.68396 0.82943 0.0
O685 O 0.59097 0.6854 0.81146 0.0
Co686 Co 0.29932 0.58085 0.81839 0.0
O687 O 0.30725 0.56636 0.81485 0.0
O688 O 0.29205 0.5681 0.82688 0.0
C689 C 0.31551 0.59188 0.82128 0.0
O690 O 0.28924 0.59423 0.82461 0.0
Co691 Co 0.30223 0.60271 0.80229 0.0
O692 O 0.29341 0.61091 0.81489 0.0
C693 C 0.28782 0.58277 0.79435 0.0
C694 C 0.29979 0.56135 0.82188 0.0
C695 C 0.28812 0.60537 0.82305 0.0
O696 O 0.2883 0.57826 0.80471 0.0
O697 O 0.29371 0.59186 0.79135 0.0
O698 O 0.31162 0.58516 0.82965 0.0
O699 O 0.31028 0.59076 0.8113 0.0
Co700 Co 0.41541 0.30078 0.81732 0.0
O701 O 0.42985 0.30816 0.81259 0.0
O702 O 0.42854 0.2929 0.82459 0.0
C703 C 0.4054 0.31745 0.82124 0.0
O704 O 0.40225 0.29109 0.82458 0.0
Co705 Co 0.39209 0.3049 0.80366 0.0
O706 O 0.38482 0.2968 0.81728 0.0
C707 C 0.41057 0.28975 0.79355 0.0
C708 C 0.43515 0.30044 0.8191 0.0
C709 C 0.39095 0.29081 0.82449 0.0
O710 O 0.41625 0.28987 0.80334 0.0
O711 O 0.40144 0.29604 0.79166 0.0
O712 O 0.41259 0.31317 0.82902 0.0
O713 O 0.40539 0.31219 0.81123 0.0
Co714 Co 0.69501 0.41542 0.81929 0.0
O715 O 0.68794 0.43005 0.81466 0.0
O716 O 0.70347 0.42837 0.82626 0.0
C717 C 0.67802 0.40619 0.82369 0.0
O718 O 0.7045 0.40205 0.82638 0.0
Co719 Co 0.68981 0.3921 0.80614 0.0
O720 O 0.69833 0.38467 0.81941 0.0
C721 C 0.70528 0.40995 0.79533 0.0
C722 C 0.69594 0.43515 0.82098 0.0
C723 C 0.70465 0.39076 0.82636 0.0
O724 O 0.70554 0.41581 0.805 0.0
O725 O 0.69872 0.40095 0.79377 0.0
O726 O 0.68289 0.41312 0.83134 0.0
O727 O 0.68305 0.40578 0.81356 0.0
Co728 Co 0.58154 0.30106 0.17796 0.0
O729 O 0.56682 0.30792 0.18252 0.0
O730 O 0.56874 0.29256 0.17074 0.0
C731 C 0.59077 0.31811 0.17387 0.0
O732 O 0.59514 0.29184 0.17093 0.0
Co733 Co 0.60439 0.30633 0.19193 0.0
O734 O 0.61221 0.29746 0.17912 0.0
C735 C 0.58636 0.29074 0.20206 0.0
C736 C 0.56184 0.29991 0.17612 0.0
C737 C 0.60642 0.29149 0.17163 0.0
O738 O 0.581 0.29033 0.19211 0.0
O739 O 0.59512 0.29752 0.20403 0.0
O740 O 0.58392 0.31333 0.16609 0.0
O741 O 0.59098 0.31302 0.18398 0.0
Co742 Co 0.6961 0.58094 0.17866 0.0
O743 O 0.6889 0.56626 0.18285 0.0
O744 O 0.70398 0.56818 0.1707 0.0
C745 C 0.67927 0.59089 0.17545 0.0
O746 O 0.70556 0.5945 0.17189 0.0
Co747 Co 0.6921 0.60334 0.19371 0.0
O748 O 0.70077 0.6114 0.18091 0.0
C749 C 0.70745 0.58446 0.20256 0.0
C750 C 0.6966 0.56129 0.17606 0.0
C751 C 0.70631 0.60573 0.17301 0.0
O752 O 0.70721 0.57946 0.19242 0.0
O753 O 0.70114 0.59341 0.20512 0.0
O754 O 0.68357 0.58417 0.16728 0.0
O755 O 0.68465 0.59053 0.18541 0.0
Co756 Co 0.41597 0.69673 0.1798 0.0
O757 O 0.43051 0.68895 0.18346 0.0
O758 O 0.42873 0.7042 0.1715 0.0
C759 C 0.40515 0.68043 0.17669 0.0
O760 O 0.40257 0.70672 0.17349 0.0
Co761 Co 0.39394 0.6935 0.19559 0.0
O762 O 0.3858 0.70238 0.18298 0.0
C763 C 0.41362 0.70809 0.20386 0.0
C764 C 0.43551 0.69651 0.17653 0.0
C765 C 0.3914 0.70776 0.17492 0.0
O766 O 0.41828 0.7077 0.19356 0.0
O767 O 0.40454 0.7021 0.20671 0.0
O768 O 0.41192 0.68445 0.16842 0.0
O769 O 0.4061 0.68562 0.18671 0.0
Co770 Co 0.30202 0.41525 0.17776 0.0
O771 O 0.3092 0.42996 0.1819 0.0
O772 O 0.29379 0.42802 0.17018 0.0
C773 C 0.3189 0.40559 0.17391 0.0
O774 O 0.29252 0.40167 0.17109 0.0
Co775 Co 0.30685 0.39261 0.19223 0.0
O776 O 0.29774 0.38467 0.17967 0.0
C777 C 0.29157 0.41115 0.20193 0.0
C778 C 0.30133 0.43491 0.17531 0.0
C779 C 0.29188 0.39042 0.17206 0.0
O780 O 0.29131 0.41635 0.19188 0.0
O781 O 0.29816 0.4023 0.20409 0.0
O782 O 0.31424 0.41233 0.16595 0.0
O783 O 0.3138 0.40573 0.18401 0.0
Co784 Co 0.81749 0.58009 0.69587 0.0
O785 O 0.8123 0.56612 0.68787 0.0
O786 O 0.82501 0.56651 0.70261 0.0
C787 C 0.82072 0.59114 0.67975 0.0
O788 O 0.82532 0.59251 0.70602 0.0
Co789 Co 0.80385 0.60365 0.69417 0.0
O790 O 0.81793 0.61035 0.702 0.0
C791 C 0.79434 0.58422 0.70844 0.0
C792 C 0.81909 0.56037 0.69502 0.0
C793 C 0.82538 0.60375 0.70712 0.0
O794 O 0.80407 0.57857 0.70737 0.0
O795 O 0.79218 0.59382 0.70299 0.0
O796 O 0.8286 0.58361 0.68318 0.0
O797 O 0.81094 0.5909 0.68545 0.0
Co798 Co 0.41613 0.81915 0.69638 0.0
O799 O 0.43064 0.81513 0.6888 0.0
O800 O 0.42903 0.82716 0.70399 0.0
C801 C 0.40575 0.82238 0.67981 0.0
O802 O 0.4027 0.82572 0.70618 0.0
Co803 Co 0.39387 0.80379 0.69276 0.0
O804 O 0.38585 0.81648 0.70161 0.0
C805 C 0.41319 0.79512 0.70761 0.0
C806 C 0.43575 0.8219 0.6964 0.0
C807 C 0.3915 0.82444 0.7071 0.0
O808 O 0.41801 0.80534 0.70737 0.0
O809 O 0.40417 0.79245 0.70145 0.0
O810 O 0.4125 0.83058 0.68402 0.0
O811 O 0.40635 0.81238 0.6851 0.0
Co812 Co 0.17832 0.41528 0.69746 0.0
O813 O 0.182 0.42977 0.68958 0.0
O814 O 0.1702 0.42812 0.70497 0.0
C815 C 0.17495 0.40445 0.68121 0.0
O816 O 0.17203 0.40196 0.70759 0.0
Co817 Co 0.19386 0.39308 0.69413 0.0
O818 O 0.18139 0.3851 0.70331 0.0
C819 C 0.20249 0.41273 0.70857 0.0
C820 C 0.17518 0.43484 0.69719 0.0
C821 C 0.17343 0.3908 0.70875 0.0
O822 O 0.19224 0.41751 0.70827 0.0
O823 O 0.20517 0.40361 0.70258 0.0
O824 O 0.16678 0.41129 0.68531 0.0
O825 O 0.18503 0.4053 0.68631 0.0
Co826 Co 0.58193 0.17949 0.69518 0.0
O827 O 0.56728 0.18445 0.68841 0.0
O828 O 0.56901 0.17255 0.70371 0.0
C829 C 0.59087 0.17523 0.67801 0.0
O830 O 0.59532 0.17203 0.70434 0.0
Co831 Co 0.60534 0.19242 0.68989 0.0
O832 O 0.6127 0.17881 0.69793 0.0
C833 C 0.58792 0.20314 0.7059 0.0
C834 C 0.5622 0.17807 0.69638 0.0
C835 C 0.60662 0.17185 0.70424 0.0
O836 O 0.58189 0.19358 0.70597 0.0
O837 O 0.59689 0.2047 0.69929 0.0
O838 O 0.58387 0.16761 0.68284 0.0
O839 O 0.59149 0.18528 0.68318 0.0
Co840 Co 0.81773 0.41527 0.3004 0.0
O841 O 0.81305 0.42962 0.30798 0.0
O842 O 0.82502 0.42849 0.29268 0.0
C843 C 0.82167 0.40502 0.31691 0.0
O844 O 0.82491 0.40221 0.29054 0.0
Co845 Co 0.80389 0.39201 0.30422 0.0
O846 O 0.81744 0.38477 0.29598 0.0
C847 C 0.79385 0.4108 0.28945 0.0
C848 C 0.81955 0.435 0.30031 0.0
C849 C 0.82472 0.39091 0.2901 0.0
O850 O 0.80373 0.41632 0.28952 0.0
O851 O 0.79188 0.40163 0.29566 0.0
O852 O 0.82945 0.41225 0.31272 0.0
O853 O 0.81163 0.40512 0.31169 0.0
Co854 Co 0.58055 0.81958 0.29963 0.0
O855 O 0.56586 0.81543 0.30679 0.0
O856 O 0.56781 0.82741 0.29158 0.0
C857 C 0.59034 0.82304 0.3165 0.0
O858 O 0.59418 0.8263 0.29021 0.0
Co859 Co 0.60294 0.80463 0.30403 0.0
O860 O 0.61104 0.81745 0.29544 0.0
C861 C 0.58423 0.79555 0.28861 0.0
C862 C 0.56091 0.82214 0.29901 0.0
C863 C 0.60543 0.82525 0.28971 0.0
O864 O 0.5792 0.80568 0.28868 0.0
O865 O 0.59313 0.79309 0.29502 0.0
O866 O 0.58364 0.83114 0.31202 0.0
O867 O 0.59006 0.81301 0.31125 0.0
Co868 Co 0.17844 0.58036 0.30022 0.0
O869 O 0.1825 0.56596 0.30805 0.0
O870 O 0.17052 0.56735 0.29277 0.0
C871 C 0.17504 0.5911 0.31651 0.0
O872 O 0.17182 0.59356 0.29015 0.0
Co873 Co 0.19351 0.60289 0.30341 0.0
O874 O 0.18018 0.61069 0.29531 0.0
C875 C 0.20238 0.58345 0.28879 0.0
C876 C 0.17575 0.56074 0.30048 0.0
C877 C 0.17255 0.60483 0.28957 0.0
O878 O 0.19228 0.5784 0.2893 0.0
O879 O 0.20492 0.5927 0.29466 0.0
O880 O 0.16694 0.58412 0.31249 0.0
O881 O 0.18507 0.59045 0.3113 0.0
Co882 Co 0.41564 0.17886 0.30077 0.0
O883 O 0.43027 0.18332 0.30786 0.0
O884 O 0.42851 0.17126 0.2927 0.0
C885 C 0.40597 0.17528 0.31768 0.0
O886 O 0.40209 0.17188 0.29141 0.0
Co887 Co 0.39303 0.19346 0.30521 0.0
O888 O 0.38512 0.18053 0.29662 0.0
C889 C 0.41148 0.20277 0.28963 0.0
C890 C 0.43532 0.1767 0.30008 0.0
C891 C 0.39083 0.17279 0.2909 0.0
O892 O 0.4167 0.19274 0.28977 0.0
O893 O 0.40255 0.20511 0.29605 0.0
O894 O 0.4128 0.16729 0.31321 0.0
O895 O 0.40606 0.18529 0.3124 0.0
Co896 Co 0.69626 0.81887 0.58011 0.0
O897 O 0.68845 0.81443 0.56581 0.0
O898 O 0.70358 0.82662 0.56695 0.0
C899 C 0.67997 0.82226 0.59086 0.0
O900 O 0.70631 0.82588 0.59311 0.0
Co901 Co 0.69337 0.80431 0.60303 0.0
O902 O 0.70152 0.81781 0.61047 0.0
C903 C 0.70796 0.79514 0.58368 0.0
C904 C 0.69595 0.82115 0.56044 0.0
C905 C 0.70708 0.82538 0.60438 0.0
O906 O 0.70735 0.80512 0.57841 0.0
O907 O 0.70215 0.79276 0.59302 0.0
O908 O 0.68385 0.83028 0.58371 0.0
O909 O 0.68532 0.8123 0.59038 0.0
Co910 Co 0.69567 0.17811 0.41504 0.0
O911 O 0.68891 0.18346 0.42958 0.0
O912 O 0.70381 0.17104 0.42812 0.0
C913 C 0.67844 0.17436 0.40595 0.0
O914 O 0.70478 0.17015 0.40187 0.0
Co915 Co 0.69116 0.19062 0.39124 0.0
O916 O 0.69859 0.17651 0.38427 0.0
C917 C 0.708 0.20082 0.40828 0.0
C918 C 0.69661 0.17686 0.4348 0.0
C919 C 0.70472 0.16961 0.39058 0.0
O920 O 0.70694 0.19182 0.41504 0.0
O921 O 0.70194 0.20224 0.39891 0.0
O922 O 0.68294 0.16665 0.41308 0.0
O923 O 0.68399 0.1842 0.40523 0.0
Co924 Co 0.81805 0.69609 0.41623 0.0
O925 O 0.81403 0.68864 0.43084 0.0
O926 O 0.8258 0.70403 0.42906 0.0
C927 C 0.82174 0.67952 0.40599 0.0
O928 O 0.82463 0.7058 0.40272 0.0
Co929 Co 0.8031 0.69181 0.39373 0.0
O930 O 0.81582 0.70069 0.38579 0.0
C931 C 0.79381 0.70663 0.41279 0.0
C932 C 0.82069 0.69641 0.43587 0.0
C933 C 0.82357 0.70644 0.39148 0.0
O934 O 0.80399 0.70688 0.41772 0.0
O935 O 0.79143 0.70015 0.40391 0.0
O936 O 0.82975 0.68386 0.41288 0.0
O937 O 0.81165 0.68461 0.40648 0.0
Co938 Co 0.30101 0.81917 0.41584 0.0
O939 O 0.30825 0.81478 0.43045 0.0
O940 O 0.29313 0.8269 0.42872 0.0
C941 C 0.31785 0.8226 0.40598 0.0
O942 O 0.29147 0.82616 0.40244 0.0
Co943 Co 0.30503 0.80491 0.39294 0.0
O944 O 0.29714 0.8184 0.38521 0.0
C945 C 0.28958 0.79546 0.41154 0.0
C946 C 0.30058 0.82154 0.43551 0.0
C947 C 0.29121 0.82581 0.39115 0.0
O948 O 0.28996 0.80535 0.41703 0.0
O949 O 0.29576 0.79327 0.4024 0.0
O950 O 0.3135 0.83065 0.41281 0.0
O951 O 0.31246 0.81264 0.4061 0.0
Co952 Co 0.17869 0.30144 0.41557 0.0
O953 O 0.18376 0.30921 0.42969 0.0
O954 O 0.17172 0.29394 0.42909 0.0
C955 C 0.17453 0.31777 0.40514 0.0
O956 O 0.17116 0.29138 0.40283 0.0
Co957 Co 0.19205 0.30477 0.39198 0.0
O958 O 0.17825 0.2966 0.38516 0.0
C959 C 0.20231 0.28999 0.41063 0.0
C960 C 0.17741 0.30161 0.43535 0.0
C961 C 0.17109 0.29081 0.39154 0.0
O962 O 0.19265 0.29052 0.41647 0.0
O963 O 0.20414 0.29589 0.40123 0.0
O964 O 0.16694 0.31372 0.41267 0.0
O965 O 0.18457 0.31254 0.40508 0.0
Co966 Co 0.30245 0.17719 0.58091 0.0
O967 O 0.30952 0.18211 0.56639 0.0
O968 O 0.29432 0.17004 0.56785 0.0
C969 C 0.31941 0.17324 0.59034 0.0
O970 O 0.29305 0.16977 0.59416 0.0
Co971 Co 0.3069 0.19059 0.60421 0.0
O972 O 0.29898 0.17691 0.61157 0.0
C973 C 0.29115 0.20077 0.58628 0.0
C974 C 0.30171 0.17563 0.56117 0.0
C975 C 0.29292 0.16975 0.60546 0.0
O976 O 0.29149 0.19112 0.5804 0.0
O977 O 0.29743 0.2026 0.59543 0.0
O978 O 0.31486 0.1655 0.58329 0.0
O979 O 0.31413 0.18325 0.5907 0.0
Co980 Co 0.81858 0.30025 0.58107 0.0
O981 O 0.81408 0.30761 0.56655 0.0
O982 O 0.8258 0.29214 0.56806 0.0
C983 C 0.8228 0.3169 0.59098 0.0
O984 O 0.8256 0.29057 0.59436 0.0
Co985 Co 0.8048 0.30477 0.60423 0.0
O986 O 0.8183 0.29661 0.61167 0.0
C987 C 0.79457 0.28967 0.5858 0.0
C988 C 0.82053 0.29975 0.56137 0.0
C989 C 0.82546 0.29046 0.60567 0.0
O990 O 0.80441 0.28957 0.58023 0.0
O991 O 0.7927 0.29605 0.59487 0.0
O992 O 0.8305 0.31242 0.58383 0.0
O993 O 0.81267 0.31186 0.59098 0.0
Co994 Co 0.17985 0.69557 0.5811 0.0
O995 O 0.18437 0.68781 0.56681 0.0
O996 O 0.17213 0.70289 0.5679 0.0
C997 C 0.17646 0.67925 0.5918 0.0
O998 O 0.17278 0.70556 0.59414 0.0
Co999 Co 0.19442 0.69261 0.60401 0.0
O1000 O 0.18079 0.70052 0.61147 0.0
C1001 C 0.20352 0.70739 0.58478 0.0
C1002 C 0.17765 0.69528 0.56141 0.0
C1003 C 0.17323 0.70614 0.60542 0.0
O1004 O 0.19356 0.70671 0.57947 0.0
O1005 O 0.20592 0.70156 0.5941 0.0
O1006 O 0.16846 0.68313 0.58463 0.0
O1007 O 0.18642 0.68461 0.59135 0.0
Co1008 Co 0.41594 0.3004 0.17773 0.0
O1009 O 0.43057 0.30749 0.18223 0.0
O1010 O 0.42883 0.29223 0.17029 0.0
C1011 C 0.40636 0.31732 0.17395 0.0
O1012 O 0.40247 0.29096 0.17074 0.0
Co1013 Co 0.39306 0.30493 0.19185 0.0
O1014 O 0.38531 0.29696 0.17842 0.0
C1015 C 0.41135 0.28934 0.20158 0.0
C1016 C 0.43564 0.29963 0.17572 0.0
C1017 C 0.39117 0.29087 0.17108 0.0
O1018 O 0.41684 0.28952 0.1917 0.0
O1019 O 0.4023 0.29568 0.20369 0.0
O1020 O 0.41321 0.31276 0.16604 0.0
O1021 O 0.40631 0.31209 0.184 0.0
Co1022 Co 0.69523 0.41541 0.17704 0.0
O1023 O 0.6883 0.43012 0.18151 0.0
O1024 O 0.70361 0.42822 0.16966 0.0
C1025 C 0.67821 0.40604 0.17314 0.0
O1026 O 0.70449 0.40179 0.1701 0.0
Co1027 Co 0.69015 0.39269 0.19131 0.0
O1028 O 0.699 0.38479 0.17853 0.0
C1029 C 0.70569 0.41092 0.20114 0.0
C1030 C 0.69625 0.43511 0.17504 0.0
C1031 C 0.70491 0.39052 0.17094 0.0
O1032 O 0.70604 0.41615 0.19112 0.0
O1033 O 0.69896 0.40216 0.20325 0.0
O1034 O 0.6829 0.41284 0.16526 0.0
O1035 O 0.68336 0.40597 0.18322 0.0
Co1036 Co 0.58105 0.69609 0.17866 0.0
O1037 O 0.56644 0.68875 0.18285 0.0
O1038 O 0.56824 0.70384 0.17068 0.0
C1039 C 0.59109 0.67932 0.17546 0.0
O1040 O 0.59451 0.70568 0.17186 0.0
Co1041 Co 0.60364 0.69231 0.19346 0.0
O1042 O 0.61159 0.70015 0.18006 0.0
C1043 C 0.58477 0.7077 0.2024 0.0
C1044 C 0.56142 0.69635 0.17598 0.0
C1045 C 0.6058 0.70599 0.17247 0.0
O1046 O 0.57953 0.70721 0.19239 0.0
O1047 O 0.59389 0.7016 0.20486 0.0
O1048 O 0.58436 0.68359 0.16729 0.0
O1049 O 0.59075 0.68472 0.18541 0.0
Co1050 Co 0.30075 0.58036 0.17899 0.0
O1051 O 0.30861 0.56582 0.18248 0.0
O1052 O 0.29329 0.56764 0.17062 0.0
C1053 C 0.31699 0.59129 0.17595 0.0
O1054 O 0.29064 0.59377 0.17287 0.0
Co1055 Co 0.30396 0.60232 0.19492 0.0
O1056 O 0.29485 0.61049 0.18251 0.0
C1057 C 0.28954 0.58248 0.20314 0.0
C1058 C 0.30102 0.56084 0.17557 0.0
C1059 C 0.28946 0.60491 0.17443 0.0
O1060 O 0.28986 0.57789 0.19281 0.0
O1061 O 0.29552 0.59156 0.206 0.0
O1062 O 0.31297 0.58459 0.16761 0.0
O1063 O 0.31182 0.59022 0.18596 0.0
Co1064 Co 0.41518 0.6967 0.81745 0.0
O1065 O 0.42948 0.68864 0.81351 0.0
O1066 O 0.42825 0.70387 0.82555 0.0
C1067 C 0.40407 0.68061 0.82063 0.0
O1068 O 0.40206 0.70695 0.82396 0.0
Co1069 Co 0.3929 0.69394 0.80187 0.0
O1070 O 0.38514 0.70302 0.81456 0.0
C1071 C 0.41279 0.70814 0.79343 0.0
C1072 C 0.43478 0.69609 0.82032 0.0
C1073 C 0.39092 0.70827 0.82259 0.0
O1074 O 0.41752 0.70767 0.80369 0.0
O1075 O 0.40359 0.70231 0.79065 0.0
O1076 O 0.41103 0.68445 0.82883 0.0
O1077 O 0.40499 0.68584 0.81063 0.0
Co1078 Co 0.30055 0.41599 0.81904 0.0
O1079 O 0.30835 0.43054 0.81547 0.0
O1080 O 0.29287 0.42875 0.82712 0.0
C1081 C 0.31683 0.40526 0.82254 0.0
O1082 O 0.29047 0.40257 0.82519 0.0
Co1083 Co 0.30419 0.39389 0.80343 0.0
O1084 O 0.29497 0.38578 0.81581 0.0
C1085 C 0.28956 0.4134 0.79479 0.0
C1086 C 0.30064 0.43554 0.82222 0.0
C1087 C 0.28941 0.39141 0.82374 0.0
O1088 O 0.28983 0.41817 0.80504 0.0
O1089 O 0.29563 0.40432 0.79211 0.0
O1090 O 0.31261 0.41206 0.83069 0.0
O1091 O 0.31184 0.40611 0.81241 0.0
Co1092 Co 0.58123 0.30227 0.81849 0.0
O1093 O 0.56667 0.30914 0.81339 0.0
O1094 O 0.56817 0.29377 0.82523 0.0
C1095 C 0.59022 0.31937 0.82293 0.0
O1096 O 0.59452 0.293 0.82603 0.0
Co1097 Co 0.60476 0.30756 0.80575 0.0
O1098 O 0.61196 0.29942 0.81939 0.0
C1099 C 0.58739 0.29165 0.79482 0.0
C1100 C 0.56147 0.30116 0.81966 0.0
C1101 C 0.60582 0.29308 0.82629 0.0
O1102 O 0.58128 0.29155 0.80434 0.0
O1103 O 0.59637 0.29826 0.79336 0.0
O1104 O 0.58312 0.31454 0.83046 0.0
O1105 O 0.59089 0.31425 0.81286 0.0
Co1106 Co 0.69614 0.58088 0.81887 0.0
O1107 O 0.68842 0.56639 0.81492 0.0
O1108 O 0.70366 0.56797 0.82692 0.0
C1109 C 0.67979 0.59158 0.82215 0.0
O1110 O 0.70609 0.59421 0.82543 0.0
Co1111 Co 0.6928 0.6032 0.80349 0.0
O1112 O 0.70162 0.61113 0.81626 0.0
C1113 C 0.70747 0.58373 0.79485 0.0
C1114 C 0.696 0.56127 0.82173 0.0
C1115 C 0.70706 0.60541 0.8242 0.0
O1116 O 0.70712 0.57888 0.80506 0.0
O1117 O 0.70143 0.59283 0.79218 0.0
O1118 O 0.68382 0.58467 0.83031 0.0
O1119 O 0.68502 0.59083 0.81213 0.0
Co1120 Co 0.17864 0.41488 0.30016 0.0
O1121 O 0.18317 0.42932 0.30768 0.0
O1122 O 0.17145 0.428 0.2922 0.0
C1123 C 0.1744 0.40479 0.3167 0.0
O1124 O 0.17161 0.40173 0.29032 0.0
Co1125 Co 0.1924 0.39167 0.30439 0.0
O1126 O 0.17895 0.38433 0.29606 0.0
C1127 C 0.20265 0.41026 0.28952 0.0
C1128 C 0.17674 0.4346 0.29988 0.0
C1129 C 0.17177 0.39043 0.29001 0.0
O1130 O 0.19281 0.41583 0.28949 0.0
O1131 O 0.20452 0.40112 0.2958 0.0
O1132 O 0.16672 0.41201 0.31229 0.0
O1133 O 0.18455 0.40483 0.31166 0.0
Co1134 Co 0.58125 0.17881 0.30154 0.0
O1135 O 0.5666 0.18358 0.30843 0.0
O1136 O 0.56836 0.17164 0.29316 0.0
C1137 C 0.5905 0.1748 0.31861 0.0
O1138 O 0.59468 0.17157 0.29226 0.0
Co1139 Co 0.60445 0.19229 0.30648 0.0
O1140 O 0.61199 0.17889 0.29826 0.0
C1141 C 0.58652 0.20262 0.29082 0.0
C1142 C 0.56154 0.17714 0.30049 0.0
C1143 C 0.60598 0.1717 0.29212 0.0
O1144 O 0.58083 0.19285 0.29069 0.0
O1145 O 0.59546 0.20444 0.2974 0.0
O1146 O 0.58356 0.16704 0.31393 0.0
O1147 O 0.59085 0.18484 0.31339 0.0
Co1148 Co 0.81812 0.58105 0.30102 0.0
O1149 O 0.81382 0.56669 0.30879 0.0
O1150 O 0.82582 0.56793 0.29352 0.0
C1151 C 0.82171 0.59172 0.31732 0.0
O1152 O 0.82495 0.5942 0.29101 0.0
Co1153 Co 0.80321 0.60369 0.30435 0.0
O1154 O 0.81604 0.6113 0.29534 0.0
C1155 C 0.79416 0.58442 0.28967 0.0
C1156 C 0.82045 0.56137 0.30119 0.0
C1157 C 0.82388 0.6054 0.28992 0.0
O1158 O 0.80425 0.57934 0.29007 0.0
O1159 O 0.79167 0.59359 0.29569 0.0
O1160 O 0.82969 0.5846 0.31329 0.0
O1161 O 0.81166 0.59119 0.31214 0.0
Co1162 Co 0.41524 0.81986 0.29993 0.0
O1163 O 0.42986 0.81633 0.30756 0.0
O1164 O 0.42792 0.82802 0.29212 0.0
C1165 C 0.40478 0.82318 0.31642 0.0
O1166 O 0.40167 0.82593 0.29002 0.0
Co1167 Co 0.39346 0.8039 0.3038 0.0
O1168 O 0.38529 0.81541 0.29358 0.0
C1169 C 0.41305 0.79549 0.28924 0.0
C1170 C 0.4348 0.82305 0.29978 0.0
C1171 C 0.39069 0.82376 0.28846 0.0
O1172 O 0.41746 0.8059 0.28919 0.0
O1173 O 0.40419 0.79264 0.29554 0.0
O1174 O 0.41135 0.83144 0.31206 0.0
O1175 O 0.40562 0.81309 0.31136 0.0
Co1176 Co 0.17721 0.58029 0.69713 0.0
O1177 O 0.18087 0.56584 0.68919 0.0
O1178 O 0.16887 0.56746 0.70442 0.0
C1179 C 0.17423 0.59131 0.68093 0.0
O1180 O 0.17092 0.5936 0.70728 0.0
Co1181 Co 0.19309 0.60232 0.69422 0.0
O1182 O 0.18056 0.61037 0.70327 0.0
C1183 C 0.20127 0.5824 0.70854 0.0
C1184 C 0.17393 0.56076 0.69667 0.0
C1185 C 0.17245 0.60473 0.70855 0.0
O1186 O 0.19094 0.57781 0.70812 0.0
O1187 O 0.20416 0.59153 0.70264 0.0
O1188 O 0.1659 0.58453 0.68484 0.0
O1189 O 0.18421 0.59028 0.68618 0.0
Co1190 Co 0.41628 0.1772 0.6948 0.0
O1191 O 0.43083 0.18217 0.68786 0.0
O1192 O 0.42931 0.17021 0.70313 0.0
C1193 C 0.40709 0.17309 0.67773 0.0
O1194 O 0.40297 0.16977 0.70412 0.0
Co1195 Co 0.39288 0.19032 0.68985 0.0
O1196 O 0.38556 0.17677 0.69802 0.0
C1197 C 0.41063 0.20088 0.7056 0.0
C1198 C 0.43602 0.1758 0.69576 0.0
C1199 C 0.39166 0.16973 0.70421 0.0
O1200 O 0.41652 0.19123 0.70565 0.0
O1201 O 0.40163 0.20254 0.69905 0.0
O1202 O 0.41412 0.1654 0.68241 0.0
O1203 O 0.4066 0.1831 0.68298 0.0
Co1204 Co 0.81681 0.41416 0.69524 0.0
O1205 O 0.8117 0.42835 0.68764 0.0
O1206 O 0.82353 0.42761 0.70308 0.0
C1207 C 0.82136 0.40413 0.67877 0.0
O1208 O 0.82434 0.40133 0.70517 0.0
Co1209 Co 0.80384 0.39046 0.6912 0.0
O1210 O 0.81757 0.38366 0.69953 0.0
C1211 C 0.79306 0.4087 0.70613 0.0
C1212 C 0.81794 0.43394 0.69538 0.0
C1213 C 0.82454 0.39003 0.70554 0.0
O1214 O 0.80267 0.41467 0.70597 0.0
O1215 O 0.79147 0.39944 0.69994 0.0
O1216 O 0.82879 0.41165 0.6831 0.0
O1217 O 0.81124 0.40383 0.68383 0.0
Co1218 Co 0.58166 0.81917 0.69641 0.0
O1219 O 0.56723 0.81511 0.68863 0.0
O1220 O 0.56867 0.82706 0.70392 0.0
C1221 C 0.59238 0.8226 0.6801 0.0
O1222 O 0.59488 0.82578 0.70645 0.0
Co1223 Co 0.60414 0.80402 0.69311 0.0
O1224 O 0.6119 0.8167 0.70221 0.0
C1225 C 0.5847 0.79513 0.70768 0.0
C1226 C 0.56203 0.82182 0.69624 0.0
C1227 C 0.60606 0.82458 0.70761 0.0
O1228 O 0.57974 0.80529 0.70733 0.0
O1229 O 0.59385 0.79258 0.70167 0.0
O1230 O 0.5854 0.83068 0.68414 0.0
O1231 O 0.59172 0.81256 0.6853 0.0
Co1232 Co 0.30123 0.17909 0.41524 0.0
O1233 O 0.3084 0.18384 0.42976 0.0
O1234 O 0.29328 0.17168 0.42826 0.0
C1235 C 0.31812 0.17541 0.40558 0.0
O1236 O 0.29175 0.17178 0.40197 0.0
Co1237 Co 0.30535 0.1928 0.39204 0.0
O1238 O 0.29748 0.17914 0.38459 0.0
C1239 C 0.28981 0.20268 0.41032 0.0
C1240 C 0.3007 0.17721 0.43495 0.0
C1241 C 0.29152 0.17188 0.39067 0.0
O1242 O 0.29019 0.19293 0.41604 0.0
O1243 O 0.29601 0.20466 0.40115 0.0
O1244 O 0.31371 0.16753 0.41257 0.0
O1245 O 0.31274 0.18537 0.40541 0.0
Co1246 Co 0.30075 0.81882 0.58118 0.0
O1247 O 0.30828 0.81492 0.56659 0.0
O1248 O 0.29299 0.82681 0.56838 0.0
C1249 C 0.31736 0.82216 0.59146 0.0
O1250 O 0.29094 0.8253 0.59465 0.0
Co1251 Co 0.30459 0.80361 0.60351 0.0
O1252 O 0.29552 0.81614 0.61154 0.0
C1253 C 0.28971 0.79473 0.58427 0.0
C1254 C 0.3006 0.82169 0.56157 0.0
C1255 C 0.28998 0.82402 0.60585 0.0
O1256 O 0.28987 0.80491 0.57936 0.0
O1257 O 0.29591 0.79218 0.59331 0.0
O1258 O 0.31304 0.83034 0.58477 0.0
O1259 O 0.31213 0.81213 0.5909 0.0
Co1260 Co 0.18052 0.30057 0.58164 0.0
O1261 O 0.18588 0.3082 0.56752 0.0
O1262 O 0.17334 0.29333 0.56812 0.0
C1263 C 0.17689 0.31702 0.59208 0.0
O1264 O 0.17255 0.29073 0.59424 0.0
Co1265 Co 0.19355 0.30328 0.60547 0.0
O1266 O 0.17934 0.29563 0.6121 0.0
C1267 C 0.20369 0.2884 0.58679 0.0
C1268 C 0.17925 0.30084 0.56186 0.0
C1269 C 0.17217 0.29011 0.60552 0.0
O1270 O 0.19414 0.28922 0.5808 0.0
O1271 O 0.2055 0.29416 0.59629 0.0
O1272 O 0.16919 0.31325 0.58453 0.0
O1273 O 0.18673 0.31142 0.59222 0.0
Co1274 Co 0.69497 0.17793 0.58077 0.0
O1275 O 0.68803 0.18258 0.56612 0.0
O1276 O 0.70327 0.17063 0.56788 0.0
C1277 C 0.67792 0.17401 0.5901 0.0
O1278 O 0.70421 0.17077 0.5943 0.0
Co1279 Co 0.68999 0.19191 0.60368 0.0
O1280 O 0.69872 0.17897 0.61141 0.0
C1281 C 0.70563 0.20187 0.58559 0.0
C1282 C 0.6959 0.17608 0.56105 0.0
C1283 C 0.70461 0.17144 0.60559 0.0
O1284 O 0.70585 0.19195 0.58018 0.0
O1285 O 0.69895 0.20391 0.59441 0.0
O1286 O 0.68259 0.16618 0.58322 0.0
O1287 O 0.68313 0.18405 0.5903 0.0
Co1288 Co 0.81837 0.69706 0.58152 0.0
O1289 O 0.81462 0.6891 0.56709 0.0
O1290 O 0.82647 0.70445 0.56859 0.0
C1291 C 0.82169 0.68088 0.59248 0.0
O1292 O 0.82472 0.70729 0.59474 0.0
Co1293 Co 0.80287 0.69397 0.60379 0.0
O1294 O 0.81535 0.70325 0.61165 0.0
C1295 C 0.79425 0.70826 0.58403 0.0
C1296 C 0.82142 0.69667 0.56193 0.0
C1297 C 0.82332 0.7086 0.60588 0.0
O1298 O 0.80449 0.7079 0.57924 0.0
O1299 O 0.79157 0.70235 0.59321 0.0
O1300 O 0.82987 0.68489 0.58559 0.0
O1301 O 0.81164 0.68602 0.5916 0.0
Co1302 Co 0.695 0.8187 0.41445 0.0
O1303 O 0.68773 0.81425 0.429 0.0
O1304 O 0.70299 0.82622 0.42741 0.0
C1305 C 0.6782 0.82243 0.40464 0.0
O1306 O 0.70455 0.82564 0.40104 0.0
Co1307 Co 0.69063 0.80427 0.3917 0.0
O1308 O 0.69965 0.81702 0.38396 0.0
C1309 C 0.70578 0.79468 0.41038 0.0
C1310 C 0.69549 0.82082 0.43414 0.0
C1311 C 0.70532 0.82471 0.3898 0.0
O1312 O 0.7059 0.80474 0.41555 0.0
O1313 O 0.69929 0.79244 0.40147 0.0
O1314 O 0.68266 0.83037 0.41152 0.0
O1315 O 0.68342 0.81239 0.40474 0.0
Co1316 Co 0.17933 0.69592 0.41525 0.0
O1317 O 0.18419 0.68825 0.4295 0.0
O1318 O 0.17185 0.70326 0.42857 0.0
C1319 C 0.17581 0.6795 0.40473 0.0
O1320 O 0.17192 0.70581 0.40233 0.0
Co1321 Co 0.19332 0.69291 0.39199 0.0
O1322 O 0.17949 0.70074 0.38482 0.0
C1323 C 0.20283 0.70785 0.41092 0.0
C1324 C 0.17752 0.6957 0.43498 0.0
C1325 C 0.17207 0.70637 0.39104 0.0
O1326 O 0.19303 0.70713 0.41651 0.0
O1327 O 0.205 0.702 0.40156 0.0
O1328 O 0.16794 0.68339 0.41204 0.0
O1329 O 0.18573 0.68495 0.40492 0.0
Co1330 Co 0.81902 0.30049 0.41567 0.0
O1331 O 0.81508 0.30819 0.43016 0.0
O1332 O 0.8269 0.29281 0.42857 0.0
C1333 C 0.82258 0.31682 0.40504 0.0
O1334 O 0.82546 0.29055 0.40231 0.0
Co1335 Co 0.80357 0.30418 0.39344 0.0
O1336 O 0.81602 0.29487 0.3855 0.0
C1337 C 0.79474 0.28985 0.41298 0.0
C1338 C 0.82177 0.3005 0.43528 0.0
C1339 C 0.82402 0.28944 0.39115 0.0
O1340 O 0.80509 0.28964 0.41752 0.0
O1341 O 0.79203 0.29625 0.40414 0.0
O1342 O 0.83064 0.31267 0.41199 0.0
O1343 O 0.81248 0.31176 0.40575 0.0
C1344 C 0.12404 0.2117 0.33641 0.0
C1345 C 0.11178 0.21228 0.33514 0.0
C1346 C 0.12998 0.21984 0.34341 0.0
C1347 C 0.12591 0.2426 0.36645 0.0
H1348 H 0.15499 0.25473 0.35356 0.0
C1349 C 0.16139 0.28295 0.37342 0.0
C1350 C 0.1629 0.28257 0.38567 0.0
C1351 C 0.15448 0.27459 0.36771 0.0
C1352 C 0.14683 0.25154 0.35724 0.0
H1353 H 0.09611 0.22167 0.34058 0.0
H1354 H 0.1065 0.23598 0.35261 0.0
H1355 H 0.14435 0.23955 0.34305 0.0
H1356 H 0.15796 0.27327 0.40156 0.0
H1357 H 0.14606 0.25855 0.39156 0.0
H1358 H 0.12827 0.2549 0.3805 0.0
C1359 C 0.11152 0.22914 0.34831 0.0
C1360 C 0.14081 0.24268 0.3513 0.0
C1361 C 0.10556 0.22095 0.34136 0.0
C1362 C 0.15699 0.27384 0.39212 0.0
C1363 C 0.15012 0.26541 0.38638 0.0
C1364 C 0.13193 0.25152 0.3724 0.0
C1365 C 0.12383 0.22881 0.34925 0.0
C1366 C 0.13028 0.23808 0.35582 0.0
C1367 C 0.14896 0.26557 0.37408 0.0
C1368 C 0.14245 0.25612 0.36784 0.0
H1369 H 0.12911 0.20506 0.33186 0.0
H1370 H 0.13944 0.21916 0.34414 0.0
H1371 H 0.11787 0.2392 0.37023 0.0
H1372 H 0.16569 0.28964 0.36819 0.0
H1373 H 0.15356 0.27514 0.35826 0.0
C1374 C 0.71229 0.15972 0.37242 0.0
C1375 C 0.71282 0.16132 0.38465 0.0
C1376 C 0.72067 0.15288 0.36665 0.0
C1377 C 0.74385 0.14565 0.35607 0.0
H1378 H 0.75699 0.11712 0.36923 0.0
C1379 C 0.78468 0.12408 0.33581 0.0
C1380 C 0.78452 0.1118 0.3346 0.0
C1381 C 0.77623 0.12979 0.34263 0.0
C1382 C 0.75336 0.12504 0.3654 0.0
H1383 H 0.72237 0.15657 0.40046 0.0
H1384 H 0.73709 0.1448 0.39037 0.0
H1385 H 0.74094 0.12707 0.37938 0.0
H1386 H 0.77551 0.09586 0.33995 0.0
H1387 H 0.76069 0.10584 0.35166 0.0
H1388 H 0.75601 0.1435 0.34196 0.0
C1389 C 0.73011 0.14873 0.38524 0.0
C1390 C 0.74424 0.1308 0.37128 0.0
C1391 C 0.72168 0.15553 0.39103 0.0
C1392 C 0.77593 0.10533 0.34069 0.0
C1393 C 0.76744 0.11105 0.34746 0.0
C1394 C 0.75293 0.13988 0.3502 0.0
C1395 C 0.72984 0.14751 0.37296 0.0
C1396 C 0.73937 0.14117 0.36667 0.0
C1397 C 0.76737 0.12336 0.34835 0.0
C1398 C 0.75782 0.12953 0.35479 0.0
H1399 H 0.70552 0.16394 0.36724 0.0
H1400 H 0.72005 0.15191 0.35721 0.0
H1401 H 0.74045 0.15371 0.35236 0.0
H1402 H 0.79123 0.12934 0.33135 0.0
H1403 H 0.77659 0.13926 0.34333 0.0
C1404 C 0.84152 0.71923 0.39007 0.0
C1405 C 0.83142 0.71442 0.38484 0.0
C1406 C 0.84879 0.72687 0.38375 0.0
C1407 C 0.8553 0.73671 0.35321 0.0
H1408 H 0.86893 0.7638 0.36872 0.0
C1409 C 0.87325 0.77645 0.32784 0.0
C1410 C 0.88449 0.78049 0.33096 0.0
C1411 C 0.86747 0.76813 0.33474 0.0
C1412 C 0.86526 0.7562 0.36432 0.0
H1413 H 0.82099 0.71401 0.36889 0.0
H1414 H 0.83338 0.72751 0.35806 0.0
H1415 H 0.85754 0.74964 0.38014 0.0
H1416 H 0.89835 0.77915 0.34397 0.0
H1417 H 0.88809 0.76472 0.35618 0.0
H1418 H 0.8627 0.74352 0.33732 0.0
C1419 C 0.83593 0.72516 0.36692 0.0
C1420 C 0.85878 0.74806 0.37085 0.0
C1421 C 0.82875 0.71745 0.37317 0.0
C1422 C 0.88972 0.77619 0.3413 0.0
C1423 C 0.88384 0.76797 0.34831 0.0
C1424 C 0.86165 0.74491 0.34668 0.0
C1425 C 0.84606 0.72996 0.37209 0.0
C1426 C 0.85359 0.73828 0.36535 0.0
C1427 C 0.87272 0.76378 0.34501 0.0
C1428 C 0.86658 0.7548 0.35214 0.0
H1429 H 0.84387 0.71704 0.39902 0.0
H1430 H 0.8566 0.73027 0.38798 0.0
H1431 H 0.85171 0.72914 0.34871 0.0
H1432 H 0.86896 0.77955 0.31993 0.0
H1433 H 0.85885 0.76513 0.33207 0.0
C1434 C 0.22221 0.89116 0.33935 0.0
C1435 C 0.21348 0.88491 0.33326 0.0
C1436 C 0.23058 0.88524 0.34611 0.0
C1437 C 0.24414 0.871 0.36421 0.0
H1438 H 0.25611 0.84166 0.35179 0.0
C1439 C 0.27444 0.84011 0.3909 0.0
C1440 C 0.28316 0.83384 0.38481 0.0
C1441 C 0.26625 0.84694 0.38482 0.0
C1442 C 0.25298 0.8499 0.35533 0.0
H1443 H 0.20641 0.86753 0.32991 0.0
H1444 H 0.22081 0.85725 0.34189 0.0
H1445 H 0.24114 0.85232 0.34099 0.0
H1446 H 0.29044 0.83032 0.36755 0.0
H1447 H 0.27636 0.84243 0.35699 0.0
H1448 H 0.25627 0.86872 0.37839 0.0
C1449 C 0.22139 0.86671 0.3412 0.0
C1450 C 0.24423 0.85594 0.34922 0.0
C1451 C 0.21308 0.87262 0.33439 0.0
C1452 C 0.28376 0.83491 0.37252 0.0
C1453 C 0.27563 0.84181 0.36645 0.0
C1454 C 0.25295 0.86498 0.3703 0.0
C1455 C 0.23036 0.87292 0.34699 0.0
C1456 C 0.23966 0.86654 0.3536 0.0
C1457 C 0.26664 0.84774 0.3725 0.0
C1458 C 0.25747 0.85435 0.36594 0.0
H1459 H 0.22281 0.90063 0.33866 0.0
H1460 H 0.23742 0.8903 0.35035 0.0
H1461 H 0.24076 0.87909 0.36788 0.0
H1462 H 0.2737 0.83947 0.40037 0.0
H1463 H 0.25939 0.85129 0.38976 0.0
C1464 C 0.16391 0.71355 0.62393 0.0
C1465 C 0.16507 0.71415 0.61165 0.0
C1466 C 0.15688 0.7216 0.62993 0.0
C1467 C 0.13344 0.74396 0.62598 0.0
H1468 H 0.14571 0.75571 0.65548 0.0
C1469 C 0.12474 0.78308 0.6625 0.0
C1470 C 0.11246 0.78237 0.66359 0.0
C1471 C 0.13086 0.77506 0.65553 0.0
C1472 C 0.1422 0.75264 0.6472 0.0
H1473 H 0.15947 0.72352 0.59604 0.0
H1474 H 0.1474 0.73772 0.60654 0.0
H1475 H 0.15673 0.74109 0.64459 0.0
H1476 H 0.09698 0.7728 0.65794 0.0
H1477 H 0.10769 0.75867 0.64599 0.0
H1478 H 0.11907 0.75583 0.62846 0.0
C1479 C 0.15179 0.73092 0.61152 0.0
C1480 C 0.14844 0.74409 0.64103 0.0
C1481 C 0.15876 0.72279 0.60549 0.0
C1482 C 0.10643 0.77363 0.65728 0.0
C1483 C 0.11257 0.76554 0.65038 0.0
C1484 C 0.12721 0.75258 0.63214 0.0
C1485 C 0.1509 0.73052 0.62384 0.0
C1486 C 0.14414 0.7396 0.63036 0.0
C1487 C 0.12488 0.76606 0.64954 0.0
C1488 C 0.13152 0.75703 0.64283 0.0
H1489 H 0.16853 0.70692 0.62895 0.0
H1490 H 0.15619 0.72086 0.63939 0.0
H1491 H 0.12981 0.74064 0.61784 0.0
H1492 H 0.12966 0.78978 0.66712 0.0
H1493 H 0.14031 0.77589 0.65489 0.0
C1494 C 0.28544 0.16028 0.62388 0.0
C1495 C 0.28484 0.16162 0.61163 0.0
C1496 C 0.27723 0.15338 0.62982 0.0
C1497 C 0.2544 0.14559 0.64075 0.0
H1498 H 0.24178 0.11669 0.62793 0.0
C1499 C 0.21424 0.12332 0.66153 0.0
C1500 C 0.21454 0.11103 0.6627 0.0
C1501 C 0.22257 0.12914 0.65467 0.0
C1502 C 0.24527 0.1247 0.63167 0.0
H1503 H 0.2753 0.15641 0.59597 0.0
H1504 H 0.26084 0.14456 0.60636 0.0
H1505 H 0.25746 0.12694 0.61753 0.0
H1506 H 0.22368 0.09521 0.65727 0.0
H1507 H 0.23833 0.1054 0.64549 0.0
H1508 H 0.24249 0.14323 0.65504 0.0
C1509 C 0.26777 0.14872 0.61137 0.0
C1510 C 0.25418 0.13065 0.62565 0.0
C1511 C 0.27604 0.15557 0.60541 0.0
C1512 C 0.22317 0.10468 0.65656 0.0
C1513 C 0.23155 0.11052 0.64975 0.0
C1514 C 0.24555 0.13964 0.64679 0.0
C1515 C 0.26815 0.1477 0.62367 0.0
C1516 C 0.25885 0.14117 0.63012 0.0
C1517 C 0.23146 0.12284 0.64887 0.0
C1518 C 0.24084 0.12915 0.64231 0.0
H1519 H 0.29218 0.1647 0.62894 0.0
H1520 H 0.27795 0.15257 0.63927 0.0
H1521 H 0.25765 0.15376 0.64438 0.0
H1522 H 0.20764 0.12848 0.66603 0.0
H1523 H 0.22207 0.13861 0.65397 0.0
C1524 C 0.83476 0.28319 0.62425 0.0
C1525 C 0.83353 0.28243 0.61199 0.0
C1526 C 0.84173 0.27514 0.63033 0.0
C1527 C 0.86492 0.25251 0.62663 0.0
H1528 H 0.85232 0.24092 0.65607 0.0
C1529 C 0.8726 0.21298 0.66284 0.0
C1530 C 0.88486 0.21349 0.66418 0.0
C1531 C 0.86673 0.2212 0.6559 0.0
C1532 C 0.85592 0.24396 0.64781 0.0
H1533 H 0.83895 0.27276 0.59648 0.0
H1534 H 0.85093 0.25859 0.60714 0.0
H1535 H 0.84157 0.25572 0.64512 0.0
H1536 H 0.90059 0.22291 0.65899 0.0
H1537 H 0.89031 0.23739 0.64703 0.0
H1538 H 0.87913 0.24046 0.62921 0.0
C1539 C 0.84663 0.26552 0.61203 0.0
C1540 C 0.84984 0.2526 0.64161 0.0
C1541 C 0.83971 0.27362 0.60592 0.0
C1542 C 0.89115 0.22224 0.65814 0.0
C1543 C 0.88525 0.23053 0.65124 0.0
C1544 C 0.87101 0.24382 0.63283 0.0
C1545 C 0.84758 0.26608 0.62433 0.0
C1546 C 0.85425 0.257 0.63095 0.0
C1547 C 0.87295 0.2302 0.65018 0.0
C1548 C 0.86656 0.23942 0.64349 0.0
H1549 H 0.83025 0.28994 0.62919 0.0
H1550 H 0.84247 0.276 0.63977 0.0
H1551 H 0.86862 0.25577 0.6185 0.0
H1552 H 0.86748 0.20628 0.66725 0.0
H1553 H 0.85728 0.22053 0.65507 0.0
C1554 C 0.78588 0.8731 0.65939 0.0
C1555 C 0.78464 0.88519 0.66154 0.0
C1556 C 0.77787 0.86718 0.65224 0.0
C1557 C 0.75535 0.8556 0.6446 0.0
H1558 H 0.74122 0.86915 0.61674 0.0
C1559 C 0.7153 0.83418 0.62281 0.0
C1560 C 0.71524 0.83348 0.61048 0.0
C1561 C 0.72355 0.84114 0.62862 0.0
C1562 C 0.74514 0.86521 0.62446 0.0
H1563 H 0.77424 0.90063 0.65745 0.0
H1564 H 0.76014 0.89025 0.64515 0.0
H1565 H 0.75676 0.87978 0.627 0.0
H1566 H 0.72363 0.83988 0.5946 0.0
H1567 H 0.73815 0.85186 0.60478 0.0
H1568 H 0.74399 0.84092 0.64195 0.0
C1569 C 0.7674 0.88537 0.64888 0.0
C1570 C 0.75397 0.87136 0.6304 0.0
C1571 C 0.77547 0.89131 0.65598 0.0
C1572 C 0.72341 0.84021 0.6041 0.0
C1573 C 0.73171 0.84713 0.60994 0.0
C1574 C 0.74658 0.84946 0.63866 0.0
C1575 C 0.76836 0.87318 0.64713 0.0
C1576 C 0.75918 0.86662 0.64055 0.0
C1577 C 0.732 0.84753 0.62228 0.0
C1578 C 0.74132 0.85419 0.62854 0.0
H1579 H 0.79292 0.86813 0.66341 0.0
H1580 H 0.77904 0.85784 0.65085 0.0
H1581 H 0.75902 0.85176 0.65248 0.0
H1582 H 0.70905 0.82923 0.628 0.0
H1583 H 0.72334 0.84145 0.63813 0.0
C1584 C 0.34147 0.1068 0.22047 0.0
C1585 C 0.33117 0.11201 0.21608 0.0
C1586 C 0.34841 0.11269 0.22874 0.0
C1587 C 0.34646 0.13474 0.25187 0.0
H1588 H 0.37997 0.13897 0.24758 0.0
C1589 C 0.37255 0.16745 0.27992 0.0
C1590 C 0.38422 0.16485 0.28298 0.0
C1591 C 0.36639 0.16029 0.27213 0.0
C1592 C 0.37066 0.13769 0.24904 0.0
H1593 H 0.32013 0.12754 0.2169 0.0
H1594 H 0.33214 0.13767 0.23141 0.0
H1595 H 0.36875 0.12769 0.23318 0.0
H1596 H 0.39849 0.1525 0.28037 0.0
H1597 H 0.38759 0.13977 0.26701 0.0
H1598 H 0.34827 0.14451 0.26776 0.0
C1599 C 0.33484 0.12905 0.22844 0.0
C1600 C 0.36424 0.13127 0.24076 0.0
C1601 C 0.32801 0.12326 0.22007 0.0
C1602 C 0.38953 0.15479 0.27816 0.0
C1603 C 0.38329 0.14753 0.27044 0.0
C1604 C 0.35288 0.14101 0.26022 0.0
C1605 C 0.34506 0.1238 0.2329 0.0
C1606 C 0.35205 0.12992 0.242 0.0
C1607 C 0.37165 0.15023 0.26728 0.0
C1608 C 0.36503 0.14276 0.25881 0.0
H1609 H 0.34417 0.09816 0.21755 0.0
H1610 H 0.35625 0.10845 0.23207 0.0
H1611 H 0.33709 0.13364 0.25313 0.0
H1612 H 0.36822 0.17518 0.28337 0.0
H1613 H 0.35754 0.16281 0.26973 0.0
C1614 C 0.89088 0.33932 0.22181 0.0
C1615 C 0.88474 0.33343 0.21286 0.0
C1616 C 0.88488 0.34628 0.22996 0.0
C1617 C 0.85527 0.34993 0.24266 0.0
H1618 H 0.86817 0.3787 0.25551 0.0
C1619 C 0.83919 0.39107 0.27344 0.0
C1620 C 0.83284 0.38479 0.28197 0.0
C1621 C 0.84613 0.38516 0.2652 0.0
C1622 C 0.86441 0.37072 0.25195 0.0
H1623 H 0.86753 0.33074 0.20512 0.0
H1624 H 0.85715 0.34304 0.21914 0.0
H1625 H 0.87883 0.36824 0.24012 0.0
H1626 H 0.82927 0.36737 0.28886 0.0
H1627 H 0.84152 0.35713 0.27469 0.0
H1628 H 0.84074 0.35252 0.25422 0.0
C1629 C 0.86656 0.34203 0.22007 0.0
C1630 C 0.87058 0.36466 0.24322 0.0
C1631 C 0.87253 0.33502 0.21198 0.0
C1632 C 0.83392 0.37249 0.28233 0.0
C1633 C 0.8409 0.3666 0.27415 0.0
C1634 C 0.84911 0.35599 0.25135 0.0
C1635 C 0.87262 0.34756 0.2293 0.0
C1636 C 0.86607 0.35419 0.23846 0.0
C1637 C 0.84692 0.37283 0.26536 0.0
C1638 C 0.85361 0.36644 0.25614 0.0
H1639 H 0.90029 0.33828 0.22276 0.0
H1640 H 0.88982 0.35034 0.23701 0.0
H1641 H 0.85161 0.3418 0.23935 0.0
H1642 H 0.83855 0.40054 0.27289 0.0
H1643 H 0.85057 0.39023 0.25849 0.0
C1644 C 0.66898 0.87466 0.21948 0.0
C1645 C 0.66586 0.88589 0.21541 0.0
C1646 C 0.6621 0.86892 0.22783 0.0
C1647 C 0.63258 0.86679 0.2399 0.0
H1648 H 0.64829 0.85338 0.26697 0.0
C1649 C 0.60693 0.84326 0.27702 0.0
C1650 C 0.61214 0.83315 0.28183 0.0
C1651 C 0.61326 0.85051 0.26937 0.0
C1652 C 0.64376 0.85693 0.25941 0.0
H1653 H 0.65287 0.89977 0.21673 0.0
H1654 H 0.64069 0.88956 0.23123 0.0
H1655 H 0.65963 0.86428 0.25248 0.0
H1656 H 0.62807 0.8227 0.28228 0.0
H1657 H 0.63892 0.83507 0.26877 0.0
H1658 H 0.61678 0.85911 0.24656 0.0
C1659 C 0.64854 0.8853 0.22797 0.0
C1660 C 0.65027 0.86322 0.25114 0.0
C1661 C 0.65554 0.89114 0.21972 0.0
C1662 C 0.62381 0.83048 0.27884 0.0
C1663 C 0.63007 0.83764 0.27112 0.0
C1664 C 0.62608 0.86035 0.2481 0.0
C1665 C 0.65185 0.8742 0.2322 0.0
C1666 C 0.64477 0.8681 0.24124 0.0
C1667 C 0.6249 0.84776 0.26628 0.0
C1668 C 0.63162 0.85522 0.2579 0.0
H1669 H 0.67687 0.87036 0.21638 0.0
H1670 H 0.66477 0.8603 0.23086 0.0
H1671 H 0.62815 0.87041 0.2323 0.0
H1672 H 0.59797 0.84561 0.27919 0.0
H1673 H 0.60904 0.85832 0.26595 0.0
C1674 C 0.12483 0.66327 0.21302 0.0
C1675 C 0.11259 0.6646 0.2139 0.0
C1676 C 0.13091 0.65611 0.2209 0.0
C1677 C 0.12706 0.63263 0.24327 0.0
H1678 H 0.15696 0.6444 0.25452 0.0
C1679 C 0.16378 0.62356 0.28207 0.0
C1680 C 0.16462 0.61126 0.28151 0.0
C1681 C 0.1569 0.62973 0.27401 0.0
C1682 C 0.14857 0.64103 0.25158 0.0
H1683 H 0.09712 0.65918 0.22362 0.0
H1684 H 0.10776 0.6469 0.23752 0.0
H1685 H 0.14602 0.65559 0.24005 0.0
H1686 H 0.15863 0.59578 0.27215 0.0
H1687 H 0.14682 0.60656 0.25793 0.0
H1688 H 0.12947 0.61824 0.25514 0.0
C1689 C 0.11265 0.65125 0.23062 0.0
C1690 C 0.14237 0.64737 0.24312 0.0
C1691 C 0.10654 0.65834 0.22267 0.0
C1692 C 0.15817 0.60525 0.27286 0.0
C1693 C 0.15134 0.61144 0.26473 0.0
C1694 C 0.13324 0.62631 0.2518 0.0
C1695 C 0.12493 0.65017 0.22993 0.0
C1696 C 0.13155 0.64325 0.23884 0.0
C1697 C 0.15075 0.62377 0.26511 0.0
C1698 C 0.14407 0.63045 0.25608 0.0
H1699 H 0.12976 0.66785 0.20629 0.0
H1700 H 0.14034 0.65529 0.21995 0.0
H1701 H 0.1188 0.62915 0.2401 0.0
H1702 H 0.16851 0.62847 0.2887 0.0
H1703 H 0.15643 0.6392 0.27475 0.0
C1704 C 0.34206 0.88989 0.77797 0.0
C1705 C 0.33194 0.88454 0.78262 0.0
C1706 C 0.34901 0.884 0.76972 0.0
C1707 C 0.3471 0.86152 0.747 0.0
H1708 H 0.38081 0.8583 0.7505 0.0
C1709 C 0.37341 0.82927 0.71862 0.0
C1710 C 0.3849 0.83221 0.7152 0.0
C1711 C 0.36725 0.8363 0.72653 0.0
C1712 C 0.37143 0.85929 0.74926 0.0
H1713 H 0.32127 0.86874 0.78229 0.0
H1714 H 0.33329 0.85859 0.7678 0.0
H1715 H 0.36962 0.86947 0.76502 0.0
H1716 H 0.39884 0.84501 0.7173 0.0
H1717 H 0.38794 0.8575 0.73088 0.0
H1718 H 0.34879 0.85158 0.7312 0.0
C1719 C 0.33584 0.86733 0.77056 0.0
C1720 C 0.36504 0.86564 0.75762 0.0
C1721 C 0.32901 0.87313 0.77892 0.0
C1722 C 0.39003 0.84246 0.7198 0.0
C1723 C 0.3838 0.84959 0.72764 0.0
C1724 C 0.35348 0.85531 0.73858 0.0
C1725 C 0.34585 0.87273 0.76582 0.0
C1726 C 0.35279 0.86664 0.75666 0.0
C1727 C 0.37233 0.84657 0.73114 0.0
C1728 C 0.36571 0.85392 0.7397 0.0
H1729 H 0.34458 0.89866 0.78066 0.0
H1730 H 0.35668 0.88836 0.76616 0.0
H1731 H 0.33768 0.86233 0.74595 0.0
H1732 H 0.36921 0.82138 0.71535 0.0
H1733 H 0.35855 0.83353 0.72919 0.0
C1734 C 0.16913 0.37315 0.72114 0.0
C1735 C 0.16583 0.38435 0.71712 0.0
C1736 C 0.16233 0.36725 0.72945 0.0
C1737 C 0.13282 0.36466 0.74154 0.0
H1738 H 0.14872 0.35148 0.76861 0.0
C1739 C 0.10743 0.34122 0.77889 0.0
C1740 C 0.11272 0.33121 0.78381 0.0
C1741 C 0.11369 0.34843 0.77115 0.0
C1742 C 0.14414 0.35496 0.76104 0.0
H1743 H 0.15259 0.39799 0.71847 0.0
H1744 H 0.14056 0.38751 0.73289 0.0
H1745 H 0.15991 0.36243 0.75405 0.0
H1746 H 0.12872 0.32088 0.78434 0.0
H1747 H 0.13946 0.33317 0.77067 0.0
H1748 H 0.1171 0.35688 0.74827 0.0
C1749 C 0.14849 0.3834 0.72963 0.0
C1750 C 0.15056 0.36128 0.75273 0.0
C1751 C 0.1554 0.3894 0.72142 0.0
C1752 C 0.1244 0.32859 0.78082 0.0
C1753 C 0.1306 0.3357 0.77301 0.0
C1754 C 0.12639 0.3582 0.74978 0.0
C1755 C 0.15198 0.37233 0.73382 0.0
C1756 C 0.14499 0.3661 0.74285 0.0
C1757 C 0.12534 0.34573 0.76806 0.0
C1758 C 0.132 0.35316 0.75959 0.0
H1759 H 0.17711 0.369 0.71804 0.0
H1760 H 0.16514 0.35867 0.73245 0.0
H1761 H 0.12833 0.36824 0.73395 0.0
H1762 H 0.09846 0.34353 0.78105 0.0
H1763 H 0.1094 0.35617 0.76766 0.0
C1764 C 0.60664 0.15772 0.72117 0.0
C1765 C 0.61282 0.16373 0.71232 0.0
C1766 C 0.61262 0.15084 0.72939 0.0
C1767 C 0.64205 0.14747 0.74259 0.0
H1768 H 0.62908 0.1186 0.75514 0.0
C1769 C 0.65755 0.10639 0.77379 0.0
C1770 C 0.66368 0.11268 0.78247 0.0
C1771 C 0.65084 0.11228 0.76536 0.0
C1772 C 0.63287 0.1266 0.75166 0.0
H1773 H 0.63011 0.16676 0.70488 0.0
H1774 H 0.64047 0.15458 0.71906 0.0
H1775 H 0.6187 0.12898 0.73953 0.0
H1776 H 0.66709 0.13011 0.78941 0.0
H1777 H 0.65521 0.14033 0.7749 0.0
H1778 H 0.65635 0.14498 0.75446 0.0
C1779 C 0.63103 0.15543 0.71983 0.0
C1780 C 0.62685 0.13262 0.7428 0.0
C1781 C 0.62507 0.16236 0.71165 0.0
C1782 C 0.6626 0.12498 0.78277 0.0
C1783 C 0.65584 0.13086 0.7744 0.0
C1784 C 0.64807 0.14145 0.7514 0.0
C1785 C 0.62491 0.14975 0.72893 0.0
C1786 C 0.63137 0.14314 0.73816 0.0
C1787 C 0.65005 0.12461 0.76546 0.0
C1788 C 0.64354 0.13097 0.75609 0.0
H1789 H 0.5972 0.15859 0.72197 0.0
H1790 H 0.60763 0.14669 0.73635 0.0
H1791 H 0.64571 0.15563 0.73936 0.0
H1792 H 0.6582 0.09691 0.77328 0.0
H1793 H 0.64658 0.1072 0.75855 0.0
C1794 C 0.89315 0.65468 0.77423 0.0
C1795 C 0.88658 0.65963 0.78345 0.0
C1796 C 0.88779 0.64721 0.76608 0.0
C1797 C 0.86199 0.62838 0.76103 0.0
H1798 H 0.86627 0.63657 0.72824 0.0
C1799 C 0.84023 0.60227 0.72332 0.0
C1800 C 0.83407 0.60918 0.71514 0.0
C1801 C 0.84782 0.60749 0.73144 0.0
C1802 C 0.86503 0.63417 0.73736 0.0
H1803 H 0.8694 0.66015 0.79167 0.0
H1804 H 0.86012 0.64702 0.77752 0.0
H1805 H 0.87738 0.64702 0.74334 0.0
H1806 H 0.83137 0.62696 0.70882 0.0
H1807 H 0.8447 0.63603 0.72293 0.0
H1808 H 0.84946 0.6157 0.75506 0.0
C1809 C 0.86939 0.64896 0.77658 0.0
C1810 C 0.87146 0.64006 0.74599 0.0
C1811 C 0.87469 0.65654 0.78463 0.0
C1812 C 0.83594 0.62139 0.71503 0.0
C1813 C 0.84363 0.62658 0.72306 0.0
C1814 C 0.85567 0.62239 0.75239 0.0
C1815 C 0.87582 0.64442 0.76709 0.0
C1816 C 0.86985 0.63737 0.75792 0.0
C1817 C 0.84952 0.61971 0.73144 0.0
C1818 C 0.85698 0.62536 0.74049 0.0
H1819 H 0.90233 0.65687 0.77305 0.0
H1820 H 0.89298 0.64374 0.7589 0.0
H1821 H 0.86064 0.62609 0.77017 0.0
H1822 H 0.839 0.59285 0.72366 0.0
H1823 H 0.85232 0.60198 0.73775 0.0
C1824 C 0.22008 0.34221 0.10691 0.0
C1825 C 0.21534 0.33201 0.112 0.0
C1826 C 0.22811 0.34914 0.11311 0.0
C1827 C 0.23948 0.35443 0.14336 0.0
H1828 H 0.26574 0.36864 0.12697 0.0
C1829 C 0.28 0.37251 0.16745 0.0
C1830 C 0.28357 0.38394 0.16443 0.0
C1831 C 0.27162 0.36661 0.16072 0.0
C1832 C 0.25839 0.36479 0.13163 0.0
H1833 H 0.21547 0.32103 0.12758 0.0
H1834 H 0.22967 0.33283 0.13819 0.0
H1835 H 0.25107 0.35755 0.11591 0.0
H1836 H 0.28137 0.39799 0.15175 0.0
H1837 H 0.26685 0.38753 0.13984 0.0
H1838 H 0.24704 0.36138 0.15911 0.0
C1839 C 0.22696 0.33572 0.12955 0.0
C1840 C 0.24995 0.35848 0.1253 0.0
C1841 C 0.21884 0.32889 0.12342 0.0
C1842 C 0.27878 0.38921 0.15434 0.0
C1843 C 0.27051 0.38322 0.14749 0.0
C1844 C 0.24798 0.36059 0.14968 0.0
C1845 C 0.23169 0.34596 0.12451 0.0
C1846 C 0.24043 0.35313 0.1311 0.0
C1847 C 0.26674 0.37194 0.15073 0.0
C1848 C 0.25756 0.36576 0.14389 0.0
H1849 H 0.21752 0.3449 0.09815 0.0
H1850 H 0.23143 0.35704 0.109 0.0
H1851 H 0.23213 0.3507 0.14811 0.0
H1852 H 0.28348 0.36818 0.17518 0.0
H1853 H 0.26895 0.35786 0.16333 0.0
C1854 C 0.21828 0.6686 0.87392 0.0
C1855 C 0.21498 0.66562 0.88544 0.0
C1856 C 0.22638 0.66176 0.86778 0.0
C1857 C 0.23905 0.63242 0.86564 0.0
H1858 H 0.26479 0.64842 0.85011 0.0
C1859 C 0.27593 0.6071 0.84138 0.0
C1860 C 0.28012 0.61204 0.83087 0.0
C1861 C 0.26831 0.61343 0.84865 0.0
C1862 C 0.25758 0.64381 0.85426 0.0
H1863 H 0.21742 0.6529 0.89943 0.0
H1864 H 0.23149 0.64082 0.88856 0.0
H1865 H 0.25061 0.65971 0.86146 0.0
H1866 H 0.27945 0.62747 0.81969 0.0
H1867 H 0.26597 0.63831 0.83212 0.0
H1868 H 0.24578 0.61654 0.85816 0.0
C1869 C 0.22782 0.64853 0.88437 0.0
C1870 C 0.24949 0.65028 0.86079 0.0
C1871 C 0.21981 0.65547 0.89059 0.0
C1872 C 0.27649 0.62342 0.82778 0.0
C1873 C 0.2688 0.62969 0.83496 0.0
C1874 C 0.24707 0.62593 0.85897 0.0
C1875 C 0.23128 0.6517 0.87296 0.0
C1876 C 0.24009 0.64467 0.86646 0.0
C1877 C 0.26462 0.62481 0.84551 0.0
C1878 C 0.25638 0.63156 0.8531 0.0
H1879 H 0.21476 0.67635 0.86968 0.0
H1880 H 0.22881 0.66432 0.85895 0.0
H1881 H 0.23183 0.62789 0.86987 0.0
H1882 H 0.2786 0.59837 0.84405 0.0
H1883 H 0.26541 0.60945 0.85678 0.0
C1884 C 0.37254 0.2834 0.83401 0.0
C1885 C 0.38478 0.28272 0.83262 0.0
C1886 C 0.36659 0.27526 0.84098 0.0
C1887 C 0.35547 0.25265 0.84911 0.0
H1888 H 0.36837 0.24027 0.87808 0.0
C1889 C 0.33409 0.21332 0.87234 0.0
C1890 C 0.33311 0.21384 0.88464 0.0
C1891 C 0.34106 0.2214 0.86629 0.0
C1892 C 0.36461 0.24369 0.87005 0.0
H1893 H 0.40041 0.27309 0.83776 0.0
H1894 H 0.38999 0.25875 0.84973 0.0
H1895 H 0.37893 0.2556 0.86748 0.0
H1896 H 0.33897 0.22311 0.90023 0.0
H1897 H 0.35093 0.23734 0.88964 0.0
H1898 H 0.34099 0.24104 0.85181 0.0
C1899 C 0.385 0.26569 0.84556 0.0
C1900 C 0.37073 0.2524 0.8639 0.0
C1901 C 0.39097 0.27389 0.83865 0.0
C1902 C 0.33954 0.22243 0.89076 0.0
C1903 C 0.34645 0.23057 0.88469 0.0
C1904 C 0.34934 0.244 0.85527 0.0
C1905 C 0.37271 0.26616 0.84667 0.0
C1906 C 0.36622 0.25699 0.85336 0.0
C1907 C 0.34715 0.23026 0.87236 0.0
C1908 C 0.35383 0.23939 0.8658 0.0
H1909 H 0.3675 0.29016 0.82961 0.0
H1910 H 0.35715 0.27606 0.84185 0.0
H1911 H 0.35181 0.25584 0.84093 0.0
H1912 H 0.32937 0.20674 0.86735 0.0
H1913 H 0.3416 0.22073 0.85682 0.0
C1914 C 0.72179 0.39085 0.84023 0.0
C1915 C 0.71302 0.38458 0.83421 0.0
C1916 C 0.73025 0.38494 0.84689 0.0
C1917 C 0.74405 0.3707 0.86481 0.0
H1918 H 0.75614 0.34153 0.85208 0.0
C1919 C 0.77498 0.33992 0.89093 0.0
C1920 C 0.78372 0.33383 0.88468 0.0
C1921 C 0.76663 0.3467 0.885 0.0
C1922 C 0.75297 0.34973 0.85571 0.0
H1923 H 0.70598 0.36718 0.83091 0.0
H1924 H 0.72054 0.35693 0.84271 0.0
H1925 H 0.74093 0.35212 0.84152 0.0
H1926 H 0.79085 0.33057 0.86731 0.0
H1927 H 0.77648 0.34257 0.85702 0.0
H1928 H 0.75636 0.36844 0.87884 0.0
C1929 C 0.72108 0.3664 0.84204 0.0
C1930 C 0.74409 0.35572 0.84974 0.0
C1931 C 0.71267 0.37229 0.83533 0.0
C1932 C 0.78417 0.33502 0.8724 0.0
C1933 C 0.77587 0.34186 0.86648 0.0
C1934 C 0.75298 0.36472 0.87077 0.0
C1935 C 0.73009 0.37263 0.84774 0.0
C1936 C 0.73949 0.36626 0.85422 0.0
C1937 C 0.76687 0.34761 0.87269 0.0
C1938 C 0.75754 0.35416 0.86629 0.0
H1939 H 0.72235 0.40032 0.83955 0.0
H1940 H 0.73712 0.39002 0.85107 0.0
H1941 H 0.74064 0.37874 0.86856 0.0
H1942 H 0.77435 0.33918 0.90039 0.0
H1943 H 0.75977 0.35091 0.89005 0.0
C1944 C 0.62378 0.71398 0.83399 0.0
C1945 C 0.61151 0.71468 0.83287 0.0
C1946 C 0.62987 0.72193 0.84106 0.0
C1947 C 0.62625 0.74415 0.86466 0.0
H1948 H 0.65566 0.75588 0.85215 0.0
C1949 C 0.66287 0.78322 0.87305 0.0
C1950 C 0.66417 0.78246 0.88531 0.0
C1951 C 0.65582 0.77521 0.86702 0.0
C1952 C 0.64741 0.75281 0.85573 0.0
H1953 H 0.59599 0.72413 0.83861 0.0
H1954 H 0.60666 0.73816 0.85076 0.0
H1955 H 0.64461 0.74135 0.84116 0.0
H1956 H 0.65882 0.77282 0.90085 0.0
H1957 H 0.6467 0.75869 0.89028 0.0
H1958 H 0.62894 0.75593 0.87909 0.0
C1959 C 0.61156 0.73134 0.84629 0.0
C1960 C 0.64114 0.74431 0.84951 0.0
C1961 C 0.60544 0.72332 0.83928 0.0
C1962 C 0.658 0.77368 0.89141 0.0
C1963 C 0.651 0.7656 0.88535 0.0
C1964 C 0.63251 0.75271 0.87089 0.0
C1965 C 0.62387 0.73085 0.84712 0.0
C1966 C 0.6305 0.73985 0.85389 0.0
C1967 C 0.64996 0.76617 0.87306 0.0
C1968 C 0.64316 0.75715 0.86648 0.0
H1969 H 0.62873 0.70734 0.8293 0.0
H1970 H 0.63933 0.72111 0.8417 0.0
H1971 H 0.61814 0.74084 0.86835 0.0
H1972 H 0.66737 0.78996 0.86808 0.0
H1973 H 0.65501 0.77608 0.85758 0.0
C1974 C 0.77837 0.66775 0.12374 0.0
C1975 C 0.78182 0.66472 0.11229 0.0
C1976 C 0.77029 0.66087 0.12986 0.0
C1977 C 0.74735 0.63806 0.12567 0.0
H1978 H 0.75075 0.63486 0.15941 0.0
C1979 C 0.71899 0.60708 0.15498 0.0
C1980 C 0.71441 0.61228 0.16522 0.0
C1981 C 0.72711 0.61313 0.14801 0.0
C1982 C 0.74967 0.63573 0.14999 0.0
H1983 H 0.77958 0.65196 0.09833 0.0
H1984 H 0.76572 0.63971 0.10915 0.0
H1985 H 0.76547 0.64566 0.1483 0.0
H1986 H 0.71468 0.62799 0.17603 0.0
H1987 H 0.72894 0.6384 0.16395 0.0
H1988 H 0.7316 0.62786 0.12747 0.0
C1989 C 0.76905 0.64759 0.11331 0.0
C1990 C 0.75807 0.64196 0.14361 0.0
C1991 C 0.77706 0.65457 0.10712 0.0
C1992 C 0.71801 0.62371 0.16821 0.0
C1993 C 0.72623 0.62966 0.16134 0.0
C1994 C 0.73901 0.63168 0.13206 0.0
C1995 C 0.76555 0.65066 0.12476 0.0
C1996 C 0.75694 0.64338 0.13139 0.0
C1997 C 0.73093 0.6244 0.15123 0.0
C1998 C 0.74001 0.63061 0.1443 0.0
H1999 H 0.78176 0.67558 0.12795 0.0
H2000 H 0.76763 0.66368 0.13854 0.0
H2001 H 0.7461 0.63907 0.1163 0.0
H2002 H 0.71637 0.59831 0.1524 0.0
H2003 H 0.73063 0.60887 0.14026 0.0
C2004 C 0.34222 0.77718 0.10784 0.0
C2005 C 0.33202 0.78195 0.11293 0.0
C2006 C 0.3491 0.7691 0.11405 0.0
C2007 C 0.34699 0.7471 0.13726 0.0
H2008 H 0.3807 0.75061 0.14037 0.0
C2009 C 0.37337 0.71939 0.17012 0.0
C2010 C 0.38479 0.71582 0.16712 0.0
C2011 C 0.3672 0.72721 0.16298 0.0
C2012 C 0.37133 0.74937 0.13943 0.0
H2013 H 0.32113 0.78202 0.12858 0.0
H2014 H 0.33304 0.76785 0.13929 0.0
H2015 H 0.36956 0.76482 0.12877 0.0
H2016 H 0.39862 0.71756 0.15413 0.0
H2017 H 0.38771 0.73096 0.14149 0.0
H2018 H 0.34865 0.7316 0.14769 0.0
C2019 C 0.3357 0.77037 0.13051 0.0
C2020 C 0.36495 0.75755 0.13282 0.0
C2021 C 0.32893 0.77855 0.12439 0.0
C2022 C 0.38986 0.72018 0.15674 0.0
C2023 C 0.38362 0.72792 0.14952 0.0
C2024 C 0.35335 0.73886 0.14373 0.0
C2025 C 0.3458 0.76551 0.12538 0.0
C2026 C 0.3527 0.75657 0.13183 0.0
C2027 C 0.37222 0.73157 0.15257 0.0
C2028 C 0.36558 0.73998 0.14506 0.0
H2029 H 0.34487 0.77964 0.09904 0.0
H2030 H 0.35683 0.76545 0.10989 0.0
H2031 H 0.33756 0.74603 0.13647 0.0
H2032 H 0.36923 0.7163 0.1781 0.0
H2033 H 0.35854 0.72999 0.16576 0.0
C2034 C 0.65485 0.21976 0.10636 0.0
C2035 C 0.66499 0.21517 0.11172 0.0
C2036 C 0.64803 0.22821 0.11211 0.0
C2037 C 0.65026 0.2515 0.13393 0.0
H2038 H 0.6167 0.24777 0.13824 0.0
C2039 C 0.62461 0.28036 0.16632 0.0
C2040 C 0.61295 0.28346 0.16374 0.0
C2041 C 0.63068 0.27242 0.15923 0.0
C2042 C 0.62602 0.24908 0.13693 0.0
H2043 H 0.67587 0.21584 0.12737 0.0
H2044 H 0.66409 0.2307 0.13727 0.0
H2045 H 0.62768 0.23308 0.1271 0.0
H2046 H 0.5986 0.2808 0.1515 0.0
H2047 H 0.60933 0.26721 0.13889 0.0
H2048 H 0.64871 0.26753 0.14352 0.0
C2049 C 0.66141 0.22772 0.12864 0.0
C2050 C 0.6323 0.24063 0.13059 0.0
C2051 C 0.6681 0.21916 0.12299 0.0
C2052 C 0.60756 0.27855 0.15378 0.0
C2053 C 0.61369 0.2707 0.14658 0.0
C2054 C 0.64398 0.26001 0.14011 0.0
C2055 C 0.65136 0.23238 0.12324 0.0
C2056 C 0.64451 0.24167 0.12922 0.0
C2057 C 0.62532 0.26747 0.14926 0.0
C2058 C 0.63181 0.25882 0.14189 0.0
H2059 H 0.65219 0.21683 0.0977 0.0
H2060 H 0.64032 0.23169 0.10777 0.0
H2061 H 0.65965 0.25259 0.13283 0.0
H2062 H 0.62901 0.28387 0.17399 0.0
H2063 H 0.63952 0.26998 0.16175 0.0
C2064 C 0.87255 0.78121 0.66736 0.0
C2065 C 0.88417 0.78427 0.66456 0.0
C2066 C 0.86627 0.77341 0.6603 0.0
C2067 C 0.87031 0.75026 0.63772 0.0
H2068 H 0.83669 0.75419 0.63399 0.0
C2069 C 0.84126 0.72142 0.60706 0.0
C2070 C 0.8309 0.71708 0.61222 0.0
C2071 C 0.84813 0.72975 0.61294 0.0
C2072 C 0.84607 0.75296 0.635 0.0
H2073 H 0.89821 0.78171 0.65193 0.0
H2074 H 0.88712 0.76834 0.63941 0.0
H2075 H 0.84791 0.76886 0.64477 0.0
H2076 H 0.81971 0.71805 0.62763 0.0
H2077 H 0.83163 0.73264 0.63775 0.0
H2078 H 0.86839 0.73439 0.62774 0.0
C2079 C 0.88295 0.77175 0.64725 0.0
C2080 C 0.85251 0.76134 0.64122 0.0
C2081 C 0.88929 0.77948 0.65439 0.0
C2082 C 0.82764 0.72118 0.6234 0.0
C2083 C 0.83441 0.7296 0.62918 0.0
C2084 C 0.86388 0.74194 0.63137 0.0
C2085 C 0.87137 0.76855 0.65015 0.0
C2086 C 0.86469 0.76001 0.64283 0.0
C2087 C 0.84469 0.73401 0.62399 0.0
C2088 C 0.85167 0.74313 0.63011 0.0
H2089 H 0.86835 0.78464 0.67518 0.0
H2090 H 0.85747 0.77099 0.66297 0.0
H2091 H 0.87964 0.74885 0.6389 0.0
H2092 H 0.84404 0.71842 0.59848 0.0
H2093 H 0.85601 0.73303 0.60873 0.0
C2094 C 0.21912 0.88923 0.65549 0.0
C2095 C 0.21435 0.88388 0.66555 0.0
C2096 C 0.22694 0.8831 0.64826 0.0
C2097 C 0.23754 0.85281 0.64176 0.0
H2098 H 0.26431 0.86902 0.62832 0.0
C2099 C 0.27776 0.82838 0.6236 0.0
C2100 C 0.28164 0.83163 0.61233 0.0
C2101 C 0.2694 0.83512 0.6295 0.0
C2102 C 0.25681 0.86442 0.63194 0.0
H2103 H 0.21416 0.86789 0.67592 0.0
H2104 H 0.22797 0.85738 0.66359 0.0
H2105 H 0.24983 0.88005 0.63968 0.0
H2106 H 0.27999 0.84472 0.59859 0.0
H2107 H 0.26549 0.85664 0.60907 0.0
H2108 H 0.24477 0.83712 0.63434 0.0
C2109 C 0.22546 0.86619 0.66105 0.0
C2110 C 0.24848 0.87073 0.63841 0.0
C2111 C 0.21757 0.87226 0.66819 0.0
C2112 C 0.27716 0.84195 0.60723 0.0
C2113 C 0.2689 0.8488 0.61324 0.0
C2114 C 0.24593 0.8465 0.63544 0.0
C2115 C 0.23025 0.8715 0.65098 0.0
C2116 C 0.2388 0.86498 0.64352 0.0
C2117 C 0.26484 0.84534 0.62436 0.0
C2118 C 0.2557 0.85222 0.63057 0.0
H2119 H 0.21678 0.89815 0.65317 0.0
H2120 H 0.23031 0.88742 0.6405 0.0
H2121 H 0.23006 0.84811 0.64529 0.0
H2122 H 0.281 0.82048 0.62779 0.0
H2123 H 0.26651 0.83233 0.63813 0.0
C2124 C 0.123 0.21321 0.65971 0.0
C2125 C 0.11089 0.21399 0.66197 0.0
C2126 C 0.12852 0.22136 0.6524 0.0
C2127 C 0.12606 0.25161 0.64228 0.0
H2128 H 0.14916 0.24221 0.61908 0.0
C2129 C 0.16119 0.28284 0.62318 0.0
C2130 C 0.16348 0.28217 0.61106 0.0
C2131 C 0.15357 0.27486 0.62854 0.0
C2132 C 0.14265 0.24496 0.62545 0.0
H2133 H 0.09504 0.22386 0.65813 0.0
H2134 H 0.10475 0.23819 0.64545 0.0
H2135 H 0.13811 0.22722 0.62976 0.0
H2136 H 0.1593 0.27272 0.59503 0.0
H2137 H 0.1461 0.25871 0.60446 0.0
H2138 H 0.1308 0.26936 0.63815 0.0
C2139 C 0.10994 0.23124 0.64936 0.0
C2140 C 0.1364 0.23639 0.63162 0.0
C2141 C 0.10438 0.223 0.65657 0.0
C2142 C 0.15775 0.27349 0.60439 0.0
C2143 C 0.15023 0.26543 0.60978 0.0
C2144 C 0.13242 0.26018 0.63622 0.0
C2145 C 0.12207 0.23055 0.64728 0.0
C2146 C 0.12813 0.23963 0.64017 0.0
C2147 C 0.14816 0.26596 0.62193 0.0
C2148 C 0.14085 0.25694 0.62781 0.0
H2149 H 0.12826 0.20636 0.66369 0.0
H2150 H 0.1379 0.22068 0.65101 0.0
H2151 H 0.11979 0.25435 0.64889 0.0
H2152 H 0.16541 0.28945 0.62857 0.0
H2153 H 0.1522 0.27543 0.63794 0.0
C2154 C 0.77653 0.10636 0.65412 0.0
C2155 C 0.78102 0.11182 0.66425 0.0
C2156 C 0.76804 0.112 0.64724 0.0
C2157 C 0.74449 0.13351 0.64934 0.0
H2158 H 0.74835 0.13804 0.61582 0.0
C2159 C 0.71563 0.16595 0.62379 0.0
C2160 C 0.7126 0.16348 0.61209 0.0
C2161 C 0.72355 0.15882 0.62984 0.0
C2162 C 0.747 0.13667 0.62513 0.0
H2163 H 0.78014 0.1275 0.67506 0.0
H2164 H 0.76522 0.13719 0.66318 0.0
H2165 H 0.76309 0.12698 0.62683 0.0
H2166 H 0.71536 0.15138 0.59764 0.0
H2167 H 0.72892 0.1387 0.60833 0.0
H2168 H 0.72838 0.14296 0.64775 0.0
C2169 C 0.76831 0.12858 0.66055 0.0
C2170 C 0.75548 0.13038 0.63142 0.0
C2171 C 0.77691 0.12305 0.6673 0.0
C2172 C 0.71756 0.15357 0.60663 0.0
C2173 C 0.72539 0.14634 0.61274 0.0
C2174 C 0.73594 0.13964 0.64305 0.0
C2175 C 0.76374 0.12309 0.6505 0.0
C2176 C 0.7544 0.12894 0.64362 0.0
C2177 C 0.72855 0.14891 0.62442 0.0
C2178 C 0.73719 0.14152 0.63089 0.0
H2179 H 0.77955 0.09772 0.65152 0.0
H2180 H 0.76463 0.10759 0.63953 0.0
H2181 H 0.74336 0.13236 0.65872 0.0
H2182 H 0.71209 0.17357 0.62825 0.0
H2183 H 0.72593 0.16126 0.63871 0.0
C2184 C 0.87235 0.21584 0.33037 0.0
C2185 C 0.88396 0.21263 0.3331 0.0
C2186 C 0.86649 0.22428 0.33704 0.0
C2187 C 0.86518 0.23843 0.36567 0.0
H2188 H 0.85028 0.2639 0.34867 0.0
C2189 C 0.84211 0.27689 0.38967 0.0
C2190 C 0.8317 0.2812 0.38463 0.0
C2191 C 0.84916 0.26889 0.38357 0.0
C2192 C 0.85424 0.25678 0.35357 0.0
H2193 H 0.89836 0.21551 0.34524 0.0
H2194 H 0.88795 0.23015 0.35706 0.0
H2195 H 0.86103 0.24887 0.33793 0.0
H2196 H 0.82049 0.28039 0.36924 0.0
H2197 H 0.83251 0.26625 0.3588 0.0
H2198 H 0.85809 0.24608 0.3813 0.0
C2199 C 0.88349 0.22616 0.34967 0.0
C2200 C 0.86045 0.24821 0.3474 0.0
C2201 C 0.88944 0.21782 0.34288 0.0
C2202 C 0.82851 0.27735 0.37335 0.0
C2203 C 0.83547 0.26926 0.36732 0.0
C2204 C 0.85883 0.24694 0.37186 0.0
C2205 C 0.87203 0.22959 0.34668 0.0
C2206 C 0.86588 0.2389 0.35337 0.0
C2207 C 0.8459 0.26492 0.37233 0.0
C2208 C 0.85318 0.25617 0.36587 0.0
H2209 H 0.86786 0.21205 0.32289 0.0
H2210 H 0.8576 0.22669 0.33463 0.0
H2211 H 0.86926 0.2313 0.37047 0.0
H2212 H 0.84486 0.27974 0.39832 0.0
H2213 H 0.85721 0.26589 0.38764 0.0
C2214 C 0.77781 0.8733 0.32806 0.0
C2215 C 0.78127 0.88481 0.33088 0.0
C2216 C 0.76985 0.86726 0.33514 0.0
C2217 C 0.74708 0.87175 0.35801 0.0
H2218 H 0.75036 0.83802 0.36146 0.0
C2219 C 0.71824 0.84258 0.38875 0.0
C2220 C 0.7136 0.83245 0.38341 0.0
C2221 C 0.72651 0.8495 0.38286 0.0
C2222 C 0.74932 0.84744 0.36053 0.0
H2223 H 0.77918 0.89892 0.3435 0.0
H2224 H 0.76551 0.88822 0.35608 0.0
H2225 H 0.76518 0.84902 0.35066 0.0
H2226 H 0.71394 0.82174 0.36764 0.0
H2227 H 0.72847 0.83371 0.35749 0.0
H2228 H 0.73127 0.87005 0.36813 0.0
C2229 C 0.76876 0.88397 0.34822 0.0
C2230 C 0.75777 0.85375 0.3543 0.0
C2231 C 0.77665 0.89008 0.34105 0.0
C2232 C 0.71731 0.82948 0.37201 0.0
C2233 C 0.72569 0.83629 0.36622 0.0
C2234 C 0.73869 0.86543 0.3644 0.0
C2235 C 0.76523 0.87248 0.34534 0.0
C2236 C 0.75666 0.86595 0.35276 0.0
C2237 C 0.73044 0.84631 0.37161 0.0
C2238 C 0.73964 0.85319 0.36553 0.0
H2239 H 0.78109 0.869 0.32024 0.0
H2240 H 0.76716 0.85854 0.33247 0.0
H2241 H 0.74585 0.88111 0.35691 0.0
H2242 H 0.71553 0.84513 0.39751 0.0
H2243 H 0.73007 0.85718 0.3872 0.0
C2244 C 0.1576 0.723 0.39134 0.0
C2245 C 0.16378 0.71439 0.38501 0.0
C2246 C 0.15057 0.73121 0.38549 0.0
C2247 C 0.13219 0.74461 0.37138 0.0
H2248 H 0.14442 0.7567 0.342 0.0
C2249 C 0.10548 0.77522 0.34067 0.0
C2250 C 0.11164 0.78399 0.33452 0.0
C2251 C 0.11151 0.76694 0.34745 0.0
C2252 C 0.14092 0.75353 0.35025 0.0
H2253 H 0.16693 0.70729 0.36761 0.0
H2254 H 0.15451 0.72139 0.35747 0.0
H2255 H 0.1553 0.74172 0.35254 0.0
H2256 H 0.12894 0.79125 0.33116 0.0
H2257 H 0.13939 0.77701 0.34316 0.0
H2258 H 0.11797 0.75673 0.36921 0.0
C2259 C 0.15534 0.72203 0.36693 0.0
C2260 C 0.14708 0.74478 0.35622 0.0
C2261 C 0.16242 0.7139 0.37275 0.0
C2262 C 0.12392 0.78454 0.33566 0.0
C2263 C 0.12993 0.77632 0.34249 0.0
C2264 C 0.12604 0.75343 0.36542 0.0
C2265 C 0.14952 0.73094 0.37319 0.0
C2266 C 0.14279 0.74018 0.36684 0.0
C2267 C 0.12383 0.76728 0.34829 0.0
C2268 C 0.13035 0.758 0.35479 0.0
H2269 H 0.15846 0.72365 0.40079 0.0
H2270 H 0.1463 0.738 0.39059 0.0
H2271 H 0.12858 0.7412 0.37949 0.0
H2272 H 0.09602 0.77452 0.33997 0.0
H2273 H 0.10654 0.76005 0.35171 0.0
C2274 C 0.22243 0.10596 0.33975 0.0
C2275 C 0.21379 0.11216 0.33347 0.0
C2276 C 0.23074 0.11194 0.34652 0.0
C2277 C 0.24449 0.14123 0.34926 0.0
H2278 H 0.25637 0.12886 0.37867 0.0
C2279 C 0.27471 0.15762 0.39069 0.0
C2280 C 0.28347 0.16372 0.38449 0.0
C2281 C 0.2665 0.15071 0.38473 0.0
C2282 C 0.2531 0.13248 0.37051 0.0
H2283 H 0.2068 0.12952 0.32985 0.0
H2284 H 0.22109 0.13991 0.34186 0.0
H2285 H 0.24083 0.1184 0.36828 0.0
H2286 H 0.29081 0.16686 0.36718 0.0
H2287 H 0.27669 0.15461 0.35684 0.0
H2288 H 0.25645 0.15548 0.35161 0.0
C2289 C 0.22166 0.13043 0.3413 0.0
C2290 C 0.24427 0.12641 0.36449 0.0
C2291 C 0.21341 0.12446 0.33446 0.0
C2292 C 0.2841 0.1624 0.37223 0.0
C2293 C 0.27594 0.15543 0.36629 0.0
C2294 C 0.25326 0.14731 0.35529 0.0
C2295 C 0.23056 0.12427 0.34724 0.0
C2296 C 0.23985 0.13072 0.35379 0.0
C2297 C 0.26691 0.14967 0.37243 0.0
C2298 C 0.25769 0.14301 0.36598 0.0
H2299 H 0.22301 0.09648 0.33916 0.0
H2300 H 0.23753 0.10692 0.35089 0.0
H2301 H 0.24144 0.14472 0.34095 0.0
H2302 H 0.27395 0.15846 0.40014 0.0
H2303 H 0.2596 0.1465 0.38974 0.0
C2304 C 0.66742 0.87374 0.78015 0.0
C2305 C 0.66458 0.88529 0.78343 0.0
C2306 C 0.66036 0.86757 0.77226 0.0
C2307 C 0.63764 0.87178 0.7493 0.0
H2308 H 0.63407 0.83811 0.75299 0.0
C2309 C 0.6071 0.84255 0.72041 0.0
C2310 C 0.61237 0.83229 0.71599 0.0
C2311 C 0.61293 0.84948 0.72871 0.0
C2312 C 0.63503 0.84751 0.75183 0.0
H2313 H 0.65192 0.89934 0.78112 0.0
H2314 H 0.6394 0.88844 0.76758 0.0
H2315 H 0.64482 0.84926 0.76773 0.0
H2316 H 0.62798 0.82135 0.71677 0.0
H2317 H 0.63803 0.83337 0.73133 0.0
H2318 H 0.62763 0.86993 0.73344 0.0
C2319 C 0.64725 0.88424 0.77091 0.0
C2320 C 0.64123 0.8539 0.76025 0.0
C2321 C 0.6544 0.89047 0.77873 0.0
C2322 C 0.62365 0.8292 0.71996 0.0
C2323 C 0.62939 0.83603 0.72836 0.0
C2324 C 0.63129 0.86538 0.74095 0.0
C2325 C 0.65017 0.87272 0.76754 0.0
C2326 C 0.64281 0.86609 0.75899 0.0
C2327 C 0.62406 0.84619 0.73287 0.0
C2328 C 0.63011 0.85315 0.74204 0.0
H2329 H 0.67524 0.86949 0.7835 0.0
H2330 H 0.66304 0.85881 0.7697 0.0
H2331 H 0.63877 0.88112 0.74797 0.0
H2332 H 0.59844 0.84519 0.7175 0.0
H2333 H 0.60863 0.85727 0.73208 0.0
C2334 C 0.15432 0.60625 0.72107 0.0
C2335 C 0.16482 0.61122 0.71686 0.0
C2336 C 0.14739 0.61229 0.72924 0.0
C2337 C 0.14955 0.63435 0.75239 0.0
H2338 H 0.11618 0.63922 0.74778 0.0
C2339 C 0.12399 0.66782 0.77994 0.0
C2340 C 0.1123 0.66541 0.78309 0.0
C2341 C 0.13001 0.66051 0.77218 0.0
C2342 C 0.12544 0.63777 0.74932 0.0
H2343 H 0.17621 0.62648 0.71789 0.0
H2344 H 0.16422 0.63687 0.73222 0.0
H2345 H 0.12731 0.62763 0.73354 0.0
H2346 H 0.09782 0.65329 0.78062 0.0
H2347 H 0.10845 0.64031 0.76727 0.0
H2348 H 0.14779 0.64428 0.7682 0.0
C2349 C 0.16136 0.62832 0.72919 0.0
C2350 C 0.13181 0.63117 0.74113 0.0
C2351 C 0.16818 0.62239 0.72093 0.0
C2352 C 0.1068 0.65543 0.77834 0.0
C2353 C 0.11288 0.64802 0.77063 0.0
C2354 C 0.14319 0.64081 0.76063 0.0
C2355 C 0.15094 0.62332 0.73348 0.0
C2356 C 0.14397 0.62959 0.7425 0.0
C2357 C 0.12457 0.65049 0.76744 0.0
C2358 C 0.13109 0.64281 0.7591 0.0
H2359 H 0.15146 0.59769 0.71808 0.0
H2360 H 0.13941 0.60823 0.73244 0.0
H2361 H 0.15888 0.63308 0.75376 0.0
H2362 H 0.12848 0.6755 0.78333 0.0
H2363 H 0.13889 0.66286 0.76974 0.0
C2364 C 0.34004 0.10549 0.77423 0.0
C2365 C 0.33369 0.11184 0.78272 0.0
C2366 C 0.34703 0.11133 0.766 0.0
C2367 C 0.36528 0.12547 0.75252 0.0
H2368 H 0.3527 0.15442 0.73977 0.0
C2369 C 0.39169 0.15584 0.72134 0.0
C2370 C 0.38549 0.16173 0.71243 0.0
C2371 C 0.38571 0.14916 0.72975 0.0
C2372 C 0.35629 0.14628 0.74313 0.0
H2373 H 0.3302 0.12928 0.78955 0.0
H2374 H 0.34258 0.13942 0.77538 0.0
H2375 H 0.34191 0.14404 0.75495 0.0
H2376 H 0.36818 0.16472 0.70503 0.0
H2377 H 0.35782 0.15289 0.71949 0.0
H2378 H 0.3795 0.12757 0.7404 0.0
C2379 C 0.3419 0.12994 0.77488 0.0
C2380 C 0.35019 0.14042 0.75199 0.0
C2381 C 0.33486 0.12412 0.78305 0.0
C2382 C 0.37323 0.16042 0.71185 0.0
C2383 C 0.36727 0.15369 0.7202 0.0
C2384 C 0.37137 0.13132 0.7436 0.0
C2385 C 0.34789 0.12365 0.7661 0.0
C2386 C 0.3546 0.12995 0.75682 0.0
C2387 C 0.37341 0.14817 0.72938 0.0
C2388 C 0.36694 0.1418 0.73878 0.0
H2389 H 0.33933 0.09602 0.77369 0.0
H2390 H 0.35142 0.1062 0.75931 0.0
H2391 H 0.36898 0.11748 0.7561 0.0
H2392 H 0.40113 0.15667 0.72208 0.0
H2393 H 0.39071 0.14512 0.73675 0.0
C2394 C 0.89067 0.34033 0.77524 0.0
C2395 C 0.88453 0.33415 0.784 0.0
C2396 C 0.88463 0.3471 0.76696 0.0
C2397 C 0.87003 0.36503 0.75347 0.0
H2398 H 0.84102 0.35188 0.74144 0.0
C2399 C 0.83859 0.39056 0.72255 0.0
C2400 C 0.83272 0.38414 0.71379 0.0
C2401 C 0.84551 0.38482 0.73092 0.0
C2402 C 0.84916 0.35564 0.74461 0.0
H2403 H 0.86724 0.3307 0.79122 0.0
H2404 H 0.85675 0.34266 0.77696 0.0
H2405 H 0.85184 0.34144 0.75656 0.0
H2406 H 0.83001 0.36668 0.70663 0.0
H2407 H 0.84223 0.35674 0.72104 0.0
H2408 H 0.86747 0.37909 0.74123 0.0
C2409 C 0.86622 0.34204 0.7763 0.0
C2410 C 0.85528 0.34973 0.75343 0.0
C2411 C 0.87225 0.33524 0.78453 0.0
C2412 C 0.83428 0.3719 0.71334 0.0
C2413 C 0.84124 0.36618 0.72165 0.0
C2414 C 0.86391 0.37094 0.7446 0.0
C2415 C 0.87231 0.34788 0.76728 0.0
C2416 C 0.86578 0.35435 0.75799 0.0
C2417 C 0.84676 0.37254 0.73068 0.0
C2418 C 0.85341 0.3663 0.74005 0.0
H2419 H 0.90014 0.33968 0.77454 0.0
H2420 H 0.88959 0.35139 0.76008 0.0
H2421 H 0.87804 0.36889 0.75685 0.0
H2422 H 0.83757 0.4 0.72318 0.0
H2423 H 0.84956 0.38998 0.73781 0.0
C2424 C 0.65756 0.10642 0.22295 0.0
C2425 C 0.66331 0.11268 0.21398 0.0
C2426 C 0.65076 0.11233 0.2313 0.0
C2427 C 0.64719 0.14179 0.24442 0.0
H2428 H 0.6186 0.1286 0.25737 0.0
C2429 C 0.60603 0.1573 0.27543 0.0
C2430 C 0.61224 0.16369 0.28399 0.0
C2431 C 0.61201 0.15049 0.26716 0.0
C2432 C 0.62653 0.13244 0.25379 0.0
H2433 H 0.66592 0.12999 0.20643 0.0
H2434 H 0.65387 0.1402 0.2208 0.0
H2435 H 0.62897 0.11817 0.24179 0.0
H2436 H 0.62961 0.16747 0.29086 0.0
H2437 H 0.64 0.15541 0.27661 0.0
H2438 H 0.64461 0.1562 0.25613 0.0
C2439 C 0.65488 0.13078 0.22159 0.0
C2440 C 0.63254 0.1264 0.24494 0.0
C2441 C 0.66174 0.1249 0.2133 0.0
C2442 C 0.62454 0.16277 0.28432 0.0
C2443 C 0.63051 0.15591 0.2761 0.0
C2444 C 0.64117 0.14783 0.25321 0.0
C2445 C 0.64949 0.1246 0.23082 0.0
C2446 C 0.64294 0.13101 0.24014 0.0
C2447 C 0.62434 0.14984 0.26729 0.0
C2448 C 0.63078 0.14324 0.25803 0.0
H2449 H 0.6586 0.097 0.22375 0.0
H2450 H 0.64681 0.1073 0.23834 0.0
H2451 H 0.65526 0.14552 0.24106 0.0
H2452 H 0.59655 0.15782 0.27488 0.0
H2453 H 0.60698 0.14602 0.26043 0.0
C2454 C 0.89026 0.65421 0.21953 0.0
C2455 C 0.88496 0.66427 0.21471 0.0
C2456 C 0.88407 0.64702 0.22735 0.0
C2457 C 0.85368 0.64064 0.23765 0.0
H2458 H 0.86948 0.62713 0.26463 0.0
C2459 C 0.82866 0.623 0.27767 0.0
C2460 C 0.83167 0.6117 0.28162 0.0
C2461 C 0.83558 0.62876 0.26936 0.0
C2462 C 0.865 0.63077 0.25707 0.0
H2463 H 0.86904 0.67475 0.21451 0.0
H2464 H 0.85844 0.66251 0.22832 0.0
H2465 H 0.88077 0.63841 0.25026 0.0
H2466 H 0.84453 0.59772 0.28015 0.0
H2467 H 0.85679 0.60795 0.26573 0.0
H2468 H 0.83786 0.63333 0.2447 0.0
C2469 C 0.86724 0.65992 0.22583 0.0
C2470 C 0.87145 0.63719 0.24881 0.0
C2471 C 0.87337 0.667 0.21794 0.0
C2472 C 0.84195 0.6064 0.27726 0.0
C2473 C 0.84898 0.61225 0.26905 0.0
C2474 C 0.84723 0.63437 0.24597 0.0
C2475 C 0.87247 0.6498 0.23062 0.0
C2476 C 0.86583 0.64234 0.23906 0.0
C2477 C 0.84576 0.62342 0.26491 0.0
C2478 C 0.8528 0.62949 0.25582 0.0
H2479 H 0.89916 0.65182 0.21719 0.0
H2480 H 0.88833 0.63923 0.23075 0.0
H2481 H 0.84909 0.6442 0.23012 0.0
H2482 H 0.8208 0.62735 0.28081 0.0
H2483 H 0.83297 0.63742 0.26641 0.0
C2484 C 0.34153 0.88626 0.21473 0.0
C2485 C 0.32933 0.88465 0.21434 0.0
C2486 C 0.34839 0.8798 0.22262 0.0
C2487 C 0.34665 0.85374 0.24284 0.0
H2488 H 0.37622 0.8662 0.25407 0.0
C2489 C 0.37677 0.82544 0.27174 0.0
C2490 C 0.38411 0.83092 0.27995 0.0
C2491 C 0.37053 0.83209 0.26356 0.0
C2492 C 0.36789 0.86262 0.25122 0.0
H2493 H 0.31462 0.8755 0.22211 0.0
H2494 H 0.32632 0.86492 0.23644 0.0
H2495 H 0.3643 0.87784 0.24091 0.0
H2496 H 0.39066 0.84759 0.28624 0.0
H2497 H 0.37912 0.85937 0.27257 0.0
H2498 H 0.3497 0.83899 0.25387 0.0
C2499 C 0.33083 0.87058 0.23029 0.0
C2500 C 0.36112 0.86925 0.2434 0.0
C2501 C 0.32405 0.87674 0.22214 0.0
C2502 C 0.38508 0.84319 0.27992 0.0
C2503 C 0.37852 0.84991 0.27198 0.0
C2504 C 0.35322 0.8473 0.25092 0.0
C2505 C 0.34314 0.87186 0.23057 0.0
C2506 C 0.3504 0.86489 0.23902 0.0
C2507 C 0.37114 0.84446 0.26364 0.0
C2508 C 0.36402 0.85155 0.25517 0.0
H2509 H 0.34578 0.89229 0.20873 0.0
H2510 H 0.35782 0.88092 0.22232 0.0
H2511 H 0.33863 0.84985 0.23955 0.0
H2512 H 0.37604 0.81595 0.2715 0.0
H2513 H 0.36533 0.82745 0.25711 0.0
C2514 C 0.15752 0.39047 0.27317 0.0
C2515 C 0.16373 0.38424 0.28185 0.0
C2516 C 0.15061 0.3845 0.26495 0.0
C2517 C 0.1323 0.37012 0.25174 0.0
H2518 H 0.14481 0.34087 0.23962 0.0
C2519 C 0.10568 0.33889 0.22158 0.0
C2520 C 0.11183 0.33284 0.21273 0.0
C2521 C 0.11171 0.34578 0.22977 0.0
C2522 C 0.14123 0.34909 0.2428 0.0
H2523 H 0.1671 0.3669 0.28899 0.0
H2524 H 0.15489 0.35656 0.27485 0.0
H2525 H 0.15569 0.35162 0.25447 0.0
H2526 H 0.12908 0.32978 0.20524 0.0
H2527 H 0.13952 0.34195 0.21934 0.0
H2528 H 0.11797 0.3677 0.23979 0.0
C2529 C 0.1556 0.36602 0.27419 0.0
C2530 C 0.1474 0.35517 0.25147 0.0
C2531 C 0.16255 0.37197 0.28235 0.0
C2532 C 0.12408 0.33419 0.21202 0.0
C2533 C 0.13008 0.34113 0.22015 0.0
C2534 C 0.12614 0.36404 0.24302 0.0
C2535 C 0.1497 0.37219 0.26526 0.0
C2536 C 0.143 0.36574 0.25608 0.0
C2537 C 0.124 0.34683 0.22926 0.0
C2538 C 0.13054 0.35345 0.23844 0.0
H2539 H 0.15824 0.39993 0.27251 0.0
H2540 H 0.14628 0.38952 0.25813 0.0
H2541 H 0.12862 0.37819 0.25516 0.0
H2542 H 0.09625 0.33804 0.2224 0.0
H2543 H 0.10676 0.34997 0.23672 0.0
C2544 C 0.77874 0.66744 0.87357 0.0
C2545 C 0.7825 0.66438 0.88493 0.0
C2546 C 0.7703 0.66071 0.86777 0.0
C2547 C 0.75735 0.63154 0.86588 0.0
H2548 H 0.73097 0.64788 0.85188 0.0
C2549 C 0.71966 0.60673 0.8423 0.0
C2550 C 0.71513 0.61194 0.83206 0.0
C2551 C 0.72745 0.6129 0.84953 0.0
C2552 C 0.73834 0.64317 0.8556 0.0
H2553 H 0.78057 0.65163 0.89896 0.0
H2554 H 0.76593 0.63971 0.88866 0.0
H2555 H 0.74568 0.65892 0.86278 0.0
H2556 H 0.71534 0.62772 0.82137 0.0
H2557 H 0.7291 0.63829 0.8337 0.0
H2558 H 0.75027 0.61583 0.85837 0.0
C2559 C 0.76949 0.64741 0.88434 0.0
C2560 C 0.74673 0.64951 0.86189 0.0
C2561 C 0.77782 0.65425 0.89024 0.0
C2562 C 0.71856 0.62346 0.82924 0.0
C2563 C 0.72642 0.62957 0.83638 0.0
C2564 C 0.74902 0.62519 0.85944 0.0
C2565 C 0.76555 0.65067 0.87312 0.0
C2566 C 0.75638 0.64378 0.86698 0.0
C2567 C 0.73097 0.62439 0.84664 0.0
C2568 C 0.73947 0.63096 0.8541 0.0
H2569 H 0.78213 0.67519 0.86922 0.0
H2570 H 0.7675 0.66334 0.85907 0.0
H2571 H 0.76475 0.62692 0.86968 0.0
H2572 H 0.71715 0.59789 0.84477 0.0
H2573 H 0.73064 0.60869 0.85744 0.0
C2574 C 0.7768 0.34158 0.10625 0.0
C2575 C 0.78133 0.33144 0.11166 0.0
C2576 C 0.76835 0.34844 0.11197 0.0
C2577 C 0.745 0.34635 0.13373 0.0
H2578 H 0.74873 0.37995 0.13778 0.0
C2579 C 0.71604 0.37228 0.16581 0.0
C2580 C 0.71295 0.38392 0.16312 0.0
C2581 C 0.72399 0.36615 0.15879 0.0
C2582 C 0.74742 0.37061 0.13655 0.0
H2583 H 0.78058 0.3206 0.12733 0.0
H2584 H 0.76573 0.33247 0.13716 0.0
H2585 H 0.76345 0.36886 0.12679 0.0
H2586 H 0.71564 0.39817 0.15076 0.0
H2587 H 0.72927 0.38733 0.13828 0.0
H2588 H 0.72893 0.348 0.14324 0.0
C2589 C 0.76875 0.33511 0.12853 0.0
C2590 C 0.75589 0.36428 0.1303 0.0
C2591 C 0.7773 0.32837 0.12292 0.0
C2592 C 0.71788 0.38923 0.15312 0.0
C2593 C 0.72576 0.38303 0.146 0.0
C2594 C 0.73646 0.35269 0.13982 0.0
C2595 C 0.76414 0.34517 0.12309 0.0
C2596 C 0.75485 0.35206 0.12901 0.0
C2597 C 0.72897 0.37143 0.14879 0.0
C2598 C 0.73765 0.36487 0.14151 0.0
H2599 H 0.77975 0.34421 0.0976 0.0
H2600 H 0.76491 0.35615 0.10759 0.0
H2601 H 0.74389 0.33696 0.13269 0.0
H2602 H 0.71251 0.36795 0.1735 0.0
H2603 H 0.72643 0.35734 0.16139 0.0
C2604 C 0.65905 0.77315 0.10632 0.0
C2605 C 0.66517 0.78196 0.11244 0.0
C2606 C 0.65216 0.76497 0.11237 0.0
C2607 C 0.64854 0.75209 0.142 0.0
H2608 H 0.61939 0.74006 0.12915 0.0
C2609 C 0.60635 0.72258 0.15794 0.0
C2610 C 0.6123 0.71393 0.16446 0.0
C2611 C 0.61259 0.73061 0.15106 0.0
C2612 C 0.62747 0.74339 0.13291 0.0
H2613 H 0.66842 0.78937 0.12969 0.0
H2614 H 0.65622 0.77533 0.14018 0.0
H2615 H 0.63022 0.75516 0.11851 0.0
H2616 H 0.62946 0.70666 0.16841 0.0
H2617 H 0.64028 0.72045 0.15622 0.0
H2618 H 0.64564 0.74064 0.15657 0.0
C2619 C 0.657 0.77451 0.13073 0.0
C2620 C 0.63375 0.75196 0.12673 0.0
C2621 C 0.66395 0.78262 0.1247 0.0
C2622 C 0.6246 0.71328 0.16362 0.0
C2623 C 0.63082 0.72125 0.15668 0.0
C2624 C 0.64224 0.74359 0.14819 0.0
C2625 C 0.65116 0.76547 0.12467 0.0
C2626 C 0.64436 0.75642 0.13121 0.0
C2627 C 0.62492 0.73014 0.15046 0.0
C2628 C 0.63163 0.73911 0.14372 0.0
H2629 H 0.65982 0.77236 0.09687 0.0
H2630 H 0.64789 0.75807 0.10742 0.0
H2631 H 0.65676 0.75518 0.14564 0.0
H2632 H 0.59688 0.72336 0.1584 0.0
H2633 H 0.60775 0.73741 0.14649 0.0
C2634 C 0.27679 0.60649 0.15642 0.0
C2635 C 0.28114 0.61146 0.16687 0.0
C2636 C 0.26863 0.61259 0.14954 0.0
C2637 C 0.24582 0.63505 0.15164 0.0
H2638 H 0.25018 0.63908 0.11811 0.0
C2639 C 0.21806 0.66785 0.1252 0.0
C2640 C 0.21495 0.66508 0.11358 0.0
C2641 C 0.22582 0.66073 0.13146 0.0
C2642 C 0.2487 0.63787 0.12743 0.0
H2643 H 0.28036 0.62677 0.17821 0.0
H2644 H 0.26605 0.63728 0.16627 0.0
H2645 H 0.26439 0.62763 0.12938 0.0
H2646 H 0.21741 0.65248 0.09951 0.0
H2647 H 0.23072 0.63985 0.11055 0.0
H2648 H 0.23008 0.64508 0.14977 0.0
C2649 C 0.26896 0.62868 0.16343 0.0
C2650 C 0.25688 0.63135 0.13387 0.0
C2651 C 0.27721 0.62268 0.17022 0.0
C2652 C 0.21968 0.65491 0.10842 0.0
C2653 C 0.22737 0.6477 0.11474 0.0
C2654 C 0.23758 0.64144 0.14519 0.0
C2655 C 0.26454 0.62368 0.15306 0.0
C2656 C 0.2556 0.63003 0.14607 0.0
C2657 C 0.23058 0.65055 0.12633 0.0
C2658 C 0.239 0.6431 0.13303 0.0
H2659 H 0.27966 0.59789 0.15357 0.0
H2660 H 0.26533 0.60853 0.1416 0.0
H2661 H 0.24451 0.634 0.161 0.0
H2662 H 0.21468 0.67567 0.12943 0.0
H2663 H 0.22826 0.66335 0.14027 0.0
C2664 C 0.33805 0.22301 0.10563 0.0
C2665 C 0.33168 0.21443 0.11182 0.0
C2666 C 0.34496 0.2312 0.11163 0.0
C2667 C 0.36334 0.24419 0.12601 0.0
H2668 H 0.35111 0.25647 0.15531 0.0
C2669 C 0.39063 0.27395 0.15695 0.0
C2670 C 0.3847 0.28286 0.16311 0.0
C2671 C 0.3844 0.26583 0.15016 0.0
C2672 C 0.35461 0.25325 0.14708 0.0
H2673 H 0.32798 0.20745 0.12916 0.0
H2674 H 0.34021 0.22152 0.13957 0.0
H2675 H 0.33994 0.24183 0.14456 0.0
H2676 H 0.36759 0.29053 0.16651 0.0
H2677 H 0.35678 0.27658 0.15448 0.0
H2678 H 0.37785 0.25591 0.12839 0.0
C2679 C 0.33963 0.22214 0.1301 0.0
C2680 C 0.34828 0.24469 0.141 0.0
C2681 C 0.33266 0.21402 0.12412 0.0
C2682 C 0.37244 0.2837 0.162 0.0
C2683 C 0.36622 0.27565 0.15515 0.0
C2684 C 0.36965 0.25281 0.13208 0.0
C2685 C 0.34573 0.23095 0.12395 0.0
C2686 C 0.35257 0.24002 0.13041 0.0
C2687 C 0.37209 0.26649 0.14931 0.0
C2688 C 0.36536 0.25745 0.14269 0.0
H2689 H 0.33747 0.22361 0.09615 0.0
H2690 H 0.34943 0.23792 0.10661 0.0
H2691 H 0.36696 0.24072 0.11794 0.0
H2692 H 0.40007 0.27302 0.15763 0.0
H2693 H 0.3892 0.25883 0.14589 0.0
C2694 C 0.27718 0.37362 0.8279 0.0
C2695 C 0.28103 0.38487 0.83124 0.0
C2696 C 0.26886 0.36763 0.83462 0.0
C2697 C 0.25644 0.36506 0.86402 0.0
H2698 H 0.22977 0.35135 0.84789 0.0
C2699 C 0.21895 0.34171 0.88919 0.0
C2700 C 0.21421 0.33155 0.88402 0.0
C2701 C 0.22672 0.34887 0.88292 0.0
C2702 C 0.23723 0.35498 0.85253 0.0
H2703 H 0.27935 0.39852 0.84443 0.0
H2704 H 0.2649 0.3879 0.85629 0.0
H2705 H 0.24435 0.36236 0.83677 0.0
H2706 H 0.21398 0.32093 0.8682 0.0
H2707 H 0.22771 0.33315 0.85743 0.0
H2708 H 0.24957 0.35739 0.87973 0.0
C2709 C 0.26831 0.3838 0.84841 0.0
C2710 C 0.24555 0.36133 0.84615 0.0
C2711 C 0.27654 0.38988 0.8416 0.0
C2712 C 0.21738 0.32874 0.87243 0.0
C2713 C 0.22522 0.33581 0.86621 0.0
C2714 C 0.24819 0.35858 0.8704 0.0
C2715 C 0.2643 0.37268 0.8449 0.0
C2716 C 0.25528 0.36635 0.85181 0.0
C2717 C 0.23001 0.34597 0.87136 0.0
C2718 C 0.23852 0.35336 0.86472 0.0
H2719 H 0.28044 0.36949 0.81997 0.0
H2720 H 0.26601 0.35901 0.83179 0.0
H2721 H 0.26391 0.36878 0.86858 0.0
H2722 H 0.21664 0.34416 0.89808 0.0
H2723 H 0.23007 0.35671 0.88711 0.0
C2724 C 0.65746 0.22374 0.89137 0.0
C2725 C 0.66357 0.21507 0.88505 0.0
C2726 C 0.65054 0.23203 0.88552 0.0
C2727 C 0.63223 0.2455 0.87133 0.0
H2728 H 0.64473 0.25773 0.84212 0.0
C2729 C 0.60579 0.27611 0.84038 0.0
C2730 C 0.61199 0.28496 0.83439 0.0
C2731 C 0.61176 0.26783 0.84721 0.0
C2732 C 0.64116 0.25452 0.85033 0.0
H2733 H 0.66671 0.20798 0.86763 0.0
H2734 H 0.65448 0.22225 0.85749 0.0
H2735 H 0.6555 0.24268 0.85269 0.0
H2736 H 0.62929 0.29236 0.83137 0.0
H2737 H 0.63964 0.2781 0.84344 0.0
H2738 H 0.61802 0.25761 0.86907 0.0
C2739 C 0.65528 0.22285 0.86695 0.0
C2740 C 0.64726 0.24573 0.8563 0.0
C2741 C 0.66225 0.21462 0.87278 0.0
C2742 C 0.62424 0.28559 0.83575 0.0
C2743 C 0.63019 0.27736 0.84262 0.0
C2744 C 0.62613 0.25433 0.86535 0.0
C2745 C 0.64952 0.23179 0.87321 0.0
C2746 C 0.64287 0.24108 0.86687 0.0
C2747 C 0.62406 0.26824 0.84825 0.0
C2748 C 0.63054 0.25896 0.85478 0.0
H2749 H 0.65829 0.22436 0.90083 0.0
H2750 H 0.6463 0.23885 0.89061 0.0
H2751 H 0.62856 0.24205 0.8794 0.0
H2752 H 0.59635 0.27534 0.83953 0.0
H2753 H 0.60677 0.26087 0.85135 0.0
C2754 C 0.32987 0.78048 0.8727 0.0
C2755 C 0.33278 0.78365 0.88427 0.0
C2756 C 0.33661 0.77225 0.86661 0.0
C2757 C 0.36554 0.75868 0.86466 0.0
H2758 H 0.34874 0.73315 0.84964 0.0
C2759 C 0.38968 0.72071 0.8408 0.0
C2760 C 0.38453 0.7165 0.8304 0.0
C2761 C 0.38362 0.72862 0.84801 0.0
C2762 C 0.35358 0.74029 0.85364 0.0
H2763 H 0.34531 0.78094 0.89837 0.0
H2764 H 0.35722 0.76666 0.88758 0.0
H2765 H 0.33791 0.74785 0.86074 0.0
H2766 H 0.36902 0.71743 0.81935 0.0
H2767 H 0.35868 0.73138 0.83165 0.0
H2768 H 0.38119 0.75136 0.85727 0.0
C2769 C 0.34965 0.77052 0.88331 0.0
C2770 C 0.34736 0.74868 0.86004 0.0
C2771 C 0.3428 0.77865 0.88949 0.0
C2772 C 0.37322 0.72039 0.82736 0.0
C2773 C 0.36724 0.72836 0.83448 0.0
C2774 C 0.37177 0.75035 0.85811 0.0
C2775 C 0.34649 0.76711 0.87189 0.0
C2776 C 0.35326 0.75801 0.86552 0.0
C2777 C 0.37233 0.73256 0.84492 0.0
C2778 C 0.36585 0.74111 0.85241 0.0
H2779 H 0.32222 0.78414 0.8684 0.0
H2780 H 0.33406 0.76987 0.85776 0.0
H2781 H 0.37028 0.76583 0.86877 0.0
H2782 H 0.39836 0.71785 0.84342 0.0
H2783 H 0.38776 0.73154 0.85605 0.0
C2784 C 0.07677 0.22481 0.28833 0.0
C2785 C 0.08356 0.21473 0.28606 0.0
C2786 C 0.07512 0.23331 0.27957 0.0
C2787 C 0.09012 0.24399 0.25313 0.0
H2788 H 0.06129 0.26078 0.24627 0.0
C2789 C 0.08722 0.27294 0.21272 0.0
C2790 C 0.08285 0.28437 0.21425 0.0
C2791 C 0.08561 0.26444 0.22136 0.0
C2792 C 0.06941 0.25621 0.24818 0.0
H2793 H 0.09312 0.20526 0.27256 0.0
H2794 H 0.0901 0.21988 0.25738 0.0
H2795 H 0.06153 0.24579 0.26181 0.0
H2796 H 0.07266 0.29562 0.22577 0.0
H2797 H 0.06994 0.28067 0.24102 0.0
H2798 H 0.09806 0.25429 0.23965 0.0
C2799 C 0.08635 0.22142 0.26598 0.0
C2800 C 0.06955 0.24766 0.25705 0.0
C2801 C 0.08804 0.21301 0.27469 0.0
C2802 C 0.07617 0.28689 0.22434 0.0
C2803 C 0.07459 0.27834 0.23306 0.0
C2804 C 0.08998 0.25246 0.24432 0.0
C2805 C 0.0802 0.23183 0.2684 0.0
C2806 C 0.07988 0.24133 0.25946 0.0
C2807 C 0.07964 0.26715 0.2318 0.0
C2808 C 0.0796 0.25853 0.24159 0.0
H2809 H 0.07317 0.22637 0.29699 0.0
H2810 H 0.07034 0.24125 0.28168 0.0
H2811 H 0.09831 0.23953 0.255 0.0
H2812 H 0.09223 0.27062 0.20496 0.0
H2813 H 0.08934 0.25579 0.21999 0.0
C2814 C 0.77318 0.07747 0.28753 0.0
C2815 C 0.78305 0.08462 0.28548 0.0
C2816 C 0.76463 0.07599 0.2788 0.0
C2817 C 0.75325 0.09173 0.25305 0.0
H2818 H 0.73703 0.06274 0.24552 0.0
C2819 C 0.72355 0.08934 0.21308 0.0
C2820 C 0.71229 0.08455 0.21466 0.0
C2821 C 0.73225 0.08776 0.22153 0.0
C2822 C 0.74144 0.0709 0.24762 0.0
H2823 H 0.79209 0.09507 0.27234 0.0
H2824 H 0.77738 0.09235 0.25719 0.0
H2825 H 0.75227 0.06282 0.26079 0.0
H2826 H 0.70157 0.07369 0.22607 0.0
H2827 H 0.71685 0.07101 0.24099 0.0
H2828 H 0.74252 0.09986 0.24003 0.0
C2829 C 0.77604 0.08816 0.26562 0.0
C2830 C 0.75014 0.07095 0.25634 0.0
C2831 C 0.78451 0.08968 0.27432 0.0
C2832 C 0.71015 0.07752 0.2246 0.0
C2833 C 0.7189 0.07597 0.23314 0.0
C2834 C 0.74462 0.09167 0.24439 0.0
C2835 C 0.76583 0.0816 0.26786 0.0
C2836 C 0.75626 0.08135 0.259 0.0
C2837 C 0.72991 0.08139 0.23183 0.0
C2838 C 0.73874 0.08124 0.24143 0.0
H2839 H 0.77181 0.07343 0.29603 0.0
H2840 H 0.75685 0.07088 0.28078 0.0
H2841 H 0.75754 0.09996 0.25512 0.0
H2842 H 0.72559 0.09462 0.20543 0.0
H2843 H 0.74075 0.0918 0.22013 0.0
C2844 C 0.92217 0.70892 0.22437 0.0
C2845 C 0.91658 0.71147 0.21365 0.0
C2846 C 0.92426 0.71786 0.23257 0.0
C2847 C 0.91158 0.74634 0.2406 0.0
H2848 H 0.93819 0.74933 0.26164 0.0
C2849 C 0.91367 0.78471 0.27229 0.0
C2850 C 0.91621 0.78203 0.28405 0.0
C2851 C 0.91597 0.77661 0.26342 0.0
C2852 C 0.93069 0.74855 0.25585 0.0
H2853 H 0.90985 0.7255 0.20266 0.0
H2854 H 0.91374 0.74103 0.21676 0.0
H2855 H 0.93826 0.73407 0.24641 0.0
H2856 H 0.92389 0.76904 0.29567 0.0
H2857 H 0.92769 0.75468 0.28011 0.0
H2858 H 0.90387 0.76055 0.25002 0.0
C2859 C 0.91614 0.73211 0.21904 0.0
C2860 C 0.93073 0.73983 0.24714 0.0
C2861 C 0.91395 0.72321 0.21094 0.0
C2862 C 0.92182 0.77134 0.28667 0.0
C2863 C 0.92402 0.76314 0.27776 0.0
C2864 C 0.91155 0.75499 0.24923 0.0
C2865 C 0.92088 0.72949 0.23013 0.0
C2866 C 0.92119 0.73871 0.23937 0.0
C2867 C 0.92072 0.76554 0.2661 0.0
C2868 C 0.92111 0.75628 0.25691 0.0
H2869 H 0.92431 0.69995 0.22669 0.0
H2870 H 0.92791 0.71556 0.24104 0.0
H2871 H 0.90393 0.74551 0.23501 0.0
H2872 H 0.90955 0.79296 0.26995 0.0
H2873 H 0.91363 0.77886 0.25448 0.0
C2874 C 0.22433 0.9206 0.28724 0.0
C2875 C 0.21398 0.91427 0.28486 0.0
C2876 C 0.23259 0.9226 0.27833 0.0
C2877 C 0.24174 0.90939 0.25029 0.0
H2878 H 0.26074 0.93739 0.24645 0.0
C2879 C 0.27193 0.91361 0.21094 0.0
C2880 C 0.28368 0.91655 0.21333 0.0
C2881 C 0.26324 0.91538 0.21935 0.0
C2882 C 0.25552 0.92951 0.24748 0.0
H2883 H 0.20376 0.90595 0.2711 0.0
H2884 H 0.21792 0.9097 0.25562 0.0
H2885 H 0.24567 0.93672 0.26186 0.0
H2886 H 0.29535 0.92447 0.22612 0.0
H2887 H 0.28006 0.92745 0.24098 0.0
H2888 H 0.2515 0.90212 0.23605 0.0
C2889 C 0.2199 0.91276 0.26441 0.0
C2890 C 0.24691 0.92911 0.25629 0.0
C2891 C 0.21174 0.91065 0.27328 0.0
C2892 C 0.28638 0.92209 0.22403 0.0
C2893 C 0.27763 0.92381 0.23253 0.0
C2894 C 0.25024 0.90981 0.24152 0.0
C2895 C 0.23059 0.9184 0.26689 0.0
C2896 C 0.23985 0.91906 0.2577 0.0
C2897 C 0.26606 0.92006 0.23041 0.0
C2898 C 0.25715 0.91989 0.23992 0.0
H2899 H 0.22629 0.92351 0.29607 0.0
H2900 H 0.24075 0.92696 0.28054 0.0
H2901 H 0.23674 0.90137 0.25134 0.0
H2902 H 0.2695 0.90953 0.20269 0.0
H2903 H 0.25434 0.91267 0.21735 0.0
C2904 C 0.0732 0.70977 0.77329 0.0
C2905 C 0.081 0.71262 0.78244 0.0
C2906 C 0.07014 0.71819 0.76487 0.0
C2907 C 0.07079 0.75023 0.75871 0.0
H2908 H 0.07538 0.74074 0.72633 0.0
C2909 C 0.08575 0.78205 0.72296 0.0
C2910 C 0.08146 0.78089 0.71145 0.0
C2911 C 0.08258 0.77402 0.73165 0.0
C2912 C 0.0738 0.7435 0.7353 0.0
H2913 H 0.09119 0.72673 0.79024 0.0
H2914 H 0.08589 0.74129 0.77563 0.0
H2915 H 0.07522 0.72592 0.7418 0.0
H2916 H 0.07014 0.77055 0.70013 0.0
H2917 H 0.06465 0.75641 0.71538 0.0
H2918 H 0.06987 0.76786 0.75226 0.0
C2919 C 0.08209 0.73259 0.77494 0.0
C2920 C 0.07371 0.73501 0.74417 0.0
C2921 C 0.08522 0.72419 0.78328 0.0
C2922 C 0.07362 0.77168 0.70891 0.0
C2923 C 0.07051 0.76356 0.71762 0.0
C2924 C 0.07089 0.75871 0.74986 0.0
C2925 C 0.07469 0.72965 0.76552 0.0
C2926 C 0.07261 0.73833 0.75601 0.0
C2927 C 0.07507 0.76459 0.72905 0.0
C2928 C 0.07281 0.75548 0.7381 0.0
H2929 H 0.06977 0.70095 0.7724 0.0
H2930 H 0.06435 0.7157 0.75774 0.0
H2931 H 0.0697 0.75304 0.76773 0.0
H2932 H 0.09175 0.78906 0.72527 0.0
H2933 H 0.08638 0.77498 0.74032 0.0
C2934 C 0.28792 0.07428 0.77135 0.0
C2935 C 0.28538 0.08226 0.78044 0.0
C2936 C 0.27934 0.07136 0.76303 0.0
C2937 C 0.24725 0.07238 0.75756 0.0
H2938 H 0.25592 0.0758 0.72481 0.0
C2939 C 0.21441 0.08587 0.72214 0.0
C2940 C 0.21533 0.08122 0.71074 0.0
C2941 C 0.22268 0.08306 0.73072 0.0
C2942 C 0.25338 0.07455 0.73389 0.0
H2943 H 0.27168 0.09307 0.78813 0.0
H2944 H 0.25685 0.08801 0.7737 0.0
H2945 H 0.27114 0.07611 0.7399 0.0
H2946 H 0.22548 0.06962 0.69955 0.0
H2947 H 0.24003 0.06473 0.71462 0.0
H2948 H 0.22947 0.07126 0.75161 0.0
C2949 C 0.26542 0.08395 0.77301 0.0
C2950 C 0.26211 0.07473 0.74254 0.0
C2951 C 0.27398 0.08694 0.78123 0.0
C2952 C 0.22452 0.07336 0.70824 0.0
C2953 C 0.23289 0.07061 0.71684 0.0
C2954 C 0.23855 0.07218 0.74893 0.0
C2955 C 0.26802 0.07626 0.76373 0.0
C2956 C 0.25909 0.07404 0.75449 0.0
C2957 C 0.23212 0.07555 0.72814 0.0
C2958 C 0.24147 0.07367 0.73703 0.0
H2959 H 0.29661 0.07051 0.77049 0.0
H2960 H 0.28158 0.06536 0.756 0.0
H2961 H 0.24468 0.07159 0.76668 0.0
H2962 H 0.20742 0.09191 0.72441 0.0
H2963 H 0.22191 0.08715 0.73927 0.0
C2964 C 0.9091 0.27393 0.78496 0.0
C2965 C 0.91331 0.28534 0.78288 0.0
C2966 C 0.91084 0.26505 0.77673 0.0
C2967 C 0.92724 0.25605 0.75018 0.0
H2968 H 0.89894 0.23801 0.7444 0.0
C2969 C 0.92021 0.22395 0.71066 0.0
C2970 C 0.9136 0.21378 0.713 0.0
C2971 C 0.92189 0.23244 0.71942 0.0
C2972 C 0.90698 0.24284 0.746 0.0
H2973 H 0.92328 0.29619 0.77081 0.0
H2974 H 0.92618 0.2806 0.75626 0.0
H2975 H 0.89882 0.25328 0.75922 0.0
H2976 H 0.90447 0.20407 0.72662 0.0
H2977 H 0.90758 0.21867 0.74184 0.0
H2978 H 0.93532 0.24554 0.73674 0.0
C2979 C 0.92158 0.27857 0.76433 0.0
C2980 C 0.90691 0.25161 0.75451 0.0
C2981 C 0.9199 0.28749 0.77265 0.0
C2982 C 0.90941 0.2119 0.72445 0.0
C2983 C 0.91115 0.2203 0.73318 0.0
C2984 C 0.92731 0.24721 0.7416 0.0
C2985 C 0.91676 0.26734 0.76616 0.0
C2986 C 0.91706 0.25823 0.75682 0.0
C2987 C 0.91704 0.23085 0.73067 0.0
C2988 C 0.9172 0.24041 0.73954 0.0
H2989 H 0.90418 0.27189 0.79284 0.0
H2990 H 0.90729 0.25641 0.77854 0.0
H2991 H 0.9352 0.26101 0.75177 0.0
H2992 H 0.92357 0.22564 0.70192 0.0
H2993 H 0.92646 0.24048 0.71722 0.0
C2994 C 0.70782 0.92041 0.77143 0.0
C2995 C 0.71085 0.91769 0.78306 0.0
C2996 C 0.71658 0.92215 0.76299 0.0
C2997 C 0.73679 0.92761 0.74637 0.0
H2998 H 0.76324 0.90665 0.75076 0.0
C2999 C 0.77475 0.92259 0.71221 0.0
C3000 C 0.77914 0.91114 0.71072 0.0
C3001 C 0.76667 0.92504 0.72118 0.0
C3002 C 0.75588 0.91251 0.74932 0.0
H3003 H 0.72526 0.9158 0.7953 0.0
H3004 H 0.74053 0.91956 0.78083 0.0
H3005 H 0.74874 0.90846 0.76608 0.0
H3006 H 0.77805 0.89321 0.71708 0.0
H3007 H 0.76385 0.89736 0.73231 0.0
H3008 H 0.74371 0.93098 0.72917 0.0
C3009 C 0.73145 0.91976 0.77799 0.0
C3010 C 0.74763 0.91374 0.75826 0.0
C3011 C 0.72272 0.91771 0.78633 0.0
C3012 C 0.77503 0.90217 0.71811 0.0
C3013 C 0.76691 0.90458 0.72693 0.0
C3014 C 0.74502 0.92625 0.73731 0.0
C3015 C 0.72854 0.92145 0.76609 0.0
C3016 C 0.73787 0.92118 0.75688 0.0
C3017 C 0.76277 0.91606 0.72874 0.0
C3018 C 0.75454 0.91848 0.7386 0.0
H3019 H 0.69871 0.92039 0.76869 0.0
H3020 H 0.71395 0.92335 0.75393 0.0
H3021 H 0.7295 0.93356 0.74503 0.0
H3022 H 0.77775 0.92969 0.70663 0.0
H3023 H 0.76369 0.93399 0.72235 0.0
C3024 C 0.21444 0.08619 0.27423 0.0
C3025 C 0.21534 0.08184 0.28574 0.0
C3026 C 0.22264 0.08302 0.2657 0.0
C3027 C 0.25317 0.07412 0.26253 0.0
H3028 H 0.24409 0.06922 0.23008 0.0
C3029 C 0.28754 0.07269 0.22512 0.0
C3030 C 0.28476 0.08013 0.21566 0.0
C3031 C 0.27899 0.0698 0.2335 0.0
C3032 C 0.24678 0.07055 0.23911 0.0
H3033 H 0.22544 0.07046 0.29723 0.0
H3034 H 0.23988 0.06501 0.28227 0.0
H3035 H 0.22905 0.0699 0.24531 0.0
H3036 H 0.27066 0.08982 0.20725 0.0
H3037 H 0.25591 0.08486 0.22175 0.0
H3038 H 0.27086 0.07532 0.25627 0.0
C3039 C 0.23279 0.07089 0.27991 0.0
C3040 C 0.23816 0.07093 0.24782 0.0
C3041 C 0.22449 0.07398 0.28844 0.0
C3042 C 0.27314 0.08413 0.21445 0.0
C3043 C 0.26463 0.08119 0.22274 0.0
C3044 C 0.2618 0.07378 0.2538 0.0
C3045 C 0.23199 0.07547 0.26847 0.0
C3046 C 0.24123 0.0731 0.25958 0.0
C3047 C 0.26749 0.07419 0.23249 0.0
C3048 C 0.25866 0.07239 0.24193 0.0
H3049 H 0.20749 0.09221 0.27181 0.0
H3050 H 0.22187 0.08682 0.25701 0.0
H3051 H 0.2558 0.07588 0.2715 0.0
H3052 H 0.2964 0.06945 0.2263 0.0
H3053 H 0.28144 0.0643 0.24087 0.0
C3054 C 0.90857 0.27307 0.2129 0.0
C3055 C 0.91313 0.28443 0.2145 0.0
C3056 C 0.91016 0.26446 0.22144 0.0
C3057 C 0.92669 0.25575 0.24791 0.0
H3058 H 0.89784 0.23901 0.25481 0.0
C3059 C 0.91975 0.22383 0.28769 0.0
C3060 C 0.91295 0.21377 0.28538 0.0
C3061 C 0.9213 0.23243 0.27901 0.0
C3062 C 0.90601 0.24349 0.25291 0.0
H3063 H 0.92359 0.29542 0.22602 0.0
H3064 H 0.92627 0.28028 0.24109 0.0
H3065 H 0.89792 0.25403 0.23972 0.0
H3066 H 0.90323 0.20446 0.27188 0.0
H3067 H 0.90606 0.21928 0.25684 0.0
H3068 H 0.93472 0.24509 0.26127 0.0
C3069 C 0.92149 0.2781 0.23317 0.0
C3070 C 0.90606 0.25211 0.24426 0.0
C3071 C 0.91994 0.28676 0.22455 0.0
C3072 C 0.90834 0.21218 0.27405 0.0
C3073 C 0.90992 0.22071 0.26542 0.0
C3074 C 0.92664 0.24705 0.25664 0.0
C3075 C 0.91629 0.26698 0.23184 0.0
C3076 C 0.91642 0.25821 0.24149 0.0
C3077 C 0.9161 0.23109 0.26789 0.0
C3078 C 0.91633 0.2407 0.25908 0.0
H3079 H 0.90347 0.27089 0.20518 0.0
H3080 H 0.90631 0.25588 0.22002 0.0
H3081 H 0.9348 0.26032 0.24597 0.0
H3082 H 0.92344 0.22531 0.29633 0.0
H3083 H 0.92611 0.24035 0.28117 0.0
C3084 C 0.78273 0.91341 0.27264 0.0
C3085 C 0.78159 0.91721 0.28433 0.0
C3086 C 0.77461 0.91684 0.26415 0.0
C3087 C 0.74387 0.92512 0.26128 0.0
H3088 H 0.75272 0.93013 0.22878 0.0
C3089 C 0.70945 0.92546 0.22394 0.0
C3090 C 0.71233 0.91783 0.21466 0.0
C3091 C 0.71795 0.92868 0.23223 0.0
C3092 C 0.75011 0.92879 0.23782 0.0
H3093 H 0.77123 0.92799 0.29615 0.0
H3094 H 0.75693 0.93391 0.28124 0.0
H3095 H 0.76783 0.92998 0.24398 0.0
H3096 H 0.72656 0.90815 0.20647 0.0
H3097 H 0.74126 0.91372 0.22083 0.0
H3098 H 0.72621 0.92343 0.25506 0.0
C3099 C 0.76413 0.92824 0.27871 0.0
C3100 C 0.75875 0.9287 0.24652 0.0
C3101 C 0.77235 0.92488 0.28723 0.0
C3102 C 0.724 0.91397 0.21354 0.0
C3103 C 0.73248 0.91726 0.22173 0.0
C3104 C 0.73522 0.92521 0.25257 0.0
C3105 C 0.76509 0.9241 0.26711 0.0
C3106 C 0.75578 0.92644 0.25829 0.0
C3107 C 0.72952 0.92446 0.2313 0.0
C3108 C 0.7383 0.92663 0.2407 0.0
H3109 H 0.78977 0.90756 0.27007 0.0
H3110 H 0.77552 0.91336 0.25534 0.0
H3111 H 0.7413 0.92327 0.27025 0.0
H3112 H 0.70054 0.92861 0.22505 0.0
H3113 H 0.71543 0.93431 0.23947 0.0
C3114 C 0.0744 0.7102 0.22542 0.0
C3115 C 0.08235 0.71276 0.21631 0.0
C3116 C 0.0715 0.71878 0.23376 0.0
C3117 C 0.07271 0.75087 0.23938 0.0
H3118 H 0.07619 0.74194 0.27205 0.0
C3119 C 0.08658 0.78334 0.27501 0.0
C3120 C 0.08186 0.78242 0.28639 0.0
C3121 C 0.08374 0.77514 0.26639 0.0
C3122 C 0.07494 0.74455 0.26299 0.0
H3123 H 0.09309 0.72648 0.20857 0.0
H3124 H 0.08808 0.7413 0.22302 0.0
H3125 H 0.0763 0.72682 0.25686 0.0
H3126 H 0.07012 0.7723 0.29748 0.0
H3127 H 0.06521 0.75786 0.28233 0.0
H3128 H 0.0718 0.76862 0.24546 0.0
C3129 C 0.08403 0.73272 0.22373 0.0
C3130 C 0.075 0.73588 0.25428 0.0
C3131 C 0.08698 0.72417 0.21549 0.0
C3132 C 0.07393 0.77326 0.28882 0.0
C3133 C 0.07115 0.76496 0.28017 0.0
C3134 C 0.07265 0.75951 0.24807 0.0
C3135 C 0.07639 0.7301 0.23306 0.0
C3136 C 0.07428 0.73899 0.24236 0.0
C3137 C 0.07613 0.76575 0.2689 0.0
C3138 C 0.07415 0.75648 0.25994 0.0
H3139 H 0.07066 0.70151 0.22631 0.0
H3140 H 0.06554 0.71652 0.24081 0.0
H3141 H 0.0719 0.75351 0.23028 0.0
H3142 H 0.09267 0.79031 0.2728 0.0
H3143 H 0.08786 0.77592 0.25785 0.0
C3144 C 0.22445 0.9232 0.7097 0.0
C3145 C 0.21515 0.91554 0.71245 0.0
C3146 C 0.23277 0.92622 0.71824 0.0
C3147 C 0.23828 0.92582 0.75041 0.0
H3148 H 0.27082 0.92104 0.74161 0.0
C3149 C 0.27346 0.91135 0.78315 0.0
C3150 C 0.285 0.91559 0.78209 0.0
C3151 C 0.2649 0.9144 0.77494 0.0
C3152 C 0.26181 0.92267 0.74418 0.0
H3153 H 0.207 0.90556 0.72651 0.0
H3154 H 0.22143 0.91078 0.74127 0.0
H3155 H 0.25565 0.92106 0.72649 0.0
H3156 H 0.29649 0.92672 0.77172 0.0
H3157 H 0.28148 0.93199 0.75727 0.0
H3158 H 0.24439 0.92695 0.76815 0.0
C3159 C 0.22231 0.9145 0.73256 0.0
C3160 C 0.25311 0.92268 0.73551 0.0
C3161 C 0.21408 0.91141 0.72404 0.0
C3162 C 0.28769 0.92328 0.77279 0.0
C3163 C 0.27911 0.92626 0.76449 0.0
C3164 C 0.24697 0.9258 0.75907 0.0
C3165 C 0.23186 0.92177 0.72973 0.0
C3166 C 0.24121 0.92387 0.73858 0.0
C3167 C 0.26767 0.92173 0.76541 0.0
C3168 C 0.25878 0.92383 0.75609 0.0
H3169 H 0.22552 0.92655 0.70086 0.0
H3170 H 0.24 0.93191 0.71583 0.0
H3171 H 0.22921 0.92699 0.75303 0.0
H3172 H 0.27104 0.90546 0.79022 0.0
H3173 H 0.25621 0.91063 0.77582 0.0
C3174 C 0.08614 0.21175 0.72288 0.0
C3175 C 0.08244 0.214 0.71133 0.0
C3176 C 0.08413 0.21992 0.73176 0.0
C3177 C 0.06814 0.247 0.74015 0.0
H3178 H 0.09584 0.25177 0.75937 0.0
C3179 C 0.07577 0.28649 0.77222 0.0
C3180 C 0.08174 0.28386 0.78272 0.0
C3181 C 0.07396 0.27774 0.76374 0.0
C3182 C 0.08796 0.25045 0.75421 0.0
H3183 H 0.0731 0.22629 0.70018 0.0
H3184 H 0.06981 0.24077 0.71575 0.0
H3185 H 0.09607 0.23691 0.74417 0.0
H3186 H 0.08952 0.26982 0.79298 0.0
H3187 H 0.08622 0.25466 0.77837 0.0
H3188 H 0.06017 0.26083 0.75023 0.0
C3189 C 0.07416 0.2326 0.71792 0.0
C3190 C 0.08808 0.24191 0.74548 0.0
C3191 C 0.07607 0.22432 0.709 0.0
C3192 C 0.08511 0.27219 0.7849 0.0
C3193 C 0.08324 0.2635 0.77651 0.0
C3194 C 0.06803 0.25564 0.74894 0.0
C3195 C 0.07852 0.23063 0.72931 0.0
C3196 C 0.07815 0.23996 0.73843 0.0
C3197 C 0.07805 0.26625 0.76566 0.0
C3198 C 0.07792 0.25733 0.75615 0.0
H3199 H 0.09087 0.20378 0.72502 0.0
H3200 H 0.08731 0.21798 0.74052 0.0
H3201 H 0.06036 0.2457 0.73485 0.0
H3202 H 0.07304 0.29539 0.7703 0.0
H3203 H 0.06992 0.28011 0.75546 0.0
C3204 C 0.70946 0.07657 0.77232 0.0
C3205 C 0.71188 0.08297 0.78261 0.0
C3206 C 0.71829 0.07465 0.76396 0.0
C3207 C 0.74566 0.08862 0.75424 0.0
H3208 H 0.75046 0.06053 0.7356 0.0
C3209 C 0.78473 0.08572 0.72348 0.0
C3210 C 0.78245 0.08211 0.71191 0.0
C3211 C 0.77647 0.08389 0.73231 0.0
C3212 C 0.74915 0.06845 0.74071 0.0
H3213 H 0.72567 0.09146 0.79265 0.0
H3214 H 0.74101 0.08792 0.77829 0.0
H3215 H 0.73522 0.06077 0.75087 0.0
H3216 H 0.77004 0.07301 0.70069 0.0
H3217 H 0.75544 0.06994 0.7162 0.0
H3218 H 0.75937 0.0964 0.74415 0.0
C3219 C 0.73224 0.0847 0.77646 0.0
C3220 C 0.74044 0.06858 0.74943 0.0
C3221 C 0.72345 0.08669 0.78472 0.0
C3222 C 0.77203 0.07592 0.70952 0.0
C3223 C 0.76368 0.07414 0.7184 0.0
C3224 C 0.7543 0.08848 0.74561 0.0
C3225 C 0.72969 0.07904 0.7658 0.0
C3226 C 0.73871 0.07865 0.75638 0.0
C3227 C 0.76567 0.07848 0.72979 0.0
C3228 C 0.75626 0.07837 0.73882 0.0
H3229 H 0.70063 0.07357 0.77045 0.0
H3230 H 0.71606 0.07026 0.75583 0.0
H3231 H 0.74432 0.09665 0.75918 0.0
H3232 H 0.79276 0.09032 0.72567 0.0
H3233 H 0.77839 0.08705 0.74108 0.0
C3234 C 0.92248 0.71159 0.77466 0.0
C3235 C 0.91097 0.70971 0.77874 0.0
C3236 C 0.92483 0.72065 0.76664 0.0
C3237 C 0.91168 0.74841 0.75571 0.0
H3238 H 0.93314 0.74489 0.72954 0.0
C3239 C 0.9195 0.77105 0.70786 0.0
C3240 C 0.91654 0.78261 0.71093 0.0
C3241 C 0.92131 0.76258 0.71658 0.0
C3242 C 0.92708 0.746 0.73678 0.0
H3243 H 0.89286 0.71544 0.77712 0.0
H3244 H 0.89688 0.73083 0.76306 0.0
H3245 H 0.9309 0.72889 0.74368 0.0
H3246 H 0.91426 0.7947 0.72543 0.0
H3247 H 0.91808 0.78018 0.74062 0.0
H3248 H 0.90722 0.76508 0.74859 0.0
C3249 C 0.90419 0.72568 0.76632 0.0
C3250 C 0.92591 0.73687 0.74496 0.0
C3251 C 0.90187 0.71679 0.77436 0.0
C3252 C 0.91634 0.78578 0.72283 0.0
C3253 C 0.91843 0.77741 0.73153 0.0
C3254 C 0.91274 0.75742 0.74751 0.0
C3255 C 0.91571 0.72791 0.76251 0.0
C3256 C 0.91799 0.73789 0.75438 0.0
C3257 C 0.92042 0.76558 0.72855 0.0
C3258 C 0.92032 0.75631 0.73782 0.0
H3259 H 0.92967 0.70627 0.77786 0.0
H3260 H 0.93381 0.72214 0.76389 0.0
H3261 H 0.90569 0.74962 0.763 0.0
H3262 H 0.91967 0.76838 0.69872 0.0
H3263 H 0.92274 0.75357 0.7139 0.0
C3264 C 0.2248 0.28816 0.0742 0.0
C3265 C 0.21402 0.28558 0.07966 0.0
C3266 C 0.23304 0.27923 0.0722 0.0
C3267 C 0.24108 0.25098 0.08521 0.0
H3268 H 0.26199 0.24733 0.05858 0.0
C3269 C 0.27231 0.21218 0.08358 0.0
C3270 C 0.28406 0.21456 0.08069 0.0
C3271 C 0.26356 0.22042 0.08134 0.0
C3272 C 0.25624 0.24831 0.0661 0.0
H3273 H 0.20298 0.27152 0.08624 0.0
H3274 H 0.21717 0.25603 0.08255 0.0
H3275 H 0.24687 0.26271 0.05829 0.0
H3276 H 0.29575 0.22717 0.07252 0.0
H3277 H 0.2804 0.24179 0.06883 0.0
H3278 H 0.25043 0.23687 0.09318 0.0
C3279 C 0.21944 0.26495 0.08015 0.0
C3280 C 0.2476 0.25709 0.06592 0.0
C3281 C 0.21129 0.27383 0.08223 0.0
C3282 C 0.28676 0.2251 0.07486 0.0
C3283 C 0.27797 0.23346 0.07272 0.0
C3284 C 0.24966 0.24228 0.0854 0.0
C3285 C 0.23059 0.2676 0.07557 0.0
C3286 C 0.23985 0.25842 0.07545 0.0
C3287 C 0.26634 0.23135 0.07631 0.0
C3288 C 0.25728 0.24074 0.07582 0.0
H3289 H 0.22713 0.29714 0.07211 0.0
H3290 H 0.24156 0.28154 0.06865 0.0
H3291 H 0.23549 0.25198 0.09285 0.0
H3292 H 0.2699 0.20404 0.08789 0.0
H3293 H 0.25463 0.21838 0.0839 0.0
C3294 C 0.22581 0.70927 0.92297 0.0
C3295 C 0.21506 0.71206 0.91755 0.0
C3296 C 0.23433 0.718 0.92473 0.0
C3297 C 0.24311 0.74569 0.91107 0.0
H3298 H 0.26383 0.74978 0.93779 0.0
C3299 C 0.27419 0.78463 0.91258 0.0
C3300 C 0.28593 0.7824 0.91564 0.0
C3301 C 0.26551 0.77628 0.91469 0.0
C3302 C 0.25815 0.74866 0.93024 0.0
H3303 H 0.20439 0.72631 0.91078 0.0
H3304 H 0.21906 0.74144 0.91402 0.0
H3305 H 0.24851 0.73459 0.93834 0.0
H3306 H 0.29765 0.76992 0.92398 0.0
H3307 H 0.28241 0.75513 0.92749 0.0
H3308 H 0.25269 0.7595 0.90284 0.0
C3309 C 0.22109 0.7325 0.91659 0.0
C3310 C 0.24939 0.73999 0.93057 0.0
C3311 C 0.21266 0.72384 0.91477 0.0
C3312 C 0.28868 0.77187 0.92149 0.0
C3313 C 0.27996 0.76342 0.92353 0.0
C3314 C 0.2518 0.75427 0.91074 0.0
C3315 C 0.23218 0.72962 0.92114 0.0
C3316 C 0.24169 0.73855 0.92103 0.0
C3317 C 0.26834 0.76541 0.91981 0.0
C3318 C 0.25933 0.75599 0.92036 0.0
H3319 H 0.2279 0.70027 0.92522 0.0
H3320 H 0.2428 0.71552 0.92827 0.0
H3321 H 0.23755 0.74457 0.90343 0.0
H3322 H 0.27173 0.79274 0.90825 0.0
H3323 H 0.25659 0.77822 0.91202 0.0
C3324 C 0.22491 0.28807 0.92377 0.0
C3325 C 0.21546 0.28519 0.91635 0.0
C3326 C 0.23333 0.27959 0.92672 0.0
C3327 C 0.23896 0.24742 0.9265 0.0
H3328 H 0.27137 0.2563 0.92103 0.0
C3329 C 0.27391 0.21477 0.91137 0.0
C3330 C 0.28549 0.21576 0.91553 0.0
C3331 C 0.26542 0.22301 0.91452 0.0
C3332 C 0.2624 0.25371 0.92284 0.0
H3333 H 0.20716 0.27098 0.90671 0.0
H3334 H 0.22174 0.25634 0.91181 0.0
H3335 H 0.25614 0.27138 0.92127 0.0
H3336 H 0.29712 0.22605 0.92657 0.0
H3337 H 0.28222 0.24057 0.932 0.0
H3338 H 0.24514 0.2297 0.92757 0.0
C3339 C 0.22267 0.2651 0.9154 0.0
C3340 C 0.25367 0.26236 0.92299 0.0
C3341 C 0.21435 0.27355 0.91239 0.0
C3342 C 0.28829 0.22503 0.92321 0.0
C3343 C 0.27978 0.23337 0.92627 0.0
C3344 C 0.24766 0.23879 0.92634 0.0
C3345 C 0.23237 0.26805 0.92243 0.0
C3346 C 0.2418 0.25925 0.92442 0.0
C3347 C 0.26828 0.2325 0.92186 0.0
C3348 C 0.25942 0.2418 0.92411 0.0
H3349 H 0.22603 0.29695 0.92698 0.0
H3350 H 0.24067 0.2821 0.93223 0.0
H3351 H 0.22992 0.24478 0.92787 0.0
H3352 H 0.27141 0.20772 0.90549 0.0
H3353 H 0.25669 0.22217 0.91083 0.0
C3354 C 0.72347 0.21494 0.90941 0.0
C3355 C 0.71218 0.21584 0.91434 0.0
C3356 C 0.73216 0.2231 0.91217 0.0
C3357 C 0.73577 0.2536 0.92131 0.0
H3358 H 0.76854 0.2446 0.92344 0.0
C3359 C 0.77335 0.28794 0.92217 0.0
C3360 C 0.78238 0.28563 0.91405 0.0
C3361 C 0.76504 0.27928 0.92489 0.0
C3362 C 0.75943 0.24725 0.92288 0.0
H3363 H 0.70134 0.22585 0.92639 0.0
H3364 H 0.71661 0.2402 0.93119 0.0
H3365 H 0.75337 0.22948 0.92359 0.0
H3366 H 0.78998 0.27225 0.90279 0.0
H3367 H 0.77556 0.25729 0.90749 0.0
H3368 H 0.74187 0.27136 0.92019 0.0
C3369 C 0.71865 0.23316 0.92512 0.0
C3370 C 0.75074 0.2386 0.92296 0.0
C3371 C 0.70993 0.22491 0.92242 0.0
C3372 C 0.78313 0.27437 0.90904 0.0
C3373 C 0.77491 0.26574 0.91182 0.0
C3374 C 0.74448 0.26227 0.92123 0.0
C3375 C 0.72982 0.23241 0.91991 0.0
C3376 C 0.73883 0.24165 0.92181 0.0
C3377 C 0.76568 0.26812 0.91964 0.0
C3378 C 0.75641 0.25916 0.92165 0.0
H3379 H 0.72555 0.20805 0.9032 0.0
H3380 H 0.74061 0.22235 0.90787 0.0
H3381 H 0.72668 0.25624 0.92031 0.0
H3382 H 0.77251 0.29651 0.9262 0.0
H3383 H 0.75806 0.28135 0.93101 0.0
C3384 C 0.71005 0.77122 0.92153 0.0
C3385 C 0.71258 0.78165 0.9154 0.0
C3386 C 0.71886 0.76284 0.92346 0.0
C3387 C 0.74657 0.75354 0.90985 0.0
H3388 H 0.75082 0.7342 0.93756 0.0
C3389 C 0.78572 0.72292 0.91283 0.0
C3390 C 0.78343 0.71123 0.91602 0.0
C3391 C 0.77739 0.73166 0.91475 0.0
C3392 C 0.74967 0.73951 0.92976 0.0
H3393 H 0.72652 0.79191 0.90744 0.0
H3394 H 0.74182 0.77752 0.91102 0.0
H3395 H 0.73552 0.74941 0.93737 0.0
H3396 H 0.77087 0.69969 0.9245 0.0
H3397 H 0.75614 0.71505 0.92773 0.0
H3398 H 0.76051 0.74371 0.90215 0.0
C3399 C 0.733 0.77559 0.91399 0.0
C3400 C 0.74092 0.74819 0.92964 0.0
C3401 C 0.72422 0.78387 0.91198 0.0
C3402 C 0.77289 0.70862 0.92192 0.0
C3403 C 0.76446 0.71741 0.92379 0.0
C3404 C 0.75525 0.74494 0.90998 0.0
C3405 C 0.73035 0.7648 0.91935 0.0
C3406 C 0.73939 0.75539 0.91971 0.0
C3407 C 0.76648 0.72894 0.91983 0.0
C3408 C 0.75702 0.73791 0.91996 0.0
H3409 H 0.70116 0.76927 0.92428 0.0
H3410 H 0.71655 0.75461 0.92761 0.0
H3411 H 0.7454 0.75867 0.90193 0.0
H3412 H 0.79384 0.72528 0.90846 0.0
H3413 H 0.77934 0.74052 0.91189 0.0
C3414 C 0.7728 0.70884 0.07471 0.0
C3415 C 0.78351 0.71138 0.08032 0.0
C3416 C 0.76455 0.71777 0.07274 0.0
C3417 C 0.75628 0.74582 0.08604 0.0
H3418 H 0.73558 0.74968 0.05927 0.0
C3419 C 0.7248 0.78442 0.08459 0.0
C3420 C 0.71309 0.782 0.08157 0.0
C3421 C 0.73363 0.77626 0.08235 0.0
C3422 C 0.74127 0.74864 0.06683 0.0
H3423 H 0.79444 0.72539 0.0872 0.0
H3424 H 0.78024 0.74088 0.08357 0.0
H3425 H 0.75081 0.7344 0.05891 0.0
H3426 H 0.70157 0.7694 0.07315 0.0
H3427 H 0.71704 0.75493 0.06945 0.0
H3428 H 0.74676 0.75975 0.09411 0.0
C3429 C 0.77802 0.73199 0.08103 0.0
C3430 C 0.74997 0.73992 0.06661 0.0
C3431 C 0.78618 0.72311 0.08307 0.0
C3432 C 0.71051 0.7715 0.0756 0.0
C3433 C 0.71938 0.76323 0.07345 0.0
C3434 C 0.74764 0.75445 0.08626 0.0
C3435 C 0.76694 0.72936 0.07629 0.0
C3436 C 0.75764 0.73851 0.0762 0.0
C3437 C 0.73097 0.76538 0.07716 0.0
C3438 C 0.7401 0.75607 0.07663 0.0
H3439 H 0.77051 0.69989 0.07248 0.0
H3440 H 0.75609 0.71548 0.06907 0.0
H3441 H 0.7618 0.74474 0.09371 0.0
H3442 H 0.72711 0.79253 0.08901 0.0
H3443 H 0.74252 0.77834 0.08502 0.0
C3444 C 0.22573 0.70826 0.07336 0.0
C3445 C 0.21629 0.71129 0.08073 0.0
C3446 C 0.2341 0.7167 0.07016 0.0
C3447 C 0.23962 0.74886 0.06949 0.0
H3448 H 0.27201 0.74029 0.07555 0.0
C3449 C 0.27421 0.78203 0.08424 0.0
C3450 C 0.28591 0.78087 0.08048 0.0
C3451 C 0.26578 0.77374 0.08106 0.0
C3452 C 0.26305 0.74278 0.07355 0.0
H3453 H 0.20795 0.7257 0.09002 0.0
H3454 H 0.22246 0.74028 0.0845 0.0
H3455 H 0.25686 0.72514 0.07558 0.0
H3456 H 0.29781 0.77027 0.07003 0.0
H3457 H 0.28301 0.75568 0.06453 0.0
H3458 H 0.24574 0.76656 0.06796 0.0
C3459 C 0.22341 0.73143 0.08114 0.0
C3460 C 0.25436 0.7341 0.07357 0.0
C3461 C 0.21514 0.72302 0.0844 0.0
C3462 C 0.28889 0.77141 0.0731 0.0
C3463 C 0.28043 0.76303 0.06999 0.0
C3464 C 0.24829 0.75753 0.06947 0.0
C3465 C 0.2331 0.72834 0.07416 0.0
C3466 C 0.2425 0.73711 0.07195 0.0
C3467 C 0.26882 0.76404 0.07407 0.0
C3468 C 0.26004 0.75464 0.07192 0.0
H3469 H 0.22688 0.69931 0.07036 0.0
H3470 H 0.24145 0.71408 0.06471 0.0
H3471 H 0.23058 0.75141 0.06798 0.0
H3472 H 0.27158 0.78922 0.08987 0.0
H3473 H 0.25696 0.7747 0.08448 0.0
C3474 C 0.72389 0.21115 0.08485 0.0
C3475 C 0.71228 0.21348 0.08142 0.0
C3476 C 0.73274 0.21935 0.08286 0.0
C3477 C 0.74088 0.24676 0.06731 0.0
H3478 H 0.76024 0.25124 0.09496 0.0
C3479 C 0.7724 0.28657 0.0752 0.0
C3480 C 0.78288 0.28413 0.08127 0.0
C3481 C 0.7641 0.27767 0.07331 0.0
C3482 C 0.75505 0.25001 0.08708 0.0
H3483 H 0.70098 0.22597 0.07252 0.0
H3484 H 0.71651 0.24049 0.06922 0.0
H3485 H 0.74521 0.2362 0.09501 0.0
H3486 H 0.79334 0.27029 0.08914 0.0
H3487 H 0.77907 0.25484 0.08564 0.0
H3488 H 0.75076 0.26083 0.0595 0.0
C3489 C 0.71874 0.23223 0.07337 0.0
C3490 C 0.74642 0.24136 0.08711 0.0
C3491 C 0.70985 0.22393 0.07529 0.0
C3492 C 0.78526 0.27251 0.08463 0.0
C3493 C 0.77705 0.26365 0.08267 0.0
C3494 C 0.74958 0.25549 0.06728 0.0
C3495 C 0.7302 0.23017 0.0775 0.0
C3496 C 0.7393 0.23953 0.0772 0.0
C3497 C 0.7662 0.2662 0.07739 0.0
C3498 C 0.75684 0.2571 0.07715 0.0
H3499 H 0.72611 0.20309 0.0894 0.0
H3500 H 0.74155 0.21736 0.08586 0.0
H3501 H 0.73552 0.24556 0.05954 0.0
H3502 H 0.77033 0.29545 0.07248 0.0
H3503 H 0.75581 0.2799 0.06921 0.0
C3504 C 0.5838 0.77435 0.71467 0.0
C3505 C 0.5801 0.78607 0.71582 0.0
C3506 C 0.58051 0.76592 0.72291 0.0
C3507 C 0.57276 0.76322 0.75383 0.0
H3508 H 0.56754 0.7307 0.74515 0.0
C3509 C 0.57252 0.72574 0.78826 0.0
C3510 C 0.5801 0.71644 0.78529 0.0
C3511 C 0.56934 0.73412 0.77982 0.0
C3512 C 0.56894 0.73975 0.74772 0.0
H3513 H 0.56962 0.79801 0.72632 0.0
H3514 H 0.5639 0.78321 0.74084 0.0
H3515 H 0.56746 0.74586 0.73001 0.0
H3516 H 0.58981 0.70836 0.77101 0.0
H3517 H 0.58428 0.72288 0.75642 0.0
H3518 H 0.57471 0.75702 0.77148 0.0
C3519 C 0.5694 0.78061 0.73353 0.0
C3520 C 0.5689 0.74843 0.73905 0.0
C3521 C 0.57263 0.78906 0.72519 0.0
C3522 C 0.58401 0.71544 0.77363 0.0
C3523 C 0.58076 0.72371 0.76522 0.0
C3524 C 0.57279 0.75452 0.76251 0.0
C3525 C 0.57345 0.76898 0.73256 0.0
C3526 C 0.57123 0.7602 0.74195 0.0
C3527 C 0.57355 0.73326 0.76825 0.0
C3528 C 0.5713 0.74265 0.75948 0.0
H3529 H 0.5895 0.7717 0.70753 0.0
H3530 H 0.58392 0.75709 0.72197 0.0
H3531 H 0.57467 0.77219 0.75634 0.0
H3532 H 0.56935 0.72676 0.79716 0.0
H3533 H 0.56373 0.74136 0.78239 0.0
C3534 C 0.22203 0.58044 0.71535 0.0
C3535 C 0.21013 0.57742 0.71666 0.0
C3536 C 0.23032 0.57686 0.72361 0.0
C3537 C 0.23272 0.57004 0.7547 0.0
H3538 H 0.26493 0.56298 0.74619 0.0
C3539 C 0.27016 0.57059 0.78902 0.0
C3540 C 0.27965 0.57772 0.78558 0.0
C3541 C 0.26174 0.56702 0.78079 0.0
C3542 C 0.25596 0.56488 0.74871 0.0
H3543 H 0.19771 0.56781 0.72744 0.0
H3544 H 0.21229 0.56162 0.74201 0.0
H3545 H 0.24971 0.56291 0.7311 0.0
H3546 H 0.28808 0.58609 0.77068 0.0
H3547 H 0.2735 0.5799 0.75643 0.0
H3548 H 0.23907 0.57256 0.77222 0.0
C3549 C 0.21513 0.5668 0.73456 0.0
C3550 C 0.24725 0.56484 0.74008 0.0
C3551 C 0.20681 0.5703 0.72619 0.0
C3552 C 0.28084 0.58068 0.77366 0.0
C3553 C 0.27253 0.57703 0.76545 0.0
C3554 C 0.24144 0.57008 0.76335 0.0
C3555 C 0.22695 0.57022 0.73344 0.0
C3556 C 0.23562 0.56787 0.74289 0.0
C3557 C 0.26275 0.57037 0.76894 0.0
C3558 C 0.25323 0.56795 0.76036 0.0
H3559 H 0.22492 0.58585 0.70807 0.0
H3560 H 0.23931 0.57978 0.72255 0.0
H3561 H 0.22386 0.57249 0.75714 0.0
H3562 H 0.26899 0.56814 0.79814 0.0
H3563 H 0.25433 0.56183 0.78372 0.0
C3564 C 0.42066 0.20809 0.72394 0.0
C3565 C 0.41383 0.21036 0.7139 0.0
C3566 C 0.42229 0.21682 0.73247 0.0
C3567 C 0.40717 0.24314 0.7433 0.0
H3568 H 0.43592 0.24981 0.76031 0.0
C3569 C 0.40993 0.2832 0.77268 0.0
C3570 C 0.41412 0.28149 0.78416 0.0
C3571 C 0.41164 0.27467 0.76409 0.0
C3572 C 0.42783 0.24795 0.75567 0.0
H3573 H 0.40416 0.22384 0.7045 0.0
H3574 H 0.40715 0.23898 0.71917 0.0
H3575 H 0.43577 0.23445 0.74513 0.0
H3576 H 0.4241 0.2698 0.79541 0.0
H3577 H 0.427 0.25473 0.7803 0.0
H3578 H 0.39918 0.25649 0.75372 0.0
C3579 C 0.41096 0.2304 0.72067 0.0
C3580 C 0.42774 0.23919 0.74701 0.0
C3581 C 0.40928 0.22171 0.71223 0.0
C3582 C 0.42074 0.27135 0.78665 0.0
C3583 C 0.42242 0.26274 0.77801 0.0
C3584 C 0.40727 0.25184 0.75187 0.0
C3585 C 0.41715 0.22796 0.73106 0.0
C3586 C 0.41743 0.23684 0.74061 0.0
C3587 C 0.41753 0.26417 0.76676 0.0
C3588 C 0.41763 0.2545 0.75802 0.0
H3589 H 0.4243 0.19944 0.72547 0.0
H3590 H 0.4271 0.21469 0.74039 0.0
H3591 H 0.399 0.24131 0.73879 0.0
H3592 H 0.40499 0.291 0.77039 0.0
H3593 H 0.40803 0.27615 0.75541 0.0
C3594 C 0.72356 0.41986 0.78776 0.0
C3595 C 0.7134 0.41315 0.78567 0.0
C3596 C 0.73196 0.42137 0.77887 0.0
C3597 C 0.74224 0.40593 0.75257 0.0
H3598 H 0.75959 0.43436 0.74547 0.0
C3599 C 0.77219 0.40755 0.71271 0.0
C3600 C 0.78355 0.41211 0.71432 0.0
C3601 C 0.76351 0.40934 0.72114 0.0
C3602 C 0.75487 0.42635 0.74744 0.0
H3603 H 0.70364 0.40361 0.77236 0.0
H3604 H 0.7181 0.40637 0.75696 0.0
H3605 H 0.7445 0.43459 0.76088 0.0
H3606 H 0.79447 0.42273 0.72575 0.0
H3607 H 0.77924 0.42573 0.74064 0.0
H3608 H 0.75255 0.39759 0.73934 0.0
C3609 C 0.71978 0.41019 0.76552 0.0
C3610 C 0.74624 0.42648 0.75624 0.0
C3611 C 0.71146 0.40864 0.77435 0.0
C3612 C 0.78582 0.41908 0.72427 0.0
C3613 C 0.77709 0.42082 0.73278 0.0
C3614 C 0.7508 0.40579 0.74385 0.0
C3615 C 0.7303 0.41622 0.76777 0.0
C3616 C 0.73973 0.41629 0.75876 0.0
C3617 C 0.76595 0.41565 0.73145 0.0
C3618 C 0.75711 0.41601 0.74104 0.0
H3619 H 0.7253 0.42347 0.79638 0.0
H3620 H 0.73999 0.42607 0.78086 0.0
H3621 H 0.73763 0.39784 0.75453 0.0
H3622 H 0.77007 0.40232 0.70506 0.0
H3623 H 0.75492 0.40551 0.7197 0.0
C3624 C 0.57679 0.20967 0.27225 0.0
C3625 C 0.58315 0.21209 0.28257 0.0
C3626 C 0.57509 0.21844 0.26378 0.0
C3627 C 0.58939 0.24561 0.2539 0.0
H3628 H 0.56138 0.25055 0.23517 0.0
C3629 C 0.5866 0.28475 0.22313 0.0
C3630 C 0.58289 0.28257 0.21157 0.0
C3631 C 0.58485 0.27643 0.23192 0.0
C3632 C 0.56928 0.2492 0.24029 0.0
H3633 H 0.59182 0.22584 0.29251 0.0
H3634 H 0.58865 0.24108 0.27795 0.0
H3635 H 0.56147 0.23537 0.25049 0.0
H3636 H 0.57375 0.2702 0.20033 0.0
H3637 H 0.57082 0.25549 0.21577 0.0
H3638 H 0.59728 0.25925 0.24378 0.0
C3639 C 0.58531 0.23235 0.27619 0.0
C3640 C 0.56933 0.24052 0.24905 0.0
C3641 C 0.58709 0.22361 0.28457 0.0
C3642 C 0.57674 0.27213 0.20915 0.0
C3643 C 0.57504 0.26372 0.21799 0.0
C3644 C 0.58934 0.25422 0.24523 0.0
C3645 C 0.57965 0.22979 0.26553 0.0
C3646 C 0.57937 0.23875 0.25604 0.0
C3647 C 0.57942 0.26565 0.22938 0.0
C3648 C 0.57926 0.25623 0.23841 0.0
H3649 H 0.57363 0.20088 0.27047 0.0
H3650 H 0.5707 0.21619 0.25565 0.0
H3651 H 0.59739 0.24425 0.25887 0.0
H3652 H 0.59117 0.2928 0.22536 0.0
H3653 H 0.58805 0.27832 0.24068 0.0
C3654 C 0.7881 0.5725 0.27207 0.0
C3655 C 0.7851 0.57995 0.28146 0.0
C3656 C 0.77968 0.56936 0.26367 0.0
C3657 C 0.74756 0.56895 0.25798 0.0
H3658 H 0.75631 0.57497 0.22562 0.0
C3659 C 0.71458 0.58387 0.22331 0.0
C3660 C 0.71573 0.58011 0.21161 0.0
C3661 C 0.72284 0.58066 0.23175 0.0
C3662 C 0.75376 0.57299 0.23457 0.0
H3663 H 0.77076 0.58942 0.2897 0.0
H3664 H 0.75619 0.58398 0.27514 0.0
H3665 H 0.77139 0.5749 0.24084 0.0
H3666 H 0.72631 0.56965 0.1997 0.0
H3667 H 0.74087 0.5641 0.21452 0.0
H3668 H 0.72988 0.56752 0.25179 0.0
C3669 C 0.76501 0.58052 0.27425 0.0
C3670 C 0.76241 0.57294 0.2433 0.0
C3671 C 0.77341 0.58373 0.28255 0.0
C3672 C 0.72517 0.57272 0.20863 0.0
C3673 C 0.73353 0.56957 0.2171 0.0
C3674 C 0.73893 0.56899 0.24927 0.0
C3675 C 0.76808 0.57348 0.26459 0.0
C3676 C 0.75934 0.57133 0.25515 0.0
C3677 C 0.73252 0.57364 0.22872 0.0
C3678 C 0.74188 0.57142 0.23753 0.0
H3679 H 0.79704 0.56942 0.27098 0.0
H3680 H 0.78228 0.56386 0.25635 0.0
H3681 H 0.74496 0.56745 0.26701 0.0
H3682 H 0.70739 0.58951 0.22594 0.0
H3683 H 0.72188 0.58408 0.24057 0.0
C3684 C 0.4152 0.71516 0.22458 0.0
C3685 C 0.41846 0.7163 0.21272 0.0
C3686 C 0.41865 0.72352 0.23283 0.0
C3687 C 0.42564 0.75461 0.23491 0.0
H3688 H 0.43206 0.74656 0.26738 0.0
C3689 C 0.42513 0.78962 0.27169 0.0
C3690 C 0.41792 0.78648 0.28122 0.0
C3691 C 0.42861 0.78117 0.26345 0.0
C3692 C 0.43032 0.74896 0.25834 0.0
H3693 H 0.42836 0.72689 0.20036 0.0
H3694 H 0.43434 0.74161 0.21485 0.0
H3695 H 0.4322 0.73122 0.25242 0.0
H3696 H 0.40929 0.77187 0.28991 0.0
H3697 H 0.41531 0.75725 0.27563 0.0
H3698 H 0.42323 0.77226 0.24091 0.0
C3699 C 0.42906 0.73422 0.21769 0.0
C3700 C 0.43041 0.74018 0.24977 0.0
C3701 C 0.42569 0.72576 0.20941 0.0
C3702 C 0.41477 0.77463 0.28264 0.0
C3703 C 0.41832 0.7662 0.27449 0.0
C3704 C 0.42555 0.7634 0.24349 0.0
C3705 C 0.42541 0.73327 0.22945 0.0
C3706 C 0.42764 0.74284 0.23804 0.0
C3707 C 0.42508 0.7694 0.26468 0.0
C3708 C 0.42746 0.76059 0.25536 0.0
H3709 H 0.40971 0.70795 0.22746 0.0
H3710 H 0.41556 0.7226 0.24178 0.0
H3711 H 0.42338 0.75693 0.22597 0.0
H3712 H 0.42774 0.79867 0.27035 0.0
H3713 H 0.43389 0.78388 0.25602 0.0
C3714 C 0.2855 0.41144 0.22296 0.0
C3715 C 0.28335 0.41486 0.21131 0.0
C3716 C 0.27708 0.41323 0.23164 0.0
C3717 C 0.24945 0.42834 0.2395 0.0
H3718 H 0.24479 0.40029 0.25824 0.0
C3719 C 0.2097 0.42026 0.2711 0.0
C3720 C 0.21215 0.41398 0.28145 0.0
C3721 C 0.21854 0.42214 0.26272 0.0
C3722 C 0.24606 0.40827 0.25323 0.0
H3723 H 0.27095 0.42358 0.19978 0.0
H3724 H 0.25606 0.42658 0.21503 0.0
H3725 H 0.25996 0.40055 0.24333 0.0
H3726 H 0.22597 0.40567 0.2916 0.0
H3727 H 0.24131 0.40915 0.27722 0.0
H3728 H 0.23537 0.43598 0.24948 0.0
C3729 C 0.26434 0.42256 0.21741 0.0
C3730 C 0.25477 0.40842 0.24466 0.0
C3731 C 0.27285 0.42082 0.20868 0.0
C3732 C 0.22373 0.41034 0.28362 0.0
C3733 C 0.23253 0.41229 0.27534 0.0
C3734 C 0.24068 0.42821 0.24816 0.0
C3735 C 0.26623 0.41841 0.22889 0.0
C3736 C 0.25669 0.41848 0.23779 0.0
C3737 C 0.22996 0.41783 0.26462 0.0
C3738 C 0.23901 0.4182 0.25522 0.0
H3739 H 0.29359 0.40702 0.22534 0.0
H3740 H 0.27892 0.41021 0.24047 0.0
H3741 H 0.25072 0.43622 0.23432 0.0
H3742 H 0.20086 0.42319 0.26919 0.0
H3743 H 0.21628 0.42643 0.25454 0.0
C3744 C 0.72499 0.57162 0.7889 0.0
C3745 C 0.71563 0.57908 0.78584 0.0
C3746 C 0.73336 0.56835 0.78049 0.0
C3747 C 0.73903 0.56791 0.7483 0.0
H3748 H 0.77141 0.57372 0.7571 0.0
C3749 C 0.77368 0.58383 0.7158 0.0
C3750 C 0.78529 0.57975 0.71665 0.0
C3751 C 0.76525 0.58042 0.724 0.0
C3752 C 0.76245 0.5718 0.75454 0.0
H3753 H 0.70738 0.5884 0.7714 0.0
H3754 H 0.72188 0.58278 0.75687 0.0
H3755 H 0.7562 0.57351 0.77219 0.0
H3756 H 0.79708 0.56858 0.72662 0.0
H3757 H 0.78229 0.56274 0.74112 0.0
H3758 H 0.74521 0.5668 0.73058 0.0
C3759 C 0.72279 0.57939 0.76572 0.0
C3760 C 0.75373 0.57167 0.76319 0.0
C3761 C 0.71452 0.58272 0.7741 0.0
C3762 C 0.7882 0.57188 0.72572 0.0
C3763 C 0.77977 0.56857 0.73405 0.0
C3764 C 0.74773 0.56808 0.73966 0.0
C3765 C 0.73243 0.57236 0.76884 0.0
C3766 C 0.74187 0.57016 0.7601 0.0
C3767 C 0.76824 0.57291 0.73332 0.0
C3768 C 0.75946 0.57045 0.74264 0.0
H3769 H 0.72609 0.56864 0.79787 0.0
H3770 H 0.74065 0.56285 0.78313 0.0
H3771 H 0.73 0.56648 0.74567 0.0
H3772 H 0.77111 0.58984 0.70889 0.0
H3773 H 0.75649 0.58404 0.72329 0.0
C3774 C 0.42525 0.78916 0.72515 0.0
C3775 C 0.41786 0.78609 0.71574 0.0
C3776 C 0.42863 0.78071 0.73344 0.0
C3777 C 0.42982 0.74854 0.73874 0.0
H3778 H 0.42329 0.75675 0.77113 0.0
C3779 C 0.41435 0.71514 0.77269 0.0
C3780 C 0.41771 0.71625 0.78452 0.0
C3781 C 0.4179 0.72341 0.7644 0.0
C3782 C 0.42543 0.75436 0.76218 0.0
H3783 H 0.40877 0.77161 0.70731 0.0
H3784 H 0.41462 0.757 0.72166 0.0
H3785 H 0.42326 0.77203 0.75612 0.0
H3786 H 0.42789 0.72667 0.7968 0.0
H3787 H 0.43403 0.74125 0.78223 0.0
H3788 H 0.43147 0.7308 0.74472 0.0
C3789 C 0.41785 0.76589 0.72267 0.0
C3790 C 0.42541 0.76312 0.75357 0.0
C3791 C 0.41439 0.77431 0.71449 0.0
C3792 C 0.42513 0.72558 0.78776 0.0
C3793 C 0.42861 0.73395 0.77944 0.0
C3794 C 0.42984 0.7398 0.74734 0.0
C3795 C 0.42482 0.76902 0.73236 0.0
C3796 C 0.42717 0.76023 0.7417 0.0
C3797 C 0.42486 0.73305 0.76771 0.0
C3798 C 0.42721 0.74254 0.75908 0.0
H3799 H 0.4281 0.79816 0.72636 0.0
H3800 H 0.43406 0.78336 0.74078 0.0
H3801 H 0.43143 0.74608 0.7297 0.0
H3802 H 0.40871 0.70803 0.76986 0.0
H3803 H 0.41473 0.72253 0.75547 0.0
C3804 C 0.2826 0.41461 0.77401 0.0
C3805 C 0.2814 0.41807 0.78579 0.0
C3806 C 0.27428 0.41791 0.76565 0.0
C3807 C 0.24319 0.42501 0.76321 0.0
H3808 H 0.25153 0.431 0.73074 0.0
C3809 C 0.20842 0.42481 0.72612 0.0
C3810 C 0.21152 0.41751 0.71666 0.0
C3811 C 0.21686 0.42816 0.73443 0.0
C3812 C 0.24905 0.42938 0.73978 0.0
H3813 H 0.27072 0.42816 0.79793 0.0
H3814 H 0.25608 0.43387 0.78325 0.0
H3815 H 0.26677 0.43113 0.7458 0.0
H3816 H 0.22603 0.40854 0.70816 0.0
H3817 H 0.24063 0.41434 0.72254 0.0
H3818 H 0.22555 0.42276 0.7571 0.0
C3819 C 0.26349 0.42855 0.78054 0.0
C3820 C 0.25778 0.42945 0.7484 0.0
C3821 C 0.2719 0.42533 0.78893 0.0
C3822 C 0.22331 0.41411 0.71538 0.0
C3823 C 0.23173 0.41753 0.72358 0.0
C3824 C 0.23446 0.42493 0.75457 0.0
C3825 C 0.2645 0.42471 0.76885 0.0
C3826 C 0.25501 0.42685 0.76014 0.0
C3827 C 0.22858 0.4244 0.73333 0.0
C3828 C 0.23736 0.4267 0.7427 0.0
H3829 H 0.28983 0.40908 0.77126 0.0
H3830 H 0.27526 0.41467 0.75676 0.0
H3831 H 0.24078 0.42288 0.77216 0.0
H3832 H 0.19941 0.42759 0.72736 0.0
H3833 H 0.21419 0.43353 0.74182 0.0
C3834 C 0.57741 0.27338 0.78729 0.0
C3835 C 0.58447 0.28332 0.78525 0.0
C3836 C 0.57601 0.26483 0.77854 0.0
C3837 C 0.59193 0.25357 0.75289 0.0
H3838 H 0.56308 0.23723 0.74511 0.0
C3839 C 0.58993 0.22384 0.71285 0.0
C3840 C 0.58493 0.21265 0.71428 0.0
C3841 C 0.5884 0.23249 0.72135 0.0
C3842 C 0.57121 0.24167 0.74727 0.0
H3843 H 0.59483 0.29248 0.77212 0.0
H3844 H 0.59226 0.27775 0.75696 0.0
H3845 H 0.56297 0.25245 0.76039 0.0
H3846 H 0.57382 0.202 0.72552 0.0
H3847 H 0.57124 0.2172 0.74053 0.0
H3848 H 0.60023 0.24288 0.73994 0.0
C3849 C 0.58808 0.27637 0.76539 0.0
C3850 C 0.57115 0.25036 0.756 0.0
C3851 C 0.58951 0.28485 0.77409 0.0
C3852 C 0.57782 0.21052 0.72417 0.0
C3853 C 0.57632 0.21923 0.73275 0.0
C3854 C 0.59199 0.24494 0.74423 0.0
C3855 C 0.58162 0.2661 0.76761 0.0
C3856 C 0.58149 0.25653 0.75875 0.0
C3857 C 0.58188 0.23019 0.73157 0.0
C3858 C 0.58162 0.23901 0.74117 0.0
H3859 H 0.57338 0.27196 0.79579 0.0
H3860 H 0.57098 0.257 0.78051 0.0
H3861 H 0.60012 0.25791 0.75503 0.0
H3862 H 0.5953 0.22587 0.70526 0.0
H3863 H 0.59255 0.24095 0.72004 0.0
C3864 C 0.77281 0.41112 0.28349 0.0
C3865 C 0.78444 0.41459 0.28133 0.0
C3866 C 0.76408 0.41303 0.27514 0.0
C3867 C 0.75618 0.42846 0.24764 0.0
H3868 H 0.7371 0.40063 0.243 0.0
C3869 C 0.72438 0.42057 0.20799 0.0
C3870 C 0.7139 0.41455 0.21055 0.0
C3871 C 0.73282 0.42239 0.21677 0.0
C3872 C 0.74222 0.40855 0.24427 0.0
H3873 H 0.7959 0.4235 0.269 0.0
H3874 H 0.78058 0.42668 0.25421 0.0
H3875 H 0.75211 0.40067 0.25808 0.0
H3876 H 0.70363 0.40664 0.22453 0.0
H3877 H 0.71816 0.40998 0.23976 0.0
H3878 H 0.74623 0.43623 0.2336 0.0
C3879 C 0.77824 0.42254 0.26245 0.0
C3880 C 0.75084 0.40857 0.25293 0.0
C3881 C 0.78701 0.4207 0.2709 0.0
C3882 C 0.7117 0.4111 0.22219 0.0
C3883 C 0.72005 0.41298 0.23093 0.0
C3884 C 0.74749 0.42843 0.2389 0.0
C3885 C 0.76678 0.41836 0.26434 0.0
C3886 C 0.75782 0.41856 0.25485 0.0
C3887 C 0.73088 0.41826 0.22825 0.0
C3888 C 0.74032 0.41851 0.23725 0.0
H3889 H 0.77048 0.40658 0.29153 0.0
H3890 H 0.75526 0.40999 0.277 0.0
H3891 H 0.76144 0.43628 0.24891 0.0
H3892 H 0.72631 0.42335 0.1991 0.0
H3893 H 0.74108 0.42648 0.21444 0.0
C3894 C 0.58388 0.77474 0.28165 0.0
C3895 C 0.57998 0.78639 0.2804 0.0
C3896 C 0.58078 0.7662 0.27344 0.0
C3897 C 0.57312 0.76308 0.24252 0.0
H3898 H 0.56818 0.73061 0.25153 0.0
C3899 C 0.57287 0.72533 0.20842 0.0
C3900 C 0.58046 0.71605 0.21141 0.0
C3901 C 0.56975 0.73378 0.21681 0.0
C3902 C 0.56951 0.73965 0.24887 0.0
H3903 H 0.56938 0.79808 0.26972 0.0
H3904 H 0.56401 0.78309 0.25527 0.0
H3905 H 0.56802 0.74591 0.26652 0.0
H3906 H 0.59024 0.70807 0.2257 0.0
H3907 H 0.58482 0.72271 0.24021 0.0
H3908 H 0.57506 0.75675 0.22492 0.0
C3909 C 0.56952 0.78063 0.26263 0.0
C3910 C 0.56942 0.74841 0.25745 0.0
C3911 C 0.57256 0.7892 0.27093 0.0
C3912 C 0.58444 0.71513 0.22306 0.0
C3913 C 0.58124 0.72348 0.23143 0.0
C3914 C 0.57319 0.75431 0.23392 0.0
C3915 C 0.57373 0.76908 0.26373 0.0
C3916 C 0.57164 0.76017 0.25443 0.0
C3917 C 0.57403 0.733 0.22837 0.0
C3918 C 0.5718 0.74246 0.23707 0.0
H3919 H 0.58955 0.77223 0.28886 0.0
H3920 H 0.58431 0.75743 0.27447 0.0
H3921 H 0.57494 0.77205 0.23992 0.0
H3922 H 0.56963 0.72629 0.19953 0.0
H3923 H 0.56412 0.74099 0.21422 0.0
C3924 C 0.27192 0.57037 0.20879 0.0
C3925 C 0.2814 0.57759 0.21204 0.0
C3926 C 0.2635 0.56703 0.21711 0.0
C3927 C 0.25762 0.56602 0.24927 0.0
H3928 H 0.2255 0.57296 0.24036 0.0
C3929 C 0.22316 0.5823 0.28183 0.0
C3930 C 0.2114 0.57874 0.28068 0.0
C3931 C 0.23158 0.57873 0.27368 0.0
C3932 C 0.23438 0.57072 0.24294 0.0
H3933 H 0.28984 0.58634 0.22673 0.0
H3934 H 0.27525 0.58058 0.24111 0.0
H3935 H 0.2408 0.57259 0.22538 0.0
H3936 H 0.19934 0.56829 0.27027 0.0
H3937 H 0.21412 0.56216 0.25589 0.0
H3938 H 0.25129 0.56474 0.26692 0.0
C3939 C 0.27428 0.57745 0.23218 0.0
C3940 C 0.24315 0.5705 0.23435 0.0
C3941 C 0.28261 0.58085 0.22389 0.0
C3942 C 0.20833 0.57119 0.27139 0.0
C3943 C 0.21676 0.56772 0.26314 0.0
C3944 C 0.24887 0.56628 0.25785 0.0
C3945 C 0.26449 0.57071 0.22886 0.0
C3946 C 0.25494 0.56858 0.23749 0.0
C3947 C 0.22845 0.57158 0.26413 0.0
C3948 C 0.23723 0.56905 0.25484 0.0
H3949 H 0.27075 0.56769 0.19974 0.0
H3950 H 0.25609 0.56176 0.21432 0.0
H3951 H 0.26659 0.56429 0.25193 0.0
H3952 H 0.22586 0.58805 0.28891 0.0
H3953 H 0.24047 0.58199 0.27461 0.0
C3954 C 0.41122 0.22345 0.28226 0.0
C3955 C 0.41553 0.21193 0.28131 0.0
C3956 C 0.41418 0.23194 0.27395 0.0
C3957 C 0.42246 0.23477 0.24314 0.0
H3958 H 0.42626 0.26752 0.25165 0.0
C3959 C 0.42311 0.27189 0.20834 0.0
C3960 C 0.41531 0.28113 0.21088 0.0
C3961 C 0.42602 0.26363 0.21698 0.0
C3962 C 0.42524 0.25841 0.24914 0.0
H3963 H 0.42672 0.20041 0.27104 0.0
H3964 H 0.43186 0.21531 0.25643 0.0
H3965 H 0.42638 0.25252 0.26694 0.0
H3966 H 0.40487 0.28919 0.22464 0.0
H3967 H 0.40991 0.27487 0.23959 0.0
H3968 H 0.42089 0.24072 0.22537 0.0
C3969 C 0.42613 0.21771 0.26363 0.0
C3970 C 0.42531 0.24982 0.25788 0.0
C3971 C 0.42322 0.2092 0.27203 0.0
C3972 C 0.41085 0.28217 0.22234 0.0
C3973 C 0.41382 0.274 0.23097 0.0
C3974 C 0.42241 0.24338 0.23438 0.0
C3975 C 0.42151 0.22913 0.26443 0.0
C3976 C 0.42352 0.23795 0.25503 0.0
C3977 C 0.4213 0.26454 0.22836 0.0
C3978 C 0.4234 0.25532 0.23733 0.0
H3979 H 0.40533 0.2259 0.28932 0.0
H3980 H 0.41033 0.2406 0.27475 0.0
H3981 H 0.42097 0.22571 0.24066 0.0
H3982 H 0.42672 0.27083 0.19961 0.0
H3983 H 0.43186 0.25646 0.21474 0.0
C3984 C 0.78836 0.72569 0.57176 0.0
C3985 C 0.78525 0.71635 0.57922 0.0
C3986 C 0.77996 0.73404 0.5684 0.0
C3987 C 0.74779 0.73971 0.56762 0.0
H3988 H 0.75654 0.77206 0.57362 0.0
C3989 C 0.71504 0.77438 0.583 0.0
C3990 C 0.71611 0.78606 0.57916 0.0
C3991 C 0.72324 0.76593 0.57965 0.0
C3992 C 0.754 0.76311 0.57164 0.0
H3993 H 0.77075 0.70808 0.58843 0.0
H3994 H 0.75624 0.72253 0.58262 0.0
H3995 H 0.77162 0.75685 0.57358 0.0
H3996 H 0.72645 0.79793 0.56843 0.0
H3997 H 0.74092 0.78309 0.56266 0.0
H3998 H 0.7301 0.7459 0.56625 0.0
C3999 C 0.76511 0.72345 0.57932 0.0
C4000 C 0.76264 0.75439 0.57161 0.0
C4001 C 0.77348 0.7152 0.58275 0.0
C4002 C 0.72538 0.78901 0.57155 0.0
C4003 C 0.73369 0.78054 0.56828 0.0
C4004 C 0.73916 0.74842 0.56768 0.0
C4005 C 0.76828 0.73309 0.5723 0.0
C4006 C 0.75957 0.74253 0.57003 0.0
C4007 C 0.73277 0.76894 0.57242 0.0
C4008 C 0.74212 0.76015 0.57011 0.0
H4009 H 0.79735 0.72682 0.56888 0.0
H4010 H 0.78265 0.74133 0.56292 0.0
H4011 H 0.74518 0.73068 0.56615 0.0
H4012 H 0.70797 0.77177 0.58881 0.0
H4013 H 0.72236 0.75712 0.58312 0.0
C4014 C 0.78864 0.26998 0.41999 0.0
C4015 C 0.78573 0.28166 0.41735 0.0
C4016 C 0.77979 0.26166 0.42185 0.0
C4017 C 0.75947 0.24525 0.42751 0.0
H4018 H 0.7327 0.25013 0.40708 0.0
C4019 C 0.72135 0.21127 0.42254 0.0
C4020 C 0.71682 0.20995 0.41112 0.0
C4021 C 0.72942 0.22024 0.42504 0.0
C4022 C 0.74014 0.24856 0.41279 0.0
H4023 H 0.77147 0.2941 0.41572 0.0
H4024 H 0.75606 0.27984 0.41971 0.0
H4025 H 0.74738 0.26529 0.40878 0.0
H4026 H 0.71764 0.21665 0.39329 0.0
H4027 H 0.73182 0.23187 0.39753 0.0
H4028 H 0.75246 0.22809 0.4308 0.0
C4029 C 0.76509 0.27687 0.41974 0.0
C4030 C 0.74851 0.2574 0.41396 0.0
C4031 C 0.77391 0.2851 0.41757 0.0
C4032 C 0.72076 0.21754 0.40224 0.0
C4033 C 0.72887 0.22635 0.40469 0.0
C4034 C 0.75113 0.23629 0.42619 0.0
C4035 C 0.76786 0.26492 0.42135 0.0
C4036 C 0.7584 0.25584 0.4212 0.0
C4037 C 0.73317 0.22797 0.41615 0.0
C4038 C 0.7415 0.23776 0.4186 0.0
H4039 H 0.79771 0.26711 0.41981 0.0
H4040 H 0.78232 0.25256 0.42297 0.0
H4041 H 0.76686 0.24378 0.43331 0.0
H4042 H 0.71849 0.20554 0.42957 0.0
H4043 H 0.73253 0.22126 0.43397 0.0
C4044 C 0.77272 0.71225 0.4141 0.0
C4045 C 0.78449 0.71475 0.41679 0.0
C4046 C 0.764 0.72063 0.4159 0.0
C4047 C 0.75636 0.749 0.42964 0.0
H4048 H 0.73688 0.752 0.40186 0.0
C4049 C 0.72443 0.78813 0.42027 0.0
C4050 C 0.71396 0.78538 0.41431 0.0
C4051 C 0.73285 0.77941 0.42241 0.0
C4052 C 0.7421 0.75119 0.40978 0.0
H4053 H 0.79624 0.72772 0.4243 0.0
H4054 H 0.7809 0.74255 0.42732 0.0
H4055 H 0.75186 0.73693 0.40259 0.0
H4056 H 0.7037 0.77118 0.40682 0.0
H4057 H 0.71817 0.75604 0.41079 0.0
H4058 H 0.7465 0.76343 0.43674 0.0
C4059 C 0.77846 0.73403 0.42386 0.0
C4060 C 0.75071 0.74254 0.41019 0.0
C4061 C 0.78724 0.72555 0.42212 0.0
C4062 C 0.71177 0.77364 0.41123 0.0
C4063 C 0.72009 0.76496 0.41346 0.0
C4064 C 0.74765 0.7577 0.42924 0.0
C4065 C 0.76684 0.73178 0.42034 0.0
C4066 C 0.75786 0.74123 0.42016 0.0
C4067 C 0.7309 0.76779 0.41869 0.0
C4068 C 0.74033 0.75878 0.41934 0.0
H4069 H 0.77028 0.70393 0.41018 0.0
H4070 H 0.75507 0.71853 0.41338 0.0
H4071 H 0.76177 0.7482 0.43742 0.0
H4072 H 0.72636 0.79711 0.42276 0.0
H4073 H 0.7411 0.78188 0.42644 0.0
C4074 C 0.22346 0.71534 0.41072 0.0
C4075 C 0.21194 0.71614 0.4151 0.0
C4076 C 0.23191 0.72364 0.41382 0.0
C4077 C 0.23473 0.75427 0.42249 0.0
H4078 H 0.26741 0.74563 0.42661 0.0
C4079 C 0.27203 0.78891 0.4233 0.0
C4080 C 0.28131 0.78626 0.41559 0.0
C4081 C 0.2637 0.78034 0.42621 0.0
C4082 C 0.25831 0.74819 0.42551 0.0
H4083 H 0.20039 0.72614 0.42649 0.0
H4084 H 0.21523 0.74077 0.43183 0.0
H4085 H 0.25235 0.7304 0.42649 0.0
H4086 H 0.28937 0.77237 0.40531 0.0
H4087 H 0.27493 0.75756 0.41034 0.0
H4088 H 0.24076 0.77203 0.42101 0.0
C4089 C 0.21765 0.73368 0.42598 0.0
C4090 C 0.2497 0.73947 0.42544 0.0
C4091 C 0.20918 0.72527 0.42296 0.0
C4092 C 0.28232 0.77476 0.41123 0.0
C4093 C 0.27408 0.76621 0.4142 0.0
C4094 C 0.24336 0.76301 0.42255 0.0
C4095 C 0.22907 0.733 0.42133 0.0
C4096 C 0.23786 0.74237 0.42353 0.0
C4097 C 0.26458 0.76892 0.42158 0.0
C4098 C 0.25529 0.76001 0.42365 0.0
H4099 H 0.22592 0.7084 0.40471 0.0
H4100 H 0.24057 0.72295 0.40996 0.0
H4101 H 0.22569 0.75678 0.42092 0.0
H4102 H 0.271 0.79769 0.42682 0.0
H4103 H 0.2565 0.78267 0.43197 0.0
C4104 C 0.28231 0.2233 0.40932 0.0
C4105 C 0.28153 0.21197 0.41417 0.0
C4106 C 0.2741 0.2319 0.41222 0.0
C4107 C 0.24368 0.23529 0.4216 0.0
H4108 H 0.25267 0.26804 0.42428 0.0
C4109 C 0.20931 0.27281 0.42266 0.0
C4110 C 0.21167 0.28183 0.41455 0.0
C4111 C 0.21797 0.26452 0.42545 0.0
C4112 C 0.25002 0.25893 0.42358 0.0
H4113 H 0.27165 0.20092 0.42616 0.0
H4114 H 0.25722 0.21604 0.43118 0.0
H4115 H 0.26779 0.25287 0.42415 0.0
H4116 H 0.22514 0.28951 0.40344 0.0
H4117 H 0.2401 0.27515 0.40828 0.0
H4118 H 0.22592 0.2414 0.42058 0.0
C4119 C 0.26421 0.21818 0.42509 0.0
C4120 C 0.25867 0.25025 0.4235 0.0
C4121 C 0.2725 0.20955 0.42225 0.0
C4122 C 0.22298 0.28265 0.40967 0.0
C4123 C 0.23161 0.27446 0.41253 0.0
C4124 C 0.23501 0.24399 0.42168 0.0
C4125 C 0.26487 0.22942 0.42001 0.0
C4126 C 0.25563 0.23837 0.42212 0.0
C4127 C 0.22917 0.2652 0.4203 0.0
C4128 C 0.23812 0.25592 0.42228 0.0
H4129 H 0.28916 0.2255 0.40311 0.0
H4130 H 0.27477 0.24041 0.40802 0.0
H4131 H 0.24106 0.22623 0.42045 0.0
H4132 H 0.20069 0.27193 0.42658 0.0
H4133 H 0.21586 0.25752 0.43152 0.0
C4134 C 0.2106 0.27118 0.57474 0.0
C4135 C 0.21297 0.28014 0.58292 0.0
C4136 C 0.21921 0.26285 0.57195 0.0
C4137 C 0.25124 0.25715 0.57389 0.0
H4138 H 0.24225 0.22442 0.57665 0.0
C4139 C 0.28355 0.22133 0.58771 0.0
C4140 C 0.28281 0.21009 0.58265 0.0
C4141 C 0.27531 0.22996 0.58498 0.0
C4142 C 0.24488 0.2335 0.57561 0.0
H4143 H 0.22643 0.28762 0.59417 0.0
H4144 H 0.24131 0.27319 0.58933 0.0
H4145 H 0.22712 0.23962 0.57663 0.0
H4146 H 0.27294 0.19924 0.57049 0.0
H4147 H 0.25844 0.21439 0.56577 0.0
H4148 H 0.26902 0.25109 0.57332 0.0
C4149 C 0.23285 0.27259 0.58503 0.0
C4150 C 0.23621 0.24221 0.57559 0.0
C4151 C 0.22425 0.28082 0.58788 0.0
C4152 C 0.27376 0.20779 0.57455 0.0
C4153 C 0.26543 0.21644 0.57188 0.0
C4154 C 0.25989 0.24847 0.57392 0.0
C4155 C 0.2304 0.26342 0.57716 0.0
C4156 C 0.23933 0.25414 0.57512 0.0
C4157 C 0.26607 0.22759 0.57715 0.0
C4158 C 0.25684 0.23658 0.57516 0.0
H4159 H 0.202 0.27041 0.57075 0.0
H4160 H 0.2171 0.2559 0.5658 0.0
H4161 H 0.2539 0.26626 0.57329 0.0
H4162 H 0.29041 0.22344 0.59395 0.0
H4163 H 0.27596 0.2384 0.58932 0.0
C4164 C 0.7875 0.27119 0.57592 0.0
C4165 C 0.78507 0.28155 0.5822 0.0
C4166 C 0.77868 0.26277 0.57417 0.0
C4167 C 0.7515 0.25309 0.58849 0.0
H4168 H 0.74621 0.2344 0.56051 0.0
C4169 C 0.71196 0.22284 0.58589 0.0
C4170 C 0.71394 0.21126 0.58212 0.0
C4171 C 0.72041 0.2315 0.58413 0.0
C4172 C 0.74767 0.23951 0.5684 0.0
H4173 H 0.77129 0.29164 0.59064 0.0
H4174 H 0.756 0.27716 0.58741 0.0
H4175 H 0.76155 0.24958 0.56051 0.0
H4176 H 0.72608 0.19988 0.57286 0.0
H4177 H 0.74101 0.21509 0.56991 0.0
H4178 H 0.73782 0.2431 0.59647 0.0
C4179 C 0.76475 0.27533 0.58416 0.0
C4180 C 0.75643 0.24818 0.5684 0.0
C4181 C 0.77352 0.28366 0.58597 0.0
C4182 C 0.72431 0.20871 0.5759 0.0
C4183 C 0.73284 0.21742 0.57419 0.0
C4184 C 0.74281 0.24449 0.58849 0.0
C4185 C 0.76731 0.26461 0.57862 0.0
C4186 C 0.75831 0.25516 0.57841 0.0
C4187 C 0.73112 0.22882 0.57862 0.0
C4188 C 0.74066 0.23771 0.57842 0.0
H4189 H 0.79631 0.26932 0.57289 0.0
H4190 H 0.78091 0.25459 0.56986 0.0
H4191 H 0.75295 0.25806 0.59647 0.0
H4192 H 0.70398 0.22517 0.59052 0.0
H4193 H 0.71868 0.24028 0.58737 0.0
C4194 C 0.27217 0.78852 0.57232 0.0
C4195 C 0.28159 0.78561 0.57976 0.0
C4196 C 0.26388 0.78 0.56913 0.0
C4197 C 0.25858 0.74778 0.56877 0.0
H4198 H 0.22611 0.75621 0.5746 0.0
C4199 C 0.2242 0.71474 0.58424 0.0
C4200 C 0.21254 0.71564 0.5803 0.0
C4201 C 0.23257 0.72302 0.5809 0.0
C4202 C 0.2351 0.75375 0.57267 0.0
H4203 H 0.29002 0.77132 0.58916 0.0
H4204 H 0.27565 0.7566 0.58367 0.0
H4205 H 0.24116 0.77146 0.57444 0.0
H4206 H 0.20062 0.72578 0.56942 0.0
H4207 H 0.21532 0.74039 0.56368 0.0
H4208 H 0.25259 0.73 0.56755 0.0
C4209 C 0.27464 0.76541 0.58023 0.0
C4210 C 0.24372 0.7625 0.57258 0.0
C4211 C 0.28284 0.7739 0.58348 0.0
C4212 C 0.20953 0.72484 0.57262 0.0
C4213 C 0.21792 0.73323 0.56936 0.0
C4214 C 0.24997 0.73905 0.56889 0.0
C4215 C 0.26495 0.76839 0.5732 0.0
C4216 C 0.25561 0.75954 0.57105 0.0
C4217 C 0.22949 0.73247 0.5736 0.0
C4218 C 0.2382 0.74189 0.57126 0.0
H4219 H 0.27097 0.79745 0.56928 0.0
H4220 H 0.25654 0.78253 0.56364 0.0
H4221 H 0.26764 0.74525 0.56733 0.0
H4222 H 0.22684 0.70773 0.59011 0.0
H4223 H 0.24137 0.72227 0.58444 0.0
C4224 C 0.04135 0.18946 0.31426 0.0
C4225 C 0.04828 0.19721 0.32089 0.0
C4226 C 0.02913 0.1903 0.31448 0.0
C4227 C 0.00425 0.2015 0.33183 0.0
H4228 H 0.98742 0.19747 0.3025 0.0
C4229 C 0.95347 0.20585 0.32771 0.0
C4230 C 0.94795 0.19719 0.32086 0.0
C4231 C 0.96574 0.2067 0.32797 0.0
C4232 C 0.99198 0.19853 0.31078 0.0
H4233 H 0.04784 0.21186 0.33305 0.0
H4234 H 0.0264 0.21335 0.33339 0.0
H4235 H 0.00879 0.19744 0.3025 0.0
H4236 H 0.95095 0.18257 0.30901 0.0
H4237 H 0.97223 0.18401 0.30951 0.0
H4238 H 0.98736 0.20248 0.3401 0.0
C4239 C 0.03045 0.20658 0.32809 0.0
C4240 C 0.00423 0.19851 0.31078 0.0
C4241 C 0.04272 0.20576 0.32785 0.0
C4242 C 0.95492 0.18938 0.31435 0.0
C4243 C 0.96713 0.19025 0.31457 0.0
C4244 C 0.99196 0.20153 0.33183 0.0
C4245 C 0.02353 0.1989 0.32133 0.0
C4246 C 0.01052 0.19978 0.32133 0.0
C4247 C 0.97269 0.19895 0.32132 0.0
C4248 C 0.9857 0.19984 0.32132 0.0
H4249 H 0.04536 0.18275 0.30885 0.0
H4250 H 0.02406 0.18411 0.30934 0.0
H4251 H 0.00884 0.20242 0.34011 0.0
H4252 H 0.94832 0.212 0.33282 0.0
H4253 H 0.96977 0.21353 0.3332 0.0
C4254 C 0.79179 0.954 0.32768 0.0
C4255 C 0.80047 0.94825 0.32106 0.0
C4256 C 0.79131 0.96629 0.32798 0.0
C4257 C 0.8005 0.99218 0.31088 0.0
H4258 H 0.79527 0.00942 0.33978 0.0
C4259 C 0.80852 0.0418 0.31392 0.0
C4260 C 0.80042 0.04864 0.32022 0.0
C4261 C 0.80793 0.02957 0.31426 0.0
C4262 C 0.79659 0.00472 0.33161 0.0
H4263 H 0.81562 0.95084 0.3098 0.0
H4264 H 0.81485 0.97217 0.3104 0.0
H4265 H 0.79539 0.98794 0.34008 0.0
H4266 H 0.78539 0.04803 0.33189 0.0
H4267 H 0.78431 0.02658 0.33243 0.0
H4268 H 0.80175 0.00887 0.3024 0.0
C4269 C 0.80829 0.96723 0.31522 0.0
C4270 C 0.79666 0.99243 0.33179 0.0
C4271 C 0.80879 0.955 0.31494 0.0
C4272 C 0.79175 0.04299 0.32694 0.0
C4273 C 0.79117 0.03071 0.3273 0.0
C4274 C 0.80042 0.00442 0.3107 0.0
C4275 C 0.79948 0.97302 0.32162 0.0
C4276 C 0.79879 0.98604 0.32145 0.0
C4277 C 0.79922 0.02387 0.3209 0.0
C4278 C 0.79862 0.01085 0.32108 0.0
H4279 H 0.78525 0.94903 0.33248 0.0
H4280 H 0.78438 0.9705 0.33294 0.0
H4281 H 0.8019 0.9875 0.30272 0.0
H4282 H 0.81534 0.04588 0.30869 0.0
H4283 H 0.81439 0.02456 0.3094 0.0
C4284 C 0.95447 0.80857 0.31529 0.0
C4285 C 0.94772 0.80014 0.32125 0.0
C4286 C 0.9667 0.80824 0.31578 0.0
C4287 C 0.99175 0.79678 0.33277 0.0
H4288 H 0.0087 0.80248 0.30378 0.0
C4289 C 0.04245 0.79216 0.32855 0.0
C4290 C 0.04816 0.80089 0.32194 0.0
C4291 C 0.03016 0.79162 0.32885 0.0
C4292 C 0.00411 0.80098 0.31198 0.0
H4293 H 0.94852 0.78485 0.33258 0.0
H4294 H 0.96998 0.78425 0.33339 0.0
H4295 H 0.98734 0.80237 0.30367 0.0
H4296 H 0.04548 0.81601 0.31066 0.0
H4297 H 0.02417 0.81513 0.31128 0.0
H4298 H 0.0086 0.79546 0.34107 0.0
C4299 C 0.96576 0.79116 0.3284 0.0
C4300 C 0.99186 0.80092 0.31191 0.0
C4301 C 0.95348 0.79148 0.32789 0.0
C4302 C 0.04136 0.80913 0.31578 0.0
C4303 C 0.02913 0.80859 0.31608 0.0
C4304 C 0.00404 0.79685 0.33284 0.0
C4305 C 0.9725 0.79947 0.32223 0.0
C4306 C 0.98553 0.79897 0.32233 0.0
C4307 C 0.02338 0.79978 0.32252 0.0
C4308 C 0.01035 0.7991 0.32246 0.0
H4309 H 0.9503 0.8154 0.31014 0.0
H4310 H 0.97163 0.8149 0.3111 0.0
H4311 H 0.98712 0.79533 0.34095 0.0
H4312 H 0.04745 0.78568 0.33338 0.0
H4313 H 0.02599 0.78468 0.33383 0.0
C4314 C 0.18838 0.04193 0.315 0.0
C4315 C 0.19651 0.04873 0.3213 0.0
C4316 C 0.18897 0.0297 0.31527 0.0
C4317 C 0.20044 0.00461 0.33215 0.0
H4318 H 0.19554 0.98798 0.30284 0.0
C4319 C 0.20533 0.95399 0.32748 0.0
C4320 C 0.19667 0.94835 0.32073 0.0
C4321 C 0.2059 0.96627 0.32786 0.0
C4322 C 0.19683 0.99249 0.31111 0.0
H4323 H 0.21155 0.04805 0.33297 0.0
H4324 H 0.2126 0.02659 0.33339 0.0
H4325 H 0.19547 0.00935 0.30299 0.0
H4326 H 0.18172 0.95113 0.30924 0.0
H4327 H 0.18266 0.97244 0.30998 0.0
H4328 H 0.20171 0.98767 0.34027 0.0
C4329 C 0.20573 0.03075 0.32831 0.0
C4330 C 0.19679 0.00473 0.3112 0.0
C4331 C 0.20515 0.04303 0.32803 0.0
C4332 C 0.18854 0.9552 0.31448 0.0
C4333 C 0.18912 0.96743 0.31484 0.0
C4334 C 0.20048 0.99232 0.33206 0.0
C4335 C 0.1977 0.02396 0.32183 0.0
C4336 C 0.19842 0.01094 0.32174 0.0
C4337 C 0.19785 0.97311 0.32146 0.0
C4338 C 0.1985 0.98613 0.32156 0.0
H4339 H 0.18158 0.04604 0.30978 0.0
H4340 H 0.18252 0.02472 0.31035 0.0
H4341 H 0.20164 0.00915 0.34042 0.0
H4342 H 0.21172 0.94894 0.33238 0.0
H4343 H 0.21277 0.9704 0.33298 0.0
C4344 C 0.0432 0.79058 0.66821 0.0
C4345 C 0.04878 0.79917 0.6751 0.0
C4346 C 0.03092 0.79004 0.66768 0.0
C4347 C 0.00465 0.79891 0.68441 0.0
H4348 H 0.98798 0.7946 0.65502 0.0
C4349 C 0.95553 0.80841 0.68059 0.0
C4350 C 0.94848 0.80041 0.67439 0.0
C4351 C 0.96773 0.80756 0.68021 0.0
C4352 C 0.99252 0.79566 0.66331 0.0
H4353 H 0.0459 0.81405 0.68665 0.0
H4354 H 0.0246 0.81315 0.68566 0.0
H4355 H 0.00948 0.79434 0.65521 0.0
H4356 H 0.94871 0.78536 0.66273 0.0
H4357 H 0.97017 0.78386 0.66209 0.0
H4358 H 0.98779 0.80034 0.69251 0.0
C4359 C 0.02965 0.80672 0.6808 0.0
C4360 C 0.00482 0.79551 0.66342 0.0
C4361 C 0.04187 0.80728 0.68131 0.0
C4362 C 0.95392 0.79166 0.66759 0.0
C4363 C 0.96619 0.79082 0.6672 0.0
C4364 C 0.99241 0.79906 0.68429 0.0
C4365 C 0.02403 0.79803 0.67409 0.0
C4366 C 0.01101 0.79735 0.67395 0.0
C4367 C 0.97321 0.79868 0.67363 0.0
C4368 C 0.9862 0.79765 0.67373 0.0
H4369 H 0.0483 0.78421 0.66333 0.0
H4370 H 0.02683 0.78321 0.66248 0.0
H4371 H 0.00915 0.80008 0.69271 0.0
H4372 H 0.95162 0.81531 0.68585 0.0
H4373 H 0.97289 0.8139 0.68508 0.0
C4374 C 0.1876 0.0412 0.68051 0.0
C4375 C 0.1961 0.04798 0.67468 0.0
C4376 C 0.18775 0.02897 0.67968 0.0
C4377 C 0.20721 0.00397 0.67324 0.0
H4378 H 0.17782 0.98701 0.67028 0.0
C4379 C 0.20499 0.95324 0.66866 0.0
C4380 C 0.19636 0.94763 0.67547 0.0
C4381 C 0.20511 0.9655 0.66762 0.0
C4382 C 0.1861 0.99161 0.67119 0.0
H4383 H 0.2114 0.04726 0.66338 0.0
H4384 H 0.21163 0.02585 0.66188 0.0
H4385 H 0.17775 0.00841 0.67019 0.0
H4386 H 0.18111 0.95046 0.68653 0.0
H4387 H 0.18136 0.97173 0.68479 0.0
H4388 H 0.21553 0.98714 0.67439 0.0
C4389 C 0.20491 0.03001 0.66717 0.0
C4390 C 0.18605 0.00387 0.67114 0.0
C4391 C 0.20474 0.04227 0.66798 0.0
C4392 C 0.18785 0.9545 0.68117 0.0
C4393 C 0.18795 0.9667 0.68011 0.0
C4394 C 0.20725 0.99168 0.67329 0.0
C4395 C 0.1964 0.02322 0.67301 0.0
C4396 C 0.19658 0.0102 0.67233 0.0
C4397 C 0.19657 0.97236 0.67333 0.0
C4398 C 0.19667 0.98537 0.67244 0.0
H4399 H 0.18085 0.04533 0.68578 0.0
H4400 H 0.18118 0.024 0.68444 0.0
H4401 H 0.21546 0.00858 0.67428 0.0
H4402 H 0.21167 0.94818 0.66416 0.0
H4403 H 0.21181 0.96959 0.66225 0.0
C4404 C 0.95383 0.20412 0.67087 0.0
C4405 C 0.94795 0.19552 0.67747 0.0
C4406 C 0.96611 0.20436 0.67048 0.0
C4407 C 0.9922 0.19426 0.68688 0.0
H4408 H 0.00868 0.1998 0.6576 0.0
C4409 C 0.04194 0.18679 0.68255 0.0
C4410 C 0.04845 0.19515 0.67625 0.0
C4411 C 0.02968 0.18707 0.68244 0.0
C4412 C 0.00421 0.19837 0.66587 0.0
H4413 H 0.95031 0.18034 0.68874 0.0
H4414 H 0.97166 0.18069 0.68798 0.0
H4415 H 0.98724 0.19995 0.6579 0.0
H4416 H 0.04723 0.2103 0.66477 0.0
H4417 H 0.02579 0.21084 0.66464 0.0
H4418 H 0.00912 0.19266 0.69486 0.0
C4419 C 0.96682 0.18736 0.68323 0.0
C4420 C 0.99192 0.19846 0.66604 0.0
C4421 C 0.95458 0.18712 0.6836 0.0
C4422 C 0.04245 0.20372 0.66971 0.0
C4423 C 0.03017 0.204 0.66959 0.0
C4424 C 0.00445 0.19417 0.68671 0.0
C4425 C 0.97274 0.19601 0.67672 0.0
C4426 C 0.98578 0.19631 0.67653 0.0
C4427 C 0.02365 0.19572 0.67603 0.0
C4428 C 0.01061 0.19614 0.67619 0.0
H4429 H 0.94896 0.21073 0.66606 0.0
H4430 H 0.97041 0.2112 0.66546 0.0
H4431 H 0.98774 0.1928 0.69515 0.0
H4432 H 0.04629 0.18004 0.68764 0.0
H4433 H 0.02492 0.18045 0.68734 0.0
C4434 C 0.79147 0.04288 0.66934 0.0
C4435 C 0.80006 0.04873 0.67599 0.0
C4436 C 0.79093 0.0306 0.66929 0.0
C4437 C 0.7997 0.00488 0.68688 0.0
H4438 H 0.79503 0.98739 0.65805 0.0
C4439 C 0.80716 0.95505 0.68455 0.0
C4440 C 0.79927 0.94827 0.67793 0.0
C4441 C 0.8067 0.96729 0.68415 0.0
C4442 C 0.79618 0.99215 0.6662 0.0
H4443 H 0.81495 0.0463 0.68763 0.0
H4444 H 0.81404 0.02495 0.68748 0.0
H4445 H 0.79527 0.00884 0.65754 0.0
H4446 H 0.78471 0.949 0.66568 0.0
H4447 H 0.78384 0.97044 0.66507 0.0
H4448 H 0.80063 0.98826 0.69556 0.0
C4449 C 0.80762 0.02982 0.68243 0.0
C4450 C 0.79633 0.00443 0.6659 0.0
C4451 C 0.80819 0.04207 0.68245 0.0
C4452 C 0.79092 0.95399 0.67087 0.0
C4453 C 0.79046 0.96627 0.67047 0.0
C4454 C 0.79952 0.99263 0.68719 0.0
C4455 C 0.79894 0.02395 0.67593 0.0
C4456 C 0.79823 0.01092 0.67623 0.0
C4457 C 0.79833 0.97306 0.67714 0.0
C4458 C 0.79791 0.98611 0.67683 0.0
H4459 H 0.78508 0.04778 0.66428 0.0
H4460 H 0.78409 0.02632 0.66425 0.0
H4461 H 0.80094 0.00963 0.69503 0.0
H4462 H 0.81373 0.95092 0.69004 0.0
H4463 H 0.81303 0.97224 0.68925 0.0
C4464 C 0.31662 0.9555 0.18736 0.0
C4465 C 0.32184 0.94844 0.19603 0.0
C4466 C 0.31792 0.96767 0.18762 0.0
C4467 C 0.32428 0.99233 0.20745 0.0
H4468 H 0.32863 0.00931 0.17825 0.0
C4469 C 0.32891 0.04306 0.20551 0.0
C4470 C 0.32235 0.04865 0.19667 0.0
C4471 C 0.33006 0.03082 0.20561 0.0
C4472 C 0.32735 0.0047 0.18647 0.0
H4473 H 0.33256 0.94862 0.21176 0.0
H4474 H 0.33487 0.96999 0.2122 0.0
H4475 H 0.32854 0.98792 0.17813 0.0
H4476 H 0.3119 0.04582 0.181 0.0
H4477 H 0.31385 0.02455 0.18121 0.0
H4478 H 0.3229 0.00916 0.21574 0.0
C4479 C 0.3297 0.96606 0.20525 0.0
C4480 C 0.3273 0.99245 0.1864 0.0
C4481 C 0.32843 0.95383 0.20496 0.0
C4482 C 0.31704 0.04178 0.18791 0.0
C4483 C 0.31822 0.02959 0.18799 0.0
C4484 C 0.32433 0.00461 0.20751 0.0
C4485 C 0.32446 0.97311 0.19656 0.0
C4486 C 0.32555 0.98611 0.19685 0.0
C4487 C 0.32472 0.02395 0.19684 0.0
C4488 C 0.32565 0.01094 0.19698 0.0
H4489 H 0.31145 0.95163 0.18037 0.0
H4490 H 0.31361 0.97286 0.18091 0.0
H4491 H 0.32281 0.98771 0.21563 0.0
H4492 H 0.3331 0.04812 0.21238 0.0
H4493 H 0.33519 0.02674 0.2125 0.0
C4494 C 0.95379 0.32655 0.20455 0.0
C4495 C 0.94802 0.3198 0.19598 0.0
C4496 C 0.96606 0.32725 0.2047 0.0
C4497 C 0.99206 0.32301 0.18573 0.0
H4498 H 0.00905 0.32035 0.21513 0.0
C4499 C 0.04167 0.31397 0.18722 0.0
C4500 C 0.04845 0.31997 0.1956 0.0
C4501 C 0.02944 0.31467 0.18744 0.0
C4502 C 0.00443 0.32127 0.20686 0.0
H4503 H 0.95059 0.30845 0.18089 0.0
H4504 H 0.97192 0.30962 0.18121 0.0
H4505 H 0.9876 0.32029 0.21522 0.0
H4506 H 0.04772 0.33144 0.21078 0.0
H4507 H 0.02629 0.33273 0.21112 0.0
H4508 H 0.00884 0.32388 0.17735 0.0
C4509 C 0.96699 0.3145 0.18772 0.0
C4510 C 0.99214 0.32123 0.20692 0.0
C4511 C 0.95476 0.31377 0.18758 0.0
C4512 C 0.04273 0.3267 0.20421 0.0
C4513 C 0.03046 0.3274 0.20444 0.0
C4514 C 0.00431 0.32305 0.18568 0.0
C4515 C 0.97279 0.32126 0.19626 0.0
C4516 C 0.98582 0.32195 0.19633 0.0
C4517 C 0.02368 0.3214 0.19604 0.0
C4518 C 0.01065 0.32203 0.19622 0.0
H4519 H 0.94883 0.3313 0.21113 0.0
H4520 H 0.97027 0.33262 0.21134 0.0
H4521 H 0.98745 0.32382 0.17745 0.0
H4522 H 0.04581 0.30866 0.1805 0.0
H4523 H 0.02448 0.30979 0.18095 0.0
C4524 C 0.66923 0.95485 0.20435 0.0
C4525 C 0.67576 0.94906 0.19561 0.0
C4526 C 0.66898 0.96713 0.20481 0.0
C4527 C 0.68602 0.99301 0.1954 0.0
H4528 H 0.65728 0.01026 0.20135 0.0
C4529 C 0.68306 0.04283 0.18833 0.0
C4530 C 0.67694 0.04952 0.19669 0.0
C4531 C 0.68266 0.03058 0.18865 0.0
C4532 C 0.6654 0.00556 0.19982 0.0
H4533 H 0.68689 0.9516 0.18036 0.0
H4534 H 0.68635 0.97294 0.18112 0.0
H4535 H 0.65691 0.9888 0.20102 0.0
H4536 H 0.66552 0.04863 0.21189 0.0
H4537 H 0.66487 0.02717 0.2125 0.0
H4538 H 0.69452 0.00969 0.19417 0.0
C4539 C 0.68158 0.96802 0.18772 0.0
C4540 C 0.66519 0.99327 0.19963 0.0
C4541 C 0.68183 0.95578 0.18724 0.0
C4542 C 0.67032 0.0437 0.20533 0.0
C4543 C 0.6699 0.03142 0.20564 0.0
C4544 C 0.68623 0.00525 0.1956 0.0
C4545 C 0.67527 0.97385 0.19658 0.0
C4546 C 0.67548 0.98687 0.19728 0.0
C4547 C 0.67613 0.02473 0.19733 0.0
C4548 C 0.67591 0.01169 0.19768 0.0
H4549 H 0.66448 0.9499 0.21093 0.0
H4550 H 0.66409 0.97136 0.21179 0.0
H4551 H 0.69415 0.98833 0.19382 0.0
H4552 H 0.6882 0.04704 0.18153 0.0
H4553 H 0.68739 0.0257 0.182 0.0
C4554 C 0.04212 0.68297 0.18913 0.0
C4555 C 0.04899 0.6769 0.19738 0.0
C4556 C 0.0299 0.68233 0.18953 0.0
C4557 C 0.00518 0.6647 0.2008 0.0
H4558 H 0.98765 0.69332 0.19505 0.0
C4559 C 0.95435 0.66815 0.20516 0.0
C4560 C 0.94861 0.67459 0.19633 0.0
C4561 C 0.96663 0.66798 0.20574 0.0
C4562 C 0.99241 0.68523 0.19657 0.0
H4563 H 0.04843 0.6653 0.21248 0.0
H4564 H 0.02698 0.66426 0.21323 0.0
H4565 H 0.009 0.69391 0.19537 0.0
H4566 H 0.95123 0.68566 0.18104 0.0
H4567 H 0.97255 0.68528 0.18202 0.0
H4568 H 0.98849 0.65604 0.20197 0.0
C4569 C 0.03109 0.66943 0.20639 0.0
C4570 C 0.00465 0.68556 0.19675 0.0
C4571 C 0.04336 0.67007 0.20599 0.0
C4572 C 0.95537 0.68066 0.18799 0.0
C4573 C 0.9676 0.68051 0.18859 0.0
C4574 C 0.99289 0.66437 0.20064 0.0
C4575 C 0.02422 0.67563 0.19821 0.0
C4576 C 0.01119 0.67528 0.1987 0.0
C4577 C 0.97338 0.67428 0.19754 0.0
C4578 C 0.98639 0.67461 0.19835 0.0
H4579 H 0.04618 0.68826 0.18234 0.0
H4580 H 0.02488 0.68704 0.18296 0.0
H4581 H 0.00997 0.65661 0.20224 0.0
H4582 H 0.94936 0.6634 0.21171 0.0
H4583 H 0.97083 0.66315 0.21278 0.0
C4584 C 0.31484 0.95506 0.80834 0.0
C4585 C 0.32115 0.94819 0.80026 0.0
C4586 C 0.31513 0.96728 0.80768 0.0
C4587 C 0.3321 0.9923 0.79626 0.0
H4588 H 0.30272 0.00893 0.80071 0.0
C4589 C 0.32753 0.04291 0.79119 0.0
C4590 C 0.32057 0.04859 0.79966 0.0
C4591 C 0.32793 0.03063 0.79069 0.0
C4592 C 0.31102 0.00443 0.79956 0.0
H4593 H 0.33288 0.94877 0.78528 0.0
H4594 H 0.33338 0.97023 0.78412 0.0
H4595 H 0.30288 0.98757 0.80086 0.0
H4596 H 0.30876 0.04588 0.81435 0.0
H4597 H 0.30956 0.02455 0.81355 0.0
H4598 H 0.34023 0.00924 0.79506 0.0
C4599 C 0.32825 0.96611 0.79099 0.0
C4600 C 0.31111 0.99218 0.79963 0.0
C4601 C 0.32793 0.95383 0.79162 0.0
C4602 C 0.31416 0.04177 0.80768 0.0
C4603 C 0.31455 0.02954 0.80717 0.0
C4604 C 0.33201 0.00459 0.79619 0.0
C4605 C 0.32174 0.97296 0.79895 0.0
C4606 C 0.32167 0.98597 0.79815 0.0
C4607 C 0.32137 0.02382 0.79862 0.0
C4608 C 0.32148 0.01079 0.79801 0.0
H4609 H 0.30958 0.951 0.81513 0.0
H4610 H 0.3102 0.9723 0.81408 0.0
H4611 H 0.34038 0.98775 0.79517 0.0
H4612 H 0.33256 0.04794 0.78488 0.0
H4613 H 0.3332 0.02648 0.78395 0.0
C4614 C 0.04308 0.32717 0.79097 0.0
C4615 C 0.04854 0.32041 0.79973 0.0
C4616 C 0.03081 0.32761 0.79018 0.0
C4617 C 0.00446 0.31082 0.79876 0.0
H4618 H 0.98772 0.34009 0.79397 0.0
C4619 C 0.95513 0.31463 0.80756 0.0
C4620 C 0.94821 0.32095 0.79954 0.0
C4621 C 0.96734 0.31488 0.80679 0.0
C4622 C 0.99228 0.33183 0.79516 0.0
H4623 H 0.04543 0.30899 0.81467 0.0
H4624 H 0.02416 0.30982 0.81335 0.0
H4625 H 0.00922 0.34 0.79402 0.0
H4626 H 0.94868 0.33262 0.7845 0.0
H4627 H 0.97013 0.33301 0.78313 0.0
H4628 H 0.98762 0.30264 0.8 0.0
C4629 C 0.0293 0.31465 0.80697 0.0
C4630 C 0.00458 0.33178 0.79519 0.0
C4631 C 0.04151 0.31423 0.80777 0.0
C4632 C 0.95378 0.32766 0.79081 0.0
C4633 C 0.96606 0.32792 0.79005 0.0
C4634 C 0.99222 0.31087 0.79873 0.0
C4635 C 0.0238 0.32124 0.79811 0.0
C4636 C 0.01079 0.32129 0.7972 0.0
C4637 C 0.97296 0.32144 0.79798 0.0
C4638 C 0.98598 0.32139 0.79714 0.0
H4639 H 0.04828 0.33202 0.78465 0.0
H4640 H 0.02682 0.33272 0.78323 0.0
H4641 H 0.00898 0.30255 0.80006 0.0
H4642 H 0.95111 0.30943 0.81444 0.0
H4643 H 0.9724 0.30997 0.81317 0.0
C4644 C 0.68165 0.04272 0.80903 0.0
C4645 C 0.67561 0.04948 0.80066 0.0
C4646 C 0.68114 0.03049 0.80868 0.0
C4647 C 0.66386 0.00555 0.79738 0.0
H4648 H 0.69264 0.98831 0.8032 0.0
C4649 C 0.66775 0.95477 0.79298 0.0
C4650 C 0.67431 0.94907 0.80175 0.0
C4651 C 0.66746 0.96706 0.79243 0.0
C4652 C 0.6845 0.99299 0.80167 0.0
H4653 H 0.6642 0.04871 0.78543 0.0
H4654 H 0.66337 0.02726 0.78479 0.0
H4655 H 0.693 0.00967 0.80293 0.0
H4656 H 0.68545 0.95176 0.81697 0.0
H4657 H 0.68484 0.97307 0.81607 0.0
H4658 H 0.65537 0.98879 0.79617 0.0
C4659 C 0.66842 0.03146 0.79167 0.0
C4660 C 0.68471 0.00524 0.80151 0.0
C4661 C 0.66894 0.04374 0.79201 0.0
C4662 C 0.68036 0.95587 0.81007 0.0
C4663 C 0.68008 0.9681 0.80951 0.0
C4664 C 0.66365 0.99326 0.79753 0.0
C4665 C 0.6746 0.0247 0.79996 0.0
C4666 C 0.67437 0.01167 0.79952 0.0
C4667 C 0.67375 0.97384 0.80061 0.0
C4668 C 0.67395 0.98686 0.79984 0.0
H4669 H 0.68682 0.04687 0.81584 0.0
H4670 H 0.68584 0.02555 0.81532 0.0
H4671 H 0.65573 0.01026 0.79591 0.0
H4672 H 0.663 0.94976 0.78644 0.0
H4673 H 0.66255 0.97123 0.78543 0.0
C4674 C 0.95484 0.68451 0.80846 0.0
C4675 C 0.94838 0.67785 0.80034 0.0
C4676 C 0.96711 0.68425 0.80838 0.0
C4677 C 0.9924 0.66653 0.79837 0.0
H4678 H 0.0096 0.69548 0.8034 0.0
C4679 C 0.04302 0.67014 0.7934 0.0
C4680 C 0.0489 0.67687 0.8019 0.0
C4681 C 0.03073 0.66995 0.79302 0.0
C4682 C 0.00492 0.6873 0.80209 0.0
H4683 H 0.9497 0.66567 0.78576 0.0
H4684 H 0.97113 0.66531 0.78553 0.0
H4685 H 0.98822 0.69583 0.80299 0.0
H4686 H 0.04653 0.68852 0.8168 0.0
H4687 H 0.02518 0.68811 0.81618 0.0
H4688 H 0.00916 0.65802 0.79746 0.0
C4689 C 0.96672 0.67063 0.79206 0.0
C4690 C 0.99267 0.68749 0.80187 0.0
C4691 C 0.95444 0.67089 0.79214 0.0
C4692 C 0.04227 0.68327 0.8101 0.0
C4693 C 0.03002 0.68311 0.8097 0.0
C4694 C 0.00468 0.66634 0.79858 0.0
C4695 C 0.97319 0.67732 0.80017 0.0
C4696 C 0.98625 0.6771 0.80009 0.0
C4697 C 0.02411 0.67653 0.8011 0.0
C4698 C 0.01107 0.67671 0.80053 0.0
H4699 H 0.95043 0.68992 0.81492 0.0
H4700 H 0.97182 0.68937 0.81486 0.0
H4701 H 0.98772 0.65835 0.79712 0.0
H4702 H 0.04789 0.66513 0.78695 0.0
H4703 H 0.02643 0.66487 0.78623 0.0
C4704 C 0.18794 0.31873 0.04127 0.0
C4705 C 0.1967 0.3239 0.04824 0.0
C4706 C 0.18816 0.31992 0.02907 0.0
C4707 C 0.20801 0.3258 0.00432 0.0
H4708 H 0.17883 0.33017 0.98732 0.0
C4709 C 0.20586 0.32958 0.95347 0.0
C4710 C 0.19697 0.32292 0.94809 0.0
C4711 C 0.20606 0.33097 0.96569 0.0
C4712 C 0.18705 0.32889 0.99194 0.0
H4713 H 0.21255 0.33445 0.04789 0.0
H4714 H 0.21291 0.33658 0.02651 0.0
H4715 H 0.17875 0.3304 0.00871 0.0
H4716 H 0.18131 0.31254 0.95127 0.0
H4717 H 0.18171 0.3149 0.97248 0.0
H4718 H 0.21627 0.32411 0.98749 0.0
C4719 C 0.20592 0.33153 0.03051 0.0
C4720 C 0.187 0.32902 0.00419 0.0
C4721 C 0.20568 0.33036 0.04275 0.0
C4722 C 0.18827 0.31775 0.95514 0.0
C4723 C 0.18845 0.31917 0.9673 0.0
C4724 C 0.20806 0.32568 0.99203 0.0
C4725 C 0.19715 0.32632 0.02354 0.0
C4726 C 0.19744 0.32725 0.01053 0.0
C4727 C 0.19734 0.32578 0.97273 0.0
C4728 C 0.19753 0.327 0.98571 0.0
H4729 H 0.18092 0.31366 0.04521 0.0
H4730 H 0.18138 0.31563 0.02396 0.0
H4731 H 0.21619 0.32432 0.00894 0.0
H4732 H 0.21268 0.33368 0.94826 0.0
H4733 H 0.21299 0.33617 0.96961 0.0
C4734 C 0.18856 0.67925 0.95645 0.0
C4735 C 0.19722 0.67402 0.9494 0.0
C4736 C 0.18879 0.6779 0.96862 0.0
C4737 C 0.20853 0.67138 0.9933 0.0
H4738 H 0.17927 0.66704 0.01017 0.0
C4739 C 0.20625 0.66698 0.0441 0.0
C4740 C 0.19741 0.67366 0.04954 0.0
C4741 C 0.20646 0.66572 0.03186 0.0
C4742 C 0.18751 0.66831 0.0056 0.0
H4743 H 0.21291 0.66323 0.94958 0.0
H4744 H 0.21329 0.66085 0.97093 0.0
H4745 H 0.17922 0.66715 0.98878 0.0
H4746 H 0.18184 0.6842 0.04644 0.0
H4747 H 0.18223 0.68204 0.02521 0.0
H4748 H 0.21676 0.67273 0.01017 0.0
C4749 C 0.20637 0.66605 0.96701 0.0
C4750 C 0.18748 0.66838 0.99334 0.0
C4751 C 0.20611 0.66737 0.95479 0.0
C4752 C 0.18876 0.67896 0.04253 0.0
C4753 C 0.18893 0.67766 0.03036 0.0
C4754 C 0.20855 0.67131 0.00559 0.0
C4755 C 0.19769 0.6713 0.97406 0.0
C4756 C 0.19795 0.67015 0.98705 0.0
C4757 C 0.19778 0.67105 0.02487 0.0
C4758 C 0.198 0.67 0.01187 0.0
H4759 H 0.1816 0.68446 0.95258 0.0
H4760 H 0.18208 0.68222 0.97381 0.0
H4761 H 0.21672 0.67286 0.98871 0.0
H4762 H 0.21304 0.6628 0.04927 0.0
H4763 H 0.21334 0.6605 0.02789 0.0
C4764 C 0.32806 0.20463 0.04287 0.0
C4765 C 0.32126 0.19598 0.04846 0.0
C4766 C 0.32912 0.20477 0.03063 0.0
C4767 C 0.3256 0.18589 0.00442 0.0
H4768 H 0.32255 0.21536 0.98763 0.0
C4769 C 0.31595 0.18772 0.95496 0.0
C4770 C 0.32175 0.19621 0.94815 0.0
C4771 C 0.31692 0.1878 0.96718 0.0
C4772 C 0.32359 0.20708 0.9922 0.0
H4773 H 0.31025 0.1807 0.04562 0.0
H4774 H 0.31202 0.181 0.02432 0.0
H4775 H 0.3224 0.2153 0.00908 0.0
H4776 H 0.33316 0.21144 0.94879 0.0
H4777 H 0.3349 0.21156 0.97021 0.0
H4778 H 0.32662 0.17765 0.98758 0.0
C4779 C 0.31667 0.18758 0.02937 0.0
C4780 C 0.32351 0.20704 0.00448 0.0
C4781 C 0.31559 0.18746 0.04158 0.0
C4782 C 0.32858 0.20479 0.95382 0.0
C4783 C 0.32953 0.20489 0.96607 0.0
C4784 C 0.32567 0.18592 0.99217 0.0
C4785 C 0.32343 0.19624 0.02375 0.0
C4786 C 0.32433 0.19642 0.01073 0.0
C4787 C 0.32371 0.19639 0.97288 0.0
C4788 C 0.32449 0.1965 0.98591 0.0
H4789 H 0.33254 0.21131 0.04795 0.0
H4790 H 0.33448 0.21149 0.02656 0.0
H4791 H 0.32649 0.17758 0.00897 0.0
H4792 H 0.31059 0.18101 0.95087 0.0
H4793 H 0.31218 0.18124 0.97217 0.0
C4794 C 0.79211 0.32809 0.95374 0.0
C4795 C 0.80084 0.32147 0.94808 0.0
C4796 C 0.79187 0.32889 0.96601 0.0
C4797 C 0.81074 0.32516 0.99216 0.0
H4798 H 0.78133 0.32161 0.00895 0.0
C4799 C 0.80918 0.31555 0.04166 0.0
C4800 C 0.80058 0.3212 0.04846 0.0
C4801 C 0.80904 0.31644 0.02944 0.0
C4802 C 0.78959 0.32278 0.00439 0.0
H4803 H 0.81614 0.31045 0.95082 0.0
H4804 H 0.81568 0.31178 0.97213 0.0
H4805 H 0.78137 0.32167 0.9875 0.0
H4806 H 0.78509 0.33225 0.04777 0.0
H4807 H 0.78489 0.33387 0.02636 0.0
H4808 H 0.81899 0.32616 0.009 0.0
C4809 C 0.8091 0.31649 0.96713 0.0
C4810 C 0.78961 0.32282 0.9921 0.0
C4811 C 0.80932 0.31567 0.95491 0.0
C4812 C 0.79183 0.32779 0.04277 0.0
C4813 C 0.79168 0.32867 0.03051 0.0
C4814 C 0.81072 0.32514 0.00442 0.0
C4815 C 0.80039 0.32311 0.97283 0.0
C4816 C 0.80021 0.32384 0.98586 0.0
C4817 C 0.8003 0.32301 0.02371 0.0
C4818 C 0.80017 0.32378 0.01068 0.0
H4819 H 0.78545 0.33266 0.94871 0.0
H4820 H 0.7851 0.33413 0.97014 0.0
H4821 H 0.81902 0.3262 0.98761 0.0
H4822 H 0.81601 0.31037 0.04578 0.0
H4823 H 0.8157 0.31182 0.02447 0.0
C4824 C 0.68181 0.8089 0.04226 0.0
C4825 C 0.67611 0.80033 0.04906 0.0
C4826 C 0.68089 0.80878 0.03004 0.0
C4827 C 0.67443 0.78933 0.00504 0.0
H4828 H 0.6713 0.81873 0.98814 0.0
C4829 C 0.6694 0.79154 0.9544 0.0
C4830 C 0.67611 0.80018 0.94869 0.0
C4831 C 0.66851 0.79143 0.96666 0.0
C4832 C 0.67226 0.81045 0.99272 0.0
H4833 H 0.66491 0.78495 0.04839 0.0
H4834 H 0.66323 0.78479 0.02698 0.0
H4835 H 0.67128 0.81877 0.00953 0.0
H4836 H 0.68715 0.81547 0.95135 0.0
H4837 H 0.68567 0.81524 0.97266 0.0
H4838 H 0.67555 0.78103 0.9882 0.0
C4839 C 0.6685 0.79153 0.03112 0.0
C4840 C 0.67225 0.81048 0.00498 0.0
C4841 C 0.66941 0.79166 0.04338 0.0
C4842 C 0.68187 0.80872 0.95547 0.0
C4843 C 0.68096 0.80863 0.96769 0.0
C4844 C 0.67444 0.78931 0.99276 0.0
C4845 C 0.67424 0.8001 0.02432 0.0
C4846 C 0.67349 0.79994 0.01129 0.0
C4847 C 0.67428 0.79999 0.97344 0.0
C4848 C 0.67352 0.79989 0.98647 0.0
H4849 H 0.68707 0.81567 0.04637 0.0
H4850 H 0.68556 0.8154 0.02506 0.0
H4851 H 0.67553 0.78108 0.00964 0.0
H4852 H 0.66485 0.78484 0.94941 0.0
H4853 H 0.66321 0.78472 0.97083 0.0
C4854 C 0.79214 0.66692 0.04305 0.0
C4855 C 0.80102 0.67337 0.04869 0.0
C4856 C 0.79202 0.66589 0.0308 0.0
C4857 C 0.81116 0.66877 0.00468 0.0
H4858 H 0.78195 0.6733 0.98778 0.0
C4859 C 0.81001 0.67909 0.95531 0.0
C4860 C 0.80131 0.67374 0.9484 0.0
C4861 C 0.80983 0.67798 0.96752 0.0
C4862 C 0.79015 0.67185 0.99237 0.0
H4863 H 0.81677 0.68373 0.04593 0.0
H4864 H 0.81651 0.682 0.02465 0.0
H4865 H 0.7819 0.67318 0.00922 0.0
H4866 H 0.7856 0.66299 0.94886 0.0
H4867 H 0.78531 0.66101 0.97025 0.0
H4868 H 0.81945 0.66761 0.98786 0.0
C4869 C 0.80972 0.67762 0.02965 0.0
C4870 C 0.79012 0.67178 0.00466 0.0
C4871 C 0.80982 0.67867 0.04186 0.0
C4872 C 0.79242 0.66722 0.95396 0.0
C4873 C 0.79222 0.66613 0.9662 0.0
C4874 C 0.8112 0.66885 0.99242 0.0
C4875 C 0.80081 0.67124 0.02397 0.0
C4876 C 0.80066 0.67042 0.01095 0.0
C4877 C 0.80094 0.6715 0.97311 0.0
C4878 C 0.80072 0.67057 0.98612 0.0
H4879 H 0.78524 0.66273 0.04808 0.0
H4880 H 0.78509 0.66083 0.02668 0.0
H4881 H 0.8194 0.66747 0.00926 0.0
H4882 H 0.81696 0.6842 0.9513 0.0
H4883 H 0.81657 0.68237 0.97259 0.0
C4884 C 0.32959 0.79027 0.04334 0.0
C4885 C 0.32276 0.79898 0.0488 0.0
C4886 C 0.33006 0.78952 0.03106 0.0
C4887 C 0.3131 0.79792 0.00481 0.0
H4888 H 0.34231 0.79363 0.98784 0.0
C4889 C 0.31639 0.80737 0.95565 0.0
C4890 C 0.32261 0.79944 0.94853 0.0
C4891 C 0.31684 0.80646 0.96785 0.0
C4892 C 0.33407 0.79467 0.99247 0.0
H4893 H 0.31132 0.8139 0.0457 0.0
H4894 H 0.31221 0.81263 0.02443 0.0
H4895 H 0.34237 0.79355 0.00935 0.0
H4896 H 0.33435 0.78446 0.94864 0.0
H4897 H 0.33512 0.78286 0.97009 0.0
H4898 H 0.30479 0.79915 0.98804 0.0
C4899 C 0.31705 0.80627 0.02957 0.0
C4900 C 0.33411 0.79463 0.00477 0.0
C4901 C 0.31661 0.80704 0.04178 0.0
C4902 C 0.32947 0.79069 0.9539 0.0
C4903 C 0.32994 0.7898 0.96617 0.0
C4904 C 0.31307 0.79795 0.99257 0.0
C4905 C 0.32366 0.79742 0.02406 0.0
C4906 C 0.32365 0.79649 0.01106 0.0
C4907 C 0.32351 0.79761 0.97326 0.0
C4908 C 0.32357 0.79657 0.98625 0.0
H4909 H 0.33443 0.78394 0.04853 0.0
H4910 H 0.3352 0.78259 0.02706 0.0
H4911 H 0.30486 0.79909 0.0094 0.0
H4912 H 0.31108 0.81425 0.9518 0.0
H4913 H 0.31197 0.81275 0.97306 0.0
C4914 C 0.66966 0.20544 0.95388 0.0
C4915 C 0.67631 0.19682 0.94808 0.0
C4916 C 0.66885 0.20547 0.96615 0.0
C4917 C 0.67253 0.18623 0.99202 0.0
H4918 H 0.6757 0.21546 0.0092 0.0
C4919 C 0.6812 0.18733 0.04175 0.0
C4920 C 0.67544 0.1959 0.0485 0.0
C4921 C 0.68052 0.18755 0.02951 0.0
C4922 C 0.67463 0.20724 0.00453 0.0
H4923 H 0.68735 0.18149 0.95056 0.0
H4924 H 0.68599 0.18159 0.9719 0.0
H4925 H 0.67595 0.21567 0.98776 0.0
H4926 H 0.6644 0.2114 0.04772 0.0
H4927 H 0.66314 0.21172 0.02629 0.0
H4928 H 0.67131 0.17778 0.00875 0.0
C4929 C 0.68128 0.18824 0.967 0.0
C4930 C 0.67478 0.20737 0.99225 0.0
C4931 C 0.68211 0.18823 0.95477 0.0
C4932 C 0.66894 0.20468 0.04275 0.0
C4933 C 0.66828 0.2049 0.03048 0.0
C4934 C 0.67238 0.18611 0.00428 0.0
C4935 C 0.67463 0.19685 0.97284 0.0
C4936 C 0.67387 0.19684 0.98586 0.0
C4937 C 0.67407 0.19634 0.02372 0.0
C4938 C 0.67356 0.19659 0.01068 0.0
H4939 H 0.66508 0.21217 0.94897 0.0
H4940 H 0.66358 0.21216 0.97038 0.0
H4941 H 0.67158 0.178 0.98736 0.0
H4942 H 0.68631 0.18048 0.0459 0.0
H4943 H 0.68524 0.18093 0.02458 0.0
C4944 C 0.45352 0.70454 0.82829 0.0
C4945 C 0.4477 0.69598 0.82157 0.0
C4946 C 0.4658 0.70474 0.82884 0.0
C4947 C 0.49177 0.69493 0.81218 0.0
H4948 H 0.50874 0.70061 0.84116 0.0
C4949 C 0.5415 0.68777 0.81531 0.0
C4950 C 0.54817 0.69619 0.82136 0.0
C4951 C 0.52927 0.68795 0.81584 0.0
C4952 C 0.50412 0.69915 0.83298 0.0
H4953 H 0.45016 0.68071 0.81045 0.0
H4954 H 0.47149 0.68098 0.8115 0.0
H4955 H 0.48726 0.70053 0.84125 0.0
H4956 H 0.54725 0.71132 0.83288 0.0
H4957 H 0.52579 0.7117 0.83375 0.0
H4958 H 0.50853 0.69355 0.80388 0.0
C4959 C 0.46661 0.68767 0.81618 0.0
C4960 C 0.49182 0.6991 0.83303 0.0
C4961 C 0.45438 0.68747 0.81564 0.0
C4962 C 0.54234 0.7047 0.82813 0.0
C4963 C 0.53006 0.70489 0.82867 0.0
C4964 C 0.50401 0.69499 0.81213 0.0
C4965 C 0.47248 0.69639 0.82265 0.0
C4966 C 0.48552 0.69686 0.82265 0.0
C4967 C 0.52339 0.69658 0.82242 0.0
C4968 C 0.51034 0.69697 0.82253 0.0
H4969 H 0.44861 0.71122 0.83295 0.0
H4970 H 0.47007 0.71161 0.83384 0.0
H4971 H 0.48718 0.69345 0.80399 0.0
H4972 H 0.54573 0.68104 0.81007 0.0
H4973 H 0.5244 0.68129 0.81111 0.0
C4974 C 0.29133 0.54298 0.83064 0.0
C4975 C 0.29999 0.54852 0.8238 0.0
C4976 C 0.29137 0.53077 0.83205 0.0
C4977 C 0.31055 0.50466 0.82933 0.0
H4978 H 0.28134 0.48764 0.82526 0.0
C4979 C 0.30934 0.45537 0.81875 0.0
C4980 C 0.30063 0.4484 0.82401 0.0
C4981 C 0.30924 0.46754 0.82011 0.0
C4982 C 0.28954 0.49226 0.82661 0.0
H4983 H 0.31555 0.54562 0.8132 0.0
H4984 H 0.31558 0.5244 0.8156 0.0
H4985 H 0.28122 0.50907 0.82526 0.0
H4986 H 0.28502 0.44872 0.83491 0.0
H4987 H 0.28486 0.47005 0.83733 0.0
H4988 H 0.31892 0.48788 0.83049 0.0
C4989 C 0.30883 0.52946 0.81998 0.0
C4990 C 0.28947 0.50454 0.82661 0.0
C4991 C 0.30876 0.54163 0.81854 0.0
C4992 C 0.29185 0.45386 0.83074 0.0
C4993 C 0.29172 0.46608 0.83208 0.0
C4994 C 0.31063 0.4924 0.82934 0.0
C4995 C 0.30011 0.52388 0.8267 0.0
C4996 C 0.30001 0.51088 0.82776 0.0
C4997 C 0.30041 0.47305 0.82675 0.0
C4998 C 0.30016 0.48606 0.82777 0.0
H4999 H 0.28446 0.54806 0.83481 0.0
H5000 H 0.28459 0.52673 0.83735 0.0
H5001 H 0.31879 0.50929 0.83047 0.0
H5002 H 0.31621 0.45143 0.81348 0.0
H5003 H 0.31595 0.47267 0.81574 0.0
C5004 C 0.54167 0.30893 0.81434 0.0
C5005 C 0.54851 0.30063 0.82038 0.0
C5006 C 0.52945 0.30863 0.81503 0.0
C5007 C 0.50447 0.2892 0.82171 0.0
H5008 H 0.48756 0.31864 0.82437 0.0
C5009 C 0.4538 0.29162 0.82685 0.0
C5010 C 0.44809 0.30022 0.82008 0.0
C5011 C 0.46607 0.29144 0.82764 0.0
C5012 C 0.49214 0.31035 0.82354 0.0
H5013 H 0.54789 0.28544 0.83184 0.0
H5014 H 0.52644 0.28493 0.8331 0.0
H5015 H 0.50894 0.31869 0.82441 0.0
H5016 H 0.45076 0.31533 0.8088 0.0
H5017 H 0.47208 0.31497 0.8101 0.0
H5018 H 0.48762 0.28088 0.82072 0.0
C5019 C 0.53057 0.29163 0.82776 0.0
C5020 C 0.5044 0.31038 0.82356 0.0
C5021 C 0.54285 0.29195 0.82708 0.0
C5022 C 0.45488 0.30862 0.81413 0.0
C5023 C 0.46711 0.30846 0.81493 0.0
C5024 C 0.49218 0.28917 0.82169 0.0
C5025 C 0.52374 0.30001 0.82178 0.0
C5026 C 0.51071 0.29983 0.82248 0.0
C5027 C 0.47286 0.29988 0.8217 0.0
C5028 C 0.48589 0.29977 0.82244 0.0
H5029 H 0.54576 0.3157 0.80906 0.0
H5030 H 0.52445 0.31508 0.81016 0.0
H5031 H 0.50908 0.28093 0.82076 0.0
H5032 H 0.44881 0.28502 0.83154 0.0
H5033 H 0.47023 0.28478 0.833 0.0
C5034 C 0.6878 0.45501 0.81655 0.0
C5035 C 0.69633 0.44808 0.82213 0.0
C5036 C 0.68798 0.46721 0.81766 0.0
C5037 C 0.70735 0.49214 0.82453 0.0
H5038 H 0.67785 0.50873 0.82837 0.0
C5039 C 0.70478 0.54275 0.82986 0.0
C5040 C 0.69605 0.54837 0.82318 0.0
C5041 C 0.70496 0.5305 0.83084 0.0
C5042 C 0.68616 0.50423 0.82723 0.0
H5043 H 0.7118 0.4485 0.83323 0.0
H5044 H 0.7121 0.46989 0.83521 0.0
H5045 H 0.67799 0.48734 0.828 0.0
H5046 H 0.68062 0.54555 0.81237 0.0
H5047 H 0.68098 0.52426 0.81401 0.0
H5048 H 0.71548 0.50908 0.8236 0.0
C5049 C 0.70531 0.46586 0.82991 0.0
C5050 C 0.68624 0.49198 0.82701 0.0
C5051 C 0.70511 0.45361 0.82882 0.0
C5052 C 0.68745 0.5415 0.81761 0.0
C5053 C 0.68761 0.52929 0.81861 0.0
C5054 C 0.70727 0.50442 0.82475 0.0
C5055 C 0.6967 0.47279 0.82438 0.0
C5056 C 0.6968 0.48579 0.82547 0.0
C5057 C 0.69638 0.52363 0.8252 0.0
C5058 C 0.69664 0.51061 0.82591 0.0
H5059 H 0.68094 0.45103 0.8113 0.0
H5060 H 0.68134 0.4723 0.81313 0.0
H5061 H 0.71562 0.48763 0.82323 0.0
H5062 H 0.71153 0.54781 0.83425 0.0
H5063 H 0.71178 0.5264 0.83605 0.0
C5064 C 0.45551 0.30706 0.18113 0.0
C5065 C 0.44858 0.299 0.17489 0.0
C5066 C 0.46773 0.30633 0.18082 0.0
C5067 C 0.49265 0.29464 0.1639 0.0
H5068 H 0.50933 0.29949 0.1932 0.0
C5069 C 0.54343 0.29037 0.16855 0.0
C5070 C 0.54891 0.29913 0.1753 0.0
C5071 C 0.53116 0.28958 0.16814 0.0
C5072 C 0.50482 0.29821 0.18493 0.0
H5073 H 0.44902 0.28393 0.16325 0.0
H5074 H 0.47048 0.28262 0.16274 0.0
H5075 H 0.48797 0.2995 0.19309 0.0
H5076 H 0.54583 0.31405 0.18675 0.0
H5077 H 0.52456 0.31273 0.18597 0.0
H5078 H 0.50959 0.29347 0.15575 0.0
C5079 C 0.46641 0.28955 0.16783 0.0
C5080 C 0.49257 0.29821 0.18486 0.0
C5081 C 0.45414 0.29028 0.16816 0.0
C5082 C 0.5419 0.30716 0.18151 0.0
C5083 C 0.52969 0.30636 0.18113 0.0
C5084 C 0.50495 0.29464 0.16397 0.0
C5085 C 0.47333 0.2975 0.17427 0.0
C5086 C 0.48634 0.29664 0.17433 0.0
C5087 C 0.52417 0.29751 0.17453 0.0
C5088 C 0.51115 0.29663 0.17446 0.0
H5089 H 0.45151 0.31393 0.18636 0.0
H5090 H 0.4728 0.31272 0.18571 0.0
H5091 H 0.4881 0.29347 0.15564 0.0
H5092 H 0.54861 0.28406 0.16367 0.0
H5093 H 0.52716 0.28264 0.16302 0.0
C5094 C 0.68894 0.45502 0.18046 0.0
C5095 C 0.69696 0.44804 0.17421 0.0
C5096 C 0.68973 0.46723 0.18013 0.0
C5097 C 0.70137 0.49212 0.16317 0.0
H5098 H 0.69671 0.50877 0.19252 0.0
C5099 C 0.70576 0.5429 0.16801 0.0
C5100 C 0.69712 0.54837 0.17492 0.0
C5101 C 0.70646 0.53063 0.16746 0.0
C5102 C 0.69794 0.50427 0.18423 0.0
H5103 H 0.712 0.44841 0.16254 0.0
H5104 H 0.7134 0.46988 0.16199 0.0
H5105 H 0.69673 0.48741 0.19239 0.0
H5106 H 0.68226 0.54528 0.18644 0.0
H5107 H 0.6834 0.524 0.1854 0.0
H5108 H 0.70247 0.50907 0.15502 0.0
C5109 C 0.70647 0.46584 0.1671 0.0
C5110 C 0.69796 0.49202 0.18416 0.0
C5111 C 0.7057 0.45356 0.16745 0.0
C5112 C 0.68907 0.54135 0.18109 0.0
C5113 C 0.68977 0.52914 0.18056 0.0
C5114 C 0.70136 0.50442 0.16325 0.0
C5115 C 0.69856 0.47279 0.17355 0.0
C5116 C 0.69946 0.4858 0.17361 0.0
C5117 C 0.69854 0.52363 0.17385 0.0
C5118 C 0.69942 0.51061 0.17375 0.0
H5119 H 0.68206 0.45105 0.1857 0.0
H5120 H 0.68336 0.47233 0.18502 0.0
H5121 H 0.7025 0.48757 0.1549 0.0
H5122 H 0.71209 0.54809 0.16316 0.0
H5123 H 0.71334 0.52664 0.16226 0.0
C5124 C 0.54302 0.70514 0.16759 0.0
C5125 C 0.54853 0.69647 0.17443 0.0
C5126 C 0.53079 0.70527 0.16638 0.0
C5127 C 0.50458 0.68632 0.16952 0.0
H5128 H 0.4877 0.71565 0.17322 0.0
C5129 C 0.45532 0.68783 0.18014 0.0
C5130 C 0.44837 0.69647 0.17474 0.0
C5131 C 0.4675 0.6879 0.17879 0.0
C5132 C 0.49229 0.70742 0.17198 0.0
H5133 H 0.54556 0.68113 0.18533 0.0
H5134 H 0.52431 0.68139 0.18328 0.0
H5135 H 0.50914 0.71568 0.17317 0.0
H5136 H 0.44872 0.71192 0.16361 0.0
H5137 H 0.47006 0.71202 0.16121 0.0
H5138 H 0.48776 0.67802 0.16851 0.0
C5139 C 0.52941 0.68801 0.17872 0.0
C5140 C 0.50457 0.70744 0.17196 0.0
C5141 C 0.54159 0.68791 0.17996 0.0
C5142 C 0.45385 0.70515 0.16788 0.0
C5143 C 0.46607 0.70524 0.16656 0.0
C5144 C 0.49232 0.6863 0.16954 0.0
C5145 C 0.52385 0.69669 0.17193 0.0
C5146 C 0.51085 0.69685 0.17094 0.0
C5147 C 0.47303 0.69662 0.17202 0.0
C5148 C 0.48603 0.69682 0.17098 0.0
H5149 H 0.54814 0.71185 0.16321 0.0
H5150 H 0.52677 0.71202 0.16102 0.0
H5151 H 0.50916 0.67805 0.16848 0.0
H5152 H 0.45138 0.68105 0.18551 0.0
H5153 H 0.47261 0.68125 0.18327 0.0
C5154 C 0.29219 0.45327 0.16715 0.0
C5155 C 0.30103 0.44781 0.17382 0.0
C5156 C 0.29199 0.4655 0.1659 0.0
C5157 C 0.31101 0.49173 0.16846 0.0
H5158 H 0.28178 0.50869 0.17264 0.0
C5159 C 0.30978 0.54102 0.17897 0.0
C5160 C 0.30105 0.54799 0.17374 0.0
C5161 C 0.30967 0.52884 0.17763 0.0
C5162 C 0.28998 0.50408 0.17127 0.0
H5163 H 0.31658 0.45089 0.18438 0.0
H5164 H 0.31619 0.47212 0.18227 0.0
H5165 H 0.28171 0.48724 0.17272 0.0
H5166 H 0.28541 0.54765 0.16288 0.0
H5167 H 0.28524 0.5263 0.1605 0.0
H5168 H 0.31931 0.50853 0.1672 0.0
C5169 C 0.3095 0.46699 0.17788 0.0
C5170 C 0.28994 0.49179 0.17132 0.0
C5171 C 0.30967 0.45481 0.17916 0.0
C5172 C 0.29225 0.54251 0.16703 0.0
C5173 C 0.29212 0.53029 0.16571 0.0
C5174 C 0.31104 0.50399 0.16841 0.0
C5175 C 0.30067 0.47249 0.17124 0.0
C5176 C 0.30049 0.48549 0.17014 0.0
C5177 C 0.30081 0.52332 0.17103 0.0
C5178 C 0.30057 0.51031 0.17003 0.0
H5179 H 0.28542 0.4481 0.16292 0.0
H5180 H 0.28512 0.46948 0.16066 0.0
H5181 H 0.31925 0.48714 0.16729 0.0
H5182 H 0.31666 0.54496 0.18422 0.0
H5183 H 0.31639 0.52373 0.18199 0.0
C5184 C 0.82661 0.5413 0.70302 0.0
C5185 C 0.81969 0.54741 0.69481 0.0
C5186 C 0.82677 0.52903 0.70311 0.0
C5187 C 0.80927 0.50341 0.69374 0.0
H5188 H 0.83822 0.48617 0.69865 0.0
C5189 C 0.81211 0.45341 0.68715 0.0
C5190 C 0.8185 0.4469 0.69545 0.0
C5191 C 0.81247 0.46566 0.68722 0.0
C5192 C 0.83004 0.49086 0.6974 0.0
H5193 H 0.80771 0.54544 0.68015 0.0
H5194 H 0.80809 0.52405 0.68023 0.0
H5195 H 0.83856 0.50761 0.69835 0.0
H5196 H 0.83034 0.44813 0.71031 0.0
H5197 H 0.83092 0.46958 0.71047 0.0
H5198 H 0.80075 0.48671 0.69277 0.0
C5199 C 0.81325 0.52873 0.6867 0.0
C5200 C 0.83024 0.50314 0.69723 0.0
C5201 C 0.81309 0.54099 0.68661 0.0
C5202 C 0.82533 0.4529 0.70379 0.0
C5203 C 0.82571 0.46519 0.70385 0.0
C5204 C 0.80908 0.49116 0.69391 0.0
C5205 C 0.82001 0.5226 0.69502 0.0
C5206 C 0.81985 0.50956 0.69533 0.0
C5207 C 0.81924 0.4717 0.69558 0.0
C5208 C 0.81946 0.48474 0.69568 0.0
H5209 H 0.83177 0.546 0.70947 0.0
H5210 H 0.83198 0.52457 0.7097 0.0
H5211 H 0.80108 0.50809 0.6925 0.0
H5212 H 0.80679 0.44905 0.68057 0.0
H5213 H 0.80752 0.47041 0.68063 0.0
C5214 C 0.54228 0.81707 0.688 0.0
C5215 C 0.5491 0.82301 0.69638 0.0
C5216 C 0.53005 0.81761 0.68841 0.0
C5217 C 0.50506 0.83457 0.70012 0.0
H5218 H 0.48818 0.80552 0.69457 0.0
C5219 C 0.45437 0.82978 0.70528 0.0
C5220 C 0.44868 0.82311 0.69658 0.0
C5221 C 0.46666 0.83032 0.70566 0.0
C5222 C 0.49275 0.81374 0.69603 0.0
H5223 H 0.54845 0.83439 0.71164 0.0
H5224 H 0.527 0.8353 0.71238 0.0
H5225 H 0.50953 0.8055 0.69447 0.0
H5226 H 0.45138 0.81207 0.68129 0.0
H5227 H 0.47268 0.81309 0.6819 0.0
H5228 H 0.48818 0.84279 0.70164 0.0
C5229 C 0.53115 0.83028 0.70545 0.0
C5230 C 0.50499 0.81372 0.69597 0.0
C5231 C 0.54342 0.82972 0.70505 0.0
C5232 C 0.45549 0.81722 0.68816 0.0
C5233 C 0.46771 0.81774 0.68855 0.0
C5234 C 0.49276 0.83459 0.70018 0.0
C5235 C 0.52433 0.8241 0.69721 0.0
C5236 C 0.5113 0.82416 0.69785 0.0
C5237 C 0.47345 0.82417 0.69738 0.0
C5238 C 0.48648 0.82419 0.69797 0.0
H5239 H 0.54638 0.81188 0.68117 0.0
H5240 H 0.52506 0.81294 0.6818 0.0
H5241 H 0.50967 0.84277 0.70154 0.0
H5242 H 0.44935 0.83441 0.71189 0.0
H5243 H 0.47083 0.8353 0.7126 0.0
C5244 C 0.17765 0.54102 0.68787 0.0
C5245 C 0.17222 0.54789 0.69655 0.0
C5246 C 0.17647 0.52883 0.68792 0.0
C5247 C 0.17018 0.50398 0.70753 0.0
H5248 H 0.16687 0.4869 0.67825 0.0
C5249 C 0.16654 0.45323 0.70572 0.0
C5250 C 0.17339 0.4477 0.69707 0.0
C5251 C 0.16515 0.46544 0.7057 0.0
C5252 C 0.16787 0.49154 0.6865 0.0
H5253 H 0.16114 0.54736 0.71203 0.0
H5254 H 0.15902 0.52599 0.71209 0.0
H5255 H 0.16656 0.5083 0.67811 0.0
H5256 H 0.18408 0.45062 0.68158 0.0
H5257 H 0.18173 0.47185 0.68158 0.0
H5258 H 0.17167 0.4872 0.71588 0.0
C5259 C 0.16428 0.53007 0.7053 0.0
C5260 C 0.16768 0.5038 0.68642 0.0
C5261 C 0.16545 0.5423 0.70523 0.0
C5262 C 0.17872 0.4546 0.68835 0.0
C5263 C 0.17731 0.46678 0.6883 0.0
C5264 C 0.17036 0.4917 0.70761 0.0
C5265 C 0.16983 0.52319 0.69667 0.0
C5266 C 0.16903 0.51017 0.69691 0.0
C5267 C 0.17054 0.47235 0.69699 0.0
C5268 C 0.1694 0.48535 0.69706 0.0
H5269 H 0.18296 0.54505 0.68108 0.0
H5270 H 0.181 0.52378 0.68125 0.0
H5271 H 0.17136 0.50862 0.71574 0.0
H5272 H 0.16231 0.44814 0.71255 0.0
H5273 H 0.1598 0.46947 0.71245 0.0
C5274 C 0.4558 0.1811 0.68799 0.0
C5275 C 0.44897 0.17505 0.69629 0.0
C5276 C 0.46803 0.1805 0.68837 0.0
C5277 C 0.49292 0.17428 0.708 0.0
H5278 H 0.51005 0.17176 0.67867 0.0
C5279 C 0.54376 0.17024 0.70558 0.0
C5280 C 0.54927 0.17708 0.69692 0.0
C5281 C 0.53151 0.16924 0.70587 0.0
C5282 C 0.5054 0.17255 0.68693 0.0
H5283 H 0.44959 0.16366 0.71153 0.0
H5284 H 0.47104 0.16256 0.71217 0.0
H5285 H 0.48868 0.17124 0.67851 0.0
H5286 H 0.54627 0.18835 0.68184 0.0
H5287 H 0.52499 0.18667 0.68239 0.0
H5288 H 0.50971 0.17572 0.7164 0.0
C5289 C 0.4669 0.16783 0.70541 0.0
C5290 C 0.49315 0.17225 0.68684 0.0
C5291 C 0.45463 0.16841 0.70502 0.0
C5292 C 0.54231 0.18296 0.68861 0.0
C5293 C 0.5301 0.18194 0.68887 0.0
C5294 C 0.5052 0.17458 0.7081 0.0
C5295 C 0.47373 0.17384 0.69706 0.0
C5296 C 0.48676 0.1733 0.69734 0.0
C5297 C 0.52456 0.17502 0.69745 0.0
C5298 C 0.51156 0.17391 0.69754 0.0
H5299 H 0.45172 0.18634 0.68119 0.0
H5300 H 0.47303 0.1854 0.68193 0.0
H5301 H 0.48824 0.17521 0.71623 0.0
H5302 H 0.5489 0.1656 0.71211 0.0
H5303 H 0.52749 0.16378 0.71254 0.0
C5304 C 0.81431 0.45464 0.30853 0.0
C5305 C 0.82043 0.44796 0.30017 0.0
C5306 C 0.81479 0.46688 0.30829 0.0
C5307 C 0.83209 0.49195 0.29724 0.0
H5308 H 0.80321 0.50907 0.30291 0.0
C5309 C 0.82804 0.54263 0.2924 0.0
C5310 C 0.82139 0.54843 0.30104 0.0
C5311 C 0.82837 0.53034 0.29201 0.0
C5312 C 0.81137 0.50443 0.30142 0.0
H5313 H 0.83198 0.44887 0.28506 0.0
H5314 H 0.83277 0.47032 0.28459 0.0
H5315 H 0.80294 0.48771 0.30266 0.0
H5316 H 0.81012 0.54591 0.31619 0.0
H5317 H 0.81078 0.52457 0.31556 0.0
H5318 H 0.84051 0.50874 0.29602 0.0
C5319 C 0.82767 0.46606 0.2914 0.0
C5320 C 0.81122 0.49218 0.30128 0.0
C5321 C 0.82718 0.45378 0.29163 0.0
C5322 C 0.81527 0.54172 0.30938 0.0
C5323 C 0.81559 0.52948 0.30898 0.0
C5324 C 0.83224 0.50424 0.29737 0.0
C5325 C 0.8214 0.47274 0.29968 0.0
C5326 C 0.82159 0.48579 0.29932 0.0
C5327 C 0.82203 0.52364 0.30022 0.0
C5328 C 0.8219 0.51061 0.2996 0.0
H5329 H 0.80908 0.45042 0.31527 0.0
H5330 H 0.81003 0.47175 0.31492 0.0
H5331 H 0.84024 0.48727 0.29579 0.0
H5332 H 0.83284 0.54757 0.28584 0.0
H5333 H 0.83335 0.5261 0.28511 0.0
C5334 C 0.54249 0.83006 0.28977 0.0
C5335 C 0.548 0.82337 0.29856 0.0
C5336 C 0.53022 0.83072 0.28922 0.0
C5337 C 0.50383 0.81451 0.29869 0.0
H5338 H 0.48729 0.84378 0.29327 0.0
C5339 C 0.45469 0.81866 0.30779 0.0
C5340 C 0.4477 0.82438 0.29939 0.0
C5341 C 0.4669 0.81915 0.3071 0.0
C5342 C 0.4918 0.83552 0.29465 0.0
H5343 H 0.54498 0.81239 0.31384 0.0
H5344 H 0.52372 0.81363 0.31295 0.0
H5345 H 0.5088 0.84349 0.29303 0.0
H5346 H 0.44804 0.8354 0.28386 0.0
H5347 H 0.4695 0.83624 0.28265 0.0
H5348 H 0.48694 0.80654 0.30042 0.0
C5349 C 0.52882 0.8182 0.30635 0.0
C5350 C 0.5041 0.83535 0.29451 0.0
C5351 C 0.54102 0.81755 0.3069 0.0
C5352 C 0.4532 0.8309 0.29046 0.0
C5353 C 0.46547 0.83141 0.28978 0.0
C5354 C 0.49159 0.81468 0.29884 0.0
C5355 C 0.52326 0.82467 0.29744 0.0
C5356 C 0.51024 0.82487 0.29673 0.0
C5357 C 0.47244 0.82537 0.298 0.0
C5358 C 0.48544 0.82522 0.29704 0.0
H5359 H 0.54765 0.83465 0.28322 0.0
H5360 H 0.52618 0.83574 0.28222 0.0
H5361 H 0.50828 0.80623 0.30014 0.0
H5362 H 0.45073 0.81363 0.31483 0.0
H5363 H 0.47202 0.8146 0.3137 0.0
C5364 C 0.16879 0.4532 0.29115 0.0
C5365 C 0.17555 0.44752 0.29977 0.0
C5366 C 0.16775 0.46544 0.29111 0.0
C5367 C 0.17108 0.4914 0.31033 0.0
H5368 H 0.17411 0.50858 0.28108 0.0
C5369 C 0.18013 0.54103 0.30904 0.0
C5370 C 0.17441 0.54783 0.30048 0.0
C5371 C 0.17923 0.52881 0.30891 0.0
C5372 C 0.17307 0.50391 0.2893 0.0
H5373 H 0.18655 0.45022 0.3151 0.0
H5374 H 0.18481 0.47151 0.31498 0.0
H5375 H 0.17447 0.48715 0.28088 0.0
H5376 H 0.16318 0.54715 0.28512 0.0
H5377 H 0.16156 0.52574 0.28493 0.0
H5378 H 0.16982 0.50813 0.31877 0.0
C5379 C 0.18018 0.46653 0.30833 0.0
C5380 C 0.17328 0.49163 0.28918 0.0
C5381 C 0.18124 0.45432 0.30836 0.0
C5382 C 0.16769 0.54215 0.29183 0.0
C5383 C 0.16682 0.52989 0.29168 0.0
C5384 C 0.17086 0.50366 0.31044 0.0
C5385 C 0.17342 0.47224 0.29973 0.0
C5386 C 0.17245 0.48524 0.29972 0.0
C5387 C 0.17261 0.52309 0.30021 0.0
C5388 C 0.17202 0.51006 0.29995 0.0
H5389 H 0.1643 0.44819 0.28443 0.0
H5390 H 0.16241 0.46957 0.28442 0.0
H5391 H 0.17019 0.48674 0.31857 0.0
H5392 H 0.18541 0.54514 0.31581 0.0
H5393 H 0.18395 0.52383 0.3155 0.0
C5394 C 0.5431 0.16955 0.29107 0.0
C5395 C 0.5486 0.17636 0.29977 0.0
C5396 C 0.53083 0.16913 0.29032 0.0
C5397 C 0.50448 0.18592 0.29891 0.0
H5398 H 0.48783 0.15658 0.2942 0.0
C5399 C 0.45517 0.18206 0.30761 0.0
C5400 C 0.44826 0.17582 0.29952 0.0
C5401 C 0.46738 0.18174 0.30693 0.0
C5402 C 0.49237 0.16486 0.29537 0.0
H5403 H 0.54558 0.18792 0.31461 0.0
H5404 H 0.52428 0.18712 0.31336 0.0
H5405 H 0.50932 0.15674 0.29426 0.0
H5406 H 0.44876 0.16418 0.28446 0.0
H5407 H 0.47023 0.16365 0.28324 0.0
H5408 H 0.48761 0.19404 0.30013 0.0
C5409 C 0.5294 0.18224 0.307 0.0
C5410 C 0.50467 0.16495 0.2954 0.0
C5411 C 0.54162 0.18263 0.30776 0.0
C5412 C 0.45386 0.16908 0.29082 0.0
C5413 C 0.46614 0.16874 0.29015 0.0
C5414 C 0.49224 0.18582 0.29888 0.0
C5415 C 0.52386 0.17556 0.29823 0.0
C5416 C 0.51084 0.17546 0.29737 0.0
C5417 C 0.47302 0.17519 0.29813 0.0
C5418 C 0.48603 0.17527 0.29731 0.0
H5419 H 0.54826 0.16462 0.28478 0.0
H5420 H 0.52681 0.16397 0.28342 0.0
H5421 H 0.50897 0.1942 0.30018 0.0
H5422 H 0.45114 0.18728 0.31446 0.0
H5423 H 0.47243 0.18662 0.31335 0.0
C5424 C 0.68765 0.81562 0.45391 0.0
C5425 C 0.69587 0.82177 0.44708 0.0
C5426 C 0.68812 0.81607 0.46614 0.0
C5427 C 0.69942 0.83325 0.49109 0.0
H5428 H 0.69435 0.80416 0.50806 0.0
C5429 C 0.70453 0.82895 0.54171 0.0
C5430 C 0.69603 0.82213 0.5475 0.0
C5431 C 0.70488 0.82936 0.52943 0.0
C5432 C 0.69567 0.81238 0.50346 0.0
H5433 H 0.71096 0.83337 0.44771 0.0
H5434 H 0.71182 0.83413 0.46919 0.0
H5435 H 0.69442 0.80405 0.48669 0.0
H5436 H 0.68108 0.8106 0.54498 0.0
H5437 H 0.68162 0.81141 0.52364 0.0
H5438 H 0.70061 0.84157 0.50793 0.0
C5439 C 0.70496 0.82901 0.46503 0.0
C5440 C 0.69572 0.81232 0.49121 0.0
C5441 C 0.7045 0.82854 0.45275 0.0
C5442 C 0.68778 0.8159 0.54079 0.0
C5443 C 0.68813 0.81629 0.52855 0.0
C5444 C 0.69937 0.83332 0.50338 0.0
C5445 C 0.69684 0.82268 0.47185 0.0
C5446 C 0.69744 0.82277 0.48488 0.0
C5447 C 0.69676 0.82292 0.52272 0.0
C5448 C 0.69734 0.8229 0.50969 0.0
H5449 H 0.68085 0.81037 0.44983 0.0
H5450 H 0.68161 0.81126 0.47113 0.0
H5451 H 0.70068 0.84146 0.48645 0.0
H5452 H 0.71103 0.83384 0.54665 0.0
H5453 H 0.71168 0.83449 0.5252 0.0
C5454 C 0.6888 0.18205 0.45463 0.0
C5455 C 0.69704 0.17598 0.44775 0.0
C5456 C 0.68901 0.18113 0.46685 0.0
C5457 C 0.7081 0.17372 0.49186 0.0
H5458 H 0.67847 0.17096 0.50843 0.0
C5459 C 0.70504 0.16827 0.54254 0.0
C5460 C 0.69639 0.17508 0.54811 0.0
C5461 C 0.70539 0.16749 0.53027 0.0
C5462 C 0.68682 0.17181 0.50394 0.0
H5463 H 0.71202 0.16424 0.44829 0.0
H5464 H 0.71236 0.1626 0.46971 0.0
H5465 H 0.67864 0.1713 0.48705 0.0
H5466 H 0.68136 0.18643 0.54521 0.0
H5467 H 0.68204 0.18515 0.52392 0.0
H5468 H 0.71625 0.17438 0.50881 0.0
C5469 C 0.70579 0.16813 0.46562 0.0
C5470 C 0.68691 0.17201 0.49169 0.0
C5471 C 0.70556 0.16903 0.45336 0.0
C5472 C 0.68812 0.18107 0.5412 0.0
C5473 C 0.68846 0.18027 0.52898 0.0
C5474 C 0.70801 0.17353 0.50415 0.0
C5475 C 0.69746 0.17412 0.47249 0.0
C5476 C 0.69752 0.17315 0.4855 0.0
C5477 C 0.69707 0.17346 0.52336 0.0
C5478 C 0.69734 0.17276 0.51033 0.0
H5479 H 0.68216 0.18752 0.45058 0.0
H5480 H 0.68259 0.18601 0.4719 0.0
H5481 H 0.71641 0.17469 0.48735 0.0
H5482 H 0.71153 0.16356 0.54764 0.0
H5483 H 0.71209 0.16211 0.52619 0.0
C5484 C 0.82972 0.70528 0.54342 0.0
C5485 C 0.82301 0.69658 0.54904 0.0
C5486 C 0.83083 0.70535 0.53118 0.0
C5487 C 0.8275 0.68636 0.50498 0.0
H5488 H 0.82357 0.71574 0.48821 0.0
C5489 C 0.81682 0.68792 0.45572 0.0
C5490 C 0.82224 0.69655 0.44877 0.0
C5491 C 0.81809 0.68803 0.46791 0.0
C5492 C 0.82486 0.70749 0.49277 0.0
H5493 H 0.81231 0.68107 0.54626 0.0
H5494 H 0.81418 0.68124 0.52498 0.0
H5495 H 0.82377 0.7157 0.50965 0.0
H5496 H 0.83329 0.71205 0.44915 0.0
H5497 H 0.83554 0.71221 0.47052 0.0
H5498 H 0.82841 0.67812 0.48813 0.0
C5499 C 0.8187 0.68793 0.53 0.0
C5500 C 0.82498 0.70747 0.50505 0.0
C5501 C 0.81756 0.68788 0.5422 0.0
C5502 C 0.829 0.70528 0.45427 0.0
C5503 C 0.83024 0.70541 0.46651 0.0
C5504 C 0.82738 0.68639 0.49272 0.0
C5505 C 0.8253 0.69669 0.52433 0.0
C5506 C 0.82611 0.69688 0.5113 0.0
C5507 C 0.8248 0.69677 0.47346 0.0
C5508 C 0.82586 0.69692 0.48647 0.0
H5509 H 0.83403 0.7121 0.54846 0.0
H5510 H 0.83606 0.71216 0.52708 0.0
H5511 H 0.82862 0.67808 0.50953 0.0
H5512 H 0.81152 0.68108 0.45176 0.0
H5513 H 0.81362 0.68135 0.47301 0.0
C5514 C 0.2917 0.82976 0.45394 0.0
C5515 C 0.30036 0.82293 0.44842 0.0
C5516 C 0.29152 0.83091 0.46618 0.0
C5517 C 0.31044 0.82773 0.49238 0.0
H5518 H 0.2811 0.82431 0.50932 0.0
C5519 C 0.30904 0.8177 0.54174 0.0
C5520 C 0.30047 0.82323 0.54868 0.0
C5521 C 0.30888 0.81885 0.52954 0.0
C5522 C 0.28934 0.82547 0.50471 0.0
H5523 H 0.31563 0.81193 0.4514 0.0
H5524 H 0.31528 0.81387 0.47267 0.0
H5525 H 0.28105 0.82419 0.48786 0.0
H5526 H 0.28505 0.83438 0.54827 0.0
H5527 H 0.2848 0.83645 0.52687 0.0
H5528 H 0.31876 0.82885 0.50918 0.0
C5529 C 0.3087 0.81847 0.46757 0.0
C5530 C 0.28931 0.82539 0.49242 0.0
C5531 C 0.30886 0.8173 0.45537 0.0
C5532 C 0.29176 0.83001 0.54315 0.0
C5533 C 0.29159 0.83114 0.5309 0.0
C5534 C 0.31046 0.82781 0.50464 0.0
C5535 C 0.30004 0.82528 0.47312 0.0
C5536 C 0.29989 0.82631 0.48613 0.0
C5537 C 0.30016 0.82557 0.52397 0.0
C5538 C 0.29994 0.82647 0.51095 0.0
H5539 H 0.28503 0.83421 0.44881 0.0
H5540 H 0.28478 0.83628 0.4702 0.0
H5541 H 0.31871 0.8287 0.48779 0.0
H5542 H 0.31585 0.81238 0.54571 0.0
H5543 H 0.3155 0.81428 0.52446 0.0
C5544 C 0.17029 0.29316 0.45441 0.0
C5545 C 0.177 0.30154 0.44833 0.0
C5546 C 0.17024 0.29294 0.4667 0.0
C5547 C 0.18774 0.30239 0.4923 0.0
H5548 H 0.15883 0.29759 0.50963 0.0
C5549 C 0.18516 0.30906 0.54236 0.0
C5550 C 0.17863 0.30087 0.54889 0.0
C5551 C 0.18477 0.30899 0.5301 0.0
C5552 C 0.167 0.2988 0.50492 0.0
H5553 H 0.18881 0.31636 0.45035 0.0
H5554 H 0.18864 0.31603 0.47173 0.0
H5555 H 0.15846 0.2977 0.48819 0.0
H5556 H 0.16653 0.28622 0.54767 0.0
H5557 H 0.16592 0.28603 0.52624 0.0
H5558 H 0.1963 0.30348 0.50898 0.0
C5559 C 0.18354 0.30953 0.46703 0.0
C5560 C 0.16678 0.29887 0.49264 0.0
C5561 C 0.18357 0.30976 0.45477 0.0
C5562 C 0.17164 0.29266 0.54289 0.0
C5563 C 0.17124 0.29259 0.53061 0.0
C5564 C 0.18796 0.30231 0.50456 0.0
C5565 C 0.17693 0.30108 0.47314 0.0
C5566 C 0.17714 0.30074 0.48619 0.0
C5567 C 0.17784 0.30073 0.52408 0.0
C5568 C 0.17759 0.30058 0.51102 0.0
H5569 H 0.16516 0.2867 0.44968 0.0
H5570 H 0.16514 0.28626 0.47114 0.0
H5571 H 0.19592 0.30363 0.48759 0.0
H5572 H 0.1906 0.31553 0.54672 0.0
H5573 H 0.18982 0.31549 0.52534 0.0
C5574 C 0.29268 0.16801 0.54256 0.0
C5575 C 0.30129 0.17481 0.54822 0.0
C5576 C 0.29235 0.16736 0.53029 0.0
C5577 C 0.3109 0.17195 0.50405 0.0
H5578 H 0.28127 0.17475 0.48748 0.0
C5579 C 0.30878 0.18211 0.45473 0.0
C5580 C 0.30045 0.17612 0.44788 0.0
C5581 C 0.30865 0.18114 0.46694 0.0
C5582 C 0.2896 0.17379 0.49198 0.0
H5583 H 0.31624 0.18629 0.54548 0.0
H5584 H 0.3156 0.18523 0.52417 0.0
H5585 H 0.28146 0.17445 0.50894 0.0
H5586 H 0.28543 0.16443 0.44846 0.0
H5587 H 0.28524 0.16269 0.46988 0.0
H5588 H 0.31906 0.17142 0.48715 0.0
C5589 C 0.30921 0.18027 0.52916 0.0
C5590 C 0.2897 0.17362 0.50427 0.0
C5591 C 0.30953 0.18093 0.54139 0.0
C5592 C 0.29196 0.16916 0.45351 0.0
C5593 C 0.29182 0.16821 0.46577 0.0
C5594 C 0.31079 0.17212 0.4918 0.0
C5595 C 0.30064 0.17346 0.52346 0.0
C5596 C 0.30038 0.17287 0.51043 0.0
C5597 C 0.3002 0.17416 0.47261 0.0
C5598 C 0.30016 0.17322 0.48562 0.0
H5599 H 0.28621 0.1632 0.5476 0.0
H5600 H 0.28569 0.16198 0.52615 0.0
H5601 H 0.31924 0.17112 0.50853 0.0
H5602 H 0.31541 0.18759 0.45067 0.0
H5603 H 0.31511 0.186 0.47197 0.0
C5604 C 0.81758 0.30899 0.45505 0.0
C5605 C 0.82316 0.3004 0.44819 0.0
C5606 C 0.81852 0.30879 0.46727 0.0
C5607 C 0.82449 0.28901 0.49208 0.0
H5608 H 0.82773 0.31821 0.5093 0.0
C5609 C 0.8285 0.29086 0.54285 0.0
C5610 C 0.82177 0.29956 0.54845 0.0
C5611 C 0.82962 0.29077 0.53062 0.0
C5612 C 0.82674 0.30999 0.50462 0.0
H5613 H 0.83419 0.28489 0.44874 0.0
H5614 H 0.83589 0.28456 0.47015 0.0
H5615 H 0.82818 0.31845 0.48791 0.0
H5616 H 0.81093 0.31496 0.54562 0.0
H5617 H 0.81282 0.31476 0.52434 0.0
H5618 H 0.82291 0.28059 0.50882 0.0
C5619 C 0.83071 0.29141 0.46606 0.0
C5620 C 0.827 0.31012 0.49237 0.0
C5621 C 0.82979 0.29163 0.4538 0.0
C5622 C 0.81621 0.30816 0.54158 0.0
C5623 C 0.81736 0.30809 0.52938 0.0
C5624 C 0.82424 0.28888 0.50436 0.0
C5625 C 0.82506 0.29998 0.47292 0.0
C5626 C 0.8257 0.29967 0.48595 0.0
C5627 C 0.82409 0.29942 0.52375 0.0
C5628 C 0.82518 0.29939 0.51076 0.0
H5629 H 0.81238 0.31584 0.451 0.0
H5630 H 0.81391 0.31541 0.4723 0.0
H5631 H 0.82335 0.28082 0.48738 0.0
H5632 H 0.8329 0.28412 0.54792 0.0
H5633 H 0.83494 0.28402 0.52654 0.0
C5634 C 0.18303 0.68708 0.5418 0.0
C5635 C 0.17672 0.69532 0.54846 0.0
C5636 C 0.18263 0.68736 0.52955 0.0
C5637 C 0.16545 0.69829 0.50435 0.0
H5638 H 0.19468 0.69354 0.48754 0.0
C5639 C 0.16983 0.70408 0.45386 0.0
C5640 C 0.17673 0.69573 0.44794 0.0
C5641 C 0.16946 0.70427 0.46615 0.0
C5642 C 0.18642 0.69476 0.49209 0.0
H5643 H 0.1649 0.71021 0.54751 0.0
H5644 H 0.16425 0.71073 0.52605 0.0
H5645 H 0.19465 0.69343 0.50891 0.0
H5646 H 0.18847 0.68091 0.45025 0.0
H5647 H 0.18773 0.68117 0.4716 0.0
H5648 H 0.15723 0.69959 0.48746 0.0
C5649 C 0.16944 0.704 0.53033 0.0
C5650 C 0.1864 0.6947 0.50434 0.0
C5651 C 0.16984 0.70374 0.54261 0.0
C5652 C 0.18311 0.68749 0.45454 0.0
C5653 C 0.18275 0.68769 0.46679 0.0
C5654 C 0.16547 0.69835 0.49206 0.0
C5655 C 0.17593 0.69588 0.52366 0.0
C5656 C 0.17591 0.69635 0.51062 0.0
C5657 C 0.176 0.69613 0.47275 0.0
C5658 C 0.17594 0.69647 0.48579 0.0
H5659 H 0.18837 0.68045 0.54603 0.0
H5660 H 0.18757 0.68085 0.52468 0.0
H5661 H 0.1572 0.69949 0.50893 0.0
H5662 H 0.16483 0.71055 0.44901 0.0
H5663 H 0.16425 0.71095 0.47047 0.0
C5664 C 0.1638 0.10016 0.33587 0.0
C5665 C 0.16853 0.09879 0.32455 0.0
C5666 C 0.15398 0.10738 0.33768 0.0
C5667 C 0.12884 0.12009 0.32185 0.0
H5668 H 0.12974 0.14534 0.3447 0.0
C5669 C 0.10321 0.1623 0.31542 0.0
C5670 C 0.09743 0.1676 0.32493 0.0
C5671 C 0.11043 0.15261 0.31714 0.0
C5672 C 0.12924 0.13818 0.33845 0.0
H5673 H 0.16672 0.10387 0.30628 0.0
H5674 H 0.14967 0.11628 0.3094 0.0
H5675 H 0.14535 0.1305 0.34455 0.0
H5676 H 0.0947 0.16691 0.34375 0.0
H5677 H 0.10762 0.14984 0.34681 0.0
H5678 H 0.11302 0.12792 0.31545 0.0
C5679 C 0.15345 0.11177 0.31688 0.0
C5680 C 0.13817 0.12971 0.33836 0.0
C5681 C 0.16328 0.10472 0.31511 0.0
C5682 C 0.09902 0.16296 0.33626 0.0
C5683 C 0.10642 0.15325 0.33801 0.0
C5684 C 0.11994 0.1285 0.32196 0.0
C5685 C 0.14866 0.11316 0.32816 0.0
C5686 C 0.13827 0.12085 0.32976 0.0
C5687 C 0.11216 0.14796 0.32843 0.0
C5688 C 0.12029 0.13789 0.32995 0.0
H5689 H 0.1677 0.09571 0.34332 0.0
H5690 H 0.15046 0.10832 0.34647 0.0
H5691 H 0.12856 0.11322 0.31528 0.0
H5692 H 0.10218 0.16567 0.30658 0.0
H5693 H 0.11489 0.14888 0.3096 0.0
C5694 C 0.89379 0.16132 0.3162 0.0
C5695 C 0.8992 0.16725 0.32555 0.0
C5696 C 0.88691 0.15143 0.31825 0.0
C5697 C 0.86811 0.13742 0.3397 0.0
H5698 H 0.87056 0.11125 0.31803 0.0
C5699 C 0.83402 0.099 0.33698 0.0
C5700 C 0.82982 0.09746 0.32547 0.0
C5701 C 0.84387 0.10611 0.3391 0.0
C5702 C 0.86982 0.11844 0.32421 0.0
H5703 H 0.90163 0.16751 0.34442 0.0
H5704 H 0.88927 0.15015 0.34807 0.0
H5705 H 0.88564 0.12645 0.31803 0.0
H5706 H 0.83269 0.10197 0.30718 0.0
H5707 H 0.84978 0.11414 0.31084 0.0
H5708 H 0.85195 0.12961 0.34547 0.0
C5709 C 0.89051 0.15319 0.33914 0.0
C5710 C 0.87844 0.12713 0.32421 0.0
C5711 C 0.89757 0.16307 0.33705 0.0
C5712 C 0.8357 0.10298 0.31615 0.0
C5713 C 0.84556 0.10989 0.31823 0.0
C5714 C 0.85945 0.12867 0.3397 0.0
C5715 C 0.88517 0.14725 0.32972 0.0
C5716 C 0.87742 0.13696 0.33159 0.0
C5717 C 0.84976 0.11156 0.3297 0.0
C5718 C 0.85999 0.11937 0.3316 0.0
H5719 H 0.89486 0.16431 0.30723 0.0
H5720 H 0.88274 0.14716 0.31083 0.0
H5721 H 0.86711 0.14491 0.34547 0.0
H5722 H 0.82962 0.09487 0.34432 0.0
H5723 H 0.84692 0.10729 0.34803 0.0
C5724 C 0.89493 0.83113 0.33524 0.0
C5725 C 0.89555 0.82549 0.32427 0.0
C5726 C 0.88617 0.83954 0.33742 0.0
C5727 C 0.85689 0.84837 0.32707 0.0
H5728 H 0.86451 0.87976 0.33787 0.0
C5729 C 0.82862 0.88766 0.31525 0.0
C5730 C 0.82577 0.89593 0.32393 0.0
C5731 C 0.83678 0.87884 0.3175 0.0
C5732 C 0.86222 0.87096 0.33506 0.0
H5733 H 0.88762 0.82434 0.30697 0.0
H5734 H 0.87247 0.83877 0.31079 0.0
H5735 H 0.87967 0.86443 0.338 0.0
H5736 H 0.82943 0.90161 0.34173 0.0
H5737 H 0.84397 0.88614 0.34563 0.0
H5738 H 0.83962 0.85491 0.32371 0.0
C5739 C 0.87861 0.83668 0.31775 0.0
C5740 C 0.87088 0.86221 0.33514 0.0
C5741 C 0.88735 0.82844 0.31555 0.0
C5742 C 0.83144 0.89532 0.33489 0.0
C5743 C 0.83975 0.88651 0.33711 0.0
C5744 C 0.84829 0.85707 0.32698 0.0
C5745 C 0.87785 0.84226 0.32871 0.0
C5746 C 0.86838 0.85095 0.33073 0.0
C5747 C 0.84238 0.8781 0.32846 0.0
C5748 C 0.85097 0.86856 0.33057 0.0
H5749 H 0.90116 0.82905 0.34211 0.0
H5750 H 0.88579 0.84375 0.34593 0.0
H5751 H 0.85466 0.8397 0.32384 0.0
H5752 H 0.82448 0.88791 0.30669 0.0
H5753 H 0.83879 0.87263 0.31058 0.0
C5754 C 0.10386 0.8344 0.31599 0.0
C5755 C 0.09807 0.82905 0.32547 0.0
C5756 C 0.11103 0.84413 0.31777 0.0
C5757 C 0.12968 0.85873 0.33904 0.0
H5758 H 0.12803 0.8841 0.31637 0.0
C5759 C 0.16369 0.89724 0.33629 0.0
C5760 C 0.16815 0.89873 0.32487 0.0
C5761 C 0.15393 0.88997 0.33825 0.0
C5762 C 0.12856 0.87712 0.32281 0.0
H5763 H 0.09533 0.82964 0.3443 0.0
H5764 H 0.10817 0.84673 0.34746 0.0
H5765 H 0.11287 0.869 0.31648 0.0
H5766 H 0.16587 0.89387 0.30658 0.0
H5767 H 0.14895 0.88139 0.30998 0.0
H5768 H 0.14571 0.86667 0.34502 0.0
C5769 C 0.10701 0.84335 0.33865 0.0
C5770 C 0.1199 0.86848 0.32288 0.0
C5771 C 0.09966 0.83362 0.33683 0.0
C5772 C 0.16265 0.89292 0.31549 0.0
C5773 C 0.15289 0.88583 0.31742 0.0
C5774 C 0.13841 0.86742 0.33898 0.0
C5775 C 0.11269 0.84874 0.32909 0.0
C5776 C 0.1206 0.85896 0.33068 0.0
C5777 C 0.1484 0.88428 0.3288 0.0
C5778 C 0.13815 0.87643 0.33054 0.0
H5779 H 0.10284 0.83109 0.30714 0.0
H5780 H 0.11546 0.84796 0.31027 0.0
H5781 H 0.13044 0.85147 0.34514 0.0
H5782 H 0.1678 0.90159 0.34368 0.0
H5783 H 0.15065 0.88889 0.34711 0.0
C5784 C 0.16438 0.89566 0.66218 0.0
C5785 C 0.16906 0.89725 0.6735 0.0
C5786 C 0.15474 0.88819 0.66043 0.0
C5787 C 0.12997 0.87487 0.67641 0.0
H5788 H 0.13131 0.84984 0.65336 0.0
C5789 C 0.10474 0.83229 0.68235 0.0
C5790 C 0.09889 0.82722 0.67276 0.0
C5791 C 0.11204 0.84196 0.68079 0.0
C5792 C 0.1307 0.85692 0.65968 0.0
H5793 H 0.16734 0.8923 0.69182 0.0
H5794 H 0.15062 0.87944 0.68878 0.0
H5795 H 0.1466 0.865 0.65356 0.0
H5796 H 0.09616 0.82824 0.65395 0.0
H5797 H 0.10919 0.84525 0.65117 0.0
H5798 H 0.11436 0.86665 0.68282 0.0
C5799 C 0.15429 0.88398 0.68127 0.0
C5800 C 0.13944 0.86559 0.65979 0.0
C5801 C 0.16393 0.89129 0.68299 0.0
C5802 C 0.10055 0.83201 0.6615 0.0
C5803 C 0.10801 0.84169 0.65991 0.0
C5804 C 0.12127 0.86627 0.67629 0.0
C5805 C 0.14955 0.88236 0.67 0.0
C5806 C 0.13937 0.87439 0.66844 0.0
C5807 C 0.11375 0.8468 0.66958 0.0
C5808 C 0.12177 0.85696 0.66821 0.0
H5809 H 0.16819 0.90013 0.6547 0.0
H5810 H 0.15126 0.88709 0.65165 0.0
H5811 H 0.12956 0.88171 0.68302 0.0
H5812 H 0.10367 0.8288 0.69114 0.0
H5813 H 0.11651 0.84556 0.68838 0.0
C5814 C 0.16432 0.09975 0.66001 0.0
C5815 C 0.17026 0.09973 0.67085 0.0
C5816 C 0.15586 0.10837 0.65757 0.0
C5817 C 0.14752 0.13826 0.66624 0.0
H5818 H 0.11555 0.13021 0.65766 0.0
C5819 C 0.10907 0.16694 0.67915 0.0
C5820 C 0.10033 0.16963 0.67088 0.0
C5821 C 0.11771 0.15868 0.67662 0.0
C5822 C 0.1245 0.13261 0.6598 0.0
H5823 H 0.17185 0.1086 0.68764 0.0
H5824 H 0.15735 0.12358 0.68333 0.0
H5825 H 0.1308 0.11494 0.6577 0.0
H5826 H 0.09362 0.16555 0.65354 0.0
H5827 H 0.10879 0.15077 0.64916 0.0
H5828 H 0.14124 0.15575 0.66883 0.0
C5829 C 0.15924 0.11703 0.67669 0.0
C5830 C 0.13321 0.12389 0.65983 0.0
C5831 C 0.16752 0.1084 0.67918 0.0
C5832 C 0.10028 0.16368 0.66006 0.0
C5833 C 0.10893 0.15523 0.65756 0.0
C5834 C 0.13888 0.14692 0.6662 0.0
C5835 C 0.15338 0.11718 0.66585 0.0
C5836 C 0.14468 0.12658 0.66351 0.0
C5837 C 0.1178 0.1528 0.66579 0.0
C5838 C 0.1272 0.1441 0.66344 0.0
H5839 H 0.16622 0.09314 0.65345 0.0
H5840 H 0.15142 0.10829 0.64916 0.0
H5841 H 0.15635 0.14061 0.66889 0.0
H5842 H 0.10933 0.17126 0.68761 0.0
H5843 H 0.1243 0.15681 0.68323 0.0
C5844 C 0.88761 0.16662 0.67991 0.0
C5845 C 0.89641 0.16954 0.67179 0.0
C5846 C 0.87894 0.15851 0.67705 0.0
C5847 C 0.87209 0.13296 0.65968 0.0
H5848 H 0.84017 0.14129 0.66823 0.0
C5849 C 0.83196 0.10041 0.65979 0.0
C5850 C 0.82615 0.10046 0.67069 0.0
C5851 C 0.84044 0.10899 0.65721 0.0
C5852 C 0.84902 0.13886 0.6657 0.0
H5853 H 0.90322 0.16598 0.65436 0.0
H5854 H 0.88801 0.15141 0.64943 0.0
H5855 H 0.85546 0.15626 0.6685 0.0
H5856 H 0.82478 0.10943 0.68746 0.0
H5857 H 0.83927 0.12432 0.68292 0.0
H5858 H 0.86563 0.11536 0.65746 0.0
C5859 C 0.88785 0.15561 0.65796 0.0
C5860 C 0.85775 0.14742 0.66585 0.0
C5861 C 0.89651 0.16393 0.66078 0.0
C5862 C 0.829 0.10916 0.67895 0.0
C5863 C 0.83728 0.11775 0.67633 0.0
C5864 C 0.86329 0.12434 0.65953 0.0
C5865 C 0.8789 0.15298 0.66604 0.0
C5866 C 0.86945 0.14446 0.66333 0.0
C5867 C 0.84303 0.11783 0.66544 0.0
C5868 C 0.85178 0.12715 0.66303 0.0
H5869 H 0.88731 0.17069 0.6885 0.0
H5870 H 0.87228 0.15647 0.68353 0.0
H5871 H 0.88105 0.13047 0.65772 0.0
H5872 H 0.82997 0.09377 0.65328 0.0
H5873 H 0.84481 0.10885 0.64877 0.0
C5874 C 0.89706 0.83413 0.66153 0.0
C5875 C 0.89865 0.82922 0.67275 0.0
C5876 C 0.88971 0.8439 0.65999 0.0
C5877 C 0.8766 0.86847 0.67652 0.0
H5878 H 0.85157 0.86776 0.65343 0.0
C5879 C 0.83385 0.89327 0.68309 0.0
C5880 C 0.82871 0.89932 0.67366 0.0
C5881 C 0.84365 0.88618 0.68134 0.0
C5882 C 0.85866 0.8682 0.65976 0.0
H5883 H 0.89383 0.83068 0.69113 0.0
H5884 H 0.88117 0.84762 0.68847 0.0
H5885 H 0.86668 0.85242 0.65328 0.0
H5886 H 0.82977 0.90266 0.65495 0.0
H5887 H 0.84698 0.88998 0.65184 0.0
H5888 H 0.8684 0.88394 0.6833 0.0
C5889 C 0.88562 0.84403 0.68086 0.0
C5890 C 0.86729 0.85943 0.65968 0.0
C5891 C 0.89282 0.83427 0.68237 0.0
C5892 C 0.83359 0.89812 0.66238 0.0
C5893 C 0.84339 0.89086 0.6606 0.0
C5894 C 0.86801 0.8772 0.6766 0.0
C5895 C 0.884 0.84899 0.66968 0.0
C5896 C 0.87609 0.85926 0.66834 0.0
C5897 C 0.84853 0.88487 0.6701 0.0
C5898 C 0.85872 0.87691 0.6685 0.0
H5899 H 0.90143 0.83039 0.65395 0.0
H5900 H 0.8886 0.84754 0.65128 0.0
H5901 H 0.88342 0.86871 0.68315 0.0
H5902 H 0.83029 0.89399 0.69189 0.0
H5903 H 0.84727 0.88152 0.6888 0.0
C5904 C 0.31508 0.16715 0.10844 0.0
C5905 C 0.32385 0.17023 0.10034 0.0
C5906 C 0.31731 0.15894 0.11722 0.0
C5907 C 0.33503 0.13375 0.12538 0.0
H5908 H 0.3234 0.14134 0.1565 0.0
C5909 C 0.33521 0.10127 0.16543 0.0
C5910 C 0.32426 0.10062 0.17111 0.0
C5911 C 0.33731 0.10996 0.15693 0.0
C5912 C 0.32673 0.13909 0.14787 0.0
H5913 H 0.34178 0.16688 0.0949 0.0
H5914 H 0.34565 0.15224 0.11033 0.0
H5915 H 0.32332 0.15631 0.14123 0.0
H5916 H 0.3069 0.1084 0.1722 0.0
H5917 H 0.31057 0.12345 0.15759 0.0
H5918 H 0.33802 0.11634 0.13203 0.0
C5919 C 0.33708 0.15633 0.10984 0.0
C5920 C 0.32669 0.14766 0.13914 0.0
C5921 C 0.33487 0.1647 0.10106 0.0
C5922 C 0.31546 0.1087 0.16808 0.0
C5923 C 0.31758 0.11738 0.15974 0.0
C5924 C 0.33506 0.12512 0.13418 0.0
C5925 C 0.32834 0.15352 0.1181 0.0
C5926 C 0.33043 0.14497 0.1277 0.0
C5927 C 0.32853 0.11818 0.15413 0.0
C5928 C 0.33051 0.12762 0.14538 0.0
H5929 H 0.30646 0.17114 0.10809 0.0
H5930 H 0.31032 0.15678 0.12331 0.0
H5931 H 0.33795 0.13145 0.11663 0.0
H5932 H 0.34214 0.09513 0.16757 0.0
H5933 H 0.34582 0.11038 0.15271 0.0
C5934 C 0.8968 0.33583 0.16367 0.0
C5935 C 0.8969 0.3248 0.16924 0.0
C5936 C 0.88816 0.33848 0.15527 0.0
C5937 C 0.85829 0.32998 0.14697 0.0
H5938 H 0.86593 0.3388 0.11496 0.0
C5939 C 0.82941 0.31698 0.10872 0.0
C5940 C 0.82646 0.32532 0.10013 0.0
C5941 C 0.83774 0.31955 0.11728 0.0
C5942 C 0.86365 0.33659 0.12393 0.0
H5943 H 0.88821 0.30785 0.17018 0.0
H5944 H 0.87323 0.31252 0.15582 0.0
H5945 H 0.88139 0.33869 0.13003 0.0
H5946 H 0.83013 0.34282 0.09361 0.0
H5947 H 0.84504 0.34726 0.10863 0.0
H5948 H 0.84074 0.32734 0.14087 0.0
C5949 C 0.87971 0.31915 0.15795 0.0
C5950 C 0.87247 0.33653 0.13253 0.0
C5951 C 0.88835 0.31647 0.16616 0.0
C5952 C 0.83221 0.33625 0.10016 0.0
C5953 C 0.84073 0.33878 0.10871 0.0
C5954 C 0.84953 0.33004 0.13843 0.0
C5955 C 0.87943 0.3302 0.15251 0.0
C5956 C 0.86993 0.33275 0.144 0.0
C5957 C 0.84344 0.33048 0.11744 0.0
C5958 C 0.85221 0.33287 0.12674 0.0
H5959 H 0.90332 0.3424 0.16585 0.0
H5960 H 0.88815 0.34704 0.15113 0.0
H5961 H 0.85607 0.32722 0.1558 0.0
H5962 H 0.82523 0.30844 0.10892 0.0
H5963 H 0.83982 0.3129 0.12376 0.0
C5964 C 0.66178 0.89608 0.16473 0.0
C5965 C 0.67271 0.89663 0.17048 0.0
C5966 C 0.65956 0.88726 0.15642 0.0
C5967 C 0.66955 0.85773 0.14802 0.0
H5968 H 0.659 0.86512 0.11648 0.0
C5969 C 0.6815 0.8291 0.10913 0.0
C5970 C 0.67287 0.82608 0.10087 0.0
C5971 C 0.67919 0.83737 0.11782 0.0
C5972 C 0.66173 0.86289 0.12532 0.0
H5973 H 0.68987 0.88849 0.17191 0.0
H5974 H 0.68598 0.87319 0.15762 0.0
H5975 H 0.65902 0.88047 0.13163 0.0
H5976 H 0.65508 0.82957 0.09505 0.0
H5977 H 0.65106 0.84434 0.11031 0.0
H5978 H 0.67269 0.84034 0.1417 0.0
C5979 C 0.67909 0.87946 0.15956 0.0
C5980 C 0.66174 0.87166 0.13397 0.0
C5981 C 0.68134 0.88828 0.16772 0.0
C5982 C 0.66189 0.83171 0.10134 0.0
C5983 C 0.65959 0.84015 0.11003 0.0
C5984 C 0.66954 0.84903 0.13943 0.0
C5985 C 0.66817 0.87879 0.15388 0.0
C5986 C 0.66607 0.86924 0.14528 0.0
C5987 C 0.6682 0.84292 0.11844 0.0
C5988 C 0.66605 0.85162 0.12789 0.0
H5989 H 0.65498 0.90243 0.16667 0.0
H5990 H 0.65108 0.88694 0.15213 0.0
H5991 H 0.6727 0.85556 0.15673 0.0
H5992 H 0.69009 0.82503 0.10898 0.0
H5993 H 0.68607 0.8395 0.12404 0.0
C5994 C 0.16491 0.66207 0.10155 0.0
C5995 C 0.16983 0.67326 0.09982 0.0
C5996 C 0.15521 0.66062 0.10899 0.0
C5997 C 0.13076 0.67734 0.12207 0.0
H5998 H 0.13134 0.65431 0.14716 0.0
C5999 C 0.10511 0.68381 0.16439 0.0
C6000 C 0.09907 0.67431 0.1694 0.0
C6001 C 0.11249 0.68212 0.15479 0.0
C6002 C 0.13094 0.66063 0.14006 0.0
H6003 H 0.16849 0.69167 0.10453 0.0
H6004 H 0.15167 0.68917 0.11738 0.0
H6005 H 0.14675 0.6541 0.13212 0.0
H6006 H 0.09607 0.65554 0.16836 0.0
H6007 H 0.10923 0.65255 0.1515 0.0
H6008 H 0.11524 0.68413 0.13015 0.0
C6009 C 0.15519 0.68152 0.11295 0.0
C6010 C 0.13975 0.66051 0.13147 0.0
C6011 C 0.16489 0.68294 0.10564 0.0
C6012 C 0.1006 0.66302 0.16463 0.0
C6013 C 0.10814 0.66131 0.15504 0.0
C6014 C 0.122 0.67745 0.13061 0.0
C6015 C 0.1502 0.67037 0.11468 0.0
C6016 C 0.13995 0.66914 0.12263 0.0
C6017 C 0.11409 0.67088 0.14999 0.0
C6018 C 0.12222 0.66936 0.13993 0.0
H6019 H 0.16857 0.65445 0.09719 0.0
H6020 H 0.15153 0.65193 0.11019 0.0
H6021 H 0.13055 0.68393 0.11521 0.0
H6022 H 0.10414 0.69261 0.16787 0.0
H6023 H 0.11712 0.68964 0.15124 0.0
C6024 C 0.31469 0.89228 0.83366 0.0
C6025 C 0.32416 0.8981 0.82834 0.0
C6026 C 0.31647 0.88514 0.84342 0.0
C6027 C 0.33793 0.8668 0.85827 0.0
H6028 H 0.31527 0.86846 0.88365 0.0
C6029 C 0.33622 0.83334 0.8972 0.0
C6030 C 0.3249 0.82876 0.89903 0.0
C6031 C 0.33786 0.84304 0.88977 0.0
C6032 C 0.32169 0.86791 0.87665 0.0
H6033 H 0.34297 0.90092 0.82899 0.0
H6034 H 0.34613 0.88816 0.84611 0.0
H6035 H 0.31506 0.88334 0.86828 0.0
H6036 H 0.30647 0.83076 0.89464 0.0
H6037 H 0.30932 0.84754 0.88186 0.0
H6038 H 0.34423 0.85104 0.86647 0.0
C6039 C 0.33732 0.88925 0.8427 0.0
C6040 C 0.32157 0.87642 0.86786 0.0
C6041 C 0.33551 0.89656 0.83294 0.0
C6042 C 0.3153 0.83408 0.89343 0.0
C6043 C 0.31692 0.84377 0.88616 0.0
C6044 C 0.33804 0.85823 0.8671 0.0
C6045 C 0.32778 0.88355 0.84808 0.0
C6046 C 0.32939 0.87572 0.85836 0.0
C6047 C 0.32819 0.84838 0.88424 0.0
C6048 C 0.32963 0.85848 0.87613 0.0
H6049 H 0.30584 0.89327 0.83031 0.0
H6050 H 0.30897 0.8807 0.84725 0.0
H6051 H 0.34405 0.86605 0.85102 0.0
H6052 H 0.34378 0.82938 0.90139 0.0
H6053 H 0.34665 0.84642 0.88843 0.0
C6054 C 0.16446 0.3351 0.89622 0.0
C6055 C 0.16908 0.3238 0.89804 0.0
C6056 C 0.15474 0.33673 0.88883 0.0
C6057 C 0.12969 0.32062 0.87621 0.0
H6058 H 0.13094 0.34298 0.85055 0.0
C6059 C 0.10395 0.31377 0.83405 0.0
C6060 C 0.09823 0.32329 0.8287 0.0
C6061 C 0.1113 0.31552 0.84366 0.0
C6062 C 0.13035 0.33686 0.85781 0.0
H6063 H 0.16718 0.30537 0.89358 0.0
H6064 H 0.15032 0.3082 0.88084 0.0
H6065 H 0.1464 0.34305 0.86554 0.0
H6066 H 0.09577 0.34215 0.82917 0.0
H6067 H 0.10888 0.34526 0.84606 0.0
H6068 H 0.11393 0.31414 0.86835 0.0
C6069 C 0.1541 0.3158 0.88514 0.0
C6070 C 0.1392 0.3369 0.86637 0.0
C6071 C 0.16382 0.31419 0.89239 0.0
C6072 C 0.10004 0.33465 0.83316 0.0
C6073 C 0.10756 0.33643 0.84277 0.0
C6074 C 0.12089 0.32059 0.86771 0.0
C6075 C 0.14942 0.32706 0.8833 0.0
C6076 C 0.13915 0.32848 0.87541 0.0
C6077 C 0.1132 0.32685 0.84814 0.0
C6078 C 0.12135 0.32842 0.85818 0.0
H6079 H 0.16837 0.34267 0.90045 0.0
H6080 H 0.15131 0.34551 0.88754 0.0
H6081 H 0.12931 0.31419 0.88322 0.0
H6082 H 0.10276 0.3049 0.83082 0.0
H6083 H 0.11569 0.30798 0.84746 0.0
C6084 C 0.66086 0.16517 0.89658 0.0
C6085 C 0.67176 0.17099 0.8965 0.0
C6086 C 0.65825 0.15671 0.88801 0.0
C6087 C 0.66662 0.14822 0.85808 0.0
H6088 H 0.65794 0.11631 0.86626 0.0
C6089 C 0.67957 0.10958 0.82977 0.0
C6090 C 0.67119 0.10103 0.82684 0.0
C6091 C 0.67704 0.11821 0.83803 0.0
C6092 C 0.66011 0.12525 0.86383 0.0
H6093 H 0.68851 0.17236 0.8875 0.0
H6094 H 0.68393 0.15785 0.87262 0.0
H6095 H 0.65812 0.13161 0.8815 0.0
H6096 H 0.65365 0.09462 0.83052 0.0
H6097 H 0.64927 0.10977 0.84533 0.0
H6098 H 0.66916 0.14186 0.84061 0.0
C6099 C 0.67735 0.15984 0.8792 0.0
C6100 C 0.66021 0.13398 0.87253 0.0
C6101 C 0.68 0.16813 0.88778 0.0
C6102 C 0.66025 0.10114 0.83258 0.0
C6103 C 0.65776 0.10977 0.84104 0.0
C6104 C 0.66652 0.13955 0.84946 0.0
C6105 C 0.66645 0.15411 0.87915 0.0
C6106 C 0.66394 0.14542 0.86979 0.0
C6107 C 0.6661 0.11847 0.84369 0.0
C6108 C 0.66373 0.1279 0.85233 0.0
H6109 H 0.65436 0.16718 0.90323 0.0
H6110 H 0.6498 0.15236 0.88817 0.0
H6111 H 0.66932 0.15703 0.8557 0.0
H6112 H 0.68812 0.10971 0.82561 0.0
H6113 H 0.68372 0.12468 0.84007 0.0
C6114 C 0.89772 0.66097 0.83303 0.0
C6115 C 0.8974 0.67174 0.827 0.0
C6116 C 0.8892 0.65836 0.84157 0.0
C6117 C 0.85909 0.66642 0.84982 0.0
H6118 H 0.86718 0.65805 0.88184 0.0
C6119 C 0.83031 0.67912 0.88828 0.0
C6120 C 0.82745 0.67069 0.89681 0.0
C6121 C 0.83867 0.67671 0.8797 0.0
C6122 C 0.86478 0.66014 0.87287 0.0
H6123 H 0.88811 0.68832 0.8254 0.0
H6124 H 0.87338 0.68375 0.84003 0.0
H6125 H 0.8825 0.6583 0.86663 0.0
H6126 H 0.83135 0.65319 0.90322 0.0
H6127 H 0.84632 0.64905 0.88818 0.0
H6128 H 0.84155 0.66881 0.85606 0.0
C6129 C 0.88007 0.67725 0.83814 0.0
C6130 C 0.87353 0.66029 0.86419 0.0
C6131 C 0.88857 0.67988 0.82977 0.0
C6132 C 0.83335 0.65983 0.89672 0.0
C6133 C 0.8419 0.65747 0.88816 0.0
C6134 C 0.85042 0.6663 0.85844 0.0
C6135 C 0.88019 0.66643 0.84403 0.0
C6136 C 0.87081 0.66389 0.8527 0.0
C6137 C 0.8445 0.66586 0.87948 0.0
C6138 C 0.85325 0.66361 0.87013 0.0
H6139 H 0.90446 0.65454 0.8311 0.0
H6140 H 0.8895 0.64997 0.84604 0.0
H6141 H 0.85672 0.66901 0.84098 0.0
H6142 H 0.82602 0.6876 0.88814 0.0
H6143 H 0.84065 0.68342 0.87325 0.0
C6144 C 0.16745 0.31741 0.10804 0.0
C6145 C 0.17058 0.32613 0.09991 0.0
C6146 C 0.1591 0.31964 0.11666 0.0
C6147 C 0.13347 0.33688 0.12411 0.0
H6148 H 0.14066 0.32569 0.15548 0.0
C6149 C 0.10017 0.33564 0.16362 0.0
C6150 C 0.09977 0.32452 0.169 0.0
C6151 C 0.1089 0.33821 0.1553 0.0
C6152 C 0.13854 0.32893 0.14679 0.0
H6153 H 0.16719 0.344 0.09428 0.0
H6154 H 0.15226 0.34786 0.10943 0.0
H6155 H 0.15602 0.32606 0.1406 0.0
H6156 H 0.10801 0.30734 0.16967 0.0
H6157 H 0.12313 0.31186 0.1554 0.0
H6158 H 0.11579 0.33927 0.13029 0.0
C6159 C 0.15644 0.33933 0.10909 0.0
C6160 C 0.14732 0.32914 0.13828 0.0
C6161 C 0.16498 0.33713 0.10047 0.0
C6162 C 0.10811 0.31603 0.16579 0.0
C6163 C 0.11683 0.31862 0.15764 0.0
C6164 C 0.12462 0.33667 0.13268 0.0
C6165 C 0.15356 0.33062 0.11736 0.0
C6166 C 0.14478 0.33267 0.12674 0.0
C6167 C 0.11741 0.32976 0.1524 0.0
C6168 C 0.12701 0.33224 0.14396 0.0
H6169 H 0.17151 0.30881 0.10781 0.0
H6170 H 0.15689 0.31268 0.12277 0.0
H6171 H 0.13129 0.33964 0.11527 0.0
H6172 H 0.09383 0.34234 0.16591 0.0
H6173 H 0.10915 0.34685 0.15133 0.0
C6174 C 0.16754 0.68115 0.88993 0.0
C6175 C 0.17071 0.67228 0.89789 0.0
C6176 C 0.15932 0.679 0.88115 0.0
C6177 C 0.13413 0.66154 0.87285 0.0
H6178 H 0.14189 0.67314 0.84177 0.0
C6179 C 0.10144 0.66221 0.83308 0.0
C6180 C 0.10102 0.67317 0.82738 0.0
C6181 C 0.11015 0.6599 0.84149 0.0
C6182 C 0.1396 0.66982 0.85039 0.0
H6183 H 0.1675 0.65425 0.90308 0.0
H6184 H 0.1528 0.65052 0.88766 0.0
H6185 H 0.15687 0.67292 0.85703 0.0
H6186 H 0.10927 0.6903 0.82613 0.0
H6187 H 0.12435 0.68626 0.84061 0.0
H6188 H 0.11666 0.65889 0.86624 0.0
C6189 C 0.15685 0.65911 0.88825 0.0
C6190 C 0.14817 0.66968 0.85911 0.0
C6191 C 0.16524 0.66124 0.89703 0.0
C6192 C 0.10938 0.68174 0.83029 0.0
C6193 C 0.11808 0.67941 0.83855 0.0
C6194 C 0.12549 0.66169 0.86408 0.0
C6195 C 0.15397 0.66795 0.88013 0.0
C6196 C 0.14542 0.66595 0.87053 0.0
C6197 C 0.11863 0.66845 0.84418 0.0
C6198 C 0.12806 0.66625 0.85289 0.0
H6199 H 0.17148 0.68979 0.89038 0.0
H6200 H 0.1571 0.68605 0.87515 0.0
H6201 H 0.1318 0.65863 0.88161 0.0
H6202 H 0.09508 0.65545 0.83103 0.0
H6203 H 0.11037 0.65139 0.84572 0.0
C6204 C 0.31408 0.16403 0.8917 0.0
C6205 C 0.32363 0.16889 0.89779 0.0
C6206 C 0.31563 0.15434 0.8844 0.0
C6207 C 0.33696 0.13885 0.86634 0.0
H6208 H 0.31312 0.11452 0.86695 0.0
C6209 C 0.33469 0.10001 0.83273 0.0
C6210 C 0.32349 0.09866 0.82772 0.0
C6211 C 0.33632 0.10744 0.84243 0.0
C6212 C 0.31987 0.12122 0.86669 0.0
H6213 H 0.34235 0.16748 0.90094 0.0
H6214 H 0.3451 0.15046 0.88795 0.0
H6215 H 0.31314 0.1297 0.88202 0.0
H6216 H 0.30523 0.10397 0.82895 0.0
H6217 H 0.30804 0.11675 0.84576 0.0
H6218 H 0.34342 0.13052 0.8507 0.0
C6219 C 0.33641 0.15419 0.88892 0.0
C6220 C 0.31988 0.12991 0.87531 0.0
C6221 C 0.33483 0.16389 0.89637 0.0
C6222 C 0.31397 0.10479 0.83261 0.0
C6223 C 0.31556 0.11206 0.84231 0.0
C6224 C 0.33696 0.13011 0.85767 0.0
C6225 C 0.32678 0.14928 0.88295 0.0
C6226 C 0.32815 0.13905 0.87499 0.0
C6227 C 0.32673 0.11347 0.84735 0.0
C6228 C 0.32814 0.12146 0.85754 0.0
H6229 H 0.30535 0.16768 0.89257 0.0
H6230 H 0.30808 0.15089 0.87975 0.0
H6231 H 0.34343 0.1458 0.86588 0.0
H6232 H 0.34219 0.09541 0.82911 0.0
H6233 H 0.34502 0.10838 0.84615 0.0
C6234 C 0.89357 0.31602 0.83466 0.0
C6235 C 0.89912 0.32544 0.82896 0.0
C6236 C 0.8865 0.31795 0.84444 0.0
C6237 C 0.86756 0.33929 0.85848 0.0
H6238 H 0.86934 0.31708 0.88425 0.0
C6239 C 0.83333 0.33662 0.89681 0.0
C6240 C 0.82896 0.32518 0.89836 0.0
C6241 C 0.84312 0.33861 0.8896 0.0
C6242 C 0.86877 0.3234 0.87716 0.0
H6243 H 0.90159 0.34431 0.829 0.0
H6244 H 0.88892 0.34774 0.84619 0.0
H6245 H 0.88465 0.31721 0.8693 0.0
H6246 H 0.8314 0.30688 0.89366 0.0
H6247 H 0.84841 0.31033 0.88128 0.0
H6248 H 0.85136 0.34513 0.86618 0.0
C6249 C 0.89018 0.33885 0.84304 0.0
C6250 C 0.87753 0.32348 0.86861 0.0
C6251 C 0.89744 0.33689 0.83327 0.0
C6252 C 0.83456 0.3158 0.89266 0.0
C6253 C 0.84437 0.31776 0.88563 0.0
C6254 C 0.85876 0.33923 0.86709 0.0
C6255 C 0.88471 0.32936 0.84875 0.0
C6256 C 0.87677 0.33108 0.85893 0.0
C6257 C 0.84877 0.32916 0.88402 0.0
C6258 C 0.85907 0.33095 0.87625 0.0
H6259 H 0.89467 0.3071 0.83157 0.0
H6260 H 0.88223 0.31048 0.8485 0.0
H6261 H 0.86674 0.34523 0.85109 0.0
H6262 H 0.82914 0.34402 0.90108 0.0
H6263 H 0.84634 0.34749 0.88847 0.0
C6264 C 0.66084 0.89642 0.83347 0.0
C6265 C 0.67175 0.89704 0.82771 0.0
C6266 C 0.65871 0.88762 0.84183 0.0
C6267 C 0.66888 0.85818 0.8502 0.0
H6268 H 0.65844 0.86543 0.8818 0.0
C6269 C 0.68108 0.82942 0.8889 0.0
C6270 C 0.67249 0.82632 0.89718 0.0
C6271 C 0.67871 0.83774 0.88028 0.0
C6272 C 0.66113 0.86325 0.87295 0.0
H6273 H 0.689 0.88907 0.82633 0.0
H6274 H 0.68526 0.8738 0.84069 0.0
H6275 H 0.65833 0.88083 0.86669 0.0
H6276 H 0.65473 0.82974 0.9031 0.0
H6277 H 0.65061 0.84461 0.88795 0.0
H6278 H 0.67211 0.84079 0.85645 0.0
C6279 C 0.67831 0.88 0.83872 0.0
C6280 C 0.66107 0.87204 0.86432 0.0
C6281 C 0.68048 0.88881 0.83053 0.0
C6282 C 0.6615 0.83194 0.8968 0.0
C6283 C 0.65915 0.84044 0.88817 0.0
C6284 C 0.66894 0.84945 0.85877 0.0
C6285 C 0.6674 0.87924 0.8444 0.0
C6286 C 0.66537 0.86967 0.85299 0.0
C6287 C 0.66771 0.84327 0.87973 0.0
C6288 C 0.66549 0.852 0.87033 0.0
H6289 H 0.65397 0.90269 0.83149 0.0
H6290 H 0.65023 0.88724 0.84612 0.0
H6291 H 0.67201 0.85605 0.84147 0.0
H6292 H 0.68968 0.82535 0.88898 0.0
H6293 H 0.68556 0.83993 0.87404 0.0
C6294 C 0.8296 0.67897 0.10893 0.0
C6295 C 0.8265 0.67035 0.10068 0.0
C6296 C 0.83777 0.67655 0.11769 0.0
C6297 C 0.86303 0.65887 0.12535 0.0
H6298 H 0.85565 0.67002 0.15669 0.0
C6299 C 0.89611 0.65949 0.16495 0.0
C6300 C 0.89666 0.67058 0.17038 0.0
C6301 C 0.88732 0.65705 0.15666 0.0
C6302 C 0.85782 0.66679 0.14801 0.0
H6303 H 0.82973 0.65248 0.09497 0.0
H6304 H 0.84434 0.64829 0.11034 0.0
H6305 H 0.84046 0.66997 0.14162 0.0
H6306 H 0.88857 0.68781 0.17123 0.0
H6307 H 0.87333 0.68353 0.15701 0.0
H6308 H 0.88059 0.65618 0.13172 0.0
C6309 C 0.84028 0.65688 0.11 0.0
C6310 C 0.84914 0.66676 0.13939 0.0
C6311 C 0.83194 0.65928 0.10124 0.0
C6312 C 0.88836 0.67916 0.1673 0.0
C6313 C 0.87957 0.67669 0.15918 0.0
C6314 C 0.87177 0.6589 0.13403 0.0
C6315 C 0.84314 0.66548 0.11838 0.0
C6316 C 0.85176 0.66325 0.12787 0.0
C6317 C 0.87888 0.66561 0.15384 0.0
C6318 C 0.86933 0.66331 0.1453 0.0
H6319 H 0.82566 0.68762 0.1087 0.0
H6320 H 0.83997 0.68342 0.12389 0.0
H6321 H 0.86527 0.65612 0.11653 0.0
H6322 H 0.90242 0.65272 0.16714 0.0
H6323 H 0.88699 0.64845 0.15262 0.0
C6324 C 0.33563 0.83198 0.10075 0.0
C6325 C 0.32436 0.82729 0.09892 0.0
C6326 C 0.3372 0.8417 0.10816 0.0
C6327 C 0.32092 0.86662 0.12081 0.0
H6328 H 0.34322 0.86542 0.14652 0.0
C6329 C 0.31394 0.89246 0.16292 0.0
C6330 C 0.32345 0.89821 0.16824 0.0
C6331 C 0.3157 0.88503 0.15337 0.0
C6332 C 0.33712 0.86599 0.13925 0.0
H6333 H 0.30592 0.82908 0.10335 0.0
H6334 H 0.30863 0.84594 0.11611 0.0
H6335 H 0.34341 0.85 0.13149 0.0
H6336 H 0.34233 0.90064 0.16779 0.0
H6337 H 0.34545 0.88741 0.15101 0.0
H6338 H 0.31434 0.88232 0.1287 0.0
C6339 C 0.31625 0.84222 0.11181 0.0
C6340 C 0.33723 0.85717 0.13066 0.0
C6341 C 0.31472 0.8325 0.10456 0.0
C6342 C 0.33483 0.89633 0.16383 0.0
C6343 C 0.33662 0.88876 0.15428 0.0
C6344 C 0.32082 0.87539 0.12935 0.0
C6345 C 0.32749 0.84695 0.11368 0.0
C6346 C 0.32884 0.8572 0.1216 0.0
C6347 C 0.32704 0.8831 0.14892 0.0
C6348 C 0.32863 0.87494 0.13889 0.0
H6349 H 0.34323 0.82811 0.09653 0.0
H6350 H 0.34595 0.84518 0.10947 0.0
H6351 H 0.31451 0.86699 0.11379 0.0
H6352 H 0.30506 0.8937 0.16612 0.0
H6353 H 0.30817 0.88063 0.14958 0.0
C6354 C 0.67897 0.16726 0.10899 0.0
C6355 C 0.67076 0.17014 0.10026 0.0
C6356 C 0.67626 0.15905 0.11761 0.0
C6357 C 0.65925 0.13324 0.12433 0.0
H6358 H 0.66796 0.14133 0.15626 0.0
C6359 C 0.66015 0.10049 0.1644 0.0
C6360 C 0.67117 0.10061 0.16998 0.0
C6361 C 0.65737 0.10903 0.15595 0.0
C6362 C 0.66537 0.13897 0.14741 0.0
H6363 H 0.65333 0.16646 0.09355 0.0
H6364 H 0.64864 0.15174 0.10869 0.0
H6365 H 0.66789 0.15647 0.14114 0.0
H6366 H 0.68796 0.1096 0.17091 0.0
H6367 H 0.68306 0.12443 0.15647 0.0
H6368 H 0.65731 0.11553 0.13061 0.0
C6369 C 0.65713 0.15603 0.10883 0.0
C6370 C 0.66534 0.14762 0.13877 0.0
C6371 C 0.65981 0.16443 0.10021 0.0
C6372 C 0.67935 0.1093 0.16688 0.0
C6373 C 0.67653 0.11784 0.15863 0.0
C6374 C 0.65928 0.12452 0.13304 0.0
C6375 C 0.66531 0.1534 0.11769 0.0
C6376 C 0.66277 0.14475 0.12706 0.0
C6377 C 0.6655 0.11788 0.15315 0.0
C6378 C 0.66284 0.12725 0.14454 0.0
H6379 H 0.68752 0.17141 0.10925 0.0
H6380 H 0.68281 0.15703 0.12421 0.0
H6381 H 0.65725 0.13081 0.11535 0.0
H6382 H 0.6537 0.09386 0.16659 0.0
H6383 H 0.64882 0.10886 0.15178 0.0
C6384 C 0.601 0.66508 0.8346 0.0
C6385 C 0.6003 0.67087 0.82371 0.0
C6386 C 0.60976 0.65665 0.83661 0.0
C6387 C 0.63895 0.64784 0.82584 0.0
H6388 H 0.63164 0.61672 0.83759 0.0
C6389 C 0.6678 0.60852 0.81536 0.0
C6390 C 0.67066 0.60054 0.82431 0.0
C6391 C 0.6595 0.61729 0.81725 0.0
C6392 C 0.63385 0.62544 0.8345 0.0
H6393 H 0.60807 0.67221 0.80636 0.0
H6394 H 0.62323 0.65768 0.80987 0.0
H6395 H 0.61639 0.63195 0.83745 0.0
H6396 H 0.66687 0.59534 0.84223 0.0
H6397 H 0.6521 0.61074 0.84551 0.0
H6398 H 0.65624 0.64134 0.82253 0.0
C6399 C 0.61715 0.6597 0.81691 0.0
C6400 C 0.62514 0.63414 0.83442 0.0
C6401 C 0.60841 0.668 0.81488 0.0
C6402 C 0.66486 0.6014 0.83518 0.0
C6403 C 0.65641 0.61017 0.83705 0.0
C6404 C 0.6476 0.6392 0.82591 0.0
C6405 C 0.61801 0.654 0.82781 0.0
C6406 C 0.62752 0.64531 0.82972 0.0
C6407 C 0.65377 0.61828 0.82812 0.0
C6408 C 0.64505 0.6278 0.82987 0.0
H6409 H 0.59484 0.6671 0.84156 0.0
H6410 H 0.61022 0.65236 0.84509 0.0
H6411 H 0.64111 0.65645 0.82241 0.0
H6412 H 0.67203 0.60807 0.80685 0.0
H6413 H 0.65748 0.62327 0.81012 0.0
C6414 C 0.33026 0.60226 0.83405 0.0
C6415 C 0.32454 0.60101 0.82318 0.0
C6416 C 0.33864 0.61114 0.83569 0.0
C6417 C 0.34759 0.63979 0.82358 0.0
H6418 H 0.37836 0.63305 0.83653 0.0
C6419 C 0.3871 0.66875 0.81363 0.0
C6420 C 0.39495 0.67162 0.8227 0.0
C6421 C 0.37826 0.66051 0.81542 0.0
C6422 C 0.36974 0.63511 0.83309 0.0
H6423 H 0.3232 0.60797 0.80549 0.0
H6424 H 0.33766 0.62336 0.80835 0.0
H6425 H 0.36317 0.6178 0.83661 0.0
H6426 H 0.39978 0.66795 0.84075 0.0
H6427 H 0.38423 0.65333 0.84387 0.0
H6428 H 0.35415 0.65696 0.81978 0.0
C6429 C 0.33563 0.61761 0.81566 0.0
C6430 C 0.36105 0.62639 0.83313 0.0
C6431 C 0.32739 0.60873 0.814 0.0
C6432 C 0.39384 0.66592 0.8336 0.0
C6433 C 0.38498 0.65755 0.83538 0.0
C6434 C 0.35622 0.64847 0.82354 0.0
C6435 C 0.3413 0.61898 0.82652 0.0
C6436 C 0.35001 0.62855 0.82805 0.0
C6437 C 0.37703 0.65486 0.82632 0.0
C6438 C 0.36749 0.64612 0.82796 0.0
H6439 H 0.32825 0.59642 0.84128 0.0
H6440 H 0.34287 0.61201 0.84416 0.0
H6441 H 0.33907 0.6418 0.81985 0.0
H6442 H 0.38775 0.67291 0.8051 0.0
H6443 H 0.37242 0.65845 0.80819 0.0
C6444 C 0.38861 0.32995 0.81512 0.0
C6445 C 0.39667 0.3267 0.82387 0.0
C6446 C 0.37989 0.33818 0.81743 0.0
C6447 C 0.37175 0.36321 0.83531 0.0
H6448 H 0.34062 0.35562 0.82372 0.0
C6449 C 0.33172 0.39563 0.83575 0.0
C6450 C 0.32598 0.39634 0.82483 0.0
C6451 C 0.34022 0.38694 0.83776 0.0
C6452 C 0.34926 0.35786 0.82703 0.0
H6453 H 0.40215 0.32983 0.84183 0.0
H6454 H 0.38682 0.34454 0.84585 0.0
H6455 H 0.3559 0.34066 0.82359 0.0
H6456 H 0.32474 0.38863 0.80745 0.0
H6457 H 0.33938 0.37355 0.81097 0.0
H6458 H 0.3651 0.38061 0.83834 0.0
C6459 C 0.38728 0.34054 0.83723 0.0
C6460 C 0.35799 0.34931 0.82697 0.0
C6461 C 0.39601 0.33214 0.83494 0.0
C6462 C 0.32893 0.38829 0.81598 0.0
C6463 C 0.33728 0.37959 0.81802 0.0
C6464 C 0.36296 0.37183 0.83537 0.0
C6465 C 0.37903 0.34348 0.82852 0.0
C6466 C 0.36943 0.352 0.8307 0.0
C6467 C 0.34297 0.37876 0.82893 0.0
C6468 C 0.35175 0.36933 0.83083 0.0
H6469 H 0.38891 0.32604 0.80646 0.0
H6470 H 0.37381 0.34045 0.81047 0.0
H6471 H 0.38051 0.36551 0.83822 0.0
H6472 H 0.32963 0.40175 0.84272 0.0
H6473 H 0.3445 0.38649 0.84624 0.0
C6474 C 0.60298 0.33576 0.81632 0.0
C6475 C 0.59744 0.32981 0.82558 0.0
C6476 C 0.60999 0.34553 0.81849 0.0
C6477 C 0.62897 0.35905 0.84006 0.0
H6478 H 0.62677 0.38552 0.81873 0.0
C6479 C 0.6634 0.39725 0.83771 0.0
C6480 C 0.66755 0.39896 0.82621 0.0
C6481 C 0.65355 0.39013 0.83978 0.0
C6482 C 0.62745 0.37824 0.82482 0.0
H6483 H 0.59495 0.32938 0.84445 0.0
H6484 H 0.60754 0.34653 0.84831 0.0
H6485 H 0.61151 0.37051 0.81859 0.0
H6486 H 0.66459 0.3947 0.80787 0.0
H6487 H 0.64749 0.38251 0.81144 0.0
H6488 H 0.64525 0.36658 0.84587 0.0
C6489 C 0.60629 0.3436 0.83935 0.0
C6490 C 0.61872 0.36966 0.82474 0.0
C6491 C 0.59908 0.33385 0.83714 0.0
C6492 C 0.66162 0.39356 0.81684 0.0
C6493 C 0.65176 0.38664 0.81887 0.0
C6494 C 0.63774 0.36768 0.84014 0.0
C6495 C 0.61175 0.34956 0.83001 0.0
C6496 C 0.61964 0.35973 0.832 0.0
C6497 C 0.6476 0.38483 0.83034 0.0
C6498 C 0.63729 0.37709 0.83216 0.0
H6499 H 0.6019 0.33287 0.80732 0.0
H6500 H 0.61424 0.3498 0.81113 0.0
H6501 H 0.62989 0.35147 0.84573 0.0
H6502 H 0.66784 0.40128 0.8451 0.0
H6503 H 0.65052 0.38884 0.8487 0.0
C6504 C 0.66227 0.39304 0.18039 0.0
C6505 C 0.66785 0.39856 0.17089 0.0
C6506 C 0.65253 0.38587 0.17857 0.0
C6507 C 0.63835 0.36679 0.1574 0.0
H6508 H 0.61258 0.36883 0.17959 0.0
C6509 C 0.59986 0.33277 0.16002 0.0
C6510 C 0.59816 0.3285 0.17148 0.0
C6511 C 0.60713 0.34253 0.15803 0.0
C6512 C 0.61967 0.36818 0.17328 0.0
H6513 H 0.66767 0.40087 0.15199 0.0
H6514 H 0.65056 0.38806 0.14878 0.0
H6515 H 0.62767 0.384 0.17946 0.0
H6516 H 0.60263 0.3311 0.18981 0.0
H6517 H 0.61511 0.34802 0.18639 0.0
H6518 H 0.63052 0.35064 0.15158 0.0
C6519 C 0.65376 0.3894 0.15764 0.0
C6520 C 0.6283 0.37686 0.17321 0.0
C6521 C 0.66349 0.39674 0.15948 0.0
C6522 C 0.60374 0.33418 0.18088 0.0
C6523 C 0.61084 0.34394 0.17893 0.0
C6524 C 0.62966 0.35806 0.15747 0.0
C6525 C 0.64815 0.38397 0.16721 0.0
C6526 C 0.63797 0.37602 0.16559 0.0
C6527 C 0.61262 0.34824 0.16751 0.0
C6528 C 0.6205 0.35846 0.16574 0.0
H6529 H 0.66541 0.39424 0.18928 0.0
H6530 H 0.64853 0.38164 0.1861 0.0
H6531 H 0.64571 0.36592 0.15145 0.0
H6532 H 0.59569 0.32852 0.1526 0.0
H6533 H 0.60838 0.34567 0.14914 0.0
C6534 C 0.60057 0.66418 0.16243 0.0
C6535 C 0.59895 0.66916 0.17361 0.0
C6536 C 0.60812 0.65456 0.16095 0.0
C6537 C 0.62181 0.63042 0.17766 0.0
H6538 H 0.64638 0.63106 0.15408 0.0
C6539 C 0.6643 0.60474 0.18324 0.0
C6540 C 0.66911 0.59874 0.1736 0.0
C6541 C 0.6547 0.61217 0.18178 0.0
C6542 C 0.63944 0.63065 0.16056 0.0
H6543 H 0.60395 0.66801 0.19196 0.0
H6544 H 0.61698 0.65135 0.18939 0.0
H6545 H 0.6312 0.64632 0.15409 0.0
H6546 H 0.66771 0.5959 0.15483 0.0
H6547 H 0.65084 0.60911 0.15225 0.0
H6548 H 0.63017 0.61502 0.18438 0.0
C6549 C 0.61239 0.65475 0.18178 0.0
C6550 C 0.63076 0.63938 0.16057 0.0
C6551 C 0.60497 0.66436 0.18324 0.0
C6552 C 0.66415 0.6004 0.16242 0.0
C6553 C 0.65454 0.60797 0.16093 0.0
C6554 C 0.63044 0.62174 0.17765 0.0
C6555 C 0.61403 0.6497 0.17065 0.0
C6556 C 0.6221 0.63955 0.16936 0.0
C6557 C 0.64968 0.61386 0.17064 0.0
C6558 C 0.63957 0.62198 0.16936 0.0
H6559 H 0.59605 0.66773 0.15485 0.0
H6560 H 0.60923 0.65083 0.15227 0.0
H6561 H 0.6151 0.63019 0.18439 0.0
H6562 H 0.66793 0.60369 0.19197 0.0
H6563 H 0.6513 0.61675 0.18939 0.0
C6564 C 0.395 0.6657 0.16371 0.0
C6565 C 0.39617 0.67129 0.17466 0.0
C6566 C 0.38623 0.65724 0.16193 0.0
C6567 C 0.35767 0.64782 0.17391 0.0
H6568 H 0.36462 0.61736 0.16036 0.0
C6569 C 0.3291 0.60793 0.18327 0.0
C6570 C 0.32607 0.60036 0.17402 0.0
C6571 C 0.33735 0.6168 0.18162 0.0
C6572 C 0.3625 0.6259 0.16398 0.0
H6573 H 0.38918 0.67227 0.19236 0.0
H6574 H 0.37399 0.65765 0.18928 0.0
H6575 H 0.37976 0.63268 0.16054 0.0
H6576 H 0.32949 0.59601 0.1558 0.0
H6577 H 0.34414 0.61161 0.15293 0.0
H6578 H 0.34058 0.64104 0.17764 0.0
C6579 C 0.37972 0.65986 0.18201 0.0
C6580 C 0.37116 0.63465 0.16408 0.0
C6581 C 0.38848 0.6682 0.18379 0.0
C6582 C 0.33164 0.60174 0.16309 0.0
C6583 C 0.34003 0.61062 0.16145 0.0
C6584 C 0.34907 0.63912 0.17381 0.0
C6585 C 0.37842 0.65434 0.17105 0.0
C6586 C 0.36892 0.64558 0.16938 0.0
C6587 C 0.34284 0.61832 0.17069 0.0
C6588 C 0.3515 0.62795 0.16918 0.0
H6589 H 0.40082 0.6679 0.15651 0.0
H6590 H 0.38542 0.65313 0.1534 0.0
H6591 H 0.3556 0.65625 0.17781 0.0
H6592 H 0.32505 0.60707 0.19183 0.0
H6593 H 0.33951 0.62243 0.18897 0.0
C6594 C 0.39713 0.33215 0.16038 0.0
C6595 C 0.3988 0.32763 0.17175 0.0
C6596 C 0.38979 0.34188 0.15858 0.0
C6597 C 0.37703 0.3671 0.17432 0.0
H6598 H 0.35128 0.36537 0.15209 0.0
C6599 C 0.33458 0.39231 0.18122 0.0
C6600 C 0.32916 0.39797 0.1717 0.0
C6601 C 0.34425 0.38504 0.17945 0.0
C6602 C 0.35856 0.36609 0.15816 0.0
H6603 H 0.39417 0.32975 0.19011 0.0
H6604 H 0.38155 0.34663 0.18699 0.0
H6605 H 0.36642 0.35005 0.1521 0.0
H6606 H 0.32956 0.4004 0.15283 0.0
H6607 H 0.34654 0.38743 0.1497 0.0
H6608 H 0.36902 0.38283 0.18069 0.0
C6609 C 0.38591 0.34276 0.17947 0.0
C6610 C 0.36722 0.35733 0.15817 0.0
C6611 C 0.39309 0.33302 0.18125 0.0
C6612 C 0.3336 0.39617 0.16032 0.0
C6613 C 0.34327 0.38874 0.15853 0.0
C6614 C 0.36843 0.3758 0.1743 0.0
C6615 C 0.38418 0.34732 0.16814 0.0
C6616 C 0.37628 0.35754 0.16655 0.0
C6617 C 0.34873 0.38318 0.16811 0.0
C6618 C 0.35887 0.37516 0.16653 0.0
H6619 H 0.40141 0.32812 0.1529 0.0
H6620 H 0.38858 0.34522 0.14975 0.0
H6621 H 0.38405 0.3676 0.18072 0.0
H6622 H 0.33137 0.39349 0.19009 0.0
H6623 H 0.34812 0.38071 0.18699 0.0
C6624 C 0.81492 0.66904 0.60956 0.0
C6625 C 0.82381 0.67174 0.60146 0.0
C6626 C 0.81676 0.66062 0.61824 0.0
C6627 C 0.83354 0.63444 0.62576 0.0
H6628 H 0.82209 0.64142 0.65707 0.0
C6629 C 0.83373 0.60079 0.66467 0.0
C6630 C 0.82301 0.60025 0.67078 0.0
C6631 C 0.83572 0.6097 0.65638 0.0
C6632 C 0.82533 0.63933 0.64837 0.0
H6633 H 0.84157 0.6676 0.59598 0.0
H6634 H 0.84474 0.65264 0.61121 0.0
H6635 H 0.82224 0.65678 0.64219 0.0
H6636 H 0.80595 0.60848 0.67287 0.0
H6637 H 0.80942 0.62386 0.65857 0.0
H6638 H 0.83626 0.61683 0.63193 0.0
C6639 C 0.83637 0.65715 0.61081 0.0
C6640 C 0.82542 0.64812 0.63986 0.0
C6641 C 0.83457 0.66571 0.60213 0.0
C6642 C 0.81434 0.60868 0.66839 0.0
C6643 C 0.81635 0.61756 0.66023 0.0
C6644 C 0.83343 0.62559 0.63431 0.0
C6645 C 0.8275 0.65461 0.61901 0.0
C6646 C 0.82917 0.64569 0.62837 0.0
C6647 C 0.82708 0.61825 0.65419 0.0
C6648 C 0.82896 0.62787 0.6456 0.0
H6649 H 0.80651 0.67345 0.60926 0.0
H6650 H 0.80968 0.65871 0.6243 0.0
H6651 H 0.83646 0.63233 0.61695 0.0
H6652 H 0.84057 0.59439 0.66631 0.0
H6653 H 0.84407 0.61002 0.65184 0.0
C6654 C 0.3322 0.81442 0.60548 0.0
C6655 C 0.32741 0.82404 0.59945 0.0
C6656 C 0.34174 0.8159 0.61298 0.0
C6657 C 0.35694 0.83712 0.63151 0.0
H6658 H 0.38135 0.81337 0.63099 0.0
C6659 C 0.39601 0.83538 0.66483 0.0
C6660 C 0.39772 0.82421 0.66979 0.0
C6661 C 0.38836 0.83684 0.65528 0.0
C6662 C 0.37461 0.82008 0.63124 0.0
H6663 H 0.32877 0.84282 0.59663 0.0
H6664 H 0.34555 0.84544 0.60996 0.0
H6665 H 0.36625 0.81335 0.61585 0.0
H6666 H 0.39276 0.80584 0.66871 0.0
H6667 H 0.37955 0.80837 0.65218 0.0
H6668 H 0.36518 0.84361 0.64717 0.0
C6669 C 0.34187 0.83675 0.60879 0.0
C6670 C 0.36597 0.82007 0.62258 0.0
C6671 C 0.33232 0.83524 0.60115 0.0
C6672 C 0.39167 0.81456 0.66507 0.0
C6673 C 0.38415 0.816 0.65553 0.0
C6674 C 0.36563 0.83714 0.64022 0.0
C6675 C 0.34672 0.82705 0.6147 0.0
C6676 C 0.35682 0.82834 0.62283 0.0
C6677 C 0.38244 0.82712 0.65049 0.0
C6678 C 0.37432 0.82837 0.64038 0.0
H6679 H 0.3286 0.80568 0.60439 0.0
H6680 H 0.34513 0.80829 0.61758 0.0
H6681 H 0.34997 0.84359 0.63193 0.0
H6682 H 0.40055 0.84297 0.66832 0.0
H6683 H 0.38719 0.84552 0.65156 0.0
C6684 C 0.18284 0.32886 0.60942 0.0
C6685 C 0.17431 0.32616 0.60093 0.0
C6686 C 0.18055 0.33708 0.61816 0.0
C6687 C 0.16318 0.36275 0.62583 0.0
H6688 H 0.17369 0.35481 0.65726 0.0
C6689 C 0.162 0.39497 0.66599 0.0
C6690 C 0.17276 0.39553 0.67203 0.0
C6691 C 0.16012 0.38633 0.65741 0.0
C6692 C 0.17068 0.35715 0.64854 0.0
H6693 H 0.15675 0.33019 0.59479 0.0
H6694 H 0.15276 0.34482 0.61018 0.0
H6695 H 0.17398 0.33991 0.64192 0.0
H6696 H 0.18999 0.38758 0.67374 0.0
H6697 H 0.18668 0.37258 0.65898 0.0
H6698 H 0.16025 0.38016 0.63248 0.0
C6699 C 0.1612 0.34044 0.61001 0.0
C6700 C 0.17085 0.34863 0.63976 0.0
C6701 C 0.16347 0.33207 0.60124 0.0
C6702 C 0.18158 0.38736 0.66931 0.0
C6703 C 0.17966 0.37871 0.66089 0.0
C6704 C 0.163 0.37133 0.63467 0.0
C6705 C 0.16969 0.34288 0.61865 0.0
C6706 C 0.1675 0.35144 0.62823 0.0
C6707 C 0.16891 0.37804 0.65489 0.0
C6708 C 0.16715 0.36869 0.646 0.0
H6709 H 0.19132 0.32456 0.60939 0.0
H6710 H 0.18736 0.33895 0.62454 0.0
H6711 H 0.16057 0.36515 0.61701 0.0
H6712 H 0.15506 0.40119 0.66789 0.0
H6713 H 0.15176 0.38601 0.6529 0.0
C6714 C 0.66315 0.16031 0.59925 0.0
C6715 C 0.66752 0.17173 0.5975 0.0
C6716 C 0.65337 0.15844 0.60651 0.0
C6717 C 0.62781 0.17392 0.61892 0.0
H6718 H 0.63006 0.15248 0.64528 0.0
C6719 C 0.60363 0.18201 0.66169 0.0
C6720 C 0.59805 0.17269 0.66752 0.0
C6721 C 0.61058 0.17993 0.65185 0.0
C6722 C 0.62919 0.15831 0.63782 0.0
H6723 H 0.66504 0.19011 0.60185 0.0
H6724 H 0.64806 0.18687 0.61431 0.0
H6725 H 0.64526 0.15227 0.63002 0.0
H6726 H 0.5954 0.15385 0.66765 0.0
H6727 H 0.60786 0.15016 0.65038 0.0
H6728 H 0.61208 0.18034 0.62691 0.0
C6729 C 0.6521 0.17936 0.61009 0.0
C6730 C 0.63787 0.1582 0.6291 0.0
C6731 C 0.66189 0.1812 0.60301 0.0
C6732 C 0.59958 0.16119 0.66329 0.0
C6733 C 0.60671 0.15908 0.65346 0.0
C6734 C 0.61918 0.17404 0.62759 0.0
C6735 C 0.64772 0.16799 0.61193 0.0
C6736 C 0.63749 0.16634 0.61982 0.0
C6737 C 0.61222 0.16847 0.64762 0.0
C6738 C 0.62002 0.16657 0.63737 0.0
H6739 H 0.66736 0.15284 0.59513 0.0
H6740 H 0.65017 0.14958 0.60782 0.0
H6741 H 0.62718 0.18014 0.61174 0.0
H6742 H 0.60264 0.19097 0.66473 0.0
H6743 H 0.61487 0.18732 0.64767 0.0
C6744 C 0.83585 0.33172 0.3955 0.0
C6745 C 0.82496 0.32593 0.3961 0.0
C6746 C 0.83794 0.34016 0.38677 0.0
C6747 C 0.82761 0.34888 0.35745 0.0
H6748 H 0.83831 0.38031 0.36503 0.0
C6749 C 0.81565 0.38796 0.32912 0.0
C6750 C 0.8243 0.39621 0.32608 0.0
C6751 C 0.81796 0.37925 0.33736 0.0
C6752 C 0.83554 0.37151 0.36275 0.0
H6753 H 0.8077 0.32454 0.38815 0.0
H6754 H 0.81136 0.33906 0.37299 0.0
H6755 H 0.83839 0.36502 0.38024 0.0
H6756 H 0.84211 0.40197 0.32955 0.0
H6757 H 0.84613 0.38666 0.34427 0.0
H6758 H 0.82436 0.35536 0.34014 0.0
C6759 C 0.81833 0.33706 0.37916 0.0
C6760 C 0.83558 0.36277 0.37144 0.0
C6761 C 0.81621 0.32877 0.38789 0.0
C6762 C 0.83529 0.3957 0.3317 0.0
C6763 C 0.83758 0.38698 0.34011 0.0
C6764 C 0.82758 0.35755 0.34882 0.0
C6765 C 0.82922 0.34279 0.37843 0.0
C6766 C 0.8312 0.3515 0.36895 0.0
C6767 C 0.82896 0.37857 0.34287 0.0
C6768 C 0.83113 0.36905 0.35149 0.0
H6769 H 0.84274 0.32973 0.40174 0.0
H6770 H 0.84641 0.34448 0.3864 0.0
H6771 H 0.82442 0.34019 0.35522 0.0
H6772 H 0.80705 0.38814 0.32506 0.0
H6773 H 0.81107 0.37305 0.33949 0.0
C6774 C 0.66333 0.8359 0.39534 0.0
C6775 C 0.66798 0.82457 0.39695 0.0
C6776 C 0.65367 0.83765 0.3879 0.0
C6777 C 0.62885 0.82167 0.37461 0.0
H6778 H 0.63043 0.84447 0.34935 0.0
C6779 C 0.60379 0.81545 0.33191 0.0
C6780 C 0.59803 0.82504 0.32674 0.0
C6781 C 0.61107 0.81705 0.34161 0.0
C6782 C 0.62975 0.83823 0.3565 0.0
H6783 H 0.66616 0.80624 0.39209 0.0
H6784 H 0.64942 0.80927 0.37928 0.0
H6785 H 0.64561 0.84439 0.36462 0.0
H6786 H 0.59544 0.84388 0.3276 0.0
H6787 H 0.60841 0.84671 0.34463 0.0
H6788 H 0.61329 0.81522 0.36633 0.0
C6789 C 0.65312 0.81679 0.38378 0.0
C6790 C 0.63843 0.83818 0.36522 0.0
C6791 C 0.66278 0.81507 0.39106 0.0
C6792 C 0.59976 0.83632 0.33144 0.0
C6793 C 0.60719 0.83795 0.34114 0.0
C6794 C 0.62022 0.82172 0.36593 0.0
C6795 C 0.64843 0.82807 0.38212 0.0
C6796 C 0.63827 0.82962 0.37412 0.0
C6797 C 0.61284 0.82829 0.34636 0.0
C6798 C 0.62081 0.82971 0.35655 0.0
H6799 H 0.66719 0.84338 0.39975 0.0
H6800 H 0.65022 0.84644 0.38675 0.0
H6801 H 0.62838 0.81513 0.3815 0.0
H6802 H 0.60267 0.80664 0.32849 0.0
H6803 H 0.61547 0.80946 0.34529 0.0
C6804 C 0.16255 0.66441 0.39544 0.0
C6805 C 0.17338 0.67033 0.39587 0.0
C6806 C 0.16042 0.65597 0.38672 0.0
C6807 C 0.17052 0.64739 0.35723 0.0
H6808 H 0.15978 0.61598 0.36481 0.0
C6809 C 0.18155 0.60828 0.32833 0.0
C6810 C 0.17277 0.60007 0.32562 0.0
C6811 C 0.17955 0.61703 0.33662 0.0
C6812 C 0.16258 0.62478 0.36254 0.0
H6813 H 0.19051 0.6719 0.38765 0.0
H6814 H 0.18678 0.65736 0.37256 0.0
H6815 H 0.1599 0.63121 0.38007 0.0
H6816 H 0.15503 0.59445 0.32965 0.0
H6817 H 0.15157 0.60981 0.34442 0.0
H6818 H 0.17359 0.64097 0.33987 0.0
C6819 C 0.17988 0.65929 0.37882 0.0
C6820 C 0.16265 0.63348 0.37125 0.0
C6821 C 0.18203 0.66759 0.38753 0.0
C6822 C 0.16195 0.60069 0.33155 0.0
C6823 C 0.15998 0.60944 0.34 0.0
C6824 C 0.17046 0.63875 0.34858 0.0
C6825 C 0.16904 0.65345 0.37824 0.0
C6826 C 0.16702 0.64475 0.36876 0.0
C6827 C 0.16873 0.61777 0.3425 0.0
C6828 C 0.16688 0.62725 0.35123 0.0
H6829 H 0.15573 0.66634 0.40178 0.0
H6830 H 0.15199 0.65157 0.38647 0.0
H6831 H 0.1737 0.65608 0.355 0.0
H6832 H 0.19001 0.60802 0.32399 0.0
H6833 H 0.18655 0.6232 0.33853 0.0
C6834 C 0.33363 0.18276 0.39212 0.0
C6835 C 0.32844 0.17327 0.39803 0.0
C6836 C 0.34336 0.18104 0.38493 0.0
C6837 C 0.35823 0.15966 0.36656 0.0
H6838 H 0.38324 0.18277 0.36767 0.0
C6839 C 0.3968 0.16188 0.33268 0.0
C6840 C 0.39836 0.17318 0.32797 0.0
C6841 C 0.38944 0.16016 0.34242 0.0
C6842 C 0.37635 0.17622 0.36728 0.0
H6843 H 0.32931 0.15448 0.40098 0.0
H6844 H 0.34641 0.15143 0.38814 0.0
H6845 H 0.36814 0.18277 0.38284 0.0
H6846 H 0.39352 0.19152 0.32975 0.0
H6847 H 0.38085 0.18855 0.34662 0.0
H6848 H 0.36626 0.15343 0.35069 0.0
C6849 C 0.3429 0.16021 0.3892 0.0
C6850 C 0.36772 0.17622 0.37595 0.0
C6851 C 0.33317 0.16196 0.39655 0.0
C6852 C 0.39252 0.1827 0.33317 0.0
C6853 C 0.38532 0.18102 0.34291 0.0
C6854 C 0.3669 0.15967 0.35784 0.0
C6855 C 0.34813 0.16977 0.38339 0.0
C6856 C 0.35833 0.16824 0.37545 0.0
C6857 C 0.38371 0.16975 0.34766 0.0
C6858 C 0.37579 0.16824 0.35789 0.0
H6859 H 0.33019 0.19158 0.39305 0.0
H6860 H 0.34706 0.18855 0.38041 0.0
H6861 H 0.35107 0.15343 0.36596 0.0
H6862 H 0.40118 0.15438 0.32881 0.0
H6863 H 0.38833 0.15138 0.34591 0.0
C6864 C 0.66813 0.81574 0.60802 0.0
C6865 C 0.67088 0.82456 0.59985 0.0
C6866 C 0.65991 0.81776 0.61684 0.0
C6867 C 0.63431 0.83509 0.625 0.0
H6868 H 0.64198 0.82349 0.6561 0.0
C6869 C 0.60195 0.83568 0.66504 0.0
C6870 C 0.60128 0.82484 0.67092 0.0
C6871 C 0.61062 0.83762 0.6565 0.0
C6872 C 0.63971 0.82679 0.64747 0.0
H6873 H 0.66697 0.84236 0.59436 0.0
H6874 H 0.65235 0.84587 0.60985 0.0
H6875 H 0.65692 0.82342 0.64081 0.0
H6876 H 0.60906 0.80751 0.67235 0.0
H6877 H 0.62409 0.81089 0.65765 0.0
H6878 H 0.61693 0.83811 0.63168 0.0
C6879 C 0.65668 0.83741 0.60939 0.0
C6880 C 0.64826 0.82675 0.63872 0.0
C6881 C 0.66505 0.83542 0.60056 0.0
C6882 C 0.60937 0.81599 0.66806 0.0
C6883 C 0.61804 0.81794 0.65967 0.0
C6884 C 0.62571 0.83513 0.63381 0.0
C6885 C 0.65416 0.82863 0.6177 0.0
C6886 C 0.64555 0.83053 0.6273 0.0
C6887 C 0.61883 0.82879 0.65385 0.0
C6888 C 0.62824 0.8306 0.64502 0.0
H6889 H 0.67239 0.80724 0.60768 0.0
H6890 H 0.65798 0.81074 0.62296 0.0
H6891 H 0.63199 0.83804 0.61626 0.0
H6892 H 0.5958 0.84266 0.66705 0.0
H6893 H 0.61104 0.84605 0.65213 0.0
C6894 C 0.60365 0.18187 0.33452 0.0
C6895 C 0.59788 0.17246 0.32903 0.0
C6896 C 0.61073 0.17998 0.3443 0.0
C6897 C 0.62917 0.15844 0.35884 0.0
H6898 H 0.62777 0.1811 0.38424 0.0
C6899 C 0.66326 0.16076 0.39731 0.0
C6900 C 0.66792 0.17211 0.39871 0.0
C6901 C 0.65342 0.15892 0.39012 0.0
C6902 C 0.62823 0.17465 0.37726 0.0
H6903 H 0.59506 0.15364 0.32943 0.0
H6904 H 0.60773 0.15028 0.34662 0.0
H6905 H 0.61261 0.18117 0.36913 0.0
H6906 H 0.66588 0.19041 0.39381 0.0
H6907 H 0.6488 0.18723 0.38148 0.0
H6908 H 0.64512 0.15226 0.36679 0.0
C6909 C 0.60664 0.15913 0.34331 0.0
C6910 C 0.61956 0.1747 0.36861 0.0
C6911 C 0.59938 0.16106 0.33353 0.0
C6912 C 0.66251 0.18155 0.39293 0.0
C6913 C 0.65266 0.17975 0.38592 0.0
C6914 C 0.63788 0.15839 0.36754 0.0
C6915 C 0.61231 0.16862 0.34883 0.0
C6916 C 0.62019 0.16691 0.35907 0.0
C6917 C 0.648 0.16844 0.38441 0.0
C6918 C 0.63772 0.16681 0.37657 0.0
H6919 H 0.6027 0.19076 0.33127 0.0
H6920 H 0.61516 0.18743 0.34822 0.0
H6921 H 0.62987 0.15235 0.35157 0.0
H6922 H 0.6673 0.15331 0.40164 0.0
H6923 H 0.65 0.1501 0.38908 0.0
C6924 C 0.83503 0.60124 0.33219 0.0
C6925 C 0.82412 0.60063 0.32645 0.0
C6926 C 0.83714 0.60995 0.34065 0.0
C6927 C 0.8266 0.63916 0.34963 0.0
H6928 H 0.83808 0.63154 0.38079 0.0
C6929 C 0.81529 0.66719 0.38917 0.0
C6930 C 0.82417 0.67035 0.39713 0.0
C6931 C 0.81743 0.65897 0.38039 0.0
C6932 C 0.83508 0.63383 0.37206 0.0
H6933 H 0.80683 0.60854 0.32517 0.0
H6934 H 0.8105 0.62362 0.33974 0.0
H6935 H 0.83801 0.61642 0.36541 0.0
H6936 H 0.8422 0.66712 0.40231 0.0
H6937 H 0.84591 0.65244 0.38689 0.0
H6938 H 0.82325 0.65638 0.35629 0.0
C6939 C 0.81749 0.6175 0.33767 0.0
C6940 C 0.83504 0.6252 0.36327 0.0
C6941 C 0.81536 0.6088 0.32936 0.0
C6942 C 0.83521 0.66487 0.39627 0.0
C6943 C 0.83732 0.65649 0.38749 0.0
C6944 C 0.82663 0.64773 0.35836 0.0
C6945 C 0.82841 0.61825 0.34335 0.0
C6946 C 0.8304 0.62769 0.3521 0.0
C6947 C 0.82848 0.65361 0.37937 0.0
C6948 C 0.83047 0.64505 0.36976 0.0
H6949 H 0.84193 0.59503 0.33014 0.0
H6950 H 0.84563 0.61032 0.34492 0.0
H6951 H 0.82322 0.64141 0.34103 0.0
H6952 H 0.80666 0.67115 0.38963 0.0
H6953 H 0.81037 0.65675 0.37441 0.0
C6954 C 0.39108 0.81536 0.33153 0.0
C6955 C 0.39687 0.82502 0.32654 0.0
C6956 C 0.38377 0.81682 0.34124 0.0
C6957 C 0.36535 0.8379 0.35674 0.0
H6958 H 0.36698 0.8145 0.38144 0.0
C6959 C 0.33272 0.83586 0.39636 0.0
C6960 C 0.32798 0.82459 0.39813 0.0
C6961 C 0.34222 0.83747 0.38867 0.0
C6962 C 0.36643 0.82111 0.37463 0.0
H6963 H 0.39945 0.84385 0.32769 0.0
H6964 H 0.38646 0.84643 0.34472 0.0
H6965 H 0.38169 0.81453 0.3659 0.0
H6966 H 0.3295 0.80622 0.39333 0.0
H6967 H 0.34594 0.80901 0.38008 0.0
H6968 H 0.3498 0.84422 0.36534 0.0
C6969 C 0.38766 0.83772 0.34109 0.0
C6970 C 0.37484 0.82113 0.36573 0.0
C6971 C 0.3951 0.83624 0.33139 0.0
C6972 C 0.33295 0.81501 0.39218 0.0
C6973 C 0.34244 0.81659 0.38464 0.0
C6974 C 0.35689 0.83788 0.36568 0.0
C6975 C 0.38202 0.82798 0.34617 0.0
C6976 C 0.37416 0.82926 0.35649 0.0
C6977 C 0.3472 0.82781 0.3828 0.0
C6978 C 0.35714 0.82922 0.37448 0.0
H6979 H 0.39222 0.8066 0.32799 0.0
H6980 H 0.37938 0.80918 0.34482 0.0
H6981 H 0.36462 0.84426 0.34971 0.0
H6982 H 0.32904 0.84341 0.40082 0.0
H6983 H 0.34573 0.84622 0.3874 0.0
C6984 C 0.16065 0.39613 0.33173 0.0
C6985 C 0.17154 0.3961 0.3259 0.0
C6986 C 0.15812 0.38758 0.34025 0.0
C6987 C 0.16665 0.35777 0.34887 0.0
H6988 H 0.15835 0.3661 0.38083 0.0
C6989 C 0.17985 0.32942 0.38747 0.0
C6990 C 0.17164 0.32682 0.39629 0.0
C6991 C 0.17726 0.3376 0.37878 0.0
C6992 C 0.16042 0.36362 0.37189 0.0
H6993 H 0.18835 0.38722 0.32457 0.0
H6994 H 0.1839 0.37237 0.33914 0.0
H6995 H 0.15831 0.38125 0.36546 0.0
H6996 H 0.15435 0.33097 0.40309 0.0
H6997 H 0.14988 0.34562 0.38782 0.0
H6998 H 0.16926 0.34032 0.35528 0.0
C6999 C 0.17728 0.3789 0.33713 0.0
C7000 C 0.1604 0.37227 0.36311 0.0
C7001 C 0.17984 0.38746 0.3288 0.0
C7002 C 0.16082 0.33278 0.39636 0.0
C7003 C 0.15828 0.34115 0.38766 0.0
C7004 C 0.16667 0.34918 0.35758 0.0
C7005 C 0.16638 0.3788 0.34288 0.0
C7006 C 0.16398 0.36948 0.35163 0.0
C7007 C 0.16644 0.3435 0.37871 0.0
C7008 C 0.16402 0.35211 0.36926 0.0
H7009 H 0.1541 0.40272 0.3297 0.0
H7010 H 0.14967 0.3877 0.34462 0.0
H7011 H 0.16925 0.35535 0.34004 0.0
H7012 H 0.1883 0.32507 0.38719 0.0
H7013 H 0.18382 0.3394 0.37212 0.0
C7014 C 0.39413 0.18012 0.66168 0.0
C7015 C 0.39981 0.17071 0.66726 0.0
C7016 C 0.38711 0.17822 0.65186 0.0
C7017 C 0.36851 0.15679 0.63749 0.0
H7018 H 0.3701 0.17932 0.61198 0.0
C7019 C 0.33431 0.15948 0.59915 0.0
C7020 C 0.32981 0.17089 0.59773 0.0
C7021 C 0.34413 0.15752 0.60634 0.0
C7022 C 0.36959 0.17291 0.61899 0.0
H7023 H 0.40256 0.15188 0.66697 0.0
H7024 H 0.38997 0.1485 0.64972 0.0
H7025 H 0.38536 0.17923 0.62699 0.0
H7026 H 0.33207 0.18916 0.60261 0.0
H7027 H 0.34912 0.18578 0.61494 0.0
H7028 H 0.35242 0.15083 0.62967 0.0
C7029 C 0.39109 0.15736 0.65299 0.0
C7030 C 0.37831 0.17286 0.62758 0.0
C7031 C 0.3983 0.15929 0.66281 0.0
C7032 C 0.33532 0.18027 0.60351 0.0
C7033 C 0.34515 0.17835 0.61052 0.0
C7034 C 0.35975 0.15684 0.62885 0.0
C7035 C 0.38549 0.16684 0.6474 0.0
C7036 C 0.37761 0.16513 0.63717 0.0
C7037 C 0.34968 0.16698 0.61201 0.0
C7038 C 0.35998 0.16523 0.61979 0.0
H7039 H 0.3951 0.18902 0.66489 0.0
H7040 H 0.38274 0.18567 0.64789 0.0
H7041 H 0.36776 0.15076 0.6448 0.0
H7042 H 0.3302 0.15208 0.59482 0.0
H7043 H 0.34745 0.14866 0.60738 0.0
C7044 C 0.81647 0.38661 0.66672 0.0
C7045 C 0.82452 0.39549 0.66962 0.0
C7046 C 0.81932 0.37808 0.65845 0.0
C7047 C 0.83654 0.37179 0.63261 0.0
H7048 H 0.82815 0.33972 0.64045 0.0
C7049 C 0.83663 0.33182 0.59974 0.0
C7050 C 0.82567 0.32612 0.59965 0.0
C7051 C 0.83917 0.34028 0.60835 0.0
C7052 C 0.83064 0.34861 0.63816 0.0
H7053 H 0.84179 0.40257 0.66589 0.0
H7054 H 0.84672 0.3876 0.65108 0.0
H7055 H 0.8279 0.35475 0.65568 0.0
H7056 H 0.80873 0.32499 0.60833 0.0
H7057 H 0.81322 0.33945 0.62328 0.0
H7058 H 0.83874 0.36563 0.61489 0.0
C7059 C 0.83825 0.38727 0.6554 0.0
C7060 C 0.83049 0.3572 0.64686 0.0
C7061 C 0.83544 0.39579 0.66385 0.0
C7062 C 0.8173 0.32911 0.60819 0.0
C7063 C 0.81987 0.33737 0.61681 0.0
C7064 C 0.8367 0.36313 0.62385 0.0
C7065 C 0.83025 0.37825 0.65277 0.0
C7066 C 0.83294 0.36896 0.64407 0.0
C7067 C 0.83085 0.34297 0.61706 0.0
C7068 C 0.83327 0.35158 0.62649 0.0
H7069 H 0.80794 0.38615 0.67091 0.0
H7070 H 0.81288 0.37137 0.65643 0.0
H7071 H 0.83845 0.38081 0.63025 0.0
H7072 H 0.84323 0.32971 0.59323 0.0
H7073 H 0.84767 0.34454 0.60835 0.0
C7074 C 0.18144 0.60816 0.66904 0.0
C7075 C 0.17232 0.60034 0.67181 0.0
C7076 C 0.17981 0.61691 0.66066 0.0
C7077 C 0.16286 0.62515 0.63475 0.0
H7078 H 0.1756 0.65597 0.64169 0.0
C7079 C 0.16321 0.66447 0.60157 0.0
C7080 C 0.17413 0.67016 0.60078 0.0
C7081 C 0.16116 0.65612 0.6104 0.0
C7082 C 0.172 0.64741 0.63962 0.0
H7083 H 0.15436 0.59544 0.66782 0.0
H7084 H 0.15153 0.61082 0.65295 0.0
H7085 H 0.17521 0.64101 0.65696 0.0
H7086 H 0.19152 0.67143 0.60848 0.0
H7087 H 0.18796 0.65703 0.62375 0.0
H7088 H 0.15998 0.63155 0.61725 0.0
C7089 C 0.15993 0.61013 0.65736 0.0
C7090 C 0.17178 0.63885 0.64836 0.0
C7091 C 0.16154 0.60137 0.66587 0.0
C7092 C 0.18298 0.66728 0.60888 0.0
C7093 C 0.18092 0.65907 0.61769 0.0
C7094 C 0.16309 0.63376 0.62596 0.0
C7095 C 0.16903 0.61806 0.65477 0.0
C7096 C 0.16756 0.62752 0.64593 0.0
C7097 C 0.16997 0.65346 0.61863 0.0
C7098 C 0.16802 0.64486 0.62823 0.0
H7099 H 0.18988 0.60757 0.67337 0.0
H7100 H 0.18706 0.62274 0.65869 0.0
H7101 H 0.15958 0.61648 0.63264 0.0
H7102 H 0.15624 0.6665 0.59543 0.0
H7103 H 0.15265 0.65192 0.61093 0.0
loop_
_geom_bond_atom_site_label_1
_geom_bond_atom_site_label_2
_geom_bond_distance
_geom_bond_site_symmetry_2
_ccdc_geom_bond_type
Co0 O1 2.216 . S
Co0 O2 2.091 . S
Co0 O4 2.004 . S
Co0 O10 2.021 . S
Co0 O12 2.137 . S
Co0 O13 2.244 . S
O1 Co0 2.216 . S
O1 C8 1.247 . S
O2 Co0 2.091 . S
O2 C8 1.261 . S
C3 O12 1.247 . S
C3 O13 1.272 . S
O4 Co0 2.004 . S
O4 C9 1.259 . S
Co5 O6 2.061 . S
Co5 O11 2.052 . S
Co5 O13 2.135 . S
O6 Co5 2.061 . S
O6 C9 1.235 . S
C7 O10 1.238 . S
C7 O11 1.241 . S
C8 O1 1.247 . S
C8 O2 1.261 . S
C9 O4 1.259 . S
C9 O6 1.235 . S
O10 Co0 2.021 . S
O10 C7 1.238 . S
O11 Co5 2.052 . S
O11 C7 1.241 . S
O12 Co0 2.137 . S
O12 C3 1.247 . S
O13 Co0 2.244 . S
O13 C3 1.272 . S
O13 Co5 2.135 . S
Co14 O15 2.216 . S
Co14 O16 2.091 . S
Co14 O18 2.004 . S
Co14 O24 2.021 . S
Co14 O26 2.137 . S
Co14 O27 2.244 . S
O15 Co14 2.216 . S
O15 C22 1.247 . S
O16 Co14 2.091 . S
O16 C22 1.261 . S
C17 O26 1.247 . S
C17 O27 1.272 . S
O18 Co14 2.004 . S
O18 C23 1.259 . S
Co19 O20 2.061 . S
Co19 O25 2.052 . S
Co19 O27 2.135 . S
O20 Co19 2.061 . S
O20 C23 1.235 . S
C21 O24 1.238 . S
C21 O25 1.241 . S
C22 O15 1.247 . S
C22 O16 1.261 . S
C23 O18 1.259 . S
C23 O20 1.235 . S
O24 Co14 2.021 . S
O24 C21 1.238 . S
O25 Co19 2.052 . S
O25 C21 1.241 . S
O26 Co14 2.137 . S
O26 C17 1.247 . S
O27 Co14 2.244 . S
O27 C17 1.272 . S
O27 Co19 2.135 . S
Co28 O29 2.216 . S
Co28 O30 2.091 . S
Co28 O32 2.004 . S
Co28 O38 2.021 . S
Co28 O40 2.137 . S
Co28 O41 2.244 . S
O29 Co28 2.216 . S
O29 C36 1.247 . S
O30 Co28 2.091 . S
O30 C36 1.261 . S
C31 O40 1.247 . S
C31 O41 1.272 . S
O32 Co28 2.004 . S
O32 C37 1.259 . S
Co33 O34 2.061 . S
Co33 O39 2.052 . S
Co33 O41 2.135 . S
O34 Co33 2.061 . S
O34 C37 1.235 . S
C35 O38 1.238 . S
C35 O39 1.241 . S
C36 O29 1.247 . S
C36 O30 1.261 . S
C37 O32 1.259 . S
C37 O34 1.235 . S
O38 Co28 2.021 . S
O38 C35 1.238 . S
O39 Co33 2.052 . S
O39 C35 1.241 . S
O40 Co28 2.137 . S
O40 C31 1.247 . S
O41 Co28 2.244 . S
O41 C31 1.272 . S
O41 Co33 2.135 . S
Co42 O43 2.216 . S
Co42 O44 2.091 . S
Co42 O46 2.004 . S
Co42 O52 2.021 . S
Co42 O54 2.137 . S
Co42 O55 2.244 . S
O43 Co42 2.216 . S
O43 C50 1.247 . S
O44 Co42 2.091 . S
O44 C50 1.261 . S
C45 O54 1.247 . S
C45 O55 1.272 . S
O46 Co42 2.004 . S
O46 C51 1.259 . S
Co47 O48 2.061 . S
Co47 O53 2.052 . S
Co47 O55 2.135 . S
O48 Co47 2.061 . S
O48 C51 1.235 . S
C49 O52 1.238 . S
C49 O53 1.241 . S
C50 O43 1.247 . S
C50 O44 1.261 . S
C51 O46 1.259 . S
C51 O48 1.235 . S
O52 Co42 2.021 . S
O52 C49 1.238 . S
O53 Co47 2.052 . S
O53 C49 1.241 . S
O54 Co42 2.137 . S
O54 C45 1.247 . S
O55 Co42 2.244 . S
O55 C45 1.272 . S
O55 Co47 2.135 . S
Co56 O57 2.216 . S
Co56 O58 2.091 . S
Co56 O60 2.004 . S
Co56 O66 2.021 . S
Co56 O68 2.137 . S
Co56 O69 2.244 . S
O57 Co56 2.216 . S
O57 C64 1.247 . S
O58 Co56 2.091 . S
O58 C64 1.261 . S
C59 O68 1.247 . S
C59 O69 1.272 . S
O60 Co56 2.004 . S
O60 C65 1.259 . S
Co61 O62 2.061 . S
Co61 O67 2.052 . S
Co61 O69 2.135 . S
O62 Co61 2.061 . S
O62 C65 1.235 . S
C63 O66 1.238 . S
C63 O67 1.241 . S
C64 O57 1.247 . S
C64 O58 1.261 . S
C65 O60 1.259 . S
C65 O62 1.235 . S
O66 Co56 2.021 . S
O66 C63 1.238 . S
O67 Co61 2.052 . S
O67 C63 1.241 . S
O68 Co56 2.137 . S
O68 C59 1.247 . S
O69 Co56 2.244 . S
O69 C59 1.272 . S
O69 Co61 2.135 . S
Co70 O71 2.216 . S
Co70 O72 2.091 . S
Co70 O74 2.004 . S
Co70 O80 2.021 . S
Co70 O82 2.137 . S
Co70 O83 2.244 . S
O71 Co70 2.216 . S
O71 C78 1.247 . S
O72 Co70 2.091 . S
O72 C78 1.261 . S
C73 O82 1.247 . S
C73 O83 1.272 . S
O74 Co70 2.004 . S
O74 C79 1.259 . S
Co75 O76 2.061 . S
Co75 O81 2.052 . S
Co75 O83 2.135 . S
O76 Co75 2.061 . S
O76 C79 1.235 . S
C77 O80 1.238 . S
C77 O81 1.241 . S
C78 O71 1.247 . S
C78 O72 1.261 . S
C79 O74 1.259 . S
C79 O76 1.235 . S
O80 Co70 2.021 . S
O80 C77 1.238 . S
O81 Co75 2.052 . S
O81 C77 1.241 . S
O82 Co70 2.137 . S
O82 C73 1.247 . S
O83 Co70 2.244 . S
O83 C73 1.272 . S
O83 Co75 2.135 . S
Co84 O85 2.216 . S
Co84 O86 2.091 . S
Co84 O88 2.004 . S
Co84 O94 2.021 . S
Co84 O96 2.137 . S
Co84 O97 2.244 . S
O85 Co84 2.216 . S
O85 C92 1.247 . S
O86 Co84 2.091 . S
O86 C92 1.261 . S
C87 O96 1.247 . S
C87 O97 1.272 . S
O88 Co84 2.004 . S
O88 C93 1.259 . S
Co89 O90 2.061 . S
Co89 O95 2.052 . S
Co89 O97 2.135 . S
O90 Co89 2.061 . S
O90 C93 1.235 . S
C91 O94 1.238 . S
C91 O95 1.241 . S
C92 O85 1.247 . S
C92 O86 1.261 . S
C93 O88 1.259 . S
C93 O90 1.235 . S
O94 Co84 2.021 . S
O94 C91 1.238 . S
O95 Co89 2.052 . S
O95 C91 1.241 . S
O96 Co84 2.137 . S
O96 C87 1.247 . S
O97 Co84 2.244 . S
O97 C87 1.272 . S
O97 Co89 2.135 . S
Co98 O99 2.216 . S
Co98 O100 2.091 . S
Co98 O102 2.004 . S
Co98 O108 2.021 . S
Co98 O110 2.137 . S
Co98 O111 2.244 . S
O99 Co98 2.216 . S
O99 C106 1.247 . S
O100 Co98 2.091 . S
O100 C106 1.261 . S
C101 O110 1.247 . S
C101 O111 1.272 . S
O102 Co98 2.004 . S
O102 C107 1.259 . S
Co103 O104 2.061 . S
Co103 O109 2.052 . S
Co103 O111 2.135 . S
O104 Co103 2.061 . S
O104 C107 1.235 . S
C105 O108 1.238 . S
C105 O109 1.241 . S
C106 O99 1.247 . S
C106 O100 1.261 . S
C107 O102 1.259 . S
C107 O104 1.235 . S
O108 Co98 2.021 . S
O108 C105 1.238 . S
O109 Co103 2.052 . S
O109 C105 1.241 . S
O110 Co98 2.137 . S
O110 C101 1.247 . S
O111 Co98 2.244 . S
O111 C101 1.272 . S
O111 Co103 2.135 . S
Co112 O113 2.216 . S
Co112 O114 2.091 . S
Co112 O116 2.004 . S
Co112 O122 2.021 . S
Co112 O124 2.137 . S
Co112 O125 2.244 . S
O113 Co112 2.216 . S
O113 C120 1.247 . S
O114 Co112 2.091 . S
O114 C120 1.261 . S
C115 O124 1.247 . S
C115 O125 1.272 . S
O116 Co112 2.004 . S
O116 C121 1.259 . S
Co117 O118 2.061 . S
Co117 O123 2.052 . S
Co117 O125 2.135 . S
O118 Co117 2.061 . S
O118 C121 1.235 . S
C119 O122 1.238 . S
C119 O123 1.241 . S
C120 O113 1.247 . S
C120 O114 1.261 . S
C121 O116 1.259 . S
C121 O118 1.235 . S
O122 Co112 2.021 . S
O122 C119 1.238 . S
O123 Co117 2.052 . S
O123 C119 1.241 . S
O124 Co112 2.137 . S
O124 C115 1.247 . S
O125 Co112 2.244 . S
O125 C115 1.272 . S
O125 Co117 2.135 . S
Co126 O127 2.216 . S
Co126 O128 2.091 . S
Co126 O130 2.004 . S
Co126 O136 2.021 . S
Co126 O138 2.137 . S
Co126 O139 2.244 . S
O127 Co126 2.216 . S
O127 C134 1.247 . S
O128 Co126 2.091 . S
O128 C134 1.261 . S
C129 O138 1.247 . S
C129 O139 1.272 . S
O130 Co126 2.004 . S
O130 C135 1.259 . S
Co131 O132 2.061 . S
Co131 O137 2.052 . S
Co131 O139 2.135 . S
O132 Co131 2.061 . S
O132 C135 1.235 . S
C133 O136 1.238 . S
C133 O137 1.241 . S
C134 O127 1.247 . S
C134 O128 1.261 . S
C135 O130 1.259 . S
C135 O132 1.235 . S
O136 Co126 2.021 . S
O136 C133 1.238 . S
O137 Co131 2.052 . S
O137 C133 1.241 . S
O138 Co126 2.137 . S
O138 C129 1.247 . S
O139 Co126 2.244 . S
O139 C129 1.272 . S
O139 Co131 2.135 . S
Co140 O141 2.216 . S
Co140 O142 2.091 . S
Co140 O144 2.004 . S
Co140 O150 2.021 . S
Co140 O152 2.137 . S
Co140 O153 2.244 . S
O141 Co140 2.216 . S
O141 C148 1.247 . S
O142 Co140 2.091 . S
O142 C148 1.261 . S
C143 O152 1.247 . S
C143 O153 1.272 . S
O144 Co140 2.004 . S
O144 C149 1.259 . S
Co145 O146 2.061 . S
Co145 O151 2.052 . S
Co145 O153 2.135 . S
O146 Co145 2.061 . S
O146 C149 1.235 . S
C147 O150 1.238 . S
C147 O151 1.241 . S
C148 O141 1.247 . S
C148 O142 1.261 . S
C149 O144 1.259 . S
C149 O146 1.235 . S
O150 Co140 2.021 . S
O150 C147 1.238 . S
O151 Co145 2.052 . S
O151 C147 1.241 . S
O152 Co140 2.137 . S
O152 C143 1.247 . S
O153 Co140 2.244 . S
O153 C143 1.272 . S
O153 Co145 2.135 . S
Co154 O155 2.216 . S
Co154 O156 2.091 . S
Co154 O158 2.004 . S
Co154 O164 2.021 . S
Co154 O166 2.137 . S
Co154 O167 2.244 . S
O155 Co154 2.216 . S
O155 C162 1.247 . S
O156 Co154 2.091 . S
O156 C162 1.261 . S
C157 O166 1.247 . S
C157 O167 1.272 . S
O158 Co154 2.004 . S
O158 C163 1.259 . S
Co159 O160 2.061 . S
Co159 O165 2.052 . S
Co159 O167 2.135 . S
O160 Co159 2.061 . S
O160 C163 1.235 . S
C161 O164 1.238 . S
C161 O165 1.241 . S
C162 O155 1.247 . S
C162 O156 1.261 . S
C163 O158 1.259 . S
C163 O160 1.235 . S
O164 Co154 2.021 . S
O164 C161 1.238 . S
O165 Co159 2.052 . S
O165 C161 1.241 . S
O166 Co154 2.137 . S
O166 C157 1.247 . S
O167 Co154 2.244 . S
O167 C157 1.272 . S
O167 Co159 2.135 . S
Co168 O169 2.216 . S
Co168 O170 2.091 . S
Co168 O172 2.004 . S
Co168 O178 2.021 . S
Co168 O180 2.137 . S
Co168 O181 2.244 . S
O169 Co168 2.216 . S
O169 C176 1.247 . S
O170 Co168 2.091 . S
O170 C176 1.261 . S
C171 O180 1.247 . S
C171 O181 1.272 . S
O172 Co168 2.004 . S
O172 C177 1.259 . S
Co173 O174 2.061 . S
Co173 O179 2.052 . S
Co173 O181 2.135 . S
O174 Co173 2.061 . S
O174 C177 1.235 . S
C175 O178 1.238 . S
C175 O179 1.241 . S
C176 O169 1.247 . S
C176 O170 1.261 . S
C177 O172 1.259 . S
C177 O174 1.235 . S
O178 Co168 2.021 . S
O178 C175 1.238 . S
O179 Co173 2.052 . S
O179 C175 1.241 . S
O180 Co168 2.137 . S
O180 C171 1.247 . S
O181 Co168 2.244 . S
O181 C171 1.272 . S
O181 Co173 2.135 . S
Co182 O183 2.216 . S
Co182 O184 2.091 . S
Co182 O186 2.004 . S
Co182 O192 2.021 . S
Co182 O194 2.137 . S
Co182 O195 2.244 . S
O183 Co182 2.216 . S
O183 C190 1.247 . S
O184 Co182 2.091 . S
O184 C190 1.261 . S
C185 O194 1.247 . S
C185 O195 1.272 . S
O186 Co182 2.004 . S
O186 C191 1.259 . S
Co187 O188 2.061 . S
Co187 O193 2.052 . S
Co187 O195 2.135 . S
O188 Co187 2.061 . S
O188 C191 1.235 . S
C189 O192 1.238 . S
C189 O193 1.241 . S
C190 O183 1.247 . S
C190 O184 1.261 . S
C191 O186 1.259 . S
C191 O188 1.235 . S
O192 Co182 2.021 . S
O192 C189 1.238 . S
O193 Co187 2.052 . S
O193 C189 1.241 . S
O194 Co182 2.137 . S
O194 C185 1.247 . S
O195 Co182 2.244 . S
O195 C185 1.272 . S
O195 Co187 2.135 . S
Co196 O197 2.216 . S
Co196 O198 2.091 . S
Co196 O200 2.004 . S
Co196 O206 2.021 . S
Co196 O208 2.137 . S
Co196 O209 2.244 . S
O197 Co196 2.216 . S
O197 C204 1.247 . S
O198 Co196 2.091 . S
O198 C204 1.261 . S
C199 O208 1.247 . S
C199 O209 1.272 . S
O200 Co196 2.004 . S
O200 C205 1.259 . S
Co201 O202 2.061 . S
Co201 O207 2.052 . S
Co201 O209 2.135 . S
O202 Co201 2.061 . S
O202 C205 1.235 . S
C203 O206 1.238 . S
C203 O207 1.241 . S
C204 O197 1.247 . S
C204 O198 1.261 . S
C205 O200 1.259 . S
C205 O202 1.235 . S
O206 Co196 2.021 . S
O206 C203 1.238 . S
O207 Co201 2.052 . S
O207 C203 1.241 . S
O208 Co196 2.137 . S
O208 C199 1.247 . S
O209 Co196 2.244 . S
O209 C199 1.272 . S
O209 Co201 2.135 . S
Co210 O211 2.216 . S
Co210 O212 2.091 . S
Co210 O214 2.004 . S
Co210 O220 2.021 . S
Co210 O222 2.137 . S
Co210 O223 2.244 . S
O211 Co210 2.216 . S
O211 C218 1.247 . S
O212 Co210 2.091 . S
O212 C218 1.261 . S
C213 O222 1.247 . S
C213 O223 1.272 . S
O214 Co210 2.004 . S
O214 C219 1.259 . S
Co215 O216 2.061 . S
Co215 O221 2.052 . S
Co215 O223 2.135 . S
O216 Co215 2.061 . S
O216 C219 1.235 . S
C217 O220 1.238 . S
C217 O221 1.241 . S
C218 O211 1.247 . S
C218 O212 1.261 . S
C219 O214 1.259 . S
C219 O216 1.235 . S
O220 Co210 2.021 . S
O220 C217 1.238 . S
O221 Co215 2.052 . S
O221 C217 1.241 . S
O222 Co210 2.137 . S
O222 C213 1.247 . S
O223 Co210 2.244 . S
O223 C213 1.272 . S
O223 Co215 2.135 . S
Co224 O225 2.216 . S
Co224 O226 2.091 . S
Co224 O228 2.004 . S
Co224 O234 2.021 . S
Co224 O236 2.137 . S
Co224 O237 2.244 . S
O225 Co224 2.216 . S
O225 C232 1.247 . S
O226 Co224 2.091 . S
O226 C232 1.261 . S
C227 O236 1.247 . S
C227 O237 1.272 . S
O228 Co224 2.004 . S
O228 C233 1.259 . S
Co229 O230 2.061 . S
Co229 O235 2.052 . S
Co229 O237 2.135 . S
O230 Co229 2.061 . S
O230 C233 1.235 . S
C231 O234 1.238 . S
C231 O235 1.241 . S
C232 O225 1.247 . S
C232 O226 1.261 . S
C233 O228 1.259 . S
C233 O230 1.235 . S
O234 Co224 2.021 . S
O234 C231 1.238 . S
O235 Co229 2.052 . S
O235 C231 1.241 . S
O236 Co224 2.137 . S
O236 C227 1.247 . S
O237 Co224 2.244 . S
O237 C227 1.272 . S
O237 Co229 2.135 . S
Co238 O239 2.216 . S
Co238 O240 2.091 . S
Co238 O242 2.004 . S
Co238 O248 2.021 . S
Co238 O250 2.137 . S
Co238 O251 2.244 . S
O239 Co238 2.216 . S
O239 C246 1.247 . S
O240 Co238 2.091 . S
O240 C246 1.261 . S
C241 O250 1.247 . S
C241 O251 1.272 . S
O242 Co238 2.004 . S
O242 C247 1.259 . S
Co243 O244 2.061 . S
Co243 O249 2.052 . S
Co243 O251 2.135 . S
O244 Co243 2.061 . S
O244 C247 1.235 . S
C245 O248 1.238 . S
C245 O249 1.241 . S
C246 O239 1.247 . S
C246 O240 1.261 . S
C247 O242 1.259 . S
C247 O244 1.235 . S
O248 Co238 2.021 . S
O248 C245 1.238 . S
O249 Co243 2.052 . S
O249 C245 1.241 . S
O250 Co238 2.137 . S
O250 C241 1.247 . S
O251 Co238 2.244 . S
O251 C241 1.272 . S
O251 Co243 2.135 . S
Co252 O253 2.216 . S
Co252 O254 2.091 . S
Co252 O256 2.004 . S
Co252 O262 2.021 . S
Co252 O264 2.137 . S
Co252 O265 2.244 . S
O253 Co252 2.216 . S
O253 C260 1.247 . S
O254 Co252 2.091 . S
O254 C260 1.261 . S
C255 O264 1.247 . S
C255 O265 1.272 . S
O256 Co252 2.004 . S
O256 C261 1.259 . S
Co257 O258 2.061 . S
Co257 O263 2.052 . S
Co257 O265 2.135 . S
O258 Co257 2.061 . S
O258 C261 1.235 . S
C259 O262 1.238 . S
C259 O263 1.241 . S
C260 O253 1.247 . S
C260 O254 1.261 . S
C261 O256 1.259 . S
C261 O258 1.235 . S
O262 Co252 2.021 . S
O262 C259 1.238 . S
O263 Co257 2.052 . S
O263 C259 1.241 . S
O264 Co252 2.137 . S
O264 C255 1.247 . S
O265 Co252 2.244 . S
O265 C255 1.272 . S
O265 Co257 2.135 . S
Co266 O267 2.216 . S
Co266 O268 2.091 . S
Co266 O270 2.004 . S
Co266 O276 2.021 . S
Co266 O278 2.137 . S
Co266 O279 2.244 . S
O267 Co266 2.216 . S
O267 C274 1.247 . S
O268 Co266 2.091 . S
O268 C274 1.261 . S
C269 O278 1.247 . S
C269 O279 1.272 . S
O270 Co266 2.004 . S
O270 C275 1.259 . S
Co271 O272 2.061 . S
Co271 O277 2.052 . S
Co271 O279 2.135 . S
O272 Co271 2.061 . S
O272 C275 1.235 . S
C273 O276 1.238 . S
C273 O277 1.241 . S
C274 O267 1.247 . S
C274 O268 1.261 . S
C275 O270 1.259 . S
C275 O272 1.235 . S
O276 Co266 2.021 . S
O276 C273 1.238 . S
O277 Co271 2.052 . S
O277 C273 1.241 . S
O278 Co266 2.137 . S
O278 C269 1.247 . S
O279 Co266 2.244 . S
O279 C269 1.272 . S
O279 Co271 2.135 . S
Co280 O281 2.216 . S
Co280 O282 2.091 . S
Co280 O284 2.004 . S
Co280 O290 2.021 . S
Co280 O292 2.137 . S
Co280 O293 2.244 . S
O281 Co280 2.216 . S
O281 C288 1.247 . S
O282 Co280 2.091 . S
O282 C288 1.261 . S
C283 O292 1.247 . S
C283 O293 1.272 . S
O284 Co280 2.004 . S
O284 C289 1.259 . S
Co285 O286 2.061 . S
Co285 O291 2.052 . S
Co285 O293 2.135 . S
O286 Co285 2.061 . S
O286 C289 1.235 . S
C287 O290 1.238 . S
C287 O291 1.241 . S
C288 O281 1.247 . S
C288 O282 1.261 . S
C289 O284 1.259 . S
C289 O286 1.235 . S
O290 Co280 2.021 . S
O290 C287 1.238 . S
O291 Co285 2.052 . S
O291 C287 1.241 . S
O292 Co280 2.137 . S
O292 C283 1.247 . S
O293 Co280 2.244 . S
O293 C283 1.272 . S
O293 Co285 2.135 . S
Co294 O295 2.216 . S
Co294 O296 2.091 . S
Co294 O298 2.004 . S
Co294 O304 2.021 . S
Co294 O306 2.137 . S
Co294 O307 2.244 . S
O295 Co294 2.216 . S
O295 C302 1.247 . S
O296 Co294 2.091 . S
O296 C302 1.261 . S
C297 O306 1.247 . S
C297 O307 1.272 . S
O298 Co294 2.004 . S
O298 C303 1.259 . S
Co299 O300 2.061 . S
Co299 O305 2.052 . S
Co299 O307 2.135 . S
O300 Co299 2.061 . S
O300 C303 1.235 . S
C301 O304 1.238 . S
C301 O305 1.241 . S
C302 O295 1.247 . S
C302 O296 1.261 . S
C303 O298 1.259 . S
C303 O300 1.235 . S
O304 Co294 2.021 . S
O304 C301 1.238 . S
O305 Co299 2.052 . S
O305 C301 1.241 . S
O306 Co294 2.137 . S
O306 C297 1.247 . S
O307 Co294 2.244 . S
O307 C297 1.272 . S
O307 Co299 2.135 . S
Co308 O309 2.216 . S
Co308 O310 2.091 . S
Co308 O312 2.004 . S
Co308 O318 2.021 . S
Co308 O320 2.137 . S
Co308 O321 2.244 . S
O309 Co308 2.216 . S
O309 C316 1.247 . S
O310 Co308 2.091 . S
O310 C316 1.261 . S
C311 O320 1.247 . S
C311 O321 1.272 . S
O312 Co308 2.004 . S
O312 C317 1.259 . S
Co313 O314 2.061 . S
Co313 O319 2.052 . S
Co313 O321 2.135 . S
O314 Co313 2.061 . S
O314 C317 1.235 . S
C315 O318 1.238 . S
C315 O319 1.241 . S
C316 O309 1.247 . S
C316 O310 1.261 . S
C317 O312 1.259 . S
C317 O314 1.235 . S
O318 Co308 2.021 . S
O318 C315 1.238 . S
O319 Co313 2.052 . S
O319 C315 1.241 . S
O320 Co308 2.137 . S
O320 C311 1.247 . S
O321 Co308 2.244 . S
O321 C311 1.272 . S
O321 Co313 2.135 . S
Co322 O323 2.216 . S
Co322 O324 2.091 . S
Co322 O326 2.004 . S
Co322 O332 2.021 . S
Co322 O334 2.137 . S
Co322 O335 2.244 . S
O323 Co322 2.216 . S
O323 C330 1.247 . S
O324 Co322 2.091 . S
O324 C330 1.261 . S
C325 O334 1.247 . S
C325 O335 1.272 . S
O326 Co322 2.004 . S
O326 C331 1.259 . S
Co327 O328 2.061 . S
Co327 O333 2.052 . S
Co327 O335 2.135 . S
O328 Co327 2.061 . S
O328 C331 1.235 . S
C329 O332 1.238 . S
C329 O333 1.241 . S
C330 O323 1.247 . S
C330 O324 1.261 . S
C331 O326 1.259 . S
C331 O328 1.235 . S
O332 Co322 2.021 . S
O332 C329 1.238 . S
O333 Co327 2.052 . S
O333 C329 1.241 . S
O334 Co322 2.137 . S
O334 C325 1.247 . S
O335 Co322 2.244 . S
O335 C325 1.272 . S
O335 Co327 2.135 . S
Co336 O337 2.216 . S
Co336 O338 2.091 . S
Co336 O340 2.004 . S
Co336 O346 2.021 . S
Co336 O348 2.137 . S
Co336 O349 2.244 . S
O337 Co336 2.216 . S
O337 C344 1.247 . S
O338 Co336 2.091 . S
O338 C344 1.261 . S
C339 O348 1.247 . S
C339 O349 1.272 . S
O340 Co336 2.004 . S
O340 C345 1.259 . S
Co341 O342 2.061 . S
Co341 O347 2.052 . S
Co341 O349 2.135 . S
O342 Co341 2.061 . S
O342 C345 1.235 . S
C343 O346 1.238 . S
C343 O347 1.241 . S
C344 O337 1.247 . S
C344 O338 1.261 . S
C345 O340 1.259 . S
C345 O342 1.235 . S
O346 Co336 2.021 . S
O346 C343 1.238 . S
O347 Co341 2.052 . S
O347 C343 1.241 . S
O348 Co336 2.137 . S
O348 C339 1.247 . S
O349 Co336 2.244 . S
O349 C339 1.272 . S
O349 Co341 2.135 . S
Co350 O351 2.216 . S
Co350 O352 2.091 . S
Co350 O354 2.004 . S
Co350 O360 2.021 . S
Co350 O362 2.137 . S
Co350 O363 2.244 . S
O351 Co350 2.216 . S
O351 C358 1.247 . S
O352 Co350 2.091 . S
O352 C358 1.261 . S
C353 O362 1.247 . S
C353 O363 1.272 . S
O354 Co350 2.004 . S
O354 C359 1.259 . S
Co355 O356 2.061 . S
Co355 O361 2.052 . S
Co355 O363 2.135 . S
O356 Co355 2.061 . S
O356 C359 1.235 . S
C357 O360 1.238 . S
C357 O361 1.241 . S
C358 O351 1.247 . S
C358 O352 1.261 . S
C359 O354 1.259 . S
C359 O356 1.235 . S
O360 Co350 2.021 . S
O360 C357 1.238 . S
O361 Co355 2.052 . S
O361 C357 1.241 . S
O362 Co350 2.137 . S
O362 C353 1.247 . S
O363 Co350 2.244 . S
O363 C353 1.272 . S
O363 Co355 2.135 . S
Co364 O365 2.216 . S
Co364 O366 2.091 . S
Co364 O368 2.004 . S
Co364 O374 2.021 . S
Co364 O376 2.137 . S
Co364 O377 2.244 . S
O365 Co364 2.216 . S
O365 C372 1.247 . S
O366 Co364 2.091 . S
O366 C372 1.261 . S
C367 O376 1.247 . S
C367 O377 1.272 . S
O368 Co364 2.004 . S
O368 C373 1.259 . S
Co369 O370 2.061 . S
Co369 O375 2.052 . S
Co369 O377 2.135 . S
O370 Co369 2.061 . S
O370 C373 1.235 . S
C371 O374 1.238 . S
C371 O375 1.241 . S
C372 O365 1.247 . S
C372 O366 1.261 . S
C373 O368 1.259 . S
C373 O370 1.235 . S
O374 Co364 2.021 . S
O374 C371 1.238 . S
O375 Co369 2.052 . S
O375 C371 1.241 . S
O376 Co364 2.137 . S
O376 C367 1.247 . S
O377 Co364 2.244 . S
O377 C367 1.272 . S
O377 Co369 2.135 . S
Co378 O379 2.216 . S
Co378 O380 2.091 . S
Co378 O382 2.004 . S
Co378 O388 2.021 . S
Co378 O390 2.137 . S
Co378 O391 2.244 . S
O379 Co378 2.216 . S
O379 C386 1.247 . S
O380 Co378 2.091 . S
O380 C386 1.261 . S
C381 O390 1.247 . S
C381 O391 1.272 . S
O382 Co378 2.004 . S
O382 C387 1.259 . S
Co383 O384 2.061 . S
Co383 O389 2.052 . S
Co383 O391 2.135 . S
O384 Co383 2.061 . S
O384 C387 1.235 . S
C385 O388 1.238 . S
C385 O389 1.241 . S
C386 O379 1.247 . S
C386 O380 1.261 . S
C387 O382 1.259 . S
C387 O384 1.235 . S
O388 Co378 2.021 . S
O388 C385 1.238 . S
O389 Co383 2.052 . S
O389 C385 1.241 . S
O390 Co378 2.137 . S
O390 C381 1.247 . S
O391 Co378 2.244 . S
O391 C381 1.272 . S
O391 Co383 2.135 . S
Co392 O393 2.216 . S
Co392 O394 2.091 . S
Co392 O396 2.004 . S
Co392 O402 2.021 . S
Co392 O404 2.137 . S
Co392 O405 2.244 . S
O393 Co392 2.216 . S
O393 C400 1.247 . S
O394 Co392 2.091 . S
O394 C400 1.261 . S
C395 O404 1.247 . S
C395 O405 1.272 . S
O396 Co392 2.004 . S
O396 C401 1.259 . S
Co397 O398 2.061 . S
Co397 O403 2.052 . S
Co397 O405 2.135 . S
O398 Co397 2.061 . S
O398 C401 1.235 . S
C399 O402 1.238 . S
C399 O403 1.241 . S
C400 O393 1.247 . S
C400 O394 1.261 . S
C401 O396 1.259 . S
C401 O398 1.235 . S
O402 Co392 2.021 . S
O402 C399 1.238 . S
O403 Co397 2.052 . S
O403 C399 1.241 . S
O404 Co392 2.137 . S
O404 C395 1.247 . S
O405 Co392 2.244 . S
O405 C395 1.272 . S
O405 Co397 2.135 . S
Co406 O407 2.216 . S
Co406 O408 2.091 . S
Co406 O410 2.004 . S
Co406 O416 2.021 . S
Co406 O418 2.137 . S
Co406 O419 2.244 . S
O407 Co406 2.216 . S
O407 C414 1.247 . S
O408 Co406 2.091 . S
O408 C414 1.261 . S
C409 O418 1.247 . S
C409 O419 1.272 . S
O410 Co406 2.004 . S
O410 C415 1.259 . S
Co411 O412 2.061 . S
Co411 O417 2.052 . S
Co411 O419 2.135 . S
O412 Co411 2.061 . S
O412 C415 1.235 . S
C413 O416 1.238 . S
C413 O417 1.241 . S
C414 O407 1.247 . S
C414 O408 1.261 . S
C415 O410 1.259 . S
C415 O412 1.235 . S
O416 Co406 2.021 . S
O416 C413 1.238 . S
O417 Co411 2.052 . S
O417 C413 1.241 . S
O418 Co406 2.137 . S
O418 C409 1.247 . S
O419 Co406 2.244 . S
O419 C409 1.272 . S
O419 Co411 2.135 . S
Co420 O421 2.216 . S
Co420 O422 2.091 . S
Co420 O424 2.004 . S
Co420 O430 2.021 . S
Co420 O432 2.137 . S
Co420 O433 2.244 . S
O421 Co420 2.216 . S
O421 C428 1.247 . S
O422 Co420 2.091 . S
O422 C428 1.261 . S
C423 O432 1.247 . S
C423 O433 1.272 . S
O424 Co420 2.004 . S
O424 C429 1.259 . S
Co425 O426 2.061 . S
Co425 O431 2.052 . S
Co425 O433 2.135 . S
O426 Co425 2.061 . S
O426 C429 1.235 . S
C427 O430 1.238 . S
C427 O431 1.241 . S
C428 O421 1.247 . S
C428 O422 1.261 . S
C429 O424 1.259 . S
C429 O426 1.235 . S
O430 Co420 2.021 . S
O430 C427 1.238 . S
O431 Co425 2.052 . S
O431 C427 1.241 . S
O432 Co420 2.137 . S
O432 C423 1.247 . S
O433 Co420 2.244 . S
O433 C423 1.272 . S
O433 Co425 2.135 . S
Co434 O435 2.216 . S
Co434 O436 2.091 . S
Co434 O438 2.004 . S
Co434 O444 2.021 . S
Co434 O446 2.137 . S
Co434 O447 2.244 . S
O435 Co434 2.216 . S
O435 C442 1.247 . S
O436 Co434 2.091 . S
O436 C442 1.261 . S
C437 O446 1.247 . S
C437 O447 1.272 . S
O438 Co434 2.004 . S
O438 C443 1.259 . S
Co439 O440 2.061 . S
Co439 O445 2.052 . S
Co439 O447 2.135 . S
O440 Co439 2.061 . S
O440 C443 1.235 . S
C441 O444 1.238 . S
C441 O445 1.241 . S
C442 O435 1.247 . S
C442 O436 1.261 . S
C443 O438 1.259 . S
C443 O440 1.235 . S
O444 Co434 2.021 . S
O444 C441 1.238 . S
O445 Co439 2.052 . S
O445 C441 1.241 . S
O446 Co434 2.137 . S
O446 C437 1.247 . S
O447 Co434 2.244 . S
O447 C437 1.272 . S
O447 Co439 2.135 . S
Co448 O449 2.216 . S
Co448 O450 2.091 . S
Co448 O452 2.004 . S
Co448 O458 2.021 . S
Co448 O460 2.137 . S
Co448 O461 2.244 . S
O449 Co448 2.216 . S
O449 C456 1.247 . S
O450 Co448 2.091 . S
O450 C456 1.261 . S
C451 O460 1.247 . S
C451 O461 1.272 . S
O452 Co448 2.004 . S
O452 C457 1.259 . S
Co453 O454 2.061 . S
Co453 O459 2.052 . S
Co453 O461 2.135 . S
O454 Co453 2.061 . S
O454 C457 1.235 . S
C455 O458 1.238 . S
C455 O459 1.241 . S
C456 O449 1.247 . S
C456 O450 1.261 . S
C457 O452 1.259 . S
C457 O454 1.235 . S
O458 Co448 2.021 . S
O458 C455 1.238 . S
O459 Co453 2.052 . S
O459 C455 1.241 . S
O460 Co448 2.137 . S
O460 C451 1.247 . S
O461 Co448 2.244 . S
O461 C451 1.272 . S
O461 Co453 2.135 . S
Co462 O463 2.216 . S
Co462 O464 2.091 . S
Co462 O466 2.004 . S
Co462 O472 2.021 . S
Co462 O474 2.137 . S
Co462 O475 2.244 . S
O463 Co462 2.216 . S
O463 C470 1.247 . S
O464 Co462 2.091 . S
O464 C470 1.261 . S
C465 O474 1.247 . S
C465 O475 1.272 . S
O466 Co462 2.004 . S
O466 C471 1.259 . S
Co467 O468 2.061 . S
Co467 O473 2.052 . S
Co467 O475 2.135 . S
O468 Co467 2.061 . S
O468 C471 1.235 . S
C469 O472 1.238 . S
C469 O473 1.241 . S
C470 O463 1.247 . S
C470 O464 1.261 . S
C471 O466 1.259 . S
C471 O468 1.235 . S
O472 Co462 2.021 . S
O472 C469 1.238 . S
O473 Co467 2.052 . S
O473 C469 1.241 . S
O474 Co462 2.137 . S
O474 C465 1.247 . S
O475 Co462 2.244 . S
O475 C465 1.272 . S
O475 Co467 2.135 . S
Co476 O477 2.216 . S
Co476 O478 2.091 . S
Co476 O480 2.004 . S
Co476 O486 2.021 . S
Co476 O488 2.137 . S
Co476 O489 2.244 . S
O477 Co476 2.216 . S
O477 C484 1.247 . S
O478 Co476 2.091 . S
O478 C484 1.261 . S
C479 O488 1.247 . S
C479 O489 1.272 . S
O480 Co476 2.004 . S
O480 C485 1.259 . S
Co481 O482 2.061 . S
Co481 O487 2.052 . S
Co481 O489 2.135 . S
O482 Co481 2.061 . S
O482 C485 1.235 . S
C483 O486 1.238 . S
C483 O487 1.241 . S
C484 O477 1.247 . S
C484 O478 1.261 . S
C485 O480 1.259 . S
C485 O482 1.235 . S
O486 Co476 2.021 . S
O486 C483 1.238 . S
O487 Co481 2.052 . S
O487 C483 1.241 . S
O488 Co476 2.137 . S
O488 C479 1.247 . S
O489 Co476 2.244 . S
O489 C479 1.272 . S
O489 Co481 2.135 . S
Co490 O491 2.216 . S
Co490 O492 2.091 . S
Co490 O494 2.004 . S
Co490 O500 2.021 . S
Co490 O502 2.137 . S
Co490 O503 2.244 . S
O491 Co490 2.216 . S
O491 C498 1.247 . S
O492 Co490 2.091 . S
O492 C498 1.261 . S
C493 O502 1.247 . S
C493 O503 1.272 . S
O494 Co490 2.004 . S
O494 C499 1.259 . S
Co495 O496 2.061 . S
Co495 O501 2.052 . S
Co495 O503 2.135 . S
O496 Co495 2.061 . S
O496 C499 1.235 . S
C497 O500 1.238 . S
C497 O501 1.241 . S
C498 O491 1.247 . S
C498 O492 1.261 . S
C499 O494 1.259 . S
C499 O496 1.235 . S
O500 Co490 2.021 . S
O500 C497 1.238 . S
O501 Co495 2.052 . S
O501 C497 1.241 . S
O502 Co490 2.137 . S
O502 C493 1.247 . S
O503 Co490 2.244 . S
O503 C493 1.272 . S
O503 Co495 2.135 . S
Co504 O505 2.216 . S
Co504 O506 2.091 . S
Co504 O508 2.004 . S
Co504 O514 2.021 . S
Co504 O516 2.137 . S
Co504 O517 2.244 . S
O505 Co504 2.216 . S
O505 C512 1.247 . S
O506 Co504 2.091 . S
O506 C512 1.261 . S
C507 O516 1.247 . S
C507 O517 1.272 . S
O508 Co504 2.004 . S
O508 C513 1.259 . S
Co509 O510 2.061 . S
Co509 O515 2.052 . S
Co509 O517 2.135 . S
O510 Co509 2.061 . S
O510 C513 1.235 . S
C511 O514 1.238 . S
C511 O515 1.241 . S
C512 O505 1.247 . S
C512 O506 1.261 . S
C513 O508 1.259 . S
C513 O510 1.235 . S
O514 Co504 2.021 . S
O514 C511 1.238 . S
O515 Co509 2.052 . S
O515 C511 1.241 . S
O516 Co504 2.137 . S
O516 C507 1.247 . S
O517 Co504 2.244 . S
O517 C507 1.272 . S
O517 Co509 2.135 . S
Co518 O519 2.216 . S
Co518 O520 2.091 . S
Co518 O522 2.004 . S
Co518 O528 2.021 . S
Co518 O530 2.137 . S
Co518 O531 2.244 . S
O519 Co518 2.216 . S
O519 C526 1.247 . S
O520 Co518 2.091 . S
O520 C526 1.261 . S
C521 O530 1.247 . S
C521 O531 1.272 . S
O522 Co518 2.004 . S
O522 C527 1.259 . S
Co523 O524 2.061 . S
Co523 O529 2.052 . S
Co523 O531 2.135 . S
O524 Co523 2.061 . S
O524 C527 1.235 . S
C525 O528 1.238 . S
C525 O529 1.241 . S
C526 O519 1.247 . S
C526 O520 1.261 . S
C527 O522 1.259 . S
C527 O524 1.235 . S
O528 Co518 2.021 . S
O528 C525 1.238 . S
O529 Co523 2.052 . S
O529 C525 1.241 . S
O530 Co518 2.137 . S
O530 C521 1.247 . S
O531 Co518 2.244 . S
O531 C521 1.272 . S
O531 Co523 2.135 . S
Co532 O533 2.216 . S
Co532 O534 2.091 . S
Co532 O536 2.004 . S
Co532 O542 2.021 . S
Co532 O544 2.137 . S
Co532 O545 2.244 . S
O533 Co532 2.216 . S
O533 C540 1.247 . S
O534 Co532 2.091 . S
O534 C540 1.261 . S
C535 O544 1.247 . S
C535 O545 1.272 . S
O536 Co532 2.004 . S
O536 C541 1.259 . S
Co537 O538 2.061 . S
Co537 O543 2.052 . S
Co537 O545 2.135 . S
O538 Co537 2.061 . S
O538 C541 1.235 . S
C539 O542 1.238 . S
C539 O543 1.241 . S
C540 O533 1.247 . S
C540 O534 1.261 . S
C541 O536 1.259 . S
C541 O538 1.235 . S
O542 Co532 2.021 . S
O542 C539 1.238 . S
O543 Co537 2.052 . S
O543 C539 1.241 . S
O544 Co532 2.137 . S
O544 C535 1.247 . S
O545 Co532 2.244 . S
O545 C535 1.272 . S
O545 Co537 2.135 . S
Co546 O547 2.216 . S
Co546 O548 2.091 . S
Co546 O550 2.004 . S
Co546 O556 2.021 . S
Co546 O558 2.137 . S
Co546 O559 2.244 . S
O547 Co546 2.216 . S
O547 C554 1.247 . S
O548 Co546 2.091 . S
O548 C554 1.261 . S
C549 O558 1.247 . S
C549 O559 1.272 . S
O550 Co546 2.004 . S
O550 C555 1.259 . S
Co551 O552 2.061 . S
Co551 O557 2.052 . S
Co551 O559 2.135 . S
O552 Co551 2.061 . S
O552 C555 1.235 . S
C553 O556 1.238 . S
C553 O557 1.241 . S
C554 O547 1.247 . S
C554 O548 1.261 . S
C555 O550 1.259 . S
C555 O552 1.235 . S
O556 Co546 2.021 . S
O556 C553 1.238 . S
O557 Co551 2.052 . S
O557 C553 1.241 . S
O558 Co546 2.137 . S
O558 C549 1.247 . S
O559 Co546 2.244 . S
O559 C549 1.272 . S
O559 Co551 2.135 . S
Co560 O561 2.216 . S
Co560 O562 2.091 . S
Co560 O564 2.004 . S
Co560 O570 2.021 . S
Co560 O572 2.137 . S
Co560 O573 2.244 . S
O561 Co560 2.216 . S
O561 C568 1.247 . S
O562 Co560 2.091 . S
O562 C568 1.261 . S
C563 O572 1.247 . S
C563 O573 1.272 . S
O564 Co560 2.004 . S
O564 C569 1.259 . S
Co565 O566 2.061 . S
Co565 O571 2.052 . S
Co565 O573 2.135 . S
O566 Co565 2.061 . S
O566 C569 1.235 . S
C567 O570 1.238 . S
C567 O571 1.241 . S
C568 O561 1.247 . S
C568 O562 1.261 . S
C569 O564 1.259 . S
C569 O566 1.235 . S
O570 Co560 2.021 . S
O570 C567 1.238 . S
O571 Co565 2.052 . S
O571 C567 1.241 . S
O572 Co560 2.137 . S
O572 C563 1.247 . S
O573 Co560 2.244 . S
O573 C563 1.272 . S
O573 Co565 2.135 . S
Co574 O575 2.216 . S
Co574 O576 2.091 . S
Co574 O578 2.004 . S
Co574 O584 2.021 . S
Co574 O586 2.137 . S
Co574 O587 2.244 . S
O575 Co574 2.216 . S
O575 C582 1.247 . S
O576 Co574 2.091 . S
O576 C582 1.261 . S
C577 O586 1.247 . S
C577 O587 1.272 . S
O578 Co574 2.004 . S
O578 C583 1.259 . S
Co579 O580 2.061 . S
Co579 O585 2.052 . S
Co579 O587 2.135 . S
O580 Co579 2.061 . S
O580 C583 1.235 . S
C581 O584 1.238 . S
C581 O585 1.241 . S
C582 O575 1.247 . S
C582 O576 1.261 . S
C583 O578 1.259 . S
C583 O580 1.235 . S
O584 Co574 2.021 . S
O584 C581 1.238 . S
O585 Co579 2.052 . S
O585 C581 1.241 . S
O586 Co574 2.137 . S
O586 C577 1.247 . S
O587 Co574 2.244 . S
O587 C577 1.272 . S
O587 Co579 2.135 . S
Co588 O589 2.216 . S
Co588 O590 2.091 . S
Co588 O592 2.004 . S
Co588 O598 2.021 . S
Co588 O600 2.137 . S
Co588 O601 2.244 . S
O589 Co588 2.216 . S
O589 C596 1.247 . S
O590 Co588 2.091 . S
O590 C596 1.261 . S
C591 O600 1.247 . S
C591 O601 1.272 . S
O592 Co588 2.004 . S
O592 C597 1.259 . S
Co593 O594 2.061 . S
Co593 O599 2.052 . S
Co593 O601 2.135 . S
O594 Co593 2.061 . S
O594 C597 1.235 . S
C595 O598 1.238 . S
C595 O599 1.241 . S
C596 O589 1.247 . S
C596 O590 1.261 . S
C597 O592 1.259 . S
C597 O594 1.235 . S
O598 Co588 2.021 . S
O598 C595 1.238 . S
O599 Co593 2.052 . S
O599 C595 1.241 . S
O600 Co588 2.137 . S
O600 C591 1.247 . S
O601 Co588 2.244 . S
O601 C591 1.272 . S
O601 Co593 2.135 . S
Co602 O603 2.216 . S
Co602 O604 2.091 . S
Co602 O606 2.004 . S
Co602 O612 2.021 . S
Co602 O614 2.137 . S
Co602 O615 2.244 . S
O603 Co602 2.216 . S
O603 C610 1.247 . S
O604 Co602 2.091 . S
O604 C610 1.261 . S
C605 O614 1.247 . S
C605 O615 1.272 . S
O606 Co602 2.004 . S
O606 C611 1.259 . S
Co607 O608 2.061 . S
Co607 O613 2.052 . S
Co607 O615 2.135 . S
O608 Co607 2.061 . S
O608 C611 1.235 . S
C609 O612 1.238 . S
C609 O613 1.241 . S
C610 O603 1.247 . S
C610 O604 1.261 . S
C611 O606 1.259 . S
C611 O608 1.235 . S
O612 Co602 2.021 . S
O612 C609 1.238 . S
O613 Co607 2.052 . S
O613 C609 1.241 . S
O614 Co602 2.137 . S
O614 C605 1.247 . S
O615 Co602 2.244 . S
O615 C605 1.272 . S
O615 Co607 2.135 . S
Co616 O617 2.216 . S
Co616 O618 2.091 . S
Co616 O620 2.004 . S
Co616 O626 2.021 . S
Co616 O628 2.137 . S
Co616 O629 2.244 . S
O617 Co616 2.216 . S
O617 C624 1.247 . S
O618 Co616 2.091 . S
O618 C624 1.261 . S
C619 O628 1.247 . S
C619 O629 1.272 . S
O620 Co616 2.004 . S
O620 C625 1.259 . S
Co621 O622 2.061 . S
Co621 O627 2.052 . S
Co621 O629 2.135 . S
O622 Co621 2.061 . S
O622 C625 1.235 . S
C623 O626 1.238 . S
C623 O627 1.241 . S
C624 O617 1.247 . S
C624 O618 1.261 . S
C625 O620 1.259 . S
C625 O622 1.235 . S
O626 Co616 2.021 . S
O626 C623 1.238 . S
O627 Co621 2.052 . S
O627 C623 1.241 . S
O628 Co616 2.137 . S
O628 C619 1.247 . S
O629 Co616 2.244 . S
O629 C619 1.272 . S
O629 Co621 2.135 . S
Co630 O631 2.216 . S
Co630 O632 2.091 . S
Co630 O634 2.004 . S
Co630 O640 2.021 . S
Co630 O642 2.137 . S
Co630 O643 2.244 . S
O631 Co630 2.216 . S
O631 C638 1.247 . S
O632 Co630 2.091 . S
O632 C638 1.261 . S
C633 O642 1.247 . S
C633 O643 1.272 . S
O634 Co630 2.004 . S
O634 C639 1.259 . S
Co635 O636 2.061 . S
Co635 O641 2.052 . S
Co635 O643 2.135 . S
O636 Co635 2.061 . S
O636 C639 1.235 . S
C637 O640 1.238 . S
C637 O641 1.241 . S
C638 O631 1.247 . S
C638 O632 1.261 . S
C639 O634 1.259 . S
C639 O636 1.235 . S
O640 Co630 2.021 . S
O640 C637 1.238 . S
O641 Co635 2.052 . S
O641 C637 1.241 . S
O642 Co630 2.137 . S
O642 C633 1.247 . S
O643 Co630 2.244 . S
O643 C633 1.272 . S
O643 Co635 2.135 . S
Co644 O645 2.216 . S
Co644 O646 2.091 . S
Co644 O648 2.004 . S
Co644 O654 2.021 . S
Co644 O656 2.137 . S
Co644 O657 2.244 . S
O645 Co644 2.216 . S
O645 C652 1.247 . S
O646 Co644 2.091 . S
O646 C652 1.261 . S
C647 O656 1.247 . S
C647 O657 1.272 . S
O648 Co644 2.004 . S
O648 C653 1.259 . S
Co649 O650 2.061 . S
Co649 O655 2.052 . S
Co649 O657 2.135 . S
O650 Co649 2.061 . S
O650 C653 1.235 . S
C651 O654 1.238 . S
C651 O655 1.241 . S
C652 O645 1.247 . S
C652 O646 1.261 . S
C653 O648 1.259 . S
C653 O650 1.235 . S
O654 Co644 2.021 . S
O654 C651 1.238 . S
O655 Co649 2.052 . S
O655 C651 1.241 . S
O656 Co644 2.137 . S
O656 C647 1.247 . S
O657 Co644 2.244 . S
O657 C647 1.272 . S
O657 Co649 2.135 . S
Co658 O659 2.216 . S
Co658 O660 2.091 . S
Co658 O662 2.004 . S
Co658 O668 2.021 . S
Co658 O670 2.137 . S
Co658 O671 2.244 . S
O659 Co658 2.216 . S
O659 C666 1.247 . S
O660 Co658 2.091 . S
O660 C666 1.261 . S
C661 O670 1.247 . S
C661 O671 1.272 . S
O662 Co658 2.004 . S
O662 C667 1.259 . S
Co663 O664 2.061 . S
Co663 O669 2.052 . S
Co663 O671 2.135 . S
O664 Co663 2.061 . S
O664 C667 1.235 . S
C665 O668 1.238 . S
C665 O669 1.241 . S
C666 O659 1.247 . S
C666 O660 1.261 . S
C667 O662 1.259 . S
C667 O664 1.235 . S
O668 Co658 2.021 . S
O668 C665 1.238 . S
O669 Co663 2.052 . S
O669 C665 1.241 . S
O670 Co658 2.137 . S
O670 C661 1.247 . S
O671 Co658 2.244 . S
O671 C661 1.272 . S
O671 Co663 2.135 . S
Co672 O673 2.216 . S
Co672 O674 2.091 . S
Co672 O676 2.004 . S
Co672 O682 2.021 . S
Co672 O684 2.137 . S
Co672 O685 2.244 . S
O673 Co672 2.216 . S
O673 C680 1.247 . S
O674 Co672 2.091 . S
O674 C680 1.261 . S
C675 O684 1.247 . S
C675 O685 1.272 . S
O676 Co672 2.004 . S
O676 C681 1.259 . S
Co677 O678 2.061 . S
Co677 O683 2.052 . S
Co677 O685 2.135 . S
O678 Co677 2.061 . S
O678 C681 1.235 . S
C679 O682 1.238 . S
C679 O683 1.241 . S
C680 O673 1.247 . S
C680 O674 1.261 . S
C681 O676 1.259 . S
C681 O678 1.235 . S
O682 Co672 2.021 . S
O682 C679 1.238 . S
O683 Co677 2.052 . S
O683 C679 1.241 . S
O684 Co672 2.137 . S
O684 C675 1.247 . S
O685 Co672 2.244 . S
O685 C675 1.272 . S
O685 Co677 2.135 . S
Co686 O687 2.216 . S
Co686 O688 2.091 . S
Co686 O690 2.004 . S
Co686 O696 2.021 . S
Co686 O698 2.137 . S
Co686 O699 2.244 . S
O687 Co686 2.216 . S
O687 C694 1.247 . S
O688 Co686 2.091 . S
O688 C694 1.261 . S
C689 O698 1.247 . S
C689 O699 1.272 . S
O690 Co686 2.004 . S
O690 C695 1.259 . S
Co691 O692 2.061 . S
Co691 O697 2.052 . S
Co691 O699 2.135 . S
O692 Co691 2.061 . S
O692 C695 1.235 . S
C693 O696 1.238 . S
C693 O697 1.241 . S
C694 O687 1.247 . S
C694 O688 1.261 . S
C695 O690 1.259 . S
C695 O692 1.235 . S
O696 Co686 2.021 . S
O696 C693 1.238 . S
O697 Co691 2.052 . S
O697 C693 1.241 . S
O698 Co686 2.137 . S
O698 C689 1.247 . S
O699 Co686 2.244 . S
O699 C689 1.272 . S
O699 Co691 2.135 . S
Co700 O701 2.216 . S
Co700 O702 2.091 . S
Co700 O704 2.004 . S
Co700 O710 2.021 . S
Co700 O712 2.137 . S
Co700 O713 2.244 . S
O701 Co700 2.216 . S
O701 C708 1.247 . S
O702 Co700 2.091 . S
O702 C708 1.261 . S
C703 O712 1.247 . S
C703 O713 1.272 . S
O704 Co700 2.004 . S
O704 C709 1.259 . S
Co705 O706 2.061 . S
Co705 O711 2.052 . S
Co705 O713 2.135 . S
O706 Co705 2.061 . S
O706 C709 1.235 . S
C707 O710 1.238 . S
C707 O711 1.241 . S
C708 O701 1.247 . S
C708 O702 1.261 . S
C709 O704 1.259 . S
C709 O706 1.235 . S
O710 Co700 2.021 . S
O710 C707 1.238 . S
O711 Co705 2.052 . S
O711 C707 1.241 . S
O712 Co700 2.137 . S
O712 C703 1.247 . S
O713 Co700 2.244 . S
O713 C703 1.272 . S
O713 Co705 2.135 . S
Co714 O715 2.216 . S
Co714 O716 2.091 . S
Co714 O718 2.004 . S
Co714 O724 2.021 . S
Co714 O726 2.137 . S
Co714 O727 2.244 . S
O715 Co714 2.216 . S
O715 C722 1.247 . S
O716 Co714 2.091 . S
O716 C722 1.261 . S
C717 O726 1.247 . S
C717 O727 1.272 . S
O718 Co714 2.004 . S
O718 C723 1.259 . S
Co719 O720 2.061 . S
Co719 O725 2.052 . S
Co719 O727 2.135 . S
O720 Co719 2.061 . S
O720 C723 1.235 . S
C721 O724 1.238 . S
C721 O725 1.241 . S
C722 O715 1.247 . S
C722 O716 1.261 . S
C723 O718 1.259 . S
C723 O720 1.235 . S
O724 Co714 2.021 . S
O724 C721 1.238 . S
O725 Co719 2.052 . S
O725 C721 1.241 . S
O726 Co714 2.137 . S
O726 C717 1.247 . S
O727 Co714 2.244 . S
O727 C717 1.272 . S
O727 Co719 2.135 . S
Co728 O729 2.216 . S
Co728 O730 2.091 . S
Co728 O732 2.004 . S
Co728 O738 2.021 . S
Co728 O740 2.137 . S
Co728 O741 2.244 . S
O729 Co728 2.216 . S
O729 C736 1.247 . S
O730 Co728 2.091 . S
O730 C736 1.261 . S
C731 O740 1.247 . S
C731 O741 1.272 . S
O732 Co728 2.004 . S
O732 C737 1.259 . S
Co733 O734 2.061 . S
Co733 O739 2.052 . S
Co733 O741 2.135 . S
O734 Co733 2.061 . S
O734 C737 1.235 . S
C735 O738 1.238 . S
C735 O739 1.241 . S
C736 O729 1.247 . S
C736 O730 1.261 . S
C737 O732 1.259 . S
C737 O734 1.235 . S
O738 Co728 2.021 . S
O738 C735 1.238 . S
O739 Co733 2.052 . S
O739 C735 1.241 . S
O740 Co728 2.137 . S
O740 C731 1.247 . S
O741 Co728 2.244 . S
O741 C731 1.272 . S
O741 Co733 2.135 . S
Co742 O743 2.216 . S
Co742 O744 2.091 . S
Co742 O746 2.004 . S
Co742 O752 2.021 . S
Co742 O754 2.137 . S
Co742 O755 2.244 . S
O743 Co742 2.216 . S
O743 C750 1.247 . S
O744 Co742 2.091 . S
O744 C750 1.261 . S
C745 O754 1.247 . S
C745 O755 1.272 . S
O746 Co742 2.004 . S
O746 C751 1.259 . S
Co747 O748 2.061 . S
Co747 O753 2.052 . S
Co747 O755 2.135 . S
O748 Co747 2.061 . S
O748 C751 1.235 . S
C749 O752 1.238 . S
C749 O753 1.241 . S
C750 O743 1.247 . S
C750 O744 1.261 . S
C751 O746 1.259 . S
C751 O748 1.235 . S
O752 Co742 2.021 . S
O752 C749 1.238 . S
O753 Co747 2.052 . S
O753 C749 1.241 . S
O754 Co742 2.137 . S
O754 C745 1.247 . S
O755 Co742 2.244 . S
O755 C745 1.272 . S
O755 Co747 2.135 . S
Co756 O757 2.216 . S
Co756 O758 2.091 . S
Co756 O760 2.004 . S
Co756 O766 2.021 . S
Co756 O768 2.137 . S
Co756 O769 2.244 . S
O757 Co756 2.216 . S
O757 C764 1.247 . S
O758 Co756 2.091 . S
O758 C764 1.261 . S
C759 O768 1.247 . S
C759 O769 1.272 . S
O760 Co756 2.004 . S
O760 C765 1.259 . S
Co761 O762 2.061 . S
Co761 O767 2.052 . S
Co761 O769 2.135 . S
O762 Co761 2.061 . S
O762 C765 1.235 . S
C763 O766 1.238 . S
C763 O767 1.241 . S
C764 O757 1.247 . S
C764 O758 1.261 . S
C765 O760 1.259 . S
C765 O762 1.235 . S
O766 Co756 2.021 . S
O766 C763 1.238 . S
O767 Co761 2.052 . S
O767 C763 1.241 . S
O768 Co756 2.137 . S
O768 C759 1.247 . S
O769 Co756 2.244 . S
O769 C759 1.272 . S
O769 Co761 2.135 . S
Co770 O771 2.216 . S
Co770 O772 2.091 . S
Co770 O774 2.004 . S
Co770 O780 2.021 . S
Co770 O782 2.137 . S
Co770 O783 2.244 . S
O771 Co770 2.216 . S
O771 C778 1.247 . S
O772 Co770 2.091 . S
O772 C778 1.261 . S
C773 O782 1.247 . S
C773 O783 1.272 . S
O774 Co770 2.004 . S
O774 C779 1.259 . S
Co775 O776 2.061 . S
Co775 O781 2.052 . S
Co775 O783 2.135 . S
O776 Co775 2.061 . S
O776 C779 1.235 . S
C777 O780 1.238 . S
C777 O781 1.241 . S
C778 O771 1.247 . S
C778 O772 1.261 . S
C779 O774 1.259 . S
C779 O776 1.235 . S
O780 Co770 2.021 . S
O780 C777 1.238 . S
O781 Co775 2.052 . S
O781 C777 1.241 . S
O782 Co770 2.137 . S
O782 C773 1.247 . S
O783 Co770 2.244 . S
O783 C773 1.272 . S
O783 Co775 2.135 . S
Co784 O785 2.216 . S
Co784 O786 2.091 . S
Co784 O788 2.004 . S
Co784 O794 2.021 . S
Co784 O796 2.137 . S
Co784 O797 2.244 . S
O785 Co784 2.216 . S
O785 C792 1.247 . S
O786 Co784 2.091 . S
O786 C792 1.261 . S
C787 O796 1.247 . S
C787 O797 1.272 . S
O788 Co784 2.004 . S
O788 C793 1.259 . S
Co789 O790 2.061 . S
Co789 O795 2.052 . S
Co789 O797 2.135 . S
O790 Co789 2.061 . S
O790 C793 1.235 . S
C791 O794 1.238 . S
C791 O795 1.241 . S
C792 O785 1.247 . S
C792 O786 1.261 . S
C793 O788 1.259 . S
C793 O790 1.235 . S
O794 Co784 2.021 . S
O794 C791 1.238 . S
O795 Co789 2.052 . S
O795 C791 1.241 . S
O796 Co784 2.137 . S
O796 C787 1.247 . S
O797 Co784 2.244 . S
O797 C787 1.272 . S
O797 Co789 2.135 . S
Co798 O799 2.216 . S
Co798 O800 2.091 . S
Co798 O802 2.004 . S
Co798 O808 2.021 . S
Co798 O810 2.137 . S
Co798 O811 2.244 . S
O799 Co798 2.216 . S
O799 C806 1.247 . S
O800 Co798 2.091 . S
O800 C806 1.261 . S
C801 O810 1.247 . S
C801 O811 1.272 . S
O802 Co798 2.004 . S
O802 C807 1.259 . S
Co803 O804 2.061 . S
Co803 O809 2.052 . S
Co803 O811 2.135 . S
O804 Co803 2.061 . S
O804 C807 1.235 . S
C805 O808 1.238 . S
C805 O809 1.241 . S
C806 O799 1.247 . S
C806 O800 1.261 . S
C807 O802 1.259 . S
C807 O804 1.235 . S
O808 Co798 2.021 . S
O808 C805 1.238 . S
O809 Co803 2.052 . S
O809 C805 1.241 . S
O810 Co798 2.137 . S
O810 C801 1.247 . S
O811 Co798 2.244 . S
O811 C801 1.272 . S
O811 Co803 2.135 . S
Co812 O813 2.216 . S
Co812 O814 2.091 . S
Co812 O816 2.004 . S
Co812 O822 2.021 . S
Co812 O824 2.137 . S
Co812 O825 2.244 . S
O813 Co812 2.216 . S
O813 C820 1.247 . S
O814 Co812 2.091 . S
O814 C820 1.261 . S
C815 O824 1.247 . S
C815 O825 1.272 . S
O816 Co812 2.004 . S
O816 C821 1.259 . S
Co817 O818 2.061 . S
Co817 O823 2.052 . S
Co817 O825 2.135 . S
O818 Co817 2.061 . S
O818 C821 1.235 . S
C819 O822 1.238 . S
C819 O823 1.241 . S
C820 O813 1.247 . S
C820 O814 1.261 . S
C821 O816 1.259 . S
C821 O818 1.235 . S
O822 Co812 2.021 . S
O822 C819 1.238 . S
O823 Co817 2.052 . S
O823 C819 1.241 . S
O824 Co812 2.137 . S
O824 C815 1.247 . S
O825 Co812 2.244 . S
O825 C815 1.272 . S
O825 Co817 2.135 . S
Co826 O827 2.216 . S
Co826 O828 2.091 . S
Co826 O830 2.004 . S
Co826 O836 2.021 . S
Co826 O838 2.137 . S
Co826 O839 2.244 . S
O827 Co826 2.216 . S
O827 C834 1.247 . S
O828 Co826 2.091 . S
O828 C834 1.261 . S
C829 O838 1.247 . S
C829 O839 1.272 . S
O830 Co826 2.004 . S
O830 C835 1.259 . S
Co831 O832 2.061 . S
Co831 O837 2.052 . S
Co831 O839 2.135 . S
O832 Co831 2.061 . S
O832 C835 1.235 . S
C833 O836 1.238 . S
C833 O837 1.241 . S
C834 O827 1.247 . S
C834 O828 1.261 . S
C835 O830 1.259 . S
C835 O832 1.235 . S
O836 Co826 2.021 . S
O836 C833 1.238 . S
O837 Co831 2.052 . S
O837 C833 1.241 . S
O838 Co826 2.137 . S
O838 C829 1.247 . S
O839 Co826 2.244 . S
O839 C829 1.272 . S
O839 Co831 2.135 . S
Co840 O841 2.216 . S
Co840 O842 2.091 . S
Co840 O844 2.004 . S
Co840 O850 2.021 . S
Co840 O852 2.137 . S
Co840 O853 2.244 . S
O841 Co840 2.216 . S
O841 C848 1.247 . S
O842 Co840 2.091 . S
O842 C848 1.261 . S
C843 O852 1.247 . S
C843 O853 1.272 . S
O844 Co840 2.004 . S
O844 C849 1.259 . S
Co845 O846 2.061 . S
Co845 O851 2.052 . S
Co845 O853 2.135 . S
O846 Co845 2.061 . S
O846 C849 1.235 . S
C847 O850 1.238 . S
C847 O851 1.241 . S
C848 O841 1.247 . S
C848 O842 1.261 . S
C849 O844 1.259 . S
C849 O846 1.235 . S
O850 Co840 2.021 . S
O850 C847 1.238 . S
O851 Co845 2.052 . S
O851 C847 1.241 . S
O852 Co840 2.137 . S
O852 C843 1.247 . S
O853 Co840 2.244 . S
O853 C843 1.272 . S
O853 Co845 2.135 . S
Co854 O855 2.216 . S
Co854 O856 2.091 . S
Co854 O858 2.004 . S
Co854 O864 2.021 . S
Co854 O866 2.137 . S
Co854 O867 2.244 . S
O855 Co854 2.216 . S
O855 C862 1.247 . S
O856 Co854 2.091 . S
O856 C862 1.261 . S
C857 O866 1.247 . S
C857 O867 1.272 . S
O858 Co854 2.004 . S
O858 C863 1.259 . S
Co859 O860 2.061 . S
Co859 O865 2.052 . S
Co859 O867 2.135 . S
O860 Co859 2.061 . S
O860 C863 1.235 . S
C861 O864 1.238 . S
C861 O865 1.241 . S
C862 O855 1.247 . S
C862 O856 1.261 . S
C863 O858 1.259 . S
C863 O860 1.235 . S
O864 Co854 2.021 . S
O864 C861 1.238 . S
O865 Co859 2.052 . S
O865 C861 1.241 . S
O866 Co854 2.137 . S
O866 C857 1.247 . S
O867 Co854 2.244 . S
O867 C857 1.272 . S
O867 Co859 2.135 . S
Co868 O869 2.216 . S
Co868 O870 2.091 . S
Co868 O872 2.004 . S
Co868 O878 2.021 . S
Co868 O880 2.137 . S
Co868 O881 2.244 . S
O869 Co868 2.216 . S
O869 C876 1.247 . S
O870 Co868 2.091 . S
O870 C876 1.261 . S
C871 O880 1.247 . S
C871 O881 1.272 . S
O872 Co868 2.004 . S
O872 C877 1.259 . S
Co873 O874 2.061 . S
Co873 O879 2.052 . S
Co873 O881 2.135 . S
O874 Co873 2.061 . S
O874 C877 1.235 . S
C875 O878 1.238 . S
C875 O879 1.241 . S
C876 O869 1.247 . S
C876 O870 1.261 . S
C877 O872 1.259 . S
C877 O874 1.235 . S
O878 Co868 2.021 . S
O878 C875 1.238 . S
O879 Co873 2.052 . S
O879 C875 1.241 . S
O880 Co868 2.137 . S
O880 C871 1.247 . S
O881 Co868 2.244 . S
O881 C871 1.272 . S
O881 Co873 2.135 . S
Co882 O883 2.216 . S
Co882 O884 2.091 . S
Co882 O886 2.004 . S
Co882 O892 2.021 . S
Co882 O894 2.137 . S
Co882 O895 2.244 . S
O883 Co882 2.216 . S
O883 C890 1.247 . S
O884 Co882 2.091 . S
O884 C890 1.261 . S
C885 O894 1.247 . S
C885 O895 1.272 . S
O886 Co882 2.004 . S
O886 C891 1.259 . S
Co887 O888 2.061 . S
Co887 O893 2.052 . S
Co887 O895 2.135 . S
O888 Co887 2.061 . S
O888 C891 1.235 . S
C889 O892 1.238 . S
C889 O893 1.241 . S
C890 O883 1.247 . S
C890 O884 1.261 . S
C891 O886 1.259 . S
C891 O888 1.235 . S
O892 Co882 2.021 . S
O892 C889 1.238 . S
O893 Co887 2.052 . S
O893 C889 1.241 . S
O894 Co882 2.137 . S
O894 C885 1.247 . S
O895 Co882 2.244 . S
O895 C885 1.272 . S
O895 Co887 2.135 . S
Co896 O897 2.216 . S
Co896 O898 2.091 . S
Co896 O900 2.004 . S
Co896 O906 2.021 . S
Co896 O908 2.137 . S
Co896 O909 2.244 . S
O897 Co896 2.216 . S
O897 C904 1.247 . S
O898 Co896 2.091 . S
O898 C904 1.261 . S
C899 O908 1.247 . S
C899 O909 1.272 . S
O900 Co896 2.004 . S
O900 C905 1.259 . S
Co901 O902 2.061 . S
Co901 O907 2.052 . S
Co901 O909 2.135 . S
O902 Co901 2.061 . S
O902 C905 1.235 . S
C903 O906 1.238 . S
C903 O907 1.241 . S
C904 O897 1.247 . S
C904 O898 1.261 . S
C905 O900 1.259 . S
C905 O902 1.235 . S
O906 Co896 2.021 . S
O906 C903 1.238 . S
O907 Co901 2.052 . S
O907 C903 1.241 . S
O908 Co896 2.137 . S
O908 C899 1.247 . S
O909 Co896 2.244 . S
O909 C899 1.272 . S
O909 Co901 2.135 . S
Co910 O911 2.216 . S
Co910 O912 2.091 . S
Co910 O914 2.004 . S
Co910 O920 2.021 . S
Co910 O922 2.137 . S
Co910 O923 2.244 . S
O911 Co910 2.216 . S
O911 C918 1.247 . S
O912 Co910 2.091 . S
O912 C918 1.261 . S
C913 O922 1.247 . S
C913 O923 1.272 . S
O914 Co910 2.004 . S
O914 C919 1.259 . S
Co915 O916 2.061 . S
Co915 O921 2.052 . S
Co915 O923 2.135 . S
O916 Co915 2.061 . S
O916 C919 1.235 . S
C917 O920 1.238 . S
C917 O921 1.241 . S
C918 O911 1.247 . S
C918 O912 1.261 . S
C919 O914 1.259 . S
C919 O916 1.235 . S
O920 Co910 2.021 . S
O920 C917 1.238 . S
O921 Co915 2.052 . S
O921 C917 1.241 . S
O922 Co910 2.137 . S
O922 C913 1.247 . S
O923 Co910 2.244 . S
O923 C913 1.272 . S
O923 Co915 2.135 . S
Co924 O925 2.216 . S
Co924 O926 2.091 . S
Co924 O928 2.004 . S
Co924 O934 2.021 . S
Co924 O936 2.137 . S
Co924 O937 2.244 . S
O925 Co924 2.216 . S
O925 C932 1.247 . S
O926 Co924 2.091 . S
O926 C932 1.261 . S
C927 O936 1.247 . S
C927 O937 1.272 . S
O928 Co924 2.004 . S
O928 C933 1.259 . S
Co929 O930 2.061 . S
Co929 O935 2.052 . S
Co929 O937 2.135 . S
O930 Co929 2.061 . S
O930 C933 1.235 . S
C931 O934 1.238 . S
C931 O935 1.241 . S
C932 O925 1.247 . S
C932 O926 1.261 . S
C933 O928 1.259 . S
C933 O930 1.235 . S
O934 Co924 2.021 . S
O934 C931 1.238 . S
O935 Co929 2.052 . S
O935 C931 1.241 . S
O936 Co924 2.137 . S
O936 C927 1.247 . S
O937 Co924 2.244 . S
O937 C927 1.272 . S
O937 Co929 2.135 . S
Co938 O939 2.216 . S
Co938 O940 2.091 . S
Co938 O942 2.004 . S
Co938 O948 2.021 . S
Co938 O950 2.137 . S
Co938 O951 2.244 . S
O939 Co938 2.216 . S
O939 C946 1.247 . S
O940 Co938 2.091 . S
O940 C946 1.261 . S
C941 O950 1.247 . S
C941 O951 1.272 . S
O942 Co938 2.004 . S
O942 C947 1.259 . S
Co943 O944 2.061 . S
Co943 O949 2.052 . S
Co943 O951 2.135 . S
O944 Co943 2.061 . S
O944 C947 1.235 . S
C945 O948 1.238 . S
C945 O949 1.241 . S
C946 O939 1.247 . S
C946 O940 1.261 . S
C947 O942 1.259 . S
C947 O944 1.235 . S
O948 Co938 2.021 . S
O948 C945 1.238 . S
O949 Co943 2.052 . S
O949 C945 1.241 . S
O950 Co938 2.137 . S
O950 C941 1.247 . S
O951 Co938 2.244 . S
O951 C941 1.272 . S
O951 Co943 2.135 . S
Co952 O953 2.216 . S
Co952 O954 2.091 . S
Co952 O956 2.004 . S
Co952 O962 2.021 . S
Co952 O964 2.137 . S
Co952 O965 2.244 . S
O953 Co952 2.216 . S
O953 C960 1.247 . S
O954 Co952 2.091 . S
O954 C960 1.261 . S
C955 O964 1.247 . S
C955 O965 1.272 . S
O956 Co952 2.004 . S
O956 C961 1.259 . S
Co957 O958 2.061 . S
Co957 O963 2.052 . S
Co957 O965 2.135 . S
O958 Co957 2.061 . S
O958 C961 1.235 . S
C959 O962 1.238 . S
C959 O963 1.241 . S
C960 O953 1.247 . S
C960 O954 1.261 . S
C961 O956 1.259 . S
C961 O958 1.235 . S
O962 Co952 2.021 . S
O962 C959 1.238 . S
O963 Co957 2.052 . S
O963 C959 1.241 . S
O964 Co952 2.137 . S
O964 C955 1.247 . S
O965 Co952 2.244 . S
O965 C955 1.272 . S
O965 Co957 2.135 . S
Co966 O967 2.216 . S
Co966 O968 2.091 . S
Co966 O970 2.004 . S
Co966 O976 2.021 . S
Co966 O978 2.137 . S
Co966 O979 2.244 . S
O967 Co966 2.216 . S
O967 C974 1.247 . S
O968 Co966 2.091 . S
O968 C974 1.261 . S
C969 O978 1.247 . S
C969 O979 1.272 . S
O970 Co966 2.004 . S
O970 C975 1.259 . S
Co971 O972 2.061 . S
Co971 O977 2.052 . S
Co971 O979 2.135 . S
O972 Co971 2.061 . S
O972 C975 1.235 . S
C973 O976 1.238 . S
C973 O977 1.241 . S
C974 O967 1.247 . S
C974 O968 1.261 . S
C975 O970 1.259 . S
C975 O972 1.235 . S
O976 Co966 2.021 . S
O976 C973 1.238 . S
O977 Co971 2.052 . S
O977 C973 1.241 . S
O978 Co966 2.137 . S
O978 C969 1.247 . S
O979 Co966 2.244 . S
O979 C969 1.272 . S
O979 Co971 2.135 . S
Co980 O981 2.216 . S
Co980 O982 2.091 . S
Co980 O984 2.004 . S
Co980 O990 2.021 . S
Co980 O992 2.137 . S
Co980 O993 2.244 . S
O981 Co980 2.216 . S
O981 C988 1.247 . S
O982 Co980 2.091 . S
O982 C988 1.261 . S
C983 O992 1.247 . S
C983 O993 1.272 . S
O984 Co980 2.004 . S
O984 C989 1.259 . S
Co985 O986 2.061 . S
Co985 O991 2.052 . S
Co985 O993 2.135 . S
O986 Co985 2.061 . S
O986 C989 1.235 . S
C987 O990 1.238 . S
C987 O991 1.241 . S
C988 O981 1.247 . S
C988 O982 1.261 . S
C989 O984 1.259 . S
C989 O986 1.235 . S
O990 Co980 2.021 . S
O990 C987 1.238 . S
O991 Co985 2.052 . S
O991 C987 1.241 . S
O992 Co980 2.137 . S
O992 C983 1.247 . S
O993 Co980 2.244 . S
O993 C983 1.272 . S
O993 Co985 2.135 . S
Co994 O995 2.216 . S
Co994 O996 2.091 . S
Co994 O998 2.004 . S
Co994 O1004 2.021 . S
Co994 O1006 2.137 . S
Co994 O1007 2.244 . S
O995 Co994 2.216 . S
O995 C1002 1.247 . S
O996 Co994 2.091 . S
O996 C1002 1.261 . S
C997 O1006 1.247 . S
C997 O1007 1.272 . S
O998 Co994 2.004 . S
O998 C1003 1.259 . S
Co999 O1000 2.061 . S
Co999 O1005 2.052 . S
Co999 O1007 2.135 . S
O1000 Co999 2.061 . S
O1000 C1003 1.235 . S
C1001 O1004 1.238 . S
C1001 O1005 1.241 . S
C1002 O995 1.247 . S
C1002 O996 1.261 . S
C1003 O998 1.259 . S
C1003 O1000 1.235 . S
O1004 Co994 2.021 . S
O1004 C1001 1.238 . S
O1005 Co999 2.052 . S
O1005 C1001 1.241 . S
O1006 Co994 2.137 . S
O1006 C997 1.247 . S
O1007 Co994 2.244 . S
O1007 C997 1.272 . S
O1007 Co999 2.135 . S
Co1008 O1009 2.216 . S
Co1008 O1010 2.091 . S
Co1008 O1012 2.004 . S
Co1008 O1018 2.021 . S
Co1008 O1020 2.137 . S
Co1008 O1021 2.244 . S
O1009 Co1008 2.216 . S
O1009 C1016 1.247 . S
O1010 Co1008 2.091 . S
O1010 C1016 1.261 . S
C1011 O1020 1.247 . S
C1011 O1021 1.272 . S
O1012 Co1008 2.004 . S
O1012 C1017 1.259 . S
Co1013 O1014 2.061 . S
Co1013 O1019 2.052 . S
Co1013 O1021 2.135 . S
O1014 Co1013 2.061 . S
O1014 C1017 1.235 . S
C1015 O1018 1.238 . S
C1015 O1019 1.241 . S
C1016 O1009 1.247 . S
C1016 O1010 1.261 . S
C1017 O1012 1.259 . S
C1017 O1014 1.235 . S
O1018 Co1008 2.021 . S
O1018 C1015 1.238 . S
O1019 Co1013 2.052 . S
O1019 C1015 1.241 . S
O1020 Co1008 2.137 . S
O1020 C1011 1.247 . S
O1021 Co1008 2.244 . S
O1021 C1011 1.272 . S
O1021 Co1013 2.135 . S
Co1022 O1023 2.216 . S
Co1022 O1024 2.091 . S
Co1022 O1026 2.004 . S
Co1022 O1032 2.021 . S
Co1022 O1034 2.137 . S
Co1022 O1035 2.244 . S
O1023 Co1022 2.216 . S
O1023 C1030 1.247 . S
O1024 Co1022 2.091 . S
O1024 C1030 1.261 . S
C1025 O1034 1.247 . S
C1025 O1035 1.272 . S
O1026 Co1022 2.004 . S
O1026 C1031 1.259 . S
Co1027 O1028 2.061 . S
Co1027 O1033 2.052 . S
Co1027 O1035 2.135 . S
O1028 Co1027 2.061 . S
O1028 C1031 1.235 . S
C1029 O1032 1.238 . S
C1029 O1033 1.241 . S
C1030 O1023 1.247 . S
C1030 O1024 1.261 . S
C1031 O1026 1.259 . S
C1031 O1028 1.235 . S
O1032 Co1022 2.021 . S
O1032 C1029 1.238 . S
O1033 Co1027 2.052 . S
O1033 C1029 1.241 . S
O1034 Co1022 2.137 . S
O1034 C1025 1.247 . S
O1035 Co1022 2.244 . S
O1035 C1025 1.272 . S
O1035 Co1027 2.135 . S
Co1036 O1037 2.216 . S
Co1036 O1038 2.091 . S
Co1036 O1040 2.004 . S
Co1036 O1046 2.021 . S
Co1036 O1048 2.137 . S
Co1036 O1049 2.244 . S
O1037 Co1036 2.216 . S
O1037 C1044 1.247 . S
O1038 Co1036 2.091 . S
O1038 C1044 1.261 . S
C1039 O1048 1.247 . S
C1039 O1049 1.272 . S
O1040 Co1036 2.004 . S
O1040 C1045 1.259 . S
Co1041 O1042 2.061 . S
Co1041 O1047 2.052 . S
Co1041 O1049 2.135 . S
O1042 Co1041 2.061 . S
O1042 C1045 1.235 . S
C1043 O1046 1.238 . S
C1043 O1047 1.241 . S
C1044 O1037 1.247 . S
C1044 O1038 1.261 . S
C1045 O1040 1.259 . S
C1045 O1042 1.235 . S
O1046 Co1036 2.021 . S
O1046 C1043 1.238 . S
O1047 Co1041 2.052 . S
O1047 C1043 1.241 . S
O1048 Co1036 2.137 . S
O1048 C1039 1.247 . S
O1049 Co1036 2.244 . S
O1049 C1039 1.272 . S
O1049 Co1041 2.135 . S
Co1050 O1051 2.216 . S
Co1050 O1052 2.091 . S
Co1050 O1054 2.004 . S
Co1050 O1060 2.021 . S
Co1050 O1062 2.137 . S
Co1050 O1063 2.244 . S
O1051 Co1050 2.216 . S
O1051 C1058 1.247 . S
O1052 Co1050 2.091 . S
O1052 C1058 1.261 . S
C1053 O1062 1.247 . S
C1053 O1063 1.272 . S
O1054 Co1050 2.004 . S
O1054 C1059 1.259 . S
Co1055 O1056 2.061 . S
Co1055 O1061 2.052 . S
Co1055 O1063 2.135 . S
O1056 Co1055 2.061 . S
O1056 C1059 1.235 . S
C1057 O1060 1.238 . S
C1057 O1061 1.241 . S
C1058 O1051 1.247 . S
C1058 O1052 1.261 . S
C1059 O1054 1.259 . S
C1059 O1056 1.235 . S
O1060 Co1050 2.021 . S
O1060 C1057 1.238 . S
O1061 Co1055 2.052 . S
O1061 C1057 1.241 . S
O1062 Co1050 2.137 . S
O1062 C1053 1.247 . S
O1063 Co1050 2.244 . S
O1063 C1053 1.272 . S
O1063 Co1055 2.135 . S
Co1064 O1065 2.216 . S
Co1064 O1066 2.091 . S
Co1064 O1068 2.004 . S
Co1064 O1074 2.021 . S
Co1064 O1076 2.137 . S
Co1064 O1077 2.244 . S
O1065 Co1064 2.216 . S
O1065 C1072 1.247 . S
O1066 Co1064 2.091 . S
O1066 C1072 1.261 . S
C1067 O1076 1.247 . S
C1067 O1077 1.272 . S
O1068 Co1064 2.004 . S
O1068 C1073 1.259 . S
Co1069 O1070 2.061 . S
Co1069 O1075 2.052 . S
Co1069 O1077 2.135 . S
O1070 Co1069 2.061 . S
O1070 C1073 1.235 . S
C1071 O1074 1.238 . S
C1071 O1075 1.241 . S
C1072 O1065 1.247 . S
C1072 O1066 1.261 . S
C1073 O1068 1.259 . S
C1073 O1070 1.235 . S
O1074 Co1064 2.021 . S
O1074 C1071 1.238 . S
O1075 Co1069 2.052 . S
O1075 C1071 1.241 . S
O1076 Co1064 2.137 . S
O1076 C1067 1.247 . S
O1077 Co1064 2.244 . S
O1077 C1067 1.272 . S
O1077 Co1069 2.135 . S
Co1078 O1079 2.216 . S
Co1078 O1080 2.091 . S
Co1078 O1082 2.004 . S
Co1078 O1088 2.021 . S
Co1078 O1090 2.137 . S
Co1078 O1091 2.244 . S
O1079 Co1078 2.216 . S
O1079 C1086 1.247 . S
O1080 Co1078 2.091 . S
O1080 C1086 1.261 . S
C1081 O1090 1.247 . S
C1081 O1091 1.272 . S
O1082 Co1078 2.004 . S
O1082 C1087 1.259 . S
Co1083 O1084 2.061 . S
Co1083 O1089 2.052 . S
Co1083 O1091 2.135 . S
O1084 Co1083 2.061 . S
O1084 C1087 1.235 . S
C1085 O1088 1.238 . S
C1085 O1089 1.241 . S
C1086 O1079 1.247 . S
C1086 O1080 1.261 . S
C1087 O1082 1.259 . S
C1087 O1084 1.235 . S
O1088 Co1078 2.021 . S
O1088 C1085 1.238 . S
O1089 Co1083 2.052 . S
O1089 C1085 1.241 . S
O1090 Co1078 2.137 . S
O1090 C1081 1.247 . S
O1091 Co1078 2.244 . S
O1091 C1081 1.272 . S
O1091 Co1083 2.135 . S
Co1092 O1093 2.216 . S
Co1092 O1094 2.091 . S
Co1092 O1096 2.004 . S
Co1092 O1102 2.021 . S
Co1092 O1104 2.137 . S
Co1092 O1105 2.244 . S
O1093 Co1092 2.216 . S
O1093 C1100 1.247 . S
O1094 Co1092 2.091 . S
O1094 C1100 1.261 . S
C1095 O1104 1.247 . S
C1095 O1105 1.272 . S
O1096 Co1092 2.004 . S
O1096 C1101 1.259 . S
Co1097 O1098 2.061 . S
Co1097 O1103 2.052 . S
Co1097 O1105 2.135 . S
O1098 Co1097 2.061 . S
O1098 C1101 1.235 . S
C1099 O1102 1.238 . S
C1099 O1103 1.241 . S
C1100 O1093 1.247 . S
C1100 O1094 1.261 . S
C1101 O1096 1.259 . S
C1101 O1098 1.235 . S
O1102 Co1092 2.021 . S
O1102 C1099 1.238 . S
O1103 Co1097 2.052 . S
O1103 C1099 1.241 . S
O1104 Co1092 2.137 . S
O1104 C1095 1.247 . S
O1105 Co1092 2.244 . S
O1105 C1095 1.272 . S
O1105 Co1097 2.135 . S
Co1106 O1107 2.216 . S
Co1106 O1108 2.091 . S
Co1106 O1110 2.004 . S
Co1106 O1116 2.021 . S
Co1106 O1118 2.137 . S
Co1106 O1119 2.244 . S
O1107 Co1106 2.216 . S
O1107 C1114 1.247 . S
O1108 Co1106 2.091 . S
O1108 C1114 1.261 . S
C1109 O1118 1.247 . S
C1109 O1119 1.272 . S
O1110 Co1106 2.004 . S
O1110 C1115 1.259 . S
Co1111 O1112 2.061 . S
Co1111 O1117 2.052 . S
Co1111 O1119 2.135 . S
O1112 Co1111 2.061 . S
O1112 C1115 1.235 . S
C1113 O1116 1.238 . S
C1113 O1117 1.241 . S
C1114 O1107 1.247 . S
C1114 O1108 1.261 . S
C1115 O1110 1.259 . S
C1115 O1112 1.235 . S
O1116 Co1106 2.021 . S
O1116 C1113 1.238 . S
O1117 Co1111 2.052 . S
O1117 C1113 1.241 . S
O1118 Co1106 2.137 . S
O1118 C1109 1.247 . S
O1119 Co1106 2.244 . S
O1119 C1109 1.272 . S
O1119 Co1111 2.135 . S
Co1120 O1121 2.216 . S
Co1120 O1122 2.091 . S
Co1120 O1124 2.004 . S
Co1120 O1130 2.021 . S
Co1120 O1132 2.137 . S
Co1120 O1133 2.244 . S
O1121 Co1120 2.216 . S
O1121 C1128 1.247 . S
O1122 Co1120 2.091 . S
O1122 C1128 1.261 . S
C1123 O1132 1.247 . S
C1123 O1133 1.272 . S
O1124 Co1120 2.004 . S
O1124 C1129 1.259 . S
Co1125 O1126 2.061 . S
Co1125 O1131 2.052 . S
Co1125 O1133 2.135 . S
O1126 Co1125 2.061 . S
O1126 C1129 1.235 . S
C1127 O1130 1.238 . S
C1127 O1131 1.241 . S
C1128 O1121 1.247 . S
C1128 O1122 1.261 . S
C1129 O1124 1.259 . S
C1129 O1126 1.235 . S
O1130 Co1120 2.021 . S
O1130 C1127 1.238 . S
O1131 Co1125 2.052 . S
O1131 C1127 1.241 . S
O1132 Co1120 2.137 . S
O1132 C1123 1.247 . S
O1133 Co1120 2.244 . S
O1133 C1123 1.272 . S
O1133 Co1125 2.135 . S
Co1134 O1135 2.216 . S
Co1134 O1136 2.091 . S
Co1134 O1138 2.004 . S
Co1134 O1144 2.021 . S
Co1134 O1146 2.137 . S
Co1134 O1147 2.244 . S
O1135 Co1134 2.216 . S
O1135 C1142 1.247 . S
O1136 Co1134 2.091 . S
O1136 C1142 1.261 . S
C1137 O1146 1.247 . S
C1137 O1147 1.272 . S
O1138 Co1134 2.004 . S
O1138 C1143 1.259 . S
Co1139 O1140 2.061 . S
Co1139 O1145 2.052 . S
Co1139 O1147 2.135 . S
O1140 Co1139 2.061 . S
O1140 C1143 1.235 . S
C1141 O1144 1.238 . S
C1141 O1145 1.241 . S
C1142 O1135 1.247 . S
C1142 O1136 1.261 . S
C1143 O1138 1.259 . S
C1143 O1140 1.235 . S
O1144 Co1134 2.021 . S
O1144 C1141 1.238 . S
O1145 Co1139 2.052 . S
O1145 C1141 1.241 . S
O1146 Co1134 2.137 . S
O1146 C1137 1.247 . S
O1147 Co1134 2.244 . S
O1147 C1137 1.272 . S
O1147 Co1139 2.135 . S
Co1148 O1149 2.216 . S
Co1148 O1150 2.091 . S
Co1148 O1152 2.004 . S
Co1148 O1158 2.021 . S
Co1148 O1160 2.137 . S
Co1148 O1161 2.244 . S
O1149 Co1148 2.216 . S
O1149 C1156 1.247 . S
O1150 Co1148 2.091 . S
O1150 C1156 1.261 . S
C1151 O1160 1.247 . S
C1151 O1161 1.272 . S
O1152 Co1148 2.004 . S
O1152 C1157 1.259 . S
Co1153 O1154 2.061 . S
Co1153 O1159 2.052 . S
Co1153 O1161 2.135 . S
O1154 Co1153 2.061 . S
O1154 C1157 1.235 . S
C1155 O1158 1.238 . S
C1155 O1159 1.241 . S
C1156 O1149 1.247 . S
C1156 O1150 1.261 . S
C1157 O1152 1.259 . S
C1157 O1154 1.235 . S
O1158 Co1148 2.021 . S
O1158 C1155 1.238 . S
O1159 Co1153 2.052 . S
O1159 C1155 1.241 . S
O1160 Co1148 2.137 . S
O1160 C1151 1.247 . S
O1161 Co1148 2.244 . S
O1161 C1151 1.272 . S
O1161 Co1153 2.135 . S
Co1162 O1163 2.216 . S
Co1162 O1164 2.091 . S
Co1162 O1166 2.004 . S
Co1162 O1172 2.021 . S
Co1162 O1174 2.137 . S
Co1162 O1175 2.244 . S
O1163 Co1162 2.216 . S
O1163 C1170 1.247 . S
O1164 Co1162 2.091 . S
O1164 C1170 1.261 . S
C1165 O1174 1.247 . S
C1165 O1175 1.272 . S
O1166 Co1162 2.004 . S
O1166 C1171 1.259 . S
Co1167 O1168 2.061 . S
Co1167 O1173 2.052 . S
Co1167 O1175 2.135 . S
O1168 Co1167 2.061 . S
O1168 C1171 1.235 . S
C1169 O1172 1.238 . S
C1169 O1173 1.241 . S
C1170 O1163 1.247 . S
C1170 O1164 1.261 . S
C1171 O1166 1.259 . S
C1171 O1168 1.235 . S
O1172 Co1162 2.021 . S
O1172 C1169 1.238 . S
O1173 Co1167 2.052 . S
O1173 C1169 1.241 . S
O1174 Co1162 2.137 . S
O1174 C1165 1.247 . S
O1175 Co1162 2.244 . S
O1175 C1165 1.272 . S
O1175 Co1167 2.135 . S
Co1176 O1177 2.216 . S
Co1176 O1178 2.091 . S
Co1176 O1180 2.004 . S
Co1176 O1186 2.021 . S
Co1176 O1188 2.137 . S
Co1176 O1189 2.244 . S
O1177 Co1176 2.216 . S
O1177 C1184 1.247 . S
O1178 Co1176 2.091 . S
O1178 C1184 1.261 . S
C1179 O1188 1.247 . S
C1179 O1189 1.272 . S
O1180 Co1176 2.004 . S
O1180 C1185 1.259 . S
Co1181 O1182 2.061 . S
Co1181 O1187 2.052 . S
Co1181 O1189 2.135 . S
O1182 Co1181 2.061 . S
O1182 C1185 1.235 . S
C1183 O1186 1.238 . S
C1183 O1187 1.241 . S
C1184 O1177 1.247 . S
C1184 O1178 1.261 . S
C1185 O1180 1.259 . S
C1185 O1182 1.235 . S
O1186 Co1176 2.021 . S
O1186 C1183 1.238 . S
O1187 Co1181 2.052 . S
O1187 C1183 1.241 . S
O1188 Co1176 2.137 . S
O1188 C1179 1.247 . S
O1189 Co1176 2.244 . S
O1189 C1179 1.272 . S
O1189 Co1181 2.135 . S
Co1190 O1191 2.216 . S
Co1190 O1192 2.091 . S
Co1190 O1194 2.004 . S
Co1190 O1200 2.021 . S
Co1190 O1202 2.137 . S
Co1190 O1203 2.244 . S
O1191 Co1190 2.216 . S
O1191 C1198 1.247 . S
O1192 Co1190 2.091 . S
O1192 C1198 1.261 . S
C1193 O1202 1.247 . S
C1193 O1203 1.272 . S
O1194 Co1190 2.004 . S
O1194 C1199 1.259 . S
Co1195 O1196 2.061 . S
Co1195 O1201 2.052 . S
Co1195 O1203 2.135 . S
O1196 Co1195 2.061 . S
O1196 C1199 1.235 . S
C1197 O1200 1.238 . S
C1197 O1201 1.241 . S
C1198 O1191 1.247 . S
C1198 O1192 1.261 . S
C1199 O1194 1.259 . S
C1199 O1196 1.235 . S
O1200 Co1190 2.021 . S
O1200 C1197 1.238 . S
O1201 Co1195 2.052 . S
O1201 C1197 1.241 . S
O1202 Co1190 2.137 . S
O1202 C1193 1.247 . S
O1203 Co1190 2.244 . S
O1203 C1193 1.272 . S
O1203 Co1195 2.135 . S
Co1204 O1205 2.216 . S
Co1204 O1206 2.091 . S
Co1204 O1208 2.004 . S
Co1204 O1214 2.021 . S
Co1204 O1216 2.137 . S
Co1204 O1217 2.244 . S
O1205 Co1204 2.216 . S
O1205 C1212 1.247 . S
O1206 Co1204 2.091 . S
O1206 C1212 1.261 . S
C1207 O1216 1.247 . S
C1207 O1217 1.272 . S
O1208 Co1204 2.004 . S
O1208 C1213 1.259 . S
Co1209 O1210 2.061 . S
Co1209 O1215 2.052 . S
Co1209 O1217 2.135 . S
O1210 Co1209 2.061 . S
O1210 C1213 1.235 . S
C1211 O1214 1.238 . S
C1211 O1215 1.241 . S
C1212 O1205 1.247 . S
C1212 O1206 1.261 . S
C1213 O1208 1.259 . S
C1213 O1210 1.235 . S
O1214 Co1204 2.021 . S
O1214 C1211 1.238 . S
O1215 Co1209 2.052 . S
O1215 C1211 1.241 . S
O1216 Co1204 2.137 . S
O1216 C1207 1.247 . S
O1217 Co1204 2.244 . S
O1217 C1207 1.272 . S
O1217 Co1209 2.135 . S
Co1218 O1219 2.216 . S
Co1218 O1220 2.091 . S
Co1218 O1222 2.004 . S
Co1218 O1228 2.021 . S
Co1218 O1230 2.137 . S
Co1218 O1231 2.244 . S
O1219 Co1218 2.216 . S
O1219 C1226 1.247 . S
O1220 Co1218 2.091 . S
O1220 C1226 1.261 . S
C1221 O1230 1.247 . S
C1221 O1231 1.272 . S
O1222 Co1218 2.004 . S
O1222 C1227 1.259 . S
Co1223 O1224 2.061 . S
Co1223 O1229 2.052 . S
Co1223 O1231 2.135 . S
O1224 Co1223 2.061 . S
O1224 C1227 1.235 . S
C1225 O1228 1.238 . S
C1225 O1229 1.241 . S
C1226 O1219 1.247 . S
C1226 O1220 1.261 . S
C1227 O1222 1.259 . S
C1227 O1224 1.235 . S
O1228 Co1218 2.021 . S
O1228 C1225 1.238 . S
O1229 Co1223 2.052 . S
O1229 C1225 1.241 . S
O1230 Co1218 2.137 . S
O1230 C1221 1.247 . S
O1231 Co1218 2.244 . S
O1231 C1221 1.272 . S
O1231 Co1223 2.135 . S
Co1232 O1233 2.216 . S
Co1232 O1234 2.091 . S
Co1232 O1236 2.004 . S
Co1232 O1242 2.021 . S
Co1232 O1244 2.137 . S
Co1232 O1245 2.244 . S
O1233 Co1232 2.216 . S
O1233 C1240 1.247 . S
O1234 Co1232 2.091 . S
O1234 C1240 1.261 . S
C1235 O1244 1.247 . S
C1235 O1245 1.272 . S
O1236 Co1232 2.004 . S
O1236 C1241 1.259 . S
Co1237 O1238 2.061 . S
Co1237 O1243 2.052 . S
Co1237 O1245 2.135 . S
O1238 Co1237 2.061 . S
O1238 C1241 1.235 . S
C1239 O1242 1.238 . S
C1239 O1243 1.241 . S
C1240 O1233 1.247 . S
C1240 O1234 1.261 . S
C1241 O1236 1.259 . S
C1241 O1238 1.235 . S
O1242 Co1232 2.021 . S
O1242 C1239 1.238 . S
O1243 Co1237 2.052 . S
O1243 C1239 1.241 . S
O1244 Co1232 2.137 . S
O1244 C1235 1.247 . S
O1245 Co1232 2.244 . S
O1245 C1235 1.272 . S
O1245 Co1237 2.135 . S
Co1246 O1247 2.216 . S
Co1246 O1248 2.091 . S
Co1246 O1250 2.004 . S
Co1246 O1256 2.021 . S
Co1246 O1258 2.137 . S
Co1246 O1259 2.244 . S
O1247 Co1246 2.216 . S
O1247 C1254 1.247 . S
O1248 Co1246 2.091 . S
O1248 C1254 1.261 . S
C1249 O1258 1.247 . S
C1249 O1259 1.272 . S
O1250 Co1246 2.004 . S
O1250 C1255 1.259 . S
Co1251 O1252 2.061 . S
Co1251 O1257 2.052 . S
Co1251 O1259 2.135 . S
O1252 Co1251 2.061 . S
O1252 C1255 1.235 . S
C1253 O1256 1.238 . S
C1253 O1257 1.241 . S
C1254 O1247 1.247 . S
C1254 O1248 1.261 . S
C1255 O1250 1.259 . S
C1255 O1252 1.235 . S
O1256 Co1246 2.021 . S
O1256 C1253 1.238 . S
O1257 Co1251 2.052 . S
O1257 C1253 1.241 . S
O1258 Co1246 2.137 . S
O1258 C1249 1.247 . S
O1259 Co1246 2.244 . S
O1259 C1249 1.272 . S
O1259 Co1251 2.135 . S
Co1260 O1261 2.216 . S
Co1260 O1262 2.091 . S
Co1260 O1264 2.004 . S
Co1260 O1270 2.021 . S
Co1260 O1272 2.137 . S
Co1260 O1273 2.244 . S
O1261 Co1260 2.216 . S
O1261 C1268 1.247 . S
O1262 Co1260 2.091 . S
O1262 C1268 1.261 . S
C1263 O1272 1.247 . S
C1263 O1273 1.272 . S
O1264 Co1260 2.004 . S
O1264 C1269 1.259 . S
Co1265 O1266 2.061 . S
Co1265 O1271 2.052 . S
Co1265 O1273 2.135 . S
O1266 Co1265 2.061 . S
O1266 C1269 1.235 . S
C1267 O1270 1.238 . S
C1267 O1271 1.241 . S
C1268 O1261 1.247 . S
C1268 O1262 1.261 . S
C1269 O1264 1.259 . S
C1269 O1266 1.235 . S
O1270 Co1260 2.021 . S
O1270 C1267 1.238 . S
O1271 Co1265 2.052 . S
O1271 C1267 1.241 . S
O1272 Co1260 2.137 . S
O1272 C1263 1.247 . S
O1273 Co1260 2.244 . S
O1273 C1263 1.272 . S
O1273 Co1265 2.135 . S
Co1274 O1275 2.216 . S
Co1274 O1276 2.091 . S
Co1274 O1278 2.004 . S
Co1274 O1284 2.021 . S
Co1274 O1286 2.137 . S
Co1274 O1287 2.244 . S
O1275 Co1274 2.216 . S
O1275 C1282 1.247 . S
O1276 Co1274 2.091 . S
O1276 C1282 1.261 . S
C1277 O1286 1.247 . S
C1277 O1287 1.272 . S
O1278 Co1274 2.004 . S
O1278 C1283 1.259 . S
Co1279 O1280 2.061 . S
Co1279 O1285 2.052 . S
Co1279 O1287 2.135 . S
O1280 Co1279 2.061 . S
O1280 C1283 1.235 . S
C1281 O1284 1.238 . S
C1281 O1285 1.241 . S
C1282 O1275 1.247 . S
C1282 O1276 1.261 . S
C1283 O1278 1.259 . S
C1283 O1280 1.235 . S
O1284 Co1274 2.021 . S
O1284 C1281 1.238 . S
O1285 Co1279 2.052 . S
O1285 C1281 1.241 . S
O1286 Co1274 2.137 . S
O1286 C1277 1.247 . S
O1287 Co1274 2.244 . S
O1287 C1277 1.272 . S
O1287 Co1279 2.135 . S
Co1288 O1289 2.216 . S
Co1288 O1290 2.091 . S
Co1288 O1292 2.004 . S
Co1288 O1298 2.021 . S
Co1288 O1300 2.137 . S
Co1288 O1301 2.244 . S
O1289 Co1288 2.216 . S
O1289 C1296 1.247 . S
O1290 Co1288 2.091 . S
O1290 C1296 1.261 . S
C1291 O1300 1.247 . S
C1291 O1301 1.272 . S
O1292 Co1288 2.004 . S
O1292 C1297 1.259 . S
Co1293 O1294 2.061 . S
Co1293 O1299 2.052 . S
Co1293 O1301 2.135 . S
O1294 Co1293 2.061 . S
O1294 C1297 1.235 . S
C1295 O1298 1.238 . S
C1295 O1299 1.241 . S
C1296 O1289 1.247 . S
C1296 O1290 1.261 . S
C1297 O1292 1.259 . S
C1297 O1294 1.235 . S
O1298 Co1288 2.021 . S
O1298 C1295 1.238 . S
O1299 Co1293 2.052 . S
O1299 C1295 1.241 . S
O1300 Co1288 2.137 . S
O1300 C1291 1.247 . S
O1301 Co1288 2.244 . S
O1301 C1291 1.272 . S
O1301 Co1293 2.135 . S
Co1302 O1303 2.216 . S
Co1302 O1304 2.091 . S
Co1302 O1306 2.004 . S
Co1302 O1312 2.021 . S
Co1302 O1314 2.137 . S
Co1302 O1315 2.244 . S
O1303 Co1302 2.216 . S
O1303 C1310 1.247 . S
O1304 Co1302 2.091 . S
O1304 C1310 1.261 . S
C1305 O1314 1.247 . S
C1305 O1315 1.272 . S
O1306 Co1302 2.004 . S
O1306 C1311 1.259 . S
Co1307 O1308 2.061 . S
Co1307 O1313 2.052 . S
Co1307 O1315 2.135 . S
O1308 Co1307 2.061 . S
O1308 C1311 1.235 . S
C1309 O1312 1.238 . S
C1309 O1313 1.241 . S
C1310 O1303 1.247 . S
C1310 O1304 1.261 . S
C1311 O1306 1.259 . S
C1311 O1308 1.235 . S
O1312 Co1302 2.021 . S
O1312 C1309 1.238 . S
O1313 Co1307 2.052 . S
O1313 C1309 1.241 . S
O1314 Co1302 2.137 . S
O1314 C1305 1.247 . S
O1315 Co1302 2.244 . S
O1315 C1305 1.272 . S
O1315 Co1307 2.135 . S
Co1316 O1317 2.216 . S
Co1316 O1318 2.091 . S
Co1316 O1320 2.004 . S
Co1316 O1326 2.021 . S
Co1316 O1328 2.137 . S
Co1316 O1329 2.244 . S
O1317 Co1316 2.216 . S
O1317 C1324 1.247 . S
O1318 Co1316 2.091 . S
O1318 C1324 1.261 . S
C1319 O1328 1.247 . S
C1319 O1329 1.272 . S
O1320 Co1316 2.004 . S
O1320 C1325 1.259 . S
Co1321 O1322 2.061 . S
Co1321 O1327 2.052 . S
Co1321 O1329 2.135 . S
O1322 Co1321 2.061 . S
O1322 C1325 1.235 . S
C1323 O1326 1.238 . S
C1323 O1327 1.241 . S
C1324 O1317 1.247 . S
C1324 O1318 1.261 . S
C1325 O1320 1.259 . S
C1325 O1322 1.235 . S
O1326 Co1316 2.021 . S
O1326 C1323 1.238 . S
O1327 Co1321 2.052 . S
O1327 C1323 1.241 . S
O1328 Co1316 2.137 . S
O1328 C1319 1.247 . S
O1329 Co1316 2.244 . S
O1329 C1319 1.272 . S
O1329 Co1321 2.135 . S
Co1330 O1331 2.216 . S
Co1330 O1332 2.091 . S
Co1330 O1334 2.004 . S
Co1330 O1340 2.021 . S
Co1330 O1342 2.137 . S
Co1330 O1343 2.244 . S
O1331 Co1330 2.216 . S
O1331 C1338 1.247 . S
O1332 Co1330 2.091 . S
O1332 C1338 1.261 . S
C1333 O1342 1.247 . S
C1333 O1343 1.272 . S
O1334 Co1330 2.004 . S
O1334 C1339 1.259 . S
Co1335 O1336 2.061 . S
Co1335 O1341 2.052 . S
Co1335 O1343 2.135 . S
O1336 Co1335 2.061 . S
O1336 C1339 1.235 . S
C1337 O1340 1.238 . S
C1337 O1341 1.241 . S
C1338 O1331 1.247 . S
C1338 O1332 1.261 . S
C1339 O1334 1.259 . S
C1339 O1336 1.235 . S
O1340 Co1330 2.021 . S
O1340 C1337 1.238 . S
O1341 Co1335 2.052 . S
O1341 C1337 1.241 . S
O1342 Co1330 2.137 . S
O1342 C1333 1.247 . S
O1343 Co1330 2.244 . S
O1343 C1333 1.272 . S
O1343 Co1335 2.135 . S
C1344 C1345 1.349 . S
C1344 C1346 1.327 . S
C1344 H1369 0.950 . S
C1345 C1344 1.349 . S
C1345 C1361 1.349 . S
C1346 C1344 1.327 . S
C1346 C1365 1.429 . S
C1346 H1370 0.950 . S
C1347 C1364 1.574 . S
C1347 C1366 1.368 . S
C1347 H1371 0.949 . S
H1348 C1352 0.949 . S
C1349 C1350 1.349 . S
C1349 C1351 1.327 . S
C1349 H1372 0.950 . S
C1350 C1349 1.349 . S
C1350 C1362 1.349 . S
C1351 C1349 1.327 . S
C1351 C1367 1.429 . S
C1351 H1373 0.950 . S
C1352 H1348 0.949 . S
C1352 C1360 1.574 . S
C1352 C1368 1.368 . S
H1353 C1361 0.950 . S
H1354 C1359 0.950 . S
H1355 C1360 0.949 . S
H1356 C1362 0.950 . S
H1357 C1363 0.950 . S
H1358 C1364 0.949 . S
C1359 H1354 0.950 . S
C1359 C1361 1.327 . S
C1359 C1365 1.429 . S
C1360 C1352 1.574 . S
C1360 H1355 0.949 . S
C1360 C1366 1.368 . S
C1361 C1345 1.349 . S
C1361 H1353 0.950 . S
C1361 C1359 1.327 . S
C1362 C1350 1.349 . S
C1362 H1356 0.950 . S
C1362 C1363 1.327 . S
C1363 H1357 0.950 . S
C1363 C1362 1.327 . S
C1363 C1367 1.429 . S
C1364 C1347 1.574 . S
C1364 H1358 0.949 . S
C1364 C1368 1.368 . S
C1365 C1346 1.429 . S
C1365 C1359 1.429 . S
C1365 C1366 1.523 . S
C1366 C1347 1.368 . S
C1366 C1360 1.368 . S
C1366 C1365 1.523 . S
C1367 C1351 1.429 . S
C1367 C1363 1.429 . S
C1367 C1368 1.523 . S
C1368 C1352 1.368 . S
C1368 C1364 1.368 . S
C1368 C1367 1.523 . S
H1369 C1344 0.950 . S
H1370 C1346 0.950 . S
H1371 C1347 0.949 . S
H1372 C1349 0.950 . S
H1373 C1351 0.950 . S
C1374 C1375 1.349 . S
C1374 C1376 1.327 . S
C1374 H1399 0.950 . S
C1375 C1374 1.349 . S
C1375 C1391 1.349 . S
C1376 C1374 1.327 . S
C1376 C1395 1.429 . S
C1376 H1400 0.950 . S
C1377 C1394 1.574 . S
C1377 C1396 1.368 . S
C1377 H1401 0.949 . S
H1378 C1382 0.949 . S
C1379 C1380 1.349 . S
C1379 C1381 1.327 . S
C1379 H1402 0.950 . S
C1380 C1379 1.349 . S
C1380 C1392 1.349 . S
C1381 C1379 1.327 . S
C1381 C1397 1.429 . S
C1381 H1403 0.950 . S
C1382 H1378 0.949 . S
C1382 C1390 1.574 . S
C1382 C1398 1.368 . S
H1383 C1391 0.950 . S
H1384 C1389 0.950 . S
H1385 C1390 0.949 . S
H1386 C1392 0.950 . S
H1387 C1393 0.950 . S
H1388 C1394 0.949 . S
C1389 H1384 0.950 . S
C1389 C1391 1.327 . S
C1389 C1395 1.429 . S
C1390 C1382 1.574 . S
C1390 H1385 0.949 . S
C1390 C1396 1.368 . S
C1391 C1375 1.349 . S
C1391 H1383 0.950 . S
C1391 C1389 1.327 . S
C1392 C1380 1.349 . S
C1392 H1386 0.950 . S
C1392 C1393 1.327 . S
C1393 H1387 0.950 . S
C1393 C1392 1.327 . S
C1393 C1397 1.429 . S
C1394 C1377 1.574 . S
C1394 H1388 0.949 . S
C1394 C1398 1.368 . S
C1395 C1376 1.429 . S
C1395 C1389 1.429 . S
C1395 C1396 1.523 . S
C1396 C1377 1.368 . S
C1396 C1390 1.368 . S
C1396 C1395 1.523 . S
C1397 C1381 1.429 . S
C1397 C1393 1.429 . S
C1397 C1398 1.523 . S
C1398 C1382 1.368 . S
C1398 C1394 1.368 . S
C1398 C1397 1.523 . S
H1399 C1374 0.950 . S
H1400 C1376 0.950 . S
H1401 C1377 0.949 . S
H1402 C1379 0.950 . S
H1403 C1381 0.950 . S
C1404 C1405 1.349 . S
C1404 C1406 1.327 . S
C1404 H1429 0.950 . S
C1405 C1404 1.349 . S
C1405 C1421 1.349 . S
C1406 C1404 1.327 . S
C1406 C1425 1.429 . S
C1406 H1430 0.950 . S
C1407 C1424 1.574 . S
C1407 C1426 1.368 . S
C1407 H1431 0.949 . S
H1408 C1412 0.949 . S
C1409 C1410 1.349 . S
C1409 C1411 1.327 . S
C1409 H1432 0.950 . S
C1410 C1409 1.349 . S
C1410 C1422 1.349 . S
C1411 C1409 1.327 . S
C1411 C1427 1.429 . S
C1411 H1433 0.950 . S
C1412 H1408 0.949 . S
C1412 C1420 1.574 . S
C1412 C1428 1.368 . S
H1413 C1421 0.950 . S
H1414 C1419 0.950 . S
H1415 C1420 0.949 . S
H1416 C1422 0.950 . S
H1417 C1423 0.950 . S
H1418 C1424 0.949 . S
C1419 H1414 0.950 . S
C1419 C1421 1.327 . S
C1419 C1425 1.429 . S
C1420 C1412 1.574 . S
C1420 H1415 0.949 . S
C1420 C1426 1.368 . S
C1421 C1405 1.349 . S
C1421 H1413 0.950 . S
C1421 C1419 1.327 . S
C1422 C1410 1.349 . S
C1422 H1416 0.950 . S
C1422 C1423 1.327 . S
C1423 H1417 0.950 . S
C1423 C1422 1.327 . S
C1423 C1427 1.429 . S
C1424 C1407 1.574 . S
C1424 H1418 0.949 . S
C1424 C1428 1.368 . S
C1425 C1406 1.429 . S
C1425 C1419 1.429 . S
C1425 C1426 1.523 . S
C1426 C1407 1.368 . S
C1426 C1420 1.368 . S
C1426 C1425 1.523 . S
C1427 C1411 1.429 . S
C1427 C1423 1.429 . S
C1427 C1428 1.523 . S
C1428 C1412 1.368 . S
C1428 C1424 1.368 . S
C1428 C1427 1.523 . S
H1429 C1404 0.950 . S
H1430 C1406 0.950 . S
H1431 C1407 0.949 . S
H1432 C1409 0.950 . S
H1433 C1411 0.950 . S
C1434 C1435 1.349 . S
C1434 C1436 1.327 . S
C1434 H1459 0.950 . S
C1435 C1434 1.349 . S
C1435 C1451 1.349 . S
C1436 C1434 1.327 . S
C1436 C1455 1.429 . S
C1436 H1460 0.950 . S
C1437 C1454 1.574 . S
C1437 C1456 1.368 . S
C1437 H1461 0.949 . S
H1438 C1442 0.949 . S
C1439 C1440 1.349 . S
C1439 C1441 1.327 . S
C1439 H1462 0.950 . S
C1440 C1439 1.349 . S
C1440 C1452 1.349 . S
C1441 C1439 1.327 . S
C1441 C1457 1.429 . S
C1441 H1463 0.950 . S
C1442 H1438 0.949 . S
C1442 C1450 1.574 . S
C1442 C1458 1.368 . S
H1443 C1451 0.950 . S
H1444 C1449 0.950 . S
H1445 C1450 0.949 . S
H1446 C1452 0.950 . S
H1447 C1453 0.950 . S
H1448 C1454 0.949 . S
C1449 H1444 0.950 . S
C1449 C1451 1.327 . S
C1449 C1455 1.429 . S
C1450 C1442 1.574 . S
C1450 H1445 0.949 . S
C1450 C1456 1.368 . S
C1451 C1435 1.349 . S
C1451 H1443 0.950 . S
C1451 C1449 1.327 . S
C1452 C1440 1.349 . S
C1452 H1446 0.950 . S
C1452 C1453 1.327 . S
C1453 H1447 0.950 . S
C1453 C1452 1.327 . S
C1453 C1457 1.429 . S
C1454 C1437 1.574 . S
C1454 H1448 0.949 . S
C1454 C1458 1.368 . S
C1455 C1436 1.429 . S
C1455 C1449 1.429 . S
C1455 C1456 1.523 . S
C1456 C1437 1.368 . S
C1456 C1450 1.368 . S
C1456 C1455 1.523 . S
C1457 C1441 1.429 . S
C1457 C1453 1.429 . S
C1457 C1458 1.523 . S
C1458 C1442 1.368 . S
C1458 C1454 1.368 . S
C1458 C1457 1.523 . S
H1459 C1434 0.950 . S
H1460 C1436 0.950 . S
H1461 C1437 0.949 . S
H1462 C1439 0.950 . S
H1463 C1441 0.950 . S
C1464 C1465 1.349 . S
C1464 C1466 1.327 . S
C1464 H1489 0.950 . S
C1465 C1464 1.349 . S
C1465 C1481 1.349 . S
C1466 C1464 1.327 . S
C1466 C1485 1.429 . S
C1466 H1490 0.950 . S
C1467 C1484 1.574 . S
C1467 C1486 1.368 . S
C1467 H1491 0.949 . S
H1468 C1472 0.949 . S
C1469 C1470 1.349 . S
C1469 C1471 1.327 . S
C1469 H1492 0.950 . S
C1470 C1469 1.349 . S
C1470 C1482 1.349 . S
C1471 C1469 1.327 . S
C1471 C1487 1.429 . S
C1471 H1493 0.950 . S
C1472 H1468 0.949 . S
C1472 C1480 1.574 . S
C1472 C1488 1.368 . S
H1473 C1481 0.950 . S
H1474 C1479 0.950 . S
H1475 C1480 0.949 . S
H1476 C1482 0.950 . S
H1477 C1483 0.950 . S
H1478 C1484 0.949 . S
C1479 H1474 0.950 . S
C1479 C1481 1.327 . S
C1479 C1485 1.429 . S
C1480 C1472 1.574 . S
C1480 H1475 0.949 . S
C1480 C1486 1.368 . S
C1481 C1465 1.349 . S
C1481 H1473 0.950 . S
C1481 C1479 1.327 . S
C1482 C1470 1.349 . S
C1482 H1476 0.950 . S
C1482 C1483 1.327 . S
C1483 H1477 0.950 . S
C1483 C1482 1.327 . S
C1483 C1487 1.429 . S
C1484 C1467 1.574 . S
C1484 H1478 0.949 . S
C1484 C1488 1.368 . S
C1485 C1466 1.429 . S
C1485 C1479 1.429 . S
C1485 C1486 1.523 . S
C1486 C1467 1.368 . S
C1486 C1480 1.368 . S
C1486 C1485 1.523 . S
C1487 C1471 1.429 . S
C1487 C1483 1.429 . S
C1487 C1488 1.523 . S
C1488 C1472 1.368 . S
C1488 C1484 1.368 . S
C1488 C1487 1.523 . S
H1489 C1464 0.950 . S
H1490 C1466 0.950 . S
H1491 C1467 0.949 . S
H1492 C1469 0.950 . S
H1493 C1471 0.950 . S
C1494 C1495 1.349 . S
C1494 C1496 1.327 . S
C1494 H1519 0.950 . S
C1495 C1494 1.349 . S
C1495 C1511 1.349 . S
C1496 C1494 1.327 . S
C1496 C1515 1.429 . S
C1496 H1520 0.950 . S
C1497 C1514 1.574 . S
C1497 C1516 1.368 . S
C1497 H1521 0.949 . S
H1498 C1502 0.949 . S
C1499 C1500 1.349 . S
C1499 C1501 1.327 . S
C1499 H1522 0.950 . S
C1500 C1499 1.349 . S
C1500 C1512 1.349 . S
C1501 C1499 1.327 . S
C1501 C1517 1.429 . S
C1501 H1523 0.950 . S
C1502 H1498 0.949 . S
C1502 C1510 1.574 . S
C1502 C1518 1.368 . S
H1503 C1511 0.950 . S
H1504 C1509 0.950 . S
H1505 C1510 0.949 . S
H1506 C1512 0.950 . S
H1507 C1513 0.950 . S
H1508 C1514 0.949 . S
C1509 H1504 0.950 . S
C1509 C1511 1.327 . S
C1509 C1515 1.429 . S
C1510 C1502 1.574 . S
C1510 H1505 0.949 . S
C1510 C1516 1.368 . S
C1511 C1495 1.349 . S
C1511 H1503 0.950 . S
C1511 C1509 1.327 . S
C1512 C1500 1.349 . S
C1512 H1506 0.950 . S
C1512 C1513 1.327 . S
C1513 H1507 0.950 . S
C1513 C1512 1.327 . S
C1513 C1517 1.429 . S
C1514 C1497 1.574 . S
C1514 H1508 0.949 . S
C1514 C1518 1.368 . S
C1515 C1496 1.429 . S
C1515 C1509 1.429 . S
C1515 C1516 1.523 . S
C1516 C1497 1.368 . S
C1516 C1510 1.368 . S
C1516 C1515 1.523 . S
C1517 C1501 1.429 . S
C1517 C1513 1.429 . S
C1517 C1518 1.523 . S
C1518 C1502 1.368 . S
C1518 C1514 1.368 . S
C1518 C1517 1.523 . S
H1519 C1494 0.950 . S
H1520 C1496 0.950 . S
H1521 C1497 0.949 . S
H1522 C1499 0.950 . S
H1523 C1501 0.950 . S
C1524 C1525 1.349 . S
C1524 C1526 1.327 . S
C1524 H1549 0.950 . S
C1525 C1524 1.349 . S
C1525 C1541 1.349 . S
C1526 C1524 1.327 . S
C1526 C1545 1.429 . S
C1526 H1550 0.950 . S
C1527 C1544 1.574 . S
C1527 C1546 1.368 . S
C1527 H1551 0.949 . S
H1528 C1532 0.949 . S
C1529 C1530 1.349 . S
C1529 C1531 1.327 . S
C1529 H1552 0.950 . S
C1530 C1529 1.349 . S
C1530 C1542 1.349 . S
C1531 C1529 1.327 . S
C1531 C1547 1.429 . S
C1531 H1553 0.950 . S
C1532 H1528 0.949 . S
C1532 C1540 1.574 . S
C1532 C1548 1.368 . S
H1533 C1541 0.950 . S
H1534 C1539 0.950 . S
H1535 C1540 0.949 . S
H1536 C1542 0.950 . S
H1537 C1543 0.950 . S
H1538 C1544 0.949 . S
C1539 H1534 0.950 . S
C1539 C1541 1.327 . S
C1539 C1545 1.429 . S
C1540 C1532 1.574 . S
C1540 H1535 0.949 . S
C1540 C1546 1.368 . S
C1541 C1525 1.349 . S
C1541 H1533 0.950 . S
C1541 C1539 1.327 . S
C1542 C1530 1.349 . S
C1542 H1536 0.950 . S
C1542 C1543 1.327 . S
C1543 H1537 0.950 . S
C1543 C1542 1.327 . S
C1543 C1547 1.429 . S
C1544 C1527 1.574 . S
C1544 H1538 0.949 . S
C1544 C1548 1.368 . S
C1545 C1526 1.429 . S
C1545 C1539 1.429 . S
C1545 C1546 1.523 . S
C1546 C1527 1.368 . S
C1546 C1540 1.368 . S
C1546 C1545 1.523 . S
C1547 C1531 1.429 . S
C1547 C1543 1.429 . S
C1547 C1548 1.523 . S
C1548 C1532 1.368 . S
C1548 C1544 1.368 . S
C1548 C1547 1.523 . S
H1549 C1524 0.950 . S
H1550 C1526 0.950 . S
H1551 C1527 0.949 . S
H1552 C1529 0.950 . S
H1553 C1531 0.950 . S
C1554 C1555 1.349 . S
C1554 C1556 1.327 . S
C1554 H1579 0.950 . S
C1555 C1554 1.349 . S
C1555 C1571 1.349 . S
C1556 C1554 1.327 . S
C1556 C1575 1.429 . S
C1556 H1580 0.950 . S
C1557 C1574 1.574 . S
C1557 C1576 1.368 . S
C1557 H1581 0.949 . S
H1558 C1562 0.949 . S
C1559 C1560 1.349 . S
C1559 C1561 1.327 . S
C1559 H1582 0.950 . S
C1560 C1559 1.349 . S
C1560 C1572 1.349 . S
C1561 C1559 1.327 . S
C1561 C1577 1.429 . S
C1561 H1583 0.950 . S
C1562 H1558 0.949 . S
C1562 C1570 1.574 . S
C1562 C1578 1.368 . S
H1563 C1571 0.950 . S
H1564 C1569 0.950 . S
H1565 C1570 0.949 . S
H1566 C1572 0.950 . S
H1567 C1573 0.950 . S
H1568 C1574 0.949 . S
C1569 H1564 0.950 . S
C1569 C1571 1.327 . S
C1569 C1575 1.429 . S
C1570 C1562 1.574 . S
C1570 H1565 0.949 . S
C1570 C1576 1.368 . S
C1571 C1555 1.349 . S
C1571 H1563 0.950 . S
C1571 C1569 1.327 . S
C1572 C1560 1.349 . S
C1572 H1566 0.950 . S
C1572 C1573 1.327 . S
C1573 H1567 0.950 . S
C1573 C1572 1.327 . S
C1573 C1577 1.429 . S
C1574 C1557 1.574 . S
C1574 H1568 0.949 . S
C1574 C1578 1.368 . S
C1575 C1556 1.429 . S
C1575 C1569 1.429 . S
C1575 C1576 1.523 . S
C1576 C1557 1.368 . S
C1576 C1570 1.368 . S
C1576 C1575 1.523 . S
C1577 C1561 1.429 . S
C1577 C1573 1.429 . S
C1577 C1578 1.523 . S
C1578 C1562 1.368 . S
C1578 C1574 1.368 . S
C1578 C1577 1.523 . S
H1579 C1554 0.950 . S
H1580 C1556 0.950 . S
H1581 C1557 0.949 . S
H1582 C1559 0.950 . S
H1583 C1561 0.950 . S
C1584 C1585 1.349 . S
C1584 C1586 1.327 . S
C1584 H1609 0.950 . S
C1585 C1584 1.349 . S
C1585 C1601 1.349 . S
C1586 C1584 1.327 . S
C1586 C1605 1.429 . S
C1586 H1610 0.950 . S
C1587 C1604 1.574 . S
C1587 C1606 1.368 . S
C1587 H1611 0.949 . S
H1588 C1592 0.949 . S
C1589 C1590 1.349 . S
C1589 C1591 1.327 . S
C1589 H1612 0.950 . S
C1590 C1589 1.349 . S
C1590 C1602 1.349 . S
C1591 C1589 1.327 . S
C1591 C1607 1.429 . S
C1591 H1613 0.950 . S
C1592 H1588 0.949 . S
C1592 C1600 1.574 . S
C1592 C1608 1.368 . S
H1593 C1601 0.950 . S
H1594 C1599 0.950 . S
H1595 C1600 0.949 . S
H1596 C1602 0.950 . S
H1597 C1603 0.950 . S
H1598 C1604 0.949 . S
C1599 H1594 0.950 . S
C1599 C1601 1.327 . S
C1599 C1605 1.429 . S
C1600 C1592 1.574 . S
C1600 H1595 0.949 . S
C1600 C1606 1.368 . S
C1601 C1585 1.349 . S
C1601 H1593 0.950 . S
C1601 C1599 1.327 . S
C1602 C1590 1.349 . S
C1602 H1596 0.950 . S
C1602 C1603 1.327 . S
C1603 H1597 0.950 . S
C1603 C1602 1.327 . S
C1603 C1607 1.429 . S
C1604 C1587 1.574 . S
C1604 H1598 0.949 . S
C1604 C1608 1.368 . S
C1605 C1586 1.429 . S
C1605 C1599 1.429 . S
C1605 C1606 1.523 . S
C1606 C1587 1.368 . S
C1606 C1600 1.368 . S
C1606 C1605 1.523 . S
C1607 C1591 1.429 . S
C1607 C1603 1.429 . S
C1607 C1608 1.523 . S
C1608 C1592 1.368 . S
C1608 C1604 1.368 . S
C1608 C1607 1.523 . S
H1609 C1584 0.950 . S
H1610 C1586 0.950 . S
H1611 C1587 0.949 . S
H1612 C1589 0.950 . S
H1613 C1591 0.950 . S
C1614 C1615 1.349 . S
C1614 C1616 1.327 . S
C1614 H1639 0.950 . S
C1615 C1614 1.349 . S
C1615 C1631 1.349 . S
C1616 C1614 1.327 . S
C1616 C1635 1.429 . S
C1616 H1640 0.950 . S
C1617 C1634 1.574 . S
C1617 C1636 1.368 . S
C1617 H1641 0.949 . S
H1618 C1622 0.949 . S
C1619 C1620 1.349 . S
C1619 C1621 1.327 . S
C1619 H1642 0.950 . S
C1620 C1619 1.349 . S
C1620 C1632 1.349 . S
C1621 C1619 1.327 . S
C1621 C1637 1.429 . S
C1621 H1643 0.950 . S
C1622 H1618 0.949 . S
C1622 C1630 1.574 . S
C1622 C1638 1.368 . S
H1623 C1631 0.950 . S
H1624 C1629 0.950 . S
H1625 C1630 0.949 . S
H1626 C1632 0.950 . S
H1627 C1633 0.950 . S
H1628 C1634 0.949 . S
C1629 H1624 0.950 . S
C1629 C1631 1.327 . S
C1629 C1635 1.429 . S
C1630 C1622 1.574 . S
C1630 H1625 0.949 . S
C1630 C1636 1.368 . S
C1631 C1615 1.349 . S
C1631 H1623 0.950 . S
C1631 C1629 1.327 . S
C1632 C1620 1.349 . S
C1632 H1626 0.950 . S
C1632 C1633 1.327 . S
C1633 H1627 0.950 . S
C1633 C1632 1.327 . S
C1633 C1637 1.429 . S
C1634 C1617 1.574 . S
C1634 H1628 0.949 . S
C1634 C1638 1.368 . S
C1635 C1616 1.429 . S
C1635 C1629 1.429 . S
C1635 C1636 1.523 . S
C1636 C1617 1.368 . S
C1636 C1630 1.368 . S
C1636 C1635 1.523 . S
C1637 C1621 1.429 . S
C1637 C1633 1.429 . S
C1637 C1638 1.523 . S
C1638 C1622 1.368 . S
C1638 C1634 1.368 . S
C1638 C1637 1.523 . S
H1639 C1614 0.950 . S
H1640 C1616 0.950 . S
H1641 C1617 0.949 . S
H1642 C1619 0.950 . S
H1643 C1621 0.950 . S
C1644 C1645 1.349 . S
C1644 C1646 1.327 . S
C1644 H1669 0.950 . S
C1645 C1644 1.349 . S
C1645 C1661 1.349 . S
C1646 C1644 1.327 . S
C1646 C1665 1.429 . S
C1646 H1670 0.950 . S
C1647 C1664 1.574 . S
C1647 C1666 1.368 . S
C1647 H1671 0.949 . S
H1648 C1652 0.949 . S
C1649 C1650 1.349 . S
C1649 C1651 1.327 . S
C1649 H1672 0.950 . S
C1650 C1649 1.349 . S
C1650 C1662 1.349 . S
C1651 C1649 1.327 . S
C1651 C1667 1.429 . S
C1651 H1673 0.950 . S
C1652 H1648 0.949 . S
C1652 C1660 1.574 . S
C1652 C1668 1.368 . S
H1653 C1661 0.950 . S
H1654 C1659 0.950 . S
H1655 C1660 0.949 . S
H1656 C1662 0.950 . S
H1657 C1663 0.950 . S
H1658 C1664 0.949 . S
C1659 H1654 0.950 . S
C1659 C1661 1.327 . S
C1659 C1665 1.429 . S
C1660 C1652 1.574 . S
C1660 H1655 0.949 . S
C1660 C1666 1.368 . S
C1661 C1645 1.349 . S
C1661 H1653 0.950 . S
C1661 C1659 1.327 . S
C1662 C1650 1.349 . S
C1662 H1656 0.950 . S
C1662 C1663 1.327 . S
C1663 H1657 0.950 . S
C1663 C1662 1.327 . S
C1663 C1667 1.429 . S
C1664 C1647 1.574 . S
C1664 H1658 0.949 . S
C1664 C1668 1.368 . S
C1665 C1646 1.429 . S
C1665 C1659 1.429 . S
C1665 C1666 1.523 . S
C1666 C1647 1.368 . S
C1666 C1660 1.368 . S
C1666 C1665 1.523 . S
C1667 C1651 1.429 . S
C1667 C1663 1.429 . S
C1667 C1668 1.523 . S
C1668 C1652 1.368 . S
C1668 C1664 1.368 . S
C1668 C1667 1.523 . S
H1669 C1644 0.950 . S
H1670 C1646 0.950 . S
H1671 C1647 0.949 . S
H1672 C1649 0.950 . S
H1673 C1651 0.950 . S
C1674 C1675 1.349 . S
C1674 C1676 1.327 . S
C1674 H1699 0.950 . S
C1675 C1674 1.349 . S
C1675 C1691 1.349 . S
C1676 C1674 1.327 . S
C1676 C1695 1.429 . S
C1676 H1700 0.950 . S
C1677 C1694 1.574 . S
C1677 C1696 1.368 . S
C1677 H1701 0.949 . S
H1678 C1682 0.949 . S
C1679 C1680 1.349 . S
C1679 C1681 1.327 . S
C1679 H1702 0.950 . S
C1680 C1679 1.349 . S
C1680 C1692 1.349 . S
C1681 C1679 1.327 . S
C1681 C1697 1.429 . S
C1681 H1703 0.950 . S
C1682 H1678 0.949 . S
C1682 C1690 1.574 . S
C1682 C1698 1.368 . S
H1683 C1691 0.950 . S
H1684 C1689 0.950 . S
H1685 C1690 0.949 . S
H1686 C1692 0.950 . S
H1687 C1693 0.950 . S
H1688 C1694 0.949 . S
C1689 H1684 0.950 . S
C1689 C1691 1.327 . S
C1689 C1695 1.429 . S
C1690 C1682 1.574 . S
C1690 H1685 0.949 . S
C1690 C1696 1.368 . S
C1691 C1675 1.349 . S
C1691 H1683 0.950 . S
C1691 C1689 1.327 . S
C1692 C1680 1.349 . S
C1692 H1686 0.950 . S
C1692 C1693 1.327 . S
C1693 H1687 0.950 . S
C1693 C1692 1.327 . S
C1693 C1697 1.429 . S
C1694 C1677 1.574 . S
C1694 H1688 0.949 . S
C1694 C1698 1.368 . S
C1695 C1676 1.429 . S
C1695 C1689 1.429 . S
C1695 C1696 1.523 . S
C1696 C1677 1.368 . S
C1696 C1690 1.368 . S
C1696 C1695 1.523 . S
C1697 C1681 1.429 . S
C1697 C1693 1.429 . S
C1697 C1698 1.523 . S
C1698 C1682 1.368 . S
C1698 C1694 1.368 . S
C1698 C1697 1.523 . S
H1699 C1674 0.950 . S
H1700 C1676 0.950 . S
H1701 C1677 0.949 . S
H1702 C1679 0.950 . S
H1703 C1681 0.950 . S
C1704 C1705 1.349 . S
C1704 C1706 1.327 . S
C1704 H1729 0.950 . S
C1705 C1704 1.349 . S
C1705 C1721 1.349 . S
C1706 C1704 1.327 . S
C1706 C1725 1.429 . S
C1706 H1730 0.950 . S
C1707 C1724 1.574 . S
C1707 C1726 1.368 . S
C1707 H1731 0.949 . S
H1708 C1712 0.949 . S
C1709 C1710 1.349 . S
C1709 C1711 1.327 . S
C1709 H1732 0.950 . S
C1710 C1709 1.349 . S
C1710 C1722 1.349 . S
C1711 C1709 1.327 . S
C1711 C1727 1.429 . S
C1711 H1733 0.950 . S
C1712 H1708 0.949 . S
C1712 C1720 1.574 . S
C1712 C1728 1.368 . S
H1713 C1721 0.950 . S
H1714 C1719 0.950 . S
H1715 C1720 0.949 . S
H1716 C1722 0.950 . S
H1717 C1723 0.950 . S
H1718 C1724 0.949 . S
C1719 H1714 0.950 . S
C1719 C1721 1.327 . S
C1719 C1725 1.429 . S
C1720 C1712 1.574 . S
C1720 H1715 0.949 . S
C1720 C1726 1.368 . S
C1721 C1705 1.349 . S
C1721 H1713 0.950 . S
C1721 C1719 1.327 . S
C1722 C1710 1.349 . S
C1722 H1716 0.950 . S
C1722 C1723 1.327 . S
C1723 H1717 0.950 . S
C1723 C1722 1.327 . S
C1723 C1727 1.429 . S
C1724 C1707 1.574 . S
C1724 H1718 0.949 . S
C1724 C1728 1.368 . S
C1725 C1706 1.429 . S
C1725 C1719 1.429 . S
C1725 C1726 1.523 . S
C1726 C1707 1.368 . S
C1726 C1720 1.368 . S
C1726 C1725 1.523 . S
C1727 C1711 1.429 . S
C1727 C1723 1.429 . S
C1727 C1728 1.523 . S
C1728 C1712 1.368 . S
C1728 C1724 1.368 . S
C1728 C1727 1.523 . S
H1729 C1704 0.950 . S
H1730 C1706 0.950 . S
H1731 C1707 0.949 . S
H1732 C1709 0.950 . S
H1733 C1711 0.950 . S
C1734 C1735 1.349 . S
C1734 C1736 1.327 . S
C1734 H1759 0.950 . S
C1735 C1734 1.349 . S
C1735 C1751 1.349 . S
C1736 C1734 1.327 . S
C1736 C1755 1.429 . S
C1736 H1760 0.950 . S
C1737 C1754 1.574 . S
C1737 C1756 1.368 . S
C1737 H1761 0.949 . S
H1738 C1742 0.949 . S
C1739 C1740 1.349 . S
C1739 C1741 1.327 . S
C1739 H1762 0.950 . S
C1740 C1739 1.349 . S
C1740 C1752 1.349 . S
C1741 C1739 1.327 . S
C1741 C1757 1.429 . S
C1741 H1763 0.950 . S
C1742 H1738 0.949 . S
C1742 C1750 1.574 . S
C1742 C1758 1.368 . S
H1743 C1751 0.950 . S
H1744 C1749 0.950 . S
H1745 C1750 0.949 . S
H1746 C1752 0.950 . S
H1747 C1753 0.950 . S
H1748 C1754 0.949 . S
C1749 H1744 0.950 . S
C1749 C1751 1.327 . S
C1749 C1755 1.429 . S
C1750 C1742 1.574 . S
C1750 H1745 0.949 . S
C1750 C1756 1.368 . S
C1751 C1735 1.349 . S
C1751 H1743 0.950 . S
C1751 C1749 1.327 . S
C1752 C1740 1.349 . S
C1752 H1746 0.950 . S
C1752 C1753 1.327 . S
C1753 H1747 0.950 . S
C1753 C1752 1.327 . S
C1753 C1757 1.429 . S
C1754 C1737 1.574 . S
C1754 H1748 0.949 . S
C1754 C1758 1.368 . S
C1755 C1736 1.429 . S
C1755 C1749 1.429 . S
C1755 C1756 1.523 . S
C1756 C1737 1.368 . S
C1756 C1750 1.368 . S
C1756 C1755 1.523 . S
C1757 C1741 1.429 . S
C1757 C1753 1.429 . S
C1757 C1758 1.523 . S
C1758 C1742 1.368 . S
C1758 C1754 1.368 . S
C1758 C1757 1.523 . S
H1759 C1734 0.950 . S
H1760 C1736 0.950 . S
H1761 C1737 0.949 . S
H1762 C1739 0.950 . S
H1763 C1741 0.950 . S
C1764 C1765 1.349 . S
C1764 C1766 1.327 . S
C1764 H1789 0.950 . S
C1765 C1764 1.349 . S
C1765 C1781 1.349 . S
C1766 C1764 1.327 . S
C1766 C1785 1.429 . S
C1766 H1790 0.950 . S
C1767 C1784 1.574 . S
C1767 C1786 1.368 . S
C1767 H1791 0.949 . S
H1768 C1772 0.949 . S
C1769 C1770 1.349 . S
C1769 C1771 1.327 . S
C1769 H1792 0.950 . S
C1770 C1769 1.349 . S
C1770 C1782 1.349 . S
C1771 C1769 1.327 . S
C1771 C1787 1.429 . S
C1771 H1793 0.950 . S
C1772 H1768 0.949 . S
C1772 C1780 1.574 . S
C1772 C1788 1.368 . S
H1773 C1781 0.950 . S
H1774 C1779 0.950 . S
H1775 C1780 0.949 . S
H1776 C1782 0.950 . S
H1777 C1783 0.950 . S
H1778 C1784 0.949 . S
C1779 H1774 0.950 . S
C1779 C1781 1.327 . S
C1779 C1785 1.429 . S
C1780 C1772 1.574 . S
C1780 H1775 0.949 . S
C1780 C1786 1.368 . S
C1781 C1765 1.349 . S
C1781 H1773 0.950 . S
C1781 C1779 1.327 . S
C1782 C1770 1.349 . S
C1782 H1776 0.950 . S
C1782 C1783 1.327 . S
C1783 H1777 0.950 . S
C1783 C1782 1.327 . S
C1783 C1787 1.429 . S
C1784 C1767 1.574 . S
C1784 H1778 0.949 . S
C1784 C1788 1.368 . S
C1785 C1766 1.429 . S
C1785 C1779 1.429 . S
C1785 C1786 1.523 . S
C1786 C1767 1.368 . S
C1786 C1780 1.368 . S
C1786 C1785 1.523 . S
C1787 C1771 1.429 . S
C1787 C1783 1.429 . S
C1787 C1788 1.523 . S
C1788 C1772 1.368 . S
C1788 C1784 1.368 . S
C1788 C1787 1.523 . S
H1789 C1764 0.950 . S
H1790 C1766 0.950 . S
H1791 C1767 0.949 . S
H1792 C1769 0.950 . S
H1793 C1771 0.950 . S
C1794 C1795 1.349 . S
C1794 C1796 1.327 . S
C1794 H1819 0.950 . S
C1795 C1794 1.349 . S
C1795 C1811 1.349 . S
C1796 C1794 1.327 . S
C1796 C1815 1.429 . S
C1796 H1820 0.950 . S
C1797 C1814 1.574 . S
C1797 C1816 1.368 . S
C1797 H1821 0.949 . S
H1798 C1802 0.949 . S
C1799 C1800 1.349 . S
C1799 C1801 1.327 . S
C1799 H1822 0.950 . S
C1800 C1799 1.349 . S
C1800 C1812 1.349 . S
C1801 C1799 1.327 . S
C1801 C1817 1.429 . S
C1801 H1823 0.950 . S
C1802 H1798 0.949 . S
C1802 C1810 1.574 . S
C1802 C1818 1.368 . S
H1803 C1811 0.950 . S
H1804 C1809 0.950 . S
H1805 C1810 0.949 . S
H1806 C1812 0.950 . S
H1807 C1813 0.950 . S
H1808 C1814 0.949 . S
C1809 H1804 0.950 . S
C1809 C1811 1.327 . S
C1809 C1815 1.429 . S
C1810 C1802 1.574 . S
C1810 H1805 0.949 . S
C1810 C1816 1.368 . S
C1811 C1795 1.349 . S
C1811 H1803 0.950 . S
C1811 C1809 1.327 . S
C1812 C1800 1.349 . S
C1812 H1806 0.950 . S
C1812 C1813 1.327 . S
C1813 H1807 0.950 . S
C1813 C1812 1.327 . S
C1813 C1817 1.429 . S
C1814 C1797 1.574 . S
C1814 H1808 0.949 . S
C1814 C1818 1.368 . S
C1815 C1796 1.429 . S
C1815 C1809 1.429 . S
C1815 C1816 1.523 . S
C1816 C1797 1.368 . S
C1816 C1810 1.368 . S
C1816 C1815 1.523 . S
C1817 C1801 1.429 . S
C1817 C1813 1.429 . S
C1817 C1818 1.523 . S
C1818 C1802 1.368 . S
C1818 C1814 1.368 . S
C1818 C1817 1.523 . S
H1819 C1794 0.950 . S
H1820 C1796 0.950 . S
H1821 C1797 0.949 . S
H1822 C1799 0.950 . S
H1823 C1801 0.950 . S
C1824 C1825 1.349 . S
C1824 C1826 1.327 . S
C1824 H1849 0.950 . S
C1825 C1824 1.349 . S
C1825 C1841 1.349 . S
C1826 C1824 1.327 . S
C1826 C1845 1.429 . S
C1826 H1850 0.950 . S
C1827 C1844 1.574 . S
C1827 C1846 1.368 . S
C1827 H1851 0.949 . S
H1828 C1832 0.949 . S
C1829 C1830 1.349 . S
C1829 C1831 1.327 . S
C1829 H1852 0.950 . S
C1830 C1829 1.349 . S
C1830 C1842 1.349 . S
C1831 C1829 1.327 . S
C1831 C1847 1.429 . S
C1831 H1853 0.950 . S
C1832 H1828 0.949 . S
C1832 C1840 1.574 . S
C1832 C1848 1.368 . S
H1833 C1841 0.950 . S
H1834 C1839 0.950 . S
H1835 C1840 0.949 . S
H1836 C1842 0.950 . S
H1837 C1843 0.950 . S
H1838 C1844 0.949 . S
C1839 H1834 0.950 . S
C1839 C1841 1.327 . S
C1839 C1845 1.429 . S
C1840 C1832 1.574 . S
C1840 H1835 0.949 . S
C1840 C1846 1.368 . S
C1841 C1825 1.349 . S
C1841 H1833 0.950 . S
C1841 C1839 1.327 . S
C1842 C1830 1.349 . S
C1842 H1836 0.950 . S
C1842 C1843 1.327 . S
C1843 H1837 0.950 . S
C1843 C1842 1.327 . S
C1843 C1847 1.429 . S
C1844 C1827 1.574 . S
C1844 H1838 0.949 . S
C1844 C1848 1.368 . S
C1845 C1826 1.429 . S
C1845 C1839 1.429 . S
C1845 C1846 1.523 . S
C1846 C1827 1.368 . S
C1846 C1840 1.368 . S
C1846 C1845 1.523 . S
C1847 C1831 1.429 . S
C1847 C1843 1.429 . S
C1847 C1848 1.523 . S
C1848 C1832 1.368 . S
C1848 C1844 1.368 . S
C1848 C1847 1.523 . S
H1849 C1824 0.950 . S
H1850 C1826 0.950 . S
H1851 C1827 0.949 . S
H1852 C1829 0.950 . S
H1853 C1831 0.950 . S
C1854 C1855 1.349 . S
C1854 C1856 1.327 . S
C1854 H1879 0.950 . S
C1855 C1854 1.349 . S
C1855 C1871 1.349 . S
C1856 C1854 1.327 . S
C1856 C1875 1.429 . S
C1856 H1880 0.950 . S
C1857 C1874 1.574 . S
C1857 C1876 1.368 . S
C1857 H1881 0.949 . S
H1858 C1862 0.949 . S
C1859 C1860 1.349 . S
C1859 C1861 1.327 . S
C1859 H1882 0.950 . S
C1860 C1859 1.349 . S
C1860 C1872 1.349 . S
C1861 C1859 1.327 . S
C1861 C1877 1.429 . S
C1861 H1883 0.950 . S
C1862 H1858 0.949 . S
C1862 C1870 1.574 . S
C1862 C1878 1.368 . S
H1863 C1871 0.950 . S
H1864 C1869 0.950 . S
H1865 C1870 0.949 . S
H1866 C1872 0.950 . S
H1867 C1873 0.950 . S
H1868 C1874 0.949 . S
C1869 H1864 0.950 . S
C1869 C1871 1.327 . S
C1869 C1875 1.429 . S
C1870 C1862 1.574 . S
C1870 H1865 0.949 . S
C1870 C1876 1.368 . S
C1871 C1855 1.349 . S
C1871 H1863 0.950 . S
C1871 C1869 1.327 . S
C1872 C1860 1.349 . S
C1872 H1866 0.950 . S
C1872 C1873 1.327 . S
C1873 H1867 0.950 . S
C1873 C1872 1.327 . S
C1873 C1877 1.429 . S
C1874 C1857 1.574 . S
C1874 H1868 0.949 . S
C1874 C1878 1.368 . S
C1875 C1856 1.429 . S
C1875 C1869 1.429 . S
C1875 C1876 1.523 . S
C1876 C1857 1.368 . S
C1876 C1870 1.368 . S
C1876 C1875 1.523 . S
C1877 C1861 1.429 . S
C1877 C1873 1.429 . S
C1877 C1878 1.523 . S
C1878 C1862 1.368 . S
C1878 C1874 1.368 . S
C1878 C1877 1.523 . S
H1879 C1854 0.950 . S
H1880 C1856 0.950 . S
H1881 C1857 0.949 . S
H1882 C1859 0.950 . S
H1883 C1861 0.950 . S
C1884 C1885 1.349 . S
C1884 C1886 1.327 . S
C1884 H1909 0.950 . S
C1885 C1884 1.349 . S
C1885 C1901 1.349 . S
C1886 C1884 1.327 . S
C1886 C1905 1.429 . S
C1886 H1910 0.950 . S
C1887 C1904 1.574 . S
C1887 C1906 1.368 . S
C1887 H1911 0.949 . S
H1888 C1892 0.949 . S
C1889 C1890 1.349 . S
C1889 C1891 1.327 . S
C1889 H1912 0.950 . S
C1890 C1889 1.349 . S
C1890 C1902 1.349 . S
C1891 C1889 1.327 . S
C1891 C1907 1.429 . S
C1891 H1913 0.950 . S
C1892 H1888 0.949 . S
C1892 C1900 1.574 . S
C1892 C1908 1.368 . S
H1893 C1901 0.950 . S
H1894 C1899 0.950 . S
H1895 C1900 0.949 . S
H1896 C1902 0.950 . S
H1897 C1903 0.950 . S
H1898 C1904 0.949 . S
C1899 H1894 0.950 . S
C1899 C1901 1.327 . S
C1899 C1905 1.429 . S
C1900 C1892 1.574 . S
C1900 H1895 0.949 . S
C1900 C1906 1.368 . S
C1901 C1885 1.349 . S
C1901 H1893 0.950 . S
C1901 C1899 1.327 . S
C1902 C1890 1.349 . S
C1902 H1896 0.950 . S
C1902 C1903 1.327 . S
C1903 H1897 0.950 . S
C1903 C1902 1.327 . S
C1903 C1907 1.429 . S
C1904 C1887 1.574 . S
C1904 H1898 0.949 . S
C1904 C1908 1.368 . S
C1905 C1886 1.429 . S
C1905 C1899 1.429 . S
C1905 C1906 1.523 . S
C1906 C1887 1.368 . S
C1906 C1900 1.368 . S
C1906 C1905 1.523 . S
C1907 C1891 1.429 . S
C1907 C1903 1.429 . S
C1907 C1908 1.523 . S
C1908 C1892 1.368 . S
C1908 C1904 1.368 . S
C1908 C1907 1.523 . S
H1909 C1884 0.950 . S
H1910 C1886 0.950 . S
H1911 C1887 0.949 . S
H1912 C1889 0.950 . S
H1913 C1891 0.950 . S
C1914 C1915 1.349 . S
C1914 C1916 1.327 . S
C1914 H1939 0.950 . S
C1915 C1914 1.349 . S
C1915 C1931 1.349 . S
C1916 C1914 1.327 . S
C1916 C1935 1.429 . S
C1916 H1940 0.950 . S
C1917 C1934 1.574 . S
C1917 C1936 1.368 . S
C1917 H1941 0.949 . S
H1918 C1922 0.949 . S
C1919 C1920 1.349 . S
C1919 C1921 1.327 . S
C1919 H1942 0.950 . S
C1920 C1919 1.349 . S
C1920 C1932 1.349 . S
C1921 C1919 1.327 . S
C1921 C1937 1.429 . S
C1921 H1943 0.950 . S
C1922 H1918 0.949 . S
C1922 C1930 1.574 . S
C1922 C1938 1.368 . S
H1923 C1931 0.950 . S
H1924 C1929 0.950 . S
H1925 C1930 0.949 . S
H1926 C1932 0.950 . S
H1927 C1933 0.950 . S
H1928 C1934 0.949 . S
C1929 H1924 0.950 . S
C1929 C1931 1.327 . S
C1929 C1935 1.429 . S
C1930 C1922 1.574 . S
C1930 H1925 0.949 . S
C1930 C1936 1.368 . S
C1931 C1915 1.349 . S
C1931 H1923 0.950 . S
C1931 C1929 1.327 . S
C1932 C1920 1.349 . S
C1932 H1926 0.950 . S
C1932 C1933 1.327 . S
C1933 H1927 0.950 . S
C1933 C1932 1.327 . S
C1933 C1937 1.429 . S
C1934 C1917 1.574 . S
C1934 H1928 0.949 . S
C1934 C1938 1.368 . S
C1935 C1916 1.429 . S
C1935 C1929 1.429 . S
C1935 C1936 1.523 . S
C1936 C1917 1.368 . S
C1936 C1930 1.368 . S
C1936 C1935 1.523 . S
C1937 C1921 1.429 . S
C1937 C1933 1.429 . S
C1937 C1938 1.523 . S
C1938 C1922 1.368 . S
C1938 C1934 1.368 . S
C1938 C1937 1.523 . S
H1939 C1914 0.950 . S
H1940 C1916 0.950 . S
H1941 C1917 0.949 . S
H1942 C1919 0.950 . S
H1943 C1921 0.950 . S
C1944 C1945 1.349 . S
C1944 C1946 1.327 . S
C1944 H1969 0.950 . S
C1945 C1944 1.349 . S
C1945 C1961 1.349 . S
C1946 C1944 1.327 . S
C1946 C1965 1.429 . S
C1946 H1970 0.950 . S
C1947 C1964 1.574 . S
C1947 C1966 1.368 . S
C1947 H1971 0.949 . S
H1948 C1952 0.949 . S
C1949 C1950 1.349 . S
C1949 C1951 1.327 . S
C1949 H1972 0.950 . S
C1950 C1949 1.349 . S
C1950 C1962 1.349 . S
C1951 C1949 1.327 . S
C1951 C1967 1.429 . S
C1951 H1973 0.950 . S
C1952 H1948 0.949 . S
C1952 C1960 1.574 . S
C1952 C1968 1.368 . S
H1953 C1961 0.950 . S
H1954 C1959 0.950 . S
H1955 C1960 0.949 . S
H1956 C1962 0.950 . S
H1957 C1963 0.950 . S
H1958 C1964 0.949 . S
C1959 H1954 0.950 . S
C1959 C1961 1.327 . S
C1959 C1965 1.429 . S
C1960 C1952 1.574 . S
C1960 H1955 0.949 . S
C1960 C1966 1.368 . S
C1961 C1945 1.349 . S
C1961 H1953 0.950 . S
C1961 C1959 1.327 . S
C1962 C1950 1.349 . S
C1962 H1956 0.950 . S
C1962 C1963 1.327 . S
C1963 H1957 0.950 . S
C1963 C1962 1.327 . S
C1963 C1967 1.429 . S
C1964 C1947 1.574 . S
C1964 H1958 0.949 . S
C1964 C1968 1.368 . S
C1965 C1946 1.429 . S
C1965 C1959 1.429 . S
C1965 C1966 1.523 . S
C1966 C1947 1.368 . S
C1966 C1960 1.368 . S
C1966 C1965 1.523 . S
C1967 C1951 1.429 . S
C1967 C1963 1.429 . S
C1967 C1968 1.523 . S
C1968 C1952 1.368 . S
C1968 C1964 1.368 . S
C1968 C1967 1.523 . S
H1969 C1944 0.950 . S
H1970 C1946 0.950 . S
H1971 C1947 0.949 . S
H1972 C1949 0.950 . S
H1973 C1951 0.950 . S
C1974 C1975 1.349 . S
C1974 C1976 1.327 . S
C1974 H1999 0.950 . S
C1975 C1974 1.349 . S
C1975 C1991 1.349 . S
C1976 C1974 1.327 . S
C1976 C1995 1.429 . S
C1976 H2000 0.950 . S
C1977 C1994 1.574 . S
C1977 C1996 1.368 . S
C1977 H2001 0.949 . S
H1978 C1982 0.949 . S
C1979 C1980 1.349 . S
C1979 C1981 1.327 . S
C1979 H2002 0.950 . S
C1980 C1979 1.349 . S
C1980 C1992 1.349 . S
C1981 C1979 1.327 . S
C1981 C1997 1.429 . S
C1981 H2003 0.950 . S
C1982 H1978 0.949 . S
C1982 C1990 1.574 . S
C1982 C1998 1.368 . S
H1983 C1991 0.950 . S
H1984 C1989 0.950 . S
H1985 C1990 0.949 . S
H1986 C1992 0.950 . S
H1987 C1993 0.950 . S
H1988 C1994 0.949 . S
C1989 H1984 0.950 . S
C1989 C1991 1.327 . S
C1989 C1995 1.429 . S
C1990 C1982 1.574 . S
C1990 H1985 0.949 . S
C1990 C1996 1.368 . S
C1991 C1975 1.349 . S
C1991 H1983 0.950 . S
C1991 C1989 1.327 . S
C1992 C1980 1.349 . S
C1992 H1986 0.950 . S
C1992 C1993 1.327 . S
C1993 H1987 0.950 . S
C1993 C1992 1.327 . S
C1993 C1997 1.429 . S
C1994 C1977 1.574 . S
C1994 H1988 0.949 . S
C1994 C1998 1.368 . S
C1995 C1976 1.429 . S
C1995 C1989 1.429 . S
C1995 C1996 1.523 . S
C1996 C1977 1.368 . S
C1996 C1990 1.368 . S
C1996 C1995 1.523 . S
C1997 C1981 1.429 . S
C1997 C1993 1.429 . S
C1997 C1998 1.523 . S
C1998 C1982 1.368 . S
C1998 C1994 1.368 . S
C1998 C1997 1.523 . S
H1999 C1974 0.950 . S
H2000 C1976 0.950 . S
H2001 C1977 0.949 . S
H2002 C1979 0.950 . S
H2003 C1981 0.950 . S
C2004 C2005 1.349 . S
C2004 C2006 1.327 . S
C2004 H2029 0.950 . S
C2005 C2004 1.349 . S
C2005 C2021 1.349 . S
C2006 C2004 1.327 . S
C2006 C2025 1.429 . S
C2006 H2030 0.950 . S
C2007 C2024 1.574 . S
C2007 C2026 1.368 . S
C2007 H2031 0.949 . S
H2008 C2012 0.949 . S
C2009 C2010 1.349 . S
C2009 C2011 1.327 . S
C2009 H2032 0.950 . S
C2010 C2009 1.349 . S
C2010 C2022 1.349 . S
C2011 C2009 1.327 . S
C2011 C2027 1.429 . S
C2011 H2033 0.950 . S
C2012 H2008 0.949 . S
C2012 C2020 1.574 . S
C2012 C2028 1.368 . S
H2013 C2021 0.950 . S
H2014 C2019 0.950 . S
H2015 C2020 0.949 . S
H2016 C2022 0.950 . S
H2017 C2023 0.950 . S
H2018 C2024 0.949 . S
C2019 H2014 0.950 . S
C2019 C2021 1.327 . S
C2019 C2025 1.429 . S
C2020 C2012 1.574 . S
C2020 H2015 0.949 . S
C2020 C2026 1.368 . S
C2021 C2005 1.349 . S
C2021 H2013 0.950 . S
C2021 C2019 1.327 . S
C2022 C2010 1.349 . S
C2022 H2016 0.950 . S
C2022 C2023 1.327 . S
C2023 H2017 0.950 . S
C2023 C2022 1.327 . S
C2023 C2027 1.429 . S
C2024 C2007 1.574 . S
C2024 H2018 0.949 . S
C2024 C2028 1.368 . S
C2025 C2006 1.429 . S
C2025 C2019 1.429 . S
C2025 C2026 1.523 . S
C2026 C2007 1.368 . S
C2026 C2020 1.368 . S
C2026 C2025 1.523 . S
C2027 C2011 1.429 . S
C2027 C2023 1.429 . S
C2027 C2028 1.523 . S
C2028 C2012 1.368 . S
C2028 C2024 1.368 . S
C2028 C2027 1.523 . S
H2029 C2004 0.950 . S
H2030 C2006 0.950 . S
H2031 C2007 0.949 . S
H2032 C2009 0.950 . S
H2033 C2011 0.950 . S
C2034 C2035 1.349 . S
C2034 C2036 1.327 . S
C2034 H2059 0.950 . S
C2035 C2034 1.349 . S
C2035 C2051 1.349 . S
C2036 C2034 1.327 . S
C2036 C2055 1.429 . S
C2036 H2060 0.950 . S
C2037 C2054 1.574 . S
C2037 C2056 1.368 . S
C2037 H2061 0.949 . S
H2038 C2042 0.949 . S
C2039 C2040 1.349 . S
C2039 C2041 1.327 . S
C2039 H2062 0.950 . S
C2040 C2039 1.349 . S
C2040 C2052 1.349 . S
C2041 C2039 1.327 . S
C2041 C2057 1.429 . S
C2041 H2063 0.950 . S
C2042 H2038 0.949 . S
C2042 C2050 1.574 . S
C2042 C2058 1.368 . S
H2043 C2051 0.950 . S
H2044 C2049 0.950 . S
H2045 C2050 0.949 . S
H2046 C2052 0.950 . S
H2047 C2053 0.950 . S
H2048 C2054 0.949 . S
C2049 H2044 0.950 . S
C2049 C2051 1.327 . S
C2049 C2055 1.429 . S
C2050 C2042 1.574 . S
C2050 H2045 0.949 . S
C2050 C2056 1.368 . S
C2051 C2035 1.349 . S
C2051 H2043 0.950 . S
C2051 C2049 1.327 . S
C2052 C2040 1.349 . S
C2052 H2046 0.950 . S
C2052 C2053 1.327 . S
C2053 H2047 0.950 . S
C2053 C2052 1.327 . S
C2053 C2057 1.429 . S
C2054 C2037 1.574 . S
C2054 H2048 0.949 . S
C2054 C2058 1.368 . S
C2055 C2036 1.429 . S
C2055 C2049 1.429 . S
C2055 C2056 1.523 . S
C2056 C2037 1.368 . S
C2056 C2050 1.368 . S
C2056 C2055 1.523 . S
C2057 C2041 1.429 . S
C2057 C2053 1.429 . S
C2057 C2058 1.523 . S
C2058 C2042 1.368 . S
C2058 C2054 1.368 . S
C2058 C2057 1.523 . S
H2059 C2034 0.950 . S
H2060 C2036 0.950 . S
H2061 C2037 0.949 . S
H2062 C2039 0.950 . S
H2063 C2041 0.950 . S
C2064 C2065 1.349 . S
C2064 C2066 1.327 . S
C2064 H2089 0.950 . S
C2065 C2064 1.349 . S
C2065 C2081 1.349 . S
C2066 C2064 1.327 . S
C2066 C2085 1.429 . S
C2066 H2090 0.950 . S
C2067 C2084 1.574 . S
C2067 C2086 1.368 . S
C2067 H2091 0.949 . S
H2068 C2072 0.949 . S
C2069 C2070 1.349 . S
C2069 C2071 1.327 . S
C2069 H2092 0.950 . S
C2070 C2069 1.349 . S
C2070 C2082 1.349 . S
C2071 C2069 1.327 . S
C2071 C2087 1.429 . S
C2071 H2093 0.950 . S
C2072 H2068 0.949 . S
C2072 C2080 1.574 . S
C2072 C2088 1.368 . S
H2073 C2081 0.950 . S
H2074 C2079 0.950 . S
H2075 C2080 0.949 . S
H2076 C2082 0.950 . S
H2077 C2083 0.950 . S
H2078 C2084 0.949 . S
C2079 H2074 0.950 . S
C2079 C2081 1.327 . S
C2079 C2085 1.429 . S
C2080 C2072 1.574 . S
C2080 H2075 0.949 . S
C2080 C2086 1.368 . S
C2081 C2065 1.349 . S
C2081 H2073 0.950 . S
C2081 C2079 1.327 . S
C2082 C2070 1.349 . S
C2082 H2076 0.950 . S
C2082 C2083 1.327 . S
C2083 H2077 0.950 . S
C2083 C2082 1.327 . S
C2083 C2087 1.429 . S
C2084 C2067 1.574 . S
C2084 H2078 0.949 . S
C2084 C2088 1.368 . S
C2085 C2066 1.429 . S
C2085 C2079 1.429 . S
C2085 C2086 1.523 . S
C2086 C2067 1.368 . S
C2086 C2080 1.368 . S
C2086 C2085 1.523 . S
C2087 C2071 1.429 . S
C2087 C2083 1.429 . S
C2087 C2088 1.523 . S
C2088 C2072 1.368 . S
C2088 C2084 1.368 . S
C2088 C2087 1.523 . S
H2089 C2064 0.950 . S
H2090 C2066 0.950 . S
H2091 C2067 0.949 . S
H2092 C2069 0.950 . S
H2093 C2071 0.950 . S
C2094 C2095 1.349 . S
C2094 C2096 1.327 . S
C2094 H2119 0.950 . S
C2095 C2094 1.349 . S
C2095 C2111 1.349 . S
C2096 C2094 1.327 . S
C2096 C2115 1.429 . S
C2096 H2120 0.950 . S
C2097 C2114 1.574 . S
C2097 C2116 1.368 . S
C2097 H2121 0.949 . S
H2098 C2102 0.949 . S
C2099 C2100 1.349 . S
C2099 C2101 1.327 . S
C2099 H2122 0.950 . S
C2100 C2099 1.349 . S
C2100 C2112 1.349 . S
C2101 C2099 1.327 . S
C2101 C2117 1.429 . S
C2101 H2123 0.950 . S
C2102 H2098 0.949 . S
C2102 C2110 1.574 . S
C2102 C2118 1.368 . S
H2103 C2111 0.950 . S
H2104 C2109 0.950 . S
H2105 C2110 0.949 . S
H2106 C2112 0.950 . S
H2107 C2113 0.950 . S
H2108 C2114 0.949 . S
C2109 H2104 0.950 . S
C2109 C2111 1.327 . S
C2109 C2115 1.429 . S
C2110 C2102 1.574 . S
C2110 H2105 0.949 . S
C2110 C2116 1.368 . S
C2111 C2095 1.349 . S
C2111 H2103 0.950 . S
C2111 C2109 1.327 . S
C2112 C2100 1.349 . S
C2112 H2106 0.950 . S
C2112 C2113 1.327 . S
C2113 H2107 0.950 . S
C2113 C2112 1.327 . S
C2113 C2117 1.429 . S
C2114 C2097 1.574 . S
C2114 H2108 0.949 . S
C2114 C2118 1.368 . S
C2115 C2096 1.429 . S
C2115 C2109 1.429 . S
C2115 C2116 1.523 . S
C2116 C2097 1.368 . S
C2116 C2110 1.368 . S
C2116 C2115 1.523 . S
C2117 C2101 1.429 . S
C2117 C2113 1.429 . S
C2117 C2118 1.523 . S
C2118 C2102 1.368 . S
C2118 C2114 1.368 . S
C2118 C2117 1.523 . S
H2119 C2094 0.950 . S
H2120 C2096 0.950 . S
H2121 C2097 0.949 . S
H2122 C2099 0.950 . S
H2123 C2101 0.950 . S
C2124 C2125 1.349 . S
C2124 C2126 1.327 . S
C2124 H2149 0.950 . S
C2125 C2124 1.349 . S
C2125 C2141 1.349 . S
C2126 C2124 1.327 . S
C2126 C2145 1.429 . S
C2126 H2150 0.950 . S
C2127 C2144 1.574 . S
C2127 C2146 1.368 . S
C2127 H2151 0.949 . S
H2128 C2132 0.949 . S
C2129 C2130 1.349 . S
C2129 C2131 1.327 . S
C2129 H2152 0.950 . S
C2130 C2129 1.349 . S
C2130 C2142 1.349 . S
C2131 C2129 1.327 . S
C2131 C2147 1.429 . S
C2131 H2153 0.950 . S
C2132 H2128 0.949 . S
C2132 C2140 1.574 . S
C2132 C2148 1.368 . S
H2133 C2141 0.950 . S
H2134 C2139 0.950 . S
H2135 C2140 0.949 . S
H2136 C2142 0.950 . S
H2137 C2143 0.950 . S
H2138 C2144 0.949 . S
C2139 H2134 0.950 . S
C2139 C2141 1.327 . S
C2139 C2145 1.429 . S
C2140 C2132 1.574 . S
C2140 H2135 0.949 . S
C2140 C2146 1.368 . S
C2141 C2125 1.349 . S
C2141 H2133 0.950 . S
C2141 C2139 1.327 . S
C2142 C2130 1.349 . S
C2142 H2136 0.950 . S
C2142 C2143 1.327 . S
C2143 H2137 0.950 . S
C2143 C2142 1.327 . S
C2143 C2147 1.429 . S
C2144 C2127 1.574 . S
C2144 H2138 0.949 . S
C2144 C2148 1.368 . S
C2145 C2126 1.429 . S
C2145 C2139 1.429 . S
C2145 C2146 1.523 . S
C2146 C2127 1.368 . S
C2146 C2140 1.368 . S
C2146 C2145 1.523 . S
C2147 C2131 1.429 . S
C2147 C2143 1.429 . S
C2147 C2148 1.523 . S
C2148 C2132 1.368 . S
C2148 C2144 1.368 . S
C2148 C2147 1.523 . S
H2149 C2124 0.950 . S
H2150 C2126 0.950 . S
H2151 C2127 0.949 . S
H2152 C2129 0.950 . S
H2153 C2131 0.950 . S
C2154 C2155 1.349 . S
C2154 C2156 1.327 . S
C2154 H2179 0.950 . S
C2155 C2154 1.349 . S
C2155 C2171 1.349 . S
C2156 C2154 1.327 . S
C2156 C2175 1.429 . S
C2156 H2180 0.950 . S
C2157 C2174 1.574 . S
C2157 C2176 1.368 . S
C2157 H2181 0.949 . S
H2158 C2162 0.949 . S
C2159 C2160 1.349 . S
C2159 C2161 1.327 . S
C2159 H2182 0.950 . S
C2160 C2159 1.349 . S
C2160 C2172 1.349 . S
C2161 C2159 1.327 . S
C2161 C2177 1.429 . S
C2161 H2183 0.950 . S
C2162 H2158 0.949 . S
C2162 C2170 1.574 . S
C2162 C2178 1.368 . S
H2163 C2171 0.950 . S
H2164 C2169 0.950 . S
H2165 C2170 0.949 . S
H2166 C2172 0.950 . S
H2167 C2173 0.950 . S
H2168 C2174 0.949 . S
C2169 H2164 0.950 . S
C2169 C2171 1.327 . S
C2169 C2175 1.429 . S
C2170 C2162 1.574 . S
C2170 H2165 0.949 . S
C2170 C2176 1.368 . S
C2171 C2155 1.349 . S
C2171 H2163 0.950 . S
C2171 C2169 1.327 . S
C2172 C2160 1.349 . S
C2172 H2166 0.950 . S
C2172 C2173 1.327 . S
C2173 H2167 0.950 . S
C2173 C2172 1.327 . S
C2173 C2177 1.429 . S
C2174 C2157 1.574 . S
C2174 H2168 0.949 . S
C2174 C2178 1.368 . S
C2175 C2156 1.429 . S
C2175 C2169 1.429 . S
C2175 C2176 1.523 . S
C2176 C2157 1.368 . S
C2176 C2170 1.368 . S
C2176 C2175 1.523 . S
C2177 C2161 1.429 . S
C2177 C2173 1.429 . S
C2177 C2178 1.523 . S
C2178 C2162 1.368 . S
C2178 C2174 1.368 . S
C2178 C2177 1.523 . S
H2179 C2154 0.950 . S
H2180 C2156 0.950 . S
H2181 C2157 0.949 . S
H2182 C2159 0.950 . S
H2183 C2161 0.950 . S
C2184 C2185 1.349 . S
C2184 C2186 1.327 . S
C2184 H2209 0.950 . S
C2185 C2184 1.349 . S
C2185 C2201 1.349 . S
C2186 C2184 1.327 . S
C2186 C2205 1.429 . S
C2186 H2210 0.950 . S
C2187 C2204 1.574 . S
C2187 C2206 1.368 . S
C2187 H2211 0.949 . S
H2188 C2192 0.949 . S
C2189 C2190 1.349 . S
C2189 C2191 1.327 . S
C2189 H2212 0.950 . S
C2190 C2189 1.349 . S
C2190 C2202 1.349 . S
C2191 C2189 1.327 . S
C2191 C2207 1.429 . S
C2191 H2213 0.950 . S
C2192 H2188 0.949 . S
C2192 C2200 1.574 . S
C2192 C2208 1.368 . S
H2193 C2201 0.950 . S
H2194 C2199 0.950 . S
H2195 C2200 0.949 . S
H2196 C2202 0.950 . S
H2197 C2203 0.950 . S
H2198 C2204 0.949 . S
C2199 H2194 0.950 . S
C2199 C2201 1.327 . S
C2199 C2205 1.429 . S
C2200 C2192 1.574 . S
C2200 H2195 0.949 . S
C2200 C2206 1.368 . S
C2201 C2185 1.349 . S
C2201 H2193 0.950 . S
C2201 C2199 1.327 . S
C2202 C2190 1.349 . S
C2202 H2196 0.950 . S
C2202 C2203 1.327 . S
C2203 H2197 0.950 . S
C2203 C2202 1.327 . S
C2203 C2207 1.429 . S
C2204 C2187 1.574 . S
C2204 H2198 0.949 . S
C2204 C2208 1.368 . S
C2205 C2186 1.429 . S
C2205 C2199 1.429 . S
C2205 C2206 1.523 . S
C2206 C2187 1.368 . S
C2206 C2200 1.368 . S
C2206 C2205 1.523 . S
C2207 C2191 1.429 . S
C2207 C2203 1.429 . S
C2207 C2208 1.523 . S
C2208 C2192 1.368 . S
C2208 C2204 1.368 . S
C2208 C2207 1.523 . S
H2209 C2184 0.950 . S
H2210 C2186 0.950 . S
H2211 C2187 0.949 . S
H2212 C2189 0.950 . S
H2213 C2191 0.950 . S
C2214 C2215 1.349 . S
C2214 C2216 1.327 . S
C2214 H2239 0.950 . S
C2215 C2214 1.349 . S
C2215 C2231 1.349 . S
C2216 C2214 1.327 . S
C2216 C2235 1.429 . S
C2216 H2240 0.950 . S
C2217 C2234 1.574 . S
C2217 C2236 1.368 . S
C2217 H2241 0.949 . S
H2218 C2222 0.949 . S
C2219 C2220 1.349 . S
C2219 C2221 1.327 . S
C2219 H2242 0.950 . S
C2220 C2219 1.349 . S
C2220 C2232 1.349 . S
C2221 C2219 1.327 . S
C2221 C2237 1.429 . S
C2221 H2243 0.950 . S
C2222 H2218 0.949 . S
C2222 C2230 1.574 . S
C2222 C2238 1.368 . S
H2223 C2231 0.950 . S
H2224 C2229 0.950 . S
H2225 C2230 0.949 . S
H2226 C2232 0.950 . S
H2227 C2233 0.950 . S
H2228 C2234 0.949 . S
C2229 H2224 0.950 . S
C2229 C2231 1.327 . S
C2229 C2235 1.429 . S
C2230 C2222 1.574 . S
C2230 H2225 0.949 . S
C2230 C2236 1.368 . S
C2231 C2215 1.349 . S
C2231 H2223 0.950 . S
C2231 C2229 1.327 . S
C2232 C2220 1.349 . S
C2232 H2226 0.950 . S
C2232 C2233 1.327 . S
C2233 H2227 0.950 . S
C2233 C2232 1.327 . S
C2233 C2237 1.429 . S
C2234 C2217 1.574 . S
C2234 H2228 0.949 . S
C2234 C2238 1.368 . S
C2235 C2216 1.429 . S
C2235 C2229 1.429 . S
C2235 C2236 1.523 . S
C2236 C2217 1.368 . S
C2236 C2230 1.368 . S
C2236 C2235 1.523 . S
C2237 C2221 1.429 . S
C2237 C2233 1.429 . S
C2237 C2238 1.523 . S
C2238 C2222 1.368 . S
C2238 C2234 1.368 . S
C2238 C2237 1.523 . S
H2239 C2214 0.950 . S
H2240 C2216 0.950 . S
H2241 C2217 0.949 . S
H2242 C2219 0.950 . S
H2243 C2221 0.950 . S
C2244 C2245 1.349 . S
C2244 C2246 1.327 . S
C2244 H2269 0.950 . S
C2245 C2244 1.349 . S
C2245 C2261 1.349 . S
C2246 C2244 1.327 . S
C2246 C2265 1.429 . S
C2246 H2270 0.950 . S
C2247 C2264 1.574 . S
C2247 C2266 1.368 . S
C2247 H2271 0.949 . S
H2248 C2252 0.949 . S
C2249 C2250 1.349 . S
C2249 C2251 1.327 . S
C2249 H2272 0.950 . S
C2250 C2249 1.349 . S
C2250 C2262 1.349 . S
C2251 C2249 1.327 . S
C2251 C2267 1.429 . S
C2251 H2273 0.950 . S
C2252 H2248 0.949 . S
C2252 C2260 1.574 . S
C2252 C2268 1.368 . S
H2253 C2261 0.950 . S
H2254 C2259 0.950 . S
H2255 C2260 0.949 . S
H2256 C2262 0.950 . S
H2257 C2263 0.950 . S
H2258 C2264 0.949 . S
C2259 H2254 0.950 . S
C2259 C2261 1.327 . S
C2259 C2265 1.429 . S
C2260 C2252 1.574 . S
C2260 H2255 0.949 . S
C2260 C2266 1.368 . S
C2261 C2245 1.349 . S
C2261 H2253 0.950 . S
C2261 C2259 1.327 . S
C2262 C2250 1.349 . S
C2262 H2256 0.950 . S
C2262 C2263 1.327 . S
C2263 H2257 0.950 . S
C2263 C2262 1.327 . S
C2263 C2267 1.429 . S
C2264 C2247 1.574 . S
C2264 H2258 0.949 . S
C2264 C2268 1.368 . S
C2265 C2246 1.429 . S
C2265 C2259 1.429 . S
C2265 C2266 1.523 . S
C2266 C2247 1.368 . S
C2266 C2260 1.368 . S
C2266 C2265 1.523 . S
C2267 C2251 1.429 . S
C2267 C2263 1.429 . S
C2267 C2268 1.523 . S
C2268 C2252 1.368 . S
C2268 C2264 1.368 . S
C2268 C2267 1.523 . S
H2269 C2244 0.950 . S
H2270 C2246 0.950 . S
H2271 C2247 0.949 . S
H2272 C2249 0.950 . S
H2273 C2251 0.950 . S
C2274 C2275 1.349 . S
C2274 C2276 1.327 . S
C2274 H2299 0.950 . S
C2275 C2274 1.349 . S
C2275 C2291 1.349 . S
C2276 C2274 1.327 . S
C2276 C2295 1.429 . S
C2276 H2300 0.950 . S
C2277 C2294 1.574 . S
C2277 C2296 1.368 . S
C2277 H2301 0.949 . S
H2278 C2282 0.949 . S
C2279 C2280 1.349 . S
C2279 C2281 1.327 . S
C2279 H2302 0.950 . S
C2280 C2279 1.349 . S
C2280 C2292 1.349 . S
C2281 C2279 1.327 . S
C2281 C2297 1.429 . S
C2281 H2303 0.950 . S
C2282 H2278 0.949 . S
C2282 C2290 1.574 . S
C2282 C2298 1.368 . S
H2283 C2291 0.950 . S
H2284 C2289 0.950 . S
H2285 C2290 0.949 . S
H2286 C2292 0.950 . S
H2287 C2293 0.950 . S
H2288 C2294 0.949 . S
C2289 H2284 0.950 . S
C2289 C2291 1.327 . S
C2289 C2295 1.429 . S
C2290 C2282 1.574 . S
C2290 H2285 0.949 . S
C2290 C2296 1.368 . S
C2291 C2275 1.349 . S
C2291 H2283 0.950 . S
C2291 C2289 1.327 . S
C2292 C2280 1.349 . S
C2292 H2286 0.950 . S
C2292 C2293 1.327 . S
C2293 H2287 0.950 . S
C2293 C2292 1.327 . S
C2293 C2297 1.429 . S
C2294 C2277 1.574 . S
C2294 H2288 0.949 . S
C2294 C2298 1.368 . S
C2295 C2276 1.429 . S
C2295 C2289 1.429 . S
C2295 C2296 1.523 . S
C2296 C2277 1.368 . S
C2296 C2290 1.368 . S
C2296 C2295 1.523 . S
C2297 C2281 1.429 . S
C2297 C2293 1.429 . S
C2297 C2298 1.523 . S
C2298 C2282 1.368 . S
C2298 C2294 1.368 . S
C2298 C2297 1.523 . S
H2299 C2274 0.950 . S
H2300 C2276 0.950 . S
H2301 C2277 0.949 . S
H2302 C2279 0.950 . S
H2303 C2281 0.950 . S
C2304 C2305 1.349 . S
C2304 C2306 1.327 . S
C2304 H2329 0.950 . S
C2305 C2304 1.349 . S
C2305 C2321 1.349 . S
C2306 C2304 1.327 . S
C2306 C2325 1.429 . S
C2306 H2330 0.950 . S
C2307 C2324 1.574 . S
C2307 C2326 1.368 . S
C2307 H2331 0.949 . S
H2308 C2312 0.949 . S
C2309 C2310 1.349 . S
C2309 C2311 1.327 . S
C2309 H2332 0.950 . S
C2310 C2309 1.349 . S
C2310 C2322 1.349 . S
C2311 C2309 1.327 . S
C2311 C2327 1.429 . S
C2311 H2333 0.950 . S
C2312 H2308 0.949 . S
C2312 C2320 1.574 . S
C2312 C2328 1.368 . S
H2313 C2321 0.950 . S
H2314 C2319 0.950 . S
H2315 C2320 0.949 . S
H2316 C2322 0.950 . S
H2317 C2323 0.950 . S
H2318 C2324 0.949 . S
C2319 H2314 0.950 . S
C2319 C2321 1.327 . S
C2319 C2325 1.429 . S
C2320 C2312 1.574 . S
C2320 H2315 0.949 . S
C2320 C2326 1.368 . S
C2321 C2305 1.349 . S
C2321 H2313 0.950 . S
C2321 C2319 1.327 . S
C2322 C2310 1.349 . S
C2322 H2316 0.950 . S
C2322 C2323 1.327 . S
C2323 H2317 0.950 . S
C2323 C2322 1.327 . S
C2323 C2327 1.429 . S
C2324 C2307 1.574 . S
C2324 H2318 0.949 . S
C2324 C2328 1.368 . S
C2325 C2306 1.429 . S
C2325 C2319 1.429 . S
C2325 C2326 1.523 . S
C2326 C2307 1.368 . S
C2326 C2320 1.368 . S
C2326 C2325 1.523 . S
C2327 C2311 1.429 . S
C2327 C2323 1.429 . S
C2327 C2328 1.523 . S
C2328 C2312 1.368 . S
C2328 C2324 1.368 . S
C2328 C2327 1.523 . S
H2329 C2304 0.950 . S
H2330 C2306 0.950 . S
H2331 C2307 0.949 . S
H2332 C2309 0.950 . S
H2333 C2311 0.950 . S
C2334 C2335 1.349 . S
C2334 C2336 1.327 . S
C2334 H2359 0.950 . S
C2335 C2334 1.349 . S
C2335 C2351 1.349 . S
C2336 C2334 1.327 . S
C2336 C2355 1.429 . S
C2336 H2360 0.950 . S
C2337 C2354 1.574 . S
C2337 C2356 1.368 . S
C2337 H2361 0.949 . S
H2338 C2342 0.949 . S
C2339 C2340 1.349 . S
C2339 C2341 1.327 . S
C2339 H2362 0.950 . S
C2340 C2339 1.349 . S
C2340 C2352 1.349 . S
C2341 C2339 1.327 . S
C2341 C2357 1.429 . S
C2341 H2363 0.950 . S
C2342 H2338 0.949 . S
C2342 C2350 1.574 . S
C2342 C2358 1.368 . S
H2343 C2351 0.950 . S
H2344 C2349 0.950 . S
H2345 C2350 0.949 . S
H2346 C2352 0.950 . S
H2347 C2353 0.950 . S
H2348 C2354 0.949 . S
C2349 H2344 0.950 . S
C2349 C2351 1.327 . S
C2349 C2355 1.429 . S
C2350 C2342 1.574 . S
C2350 H2345 0.949 . S
C2350 C2356 1.368 . S
C2351 C2335 1.349 . S
C2351 H2343 0.950 . S
C2351 C2349 1.327 . S
C2352 C2340 1.349 . S
C2352 H2346 0.950 . S
C2352 C2353 1.327 . S
C2353 H2347 0.950 . S
C2353 C2352 1.327 . S
C2353 C2357 1.429 . S
C2354 C2337 1.574 . S
C2354 H2348 0.949 . S
C2354 C2358 1.368 . S
C2355 C2336 1.429 . S
C2355 C2349 1.429 . S
C2355 C2356 1.523 . S
C2356 C2337 1.368 . S
C2356 C2350 1.368 . S
C2356 C2355 1.523 . S
C2357 C2341 1.429 . S
C2357 C2353 1.429 . S
C2357 C2358 1.523 . S
C2358 C2342 1.368 . S
C2358 C2354 1.368 . S
C2358 C2357 1.523 . S
H2359 C2334 0.950 . S
H2360 C2336 0.950 . S
H2361 C2337 0.949 . S
H2362 C2339 0.950 . S
H2363 C2341 0.950 . S
C2364 C2365 1.349 . S
C2364 C2366 1.327 . S
C2364 H2389 0.950 . S
C2365 C2364 1.349 . S
C2365 C2381 1.349 . S
C2366 C2364 1.327 . S
C2366 C2385 1.429 . S
C2366 H2390 0.950 . S
C2367 C2384 1.574 . S
C2367 C2386 1.368 . S
C2367 H2391 0.949 . S
H2368 C2372 0.949 . S
C2369 C2370 1.349 . S
C2369 C2371 1.327 . S
C2369 H2392 0.950 . S
C2370 C2369 1.349 . S
C2370 C2382 1.349 . S
C2371 C2369 1.327 . S
C2371 C2387 1.429 . S
C2371 H2393 0.950 . S
C2372 H2368 0.949 . S
C2372 C2380 1.574 . S
C2372 C2388 1.368 . S
H2373 C2381 0.950 . S
H2374 C2379 0.950 . S
H2375 C2380 0.949 . S
H2376 C2382 0.950 . S
H2377 C2383 0.950 . S
H2378 C2384 0.949 . S
C2379 H2374 0.950 . S
C2379 C2381 1.327 . S
C2379 C2385 1.429 . S
C2380 C2372 1.574 . S
C2380 H2375 0.949 . S
C2380 C2386 1.368 . S
C2381 C2365 1.349 . S
C2381 H2373 0.950 . S
C2381 C2379 1.327 . S
C2382 C2370 1.349 . S
C2382 H2376 0.950 . S
C2382 C2383 1.327 . S
C2383 H2377 0.950 . S
C2383 C2382 1.327 . S
C2383 C2387 1.429 . S
C2384 C2367 1.574 . S
C2384 H2378 0.949 . S
C2384 C2388 1.368 . S
C2385 C2366 1.429 . S
C2385 C2379 1.429 . S
C2385 C2386 1.523 . S
C2386 C2367 1.368 . S
C2386 C2380 1.368 . S
C2386 C2385 1.523 . S
C2387 C2371 1.429 . S
C2387 C2383 1.429 . S
C2387 C2388 1.523 . S
C2388 C2372 1.368 . S
C2388 C2384 1.368 . S
C2388 C2387 1.523 . S
H2389 C2364 0.950 . S
H2390 C2366 0.950 . S
H2391 C2367 0.949 . S
H2392 C2369 0.950 . S
H2393 C2371 0.950 . S
C2394 C2395 1.349 . S
C2394 C2396 1.327 . S
C2394 H2419 0.950 . S
C2395 C2394 1.349 . S
C2395 C2411 1.349 . S
C2396 C2394 1.327 . S
C2396 C2415 1.429 . S
C2396 H2420 0.950 . S
C2397 C2414 1.574 . S
C2397 C2416 1.368 . S
C2397 H2421 0.949 . S
H2398 C2402 0.949 . S
C2399 C2400 1.349 . S
C2399 C2401 1.327 . S
C2399 H2422 0.950 . S
C2400 C2399 1.349 . S
C2400 C2412 1.349 . S
C2401 C2399 1.327 . S
C2401 C2417 1.429 . S
C2401 H2423 0.950 . S
C2402 H2398 0.949 . S
C2402 C2410 1.574 . S
C2402 C2418 1.368 . S
H2403 C2411 0.950 . S
H2404 C2409 0.950 . S
H2405 C2410 0.949 . S
H2406 C2412 0.950 . S
H2407 C2413 0.950 . S
H2408 C2414 0.949 . S
C2409 H2404 0.950 . S
C2409 C2411 1.327 . S
C2409 C2415 1.429 . S
C2410 C2402 1.574 . S
C2410 H2405 0.949 . S
C2410 C2416 1.368 . S
C2411 C2395 1.349 . S
C2411 H2403 0.950 . S
C2411 C2409 1.327 . S
C2412 C2400 1.349 . S
C2412 H2406 0.950 . S
C2412 C2413 1.327 . S
C2413 H2407 0.950 . S
C2413 C2412 1.327 . S
C2413 C2417 1.429 . S
C2414 C2397 1.574 . S
C2414 H2408 0.949 . S
C2414 C2418 1.368 . S
C2415 C2396 1.429 . S
C2415 C2409 1.429 . S
C2415 C2416 1.523 . S
C2416 C2397 1.368 . S
C2416 C2410 1.368 . S
C2416 C2415 1.523 . S
C2417 C2401 1.429 . S
C2417 C2413 1.429 . S
C2417 C2418 1.523 . S
C2418 C2402 1.368 . S
C2418 C2414 1.368 . S
C2418 C2417 1.523 . S
H2419 C2394 0.950 . S
H2420 C2396 0.950 . S
H2421 C2397 0.949 . S
H2422 C2399 0.950 . S
H2423 C2401 0.950 . S
C2424 C2425 1.349 . S
C2424 C2426 1.327 . S
C2424 H2449 0.950 . S
C2425 C2424 1.349 . S
C2425 C2441 1.349 . S
C2426 C2424 1.327 . S
C2426 C2445 1.429 . S
C2426 H2450 0.950 . S
C2427 C2444 1.574 . S
C2427 C2446 1.368 . S
C2427 H2451 0.949 . S
H2428 C2432 0.949 . S
C2429 C2430 1.349 . S
C2429 C2431 1.327 . S
C2429 H2452 0.950 . S
C2430 C2429 1.349 . S
C2430 C2442 1.349 . S
C2431 C2429 1.327 . S
C2431 C2447 1.429 . S
C2431 H2453 0.950 . S
C2432 H2428 0.949 . S
C2432 C2440 1.574 . S
C2432 C2448 1.368 . S
H2433 C2441 0.950 . S
H2434 C2439 0.950 . S
H2435 C2440 0.949 . S
H2436 C2442 0.950 . S
H2437 C2443 0.950 . S
H2438 C2444 0.949 . S
C2439 H2434 0.950 . S
C2439 C2441 1.327 . S
C2439 C2445 1.429 . S
C2440 C2432 1.574 . S
C2440 H2435 0.949 . S
C2440 C2446 1.368 . S
C2441 C2425 1.349 . S
C2441 H2433 0.950 . S
C2441 C2439 1.327 . S
C2442 C2430 1.349 . S
C2442 H2436 0.950 . S
C2442 C2443 1.327 . S
C2443 H2437 0.950 . S
C2443 C2442 1.327 . S
C2443 C2447 1.429 . S
C2444 C2427 1.574 . S
C2444 H2438 0.949 . S
C2444 C2448 1.368 . S
C2445 C2426 1.429 . S
C2445 C2439 1.429 . S
C2445 C2446 1.523 . S
C2446 C2427 1.368 . S
C2446 C2440 1.368 . S
C2446 C2445 1.523 . S
C2447 C2431 1.429 . S
C2447 C2443 1.429 . S
C2447 C2448 1.523 . S
C2448 C2432 1.368 . S
C2448 C2444 1.368 . S
C2448 C2447 1.523 . S
H2449 C2424 0.950 . S
H2450 C2426 0.950 . S
H2451 C2427 0.949 . S
H2452 C2429 0.950 . S
H2453 C2431 0.950 . S
C2454 C2455 1.349 . S
C2454 C2456 1.327 . S
C2454 H2479 0.950 . S
C2455 C2454 1.349 . S
C2455 C2471 1.349 . S
C2456 C2454 1.327 . S
C2456 C2475 1.429 . S
C2456 H2480 0.950 . S
C2457 C2474 1.574 . S
C2457 C2476 1.368 . S
C2457 H2481 0.949 . S
H2458 C2462 0.949 . S
C2459 C2460 1.349 . S
C2459 C2461 1.327 . S
C2459 H2482 0.950 . S
C2460 C2459 1.349 . S
C2460 C2472 1.349 . S
C2461 C2459 1.327 . S
C2461 C2477 1.429 . S
C2461 H2483 0.950 . S
C2462 H2458 0.949 . S
C2462 C2470 1.574 . S
C2462 C2478 1.368 . S
H2463 C2471 0.950 . S
H2464 C2469 0.950 . S
H2465 C2470 0.949 . S
H2466 C2472 0.950 . S
H2467 C2473 0.950 . S
H2468 C2474 0.949 . S
C2469 H2464 0.950 . S
C2469 C2471 1.327 . S
C2469 C2475 1.429 . S
C2470 C2462 1.574 . S
C2470 H2465 0.949 . S
C2470 C2476 1.368 . S
C2471 C2455 1.349 . S
C2471 H2463 0.950 . S
C2471 C2469 1.327 . S
C2472 C2460 1.349 . S
C2472 H2466 0.950 . S
C2472 C2473 1.327 . S
C2473 H2467 0.950 . S
C2473 C2472 1.327 . S
C2473 C2477 1.429 . S
C2474 C2457 1.574 . S
C2474 H2468 0.949 . S
C2474 C2478 1.368 . S
C2475 C2456 1.429 . S
C2475 C2469 1.429 . S
C2475 C2476 1.523 . S
C2476 C2457 1.368 . S
C2476 C2470 1.368 . S
C2476 C2475 1.523 . S
C2477 C2461 1.429 . S
C2477 C2473 1.429 . S
C2477 C2478 1.523 . S
C2478 C2462 1.368 . S
C2478 C2474 1.368 . S
C2478 C2477 1.523 . S
H2479 C2454 0.950 . S
H2480 C2456 0.950 . S
H2481 C2457 0.949 . S
H2482 C2459 0.950 . S
H2483 C2461 0.950 . S
C2484 C2485 1.349 . S
C2484 C2486 1.327 . S
C2484 H2509 0.950 . S
C2485 C2484 1.349 . S
C2485 C2501 1.349 . S
C2486 C2484 1.327 . S
C2486 C2505 1.429 . S
C2486 H2510 0.950 . S
C2487 C2504 1.574 . S
C2487 C2506 1.368 . S
C2487 H2511 0.949 . S
H2488 C2492 0.949 . S
C2489 C2490 1.349 . S
C2489 C2491 1.327 . S
C2489 H2512 0.950 . S
C2490 C2489 1.349 . S
C2490 C2502 1.349 . S
C2491 C2489 1.327 . S
C2491 C2507 1.429 . S
C2491 H2513 0.950 . S
C2492 H2488 0.949 . S
C2492 C2500 1.574 . S
C2492 C2508 1.368 . S
H2493 C2501 0.950 . S
H2494 C2499 0.950 . S
H2495 C2500 0.949 . S
H2496 C2502 0.950 . S
H2497 C2503 0.950 . S
H2498 C2504 0.949 . S
C2499 H2494 0.950 . S
C2499 C2501 1.327 . S
C2499 C2505 1.429 . S
C2500 C2492 1.574 . S
C2500 H2495 0.949 . S
C2500 C2506 1.368 . S
C2501 C2485 1.349 . S
C2501 H2493 0.950 . S
C2501 C2499 1.327 . S
C2502 C2490 1.349 . S
C2502 H2496 0.950 . S
C2502 C2503 1.327 . S
C2503 H2497 0.950 . S
C2503 C2502 1.327 . S
C2503 C2507 1.429 . S
C2504 C2487 1.574 . S
C2504 H2498 0.949 . S
C2504 C2508 1.368 . S
C2505 C2486 1.429 . S
C2505 C2499 1.429 . S
C2505 C2506 1.523 . S
C2506 C2487 1.368 . S
C2506 C2500 1.368 . S
C2506 C2505 1.523 . S
C2507 C2491 1.429 . S
C2507 C2503 1.429 . S
C2507 C2508 1.523 . S
C2508 C2492 1.368 . S
C2508 C2504 1.368 . S
C2508 C2507 1.523 . S
H2509 C2484 0.950 . S
H2510 C2486 0.950 . S
H2511 C2487 0.949 . S
H2512 C2489 0.950 . S
H2513 C2491 0.950 . S
C2514 C2515 1.349 . S
C2514 C2516 1.327 . S
C2514 H2539 0.950 . S
C2515 C2514 1.349 . S
C2515 C2531 1.349 . S
C2516 C2514 1.327 . S
C2516 C2535 1.429 . S
C2516 H2540 0.950 . S
C2517 C2534 1.574 . S
C2517 C2536 1.368 . S
C2517 H2541 0.949 . S
H2518 C2522 0.949 . S
C2519 C2520 1.349 . S
C2519 C2521 1.327 . S
C2519 H2542 0.950 . S
C2520 C2519 1.349 . S
C2520 C2532 1.349 . S
C2521 C2519 1.327 . S
C2521 C2537 1.429 . S
C2521 H2543 0.950 . S
C2522 H2518 0.949 . S
C2522 C2530 1.574 . S
C2522 C2538 1.368 . S
H2523 C2531 0.950 . S
H2524 C2529 0.950 . S
H2525 C2530 0.949 . S
H2526 C2532 0.950 . S
H2527 C2533 0.950 . S
H2528 C2534 0.949 . S
C2529 H2524 0.950 . S
C2529 C2531 1.327 . S
C2529 C2535 1.429 . S
C2530 C2522 1.574 . S
C2530 H2525 0.949 . S
C2530 C2536 1.368 . S
C2531 C2515 1.349 . S
C2531 H2523 0.950 . S
C2531 C2529 1.327 . S
C2532 C2520 1.349 . S
C2532 H2526 0.950 . S
C2532 C2533 1.327 . S
C2533 H2527 0.950 . S
C2533 C2532 1.327 . S
C2533 C2537 1.429 . S
C2534 C2517 1.574 . S
C2534 H2528 0.949 . S
C2534 C2538 1.368 . S
C2535 C2516 1.429 . S
C2535 C2529 1.429 . S
C2535 C2536 1.523 . S
C2536 C2517 1.368 . S
C2536 C2530 1.368 . S
C2536 C2535 1.523 . S
C2537 C2521 1.429 . S
C2537 C2533 1.429 . S
C2537 C2538 1.523 . S
C2538 C2522 1.368 . S
C2538 C2534 1.368 . S
C2538 C2537 1.523 . S
H2539 C2514 0.950 . S
H2540 C2516 0.950 . S
H2541 C2517 0.949 . S
H2542 C2519 0.950 . S
H2543 C2521 0.950 . S
C2544 C2545 1.349 . S
C2544 C2546 1.327 . S
C2544 H2569 0.950 . S
C2545 C2544 1.349 . S
C2545 C2561 1.349 . S
C2546 C2544 1.327 . S
C2546 C2565 1.429 . S
C2546 H2570 0.950 . S
C2547 C2564 1.574 . S
C2547 C2566 1.368 . S
C2547 H2571 0.949 . S
H2548 C2552 0.949 . S
C2549 C2550 1.349 . S
C2549 C2551 1.327 . S
C2549 H2572 0.950 . S
C2550 C2549 1.349 . S
C2550 C2562 1.349 . S
C2551 C2549 1.327 . S
C2551 C2567 1.429 . S
C2551 H2573 0.950 . S
C2552 H2548 0.949 . S
C2552 C2560 1.574 . S
C2552 C2568 1.368 . S
H2553 C2561 0.950 . S
H2554 C2559 0.950 . S
H2555 C2560 0.949 . S
H2556 C2562 0.950 . S
H2557 C2563 0.950 . S
H2558 C2564 0.949 . S
C2559 H2554 0.950 . S
C2559 C2561 1.327 . S
C2559 C2565 1.429 . S
C2560 C2552 1.574 . S
C2560 H2555 0.949 . S
C2560 C2566 1.368 . S
C2561 C2545 1.349 . S
C2561 H2553 0.950 . S
C2561 C2559 1.327 . S
C2562 C2550 1.349 . S
C2562 H2556 0.950 . S
C2562 C2563 1.327 . S
C2563 H2557 0.950 . S
C2563 C2562 1.327 . S
C2563 C2567 1.429 . S
C2564 C2547 1.574 . S
C2564 H2558 0.949 . S
C2564 C2568 1.368 . S
C2565 C2546 1.429 . S
C2565 C2559 1.429 . S
C2565 C2566 1.523 . S
C2566 C2547 1.368 . S
C2566 C2560 1.368 . S
C2566 C2565 1.523 . S
C2567 C2551 1.429 . S
C2567 C2563 1.429 . S
C2567 C2568 1.523 . S
C2568 C2552 1.368 . S
C2568 C2564 1.368 . S
C2568 C2567 1.523 . S
H2569 C2544 0.950 . S
H2570 C2546 0.950 . S
H2571 C2547 0.949 . S
H2572 C2549 0.950 . S
H2573 C2551 0.950 . S
C2574 C2575 1.349 . S
C2574 C2576 1.327 . S
C2574 H2599 0.950 . S
C2575 C2574 1.349 . S
C2575 C2591 1.349 . S
C2576 C2574 1.327 . S
C2576 C2595 1.429 . S
C2576 H2600 0.950 . S
C2577 C2594 1.574 . S
C2577 C2596 1.368 . S
C2577 H2601 0.949 . S
H2578 C2582 0.949 . S
C2579 C2580 1.349 . S
C2579 C2581 1.327 . S
C2579 H2602 0.950 . S
C2580 C2579 1.349 . S
C2580 C2592 1.349 . S
C2581 C2579 1.327 . S
C2581 C2597 1.429 . S
C2581 H2603 0.950 . S
C2582 H2578 0.949 . S
C2582 C2590 1.574 . S
C2582 C2598 1.368 . S
H2583 C2591 0.950 . S
H2584 C2589 0.950 . S
H2585 C2590 0.949 . S
H2586 C2592 0.950 . S
H2587 C2593 0.950 . S
H2588 C2594 0.949 . S
C2589 H2584 0.950 . S
C2589 C2591 1.327 . S
C2589 C2595 1.429 . S
C2590 C2582 1.574 . S
C2590 H2585 0.949 . S
C2590 C2596 1.368 . S
C2591 C2575 1.349 . S
C2591 H2583 0.950 . S
C2591 C2589 1.327 . S
C2592 C2580 1.349 . S
C2592 H2586 0.950 . S
C2592 C2593 1.327 . S
C2593 H2587 0.950 . S
C2593 C2592 1.327 . S
C2593 C2597 1.429 . S
C2594 C2577 1.574 . S
C2594 H2588 0.949 . S
C2594 C2598 1.368 . S
C2595 C2576 1.429 . S
C2595 C2589 1.429 . S
C2595 C2596 1.523 . S
C2596 C2577 1.368 . S
C2596 C2590 1.368 . S
C2596 C2595 1.523 . S
C2597 C2581 1.429 . S
C2597 C2593 1.429 . S
C2597 C2598 1.523 . S
C2598 C2582 1.368 . S
C2598 C2594 1.368 . S
C2598 C2597 1.523 . S
H2599 C2574 0.950 . S
H2600 C2576 0.950 . S
H2601 C2577 0.949 . S
H2602 C2579 0.950 . S
H2603 C2581 0.950 . S
C2604 C2605 1.349 . S
C2604 C2606 1.327 . S
C2604 H2629 0.950 . S
C2605 C2604 1.349 . S
C2605 C2621 1.349 . S
C2606 C2604 1.327 . S
C2606 C2625 1.429 . S
C2606 H2630 0.950 . S
C2607 C2624 1.574 . S
C2607 C2626 1.368 . S
C2607 H2631 0.949 . S
H2608 C2612 0.949 . S
C2609 C2610 1.349 . S
C2609 C2611 1.327 . S
C2609 H2632 0.950 . S
C2610 C2609 1.349 . S
C2610 C2622 1.349 . S
C2611 C2609 1.327 . S
C2611 C2627 1.429 . S
C2611 H2633 0.950 . S
C2612 H2608 0.949 . S
C2612 C2620 1.574 . S
C2612 C2628 1.368 . S
H2613 C2621 0.950 . S
H2614 C2619 0.950 . S
H2615 C2620 0.949 . S
H2616 C2622 0.950 . S
H2617 C2623 0.950 . S
H2618 C2624 0.949 . S
C2619 H2614 0.950 . S
C2619 C2621 1.327 . S
C2619 C2625 1.429 . S
C2620 C2612 1.574 . S
C2620 H2615 0.949 . S
C2620 C2626 1.368 . S
C2621 C2605 1.349 . S
C2621 H2613 0.950 . S
C2621 C2619 1.327 . S
C2622 C2610 1.349 . S
C2622 H2616 0.950 . S
C2622 C2623 1.327 . S
C2623 H2617 0.950 . S
C2623 C2622 1.327 . S
C2623 C2627 1.429 . S
C2624 C2607 1.574 . S
C2624 H2618 0.949 . S
C2624 C2628 1.368 . S
C2625 C2606 1.429 . S
C2625 C2619 1.429 . S
C2625 C2626 1.523 . S
C2626 C2607 1.368 . S
C2626 C2620 1.368 . S
C2626 C2625 1.523 . S
C2627 C2611 1.429 . S
C2627 C2623 1.429 . S
C2627 C2628 1.523 . S
C2628 C2612 1.368 . S
C2628 C2624 1.368 . S
C2628 C2627 1.523 . S
H2629 C2604 0.950 . S
H2630 C2606 0.950 . S
H2631 C2607 0.949 . S
H2632 C2609 0.950 . S
H2633 C2611 0.950 . S
C2634 C2635 1.349 . S
C2634 C2636 1.327 . S
C2634 H2659 0.950 . S
C2635 C2634 1.349 . S
C2635 C2651 1.349 . S
C2636 C2634 1.327 . S
C2636 C2655 1.429 . S
C2636 H2660 0.950 . S
C2637 C2654 1.574 . S
C2637 C2656 1.368 . S
C2637 H2661 0.949 . S
H2638 C2642 0.949 . S
C2639 C2640 1.349 . S
C2639 C2641 1.327 . S
C2639 H2662 0.950 . S
C2640 C2639 1.349 . S
C2640 C2652 1.349 . S
C2641 C2639 1.327 . S
C2641 C2657 1.429 . S
C2641 H2663 0.950 . S
C2642 H2638 0.949 . S
C2642 C2650 1.574 . S
C2642 C2658 1.368 . S
H2643 C2651 0.950 . S
H2644 C2649 0.950 . S
H2645 C2650 0.949 . S
H2646 C2652 0.950 . S
H2647 C2653 0.950 . S
H2648 C2654 0.949 . S
C2649 H2644 0.950 . S
C2649 C2651 1.327 . S
C2649 C2655 1.429 . S
C2650 C2642 1.574 . S
C2650 H2645 0.949 . S
C2650 C2656 1.368 . S
C2651 C2635 1.349 . S
C2651 H2643 0.950 . S
C2651 C2649 1.327 . S
C2652 C2640 1.349 . S
C2652 H2646 0.950 . S
C2652 C2653 1.327 . S
C2653 H2647 0.950 . S
C2653 C2652 1.327 . S
C2653 C2657 1.429 . S
C2654 C2637 1.574 . S
C2654 H2648 0.949 . S
C2654 C2658 1.368 . S
C2655 C2636 1.429 . S
C2655 C2649 1.429 . S
C2655 C2656 1.523 . S
C2656 C2637 1.368 . S
C2656 C2650 1.368 . S
C2656 C2655 1.523 . S
C2657 C2641 1.429 . S
C2657 C2653 1.429 . S
C2657 C2658 1.523 . S
C2658 C2642 1.368 . S
C2658 C2654 1.368 . S
C2658 C2657 1.523 . S
H2659 C2634 0.950 . S
H2660 C2636 0.950 . S
H2661 C2637 0.949 . S
H2662 C2639 0.950 . S
H2663 C2641 0.950 . S
C2664 C2665 1.349 . S
C2664 C2666 1.327 . S
C2664 H2689 0.950 . S
C2665 C2664 1.349 . S
C2665 C2681 1.349 . S
C2666 C2664 1.327 . S
C2666 C2685 1.429 . S
C2666 H2690 0.950 . S
C2667 C2684 1.574 . S
C2667 C2686 1.368 . S
C2667 H2691 0.949 . S
H2668 C2672 0.949 . S
C2669 C2670 1.349 . S
C2669 C2671 1.327 . S
C2669 H2692 0.950 . S
C2670 C2669 1.349 . S
C2670 C2682 1.349 . S
C2671 C2669 1.327 . S
C2671 C2687 1.429 . S
C2671 H2693 0.950 . S
C2672 H2668 0.949 . S
C2672 C2680 1.574 . S
C2672 C2688 1.368 . S
H2673 C2681 0.950 . S
H2674 C2679 0.950 . S
H2675 C2680 0.949 . S
H2676 C2682 0.950 . S
H2677 C2683 0.950 . S
H2678 C2684 0.949 . S
C2679 H2674 0.950 . S
C2679 C2681 1.327 . S
C2679 C2685 1.429 . S
C2680 C2672 1.574 . S
C2680 H2675 0.949 . S
C2680 C2686 1.368 . S
C2681 C2665 1.349 . S
C2681 H2673 0.950 . S
C2681 C2679 1.327 . S
C2682 C2670 1.349 . S
C2682 H2676 0.950 . S
C2682 C2683 1.327 . S
C2683 H2677 0.950 . S
C2683 C2682 1.327 . S
C2683 C2687 1.429 . S
C2684 C2667 1.574 . S
C2684 H2678 0.949 . S
C2684 C2688 1.368 . S
C2685 C2666 1.429 . S
C2685 C2679 1.429 . S
C2685 C2686 1.523 . S
C2686 C2667 1.368 . S
C2686 C2680 1.368 . S
C2686 C2685 1.523 . S
C2687 C2671 1.429 . S
C2687 C2683 1.429 . S
C2687 C2688 1.523 . S
C2688 C2672 1.368 . S
C2688 C2684 1.368 . S
C2688 C2687 1.523 . S
H2689 C2664 0.950 . S
H2690 C2666 0.950 . S
H2691 C2667 0.949 . S
H2692 C2669 0.950 . S
H2693 C2671 0.950 . S
C2694 C2695 1.349 . S
C2694 C2696 1.327 . S
C2694 H2719 0.950 . S
C2695 C2694 1.349 . S
C2695 C2711 1.349 . S
C2696 C2694 1.327 . S
C2696 C2715 1.429 . S
C2696 H2720 0.950 . S
C2697 C2714 1.574 . S
C2697 C2716 1.368 . S
C2697 H2721 0.949 . S
H2698 C2702 0.949 . S
C2699 C2700 1.349 . S
C2699 C2701 1.327 . S
C2699 H2722 0.950 . S
C2700 C2699 1.349 . S
C2700 C2712 1.349 . S
C2701 C2699 1.327 . S
C2701 C2717 1.429 . S
C2701 H2723 0.950 . S
C2702 H2698 0.949 . S
C2702 C2710 1.574 . S
C2702 C2718 1.368 . S
H2703 C2711 0.950 . S
H2704 C2709 0.950 . S
H2705 C2710 0.949 . S
H2706 C2712 0.950 . S
H2707 C2713 0.950 . S
H2708 C2714 0.949 . S
C2709 H2704 0.950 . S
C2709 C2711 1.327 . S
C2709 C2715 1.429 . S
C2710 C2702 1.574 . S
C2710 H2705 0.949 . S
C2710 C2716 1.368 . S
C2711 C2695 1.349 . S
C2711 H2703 0.950 . S
C2711 C2709 1.327 . S
C2712 C2700 1.349 . S
C2712 H2706 0.950 . S
C2712 C2713 1.327 . S
C2713 H2707 0.950 . S
C2713 C2712 1.327 . S
C2713 C2717 1.429 . S
C2714 C2697 1.574 . S
C2714 H2708 0.949 . S
C2714 C2718 1.368 . S
C2715 C2696 1.429 . S
C2715 C2709 1.429 . S
C2715 C2716 1.523 . S
C2716 C2697 1.368 . S
C2716 C2710 1.368 . S
C2716 C2715 1.523 . S
C2717 C2701 1.429 . S
C2717 C2713 1.429 . S
C2717 C2718 1.523 . S
C2718 C2702 1.368 . S
C2718 C2714 1.368 . S
C2718 C2717 1.523 . S
H2719 C2694 0.950 . S
H2720 C2696 0.950 . S
H2721 C2697 0.949 . S
H2722 C2699 0.950 . S
H2723 C2701 0.950 . S
C2724 C2725 1.349 . S
C2724 C2726 1.327 . S
C2724 H2749 0.950 . S
C2725 C2724 1.349 . S
C2725 C2741 1.349 . S
C2726 C2724 1.327 . S
C2726 C2745 1.429 . S
C2726 H2750 0.950 . S
C2727 C2744 1.574 . S
C2727 C2746 1.368 . S
C2727 H2751 0.949 . S
H2728 C2732 0.949 . S
C2729 C2730 1.349 . S
C2729 C2731 1.327 . S
C2729 H2752 0.950 . S
C2730 C2729 1.349 . S
C2730 C2742 1.349 . S
C2731 C2729 1.327 . S
C2731 C2747 1.429 . S
C2731 H2753 0.950 . S
C2732 H2728 0.949 . S
C2732 C2740 1.574 . S
C2732 C2748 1.368 . S
H2733 C2741 0.950 . S
H2734 C2739 0.950 . S
H2735 C2740 0.949 . S
H2736 C2742 0.950 . S
H2737 C2743 0.950 . S
H2738 C2744 0.949 . S
C2739 H2734 0.950 . S
C2739 C2741 1.327 . S
C2739 C2745 1.429 . S
C2740 C2732 1.574 . S
C2740 H2735 0.949 . S
C2740 C2746 1.368 . S
C2741 C2725 1.349 . S
C2741 H2733 0.950 . S
C2741 C2739 1.327 . S
C2742 C2730 1.349 . S
C2742 H2736 0.950 . S
C2742 C2743 1.327 . S
C2743 H2737 0.950 . S
C2743 C2742 1.327 . S
C2743 C2747 1.429 . S
C2744 C2727 1.574 . S
C2744 H2738 0.949 . S
C2744 C2748 1.368 . S
C2745 C2726 1.429 . S
C2745 C2739 1.429 . S
C2745 C2746 1.523 . S
C2746 C2727 1.368 . S
C2746 C2740 1.368 . S
C2746 C2745 1.523 . S
C2747 C2731 1.429 . S
C2747 C2743 1.429 . S
C2747 C2748 1.523 . S
C2748 C2732 1.368 . S
C2748 C2744 1.368 . S
C2748 C2747 1.523 . S
H2749 C2724 0.950 . S
H2750 C2726 0.950 . S
H2751 C2727 0.949 . S
H2752 C2729 0.950 . S
H2753 C2731 0.950 . S
C2754 C2755 1.349 . S
C2754 C2756 1.327 . S
C2754 H2779 0.950 . S
C2755 C2754 1.349 . S
C2755 C2771 1.349 . S
C2756 C2754 1.327 . S
C2756 C2775 1.429 . S
C2756 H2780 0.950 . S
C2757 C2774 1.574 . S
C2757 C2776 1.368 . S
C2757 H2781 0.949 . S
H2758 C2762 0.949 . S
C2759 C2760 1.349 . S
C2759 C2761 1.327 . S
C2759 H2782 0.950 . S
C2760 C2759 1.349 . S
C2760 C2772 1.349 . S
C2761 C2759 1.327 . S
C2761 C2777 1.429 . S
C2761 H2783 0.950 . S
C2762 H2758 0.949 . S
C2762 C2770 1.574 . S
C2762 C2778 1.368 . S
H2763 C2771 0.950 . S
H2764 C2769 0.950 . S
H2765 C2770 0.949 . S
H2766 C2772 0.950 . S
H2767 C2773 0.950 . S
H2768 C2774 0.949 . S
C2769 H2764 0.950 . S
C2769 C2771 1.327 . S
C2769 C2775 1.429 . S
C2770 C2762 1.574 . S
C2770 H2765 0.949 . S
C2770 C2776 1.368 . S
C2771 C2755 1.349 . S
C2771 H2763 0.950 . S
C2771 C2769 1.327 . S
C2772 C2760 1.349 . S
C2772 H2766 0.950 . S
C2772 C2773 1.327 . S
C2773 H2767 0.950 . S
C2773 C2772 1.327 . S
C2773 C2777 1.429 . S
C2774 C2757 1.574 . S
C2774 H2768 0.949 . S
C2774 C2778 1.368 . S
C2775 C2756 1.429 . S
C2775 C2769 1.429 . S
C2775 C2776 1.523 . S
C2776 C2757 1.368 . S
C2776 C2770 1.368 . S
C2776 C2775 1.523 . S
C2777 C2761 1.429 . S
C2777 C2773 1.429 . S
C2777 C2778 1.523 . S
C2778 C2762 1.368 . S
C2778 C2774 1.368 . S
C2778 C2777 1.523 . S
H2779 C2754 0.950 . S
H2780 C2756 0.950 . S
H2781 C2757 0.949 . S
H2782 C2759 0.950 . S
H2783 C2761 0.950 . S
C2784 C2785 1.349 . S
C2784 C2786 1.327 . S
C2784 H2809 0.950 . S
C2785 C2784 1.349 . S
C2785 C2801 1.349 . S
C2786 C2784 1.327 . S
C2786 C2805 1.429 . S
C2786 H2810 0.950 . S
C2787 C2804 1.574 . S
C2787 C2806 1.368 . S
C2787 H2811 0.949 . S
H2788 C2792 0.949 . S
C2789 C2790 1.349 . S
C2789 C2791 1.327 . S
C2789 H2812 0.950 . S
C2790 C2789 1.349 . S
C2790 C2802 1.349 . S
C2791 C2789 1.327 . S
C2791 C2807 1.429 . S
C2791 H2813 0.950 . S
C2792 H2788 0.949 . S
C2792 C2800 1.574 . S
C2792 C2808 1.368 . S
H2793 C2801 0.950 . S
H2794 C2799 0.950 . S
H2795 C2800 0.949 . S
H2796 C2802 0.950 . S
H2797 C2803 0.950 . S
H2798 C2804 0.949 . S
C2799 H2794 0.950 . S
C2799 C2801 1.327 . S
C2799 C2805 1.429 . S
C2800 C2792 1.574 . S
C2800 H2795 0.949 . S
C2800 C2806 1.368 . S
C2801 C2785 1.349 . S
C2801 H2793 0.950 . S
C2801 C2799 1.327 . S
C2802 C2790 1.349 . S
C2802 H2796 0.950 . S
C2802 C2803 1.327 . S
C2803 H2797 0.950 . S
C2803 C2802 1.327 . S
C2803 C2807 1.429 . S
C2804 C2787 1.574 . S
C2804 H2798 0.949 . S
C2804 C2808 1.368 . S
C2805 C2786 1.429 . S
C2805 C2799 1.429 . S
C2805 C2806 1.523 . S
C2806 C2787 1.368 . S
C2806 C2800 1.368 . S
C2806 C2805 1.523 . S
C2807 C2791 1.429 . S
C2807 C2803 1.429 . S
C2807 C2808 1.523 . S
C2808 C2792 1.368 . S
C2808 C2804 1.368 . S
C2808 C2807 1.523 . S
H2809 C2784 0.950 . S
H2810 C2786 0.950 . S
H2811 C2787 0.949 . S
H2812 C2789 0.950 . S
H2813 C2791 0.950 . S
C2814 C2815 1.349 . S
C2814 C2816 1.327 . S
C2814 H2839 0.950 . S
C2815 C2814 1.349 . S
C2815 C2831 1.349 . S
C2816 C2814 1.327 . S
C2816 C2835 1.429 . S
C2816 H2840 0.950 . S
C2817 C2834 1.574 . S
C2817 C2836 1.368 . S
C2817 H2841 0.949 . S
H2818 C2822 0.949 . S
C2819 C2820 1.349 . S
C2819 C2821 1.327 . S
C2819 H2842 0.950 . S
C2820 C2819 1.349 . S
C2820 C2832 1.349 . S
C2821 C2819 1.327 . S
C2821 C2837 1.429 . S
C2821 H2843 0.950 . S
C2822 H2818 0.949 . S
C2822 C2830 1.574 . S
C2822 C2838 1.368 . S
H2823 C2831 0.950 . S
H2824 C2829 0.950 . S
H2825 C2830 0.949 . S
H2826 C2832 0.950 . S
H2827 C2833 0.950 . S
H2828 C2834 0.949 . S
C2829 H2824 0.950 . S
C2829 C2831 1.327 . S
C2829 C2835 1.429 . S
C2830 C2822 1.574 . S
C2830 H2825 0.949 . S
C2830 C2836 1.368 . S
C2831 C2815 1.349 . S
C2831 H2823 0.950 . S
C2831 C2829 1.327 . S
C2832 C2820 1.349 . S
C2832 H2826 0.950 . S
C2832 C2833 1.327 . S
C2833 H2827 0.950 . S
C2833 C2832 1.327 . S
C2833 C2837 1.429 . S
C2834 C2817 1.574 . S
C2834 H2828 0.949 . S
C2834 C2838 1.368 . S
C2835 C2816 1.429 . S
C2835 C2829 1.429 . S
C2835 C2836 1.523 . S
C2836 C2817 1.368 . S
C2836 C2830 1.368 . S
C2836 C2835 1.523 . S
C2837 C2821 1.429 . S
C2837 C2833 1.429 . S
C2837 C2838 1.523 . S
C2838 C2822 1.368 . S
C2838 C2834 1.368 . S
C2838 C2837 1.523 . S
H2839 C2814 0.950 . S
H2840 C2816 0.950 . S
H2841 C2817 0.949 . S
H2842 C2819 0.950 . S
H2843 C2821 0.950 . S
C2844 C2845 1.349 . S
C2844 C2846 1.327 . S
C2844 H2869 0.950 . S
C2845 C2844 1.349 . S
C2845 C2861 1.349 . S
C2846 C2844 1.327 . S
C2846 C2865 1.429 . S
C2846 H2870 0.950 . S
C2847 C2864 1.574 . S
C2847 C2866 1.368 . S
C2847 H2871 0.949 . S
H2848 C2852 0.949 . S
C2849 C2850 1.349 . S
C2849 C2851 1.327 . S
C2849 H2872 0.950 . S
C2850 C2849 1.349 . S
C2850 C2862 1.349 . S
C2851 C2849 1.327 . S
C2851 C2867 1.429 . S
C2851 H2873 0.950 . S
C2852 H2848 0.949 . S
C2852 C2860 1.574 . S
C2852 C2868 1.368 . S
H2853 C2861 0.950 . S
H2854 C2859 0.950 . S
H2855 C2860 0.949 . S
H2856 C2862 0.950 . S
H2857 C2863 0.950 . S
H2858 C2864 0.949 . S
C2859 H2854 0.950 . S
C2859 C2861 1.327 . S
C2859 C2865 1.429 . S
C2860 C2852 1.574 . S
C2860 H2855 0.949 . S
C2860 C2866 1.368 . S
C2861 C2845 1.349 . S
C2861 H2853 0.950 . S
C2861 C2859 1.327 . S
C2862 C2850 1.349 . S
C2862 H2856 0.950 . S
C2862 C2863 1.327 . S
C2863 H2857 0.950 . S
C2863 C2862 1.327 . S
C2863 C2867 1.429 . S
C2864 C2847 1.574 . S
C2864 H2858 0.949 . S
C2864 C2868 1.368 . S
C2865 C2846 1.429 . S
C2865 C2859 1.429 . S
C2865 C2866 1.523 . S
C2866 C2847 1.368 . S
C2866 C2860 1.368 . S
C2866 C2865 1.523 . S
C2867 C2851 1.429 . S
C2867 C2863 1.429 . S
C2867 C2868 1.523 . S
C2868 C2852 1.368 . S
C2868 C2864 1.368 . S
C2868 C2867 1.523 . S
H2869 C2844 0.950 . S
H2870 C2846 0.950 . S
H2871 C2847 0.949 . S
H2872 C2849 0.950 . S
H2873 C2851 0.950 . S
C2874 C2875 1.349 . S
C2874 C2876 1.327 . S
C2874 H2899 0.950 . S
C2875 C2874 1.349 . S
C2875 C2891 1.349 . S
C2876 C2874 1.327 . S
C2876 C2895 1.429 . S
C2876 H2900 0.950 . S
C2877 C2894 1.574 . S
C2877 C2896 1.368 . S
C2877 H2901 0.949 . S
H2878 C2882 0.949 . S
C2879 C2880 1.349 . S
C2879 C2881 1.327 . S
C2879 H2902 0.950 . S
C2880 C2879 1.349 . S
C2880 C2892 1.349 . S
C2881 C2879 1.327 . S
C2881 C2897 1.429 . S
C2881 H2903 0.950 . S
C2882 H2878 0.949 . S
C2882 C2890 1.574 . S
C2882 C2898 1.368 . S
H2883 C2891 0.950 . S
H2884 C2889 0.950 . S
H2885 C2890 0.949 . S
H2886 C2892 0.950 . S
H2887 C2893 0.950 . S
H2888 C2894 0.949 . S
C2889 H2884 0.950 . S
C2889 C2891 1.327 . S
C2889 C2895 1.429 . S
C2890 C2882 1.574 . S
C2890 H2885 0.949 . S
C2890 C2896 1.368 . S
C2891 C2875 1.349 . S
C2891 H2883 0.950 . S
C2891 C2889 1.327 . S
C2892 C2880 1.349 . S
C2892 H2886 0.950 . S
C2892 C2893 1.327 . S
C2893 H2887 0.950 . S
C2893 C2892 1.327 . S
C2893 C2897 1.429 . S
C2894 C2877 1.574 . S
C2894 H2888 0.949 . S
C2894 C2898 1.368 . S
C2895 C2876 1.429 . S
C2895 C2889 1.429 . S
C2895 C2896 1.523 . S
C2896 C2877 1.368 . S
C2896 C2890 1.368 . S
C2896 C2895 1.523 . S
C2897 C2881 1.429 . S
C2897 C2893 1.429 . S
C2897 C2898 1.523 . S
C2898 C2882 1.368 . S
C2898 C2894 1.368 . S
C2898 C2897 1.523 . S
H2899 C2874 0.950 . S
H2900 C2876 0.950 . S
H2901 C2877 0.949 . S
H2902 C2879 0.950 . S
H2903 C2881 0.950 . S
C2904 C2905 1.349 . S
C2904 C2906 1.327 . S
C2904 H2929 0.950 . S
C2905 C2904 1.349 . S
C2905 C2921 1.349 . S
C2906 C2904 1.327 . S
C2906 C2925 1.429 . S
C2906 H2930 0.950 . S
C2907 C2924 1.574 . S
C2907 C2926 1.368 . S
C2907 H2931 0.949 . S
H2908 C2912 0.949 . S
C2909 C2910 1.349 . S
C2909 C2911 1.327 . S
C2909 H2932 0.950 . S
C2910 C2909 1.349 . S
C2910 C2922 1.349 . S
C2911 C2909 1.327 . S
C2911 C2927 1.429 . S
C2911 H2933 0.950 . S
C2912 H2908 0.949 . S
C2912 C2920 1.574 . S
C2912 C2928 1.368 . S
H2913 C2921 0.950 . S
H2914 C2919 0.950 . S
H2915 C2920 0.949 . S
H2916 C2922 0.950 . S
H2917 C2923 0.950 . S
H2918 C2924 0.949 . S
C2919 H2914 0.950 . S
C2919 C2921 1.327 . S
C2919 C2925 1.429 . S
C2920 C2912 1.574 . S
C2920 H2915 0.949 . S
C2920 C2926 1.368 . S
C2921 C2905 1.349 . S
C2921 H2913 0.950 . S
C2921 C2919 1.327 . S
C2922 C2910 1.349 . S
C2922 H2916 0.950 . S
C2922 C2923 1.327 . S
C2923 H2917 0.950 . S
C2923 C2922 1.327 . S
C2923 C2927 1.429 . S
C2924 C2907 1.574 . S
C2924 H2918 0.949 . S
C2924 C2928 1.368 . S
C2925 C2906 1.429 . S
C2925 C2919 1.429 . S
C2925 C2926 1.523 . S
C2926 C2907 1.368 . S
C2926 C2920 1.368 . S
C2926 C2925 1.523 . S
C2927 C2911 1.429 . S
C2927 C2923 1.429 . S
C2927 C2928 1.523 . S
C2928 C2912 1.368 . S
C2928 C2924 1.368 . S
C2928 C2927 1.523 . S
H2929 C2904 0.950 . S
H2930 C2906 0.950 . S
H2931 C2907 0.949 . S
H2932 C2909 0.950 . S
H2933 C2911 0.950 . S
C2934 C2935 1.349 . S
C2934 C2936 1.327 . S
C2934 H2959 0.950 . S
C2935 C2934 1.349 . S
C2935 C2951 1.349 . S
C2936 C2934 1.327 . S
C2936 C2955 1.429 . S
C2936 H2960 0.950 . S
C2937 C2954 1.574 . S
C2937 C2956 1.368 . S
C2937 H2961 0.949 . S
H2938 C2942 0.949 . S
C2939 C2940 1.349 . S
C2939 C2941 1.327 . S
C2939 H2962 0.950 . S
C2940 C2939 1.349 . S
C2940 C2952 1.349 . S
C2941 C2939 1.327 . S
C2941 C2957 1.429 . S
C2941 H2963 0.950 . S
C2942 H2938 0.949 . S
C2942 C2950 1.574 . S
C2942 C2958 1.368 . S
H2943 C2951 0.950 . S
H2944 C2949 0.950 . S
H2945 C2950 0.949 . S
H2946 C2952 0.950 . S
H2947 C2953 0.950 . S
H2948 C2954 0.949 . S
C2949 H2944 0.950 . S
C2949 C2951 1.327 . S
C2949 C2955 1.429 . S
C2950 C2942 1.574 . S
C2950 H2945 0.949 . S
C2950 C2956 1.368 . S
C2951 C2935 1.349 . S
C2951 H2943 0.950 . S
C2951 C2949 1.327 . S
C2952 C2940 1.349 . S
C2952 H2946 0.950 . S
C2952 C2953 1.327 . S
C2953 H2947 0.950 . S
C2953 C2952 1.327 . S
C2953 C2957 1.429 . S
C2954 C2937 1.574 . S
C2954 H2948 0.949 . S
C2954 C2958 1.368 . S
C2955 C2936 1.429 . S
C2955 C2949 1.429 . S
C2955 C2956 1.523 . S
C2956 C2937 1.368 . S
C2956 C2950 1.368 . S
C2956 C2955 1.523 . S
C2957 C2941 1.429 . S
C2957 C2953 1.429 . S
C2957 C2958 1.523 . S
C2958 C2942 1.368 . S
C2958 C2954 1.368 . S
C2958 C2957 1.523 . S
H2959 C2934 0.950 . S
H2960 C2936 0.950 . S
H2961 C2937 0.949 . S
H2962 C2939 0.950 . S
H2963 C2941 0.950 . S
C2964 C2965 1.349 . S
C2964 C2966 1.327 . S
C2964 H2989 0.950 . S
C2965 C2964 1.349 . S
C2965 C2981 1.349 . S
C2966 C2964 1.327 . S
C2966 C2985 1.429 . S
C2966 H2990 0.950 . S
C2967 C2984 1.574 . S
C2967 C2986 1.368 . S
C2967 H2991 0.949 . S
H2968 C2972 0.949 . S
C2969 C2970 1.349 . S
C2969 C2971 1.327 . S
C2969 H2992 0.950 . S
C2970 C2969 1.349 . S
C2970 C2982 1.349 . S
C2971 C2969 1.327 . S
C2971 C2987 1.429 . S
C2971 H2993 0.950 . S
C2972 H2968 0.949 . S
C2972 C2980 1.574 . S
C2972 C2988 1.368 . S
H2973 C2981 0.950 . S
H2974 C2979 0.950 . S
H2975 C2980 0.949 . S
H2976 C2982 0.950 . S
H2977 C2983 0.950 . S
H2978 C2984 0.949 . S
C2979 H2974 0.950 . S
C2979 C2981 1.327 . S
C2979 C2985 1.429 . S
C2980 C2972 1.574 . S
C2980 H2975 0.949 . S
C2980 C2986 1.368 . S
C2981 C2965 1.349 . S
C2981 H2973 0.950 . S
C2981 C2979 1.327 . S
C2982 C2970 1.349 . S
C2982 H2976 0.950 . S
C2982 C2983 1.327 . S
C2983 H2977 0.950 . S
C2983 C2982 1.327 . S
C2983 C2987 1.429 . S
C2984 C2967 1.574 . S
C2984 H2978 0.949 . S
C2984 C2988 1.368 . S
C2985 C2966 1.429 . S
C2985 C2979 1.429 . S
C2985 C2986 1.523 . S
C2986 C2967 1.368 . S
C2986 C2980 1.368 . S
C2986 C2985 1.523 . S
C2987 C2971 1.429 . S
C2987 C2983 1.429 . S
C2987 C2988 1.523 . S
C2988 C2972 1.368 . S
C2988 C2984 1.368 . S
C2988 C2987 1.523 . S
H2989 C2964 0.950 . S
H2990 C2966 0.950 . S
H2991 C2967 0.949 . S
H2992 C2969 0.950 . S
H2993 C2971 0.950 . S
C2994 C2995 1.349 . S
C2994 C2996 1.327 . S
C2994 H3019 0.950 . S
C2995 C2994 1.349 . S
C2995 C3011 1.349 . S
C2996 C2994 1.327 . S
C2996 C3015 1.429 . S
C2996 H3020 0.950 . S
C2997 C3014 1.574 . S
C2997 C3016 1.368 . S
C2997 H3021 0.949 . S
H2998 C3002 0.949 . S
C2999 C3000 1.349 . S
C2999 C3001 1.327 . S
C2999 H3022 0.950 . S
C3000 C2999 1.349 . S
C3000 C3012 1.349 . S
C3001 C2999 1.327 . S
C3001 C3017 1.429 . S
C3001 H3023 0.950 . S
C3002 H2998 0.949 . S
C3002 C3010 1.574 . S
C3002 C3018 1.368 . S
H3003 C3011 0.950 . S
H3004 C3009 0.950 . S
H3005 C3010 0.949 . S
H3006 C3012 0.950 . S
H3007 C3013 0.950 . S
H3008 C3014 0.949 . S
C3009 H3004 0.950 . S
C3009 C3011 1.327 . S
C3009 C3015 1.429 . S
C3010 C3002 1.574 . S
C3010 H3005 0.949 . S
C3010 C3016 1.368 . S
C3011 C2995 1.349 . S
C3011 H3003 0.950 . S
C3011 C3009 1.327 . S
C3012 C3000 1.349 . S
C3012 H3006 0.950 . S
C3012 C3013 1.327 . S
C3013 H3007 0.950 . S
C3013 C3012 1.327 . S
C3013 C3017 1.429 . S
C3014 C2997 1.574 . S
C3014 H3008 0.949 . S
C3014 C3018 1.368 . S
C3015 C2996 1.429 . S
C3015 C3009 1.429 . S
C3015 C3016 1.523 . S
C3016 C2997 1.368 . S
C3016 C3010 1.368 . S
C3016 C3015 1.523 . S
C3017 C3001 1.429 . S
C3017 C3013 1.429 . S
C3017 C3018 1.523 . S
C3018 C3002 1.368 . S
C3018 C3014 1.368 . S
C3018 C3017 1.523 . S
H3019 C2994 0.950 . S
H3020 C2996 0.950 . S
H3021 C2997 0.949 . S
H3022 C2999 0.950 . S
H3023 C3001 0.950 . S
C3024 C3025 1.349 . S
C3024 C3026 1.327 . S
C3024 H3049 0.950 . S
C3025 C3024 1.349 . S
C3025 C3041 1.349 . S
C3026 C3024 1.327 . S
C3026 C3045 1.429 . S
C3026 H3050 0.950 . S
C3027 C3044 1.574 . S
C3027 C3046 1.368 . S
C3027 H3051 0.949 . S
H3028 C3032 0.949 . S
C3029 C3030 1.349 . S
C3029 C3031 1.327 . S
C3029 H3052 0.950 . S
C3030 C3029 1.349 . S
C3030 C3042 1.349 . S
C3031 C3029 1.327 . S
C3031 C3047 1.429 . S
C3031 H3053 0.950 . S
C3032 H3028 0.949 . S
C3032 C3040 1.574 . S
C3032 C3048 1.368 . S
H3033 C3041 0.950 . S
H3034 C3039 0.950 . S
H3035 C3040 0.949 . S
H3036 C3042 0.950 . S
H3037 C3043 0.950 . S
H3038 C3044 0.949 . S
C3039 H3034 0.950 . S
C3039 C3041 1.327 . S
C3039 C3045 1.429 . S
C3040 C3032 1.574 . S
C3040 H3035 0.949 . S
C3040 C3046 1.368 . S
C3041 C3025 1.349 . S
C3041 H3033 0.950 . S
C3041 C3039 1.327 . S
C3042 C3030 1.349 . S
C3042 H3036 0.950 . S
C3042 C3043 1.327 . S
C3043 H3037 0.950 . S
C3043 C3042 1.327 . S
C3043 C3047 1.429 . S
C3044 C3027 1.574 . S
C3044 H3038 0.949 . S
C3044 C3048 1.368 . S
C3045 C3026 1.429 . S
C3045 C3039 1.429 . S
C3045 C3046 1.523 . S
C3046 C3027 1.368 . S
C3046 C3040 1.368 . S
C3046 C3045 1.523 . S
C3047 C3031 1.429 . S
C3047 C3043 1.429 . S
C3047 C3048 1.523 . S
C3048 C3032 1.368 . S
C3048 C3044 1.368 . S
C3048 C3047 1.523 . S
H3049 C3024 0.950 . S
H3050 C3026 0.950 . S
H3051 C3027 0.949 . S
H3052 C3029 0.950 . S
H3053 C3031 0.950 . S
C3054 C3055 1.349 . S
C3054 C3056 1.327 . S
C3054 H3079 0.950 . S
C3055 C3054 1.349 . S
C3055 C3071 1.349 . S
C3056 C3054 1.327 . S
C3056 C3075 1.429 . S
C3056 H3080 0.950 . S
C3057 C3074 1.574 . S
C3057 C3076 1.368 . S
C3057 H3081 0.949 . S
H3058 C3062 0.949 . S
C3059 C3060 1.349 . S
C3059 C3061 1.327 . S
C3059 H3082 0.950 . S
C3060 C3059 1.349 . S
C3060 C3072 1.349 . S
C3061 C3059 1.327 . S
C3061 C3077 1.429 . S
C3061 H3083 0.950 . S
C3062 H3058 0.949 . S
C3062 C3070 1.574 . S
C3062 C3078 1.368 . S
H3063 C3071 0.950 . S
H3064 C3069 0.950 . S
H3065 C3070 0.949 . S
H3066 C3072 0.950 . S
H3067 C3073 0.950 . S
H3068 C3074 0.949 . S
C3069 H3064 0.950 . S
C3069 C3071 1.327 . S
C3069 C3075 1.429 . S
C3070 C3062 1.574 . S
C3070 H3065 0.949 . S
C3070 C3076 1.368 . S
C3071 C3055 1.349 . S
C3071 H3063 0.950 . S
C3071 C3069 1.327 . S
C3072 C3060 1.349 . S
C3072 H3066 0.950 . S
C3072 C3073 1.327 . S
C3073 H3067 0.950 . S
C3073 C3072 1.327 . S
C3073 C3077 1.429 . S
C3074 C3057 1.574 . S
C3074 H3068 0.949 . S
C3074 C3078 1.368 . S
C3075 C3056 1.429 . S
C3075 C3069 1.429 . S
C3075 C3076 1.523 . S
C3076 C3057 1.368 . S
C3076 C3070 1.368 . S
C3076 C3075 1.523 . S
C3077 C3061 1.429 . S
C3077 C3073 1.429 . S
C3077 C3078 1.523 . S
C3078 C3062 1.368 . S
C3078 C3074 1.368 . S
C3078 C3077 1.523 . S
H3079 C3054 0.950 . S
H3080 C3056 0.950 . S
H3081 C3057 0.949 . S
H3082 C3059 0.950 . S
H3083 C3061 0.950 . S
C3084 C3085 1.349 . S
C3084 C3086 1.327 . S
C3084 H3109 0.950 . S
C3085 C3084 1.349 . S
C3085 C3101 1.349 . S
C3086 C3084 1.327 . S
C3086 C3105 1.429 . S
C3086 H3110 0.950 . S
C3087 C3104 1.574 . S
C3087 C3106 1.368 . S
C3087 H3111 0.949 . S
H3088 C3092 0.949 . S
C3089 C3090 1.349 . S
C3089 C3091 1.327 . S
C3089 H3112 0.950 . S
C3090 C3089 1.349 . S
C3090 C3102 1.349 . S
C3091 C3089 1.327 . S
C3091 C3107 1.429 . S
C3091 H3113 0.950 . S
C3092 H3088 0.949 . S
C3092 C3100 1.574 . S
C3092 C3108 1.368 . S
H3093 C3101 0.950 . S
H3094 C3099 0.950 . S
H3095 C3100 0.949 . S
H3096 C3102 0.950 . S
H3097 C3103 0.950 . S
H3098 C3104 0.949 . S
C3099 H3094 0.950 . S
C3099 C3101 1.327 . S
C3099 C3105 1.429 . S
C3100 C3092 1.574 . S
C3100 H3095 0.949 . S
C3100 C3106 1.368 . S
C3101 C3085 1.349 . S
C3101 H3093 0.950 . S
C3101 C3099 1.327 . S
C3102 C3090 1.349 . S
C3102 H3096 0.950 . S
C3102 C3103 1.327 . S
C3103 H3097 0.950 . S
C3103 C3102 1.327 . S
C3103 C3107 1.429 . S
C3104 C3087 1.574 . S
C3104 H3098 0.949 . S
C3104 C3108 1.368 . S
C3105 C3086 1.429 . S
C3105 C3099 1.429 . S
C3105 C3106 1.523 . S
C3106 C3087 1.368 . S
C3106 C3100 1.368 . S
C3106 C3105 1.523 . S
C3107 C3091 1.429 . S
C3107 C3103 1.429 . S
C3107 C3108 1.523 . S
C3108 C3092 1.368 . S
C3108 C3104 1.368 . S
C3108 C3107 1.523 . S
H3109 C3084 0.950 . S
H3110 C3086 0.950 . S
H3111 C3087 0.949 . S
H3112 C3089 0.950 . S
H3113 C3091 0.950 . S
C3114 C3115 1.349 . S
C3114 C3116 1.327 . S
C3114 H3139 0.950 . S
C3115 C3114 1.349 . S
C3115 C3131 1.349 . S
C3116 C3114 1.327 . S
C3116 C3135 1.429 . S
C3116 H3140 0.950 . S
C3117 C3134 1.574 . S
C3117 C3136 1.368 . S
C3117 H3141 0.949 . S
H3118 C3122 0.949 . S
C3119 C3120 1.349 . S
C3119 C3121 1.327 . S
C3119 H3142 0.950 . S
C3120 C3119 1.349 . S
C3120 C3132 1.349 . S
C3121 C3119 1.327 . S
C3121 C3137 1.429 . S
C3121 H3143 0.950 . S
C3122 H3118 0.949 . S
C3122 C3130 1.574 . S
C3122 C3138 1.368 . S
H3123 C3131 0.950 . S
H3124 C3129 0.950 . S
H3125 C3130 0.949 . S
H3126 C3132 0.950 . S
H3127 C3133 0.950 . S
H3128 C3134 0.949 . S
C3129 H3124 0.950 . S
C3129 C3131 1.327 . S
C3129 C3135 1.429 . S
C3130 C3122 1.574 . S
C3130 H3125 0.949 . S
C3130 C3136 1.368 . S
C3131 C3115 1.349 . S
C3131 H3123 0.950 . S
C3131 C3129 1.327 . S
C3132 C3120 1.349 . S
C3132 H3126 0.950 . S
C3132 C3133 1.327 . S
C3133 H3127 0.950 . S
C3133 C3132 1.327 . S
C3133 C3137 1.429 . S
C3134 C3117 1.574 . S
C3134 H3128 0.949 . S
C3134 C3138 1.368 . S
C3135 C3116 1.429 . S
C3135 C3129 1.429 . S
C3135 C3136 1.523 . S
C3136 C3117 1.368 . S
C3136 C3130 1.368 . S
C3136 C3135 1.523 . S
C3137 C3121 1.429 . S
C3137 C3133 1.429 . S
C3137 C3138 1.523 . S
C3138 C3122 1.368 . S
C3138 C3134 1.368 . S
C3138 C3137 1.523 . S
H3139 C3114 0.950 . S
H3140 C3116 0.950 . S
H3141 C3117 0.949 . S
H3142 C3119 0.950 . S
H3143 C3121 0.950 . S
C3144 C3145 1.349 . S
C3144 C3146 1.327 . S
C3144 H3169 0.950 . S
C3145 C3144 1.349 . S
C3145 C3161 1.349 . S
C3146 C3144 1.327 . S
C3146 C3165 1.429 . S
C3146 H3170 0.950 . S
C3147 C3164 1.574 . S
C3147 C3166 1.368 . S
C3147 H3171 0.949 . S
H3148 C3152 0.949 . S
C3149 C3150 1.349 . S
C3149 C3151 1.327 . S
C3149 H3172 0.950 . S
C3150 C3149 1.349 . S
C3150 C3162 1.349 . S
C3151 C3149 1.327 . S
C3151 C3167 1.429 . S
C3151 H3173 0.950 . S
C3152 H3148 0.949 . S
C3152 C3160 1.574 . S
C3152 C3168 1.368 . S
H3153 C3161 0.950 . S
H3154 C3159 0.950 . S
H3155 C3160 0.949 . S
H3156 C3162 0.950 . S
H3157 C3163 0.950 . S
H3158 C3164 0.949 . S
C3159 H3154 0.950 . S
C3159 C3161 1.327 . S
C3159 C3165 1.429 . S
C3160 C3152 1.574 . S
C3160 H3155 0.949 . S
C3160 C3166 1.368 . S
C3161 C3145 1.349 . S
C3161 H3153 0.950 . S
C3161 C3159 1.327 . S
C3162 C3150 1.349 . S
C3162 H3156 0.950 . S
C3162 C3163 1.327 . S
C3163 H3157 0.950 . S
C3163 C3162 1.327 . S
C3163 C3167 1.429 . S
C3164 C3147 1.574 . S
C3164 H3158 0.949 . S
C3164 C3168 1.368 . S
C3165 C3146 1.429 . S
C3165 C3159 1.429 . S
C3165 C3166 1.523 . S
C3166 C3147 1.368 . S
C3166 C3160 1.368 . S
C3166 C3165 1.523 . S
C3167 C3151 1.429 . S
C3167 C3163 1.429 . S
C3167 C3168 1.523 . S
C3168 C3152 1.368 . S
C3168 C3164 1.368 . S
C3168 C3167 1.523 . S
H3169 C3144 0.950 . S
H3170 C3146 0.950 . S
H3171 C3147 0.949 . S
H3172 C3149 0.950 . S
H3173 C3151 0.950 . S
C3174 C3175 1.349 . S
C3174 C3176 1.327 . S
C3174 H3199 0.950 . S
C3175 C3174 1.349 . S
C3175 C3191 1.349 . S
C3176 C3174 1.327 . S
C3176 C3195 1.429 . S
C3176 H3200 0.950 . S
C3177 C3194 1.574 . S
C3177 C3196 1.368 . S
C3177 H3201 0.949 . S
H3178 C3182 0.949 . S
C3179 C3180 1.349 . S
C3179 C3181 1.327 . S
C3179 H3202 0.950 . S
C3180 C3179 1.349 . S
C3180 C3192 1.349 . S
C3181 C3179 1.327 . S
C3181 C3197 1.429 . S
C3181 H3203 0.950 . S
C3182 H3178 0.949 . S
C3182 C3190 1.574 . S
C3182 C3198 1.368 . S
H3183 C3191 0.950 . S
H3184 C3189 0.950 . S
H3185 C3190 0.949 . S
H3186 C3192 0.950 . S
H3187 C3193 0.950 . S
H3188 C3194 0.949 . S
C3189 H3184 0.950 . S
C3189 C3191 1.327 . S
C3189 C3195 1.429 . S
C3190 C3182 1.574 . S
C3190 H3185 0.949 . S
C3190 C3196 1.368 . S
C3191 C3175 1.349 . S
C3191 H3183 0.950 . S
C3191 C3189 1.327 . S
C3192 C3180 1.349 . S
C3192 H3186 0.950 . S
C3192 C3193 1.327 . S
C3193 H3187 0.950 . S
C3193 C3192 1.327 . S
C3193 C3197 1.429 . S
C3194 C3177 1.574 . S
C3194 H3188 0.949 . S
C3194 C3198 1.368 . S
C3195 C3176 1.429 . S
C3195 C3189 1.429 . S
C3195 C3196 1.523 . S
C3196 C3177 1.368 . S
C3196 C3190 1.368 . S
C3196 C3195 1.523 . S
C3197 C3181 1.429 . S
C3197 C3193 1.429 . S
C3197 C3198 1.523 . S
C3198 C3182 1.368 . S
C3198 C3194 1.368 . S
C3198 C3197 1.523 . S
H3199 C3174 0.950 . S
H3200 C3176 0.950 . S
H3201 C3177 0.949 . S
H3202 C3179 0.950 . S
H3203 C3181 0.950 . S
C3204 C3205 1.349 . S
C3204 C3206 1.327 . S
C3204 H3229 0.950 . S
C3205 C3204 1.349 . S
C3205 C3221 1.349 . S
C3206 C3204 1.327 . S
C3206 C3225 1.429 . S
C3206 H3230 0.950 . S
C3207 C3224 1.574 . S
C3207 C3226 1.368 . S
C3207 H3231 0.949 . S
H3208 C3212 0.949 . S
C3209 C3210 1.349 . S
C3209 C3211 1.327 . S
C3209 H3232 0.950 . S
C3210 C3209 1.349 . S
C3210 C3222 1.349 . S
C3211 C3209 1.327 . S
C3211 C3227 1.429 . S
C3211 H3233 0.950 . S
C3212 H3208 0.949 . S
C3212 C3220 1.574 . S
C3212 C3228 1.368 . S
H3213 C3221 0.950 . S
H3214 C3219 0.950 . S
H3215 C3220 0.949 . S
H3216 C3222 0.950 . S
H3217 C3223 0.950 . S
H3218 C3224 0.949 . S
C3219 H3214 0.950 . S
C3219 C3221 1.327 . S
C3219 C3225 1.429 . S
C3220 C3212 1.574 . S
C3220 H3215 0.949 . S
C3220 C3226 1.368 . S
C3221 C3205 1.349 . S
C3221 H3213 0.950 . S
C3221 C3219 1.327 . S
C3222 C3210 1.349 . S
C3222 H3216 0.950 . S
C3222 C3223 1.327 . S
C3223 H3217 0.950 . S
C3223 C3222 1.327 . S
C3223 C3227 1.429 . S
C3224 C3207 1.574 . S
C3224 H3218 0.949 . S
C3224 C3228 1.368 . S
C3225 C3206 1.429 . S
C3225 C3219 1.429 . S
C3225 C3226 1.523 . S
C3226 C3207 1.368 . S
C3226 C3220 1.368 . S
C3226 C3225 1.523 . S
C3227 C3211 1.429 . S
C3227 C3223 1.429 . S
C3227 C3228 1.523 . S
C3228 C3212 1.368 . S
C3228 C3224 1.368 . S
C3228 C3227 1.523 . S
H3229 C3204 0.950 . S
H3230 C3206 0.950 . S
H3231 C3207 0.949 . S
H3232 C3209 0.950 . S
H3233 C3211 0.950 . S
C3234 C3235 1.349 . S
C3234 C3236 1.327 . S
C3234 H3259 0.950 . S
C3235 C3234 1.349 . S
C3235 C3251 1.349 . S
C3236 C3234 1.327 . S
C3236 C3255 1.429 . S
C3236 H3260 0.950 . S
C3237 C3254 1.574 . S
C3237 C3256 1.368 . S
C3237 H3261 0.949 . S
H3238 C3242 0.949 . S
C3239 C3240 1.349 . S
C3239 C3241 1.327 . S
C3239 H3262 0.950 . S
C3240 C3239 1.349 . S
C3240 C3252 1.349 . S
C3241 C3239 1.327 . S
C3241 C3257 1.429 . S
C3241 H3263 0.950 . S
C3242 H3238 0.949 . S
C3242 C3250 1.574 . S
C3242 C3258 1.368 . S
H3243 C3251 0.950 . S
H3244 C3249 0.950 . S
H3245 C3250 0.949 . S
H3246 C3252 0.950 . S
H3247 C3253 0.950 . S
H3248 C3254 0.949 . S
C3249 H3244 0.950 . S
C3249 C3251 1.327 . S
C3249 C3255 1.429 . S
C3250 C3242 1.574 . S
C3250 H3245 0.949 . S
C3250 C3256 1.368 . S
C3251 C3235 1.349 . S
C3251 H3243 0.950 . S
C3251 C3249 1.327 . S
C3252 C3240 1.349 . S
C3252 H3246 0.950 . S
C3252 C3253 1.327 . S
C3253 H3247 0.950 . S
C3253 C3252 1.327 . S
C3253 C3257 1.429 . S
C3254 C3237 1.574 . S
C3254 H3248 0.949 . S
C3254 C3258 1.368 . S
C3255 C3236 1.429 . S
C3255 C3249 1.429 . S
C3255 C3256 1.523 . S
C3256 C3237 1.368 . S
C3256 C3250 1.368 . S
C3256 C3255 1.523 . S
C3257 C3241 1.429 . S
C3257 C3253 1.429 . S
C3257 C3258 1.523 . S
C3258 C3242 1.368 . S
C3258 C3254 1.368 . S
C3258 C3257 1.523 . S
H3259 C3234 0.950 . S
H3260 C3236 0.950 . S
H3261 C3237 0.949 . S
H3262 C3239 0.950 . S
H3263 C3241 0.950 . S
C3264 C3265 1.349 . S
C3264 C3266 1.327 . S
C3264 H3289 0.950 . S
C3265 C3264 1.349 . S
C3265 C3281 1.349 . S
C3266 C3264 1.327 . S
C3266 C3285 1.429 . S
C3266 H3290 0.950 . S
C3267 C3284 1.574 . S
C3267 C3286 1.368 . S
C3267 H3291 0.949 . S
H3268 C3272 0.949 . S
C3269 C3270 1.349 . S
C3269 C3271 1.327 . S
C3269 H3292 0.950 . S
C3270 C3269 1.349 . S
C3270 C3282 1.349 . S
C3271 C3269 1.327 . S
C3271 C3287 1.429 . S
C3271 H3293 0.950 . S
C3272 H3268 0.949 . S
C3272 C3280 1.574 . S
C3272 C3288 1.368 . S
H3273 C3281 0.950 . S
H3274 C3279 0.950 . S
H3275 C3280 0.949 . S
H3276 C3282 0.950 . S
H3277 C3283 0.950 . S
H3278 C3284 0.949 . S
C3279 H3274 0.950 . S
C3279 C3281 1.327 . S
C3279 C3285 1.429 . S
C3280 C3272 1.574 . S
C3280 H3275 0.949 . S
C3280 C3286 1.368 . S
C3281 C3265 1.349 . S
C3281 H3273 0.950 . S
C3281 C3279 1.327 . S
C3282 C3270 1.349 . S
C3282 H3276 0.950 . S
C3282 C3283 1.327 . S
C3283 H3277 0.950 . S
C3283 C3282 1.327 . S
C3283 C3287 1.429 . S
C3284 C3267 1.574 . S
C3284 H3278 0.949 . S
C3284 C3288 1.368 . S
C3285 C3266 1.429 . S
C3285 C3279 1.429 . S
C3285 C3286 1.523 . S
C3286 C3267 1.368 . S
C3286 C3280 1.368 . S
C3286 C3285 1.523 . S
C3287 C3271 1.429 . S
C3287 C3283 1.429 . S
C3287 C3288 1.523 . S
C3288 C3272 1.368 . S
C3288 C3284 1.368 . S
C3288 C3287 1.523 . S
H3289 C3264 0.950 . S
H3290 C3266 0.950 . S
H3291 C3267 0.949 . S
H3292 C3269 0.950 . S
H3293 C3271 0.950 . S
C3294 C3295 1.349 . S
C3294 C3296 1.327 . S
C3294 H3319 0.950 . S
C3295 C3294 1.349 . S
C3295 C3311 1.349 . S
C3296 C3294 1.327 . S
C3296 C3315 1.429 . S
C3296 H3320 0.950 . S
C3297 C3314 1.574 . S
C3297 C3316 1.368 . S
C3297 H3321 0.949 . S
H3298 C3302 0.949 . S
C3299 C3300 1.349 . S
C3299 C3301 1.327 . S
C3299 H3322 0.950 . S
C3300 C3299 1.349 . S
C3300 C3312 1.349 . S
C3301 C3299 1.327 . S
C3301 C3317 1.429 . S
C3301 H3323 0.950 . S
C3302 H3298 0.949 . S
C3302 C3310 1.574 . S
C3302 C3318 1.368 . S
H3303 C3311 0.950 . S
H3304 C3309 0.950 . S
H3305 C3310 0.949 . S
H3306 C3312 0.950 . S
H3307 C3313 0.950 . S
H3308 C3314 0.949 . S
C3309 H3304 0.950 . S
C3309 C3311 1.327 . S
C3309 C3315 1.429 . S
C3310 C3302 1.574 . S
C3310 H3305 0.949 . S
C3310 C3316 1.368 . S
C3311 C3295 1.349 . S
C3311 H3303 0.950 . S
C3311 C3309 1.327 . S
C3312 C3300 1.349 . S
C3312 H3306 0.950 . S
C3312 C3313 1.327 . S
C3313 H3307 0.950 . S
C3313 C3312 1.327 . S
C3313 C3317 1.429 . S
C3314 C3297 1.574 . S
C3314 H3308 0.949 . S
C3314 C3318 1.368 . S
C3315 C3296 1.429 . S
C3315 C3309 1.429 . S
C3315 C3316 1.523 . S
C3316 C3297 1.368 . S
C3316 C3310 1.368 . S
C3316 C3315 1.523 . S
C3317 C3301 1.429 . S
C3317 C3313 1.429 . S
C3317 C3318 1.523 . S
C3318 C3302 1.368 . S
C3318 C3314 1.368 . S
C3318 C3317 1.523 . S
H3319 C3294 0.950 . S
H3320 C3296 0.950 . S
H3321 C3297 0.949 . S
H3322 C3299 0.950 . S
H3323 C3301 0.950 . S
C3324 C3325 1.349 . S
C3324 C3326 1.327 . S
C3324 H3349 0.950 . S
C3325 C3324 1.349 . S
C3325 C3341 1.349 . S
C3326 C3324 1.327 . S
C3326 C3345 1.429 . S
C3326 H3350 0.950 . S
C3327 C3344 1.574 . S
C3327 C3346 1.368 . S
C3327 H3351 0.949 . S
H3328 C3332 0.949 . S
C3329 C3330 1.349 . S
C3329 C3331 1.327 . S
C3329 H3352 0.950 . S
C3330 C3329 1.349 . S
C3330 C3342 1.349 . S
C3331 C3329 1.327 . S
C3331 C3347 1.429 . S
C3331 H3353 0.950 . S
C3332 H3328 0.949 . S
C3332 C3340 1.574 . S
C3332 C3348 1.368 . S
H3333 C3341 0.950 . S
H3334 C3339 0.950 . S
H3335 C3340 0.949 . S
H3336 C3342 0.950 . S
H3337 C3343 0.950 . S
H3338 C3344 0.949 . S
C3339 H3334 0.950 . S
C3339 C3341 1.327 . S
C3339 C3345 1.429 . S
C3340 C3332 1.574 . S
C3340 H3335 0.949 . S
C3340 C3346 1.368 . S
C3341 C3325 1.349 . S
C3341 H3333 0.950 . S
C3341 C3339 1.327 . S
C3342 C3330 1.349 . S
C3342 H3336 0.950 . S
C3342 C3343 1.327 . S
C3343 H3337 0.950 . S
C3343 C3342 1.327 . S
C3343 C3347 1.429 . S
C3344 C3327 1.574 . S
C3344 H3338 0.949 . S
C3344 C3348 1.368 . S
C3345 C3326 1.429 . S
C3345 C3339 1.429 . S
C3345 C3346 1.523 . S
C3346 C3327 1.368 . S
C3346 C3340 1.368 . S
C3346 C3345 1.523 . S
C3347 C3331 1.429 . S
C3347 C3343 1.429 . S
C3347 C3348 1.523 . S
C3348 C3332 1.368 . S
C3348 C3344 1.368 . S
C3348 C3347 1.523 . S
H3349 C3324 0.950 . S
H3350 C3326 0.950 . S
H3351 C3327 0.949 . S
H3352 C3329 0.950 . S
H3353 C3331 0.950 . S
C3354 C3355 1.349 . S
C3354 C3356 1.327 . S
C3354 H3379 0.950 . S
C3355 C3354 1.349 . S
C3355 C3371 1.349 . S
C3356 C3354 1.327 . S
C3356 C3375 1.429 . S
C3356 H3380 0.950 . S
C3357 C3374 1.574 . S
C3357 C3376 1.368 . S
C3357 H3381 0.949 . S
H3358 C3362 0.949 . S
C3359 C3360 1.349 . S
C3359 C3361 1.327 . S
C3359 H3382 0.950 . S
C3360 C3359 1.349 . S
C3360 C3372 1.349 . S
C3361 C3359 1.327 . S
C3361 C3377 1.429 . S
C3361 H3383 0.950 . S
C3362 H3358 0.949 . S
C3362 C3370 1.574 . S
C3362 C3378 1.368 . S
H3363 C3371 0.950 . S
H3364 C3369 0.950 . S
H3365 C3370 0.949 . S
H3366 C3372 0.950 . S
H3367 C3373 0.950 . S
H3368 C3374 0.949 . S
C3369 H3364 0.950 . S
C3369 C3371 1.327 . S
C3369 C3375 1.429 . S
C3370 C3362 1.574 . S
C3370 H3365 0.949 . S
C3370 C3376 1.368 . S
C3371 C3355 1.349 . S
C3371 H3363 0.950 . S
C3371 C3369 1.327 . S
C3372 C3360 1.349 . S
C3372 H3366 0.950 . S
C3372 C3373 1.327 . S
C3373 H3367 0.950 . S
C3373 C3372 1.327 . S
C3373 C3377 1.429 . S
C3374 C3357 1.574 . S
C3374 H3368 0.949 . S
C3374 C3378 1.368 . S
C3375 C3356 1.429 . S
C3375 C3369 1.429 . S
C3375 C3376 1.523 . S
C3376 C3357 1.368 . S
C3376 C3370 1.368 . S
C3376 C3375 1.523 . S
C3377 C3361 1.429 . S
C3377 C3373 1.429 . S
C3377 C3378 1.523 . S
C3378 C3362 1.368 . S
C3378 C3374 1.368 . S
C3378 C3377 1.523 . S
H3379 C3354 0.950 . S
H3380 C3356 0.950 . S
H3381 C3357 0.949 . S
H3382 C3359 0.950 . S
H3383 C3361 0.950 . S
C3384 C3385 1.349 . S
C3384 C3386 1.327 . S
C3384 H3409 0.950 . S
C3385 C3384 1.349 . S
C3385 C3401 1.349 . S
C3386 C3384 1.327 . S
C3386 C3405 1.429 . S
C3386 H3410 0.950 . S
C3387 C3404 1.574 . S
C3387 C3406 1.368 . S
C3387 H3411 0.949 . S
H3388 C3392 0.949 . S
C3389 C3390 1.349 . S
C3389 C3391 1.327 . S
C3389 H3412 0.950 . S
C3390 C3389 1.349 . S
C3390 C3402 1.349 . S
C3391 C3389 1.327 . S
C3391 C3407 1.429 . S
C3391 H3413 0.950 . S
C3392 H3388 0.949 . S
C3392 C3400 1.574 . S
C3392 C3408 1.368 . S
H3393 C3401 0.950 . S
H3394 C3399 0.950 . S
H3395 C3400 0.949 . S
H3396 C3402 0.950 . S
H3397 C3403 0.950 . S
H3398 C3404 0.949 . S
C3399 H3394 0.950 . S
C3399 C3401 1.327 . S
C3399 C3405 1.429 . S
C3400 C3392 1.574 . S
C3400 H3395 0.949 . S
C3400 C3406 1.368 . S
C3401 C3385 1.349 . S
C3401 H3393 0.950 . S
C3401 C3399 1.327 . S
C3402 C3390 1.349 . S
C3402 H3396 0.950 . S
C3402 C3403 1.327 . S
C3403 H3397 0.950 . S
C3403 C3402 1.327 . S
C3403 C3407 1.429 . S
C3404 C3387 1.574 . S
C3404 H3398 0.949 . S
C3404 C3408 1.368 . S
C3405 C3386 1.429 . S
C3405 C3399 1.429 . S
C3405 C3406 1.523 . S
C3406 C3387 1.368 . S
C3406 C3400 1.368 . S
C3406 C3405 1.523 . S
C3407 C3391 1.429 . S
C3407 C3403 1.429 . S
C3407 C3408 1.523 . S
C3408 C3392 1.368 . S
C3408 C3404 1.368 . S
C3408 C3407 1.523 . S
H3409 C3384 0.950 . S
H3410 C3386 0.950 . S
H3411 C3387 0.949 . S
H3412 C3389 0.950 . S
H3413 C3391 0.950 . S
C3414 C3415 1.349 . S
C3414 C3416 1.327 . S
C3414 H3439 0.950 . S
C3415 C3414 1.349 . S
C3415 C3431 1.349 . S
C3416 C3414 1.327 . S
C3416 C3435 1.429 . S
C3416 H3440 0.950 . S
C3417 C3434 1.574 . S
C3417 C3436 1.368 . S
C3417 H3441 0.949 . S
H3418 C3422 0.949 . S
C3419 C3420 1.349 . S
C3419 C3421 1.327 . S
C3419 H3442 0.950 . S
C3420 C3419 1.349 . S
C3420 C3432 1.349 . S
C3421 C3419 1.327 . S
C3421 C3437 1.429 . S
C3421 H3443 0.950 . S
C3422 H3418 0.949 . S
C3422 C3430 1.574 . S
C3422 C3438 1.368 . S
H3423 C3431 0.950 . S
H3424 C3429 0.950 . S
H3425 C3430 0.949 . S
H3426 C3432 0.950 . S
H3427 C3433 0.950 . S
H3428 C3434 0.949 . S
C3429 H3424 0.950 . S
C3429 C3431 1.327 . S
C3429 C3435 1.429 . S
C3430 C3422 1.574 . S
C3430 H3425 0.949 . S
C3430 C3436 1.368 . S
C3431 C3415 1.349 . S
C3431 H3423 0.950 . S
C3431 C3429 1.327 . S
C3432 C3420 1.349 . S
C3432 H3426 0.950 . S
C3432 C3433 1.327 . S
C3433 H3427 0.950 . S
C3433 C3432 1.327 . S
C3433 C3437 1.429 . S
C3434 C3417 1.574 . S
C3434 H3428 0.949 . S
C3434 C3438 1.368 . S
C3435 C3416 1.429 . S
C3435 C3429 1.429 . S
C3435 C3436 1.523 . S
C3436 C3417 1.368 . S
C3436 C3430 1.368 . S
C3436 C3435 1.523 . S
C3437 C3421 1.429 . S
C3437 C3433 1.429 . S
C3437 C3438 1.523 . S
C3438 C3422 1.368 . S
C3438 C3434 1.368 . S
C3438 C3437 1.523 . S
H3439 C3414 0.950 . S
H3440 C3416 0.950 . S
H3441 C3417 0.949 . S
H3442 C3419 0.950 . S
H3443 C3421 0.950 . S
C3444 C3445 1.349 . S
C3444 C3446 1.327 . S
C3444 H3469 0.950 . S
C3445 C3444 1.349 . S
C3445 C3461 1.349 . S
C3446 C3444 1.327 . S
C3446 C3465 1.429 . S
C3446 H3470 0.950 . S
C3447 C3464 1.574 . S
C3447 C3466 1.368 . S
C3447 H3471 0.949 . S
H3448 C3452 0.949 . S
C3449 C3450 1.349 . S
C3449 C3451 1.327 . S
C3449 H3472 0.950 . S
C3450 C3449 1.349 . S
C3450 C3462 1.349 . S
C3451 C3449 1.327 . S
C3451 C3467 1.429 . S
C3451 H3473 0.950 . S
C3452 H3448 0.949 . S
C3452 C3460 1.574 . S
C3452 C3468 1.368 . S
H3453 C3461 0.950 . S
H3454 C3459 0.950 . S
H3455 C3460 0.949 . S
H3456 C3462 0.950 . S
H3457 C3463 0.950 . S
H3458 C3464 0.949 . S
C3459 H3454 0.950 . S
C3459 C3461 1.327 . S
C3459 C3465 1.429 . S
C3460 C3452 1.574 . S
C3460 H3455 0.949 . S
C3460 C3466 1.368 . S
C3461 C3445 1.349 . S
C3461 H3453 0.950 . S
C3461 C3459 1.327 . S
C3462 C3450 1.349 . S
C3462 H3456 0.950 . S
C3462 C3463 1.327 . S
C3463 H3457 0.950 . S
C3463 C3462 1.327 . S
C3463 C3467 1.429 . S
C3464 C3447 1.574 . S
C3464 H3458 0.949 . S
C3464 C3468 1.368 . S
C3465 C3446 1.429 . S
C3465 C3459 1.429 . S
C3465 C3466 1.523 . S
C3466 C3447 1.368 . S
C3466 C3460 1.368 . S
C3466 C3465 1.523 . S
C3467 C3451 1.429 . S
C3467 C3463 1.429 . S
C3467 C3468 1.523 . S
C3468 C3452 1.368 . S
C3468 C3464 1.368 . S
C3468 C3467 1.523 . S
H3469 C3444 0.950 . S
H3470 C3446 0.950 . S
H3471 C3447 0.949 . S
H3472 C3449 0.950 . S
H3473 C3451 0.950 . S
C3474 C3475 1.349 . S
C3474 C3476 1.327 . S
C3474 H3499 0.950 . S
C3475 C3474 1.349 . S
C3475 C3491 1.349 . S
C3476 C3474 1.327 . S
C3476 C3495 1.429 . S
C3476 H3500 0.950 . S
C3477 C3494 1.574 . S
C3477 C3496 1.368 . S
C3477 H3501 0.949 . S
H3478 C3482 0.949 . S
C3479 C3480 1.349 . S
C3479 C3481 1.327 . S
C3479 H3502 0.950 . S
C3480 C3479 1.349 . S
C3480 C3492 1.349 . S
C3481 C3479 1.327 . S
C3481 C3497 1.429 . S
C3481 H3503 0.950 . S
C3482 H3478 0.949 . S
C3482 C3490 1.574 . S
C3482 C3498 1.368 . S
H3483 C3491 0.950 . S
H3484 C3489 0.950 . S
H3485 C3490 0.949 . S
H3486 C3492 0.950 . S
H3487 C3493 0.950 . S
H3488 C3494 0.949 . S
C3489 H3484 0.950 . S
C3489 C3491 1.327 . S
C3489 C3495 1.429 . S
C3490 C3482 1.574 . S
C3490 H3485 0.949 . S
C3490 C3496 1.368 . S
C3491 C3475 1.349 . S
C3491 H3483 0.950 . S
C3491 C3489 1.327 . S
C3492 C3480 1.349 . S
C3492 H3486 0.950 . S
C3492 C3493 1.327 . S
C3493 H3487 0.950 . S
C3493 C3492 1.327 . S
C3493 C3497 1.429 . S
C3494 C3477 1.574 . S
C3494 H3488 0.949 . S
C3494 C3498 1.368 . S
C3495 C3476 1.429 . S
C3495 C3489 1.429 . S
C3495 C3496 1.523 . S
C3496 C3477 1.368 . S
C3496 C3490 1.368 . S
C3496 C3495 1.523 . S
C3497 C3481 1.429 . S
C3497 C3493 1.429 . S
C3497 C3498 1.523 . S
C3498 C3482 1.368 . S
C3498 C3494 1.368 . S
C3498 C3497 1.523 . S
H3499 C3474 0.950 . S
H3500 C3476 0.950 . S
H3501 C3477 0.949 . S
H3502 C3479 0.950 . S
H3503 C3481 0.950 . S
C3504 C3505 1.349 . S
C3504 C3506 1.327 . S
C3504 H3529 0.950 . S
C3505 C3504 1.349 . S
C3505 C3521 1.349 . S
C3506 C3504 1.327 . S
C3506 C3525 1.429 . S
C3506 H3530 0.950 . S
C3507 C3524 1.574 . S
C3507 C3526 1.368 . S
C3507 H3531 0.949 . S
H3508 C3512 0.949 . S
C3509 C3510 1.349 . S
C3509 C3511 1.327 . S
C3509 H3532 0.950 . S
C3510 C3509 1.349 . S
C3510 C3522 1.349 . S
C3511 C3509 1.327 . S
C3511 C3527 1.429 . S
C3511 H3533 0.950 . S
C3512 H3508 0.949 . S
C3512 C3520 1.574 . S
C3512 C3528 1.368 . S
H3513 C3521 0.950 . S
H3514 C3519 0.950 . S
H3515 C3520 0.949 . S
H3516 C3522 0.950 . S
H3517 C3523 0.950 . S
H3518 C3524 0.949 . S
C3519 H3514 0.950 . S
C3519 C3521 1.327 . S
C3519 C3525 1.429 . S
C3520 C3512 1.574 . S
C3520 H3515 0.949 . S
C3520 C3526 1.368 . S
C3521 C3505 1.349 . S
C3521 H3513 0.950 . S
C3521 C3519 1.327 . S
C3522 C3510 1.349 . S
C3522 H3516 0.950 . S
C3522 C3523 1.327 . S
C3523 H3517 0.950 . S
C3523 C3522 1.327 . S
C3523 C3527 1.429 . S
C3524 C3507 1.574 . S
C3524 H3518 0.949 . S
C3524 C3528 1.368 . S
C3525 C3506 1.429 . S
C3525 C3519 1.429 . S
C3525 C3526 1.523 . S
C3526 C3507 1.368 . S
C3526 C3520 1.368 . S
C3526 C3525 1.523 . S
C3527 C3511 1.429 . S
C3527 C3523 1.429 . S
C3527 C3528 1.523 . S
C3528 C3512 1.368 . S
C3528 C3524 1.368 . S
C3528 C3527 1.523 . S
H3529 C3504 0.950 . S
H3530 C3506 0.950 . S
H3531 C3507 0.949 . S
H3532 C3509 0.950 . S
H3533 C3511 0.950 . S
C3534 C3535 1.349 . S
C3534 C3536 1.327 . S
C3534 H3559 0.950 . S
C3535 C3534 1.349 . S
C3535 C3551 1.349 . S
C3536 C3534 1.327 . S
C3536 C3555 1.429 . S
C3536 H3560 0.950 . S
C3537 C3554 1.574 . S
C3537 C3556 1.368 . S
C3537 H3561 0.949 . S
H3538 C3542 0.949 . S
C3539 C3540 1.349 . S
C3539 C3541 1.327 . S
C3539 H3562 0.950 . S
C3540 C3539 1.349 . S
C3540 C3552 1.349 . S
C3541 C3539 1.327 . S
C3541 C3557 1.429 . S
C3541 H3563 0.950 . S
C3542 H3538 0.949 . S
C3542 C3550 1.574 . S
C3542 C3558 1.368 . S
H3543 C3551 0.950 . S
H3544 C3549 0.950 . S
H3545 C3550 0.949 . S
H3546 C3552 0.950 . S
H3547 C3553 0.950 . S
H3548 C3554 0.949 . S
C3549 H3544 0.950 . S
C3549 C3551 1.327 . S
C3549 C3555 1.429 . S
C3550 C3542 1.574 . S
C3550 H3545 0.949 . S
C3550 C3556 1.368 . S
C3551 C3535 1.349 . S
C3551 H3543 0.950 . S
C3551 C3549 1.327 . S
C3552 C3540 1.349 . S
C3552 H3546 0.950 . S
C3552 C3553 1.327 . S
C3553 H3547 0.950 . S
C3553 C3552 1.327 . S
C3553 C3557 1.429 . S
C3554 C3537 1.574 . S
C3554 H3548 0.949 . S
C3554 C3558 1.368 . S
C3555 C3536 1.429 . S
C3555 C3549 1.429 . S
C3555 C3556 1.523 . S
C3556 C3537 1.368 . S
C3556 C3550 1.368 . S
C3556 C3555 1.523 . S
C3557 C3541 1.429 . S
C3557 C3553 1.429 . S
C3557 C3558 1.523 . S
C3558 C3542 1.368 . S
C3558 C3554 1.368 . S
C3558 C3557 1.523 . S
H3559 C3534 0.950 . S
H3560 C3536 0.950 . S
H3561 C3537 0.949 . S
H3562 C3539 0.950 . S
H3563 C3541 0.950 . S
C3564 C3565 1.349 . S
C3564 C3566 1.327 . S
C3564 H3589 0.950 . S
C3565 C3564 1.349 . S
C3565 C3581 1.349 . S
C3566 C3564 1.327 . S
C3566 C3585 1.429 . S
C3566 H3590 0.950 . S
C3567 C3584 1.574 . S
C3567 C3586 1.368 . S
C3567 H3591 0.949 . S
H3568 C3572 0.949 . S
C3569 C3570 1.349 . S
C3569 C3571 1.327 . S
C3569 H3592 0.950 . S
C3570 C3569 1.349 . S
C3570 C3582 1.349 . S
C3571 C3569 1.327 . S
C3571 C3587 1.429 . S
C3571 H3593 0.950 . S
C3572 H3568 0.949 . S
C3572 C3580 1.574 . S
C3572 C3588 1.368 . S
H3573 C3581 0.950 . S
H3574 C3579 0.950 . S
H3575 C3580 0.949 . S
H3576 C3582 0.950 . S
H3577 C3583 0.950 . S
H3578 C3584 0.949 . S
C3579 H3574 0.950 . S
C3579 C3581 1.327 . S
C3579 C3585 1.429 . S
C3580 C3572 1.574 . S
C3580 H3575 0.949 . S
C3580 C3586 1.368 . S
C3581 C3565 1.349 . S
C3581 H3573 0.950 . S
C3581 C3579 1.327 . S
C3582 C3570 1.349 . S
C3582 H3576 0.950 . S
C3582 C3583 1.327 . S
C3583 H3577 0.950 . S
C3583 C3582 1.327 . S
C3583 C3587 1.429 . S
C3584 C3567 1.574 . S
C3584 H3578 0.949 . S
C3584 C3588 1.368 . S
C3585 C3566 1.429 . S
C3585 C3579 1.429 . S
C3585 C3586 1.523 . S
C3586 C3567 1.368 . S
C3586 C3580 1.368 . S
C3586 C3585 1.523 . S
C3587 C3571 1.429 . S
C3587 C3583 1.429 . S
C3587 C3588 1.523 . S
C3588 C3572 1.368 . S
C3588 C3584 1.368 . S
C3588 C3587 1.523 . S
H3589 C3564 0.950 . S
H3590 C3566 0.950 . S
H3591 C3567 0.949 . S
H3592 C3569 0.950 . S
H3593 C3571 0.950 . S
C3594 C3595 1.349 . S
C3594 C3596 1.327 . S
C3594 H3619 0.950 . S
C3595 C3594 1.349 . S
C3595 C3611 1.349 . S
C3596 C3594 1.327 . S
C3596 C3615 1.429 . S
C3596 H3620 0.950 . S
C3597 C3614 1.574 . S
C3597 C3616 1.368 . S
C3597 H3621 0.949 . S
H3598 C3602 0.949 . S
C3599 C3600 1.349 . S
C3599 C3601 1.327 . S
C3599 H3622 0.950 . S
C3600 C3599 1.349 . S
C3600 C3612 1.349 . S
C3601 C3599 1.327 . S
C3601 C3617 1.429 . S
C3601 H3623 0.950 . S
C3602 H3598 0.949 . S
C3602 C3610 1.574 . S
C3602 C3618 1.368 . S
H3603 C3611 0.950 . S
H3604 C3609 0.950 . S
H3605 C3610 0.949 . S
H3606 C3612 0.950 . S
H3607 C3613 0.950 . S
H3608 C3614 0.949 . S
C3609 H3604 0.950 . S
C3609 C3611 1.327 . S
C3609 C3615 1.429 . S
C3610 C3602 1.574 . S
C3610 H3605 0.949 . S
C3610 C3616 1.368 . S
C3611 C3595 1.349 . S
C3611 H3603 0.950 . S
C3611 C3609 1.327 . S
C3612 C3600 1.349 . S
C3612 H3606 0.950 . S
C3612 C3613 1.327 . S
C3613 H3607 0.950 . S
C3613 C3612 1.327 . S
C3613 C3617 1.429 . S
C3614 C3597 1.574 . S
C3614 H3608 0.949 . S
C3614 C3618 1.368 . S
C3615 C3596 1.429 . S
C3615 C3609 1.429 . S
C3615 C3616 1.523 . S
C3616 C3597 1.368 . S
C3616 C3610 1.368 . S
C3616 C3615 1.523 . S
C3617 C3601 1.429 . S
C3617 C3613 1.429 . S
C3617 C3618 1.523 . S
C3618 C3602 1.368 . S
C3618 C3614 1.368 . S
C3618 C3617 1.523 . S
H3619 C3594 0.950 . S
H3620 C3596 0.950 . S
H3621 C3597 0.949 . S
H3622 C3599 0.950 . S
H3623 C3601 0.950 . S
C3624 C3625 1.349 . S
C3624 C3626 1.327 . S
C3624 H3649 0.950 . S
C3625 C3624 1.349 . S
C3625 C3641 1.349 . S
C3626 C3624 1.327 . S
C3626 C3645 1.429 . S
C3626 H3650 0.950 . S
C3627 C3644 1.574 . S
C3627 C3646 1.368 . S
C3627 H3651 0.949 . S
H3628 C3632 0.949 . S
C3629 C3630 1.349 . S
C3629 C3631 1.327 . S
C3629 H3652 0.950 . S
C3630 C3629 1.349 . S
C3630 C3642 1.349 . S
C3631 C3629 1.327 . S
C3631 C3647 1.429 . S
C3631 H3653 0.950 . S
C3632 H3628 0.949 . S
C3632 C3640 1.574 . S
C3632 C3648 1.368 . S
H3633 C3641 0.950 . S
H3634 C3639 0.950 . S
H3635 C3640 0.949 . S
H3636 C3642 0.950 . S
H3637 C3643 0.950 . S
H3638 C3644 0.949 . S
C3639 H3634 0.950 . S
C3639 C3641 1.327 . S
C3639 C3645 1.429 . S
C3640 C3632 1.574 . S
C3640 H3635 0.949 . S
C3640 C3646 1.368 . S
C3641 C3625 1.349 . S
C3641 H3633 0.950 . S
C3641 C3639 1.327 . S
C3642 C3630 1.349 . S
C3642 H3636 0.950 . S
C3642 C3643 1.327 . S
C3643 H3637 0.950 . S
C3643 C3642 1.327 . S
C3643 C3647 1.429 . S
C3644 C3627 1.574 . S
C3644 H3638 0.949 . S
C3644 C3648 1.368 . S
C3645 C3626 1.429 . S
C3645 C3639 1.429 . S
C3645 C3646 1.523 . S
C3646 C3627 1.368 . S
C3646 C3640 1.368 . S
C3646 C3645 1.523 . S
C3647 C3631 1.429 . S
C3647 C3643 1.429 . S
C3647 C3648 1.523 . S
C3648 C3632 1.368 . S
C3648 C3644 1.368 . S
C3648 C3647 1.523 . S
H3649 C3624 0.950 . S
H3650 C3626 0.950 . S
H3651 C3627 0.949 . S
H3652 C3629 0.950 . S
H3653 C3631 0.950 . S
C3654 C3655 1.349 . S
C3654 C3656 1.327 . S
C3654 H3679 0.950 . S
C3655 C3654 1.349 . S
C3655 C3671 1.349 . S
C3656 C3654 1.327 . S
C3656 C3675 1.429 . S
C3656 H3680 0.950 . S
C3657 C3674 1.574 . S
C3657 C3676 1.368 . S
C3657 H3681 0.949 . S
H3658 C3662 0.949 . S
C3659 C3660 1.349 . S
C3659 C3661 1.327 . S
C3659 H3682 0.950 . S
C3660 C3659 1.349 . S
C3660 C3672 1.349 . S
C3661 C3659 1.327 . S
C3661 C3677 1.429 . S
C3661 H3683 0.950 . S
C3662 H3658 0.949 . S
C3662 C3670 1.574 . S
C3662 C3678 1.368 . S
H3663 C3671 0.950 . S
H3664 C3669 0.950 . S
H3665 C3670 0.949 . S
H3666 C3672 0.950 . S
H3667 C3673 0.950 . S
H3668 C3674 0.949 . S
C3669 H3664 0.950 . S
C3669 C3671 1.327 . S
C3669 C3675 1.429 . S
C3670 C3662 1.574 . S
C3670 H3665 0.949 . S
C3670 C3676 1.368 . S
C3671 C3655 1.349 . S
C3671 H3663 0.950 . S
C3671 C3669 1.327 . S
C3672 C3660 1.349 . S
C3672 H3666 0.950 . S
C3672 C3673 1.327 . S
C3673 H3667 0.950 . S
C3673 C3672 1.327 . S
C3673 C3677 1.429 . S
C3674 C3657 1.574 . S
C3674 H3668 0.949 . S
C3674 C3678 1.368 . S
C3675 C3656 1.429 . S
C3675 C3669 1.429 . S
C3675 C3676 1.523 . S
C3676 C3657 1.368 . S
C3676 C3670 1.368 . S
C3676 C3675 1.523 . S
C3677 C3661 1.429 . S
C3677 C3673 1.429 . S
C3677 C3678 1.523 . S
C3678 C3662 1.368 . S
C3678 C3674 1.368 . S
C3678 C3677 1.523 . S
H3679 C3654 0.950 . S
H3680 C3656 0.950 . S
H3681 C3657 0.949 . S
H3682 C3659 0.950 . S
H3683 C3661 0.950 . S
C3684 C3685 1.349 . S
C3684 C3686 1.327 . S
C3684 H3709 0.950 . S
C3685 C3684 1.349 . S
C3685 C3701 1.349 . S
C3686 C3684 1.327 . S
C3686 C3705 1.429 . S
C3686 H3710 0.950 . S
C3687 C3704 1.574 . S
C3687 C3706 1.368 . S
C3687 H3711 0.949 . S
H3688 C3692 0.949 . S
C3689 C3690 1.349 . S
C3689 C3691 1.327 . S
C3689 H3712 0.950 . S
C3690 C3689 1.349 . S
C3690 C3702 1.349 . S
C3691 C3689 1.327 . S
C3691 C3707 1.429 . S
C3691 H3713 0.950 . S
C3692 H3688 0.949 . S
C3692 C3700 1.574 . S
C3692 C3708 1.368 . S
H3693 C3701 0.950 . S
H3694 C3699 0.950 . S
H3695 C3700 0.949 . S
H3696 C3702 0.950 . S
H3697 C3703 0.950 . S
H3698 C3704 0.949 . S
C3699 H3694 0.950 . S
C3699 C3701 1.327 . S
C3699 C3705 1.429 . S
C3700 C3692 1.574 . S
C3700 H3695 0.949 . S
C3700 C3706 1.368 . S
C3701 C3685 1.349 . S
C3701 H3693 0.950 . S
C3701 C3699 1.327 . S
C3702 C3690 1.349 . S
C3702 H3696 0.950 . S
C3702 C3703 1.327 . S
C3703 H3697 0.950 . S
C3703 C3702 1.327 . S
C3703 C3707 1.429 . S
C3704 C3687 1.574 . S
C3704 H3698 0.949 . S
C3704 C3708 1.368 . S
C3705 C3686 1.429 . S
C3705 C3699 1.429 . S
C3705 C3706 1.523 . S
C3706 C3687 1.368 . S
C3706 C3700 1.368 . S
C3706 C3705 1.523 . S
C3707 C3691 1.429 . S
C3707 C3703 1.429 . S
C3707 C3708 1.523 . S
C3708 C3692 1.368 . S
C3708 C3704 1.368 . S
C3708 C3707 1.523 . S
H3709 C3684 0.950 . S
H3710 C3686 0.950 . S
H3711 C3687 0.949 . S
H3712 C3689 0.950 . S
H3713 C3691 0.950 . S
C3714 C3715 1.349 . S
C3714 C3716 1.327 . S
C3714 H3739 0.950 . S
C3715 C3714 1.349 . S
C3715 C3731 1.349 . S
C3716 C3714 1.327 . S
C3716 C3735 1.429 . S
C3716 H3740 0.950 . S
C3717 C3734 1.574 . S
C3717 C3736 1.368 . S
C3717 H3741 0.949 . S
H3718 C3722 0.949 . S
C3719 C3720 1.349 . S
C3719 C3721 1.327 . S
C3719 H3742 0.950 . S
C3720 C3719 1.349 . S
C3720 C3732 1.349 . S
C3721 C3719 1.327 . S
C3721 C3737 1.429 . S
C3721 H3743 0.950 . S
C3722 H3718 0.949 . S
C3722 C3730 1.574 . S
C3722 C3738 1.368 . S
H3723 C3731 0.950 . S
H3724 C3729 0.950 . S
H3725 C3730 0.949 . S
H3726 C3732 0.950 . S
H3727 C3733 0.950 . S
H3728 C3734 0.949 . S
C3729 H3724 0.950 . S
C3729 C3731 1.327 . S
C3729 C3735 1.429 . S
C3730 C3722 1.574 . S
C3730 H3725 0.949 . S
C3730 C3736 1.368 . S
C3731 C3715 1.349 . S
C3731 H3723 0.950 . S
C3731 C3729 1.327 . S
C3732 C3720 1.349 . S
C3732 H3726 0.950 . S
C3732 C3733 1.327 . S
C3733 H3727 0.950 . S
C3733 C3732 1.327 . S
C3733 C3737 1.429 . S
C3734 C3717 1.574 . S
C3734 H3728 0.949 . S
C3734 C3738 1.368 . S
C3735 C3716 1.429 . S
C3735 C3729 1.429 . S
C3735 C3736 1.523 . S
C3736 C3717 1.368 . S
C3736 C3730 1.368 . S
C3736 C3735 1.523 . S
C3737 C3721 1.429 . S
C3737 C3733 1.429 . S
C3737 C3738 1.523 . S
C3738 C3722 1.368 . S
C3738 C3734 1.368 . S
C3738 C3737 1.523 . S
H3739 C3714 0.950 . S
H3740 C3716 0.950 . S
H3741 C3717 0.949 . S
H3742 C3719 0.950 . S
H3743 C3721 0.950 . S
C3744 C3745 1.349 . S
C3744 C3746 1.327 . S
C3744 H3769 0.950 . S
C3745 C3744 1.349 . S
C3745 C3761 1.349 . S
C3746 C3744 1.327 . S
C3746 C3765 1.429 . S
C3746 H3770 0.950 . S
C3747 C3764 1.574 . S
C3747 C3766 1.368 . S
C3747 H3771 0.949 . S
H3748 C3752 0.949 . S
C3749 C3750 1.349 . S
C3749 C3751 1.327 . S
C3749 H3772 0.950 . S
C3750 C3749 1.349 . S
C3750 C3762 1.349 . S
C3751 C3749 1.327 . S
C3751 C3767 1.429 . S
C3751 H3773 0.950 . S
C3752 H3748 0.949 . S
C3752 C3760 1.574 . S
C3752 C3768 1.368 . S
H3753 C3761 0.950 . S
H3754 C3759 0.950 . S
H3755 C3760 0.949 . S
H3756 C3762 0.950 . S
H3757 C3763 0.950 . S
H3758 C3764 0.949 . S
C3759 H3754 0.950 . S
C3759 C3761 1.327 . S
C3759 C3765 1.429 . S
C3760 C3752 1.574 . S
C3760 H3755 0.949 . S
C3760 C3766 1.368 . S
C3761 C3745 1.349 . S
C3761 H3753 0.950 . S
C3761 C3759 1.327 . S
C3762 C3750 1.349 . S
C3762 H3756 0.950 . S
C3762 C3763 1.327 . S
C3763 H3757 0.950 . S
C3763 C3762 1.327 . S
C3763 C3767 1.429 . S
C3764 C3747 1.574 . S
C3764 H3758 0.949 . S
C3764 C3768 1.368 . S
C3765 C3746 1.429 . S
C3765 C3759 1.429 . S
C3765 C3766 1.523 . S
C3766 C3747 1.368 . S
C3766 C3760 1.368 . S
C3766 C3765 1.523 . S
C3767 C3751 1.429 . S
C3767 C3763 1.429 . S
C3767 C3768 1.523 . S
C3768 C3752 1.368 . S
C3768 C3764 1.368 . S
C3768 C3767 1.523 . S
H3769 C3744 0.950 . S
H3770 C3746 0.950 . S
H3771 C3747 0.949 . S
H3772 C3749 0.950 . S
H3773 C3751 0.950 . S
C3774 C3775 1.349 . S
C3774 C3776 1.327 . S
C3774 H3799 0.950 . S
C3775 C3774 1.349 . S
C3775 C3791 1.349 . S
C3776 C3774 1.327 . S
C3776 C3795 1.429 . S
C3776 H3800 0.950 . S
C3777 C3794 1.574 . S
C3777 C3796 1.368 . S
C3777 H3801 0.949 . S
H3778 C3782 0.949 . S
C3779 C3780 1.349 . S
C3779 C3781 1.327 . S
C3779 H3802 0.950 . S
C3780 C3779 1.349 . S
C3780 C3792 1.349 . S
C3781 C3779 1.327 . S
C3781 C3797 1.429 . S
C3781 H3803 0.950 . S
C3782 H3778 0.949 . S
C3782 C3790 1.574 . S
C3782 C3798 1.368 . S
H3783 C3791 0.950 . S
H3784 C3789 0.950 . S
H3785 C3790 0.949 . S
H3786 C3792 0.950 . S
H3787 C3793 0.950 . S
H3788 C3794 0.949 . S
C3789 H3784 0.950 . S
C3789 C3791 1.327 . S
C3789 C3795 1.429 . S
C3790 C3782 1.574 . S
C3790 H3785 0.949 . S
C3790 C3796 1.368 . S
C3791 C3775 1.349 . S
C3791 H3783 0.950 . S
C3791 C3789 1.327 . S
C3792 C3780 1.349 . S
C3792 H3786 0.950 . S
C3792 C3793 1.327 . S
C3793 H3787 0.950 . S
C3793 C3792 1.327 . S
C3793 C3797 1.429 . S
C3794 C3777 1.574 . S
C3794 H3788 0.949 . S
C3794 C3798 1.368 . S
C3795 C3776 1.429 . S
C3795 C3789 1.429 . S
C3795 C3796 1.523 . S
C3796 C3777 1.368 . S
C3796 C3790 1.368 . S
C3796 C3795 1.523 . S
C3797 C3781 1.429 . S
C3797 C3793 1.429 . S
C3797 C3798 1.523 . S
C3798 C3782 1.368 . S
C3798 C3794 1.368 . S
C3798 C3797 1.523 . S
H3799 C3774 0.950 . S
H3800 C3776 0.950 . S
H3801 C3777 0.949 . S
H3802 C3779 0.950 . S
H3803 C3781 0.950 . S
C3804 C3805 1.349 . S
C3804 C3806 1.327 . S
C3804 H3829 0.950 . S
C3805 C3804 1.349 . S
C3805 C3821 1.349 . S
C3806 C3804 1.327 . S
C3806 C3825 1.429 . S
C3806 H3830 0.950 . S
C3807 C3824 1.574 . S
C3807 C3826 1.368 . S
C3807 H3831 0.949 . S
H3808 C3812 0.949 . S
C3809 C3810 1.349 . S
C3809 C3811 1.327 . S
C3809 H3832 0.950 . S
C3810 C3809 1.349 . S
C3810 C3822 1.349 . S
C3811 C3809 1.327 . S
C3811 C3827 1.429 . S
C3811 H3833 0.950 . S
C3812 H3808 0.949 . S
C3812 C3820 1.574 . S
C3812 C3828 1.368 . S
H3813 C3821 0.950 . S
H3814 C3819 0.950 . S
H3815 C3820 0.949 . S
H3816 C3822 0.950 . S
H3817 C3823 0.950 . S
H3818 C3824 0.949 . S
C3819 H3814 0.950 . S
C3819 C3821 1.327 . S
C3819 C3825 1.429 . S
C3820 C3812 1.574 . S
C3820 H3815 0.949 . S
C3820 C3826 1.368 . S
C3821 C3805 1.349 . S
C3821 H3813 0.950 . S
C3821 C3819 1.327 . S
C3822 C3810 1.349 . S
C3822 H3816 0.950 . S
C3822 C3823 1.327 . S
C3823 H3817 0.950 . S
C3823 C3822 1.327 . S
C3823 C3827 1.429 . S
C3824 C3807 1.574 . S
C3824 H3818 0.949 . S
C3824 C3828 1.368 . S
C3825 C3806 1.429 . S
C3825 C3819 1.429 . S
C3825 C3826 1.523 . S
C3826 C3807 1.368 . S
C3826 C3820 1.368 . S
C3826 C3825 1.523 . S
C3827 C3811 1.429 . S
C3827 C3823 1.429 . S
C3827 C3828 1.523 . S
C3828 C3812 1.368 . S
C3828 C3824 1.368 . S
C3828 C3827 1.523 . S
H3829 C3804 0.950 . S
H3830 C3806 0.950 . S
H3831 C3807 0.949 . S
H3832 C3809 0.950 . S
H3833 C3811 0.950 . S
C3834 C3835 1.349 . S
C3834 C3836 1.327 . S
C3834 H3859 0.950 . S
C3835 C3834 1.349 . S
C3835 C3851 1.349 . S
C3836 C3834 1.327 . S
C3836 C3855 1.429 . S
C3836 H3860 0.950 . S
C3837 C3854 1.574 . S
C3837 C3856 1.368 . S
C3837 H3861 0.949 . S
H3838 C3842 0.949 . S
C3839 C3840 1.349 . S
C3839 C3841 1.327 . S
C3839 H3862 0.950 . S
C3840 C3839 1.349 . S
C3840 C3852 1.349 . S
C3841 C3839 1.327 . S
C3841 C3857 1.429 . S
C3841 H3863 0.950 . S
C3842 H3838 0.949 . S
C3842 C3850 1.574 . S
C3842 C3858 1.368 . S
H3843 C3851 0.950 . S
H3844 C3849 0.950 . S
H3845 C3850 0.949 . S
H3846 C3852 0.950 . S
H3847 C3853 0.950 . S
H3848 C3854 0.949 . S
C3849 H3844 0.950 . S
C3849 C3851 1.327 . S
C3849 C3855 1.429 . S
C3850 C3842 1.574 . S
C3850 H3845 0.949 . S
C3850 C3856 1.368 . S
C3851 C3835 1.349 . S
C3851 H3843 0.950 . S
C3851 C3849 1.327 . S
C3852 C3840 1.349 . S
C3852 H3846 0.950 . S
C3852 C3853 1.327 . S
C3853 H3847 0.950 . S
C3853 C3852 1.327 . S
C3853 C3857 1.429 . S
C3854 C3837 1.574 . S
C3854 H3848 0.949 . S
C3854 C3858 1.368 . S
C3855 C3836 1.429 . S
C3855 C3849 1.429 . S
C3855 C3856 1.523 . S
C3856 C3837 1.368 . S
C3856 C3850 1.368 . S
C3856 C3855 1.523 . S
C3857 C3841 1.429 . S
C3857 C3853 1.429 . S
C3857 C3858 1.523 . S
C3858 C3842 1.368 . S
C3858 C3854 1.368 . S
C3858 C3857 1.523 . S
H3859 C3834 0.950 . S
H3860 C3836 0.950 . S
H3861 C3837 0.949 . S
H3862 C3839 0.950 . S
H3863 C3841 0.950 . S
C3864 C3865 1.349 . S
C3864 C3866 1.327 . S
C3864 H3889 0.950 . S
C3865 C3864 1.349 . S
C3865 C3881 1.349 . S
C3866 C3864 1.327 . S
C3866 C3885 1.429 . S
C3866 H3890 0.950 . S
C3867 C3884 1.574 . S
C3867 C3886 1.368 . S
C3867 H3891 0.949 . S
H3868 C3872 0.949 . S
C3869 C3870 1.349 . S
C3869 C3871 1.327 . S
C3869 H3892 0.950 . S
C3870 C3869 1.349 . S
C3870 C3882 1.349 . S
C3871 C3869 1.327 . S
C3871 C3887 1.429 . S
C3871 H3893 0.950 . S
C3872 H3868 0.949 . S
C3872 C3880 1.574 . S
C3872 C3888 1.368 . S
H3873 C3881 0.950 . S
H3874 C3879 0.950 . S
H3875 C3880 0.949 . S
H3876 C3882 0.950 . S
H3877 C3883 0.950 . S
H3878 C3884 0.949 . S
C3879 H3874 0.950 . S
C3879 C3881 1.327 . S
C3879 C3885 1.429 . S
C3880 C3872 1.574 . S
C3880 H3875 0.949 . S
C3880 C3886 1.368 . S
C3881 C3865 1.349 . S
C3881 H3873 0.950 . S
C3881 C3879 1.327 . S
C3882 C3870 1.349 . S
C3882 H3876 0.950 . S
C3882 C3883 1.327 . S
C3883 H3877 0.950 . S
C3883 C3882 1.327 . S
C3883 C3887 1.429 . S
C3884 C3867 1.574 . S
C3884 H3878 0.949 . S
C3884 C3888 1.368 . S
C3885 C3866 1.429 . S
C3885 C3879 1.429 . S
C3885 C3886 1.523 . S
C3886 C3867 1.368 . S
C3886 C3880 1.368 . S
C3886 C3885 1.523 . S
C3887 C3871 1.429 . S
C3887 C3883 1.429 . S
C3887 C3888 1.523 . S
C3888 C3872 1.368 . S
C3888 C3884 1.368 . S
C3888 C3887 1.523 . S
H3889 C3864 0.950 . S
H3890 C3866 0.950 . S
H3891 C3867 0.949 . S
H3892 C3869 0.950 . S
H3893 C3871 0.950 . S
C3894 C3895 1.349 . S
C3894 C3896 1.327 . S
C3894 H3919 0.950 . S
C3895 C3894 1.349 . S
C3895 C3911 1.349 . S
C3896 C3894 1.327 . S
C3896 C3915 1.429 . S
C3896 H3920 0.950 . S
C3897 C3914 1.574 . S
C3897 C3916 1.368 . S
C3897 H3921 0.949 . S
H3898 C3902 0.949 . S
C3899 C3900 1.349 . S
C3899 C3901 1.327 . S
C3899 H3922 0.950 . S
C3900 C3899 1.349 . S
C3900 C3912 1.349 . S
C3901 C3899 1.327 . S
C3901 C3917 1.429 . S
C3901 H3923 0.950 . S
C3902 H3898 0.949 . S
C3902 C3910 1.574 . S
C3902 C3918 1.368 . S
H3903 C3911 0.950 . S
H3904 C3909 0.950 . S
H3905 C3910 0.949 . S
H3906 C3912 0.950 . S
H3907 C3913 0.950 . S
H3908 C3914 0.949 . S
C3909 H3904 0.950 . S
C3909 C3911 1.327 . S
C3909 C3915 1.429 . S
C3910 C3902 1.574 . S
C3910 H3905 0.949 . S
C3910 C3916 1.368 . S
C3911 C3895 1.349 . S
C3911 H3903 0.950 . S
C3911 C3909 1.327 . S
C3912 C3900 1.349 . S
C3912 H3906 0.950 . S
C3912 C3913 1.327 . S
C3913 H3907 0.950 . S
C3913 C3912 1.327 . S
C3913 C3917 1.429 . S
C3914 C3897 1.574 . S
C3914 H3908 0.949 . S
C3914 C3918 1.368 . S
C3915 C3896 1.429 . S
C3915 C3909 1.429 . S
C3915 C3916 1.523 . S
C3916 C3897 1.368 . S
C3916 C3910 1.368 . S
C3916 C3915 1.523 . S
C3917 C3901 1.429 . S
C3917 C3913 1.429 . S
C3917 C3918 1.523 . S
C3918 C3902 1.368 . S
C3918 C3914 1.368 . S
C3918 C3917 1.523 . S
H3919 C3894 0.950 . S
H3920 C3896 0.950 . S
H3921 C3897 0.949 . S
H3922 C3899 0.950 . S
H3923 C3901 0.950 . S
C3924 C3925 1.349 . S
C3924 C3926 1.327 . S
C3924 H3949 0.950 . S
C3925 C3924 1.349 . S
C3925 C3941 1.349 . S
C3926 C3924 1.327 . S
C3926 C3945 1.429 . S
C3926 H3950 0.950 . S
C3927 C3944 1.574 . S
C3927 C3946 1.368 . S
C3927 H3951 0.949 . S
H3928 C3932 0.949 . S
C3929 C3930 1.349 . S
C3929 C3931 1.327 . S
C3929 H3952 0.950 . S
C3930 C3929 1.349 . S
C3930 C3942 1.349 . S
C3931 C3929 1.327 . S
C3931 C3947 1.429 . S
C3931 H3953 0.950 . S
C3932 H3928 0.949 . S
C3932 C3940 1.574 . S
C3932 C3948 1.368 . S
H3933 C3941 0.950 . S
H3934 C3939 0.950 . S
H3935 C3940 0.949 . S
H3936 C3942 0.950 . S
H3937 C3943 0.950 . S
H3938 C3944 0.949 . S
C3939 H3934 0.950 . S
C3939 C3941 1.327 . S
C3939 C3945 1.429 . S
C3940 C3932 1.574 . S
C3940 H3935 0.949 . S
C3940 C3946 1.368 . S
C3941 C3925 1.349 . S
C3941 H3933 0.950 . S
C3941 C3939 1.327 . S
C3942 C3930 1.349 . S
C3942 H3936 0.950 . S
C3942 C3943 1.327 . S
C3943 H3937 0.950 . S
C3943 C3942 1.327 . S
C3943 C3947 1.429 . S
C3944 C3927 1.574 . S
C3944 H3938 0.949 . S
C3944 C3948 1.368 . S
C3945 C3926 1.429 . S
C3945 C3939 1.429 . S
C3945 C3946 1.523 . S
C3946 C3927 1.368 . S
C3946 C3940 1.368 . S
C3946 C3945 1.523 . S
C3947 C3931 1.429 . S
C3947 C3943 1.429 . S
C3947 C3948 1.523 . S
C3948 C3932 1.368 . S
C3948 C3944 1.368 . S
C3948 C3947 1.523 . S
H3949 C3924 0.950 . S
H3950 C3926 0.950 . S
H3951 C3927 0.949 . S
H3952 C3929 0.950 . S
H3953 C3931 0.950 . S
C3954 C3955 1.349 . S
C3954 C3956 1.327 . S
C3954 H3979 0.950 . S
C3955 C3954 1.349 . S
C3955 C3971 1.349 . S
C3956 C3954 1.327 . S
C3956 C3975 1.429 . S
C3956 H3980 0.950 . S
C3957 C3974 1.574 . S
C3957 C3976 1.368 . S
C3957 H3981 0.949 . S
H3958 C3962 0.949 . S
C3959 C3960 1.349 . S
C3959 C3961 1.327 . S
C3959 H3982 0.950 . S
C3960 C3959 1.349 . S
C3960 C3972 1.349 . S
C3961 C3959 1.327 . S
C3961 C3977 1.429 . S
C3961 H3983 0.950 . S
C3962 H3958 0.949 . S
C3962 C3970 1.574 . S
C3962 C3978 1.368 . S
H3963 C3971 0.950 . S
H3964 C3969 0.950 . S
H3965 C3970 0.949 . S
H3966 C3972 0.950 . S
H3967 C3973 0.950 . S
H3968 C3974 0.949 . S
C3969 H3964 0.950 . S
C3969 C3971 1.327 . S
C3969 C3975 1.429 . S
C3970 C3962 1.574 . S
C3970 H3965 0.949 . S
C3970 C3976 1.368 . S
C3971 C3955 1.349 . S
C3971 H3963 0.950 . S
C3971 C3969 1.327 . S
C3972 C3960 1.349 . S
C3972 H3966 0.950 . S
C3972 C3973 1.327 . S
C3973 H3967 0.950 . S
C3973 C3972 1.327 . S
C3973 C3977 1.429 . S
C3974 C3957 1.574 . S
C3974 H3968 0.949 . S
C3974 C3978 1.368 . S
C3975 C3956 1.429 . S
C3975 C3969 1.429 . S
C3975 C3976 1.523 . S
C3976 C3957 1.368 . S
C3976 C3970 1.368 . S
C3976 C3975 1.523 . S
C3977 C3961 1.429 . S
C3977 C3973 1.429 . S
C3977 C3978 1.523 . S
C3978 C3962 1.368 . S
C3978 C3974 1.368 . S
C3978 C3977 1.523 . S
H3979 C3954 0.950 . S
H3980 C3956 0.950 . S
H3981 C3957 0.949 . S
H3982 C3959 0.950 . S
H3983 C3961 0.950 . S
C3984 C3985 1.349 . S
C3984 C3986 1.327 . S
C3984 H4009 0.950 . S
C3985 C3984 1.349 . S
C3985 C4001 1.349 . S
C3986 C3984 1.327 . S
C3986 C4005 1.429 . S
C3986 H4010 0.950 . S
C3987 C4004 1.574 . S
C3987 C4006 1.368 . S
C3987 H4011 0.949 . S
H3988 C3992 0.949 . S
C3989 C3990 1.349 . S
C3989 C3991 1.327 . S
C3989 H4012 0.950 . S
C3990 C3989 1.349 . S
C3990 C4002 1.349 . S
C3991 C3989 1.327 . S
C3991 C4007 1.429 . S
C3991 H4013 0.950 . S
C3992 H3988 0.949 . S
C3992 C4000 1.574 . S
C3992 C4008 1.368 . S
H3993 C4001 0.950 . S
H3994 C3999 0.950 . S
H3995 C4000 0.949 . S
H3996 C4002 0.950 . S
H3997 C4003 0.950 . S
H3998 C4004 0.949 . S
C3999 H3994 0.950 . S
C3999 C4001 1.327 . S
C3999 C4005 1.429 . S
C4000 C3992 1.574 . S
C4000 H3995 0.949 . S
C4000 C4006 1.368 . S
C4001 C3985 1.349 . S
C4001 H3993 0.950 . S
C4001 C3999 1.327 . S
C4002 C3990 1.349 . S
C4002 H3996 0.950 . S
C4002 C4003 1.327 . S
C4003 H3997 0.950 . S
C4003 C4002 1.327 . S
C4003 C4007 1.429 . S
C4004 C3987 1.574 . S
C4004 H3998 0.949 . S
C4004 C4008 1.368 . S
C4005 C3986 1.429 . S
C4005 C3999 1.429 . S
C4005 C4006 1.523 . S
C4006 C3987 1.368 . S
C4006 C4000 1.368 . S
C4006 C4005 1.523 . S
C4007 C3991 1.429 . S
C4007 C4003 1.429 . S
C4007 C4008 1.523 . S
C4008 C3992 1.368 . S
C4008 C4004 1.368 . S
C4008 C4007 1.523 . S
H4009 C3984 0.950 . S
H4010 C3986 0.950 . S
H4011 C3987 0.949 . S
H4012 C3989 0.950 . S
H4013 C3991 0.950 . S
C4014 C4015 1.349 . S
C4014 C4016 1.327 . S
C4014 H4039 0.950 . S
C4015 C4014 1.349 . S
C4015 C4031 1.349 . S
C4016 C4014 1.327 . S
C4016 C4035 1.429 . S
C4016 H4040 0.950 . S
C4017 C4034 1.574 . S
C4017 C4036 1.368 . S
C4017 H4041 0.949 . S
H4018 C4022 0.949 . S
C4019 C4020 1.349 . S
C4019 C4021 1.327 . S
C4019 H4042 0.950 . S
C4020 C4019 1.349 . S
C4020 C4032 1.349 . S
C4021 C4019 1.327 . S
C4021 C4037 1.429 . S
C4021 H4043 0.950 . S
C4022 H4018 0.949 . S
C4022 C4030 1.574 . S
C4022 C4038 1.368 . S
H4023 C4031 0.950 . S
H4024 C4029 0.950 . S
H4025 C4030 0.949 . S
H4026 C4032 0.950 . S
H4027 C4033 0.950 . S
H4028 C4034 0.949 . S
C4029 H4024 0.950 . S
C4029 C4031 1.327 . S
C4029 C4035 1.429 . S
C4030 C4022 1.574 . S
C4030 H4025 0.949 . S
C4030 C4036 1.368 . S
C4031 C4015 1.349 . S
C4031 H4023 0.950 . S
C4031 C4029 1.327 . S
C4032 C4020 1.349 . S
C4032 H4026 0.950 . S
C4032 C4033 1.327 . S
C4033 H4027 0.950 . S
C4033 C4032 1.327 . S
C4033 C4037 1.429 . S
C4034 C4017 1.574 . S
C4034 H4028 0.949 . S
C4034 C4038 1.368 . S
C4035 C4016 1.429 . S
C4035 C4029 1.429 . S
C4035 C4036 1.523 . S
C4036 C4017 1.368 . S
C4036 C4030 1.368 . S
C4036 C4035 1.523 . S
C4037 C4021 1.429 . S
C4037 C4033 1.429 . S
C4037 C4038 1.523 . S
C4038 C4022 1.368 . S
C4038 C4034 1.368 . S
C4038 C4037 1.523 . S
H4039 C4014 0.950 . S
H4040 C4016 0.950 . S
H4041 C4017 0.949 . S
H4042 C4019 0.950 . S
H4043 C4021 0.950 . S
C4044 C4045 1.349 . S
C4044 C4046 1.327 . S
C4044 H4069 0.950 . S
C4045 C4044 1.349 . S
C4045 C4061 1.349 . S
C4046 C4044 1.327 . S
C4046 C4065 1.429 . S
C4046 H4070 0.950 . S
C4047 C4064 1.574 . S
C4047 C4066 1.368 . S
C4047 H4071 0.949 . S
H4048 C4052 0.949 . S
C4049 C4050 1.349 . S
C4049 C4051 1.327 . S
C4049 H4072 0.950 . S
C4050 C4049 1.349 . S
C4050 C4062 1.349 . S
C4051 C4049 1.327 . S
C4051 C4067 1.429 . S
C4051 H4073 0.950 . S
C4052 H4048 0.949 . S
C4052 C4060 1.574 . S
C4052 C4068 1.368 . S
H4053 C4061 0.950 . S
H4054 C4059 0.950 . S
H4055 C4060 0.949 . S
H4056 C4062 0.950 . S
H4057 C4063 0.950 . S
H4058 C4064 0.949 . S
C4059 H4054 0.950 . S
C4059 C4061 1.327 . S
C4059 C4065 1.429 . S
C4060 C4052 1.574 . S
C4060 H4055 0.949 . S
C4060 C4066 1.368 . S
C4061 C4045 1.349 . S
C4061 H4053 0.950 . S
C4061 C4059 1.327 . S
C4062 C4050 1.349 . S
C4062 H4056 0.950 . S
C4062 C4063 1.327 . S
C4063 H4057 0.950 . S
C4063 C4062 1.327 . S
C4063 C4067 1.429 . S
C4064 C4047 1.574 . S
C4064 H4058 0.949 . S
C4064 C4068 1.368 . S
C4065 C4046 1.429 . S
C4065 C4059 1.429 . S
C4065 C4066 1.523 . S
C4066 C4047 1.368 . S
C4066 C4060 1.368 . S
C4066 C4065 1.523 . S
C4067 C4051 1.429 . S
C4067 C4063 1.429 . S
C4067 C4068 1.523 . S
C4068 C4052 1.368 . S
C4068 C4064 1.368 . S
C4068 C4067 1.523 . S
H4069 C4044 0.950 . S
H4070 C4046 0.950 . S
H4071 C4047 0.949 . S
H4072 C4049 0.950 . S
H4073 C4051 0.950 . S
C4074 C4075 1.349 . S
C4074 C4076 1.327 . S
C4074 H4099 0.950 . S
C4075 C4074 1.349 . S
C4075 C4091 1.349 . S
C4076 C4074 1.327 . S
C4076 C4095 1.429 . S
C4076 H4100 0.950 . S
C4077 C4094 1.574 . S
C4077 C4096 1.368 . S
C4077 H4101 0.949 . S
H4078 C4082 0.949 . S
C4079 C4080 1.349 . S
C4079 C4081 1.327 . S
C4079 H4102 0.950 . S
C4080 C4079 1.349 . S
C4080 C4092 1.349 . S
C4081 C4079 1.327 . S
C4081 C4097 1.429 . S
C4081 H4103 0.950 . S
C4082 H4078 0.949 . S
C4082 C4090 1.574 . S
C4082 C4098 1.368 . S
H4083 C4091 0.950 . S
H4084 C4089 0.950 . S
H4085 C4090 0.949 . S
H4086 C4092 0.950 . S
H4087 C4093 0.950 . S
H4088 C4094 0.949 . S
C4089 H4084 0.950 . S
C4089 C4091 1.327 . S
C4089 C4095 1.429 . S
C4090 C4082 1.574 . S
C4090 H4085 0.949 . S
C4090 C4096 1.368 . S
C4091 C4075 1.349 . S
C4091 H4083 0.950 . S
C4091 C4089 1.327 . S
C4092 C4080 1.349 . S
C4092 H4086 0.950 . S
C4092 C4093 1.327 . S
C4093 H4087 0.950 . S
C4093 C4092 1.327 . S
C4093 C4097 1.429 . S
C4094 C4077 1.574 . S
C4094 H4088 0.949 . S
C4094 C4098 1.368 . S
C4095 C4076 1.429 . S
C4095 C4089 1.429 . S
C4095 C4096 1.523 . S
C4096 C4077 1.368 . S
C4096 C4090 1.368 . S
C4096 C4095 1.523 . S
C4097 C4081 1.429 . S
C4097 C4093 1.429 . S
C4097 C4098 1.523 . S
C4098 C4082 1.368 . S
C4098 C4094 1.368 . S
C4098 C4097 1.523 . S
H4099 C4074 0.950 . S
H4100 C4076 0.950 . S
H4101 C4077 0.949 . S
H4102 C4079 0.950 . S
H4103 C4081 0.950 . S
C4104 C4105 1.349 . S
C4104 C4106 1.327 . S
C4104 H4129 0.950 . S
C4105 C4104 1.349 . S
C4105 C4121 1.349 . S
C4106 C4104 1.327 . S
C4106 C4125 1.429 . S
C4106 H4130 0.950 . S
C4107 C4124 1.574 . S
C4107 C4126 1.368 . S
C4107 H4131 0.949 . S
H4108 C4112 0.949 . S
C4109 C4110 1.349 . S
C4109 C4111 1.327 . S
C4109 H4132 0.950 . S
C4110 C4109 1.349 . S
C4110 C4122 1.349 . S
C4111 C4109 1.327 . S
C4111 C4127 1.429 . S
C4111 H4133 0.950 . S
C4112 H4108 0.949 . S
C4112 C4120 1.574 . S
C4112 C4128 1.368 . S
H4113 C4121 0.950 . S
H4114 C4119 0.950 . S
H4115 C4120 0.949 . S
H4116 C4122 0.950 . S
H4117 C4123 0.950 . S
H4118 C4124 0.949 . S
C4119 H4114 0.950 . S
C4119 C4121 1.327 . S
C4119 C4125 1.429 . S
C4120 C4112 1.574 . S
C4120 H4115 0.949 . S
C4120 C4126 1.368 . S
C4121 C4105 1.349 . S
C4121 H4113 0.950 . S
C4121 C4119 1.327 . S
C4122 C4110 1.349 . S
C4122 H4116 0.950 . S
C4122 C4123 1.327 . S
C4123 H4117 0.950 . S
C4123 C4122 1.327 . S
C4123 C4127 1.429 . S
C4124 C4107 1.574 . S
C4124 H4118 0.949 . S
C4124 C4128 1.368 . S
C4125 C4106 1.429 . S
C4125 C4119 1.429 . S
C4125 C4126 1.523 . S
C4126 C4107 1.368 . S
C4126 C4120 1.368 . S
C4126 C4125 1.523 . S
C4127 C4111 1.429 . S
C4127 C4123 1.429 . S
C4127 C4128 1.523 . S
C4128 C4112 1.368 . S
C4128 C4124 1.368 . S
C4128 C4127 1.523 . S
H4129 C4104 0.950 . S
H4130 C4106 0.950 . S
H4131 C4107 0.949 . S
H4132 C4109 0.950 . S
H4133 C4111 0.950 . S
C4134 C4135 1.349 . S
C4134 C4136 1.327 . S
C4134 H4159 0.950 . S
C4135 C4134 1.349 . S
C4135 C4151 1.349 . S
C4136 C4134 1.327 . S
C4136 C4155 1.429 . S
C4136 H4160 0.950 . S
C4137 C4154 1.574 . S
C4137 C4156 1.368 . S
C4137 H4161 0.949 . S
H4138 C4142 0.949 . S
C4139 C4140 1.349 . S
C4139 C4141 1.327 . S
C4139 H4162 0.950 . S
C4140 C4139 1.349 . S
C4140 C4152 1.349 . S
C4141 C4139 1.327 . S
C4141 C4157 1.429 . S
C4141 H4163 0.950 . S
C4142 H4138 0.949 . S
C4142 C4150 1.574 . S
C4142 C4158 1.368 . S
H4143 C4151 0.950 . S
H4144 C4149 0.950 . S
H4145 C4150 0.949 . S
H4146 C4152 0.950 . S
H4147 C4153 0.950 . S
H4148 C4154 0.949 . S
C4149 H4144 0.950 . S
C4149 C4151 1.327 . S
C4149 C4155 1.429 . S
C4150 C4142 1.574 . S
C4150 H4145 0.949 . S
C4150 C4156 1.368 . S
C4151 C4135 1.349 . S
C4151 H4143 0.950 . S
C4151 C4149 1.327 . S
C4152 C4140 1.349 . S
C4152 H4146 0.950 . S
C4152 C4153 1.327 . S
C4153 H4147 0.950 . S
C4153 C4152 1.327 . S
C4153 C4157 1.429 . S
C4154 C4137 1.574 . S
C4154 H4148 0.949 . S
C4154 C4158 1.368 . S
C4155 C4136 1.429 . S
C4155 C4149 1.429 . S
C4155 C4156 1.523 . S
C4156 C4137 1.368 . S
C4156 C4150 1.368 . S
C4156 C4155 1.523 . S
C4157 C4141 1.429 . S
C4157 C4153 1.429 . S
C4157 C4158 1.523 . S
C4158 C4142 1.368 . S
C4158 C4154 1.368 . S
C4158 C4157 1.523 . S
H4159 C4134 0.950 . S
H4160 C4136 0.950 . S
H4161 C4137 0.949 . S
H4162 C4139 0.950 . S
H4163 C4141 0.950 . S
C4164 C4165 1.349 . S
C4164 C4166 1.327 . S
C4164 H4189 0.950 . S
C4165 C4164 1.349 . S
C4165 C4181 1.349 . S
C4166 C4164 1.327 . S
C4166 C4185 1.429 . S
C4166 H4190 0.950 . S
C4167 C4184 1.574 . S
C4167 C4186 1.368 . S
C4167 H4191 0.949 . S
H4168 C4172 0.949 . S
C4169 C4170 1.349 . S
C4169 C4171 1.327 . S
C4169 H4192 0.950 . S
C4170 C4169 1.349 . S
C4170 C4182 1.349 . S
C4171 C4169 1.327 . S
C4171 C4187 1.429 . S
C4171 H4193 0.950 . S
C4172 H4168 0.949 . S
C4172 C4180 1.574 . S
C4172 C4188 1.368 . S
H4173 C4181 0.950 . S
H4174 C4179 0.950 . S
H4175 C4180 0.949 . S
H4176 C4182 0.950 . S
H4177 C4183 0.950 . S
H4178 C4184 0.949 . S
C4179 H4174 0.950 . S
C4179 C4181 1.327 . S
C4179 C4185 1.429 . S
C4180 C4172 1.574 . S
C4180 H4175 0.949 . S
C4180 C4186 1.368 . S
C4181 C4165 1.349 . S
C4181 H4173 0.950 . S
C4181 C4179 1.327 . S
C4182 C4170 1.349 . S
C4182 H4176 0.950 . S
C4182 C4183 1.327 . S
C4183 H4177 0.950 . S
C4183 C4182 1.327 . S
C4183 C4187 1.429 . S
C4184 C4167 1.574 . S
C4184 H4178 0.949 . S
C4184 C4188 1.368 . S
C4185 C4166 1.429 . S
C4185 C4179 1.429 . S
C4185 C4186 1.523 . S
C4186 C4167 1.368 . S
C4186 C4180 1.368 . S
C4186 C4185 1.523 . S
C4187 C4171 1.429 . S
C4187 C4183 1.429 . S
C4187 C4188 1.523 . S
C4188 C4172 1.368 . S
C4188 C4184 1.368 . S
C4188 C4187 1.523 . S
H4189 C4164 0.950 . S
H4190 C4166 0.950 . S
H4191 C4167 0.949 . S
H4192 C4169 0.950 . S
H4193 C4171 0.950 . S
C4194 C4195 1.349 . S
C4194 C4196 1.327 . S
C4194 H4219 0.950 . S
C4195 C4194 1.349 . S
C4195 C4211 1.349 . S
C4196 C4194 1.327 . S
C4196 C4215 1.429 . S
C4196 H4220 0.950 . S
C4197 C4214 1.574 . S
C4197 C4216 1.368 . S
C4197 H4221 0.949 . S
H4198 C4202 0.949 . S
C4199 C4200 1.349 . S
C4199 C4201 1.327 . S
C4199 H4222 0.950 . S
C4200 C4199 1.349 . S
C4200 C4212 1.349 . S
C4201 C4199 1.327 . S
C4201 C4217 1.429 . S
C4201 H4223 0.950 . S
C4202 H4198 0.949 . S
C4202 C4210 1.574 . S
C4202 C4218 1.368 . S
H4203 C4211 0.950 . S
H4204 C4209 0.950 . S
H4205 C4210 0.949 . S
H4206 C4212 0.950 . S
H4207 C4213 0.950 . S
H4208 C4214 0.949 . S
C4209 H4204 0.950 . S
C4209 C4211 1.327 . S
C4209 C4215 1.429 . S
C4210 C4202 1.574 . S
C4210 H4205 0.949 . S
C4210 C4216 1.368 . S
C4211 C4195 1.349 . S
C4211 H4203 0.950 . S
C4211 C4209 1.327 . S
C4212 C4200 1.349 . S
C4212 H4206 0.950 . S
C4212 C4213 1.327 . S
C4213 H4207 0.950 . S
C4213 C4212 1.327 . S
C4213 C4217 1.429 . S
C4214 C4197 1.574 . S
C4214 H4208 0.949 . S
C4214 C4218 1.368 . S
C4215 C4196 1.429 . S
C4215 C4209 1.429 . S
C4215 C4216 1.523 . S
C4216 C4197 1.368 . S
C4216 C4210 1.368 . S
C4216 C4215 1.523 . S
C4217 C4201 1.429 . S
C4217 C4213 1.429 . S
C4217 C4218 1.523 . S
C4218 C4202 1.368 . S
C4218 C4214 1.368 . S
C4218 C4217 1.523 . S
H4219 C4194 0.950 . S
H4220 C4196 0.950 . S
H4221 C4197 0.949 . S
H4222 C4199 0.950 . S
H4223 C4201 0.950 . S
C4224 C4225 1.349 . S
C4224 C4226 1.327 . S
C4224 H4249 0.950 . S
C4225 C4224 1.349 . S
C4225 C4241 1.349 . S
C4226 C4224 1.327 . S
C4226 C4245 1.429 . S
C4226 H4250 0.950 . S
C4227 C4244 1.574 1_455 S
C4227 C4246 1.368 . S
C4227 H4251 0.949 . S
H4228 C4232 0.949 . S
C4229 C4230 1.349 . S
C4229 C4231 1.327 . S
C4229 H4252 0.950 . S
C4230 C4229 1.349 . S
C4230 C4242 1.349 . S
C4231 C4229 1.327 . S
C4231 C4247 1.429 . S
C4231 H4253 0.950 . S
C4232 H4228 0.949 . S
C4232 C4240 1.574 1_655 S
C4232 C4248 1.368 . S
H4233 C4241 0.950 . S
H4234 C4239 0.950 . S
H4235 C4240 0.949 . S
H4236 C4242 0.950 . S
H4237 C4243 0.950 . S
H4238 C4244 0.949 . S
C4239 H4234 0.950 . S
C4239 C4241 1.327 . S
C4239 C4245 1.429 . S
C4240 C4232 1.574 1_455 S
C4240 H4235 0.949 . S
C4240 C4246 1.368 . S
C4241 C4225 1.349 . S
C4241 H4233 0.950 . S
C4241 C4239 1.327 . S
C4242 C4230 1.349 . S
C4242 H4236 0.950 . S
C4242 C4243 1.327 . S
C4243 H4237 0.950 . S
C4243 C4242 1.327 . S
C4243 C4247 1.429 . S
C4244 C4227 1.574 1_655 S
C4244 H4238 0.949 . S
C4244 C4248 1.368 . S
C4245 C4226 1.429 . S
C4245 C4239 1.429 . S
C4245 C4246 1.523 . S
C4246 C4227 1.368 . S
C4246 C4240 1.368 . S
C4246 C4245 1.523 . S
C4247 C4231 1.429 . S
C4247 C4243 1.429 . S
C4247 C4248 1.523 . S
C4248 C4232 1.368 . S
C4248 C4244 1.368 . S
C4248 C4247 1.523 . S
H4249 C4224 0.950 . S
H4250 C4226 0.950 . S
H4251 C4227 0.949 . S
H4252 C4229 0.950 . S
H4253 C4231 0.950 . S
C4254 C4255 1.349 . S
C4254 C4256 1.327 . S
C4254 H4279 0.950 . S
C4255 C4254 1.349 . S
C4255 C4271 1.349 . S
C4256 C4254 1.327 . S
C4256 C4275 1.429 . S
C4256 H4280 0.950 . S
C4257 C4274 1.574 1_565 S
C4257 C4276 1.368 . S
C4257 H4281 0.949 . S
H4258 C4262 0.949 . S
C4259 C4260 1.349 . S
C4259 C4261 1.327 . S
C4259 H4282 0.950 . S
C4260 C4259 1.349 . S
C4260 C4272 1.349 . S
C4261 C4259 1.327 . S
C4261 C4277 1.429 . S
C4261 H4283 0.950 . S
C4262 H4258 0.949 . S
C4262 C4270 1.574 1_545 S
C4262 C4278 1.368 . S
H4263 C4271 0.950 . S
H4264 C4269 0.950 . S
H4265 C4270 0.949 . S
H4266 C4272 0.950 . S
H4267 C4273 0.950 . S
H4268 C4274 0.949 . S
C4269 H4264 0.950 . S
C4269 C4271 1.327 . S
C4269 C4275 1.429 . S
C4270 C4262 1.574 1_565 S
C4270 H4265 0.949 . S
C4270 C4276 1.368 . S
C4271 C4255 1.349 . S
C4271 H4263 0.950 . S
C4271 C4269 1.327 . S
C4272 C4260 1.349 . S
C4272 H4266 0.950 . S
C4272 C4273 1.327 . S
C4273 H4267 0.950 . S
C4273 C4272 1.327 . S
C4273 C4277 1.429 . S
C4274 C4257 1.574 1_545 S
C4274 H4268 0.949 . S
C4274 C4278 1.368 . S
C4275 C4256 1.429 . S
C4275 C4269 1.429 . S
C4275 C4276 1.523 . S
C4276 C4257 1.368 . S
C4276 C4270 1.368 . S
C4276 C4275 1.523 . S
C4277 C4261 1.429 . S
C4277 C4273 1.429 . S
C4277 C4278 1.523 . S
C4278 C4262 1.368 . S
C4278 C4274 1.368 . S
C4278 C4277 1.523 . S
H4279 C4254 0.950 . S
H4280 C4256 0.950 . S
H4281 C4257 0.949 . S
H4282 C4259 0.950 . S
H4283 C4261 0.950 . S
C4284 C4285 1.349 . S
C4284 C4286 1.327 . S
C4284 H4309 0.950 . S
C4285 C4284 1.349 . S
C4285 C4301 1.349 . S
C4286 C4284 1.327 . S
C4286 C4305 1.429 . S
C4286 H4310 0.950 . S
C4287 C4304 1.574 1_655 S
C4287 C4306 1.368 . S
C4287 H4311 0.949 . S
H4288 C4292 0.949 . S
C4289 C4290 1.349 . S
C4289 C4291 1.327 . S
C4289 H4312 0.950 . S
C4290 C4289 1.349 . S
C4290 C4302 1.349 . S
C4291 C4289 1.327 . S
C4291 C4307 1.429 . S
C4291 H4313 0.950 . S
C4292 H4288 0.949 . S
C4292 C4300 1.574 1_455 S
C4292 C4308 1.368 . S
H4293 C4301 0.950 . S
H4294 C4299 0.950 . S
H4295 C4300 0.949 . S
H4296 C4302 0.950 . S
H4297 C4303 0.950 . S
H4298 C4304 0.949 . S
C4299 H4294 0.950 . S
C4299 C4301 1.327 . S
C4299 C4305 1.429 . S
C4300 C4292 1.574 1_655 S
C4300 H4295 0.949 . S
C4300 C4306 1.368 . S
C4301 C4285 1.349 . S
C4301 H4293 0.950 . S
C4301 C4299 1.327 . S
C4302 C4290 1.349 . S
C4302 H4296 0.950 . S
C4302 C4303 1.327 . S
C4303 H4297 0.950 . S
C4303 C4302 1.327 . S
C4303 C4307 1.429 . S
C4304 C4287 1.574 1_455 S
C4304 H4298 0.949 . S
C4304 C4308 1.368 . S
C4305 C4286 1.429 . S
C4305 C4299 1.429 . S
C4305 C4306 1.523 . S
C4306 C4287 1.368 . S
C4306 C4300 1.368 . S
C4306 C4305 1.523 . S
C4307 C4291 1.429 . S
C4307 C4303 1.429 . S
C4307 C4308 1.523 . S
C4308 C4292 1.368 . S
C4308 C4304 1.368 . S
C4308 C4307 1.523 . S
H4309 C4284 0.950 . S
H4310 C4286 0.950 . S
H4311 C4287 0.949 . S
H4312 C4289 0.950 . S
H4313 C4291 0.950 . S
C4314 C4315 1.349 . S
C4314 C4316 1.327 . S
C4314 H4339 0.950 . S
C4315 C4314 1.349 . S
C4315 C4331 1.349 . S
C4316 C4314 1.327 . S
C4316 C4335 1.429 . S
C4316 H4340 0.950 . S
C4317 C4334 1.574 1_545 S
C4317 C4336 1.368 . S
C4317 H4341 0.949 . S
H4318 C4322 0.949 . S
C4319 C4320 1.349 . S
C4319 C4321 1.327 . S
C4319 H4342 0.950 . S
C4320 C4319 1.349 . S
C4320 C4332 1.349 . S
C4321 C4319 1.327 . S
C4321 C4337 1.429 . S
C4321 H4343 0.950 . S
C4322 H4318 0.949 . S
C4322 C4330 1.574 1_565 S
C4322 C4338 1.368 . S
H4323 C4331 0.950 . S
H4324 C4329 0.950 . S
H4325 C4330 0.949 . S
H4326 C4332 0.950 . S
H4327 C4333 0.950 . S
H4328 C4334 0.949 . S
C4329 H4324 0.950 . S
C4329 C4331 1.327 . S
C4329 C4335 1.429 . S
C4330 C4322 1.574 1_545 S
C4330 H4325 0.949 . S
C4330 C4336 1.368 . S
C4331 C4315 1.349 . S
C4331 H4323 0.950 . S
C4331 C4329 1.327 . S
C4332 C4320 1.349 . S
C4332 H4326 0.950 . S
C4332 C4333 1.327 . S
C4333 H4327 0.950 . S
C4333 C4332 1.327 . S
C4333 C4337 1.429 . S
C4334 C4317 1.574 1_565 S
C4334 H4328 0.949 . S
C4334 C4338 1.368 . S
C4335 C4316 1.429 . S
C4335 C4329 1.429 . S
C4335 C4336 1.523 . S
C4336 C4317 1.368 . S
C4336 C4330 1.368 . S
C4336 C4335 1.523 . S
C4337 C4321 1.429 . S
C4337 C4333 1.429 . S
C4337 C4338 1.523 . S
C4338 C4322 1.368 . S
C4338 C4334 1.368 . S
C4338 C4337 1.523 . S
H4339 C4314 0.950 . S
H4340 C4316 0.950 . S
H4341 C4317 0.949 . S
H4342 C4319 0.950 . S
H4343 C4321 0.950 . S
C4344 C4345 1.349 . S
C4344 C4346 1.327 . S
C4344 H4369 0.950 . S
C4345 C4344 1.349 . S
C4345 C4361 1.349 . S
C4346 C4344 1.327 . S
C4346 C4365 1.429 . S
C4346 H4370 0.950 . S
C4347 C4364 1.574 1_455 S
C4347 C4366 1.368 . S
C4347 H4371 0.949 . S
H4348 C4352 0.949 . S
C4349 C4350 1.349 . S
C4349 C4351 1.327 . S
C4349 H4372 0.950 . S
C4350 C4349 1.349 . S
C4350 C4362 1.349 . S
C4351 C4349 1.327 . S
C4351 C4367 1.429 . S
C4351 H4373 0.950 . S
C4352 H4348 0.949 . S
C4352 C4360 1.574 1_655 S
C4352 C4368 1.368 . S
H4353 C4361 0.950 . S
H4354 C4359 0.950 . S
H4355 C4360 0.949 . S
H4356 C4362 0.950 . S
H4357 C4363 0.950 . S
H4358 C4364 0.949 . S
C4359 H4354 0.950 . S
C4359 C4361 1.327 . S
C4359 C4365 1.429 . S
C4360 C4352 1.574 1_455 S
C4360 H4355 0.949 . S
C4360 C4366 1.368 . S
C4361 C4345 1.349 . S
C4361 H4353 0.950 . S
C4361 C4359 1.327 . S
C4362 C4350 1.349 . S
C4362 H4356 0.950 . S
C4362 C4363 1.327 . S
C4363 H4357 0.950 . S
C4363 C4362 1.327 . S
C4363 C4367 1.429 . S
C4364 C4347 1.574 1_655 S
C4364 H4358 0.949 . S
C4364 C4368 1.368 . S
C4365 C4346 1.429 . S
C4365 C4359 1.429 . S
C4365 C4366 1.523 . S
C4366 C4347 1.368 . S
C4366 C4360 1.368 . S
C4366 C4365 1.523 . S
C4367 C4351 1.429 . S
C4367 C4363 1.429 . S
C4367 C4368 1.523 . S
C4368 C4352 1.368 . S
C4368 C4364 1.368 . S
C4368 C4367 1.523 . S
H4369 C4344 0.950 . S
H4370 C4346 0.950 . S
H4371 C4347 0.949 . S
H4372 C4349 0.950 . S
H4373 C4351 0.950 . S
C4374 C4375 1.349 . S
C4374 C4376 1.327 . S
C4374 H4399 0.950 . S
C4375 C4374 1.349 . S
C4375 C4391 1.349 . S
C4376 C4374 1.327 . S
C4376 C4395 1.429 . S
C4376 H4400 0.950 . S
C4377 C4394 1.574 1_545 S
C4377 C4396 1.368 . S
C4377 H4401 0.949 . S
H4378 C4382 0.949 . S
C4379 C4380 1.349 . S
C4379 C4381 1.327 . S
C4379 H4402 0.950 . S
C4380 C4379 1.349 . S
C4380 C4392 1.349 . S
C4381 C4379 1.327 . S
C4381 C4397 1.429 . S
C4381 H4403 0.950 . S
C4382 H4378 0.949 . S
C4382 C4390 1.574 1_565 S
C4382 C4398 1.368 . S
H4383 C4391 0.950 . S
H4384 C4389 0.950 . S
H4385 C4390 0.949 . S
H4386 C4392 0.950 . S
H4387 C4393 0.950 . S
H4388 C4394 0.949 . S
C4389 H4384 0.950 . S
C4389 C4391 1.327 . S
C4389 C4395 1.429 . S
C4390 C4382 1.574 1_545 S
C4390 H4385 0.949 . S
C4390 C4396 1.368 . S
C4391 C4375 1.349 . S
C4391 H4383 0.950 . S
C4391 C4389 1.327 . S
C4392 C4380 1.349 . S
C4392 H4386 0.950 . S
C4392 C4393 1.327 . S
C4393 H4387 0.950 . S
C4393 C4392 1.327 . S
C4393 C4397 1.429 . S
C4394 C4377 1.574 1_565 S
C4394 H4388 0.949 . S
C4394 C4398 1.368 . S
C4395 C4376 1.429 . S
C4395 C4389 1.429 . S
C4395 C4396 1.523 . S
C4396 C4377 1.368 . S
C4396 C4390 1.368 . S
C4396 C4395 1.523 . S
C4397 C4381 1.429 . S
C4397 C4393 1.429 . S
C4397 C4398 1.523 . S
C4398 C4382 1.368 . S
C4398 C4394 1.368 . S
C4398 C4397 1.523 . S
H4399 C4374 0.950 . S
H4400 C4376 0.950 . S
H4401 C4377 0.949 . S
H4402 C4379 0.950 . S
H4403 C4381 0.950 . S
C4404 C4405 1.349 . S
C4404 C4406 1.327 . S
C4404 H4429 0.950 . S
C4405 C4404 1.349 . S
C4405 C4421 1.349 . S
C4406 C4404 1.327 . S
C4406 C4425 1.429 . S
C4406 H4430 0.950 . S
C4407 C4424 1.574 1_655 S
C4407 C4426 1.368 . S
C4407 H4431 0.949 . S
H4408 C4412 0.949 . S
C4409 C4410 1.349 . S
C4409 C4411 1.327 . S
C4409 H4432 0.950 . S
C4410 C4409 1.349 . S
C4410 C4422 1.349 . S
C4411 C4409 1.327 . S
C4411 C4427 1.429 . S
C4411 H4433 0.950 . S
C4412 H4408 0.949 . S
C4412 C4420 1.574 1_455 S
C4412 C4428 1.368 . S
H4413 C4421 0.950 . S
H4414 C4419 0.950 . S
H4415 C4420 0.949 . S
H4416 C4422 0.950 . S
H4417 C4423 0.950 . S
H4418 C4424 0.949 . S
C4419 H4414 0.950 . S
C4419 C4421 1.327 . S
C4419 C4425 1.429 . S
C4420 C4412 1.574 1_655 S
C4420 H4415 0.949 . S
C4420 C4426 1.368 . S
C4421 C4405 1.349 . S
C4421 H4413 0.950 . S
C4421 C4419 1.327 . S
C4422 C4410 1.349 . S
C4422 H4416 0.950 . S
C4422 C4423 1.327 . S
C4423 H4417 0.950 . S
C4423 C4422 1.327 . S
C4423 C4427 1.429 . S
C4424 C4407 1.574 1_455 S
C4424 H4418 0.949 . S
C4424 C4428 1.368 . S
C4425 C4406 1.429 . S
C4425 C4419 1.429 . S
C4425 C4426 1.523 . S
C4426 C4407 1.368 . S
C4426 C4420 1.368 . S
C4426 C4425 1.523 . S
C4427 C4411 1.429 . S
C4427 C4423 1.429 . S
C4427 C4428 1.523 . S
C4428 C4412 1.368 . S
C4428 C4424 1.368 . S
C4428 C4427 1.523 . S
H4429 C4404 0.950 . S
H4430 C4406 0.950 . S
H4431 C4407 0.949 . S
H4432 C4409 0.950 . S
H4433 C4411 0.950 . S
C4434 C4435 1.349 . S
C4434 C4436 1.327 . S
C4434 H4459 0.950 . S
C4435 C4434 1.349 . S
C4435 C4451 1.349 . S
C4436 C4434 1.327 . S
C4436 C4455 1.429 . S
C4436 H4460 0.950 . S
C4437 C4454 1.574 1_545 S
C4437 C4456 1.368 . S
C4437 H4461 0.949 . S
H4438 C4442 0.949 . S
C4439 C4440 1.349 . S
C4439 C4441 1.327 . S
C4439 H4462 0.950 . S
C4440 C4439 1.349 . S
C4440 C4452 1.349 . S
C4441 C4439 1.327 . S
C4441 C4457 1.429 . S
C4441 H4463 0.950 . S
C4442 H4438 0.949 . S
C4442 C4450 1.574 1_565 S
C4442 C4458 1.368 . S
H4443 C4451 0.950 . S
H4444 C4449 0.950 . S
H4445 C4450 0.949 . S
H4446 C4452 0.950 . S
H4447 C4453 0.950 . S
H4448 C4454 0.949 . S
C4449 H4444 0.950 . S
C4449 C4451 1.327 . S
C4449 C4455 1.429 . S
C4450 C4442 1.574 1_545 S
C4450 H4445 0.949 . S
C4450 C4456 1.368 . S
C4451 C4435 1.349 . S
C4451 H4443 0.950 . S
C4451 C4449 1.327 . S
C4452 C4440 1.349 . S
C4452 H4446 0.950 . S
C4452 C4453 1.327 . S
C4453 H4447 0.950 . S
C4453 C4452 1.327 . S
C4453 C4457 1.429 . S
C4454 C4437 1.574 1_565 S
C4454 H4448 0.949 . S
C4454 C4458 1.368 . S
C4455 C4436 1.429 . S
C4455 C4449 1.429 . S
C4455 C4456 1.523 . S
C4456 C4437 1.368 . S
C4456 C4450 1.368 . S
C4456 C4455 1.523 . S
C4457 C4441 1.429 . S
C4457 C4453 1.429 . S
C4457 C4458 1.523 . S
C4458 C4442 1.368 . S
C4458 C4454 1.368 . S
C4458 C4457 1.523 . S
H4459 C4434 0.950 . S
H4460 C4436 0.950 . S
H4461 C4437 0.949 . S
H4462 C4439 0.950 . S
H4463 C4441 0.950 . S
C4464 C4465 1.349 . S
C4464 C4466 1.327 . S
C4464 H4489 0.950 . S
C4465 C4464 1.349 . S
C4465 C4481 1.349 . S
C4466 C4464 1.327 . S
C4466 C4485 1.429 . S
C4466 H4490 0.950 . S
C4467 C4484 1.574 1_565 S
C4467 C4486 1.368 . S
C4467 H4491 0.949 . S
H4468 C4472 0.949 . S
C4469 C4470 1.349 . S
C4469 C4471 1.327 . S
C4469 H4492 0.950 . S
C4470 C4469 1.349 . S
C4470 C4482 1.349 . S
C4471 C4469 1.327 . S
C4471 C4487 1.429 . S
C4471 H4493 0.950 . S
C4472 H4468 0.949 . S
C4472 C4480 1.574 1_545 S
C4472 C4488 1.368 . S
H4473 C4481 0.950 . S
H4474 C4479 0.950 . S
H4475 C4480 0.949 . S
H4476 C4482 0.950 . S
H4477 C4483 0.950 . S
H4478 C4484 0.949 . S
C4479 H4474 0.950 . S
C4479 C4481 1.327 . S
C4479 C4485 1.429 . S
C4480 C4472 1.574 1_565 S
C4480 H4475 0.949 . S
C4480 C4486 1.368 . S
C4481 C4465 1.349 . S
C4481 H4473 0.950 . S
C4481 C4479 1.327 . S
C4482 C4470 1.349 . S
C4482 H4476 0.950 . S
C4482 C4483 1.327 . S
C4483 H4477 0.950 . S
C4483 C4482 1.327 . S
C4483 C4487 1.429 . S
C4484 C4467 1.574 1_545 S
C4484 H4478 0.949 . S
C4484 C4488 1.368 . S
C4485 C4466 1.429 . S
C4485 C4479 1.429 . S
C4485 C4486 1.523 . S
C4486 C4467 1.368 . S
C4486 C4480 1.368 . S
C4486 C4485 1.523 . S
C4487 C4471 1.429 . S
C4487 C4483 1.429 . S
C4487 C4488 1.523 . S
C4488 C4472 1.368 . S
C4488 C4484 1.368 . S
C4488 C4487 1.523 . S
H4489 C4464 0.950 . S
H4490 C4466 0.950 . S
H4491 C4467 0.949 . S
H4492 C4469 0.950 . S
H4493 C4471 0.950 . S
C4494 C4495 1.349 . S
C4494 C4496 1.327 . S
C4494 H4519 0.950 . S
C4495 C4494 1.349 . S
C4495 C4511 1.349 . S
C4496 C4494 1.327 . S
C4496 C4515 1.429 . S
C4496 H4520 0.950 . S
C4497 C4514 1.574 1_655 S
C4497 C4516 1.368 . S
C4497 H4521 0.949 . S
H4498 C4502 0.949 . S
C4499 C4500 1.349 . S
C4499 C4501 1.327 . S
C4499 H4522 0.950 . S
C4500 C4499 1.349 . S
C4500 C4512 1.349 . S
C4501 C4499 1.327 . S
C4501 C4517 1.429 . S
C4501 H4523 0.950 . S
C4502 H4498 0.949 . S
C4502 C4510 1.574 1_455 S
C4502 C4518 1.368 . S
H4503 C4511 0.950 . S
H4504 C4509 0.950 . S
H4505 C4510 0.949 . S
H4506 C4512 0.950 . S
H4507 C4513 0.950 . S
H4508 C4514 0.949 . S
C4509 H4504 0.950 . S
C4509 C4511 1.327 . S
C4509 C4515 1.429 . S
C4510 C4502 1.574 1_655 S
C4510 H4505 0.949 . S
C4510 C4516 1.368 . S
C4511 C4495 1.349 . S
C4511 H4503 0.950 . S
C4511 C4509 1.327 . S
C4512 C4500 1.349 . S
C4512 H4506 0.950 . S
C4512 C4513 1.327 . S
C4513 H4507 0.950 . S
C4513 C4512 1.327 . S
C4513 C4517 1.429 . S
C4514 C4497 1.574 1_455 S
C4514 H4508 0.949 . S
C4514 C4518 1.368 . S
C4515 C4496 1.429 . S
C4515 C4509 1.429 . S
C4515 C4516 1.523 . S
C4516 C4497 1.368 . S
C4516 C4510 1.368 . S
C4516 C4515 1.523 . S
C4517 C4501 1.429 . S
C4517 C4513 1.429 . S
C4517 C4518 1.523 . S
C4518 C4502 1.368 . S
C4518 C4514 1.368 . S
C4518 C4517 1.523 . S
H4519 C4494 0.950 . S
H4520 C4496 0.950 . S
H4521 C4497 0.949 . S
H4522 C4499 0.950 . S
H4523 C4501 0.950 . S
C4524 C4525 1.349 . S
C4524 C4526 1.327 . S
C4524 H4549 0.950 . S
C4525 C4524 1.349 . S
C4525 C4541 1.349 . S
C4526 C4524 1.327 . S
C4526 C4545 1.429 . S
C4526 H4550 0.950 . S
C4527 C4544 1.574 1_565 S
C4527 C4546 1.368 . S
C4527 H4551 0.949 . S
H4528 C4532 0.949 . S
C4529 C4530 1.349 . S
C4529 C4531 1.327 . S
C4529 H4552 0.950 . S
C4530 C4529 1.349 . S
C4530 C4542 1.349 . S
C4531 C4529 1.327 . S
C4531 C4547 1.429 . S
C4531 H4553 0.950 . S
C4532 H4528 0.949 . S
C4532 C4540 1.574 1_545 S
C4532 C4548 1.368 . S
H4533 C4541 0.950 . S
H4534 C4539 0.950 . S
H4535 C4540 0.949 . S
H4536 C4542 0.950 . S
H4537 C4543 0.950 . S
H4538 C4544 0.949 . S
C4539 H4534 0.950 . S
C4539 C4541 1.327 . S
C4539 C4545 1.429 . S
C4540 C4532 1.574 1_565 S
C4540 H4535 0.949 . S
C4540 C4546 1.368 . S
C4541 C4525 1.349 . S
C4541 H4533 0.950 . S
C4541 C4539 1.327 . S
C4542 C4530 1.349 . S
C4542 H4536 0.950 . S
C4542 C4543 1.327 . S
C4543 H4537 0.950 . S
C4543 C4542 1.327 . S
C4543 C4547 1.429 . S
C4544 C4527 1.574 1_545 S
C4544 H4538 0.949 . S
C4544 C4548 1.368 . S
C4545 C4526 1.429 . S
C4545 C4539 1.429 . S
C4545 C4546 1.523 . S
C4546 C4527 1.368 . S
C4546 C4540 1.368 . S
C4546 C4545 1.523 . S
C4547 C4531 1.429 . S
C4547 C4543 1.429 . S
C4547 C4548 1.523 . S
C4548 C4532 1.368 . S
C4548 C4544 1.368 . S
C4548 C4547 1.523 . S
H4549 C4524 0.950 . S
H4550 C4526 0.950 . S
H4551 C4527 0.949 . S
H4552 C4529 0.950 . S
H4553 C4531 0.950 . S
C4554 C4555 1.349 . S
C4554 C4556 1.327 . S
C4554 H4579 0.950 . S
C4555 C4554 1.349 . S
C4555 C4571 1.349 . S
C4556 C4554 1.327 . S
C4556 C4575 1.429 . S
C4556 H4580 0.950 . S
C4557 C4574 1.574 1_455 S
C4557 C4576 1.368 . S
C4557 H4581 0.949 . S
H4558 C4562 0.949 . S
C4559 C4560 1.349 . S
C4559 C4561 1.327 . S
C4559 H4582 0.950 . S
C4560 C4559 1.349 . S
C4560 C4572 1.349 . S
C4561 C4559 1.327 . S
C4561 C4577 1.429 . S
C4561 H4583 0.950 . S
C4562 H4558 0.949 . S
C4562 C4570 1.574 1_655 S
C4562 C4578 1.368 . S
H4563 C4571 0.950 . S
H4564 C4569 0.950 . S
H4565 C4570 0.949 . S
H4566 C4572 0.950 . S
H4567 C4573 0.950 . S
H4568 C4574 0.949 . S
C4569 H4564 0.950 . S
C4569 C4571 1.327 . S
C4569 C4575 1.429 . S
C4570 C4562 1.574 1_455 S
C4570 H4565 0.949 . S
C4570 C4576 1.368 . S
C4571 C4555 1.349 . S
C4571 H4563 0.950 . S
C4571 C4569 1.327 . S
C4572 C4560 1.349 . S
C4572 H4566 0.950 . S
C4572 C4573 1.327 . S
C4573 H4567 0.950 . S
C4573 C4572 1.327 . S
C4573 C4577 1.429 . S
C4574 C4557 1.574 1_655 S
C4574 H4568 0.949 . S
C4574 C4578 1.368 . S
C4575 C4556 1.429 . S
C4575 C4569 1.429 . S
C4575 C4576 1.523 . S
C4576 C4557 1.368 . S
C4576 C4570 1.368 . S
C4576 C4575 1.523 . S
C4577 C4561 1.429 . S
C4577 C4573 1.429 . S
C4577 C4578 1.523 . S
C4578 C4562 1.368 . S
C4578 C4574 1.368 . S
C4578 C4577 1.523 . S
H4579 C4554 0.950 . S
H4580 C4556 0.950 . S
H4581 C4557 0.949 . S
H4582 C4559 0.950 . S
H4583 C4561 0.950 . S
C4584 C4585 1.349 . S
C4584 C4586 1.327 . S
C4584 H4609 0.950 . S
C4585 C4584 1.349 . S
C4585 C4601 1.349 . S
C4586 C4584 1.327 . S
C4586 C4605 1.429 . S
C4586 H4610 0.950 . S
C4587 C4604 1.574 1_565 S
C4587 C4606 1.368 . S
C4587 H4611 0.949 . S
H4588 C4592 0.949 . S
C4589 C4590 1.349 . S
C4589 C4591 1.327 . S
C4589 H4612 0.950 . S
C4590 C4589 1.349 . S
C4590 C4602 1.349 . S
C4591 C4589 1.327 . S
C4591 C4607 1.429 . S
C4591 H4613 0.950 . S
C4592 H4588 0.949 . S
C4592 C4600 1.574 1_545 S
C4592 C4608 1.368 . S
H4593 C4601 0.950 . S
H4594 C4599 0.950 . S
H4595 C4600 0.949 . S
H4596 C4602 0.950 . S
H4597 C4603 0.950 . S
H4598 C4604 0.949 . S
C4599 H4594 0.950 . S
C4599 C4601 1.327 . S
C4599 C4605 1.429 . S
C4600 C4592 1.574 1_565 S
C4600 H4595 0.949 . S
C4600 C4606 1.368 . S
C4601 C4585 1.349 . S
C4601 H4593 0.950 . S
C4601 C4599 1.327 . S
C4602 C4590 1.349 . S
C4602 H4596 0.950 . S
C4602 C4603 1.327 . S
C4603 H4597 0.950 . S
C4603 C4602 1.327 . S
C4603 C4607 1.429 . S
C4604 C4587 1.574 1_545 S
C4604 H4598 0.949 . S
C4604 C4608 1.368 . S
C4605 C4586 1.429 . S
C4605 C4599 1.429 . S
C4605 C4606 1.523 . S
C4606 C4587 1.368 . S
C4606 C4600 1.368 . S
C4606 C4605 1.523 . S
C4607 C4591 1.429 . S
C4607 C4603 1.429 . S
C4607 C4608 1.523 . S
C4608 C4592 1.368 . S
C4608 C4604 1.368 . S
C4608 C4607 1.523 . S
H4609 C4584 0.950 . S
H4610 C4586 0.950 . S
H4611 C4587 0.949 . S
H4612 C4589 0.950 . S
H4613 C4591 0.950 . S
C4614 C4615 1.349 . S
C4614 C4616 1.327 . S
C4614 H4639 0.950 . S
C4615 C4614 1.349 . S
C4615 C4631 1.349 . S
C4616 C4614 1.327 . S
C4616 C4635 1.429 . S
C4616 H4640 0.950 . S
C4617 C4634 1.574 1_455 S
C4617 C4636 1.368 . S
C4617 H4641 0.949 . S
H4618 C4622 0.949 . S
C4619 C4620 1.349 . S
C4619 C4621 1.327 . S
C4619 H4642 0.950 . S
C4620 C4619 1.349 . S
C4620 C4632 1.349 . S
C4621 C4619 1.327 . S
C4621 C4637 1.429 . S
C4621 H4643 0.950 . S
C4622 H4618 0.949 . S
C4622 C4630 1.574 1_655 S
C4622 C4638 1.368 . S
H4623 C4631 0.950 . S
H4624 C4629 0.950 . S
H4625 C4630 0.949 . S
H4626 C4632 0.950 . S
H4627 C4633 0.950 . S
H4628 C4634 0.949 . S
C4629 H4624 0.950 . S
C4629 C4631 1.327 . S
C4629 C4635 1.429 . S
C4630 C4622 1.574 1_455 S
C4630 H4625 0.949 . S
C4630 C4636 1.368 . S
C4631 C4615 1.349 . S
C4631 H4623 0.950 . S
C4631 C4629 1.327 . S
C4632 C4620 1.349 . S
C4632 H4626 0.950 . S
C4632 C4633 1.327 . S
C4633 H4627 0.950 . S
C4633 C4632 1.327 . S
C4633 C4637 1.429 . S
C4634 C4617 1.574 1_655 S
C4634 H4628 0.949 . S
C4634 C4638 1.368 . S
C4635 C4616 1.429 . S
C4635 C4629 1.429 . S
C4635 C4636 1.523 . S
C4636 C4617 1.368 . S
C4636 C4630 1.368 . S
C4636 C4635 1.523 . S
C4637 C4621 1.429 . S
C4637 C4633 1.429 . S
C4637 C4638 1.523 . S
C4638 C4622 1.368 . S
C4638 C4634 1.368 . S
C4638 C4637 1.523 . S
H4639 C4614 0.950 . S
H4640 C4616 0.950 . S
H4641 C4617 0.949 . S
H4642 C4619 0.950 . S
H4643 C4621 0.950 . S
C4644 C4645 1.349 . S
C4644 C4646 1.327 . S
C4644 H4669 0.950 . S
C4645 C4644 1.349 . S
C4645 C4661 1.349 . S
C4646 C4644 1.327 . S
C4646 C4665 1.429 . S
C4646 H4670 0.950 . S
C4647 C4664 1.574 1_545 S
C4647 C4666 1.368 . S
C4647 H4671 0.949 . S
H4648 C4652 0.949 . S
C4649 C4650 1.349 . S
C4649 C4651 1.327 . S
C4649 H4672 0.950 . S
C4650 C4649 1.349 . S
C4650 C4662 1.349 . S
C4651 C4649 1.327 . S
C4651 C4667 1.429 . S
C4651 H4673 0.950 . S
C4652 H4648 0.949 . S
C4652 C4660 1.574 1_565 S
C4652 C4668 1.368 . S
H4653 C4661 0.950 . S
H4654 C4659 0.950 . S
H4655 C4660 0.949 . S
H4656 C4662 0.950 . S
H4657 C4663 0.950 . S
H4658 C4664 0.949 . S
C4659 H4654 0.950 . S
C4659 C4661 1.327 . S
C4659 C4665 1.429 . S
C4660 C4652 1.574 1_545 S
C4660 H4655 0.949 . S
C4660 C4666 1.368 . S
C4661 C4645 1.349 . S
C4661 H4653 0.950 . S
C4661 C4659 1.327 . S
C4662 C4650 1.349 . S
C4662 H4656 0.950 . S
C4662 C4663 1.327 . S
C4663 H4657 0.950 . S
C4663 C4662 1.327 . S
C4663 C4667 1.429 . S
C4664 C4647 1.574 1_565 S
C4664 H4658 0.949 . S
C4664 C4668 1.368 . S
C4665 C4646 1.429 . S
C4665 C4659 1.429 . S
C4665 C4666 1.523 . S
C4666 C4647 1.368 . S
C4666 C4660 1.368 . S
C4666 C4665 1.523 . S
C4667 C4651 1.429 . S
C4667 C4663 1.429 . S
C4667 C4668 1.523 . S
C4668 C4652 1.368 . S
C4668 C4664 1.368 . S
C4668 C4667 1.523 . S
H4669 C4644 0.950 . S
H4670 C4646 0.950 . S
H4671 C4647 0.949 . S
H4672 C4649 0.950 . S
H4673 C4651 0.950 . S
C4674 C4675 1.349 . S
C4674 C4676 1.327 . S
C4674 H4699 0.950 . S
C4675 C4674 1.349 . S
C4675 C4691 1.349 . S
C4676 C4674 1.327 . S
C4676 C4695 1.429 . S
C4676 H4700 0.950 . S
C4677 C4694 1.574 1_655 S
C4677 C4696 1.368 . S
C4677 H4701 0.949 . S
H4678 C4682 0.949 . S
C4679 C4680 1.349 . S
C4679 C4681 1.327 . S
C4679 H4702 0.950 . S
C4680 C4679 1.349 . S
C4680 C4692 1.349 . S
C4681 C4679 1.327 . S
C4681 C4697 1.429 . S
C4681 H4703 0.950 . S
C4682 H4678 0.949 . S
C4682 C4690 1.574 1_455 S
C4682 C4698 1.368 . S
H4683 C4691 0.950 . S
H4684 C4689 0.950 . S
H4685 C4690 0.949 . S
H4686 C4692 0.950 . S
H4687 C4693 0.950 . S
H4688 C4694 0.949 . S
C4689 H4684 0.950 . S
C4689 C4691 1.327 . S
C4689 C4695 1.429 . S
C4690 C4682 1.574 1_655 S
C4690 H4685 0.949 . S
C4690 C4696 1.368 . S
C4691 C4675 1.349 . S
C4691 H4683 0.950 . S
C4691 C4689 1.327 . S
C4692 C4680 1.349 . S
C4692 H4686 0.950 . S
C4692 C4693 1.327 . S
C4693 H4687 0.950 . S
C4693 C4692 1.327 . S
C4693 C4697 1.429 . S
C4694 C4677 1.574 1_455 S
C4694 H4688 0.949 . S
C4694 C4698 1.368 . S
C4695 C4676 1.429 . S
C4695 C4689 1.429 . S
C4695 C4696 1.523 . S
C4696 C4677 1.368 . S
C4696 C4690 1.368 . S
C4696 C4695 1.523 . S
C4697 C4681 1.429 . S
C4697 C4693 1.429 . S
C4697 C4698 1.523 . S
C4698 C4682 1.368 . S
C4698 C4694 1.368 . S
C4698 C4697 1.523 . S
H4699 C4674 0.950 . S
H4700 C4676 0.950 . S
H4701 C4677 0.949 . S
H4702 C4679 0.950 . S
H4703 C4681 0.950 . S
C4704 C4705 1.349 . S
C4704 C4706 1.327 . S
C4704 H4729 0.950 . S
C4705 C4704 1.349 . S
C4705 C4721 1.349 . S
C4706 C4704 1.327 . S
C4706 C4725 1.429 . S
C4706 H4730 0.950 . S
C4707 C4724 1.574 1_554 S
C4707 C4726 1.368 . S
C4707 H4731 0.949 . S
H4708 C4712 0.949 . S
C4709 C4710 1.349 . S
C4709 C4711 1.327 . S
C4709 H4732 0.950 . S
C4710 C4709 1.349 . S
C4710 C4722 1.349 . S
C4711 C4709 1.327 . S
C4711 C4727 1.429 . S
C4711 H4733 0.950 . S
C4712 H4708 0.949 . S
C4712 C4720 1.574 1_556 S
C4712 C4728 1.368 . S
H4713 C4721 0.950 . S
H4714 C4719 0.950 . S
H4715 C4720 0.949 . S
H4716 C4722 0.950 . S
H4717 C4723 0.950 . S
H4718 C4724 0.949 . S
C4719 H4714 0.950 . S
C4719 C4721 1.327 . S
C4719 C4725 1.429 . S
C4720 C4712 1.574 1_554 S
C4720 H4715 0.949 . S
C4720 C4726 1.368 . S
C4721 C4705 1.349 . S
C4721 H4713 0.950 . S
C4721 C4719 1.327 . S
C4722 C4710 1.349 . S
C4722 H4716 0.950 . S
C4722 C4723 1.327 . S
C4723 H4717 0.950 . S
C4723 C4722 1.327 . S
C4723 C4727 1.429 . S
C4724 C4707 1.574 1_556 S
C4724 H4718 0.949 . S
C4724 C4728 1.368 . S
C4725 C4706 1.429 . S
C4725 C4719 1.429 . S
C4725 C4726 1.523 . S
C4726 C4707 1.368 . S
C4726 C4720 1.368 . S
C4726 C4725 1.523 . S
C4727 C4711 1.429 . S
C4727 C4723 1.429 . S
C4727 C4728 1.523 . S
C4728 C4712 1.368 . S
C4728 C4724 1.368 . S
C4728 C4727 1.523 . S
H4729 C4704 0.950 . S
H4730 C4706 0.950 . S
H4731 C4707 0.949 . S
H4732 C4709 0.950 . S
H4733 C4711 0.950 . S
C4734 C4735 1.349 . S
C4734 C4736 1.327 . S
C4734 H4759 0.950 . S
C4735 C4734 1.349 . S
C4735 C4751 1.349 . S
C4736 C4734 1.327 . S
C4736 C4755 1.429 . S
C4736 H4760 0.950 . S
C4737 C4754 1.574 1_556 S
C4737 C4756 1.368 . S
C4737 H4761 0.949 . S
H4738 C4742 0.949 . S
C4739 C4740 1.349 . S
C4739 C4741 1.327 . S
C4739 H4762 0.950 . S
C4740 C4739 1.349 . S
C4740 C4752 1.349 . S
C4741 C4739 1.327 . S
C4741 C4757 1.429 . S
C4741 H4763 0.950 . S
C4742 H4738 0.949 . S
C4742 C4750 1.574 1_554 S
C4742 C4758 1.368 . S
H4743 C4751 0.950 . S
H4744 C4749 0.950 . S
H4745 C4750 0.949 . S
H4746 C4752 0.950 . S
H4747 C4753 0.950 . S
H4748 C4754 0.949 . S
C4749 H4744 0.950 . S
C4749 C4751 1.327 . S
C4749 C4755 1.429 . S
C4750 C4742 1.574 1_556 S
C4750 H4745 0.949 . S
C4750 C4756 1.368 . S
C4751 C4735 1.349 . S
C4751 H4743 0.950 . S
C4751 C4749 1.327 . S
C4752 C4740 1.349 . S
C4752 H4746 0.950 . S
C4752 C4753 1.327 . S
C4753 H4747 0.950 . S
C4753 C4752 1.327 . S
C4753 C4757 1.429 . S
C4754 C4737 1.574 1_554 S
C4754 H4748 0.949 . S
C4754 C4758 1.368 . S
C4755 C4736 1.429 . S
C4755 C4749 1.429 . S
C4755 C4756 1.523 . S
C4756 C4737 1.368 . S
C4756 C4750 1.368 . S
C4756 C4755 1.523 . S
C4757 C4741 1.429 . S
C4757 C4753 1.429 . S
C4757 C4758 1.523 . S
C4758 C4742 1.368 . S
C4758 C4754 1.368 . S
C4758 C4757 1.523 . S
H4759 C4734 0.950 . S
H4760 C4736 0.950 . S
H4761 C4737 0.949 . S
H4762 C4739 0.950 . S
H4763 C4741 0.950 . S
C4764 C4765 1.349 . S
C4764 C4766 1.327 . S
C4764 H4789 0.950 . S
C4765 C4764 1.349 . S
C4765 C4781 1.349 . S
C4766 C4764 1.327 . S
C4766 C4785 1.429 . S
C4766 H4790 0.950 . S
C4767 C4784 1.574 1_554 S
C4767 C4786 1.368 . S
C4767 H4791 0.949 . S
H4768 C4772 0.949 . S
C4769 C4770 1.349 . S
C4769 C4771 1.327 . S
C4769 H4792 0.950 . S
C4770 C4769 1.349 . S
C4770 C4782 1.349 . S
C4771 C4769 1.327 . S
C4771 C4787 1.429 . S
C4771 H4793 0.950 . S
C4772 H4768 0.949 . S
C4772 C4780 1.574 1_556 S
C4772 C4788 1.368 . S
H4773 C4781 0.950 . S
H4774 C4779 0.950 . S
H4775 C4780 0.949 . S
H4776 C4782 0.950 . S
H4777 C4783 0.950 . S
H4778 C4784 0.949 . S
C4779 H4774 0.950 . S
C4779 C4781 1.327 . S
C4779 C4785 1.429 . S
C4780 C4772 1.574 1_554 S
C4780 H4775 0.949 . S
C4780 C4786 1.368 . S
C4781 C4765 1.349 . S
C4781 H4773 0.950 . S
C4781 C4779 1.327 . S
C4782 C4770 1.349 . S
C4782 H4776 0.950 . S
C4782 C4783 1.327 . S
C4783 H4777 0.950 . S
C4783 C4782 1.327 . S
C4783 C4787 1.429 . S
C4784 C4767 1.574 1_556 S
C4784 H4778 0.949 . S
C4784 C4788 1.368 . S
C4785 C4766 1.429 . S
C4785 C4779 1.429 . S
C4785 C4786 1.523 . S
C4786 C4767 1.368 . S
C4786 C4780 1.368 . S
C4786 C4785 1.523 . S
C4787 C4771 1.429 . S
C4787 C4783 1.429 . S
C4787 C4788 1.523 . S
C4788 C4772 1.368 . S
C4788 C4784 1.368 . S
C4788 C4787 1.523 . S
H4789 C4764 0.950 . S
H4790 C4766 0.950 . S
H4791 C4767 0.949 . S
H4792 C4769 0.950 . S
H4793 C4771 0.950 . S
C4794 C4795 1.349 . S
C4794 C4796 1.327 . S
C4794 H4819 0.950 . S
C4795 C4794 1.349 . S
C4795 C4811 1.349 . S
C4796 C4794 1.327 . S
C4796 C4815 1.429 . S
C4796 H4820 0.950 . S
C4797 C4814 1.574 1_556 S
C4797 C4816 1.368 . S
C4797 H4821 0.949 . S
H4798 C4802 0.949 . S
C4799 C4800 1.349 . S
C4799 C4801 1.327 . S
C4799 H4822 0.950 . S
C4800 C4799 1.349 . S
C4800 C4812 1.349 . S
C4801 C4799 1.327 . S
C4801 C4817 1.429 . S
C4801 H4823 0.950 . S
C4802 H4798 0.949 . S
C4802 C4810 1.574 1_554 S
C4802 C4818 1.368 . S
H4803 C4811 0.950 . S
H4804 C4809 0.950 . S
H4805 C4810 0.949 . S
H4806 C4812 0.950 . S
H4807 C4813 0.950 . S
H4808 C4814 0.949 . S
C4809 H4804 0.950 . S
C4809 C4811 1.327 . S
C4809 C4815 1.429 . S
C4810 C4802 1.574 1_556 S
C4810 H4805 0.949 . S
C4810 C4816 1.368 . S
C4811 C4795 1.349 . S
C4811 H4803 0.950 . S
C4811 C4809 1.327 . S
C4812 C4800 1.349 . S
C4812 H4806 0.950 . S
C4812 C4813 1.327 . S
C4813 H4807 0.950 . S
C4813 C4812 1.327 . S
C4813 C4817 1.429 . S
C4814 C4797 1.574 1_554 S
C4814 H4808 0.949 . S
C4814 C4818 1.368 . S
C4815 C4796 1.429 . S
C4815 C4809 1.429 . S
C4815 C4816 1.523 . S
C4816 C4797 1.368 . S
C4816 C4810 1.368 . S
C4816 C4815 1.523 . S
C4817 C4801 1.429 . S
C4817 C4813 1.429 . S
C4817 C4818 1.523 . S
C4818 C4802 1.368 . S
C4818 C4814 1.368 . S
C4818 C4817 1.523 . S
H4819 C4794 0.950 . S
H4820 C4796 0.950 . S
H4821 C4797 0.949 . S
H4822 C4799 0.950 . S
H4823 C4801 0.950 . S
C4824 C4825 1.349 . S
C4824 C4826 1.327 . S
C4824 H4849 0.950 . S
C4825 C4824 1.349 . S
C4825 C4841 1.349 . S
C4826 C4824 1.327 . S
C4826 C4845 1.429 . S
C4826 H4850 0.950 . S
C4827 C4844 1.574 1_554 S
C4827 C4846 1.368 . S
C4827 H4851 0.949 . S
H4828 C4832 0.949 . S
C4829 C4830 1.349 . S
C4829 C4831 1.327 . S
C4829 H4852 0.950 . S
C4830 C4829 1.349 . S
C4830 C4842 1.349 . S
C4831 C4829 1.327 . S
C4831 C4847 1.429 . S
C4831 H4853 0.950 . S
C4832 H4828 0.949 . S
C4832 C4840 1.574 1_556 S
C4832 C4848 1.368 . S
H4833 C4841 0.950 . S
H4834 C4839 0.950 . S
H4835 C4840 0.949 . S
H4836 C4842 0.950 . S
H4837 C4843 0.950 . S
H4838 C4844 0.949 . S
C4839 H4834 0.950 . S
C4839 C4841 1.327 . S
C4839 C4845 1.429 . S
C4840 C4832 1.574 1_554 S
C4840 H4835 0.949 . S
C4840 C4846 1.368 . S
C4841 C4825 1.349 . S
C4841 H4833 0.950 . S
C4841 C4839 1.327 . S
C4842 C4830 1.349 . S
C4842 H4836 0.950 . S
C4842 C4843 1.327 . S
C4843 H4837 0.950 . S
C4843 C4842 1.327 . S
C4843 C4847 1.429 . S
C4844 C4827 1.574 1_556 S
C4844 H4838 0.949 . S
C4844 C4848 1.368 . S
C4845 C4826 1.429 . S
C4845 C4839 1.429 . S
C4845 C4846 1.523 . S
C4846 C4827 1.368 . S
C4846 C4840 1.368 . S
C4846 C4845 1.523 . S
C4847 C4831 1.429 . S
C4847 C4843 1.429 . S
C4847 C4848 1.523 . S
C4848 C4832 1.368 . S
C4848 C4844 1.368 . S
C4848 C4847 1.523 . S
H4849 C4824 0.950 . S
H4850 C4826 0.950 . S
H4851 C4827 0.949 . S
H4852 C4829 0.950 . S
H4853 C4831 0.950 . S
C4854 C4855 1.349 . S
C4854 C4856 1.327 . S
C4854 H4879 0.950 . S
C4855 C4854 1.349 . S
C4855 C4871 1.349 . S
C4856 C4854 1.327 . S
C4856 C4875 1.429 . S
C4856 H4880 0.950 . S
C4857 C4874 1.574 1_554 S
C4857 C4876 1.368 . S
C4857 H4881 0.949 . S
H4858 C4862 0.949 . S
C4859 C4860 1.349 . S
C4859 C4861 1.327 . S
C4859 H4882 0.950 . S
C4860 C4859 1.349 . S
C4860 C4872 1.349 . S
C4861 C4859 1.327 . S
C4861 C4877 1.429 . S
C4861 H4883 0.950 . S
C4862 H4858 0.949 . S
C4862 C4870 1.574 1_556 S
C4862 C4878 1.368 . S
H4863 C4871 0.950 . S
H4864 C4869 0.950 . S
H4865 C4870 0.949 . S
H4866 C4872 0.950 . S
H4867 C4873 0.950 . S
H4868 C4874 0.949 . S
C4869 H4864 0.950 . S
C4869 C4871 1.327 . S
C4869 C4875 1.429 . S
C4870 C4862 1.574 1_554 S
C4870 H4865 0.949 . S
C4870 C4876 1.368 . S
C4871 C4855 1.349 . S
C4871 H4863 0.950 . S
C4871 C4869 1.327 . S
C4872 C4860 1.349 . S
C4872 H4866 0.950 . S
C4872 C4873 1.327 . S
C4873 H4867 0.950 . S
C4873 C4872 1.327 . S
C4873 C4877 1.429 . S
C4874 C4857 1.574 1_556 S
C4874 H4868 0.949 . S
C4874 C4878 1.368 . S
C4875 C4856 1.429 . S
C4875 C4869 1.429 . S
C4875 C4876 1.523 . S
C4876 C4857 1.368 . S
C4876 C4870 1.368 . S
C4876 C4875 1.523 . S
C4877 C4861 1.429 . S
C4877 C4873 1.429 . S
C4877 C4878 1.523 . S
C4878 C4862 1.368 . S
C4878 C4874 1.368 . S
C4878 C4877 1.523 . S
H4879 C4854 0.950 . S
H4880 C4856 0.950 . S
H4881 C4857 0.949 . S
H4882 C4859 0.950 . S
H4883 C4861 0.950 . S
C4884 C4885 1.349 . S
C4884 C4886 1.327 . S
C4884 H4909 0.950 . S
C4885 C4884 1.349 . S
C4885 C4901 1.349 . S
C4886 C4884 1.327 . S
C4886 C4905 1.429 . S
C4886 H4910 0.950 . S
C4887 C4904 1.574 1_554 S
C4887 C4906 1.368 . S
C4887 H4911 0.949 . S
H4888 C4892 0.949 . S
C4889 C4890 1.349 . S
C4889 C4891 1.327 . S
C4889 H4912 0.950 . S
C4890 C4889 1.349 . S
C4890 C4902 1.349 . S
C4891 C4889 1.327 . S
C4891 C4907 1.429 . S
C4891 H4913 0.950 . S
C4892 H4888 0.949 . S
C4892 C4900 1.574 1_556 S
C4892 C4908 1.368 . S
H4893 C4901 0.950 . S
H4894 C4899 0.950 . S
H4895 C4900 0.949 . S
H4896 C4902 0.950 . S
H4897 C4903 0.950 . S
H4898 C4904 0.949 . S
C4899 H4894 0.950 . S
C4899 C4901 1.327 . S
C4899 C4905 1.429 . S
C4900 C4892 1.574 1_554 S
C4900 H4895 0.949 . S
C4900 C4906 1.368 . S
C4901 C4885 1.349 . S
C4901 H4893 0.950 . S
C4901 C4899 1.327 . S
C4902 C4890 1.349 . S
C4902 H4896 0.950 . S
C4902 C4903 1.327 . S
C4903 H4897 0.950 . S
C4903 C4902 1.327 . S
C4903 C4907 1.429 . S
C4904 C4887 1.574 1_556 S
C4904 H4898 0.949 . S
C4904 C4908 1.368 . S
C4905 C4886 1.429 . S
C4905 C4899 1.429 . S
C4905 C4906 1.523 . S
C4906 C4887 1.368 . S
C4906 C4900 1.368 . S
C4906 C4905 1.523 . S
C4907 C4891 1.429 . S
C4907 C4903 1.429 . S
C4907 C4908 1.523 . S
C4908 C4892 1.368 . S
C4908 C4904 1.368 . S
C4908 C4907 1.523 . S
H4909 C4884 0.950 . S
H4910 C4886 0.950 . S
H4911 C4887 0.949 . S
H4912 C4889 0.950 . S
H4913 C4891 0.950 . S
C4914 C4915 1.349 . S
C4914 C4916 1.327 . S
C4914 H4939 0.950 . S
C4915 C4914 1.349 . S
C4915 C4931 1.349 . S
C4916 C4914 1.327 . S
C4916 C4935 1.429 . S
C4916 H4940 0.950 . S
C4917 C4934 1.574 1_556 S
C4917 C4936 1.368 . S
C4917 H4941 0.949 . S
H4918 C4922 0.949 . S
C4919 C4920 1.349 . S
C4919 C4921 1.327 . S
C4919 H4942 0.950 . S
C4920 C4919 1.349 . S
C4920 C4932 1.349 . S
C4921 C4919 1.327 . S
C4921 C4937 1.429 . S
C4921 H4943 0.950 . S
C4922 H4918 0.949 . S
C4922 C4930 1.574 1_554 S
C4922 C4938 1.368 . S
H4923 C4931 0.950 . S
H4924 C4929 0.950 . S
H4925 C4930 0.949 . S
H4926 C4932 0.950 . S
H4927 C4933 0.950 . S
H4928 C4934 0.949 . S
C4929 H4924 0.950 . S
C4929 C4931 1.327 . S
C4929 C4935 1.429 . S
C4930 C4922 1.574 1_556 S
C4930 H4925 0.949 . S
C4930 C4936 1.368 . S
C4931 C4915 1.349 . S
C4931 H4923 0.950 . S
C4931 C4929 1.327 . S
C4932 C4920 1.349 . S
C4932 H4926 0.950 . S
C4932 C4933 1.327 . S
C4933 H4927 0.950 . S
C4933 C4932 1.327 . S
C4933 C4937 1.429 . S
C4934 C4917 1.574 1_554 S
C4934 H4928 0.949 . S
C4934 C4938 1.368 . S
C4935 C4916 1.429 . S
C4935 C4929 1.429 . S
C4935 C4936 1.523 . S
C4936 C4917 1.368 . S
C4936 C4930 1.368 . S
C4936 C4935 1.523 . S
C4937 C4921 1.429 . S
C4937 C4933 1.429 . S
C4937 C4938 1.523 . S
C4938 C4922 1.368 . S
C4938 C4934 1.368 . S
C4938 C4937 1.523 . S
H4939 C4914 0.950 . S
H4940 C4916 0.950 . S
H4941 C4917 0.949 . S
H4942 C4919 0.950 . S
H4943 C4921 0.950 . S
C4944 C4945 1.349 . S
C4944 C4946 1.327 . S
C4944 H4969 0.950 . S
C4945 C4944 1.349 . S
C4945 C4961 1.349 . S
C4946 C4944 1.327 . S
C4946 C4965 1.429 . S
C4946 H4970 0.950 . S
C4947 C4964 1.574 . S
C4947 C4966 1.368 . S
C4947 H4971 0.949 . S
H4948 C4952 0.949 . S
C4949 C4950 1.349 . S
C4949 C4951 1.327 . S
C4949 H4972 0.950 . S
C4950 C4949 1.349 . S
C4950 C4962 1.349 . S
C4951 C4949 1.327 . S
C4951 C4967 1.429 . S
C4951 H4973 0.950 . S
C4952 H4948 0.949 . S
C4952 C4960 1.574 . S
C4952 C4968 1.368 . S
H4953 C4961 0.950 . S
H4954 C4959 0.950 . S
H4955 C4960 0.949 . S
H4956 C4962 0.950 . S
H4957 C4963 0.950 . S
H4958 C4964 0.949 . S
C4959 H4954 0.950 . S
C4959 C4961 1.327 . S
C4959 C4965 1.429 . S
C4960 C4952 1.574 . S
C4960 H4955 0.949 . S
C4960 C4966 1.368 . S
C4961 C4945 1.349 . S
C4961 H4953 0.950 . S
C4961 C4959 1.327 . S
C4962 C4950 1.349 . S
C4962 H4956 0.950 . S
C4962 C4963 1.327 . S
C4963 H4957 0.950 . S
C4963 C4962 1.327 . S
C4963 C4967 1.429 . S
C4964 C4947 1.574 . S
C4964 H4958 0.949 . S
C4964 C4968 1.368 . S
C4965 C4946 1.429 . S
C4965 C4959 1.429 . S
C4965 C4966 1.523 . S
C4966 C4947 1.368 . S
C4966 C4960 1.368 . S
C4966 C4965 1.523 . S
C4967 C4951 1.429 . S
C4967 C4963 1.429 . S
C4967 C4968 1.523 . S
C4968 C4952 1.368 . S
C4968 C4964 1.368 . S
C4968 C4967 1.523 . S
H4969 C4944 0.950 . S
H4970 C4946 0.950 . S
H4971 C4947 0.949 . S
H4972 C4949 0.950 . S
H4973 C4951 0.950 . S
C4974 C4975 1.349 . S
C4974 C4976 1.327 . S
C4974 H4999 0.950 . S
C4975 C4974 1.349 . S
C4975 C4991 1.349 . S
C4976 C4974 1.327 . S
C4976 C4995 1.429 . S
C4976 H5000 0.950 . S
C4977 C4994 1.574 . S
C4977 C4996 1.368 . S
C4977 H5001 0.949 . S
H4978 C4982 0.949 . S
C4979 C4980 1.349 . S
C4979 C4981 1.327 . S
C4979 H5002 0.950 . S
C4980 C4979 1.349 . S
C4980 C4992 1.349 . S
C4981 C4979 1.327 . S
C4981 C4997 1.429 . S
C4981 H5003 0.950 . S
C4982 H4978 0.949 . S
C4982 C4990 1.574 . S
C4982 C4998 1.368 . S
H4983 C4991 0.950 . S
H4984 C4989 0.950 . S
H4985 C4990 0.949 . S
H4986 C4992 0.950 . S
H4987 C4993 0.950 . S
H4988 C4994 0.949 . S
C4989 H4984 0.950 . S
C4989 C4991 1.327 . S
C4989 C4995 1.429 . S
C4990 C4982 1.574 . S
C4990 H4985 0.949 . S
C4990 C4996 1.368 . S
C4991 C4975 1.349 . S
C4991 H4983 0.950 . S
C4991 C4989 1.327 . S
C4992 C4980 1.349 . S
C4992 H4986 0.950 . S
C4992 C4993 1.327 . S
C4993 H4987 0.950 . S
C4993 C4992 1.327 . S
C4993 C4997 1.429 . S
C4994 C4977 1.574 . S
C4994 H4988 0.949 . S
C4994 C4998 1.368 . S
C4995 C4976 1.429 . S
C4995 C4989 1.429 . S
C4995 C4996 1.523 . S
C4996 C4977 1.368 . S
C4996 C4990 1.368 . S
C4996 C4995 1.523 . S
C4997 C4981 1.429 . S
C4997 C4993 1.429 . S
C4997 C4998 1.523 . S
C4998 C4982 1.368 . S
C4998 C4994 1.368 . S
C4998 C4997 1.523 . S
H4999 C4974 0.950 . S
H5000 C4976 0.950 . S
H5001 C4977 0.949 . S
H5002 C4979 0.950 . S
H5003 C4981 0.950 . S
C5004 C5005 1.349 . S
C5004 C5006 1.327 . S
C5004 H5029 0.950 . S
C5005 C5004 1.349 . S
C5005 C5021 1.349 . S
C5006 C5004 1.327 . S
C5006 C5025 1.429 . S
C5006 H5030 0.950 . S
C5007 C5024 1.574 . S
C5007 C5026 1.368 . S
C5007 H5031 0.949 . S
H5008 C5012 0.949 . S
C5009 C5010 1.349 . S
C5009 C5011 1.327 . S
C5009 H5032 0.950 . S
C5010 C5009 1.349 . S
C5010 C5022 1.349 . S
C5011 C5009 1.327 . S
C5011 C5027 1.429 . S
C5011 H5033 0.950 . S
C5012 H5008 0.949 . S
C5012 C5020 1.574 . S
C5012 C5028 1.368 . S
H5013 C5021 0.950 . S
H5014 C5019 0.950 . S
H5015 C5020 0.949 . S
H5016 C5022 0.950 . S
H5017 C5023 0.950 . S
H5018 C5024 0.949 . S
C5019 H5014 0.950 . S
C5019 C5021 1.327 . S
C5019 C5025 1.429 . S
C5020 C5012 1.574 . S
C5020 H5015 0.949 . S
C5020 C5026 1.368 . S
C5021 C5005 1.349 . S
C5021 H5013 0.950 . S
C5021 C5019 1.327 . S
C5022 C5010 1.349 . S
C5022 H5016 0.950 . S
C5022 C5023 1.327 . S
C5023 H5017 0.950 . S
C5023 C5022 1.327 . S
C5023 C5027 1.429 . S
C5024 C5007 1.574 . S
C5024 H5018 0.949 . S
C5024 C5028 1.368 . S
C5025 C5006 1.429 . S
C5025 C5019 1.429 . S
C5025 C5026 1.523 . S
C5026 C5007 1.368 . S
C5026 C5020 1.368 . S
C5026 C5025 1.523 . S
C5027 C5011 1.429 . S
C5027 C5023 1.429 . S
C5027 C5028 1.523 . S
C5028 C5012 1.368 . S
C5028 C5024 1.368 . S
C5028 C5027 1.523 . S
H5029 C5004 0.950 . S
H5030 C5006 0.950 . S
H5031 C5007 0.949 . S
H5032 C5009 0.950 . S
H5033 C5011 0.950 . S
C5034 C5035 1.349 . S
C5034 C5036 1.327 . S
C5034 H5059 0.950 . S
C5035 C5034 1.349 . S
C5035 C5051 1.349 . S
C5036 C5034 1.327 . S
C5036 C5055 1.429 . S
C5036 H5060 0.950 . S
C5037 C5054 1.574 . S
C5037 C5056 1.368 . S
C5037 H5061 0.949 . S
H5038 C5042 0.949 . S
C5039 C5040 1.349 . S
C5039 C5041 1.327 . S
C5039 H5062 0.950 . S
C5040 C5039 1.349 . S
C5040 C5052 1.349 . S
C5041 C5039 1.327 . S
C5041 C5057 1.429 . S
C5041 H5063 0.950 . S
C5042 H5038 0.949 . S
C5042 C5050 1.574 . S
C5042 C5058 1.368 . S
H5043 C5051 0.950 . S
H5044 C5049 0.950 . S
H5045 C5050 0.949 . S
H5046 C5052 0.950 . S
H5047 C5053 0.950 . S
H5048 C5054 0.949 . S
C5049 H5044 0.950 . S
C5049 C5051 1.327 . S
C5049 C5055 1.429 . S
C5050 C5042 1.574 . S
C5050 H5045 0.949 . S
C5050 C5056 1.368 . S
C5051 C5035 1.349 . S
C5051 H5043 0.950 . S
C5051 C5049 1.327 . S
C5052 C5040 1.349 . S
C5052 H5046 0.950 . S
C5052 C5053 1.327 . S
C5053 H5047 0.950 . S
C5053 C5052 1.327 . S
C5053 C5057 1.429 . S
C5054 C5037 1.574 . S
C5054 H5048 0.949 . S
C5054 C5058 1.368 . S
C5055 C5036 1.429 . S
C5055 C5049 1.429 . S
C5055 C5056 1.523 . S
C5056 C5037 1.368 . S
C5056 C5050 1.368 . S
C5056 C5055 1.523 . S
C5057 C5041 1.429 . S
C5057 C5053 1.429 . S
C5057 C5058 1.523 . S
C5058 C5042 1.368 . S
C5058 C5054 1.368 . S
C5058 C5057 1.523 . S
H5059 C5034 0.950 . S
H5060 C5036 0.950 . S
H5061 C5037 0.949 . S
H5062 C5039 0.950 . S
H5063 C5041 0.950 . S
C5064 C5065 1.349 . S
C5064 C5066 1.327 . S
C5064 H5089 0.950 . S
C5065 C5064 1.349 . S
C5065 C5081 1.349 . S
C5066 C5064 1.327 . S
C5066 C5085 1.429 . S
C5066 H5090 0.950 . S
C5067 C5084 1.574 . S
C5067 C5086 1.368 . S
C5067 H5091 0.949 . S
H5068 C5072 0.949 . S
C5069 C5070 1.349 . S
C5069 C5071 1.327 . S
C5069 H5092 0.950 . S
C5070 C5069 1.349 . S
C5070 C5082 1.349 . S
C5071 C5069 1.327 . S
C5071 C5087 1.429 . S
C5071 H5093 0.950 . S
C5072 H5068 0.949 . S
C5072 C5080 1.574 . S
C5072 C5088 1.368 . S
H5073 C5081 0.950 . S
H5074 C5079 0.950 . S
H5075 C5080 0.949 . S
H5076 C5082 0.950 . S
H5077 C5083 0.950 . S
H5078 C5084 0.949 . S
C5079 H5074 0.950 . S
C5079 C5081 1.327 . S
C5079 C5085 1.429 . S
C5080 C5072 1.574 . S
C5080 H5075 0.949 . S
C5080 C5086 1.368 . S
C5081 C5065 1.349 . S
C5081 H5073 0.950 . S
C5081 C5079 1.327 . S
C5082 C5070 1.349 . S
C5082 H5076 0.950 . S
C5082 C5083 1.327 . S
C5083 H5077 0.950 . S
C5083 C5082 1.327 . S
C5083 C5087 1.429 . S
C5084 C5067 1.574 . S
C5084 H5078 0.949 . S
C5084 C5088 1.368 . S
C5085 C5066 1.429 . S
C5085 C5079 1.429 . S
C5085 C5086 1.523 . S
C5086 C5067 1.368 . S
C5086 C5080 1.368 . S
C5086 C5085 1.523 . S
C5087 C5071 1.429 . S
C5087 C5083 1.429 . S
C5087 C5088 1.523 . S
C5088 C5072 1.368 . S
C5088 C5084 1.368 . S
C5088 C5087 1.523 . S
H5089 C5064 0.950 . S
H5090 C5066 0.950 . S
H5091 C5067 0.949 . S
H5092 C5069 0.950 . S
H5093 C5071 0.950 . S
C5094 C5095 1.349 . S
C5094 C5096 1.327 . S
C5094 H5119 0.950 . S
C5095 C5094 1.349 . S
C5095 C5111 1.349 . S
C5096 C5094 1.327 . S
C5096 C5115 1.429 . S
C5096 H5120 0.950 . S
C5097 C5114 1.574 . S
C5097 C5116 1.368 . S
C5097 H5121 0.949 . S
H5098 C5102 0.949 . S
C5099 C5100 1.349 . S
C5099 C5101 1.327 . S
C5099 H5122 0.950 . S
C5100 C5099 1.349 . S
C5100 C5112 1.349 . S
C5101 C5099 1.327 . S
C5101 C5117 1.429 . S
C5101 H5123 0.950 . S
C5102 H5098 0.949 . S
C5102 C5110 1.574 . S
C5102 C5118 1.368 . S
H5103 C5111 0.950 . S
H5104 C5109 0.950 . S
H5105 C5110 0.949 . S
H5106 C5112 0.950 . S
H5107 C5113 0.950 . S
H5108 C5114 0.949 . S
C5109 H5104 0.950 . S
C5109 C5111 1.327 . S
C5109 C5115 1.429 . S
C5110 C5102 1.574 . S
C5110 H5105 0.949 . S
C5110 C5116 1.368 . S
C5111 C5095 1.349 . S
C5111 H5103 0.950 . S
C5111 C5109 1.327 . S
C5112 C5100 1.349 . S
C5112 H5106 0.950 . S
C5112 C5113 1.327 . S
C5113 H5107 0.950 . S
C5113 C5112 1.327 . S
C5113 C5117 1.429 . S
C5114 C5097 1.574 . S
C5114 H5108 0.949 . S
C5114 C5118 1.368 . S
C5115 C5096 1.429 . S
C5115 C5109 1.429 . S
C5115 C5116 1.523 . S
C5116 C5097 1.368 . S
C5116 C5110 1.368 . S
C5116 C5115 1.523 . S
C5117 C5101 1.429 . S
C5117 C5113 1.429 . S
C5117 C5118 1.523 . S
C5118 C5102 1.368 . S
C5118 C5114 1.368 . S
C5118 C5117 1.523 . S
H5119 C5094 0.950 . S
H5120 C5096 0.950 . S
H5121 C5097 0.949 . S
H5122 C5099 0.950 . S
H5123 C5101 0.950 . S
C5124 C5125 1.349 . S
C5124 C5126 1.327 . S
C5124 H5149 0.950 . S
C5125 C5124 1.349 . S
C5125 C5141 1.349 . S
C5126 C5124 1.327 . S
C5126 C5145 1.429 . S
C5126 H5150 0.950 . S
C5127 C5144 1.574 . S
C5127 C5146 1.368 . S
C5127 H5151 0.949 . S
H5128 C5132 0.949 . S
C5129 C5130 1.349 . S
C5129 C5131 1.327 . S
C5129 H5152 0.950 . S
C5130 C5129 1.349 . S
C5130 C5142 1.349 . S
C5131 C5129 1.327 . S
C5131 C5147 1.429 . S
C5131 H5153 0.950 . S
C5132 H5128 0.949 . S
C5132 C5140 1.574 . S
C5132 C5148 1.368 . S
H5133 C5141 0.950 . S
H5134 C5139 0.950 . S
H5135 C5140 0.949 . S
H5136 C5142 0.950 . S
H5137 C5143 0.950 . S
H5138 C5144 0.949 . S
C5139 H5134 0.950 . S
C5139 C5141 1.327 . S
C5139 C5145 1.429 . S
C5140 C5132 1.574 . S
C5140 H5135 0.949 . S
C5140 C5146 1.368 . S
C5141 C5125 1.349 . S
C5141 H5133 0.950 . S
C5141 C5139 1.327 . S
C5142 C5130 1.349 . S
C5142 H5136 0.950 . S
C5142 C5143 1.327 . S
C5143 H5137 0.950 . S
C5143 C5142 1.327 . S
C5143 C5147 1.429 . S
C5144 C5127 1.574 . S
C5144 H5138 0.949 . S
C5144 C5148 1.368 . S
C5145 C5126 1.429 . S
C5145 C5139 1.429 . S
C5145 C5146 1.523 . S
C5146 C5127 1.368 . S
C5146 C5140 1.368 . S
C5146 C5145 1.523 . S
C5147 C5131 1.429 . S
C5147 C5143 1.429 . S
C5147 C5148 1.523 . S
C5148 C5132 1.368 . S
C5148 C5144 1.368 . S
C5148 C5147 1.523 . S
H5149 C5124 0.950 . S
H5150 C5126 0.950 . S
H5151 C5127 0.949 . S
H5152 C5129 0.950 . S
H5153 C5131 0.950 . S
C5154 C5155 1.349 . S
C5154 C5156 1.327 . S
C5154 H5179 0.950 . S
C5155 C5154 1.349 . S
C5155 C5171 1.349 . S
C5156 C5154 1.327 . S
C5156 C5175 1.429 . S
C5156 H5180 0.950 . S
C5157 C5174 1.574 . S
C5157 C5176 1.368 . S
C5157 H5181 0.949 . S
H5158 C5162 0.949 . S
C5159 C5160 1.349 . S
C5159 C5161 1.327 . S
C5159 H5182 0.950 . S
C5160 C5159 1.349 . S
C5160 C5172 1.349 . S
C5161 C5159 1.327 . S
C5161 C5177 1.429 . S
C5161 H5183 0.950 . S
C5162 H5158 0.949 . S
C5162 C5170 1.574 . S
C5162 C5178 1.368 . S
H5163 C5171 0.950 . S
H5164 C5169 0.950 . S
H5165 C5170 0.949 . S
H5166 C5172 0.950 . S
H5167 C5173 0.950 . S
H5168 C5174 0.949 . S
C5169 H5164 0.950 . S
C5169 C5171 1.327 . S
C5169 C5175 1.429 . S
C5170 C5162 1.574 . S
C5170 H5165 0.949 . S
C5170 C5176 1.368 . S
C5171 C5155 1.349 . S
C5171 H5163 0.950 . S
C5171 C5169 1.327 . S
C5172 C5160 1.349 . S
C5172 H5166 0.950 . S
C5172 C5173 1.327 . S
C5173 H5167 0.950 . S
C5173 C5172 1.327 . S
C5173 C5177 1.429 . S
C5174 C5157 1.574 . S
C5174 H5168 0.949 . S
C5174 C5178 1.368 . S
C5175 C5156 1.429 . S
C5175 C5169 1.429 . S
C5175 C5176 1.523 . S
C5176 C5157 1.368 . S
C5176 C5170 1.368 . S
C5176 C5175 1.523 . S
C5177 C5161 1.429 . S
C5177 C5173 1.429 . S
C5177 C5178 1.523 . S
C5178 C5162 1.368 . S
C5178 C5174 1.368 . S
C5178 C5177 1.523 . S
H5179 C5154 0.950 . S
H5180 C5156 0.950 . S
H5181 C5157 0.949 . S
H5182 C5159 0.950 . S
H5183 C5161 0.950 . S
C5184 C5185 1.349 . S
C5184 C5186 1.327 . S
C5184 H5209 0.950 . S
C5185 C5184 1.349 . S
C5185 C5201 1.349 . S
C5186 C5184 1.327 . S
C5186 C5205 1.429 . S
C5186 H5210 0.950 . S
C5187 C5204 1.574 . S
C5187 C5206 1.368 . S
C5187 H5211 0.949 . S
H5188 C5192 0.949 . S
C5189 C5190 1.349 . S
C5189 C5191 1.327 . S
C5189 H5212 0.950 . S
C5190 C5189 1.349 . S
C5190 C5202 1.349 . S
C5191 C5189 1.327 . S
C5191 C5207 1.429 . S
C5191 H5213 0.950 . S
C5192 H5188 0.949 . S
C5192 C5200 1.574 . S
C5192 C5208 1.368 . S
H5193 C5201 0.950 . S
H5194 C5199 0.950 . S
H5195 C5200 0.949 . S
H5196 C5202 0.950 . S
H5197 C5203 0.950 . S
H5198 C5204 0.949 . S
C5199 H5194 0.950 . S
C5199 C5201 1.327 . S
C5199 C5205 1.429 . S
C5200 C5192 1.574 . S
C5200 H5195 0.949 . S
C5200 C5206 1.368 . S
C5201 C5185 1.349 . S
C5201 H5193 0.950 . S
C5201 C5199 1.327 . S
C5202 C5190 1.349 . S
C5202 H5196 0.950 . S
C5202 C5203 1.327 . S
C5203 H5197 0.950 . S
C5203 C5202 1.327 . S
C5203 C5207 1.429 . S
C5204 C5187 1.574 . S
C5204 H5198 0.949 . S
C5204 C5208 1.368 . S
C5205 C5186 1.429 . S
C5205 C5199 1.429 . S
C5205 C5206 1.523 . S
C5206 C5187 1.368 . S
C5206 C5200 1.368 . S
C5206 C5205 1.523 . S
C5207 C5191 1.429 . S
C5207 C5203 1.429 . S
C5207 C5208 1.523 . S
C5208 C5192 1.368 . S
C5208 C5204 1.368 . S
C5208 C5207 1.523 . S
H5209 C5184 0.950 . S
H5210 C5186 0.950 . S
H5211 C5187 0.949 . S
H5212 C5189 0.950 . S
H5213 C5191 0.950 . S
C5214 C5215 1.349 . S
C5214 C5216 1.327 . S
C5214 H5239 0.950 . S
C5215 C5214 1.349 . S
C5215 C5231 1.349 . S
C5216 C5214 1.327 . S
C5216 C5235 1.429 . S
C5216 H5240 0.950 . S
C5217 C5234 1.574 . S
C5217 C5236 1.368 . S
C5217 H5241 0.949 . S
H5218 C5222 0.949 . S
C5219 C5220 1.349 . S
C5219 C5221 1.327 . S
C5219 H5242 0.950 . S
C5220 C5219 1.349 . S
C5220 C5232 1.349 . S
C5221 C5219 1.327 . S
C5221 C5237 1.429 . S
C5221 H5243 0.950 . S
C5222 H5218 0.949 . S
C5222 C5230 1.574 . S
C5222 C5238 1.368 . S
H5223 C5231 0.950 . S
H5224 C5229 0.950 . S
H5225 C5230 0.949 . S
H5226 C5232 0.950 . S
H5227 C5233 0.950 . S
H5228 C5234 0.949 . S
C5229 H5224 0.950 . S
C5229 C5231 1.327 . S
C5229 C5235 1.429 . S
C5230 C5222 1.574 . S
C5230 H5225 0.949 . S
C5230 C5236 1.368 . S
C5231 C5215 1.349 . S
C5231 H5223 0.950 . S
C5231 C5229 1.327 . S
C5232 C5220 1.349 . S
C5232 H5226 0.950 . S
C5232 C5233 1.327 . S
C5233 H5227 0.950 . S
C5233 C5232 1.327 . S
C5233 C5237 1.429 . S
C5234 C5217 1.574 . S
C5234 H5228 0.949 . S
C5234 C5238 1.368 . S
C5235 C5216 1.429 . S
C5235 C5229 1.429 . S
C5235 C5236 1.523 . S
C5236 C5217 1.368 . S
C5236 C5230 1.368 . S
C5236 C5235 1.523 . S
C5237 C5221 1.429 . S
C5237 C5233 1.429 . S
C5237 C5238 1.523 . S
C5238 C5222 1.368 . S
C5238 C5234 1.368 . S
C5238 C5237 1.523 . S
H5239 C5214 0.950 . S
H5240 C5216 0.950 . S
H5241 C5217 0.949 . S
H5242 C5219 0.950 . S
H5243 C5221 0.950 . S
C5244 C5245 1.349 . S
C5244 C5246 1.327 . S
C5244 H5269 0.950 . S
C5245 C5244 1.349 . S
C5245 C5261 1.349 . S
C5246 C5244 1.327 . S
C5246 C5265 1.429 . S
C5246 H5270 0.950 . S
C5247 C5264 1.574 . S
C5247 C5266 1.368 . S
C5247 H5271 0.949 . S
H5248 C5252 0.949 . S
C5249 C5250 1.349 . S
C5249 C5251 1.327 . S
C5249 H5272 0.950 . S
C5250 C5249 1.349 . S
C5250 C5262 1.349 . S
C5251 C5249 1.327 . S
C5251 C5267 1.429 . S
C5251 H5273 0.950 . S
C5252 H5248 0.949 . S
C5252 C5260 1.574 . S
C5252 C5268 1.368 . S
H5253 C5261 0.950 . S
H5254 C5259 0.950 . S
H5255 C5260 0.949 . S
H5256 C5262 0.950 . S
H5257 C5263 0.950 . S
H5258 C5264 0.949 . S
C5259 H5254 0.950 . S
C5259 C5261 1.327 . S
C5259 C5265 1.429 . S
C5260 C5252 1.574 . S
C5260 H5255 0.949 . S
C5260 C5266 1.368 . S
C5261 C5245 1.349 . S
C5261 H5253 0.950 . S
C5261 C5259 1.327 . S
C5262 C5250 1.349 . S
C5262 H5256 0.950 . S
C5262 C5263 1.327 . S
C5263 H5257 0.950 . S
C5263 C5262 1.327 . S
C5263 C5267 1.429 . S
C5264 C5247 1.574 . S
C5264 H5258 0.949 . S
C5264 C5268 1.368 . S
C5265 C5246 1.429 . S
C5265 C5259 1.429 . S
C5265 C5266 1.523 . S
C5266 C5247 1.368 . S
C5266 C5260 1.368 . S
C5266 C5265 1.523 . S
C5267 C5251 1.429 . S
C5267 C5263 1.429 . S
C5267 C5268 1.523 . S
C5268 C5252 1.368 . S
C5268 C5264 1.368 . S
C5268 C5267 1.523 . S
H5269 C5244 0.950 . S
H5270 C5246 0.950 . S
H5271 C5247 0.949 . S
H5272 C5249 0.950 . S
H5273 C5251 0.950 . S
C5274 C5275 1.349 . S
C5274 C5276 1.327 . S
C5274 H5299 0.950 . S
C5275 C5274 1.349 . S
C5275 C5291 1.349 . S
C5276 C5274 1.327 . S
C5276 C5295 1.429 . S
C5276 H5300 0.950 . S
C5277 C5294 1.574 . S
C5277 C5296 1.368 . S
C5277 H5301 0.949 . S
H5278 C5282 0.949 . S
C5279 C5280 1.349 . S
C5279 C5281 1.327 . S
C5279 H5302 0.950 . S
C5280 C5279 1.349 . S
C5280 C5292 1.349 . S
C5281 C5279 1.327 . S
C5281 C5297 1.429 . S
C5281 H5303 0.950 . S
C5282 H5278 0.949 . S
C5282 C5290 1.574 . S
C5282 C5298 1.368 . S
H5283 C5291 0.950 . S
H5284 C5289 0.950 . S
H5285 C5290 0.949 . S
H5286 C5292 0.950 . S
H5287 C5293 0.950 . S
H5288 C5294 0.949 . S
C5289 H5284 0.950 . S
C5289 C5291 1.327 . S
C5289 C5295 1.429 . S
C5290 C5282 1.574 . S
C5290 H5285 0.949 . S
C5290 C5296 1.368 . S
C5291 C5275 1.349 . S
C5291 H5283 0.950 . S
C5291 C5289 1.327 . S
C5292 C5280 1.349 . S
C5292 H5286 0.950 . S
C5292 C5293 1.327 . S
C5293 H5287 0.950 . S
C5293 C5292 1.327 . S
C5293 C5297 1.429 . S
C5294 C5277 1.574 . S
C5294 H5288 0.949 . S
C5294 C5298 1.368 . S
C5295 C5276 1.429 . S
C5295 C5289 1.429 . S
C5295 C5296 1.523 . S
C5296 C5277 1.368 . S
C5296 C5290 1.368 . S
C5296 C5295 1.523 . S
C5297 C5281 1.429 . S
C5297 C5293 1.429 . S
C5297 C5298 1.523 . S
C5298 C5282 1.368 . S
C5298 C5294 1.368 . S
C5298 C5297 1.523 . S
H5299 C5274 0.950 . S
H5300 C5276 0.950 . S
H5301 C5277 0.949 . S
H5302 C5279 0.950 . S
H5303 C5281 0.950 . S
C5304 C5305 1.349 . S
C5304 C5306 1.327 . S
C5304 H5329 0.950 . S
C5305 C5304 1.349 . S
C5305 C5321 1.349 . S
C5306 C5304 1.327 . S
C5306 C5325 1.429 . S
C5306 H5330 0.950 . S
C5307 C5324 1.574 . S
C5307 C5326 1.368 . S
C5307 H5331 0.949 . S
H5308 C5312 0.949 . S
C5309 C5310 1.349 . S
C5309 C5311 1.327 . S
C5309 H5332 0.950 . S
C5310 C5309 1.349 . S
C5310 C5322 1.349 . S
C5311 C5309 1.327 . S
C5311 C5327 1.429 . S
C5311 H5333 0.950 . S
C5312 H5308 0.949 . S
C5312 C5320 1.574 . S
C5312 C5328 1.368 . S
H5313 C5321 0.950 . S
H5314 C5319 0.950 . S
H5315 C5320 0.949 . S
H5316 C5322 0.950 . S
H5317 C5323 0.950 . S
H5318 C5324 0.949 . S
C5319 H5314 0.950 . S
C5319 C5321 1.327 . S
C5319 C5325 1.429 . S
C5320 C5312 1.574 . S
C5320 H5315 0.949 . S
C5320 C5326 1.368 . S
C5321 C5305 1.349 . S
C5321 H5313 0.950 . S
C5321 C5319 1.327 . S
C5322 C5310 1.349 . S
C5322 H5316 0.950 . S
C5322 C5323 1.327 . S
C5323 H5317 0.950 . S
C5323 C5322 1.327 . S
C5323 C5327 1.429 . S
C5324 C5307 1.574 . S
C5324 H5318 0.949 . S
C5324 C5328 1.368 . S
C5325 C5306 1.429 . S
C5325 C5319 1.429 . S
C5325 C5326 1.523 . S
C5326 C5307 1.368 . S
C5326 C5320 1.368 . S
C5326 C5325 1.523 . S
C5327 C5311 1.429 . S
C5327 C5323 1.429 . S
C5327 C5328 1.523 . S
C5328 C5312 1.368 . S
C5328 C5324 1.368 . S
C5328 C5327 1.523 . S
H5329 C5304 0.950 . S
H5330 C5306 0.950 . S
H5331 C5307 0.949 . S
H5332 C5309 0.950 . S
H5333 C5311 0.950 . S
C5334 C5335 1.349 . S
C5334 C5336 1.327 . S
C5334 H5359 0.950 . S
C5335 C5334 1.349 . S
C5335 C5351 1.349 . S
C5336 C5334 1.327 . S
C5336 C5355 1.429 . S
C5336 H5360 0.950 . S
C5337 C5354 1.574 . S
C5337 C5356 1.368 . S
C5337 H5361 0.949 . S
H5338 C5342 0.949 . S
C5339 C5340 1.349 . S
C5339 C5341 1.327 . S
C5339 H5362 0.950 . S
C5340 C5339 1.349 . S
C5340 C5352 1.349 . S
C5341 C5339 1.327 . S
C5341 C5357 1.429 . S
C5341 H5363 0.950 . S
C5342 H5338 0.949 . S
C5342 C5350 1.574 . S
C5342 C5358 1.368 . S
H5343 C5351 0.950 . S
H5344 C5349 0.950 . S
H5345 C5350 0.949 . S
H5346 C5352 0.950 . S
H5347 C5353 0.950 . S
H5348 C5354 0.949 . S
C5349 H5344 0.950 . S
C5349 C5351 1.327 . S
C5349 C5355 1.429 . S
C5350 C5342 1.574 . S
C5350 H5345 0.949 . S
C5350 C5356 1.368 . S
C5351 C5335 1.349 . S
C5351 H5343 0.950 . S
C5351 C5349 1.327 . S
C5352 C5340 1.349 . S
C5352 H5346 0.950 . S
C5352 C5353 1.327 . S
C5353 H5347 0.950 . S
C5353 C5352 1.327 . S
C5353 C5357 1.429 . S
C5354 C5337 1.574 . S
C5354 H5348 0.949 . S
C5354 C5358 1.368 . S
C5355 C5336 1.429 . S
C5355 C5349 1.429 . S
C5355 C5356 1.523 . S
C5356 C5337 1.368 . S
C5356 C5350 1.368 . S
C5356 C5355 1.523 . S
C5357 C5341 1.429 . S
C5357 C5353 1.429 . S
C5357 C5358 1.523 . S
C5358 C5342 1.368 . S
C5358 C5354 1.368 . S
C5358 C5357 1.523 . S
H5359 C5334 0.950 . S
H5360 C5336 0.950 . S
H5361 C5337 0.949 . S
H5362 C5339 0.950 . S
H5363 C5341 0.950 . S
C5364 C5365 1.349 . S
C5364 C5366 1.327 . S
C5364 H5389 0.950 . S
C5365 C5364 1.349 . S
C5365 C5381 1.349 . S
C5366 C5364 1.327 . S
C5366 C5385 1.429 . S
C5366 H5390 0.950 . S
C5367 C5384 1.574 . S
C5367 C5386 1.368 . S
C5367 H5391 0.949 . S
H5368 C5372 0.949 . S
C5369 C5370 1.349 . S
C5369 C5371 1.327 . S
C5369 H5392 0.950 . S
C5370 C5369 1.349 . S
C5370 C5382 1.349 . S
C5371 C5369 1.327 . S
C5371 C5387 1.429 . S
C5371 H5393 0.950 . S
C5372 H5368 0.949 . S
C5372 C5380 1.574 . S
C5372 C5388 1.368 . S
H5373 C5381 0.950 . S
H5374 C5379 0.950 . S
H5375 C5380 0.949 . S
H5376 C5382 0.950 . S
H5377 C5383 0.950 . S
H5378 C5384 0.949 . S
C5379 H5374 0.950 . S
C5379 C5381 1.327 . S
C5379 C5385 1.429 . S
C5380 C5372 1.574 . S
C5380 H5375 0.949 . S
C5380 C5386 1.368 . S
C5381 C5365 1.349 . S
C5381 H5373 0.950 . S
C5381 C5379 1.327 . S
C5382 C5370 1.349 . S
C5382 H5376 0.950 . S
C5382 C5383 1.327 . S
C5383 H5377 0.950 . S
C5383 C5382 1.327 . S
C5383 C5387 1.429 . S
C5384 C5367 1.574 . S
C5384 H5378 0.949 . S
C5384 C5388 1.368 . S
C5385 C5366 1.429 . S
C5385 C5379 1.429 . S
C5385 C5386 1.523 . S
C5386 C5367 1.368 . S
C5386 C5380 1.368 . S
C5386 C5385 1.523 . S
C5387 C5371 1.429 . S
C5387 C5383 1.429 . S
C5387 C5388 1.523 . S
C5388 C5372 1.368 . S
C5388 C5384 1.368 . S
C5388 C5387 1.523 . S
H5389 C5364 0.950 . S
H5390 C5366 0.950 . S
H5391 C5367 0.949 . S
H5392 C5369 0.950 . S
H5393 C5371 0.950 . S
C5394 C5395 1.349 . S
C5394 C5396 1.327 . S
C5394 H5419 0.950 . S
C5395 C5394 1.349 . S
C5395 C5411 1.349 . S
C5396 C5394 1.327 . S
C5396 C5415 1.429 . S
C5396 H5420 0.950 . S
C5397 C5414 1.574 . S
C5397 C5416 1.368 . S
C5397 H5421 0.949 . S
H5398 C5402 0.949 . S
C5399 C5400 1.349 . S
C5399 C5401 1.327 . S
C5399 H5422 0.950 . S
C5400 C5399 1.349 . S
C5400 C5412 1.349 . S
C5401 C5399 1.327 . S
C5401 C5417 1.429 . S
C5401 H5423 0.950 . S
C5402 H5398 0.949 . S
C5402 C5410 1.574 . S
C5402 C5418 1.368 . S
H5403 C5411 0.950 . S
H5404 C5409 0.950 . S
H5405 C5410 0.949 . S
H5406 C5412 0.950 . S
H5407 C5413 0.950 . S
H5408 C5414 0.949 . S
C5409 H5404 0.950 . S
C5409 C5411 1.327 . S
C5409 C5415 1.429 . S
C5410 C5402 1.574 . S
C5410 H5405 0.949 . S
C5410 C5416 1.368 . S
C5411 C5395 1.349 . S
C5411 H5403 0.950 . S
C5411 C5409 1.327 . S
C5412 C5400 1.349 . S
C5412 H5406 0.950 . S
C5412 C5413 1.327 . S
C5413 H5407 0.950 . S
C5413 C5412 1.327 . S
C5413 C5417 1.429 . S
C5414 C5397 1.574 . S
C5414 H5408 0.949 . S
C5414 C5418 1.368 . S
C5415 C5396 1.429 . S
C5415 C5409 1.429 . S
C5415 C5416 1.523 . S
C5416 C5397 1.368 . S
C5416 C5410 1.368 . S
C5416 C5415 1.523 . S
C5417 C5401 1.429 . S
C5417 C5413 1.429 . S
C5417 C5418 1.523 . S
C5418 C5402 1.368 . S
C5418 C5414 1.368 . S
C5418 C5417 1.523 . S
H5419 C5394 0.950 . S
H5420 C5396 0.950 . S
H5421 C5397 0.949 . S
H5422 C5399 0.950 . S
H5423 C5401 0.950 . S
C5424 C5425 1.349 . S
C5424 C5426 1.327 . S
C5424 H5449 0.950 . S
C5425 C5424 1.349 . S
C5425 C5441 1.349 . S
C5426 C5424 1.327 . S
C5426 C5445 1.429 . S
C5426 H5450 0.950 . S
C5427 C5444 1.574 . S
C5427 C5446 1.368 . S
C5427 H5451 0.949 . S
H5428 C5432 0.949 . S
C5429 C5430 1.349 . S
C5429 C5431 1.327 . S
C5429 H5452 0.950 . S
C5430 C5429 1.349 . S
C5430 C5442 1.349 . S
C5431 C5429 1.327 . S
C5431 C5447 1.429 . S
C5431 H5453 0.950 . S
C5432 H5428 0.949 . S
C5432 C5440 1.574 . S
C5432 C5448 1.368 . S
H5433 C5441 0.950 . S
H5434 C5439 0.950 . S
H5435 C5440 0.949 . S
H5436 C5442 0.950 . S
H5437 C5443 0.950 . S
H5438 C5444 0.949 . S
C5439 H5434 0.950 . S
C5439 C5441 1.327 . S
C5439 C5445 1.429 . S
C5440 C5432 1.574 . S
C5440 H5435 0.949 . S
C5440 C5446 1.368 . S
C5441 C5425 1.349 . S
C5441 H5433 0.950 . S
C5441 C5439 1.327 . S
C5442 C5430 1.349 . S
C5442 H5436 0.950 . S
C5442 C5443 1.327 . S
C5443 H5437 0.950 . S
C5443 C5442 1.327 . S
C5443 C5447 1.429 . S
C5444 C5427 1.574 . S
C5444 H5438 0.949 . S
C5444 C5448 1.368 . S
C5445 C5426 1.429 . S
C5445 C5439 1.429 . S
C5445 C5446 1.523 . S
C5446 C5427 1.368 . S
C5446 C5440 1.368 . S
C5446 C5445 1.523 . S
C5447 C5431 1.429 . S
C5447 C5443 1.429 . S
C5447 C5448 1.523 . S
C5448 C5432 1.368 . S
C5448 C5444 1.368 . S
C5448 C5447 1.523 . S
H5449 C5424 0.950 . S
H5450 C5426 0.950 . S
H5451 C5427 0.949 . S
H5452 C5429 0.950 . S
H5453 C5431 0.950 . S
C5454 C5455 1.349 . S
C5454 C5456 1.327 . S
C5454 H5479 0.950 . S
C5455 C5454 1.349 . S
C5455 C5471 1.349 . S
C5456 C5454 1.327 . S
C5456 C5475 1.429 . S
C5456 H5480 0.950 . S
C5457 C5474 1.574 . S
C5457 C5476 1.368 . S
C5457 H5481 0.949 . S
H5458 C5462 0.949 . S
C5459 C5460 1.349 . S
C5459 C5461 1.327 . S
C5459 H5482 0.950 . S
C5460 C5459 1.349 . S
C5460 C5472 1.349 . S
C5461 C5459 1.327 . S
C5461 C5477 1.429 . S
C5461 H5483 0.950 . S
C5462 H5458 0.949 . S
C5462 C5470 1.574 . S
C5462 C5478 1.368 . S
H5463 C5471 0.950 . S
H5464 C5469 0.950 . S
H5465 C5470 0.949 . S
H5466 C5472 0.950 . S
H5467 C5473 0.950 . S
H5468 C5474 0.949 . S
C5469 H5464 0.950 . S
C5469 C5471 1.327 . S
C5469 C5475 1.429 . S
C5470 C5462 1.574 . S
C5470 H5465 0.949 . S
C5470 C5476 1.368 . S
C5471 C5455 1.349 . S
C5471 H5463 0.950 . S
C5471 C5469 1.327 . S
C5472 C5460 1.349 . S
C5472 H5466 0.950 . S
C5472 C5473 1.327 . S
C5473 H5467 0.950 . S
C5473 C5472 1.327 . S
C5473 C5477 1.429 . S
C5474 C5457 1.574 . S
C5474 H5468 0.949 . S
C5474 C5478 1.368 . S
C5475 C5456 1.429 . S
C5475 C5469 1.429 . S
C5475 C5476 1.523 . S
C5476 C5457 1.368 . S
C5476 C5470 1.368 . S
C5476 C5475 1.523 . S
C5477 C5461 1.429 . S
C5477 C5473 1.429 . S
C5477 C5478 1.523 . S
C5478 C5462 1.368 . S
C5478 C5474 1.368 . S
C5478 C5477 1.523 . S
H5479 C5454 0.950 . S
H5480 C5456 0.950 . S
H5481 C5457 0.949 . S
H5482 C5459 0.950 . S
H5483 C5461 0.950 . S
C5484 C5485 1.349 . S
C5484 C5486 1.327 . S
C5484 H5509 0.950 . S
C5485 C5484 1.349 . S
C5485 C5501 1.349 . S
C5486 C5484 1.327 . S
C5486 C5505 1.429 . S
C5486 H5510 0.950 . S
C5487 C5504 1.574 . S
C5487 C5506 1.368 . S
C5487 H5511 0.949 . S
H5488 C5492 0.949 . S
C5489 C5490 1.349 . S
C5489 C5491 1.327 . S
C5489 H5512 0.950 . S
C5490 C5489 1.349 . S
C5490 C5502 1.349 . S
C5491 C5489 1.327 . S
C5491 C5507 1.429 . S
C5491 H5513 0.950 . S
C5492 H5488 0.949 . S
C5492 C5500 1.574 . S
C5492 C5508 1.368 . S
H5493 C5501 0.950 . S
H5494 C5499 0.950 . S
H5495 C5500 0.949 . S
H5496 C5502 0.950 . S
H5497 C5503 0.950 . S
H5498 C5504 0.949 . S
C5499 H5494 0.950 . S
C5499 C5501 1.327 . S
C5499 C5505 1.429 . S
C5500 C5492 1.574 . S
C5500 H5495 0.949 . S
C5500 C5506 1.368 . S
C5501 C5485 1.349 . S
C5501 H5493 0.950 . S
C5501 C5499 1.327 . S
C5502 C5490 1.349 . S
C5502 H5496 0.950 . S
C5502 C5503 1.327 . S
C5503 H5497 0.950 . S
C5503 C5502 1.327 . S
C5503 C5507 1.429 . S
C5504 C5487 1.574 . S
C5504 H5498 0.949 . S
C5504 C5508 1.368 . S
C5505 C5486 1.429 . S
C5505 C5499 1.429 . S
C5505 C5506 1.523 . S
C5506 C5487 1.368 . S
C5506 C5500 1.368 . S
C5506 C5505 1.523 . S
C5507 C5491 1.429 . S
C5507 C5503 1.429 . S
C5507 C5508 1.523 . S
C5508 C5492 1.368 . S
C5508 C5504 1.368 . S
C5508 C5507 1.523 . S
H5509 C5484 0.950 . S
H5510 C5486 0.950 . S
H5511 C5487 0.949 . S
H5512 C5489 0.950 . S
H5513 C5491 0.950 . S
C5514 C5515 1.349 . S
C5514 C5516 1.327 . S
C5514 H5539 0.950 . S
C5515 C5514 1.349 . S
C5515 C5531 1.349 . S
C5516 C5514 1.327 . S
C5516 C5535 1.429 . S
C5516 H5540 0.950 . S
C5517 C5534 1.574 . S
C5517 C5536 1.368 . S
C5517 H5541 0.949 . S
H5518 C5522 0.949 . S
C5519 C5520 1.349 . S
C5519 C5521 1.327 . S
C5519 H5542 0.950 . S
C5520 C5519 1.349 . S
C5520 C5532 1.349 . S
C5521 C5519 1.327 . S
C5521 C5537 1.429 . S
C5521 H5543 0.950 . S
C5522 H5518 0.949 . S
C5522 C5530 1.574 . S
C5522 C5538 1.368 . S
H5523 C5531 0.950 . S
H5524 C5529 0.950 . S
H5525 C5530 0.949 . S
H5526 C5532 0.950 . S
H5527 C5533 0.950 . S
H5528 C5534 0.949 . S
C5529 H5524 0.950 . S
C5529 C5531 1.327 . S
C5529 C5535 1.429 . S
C5530 C5522 1.574 . S
C5530 H5525 0.949 . S
C5530 C5536 1.368 . S
C5531 C5515 1.349 . S
C5531 H5523 0.950 . S
C5531 C5529 1.327 . S
C5532 C5520 1.349 . S
C5532 H5526 0.950 . S
C5532 C5533 1.327 . S
C5533 H5527 0.950 . S
C5533 C5532 1.327 . S
C5533 C5537 1.429 . S
C5534 C5517 1.574 . S
C5534 H5528 0.949 . S
C5534 C5538 1.368 . S
C5535 C5516 1.429 . S
C5535 C5529 1.429 . S
C5535 C5536 1.523 . S
C5536 C5517 1.368 . S
C5536 C5530 1.368 . S
C5536 C5535 1.523 . S
C5537 C5521 1.429 . S
C5537 C5533 1.429 . S
C5537 C5538 1.523 . S
C5538 C5522 1.368 . S
C5538 C5534 1.368 . S
C5538 C5537 1.523 . S
H5539 C5514 0.950 . S
H5540 C5516 0.950 . S
H5541 C5517 0.949 . S
H5542 C5519 0.950 . S
H5543 C5521 0.950 . S
C5544 C5545 1.349 . S
C5544 C5546 1.327 . S
C5544 H5569 0.950 . S
C5545 C5544 1.349 . S
C5545 C5561 1.349 . S
C5546 C5544 1.327 . S
C5546 C5565 1.429 . S
C5546 H5570 0.950 . S
C5547 C5564 1.574 . S
C5547 C5566 1.368 . S
C5547 H5571 0.949 . S
H5548 C5552 0.949 . S
C5549 C5550 1.349 . S
C5549 C5551 1.327 . S
C5549 H5572 0.950 . S
C5550 C5549 1.349 . S
C5550 C5562 1.349 . S
C5551 C5549 1.327 . S
C5551 C5567 1.429 . S
C5551 H5573 0.950 . S
C5552 H5548 0.949 . S
C5552 C5560 1.574 . S
C5552 C5568 1.368 . S
H5553 C5561 0.950 . S
H5554 C5559 0.950 . S
H5555 C5560 0.949 . S
H5556 C5562 0.950 . S
H5557 C5563 0.950 . S
H5558 C5564 0.949 . S
C5559 H5554 0.950 . S
C5559 C5561 1.327 . S
C5559 C5565 1.429 . S
C5560 C5552 1.574 . S
C5560 H5555 0.949 . S
C5560 C5566 1.368 . S
C5561 C5545 1.349 . S
C5561 H5553 0.950 . S
C5561 C5559 1.327 . S
C5562 C5550 1.349 . S
C5562 H5556 0.950 . S
C5562 C5563 1.327 . S
C5563 H5557 0.950 . S
C5563 C5562 1.327 . S
C5563 C5567 1.429 . S
C5564 C5547 1.574 . S
C5564 H5558 0.949 . S
C5564 C5568 1.368 . S
C5565 C5546 1.429 . S
C5565 C5559 1.429 . S
C5565 C5566 1.523 . S
C5566 C5547 1.368 . S
C5566 C5560 1.368 . S
C5566 C5565 1.523 . S
C5567 C5551 1.429 . S
C5567 C5563 1.429 . S
C5567 C5568 1.523 . S
C5568 C5552 1.368 . S
C5568 C5564 1.368 . S
C5568 C5567 1.523 . S
H5569 C5544 0.950 . S
H5570 C5546 0.950 . S
H5571 C5547 0.949 . S
H5572 C5549 0.950 . S
H5573 C5551 0.950 . S
C5574 C5575 1.349 . S
C5574 C5576 1.327 . S
C5574 H5599 0.950 . S
C5575 C5574 1.349 . S
C5575 C5591 1.349 . S
C5576 C5574 1.327 . S
C5576 C5595 1.429 . S
C5576 H5600 0.950 . S
C5577 C5594 1.574 . S
C5577 C5596 1.368 . S
C5577 H5601 0.949 . S
H5578 C5582 0.949 . S
C5579 C5580 1.349 . S
C5579 C5581 1.327 . S
C5579 H5602 0.950 . S
C5580 C5579 1.349 . S
C5580 C5592 1.349 . S
C5581 C5579 1.327 . S
C5581 C5597 1.429 . S
C5581 H5603 0.950 . S
C5582 H5578 0.949 . S
C5582 C5590 1.574 . S
C5582 C5598 1.368 . S
H5583 C5591 0.950 . S
H5584 C5589 0.950 . S
H5585 C5590 0.949 . S
H5586 C5592 0.950 . S
H5587 C5593 0.950 . S
H5588 C5594 0.949 . S
C5589 H5584 0.950 . S
C5589 C5591 1.327 . S
C5589 C5595 1.429 . S
C5590 C5582 1.574 . S
C5590 H5585 0.949 . S
C5590 C5596 1.368 . S
C5591 C5575 1.349 . S
C5591 H5583 0.950 . S
C5591 C5589 1.327 . S
C5592 C5580 1.349 . S
C5592 H5586 0.950 . S
C5592 C5593 1.327 . S
C5593 H5587 0.950 . S
C5593 C5592 1.327 . S
C5593 C5597 1.429 . S
C5594 C5577 1.574 . S
C5594 H5588 0.949 . S
C5594 C5598 1.368 . S
C5595 C5576 1.429 . S
C5595 C5589 1.429 . S
C5595 C5596 1.523 . S
C5596 C5577 1.368 . S
C5596 C5590 1.368 . S
C5596 C5595 1.523 . S
C5597 C5581 1.429 . S
C5597 C5593 1.429 . S
C5597 C5598 1.523 . S
C5598 C5582 1.368 . S
C5598 C5594 1.368 . S
C5598 C5597 1.523 . S
H5599 C5574 0.950 . S
H5600 C5576 0.950 . S
H5601 C5577 0.949 . S
H5602 C5579 0.950 . S
H5603 C5581 0.950 . S
C5604 C5605 1.349 . S
C5604 C5606 1.327 . S
C5604 H5629 0.950 . S
C5605 C5604 1.349 . S
C5605 C5621 1.349 . S
C5606 C5604 1.327 . S
C5606 C5625 1.429 . S
C5606 H5630 0.950 . S
C5607 C5624 1.574 . S
C5607 C5626 1.368 . S
C5607 H5631 0.949 . S
H5608 C5612 0.949 . S
C5609 C5610 1.349 . S
C5609 C5611 1.327 . S
C5609 H5632 0.950 . S
C5610 C5609 1.349 . S
C5610 C5622 1.349 . S
C5611 C5609 1.327 . S
C5611 C5627 1.429 . S
C5611 H5633 0.950 . S
C5612 H5608 0.949 . S
C5612 C5620 1.574 . S
C5612 C5628 1.368 . S
H5613 C5621 0.950 . S
H5614 C5619 0.950 . S
H5615 C5620 0.949 . S
H5616 C5622 0.950 . S
H5617 C5623 0.950 . S
H5618 C5624 0.949 . S
C5619 H5614 0.950 . S
C5619 C5621 1.327 . S
C5619 C5625 1.429 . S
C5620 C5612 1.574 . S
C5620 H5615 0.949 . S
C5620 C5626 1.368 . S
C5621 C5605 1.349 . S
C5621 H5613 0.950 . S
C5621 C5619 1.327 . S
C5622 C5610 1.349 . S
C5622 H5616 0.950 . S
C5622 C5623 1.327 . S
C5623 H5617 0.950 . S
C5623 C5622 1.327 . S
C5623 C5627 1.429 . S
C5624 C5607 1.574 . S
C5624 H5618 0.949 . S
C5624 C5628 1.368 . S
C5625 C5606 1.429 . S
C5625 C5619 1.429 . S
C5625 C5626 1.523 . S
C5626 C5607 1.368 . S
C5626 C5620 1.368 . S
C5626 C5625 1.523 . S
C5627 C5611 1.429 . S
C5627 C5623 1.429 . S
C5627 C5628 1.523 . S
C5628 C5612 1.368 . S
C5628 C5624 1.368 . S
C5628 C5627 1.523 . S
H5629 C5604 0.950 . S
H5630 C5606 0.950 . S
H5631 C5607 0.949 . S
H5632 C5609 0.950 . S
H5633 C5611 0.950 . S
C5634 C5635 1.349 . S
C5634 C5636 1.327 . S
C5634 H5659 0.950 . S
C5635 C5634 1.349 . S
C5635 C5651 1.349 . S
C5636 C5634 1.327 . S
C5636 C5655 1.429 . S
C5636 H5660 0.950 . S
C5637 C5654 1.574 . S
C5637 C5656 1.368 . S
C5637 H5661 0.949 . S
H5638 C5642 0.949 . S
C5639 C5640 1.349 . S
C5639 C5641 1.327 . S
C5639 H5662 0.950 . S
C5640 C5639 1.349 . S
C5640 C5652 1.349 . S
C5641 C5639 1.327 . S
C5641 C5657 1.429 . S
C5641 H5663 0.950 . S
C5642 H5638 0.949 . S
C5642 C5650 1.574 . S
C5642 C5658 1.368 . S
H5643 C5651 0.950 . S
H5644 C5649 0.950 . S
H5645 C5650 0.949 . S
H5646 C5652 0.950 . S
H5647 C5653 0.950 . S
H5648 C5654 0.949 . S
C5649 H5644 0.950 . S
C5649 C5651 1.327 . S
C5649 C5655 1.429 . S
C5650 C5642 1.574 . S
C5650 H5645 0.949 . S
C5650 C5656 1.368 . S
C5651 C5635 1.349 . S
C5651 H5643 0.950 . S
C5651 C5649 1.327 . S
C5652 C5640 1.349 . S
C5652 H5646 0.950 . S
C5652 C5653 1.327 . S
C5653 H5647 0.950 . S
C5653 C5652 1.327 . S
C5653 C5657 1.429 . S
C5654 C5637 1.574 . S
C5654 H5648 0.949 . S
C5654 C5658 1.368 . S
C5655 C5636 1.429 . S
C5655 C5649 1.429 . S
C5655 C5656 1.523 . S
C5656 C5637 1.368 . S
C5656 C5650 1.368 . S
C5656 C5655 1.523 . S
C5657 C5641 1.429 . S
C5657 C5653 1.429 . S
C5657 C5658 1.523 . S
C5658 C5642 1.368 . S
C5658 C5654 1.368 . S
C5658 C5657 1.523 . S
H5659 C5634 0.950 . S
H5660 C5636 0.950 . S
H5661 C5637 0.949 . S
H5662 C5639 0.950 . S
H5663 C5641 0.950 . S
C5664 C5665 1.349 . S
C5664 C5666 1.327 . S
C5664 H5689 0.950 . S
C5665 C5664 1.349 . S
C5665 C5681 1.349 . S
C5666 C5664 1.327 . S
C5666 C5685 1.429 . S
C5666 H5690 0.950 . S
C5667 C5684 1.574 . S
C5667 C5686 1.368 . S
C5667 H5691 0.949 . S
H5668 C5672 0.949 . S
C5669 C5670 1.349 . S
C5669 C5671 1.327 . S
C5669 H5692 0.950 . S
C5670 C5669 1.349 . S
C5670 C5682 1.349 . S
C5671 C5669 1.327 . S
C5671 C5687 1.429 . S
C5671 H5693 0.950 . S
C5672 H5668 0.949 . S
C5672 C5680 1.574 . S
C5672 C5688 1.368 . S
H5673 C5681 0.950 . S
H5674 C5679 0.950 . S
H5675 C5680 0.949 . S
H5676 C5682 0.950 . S
H5677 C5683 0.950 . S
H5678 C5684 0.949 . S
C5679 H5674 0.950 . S
C5679 C5681 1.327 . S
C5679 C5685 1.429 . S
C5680 C5672 1.574 . S
C5680 H5675 0.949 . S
C5680 C5686 1.368 . S
C5681 C5665 1.349 . S
C5681 H5673 0.950 . S
C5681 C5679 1.327 . S
C5682 C5670 1.349 . S
C5682 H5676 0.950 . S
C5682 C5683 1.327 . S
C5683 H5677 0.950 . S
C5683 C5682 1.327 . S
C5683 C5687 1.429 . S
C5684 C5667 1.574 . S
C5684 H5678 0.949 . S
C5684 C5688 1.368 . S
C5685 C5666 1.429 . S
C5685 C5679 1.429 . S
C5685 C5686 1.523 . S
C5686 C5667 1.368 . S
C5686 C5680 1.368 . S
C5686 C5685 1.523 . S
C5687 C5671 1.429 . S
C5687 C5683 1.429 . S
C5687 C5688 1.523 . S
C5688 C5672 1.368 . S
C5688 C5684 1.368 . S
C5688 C5687 1.523 . S
H5689 C5664 0.950 . S
H5690 C5666 0.950 . S
H5691 C5667 0.949 . S
H5692 C5669 0.950 . S
H5693 C5671 0.950 . S
C5694 C5695 1.349 . S
C5694 C5696 1.327 . S
C5694 H5719 0.950 . S
C5695 C5694 1.349 . S
C5695 C5711 1.349 . S
C5696 C5694 1.327 . S
C5696 C5715 1.429 . S
C5696 H5720 0.950 . S
C5697 C5714 1.574 . S
C5697 C5716 1.368 . S
C5697 H5721 0.949 . S
H5698 C5702 0.949 . S
C5699 C5700 1.349 . S
C5699 C5701 1.327 . S
C5699 H5722 0.950 . S
C5700 C5699 1.349 . S
C5700 C5712 1.349 . S
C5701 C5699 1.327 . S
C5701 C5717 1.429 . S
C5701 H5723 0.950 . S
C5702 H5698 0.949 . S
C5702 C5710 1.574 . S
C5702 C5718 1.368 . S
H5703 C5711 0.950 . S
H5704 C5709 0.950 . S
H5705 C5710 0.949 . S
H5706 C5712 0.950 . S
H5707 C5713 0.950 . S
H5708 C5714 0.949 . S
C5709 H5704 0.950 . S
C5709 C5711 1.327 . S
C5709 C5715 1.429 . S
C5710 C5702 1.574 . S
C5710 H5705 0.949 . S
C5710 C5716 1.368 . S
C5711 C5695 1.349 . S
C5711 H5703 0.950 . S
C5711 C5709 1.327 . S
C5712 C5700 1.349 . S
C5712 H5706 0.950 . S
C5712 C5713 1.327 . S
C5713 H5707 0.950 . S
C5713 C5712 1.327 . S
C5713 C5717 1.429 . S
C5714 C5697 1.574 . S
C5714 H5708 0.949 . S
C5714 C5718 1.368 . S
C5715 C5696 1.429 . S
C5715 C5709 1.429 . S
C5715 C5716 1.523 . S
C5716 C5697 1.368 . S
C5716 C5710 1.368 . S
C5716 C5715 1.523 . S
C5717 C5701 1.429 . S
C5717 C5713 1.429 . S
C5717 C5718 1.523 . S
C5718 C5702 1.368 . S
C5718 C5714 1.368 . S
C5718 C5717 1.523 . S
H5719 C5694 0.950 . S
H5720 C5696 0.950 . S
H5721 C5697 0.949 . S
H5722 C5699 0.950 . S
H5723 C5701 0.950 . S
C5724 C5725 1.349 . S
C5724 C5726 1.327 . S
C5724 H5749 0.950 . S
C5725 C5724 1.349 . S
C5725 C5741 1.349 . S
C5726 C5724 1.327 . S
C5726 C5745 1.429 . S
C5726 H5750 0.950 . S
C5727 C5744 1.574 . S
C5727 C5746 1.368 . S
C5727 H5751 0.949 . S
H5728 C5732 0.949 . S
C5729 C5730 1.349 . S
C5729 C5731 1.327 . S
C5729 H5752 0.950 . S
C5730 C5729 1.349 . S
C5730 C5742 1.349 . S
C5731 C5729 1.327 . S
C5731 C5747 1.429 . S
C5731 H5753 0.950 . S
C5732 H5728 0.949 . S
C5732 C5740 1.574 . S
C5732 C5748 1.368 . S
H5733 C5741 0.950 . S
H5734 C5739 0.950 . S
H5735 C5740 0.949 . S
H5736 C5742 0.950 . S
H5737 C5743 0.950 . S
H5738 C5744 0.949 . S
C5739 H5734 0.950 . S
C5739 C5741 1.327 . S
C5739 C5745 1.429 . S
C5740 C5732 1.574 . S
C5740 H5735 0.949 . S
C5740 C5746 1.368 . S
C5741 C5725 1.349 . S
C5741 H5733 0.950 . S
C5741 C5739 1.327 . S
C5742 C5730 1.349 . S
C5742 H5736 0.950 . S
C5742 C5743 1.327 . S
C5743 H5737 0.950 . S
C5743 C5742 1.327 . S
C5743 C5747 1.429 . S
C5744 C5727 1.574 . S
C5744 H5738 0.949 . S
C5744 C5748 1.368 . S
C5745 C5726 1.429 . S
C5745 C5739 1.429 . S
C5745 C5746 1.523 . S
C5746 C5727 1.368 . S
C5746 C5740 1.368 . S
C5746 C5745 1.523 . S
C5747 C5731 1.429 . S
C5747 C5743 1.429 . S
C5747 C5748 1.523 . S
C5748 C5732 1.368 . S
C5748 C5744 1.368 . S
C5748 C5747 1.523 . S
H5749 C5724 0.950 . S
H5750 C5726 0.950 . S
H5751 C5727 0.949 . S
H5752 C5729 0.950 . S
H5753 C5731 0.950 . S
C5754 C5755 1.349 . S
C5754 C5756 1.327 . S
C5754 H5779 0.950 . S
C5755 C5754 1.349 . S
C5755 C5771 1.349 . S
C5756 C5754 1.327 . S
C5756 C5775 1.429 . S
C5756 H5780 0.950 . S
C5757 C5774 1.574 . S
C5757 C5776 1.368 . S
C5757 H5781 0.949 . S
H5758 C5762 0.949 . S
C5759 C5760 1.349 . S
C5759 C5761 1.327 . S
C5759 H5782 0.950 . S
C5760 C5759 1.349 . S
C5760 C5772 1.349 . S
C5761 C5759 1.327 . S
C5761 C5777 1.429 . S
C5761 H5783 0.950 . S
C5762 H5758 0.949 . S
C5762 C5770 1.574 . S
C5762 C5778 1.368 . S
H5763 C5771 0.950 . S
H5764 C5769 0.950 . S
H5765 C5770 0.949 . S
H5766 C5772 0.950 . S
H5767 C5773 0.950 . S
H5768 C5774 0.949 . S
C5769 H5764 0.950 . S
C5769 C5771 1.327 . S
C5769 C5775 1.429 . S
C5770 C5762 1.574 . S
C5770 H5765 0.949 . S
C5770 C5776 1.368 . S
C5771 C5755 1.349 . S
C5771 H5763 0.950 . S
C5771 C5769 1.327 . S
C5772 C5760 1.349 . S
C5772 H5766 0.950 . S
C5772 C5773 1.327 . S
C5773 H5767 0.950 . S
C5773 C5772 1.327 . S
C5773 C5777 1.429 . S
C5774 C5757 1.574 . S
C5774 H5768 0.949 . S
C5774 C5778 1.368 . S
C5775 C5756 1.429 . S
C5775 C5769 1.429 . S
C5775 C5776 1.523 . S
C5776 C5757 1.368 . S
C5776 C5770 1.368 . S
C5776 C5775 1.523 . S
C5777 C5761 1.429 . S
C5777 C5773 1.429 . S
C5777 C5778 1.523 . S
C5778 C5762 1.368 . S
C5778 C5774 1.368 . S
C5778 C5777 1.523 . S
H5779 C5754 0.950 . S
H5780 C5756 0.950 . S
H5781 C5757 0.949 . S
H5782 C5759 0.950 . S
H5783 C5761 0.950 . S
C5784 C5785 1.349 . S
C5784 C5786 1.327 . S
C5784 H5809 0.950 . S
C5785 C5784 1.349 . S
C5785 C5801 1.349 . S
C5786 C5784 1.327 . S
C5786 C5805 1.429 . S
C5786 H5810 0.950 . S
C5787 C5804 1.574 . S
C5787 C5806 1.368 . S
C5787 H5811 0.949 . S
H5788 C5792 0.949 . S
C5789 C5790 1.349 . S
C5789 C5791 1.327 . S
C5789 H5812 0.950 . S
C5790 C5789 1.349 . S
C5790 C5802 1.349 . S
C5791 C5789 1.327 . S
C5791 C5807 1.429 . S
C5791 H5813 0.950 . S
C5792 H5788 0.949 . S
C5792 C5800 1.574 . S
C5792 C5808 1.368 . S
H5793 C5801 0.950 . S
H5794 C5799 0.950 . S
H5795 C5800 0.949 . S
H5796 C5802 0.950 . S
H5797 C5803 0.950 . S
H5798 C5804 0.949 . S
C5799 H5794 0.950 . S
C5799 C5801 1.327 . S
C5799 C5805 1.429 . S
C5800 C5792 1.574 . S
C5800 H5795 0.949 . S
C5800 C5806 1.368 . S
C5801 C5785 1.349 . S
C5801 H5793 0.950 . S
C5801 C5799 1.327 . S
C5802 C5790 1.349 . S
C5802 H5796 0.950 . S
C5802 C5803 1.327 . S
C5803 H5797 0.950 . S
C5803 C5802 1.327 . S
C5803 C5807 1.429 . S
C5804 C5787 1.574 . S
C5804 H5798 0.949 . S
C5804 C5808 1.368 . S
C5805 C5786 1.429 . S
C5805 C5799 1.429 . S
C5805 C5806 1.523 . S
C5806 C5787 1.368 . S
C5806 C5800 1.368 . S
C5806 C5805 1.523 . S
C5807 C5791 1.429 . S
C5807 C5803 1.429 . S
C5807 C5808 1.523 . S
C5808 C5792 1.368 . S
C5808 C5804 1.368 . S
C5808 C5807 1.523 . S
H5809 C5784 0.950 . S
H5810 C5786 0.950 . S
H5811 C5787 0.949 . S
H5812 C5789 0.950 . S
H5813 C5791 0.950 . S
C5814 C5815 1.349 . S
C5814 C5816 1.327 . S
C5814 H5839 0.950 . S
C5815 C5814 1.349 . S
C5815 C5831 1.349 . S
C5816 C5814 1.327 . S
C5816 C5835 1.429 . S
C5816 H5840 0.950 . S
C5817 C5834 1.574 . S
C5817 C5836 1.368 . S
C5817 H5841 0.949 . S
H5818 C5822 0.949 . S
C5819 C5820 1.349 . S
C5819 C5821 1.327 . S
C5819 H5842 0.950 . S
C5820 C5819 1.349 . S
C5820 C5832 1.349 . S
C5821 C5819 1.327 . S
C5821 C5837 1.429 . S
C5821 H5843 0.950 . S
C5822 H5818 0.949 . S
C5822 C5830 1.574 . S
C5822 C5838 1.368 . S
H5823 C5831 0.950 . S
H5824 C5829 0.950 . S
H5825 C5830 0.949 . S
H5826 C5832 0.950 . S
H5827 C5833 0.950 . S
H5828 C5834 0.949 . S
C5829 H5824 0.950 . S
C5829 C5831 1.327 . S
C5829 C5835 1.429 . S
C5830 C5822 1.574 . S
C5830 H5825 0.949 . S
C5830 C5836 1.368 . S
C5831 C5815 1.349 . S
C5831 H5823 0.950 . S
C5831 C5829 1.327 . S
C5832 C5820 1.349 . S
C5832 H5826 0.950 . S
C5832 C5833 1.327 . S
C5833 H5827 0.950 . S
C5833 C5832 1.327 . S
C5833 C5837 1.429 . S
C5834 C5817 1.574 . S
C5834 H5828 0.949 . S
C5834 C5838 1.368 . S
C5835 C5816 1.429 . S
C5835 C5829 1.429 . S
C5835 C5836 1.523 . S
C5836 C5817 1.368 . S
C5836 C5830 1.368 . S
C5836 C5835 1.523 . S
C5837 C5821 1.429 . S
C5837 C5833 1.429 . S
C5837 C5838 1.523 . S
C5838 C5822 1.368 . S
C5838 C5834 1.368 . S
C5838 C5837 1.523 . S
H5839 C5814 0.950 . S
H5840 C5816 0.950 . S
H5841 C5817 0.949 . S
H5842 C5819 0.950 . S
H5843 C5821 0.950 . S
C5844 C5845 1.349 . S
C5844 C5846 1.327 . S
C5844 H5869 0.950 . S
C5845 C5844 1.349 . S
C5845 C5861 1.349 . S
C5846 C5844 1.327 . S
C5846 C5865 1.429 . S
C5846 H5870 0.950 . S
C5847 C5864 1.574 . S
C5847 C5866 1.368 . S
C5847 H5871 0.949 . S
H5848 C5852 0.949 . S
C5849 C5850 1.349 . S
C5849 C5851 1.327 . S
C5849 H5872 0.950 . S
C5850 C5849 1.349 . S
C5850 C5862 1.349 . S
C5851 C5849 1.327 . S
C5851 C5867 1.429 . S
C5851 H5873 0.950 . S
C5852 H5848 0.949 . S
C5852 C5860 1.574 . S
C5852 C5868 1.368 . S
H5853 C5861 0.950 . S
H5854 C5859 0.950 . S
H5855 C5860 0.949 . S
H5856 C5862 0.950 . S
H5857 C5863 0.950 . S
H5858 C5864 0.949 . S
C5859 H5854 0.950 . S
C5859 C5861 1.327 . S
C5859 C5865 1.429 . S
C5860 C5852 1.574 . S
C5860 H5855 0.949 . S
C5860 C5866 1.368 . S
C5861 C5845 1.349 . S
C5861 H5853 0.950 . S
C5861 C5859 1.327 . S
C5862 C5850 1.349 . S
C5862 H5856 0.950 . S
C5862 C5863 1.327 . S
C5863 H5857 0.950 . S
C5863 C5862 1.327 . S
C5863 C5867 1.429 . S
C5864 C5847 1.574 . S
C5864 H5858 0.949 . S
C5864 C5868 1.368 . S
C5865 C5846 1.429 . S
C5865 C5859 1.429 . S
C5865 C5866 1.523 . S
C5866 C5847 1.368 . S
C5866 C5860 1.368 . S
C5866 C5865 1.523 . S
C5867 C5851 1.429 . S
C5867 C5863 1.429 . S
C5867 C5868 1.523 . S
C5868 C5852 1.368 . S
C5868 C5864 1.368 . S
C5868 C5867 1.523 . S
H5869 C5844 0.950 . S
H5870 C5846 0.950 . S
H5871 C5847 0.949 . S
H5872 C5849 0.950 . S
H5873 C5851 0.950 . S
C5874 C5875 1.349 . S
C5874 C5876 1.327 . S
C5874 H5899 0.950 . S
C5875 C5874 1.349 . S
C5875 C5891 1.349 . S
C5876 C5874 1.327 . S
C5876 C5895 1.429 . S
C5876 H5900 0.950 . S
C5877 C5894 1.574 . S
C5877 C5896 1.368 . S
C5877 H5901 0.949 . S
H5878 C5882 0.949 . S
C5879 C5880 1.349 . S
C5879 C5881 1.327 . S
C5879 H5902 0.950 . S
C5880 C5879 1.349 . S
C5880 C5892 1.349 . S
C5881 C5879 1.327 . S
C5881 C5897 1.429 . S
C5881 H5903 0.950 . S
C5882 H5878 0.949 . S
C5882 C5890 1.574 . S
C5882 C5898 1.368 . S
H5883 C5891 0.950 . S
H5884 C5889 0.950 . S
H5885 C5890 0.949 . S
H5886 C5892 0.950 . S
H5887 C5893 0.950 . S
H5888 C5894 0.949 . S
C5889 H5884 0.950 . S
C5889 C5891 1.327 . S
C5889 C5895 1.429 . S
C5890 C5882 1.574 . S
C5890 H5885 0.949 . S
C5890 C5896 1.368 . S
C5891 C5875 1.349 . S
C5891 H5883 0.950 . S
C5891 C5889 1.327 . S
C5892 C5880 1.349 . S
C5892 H5886 0.950 . S
C5892 C5893 1.327 . S
C5893 H5887 0.950 . S
C5893 C5892 1.327 . S
C5893 C5897 1.429 . S
C5894 C5877 1.574 . S
C5894 H5888 0.949 . S
C5894 C5898 1.368 . S
C5895 C5876 1.429 . S
C5895 C5889 1.429 . S
C5895 C5896 1.523 . S
C5896 C5877 1.368 . S
C5896 C5890 1.368 . S
C5896 C5895 1.523 . S
C5897 C5881 1.429 . S
C5897 C5893 1.429 . S
C5897 C5898 1.523 . S
C5898 C5882 1.368 . S
C5898 C5894 1.368 . S
C5898 C5897 1.523 . S
H5899 C5874 0.950 . S
H5900 C5876 0.950 . S
H5901 C5877 0.949 . S
H5902 C5879 0.950 . S
H5903 C5881 0.950 . S
C5904 C5905 1.349 . S
C5904 C5906 1.327 . S
C5904 H5929 0.950 . S
C5905 C5904 1.349 . S
C5905 C5921 1.349 . S
C5906 C5904 1.327 . S
C5906 C5925 1.429 . S
C5906 H5930 0.950 . S
C5907 C5924 1.574 . S
C5907 C5926 1.368 . S
C5907 H5931 0.949 . S
H5908 C5912 0.949 . S
C5909 C5910 1.349 . S
C5909 C5911 1.327 . S
C5909 H5932 0.950 . S
C5910 C5909 1.349 . S
C5910 C5922 1.349 . S
C5911 C5909 1.327 . S
C5911 C5927 1.429 . S
C5911 H5933 0.950 . S
C5912 H5908 0.949 . S
C5912 C5920 1.574 . S
C5912 C5928 1.368 . S
H5913 C5921 0.950 . S
H5914 C5919 0.950 . S
H5915 C5920 0.949 . S
H5916 C5922 0.950 . S
H5917 C5923 0.950 . S
H5918 C5924 0.949 . S
C5919 H5914 0.950 . S
C5919 C5921 1.327 . S
C5919 C5925 1.429 . S
C5920 C5912 1.574 . S
C5920 H5915 0.949 . S
C5920 C5926 1.368 . S
C5921 C5905 1.349 . S
C5921 H5913 0.950 . S
C5921 C5919 1.327 . S
C5922 C5910 1.349 . S
C5922 H5916 0.950 . S
C5922 C5923 1.327 . S
C5923 H5917 0.950 . S
C5923 C5922 1.327 . S
C5923 C5927 1.429 . S
C5924 C5907 1.574 . S
C5924 H5918 0.949 . S
C5924 C5928 1.368 . S
C5925 C5906 1.429 . S
C5925 C5919 1.429 . S
C5925 C5926 1.523 . S
C5926 C5907 1.368 . S
C5926 C5920 1.368 . S
C5926 C5925 1.523 . S
C5927 C5911 1.429 . S
C5927 C5923 1.429 . S
C5927 C5928 1.523 . S
C5928 C5912 1.368 . S
C5928 C5924 1.368 . S
C5928 C5927 1.523 . S
H5929 C5904 0.950 . S
H5930 C5906 0.950 . S
H5931 C5907 0.949 . S
H5932 C5909 0.950 . S
H5933 C5911 0.950 . S
C5934 C5935 1.349 . S
C5934 C5936 1.327 . S
C5934 H5959 0.950 . S
C5935 C5934 1.349 . S
C5935 C5951 1.349 . S
C5936 C5934 1.327 . S
C5936 C5955 1.429 . S
C5936 H5960 0.950 . S
C5937 C5954 1.574 . S
C5937 C5956 1.368 . S
C5937 H5961 0.949 . S
H5938 C5942 0.949 . S
C5939 C5940 1.349 . S
C5939 C5941 1.327 . S
C5939 H5962 0.950 . S
C5940 C5939 1.349 . S
C5940 C5952 1.349 . S
C5941 C5939 1.327 . S
C5941 C5957 1.429 . S
C5941 H5963 0.950 . S
C5942 H5938 0.949 . S
C5942 C5950 1.574 . S
C5942 C5958 1.368 . S
H5943 C5951 0.950 . S
H5944 C5949 0.950 . S
H5945 C5950 0.949 . S
H5946 C5952 0.950 . S
H5947 C5953 0.950 . S
H5948 C5954 0.949 . S
C5949 H5944 0.950 . S
C5949 C5951 1.327 . S
C5949 C5955 1.429 . S
C5950 C5942 1.574 . S
C5950 H5945 0.949 . S
C5950 C5956 1.368 . S
C5951 C5935 1.349 . S
C5951 H5943 0.950 . S
C5951 C5949 1.327 . S
C5952 C5940 1.349 . S
C5952 H5946 0.950 . S
C5952 C5953 1.327 . S
C5953 H5947 0.950 . S
C5953 C5952 1.327 . S
C5953 C5957 1.429 . S
C5954 C5937 1.574 . S
C5954 H5948 0.949 . S
C5954 C5958 1.368 . S
C5955 C5936 1.429 . S
C5955 C5949 1.429 . S
C5955 C5956 1.523 . S
C5956 C5937 1.368 . S
C5956 C5950 1.368 . S
C5956 C5955 1.523 . S
C5957 C5941 1.429 . S
C5957 C5953 1.429 . S
C5957 C5958 1.523 . S
C5958 C5942 1.368 . S
C5958 C5954 1.368 . S
C5958 C5957 1.523 . S
H5959 C5934 0.950 . S
H5960 C5936 0.950 . S
H5961 C5937 0.949 . S
H5962 C5939 0.950 . S
H5963 C5941 0.950 . S
C5964 C5965 1.349 . S
C5964 C5966 1.327 . S
C5964 H5989 0.950 . S
C5965 C5964 1.349 . S
C5965 C5981 1.349 . S
C5966 C5964 1.327 . S
C5966 C5985 1.429 . S
C5966 H5990 0.950 . S
C5967 C5984 1.574 . S
C5967 C5986 1.368 . S
C5967 H5991 0.949 . S
H5968 C5972 0.949 . S
C5969 C5970 1.349 . S
C5969 C5971 1.327 . S
C5969 H5992 0.950 . S
C5970 C5969 1.349 . S
C5970 C5982 1.349 . S
C5971 C5969 1.327 . S
C5971 C5987 1.429 . S
C5971 H5993 0.950 . S
C5972 H5968 0.949 . S
C5972 C5980 1.574 . S
C5972 C5988 1.368 . S
H5973 C5981 0.950 . S
H5974 C5979 0.950 . S
H5975 C5980 0.949 . S
H5976 C5982 0.950 . S
H5977 C5983 0.950 . S
H5978 C5984 0.949 . S
C5979 H5974 0.950 . S
C5979 C5981 1.327 . S
C5979 C5985 1.429 . S
C5980 C5972 1.574 . S
C5980 H5975 0.949 . S
C5980 C5986 1.368 . S
C5981 C5965 1.349 . S
C5981 H5973 0.950 . S
C5981 C5979 1.327 . S
C5982 C5970 1.349 . S
C5982 H5976 0.950 . S
C5982 C5983 1.327 . S
C5983 H5977 0.950 . S
C5983 C5982 1.327 . S
C5983 C5987 1.429 . S
C5984 C5967 1.574 . S
C5984 H5978 0.949 . S
C5984 C5988 1.368 . S
C5985 C5966 1.429 . S
C5985 C5979 1.429 . S
C5985 C5986 1.523 . S
C5986 C5967 1.368 . S
C5986 C5980 1.368 . S
C5986 C5985 1.523 . S
C5987 C5971 1.429 . S
C5987 C5983 1.429 . S
C5987 C5988 1.523 . S
C5988 C5972 1.368 . S
C5988 C5984 1.368 . S
C5988 C5987 1.523 . S
H5989 C5964 0.950 . S
H5990 C5966 0.950 . S
H5991 C5967 0.949 . S
H5992 C5969 0.950 . S
H5993 C5971 0.950 . S
C5994 C5995 1.349 . S
C5994 C5996 1.327 . S
C5994 H6019 0.950 . S
C5995 C5994 1.349 . S
C5995 C6011 1.349 . S
C5996 C5994 1.327 . S
C5996 C6015 1.429 . S
C5996 H6020 0.950 . S
C5997 C6014 1.574 . S
C5997 C6016 1.368 . S
C5997 H6021 0.949 . S
H5998 C6002 0.949 . S
C5999 C6000 1.349 . S
C5999 C6001 1.327 . S
C5999 H6022 0.950 . S
C6000 C5999 1.349 . S
C6000 C6012 1.349 . S
C6001 C5999 1.327 . S
C6001 C6017 1.429 . S
C6001 H6023 0.950 . S
C6002 H5998 0.949 . S
C6002 C6010 1.574 . S
C6002 C6018 1.368 . S
H6003 C6011 0.950 . S
H6004 C6009 0.950 . S
H6005 C6010 0.949 . S
H6006 C6012 0.950 . S
H6007 C6013 0.950 . S
H6008 C6014 0.949 . S
C6009 H6004 0.950 . S
C6009 C6011 1.327 . S
C6009 C6015 1.429 . S
C6010 C6002 1.574 . S
C6010 H6005 0.949 . S
C6010 C6016 1.368 . S
C6011 C5995 1.349 . S
C6011 H6003 0.950 . S
C6011 C6009 1.327 . S
C6012 C6000 1.349 . S
C6012 H6006 0.950 . S
C6012 C6013 1.327 . S
C6013 H6007 0.950 . S
C6013 C6012 1.327 . S
C6013 C6017 1.429 . S
C6014 C5997 1.574 . S
C6014 H6008 0.949 . S
C6014 C6018 1.368 . S
C6015 C5996 1.429 . S
C6015 C6009 1.429 . S
C6015 C6016 1.523 . S
C6016 C5997 1.368 . S
C6016 C6010 1.368 . S
C6016 C6015 1.523 . S
C6017 C6001 1.429 . S
C6017 C6013 1.429 . S
C6017 C6018 1.523 . S
C6018 C6002 1.368 . S
C6018 C6014 1.368 . S
C6018 C6017 1.523 . S
H6019 C5994 0.950 . S
H6020 C5996 0.950 . S
H6021 C5997 0.949 . S
H6022 C5999 0.950 . S
H6023 C6001 0.950 . S
C6024 C6025 1.349 . S
C6024 C6026 1.327 . S
C6024 H6049 0.950 . S
C6025 C6024 1.349 . S
C6025 C6041 1.349 . S
C6026 C6024 1.327 . S
C6026 C6045 1.429 . S
C6026 H6050 0.950 . S
C6027 C6044 1.574 . S
C6027 C6046 1.368 . S
C6027 H6051 0.949 . S
H6028 C6032 0.949 . S
C6029 C6030 1.349 . S
C6029 C6031 1.327 . S
C6029 H6052 0.950 . S
C6030 C6029 1.349 . S
C6030 C6042 1.349 . S
C6031 C6029 1.327 . S
C6031 C6047 1.429 . S
C6031 H6053 0.950 . S
C6032 H6028 0.949 . S
C6032 C6040 1.574 . S
C6032 C6048 1.368 . S
H6033 C6041 0.950 . S
H6034 C6039 0.950 . S
H6035 C6040 0.949 . S
H6036 C6042 0.950 . S
H6037 C6043 0.950 . S
H6038 C6044 0.949 . S
C6039 H6034 0.950 . S
C6039 C6041 1.327 . S
C6039 C6045 1.429 . S
C6040 C6032 1.574 . S
C6040 H6035 0.949 . S
C6040 C6046 1.368 . S
C6041 C6025 1.349 . S
C6041 H6033 0.950 . S
C6041 C6039 1.327 . S
C6042 C6030 1.349 . S
C6042 H6036 0.950 . S
C6042 C6043 1.327 . S
C6043 H6037 0.950 . S
C6043 C6042 1.327 . S
C6043 C6047 1.429 . S
C6044 C6027 1.574 . S
C6044 H6038 0.949 . S
C6044 C6048 1.368 . S
C6045 C6026 1.429 . S
C6045 C6039 1.429 . S
C6045 C6046 1.523 . S
C6046 C6027 1.368 . S
C6046 C6040 1.368 . S
C6046 C6045 1.523 . S
C6047 C6031 1.429 . S
C6047 C6043 1.429 . S
C6047 C6048 1.523 . S
C6048 C6032 1.368 . S
C6048 C6044 1.368 . S
C6048 C6047 1.523 . S
H6049 C6024 0.950 . S
H6050 C6026 0.950 . S
H6051 C6027 0.949 . S
H6052 C6029 0.950 . S
H6053 C6031 0.950 . S
C6054 C6055 1.349 . S
C6054 C6056 1.327 . S
C6054 H6079 0.950 . S
C6055 C6054 1.349 . S
C6055 C6071 1.349 . S
C6056 C6054 1.327 . S
C6056 C6075 1.429 . S
C6056 H6080 0.950 . S
C6057 C6074 1.574 . S
C6057 C6076 1.368 . S
C6057 H6081 0.949 . S
H6058 C6062 0.949 . S
C6059 C6060 1.349 . S
C6059 C6061 1.327 . S
C6059 H6082 0.950 . S
C6060 C6059 1.349 . S
C6060 C6072 1.349 . S
C6061 C6059 1.327 . S
C6061 C6077 1.429 . S
C6061 H6083 0.950 . S
C6062 H6058 0.949 . S
C6062 C6070 1.574 . S
C6062 C6078 1.368 . S
H6063 C6071 0.950 . S
H6064 C6069 0.950 . S
H6065 C6070 0.949 . S
H6066 C6072 0.950 . S
H6067 C6073 0.950 . S
H6068 C6074 0.949 . S
C6069 H6064 0.950 . S
C6069 C6071 1.327 . S
C6069 C6075 1.429 . S
C6070 C6062 1.574 . S
C6070 H6065 0.949 . S
C6070 C6076 1.368 . S
C6071 C6055 1.349 . S
C6071 H6063 0.950 . S
C6071 C6069 1.327 . S
C6072 C6060 1.349 . S
C6072 H6066 0.950 . S
C6072 C6073 1.327 . S
C6073 H6067 0.950 . S
C6073 C6072 1.327 . S
C6073 C6077 1.429 . S
C6074 C6057 1.574 . S
C6074 H6068 0.949 . S
C6074 C6078 1.368 . S
C6075 C6056 1.429 . S
C6075 C6069 1.429 . S
C6075 C6076 1.523 . S
C6076 C6057 1.368 . S
C6076 C6070 1.368 . S
C6076 C6075 1.523 . S
C6077 C6061 1.429 . S
C6077 C6073 1.429 . S
C6077 C6078 1.523 . S
C6078 C6062 1.368 . S
C6078 C6074 1.368 . S
C6078 C6077 1.523 . S
H6079 C6054 0.950 . S
H6080 C6056 0.950 . S
H6081 C6057 0.949 . S
H6082 C6059 0.950 . S
H6083 C6061 0.950 . S
C6084 C6085 1.349 . S
C6084 C6086 1.327 . S
C6084 H6109 0.950 . S
C6085 C6084 1.349 . S
C6085 C6101 1.349 . S
C6086 C6084 1.327 . S
C6086 C6105 1.429 . S
C6086 H6110 0.950 . S
C6087 C6104 1.574 . S
C6087 C6106 1.368 . S
C6087 H6111 0.949 . S
H6088 C6092 0.949 . S
C6089 C6090 1.349 . S
C6089 C6091 1.327 . S
C6089 H6112 0.950 . S
C6090 C6089 1.349 . S
C6090 C6102 1.349 . S
C6091 C6089 1.327 . S
C6091 C6107 1.429 . S
C6091 H6113 0.950 . S
C6092 H6088 0.949 . S
C6092 C6100 1.574 . S
C6092 C6108 1.368 . S
H6093 C6101 0.950 . S
H6094 C6099 0.950 . S
H6095 C6100 0.949 . S
H6096 C6102 0.950 . S
H6097 C6103 0.950 . S
H6098 C6104 0.949 . S
C6099 H6094 0.950 . S
C6099 C6101 1.327 . S
C6099 C6105 1.429 . S
C6100 C6092 1.574 . S
C6100 H6095 0.949 . S
C6100 C6106 1.368 . S
C6101 C6085 1.349 . S
C6101 H6093 0.950 . S
C6101 C6099 1.327 . S
C6102 C6090 1.349 . S
C6102 H6096 0.950 . S
C6102 C6103 1.327 . S
C6103 H6097 0.950 . S
C6103 C6102 1.327 . S
C6103 C6107 1.429 . S
C6104 C6087 1.574 . S
C6104 H6098 0.949 . S
C6104 C6108 1.368 . S
C6105 C6086 1.429 . S
C6105 C6099 1.429 . S
C6105 C6106 1.523 . S
C6106 C6087 1.368 . S
C6106 C6100 1.368 . S
C6106 C6105 1.523 . S
C6107 C6091 1.429 . S
C6107 C6103 1.429 . S
C6107 C6108 1.523 . S
C6108 C6092 1.368 . S
C6108 C6104 1.368 . S
C6108 C6107 1.523 . S
H6109 C6084 0.950 . S
H6110 C6086 0.950 . S
H6111 C6087 0.949 . S
H6112 C6089 0.950 . S
H6113 C6091 0.950 . S
C6114 C6115 1.349 . S
C6114 C6116 1.327 . S
C6114 H6139 0.950 . S
C6115 C6114 1.349 . S
C6115 C6131 1.349 . S
C6116 C6114 1.327 . S
C6116 C6135 1.429 . S
C6116 H6140 0.950 . S
C6117 C6134 1.574 . S
C6117 C6136 1.368 . S
C6117 H6141 0.949 . S
H6118 C6122 0.949 . S
C6119 C6120 1.349 . S
C6119 C6121 1.327 . S
C6119 H6142 0.950 . S
C6120 C6119 1.349 . S
C6120 C6132 1.349 . S
C6121 C6119 1.327 . S
C6121 C6137 1.429 . S
C6121 H6143 0.950 . S
C6122 H6118 0.949 . S
C6122 C6130 1.574 . S
C6122 C6138 1.368 . S
H6123 C6131 0.950 . S
H6124 C6129 0.950 . S
H6125 C6130 0.949 . S
H6126 C6132 0.950 . S
H6127 C6133 0.950 . S
H6128 C6134 0.949 . S
C6129 H6124 0.950 . S
C6129 C6131 1.327 . S
C6129 C6135 1.429 . S
C6130 C6122 1.574 . S
C6130 H6125 0.949 . S
C6130 C6136 1.368 . S
C6131 C6115 1.349 . S
C6131 H6123 0.950 . S
C6131 C6129 1.327 . S
C6132 C6120 1.349 . S
C6132 H6126 0.950 . S
C6132 C6133 1.327 . S
C6133 H6127 0.950 . S
C6133 C6132 1.327 . S
C6133 C6137 1.429 . S
C6134 C6117 1.574 . S
C6134 H6128 0.949 . S
C6134 C6138 1.368 . S
C6135 C6116 1.429 . S
C6135 C6129 1.429 . S
C6135 C6136 1.523 . S
C6136 C6117 1.368 . S
C6136 C6130 1.368 . S
C6136 C6135 1.523 . S
C6137 C6121 1.429 . S
C6137 C6133 1.429 . S
C6137 C6138 1.523 . S
C6138 C6122 1.368 . S
C6138 C6134 1.368 . S
C6138 C6137 1.523 . S
H6139 C6114 0.950 . S
H6140 C6116 0.950 . S
H6141 C6117 0.949 . S
H6142 C6119 0.950 . S
H6143 C6121 0.950 . S
C6144 C6145 1.349 . S
C6144 C6146 1.327 . S
C6144 H6169 0.950 . S
C6145 C6144 1.349 . S
C6145 C6161 1.349 . S
C6146 C6144 1.327 . S
C6146 C6165 1.429 . S
C6146 H6170 0.950 . S
C6147 C6164 1.574 . S
C6147 C6166 1.368 . S
C6147 H6171 0.949 . S
H6148 C6152 0.949 . S
C6149 C6150 1.349 . S
C6149 C6151 1.327 . S
C6149 H6172 0.950 . S
C6150 C6149 1.349 . S
C6150 C6162 1.349 . S
C6151 C6149 1.327 . S
C6151 C6167 1.429 . S
C6151 H6173 0.950 . S
C6152 H6148 0.949 . S
C6152 C6160 1.574 . S
C6152 C6168 1.368 . S
H6153 C6161 0.950 . S
H6154 C6159 0.950 . S
H6155 C6160 0.949 . S
H6156 C6162 0.950 . S
H6157 C6163 0.950 . S
H6158 C6164 0.949 . S
C6159 H6154 0.950 . S
C6159 C6161 1.327 . S
C6159 C6165 1.429 . S
C6160 C6152 1.574 . S
C6160 H6155 0.949 . S
C6160 C6166 1.368 . S
C6161 C6145 1.349 . S
C6161 H6153 0.950 . S
C6161 C6159 1.327 . S
C6162 C6150 1.349 . S
C6162 H6156 0.950 . S
C6162 C6163 1.327 . S
C6163 H6157 0.950 . S
C6163 C6162 1.327 . S
C6163 C6167 1.429 . S
C6164 C6147 1.574 . S
C6164 H6158 0.949 . S
C6164 C6168 1.368 . S
C6165 C6146 1.429 . S
C6165 C6159 1.429 . S
C6165 C6166 1.523 . S
C6166 C6147 1.368 . S
C6166 C6160 1.368 . S
C6166 C6165 1.523 . S
C6167 C6151 1.429 . S
C6167 C6163 1.429 . S
C6167 C6168 1.523 . S
C6168 C6152 1.368 . S
C6168 C6164 1.368 . S
C6168 C6167 1.523 . S
H6169 C6144 0.950 . S
H6170 C6146 0.950 . S
H6171 C6147 0.949 . S
H6172 C6149 0.950 . S
H6173 C6151 0.950 . S
C6174 C6175 1.349 . S
C6174 C6176 1.327 . S
C6174 H6199 0.950 . S
C6175 C6174 1.349 . S
C6175 C6191 1.349 . S
C6176 C6174 1.327 . S
C6176 C6195 1.429 . S
C6176 H6200 0.950 . S
C6177 C6194 1.574 . S
C6177 C6196 1.368 . S
C6177 H6201 0.949 . S
H6178 C6182 0.949 . S
C6179 C6180 1.349 . S
C6179 C6181 1.327 . S
C6179 H6202 0.950 . S
C6180 C6179 1.349 . S
C6180 C6192 1.349 . S
C6181 C6179 1.327 . S
C6181 C6197 1.429 . S
C6181 H6203 0.950 . S
C6182 H6178 0.949 . S
C6182 C6190 1.574 . S
C6182 C6198 1.368 . S
H6183 C6191 0.950 . S
H6184 C6189 0.950 . S
H6185 C6190 0.949 . S
H6186 C6192 0.950 . S
H6187 C6193 0.950 . S
H6188 C6194 0.949 . S
C6189 H6184 0.950 . S
C6189 C6191 1.327 . S
C6189 C6195 1.429 . S
C6190 C6182 1.574 . S
C6190 H6185 0.949 . S
C6190 C6196 1.368 . S
C6191 C6175 1.349 . S
C6191 H6183 0.950 . S
C6191 C6189 1.327 . S
C6192 C6180 1.349 . S
C6192 H6186 0.950 . S
C6192 C6193 1.327 . S
C6193 H6187 0.950 . S
C6193 C6192 1.327 . S
C6193 C6197 1.429 . S
C6194 C6177 1.574 . S
C6194 H6188 0.949 . S
C6194 C6198 1.368 . S
C6195 C6176 1.429 . S
C6195 C6189 1.429 . S
C6195 C6196 1.523 . S
C6196 C6177 1.368 . S
C6196 C6190 1.368 . S
C6196 C6195 1.523 . S
C6197 C6181 1.429 . S
C6197 C6193 1.429 . S
C6197 C6198 1.523 . S
C6198 C6182 1.368 . S
C6198 C6194 1.368 . S
C6198 C6197 1.523 . S
H6199 C6174 0.950 . S
H6200 C6176 0.950 . S
H6201 C6177 0.949 . S
H6202 C6179 0.950 . S
H6203 C6181 0.950 . S
C6204 C6205 1.349 . S
C6204 C6206 1.327 . S
C6204 H6229 0.950 . S
C6205 C6204 1.349 . S
C6205 C6221 1.349 . S
C6206 C6204 1.327 . S
C6206 C6225 1.429 . S
C6206 H6230 0.950 . S
C6207 C6224 1.574 . S
C6207 C6226 1.368 . S
C6207 H6231 0.949 . S
H6208 C6212 0.949 . S
C6209 C6210 1.349 . S
C6209 C6211 1.327 . S
C6209 H6232 0.950 . S
C6210 C6209 1.349 . S
C6210 C6222 1.349 . S
C6211 C6209 1.327 . S
C6211 C6227 1.429 . S
C6211 H6233 0.950 . S
C6212 H6208 0.949 . S
C6212 C6220 1.574 . S
C6212 C6228 1.368 . S
H6213 C6221 0.950 . S
H6214 C6219 0.950 . S
H6215 C6220 0.949 . S
H6216 C6222 0.950 . S
H6217 C6223 0.950 . S
H6218 C6224 0.949 . S
C6219 H6214 0.950 . S
C6219 C6221 1.327 . S
C6219 C6225 1.429 . S
C6220 C6212 1.574 . S
C6220 H6215 0.949 . S
C6220 C6226 1.368 . S
C6221 C6205 1.349 . S
C6221 H6213 0.950 . S
C6221 C6219 1.327 . S
C6222 C6210 1.349 . S
C6222 H6216 0.950 . S
C6222 C6223 1.327 . S
C6223 H6217 0.950 . S
C6223 C6222 1.327 . S
C6223 C6227 1.429 . S
C6224 C6207 1.574 . S
C6224 H6218 0.949 . S
C6224 C6228 1.368 . S
C6225 C6206 1.429 . S
C6225 C6219 1.429 . S
C6225 C6226 1.523 . S
C6226 C6207 1.368 . S
C6226 C6220 1.368 . S
C6226 C6225 1.523 . S
C6227 C6211 1.429 . S
C6227 C6223 1.429 . S
C6227 C6228 1.523 . S
C6228 C6212 1.368 . S
C6228 C6224 1.368 . S
C6228 C6227 1.523 . S
H6229 C6204 0.950 . S
H6230 C6206 0.950 . S
H6231 C6207 0.949 . S
H6232 C6209 0.950 . S
H6233 C6211 0.950 . S
C6234 C6235 1.349 . S
C6234 C6236 1.327 . S
C6234 H6259 0.950 . S
C6235 C6234 1.349 . S
C6235 C6251 1.349 . S
C6236 C6234 1.327 . S
C6236 C6255 1.429 . S
C6236 H6260 0.950 . S
C6237 C6254 1.574 . S
C6237 C6256 1.368 . S
C6237 H6261 0.949 . S
H6238 C6242 0.949 . S
C6239 C6240 1.349 . S
C6239 C6241 1.327 . S
C6239 H6262 0.950 . S
C6240 C6239 1.349 . S
C6240 C6252 1.349 . S
C6241 C6239 1.327 . S
C6241 C6257 1.429 . S
C6241 H6263 0.950 . S
C6242 H6238 0.949 . S
C6242 C6250 1.574 . S
C6242 C6258 1.368 . S
H6243 C6251 0.950 . S
H6244 C6249 0.950 . S
H6245 C6250 0.949 . S
H6246 C6252 0.950 . S
H6247 C6253 0.950 . S
H6248 C6254 0.949 . S
C6249 H6244 0.950 . S
C6249 C6251 1.327 . S
C6249 C6255 1.429 . S
C6250 C6242 1.574 . S
C6250 H6245 0.949 . S
C6250 C6256 1.368 . S
C6251 C6235 1.349 . S
C6251 H6243 0.950 . S
C6251 C6249 1.327 . S
C6252 C6240 1.349 . S
C6252 H6246 0.950 . S
C6252 C6253 1.327 . S
C6253 H6247 0.950 . S
C6253 C6252 1.327 . S
C6253 C6257 1.429 . S
C6254 C6237 1.574 . S
C6254 H6248 0.949 . S
C6254 C6258 1.368 . S
C6255 C6236 1.429 . S
C6255 C6249 1.429 . S
C6255 C6256 1.523 . S
C6256 C6237 1.368 . S
C6256 C6250 1.368 . S
C6256 C6255 1.523 . S
C6257 C6241 1.429 . S
C6257 C6253 1.429 . S
C6257 C6258 1.523 . S
C6258 C6242 1.368 . S
C6258 C6254 1.368 . S
C6258 C6257 1.523 . S
H6259 C6234 0.950 . S
H6260 C6236 0.950 . S
H6261 C6237 0.949 . S
H6262 C6239 0.950 . S
H6263 C6241 0.950 . S
C6264 C6265 1.349 . S
C6264 C6266 1.327 . S
C6264 H6289 0.950 . S
C6265 C6264 1.349 . S
C6265 C6281 1.349 . S
C6266 C6264 1.327 . S
C6266 C6285 1.429 . S
C6266 H6290 0.950 . S
C6267 C6284 1.574 . S
C6267 C6286 1.368 . S
C6267 H6291 0.949 . S
H6268 C6272 0.949 . S
C6269 C6270 1.349 . S
C6269 C6271 1.327 . S
C6269 H6292 0.950 . S
C6270 C6269 1.349 . S
C6270 C6282 1.349 . S
C6271 C6269 1.327 . S
C6271 C6287 1.429 . S
C6271 H6293 0.950 . S
C6272 H6268 0.949 . S
C6272 C6280 1.574 . S
C6272 C6288 1.368 . S
H6273 C6281 0.950 . S
H6274 C6279 0.950 . S
H6275 C6280 0.949 . S
H6276 C6282 0.950 . S
H6277 C6283 0.950 . S
H6278 C6284 0.949 . S
C6279 H6274 0.950 . S
C6279 C6281 1.327 . S
C6279 C6285 1.429 . S
C6280 C6272 1.574 . S
C6280 H6275 0.949 . S
C6280 C6286 1.368 . S
C6281 C6265 1.349 . S
C6281 H6273 0.950 . S
C6281 C6279 1.327 . S
C6282 C6270 1.349 . S
C6282 H6276 0.950 . S
C6282 C6283 1.327 . S
C6283 H6277 0.950 . S
C6283 C6282 1.327 . S
C6283 C6287 1.429 . S
C6284 C6267 1.574 . S
C6284 H6278 0.949 . S
C6284 C6288 1.368 . S
C6285 C6266 1.429 . S
C6285 C6279 1.429 . S
C6285 C6286 1.523 . S
C6286 C6267 1.368 . S
C6286 C6280 1.368 . S
C6286 C6285 1.523 . S
C6287 C6271 1.429 . S
C6287 C6283 1.429 . S
C6287 C6288 1.523 . S
C6288 C6272 1.368 . S
C6288 C6284 1.368 . S
C6288 C6287 1.523 . S
H6289 C6264 0.950 . S
H6290 C6266 0.950 . S
H6291 C6267 0.949 . S
H6292 C6269 0.950 . S
H6293 C6271 0.950 . S
C6294 C6295 1.349 . S
C6294 C6296 1.327 . S
C6294 H6319 0.950 . S
C6295 C6294 1.349 . S
C6295 C6311 1.349 . S
C6296 C6294 1.327 . S
C6296 C6315 1.429 . S
C6296 H6320 0.950 . S
C6297 C6314 1.574 . S
C6297 C6316 1.368 . S
C6297 H6321 0.949 . S
H6298 C6302 0.949 . S
C6299 C6300 1.349 . S
C6299 C6301 1.327 . S
C6299 H6322 0.950 . S
C6300 C6299 1.349 . S
C6300 C6312 1.349 . S
C6301 C6299 1.327 . S
C6301 C6317 1.429 . S
C6301 H6323 0.950 . S
C6302 H6298 0.949 . S
C6302 C6310 1.574 . S
C6302 C6318 1.368 . S
H6303 C6311 0.950 . S
H6304 C6309 0.950 . S
H6305 C6310 0.949 . S
H6306 C6312 0.950 . S
H6307 C6313 0.950 . S
H6308 C6314 0.949 . S
C6309 H6304 0.950 . S
C6309 C6311 1.327 . S
C6309 C6315 1.429 . S
C6310 C6302 1.574 . S
C6310 H6305 0.949 . S
C6310 C6316 1.368 . S
C6311 C6295 1.349 . S
C6311 H6303 0.950 . S
C6311 C6309 1.327 . S
C6312 C6300 1.349 . S
C6312 H6306 0.950 . S
C6312 C6313 1.327 . S
C6313 H6307 0.950 . S
C6313 C6312 1.327 . S
C6313 C6317 1.429 . S
C6314 C6297 1.574 . S
C6314 H6308 0.949 . S
C6314 C6318 1.368 . S
C6315 C6296 1.429 . S
C6315 C6309 1.429 . S
C6315 C6316 1.523 . S
C6316 C6297 1.368 . S
C6316 C6310 1.368 . S
C6316 C6315 1.523 . S
C6317 C6301 1.429 . S
C6317 C6313 1.429 . S
C6317 C6318 1.523 . S
C6318 C6302 1.368 . S
C6318 C6314 1.368 . S
C6318 C6317 1.523 . S
H6319 C6294 0.950 . S
H6320 C6296 0.950 . S
H6321 C6297 0.949 . S
H6322 C6299 0.950 . S
H6323 C6301 0.950 . S
C6324 C6325 1.349 . S
C6324 C6326 1.327 . S
C6324 H6349 0.950 . S
C6325 C6324 1.349 . S
C6325 C6341 1.349 . S
C6326 C6324 1.327 . S
C6326 C6345 1.429 . S
C6326 H6350 0.950 . S
C6327 C6344 1.574 . S
C6327 C6346 1.368 . S
C6327 H6351 0.949 . S
H6328 C6332 0.949 . S
C6329 C6330 1.349 . S
C6329 C6331 1.327 . S
C6329 H6352 0.950 . S
C6330 C6329 1.349 . S
C6330 C6342 1.349 . S
C6331 C6329 1.327 . S
C6331 C6347 1.429 . S
C6331 H6353 0.950 . S
C6332 H6328 0.949 . S
C6332 C6340 1.574 . S
C6332 C6348 1.368 . S
H6333 C6341 0.950 . S
H6334 C6339 0.950 . S
H6335 C6340 0.949 . S
H6336 C6342 0.950 . S
H6337 C6343 0.950 . S
H6338 C6344 0.949 . S
C6339 H6334 0.950 . S
C6339 C6341 1.327 . S
C6339 C6345 1.429 . S
C6340 C6332 1.574 . S
C6340 H6335 0.949 . S
C6340 C6346 1.368 . S
C6341 C6325 1.349 . S
C6341 H6333 0.950 . S
C6341 C6339 1.327 . S
C6342 C6330 1.349 . S
C6342 H6336 0.950 . S
C6342 C6343 1.327 . S
C6343 H6337 0.950 . S
C6343 C6342 1.327 . S
C6343 C6347 1.429 . S
C6344 C6327 1.574 . S
C6344 H6338 0.949 . S
C6344 C6348 1.368 . S
C6345 C6326 1.429 . S
C6345 C6339 1.429 . S
C6345 C6346 1.523 . S
C6346 C6327 1.368 . S
C6346 C6340 1.368 . S
C6346 C6345 1.523 . S
C6347 C6331 1.429 . S
C6347 C6343 1.429 . S
C6347 C6348 1.523 . S
C6348 C6332 1.368 . S
C6348 C6344 1.368 . S
C6348 C6347 1.523 . S
H6349 C6324 0.950 . S
H6350 C6326 0.950 . S
H6351 C6327 0.949 . S
H6352 C6329 0.950 . S
H6353 C6331 0.950 . S
C6354 C6355 1.349 . S
C6354 C6356 1.327 . S
C6354 H6379 0.950 . S
C6355 C6354 1.349 . S
C6355 C6371 1.349 . S
C6356 C6354 1.327 . S
C6356 C6375 1.429 . S
C6356 H6380 0.950 . S
C6357 C6374 1.574 . S
C6357 C6376 1.368 . S
C6357 H6381 0.949 . S
H6358 C6362 0.949 . S
C6359 C6360 1.349 . S
C6359 C6361 1.327 . S
C6359 H6382 0.950 . S
C6360 C6359 1.349 . S
C6360 C6372 1.349 . S
C6361 C6359 1.327 . S
C6361 C6377 1.429 . S
C6361 H6383 0.950 . S
C6362 H6358 0.949 . S
C6362 C6370 1.574 . S
C6362 C6378 1.368 . S
H6363 C6371 0.950 . S
H6364 C6369 0.950 . S
H6365 C6370 0.949 . S
H6366 C6372 0.950 . S
H6367 C6373 0.950 . S
H6368 C6374 0.949 . S
C6369 H6364 0.950 . S
C6369 C6371 1.327 . S
C6369 C6375 1.429 . S
C6370 C6362 1.574 . S
C6370 H6365 0.949 . S
C6370 C6376 1.368 . S
C6371 C6355 1.349 . S
C6371 H6363 0.950 . S
C6371 C6369 1.327 . S
C6372 C6360 1.349 . S
C6372 H6366 0.950 . S
C6372 C6373 1.327 . S
C6373 H6367 0.950 . S
C6373 C6372 1.327 . S
C6373 C6377 1.429 . S
C6374 C6357 1.574 . S
C6374 H6368 0.949 . S
C6374 C6378 1.368 . S
C6375 C6356 1.429 . S
C6375 C6369 1.429 . S
C6375 C6376 1.523 . S
C6376 C6357 1.368 . S
C6376 C6370 1.368 . S
C6376 C6375 1.523 . S
C6377 C6361 1.429 . S
C6377 C6373 1.429 . S
C6377 C6378 1.523 . S
C6378 C6362 1.368 . S
C6378 C6374 1.368 . S
C6378 C6377 1.523 . S
H6379 C6354 0.950 . S
H6380 C6356 0.950 . S
H6381 C6357 0.949 . S
H6382 C6359 0.950 . S
H6383 C6361 0.950 . S
C6384 C6385 1.349 . S
C6384 C6386 1.327 . S
C6384 H6409 0.950 . S
C6385 C6384 1.349 . S
C6385 C6401 1.349 . S
C6386 C6384 1.327 . S
C6386 C6405 1.429 . S
C6386 H6410 0.950 . S
C6387 C6404 1.574 . S
C6387 C6406 1.368 . S
C6387 H6411 0.949 . S
H6388 C6392 0.949 . S
C6389 C6390 1.349 . S
C6389 C6391 1.327 . S
C6389 H6412 0.950 . S
C6390 C6389 1.349 . S
C6390 C6402 1.349 . S
C6391 C6389 1.327 . S
C6391 C6407 1.429 . S
C6391 H6413 0.950 . S
C6392 H6388 0.949 . S
C6392 C6400 1.574 . S
C6392 C6408 1.368 . S
H6393 C6401 0.950 . S
H6394 C6399 0.950 . S
H6395 C6400 0.949 . S
H6396 C6402 0.950 . S
H6397 C6403 0.950 . S
H6398 C6404 0.949 . S
C6399 H6394 0.950 . S
C6399 C6401 1.327 . S
C6399 C6405 1.429 . S
C6400 C6392 1.574 . S
C6400 H6395 0.949 . S
C6400 C6406 1.368 . S
C6401 C6385 1.349 . S
C6401 H6393 0.950 . S
C6401 C6399 1.327 . S
C6402 C6390 1.349 . S
C6402 H6396 0.950 . S
C6402 C6403 1.327 . S
C6403 H6397 0.950 . S
C6403 C6402 1.327 . S
C6403 C6407 1.429 . S
C6404 C6387 1.574 . S
C6404 H6398 0.949 . S
C6404 C6408 1.368 . S
C6405 C6386 1.429 . S
C6405 C6399 1.429 . S
C6405 C6406 1.523 . S
C6406 C6387 1.368 . S
C6406 C6400 1.368 . S
C6406 C6405 1.523 . S
C6407 C6391 1.429 . S
C6407 C6403 1.429 . S
C6407 C6408 1.523 . S
C6408 C6392 1.368 . S
C6408 C6404 1.368 . S
C6408 C6407 1.523 . S
H6409 C6384 0.950 . S
H6410 C6386 0.950 . S
H6411 C6387 0.949 . S
H6412 C6389 0.950 . S
H6413 C6391 0.950 . S
C6414 C6415 1.349 . S
C6414 C6416 1.327 . S
C6414 H6439 0.950 . S
C6415 C6414 1.349 . S
C6415 C6431 1.349 . S
C6416 C6414 1.327 . S
C6416 C6435 1.429 . S
C6416 H6440 0.950 . S
C6417 C6434 1.574 . S
C6417 C6436 1.368 . S
C6417 H6441 0.949 . S
H6418 C6422 0.949 . S
C6419 C6420 1.349 . S
C6419 C6421 1.327 . S
C6419 H6442 0.950 . S
C6420 C6419 1.349 . S
C6420 C6432 1.349 . S
C6421 C6419 1.327 . S
C6421 C6437 1.429 . S
C6421 H6443 0.950 . S
C6422 H6418 0.949 . S
C6422 C6430 1.574 . S
C6422 C6438 1.368 . S
H6423 C6431 0.950 . S
H6424 C6429 0.950 . S
H6425 C6430 0.949 . S
H6426 C6432 0.950 . S
H6427 C6433 0.950 . S
H6428 C6434 0.949 . S
C6429 H6424 0.950 . S
C6429 C6431 1.327 . S
C6429 C6435 1.429 . S
C6430 C6422 1.574 . S
C6430 H6425 0.949 . S
C6430 C6436 1.368 . S
C6431 C6415 1.349 . S
C6431 H6423 0.950 . S
C6431 C6429 1.327 . S
C6432 C6420 1.349 . S
C6432 H6426 0.950 . S
C6432 C6433 1.327 . S
C6433 H6427 0.950 . S
C6433 C6432 1.327 . S
C6433 C6437 1.429 . S
C6434 C6417 1.574 . S
C6434 H6428 0.949 . S
C6434 C6438 1.368 . S
C6435 C6416 1.429 . S
C6435 C6429 1.429 . S
C6435 C6436 1.523 . S
C6436 C6417 1.368 . S
C6436 C6430 1.368 . S
C6436 C6435 1.523 . S
C6437 C6421 1.429 . S
C6437 C6433 1.429 . S
C6437 C6438 1.523 . S
C6438 C6422 1.368 . S
C6438 C6434 1.368 . S
C6438 C6437 1.523 . S
H6439 C6414 0.950 . S
H6440 C6416 0.950 . S
H6441 C6417 0.949 . S
H6442 C6419 0.950 . S
H6443 C6421 0.950 . S
C6444 C6445 1.349 . S
C6444 C6446 1.327 . S
C6444 H6469 0.950 . S
C6445 C6444 1.349 . S
C6445 C6461 1.349 . S
C6446 C6444 1.327 . S
C6446 C6465 1.429 . S
C6446 H6470 0.950 . S
C6447 C6464 1.574 . S
C6447 C6466 1.368 . S
C6447 H6471 0.949 . S
H6448 C6452 0.949 . S
C6449 C6450 1.349 . S
C6449 C6451 1.327 . S
C6449 H6472 0.950 . S
C6450 C6449 1.349 . S
C6450 C6462 1.349 . S
C6451 C6449 1.327 . S
C6451 C6467 1.429 . S
C6451 H6473 0.950 . S
C6452 H6448 0.949 . S
C6452 C6460 1.574 . S
C6452 C6468 1.368 . S
H6453 C6461 0.950 . S
H6454 C6459 0.950 . S
H6455 C6460 0.949 . S
H6456 C6462 0.950 . S
H6457 C6463 0.950 . S
H6458 C6464 0.949 . S
C6459 H6454 0.950 . S
C6459 C6461 1.327 . S
C6459 C6465 1.429 . S
C6460 C6452 1.574 . S
C6460 H6455 0.949 . S
C6460 C6466 1.368 . S
C6461 C6445 1.349 . S
C6461 H6453 0.950 . S
C6461 C6459 1.327 . S
C6462 C6450 1.349 . S
C6462 H6456 0.950 . S
C6462 C6463 1.327 . S
C6463 H6457 0.950 . S
C6463 C6462 1.327 . S
C6463 C6467 1.429 . S
C6464 C6447 1.574 . S
C6464 H6458 0.949 . S
C6464 C6468 1.368 . S
C6465 C6446 1.429 . S
C6465 C6459 1.429 . S
C6465 C6466 1.523 . S
C6466 C6447 1.368 . S
C6466 C6460 1.368 . S
C6466 C6465 1.523 . S
C6467 C6451 1.429 . S
C6467 C6463 1.429 . S
C6467 C6468 1.523 . S
C6468 C6452 1.368 . S
C6468 C6464 1.368 . S
C6468 C6467 1.523 . S
H6469 C6444 0.950 . S
H6470 C6446 0.950 . S
H6471 C6447 0.949 . S
H6472 C6449 0.950 . S
H6473 C6451 0.950 . S
C6474 C6475 1.349 . S
C6474 C6476 1.327 . S
C6474 H6499 0.950 . S
C6475 C6474 1.349 . S
C6475 C6491 1.349 . S
C6476 C6474 1.327 . S
C6476 C6495 1.429 . S
C6476 H6500 0.950 . S
C6477 C6494 1.574 . S
C6477 C6496 1.368 . S
C6477 H6501 0.949 . S
H6478 C6482 0.949 . S
C6479 C6480 1.349 . S
C6479 C6481 1.327 . S
C6479 H6502 0.950 . S
C6480 C6479 1.349 . S
C6480 C6492 1.349 . S
C6481 C6479 1.327 . S
C6481 C6497 1.429 . S
C6481 H6503 0.950 . S
C6482 H6478 0.949 . S
C6482 C6490 1.574 . S
C6482 C6498 1.368 . S
H6483 C6491 0.950 . S
H6484 C6489 0.950 . S
H6485 C6490 0.949 . S
H6486 C6492 0.950 . S
H6487 C6493 0.950 . S
H6488 C6494 0.949 . S
C6489 H6484 0.950 . S
C6489 C6491 1.327 . S
C6489 C6495 1.429 . S
C6490 C6482 1.574 . S
C6490 H6485 0.949 . S
C6490 C6496 1.368 . S
C6491 C6475 1.349 . S
C6491 H6483 0.950 . S
C6491 C6489 1.327 . S
C6492 C6480 1.349 . S
C6492 H6486 0.950 . S
C6492 C6493 1.327 . S
C6493 H6487 0.950 . S
C6493 C6492 1.327 . S
C6493 C6497 1.429 . S
C6494 C6477 1.574 . S
C6494 H6488 0.949 . S
C6494 C6498 1.368 . S
C6495 C6476 1.429 . S
C6495 C6489 1.429 . S
C6495 C6496 1.523 . S
C6496 C6477 1.368 . S
C6496 C6490 1.368 . S
C6496 C6495 1.523 . S
C6497 C6481 1.429 . S
C6497 C6493 1.429 . S
C6497 C6498 1.523 . S
C6498 C6482 1.368 . S
C6498 C6494 1.368 . S
C6498 C6497 1.523 . S
H6499 C6474 0.950 . S
H6500 C6476 0.950 . S
H6501 C6477 0.949 . S
H6502 C6479 0.950 . S
H6503 C6481 0.950 . S
C6504 C6505 1.349 . S
C6504 C6506 1.327 . S
C6504 H6529 0.950 . S
C6505 C6504 1.349 . S
C6505 C6521 1.349 . S
C6506 C6504 1.327 . S
C6506 C6525 1.429 . S
C6506 H6530 0.950 . S
C6507 C6524 1.574 . S
C6507 C6526 1.368 . S
C6507 H6531 0.949 . S
H6508 C6512 0.949 . S
C6509 C6510 1.349 . S
C6509 C6511 1.327 . S
C6509 H6532 0.950 . S
C6510 C6509 1.349 . S
C6510 C6522 1.349 . S
C6511 C6509 1.327 . S
C6511 C6527 1.429 . S
C6511 H6533 0.950 . S
C6512 H6508 0.949 . S
C6512 C6520 1.574 . S
C6512 C6528 1.368 . S
H6513 C6521 0.950 . S
H6514 C6519 0.950 . S
H6515 C6520 0.949 . S
H6516 C6522 0.950 . S
H6517 C6523 0.950 . S
H6518 C6524 0.949 . S
C6519 H6514 0.950 . S
C6519 C6521 1.327 . S
C6519 C6525 1.429 . S
C6520 C6512 1.574 . S
C6520 H6515 0.949 . S
C6520 C6526 1.368 . S
C6521 C6505 1.349 . S
C6521 H6513 0.950 . S
C6521 C6519 1.327 . S
C6522 C6510 1.349 . S
C6522 H6516 0.950 . S
C6522 C6523 1.327 . S
C6523 H6517 0.950 . S
C6523 C6522 1.327 . S
C6523 C6527 1.429 . S
C6524 C6507 1.574 . S
C6524 H6518 0.949 . S
C6524 C6528 1.368 . S
C6525 C6506 1.429 . S
C6525 C6519 1.429 . S
C6525 C6526 1.523 . S
C6526 C6507 1.368 . S
C6526 C6520 1.368 . S
C6526 C6525 1.523 . S
C6527 C6511 1.429 . S
C6527 C6523 1.429 . S
C6527 C6528 1.523 . S
C6528 C6512 1.368 . S
C6528 C6524 1.368 . S
C6528 C6527 1.523 . S
H6529 C6504 0.950 . S
H6530 C6506 0.950 . S
H6531 C6507 0.949 . S
H6532 C6509 0.950 . S
H6533 C6511 0.950 . S
C6534 C6535 1.349 . S
C6534 C6536 1.327 . S
C6534 H6559 0.950 . S
C6535 C6534 1.349 . S
C6535 C6551 1.349 . S
C6536 C6534 1.327 . S
C6536 C6555 1.429 . S
C6536 H6560 0.950 . S
C6537 C6554 1.574 . S
C6537 C6556 1.368 . S
C6537 H6561 0.949 . S
H6538 C6542 0.949 . S
C6539 C6540 1.349 . S
C6539 C6541 1.327 . S
C6539 H6562 0.950 . S
C6540 C6539 1.349 . S
C6540 C6552 1.349 . S
C6541 C6539 1.327 . S
C6541 C6557 1.429 . S
C6541 H6563 0.950 . S
C6542 H6538 0.949 . S
C6542 C6550 1.574 . S
C6542 C6558 1.368 . S
H6543 C6551 0.950 . S
H6544 C6549 0.950 . S
H6545 C6550 0.949 . S
H6546 C6552 0.950 . S
H6547 C6553 0.950 . S
H6548 C6554 0.949 . S
C6549 H6544 0.950 . S
C6549 C6551 1.327 . S
C6549 C6555 1.429 . S
C6550 C6542 1.574 . S
C6550 H6545 0.949 . S
C6550 C6556 1.368 . S
C6551 C6535 1.349 . S
C6551 H6543 0.950 . S
C6551 C6549 1.327 . S
C6552 C6540 1.349 . S
C6552 H6546 0.950 . S
C6552 C6553 1.327 . S
C6553 H6547 0.950 . S
C6553 C6552 1.327 . S
C6553 C6557 1.429 . S
C6554 C6537 1.574 . S
C6554 H6548 0.949 . S
C6554 C6558 1.368 . S
C6555 C6536 1.429 . S
C6555 C6549 1.429 . S
C6555 C6556 1.523 . S
C6556 C6537 1.368 . S
C6556 C6550 1.368 . S
C6556 C6555 1.523 . S
C6557 C6541 1.429 . S
C6557 C6553 1.429 . S
C6557 C6558 1.523 . S
C6558 C6542 1.368 . S
C6558 C6554 1.368 . S
C6558 C6557 1.523 . S
H6559 C6534 0.950 . S
H6560 C6536 0.950 . S
H6561 C6537 0.949 . S
H6562 C6539 0.950 . S
H6563 C6541 0.950 . S
C6564 C6565 1.349 . S
C6564 C6566 1.327 . S
C6564 H6589 0.950 . S
C6565 C6564 1.349 . S
C6565 C6581 1.349 . S
C6566 C6564 1.327 . S
C6566 C6585 1.429 . S
C6566 H6590 0.950 . S
C6567 C6584 1.574 . S
C6567 C6586 1.368 . S
C6567 H6591 0.949 . S
H6568 C6572 0.949 . S
C6569 C6570 1.349 . S
C6569 C6571 1.327 . S
C6569 H6592 0.950 . S
C6570 C6569 1.349 . S
C6570 C6582 1.349 . S
C6571 C6569 1.327 . S
C6571 C6587 1.429 . S
C6571 H6593 0.950 . S
C6572 H6568 0.949 . S
C6572 C6580 1.574 . S
C6572 C6588 1.368 . S
H6573 C6581 0.950 . S
H6574 C6579 0.950 . S
H6575 C6580 0.949 . S
H6576 C6582 0.950 . S
H6577 C6583 0.950 . S
H6578 C6584 0.949 . S
C6579 H6574 0.950 . S
C6579 C6581 1.327 . S
C6579 C6585 1.429 . S
C6580 C6572 1.574 . S
C6580 H6575 0.949 . S
C6580 C6586 1.368 . S
C6581 C6565 1.349 . S
C6581 H6573 0.950 . S
C6581 C6579 1.327 . S
C6582 C6570 1.349 . S
C6582 H6576 0.950 . S
C6582 C6583 1.327 . S
C6583 H6577 0.950 . S
C6583 C6582 1.327 . S
C6583 C6587 1.429 . S
C6584 C6567 1.574 . S
C6584 H6578 0.949 . S
C6584 C6588 1.368 . S
C6585 C6566 1.429 . S
C6585 C6579 1.429 . S
C6585 C6586 1.523 . S
C6586 C6567 1.368 . S
C6586 C6580 1.368 . S
C6586 C6585 1.523 . S
C6587 C6571 1.429 . S
C6587 C6583 1.429 . S
C6587 C6588 1.523 . S
C6588 C6572 1.368 . S
C6588 C6584 1.368 . S
C6588 C6587 1.523 . S
H6589 C6564 0.950 . S
H6590 C6566 0.950 . S
H6591 C6567 0.949 . S
H6592 C6569 0.950 . S
H6593 C6571 0.950 . S
C6594 C6595 1.349 . S
C6594 C6596 1.327 . S
C6594 H6619 0.950 . S
C6595 C6594 1.349 . S
C6595 C6611 1.349 . S
C6596 C6594 1.327 . S
C6596 C6615 1.429 . S
C6596 H6620 0.950 . S
C6597 C6614 1.574 . S
C6597 C6616 1.368 . S
C6597 H6621 0.949 . S
H6598 C6602 0.949 . S
C6599 C6600 1.349 . S
C6599 C6601 1.327 . S
C6599 H6622 0.950 . S
C6600 C6599 1.349 . S
C6600 C6612 1.349 . S
C6601 C6599 1.327 . S
C6601 C6617 1.429 . S
C6601 H6623 0.950 . S
C6602 H6598 0.949 . S
C6602 C6610 1.574 . S
C6602 C6618 1.368 . S
H6603 C6611 0.950 . S
H6604 C6609 0.950 . S
H6605 C6610 0.949 . S
H6606 C6612 0.950 . S
H6607 C6613 0.950 . S
H6608 C6614 0.949 . S
C6609 H6604 0.950 . S
C6609 C6611 1.327 . S
C6609 C6615 1.429 . S
C6610 C6602 1.574 . S
C6610 H6605 0.949 . S
C6610 C6616 1.368 . S
C6611 C6595 1.349 . S
C6611 H6603 0.950 . S
C6611 C6609 1.327 . S
C6612 C6600 1.349 . S
C6612 H6606 0.950 . S
C6612 C6613 1.327 . S
C6613 H6607 0.950 . S
C6613 C6612 1.327 . S
C6613 C6617 1.429 . S
C6614 C6597 1.574 . S
C6614 H6608 0.949 . S
C6614 C6618 1.368 . S
C6615 C6596 1.429 . S
C6615 C6609 1.429 . S
C6615 C6616 1.523 . S
C6616 C6597 1.368 . S
C6616 C6610 1.368 . S
C6616 C6615 1.523 . S
C6617 C6601 1.429 . S
C6617 C6613 1.429 . S
C6617 C6618 1.523 . S
C6618 C6602 1.368 . S
C6618 C6614 1.368 . S
C6618 C6617 1.523 . S
H6619 C6594 0.950 . S
H6620 C6596 0.950 . S
H6621 C6597 0.949 . S
H6622 C6599 0.950 . S
H6623 C6601 0.950 . S
C6624 C6625 1.349 . S
C6624 C6626 1.327 . S
C6624 H6649 0.950 . S
C6625 C6624 1.349 . S
C6625 C6641 1.349 . S
C6626 C6624 1.327 . S
C6626 C6645 1.429 . S
C6626 H6650 0.950 . S
C6627 C6644 1.574 . S
C6627 C6646 1.368 . S
C6627 H6651 0.949 . S
H6628 C6632 0.949 . S
C6629 C6630 1.349 . S
C6629 C6631 1.327 . S
C6629 H6652 0.950 . S
C6630 C6629 1.349 . S
C6630 C6642 1.349 . S
C6631 C6629 1.327 . S
C6631 C6647 1.429 . S
C6631 H6653 0.950 . S
C6632 H6628 0.949 . S
C6632 C6640 1.574 . S
C6632 C6648 1.368 . S
H6633 C6641 0.950 . S
H6634 C6639 0.950 . S
H6635 C6640 0.949 . S
H6636 C6642 0.950 . S
H6637 C6643 0.950 . S
H6638 C6644 0.949 . S
C6639 H6634 0.950 . S
C6639 C6641 1.327 . S
C6639 C6645 1.429 . S
C6640 C6632 1.574 . S
C6640 H6635 0.949 . S
C6640 C6646 1.368 . S
C6641 C6625 1.349 . S
C6641 H6633 0.950 . S
C6641 C6639 1.327 . S
C6642 C6630 1.349 . S
C6642 H6636 0.950 . S
C6642 C6643 1.327 . S
C6643 H6637 0.950 . S
C6643 C6642 1.327 . S
C6643 C6647 1.429 . S
C6644 C6627 1.574 . S
C6644 H6638 0.949 . S
C6644 C6648 1.368 . S
C6645 C6626 1.429 . S
C6645 C6639 1.429 . S
C6645 C6646 1.523 . S
C6646 C6627 1.368 . S
C6646 C6640 1.368 . S
C6646 C6645 1.523 . S
C6647 C6631 1.429 . S
C6647 C6643 1.429 . S
C6647 C6648 1.523 . S
C6648 C6632 1.368 . S
C6648 C6644 1.368 . S
C6648 C6647 1.523 . S
H6649 C6624 0.950 . S
H6650 C6626 0.950 . S
H6651 C6627 0.949 . S
H6652 C6629 0.950 . S
H6653 C6631 0.950 . S
C6654 C6655 1.349 . S
C6654 C6656 1.327 . S
C6654 H6679 0.950 . S
C6655 C6654 1.349 . S
C6655 C6671 1.349 . S
C6656 C6654 1.327 . S
C6656 C6675 1.429 . S
C6656 H6680 0.950 . S
C6657 C6674 1.574 . S
C6657 C6676 1.368 . S
C6657 H6681 0.949 . S
H6658 C6662 0.949 . S
C6659 C6660 1.349 . S
C6659 C6661 1.327 . S
C6659 H6682 0.950 . S
C6660 C6659 1.349 . S
C6660 C6672 1.349 . S
C6661 C6659 1.327 . S
C6661 C6677 1.429 . S
C6661 H6683 0.950 . S
C6662 H6658 0.949 . S
C6662 C6670 1.574 . S
C6662 C6678 1.368 . S
H6663 C6671 0.950 . S
H6664 C6669 0.950 . S
H6665 C6670 0.949 . S
H6666 C6672 0.950 . S
H6667 C6673 0.950 . S
H6668 C6674 0.949 . S
C6669 H6664 0.950 . S
C6669 C6671 1.327 . S
C6669 C6675 1.429 . S
C6670 C6662 1.574 . S
C6670 H6665 0.949 . S
C6670 C6676 1.368 . S
C6671 C6655 1.349 . S
C6671 H6663 0.950 . S
C6671 C6669 1.327 . S
C6672 C6660 1.349 . S
C6672 H6666 0.950 . S
C6672 C6673 1.327 . S
C6673 H6667 0.950 . S
C6673 C6672 1.327 . S
C6673 C6677 1.429 . S
C6674 C6657 1.574 . S
C6674 H6668 0.949 . S
C6674 C6678 1.368 . S
C6675 C6656 1.429 . S
C6675 C6669 1.429 . S
C6675 C6676 1.523 . S
C6676 C6657 1.368 . S
C6676 C6670 1.368 . S
C6676 C6675 1.523 . S
C6677 C6661 1.429 . S
C6677 C6673 1.429 . S
C6677 C6678 1.523 . S
C6678 C6662 1.368 . S
C6678 C6674 1.368 . S
C6678 C6677 1.523 . S
H6679 C6654 0.950 . S
H6680 C6656 0.950 . S
H6681 C6657 0.949 . S
H6682 C6659 0.950 . S
H6683 C6661 0.950 . S
C6684 C6685 1.349 . S
C6684 C6686 1.327 . S
C6684 H6709 0.950 . S
C6685 C6684 1.349 . S
C6685 C6701 1.349 . S
C6686 C6684 1.327 . S
C6686 C6705 1.429 . S
C6686 H6710 0.950 . S
C6687 C6704 1.574 . S
C6687 C6706 1.368 . S
C6687 H6711 0.949 . S
H6688 C6692 0.949 . S
C6689 C6690 1.349 . S
C6689 C6691 1.327 . S
C6689 H6712 0.950 . S
C6690 C6689 1.349 . S
C6690 C6702 1.349 . S
C6691 C6689 1.327 . S
C6691 C6707 1.429 . S
C6691 H6713 0.950 . S
C6692 H6688 0.949 . S
C6692 C6700 1.574 . S
C6692 C6708 1.368 . S
H6693 C6701 0.950 . S
H6694 C6699 0.950 . S
H6695 C6700 0.949 . S
H6696 C6702 0.950 . S
H6697 C6703 0.950 . S
H6698 C6704 0.949 . S
C6699 H6694 0.950 . S
C6699 C6701 1.327 . S
C6699 C6705 1.429 . S
C6700 C6692 1.574 . S
C6700 H6695 0.949 . S
C6700 C6706 1.368 . S
C6701 C6685 1.349 . S
C6701 H6693 0.950 . S
C6701 C6699 1.327 . S
C6702 C6690 1.349 . S
C6702 H6696 0.950 . S
C6702 C6703 1.327 . S
C6703 H6697 0.950 . S
C6703 C6702 1.327 . S
C6703 C6707 1.429 . S
C6704 C6687 1.574 . S
C6704 H6698 0.949 . S
C6704 C6708 1.368 . S
C6705 C6686 1.429 . S
C6705 C6699 1.429 . S
C6705 C6706 1.523 . S
C6706 C6687 1.368 . S
C6706 C6700 1.368 . S
C6706 C6705 1.523 . S
C6707 C6691 1.429 . S
C6707 C6703 1.429 . S
C6707 C6708 1.523 . S
C6708 C6692 1.368 . S
C6708 C6704 1.368 . S
C6708 C6707 1.523 . S
H6709 C6684 0.950 . S
H6710 C6686 0.950 . S
H6711 C6687 0.949 . S
H6712 C6689 0.950 . S
H6713 C6691 0.950 . S
C6714 C6715 1.349 . S
C6714 C6716 1.327 . S
C6714 H6739 0.950 . S
C6715 C6714 1.349 . S
C6715 C6731 1.349 . S
C6716 C6714 1.327 . S
C6716 C6735 1.429 . S
C6716 H6740 0.950 . S
C6717 C6734 1.574 . S
C6717 C6736 1.368 . S
C6717 H6741 0.949 . S
H6718 C6722 0.949 . S
C6719 C6720 1.349 . S
C6719 C6721 1.327 . S
C6719 H6742 0.950 . S
C6720 C6719 1.349 . S
C6720 C6732 1.349 . S
C6721 C6719 1.327 . S
C6721 C6737 1.429 . S
C6721 H6743 0.950 . S
C6722 H6718 0.949 . S
C6722 C6730 1.574 . S
C6722 C6738 1.368 . S
H6723 C6731 0.950 . S
H6724 C6729 0.950 . S
H6725 C6730 0.949 . S
H6726 C6732 0.950 . S
H6727 C6733 0.950 . S
H6728 C6734 0.949 . S
C6729 H6724 0.950 . S
C6729 C6731 1.327 . S
C6729 C6735 1.429 . S
C6730 C6722 1.574 . S
C6730 H6725 0.949 . S
C6730 C6736 1.368 . S
C6731 C6715 1.349 . S
C6731 H6723 0.950 . S
C6731 C6729 1.327 . S
C6732 C6720 1.349 . S
C6732 H6726 0.950 . S
C6732 C6733 1.327 . S
C6733 H6727 0.950 . S
C6733 C6732 1.327 . S
C6733 C6737 1.429 . S
C6734 C6717 1.574 . S
C6734 H6728 0.949 . S
C6734 C6738 1.368 . S
C6735 C6716 1.429 . S
C6735 C6729 1.429 . S
C6735 C6736 1.523 . S
C6736 C6717 1.368 . S
C6736 C6730 1.368 . S
C6736 C6735 1.523 . S
C6737 C6721 1.429 . S
C6737 C6733 1.429 . S
C6737 C6738 1.523 . S
C6738 C6722 1.368 . S
C6738 C6734 1.368 . S
C6738 C6737 1.523 . S
H6739 C6714 0.950 . S
H6740 C6716 0.950 . S
H6741 C6717 0.949 . S
H6742 C6719 0.950 . S
H6743 C6721 0.950 . S
C6744 C6745 1.349 . S
C6744 C6746 1.327 . S
C6744 H6769 0.950 . S
C6745 C6744 1.349 . S
C6745 C6761 1.349 . S
C6746 C6744 1.327 . S
C6746 C6765 1.429 . S
C6746 H6770 0.950 . S
C6747 C6764 1.574 . S
C6747 C6766 1.368 . S
C6747 H6771 0.949 . S
H6748 C6752 0.949 . S
C6749 C6750 1.349 . S
C6749 C6751 1.327 . S
C6749 H6772 0.950 . S
C6750 C6749 1.349 . S
C6750 C6762 1.349 . S
C6751 C6749 1.327 . S
C6751 C6767 1.429 . S
C6751 H6773 0.950 . S
C6752 H6748 0.949 . S
C6752 C6760 1.574 . S
C6752 C6768 1.368 . S
H6753 C6761 0.950 . S
H6754 C6759 0.950 . S
H6755 C6760 0.949 . S
H6756 C6762 0.950 . S
H6757 C6763 0.950 . S
H6758 C6764 0.949 . S
C6759 H6754 0.950 . S
C6759 C6761 1.327 . S
C6759 C6765 1.429 . S
C6760 C6752 1.574 . S
C6760 H6755 0.949 . S
C6760 C6766 1.368 . S
C6761 C6745 1.349 . S
C6761 H6753 0.950 . S
C6761 C6759 1.327 . S
C6762 C6750 1.349 . S
C6762 H6756 0.950 . S
C6762 C6763 1.327 . S
C6763 H6757 0.950 . S
C6763 C6762 1.327 . S
C6763 C6767 1.429 . S
C6764 C6747 1.574 . S
C6764 H6758 0.949 . S
C6764 C6768 1.368 . S
C6765 C6746 1.429 . S
C6765 C6759 1.429 . S
C6765 C6766 1.523 . S
C6766 C6747 1.368 . S
C6766 C6760 1.368 . S
C6766 C6765 1.523 . S
C6767 C6751 1.429 . S
C6767 C6763 1.429 . S
C6767 C6768 1.523 . S
C6768 C6752 1.368 . S
C6768 C6764 1.368 . S
C6768 C6767 1.523 . S
H6769 C6744 0.950 . S
H6770 C6746 0.950 . S
H6771 C6747 0.949 . S
H6772 C6749 0.950 . S
H6773 C6751 0.950 . S
C6774 C6775 1.349 . S
C6774 C6776 1.327 . S
C6774 H6799 0.950 . S
C6775 C6774 1.349 . S
C6775 C6791 1.349 . S
C6776 C6774 1.327 . S
C6776 C6795 1.429 . S
C6776 H6800 0.950 . S
C6777 C6794 1.574 . S
C6777 C6796 1.368 . S
C6777 H6801 0.949 . S
H6778 C6782 0.949 . S
C6779 C6780 1.349 . S
C6779 C6781 1.327 . S
C6779 H6802 0.950 . S
C6780 C6779 1.349 . S
C6780 C6792 1.349 . S
C6781 C6779 1.327 . S
C6781 C6797 1.429 . S
C6781 H6803 0.950 . S
C6782 H6778 0.949 . S
C6782 C6790 1.574 . S
C6782 C6798 1.368 . S
H6783 C6791 0.950 . S
H6784 C6789 0.950 . S
H6785 C6790 0.949 . S
H6786 C6792 0.950 . S
H6787 C6793 0.950 . S
H6788 C6794 0.949 . S
C6789 H6784 0.950 . S
C6789 C6791 1.327 . S
C6789 C6795 1.429 . S
C6790 C6782 1.574 . S
C6790 H6785 0.949 . S
C6790 C6796 1.368 . S
C6791 C6775 1.349 . S
C6791 H6783 0.950 . S
C6791 C6789 1.327 . S
C6792 C6780 1.349 . S
C6792 H6786 0.950 . S
C6792 C6793 1.327 . S
C6793 H6787 0.950 . S
C6793 C6792 1.327 . S
C6793 C6797 1.429 . S
C6794 C6777 1.574 . S
C6794 H6788 0.949 . S
C6794 C6798 1.368 . S
C6795 C6776 1.429 . S
C6795 C6789 1.429 . S
C6795 C6796 1.523 . S
C6796 C6777 1.368 . S
C6796 C6790 1.368 . S
C6796 C6795 1.523 . S
C6797 C6781 1.429 . S
C6797 C6793 1.429 . S
C6797 C6798 1.523 . S
C6798 C6782 1.368 . S
C6798 C6794 1.368 . S
C6798 C6797 1.523 . S
H6799 C6774 0.950 . S
H6800 C6776 0.950 . S
H6801 C6777 0.949 . S
H6802 C6779 0.950 . S
H6803 C6781 0.950 . S
C6804 C6805 1.349 . S
C6804 C6806 1.327 . S
C6804 H6829 0.950 . S
C6805 C6804 1.349 . S
C6805 C6821 1.349 . S
C6806 C6804 1.327 . S
C6806 C6825 1.429 . S
C6806 H6830 0.950 . S
C6807 C6824 1.574 . S
C6807 C6826 1.368 . S
C6807 H6831 0.949 . S
H6808 C6812 0.949 . S
C6809 C6810 1.349 . S
C6809 C6811 1.327 . S
C6809 H6832 0.950 . S
C6810 C6809 1.349 . S
C6810 C6822 1.349 . S
C6811 C6809 1.327 . S
C6811 C6827 1.429 . S
C6811 H6833 0.950 . S
C6812 H6808 0.949 . S
C6812 C6820 1.574 . S
C6812 C6828 1.368 . S
H6813 C6821 0.950 . S
H6814 C6819 0.950 . S
H6815 C6820 0.949 . S
H6816 C6822 0.950 . S
H6817 C6823 0.950 . S
H6818 C6824 0.949 . S
C6819 H6814 0.950 . S
C6819 C6821 1.327 . S
C6819 C6825 1.429 . S
C6820 C6812 1.574 . S
C6820 H6815 0.949 . S
C6820 C6826 1.368 . S
C6821 C6805 1.349 . S
C6821 H6813 0.950 . S
C6821 C6819 1.327 . S
C6822 C6810 1.349 . S
C6822 H6816 0.950 . S
C6822 C6823 1.327 . S
C6823 H6817 0.950 . S
C6823 C6822 1.327 . S
C6823 C6827 1.429 . S
C6824 C6807 1.574 . S
C6824 H6818 0.949 . S
C6824 C6828 1.368 . S
C6825 C6806 1.429 . S
C6825 C6819 1.429 . S
C6825 C6826 1.523 . S
C6826 C6807 1.368 . S
C6826 C6820 1.368 . S
C6826 C6825 1.523 . S
C6827 C6811 1.429 . S
C6827 C6823 1.429 . S
C6827 C6828 1.523 . S
C6828 C6812 1.368 . S
C6828 C6824 1.368 . S
C6828 C6827 1.523 . S
H6829 C6804 0.950 . S
H6830 C6806 0.950 . S
H6831 C6807 0.949 . S
H6832 C6809 0.950 . S
H6833 C6811 0.950 . S
C6834 C6835 1.349 . S
C6834 C6836 1.327 . S
C6834 H6859 0.950 . S
C6835 C6834 1.349 . S
C6835 C6851 1.349 . S
C6836 C6834 1.327 . S
C6836 C6855 1.429 . S
C6836 H6860 0.950 . S
C6837 C6854 1.574 . S
C6837 C6856 1.368 . S
C6837 H6861 0.949 . S
H6838 C6842 0.949 . S
C6839 C6840 1.349 . S
C6839 C6841 1.327 . S
C6839 H6862 0.950 . S
C6840 C6839 1.349 . S
C6840 C6852 1.349 . S
C6841 C6839 1.327 . S
C6841 C6857 1.429 . S
C6841 H6863 0.950 . S
C6842 H6838 0.949 . S
C6842 C6850 1.574 . S
C6842 C6858 1.368 . S
H6843 C6851 0.950 . S
H6844 C6849 0.950 . S
H6845 C6850 0.949 . S
H6846 C6852 0.950 . S
H6847 C6853 0.950 . S
H6848 C6854 0.949 . S
C6849 H6844 0.950 . S
C6849 C6851 1.327 . S
C6849 C6855 1.429 . S
C6850 C6842 1.574 . S
C6850 H6845 0.949 . S
C6850 C6856 1.368 . S
C6851 C6835 1.349 . S
C6851 H6843 0.950 . S
C6851 C6849 1.327 . S
C6852 C6840 1.349 . S
C6852 H6846 0.950 . S
C6852 C6853 1.327 . S
C6853 H6847 0.950 . S
C6853 C6852 1.327 . S
C6853 C6857 1.429 . S
C6854 C6837 1.574 . S
C6854 H6848 0.949 . S
C6854 C6858 1.368 . S
C6855 C6836 1.429 . S
C6855 C6849 1.429 . S
C6855 C6856 1.523 . S
C6856 C6837 1.368 . S
C6856 C6850 1.368 . S
C6856 C6855 1.523 . S
C6857 C6841 1.429 . S
C6857 C6853 1.429 . S
C6857 C6858 1.523 . S
C6858 C6842 1.368 . S
C6858 C6854 1.368 . S
C6858 C6857 1.523 . S
H6859 C6834 0.950 . S
H6860 C6836 0.950 . S
H6861 C6837 0.949 . S
H6862 C6839 0.950 . S
H6863 C6841 0.950 . S
C6864 C6865 1.349 . S
C6864 C6866 1.327 . S
C6864 H6889 0.950 . S
C6865 C6864 1.349 . S
C6865 C6881 1.349 . S
C6866 C6864 1.327 . S
C6866 C6885 1.429 . S
C6866 H6890 0.950 . S
C6867 C6884 1.574 . S
C6867 C6886 1.368 . S
C6867 H6891 0.949 . S
H6868 C6872 0.949 . S
C6869 C6870 1.349 . S
C6869 C6871 1.327 . S
C6869 H6892 0.950 . S
C6870 C6869 1.349 . S
C6870 C6882 1.349 . S
C6871 C6869 1.327 . S
C6871 C6887 1.429 . S
C6871 H6893 0.950 . S
C6872 H6868 0.949 . S
C6872 C6880 1.574 . S
C6872 C6888 1.368 . S
H6873 C6881 0.950 . S
H6874 C6879 0.950 . S
H6875 C6880 0.949 . S
H6876 C6882 0.950 . S
H6877 C6883 0.950 . S
H6878 C6884 0.949 . S
C6879 H6874 0.950 . S
C6879 C6881 1.327 . S
C6879 C6885 1.429 . S
C6880 C6872 1.574 . S
C6880 H6875 0.949 . S
C6880 C6886 1.368 . S
C6881 C6865 1.349 . S
C6881 H6873 0.950 . S
C6881 C6879 1.327 . S
C6882 C6870 1.349 . S
C6882 H6876 0.950 . S
C6882 C6883 1.327 . S
C6883 H6877 0.950 . S
C6883 C6882 1.327 . S
C6883 C6887 1.429 . S
C6884 C6867 1.574 . S
C6884 H6878 0.949 . S
C6884 C6888 1.368 . S
C6885 C6866 1.429 . S
C6885 C6879 1.429 . S
C6885 C6886 1.523 . S
C6886 C6867 1.368 . S
C6886 C6880 1.368 . S
C6886 C6885 1.523 . S
C6887 C6871 1.429 . S
C6887 C6883 1.429 . S
C6887 C6888 1.523 . S
C6888 C6872 1.368 . S
C6888 C6884 1.368 . S
C6888 C6887 1.523 . S
H6889 C6864 0.950 . S
H6890 C6866 0.950 . S
H6891 C6867 0.949 . S
H6892 C6869 0.950 . S
H6893 C6871 0.950 . S
C6894 C6895 1.349 . S
C6894 C6896 1.327 . S
C6894 H6919 0.950 . S
C6895 C6894 1.349 . S
C6895 C6911 1.349 . S
C6896 C6894 1.327 . S
C6896 C6915 1.429 . S
C6896 H6920 0.950 . S
C6897 C6914 1.574 . S
C6897 C6916 1.368 . S
C6897 H6921 0.949 . S
H6898 C6902 0.949 . S
C6899 C6900 1.349 . S
C6899 C6901 1.327 . S
C6899 H6922 0.950 . S
C6900 C6899 1.349 . S
C6900 C6912 1.349 . S
C6901 C6899 1.327 . S
C6901 C6917 1.429 . S
C6901 H6923 0.950 . S
C6902 H6898 0.949 . S
C6902 C6910 1.574 . S
C6902 C6918 1.368 . S
H6903 C6911 0.950 . S
H6904 C6909 0.950 . S
H6905 C6910 0.949 . S
H6906 C6912 0.950 . S
H6907 C6913 0.950 . S
H6908 C6914 0.949 . S
C6909 H6904 0.950 . S
C6909 C6911 1.327 . S
C6909 C6915 1.429 . S
C6910 C6902 1.574 . S
C6910 H6905 0.949 . S
C6910 C6916 1.368 . S
C6911 C6895 1.349 . S
C6911 H6903 0.950 . S
C6911 C6909 1.327 . S
C6912 C6900 1.349 . S
C6912 H6906 0.950 . S
C6912 C6913 1.327 . S
C6913 H6907 0.950 . S
C6913 C6912 1.327 . S
C6913 C6917 1.429 . S
C6914 C6897 1.574 . S
C6914 H6908 0.949 . S
C6914 C6918 1.368 . S
C6915 C6896 1.429 . S
C6915 C6909 1.429 . S
C6915 C6916 1.523 . S
C6916 C6897 1.368 . S
C6916 C6910 1.368 . S
C6916 C6915 1.523 . S
C6917 C6901 1.429 . S
C6917 C6913 1.429 . S
C6917 C6918 1.523 . S
C6918 C6902 1.368 . S
C6918 C6914 1.368 . S
C6918 C6917 1.523 . S
H6919 C6894 0.950 . S
H6920 C6896 0.950 . S
H6921 C6897 0.949 . S
H6922 C6899 0.950 . S
H6923 C6901 0.950 . S
C6924 C6925 1.349 . S
C6924 C6926 1.327 . S
C6924 H6949 0.950 . S
C6925 C6924 1.349 . S
C6925 C6941 1.349 . S
C6926 C6924 1.327 . S
C6926 C6945 1.429 . S
C6926 H6950 0.950 . S
C6927 C6944 1.574 . S
C6927 C6946 1.368 . S
C6927 H6951 0.949 . S
H6928 C6932 0.949 . S
C6929 C6930 1.349 . S
C6929 C6931 1.327 . S
C6929 H6952 0.950 . S
C6930 C6929 1.349 . S
C6930 C6942 1.349 . S
C6931 C6929 1.327 . S
C6931 C6947 1.429 . S
C6931 H6953 0.950 . S
C6932 H6928 0.949 . S
C6932 C6940 1.574 . S
C6932 C6948 1.368 . S
H6933 C6941 0.950 . S
H6934 C6939 0.950 . S
H6935 C6940 0.949 . S
H6936 C6942 0.950 . S
H6937 C6943 0.950 . S
H6938 C6944 0.949 . S
C6939 H6934 0.950 . S
C6939 C6941 1.327 . S
C6939 C6945 1.429 . S
C6940 C6932 1.574 . S
C6940 H6935 0.949 . S
C6940 C6946 1.368 . S
C6941 C6925 1.349 . S
C6941 H6933 0.950 . S
C6941 C6939 1.327 . S
C6942 C6930 1.349 . S
C6942 H6936 0.950 . S
C6942 C6943 1.327 . S
C6943 H6937 0.950 . S
C6943 C6942 1.327 . S
C6943 C6947 1.429 . S
C6944 C6927 1.574 . S
C6944 H6938 0.949 . S
C6944 C6948 1.368 . S
C6945 C6926 1.429 . S
C6945 C6939 1.429 . S
C6945 C6946 1.523 . S
C6946 C6927 1.368 . S
C6946 C6940 1.368 . S
C6946 C6945 1.523 . S
C6947 C6931 1.429 . S
C6947 C6943 1.429 . S
C6947 C6948 1.523 . S
C6948 C6932 1.368 . S
C6948 C6944 1.368 . S
C6948 C6947 1.523 . S
H6949 C6924 0.950 . S
H6950 C6926 0.950 . S
H6951 C6927 0.949 . S
H6952 C6929 0.950 . S
H6953 C6931 0.950 . S
C6954 C6955 1.349 . S
C6954 C6956 1.327 . S
C6954 H6979 0.950 . S
C6955 C6954 1.349 . S
C6955 C6971 1.349 . S
C6956 C6954 1.327 . S
C6956 C6975 1.429 . S
C6956 H6980 0.950 . S
C6957 C6974 1.574 . S
C6957 C6976 1.368 . S
C6957 H6981 0.949 . S
H6958 C6962 0.949 . S
C6959 C6960 1.349 . S
C6959 C6961 1.327 . S
C6959 H6982 0.950 . S
C6960 C6959 1.349 . S
C6960 C6972 1.349 . S
C6961 C6959 1.327 . S
C6961 C6977 1.429 . S
C6961 H6983 0.950 . S
C6962 H6958 0.949 . S
C6962 C6970 1.574 . S
C6962 C6978 1.368 . S
H6963 C6971 0.950 . S
H6964 C6969 0.950 . S
H6965 C6970 0.949 . S
H6966 C6972 0.950 . S
H6967 C6973 0.950 . S
H6968 C6974 0.949 . S
C6969 H6964 0.950 . S
C6969 C6971 1.327 . S
C6969 C6975 1.429 . S
C6970 C6962 1.574 . S
C6970 H6965 0.949 . S
C6970 C6976 1.368 . S
C6971 C6955 1.349 . S
C6971 H6963 0.950 . S
C6971 C6969 1.327 . S
C6972 C6960 1.349 . S
C6972 H6966 0.950 . S
C6972 C6973 1.327 . S
C6973 H6967 0.950 . S
C6973 C6972 1.327 . S
C6973 C6977 1.429 . S
C6974 C6957 1.574 . S
C6974 H6968 0.949 . S
C6974 C6978 1.368 . S
C6975 C6956 1.429 . S
C6975 C6969 1.429 . S
C6975 C6976 1.523 . S
C6976 C6957 1.368 . S
C6976 C6970 1.368 . S
C6976 C6975 1.523 . S
C6977 C6961 1.429 . S
C6977 C6973 1.429 . S
C6977 C6978 1.523 . S
C6978 C6962 1.368 . S
C6978 C6974 1.368 . S
C6978 C6977 1.523 . S
H6979 C6954 0.950 . S
H6980 C6956 0.950 . S
H6981 C6957 0.949 . S
H6982 C6959 0.950 . S
H6983 C6961 0.950 . S
C6984 C6985 1.349 . S
C6984 C6986 1.327 . S
C6984 H7009 0.950 . S
C6985 C6984 1.349 . S
C6985 C7001 1.349 . S
C6986 C6984 1.327 . S
C6986 C7005 1.429 . S
C6986 H7010 0.950 . S
C6987 C7004 1.574 . S
C6987 C7006 1.368 . S
C6987 H7011 0.949 . S
H6988 C6992 0.949 . S
C6989 C6990 1.349 . S
C6989 C6991 1.327 . S
C6989 H7012 0.950 . S
C6990 C6989 1.349 . S
C6990 C7002 1.349 . S
C6991 C6989 1.327 . S
C6991 C7007 1.429 . S
C6991 H7013 0.950 . S
C6992 H6988 0.949 . S
C6992 C7000 1.574 . S
C6992 C7008 1.368 . S
H6993 C7001 0.950 . S
H6994 C6999 0.950 . S
H6995 C7000 0.949 . S
H6996 C7002 0.950 . S
H6997 C7003 0.950 . S
H6998 C7004 0.949 . S
C6999 H6994 0.950 . S
C6999 C7001 1.327 . S
C6999 C7005 1.429 . S
C7000 C6992 1.574 . S
C7000 H6995 0.949 . S
C7000 C7006 1.368 . S
C7001 C6985 1.349 . S
C7001 H6993 0.950 . S
C7001 C6999 1.327 . S
C7002 C6990 1.349 . S
C7002 H6996 0.950 . S
C7002 C7003 1.327 . S
C7003 H6997 0.950 . S
C7003 C7002 1.327 . S
C7003 C7007 1.429 . S
C7004 C6987 1.574 . S
C7004 H6998 0.949 . S
C7004 C7008 1.368 . S
C7005 C6986 1.429 . S
C7005 C6999 1.429 . S
C7005 C7006 1.523 . S
C7006 C6987 1.368 . S
C7006 C7000 1.368 . S
C7006 C7005 1.523 . S
C7007 C6991 1.429 . S
C7007 C7003 1.429 . S
C7007 C7008 1.523 . S
C7008 C6992 1.368 . S
C7008 C7004 1.368 . S
C7008 C7007 1.523 . S
H7009 C6984 0.950 . S
H7010 C6986 0.950 . S
H7011 C6987 0.949 . S
H7012 C6989 0.950 . S
H7013 C6991 0.950 . S
C7014 C7015 1.349 . S
C7014 C7016 1.327 . S
C7014 H7039 0.950 . S
C7015 C7014 1.349 . S
C7015 C7031 1.349 . S
C7016 C7014 1.327 . S
C7016 C7035 1.429 . S
C7016 H7040 0.950 . S
C7017 C7034 1.574 . S
C7017 C7036 1.368 . S
C7017 H7041 0.949 . S
H7018 C7022 0.949 . S
C7019 C7020 1.349 . S
C7019 C7021 1.327 . S
C7019 H7042 0.950 . S
C7020 C7019 1.349 . S
C7020 C7032 1.349 . S
C7021 C7019 1.327 . S
C7021 C7037 1.429 . S
C7021 H7043 0.950 . S
C7022 H7018 0.949 . S
C7022 C7030 1.574 . S
C7022 C7038 1.368 . S
H7023 C7031 0.950 . S
H7024 C7029 0.950 . S
H7025 C7030 0.949 . S
H7026 C7032 0.950 . S
H7027 C7033 0.950 . S
H7028 C7034 0.949 . S
C7029 H7024 0.950 . S
C7029 C7031 1.327 . S
C7029 C7035 1.429 . S
C7030 C7022 1.574 . S
C7030 H7025 0.949 . S
C7030 C7036 1.368 . S
C7031 C7015 1.349 . S
C7031 H7023 0.950 . S
C7031 C7029 1.327 . S
C7032 C7020 1.349 . S
C7032 H7026 0.950 . S
C7032 C7033 1.327 . S
C7033 H7027 0.950 . S
C7033 C7032 1.327 . S
C7033 C7037 1.429 . S
C7034 C7017 1.574 . S
C7034 H7028 0.949 . S
C7034 C7038 1.368 . S
C7035 C7016 1.429 . S
C7035 C7029 1.429 . S
C7035 C7036 1.523 . S
C7036 C7017 1.368 . S
C7036 C7030 1.368 . S
C7036 C7035 1.523 . S
C7037 C7021 1.429 . S
C7037 C7033 1.429 . S
C7037 C7038 1.523 . S
C7038 C7022 1.368 . S
C7038 C7034 1.368 . S
C7038 C7037 1.523 . S
H7039 C7014 0.950 . S
H7040 C7016 0.950 . S
H7041 C7017 0.949 . S
H7042 C7019 0.950 . S
H7043 C7021 0.950 . S
C7044 C7045 1.349 . S
C7044 C7046 1.327 . S
C7044 H7069 0.950 . S
C7045 C7044 1.349 . S
C7045 C7061 1.349 . S
C7046 C7044 1.327 . S
C7046 C7065 1.429 . S
C7046 H7070 0.950 . S
C7047 C7064 1.574 . S
C7047 C7066 1.368 . S
C7047 H7071 0.949 . S
H7048 C7052 0.949 . S
C7049 C7050 1.349 . S
C7049 C7051 1.327 . S
C7049 H7072 0.950 . S
C7050 C7049 1.349 . S
C7050 C7062 1.349 . S
C7051 C7049 1.327 . S
C7051 C7067 1.429 . S
C7051 H7073 0.950 . S
C7052 H7048 0.949 . S
C7052 C7060 1.574 . S
C7052 C7068 1.368 . S
H7053 C7061 0.950 . S
H7054 C7059 0.950 . S
H7055 C7060 0.949 . S
H7056 C7062 0.950 . S
H7057 C7063 0.950 . S
H7058 C7064 0.949 . S
C7059 H7054 0.950 . S
C7059 C7061 1.327 . S
C7059 C7065 1.429 . S
C7060 C7052 1.574 . S
C7060 H7055 0.949 . S
C7060 C7066 1.368 . S
C7061 C7045 1.349 . S
C7061 H7053 0.950 . S
C7061 C7059 1.327 . S
C7062 C7050 1.349 . S
C7062 H7056 0.950 . S
C7062 C7063 1.327 . S
C7063 H7057 0.950 . S
C7063 C7062 1.327 . S
C7063 C7067 1.429 . S
C7064 C7047 1.574 . S
C7064 H7058 0.949 . S
C7064 C7068 1.368 . S
C7065 C7046 1.429 . S
C7065 C7059 1.429 . S
C7065 C7066 1.523 . S
C7066 C7047 1.368 . S
C7066 C7060 1.368 . S
C7066 C7065 1.523 . S
C7067 C7051 1.429 . S
C7067 C7063 1.429 . S
C7067 C7068 1.523 . S
C7068 C7052 1.368 . S
C7068 C7064 1.368 . S
C7068 C7067 1.523 . S
H7069 C7044 0.950 . S
H7070 C7046 0.950 . S
H7071 C7047 0.949 . S
H7072 C7049 0.950 . S
H7073 C7051 0.950 . S
C7074 C7075 1.349 . S
C7074 C7076 1.327 . S
C7074 H7099 0.950 . S
C7075 C7074 1.349 . S
C7075 C7091 1.349 . S
C7076 C7074 1.327 . S
C7076 C7095 1.429 . S
C7076 H7100 0.950 . S
C7077 C7094 1.574 . S
C7077 C7096 1.368 . S
C7077 H7101 0.949 . S
H7078 C7082 0.949 . S
C7079 C7080 1.349 . S
C7079 C7081 1.327 . S
C7079 H7102 0.950 . S
C7080 C7079 1.349 . S
C7080 C7092 1.349 . S
C7081 C7079 1.327 . S
C7081 C7097 1.429 . S
C7081 H7103 0.950 . S
C7082 H7078 0.949 . S
C7082 C7090 1.574 . S
C7082 C7098 1.368 . S
H7083 C7091 0.950 . S
H7084 C7089 0.950 . S
H7085 C7090 0.949 . S
H7086 C7092 0.950 . S
H7087 C7093 0.950 . S
H7088 C7094 0.949 . S
C7089 H7084 0.950 . S
C7089 C7091 1.327 . S
C7089 C7095 1.429 . S
C7090 C7082 1.574 . S
C7090 H7085 0.949 . S
C7090 C7096 1.368 . S
C7091 C7075 1.349 . S
C7091 H7083 0.950 . S
C7091 C7089 1.327 . S
C7092 C7080 1.349 . S
C7092 H7086 0.950 . S
C7092 C7093 1.327 . S
C7093 H7087 0.950 . S
C7093 C7092 1.327 . S
C7093 C7097 1.429 . S
C7094 C7077 1.574 . S
C7094 H7088 0.949 . S
C7094 C7098 1.368 . S
C7095 C7076 1.429 . S
C7095 C7089 1.429 . S
C7095 C7096 1.523 . S
C7096 C7077 1.368 . S
C7096 C7090 1.368 . S
C7096 C7095 1.523 . S
C7097 C7081 1.429 . S
C7097 C7093 1.429 . S
C7097 C7098 1.523 . S
C7098 C7082 1.368 . S
C7098 C7094 1.368 . S
C7098 C7097 1.523 . S
H7099 C7074 0.950 . S
H7100 C7076 0.950 . S
H7101 C7077 0.949 . S
H7102 C7079 0.950 . S
H7103 C7081 0.950 . S
C1345 C9 1.691 . S
C1350 C961 1.691 . S
C1375 C919 1.691 . S
C1380 C23 1.691 . S
C1405 C933 1.691 . S
C1410 C37 1.691 . S
C1435 C51 1.691 . S
C1440 C947 1.691 . S
C1465 C1003 1.691 . S
C1470 C65 1.691 . S
C1495 C975 1.691 . S
C1500 C79 1.691 . S
C1525 C989 1.691 . S
C1530 C93 1.691 . S
C1555 C107 1.691 . S
C1560 C905 1.691 . S
C1585 C121 1.691 . S
C1590 C891 1.691 . S
C1615 C135 1.691 . S
C1620 C849 1.691 . S
C1645 C149 1.691 . S
C1650 C863 1.691 . S
C1675 C163 1.691 . S
C1680 C877 1.691 . S
C1705 C177 1.691 . S
C1710 C807 1.691 . S
C1735 C821 1.691 . S
C1740 C191 1.691 . S
C1765 C835 1.691 . S
C1770 C205 1.691 . S
C1795 C219 1.691 . S
C1800 C793 1.691 . S
C1825 C233 1.691 . S
C1830 C779 1.691 . S
C1855 C247 1.691 . S
C1860 C695 1.691 . S
C1885 C709 1.691 . S
C1890 C261 1.691 . S
C1915 C723 1.691 . S
C1920 C275 1.691 . S
C1945 C681 1.691 . S
C1950 C289 1.691 . S
C1975 C303 1.691 . S
C1980 C751 1.691 . S
C2005 C317 1.691 . S
C2010 C765 1.691 . S
C2035 C331 1.691 . S
C2040 C737 1.691 . S
C2065 C345 1.691 . S
C2070 C1297 1.691 . S
C2095 C359 1.691 . S
C2100 C1255 1.691 . S
C2125 C373 1.691 . S
C2130 C1269 1.691 . S
C2155 C387 1.691 . S
C2160 C1283 1.691 . S
C2185 C401 1.691 . S
C2190 C1339 1.691 . S
C2215 C415 1.691 . S
C2220 C1311 1.691 . S
C2245 C1325 1.691 . S
C2250 C429 1.691 . S
C2275 C443 1.691 . S
C2280 C1241 1.691 . S
C2305 C457 1.691 . S
C2310 C1227 1.691 . S
C2335 C1185 1.691 . S
C2340 C471 1.691 . S
C2365 C485 1.691 . S
C2370 C1199 1.691 . S
C2395 C499 1.691 . S
C2400 C1213 1.691 . S
C2425 C513 1.691 . S
C2430 C1143 1.691 . S
C2455 C527 1.691 . S
C2460 C1157 1.691 . S
C2485 C541 1.691 . S
C2490 C1171 1.691 . S
C2515 C1129 1.691 . S
C2520 C555 1.691 . S
C2545 C569 1.691 . S
C2550 C1115 1.691 . S
C2575 C583 1.691 . S
C2580 C1031 1.691 . S
C2605 C597 1.691 . S
C2610 C1045 1.691 . S
C2635 C1059 1.691 . S
C2640 C611 1.691 . S
C2665 C625 1.691 . S
C2670 C1017 1.691 . S
C2695 C1087 1.691 . S
C2700 C639 1.691 . S
C2725 C653 1.691 . S
C2730 C1101 1.691 . S
C2755 C667 1.691 . S
C2760 C1073 1.691 . S
C2785 C7 1.457 . S
C2790 C553 1.457 . S
C2815 C21 1.457 . S
C2820 C511 1.457 . S
C2845 C525 1.457 . S
C2850 C35 1.457 . S
C2875 C49 1.457 . S
C2880 C539 1.457 . S
C2905 C469 1.457 . S
C2910 C63 1.457 . S
C2935 C483 1.457 . S
C2940 C77 1.457 . S
C2965 C497 1.457 . S
C2970 C91 1.457 . S
C2995 C455 1.457 . S
C3000 C105 1.457 . S
C3025 C441 1.457 . S
C3030 C119 1.457 . S
C3055 C133 1.457 . S
C3060 C399 1.457 . S
C3085 C413 1.457 . S
C3090 C147 1.457 . S
C3115 C161 1.457 . S
C3120 C427 1.457 . S
C3145 C357 1.457 . S
C3150 C175 1.457 . S
C3175 C371 1.457 . S
C3180 C189 1.457 . S
C3205 C203 1.457 . S
C3210 C385 1.457 . S
C3235 C217 1.457 . S
C3240 C343 1.457 . S
C3265 C231 1.457 . S
C3270 C623 1.457 . S
C3295 C245 1.457 . S
C3300 C665 1.457 . S
C3325 C637 1.457 . S
C3330 C259 1.457 . S
C3355 C651 1.457 . S
C3360 C273 1.457 . S
C3385 C287 1.457 . S
C3390 C567 1.457 . S
C3415 C301 1.457 . S
C3420 C595 1.457 . S
C3445 C609 1.457 . S
C3450 C315 1.457 . S
C3475 C329 1.457 . S
C3480 C581 1.457 . S
C3505 C1225 1.457 . S
C3510 C679 1.457 . S
C3535 C1183 1.457 . S
C3540 C693 1.457 . S
C3565 C1197 1.457 . S
C3570 C707 1.457 . S
C3595 C721 1.457 . S
C3600 C1211 1.457 . S
C3625 C1141 1.457 . S
C3630 C735 1.457 . S
C3655 C1155 1.457 . S
C3660 C749 1.457 . S
C3685 C763 1.457 . S
C3690 C1169 1.457 . S
C3715 C777 1.457 . S
C3720 C1127 1.457 . S
C3745 C1113 1.457 . S
C3750 C791 1.457 . S
C3775 C805 1.457 . S
C3780 C1071 1.457 . S
C3805 C1085 1.457 . S
C3810 C819 1.457 . S
C3835 C1099 1.457 . S
C3840 C833 1.457 . S
C3865 C847 1.457 . S
C3870 C1029 1.457 . S
C3895 C861 1.457 . S
C3900 C1043 1.457 . S
C3925 C1057 1.457 . S
C3930 C875 1.457 . S
C3955 C889 1.457 . S
C3960 C1015 1.457 . S
C3985 C1295 1.457 . S
C3990 C903 1.457 . S
C4015 C1337 1.457 . S
C4020 C917 1.457 . S
C4045 C931 1.457 . S
C4050 C1309 1.457 . S
C4075 C1323 1.457 . S
C4080 C945 1.457 . S
C4105 C1239 1.457 . S
C4110 C959 1.457 . S
C4135 C1267 1.457 . S
C4140 C973 1.457 . S
C4165 C987 1.457 . S
C4170 C1281 1.457 . S
C4195 C1253 1.457 . S
C4200 C1001 1.457 . S
C4225 C8 1.118 . S
C4230 C400 1.118 . S
C4255 C414 1.118 . S
C4260 C22 1.118 . S
C4285 C36 1.118 . S
C4290 C428 1.118 . S
C4315 C442 1.118 . S
C4320 C50 1.118 . S
C4345 C64 1.118 . S
C4350 C344 1.118 . S
C4375 C78 1.118 . S
C4380 C358 1.118 . S
C4405 C92 1.118 . S
C4410 C372 1.118 . S
C4435 C386 1.118 . S
C4440 C106 1.118 . S
C4465 C540 1.118 . S
C4470 C120 1.118 . S
C4495 C134 1.118 . S
C4500 C554 1.118 . S
C4525 C148 1.118 . S
C4530 C512 1.118 . S
C4555 C162 1.118 . S
C4560 C526 1.118 . S
C4585 C176 1.118 . S
C4590 C484 1.118 . S
C4615 C190 1.118 . S
C4620 C498 1.118 . S
C4645 C204 1.118 . S
C4650 C456 1.118 . S
C4675 C218 1.118 . S
C4680 C470 1.118 . S
C4705 C232 1.118 . S
C4710 C638 1.118 . S
C4735 C246 1.118 . S
C4740 C610 1.118 . S
C4765 C624 1.118 . S
C4770 C260 1.118 . S
C4795 C274 1.118 . S
C4800 C582 1.118 . S
C4825 C596 1.118 . S
C4830 C288 1.118 . S
C4855 C302 1.118 . S
C4860 C568 1.118 . S
C4885 C316 1.118 . S
C4890 C666 1.118 . S
C4915 C652 1.118 . S
C4920 C330 1.118 . S
C4945 C1072 1.118 . S
C4950 C680 1.118 . S
C4975 C694 1.118 . S
C4980 C1086 1.118 . S
C5005 C1100 1.118 . S
C5010 C708 1.118 . S
C5035 C722 1.118 . S
C5040 C1114 1.118 . S
C5065 C1016 1.118 . S
C5070 C736 1.118 . S
C5095 C1030 1.118 . S
C5100 C750 1.118 . S
C5125 C1044 1.118 . S
C5130 C764 1.118 . S
C5155 C778 1.118 . S
C5160 C1058 1.118 . S
C5185 C792 1.118 . S
C5190 C1212 1.118 . S
C5215 C1226 1.118 . S
C5220 C806 1.118 . S
C5245 C1184 1.118 . S
C5250 C820 1.118 . S
C5275 C1198 1.118 . S
C5280 C834 1.118 . S
C5305 C848 1.118 . S
C5310 C1156 1.118 . S
C5335 C862 1.118 . S
C5340 C1170 1.118 . S
C5365 C1128 1.118 . S
C5370 C876 1.118 . S
C5395 C1142 1.118 . S
C5400 C890 1.118 . S
C5425 C1310 1.118 . S
C5430 C904 1.118 . S
C5455 C918 1.118 . S
C5460 C1282 1.118 . S
C5485 C1296 1.118 . S
C5490 C932 1.118 . S
C5515 C946 1.118 . S
C5520 C1254 1.118 . S
C5545 C960 1.118 . S
C5550 C1268 1.118 . S
C5575 C974 1.118 . S
C5580 C1240 1.118 . S
C5605 C1338 1.118 . S
C5610 C988 1.118 . S
C5635 C1002 1.118 . S
C5640 C1324 1.118 . S
C5665 C437 1.221 . S
C5670 C3 1.221 . S
C5695 C395 1.221 . S
C5700 C17 1.221 . S
C5725 C31 1.221 . S
C5730 C409 1.221 . S
C5755 C423 1.221 . S
C5760 C45 1.221 . S
C5785 C353 1.221 . S
C5790 C59 1.221 . S
C5815 C73 1.221 . S
C5820 C367 1.221 . S
C5845 C87 1.221 . S
C5850 C381 1.221 . S
C5875 C339 1.221 . S
C5880 C101 1.221 . S
C5905 C619 1.221 . S
C5910 C115 1.221 . S
C5935 C129 1.221 . S
C5940 C577 1.221 . S
C5965 C143 1.221 . S
C5970 C591 1.221 . S
C5995 C605 1.221 . S
C6000 C157 1.221 . S
C6025 C171 1.221 . S
C6030 C661 1.221 . S
C6055 C633 1.221 . S
C6060 C185 1.221 . S
C6085 C647 1.221 . S
C6090 C199 1.221 . S
C6115 C213 1.221 . S
C6120 C563 1.221 . S
C6145 C227 1.221 . S
C6150 C549 1.221 . S
C6175 C241 1.221 . S
C6180 C465 1.221 . S
C6205 C255 1.221 . S
C6210 C479 1.221 . S
C6235 C493 1.221 . S
C6240 C269 1.221 . S
C6265 C451 1.221 . S
C6270 C283 1.221 . S
C6295 C297 1.221 . S
C6300 C521 1.221 . S
C6325 C311 1.221 . S
C6330 C535 1.221 . S
C6355 C325 1.221 . S
C6360 C507 1.221 . S
C6385 C675 1.221 . S
C6390 C1109 1.221 . S
C6415 C689 1.221 . S
C6420 C1067 1.221 . S
C6445 C703 1.221 . S
C6450 C1081 1.221 . S
C6475 C1095 1.221 . S
C6480 C717 1.221 . S
C6505 C1025 1.221 . S
C6510 C731 1.221 . S
C6535 C1039 1.221 . S
C6540 C745 1.221 . S
C6565 C759 1.221 . S
C6570 C1053 1.221 . S
C6595 C1011 1.221 . S
C6600 C773 1.221 . S
C6625 C1291 1.221 . S
C6630 C787 1.221 . S
C6655 C1249 1.221 . S
C6660 C801 1.221 . S
C6685 C1263 1.221 . S
C6690 C815 1.221 . S
C6715 C1277 1.221 . S
C6720 C829 1.221 . S
C6745 C1333 1.221 . S
C6750 C843 1.221 . S
C6775 C1305 1.221 . S
C6780 C857 1.221 . S
C6805 C1319 1.221 . S
C6810 C871 1.221 . S
C6835 C1235 1.221 . S
C6840 C885 1.221 . S
C6865 C899 1.221 . S
C6870 C1221 1.221 . S
C6895 C1137 1.221 . S
C6900 C913 1.221 . S
C6925 C1151 1.221 . S
C6930 C927 1.221 . S
C6955 C1165 1.221 . S
C6960 C941 1.221 . S
C6985 C1123 1.221 . S
C6990 C955 1.221 . S
C7015 C1193 1.221 . S
C7020 C969 1.221 . S
C7045 C1207 1.221 . S
C7050 C983 1.221 . S
C7075 C1179 1.221 . S
C7080 C997 1.221 . S
