# Generated by pormake.
# Topology npo, (4)-cn, num edge types: 1
# Building blocks:
#     Node 0, Type 0, BuildingBlock: QUQFOY_clean_sbu_1, # of connection points: 4
#     Node 1, Type 0, BuildingBlock: QUQFOY_clean_sbu_1, # of connection points: 4
#     Node 2, Type 0, BuildingBlock: QUQFOY_clean_sbu_1, # of connection points: 4
#     Node 3, Type 0, BuildingBlock: QUQFOY_clean_sbu_1, # of connection points: 4
#     Node 4, Type 0, BuildingBlock: QUQFOY_clean_sbu_1, # of connection points: 4
#     Node 5, Type 0, BuildingBlock: QUQFOY_clean_sbu_1, # of connection points: 4
#     Edge 6, Type (0, 0), BuildingBlock: MIFKUJ_clean_linker_0, # of connection points: 2
#     Edge 7, Type (0, 0), BuildingBlock: MIFKUJ_clean_linker_0, # of connection points: 2
#     Edge 8, Type (0, 0), BuildingBlock: MIFKUJ_clean_linker_0, # of connection points: 2
#     Edge 9, Type (0, 0), BuildingBlock: MIFKUJ_clean_linker_0, # of connection points: 2
#     Edge 10, Type (0, 0), BuildingBlock: MIFKUJ_clean_linker_0, # of connection points: 2
#     Edge 11, Type (0, 0), BuildingBlock: MIFKUJ_clean_linker_0, # of connection points: 2
#     Edge 12, Type (0, 0), BuildingBlock: MIFKUJ_clean_linker_0, # of connection points: 2
#     Edge 13, Type (0, 0), BuildingBlock: MIFKUJ_clean_linker_0, # of connection points: 2
#     Edge 14, Type (0, 0), BuildingBlock: MIFKUJ_clean_linker_0, # of connection points: 2
#     Edge 15, Type (0, 0), BuildingBlock: MIFKUJ_clean_linker_0, # of connection points: 2
#     Edge 16, Type (0, 0), BuildingBlock: MIFKUJ_clean_linker_0, # of connection points: 2
#     Edge 17, Type (0, 0), BuildingBlock: MIFKUJ_clean_linker_0, # of connection points: 2
# Relax obj value: 0.271
# Max RMSD: 0.244
# Mean RMSD: 0.244
data_MOF--net-npo--node1-QUQFOY_clean_sbu_1--edge1-MIFKUJ_clean_linker_0
_symmetry_space_group_name_H-M    P1
_symmetry_Int_Tables_number       1
_symmetry_cell_setting            triclinic
loop_
_symmetry_equiv_pos_as_xyz
'x, y, z'
_cell_length_a     56.372479
_cell_length_b     56.277069
_cell_length_c     35.70931
_cell_angle_alpha  89.986128
_cell_angle_beta   89.93136
_cell_angle_gamma 120.06236
loop_
_atom_site_label
_atom_site_type_symbol
_atom_site_fract_x
_atom_site_fract_y
_atom_site_fract_z
_atom_type_partial_charge
O0 O 0.58816 0.13971 0.27713 0.0
Cd1 Cd 0.54654 0.11672 0.28697 0.0
Cd2 Cd 0.54649 0.11815 0.20763 0.0
O3 O 0.58808 0.13817 0.21543 0.0
O4 O 0.54575 0.11259 0.34214 0.0
O5 O 0.52941 0.07724 0.30347 0.0
C6 C 0.53416 0.08648 0.33736 0.0
C7 C 0.53066 0.08726 0.15799 0.0
C8 C 0.60101 0.14557 0.24618 0.0
C9 C 0.51726 0.14255 0.24924 0.0
O10 O 0.52586 0.13898 0.21806 0.0
O11 O 0.52244 0.13426 0.27953 0.0
O12 O 0.54324 0.11338 0.15257 0.0
O13 O 0.52666 0.07843 0.19211 0.0
O14 O 0.45451 0.59596 0.77941 0.0
Cd15 Cd 0.43236 0.55558 0.79573 0.0
Cd16 Cd 0.43059 0.54636 0.71781 0.0
O17 O 0.45126 0.58862 0.71852 0.0
O18 O 0.43772 0.55692 0.85066 0.0
O19 O 0.45118 0.53509 0.81226 0.0
C20 C 0.44909 0.54219 0.84598 0.0
C21 C 0.44388 0.52845 0.66846 0.0
C22 C 0.45951 0.60504 0.7461 0.0
C23 C 0.37701 0.52375 0.76013 0.0
O24 O 0.38936 0.5252 0.72974 0.0
O25 O 0.39046 0.53523 0.7896 0.0
O26 O 0.42923 0.53976 0.66317 0.0
O27 O 0.45094 0.52688 0.70234 0.0
O28 O 0.85948 0.39412 0.20335 0.0
Cd29 Cd 0.88127 0.4365 0.20433 0.0
Cd30 Cd 0.87774 0.42553 0.28038 0.0
O31 O 0.86468 0.38637 0.26237 0.0
O32 O 0.88607 0.44485 0.15006 0.0
O33 O 0.92096 0.45705 0.18852 0.0
C34 C 0.91212 0.45652 0.15501 0.0
C35 C 0.90725 0.44113 0.33139 0.0
C36 C 0.85641 0.37754 0.22955 0.0
C37 C 0.84863 0.45382 0.25107 0.0
O38 O 0.85053 0.43979 0.27751 0.0
O39 O 0.86148 0.45711 0.22057 0.0
O40 O 0.88183 0.42271 0.33502 0.0
O41 O 0.91623 0.45064 0.29826 0.0
O42 O 0.46194 0.86052 0.71348 0.0
Cd43 Cd 0.44295 0.88386 0.71358 0.0
Cd44 Cd 0.44846 0.8785 0.79053 0.0
O45 O 0.47116 0.86129 0.77356 0.0
O46 O 0.44005 0.8881 0.65896 0.0
O47 O 0.46394 0.92336 0.69649 0.0
C48 C 0.45556 0.91416 0.66313 0.0
C49 C 0.4646 0.90952 0.83984 0.0
C50 C 0.47282 0.85447 0.74023 0.0
C51 C 0.39171 0.85426 0.75998 0.0
O52 O 0.40659 0.8549 0.78702 0.0
O53 O 0.4024 0.86629 0.72932 0.0
O54 O 0.45496 0.88365 0.84517 0.0
O55 O 0.4657 0.91804 0.80593 0.0
O56 O 0.53967 0.40035 0.29172 0.0
Cd57 Cd 0.5577 0.44257 0.29133 0.0
Cd58 Cd 0.54645 0.43195 0.2168 0.0
O59 O 0.52051 0.39286 0.23601 0.0
O60 O 0.56173 0.45112 0.34552 0.0
O61 O 0.5357 0.45981 0.30824 0.0
C62 C 0.54499 0.46018 0.34142 0.0
C63 C 0.53089 0.44741 0.16736 0.0
C64 C 0.52336 0.38393 0.26729 0.0
C65 C 0.60534 0.46148 0.24111 0.0
O66 O 0.58814 0.44636 0.2165 0.0
O67 O 0.59719 0.46543 0.27235 0.0
O68 O 0.53809 0.42922 0.16259 0.0
O69 O 0.53211 0.45671 0.20079 0.0
O70 O 0.13383 0.54395 0.76979 0.0
Cd71 Cd 0.11278 0.56491 0.77713 0.0
Cd72 Cd 0.1131 0.56226 0.69906 0.0
O73 O 0.13138 0.53922 0.70842 0.0
O74 O 0.11005 0.56455 0.83245 0.0
O75 O 0.07374 0.54502 0.79562 0.0
C76 C 0.08383 0.55079 0.82901 0.0
C77 C 0.07972 0.54675 0.65287 0.0
C78 C 0.13874 0.53482 0.74 0.0
C79 C 0.14102 0.61806 0.73462 0.0
O80 O 0.13668 0.60408 0.70497 0.0
O81 O 0.13209 0.60636 0.766 0.0
O82 O 0.10539 0.55846 0.6447 0.0
O83 O 0.07275 0.54364 0.68778 0.0
H84 H 0.47962 0.13896 0.30062 0.0
H85 H 0.46077 0.16966 0.30677 0.0
H86 H 0.50718 0.21483 0.2095 0.0
H87 H 0.52417 0.18313 0.20186 0.0
H88 H 0.48306 0.21752 0.3247 0.0
H89 H 0.48728 0.25136 0.16681 0.0
H90 H 0.47238 0.22881 0.10536 0.0
H91 H 0.4149 0.15329 0.15912 0.0
H92 H 0.42911 0.17546 0.22092 0.0
H93 H 0.54284 0.35643 0.30704 0.0
H94 H 0.52409 0.30713 0.30992 0.0
H95 H 0.4534 0.29459 0.24666 0.0
H96 H 0.47352 0.34442 0.2412 0.0
H97 H 0.46712 0.26446 0.21845 0.0
H98 H 0.4498 0.27158 0.34349 0.0
H99 H 0.45602 0.28981 0.40769 0.0
H100 H 0.52319 0.2754 0.42431 0.0
H101 H 0.51771 0.25748 0.36005 0.0
C102 C 0.48512 0.15506 0.28005 0.0
C103 C 0.50328 0.15871 0.25073 0.0
C104 C 0.4744 0.17262 0.2836 0.0
C105 C 0.48219 0.1945 0.25838 0.0
C106 C 0.4999 0.19763 0.22862 0.0
C107 C 0.50991 0.17963 0.22443 0.0
C108 C 0.475 0.21619 0.26547 0.0
C109 C 0.47911 0.22752 0.30156 0.0
C110 C 0.46816 0.22845 0.23593 0.0
C111 C 0.45932 0.21512 0.19863 0.0
C112 C 0.47128 0.23002 0.16558 0.0
C113 C 0.463 0.21727 0.13065 0.0
C114 C 0.44272 0.18963 0.12834 0.0
C115 C 0.43064 0.17469 0.16095 0.0
C116 C 0.43883 0.18733 0.19595 0.0
C117 C 0.52305 0.34314 0.29437 0.0
C118 C 0.50965 0.35414 0.2738 0.0
C119 C 0.5121 0.31482 0.29637 0.0
C120 C 0.48694 0.29682 0.27913 0.0
C121 C 0.47283 0.3079 0.26017 0.0
C122 C 0.48427 0.33634 0.25711 0.0
C123 C 0.47759 0.26699 0.27698 0.0
C124 C 0.47016 0.25403 0.24188 0.0
C125 C 0.47983 0.25247 0.3079 0.0
C126 C 0.48331 0.26315 0.34681 0.0
C127 C 0.46599 0.2724 0.36074 0.0
C128 C 0.46939 0.28269 0.39718 0.0
C129 C 0.48998 0.28375 0.42007 0.0
C130 C 0.50721 0.27451 0.40657 0.0
C131 C 0.50392 0.26421 0.37015 0.0
H132 H 0.49258 0.29173 0.44826 0.0
H133 H 0.43636 0.1798 0.10127 0.0
H134 H 0.34184 0.49655 0.70257 0.0
H135 H 0.29373 0.48392 0.69823 0.0
H136 H 0.29578 0.50993 0.81235 0.0
H137 H 0.34387 0.52241 0.81719 0.0
H138 H 0.24452 0.46473 0.79186 0.0
H139 H 0.31133 0.55557 0.74641 0.0
H140 H 0.35035 0.58781 0.70714 0.0
H141 H 0.3051 0.5474 0.60794 0.0
H142 H 0.26594 0.51469 0.6467 0.0
H143 H 0.16251 0.52675 0.8017 0.0
H144 H 0.1951 0.51033 0.803 0.0
H145 H 0.18436 0.4946 0.6842 0.0
H146 H 0.15206 0.51153 0.68246 0.0
H147 H 0.23622 0.52668 0.70059 0.0
H148 H 0.16521 0.44172 0.74767 0.0
H149 H 0.12648 0.41059 0.78807 0.0
H150 H 0.17853 0.43995 0.88477 0.0
H151 H 0.2175 0.47157 0.84505 0.0
C152 C 0.33193 0.49901 0.72708 0.0
C153 C 0.34685 0.51106 0.75998 0.0
C154 C 0.30441 0.49168 0.72455 0.0
C155 C 0.29144 0.49645 0.75476 0.0
C156 C 0.30551 0.50615 0.78872 0.0
C157 C 0.33304 0.51343 0.79133 0.0
C158 C 0.26499 0.49546 0.74928 0.0
C159 C 0.24255 0.4782 0.77197 0.0
C160 C 0.26245 0.5127 0.72274 0.0
C161 C 0.28587 0.5325 0.69943 0.0
C162 C 0.3098 0.55345 0.71623 0.0
C163 C 0.33192 0.57182 0.69408 0.0
C164 C 0.33024 0.56959 0.65508 0.0
C165 C 0.30639 0.54906 0.63816 0.0
C166 C 0.28423 0.53061 0.66019 0.0
C167 C 0.16663 0.5193 0.77594 0.0
C168 C 0.15499 0.52084 0.74187 0.0
C169 C 0.18512 0.50967 0.77681 0.0
C170 C 0.19208 0.50112 0.74372 0.0
C171 C 0.17926 0.50111 0.71005 0.0
C172 C 0.16085 0.51085 0.70912 0.0
C173 C 0.21547 0.49609 0.74347 0.0
C174 C 0.23764 0.51251 0.71983 0.0
C175 C 0.21765 0.47816 0.76926 0.0
C176 C 0.19427 0.45916 0.79335 0.0
C177 C 0.16837 0.44171 0.77758 0.0
C178 C 0.14637 0.42394 0.80037 0.0
C179 C 0.15003 0.42332 0.83897 0.0
C180 C 0.17572 0.44045 0.85486 0.0
C181 C 0.19779 0.45827 0.83221 0.0
H182 H 0.13298 0.40955 0.85656 0.0
H183 H 0.34738 0.5838 0.63797 0.0
H184 H 0.63563 0.15538 0.18709 0.0
H185 H 0.68483 0.18827 0.1845 0.0
H186 H 0.68376 0.20756 0.30113 0.0
H187 H 0.63464 0.17461 0.30416 0.0
H188 H 0.70365 0.25271 0.25254 0.0
H189 H 0.71708 0.17664 0.27854 0.0
H190 H 0.71089 0.13049 0.26897 0.0
H191 H 0.7459 0.15374 0.15894 0.0
H192 H 0.75194 0.19993 0.16763 0.0
H193 H 0.85061 0.33611 0.27557 0.0
H194 H 0.81268 0.28871 0.27451 0.0
H195 H 0.78478 0.30423 0.16994 0.0
H196 H 0.82274 0.35148 0.17035 0.0
H197 H 0.78159 0.24001 0.2157 0.0
H198 H 0.72417 0.29732 0.19872 0.0
H199 H 0.73147 0.34412 0.20672 0.0
H200 H 0.78421 0.35718 0.30056 0.0
H201 H 0.77677 0.3103 0.29349 0.0
C202 C 0.64594 0.16628 0.21236 0.0
C203 C 0.6312 0.16265 0.24573 0.0
C204 C 0.67406 0.1849 0.21087 0.0
C205 C 0.6878 0.20024 0.24263 0.0
C206 C 0.67342 0.1958 0.27637 0.0
C207 C 0.64538 0.17699 0.27802 0.0
C208 C 0.71623 0.22324 0.23945 0.0
C209 C 0.72066 0.24982 0.2448 0.0
C210 C 0.73833 0.21945 0.22893 0.0
C211 C 0.73472 0.19169 0.22362 0.0
C212 C 0.72322 0.17185 0.25216 0.0
C213 C 0.7198 0.14569 0.24692 0.0
C214 C 0.72794 0.13916 0.21333 0.0
C215 C 0.73958 0.15881 0.18493 0.0
C216 C 0.74304 0.18499 0.19002 0.0
C217 C 0.83704 0.32915 0.2516 0.0
C218 C 0.83923 0.34768 0.2235 0.0
C219 C 0.81555 0.30199 0.2509 0.0
C220 C 0.79593 0.29324 0.22236 0.0
C221 C 0.79986 0.31074 0.19212 0.0
C222 C 0.82149 0.33778 0.19255 0.0
C223 C 0.76864 0.26913 0.22866 0.0
C224 C 0.76445 0.24261 0.22369 0.0
C225 C 0.74659 0.27278 0.23965 0.0
C226 C 0.75013 0.30047 0.24533 0.0
C227 C 0.73716 0.31014 0.2212 0.0
C228 C 0.74134 0.33667 0.22556 0.0
C229 C 0.75837 0.35365 0.25406 0.0
C230 C 0.77108 0.34405 0.27844 0.0
C231 C 0.76689 0.31751 0.27426 0.0
H232 H 0.76168 0.37422 0.25729 0.0
H233 H 0.72528 0.11891 0.20934 0.0
H234 H 0.49326 0.83343 0.79154 0.0
H235 H 0.50493 0.79779 0.7812 0.0
H236 H 0.49178 0.80001 0.66252 0.0
H237 H 0.47943 0.83539 0.67274 0.0
H238 H 0.46153 0.75036 0.68859 0.0
H239 H 0.55572 0.81669 0.69748 0.0
H240 H 0.59744 0.85621 0.72304 0.0
H241 H 0.58766 0.81201 0.82527 0.0
H242 H 0.54565 0.77236 0.80059 0.0
H243 H 0.47221 0.63159 0.67855 0.0
H244 H 0.48829 0.68014 0.66735 0.0
H245 H 0.49359 0.69462 0.78644 0.0
H246 H 0.47782 0.64621 0.79802 0.0
H247 H 0.53502 0.73874 0.74666 0.0
H248 H 0.43586 0.67889 0.74295 0.0
H249 H 0.39315 0.63944 0.71935 0.0
H250 H 0.41252 0.67272 0.60802 0.0
H251 H 0.45556 0.71221 0.63095 0.0
C252 C 0.49345 0.82684 0.7631 0.0
C253 C 0.48498 0.83694 0.73304 0.0
C254 C 0.50039 0.80658 0.75717 0.0
C255 C 0.49934 0.79628 0.72104 0.0
C256 C 0.49273 0.80768 0.69063 0.0
C257 C 0.48564 0.82787 0.69655 0.0
C258 C 0.50082 0.77091 0.7162 0.0
C259 C 0.47808 0.74811 0.70024 0.0
C260 C 0.52208 0.76776 0.73214 0.0
C261 C 0.54742 0.79155 0.74718 0.0
C262 C 0.56234 0.81545 0.72551 0.0
C263 C 0.58607 0.83787 0.73984 0.0
C264 C 0.59518 0.83663 0.77576 0.0
C265 C 0.58059 0.81294 0.79743 0.0
C266 C 0.55684 0.79045 0.78325 0.0
C267 C 0.4773 0.64518 0.7024 0.0
C268 C 0.47323 0.63494 0.73922 0.0
C269 C 0.48656 0.67292 0.69589 0.0
C270 C 0.49174 0.69081 0.72608 0.0
C271 C 0.48969 0.6811 0.76279 0.0
C272 C 0.48047 0.65337 0.76934 0.0
C273 C 0.49555 0.71846 0.71985 0.0
C274 C 0.51907 0.74145 0.73391 0.0
C275 C 0.47499 0.7219 0.7023 0.0
C276 C 0.44905 0.69828 0.68856 0.0
C277 C 0.43109 0.67767 0.7134 0.0
C278 C 0.40683 0.65533 0.70016 0.0
C279 C 0.40017 0.65352 0.66219 0.0
C280 C 0.41774 0.67411 0.63741 0.0
C281 C 0.44206 0.69647 0.6505 0.0
H282 H 0.38136 0.63623 0.652 0.0
H283 H 0.61355 0.85402 0.7868 0.0
H284 H 0.6285 0.44 0.19565 0.0
H285 H 0.67603 0.45068 0.19607 0.0
H286 H 0.69662 0.51742 0.27303 0.0
H287 H 0.64852 0.50566 0.27438 0.0
H288 H 0.72432 0.48845 0.18092 0.0
H289 H 0.74338 0.52161 0.33519 0.0
H290 H 0.7174 0.51693 0.39311 0.0
H291 H 0.65104 0.44015 0.35392 0.0
H292 H 0.67677 0.44426 0.29601 0.0
H293 H 0.85218 0.49885 0.21692 0.0
H294 H 0.8174 0.51277 0.21646 0.0
H295 H 0.76643 0.44496 0.28973 0.0
H296 H 0.80175 0.43209 0.29198 0.0
H297 H 0.75933 0.48462 0.30687 0.0
H298 H 0.76092 0.44221 0.18952 0.0
H299 H 0.78218 0.43787 0.13141 0.0
H300 H 0.79909 0.51787 0.09631 0.0
H301 H 0.77818 0.52278 0.15446 0.0
C302 C 0.64324 0.45726 0.21214 0.0
C303 C 0.63479 0.47169 0.2355 0.0
C304 C 0.67047 0.46344 0.21229 0.0
C305 C 0.68982 0.48445 0.23529 0.0
C306 C 0.6819 0.50062 0.25588 0.0
C307 C 0.65448 0.49398 0.2565 0.0
C308 C 0.71722 0.48724 0.24037 0.0
C309 C 0.73214 0.48794 0.20849 0.0
C310 C 0.72736 0.48628 0.27631 0.0
C311 C 0.71184 0.48345 0.31115 0.0
C312 C 0.72327 0.50373 0.33902 0.0
C313 C 0.70859 0.50117 0.37182 0.0
C314 C 0.68254 0.47831 0.37712 0.0
C315 C 0.67117 0.45789 0.34972 0.0
C316 C 0.68578 0.46033 0.31691 0.0
C317 C 0.83373 0.4873 0.23345 0.0
C318 C 0.82949 0.4643 0.25427 0.0
C319 C 0.81385 0.49517 0.23304 0.0
C320 C 0.78901 0.47955 0.25236 0.0
C321 C 0.78541 0.45738 0.27461 0.0
C322 C 0.80557 0.44997 0.27582 0.0
C323 C 0.76582 0.48468 0.24738 0.0
C324 C 0.75186 0.48575 0.27931 0.0
C325 C 0.75587 0.48596 0.21145 0.0
C326 C 0.76832 0.483 0.17647 0.0
C327 C 0.76933 0.45893 0.16949 0.0
C328 C 0.78129 0.45636 0.13656 0.0
C329 C 0.79206 0.47762 0.11025 0.0
C330 C 0.7908 0.50145 0.11676 0.0
C331 C 0.7789 0.50414 0.14968 0.0
H332 H 0.80132 0.4756 0.08477 0.0
H333 H 0.6712 0.47639 0.4025 0.0
H334 H 0.36299 0.80686 0.79874 0.0
H335 H 0.31393 0.77482 0.79594 0.0
H336 H 0.30335 0.83198 0.72704 0.0
H337 H 0.35306 0.86326 0.72747 0.0
H338 H 0.26934 0.77009 0.8141 0.0
H339 H 0.25133 0.79808 0.66667 0.0
H340 H 0.277 0.82055 0.60894 0.0
H341 H 0.3364 0.7966 0.63531 0.0
H342 H 0.31092 0.77378 0.69295 0.0
H343 H 0.13883 0.65711 0.7776 0.0
H344 H 0.17349 0.70597 0.781 0.0
H345 H 0.2203 0.69406 0.69463 0.0
H346 H 0.18478 0.64618 0.68916 0.0
H347 H 0.22946 0.74155 0.68716 0.0
H348 H 0.22849 0.68909 0.79666 0.0
H349 H 0.20767 0.66059 0.85292 0.0
H350 H 0.19476 0.72344 0.89998 0.0
H351 H 0.21528 0.75218 0.84377 0.0
C352 C 0.35015 0.81271 0.78334 0.0
C353 C 0.36174 0.83727 0.76287 0.0
C354 C 0.32204 0.79444 0.78188 0.0
C355 C 0.30485 0.80067 0.76066 0.0
C356 C 0.31621 0.82631 0.74268 0.0
C357 C 0.34455 0.84422 0.74309 0.0
C358 C 0.27576 0.77913 0.75507 0.0
C359 C 0.26053 0.76403 0.78633 0.0
C360 C 0.26408 0.77112 0.71891 0.0
C361 C 0.27946 0.78463 0.68429 0.0
C362 C 0.26986 0.79762 0.66008 0.0
C363 C 0.28436 0.8104 0.6274 0.0
C364 C 0.30838 0.81011 0.61855 0.0
C365 C 0.31786 0.79692 0.64227 0.0
C366 C 0.30341 0.78407 0.67494 0.0
C367 C 0.15625 0.66525 0.75879 0.0
C368 C 0.15937 0.64797 0.73337 0.0
C369 C 0.17612 0.69308 0.76088 0.0
C370 C 0.19998 0.70364 0.73886 0.0
C371 C 0.20216 0.68658 0.71197 0.0
C372 C 0.18188 0.65911 0.70894 0.0
C373 C 0.22403 0.73128 0.7459 0.0
C374 C 0.23802 0.74791 0.71501 0.0
C375 C 0.23534 0.73977 0.78217 0.0
C376 C 0.22304 0.72257 0.8159 0.0
C377 C 0.22106 0.69673 0.81895 0.0
C378 C 0.20933 0.68056 0.85081 0.0
C379 C 0.1998 0.69016 0.87995 0.0
C380 C 0.20207 0.716 0.87734 0.0
C381 C 0.21374 0.73223 0.8455 0.0
H382 H 0.19073 0.67761 0.90459 0.0
H383 H 0.31959 0.82004 0.59327 0.0
H384 H 0.48475 0.9651 0.83922 0.0
H385 H 0.49612 0.99547 0.89357 0.0
H386 H 0.47465 0.9269 0.96739 0.0
H387 H 0.4631 0.89648 0.91352 0.0
H388 H 0.45158 0.95688 0.98948 0.0
H389 H 0.54073 0.97359 0.9525 0.0
H390 H 0.579 0.9859 0.90866 0.0
H391 H 0.58709 0.06515 0.8914 0.0
H392 H 0.54859 0.05316 0.93478 0.0
H393 H 0.50846 0.03137 0.15865 0.0
H394 H 0.49673 0.00095 0.10431 0.0
H395 H 0.52141 0.07015 0.03042 0.0
H396 H 0.53354 0.10061 0.08429 0.0
H397 H 0.54274 0.03977 0.0082 0.0
H398 H 0.45388 0.02349 0.04483 0.0
H399 H 0.41537 0.01141 0.08814 0.0
H400 H 0.40635 0.93178 0.10545 0.0
H401 H 0.44507 0.94353 0.0626 0.0
C402 C 0.48265 0.95656 0.86702 0.0
C403 C 0.47304 0.92842 0.87209 0.0
C404 C 0.48918 0.97391 0.898 0.0
C405 C 0.4863 0.96339 0.93444 0.0
C406 C 0.47694 0.93538 0.93949 0.0
C407 C 0.47046 0.91807 0.90864 0.0
C408 C 0.49247 0.98138 0.96747 0.0
C409 C 0.47161 0.97483 0.99387 0.0
C410 C 0.5184 0.00509 0.97261 0.0
C411 C 0.54159 0.01237 0.94659 0.0
C412 C 0.55052 0.99356 0.93912 0.0
C413 C 0.57228 0.00049 0.9144 0.0
C414 C 0.58542 0.02626 0.89718 0.0
C415 C 0.57687 0.04518 0.90472 0.0
C416 C 0.55509 0.03833 0.9294 0.0
C417 C 0.51119 0.04003 0.13082 0.0
C418 C 0.52195 0.06836 0.12573 0.0
C419 C 0.50443 0.02265 0.09983 0.0
C420 C 0.50809 0.03332 0.06335 0.0
C421 C 0.51851 0.06153 0.05831 0.0
C422 C 0.52535 0.07888 0.08917 0.0
C423 C 0.50183 0.01531 0.03027 0.0
C424 C 0.52269 0.02184 0.00385 0.0
C425 C 0.47586 0.99163 0.02505 0.0
C426 C 0.45256 0.9845 0.05081 0.0
C427 C 0.44383 0.00349 0.05811 0.0
C428 C 0.42194 -0.00331 0.08253 0.0
C429 C 0.40847 0.97088 0.09962 0.0
C430 C 0.41683 0.95178 0.09224 0.0
C431 C 0.43873 0.9585 0.06787 0.0
H432 H 0.39152 0.96564 0.11851 0.0
H433 H 0.60227 0.0316 0.87805 0.0
H434 H 0.50509 0.47437 0.3449 0.0
H435 H 0.48821 0.4862 0.40106 0.0
H436 H 0.54777 0.47876 0.46817 0.0
H437 H 0.56442 0.46656 0.41255 0.0
H438 H 0.49803 0.45172 0.49941 0.0
H439 H 0.55596 0.54149 0.44711 0.0
H440 H 0.57283 0.577 0.39786 0.0
H441 H 0.49367 0.57037 0.39165 0.0
H442 H 0.47622 0.53454 0.44053 0.0
H443 H 0.48285 0.5129 0.66669 0.0
H444 H 0.50015 0.50075 0.61119 0.0
H445 H 0.44235 0.50971 0.54208 0.0
H446 H 0.42545 0.52235 0.59696 0.0
H447 H 0.49179 0.53618 0.51213 0.0
H448 H 0.43358 0.44626 0.56376 0.0
H449 H 0.41634 0.41049 0.61266 0.0
H450 H 0.49544 0.41706 0.61985 0.0
H451 H 0.51326 0.45315 0.5713 0.0
C452 C 0.51474 0.47553 0.37158 0.0
C453 C 0.53603 0.4695 0.37434 0.0
C454 C 0.50512 0.48232 0.4036 0.0
C455 C 0.51684 0.48344 0.43873 0.0
C456 C 0.53839 0.4779 0.44136 0.0
C457 C 0.54793 0.47103 0.40949 0.0
C458 C 0.50614 0.48953 0.47304 0.0
C459 C 0.49698 0.47036 0.50243 0.0
C460 C 0.50424 0.51354 0.47654 0.0
C461 C 0.51472 0.53514 0.44722 0.0
C462 C 0.54209 0.54745 0.43503 0.0
C463 C 0.55177 0.56766 0.40722 0.0
C464 C 0.53432 0.57589 0.39157 0.0
C465 C 0.50716 0.56396 0.40376 0.0
C466 C 0.49737 0.54371 0.43155 0.0
C467 C 0.47368 0.51198 0.6397 0.0
C468 C 0.4529 0.51867 0.63612 0.0
C469 C 0.48353 0.505 0.60806 0.0
C470 C 0.47247 0.50427 0.57253 0.0
C471 C 0.45127 0.5103 0.56917 0.0
C472 C 0.44159 0.51744 0.60061 0.0
C473 C 0.48357 0.49832 0.53849 0.0
C474 C 0.49283 0.51753 0.50915 0.0
C475 C 0.48551 0.47432 0.53501 0.0
C476 C 0.47482 0.45261 0.56417 0.0
C477 C 0.44736 0.44024 0.57598 0.0
C478 C 0.43747 0.41987 0.6036 0.0
C479 C 0.4548 0.41156 0.61943 0.0
C480 C 0.48205 0.42355 0.6076 0.0
C481 C 0.49205 0.44394 0.58002 0.0
H482 H 0.44711 0.39579 0.6408 0.0
H483 H 0.54185 0.59154 0.37004 0.0
H484 H 0.02778 0.52562 0.83264 0.0
H485 H -0.00074 0.51119 0.88925 0.0
H486 H 0.07175 0.54152 0.9576 0.0
H487 H 0.10028 0.55587 0.90152 0.0
H488 H 0.03153 0.49014 0.97873 0.0
H489 H 0.04049 0.57788 0.95127 0.0
H490 H 0.03772 0.61235 0.91177 0.0
H491 H 0.95105 0.5585 0.89885 0.0
H492 H 0.95338 0.52353 0.93786 0.0
H493 H 0.96828 0.48205 0.15456 0.0
H494 H -0.00138 0.50006 0.09994 0.0
H495 H 0.92845 0.47517 0.02835 0.0
H496 H 0.8982 0.45765 0.08248 0.0
H497 H 0.9687 0.52511 0.00972 0.0
H498 H 0.95953 0.43685 0.0348 0.0
H499 H 0.96176 0.40167 0.07338 0.0
H500 H 0.04808 0.45557 0.08972 0.0
H501 H 0.04628 0.49123 0.05163 0.0
C502 C 0.0376 0.5292 0.85974 0.0
C503 C 0.06624 0.54192 0.86265 0.0
C504 C 0.02132 0.52105 0.892 0.0
C505 C 0.03348 0.52549 0.92752 0.0
C506 C 0.06202 0.53793 0.93042 0.0
C507 C 0.07827 0.54619 0.89831 0.0
C508 C 0.01654 0.51698 0.96184 0.0
C509 C 0.01804 0.49804 0.98581 0.0
C510 C -0.00137 0.52695 0.97055 0.0
C511 C -0.00284 0.54798 0.94717 0.0
C512 C 0.02088 0.57329 0.93974 0.0
C513 C 0.01938 0.59294 0.9175 0.0
C514 C -0.00576 0.58759 0.90273 0.0
C515 C 0.97052 0.5626 0.91026 0.0
C516 C 0.97191 0.54287 0.93247 0.0
C517 C 0.95938 0.48055 0.12719 0.0
C518 C 0.93087 0.46833 0.12279 0.0
C519 C 0.9767 0.49075 0.09604 0.0
C520 C 0.96571 0.48867 0.06008 0.0
C521 C 0.93733 0.47699 0.05583 0.0
C522 C 0.92008 0.46689 0.08684 0.0
C523 C 0.98358 0.49814 0.02659 0.0
C524 C 0.98225 0.51727 0.00274 0.0
C525 C 0.00156 0.48823 0.01788 0.0
C526 C 0.00271 0.46681 0.04072 0.0
C527 C 0.97894 0.44128 0.04688 0.0
C528 C 0.98014 0.42124 0.06861 0.0
C529 C 0.00503 0.42641 0.08409 0.0
C530 C 0.0288 0.45161 0.07777 0.0
C531 C 0.02771 0.47174 0.0561 0.0
H532 H 0.00592 0.41087 0.1009 0.0
H533 H 0.99312 0.60283 0.88552 0.0
H534 H 0.54599 0.10127 0.41038 0.0
H535 H 0.533 0.0714 0.46502 0.0
H536 H 0.49231 0.00023 0.39367 0.0
H537 H 0.50517 0.03016 0.33843 0.0
H538 H 0.46095 -0.00203 0.45464 0.0
H539 H 0.55225 0.01601 0.43156 0.0
H540 H 0.60187 0.0448 0.4199 0.0
H541 H 0.61194 0.08472 0.52592 0.0
H542 H 0.56229 0.05643 0.538 0.0
H543 H 0.4423 0.89921 0.59041 0.0
H544 H 0.45584 0.92878 0.5355 0.0
H545 H 0.50019 5e-05 0.60583 0.0
H546 H 0.48705 0.97035 0.66131 0.0
H547 H 0.52975 0.0022 0.54508 0.0
H548 H 0.4387 0.98469 0.56827 0.0
H549 H 0.38908 0.95625 0.58018 0.0
H550 H 0.37842 0.91591 0.47437 0.0
H551 H 0.42807 0.94384 0.46204 0.0
C552 C 0.53434 0.07927 0.40618 0.0
C553 C 0.52661 0.06804 0.37007 0.0
C554 C 0.52705 0.06224 0.43747 0.0
C555 C 0.51196 0.03365 0.4333 0.0
C556 C 0.50405 0.02229 0.39735 0.0
C557 C 0.51146 0.03937 0.36589 0.0
C558 C 0.50394 0.0158 0.46677 0.0
C559 C 0.47596 -0.00147 0.47414 0.0
C560 C 0.52361 0.01725 0.49266 0.0
C561 C 0.5535 0.03426 0.48552 0.0
C562 C 0.565 0.03108 0.45225 0.0
C563 C 0.59314 0.04728 0.44559 0.0
C564 C 0.61004 0.06662 0.47211 0.0
C565 C 0.59882 0.06975 0.50539 0.0
C566 C 0.57069 0.05362 0.51217 0.0
C567 C 0.45486 0.92118 0.59435 0.0
C568 C 0.46354 0.93248 0.63025 0.0
C569 C 0.46249 0.93806 0.56288 0.0
C570 C 0.47869 0.96661 0.56665 0.0
C571 C 0.48758 0.97803 0.6024 0.0
C572 C 0.48001 0.96108 0.63402 0.0
C573 C 0.48672 0.98435 0.53301 0.0
C574 C 0.51471 0.00162 0.5256 0.0
C575 C 0.46706 0.98296 0.50713 0.0
C576 C 0.43716 0.9662 0.51439 0.0
C577 C 0.42581 0.96961 0.54766 0.0
C578 C 0.39767 0.9536 0.55447 0.0
C579 C 0.38062 0.93424 0.52809 0.0
C580 C 0.39166 0.93089 0.4948 0.0
C581 C 0.4198 0.94683 0.48787 0.0
H582 H 0.35884 0.92187 0.53341 0.0
H583 H 0.63182 0.07914 0.46691 0.0
H584 H 0.47233 0.50952 0.84675 0.0
H585 H 0.48697 0.49412 0.9017 0.0
H586 H 0.46229 0.5395 0.97365 0.0
H587 H 0.44799 0.55522 0.91911 0.0
H588 H 0.51133 0.54618 0.99433 0.0
H589 H 0.42177 0.47094 0.96377 0.0
H590 H 0.38667 0.43583 0.9225 0.0
H591 H 0.43723 0.39961 0.90603 0.0
H592 H 0.4728 0.43476 0.94683 0.0
H593 H 0.51103 0.48304 0.16739 0.0
H594 H 0.49728 0.49977 0.1129 0.0
H595 H 0.51799 0.45167 0.04002 0.0
H596 H 0.53108 0.43445 0.09407 0.0
H597 H 0.4708 0.44663 0.01995 0.0
H598 H 0.56044 0.52158 0.05001 0.0
H599 H 0.59597 0.55679 0.0907 0.0
H600 H 0.54602 0.59364 0.10753 0.0
H601 H 0.51003 0.55841 0.0673 0.0
C602 C 0.47014 0.51629 0.87427 0.0
C603 C 0.45889 0.53346 0.87862 0.0
C604 C 0.47842 0.50741 0.90561 0.0
C605 C 0.47542 0.51546 0.94173 0.0
C606 C 0.46475 0.53306 0.94602 0.0
C607 C 0.45651 0.54193 0.9148 0.0
C608 C 0.48297 0.50525 0.97523 0.0
C609 C 0.50226 0.52442 0.0002 0.0
C610 C 0.47148 0.47687 0.98242 0.0
C611 C 0.45005 0.45564 0.95805 0.0
C612 C 0.42549 0.45561 0.95112 0.0
C613 C 0.4055 0.43569 0.92785 0.0
C614 C 0.40975 0.41555 0.91157 0.0
C615 C 0.43398 0.41525 0.91862 0.0
C616 C 0.45405 0.43515 0.94183 0.0
C617 C 0.51258 0.47602 0.13974 0.0
C618 C 0.52215 0.45747 0.13501 0.0
C619 C 0.50485 0.48568 0.10865 0.0
C620 C 0.50691 0.47718 0.07237 0.0
C621 C 0.51622 0.45847 0.06773 0.0
C622 C 0.52374 0.4487 0.0987 0.0
C623 C 0.49927 0.48755 0.03906 0.0
C624 C 0.47991 0.4684 0.01413 0.0
C625 C 0.51078 0.51595 0.03186 0.0
C626 C 0.53243 0.53719 0.05596 0.0
C627 C 0.55695 0.53706 0.06262 0.0
C628 C 0.57719 0.55704 0.08556 0.0
C629 C 0.57323 0.57739 0.10178 0.0
C630 C 0.54905 0.57784 0.095 0.0
C631 C 0.52873 0.55789 0.07211 0.0
H632 H 0.58892 0.59284 0.11953 0.0
H633 H 0.39425 0.40014 0.89357 0.0
H634 H 0.08772 0.56496 0.58121 0.0
H635 H 0.05518 0.54697 0.52943 0.0
H636 H 0.99327 0.4881 0.60382 0.0
H637 H 0.02577 0.50645 0.6563 0.0
H638 H 0.00281 0.46607 0.53551 0.0
H639 H 0.98295 0.53499 0.57603 0.0
H640 H -0.00662 0.5812 0.59571 0.0
H641 H 0.03062 0.61387 0.48893 0.0
H642 H 0.02079 0.56789 0.46879 0.0
H643 H 0.8956 0.41956 0.40164 0.0
H644 H 0.92368 0.43749 0.45774 0.0
H645 H 0.98696 0.50375 0.39309 0.0
H646 H 0.95886 0.48589 0.3365 0.0
H647 H 0.97431 0.5212 0.45916 0.0
H648 H -0.00346 0.45333 0.41973 0.0
H649 H 0.98709 0.40747 0.39976 0.0
H650 H 0.94638 0.37321 0.5042 0.0
H651 H 0.95524 0.41883 0.52459 0.0
C652 C 0.0671 0.54835 0.58666 0.0
C653 C 0.05923 0.537 0.62268 0.0
C654 C 0.04854 0.5382 0.55711 0.0
C655 C 0.0219 0.51631 0.56296 0.0
C656 C 0.01379 0.50507 0.59895 0.0
C657 C 0.03227 0.5156 0.6288 0.0
C658 C 0.00326 0.50444 0.53073 0.0
C659 C -0.00395 0.47786 0.51919 0.0
C660 C -0.0047 0.52027 0.50902 0.0
C661 C 0.00136 0.54801 0.52103 0.0
C662 C -0.00639 0.55207 0.55687 0.0
C663 C -0.00064 0.57822 0.56808 0.0
C664 C 0.01272 0.60048 0.54363 0.0
C665 C 0.0203 0.59661 0.50787 0.0
C666 C 0.01462 0.5705 0.49652 0.0
C667 C 0.91555 0.43787 0.39924 0.0
C668 C 0.92506 0.45134 0.36466 0.0
C669 C 0.93158 0.44803 0.43132 0.0
C670 C 0.95739 0.47184 0.42945 0.0
C671 C 0.96705 0.48532 0.39499 0.0
C672 C 0.95107 0.47504 0.36273 0.0
C673 C 0.97398 0.48287 0.46376 0.0
C674 C 0.98085 0.50931 0.47563 0.0
C675 C 0.98172 0.46694 0.48572 0.0
C676 C 0.97628 0.43945 0.47351 0.0
C677 C 0.98533 0.43597 0.43829 0.0
C678 C 0.98014 0.41003 0.42693 0.0
C679 C 0.96607 0.38742 0.45065 0.0
C680 C 0.95723 0.39073 0.48583 0.0
C681 C 0.96235 0.41663 0.49732 0.0
H682 H 0.96208 0.36736 0.44181 0.0
H683 H 0.01714 0.6207 0.55235 0.0
loop_
_geom_bond_atom_site_label_1
_geom_bond_atom_site_label_2
_geom_bond_distance
_geom_bond_site_symmetry_2
_ccdc_geom_bond_type
O0 Cd1 2.223 . S
O0 C8 1.315 . S
Cd1 O0 2.223 . S
Cd1 O4 2.297 . S
Cd1 O5 2.439 . S
Cd1 O11 2.240 . S
Cd2 O3 2.240 . S
Cd2 O10 2.223 . S
Cd2 O12 2.297 . S
Cd2 O13 2.439 . S
O3 Cd2 2.240 . S
O3 C8 1.279 . S
O4 Cd1 2.297 . S
O4 C6 1.247 . S
O5 Cd1 2.439 . S
O5 C6 1.208 . S
C6 O4 1.247 . S
C6 O5 1.208 . S
C7 O12 1.247 . S
C7 O13 1.208 . S
C8 O0 1.315 . S
C8 O3 1.279 . S
C9 O10 1.315 . S
C9 O11 1.279 . S
O10 Cd2 2.223 . S
O10 C9 1.315 . S
O11 Cd1 2.240 . S
O11 C9 1.279 . S
O12 Cd2 2.297 . S
O12 C7 1.247 . S
O13 Cd2 2.439 . S
O13 C7 1.208 . S
O14 Cd15 2.223 . S
O14 C22 1.315 . S
Cd15 O14 2.223 . S
Cd15 O18 2.297 . S
Cd15 O19 2.439 . S
Cd15 O25 2.240 . S
Cd16 O17 2.240 . S
Cd16 O24 2.223 . S
Cd16 O26 2.297 . S
Cd16 O27 2.439 . S
O17 Cd16 2.240 . S
O17 C22 1.279 . S
O18 Cd15 2.297 . S
O18 C20 1.247 . S
O19 Cd15 2.439 . S
O19 C20 1.208 . S
C20 O18 1.247 . S
C20 O19 1.208 . S
C21 O26 1.247 . S
C21 O27 1.208 . S
C22 O14 1.315 . S
C22 O17 1.279 . S
C23 O24 1.315 . S
C23 O25 1.279 . S
O24 Cd16 2.223 . S
O24 C23 1.315 . S
O25 Cd15 2.240 . S
O25 C23 1.279 . S
O26 Cd16 2.297 . S
O26 C21 1.247 . S
O27 Cd16 2.439 . S
O27 C21 1.208 . S
O28 Cd29 2.223 . S
O28 C36 1.315 . S
Cd29 O28 2.223 . S
Cd29 O32 2.297 . S
Cd29 O33 2.439 . S
Cd29 O39 2.240 . S
Cd30 O31 2.240 . S
Cd30 O38 2.223 . S
Cd30 O40 2.297 . S
Cd30 O41 2.439 . S
O31 Cd30 2.240 . S
O31 C36 1.279 . S
O32 Cd29 2.297 . S
O32 C34 1.247 . S
O33 Cd29 2.439 . S
O33 C34 1.208 . S
C34 O32 1.247 . S
C34 O33 1.208 . S
C35 O40 1.247 . S
C35 O41 1.208 . S
C36 O28 1.315 . S
C36 O31 1.279 . S
C37 O38 1.315 . S
C37 O39 1.279 . S
O38 Cd30 2.223 . S
O38 C37 1.315 . S
O39 Cd29 2.240 . S
O39 C37 1.279 . S
O40 Cd30 2.297 . S
O40 C35 1.247 . S
O41 Cd30 2.439 . S
O41 C35 1.208 . S
O42 Cd43 2.223 . S
O42 C50 1.315 . S
Cd43 O42 2.223 . S
Cd43 O46 2.297 . S
Cd43 O47 2.439 . S
Cd43 O53 2.240 . S
Cd44 O45 2.240 . S
Cd44 O52 2.223 . S
Cd44 O54 2.297 . S
Cd44 O55 2.439 . S
O45 Cd44 2.240 . S
O45 C50 1.279 . S
O46 Cd43 2.297 . S
O46 C48 1.247 . S
O47 Cd43 2.439 . S
O47 C48 1.208 . S
C48 O46 1.247 . S
C48 O47 1.208 . S
C49 O54 1.247 . S
C49 O55 1.208 . S
C50 O42 1.315 . S
C50 O45 1.279 . S
C51 O52 1.315 . S
C51 O53 1.279 . S
O52 Cd44 2.223 . S
O52 C51 1.315 . S
O53 Cd43 2.240 . S
O53 C51 1.279 . S
O54 Cd44 2.297 . S
O54 C49 1.247 . S
O55 Cd44 2.439 . S
O55 C49 1.208 . S
O56 Cd57 2.223 . S
O56 C64 1.315 . S
Cd57 O56 2.223 . S
Cd57 O60 2.297 . S
Cd57 O61 2.439 . S
Cd57 O67 2.240 . S
Cd58 O59 2.240 . S
Cd58 O66 2.223 . S
Cd58 O68 2.297 . S
Cd58 O69 2.439 . S
O59 Cd58 2.240 . S
O59 C64 1.279 . S
O60 Cd57 2.297 . S
O60 C62 1.247 . S
O61 Cd57 2.439 . S
O61 C62 1.208 . S
C62 O60 1.247 . S
C62 O61 1.208 . S
C63 O68 1.247 . S
C63 O69 1.208 . S
C64 O56 1.315 . S
C64 O59 1.279 . S
C65 O66 1.315 . S
C65 O67 1.279 . S
O66 Cd58 2.223 . S
O66 C65 1.315 . S
O67 Cd57 2.240 . S
O67 C65 1.279 . S
O68 Cd58 2.297 . S
O68 C63 1.247 . S
O69 Cd58 2.439 . S
O69 C63 1.208 . S
O70 Cd71 2.223 . S
O70 C78 1.315 . S
Cd71 O70 2.223 . S
Cd71 O74 2.297 . S
Cd71 O75 2.439 . S
Cd71 O81 2.240 . S
Cd72 O73 2.240 . S
Cd72 O80 2.223 . S
Cd72 O82 2.297 . S
Cd72 O83 2.439 . S
O73 Cd72 2.240 . S
O73 C78 1.279 . S
O74 Cd71 2.297 . S
O74 C76 1.247 . S
O75 Cd71 2.439 . S
O75 C76 1.208 . S
C76 O74 1.247 . S
C76 O75 1.208 . S
C77 O82 1.247 . S
C77 O83 1.208 . S
C78 O70 1.315 . S
C78 O73 1.279 . S
C79 O80 1.315 . S
C79 O81 1.279 . S
O80 Cd72 2.223 . S
O80 C79 1.315 . S
O81 Cd71 2.240 . S
O81 C79 1.279 . S
O82 Cd72 2.297 . S
O82 C77 1.247 . S
O83 Cd72 2.439 . S
O83 C77 1.208 . S
H84 C102 0.951 . S
H85 C104 0.951 . S
H86 C106 0.950 . S
H87 C107 0.950 . S
H88 C109 0.950 . S
H89 C112 0.950 . S
H90 C113 0.950 . S
H91 C115 0.950 . S
H92 C116 0.950 . S
H93 C117 0.951 . S
H94 C119 0.951 . S
H95 C121 0.950 . S
H96 C122 0.950 . S
H97 C124 0.950 . S
H98 C127 0.950 . S
H99 C128 0.950 . S
H100 C130 0.950 . S
H101 C131 0.950 . S
C102 H84 0.951 . S
C102 C103 1.366 . S
C102 C104 1.388 . S
C103 C102 1.366 . S
C103 C107 1.385 . S
C104 H85 0.951 . S
C104 C102 1.388 . S
C104 C105 1.366 . S
C105 C104 1.366 . S
C105 C106 1.414 . S
C105 C108 1.499 . S
C106 H86 0.950 . S
C106 C105 1.414 . S
C106 C107 1.374 . S
C107 H87 0.950 . S
C107 C103 1.385 . S
C107 C106 1.374 . S
C108 C105 1.499 . S
C108 C109 1.373 . S
C108 C110 1.389 . S
C109 H88 0.950 . S
C109 C108 1.373 . S
C109 C125 1.377 . S
C110 C108 1.389 . S
C110 C111 1.524 . S
C110 C124 1.377 . S
C111 C110 1.524 . S
C111 C112 1.397 . S
C111 C116 1.363 . S
C112 H89 0.950 . S
C112 C111 1.397 . S
C112 C113 1.334 . S
C113 H90 0.950 . S
C113 C112 1.334 . S
C113 C114 1.287 . S
C114 C113 1.287 . S
C114 C115 1.524 . S
C114 H133 0.913 . S
C115 H91 0.950 . S
C115 C114 1.524 . S
C115 C116 1.415 . S
C116 H92 0.950 . S
C116 C111 1.363 . S
C116 C115 1.415 . S
C117 H93 0.951 . S
C117 C118 1.366 . S
C117 C119 1.388 . S
C118 C117 1.366 . S
C118 C122 1.385 . S
C119 H94 0.951 . S
C119 C117 1.388 . S
C119 C120 1.366 . S
C120 C119 1.366 . S
C120 C121 1.414 . S
C120 C123 1.499 . S
C121 H95 0.950 . S
C121 C120 1.414 . S
C121 C122 1.374 . S
C122 H96 0.950 . S
C122 C118 1.385 . S
C122 C121 1.374 . S
C123 C120 1.499 . S
C123 C124 1.373 . S
C123 C125 1.389 . S
C124 H97 0.950 . S
C124 C110 1.377 . S
C124 C123 1.373 . S
C125 C109 1.377 . S
C125 C123 1.389 . S
C125 C126 1.524 . S
C126 C125 1.524 . S
C126 C127 1.397 . S
C126 C131 1.363 . S
C127 H98 0.950 . S
C127 C126 1.397 . S
C127 C128 1.334 . S
C128 H99 0.950 . S
C128 C127 1.334 . S
C128 C129 1.287 . S
C129 C128 1.287 . S
C129 C130 1.524 . S
C129 H132 0.999 . S
C130 H100 0.950 . S
C130 C129 1.524 . S
C130 C131 1.415 . S
C131 H101 0.950 . S
C131 C126 1.363 . S
C131 C130 1.415 . S
H132 C129 0.999 . S
H133 C114 0.913 . S
H134 C152 0.951 . S
H135 C154 0.951 . S
H136 C156 0.950 . S
H137 C157 0.950 . S
H138 C159 0.950 . S
H139 C162 0.950 . S
H140 C163 0.950 . S
H141 C165 0.950 . S
H142 C166 0.950 . S
H143 C167 0.951 . S
H144 C169 0.951 . S
H145 C171 0.950 . S
H146 C172 0.950 . S
H147 C174 0.950 . S
H148 C177 0.950 . S
H149 C178 0.950 . S
H150 C180 0.950 . S
H151 C181 0.950 . S
C152 H134 0.951 . S
C152 C153 1.366 . S
C152 C154 1.388 . S
C153 C152 1.366 . S
C153 C157 1.385 . S
C154 H135 0.951 . S
C154 C152 1.388 . S
C154 C155 1.366 . S
C155 C154 1.366 . S
C155 C156 1.414 . S
C155 C158 1.499 . S
C156 H136 0.950 . S
C156 C155 1.414 . S
C156 C157 1.374 . S
C157 H137 0.950 . S
C157 C153 1.385 . S
C157 C156 1.374 . S
C158 C155 1.499 . S
C158 C159 1.373 . S
C158 C160 1.389 . S
C159 H138 0.950 . S
C159 C158 1.373 . S
C159 C175 1.377 . S
C160 C158 1.389 . S
C160 C161 1.524 . S
C160 C174 1.377 . S
C161 C160 1.524 . S
C161 C162 1.397 . S
C161 C166 1.363 . S
C162 H139 0.950 . S
C162 C161 1.397 . S
C162 C163 1.334 . S
C163 H140 0.950 . S
C163 C162 1.334 . S
C163 C164 1.287 . S
C164 C163 1.287 . S
C164 C165 1.524 . S
C164 H183 0.913 . S
C165 H141 0.950 . S
C165 C164 1.524 . S
C165 C166 1.415 . S
C166 H142 0.950 . S
C166 C161 1.363 . S
C166 C165 1.415 . S
C167 H143 0.951 . S
C167 C168 1.366 . S
C167 C169 1.388 . S
C168 C167 1.366 . S
C168 C172 1.385 . S
C169 H144 0.951 . S
C169 C167 1.388 . S
C169 C170 1.366 . S
C170 C169 1.366 . S
C170 C171 1.414 . S
C170 C173 1.499 . S
C171 H145 0.950 . S
C171 C170 1.414 . S
C171 C172 1.374 . S
C172 H146 0.950 . S
C172 C168 1.385 . S
C172 C171 1.374 . S
C173 C170 1.499 . S
C173 C174 1.373 . S
C173 C175 1.389 . S
C174 H147 0.950 . S
C174 C160 1.377 . S
C174 C173 1.373 . S
C175 C159 1.377 . S
C175 C173 1.389 . S
C175 C176 1.524 . S
C176 C175 1.524 . S
C176 C177 1.397 . S
C176 C181 1.363 . S
C177 H148 0.950 . S
C177 C176 1.397 . S
C177 C178 1.334 . S
C178 H149 0.950 . S
C178 C177 1.334 . S
C178 C179 1.287 . S
C179 C178 1.287 . S
C179 C180 1.524 . S
C179 H182 0.999 . S
C180 H150 0.950 . S
C180 C179 1.524 . S
C180 C181 1.415 . S
C181 H151 0.950 . S
C181 C176 1.363 . S
C181 C180 1.415 . S
H182 C179 0.999 . S
H183 C164 0.913 . S
H184 C202 0.951 . S
H185 C204 0.951 . S
H186 C206 0.950 . S
H187 C207 0.950 . S
H188 C209 0.950 . S
H189 C212 0.950 . S
H190 C213 0.950 . S
H191 C215 0.950 . S
H192 C216 0.950 . S
H193 C217 0.951 . S
H194 C219 0.951 . S
H195 C221 0.950 . S
H196 C222 0.950 . S
H197 C224 0.950 . S
H198 C227 0.950 . S
H199 C228 0.950 . S
H200 C230 0.950 . S
H201 C231 0.950 . S
C202 H184 0.951 . S
C202 C203 1.366 . S
C202 C204 1.388 . S
C203 C202 1.366 . S
C203 C207 1.385 . S
C204 H185 0.951 . S
C204 C202 1.388 . S
C204 C205 1.366 . S
C205 C204 1.366 . S
C205 C206 1.414 . S
C205 C208 1.499 . S
C206 H186 0.950 . S
C206 C205 1.414 . S
C206 C207 1.374 . S
C207 H187 0.950 . S
C207 C203 1.385 . S
C207 C206 1.374 . S
C208 C205 1.499 . S
C208 C209 1.373 . S
C208 C210 1.389 . S
C209 H188 0.950 . S
C209 C208 1.373 . S
C209 C225 1.377 . S
C210 C208 1.389 . S
C210 C211 1.524 . S
C210 C224 1.377 . S
C211 C210 1.524 . S
C211 C212 1.397 . S
C211 C216 1.363 . S
C212 H189 0.950 . S
C212 C211 1.397 . S
C212 C213 1.334 . S
C213 H190 0.950 . S
C213 C212 1.334 . S
C213 C214 1.287 . S
C214 C213 1.287 . S
C214 C215 1.524 . S
C214 H233 0.913 . S
C215 H191 0.950 . S
C215 C214 1.524 . S
C215 C216 1.415 . S
C216 H192 0.950 . S
C216 C211 1.363 . S
C216 C215 1.415 . S
C217 H193 0.951 . S
C217 C218 1.366 . S
C217 C219 1.388 . S
C218 C217 1.366 . S
C218 C222 1.385 . S
C219 H194 0.951 . S
C219 C217 1.388 . S
C219 C220 1.366 . S
C220 C219 1.366 . S
C220 C221 1.414 . S
C220 C223 1.499 . S
C221 H195 0.950 . S
C221 C220 1.414 . S
C221 C222 1.374 . S
C222 H196 0.950 . S
C222 C218 1.385 . S
C222 C221 1.374 . S
C223 C220 1.499 . S
C223 C224 1.373 . S
C223 C225 1.389 . S
C224 H197 0.950 . S
C224 C210 1.377 . S
C224 C223 1.373 . S
C225 C209 1.377 . S
C225 C223 1.389 . S
C225 C226 1.524 . S
C226 C225 1.524 . S
C226 C227 1.397 . S
C226 C231 1.363 . S
C227 H198 0.950 . S
C227 C226 1.397 . S
C227 C228 1.334 . S
C228 H199 0.950 . S
C228 C227 1.334 . S
C228 C229 1.287 . S
C229 C228 1.287 . S
C229 C230 1.524 . S
C229 H232 0.999 . S
C230 H200 0.950 . S
C230 C229 1.524 . S
C230 C231 1.415 . S
C231 H201 0.950 . S
C231 C226 1.363 . S
C231 C230 1.415 . S
H232 C229 0.999 . S
H233 C214 0.913 . S
H234 C252 0.951 . S
H235 C254 0.951 . S
H236 C256 0.950 . S
H237 C257 0.950 . S
H238 C259 0.950 . S
H239 C262 0.950 . S
H240 C263 0.950 . S
H241 C265 0.950 . S
H242 C266 0.950 . S
H243 C267 0.951 . S
H244 C269 0.951 . S
H245 C271 0.950 . S
H246 C272 0.950 . S
H247 C274 0.950 . S
H248 C277 0.950 . S
H249 C278 0.950 . S
H250 C280 0.950 . S
H251 C281 0.950 . S
C252 H234 0.951 . S
C252 C253 1.366 . S
C252 C254 1.388 . S
C253 C252 1.366 . S
C253 C257 1.385 . S
C254 H235 0.951 . S
C254 C252 1.388 . S
C254 C255 1.366 . S
C255 C254 1.366 . S
C255 C256 1.414 . S
C255 C258 1.499 . S
C256 H236 0.950 . S
C256 C255 1.414 . S
C256 C257 1.374 . S
C257 H237 0.950 . S
C257 C253 1.385 . S
C257 C256 1.374 . S
C258 C255 1.499 . S
C258 C259 1.373 . S
C258 C260 1.389 . S
C259 H238 0.950 . S
C259 C258 1.373 . S
C259 C275 1.377 . S
C260 C258 1.389 . S
C260 C261 1.524 . S
C260 C274 1.377 . S
C261 C260 1.524 . S
C261 C262 1.397 . S
C261 C266 1.363 . S
C262 H239 0.950 . S
C262 C261 1.397 . S
C262 C263 1.334 . S
C263 H240 0.950 . S
C263 C262 1.334 . S
C263 C264 1.287 . S
C264 C263 1.287 . S
C264 C265 1.524 . S
C264 H283 0.913 . S
C265 H241 0.950 . S
C265 C264 1.524 . S
C265 C266 1.415 . S
C266 H242 0.950 . S
C266 C261 1.363 . S
C266 C265 1.415 . S
C267 H243 0.951 . S
C267 C268 1.366 . S
C267 C269 1.388 . S
C268 C267 1.366 . S
C268 C272 1.385 . S
C269 H244 0.951 . S
C269 C267 1.388 . S
C269 C270 1.366 . S
C270 C269 1.366 . S
C270 C271 1.414 . S
C270 C273 1.499 . S
C271 H245 0.950 . S
C271 C270 1.414 . S
C271 C272 1.374 . S
C272 H246 0.950 . S
C272 C268 1.385 . S
C272 C271 1.374 . S
C273 C270 1.499 . S
C273 C274 1.373 . S
C273 C275 1.389 . S
C274 H247 0.950 . S
C274 C260 1.377 . S
C274 C273 1.373 . S
C275 C259 1.377 . S
C275 C273 1.389 . S
C275 C276 1.524 . S
C276 C275 1.524 . S
C276 C277 1.397 . S
C276 C281 1.363 . S
C277 H248 0.950 . S
C277 C276 1.397 . S
C277 C278 1.334 . S
C278 H249 0.950 . S
C278 C277 1.334 . S
C278 C279 1.287 . S
C279 C278 1.287 . S
C279 C280 1.524 . S
C279 H282 0.999 . S
C280 H250 0.950 . S
C280 C279 1.524 . S
C280 C281 1.415 . S
C281 H251 0.950 . S
C281 C276 1.363 . S
C281 C280 1.415 . S
H282 C279 0.999 . S
H283 C264 0.913 . S
H284 C302 0.951 . S
H285 C304 0.951 . S
H286 C306 0.950 . S
H287 C307 0.950 . S
H288 C309 0.950 . S
H289 C312 0.950 . S
H290 C313 0.950 . S
H291 C315 0.950 . S
H292 C316 0.950 . S
H293 C317 0.951 . S
H294 C319 0.951 . S
H295 C321 0.950 . S
H296 C322 0.950 . S
H297 C324 0.950 . S
H298 C327 0.950 . S
H299 C328 0.950 . S
H300 C330 0.950 . S
H301 C331 0.950 . S
C302 H284 0.951 . S
C302 C303 1.366 . S
C302 C304 1.388 . S
C303 C302 1.366 . S
C303 C307 1.385 . S
C304 H285 0.951 . S
C304 C302 1.388 . S
C304 C305 1.366 . S
C305 C304 1.366 . S
C305 C306 1.414 . S
C305 C308 1.499 . S
C306 H286 0.950 . S
C306 C305 1.414 . S
C306 C307 1.374 . S
C307 H287 0.950 . S
C307 C303 1.385 . S
C307 C306 1.374 . S
C308 C305 1.499 . S
C308 C309 1.373 . S
C308 C310 1.389 . S
C309 H288 0.950 . S
C309 C308 1.373 . S
C309 C325 1.377 . S
C310 C308 1.389 . S
C310 C311 1.524 . S
C310 C324 1.377 . S
C311 C310 1.524 . S
C311 C312 1.397 . S
C311 C316 1.363 . S
C312 H289 0.950 . S
C312 C311 1.397 . S
C312 C313 1.334 . S
C313 H290 0.950 . S
C313 C312 1.334 . S
C313 C314 1.287 . S
C314 C313 1.287 . S
C314 C315 1.524 . S
C314 H333 0.913 . S
C315 H291 0.950 . S
C315 C314 1.524 . S
C315 C316 1.415 . S
C316 H292 0.950 . S
C316 C311 1.363 . S
C316 C315 1.415 . S
C317 H293 0.951 . S
C317 C318 1.366 . S
C317 C319 1.388 . S
C318 C317 1.366 . S
C318 C322 1.385 . S
C319 H294 0.951 . S
C319 C317 1.388 . S
C319 C320 1.366 . S
C320 C319 1.366 . S
C320 C321 1.414 . S
C320 C323 1.499 . S
C321 H295 0.950 . S
C321 C320 1.414 . S
C321 C322 1.374 . S
C322 H296 0.950 . S
C322 C318 1.385 . S
C322 C321 1.374 . S
C323 C320 1.499 . S
C323 C324 1.373 . S
C323 C325 1.389 . S
C324 H297 0.950 . S
C324 C310 1.377 . S
C324 C323 1.373 . S
C325 C309 1.377 . S
C325 C323 1.389 . S
C325 C326 1.524 . S
C326 C325 1.524 . S
C326 C327 1.397 . S
C326 C331 1.363 . S
C327 H298 0.950 . S
C327 C326 1.397 . S
C327 C328 1.334 . S
C328 H299 0.950 . S
C328 C327 1.334 . S
C328 C329 1.287 . S
C329 C328 1.287 . S
C329 C330 1.524 . S
C329 H332 0.999 . S
C330 H300 0.950 . S
C330 C329 1.524 . S
C330 C331 1.415 . S
C331 H301 0.950 . S
C331 C326 1.363 . S
C331 C330 1.415 . S
H332 C329 0.999 . S
H333 C314 0.913 . S
H334 C352 0.951 . S
H335 C354 0.951 . S
H336 C356 0.950 . S
H337 C357 0.950 . S
H338 C359 0.950 . S
H339 C362 0.950 . S
H340 C363 0.950 . S
H341 C365 0.950 . S
H342 C366 0.950 . S
H343 C367 0.951 . S
H344 C369 0.951 . S
H345 C371 0.950 . S
H346 C372 0.950 . S
H347 C374 0.950 . S
H348 C377 0.950 . S
H349 C378 0.950 . S
H350 C380 0.950 . S
H351 C381 0.950 . S
C352 H334 0.951 . S
C352 C353 1.366 . S
C352 C354 1.388 . S
C353 C352 1.366 . S
C353 C357 1.385 . S
C354 H335 0.951 . S
C354 C352 1.388 . S
C354 C355 1.366 . S
C355 C354 1.366 . S
C355 C356 1.414 . S
C355 C358 1.499 . S
C356 H336 0.950 . S
C356 C355 1.414 . S
C356 C357 1.374 . S
C357 H337 0.950 . S
C357 C353 1.385 . S
C357 C356 1.374 . S
C358 C355 1.499 . S
C358 C359 1.373 . S
C358 C360 1.389 . S
C359 H338 0.950 . S
C359 C358 1.373 . S
C359 C375 1.377 . S
C360 C358 1.389 . S
C360 C361 1.524 . S
C360 C374 1.377 . S
C361 C360 1.524 . S
C361 C362 1.397 . S
C361 C366 1.363 . S
C362 H339 0.950 . S
C362 C361 1.397 . S
C362 C363 1.334 . S
C363 H340 0.950 . S
C363 C362 1.334 . S
C363 C364 1.287 . S
C364 C363 1.287 . S
C364 C365 1.524 . S
C364 H383 0.913 . S
C365 H341 0.950 . S
C365 C364 1.524 . S
C365 C366 1.415 . S
C366 H342 0.950 . S
C366 C361 1.363 . S
C366 C365 1.415 . S
C367 H343 0.951 . S
C367 C368 1.366 . S
C367 C369 1.388 . S
C368 C367 1.366 . S
C368 C372 1.385 . S
C369 H344 0.951 . S
C369 C367 1.388 . S
C369 C370 1.366 . S
C370 C369 1.366 . S
C370 C371 1.414 . S
C370 C373 1.499 . S
C371 H345 0.950 . S
C371 C370 1.414 . S
C371 C372 1.374 . S
C372 H346 0.950 . S
C372 C368 1.385 . S
C372 C371 1.374 . S
C373 C370 1.499 . S
C373 C374 1.373 . S
C373 C375 1.389 . S
C374 H347 0.950 . S
C374 C360 1.377 . S
C374 C373 1.373 . S
C375 C359 1.377 . S
C375 C373 1.389 . S
C375 C376 1.524 . S
C376 C375 1.524 . S
C376 C377 1.397 . S
C376 C381 1.363 . S
C377 H348 0.950 . S
C377 C376 1.397 . S
C377 C378 1.334 . S
C378 H349 0.950 . S
C378 C377 1.334 . S
C378 C379 1.287 . S
C379 C378 1.287 . S
C379 C380 1.524 . S
C379 H382 0.999 . S
C380 H350 0.950 . S
C380 C379 1.524 . S
C380 C381 1.415 . S
C381 H351 0.950 . S
C381 C376 1.363 . S
C381 C380 1.415 . S
H382 C379 0.999 . S
H383 C364 0.913 . S
H384 C402 0.951 . S
H385 C404 0.951 1_545 S
H386 C406 0.950 . S
H387 C407 0.950 . S
H388 C409 0.950 . S
H389 C412 0.950 . S
H390 C413 0.950 1_565 S
H391 C415 0.950 . S
H392 C416 0.950 . S
H393 C417 0.951 . S
H394 C419 0.951 1_565 S
H395 C421 0.950 . S
H396 C422 0.950 . S
H397 C424 0.950 . S
H398 C427 0.950 . S
H399 C428 0.950 1_545 S
H400 C430 0.950 . S
H401 C431 0.950 . S
C402 H384 0.951 . S
C402 C403 1.366 . S
C402 C404 1.388 . S
C403 C402 1.366 . S
C403 C407 1.385 . S
C404 H385 0.951 1_565 S
C404 C402 1.388 . S
C404 C405 1.366 . S
C405 C404 1.366 . S
C405 C406 1.414 . S
C405 C408 1.499 . S
C406 H386 0.950 . S
C406 C405 1.414 . S
C406 C407 1.374 . S
C407 H387 0.950 . S
C407 C403 1.385 . S
C407 C406 1.374 . S
C408 C405 1.499 . S
C408 C409 1.373 . S
C408 C410 1.389 1_565 S
C409 H388 0.950 . S
C409 C408 1.373 . S
C409 C425 1.377 1_556 S
C410 C408 1.389 1_545 S
C410 C411 1.524 . S
C410 C424 1.377 1_556 S
C411 C410 1.524 . S
C411 C412 1.397 1_545 S
C411 C416 1.363 . S
C412 H389 0.950 . S
C412 C411 1.397 1_565 S
C412 C413 1.334 1_565 S
C413 H390 0.950 1_545 S
C413 C412 1.334 1_545 S
C413 C414 1.287 . S
C414 C413 1.287 . S
C414 C415 1.524 . S
C414 H433 0.913 . S
C415 H391 0.950 . S
C415 C414 1.524 . S
C415 C416 1.415 . S
C416 H392 0.950 . S
C416 C411 1.363 . S
C416 C415 1.415 . S
C417 H393 0.951 . S
C417 C418 1.366 . S
C417 C419 1.388 . S
C418 C417 1.366 . S
C418 C422 1.385 . S
C419 H394 0.951 1_545 S
C419 C417 1.388 . S
C419 C420 1.366 . S
C420 C419 1.366 . S
C420 C421 1.414 . S
C420 C423 1.499 . S
C421 H395 0.950 . S
C421 C420 1.414 . S
C421 C422 1.374 . S
C422 H396 0.950 . S
C422 C418 1.385 . S
C422 C421 1.374 . S
C423 C420 1.499 . S
C423 C424 1.373 . S
C423 C425 1.389 1_545 S
C424 H397 0.950 . S
C424 C410 1.377 1_554 S
C424 C423 1.373 . S
C425 C409 1.377 1_554 S
C425 C423 1.389 1_565 S
C425 C426 1.524 . S
C426 C425 1.524 . S
C426 C427 1.397 1_565 S
C426 C431 1.363 . S
C427 H398 0.950 . S
C427 C426 1.397 1_545 S
C427 C428 1.334 1_545 S
C428 H399 0.950 1_565 S
C428 C427 1.334 1_565 S
C428 C429 1.287 . S
C429 C428 1.287 . S
C429 C430 1.524 . S
C429 H432 0.999 . S
C430 H400 0.950 . S
C430 C429 1.524 . S
C430 C431 1.415 . S
C431 H401 0.950 . S
C431 C426 1.363 . S
C431 C430 1.415 . S
H432 C429 0.999 . S
H433 C414 0.913 . S
H434 C452 0.951 . S
H435 C454 0.951 . S
H436 C456 0.950 . S
H437 C457 0.950 . S
H438 C459 0.950 . S
H439 C462 0.950 . S
H440 C463 0.950 . S
H441 C465 0.950 . S
H442 C466 0.950 . S
H443 C467 0.951 . S
H444 C469 0.951 . S
H445 C471 0.950 . S
H446 C472 0.950 . S
H447 C474 0.950 . S
H448 C477 0.950 . S
H449 C478 0.950 . S
H450 C480 0.950 . S
H451 C481 0.950 . S
C452 H434 0.951 . S
C452 C453 1.366 . S
C452 C454 1.388 . S
C453 C452 1.366 . S
C453 C457 1.385 . S
C454 H435 0.951 . S
C454 C452 1.388 . S
C454 C455 1.366 . S
C455 C454 1.366 . S
C455 C456 1.414 . S
C455 C458 1.499 . S
C456 H436 0.950 . S
C456 C455 1.414 . S
C456 C457 1.374 . S
C457 H437 0.950 . S
C457 C453 1.385 . S
C457 C456 1.374 . S
C458 C455 1.499 . S
C458 C459 1.373 . S
C458 C460 1.389 . S
C459 H438 0.950 . S
C459 C458 1.373 . S
C459 C475 1.377 . S
C460 C458 1.389 . S
C460 C461 1.524 . S
C460 C474 1.377 . S
C461 C460 1.524 . S
C461 C462 1.397 . S
C461 C466 1.363 . S
C462 H439 0.950 . S
C462 C461 1.397 . S
C462 C463 1.334 . S
C463 H440 0.950 . S
C463 C462 1.334 . S
C463 C464 1.287 . S
C464 C463 1.287 . S
C464 C465 1.524 . S
C464 H483 0.913 . S
C465 H441 0.950 . S
C465 C464 1.524 . S
C465 C466 1.415 . S
C466 H442 0.950 . S
C466 C461 1.363 . S
C466 C465 1.415 . S
C467 H443 0.951 . S
C467 C468 1.366 . S
C467 C469 1.388 . S
C468 C467 1.366 . S
C468 C472 1.385 . S
C469 H444 0.951 . S
C469 C467 1.388 . S
C469 C470 1.366 . S
C470 C469 1.366 . S
C470 C471 1.414 . S
C470 C473 1.499 . S
C471 H445 0.950 . S
C471 C470 1.414 . S
C471 C472 1.374 . S
C472 H446 0.950 . S
C472 C468 1.385 . S
C472 C471 1.374 . S
C473 C470 1.499 . S
C473 C474 1.373 . S
C473 C475 1.389 . S
C474 H447 0.950 . S
C474 C460 1.377 . S
C474 C473 1.373 . S
C475 C459 1.377 . S
C475 C473 1.389 . S
C475 C476 1.524 . S
C476 C475 1.524 . S
C476 C477 1.397 . S
C476 C481 1.363 . S
C477 H448 0.950 . S
C477 C476 1.397 . S
C477 C478 1.334 . S
C478 H449 0.950 . S
C478 C477 1.334 . S
C478 C479 1.287 . S
C479 C478 1.287 . S
C479 C480 1.524 . S
C479 H482 0.999 . S
C480 H450 0.950 . S
C480 C479 1.524 . S
C480 C481 1.415 . S
C481 H451 0.950 . S
C481 C476 1.363 . S
C481 C480 1.415 . S
H482 C479 0.999 . S
H483 C464 0.913 . S
H484 C502 0.951 . S
H485 C504 0.951 . S
H486 C506 0.950 . S
H487 C507 0.950 . S
H488 C509 0.950 . S
H489 C512 0.950 . S
H490 C513 0.950 . S
H491 C515 0.950 . S
H492 C516 0.950 . S
H493 C517 0.951 . S
H494 C519 0.951 . S
H495 C521 0.950 . S
H496 C522 0.950 . S
H497 C524 0.950 . S
H498 C527 0.950 . S
H499 C528 0.950 . S
H500 C530 0.950 . S
H501 C531 0.950 . S
C502 H484 0.951 . S
C502 C503 1.366 . S
C502 C504 1.388 . S
C503 C502 1.366 . S
C503 C507 1.385 . S
C504 H485 0.951 . S
C504 C502 1.388 . S
C504 C505 1.366 . S
C505 C504 1.366 . S
C505 C506 1.414 . S
C505 C508 1.499 . S
C506 H486 0.950 . S
C506 C505 1.414 . S
C506 C507 1.374 . S
C507 H487 0.950 . S
C507 C503 1.385 . S
C507 C506 1.374 . S
C508 C505 1.499 . S
C508 C509 1.373 . S
C508 C510 1.389 . S
C509 H488 0.950 . S
C509 C508 1.373 . S
C509 C525 1.377 1_456 S
C510 C508 1.389 . S
C510 C511 1.524 . S
C510 C524 1.377 1_456 S
C511 C510 1.524 . S
C511 C512 1.397 . S
C511 C516 1.363 1_455 S
C512 H489 0.950 . S
C512 C511 1.397 . S
C512 C513 1.334 . S
C513 H490 0.950 . S
C513 C512 1.334 . S
C513 C514 1.287 . S
C514 C513 1.287 . S
C514 C515 1.524 1_455 S
C514 H533 0.913 . S
C515 H491 0.950 . S
C515 C514 1.524 1_655 S
C515 C516 1.415 . S
C516 H492 0.950 . S
C516 C511 1.363 1_655 S
C516 C515 1.415 . S
C517 H493 0.951 . S
C517 C518 1.366 . S
C517 C519 1.388 . S
C518 C517 1.366 . S
C518 C522 1.385 . S
C519 H494 0.951 . S
C519 C517 1.388 . S
C519 C520 1.366 . S
C520 C519 1.366 . S
C520 C521 1.414 . S
C520 C523 1.499 . S
C521 H495 0.950 . S
C521 C520 1.414 . S
C521 C522 1.374 . S
C522 H496 0.950 . S
C522 C518 1.385 . S
C522 C521 1.374 . S
C523 C520 1.499 . S
C523 C524 1.373 . S
C523 C525 1.389 . S
C524 H497 0.950 . S
C524 C510 1.377 1_654 S
C524 C523 1.373 . S
C525 C509 1.377 1_654 S
C525 C523 1.389 . S
C525 C526 1.524 . S
C526 C525 1.524 . S
C526 C527 1.397 . S
C526 C531 1.363 1_655 S
C527 H498 0.950 . S
C527 C526 1.397 . S
C527 C528 1.334 . S
C528 H499 0.950 . S
C528 C527 1.334 . S
C528 C529 1.287 . S
C529 C528 1.287 . S
C529 C530 1.524 1_655 S
C529 H532 0.999 . S
C530 H500 0.950 . S
C530 C529 1.524 1_455 S
C530 C531 1.415 . S
C531 H501 0.950 . S
C531 C526 1.363 1_455 S
C531 C530 1.415 . S
H532 C529 0.999 . S
H533 C514 0.913 . S
H534 C552 0.951 . S
H535 C554 0.951 . S
H536 C556 0.950 1_565 S
H537 C557 0.950 . S
H538 C559 0.950 . S
H539 C562 0.950 . S
H540 C563 0.950 . S
H541 C565 0.950 . S
H542 C566 0.950 . S
H543 C567 0.951 . S
H544 C569 0.951 . S
H545 C571 0.950 1_545 S
H546 C572 0.950 . S
H547 C574 0.950 . S
H548 C577 0.950 . S
H549 C578 0.950 . S
H550 C580 0.950 . S
H551 C581 0.950 . S
C552 H534 0.951 . S
C552 C553 1.366 . S
C552 C554 1.388 . S
C553 C552 1.366 . S
C553 C557 1.385 . S
C554 H535 0.951 . S
C554 C552 1.388 . S
C554 C555 1.366 . S
C555 C554 1.366 . S
C555 C556 1.414 . S
C555 C558 1.499 . S
C556 H536 0.950 1_545 S
C556 C555 1.414 . S
C556 C557 1.374 . S
C557 H537 0.950 . S
C557 C553 1.385 . S
C557 C556 1.374 . S
C558 C555 1.499 . S
C558 C559 1.373 1_545 S
C558 C560 1.389 . S
C559 H538 0.950 . S
C559 C558 1.373 1_565 S
C559 C575 1.377 . S
C560 C558 1.389 . S
C560 C561 1.524 . S
C560 C574 1.377 . S
C561 C560 1.524 . S
C561 C562 1.397 . S
C561 C566 1.363 . S
C562 H539 0.950 . S
C562 C561 1.397 . S
C562 C563 1.334 . S
C563 H540 0.950 . S
C563 C562 1.334 . S
C563 C564 1.287 . S
C564 C563 1.287 . S
C564 C565 1.524 . S
C564 H583 0.913 . S
C565 H541 0.950 . S
C565 C564 1.524 . S
C565 C566 1.415 . S
C566 H542 0.950 . S
C566 C561 1.363 . S
C566 C565 1.415 . S
C567 H543 0.951 . S
C567 C568 1.366 . S
C567 C569 1.388 . S
C568 C567 1.366 . S
C568 C572 1.385 . S
C569 H544 0.951 . S
C569 C567 1.388 . S
C569 C570 1.366 . S
C570 C569 1.366 . S
C570 C571 1.414 . S
C570 C573 1.499 . S
C571 H545 0.950 1_565 S
C571 C570 1.414 . S
C571 C572 1.374 . S
C572 H546 0.950 . S
C572 C568 1.385 . S
C572 C571 1.374 . S
C573 C570 1.499 . S
C573 C574 1.373 1_565 S
C573 C575 1.389 . S
C574 H547 0.950 . S
C574 C560 1.377 . S
C574 C573 1.373 1_545 S
C575 C559 1.377 . S
C575 C573 1.389 . S
C575 C576 1.524 . S
C576 C575 1.524 . S
C576 C577 1.397 . S
C576 C581 1.363 . S
C577 H548 0.950 . S
C577 C576 1.397 . S
C577 C578 1.334 . S
C578 H549 0.950 . S
C578 C577 1.334 . S
C578 C579 1.287 . S
C579 C578 1.287 . S
C579 C580 1.524 . S
C579 H582 0.999 . S
C580 H550 0.950 . S
C580 C579 1.524 . S
C580 C581 1.415 . S
C581 H551 0.950 . S
C581 C576 1.363 . S
C581 C580 1.415 . S
H582 C579 0.999 . S
H583 C564 0.913 . S
H584 C602 0.951 . S
H585 C604 0.951 . S
H586 C606 0.950 . S
H587 C607 0.950 . S
H588 C609 0.950 . S
H589 C612 0.950 . S
H590 C613 0.950 . S
H591 C615 0.950 . S
H592 C616 0.950 . S
H593 C617 0.951 . S
H594 C619 0.951 . S
H595 C621 0.950 . S
H596 C622 0.950 . S
H597 C624 0.950 . S
H598 C627 0.950 . S
H599 C628 0.950 . S
H600 C630 0.950 . S
H601 C631 0.950 . S
C602 H584 0.951 . S
C602 C603 1.366 . S
C602 C604 1.388 . S
C603 C602 1.366 . S
C603 C607 1.385 . S
C604 H585 0.951 . S
C604 C602 1.388 . S
C604 C605 1.366 . S
C605 C604 1.366 . S
C605 C606 1.414 . S
C605 C608 1.499 . S
C606 H586 0.950 . S
C606 C605 1.414 . S
C606 C607 1.374 . S
C607 H587 0.950 . S
C607 C603 1.385 . S
C607 C606 1.374 . S
C608 C605 1.499 . S
C608 C609 1.386 . S
C608 C610 1.389 . S
C609 H588 0.950 . S
C609 C608 1.386 . S
C609 C625 1.364 1_556 S
C610 C608 1.389 . S
C610 C611 1.524 . S
C610 C624 1.364 1_556 S
C611 C610 1.524 . S
C611 C612 1.397 . S
C611 C616 1.363 . S
C612 H589 0.950 . S
C612 C611 1.397 . S
C612 C613 1.334 . S
C613 H590 0.950 . S
C613 C612 1.334 . S
C613 C614 1.287 . S
C614 C613 1.287 . S
C614 C615 1.524 . S
C614 H633 0.913 . S
C615 H591 0.950 . S
C615 C614 1.524 . S
C615 C616 1.415 . S
C616 H592 0.950 . S
C616 C611 1.363 . S
C616 C615 1.415 . S
C617 H593 0.951 . S
C617 C618 1.366 . S
C617 C619 1.388 . S
C618 C617 1.366 . S
C618 C622 1.385 . S
C619 H594 0.951 . S
C619 C617 1.388 . S
C619 C620 1.366 . S
C620 C619 1.366 . S
C620 C621 1.414 . S
C620 C623 1.499 . S
C621 H595 0.950 . S
C621 C620 1.414 . S
C621 C622 1.374 . S
C622 H596 0.950 . S
C622 C618 1.385 . S
C622 C621 1.374 . S
C623 C620 1.499 . S
C623 C624 1.386 . S
C623 C625 1.389 . S
C624 H597 0.950 . S
C624 C610 1.364 1_554 S
C624 C623 1.386 . S
C625 C609 1.364 1_554 S
C625 C623 1.389 . S
C625 C626 1.524 . S
C626 C625 1.524 . S
C626 C627 1.397 . S
C626 C631 1.363 . S
C627 H598 0.950 . S
C627 C626 1.397 . S
C627 C628 1.334 . S
C628 H599 0.950 . S
C628 C627 1.334 . S
C628 C629 1.287 . S
C629 C628 1.287 . S
C629 C630 1.524 . S
C629 H632 0.999 . S
C630 H600 0.950 . S
C630 C629 1.524 . S
C630 C631 1.415 . S
C631 H601 0.950 . S
C631 C626 1.363 . S
C631 C630 1.415 . S
H632 C629 0.999 . S
H633 C614 0.913 . S
H634 C652 0.951 . S
H635 C654 0.951 . S
H636 C656 0.950 . S
H637 C657 0.950 . S
H638 C659 0.950 . S
H639 C662 0.950 . S
H640 C663 0.950 . S
H641 C665 0.950 . S
H642 C666 0.950 . S
H643 C667 0.951 . S
H644 C669 0.951 . S
H645 C671 0.950 . S
H646 C672 0.950 . S
H647 C674 0.950 . S
H648 C677 0.950 . S
H649 C678 0.950 . S
H650 C680 0.950 . S
H651 C681 0.950 . S
C652 H634 0.951 . S
C652 C653 1.366 . S
C652 C654 1.388 . S
C653 C652 1.366 . S
C653 C657 1.385 . S
C654 H635 0.951 . S
C654 C652 1.388 . S
C654 C655 1.366 . S
C655 C654 1.366 . S
C655 C656 1.414 . S
C655 C658 1.499 . S
C656 H636 0.950 . S
C656 C655 1.414 . S
C656 C657 1.374 . S
C657 H637 0.950 . S
C657 C653 1.385 . S
C657 C656 1.374 . S
C658 C655 1.499 . S
C658 C659 1.373 . S
C658 C660 1.389 1_455 S
C659 H638 0.950 . S
C659 C658 1.373 . S
C659 C675 1.377 . S
C660 C658 1.389 1_655 S
C660 C661 1.524 . S
C660 C674 1.377 . S
C661 C660 1.524 . S
C661 C662 1.397 . S
C661 C666 1.363 . S
C662 H639 0.950 . S
C662 C661 1.397 . S
C662 C663 1.334 . S
C663 H640 0.950 . S
C663 C662 1.334 . S
C663 C664 1.287 . S
C664 C663 1.287 . S
C664 C665 1.524 . S
C664 H683 0.913 . S
C665 H641 0.950 . S
C665 C664 1.524 . S
C665 C666 1.415 . S
C666 H642 0.950 . S
C666 C661 1.363 . S
C666 C665 1.415 . S
C667 H643 0.951 . S
C667 C668 1.366 . S
C667 C669 1.388 . S
C668 C667 1.366 . S
C668 C672 1.385 . S
C669 H644 0.951 . S
C669 C667 1.388 . S
C669 C670 1.366 . S
C670 C669 1.366 . S
C670 C671 1.414 . S
C670 C673 1.499 . S
C671 H645 0.950 . S
C671 C670 1.414 . S
C671 C672 1.374 . S
C672 H646 0.950 . S
C672 C668 1.385 . S
C672 C671 1.374 . S
C673 C670 1.499 . S
C673 C674 1.373 . S
C673 C675 1.389 1_655 S
C674 H647 0.950 . S
C674 C660 1.377 . S
C674 C673 1.373 . S
C675 C659 1.377 . S
C675 C673 1.389 1_455 S
C675 C676 1.524 . S
C676 C675 1.524 . S
C676 C677 1.397 . S
C676 C681 1.363 . S
C677 H648 0.950 . S
C677 C676 1.397 . S
C677 C678 1.334 . S
C678 H649 0.950 . S
C678 C677 1.334 . S
C678 C679 1.287 . S
C679 C678 1.287 . S
C679 C680 1.524 . S
C679 H682 0.999 . S
C680 H650 0.950 . S
C680 C679 1.524 . S
C680 C681 1.415 . S
C681 H651 0.950 . S
C681 C676 1.363 . S
C681 C680 1.415 . S
H682 C679 0.999 . S
H683 C664 0.913 . S
C103 C9 1.155 . S
C118 C64 1.155 . S
C153 C23 1.155 . S
C168 C78 1.154 . S
C203 C8 1.154 . S
C218 C36 1.155 . S
C253 C50 1.155 . S
C268 C22 1.155 . S
C303 C65 1.155 . S
C318 C37 1.155 . S
C353 C51 1.155 . S
C368 C79 1.155 . S
C403 C49 1.425 . S
C418 C7 1.424 . S
C453 C62 1.425 . S
C468 C21 1.424 . S
C503 C76 1.425 . S
C518 C34 1.425 . S
C553 C6 1.424 . S
C568 C48 1.425 . S
C603 C20 1.425 . S
C618 C63 1.424 . S
C653 C77 1.424 . S
C668 C35 1.425 . S
