# Generated by pormake.
# Topology wjy, (5)-cn, num edge types: 1
# Building blocks:
#     Node 0, Type 0, BuildingBlock: BEQFEK_clean_sbu_0, # of connection points: 5
#     Node 1, Type 0, BuildingBlock: BEQFEK_clean_sbu_0, # of connection points: 5
#     Node 2, Type 0, BuildingBlock: BEQFEK_clean_sbu_0, # of connection points: 5
#     Node 3, Type 0, BuildingBlock: BEQFEK_clean_sbu_0, # of connection points: 5
#     Node 4, Type 0, BuildingBlock: BEQFEK_clean_sbu_0, # of connection points: 5
#     Node 5, Type 0, BuildingBlock: BEQFEK_clean_sbu_0, # of connection points: 5
#     Node 6, Type 0, BuildingBlock: BEQFEK_clean_sbu_0, # of connection points: 5
#     Node 7, Type 0, BuildingBlock: BEQFEK_clean_sbu_0, # of connection points: 5
#     Node 8, Type 0, BuildingBlock: BEQFEK_clean_sbu_0, # of connection points: 5
#     Node 9, Type 0, BuildingBlock: BEQFEK_clean_sbu_0, # of connection points: 5
#     Node 10, Type 0, BuildingBlock: BEQFEK_clean_sbu_0, # of connection points: 5
#     Node 11, Type 0, BuildingBlock: BEQFEK_clean_sbu_0, # of connection points: 5
#     Edge 12, Type (0, 0), BuildingBlock: UVAHIK_clean_linker_0, # of connection points: 2
#     Edge 13, Type (0, 0), BuildingBlock: UVAHIK_clean_linker_0, # of connection points: 2
#     Edge 14, Type (0, 0), BuildingBlock: UVAHIK_clean_linker_0, # of connection points: 2
#     Edge 15, Type (0, 0), BuildingBlock: UVAHIK_clean_linker_0, # of connection points: 2
#     Edge 16, Type (0, 0), BuildingBlock: UVAHIK_clean_linker_0, # of connection points: 2
#     Edge 17, Type (0, 0), BuildingBlock: UVAHIK_clean_linker_0, # of connection points: 2
#     Edge 18, Type (0, 0), BuildingBlock: UVAHIK_clean_linker_0, # of connection points: 2
#     Edge 19, Type (0, 0), BuildingBlock: UVAHIK_clean_linker_0, # of connection points: 2
#     Edge 20, Type (0, 0), BuildingBlock: UVAHIK_clean_linker_0, # of connection points: 2
#     Edge 21, Type (0, 0), BuildingBlock: UVAHIK_clean_linker_0, # of connection points: 2
#     Edge 22, Type (0, 0), BuildingBlock: UVAHIK_clean_linker_0, # of connection points: 2
#     Edge 23, Type (0, 0), BuildingBlock: UVAHIK_clean_linker_0, # of connection points: 2
#     Edge 24, Type (0, 0), BuildingBlock: UVAHIK_clean_linker_0, # of connection points: 2
#     Edge 25, Type (0, 0), BuildingBlock: UVAHIK_clean_linker_0, # of connection points: 2
#     Edge 26, Type (0, 0), BuildingBlock: UVAHIK_clean_linker_0, # of connection points: 2
#     Edge 27, Type (0, 0), BuildingBlock: UVAHIK_clean_linker_0, # of connection points: 2
#     Edge 28, Type (0, 0), BuildingBlock: UVAHIK_clean_linker_0, # of connection points: 2
#     Edge 29, Type (0, 0), BuildingBlock: UVAHIK_clean_linker_0, # of connection points: 2
#     Edge 30, Type (0, 0), BuildingBlock: UVAHIK_clean_linker_0, # of connection points: 2
#     Edge 31, Type (0, 0), BuildingBlock: UVAHIK_clean_linker_0, # of connection points: 2
#     Edge 32, Type (0, 0), BuildingBlock: UVAHIK_clean_linker_0, # of connection points: 2
#     Edge 33, Type (0, 0), BuildingBlock: UVAHIK_clean_linker_0, # of connection points: 2
#     Edge 34, Type (0, 0), BuildingBlock: UVAHIK_clean_linker_0, # of connection points: 2
#     Edge 35, Type (0, 0), BuildingBlock: UVAHIK_clean_linker_0, # of connection points: 2
#     Edge 36, Type (0, 0), BuildingBlock: UVAHIK_clean_linker_0, # of connection points: 2
#     Edge 37, Type (0, 0), BuildingBlock: UVAHIK_clean_linker_0, # of connection points: 2
#     Edge 38, Type (0, 0), BuildingBlock: UVAHIK_clean_linker_0, # of connection points: 2
#     Edge 39, Type (0, 0), BuildingBlock: UVAHIK_clean_linker_0, # of connection points: 2
#     Edge 40, Type (0, 0), BuildingBlock: UVAHIK_clean_linker_0, # of connection points: 2
#     Edge 41, Type (0, 0), BuildingBlock: UVAHIK_clean_linker_0, # of connection points: 2
# Relax obj value: 0.123
# Max RMSD: 0.152
# Mean RMSD: 0.152
data_MOF--net-wjy--node1-BEQFEK_clean_sbu_0--edge1-UVAHIK_clean_linker_0
_symmetry_space_group_name_H-M    P1
_symmetry_Int_Tables_number       1
_symmetry_cell_setting            triclinic
loop_
_symmetry_equiv_pos_as_xyz
'x, y, z'
_cell_length_a     94.164506
_cell_length_b     94.128329
_cell_length_c     23.289114
_cell_angle_alpha  90.009611
_cell_angle_beta   90.00741
_cell_angle_gamma 120.00676
loop_
_atom_site_label
_atom_site_type_symbol
_atom_site_fract_x
_atom_site_fract_y
_atom_site_fract_z
_atom_type_partial_charge
Co0 Co 0.45477 0.11268 0.15232 0.0
Co1 Co 0.46739 0.11762 0.02601 0.0
C2 C 0.43986 0.08522 0.06878 0.0
O3 O 0.44014 0.0907 0.11899 0.0
O4 O 0.44979 0.09433 0.03013 0.0
C5 C 0.43624 0.1018 0.25852 0.0
O6 O 0.42721 0.08765 0.23268 0.0
C7 C 0.46265 0.11801 0.90309 0.0
C8 C 0.48796 0.13048 0.86921 0.0
C9 C 0.47166 0.12314 0.85279 0.0
N10 N 0.47314 0.1223 0.94736 0.0
N11 N 0.48826 0.12979 0.92696 0.0
C12 C 0.44438 0.10804 0.90918 0.0
H13 H 0.44007 0.09546 0.89285 0.0
H14 H 0.44069 0.10744 0.95468 0.0
H15 H 0.43828 0.11337 0.88365 0.0
C16 C 0.4511 0.1412 0.12239 0.0
N17 N 0.45478 0.12954 0.1084 0.0
N18 N 0.46015 0.13179 0.05519 0.0
C19 C 0.45998 0.14498 0.03335 0.0
C20 C 0.45423 0.15139 0.07525 0.0
C21 C 0.4462 0.14332 0.18155 0.0
H22 H 0.45531 0.14386 0.21296 0.0
H23 H 0.43415 0.13252 0.19238 0.0
H24 H 0.44545 0.15466 0.18563 0.0
O25 O 0.47732 0.11641 0.1586 0.0
O26 O 0.48686 0.12047 0.0694 0.0
H27 H 0.47729 0.15303 0.96416 0.0
H28 H 0.46459 0.16245 0.96458 0.0
C29 C 0.46485 0.15102 0.97306 0.0
H30 H 0.45613 0.14157 0.943 0.0
H31 H 0.49877 0.13422 0.95239 0.0
O32 O 0.44791 0.11354 0.23145 0.0
C33 C 0.48878 0.11944 0.12313 0.0
Co34 Co 0.33867 0.45212 0.32548 0.0
Co35 Co 0.34896 0.46694 0.20253 0.0
C36 C 0.35229 0.43816 0.24284 0.0
O37 O 0.34626 0.43772 0.29219 0.0
O38 O 0.35397 0.4488 0.20559 0.0
C39 C 0.33405 0.43678 0.43562 0.0
O40 O 0.34448 0.43248 0.41645 0.0
C41 C 0.34661 0.46426 0.07865 0.0
C42 C 0.35664 0.48991 0.05024 0.0
C43 C 0.34973 0.47393 0.03034 0.0
N44 N 0.35147 0.47402 0.12502 0.0
N45 N 0.3576 0.48938 0.10787 0.0
C46 C 0.33749 0.44591 0.08153 0.0
H47 H 0.33168 0.44166 0.12427 0.0
H48 H 0.32795 0.44064 0.04757 0.0
H49 H 0.34621 0.44141 0.07454 0.0
C50 C 0.3072 0.44909 0.28867 0.0
N51 N 0.32281 0.45299 0.27835 0.0
N52 N 0.32719 0.45971 0.22718 0.0
C53 C 0.31453 0.4605 0.20351 0.0
C54 C 0.30144 0.45373 0.24159 0.0
C55 C 0.29863 0.44245 0.34468 0.0
H56 H 0.30538 0.45149 0.37915 0.0
H57 H 0.29877 0.43103 0.35518 0.0
H58 H 0.28579 0.4399 0.34371 0.0
O59 O 0.35758 0.47449 0.33747 0.0
O60 O 0.36489 0.48547 0.25064 0.0
H61 H 0.32577 0.48035 0.1436 0.0
H62 H 0.30369 0.4682 0.13687 0.0
C63 C 0.31503 0.46778 0.14588 0.0
H64 H 0.31639 0.46023 0.11221 0.0
H65 H 0.36208 0.49943 0.13556 0.0
O66 O 0.32948 0.44447 0.40264 0.0
C67 C 0.36679 0.48647 0.30494 0.0
Co68 Co 0.88805 0.34168 0.50778 0.0
Co69 Co 0.88137 0.34681 0.38083 0.0
C70 C 0.91403 0.35156 0.41859 0.0
O71 O 0.90918 0.34755 0.47018 0.0
O72 O 0.90455 0.35187 0.38019 0.0
C73 C 0.89235 0.32709 0.61529 0.0
O74 O 0.89547 0.31699 0.58637 0.0
C75 C 0.8787 0.34105 0.2572 0.0
C76 C 0.86091 0.34872 0.23173 0.0
C77 C 0.87018 0.3422 0.21059 0.0
N78 N 0.87441 0.34636 0.30398 0.0
N79 N 0.86381 0.35098 0.28855 0.0
C80 C 0.89157 0.33615 0.25757 0.0
H81 H 0.89064 0.32931 0.29753 0.0
H82 H 0.89084 0.32871 0.21976 0.0
H83 H 0.90374 0.34745 0.25693 0.0
C84 C 0.85762 0.30951 0.48885 0.0
N85 N 0.86985 0.32415 0.47053 0.0
N86 N 0.86743 0.32608 0.41614 0.0
C87 C 0.8539 0.31247 0.39753 0.0
C88 C 0.84714 0.30157 0.44311 0.0
C89 C 0.85506 0.30406 0.55021 0.0
H90 H 0.85877 0.31472 0.579 0.0
H91 H 0.8627 0.29844 0.55999 0.0
H92 H 0.84204 0.29487 0.55877 0.0
O93 O 0.88505 0.36084 0.51037 0.0
O94 O 0.87981 0.36474 0.4209 0.0
H95 H 0.84347 0.31816 0.32567 0.0
H96 H 0.83818 0.29686 0.32893 0.0
C97 C 0.84802 0.30968 0.33662 0.0
H98 H 0.85835 0.3122 0.30776 0.0
H99 H 0.8585 0.35556 0.31687 0.0
O100 O 0.88918 0.33699 0.589 0.0
C101 C 0.8817 0.36874 0.47377 0.0
Co102 Co 0.54305 0.88535 0.65424 0.0
Co103 Co 0.52955 0.88068 0.5291 0.0
C104 C 0.55757 0.91296 0.57144 0.0
O105 O 0.55763 0.90737 0.62114 0.0
O106 O 0.54732 0.90393 0.53336 0.0
C107 C 0.56126 0.8962 0.76093 0.0
O108 O 0.56959 0.91062 0.73616 0.0
C109 C 0.53399 0.8819 0.40598 0.0
C110 C 0.50883 0.86654 0.37263 0.0
C111 C 0.52507 0.87599 0.35573 0.0
N112 N 0.52355 0.87633 0.45048 0.0
N113 N 0.5085 0.86721 0.43041 0.0
C114 C 0.55226 0.89122 0.41239 0.0
H115 H 0.55588 0.88918 0.4556 0.0
H116 H 0.55811 0.88741 0.37904 0.0
H117 H 0.55676 0.90449 0.40709 0.0
C118 C 0.54629 0.85675 0.62149 0.0
N119 N 0.54263 0.86852 0.6089 0.0
N120 N 0.5369 0.86638 0.55621 0.0
C121 C 0.53681 0.85318 0.53326 0.0
C122 C 0.54276 0.84662 0.5739 0.0
C123 C 0.55146 0.85446 0.67994 0.0
H124 H 0.5426 0.85402 0.71229 0.0
H125 H 0.56364 0.86514 0.69026 0.0
H126 H 0.55204 0.84301 0.68318 0.0
O127 O 0.5206 0.88171 0.66246 0.0
O128 O 0.51032 0.87776 0.57435 0.0
H129 H 0.51852 0.84427 0.46732 0.0
H130 H 0.53245 0.83628 0.46278 0.0
C131 C 0.53139 0.84719 0.47324 0.0
H132 H 0.53917 0.85702 0.44261 0.0
H133 H 0.49804 0.86131 0.45615 0.0
O134 O 0.55014 0.88423 0.73289 0.0
C135 C 0.50885 0.87873 0.62841 0.0
Co136 Co 0.65799 0.5457 0.82701 0.0
Co137 Co 0.64834 0.53072 0.70401 0.0
C138 C 0.64434 0.55925 0.74295 0.0
O139 O 0.65017 0.55987 0.79283 0.0
O140 O 0.64305 0.54864 0.70618 0.0
C141 C 0.66185 0.56067 0.93752 0.0
O142 O 0.65093 0.56434 0.91856 0.0
C143 C 0.65096 0.53331 0.58011 0.0
C144 C 0.64124 0.50767 0.55199 0.0
C145 C 0.64798 0.52361 0.53194 0.0
N146 N 0.64616 0.52359 0.62658 0.0
N147 N 0.64025 0.50825 0.60961 0.0
C148 C 0.65988 0.55165 0.58264 0.0
H149 H 0.66539 0.55603 0.62571 0.0
H150 H 0.66964 0.55693 0.54943 0.0
H151 H 0.65111 0.556 0.57397 0.0
C152 C 0.68987 0.54933 0.79176 0.0
N153 N 0.67418 0.54505 0.78089 0.0
N154 N 0.67004 0.53825 0.72977 0.0
C155 C 0.68293 0.53778 0.70669 0.0
C156 C 0.69592 0.54483 0.74512 0.0
C157 C 0.69833 0.55631 0.84769 0.0
H158 H 0.69175 0.54731 0.88241 0.0
H159 H 0.6978 0.56757 0.85758 0.0
H160 H 0.71129 0.55924 0.84698 0.0
O161 O 0.63914 0.52323 0.83877 0.0
O162 O 0.63238 0.51219 0.75182 0.0
H163 H 0.67219 0.51799 0.64631 0.0
H164 H 0.69426 0.53046 0.64052 0.0
C165 C 0.68277 0.53065 0.64906 0.0
H166 H 0.68137 0.53814 0.61532 0.0
H167 H 0.63583 0.49823 0.6374 0.0
O168 O 0.66694 0.55347 0.90431 0.0
C169 C 0.63018 0.5112 0.80597 0.0
Co170 Co 0.10925 0.65584 0.00379 0.0
Co171 Co 0.11578 0.65113 0.87621 0.0
C172 C 0.08312 0.64612 0.91501 0.0
O173 O 0.08804 0.64993 0.96667 0.0
O174 O 0.09257 0.64603 0.87601 0.0
C175 C 0.10484 0.67013 0.11153 0.0
O176 O 0.10103 0.67975 0.08265 0.0
C177 C 0.11828 0.6566 0.75227 0.0
C178 C 0.13746 0.6507 0.72819 0.0
C179 C 0.12744 0.65626 0.70629 0.0
N180 N 0.12293 0.6518 0.79946 0.0
N181 N 0.13433 0.6482 0.78481 0.0
C182 C 0.10455 0.66027 0.75168 0.0
H183 H 0.10589 0.66841 0.78827 0.0
H184 H 0.10371 0.66582 0.71089 0.0
H185 H 0.09291 0.64857 0.75742 0.0
C186 C 0.13943 0.68822 0.98513 0.0
N187 N 0.12732 0.67353 0.96666 0.0
N188 N 0.12963 0.6718 0.91199 0.0
C189 C 0.14294 0.68561 0.89335 0.0
C190 C 0.1497 0.69642 0.93919 0.0
C191 C 0.14204 0.69355 0.04664 0.0
H192 H 0.13863 0.68287 0.07503 0.0
H193 H 0.13418 0.69887 0.05717 0.0
H194 H 0.15501 0.70293 0.05498 0.0
O195 O 0.11236 0.63674 0.00552 0.0
O196 O 0.11743 0.63315 0.91549 0.0
H197 H 0.15382 0.68088 0.82056 0.0
H198 H 0.15781 0.70175 0.82444 0.0
C199 C 0.14855 0.68872 0.83215 0.0
H200 H 0.13794 0.68557 0.80386 0.0
H201 H 0.14011 0.64424 0.81362 0.0
O202 O 0.10833 0.66048 0.08514 0.0
C203 C 0.11566 0.62898 0.96816 0.0
Co204 Co 0.89011 0.54717 0.65321 0.0
Co205 Co 0.88132 0.53364 0.77797 0.0
C206 C 0.91488 0.56178 0.74478 0.0
O207 O 0.91097 0.56204 0.69262 0.0
O208 O 0.90467 0.55136 0.78012 0.0
C209 C 0.89633 0.5662 0.54423 0.0
O210 O 0.9015 0.58009 0.57188 0.0
C211 C 0.87688 0.53745 0.90031 0.0
C212 C 0.8637 0.51171 0.92998 0.0
C213 C 0.87019 0.52776 0.94878 0.0
N214 N 0.87431 0.52755 0.85513 0.0
N215 N 0.86636 0.51218 0.87308 0.0
C216 C 0.88623 0.55581 0.89709 0.0
H217 H 0.89267 0.56011 0.85561 0.0
H218 H 0.87758 0.56053 0.90063 0.0
H219 H 0.89514 0.56097 0.93301 0.0
C220 C 0.86041 0.55035 0.67008 0.0
N221 N 0.87184 0.54683 0.689 0.0
N222 N 0.86788 0.54064 0.7411 0.0
C223 C 0.85371 0.53983 0.75665 0.0
C224 C 0.8486 0.54607 0.71238 0.0
C225 C 0.86 0.55628 0.61084 0.0
H226 H 0.86159 0.54846 0.57882 0.0
H227 H 0.87028 0.56903 0.60597 0.0
H228 H 0.8483 0.55605 0.60221 0.0
O229 O 0.88673 0.52467 0.65048 0.0
O230 O 0.87965 0.51426 0.738 0.0
H231 H 0.844 0.52076 0.81997 0.0
H232 H 0.83265 0.53152 0.81315 0.0
C233 C 0.84504 0.53288 0.81233 0.0
H234 H 0.85228 0.54121 0.84774 0.0
H235 H 0.86296 0.50203 0.84663 0.0
O236 O 0.89154 0.55292 0.5717 0.0
C237 C 0.88248 0.51285 0.68549 0.0
Co238 Co 0.34178 0.88745 0.8393 0.0
Co239 Co 0.34905 0.88131 0.96471 0.0
C240 C 0.35477 0.91438 0.92421 0.0
O241 O 0.34957 0.90942 0.87355 0.0
O242 O 0.35521 0.90476 0.96168 0.0
C243 C 0.3349 0.89865 0.7321 0.0
O244 O 0.34061 0.91299 0.75717 0.0
C245 C 0.34355 0.88134 0.0864 0.0
C246 C 0.35442 0.8673 0.12298 0.0
C247 C 0.34646 0.87582 0.1377 0.0
N248 N 0.34962 0.87649 0.04345 0.0
N249 N 0.35614 0.8681 0.0654 0.0
C250 C 0.334 0.88997 0.07738 0.0
H251 H 0.32886 0.88774 0.03328 0.0
H252 H 0.32392 0.88577 0.10926 0.0
H253 H 0.34225 0.90334 0.08295 0.0
C254 C 0.30906 0.85962 0.86853 0.0
N255 N 0.3246 0.87073 0.88258 0.0
N256 N 0.32763 0.86782 0.93507 0.0
C257 C 0.31407 0.85471 0.95615 0.0
C258 C 0.30186 0.84914 0.91473 0.0
C259 C 0.3014 0.85898 0.81158 0.0
H260 H 0.30716 0.85508 0.77824 0.0
H261 H 0.30375 0.87141 0.80005 0.0
H262 H 0.28798 0.85032 0.81209 0.0
O263 O 0.36024 0.88311 0.83298 0.0
O264 O 0.36537 0.87804 0.92134 0.0
H265 H 0.32468 0.84631 0.0196 0.0
H266 H 0.3026 0.83414 0.01485 0.0
C267 C 0.31328 0.84677 0.01267 0.0
H268 H 0.31216 0.85416 0.04757 0.0
H269 H 0.36171 0.86291 0.04111 0.0
O270 O 0.33425 0.88675 0.75996 0.0
C271 C 0.36837 0.87943 0.86763 0.0
Co272 Co 0.45325 0.34398 -0.00153 0.0
Co273 Co 0.46526 0.34795 0.12508 0.0
C274 C 0.43799 0.35415 0.08837 0.0
O275 O 0.43841 0.35031 0.03621 0.0
O276 O 0.44774 0.35386 0.12562 0.0
C277 C 0.4343 0.33163 0.89058 0.0
O278 O 0.42056 0.32406 0.91983 0.0
C279 C 0.45942 0.33959 0.24569 0.0
C280 C 0.48423 0.34775 0.27976 0.0
C281 C 0.46784 0.34028 0.29525 0.0
N282 N 0.47029 0.34636 0.20281 0.0
N283 N 0.48513 0.35129 0.22335 0.0
C284 C 0.44123 0.3313 0.23771 0.0
H285 H 0.43791 0.32735 0.19243 0.0
H286 H 0.43492 0.32052 0.2666 0.0
H287 H 0.437 0.34004 0.24853 0.0
C288 C 0.44915 0.31079 0.01518 0.0
N289 N 0.45283 0.32576 0.03445 0.0
N290 N 0.45791 0.32741 0.088 0.0
C291 C 0.45737 0.31343 0.10469 0.0
C292 C 0.45173 0.30247 0.05925 0.0
C293 C 0.44367 0.30473 0.95536 0.0
H294 H 0.45224 0.31391 0.92413 0.0
H295 H 0.43132 0.30317 0.94838 0.0
H296 H 0.44301 0.29279 0.94762 0.0
O297 O 0.47585 0.36266 -0.00168 0.0
O298 O 0.48531 0.36569 0.08725 0.0
H299 H 0.47558 0.32164 0.17085 0.0
H300 H 0.46416 0.29964 0.16193 0.0
C301 C 0.46333 0.31099 0.1614 0.0
H302 H 0.45472 0.31009 0.19556 0.0
H303 H 0.49582 0.35687 0.19874 0.0
O304 O 0.4479 0.33972 0.91661 0.0
C305 C 0.48733 0.37001 0.03469 0.0
Co306 Co 0.10668 0.45046 0.15365 0.0
Co307 Co 0.1152 0.46467 0.27769 0.0
C308 C 0.08191 0.43595 0.2451 0.0
O309 O 0.08589 0.4355 0.19318 0.0
O310 O 0.09198 0.44666 0.28003 0.0
C311 C 0.10104 0.43134 0.04467 0.0
O312 O 0.09658 0.41754 0.07207 0.0
C313 C 0.1196 0.46122 0.40019 0.0
C314 C 0.13174 0.48694 0.43005 0.0
C315 C 0.12576 0.47096 0.44883 0.0
N316 N 0.12197 0.47102 0.35491 0.0
N317 N 0.12931 0.48638 0.37296 0.0
C318 C 0.11085 0.44287 0.39692 0.0
H319 H 0.10475 0.43841 0.35493 0.0
H320 H 0.11982 0.43859 0.40172 0.0
H321 H 0.10173 0.43744 0.43211 0.0
C322 C 0.13687 0.44823 0.17198 0.0
N323 N 0.12514 0.4514 0.19022 0.0
N324 N 0.12897 0.45788 0.24196 0.0
C325 C 0.14336 0.45924 0.25795 0.0
C326 C 0.14875 0.45306 0.21435 0.0
C327 C 0.1375 0.44219 0.11315 0.0
H328 H 0.13555 0.44964 0.08058 0.0
H329 H 0.12753 0.42927 0.10885 0.0
H330 H 0.14942 0.44285 0.10481 0.0
O331 O 0.10968 0.47279 0.14954 0.0
O332 O 0.11659 0.48375 0.23638 0.0
H333 H 0.15252 0.47863 0.32008 0.0
H334 H 0.16454 0.46855 0.31437 0.0
C335 C 0.15197 0.4667 0.31331 0.0
H336 H 0.14496 0.45843 0.34916 0.0
H337 H 0.1324 0.49646 0.34647 0.0
O338 O 0.1053 0.44449 0.07232 0.0
C339 C 0.11374 0.48479 0.18357 0.0
Co340 Co 0.65612 0.11001 0.33726 0.0
Co341 Co 0.64746 0.116 0.46075 0.0
C342 C 0.64313 0.08326 0.42302 0.0
O343 O 0.64857 0.08822 0.37257 0.0
O344 O 0.64207 0.09274 0.45968 0.0
C345 C 0.66013 0.09867 0.22654 0.0
O346 O 0.64974 0.0839 0.24558 0.0
C347 C 0.65147 0.11686 0.58392 0.0
C348 C 0.64107 0.13204 0.61368 0.0
C349 C 0.64852 0.12339 0.6326 0.0
N350 N 0.64593 0.1213 0.53822 0.0
N351 N 0.63965 0.13032 0.55614 0.0
C352 C 0.66078 0.10785 0.58009 0.0
H353 H 0.66592 0.10897 0.53638 0.0
H354 H 0.67083 0.11266 0.61225 0.0
H355 H 0.65236 0.09469 0.58947 0.0
C356 C 0.68818 0.13848 0.36877 0.0
N357 N 0.67263 0.12709 0.38153 0.0
N358 N 0.66905 0.12989 0.43335 0.0
C359 C 0.68226 0.14319 0.45532 0.0
C360 C 0.6948 0.14902 0.41515 0.0
C361 C 0.69638 0.13937 0.3128 0.0
H362 H 0.69456 0.1271 0.3019 0.0
H363 H 0.70971 0.14839 0.31439 0.0
H364 H 0.69062 0.14295 0.27845 0.0
O365 O 0.63736 0.11372 0.32694 0.0
O366 O 0.63121 0.11856 0.41404 0.0
H367 H 0.67115 0.15179 0.51594 0.0
H368 H 0.69328 0.16351 0.51527 0.0
C369 C 0.68246 0.15102 0.5115 0.0
H370 H 0.68281 0.14335 0.54699 0.0
H371 H 0.63461 0.13548 0.52906 0.0
O372 O 0.66461 0.11093 0.25946 0.0
C373 C 0.6287 0.1171 0.36004 0.0
Co374 Co 0.54289 0.65357 0.49757 0.0
Co375 Co 0.53109 0.64963 0.62429 0.0
C376 C 0.55792 0.64287 0.58642 0.0
O377 O 0.55759 0.647 0.53461 0.0
O378 O 0.54821 0.64311 0.62395 0.0
C379 C 0.56173 0.66574 0.38923 0.0
O380 O 0.57564 0.67309 0.41768 0.0
C381 C 0.5359 0.65828 0.74636 0.0
C382 C 0.51033 0.64721 0.77701 0.0
C383 C 0.52651 0.65619 0.79501 0.0
N384 N 0.52569 0.65101 0.70185 0.0
N385 N 0.51044 0.64446 0.7204 0.0
C386 C 0.5542 0.66643 0.74227 0.0
H387 H 0.5592 0.66296 0.77945 0.0
H388 H 0.55803 0.6632 0.70185 0.0
H389 H 0.55954 0.67993 0.7426 0.0
C390 C 0.54721 0.6868 0.51462 0.0
N391 N 0.54359 0.67186 0.53397 0.0
N392 N 0.53856 0.67023 0.58756 0.0
C393 C 0.53892 0.68415 0.60405 0.0
C394 C 0.54453 0.69508 0.55858 0.0
C395 C 0.55253 0.69278 0.45465 0.0
H396 H 0.56476 0.69412 0.44701 0.0
H397 H 0.55335 0.70481 0.44713 0.0
H398 H 0.54375 0.68366 0.4237 0.0
O399 O 0.52018 0.63501 0.497 0.0
O400 O 0.51097 0.63221 0.58617 0.0
H401 H 0.52059 0.67542 0.66997 0.0
H402 H 0.531 0.69737 0.6594 0.0
C403 C 0.53255 0.68643 0.66012 0.0
H404 H 0.54133 0.68808 0.69468 0.0
H405 H 0.50011 0.63803 0.69446 0.0
O406 O 0.54823 0.65792 0.41596 0.0
C407 C 0.50876 0.62782 0.5337 0.0
C408 C 0.4616 0.28394 0.02453 0.0
C409 C 0.4504 0.28624 0.05697 0.0
C410 C 0.46091 0.26878 0.02471 0.0
C411 C 0.44404 0.23005 0.10879 0.0
H412 H 0.45699 0.21511 0.97393 0.0
C413 C 0.43821 0.16583 0.08752 0.0
C414 C 0.45285 0.16633 0.07189 0.0
C415 C 0.43699 0.18002 0.08486 0.0
C416 C 0.45336 0.21918 0.01185 0.0
H417 H 0.4296 0.27483 0.11429 0.0
H418 H 0.42781 0.248 0.11288 0.0
H419 H 0.45595 0.24046 0.96943 0.0
H420 H 0.47779 0.18198 0.04259 0.0
H421 H 0.47545 0.20668 0.03566 0.0
H422 H 0.44108 0.20842 0.15046 0.0
C423 C 0.43745 0.25793 0.08849 0.0
C424 C 0.45286 0.23375 0.00952 0.0
C425 C 0.43834 0.2732 0.08899 0.0
C426 C 0.46625 0.18122 0.05364 0.0
C427 C 0.46494 0.19532 0.04988 0.0
C428 C 0.44425 0.21532 0.11073 0.0
C429 C 0.44884 0.25555 0.05678 0.0
C430 C 0.44843 0.23952 0.05822 0.0
C431 C 0.45032 0.19485 0.0656 0.0
C432 C 0.44913 0.2099 0.06253 0.0
H433 H 0.4711 0.294 7e-05 0.0
H434 H 0.47011 0.26759 0.00074 0.0
H435 H 0.44084 0.23419 0.14749 0.0
H436 H 0.42771 0.15445 0.10159 0.0
H437 H 0.42558 0.17938 0.09707 0.0
C438 C 0.16429 0.43808 0.20813 0.0
C439 C 0.16432 0.45295 0.21172 0.0
C440 C 0.17908 0.43796 0.20879 0.0
C441 C 0.22246 0.46371 0.25269 0.0
H442 H 0.22893 0.43301 0.16098 0.0
C443 C 0.28542 0.46806 0.23079 0.0
C444 C 0.28568 0.45337 0.23621 0.0
C445 C 0.27052 0.46782 0.22641 0.0
C446 C 0.22722 0.44155 0.18717 0.0
H447 H 0.1795 0.47935 0.21596 0.0
H448 H 0.20541 0.47928 0.21593 0.0
H449 H 0.20307 0.43307 0.1542 0.0
H450 H 0.27088 0.42694 0.24124 0.0
H451 H 0.24464 0.42643 0.23343 0.0
H452 H 0.24667 0.47228 0.28517 0.0
C453 C 0.19405 0.46766 0.21431 0.0
C454 C 0.21242 0.44158 0.18338 0.0
C455 C 0.17927 0.46774 0.21402 0.0
C456 C 0.27087 0.4384 0.237 0.0
C457 C 0.25594 0.43813 0.2322 0.0
C458 C 0.23727 0.46374 0.25616 0.0
C459 C 0.19414 0.45276 0.21255 0.0
C460 C 0.20987 0.45268 0.21607 0.0
C461 C 0.25562 0.45286 0.22714 0.0
C462 C 0.23982 0.45268 0.22342 0.0
H463 H 0.15282 0.42655 0.20623 0.0
H464 H 0.17868 0.42627 0.20788 0.0
H465 H 0.2208 0.47218 0.27942 0.0
H466 H 0.29676 0.47974 0.23035 0.0
H467 H 0.27066 0.47935 0.22202 0.0
C468 C 0.71474 0.17697 0.3799 0.0
C469 C 0.71086 0.16413 0.41846 0.0
C470 C 0.72977 0.19152 0.3838 0.0
C471 C 0.76492 0.21515 0.48337 0.0
H472 H 0.78547 0.23967 0.34469 0.0
C473 C 0.83097 0.27176 0.46899 0.0
C474 C 0.83165 0.28563 0.44367 0.0
C475 C 0.81639 0.25664 0.46801 0.0
C476 C 0.77982 0.23293 0.3837 0.0
H477 H 0.71939 0.15605 0.49079 0.0
H478 H 0.74607 0.18119 0.49633 0.0
H479 H 0.76006 0.21347 0.33777 0.0
H480 H 0.81754 0.2948 0.39985 0.0
H481 H 0.79228 0.26819 0.39587 0.0
H482 H 0.78518 0.23458 0.52874 0.0
C483 C 0.7374 0.18035 0.46407 0.0
C484 C 0.7652 0.21797 0.37992 0.0
C485 C 0.72222 0.16591 0.46074 0.0
C486 C 0.81745 0.2842 0.41834 0.0
C487 C 0.80301 0.26904 0.41631 0.0
C488 C 0.77974 0.22998 0.48696 0.0
C489 C 0.74136 0.1934 0.42578 0.0
C490 C 0.7574 0.20897 0.42977 0.0
C491 C 0.80239 0.25513 0.44089 0.0
C492 C 0.78717 0.23907 0.43721 0.0
H493 H 0.706 0.17585 0.3474 0.0
H494 H 0.73214 0.20137 0.35441 0.0
H495 H 0.7592 0.20876 0.5228 0.0
H496 H 0.84177 0.27256 0.48865 0.0
H497 H 0.81616 0.24603 0.48713 0.0
C498 C 0.53419 0.71328 0.52439 0.0
C499 C 0.54567 0.71123 0.55604 0.0
C500 C 0.53477 0.7284 0.52422 0.0
C501 C 0.55214 0.76757 0.6061 0.0
H502 H 0.53835 0.78189 0.47174 0.0
C503 C 0.55854 0.83187 0.58401 0.0
C504 C 0.54395 0.83159 0.56925 0.0
C505 C 0.55952 0.81756 0.58096 0.0
C506 C 0.54221 0.77799 0.50954 0.0
H507 H 0.56685 0.72302 0.61158 0.0
H508 H 0.56846 0.74975 0.60948 0.0
H509 H 0.53917 0.75641 0.468 0.0
H510 H 0.5189 0.81622 0.54046 0.0
H511 H 0.52081 0.79128 0.53298 0.0
H512 H 0.55554 0.78948 0.64686 0.0
C513 C 0.55867 0.73968 0.58604 0.0
C514 C 0.54258 0.76335 0.50764 0.0
C515 C 0.55789 0.72446 0.58692 0.0
C516 C 0.53039 0.8168 0.55099 0.0
C517 C 0.53146 0.80257 0.54689 0.0
C518 C 0.55203 0.78235 0.60759 0.0
C519 C 0.54701 0.74182 0.55513 0.0
C520 C 0.54737 0.75783 0.55614 0.0
C521 C 0.546 0.80281 0.56217 0.0
C522 C 0.54689 0.78758 0.55955 0.0
H523 H 0.52457 0.70308 0.50079 0.0
H524 H 0.52538 0.72941 0.50088 0.0
H525 H 0.55559 0.76362 0.64468 0.0
H526 H 0.56917 0.84317 0.59792 0.0
H527 H 0.57088 0.81804 0.59273 0.0
C528 C 0.71279 0.53142 0.73397 0.0
C529 C 0.71197 0.5458 0.7398 0.0
C530 C 0.72791 0.53223 0.72769 0.0
C531 C 0.77239 0.55956 0.75143 0.0
H532 H 0.77579 0.52895 0.6487 0.0
C533 C 0.83389 0.56186 0.70479 0.0
C534 C 0.83332 0.54673 0.70921 0.0
C535 C 0.81937 0.5625 0.7046 0.0
C536 C 0.775 0.53753 0.6777 0.0
H537 H 0.72603 0.57228 0.7441 0.0
H538 H 0.75263 0.57385 0.73221 0.0
H539 H 0.74989 0.5288 0.65628 0.0
H540 H 0.81748 0.52044 0.71478 0.0
H541 H 0.79202 0.52147 0.71427 0.0
H542 H 0.79756 0.56827 0.77264 0.0
C543 C 0.74164 0.5619 0.73322 0.0
C544 C 0.76016 0.53741 0.68224 0.0
C545 C 0.72647 0.56105 0.73981 0.0
C546 C 0.81811 0.53223 0.71173 0.0
C547 C 0.80361 0.53284 0.71105 0.0
C548 C 0.78727 0.55974 0.74657 0.0
C549 C 0.74253 0.54749 0.72686 0.0
C550 C 0.7586 0.54827 0.71978 0.0
C551 C 0.80409 0.54799 0.70806 0.0
C552 C 0.78866 0.54858 0.71023 0.0
H553 H 0.70169 0.51953 0.73447 0.0
H554 H 0.72815 0.52088 0.72413 0.0
H555 H 0.77158 0.56795 0.78126 0.0
H556 H 0.84556 0.57317 0.70255 0.0
H557 H 0.82009 0.57433 0.70169 0.0
C558 C 0.27424 0.83247 0.95925 0.0
C559 C 0.28559 0.83424 0.91695 0.0
C560 C 0.25893 0.81816 0.96193 0.0
C561 C 0.23085 0.78091 0.87645 0.0
H562 H 0.21112 0.76371 0.02507 0.0
C563 C 0.17919 0.71435 0.91286 0.0
C564 C 0.16501 0.71253 0.93961 0.0
C565 C 0.19345 0.72965 0.91082 0.0
C566 C 0.21647 0.76847 0.98334 0.0
H567 H 0.29026 0.82262 0.84507 0.0
H568 H 0.26388 0.79734 0.85083 0.0
H569 H 0.23703 0.7896 0.01965 0.0
H570 H 0.15473 0.72511 0.98683 0.0
H571 H 0.18005 0.75189 0.98527 0.0
H572 H 0.21057 0.75929 0.84069 0.0
C573 C 0.26637 0.80712 0.88078 0.0
C574 C 0.23126 0.78335 0.98006 0.0
C575 C 0.28154 0.82153 0.87758 0.0
C576 C 0.16553 0.72619 0.96614 0.0
C577 C 0.17994 0.74147 0.96511 0.0
C578 C 0.21625 0.76591 0.87989 0.0
C579 C 0.25482 0.80522 0.92292 0.0
C580 C 0.23872 0.78972 0.92653 0.0
C581 C 0.19392 0.74334 0.93671 0.0
C582 C 0.209 0.75954 0.93334 0.0
H583 H 0.27719 0.84221 0.98994 0.0
H584 H 0.2503 0.81731 0.99435 0.0
H585 H 0.23594 0.78556 0.83438 0.0
H586 H 0.17923 0.70393 0.89333 0.0
H587 H 0.20418 0.73077 0.8894 0.0
C588 C 0.47141 0.11399 0.75246 0.0
C589 C 0.46546 0.1206 0.79349 0.0
C590 C 0.46527 0.11111 0.69652 0.0
C591 C 0.4443 0.1237 0.59224 0.0
H592 H 0.43769 0.08482 0.51156 0.0
C593 C 0.42431 0.08992 0.35477 0.0
C594 C 0.43442 0.10361 0.32063 0.0
C595 C 0.4246 0.09134 0.41457 0.0
C596 C 0.43916 0.09559 0.53371 0.0
H597 H 0.44941 0.13057 0.80766 0.0
H598 H 0.43822 0.12503 0.7105 0.0
H599 H 0.44529 0.08832 0.61259 0.0
H600 H 0.45181 0.12978 0.32202 0.0
H601 H 0.45249 0.13219 0.42577 0.0
H602 H 0.4382 0.13098 0.51323 0.0
C603 C 0.44749 0.1219 0.7215 0.0
C604 C 0.44377 0.09772 0.59139 0.0
C605 C 0.45368 0.1248 0.77739 0.0
C606 C 0.44398 0.11895 0.34714 0.0
C607 C 0.44426 0.12037 0.40673 0.0
C608 C 0.43964 0.12155 0.53456 0.0
C609 C 0.45314 0.11491 0.68054 0.0
C610 C 0.44677 0.11198 0.6209 0.0
C611 C 0.43495 0.1065 0.4412 0.0
C612 C 0.4374 0.10766 0.5043 0.0
H613 H 0.48066 0.11085 0.76386 0.0
H614 H 0.47016 0.10608 0.66561 0.0
H615 H 0.44657 0.13486 0.61369 0.0
H616 H 0.41671 0.07796 0.33556 0.0
H617 H 0.41709 0.08049 0.44003 0.0
C618 C 0.33667 0.42896 0.53622 0.0
C619 C 0.33004 0.43553 0.49742 0.0
C620 C 0.33534 0.4305 0.59537 0.0
C621 C 0.33369 0.45929 0.69414 0.0
H622 H 0.32604 0.42689 0.8109 0.0
C623 C 0.33857 0.47519 0.93465 0.0
C624 C 0.34572 0.46849 0.97025 0.0
C625 C 0.33441 0.46978 0.87805 0.0
C626 C 0.32836 0.43612 0.77879 0.0
H627 H 0.31562 0.44763 0.49023 0.0
H628 H 0.31343 0.4504 0.59335 0.0
H629 H 0.32189 0.41886 0.70977 0.0
H630 H 0.35482 0.45145 0.97447 0.0
H631 H 0.34802 0.4423 0.87534 0.0
H632 H 0.34087 0.47674 0.76213 0.0
C633 C 0.31981 0.44425 0.57796 0.0
C634 C 0.32588 0.43148 0.72101 0.0
C635 C 0.32104 0.4426 0.51893 0.0
C636 C 0.34895 0.45652 0.9482 0.0
C637 C 0.34499 0.45125 0.89144 0.0
C638 C 0.33634 0.46398 0.75169 0.0
C639 C 0.32742 0.43871 0.61663 0.0
C640 C 0.32864 0.44306 0.67817 0.0
C641 C 0.33762 0.45778 0.85567 0.0
C642 C 0.33386 0.4525 0.79474 0.0
H643 H 0.34359 0.42334 0.521 0.0
H644 H 0.34135 0.42616 0.62432 0.0
H645 H 0.3362 0.46855 0.66188 0.0
H646 H 0.33591 0.4844 0.95093 0.0
H647 H 0.32857 0.47493 0.85203 0.0
C648 C 0.89126 0.33961 0.70749 0.0
C649 C 0.89099 0.32641 0.67839 0.0
C650 C 0.88795 0.33861 0.76586 0.0
C651 C 0.88686 0.31862 0.90018 0.0
H652 H 0.85697 0.33399 0.94281 0.0
C653 C 0.86895 0.32249 0.136 0.0
C654 C 0.87072 0.33778 0.15038 0.0
C655 C 0.86985 0.31859 0.07873 0.0
C656 C 0.86532 0.32966 0.93157 0.0
H657 H 0.88787 0.3021 0.68815 0.0
H658 H 0.88206 0.30038 0.79174 0.0
H659 H 0.86203 0.33154 0.84175 0.0
H660 H 0.87388 0.36062 0.11682 0.0
H661 H 0.87536 0.35385 0.01661 0.0
H662 H 0.89045 0.31719 0.99048 0.0
C663 C 0.8848 0.31145 0.76862 0.0
C664 C 0.8682 0.32824 0.87385 0.0
C665 C 0.88814 0.31245 0.70961 0.0
C666 C 0.87265 0.34883 0.10666 0.0
C667 C 0.87343 0.34491 0.04947 0.0
C668 C 0.88394 0.32003 0.95825 0.0
C669 C 0.88423 0.32438 0.79671 0.0
C670 C 0.87941 0.32325 0.85762 0.0
C671 C 0.87216 0.32981 0.03499 0.0
C672 C 0.87355 0.32607 0.9743 0.0
H673 H 0.89369 0.35066 0.68487 0.0
H674 H 0.88805 0.34894 0.7868 0.0
H675 H 0.89555 0.31475 0.88867 0.0
H676 H 0.8667 0.31348 0.16894 0.0
H677 H 0.86854 0.30677 0.06857 0.0
C678 C 0.55341 0.87894 0.84936 0.0
C679 C 0.56289 0.89433 0.82316 0.0
C680 C 0.55283 0.87748 0.909 0.0
C681 C 0.55702 0.9022 0.03561 0.0
H682 H 0.55034 0.86347 0.11761 0.0
C683 C 0.54407 0.89402 0.27884 0.0
C684 C 0.53134 0.8786 0.29635 0.0
C685 C 0.55014 0.89641 0.2229 0.0
C686 C 0.55213 0.87432 0.09517 0.0
H687 H 0.5802 0.92006 0.83882 0.0
H688 H 0.57933 0.91746 0.94324 0.0
H689 H 0.55844 0.86699 0.01667 0.0
H690 H 0.51467 0.85367 0.26905 0.0
H691 H 0.52515 0.85786 0.17074 0.0
H692 H 0.5504 0.90937 0.11366 0.0
C693 C 0.57208 0.90659 0.91753 0.0
C694 C 0.5568 0.87636 0.03748 0.0
C695 C 0.57265 0.90805 0.85773 0.0
C696 C 0.52457 0.86566 0.25664 0.0
C697 C 0.53068 0.86802 0.20067 0.0
C698 C 0.55241 0.90018 0.09328 0.0
C699 C 0.56176 0.89137 0.9438 0.0
C700 C 0.55898 0.89017 0.00676 0.0
C701 C 0.54353 0.88342 0.18326 0.0
C702 C 0.54962 0.88609 0.12335 0.0
H703 H 0.54584 0.86808 0.82394 0.0
H704 H 0.54465 0.8656 0.92775 0.0
H705 H 0.55831 0.91284 0.01301 0.0
H706 H 0.5492 0.90435 0.30804 0.0
H707 H 0.56004 0.90842 0.21072 0.0
C708 C 0.65882 0.56805 0.03834 0.0
C709 C 0.66592 0.56203 -0.00072 0.0
C710 C 0.66033 0.56657 0.09743 0.0
C711 C 0.66357 0.5386 0.19565 0.0
H712 H 0.67007 0.57057 0.31273 0.0
C713 C 0.65932 0.52274 0.43617 0.0
C714 C 0.65179 0.52904 0.47181 0.0
C715 C 0.66333 0.52821 0.37955 0.0
C716 C 0.66807 0.56145 0.28054 0.0
H717 H 0.68133 0.551 0.99156 0.0
H718 H 0.68381 0.54834 0.09457 0.0
H719 H 0.67381 0.57861 0.21166 0.0
H720 H 0.64184 0.54536 0.47614 0.0
H721 H 0.64835 0.55458 0.37704 0.0
H722 H 0.65709 0.52121 0.26352 0.0
C723 C 0.67693 0.55401 0.07943 0.0
C724 C 0.67032 0.56611 0.22279 0.0
C725 C 0.67554 0.55559 0.02047 0.0
C726 C 0.64802 0.54063 0.44982 0.0
C727 C 0.65182 0.54594 0.39308 0.0
C728 C 0.66113 0.53389 0.25318 0.0
C729 C 0.6689 0.55899 0.11836 0.0
C730 C 0.66796 0.55468 0.17984 0.0
C731 C 0.65958 0.53985 0.35725 0.0
C732 C 0.66319 0.5452 0.29636 0.0
H733 H 0.65143 0.57316 0.02337 0.0
H734 H 0.65399 0.57048 0.1266 0.0
H735 H 0.66139 0.52946 0.16328 0.0
H736 H 0.6624 0.51383 0.45242 0.0
H737 H 0.66948 0.5234 0.35347 0.0
C738 C 0.10826 0.68472 0.20557 0.0
C739 C 0.10663 0.67117 0.17452 0.0
C740 C 0.11182 0.68613 0.26448 0.0
C741 C 0.13089 0.67205 0.3703 0.0
H742 H 0.10576 0.67953 0.48604 0.0
C743 C 0.12669 0.65065 0.60185 0.0
C744 C 0.1271 0.66089 0.64621 0.0
C745 C 0.12606 0.65475 0.54478 0.0
C746 C 0.11308 0.67772 0.4541 0.0
H747 H 0.10641 0.64804 0.18127 0.0
H748 H 0.11244 0.65048 0.28295 0.0
H749 H 0.10065 0.68172 0.38409 0.0
H750 H 0.12856 0.68408 0.66622 0.0
H751 H 0.12699 0.69108 0.56602 0.0
H752 H 0.14294 0.66751 0.43969 0.0
C753 C 0.11141 0.66019 0.26193 0.0
C754 C 0.11015 0.67899 0.39594 0.0
C755 C 0.10787 0.65877 0.20369 0.0
C756 C 0.12754 0.67564 0.63267 0.0
C757 C 0.12678 0.67971 0.57552 0.0
C758 C 0.13378 0.67076 0.42813 0.0
C759 C 0.11383 0.67404 0.29263 0.0
C760 C 0.11865 0.67559 0.35366 0.0
C761 C 0.12595 0.66925 0.53109 0.0
C762 C 0.12454 0.67305 0.47052 0.0
H763 H 0.10736 0.69444 0.18411 0.0
H764 H 0.11354 0.69687 0.28751 0.0
H765 H 0.13785 0.6697 0.33842 0.0
H766 H 0.12652 0.63929 0.61137 0.0
H767 H 0.12527 0.64638 0.51137 0.0
C768 C 0.87019 0.54692 0.02432 0.0
C769 C 0.87105 0.5329 0.00927 0.0
C770 C 0.87173 0.5519 0.08164 0.0
C771 C 0.86729 0.53642 0.22871 0.0
H772 H 0.89981 0.581 0.27028 0.0
C773 C 0.89346 0.55142 0.45314 0.0
C774 C 0.89477 0.56523 0.48118 0.0
C775 C 0.88999 0.54904 0.39484 0.0
C776 C 0.8905 0.56861 0.2592 0.0
H777 H 0.87347 0.51272 0.04267 0.0
H778 H 0.87593 0.52125 0.14258 0.0
H779 H 0.89387 0.57343 0.16872 0.0
H780 H 0.89427 0.58783 0.46968 0.0
H781 H 0.8881 0.58359 0.36638 0.0
H782 H 0.86407 0.53143 0.31861 0.0
C783 C 0.87419 0.52847 0.11005 0.0
C784 C 0.88711 0.56427 0.20125 0.0
C785 C 0.87281 0.5236 0.05286 0.0
C786 C 0.89332 0.57707 0.44902 0.0
C787 C 0.88977 0.57464 0.39014 0.0
C788 C 0.87061 0.54074 0.28632 0.0
C789 C 0.87381 0.54274 0.12494 0.0
C790 C 0.87583 0.54801 0.18562 0.0
C791 C 0.88765 0.56035 0.36302 0.0
C792 C 0.88263 0.55672 0.30213 0.0
H793 H 0.86807 0.55394 0.99228 0.0
H794 H 0.8711 0.56278 0.0922 0.0
H795 H 0.85829 0.52389 0.2178 0.0
H796 H 0.89479 0.5422 0.47654 0.0
H797 H 0.88891 0.53816 0.37474 0.0
C798 C 0.3346 0.91025 0.63547 0.0
C799 C 0.33107 0.89666 0.6701 0.0
C800 C 0.33304 0.90857 0.57578 0.0
C801 C 0.3167 0.87774 0.45753 0.0
H802 H 0.35483 0.9106 0.37517 0.0
C803 C 0.33678 0.86596 0.23728 0.0
C804 C 0.34239 0.87855 0.19633 0.0
C805 C 0.33316 0.8686 0.29309 0.0
C806 C 0.34397 0.90145 0.39732 0.0
H807 H 0.32208 0.87044 0.66971 0.0
H808 H 0.31967 0.86761 0.56617 0.0
H809 H 0.35163 0.91463 0.47648 0.0
H810 H 0.34929 0.90397 0.18211 0.0
H811 H 0.34277 0.90852 0.27917 0.0
H812 H 0.30942 0.86429 0.37852 0.0
C813 C 0.3235 0.87954 0.58474 0.0
C814 C 0.34209 0.90379 0.45538 0.0
C815 C 0.32503 0.8812 0.64422 0.0
C816 C 0.34451 0.89388 0.21225 0.0
C817 C 0.34098 0.89656 0.26804 0.0
C818 C 0.31863 0.87537 0.39949 0.0
C819 C 0.32791 0.89327 0.5497 0.0
C820 C 0.32861 0.89181 0.48645 0.0
C821 C 0.33531 0.88396 0.30907 0.0
C822 C 0.33244 0.88707 0.36912 0.0
H823 H 0.33915 0.9223 0.65418 0.0
H824 H 0.33627 0.91934 0.54995 0.0
H825 H 0.30604 0.86841 0.48005 0.0
H826 H 0.33516 0.85406 0.2261 0.0
H827 H 0.32906 0.85875 0.3241 0.0
C828 C 0.46701 0.32646 0.38743 0.0
C829 C 0.46113 0.33466 0.35322 0.0
C830 C 0.46139 0.32199 0.44366 0.0
C831 C 0.43016 0.31952 0.54885 0.0
H832 H 0.46483 0.32905 0.65821 0.0
C833 C 0.44862 0.34124 0.79721 0.0
C834 C 0.43457 0.33004 0.82767 0.0
C835 C 0.44998 0.3392 0.73878 0.0
C836 C 0.455 0.32634 0.62822 0.0
H837 H 0.44492 0.34477 0.35058 0.0
H838 H 0.43545 0.33746 0.44898 0.0
H839 H 0.47037 0.32968 0.55646 0.0
H840 H 0.41064 0.3082 0.8205 0.0
H841 H 0.4131 0.30451 0.71728 0.0
H842 H 0.41513 0.31722 0.62141 0.0
C843 C 0.4439 0.33386 0.43211 0.0
C844 C 0.4581 0.32645 0.56975 0.0
C845 C 0.44937 0.33811 0.37569 0.0
C846 C 0.4216 0.31702 0.79796 0.0
C847 C 0.42301 0.31491 0.73905 0.0
C848 C 0.42709 0.31954 0.60762 0.0
C849 C 0.45004 0.32597 0.46713 0.0
C850 C 0.44586 0.32347 0.5292 0.0
C851 C 0.4374 0.32582 0.70926 0.0
C852 C 0.43966 0.32347 0.64772 0.0
H853 H 0.47603 0.32359 0.37077 0.0
H854 H 0.46618 0.31569 0.46906 0.0
H855 H 0.42037 0.31686 0.51877 0.0
H856 H 0.45874 0.35154 0.81869 0.0
H857 H 0.46101 0.34811 0.71674 0.0
C858 C 0.12654 0.45234 0.52486 0.0
C859 C 0.12481 0.46583 0.50937 0.0
C860 C 0.12497 0.44737 0.58217 0.0
C861 C 0.12773 0.46252 0.72912 0.0
H862 H 0.09795 0.41708 0.76994 0.0
C863 C 0.10219 0.44561 0.95403 0.0
C864 C 0.10224 0.43237 0.98156 0.0
C865 C 0.10533 0.44821 0.89559 0.0
C866 C 0.1065 0.42975 0.75907 0.0
H867 H 0.12071 0.48506 0.54192 0.0
H868 H 0.11814 0.47651 0.64185 0.0
H869 H 0.10359 0.42493 0.66852 0.0
H870 H 0.10483 0.41095 0.96906 0.0
H871 H 0.11048 0.4156 0.86556 0.0
H872 H 0.1305 0.46748 0.81909 0.0
C873 C 0.12062 0.46972 0.60971 0.0
C874 C 0.10972 0.43424 0.70119 0.0
C875 C 0.12207 0.4746 0.5525 0.0
C876 C 0.10471 0.42125 0.94878 0.0
C877 C 0.10796 0.42392 0.88978 0.0
C878 C 0.12457 0.45805 0.78665 0.0
C879 C 0.12195 0.45599 0.62507 0.0
C880 C 0.12001 0.45076 0.68581 0.0
C881 C 0.10874 0.43771 0.86314 0.0
C882 C 0.11354 0.44173 0.80221 0.0
H883 H 0.12939 0.44577 0.49316 0.0
H884 H 0.12634 0.43693 0.59307 0.0
H885 H 0.136 0.47528 0.71846 0.0
H886 H 0.10004 0.45423 0.97795 0.0
H887 H 0.10537 0.45865 0.87591 0.0
C888 C 0.64904 0.10639 0.71368 0.0
C889 C 0.65255 0.12174 0.69238 0.0
C890 C 0.65277 0.10476 0.77039 0.0
C891 C 0.66104 0.12555 0.91108 0.0
H892 H 0.67382 0.09362 0.95313 0.0
C893 C 0.67416 0.11763 0.14446 0.0
C894 C 0.66446 0.10151 0.16501 0.0
C895 C 0.67591 0.12076 0.08564 0.0
C896 C 0.6703 0.1026 0.94184 0.0
H897 H 0.66272 0.14744 0.71283 0.0
H898 H 0.66973 0.14478 0.81173 0.0
H899 H 0.67075 0.09833 0.85183 0.0
H900 H 0.65016 0.07593 0.14001 0.0
H901 H 0.65331 0.08145 0.03689 0.0
H902 H 0.66061 0.12981 0.00103 0.0
C903 C 0.66381 0.1339 0.78515 0.0
C904 C 0.66844 0.10525 0.88396 0.0
C905 C 0.65985 0.13547 0.72857 0.0
C906 C 0.65761 0.08848 0.12551 0.0
C907 C 0.65947 0.09163 0.06651 0.0
C908 C 0.66311 0.12305 0.96874 0.0
C909 C 0.66022 0.11849 0.80687 0.0
C910 C 0.66352 0.11657 0.86794 0.0
C911 C 0.66812 0.10784 0.04619 0.0
C912 C 0.66753 0.1114 0.9847 0.0
H913 H 0.64303 0.09554 0.68694 0.0
H914 H 0.64943 0.09264 0.78593 0.0
H915 H 0.65694 0.13413 0.9006 0.0
H916 H 0.67979 0.12795 0.17371 0.0
H917 H 0.68285 0.13335 0.07096 0.0
C918 C 0.57426 0.67987 0.2957 0.0
C919 C 0.56116 0.66728 0.32642 0.0
C920 C 0.57255 0.68197 0.23698 0.0
C921 C 0.54007 0.67232 0.13056 0.0
H922 H 0.57156 0.67618 0.01546 0.0
C923 C 0.522 0.65097 0.89989 0.0
C924 C 0.5319 0.66099 0.85506 0.0
C925 C 0.52695 0.65493 0.9568 0.0
C926 C 0.56281 0.67541 0.04729 0.0
H927 H 0.53645 0.64648 0.31936 0.0
H928 H 0.53363 0.65001 0.21793 0.0
H929 H 0.57838 0.67726 0.11762 0.0
H930 H 0.55421 0.68379 0.83549 0.0
H931 H 0.56321 0.69027 0.93507 0.0
H932 H 0.52421 0.66971 0.0607 0.0
C933 C 0.545 0.65855 0.23905 0.0
C934 C 0.56671 0.67605 0.10556 0.0
C935 C 0.54668 0.65648 0.29715 0.0
C936 C 0.54666 0.67536 0.86856 0.0
C937 C 0.55174 0.67922 0.92564 0.0
C938 C 0.53616 0.6716 0.07264 0.0
C939 C 0.55773 0.67153 0.20863 0.0
C940 C 0.5551 0.67388 0.14759 0.0
C941 C 0.54192 0.669 0.97014 0.0
C942 C 0.54726 0.67257 0.03058 0.0
H943 H 0.58555 0.68836 0.31729 0.0
H944 H 0.58258 0.69202 0.21425 0.0
H945 H 0.53105 0.67102 0.16216 0.0
H946 H 0.51053 0.63985 0.891 0.0
H947 H 0.51922 0.64676 0.99041 0.0
C948 C 0.50718 0.12189 0.20476 0.0
C949 C 0.50443 0.1214 0.14523 0.0
C950 C 0.52154 0.12299 0.22618 0.0
C951 C 0.55372 0.11361 0.18811 0.0
H952 H 0.57642 0.14107 0.31922 0.0
C953 C 0.61356 0.11911 0.27486 0.0
C954 C 0.61537 0.11914 0.33482 0.0
C955 C 0.60077 0.12056 0.25065 0.0
C956 C 0.57013 0.13321 0.28297 0.0
H957 H 0.51482 0.122 0.06152 0.0
H958 H 0.53995 0.12389 0.09911 0.0
H959 H 0.55293 0.14176 0.27817 0.0
H960 H 0.6052 0.12089 0.41634 0.0
H961 H 0.58269 0.12312 0.37405 0.0
H962 H 0.57065 0.10479 0.19342 0.0
C963 C 0.53088 0.12331 0.1291 0.0
C964 C 0.5567 0.13364 0.25935 0.0
C965 C 0.51653 0.12231 0.10759 0.0
C966 C 0.60419 0.12086 0.37 0.0
C967 C 0.59133 0.12223 0.34572 0.0
C968 C 0.56709 0.11312 0.21184 0.0
C969 C 0.53348 0.12355 0.18865 0.0
C970 C 0.54829 0.12377 0.21187 0.0
C971 C 0.58941 0.12199 0.28573 0.0
C972 C 0.57542 0.12285 0.25975 0.0
H973 H 0.49815 0.12125 0.23507 0.0
H974 H 0.52309 0.12296 0.27226 0.0
H975 H 0.54734 0.10566 0.15211 0.0
H976 H 0.62201 0.11795 0.24638 0.0
H977 H 0.59985 0.12062 0.20431 0.0
C978 C 0.3916 0.51455 0.29644 0.0
C979 C 0.38006 0.50173 0.33104 0.0
C980 C 0.40439 0.5287 0.32133 0.0
C981 C 0.4279 0.54379 0.4565 0.0
H982 H 0.44332 0.58642 0.38663 0.0
C983 C 0.48066 0.60385 0.55371 0.0
C984 C 0.49276 0.61411 0.51422 0.0
C985 C 0.46586 0.59058 0.53443 0.0
C986 C 0.43917 0.57458 0.40652 0.0
H987 H 0.37273 0.49393 0.41911 0.0
H988 H 0.39484 0.51868 0.46232 0.0
H989 H 0.41938 0.56241 0.34692 0.0
H990 H 0.49862 0.61867 0.42346 0.0
H991 H 0.47294 0.59567 0.39022 0.0
H992 H 0.4478 0.55601 0.51587 0.0
C993 C 0.3942 0.51768 0.41595 0.0
C994 C 0.4255 0.56082 0.38367 0.0
C995 C 0.38147 0.50351 0.39109 0.0
C996 C 0.48961 0.611 0.45516 0.0
C997 C 0.47482 0.59788 0.43598 0.0
C998 C 0.44155 0.55758 0.47952 0.0
C999 C 0.40589 0.5304 0.38141 0.0
C1000 C 0.41983 0.54521 0.40783 0.0
C1001 C 0.46282 0.58745 0.47532 0.0
C1002 C 0.44748 0.57308 0.45422 0.0
H1003 H 0.39092 0.51358 0.25006 0.0
H1004 H 0.4133 0.53815 0.29341 0.0
H1005 H 0.42401 0.53193 0.47578 0.0
H1006 H 0.4827 0.60591 0.59948 0.0
H1007 H 0.45677 0.5828 0.56572 0.0
C1008 C 0.87912 0.38513 0.55322 0.0
C1009 C 0.88008 0.38278 0.49402 0.0
C1010 C 0.87824 0.39861 0.57341 0.0
C1011 C 0.86934 0.43121 0.52956 0.0
H1012 H 0.89451 0.45282 0.6662 0.0
C1013 C 0.88205 0.49501 0.60494 0.0
C1014 C 0.88089 0.49729 0.66412 0.0
C1015 C 0.88093 0.48056 0.58438 0.0
C1016 C 0.88725 0.4468 0.62843 0.0
H1017 H 0.88057 0.39266 0.40949 0.0
H1018 H 0.87938 0.41651 0.44491 0.0
H1019 H 0.89468 0.42877 0.62884 0.0
H1020 H 0.87743 0.486 0.74801 0.0
H1021 H 0.87556 0.46073 0.71194 0.0
H1022 H 0.86221 0.44955 0.5288 0.0
C1023 C 0.87907 0.40773 0.47567 0.0
C1024 C 0.88733 0.433 0.60697 0.0
C1025 C 0.87983 0.39411 0.45534 0.0
C1026 C 0.87842 0.48467 0.70222 0.0
C1027 C 0.87742 0.47023 0.6816 0.0
C1028 C 0.86935 0.44511 0.55088 0.0
C1029 C 0.87844 0.41022 0.53504 0.0
C1030 C 0.87835 0.42499 0.55734 0.0
C1031 C 0.87873 0.46806 0.62247 0.0
C1032 C 0.8783 0.45304 0.60057 0.0
H1033 H 0.87907 0.37654 0.58428 0.0
H1034 H 0.87738 0.3999 0.61929 0.0
H1035 H 0.86211 0.42522 0.49174 0.0
H1036 H 0.88391 0.50445 0.5743 0.0
H1037 H 0.88216 0.47932 0.53867 0.0
C1038 C 0.38415 0.87725 0.78486 0.0
C1039 C 0.38174 0.87711 0.84453 0.0
C1040 C 0.39712 0.87578 0.76261 0.0
C1041 C 0.43794 0.8829 0.80064 0.0
H1042 H 0.43271 0.85691 0.66463 0.0
C1043 C 0.49109 0.87576 0.71269 0.0
C1044 C 0.49338 0.87665 0.65284 0.0
C1045 C 0.47691 0.87452 0.7365 0.0
C1046 C 0.43441 0.86436 0.70228 0.0
H1047 H 0.39095 0.87496 0.92756 0.0
H1048 H 0.41366 0.8724 0.88854 0.0
H1049 H 0.40887 0.85684 0.70626 0.0
H1050 H 0.48237 0.87665 0.57103 0.0
H1051 H 0.45769 0.87478 0.61273 0.0
H1052 H 0.46348 0.89068 0.79627 0.0
C1053 C 0.40553 0.87378 0.85909 0.0
C1054 C 0.42074 0.86428 0.72622 0.0
C1055 C 0.39247 0.87517 0.88142 0.0
C1056 C 0.48099 0.87597 0.61728 0.0
C1057 C 0.4668 0.8748 0.6412 0.0
C1058 C 0.4516 0.88303 0.77663 0.0
C1059 C 0.40806 0.8742 0.79943 0.0
C1060 C 0.42238 0.87361 0.77552 0.0
C1061 C 0.46468 0.87424 0.70116 0.0
C1062 C 0.45002 0.8738 0.72704 0.0
H1063 H 0.37611 0.87869 0.7551 0.0
H1064 H 0.39884 0.87633 0.71651 0.0
H1065 H 0.43966 0.89044 0.83804 0.0
H1066 H 0.50029 0.87608 0.74144 0.0
H1067 H 0.47555 0.87377 0.78275 0.0
C1068 C 0.51507 0.39482 0.05314 0.0
C1069 C 0.50312 0.38388 0.01447 0.0
C1070 C 0.5295 0.40837 0.03275 0.0
C1071 C 0.54579 0.43431 0.90283 0.0
H1072 H 0.58829 0.4493 0.97309 0.0
C1073 C 0.60531 0.48325 0.79591 0.0
C1074 C 0.61664 0.49599 0.83133 0.0
C1075 C 0.59203 0.46933 0.8198 0.0
C1076 C 0.57647 0.44531 0.95331 0.0
H1077 H 0.49735 0.37821 0.92411 0.0
H1078 H 0.52244 0.40144 0.88901 0.0
H1079 H 0.56402 0.42545 0.01282 0.0
H1080 H 0.62311 0.50382 0.91988 0.0
H1081 H 0.59991 0.47949 0.96139 0.0
H1082 H 0.55818 0.45402 0.84318 0.0
C1083 C 0.52054 0.39991 0.93498 0.0
C1084 C 0.56257 0.43169 0.97614 0.0
C1085 C 0.50615 0.3865 0.95521 0.0
C1086 C 0.6146 0.49427 0.89128 0.0
C1087 C 0.60136 0.48029 0.91516 0.0
C1088 C 0.55965 0.44782 0.87993 0.0
C1089 C 0.53227 0.41118 0.97335 0.0
C1090 C 0.54708 0.42595 0.95083 0.0
C1091 C 0.58981 0.46778 0.87964 0.0
C1092 C 0.57516 0.45342 0.90463 0.0
H1093 H 0.51311 0.39313 0.09904 0.0
H1094 H 0.53826 0.41687 0.06348 0.0
H1095 H 0.53401 0.43049 0.88306 0.0
H1096 H 0.60653 0.48413 0.74961 0.0
H1097 H 0.58345 0.45978 0.79135 0.0
C1098 C 0.11435 0.50204 0.10086 0.0
C1099 C 0.11526 0.50016 0.16043 0.0
C1100 C 0.11561 0.51637 0.07841 0.0
C1101 C 0.12939 0.55975 0.11392 0.0
H1102 H 0.10076 0.5559 0.98775 0.0
C1103 C 0.11803 0.61205 0.04618 0.0
C1104 C 0.11734 0.61487 0.98718 0.0
C1105 C 0.11907 0.59855 0.06505 0.0
C1106 C 0.109 0.5572 0.02242 0.0
H1107 H 0.11831 0.51195 0.24311 0.0
H1108 H 0.12016 0.53688 0.20395 0.0
H1109 H 0.09977 0.53135 0.02619 0.0
H1110 H 0.11743 0.60577 0.90171 0.0
H1111 H 0.11914 0.58198 0.93494 0.0
H1112 H 0.13831 0.5856 0.11084 0.0
C1113 C 0.11875 0.52735 0.17451 0.0
C1114 C 0.10844 0.54313 0.04452 0.0
C1115 C 0.11758 0.51302 0.19703 0.0
C1116 C 0.11792 0.60394 0.94742 0.0
C1117 C 0.11883 0.59029 0.96642 0.0
C1118 C 0.12987 0.57381 0.09202 0.0
C1119 C 0.11771 0.52917 0.1149 0.0
C1120 C 0.11857 0.54421 0.09077 0.0
C1121 C 0.11935 0.58744 0.02548 0.0
C1122 C 0.1196 0.57267 0.04629 0.0
H1123 H 0.11273 0.49246 0.07128 0.0
H1124 H 0.11507 0.51745 0.03227 0.0
H1125 H 0.13757 0.56108 0.14882 0.0
H1126 H 0.11766 0.62024 0.07807 0.0
H1127 H 0.11926 0.59658 0.11081 0.0
C1128 C 0.42556 0.06233 -0.00197 0.0
C1129 C 0.42827 0.06779 0.05532 0.0
C1130 C 0.41553 0.04571 0.98526 0.0
C1131 C 0.40214 0.00548 0.04615 0.0
H1132 H 0.36993 0.98942 0.9236 0.0
C1133 C 0.36386 0.9366 -0.00217 0.0
C1134 C 0.36086 0.93173 0.93999 0.0
C1135 C 0.37038 0.95303 0.01305 0.0
C1136 C 0.379 0.99372 0.95753 0.0
H1137 H 0.4222 0.06012 0.14407 0.0
H1138 H 0.40485 0.031 0.12163 0.0
H1139 H 0.38431 0.01857 0.94816 0.0
H1140 H 0.36219 0.94034 0.85271 0.0
H1141 H 0.37414 0.96915 0.87903 0.0
H1142 H 0.39746 0.98094 0.05439 0.0
C1143 C 0.41051 0.03965 0.08673 0.0
C1144 C 0.38716 0.01039 0.97174 0.0
C1145 C 0.42038 0.05631 0.09951 0.0
C1146 C 0.36429 0.94367 0.8977 0.0
C1147 C 0.37106 0.96019 0.91289 0.0
C1148 C 0.39415 0.98888 0.03156 0.0
C1149 C 0.40815 0.03418 0.02952 0.0
C1150 C 0.39883 0.01642 0.01611 0.0
C1151 C 0.37436 0.9651 0.97076 0.0
C1152 C 0.3825 0.98276 0.98698 0.0
H1153 H 0.4314 0.07087 0.96296 0.0
H1154 H 0.41402 0.04182 0.94081 0.0
H1155 H 0.41129 0.00985 0.07989 0.0
H1156 H 0.36128 0.92773 0.03157 0.0
H1157 H 0.37238 0.95626 0.05813 0.0
C1158 C 0.42366 0.36109 0.16444 0.0
C1159 C 0.42639 0.35964 0.10596 0.0
C1160 C 0.41348 0.36717 0.18135 0.0
C1161 C 0.3824 0.37742 0.12694 0.0
H1162 H 0.39699 0.40697 0.25751 0.0
C1163 C 0.3619 0.4248 0.17192 0.0
C1164 C 0.35802 0.42651 0.22887 0.0
C1165 C 0.36823 0.41457 0.15888 0.0
C1166 C 0.39263 0.39856 0.22148 0.0
H1167 H 0.42035 0.36322 0.01929 0.0
H1168 H 0.40307 0.37438 0.04867 0.0
H1169 H 0.41196 0.39311 0.23067 0.0
H1170 H 0.35747 0.41855 0.3167 0.0
H1171 H 0.36884 0.40086 0.29385 0.0
H1172 H 0.36348 0.38357 0.1166 0.0
C1173 C 0.40844 0.37042 0.08164 0.0
C1174 C 0.40117 0.39056 0.20609 0.0
C1175 C 0.41845 0.36412 0.06472 0.0
C1176 C 0.36032 0.4175 0.27239 0.0
C1177 C 0.36688 0.40743 0.25941 0.0
C1178 C 0.37398 0.3856 0.14196 0.0
C1179 C 0.40598 0.37221 0.14022 0.0
C1180 C 0.39626 0.37998 0.15832 0.0
C1181 C 0.37102 0.40599 0.20259 0.0
C1182 C 0.3791 0.39635 0.18909 0.0
H1183 H 0.42949 0.35766 0.19735 0.0
H1184 H 0.41161 0.36802 0.22681 0.0
H1185 H 0.37806 0.36914 0.09059 0.0
H1186 H 0.36028 0.43155 0.13738 0.0
H1187 H 0.37147 0.41381 0.1148 0.0
C1188 C 0.06163 0.42216 0.32433 0.0
C1189 C 0.06513 0.42425 0.26526 0.0
C1190 C 0.04561 0.41199 0.34363 0.0
C1191 C 0.00392 0.37976 0.29634 0.0
H1192 H 0.98991 0.39622 0.42414 0.0
C1193 C 0.9363 0.35924 0.34574 0.0
C1194 C 0.93125 0.35678 0.40345 0.0
C1195 C 0.95274 0.36532 0.33147 0.0
C1196 C 0.99369 0.39133 0.38898 0.0
H1197 H 0.05463 0.41697 0.18011 0.0
H1198 H 0.0266 0.39962 0.21364 0.0
H1199 H 0.01846 0.41095 0.39404 0.0
H1200 H 0.93953 0.35842 0.49146 0.0
H1201 H 0.96833 0.36927 0.46639 0.0
H1202 H 0.97887 0.36049 0.29012 0.0
C1203 C 0.03626 0.40555 0.24522 0.0
C1204 C 0.01009 0.39974 0.37172 0.0
C1205 C 0.05234 0.41558 0.22591 0.0
C1206 C 0.94299 0.36017 0.44656 0.0
C1207 C 0.95949 0.36645 0.43228 0.0
C1208 C 0.98747 0.37143 0.31329 0.0
C1209 C 0.03266 0.4038 0.30434 0.0
C1210 C 0.0154 0.39417 0.3248 0.0
C1211 C 0.96455 0.36926 0.37462 0.0
C1212 C 0.98217 0.37723 0.35943 0.0
H1213 H 0.07125 0.42851 0.35582 0.0
H1214 H 0.04337 0.41067 0.38945 0.0
H1215 H 0.00761 0.37495 0.26072 0.0
H1216 H 0.92763 0.35675 0.31147 0.0
H1217 H 0.9563 0.36752 0.28669 0.0
C1218 C 0.57835 0.9416 0.60146 0.0
C1219 C 0.56922 0.93038 0.55784 0.0
C1220 C 0.5885 0.95824 0.58873 0.0
C1221 C 0.61044 0.98729 0.47185 0.0
H1222 H 0.60311 0.01779 0.56113 0.0
C1223 C 0.63314 0.05385 0.39742 0.0
C1224 C 0.63743 0.06605 0.43941 0.0
C1225 C 0.62657 0.03741 0.41338 0.0
C1226 C 0.60563 0.00955 0.53639 0.0
H1227 H 0.56399 0.92783 0.46646 0.0
H1228 H 0.5819 0.95673 0.44432 0.0
H1229 H 0.58904 0.98892 0.58727 0.0
H1230 H 0.63893 0.07066 0.53101 0.0
H1231 H 0.6282 0.04226 0.55887 0.0
H1232 H 0.62712 0.00789 0.42112 0.0
C1233 C 0.58118 0.95265 0.48827 0.0
C1234 C 0.59749 0.99298 0.55138 0.0
C1235 C 0.57087 0.93609 0.50106 0.0
C1236 C 0.63559 0.06155 0.4976 0.0
C1237 C 0.6293 0.0452 0.51356 0.0
C1238 C 0.61878 0.00393 0.45727 0.0
C1239 C 0.58991 0.96392 0.53206 0.0
C1240 C 0.59965 0.98166 0.51884 0.0
C1241 C 0.62437 0.03285 0.47171 0.0
C1242 C 0.61632 0.01526 0.48892 0.0
H1243 H 0.57736 0.93763 0.64565 0.0
H1244 H 0.59517 0.9667 0.62324 0.0
H1245 H 0.61241 0.9788 0.44633 0.0
H1246 H 0.63434 0.05692 0.35218 0.0
H1247 H 0.62273 0.02825 0.37985 0.0
C1248 C 0.57163 0.63468 0.66121 0.0
C1249 C 0.56932 0.63705 0.60305 0.0
C1250 C 0.58154 0.62815 0.67669 0.0
C1251 C 0.59556 0.60115 0.62087 0.0
H1252 H 0.6273 0.61809 0.74485 0.0
C1253 C 0.6355 0.57263 0.66974 0.0
C1254 C 0.63829 0.57055 0.72755 0.0
C1255 C 0.62864 0.58225 0.65479 0.0
C1256 C 0.61836 0.6131 0.71055 0.0
H1257 H 0.57603 0.63487 0.51569 0.0
H1258 H 0.59319 0.62332 0.54283 0.0
H1259 H 0.61243 0.63226 0.71854 0.0
H1260 H 0.63642 0.57728 0.81511 0.0
H1261 H 0.62392 0.5937 0.78918 0.0
H1262 H 0.60093 0.58173 0.61369 0.0
C1263 C 0.58727 0.62648 0.57632 0.0
C1264 C 0.6099 0.62126 0.6954 0.0
C1265 C 0.5775 0.63316 0.56084 0.0
C1266 C 0.63447 0.57869 0.77013 0.0
C1267 C 0.62736 0.58816 0.7552 0.0
C1268 C 0.60385 0.59292 0.63634 0.0
C1269 C 0.58921 0.62371 0.63432 0.0
C1270 C 0.59847 0.61538 0.65024 0.0
C1271 C 0.62412 0.58984 0.69733 0.0
C1272 C 0.61542 0.59881 0.68119 0.0
H1273 H 0.56557 0.63763 0.69483 0.0
H1274 H 0.58276 0.62605 0.7217 0.0
H1275 H 0.58658 0.59616 0.58664 0.0
H1276 H 0.63845 0.56669 0.63584 0.0
H1277 H 0.62675 0.5836 0.60971 0.0
C1278 C 0.05416 0.63714 0.94409 0.0
C1279 C 0.06585 0.64088 0.90053 0.0
C1280 C 0.03761 0.63084 0.93032 0.0
C1281 C 0.00939 0.62619 0.81225 0.0
H1282 H 0.9786 0.58646 0.89232 0.0
C1283 C 0.94448 0.582 0.72529 0.0
C1284 C 0.93171 0.57338 0.76477 0.0
C1285 C 0.96058 0.59199 0.74442 0.0
C1286 C 0.98693 0.59772 0.87019 0.0
H1287 H 0.06934 0.64155 0.80834 0.0
H1288 H 0.04061 0.63066 0.78443 0.0
H1289 H 0.0072 0.60119 0.92196 0.0
H1290 H 0.92571 0.56913 0.85542 0.0
H1291 H 0.95365 0.58686 0.88872 0.0
H1292 H 0.98916 0.62269 0.76023 0.0
C1293 C 0.04422 0.63261 0.82919 0.0
C1294 C 0.00335 0.60614 0.8872 0.0
C1295 C 0.06071 0.63875 0.84295 0.0
C1296 C 0.9353 0.57544 0.82381 0.0
C1297 C 0.95135 0.58555 0.84292 0.0
C1298 C 0.99293 0.61783 0.7955 0.0
C1299 C 0.03246 0.62832 0.87272 0.0
C1300 C 0.0148 0.62032 0.85789 0.0
C1301 C 0.96425 0.59373 0.80348 0.0
C1302 C 0.98153 0.60335 0.82372 0.0
H1303 H 0.05768 0.63864 0.98892 0.0
H1304 H 0.02882 0.62776 0.96475 0.0
H1305 H 0.01793 0.6372 0.78929 0.0
H1306 H 0.94214 0.58063 0.67951 0.0
H1307 H 0.97022 0.59791 0.71274 0.0
loop_
_geom_bond_atom_site_label_1
_geom_bond_atom_site_label_2
_geom_bond_distance
_geom_bond_site_symmetry_2
_ccdc_geom_bond_type
Co0 O3 1.970 . S
Co0 N17 1.989 . S
Co0 O25 1.967 . S
Co0 O32 1.920 . S
Co1 O4 1.966 . S
Co1 N10 2.022 1_554 S
Co1 N18 1.993 . S
Co1 O26 1.941 . S
C2 O3 1.258 . S
C2 O4 1.263 . S
O3 Co0 1.970 . S
O3 C2 1.258 . S
O4 Co1 1.966 . S
O4 C2 1.263 . S
C5 O6 1.235 . S
C5 O32 1.289 . S
O6 C5 1.235 . S
C7 C9 1.400 . S
C7 N10 1.351 . S
C7 C12 1.501 . S
C8 C9 1.387 . S
C8 N11 1.341 . S
C9 C7 1.400 . S
C9 C8 1.387 . S
N10 Co1 2.022 1_556 S
N10 C7 1.351 . S
N10 N11 1.365 . S
N11 C8 1.341 . S
N11 N10 1.365 . S
N11 H31 0.862 . S
C12 C7 1.501 . S
C12 H13 0.961 . S
C12 H14 0.961 . S
C12 H15 0.960 . S
H13 C12 0.961 . S
H14 C12 0.961 . S
H15 C12 0.960 . S
C16 N17 1.342 . S
C16 C20 1.401 . S
C16 C21 1.499 . S
N17 Co0 1.989 . S
N17 C16 1.342 . S
N17 N18 1.388 . S
N18 Co1 1.993 . S
N18 N17 1.388 . S
N18 C19 1.346 . S
C19 N18 1.346 . S
C19 C20 1.396 . S
C19 C29 1.510 1_554 S
C20 C16 1.401 . S
C20 C19 1.396 . S
C21 C16 1.499 . S
C21 H22 0.959 . S
C21 H23 0.960 . S
C21 H24 0.961 . S
H22 C21 0.959 . S
H23 C21 0.960 . S
H24 C21 0.961 . S
O25 Co0 1.967 . S
O25 C33 1.258 . S
O26 Co1 1.941 . S
O26 C33 1.266 . S
H27 C29 0.959 . S
H28 C29 0.961 . S
C29 C19 1.510 1_556 S
C29 H27 0.959 . S
C29 H28 0.961 . S
C29 H30 0.960 . S
H30 C29 0.960 . S
H31 N11 0.862 . S
O32 Co0 1.920 . S
O32 C5 1.289 . S
C33 O25 1.258 . S
C33 O26 1.266 . S
Co34 O37 1.970 . S
Co34 N51 1.989 . S
Co34 O59 1.967 . S
Co34 O66 1.920 . S
Co35 O38 1.966 . S
Co35 N44 2.022 . S
Co35 N52 1.993 . S
Co35 O60 1.941 . S
C36 O37 1.258 . S
C36 O38 1.263 . S
O37 Co34 1.970 . S
O37 C36 1.258 . S
O38 Co35 1.966 . S
O38 C36 1.263 . S
C39 O40 1.235 . S
C39 O66 1.289 . S
O40 C39 1.235 . S
C41 C43 1.400 . S
C41 N44 1.351 . S
C41 C46 1.501 . S
C42 C43 1.387 . S
C42 N45 1.341 . S
C43 C41 1.400 . S
C43 C42 1.387 . S
N44 Co35 2.022 . S
N44 C41 1.351 . S
N44 N45 1.365 . S
N45 C42 1.341 . S
N45 N44 1.365 . S
N45 H65 0.862 . S
C46 C41 1.501 . S
C46 H47 0.961 . S
C46 H48 0.961 . S
C46 H49 0.960 . S
H47 C46 0.961 . S
H48 C46 0.961 . S
H49 C46 0.960 . S
C50 N51 1.342 . S
C50 C54 1.401 . S
C50 C55 1.499 . S
N51 Co34 1.989 . S
N51 C50 1.342 . S
N51 N52 1.388 . S
N52 Co35 1.993 . S
N52 N51 1.388 . S
N52 C53 1.346 . S
C53 N52 1.346 . S
C53 C54 1.396 . S
C53 C63 1.510 . S
C54 C50 1.401 . S
C54 C53 1.396 . S
C55 C50 1.499 . S
C55 H56 0.959 . S
C55 H57 0.960 . S
C55 H58 0.961 . S
H56 C55 0.959 . S
H57 C55 0.960 . S
H58 C55 0.961 . S
O59 Co34 1.967 . S
O59 C67 1.258 . S
O60 Co35 1.941 . S
O60 C67 1.266 . S
H61 C63 0.959 . S
H62 C63 0.961 . S
C63 C53 1.510 . S
C63 H61 0.959 . S
C63 H62 0.961 . S
C63 H64 0.960 . S
H64 C63 0.960 . S
H65 N45 0.862 . S
O66 Co34 1.920 . S
O66 C39 1.289 . S
C67 O59 1.258 . S
C67 O60 1.266 . S
Co68 O71 1.970 . S
Co68 N85 1.989 . S
Co68 O93 1.967 . S
Co68 O100 1.920 . S
Co69 O72 1.966 . S
Co69 N78 2.022 . S
Co69 N86 1.993 . S
Co69 O94 1.941 . S
C70 O71 1.258 . S
C70 O72 1.263 . S
O71 Co68 1.970 . S
O71 C70 1.258 . S
O72 Co69 1.966 . S
O72 C70 1.263 . S
C73 O74 1.235 . S
C73 O100 1.289 . S
O74 C73 1.235 . S
C75 C77 1.400 . S
C75 N78 1.351 . S
C75 C80 1.501 . S
C76 C77 1.387 . S
C76 N79 1.341 . S
C77 C75 1.400 . S
C77 C76 1.387 . S
N78 Co69 2.022 . S
N78 C75 1.351 . S
N78 N79 1.365 . S
N79 C76 1.341 . S
N79 N78 1.365 . S
N79 H99 0.862 . S
C80 C75 1.501 . S
C80 H81 0.961 . S
C80 H82 0.961 . S
C80 H83 0.960 . S
H81 C80 0.961 . S
H82 C80 0.961 . S
H83 C80 0.960 . S
C84 N85 1.342 . S
C84 C88 1.401 . S
C84 C89 1.499 . S
N85 Co68 1.989 . S
N85 C84 1.342 . S
N85 N86 1.388 . S
N86 Co69 1.993 . S
N86 N85 1.388 . S
N86 C87 1.346 . S
C87 N86 1.346 . S
C87 C88 1.396 . S
C87 C97 1.510 . S
C88 C84 1.401 . S
C88 C87 1.396 . S
C89 C84 1.499 . S
C89 H90 0.959 . S
C89 H91 0.960 . S
C89 H92 0.961 . S
H90 C89 0.959 . S
H91 C89 0.960 . S
H92 C89 0.961 . S
O93 Co68 1.967 . S
O93 C101 1.258 . S
O94 Co69 1.941 . S
O94 C101 1.266 . S
H95 C97 0.959 . S
H96 C97 0.961 . S
C97 C87 1.510 . S
C97 H95 0.959 . S
C97 H96 0.961 . S
C97 H98 0.960 . S
H98 C97 0.960 . S
H99 N79 0.862 . S
O100 Co68 1.920 . S
O100 C73 1.289 . S
C101 O93 1.258 . S
C101 O94 1.266 . S
Co102 O105 1.970 . S
Co102 N119 1.989 . S
Co102 O127 1.967 . S
Co102 O134 1.920 . S
Co103 O106 1.966 . S
Co103 N112 2.022 . S
Co103 N120 1.993 . S
Co103 O128 1.941 . S
C104 O105 1.258 . S
C104 O106 1.263 . S
O105 Co102 1.970 . S
O105 C104 1.258 . S
O106 Co103 1.966 . S
O106 C104 1.263 . S
C107 O108 1.235 . S
C107 O134 1.289 . S
O108 C107 1.235 . S
C109 C111 1.400 . S
C109 N112 1.351 . S
C109 C114 1.501 . S
C110 C111 1.387 . S
C110 N113 1.341 . S
C111 C109 1.400 . S
C111 C110 1.387 . S
N112 Co103 2.022 . S
N112 C109 1.351 . S
N112 N113 1.365 . S
N113 C110 1.341 . S
N113 N112 1.365 . S
N113 H133 0.862 . S
C114 C109 1.501 . S
C114 H115 0.961 . S
C114 H116 0.961 . S
C114 H117 0.960 . S
H115 C114 0.961 . S
H116 C114 0.961 . S
H117 C114 0.960 . S
C118 N119 1.342 . S
C118 C122 1.401 . S
C118 C123 1.499 . S
N119 Co102 1.989 . S
N119 C118 1.342 . S
N119 N120 1.388 . S
N120 Co103 1.993 . S
N120 N119 1.388 . S
N120 C121 1.346 . S
C121 N120 1.346 . S
C121 C122 1.396 . S
C121 C131 1.510 . S
C122 C118 1.401 . S
C122 C121 1.396 . S
C123 C118 1.499 . S
C123 H124 0.959 . S
C123 H125 0.960 . S
C123 H126 0.961 . S
H124 C123 0.959 . S
H125 C123 0.960 . S
H126 C123 0.961 . S
O127 Co102 1.967 . S
O127 C135 1.258 . S
O128 Co103 1.941 . S
O128 C135 1.266 . S
H129 C131 0.959 . S
H130 C131 0.961 . S
C131 C121 1.510 . S
C131 H129 0.959 . S
C131 H130 0.961 . S
C131 H132 0.960 . S
H132 C131 0.960 . S
H133 N113 0.862 . S
O134 Co102 1.920 . S
O134 C107 1.289 . S
C135 O127 1.258 . S
C135 O128 1.266 . S
Co136 O139 1.970 . S
Co136 N153 1.989 . S
Co136 O161 1.967 . S
Co136 O168 1.920 . S
Co137 O140 1.966 . S
Co137 N146 2.022 . S
Co137 N154 1.993 . S
Co137 O162 1.941 . S
C138 O139 1.258 . S
C138 O140 1.263 . S
O139 Co136 1.970 . S
O139 C138 1.258 . S
O140 Co137 1.966 . S
O140 C138 1.263 . S
C141 O142 1.235 . S
C141 O168 1.289 . S
O142 C141 1.235 . S
C143 C145 1.400 . S
C143 N146 1.351 . S
C143 C148 1.501 . S
C144 C145 1.387 . S
C144 N147 1.341 . S
C145 C143 1.400 . S
C145 C144 1.387 . S
N146 Co137 2.022 . S
N146 C143 1.351 . S
N146 N147 1.365 . S
N147 C144 1.341 . S
N147 N146 1.365 . S
N147 H167 0.862 . S
C148 C143 1.501 . S
C148 H149 0.961 . S
C148 H150 0.961 . S
C148 H151 0.960 . S
H149 C148 0.961 . S
H150 C148 0.961 . S
H151 C148 0.960 . S
C152 N153 1.342 . S
C152 C156 1.401 . S
C152 C157 1.499 . S
N153 Co136 1.989 . S
N153 C152 1.342 . S
N153 N154 1.388 . S
N154 Co137 1.993 . S
N154 N153 1.388 . S
N154 C155 1.346 . S
C155 N154 1.346 . S
C155 C156 1.396 . S
C155 C165 1.510 . S
C156 C152 1.401 . S
C156 C155 1.396 . S
C157 C152 1.499 . S
C157 H158 0.959 . S
C157 H159 0.960 . S
C157 H160 0.961 . S
H158 C157 0.959 . S
H159 C157 0.960 . S
H160 C157 0.961 . S
O161 Co136 1.967 . S
O161 C169 1.258 . S
O162 Co137 1.941 . S
O162 C169 1.266 . S
H163 C165 0.959 . S
H164 C165 0.961 . S
C165 C155 1.510 . S
C165 H163 0.959 . S
C165 H164 0.961 . S
C165 H166 0.960 . S
H166 C165 0.960 . S
H167 N147 0.862 . S
O168 Co136 1.920 . S
O168 C141 1.289 . S
C169 O161 1.258 . S
C169 O162 1.266 . S
Co170 O173 1.970 . S
Co170 N187 1.989 . S
Co170 O195 1.967 . S
Co170 O202 1.920 1_556 S
Co171 O174 1.966 . S
Co171 N180 2.022 . S
Co171 N188 1.993 . S
Co171 O196 1.941 . S
C172 O173 1.258 . S
C172 O174 1.263 . S
O173 Co170 1.970 . S
O173 C172 1.258 . S
O174 Co171 1.966 . S
O174 C172 1.263 . S
C175 O176 1.235 . S
C175 O202 1.289 . S
O176 C175 1.235 . S
C177 C179 1.400 . S
C177 N180 1.351 . S
C177 C182 1.501 . S
C178 C179 1.387 . S
C178 N181 1.341 . S
C179 C177 1.400 . S
C179 C178 1.387 . S
N180 Co171 2.022 . S
N180 C177 1.351 . S
N180 N181 1.365 . S
N181 C178 1.341 . S
N181 N180 1.365 . S
N181 H201 0.862 . S
C182 C177 1.501 . S
C182 H183 0.961 . S
C182 H184 0.961 . S
C182 H185 0.960 . S
H183 C182 0.961 . S
H184 C182 0.961 . S
H185 C182 0.960 . S
C186 N187 1.342 . S
C186 C190 1.401 . S
C186 C191 1.499 1_556 S
N187 Co170 1.989 . S
N187 C186 1.342 . S
N187 N188 1.388 . S
N188 Co171 1.993 . S
N188 N187 1.388 . S
N188 C189 1.346 . S
C189 N188 1.346 . S
C189 C190 1.396 . S
C189 C199 1.510 . S
C190 C186 1.401 . S
C190 C189 1.396 . S
C191 C186 1.499 1_554 S
C191 H192 0.959 . S
C191 H193 0.960 . S
C191 H194 0.961 . S
H192 C191 0.959 . S
H193 C191 0.960 . S
H194 C191 0.961 . S
O195 Co170 1.967 . S
O195 C203 1.258 . S
O196 Co171 1.941 . S
O196 C203 1.266 . S
H197 C199 0.959 . S
H198 C199 0.961 . S
C199 C189 1.510 . S
C199 H197 0.959 . S
C199 H198 0.961 . S
C199 H200 0.960 . S
H200 C199 0.960 . S
H201 N181 0.862 . S
O202 Co170 1.920 1_554 S
O202 C175 1.289 . S
C203 O195 1.258 . S
C203 O196 1.266 . S
Co204 O207 1.970 . S
Co204 N221 1.989 . S
Co204 O229 1.967 . S
Co204 O236 1.920 . S
Co205 O208 1.966 . S
Co205 N214 2.022 . S
Co205 N222 1.993 . S
Co205 O230 1.941 . S
C206 O207 1.258 . S
C206 O208 1.263 . S
O207 Co204 1.970 . S
O207 C206 1.258 . S
O208 Co205 1.966 . S
O208 C206 1.263 . S
C209 O210 1.235 . S
C209 O236 1.289 . S
O210 C209 1.235 . S
C211 C213 1.400 . S
C211 N214 1.351 . S
C211 C216 1.501 . S
C212 C213 1.387 . S
C212 N215 1.341 . S
C213 C211 1.400 . S
C213 C212 1.387 . S
N214 Co205 2.022 . S
N214 C211 1.351 . S
N214 N215 1.365 . S
N215 C212 1.341 . S
N215 N214 1.365 . S
N215 H235 0.862 . S
C216 C211 1.501 . S
C216 H217 0.961 . S
C216 H218 0.961 . S
C216 H219 0.960 . S
H217 C216 0.961 . S
H218 C216 0.961 . S
H219 C216 0.960 . S
C220 N221 1.342 . S
C220 C224 1.401 . S
C220 C225 1.499 . S
N221 Co204 1.989 . S
N221 C220 1.342 . S
N221 N222 1.388 . S
N222 Co205 1.993 . S
N222 N221 1.388 . S
N222 C223 1.346 . S
C223 N222 1.346 . S
C223 C224 1.396 . S
C223 C233 1.510 . S
C224 C220 1.401 . S
C224 C223 1.396 . S
C225 C220 1.499 . S
C225 H226 0.959 . S
C225 H227 0.960 . S
C225 H228 0.961 . S
H226 C225 0.959 . S
H227 C225 0.960 . S
H228 C225 0.961 . S
O229 Co204 1.967 . S
O229 C237 1.258 . S
O230 Co205 1.941 . S
O230 C237 1.266 . S
H231 C233 0.959 . S
H232 C233 0.961 . S
C233 C223 1.510 . S
C233 H231 0.959 . S
C233 H232 0.961 . S
C233 H234 0.960 . S
H234 C233 0.960 . S
H235 N215 0.862 . S
O236 Co204 1.920 . S
O236 C209 1.289 . S
C237 O229 1.258 . S
C237 O230 1.266 . S
Co238 O241 1.970 . S
Co238 N255 1.989 . S
Co238 O263 1.967 . S
Co238 O270 1.920 . S
Co239 O242 1.966 . S
Co239 N248 2.022 1_556 S
Co239 N256 1.993 . S
Co239 O264 1.941 . S
C240 O241 1.258 . S
C240 O242 1.263 . S
O241 Co238 1.970 . S
O241 C240 1.258 . S
O242 Co239 1.966 . S
O242 C240 1.263 . S
C243 O244 1.235 . S
C243 O270 1.289 . S
O244 C243 1.235 . S
C245 C247 1.400 . S
C245 N248 1.351 . S
C245 C250 1.501 . S
C246 C247 1.387 . S
C246 N249 1.341 . S
C247 C245 1.400 . S
C247 C246 1.387 . S
N248 Co239 2.022 1_554 S
N248 C245 1.351 . S
N248 N249 1.365 . S
N249 C246 1.341 . S
N249 N248 1.365 . S
N249 H269 0.862 . S
C250 C245 1.501 . S
C250 H251 0.961 . S
C250 H252 0.961 . S
C250 H253 0.960 . S
H251 C250 0.961 . S
H252 C250 0.961 . S
H253 C250 0.960 . S
C254 N255 1.342 . S
C254 C258 1.401 . S
C254 C259 1.499 . S
N255 Co238 1.989 . S
N255 C254 1.342 . S
N255 N256 1.388 . S
N256 Co239 1.993 . S
N256 N255 1.388 . S
N256 C257 1.346 . S
C257 N256 1.346 . S
C257 C258 1.396 . S
C257 C267 1.510 1_556 S
C258 C254 1.401 . S
C258 C257 1.396 . S
C259 C254 1.499 . S
C259 H260 0.959 . S
C259 H261 0.960 . S
C259 H262 0.961 . S
H260 C259 0.959 . S
H261 C259 0.960 . S
H262 C259 0.961 . S
O263 Co238 1.967 . S
O263 C271 1.258 . S
O264 Co239 1.941 . S
O264 C271 1.266 . S
H265 C267 0.959 . S
H266 C267 0.961 . S
C267 C257 1.510 1_554 S
C267 H265 0.959 . S
C267 H266 0.961 . S
C267 H268 0.960 . S
H268 C267 0.960 . S
H269 N249 0.862 . S
O270 Co238 1.920 . S
O270 C243 1.289 . S
C271 O263 1.258 . S
C271 O264 1.266 . S
Co272 O275 1.970 . S
Co272 N289 1.989 . S
Co272 O297 1.967 . S
Co272 O304 1.920 1_554 S
Co273 O276 1.966 . S
Co273 N282 2.022 . S
Co273 N290 1.993 . S
Co273 O298 1.941 . S
C274 O275 1.258 . S
C274 O276 1.263 . S
O275 Co272 1.970 . S
O275 C274 1.258 . S
O276 Co273 1.966 . S
O276 C274 1.263 . S
C277 O278 1.235 . S
C277 O304 1.289 . S
O278 C277 1.235 . S
C279 C281 1.400 . S
C279 N282 1.351 . S
C279 C284 1.501 . S
C280 C281 1.387 . S
C280 N283 1.341 . S
C281 C279 1.400 . S
C281 C280 1.387 . S
N282 Co273 2.022 . S
N282 C279 1.351 . S
N282 N283 1.365 . S
N283 C280 1.341 . S
N283 N282 1.365 . S
N283 H303 0.862 . S
C284 C279 1.501 . S
C284 H285 0.961 . S
C284 H286 0.961 . S
C284 H287 0.960 . S
H285 C284 0.961 . S
H286 C284 0.961 . S
H287 C284 0.960 . S
C288 N289 1.342 . S
C288 C292 1.401 . S
C288 C293 1.499 1_554 S
N289 Co272 1.989 . S
N289 C288 1.342 . S
N289 N290 1.388 . S
N290 Co273 1.993 . S
N290 N289 1.388 . S
N290 C291 1.346 . S
C291 N290 1.346 . S
C291 C292 1.396 . S
C291 C301 1.510 . S
C292 C288 1.401 . S
C292 C291 1.396 . S
C293 C288 1.499 1_556 S
C293 H294 0.959 . S
C293 H295 0.960 . S
C293 H296 0.961 . S
H294 C293 0.959 . S
H295 C293 0.960 . S
H296 C293 0.961 . S
O297 Co272 1.967 . S
O297 C305 1.258 . S
O298 Co273 1.941 . S
O298 C305 1.266 . S
H299 C301 0.959 . S
H300 C301 0.961 . S
C301 C291 1.510 . S
C301 H299 0.959 . S
C301 H300 0.961 . S
C301 H302 0.960 . S
H302 C301 0.960 . S
H303 N283 0.862 . S
O304 Co272 1.920 1_556 S
O304 C277 1.289 . S
C305 O297 1.258 . S
C305 O298 1.266 . S
Co306 O309 1.970 . S
Co306 N323 1.989 . S
Co306 O331 1.967 . S
Co306 O338 1.920 . S
Co307 O310 1.966 . S
Co307 N316 2.022 . S
Co307 N324 1.993 . S
Co307 O332 1.941 . S
C308 O309 1.258 . S
C308 O310 1.263 . S
O309 Co306 1.970 . S
O309 C308 1.258 . S
O310 Co307 1.966 . S
O310 C308 1.263 . S
C311 O312 1.235 . S
C311 O338 1.289 . S
O312 C311 1.235 . S
C313 C315 1.400 . S
C313 N316 1.351 . S
C313 C318 1.501 . S
C314 C315 1.387 . S
C314 N317 1.341 . S
C315 C313 1.400 . S
C315 C314 1.387 . S
N316 Co307 2.022 . S
N316 C313 1.351 . S
N316 N317 1.365 . S
N317 C314 1.341 . S
N317 N316 1.365 . S
N317 H337 0.862 . S
C318 C313 1.501 . S
C318 H319 0.961 . S
C318 H320 0.961 . S
C318 H321 0.960 . S
H319 C318 0.961 . S
H320 C318 0.961 . S
H321 C318 0.960 . S
C322 N323 1.342 . S
C322 C326 1.401 . S
C322 C327 1.499 . S
N323 Co306 1.989 . S
N323 C322 1.342 . S
N323 N324 1.388 . S
N324 Co307 1.993 . S
N324 N323 1.388 . S
N324 C325 1.346 . S
C325 N324 1.346 . S
C325 C326 1.396 . S
C325 C335 1.510 . S
C326 C322 1.401 . S
C326 C325 1.396 . S
C327 C322 1.499 . S
C327 H328 0.959 . S
C327 H329 0.960 . S
C327 H330 0.961 . S
H328 C327 0.959 . S
H329 C327 0.960 . S
H330 C327 0.961 . S
O331 Co306 1.967 . S
O331 C339 1.258 . S
O332 Co307 1.941 . S
O332 C339 1.266 . S
H333 C335 0.959 . S
H334 C335 0.961 . S
C335 C325 1.510 . S
C335 H333 0.959 . S
C335 H334 0.961 . S
C335 H336 0.960 . S
H336 C335 0.960 . S
H337 N317 0.862 . S
O338 Co306 1.920 . S
O338 C311 1.289 . S
C339 O331 1.258 . S
C339 O332 1.266 . S
Co340 O343 1.970 . S
Co340 N357 1.989 . S
Co340 O365 1.967 . S
Co340 O372 1.920 . S
Co341 O344 1.966 . S
Co341 N350 2.022 . S
Co341 N358 1.993 . S
Co341 O366 1.941 . S
C342 O343 1.258 . S
C342 O344 1.263 . S
O343 Co340 1.970 . S
O343 C342 1.258 . S
O344 Co341 1.966 . S
O344 C342 1.263 . S
C345 O346 1.235 . S
C345 O372 1.289 . S
O346 C345 1.235 . S
C347 C349 1.400 . S
C347 N350 1.351 . S
C347 C352 1.501 . S
C348 C349 1.387 . S
C348 N351 1.341 . S
C349 C347 1.400 . S
C349 C348 1.387 . S
N350 Co341 2.022 . S
N350 C347 1.351 . S
N350 N351 1.365 . S
N351 C348 1.341 . S
N351 N350 1.365 . S
N351 H371 0.862 . S
C352 C347 1.501 . S
C352 H353 0.961 . S
C352 H354 0.961 . S
C352 H355 0.960 . S
H353 C352 0.961 . S
H354 C352 0.961 . S
H355 C352 0.960 . S
C356 N357 1.342 . S
C356 C360 1.401 . S
C356 C361 1.499 . S
N357 Co340 1.989 . S
N357 C356 1.342 . S
N357 N358 1.388 . S
N358 Co341 1.993 . S
N358 N357 1.388 . S
N358 C359 1.346 . S
C359 N358 1.346 . S
C359 C360 1.396 . S
C359 C369 1.510 . S
C360 C356 1.401 . S
C360 C359 1.396 . S
C361 C356 1.499 . S
C361 H362 0.959 . S
C361 H363 0.960 . S
C361 H364 0.961 . S
H362 C361 0.959 . S
H363 C361 0.960 . S
H364 C361 0.961 . S
O365 Co340 1.967 . S
O365 C373 1.258 . S
O366 Co341 1.941 . S
O366 C373 1.266 . S
H367 C369 0.959 . S
H368 C369 0.961 . S
C369 C359 1.510 . S
C369 H367 0.959 . S
C369 H368 0.961 . S
C369 H370 0.960 . S
H370 C369 0.960 . S
H371 N351 0.862 . S
O372 Co340 1.920 . S
O372 C345 1.289 . S
C373 O365 1.258 . S
C373 O366 1.266 . S
Co374 O377 1.970 . S
Co374 N391 1.989 . S
Co374 O399 1.967 . S
Co374 O406 1.920 . S
Co375 O378 1.966 . S
Co375 N384 2.022 . S
Co375 N392 1.993 . S
Co375 O400 1.941 . S
C376 O377 1.258 . S
C376 O378 1.263 . S
O377 Co374 1.970 . S
O377 C376 1.258 . S
O378 Co375 1.966 . S
O378 C376 1.263 . S
C379 O380 1.235 . S
C379 O406 1.289 . S
O380 C379 1.235 . S
C381 C383 1.400 . S
C381 N384 1.351 . S
C381 C386 1.501 . S
C382 C383 1.387 . S
C382 N385 1.341 . S
C383 C381 1.400 . S
C383 C382 1.387 . S
N384 Co375 2.022 . S
N384 C381 1.351 . S
N384 N385 1.365 . S
N385 C382 1.341 . S
N385 N384 1.365 . S
N385 H405 0.862 . S
C386 C381 1.501 . S
C386 H387 0.961 . S
C386 H388 0.961 . S
C386 H389 0.960 . S
H387 C386 0.961 . S
H388 C386 0.961 . S
H389 C386 0.960 . S
C390 N391 1.342 . S
C390 C394 1.401 . S
C390 C395 1.499 . S
N391 Co374 1.989 . S
N391 C390 1.342 . S
N391 N392 1.388 . S
N392 Co375 1.993 . S
N392 N391 1.388 . S
N392 C393 1.346 . S
C393 N392 1.346 . S
C393 C394 1.396 . S
C393 C403 1.510 . S
C394 C390 1.401 . S
C394 C393 1.396 . S
C395 C390 1.499 . S
C395 H396 0.959 . S
C395 H397 0.960 . S
C395 H398 0.961 . S
H396 C395 0.959 . S
H397 C395 0.960 . S
H398 C395 0.961 . S
O399 Co374 1.967 . S
O399 C407 1.258 . S
O400 Co375 1.941 . S
O400 C407 1.266 . S
H401 C403 0.959 . S
H402 C403 0.961 . S
C403 C393 1.510 . S
C403 H401 0.959 . S
C403 H402 0.961 . S
C403 H404 0.960 . S
H404 C403 0.960 . S
H405 N385 0.862 . S
O406 Co374 1.920 . S
O406 C379 1.289 . S
C407 O399 1.258 . S
C407 O400 1.266 . S
C408 C409 1.349 . S
C408 C410 1.327 . S
C408 H433 0.950 . S
C409 C408 1.349 . S
C409 C425 1.349 . S
C410 C408 1.327 . S
C410 C429 1.429 . S
C410 H434 0.950 . S
C411 C428 1.574 . S
C411 C430 1.368 . S
C411 H435 0.949 . S
H412 C416 0.949 . S
C413 C414 1.349 . S
C413 C415 1.327 . S
C413 H436 0.950 . S
C414 C413 1.349 . S
C414 C426 1.349 . S
C415 C413 1.327 . S
C415 C431 1.429 . S
C415 H437 0.950 . S
C416 H412 0.949 . S
C416 C424 1.574 . S
C416 C432 1.368 . S
H417 C425 0.950 . S
H418 C423 0.950 . S
H419 C424 0.949 . S
H420 C426 0.950 . S
H421 C427 0.950 . S
H422 C428 0.949 . S
C423 H418 0.950 . S
C423 C425 1.327 . S
C423 C429 1.429 . S
C424 C416 1.574 . S
C424 H419 0.949 . S
C424 C430 1.368 . S
C425 C409 1.349 . S
C425 H417 0.950 . S
C425 C423 1.327 . S
C426 C414 1.349 . S
C426 H420 0.950 . S
C426 C427 1.327 . S
C427 H421 0.950 . S
C427 C426 1.327 . S
C427 C431 1.429 . S
C428 C411 1.574 . S
C428 H422 0.949 . S
C428 C432 1.368 . S
C429 C410 1.429 . S
C429 C423 1.429 . S
C429 C430 1.523 . S
C430 C411 1.368 . S
C430 C424 1.368 . S
C430 C429 1.523 . S
C431 C415 1.429 . S
C431 C427 1.429 . S
C431 C432 1.523 . S
C432 C416 1.368 . S
C432 C428 1.368 . S
C432 C431 1.523 . S
H433 C408 0.950 . S
H434 C410 0.950 . S
H435 C411 0.949 . S
H436 C413 0.950 . S
H437 C415 0.950 . S
C438 C439 1.349 . S
C438 C440 1.327 . S
C438 H463 0.950 . S
C439 C438 1.349 . S
C439 C455 1.349 . S
C440 C438 1.327 . S
C440 C459 1.429 . S
C440 H464 0.950 . S
C441 C458 1.574 . S
C441 C460 1.368 . S
C441 H465 0.949 . S
H442 C446 0.949 . S
C443 C444 1.349 . S
C443 C445 1.327 . S
C443 H466 0.950 . S
C444 C443 1.349 . S
C444 C456 1.349 . S
C445 C443 1.327 . S
C445 C461 1.429 . S
C445 H467 0.950 . S
C446 H442 0.949 . S
C446 C454 1.574 . S
C446 C462 1.368 . S
H447 C455 0.950 . S
H448 C453 0.950 . S
H449 C454 0.949 . S
H450 C456 0.950 . S
H451 C457 0.950 . S
H452 C458 0.949 . S
C453 H448 0.950 . S
C453 C455 1.327 . S
C453 C459 1.429 . S
C454 C446 1.574 . S
C454 H449 0.949 . S
C454 C460 1.368 . S
C455 C439 1.349 . S
C455 H447 0.950 . S
C455 C453 1.327 . S
C456 C444 1.349 . S
C456 H450 0.950 . S
C456 C457 1.327 . S
C457 H451 0.950 . S
C457 C456 1.327 . S
C457 C461 1.429 . S
C458 C441 1.574 . S
C458 H452 0.949 . S
C458 C462 1.368 . S
C459 C440 1.429 . S
C459 C453 1.429 . S
C459 C460 1.523 . S
C460 C441 1.368 . S
C460 C454 1.368 . S
C460 C459 1.523 . S
C461 C445 1.429 . S
C461 C457 1.429 . S
C461 C462 1.523 . S
C462 C446 1.368 . S
C462 C458 1.368 . S
C462 C461 1.523 . S
H463 C438 0.950 . S
H464 C440 0.950 . S
H465 C441 0.949 . S
H466 C443 0.950 . S
H467 C445 0.950 . S
C468 C469 1.349 . S
C468 C470 1.327 . S
C468 H493 0.950 . S
C469 C468 1.349 . S
C469 C485 1.349 . S
C470 C468 1.327 . S
C470 C489 1.429 . S
C470 H494 0.950 . S
C471 C488 1.574 . S
C471 C490 1.368 . S
C471 H495 0.949 . S
H472 C476 0.949 . S
C473 C474 1.349 . S
C473 C475 1.327 . S
C473 H496 0.950 . S
C474 C473 1.349 . S
C474 C486 1.349 . S
C475 C473 1.327 . S
C475 C491 1.429 . S
C475 H497 0.950 . S
C476 H472 0.949 . S
C476 C484 1.574 . S
C476 C492 1.368 . S
H477 C485 0.950 . S
H478 C483 0.950 . S
H479 C484 0.949 . S
H480 C486 0.950 . S
H481 C487 0.950 . S
H482 C488 0.949 . S
C483 H478 0.950 . S
C483 C485 1.327 . S
C483 C489 1.429 . S
C484 C476 1.574 . S
C484 H479 0.949 . S
C484 C490 1.368 . S
C485 C469 1.349 . S
C485 H477 0.950 . S
C485 C483 1.327 . S
C486 C474 1.349 . S
C486 H480 0.950 . S
C486 C487 1.327 . S
C487 H481 0.950 . S
C487 C486 1.327 . S
C487 C491 1.429 . S
C488 C471 1.574 . S
C488 H482 0.949 . S
C488 C492 1.368 . S
C489 C470 1.429 . S
C489 C483 1.429 . S
C489 C490 1.523 . S
C490 C471 1.368 . S
C490 C484 1.368 . S
C490 C489 1.523 . S
C491 C475 1.429 . S
C491 C487 1.429 . S
C491 C492 1.523 . S
C492 C476 1.368 . S
C492 C488 1.368 . S
C492 C491 1.523 . S
H493 C468 0.950 . S
H494 C470 0.950 . S
H495 C471 0.949 . S
H496 C473 0.950 . S
H497 C475 0.950 . S
C498 C499 1.349 . S
C498 C500 1.327 . S
C498 H523 0.950 . S
C499 C498 1.349 . S
C499 C515 1.349 . S
C500 C498 1.327 . S
C500 C519 1.429 . S
C500 H524 0.950 . S
C501 C518 1.574 . S
C501 C520 1.368 . S
C501 H525 0.949 . S
H502 C506 0.949 . S
C503 C504 1.349 . S
C503 C505 1.327 . S
C503 H526 0.950 . S
C504 C503 1.349 . S
C504 C516 1.349 . S
C505 C503 1.327 . S
C505 C521 1.429 . S
C505 H527 0.950 . S
C506 H502 0.949 . S
C506 C514 1.574 . S
C506 C522 1.368 . S
H507 C515 0.950 . S
H508 C513 0.950 . S
H509 C514 0.949 . S
H510 C516 0.950 . S
H511 C517 0.950 . S
H512 C518 0.949 . S
C513 H508 0.950 . S
C513 C515 1.327 . S
C513 C519 1.429 . S
C514 C506 1.574 . S
C514 H509 0.949 . S
C514 C520 1.368 . S
C515 C499 1.349 . S
C515 H507 0.950 . S
C515 C513 1.327 . S
C516 C504 1.349 . S
C516 H510 0.950 . S
C516 C517 1.327 . S
C517 H511 0.950 . S
C517 C516 1.327 . S
C517 C521 1.429 . S
C518 C501 1.574 . S
C518 H512 0.949 . S
C518 C522 1.368 . S
C519 C500 1.429 . S
C519 C513 1.429 . S
C519 C520 1.523 . S
C520 C501 1.368 . S
C520 C514 1.368 . S
C520 C519 1.523 . S
C521 C505 1.429 . S
C521 C517 1.429 . S
C521 C522 1.523 . S
C522 C506 1.368 . S
C522 C518 1.368 . S
C522 C521 1.523 . S
H523 C498 0.950 . S
H524 C500 0.950 . S
H525 C501 0.949 . S
H526 C503 0.950 . S
H527 C505 0.950 . S
C528 C529 1.349 . S
C528 C530 1.327 . S
C528 H553 0.950 . S
C529 C528 1.349 . S
C529 C545 1.349 . S
C530 C528 1.327 . S
C530 C549 1.429 . S
C530 H554 0.950 . S
C531 C548 1.574 . S
C531 C550 1.368 . S
C531 H555 0.949 . S
H532 C536 0.949 . S
C533 C534 1.349 . S
C533 C535 1.327 . S
C533 H556 0.950 . S
C534 C533 1.349 . S
C534 C546 1.349 . S
C535 C533 1.327 . S
C535 C551 1.429 . S
C535 H557 0.950 . S
C536 H532 0.949 . S
C536 C544 1.574 . S
C536 C552 1.368 . S
H537 C545 0.950 . S
H538 C543 0.950 . S
H539 C544 0.949 . S
H540 C546 0.950 . S
H541 C547 0.950 . S
H542 C548 0.949 . S
C543 H538 0.950 . S
C543 C545 1.327 . S
C543 C549 1.429 . S
C544 C536 1.574 . S
C544 H539 0.949 . S
C544 C550 1.368 . S
C545 C529 1.349 . S
C545 H537 0.950 . S
C545 C543 1.327 . S
C546 C534 1.349 . S
C546 H540 0.950 . S
C546 C547 1.327 . S
C547 H541 0.950 . S
C547 C546 1.327 . S
C547 C551 1.429 . S
C548 C531 1.574 . S
C548 H542 0.949 . S
C548 C552 1.368 . S
C549 C530 1.429 . S
C549 C543 1.429 . S
C549 C550 1.523 . S
C550 C531 1.368 . S
C550 C544 1.368 . S
C550 C549 1.523 . S
C551 C535 1.429 . S
C551 C547 1.429 . S
C551 C552 1.523 . S
C552 C536 1.368 . S
C552 C548 1.368 . S
C552 C551 1.523 . S
H553 C528 0.950 . S
H554 C530 0.950 . S
H555 C531 0.949 . S
H556 C533 0.950 . S
H557 C535 0.950 . S
C558 C559 1.349 . S
C558 C560 1.327 . S
C558 H583 0.950 . S
C559 C558 1.349 . S
C559 C575 1.349 . S
C560 C558 1.327 . S
C560 C579 1.429 . S
C560 H584 0.950 . S
C561 C578 1.574 . S
C561 C580 1.368 . S
C561 H585 0.949 . S
H562 C566 0.949 . S
C563 C564 1.349 . S
C563 C565 1.327 . S
C563 H586 0.950 . S
C564 C563 1.349 . S
C564 C576 1.349 . S
C565 C563 1.327 . S
C565 C581 1.429 . S
C565 H587 0.950 . S
C566 H562 0.949 . S
C566 C574 1.574 . S
C566 C582 1.368 . S
H567 C575 0.950 . S
H568 C573 0.950 . S
H569 C574 0.949 . S
H570 C576 0.950 . S
H571 C577 0.950 . S
H572 C578 0.949 . S
C573 H568 0.950 . S
C573 C575 1.327 . S
C573 C579 1.429 . S
C574 C566 1.574 . S
C574 H569 0.949 . S
C574 C580 1.368 . S
C575 C559 1.349 . S
C575 H567 0.950 . S
C575 C573 1.327 . S
C576 C564 1.349 . S
C576 H570 0.950 . S
C576 C577 1.327 . S
C577 H571 0.950 . S
C577 C576 1.327 . S
C577 C581 1.429 . S
C578 C561 1.574 . S
C578 H572 0.949 . S
C578 C582 1.368 . S
C579 C560 1.429 . S
C579 C573 1.429 . S
C579 C580 1.523 . S
C580 C561 1.368 . S
C580 C574 1.368 . S
C580 C579 1.523 . S
C581 C565 1.429 . S
C581 C577 1.429 . S
C581 C582 1.523 . S
C582 C566 1.368 . S
C582 C578 1.368 . S
C582 C581 1.523 . S
H583 C558 0.950 . S
H584 C560 0.950 . S
H585 C561 0.949 . S
H586 C563 0.950 . S
H587 C565 0.950 . S
C588 C589 1.349 . S
C588 C590 1.327 . S
C588 H613 0.950 . S
C589 C588 1.349 . S
C589 C605 1.349 . S
C590 C588 1.327 . S
C590 C609 1.429 . S
C590 H614 0.950 . S
C591 C608 1.574 . S
C591 C610 1.368 . S
C591 H615 0.949 . S
H592 C596 0.949 . S
C593 C594 1.349 . S
C593 C595 1.327 . S
C593 H616 0.950 . S
C594 C593 1.349 . S
C594 C606 1.349 . S
C595 C593 1.327 . S
C595 C611 1.429 . S
C595 H617 0.950 . S
C596 H592 0.949 . S
C596 C604 1.574 . S
C596 C612 1.368 . S
H597 C605 0.950 . S
H598 C603 0.950 . S
H599 C604 0.949 . S
H600 C606 0.950 . S
H601 C607 0.950 . S
H602 C608 0.949 . S
C603 H598 0.950 . S
C603 C605 1.327 . S
C603 C609 1.429 . S
C604 C596 1.574 . S
C604 H599 0.949 . S
C604 C610 1.368 . S
C605 C589 1.349 . S
C605 H597 0.950 . S
C605 C603 1.327 . S
C606 C594 1.349 . S
C606 H600 0.950 . S
C606 C607 1.327 . S
C607 H601 0.950 . S
C607 C606 1.327 . S
C607 C611 1.429 . S
C608 C591 1.574 . S
C608 H602 0.949 . S
C608 C612 1.368 . S
C609 C590 1.429 . S
C609 C603 1.429 . S
C609 C610 1.523 . S
C610 C591 1.368 . S
C610 C604 1.368 . S
C610 C609 1.523 . S
C611 C595 1.429 . S
C611 C607 1.429 . S
C611 C612 1.523 . S
C612 C596 1.368 . S
C612 C608 1.368 . S
C612 C611 1.523 . S
H613 C588 0.950 . S
H614 C590 0.950 . S
H615 C591 0.949 . S
H616 C593 0.950 . S
H617 C595 0.950 . S
C618 C619 1.349 . S
C618 C620 1.327 . S
C618 H643 0.950 . S
C619 C618 1.349 . S
C619 C635 1.349 . S
C620 C618 1.327 . S
C620 C639 1.429 . S
C620 H644 0.950 . S
C621 C638 1.574 . S
C621 C640 1.368 . S
C621 H645 0.949 . S
H622 C626 0.949 . S
C623 C624 1.349 . S
C623 C625 1.327 . S
C623 H646 0.950 . S
C624 C623 1.349 . S
C624 C636 1.349 . S
C625 C623 1.327 . S
C625 C641 1.429 . S
C625 H647 0.950 . S
C626 H622 0.949 . S
C626 C634 1.574 . S
C626 C642 1.368 . S
H627 C635 0.950 . S
H628 C633 0.950 . S
H629 C634 0.949 . S
H630 C636 0.950 . S
H631 C637 0.950 . S
H632 C638 0.949 . S
C633 H628 0.950 . S
C633 C635 1.327 . S
C633 C639 1.429 . S
C634 C626 1.574 . S
C634 H629 0.949 . S
C634 C640 1.368 . S
C635 C619 1.349 . S
C635 H627 0.950 . S
C635 C633 1.327 . S
C636 C624 1.349 . S
C636 H630 0.950 . S
C636 C637 1.327 . S
C637 H631 0.950 . S
C637 C636 1.327 . S
C637 C641 1.429 . S
C638 C621 1.574 . S
C638 H632 0.949 . S
C638 C642 1.368 . S
C639 C620 1.429 . S
C639 C633 1.429 . S
C639 C640 1.523 . S
C640 C621 1.368 . S
C640 C634 1.368 . S
C640 C639 1.523 . S
C641 C625 1.429 . S
C641 C637 1.429 . S
C641 C642 1.523 . S
C642 C626 1.368 . S
C642 C638 1.368 . S
C642 C641 1.523 . S
H643 C618 0.950 . S
H644 C620 0.950 . S
H645 C621 0.949 . S
H646 C623 0.950 . S
H647 C625 0.950 . S
C648 C649 1.349 . S
C648 C650 1.327 . S
C648 H673 0.950 . S
C649 C648 1.349 . S
C649 C665 1.349 . S
C650 C648 1.327 . S
C650 C669 1.429 . S
C650 H674 0.950 . S
C651 C668 1.574 . S
C651 C670 1.368 . S
C651 H675 0.949 . S
H652 C656 0.949 . S
C653 C654 1.349 . S
C653 C655 1.327 . S
C653 H676 0.950 . S
C654 C653 1.349 . S
C654 C666 1.349 . S
C655 C653 1.327 . S
C655 C671 1.429 . S
C655 H677 0.950 . S
C656 H652 0.949 . S
C656 C664 1.574 . S
C656 C672 1.368 . S
H657 C665 0.950 . S
H658 C663 0.950 . S
H659 C664 0.949 . S
H660 C666 0.950 . S
H661 C667 0.950 . S
H662 C668 0.949 . S
C663 H658 0.950 . S
C663 C665 1.327 . S
C663 C669 1.429 . S
C664 C656 1.574 . S
C664 H659 0.949 . S
C664 C670 1.368 . S
C665 C649 1.349 . S
C665 H657 0.950 . S
C665 C663 1.327 . S
C666 C654 1.349 . S
C666 H660 0.950 . S
C666 C667 1.327 . S
C667 H661 0.950 . S
C667 C666 1.327 . S
C667 C671 1.429 . S
C668 C651 1.574 . S
C668 H662 0.949 . S
C668 C672 1.368 . S
C669 C650 1.429 . S
C669 C663 1.429 . S
C669 C670 1.523 . S
C670 C651 1.368 . S
C670 C664 1.368 . S
C670 C669 1.523 . S
C671 C655 1.429 . S
C671 C667 1.429 . S
C671 C672 1.523 1_554 S
C672 C656 1.368 . S
C672 C668 1.368 . S
C672 C671 1.523 1_556 S
H673 C648 0.950 . S
H674 C650 0.950 . S
H675 C651 0.949 . S
H676 C653 0.950 . S
H677 C655 0.950 . S
C678 C679 1.349 . S
C678 C680 1.327 . S
C678 H703 0.950 . S
C679 C678 1.349 . S
C679 C695 1.349 . S
C680 C678 1.327 . S
C680 C699 1.429 . S
C680 H704 0.950 . S
C681 C698 1.574 . S
C681 C700 1.368 . S
C681 H705 0.949 . S
H682 C686 0.949 . S
C683 C684 1.349 . S
C683 C685 1.327 . S
C683 H706 0.950 . S
C684 C683 1.349 . S
C684 C696 1.349 . S
C685 C683 1.327 . S
C685 C701 1.429 . S
C685 H707 0.950 . S
C686 H682 0.949 . S
C686 C694 1.574 . S
C686 C702 1.368 . S
H687 C695 0.950 . S
H688 C693 0.950 . S
H689 C694 0.949 . S
H690 C696 0.950 . S
H691 C697 0.950 . S
H692 C698 0.949 . S
C693 H688 0.950 . S
C693 C695 1.327 . S
C693 C699 1.429 . S
C694 C686 1.574 . S
C694 H689 0.949 . S
C694 C700 1.368 . S
C695 C679 1.349 . S
C695 H687 0.950 . S
C695 C693 1.327 . S
C696 C684 1.349 . S
C696 H690 0.950 . S
C696 C697 1.327 . S
C697 H691 0.950 . S
C697 C696 1.327 . S
C697 C701 1.429 . S
C698 C681 1.574 . S
C698 H692 0.949 . S
C698 C702 1.368 . S
C699 C680 1.429 . S
C699 C693 1.429 . S
C699 C700 1.523 1_556 S
C700 C681 1.368 . S
C700 C694 1.368 . S
C700 C699 1.523 1_554 S
C701 C685 1.429 . S
C701 C697 1.429 . S
C701 C702 1.523 . S
C702 C686 1.368 . S
C702 C698 1.368 . S
C702 C701 1.523 . S
H703 C678 0.950 . S
H704 C680 0.950 . S
H705 C681 0.949 . S
H706 C683 0.950 . S
H707 C685 0.950 . S
C708 C709 1.349 1_554 S
C708 C710 1.327 . S
C708 H733 0.950 . S
C709 C708 1.349 1_556 S
C709 C725 1.349 1_556 S
C710 C708 1.327 . S
C710 C729 1.429 . S
C710 H734 0.950 . S
C711 C728 1.574 . S
C711 C730 1.368 . S
C711 H735 0.949 . S
H712 C716 0.949 . S
C713 C714 1.349 . S
C713 C715 1.327 . S
C713 H736 0.950 . S
C714 C713 1.349 . S
C714 C726 1.349 . S
C715 C713 1.327 . S
C715 C731 1.429 . S
C715 H737 0.950 . S
C716 H712 0.949 . S
C716 C724 1.574 . S
C716 C732 1.368 . S
H717 C725 0.950 1_556 S
H718 C723 0.950 . S
H719 C724 0.949 . S
H720 C726 0.950 . S
H721 C727 0.950 . S
H722 C728 0.949 . S
C723 H718 0.950 . S
C723 C725 1.327 . S
C723 C729 1.429 . S
C724 C716 1.574 . S
C724 H719 0.949 . S
C724 C730 1.368 . S
C725 C709 1.349 1_554 S
C725 H717 0.950 1_554 S
C725 C723 1.327 . S
C726 C714 1.349 . S
C726 H720 0.950 . S
C726 C727 1.327 . S
C727 H721 0.950 . S
C727 C726 1.327 . S
C727 C731 1.429 . S
C728 C711 1.574 . S
C728 H722 0.949 . S
C728 C732 1.368 . S
C729 C710 1.429 . S
C729 C723 1.429 . S
C729 C730 1.523 . S
C730 C711 1.368 . S
C730 C724 1.368 . S
C730 C729 1.523 . S
C731 C715 1.429 . S
C731 C727 1.429 . S
C731 C732 1.523 . S
C732 C716 1.368 . S
C732 C728 1.368 . S
C732 C731 1.523 . S
H733 C708 0.950 . S
H734 C710 0.950 . S
H735 C711 0.949 . S
H736 C713 0.950 . S
H737 C715 0.950 . S
C738 C739 1.349 . S
C738 C740 1.327 . S
C738 H763 0.950 . S
C739 C738 1.349 . S
C739 C755 1.349 . S
C740 C738 1.327 . S
C740 C759 1.429 . S
C740 H764 0.950 . S
C741 C758 1.574 . S
C741 C760 1.368 . S
C741 H765 0.949 . S
H742 C746 0.949 . S
C743 C744 1.349 . S
C743 C745 1.327 . S
C743 H766 0.950 . S
C744 C743 1.349 . S
C744 C756 1.349 . S
C745 C743 1.327 . S
C745 C761 1.429 . S
C745 H767 0.950 . S
C746 H742 0.949 . S
C746 C754 1.574 . S
C746 C762 1.368 . S
H747 C755 0.950 . S
H748 C753 0.950 . S
H749 C754 0.949 . S
H750 C756 0.950 . S
H751 C757 0.950 . S
H752 C758 0.949 . S
C753 H748 0.950 . S
C753 C755 1.327 . S
C753 C759 1.429 . S
C754 C746 1.574 . S
C754 H749 0.949 . S
C754 C760 1.368 . S
C755 C739 1.349 . S
C755 H747 0.950 . S
C755 C753 1.327 . S
C756 C744 1.349 . S
C756 H750 0.950 . S
C756 C757 1.327 . S
C757 H751 0.950 . S
C757 C756 1.327 . S
C757 C761 1.429 . S
C758 C741 1.574 . S
C758 H752 0.949 . S
C758 C762 1.368 . S
C759 C740 1.429 . S
C759 C753 1.429 . S
C759 C760 1.523 . S
C760 C741 1.368 . S
C760 C754 1.368 . S
C760 C759 1.523 . S
C761 C745 1.429 . S
C761 C757 1.429 . S
C761 C762 1.523 . S
C762 C746 1.368 . S
C762 C758 1.368 . S
C762 C761 1.523 . S
H763 C738 0.950 . S
H764 C740 0.950 . S
H765 C741 0.949 . S
H766 C743 0.950 . S
H767 C745 0.950 . S
C768 C769 1.349 . S
C768 C770 1.327 . S
C768 H793 0.950 . S
C769 C768 1.349 . S
C769 C785 1.349 . S
C770 C768 1.327 . S
C770 C789 1.429 . S
C770 H794 0.950 . S
C771 C788 1.574 . S
C771 C790 1.368 . S
C771 H795 0.949 . S
H772 C776 0.949 . S
C773 C774 1.349 . S
C773 C775 1.327 . S
C773 H796 0.950 . S
C774 C773 1.349 . S
C774 C786 1.349 . S
C775 C773 1.327 . S
C775 C791 1.429 . S
C775 H797 0.950 . S
C776 H772 0.949 . S
C776 C784 1.574 . S
C776 C792 1.368 . S
H777 C785 0.950 . S
H778 C783 0.950 . S
H779 C784 0.949 . S
H780 C786 0.950 . S
H781 C787 0.950 . S
H782 C788 0.949 . S
C783 H778 0.950 . S
C783 C785 1.327 . S
C783 C789 1.429 . S
C784 C776 1.574 . S
C784 H779 0.949 . S
C784 C790 1.368 . S
C785 C769 1.349 . S
C785 H777 0.950 . S
C785 C783 1.327 . S
C786 C774 1.349 . S
C786 H780 0.950 . S
C786 C787 1.327 . S
C787 H781 0.950 . S
C787 C786 1.327 . S
C787 C791 1.429 . S
C788 C771 1.574 . S
C788 H782 0.949 . S
C788 C792 1.368 . S
C789 C770 1.429 . S
C789 C783 1.429 . S
C789 C790 1.523 . S
C790 C771 1.368 . S
C790 C784 1.368 . S
C790 C789 1.523 . S
C791 C775 1.429 . S
C791 C787 1.429 . S
C791 C792 1.523 . S
C792 C776 1.368 . S
C792 C788 1.368 . S
C792 C791 1.523 . S
H793 C768 0.950 . S
H794 C770 0.950 . S
H795 C771 0.949 . S
H796 C773 0.950 . S
H797 C775 0.950 . S
C798 C799 1.349 . S
C798 C800 1.327 . S
C798 H823 0.950 . S
C799 C798 1.349 . S
C799 C815 1.349 . S
C800 C798 1.327 . S
C800 C819 1.429 . S
C800 H824 0.950 . S
C801 C818 1.574 . S
C801 C820 1.368 . S
C801 H825 0.949 . S
H802 C806 0.949 . S
C803 C804 1.349 . S
C803 C805 1.327 . S
C803 H826 0.950 . S
C804 C803 1.349 . S
C804 C816 1.349 . S
C805 C803 1.327 . S
C805 C821 1.429 . S
C805 H827 0.950 . S
C806 H802 0.949 . S
C806 C814 1.574 . S
C806 C822 1.368 . S
H807 C815 0.950 . S
H808 C813 0.950 . S
H809 C814 0.949 . S
H810 C816 0.950 . S
H811 C817 0.950 . S
H812 C818 0.949 . S
C813 H808 0.950 . S
C813 C815 1.327 . S
C813 C819 1.429 . S
C814 C806 1.574 . S
C814 H809 0.949 . S
C814 C820 1.368 . S
C815 C799 1.349 . S
C815 H807 0.950 . S
C815 C813 1.327 . S
C816 C804 1.349 . S
C816 H810 0.950 . S
C816 C817 1.327 . S
C817 H811 0.950 . S
C817 C816 1.327 . S
C817 C821 1.429 . S
C818 C801 1.574 . S
C818 H812 0.949 . S
C818 C822 1.368 . S
C819 C800 1.429 . S
C819 C813 1.429 . S
C819 C820 1.523 . S
C820 C801 1.368 . S
C820 C814 1.368 . S
C820 C819 1.523 . S
C821 C805 1.429 . S
C821 C817 1.429 . S
C821 C822 1.523 . S
C822 C806 1.368 . S
C822 C818 1.368 . S
C822 C821 1.523 . S
H823 C798 0.950 . S
H824 C800 0.950 . S
H825 C801 0.949 . S
H826 C803 0.950 . S
H827 C805 0.950 . S
C828 C829 1.349 . S
C828 C830 1.327 . S
C828 H853 0.950 . S
C829 C828 1.349 . S
C829 C845 1.349 . S
C830 C828 1.327 . S
C830 C849 1.429 . S
C830 H854 0.950 . S
C831 C848 1.574 . S
C831 C850 1.368 . S
C831 H855 0.949 . S
H832 C836 0.949 . S
C833 C834 1.349 . S
C833 C835 1.327 . S
C833 H856 0.950 . S
C834 C833 1.349 . S
C834 C846 1.349 . S
C835 C833 1.327 . S
C835 C851 1.429 . S
C835 H857 0.950 . S
C836 H832 0.949 . S
C836 C844 1.574 . S
C836 C852 1.368 . S
H837 C845 0.950 . S
H838 C843 0.950 . S
H839 C844 0.949 . S
H840 C846 0.950 . S
H841 C847 0.950 . S
H842 C848 0.949 . S
C843 H838 0.950 . S
C843 C845 1.327 . S
C843 C849 1.429 . S
C844 C836 1.574 . S
C844 H839 0.949 . S
C844 C850 1.368 . S
C845 C829 1.349 . S
C845 H837 0.950 . S
C845 C843 1.327 . S
C846 C834 1.349 . S
C846 H840 0.950 . S
C846 C847 1.327 . S
C847 H841 0.950 . S
C847 C846 1.327 . S
C847 C851 1.429 . S
C848 C831 1.574 . S
C848 H842 0.949 . S
C848 C852 1.368 . S
C849 C830 1.429 . S
C849 C843 1.429 . S
C849 C850 1.523 . S
C850 C831 1.368 . S
C850 C844 1.368 . S
C850 C849 1.523 . S
C851 C835 1.429 . S
C851 C847 1.429 . S
C851 C852 1.523 . S
C852 C836 1.368 . S
C852 C848 1.368 . S
C852 C851 1.523 . S
H853 C828 0.950 . S
H854 C830 0.950 . S
H855 C831 0.949 . S
H856 C833 0.950 . S
H857 C835 0.950 . S
C858 C859 1.349 . S
C858 C860 1.327 . S
C858 H883 0.950 . S
C859 C858 1.349 . S
C859 C875 1.349 . S
C860 C858 1.327 . S
C860 C879 1.429 . S
C860 H884 0.950 . S
C861 C878 1.574 . S
C861 C880 1.368 . S
C861 H885 0.949 . S
H862 C866 0.949 . S
C863 C864 1.349 1_556 S
C863 C865 1.327 . S
C863 H886 0.950 1_556 S
C864 C863 1.349 1_554 S
C864 C876 1.349 1_554 S
C865 C863 1.327 . S
C865 C881 1.429 . S
C865 H887 0.950 . S
C866 H862 0.949 . S
C866 C874 1.574 . S
C866 C882 1.368 . S
H867 C875 0.950 . S
H868 C873 0.950 . S
H869 C874 0.949 . S
H870 C876 0.942 1_554 S
H871 C877 0.950 . S
H872 C878 0.949 . S
C873 H868 0.950 . S
C873 C875 1.327 . S
C873 C879 1.429 . S
C874 C866 1.574 . S
C874 H869 0.949 . S
C874 C880 1.368 . S
C875 C859 1.349 . S
C875 H867 0.950 . S
C875 C873 1.327 . S
C876 C864 1.349 1_556 S
C876 H870 0.942 1_556 S
C876 C877 1.327 . S
C877 H871 0.950 . S
C877 C876 1.327 . S
C877 C881 1.429 . S
C878 C861 1.574 . S
C878 H872 0.949 . S
C878 C882 1.368 . S
C879 C860 1.429 . S
C879 C873 1.429 . S
C879 C880 1.523 . S
C880 C861 1.368 . S
C880 C874 1.368 . S
C880 C879 1.523 . S
C881 C865 1.429 . S
C881 C877 1.429 . S
C881 C882 1.523 . S
C882 C866 1.368 . S
C882 C878 1.368 . S
C882 C881 1.523 . S
H883 C858 0.950 . S
H884 C860 0.950 . S
H885 C861 0.949 . S
H886 C863 0.950 1_554 S
H887 C865 0.950 . S
C888 C889 1.349 . S
C888 C890 1.327 . S
C888 H913 0.950 . S
C889 C888 1.349 . S
C889 C905 1.349 . S
C890 C888 1.327 . S
C890 C909 1.429 . S
C890 H914 0.950 . S
C891 C908 1.574 . S
C891 C910 1.368 . S
C891 H915 0.949 . S
H892 C896 0.949 . S
C893 C894 1.349 . S
C893 C895 1.327 . S
C893 H916 0.950 . S
C894 C893 1.349 . S
C894 C906 1.349 . S
C895 C893 1.327 . S
C895 C911 1.429 . S
C895 H917 0.950 . S
C896 H892 0.949 . S
C896 C904 1.574 . S
C896 C912 1.368 . S
H897 C905 0.950 . S
H898 C903 0.950 . S
H899 C904 0.949 . S
H900 C906 0.950 . S
H901 C907 0.950 . S
H902 C908 0.949 1_554 S
C903 H898 0.950 . S
C903 C905 1.327 . S
C903 C909 1.429 . S
C904 C896 1.574 . S
C904 H899 0.949 . S
C904 C910 1.368 . S
C905 C889 1.349 . S
C905 H897 0.950 . S
C905 C903 1.327 . S
C906 C894 1.349 . S
C906 H900 0.950 . S
C906 C907 1.327 . S
C907 H901 0.950 . S
C907 C906 1.327 . S
C907 C911 1.429 . S
C908 C891 1.574 . S
C908 H902 0.949 1_556 S
C908 C912 1.368 . S
C909 C890 1.429 . S
C909 C903 1.429 . S
C909 C910 1.523 . S
C910 C891 1.368 . S
C910 C904 1.368 . S
C910 C909 1.523 . S
C911 C895 1.429 . S
C911 C907 1.429 . S
C911 C912 1.523 1_554 S
C912 C896 1.368 . S
C912 C908 1.368 . S
C912 C911 1.523 1_556 S
H913 C888 0.950 . S
H914 C890 0.950 . S
H915 C891 0.949 . S
H916 C893 0.950 . S
H917 C895 0.950 . S
C918 C919 1.349 . S
C918 C920 1.327 . S
C918 H943 0.950 . S
C919 C918 1.349 . S
C919 C935 1.349 . S
C920 C918 1.327 . S
C920 C939 1.429 . S
C920 H944 0.950 . S
C921 C938 1.574 . S
C921 C940 1.368 . S
C921 H945 0.949 . S
H922 C926 0.949 . S
C923 C924 1.349 . S
C923 C925 1.327 . S
C923 H946 0.950 . S
C924 C923 1.349 . S
C924 C936 1.349 . S
C925 C923 1.327 . S
C925 C941 1.429 . S
C925 H947 0.950 . S
C926 H922 0.949 . S
C926 C934 1.574 . S
C926 C942 1.368 . S
H927 C935 0.950 . S
H928 C933 0.950 . S
H929 C934 0.949 . S
H930 C936 0.950 . S
H931 C937 0.950 . S
H932 C938 0.949 . S
C933 H928 0.950 . S
C933 C935 1.327 . S
C933 C939 1.429 . S
C934 C926 1.574 . S
C934 H929 0.949 . S
C934 C940 1.368 . S
C935 C919 1.349 . S
C935 H927 0.950 . S
C935 C933 1.327 . S
C936 C924 1.349 . S
C936 H930 0.950 . S
C936 C937 1.327 . S
C937 H931 0.950 . S
C937 C936 1.327 . S
C937 C941 1.429 . S
C938 C921 1.574 . S
C938 H932 0.949 . S
C938 C942 1.368 . S
C939 C920 1.429 . S
C939 C933 1.429 . S
C939 C940 1.523 . S
C940 C921 1.368 . S
C940 C934 1.368 . S
C940 C939 1.523 . S
C941 C925 1.429 . S
C941 C937 1.429 . S
C941 C942 1.523 1_556 S
C942 C926 1.368 . S
C942 C938 1.368 . S
C942 C941 1.523 1_554 S
H943 C918 0.950 . S
H944 C920 0.950 . S
H945 C921 0.949 . S
H946 C923 0.950 . S
H947 C925 0.950 . S
C948 C949 1.349 . S
C948 C950 1.327 . S
C948 H973 0.950 . S
C949 C948 1.349 . S
C949 C965 1.349 . S
C950 C948 1.327 . S
C950 C969 1.429 . S
C950 H974 0.950 . S
C951 C968 1.574 . S
C951 C970 1.368 . S
C951 H975 0.949 . S
H952 C956 0.949 . S
C953 C954 1.349 . S
C953 C955 1.327 . S
C953 H976 0.950 . S
C954 C953 1.349 . S
C954 C966 1.349 . S
C955 C953 1.327 . S
C955 C971 1.429 . S
C955 H977 0.950 . S
C956 H952 0.949 . S
C956 C964 1.574 . S
C956 C972 1.368 . S
H957 C965 0.950 . S
H958 C963 0.950 . S
H959 C964 0.949 . S
H960 C966 0.950 . S
H961 C967 0.950 . S
H962 C968 0.949 . S
C963 H958 0.950 . S
C963 C965 1.327 . S
C963 C969 1.429 . S
C964 C956 1.574 . S
C964 H959 0.949 . S
C964 C970 1.368 . S
C965 C949 1.349 . S
C965 H957 0.950 . S
C965 C963 1.327 . S
C966 C954 1.349 . S
C966 H960 0.950 . S
C966 C967 1.327 . S
C967 H961 0.950 . S
C967 C966 1.327 . S
C967 C971 1.429 . S
C968 C951 1.574 . S
C968 H962 0.949 . S
C968 C972 1.368 . S
C969 C950 1.429 . S
C969 C963 1.429 . S
C969 C970 1.523 . S
C970 C951 1.368 . S
C970 C964 1.368 . S
C970 C969 1.523 . S
C971 C955 1.429 . S
C971 C967 1.429 . S
C971 C972 1.523 . S
C972 C956 1.368 . S
C972 C968 1.368 . S
C972 C971 1.523 . S
H973 C948 0.950 . S
H974 C950 0.950 . S
H975 C951 0.949 . S
H976 C953 0.950 . S
H977 C955 0.950 . S
C978 C979 1.349 . S
C978 C980 1.327 . S
C978 H1003 0.950 . S
C979 C978 1.349 . S
C979 C995 1.349 . S
C980 C978 1.327 . S
C980 C999 1.429 . S
C980 H1004 0.950 . S
C981 C998 1.574 . S
C981 C1000 1.368 . S
C981 H1005 0.949 . S
H982 C986 0.949 . S
C983 C984 1.349 . S
C983 C985 1.327 . S
C983 H1006 0.950 . S
C984 C983 1.349 . S
C984 C996 1.349 . S
C985 C983 1.327 . S
C985 C1001 1.429 . S
C985 H1007 0.950 . S
C986 H982 0.949 . S
C986 C994 1.574 . S
C986 C1002 1.368 . S
H987 C995 0.950 . S
H988 C993 0.950 . S
H989 C994 0.949 . S
H990 C996 0.950 . S
H991 C997 0.950 . S
H992 C998 0.949 . S
C993 H988 0.950 . S
C993 C995 1.327 . S
C993 C999 1.429 . S
C994 C986 1.574 . S
C994 H989 0.949 . S
C994 C1000 1.368 . S
C995 C979 1.349 . S
C995 H987 0.950 . S
C995 C993 1.327 . S
C996 C984 1.349 . S
C996 H990 0.950 . S
C996 C997 1.327 . S
C997 H991 0.950 . S
C997 C996 1.327 . S
C997 C1001 1.429 . S
C998 C981 1.574 . S
C998 H992 0.949 . S
C998 C1002 1.368 . S
C999 C980 1.429 . S
C999 C993 1.429 . S
C999 C1000 1.523 . S
C1000 C981 1.368 . S
C1000 C994 1.368 . S
C1000 C999 1.523 . S
C1001 C985 1.429 . S
C1001 C997 1.429 . S
C1001 C1002 1.523 . S
C1002 C986 1.368 . S
C1002 C998 1.368 . S
C1002 C1001 1.523 . S
H1003 C978 0.950 . S
H1004 C980 0.950 . S
H1005 C981 0.949 . S
H1006 C983 0.950 . S
H1007 C985 0.950 . S
C1008 C1009 1.349 . S
C1008 C1010 1.327 . S
C1008 H1033 0.950 . S
C1009 C1008 1.349 . S
C1009 C1025 1.349 . S
C1010 C1008 1.327 . S
C1010 C1029 1.429 . S
C1010 H1034 0.950 . S
C1011 C1028 1.574 . S
C1011 C1030 1.368 . S
C1011 H1035 0.949 . S
H1012 C1016 0.949 . S
C1013 C1014 1.349 . S
C1013 C1015 1.327 . S
C1013 H1036 0.950 . S
C1014 C1013 1.349 . S
C1014 C1026 1.349 . S
C1015 C1013 1.327 . S
C1015 C1031 1.429 . S
C1015 H1037 0.950 . S
C1016 H1012 0.949 . S
C1016 C1024 1.574 . S
C1016 C1032 1.368 . S
H1017 C1025 0.950 . S
H1018 C1023 0.950 . S
H1019 C1024 0.949 . S
H1020 C1026 0.950 . S
H1021 C1027 0.950 . S
H1022 C1028 0.949 . S
C1023 H1018 0.950 . S
C1023 C1025 1.327 . S
C1023 C1029 1.429 . S
C1024 C1016 1.574 . S
C1024 H1019 0.949 . S
C1024 C1030 1.368 . S
C1025 C1009 1.349 . S
C1025 H1017 0.950 . S
C1025 C1023 1.327 . S
C1026 C1014 1.349 . S
C1026 H1020 0.950 . S
C1026 C1027 1.327 . S
C1027 H1021 0.950 . S
C1027 C1026 1.327 . S
C1027 C1031 1.429 . S
C1028 C1011 1.574 . S
C1028 H1022 0.949 . S
C1028 C1032 1.368 . S
C1029 C1010 1.429 . S
C1029 C1023 1.429 . S
C1029 C1030 1.523 . S
C1030 C1011 1.368 . S
C1030 C1024 1.368 . S
C1030 C1029 1.523 . S
C1031 C1015 1.429 . S
C1031 C1027 1.429 . S
C1031 C1032 1.523 . S
C1032 C1016 1.368 . S
C1032 C1028 1.368 . S
C1032 C1031 1.523 . S
H1033 C1008 0.950 . S
H1034 C1010 0.950 . S
H1035 C1011 0.949 . S
H1036 C1013 0.950 . S
H1037 C1015 0.950 . S
C1038 C1039 1.349 . S
C1038 C1040 1.327 . S
C1038 H1063 0.950 . S
C1039 C1038 1.349 . S
C1039 C1055 1.349 . S
C1040 C1038 1.327 . S
C1040 C1059 1.429 . S
C1040 H1064 0.950 . S
C1041 C1058 1.574 . S
C1041 C1060 1.368 . S
C1041 H1065 0.949 . S
H1042 C1046 0.949 . S
C1043 C1044 1.349 . S
C1043 C1045 1.327 . S
C1043 H1066 0.950 . S
C1044 C1043 1.349 . S
C1044 C1056 1.349 . S
C1045 C1043 1.327 . S
C1045 C1061 1.429 . S
C1045 H1067 0.950 . S
C1046 H1042 0.949 . S
C1046 C1054 1.574 . S
C1046 C1062 1.368 . S
H1047 C1055 0.950 . S
H1048 C1053 0.950 . S
H1049 C1054 0.949 . S
H1050 C1056 0.950 . S
H1051 C1057 0.950 . S
H1052 C1058 0.949 . S
C1053 H1048 0.950 . S
C1053 C1055 1.327 . S
C1053 C1059 1.429 . S
C1054 C1046 1.574 . S
C1054 H1049 0.949 . S
C1054 C1060 1.368 . S
C1055 C1039 1.349 . S
C1055 H1047 0.950 . S
C1055 C1053 1.327 . S
C1056 C1044 1.349 . S
C1056 H1050 0.950 . S
C1056 C1057 1.327 . S
C1057 H1051 0.950 . S
C1057 C1056 1.327 . S
C1057 C1061 1.429 . S
C1058 C1041 1.574 . S
C1058 H1052 0.949 . S
C1058 C1062 1.368 . S
C1059 C1040 1.429 . S
C1059 C1053 1.429 . S
C1059 C1060 1.523 . S
C1060 C1041 1.368 . S
C1060 C1054 1.368 . S
C1060 C1059 1.523 . S
C1061 C1045 1.429 . S
C1061 C1057 1.429 . S
C1061 C1062 1.523 . S
C1062 C1046 1.368 . S
C1062 C1058 1.368 . S
C1062 C1061 1.523 . S
H1063 C1038 0.950 . S
H1064 C1040 0.950 . S
H1065 C1041 0.949 . S
H1066 C1043 0.950 . S
H1067 C1045 0.950 . S
C1068 C1069 1.349 . S
C1068 C1070 1.327 . S
C1068 H1093 0.950 . S
C1069 C1068 1.349 . S
C1069 C1085 1.349 1_554 S
C1070 C1068 1.327 . S
C1070 C1089 1.429 1_554 S
C1070 H1094 0.950 . S
C1071 C1088 1.574 . S
C1071 C1090 1.368 . S
C1071 H1095 0.949 . S
H1072 C1076 0.949 . S
C1073 C1074 1.349 . S
C1073 C1075 1.327 . S
C1073 H1096 0.950 . S
C1074 C1073 1.349 . S
C1074 C1086 1.349 . S
C1075 C1073 1.327 . S
C1075 C1091 1.429 . S
C1075 H1097 0.950 . S
C1076 H1072 0.949 . S
C1076 C1084 1.574 . S
C1076 C1092 1.368 . S
H1077 C1085 0.950 . S
H1078 C1083 0.950 . S
H1079 C1084 0.933 1_554 S
H1080 C1086 0.950 . S
H1081 C1087 0.950 . S
H1082 C1088 0.949 . S
C1083 H1078 0.950 . S
C1083 C1085 1.327 . S
C1083 C1089 1.429 . S
C1084 C1076 1.574 . S
C1084 H1079 0.933 1_556 S
C1084 C1090 1.368 . S
C1085 C1069 1.349 1_556 S
C1085 H1077 0.950 . S
C1085 C1083 1.327 . S
C1086 C1074 1.349 . S
C1086 H1080 0.950 . S
C1086 C1087 1.327 . S
C1087 H1081 0.950 . S
C1087 C1086 1.327 . S
C1087 C1091 1.429 . S
C1088 C1071 1.574 . S
C1088 H1082 0.949 . S
C1088 C1092 1.368 . S
C1089 C1070 1.429 1_556 S
C1089 C1083 1.429 . S
C1089 C1090 1.523 . S
C1090 C1071 1.368 . S
C1090 C1084 1.368 . S
C1090 C1089 1.523 . S
C1091 C1075 1.429 . S
C1091 C1087 1.429 . S
C1091 C1092 1.523 . S
C1092 C1076 1.368 . S
C1092 C1088 1.368 . S
C1092 C1091 1.523 . S
H1093 C1068 0.950 . S
H1094 C1070 0.950 . S
H1095 C1071 0.949 . S
H1096 C1073 0.950 . S
H1097 C1075 0.950 . S
C1098 C1099 1.349 . S
C1098 C1100 1.327 . S
C1098 H1123 0.950 . S
C1099 C1098 1.349 . S
C1099 C1115 1.349 . S
C1100 C1098 1.327 . S
C1100 C1119 1.429 . S
C1100 H1124 0.950 . S
C1101 C1118 1.574 . S
C1101 C1120 1.368 . S
C1101 H1125 0.949 . S
H1102 C1106 0.949 . S
C1103 C1104 1.349 1_554 S
C1103 C1105 1.327 . S
C1103 H1126 0.950 . S
C1104 C1103 1.349 1_556 S
C1104 C1116 1.349 . S
C1105 C1103 1.327 . S
C1105 C1121 1.429 . S
C1105 H1127 0.950 . S
C1106 H1102 0.949 . S
C1106 C1114 1.574 . S
C1106 C1122 1.368 . S
H1107 C1115 0.950 . S
H1108 C1113 0.950 . S
H1109 C1114 0.949 . S
H1110 C1116 0.950 . S
H1111 C1117 0.950 . S
H1112 C1118 0.949 . S
C1113 H1108 0.950 . S
C1113 C1115 1.327 . S
C1113 C1119 1.429 . S
C1114 C1106 1.574 . S
C1114 H1109 0.949 . S
C1114 C1120 1.368 . S
C1115 C1099 1.349 . S
C1115 H1107 0.950 . S
C1115 C1113 1.327 . S
C1116 C1104 1.349 . S
C1116 H1110 0.950 . S
C1116 C1117 1.327 . S
C1117 H1111 0.950 . S
C1117 C1116 1.327 . S
C1117 C1121 1.429 1_556 S
C1118 C1101 1.574 . S
C1118 H1112 0.949 . S
C1118 C1122 1.368 . S
C1119 C1100 1.429 . S
C1119 C1113 1.429 . S
C1119 C1120 1.523 . S
C1120 C1101 1.368 . S
C1120 C1114 1.368 . S
C1120 C1119 1.523 . S
C1121 C1105 1.429 . S
C1121 C1117 1.429 1_554 S
C1121 C1122 1.523 . S
C1122 C1106 1.368 . S
C1122 C1118 1.368 . S
C1122 C1121 1.523 . S
H1123 C1098 0.950 . S
H1124 C1100 0.950 . S
H1125 C1101 0.949 . S
H1126 C1103 0.950 . S
H1127 C1105 0.950 . S
C1128 C1129 1.349 . S
C1128 C1130 1.327 . S
C1128 H1153 0.950 . S
C1129 C1128 1.349 . S
C1129 C1145 1.349 . S
C1130 C1128 1.327 . S
C1130 C1149 1.429 . S
C1130 H1154 0.950 1_554 S
C1131 C1148 1.574 1_545 S
C1131 C1150 1.368 . S
C1131 H1155 0.949 . S
H1132 C1136 0.949 . S
C1133 C1134 1.349 . S
C1133 C1135 1.327 . S
C1133 H1156 0.950 . S
C1134 C1133 1.349 . S
C1134 C1146 1.349 . S
C1135 C1133 1.327 . S
C1135 C1151 1.429 . S
C1135 H1157 0.950 1_556 S
C1136 H1132 0.949 . S
C1136 C1144 1.574 1_565 S
C1136 C1152 1.368 . S
H1137 C1145 0.950 . S
H1138 C1143 0.950 . S
H1139 C1144 0.949 . S
H1140 C1146 0.950 . S
H1141 C1147 0.950 . S
H1142 C1148 0.949 . S
C1143 H1138 0.950 . S
C1143 C1145 1.327 . S
C1143 C1149 1.429 . S
C1144 C1136 1.574 1_545 S
C1144 H1139 0.949 . S
C1144 C1150 1.368 1_556 S
C1145 C1129 1.349 . S
C1145 H1137 0.950 . S
C1145 C1143 1.327 . S
C1146 C1134 1.349 . S
C1146 H1140 0.950 . S
C1146 C1147 1.327 . S
C1147 H1141 0.950 . S
C1147 C1146 1.327 . S
C1147 C1151 1.429 . S
C1148 C1131 1.574 1_565 S
C1148 H1142 0.949 . S
C1148 C1152 1.368 1_554 S
C1149 C1130 1.429 . S
C1149 C1143 1.429 . S
C1149 C1150 1.523 . S
C1150 C1131 1.368 . S
C1150 C1144 1.368 1_554 S
C1150 C1149 1.523 . S
C1151 C1135 1.429 . S
C1151 C1147 1.429 . S
C1151 C1152 1.523 . S
C1152 C1136 1.368 . S
C1152 C1148 1.368 1_556 S
C1152 C1151 1.523 . S
H1153 C1128 0.950 . S
H1154 C1130 0.950 1_556 S
H1155 C1131 0.949 . S
H1156 C1133 0.950 . S
H1157 C1135 0.950 1_554 S
C1158 C1159 1.349 . S
C1158 C1160 1.327 . S
C1158 H1183 0.950 . S
C1159 C1158 1.349 . S
C1159 C1175 1.349 . S
C1160 C1158 1.327 . S
C1160 C1179 1.429 . S
C1160 H1184 0.950 . S
C1161 C1178 1.574 . S
C1161 C1180 1.368 . S
C1161 H1185 0.949 . S
H1162 C1166 0.949 . S
C1163 C1164 1.349 . S
C1163 C1165 1.327 . S
C1163 H1186 0.950 . S
C1164 C1163 1.349 . S
C1164 C1176 1.349 . S
C1165 C1163 1.327 . S
C1165 C1181 1.429 . S
C1165 H1187 0.950 . S
C1166 H1162 0.949 . S
C1166 C1174 1.574 . S
C1166 C1182 1.368 . S
H1167 C1175 0.950 . S
H1168 C1173 0.950 . S
H1169 C1174 0.949 . S
H1170 C1176 0.950 . S
H1171 C1177 0.950 . S
H1172 C1178 0.949 . S
C1173 H1168 0.950 . S
C1173 C1175 1.327 . S
C1173 C1179 1.429 . S
C1174 C1166 1.574 . S
C1174 H1169 0.949 . S
C1174 C1180 1.368 . S
C1175 C1159 1.349 . S
C1175 H1167 0.950 . S
C1175 C1173 1.327 . S
C1176 C1164 1.349 . S
C1176 H1170 0.950 . S
C1176 C1177 1.327 . S
C1177 H1171 0.950 . S
C1177 C1176 1.327 . S
C1177 C1181 1.429 . S
C1178 C1161 1.574 . S
C1178 H1172 0.949 . S
C1178 C1182 1.368 . S
C1179 C1160 1.429 . S
C1179 C1173 1.429 . S
C1179 C1180 1.523 . S
C1180 C1161 1.368 . S
C1180 C1174 1.368 . S
C1180 C1179 1.523 . S
C1181 C1165 1.429 . S
C1181 C1177 1.429 . S
C1181 C1182 1.523 . S
C1182 C1166 1.368 . S
C1182 C1178 1.368 . S
C1182 C1181 1.523 . S
H1183 C1158 0.950 . S
H1184 C1160 0.950 . S
H1185 C1161 0.949 . S
H1186 C1163 0.950 . S
H1187 C1165 0.950 . S
C1188 C1189 1.349 . S
C1188 C1190 1.327 . S
C1188 H1213 0.950 . S
C1189 C1188 1.349 . S
C1189 C1205 1.349 . S
C1190 C1188 1.327 . S
C1190 C1209 1.429 . S
C1190 H1214 0.950 . S
C1191 C1208 1.574 1_455 S
C1191 C1210 1.368 . S
C1191 H1215 0.949 . S
H1192 C1196 0.949 . S
C1193 C1194 1.349 . S
C1193 C1195 1.327 . S
C1193 H1216 0.950 . S
C1194 C1193 1.349 . S
C1194 C1206 1.349 . S
C1195 C1193 1.327 . S
C1195 C1211 1.429 . S
C1195 H1217 0.950 . S
C1196 H1192 0.949 . S
C1196 C1204 1.574 1_655 S
C1196 C1212 1.368 . S
H1197 C1205 0.950 . S
H1198 C1203 0.950 . S
H1199 C1204 0.949 . S
H1200 C1206 0.950 . S
H1201 C1207 0.950 . S
H1202 C1208 0.949 . S
C1203 H1198 0.950 . S
C1203 C1205 1.327 . S
C1203 C1209 1.429 . S
C1204 C1196 1.574 1_455 S
C1204 H1199 0.949 . S
C1204 C1210 1.368 . S
C1205 C1189 1.349 . S
C1205 H1197 0.950 . S
C1205 C1203 1.327 . S
C1206 C1194 1.349 . S
C1206 H1200 0.950 . S
C1206 C1207 1.327 . S
C1207 H1201 0.950 . S
C1207 C1206 1.327 . S
C1207 C1211 1.429 . S
C1208 C1191 1.574 1_655 S
C1208 H1202 0.949 . S
C1208 C1212 1.368 . S
C1209 C1190 1.429 . S
C1209 C1203 1.429 . S
C1209 C1210 1.523 . S
C1210 C1191 1.368 . S
C1210 C1204 1.368 . S
C1210 C1209 1.523 . S
C1211 C1195 1.429 . S
C1211 C1207 1.429 . S
C1211 C1212 1.523 . S
C1212 C1196 1.368 . S
C1212 C1208 1.368 . S
C1212 C1211 1.523 . S
H1213 C1188 0.950 . S
H1214 C1190 0.950 . S
H1215 C1191 0.949 . S
H1216 C1193 0.950 . S
H1217 C1195 0.950 . S
C1218 C1219 1.349 . S
C1218 C1220 1.327 . S
C1218 H1243 0.950 . S
C1219 C1218 1.349 . S
C1219 C1235 1.349 . S
C1220 C1218 1.327 . S
C1220 C1239 1.429 . S
C1220 H1244 0.950 . S
C1221 C1238 1.574 1_565 S
C1221 C1240 1.368 . S
C1221 H1245 0.949 . S
H1222 C1226 0.949 . S
C1223 C1224 1.349 . S
C1223 C1225 1.327 . S
C1223 H1246 0.950 . S
C1224 C1223 1.349 . S
C1224 C1236 1.349 . S
C1225 C1223 1.327 . S
C1225 C1241 1.429 . S
C1225 H1247 0.950 . S
C1226 H1222 0.949 . S
C1226 C1234 1.574 1_545 S
C1226 C1242 1.368 . S
H1227 C1235 0.950 . S
H1228 C1233 0.950 . S
H1229 C1234 0.949 . S
H1230 C1236 0.950 . S
H1231 C1237 0.950 . S
H1232 C1238 0.949 . S
C1233 H1228 0.950 . S
C1233 C1235 1.327 . S
C1233 C1239 1.429 . S
C1234 C1226 1.574 1_565 S
C1234 H1229 0.949 . S
C1234 C1240 1.368 . S
C1235 C1219 1.349 . S
C1235 H1227 0.950 . S
C1235 C1233 1.327 . S
C1236 C1224 1.349 . S
C1236 H1230 0.950 . S
C1236 C1237 1.327 . S
C1237 H1231 0.950 . S
C1237 C1236 1.327 . S
C1237 C1241 1.429 . S
C1238 C1221 1.574 1_545 S
C1238 H1232 0.949 . S
C1238 C1242 1.368 . S
C1239 C1220 1.429 . S
C1239 C1233 1.429 . S
C1239 C1240 1.523 . S
C1240 C1221 1.368 . S
C1240 C1234 1.368 . S
C1240 C1239 1.523 . S
C1241 C1225 1.429 . S
C1241 C1237 1.429 . S
C1241 C1242 1.523 . S
C1242 C1226 1.368 . S
C1242 C1238 1.368 . S
C1242 C1241 1.523 . S
H1243 C1218 0.950 . S
H1244 C1220 0.950 . S
H1245 C1221 0.949 . S
H1246 C1223 0.950 . S
H1247 C1225 0.950 . S
C1248 C1249 1.349 . S
C1248 C1250 1.327 . S
C1248 H1273 0.950 . S
C1249 C1248 1.349 . S
C1249 C1265 1.349 . S
C1250 C1248 1.327 . S
C1250 C1269 1.429 . S
C1250 H1274 0.950 . S
C1251 C1268 1.574 . S
C1251 C1270 1.368 . S
C1251 H1275 0.949 . S
H1252 C1256 0.949 . S
C1253 C1254 1.349 . S
C1253 C1255 1.327 . S
C1253 H1276 0.950 . S
C1254 C1253 1.349 . S
C1254 C1266 1.349 . S
C1255 C1253 1.327 . S
C1255 C1271 1.429 . S
C1255 H1277 0.950 . S
C1256 H1252 0.949 . S
C1256 C1264 1.574 . S
C1256 C1272 1.368 . S
H1257 C1265 0.950 . S
H1258 C1263 0.950 . S
H1259 C1264 0.949 . S
H1260 C1266 0.950 . S
H1261 C1267 0.950 . S
H1262 C1268 0.949 . S
C1263 H1258 0.950 . S
C1263 C1265 1.327 . S
C1263 C1269 1.429 . S
C1264 C1256 1.574 . S
C1264 H1259 0.949 . S
C1264 C1270 1.368 . S
C1265 C1249 1.349 . S
C1265 H1257 0.950 . S
C1265 C1263 1.327 . S
C1266 C1254 1.349 . S
C1266 H1260 0.950 . S
C1266 C1267 1.327 . S
C1267 H1261 0.950 . S
C1267 C1266 1.327 . S
C1267 C1271 1.429 . S
C1268 C1251 1.574 . S
C1268 H1262 0.949 . S
C1268 C1272 1.368 . S
C1269 C1250 1.429 . S
C1269 C1263 1.429 . S
C1269 C1270 1.523 . S
C1270 C1251 1.368 . S
C1270 C1264 1.368 . S
C1270 C1269 1.523 . S
C1271 C1255 1.429 . S
C1271 C1267 1.429 . S
C1271 C1272 1.523 . S
C1272 C1256 1.368 . S
C1272 C1268 1.368 . S
C1272 C1271 1.523 . S
H1273 C1248 0.950 . S
H1274 C1250 0.950 . S
H1275 C1251 0.949 . S
H1276 C1253 0.950 . S
H1277 C1255 0.950 . S
C1278 C1279 1.349 . S
C1278 C1280 1.327 . S
C1278 H1303 0.950 . S
C1279 C1278 1.349 . S
C1279 C1295 1.349 . S
C1280 C1278 1.327 . S
C1280 C1299 1.429 . S
C1280 H1304 0.950 . S
C1281 C1298 1.574 1_455 S
C1281 C1300 1.368 . S
C1281 H1305 0.949 . S
H1282 C1286 0.949 . S
C1283 C1284 1.349 . S
C1283 C1285 1.327 . S
C1283 H1306 0.950 . S
C1284 C1283 1.349 . S
C1284 C1296 1.349 . S
C1285 C1283 1.327 . S
C1285 C1301 1.429 . S
C1285 H1307 0.950 . S
C1286 H1282 0.949 . S
C1286 C1294 1.574 1_655 S
C1286 C1302 1.368 . S
H1287 C1295 0.950 . S
H1288 C1293 0.950 . S
H1289 C1294 0.949 . S
H1290 C1296 0.950 . S
H1291 C1297 0.950 . S
H1292 C1298 0.949 . S
C1293 H1288 0.950 . S
C1293 C1295 1.327 . S
C1293 C1299 1.429 . S
C1294 C1286 1.574 1_455 S
C1294 H1289 0.949 . S
C1294 C1300 1.368 . S
C1295 C1279 1.349 . S
C1295 H1287 0.950 . S
C1295 C1293 1.327 . S
C1296 C1284 1.349 . S
C1296 H1290 0.950 . S
C1296 C1297 1.327 . S
C1297 H1291 0.950 . S
C1297 C1296 1.327 . S
C1297 C1301 1.429 . S
C1298 C1281 1.574 1_655 S
C1298 H1292 0.949 . S
C1298 C1302 1.368 . S
C1299 C1280 1.429 . S
C1299 C1293 1.429 . S
C1299 C1300 1.523 . S
C1300 C1281 1.368 . S
C1300 C1294 1.368 . S
C1300 C1299 1.523 . S
C1301 C1285 1.429 . S
C1301 C1297 1.429 . S
C1301 C1302 1.523 . S
C1302 C1286 1.368 . S
C1302 C1298 1.368 . S
C1302 C1301 1.523 . S
H1303 C1278 0.950 . S
H1304 C1280 0.950 . S
H1305 C1281 0.949 . S
H1306 C1283 0.950 . S
H1307 C1285 0.950 . S
C409 C292 1.514 . S
C414 C20 1.514 . S
C439 C326 1.514 . S
C444 C54 1.514 . S
C469 C360 1.514 . S
C474 C88 1.514 . S
C499 C394 1.514 . S
C504 C122 1.514 . S
C529 C156 1.514 . S
C534 C224 1.514 . S
C559 C258 1.514 . S
C564 C190 1.514 . S
C589 C9 1.125 . S
C594 C5 1.150 . S
C619 C39 1.150 . S
C624 C43 1.125 1_556 S
C649 C73 1.150 . S
C654 C77 1.125 . S
C679 C107 1.150 . S
C684 C111 1.125 . S
C709 C141 1.150 . S
C714 C145 1.125 . S
C739 C175 1.150 . S
C744 C179 1.125 . S
C769 C213 1.125 1_554 S
C774 C209 1.150 . S
C799 C243 1.150 . S
C804 C247 1.125 . S
C829 C281 1.125 . S
C834 C277 1.150 . S
C859 C315 1.125 . S
C864 C311 1.150 . S
C889 C349 1.125 . S
C894 C345 1.150 . S
C919 C379 1.150 . S
C924 C383 1.125 . S
C949 C33 1.598 . S
C954 C373 1.598 . S
C979 C67 1.598 . S
C984 C407 1.598 . S
C1009 C101 1.598 . S
C1014 C237 1.598 . S
C1039 C271 1.598 . S
C1044 C135 1.598 . S
C1069 C305 1.598 . S
C1074 C169 1.598 . S
C1099 C339 1.598 . S
C1104 C203 1.598 . S
C1129 C2 1.550 . S
C1134 C240 1.550 . S
C1159 C274 1.550 . S
C1164 C36 1.550 . S
C1189 C308 1.550 . S
C1194 C70 1.550 . S
C1219 C104 1.550 . S
C1224 C342 1.550 . S
C1249 C376 1.550 . S
C1254 C138 1.550 . S
C1279 C172 1.550 . S
C1284 C206 1.550 . S
