# Generated by pormake.
# Topology fnr, (5)-cn, num edge types: 1
# Building blocks:
#     Node 0, Type 0, BuildingBlock: BEQFEK_clean_sbu_0, # of connection points: 5
#     Node 1, Type 0, BuildingBlock: BEQFEK_clean_sbu_0, # of connection points: 5
#     Node 2, Type 0, BuildingBlock: BEQFEK_clean_sbu_0, # of connection points: 5
#     Node 3, Type 0, BuildingBlock: BEQFEK_clean_sbu_0, # of connection points: 5
#     Node 4, Type 0, BuildingBlock: BEQFEK_clean_sbu_0, # of connection points: 5
#     Node 5, Type 0, BuildingBlock: BEQFEK_clean_sbu_0, # of connection points: 5
#     Node 6, Type 0, BuildingBlock: BEQFEK_clean_sbu_0, # of connection points: 5
#     Node 7, Type 0, BuildingBlock: BEQFEK_clean_sbu_0, # of connection points: 5
#     Node 8, Type 0, BuildingBlock: BEQFEK_clean_sbu_0, # of connection points: 5
#     Node 9, Type 0, BuildingBlock: BEQFEK_clean_sbu_0, # of connection points: 5
#     Node 10, Type 0, BuildingBlock: BEQFEK_clean_sbu_0, # of connection points: 5
#     Node 11, Type 0, BuildingBlock: BEQFEK_clean_sbu_0, # of connection points: 5
#     Edge 12, Type (0, 0), BuildingBlock: UVAHIK_clean_linker_0, # of connection points: 2
#     Edge 13, Type (0, 0), BuildingBlock: UVAHIK_clean_linker_0, # of connection points: 2
#     Edge 14, Type (0, 0), BuildingBlock: UVAHIK_clean_linker_0, # of connection points: 2
#     Edge 15, Type (0, 0), BuildingBlock: UVAHIK_clean_linker_0, # of connection points: 2
#     Edge 16, Type (0, 0), BuildingBlock: UVAHIK_clean_linker_0, # of connection points: 2
#     Edge 17, Type (0, 0), BuildingBlock: UVAHIK_clean_linker_0, # of connection points: 2
#     Edge 18, Type (0, 0), BuildingBlock: UVAHIK_clean_linker_0, # of connection points: 2
#     Edge 19, Type (0, 0), BuildingBlock: UVAHIK_clean_linker_0, # of connection points: 2
#     Edge 20, Type (0, 0), BuildingBlock: UVAHIK_clean_linker_0, # of connection points: 2
#     Edge 21, Type (0, 0), BuildingBlock: UVAHIK_clean_linker_0, # of connection points: 2
#     Edge 22, Type (0, 0), BuildingBlock: UVAHIK_clean_linker_0, # of connection points: 2
#     Edge 23, Type (0, 0), BuildingBlock: UVAHIK_clean_linker_0, # of connection points: 2
#     Edge 24, Type (0, 0), BuildingBlock: UVAHIK_clean_linker_0, # of connection points: 2
#     Edge 25, Type (0, 0), BuildingBlock: UVAHIK_clean_linker_0, # of connection points: 2
#     Edge 26, Type (0, 0), BuildingBlock: UVAHIK_clean_linker_0, # of connection points: 2
#     Edge 27, Type (0, 0), BuildingBlock: UVAHIK_clean_linker_0, # of connection points: 2
#     Edge 28, Type (0, 0), BuildingBlock: UVAHIK_clean_linker_0, # of connection points: 2
#     Edge 29, Type (0, 0), BuildingBlock: UVAHIK_clean_linker_0, # of connection points: 2
#     Edge 30, Type (0, 0), BuildingBlock: UVAHIK_clean_linker_0, # of connection points: 2
#     Edge 31, Type (0, 0), BuildingBlock: UVAHIK_clean_linker_0, # of connection points: 2
#     Edge 32, Type (0, 0), BuildingBlock: UVAHIK_clean_linker_0, # of connection points: 2
#     Edge 33, Type (0, 0), BuildingBlock: UVAHIK_clean_linker_0, # of connection points: 2
#     Edge 34, Type (0, 0), BuildingBlock: UVAHIK_clean_linker_0, # of connection points: 2
#     Edge 35, Type (0, 0), BuildingBlock: UVAHIK_clean_linker_0, # of connection points: 2
#     Edge 36, Type (0, 0), BuildingBlock: UVAHIK_clean_linker_0, # of connection points: 2
#     Edge 37, Type (0, 0), BuildingBlock: UVAHIK_clean_linker_0, # of connection points: 2
#     Edge 38, Type (0, 0), BuildingBlock: UVAHIK_clean_linker_0, # of connection points: 2
#     Edge 39, Type (0, 0), BuildingBlock: UVAHIK_clean_linker_0, # of connection points: 2
#     Edge 40, Type (0, 0), BuildingBlock: UVAHIK_clean_linker_0, # of connection points: 2
#     Edge 41, Type (0, 0), BuildingBlock: UVAHIK_clean_linker_0, # of connection points: 2
# Relax obj value: 0.136
# Max RMSD: 0.110
# Mean RMSD: 0.110
data_MOF--net-fnr--node1-BEQFEK_clean_sbu_0--edge1-UVAHIK_clean_linker_0
_symmetry_space_group_name_H-M    P1
_symmetry_Int_Tables_number       1
_symmetry_cell_setting            triclinic
loop_
_symmetry_equiv_pos_as_xyz
'x, y, z'
_cell_length_a     56.105246
_cell_length_b     56.129226
_cell_length_c     60.854045
_cell_angle_alpha  90.004436
_cell_angle_beta   89.97899
_cell_angle_gamma 120.01341
loop_
_atom_site_label
_atom_site_type_symbol
_atom_site_fract_x
_atom_site_fract_y
_atom_site_fract_z
_atom_type_partial_charge
Co0 Co 0.44804 0.26187 0.09835 0.0
Co1 Co 0.40142 0.20049 0.0904 0.0
C2 C 0.45982 0.2172 0.08317 0.0
O3 O 0.46679 0.24145 0.08939 0.0
O4 O 0.43461 0.19862 0.08204 0.0
C5 C 0.49333 0.30819 0.08067 0.0
O6 O 0.48854 0.28959 0.06558 0.0
C7 C 0.36626 0.14864 0.0673 0.0
C8 C 0.32933 0.12894 0.08851 0.0
C9 C 0.34062 0.12509 0.06952 0.0
N10 N 0.36974 0.16565 0.0841 0.0
N11 N 0.34758 0.1538 0.09669 0.0
C12 C 0.38843 0.15413 0.051 0.0
H13 H 0.40473 0.15182 0.05934 0.0
H14 H 0.39792 0.17568 0.04507 0.0
H15 H 0.38085 0.13975 0.03691 0.0
C16 C 0.41207 0.27208 0.06909 0.0
N17 N 0.41871 0.25485 0.0792 0.0
N18 N 0.39939 0.22927 0.07539 0.0
C19 C 0.37996 0.22946 0.06243 0.0
C20 C 0.38735 0.2566 0.05807 0.0
C21 C 0.42905 0.30279 0.07032 0.0
H22 H 0.43463 0.30923 0.08768 0.0
H23 H 0.44836 0.3097 0.06095 0.0
H24 H 0.41822 0.31298 0.06329 0.0
O25 O 0.43386 0.25041 0.12864 0.0
O26 O 0.40272 0.20639 0.12278 0.0
H27 H 0.34252 0.19305 0.07103 0.0
H28 H 0.3402 0.20939 0.04621 0.0
C29 C 0.3537 0.20427 0.05602 0.0
H30 H 0.3585 0.1905 0.04628 0.0
H31 H 0.34508 0.16254 0.111 0.0
O32 O 0.47726 0.30144 0.09716 0.0
C33 C 0.41588 0.22674 0.13574 0.0
Co34 Co 0.1878 0.44522 0.59792 0.0
Co35 Co 0.20309 0.3991 0.58909 0.0
C36 C 0.24432 0.45815 0.58251 0.0
O37 O 0.22683 0.46511 0.5882 0.0
O38 O 0.23802 0.43302 0.58189 0.0
C39 C 0.18168 0.48836 0.58111 0.0
O40 O 0.19243 0.48299 0.56395 0.0
C41 C 0.22562 0.36567 0.5705 0.0
C42 C 0.193 0.32358 0.5791 0.0
C43 C 0.21768 0.33804 0.56784 0.0
N44 N 0.20603 0.36728 0.58211 0.0
N45 N 0.1869 0.34205 0.58756 0.0
C46 C 0.25245 0.39026 0.56413 0.0
H47 H 0.2605 0.40481 0.57812 0.0
H48 H 0.24914 0.40083 0.55005 0.0
H49 H 0.2682 0.38464 0.55984 0.0
C50 C 0.14163 0.40962 0.56844 0.0
N51 N 0.16549 0.41619 0.57855 0.0
N52 N 0.17261 0.39774 0.57359 0.0
C53 C 0.15395 0.37953 0.55929 0.0
C54 C 0.13365 0.38633 0.55579 0.0
C55 C 0.12641 0.425 0.57128 0.0
H56 H 0.12828 0.43223 0.58849 0.0
H57 H 0.13555 0.44316 0.56025 0.0
H58 H 0.10434 0.41211 0.56695 0.0
O59 O 0.18551 0.43047 0.62784 0.0
O60 O 0.19756 0.39883 0.62151 0.0
H61 H 0.14539 0.33808 0.56182 0.0
H62 H 0.14252 0.34819 0.53444 0.0
C63 C 0.15463 0.35526 0.54986 0.0
H64 H 0.17615 0.3606 0.54647 0.0
H65 H 0.16934 0.33741 0.59667 0.0
O66 O 0.17666 0.47369 0.59828 0.0
C67 C 0.19056 0.41197 0.63466 0.0
Co68 Co 0.74272 0.18687 0.09377 0.0
Co69 Co 0.80364 0.19937 0.0883 0.0
C70 C 0.78823 0.24211 0.07879 0.0
O71 O 0.76321 0.22514 0.08322 0.0
O72 O 0.80664 0.23526 0.08019 0.0
C73 C 0.69562 0.18371 0.07527 0.0
O74 O 0.71309 0.1946 0.0589 0.0
C75 C 0.85629 0.21729 0.06638 0.0
C76 C 0.87322 0.19499 0.08453 0.0
C77 C 0.8787 0.21329 0.06741 0.0
N78 N 0.83836 0.20216 0.0822 0.0
N79 N 0.84867 0.18899 0.0931 0.0
C80 C 0.85105 0.23378 0.04976 0.0
H81 H 0.82873 0.22359 0.04597 0.0
H82 H 0.8628 0.23633 0.03442 0.0
H83 H 0.85755 0.25444 0.05668 0.0
C84 C 0.73195 0.13928 0.06582 0.0
N85 N 0.7493 0.16326 0.07575 0.0
N86 N 0.77479 0.16862 0.07299 0.0
C87 C 0.77442 0.14814 0.06104 0.0
C88 C 0.74723 0.12879 0.05617 0.0
C89 C 0.70128 0.1268 0.06569 0.0
H90 H 0.69586 0.13954 0.05525 0.0
H91 H 0.69055 0.10565 0.05894 0.0
H92 H 0.69386 0.12669 0.08261 0.0
O93 O 0.75401 0.18579 0.12458 0.0
O94 O 0.79702 0.19437 0.12049 0.0
H95 H 0.79442 0.12727 0.04658 0.0
H96 H 0.81491 0.16439 0.04775 0.0
C97 C 0.79934 0.14572 0.05652 0.0
H98 H 0.80836 0.14433 0.07233 0.0
H99 H 0.83883 0.17571 0.10624 0.0
O100 O 0.70347 0.1772 0.09274 0.0
C101 C 0.77653 0.18933 0.13271 0.0
Co102 Co 0.55595 0.74611 0.59418 0.0
Co103 Co 0.60485 0.80691 0.58678 0.0
C104 C 0.54653 0.79218 0.57966 0.0
O105 O 0.5382 0.76731 0.58487 0.0
O106 O 0.57202 0.81005 0.57951 0.0
C107 C 0.50977 0.70013 0.57685 0.0
O108 O 0.51489 0.71846 0.56143 0.0
C109 C 0.63996 0.86276 0.56865 0.0
C110 C 0.68167 0.87058 0.5766 0.0
C111 C 0.66778 0.88163 0.56563 0.0
N112 N 0.63763 0.84118 0.58013 0.0
N113 N 0.66266 0.8463 0.58521 0.0
C114 C 0.61595 0.86619 0.5627 0.0
H115 H 0.60191 0.86059 0.57699 0.0
H116 H 0.6045 0.85224 0.54887 0.0
H117 H 0.62238 0.88772 0.55822 0.0
C118 C 0.58995 0.73408 0.56409 0.0
N119 N 0.58488 0.75202 0.5749 0.0
N120 N 0.60483 0.7773 0.57092 0.0
C121 C 0.62292 0.77611 0.55693 0.0
C122 C 0.61422 0.74871 0.55229 0.0
C123 C 0.57319 0.7035 0.5667 0.0
H124 H 0.56554 0.69822 0.58381 0.0
H125 H 0.5552 0.69539 0.5555 0.0
H126 H 0.58536 0.69345 0.56265 0.0
O127 O 0.57014 0.75754 0.62449 0.0
O128 O 0.60415 0.80049 0.61907 0.0
H129 H 0.66501 0.80776 0.55931 0.0
H130 H 0.65404 0.7953 0.53184 0.0
C131 C 0.64769 0.80061 0.54753 0.0
H132 H 0.64324 0.81746 0.54452 0.0
H133 H 0.66678 0.83288 0.59411 0.0
O134 O 0.52585 0.70692 0.59332 0.0
C135 C 0.5895 0.78035 0.63187 0.0
Co136 Co 0.81387 0.55508 0.09378 0.0
Co137 Co 0.80325 0.60495 0.08885 0.0
C138 C 0.75866 0.54702 0.0806 0.0
O139 O 0.77496 0.53803 0.08464 0.0
O140 O 0.76672 0.57257 0.08162 0.0
C141 C 0.81227 0.5081 0.07631 0.0
O142 O 0.79824 0.51289 0.06141 0.0
C143 C 0.79115 0.6428 0.06447 0.0
C144 C 0.80021 0.67518 0.08906 0.0
C145 C 0.79059 0.66704 0.06782 0.0
N146 N 0.80071 0.63707 0.08282 0.0
N147 N 0.80627 0.65661 0.0974 0.0
C148 C 0.78101 0.62423 0.04486 0.0
H149 H 0.77849 0.60382 0.0487 0.0
H150 H 0.79627 0.63335 0.03137 0.0
H151 H 0.7612 0.62189 0.03902 0.0
C152 C 0.86055 0.5904 0.06443 0.0
N153 N 0.83721 0.58473 0.07503 0.0
N154 N 0.83316 0.60581 0.07311 0.0
C155 C 0.85417 0.62582 0.06152 0.0
C156 C 0.87222 0.6167 0.05555 0.0
C157 C 0.87135 0.57086 0.06304 0.0
H158 H 0.87528 0.56595 0.07984 0.0
H159 H 0.85558 0.55147 0.05529 0.0
H160 H 0.89038 0.57915 0.05306 0.0
O161 O 0.81672 0.56837 0.12471 0.0
O162 O 0.80904 0.60341 0.1208 0.0
H163 H 0.85393 0.6613 0.07431 0.0
H164 H 0.88029 0.66915 0.05403 0.0
C165 C 0.85874 0.65431 0.05875 0.0
H166 H 0.84479 0.65415 0.04578 0.0
H167 H 0.81355 0.65692 0.11322 0.0
O168 O 0.82275 0.52478 0.09232 0.0
C169 C 0.81399 0.58784 0.13291 0.0
Co170 Co 0.2592 0.8138 0.59729 0.0
Co171 Co 0.1978 0.79942 0.59034 0.0
C172 C 0.21382 0.75686 0.58434 0.0
O173 O 0.23839 0.77439 0.58959 0.0
O174 O 0.1953 0.76358 0.58328 0.0
C175 C 0.30509 0.81402 0.57952 0.0
O176 O 0.28611 0.79934 0.56491 0.0
C177 C 0.14578 0.78155 0.56739 0.0
C178 C 0.12691 0.80124 0.5866 0.0
C179 C 0.12257 0.78434 0.56864 0.0
N180 N 0.16287 0.79595 0.5839 0.0
N181 N 0.15145 0.80761 0.59538 0.0
C182 C 0.15282 0.7673 0.54995 0.0
H183 H 0.17549 0.7774 0.54796 0.0
H184 H 0.14328 0.7675 0.53402 0.0
H185 H 0.14501 0.74562 0.55493 0.0
C186 C 0.26907 0.85907 0.56729 0.0
N187 N 0.25188 0.83545 0.57772 0.0
N188 N 0.22629 0.82936 0.57424 0.0
C189 C 0.22645 0.84889 0.56116 0.0
C190 C 0.25357 0.86833 0.55637 0.0
C191 C 0.2998 0.87305 0.56865 0.0
H192 H 0.30616 0.87414 0.58605 0.0
H193 H 0.30692 0.8607 0.55947 0.0
H194 H 0.30985 0.89403 0.5615 0.0
O195 O 0.24851 0.81748 0.62751 0.0
O196 O 0.20468 0.80592 0.62264 0.0
H197 H 0.19121 0.85169 0.57046 0.0
H198 H 0.20653 0.86855 0.54477 0.0
C199 C 0.20138 0.85042 0.55524 0.0
H200 H 0.18669 0.83144 0.54635 0.0
H201 H 0.16047 0.82003 0.60911 0.0
O202 O 0.29868 0.82404 0.59572 0.0
C203 C 0.22543 0.81295 0.63516 0.0
Co204 Co 0.74223 0.55532 0.40469 0.0
Co205 Co 0.80306 0.60297 0.41254 0.0
C206 C 0.78687 0.54472 0.42128 0.0
O207 O 0.76238 0.53711 0.41531 0.0
O208 O 0.80529 0.57002 0.42138 0.0
C209 C 0.6947 0.51281 0.42356 0.0
O210 O 0.71166 0.52117 0.44038 0.0
C211 C 0.85521 0.6375 0.43537 0.0
C212 C 0.8732 0.67636 0.41661 0.0
C213 C 0.87816 0.66367 0.43415 0.0
N214 N 0.83769 0.6348 0.41921 0.0
N215 N 0.84858 0.65809 0.40802 0.0
C216 C 0.84883 0.61606 0.45257 0.0
H217 H 0.82628 0.60379 0.45532 0.0
H218 H 0.85928 0.62561 0.46828 0.0
H219 H 0.85604 0.60197 0.44682 0.0
C220 C 0.73067 0.5915 0.43289 0.0
N221 N 0.74828 0.58512 0.42306 0.0
N222 N 0.77371 0.60482 0.42688 0.0
C223 C 0.77301 0.62426 0.43951 0.0
C224 C 0.7457 0.61641 0.44377 0.0
C225 C 0.70007 0.57551 0.43005 0.0
H226 H 0.69474 0.56583 0.41356 0.0
H227 H 0.69106 0.5591 0.4427 0.0
H228 H 0.69093 0.58893 0.43204 0.0
O229 O 0.75457 0.56835 0.37426 0.0
O230 O 0.79786 0.6014 0.38002 0.0
H231 H 0.80826 0.66352 0.43306 0.0
H232 H 0.79277 0.66098 0.45966 0.0
C233 C 0.79802 0.64982 0.4473 0.0
H234 H 0.81269 0.64435 0.45471 0.0
H235 H 0.83918 0.66152 0.39456 0.0
O236 O 0.70301 0.52556 0.40538 0.0
C237 C 0.77791 0.58691 0.36702 0.0
Co238 Co 0.1927 0.74513 0.90842 0.0
Co239 Co 0.20491 0.80593 0.91375 0.0
C240 C 0.2481 0.79096 0.92279 0.0
O241 O 0.23131 0.76584 0.91852 0.0
O242 O 0.24085 0.80906 0.92153 0.0
C243 C 0.18874 0.69788 0.92747 0.0
O244 O 0.19855 0.71511 0.94407 0.0
C245 C 0.22207 0.8579 0.93633 0.0
C246 C 0.20296 0.87678 0.91644 0.0
C247 C 0.21949 0.88119 0.93467 0.0
N248 N 0.20795 0.84073 0.9198 0.0
N249 N 0.1966 0.85213 0.90792 0.0
C250 C 0.2358 0.85081 0.95419 0.0
H251 H 0.22552 0.82815 0.95626 0.0
H252 H 0.23527 0.86042 0.96998 0.0
H253 H 0.25759 0.85845 0.94958 0.0
C254 C 0.14572 0.73456 0.93735 0.0
N255 N 0.1693 0.75177 0.9268 0.0
N256 N 0.17458 0.77725 0.92938 0.0
C257 C 0.15443 0.777 0.9417 0.0
C258 C 0.13557 0.74996 0.94722 0.0
C259 C 0.13169 0.70384 0.93612 0.0
H260 H 0.13477 0.69738 0.91964 0.0
H261 H 0.14076 0.69633 0.94861 0.0
H262 H 0.1093 0.69428 0.93941 0.0
O263 O 0.19096 0.75612 0.8776 0.0
O264 O 0.19928 0.79903 0.88167 0.0
H265 H 0.1508 0.8118 0.93255 0.0
H266 H 0.13562 0.79724 0.95894 0.0
C267 C 0.15305 0.80213 0.94771 0.0
H268 H 0.17248 0.81714 0.95588 0.0
H269 H 0.18448 0.84307 0.89404 0.0
O270 O 0.18322 0.70595 0.90964 0.0
C271 C 0.19413 0.77851 0.86948 0.0
Co272 Co 0.44781 0.18562 0.40527 0.0
Co273 Co 0.40169 0.20042 0.41507 0.0
C274 C 0.46022 0.24181 0.42186 0.0
O275 O 0.46698 0.22447 0.4153 0.0
O276 O 0.43507 0.23538 0.42317 0.0
C277 C 0.48999 0.17975 0.42348 0.0
O278 O 0.48206 0.18861 0.44041 0.0
C279 C 0.36755 0.21911 0.4374 0.0
C280 C 0.32696 0.19345 0.42178 0.0
C281 C 0.34056 0.2136 0.43752 0.0
N282 N 0.36988 0.20299 0.42222 0.0
N283 N 0.34558 0.18784 0.41283 0.0
C284 C 0.39026 0.23778 0.45256 0.0
H285 H 0.40368 0.25753 0.44402 0.0
H286 H 0.40293 0.22839 0.457 0.0
H287 H 0.38202 0.24202 0.46773 0.0
C288 C 0.41162 0.13809 0.43365 0.0
N289 N 0.41858 0.16249 0.42431 0.0
N290 N 0.40004 0.16939 0.42947 0.0
C291 C 0.38118 0.14995 0.44292 0.0
C292 C 0.38786 0.12947 0.44589 0.0
C293 C 0.42701 0.12295 0.43039 0.0
H294 H 0.43541 0.12629 0.41346 0.0
H295 H 0.44441 0.13095 0.44217 0.0
H296 H 0.41372 0.1006 0.43343 0.0
O297 O 0.43348 0.18414 0.37528 0.0
O298 O 0.40221 0.19646 0.38252 0.0
H299 H 0.34155 0.14551 0.43771 0.0
H300 H 0.34564 0.13403 0.46434 0.0
C301 C 0.35615 0.14989 0.45145 0.0
H302 H 0.36202 0.17041 0.45829 0.0
H303 H 0.34163 0.17336 0.40053 0.0
O304 O 0.4771 0.17552 0.4054 0.0
C305 C 0.41527 0.18987 0.36891 0.0
Co306 Co 0.26219 0.4459 0.90334 0.0
Co307 Co 0.20105 0.40103 0.91461 0.0
C308 C 0.21982 0.45998 0.92086 0.0
O309 O 0.2434 0.46593 0.91349 0.0
O310 O 0.20079 0.43506 0.92295 0.0
C311 C 0.3111 0.48732 0.92098 0.0
O312 O 0.2947 0.47967 0.93816 0.0
C313 C 0.14494 0.36745 0.93304 0.0
C314 C 0.13659 0.32533 0.92613 0.0
C315 C 0.12569 0.3398 0.93642 0.0
N316 N 0.16652 0.36909 0.92201 0.0
N317 N 0.16108 0.34382 0.91754 0.0
C318 C 0.14185 0.39189 0.93798 0.0
H319 H 0.14936 0.40621 0.92382 0.0
H320 H 0.15444 0.40279 0.95259 0.0
H321 H 0.12006 0.38593 0.94092 0.0
C322 C 0.27344 0.40993 0.93182 0.0
N323 N 0.25596 0.41694 0.92265 0.0
N324 N 0.23063 0.3993 0.92888 0.0
C325 C 0.23153 0.38137 0.94323 0.0
C326 C 0.25859 0.38736 0.9453 0.0
C327 C 0.3037 0.42409 0.92728 0.0
H328 H 0.31452 0.44151 0.93889 0.0
H329 H 0.31196 0.40999 0.92966 0.0
H330 H 0.308 0.43222 0.91025 0.0
O331 O 0.24863 0.43101 0.87375 0.0
O332 O 0.20492 0.40099 0.88188 0.0
H333 H 0.1985 0.3398 0.94368 0.0
H334 H 0.21299 0.35302 0.97018 0.0
C335 C 0.20706 0.35831 0.9543 0.0
H336 H 0.19109 0.36404 0.9573 0.0
H337 H 0.17438 0.33919 0.909 0.0
O338 O 0.3018 0.4746 0.90291 0.0
C339 C 0.22432 0.41313 0.86789 0.0
Co340 Co 0.81633 0.26258 0.40456 0.0
Co341 Co 0.80335 0.20174 0.41186 0.0
C342 C 0.76082 0.21738 0.42035 0.0
O343 O 0.77777 0.24207 0.41489 0.0
O344 O 0.76781 0.19903 0.4202 0.0
C345 C 0.82132 0.30997 0.42371 0.0
O346 O 0.81218 0.29278 0.44038 0.0
C347 C 0.78571 0.14899 0.43382 0.0
C348 C 0.81041 0.13383 0.41692 0.0
C349 C 0.79107 0.12742 0.43337 0.0
N350 N 0.80112 0.16733 0.41831 0.0
N351 N 0.8157 0.15805 0.40816 0.0
C352 C 0.76792 0.15324 0.44982 0.0
H353 H 0.74757 0.14646 0.44216 0.0
H354 H 0.7774 0.17541 0.45394 0.0
H355 H 0.76481 0.14122 0.46509 0.0
C356 C 0.86434 0.27388 0.43224 0.0
N357 N 0.84004 0.25638 0.42278 0.0
N358 N 0.83397 0.23091 0.42686 0.0
C359 C 0.85393 0.23149 0.43965 0.0
C360 C 0.87382 0.25871 0.44338 0.0
C361 C 0.87858 0.30454 0.43006 0.0
H362 H 0.87555 0.31025 0.41327 0.0
H363 H 0.86952 0.31269 0.44203 0.0
H364 H 0.9009 0.31428 0.43358 0.0
O365 O 0.81746 0.25081 0.3741 0.0
O366 O 0.80793 0.20768 0.37941 0.0
H367 H 0.8588 0.19708 0.43195 0.0
H368 H 0.87196 0.21179 0.45858 0.0
C369 C 0.85516 0.20657 0.4466 0.0
H370 H 0.83525 0.19136 0.45405 0.0
H371 H 0.82958 0.16846 0.39546 0.0
O372 O 0.82594 0.3018 0.40554 0.0
C373 C 0.81331 0.2278 0.36662 0.0
Co374 Co 0.55737 0.81251 0.9047 0.0
Co375 Co 0.60527 0.7991 0.91074 0.0
C376 C 0.54688 0.75619 0.91814 0.0
O377 O 0.5392 0.7733 0.91309 0.0
O378 O 0.57225 0.76329 0.91837 0.0
C379 C 0.51175 0.81272 0.92299 0.0
O380 O 0.5164 0.79845 0.93775 0.0
C381 C 0.64093 0.78237 0.93301 0.0
C382 C 0.67838 0.80159 0.91239 0.0
C383 C 0.66702 0.78549 0.93094 0.0
N384 N 0.63727 0.79628 0.91661 0.0
N385 N 0.65971 0.8077 0.90433 0.0
C386 C 0.61871 0.7647 0.94898 0.0
H387 H 0.60221 0.74685 0.94003 0.0
H388 H 0.6095 0.77653 0.95598 0.0
H389 H 0.62614 0.75669 0.96233 0.0
C390 C 0.59263 0.8575 0.93533 0.0
N391 N 0.58671 0.83455 0.92404 0.0
N392 N 0.60681 0.82912 0.92667 0.0
C393 C 0.62627 0.84866 0.93967 0.0
C394 C 0.61783 0.86718 0.94566 0.0
C395 C 0.57562 0.87122 0.93461 0.0
H396 H 0.56823 0.87069 0.91762 0.0
H397 H 0.55742 0.85984 0.94542 0.0
H398 H 0.58746 0.89289 0.94028 0.0
O399 O 0.57116 0.81585 0.87408 0.0
O400 O 0.60408 0.80517 0.87865 0.0
H401 H 0.6647 0.85199 0.93086 0.0
H402 H 0.66513 0.86726 0.95716 0.0
C403 C 0.65263 0.84985 0.94591 0.0
H404 H 0.64797 0.83038 0.95415 0.0
H405 H 0.66222 0.81955 0.89038 0.0
O406 O 0.52785 0.82241 0.90655 0.0
C407 C 0.58988 0.81168 0.86625 0.0
C408 C 0.65872 0.18524 0.05344 0.0
C409 C 0.66789 0.18059 0.0736 0.0
C410 C 0.63375 0.18498 0.05209 0.0
C411 C 0.59296 0.20463 0.05765 0.0
H412 H 0.52843 0.15646 0.09217 0.0
C413 C 0.5094 0.23158 0.07789 0.0
C414 C 0.48169 0.21052 0.07829 0.0
C415 C 0.5304 0.22545 0.07495 0.0
C416 C 0.54614 0.16983 0.08219 0.0
H417 H 0.65753 0.17089 0.10801 0.0
H418 H 0.61413 0.17097 0.10576 0.0
H419 H 0.56757 0.14871 0.09142 0.0
H420 H 0.45433 0.16645 0.07537 0.0
H421 H 0.49119 0.15575 0.07005 0.0
H422 H 0.57165 0.22574 0.04841 0.0
C423 C 0.62607 0.17446 0.09091 0.0
C424 C 0.56869 0.16559 0.08197 0.0
C425 C 0.65102 0.17456 0.09223 0.0
C426 C 0.47545 0.18317 0.07514 0.0
C427 C 0.49656 0.17701 0.07226 0.0
C428 C 0.57047 0.20884 0.05786 0.0
C429 C 0.61742 0.18024 0.0709 0.0
C430 C 0.59252 0.18319 0.06993 0.0
C431 C 0.52428 0.19809 0.07231 0.0
C432 C 0.54698 0.19181 0.07043 0.0
H433 H 0.67107 0.18963 0.03871 0.0
H434 H 0.62745 0.18894 0.03633 0.0
H435 H 0.61106 0.21879 0.04839 0.0
H436 H 0.51501 0.25289 0.08025 0.0
H437 H 0.55153 0.24215 0.07538 0.0
C438 C 0.29505 0.47556 0.58261 0.0
C439 C 0.27295 0.47992 0.57804 0.0
C440 C 0.32222 0.49715 0.58069 0.0
C441 C 0.36662 0.56237 0.5538 0.0
H442 H 0.41008 0.58435 0.60723 0.0
C443 C 0.4629 0.66902 0.56182 0.0
C444 C 0.48466 0.67276 0.5755 0.0
C445 C 0.43855 0.64372 0.56097 0.0
C446 C 0.39861 0.57824 0.59199 0.0
H447 H 0.26193 0.50987 0.56701 0.0
H448 H 0.30949 0.54733 0.56291 0.0
H449 H 0.36498 0.54271 0.60699 0.0
H450 H 0.4983 0.6527 0.59857 0.0
H451 H 0.45613 0.60799 0.59643 0.0
H452 H 0.40013 0.59731 0.53852 0.0
C453 C 0.3057 0.52731 0.56826 0.0
C454 C 0.37268 0.55443 0.59194 0.0
C455 C 0.27855 0.50594 0.57067 0.0
C456 C 0.48177 0.65044 0.588 0.0
C457 C 0.4575 0.62487 0.58684 0.0
C458 C 0.39275 0.58584 0.55369 0.0
C459 C 0.32773 0.52324 0.57365 0.0
C460 C 0.35627 0.54665 0.57297 0.0
C461 C 0.43543 0.62122 0.57344 0.0
C462 C 0.40886 0.59454 0.57295 0.0
H463 H 0.29134 0.45578 0.5885 0.0
H464 H 0.33893 0.49357 0.58491 0.0
H465 H 0.35438 0.55658 0.53892 0.0
H466 H 0.46436 0.68591 0.55215 0.0
H467 H 0.42193 0.64213 0.55088 0.0
C468 C 0.77654 0.27616 0.06361 0.0
C469 C 0.79582 0.27078 0.07374 0.0
C470 C 0.78147 0.30303 0.06191 0.0
C471 C 0.83449 0.37721 0.06951 0.0
H472 H 0.7693 0.38331 0.07851 0.0
C473 C 0.83246 0.47891 0.08825 0.0
C474 C 0.81436 0.48288 0.07478 0.0
C475 C 0.83297 0.45419 0.08728 0.0
C476 C 0.78767 0.38191 0.07589 0.0
H477 H 0.83595 0.28933 0.08915 0.0
H478 H 0.84422 0.33637 0.087 0.0
H479 H 0.76519 0.33818 0.07792 0.0
H480 H 0.78309 0.4643 0.04944 0.0
H481 H 0.78365 0.42126 0.04816 0.0
H482 H 0.8569 0.42144 0.06831 0.0
C483 C 0.82551 0.31992 0.07989 0.0
C484 C 0.78534 0.35601 0.07534 0.0
C485 C 0.82079 0.29295 0.08117 0.0
C486 C 0.79726 0.46194 0.06007 0.0
C487 C 0.79749 0.43723 0.05936 0.0
C488 C 0.83686 0.40328 0.07042 0.0
C489 C 0.8055 0.32519 0.07082 0.0
C490 C 0.80861 0.35319 0.07178 0.0
C491 C 0.81508 0.43297 0.07311 0.0
C492 C 0.81337 0.40577 0.07331 0.0
H493 H 0.75725 0.25945 0.05748 0.0
H494 H 0.766 0.30629 0.05409 0.0
H495 H 0.85285 0.3759 0.06664 0.0
H496 H 0.84597 0.49473 0.09967 0.0
H497 H 0.84665 0.45131 0.0981 0.0
C498 C 0.53101 0.82697 0.58073 0.0
C499 C 0.52586 0.80049 0.57516 0.0
C500 C 0.51007 0.83354 0.57905 0.0
C501 C 0.44509 0.8151 0.55212 0.0
H502 H 0.42313 0.83401 0.60684 0.0
C503 C 0.33719 0.80033 0.56319 0.0
C504 C 0.33295 0.81759 0.57737 0.0
C505 C 0.36302 0.80256 0.56151 0.0
C506 C 0.42925 0.8294 0.59127 0.0
H507 H 0.49533 0.76063 0.5625 0.0
H508 H 0.45911 0.77247 0.55886 0.0
H509 H 0.46504 0.83106 0.6055 0.0
H510 H 0.35264 0.85127 0.60054 0.0
H511 H 0.3982 0.85588 0.59709 0.0
H512 H 0.40969 0.81361 0.53769 0.0
C513 C 0.47918 0.78795 0.56477 0.0
C514 C 0.45324 0.82762 0.59057 0.0
C515 C 0.49985 0.78117 0.56693 0.0
C516 C 0.35528 0.83756 0.58957 0.0
C517 C 0.38134 0.84008 0.58766 0.0
C518 C 0.42142 0.81738 0.55269 0.0
C519 C 0.48392 0.81397 0.57125 0.0
C520 C 0.46093 0.81975 0.57114 0.0
C521 C 0.3855 0.82244 0.5737 0.0
C522 C 0.41267 0.8237 0.57244 0.0
H523 H 0.5508 0.84217 0.58729 0.0
H524 H 0.51415 0.85374 0.58413 0.0
H525 H 0.4508 0.80925 0.53689 0.0
H526 H 0.32036 0.78454 0.5537 0.0
H527 H 0.36507 0.78811 0.55102 0.0
C528 C 0.72206 0.50112 0.06718 0.0
C529 C 0.72942 0.52693 0.07623 0.0
C530 C 0.69442 0.48085 0.06523 0.0
C531 C 0.62957 0.45503 0.09244 0.0
H532 H 0.5982 0.41317 0.03909 0.0
C533 C 0.52084 0.35804 0.09165 0.0
C534 C 0.51782 0.33596 0.07872 0.0
C535 C 0.54458 0.38398 0.08988 0.0
C536 C 0.60668 0.42442 0.05422 0.0
H537 H 0.71365 0.55198 0.08994 0.0
H538 H 0.66509 0.516 0.08714 0.0
H539 H 0.64397 0.45386 0.03819 0.0
H540 H 0.53734 0.32371 0.05391 0.0
H541 H 0.57881 0.36816 0.05145 0.0
H542 H 0.59326 0.42481 0.10888 0.0
C543 C 0.68084 0.51176 0.0813 0.0
C544 C 0.63279 0.44787 0.0536 0.0
C545 C 0.70854 0.53232 0.08278 0.0
C546 C 0.53888 0.34035 0.06396 0.0
C547 C 0.56267 0.36604 0.06242 0.0
C548 C 0.60362 0.43126 0.09318 0.0
C549 C 0.6736 0.48578 0.07271 0.0
C550 C 0.64465 0.46309 0.07277 0.0
C551 C 0.56593 0.38827 0.07534 0.0
C552 C 0.59207 0.41527 0.07416 0.0
H553 H 0.73772 0.4964 0.06198 0.0
H554 H 0.68934 0.4609 0.05869 0.0
H555 H 0.63843 0.46634 0.1075 0.0
H556 H 0.50485 0.3553 0.10308 0.0
H557 H 0.54615 0.40065 0.0999 0.0
C558 C 0.17025 0.52108 0.60009 0.0
C559 C 0.17725 0.51224 0.58078 0.0
C560 C 0.16895 0.54532 0.60017 0.0
C561 C 0.16582 0.59733 0.56453 0.0
H562 H 0.20771 0.64768 0.61149 0.0
C563 C 0.1795 0.70703 0.57666 0.0
C564 C 0.20666 0.72782 0.5812 0.0
C565 C 0.17271 0.67936 0.57594 0.0
C566 C 0.19589 0.63382 0.5983 0.0
H567 H 0.1869 0.5211 0.54616 0.0
H568 H 0.18471 0.56336 0.54636 0.0
H569 H 0.20008 0.60099 0.61187 0.0
H570 H 0.24815 0.73583 0.58758 0.0
H571 H 0.23624 0.68792 0.58642 0.0
H572 H 0.16231 0.63067 0.55075 0.0
C573 C 0.18015 0.55155 0.5614 0.0
C574 C 0.19126 0.60698 0.59863 0.0
C575 C 0.1816 0.52742 0.56134 0.0
C576 C 0.22697 0.72042 0.58422 0.0
C577 C 0.22015 0.69292 0.58369 0.0
C578 C 0.17025 0.6242 0.56431 0.0
C579 C 0.17444 0.56111 0.58093 0.0
C580 C 0.1766 0.58857 0.58157 0.0
C581 C 0.19291 0.67206 0.57997 0.0
C582 C 0.18585 0.64285 0.58097 0.0
H583 H 0.16662 0.50977 0.61531 0.0
H584 H 0.1642 0.55203 0.61541 0.0
H585 H 0.15428 0.58351 0.55124 0.0
H586 H 0.16338 0.71202 0.5742 0.0
H587 H 0.15154 0.66364 0.57299 0.0
C588 C 0.82173 0.52991 0.42846 0.0
C589 C 0.79411 0.52335 0.42662 0.0
C590 C 0.82832 0.50907 0.43111 0.0
C591 C 0.79822 0.43556 0.44647 0.0
H592 H 0.85505 0.4378 0.40877 0.0
C593 C 0.82182 0.34714 0.44667 0.0
C594 C 0.82457 0.3377 0.42595 0.0
C595 C 0.82227 0.37214 0.44873 0.0
C596 C 0.8391 0.43686 0.41938 0.0
H597 H 0.75175 0.48982 0.42703 0.0
H598 H 0.7632 0.45377 0.43154 0.0
H599 H 0.84729 0.47691 0.40953 0.0
H600 H 0.83108 0.34765 0.39125 0.0
H601 H 0.83133 0.39109 0.39477 0.0
H602 H 0.78912 0.39514 0.45562 0.0
C603 C 0.77982 0.47493 0.43107 0.0
C604 C 0.83488 0.45941 0.42002 0.0
C605 C 0.77326 0.49565 0.42834 0.0
C606 C 0.82889 0.35435 0.40744 0.0
C607 C 0.82919 0.37933 0.40949 0.0
C608 C 0.80241 0.41307 0.44583 0.0
C609 C 0.80741 0.48131 0.43215 0.0
C610 C 0.81404 0.45879 0.43327 0.0
C611 C 0.82532 0.38825 0.43012 0.0
C612 C 0.82261 0.41324 0.43202 0.0
H613 H 0.8383 0.55104 0.42721 0.0
H614 H 0.84977 0.51466 0.43213 0.0
H615 H 0.78221 0.43455 0.45705 0.0
H616 H 0.81878 0.33497 0.46131 0.0
H617 H 0.81979 0.37863 0.46492 0.0
C618 C 0.29856 0.82552 0.92178 0.0
C619 C 0.27705 0.79922 0.9276 0.0
C620 C 0.32602 0.83187 0.92351 0.0
C621 C 0.37223 0.81283 0.95058 0.0
H622 H 0.41313 0.83207 0.89586 0.0
C623 C 0.46584 0.79866 0.93937 0.0
C624 C 0.48728 0.81602 0.92516 0.0
C625 C 0.4421 0.80065 0.94107 0.0
C626 C 0.40239 0.82735 0.91144 0.0
H627 H 0.2674 0.75955 0.9409 0.0
H628 H 0.31533 0.771 0.94461 0.0
H629 H 0.36837 0.8293 0.89733 0.0
H630 H 0.50099 0.84965 0.90197 0.0
H631 H 0.45985 0.85388 0.90547 0.0
H632 H 0.40607 0.81109 0.96489 0.0
C633 C 0.31094 0.78651 0.93844 0.0
C634 C 0.37667 0.82568 0.91222 0.0
C635 C 0.28355 0.77995 0.93625 0.0
C636 C 0.4847 0.83585 0.91296 0.0
C637 C 0.46103 0.83815 0.9149 0.0
C638 C 0.39814 0.815 0.94994 0.0
C639 C 0.33239 0.81228 0.93162 0.0
C640 C 0.36109 0.81774 0.93165 0.0
C641 C 0.43929 0.8204 0.92887 0.0
C642 C 0.41326 0.82149 0.93019 0.0
H643 H 0.29415 0.84072 0.91496 0.0
H644 H 0.34225 0.8519 0.91821 0.0
H645 H 0.36069 0.80693 0.96582 0.0
H646 H 0.46705 0.78297 0.94886 0.0
H647 H 0.42567 0.78612 0.95157 0.0
C648 C 0.65817 0.47486 0.44607 0.0
C649 C 0.66726 0.48781 0.42556 0.0
C650 C 0.63359 0.44982 0.44786 0.0
C651 C 0.56888 0.402 0.41872 0.0
H652 H 0.57295 0.34682 0.45431 0.0
C653 C 0.50994 0.27701 0.42677 0.0
C654 C 0.48223 0.2704 0.42649 0.0
C655 C 0.53103 0.30426 0.42902 0.0
C656 C 0.57147 0.36198 0.4443 0.0
H657 H 0.65707 0.48518 0.39095 0.0
H658 H 0.61425 0.44122 0.394 0.0
H659 H 0.61207 0.39341 0.45303 0.0
H660 H 0.45499 0.2873 0.42901 0.0
H661 H 0.49196 0.335 0.43306 0.0
H662 H 0.52855 0.37014 0.4094 0.0
C663 C 0.62603 0.45058 0.40877 0.0
C664 C 0.59379 0.38879 0.44375 0.0
C665 C 0.65064 0.47572 0.40699 0.0
C666 C 0.4761 0.29166 0.42917 0.0
C667 C 0.49728 0.31901 0.43132 0.0
C668 C 0.54648 0.37513 0.41932 0.0
C669 C 0.61751 0.43707 0.42916 0.0
C670 C 0.59292 0.40907 0.43075 0.0
C671 C 0.52499 0.32564 0.43101 0.0
C672 C 0.5477 0.35472 0.43187 0.0
H673 H 0.67033 0.48375 0.46076 0.0
H674 H 0.62737 0.44025 0.46388 0.0
H675 H 0.56745 0.41719 0.40872 0.0
H676 H 0.51545 0.26119 0.42477 0.0
H677 H 0.55214 0.30866 0.42847 0.0
C678 C 0.19175 0.66167 0.9492 0.0
C679 C 0.18619 0.67038 0.92917 0.0
C680 C 0.19199 0.63695 0.95052 0.0
C681 C 0.17139 0.57127 0.92151 0.0
H682 H 0.23323 0.57505 0.9531 0.0
C683 C 0.23576 0.51014 0.92477 0.0
C684 C 0.21426 0.48265 0.92569 0.0
C685 C 0.23044 0.53175 0.92745 0.0
C686 C 0.21585 0.57365 0.9442 0.0
H687 H 0.17541 0.65938 0.89498 0.0
H688 H 0.17615 0.61633 0.8972 0.0
H689 H 0.22658 0.6147 0.95292 0.0
H690 H 0.17033 0.4564 0.93079 0.0
H691 H 0.16108 0.49425 0.93554 0.0
H692 H 0.16127 0.53045 0.91219 0.0
C693 C 0.18009 0.62852 0.91196 0.0
C694 C 0.21185 0.59628 0.94429 0.0
C695 C 0.17979 0.65327 0.91066 0.0
C696 C 0.18737 0.4773 0.92994 0.0
C697 C 0.18203 0.49898 0.93251 0.0
C698 C 0.17537 0.54856 0.92147 0.0
C699 C 0.18673 0.62034 0.93182 0.0
C700 C 0.18976 0.5955 0.93275 0.0
C701 C 0.20348 0.52646 0.93107 0.0
C702 C 0.19788 0.54965 0.93257 0.0
H703 H 0.1965 0.67422 0.96384 0.0
H704 H 0.19666 0.63102 0.96616 0.0
H705 H 0.15402 0.56991 0.91263 0.0
H706 H 0.25673 0.51508 0.92155 0.0
H707 H 0.2474 0.55266 0.92599 0.0
C708 C 0.52711 0.17314 0.40653 0.0
C709 C 0.5146 0.17665 0.42531 0.0
C710 C 0.55203 0.17321 0.40826 0.0
C711 C 0.6003 0.16397 0.41738 0.0
H712 H 0.65426 0.22018 0.45584 0.0
C713 C 0.71105 0.18212 0.42668 0.0
C714 C 0.73203 0.20983 0.42537 0.0
C715 C 0.68352 0.17528 0.4291 0.0
C716 C 0.63944 0.20437 0.44503 0.0
H717 H 0.51757 0.18132 0.46076 0.0
H718 H 0.56061 0.18094 0.46379 0.0
H719 H 0.60768 0.21265 0.4546 0.0
H720 H 0.74056 0.25205 0.42644 0.0
H721 H 0.69283 0.24015 0.43058 0.0
H722 H 0.63259 0.15657 0.40716 0.0
C723 C 0.5516 0.17883 0.44767 0.0
C724 C 0.6126 0.19982 0.44449 0.0
C725 C 0.52683 0.17891 0.44593 0.0
C726 C 0.72496 0.23049 0.42735 0.0
C727 C 0.69755 0.22367 0.42986 0.0
C728 C 0.62722 0.16853 0.41793 0.0
C729 C 0.56487 0.17665 0.42881 0.0
C730 C 0.59278 0.17983 0.43045 0.0
C731 C 0.67645 0.19601 0.43045 0.0
C732 C 0.64721 0.18913 0.43149 0.0
H733 H 0.5182 0.17135 0.39041 0.0
H734 H 0.56178 0.17171 0.39337 0.0
H735 H 0.58546 0.14821 0.40656 0.0
H736 H 0.71578 0.1657 0.4252 0.0
H737 H 0.66774 0.15378 0.42974 0.0
C738 C 0.35483 0.52395 0.90365 0.0
C739 C 0.33918 0.51143 0.92259 0.0
C740 C 0.38007 0.54847 0.90525 0.0
C741 C 0.41593 0.60831 0.94195 0.0
H742 H 0.47789 0.62795 0.90316 0.0
C743 C 0.53208 0.70615 0.92322 0.0
C744 C 0.52553 0.72728 0.92257 0.0
C745 C 0.51125 0.67863 0.92543 0.0
C746 C 0.46092 0.62265 0.91433 0.0
H747 H 0.33854 0.51386 0.95815 0.0
H748 H 0.38263 0.5562 0.96095 0.0
H749 H 0.43862 0.58108 0.90263 0.0
H750 H 0.49203 0.73607 0.92451 0.0
H751 H 0.45602 0.68842 0.92831 0.0
H752 H 0.43805 0.64978 0.9536 0.0
C753 C 0.37516 0.54754 0.94481 0.0
C754 C 0.43829 0.5959 0.91384 0.0
C755 C 0.34991 0.52317 0.9432 0.0
C756 C 0.49786 0.72036 0.9249 0.0
C757 C 0.47717 0.69299 0.92722 0.0
C758 C 0.43848 0.63497 0.94243 0.0
C759 C 0.39023 0.56088 0.92584 0.0
C760 C 0.41534 0.58853 0.92743 0.0
C761 C 0.48354 0.67176 0.92726 0.0
C762 C 0.46102 0.64262 0.92835 0.0
H763 H 0.34712 0.51539 0.88753 0.0
H764 H 0.39103 0.5583 0.89028 0.0
H765 H 0.39852 0.6035 0.95248 0.0
H766 H 0.55318 0.71078 0.92144 0.0
H767 H 0.51682 0.66273 0.92561 0.0
C768 C 0.41706 0.17603 0.33001 0.0
C769 C 0.41052 0.19087 0.34511 0.0
C770 C 0.41427 0.17858 0.30742 0.0
C771 C 0.42353 0.22655 0.26662 0.0
H772 H 0.3708 0.16753 0.22952 0.0
C773 C 0.41738 0.24414 0.17397 0.0
C774 C 0.41138 0.22221 0.15968 0.0
C775 C 0.41451 0.23991 0.1967 0.0
C776 C 0.38598 0.18416 0.23951 0.0
H777 H 0.39579 0.21984 0.34838 0.0
H778 H 0.39188 0.22493 0.30881 0.0
H779 H 0.37142 0.16 0.269 0.0
H780 H 0.39766 0.17865 0.15796 0.0
H781 H 0.39403 0.17151 0.19741 0.0
H782 H 0.43932 0.25039 0.23741 0.0
C783 C 0.39865 0.21102 0.3146 0.0
C784 C 0.3861 0.17982 0.26214 0.0
C785 C 0.40082 0.20801 0.33717 0.0
C786 C 0.40218 0.19592 0.16855 0.0
C787 C 0.39993 0.19181 0.19126 0.0
C788 C 0.42386 0.23074 0.24397 0.0
C789 C 0.40551 0.19645 0.2996 0.0
C790 C 0.40488 0.20099 0.2758 0.0
C791 C 0.40622 0.21377 0.20572 0.0
C792 C 0.40512 0.20959 0.23003 0.0
H793 H 0.42452 0.16264 0.33565 0.0
H794 H 0.41974 0.16726 0.29603 0.0
H795 H 0.43831 0.24308 0.27695 0.0
H796 H 0.42427 0.26458 0.16757 0.0
H797 H 0.4189 0.25724 0.20715 0.0
C798 C 0.17291 0.41176 0.67248 0.0
C799 C 0.18986 0.40678 0.65852 0.0
C800 C 0.17361 0.40853 0.69521 0.0
C801 C 0.20148 0.38145 0.73872 0.0
H802 H 0.19137 0.43207 0.77561 0.0
C803 C 0.23894 0.41205 0.82917 0.0
C804 C 0.21808 0.40754 0.84423 0.0
C805 C 0.23335 0.40849 0.80664 0.0
C806 C 0.19404 0.4177 0.76546 0.0
H807 H 0.22073 0.3944 0.65731 0.0
H808 H 0.22316 0.39023 0.69687 0.0
H809 H 0.18582 0.43286 0.736 0.0
H810 H 0.17501 0.39557 0.84755 0.0
H811 H 0.1656 0.39037 0.80802 0.0
H812 H 0.21139 0.36768 0.76848 0.0
C813 C 0.20846 0.39557 0.69044 0.0
C814 C 0.19064 0.41792 0.74274 0.0
C815 C 0.20724 0.39814 0.66768 0.0
C816 C 0.19145 0.39904 0.83634 0.0
C817 C 0.18606 0.39615 0.81379 0.0
C818 C 0.20552 0.38173 0.76142 0.0
C819 C 0.19184 0.40096 0.70459 0.0
C820 C 0.19436 0.39984 0.72898 0.0
C821 C 0.207 0.40101 0.79878 0.0
C822 C 0.20183 0.39987 0.77492 0.0
H823 H 0.1591 0.41817 0.66583 0.0
H824 H 0.15991 0.41215 0.70539 0.0
H825 H 0.20397 0.36679 0.72887 0.0
H826 H 0.25962 0.41853 0.83479 0.0
H827 H 0.24981 0.41247 0.79528 0.0
C828 C 0.80651 0.19804 0.33369 0.0
C829 C 0.81286 0.22374 0.34249 0.0
C830 C 0.80366 0.19353 0.31099 0.0
C831 C 0.81146 0.19365 0.26129 0.0
H832 H 0.7718 0.22316 0.22988 0.0
C833 C 0.80465 0.19434 0.1663 0.0
C834 C 0.77964 0.18938 0.15693 0.0
C835 C 0.80845 0.19679 0.18907 0.0
C836 C 0.78269 0.21455 0.23842 0.0
H837 H 0.82226 0.26516 0.33416 0.0
H838 H 0.81758 0.25733 0.29465 0.0
H839 H 0.77983 0.23141 0.26916 0.0
H840 H 0.73867 0.18206 0.16432 0.0
H841 H 0.74525 0.18608 0.20401 0.0
H842 H 0.81394 0.17646 0.23051 0.0
C843 C 0.81431 0.24052 0.30533 0.0
C844 C 0.78764 0.21961 0.2609 0.0
C845 C 0.81718 0.24506 0.328 0.0
C846 C 0.75824 0.18604 0.17093 0.0
C847 C 0.76207 0.18852 0.19369 0.0
C848 C 0.80657 0.18864 0.23875 0.0
C849 C 0.80707 0.21458 0.29658 0.0
C850 C 0.80213 0.20929 0.27261 0.0
C851 C 0.78736 0.19436 0.20301 0.0
C852 C 0.79211 0.19904 0.22706 0.0
H853 H 0.80304 0.18114 0.34434 0.0
H854 H 0.79789 0.17325 0.30481 0.0
H855 H 0.82283 0.18554 0.2698 0.0
H856 H 0.82159 0.19701 0.15604 0.0
H857 H 0.82825 0.20151 0.19569 0.0
C858 C 0.61287 0.80552 0.83311 0.0
C859 C 0.59409 0.81255 0.84211 0.0
C860 C 0.61516 0.80389 0.81036 0.0
C861 C 0.59976 0.82494 0.75715 0.0
H862 H 0.60068 0.76064 0.73486 0.0
C863 C 0.5785 0.76233 0.67053 0.0
C864 C 0.59385 0.78423 0.65596 0.0
C865 C 0.58094 0.76657 0.69325 0.0
C866 C 0.60039 0.77868 0.74083 0.0
H867 H 0.56368 0.82429 0.8341 0.0
H868 H 0.56773 0.82145 0.79439 0.0
H869 H 0.60034 0.76744 0.77444 0.0
H870 H 0.62443 0.82766 0.65402 0.0
H871 H 0.62868 0.83496 0.69365 0.0
H872 H 0.59922 0.83586 0.72351 0.0
C873 C 0.58073 0.81729 0.80499 0.0
C874 C 0.60047 0.78273 0.7635 0.0
C875 C 0.57834 0.81881 0.82776 0.0
C876 C 0.61223 0.81031 0.66472 0.0
C877 C 0.61455 0.81457 0.68744 0.0
C878 C 0.59984 0.82098 0.73447 0.0
C879 C 0.59885 0.80937 0.79604 0.0
C880 C 0.59995 0.80579 0.77193 0.0
C881 C 0.59869 0.79283 0.70196 0.0
C882 C 0.59993 0.79768 0.72605 0.0
H883 H 0.62544 0.80068 0.84362 0.0
H884 H 0.6296 0.79814 0.80398 0.0
H885 H 0.59956 0.84302 0.76313 0.0
H886 H 0.56414 0.74197 0.66439 0.0
H887 H 0.56827 0.74944 0.70399 0.0
C888 C 0.809 0.61106 0.16636 0.0
C889 C 0.81459 0.59138 0.15712 0.0
C890 C 0.80694 0.61283 0.18911 0.0
C891 C 0.8245 0.59399 0.24232 0.0
H892 H 0.76189 0.59881 0.26373 0.0
C893 C 0.76073 0.57588 0.32815 0.0
C894 C 0.78253 0.59059 0.34293 0.0
C895 C 0.76549 0.57788 0.30548 0.0
C896 C 0.77943 0.5974 0.25801 0.0
H897 H 0.82341 0.5588 0.16474 0.0
H898 H 0.81987 0.56199 0.20452 0.0
H899 H 0.76945 0.59867 0.22425 0.0
H900 H 0.82641 0.61946 0.34534 0.0
H901 H 0.83462 0.6229 0.30581 0.0
H902 H 0.8342 0.59228 0.27613 0.0
C903 C 0.81713 0.57607 0.19408 0.0
C904 C 0.78392 0.59759 0.23541 0.0
C905 C 0.81905 0.57418 0.17127 0.0
C906 C 0.80911 0.60779 0.33446 0.0
C907 C 0.81389 0.60963 0.31181 0.0
C908 C 0.82011 0.59401 0.26496 0.0
C909 C 0.81056 0.59508 0.20322 0.0
C910 C 0.80642 0.59574 0.22729 0.0
C911 C 0.79218 0.59451 0.29707 0.0
C912 C 0.79742 0.59553 0.27305 0.0
H913 H 0.80556 0.62476 0.15602 0.0
H914 H 0.80228 0.62799 0.19566 0.0
H915 H 0.84211 0.59273 0.23659 0.0
H916 H 0.74 0.56243 0.33406 0.0
H917 H 0.74837 0.56579 0.29456 0.0
C918 C 0.19155 0.76068 0.83118 0.0
C919 C 0.19352 0.78144 0.84528 0.0
C920 C 0.1934 0.76451 0.80841 0.0
C921 C 0.21809 0.78656 0.7635 0.0
H922 H 0.18308 0.82137 0.73265 0.0
C923 C 0.24436 0.8205 0.67347 0.0
C924 C 0.22204 0.81365 0.6593 0.0
C925 C 0.24056 0.81819 0.69622 0.0
C926 C 0.19289 0.81152 0.74102 0.0
H927 H 0.19797 0.82215 0.84634 0.0
H928 H 0.20126 0.82878 0.80666 0.0
H929 H 0.17531 0.81242 0.77208 0.0
H930 H 0.17841 0.8001 0.65811 0.0
H931 H 0.17182 0.79593 0.69782 0.0
H932 H 0.23538 0.78528 0.73251 0.0
C933 C 0.19818 0.8095 0.81323 0.0
C934 C 0.18861 0.80659 0.76363 0.0
C935 C 0.19643 0.80573 0.836 0.0
C936 C 0.19607 0.80554 0.66851 0.0
C937 C 0.19229 0.80323 0.6913 0.0
C938 C 0.22244 0.79158 0.74097 0.0
C939 C 0.19715 0.78913 0.79919 0.0
C940 C 0.20114 0.794 0.77511 0.0
C941 C 0.21438 0.80897 0.70539 0.0
C942 C 0.20994 0.80415 0.72945 0.0
H943 H 0.1892 0.74168 0.83772 0.0
H944 H 0.1921 0.74824 0.79801 0.0
H945 H 0.22833 0.77715 0.77188 0.0
H946 H 0.2647 0.82702 0.667 0.0
H947 H 0.25812 0.82329 0.70665 0.0
C948 C 0.25808 0.91677 0.95763 0.0
C949 C 0.23148 0.90591 0.94889 0.0
C950 C 0.26937 0.94032 0.9708 0.0
C951 C 0.26282 1.00112 0.98404 0.0
H952 H 0.30581 0.00533 0.03529 0.0
C953 C 0.32702 0.10207 0.0327 0.0
C954 C 0.32774 0.10013 0.05565 0.0
C955 C 0.31479 0.07831 0.01975 0.0
C956 C 0.29367 0.00442 0.02115 0.0
H957 H 0.19609 0.91156 0.94662 0.0
H958 H 0.21565 0.95256 0.96982 0.0
H959 H 0.28499 0.9638 0.0129 0.0
H960 H 0.31509 0.072 0.0832 0.0
H961 H 0.29334 0.03041 0.06067 0.0
H962 H 0.27104 0.04154 0.99255 0.0
C963 C 0.22787 0.94295 0.96643 0.0
C964 C 0.28201 0.98072 0.00815 0.0
C965 C 0.21661 0.91941 0.95323 0.0
C966 C 0.31518 0.07402 0.06549 0.0
C967 C 0.30291 0.05025 0.05257 0.0
C968 C 0.27447 0.02482 0.99706 0.0
C969 C 0.25438 0.95367 0.97542 0.0
C970 C 0.26649 0.97879 0.9894 0.0
C971 C 0.30273 0.0521 0.02952 0.0
C972 C 0.29008 0.02679 0.01575 0.0
H973 H 0.2705 0.90749 0.95392 0.0
H974 H 0.29009 0.94838 0.977 0.0
H975 H 0.25124 1.00046 0.96959 0.0
H976 H 0.33564 0.12195 0.02475 0.0
H977 H 0.31507 0.08051 0.00206 0.0
C978 C 0.22773 0.29995 0.56109 0.0
C979 C 0.23096 0.32549 0.55484 0.0
C980 C 0.23931 0.28742 0.54853 0.0
C981 C 0.26968 0.29059 0.49305 0.0
H982 H 0.29576 0.24606 0.52148 0.0
C983 C 0.34076 0.25485 0.45312 0.0
C984 C 0.32823 0.22613 0.45141 0.0
C985 C 0.32864 0.2667 0.46582 0.0
C986 C 0.28847 0.25841 0.51341 0.0
H987 H 0.2472 0.35683 0.52945 0.0
H988 H 0.26936 0.3365 0.50875 0.0
H989 H 0.27575 0.2679 0.54366 0.0
H990 H 0.29352 0.1872 0.46152 0.0
H991 H 0.27277 0.20805 0.4845 0.0
H992 H 0.28377 0.28193 0.46292 0.0
C993 C 0.25761 0.32574 0.52318 0.0
C994 C 0.27678 0.27078 0.52603 0.0
C995 C 0.24551 0.33792 0.53547 0.0
C996 C 0.30353 0.20941 0.46268 0.0
C997 C 0.29176 0.22126 0.47581 0.0
C998 C 0.28195 0.27875 0.48054 0.0
C999 C 0.25461 0.30024 0.52945 0.0
C1000 C 0.26713 0.28701 0.51603 0.0
C1001 C 0.30415 0.24997 0.47733 0.0
C1002 C 0.29132 0.26252 0.49063 0.0
H1003 H 0.21615 0.28955 0.5757 0.0
H1004 H 0.23584 0.26748 0.55367 0.0
H1005 H 0.26194 0.30229 0.48457 0.0
H1006 H 0.35965 0.26811 0.44434 0.0
H1007 H 0.33846 0.28891 0.46678 0.0
C1008 C 0.91318 0.20956 0.04391 0.0
C1009 C 0.90363 0.22594 0.05359 0.0
C1010 C 0.93678 0.22156 0.03073 0.0
C1011 C 1.00217 0.28133 0.02378 0.0
H1012 H 0.99778 0.26549 0.96142 0.0
C1013 C 0.09665 0.34064 0.96766 0.0
C1014 C 0.09971 0.32723 0.94929 0.0
C1015 C 0.0724 0.32827 0.97999 0.0
C1016 C 0.99959 0.26982 0.97886 0.0
H1017 H 0.91148 0.26756 0.05783 0.0
H1018 H 0.95341 0.2887 0.03533 0.0
H1019 H 0.95622 0.24313 0.98394 0.0
H1020 H 0.0802 0.28954 0.93029 0.0
H1021 H 0.03858 0.26728 0.95245 0.0
H1022 H 0.04548 0.30692 0.0193 0.0
C1023 C 0.94224 0.26658 0.03755 0.0
C1024 C 0.97569 0.25713 0.99167 0.0
C1025 C 0.9183 0.25452 0.05028 0.0
C1026 C 0.07831 0.30068 0.94409 0.0
C1027 C 0.05426 0.28801 0.95671 0.0
C1028 C 0.02618 0.29353 0.01113 0.0
C1029 C 0.95154 0.25017 0.02759 0.0
C1030 C 0.97682 0.26298 0.01416 0.0
C1031 C 0.05086 0.30168 0.97481 0.0
C1032 C 0.02525 0.28818 0.98841 0.0
H1033 H 0.90218 0.18747 0.04631 0.0
H1034 H 0.94374 0.20861 0.02324 0.0
H1035 H 0.00345 0.28591 0.04118 0.0
H1036 H 0.11318 0.36046 0.97294 0.0
H1037 H 0.07066 0.33971 0.99361 0.0
C1038 C 0.66829 0.90944 0.53306 0.0
C1039 C 0.68084 0.90723 0.55232 0.0
C1040 C 0.68074 0.9335 0.52053 0.0
C1041 C 0.73691 0.00721 0.52248 0.0
H1042 H 0.72369 0.00249 0.45964 0.0
C1043 C 0.79624 0.09449 0.45772 0.0
C1044 C 0.77911 0.10264 0.44736 0.0
C1045 C 0.78492 0.071 0.471 0.0
C1046 C 0.72747 0.00401 0.47718 0.0
H1047 H 0.71733 0.92787 0.57264 0.0
H1048 H 0.73988 0.96929 0.55016 0.0
H1049 H 0.70364 0.96054 0.48155 0.0
H1050 H 0.73688 0.09244 0.44204 0.0
H1051 H 0.71697 0.05067 0.46471 0.0
H1052 H 0.76187 0.05084 0.51755 0.0
C1053 C 0.71964 0.95307 0.54532 0.0
C1054 C 0.71581 0.98003 0.48985 0.0
C1055 C 0.70684 0.92917 0.55814 0.0
C1056 C 0.75048 0.0867 0.45011 0.0
C1057 C 0.73913 0.06286 0.46294 0.0
C1058 C 0.7491 0.03113 0.50968 0.0
C1059 C 0.70667 0.95569 0.52639 0.0
C1060 C 0.72005 0.98127 0.51275 0.0
C1061 C 0.75628 0.05494 0.47355 0.0
C1062 C 0.74421 0.02968 0.487 0.0
H1063 H 0.64899 0.89245 0.52736 0.0
H1064 H 0.66984 0.9346 0.50625 0.0
H1065 H 0.74035 0.00923 0.54005 0.0
H1066 H 0.81838 0.10649 0.45577 0.0
H1067 H 0.79845 0.0651 0.47899 0.0
C1068 C 0.76597 0.69339 0.06251 0.0
C1069 C 0.77963 0.68054 0.05329 0.0
C1070 C 0.75491 0.70566 0.04908 0.0
C1071 C 0.73079 0.70443 0.99256 0.0
H1072 H 0.73687 0.77403 0.00894 0.0
C1073 C 0.69465 0.7621 0.93511 0.0
C1074 C 0.68054 0.77413 0.94486 0.0
C1075 C 0.70759 0.75137 0.94812 0.0
C1076 C 0.73471 0.75443 0.00424 0.0
H1077 H 0.7941 0.67236 0.02271 0.0
H1078 H 0.77436 0.69322 0.99928 0.0
H1079 H 0.75799 0.75415 0.03202 0.0
H1080 H 0.67055 0.78621 0.97576 0.0
H1081 H 0.69229 0.76668 0.99858 0.0
H1082 H 0.70728 0.70453 0.96491 0.0
C1083 C 0.77156 0.69315 0.0169 0.0
C1084 C 0.74686 0.74306 0.01747 0.0
C1085 C 0.7827 0.68096 0.03035 0.0
C1086 C 0.68039 0.77609 0.96785 0.0
C1087 C 0.69329 0.76534 0.98089 0.0
C1088 C 0.71857 0.71576 0.97937 0.0
C1089 C 0.75738 0.70548 0.02611 0.0
C1090 C 0.74497 0.71789 0.01181 0.0
C1091 C 0.70693 0.7527 0.97119 0.0
C1092 C 0.72031 0.74087 0.98507 0.0
H1093 H 0.76333 0.69351 0.08013 0.0
H1094 H 0.74393 0.71479 0.0567 0.0
H1095 H 0.72862 0.68481 0.98791 0.0
H1096 H 0.69544 0.76074 0.91739 0.0
H1097 H 0.71835 0.74226 0.94009 0.0
C1098 C 0.91502 0.66049 0.45504 0.0
C1099 C 0.90315 0.67608 0.44807 0.0
C1100 C 0.93892 0.67248 0.46782 0.0
C1101 C 0.97974 0.73047 0.50517 0.0
H1102 H 0.03849 0.71538 0.49181 0.0
C1103 C 0.08511 0.78749 0.54902 0.0
C1104 C 0.09799 0.77227 0.55425 0.0
C1105 C 0.06162 0.77613 0.53575 0.0
C1106 C 0.02216 0.71955 0.49596 0.0
H1107 H 0.90726 0.71655 0.44857 0.0
H1108 H 0.94904 0.73756 0.47101 0.0
H1109 H 0.99691 0.69472 0.46941 0.0
H1110 H 0.09551 0.73268 0.55066 0.0
H1111 H 0.05453 0.71277 0.52764 0.0
H1112 H 0.00473 0.75497 0.53189 0.0
C1113 C 0.93965 0.71597 0.46682 0.0
C1114 C 0.99834 0.70774 0.48308 0.0
C1115 C 0.91586 0.704 0.45388 0.0
C1116 C 0.08663 0.74527 0.54629 0.0
C1117 C 0.06305 0.73383 0.53313 0.0
C1118 C 0.00349 0.74216 0.51814 0.0
C1119 C 0.95147 0.70034 0.47392 0.0
C1120 C 0.97685 0.71305 0.48754 0.0
C1121 C 0.05025 0.74913 0.52764 0.0
C1122 C 0.02502 0.73685 0.51372 0.0
H1123 H 0.90618 0.63914 0.45029 0.0
H1124 H 0.94747 0.65988 0.47308 0.0
H1125 H 0.96338 0.73467 0.50919 0.0
H1126 H 0.09341 0.80834 0.55499 0.0
H1127 H 0.05256 0.78866 0.53166 0.0
C1128 C 0.71742 0.07762 0.05654 0.0
C1129 C 0.73662 0.10161 0.04554 0.0
C1130 C 0.70595 0.05206 0.04614 0.0
C1131 C 0.71638 0.01319 0.00291 0.0
H1132 H 0.6367 0.96967 0.00183 0.0
C1133 C 0.65849 0.91426 0.95039 0.0
C1134 C 0.63324 0.89301 0.9582 0.0
C1135 C 0.67207 0.93949 0.96142 0.0
C1136 C 0.65896 0.9812 0.00229 0.0
H1137 H 0.75986 0.11773 0.01549 0.0
H1138 H 0.74032 0.07268 0.99737 0.0
H1139 H 0.65909 0.01384 0.02062 0.0
H1140 H 0.60253 0.88083 0.98372 0.0
H1141 H 0.62667 0.92431 0.00369 0.0
H1142 H 0.71643 0.98033 0.98514 0.0
C1143 C 0.73392 0.07378 0.01396 0.0
C1144 C 0.67177 0.00664 0.01296 0.0
C1145 C 0.74507 0.09947 0.02427 0.0
C1146 C 0.62201 0.89705 0.97744 0.0
C1147 C 0.63576 0.92208 0.98869 0.0
C1148 C 0.70358 0.98748 0.99252 0.0
C1149 C 0.71389 0.04991 0.02467 0.0
C1150 C 0.70057 0.0229 0.01334 0.0
C1151 C 0.66081 0.94385 0.98067 0.0
C1152 C 0.67466 0.97112 0.99202 0.0
H1153 H 0.71103 0.0787 0.07314 0.0
H1154 H 0.69084 0.03392 0.05487 0.0
H1155 H 0.73865 0.02527 0.00313 0.0
H1156 H 0.66731 0.91159 0.93539 0.0
H1157 H 0.69101 0.95578 0.95447 0.0
C1158 C 0.71485 0.61863 0.47225 0.0
C1159 C 0.73459 0.63172 0.45571 0.0
C1160 C 0.70287 0.6323 0.48262 0.0
C1161 C 0.71108 0.7017 0.49142 0.0
H1162 H 0.63362 0.65903 0.50629 0.0
C1163 C 0.65652 0.74597 0.54432 0.0
C1164 C 0.62891 0.73743 0.53966 0.0
C1165 C 0.66992 0.73402 0.53344 0.0
C1166 C 0.65518 0.67139 0.50202 0.0
H1167 H 0.75734 0.66918 0.43687 0.0
H1168 H 0.73616 0.69307 0.45467 0.0
H1169 H 0.65601 0.63663 0.4886 0.0
H1170 H 0.5938 0.71047 0.51962 0.0
H1171 H 0.61726 0.68999 0.50014 0.0
H1172 H 0.70997 0.73666 0.5042 0.0
C1173 C 0.73029 0.67247 0.46007 0.0
C1174 C 0.66818 0.65841 0.49218 0.0
C1175 C 0.74243 0.65883 0.44983 0.0
C1176 C 0.61507 0.71721 0.52359 0.0
C1177 C 0.6285 0.7054 0.51257 0.0
C1178 C 0.69801 0.71474 0.50114 0.0
C1179 C 0.71015 0.65929 0.47648 0.0
C1180 C 0.69635 0.67333 0.48684 0.0
C1181 C 0.65602 0.71339 0.51753 0.0
C1182 C 0.6699 0.69974 0.50665 0.0
H1183 H 0.70861 0.59774 0.47711 0.0
H1184 H 0.6879 0.62166 0.49548 0.0
H1185 H 0.73284 0.71385 0.48775 0.0
H1186 H 0.66752 0.76129 0.55687 0.0
H1187 H 0.69094 0.74043 0.53798 0.0
C1188 C 0.90199 0.64637 0.02477 0.0
C1189 C 0.89939 0.63269 0.04469 0.0
C1190 C 0.92766 0.66121 0.01446 0.0
C1191 C 0.00302 0.69179 0.02492 0.0
H1192 H 0.00706 0.68937 0.96141 0.0
C1193 C 0.10374 0.7225 0.97761 0.0
C1194 C 0.1092 0.73935 0.95911 0.0
C1195 C 0.07838 0.71143 0.98836 0.0
C1196 C 0.00621 0.69045 0.97915 0.0
H1197 H 0.92158 0.62451 0.06988 0.0
H1198 H 0.96604 0.6492 0.05157 0.0
H1199 H 0.96227 0.66625 0.97952 0.0
H1200 H 0.09264 0.75768 0.93704 0.0
H1201 H 0.04796 0.73801 0.95572 0.0
H1202 H 0.04711 0.71524 0.02445 0.0
C1203 C 0.94852 0.649 0.04394 0.0
C1204 C 0.98053 0.67729 0.98956 0.0
C1205 C 0.92294 0.63446 0.05431 0.0
C1206 C 0.08891 0.74495 0.95145 0.0
C1207 C 0.06337 0.73356 0.96201 0.0
C1208 C 0.02868 0.70464 0.01451 0.0
C1209 C 0.95127 0.66256 0.02383 0.0
C1210 C 0.97857 0.6776 0.01262 0.0
C1211 C 0.05784 0.71666 0.98057 0.0
C1212 C 0.03055 0.70397 0.99154 0.0
H1213 H 0.88411 0.64542 0.0171 0.0
H1214 H 0.92899 0.67174 0.99921 0.0
H1215 H 1.0024 0.69306 0.04264 0.0
H1216 H 0.1191 0.71783 0.98368 0.0
H1217 H 0.07458 0.69826 0.00249 0.0
C1218 C 0.27792 0.91949 0.55763 0.0
C1219 C 0.26391 0.89515 0.54541 0.0
C1220 C 0.28931 0.94504 0.54721 0.0
C1221 C 0.28852 0.97916 0.49491 0.0
H1222 H 0.36003 0.03619 0.51534 0.0
C1223 C 0.35845 0.07837 0.44563 0.0
C1224 C 0.37173 0.10306 0.45751 0.0
C1225 C 0.34374 0.05323 0.45661 0.0
C1226 C 0.33993 0.02059 0.5096 0.0
H1227 H 0.25008 0.87797 0.51303 0.0
H1228 H 0.27058 0.92267 0.4945 0.0
H1229 H 0.33719 0.99181 0.53385 0.0
H1230 H 0.37993 0.12131 0.48988 0.0
H1231 H 0.35432 0.07723 0.50928 0.0
H1232 H 0.29179 0.00795 0.47026 0.0
C1233 C 0.27244 0.9222 0.51218 0.0
C1234 C 0.32675 0.99512 0.52024 0.0
C1235 C 0.26082 0.89661 0.5227 0.0
C1236 C 0.36986 0.1024 0.48048 0.0
C1237 C 0.35535 0.07724 0.49151 0.0
C1238 C 0.30185 0.00459 0.48414 0.0
C1239 C 0.28713 0.94677 0.52429 0.0
C1240 C 0.30086 0.97404 0.51306 0.0
C1241 C 0.34224 0.05237 0.47968 0.0
C1242 C 0.3277 0.02557 0.49137 0.0
H1243 H 0.28027 0.9187 0.57524 0.0
H1244 H 0.2999 0.96345 0.55715 0.0
H1245 H 0.26844 0.96361 0.48911 0.0
H1246 H 0.35962 0.07856 0.42785 0.0
H1247 H 0.33406 0.03442 0.44706 0.0
C1248 C 0.27048 0.37167 0.97986 0.0
C1249 C 0.26885 0.37122 0.95688 0.0
C1250 C 0.28139 0.35725 0.99069 0.0
C1251 C 0.32616 0.32718 0.98087 0.0
H1252 H 0.29693 0.29136 0.03684 0.0
C1253 C 0.36526 0.26147 0.02404 0.0
C1254 C 0.37113 0.26682 0.04648 0.0
C1255 C 0.35105 0.27236 0.01288 0.0
C1256 C 0.30539 0.30139 0.02127 0.0
H1257 H 0.27634 0.35505 0.92707 0.0
H1258 H 0.29486 0.32932 0.94586 0.0
H1259 H 0.27515 0.31374 0.01775 0.0
H1260 H 0.36619 0.28672 0.07515 0.0
H1261 H 0.34134 0.30583 0.05573 0.0
H1262 H 0.35636 0.31476 0.9844 0.0
C1263 C 0.28841 0.34122 0.95562 0.0
C1264 C 0.29298 0.3143 0.01035 0.0
C1265 C 0.27767 0.35576 0.94485 0.0
C1266 C 0.36198 0.28253 0.05777 0.0
C1267 C 0.34763 0.29326 0.04669 0.0
C1268 C 0.33845 0.31414 0.99172 0.0
C1269 C 0.29069 0.342 0.97868 0.0
C1270 C 0.30332 0.32752 0.99007 0.0
C1271 C 0.34226 0.28855 0.02407 0.0
C1272 C 0.32833 0.30126 0.01211 0.0
H1273 H 0.26382 0.3836 0.98938 0.0
H1274 H 0.28313 0.35862 0.00842 0.0
H1275 H 0.33502 0.33757 0.96549 0.0
H1276 H 0.3721 0.24928 0.01508 0.0
H1277 H 0.34696 0.26814 0.9955 0.0
C1278 C 0.10752 0.36952 0.52063 0.0
C1279 C 0.10761 0.37046 0.54364 0.0
C1280 C 0.08261 0.35562 0.50917 0.0
C1281 C 0.00924 0.30285 0.51539 0.0
H1282 H 0.99846 0.34031 0.46618 0.0
C1283 C 0.90206 0.2663 0.47711 0.0
C1284 C 0.90067 0.26918 0.45435 0.0
C1285 C 0.9276 0.27723 0.48758 0.0
C1286 C 1.00122 0.32932 0.47965 0.0
H1287 H 0.08235 0.35738 0.5729 0.0
H1288 H 0.03869 0.33297 0.55296 0.0
H1289 H 0.0427 0.36156 0.48496 0.0
H1290 H 0.92431 0.28462 0.42444 0.0
H1291 H 0.96903 0.3033 0.44252 0.0
H1292 H 0.96778 0.27057 0.51009 0.0
C1293 C 0.05773 0.3428 0.5437 0.0
C1294 C 0.0266 0.34155 0.49043 0.0
C1295 C 0.08261 0.35685 0.5551 0.0
C1296 C 0.92505 0.2825 0.44208 0.0
C1297 C 0.95058 0.29328 0.45248 0.0
C1298 C 0.98388 0.29052 0.50452 0.0
C1299 C 0.05742 0.34226 0.52059 0.0
C1300 C 0.03084 0.32856 0.50852 0.0
C1301 C 0.95222 0.29106 0.47541 0.0
C1302 C 0.97947 0.30369 0.4866 0.0
H1303 H 0.12668 0.37992 0.51154 0.0
H1304 H 0.08303 0.35532 0.49138 0.0
H1305 H 0.01199 0.29218 0.52911 0.0
H1306 H 0.88339 0.25607 0.48681 0.0
H1307 H 0.92804 0.2754 0.50526 0.0
loop_
_geom_bond_atom_site_label_1
_geom_bond_atom_site_label_2
_geom_bond_distance
_geom_bond_site_symmetry_2
_ccdc_geom_bond_type
Co0 O3 1.970 . S
Co0 N17 1.989 . S
Co0 O25 1.967 . S
Co0 O32 1.920 . S
Co1 O4 1.966 . S
Co1 N10 2.022 . S
Co1 N18 1.993 . S
Co1 O26 1.941 . S
C2 O3 1.258 . S
C2 O4 1.263 . S
O3 Co0 1.970 . S
O3 C2 1.258 . S
O4 Co1 1.966 . S
O4 C2 1.263 . S
C5 O6 1.235 . S
C5 O32 1.289 . S
O6 C5 1.235 . S
C7 C9 1.400 . S
C7 N10 1.351 . S
C7 C12 1.501 . S
C8 C9 1.387 . S
C8 N11 1.341 . S
C9 C7 1.400 . S
C9 C8 1.387 . S
N10 Co1 2.022 . S
N10 C7 1.351 . S
N10 N11 1.365 . S
N11 C8 1.341 . S
N11 N10 1.365 . S
N11 H31 0.862 . S
C12 C7 1.501 . S
C12 H13 0.961 . S
C12 H14 0.961 . S
C12 H15 0.960 . S
H13 C12 0.961 . S
H14 C12 0.961 . S
H15 C12 0.960 . S
C16 N17 1.342 . S
C16 C20 1.401 . S
C16 C21 1.499 . S
N17 Co0 1.989 . S
N17 C16 1.342 . S
N17 N18 1.388 . S
N18 Co1 1.993 . S
N18 N17 1.388 . S
N18 C19 1.346 . S
C19 N18 1.346 . S
C19 C20 1.396 . S
C19 C29 1.510 . S
C20 C16 1.401 . S
C20 C19 1.396 . S
C21 C16 1.499 . S
C21 H22 0.959 . S
C21 H23 0.960 . S
C21 H24 0.961 . S
H22 C21 0.959 . S
H23 C21 0.960 . S
H24 C21 0.961 . S
O25 Co0 1.967 . S
O25 C33 1.258 . S
O26 Co1 1.941 . S
O26 C33 1.266 . S
H27 C29 0.959 . S
H28 C29 0.961 . S
C29 C19 1.510 . S
C29 H27 0.959 . S
C29 H28 0.961 . S
C29 H30 0.960 . S
H30 C29 0.960 . S
H31 N11 0.862 . S
O32 Co0 1.920 . S
O32 C5 1.289 . S
C33 O25 1.258 . S
C33 O26 1.266 . S
Co34 O37 1.970 . S
Co34 N51 1.989 . S
Co34 O59 1.967 . S
Co34 O66 1.920 . S
Co35 O38 1.966 . S
Co35 N44 2.022 . S
Co35 N52 1.993 . S
Co35 O60 1.941 . S
C36 O37 1.258 . S
C36 O38 1.263 . S
O37 Co34 1.970 . S
O37 C36 1.258 . S
O38 Co35 1.966 . S
O38 C36 1.263 . S
C39 O40 1.235 . S
C39 O66 1.289 . S
O40 C39 1.235 . S
C41 C43 1.400 . S
C41 N44 1.351 . S
C41 C46 1.501 . S
C42 C43 1.387 . S
C42 N45 1.341 . S
C43 C41 1.400 . S
C43 C42 1.387 . S
N44 Co35 2.022 . S
N44 C41 1.351 . S
N44 N45 1.365 . S
N45 C42 1.341 . S
N45 N44 1.365 . S
N45 H65 0.862 . S
C46 C41 1.501 . S
C46 H47 0.961 . S
C46 H48 0.961 . S
C46 H49 0.960 . S
H47 C46 0.961 . S
H48 C46 0.961 . S
H49 C46 0.960 . S
C50 N51 1.342 . S
C50 C54 1.401 . S
C50 C55 1.499 . S
N51 Co34 1.989 . S
N51 C50 1.342 . S
N51 N52 1.388 . S
N52 Co35 1.993 . S
N52 N51 1.388 . S
N52 C53 1.346 . S
C53 N52 1.346 . S
C53 C54 1.396 . S
C53 C63 1.510 . S
C54 C50 1.401 . S
C54 C53 1.396 . S
C55 C50 1.499 . S
C55 H56 0.959 . S
C55 H57 0.960 . S
C55 H58 0.961 . S
H56 C55 0.959 . S
H57 C55 0.960 . S
H58 C55 0.961 . S
O59 Co34 1.967 . S
O59 C67 1.258 . S
O60 Co35 1.941 . S
O60 C67 1.266 . S
H61 C63 0.959 . S
H62 C63 0.961 . S
C63 C53 1.510 . S
C63 H61 0.959 . S
C63 H62 0.961 . S
C63 H64 0.960 . S
H64 C63 0.960 . S
H65 N45 0.862 . S
O66 Co34 1.920 . S
O66 C39 1.289 . S
C67 O59 1.258 . S
C67 O60 1.266 . S
Co68 O71 1.970 . S
Co68 N85 1.989 . S
Co68 O93 1.967 . S
Co68 O100 1.920 . S
Co69 O72 1.966 . S
Co69 N78 2.022 . S
Co69 N86 1.993 . S
Co69 O94 1.941 . S
C70 O71 1.258 . S
C70 O72 1.263 . S
O71 Co68 1.970 . S
O71 C70 1.258 . S
O72 Co69 1.966 . S
O72 C70 1.263 . S
C73 O74 1.235 . S
C73 O100 1.289 . S
O74 C73 1.235 . S
C75 C77 1.400 . S
C75 N78 1.351 . S
C75 C80 1.501 . S
C76 C77 1.387 . S
C76 N79 1.341 . S
C77 C75 1.400 . S
C77 C76 1.387 . S
N78 Co69 2.022 . S
N78 C75 1.351 . S
N78 N79 1.365 . S
N79 C76 1.341 . S
N79 N78 1.365 . S
N79 H99 0.862 . S
C80 C75 1.501 . S
C80 H81 0.961 . S
C80 H82 0.961 . S
C80 H83 0.960 . S
H81 C80 0.961 . S
H82 C80 0.961 . S
H83 C80 0.960 . S
C84 N85 1.342 . S
C84 C88 1.401 . S
C84 C89 1.499 . S
N85 Co68 1.989 . S
N85 C84 1.342 . S
N85 N86 1.388 . S
N86 Co69 1.993 . S
N86 N85 1.388 . S
N86 C87 1.346 . S
C87 N86 1.346 . S
C87 C88 1.396 . S
C87 C97 1.510 . S
C88 C84 1.401 . S
C88 C87 1.396 . S
C89 C84 1.499 . S
C89 H90 0.959 . S
C89 H91 0.960 . S
C89 H92 0.961 . S
H90 C89 0.959 . S
H91 C89 0.960 . S
H92 C89 0.961 . S
O93 Co68 1.967 . S
O93 C101 1.258 . S
O94 Co69 1.941 . S
O94 C101 1.266 . S
H95 C97 0.959 . S
H96 C97 0.961 . S
C97 C87 1.510 . S
C97 H95 0.959 . S
C97 H96 0.961 . S
C97 H98 0.960 . S
H98 C97 0.960 . S
H99 N79 0.862 . S
O100 Co68 1.920 . S
O100 C73 1.289 . S
C101 O93 1.258 . S
C101 O94 1.266 . S
Co102 O105 1.970 . S
Co102 N119 1.989 . S
Co102 O127 1.967 . S
Co102 O134 1.920 . S
Co103 O106 1.966 . S
Co103 N112 2.022 . S
Co103 N120 1.993 . S
Co103 O128 1.941 . S
C104 O105 1.258 . S
C104 O106 1.263 . S
O105 Co102 1.970 . S
O105 C104 1.258 . S
O106 Co103 1.966 . S
O106 C104 1.263 . S
C107 O108 1.235 . S
C107 O134 1.289 . S
O108 C107 1.235 . S
C109 C111 1.400 . S
C109 N112 1.351 . S
C109 C114 1.501 . S
C110 C111 1.387 . S
C110 N113 1.341 . S
C111 C109 1.400 . S
C111 C110 1.387 . S
N112 Co103 2.022 . S
N112 C109 1.351 . S
N112 N113 1.365 . S
N113 C110 1.341 . S
N113 N112 1.365 . S
N113 H133 0.862 . S
C114 C109 1.501 . S
C114 H115 0.961 . S
C114 H116 0.961 . S
C114 H117 0.960 . S
H115 C114 0.961 . S
H116 C114 0.961 . S
H117 C114 0.960 . S
C118 N119 1.342 . S
C118 C122 1.401 . S
C118 C123 1.499 . S
N119 Co102 1.989 . S
N119 C118 1.342 . S
N119 N120 1.388 . S
N120 Co103 1.993 . S
N120 N119 1.388 . S
N120 C121 1.346 . S
C121 N120 1.346 . S
C121 C122 1.396 . S
C121 C131 1.510 . S
C122 C118 1.401 . S
C122 C121 1.396 . S
C123 C118 1.499 . S
C123 H124 0.959 . S
C123 H125 0.960 . S
C123 H126 0.961 . S
H124 C123 0.959 . S
H125 C123 0.960 . S
H126 C123 0.961 . S
O127 Co102 1.967 . S
O127 C135 1.258 . S
O128 Co103 1.941 . S
O128 C135 1.266 . S
H129 C131 0.959 . S
H130 C131 0.961 . S
C131 C121 1.510 . S
C131 H129 0.959 . S
C131 H130 0.961 . S
C131 H132 0.960 . S
H132 C131 0.960 . S
H133 N113 0.862 . S
O134 Co102 1.920 . S
O134 C107 1.289 . S
C135 O127 1.258 . S
C135 O128 1.266 . S
Co136 O139 1.970 . S
Co136 N153 1.989 . S
Co136 O161 1.967 . S
Co136 O168 1.920 . S
Co137 O140 1.966 . S
Co137 N146 2.022 . S
Co137 N154 1.993 . S
Co137 O162 1.941 . S
C138 O139 1.258 . S
C138 O140 1.263 . S
O139 Co136 1.970 . S
O139 C138 1.258 . S
O140 Co137 1.966 . S
O140 C138 1.263 . S
C141 O142 1.235 . S
C141 O168 1.289 . S
O142 C141 1.235 . S
C143 C145 1.400 . S
C143 N146 1.351 . S
C143 C148 1.501 . S
C144 C145 1.387 . S
C144 N147 1.341 . S
C145 C143 1.400 . S
C145 C144 1.387 . S
N146 Co137 2.022 . S
N146 C143 1.351 . S
N146 N147 1.365 . S
N147 C144 1.341 . S
N147 N146 1.365 . S
N147 H167 0.862 . S
C148 C143 1.501 . S
C148 H149 0.961 . S
C148 H150 0.961 . S
C148 H151 0.960 . S
H149 C148 0.961 . S
H150 C148 0.961 . S
H151 C148 0.960 . S
C152 N153 1.342 . S
C152 C156 1.401 . S
C152 C157 1.499 . S
N153 Co136 1.989 . S
N153 C152 1.342 . S
N153 N154 1.388 . S
N154 Co137 1.993 . S
N154 N153 1.388 . S
N154 C155 1.346 . S
C155 N154 1.346 . S
C155 C156 1.396 . S
C155 C165 1.510 . S
C156 C152 1.401 . S
C156 C155 1.396 . S
C157 C152 1.499 . S
C157 H158 0.959 . S
C157 H159 0.960 . S
C157 H160 0.961 . S
H158 C157 0.959 . S
H159 C157 0.960 . S
H160 C157 0.961 . S
O161 Co136 1.967 . S
O161 C169 1.258 . S
O162 Co137 1.941 . S
O162 C169 1.266 . S
H163 C165 0.959 . S
H164 C165 0.961 . S
C165 C155 1.510 . S
C165 H163 0.959 . S
C165 H164 0.961 . S
C165 H166 0.960 . S
H166 C165 0.960 . S
H167 N147 0.862 . S
O168 Co136 1.920 . S
O168 C141 1.289 . S
C169 O161 1.258 . S
C169 O162 1.266 . S
Co170 O173 1.970 . S
Co170 N187 1.989 . S
Co170 O195 1.967 . S
Co170 O202 1.920 . S
Co171 O174 1.966 . S
Co171 N180 2.022 . S
Co171 N188 1.993 . S
Co171 O196 1.941 . S
C172 O173 1.258 . S
C172 O174 1.263 . S
O173 Co170 1.970 . S
O173 C172 1.258 . S
O174 Co171 1.966 . S
O174 C172 1.263 . S
C175 O176 1.235 . S
C175 O202 1.289 . S
O176 C175 1.235 . S
C177 C179 1.400 . S
C177 N180 1.351 . S
C177 C182 1.501 . S
C178 C179 1.387 . S
C178 N181 1.341 . S
C179 C177 1.400 . S
C179 C178 1.387 . S
N180 Co171 2.022 . S
N180 C177 1.351 . S
N180 N181 1.365 . S
N181 C178 1.341 . S
N181 N180 1.365 . S
N181 H201 0.862 . S
C182 C177 1.501 . S
C182 H183 0.961 . S
C182 H184 0.961 . S
C182 H185 0.960 . S
H183 C182 0.961 . S
H184 C182 0.961 . S
H185 C182 0.960 . S
C186 N187 1.342 . S
C186 C190 1.401 . S
C186 C191 1.499 . S
N187 Co170 1.989 . S
N187 C186 1.342 . S
N187 N188 1.388 . S
N188 Co171 1.993 . S
N188 N187 1.388 . S
N188 C189 1.346 . S
C189 N188 1.346 . S
C189 C190 1.396 . S
C189 C199 1.510 . S
C190 C186 1.401 . S
C190 C189 1.396 . S
C191 C186 1.499 . S
C191 H192 0.959 . S
C191 H193 0.960 . S
C191 H194 0.961 . S
H192 C191 0.959 . S
H193 C191 0.960 . S
H194 C191 0.961 . S
O195 Co170 1.967 . S
O195 C203 1.258 . S
O196 Co171 1.941 . S
O196 C203 1.266 . S
H197 C199 0.959 . S
H198 C199 0.961 . S
C199 C189 1.510 . S
C199 H197 0.959 . S
C199 H198 0.961 . S
C199 H200 0.960 . S
H200 C199 0.960 . S
H201 N181 0.862 . S
O202 Co170 1.920 . S
O202 C175 1.289 . S
C203 O195 1.258 . S
C203 O196 1.266 . S
Co204 O207 1.970 . S
Co204 N221 1.989 . S
Co204 O229 1.967 . S
Co204 O236 1.920 . S
Co205 O208 1.966 . S
Co205 N214 2.022 . S
Co205 N222 1.993 . S
Co205 O230 1.941 . S
C206 O207 1.258 . S
C206 O208 1.263 . S
O207 Co204 1.970 . S
O207 C206 1.258 . S
O208 Co205 1.966 . S
O208 C206 1.263 . S
C209 O210 1.235 . S
C209 O236 1.289 . S
O210 C209 1.235 . S
C211 C213 1.400 . S
C211 N214 1.351 . S
C211 C216 1.501 . S
C212 C213 1.387 . S
C212 N215 1.341 . S
C213 C211 1.400 . S
C213 C212 1.387 . S
N214 Co205 2.022 . S
N214 C211 1.351 . S
N214 N215 1.365 . S
N215 C212 1.341 . S
N215 N214 1.365 . S
N215 H235 0.862 . S
C216 C211 1.501 . S
C216 H217 0.961 . S
C216 H218 0.961 . S
C216 H219 0.960 . S
H217 C216 0.961 . S
H218 C216 0.961 . S
H219 C216 0.960 . S
C220 N221 1.342 . S
C220 C224 1.401 . S
C220 C225 1.499 . S
N221 Co204 1.989 . S
N221 C220 1.342 . S
N221 N222 1.388 . S
N222 Co205 1.993 . S
N222 N221 1.388 . S
N222 C223 1.346 . S
C223 N222 1.346 . S
C223 C224 1.396 . S
C223 C233 1.510 . S
C224 C220 1.401 . S
C224 C223 1.396 . S
C225 C220 1.499 . S
C225 H226 0.959 . S
C225 H227 0.960 . S
C225 H228 0.961 . S
H226 C225 0.959 . S
H227 C225 0.960 . S
H228 C225 0.961 . S
O229 Co204 1.967 . S
O229 C237 1.258 . S
O230 Co205 1.941 . S
O230 C237 1.266 . S
H231 C233 0.959 . S
H232 C233 0.961 . S
C233 C223 1.510 . S
C233 H231 0.959 . S
C233 H232 0.961 . S
C233 H234 0.960 . S
H234 C233 0.960 . S
H235 N215 0.862 . S
O236 Co204 1.920 . S
O236 C209 1.289 . S
C237 O229 1.258 . S
C237 O230 1.266 . S
Co238 O241 1.970 . S
Co238 N255 1.989 . S
Co238 O263 1.967 . S
Co238 O270 1.920 . S
Co239 O242 1.966 . S
Co239 N248 2.022 . S
Co239 N256 1.993 . S
Co239 O264 1.941 . S
C240 O241 1.258 . S
C240 O242 1.263 . S
O241 Co238 1.970 . S
O241 C240 1.258 . S
O242 Co239 1.966 . S
O242 C240 1.263 . S
C243 O244 1.235 . S
C243 O270 1.289 . S
O244 C243 1.235 . S
C245 C247 1.400 . S
C245 N248 1.351 . S
C245 C250 1.501 . S
C246 C247 1.387 . S
C246 N249 1.341 . S
C247 C245 1.400 . S
C247 C246 1.387 . S
N248 Co239 2.022 . S
N248 C245 1.351 . S
N248 N249 1.365 . S
N249 C246 1.341 . S
N249 N248 1.365 . S
N249 H269 0.862 . S
C250 C245 1.501 . S
C250 H251 0.961 . S
C250 H252 0.961 . S
C250 H253 0.960 . S
H251 C250 0.961 . S
H252 C250 0.961 . S
H253 C250 0.960 . S
C254 N255 1.342 . S
C254 C258 1.401 . S
C254 C259 1.499 . S
N255 Co238 1.989 . S
N255 C254 1.342 . S
N255 N256 1.388 . S
N256 Co239 1.993 . S
N256 N255 1.388 . S
N256 C257 1.346 . S
C257 N256 1.346 . S
C257 C258 1.396 . S
C257 C267 1.510 . S
C258 C254 1.401 . S
C258 C257 1.396 . S
C259 C254 1.499 . S
C259 H260 0.959 . S
C259 H261 0.960 . S
C259 H262 0.961 . S
H260 C259 0.959 . S
H261 C259 0.960 . S
H262 C259 0.961 . S
O263 Co238 1.967 . S
O263 C271 1.258 . S
O264 Co239 1.941 . S
O264 C271 1.266 . S
H265 C267 0.959 . S
H266 C267 0.961 . S
C267 C257 1.510 . S
C267 H265 0.959 . S
C267 H266 0.961 . S
C267 H268 0.960 . S
H268 C267 0.960 . S
H269 N249 0.862 . S
O270 Co238 1.920 . S
O270 C243 1.289 . S
C271 O263 1.258 . S
C271 O264 1.266 . S
Co272 O275 1.970 . S
Co272 N289 1.989 . S
Co272 O297 1.967 . S
Co272 O304 1.920 . S
Co273 O276 1.966 . S
Co273 N282 2.022 . S
Co273 N290 1.993 . S
Co273 O298 1.941 . S
C274 O275 1.258 . S
C274 O276 1.263 . S
O275 Co272 1.970 . S
O275 C274 1.258 . S
O276 Co273 1.966 . S
O276 C274 1.263 . S
C277 O278 1.235 . S
C277 O304 1.289 . S
O278 C277 1.235 . S
C279 C281 1.400 . S
C279 N282 1.351 . S
C279 C284 1.501 . S
C280 C281 1.387 . S
C280 N283 1.341 . S
C281 C279 1.400 . S
C281 C280 1.387 . S
N282 Co273 2.022 . S
N282 C279 1.351 . S
N282 N283 1.365 . S
N283 C280 1.341 . S
N283 N282 1.365 . S
N283 H303 0.862 . S
C284 C279 1.501 . S
C284 H285 0.961 . S
C284 H286 0.961 . S
C284 H287 0.960 . S
H285 C284 0.961 . S
H286 C284 0.961 . S
H287 C284 0.960 . S
C288 N289 1.342 . S
C288 C292 1.401 . S
C288 C293 1.499 . S
N289 Co272 1.989 . S
N289 C288 1.342 . S
N289 N290 1.388 . S
N290 Co273 1.993 . S
N290 N289 1.388 . S
N290 C291 1.346 . S
C291 N290 1.346 . S
C291 C292 1.396 . S
C291 C301 1.510 . S
C292 C288 1.401 . S
C292 C291 1.396 . S
C293 C288 1.499 . S
C293 H294 0.959 . S
C293 H295 0.960 . S
C293 H296 0.961 . S
H294 C293 0.959 . S
H295 C293 0.960 . S
H296 C293 0.961 . S
O297 Co272 1.967 . S
O297 C305 1.258 . S
O298 Co273 1.941 . S
O298 C305 1.266 . S
H299 C301 0.959 . S
H300 C301 0.961 . S
C301 C291 1.510 . S
C301 H299 0.959 . S
C301 H300 0.961 . S
C301 H302 0.960 . S
H302 C301 0.960 . S
H303 N283 0.862 . S
O304 Co272 1.920 . S
O304 C277 1.289 . S
C305 O297 1.258 . S
C305 O298 1.266 . S
Co306 O309 1.970 . S
Co306 N323 1.989 . S
Co306 O331 1.967 . S
Co306 O338 1.920 . S
Co307 O310 1.966 . S
Co307 N316 2.022 . S
Co307 N324 1.993 . S
Co307 O332 1.941 . S
C308 O309 1.258 . S
C308 O310 1.263 . S
O309 Co306 1.970 . S
O309 C308 1.258 . S
O310 Co307 1.966 . S
O310 C308 1.263 . S
C311 O312 1.235 . S
C311 O338 1.289 . S
O312 C311 1.235 . S
C313 C315 1.400 . S
C313 N316 1.351 . S
C313 C318 1.501 . S
C314 C315 1.387 . S
C314 N317 1.341 . S
C315 C313 1.400 . S
C315 C314 1.387 . S
N316 Co307 2.022 . S
N316 C313 1.351 . S
N316 N317 1.365 . S
N317 C314 1.341 . S
N317 N316 1.365 . S
N317 H337 0.862 . S
C318 C313 1.501 . S
C318 H319 0.961 . S
C318 H320 0.961 . S
C318 H321 0.960 . S
H319 C318 0.961 . S
H320 C318 0.961 . S
H321 C318 0.960 . S
C322 N323 1.342 . S
C322 C326 1.401 . S
C322 C327 1.499 . S
N323 Co306 1.989 . S
N323 C322 1.342 . S
N323 N324 1.388 . S
N324 Co307 1.993 . S
N324 N323 1.388 . S
N324 C325 1.346 . S
C325 N324 1.346 . S
C325 C326 1.396 . S
C325 C335 1.510 . S
C326 C322 1.401 . S
C326 C325 1.396 . S
C327 C322 1.499 . S
C327 H328 0.959 . S
C327 H329 0.960 . S
C327 H330 0.961 . S
H328 C327 0.959 . S
H329 C327 0.960 . S
H330 C327 0.961 . S
O331 Co306 1.967 . S
O331 C339 1.258 . S
O332 Co307 1.941 . S
O332 C339 1.266 . S
H333 C335 0.959 . S
H334 C335 0.961 . S
C335 C325 1.510 . S
C335 H333 0.959 . S
C335 H334 0.961 . S
C335 H336 0.960 . S
H336 C335 0.960 . S
H337 N317 0.862 . S
O338 Co306 1.920 . S
O338 C311 1.289 . S
C339 O331 1.258 . S
C339 O332 1.266 . S
Co340 O343 1.970 . S
Co340 N357 1.989 . S
Co340 O365 1.967 . S
Co340 O372 1.920 . S
Co341 O344 1.966 . S
Co341 N350 2.022 . S
Co341 N358 1.993 . S
Co341 O366 1.941 . S
C342 O343 1.258 . S
C342 O344 1.263 . S
O343 Co340 1.970 . S
O343 C342 1.258 . S
O344 Co341 1.966 . S
O344 C342 1.263 . S
C345 O346 1.235 . S
C345 O372 1.289 . S
O346 C345 1.235 . S
C347 C349 1.400 . S
C347 N350 1.351 . S
C347 C352 1.501 . S
C348 C349 1.387 . S
C348 N351 1.341 . S
C349 C347 1.400 . S
C349 C348 1.387 . S
N350 Co341 2.022 . S
N350 C347 1.351 . S
N350 N351 1.365 . S
N351 C348 1.341 . S
N351 N350 1.365 . S
N351 H371 0.862 . S
C352 C347 1.501 . S
C352 H353 0.961 . S
C352 H354 0.961 . S
C352 H355 0.960 . S
H353 C352 0.961 . S
H354 C352 0.961 . S
H355 C352 0.960 . S
C356 N357 1.342 . S
C356 C360 1.401 . S
C356 C361 1.499 . S
N357 Co340 1.989 . S
N357 C356 1.342 . S
N357 N358 1.388 . S
N358 Co341 1.993 . S
N358 N357 1.388 . S
N358 C359 1.346 . S
C359 N358 1.346 . S
C359 C360 1.396 . S
C359 C369 1.510 . S
C360 C356 1.401 . S
C360 C359 1.396 . S
C361 C356 1.499 . S
C361 H362 0.959 . S
C361 H363 0.960 . S
C361 H364 0.961 . S
H362 C361 0.959 . S
H363 C361 0.960 . S
H364 C361 0.961 . S
O365 Co340 1.967 . S
O365 C373 1.258 . S
O366 Co341 1.941 . S
O366 C373 1.266 . S
H367 C369 0.959 . S
H368 C369 0.961 . S
C369 C359 1.510 . S
C369 H367 0.959 . S
C369 H368 0.961 . S
C369 H370 0.960 . S
H370 C369 0.960 . S
H371 N351 0.862 . S
O372 Co340 1.920 . S
O372 C345 1.289 . S
C373 O365 1.258 . S
C373 O366 1.266 . S
Co374 O377 1.970 . S
Co374 N391 1.989 . S
Co374 O399 1.967 . S
Co374 O406 1.920 . S
Co375 O378 1.966 . S
Co375 N384 2.022 . S
Co375 N392 1.993 . S
Co375 O400 1.941 . S
C376 O377 1.258 . S
C376 O378 1.263 . S
O377 Co374 1.970 . S
O377 C376 1.258 . S
O378 Co375 1.966 . S
O378 C376 1.263 . S
C379 O380 1.235 . S
C379 O406 1.289 . S
O380 C379 1.235 . S
C381 C383 1.400 . S
C381 N384 1.351 . S
C381 C386 1.501 . S
C382 C383 1.387 . S
C382 N385 1.341 . S
C383 C381 1.400 . S
C383 C382 1.387 . S
N384 Co375 2.022 . S
N384 C381 1.351 . S
N384 N385 1.365 . S
N385 C382 1.341 . S
N385 N384 1.365 . S
N385 H405 0.862 . S
C386 C381 1.501 . S
C386 H387 0.961 . S
C386 H388 0.961 . S
C386 H389 0.960 . S
H387 C386 0.961 . S
H388 C386 0.961 . S
H389 C386 0.960 . S
C390 N391 1.342 . S
C390 C394 1.401 . S
C390 C395 1.499 . S
N391 Co374 1.989 . S
N391 C390 1.342 . S
N391 N392 1.388 . S
N392 Co375 1.993 . S
N392 N391 1.388 . S
N392 C393 1.346 . S
C393 N392 1.346 . S
C393 C394 1.396 . S
C393 C403 1.510 . S
C394 C390 1.401 . S
C394 C393 1.396 . S
C395 C390 1.499 . S
C395 H396 0.959 . S
C395 H397 0.960 . S
C395 H398 0.961 . S
H396 C395 0.959 . S
H397 C395 0.960 . S
H398 C395 0.961 . S
O399 Co374 1.967 . S
O399 C407 1.258 . S
O400 Co375 1.941 . S
O400 C407 1.266 . S
H401 C403 0.959 . S
H402 C403 0.961 . S
C403 C393 1.510 . S
C403 H401 0.959 . S
C403 H402 0.961 . S
C403 H404 0.960 . S
H404 C403 0.960 . S
H405 N385 0.862 . S
O406 Co374 1.920 . S
O406 C379 1.289 . S
C407 O399 1.258 . S
C407 O400 1.266 . S
C408 C409 1.349 . S
C408 C410 1.327 . S
C408 H433 0.950 . S
C409 C408 1.349 . S
C409 C425 1.349 . S
C410 C408 1.327 . S
C410 C429 1.429 . S
C410 H434 0.950 . S
C411 C428 1.574 . S
C411 C430 1.368 . S
C411 H435 0.949 . S
H412 C416 0.949 . S
C413 C414 1.349 . S
C413 C415 1.327 . S
C413 H436 0.950 . S
C414 C413 1.349 . S
C414 C426 1.349 . S
C415 C413 1.327 . S
C415 C431 1.429 . S
C415 H437 0.950 . S
C416 H412 0.949 . S
C416 C424 1.574 . S
C416 C432 1.368 . S
H417 C425 0.950 . S
H418 C423 0.950 . S
H419 C424 0.949 . S
H420 C426 0.950 . S
H421 C427 0.950 . S
H422 C428 0.949 . S
C423 H418 0.950 . S
C423 C425 1.327 . S
C423 C429 1.429 . S
C424 C416 1.574 . S
C424 H419 0.949 . S
C424 C430 1.368 . S
C425 C409 1.349 . S
C425 H417 0.950 . S
C425 C423 1.327 . S
C426 C414 1.349 . S
C426 H420 0.950 . S
C426 C427 1.327 . S
C427 H421 0.950 . S
C427 C426 1.327 . S
C427 C431 1.429 . S
C428 C411 1.574 . S
C428 H422 0.949 . S
C428 C432 1.368 . S
C429 C410 1.429 . S
C429 C423 1.429 . S
C429 C430 1.523 . S
C430 C411 1.368 . S
C430 C424 1.368 . S
C430 C429 1.523 . S
C431 C415 1.429 . S
C431 C427 1.429 . S
C431 C432 1.523 . S
C432 C416 1.368 . S
C432 C428 1.368 . S
C432 C431 1.523 . S
H433 C408 0.950 . S
H434 C410 0.950 . S
H435 C411 0.949 . S
H436 C413 0.950 . S
H437 C415 0.950 . S
C438 C439 1.349 . S
C438 C440 1.327 . S
C438 H463 0.950 . S
C439 C438 1.349 . S
C439 C455 1.349 . S
C440 C438 1.327 . S
C440 C459 1.429 . S
C440 H464 0.950 . S
C441 C458 1.574 . S
C441 C460 1.368 . S
C441 H465 0.949 . S
H442 C446 0.949 . S
C443 C444 1.349 . S
C443 C445 1.327 . S
C443 H466 0.950 . S
C444 C443 1.349 . S
C444 C456 1.349 . S
C445 C443 1.327 . S
C445 C461 1.429 . S
C445 H467 0.950 . S
C446 H442 0.949 . S
C446 C454 1.574 . S
C446 C462 1.368 . S
H447 C455 0.950 . S
H448 C453 0.950 . S
H449 C454 0.949 . S
H450 C456 0.950 . S
H451 C457 0.950 . S
H452 C458 0.949 . S
C453 H448 0.950 . S
C453 C455 1.327 . S
C453 C459 1.429 . S
C454 C446 1.574 . S
C454 H449 0.949 . S
C454 C460 1.368 . S
C455 C439 1.349 . S
C455 H447 0.950 . S
C455 C453 1.327 . S
C456 C444 1.349 . S
C456 H450 0.950 . S
C456 C457 1.327 . S
C457 H451 0.950 . S
C457 C456 1.327 . S
C457 C461 1.429 . S
C458 C441 1.574 . S
C458 H452 0.949 . S
C458 C462 1.368 . S
C459 C440 1.429 . S
C459 C453 1.429 . S
C459 C460 1.523 . S
C460 C441 1.368 . S
C460 C454 1.368 . S
C460 C459 1.523 . S
C461 C445 1.429 . S
C461 C457 1.429 . S
C461 C462 1.523 . S
C462 C446 1.368 . S
C462 C458 1.368 . S
C462 C461 1.523 . S
H463 C438 0.950 . S
H464 C440 0.950 . S
H465 C441 0.949 . S
H466 C443 0.950 . S
H467 C445 0.950 . S
C468 C469 1.349 . S
C468 C470 1.327 . S
C468 H493 0.950 . S
C469 C468 1.349 . S
C469 C485 1.349 . S
C470 C468 1.327 . S
C470 C489 1.429 . S
C470 H494 0.950 . S
C471 C488 1.574 . S
C471 C490 1.368 . S
C471 H495 0.949 . S
H472 C476 0.949 . S
C473 C474 1.349 . S
C473 C475 1.327 . S
C473 H496 0.950 . S
C474 C473 1.349 . S
C474 C486 1.349 . S
C475 C473 1.327 . S
C475 C491 1.429 . S
C475 H497 0.950 . S
C476 H472 0.949 . S
C476 C484 1.574 . S
C476 C492 1.368 . S
H477 C485 0.950 . S
H478 C483 0.950 . S
H479 C484 0.949 . S
H480 C486 0.950 . S
H481 C487 0.950 . S
H482 C488 0.949 . S
C483 H478 0.950 . S
C483 C485 1.327 . S
C483 C489 1.429 . S
C484 C476 1.574 . S
C484 H479 0.949 . S
C484 C490 1.368 . S
C485 C469 1.349 . S
C485 H477 0.950 . S
C485 C483 1.327 . S
C486 C474 1.349 . S
C486 H480 0.950 . S
C486 C487 1.327 . S
C487 H481 0.950 . S
C487 C486 1.327 . S
C487 C491 1.429 . S
C488 C471 1.574 . S
C488 H482 0.949 . S
C488 C492 1.368 . S
C489 C470 1.429 . S
C489 C483 1.429 . S
C489 C490 1.523 . S
C490 C471 1.368 . S
C490 C484 1.368 . S
C490 C489 1.523 . S
C491 C475 1.429 . S
C491 C487 1.429 . S
C491 C492 1.523 . S
C492 C476 1.368 . S
C492 C488 1.368 . S
C492 C491 1.523 . S
H493 C468 0.950 . S
H494 C470 0.950 . S
H495 C471 0.949 . S
H496 C473 0.950 . S
H497 C475 0.950 . S
C498 C499 1.349 . S
C498 C500 1.327 . S
C498 H523 0.950 . S
C499 C498 1.349 . S
C499 C515 1.349 . S
C500 C498 1.327 . S
C500 C519 1.429 . S
C500 H524 0.950 . S
C501 C518 1.574 . S
C501 C520 1.368 . S
C501 H525 0.949 . S
H502 C506 0.949 . S
C503 C504 1.349 . S
C503 C505 1.327 . S
C503 H526 0.950 . S
C504 C503 1.349 . S
C504 C516 1.349 . S
C505 C503 1.327 . S
C505 C521 1.429 . S
C505 H527 0.950 . S
C506 H502 0.949 . S
C506 C514 1.574 . S
C506 C522 1.368 . S
H507 C515 0.950 . S
H508 C513 0.950 . S
H509 C514 0.949 . S
H510 C516 0.950 . S
H511 C517 0.950 . S
H512 C518 0.949 . S
C513 H508 0.950 . S
C513 C515 1.327 . S
C513 C519 1.429 . S
C514 C506 1.574 . S
C514 H509 0.949 . S
C514 C520 1.368 . S
C515 C499 1.349 . S
C515 H507 0.950 . S
C515 C513 1.327 . S
C516 C504 1.349 . S
C516 H510 0.950 . S
C516 C517 1.327 . S
C517 H511 0.950 . S
C517 C516 1.327 . S
C517 C521 1.429 . S
C518 C501 1.574 . S
C518 H512 0.949 . S
C518 C522 1.368 . S
C519 C500 1.429 . S
C519 C513 1.429 . S
C519 C520 1.523 . S
C520 C501 1.368 . S
C520 C514 1.368 . S
C520 C519 1.523 . S
C521 C505 1.429 . S
C521 C517 1.429 . S
C521 C522 1.523 . S
C522 C506 1.368 . S
C522 C518 1.368 . S
C522 C521 1.523 . S
H523 C498 0.950 . S
H524 C500 0.950 . S
H525 C501 0.949 . S
H526 C503 0.950 . S
H527 C505 0.950 . S
C528 C529 1.349 . S
C528 C530 1.327 . S
C528 H553 0.950 . S
C529 C528 1.349 . S
C529 C545 1.349 . S
C530 C528 1.327 . S
C530 C549 1.429 . S
C530 H554 0.950 . S
C531 C548 1.574 . S
C531 C550 1.368 . S
C531 H555 0.949 . S
H532 C536 0.949 . S
C533 C534 1.349 . S
C533 C535 1.327 . S
C533 H556 0.950 . S
C534 C533 1.349 . S
C534 C546 1.349 . S
C535 C533 1.327 . S
C535 C551 1.429 . S
C535 H557 0.950 . S
C536 H532 0.949 . S
C536 C544 1.574 . S
C536 C552 1.368 . S
H537 C545 0.950 . S
H538 C543 0.950 . S
H539 C544 0.949 . S
H540 C546 0.950 . S
H541 C547 0.950 . S
H542 C548 0.949 . S
C543 H538 0.950 . S
C543 C545 1.327 . S
C543 C549 1.429 . S
C544 C536 1.574 . S
C544 H539 0.949 . S
C544 C550 1.368 . S
C545 C529 1.349 . S
C545 H537 0.950 . S
C545 C543 1.327 . S
C546 C534 1.349 . S
C546 H540 0.950 . S
C546 C547 1.327 . S
C547 H541 0.950 . S
C547 C546 1.327 . S
C547 C551 1.429 . S
C548 C531 1.574 . S
C548 H542 0.949 . S
C548 C552 1.368 . S
C549 C530 1.429 . S
C549 C543 1.429 . S
C549 C550 1.523 . S
C550 C531 1.368 . S
C550 C544 1.368 . S
C550 C549 1.523 . S
C551 C535 1.429 . S
C551 C547 1.429 . S
C551 C552 1.523 . S
C552 C536 1.368 . S
C552 C548 1.368 . S
C552 C551 1.523 . S
H553 C528 0.950 . S
H554 C530 0.950 . S
H555 C531 0.949 . S
H556 C533 0.950 . S
H557 C535 0.950 . S
C558 C559 1.349 . S
C558 C560 1.327 . S
C558 H583 0.950 . S
C559 C558 1.349 . S
C559 C575 1.349 . S
C560 C558 1.327 . S
C560 C579 1.429 . S
C560 H584 0.950 . S
C561 C578 1.574 . S
C561 C580 1.368 . S
C561 H585 0.949 . S
H562 C566 0.949 . S
C563 C564 1.349 . S
C563 C565 1.327 . S
C563 H586 0.950 . S
C564 C563 1.349 . S
C564 C576 1.349 . S
C565 C563 1.327 . S
C565 C581 1.429 . S
C565 H587 0.950 . S
C566 H562 0.949 . S
C566 C574 1.574 . S
C566 C582 1.368 . S
H567 C575 0.950 . S
H568 C573 0.950 . S
H569 C574 0.949 . S
H570 C576 0.950 . S
H571 C577 0.950 . S
H572 C578 0.949 . S
C573 H568 0.950 . S
C573 C575 1.327 . S
C573 C579 1.429 . S
C574 C566 1.574 . S
C574 H569 0.949 . S
C574 C580 1.368 . S
C575 C559 1.349 . S
C575 H567 0.950 . S
C575 C573 1.327 . S
C576 C564 1.349 . S
C576 H570 0.950 . S
C576 C577 1.327 . S
C577 H571 0.950 . S
C577 C576 1.327 . S
C577 C581 1.429 . S
C578 C561 1.574 . S
C578 H572 0.949 . S
C578 C582 1.368 . S
C579 C560 1.429 . S
C579 C573 1.429 . S
C579 C580 1.523 . S
C580 C561 1.368 . S
C580 C574 1.368 . S
C580 C579 1.523 . S
C581 C565 1.429 . S
C581 C577 1.429 . S
C581 C582 1.523 . S
C582 C566 1.368 . S
C582 C578 1.368 . S
C582 C581 1.523 . S
H583 C558 0.950 . S
H584 C560 0.950 . S
H585 C561 0.949 . S
H586 C563 0.950 . S
H587 C565 0.950 . S
C588 C589 1.349 . S
C588 C590 1.327 . S
C588 H613 0.950 . S
C589 C588 1.349 . S
C589 C605 1.349 . S
C590 C588 1.327 . S
C590 C609 1.429 . S
C590 H614 0.950 . S
C591 C608 1.574 . S
C591 C610 1.368 . S
C591 H615 0.949 . S
H592 C596 0.949 . S
C593 C594 1.349 . S
C593 C595 1.327 . S
C593 H616 0.950 . S
C594 C593 1.349 . S
C594 C606 1.349 . S
C595 C593 1.327 . S
C595 C611 1.429 . S
C595 H617 0.950 . S
C596 H592 0.949 . S
C596 C604 1.574 . S
C596 C612 1.368 . S
H597 C605 0.950 . S
H598 C603 0.950 . S
H599 C604 0.949 . S
H600 C606 0.950 . S
H601 C607 0.950 . S
H602 C608 0.949 . S
C603 H598 0.950 . S
C603 C605 1.327 . S
C603 C609 1.429 . S
C604 C596 1.574 . S
C604 H599 0.949 . S
C604 C610 1.368 . S
C605 C589 1.349 . S
C605 H597 0.950 . S
C605 C603 1.327 . S
C606 C594 1.349 . S
C606 H600 0.950 . S
C606 C607 1.327 . S
C607 H601 0.950 . S
C607 C606 1.327 . S
C607 C611 1.429 . S
C608 C591 1.574 . S
C608 H602 0.949 . S
C608 C612 1.368 . S
C609 C590 1.429 . S
C609 C603 1.429 . S
C609 C610 1.523 . S
C610 C591 1.368 . S
C610 C604 1.368 . S
C610 C609 1.523 . S
C611 C595 1.429 . S
C611 C607 1.429 . S
C611 C612 1.523 . S
C612 C596 1.368 . S
C612 C608 1.368 . S
C612 C611 1.523 . S
H613 C588 0.950 . S
H614 C590 0.950 . S
H615 C591 0.949 . S
H616 C593 0.950 . S
H617 C595 0.950 . S
C618 C619 1.349 . S
C618 C620 1.327 . S
C618 H643 0.950 . S
C619 C618 1.349 . S
C619 C635 1.349 . S
C620 C618 1.327 . S
C620 C639 1.429 . S
C620 H644 0.950 . S
C621 C638 1.574 . S
C621 C640 1.368 . S
C621 H645 0.949 . S
H622 C626 0.949 . S
C623 C624 1.349 . S
C623 C625 1.327 . S
C623 H646 0.950 . S
C624 C623 1.349 . S
C624 C636 1.349 . S
C625 C623 1.327 . S
C625 C641 1.429 . S
C625 H647 0.950 . S
C626 H622 0.949 . S
C626 C634 1.574 . S
C626 C642 1.368 . S
H627 C635 0.950 . S
H628 C633 0.950 . S
H629 C634 0.949 . S
H630 C636 0.950 . S
H631 C637 0.950 . S
H632 C638 0.949 . S
C633 H628 0.950 . S
C633 C635 1.327 . S
C633 C639 1.429 . S
C634 C626 1.574 . S
C634 H629 0.949 . S
C634 C640 1.368 . S
C635 C619 1.349 . S
C635 H627 0.950 . S
C635 C633 1.327 . S
C636 C624 1.349 . S
C636 H630 0.950 . S
C636 C637 1.327 . S
C637 H631 0.950 . S
C637 C636 1.327 . S
C637 C641 1.429 . S
C638 C621 1.574 . S
C638 H632 0.949 . S
C638 C642 1.368 . S
C639 C620 1.429 . S
C639 C633 1.429 . S
C639 C640 1.523 . S
C640 C621 1.368 . S
C640 C634 1.368 . S
C640 C639 1.523 . S
C641 C625 1.429 . S
C641 C637 1.429 . S
C641 C642 1.523 . S
C642 C626 1.368 . S
C642 C638 1.368 . S
C642 C641 1.523 . S
H643 C618 0.950 . S
H644 C620 0.950 . S
H645 C621 0.949 . S
H646 C623 0.950 . S
H647 C625 0.950 . S
C648 C649 1.349 . S
C648 C650 1.327 . S
C648 H673 0.950 . S
C649 C648 1.349 . S
C649 C665 1.349 . S
C650 C648 1.327 . S
C650 C669 1.429 . S
C650 H674 0.950 . S
C651 C668 1.574 . S
C651 C670 1.368 . S
C651 H675 0.949 . S
H652 C656 0.949 . S
C653 C654 1.349 . S
C653 C655 1.327 . S
C653 H676 0.950 . S
C654 C653 1.349 . S
C654 C666 1.349 . S
C655 C653 1.327 . S
C655 C671 1.429 . S
C655 H677 0.950 . S
C656 H652 0.949 . S
C656 C664 1.574 . S
C656 C672 1.368 . S
H657 C665 0.950 . S
H658 C663 0.950 . S
H659 C664 0.949 . S
H660 C666 0.950 . S
H661 C667 0.950 . S
H662 C668 0.949 . S
C663 H658 0.950 . S
C663 C665 1.327 . S
C663 C669 1.429 . S
C664 C656 1.574 . S
C664 H659 0.949 . S
C664 C670 1.368 . S
C665 C649 1.349 . S
C665 H657 0.950 . S
C665 C663 1.327 . S
C666 C654 1.349 . S
C666 H660 0.950 . S
C666 C667 1.327 . S
C667 H661 0.950 . S
C667 C666 1.327 . S
C667 C671 1.429 . S
C668 C651 1.574 . S
C668 H662 0.949 . S
C668 C672 1.368 . S
C669 C650 1.429 . S
C669 C663 1.429 . S
C669 C670 1.523 . S
C670 C651 1.368 . S
C670 C664 1.368 . S
C670 C669 1.523 . S
C671 C655 1.429 . S
C671 C667 1.429 . S
C671 C672 1.523 . S
C672 C656 1.368 . S
C672 C668 1.368 . S
C672 C671 1.523 . S
H673 C648 0.950 . S
H674 C650 0.950 . S
H675 C651 0.949 . S
H676 C653 0.950 . S
H677 C655 0.950 . S
C678 C679 1.349 . S
C678 C680 1.327 . S
C678 H703 0.950 . S
C679 C678 1.349 . S
C679 C695 1.349 . S
C680 C678 1.327 . S
C680 C699 1.429 . S
C680 H704 0.950 . S
C681 C698 1.574 . S
C681 C700 1.368 . S
C681 H705 0.949 . S
H682 C686 0.949 . S
C683 C684 1.349 . S
C683 C685 1.327 . S
C683 H706 0.950 . S
C684 C683 1.349 . S
C684 C696 1.349 . S
C685 C683 1.327 . S
C685 C701 1.429 . S
C685 H707 0.950 . S
C686 H682 0.949 . S
C686 C694 1.574 . S
C686 C702 1.368 . S
H687 C695 0.950 . S
H688 C693 0.950 . S
H689 C694 0.949 . S
H690 C696 0.950 . S
H691 C697 0.950 . S
H692 C698 0.949 . S
C693 H688 0.950 . S
C693 C695 1.327 . S
C693 C699 1.429 . S
C694 C686 1.574 . S
C694 H689 0.949 . S
C694 C700 1.368 . S
C695 C679 1.349 . S
C695 H687 0.950 . S
C695 C693 1.327 . S
C696 C684 1.349 . S
C696 H690 0.950 . S
C696 C697 1.327 . S
C697 H691 0.950 . S
C697 C696 1.327 . S
C697 C701 1.429 . S
C698 C681 1.574 . S
C698 H692 0.949 . S
C698 C702 1.368 . S
C699 C680 1.429 . S
C699 C693 1.429 . S
C699 C700 1.523 . S
C700 C681 1.368 . S
C700 C694 1.368 . S
C700 C699 1.523 . S
C701 C685 1.429 . S
C701 C697 1.429 . S
C701 C702 1.523 . S
C702 C686 1.368 . S
C702 C698 1.368 . S
C702 C701 1.523 . S
H703 C678 0.950 . S
H704 C680 0.950 . S
H705 C681 0.949 . S
H706 C683 0.950 . S
H707 C685 0.950 . S
C708 C709 1.349 . S
C708 C710 1.327 . S
C708 H733 0.950 . S
C709 C708 1.349 . S
C709 C725 1.349 . S
C710 C708 1.327 . S
C710 C729 1.429 . S
C710 H734 0.950 . S
C711 C728 1.574 . S
C711 C730 1.368 . S
C711 H735 0.949 . S
H712 C716 0.949 . S
C713 C714 1.349 . S
C713 C715 1.327 . S
C713 H736 0.950 . S
C714 C713 1.349 . S
C714 C726 1.349 . S
C715 C713 1.327 . S
C715 C731 1.429 . S
C715 H737 0.950 . S
C716 H712 0.949 . S
C716 C724 1.574 . S
C716 C732 1.368 . S
H717 C725 0.950 . S
H718 C723 0.950 . S
H719 C724 0.949 . S
H720 C726 0.950 . S
H721 C727 0.950 . S
H722 C728 0.949 . S
C723 H718 0.950 . S
C723 C725 1.327 . S
C723 C729 1.429 . S
C724 C716 1.574 . S
C724 H719 0.949 . S
C724 C730 1.368 . S
C725 C709 1.349 . S
C725 H717 0.950 . S
C725 C723 1.327 . S
C726 C714 1.349 . S
C726 H720 0.950 . S
C726 C727 1.327 . S
C727 H721 0.950 . S
C727 C726 1.327 . S
C727 C731 1.429 . S
C728 C711 1.574 . S
C728 H722 0.949 . S
C728 C732 1.368 . S
C729 C710 1.429 . S
C729 C723 1.429 . S
C729 C730 1.523 . S
C730 C711 1.368 . S
C730 C724 1.368 . S
C730 C729 1.523 . S
C731 C715 1.429 . S
C731 C727 1.429 . S
C731 C732 1.523 . S
C732 C716 1.368 . S
C732 C728 1.368 . S
C732 C731 1.523 . S
H733 C708 0.950 . S
H734 C710 0.950 . S
H735 C711 0.949 . S
H736 C713 0.950 . S
H737 C715 0.950 . S
C738 C739 1.349 . S
C738 C740 1.327 . S
C738 H763 0.950 . S
C739 C738 1.349 . S
C739 C755 1.349 . S
C740 C738 1.327 . S
C740 C759 1.429 . S
C740 H764 0.950 . S
C741 C758 1.574 . S
C741 C760 1.368 . S
C741 H765 0.949 . S
H742 C746 0.949 . S
C743 C744 1.349 . S
C743 C745 1.327 . S
C743 H766 0.950 . S
C744 C743 1.349 . S
C744 C756 1.349 . S
C745 C743 1.327 . S
C745 C761 1.429 . S
C745 H767 0.950 . S
C746 H742 0.949 . S
C746 C754 1.574 . S
C746 C762 1.368 . S
H747 C755 0.950 . S
H748 C753 0.950 . S
H749 C754 0.949 . S
H750 C756 0.950 . S
H751 C757 0.950 . S
H752 C758 0.949 . S
C753 H748 0.950 . S
C753 C755 1.327 . S
C753 C759 1.429 . S
C754 C746 1.574 . S
C754 H749 0.949 . S
C754 C760 1.368 . S
C755 C739 1.349 . S
C755 H747 0.950 . S
C755 C753 1.327 . S
C756 C744 1.349 . S
C756 H750 0.950 . S
C756 C757 1.327 . S
C757 H751 0.950 . S
C757 C756 1.327 . S
C757 C761 1.429 . S
C758 C741 1.574 . S
C758 H752 0.949 . S
C758 C762 1.368 . S
C759 C740 1.429 . S
C759 C753 1.429 . S
C759 C760 1.523 . S
C760 C741 1.368 . S
C760 C754 1.368 . S
C760 C759 1.523 . S
C761 C745 1.429 . S
C761 C757 1.429 . S
C761 C762 1.523 . S
C762 C746 1.368 . S
C762 C758 1.368 . S
C762 C761 1.523 . S
H763 C738 0.950 . S
H764 C740 0.950 . S
H765 C741 0.949 . S
H766 C743 0.950 . S
H767 C745 0.950 . S
C768 C769 1.349 . S
C768 C770 1.327 . S
C768 H793 0.950 . S
C769 C768 1.349 . S
C769 C785 1.349 . S
C770 C768 1.327 . S
C770 C789 1.429 . S
C770 H794 0.950 . S
C771 C788 1.574 . S
C771 C790 1.368 . S
C771 H795 0.949 . S
H772 C776 0.949 . S
C773 C774 1.349 . S
C773 C775 1.327 . S
C773 H796 0.950 . S
C774 C773 1.349 . S
C774 C786 1.349 . S
C775 C773 1.327 . S
C775 C791 1.429 . S
C775 H797 0.950 . S
C776 H772 0.949 . S
C776 C784 1.574 . S
C776 C792 1.368 . S
H777 C785 0.950 . S
H778 C783 0.950 . S
H779 C784 0.949 . S
H780 C786 0.950 . S
H781 C787 0.950 . S
H782 C788 0.949 . S
C783 H778 0.950 . S
C783 C785 1.327 . S
C783 C789 1.429 . S
C784 C776 1.574 . S
C784 H779 0.949 . S
C784 C790 1.368 . S
C785 C769 1.349 . S
C785 H777 0.950 . S
C785 C783 1.327 . S
C786 C774 1.349 . S
C786 H780 0.950 . S
C786 C787 1.327 . S
C787 H781 0.950 . S
C787 C786 1.327 . S
C787 C791 1.429 . S
C788 C771 1.574 . S
C788 H782 0.949 . S
C788 C792 1.368 . S
C789 C770 1.429 . S
C789 C783 1.429 . S
C789 C790 1.523 . S
C790 C771 1.368 . S
C790 C784 1.368 . S
C790 C789 1.523 . S
C791 C775 1.429 . S
C791 C787 1.429 . S
C791 C792 1.523 . S
C792 C776 1.368 . S
C792 C788 1.368 . S
C792 C791 1.523 . S
H793 C768 0.950 . S
H794 C770 0.950 . S
H795 C771 0.949 . S
H796 C773 0.950 . S
H797 C775 0.950 . S
C798 C799 1.349 . S
C798 C800 1.327 . S
C798 H823 0.950 . S
C799 C798 1.349 . S
C799 C815 1.349 . S
C800 C798 1.327 . S
C800 C819 1.429 . S
C800 H824 0.950 . S
C801 C818 1.574 . S
C801 C820 1.368 . S
C801 H825 0.949 . S
H802 C806 0.949 . S
C803 C804 1.349 . S
C803 C805 1.327 . S
C803 H826 0.950 . S
C804 C803 1.349 . S
C804 C816 1.349 . S
C805 C803 1.327 . S
C805 C821 1.429 . S
C805 H827 0.950 . S
C806 H802 0.949 . S
C806 C814 1.574 . S
C806 C822 1.368 . S
H807 C815 0.950 . S
H808 C813 0.950 . S
H809 C814 0.949 . S
H810 C816 0.950 . S
H811 C817 0.950 . S
H812 C818 0.949 . S
C813 H808 0.950 . S
C813 C815 1.327 . S
C813 C819 1.429 . S
C814 C806 1.574 . S
C814 H809 0.949 . S
C814 C820 1.368 . S
C815 C799 1.349 . S
C815 H807 0.950 . S
C815 C813 1.327 . S
C816 C804 1.349 . S
C816 H810 0.950 . S
C816 C817 1.327 . S
C817 H811 0.950 . S
C817 C816 1.327 . S
C817 C821 1.429 . S
C818 C801 1.574 . S
C818 H812 0.949 . S
C818 C822 1.368 . S
C819 C800 1.429 . S
C819 C813 1.429 . S
C819 C820 1.523 . S
C820 C801 1.368 . S
C820 C814 1.368 . S
C820 C819 1.523 . S
C821 C805 1.429 . S
C821 C817 1.429 . S
C821 C822 1.523 . S
C822 C806 1.368 . S
C822 C818 1.368 . S
C822 C821 1.523 . S
H823 C798 0.950 . S
H824 C800 0.950 . S
H825 C801 0.949 . S
H826 C803 0.950 . S
H827 C805 0.950 . S
C828 C829 1.349 . S
C828 C830 1.327 . S
C828 H853 0.950 . S
C829 C828 1.349 . S
C829 C845 1.349 . S
C830 C828 1.327 . S
C830 C849 1.429 . S
C830 H854 0.950 . S
C831 C848 1.574 . S
C831 C850 1.368 . S
C831 H855 0.949 . S
H832 C836 0.949 . S
C833 C834 1.349 . S
C833 C835 1.327 . S
C833 H856 0.950 . S
C834 C833 1.349 . S
C834 C846 1.349 . S
C835 C833 1.327 . S
C835 C851 1.429 . S
C835 H857 0.950 . S
C836 H832 0.949 . S
C836 C844 1.574 . S
C836 C852 1.368 . S
H837 C845 0.950 . S
H838 C843 0.950 . S
H839 C844 0.949 . S
H840 C846 0.950 . S
H841 C847 0.950 . S
H842 C848 0.949 . S
C843 H838 0.950 . S
C843 C845 1.327 . S
C843 C849 1.429 . S
C844 C836 1.574 . S
C844 H839 0.949 . S
C844 C850 1.368 . S
C845 C829 1.349 . S
C845 H837 0.950 . S
C845 C843 1.327 . S
C846 C834 1.349 . S
C846 H840 0.950 . S
C846 C847 1.327 . S
C847 H841 0.950 . S
C847 C846 1.327 . S
C847 C851 1.429 . S
C848 C831 1.574 . S
C848 H842 0.949 . S
C848 C852 1.368 . S
C849 C830 1.429 . S
C849 C843 1.429 . S
C849 C850 1.523 . S
C850 C831 1.368 . S
C850 C844 1.368 . S
C850 C849 1.523 . S
C851 C835 1.429 . S
C851 C847 1.429 . S
C851 C852 1.523 . S
C852 C836 1.368 . S
C852 C848 1.368 . S
C852 C851 1.523 . S
H853 C828 0.950 . S
H854 C830 0.950 . S
H855 C831 0.949 . S
H856 C833 0.950 . S
H857 C835 0.950 . S
C858 C859 1.349 . S
C858 C860 1.327 . S
C858 H883 0.950 . S
C859 C858 1.349 . S
C859 C875 1.349 . S
C860 C858 1.327 . S
C860 C879 1.429 . S
C860 H884 0.950 . S
C861 C878 1.574 . S
C861 C880 1.368 . S
C861 H885 0.949 . S
H862 C866 0.949 . S
C863 C864 1.349 . S
C863 C865 1.327 . S
C863 H886 0.950 . S
C864 C863 1.349 . S
C864 C876 1.349 . S
C865 C863 1.327 . S
C865 C881 1.429 . S
C865 H887 0.950 . S
C866 H862 0.949 . S
C866 C874 1.574 . S
C866 C882 1.368 . S
H867 C875 0.950 . S
H868 C873 0.950 . S
H869 C874 0.949 . S
H870 C876 0.950 . S
H871 C877 0.950 . S
H872 C878 0.949 . S
C873 H868 0.950 . S
C873 C875 1.327 . S
C873 C879 1.429 . S
C874 C866 1.574 . S
C874 H869 0.949 . S
C874 C880 1.368 . S
C875 C859 1.349 . S
C875 H867 0.950 . S
C875 C873 1.327 . S
C876 C864 1.349 . S
C876 H870 0.950 . S
C876 C877 1.327 . S
C877 H871 0.950 . S
C877 C876 1.327 . S
C877 C881 1.429 . S
C878 C861 1.574 . S
C878 H872 0.949 . S
C878 C882 1.368 . S
C879 C860 1.429 . S
C879 C873 1.429 . S
C879 C880 1.523 . S
C880 C861 1.368 . S
C880 C874 1.368 . S
C880 C879 1.523 . S
C881 C865 1.429 . S
C881 C877 1.429 . S
C881 C882 1.523 . S
C882 C866 1.368 . S
C882 C878 1.368 . S
C882 C881 1.523 . S
H883 C858 0.950 . S
H884 C860 0.950 . S
H885 C861 0.949 . S
H886 C863 0.950 . S
H887 C865 0.950 . S
C888 C889 1.349 . S
C888 C890 1.327 . S
C888 H913 0.950 . S
C889 C888 1.349 . S
C889 C905 1.349 . S
C890 C888 1.327 . S
C890 C909 1.429 . S
C890 H914 0.950 . S
C891 C908 1.574 . S
C891 C910 1.368 . S
C891 H915 0.949 . S
H892 C896 0.949 . S
C893 C894 1.349 . S
C893 C895 1.327 . S
C893 H916 0.950 . S
C894 C893 1.349 . S
C894 C906 1.349 . S
C895 C893 1.327 . S
C895 C911 1.429 . S
C895 H917 0.950 . S
C896 H892 0.949 . S
C896 C904 1.574 . S
C896 C912 1.368 . S
H897 C905 0.950 . S
H898 C903 0.950 . S
H899 C904 0.949 . S
H900 C906 0.950 . S
H901 C907 0.950 . S
H902 C908 0.949 . S
C903 H898 0.950 . S
C903 C905 1.327 . S
C903 C909 1.429 . S
C904 C896 1.574 . S
C904 H899 0.949 . S
C904 C910 1.368 . S
C905 C889 1.349 . S
C905 H897 0.950 . S
C905 C903 1.327 . S
C906 C894 1.349 . S
C906 H900 0.950 . S
C906 C907 1.327 . S
C907 H901 0.950 . S
C907 C906 1.327 . S
C907 C911 1.429 . S
C908 C891 1.574 . S
C908 H902 0.949 . S
C908 C912 1.368 . S
C909 C890 1.429 . S
C909 C903 1.429 . S
C909 C910 1.523 . S
C910 C891 1.368 . S
C910 C904 1.368 . S
C910 C909 1.523 . S
C911 C895 1.429 . S
C911 C907 1.429 . S
C911 C912 1.523 . S
C912 C896 1.368 . S
C912 C908 1.368 . S
C912 C911 1.523 . S
H913 C888 0.950 . S
H914 C890 0.950 . S
H915 C891 0.949 . S
H916 C893 0.950 . S
H917 C895 0.950 . S
C918 C919 1.349 . S
C918 C920 1.327 . S
C918 H943 0.950 . S
C919 C918 1.349 . S
C919 C935 1.349 . S
C920 C918 1.327 . S
C920 C939 1.429 . S
C920 H944 0.950 . S
C921 C938 1.574 . S
C921 C940 1.368 . S
C921 H945 0.949 . S
H922 C926 0.949 . S
C923 C924 1.349 . S
C923 C925 1.327 . S
C923 H946 0.950 . S
C924 C923 1.349 . S
C924 C936 1.349 . S
C925 C923 1.327 . S
C925 C941 1.429 . S
C925 H947 0.950 . S
C926 H922 0.949 . S
C926 C934 1.574 . S
C926 C942 1.368 . S
H927 C935 0.950 . S
H928 C933 0.950 . S
H929 C934 0.949 . S
H930 C936 0.950 . S
H931 C937 0.950 . S
H932 C938 0.949 . S
C933 H928 0.950 . S
C933 C935 1.327 . S
C933 C939 1.429 . S
C934 C926 1.574 . S
C934 H929 0.949 . S
C934 C940 1.368 . S
C935 C919 1.349 . S
C935 H927 0.950 . S
C935 C933 1.327 . S
C936 C924 1.349 . S
C936 H930 0.950 . S
C936 C937 1.327 . S
C937 H931 0.950 . S
C937 C936 1.327 . S
C937 C941 1.429 . S
C938 C921 1.574 . S
C938 H932 0.949 . S
C938 C942 1.368 . S
C939 C920 1.429 . S
C939 C933 1.429 . S
C939 C940 1.523 . S
C940 C921 1.368 . S
C940 C934 1.368 . S
C940 C939 1.523 . S
C941 C925 1.429 . S
C941 C937 1.429 . S
C941 C942 1.523 . S
C942 C926 1.368 . S
C942 C938 1.368 . S
C942 C941 1.523 . S
H943 C918 0.950 . S
H944 C920 0.950 . S
H945 C921 0.949 . S
H946 C923 0.950 . S
H947 C925 0.950 . S
C948 C949 1.349 . S
C948 C950 1.327 . S
C948 H973 0.950 . S
C949 C948 1.349 . S
C949 C965 1.349 . S
C950 C948 1.327 . S
C950 C969 1.429 . S
C950 H974 0.950 1_556 S
C951 C968 1.564 1_565 S
C951 C970 1.377 . S
C951 H975 0.950 . S
H952 C956 0.950 . S
C953 C954 1.349 . S
C953 C955 1.327 . S
C953 H976 0.950 . S
C954 C953 1.349 . S
C954 C966 1.349 . S
C955 C953 1.327 . S
C955 C971 1.429 . S
C955 H977 0.950 1_554 S
C956 H952 0.950 . S
C956 C964 1.565 1_545 S
C956 C972 1.376 . S
H957 C965 0.950 . S
H958 C963 0.950 . S
H959 C964 0.949 . S
H960 C966 0.950 . S
H961 C967 0.950 . S
H962 C968 0.949 . S
C963 H958 0.950 . S
C963 C965 1.327 . S
C963 C969 1.429 . S
C964 C956 1.565 1_565 S
C964 H959 0.949 . S
C964 C970 1.368 1_554 S
C965 C949 1.349 . S
C965 H957 0.950 . S
C965 C963 1.327 . S
C966 C954 1.349 . S
C966 H960 0.950 . S
C966 C967 1.327 . S
C967 H961 0.950 . S
C967 C966 1.327 . S
C967 C971 1.429 . S
C968 C951 1.564 1_545 S
C968 H962 0.949 . S
C968 C972 1.368 1_556 S
C969 C950 1.429 . S
C969 C963 1.429 . S
C969 C970 1.523 . S
C970 C951 1.377 . S
C970 C964 1.368 1_556 S
C970 C969 1.523 . S
C971 C955 1.429 . S
C971 C967 1.429 . S
C971 C972 1.523 . S
C972 C956 1.376 . S
C972 C968 1.368 1_554 S
C972 C971 1.523 . S
H973 C948 0.950 . S
H974 C950 0.950 1_554 S
H975 C951 0.950 . S
H976 C953 0.950 . S
H977 C955 0.950 1_556 S
C978 C979 1.349 . S
C978 C980 1.327 . S
C978 H1003 0.950 . S
C979 C978 1.349 . S
C979 C995 1.349 . S
C980 C978 1.327 . S
C980 C999 1.429 . S
C980 H1004 0.950 . S
C981 C998 1.574 . S
C981 C1000 1.368 . S
C981 H1005 0.949 . S
H982 C986 0.949 . S
C983 C984 1.349 . S
C983 C985 1.327 . S
C983 H1006 0.950 . S
C984 C983 1.349 . S
C984 C996 1.349 . S
C985 C983 1.327 . S
C985 C1001 1.429 . S
C985 H1007 0.950 . S
C986 H982 0.949 . S
C986 C994 1.574 . S
C986 C1002 1.368 . S
H987 C995 0.950 . S
H988 C993 0.950 . S
H989 C994 0.949 . S
H990 C996 0.950 . S
H991 C997 0.950 . S
H992 C998 0.949 . S
C993 H988 0.950 . S
C993 C995 1.327 . S
C993 C999 1.429 . S
C994 C986 1.574 . S
C994 H989 0.949 . S
C994 C1000 1.368 . S
C995 C979 1.349 . S
C995 H987 0.950 . S
C995 C993 1.327 . S
C996 C984 1.349 . S
C996 H990 0.950 . S
C996 C997 1.327 . S
C997 H991 0.950 . S
C997 C996 1.327 . S
C997 C1001 1.429 . S
C998 C981 1.574 . S
C998 H992 0.949 . S
C998 C1002 1.368 . S
C999 C980 1.429 . S
C999 C993 1.429 . S
C999 C1000 1.523 . S
C1000 C981 1.368 . S
C1000 C994 1.368 . S
C1000 C999 1.523 . S
C1001 C985 1.429 . S
C1001 C997 1.429 . S
C1001 C1002 1.523 . S
C1002 C986 1.368 . S
C1002 C998 1.368 . S
C1002 C1001 1.523 . S
H1003 C978 0.950 . S
H1004 C980 0.950 . S
H1005 C981 0.949 . S
H1006 C983 0.950 . S
H1007 C985 0.950 . S
C1008 C1009 1.349 . S
C1008 C1010 1.327 . S
C1008 H1033 0.950 . S
C1009 C1008 1.349 . S
C1009 C1025 1.349 . S
C1010 C1008 1.327 . S
C1010 C1029 1.429 . S
C1010 H1034 0.950 . S
C1011 C1028 1.574 1_655 S
C1011 C1030 1.368 . S
C1011 H1035 0.949 . S
H1012 C1016 0.949 . S
C1013 C1014 1.349 . S
C1013 C1015 1.327 . S
C1013 H1036 0.950 . S
C1014 C1013 1.349 . S
C1014 C1026 1.349 . S
C1015 C1013 1.327 . S
C1015 C1031 1.429 . S
C1015 H1037 0.950 . S
C1016 H1012 0.949 . S
C1016 C1024 1.574 1_455 S
C1016 C1032 1.368 . S
H1017 C1025 0.950 . S
H1018 C1023 0.950 . S
H1019 C1024 0.949 . S
H1020 C1026 0.950 . S
H1021 C1027 0.950 . S
H1022 C1028 0.949 . S
C1023 H1018 0.950 . S
C1023 C1025 1.327 . S
C1023 C1029 1.429 . S
C1024 C1016 1.574 1_655 S
C1024 H1019 0.949 . S
C1024 C1030 1.368 1_556 S
C1025 C1009 1.349 . S
C1025 H1017 0.950 . S
C1025 C1023 1.327 . S
C1026 C1014 1.349 . S
C1026 H1020 0.950 . S
C1026 C1027 1.327 . S
C1027 H1021 0.950 . S
C1027 C1026 1.327 . S
C1027 C1031 1.429 . S
C1028 C1011 1.574 1_455 S
C1028 H1022 0.949 . S
C1028 C1032 1.368 1_554 S
C1029 C1010 1.429 . S
C1029 C1023 1.429 . S
C1029 C1030 1.523 . S
C1030 C1011 1.368 . S
C1030 C1024 1.368 1_554 S
C1030 C1029 1.523 . S
C1031 C1015 1.429 . S
C1031 C1027 1.429 . S
C1031 C1032 1.523 . S
C1032 C1016 1.368 . S
C1032 C1028 1.368 1_556 S
C1032 C1031 1.523 . S
H1033 C1008 0.950 . S
H1034 C1010 0.950 . S
H1035 C1011 0.949 . S
H1036 C1013 0.950 . S
H1037 C1015 0.950 . S
C1038 C1039 1.349 . S
C1038 C1040 1.327 . S
C1038 H1063 0.950 . S
C1039 C1038 1.349 . S
C1039 C1055 1.349 . S
C1040 C1038 1.327 . S
C1040 C1059 1.429 . S
C1040 H1064 0.950 . S
C1041 C1058 1.574 1_565 S
C1041 C1060 1.368 . S
C1041 H1065 0.949 . S
H1042 C1046 0.949 . S
C1043 C1044 1.349 . S
C1043 C1045 1.327 . S
C1043 H1066 0.950 . S
C1044 C1043 1.349 . S
C1044 C1056 1.349 . S
C1045 C1043 1.327 . S
C1045 C1061 1.429 . S
C1045 H1067 0.950 . S
C1046 H1042 0.949 . S
C1046 C1054 1.574 1_545 S
C1046 C1062 1.368 . S
H1047 C1055 0.950 . S
H1048 C1053 0.950 . S
H1049 C1054 0.949 . S
H1050 C1056 0.950 . S
H1051 C1057 0.950 . S
H1052 C1058 0.949 . S
C1053 H1048 0.950 . S
C1053 C1055 1.327 . S
C1053 C1059 1.429 . S
C1054 C1046 1.574 1_565 S
C1054 H1049 0.949 . S
C1054 C1060 1.368 . S
C1055 C1039 1.349 . S
C1055 H1047 0.950 . S
C1055 C1053 1.327 . S
C1056 C1044 1.349 . S
C1056 H1050 0.950 . S
C1056 C1057 1.327 . S
C1057 H1051 0.950 . S
C1057 C1056 1.327 . S
C1057 C1061 1.429 . S
C1058 C1041 1.574 1_545 S
C1058 H1052 0.949 . S
C1058 C1062 1.368 . S
C1059 C1040 1.429 . S
C1059 C1053 1.429 . S
C1059 C1060 1.523 . S
C1060 C1041 1.368 . S
C1060 C1054 1.368 . S
C1060 C1059 1.523 . S
C1061 C1045 1.429 . S
C1061 C1057 1.429 . S
C1061 C1062 1.523 . S
C1062 C1046 1.368 . S
C1062 C1058 1.368 . S
C1062 C1061 1.523 . S
H1063 C1038 0.950 . S
H1064 C1040 0.950 . S
H1065 C1041 0.949 . S
H1066 C1043 0.950 . S
H1067 C1045 0.950 . S
C1068 C1069 1.349 . S
C1068 C1070 1.327 . S
C1068 H1093 0.950 . S
C1069 C1068 1.349 . S
C1069 C1085 1.349 . S
C1070 C1068 1.327 . S
C1070 C1089 1.429 . S
C1070 H1094 0.950 . S
C1071 C1088 1.574 . S
C1071 C1090 1.368 1_556 S
C1071 H1095 0.949 . S
H1072 C1076 0.949 . S
C1073 C1074 1.349 . S
C1073 C1075 1.327 . S
C1073 H1096 0.950 . S
C1074 C1073 1.349 . S
C1074 C1086 1.349 . S
C1075 C1073 1.327 . S
C1075 C1091 1.429 . S
C1075 H1097 0.950 . S
C1076 H1072 0.949 . S
C1076 C1084 1.574 . S
C1076 C1092 1.368 1_554 S
H1077 C1085 0.950 . S
H1078 C1083 0.950 . S
H1079 C1084 0.949 . S
H1080 C1086 0.950 . S
H1081 C1087 0.950 . S
H1082 C1088 0.949 . S
C1083 H1078 0.950 . S
C1083 C1085 1.327 . S
C1083 C1089 1.429 . S
C1084 C1076 1.574 . S
C1084 H1079 0.949 . S
C1084 C1090 1.368 . S
C1085 C1069 1.349 . S
C1085 H1077 0.950 . S
C1085 C1083 1.327 . S
C1086 C1074 1.349 . S
C1086 H1080 0.950 . S
C1086 C1087 1.327 . S
C1087 H1081 0.950 . S
C1087 C1086 1.327 . S
C1087 C1091 1.429 . S
C1088 C1071 1.574 . S
C1088 H1082 0.949 . S
C1088 C1092 1.368 . S
C1089 C1070 1.429 . S
C1089 C1083 1.429 . S
C1089 C1090 1.523 . S
C1090 C1071 1.368 1_554 S
C1090 C1084 1.368 . S
C1090 C1089 1.523 . S
C1091 C1075 1.429 . S
C1091 C1087 1.429 . S
C1091 C1092 1.523 . S
C1092 C1076 1.368 1_556 S
C1092 C1088 1.368 . S
C1092 C1091 1.523 . S
H1093 C1068 0.950 . S
H1094 C1070 0.950 . S
H1095 C1071 0.949 . S
H1096 C1073 0.950 . S
H1097 C1075 0.950 . S
C1098 C1099 1.349 . S
C1098 C1100 1.327 . S
C1098 H1123 0.950 . S
C1099 C1098 1.349 . S
C1099 C1115 1.349 . S
C1100 C1098 1.327 . S
C1100 C1119 1.429 . S
C1100 H1124 0.950 . S
C1101 C1118 1.574 1_655 S
C1101 C1120 1.368 . S
C1101 H1125 0.949 . S
H1102 C1106 0.949 . S
C1103 C1104 1.349 . S
C1103 C1105 1.327 . S
C1103 H1126 0.950 . S
C1104 C1103 1.349 . S
C1104 C1116 1.349 . S
C1105 C1103 1.327 . S
C1105 C1121 1.429 . S
C1105 H1127 0.950 . S
C1106 H1102 0.949 . S
C1106 C1114 1.574 1_455 S
C1106 C1122 1.368 . S
H1107 C1115 0.950 . S
H1108 C1113 0.950 . S
H1109 C1114 0.949 . S
H1110 C1116 0.950 . S
H1111 C1117 0.950 . S
H1112 C1118 0.949 . S
C1113 H1108 0.950 . S
C1113 C1115 1.327 . S
C1113 C1119 1.429 . S
C1114 C1106 1.574 1_655 S
C1114 H1109 0.949 . S
C1114 C1120 1.368 . S
C1115 C1099 1.349 . S
C1115 H1107 0.950 . S
C1115 C1113 1.327 . S
C1116 C1104 1.349 . S
C1116 H1110 0.950 . S
C1116 C1117 1.327 . S
C1117 H1111 0.950 . S
C1117 C1116 1.327 . S
C1117 C1121 1.429 . S
C1118 C1101 1.574 1_455 S
C1118 H1112 0.949 . S
C1118 C1122 1.368 . S
C1119 C1100 1.429 . S
C1119 C1113 1.429 . S
C1119 C1120 1.523 . S
C1120 C1101 1.368 . S
C1120 C1114 1.368 . S
C1120 C1119 1.523 . S
C1121 C1105 1.429 . S
C1121 C1117 1.429 . S
C1121 C1122 1.523 . S
C1122 C1106 1.368 . S
C1122 C1118 1.368 . S
C1122 C1121 1.523 . S
H1123 C1098 0.950 . S
H1124 C1100 0.950 . S
H1125 C1101 0.949 . S
H1126 C1103 0.950 . S
H1127 C1105 0.950 . S
C1128 C1129 1.349 . S
C1128 C1130 1.327 . S
C1128 H1153 0.950 . S
C1129 C1128 1.349 . S
C1129 C1145 1.349 . S
C1130 C1128 1.327 . S
C1130 C1149 1.429 . S
C1130 H1154 0.950 . S
C1131 C1148 1.574 1_545 S
C1131 C1150 1.368 1_556 S
C1131 H1155 0.949 . S
H1132 C1136 0.949 . S
C1133 C1134 1.349 . S
C1133 C1135 1.327 . S
C1133 H1156 0.950 . S
C1134 C1133 1.349 . S
C1134 C1146 1.349 . S
C1135 C1133 1.327 . S
C1135 C1151 1.429 . S
C1135 H1157 0.950 . S
C1136 H1132 0.949 . S
C1136 C1144 1.574 1_565 S
C1136 C1152 1.368 1_554 S
H1137 C1145 0.950 . S
H1138 C1143 0.950 . S
H1139 C1144 0.949 . S
H1140 C1146 0.950 . S
H1141 C1147 0.950 . S
H1142 C1148 0.949 . S
C1143 H1138 0.950 . S
C1143 C1145 1.327 . S
C1143 C1149 1.429 . S
C1144 C1136 1.574 1_545 S
C1144 H1139 0.949 . S
C1144 C1150 1.368 . S
C1145 C1129 1.349 . S
C1145 H1137 0.950 . S
C1145 C1143 1.327 . S
C1146 C1134 1.349 . S
C1146 H1140 0.950 . S
C1146 C1147 1.327 . S
C1147 H1141 0.950 . S
C1147 C1146 1.327 . S
C1147 C1151 1.429 . S
C1148 C1131 1.574 1_565 S
C1148 H1142 0.949 . S
C1148 C1152 1.368 . S
C1149 C1130 1.429 . S
C1149 C1143 1.429 . S
C1149 C1150 1.523 . S
C1150 C1131 1.368 1_554 S
C1150 C1144 1.368 . S
C1150 C1149 1.523 . S
C1151 C1135 1.429 . S
C1151 C1147 1.429 . S
C1151 C1152 1.523 . S
C1152 C1136 1.368 1_556 S
C1152 C1148 1.368 . S
C1152 C1151 1.523 . S
H1153 C1128 0.950 . S
H1154 C1130 0.950 . S
H1155 C1131 0.949 . S
H1156 C1133 0.950 . S
H1157 C1135 0.950 . S
C1158 C1159 1.349 . S
C1158 C1160 1.327 . S
C1158 H1183 0.950 . S
C1159 C1158 1.349 . S
C1159 C1175 1.349 . S
C1160 C1158 1.327 . S
C1160 C1179 1.429 . S
C1160 H1184 0.950 . S
C1161 C1178 1.574 . S
C1161 C1180 1.368 . S
C1161 H1185 0.949 . S
H1162 C1166 0.949 . S
C1163 C1164 1.349 . S
C1163 C1165 1.327 . S
C1163 H1186 0.950 . S
C1164 C1163 1.349 . S
C1164 C1176 1.349 . S
C1165 C1163 1.327 . S
C1165 C1181 1.429 . S
C1165 H1187 0.950 . S
C1166 H1162 0.949 . S
C1166 C1174 1.574 . S
C1166 C1182 1.368 . S
H1167 C1175 0.950 . S
H1168 C1173 0.950 . S
H1169 C1174 0.949 . S
H1170 C1176 0.950 . S
H1171 C1177 0.950 . S
H1172 C1178 0.949 . S
C1173 H1168 0.950 . S
C1173 C1175 1.327 . S
C1173 C1179 1.429 . S
C1174 C1166 1.574 . S
C1174 H1169 0.949 . S
C1174 C1180 1.368 . S
C1175 C1159 1.349 . S
C1175 H1167 0.950 . S
C1175 C1173 1.327 . S
C1176 C1164 1.349 . S
C1176 H1170 0.950 . S
C1176 C1177 1.327 . S
C1177 H1171 0.950 . S
C1177 C1176 1.327 . S
C1177 C1181 1.429 . S
C1178 C1161 1.574 . S
C1178 H1172 0.949 . S
C1178 C1182 1.368 . S
C1179 C1160 1.429 . S
C1179 C1173 1.429 . S
C1179 C1180 1.523 . S
C1180 C1161 1.368 . S
C1180 C1174 1.368 . S
C1180 C1179 1.523 . S
C1181 C1165 1.429 . S
C1181 C1177 1.429 . S
C1181 C1182 1.523 . S
C1182 C1166 1.368 . S
C1182 C1178 1.368 . S
C1182 C1181 1.523 . S
H1183 C1158 0.950 . S
H1184 C1160 0.950 . S
H1185 C1161 0.949 . S
H1186 C1163 0.950 . S
H1187 C1165 0.950 . S
C1188 C1189 1.349 . S
C1188 C1190 1.327 . S
C1188 H1213 0.950 . S
C1189 C1188 1.349 . S
C1189 C1205 1.349 . S
C1190 C1188 1.327 . S
C1190 C1209 1.429 . S
C1190 H1214 0.950 1_554 S
C1191 C1208 1.574 1_655 S
C1191 C1210 1.368 . S
C1191 H1215 0.949 . S
H1192 C1196 0.949 . S
C1193 C1194 1.349 . S
C1193 C1195 1.327 . S
C1193 H1216 0.950 . S
C1194 C1193 1.349 . S
C1194 C1206 1.349 . S
C1195 C1193 1.327 . S
C1195 C1211 1.429 . S
C1195 H1217 0.950 1_556 S
C1196 H1192 0.949 . S
C1196 C1204 1.574 1_455 S
C1196 C1212 1.368 . S
H1197 C1205 0.950 . S
H1198 C1203 0.950 . S
H1199 C1204 0.949 . S
H1200 C1206 0.950 . S
H1201 C1207 0.950 . S
H1202 C1208 0.949 . S
C1203 H1198 0.950 . S
C1203 C1205 1.327 . S
C1203 C1209 1.429 . S
C1204 C1196 1.574 1_655 S
C1204 H1199 0.949 . S
C1204 C1210 1.368 1_556 S
C1205 C1189 1.349 . S
C1205 H1197 0.950 . S
C1205 C1203 1.327 . S
C1206 C1194 1.349 . S
C1206 H1200 0.950 . S
C1206 C1207 1.327 . S
C1207 H1201 0.950 . S
C1207 C1206 1.327 . S
C1207 C1211 1.429 . S
C1208 C1191 1.574 1_455 S
C1208 H1202 0.949 . S
C1208 C1212 1.368 1_554 S
C1209 C1190 1.429 . S
C1209 C1203 1.429 . S
C1209 C1210 1.523 . S
C1210 C1191 1.368 . S
C1210 C1204 1.368 1_554 S
C1210 C1209 1.523 . S
C1211 C1195 1.429 . S
C1211 C1207 1.429 . S
C1211 C1212 1.523 . S
C1212 C1196 1.368 . S
C1212 C1208 1.368 1_556 S
C1212 C1211 1.523 . S
H1213 C1188 0.950 . S
H1214 C1190 0.950 1_556 S
H1215 C1191 0.949 . S
H1216 C1193 0.950 . S
H1217 C1195 0.950 1_554 S
C1218 C1219 1.349 . S
C1218 C1220 1.327 . S
C1218 H1243 0.950 . S
C1219 C1218 1.349 . S
C1219 C1235 1.349 . S
C1220 C1218 1.327 . S
C1220 C1239 1.429 . S
C1220 H1244 0.950 . S
C1221 C1238 1.574 1_565 S
C1221 C1240 1.368 . S
C1221 H1245 0.949 . S
H1222 C1226 0.949 . S
C1223 C1224 1.349 . S
C1223 C1225 1.327 . S
C1223 H1246 0.950 . S
C1224 C1223 1.349 . S
C1224 C1236 1.349 . S
C1225 C1223 1.327 . S
C1225 C1241 1.429 . S
C1225 H1247 0.950 . S
C1226 H1222 0.949 . S
C1226 C1234 1.574 1_545 S
C1226 C1242 1.368 . S
H1227 C1235 0.950 . S
H1228 C1233 0.950 . S
H1229 C1234 0.949 . S
H1230 C1236 0.950 . S
H1231 C1237 0.950 . S
H1232 C1238 0.949 . S
C1233 H1228 0.950 . S
C1233 C1235 1.327 . S
C1233 C1239 1.429 . S
C1234 C1226 1.574 1_565 S
C1234 H1229 0.949 . S
C1234 C1240 1.368 . S
C1235 C1219 1.349 . S
C1235 H1227 0.950 . S
C1235 C1233 1.327 . S
C1236 C1224 1.349 . S
C1236 H1230 0.950 . S
C1236 C1237 1.327 . S
C1237 H1231 0.950 . S
C1237 C1236 1.327 . S
C1237 C1241 1.429 . S
C1238 C1221 1.574 1_545 S
C1238 H1232 0.949 . S
C1238 C1242 1.368 . S
C1239 C1220 1.429 . S
C1239 C1233 1.429 . S
C1239 C1240 1.523 . S
C1240 C1221 1.368 . S
C1240 C1234 1.368 . S
C1240 C1239 1.523 . S
C1241 C1225 1.429 . S
C1241 C1237 1.429 . S
C1241 C1242 1.523 . S
C1242 C1226 1.368 . S
C1242 C1238 1.368 . S
C1242 C1241 1.523 . S
H1243 C1218 0.950 . S
H1244 C1220 0.950 . S
H1245 C1221 0.949 . S
H1246 C1223 0.950 . S
H1247 C1225 0.950 . S
C1248 C1249 1.349 . S
C1248 C1250 1.327 . S
C1248 H1273 0.950 . S
C1249 C1248 1.349 . S
C1249 C1265 1.349 . S
C1250 C1248 1.327 . S
C1250 C1269 1.429 . S
C1250 H1274 0.989 . S
C1251 C1268 1.574 . S
C1251 C1270 1.368 . S
C1251 H1275 0.949 . S
H1252 C1256 0.949 . S
C1253 C1254 1.349 . S
C1253 C1255 1.327 . S
C1253 H1276 0.950 . S
C1254 C1253 1.349 . S
C1254 C1266 1.349 . S
C1255 C1253 1.327 . S
C1255 C1271 1.429 . S
C1255 H1277 0.989 . S
C1256 H1252 0.949 . S
C1256 C1264 1.574 . S
C1256 C1272 1.368 . S
H1257 C1265 0.950 . S
H1258 C1263 0.950 . S
H1259 C1264 0.949 . S
H1260 C1266 0.950 . S
H1261 C1267 0.950 . S
H1262 C1268 0.949 . S
C1263 H1258 0.950 . S
C1263 C1265 1.327 . S
C1263 C1269 1.429 . S
C1264 C1256 1.574 . S
C1264 H1259 0.949 . S
C1264 C1270 1.368 1_554 S
C1265 C1249 1.349 . S
C1265 H1257 0.950 . S
C1265 C1263 1.327 . S
C1266 C1254 1.349 . S
C1266 H1260 0.950 . S
C1266 C1267 1.327 . S
C1267 H1261 0.950 . S
C1267 C1266 1.327 . S
C1267 C1271 1.429 . S
C1268 C1251 1.574 . S
C1268 H1262 0.949 . S
C1268 C1272 1.368 1_556 S
C1269 C1250 1.429 . S
C1269 C1263 1.429 . S
C1269 C1270 1.523 . S
C1270 C1251 1.368 . S
C1270 C1264 1.368 1_556 S
C1270 C1269 1.523 . S
C1271 C1255 1.429 . S
C1271 C1267 1.429 . S
C1271 C1272 1.523 . S
C1272 C1256 1.368 . S
C1272 C1268 1.368 1_554 S
C1272 C1271 1.523 . S
H1273 C1248 0.950 . S
H1274 C1250 0.989 . S
H1275 C1251 0.949 . S
H1276 C1253 0.950 . S
H1277 C1255 0.989 . S
C1278 C1279 1.349 . S
C1278 C1280 1.327 . S
C1278 H1303 0.950 . S
C1279 C1278 1.349 . S
C1279 C1295 1.349 . S
C1280 C1278 1.327 . S
C1280 C1299 1.429 . S
C1280 H1304 0.950 . S
C1281 C1298 1.574 1_455 S
C1281 C1300 1.368 . S
C1281 H1305 0.949 . S
H1282 C1286 0.949 . S
C1283 C1284 1.349 . S
C1283 C1285 1.327 . S
C1283 H1306 0.950 . S
C1284 C1283 1.349 . S
C1284 C1296 1.349 . S
C1285 C1283 1.327 . S
C1285 C1301 1.429 . S
C1285 H1307 0.950 . S
C1286 H1282 0.949 . S
C1286 C1294 1.574 1_655 S
C1286 C1302 1.368 . S
H1287 C1295 0.950 . S
H1288 C1293 0.950 . S
H1289 C1294 0.949 . S
H1290 C1296 0.950 . S
H1291 C1297 0.950 . S
H1292 C1298 0.949 . S
C1293 H1288 0.950 . S
C1293 C1295 1.327 . S
C1293 C1299 1.429 . S
C1294 C1286 1.574 1_455 S
C1294 H1289 0.949 . S
C1294 C1300 1.368 . S
C1295 C1279 1.349 . S
C1295 H1287 0.950 . S
C1295 C1293 1.327 . S
C1296 C1284 1.349 . S
C1296 H1290 0.950 . S
C1296 C1297 1.327 . S
C1297 H1291 0.950 . S
C1297 C1296 1.327 . S
C1297 C1301 1.429 . S
C1298 C1281 1.574 1_655 S
C1298 H1292 0.949 . S
C1298 C1302 1.368 . S
C1299 C1280 1.429 . S
C1299 C1293 1.429 . S
C1299 C1300 1.523 . S
C1300 C1281 1.368 . S
C1300 C1294 1.368 . S
C1300 C1299 1.523 . S
C1301 C1285 1.429 . S
C1301 C1297 1.429 . S
C1301 C1302 1.523 . S
C1302 C1286 1.368 . S
C1302 C1298 1.368 . S
C1302 C1301 1.523 . S
H1303 C1278 0.950 . S
H1304 C1280 0.950 . S
H1305 C1281 0.949 . S
H1306 C1283 0.950 . S
H1307 C1285 0.950 . S
C409 C73 1.466 . S
C414 C2 1.540 . S
C439 C36 1.540 . S
C444 C107 1.466 . S
C469 C70 1.540 . S
C474 C141 1.466 . S
C499 C104 1.540 . S
C504 C175 1.466 . S
C529 C138 1.540 . S
C534 C5 1.466 . S
C559 C39 1.466 . S
C564 C172 1.540 . S
C589 C206 1.540 . S
C594 C345 1.466 . S
C619 C240 1.540 . S
C624 C379 1.466 . S
C649 C209 1.466 . S
C654 C274 1.540 . S
C679 C243 1.466 . S
C684 C308 1.540 . S
C709 C277 1.466 . S
C714 C342 1.540 . S
C739 C311 1.466 . S
C744 C376 1.540 . S
C769 C305 1.204 . S
C774 C33 1.204 . S
C799 C67 1.204 . S
C804 C339 1.204 . S
C829 C373 1.204 . S
C834 C101 1.204 . S
C859 C407 1.204 . S
C864 C135 1.204 . S
C889 C169 1.204 . S
C894 C237 1.204 . S
C919 C271 1.204 . S
C924 C203 1.204 . S
C949 C247 1.551 . S
C954 C9 1.551 . S
C979 C43 1.551 . S
C984 C281 1.551 . S
C1009 C77 1.551 . S
C1014 C315 1.551 . S
C1039 C111 1.551 . S
C1044 C349 1.551 . S
C1069 C145 1.551 . S
C1074 C383 1.551 . S
C1099 C213 1.551 . S
C1104 C179 1.551 . S
C1129 C88 1.843 . S
C1134 C394 1.843 . S
C1159 C224 1.844 . S
C1164 C122 1.844 . S
C1189 C156 1.843 . S
C1194 C258 1.843 . S
C1219 C190 1.843 . S
C1224 C292 1.843 . S
C1249 C326 1.844 . S
C1254 C20 1.844 . S
C1279 C54 1.843 . S
C1284 C360 1.843 . S
