# Generated by pormake.
# Topology uoe, (4)-cn, num edge types: 1
# Building blocks:
#     Node 0, Type 0, BuildingBlock: MUDLON_clean_sbu_0, # of connection points: 4
#     Node 1, Type 0, BuildingBlock: MUDLON_clean_sbu_0, # of connection points: 4
#     Node 2, Type 0, BuildingBlock: MUDLON_clean_sbu_0, # of connection points: 4
#     Node 3, Type 0, BuildingBlock: MUDLON_clean_sbu_0, # of connection points: 4
#     Node 4, Type 0, BuildingBlock: MUDLON_clean_sbu_0, # of connection points: 4
#     Node 5, Type 0, BuildingBlock: MUDLON_clean_sbu_0, # of connection points: 4
#     Node 6, Type 0, BuildingBlock: MUDLON_clean_sbu_0, # of connection points: 4
#     Node 7, Type 0, BuildingBlock: MUDLON_clean_sbu_0, # of connection points: 4
#     Node 8, Type 0, BuildingBlock: MUDLON_clean_sbu_0, # of connection points: 4
#     Node 9, Type 0, BuildingBlock: MUDLON_clean_sbu_0, # of connection points: 4
#     Node 10, Type 0, BuildingBlock: MUDLON_clean_sbu_0, # of connection points: 4
#     Node 11, Type 0, BuildingBlock: MUDLON_clean_sbu_0, # of connection points: 4
#     Node 12, Type 0, BuildingBlock: MUDLON_clean_sbu_0, # of connection points: 4
#     Node 13, Type 0, BuildingBlock: MUDLON_clean_sbu_0, # of connection points: 4
#     Node 14, Type 0, BuildingBlock: MUDLON_clean_sbu_0, # of connection points: 4
#     Node 15, Type 0, BuildingBlock: MUDLON_clean_sbu_0, # of connection points: 4
#     Node 16, Type 0, BuildingBlock: MUDLON_clean_sbu_0, # of connection points: 4
#     Node 17, Type 0, BuildingBlock: MUDLON_clean_sbu_0, # of connection points: 4
#     Node 18, Type 0, BuildingBlock: MUDLON_clean_sbu_0, # of connection points: 4
#     Node 19, Type 0, BuildingBlock: MUDLON_clean_sbu_0, # of connection points: 4
#     Node 20, Type 0, BuildingBlock: MUDLON_clean_sbu_0, # of connection points: 4
#     Node 21, Type 0, BuildingBlock: MUDLON_clean_sbu_0, # of connection points: 4
#     Node 22, Type 0, BuildingBlock: MUDLON_clean_sbu_0, # of connection points: 4
#     Node 23, Type 0, BuildingBlock: MUDLON_clean_sbu_0, # of connection points: 4
#     Node 24, Type 0, BuildingBlock: MUDLON_clean_sbu_0, # of connection points: 4
#     Node 25, Type 0, BuildingBlock: MUDLON_clean_sbu_0, # of connection points: 4
#     Node 26, Type 0, BuildingBlock: MUDLON_clean_sbu_0, # of connection points: 4
#     Node 27, Type 0, BuildingBlock: MUDLON_clean_sbu_0, # of connection points: 4
#     Node 28, Type 0, BuildingBlock: MUDLON_clean_sbu_0, # of connection points: 4
#     Node 29, Type 0, BuildingBlock: MUDLON_clean_sbu_0, # of connection points: 4
#     Node 30, Type 0, BuildingBlock: MUDLON_clean_sbu_0, # of connection points: 4
#     Node 31, Type 0, BuildingBlock: MUDLON_clean_sbu_0, # of connection points: 4
#     Edge 32, Type (0, 0), BuildingBlock: ZUJKAS_clean_linker_0, # of connection points: 2
#     Edge 33, Type (0, 0), BuildingBlock: ZUJKAS_clean_linker_0, # of connection points: 2
#     Edge 34, Type (0, 0), BuildingBlock: ZUJKAS_clean_linker_0, # of connection points: 2
#     Edge 35, Type (0, 0), BuildingBlock: ZUJKAS_clean_linker_0, # of connection points: 2
#     Edge 36, Type (0, 0), BuildingBlock: ZUJKAS_clean_linker_0, # of connection points: 2
#     Edge 37, Type (0, 0), BuildingBlock: ZUJKAS_clean_linker_0, # of connection points: 2
#     Edge 38, Type (0, 0), BuildingBlock: ZUJKAS_clean_linker_0, # of connection points: 2
#     Edge 39, Type (0, 0), BuildingBlock: ZUJKAS_clean_linker_0, # of connection points: 2
#     Edge 40, Type (0, 0), BuildingBlock: ZUJKAS_clean_linker_0, # of connection points: 2
#     Edge 41, Type (0, 0), BuildingBlock: ZUJKAS_clean_linker_0, # of connection points: 2
#     Edge 42, Type (0, 0), BuildingBlock: ZUJKAS_clean_linker_0, # of connection points: 2
#     Edge 43, Type (0, 0), BuildingBlock: ZUJKAS_clean_linker_0, # of connection points: 2
#     Edge 44, Type (0, 0), BuildingBlock: ZUJKAS_clean_linker_0, # of connection points: 2
#     Edge 45, Type (0, 0), BuildingBlock: ZUJKAS_clean_linker_0, # of connection points: 2
#     Edge 46, Type (0, 0), BuildingBlock: ZUJKAS_clean_linker_0, # of connection points: 2
#     Edge 47, Type (0, 0), BuildingBlock: ZUJKAS_clean_linker_0, # of connection points: 2
#     Edge 48, Type (0, 0), BuildingBlock: ZUJKAS_clean_linker_0, # of connection points: 2
#     Edge 49, Type (0, 0), BuildingBlock: ZUJKAS_clean_linker_0, # of connection points: 2
#     Edge 50, Type (0, 0), BuildingBlock: ZUJKAS_clean_linker_0, # of connection points: 2
#     Edge 51, Type (0, 0), BuildingBlock: ZUJKAS_clean_linker_0, # of connection points: 2
#     Edge 52, Type (0, 0), BuildingBlock: ZUJKAS_clean_linker_0, # of connection points: 2
#     Edge 53, Type (0, 0), BuildingBlock: ZUJKAS_clean_linker_0, # of connection points: 2
#     Edge 54, Type (0, 0), BuildingBlock: ZUJKAS_clean_linker_0, # of connection points: 2
#     Edge 55, Type (0, 0), BuildingBlock: ZUJKAS_clean_linker_0, # of connection points: 2
#     Edge 56, Type (0, 0), BuildingBlock: ZUJKAS_clean_linker_0, # of connection points: 2
#     Edge 57, Type (0, 0), BuildingBlock: ZUJKAS_clean_linker_0, # of connection points: 2
#     Edge 58, Type (0, 0), BuildingBlock: ZUJKAS_clean_linker_0, # of connection points: 2
#     Edge 59, Type (0, 0), BuildingBlock: ZUJKAS_clean_linker_0, # of connection points: 2
#     Edge 60, Type (0, 0), BuildingBlock: ZUJKAS_clean_linker_0, # of connection points: 2
#     Edge 61, Type (0, 0), BuildingBlock: ZUJKAS_clean_linker_0, # of connection points: 2
#     Edge 62, Type (0, 0), BuildingBlock: ZUJKAS_clean_linker_0, # of connection points: 2
#     Edge 63, Type (0, 0), BuildingBlock: ZUJKAS_clean_linker_0, # of connection points: 2
#     Edge 64, Type (0, 0), BuildingBlock: ZUJKAS_clean_linker_0, # of connection points: 2
#     Edge 65, Type (0, 0), BuildingBlock: ZUJKAS_clean_linker_0, # of connection points: 2
#     Edge 66, Type (0, 0), BuildingBlock: ZUJKAS_clean_linker_0, # of connection points: 2
#     Edge 67, Type (0, 0), BuildingBlock: ZUJKAS_clean_linker_0, # of connection points: 2
#     Edge 68, Type (0, 0), BuildingBlock: ZUJKAS_clean_linker_0, # of connection points: 2
#     Edge 69, Type (0, 0), BuildingBlock: ZUJKAS_clean_linker_0, # of connection points: 2
#     Edge 70, Type (0, 0), BuildingBlock: ZUJKAS_clean_linker_0, # of connection points: 2
#     Edge 71, Type (0, 0), BuildingBlock: ZUJKAS_clean_linker_0, # of connection points: 2
#     Edge 72, Type (0, 0), BuildingBlock: ZUJKAS_clean_linker_0, # of connection points: 2
#     Edge 73, Type (0, 0), BuildingBlock: ZUJKAS_clean_linker_0, # of connection points: 2
#     Edge 74, Type (0, 0), BuildingBlock: ZUJKAS_clean_linker_0, # of connection points: 2
#     Edge 75, Type (0, 0), BuildingBlock: ZUJKAS_clean_linker_0, # of connection points: 2
#     Edge 76, Type (0, 0), BuildingBlock: ZUJKAS_clean_linker_0, # of connection points: 2
#     Edge 77, Type (0, 0), BuildingBlock: ZUJKAS_clean_linker_0, # of connection points: 2
#     Edge 78, Type (0, 0), BuildingBlock: ZUJKAS_clean_linker_0, # of connection points: 2
#     Edge 79, Type (0, 0), BuildingBlock: ZUJKAS_clean_linker_0, # of connection points: 2
#     Edge 80, Type (0, 0), BuildingBlock: ZUJKAS_clean_linker_0, # of connection points: 2
#     Edge 81, Type (0, 0), BuildingBlock: ZUJKAS_clean_linker_0, # of connection points: 2
#     Edge 82, Type (0, 0), BuildingBlock: ZUJKAS_clean_linker_0, # of connection points: 2
#     Edge 83, Type (0, 0), BuildingBlock: ZUJKAS_clean_linker_0, # of connection points: 2
#     Edge 84, Type (0, 0), BuildingBlock: ZUJKAS_clean_linker_0, # of connection points: 2
#     Edge 85, Type (0, 0), BuildingBlock: ZUJKAS_clean_linker_0, # of connection points: 2
#     Edge 86, Type (0, 0), BuildingBlock: ZUJKAS_clean_linker_0, # of connection points: 2
#     Edge 87, Type (0, 0), BuildingBlock: ZUJKAS_clean_linker_0, # of connection points: 2
#     Edge 88, Type (0, 0), BuildingBlock: ZUJKAS_clean_linker_0, # of connection points: 2
#     Edge 89, Type (0, 0), BuildingBlock: ZUJKAS_clean_linker_0, # of connection points: 2
#     Edge 90, Type (0, 0), BuildingBlock: ZUJKAS_clean_linker_0, # of connection points: 2
#     Edge 91, Type (0, 0), BuildingBlock: ZUJKAS_clean_linker_0, # of connection points: 2
#     Edge 92, Type (0, 0), BuildingBlock: ZUJKAS_clean_linker_0, # of connection points: 2
#     Edge 93, Type (0, 0), BuildingBlock: ZUJKAS_clean_linker_0, # of connection points: 2
#     Edge 94, Type (0, 0), BuildingBlock: ZUJKAS_clean_linker_0, # of connection points: 2
#     Edge 95, Type (0, 0), BuildingBlock: ZUJKAS_clean_linker_0, # of connection points: 2
# Relax obj value: 0.173
# Max RMSD: 0.258
# Mean RMSD: 0.258
data_MOF--net-uoe--node1-MUDLON_clean_sbu_0--edge1-ZUJKAS_clean_linker_0
_symmetry_space_group_name_H-M    P1
_symmetry_Int_Tables_number       1
_symmetry_cell_setting            triclinic
loop_
_symmetry_equiv_pos_as_xyz
'x, y, z'
_cell_length_a     99.080027
_cell_length_b     99.328302
_cell_length_c     37.634692
_cell_angle_alpha  89.990465
_cell_angle_beta   90.106509
_cell_angle_gamma 90.034916
loop_
_atom_site_label
_atom_site_type_symbol
_atom_site_fract_x
_atom_site_fract_y
_atom_site_fract_z
_atom_type_partial_charge
Mg0 Mg 0.10442 0.47665 0.07076 0.0
C1 C 0.10558 0.48395 0.14506 0.0
O2 O 0.09658 0.47425 0.1429 0.0
C3 C 0.11291 0.47638 0.99378 0.0
O4 O 0.10862 0.46392 0.997 0.0
C5 C 0.12303 0.45324 0.08044 0.0
O6 O 0.13089 0.46174 0.06351 0.0
O7 O 0.11066 0.45627 0.08465 0.0
O8 O 0.11116 0.48802 0.11661 0.0
O9 O 0.08266 0.47967 0.06763 0.0
C10 C 0.079 0.49193 0.06937 0.0
O11 O 0.08834 0.50123 0.07301 0.0
O12 O 0.11292 0.48395 0.02102 0.0
Mg13 Mg 0.78846 0.85327 0.31822 0.0
C14 C 0.77387 0.82708 0.32534 0.0
O15 O 0.7646 0.83574 0.33528 0.0
C16 C 0.81349 0.87034 0.32481 0.0
O17 O 0.80601 0.87806 0.30437 0.0
C18 C 0.77136 0.8599 0.25302 0.0
O19 O 0.76184 0.85498 0.27354 0.0
O20 O 0.78327 0.86099 0.2654 0.0
O21 O 0.78548 0.83149 0.31665 0.0
O22 O 0.77591 0.86046 0.36201 0.0
C23 C 0.77961 0.8702 0.38175 0.0
O24 O 0.79026 0.87726 0.37272 0.0
O25 O 0.80908 0.85873 0.33311 0.0
Mg26 Mg 0.40825 0.53947 0.5724 0.0
C27 C 0.41235 0.52709 0.64352 0.0
O28 O 0.42394 0.5332 0.6383 0.0
C29 C 0.40128 0.53744 0.49493 0.0
O30 O 0.40576 0.54988 0.49668 0.0
C31 C 0.4014 0.565 0.61221 0.0
O32 O 0.41107 0.56028 0.63263 0.0
O33 O 0.39873 0.55889 0.58329 0.0
O34 O 0.40351 0.52738 0.61898 0.0
O35 O 0.43021 0.53935 0.56754 0.0
C36 C 0.43492 0.52811 0.55704 0.0
O37 O 0.42639 0.51844 0.54898 0.0
O38 O 0.40053 0.53059 0.52342 0.0
Mg39 Mg 0.74479 0.15888 0.84579 0.0
C40 C 0.75456 0.18728 0.85571 0.0
O41 O 0.76415 0.18048 0.87172 0.0
C42 C 0.72399 0.13858 0.8632 0.0
O43 O 0.73536 0.13182 0.86535 0.0
C44 C 0.7607 0.1589 0.77656 0.0
O45 O 0.76454 0.1705 0.78994 0.0
O46 O 0.75311 0.1513 0.7952 0.0
O47 O 0.74461 0.18086 0.84255 0.0
O48 O 0.75414 0.15327 0.89663 0.0
C49 C 0.76622 0.15239 0.90799 0.0
O50 O 0.77633 0.15451 0.88616 0.0
O51 O 0.72445 0.15083 0.85323 0.0
Mg52 Mg 0.11223 0.53666 0.56781 0.0
C53 C 0.12752 0.52717 0.50233 0.0
O54 O 0.13609 0.53651 0.51246 0.0
C55 C 0.11897 0.53467 0.64568 0.0
O56 O 0.11579 0.54748 0.6435 0.0
C57 C 0.11889 0.56225 0.52896 0.0
O58 O 0.10902 0.55758 0.50908 0.0
O59 O 0.12175 0.5561 0.55768 0.0
O60 O 0.1174 0.52452 0.52186 0.0
O61 O 0.09019 0.53656 0.5689 0.0
C62 C 0.08512 0.52498 0.5631 0.0
O63 O 0.09335 0.51486 0.55715 0.0
O64 O 0.11893 0.52761 0.61749 0.0
Mg65 Mg 0.72692 0.85418 0.81287 0.0
C66 C 0.74078 0.82786 0.81237 0.0
O67 O 0.75074 0.83658 0.81086 0.0
C68 C 0.70673 0.87396 0.78977 0.0
O69 O 0.7178 0.88104 0.79449 0.0
C70 C 0.74439 0.86278 0.8773 0.0
O71 O 0.75447 0.86088 0.85524 0.0
O72 O 0.73235 0.8614 0.86602 0.0
O73 O 0.72873 0.83229 0.81354 0.0
O74 O 0.7392 0.86077 0.76815 0.0
C75 C 0.73501 0.85513 0.73982 0.0
O76 O 0.72509 0.84639 0.74235 0.0
O77 O 0.70696 0.86148 0.79751 0.0
Mg78 Mg 0.41109 0.47829 0.06977 0.0
C79 C 0.39569 0.48831 0.00563 0.0
O80 O 0.38716 0.47903 0.0163 0.0
C81 C 0.40263 0.47878 0.14682 0.0
O82 O 0.40537 0.46591 0.14325 0.0
C83 C 0.40703 0.45205 0.03077 0.0
O84 O 0.41817 0.45623 0.0154 0.0
O85 O 0.40229 0.45878 0.05666 0.0
O86 O 0.40598 0.4909 0.02465 0.0
O87 O 0.43307 0.47851 0.07326 0.0
C88 C 0.44 0.4822 0.04652 0.0
O89 O 0.43379 0.4845 0.01626 0.0
O90 O 0.40358 0.48641 0.11978 0.0
Mg91 Mg 0.77659 0.15637 0.31994 0.0
C92 C 0.76051 0.182 0.31695 0.0
O93 O 0.75168 0.1738 0.33146 0.0
C94 C 0.79944 0.13821 0.2958 0.0
O95 O 0.79615 0.132 0.32539 0.0
C96 C 0.77388 0.14599 0.39613 0.0
O97 O 0.76638 0.13707 0.3795 0.0
O98 O 0.77997 0.15493 0.37783 0.0
O99 O 0.77205 0.17741 0.30846 0.0
O100 O 0.75903 0.14408 0.30763 0.0
C101 C 0.75516 0.13825 0.27921 0.0
O102 O 0.74441 0.13053 0.28078 0.0
O103 O 0.79329 0.14901 0.28755 0.0
Mg104 Mg 0.9122 0.54088 0.06523 0.0
C105 C 0.94032 0.53428 0.0392 0.0
O106 O 0.93328 0.53055 0.01128 0.0
C107 C 0.90795 0.56533 0.01964 0.0
O108 O 0.91747 0.55912 1.00172 0.0
C109 C 0.9127 0.53836 0.14412 0.0
O110 O 0.92331 0.54594 0.13794 0.0
O111 O 0.90542 0.53471 0.11794 0.0
O112 O 0.93422 0.5397 0.06527 0.0
O113 O 0.90547 0.52728 0.02361 0.0
C114 C 0.89548 0.53027 0.00388 0.0
O115 O 0.88793 0.54065 0.01235 0.0
O116 O 0.90432 0.5605 0.04946 0.0
Mg117 Mg 0.23156 0.16071 0.80966 0.0
C118 C 0.24199 0.14285 0.7506 0.0
O119 O 0.23226 0.13508 0.76251 0.0
C120 C 0.24735 0.15317 0.87682 0.0
O121 O 0.25757 0.15689 0.85689 0.0
C122 C 0.20602 0.14408 0.80015 0.0
O123 O 0.21173 0.13706 0.82568 0.0
O124 O 0.21156 0.15501 0.79025 0.0
O125 O 0.24488 0.15354 0.76762 0.0
O126 O 0.23417 0.18251 0.8112 0.0
C127 C 0.24605 0.18703 0.80635 0.0
O128 O 0.25586 0.17844 0.8003 0.0
O129 O 0.23555 0.15311 0.8634 0.0
Mg130 Mg 0.60181 0.47833 0.55638 0.0
C131 C 0.57556 0.4914 0.57045 0.0
O132 O 0.58442 0.5003 0.58165 0.0
C133 C 0.60624 0.45342 0.51319 0.0
O134 O 0.59738 0.45987 0.49355 0.0
C135 C 0.60952 0.47809 0.63424 0.0
O136 O 0.60567 0.46551 0.6306 0.0
O137 O 0.60953 0.48571 0.60707 0.0
O138 O 0.57987 0.48023 0.5583 0.0
O139 O 0.609 0.49039 0.51204 0.0
C140 C 0.60069 0.49413 0.48822 0.0
O141 O 0.58779 0.49165 0.49265 0.0
O142 O 0.60938 0.45828 0.5434 0.0
Mg143 Mg 0.29051 0.85235 0.31635 0.0
C144 C 0.27889 0.86947 0.25763 0.0
O145 O 0.28853 0.87748 0.26896 0.0
C146 C 0.27489 0.8626 0.38225 0.0
O147 O 0.26463 0.86268 0.36008 0.0
C148 C 0.31563 0.86992 0.30677 0.0
O149 O 0.31034 0.87638 0.33384 0.0
O150 O 0.31001 0.85914 0.29599 0.0
O151 O 0.27643 0.85874 0.27496 0.0
O152 O 0.28937 0.83043 0.31744 0.0
C153 C 0.27829 0.82521 0.32761 0.0
O154 O 0.2684 0.83323 0.33714 0.0
O155 O 0.28653 0.85941 0.37067 0.0
Mg156 Mg 0.91682 0.47951 0.5724 0.0
C157 C 0.94325 0.49311 0.57788 0.0
O158 O 0.93454 0.50282 0.58383 0.0
C159 C 0.89623 0.45924 0.58835 0.0
O160 O 0.88937 0.47026 0.5814 0.0
C161 C 0.91629 0.484 0.49452 0.0
O162 O 0.92692 0.47627 0.49891 0.0
O163 O 0.90935 0.48717 0.5217 0.0
O164 O 0.93878 0.4813 0.57203 0.0
O165 O 0.91014 0.49078 0.61851 0.0
C166 C 0.91488 0.48571 0.64695 0.0
O167 O 0.92301 0.4753 0.64438 0.0
O168 O 0.90898 0.45948 0.58419 0.0
Mg169 Mg 0.28771 0.15865 0.32009 0.0
C170 C 0.27725 0.14127 0.38107 0.0
O171 O 0.28651 0.13298 0.36921 0.0
C172 C 0.27054 0.15154 0.25459 0.0
O173 O 0.26062 0.15481 0.27602 0.0
C174 C 0.31186 0.14038 0.32769 0.0
O175 O 0.30421 0.13305 0.30664 0.0
O176 O 0.30794 0.15217 0.33586 0.0
O177 O 0.27476 0.15197 0.36366 0.0
O178 O 0.28574 0.18052 0.31937 0.0
C179 C 0.27398 0.18517 0.32521 0.0
O180 O 0.26411 0.17667 0.33154 0.0
O181 O 0.28257 0.15157 0.26654 0.0
Mg182 Mg 0.60457 0.53591 0.06294 0.0
C183 C 0.57593 0.53089 0.08739 0.0
O184 O 0.58237 0.52852 0.11727 0.0
C185 C 0.60802 0.56243 0.10082 0.0
O186 O 0.59721 0.55788 0.11703 0.0
C187 C 0.61087 0.53473 0.98468 0.0
O188 O 0.60621 0.54708 0.98711 0.0
O189 O 0.61193 0.52772 0.01285 0.0
O190 O 0.58259 0.53497 0.06058 0.0
O191 O 0.61066 0.52382 0.10828 0.0
C192 C 0.62098 0.52722 0.12633 0.0
O193 O 0.62874 0.53695 0.11448 0.0
O194 O 0.61273 0.55583 0.07465 0.0
Mg195 Mg 0.23034 0.85963 0.82404 0.0
C196 C 0.24001 0.87485 0.88987 0.0
O197 O 0.23044 0.88316 0.87982 0.0
C198 C 0.24797 0.86326 0.75858 0.0
O199 O 0.256 0.85573 0.77801 0.0
C200 C 0.20663 0.87872 0.83095 0.0
O201 O 0.21489 0.8863 0.81237 0.0
O202 O 0.21007 0.86665 0.83782 0.0
O203 O 0.24292 0.8649 0.86998 0.0
O204 O 0.23107 0.83772 0.82012 0.0
C205 C 0.24165 0.83178 0.83127 0.0
O206 O 0.25133 0.83901 0.84562 0.0
O207 O 0.23682 0.86718 0.77188 0.0
Mg208 Mg 0.60538 0.97929 0.56732 0.0
C209 C 0.60434 0.9897 0.64095 0.0
O210 O 0.59279 0.98329 0.63791 0.0
C211 C 0.61236 0.98085 0.48965 0.0
O212 O 0.60772 0.96847 0.49158 0.0
C213 C 0.60847 0.95179 0.60185 0.0
O214 O 0.59729 0.95561 0.61758 0.0
O215 O 0.61333 0.95913 0.57728 0.0
O216 O 0.61199 0.99047 0.61393 0.0
O217 O 0.58347 0.98131 0.5647 0.0
C218 C 0.57957 0.99352 0.56419 0.0
O219 O 0.58878 1.00305 0.56506 0.0
O220 O 0.61314 0.98779 0.51799 0.0
Mg221 Mg 0.28948 0.35555 0.81985 0.0
C222 C 0.27575 0.32898 0.82253 0.0
O223 O 0.26575 0.33744 0.82754 0.0
C224 C 0.3136 0.37389 0.82751 0.0
O225 O 0.30582 0.38132 0.80712 0.0
C226 C 0.27214 0.36365 0.75554 0.0
O227 O 0.26224 0.36135 0.77792 0.0
O228 O 0.28426 0.36267 0.76649 0.0
O229 O 0.28761 0.33368 0.81853 0.0
O230 O 0.27627 0.36202 0.86302 0.0
C231 C 0.27933 0.37195 0.88286 0.0
O232 O 0.28961 0.37959 0.87411 0.0
O233 O 0.30973 0.36205 0.83544 0.0
Mg234 Mg 0.90808 0.04076 0.06212 0.0
C235 C 0.90714 0.03403 0.13611 0.0
O236 O 0.91485 0.04475 0.13312 0.0
C237 C 0.90763 0.03682 0.98415 0.0
O238 O 0.91764 0.04533 0.98885 0.0
C239 C 0.88681 0.06164 0.06931 0.0
O240 O 0.88041 0.05193 0.05256 0.0
O241 O 0.89944 0.0604 0.07463 0.0
O242 O 0.90215 0.02896 0.10797 0.0
O243 O 0.93008 0.03946 0.06176 0.0
C244 C 0.93445 0.02762 0.0558 0.0
O245 O 0.92562 0.018 0.0499 0.0
O246 O 0.90097 0.03297 0.01119 0.0
Mg247 Mg 0.2388 0.65613 0.30512 0.0
C248 C 0.25334 0.68248 0.30825 0.0
O249 O 0.26233 0.67477 0.29267 0.0
C250 C 0.22191 0.63524 0.3426 0.0
O251 O 0.2321 0.62782 0.33189 0.0
C252 C 0.24247 0.64621 0.2288 0.0
O253 O 0.24992 0.63729 0.24553 0.0
O254 O 0.23613 0.65498 0.24704 0.0
O255 O 0.24213 0.67732 0.3175 0.0
O256 O 0.25709 0.64492 0.31774 0.0
C257 C 0.26208 0.63984 0.34595 0.0
O258 O 0.27333 0.63293 0.34305 0.0
O259 O 0.22175 0.64768 0.33453 0.0
Mg260 Mg 0.60976 0.03867 0.06162 0.0
C261 C 0.62613 0.02823 0.99925 0.0
O262 O 0.63466 0.03747 0.01028 0.0
C263 C 0.61641 0.03817 0.13983 0.0
O264 O 0.61297 0.05086 0.13609 0.0
C265 C 0.6162 0.06345 0.01907 0.0
O266 O 0.60722 0.05763 0.99841 0.0
O267 O 0.61862 0.05827 0.04937 0.0
O268 O 0.61551 0.02599 0.01721 0.0
O269 O 0.58776 0.03783 0.06235 0.0
C270 C 0.58315 0.02589 0.06022 0.0
O271 O 0.59178 0.01589 0.05784 0.0
O272 O 0.61659 0.03064 0.11249 0.0
Mg273 Mg 0.22834 0.35298 0.31487 0.0
C274 C 0.24286 0.32676 0.31006 0.0
O275 O 0.25242 0.3354 0.30205 0.0
C276 C 0.20378 0.37054 0.30639 0.0
O277 O 0.21103 0.37808 0.32784 0.0
C278 C 0.24543 0.36051 0.37993 0.0
O279 O 0.25519 0.3559 0.35974 0.0
O280 O 0.23352 0.3611 0.36731 0.0
O281 O 0.2311 0.3312 0.31686 0.0
O282 O 0.24 0.36007 0.26953 0.0
C283 C 0.23588 0.3543 0.2413 0.0
O284 O 0.22634 0.34516 0.24412 0.0
O285 O 0.208 0.3588 0.29877 0.0
Mg286 Mg 0.91238 0.97402 0.56052 0.0
C287 C 0.91372 0.98422 0.48746 0.0
O288 O 0.92482 0.97711 0.49096 0.0
C289 C 0.91143 0.97885 0.63816 0.0
O290 O 0.9221 0.97113 0.63442 0.0
C291 C 0.90949 0.94608 0.52678 0.0
O292 O 0.92137 0.949 0.51342 0.0
O293 O 0.90425 0.95405 0.54936 0.0
O294 O 0.90598 0.98547 0.51419 0.0
O295 O 0.93429 0.97622 0.56312 0.0
C296 C 0.93795 0.98851 0.56356 0.0
O297 O 0.92855 0.99784 0.56261 0.0
O298 O 0.90458 0.98185 0.61063 0.0
Mg299 Mg 0.27303 0.6618 0.78076 0.0
C300 C 0.26323 0.69023 0.77137 0.0
O301 O 0.25368 0.68348 0.75497 0.0
C302 C 0.29383 0.64139 0.76472 0.0
O303 O 0.28248 0.63454 0.76374 0.0
C304 C 0.25684 0.66132 0.84947 0.0
O305 O 0.25291 0.67293 0.83639 0.0
O306 O 0.26461 0.65392 0.83082 0.0
O307 O 0.27314 0.68376 0.78455 0.0
O308 O 0.26377 0.65624 0.72988 0.0
C309 C 0.2517 0.65519 0.71856 0.0
O310 O 0.24157 0.65712 0.74044 0.0
O311 O 0.29336 0.65377 0.77342 0.0
Mg312 Mg 0.41122 0.03672 0.57018 0.0
C313 C 0.4396 0.03232 0.54361 0.0
O314 O 0.43271 0.02882 0.51523 0.0
C315 C 0.40659 0.06307 0.5318 0.0
O316 O 0.41793 0.05936 0.51667 0.0
C317 C 0.4039 0.03635 0.64836 0.0
O318 O 0.40612 0.04931 0.64443 0.0
O319 O 0.40477 0.02871 0.62134 0.0
O320 O 0.43327 0.03687 0.57045 0.0
O321 O 0.40536 0.0236 0.52666 0.0
C322 C 0.39553 0.02664 0.5064 0.0
O323 O 0.38777 0.03686 0.51486 0.0
O324 O 0.40197 0.05605 0.55735 0.0
Mg325 Mg 0.72551 0.65985 0.30769 0.0
C326 C 0.73505 0.6434 0.24392 0.0
O327 O 0.72455 0.63601 0.25233 0.0
C328 C 0.7439 0.6531 0.36977 0.0
O329 O 0.75297 0.65709 0.34663 0.0
C330 C 0.70138 0.64147 0.30149 0.0
O331 O 0.70941 0.63403 0.32119 0.0
O332 O 0.7051 0.65336 0.29355 0.0
O333 O 0.73833 0.6532 0.26397 0.0
O334 O 0.72763 0.68174 0.309 0.0
C335 C 0.73913 0.68645 0.30045 0.0
O336 O 0.74865 0.67802 0.29076 0.0
O337 O 0.73159 0.65255 0.36017 0.0
Mg338 Mg 0.10213 0.98057 0.06152 0.0
C339 C 0.07555 0.99274 0.07216 0.0
O340 O 0.08422 1.00252 0.078 0.0
C341 C 0.10731 0.95357 0.02562 0.0
O342 O 0.09576 0.95648 0.01025 0.0
C343 C 0.11169 0.98209 0.13774 0.0
O344 O 0.11003 0.96901 0.13481 0.0
O345 O 0.10968 0.98947 0.11062 0.0
O346 O 0.08013 0.9811 0.06475 0.0
O347 O 0.10751 0.99239 0.01515 0.0
C348 C 0.09947 0.99146 0.98888 0.0
O349 O 0.08829 0.98451 0.9927 0.0
O350 O 0.11165 0.96119 0.05033 0.0
Mg351 Mg 0.78789 0.35673 0.80655 0.0
C352 C 0.77856 0.37129 0.73957 0.0
O353 O 0.78919 0.37869 0.74689 0.0
C354 C 0.77087 0.36093 0.87272 0.0
O355 O 0.76259 0.35338 0.85404 0.0
C356 C 0.81212 0.37512 0.79931 0.0
O357 O 0.80449 0.38258 0.81995 0.0
O358 O 0.80811 0.36332 0.79135 0.0
O359 O 0.77498 0.36223 0.76155 0.0
O360 O 0.7867 0.33486 0.8107 0.0
C361 C 0.77593 0.32913 0.80008 0.0
O362 O 0.7663 0.33655 0.78622 0.0
O363 O 0.78198 0.36459 0.85874 0.0
Mg364 Mg 0.41593 0.97657 0.07391 0.0
C365 C 0.44194 0.99095 0.07425 0.0
O366 O 0.43296 1.00054 0.07847 0.0
C367 C 0.39626 0.95401 0.08254 0.0
O368 O 0.3887 0.96323 0.06738 0.0
C369 C 0.40789 0.97784 0.99664 0.0
O370 O 0.41239 0.96541 0.99834 0.0
O371 O 0.4076 0.98485 0.02493 0.0
O372 O 0.4378 0.97886 0.07126 0.0
O373 O 0.40978 0.98755 0.1209 0.0
C374 C 0.4151 0.98268 0.14886 0.0
O375 O 0.42347 0.97249 0.14559 0.0
O376 O 0.40884 0.95628 0.08601 0.0
Mg377 Mg 0.78724 0.66032 0.81216 0.0
C378 C 0.78063 0.65966 0.88685 0.0
O379 O 0.79072 0.66816 0.88359 0.0
C380 C 0.78708 0.65436 0.73453 0.0
O381 O 0.79922 0.65939 0.73936 0.0
C382 C 0.80774 0.6404 0.83272 0.0
O383 O 0.79644 0.63347 0.83126 0.0
O384 O 0.80746 0.65275 0.82369 0.0
O385 O 0.77592 0.6542 0.85887 0.0
O386 O 0.78565 0.68216 0.81057 0.0
C387 C 0.7736 0.68651 0.8082 0.0
O388 O 0.76371 0.67771 0.8065 0.0
O389 O 0.77948 0.65286 0.76146 0.0
Mg390 Mg 0.10448 0.03943 0.56576 0.0
C391 C 0.07618 0.03289 0.58974 0.0
O392 O 0.08292 0.03027 0.61902 0.0
C393 C 0.12285 0.06385 0.57218 0.0
O394 O 0.12973 0.05702 0.54841 0.0
C395 C 0.10994 0.03947 0.48691 0.0
O396 O 0.1034 0.05092 0.48991 0.0
O397 O 0.11242 0.03269 0.51483 0.0
O398 O 0.08252 0.03765 0.56314 0.0
O399 O 0.11066 0.0263 0.60892 0.0
C400 C 0.12088 0.02897 0.62814 0.0
O401 O 0.12898 0.0388 0.61861 0.0
O402 O 0.11142 0.05937 0.58205 0.0
Mg403 Mg 0.72334 0.35188 0.3092 0.0
C404 C 0.73234 0.35146 0.38223 0.0
O405 O 0.72221 0.34295 0.37994 0.0
C406 C 0.74124 0.36187 0.24663 0.0
O407 O 0.75097 0.36172 0.27039 0.0
C408 C 0.70453 0.37263 0.33527 0.0
O409 O 0.71622 0.37887 0.33375 0.0
O410 O 0.70391 0.36048 0.32461 0.0
O411 O 0.73626 0.35731 0.35395 0.0
O412 O 0.72336 0.32991 0.30758 0.0
C413 C 0.73454 0.32452 0.29904 0.0
O414 O 0.74478 0.33241 0.29138 0.0
O415 O 0.72929 0.35888 0.25619 0.0
H416 H 0.95587 0.52193 0.98901 0.0
H417 H 0.97928 0.51453 0.99453 0.0
H418 H 0.98128 0.53146 0.09991 0.0
H419 H 0.95773 0.53873 0.09487 0.0
H420 H 1.00265 0.52876 0.00598 0.0
H421 H 0.99365 0.49269 0.11605 0.0
H422 H 0.98009 0.50004 0.09051 0.0
H423 H 0.98812 0.50955 0.12528 0.0
C424 C 0.96128 0.52414 0.01336 0.0
C425 C 0.95488 0.53086 0.0416 0.0
C426 C 0.97467 0.51989 0.01646 0.0
C427 C 0.98195 0.52221 0.04788 0.0
C428 C 0.97575 0.52928 0.07573 0.0
H429 H 0.06854 0.51723 0.0744 0.0
H430 H 0.04502 0.52412 0.06887 0.0
C431 C 0.96232 0.53354 0.07268 0.0
C432 C 0.99605 0.51726 0.05122 0.0
H433 H 0.01653 0.49673 0.10039 0.0
C434 C 1.00568 0.52174 0.02658 0.0
C435 C 0.99994 0.50791 0.07773 0.0
C436 C 0.9899 0.50215 0.10372 0.0
C437 C 0.01913 0.51735 0.02815 0.0
C438 C 0.02314 0.50839 0.05546 0.0
C439 C 0.01346 0.50368 0.07966 0.0
C440 C 0.03738 0.50402 0.05967 0.0
C441 C 0.02891 0.5222 1.00022 0.0
C442 C 0.04089 0.49034 0.05745 0.0
C443 C 0.05439 0.48631 0.06084 0.0
C444 C 0.0646 0.49591 0.06669 0.0
C445 C 0.06097 0.50956 0.0696 0.0
C446 C 0.04752 0.51355 0.06627 0.0
H447 H 0.02358 0.52582 0.97604 0.0
H448 H 0.03487 0.53072 0.01108 0.0
H449 H 0.03602 0.51409 0.99245 0.0
H450 H 0.03319 0.4828 0.05262 0.0
H451 H 0.05683 0.47572 0.05859 0.0
H452 H 0.75009 0.81498 0.34302 0.0
H453 H 0.7443 0.79114 0.33935 0.0
H454 H 0.78408 0.78231 0.29941 0.0
H455 H 0.79006 0.80622 0.30341 0.0
H456 H 0.74397 0.77465 0.27975 0.0
H457 H 0.77991 0.7554 0.38107 0.0
H458 H 0.77588 0.77305 0.37678 0.0
H459 H 0.78755 0.76529 0.34657 0.0
C460 C 0.75767 0.80798 0.33363 0.0
C461 C 0.77058 0.81252 0.32363 0.0
C462 C 0.75432 0.79435 0.33151 0.0
C463 C 0.7638 0.78491 0.31953 0.0
C464 C 0.77669 0.78938 0.30939 0.0
H465 H 0.76261 0.69906 0.28272 0.0
H466 H 0.76798 0.72297 0.28691 0.0
C467 C 0.78007 0.80305 0.31152 0.0
C468 C 0.76 0.77048 0.31685 0.0
H469 H 0.76802 0.73909 0.34728 0.0
C470 C 0.74918 0.76687 0.29462 0.0
C471 C 0.7668 0.76036 0.33632 0.0
C472 C 0.7781 0.76368 0.36179 0.0
C473 C 0.74516 0.75338 0.29077 0.0
C474 C 0.752 0.74325 0.31014 0.0
C475 C 0.76279 0.74687 0.33246 0.0
C476 C 0.74839 0.72878 0.30697 0.0
C477 C 0.73386 0.75004 0.26532 0.0
C478 C 0.73558 0.72407 0.31699 0.0
C479 C 0.73243 0.71034 0.31454 0.0
C480 C 0.7421 0.70108 0.30225 0.0
C481 C 0.75491 0.70588 0.29227 0.0
C482 C 0.75802 0.71956 0.29469 0.0
H483 H 0.7319 0.7584 0.24637 0.0
H484 H 0.73619 0.74078 0.24998 0.0
H485 H 0.72447 0.74822 0.28061 0.0
H486 H 0.72807 0.73098 0.32716 0.0
H487 H 0.72251 0.70697 0.32264 0.0
H488 H 0.44744 0.50556 0.53251 0.0
H489 H 0.47141 0.50006 0.53482 0.0
H490 H 0.47987 0.53873 0.58184 0.0
H491 H 0.45574 0.54431 0.58006 0.0
H492 H 0.49365 0.51299 0.50463 0.0
H493 H 0.49713 0.51206 0.65202 0.0
H494 H 0.48118 0.51204 0.62874 0.0
H495 H 0.49061 0.5274 0.63337 0.0
C496 C 0.45437 0.51295 0.5433 0.0
C497 C 0.44964 0.52536 0.55633 0.0
C498 C 0.46809 0.50977 0.54454 0.0
C499 C 0.47741 0.51888 0.559 0.0
C500 C 0.47281 0.53145 0.57118 0.0
H501 H 0.56377 0.51441 0.59479 0.0
H502 H 0.54005 0.52087 0.59139 0.0
C503 C 0.45904 0.53466 0.56991 0.0
C504 C 0.49188 0.51507 0.56136 0.0
H505 H 0.51741 0.50879 0.62023 0.0
C506 C 0.49885 0.51207 0.52989 0.0
C507 C 0.49863 0.51383 0.59436 0.0
C508 C 0.49151 0.51638 0.62912 0.0
C509 C 0.51244 0.50802 0.53048 0.0
C510 C 0.51917 0.5067 0.5635 0.0
C511 C 0.51222 0.50977 0.59495 0.0
C512 C 0.53353 0.50245 0.56596 0.0
C513 C 0.51955 0.50548 0.4957 0.0
C514 C 0.53774 0.48982 0.55336 0.0
C515 C 0.55136 0.48607 0.55521 0.0
C516 C 0.561 0.49487 0.5699 0.0
C517 C 0.55666 0.50738 0.5832 0.0
C518 C 0.54308 0.51111 0.58132 0.0
H519 H 0.51412 0.51016 0.47298 0.0
H520 H 0.53003 0.50945 0.49638 0.0
H521 H 0.52005 0.49447 0.49086 0.0
H522 H 0.53049 0.48285 0.54207 0.0
H523 H 0.55435 0.47634 0.54487 0.0
H524 H 0.73745 0.20466 0.82091 0.0
H525 H 0.74083 0.22883 0.81055 0.0
H526 H 0.77822 0.22733 0.86916 0.0
H527 H 0.77501 0.2033 0.87949 0.0
H528 H 0.74465 0.25018 0.86137 0.0
H529 H 0.78895 0.24405 0.7727 0.0
H530 H 0.77762 0.23036 0.78305 0.0
H531 H 0.7903 0.23543 0.81452 0.0
C532 C 0.74637 0.20949 0.83168 0.0
C533 C 0.756 0.20202 0.85084 0.0
C534 C 0.74828 0.22329 0.82571 0.0
C535 C 0.75989 0.2298 0.83855 0.0
C536 C 0.76933 0.22244 0.85841 0.0
H537 H 0.79277 0.31082 0.83216 0.0
H538 H 0.78862 0.28674 0.84154 0.0
C539 C 0.76742 0.2087 0.86444 0.0
C540 C 0.76218 0.2443 0.83151 0.0
H541 H 0.78401 0.26627 0.79188 0.0
C542 C 0.75319 0.25372 0.84598 0.0
C543 C 0.77337 0.24886 0.81154 0.0
C544 C 0.78307 0.23917 0.79426 0.0
C545 C 0.75528 0.26762 0.84172 0.0
C546 C 0.76651 0.27219 0.82184 0.0
C547 C 0.77544 0.26275 0.8072 0.0
C548 C 0.76909 0.28672 0.81569 0.0
C549 C 0.74564 0.27729 0.85932 0.0
C550 C 0.75962 0.29462 0.79742 0.0
C551 C 0.76195 0.30834 0.79207 0.0
C552 C 0.77386 0.31445 0.80464 0.0
C553 C 0.78348 0.30644 0.82222 0.0
C554 C 0.78113 0.29269 0.82761 0.0
H555 H 0.73987 0.27238 0.88104 0.0
H556 H 0.7511 0.28611 0.87042 0.0
H557 H 0.73829 0.281 0.83931 0.0
H558 H 0.75042 0.29016 0.78724 0.0
H559 H 0.75436 0.31417 0.77818 0.0
H560 H 0.07192 0.50205 0.54414 0.0
H561 H 0.04779 0.49743 0.54663 0.0
H562 H 0.04059 0.53747 0.58654 0.0
H563 H 0.06486 0.54231 0.58351 0.0
H564 H 0.03142 0.49749 0.60525 0.0
H565 H 0.01323 0.53466 0.50584 0.0
H566 H 0.03081 0.53017 0.51011 0.0
H567 H 0.02325 0.54167 0.5411 0.0
C568 C 0.06523 0.50995 0.55326 0.0
C569 C 0.07034 0.52258 0.56361 0.0
C570 C 0.05141 0.50726 0.55468 0.0
C571 C 0.04234 0.51712 0.56643 0.0
C572 C 0.04737 0.52979 0.57672 0.0
H573 H 0.95549 0.51668 0.59631 0.0
H574 H 0.97949 0.52214 0.59457 0.0
C575 C 0.06125 0.53252 0.57513 0.0
C576 C 0.02773 0.51385 0.56896 0.0
H577 H 0.99657 0.52259 0.53766 0.0
C578 C 0.02379 0.50296 0.59043 0.0
C579 C 0.0178 0.521 0.54963 0.0
C580 C 0.02145 0.53245 0.52511 0.0
C581 C 0.01019 0.49912 0.59339 0.0
C582 C 1.00026 0.5062 0.57384 0.0
C583 C 1.00419 0.51715 0.55256 0.0
C584 C 0.98571 0.50258 0.57547 0.0
C585 C 1.00657 0.48769 0.61801 0.0
C586 C 0.98117 0.48974 0.56516 0.0
C587 C 0.9674 0.48653 0.56633 0.0
C588 C 0.95791 0.49616 0.57745 0.0
C589 C 0.96251 0.50901 0.58758 0.0
C590 C 0.97624 0.51218 0.58657 0.0
H591 H 0.01464 0.48579 0.63793 0.0
H592 H 0.99699 0.48978 0.63227 0.0
H593 H 1.00521 0.47835 0.60221 0.0
H594 H 0.98826 0.48226 0.55575 0.0
H595 H 0.96418 0.47659 0.55807 0.0
H596 H 0.74885 0.69836 0.80341 0.0
H597 H 0.74351 0.72233 0.80368 0.0
H598 H 0.78582 0.73185 0.81341 0.0
H599 H 0.79132 0.70777 0.8128 0.0
H600 H 0.74912 0.7413 0.85669 0.0
H601 H 0.77352 0.75506 0.72894 0.0
H602 H 0.77001 0.73784 0.74115 0.0
H603 H 0.78427 0.74646 0.76 0.0
C604 C 0.75706 0.70552 0.80544 0.0
C605 C 0.77053 0.70113 0.80795 0.0
C606 C 0.75397 0.71923 0.80565 0.0
C607 C 0.76426 0.72888 0.80815 0.0
C608 C 0.77773 0.72457 0.81081 0.0
H609 H 0.7655 0.8159 0.81465 0.0
H610 H 0.77072 0.79192 0.8145 0.0
C611 C 0.78085 0.71081 0.81062 0.0
C612 C 0.76077 0.74341 0.80878 0.0
H613 H 0.76496 0.77296 0.76375 0.0
C614 C 0.75255 0.74823 0.83633 0.0
C615 C 0.76524 0.75241 0.78216 0.0
C616 C 0.77365 0.74771 0.75118 0.0
C617 C 0.74887 0.76187 0.83837 0.0
C618 C 0.75332 0.77088 0.81172 0.0
C619 C 0.76153 0.76604 0.78414 0.0
C620 C 0.74989 0.78544 0.81237 0.0
C621 C 0.74054 0.76656 0.86953 0.0
C622 C 0.73641 0.78981 0.81098 0.0
C623 C 0.73336 0.80359 0.81124 0.0
C624 C 0.74376 0.81323 0.81253 0.0
C625 C 0.75723 0.80878 0.81365 0.0
C626 C 0.76026 0.79505 0.81353 0.0
H627 H 0.74093 0.75929 0.89195 0.0
H628 H 0.74406 0.77653 0.8792 0.0
H629 H 0.72986 0.76757 0.8611 0.0
H630 H 0.72825 0.78258 0.80932 0.0
H631 H 0.72289 0.80668 0.81011 0.0
H632 H 0.56005 0.53166 0.02759 0.0
H633 H 0.53681 0.52358 0.02125 0.0
H634 H 0.53597 0.51341 0.1326 0.0
H635 H 0.55908 0.52157 0.13931 0.0
H636 H 0.52783 0.49729 0.03503 0.0
H637 H 0.50073 0.53427 0.11926 0.0
H638 H 0.51767 0.53712 0.1033 0.0
H639 H 0.51479 0.5263 0.14083 0.0
C640 C 0.55486 0.5279 0.05086 0.0
C641 C 0.56144 0.52729 0.08398 0.0
C642 C 0.54159 0.52324 0.04715 0.0
C643 C 0.53461 0.51801 0.07651 0.0
C644 C 0.54106 0.51763 0.10971 0.0
H645 H 0.45556 0.48139 0.10692 0.0
H646 H 0.47888 0.48918 0.11389 0.0
C647 C 0.55432 0.52226 0.11345 0.0
C648 C 0.52087 0.51226 0.07206 0.0
H649 H 0.48826 0.51513 0.10039 0.0
C650 C 0.51916 0.50123 0.04915 0.0
C651 C 0.50959 0.51736 0.09071 0.0
C652 C 0.51071 0.52949 0.11467 0.0
C653 C 0.50651 0.49504 0.04477 0.0
C654 C 0.49522 0.50016 0.06334 0.0
C655 C 0.49694 0.51117 0.0863 0.0
C656 C 0.48145 0.49452 0.05857 0.0
C657 C 0.50541 0.48289 0.02086 0.0
C658 C 0.47517 0.49485 0.02513 0.0
C659 C 0.46188 0.49037 0.02103 0.0
C660 C 0.45453 0.48555 0.05037 0.0
C661 C 0.46094 0.48498 0.08374 0.0
C662 C 0.47425 0.48948 0.08781 0.0
H663 H 0.51537 0.478 0.0168 0.0
H664 H 0.49829 0.47535 0.03194 0.0
H665 H 0.50156 0.4861 0.99448 0.0
H666 H 0.48042 0.49893 1.00233 0.0
H667 H 0.45726 0.49103 0.99499 0.0
H668 H 0.71644 0.30494 0.31921 0.0
H669 H 0.72022 0.28053 0.32123 0.0
H670 H 0.7604 0.28622 0.28001 0.0
H671 H 0.75681 0.31049 0.27833 0.0
H672 H 0.7272 0.26222 0.26688 0.0
H673 H 0.76702 0.26444 0.37049 0.0
H674 H 0.75607 0.27849 0.36086 0.0
H675 H 0.77033 0.27502 0.33284 0.0
C676 C 0.72607 0.30099 0.31055 0.0
C677 C 0.73636 0.30969 0.29891 0.0
C678 C 0.72821 0.28704 0.3117 0.0
C679 C 0.74069 0.28158 0.30141 0.0
C680 C 0.75081 0.29022 0.28887 0.0
H681 H 0.77676 0.20207 0.29089 0.0
H682 H 0.77145 0.22607 0.28559 0.0
C683 C 0.7487 0.30412 0.28777 0.0
C684 C 0.7432 0.26686 0.30366 0.0
H685 H 0.76412 0.24346 0.34108 0.0
C686 C 0.73521 0.2581 0.28328 0.0
C687 C 0.75367 0.2615 0.32505 0.0
C688 C 0.76219 0.27032 0.34882 0.0
C689 C 0.73762 0.24414 0.28304 0.0
C690 C 0.74818 0.23881 0.30415 0.0
C691 C 0.7561 0.24757 0.32472 0.0
C692 C 0.7511 0.22416 0.30575 0.0
C693 C 0.72906 0.23526 0.25952 0.0
C694 C 0.74145 0.21513 0.31896 0.0
C695 C 0.74445 0.20142 0.32204 0.0
C696 C 0.7572 0.19646 0.31214 0.0
C697 C 0.76683 0.20553 0.29868 0.0
C698 C 0.76382 0.21925 0.29567 0.0
H699 H 0.72386 0.24114 0.23845 0.0
H700 H 0.73527 0.22732 0.24676 0.0
H701 H 0.72123 0.23026 0.27591 0.0
H702 H 0.73167 0.21872 0.32758 0.0
H703 H 0.73681 0.19474 0.33265 0.0
H704 H 0.29373 0.30836 0.81103 0.0
H705 H 0.28876 0.28418 0.80757 0.0
H706 H 0.24672 0.29228 0.82777 0.0
H707 H 0.25152 0.31634 0.83086 0.0
H708 H 0.27711 0.26721 0.85914 0.0
H709 H 0.2454 0.26932 0.7376 0.0
H710 H 0.25622 0.28304 0.75108 0.0
H711 H 0.24011 0.28063 0.77206 0.0
C712 C 0.28343 0.30499 0.81464 0.0
C713 C 0.27302 0.3143 0.821 0.0
C714 C 0.2806 0.29118 0.81267 0.0
C715 C 0.26733 0.28646 0.81678 0.0
C716 C 0.25698 0.29572 0.82371 0.0
H717 H 0.2284 0.20785 0.81853 0.0
H718 H 0.23366 0.23196 0.82185 0.0
C719 C 0.25978 0.30948 0.82567 0.0
C720 C 0.26427 0.27185 0.81461 0.0
H721 H 0.24539 0.24866 0.76945 0.0
C722 C 0.27025 0.26313 0.83939 0.0
C723 C 0.25526 0.26656 0.78891 0.0
C724 C 0.24896 0.27534 0.76067 0.0
C725 C 0.26726 0.2493 0.83963 0.0
C726 C 0.25822 0.24402 0.814 0.0
C727 C 0.25226 0.25274 0.78917 0.0
C728 C 0.25502 0.22944 0.81207 0.0
C729 C 0.27357 0.24051 0.86782 0.0
C730 C 0.26524 0.22006 0.80493 0.0
C731 C 0.26228 0.20633 0.803 0.0
C732 C 0.249 0.20166 0.80798 0.0
C733 C 0.23873 0.2111 0.81467 0.0
C734 C 0.24172 0.22487 0.81656 0.0
H735 H 0.27729 0.24652 0.89072 0.0
H736 H 0.26625 0.23291 0.87771 0.0
H737 H 0.2823 0.23508 0.85625 0.0
H738 H 0.27553 0.22338 0.80061 0.0
H739 H 0.27043 0.19937 0.7976 0.0
H740 H 0.25603 0.81136 0.34964 0.0
H741 H 0.25236 0.78706 0.34906 0.0
H742 H 0.2921 0.78114 0.30522 0.0
H743 H 0.29596 0.80551 0.30616 0.0
H744 H 0.2524 0.77008 0.29107 0.0
H745 H 0.29168 0.75465 0.38821 0.0
H746 H 0.28621 0.77189 0.38345 0.0
H747 H 0.29787 0.76475 0.35216 0.0
C748 C 0.26406 0.80491 0.34009 0.0
C749 C 0.27632 0.8104 0.32802 0.0
C750 C 0.26192 0.791 0.33976 0.0
C751 C 0.27201 0.78226 0.32754 0.0
C752 C 0.28427 0.78768 0.31547 0.0
H753 H 0.27623 0.69629 0.29071 0.0
H754 H 0.28047 0.72043 0.29626 0.0
C755 C 0.28643 0.80162 0.31583 0.0
C756 C 0.2694 0.76753 0.32613 0.0
H757 H 0.28063 0.73711 0.35658 0.0
C758 C 0.25853 0.76287 0.30554 0.0
C759 C 0.27741 0.75814 0.34501 0.0
C760 C 0.28887 0.76258 0.36873 0.0
C761 C 0.25559 0.74907 0.30278 0.0
C762 C 0.26361 0.73968 0.32161 0.0
C763 C 0.27448 0.74433 0.34223 0.0
C764 C 0.26106 0.72497 0.31955 0.0
C765 C 0.24413 0.74465 0.27901 0.0
C766 C 0.24881 0.71945 0.33142 0.0
C767 C 0.24633 0.70561 0.32825 0.0
C768 C 0.25609 0.69704 0.31328 0.0
C769 C 0.26846 0.70259 0.30223 0.0
C770 C 0.27093 0.7164 0.30542 0.0
H771 H 0.24114 0.75267 0.26001 0.0
H772 H 0.24693 0.73551 0.26372 0.0
H773 H 0.23522 0.74217 0.2956 0.0
H774 H 0.24116 0.72584 0.34305 0.0
H775 H 0.23673 0.70167 0.33723 0.0
H776 H 0.2916 0.20586 0.31076 0.0
H777 H 0.28658 0.23005 0.30919 0.0
H778 H 0.24509 0.22176 0.33576 0.0
H779 H 0.24999 0.19772 0.33775 0.0
H780 H 0.26757 0.2436 0.26596 0.0
H781 H 0.25588 0.25035 0.40898 0.0
H782 H 0.2646 0.23573 0.39218 0.0
H783 H 0.24657 0.23701 0.38801 0.0
C784 C 0.28143 0.2092 0.31649 0.0
C785 C 0.27122 0.19985 0.32455 0.0
C786 C 0.27858 0.22301 0.31553 0.0
C787 C 0.26551 0.22771 0.32291 0.0
C788 C 0.2553 0.21839 0.33073 0.0
H789 H 0.22573 0.30583 0.32582 0.0
H790 H 0.23119 0.28175 0.32791 0.0
C791 C 0.25813 0.20462 0.33164 0.0
C792 C 0.26237 0.24231 0.32136 0.0
H793 H 0.25033 0.26856 0.37065 0.0
C794 C 0.2639 0.24909 0.28889 0.0
C795 C 0.25749 0.24943 0.35127 0.0
C796 C 0.25614 0.24281 0.38718 0.0
C797 C 0.26042 0.26274 0.28534 0.0
C798 C 0.25552 0.26985 0.31524 0.0
C799 C 0.25403 0.26308 0.34773 0.0
C800 C 0.25216 0.2844 0.31356 0.0
C801 C 0.26174 0.26934 0.24939 0.0
C802 C 0.26217 0.29387 0.30524 0.0
C803 C 0.25909 0.30759 0.30398 0.0
C804 C 0.24594 0.31215 0.31128 0.0
C805 C 0.23594 0.30265 0.31994 0.0
C806 C 0.23904 0.2889 0.32119 0.0
H807 H 0.26205 0.26178 0.22763 0.0
H808 H 0.25323 0.27636 0.24435 0.0
H809 H 0.27127 0.27519 0.24852 0.0
H810 H 0.27242 0.29067 0.30003 0.0
H811 H 0.26707 0.31461 0.29744 0.0
H812 H 0.24299 0.7064 0.74708 0.0
H813 H 0.23988 0.73043 0.75763 0.0
H814 H 0.27683 0.73153 0.81826 0.0
H815 H 0.28012 0.70741 0.8076 0.0
H816 H 0.23741 0.74322 0.82401 0.0
H817 H 0.28113 0.76297 0.74773 0.0
H818 H 0.27483 0.74604 0.74214 0.0
H819 H 0.28512 0.7502 0.77993 0.0
C820 C 0.25054 0.71174 0.76243 0.0
C821 C 0.26183 0.70496 0.77643 0.0
C822 C 0.24872 0.72549 0.76848 0.0
C823 C 0.25817 0.7328 0.78844 0.0
C824 C 0.26952 0.72612 0.80228 0.0
H825 H 0.26273 0.81639 0.85427 0.0
H826 H 0.26631 0.79233 0.84502 0.0
C827 C 0.27136 0.71233 0.79626 0.0
C828 C 0.25582 0.74729 0.79568 0.0
H829 H 0.26865 0.77874 0.78142 0.0
C830 C 0.24422 0.751 0.81465 0.0
C831 C 0.26474 0.7574 0.78348 0.0
C832 C 0.2771 0.75402 0.76192 0.0
C833 C 0.24136 0.76456 0.82215 0.0
C834 C 0.25022 0.77469 0.80972 0.0
C835 C 0.26186 0.77096 0.79088 0.0
C836 C 0.24767 0.78921 0.81615 0.0
C837 C 0.22904 0.76788 0.84395 0.0
C838 C 0.236 0.79549 0.80291 0.0
C839 C 0.23387 0.80928 0.80827 0.0
C840 C 0.24346 0.81706 0.82673 0.0
C841 C 0.25512 0.81071 0.83997 0.0
C842 C 0.25721 0.79695 0.83467 0.0
H843 H 0.22541 0.75902 0.85922 0.0
H844 H 0.23116 0.77622 0.86282 0.0
H845 H 0.22078 0.77113 0.82595 0.0
H846 H 0.22862 0.78977 0.78791 0.0
H847 H 0.22484 0.81387 0.79751 0.0
H848 H 0.45703 0.03696 0.59918 0.0
H849 H 0.48095 0.03084 0.60289 0.0
H850 H 0.47919 0.01482 0.49651 0.0
H851 H 0.45545 0.0211 0.49228 0.0
H852 H 0.49238 1.0056 0.5978 0.0
H853 H 0.51225 0.03883 0.49175 0.0
H854 H 0.4956 0.04091 0.51032 0.0
H855 H 0.49865 0.02826 0.47706 0.0
C856 C 0.46178 0.0323 0.5764 0.0
C857 C 0.45432 0.0296 0.54536 0.0
C858 C 0.47544 0.02876 0.57862 0.0
C859 C 0.48191 0.02251 0.54983 0.0
C860 C 0.4745 0.01988 0.51879 0.0
H861 H 0.55752 0.97684 0.55694 0.0
H862 H 0.53368 0.98348 0.55401 0.0
C863 C 0.46089 0.02344 0.51649 0.0
C864 C 0.49627 0.0183 0.55259 0.0
H865 H 0.52709 0.02183 0.51318 0.0
C866 C 0.5 0.00919 0.57942 0.0
C867 C 0.50622 0.02308 0.52877 0.0
C868 C 0.50303 0.03341 0.50057 0.0
C869 C 0.51336 1.0046 0.58281 0.0
C870 C 0.52321 0.00906 0.55829 0.0
C871 C 0.51951 0.01829 0.53173 0.0
C872 C 0.53757 1.00479 0.56055 0.0
C873 C 0.51686 0.99526 0.61307 0.0
C874 C 0.5477 0.01455 0.56444 0.0
C875 C 0.56127 0.01082 0.56573 0.0
C876 C 0.56507 0.99721 0.56311 0.0
C877 C 0.55492 0.9874 0.55923 0.0
C878 C 0.54129 0.99117 0.55777 0.0
H879 H 0.50913 0.99558 0.63442 0.0
H880 H 0.51737 0.98478 0.60294 0.0
H881 H 0.52682 0.99786 0.62475 0.0
H882 H 0.54509 0.02512 0.56657 0.0
H883 H 0.56879 0.01865 0.56878 0.0
H884 H 0.95578 0.04427 0.07251 0.0
H885 H 0.97982 0.03828 0.07491 0.0
H886 H 0.97011 0.99766 0.04365 0.0
H887 H 0.94625 1.00352 0.04087 0.0
H888 H 0.99218 0.01808 0.11727 0.0
H889 H 0.99996 0.00815 0.97367 0.0
H890 H 0.98553 0.01727 0.99027 0.0
H891 H 0.98598 0.9992 0.99269 0.0
C892 C 0.95879 0.0341 0.06587 0.0
C893 C 0.94908 0.0244 0.05637 0.0
C894 C 0.97252 0.03069 0.06732 0.0
C895 C 0.97678 0.01757 0.05896 0.0
C896 C 0.9671 0.0079 0.04951 0.0
H897 H 0.05443 0.97585 0.05522 0.0
H898 H 0.03029 0.98147 0.05366 0.0
C899 C 0.95343 0.01128 0.04814 0.0
C900 C 0.99126 0.01378 0.06127 0.0
H901 H 0.01759 1.00142 0.01266 0.0
C902 C 0.99777 0.01452 0.09437 0.0
C903 C 0.9985 0.00902 0.03142 0.0
C904 C 0.99219 0.00846 0.99492 0.0
C905 C 0.01126 0.01044 0.09855 0.0
C906 C 0.01852 1.00572 0.06867 0.0
C907 C 0.012 1.00496 0.03558 0.0
C908 C 0.03305 1.00208 0.07085 0.0
C909 C 0.01754 0.01097 0.13508 0.0
C910 C 0.0426 0.01181 0.08078 0.0
C911 C 0.05632 0.00864 0.08172 0.0
C912 C 0.06086 0.99567 0.07253 0.0
C913 C 0.05128 0.9859 0.06263 0.0
C914 C 0.03749 0.98911 0.06165 0.0
H915 H 0.00975 0.01101 0.15628 0.0
H916 H 0.02439 1.00228 0.13951 0.0
H917 H 0.02353 0.02036 0.13765 0.0
H918 H 0.03945 0.02196 0.08723 0.0
H919 H 0.06339 0.01645 0.0893 0.0
H920 H 0.57093 1.00159 0.05083 0.0
H921 H 0.54692 0.99635 0.05273 0.0
H922 H 0.53792 0.03807 0.07361 0.0
H923 H 0.56208 0.04349 0.07114 0.0
H924 H 0.52931 0.99954 0.1083 0.0
H925 H 0.51242 0.02935 0.99154 0.0
H926 H 0.52998 0.02573 1.0001 0.0
H927 H 0.52153 0.03879 0.02447 0.0
C928 C 0.56388 0.00971 0.05564 0.0
C929 C 0.56845 0.02299 0.06075 0.0
C930 C 0.55013 1.00667 0.05675 0.0
C931 C 0.54059 0.01682 0.06291 0.0
C932 C 0.54508 0.03011 0.06811 0.0
H933 H 0.4534 0.01568 0.08323 0.0
H934 H 0.47727 0.02163 0.08121 0.0
C935 C 0.55889 0.03319 0.06687 0.0
C936 C 0.52603 0.01328 0.06487 0.0
H937 H 0.49537 0.01899 0.02604 0.0
C938 C 0.52188 1.00377 0.09027 0.0
C939 C 0.51636 0.0188 0.04133 0.0
C940 C 0.52027 0.02865 0.01259 0.0
C941 C 0.50833 0.99976 0.09305 0.0
C942 C 0.49867 1.00522 0.06938 0.0
C943 C 0.50279 0.01478 0.04411 0.0
C944 C 0.48418 1.00136 0.0708 0.0
C945 C 0.50443 0.98991 0.12181 0.0
C946 C 0.48007 0.98797 0.06533 0.0
C947 C 0.46637 0.98449 0.06659 0.0
C948 C 0.45652 0.99438 0.07306 0.0
C949 C 0.46069 0.00779 0.07821 0.0
C950 C 0.47436 0.01123 0.07703 0.0
H951 H 0.51218 0.98939 0.14314 0.0
H952 H 0.49461 0.99269 0.13392 0.0
H953 H 0.50341 0.97972 0.11006 0.0
H954 H 0.48746 0.98022 0.05975 0.0
H955 H 0.46349 0.9741 0.06228 0.0
H956 H 0.05914 0.03594 0.53261 0.0
H957 H 0.0356 0.0285 0.52774 0.0
H958 H 0.03719 0.01344 0.63513 0.0
H959 H 0.06052 0.02102 0.64048 0.0
H960 H 0.02515 1.00277 0.53391 0.0
H961 H 1.0032 0.03622 0.63657 0.0
H962 H 0.01988 0.03879 0.61863 0.0
H963 H 0.0171 0.02634 0.65257 0.0
C964 C 0.05443 0.03119 0.55533 0.0
C965 C 0.06171 0.02917 0.58701 0.0
C966 C 0.041 0.02689 0.55245 0.0
C967 C 0.03458 0.02056 0.58122 0.0
C968 C 0.04183 0.01854 0.61283 0.0
H969 H 0.96034 0.97243 0.57273 0.0
H970 H 0.984 0.9797 0.57644 0.0
C971 C 0.05521 0.02286 0.61578 0.0
C972 C 0.02042 0.01575 0.57799 0.0
H973 H 0.98916 0.01856 0.61526 0.0
C974 C 0.01725 1.00626 0.55158 0.0
C975 C 0.01011 0.02038 0.60088 0.0
C976 C 0.01268 0.03109 0.62854 0.0
C977 C 1.00408 1.00117 0.54769 0.0
C978 C 0.99386 1.00553 0.57127 0.0
C979 C 0.99702 0.01511 0.59744 0.0
C980 C 0.97964 1.00084 0.56828 0.0
C981 C 1.00117 0.99143 0.5179 0.0
C982 C 0.96932 0.01029 0.56314 0.0
C983 C 0.95586 1.0062 0.56143 0.0
C984 C 0.95237 0.99253 0.56482 0.0
C985 C 0.96271 0.98302 0.56982 0.0
C986 C 0.97623 0.98715 0.57173 0.0
H987 H 0.0091 0.99176 0.49709 0.0
H988 H 1.00082 0.98105 0.52875 0.0
H989 H 0.99126 0.99362 0.50532 0.0
H990 H 0.97169 0.0209 0.56046 0.0
H991 H 0.94818 0.01382 0.55747 0.0
H992 H 0.11775 0.50266 0.97542 0.0
H993 H 0.12091 0.51183 0.91563 0.0
H994 H 0.1191 0.47174 0.87194 0.0
H995 H 0.11564 0.46251 0.93145 0.0
H996 H 0.13997 0.5077 0.86319 0.0
H997 H 0.08942 0.49089 0.81734 0.0
H998 H 0.09432 0.49063 0.86351 0.0
H999 H 0.09983 0.47751 0.83397 0.0
C1000 C 0.11812 0.49578 0.95313 0.0
C1001 C 0.11629 0.48186 0.9582 0.0
C1002 C 0.11993 0.50104 0.91895 0.0
C1003 C 0.11995 0.49251 0.88921 0.0
C1004 C 0.11877 0.47856 0.89438 0.0
H1005 H 0.12195 0.50784 0.66103 0.0
H1006 H 0.12355 0.49739 0.71985 0.0
C1007 C 0.11688 0.47329 0.92848 0.0
C1008 C 0.12081 0.49823 0.85279 0.0
H1009 H 0.10379 0.50039 0.77393 0.0
C1010 C 0.13206 0.50611 0.84367 0.0
C1011 C 0.11045 0.49619 0.82735 0.0
C1012 C 0.09776 0.48846 0.83604 0.0
C1013 C 0.1333 0.51188 0.80969 0.0
C1014 C 0.12295 0.50982 0.78433 0.0
C1015 C 0.11176 0.50187 0.79335 0.0
C1016 C 0.12321 0.51622 0.74869 0.0
C1017 C 0.14572 0.52002 0.80106 0.0
C1018 C 0.12254 0.53028 0.7454 0.0
C1019 C 0.12157 0.53628 0.71187 0.0
C1020 C 0.12123 0.52833 0.68092 0.0
C1021 C 0.12223 0.51426 0.68428 0.0
C1022 C 0.12313 0.50826 0.71787 0.0
H1023 H 0.15414 0.51782 0.81973 0.0
H1024 H 0.14918 0.51799 0.77351 0.0
H1025 H 0.14329 0.53089 0.80315 0.0
H1026 H 0.12234 0.5366 0.76884 0.0
H1027 H 0.12079 0.54713 0.71028 0.0
H1028 H 0.76882 0.866 0.91069 0.0
H1029 H 0.77319 0.86745 0.97467 0.0
H1030 H 0.73043 0.86599 0.99517 0.0
H1031 H 0.72594 0.86449 0.93135 0.0
H1032 H 0.7635 0.88629 0.02836 0.0
H1033 H 0.74642 0.83374 0.05184 0.0
H1034 H 0.7505 0.84002 0.00813 0.0
H1035 H 0.73466 0.84428 0.02836 0.0
C1036 C 0.76032 0.8661 0.92875 0.0
C1037 C 0.74702 0.86502 0.91579 0.0
C1038 C 0.76285 0.86694 0.96533 0.0
C1039 C 0.75215 0.86662 0.98971 0.0
C1040 C 0.73885 0.86604 0.97685 0.0
H1041 H 0.7469 0.85938 0.21922 0.0
H1042 H 0.74233 0.86221 0.15584 0.0
C1043 C 0.73631 0.86526 0.9403 0.0
C1044 C 0.7549 0.8664 0.02857 0.0
H1045 H 0.75183 0.84668 0.10249 0.0
C1046 C 0.76098 0.87764 0.04462 0.0
C1047 C 0.75161 0.85509 0.04971 0.0
C1048 C 0.74554 0.84253 0.03372 0.0
C1049 C 0.76361 0.87797 0.0814 0.0
C1050 C 0.76034 0.86663 0.10256 0.0
C1051 C 0.75429 0.85539 0.08638 0.0
C1052 C 0.76311 0.86609 0.14148 0.0
C1053 C 0.76956 0.89058 0.09735 0.0
C1054 C 0.77631 0.86741 0.15474 0.0
C1055 C 0.77896 0.86587 0.19112 0.0
C1056 C 0.76847 0.86282 0.21498 0.0
C1057 C 0.75523 0.86173 0.20168 0.0
C1058 C 0.75259 0.86332 0.16538 0.0
H1059 H 0.76784 0.89949 0.08007 0.0
H1060 H 0.76521 0.89265 0.12396 0.0
H1061 H 0.78062 0.88926 0.10042 0.0
H1062 H 0.78466 0.86923 0.13683 0.0
H1063 H 0.78929 0.86668 0.20037 0.0
H1064 H 0.40027 0.50536 0.16565 0.0
H1065 H 0.39787 0.51464 0.22557 0.0
H1066 H 0.39602 0.47445 0.26863 0.0
H1067 H 0.39869 0.46509 0.209 0.0
H1068 H 0.37828 0.51194 0.27765 0.0
H1069 H 0.42714 0.49094 0.32411 0.0
H1070 H 0.42238 0.49124 0.27783 0.0
H1071 H 0.41567 0.47854 0.30696 0.0
C1072 C 0.39927 0.49849 0.18783 0.0
C1073 C 0.39983 0.48447 0.18253 0.0
C1074 C 0.3979 0.50381 0.22208 0.0
C1075 C 0.39705 0.49525 0.25169 0.0
C1076 C 0.397 0.48126 0.2463 0.0
H1077 H 0.39618 0.51086 0.48016 0.0
H1078 H 0.39373 0.50041 0.42151 0.0
C1079 C 0.39844 0.47593 0.21213 0.0
C1080 C 0.39658 0.50095 0.2882 0.0
H1081 H 0.41357 0.50164 0.3673 0.0
C1082 C 0.38599 0.50969 0.29725 0.0
C1083 C 0.40667 0.49803 0.31378 0.0
C1084 C 0.41868 0.48928 0.30519 0.0
C1085 C 0.38517 0.5155 0.33126 0.0
C1086 C 0.39528 0.51261 0.35673 0.0
C1087 C 0.40578 0.50377 0.3478 0.0
C1088 C 0.39554 0.51908 0.3923 0.0
C1089 C 0.37342 0.52459 0.33979 0.0
C1090 C 0.39732 0.53305 0.39534 0.0
C1091 C 0.39876 0.53904 0.42875 0.0
C1092 C 0.39848 0.53119 0.45986 0.0
C1093 C 0.39638 0.51722 0.45678 0.0
C1094 C 0.39501 0.51122 0.42329 0.0
H1095 H 0.36485 0.523 0.32119 0.0
H1096 H 0.36984 0.52292 0.36739 0.0
H1097 H 0.3767 0.53524 0.33746 0.0
H1098 H 0.39801 0.53928 0.37178 0.0
H1099 H 0.4004 0.54981 0.43012 0.0
H1100 H 0.7513 0.13786 0.73559 0.0
H1101 H 0.75502 0.13417 0.67185 0.0
H1102 H 0.78058 0.16928 0.66804 0.0
H1103 H 0.77709 0.17291 0.73143 0.0
H1104 H 0.74825 0.1515 0.61725 0.0
H1105 H 0.80332 0.14201 0.61482 0.0
H1106 H 0.79357 0.14136 0.65526 0.0
H1107 H 0.7989 0.1573 0.63736 0.0
C1108 C 0.75791 0.14465 0.72132 0.0
C1109 C 0.76392 0.15566 0.73881 0.0
C1110 C 0.75999 0.14256 0.68482 0.0
C1111 C 0.76823 0.15134 0.66508 0.0
C1112 C 0.77443 0.16218 0.68267 0.0
H1113 H 0.78627 0.1643 0.44062 0.0
H1114 H 0.78508 0.16526 0.50574 0.0
C1115 C 0.77234 0.16428 0.71903 0.0
C1116 C 0.76966 0.14976 0.62578 0.0
H1117 H 0.79285 0.14662 0.55894 0.0
C1118 C 0.758 0.15029 0.60456 0.0
C1119 C 0.78238 0.1483 0.60906 0.0
C1120 C 0.79525 0.14708 0.63029 0.0
C1121 C 0.75871 0.14973 0.56723 0.0
C1122 C 0.77143 0.14833 0.55049 0.0
C1123 C 0.7831 0.14773 0.57169 0.0
C1124 C 0.77276 0.14738 0.51105 0.0
C1125 C 0.74584 0.15102 0.546 0.0
C1126 C 0.76655 0.13683 0.49233 0.0
C1127 C 0.76722 0.13626 0.4552 0.0
C1128 C 0.77418 0.14618 0.43576 0.0
C1129 C 0.78079 0.15651 0.45464 0.0
C1130 C 0.78012 0.15707 0.4919 0.0
H1131 H 0.73759 0.15556 0.56194 0.0
H1132 H 0.74743 0.15726 0.52189 0.0
H1133 H 0.74249 0.14086 0.5374 0.0
H1134 H 0.76108 0.12906 0.50646 0.0
H1135 H 0.76208 0.12809 0.44171 0.0
H1136 H 0.89169 0.52253 0.16744 0.0
H1137 H 0.88803 0.51389 0.22775 0.0
H1138 H 0.92405 0.53426 0.26334 0.0
H1139 H 0.92759 0.54313 0.20379 0.0
H1140 H 0.9038 0.49742 0.2661 0.0
H1141 H 0.89797 0.54508 0.33983 0.0
H1142 H 0.89716 0.5443 0.29194 0.0
H1143 H 0.91324 0.54513 0.31434 0.0
C1144 C 0.89872 0.52531 0.18825 0.0
C1145 C 0.9099 0.53358 0.18077 0.0
C1146 C 0.89662 0.52035 0.2227 0.0
C1147 C 0.90562 0.52363 0.25032 0.0
C1148 C 0.91674 0.5319 0.24283 0.0
H1149 H 0.93038 0.48021 0.43325 0.0
H1150 H 0.92565 0.48938 0.37457 0.0
C1151 C 0.91881 0.53689 0.20857 0.0
C1152 C 0.90404 0.5177 0.2864 0.0
H1153 H 0.90469 0.52573 0.37466 0.0
C1154 C 0.90377 0.50362 0.28982 0.0
C1155 C 0.9037 0.52575 0.31745 0.0
C1156 C 0.90288 0.5409 0.31571 0.0
C1157 C 0.90399 0.4974 0.32335 0.0
C1158 C 0.90484 0.50546 0.35432 0.0
C1159 C 0.90427 0.51953 0.35096 0.0
C1160 C 0.90727 0.49954 0.39009 0.0
C1161 C 0.90346 0.48224 0.32517 0.0
C1162 C 0.89872 0.50249 0.41882 0.0
C1163 C 0.9015 0.49736 0.45278 0.0
C1164 C 0.91292 0.48923 0.45862 0.0
C1165 C 0.92143 0.48632 0.42974 0.0
C1166 C 0.91868 0.49149 0.39599 0.0
H1167 H 0.89817 0.47796 0.30169 0.0
H1168 H 0.9139 0.4782 0.32527 0.0
H1169 H 0.89826 0.47874 0.34961 0.0
H1170 H 0.88992 0.5088 0.41498 0.0
H1171 H 0.89476 0.49982 0.47445 0.0
H1172 H 0.27131 0.15156 0.91296 0.0
H1173 H 0.27473 0.14908 0.97697 0.0
H1174 H 0.23171 0.14635 0.99231 0.0
H1175 H 0.22817 0.14887 0.92819 0.0
H1176 H 0.24483 0.16547 0.03653 0.0
H1177 H 0.27066 0.11596 0.04209 0.0
H1178 H 0.27787 0.12773 0.01124 0.0
H1179 H 0.26109 0.12143 0.00383 0.0
C1180 C 0.26256 0.15025 0.92982 0.0
C1181 C 0.24945 0.15041 0.91532 0.0
C1182 C 0.26455 0.14877 0.96647 0.0
C1183 C 0.25349 0.14738 0.98946 0.0
C1184 C 0.2404 0.14733 0.97506 0.0
H1185 H 0.24604 0.14945 0.22119 0.0
H1186 H 0.2416 0.14764 0.15745 0.0
C1187 C 0.2384 0.14874 0.93836 0.0
C1188 C 0.25557 0.14689 0.02864 0.0
H1189 H 0.27073 0.12894 0.09518 0.0
C1190 C 0.25039 0.15742 0.04941 0.0
C1191 C 0.26292 0.13645 0.04539 0.0
C1192 C 0.26837 0.12468 0.0246 0.0
C1193 C 0.25263 0.15798 0.0863 0.0
C1194 C 0.25997 0.14752 0.10315 0.0
C1195 C 0.26508 0.13694 0.08236 0.0
C1196 C 0.26265 0.14755 0.14216 0.0
C1197 C 0.24749 0.17003 0.10662 0.0
C1198 C 0.27596 0.14745 0.15509 0.0
C1199 C 0.27854 0.14829 0.19166 0.0
C1200 C 0.26786 0.14927 0.21612 0.0
C1201 C 0.25453 0.14885 0.20316 0.0
C1202 C 0.25196 0.14792 0.16663 0.0
H1203 H 0.2455 0.17872 0.08879 0.0
H1204 H 0.23787 0.16735 0.1199 0.0
H1205 H 0.25483 0.17321 0.12733 0.0
H1206 H 0.28438 0.14707 0.1368 0.0
H1207 H 0.28893 0.14856 0.20065 0.0
H1208 H 0.61059 0.54733 0.92007 0.0
H1209 H 0.6128 0.53704 0.86131 0.0
H1210 H 0.61925 0.49828 0.90996 0.0
H1211 H 0.61702 0.50846 0.96895 0.0
H1212 H 0.63455 0.52073 0.83062 0.0
H1213 H 0.58581 0.49332 0.84333 0.0
H1214 H 0.59028 0.50726 0.87177 0.0
H1215 H 0.59771 0.49101 0.87894 0.0
C1216 C 0.61259 0.53663 0.91835 0.0
C1217 C 0.61352 0.52871 0.94927 0.0
C1218 C 0.61388 0.53078 0.88472 0.0
C1219 C 0.61601 0.51689 0.88129 0.0
C1220 C 0.61743 0.50901 0.91204 0.0
H1221 H 0.61224 0.46419 0.69656 0.0
H1222 H 0.6153 0.47337 0.75631 0.0
C1223 C 0.61621 0.51486 0.94574 0.0
C1224 C 0.61621 0.5106 0.84552 0.0
H1225 H 0.59828 0.48968 0.79107 0.0
C1226 C 0.62666 0.51391 0.82192 0.0
C1227 C 0.60589 0.50171 0.83431 0.0
C1228 C 0.59421 0.49815 0.85821 0.0
C1229 C 0.62712 0.50846 0.78745 0.0
C1230 C 0.61667 0.49972 0.77601 0.0
C1231 C 0.6063 0.49635 0.79981 0.0
C1232 C 0.61605 0.49417 0.7393 0.0
C1233 C 0.63892 0.51193 0.76388 0.0
C1234 C 0.61553 0.50279 0.70971 0.0
C1235 C 0.61388 0.49755 0.67543 0.0
C1236 C 0.61253 0.4836 0.67007 0.0
C1237 C 0.61325 0.47499 0.6997 0.0
C1238 C 0.61499 0.48022 0.73391 0.0
H1239 H 0.64785 0.5151 0.77971 0.0
H1240 H 0.64183 0.50326 0.74692 0.0
H1241 H 0.63608 0.52045 0.74631 0.0
H1242 H 0.61598 0.5136 0.71318 0.0
H1243 H 0.61325 0.50448 0.65326 0.0
H1244 H 0.27168 0.85798 0.72431 0.0
H1245 H 0.27655 0.86005 0.66096 0.0
H1246 H 0.23653 0.87567 0.64278 0.0
H1247 H 0.23168 0.87392 0.70641 0.0
H1248 H 0.26431 0.84704 0.60755 0.0
H1249 H 0.25868 0.90194 0.58578 0.0
H1250 H 0.25986 0.89466 0.62962 0.0
H1251 H 0.24412 0.89432 0.60571 0.0
C1252 C 0.26396 0.86207 0.70698 0.0
C1253 C 0.25128 0.86581 0.72058 0.0
C1254 C 0.26676 0.86322 0.67066 0.0
C1255 C 0.25698 0.86815 0.64694 0.0
C1256 C 0.24438 0.87213 0.66051 0.0
H1257 H 0.25145 0.86997 0.41574 0.0
H1258 H 0.24737 0.87181 0.47973 0.0
C1259 C 0.24159 0.87106 0.69696 0.0
C1260 C 0.25972 0.86823 0.60792 0.0
H1261 H 0.26037 0.88828 0.53391 0.0
C1262 C 0.26354 0.8561 0.59157 0.0
C1263 C 0.25867 0.88002 0.58685 0.0
C1264 C 0.25524 0.8935 0.6029 0.0
C1265 C 0.26614 0.85537 0.5549 0.0
C1266 C 0.26507 0.86713 0.53387 0.0
C1267 C 0.2612 0.87927 0.55006 0.0
C1268 C 0.26784 0.86693 0.49497 0.0
C1269 C 0.26976 0.84194 0.5388 0.0
C1270 C 0.2808 0.86389 0.48217 0.0
C1271 C 0.28319 0.86288 0.44557 0.0
C1272 C 0.27266 0.86486 0.42094 0.0
C1273 C 0.25979 0.86832 0.43387 0.0
C1274 C 0.25743 0.8694 0.47048 0.0
H1275 H 0.26722 0.83344 0.55676 0.0
H1276 H 0.26444 0.84045 0.51309 0.0
H1277 H 0.28078 0.84164 0.53362 0.0
H1278 H 0.28904 0.86214 0.50055 0.0
H1279 H 0.29323 0.86024 0.43666 0.0
H1280 H 0.61828 0.05183 0.2027 0.0
H1281 H 0.62025 0.04244 0.2625 0.0
H1282 H 0.62122 1.00234 0.21865 0.0
H1283 H 0.61955 0.01167 0.15866 0.0
H1284 H 0.60245 0.02607 0.2949 0.0
H1285 H 0.65208 1.00053 0.28866 0.0
H1286 H 0.64667 0.01254 0.25557 0.0
H1287 H 0.64081 0.9954 0.25384 0.0
C1288 C 0.61912 0.04101 0.20569 0.0
C1289 C 0.61878 0.0325 0.17582 0.0
C1290 C 0.62023 0.03566 0.23995 0.0
C1291 C 0.62106 0.02169 0.24515 0.0
C1292 C 0.62093 0.01317 0.21535 0.0
H1293 H 0.61302 0.9683 0.42502 0.0
H1294 H 0.61599 0.97863 0.36655 0.0
C1295 C 0.61989 0.01852 0.18102 0.0
C1296 C 0.62105 0.01604 0.28179 0.0
H1297 H 0.63804 0.99498 0.33816 0.0
C1298 C 0.61032 0.01939 0.30445 0.0
C1299 C 0.63129 1.00728 0.29428 0.0
C1300 C 0.64343 1.00382 0.27195 0.0
C1301 C 0.60936 0.01399 0.33885 0.0
C1302 C 0.61949 1.0051 0.35113 0.0
C1303 C 0.63029 1.0018 0.32865 0.0
C1304 C 0.61876 0.99881 0.38686 0.0
C1305 C 0.59731 0.01752 0.36146 0.0
C1306 C 0.61966 1.00669 0.41774 0.0
C1307 C 0.61801 1.00081 0.45128 0.0
C1308 C 0.61539 0.98694 0.45452 0.0
C1309 C 0.61495 0.97902 0.42352 0.0
C1310 C 0.61667 0.9849 0.39005 0.0
H1311 H 0.58913 0.02231 0.34566 0.0
H1312 H 0.5932 0.0084 0.37467 0.0
H1313 H 0.60047 0.0247 0.38249 0.0
H1314 H 0.62144 0.01743 0.41586 0.0
H1315 H 0.61844 1.0072 0.47458 0.0
H1316 H 0.22703 0.36662 0.43192 0.0
H1317 H 0.23128 0.36958 0.49558 0.0
H1318 H 0.2739 0.36402 0.47809 0.0
H1319 H 0.26977 0.36109 0.41448 0.0
H1320 H 0.24354 0.35001 0.54012 0.0
H1321 H 0.27244 0.39788 0.5414 0.0
H1322 H 0.26221 0.39272 0.50403 0.0
H1323 H 0.27861 0.38545 0.51081 0.0
C1324 C 0.23733 0.36623 0.44149 0.0
C1325 C 0.24806 0.36362 0.41799 0.0
C1326 C 0.23974 0.36789 0.47793 0.0
C1327 C 0.25292 0.36716 0.4916 0.0
C1328 C 0.26367 0.36486 0.46812 0.0
H1329 H 0.29012 0.36507 0.70027 0.0
H1330 H 0.28503 0.3665 0.63672 0.0
C1331 C 0.26127 0.36312 0.43173 0.0
C1332 C 0.25534 0.36783 0.5306 0.0
H1333 H 0.27215 0.38532 0.59522 0.0
C1334 C 0.24969 0.3578 0.55224 0.0
C1335 C 0.26346 0.37793 0.54632 0.0
C1336 C 0.26945 0.38919 0.52455 0.0
C1337 C 0.2522 0.35739 0.589 0.0
C1338 C 0.26032 0.3675 0.60481 0.0
C1339 C 0.2659 0.37759 0.58317 0.0
C1340 C 0.26338 0.36755 0.64361 0.0
C1341 C 0.2465 0.34583 0.6103 0.0
C1342 C 0.25295 0.36806 0.66879 0.0
C1343 C 0.25582 0.36716 0.70517 0.0
C1344 C 0.26921 0.3659 0.71721 0.0
C1345 C 0.27969 0.366 0.69199 0.0
C1346 C 0.2768 0.36682 0.6556 0.0
H1347 H 0.24374 0.33717 0.59308 0.0
H1348 H 0.25383 0.34232 0.63063 0.0
H1349 H 0.23723 0.34922 0.62414 0.0
H1350 H 0.24254 0.36898 0.6603 0.0
H1351 H 0.2475 0.36725 0.7238 0.0
H1352 H 0.92188 0.0414 0.92353 0.0
H1353 H 0.91828 0.03169 0.86493 0.0
H1354 H 0.88346 0.01023 0.90385 0.0
H1355 H 0.88723 0.01971 0.96329 0.0
H1356 H 0.89934 0.99405 0.86578 0.0
H1357 H 0.89132 0.04069 0.78903 0.0
H1358 H 0.9068 0.04157 0.81361 0.0
H1359 H 0.89098 0.0404 0.83697 0.0
C1360 C 0.91336 0.03473 0.91969 0.0
C1361 C 0.90481 0.03138 0.94816 0.0
C1362 C 0.91124 0.02926 0.88596 0.0
C1363 C 0.90042 0.02046 0.87966 0.0
C1364 C 0.89181 0.0171 0.90798 0.0
H1365 H 0.88955 0.99432 0.65725 0.0
H1366 H 0.88455 1.00367 0.71617 0.0
C1367 C 0.89397 0.02253 0.94192 0.0
C1368 C 0.89878 0.01411 0.84408 0.0
H1369 H 0.89869 0.02128 0.75529 0.0
C1370 C 0.89896 1.00001 0.84165 0.0
C1371 C 0.89798 0.02183 0.81249 0.0
C1372 C 0.8966 0.03696 0.81317 0.0
C1373 C 0.89922 0.99347 0.80856 0.0
C1374 C 0.89965 1.00124 0.77702 0.0
C1375 C 0.8986 0.0153 0.77941 0.0
C1376 C 0.90216 0.99506 0.74162 0.0
C1377 C 0.89915 0.97828 0.80783 0.0
C1378 C 0.91377 0.98724 0.73618 0.0
C1379 C 0.91659 0.98185 0.70276 0.0
C1380 C 0.90797 0.9843 0.67372 0.0
C1381 C 0.89637 0.9922 0.67906 0.0
C1382 C 0.8935 0.99755 0.71271 0.0
H1383 H 0.89402 0.97409 0.83162 0.0
H1384 H 0.89404 0.97436 0.78366 0.0
H1385 H 0.90971 0.97456 0.80806 0.0
H1386 H 0.92083 0.98551 0.75769 0.0
H1387 H 0.92569 0.97593 0.69961 0.0
H1388 H 0.26634 0.64016 0.88976 0.0
H1389 H 0.26245 0.63604 0.95323 0.0
H1390 H 0.23646 0.67078 0.95787 0.0
H1391 H 0.24012 0.67485 0.89471 0.0
H1392 H 0.26886 0.65327 0.00855 0.0
H1393 H 0.21394 0.64277 0.0095 0.0
H1394 H 0.22383 0.64247 0.96927 0.0
H1395 H 0.2182 0.65823 0.98752 0.0
C1396 C 0.2596 0.64678 0.90414 0.0
C1397 C 0.25352 0.65782 0.88697 0.0
C1398 C 0.25743 0.64444 0.94049 0.0
C1399 C 0.24902 0.653 0.96036 0.0
C1400 C 0.24275 0.66385 0.9431 0.0
H1401 H 0.22999 0.66449 0.1845 0.0
H1402 H 0.23144 0.66575 0.11949 0.0
C1403 C 0.24493 0.66621 0.90688 0.0
C1404 C 0.24751 0.65117 0.99954 0.0
H1405 H 0.22419 0.64722 0.06574 0.0
C1406 C 0.2591 0.65181 0.021 0.0
C1407 C 0.23477 0.64937 0.01593 0.0
C1408 C 0.22198 0.64804 0.99437 0.0
C1409 C 0.25829 0.65102 0.05828 0.0
C1410 C 0.24555 0.64929 0.07469 0.0
C1411 C 0.23395 0.64858 0.05324 0.0
C1412 C 0.24411 0.64815 0.11404 0.0
C1413 C 0.27108 0.65245 0.07982 0.0
C1414 C 0.25046 0.63765 0.13262 0.0
C1415 C 0.24965 0.6369 0.16971 0.0
C1416 C 0.2424 0.64659 0.1892 0.0
C1417 C 0.23568 0.65687 0.17044 0.0
C1418 C 0.23651 0.65761 0.13324 0.0
H1419 H 0.2793 0.65722 0.06421 0.0
H1420 H 0.2693 0.65855 0.10409 0.0
H1421 H 0.27458 0.64232 0.08817 0.0
H1422 H 0.25614 0.63005 0.11843 0.0
H1423 H 0.25488 0.62878 0.18312 0.0
H1424 H 0.40199 1.00424 0.98196 0.0
H1425 H 0.39864 0.01454 0.92346 0.0
H1426 H 0.40324 0.97571 0.87379 0.0
H1427 H 0.40653 0.96532 0.93203 0.0
H1428 H 0.41786 0.01378 0.86798 0.0
H1429 H 0.36925 0.9911 0.82538 0.0
H1430 H 0.37473 0.9913 0.8712 0.0
H1431 H 0.38159 0.97919 0.84074 0.0
C1432 C 0.40208 0.99785 0.95865 0.0
C1433 C 0.40454 0.98395 0.96172 0.0
C1434 C 0.40019 1.00376 0.92523 0.0
C1435 C 0.40055 0.99588 0.89429 0.0
C1436 C 0.40267 0.98196 0.89733 0.0
H1437 H 0.4025 0.00973 0.66741 0.0
H1438 H 0.401 1.0004 0.72747 0.0
C1439 C 0.40463 0.97605 0.93068 0.0
C1440 C 0.39976 1.00231 0.85872 0.0
H1441 H 0.38192 1.00255 0.78092 0.0
C1442 C 0.40993 0.01144 0.84905 0.0
C1443 C 0.38946 0.99915 0.83399 0.0
C1444 C 0.37806 0.98974 0.84335 0.0
C1445 C 0.4103 0.01722 0.815 0.0
C1446 C 0.40002 0.01404 0.79017 0.0
C1447 C 0.38977 1.005 0.79996 0.0
C1448 C 0.39996 0.01976 0.75365 0.0
C1449 C 0.42197 0.02631 0.80557 0.0
C1450 C 0.39948 0.03374 0.74828 0.0
C1451 C 0.40042 0.03911 0.71401 0.0
C1452 C 0.40169 0.0306 0.68432 0.0
C1453 C 0.40157 0.01658 0.68966 0.0
C1454 C 0.40071 0.01122 0.72399 0.0
H1455 H 0.43067 0.02487 0.82387 0.0
H1456 H 0.42543 0.02446 0.77795 0.0
H1457 H 0.4187 0.03696 0.8076 0.0
H1458 H 0.39858 0.04052 0.77068 0.0
H1459 H 0.40035 0.04995 0.71086 0.0
H1460 H 0.72751 0.64702 0.42646 0.0
H1461 H 0.73396 0.64555 0.48931 0.0
H1462 H 0.77555 0.65238 0.46113 0.0
H1463 H 0.76923 0.65399 0.39853 0.0
H1464 H 0.75303 0.62876 0.52657 0.0
H1465 H 0.76693 0.68283 0.53211 0.0
H1466 H 0.75711 0.67576 0.49622 0.0
H1467 H 0.77513 0.67364 0.4972 0.0
C1468 C 0.73805 0.6481 0.43359 0.0
C1469 C 0.74783 0.65076 0.40741 0.0
C1470 C 0.74171 0.64724 0.46954 0.0
C1471 C 0.7552 0.6491 0.47996 0.0
C1472 C 0.76505 0.65118 0.45376 0.0
H1473 H 0.80136 0.65585 0.67278 0.0
H1474 H 0.79297 0.65354 0.61211 0.0
C1475 C 0.76141 0.65203 0.41791 0.0
C1476 C 0.759 0.64935 0.5182 0.0
H1477 H 0.77309 0.66948 0.58182 0.0
C1478 C 0.75733 0.63767 0.53879 0.0
C1479 C 0.76453 0.66102 0.53413 0.0
C1480 C 0.76593 0.67408 0.51393 0.0
C1481 C 0.76152 0.63722 0.57456 0.0
C1482 C 0.76733 0.64882 0.59022 0.0
C1483 C 0.76872 0.66056 0.56976 0.0
C1484 C 0.77243 0.64901 0.62743 0.0
C1485 C 0.76009 0.62423 0.59496 0.0
C1486 C 0.7637 0.64712 0.6564 0.0
C1487 C 0.7685 0.64841 0.69134 0.0
C1488 C 0.78209 0.65172 0.69791 0.0
C1489 C 0.79084 0.65332 0.66879 0.0
C1490 C 0.78605 0.65201 0.63401 0.0
H1491 H 0.75836 0.61551 0.57705 0.0
H1492 H 0.76924 0.62225 0.61125 0.0
H1493 H 0.75134 0.62501 0.6132 0.0
H1494 H 0.7531 0.64504 0.65201 0.0
H1495 H 0.76148 0.64719 0.71313 0.0
H1496 H 0.10662 0.05175 0.42241 0.0
H1497 H 0.10957 0.04183 0.36343 0.0
H1498 H 0.12314 1.00479 0.41129 0.0
H1499 H 0.12019 0.0146 0.47047 0.0
H1500 H 0.13313 0.02916 0.33004 0.0
H1501 H 0.08979 0.99427 0.34905 0.0
H1502 H 0.09245 0.00884 0.37687 0.0
H1503 H 0.10253 0.99401 0.38314 0.0
C1504 C 0.11035 0.04153 0.42046 0.0
C1505 C 0.11305 0.03393 0.45122 0.0
C1506 C 0.11205 0.03589 0.3867 0.0
C1507 C 0.1164 0.02253 0.38303 0.0
C1508 C 0.11961 0.01507 0.41358 0.0
H1509 H 0.11807 0.96916 0.19966 0.0
H1510 H 0.12076 0.97901 0.25877 0.0
C1511 C 0.11796 0.02072 0.44738 0.0
C1512 C 0.11698 0.01624 0.34731 0.0
H1513 H 0.10179 0.99245 0.29539 0.0
C1514 C 0.12632 0.02111 0.32241 0.0
C1515 C 0.10807 1.00575 0.33749 0.0
C1516 C 0.09755 1.00043 0.36285 0.0
C1517 C 0.12706 0.01566 0.28796 0.0
C1518 C 0.11801 1.00529 0.27795 0.0
C1519 C 0.10875 1.00037 0.30305 0.0
C1520 C 0.11765 0.99955 0.24145 0.0
C1521 C 0.13769 0.02091 0.26287 0.0
C1522 C 0.11511 0.00781 0.21189 0.0
C1523 C 0.11365 1.00221 0.17796 0.0
C1524 C 0.11454 0.9882 0.17297 0.0
C1525 C 0.11732 0.97998 0.20252 0.0
C1526 C 0.11885 0.9856 0.23637 0.0
H1527 H 0.14623 0.02561 0.2775 0.0
H1528 H 0.14171 0.01275 0.24573 0.0
H1529 H 0.13316 0.02874 0.24552 0.0
H1530 H 0.11381 0.01856 0.21518 0.0
H1531 H 0.11141 0.00883 0.15585 0.0
H1532 H 0.76543 0.36923 0.21698 0.0
H1533 H 0.77077 0.37183 0.15386 0.0
H1534 H 0.72962 0.36206 0.12664 0.0
H1535 H 0.72413 0.35976 0.18957 0.0
H1536 H 0.76975 0.35319 0.10233 0.0
H1537 H 0.73536 0.39486 0.066 0.0
H1538 H 0.73891 0.39047 0.1116 0.0
H1539 H 0.7266 0.3811 0.08648 0.0
C1540 C 0.75746 0.36782 0.1976 0.0
C1541 C 0.74433 0.36435 0.20847 0.0
C1542 C 0.76054 0.36929 0.16147 0.0
C1543 C 0.75057 0.36736 0.13535 0.0
C1544 C 0.73743 0.36397 0.14617 0.0
H1545 H 0.74745 0.3559 0.90868 0.0
H1546 H 0.74314 0.35855 0.97225 0.0
C1547 C 0.73432 0.36257 0.18228 0.0
C1548 C 0.75407 0.36806 0.09683 0.0
H1549 H 0.74472 0.38224 0.01766 0.0
C1550 C 0.76438 0.35968 0.08393 0.0
C1551 C 0.74709 0.37652 0.07268 0.0
C1552 C 0.73647 0.38634 0.08493 0.0
C1553 C 0.76758 0.35919 0.04754 0.0
C1554 C 0.76037 0.36739 0.02334 0.0
C1555 C 0.75022 0.37594 0.03623 0.0
C1556 C 0.76284 0.36675 0.98437 0.0
C1557 C 0.77834 0.34954 0.03507 0.0
C1558 C 0.77524 0.37081 0.96982 0.0
C1559 C 0.77774 0.36937 0.93334 0.0
C1560 C 0.76787 0.3638 0.91071 0.0
C1561 C 0.75531 0.36017 0.92527 0.0
C1562 C 0.75281 0.36169 0.96165 0.0
H1563 H 0.78115 0.34215 0.05597 0.0
H1564 H 0.77488 0.34397 0.01114 0.0
H1565 H 0.78752 0.3553 0.02775 0.0
H1566 H 0.78307 0.37492 0.98679 0.0
H1567 H 0.78751 0.37229 0.92306 0.0
H1568 H 0.14486 0.53418 0.44876 0.0
H1569 H 0.14336 0.52758 0.38615 0.0
H1570 H 0.11012 0.50117 0.41072 0.0
H1571 H 0.11144 0.50773 0.47317 0.0
H1572 H 0.14365 0.50148 0.35022 0.0
H1573 H 0.09491 0.52855 0.33711 0.0
H1574 H 0.10627 0.53119 0.37404 0.0
H1575 H 0.09542 0.51668 0.37311 0.0
C1576 C 0.13737 0.52679 0.44097 0.0
C1577 C 0.12816 0.52159 0.4659 0.0
C1578 C 0.13653 0.52306 0.40518 0.0
C1579 C 0.12646 0.51411 0.39382 0.0
C1580 C 0.11781 0.50829 0.41895 0.0
H1581 H 0.09408 0.47804 0.20868 0.0
H1582 H 0.1004 0.4864 0.26723 0.0
C1583 C 0.11862 0.51201 0.45465 0.0
C1584 C 0.12443 0.51136 0.35554 0.0
H1585 H 0.101 0.51407 0.28939 0.0
C1586 C 0.13441 0.50435 0.33669 0.0
C1587 C 0.11242 0.51527 0.33801 0.0
C1588 C 0.10168 0.52345 0.35645 0.0
C1589 C 0.13236 0.50053 0.30112 0.0
C1590 C 0.1201 0.50397 0.28409 0.0
C1591 C 0.11036 0.51141 0.30261 0.0
C1592 C 0.11663 0.49903 0.24814 0.0
C1593 C 0.14302 0.49233 0.28244 0.0
C1594 C 0.12359 0.50349 0.2179 0.0
C1595 C 0.11997 0.49875 0.18413 0.0
C1596 C 0.10933 0.48947 0.18024 0.0
C1597 C 0.10234 0.48515 0.21067 0.0
C1598 C 0.10593 0.48991 0.24421 0.0
H1599 H 0.15101 0.48881 0.30097 0.0
H1600 H 0.13839 0.48344 0.26929 0.0
H1601 H 0.14782 0.49858 0.26154 0.0
H1602 H 0.13176 0.51068 0.2204 0.0
H1603 H 0.12553 0.50226 0.16118 0.0
H1604 H 0.75378 0.87454 0.72194 0.0
H1605 H 0.76134 0.88064 0.66177 0.0
H1606 H 0.73592 0.84959 0.61764 0.0
H1607 H 0.72832 0.84353 0.6769 0.0
H1608 H 0.77396 0.86431 0.60917 0.0
H1609 H 0.72453 0.8832 0.56191 0.0
H1610 H 0.72834 0.88084 0.60845 0.0
H1611 H 0.72347 0.86673 0.58131 0.0
C1612 C 0.74984 0.86902 0.69937 0.0
C1613 C 0.74037 0.85862 0.70423 0.0
C1614 C 0.75413 0.87253 0.66506 0.0
C1615 C 0.74894 0.86577 0.63521 0.0
C1616 C 0.73979 0.85518 0.64019 0.0
H1617 H 0.75925 0.85556 0.41242 0.0
H1618 H 0.75183 0.85642 0.47435 0.0
C1619 C 0.73553 0.85168 0.67422 0.0
C1620 C 0.75322 0.86935 0.59865 0.0
H1621 H 0.74069 0.87756 0.51682 0.0
C1622 C 0.76676 0.86746 0.58907 0.0
C1623 C 0.74379 0.87344 0.5725 0.0
C1624 C 0.72924 0.87631 0.58159 0.0
C1625 C 0.77097 0.86882 0.5536 0.0
C1626 C 0.76141 0.87238 0.52721 0.0
C1627 C 0.74798 0.87477 0.53706 0.0
C1628 C 0.76501 0.87288 0.48898 0.0
C1629 C 0.78548 0.8658 0.54438 0.0
C1630 C 0.77453 0.88218 0.47638 0.0
C1631 C 0.77878 0.88174 0.44098 0.0
C1632 C 0.77357 0.872 0.41749 0.0
C1633 C 0.7635 0.86316 0.42977 0.0
C1634 C 0.75926 0.86363 0.46519 0.0
H1635 H 0.79086 0.86064 0.56644 0.0
H1636 H 0.78606 0.85938 0.52027 0.0
H1637 H 0.79083 0.87537 0.53868 0.0
H1638 H 0.77889 0.88958 0.49414 0.0
H1639 H 0.78649 0.88875 0.43239 0.0
H1640 H 0.42933 0.5251 0.70017 0.0
H1641 H 0.42408 0.5174 0.75996 0.0
H1642 H 0.38335 0.50823 0.72738 0.0
H1643 H 0.38847 0.5162 0.66712 0.0
H1644 H 0.38462 0.52294 0.79012 0.0
H1645 H 0.41926 0.47935 0.79689 0.0
H1646 H 0.42777 0.49442 0.7833 0.0
H1647 H 0.41478 0.48736 0.75544 0.0
C1648 C 0.41928 0.52131 0.70547 0.0
C1649 C 0.40932 0.52124 0.6788 0.0
C1650 C 0.41632 0.51684 0.7397 0.0
C1651 C 0.40339 0.51205 0.74799 0.0
C1652 C 0.39342 0.51181 0.72142 0.0
H1653 H 0.37559 0.4842 0.95674 0.0
H1654 H 0.37586 0.49038 0.8937 0.0
C1655 C 0.39638 0.51631 0.68702 0.0
C1656 C 0.40025 0.508 0.78497 0.0
H1657 H 0.41152 0.48812 0.85279 0.0
C1658 C 0.39032 0.51517 0.80371 0.0
C1659 C 0.40768 0.49782 0.80259 0.0
C1660 C 0.41787 0.4892 0.7834 0.0
C1661 C 0.38812 0.51287 0.84009 0.0
C1662 C 0.39603 0.50317 0.85794 0.0
C1663 C 0.40559 0.49567 0.83898 0.0
C1664 C 0.39493 0.5009 0.89663 0.0
C1665 C 0.37776 0.52113 0.85964 0.0
C1666 C 0.40546 0.50499 0.91909 0.0
C1667 C 0.40533 0.50156 0.95507 0.0
C1668 C 0.39471 0.49381 0.96913 0.0
C1669 C 0.3839 0.49018 0.94677 0.0
C1670 C 0.38402 0.4937 0.91077 0.0
H1671 H 0.3733 0.52912 0.84263 0.0
H1672 H 0.36953 0.51445 0.86906 0.0
H1673 H 0.38242 0.52589 0.8834 0.0
H1674 H 0.41398 0.51053 0.90852 0.0
H1675 H 0.41383 0.5045 0.97146 0.0
H1676 H 0.75641 0.12009 0.22577 0.0
H1677 H 0.76404 0.1237 0.16505 0.0
H1678 H 0.77683 0.16389 0.19253 0.0
H1679 H 0.76892 0.16034 0.25368 0.0
H1680 H 0.76008 0.16363 0.13549 0.0
H1681 H 0.79987 0.12575 0.11399 0.0
H1682 H 0.78513 0.11809 0.13281 0.0
H1683 H 0.7943 0.13057 0.15786 0.0
C1684 C 0.76113 0.12961 0.21917 0.0
C1685 C 0.76212 0.13992 0.24462 0.0
C1686 C 0.76562 0.13162 0.18442 0.0
C1687 C 0.7712 0.144 0.17416 0.0
C1688 C 0.77269 0.15419 0.19988 0.0
H1689 H 0.79013 0.15424 0.94539 0.0
H1690 H 0.79316 0.15319 0.01018 0.0
C1691 C 0.76825 0.15213 0.23489 0.0
C1692 C 0.77367 0.14672 0.13578 0.0
H1693 H 0.78753 0.13288 0.06103 0.0
C1694 C 0.76632 0.15708 0.11936 0.0
C1695 C 0.78194 0.13832 0.11458 0.0
C1696 C 0.79087 0.12766 0.13082 0.0
C1697 C 0.76627 0.15867 0.08227 0.0
C1698 C 0.77358 0.14951 0.06084 0.0
C1699 C 0.7817 0.13974 0.07734 0.0
C1700 C 0.77209 0.14941 0.02145 0.0
C1701 C 0.75814 0.17001 0.0663 0.0
C1702 C 0.75935 0.14719 0.00619 0.0
C1703 C 0.75759 0.14777 0.96938 0.0
C1704 C 0.76856 0.15049 0.94676 0.0
C1705 C 0.78146 0.15216 0.96198 0.0
C1706 C 0.78321 0.15158 0.99901 0.0
H1707 H 0.75676 0.17837 0.08557 0.0
H1708 H 0.76305 0.17405 0.04204 0.0
H1709 H 0.74799 0.1662 0.05891 0.0
H1710 H 0.75068 0.14516 0.02286 0.0
H1711 H 0.74754 0.1463 0.95871 0.0
H1712 H 0.92504 0.47767 0.71059 0.0
H1713 H 0.91913 0.48579 0.76958 0.0
H1714 H 0.89073 0.5137 0.72357 0.0
H1715 H 0.89658 0.50555 0.66385 0.0
H1716 H 0.92127 0.51345 0.79328 0.0
H1717 H 0.86908 0.49282 0.80244 0.0
H1718 H 0.88129 0.48639 0.77114 0.0
H1719 H 0.8734 0.50237 0.76339 0.0
C1720 C 0.9175 0.48552 0.71283 0.0
C1721 C 0.91127 0.49097 0.68247 0.0
C1722 C 0.91414 0.49014 0.74664 0.0
C1723 C 0.90441 0.50023 0.75091 0.0
C1724 C 0.89814 0.50576 0.72077 0.0
H1725 H 0.87847 0.53754 0.94974 0.0
H1726 H 0.87956 0.53015 0.88777 0.0
C1727 C 0.90155 0.50117 0.68673 0.0
C1728 C 0.90134 0.50515 0.78711 0.0
H1729 H 0.87746 0.50446 0.85247 0.0
C1730 C 0.91167 0.51156 0.80618 0.0
C1731 C 0.88878 0.5027 0.80368 0.0
C1732 C 0.87747 0.49563 0.78435 0.0
C1733 C 0.90986 0.51545 0.84164 0.0
C1734 C 0.89748 0.51256 0.85871 0.0
C1735 C 0.88698 0.50652 0.83934 0.0
C1736 C 0.89546 0.51564 0.89682 0.0
C1737 C 0.92123 0.52263 0.86052 0.0
C1738 C 0.90362 0.50948 0.92263 0.0
C1739 C 0.90306 0.51368 0.95801 0.0
C1740 C 0.89425 0.52407 0.96825 0.0
C1741 C 0.88541 0.52955 0.94275 0.0
C1742 C 0.88601 0.52536 0.9073 0.0
H1743 H 0.92848 0.52716 0.84147 0.0
H1744 H 0.91729 0.53071 0.87808 0.0
H1745 H 0.92683 0.51531 0.87724 0.0
H1746 H 0.9108 0.50177 0.91513 0.0
H1747 H 0.90993 0.50917 0.97699 0.0
H1748 H 0.25917 0.1591 0.71283 0.0
H1749 H 0.26509 0.15715 0.64994 0.0
H1750 H 0.24315 0.11973 0.64333 0.0
H1751 H 0.23701 0.12167 0.706 0.0
H1752 H 0.27836 0.13766 0.60989 0.0
H1753 H 0.22495 0.14297 0.56724 0.0
H1754 H 0.23046 0.14645 0.61204 0.0
H1755 H 0.22795 0.12937 0.59771 0.0
C1756 C 0.25575 0.15035 0.69817 0.0
C1757 C 0.24749 0.14061 0.71442 0.0
C1758 C 0.25912 0.14927 0.66218 0.0
C1759 C 0.25429 0.13846 0.64174 0.0
C1760 C 0.24671 0.12832 0.65838 0.0
H1761 H 0.28136 0.12012 0.42637 0.0
H1762 H 0.27523 0.11873 0.48915 0.0
C1763 C 0.24331 0.1294 0.69432 0.0
C1764 C 0.25681 0.13805 0.60285 0.0
H1765 H 0.24092 0.13837 0.52213 0.0
C1766 C 0.27019 0.13778 0.59069 0.0
C1767 C 0.24612 0.13843 0.57783 0.0
C1768 C 0.23156 0.13945 0.58924 0.0
C1769 C 0.27317 0.13777 0.55419 0.0
C1770 C 0.26247 0.1378 0.52917 0.0
C1771 C 0.2491 0.13818 0.54134 0.0
C1772 C 0.265 0.13796 0.49027 0.0
C1773 C 0.28776 0.13808 0.54276 0.0
C1774 C 0.26066 0.14889 0.46956 0.0
C1775 C 0.26402 0.14966 0.4335 0.0
C1776 C 0.27178 0.13948 0.41746 0.0
C1777 C 0.27546 0.12819 0.43788 0.0
C1778 C 0.27207 0.12742 0.47388 0.0
H1779 H 0.29453 0.14137 0.56467 0.0
H1780 H 0.29089 0.12782 0.53454 0.0
H1781 H 0.28919 0.14495 0.51979 0.0
H1782 H 0.25509 0.15709 0.4816 0.0
H1783 H 0.26099 0.15849 0.4186 0.0
H1784 H 0.63948 0.53538 0.17583 0.0
H1785 H 0.64009 0.52948 0.23889 0.0
H1786 H 0.60689 0.50202 0.2233 0.0
H1787 H 0.60622 0.50778 0.16021 0.0
H1788 H 0.61813 0.53395 0.28427 0.0
H1789 H 0.6333 0.48024 0.2853 0.0
H1790 H 0.63614 0.49114 0.24759 0.0
H1791 H 0.61976 0.48388 0.255 0.0
C1792 C 0.6325 0.52786 0.1856 0.0
C1793 C 0.62277 0.52208 0.16297 0.0
C1794 C 0.63285 0.52453 0.22169 0.0
C1795 C 0.62361 0.51525 0.2357 0.0
C1796 C 0.61427 0.50903 0.21291 0.0
H1797 H 0.58568 0.50574 0.43583 0.0
H1798 H 0.59304 0.512 0.37618 0.0
C1799 C 0.61387 0.51239 0.17686 0.0
C1800 C 0.62277 0.51308 0.27457 0.0
H1801 H 0.62289 0.48865 0.33833 0.0
C1802 C 0.61937 0.52409 0.29619 0.0
C1803 C 0.6245 0.50024 0.29008 0.0
C1804 C 0.62875 0.48821 0.26837 0.0
C1805 C 0.61703 0.52245 0.33269 0.0
C1806 C 0.61802 0.50947 0.34782 0.0
C1807 C 0.62205 0.49858 0.32657 0.0
C1808 C 0.61398 0.5068 0.38499 0.0
C1809 C 0.6133 0.53458 0.3547 0.0
C1810 C 0.62334 0.50183 0.40974 0.0
C1811 C 0.61917 0.4983 0.44401 0.0
C1812 C 0.60553 0.49947 0.45382 0.0
C1813 C 0.59626 0.50473 0.42914 0.0
C1814 C 0.60045 0.50837 0.39507 0.0
H1815 H 0.61648 0.54411 0.3417 0.0
H1816 H 0.60218 0.53488 0.35802 0.0
H1817 H 0.61797 0.53404 0.38151 0.0
H1818 H 0.63382 0.50049 0.40233 0.0
H1819 H 0.62654 0.49418 0.46232 0.0
H1820 H 0.23533 0.89452 0.93906 0.0
H1821 H 0.24217 0.89479 1.00144 0.0
H1822 H 0.26372 0.85752 0.98655 0.0
H1823 H 0.25705 0.85724 0.9239 0.0
H1824 H 0.23563 0.87561 0.05167 0.0
H1825 H 0.29122 0.88062 0.0398 0.0
H1826 H 0.27989 0.88398 0.00322 0.0
H1827 H 0.28422 0.86694 0.0146 0.0
C1828 C 0.24172 0.88648 0.94883 0.0
C1829 C 0.24565 0.87586 0.92637 0.0
C1830 C 0.24558 0.88664 0.98459 0.0
C1831 C 0.25352 0.87623 0.99869 0.0
C1832 C 0.25778 0.86579 0.97616 0.0
H1833 H 0.26174 0.85286 0.22055 0.0
H1834 H 0.25484 0.855 0.15834 0.0
C1835 C 0.25393 0.86563 0.94032 0.0
C1836 C 0.25667 0.87595 0.03734 0.0
H1837 H 0.28264 0.87537 0.09712 0.0
C1838 C 0.24591 0.87562 0.06163 0.0
C1839 C 0.27007 0.87608 0.05034 0.0
C1840 C 0.28203 0.87705 0.02569 0.0
C1841 C 0.2482 0.87522 0.09849 0.0
C1842 C 0.26161 0.87495 0.11145 0.0
C1843 C 0.27236 0.87548 0.08718 0.0
C1844 C 0.26477 0.87416 0.15005 0.0
C1845 C 0.23624 0.87529 0.12324 0.0
C1846 C 0.27261 0.88422 0.16619 0.0
C1847 C 0.2766 0.88301 0.20171 0.0
C1848 C 0.27291 0.87165 0.22185 0.0
C1849 C 0.26468 0.86179 0.20595 0.0
C1850 C 0.2607 0.86301 0.17035 0.0
H1851 H 0.227 0.87912 0.10987 0.0
H1852 H 0.23419 0.86485 0.13225 0.0
H1853 H 0.23828 0.88157 0.14705 0.0
H1854 H 0.27587 0.89291 0.15106 0.0
H1855 H 0.28295 0.89079 0.21301 0.0
H1856 H 0.59042 0.98835 0.70309 0.0
H1857 H 0.59814 0.99468 0.7623 0.0
H1858 H 0.63598 0.00828 0.71875 0.0
H1859 H 0.62833 1.00192 0.65891 0.0
H1860 H 0.62323 0.98421 0.79579 0.0
H1861 H 0.62126 0.04009 0.78278 0.0
H1862 H 0.61162 0.02915 0.754 0.0
H1863 H 0.62953 0.03054 0.74845 0.0
C1864 C 0.60035 0.99279 0.70589 0.0
C1865 C 0.60876 0.99463 0.67622 0.0
C1866 C 0.60475 0.99636 0.73981 0.0
C1867 C 0.6176 1.00194 0.74481 0.0
C1868 C 0.62598 1.00406 0.7153 0.0
H1869 H 0.64574 0.03336 0.94982 0.0
H1870 H 0.64622 0.02584 0.88789 0.0
C1871 C 0.62159 1.00043 0.6812 0.0
C1872 C 0.62218 1.00515 0.78127 0.0
H1873 H 0.62664 0.03127 0.83891 0.0
C1874 C 0.62415 0.99449 0.80519 0.0
C1875 C 0.62348 0.01856 0.79324 0.0
C1876 C 0.62132 0.03031 0.76849 0.0
C1877 C 0.62697 0.9969 0.84118 0.0
C1878 C 0.62753 0.01032 0.85364 0.0
C1879 C 0.62618 0.02098 0.82933 0.0
C1880 C 0.62826 0.01356 0.89207 0.0
C1881 C 0.62919 0.98504 0.86554 0.0
C1882 C 0.6181 0.00901 0.91508 0.0
C1883 C 0.61782 0.01323 0.95045 0.0
C1884 C 0.62762 0.02221 0.96347 0.0
C1885 C 0.63806 0.0264 0.9407 0.0
C1886 C 0.63834 0.02215 0.90526 0.0
H1887 H 0.63303 0.97618 0.85066 0.0
H1888 H 0.63644 0.98751 0.88711 0.0
H1889 H 0.61943 0.98214 0.87778 0.0
H1890 H 0.61004 1.00262 0.90532 0.0
H1891 H 0.60959 0.00986 0.96718 0.0
H1892 H 0.25382 0.37441 0.22296 0.0
H1893 H 0.26089 0.38083 0.16263 0.0
H1894 H 0.23647 0.34889 0.11904 0.0
H1895 H 0.22933 0.34253 0.17848 0.0
H1896 H 0.27395 0.36521 0.10993 0.0
H1897 H 0.22364 0.38187 0.06334 0.0
H1898 H 0.2276 0.37959 0.10982 0.0
H1899 H 0.22333 0.36533 0.08251 0.0
C1900 C 0.24998 0.36877 0.20048 0.0
C1901 C 0.24093 0.35803 0.20556 0.0
C1902 C 0.254 0.37246 0.16607 0.0
C1903 C 0.24894 0.36553 0.13632 0.0
C1904 C 0.24021 0.35461 0.14151 0.0
H1905 H 0.25975 0.35617 0.9131 0.0
H1906 H 0.25223 0.35648 0.975 0.0
C1907 C 0.23621 0.35093 0.17565 0.0
C1908 C 0.25298 0.36928 0.09968 0.0
H1909 H 0.23996 0.37701 0.01803 0.0
C1910 C 0.26658 0.36803 0.08993 0.0
C1911 C 0.24332 0.37295 0.07364 0.0
C1912 C 0.22868 0.37515 0.08289 0.0
C1913 C 0.27067 0.36965 0.05445 0.0
C1914 C 0.26092 0.3728 0.02818 0.0
C1915 C 0.2474 0.37453 0.03817 0.0
C1916 C 0.26447 0.37361 0.98996 0.0
C1917 C 0.28529 0.36735 0.04505 0.0
C1918 C 0.27345 0.38346 0.97755 0.0
C1919 C 0.27774 0.38334 0.94217 0.0
C1920 C 0.27312 0.37337 0.9185 0.0
C1921 C 0.26354 0.36396 0.93059 0.0
C1922 C 0.25925 0.36411 0.96598 0.0
H1923 H 0.29095 0.36242 0.067 0.0
H1924 H 0.28615 0.36101 0.02086 0.0
H1925 H 0.29017 0.37717 0.03942 0.0
H1926 H 0.27739 0.39105 0.99546 0.0
H1927 H 0.28506 0.39079 0.93375 0.0
H1928 H 0.88947 0.99499 0.4658 0.0
H1929 H 0.88336 1.00232 0.4055 0.0
H1930 H 0.92367 0.99324 0.36972 0.0
H1931 H 0.92974 0.98574 0.42917 0.0
H1932 H 0.89363 0.02212 0.36323 0.0
H1933 H 0.901 0.97295 0.29796 0.0
H1934 H 0.89997 0.9747 0.34564 0.0
H1935 H 0.9157 0.97761 0.32294 0.0
C1936 C 0.89702 0.99459 0.44504 0.0
C1937 C 0.91006 0.98967 0.45217 0.0
C1938 C 0.8935 0.99872 0.41062 0.0
C1939 C 0.90295 0.99795 0.38292 0.0
C1940 C 0.91608 0.9935 0.39039 0.0
H1941 H 0.91835 0.04184 0.19864 0.0
H1942 H 0.91427 0.03281 0.25762 0.0
C1943 C 0.91957 0.98932 0.42453 0.0
C1944 C 0.89947 1.00225 0.3463 0.0
H1945 H 0.9028 0.99256 0.25976 0.0
C1946 C 0.89536 0.01559 0.3406 0.0
C1947 C 0.90135 0.99363 0.31676 0.0
C1948 C 0.90459 0.97888 0.32116 0.0
C1949 C 0.89417 0.02083 0.3061 0.0
C1950 C 0.89749 0.01259 0.27667 0.0
C1951 C 0.9005 0.99896 0.28231 0.0
C1952 C 0.89935 0.01825 0.24053 0.0
C1953 C 0.88968 0.03524 0.30161 0.0
C1954 C 0.8927 0.01272 0.21091 0.0
C1955 C 0.89518 0.01777 0.17673 0.0
C1956 C 0.9044 0.02837 0.17174 0.0
C1957 C 0.91109 0.03376 0.20149 0.0
C1958 C 0.90867 0.02869 0.23539 0.0
H1959 H 0.88289 0.03834 0.32362 0.0
H1960 H 0.89865 0.04193 0.30232 0.0
H1961 H 0.88434 0.03677 0.27597 0.0
H1962 H 0.8856 1.00452 0.21424 0.0
H1963 H 0.88988 0.0134 0.15432 0.0
H1964 H 0.22765 0.65578 0.68147 0.0
H1965 H 0.22451 0.65403 0.61684 0.0
H1966 H 0.26733 0.64826 0.60369 0.0
H1967 H 0.27058 0.65007 0.66767 0.0
H1968 H 0.25617 0.66833 0.55914 0.0
H1969 H 0.22723 0.62033 0.55206 0.0
H1970 H 0.22095 0.6332 0.5813 0.0
H1971 H 0.23672 0.62514 0.59107 0.0
C1972 C 0.23637 0.65399 0.66483 0.0
C1973 C 0.24937 0.65308 0.67987 0.0
C1974 C 0.23456 0.65297 0.62789 0.0
C1975 C 0.24569 0.65097 0.60541 0.0
C1976 C 0.2586 0.64984 0.62047 0.0
H1977 H 0.26517 0.62322 0.40232 0.0
H1978 H 0.25811 0.62687 0.46349 0.0
C1979 C 0.26042 0.65085 0.65717 0.0
C1980 C 0.24421 0.65045 0.56606 0.0
H1981 H 0.23317 0.63051 0.4979 0.0
C1982 C 0.25096 0.66019 0.54568 0.0
C1983 C 0.23742 0.6398 0.5486 0.0
C1984 C 0.23021 0.62894 0.5692 0.0
C1985 C 0.25163 0.65925 0.50846 0.0
C1986 C 0.24522 0.64835 0.491 0.0
C1987 C 0.23798 0.63892 0.51128 0.0
C1988 C 0.24764 0.64553 0.45269 0.0
C1989 C 0.2599 0.66948 0.48832 0.0
C1990 C 0.24373 0.65459 0.42582 0.0
C1991 C 0.24783 0.65252 0.3905 0.0
C1992 C 0.25586 0.64137 0.38159 0.0
C1993 C 0.25909 0.63199 0.40829 0.0
C1994 C 0.255 0.63402 0.44333 0.0
H1995 H 0.26589 0.67604 0.50632 0.0
H1996 H 0.26692 0.66438 0.4697 0.0
H1997 H 0.25308 0.67598 0.47245 0.0
H1998 H 0.2379 0.66346 0.43234 0.0
H1999 H 0.24523 0.65995 0.37067 0.0
H2000 H 0.39661 1.00215 0.16705 0.0
H2001 H 0.39128 0.01026 0.22713 0.0
H2002 H 0.42071 0.98296 0.27112 0.0
H2003 H 0.42612 0.97488 0.21175 0.0
H2004 H 0.38251 0.99426 0.28874 0.0
H2005 H 0.43124 0.02054 0.31091 0.0
H2006 H 0.42524 0.01598 0.26718 0.0
H2007 H 0.43296 1.00354 0.29532 0.0
C2008 C 0.40198 0.99794 0.18954 0.0
C2009 C 0.41184 0.98793 0.18461 0.0
C2010 C 0.39889 1.00254 0.22378 0.0
C2011 C 0.40572 0.9973 0.25341 0.0
C2012 C 0.41547 0.98727 0.24852 0.0
H2013 H 0.41078 1.00619 0.47911 0.0
H2014 H 0.41163 0.99869 0.41735 0.0
C2015 C 0.41852 0.98264 0.21452 0.0
C2016 C 0.40276 1.00214 0.28972 0.0
H2017 H 0.41768 0.01659 0.362 0.0
C2018 C 0.39011 0.99929 0.30473 0.0
C2019 C 0.41272 0.00869 0.31037 0.0
C2020 C 0.42627 0.0125 0.29509 0.0
C2021 C 0.38737 1.00234 0.34047 0.0
C2022 C 0.3975 0.00853 0.36138 0.0
C2023 C 0.40999 0.01171 0.34599 0.0
C2024 C 0.39553 0.01175 0.39944 0.0
C2025 C 0.37387 0.99851 0.35593 0.0
C2026 C 0.38598 0.02137 0.40997 0.0
C2027 C 0.38543 0.02565 0.44534 0.0
C2028 C 0.39451 0.02047 0.47068 0.0
C2029 C 0.40365 0.01039 0.4603 0.0
C2030 C 0.40417 1.00611 0.42499 0.0
H2031 H 0.36842 0.99116 0.33888 0.0
H2032 H 0.37511 0.99412 0.38288 0.0
H2033 H 0.36752 1.00766 0.35836 0.0
H2034 H 0.37937 0.02601 0.39057 0.0
H2035 H 0.37831 0.03348 0.45239 0.0
H2036 H 0.75546 0.65847 0.21505 0.0
H2037 H 0.7634 0.65806 0.15354 0.0
H2038 H 0.73693 0.62467 0.13093 0.0
H2039 H 0.72885 0.62502 0.19228 0.0
H2040 H 0.77501 0.63697 0.11036 0.0
H2041 H 0.72513 0.65446 0.06009 0.0
H2042 H 0.72977 0.65546 0.10641 0.0
H2043 H 0.72499 0.63959 0.08735 0.0
C2044 C 0.75146 0.6509 0.19718 0.0
C2045 C 0.74141 0.64187 0.20853 0.0
C2046 C 0.756 0.6507 0.16202 0.0
C2047 C 0.75055 0.6415 0.13757 0.0
C2048 C 0.74107 0.632 0.14925 0.0
H2049 H 0.76152 0.64077 0.90536 0.0
H2050 H 0.75416 0.63476 0.96566 0.0
C2051 C 0.73653 0.63218 0.1844 0.0
C2052 C 0.75436 0.64233 0.09958 0.0
H2053 H 0.74218 0.65094 0.01768 0.0
C2054 C 0.76782 0.63993 0.09004 0.0
C2055 C 0.74493 0.64613 0.07312 0.0
C2056 C 0.73041 0.64917 0.0821 0.0
C2057 C 0.77216 0.64141 0.05476 0.0
C2058 C 0.76284 0.64569 0.02852 0.0
C2059 C 0.74929 0.64766 0.03785 0.0
C2060 C 0.76719 0.64916 0.99195 0.0
C2061 C 0.7867 0.63842 0.04593 0.0
C2062 C 0.77667 0.65945 0.98676 0.0
C2063 C 0.78085 0.66289 0.9526 0.0
C2064 C 0.77556 0.6562 0.92272 0.0
C2065 C 0.76581 0.64609 0.92783 0.0
C2066 C 0.76162 0.64263 0.96222 0.0
H2067 H 0.79125 0.63136 0.06549 0.0
H2068 H 0.78766 0.634 0.01894 0.0
H2069 H 0.7926 0.64792 0.04672 0.0
H2070 H 0.78083 0.66488 0.00923 0.0
H2071 H 0.78829 0.6708 0.94969 0.0
H2072 H 0.08413 0.99109 0.9289 0.0
H2073 H 0.09065 0.99787 0.86914 0.0
H2074 H 0.12956 0.01061 0.90826 0.0
H2075 H 0.12316 1.00362 0.96849 0.0
H2076 H 0.09862 0.02293 0.84382 0.0
H2077 H 0.13914 0.98468 0.82678 0.0
H2078 H 0.12686 0.98371 0.86207 0.0
H2079 H 0.14061 0.99544 0.865 0.0
C2080 C 0.09407 0.99538 0.92495 0.0
C2081 C 0.10316 0.99675 0.95345 0.0
C2082 C 0.09778 0.99925 0.89073 0.0
C2083 C 0.11066 1.00453 0.88419 0.0
C2084 C 0.11966 1.0063 0.91267 0.0
H2085 H 0.13989 0.03432 0.6792 0.0
H2086 H 0.13894 0.02798 0.74208 0.0
C2087 C 0.11595 1.00242 0.94708 0.0
C2088 C 0.11445 0.00815 0.84737 0.0
H2089 H 0.135 0.99923 0.77837 0.0
C2090 C 0.10664 0.01783 0.82961 0.0
C2091 C 0.12492 1.00144 0.82891 0.0
C2092 C 0.13333 0.99066 0.84645 0.0
C2093 C 0.10884 0.0208 0.7937 0.0
C2094 C 0.11905 0.01385 0.77504 0.0
C2095 C 0.12716 1.00448 0.79292 0.0
C2096 C 0.12091 0.01592 0.73651 0.0
C2097 C 0.10012 0.03122 0.77567 0.0
C2098 C 0.11135 0.01078 0.71259 0.0
C2099 C 0.11186 0.01432 0.67672 0.0
C2100 C 0.12192 0.02312 0.66423 0.0
C2101 C 0.13198 0.02756 0.68796 0.0
C2102 C 0.13148 0.02396 0.72388 0.0
H2103 H 0.0943 0.03731 0.79509 0.0
H2104 H 0.10639 0.03809 0.75928 0.0
H2105 H 0.09286 0.0261 0.75768 0.0
H2106 H 0.10316 1.00449 0.72198 0.0
H2107 H 0.10398 0.01067 0.65919 0.0
H2108 H 0.75862 0.35524 0.71173 0.0
H2109 H 0.75095 0.35436 0.6499 0.0
H2110 H 0.77693 0.38776 0.624 0.0
H2111 H 0.78477 0.38865 0.68558 0.0
H2112 H 0.73889 0.37391 0.60482 0.0
H2113 H 0.78928 0.35803 0.55525 0.0
H2114 H 0.78492 0.35764 0.60178 0.0
H2115 H 0.78904 0.37333 0.58068 0.0
C2116 C 0.76259 0.36251 0.69302 0.0
C2117 C 0.77241 0.37194 0.70361 0.0
C2118 C 0.75821 0.36198 0.65766 0.0
C2119 C 0.76359 0.37081 0.6322 0.0
C2120 C 0.77287 0.38066 0.64303 0.0
H2121 H 0.75093 0.37106 0.40003 0.0
H2122 H 0.75878 0.37703 0.46008 0.0
C2123 C 0.77727 0.38121 0.67835 0.0
C2124 C 0.75974 0.36942 0.59421 0.0
H2125 H 0.77214 0.36102 0.51242 0.0
C2126 C 0.74617 0.37115 0.5846 0.0
C2127 C 0.76928 0.36589 0.5678 0.0
C2128 C 0.78393 0.3635 0.57677 0.0
C2129 C 0.74184 0.36932 0.54936 0.0
C2130 C 0.75129 0.36539 0.52316 0.0
C2131 C 0.76493 0.36404 0.53254 0.0
C2132 C 0.747 0.36169 0.48662 0.0
C2133 C 0.72715 0.37158 0.5405 0.0
C2134 C 0.73812 0.35087 0.4816 0.0
C2135 C 0.73368 0.34744 0.4476 0.0
C2136 C 0.73808 0.3547 0.41766 0.0
C2137 C 0.74734 0.36529 0.42253 0.0
C2138 C 0.7518 0.36873 0.45678 0.0
H2139 H 0.72223 0.37829 0.56021 0.0
H2140 H 0.72597 0.37606 0.51363 0.0
H2141 H 0.72178 0.36178 0.54088 0.0
H2142 H 0.73456 0.34508 0.50411 0.0
H2143 H 0.72666 0.33914 0.4449 0.0
H2144 H 0.11219 0.43873 0.13553 0.0
H2145 H 0.12398 0.42271 0.17415 0.0
H2146 H 0.15937 0.42569 0.10809 0.0
H2147 H 0.1478 0.44195 0.06997 0.0
H2148 H 0.13675 0.39819 0.16637 0.0
H2149 H 0.17357 0.43773 0.20406 0.0
H2150 H 0.15841 0.4414 0.17931 0.0
H2151 H 0.17302 0.43472 0.15709 0.0
C2152 C 0.12241 0.4358 0.12887 0.0
C2153 C 0.12912 0.44175 0.09991 0.0
C2154 C 0.12914 0.42666 0.15103 0.0
C2155 C 0.14268 0.42327 0.14456 0.0
C2156 C 0.14905 0.42844 0.11419 0.0
H2157 H 0.19221 0.36168 0.24445 0.0
H2158 H 0.17612 0.37378 0.20694 0.0
C2159 C 0.14239 0.43768 0.09227 0.0
C2160 C 0.15039 0.415 0.17057 0.0
H2161 H 0.17847 0.41553 0.22327 0.0
C2162 C 0.14585 0.40198 0.17896 0.0
C2163 C 0.1621 0.42005 0.18762 0.0
C2164 C 0.167 0.43428 0.1819 0.0
C2165 C 0.15289 0.39377 0.20324 0.0
C2166 C 0.16494 0.39862 0.21901 0.0
C2167 C 0.16929 0.41174 0.21109 0.0
C2168 C 0.17337 0.39036 0.24357 0.0
C2169 C 0.14719 0.3801 0.21218 0.0
C2170 C 0.17727 0.3956 0.27674 0.0
C2171 C 0.18665 0.3888 0.29797 0.0
C2172 C 0.19231 0.37656 0.28662 0.0
C2173 C 0.18793 0.371 0.25419 0.0
C2174 C 0.17866 0.3779 0.23273 0.0
H2175 H 0.13614 0.37968 0.20729 0.0
H2176 H 0.15202 0.37241 0.19502 0.0
H2177 H 0.14915 0.37742 0.24036 0.0
H2178 H 0.17335 0.40519 0.28575 0.0
H2179 H 0.18979 0.39336 0.3228 0.0
H2180 H 0.91771 0.92595 0.48195 0.0
H2181 H 0.90342 0.91015 0.44902 0.0
H2182 H 0.86816 0.92632 0.50071 0.0
H2183 H 0.88238 0.94174 0.53464 0.0
H2184 H 0.86583 0.89984 0.49335 0.0
H2185 H 0.88173 0.92184 0.36448 0.0
H2186 H 0.8954 0.91489 0.38982 0.0
H2187 H 0.88632 0.92924 0.40651 0.0
C2188 C 0.90693 0.926 0.4867 0.0
C2189 C 0.90119 0.93521 0.51071 0.0
C2190 C 0.89875 0.91704 0.46758 0.0
C2191 C 0.88465 0.9173 0.47156 0.0
C2192 C 0.87899 0.92598 0.49692 0.0
H2193 H 0.82229 0.89638 0.32363 0.0
H2194 H 0.84028 0.90646 0.35897 0.0
C2195 C 0.88716 0.9348 0.51637 0.0
C2196 C 0.87568 0.90899 0.44849 0.0
H2197 H 0.86675 0.90342 0.36195 0.0
C2198 C 0.86607 0.90057 0.4646 0.0
C2199 C 0.87585 0.91008 0.41094 0.0
C2200 C 0.88528 0.91959 0.39187 0.0
C2201 C 0.85651 0.89341 0.44436 0.0
C2202 C 0.85683 0.89435 0.40679 0.0
C2203 C 0.86659 0.90258 0.39068 0.0
C2204 C 0.84647 0.88779 0.38382 0.0
C2205 C 0.84581 0.88543 0.46358 0.0
C2206 C 0.84414 0.87384 0.38513 0.0
C2207 C 0.8337 0.86803 0.36513 0.0
C2208 C 0.82554 0.87604 0.34295 0.0
C2209 C 0.82835 0.88989 0.3404 0.0
C2210 C 0.83866 0.89569 0.36066 0.0
H2211 H 0.84487 0.88855 0.49182 0.0
H2212 H 0.83581 0.88661 0.45055 0.0
H2213 H 0.84855 0.8746 0.46313 0.0
H2214 H 0.85026 0.86745 0.40199 0.0
H2215 H 0.83187 0.85732 0.36752 0.0
H2216 H 0.37767 0.57417 0.58323 0.0
H2217 H 0.36149 0.58968 0.61016 0.0
H2218 H 0.38853 0.59585 0.69858 0.0
H2219 H 0.40465 0.58018 0.67219 0.0
H2220 H 0.36357 0.58937 0.72063 0.0
H2221 H 0.35989 0.63018 0.62095 0.0
H2222 H 0.35711 0.61384 0.60199 0.0
H2223 H 0.37335 0.61794 0.62061 0.0
C2224 C 0.38031 0.57903 0.60805 0.0
C2225 C 0.39247 0.57589 0.62556 0.0
C2226 C 0.37105 0.58796 0.62337 0.0
C2227 C 0.37382 0.59406 0.65629 0.0
C2228 C 0.38617 0.59131 0.67315 0.0
H2229 H 0.31867 0.65313 0.75356 0.0
H2230 H 0.33906 0.64235 0.72976 0.0
C2231 C 0.3954 0.58235 0.65795 0.0
C2232 C 0.36339 0.6023 0.67464 0.0
H2233 H 0.3421 0.62909 0.66412 0.0
C2234 C 0.359 0.59815 0.7084 0.0
C2235 C 0.35751 0.61386 0.659 0.0
C2236 C 0.3623 0.61931 0.6238 0.0
C2237 C 0.34858 0.60491 0.72628 0.0
C2238 C 0.34218 0.61601 0.70976 0.0
C2239 C 0.34692 0.62051 0.67665 0.0
C2240 C 0.33009 0.62255 0.7255 0.0
C2241 C 0.34449 0.60007 0.7627 0.0
C2242 C 0.31829 0.61502 0.73092 0.0
C2243 C 0.30669 0.62112 0.74449 0.0
C2244 C 0.30657 0.63493 0.75282 0.0
C2245 C 0.31844 0.64246 0.74765 0.0
C2246 C 0.33008 0.63633 0.73392 0.0
H2247 H 0.35278 0.59442 0.77587 0.0
H2248 H 0.34151 0.60861 0.78003 0.0
H2249 H 0.33572 0.59318 0.76011 0.0
H2250 H 0.31796 0.60444 0.724 0.0
H2251 H 0.29773 0.615 0.74792 0.0
H2252 H 0.72023 0.11256 0.88379 0.0
H2253 H 0.69988 0.10221 0.90762 0.0
H2254 H 0.67834 0.13958 0.89437 0.0
H2255 H 0.69887 0.15017 0.87071 0.0
H2256 H 0.67446 0.12782 0.96118 0.0
H2257 H 0.66602 0.09033 0.85468 0.0
H2258 H 0.68285 0.08969 0.87227 0.0
H2259 H 0.67719 0.10455 0.84929 0.0
C2260 C 0.71116 0.1186 0.88555 0.0
C2261 C 0.7112 0.13221 0.87515 0.0
C2262 C 0.69949 0.11262 0.89906 0.0
C2263 C 0.68752 0.12004 0.90233 0.0
C2264 C 0.68745 0.13363 0.89188 0.0
H2265 H 0.61336 0.07687 0.95609 0.0
H2266 H 0.62937 0.09235 0.92836 0.0
C2267 C 0.69917 0.13965 0.87823 0.0
C2268 C 0.67532 0.11364 0.91797 0.0
H2269 H 0.65469 0.08625 0.90982 0.0
C2270 C 0.67001 0.11883 0.94974 0.0
C2271 C 0.66938 0.10201 0.90283 0.0
C2272 C 0.67406 0.09639 0.8677 0.0
C2273 C 0.65932 0.11237 0.9675 0.0
C2274 C 0.65394 0.10028 0.95343 0.0
C2275 C 0.65888 0.09543 0.92089 0.0
C2276 C 0.64348 0.09222 0.97229 0.0
C2277 C 0.65391 0.11858 1.00115 0.0
C2278 C 0.64594 0.08712 0.00653 0.0
C2279 C 0.63674 0.07831 0.02262 0.0
C2280 C 0.62496 0.07428 0.00459 0.0
C2281 C 0.62232 0.07975 0.97078 0.0
C2282 C 0.63149 0.08859 0.95481 0.0
H2283 H 0.65595 0.12957 1.00213 0.0
H2284 H 0.64287 0.11693 0.00366 0.0
H2285 H 0.65897 0.11388 0.02437 0.0
H2286 H 0.65525 0.0895 0.02029 0.0
H2287 H 0.63917 0.07421 0.04853 0.0
H2288 H 0.19843 0.64699 0.36608 0.0
H2289 H 0.1803 0.63642 0.40051 0.0
H2290 H 0.20264 0.59918 0.40276 0.0
H2291 H 0.22062 0.60954 0.36799 0.0
H2292 H 0.17645 0.59539 0.38361 0.0
H2293 H 0.1792 0.62661 0.50571 0.0
H2294 H 0.17719 0.63607 0.46538 0.0
H2295 H 0.19237 0.62656 0.47262 0.0
C2296 C 0.1995 0.63656 0.37405 0.0
C2297 C 0.21097 0.62911 0.36415 0.0
C2298 C 0.18917 0.63056 0.39397 0.0
C2299 C 0.19017 0.61704 0.40464 0.0
C2300 C 0.20164 0.60963 0.39492 0.0
H2301 H 0.14348 0.57026 0.55526 0.0
H2302 H 0.16019 0.58455 0.52573 0.0
C2303 C 0.21193 0.61558 0.37498 0.0
C2304 C 0.17906 0.61033 0.42447 0.0
H2305 H 0.1609 0.61122 0.50165 0.0
C2306 C 0.17304 0.59887 0.4094 0.0
C2307 C 0.17473 0.61477 0.45834 0.0
C2308 C 0.18127 0.6266 0.4767 0.0
C2309 C 0.16282 0.59175 0.42712 0.0
C2310 C 0.15823 0.59638 0.46057 0.0
C2311 C 0.1643 0.60779 0.47582 0.0
C2312 C 0.1475 0.58914 0.48049 0.0
C2313 C 0.15731 0.5791 0.41023 0.0
C2314 C 0.13461 0.58741 0.46562 0.0
C2315 C 0.12506 0.5792 0.48234 0.0
C2316 C 0.12814 0.57266 0.51451 0.0
C2317 C 0.14076 0.57512 0.53051 0.0
C2318 C 0.15034 0.58328 0.51363 0.0
H2319 H 0.16419 0.57509 0.38949 0.0
H2320 H 0.15564 0.57112 0.43044 0.0
H2321 H 0.14748 0.58138 0.3974 0.0
H2322 H 0.13207 0.59208 0.44047 0.0
H2323 H 0.11541 0.57763 0.46941 0.0
H2324 H 0.60136 0.93452 0.65536 0.0
H2325 H 0.61594 0.91861 0.68681 0.0
H2326 H 0.64862 0.92809 0.61558 0.0
H2327 H 0.63405 0.94386 0.58356 0.0
H2328 H 0.64732 0.90065 0.63301 0.0
H2329 H 0.64529 0.93289 0.75356 0.0
H2330 H 0.62917 0.92726 0.7375 0.0
H2331 H 0.63916 0.93849 0.71089 0.0
C2332 C 0.61158 0.93308 0.64598 0.0
C2333 C 0.61657 0.9406 0.61714 0.0
C2334 C 0.61993 0.92403 0.66416 0.0
C2335 C 0.63347 0.92239 0.65407 0.0
C2336 C 0.63824 0.92926 0.62399 0.0
H2337 H 0.70348 0.90041 0.77294 0.0
H2338 H 0.68488 0.91091 0.74089 0.0
C2339 C 0.62988 0.93827 0.60569 0.0
C2340 C 0.6429 0.91421 0.67602 0.0
H2341 H 0.65787 0.91286 0.75783 0.0
C2342 C 0.64956 0.90324 0.66039 0.0
C2343 C 0.64594 0.91772 0.71162 0.0
C2344 C 0.63963 0.92979 0.7294 0.0
C2345 C 0.65928 0.89576 0.67929 0.0
C2346 C 0.66226 0.89925 0.71493 0.0
C2347 C 0.65546 0.91011 0.73065 0.0
C2348 C 0.67325 0.89259 0.73539 0.0
C2349 C 0.66665 0.88455 0.66053 0.0
C2350 C 0.67282 0.87879 0.74364 0.0
C2351 C 0.68351 0.8727 0.76211 0.0
C2352 C 0.6948 0.88032 0.77272 0.0
C2353 C 0.69499 0.8942 0.76515 0.0
C2354 C 0.68434 0.90024 0.7468 0.0
H2355 H 0.66512 0.8849 0.63129 0.0
H2356 H 0.67764 0.88504 0.6662 0.0
H2357 H 0.66284 0.87472 0.67031 0.0
H2358 H 0.66424 0.87273 0.73568 0.0
H2359 H 0.68304 0.862 0.76755 0.0
H2360 H 0.32137 0.40025 0.82661 0.0
H2361 H 0.33916 0.41091 0.86135 0.0
H2362 H 0.35053 0.3723 0.90443 0.0
H2363 H 0.33235 0.36155 0.87046 0.0
H2364 H 0.3489 0.3904 0.95579 0.0
H2365 H 0.379 0.41249 0.84714 0.0
H2366 H 0.36175 0.41776 0.84422 0.0
H2367 H 0.36593 0.40021 0.83906 0.0
C2368 C 0.32777 0.39395 0.84301 0.0
C2369 C 0.32545 0.38002 0.84558 0.0
C2370 C 0.33802 0.40008 0.86278 0.0
C2371 C 0.3464 0.39241 0.88509 0.0
C2372 C 0.34427 0.37844 0.88727 0.0
H2373 H 0.41551 0.43335 0.98245 0.0
H2374 H 0.40168 0.41711 0.94979 0.0
C2375 C 0.3339 0.3723 0.86772 0.0
C2376 C 0.35677 0.39914 0.90767 0.0
H2377 H 0.38234 0.42218 0.90513 0.0
C2378 C 0.35634 0.39721 0.94465 0.0
C2379 C 0.36667 0.40785 0.89326 0.0
C2380 C 0.36847 0.40958 0.85372 0.0
C2381 C 0.36513 0.40415 0.96762 0.0
C2382 C 0.37437 0.4136 0.95335 0.0
C2383 C 0.37516 0.4151 0.91627 0.0
C2384 C 0.38301 0.42236 0.97615 0.0
C2385 C 0.36445 0.40119 0.0069 0.0
C2386 C 0.37721 0.43064 1.00231 0.0
C2387 C 0.38515 0.43978 0.02145 0.0
C2388 C 0.39902 0.44106 0.01431 0.0
C2389 C 0.40486 0.4326 0.98864 0.0
C2390 C 0.39695 0.42333 0.96986 0.0
H2391 H 0.36067 0.39083 0.0119 0.0
H2392 H 0.37448 0.4023 0.01978 0.0
H2393 H 0.35732 0.40831 0.01963 0.0
H2394 H 0.36644 0.43042 0.00704 0.0
H2395 H 0.38029 0.44627 0.04067 0.0
H2396 H 0.81725 0.11799 0.31023 0.0
H2397 H 0.83308 0.10719 0.26952 0.0
H2398 H 0.81994 0.1335 0.1851 0.0
H2399 H 0.80426 0.14457 0.22597 0.0
H2400 H 0.82718 0.09337 0.21017 0.0
H2401 H 0.86063 0.13624 0.17601 0.0
H2402 H 0.84897 0.13679 0.21277 0.0
H2403 H 0.84305 0.13945 0.16812 0.0
C2404 C 0.81783 0.12159 0.28311 0.0
C2405 C 0.80955 0.13221 0.27145 0.0
C2406 C 0.82689 0.1154 0.25984 0.0
C2407 C 0.82787 0.11963 0.22432 0.0
C2408 C 0.81964 0.13027 0.21257 0.0
H2409 H 0.86041 0.06822 0.05822 0.0
H2410 H 0.84638 0.08329 0.09372 0.0
C2411 C 0.81063 0.13655 0.23595 0.0
C2412 C 0.83691 0.11231 0.19935 0.0
H2413 H 0.8635 0.11616 0.14234 0.0
C2414 C 0.83513 0.09837 0.1954 0.0
C2415 C 0.84739 0.1188 0.18032 0.0
C2416 C 0.85025 0.13362 0.18469 0.0
C2417 C 0.84344 0.09075 0.17291 0.0
C2418 C 0.85366 0.09727 0.15306 0.0
C2419 C 0.85557 0.1112 0.15722 0.0
C2420 C 0.86257 0.08965 0.12849 0.0
C2421 C 0.84137 0.0757 0.17121 0.0
C2422 C 0.87652 0.08878 0.13496 0.0
C2423 C 0.88463 0.08025 0.1144 0.0
C2424 C 0.87893 0.07243 0.08702 0.0
C2425 C 0.86511 0.07398 0.07931 0.0
C2426 C 0.85705 0.08255 0.0997 0.0
H2427 H 0.83561 0.07191 0.19448 0.0
H2428 H 0.83555 0.07317 0.14689 0.0
H2429 H 0.85118 0.07033 0.17005 0.0
H2430 H 0.88101 0.09424 0.15691 0.0
H2431 H 0.89523 0.0793 0.12107 0.0
H2432 H 0.9137 0.57853 0.95776 0.0
H2433 H 0.89922 0.59416 0.92509 0.0
H2434 H 0.8695 0.59182 0.00845 0.0
H2435 H 0.88406 0.57644 0.04167 0.0
H2436 H 0.87499 0.58842 0.89871 0.0
H2437 H 0.86986 0.63174 0.98993 0.0
H2438 H 0.88262 0.61896 0.9959 0.0
H2439 H 0.86565 0.61614 0.01121 0.0
C2440 C 0.90421 0.58157 0.96954 0.0
C2441 C 0.90006 0.57623 1.00239 0.0
C2442 C 0.89592 0.59049 0.95076 0.0
C2443 C 0.88331 0.59431 0.96439 0.0
C2444 C 0.87931 0.58931 0.9977 0.0
H2445 H 0.81098 0.61428 0.85296 0.0
H2446 H 0.83033 0.60406 0.88233 0.0
C2447 C 0.88764 0.58045 0.01663 0.0
C2448 C 0.87383 0.60242 0.94233 0.0
H2449 H 0.85308 0.6299 0.94382 0.0
C2450 C 0.87035 0.59759 0.90844 0.0
C2451 C 0.86788 0.6145 0.95468 0.0
C2452 C 0.8718 0.62072 0.98977 0.0
C2453 C 0.86071 0.60416 0.88726 0.0
C2454 C 0.85413 0.61574 0.90056 0.0
C2455 C 0.85802 0.62094 0.93376 0.0
C2456 C 0.84261 0.62207 0.88143 0.0
C2457 C 0.85762 0.59857 0.85087 0.0
C2458 C 0.84294 0.63572 0.8716 0.0
C2459 C 0.83178 0.64168 0.85481 0.0
C2460 C 0.82006 0.6341 0.84789 0.0
C2461 C 0.81985 0.62042 0.85762 0.0
C2462 C 0.83096 0.61451 0.87431 0.0
H2463 H 0.86625 0.59267 0.84028 0.0
H2464 H 0.84881 0.5917 0.85268 0.0
H2465 H 0.85516 0.60672 0.83174 0.0
H2466 H 0.8518 0.64177 0.87706 0.0
H2467 H 0.83224 0.65225 0.84789 0.0
H2468 H 0.11404 0.07647 0.63267 0.0
H2469 H 0.1266 0.09232 0.66983 0.0
H2470 H 0.15919 0.09229 0.59405 0.0
H2471 H 0.14682 0.07623 0.55709 0.0
H2472 H 0.16804 0.08725 0.66029 0.0
H2473 H 0.13491 0.13215 0.66302 0.0
H2474 H 0.12637 0.11693 0.6755 0.0
H2475 H 0.13278 0.11875 0.63107 0.0
C2476 C 0.12376 0.08005 0.62349 0.0
C2477 C 0.12943 0.07504 0.59187 0.0
C2478 C 0.13091 0.08918 0.64475 0.0
C2479 C 0.14381 0.09362 0.63464 0.0
C2480 C 0.14925 0.08903 0.60241 0.0
H2481 H 0.19498 0.15348 0.73795 0.0
H2482 H 0.17924 0.14168 0.69853 0.0
C2483 C 0.14215 0.07986 0.58124 0.0
C2484 C 0.15214 0.10201 0.65906 0.0
H2485 H 0.15272 0.13151 0.70597 0.0
C2486 C 0.16471 0.09696 0.67008 0.0
C2487 C 0.14786 0.11474 0.67168 0.0
C2488 C 0.13481 0.12104 0.65946 0.0
C2489 C 0.173 0.10414 0.6937 0.0
C2490 C 0.1685 0.11663 0.70739 0.0
C2491 C 0.15606 0.12184 0.69588 0.0
C2492 C 0.17678 0.12446 0.73311 0.0
C2493 C 0.18661 0.09837 0.70335 0.0
C2494 C 0.18023 0.11894 0.76625 0.0
C2495 C 0.18924 0.12563 0.78882 0.0
C2496 C 0.19492 0.13805 0.77882 0.0
C2497 C 0.19083 0.14393 0.7465 0.0
C2498 C 0.18183 0.13719 0.72389 0.0
H2499 H 0.18996 0.09066 0.68388 0.0
H2500 H 0.1944 0.1064 0.70476 0.0
H2501 H 0.18597 0.09348 0.7298 0.0
H2502 H 0.17623 0.10925 0.77425 0.0
H2503 H 0.19208 0.12086 0.8136 0.0
H2504 H 0.67923 0.36236 0.34922 0.0
H2505 H 0.6603 0.37393 0.37826 0.0
H2506 H 0.68445 0.40987 0.38765 0.0
H2507 H 0.70321 0.39856 0.35854 0.0
H2508 H 0.65929 0.38584 0.44633 0.0
H2509 H 0.64984 0.42373 0.34128 0.0
H2510 H 0.65986 0.40882 0.33371 0.0
H2511 H 0.66716 0.42328 0.35525 0.0
C2512 C 0.68044 0.37277 0.35716 0.0
C2513 C 0.69272 0.37954 0.3513 0.0
C2514 C 0.66964 0.37935 0.37387 0.0
C2515 C 0.67089 0.39283 0.38468 0.0
C2516 C 0.68314 0.39956 0.37891 0.0
H2517 H 0.6292 0.44141 0.53912 0.0
H2518 H 0.64366 0.42518 0.50859 0.0
C2519 C 0.6939 0.39303 0.36234 0.0
C2520 C 0.65961 0.39991 0.4028 0.0
H2521 H 0.64032 0.42833 0.39832 0.0
C2522 C 0.65501 0.39505 0.43567 0.0
C2523 C 0.6539 0.41182 0.3887 0.0
C2524 C 0.65784 0.41716 0.35263 0.0
C2525 C 0.64523 0.40208 0.45544 0.0
C2526 C 0.64008 0.4144 0.44222 0.0
C2527 C 0.64433 0.41896 0.4087 0.0
C2528 C 0.63057 0.42299 0.46281 0.0
C2529 C 0.64051 0.39621 0.49022 0.0
C2530 C 0.61837 0.42721 0.44738 0.0
C2531 C 0.61016 0.4366 0.46462 0.0
C2532 C 0.61396 0.44202 0.49771 0.0
C2533 C 0.6259 0.43737 0.51382 0.0
C2534 C 0.63417 0.42802 0.49643 0.0
H2535 H 0.64202 0.38513 0.49106 0.0
H2536 H 0.64645 0.40069 0.51225 0.0
H2537 H 0.62967 0.3984 0.49489 0.0
H2538 H 0.61537 0.4235 0.42147 0.0
H2539 H 0.60102 0.43993 0.45143 0.0
H2540 H 0.40686 0.93787 0.13479 0.0
H2541 H 0.39472 0.92151 0.17141 0.0
H2542 H 0.35883 0.92773 0.10852 0.0
H2543 H 0.37077 0.94435 0.07252 0.0
H2544 H 0.3535 0.93034 0.17701 0.0
H2545 H 0.38244 0.88322 0.15795 0.0
H2546 H 0.39279 0.89704 0.17223 0.0
H2547 H 0.38458 0.89771 0.12957 0.0
C2548 C 0.39647 0.93552 0.12823 0.0
C2549 C 0.38978 0.94243 0.10074 0.0
C2550 C 0.38954 0.92611 0.14916 0.0
C2551 C 0.37586 0.92326 0.14263 0.0
C2552 C 0.36936 0.92974 0.11415 0.0
H2553 H 0.32475 0.86253 0.24082 0.0
H2554 H 0.34005 0.87511 0.20212 0.0
C2555 C 0.37623 0.93922 0.0935 0.0
C2556 C 0.36793 0.91457 0.16725 0.0
H2557 H 0.36656 0.88338 0.20564 0.0
C2558 C 0.35634 0.92005 0.18309 0.0
C2559 C 0.37155 0.9011 0.17508 0.0
C2560 C 0.38344 0.89436 0.15755 0.0
C2561 C 0.34834 0.91252 0.20658 0.0
C2562 C 0.35221 0.89921 0.21542 0.0
C2563 C 0.36371 0.89364 0.1993 0.0
C2564 C 0.34413 0.89085 0.2404 0.0
C2565 C 0.33561 0.91883 0.22101 0.0
C2566 C 0.34171 0.89522 0.27531 0.0
C2567 C 0.33288 0.88811 0.29744 0.0
C2568 C 0.32643 0.87635 0.2853 0.0
C2569 C 0.32952 0.87155 0.25106 0.0
C2570 C 0.33827 0.87874 0.22885 0.0
H2571 H 0.33221 0.92744 0.20441 0.0
H2572 H 0.32729 0.91136 0.22247 0.0
H2573 H 0.33758 0.92268 0.2482 0.0
H2574 H 0.34638 0.90435 0.28516 0.0
H2575 H 0.33084 0.89203 0.32374 0.0
H2576 H 0.82158 0.40087 0.8051 0.0
H2577 H 0.83845 0.41194 0.76802 0.0
H2578 H 0.84603 0.37449 0.71367 0.0
H2579 H 0.8289 0.36336 0.75023 0.0
H2580 H 0.86549 0.40795 0.75536 0.0
H2581 H 0.83543 0.39945 0.63249 0.0
H2582 H 0.82867 0.39648 0.67625 0.0
H2583 H 0.83995 0.38448 0.65647 0.0
C2584 C 0.82692 0.39492 0.78555 0.0
C2585 C 0.82376 0.38125 0.78042 0.0
C2586 C 0.83659 0.40128 0.76435 0.0
C2587 C 0.84332 0.39413 0.73754 0.0
C2588 C 0.84074 0.3803 0.73363 0.0
H2589 H 0.90751 0.4364 0.61753 0.0
H2590 H 0.89587 0.41882 0.65171 0.0
C2591 C 0.83102 0.37392 0.75476 0.0
C2592 C 0.8525 0.40141 0.71286 0.0
H2593 H 0.85587 0.41122 0.62626 0.0
C2594 C 0.86349 0.40855 0.72706 0.0
C2595 C 0.84978 0.4023 0.67597 0.0
C2596 C 0.83776 0.39538 0.6593 0.0
C2597 C 0.87162 0.41683 0.70561 0.0
C2598 C 0.86884 0.41779 0.66877 0.0
C2599 C 0.85807 0.41036 0.65442 0.0
C2600 C 0.876 0.42756 0.64545 0.0
C2601 C 0.88269 0.42499 0.72289 0.0
C2602 C 0.86865 0.43796 0.62928 0.0
C2603 C 0.87522 0.44789 0.60953 0.0
C2604 C 0.88932 0.44766 0.6054 0.0
C2605 C 0.89664 0.4369 0.62028 0.0
C2606 C 0.89002 0.42691 0.64009 0.0
H2607 H 0.88176 0.42514 0.7523 0.0
H2608 H 0.89262 0.42053 0.71611 0.0
H2609 H 0.88256 0.43553 0.71303 0.0
H2610 H 0.85782 0.43865 0.63287 0.0
H2611 H 0.86923 0.45597 0.59834 0.0
H2612 H 0.37959 0.0677 0.54115 0.0
H2613 H 0.36515 0.08282 0.50677 0.0
H2614 H 0.39999 0.09776 0.45065 0.0
H2615 H 0.41445 0.08227 0.484 0.0
H2616 H 0.36315 0.10926 0.49716 0.0
H2617 H 0.37708 0.08548 0.36909 0.0
H2618 H 0.38203 0.0785 0.41135 0.0
H2619 H 0.39127 0.09237 0.39248 0.0
C2620 C 0.38422 0.07431 0.52178 0.0
C2621 C 0.39817 0.07368 0.51506 0.0
C2622 C 0.37593 0.08295 0.50206 0.0
C2623 C 0.38141 0.0912 0.4754 0.0
C2624 C 0.39545 0.0912 0.47023 0.0
H2625 H 0.33077 0.15257 0.37053 0.0
H2626 H 0.34856 0.14163 0.40542 0.0
C2627 C 0.40373 0.08242 0.48958 0.0
C2628 C 0.37234 0.09942 0.45237 0.0
H2629 H 0.36304 0.10465 0.36595 0.0
C2630 C 0.36315 0.10828 0.46846 0.0
C2631 C 0.37216 0.09799 0.4149 0.0
C2632 C 0.38106 0.08798 0.39591 0.0
C2633 C 0.35375 0.11565 0.44825 0.0
C2634 C 0.3538 0.11447 0.41072 0.0
C2635 C 0.36308 0.1057 0.39464 0.0
C2636 C 0.34371 0.12144 0.38776 0.0
C2637 C 0.3435 0.12419 0.46751 0.0
C2638 C 0.33551 0.11388 0.36475 0.0
C2639 C 0.32556 0.12013 0.34422 0.0
C2640 C 0.3235 0.13412 0.34634 0.0
C2641 C 0.33202 0.14177 0.36846 0.0
C2642 C 0.34211 0.1355 0.38872 0.0
H2643 H 0.3425 0.12118 0.49583 0.0
H2644 H 0.34678 0.13487 0.46684 0.0
H2645 H 0.33342 0.12346 0.45471 0.0
H2646 H 0.33657 0.10303 0.36332 0.0
H2647 H 0.31919 0.1139 0.32753 0.0
H2648 H 0.59944 0.58094 0.1495 0.0
H2649 H 0.61314 0.5974 0.18178 0.0
H2650 H 0.64829 0.58488 0.12295 0.0
H2651 H 0.63456 0.56882 0.08968 0.0
H2652 H 0.63275 0.5926 0.22563 0.0
H2653 H 0.65342 0.62453 0.11873 0.0
H2654 H 0.63977 0.61285 0.11107 0.0
H2655 H 0.65704 0.60714 0.11056 0.0
C2656 C 0.61003 0.58192 0.14286 0.0
C2657 C 0.61588 0.57362 0.11686 0.0
C2658 C 0.61787 0.59132 0.16144 0.0
C2659 C 0.63176 0.59256 0.15462 0.0
C2660 C 0.63755 0.58445 0.1281 0.0
H2661 H 0.69382 0.61505 0.30241 0.0
H2662 H 0.67594 0.6043 0.26818 0.0
C2663 C 0.62968 0.57519 0.10915 0.0
C2664 C 0.64036 0.60141 0.17729 0.0
H2665 H 0.6655 0.62496 0.17442 0.0
C2666 C 0.63977 0.59981 0.21437 0.0
C2667 C 0.6494 0.61102 0.16289 0.0
C2668 C 0.64984 0.6141 0.12365 0.0
C2669 C 0.64828 0.60712 0.23723 0.0
C2670 C 0.65799 0.61599 0.22265 0.0
C2671 C 0.65821 0.61802 0.18569 0.0
C2672 C 0.6684 0.62278 0.245 0.0
C2673 C 0.64668 0.60526 0.2768 0.0
C2674 C 0.67038 0.63677 0.24298 0.0
C2675 C 0.6808 0.64297 0.26223 0.0
C2676 C 0.68945 0.63529 0.2839 0.0
C2677 C 0.68727 0.62132 0.28636 0.0
C2678 C 0.67696 0.61514 0.26688 0.0
H2679 H 0.63621 0.60222 0.28366 0.0
H2680 H 0.65353 0.59712 0.28591 0.0
H2681 H 0.64919 0.61462 0.29154 0.0
H2682 H 0.66397 0.64289 0.22615 0.0
H2683 H 0.68224 0.65373 0.25958 0.0
H2684 H 0.19936 0.90523 0.83191 0.0
H2685 H 0.1813 0.91574 0.86594 0.0
H2686 H 0.16852 0.87673 0.90338 0.0
H2687 H 0.18692 0.86613 0.87019 0.0
H2688 H 0.1546 0.91387 0.86446 0.0
H2689 H 0.17295 0.89645 0.996 0.0
H2690 H 0.18281 0.89467 0.95606 0.0
H2691 H 0.1694 0.883 0.96554 0.0
C2692 C 0.19268 0.89884 0.8472 0.0
C2693 C 0.19468 0.88483 0.84849 0.0
C2694 C 0.18234 0.90489 0.86672 0.0
C2695 C 0.17369 0.89709 0.88792 0.0
C2696 C 0.17528 0.88302 0.88807 0.0
H2697 H 0.10068 0.93421 0.97682 0.0
H2698 H 0.11603 0.91922 0.94488 0.0
C2699 C 0.18573 0.87696 0.86878 0.0
C2700 C 0.16315 0.90381 0.90987 0.0
H2701 H 0.15219 0.9082 0.99523 0.0
C2702 C 0.15405 0.91259 0.89304 0.0
C2703 C 0.16254 0.90231 0.94729 0.0
C2704 C 0.17252 0.89371 0.96739 0.0
C2705 C 0.14448 0.91998 0.91246 0.0
C2706 C 0.14366 0.91825 0.94978 0.0
C2707 C 0.15269 0.90941 0.96661 0.0
C2708 C 0.13404 0.92613 0.97196 0.0
C2709 C 0.13573 0.92998 0.89286 0.0
C2710 C 0.13889 0.93442 0.99942 0.0
C2711 C 0.13009 0.94281 0.01825 0.0
C2712 C 0.11624 0.94314 0.00991 0.0
C2713 C 0.1113 0.93431 0.98369 0.0
C2714 C 0.12009 0.92581 0.96515 0.0
H2715 H 0.14008 0.93271 0.86663 0.0
H2716 H 0.12565 0.92546 0.88808 0.0
H2717 H 0.13438 0.93934 0.90857 0.0
H2718 H 0.14958 0.93479 0.00541 0.0
H2719 H 0.13425 0.94947 0.03826 0.0
loop_
_geom_bond_atom_site_label_1
_geom_bond_atom_site_label_2
_geom_bond_distance
_geom_bond_site_symmetry_2
_ccdc_geom_bond_type
Mg0 O7 2.141 . S
Mg0 O8 2.048 . S
Mg0 O9 2.048 . S
Mg0 O12 2.141 . S
C1 O2 1.313 . S
C1 O8 1.195 . S
O2 C1 1.313 . S
C3 O4 1.245 . S
C3 O12 1.289 . S
O4 C3 1.245 . S
C5 O6 1.245 . S
C5 O7 1.289 . S
O6 C5 1.245 . S
O7 Mg0 2.141 . S
O7 C5 1.289 . S
O8 Mg0 2.048 . S
O8 C1 1.195 . S
O9 Mg0 2.048 . S
O9 C10 1.195 . S
C10 O9 1.195 . S
C10 O11 1.313 . S
O11 C10 1.313 . S
O12 Mg0 2.141 . S
O12 C3 1.289 . S
Mg13 O20 2.141 . S
Mg13 O21 2.048 . S
Mg13 O22 2.048 . S
Mg13 O25 2.141 . S
C14 O15 1.313 . S
C14 O21 1.195 . S
O15 C14 1.313 . S
C16 O17 1.245 . S
C16 O25 1.289 . S
O17 C16 1.245 . S
C18 O19 1.245 . S
C18 O20 1.289 . S
O19 C18 1.245 . S
O20 Mg13 2.141 . S
O20 C18 1.289 . S
O21 Mg13 2.048 . S
O21 C14 1.195 . S
O22 Mg13 2.048 . S
O22 C23 1.195 . S
C23 O22 1.195 . S
C23 O24 1.313 . S
O24 C23 1.313 . S
O25 Mg13 2.141 . S
O25 C16 1.289 . S
Mg26 O33 2.141 . S
Mg26 O34 2.048 . S
Mg26 O35 2.048 . S
Mg26 O38 2.141 . S
C27 O28 1.313 . S
C27 O34 1.195 . S
O28 C27 1.313 . S
C29 O30 1.245 . S
C29 O38 1.289 . S
O30 C29 1.245 . S
C31 O32 1.245 . S
C31 O33 1.289 . S
O32 C31 1.245 . S
O33 Mg26 2.141 . S
O33 C31 1.289 . S
O34 Mg26 2.048 . S
O34 C27 1.195 . S
O35 Mg26 2.048 . S
O35 C36 1.195 . S
C36 O35 1.195 . S
C36 O37 1.313 . S
O37 C36 1.313 . S
O38 Mg26 2.141 . S
O38 C29 1.289 . S
Mg39 O46 2.141 . S
Mg39 O47 2.048 . S
Mg39 O48 2.048 . S
Mg39 O51 2.141 . S
C40 O41 1.313 . S
C40 O47 1.195 . S
O41 C40 1.313 . S
C42 O43 1.245 . S
C42 O51 1.289 . S
O43 C42 1.245 . S
C44 O45 1.245 . S
C44 O46 1.289 . S
O45 C44 1.245 . S
O46 Mg39 2.141 . S
O46 C44 1.289 . S
O47 Mg39 2.048 . S
O47 C40 1.195 . S
O48 Mg39 2.048 . S
O48 C49 1.195 . S
C49 O48 1.195 . S
C49 O50 1.313 . S
O50 C49 1.313 . S
O51 Mg39 2.141 . S
O51 C42 1.289 . S
Mg52 O59 2.141 . S
Mg52 O60 2.048 . S
Mg52 O61 2.048 . S
Mg52 O64 2.141 . S
C53 O54 1.313 . S
C53 O60 1.195 . S
O54 C53 1.313 . S
C55 O56 1.245 . S
C55 O64 1.289 . S
O56 C55 1.245 . S
C57 O58 1.245 . S
C57 O59 1.289 . S
O58 C57 1.245 . S
O59 Mg52 2.141 . S
O59 C57 1.289 . S
O60 Mg52 2.048 . S
O60 C53 1.195 . S
O61 Mg52 2.048 . S
O61 C62 1.195 . S
C62 O61 1.195 . S
C62 O63 1.313 . S
O63 C62 1.313 . S
O64 Mg52 2.141 . S
O64 C55 1.289 . S
Mg65 O72 2.141 . S
Mg65 O73 2.048 . S
Mg65 O74 2.048 . S
Mg65 O77 2.141 . S
C66 O67 1.313 . S
C66 O73 1.195 . S
O67 C66 1.313 . S
C68 O69 1.245 . S
C68 O77 1.289 . S
O69 C68 1.245 . S
C70 O71 1.245 . S
C70 O72 1.289 . S
O71 C70 1.245 . S
O72 Mg65 2.141 . S
O72 C70 1.289 . S
O73 Mg65 2.048 . S
O73 C66 1.195 . S
O74 Mg65 2.048 . S
O74 C75 1.195 . S
C75 O74 1.195 . S
C75 O76 1.313 . S
O76 C75 1.313 . S
O77 Mg65 2.141 . S
O77 C68 1.289 . S
Mg78 O85 2.141 . S
Mg78 O86 2.048 1_554 S
Mg78 O87 2.048 . S
Mg78 O90 2.141 . S
C79 O80 1.313 . S
C79 O86 1.195 . S
O80 C79 1.313 . S
C81 O82 1.245 . S
C81 O90 1.289 . S
O82 C81 1.245 . S
C83 O84 1.245 . S
C83 O85 1.289 . S
O84 C83 1.245 . S
O85 Mg78 2.141 . S
O85 C83 1.289 . S
O86 Mg78 2.048 1_556 S
O86 C79 1.195 . S
O87 Mg78 2.048 . S
O87 C88 1.195 . S
C88 O87 1.195 . S
C88 O89 1.313 . S
O89 C88 1.313 . S
O90 Mg78 2.141 . S
O90 C81 1.289 . S
Mg91 O98 2.141 . S
Mg91 O99 2.048 . S
Mg91 O100 2.048 . S
Mg91 O103 2.141 . S
C92 O93 1.313 . S
C92 O99 1.195 . S
O93 C92 1.313 . S
C94 O95 1.245 . S
C94 O103 1.289 . S
O95 C94 1.245 . S
C96 O97 1.245 . S
C96 O98 1.289 . S
O97 C96 1.245 . S
O98 Mg91 2.141 . S
O98 C96 1.289 . S
O99 Mg91 2.048 . S
O99 C92 1.195 . S
O100 Mg91 2.048 . S
O100 C101 1.195 . S
C101 O100 1.195 . S
C101 O102 1.313 . S
O102 C101 1.313 . S
O103 Mg91 2.141 . S
O103 C94 1.289 . S
Mg104 O111 2.141 . S
Mg104 O112 2.048 . S
Mg104 O113 2.048 1_554 S
Mg104 O116 2.141 . S
C105 O106 1.313 . S
C105 O112 1.195 . S
O106 C105 1.313 . S
C107 O108 1.245 . S
C107 O116 1.289 . S
O108 C107 1.245 . S
C109 O110 1.245 . S
C109 O111 1.289 . S
O110 C109 1.245 . S
O111 Mg104 2.141 . S
O111 C109 1.289 . S
O112 Mg104 2.048 . S
O112 C105 1.195 . S
O113 Mg104 2.048 1_556 S
O113 C114 1.195 . S
C114 O113 1.195 . S
C114 O115 1.313 . S
O115 C114 1.313 . S
O116 Mg104 2.141 . S
O116 C107 1.289 . S
Mg117 O124 2.141 . S
Mg117 O125 2.048 . S
Mg117 O126 2.048 . S
Mg117 O129 2.141 . S
C118 O119 1.313 . S
C118 O125 1.195 . S
O119 C118 1.313 . S
C120 O121 1.245 . S
C120 O129 1.289 . S
O121 C120 1.245 . S
C122 O123 1.245 . S
C122 O124 1.289 . S
O123 C122 1.245 . S
O124 Mg117 2.141 . S
O124 C122 1.289 . S
O125 Mg117 2.048 . S
O125 C118 1.195 . S
O126 Mg117 2.048 . S
O126 C127 1.195 . S
C127 O126 1.195 . S
C127 O128 1.313 . S
O128 C127 1.313 . S
O129 Mg117 2.141 . S
O129 C120 1.289 . S
Mg130 O137 2.141 . S
Mg130 O138 2.048 . S
Mg130 O139 2.048 . S
Mg130 O142 2.141 . S
C131 O132 1.313 . S
C131 O138 1.195 . S
O132 C131 1.313 . S
C133 O134 1.245 . S
C133 O142 1.289 . S
O134 C133 1.245 . S
C135 O136 1.245 . S
C135 O137 1.289 . S
O136 C135 1.245 . S
O137 Mg130 2.141 . S
O137 C135 1.289 . S
O138 Mg130 2.048 . S
O138 C131 1.195 . S
O139 Mg130 2.048 . S
O139 C140 1.195 . S
C140 O139 1.195 . S
C140 O141 1.313 . S
O141 C140 1.313 . S
O142 Mg130 2.141 . S
O142 C133 1.289 . S
Mg143 O150 2.141 . S
Mg143 O151 2.048 . S
Mg143 O152 2.048 . S
Mg143 O155 2.141 . S
C144 O145 1.313 . S
C144 O151 1.195 . S
O145 C144 1.313 . S
C146 O147 1.245 . S
C146 O155 1.289 . S
O147 C146 1.245 . S
C148 O149 1.245 . S
C148 O150 1.289 . S
O149 C148 1.245 . S
O150 Mg143 2.141 . S
O150 C148 1.289 . S
O151 Mg143 2.048 . S
O151 C144 1.195 . S
O152 Mg143 2.048 . S
O152 C153 1.195 . S
C153 O152 1.195 . S
C153 O154 1.313 . S
O154 C153 1.313 . S
O155 Mg143 2.141 . S
O155 C146 1.289 . S
Mg156 O163 2.141 . S
Mg156 O164 2.048 . S
Mg156 O165 2.048 . S
Mg156 O168 2.141 . S
C157 O158 1.313 . S
C157 O164 1.195 . S
O158 C157 1.313 . S
C159 O160 1.245 . S
C159 O168 1.289 . S
O160 C159 1.245 . S
C161 O162 1.245 . S
C161 O163 1.289 . S
O162 C161 1.245 . S
O163 Mg156 2.141 . S
O163 C161 1.289 . S
O164 Mg156 2.048 . S
O164 C157 1.195 . S
O165 Mg156 2.048 . S
O165 C166 1.195 . S
C166 O165 1.195 . S
C166 O167 1.313 . S
O167 C166 1.313 . S
O168 Mg156 2.141 . S
O168 C159 1.289 . S
Mg169 O176 2.141 . S
Mg169 O177 2.048 . S
Mg169 O178 2.048 . S
Mg169 O181 2.141 . S
C170 O171 1.313 . S
C170 O177 1.195 . S
O171 C170 1.313 . S
C172 O173 1.245 . S
C172 O181 1.289 . S
O173 C172 1.245 . S
C174 O175 1.245 . S
C174 O176 1.289 . S
O175 C174 1.245 . S
O176 Mg169 2.141 . S
O176 C174 1.289 . S
O177 Mg169 2.048 . S
O177 C170 1.195 . S
O178 Mg169 2.048 . S
O178 C179 1.195 . S
C179 O178 1.195 . S
C179 O180 1.313 . S
O180 C179 1.313 . S
O181 Mg169 2.141 . S
O181 C172 1.289 . S
Mg182 O189 2.141 . S
Mg182 O190 2.048 . S
Mg182 O191 2.048 . S
Mg182 O194 2.141 . S
C183 O184 1.313 . S
C183 O190 1.195 . S
O184 C183 1.313 . S
C185 O186 1.245 . S
C185 O194 1.289 . S
O186 C185 1.245 . S
C187 O188 1.245 . S
C187 O189 1.289 . S
O188 C187 1.245 . S
O189 Mg182 2.141 . S
O189 C187 1.289 . S
O190 Mg182 2.048 . S
O190 C183 1.195 . S
O191 Mg182 2.048 . S
O191 C192 1.195 . S
C192 O191 1.195 . S
C192 O193 1.313 . S
O193 C192 1.313 . S
O194 Mg182 2.141 . S
O194 C185 1.289 . S
Mg195 O202 2.141 . S
Mg195 O203 2.048 . S
Mg195 O204 2.048 . S
Mg195 O207 2.141 . S
C196 O197 1.313 . S
C196 O203 1.195 . S
O197 C196 1.313 . S
C198 O199 1.245 . S
C198 O207 1.289 . S
O199 C198 1.245 . S
C200 O201 1.245 . S
C200 O202 1.289 . S
O201 C200 1.245 . S
O202 Mg195 2.141 . S
O202 C200 1.289 . S
O203 Mg195 2.048 . S
O203 C196 1.195 . S
O204 Mg195 2.048 . S
O204 C205 1.195 . S
C205 O204 1.195 . S
C205 O206 1.313 . S
O206 C205 1.313 . S
O207 Mg195 2.141 . S
O207 C198 1.289 . S
Mg208 O215 2.141 . S
Mg208 O216 2.048 . S
Mg208 O217 2.048 1_565 S
Mg208 O220 2.141 . S
C209 O210 1.313 . S
C209 O216 1.195 . S
O210 C209 1.313 . S
C211 O212 1.245 . S
C211 O220 1.289 . S
O212 C211 1.245 . S
C213 O214 1.245 . S
C213 O215 1.289 . S
O214 C213 1.245 . S
O215 Mg208 2.141 . S
O215 C213 1.289 . S
O216 Mg208 2.048 . S
O216 C209 1.195 . S
O217 Mg208 2.048 1_545 S
O217 C218 1.171 1_545 S
C218 O217 1.171 1_565 S
C218 O219 1.389 . S
O219 C218 1.389 . S
O220 Mg208 2.141 . S
O220 C211 1.289 . S
Mg221 O228 2.141 . S
Mg221 O229 2.048 . S
Mg221 O230 2.048 . S
Mg221 O233 2.141 . S
C222 O223 1.313 . S
C222 O229 1.195 . S
O223 C222 1.313 . S
C224 O225 1.245 . S
C224 O233 1.289 . S
O225 C224 1.245 . S
C226 O227 1.245 . S
C226 O228 1.289 . S
O227 C226 1.245 . S
O228 Mg221 2.141 . S
O228 C226 1.289 . S
O229 Mg221 2.048 . S
O229 C222 1.195 . S
O230 Mg221 2.048 . S
O230 C231 1.195 . S
C231 O230 1.195 . S
C231 O232 1.313 . S
O232 C231 1.313 . S
O233 Mg221 2.141 . S
O233 C224 1.289 . S
Mg234 O241 2.141 . S
Mg234 O242 2.048 . S
Mg234 O243 2.048 1_545 S
Mg234 O246 2.141 . S
C235 O236 1.313 . S
C235 O242 1.195 . S
O236 C235 1.313 . S
C237 O238 1.245 . S
C237 O246 1.289 . S
O238 C237 1.245 . S
C239 O240 1.245 . S
C239 O241 1.289 . S
O240 C239 1.245 . S
O241 Mg234 2.141 . S
O241 C239 1.289 . S
O242 Mg234 2.048 . S
O242 C235 1.195 . S
O243 Mg234 2.048 1_565 S
O243 C244 1.171 1_565 S
C244 O243 1.171 1_545 S
C244 O245 1.388 . S
O245 C244 1.388 . S
O246 Mg234 2.141 . S
O246 C237 1.289 . S
Mg247 O254 2.141 . S
Mg247 O255 2.048 . S
Mg247 O256 2.048 . S
Mg247 O259 2.141 . S
C248 O249 1.313 . S
C248 O255 1.195 . S
O249 C248 1.313 . S
C250 O251 1.245 . S
C250 O259 1.289 . S
O251 C250 1.245 . S
C252 O253 1.245 . S
C252 O254 1.289 . S
O253 C252 1.245 . S
O254 Mg247 2.141 . S
O254 C252 1.289 . S
O255 Mg247 2.048 . S
O255 C248 1.195 . S
O256 Mg247 2.048 . S
O256 C257 1.195 . S
C257 O256 1.195 . S
C257 O258 1.313 . S
O258 C257 1.313 . S
O259 Mg247 2.141 . S
O259 C250 1.289 . S
Mg260 O267 2.141 . S
Mg260 O268 2.048 1_554 S
Mg260 O269 2.048 1_545 S
Mg260 O272 2.141 . S
C261 O262 1.313 . S
C261 O268 1.195 . S
O262 C261 1.313 . S
C263 O264 1.245 . S
C263 O272 1.289 . S
O264 C263 1.245 . S
C265 O266 1.245 . S
C265 O267 1.289 . S
O266 C265 1.245 . S
O267 Mg260 2.141 . S
O267 C265 1.289 . S
O268 Mg260 2.048 1_556 S
O268 C261 1.195 . S
O269 Mg260 2.048 1_565 S
O269 C270 1.171 1_565 S
C270 O269 1.171 1_545 S
C270 O271 1.390 . S
O271 C270 1.390 . S
O272 Mg260 2.141 . S
O272 C263 1.289 . S
Mg273 O280 2.141 . S
Mg273 O281 2.048 . S
Mg273 O282 2.048 . S
Mg273 O285 2.141 . S
C274 O275 1.313 . S
C274 O281 1.195 . S
O275 C274 1.313 . S
C276 O277 1.245 . S
C276 O285 1.289 . S
O277 C276 1.245 . S
C278 O279 1.245 . S
C278 O280 1.289 . S
O279 C278 1.245 . S
O280 Mg273 2.141 . S
O280 C278 1.289 . S
O281 Mg273 2.048 . S
O281 C274 1.195 . S
O282 Mg273 2.048 . S
O282 C283 1.195 . S
C283 O282 1.195 . S
C283 O284 1.313 . S
O284 C283 1.313 . S
O285 Mg273 2.141 . S
O285 C276 1.289 . S
Mg286 O293 2.141 . S
Mg286 O294 2.048 . S
Mg286 O295 2.048 1_565 S
Mg286 O298 2.141 . S
C287 O288 1.313 . S
C287 O294 1.195 . S
O288 C287 1.313 . S
C289 O290 1.245 . S
C289 O298 1.289 . S
O290 C289 1.245 . S
C291 O292 1.245 . S
C291 O293 1.289 . S
O292 C291 1.245 . S
O293 Mg286 2.141 . S
O293 C291 1.289 . S
O294 Mg286 2.048 . S
O294 C287 1.195 . S
O295 Mg286 2.048 1_545 S
O295 C296 1.170 1_545 S
C296 O295 1.170 1_565 S
C296 O297 1.392 . S
O297 C296 1.392 . S
O298 Mg286 2.141 . S
O298 C289 1.289 . S
Mg299 O306 2.141 . S
Mg299 O307 2.048 . S
Mg299 O308 2.048 . S
Mg299 O311 2.141 . S
C300 O301 1.313 . S
C300 O307 1.195 . S
O301 C300 1.313 . S
C302 O303 1.245 . S
C302 O311 1.289 . S
O303 C302 1.245 . S
C304 O305 1.245 . S
C304 O306 1.289 . S
O305 C304 1.245 . S
O306 Mg299 2.141 . S
O306 C304 1.289 . S
O307 Mg299 2.048 . S
O307 C300 1.195 . S
O308 Mg299 2.048 . S
O308 C309 1.195 . S
C309 O308 1.195 . S
C309 O310 1.313 . S
O310 C309 1.313 . S
O311 Mg299 2.141 . S
O311 C302 1.289 . S
Mg312 O319 2.141 . S
Mg312 O320 2.048 1_545 S
Mg312 O321 2.048 . S
Mg312 O324 2.141 . S
C313 O314 1.392 . S
C313 O320 1.170 1_545 S
O314 C313 1.392 . S
C315 O316 1.245 . S
C315 O324 1.289 . S
O316 C315 1.245 . S
C317 O318 1.245 . S
C317 O319 1.289 . S
O318 C317 1.245 . S
O319 Mg312 2.141 . S
O319 C317 1.289 . S
O320 Mg312 2.048 1_565 S
O320 C313 1.170 1_565 S
O321 Mg312 2.048 . S
O321 C322 1.195 . S
C322 O321 1.195 . S
C322 O323 1.313 . S
O323 C322 1.313 . S
O324 Mg312 2.141 . S
O324 C315 1.289 . S
Mg325 O332 2.141 . S
Mg325 O333 2.048 . S
Mg325 O334 2.048 . S
Mg325 O337 2.141 . S
C326 O327 1.313 . S
C326 O333 1.195 . S
O327 C326 1.313 . S
C328 O329 1.245 . S
C328 O337 1.289 . S
O329 C328 1.245 . S
C330 O331 1.245 . S
C330 O332 1.289 . S
O331 C330 1.245 . S
O332 Mg325 2.141 . S
O332 C330 1.289 . S
O333 Mg325 2.048 . S
O333 C326 1.195 . S
O334 Mg325 2.048 . S
O334 C335 1.195 . S
C335 O334 1.195 . S
C335 O336 1.313 . S
O336 C335 1.313 . S
O337 Mg325 2.141 . S
O337 C328 1.289 . S
Mg338 O345 2.141 . S
Mg338 O346 2.048 1_565 S
Mg338 O347 2.048 1_554 S
Mg338 O350 2.141 . S
C339 O340 1.390 . S
C339 O346 1.171 1_565 S
O340 C339 1.390 . S
C341 O342 1.245 . S
C341 O350 1.289 . S
O342 C341 1.245 . S
C343 O344 1.245 . S
C343 O345 1.289 . S
O344 C343 1.245 . S
O345 Mg338 2.141 . S
O345 C343 1.289 . S
O346 Mg338 2.048 1_545 S
O346 C339 1.171 1_545 S
O347 Mg338 2.048 1_556 S
O347 C348 1.195 . S
C348 O347 1.195 . S
C348 O349 1.313 . S
O349 C348 1.313 . S
O350 Mg338 2.141 . S
O350 C341 1.289 . S
Mg351 O358 2.141 . S
Mg351 O359 2.048 . S
Mg351 O360 2.048 . S
Mg351 O363 2.141 . S
C352 O353 1.313 . S
C352 O359 1.195 . S
O353 C352 1.313 . S
C354 O355 1.245 . S
C354 O363 1.289 . S
O355 C354 1.245 . S
C356 O357 1.245 . S
C356 O358 1.289 . S
O357 C356 1.245 . S
O358 Mg351 2.141 . S
O358 C356 1.289 . S
O359 Mg351 2.048 . S
O359 C352 1.195 . S
O360 Mg351 2.048 . S
O360 C361 1.195 . S
C361 O360 1.195 . S
C361 O362 1.313 . S
O362 C361 1.313 . S
O363 Mg351 2.141 . S
O363 C354 1.289 . S
Mg364 O371 2.141 . S
Mg364 O372 2.048 1_565 S
Mg364 O373 2.048 . S
Mg364 O376 2.141 . S
C365 O366 1.388 . S
C365 O372 1.171 1_565 S
O366 C365 1.388 . S
C367 O368 1.245 . S
C367 O376 1.289 . S
O368 C367 1.245 . S
C369 O370 1.245 . S
C369 O371 1.289 . S
O370 C369 1.245 . S
O371 Mg364 2.141 . S
O371 C369 1.289 . S
O372 Mg364 2.048 1_545 S
O372 C365 1.171 1_545 S
O373 Mg364 2.048 . S
O373 C374 1.195 . S
C374 O373 1.195 . S
C374 O375 1.313 . S
O375 C374 1.313 . S
O376 Mg364 2.141 . S
O376 C367 1.289 . S
Mg377 O384 2.141 . S
Mg377 O385 2.048 . S
Mg377 O386 2.048 . S
Mg377 O389 2.141 . S
C378 O379 1.313 . S
C378 O385 1.195 . S
O379 C378 1.313 . S
C380 O381 1.245 . S
C380 O389 1.289 . S
O381 C380 1.245 . S
C382 O383 1.245 . S
C382 O384 1.289 . S
O383 C382 1.245 . S
O384 Mg377 2.141 . S
O384 C382 1.289 . S
O385 Mg377 2.048 . S
O385 C378 1.195 . S
O386 Mg377 2.048 . S
O386 C387 1.195 . S
C387 O386 1.195 . S
C387 O388 1.313 . S
O388 C387 1.313 . S
O389 Mg377 2.141 . S
O389 C380 1.289 . S
Mg390 O397 2.141 . S
Mg390 O398 2.048 1_545 S
Mg390 O399 2.048 . S
Mg390 O402 2.141 . S
C391 O392 1.389 . S
C391 O398 1.171 1_545 S
O392 C391 1.389 . S
C393 O394 1.245 . S
C393 O402 1.289 . S
O394 C393 1.245 . S
C395 O396 1.245 . S
C395 O397 1.289 . S
O396 C395 1.245 . S
O397 Mg390 2.141 . S
O397 C395 1.289 . S
O398 Mg390 2.048 1_565 S
O398 C391 1.171 1_565 S
O399 Mg390 2.048 . S
O399 C400 1.195 . S
C400 O399 1.195 . S
C400 O401 1.313 . S
O401 C400 1.313 . S
O402 Mg390 2.141 . S
O402 C393 1.289 . S
Mg403 O410 2.141 . S
Mg403 O411 2.048 . S
Mg403 O412 2.048 . S
Mg403 O415 2.141 . S
C404 O405 1.313 . S
C404 O411 1.195 . S
O405 C404 1.313 . S
C406 O407 1.245 . S
C406 O415 1.289 . S
O407 C406 1.245 . S
C408 O409 1.245 . S
C408 O410 1.289 . S
O409 C408 1.245 . S
O410 Mg403 2.141 . S
O410 C408 1.289 . S
O411 Mg403 2.048 . S
O411 C404 1.195 . S
O412 Mg403 2.048 . S
O412 C413 1.195 . S
C413 O412 1.195 . S
C413 O414 1.313 . S
O414 C413 1.313 . S
O415 Mg403 2.141 . S
O415 C406 1.289 . S
H416 C424 0.929 . S
H417 C426 0.930 . S
H418 C428 0.930 . S
H419 C431 0.929 . S
H420 C434 0.930 . S
H421 C436 0.960 . S
H422 C436 0.960 . S
H423 C436 0.960 . S
C424 H416 0.929 . S
C424 C425 1.377 . S
C424 C426 1.384 . S
C425 C424 1.377 . S
C425 C431 1.390 . S
C426 H417 0.930 . S
C426 C424 1.384 . S
C426 C427 1.372 . S
C427 C426 1.372 . S
C427 C428 1.400 . S
C427 C432 1.490 . S
C428 H418 0.930 . S
C428 C427 1.400 . S
C428 C431 1.386 . S
H429 C445 0.930 . S
H430 C446 0.931 . S
C431 H419 0.929 . S
C431 C425 1.390 . S
C431 C428 1.386 . S
C432 C427 1.490 . S
C432 C434 1.395 . S
C432 C435 1.403 . S
H433 C439 0.930 . S
C434 H420 0.930 . S
C434 C432 1.395 . S
C434 C437 1.403 1_655 S
C435 C432 1.403 . S
C435 C436 1.524 . S
C435 C439 1.400 1_655 S
C436 H421 0.960 . S
C436 H422 0.960 . S
C436 H423 0.960 . S
C436 C435 1.524 . S
C437 C434 1.403 1_455 S
C437 C438 1.392 . S
C437 C441 1.495 . S
C438 C437 1.392 . S
C438 C439 1.385 . S
C438 C440 1.478 . S
C439 H433 0.930 . S
C439 C435 1.400 1_455 S
C439 C438 1.385 . S
C440 C438 1.478 . S
C440 C442 1.381 . S
C440 C446 1.383 . S
C441 C437 1.495 . S
C441 H447 0.959 . S
C441 H448 0.961 . S
C441 H449 0.960 . S
C442 C440 1.381 . S
C442 C443 1.394 . S
C442 H450 0.930 . S
C443 C442 1.394 . S
C443 C444 1.383 . S
C443 H451 0.929 . S
C444 C443 1.383 . S
C444 C445 1.377 . S
C445 H429 0.930 . S
C445 C444 1.377 . S
C445 C446 1.379 . S
C446 H430 0.931 . S
C446 C440 1.383 . S
C446 C445 1.379 . S
H447 C441 0.959 . S
H448 C441 0.961 . S
H449 C441 0.960 . S
H450 C442 0.930 . S
H451 C443 0.929 . S
H452 C460 0.929 . S
H453 C462 0.930 . S
H454 C464 0.930 . S
H455 C467 0.929 . S
H456 C470 0.930 . S
H457 C472 0.960 . S
H458 C472 0.960 . S
H459 C472 0.960 . S
C460 H452 0.929 . S
C460 C461 1.377 . S
C460 C462 1.384 . S
C461 C460 1.377 . S
C461 C467 1.390 . S
C462 H453 0.930 . S
C462 C460 1.384 . S
C462 C463 1.372 . S
C463 C462 1.372 . S
C463 C464 1.400 . S
C463 C468 1.490 . S
C464 H454 0.930 . S
C464 C463 1.400 . S
C464 C467 1.386 . S
H465 C481 0.930 . S
H466 C482 0.931 . S
C467 H455 0.929 . S
C467 C461 1.390 . S
C467 C464 1.386 . S
C468 C463 1.490 . S
C468 C470 1.395 . S
C468 C471 1.403 . S
H469 C475 0.930 . S
C470 H456 0.930 . S
C470 C468 1.395 . S
C470 C473 1.403 . S
C471 C468 1.403 . S
C471 C472 1.524 . S
C471 C475 1.400 . S
C472 H457 0.960 . S
C472 H458 0.960 . S
C472 H459 0.960 . S
C472 C471 1.524 . S
C473 C470 1.403 . S
C473 C474 1.392 . S
C473 C477 1.495 . S
C474 C473 1.392 . S
C474 C475 1.385 . S
C474 C476 1.478 . S
C475 H469 0.930 . S
C475 C471 1.400 . S
C475 C474 1.385 . S
C476 C474 1.478 . S
C476 C478 1.381 . S
C476 C482 1.383 . S
C477 C473 1.495 . S
C477 H483 0.959 . S
C477 H484 0.961 . S
C477 H485 0.960 . S
C478 C476 1.381 . S
C478 C479 1.394 . S
C478 H486 0.930 . S
C479 C478 1.394 . S
C479 C480 1.383 . S
C479 H487 0.929 . S
C480 C479 1.383 . S
C480 C481 1.377 . S
C481 H465 0.930 . S
C481 C480 1.377 . S
C481 C482 1.379 . S
C482 H466 0.931 . S
C482 C476 1.383 . S
C482 C481 1.379 . S
H483 C477 0.959 . S
H484 C477 0.961 . S
H485 C477 0.960 . S
H486 C478 0.930 . S
H487 C479 0.929 . S
H488 C496 0.929 . S
H489 C498 0.930 . S
H490 C500 0.930 . S
H491 C503 0.929 . S
H492 C506 0.930 . S
H493 C508 0.960 . S
H494 C508 0.960 . S
H495 C508 0.960 . S
C496 H488 0.929 . S
C496 C497 1.377 . S
C496 C498 1.384 . S
C497 C496 1.377 . S
C497 C503 1.390 . S
C498 H489 0.930 . S
C498 C496 1.384 . S
C498 C499 1.372 . S
C499 C498 1.372 . S
C499 C500 1.400 . S
C499 C504 1.490 . S
C500 H490 0.930 . S
C500 C499 1.400 . S
C500 C503 1.386 . S
H501 C517 0.930 . S
H502 C518 0.931 . S
C503 H491 0.929 . S
C503 C497 1.390 . S
C503 C500 1.386 . S
C504 C499 1.490 . S
C504 C506 1.395 . S
C504 C507 1.403 . S
H505 C511 0.930 . S
C506 H492 0.930 . S
C506 C504 1.395 . S
C506 C509 1.403 . S
C507 C504 1.403 . S
C507 C508 1.524 . S
C507 C511 1.400 . S
C508 H493 0.960 . S
C508 H494 0.960 . S
C508 H495 0.960 . S
C508 C507 1.524 . S
C509 C506 1.403 . S
C509 C510 1.392 . S
C509 C513 1.495 . S
C510 C509 1.392 . S
C510 C511 1.385 . S
C510 C512 1.478 . S
C511 H505 0.930 . S
C511 C507 1.400 . S
C511 C510 1.385 . S
C512 C510 1.478 . S
C512 C514 1.381 . S
C512 C518 1.383 . S
C513 C509 1.495 . S
C513 H519 0.959 . S
C513 H520 0.961 . S
C513 H521 0.960 . S
C514 C512 1.381 . S
C514 C515 1.394 . S
C514 H522 0.930 . S
C515 C514 1.394 . S
C515 C516 1.383 . S
C515 H523 0.929 . S
C516 C515 1.383 . S
C516 C517 1.377 . S
C517 H501 0.930 . S
C517 C516 1.377 . S
C517 C518 1.379 . S
C518 H502 0.931 . S
C518 C512 1.383 . S
C518 C517 1.379 . S
H519 C513 0.959 . S
H520 C513 0.961 . S
H521 C513 0.960 . S
H522 C514 0.930 . S
H523 C515 0.929 . S
H524 C532 0.929 . S
H525 C534 0.930 . S
H526 C536 0.930 . S
H527 C539 0.929 . S
H528 C542 0.930 . S
H529 C544 0.960 . S
H530 C544 0.960 . S
H531 C544 0.960 . S
C532 H524 0.929 . S
C532 C533 1.377 . S
C532 C534 1.384 . S
C533 C532 1.377 . S
C533 C539 1.390 . S
C534 H525 0.930 . S
C534 C532 1.384 . S
C534 C535 1.372 . S
C535 C534 1.372 . S
C535 C536 1.400 . S
C535 C540 1.490 . S
C536 H526 0.930 . S
C536 C535 1.400 . S
C536 C539 1.386 . S
H537 C553 0.930 . S
H538 C554 0.931 . S
C539 H527 0.929 . S
C539 C533 1.390 . S
C539 C536 1.386 . S
C540 C535 1.490 . S
C540 C542 1.395 . S
C540 C543 1.403 . S
H541 C547 0.930 . S
C542 H528 0.930 . S
C542 C540 1.395 . S
C542 C545 1.403 . S
C543 C540 1.403 . S
C543 C544 1.524 . S
C543 C547 1.400 . S
C544 H529 0.960 . S
C544 H530 0.960 . S
C544 H531 0.960 . S
C544 C543 1.524 . S
C545 C542 1.403 . S
C545 C546 1.392 . S
C545 C549 1.495 . S
C546 C545 1.392 . S
C546 C547 1.385 . S
C546 C548 1.478 . S
C547 H541 0.930 . S
C547 C543 1.400 . S
C547 C546 1.385 . S
C548 C546 1.478 . S
C548 C550 1.381 . S
C548 C554 1.383 . S
C549 C545 1.495 . S
C549 H555 0.959 . S
C549 H556 0.961 . S
C549 H557 0.960 . S
C550 C548 1.381 . S
C550 C551 1.394 . S
C550 H558 0.930 . S
C551 C550 1.394 . S
C551 C552 1.383 . S
C551 H559 0.929 . S
C552 C551 1.383 . S
C552 C553 1.377 . S
C553 H537 0.930 . S
C553 C552 1.377 . S
C553 C554 1.379 . S
C554 H538 0.931 . S
C554 C548 1.383 . S
C554 C553 1.379 . S
H555 C549 0.959 . S
H556 C549 0.961 . S
H557 C549 0.960 . S
H558 C550 0.930 . S
H559 C551 0.929 . S
H560 C568 0.929 . S
H561 C570 0.930 . S
H562 C572 0.930 . S
H563 C575 0.929 . S
H564 C578 0.930 . S
H565 C580 0.960 . S
H566 C580 0.960 . S
H567 C580 0.960 . S
C568 H560 0.929 . S
C568 C569 1.377 . S
C568 C570 1.384 . S
C569 C568 1.377 . S
C569 C575 1.390 . S
C570 H561 0.930 . S
C570 C568 1.384 . S
C570 C571 1.372 . S
C571 C570 1.372 . S
C571 C572 1.400 . S
C571 C576 1.490 . S
C572 H562 0.930 . S
C572 C571 1.400 . S
C572 C575 1.386 . S
H573 C589 0.930 . S
H574 C590 0.931 . S
C575 H563 0.929 . S
C575 C569 1.390 . S
C575 C572 1.386 . S
C576 C571 1.490 . S
C576 C578 1.395 . S
C576 C579 1.403 . S
H577 C583 0.930 . S
C578 H564 0.930 . S
C578 C576 1.395 . S
C578 C581 1.403 1_455 S
C579 C576 1.403 . S
C579 C580 1.524 . S
C579 C583 1.400 1_455 S
C580 H565 0.960 . S
C580 H566 0.960 . S
C580 H567 0.960 . S
C580 C579 1.524 . S
C581 C578 1.403 1_655 S
C581 C582 1.392 . S
C581 C585 1.495 . S
C582 C581 1.392 . S
C582 C583 1.385 . S
C582 C584 1.478 . S
C583 H577 0.930 . S
C583 C579 1.400 1_655 S
C583 C582 1.385 . S
C584 C582 1.478 . S
C584 C586 1.381 . S
C584 C590 1.383 . S
C585 C581 1.495 . S
C585 H591 0.959 . S
C585 H592 0.961 . S
C585 H593 0.960 . S
C586 C584 1.381 . S
C586 C587 1.394 . S
C586 H594 0.930 . S
C587 C586 1.394 . S
C587 C588 1.383 . S
C587 H595 0.929 . S
C588 C587 1.383 . S
C588 C589 1.377 . S
C589 H573 0.930 . S
C589 C588 1.377 . S
C589 C590 1.379 . S
C590 H574 0.931 . S
C590 C584 1.383 . S
C590 C589 1.379 . S
H591 C585 0.959 . S
H592 C585 0.961 . S
H593 C585 0.960 . S
H594 C586 0.930 . S
H595 C587 0.929 . S
H596 C604 0.929 . S
H597 C606 0.930 . S
H598 C608 0.930 . S
H599 C611 0.929 . S
H600 C614 0.930 . S
H601 C616 0.960 . S
H602 C616 0.960 . S
H603 C616 0.960 . S
C604 H596 0.929 . S
C604 C605 1.377 . S
C604 C606 1.384 . S
C605 C604 1.377 . S
C605 C611 1.390 . S
C606 H597 0.930 . S
C606 C604 1.384 . S
C606 C607 1.372 . S
C607 C606 1.372 . S
C607 C608 1.400 . S
C607 C612 1.490 . S
C608 H598 0.930 . S
C608 C607 1.400 . S
C608 C611 1.386 . S
H609 C625 0.930 . S
H610 C626 0.931 . S
C611 H599 0.929 . S
C611 C605 1.390 . S
C611 C608 1.386 . S
C612 C607 1.490 . S
C612 C614 1.395 . S
C612 C615 1.403 . S
H613 C619 0.930 . S
C614 H600 0.930 . S
C614 C612 1.395 . S
C614 C617 1.403 . S
C615 C612 1.403 . S
C615 C616 1.524 . S
C615 C619 1.400 . S
C616 H601 0.960 . S
C616 H602 0.960 . S
C616 H603 0.960 . S
C616 C615 1.524 . S
C617 C614 1.403 . S
C617 C618 1.392 . S
C617 C621 1.495 . S
C618 C617 1.392 . S
C618 C619 1.385 . S
C618 C620 1.478 . S
C619 H613 0.930 . S
C619 C615 1.400 . S
C619 C618 1.385 . S
C620 C618 1.478 . S
C620 C622 1.381 . S
C620 C626 1.383 . S
C621 C617 1.495 . S
C621 H627 0.959 . S
C621 H628 0.961 . S
C621 H629 0.960 . S
C622 C620 1.381 . S
C622 C623 1.394 . S
C622 H630 0.930 . S
C623 C622 1.394 . S
C623 C624 1.383 . S
C623 H631 0.929 . S
C624 C623 1.383 . S
C624 C625 1.377 . S
C625 H609 0.930 . S
C625 C624 1.377 . S
C625 C626 1.379 . S
C626 H610 0.931 . S
C626 C620 1.383 . S
C626 C625 1.379 . S
H627 C621 0.959 . S
H628 C621 0.961 . S
H629 C621 0.960 . S
H630 C622 0.930 . S
H631 C623 0.929 . S
H632 C640 0.929 . S
H633 C642 0.930 . S
H634 C644 0.930 . S
H635 C647 0.929 . S
H636 C650 0.930 . S
H637 C652 0.960 . S
H638 C652 0.960 . S
H639 C652 0.960 . S
C640 H632 0.929 . S
C640 C641 1.377 . S
C640 C642 1.384 . S
C641 C640 1.377 . S
C641 C647 1.390 . S
C642 H633 0.930 . S
C642 C640 1.384 . S
C642 C643 1.372 . S
C643 C642 1.372 . S
C643 C644 1.400 . S
C643 C648 1.490 . S
C644 H634 0.930 . S
C644 C643 1.400 . S
C644 C647 1.386 . S
H645 C661 0.930 . S
H646 C662 0.931 . S
C647 H635 0.929 . S
C647 C641 1.390 . S
C647 C644 1.386 . S
C648 C643 1.490 . S
C648 C650 1.395 . S
C648 C651 1.403 . S
H649 C655 0.930 . S
C650 H636 0.930 . S
C650 C648 1.395 . S
C650 C653 1.403 . S
C651 C648 1.403 . S
C651 C652 1.524 . S
C651 C655 1.400 . S
C652 H637 0.960 . S
C652 H638 0.960 . S
C652 H639 0.960 . S
C652 C651 1.524 . S
C653 C650 1.403 . S
C653 C654 1.392 . S
C653 C657 1.495 . S
C654 C653 1.392 . S
C654 C655 1.385 . S
C654 C656 1.478 . S
C655 H649 0.930 . S
C655 C651 1.400 . S
C655 C654 1.385 . S
C656 C654 1.478 . S
C656 C658 1.381 . S
C656 C662 1.383 . S
C657 C653 1.495 . S
C657 H663 0.959 . S
C657 H664 0.961 . S
C657 H665 0.960 . S
C658 C656 1.381 . S
C658 C659 1.394 . S
C658 H666 0.930 . S
C659 C658 1.394 . S
C659 C660 1.383 . S
C659 H667 0.929 . S
C660 C659 1.383 . S
C660 C661 1.377 . S
C661 H645 0.930 . S
C661 C660 1.377 . S
C661 C662 1.379 . S
C662 H646 0.931 . S
C662 C656 1.383 . S
C662 C661 1.379 . S
H663 C657 0.959 . S
H664 C657 0.961 . S
H665 C657 0.960 . S
H666 C658 0.930 . S
H667 C659 0.929 . S
H668 C676 0.929 . S
H669 C678 0.930 . S
H670 C680 0.930 . S
H671 C683 0.929 . S
H672 C686 0.930 . S
H673 C688 0.960 . S
H674 C688 0.960 . S
H675 C688 0.960 . S
C676 H668 0.929 . S
C676 C677 1.377 . S
C676 C678 1.384 . S
C677 C676 1.377 . S
C677 C683 1.390 . S
C678 H669 0.930 . S
C678 C676 1.384 . S
C678 C679 1.372 . S
C679 C678 1.372 . S
C679 C680 1.400 . S
C679 C684 1.490 . S
C680 H670 0.930 . S
C680 C679 1.400 . S
C680 C683 1.386 . S
H681 C697 0.930 . S
H682 C698 0.931 . S
C683 H671 0.929 . S
C683 C677 1.390 . S
C683 C680 1.386 . S
C684 C679 1.490 . S
C684 C686 1.395 . S
C684 C687 1.403 . S
H685 C691 0.930 . S
C686 H672 0.930 . S
C686 C684 1.395 . S
C686 C689 1.403 . S
C687 C684 1.403 . S
C687 C688 1.524 . S
C687 C691 1.400 . S
C688 H673 0.960 . S
C688 H674 0.960 . S
C688 H675 0.960 . S
C688 C687 1.524 . S
C689 C686 1.403 . S
C689 C690 1.392 . S
C689 C693 1.495 . S
C690 C689 1.392 . S
C690 C691 1.385 . S
C690 C692 1.478 . S
C691 H685 0.930 . S
C691 C687 1.400 . S
C691 C690 1.385 . S
C692 C690 1.478 . S
C692 C694 1.381 . S
C692 C698 1.383 . S
C693 C689 1.495 . S
C693 H699 0.959 . S
C693 H700 0.961 . S
C693 H701 0.960 . S
C694 C692 1.381 . S
C694 C695 1.394 . S
C694 H702 0.930 . S
C695 C694 1.394 . S
C695 C696 1.383 . S
C695 H703 0.929 . S
C696 C695 1.383 . S
C696 C697 1.377 . S
C697 H681 0.930 . S
C697 C696 1.377 . S
C697 C698 1.379 . S
C698 H682 0.931 . S
C698 C692 1.383 . S
C698 C697 1.379 . S
H699 C693 0.959 . S
H700 C693 0.961 . S
H701 C693 0.960 . S
H702 C694 0.930 . S
H703 C695 0.929 . S
H704 C712 0.929 . S
H705 C714 0.930 . S
H706 C716 0.930 . S
H707 C719 0.929 . S
H708 C722 0.930 . S
H709 C724 0.960 . S
H710 C724 0.960 . S
H711 C724 0.960 . S
C712 H704 0.929 . S
C712 C713 1.377 . S
C712 C714 1.384 . S
C713 C712 1.377 . S
C713 C719 1.390 . S
C714 H705 0.930 . S
C714 C712 1.384 . S
C714 C715 1.372 . S
C715 C714 1.372 . S
C715 C716 1.400 . S
C715 C720 1.490 . S
C716 H706 0.930 . S
C716 C715 1.400 . S
C716 C719 1.386 . S
H717 C733 0.930 . S
H718 C734 0.931 . S
C719 H707 0.929 . S
C719 C713 1.390 . S
C719 C716 1.386 . S
C720 C715 1.490 . S
C720 C722 1.395 . S
C720 C723 1.403 . S
H721 C727 0.930 . S
C722 H708 0.930 . S
C722 C720 1.395 . S
C722 C725 1.403 . S
C723 C720 1.403 . S
C723 C724 1.524 . S
C723 C727 1.400 . S
C724 H709 0.960 . S
C724 H710 0.960 . S
C724 H711 0.960 . S
C724 C723 1.524 . S
C725 C722 1.403 . S
C725 C726 1.392 . S
C725 C729 1.495 . S
C726 C725 1.392 . S
C726 C727 1.385 . S
C726 C728 1.478 . S
C727 H721 0.930 . S
C727 C723 1.400 . S
C727 C726 1.385 . S
C728 C726 1.478 . S
C728 C730 1.381 . S
C728 C734 1.383 . S
C729 C725 1.495 . S
C729 H735 0.959 . S
C729 H736 0.961 . S
C729 H737 0.960 . S
C730 C728 1.381 . S
C730 C731 1.394 . S
C730 H738 0.930 . S
C731 C730 1.394 . S
C731 C732 1.383 . S
C731 H739 0.929 . S
C732 C731 1.383 . S
C732 C733 1.377 . S
C733 H717 0.930 . S
C733 C732 1.377 . S
C733 C734 1.379 . S
C734 H718 0.931 . S
C734 C728 1.383 . S
C734 C733 1.379 . S
H735 C729 0.959 . S
H736 C729 0.961 . S
H737 C729 0.960 . S
H738 C730 0.930 . S
H739 C731 0.929 . S
H740 C748 0.929 . S
H741 C750 0.930 . S
H742 C752 0.930 . S
H743 C755 0.929 . S
H744 C758 0.930 . S
H745 C760 0.960 . S
H746 C760 0.960 . S
H747 C760 0.960 . S
C748 H740 0.929 . S
C748 C749 1.377 . S
C748 C750 1.384 . S
C749 C748 1.377 . S
C749 C755 1.390 . S
C750 H741 0.930 . S
C750 C748 1.384 . S
C750 C751 1.372 . S
C751 C750 1.372 . S
C751 C752 1.400 . S
C751 C756 1.490 . S
C752 H742 0.930 . S
C752 C751 1.400 . S
C752 C755 1.386 . S
H753 C769 0.930 . S
H754 C770 0.931 . S
C755 H743 0.929 . S
C755 C749 1.390 . S
C755 C752 1.386 . S
C756 C751 1.490 . S
C756 C758 1.395 . S
C756 C759 1.403 . S
H757 C763 0.930 . S
C758 H744 0.930 . S
C758 C756 1.395 . S
C758 C761 1.403 . S
C759 C756 1.403 . S
C759 C760 1.524 . S
C759 C763 1.400 . S
C760 H745 0.960 . S
C760 H746 0.960 . S
C760 H747 0.960 . S
C760 C759 1.524 . S
C761 C758 1.403 . S
C761 C762 1.392 . S
C761 C765 1.495 . S
C762 C761 1.392 . S
C762 C763 1.385 . S
C762 C764 1.478 . S
C763 H757 0.930 . S
C763 C759 1.400 . S
C763 C762 1.385 . S
C764 C762 1.478 . S
C764 C766 1.381 . S
C764 C770 1.383 . S
C765 C761 1.495 . S
C765 H771 0.959 . S
C765 H772 0.961 . S
C765 H773 0.960 . S
C766 C764 1.381 . S
C766 C767 1.394 . S
C766 H774 0.930 . S
C767 C766 1.394 . S
C767 C768 1.383 . S
C767 H775 0.929 . S
C768 C767 1.383 . S
C768 C769 1.377 . S
C769 H753 0.930 . S
C769 C768 1.377 . S
C769 C770 1.379 . S
C770 H754 0.931 . S
C770 C764 1.383 . S
C770 C769 1.379 . S
H771 C765 0.959 . S
H772 C765 0.961 . S
H773 C765 0.960 . S
H774 C766 0.930 . S
H775 C767 0.929 . S
H776 C784 0.929 . S
H777 C786 0.930 . S
H778 C788 0.930 . S
H779 C791 0.929 . S
H780 C794 0.930 . S
H781 C796 0.960 . S
H782 C796 0.960 . S
H783 C796 0.960 . S
C784 H776 0.929 . S
C784 C785 1.377 . S
C784 C786 1.384 . S
C785 C784 1.377 . S
C785 C791 1.390 . S
C786 H777 0.930 . S
C786 C784 1.384 . S
C786 C787 1.372 . S
C787 C786 1.372 . S
C787 C788 1.400 . S
C787 C792 1.490 . S
C788 H778 0.930 . S
C788 C787 1.400 . S
C788 C791 1.386 . S
H789 C805 0.930 . S
H790 C806 0.931 . S
C791 H779 0.929 . S
C791 C785 1.390 . S
C791 C788 1.386 . S
C792 C787 1.490 . S
C792 C794 1.395 . S
C792 C795 1.403 . S
H793 C799 0.930 . S
C794 H780 0.930 . S
C794 C792 1.395 . S
C794 C797 1.403 . S
C795 C792 1.403 . S
C795 C796 1.524 . S
C795 C799 1.400 . S
C796 H781 0.960 . S
C796 H782 0.960 . S
C796 H783 0.960 . S
C796 C795 1.524 . S
C797 C794 1.403 . S
C797 C798 1.392 . S
C797 C801 1.495 . S
C798 C797 1.392 . S
C798 C799 1.385 . S
C798 C800 1.478 . S
C799 H793 0.930 . S
C799 C795 1.400 . S
C799 C798 1.385 . S
C800 C798 1.478 . S
C800 C802 1.381 . S
C800 C806 1.383 . S
C801 C797 1.495 . S
C801 H807 0.959 . S
C801 H808 0.961 . S
C801 H809 0.960 . S
C802 C800 1.381 . S
C802 C803 1.394 . S
C802 H810 0.930 . S
C803 C802 1.394 . S
C803 C804 1.383 . S
C803 H811 0.929 . S
C804 C803 1.383 . S
C804 C805 1.377 . S
C805 H789 0.930 . S
C805 C804 1.377 . S
C805 C806 1.379 . S
C806 H790 0.931 . S
C806 C800 1.383 . S
C806 C805 1.379 . S
H807 C801 0.959 . S
H808 C801 0.961 . S
H809 C801 0.960 . S
H810 C802 0.930 . S
H811 C803 0.929 . S
H812 C820 0.929 . S
H813 C822 0.930 . S
H814 C824 0.930 . S
H815 C827 0.929 . S
H816 C830 0.930 . S
H817 C832 0.960 . S
H818 C832 0.960 . S
H819 C832 0.960 . S
C820 H812 0.929 . S
C820 C821 1.377 . S
C820 C822 1.384 . S
C821 C820 1.377 . S
C821 C827 1.390 . S
C822 H813 0.930 . S
C822 C820 1.384 . S
C822 C823 1.372 . S
C823 C822 1.372 . S
C823 C824 1.400 . S
C823 C828 1.490 . S
C824 H814 0.930 . S
C824 C823 1.400 . S
C824 C827 1.386 . S
H825 C841 0.930 . S
H826 C842 0.931 . S
C827 H815 0.929 . S
C827 C821 1.390 . S
C827 C824 1.386 . S
C828 C823 1.490 . S
C828 C830 1.395 . S
C828 C831 1.403 . S
H829 C835 0.930 . S
C830 H816 0.930 . S
C830 C828 1.395 . S
C830 C833 1.403 . S
C831 C828 1.403 . S
C831 C832 1.524 . S
C831 C835 1.400 . S
C832 H817 0.960 . S
C832 H818 0.960 . S
C832 H819 0.960 . S
C832 C831 1.524 . S
C833 C830 1.403 . S
C833 C834 1.392 . S
C833 C837 1.495 . S
C834 C833 1.392 . S
C834 C835 1.385 . S
C834 C836 1.478 . S
C835 H829 0.930 . S
C835 C831 1.400 . S
C835 C834 1.385 . S
C836 C834 1.478 . S
C836 C838 1.381 . S
C836 C842 1.383 . S
C837 C833 1.495 . S
C837 H843 0.959 . S
C837 H844 0.961 . S
C837 H845 0.960 . S
C838 C836 1.381 . S
C838 C839 1.394 . S
C838 H846 0.930 . S
C839 C838 1.394 . S
C839 C840 1.383 . S
C839 H847 0.929 . S
C840 C839 1.383 . S
C840 C841 1.377 . S
C841 H825 0.930 . S
C841 C840 1.377 . S
C841 C842 1.379 . S
C842 H826 0.931 . S
C842 C836 1.383 . S
C842 C841 1.379 . S
H843 C837 0.959 . S
H844 C837 0.961 . S
H845 C837 0.960 . S
H846 C838 0.930 . S
H847 C839 0.929 . S
H848 C856 0.929 . S
H849 C858 0.930 . S
H850 C860 0.930 . S
H851 C863 0.929 . S
H852 C866 0.930 . S
H853 C868 0.960 . S
H854 C868 0.960 . S
H855 C868 0.960 . S
C856 H848 0.929 . S
C856 C857 1.377 . S
C856 C858 1.384 . S
C857 C856 1.377 . S
C857 C863 1.390 1_565 S
C858 H849 0.930 . S
C858 C856 1.384 . S
C858 C859 1.372 . S
C859 C858 1.372 . S
C859 C860 1.400 1_565 S
C859 C864 1.490 . S
C860 H850 0.930 . S
C860 C859 1.400 1_545 S
C860 C863 1.386 . S
H861 C877 0.930 . S
H862 C878 0.931 . S
C863 H851 0.929 . S
C863 C857 1.390 1_545 S
C863 C860 1.386 . S
C864 C859 1.490 . S
C864 C866 1.395 . S
C864 C867 1.403 1_565 S
H865 C871 0.930 . S
C866 H852 0.930 . S
C866 C864 1.395 . S
C866 C869 1.403 . S
C867 C864 1.403 1_545 S
C867 C868 1.524 . S
C867 C871 1.400 . S
C868 H853 0.960 . S
C868 H854 0.960 . S
C868 H855 0.960 . S
C868 C867 1.524 . S
C869 C866 1.403 . S
C869 C870 1.392 . S
C869 C873 1.495 . S
C870 C869 1.392 . S
C870 C871 1.385 1_565 S
C870 C872 1.478 . S
C871 H865 0.930 . S
C871 C867 1.400 . S
C871 C870 1.385 1_545 S
C872 C870 1.478 . S
C872 C874 1.381 . S
C872 C878 1.383 1_565 S
C873 C869 1.495 . S
C873 H879 0.959 . S
C873 H880 0.961 . S
C873 H881 0.960 . S
C874 C872 1.381 . S
C874 C875 1.394 . S
C874 H882 0.930 . S
C875 C874 1.394 . S
C875 C876 1.383 1_565 S
C875 H883 0.929 . S
C876 C875 1.383 1_545 S
C876 C877 1.377 . S
C877 H861 0.930 . S
C877 C876 1.377 . S
C877 C878 1.379 . S
C878 H862 0.931 . S
C878 C872 1.383 1_545 S
C878 C877 1.379 . S
H879 C873 0.959 . S
H880 C873 0.961 . S
H881 C873 0.960 . S
H882 C874 0.930 . S
H883 C875 0.929 . S
H884 C892 0.929 . S
H885 C894 0.930 . S
H886 C896 0.930 . S
H887 C899 0.929 . S
H888 C902 0.930 . S
H889 C904 0.960 . S
H890 C904 0.960 . S
H891 C904 0.960 . S
C892 H884 0.929 . S
C892 C893 1.377 1_545 S
C892 C894 1.384 . S
C893 C892 1.377 1_565 S
C893 C899 1.390 . S
C894 H885 0.930 . S
C894 C892 1.384 . S
C894 C895 1.372 1_545 S
C895 C894 1.372 1_565 S
C895 C896 1.400 . S
C895 C900 1.490 1_565 S
C896 H886 0.930 . S
C896 C895 1.400 . S
C896 C899 1.386 . S
H897 C913 0.930 . S
H898 C914 0.964 . S
C899 H887 0.929 . S
C899 C893 1.390 . S
C899 C896 1.386 . S
C900 C895 1.490 1_545 S
C900 C902 1.393 . S
C900 C903 1.404 1_545 S
H901 C907 0.930 . S
C902 H888 0.930 . S
C902 C900 1.393 . S
C902 C905 1.403 1_655 S
C903 C900 1.404 1_565 S
C903 C904 1.524 . S
C903 C907 1.400 1_655 S
C904 H889 0.960 . S
C904 H890 0.960 . S
C904 H891 0.960 . S
C904 C903 1.524 . S
C905 C902 1.403 1_455 S
C905 C906 1.392 . S
C905 C909 1.495 . S
C906 C905 1.392 . S
C906 C907 1.385 1_545 S
C906 C908 1.478 . S
C907 H901 0.930 . S
C907 C903 1.400 1_455 S
C907 C906 1.385 1_565 S
C908 C906 1.478 . S
C908 C910 1.381 . S
C908 C914 1.354 1_545 S
C909 C905 1.495 . S
C909 H915 0.959 . S
C909 H916 0.961 . S
C909 H917 0.960 . S
C910 C908 1.381 . S
C910 C911 1.394 . S
C910 H918 0.930 . S
C911 C910 1.394 . S
C911 C912 1.383 . S
C911 H919 0.929 . S
C912 C911 1.383 . S
C912 C913 1.377 1_545 S
C913 H897 0.930 . S
C913 C912 1.377 1_565 S
C913 C914 1.384 . S
C914 H898 0.964 . S
C914 C908 1.354 1_565 S
C914 C913 1.384 . S
H915 C909 0.959 . S
H916 C909 0.961 . S
H917 C909 0.960 . S
H918 C910 0.930 . S
H919 C911 0.929 . S
H920 C928 0.929 . S
H921 C930 0.930 . S
H922 C932 0.930 . S
H923 C935 0.929 . S
H924 C938 0.930 . S
H925 C940 0.960 . S
H926 C940 0.960 . S
H927 C940 0.960 . S
C928 H920 0.929 . S
C928 C929 1.377 1_545 S
C928 C930 1.384 . S
C929 C928 1.377 1_565 S
C929 C935 1.390 . S
C930 H921 0.930 . S
C930 C928 1.384 . S
C930 C931 1.372 1_545 S
C931 C930 1.372 1_565 S
C931 C932 1.400 . S
C931 C936 1.492 . S
C932 H922 0.930 . S
C932 C931 1.400 . S
C932 C935 1.386 . S
H933 C949 0.930 . S
H934 C950 0.931 . S
C935 H923 0.929 . S
C935 C929 1.390 . S
C935 C932 1.386 . S
C936 C931 1.492 . S
C936 C938 1.429 . S
C936 C939 1.369 1_565 S
H937 C943 0.930 . S
C938 H924 0.930 . S
C938 C936 1.429 . S
C938 C941 1.403 . S
C939 C936 1.369 1_545 S
C939 C940 1.524 . S
C939 C943 1.400 . S
C940 H925 0.960 . S
C940 H926 0.960 . S
C940 H927 0.960 . S
C940 C939 1.524 . S
C941 C938 1.403 . S
C941 C942 1.445 . S
C941 C945 1.495 . S
C942 C941 1.445 . S
C942 C943 1.336 1_565 S
C942 C944 1.477 . S
C943 H937 0.930 . S
C943 C939 1.400 . S
C943 C942 1.336 1_545 S
C944 C942 1.477 . S
C944 C946 1.366 1_565 S
C944 C950 1.395 . S
C945 C941 1.495 . S
C945 H951 0.959 1_554 S
C945 H952 0.961 . S
C945 H953 0.960 1_554 S
C946 C944 1.366 1_545 S
C946 C947 1.394 . S
C946 H954 0.930 . S
C947 C946 1.394 . S
C947 C948 1.383 . S
C947 H955 0.929 . S
C948 C947 1.383 . S
C948 C949 1.377 1_545 S
C949 H933 0.930 . S
C949 C948 1.377 1_565 S
C949 C950 1.379 . S
C950 H934 0.931 . S
C950 C944 1.395 . S
C950 C949 1.379 . S
H951 C945 0.959 1_556 S
H952 C945 0.961 . S
H953 C945 0.960 1_556 S
H954 C946 0.930 . S
H955 C947 0.929 . S
H956 C964 0.929 . S
H957 C966 0.930 . S
H958 C968 0.930 . S
H959 C971 0.929 . S
H960 C974 0.930 . S
H961 C976 0.960 . S
H962 C976 0.960 . S
H963 C976 0.960 . S
C964 H956 0.929 . S
C964 C965 1.377 . S
C964 C966 1.384 . S
C965 C964 1.377 . S
C965 C971 1.390 1_565 S
C966 H957 0.930 . S
C966 C964 1.384 . S
C966 C967 1.372 . S
C967 C966 1.372 . S
C967 C968 1.400 1_565 S
C967 C972 1.490 . S
C968 H958 0.930 . S
C968 C967 1.400 1_545 S
C968 C971 1.386 . S
H969 C985 0.930 . S
H970 C986 0.931 . S
C971 H959 0.929 . S
C971 C965 1.390 1_545 S
C971 C968 1.386 . S
C972 C967 1.490 . S
C972 C974 1.395 . S
C972 C975 1.403 1_565 S
H973 C979 0.930 . S
C974 H960 0.930 . S
C974 C972 1.395 . S
C974 C977 1.403 1_455 S
C975 C972 1.403 1_545 S
C975 C976 1.524 . S
C975 C979 1.400 1_455 S
C976 H961 0.960 . S
C976 H962 0.960 . S
C976 H963 0.960 . S
C976 C975 1.524 . S
C977 C974 1.403 1_655 S
C977 C978 1.392 . S
C977 C981 1.495 . S
C978 C977 1.392 . S
C978 C979 1.385 1_565 S
C978 C980 1.478 . S
C979 H973 0.930 . S
C979 C975 1.400 1_655 S
C979 C978 1.385 1_545 S
C980 C978 1.478 . S
C980 C982 1.381 . S
C980 C986 1.383 1_565 S
C981 C977 1.495 . S
C981 H987 0.959 . S
C981 H988 0.961 . S
C981 H989 0.960 . S
C982 C980 1.381 . S
C982 C983 1.394 . S
C982 H990 0.930 . S
C983 C982 1.394 . S
C983 C984 1.383 1_565 S
C983 H991 0.929 . S
C984 C983 1.383 1_545 S
C984 C985 1.377 . S
C985 H969 0.930 . S
C985 C984 1.377 . S
C985 C986 1.379 . S
C986 H970 0.931 . S
C986 C980 1.383 1_545 S
C986 C985 1.379 . S
H987 C981 0.959 . S
H988 C981 0.961 . S
H989 C981 0.960 . S
H990 C982 0.930 . S
H991 C983 0.929 . S
H992 C1000 0.929 . S
H993 C1002 0.930 . S
H994 C1004 0.930 . S
H995 C1007 0.929 . S
H996 C1010 0.930 . S
H997 C1012 0.960 . S
H998 C1012 0.960 . S
H999 C1012 0.960 . S
C1000 H992 0.929 . S
C1000 C1001 1.377 . S
C1000 C1002 1.384 . S
C1001 C1000 1.377 . S
C1001 C1007 1.390 . S
C1002 H993 0.930 . S
C1002 C1000 1.384 . S
C1002 C1003 1.372 . S
C1003 C1002 1.372 . S
C1003 C1004 1.400 . S
C1003 C1008 1.490 . S
C1004 H994 0.930 . S
C1004 C1003 1.400 . S
C1004 C1007 1.386 . S
H1005 C1021 0.930 . S
H1006 C1022 0.931 . S
C1007 H995 0.929 . S
C1007 C1001 1.390 . S
C1007 C1004 1.386 . S
C1008 C1003 1.490 . S
C1008 C1010 1.395 . S
C1008 C1011 1.403 . S
H1009 C1015 0.930 . S
C1010 H996 0.930 . S
C1010 C1008 1.395 . S
C1010 C1013 1.403 . S
C1011 C1008 1.403 . S
C1011 C1012 1.524 . S
C1011 C1015 1.400 . S
C1012 H997 0.960 . S
C1012 H998 0.960 . S
C1012 H999 0.960 . S
C1012 C1011 1.524 . S
C1013 C1010 1.403 . S
C1013 C1014 1.392 . S
C1013 C1017 1.495 . S
C1014 C1013 1.392 . S
C1014 C1015 1.385 . S
C1014 C1016 1.478 . S
C1015 H1009 0.930 . S
C1015 C1011 1.400 . S
C1015 C1014 1.385 . S
C1016 C1014 1.478 . S
C1016 C1018 1.381 . S
C1016 C1022 1.383 . S
C1017 C1013 1.495 . S
C1017 H1023 0.959 . S
C1017 H1024 0.961 . S
C1017 H1025 0.960 . S
C1018 C1016 1.381 . S
C1018 C1019 1.394 . S
C1018 H1026 0.930 . S
C1019 C1018 1.394 . S
C1019 C1020 1.383 . S
C1019 H1027 0.929 . S
C1020 C1019 1.383 . S
C1020 C1021 1.377 . S
C1021 H1005 0.930 . S
C1021 C1020 1.377 . S
C1021 C1022 1.379 . S
C1022 H1006 0.931 . S
C1022 C1016 1.383 . S
C1022 C1021 1.379 . S
H1023 C1017 0.959 . S
H1024 C1017 0.961 . S
H1025 C1017 0.960 . S
H1026 C1018 0.930 . S
H1027 C1019 0.929 . S
H1028 C1036 0.929 . S
H1029 C1038 0.930 . S
H1030 C1040 0.930 . S
H1031 C1043 0.929 . S
H1032 C1046 0.930 . S
H1033 C1048 0.960 . S
H1034 C1048 0.960 . S
H1035 C1048 0.960 . S
C1036 H1028 0.929 . S
C1036 C1037 1.377 . S
C1036 C1038 1.384 . S
C1037 C1036 1.377 . S
C1037 C1043 1.390 . S
C1038 H1029 0.930 . S
C1038 C1036 1.384 . S
C1038 C1039 1.372 . S
C1039 C1038 1.372 . S
C1039 C1040 1.400 . S
C1039 C1044 1.490 1_556 S
C1040 H1030 0.930 . S
C1040 C1039 1.400 . S
C1040 C1043 1.386 . S
H1041 C1057 0.930 . S
H1042 C1058 0.931 . S
C1043 H1031 0.929 . S
C1043 C1037 1.390 . S
C1043 C1040 1.386 . S
C1044 C1039 1.490 1_554 S
C1044 C1046 1.395 . S
C1044 C1047 1.403 . S
H1045 C1051 0.930 . S
C1046 H1032 0.930 . S
C1046 C1044 1.395 . S
C1046 C1049 1.403 . S
C1047 C1044 1.403 . S
C1047 C1048 1.524 . S
C1047 C1051 1.400 . S
C1048 H1033 0.960 . S
C1048 H1034 0.960 . S
C1048 H1035 0.960 . S
C1048 C1047 1.524 . S
C1049 C1046 1.403 . S
C1049 C1050 1.392 . S
C1049 C1053 1.495 . S
C1050 C1049 1.392 . S
C1050 C1051 1.385 . S
C1050 C1052 1.478 . S
C1051 H1045 0.930 . S
C1051 C1047 1.400 . S
C1051 C1050 1.385 . S
C1052 C1050 1.478 . S
C1052 C1054 1.381 . S
C1052 C1058 1.383 . S
C1053 C1049 1.495 . S
C1053 H1059 0.959 . S
C1053 H1060 0.961 . S
C1053 H1061 0.960 . S
C1054 C1052 1.381 . S
C1054 C1055 1.394 . S
C1054 H1062 0.930 . S
C1055 C1054 1.394 . S
C1055 C1056 1.383 . S
C1055 H1063 0.929 . S
C1056 C1055 1.383 . S
C1056 C1057 1.377 . S
C1057 H1041 0.930 . S
C1057 C1056 1.377 . S
C1057 C1058 1.379 . S
C1058 H1042 0.931 . S
C1058 C1052 1.383 . S
C1058 C1057 1.379 . S
H1059 C1053 0.959 . S
H1060 C1053 0.961 . S
H1061 C1053 0.960 . S
H1062 C1054 0.930 . S
H1063 C1055 0.929 . S
H1064 C1072 0.929 . S
H1065 C1074 0.930 . S
H1066 C1076 0.930 . S
H1067 C1079 0.929 . S
H1068 C1082 0.930 . S
H1069 C1084 0.960 . S
H1070 C1084 0.960 . S
H1071 C1084 0.960 . S
C1072 H1064 0.929 . S
C1072 C1073 1.377 . S
C1072 C1074 1.384 . S
C1073 C1072 1.377 . S
C1073 C1079 1.390 . S
C1074 H1065 0.930 . S
C1074 C1072 1.384 . S
C1074 C1075 1.372 . S
C1075 C1074 1.372 . S
C1075 C1076 1.400 . S
C1075 C1080 1.490 . S
C1076 H1066 0.930 . S
C1076 C1075 1.400 . S
C1076 C1079 1.386 . S
H1077 C1093 0.930 . S
H1078 C1094 0.931 . S
C1079 H1067 0.929 . S
C1079 C1073 1.390 . S
C1079 C1076 1.386 . S
C1080 C1075 1.490 . S
C1080 C1082 1.395 . S
C1080 C1083 1.403 . S
H1081 C1087 0.930 . S
C1082 H1068 0.930 . S
C1082 C1080 1.395 . S
C1082 C1085 1.403 . S
C1083 C1080 1.403 . S
C1083 C1084 1.524 . S
C1083 C1087 1.400 . S
C1084 H1069 0.960 . S
C1084 H1070 0.960 . S
C1084 H1071 0.960 . S
C1084 C1083 1.524 . S
C1085 C1082 1.403 . S
C1085 C1086 1.392 . S
C1085 C1089 1.495 . S
C1086 C1085 1.392 . S
C1086 C1087 1.385 . S
C1086 C1088 1.478 . S
C1087 H1081 0.930 . S
C1087 C1083 1.400 . S
C1087 C1086 1.385 . S
C1088 C1086 1.478 . S
C1088 C1090 1.381 . S
C1088 C1094 1.383 . S
C1089 C1085 1.495 . S
C1089 H1095 0.959 . S
C1089 H1096 0.961 . S
C1089 H1097 0.960 . S
C1090 C1088 1.381 . S
C1090 C1091 1.394 . S
C1090 H1098 0.930 . S
C1091 C1090 1.394 . S
C1091 C1092 1.383 . S
C1091 H1099 0.929 . S
C1092 C1091 1.383 . S
C1092 C1093 1.377 . S
C1093 H1077 0.930 . S
C1093 C1092 1.377 . S
C1093 C1094 1.379 . S
C1094 H1078 0.931 . S
C1094 C1088 1.383 . S
C1094 C1093 1.379 . S
H1095 C1089 0.959 . S
H1096 C1089 0.961 . S
H1097 C1089 0.960 . S
H1098 C1090 0.930 . S
H1099 C1091 0.929 . S
H1100 C1108 0.929 . S
H1101 C1110 0.930 . S
H1102 C1112 0.930 . S
H1103 C1115 0.929 . S
H1104 C1118 0.930 . S
H1105 C1120 0.960 . S
H1106 C1120 0.960 . S
H1107 C1120 0.960 . S
C1108 H1100 0.929 . S
C1108 C1109 1.377 . S
C1108 C1110 1.384 . S
C1109 C1108 1.377 . S
C1109 C1115 1.390 . S
C1110 H1101 0.930 . S
C1110 C1108 1.384 . S
C1110 C1111 1.372 . S
C1111 C1110 1.372 . S
C1111 C1112 1.400 . S
C1111 C1116 1.490 . S
C1112 H1102 0.930 . S
C1112 C1111 1.400 . S
C1112 C1115 1.386 . S
H1113 C1129 0.930 . S
H1114 C1130 0.931 . S
C1115 H1103 0.929 . S
C1115 C1109 1.390 . S
C1115 C1112 1.386 . S
C1116 C1111 1.490 . S
C1116 C1118 1.395 . S
C1116 C1119 1.403 . S
H1117 C1123 0.930 . S
C1118 H1104 0.930 . S
C1118 C1116 1.395 . S
C1118 C1121 1.403 . S
C1119 C1116 1.403 . S
C1119 C1120 1.524 . S
C1119 C1123 1.400 . S
C1120 H1105 0.960 . S
C1120 H1106 0.960 . S
C1120 H1107 0.960 . S
C1120 C1119 1.524 . S
C1121 C1118 1.403 . S
C1121 C1122 1.392 . S
C1121 C1125 1.495 . S
C1122 C1121 1.392 . S
C1122 C1123 1.385 . S
C1122 C1124 1.478 . S
C1123 H1117 0.930 . S
C1123 C1119 1.400 . S
C1123 C1122 1.385 . S
C1124 C1122 1.478 . S
C1124 C1126 1.381 . S
C1124 C1130 1.383 . S
C1125 C1121 1.495 . S
C1125 H1131 0.959 . S
C1125 H1132 0.961 . S
C1125 H1133 0.960 . S
C1126 C1124 1.381 . S
C1126 C1127 1.394 . S
C1126 H1134 0.930 . S
C1127 C1126 1.394 . S
C1127 C1128 1.383 . S
C1127 H1135 0.929 . S
C1128 C1127 1.383 . S
C1128 C1129 1.377 . S
C1129 H1113 0.930 . S
C1129 C1128 1.377 . S
C1129 C1130 1.379 . S
C1130 H1114 0.931 . S
C1130 C1124 1.383 . S
C1130 C1129 1.379 . S
H1131 C1125 0.959 . S
H1132 C1125 0.961 . S
H1133 C1125 0.960 . S
H1134 C1126 0.930 . S
H1135 C1127 0.929 . S
H1136 C1144 0.929 . S
H1137 C1146 0.930 . S
H1138 C1148 0.930 . S
H1139 C1151 0.929 . S
H1140 C1154 0.930 . S
H1141 C1156 0.960 . S
H1142 C1156 0.960 . S
H1143 C1156 0.960 . S
C1144 H1136 0.929 . S
C1144 C1145 1.377 . S
C1144 C1146 1.384 . S
C1145 C1144 1.377 . S
C1145 C1151 1.390 . S
C1146 H1137 0.930 . S
C1146 C1144 1.384 . S
C1146 C1147 1.372 . S
C1147 C1146 1.372 . S
C1147 C1148 1.400 . S
C1147 C1152 1.490 . S
C1148 H1138 0.930 . S
C1148 C1147 1.400 . S
C1148 C1151 1.386 . S
H1149 C1165 0.930 . S
H1150 C1166 0.931 . S
C1151 H1139 0.929 . S
C1151 C1145 1.390 . S
C1151 C1148 1.386 . S
C1152 C1147 1.490 . S
C1152 C1154 1.395 . S
C1152 C1155 1.403 . S
H1153 C1159 0.930 . S
C1154 H1140 0.930 . S
C1154 C1152 1.395 . S
C1154 C1157 1.403 . S
C1155 C1152 1.403 . S
C1155 C1156 1.524 . S
C1155 C1159 1.400 . S
C1156 H1141 0.960 . S
C1156 H1142 0.960 . S
C1156 H1143 0.960 . S
C1156 C1155 1.524 . S
C1157 C1154 1.403 . S
C1157 C1158 1.392 . S
C1157 C1161 1.495 . S
C1158 C1157 1.392 . S
C1158 C1159 1.385 . S
C1158 C1160 1.478 . S
C1159 H1153 0.930 . S
C1159 C1155 1.400 . S
C1159 C1158 1.385 . S
C1160 C1158 1.478 . S
C1160 C1162 1.381 . S
C1160 C1166 1.383 . S
C1161 C1157 1.495 . S
C1161 H1167 0.959 . S
C1161 H1168 0.961 . S
C1161 H1169 0.960 . S
C1162 C1160 1.381 . S
C1162 C1163 1.394 . S
C1162 H1170 0.930 . S
C1163 C1162 1.394 . S
C1163 C1164 1.383 . S
C1163 H1171 0.929 . S
C1164 C1163 1.383 . S
C1164 C1165 1.377 . S
C1165 H1149 0.930 . S
C1165 C1164 1.377 . S
C1165 C1166 1.379 . S
C1166 H1150 0.931 . S
C1166 C1160 1.383 . S
C1166 C1165 1.379 . S
H1167 C1161 0.959 . S
H1168 C1161 0.961 . S
H1169 C1161 0.960 . S
H1170 C1162 0.930 . S
H1171 C1163 0.929 . S
H1172 C1180 0.929 . S
H1173 C1182 0.930 . S
H1174 C1184 0.930 . S
H1175 C1187 0.929 . S
H1176 C1190 0.930 . S
H1177 C1192 0.960 . S
H1178 C1192 0.960 . S
H1179 C1192 0.960 . S
C1180 H1172 0.929 . S
C1180 C1181 1.377 . S
C1180 C1182 1.384 . S
C1181 C1180 1.377 . S
C1181 C1187 1.390 . S
C1182 H1173 0.930 . S
C1182 C1180 1.384 . S
C1182 C1183 1.372 . S
C1183 C1182 1.372 . S
C1183 C1184 1.400 . S
C1183 C1188 1.490 1_556 S
C1184 H1174 0.930 . S
C1184 C1183 1.400 . S
C1184 C1187 1.386 . S
H1185 C1201 0.930 . S
H1186 C1202 0.931 . S
C1187 H1175 0.929 . S
C1187 C1181 1.390 . S
C1187 C1184 1.386 . S
C1188 C1183 1.490 1_554 S
C1188 C1190 1.395 . S
C1188 C1191 1.403 . S
H1189 C1195 0.930 . S
C1190 H1176 0.930 . S
C1190 C1188 1.395 . S
C1190 C1193 1.403 . S
C1191 C1188 1.403 . S
C1191 C1192 1.524 . S
C1191 C1195 1.400 . S
C1192 H1177 0.960 . S
C1192 H1178 0.960 . S
C1192 H1179 0.960 . S
C1192 C1191 1.524 . S
C1193 C1190 1.403 . S
C1193 C1194 1.392 . S
C1193 C1197 1.495 . S
C1194 C1193 1.392 . S
C1194 C1195 1.385 . S
C1194 C1196 1.478 . S
C1195 H1189 0.930 . S
C1195 C1191 1.400 . S
C1195 C1194 1.385 . S
C1196 C1194 1.478 . S
C1196 C1198 1.381 . S
C1196 C1202 1.383 . S
C1197 C1193 1.495 . S
C1197 H1203 0.959 . S
C1197 H1204 0.961 . S
C1197 H1205 0.960 . S
C1198 C1196 1.381 . S
C1198 C1199 1.394 . S
C1198 H1206 0.930 . S
C1199 C1198 1.394 . S
C1199 C1200 1.383 . S
C1199 H1207 0.929 . S
C1200 C1199 1.383 . S
C1200 C1201 1.377 . S
C1201 H1185 0.930 . S
C1201 C1200 1.377 . S
C1201 C1202 1.379 . S
C1202 H1186 0.931 . S
C1202 C1196 1.383 . S
C1202 C1201 1.379 . S
H1203 C1197 0.959 . S
H1204 C1197 0.961 . S
H1205 C1197 0.960 . S
H1206 C1198 0.930 . S
H1207 C1199 0.929 . S
H1208 C1216 0.929 . S
H1209 C1218 0.930 . S
H1210 C1220 0.930 . S
H1211 C1223 0.929 . S
H1212 C1226 0.930 . S
H1213 C1228 0.960 . S
H1214 C1228 0.960 . S
H1215 C1228 0.960 . S
C1216 H1208 0.929 . S
C1216 C1217 1.377 . S
C1216 C1218 1.384 . S
C1217 C1216 1.377 . S
C1217 C1223 1.390 . S
C1218 H1209 0.930 . S
C1218 C1216 1.384 . S
C1218 C1219 1.372 . S
C1219 C1218 1.372 . S
C1219 C1220 1.400 . S
C1219 C1224 1.490 . S
C1220 H1210 0.930 . S
C1220 C1219 1.400 . S
C1220 C1223 1.386 . S
H1221 C1237 0.930 . S
H1222 C1238 0.931 . S
C1223 H1211 0.929 . S
C1223 C1217 1.390 . S
C1223 C1220 1.386 . S
C1224 C1219 1.490 . S
C1224 C1226 1.395 . S
C1224 C1227 1.403 . S
H1225 C1231 0.930 . S
C1226 H1212 0.930 . S
C1226 C1224 1.395 . S
C1226 C1229 1.403 . S
C1227 C1224 1.403 . S
C1227 C1228 1.524 . S
C1227 C1231 1.400 . S
C1228 H1213 0.960 . S
C1228 H1214 0.960 . S
C1228 H1215 0.960 . S
C1228 C1227 1.524 . S
C1229 C1226 1.403 . S
C1229 C1230 1.392 . S
C1229 C1233 1.495 . S
C1230 C1229 1.392 . S
C1230 C1231 1.385 . S
C1230 C1232 1.478 . S
C1231 H1225 0.930 . S
C1231 C1227 1.400 . S
C1231 C1230 1.385 . S
C1232 C1230 1.478 . S
C1232 C1234 1.381 . S
C1232 C1238 1.383 . S
C1233 C1229 1.495 . S
C1233 H1239 0.959 . S
C1233 H1240 0.961 . S
C1233 H1241 0.960 . S
C1234 C1232 1.381 . S
C1234 C1235 1.394 . S
C1234 H1242 0.930 . S
C1235 C1234 1.394 . S
C1235 C1236 1.383 . S
C1235 H1243 0.929 . S
C1236 C1235 1.383 . S
C1236 C1237 1.377 . S
C1237 H1221 0.930 . S
C1237 C1236 1.377 . S
C1237 C1238 1.379 . S
C1238 H1222 0.931 . S
C1238 C1232 1.383 . S
C1238 C1237 1.379 . S
H1239 C1233 0.959 . S
H1240 C1233 0.961 . S
H1241 C1233 0.960 . S
H1242 C1234 0.930 . S
H1243 C1235 0.929 . S
H1244 C1252 0.929 . S
H1245 C1254 0.930 . S
H1246 C1256 0.930 . S
H1247 C1259 0.929 . S
H1248 C1262 0.930 . S
H1249 C1264 0.960 . S
H1250 C1264 0.960 . S
H1251 C1264 0.960 . S
C1252 H1244 0.929 . S
C1252 C1253 1.377 . S
C1252 C1254 1.384 . S
C1253 C1252 1.377 . S
C1253 C1259 1.390 . S
C1254 H1245 0.930 . S
C1254 C1252 1.384 . S
C1254 C1255 1.372 . S
C1255 C1254 1.372 . S
C1255 C1256 1.400 . S
C1255 C1260 1.490 . S
C1256 H1246 0.930 . S
C1256 C1255 1.400 . S
C1256 C1259 1.386 . S
H1257 C1273 0.930 . S
H1258 C1274 0.931 . S
C1259 H1247 0.929 . S
C1259 C1253 1.390 . S
C1259 C1256 1.386 . S
C1260 C1255 1.490 . S
C1260 C1262 1.395 . S
C1260 C1263 1.403 . S
H1261 C1267 0.930 . S
C1262 H1248 0.930 . S
C1262 C1260 1.395 . S
C1262 C1265 1.403 . S
C1263 C1260 1.403 . S
C1263 C1264 1.524 . S
C1263 C1267 1.400 . S
C1264 H1249 0.960 . S
C1264 H1250 0.960 . S
C1264 H1251 0.960 . S
C1264 C1263 1.524 . S
C1265 C1262 1.403 . S
C1265 C1266 1.392 . S
C1265 C1269 1.495 . S
C1266 C1265 1.392 . S
C1266 C1267 1.385 . S
C1266 C1268 1.478 . S
C1267 H1261 0.930 . S
C1267 C1263 1.400 . S
C1267 C1266 1.385 . S
C1268 C1266 1.478 . S
C1268 C1270 1.381 . S
C1268 C1274 1.383 . S
C1269 C1265 1.495 . S
C1269 H1275 0.959 . S
C1269 H1276 0.961 . S
C1269 H1277 0.960 . S
C1270 C1268 1.381 . S
C1270 C1271 1.394 . S
C1270 H1278 0.930 . S
C1271 C1270 1.394 . S
C1271 C1272 1.383 . S
C1271 H1279 0.929 . S
C1272 C1271 1.383 . S
C1272 C1273 1.377 . S
C1273 H1257 0.930 . S
C1273 C1272 1.377 . S
C1273 C1274 1.379 . S
C1274 H1258 0.931 . S
C1274 C1268 1.383 . S
C1274 C1273 1.379 . S
H1275 C1269 0.959 . S
H1276 C1269 0.961 . S
H1277 C1269 0.960 . S
H1278 C1270 0.930 . S
H1279 C1271 0.929 . S
H1280 C1288 0.929 . S
H1281 C1290 0.930 . S
H1282 C1292 0.938 . S
H1283 C1295 0.929 . S
H1284 C1298 0.930 . S
H1285 C1300 0.960 . S
H1286 C1300 0.960 . S
H1287 C1300 0.960 . S
C1288 H1280 0.929 . S
C1288 C1289 1.377 . S
C1288 C1290 1.384 . S
C1289 C1288 1.377 . S
C1289 C1295 1.390 . S
C1290 H1281 0.930 . S
C1290 C1288 1.384 . S
C1290 C1291 1.372 . S
C1291 C1290 1.372 . S
C1291 C1292 1.400 . S
C1291 C1296 1.490 . S
C1292 H1282 0.938 . S
C1292 C1291 1.400 . S
C1292 C1295 1.386 . S
H1293 C1309 0.930 . S
H1294 C1310 0.931 . S
C1295 H1283 0.929 . S
C1295 C1289 1.390 . S
C1295 C1292 1.386 . S
C1296 C1291 1.490 . S
C1296 C1298 1.395 1_545 S
C1296 C1299 1.403 . S
H1297 C1303 0.930 . S
C1298 H1284 0.930 . S
C1298 C1296 1.395 1_565 S
C1298 C1301 1.403 . S
C1299 C1296 1.403 . S
C1299 C1300 1.524 . S
C1299 C1303 1.400 . S
C1300 H1285 0.960 . S
C1300 H1286 0.960 . S
C1300 H1287 0.960 . S
C1300 C1299 1.524 . S
C1301 C1298 1.403 . S
C1301 C1302 1.392 . S
C1301 C1305 1.495 . S
C1302 C1301 1.392 . S
C1302 C1303 1.385 1_565 S
C1302 C1304 1.478 . S
C1303 H1297 0.930 . S
C1303 C1299 1.400 . S
C1303 C1302 1.385 1_545 S
C1304 C1302 1.478 . S
C1304 C1306 1.381 . S
C1304 C1310 1.383 . S
C1305 C1301 1.495 . S
C1305 H1311 0.959 . S
C1305 H1312 0.961 . S
C1305 H1313 0.960 . S
C1306 C1304 1.381 . S
C1306 C1307 1.394 . S
C1306 H1314 0.920 1_565 S
C1307 C1306 1.394 . S
C1307 C1308 1.383 . S
C1307 H1315 0.929 . S
C1308 C1307 1.383 . S
C1308 C1309 1.377 . S
C1309 H1293 0.930 . S
C1309 C1308 1.377 . S
C1309 C1310 1.379 . S
C1310 H1294 0.931 . S
C1310 C1304 1.383 . S
C1310 C1309 1.379 . S
H1311 C1305 0.959 . S
H1312 C1305 0.961 . S
H1313 C1305 0.960 . S
H1314 C1306 0.920 1_545 S
H1315 C1307 0.929 . S
H1316 C1324 0.929 . S
H1317 C1326 0.930 . S
H1318 C1328 0.930 . S
H1319 C1331 0.929 . S
H1320 C1334 0.930 . S
H1321 C1336 0.960 . S
H1322 C1336 0.960 . S
H1323 C1336 0.960 . S
C1324 H1316 0.929 . S
C1324 C1325 1.377 . S
C1324 C1326 1.384 . S
C1325 C1324 1.377 . S
C1325 C1331 1.390 . S
C1326 H1317 0.930 . S
C1326 C1324 1.384 . S
C1326 C1327 1.372 . S
C1327 C1326 1.372 . S
C1327 C1328 1.400 . S
C1327 C1332 1.490 . S
C1328 H1318 0.930 . S
C1328 C1327 1.400 . S
C1328 C1331 1.386 . S
H1329 C1345 0.930 . S
H1330 C1346 0.931 . S
C1331 H1319 0.929 . S
C1331 C1325 1.390 . S
C1331 C1328 1.386 . S
C1332 C1327 1.490 . S
C1332 C1334 1.395 . S
C1332 C1335 1.403 . S
H1333 C1339 0.930 . S
C1334 H1320 0.930 . S
C1334 C1332 1.395 . S
C1334 C1337 1.403 . S
C1335 C1332 1.403 . S
C1335 C1336 1.524 . S
C1335 C1339 1.400 . S
C1336 H1321 0.960 . S
C1336 H1322 0.960 . S
C1336 H1323 0.960 . S
C1336 C1335 1.524 . S
C1337 C1334 1.403 . S
C1337 C1338 1.392 . S
C1337 C1341 1.495 . S
C1338 C1337 1.392 . S
C1338 C1339 1.385 . S
C1338 C1340 1.478 . S
C1339 H1333 0.930 . S
C1339 C1335 1.400 . S
C1339 C1338 1.385 . S
C1340 C1338 1.478 . S
C1340 C1342 1.381 . S
C1340 C1346 1.383 . S
C1341 C1337 1.495 . S
C1341 H1347 0.959 . S
C1341 H1348 0.961 . S
C1341 H1349 0.960 . S
C1342 C1340 1.381 . S
C1342 C1343 1.394 . S
C1342 H1350 0.930 . S
C1343 C1342 1.394 . S
C1343 C1344 1.383 . S
C1343 H1351 0.929 . S
C1344 C1343 1.383 . S
C1344 C1345 1.377 . S
C1345 H1329 0.930 . S
C1345 C1344 1.377 . S
C1345 C1346 1.379 . S
C1346 H1330 0.931 . S
C1346 C1340 1.383 . S
C1346 C1345 1.379 . S
H1347 C1341 0.959 . S
H1348 C1341 0.961 . S
H1349 C1341 0.960 . S
H1350 C1342 0.930 . S
H1351 C1343 0.929 . S
H1352 C1360 0.929 . S
H1353 C1362 0.930 . S
H1354 C1364 0.930 . S
H1355 C1367 0.929 . S
H1356 C1370 0.930 . S
H1357 C1372 0.960 . S
H1358 C1372 0.960 . S
H1359 C1372 0.960 . S
C1360 H1352 0.929 . S
C1360 C1361 1.377 . S
C1360 C1362 1.384 . S
C1361 C1360 1.377 . S
C1361 C1367 1.390 . S
C1362 H1353 0.930 . S
C1362 C1360 1.384 . S
C1362 C1363 1.372 . S
C1363 C1362 1.372 . S
C1363 C1364 1.400 . S
C1363 C1368 1.490 . S
C1364 H1354 0.930 . S
C1364 C1363 1.400 . S
C1364 C1367 1.386 . S
H1365 C1381 0.930 . S
H1366 C1382 0.931 . S
C1367 H1355 0.929 . S
C1367 C1361 1.390 . S
C1367 C1364 1.386 . S
C1368 C1363 1.490 . S
C1368 C1370 1.395 1_545 S
C1368 C1371 1.403 . S
H1369 C1375 0.930 . S
C1370 H1356 0.930 . S
C1370 C1368 1.395 1_565 S
C1370 C1373 1.403 . S
C1371 C1368 1.403 . S
C1371 C1372 1.524 . S
C1371 C1375 1.400 . S
C1372 H1357 0.960 . S
C1372 H1358 0.960 . S
C1372 H1359 0.960 . S
C1372 C1371 1.524 . S
C1373 C1370 1.403 . S
C1373 C1374 1.392 . S
C1373 C1377 1.495 . S
C1374 C1373 1.392 . S
C1374 C1375 1.385 1_565 S
C1374 C1376 1.478 . S
C1375 H1369 0.930 . S
C1375 C1371 1.400 . S
C1375 C1374 1.385 1_545 S
C1376 C1374 1.478 . S
C1376 C1378 1.381 . S
C1376 C1382 1.383 . S
C1377 C1373 1.495 . S
C1377 H1383 0.959 . S
C1377 H1384 0.961 . S
C1377 H1385 0.960 . S
C1378 C1376 1.381 . S
C1378 C1379 1.394 . S
C1378 H1386 0.930 . S
C1379 C1378 1.394 . S
C1379 C1380 1.383 . S
C1379 H1387 0.929 . S
C1380 C1379 1.383 . S
C1380 C1381 1.377 . S
C1381 H1365 0.930 . S
C1381 C1380 1.377 . S
C1381 C1382 1.379 . S
C1382 H1366 0.931 . S
C1382 C1376 1.383 . S
C1382 C1381 1.379 . S
H1383 C1377 0.959 . S
H1384 C1377 0.961 . S
H1385 C1377 0.960 . S
H1386 C1378 0.930 . S
H1387 C1379 0.929 . S
H1388 C1396 0.929 . S
H1389 C1398 0.930 . S
H1390 C1400 0.930 . S
H1391 C1403 0.929 . S
H1392 C1406 0.930 . S
H1393 C1408 0.960 . S
H1394 C1408 0.960 . S
H1395 C1408 0.960 . S
C1396 H1388 0.929 . S
C1396 C1397 1.377 . S
C1396 C1398 1.384 . S
C1397 C1396 1.377 . S
C1397 C1403 1.390 . S
C1398 H1389 0.930 . S
C1398 C1396 1.384 . S
C1398 C1399 1.372 . S
C1399 C1398 1.372 . S
C1399 C1400 1.400 . S
C1399 C1404 1.490 1_556 S
C1400 H1390 0.930 . S
C1400 C1399 1.400 . S
C1400 C1403 1.386 . S
H1401 C1417 0.930 . S
H1402 C1418 0.931 . S
C1403 H1391 0.929 . S
C1403 C1397 1.390 . S
C1403 C1400 1.386 . S
C1404 C1399 1.490 1_554 S
C1404 C1406 1.395 . S
C1404 C1407 1.403 . S
H1405 C1411 0.930 . S
C1406 H1392 0.930 . S
C1406 C1404 1.395 . S
C1406 C1409 1.403 . S
C1407 C1404 1.403 . S
C1407 C1408 1.524 . S
C1407 C1411 1.400 . S
C1408 H1393 0.960 . S
C1408 H1394 0.960 . S
C1408 H1395 0.960 . S
C1408 C1407 1.524 . S
C1409 C1406 1.403 . S
C1409 C1410 1.392 . S
C1409 C1413 1.495 . S
C1410 C1409 1.392 . S
C1410 C1411 1.385 . S
C1410 C1412 1.478 . S
C1411 H1405 0.930 . S
C1411 C1407 1.400 . S
C1411 C1410 1.385 . S
C1412 C1410 1.478 . S
C1412 C1414 1.381 . S
C1412 C1418 1.383 . S
C1413 C1409 1.495 . S
C1413 H1419 0.959 . S
C1413 H1420 0.961 . S
C1413 H1421 0.960 . S
C1414 C1412 1.381 . S
C1414 C1415 1.394 . S
C1414 H1422 0.930 . S
C1415 C1414 1.394 . S
C1415 C1416 1.383 . S
C1415 H1423 0.929 . S
C1416 C1415 1.383 . S
C1416 C1417 1.377 . S
C1417 H1401 0.930 . S
C1417 C1416 1.377 . S
C1417 C1418 1.379 . S
C1418 H1402 0.931 . S
C1418 C1412 1.383 . S
C1418 C1417 1.379 . S
H1419 C1413 0.959 . S
H1420 C1413 0.961 . S
H1421 C1413 0.960 . S
H1422 C1414 0.930 . S
H1423 C1415 0.929 . S
H1424 C1432 0.929 . S
H1425 C1434 0.930 . S
H1426 C1436 0.930 . S
H1427 C1439 0.929 . S
H1428 C1442 0.930 . S
H1429 C1444 0.960 . S
H1430 C1444 0.960 . S
H1431 C1444 0.960 . S
C1432 H1424 0.929 . S
C1432 C1433 1.377 1_545 S
C1432 C1434 1.384 . S
C1433 C1432 1.377 1_565 S
C1433 C1439 1.390 . S
C1434 H1425 0.930 . S
C1434 C1432 1.384 . S
C1434 C1435 1.372 1_545 S
C1435 C1434 1.372 1_565 S
C1435 C1436 1.400 . S
C1435 C1440 1.490 . S
C1436 H1426 0.930 . S
C1436 C1435 1.400 . S
C1436 C1439 1.386 . S
H1437 C1453 0.947 . S
H1438 C1454 0.931 . S
C1439 H1427 0.929 . S
C1439 C1433 1.390 . S
C1439 C1436 1.386 . S
C1440 C1435 1.490 . S
C1440 C1442 1.395 1_565 S
C1440 C1443 1.403 . S
H1441 C1447 0.930 . S
C1442 H1428 0.930 . S
C1442 C1440 1.395 1_545 S
C1442 C1445 1.403 . S
C1443 C1440 1.403 . S
C1443 C1444 1.524 . S
C1443 C1447 1.400 . S
C1444 H1429 0.960 . S
C1444 H1430 0.960 . S
C1444 H1431 0.960 . S
C1444 C1443 1.524 . S
C1445 C1442 1.403 . S
C1445 C1446 1.392 . S
C1445 C1449 1.495 . S
C1446 C1445 1.392 . S
C1446 C1447 1.385 1_545 S
C1446 C1448 1.478 . S
C1447 H1441 0.930 . S
C1447 C1443 1.400 . S
C1447 C1446 1.385 1_565 S
C1448 C1446 1.478 . S
C1448 C1450 1.381 . S
C1448 C1454 1.383 1_545 S
C1449 C1445 1.495 . S
C1449 H1455 0.959 . S
C1449 H1456 0.961 . S
C1449 H1457 0.960 . S
C1450 C1448 1.381 . S
C1450 C1451 1.394 . S
C1450 H1458 0.930 . S
C1451 C1450 1.394 . S
C1451 C1452 1.383 . S
C1451 H1459 0.929 . S
C1452 C1451 1.383 . S
C1452 C1453 1.356 1_545 S
C1453 H1437 0.947 . S
C1453 C1452 1.356 1_565 S
C1453 C1454 1.384 . S
C1454 H1438 0.931 . S
C1454 C1448 1.383 1_565 S
C1454 C1453 1.384 . S
H1455 C1449 0.959 . S
H1456 C1449 0.961 . S
H1457 C1449 0.960 . S
H1458 C1450 0.930 . S
H1459 C1451 0.929 . S
H1460 C1468 0.929 . S
H1461 C1470 0.930 . S
H1462 C1472 0.930 . S
H1463 C1475 0.929 . S
H1464 C1478 0.930 . S
H1465 C1480 0.960 . S
H1466 C1480 0.960 . S
H1467 C1480 0.960 . S
C1468 H1460 0.929 . S
C1468 C1469 1.377 . S
C1468 C1470 1.384 . S
C1469 C1468 1.377 . S
C1469 C1475 1.390 . S
C1470 H1461 0.930 . S
C1470 C1468 1.384 . S
C1470 C1471 1.372 . S
C1471 C1470 1.372 . S
C1471 C1472 1.400 . S
C1471 C1476 1.490 . S
C1472 H1462 0.930 . S
C1472 C1471 1.400 . S
C1472 C1475 1.386 . S
H1473 C1489 0.930 . S
H1474 C1490 0.931 . S
C1475 H1463 0.929 . S
C1475 C1469 1.390 . S
C1475 C1472 1.386 . S
C1476 C1471 1.490 . S
C1476 C1478 1.395 . S
C1476 C1479 1.403 . S
H1477 C1483 0.930 . S
C1478 H1464 0.930 . S
C1478 C1476 1.395 . S
C1478 C1481 1.403 . S
C1479 C1476 1.403 . S
C1479 C1480 1.524 . S
C1479 C1483 1.400 . S
C1480 H1465 0.960 . S
C1480 H1466 0.960 . S
C1480 H1467 0.960 . S
C1480 C1479 1.524 . S
C1481 C1478 1.403 . S
C1481 C1482 1.392 . S
C1481 C1485 1.495 . S
C1482 C1481 1.392 . S
C1482 C1483 1.385 . S
C1482 C1484 1.478 . S
C1483 H1477 0.930 . S
C1483 C1479 1.400 . S
C1483 C1482 1.385 . S
C1484 C1482 1.478 . S
C1484 C1486 1.381 . S
C1484 C1490 1.383 . S
C1485 C1481 1.495 . S
C1485 H1491 0.959 . S
C1485 H1492 0.961 . S
C1485 H1493 0.960 . S
C1486 C1484 1.381 . S
C1486 C1487 1.394 . S
C1486 H1494 0.930 . S
C1487 C1486 1.394 . S
C1487 C1488 1.383 . S
C1487 H1495 0.929 . S
C1488 C1487 1.383 . S
C1488 C1489 1.377 . S
C1489 H1473 0.930 . S
C1489 C1488 1.377 . S
C1489 C1490 1.379 . S
C1490 H1474 0.931 . S
C1490 C1484 1.383 . S
C1490 C1489 1.379 . S
H1491 C1485 0.959 . S
H1492 C1485 0.961 . S
H1493 C1485 0.960 . S
H1494 C1486 0.930 . S
H1495 C1487 0.929 . S
H1496 C1504 0.929 . S
H1497 C1506 0.930 . S
H1498 C1508 0.930 . S
H1499 C1511 0.995 . S
H1500 C1514 0.930 . S
H1501 C1516 0.960 . S
H1502 C1516 0.960 1_545 S
H1503 C1516 0.960 . S
C1504 H1496 0.929 . S
C1504 C1505 1.377 . S
C1504 C1506 1.384 . S
C1505 C1504 1.377 . S
C1505 C1511 1.310 1_545 S
C1506 H1497 0.930 . S
C1506 C1504 1.384 . S
C1506 C1507 1.372 . S
C1507 C1506 1.372 . S
C1507 C1508 1.400 1_545 S
C1507 C1512 1.490 . S
C1508 H1498 0.930 . S
C1508 C1507 1.400 1_565 S
C1508 C1511 1.404 . S
H1509 C1525 0.930 . S
H1510 C1526 0.931 . S
C1511 H1499 0.995 . S
C1511 C1505 1.310 1_565 S
C1511 C1508 1.404 . S
C1512 C1507 1.490 . S
C1512 C1514 1.395 . S
C1512 C1515 1.403 1_545 S
H1513 C1519 0.930 . S
C1514 H1500 0.930 . S
C1514 C1512 1.395 . S
C1514 C1517 1.403 . S
C1515 C1512 1.403 1_565 S
C1515 C1516 1.524 . S
C1515 C1519 1.400 . S
C1516 H1501 0.960 . S
C1516 H1502 0.960 1_565 S
C1516 H1503 0.960 . S
C1516 C1515 1.524 . S
C1517 C1514 1.403 . S
C1517 C1518 1.392 1_545 S
C1517 C1521 1.495 . S
C1518 C1517 1.392 1_565 S
C1518 C1519 1.385 . S
C1518 C1520 1.478 . S
C1519 H1513 0.930 . S
C1519 C1515 1.400 . S
C1519 C1518 1.385 . S
C1520 C1518 1.478 . S
C1520 C1522 1.381 1_565 S
C1520 C1526 1.383 . S
C1521 C1517 1.495 . S
C1521 H1527 0.959 . S
C1521 H1528 0.987 . S
C1521 H1529 0.960 . S
C1522 C1520 1.381 1_545 S
C1522 C1523 1.394 . S
C1522 H1530 0.930 . S
C1523 C1522 1.394 . S
C1523 C1524 1.383 1_545 S
C1523 H1531 0.929 . S
C1524 C1523 1.383 1_565 S
C1524 C1525 1.377 . S
C1525 H1509 0.930 . S
C1525 C1524 1.377 . S
C1525 C1526 1.379 . S
C1526 H1510 0.931 . S
C1526 C1520 1.383 . S
C1526 C1525 1.379 . S
H1527 C1521 0.959 . S
H1528 C1521 0.987 . S
H1529 C1521 0.960 . S
H1530 C1522 0.930 . S
H1531 C1523 0.929 . S
H1532 C1540 0.929 . S
H1533 C1542 0.930 . S
H1534 C1544 0.930 . S
H1535 C1547 0.929 . S
H1536 C1550 0.930 . S
H1537 C1552 0.960 . S
H1538 C1552 0.960 . S
H1539 C1552 0.960 . S
C1540 H1532 0.929 . S
C1540 C1541 1.377 . S
C1540 C1542 1.384 . S
C1541 C1540 1.377 . S
C1541 C1547 1.390 . S
C1542 H1533 0.930 . S
C1542 C1540 1.384 . S
C1542 C1543 1.372 . S
C1543 C1542 1.372 . S
C1543 C1544 1.400 . S
C1543 C1548 1.490 . S
C1544 H1534 0.930 . S
C1544 C1543 1.400 . S
C1544 C1547 1.386 . S
H1545 C1561 0.930 . S
H1546 C1562 0.931 . S
C1547 H1535 0.929 . S
C1547 C1541 1.390 . S
C1547 C1544 1.386 . S
C1548 C1543 1.490 . S
C1548 C1550 1.395 . S
C1548 C1551 1.403 . S
H1549 C1555 0.930 . S
C1550 H1536 0.930 . S
C1550 C1548 1.395 . S
C1550 C1553 1.403 . S
C1551 C1548 1.403 . S
C1551 C1552 1.524 . S
C1551 C1555 1.400 . S
C1552 H1537 0.960 . S
C1552 H1538 0.960 . S
C1552 H1539 0.960 . S
C1552 C1551 1.524 . S
C1553 C1550 1.403 . S
C1553 C1554 1.392 . S
C1553 C1557 1.495 . S
C1554 C1553 1.392 . S
C1554 C1555 1.385 . S
C1554 C1556 1.478 1_554 S
C1555 H1549 0.930 . S
C1555 C1551 1.400 . S
C1555 C1554 1.385 . S
C1556 C1554 1.478 1_556 S
C1556 C1558 1.381 . S
C1556 C1562 1.383 . S
C1557 C1553 1.495 . S
C1557 H1563 0.959 . S
C1557 H1564 0.961 . S
C1557 H1565 0.960 . S
C1558 C1556 1.381 . S
C1558 C1559 1.394 . S
C1558 H1566 0.930 . S
C1559 C1558 1.394 . S
C1559 C1560 1.383 . S
C1559 H1567 0.929 . S
C1560 C1559 1.383 . S
C1560 C1561 1.377 . S
C1561 H1545 0.930 . S
C1561 C1560 1.377 . S
C1561 C1562 1.379 . S
C1562 H1546 0.931 . S
C1562 C1556 1.383 . S
C1562 C1561 1.379 . S
H1563 C1557 0.959 . S
H1564 C1557 0.961 . S
H1565 C1557 0.960 . S
H1566 C1558 0.930 . S
H1567 C1559 0.929 . S
H1568 C1576 0.929 . S
H1569 C1578 0.930 . S
H1570 C1580 0.930 . S
H1571 C1583 0.929 . S
H1572 C1586 0.930 . S
H1573 C1588 0.960 . S
H1574 C1588 0.960 . S
H1575 C1588 0.960 . S
C1576 H1568 0.929 . S
C1576 C1577 1.377 . S
C1576 C1578 1.384 . S
C1577 C1576 1.377 . S
C1577 C1583 1.390 . S
C1578 H1569 0.930 . S
C1578 C1576 1.384 . S
C1578 C1579 1.372 . S
C1579 C1578 1.372 . S
C1579 C1580 1.400 . S
C1579 C1584 1.490 . S
C1580 H1570 0.930 . S
C1580 C1579 1.400 . S
C1580 C1583 1.386 . S
H1581 C1597 0.930 . S
H1582 C1598 0.931 . S
C1583 H1571 0.929 . S
C1583 C1577 1.390 . S
C1583 C1580 1.386 . S
C1584 C1579 1.490 . S
C1584 C1586 1.395 . S
C1584 C1587 1.403 . S
H1585 C1591 0.930 . S
C1586 H1572 0.930 . S
C1586 C1584 1.395 . S
C1586 C1589 1.403 . S
C1587 C1584 1.403 . S
C1587 C1588 1.524 . S
C1587 C1591 1.400 . S
C1588 H1573 0.960 . S
C1588 H1574 0.960 . S
C1588 H1575 0.960 . S
C1588 C1587 1.524 . S
C1589 C1586 1.403 . S
C1589 C1590 1.392 . S
C1589 C1593 1.495 . S
C1590 C1589 1.392 . S
C1590 C1591 1.385 . S
C1590 C1592 1.478 . S
C1591 H1585 0.930 . S
C1591 C1587 1.400 . S
C1591 C1590 1.385 . S
C1592 C1590 1.478 . S
C1592 C1594 1.381 . S
C1592 C1598 1.383 . S
C1593 C1589 1.495 . S
C1593 H1599 0.959 . S
C1593 H1600 0.961 . S
C1593 H1601 0.960 . S
C1594 C1592 1.381 . S
C1594 C1595 1.394 . S
C1594 H1602 0.930 . S
C1595 C1594 1.394 . S
C1595 C1596 1.383 . S
C1595 H1603 0.929 . S
C1596 C1595 1.383 . S
C1596 C1597 1.377 . S
C1597 H1581 0.930 . S
C1597 C1596 1.377 . S
C1597 C1598 1.379 . S
C1598 H1582 0.931 . S
C1598 C1592 1.383 . S
C1598 C1597 1.379 . S
H1599 C1593 0.959 . S
H1600 C1593 0.961 . S
H1601 C1593 0.960 . S
H1602 C1594 0.930 . S
H1603 C1595 0.929 . S
H1604 C1612 0.929 . S
H1605 C1614 0.930 . S
H1606 C1616 0.930 . S
H1607 C1619 0.929 . S
H1608 C1622 0.930 . S
H1609 C1624 0.960 . S
H1610 C1624 0.960 . S
H1611 C1624 0.960 . S
C1612 H1604 0.929 . S
C1612 C1613 1.377 . S
C1612 C1614 1.384 . S
C1613 C1612 1.377 . S
C1613 C1619 1.390 . S
C1614 H1605 0.930 . S
C1614 C1612 1.384 . S
C1614 C1615 1.372 . S
C1615 C1614 1.372 . S
C1615 C1616 1.400 . S
C1615 C1620 1.490 . S
C1616 H1606 0.930 . S
C1616 C1615 1.400 . S
C1616 C1619 1.386 . S
H1617 C1633 0.930 . S
H1618 C1634 0.931 . S
C1619 H1607 0.929 . S
C1619 C1613 1.390 . S
C1619 C1616 1.386 . S
C1620 C1615 1.490 . S
C1620 C1622 1.395 . S
C1620 C1623 1.403 . S
H1621 C1627 0.930 . S
C1622 H1608 0.930 . S
C1622 C1620 1.395 . S
C1622 C1625 1.403 . S
C1623 C1620 1.403 . S
C1623 C1624 1.524 . S
C1623 C1627 1.400 . S
C1624 H1609 0.960 . S
C1624 H1610 0.960 . S
C1624 H1611 0.960 . S
C1624 C1623 1.524 . S
C1625 C1622 1.403 . S
C1625 C1626 1.392 . S
C1625 C1629 1.495 . S
C1626 C1625 1.392 . S
C1626 C1627 1.385 . S
C1626 C1628 1.478 . S
C1627 H1621 0.930 . S
C1627 C1623 1.400 . S
C1627 C1626 1.385 . S
C1628 C1626 1.478 . S
C1628 C1630 1.381 . S
C1628 C1634 1.383 . S
C1629 C1625 1.495 . S
C1629 H1635 0.959 . S
C1629 H1636 0.961 . S
C1629 H1637 0.960 . S
C1630 C1628 1.381 . S
C1630 C1631 1.394 . S
C1630 H1638 0.930 . S
C1631 C1630 1.394 . S
C1631 C1632 1.383 . S
C1631 H1639 0.929 . S
C1632 C1631 1.383 . S
C1632 C1633 1.377 . S
C1633 H1617 0.930 . S
C1633 C1632 1.377 . S
C1633 C1634 1.379 . S
C1634 H1618 0.931 . S
C1634 C1628 1.383 . S
C1634 C1633 1.379 . S
H1635 C1629 0.959 . S
H1636 C1629 0.961 . S
H1637 C1629 0.960 . S
H1638 C1630 0.930 . S
H1639 C1631 0.929 . S
H1640 C1648 0.929 . S
H1641 C1650 0.930 . S
H1642 C1652 0.930 . S
H1643 C1655 0.929 . S
H1644 C1658 0.930 . S
H1645 C1660 0.960 . S
H1646 C1660 0.960 . S
H1647 C1660 0.960 . S
C1648 H1640 0.929 . S
C1648 C1649 1.377 . S
C1648 C1650 1.384 . S
C1649 C1648 1.377 . S
C1649 C1655 1.390 . S
C1650 H1641 0.930 . S
C1650 C1648 1.384 . S
C1650 C1651 1.372 . S
C1651 C1650 1.372 . S
C1651 C1652 1.400 . S
C1651 C1656 1.490 . S
C1652 H1642 0.930 . S
C1652 C1651 1.400 . S
C1652 C1655 1.386 . S
H1653 C1669 0.930 . S
H1654 C1670 0.931 . S
C1655 H1643 0.929 . S
C1655 C1649 1.390 . S
C1655 C1652 1.386 . S
C1656 C1651 1.490 . S
C1656 C1658 1.395 . S
C1656 C1659 1.403 . S
H1657 C1663 0.930 . S
C1658 H1644 0.930 . S
C1658 C1656 1.395 . S
C1658 C1661 1.403 . S
C1659 C1656 1.403 . S
C1659 C1660 1.524 . S
C1659 C1663 1.400 . S
C1660 H1645 0.960 . S
C1660 H1646 0.960 . S
C1660 H1647 0.960 . S
C1660 C1659 1.524 . S
C1661 C1658 1.403 . S
C1661 C1662 1.392 . S
C1661 C1665 1.495 . S
C1662 C1661 1.392 . S
C1662 C1663 1.385 . S
C1662 C1664 1.478 . S
C1663 H1657 0.930 . S
C1663 C1659 1.400 . S
C1663 C1662 1.385 . S
C1664 C1662 1.478 . S
C1664 C1666 1.381 . S
C1664 C1670 1.383 . S
C1665 C1661 1.495 . S
C1665 H1671 0.959 . S
C1665 H1672 0.961 . S
C1665 H1673 0.960 . S
C1666 C1664 1.381 . S
C1666 C1667 1.394 . S
C1666 H1674 0.930 . S
C1667 C1666 1.394 . S
C1667 C1668 1.383 . S
C1667 H1675 0.929 . S
C1668 C1667 1.383 . S
C1668 C1669 1.377 . S
C1669 H1653 0.930 . S
C1669 C1668 1.377 . S
C1669 C1670 1.379 . S
C1670 H1654 0.931 . S
C1670 C1664 1.383 . S
C1670 C1669 1.379 . S
H1671 C1665 0.959 . S
H1672 C1665 0.961 . S
H1673 C1665 0.960 . S
H1674 C1666 0.930 . S
H1675 C1667 0.929 . S
H1676 C1684 0.929 . S
H1677 C1686 0.930 . S
H1678 C1688 0.930 . S
H1679 C1691 0.929 . S
H1680 C1694 0.930 . S
H1681 C1696 0.960 . S
H1682 C1696 0.960 . S
H1683 C1696 0.960 . S
C1684 H1676 0.929 . S
C1684 C1685 1.377 . S
C1684 C1686 1.384 . S
C1685 C1684 1.377 . S
C1685 C1691 1.390 . S
C1686 H1677 0.930 . S
C1686 C1684 1.384 . S
C1686 C1687 1.372 . S
C1687 C1686 1.372 . S
C1687 C1688 1.400 . S
C1687 C1692 1.490 . S
C1688 H1678 0.930 . S
C1688 C1687 1.400 . S
C1688 C1691 1.386 . S
H1689 C1705 0.930 . S
H1690 C1706 0.931 . S
C1691 H1679 0.929 . S
C1691 C1685 1.390 . S
C1691 C1688 1.386 . S
C1692 C1687 1.490 . S
C1692 C1694 1.395 . S
C1692 C1695 1.403 . S
H1693 C1699 0.930 . S
C1694 H1680 0.930 . S
C1694 C1692 1.395 . S
C1694 C1697 1.403 . S
C1695 C1692 1.403 . S
C1695 C1696 1.524 . S
C1695 C1699 1.400 . S
C1696 H1681 0.960 . S
C1696 H1682 0.960 . S
C1696 H1683 0.960 . S
C1696 C1695 1.524 . S
C1697 C1694 1.403 . S
C1697 C1698 1.392 . S
C1697 C1701 1.495 . S
C1698 C1697 1.392 . S
C1698 C1699 1.385 . S
C1698 C1700 1.478 1_554 S
C1699 H1693 0.930 . S
C1699 C1695 1.400 . S
C1699 C1698 1.385 . S
C1700 C1698 1.478 1_556 S
C1700 C1702 1.381 . S
C1700 C1706 1.383 . S
C1701 C1697 1.495 . S
C1701 H1707 0.959 . S
C1701 H1708 0.961 . S
C1701 H1709 0.960 . S
C1702 C1700 1.381 . S
C1702 C1703 1.394 . S
C1702 H1710 0.930 . S
C1703 C1702 1.394 . S
C1703 C1704 1.383 . S
C1703 H1711 0.929 . S
C1704 C1703 1.383 . S
C1704 C1705 1.377 . S
C1705 H1689 0.930 . S
C1705 C1704 1.377 . S
C1705 C1706 1.379 . S
C1706 H1690 0.931 . S
C1706 C1700 1.383 . S
C1706 C1705 1.379 . S
H1707 C1701 0.959 . S
H1708 C1701 0.961 . S
H1709 C1701 0.960 . S
H1710 C1702 0.930 . S
H1711 C1703 0.929 . S
H1712 C1720 0.929 . S
H1713 C1722 0.930 . S
H1714 C1724 0.930 . S
H1715 C1727 0.929 . S
H1716 C1730 0.930 . S
H1717 C1732 0.960 . S
H1718 C1732 0.960 . S
H1719 C1732 0.960 . S
C1720 H1712 0.929 . S
C1720 C1721 1.377 . S
C1720 C1722 1.384 . S
C1721 C1720 1.377 . S
C1721 C1727 1.390 . S
C1722 H1713 0.930 . S
C1722 C1720 1.384 . S
C1722 C1723 1.372 . S
C1723 C1722 1.372 . S
C1723 C1724 1.400 . S
C1723 C1728 1.490 . S
C1724 H1714 0.930 . S
C1724 C1723 1.400 . S
C1724 C1727 1.386 . S
H1725 C1741 0.930 . S
H1726 C1742 0.931 . S
C1727 H1715 0.929 . S
C1727 C1721 1.390 . S
C1727 C1724 1.386 . S
C1728 C1723 1.490 . S
C1728 C1730 1.395 . S
C1728 C1731 1.403 . S
H1729 C1735 0.930 . S
C1730 H1716 0.930 . S
C1730 C1728 1.395 . S
C1730 C1733 1.403 . S
C1731 C1728 1.403 . S
C1731 C1732 1.524 . S
C1731 C1735 1.400 . S
C1732 H1717 0.960 . S
C1732 H1718 0.960 . S
C1732 H1719 0.960 . S
C1732 C1731 1.524 . S
C1733 C1730 1.403 . S
C1733 C1734 1.392 . S
C1733 C1737 1.495 . S
C1734 C1733 1.392 . S
C1734 C1735 1.385 . S
C1734 C1736 1.478 . S
C1735 H1729 0.930 . S
C1735 C1731 1.400 . S
C1735 C1734 1.385 . S
C1736 C1734 1.478 . S
C1736 C1738 1.381 . S
C1736 C1742 1.383 . S
C1737 C1733 1.495 . S
C1737 H1743 0.959 . S
C1737 H1744 0.961 . S
C1737 H1745 0.960 . S
C1738 C1736 1.381 . S
C1738 C1739 1.394 . S
C1738 H1746 0.930 . S
C1739 C1738 1.394 . S
C1739 C1740 1.383 . S
C1739 H1747 0.929 . S
C1740 C1739 1.383 . S
C1740 C1741 1.377 . S
C1741 H1725 0.930 . S
C1741 C1740 1.377 . S
C1741 C1742 1.379 . S
C1742 H1726 0.931 . S
C1742 C1736 1.383 . S
C1742 C1741 1.379 . S
H1743 C1737 0.959 . S
H1744 C1737 0.961 . S
H1745 C1737 0.960 . S
H1746 C1738 0.930 . S
H1747 C1739 0.929 . S
H1748 C1756 0.929 . S
H1749 C1758 0.930 . S
H1750 C1760 0.930 . S
H1751 C1763 0.929 . S
H1752 C1766 0.930 . S
H1753 C1768 0.960 . S
H1754 C1768 0.960 . S
H1755 C1768 0.960 . S
C1756 H1748 0.929 . S
C1756 C1757 1.377 . S
C1756 C1758 1.384 . S
C1757 C1756 1.377 . S
C1757 C1763 1.390 . S
C1758 H1749 0.930 . S
C1758 C1756 1.384 . S
C1758 C1759 1.372 . S
C1759 C1758 1.372 . S
C1759 C1760 1.400 . S
C1759 C1764 1.490 . S
C1760 H1750 0.930 . S
C1760 C1759 1.400 . S
C1760 C1763 1.386 . S
H1761 C1777 0.930 . S
H1762 C1778 0.931 . S
C1763 H1751 0.929 . S
C1763 C1757 1.390 . S
C1763 C1760 1.386 . S
C1764 C1759 1.490 . S
C1764 C1766 1.395 . S
C1764 C1767 1.403 . S
H1765 C1771 0.930 . S
C1766 H1752 0.930 . S
C1766 C1764 1.395 . S
C1766 C1769 1.403 . S
C1767 C1764 1.403 . S
C1767 C1768 1.524 . S
C1767 C1771 1.400 . S
C1768 H1753 0.960 . S
C1768 H1754 0.960 . S
C1768 H1755 0.960 . S
C1768 C1767 1.524 . S
C1769 C1766 1.403 . S
C1769 C1770 1.392 . S
C1769 C1773 1.495 . S
C1770 C1769 1.392 . S
C1770 C1771 1.385 . S
C1770 C1772 1.478 . S
C1771 H1765 0.930 . S
C1771 C1767 1.400 . S
C1771 C1770 1.385 . S
C1772 C1770 1.478 . S
C1772 C1774 1.381 . S
C1772 C1778 1.383 . S
C1773 C1769 1.495 . S
C1773 H1779 0.959 . S
C1773 H1780 0.961 . S
C1773 H1781 0.960 . S
C1774 C1772 1.381 . S
C1774 C1775 1.394 . S
C1774 H1782 0.930 . S
C1775 C1774 1.394 . S
C1775 C1776 1.383 . S
C1775 H1783 0.929 . S
C1776 C1775 1.383 . S
C1776 C1777 1.377 . S
C1777 H1761 0.930 . S
C1777 C1776 1.377 . S
C1777 C1778 1.379 . S
C1778 H1762 0.931 . S
C1778 C1772 1.383 . S
C1778 C1777 1.379 . S
H1779 C1773 0.959 . S
H1780 C1773 0.961 . S
H1781 C1773 0.960 . S
H1782 C1774 0.930 . S
H1783 C1775 0.929 . S
H1784 C1792 0.929 . S
H1785 C1794 0.930 . S
H1786 C1796 0.930 . S
H1787 C1799 0.929 . S
H1788 C1802 0.930 . S
H1789 C1804 0.960 . S
H1790 C1804 0.960 . S
H1791 C1804 0.960 . S
C1792 H1784 0.929 . S
C1792 C1793 1.377 . S
C1792 C1794 1.384 . S
C1793 C1792 1.377 . S
C1793 C1799 1.390 . S
C1794 H1785 0.930 . S
C1794 C1792 1.384 . S
C1794 C1795 1.372 . S
C1795 C1794 1.372 . S
C1795 C1796 1.400 . S
C1795 C1800 1.490 . S
C1796 H1786 0.930 . S
C1796 C1795 1.400 . S
C1796 C1799 1.386 . S
H1797 C1813 0.930 . S
H1798 C1814 0.931 . S
C1799 H1787 0.929 . S
C1799 C1793 1.390 . S
C1799 C1796 1.386 . S
C1800 C1795 1.490 . S
C1800 C1802 1.395 . S
C1800 C1803 1.403 . S
H1801 C1807 0.930 . S
C1802 H1788 0.930 . S
C1802 C1800 1.395 . S
C1802 C1805 1.403 . S
C1803 C1800 1.403 . S
C1803 C1804 1.524 . S
C1803 C1807 1.400 . S
C1804 H1789 0.960 . S
C1804 H1790 0.960 . S
C1804 H1791 0.960 . S
C1804 C1803 1.524 . S
C1805 C1802 1.403 . S
C1805 C1806 1.392 . S
C1805 C1809 1.495 . S
C1806 C1805 1.392 . S
C1806 C1807 1.385 . S
C1806 C1808 1.478 . S
C1807 H1801 0.930 . S
C1807 C1803 1.400 . S
C1807 C1806 1.385 . S
C1808 C1806 1.478 . S
C1808 C1810 1.381 . S
C1808 C1814 1.383 . S
C1809 C1805 1.495 . S
C1809 H1815 0.959 . S
C1809 H1816 0.961 . S
C1809 H1817 0.960 . S
C1810 C1808 1.381 . S
C1810 C1811 1.394 . S
C1810 H1818 0.930 . S
C1811 C1810 1.394 . S
C1811 C1812 1.383 . S
C1811 H1819 0.929 . S
C1812 C1811 1.383 . S
C1812 C1813 1.377 . S
C1813 H1797 0.930 . S
C1813 C1812 1.377 . S
C1813 C1814 1.379 . S
C1814 H1798 0.931 . S
C1814 C1808 1.383 . S
C1814 C1813 1.379 . S
H1815 C1809 0.959 . S
H1816 C1809 0.961 . S
H1817 C1809 0.960 . S
H1818 C1810 0.930 . S
H1819 C1811 0.929 . S
H1820 C1828 0.929 . S
H1821 C1830 0.930 . S
H1822 C1832 0.930 . S
H1823 C1835 0.929 . S
H1824 C1838 0.930 . S
H1825 C1840 0.960 . S
H1826 C1840 0.960 . S
H1827 C1840 0.960 . S
C1828 H1820 0.929 . S
C1828 C1829 1.377 . S
C1828 C1830 1.384 . S
C1829 C1828 1.377 . S
C1829 C1835 1.390 . S
C1830 H1821 0.930 . S
C1830 C1828 1.384 . S
C1830 C1831 1.372 . S
C1831 C1830 1.372 . S
C1831 C1832 1.400 . S
C1831 C1836 1.490 1_556 S
C1832 H1822 0.930 . S
C1832 C1831 1.400 . S
C1832 C1835 1.386 . S
H1833 C1849 0.930 . S
H1834 C1850 0.931 . S
C1835 H1823 0.929 . S
C1835 C1829 1.390 . S
C1835 C1832 1.386 . S
C1836 C1831 1.490 1_554 S
C1836 C1838 1.395 . S
C1836 C1839 1.403 . S
H1837 C1843 0.930 . S
C1838 H1824 0.930 . S
C1838 C1836 1.395 . S
C1838 C1841 1.403 . S
C1839 C1836 1.403 . S
C1839 C1840 1.524 . S
C1839 C1843 1.400 . S
C1840 H1825 0.960 . S
C1840 H1826 0.960 . S
C1840 H1827 0.960 . S
C1840 C1839 1.524 . S
C1841 C1838 1.403 . S
C1841 C1842 1.392 . S
C1841 C1845 1.495 . S
C1842 C1841 1.392 . S
C1842 C1843 1.385 . S
C1842 C1844 1.478 . S
C1843 H1837 0.930 . S
C1843 C1839 1.400 . S
C1843 C1842 1.385 . S
C1844 C1842 1.478 . S
C1844 C1846 1.381 . S
C1844 C1850 1.383 . S
C1845 C1841 1.495 . S
C1845 H1851 0.959 . S
C1845 H1852 0.961 . S
C1845 H1853 0.960 . S
C1846 C1844 1.381 . S
C1846 C1847 1.394 . S
C1846 H1854 0.930 . S
C1847 C1846 1.394 . S
C1847 C1848 1.383 . S
C1847 H1855 0.929 . S
C1848 C1847 1.383 . S
C1848 C1849 1.377 . S
C1849 H1833 0.930 . S
C1849 C1848 1.377 . S
C1849 C1850 1.379 . S
C1850 H1834 0.931 . S
C1850 C1844 1.383 . S
C1850 C1849 1.379 . S
H1851 C1845 0.959 . S
H1852 C1845 0.961 . S
H1853 C1845 0.960 . S
H1854 C1846 0.930 . S
H1855 C1847 0.929 . S
H1856 C1864 0.929 . S
H1857 C1866 0.930 . S
H1858 C1868 0.930 . S
H1859 C1871 0.929 . S
H1860 C1874 0.930 . S
H1861 C1876 0.960 . S
H1862 C1876 0.960 . S
H1863 C1876 0.960 . S
C1864 H1856 0.929 . S
C1864 C1865 1.377 . S
C1864 C1866 1.384 . S
C1865 C1864 1.377 . S
C1865 C1871 1.390 1_565 S
C1866 H1857 0.930 . S
C1866 C1864 1.384 . S
C1866 C1867 1.372 . S
C1867 C1866 1.372 . S
C1867 C1868 1.400 1_565 S
C1867 C1872 1.490 . S
C1868 H1858 0.930 . S
C1868 C1867 1.400 1_545 S
C1868 C1871 1.386 . S
H1869 C1885 0.930 . S
H1870 C1886 0.931 . S
C1871 H1859 0.929 . S
C1871 C1865 1.390 1_545 S
C1871 C1868 1.386 . S
C1872 C1867 1.490 . S
C1872 C1874 1.395 . S
C1872 C1875 1.403 1_565 S
H1873 C1879 0.930 . S
C1874 H1860 0.930 . S
C1874 C1872 1.395 . S
C1874 C1877 1.403 . S
C1875 C1872 1.403 1_545 S
C1875 C1876 1.524 . S
C1875 C1879 1.400 . S
C1876 H1861 0.960 . S
C1876 H1862 0.960 . S
C1876 H1863 0.960 . S
C1876 C1875 1.524 . S
C1877 C1874 1.403 . S
C1877 C1878 1.400 1_565 S
C1877 C1881 1.495 . S
C1878 C1877 1.400 1_545 S
C1878 C1879 1.379 . S
C1878 C1880 1.476 . S
C1879 H1873 0.930 . S
C1879 C1875 1.400 . S
C1879 C1878 1.379 . S
C1880 C1878 1.476 . S
C1880 C1882 1.381 1_545 S
C1880 C1886 1.383 . S
C1881 C1877 1.495 . S
C1881 H1887 0.959 . S
C1881 H1888 0.961 . S
C1881 H1889 0.960 . S
C1882 C1880 1.381 1_565 S
C1882 C1883 1.394 . S
C1882 H1890 0.930 . S
C1883 C1882 1.394 . S
C1883 C1884 1.383 1_565 S
C1883 H1891 0.929 . S
C1884 C1883 1.383 1_545 S
C1884 C1885 1.377 . S
C1885 H1869 0.930 . S
C1885 C1884 1.377 . S
C1885 C1886 1.379 . S
C1886 H1870 0.931 . S
C1886 C1880 1.383 . S
C1886 C1885 1.379 . S
H1887 C1881 0.959 . S
H1888 C1881 0.961 . S
H1889 C1881 0.960 . S
H1890 C1882 0.930 . S
H1891 C1883 0.929 . S
H1892 C1900 0.929 . S
H1893 C1902 0.930 . S
H1894 C1904 0.930 . S
H1895 C1907 0.929 . S
H1896 C1910 0.930 . S
H1897 C1912 0.960 . S
H1898 C1912 0.960 . S
H1899 C1912 0.960 . S
C1900 H1892 0.929 . S
C1900 C1901 1.377 . S
C1900 C1902 1.384 . S
C1901 C1900 1.377 . S
C1901 C1907 1.390 . S
C1902 H1893 0.930 . S
C1902 C1900 1.384 . S
C1902 C1903 1.372 . S
C1903 C1902 1.372 . S
C1903 C1904 1.400 . S
C1903 C1908 1.490 . S
C1904 H1894 0.930 . S
C1904 C1903 1.400 . S
C1904 C1907 1.386 . S
H1905 C1921 0.930 . S
H1906 C1922 0.931 . S
C1907 H1895 0.929 . S
C1907 C1901 1.390 . S
C1907 C1904 1.386 . S
C1908 C1903 1.490 . S
C1908 C1910 1.395 . S
C1908 C1911 1.403 . S
H1909 C1915 0.930 . S
C1910 H1896 0.930 . S
C1910 C1908 1.395 . S
C1910 C1913 1.403 . S
C1911 C1908 1.403 . S
C1911 C1912 1.524 . S
C1911 C1915 1.400 . S
C1912 H1897 0.960 . S
C1912 H1898 0.960 . S
C1912 H1899 0.960 . S
C1912 C1911 1.524 . S
C1913 C1910 1.403 . S
C1913 C1914 1.392 . S
C1913 C1917 1.495 . S
C1914 C1913 1.392 . S
C1914 C1915 1.385 . S
C1914 C1916 1.478 1_554 S
C1915 H1909 0.930 . S
C1915 C1911 1.400 . S
C1915 C1914 1.385 . S
C1916 C1914 1.478 1_556 S
C1916 C1918 1.381 . S
C1916 C1922 1.383 . S
C1917 C1913 1.495 . S
C1917 H1923 0.959 . S
C1917 H1924 0.961 . S
C1917 H1925 0.960 . S
C1918 C1916 1.381 . S
C1918 C1919 1.394 . S
C1918 H1926 0.930 . S
C1919 C1918 1.394 . S
C1919 C1920 1.383 . S
C1919 H1927 0.929 . S
C1920 C1919 1.383 . S
C1920 C1921 1.377 . S
C1921 H1905 0.930 . S
C1921 C1920 1.377 . S
C1921 C1922 1.379 . S
C1922 H1906 0.931 . S
C1922 C1916 1.383 . S
C1922 C1921 1.379 . S
H1923 C1917 0.959 . S
H1924 C1917 0.961 . S
H1925 C1917 0.960 . S
H1926 C1918 0.930 . S
H1927 C1919 0.929 . S
H1928 C1936 0.907 1_545 S
H1929 C1938 0.930 . S
H1930 C1940 0.930 . S
H1931 C1943 0.929 . S
H1932 C1946 0.930 . S
H1933 C1948 0.960 . S
H1934 C1948 0.960 . S
H1935 C1948 0.960 . S
C1936 H1928 0.907 1_565 S
C1936 C1937 1.410 . S
C1936 C1938 1.375 1_565 S
C1937 C1936 1.410 . S
C1937 C1943 1.390 . S
C1938 H1929 0.930 . S
C1938 C1936 1.375 1_545 S
C1938 C1939 1.372 1_545 S
C1939 C1938 1.372 1_565 S
C1939 C1940 1.400 . S
C1939 C1944 1.490 . S
C1940 H1930 0.930 . S
C1940 C1939 1.400 . S
C1940 C1943 1.386 . S
H1941 C1957 0.930 1_565 S
H1942 C1958 0.931 1_565 S
C1943 H1931 0.929 . S
C1943 C1937 1.390 . S
C1943 C1940 1.386 . S
C1944 C1939 1.490 . S
C1944 C1946 1.395 1_565 S
C1944 C1947 1.403 . S
H1945 C1951 0.930 . S
C1946 H1932 0.930 . S
C1946 C1944 1.395 1_545 S
C1946 C1949 1.403 . S
C1947 C1944 1.403 . S
C1947 C1948 1.524 . S
C1947 C1951 1.400 . S
C1948 H1933 0.960 . S
C1948 H1934 0.960 . S
C1948 H1935 0.960 . S
C1948 C1947 1.524 . S
C1949 C1946 1.403 . S
C1949 C1950 1.392 . S
C1949 C1953 1.495 . S
C1950 C1949 1.392 . S
C1950 C1951 1.385 1_545 S
C1950 C1952 1.478 . S
C1951 H1945 0.930 . S
C1951 C1947 1.400 . S
C1951 C1950 1.385 1_565 S
C1952 C1950 1.478 . S
C1952 C1954 1.381 . S
C1952 C1958 1.383 . S
C1953 C1949 1.495 . S
C1953 H1959 0.959 . S
C1953 H1960 0.961 . S
C1953 H1961 0.960 . S
C1954 C1952 1.381 . S
C1954 C1955 1.394 . S
C1954 H1962 0.930 . S
C1955 C1954 1.394 . S
C1955 C1956 1.383 . S
C1955 H1963 0.929 . S
C1956 C1955 1.383 . S
C1956 C1957 1.377 . S
C1957 H1941 0.930 1_545 S
C1957 C1956 1.377 . S
C1957 C1958 1.379 . S
C1958 H1942 0.931 1_545 S
C1958 C1952 1.383 . S
C1958 C1957 1.379 . S
H1959 C1953 0.959 . S
H1960 C1953 0.961 . S
H1961 C1953 0.960 . S
H1962 C1954 0.930 . S
H1963 C1955 0.929 . S
H1964 C1972 0.929 . S
H1965 C1974 0.930 . S
H1966 C1976 0.930 . S
H1967 C1979 0.929 . S
H1968 C1982 0.930 . S
H1969 C1984 0.960 . S
H1970 C1984 0.960 . S
H1971 C1984 0.960 . S
C1972 H1964 0.929 . S
C1972 C1973 1.377 . S
C1972 C1974 1.384 . S
C1973 C1972 1.377 . S
C1973 C1979 1.390 . S
C1974 H1965 0.930 . S
C1974 C1972 1.384 . S
C1974 C1975 1.372 . S
C1975 C1974 1.372 . S
C1975 C1976 1.400 . S
C1975 C1980 1.490 . S
C1976 H1966 0.930 . S
C1976 C1975 1.400 . S
C1976 C1979 1.386 . S
H1977 C1993 0.930 . S
H1978 C1994 0.931 . S
C1979 H1967 0.929 . S
C1979 C1973 1.390 . S
C1979 C1976 1.386 . S
C1980 C1975 1.490 . S
C1980 C1982 1.395 . S
C1980 C1983 1.403 . S
H1981 C1987 0.930 . S
C1982 H1968 0.930 . S
C1982 C1980 1.395 . S
C1982 C1985 1.403 . S
C1983 C1980 1.403 . S
C1983 C1984 1.524 . S
C1983 C1987 1.400 . S
C1984 H1969 0.960 . S
C1984 H1970 0.960 . S
C1984 H1971 0.960 . S
C1984 C1983 1.524 . S
C1985 C1982 1.403 . S
C1985 C1986 1.392 . S
C1985 C1989 1.495 . S
C1986 C1985 1.392 . S
C1986 C1987 1.385 . S
C1986 C1988 1.478 . S
C1987 H1981 0.930 . S
C1987 C1983 1.400 . S
C1987 C1986 1.385 . S
C1988 C1986 1.478 . S
C1988 C1990 1.381 . S
C1988 C1994 1.383 . S
C1989 C1985 1.495 . S
C1989 H1995 0.959 . S
C1989 H1996 0.961 . S
C1989 H1997 0.960 . S
C1990 C1988 1.381 . S
C1990 C1991 1.394 . S
C1990 H1998 0.930 . S
C1991 C1990 1.394 . S
C1991 C1992 1.383 . S
C1991 H1999 0.929 . S
C1992 C1991 1.383 . S
C1992 C1993 1.377 . S
C1993 H1977 0.930 . S
C1993 C1992 1.377 . S
C1993 C1994 1.379 . S
C1994 H1978 0.931 . S
C1994 C1988 1.383 . S
C1994 C1993 1.379 . S
H1995 C1989 0.959 . S
H1996 C1989 0.961 . S
H1997 C1989 0.960 . S
H1998 C1990 0.930 . S
H1999 C1991 0.929 . S
H2000 C2008 0.929 . S
H2001 C2010 0.930 . S
H2002 C2012 0.930 . S
H2003 C2015 0.929 . S
H2004 C2018 0.930 . S
H2005 C2020 0.960 . S
H2006 C2020 0.929 1_545 S
H2007 C2020 0.960 . S
C2008 H2000 0.929 . S
C2008 C2009 1.377 1_545 S
C2008 C2010 1.384 . S
C2009 C2008 1.377 1_565 S
C2009 C2015 1.390 . S
C2010 H2001 0.930 . S
C2010 C2008 1.384 . S
C2010 C2011 1.372 1_545 S
C2011 C2010 1.372 1_565 S
C2011 C2012 1.400 . S
C2011 C2016 1.490 . S
C2012 H2002 0.930 . S
C2012 C2011 1.400 . S
C2012 C2015 1.386 . S
H2013 C2029 0.930 . S
H2014 C2030 0.931 . S
C2015 H2003 0.929 . S
C2015 C2009 1.390 . S
C2015 C2012 1.386 . S
C2016 C2011 1.490 . S
C2016 C2018 1.395 1_565 S
C2016 C2019 1.403 . S
H2017 C2023 0.932 . S
C2018 H2004 0.930 . S
C2018 C2016 1.395 1_545 S
C2018 C2021 1.403 . S
C2019 C2016 1.403 . S
C2019 C2020 1.524 . S
C2019 C2023 1.402 . S
C2020 H2005 0.960 . S
C2020 H2006 0.929 1_565 S
C2020 H2007 0.960 . S
C2020 C2019 1.524 . S
C2021 C2018 1.403 . S
C2021 C2022 1.392 . S
C2021 C2025 1.495 . S
C2022 C2021 1.392 . S
C2022 C2023 1.381 1_545 S
C2022 C2024 1.478 . S
C2023 H2017 0.932 . S
C2023 C2019 1.402 . S
C2023 C2022 1.381 1_565 S
C2024 C2022 1.478 . S
C2024 C2026 1.381 . S
C2024 C2030 1.383 1_545 S
C2025 C2021 1.495 . S
C2025 H2031 0.959 . S
C2025 H2032 0.961 . S
C2025 H2033 0.960 . S
C2026 C2024 1.381 . S
C2026 C2027 1.394 . S
C2026 H2034 0.930 . S
C2027 C2026 1.394 . S
C2027 C2028 1.383 . S
C2027 H2035 0.929 . S
C2028 C2027 1.383 . S
C2028 C2029 1.377 1_545 S
C2029 H2013 0.930 . S
C2029 C2028 1.377 1_565 S
C2029 C2030 1.379 . S
C2030 H2014 0.931 . S
C2030 C2024 1.383 1_565 S
C2030 C2029 1.379 . S
H2031 C2025 0.959 . S
H2032 C2025 0.961 . S
H2033 C2025 0.960 . S
H2034 C2026 0.930 . S
H2035 C2027 0.929 . S
H2036 C2044 0.929 . S
H2037 C2046 0.930 . S
H2038 C2048 0.930 . S
H2039 C2051 0.929 . S
H2040 C2054 0.930 . S
H2041 C2056 0.960 . S
H2042 C2056 0.960 . S
H2043 C2056 0.960 . S
C2044 H2036 0.929 . S
C2044 C2045 1.377 . S
C2044 C2046 1.384 . S
C2045 C2044 1.377 . S
C2045 C2051 1.390 . S
C2046 H2037 0.930 . S
C2046 C2044 1.384 . S
C2046 C2047 1.372 . S
C2047 C2046 1.372 . S
C2047 C2048 1.400 . S
C2047 C2052 1.490 . S
C2048 H2038 0.930 . S
C2048 C2047 1.400 . S
C2048 C2051 1.386 . S
H2049 C2065 0.930 . S
H2050 C2066 0.931 . S
C2051 H2039 0.929 . S
C2051 C2045 1.390 . S
C2051 C2048 1.386 . S
C2052 C2047 1.490 . S
C2052 C2054 1.395 . S
C2052 C2055 1.403 . S
H2053 C2059 0.930 . S
C2054 H2040 0.930 . S
C2054 C2052 1.395 . S
C2054 C2057 1.403 . S
C2055 C2052 1.403 . S
C2055 C2056 1.524 . S
C2055 C2059 1.400 . S
C2056 H2041 0.960 . S
C2056 H2042 0.960 . S
C2056 H2043 0.960 . S
C2056 C2055 1.524 . S
C2057 C2054 1.403 . S
C2057 C2058 1.392 . S
C2057 C2061 1.495 . S
C2058 C2057 1.392 . S
C2058 C2059 1.385 . S
C2058 C2060 1.478 1_554 S
C2059 H2053 0.930 . S
C2059 C2055 1.400 . S
C2059 C2058 1.385 . S
C2060 C2058 1.478 1_556 S
C2060 C2062 1.381 . S
C2060 C2066 1.383 . S
C2061 C2057 1.495 . S
C2061 H2067 0.959 . S
C2061 H2068 0.961 . S
C2061 H2069 0.960 . S
C2062 C2060 1.381 . S
C2062 C2063 1.394 . S
C2062 H2070 0.930 . S
C2063 C2062 1.394 . S
C2063 C2064 1.383 . S
C2063 H2071 0.929 . S
C2064 C2063 1.383 . S
C2064 C2065 1.377 . S
C2065 H2049 0.930 . S
C2065 C2064 1.377 . S
C2065 C2066 1.379 . S
C2066 H2050 0.931 . S
C2066 C2060 1.383 . S
C2066 C2065 1.379 . S
H2067 C2061 0.959 . S
H2068 C2061 0.961 . S
H2069 C2061 0.960 . S
H2070 C2062 0.930 . S
H2071 C2063 0.929 . S
H2072 C2080 0.929 . S
H2073 C2082 0.930 . S
H2074 C2084 0.930 . S
H2075 C2087 0.929 . S
H2076 C2090 0.930 . S
H2077 C2092 0.960 . S
H2078 C2092 0.960 . S
H2079 C2092 0.960 . S
C2080 H2072 0.929 . S
C2080 C2081 1.377 . S
C2080 C2082 1.384 . S
C2081 C2080 1.377 . S
C2081 C2087 1.390 . S
C2082 H2073 0.930 . S
C2082 C2080 1.384 . S
C2082 C2083 1.372 . S
C2083 C2082 1.372 . S
C2083 C2084 1.400 . S
C2083 C2088 1.490 . S
C2084 H2074 0.930 . S
C2084 C2083 1.400 . S
C2084 C2087 1.386 . S
H2085 C2101 0.930 . S
H2086 C2102 0.931 . S
C2087 H2075 0.929 . S
C2087 C2081 1.390 . S
C2087 C2084 1.386 . S
C2088 C2083 1.490 . S
C2088 C2090 1.395 1_565 S
C2088 C2091 1.403 . S
H2089 C2095 0.930 . S
C2090 H2076 0.930 . S
C2090 C2088 1.395 1_545 S
C2090 C2093 1.403 . S
C2091 C2088 1.403 . S
C2091 C2092 1.524 . S
C2091 C2095 1.400 . S
C2092 H2077 0.960 . S
C2092 H2078 0.960 . S
C2092 H2079 0.960 . S
C2092 C2091 1.524 . S
C2093 C2090 1.403 . S
C2093 C2094 1.392 . S
C2093 C2097 1.495 . S
C2094 C2093 1.392 . S
C2094 C2095 1.385 1_545 S
C2094 C2096 1.478 . S
C2095 H2089 0.930 . S
C2095 C2091 1.400 . S
C2095 C2094 1.385 1_565 S
C2096 C2094 1.478 . S
C2096 C2098 1.381 . S
C2096 C2102 1.383 . S
C2097 C2093 1.495 . S
C2097 H2103 0.959 . S
C2097 H2104 0.961 . S
C2097 H2105 0.960 . S
C2098 C2096 1.381 . S
C2098 C2099 1.394 . S
C2098 H2106 0.930 . S
C2099 C2098 1.394 . S
C2099 C2100 1.383 . S
C2099 H2107 0.929 . S
C2100 C2099 1.383 . S
C2100 C2101 1.377 . S
C2101 H2085 0.930 . S
C2101 C2100 1.377 . S
C2101 C2102 1.379 . S
C2102 H2086 0.931 . S
C2102 C2096 1.383 . S
C2102 C2101 1.379 . S
H2103 C2097 0.959 . S
H2104 C2097 0.961 . S
H2105 C2097 0.960 . S
H2106 C2098 0.930 . S
H2107 C2099 0.929 . S
H2108 C2116 0.929 . S
H2109 C2118 0.930 . S
H2110 C2120 0.930 . S
H2111 C2123 0.929 . S
H2112 C2126 0.930 . S
H2113 C2128 0.960 . S
H2114 C2128 0.960 . S
H2115 C2128 0.960 . S
C2116 H2108 0.929 . S
C2116 C2117 1.377 . S
C2116 C2118 1.384 . S
C2117 C2116 1.377 . S
C2117 C2123 1.390 . S
C2118 H2109 0.930 . S
C2118 C2116 1.384 . S
C2118 C2119 1.372 . S
C2119 C2118 1.372 . S
C2119 C2120 1.400 . S
C2119 C2124 1.490 . S
C2120 H2110 0.930 . S
C2120 C2119 1.400 . S
C2120 C2123 1.386 . S
H2121 C2137 0.930 . S
H2122 C2138 0.931 . S
C2123 H2111 0.929 . S
C2123 C2117 1.390 . S
C2123 C2120 1.386 . S
C2124 C2119 1.490 . S
C2124 C2126 1.395 . S
C2124 C2127 1.403 . S
H2125 C2131 0.930 . S
C2126 H2112 0.930 . S
C2126 C2124 1.395 . S
C2126 C2129 1.403 . S
C2127 C2124 1.403 . S
C2127 C2128 1.524 . S
C2127 C2131 1.400 . S
C2128 H2113 0.960 . S
C2128 H2114 0.960 . S
C2128 H2115 0.960 . S
C2128 C2127 1.524 . S
C2129 C2126 1.403 . S
C2129 C2130 1.392 . S
C2129 C2133 1.495 . S
C2130 C2129 1.392 . S
C2130 C2131 1.385 . S
C2130 C2132 1.478 . S
C2131 H2125 0.930 . S
C2131 C2127 1.400 . S
C2131 C2130 1.385 . S
C2132 C2130 1.478 . S
C2132 C2134 1.381 . S
C2132 C2138 1.383 . S
C2133 C2129 1.495 . S
C2133 H2139 0.959 . S
C2133 H2140 0.961 . S
C2133 H2141 0.960 . S
C2134 C2132 1.381 . S
C2134 C2135 1.394 . S
C2134 H2142 0.930 . S
C2135 C2134 1.394 . S
C2135 C2136 1.383 . S
C2135 H2143 0.929 . S
C2136 C2135 1.383 . S
C2136 C2137 1.377 . S
C2137 H2121 0.930 . S
C2137 C2136 1.377 . S
C2137 C2138 1.379 . S
C2138 H2122 0.931 . S
C2138 C2132 1.383 . S
C2138 C2137 1.379 . S
H2139 C2133 0.959 . S
H2140 C2133 0.961 . S
H2141 C2133 0.960 . S
H2142 C2134 0.930 . S
H2143 C2135 0.929 . S
H2144 C2152 0.929 . S
H2145 C2154 0.930 . S
H2146 C2156 0.930 . S
H2147 C2159 0.929 . S
H2148 C2162 0.930 . S
H2149 C2164 0.960 . S
H2150 C2164 0.960 . S
H2151 C2164 0.960 . S
C2152 H2144 0.929 . S
C2152 C2153 1.377 . S
C2152 C2154 1.384 . S
C2153 C2152 1.377 . S
C2153 C2159 1.390 . S
C2154 H2145 0.930 . S
C2154 C2152 1.384 . S
C2154 C2155 1.372 . S
C2155 C2154 1.372 . S
C2155 C2156 1.400 . S
C2155 C2160 1.490 . S
C2156 H2146 0.930 . S
C2156 C2155 1.400 . S
C2156 C2159 1.386 . S
H2157 C2173 0.930 . S
H2158 C2174 0.931 . S
C2159 H2147 0.929 . S
C2159 C2153 1.390 . S
C2159 C2156 1.386 . S
C2160 C2155 1.490 . S
C2160 C2162 1.395 . S
C2160 C2163 1.403 . S
H2161 C2167 0.930 . S
C2162 H2148 0.930 . S
C2162 C2160 1.395 . S
C2162 C2165 1.403 . S
C2163 C2160 1.403 . S
C2163 C2164 1.524 . S
C2163 C2167 1.400 . S
C2164 H2149 0.960 . S
C2164 H2150 0.960 . S
C2164 H2151 0.960 . S
C2164 C2163 1.524 . S
C2165 C2162 1.403 . S
C2165 C2166 1.392 . S
C2165 C2169 1.495 . S
C2166 C2165 1.392 . S
C2166 C2167 1.385 . S
C2166 C2168 1.478 . S
C2167 H2161 0.930 . S
C2167 C2163 1.400 . S
C2167 C2166 1.385 . S
C2168 C2166 1.478 . S
C2168 C2170 1.381 . S
C2168 C2174 1.383 . S
C2169 C2165 1.495 . S
C2169 H2175 0.959 . S
C2169 H2176 0.961 . S
C2169 H2177 0.960 . S
C2170 C2168 1.381 . S
C2170 C2171 1.394 . S
C2170 H2178 0.930 . S
C2171 C2170 1.394 . S
C2171 C2172 1.383 . S
C2171 H2179 0.929 . S
C2172 C2171 1.383 . S
C2172 C2173 1.377 . S
C2173 H2157 0.930 . S
C2173 C2172 1.377 . S
C2173 C2174 1.379 . S
C2174 H2158 0.931 . S
C2174 C2168 1.383 . S
C2174 C2173 1.379 . S
H2175 C2169 0.959 . S
H2176 C2169 0.961 . S
H2177 C2169 0.960 . S
H2178 C2170 0.930 . S
H2179 C2171 0.929 . S
H2180 C2188 0.929 . S
H2181 C2190 0.930 . S
H2182 C2192 0.930 . S
H2183 C2195 0.929 . S
H2184 C2198 0.930 . S
H2185 C2200 0.960 . S
H2186 C2200 0.960 . S
H2187 C2200 0.960 . S
C2188 H2180 0.929 . S
C2188 C2189 1.377 . S
C2188 C2190 1.384 . S
C2189 C2188 1.377 . S
C2189 C2195 1.390 . S
C2190 H2181 0.930 . S
C2190 C2188 1.384 . S
C2190 C2191 1.372 . S
C2191 C2190 1.372 . S
C2191 C2192 1.400 . S
C2191 C2196 1.490 . S
C2192 H2182 0.930 . S
C2192 C2191 1.400 . S
C2192 C2195 1.386 . S
H2193 C2209 0.930 . S
H2194 C2210 0.931 . S
C2195 H2183 0.929 . S
C2195 C2189 1.390 . S
C2195 C2192 1.386 . S
C2196 C2191 1.490 . S
C2196 C2198 1.395 . S
C2196 C2199 1.403 . S
H2197 C2203 0.930 . S
C2198 H2184 0.930 . S
C2198 C2196 1.395 . S
C2198 C2201 1.403 . S
C2199 C2196 1.403 . S
C2199 C2200 1.524 . S
C2199 C2203 1.400 . S
C2200 H2185 0.960 . S
C2200 H2186 0.960 . S
C2200 H2187 0.960 . S
C2200 C2199 1.524 . S
C2201 C2198 1.403 . S
C2201 C2202 1.392 . S
C2201 C2205 1.495 . S
C2202 C2201 1.392 . S
C2202 C2203 1.385 . S
C2202 C2204 1.478 . S
C2203 H2197 0.930 . S
C2203 C2199 1.400 . S
C2203 C2202 1.385 . S
C2204 C2202 1.478 . S
C2204 C2206 1.381 . S
C2204 C2210 1.383 . S
C2205 C2201 1.495 . S
C2205 H2211 0.959 . S
C2205 H2212 0.961 . S
C2205 H2213 0.960 . S
C2206 C2204 1.381 . S
C2206 C2207 1.394 . S
C2206 H2214 0.930 . S
C2207 C2206 1.394 . S
C2207 C2208 1.383 . S
C2207 H2215 0.929 . S
C2208 C2207 1.383 . S
C2208 C2209 1.377 . S
C2209 H2193 0.930 . S
C2209 C2208 1.377 . S
C2209 C2210 1.379 . S
C2210 H2194 0.931 . S
C2210 C2204 1.383 . S
C2210 C2209 1.379 . S
H2211 C2205 0.959 . S
H2212 C2205 0.961 . S
H2213 C2205 0.960 . S
H2214 C2206 0.930 . S
H2215 C2207 0.929 . S
H2216 C2224 0.929 . S
H2217 C2226 0.930 . S
H2218 C2228 0.930 . S
H2219 C2231 0.929 . S
H2220 C2234 0.930 . S
H2221 C2236 0.960 . S
H2222 C2236 0.960 . S
H2223 C2236 0.960 . S
C2224 H2216 0.929 . S
C2224 C2225 1.377 . S
C2224 C2226 1.384 . S
C2225 C2224 1.377 . S
C2225 C2231 1.390 . S
C2226 H2217 0.930 . S
C2226 C2224 1.384 . S
C2226 C2227 1.372 . S
C2227 C2226 1.372 . S
C2227 C2228 1.400 . S
C2227 C2232 1.490 . S
C2228 H2218 0.930 . S
C2228 C2227 1.400 . S
C2228 C2231 1.386 . S
H2229 C2245 0.930 . S
H2230 C2246 0.931 . S
C2231 H2219 0.929 . S
C2231 C2225 1.390 . S
C2231 C2228 1.386 . S
C2232 C2227 1.490 . S
C2232 C2234 1.395 . S
C2232 C2235 1.403 . S
H2233 C2239 0.930 . S
C2234 H2220 0.930 . S
C2234 C2232 1.395 . S
C2234 C2237 1.403 . S
C2235 C2232 1.403 . S
C2235 C2236 1.524 . S
C2235 C2239 1.400 . S
C2236 H2221 0.960 . S
C2236 H2222 0.960 . S
C2236 H2223 0.960 . S
C2236 C2235 1.524 . S
C2237 C2234 1.403 . S
C2237 C2238 1.392 . S
C2237 C2241 1.495 . S
C2238 C2237 1.392 . S
C2238 C2239 1.385 . S
C2238 C2240 1.478 . S
C2239 H2233 0.930 . S
C2239 C2235 1.400 . S
C2239 C2238 1.385 . S
C2240 C2238 1.478 . S
C2240 C2242 1.381 . S
C2240 C2246 1.383 . S
C2241 C2237 1.495 . S
C2241 H2247 0.959 . S
C2241 H2248 0.961 . S
C2241 H2249 0.960 . S
C2242 C2240 1.381 . S
C2242 C2243 1.394 . S
C2242 H2250 0.930 . S
C2243 C2242 1.394 . S
C2243 C2244 1.383 . S
C2243 H2251 0.929 . S
C2244 C2243 1.383 . S
C2244 C2245 1.377 . S
C2245 H2229 0.930 . S
C2245 C2244 1.377 . S
C2245 C2246 1.379 . S
C2246 H2230 0.931 . S
C2246 C2240 1.383 . S
C2246 C2245 1.379 . S
H2247 C2241 0.959 . S
H2248 C2241 0.961 . S
H2249 C2241 0.960 . S
H2250 C2242 0.930 . S
H2251 C2243 0.929 . S
H2252 C2260 0.929 . S
H2253 C2262 0.930 . S
H2254 C2264 0.930 . S
H2255 C2267 0.929 . S
H2256 C2270 0.930 . S
H2257 C2272 0.960 . S
H2258 C2272 0.960 . S
H2259 C2272 0.960 . S
C2260 H2252 0.929 . S
C2260 C2261 1.377 . S
C2260 C2262 1.384 . S
C2261 C2260 1.377 . S
C2261 C2267 1.390 . S
C2262 H2253 0.930 . S
C2262 C2260 1.384 . S
C2262 C2263 1.372 . S
C2263 C2262 1.372 . S
C2263 C2264 1.400 . S
C2263 C2268 1.490 . S
C2264 H2254 0.930 . S
C2264 C2263 1.400 . S
C2264 C2267 1.386 . S
H2265 C2281 0.930 . S
H2266 C2282 0.931 . S
C2267 H2255 0.929 . S
C2267 C2261 1.390 . S
C2267 C2264 1.386 . S
C2268 C2263 1.490 . S
C2268 C2270 1.395 . S
C2268 C2271 1.403 . S
H2269 C2275 0.930 . S
C2270 H2256 0.930 . S
C2270 C2268 1.395 . S
C2270 C2273 1.403 . S
C2271 C2268 1.403 . S
C2271 C2272 1.524 . S
C2271 C2275 1.400 . S
C2272 H2257 0.960 . S
C2272 H2258 0.960 . S
C2272 H2259 0.960 . S
C2272 C2271 1.524 . S
C2273 C2270 1.403 . S
C2273 C2274 1.392 . S
C2273 C2277 1.495 1_556 S
C2274 C2273 1.392 . S
C2274 C2275 1.385 . S
C2274 C2276 1.478 . S
C2275 H2269 0.930 . S
C2275 C2271 1.400 . S
C2275 C2274 1.385 . S
C2276 C2274 1.478 . S
C2276 C2278 1.381 . S
C2276 C2282 1.383 . S
C2277 C2273 1.495 1_554 S
C2277 H2283 0.959 . S
C2277 H2284 0.961 . S
C2277 H2285 0.960 . S
C2278 C2276 1.381 . S
C2278 C2279 1.394 1_556 S
C2278 H2286 0.930 1_556 S
C2279 C2278 1.394 1_554 S
C2279 C2280 1.383 . S
C2279 H2287 0.929 . S
C2280 C2279 1.383 . S
C2280 C2281 1.377 1_554 S
C2281 H2265 0.930 . S
C2281 C2280 1.377 1_556 S
C2281 C2282 1.379 . S
C2282 H2266 0.931 . S
C2282 C2276 1.383 . S
C2282 C2281 1.379 . S
H2283 C2277 0.959 . S
H2284 C2277 0.961 . S
H2285 C2277 0.960 . S
H2286 C2278 0.930 1_554 S
H2287 C2279 0.929 . S
H2288 C2296 0.929 . S
H2289 C2298 0.930 . S
H2290 C2300 0.930 . S
H2291 C2303 0.929 . S
H2292 C2306 0.930 . S
H2293 C2308 0.960 . S
H2294 C2308 0.960 . S
H2295 C2308 0.960 . S
C2296 H2288 0.929 . S
C2296 C2297 1.377 . S
C2296 C2298 1.384 . S
C2297 C2296 1.377 . S
C2297 C2303 1.390 . S
C2298 H2289 0.930 . S
C2298 C2296 1.384 . S
C2298 C2299 1.372 . S
C2299 C2298 1.372 . S
C2299 C2300 1.400 . S
C2299 C2304 1.490 . S
C2300 H2290 0.930 . S
C2300 C2299 1.400 . S
C2300 C2303 1.386 . S
H2301 C2317 0.930 . S
H2302 C2318 0.931 . S
C2303 H2291 0.929 . S
C2303 C2297 1.390 . S
C2303 C2300 1.386 . S
C2304 C2299 1.490 . S
C2304 C2306 1.395 . S
C2304 C2307 1.403 . S
H2305 C2311 0.930 . S
C2306 H2292 0.930 . S
C2306 C2304 1.395 . S
C2306 C2309 1.403 . S
C2307 C2304 1.403 . S
C2307 C2308 1.524 . S
C2307 C2311 1.400 . S
C2308 H2293 0.960 . S
C2308 H2294 0.960 . S
C2308 H2295 0.960 . S
C2308 C2307 1.524 . S
C2309 C2306 1.403 . S
C2309 C2310 1.392 . S
C2309 C2313 1.495 . S
C2310 C2309 1.392 . S
C2310 C2311 1.385 . S
C2310 C2312 1.478 . S
C2311 H2305 0.930 . S
C2311 C2307 1.400 . S
C2311 C2310 1.385 . S
C2312 C2310 1.478 . S
C2312 C2314 1.381 . S
C2312 C2318 1.383 . S
C2313 C2309 1.495 . S
C2313 H2319 0.959 . S
C2313 H2320 0.961 . S
C2313 H2321 0.960 . S
C2314 C2312 1.381 . S
C2314 C2315 1.394 . S
C2314 H2322 0.930 . S
C2315 C2314 1.394 . S
C2315 C2316 1.383 . S
C2315 H2323 0.929 . S
C2316 C2315 1.383 . S
C2316 C2317 1.377 . S
C2317 H2301 0.930 . S
C2317 C2316 1.377 . S
C2317 C2318 1.379 . S
C2318 H2302 0.931 . S
C2318 C2312 1.383 . S
C2318 C2317 1.379 . S
H2319 C2313 0.959 . S
H2320 C2313 0.961 . S
H2321 C2313 0.960 . S
H2322 C2314 0.930 . S
H2323 C2315 0.929 . S
H2324 C2332 0.929 . S
H2325 C2334 0.930 . S
H2326 C2336 0.930 . S
H2327 C2339 0.929 . S
H2328 C2342 0.930 . S
H2329 C2344 0.960 . S
H2330 C2344 0.960 . S
H2331 C2344 0.960 . S
C2332 H2324 0.929 . S
C2332 C2333 1.377 . S
C2332 C2334 1.384 . S
C2333 C2332 1.377 . S
C2333 C2339 1.390 . S
C2334 H2325 0.930 . S
C2334 C2332 1.384 . S
C2334 C2335 1.372 . S
C2335 C2334 1.372 . S
C2335 C2336 1.400 . S
C2335 C2340 1.490 . S
C2336 H2326 0.930 . S
C2336 C2335 1.400 . S
C2336 C2339 1.386 . S
H2337 C2353 0.930 . S
H2338 C2354 0.931 . S
C2339 H2327 0.929 . S
C2339 C2333 1.390 . S
C2339 C2336 1.386 . S
C2340 C2335 1.490 . S
C2340 C2342 1.395 . S
C2340 C2343 1.403 . S
H2341 C2347 0.930 . S
C2342 H2328 0.930 . S
C2342 C2340 1.395 . S
C2342 C2345 1.403 . S
C2343 C2340 1.403 . S
C2343 C2344 1.524 . S
C2343 C2347 1.400 . S
C2344 H2329 0.960 . S
C2344 H2330 0.960 . S
C2344 H2331 0.960 . S
C2344 C2343 1.524 . S
C2345 C2342 1.403 . S
C2345 C2346 1.392 . S
C2345 C2349 1.495 . S
C2346 C2345 1.392 . S
C2346 C2347 1.385 . S
C2346 C2348 1.478 . S
C2347 H2341 0.930 . S
C2347 C2343 1.400 . S
C2347 C2346 1.385 . S
C2348 C2346 1.478 . S
C2348 C2350 1.381 . S
C2348 C2354 1.383 . S
C2349 C2345 1.495 . S
C2349 H2355 0.959 . S
C2349 H2356 0.961 . S
C2349 H2357 0.960 . S
C2350 C2348 1.381 . S
C2350 C2351 1.394 . S
C2350 H2358 0.930 . S
C2351 C2350 1.394 . S
C2351 C2352 1.383 . S
C2351 H2359 0.929 . S
C2352 C2351 1.383 . S
C2352 C2353 1.377 . S
C2353 H2337 0.930 . S
C2353 C2352 1.377 . S
C2353 C2354 1.379 . S
C2354 H2338 0.931 . S
C2354 C2348 1.383 . S
C2354 C2353 1.379 . S
H2355 C2349 0.959 . S
H2356 C2349 0.961 . S
H2357 C2349 0.960 . S
H2358 C2350 0.930 . S
H2359 C2351 0.929 . S
H2360 C2368 0.929 . S
H2361 C2370 0.930 . S
H2362 C2372 0.930 . S
H2363 C2375 0.929 . S
H2364 C2378 0.930 . S
H2365 C2380 0.960 . S
H2366 C2380 0.960 . S
H2367 C2380 0.960 . S
C2368 H2360 0.929 . S
C2368 C2369 1.377 . S
C2368 C2370 1.384 . S
C2369 C2368 1.377 . S
C2369 C2375 1.390 . S
C2370 H2361 0.930 . S
C2370 C2368 1.384 . S
C2370 C2371 1.372 . S
C2371 C2370 1.372 . S
C2371 C2372 1.400 . S
C2371 C2376 1.490 . S
C2372 H2362 0.930 . S
C2372 C2371 1.400 . S
C2372 C2375 1.386 . S
H2373 C2389 0.935 . S
H2374 C2390 0.931 . S
C2375 H2363 0.929 . S
C2375 C2369 1.390 . S
C2375 C2372 1.386 . S
C2376 C2371 1.490 . S
C2376 C2378 1.395 . S
C2376 C2379 1.403 . S
H2377 C2383 0.930 . S
C2378 H2364 0.930 . S
C2378 C2376 1.395 . S
C2378 C2381 1.403 . S
C2379 C2376 1.403 . S
C2379 C2380 1.524 . S
C2379 C2383 1.400 . S
C2380 H2365 0.960 . S
C2380 H2366 0.960 . S
C2380 H2367 0.960 . S
C2380 C2379 1.524 . S
C2381 C2378 1.403 . S
C2381 C2382 1.392 . S
C2381 C2385 1.495 1_556 S
C2382 C2381 1.392 . S
C2382 C2383 1.385 . S
C2382 C2384 1.478 . S
C2383 H2377 0.930 . S
C2383 C2379 1.400 . S
C2383 C2382 1.385 . S
C2384 C2382 1.478 . S
C2384 C2386 1.381 . S
C2384 C2390 1.383 . S
C2385 C2381 1.495 1_554 S
C2385 H2391 0.959 . S
C2385 H2392 0.961 . S
C2385 H2393 0.960 . S
C2386 C2384 1.381 . S
C2386 C2387 1.394 1_556 S
C2386 H2394 0.930 . S
C2387 C2386 1.394 1_554 S
C2387 C2388 1.383 . S
C2387 H2395 0.929 . S
C2388 C2387 1.383 . S
C2388 C2389 1.384 . S
C2389 H2373 0.935 . S
C2389 C2388 1.384 . S
C2389 C2390 1.368 1_554 S
C2390 H2374 0.931 . S
C2390 C2384 1.383 . S
C2390 C2389 1.368 1_556 S
H2391 C2385 0.959 . S
H2392 C2385 0.961 . S
H2393 C2385 0.960 . S
H2394 C2386 0.930 . S
H2395 C2387 0.929 . S
H2396 C2404 0.929 . S
H2397 C2406 0.930 . S
H2398 C2408 0.930 . S
H2399 C2411 0.929 . S
H2400 C2414 0.930 . S
H2401 C2416 0.960 . S
H2402 C2416 0.960 . S
H2403 C2416 0.960 . S
C2404 H2396 0.929 . S
C2404 C2405 1.377 . S
C2404 C2406 1.384 . S
C2405 C2404 1.377 . S
C2405 C2411 1.390 . S
C2406 H2397 0.930 . S
C2406 C2404 1.384 . S
C2406 C2407 1.372 . S
C2407 C2406 1.372 . S
C2407 C2408 1.400 . S
C2407 C2412 1.490 . S
C2408 H2398 0.930 . S
C2408 C2407 1.400 . S
C2408 C2411 1.386 . S
H2409 C2425 0.930 . S
H2410 C2426 0.931 . S
C2411 H2399 0.929 . S
C2411 C2405 1.390 . S
C2411 C2408 1.386 . S
C2412 C2407 1.490 . S
C2412 C2414 1.395 . S
C2412 C2415 1.403 . S
H2413 C2419 0.930 . S
C2414 H2400 0.930 . S
C2414 C2412 1.395 . S
C2414 C2417 1.403 . S
C2415 C2412 1.403 . S
C2415 C2416 1.524 . S
C2415 C2419 1.400 . S
C2416 H2401 0.960 . S
C2416 H2402 0.960 . S
C2416 H2403 0.960 . S
C2416 C2415 1.524 . S
C2417 C2414 1.403 . S
C2417 C2418 1.392 . S
C2417 C2421 1.495 . S
C2418 C2417 1.392 . S
C2418 C2419 1.385 . S
C2418 C2420 1.478 . S
C2419 H2413 0.930 . S
C2419 C2415 1.400 . S
C2419 C2418 1.385 . S
C2420 C2418 1.478 . S
C2420 C2422 1.381 . S
C2420 C2426 1.383 . S
C2421 C2417 1.495 . S
C2421 H2427 0.959 . S
C2421 H2428 0.961 . S
C2421 H2429 0.960 . S
C2422 C2420 1.381 . S
C2422 C2423 1.394 . S
C2422 H2430 0.930 . S
C2423 C2422 1.394 . S
C2423 C2424 1.383 . S
C2423 H2431 0.929 . S
C2424 C2423 1.383 . S
C2424 C2425 1.377 . S
C2425 H2409 0.930 . S
C2425 C2424 1.377 . S
C2425 C2426 1.379 . S
C2426 H2410 0.931 . S
C2426 C2420 1.383 . S
C2426 C2425 1.379 . S
H2427 C2421 0.959 . S
H2428 C2421 0.961 . S
H2429 C2421 0.960 . S
H2430 C2422 0.930 . S
H2431 C2423 0.929 . S
H2432 C2440 0.929 . S
H2433 C2442 0.930 . S
H2434 C2444 0.930 . S
H2435 C2447 0.929 . S
H2436 C2450 0.930 . S
H2437 C2452 0.960 . S
H2438 C2452 0.960 . S
H2439 C2452 0.960 1_554 S
C2440 H2432 0.929 . S
C2440 C2441 1.377 1_556 S
C2440 C2442 1.384 . S
C2441 C2440 1.377 1_554 S
C2441 C2447 1.390 . S
C2442 H2433 0.930 . S
C2442 C2440 1.384 . S
C2442 C2443 1.372 . S
C2443 C2442 1.372 . S
C2443 C2444 1.400 1_556 S
C2443 C2448 1.490 . S
C2444 H2434 0.930 . S
C2444 C2443 1.400 1_554 S
C2444 C2447 1.386 . S
H2445 C2461 0.930 . S
H2446 C2462 0.931 . S
C2447 H2435 0.929 . S
C2447 C2441 1.390 . S
C2447 C2444 1.386 . S
C2448 C2443 1.490 . S
C2448 C2450 1.395 . S
C2448 C2451 1.403 . S
H2449 C2455 0.930 . S
C2450 H2436 0.930 . S
C2450 C2448 1.395 . S
C2450 C2453 1.403 . S
C2451 C2448 1.403 . S
C2451 C2452 1.524 . S
C2451 C2455 1.400 . S
C2452 H2437 0.960 . S
C2452 H2438 0.960 . S
C2452 H2439 0.960 1_556 S
C2452 C2451 1.524 . S
C2453 C2450 1.403 . S
C2453 C2454 1.392 . S
C2453 C2457 1.495 . S
C2454 C2453 1.392 . S
C2454 C2455 1.385 . S
C2454 C2456 1.478 . S
C2455 H2449 0.930 . S
C2455 C2451 1.400 . S
C2455 C2454 1.385 . S
C2456 C2454 1.478 . S
C2456 C2458 1.381 . S
C2456 C2462 1.383 . S
C2457 C2453 1.495 . S
C2457 H2463 0.959 . S
C2457 H2464 0.961 . S
C2457 H2465 0.960 . S
C2458 C2456 1.381 . S
C2458 C2459 1.394 . S
C2458 H2466 0.930 . S
C2459 C2458 1.394 . S
C2459 C2460 1.383 . S
C2459 H2467 0.929 . S
C2460 C2459 1.383 . S
C2460 C2461 1.377 . S
C2461 H2445 0.930 . S
C2461 C2460 1.377 . S
C2461 C2462 1.379 . S
C2462 H2446 0.931 . S
C2462 C2456 1.383 . S
C2462 C2461 1.379 . S
H2463 C2457 0.959 . S
H2464 C2457 0.961 . S
H2465 C2457 0.960 . S
H2466 C2458 0.930 . S
H2467 C2459 0.929 . S
H2468 C2476 0.929 . S
H2469 C2478 0.930 . S
H2470 C2480 0.930 . S
H2471 C2483 0.929 . S
H2472 C2486 0.930 . S
H2473 C2488 0.960 . S
H2474 C2488 0.960 . S
H2475 C2488 0.960 . S
C2476 H2468 0.929 . S
C2476 C2477 1.377 . S
C2476 C2478 1.384 . S
C2477 C2476 1.377 . S
C2477 C2483 1.390 . S
C2478 H2469 0.930 . S
C2478 C2476 1.384 . S
C2478 C2479 1.372 . S
C2479 C2478 1.372 . S
C2479 C2480 1.400 . S
C2479 C2484 1.490 . S
C2480 H2470 0.930 . S
C2480 C2479 1.400 . S
C2480 C2483 1.386 . S
H2481 C2497 0.930 . S
H2482 C2498 0.931 . S
C2483 H2471 0.929 . S
C2483 C2477 1.390 . S
C2483 C2480 1.386 . S
C2484 C2479 1.490 . S
C2484 C2486 1.395 . S
C2484 C2487 1.403 . S
H2485 C2491 0.930 . S
C2486 H2472 0.930 . S
C2486 C2484 1.395 . S
C2486 C2489 1.403 . S
C2487 C2484 1.403 . S
C2487 C2488 1.524 . S
C2487 C2491 1.400 . S
C2488 H2473 0.960 . S
C2488 H2474 0.960 . S
C2488 H2475 0.960 . S
C2488 C2487 1.524 . S
C2489 C2486 1.403 . S
C2489 C2490 1.392 . S
C2489 C2493 1.495 . S
C2490 C2489 1.392 . S
C2490 C2491 1.385 . S
C2490 C2492 1.478 . S
C2491 H2485 0.930 . S
C2491 C2487 1.400 . S
C2491 C2490 1.385 . S
C2492 C2490 1.478 . S
C2492 C2494 1.381 . S
C2492 C2498 1.383 . S
C2493 C2489 1.495 . S
C2493 H2499 0.959 . S
C2493 H2500 0.961 . S
C2493 H2501 0.960 . S
C2494 C2492 1.381 . S
C2494 C2495 1.394 . S
C2494 H2502 0.930 . S
C2495 C2494 1.394 . S
C2495 C2496 1.383 . S
C2495 H2503 0.929 . S
C2496 C2495 1.383 . S
C2496 C2497 1.377 . S
C2497 H2481 0.930 . S
C2497 C2496 1.377 . S
C2497 C2498 1.379 . S
C2498 H2482 0.931 . S
C2498 C2492 1.383 . S
C2498 C2497 1.379 . S
H2499 C2493 0.959 . S
H2500 C2493 0.961 . S
H2501 C2493 0.960 . S
H2502 C2494 0.930 . S
H2503 C2495 0.929 . S
H2504 C2512 0.929 . S
H2505 C2514 0.930 . S
H2506 C2516 0.930 . S
H2507 C2519 0.929 . S
H2508 C2522 0.930 . S
H2509 C2524 0.960 . S
H2510 C2524 0.960 . S
H2511 C2524 0.960 . S
C2512 H2504 0.929 . S
C2512 C2513 1.377 . S
C2512 C2514 1.384 . S
C2513 C2512 1.377 . S
C2513 C2519 1.390 . S
C2514 H2505 0.930 . S
C2514 C2512 1.384 . S
C2514 C2515 1.372 . S
C2515 C2514 1.372 . S
C2515 C2516 1.400 . S
C2515 C2520 1.490 . S
C2516 H2506 0.930 . S
C2516 C2515 1.400 . S
C2516 C2519 1.386 . S
H2517 C2533 0.930 . S
H2518 C2534 0.931 . S
C2519 H2507 0.929 . S
C2519 C2513 1.390 . S
C2519 C2516 1.386 . S
C2520 C2515 1.490 . S
C2520 C2522 1.395 . S
C2520 C2523 1.403 . S
H2521 C2527 0.930 . S
C2522 H2508 0.930 . S
C2522 C2520 1.395 . S
C2522 C2525 1.403 . S
C2523 C2520 1.403 . S
C2523 C2524 1.524 . S
C2523 C2527 1.400 . S
C2524 H2509 0.960 . S
C2524 H2510 0.960 . S
C2524 H2511 0.960 . S
C2524 C2523 1.524 . S
C2525 C2522 1.403 . S
C2525 C2526 1.392 . S
C2525 C2529 1.495 . S
C2526 C2525 1.392 . S
C2526 C2527 1.385 . S
C2526 C2528 1.478 . S
C2527 H2521 0.930 . S
C2527 C2523 1.400 . S
C2527 C2526 1.385 . S
C2528 C2526 1.478 . S
C2528 C2530 1.381 . S
C2528 C2534 1.383 . S
C2529 C2525 1.495 . S
C2529 H2535 0.959 . S
C2529 H2536 0.961 . S
C2529 H2537 0.960 . S
C2530 C2528 1.381 . S
C2530 C2531 1.394 . S
C2530 H2538 0.930 . S
C2531 C2530 1.394 . S
C2531 C2532 1.383 . S
C2531 H2539 0.929 . S
C2532 C2531 1.383 . S
C2532 C2533 1.377 . S
C2533 H2517 0.930 . S
C2533 C2532 1.377 . S
C2533 C2534 1.379 . S
C2534 H2518 0.931 . S
C2534 C2528 1.383 . S
C2534 C2533 1.379 . S
H2535 C2529 0.959 . S
H2536 C2529 0.961 . S
H2537 C2529 0.960 . S
H2538 C2530 0.930 . S
H2539 C2531 0.929 . S
H2540 C2548 0.929 . S
H2541 C2550 0.930 . S
H2542 C2552 0.930 . S
H2543 C2555 0.929 . S
H2544 C2558 0.930 . S
H2545 C2560 0.960 . S
H2546 C2560 0.960 . S
H2547 C2560 0.960 . S
C2548 H2540 0.929 . S
C2548 C2549 1.377 . S
C2548 C2550 1.384 . S
C2549 C2548 1.377 . S
C2549 C2555 1.390 . S
C2550 H2541 0.930 . S
C2550 C2548 1.384 . S
C2550 C2551 1.372 . S
C2551 C2550 1.372 . S
C2551 C2552 1.400 . S
C2551 C2556 1.490 . S
C2552 H2542 0.930 . S
C2552 C2551 1.400 . S
C2552 C2555 1.386 . S
H2553 C2569 0.930 . S
H2554 C2570 0.931 . S
C2555 H2543 0.929 . S
C2555 C2549 1.390 . S
C2555 C2552 1.386 . S
C2556 C2551 1.490 . S
C2556 C2558 1.395 . S
C2556 C2559 1.403 . S
H2557 C2563 0.930 . S
C2558 H2544 0.930 . S
C2558 C2556 1.395 . S
C2558 C2561 1.403 . S
C2559 C2556 1.403 . S
C2559 C2560 1.524 . S
C2559 C2563 1.400 . S
C2560 H2545 0.960 . S
C2560 H2546 0.960 . S
C2560 H2547 0.960 . S
C2560 C2559 1.524 . S
C2561 C2558 1.403 . S
C2561 C2562 1.392 . S
C2561 C2565 1.495 . S
C2562 C2561 1.392 . S
C2562 C2563 1.385 . S
C2562 C2564 1.478 . S
C2563 H2557 0.930 . S
C2563 C2559 1.400 . S
C2563 C2562 1.385 . S
C2564 C2562 1.478 . S
C2564 C2566 1.381 . S
C2564 C2570 1.383 . S
C2565 C2561 1.495 . S
C2565 H2571 0.959 . S
C2565 H2572 0.961 . S
C2565 H2573 0.960 . S
C2566 C2564 1.381 . S
C2566 C2567 1.394 . S
C2566 H2574 0.930 . S
C2567 C2566 1.394 . S
C2567 C2568 1.383 . S
C2567 H2575 0.929 . S
C2568 C2567 1.383 . S
C2568 C2569 1.377 . S
C2569 H2553 0.930 . S
C2569 C2568 1.377 . S
C2569 C2570 1.379 . S
C2570 H2554 0.931 . S
C2570 C2564 1.383 . S
C2570 C2569 1.379 . S
H2571 C2565 0.959 . S
H2572 C2565 0.961 . S
H2573 C2565 0.960 . S
H2574 C2566 0.930 . S
H2575 C2567 0.929 . S
H2576 C2584 0.929 . S
H2577 C2586 0.930 . S
H2578 C2588 0.930 . S
H2579 C2591 0.929 . S
H2580 C2594 0.930 . S
H2581 C2596 0.960 . S
H2582 C2596 0.960 . S
H2583 C2596 0.960 . S
C2584 H2576 0.929 . S
C2584 C2585 1.377 . S
C2584 C2586 1.384 . S
C2585 C2584 1.377 . S
C2585 C2591 1.390 . S
C2586 H2577 0.930 . S
C2586 C2584 1.384 . S
C2586 C2587 1.372 . S
C2587 C2586 1.372 . S
C2587 C2588 1.400 . S
C2587 C2592 1.490 . S
C2588 H2578 0.930 . S
C2588 C2587 1.400 . S
C2588 C2591 1.386 . S
H2589 C2605 0.930 . S
H2590 C2606 0.931 . S
C2591 H2579 0.929 . S
C2591 C2585 1.390 . S
C2591 C2588 1.386 . S
C2592 C2587 1.490 . S
C2592 C2594 1.395 . S
C2592 C2595 1.403 . S
H2593 C2599 0.930 . S
C2594 H2580 0.930 . S
C2594 C2592 1.395 . S
C2594 C2597 1.403 . S
C2595 C2592 1.403 . S
C2595 C2596 1.524 . S
C2595 C2599 1.400 . S
C2596 H2581 0.960 . S
C2596 H2582 0.960 . S
C2596 H2583 0.960 . S
C2596 C2595 1.524 . S
C2597 C2594 1.403 . S
C2597 C2598 1.392 . S
C2597 C2601 1.495 . S
C2598 C2597 1.392 . S
C2598 C2599 1.385 . S
C2598 C2600 1.478 . S
C2599 H2593 0.930 . S
C2599 C2595 1.400 . S
C2599 C2598 1.385 . S
C2600 C2598 1.478 . S
C2600 C2602 1.381 . S
C2600 C2606 1.383 . S
C2601 C2597 1.495 . S
C2601 H2607 0.959 . S
C2601 H2608 0.961 . S
C2601 H2609 0.960 . S
C2602 C2600 1.381 . S
C2602 C2603 1.394 . S
C2602 H2610 0.930 . S
C2603 C2602 1.394 . S
C2603 C2604 1.383 . S
C2603 H2611 0.929 . S
C2604 C2603 1.383 . S
C2604 C2605 1.377 . S
C2605 H2589 0.930 . S
C2605 C2604 1.377 . S
C2605 C2606 1.379 . S
C2606 H2590 0.931 . S
C2606 C2600 1.383 . S
C2606 C2605 1.379 . S
H2607 C2601 0.959 . S
H2608 C2601 0.961 . S
H2609 C2601 0.960 . S
H2610 C2602 0.930 . S
H2611 C2603 0.929 . S
H2612 C2620 0.929 . S
H2613 C2622 0.930 . S
H2614 C2624 0.930 . S
H2615 C2627 0.929 . S
H2616 C2630 0.930 . S
H2617 C2632 0.960 . S
H2618 C2632 0.960 . S
H2619 C2632 0.960 . S
C2620 H2612 0.929 . S
C2620 C2621 1.377 . S
C2620 C2622 1.384 . S
C2621 C2620 1.377 . S
C2621 C2627 1.390 . S
C2622 H2613 0.930 . S
C2622 C2620 1.384 . S
C2622 C2623 1.372 . S
C2623 C2622 1.372 . S
C2623 C2624 1.400 . S
C2623 C2628 1.490 . S
C2624 H2614 0.930 . S
C2624 C2623 1.400 . S
C2624 C2627 1.386 . S
H2625 C2641 0.930 . S
H2626 C2642 0.931 . S
C2627 H2615 0.929 . S
C2627 C2621 1.390 . S
C2627 C2624 1.386 . S
C2628 C2623 1.490 . S
C2628 C2630 1.395 . S
C2628 C2631 1.403 . S
H2629 C2635 0.930 . S
C2630 H2616 0.930 . S
C2630 C2628 1.395 . S
C2630 C2633 1.403 . S
C2631 C2628 1.403 . S
C2631 C2632 1.524 . S
C2631 C2635 1.400 . S
C2632 H2617 0.960 . S
C2632 H2618 0.960 . S
C2632 H2619 0.960 . S
C2632 C2631 1.524 . S
C2633 C2630 1.403 . S
C2633 C2634 1.392 . S
C2633 C2637 1.495 . S
C2634 C2633 1.392 . S
C2634 C2635 1.385 . S
C2634 C2636 1.478 . S
C2635 H2629 0.930 . S
C2635 C2631 1.400 . S
C2635 C2634 1.385 . S
C2636 C2634 1.478 . S
C2636 C2638 1.381 . S
C2636 C2642 1.383 . S
C2637 C2633 1.495 . S
C2637 H2643 0.959 . S
C2637 H2644 0.961 . S
C2637 H2645 0.960 . S
C2638 C2636 1.381 . S
C2638 C2639 1.394 . S
C2638 H2646 0.930 . S
C2639 C2638 1.394 . S
C2639 C2640 1.383 . S
C2639 H2647 0.929 . S
C2640 C2639 1.383 . S
C2640 C2641 1.377 . S
C2641 H2625 0.930 . S
C2641 C2640 1.377 . S
C2641 C2642 1.379 . S
C2642 H2626 0.931 . S
C2642 C2636 1.383 . S
C2642 C2641 1.379 . S
H2643 C2637 0.959 . S
H2644 C2637 0.961 . S
H2645 C2637 0.960 . S
H2646 C2638 0.930 . S
H2647 C2639 0.929 . S
H2648 C2656 0.929 . S
H2649 C2658 0.930 . S
H2650 C2660 0.930 . S
H2651 C2663 0.929 . S
H2652 C2666 0.930 . S
H2653 C2668 0.960 . S
H2654 C2668 0.960 . S
H2655 C2668 0.960 . S
C2656 H2648 0.929 . S
C2656 C2657 1.377 . S
C2656 C2658 1.384 . S
C2657 C2656 1.377 . S
C2657 C2663 1.390 . S
C2658 H2649 0.930 . S
C2658 C2656 1.384 . S
C2658 C2659 1.372 . S
C2659 C2658 1.372 . S
C2659 C2660 1.400 . S
C2659 C2664 1.490 . S
C2660 H2650 0.930 . S
C2660 C2659 1.400 . S
C2660 C2663 1.386 . S
H2661 C2677 0.930 . S
H2662 C2678 0.931 . S
C2663 H2651 0.929 . S
C2663 C2657 1.390 . S
C2663 C2660 1.386 . S
C2664 C2659 1.490 . S
C2664 C2666 1.395 . S
C2664 C2667 1.403 . S
H2665 C2671 0.930 . S
C2666 H2652 0.930 . S
C2666 C2664 1.395 . S
C2666 C2669 1.403 . S
C2667 C2664 1.403 . S
C2667 C2668 1.524 . S
C2667 C2671 1.400 . S
C2668 H2653 0.960 . S
C2668 H2654 0.960 . S
C2668 H2655 0.960 . S
C2668 C2667 1.524 . S
C2669 C2666 1.403 . S
C2669 C2670 1.392 . S
C2669 C2673 1.495 . S
C2670 C2669 1.392 . S
C2670 C2671 1.385 . S
C2670 C2672 1.478 . S
C2671 H2665 0.930 . S
C2671 C2667 1.400 . S
C2671 C2670 1.385 . S
C2672 C2670 1.478 . S
C2672 C2674 1.381 . S
C2672 C2678 1.383 . S
C2673 C2669 1.495 . S
C2673 H2679 0.959 . S
C2673 H2680 0.961 . S
C2673 H2681 0.960 . S
C2674 C2672 1.381 . S
C2674 C2675 1.394 . S
C2674 H2682 0.930 . S
C2675 C2674 1.394 . S
C2675 C2676 1.383 . S
C2675 H2683 0.929 . S
C2676 C2675 1.383 . S
C2676 C2677 1.377 . S
C2677 H2661 0.930 . S
C2677 C2676 1.377 . S
C2677 C2678 1.379 . S
C2678 H2662 0.931 . S
C2678 C2672 1.383 . S
C2678 C2677 1.379 . S
H2679 C2673 0.959 . S
H2680 C2673 0.961 . S
H2681 C2673 0.960 . S
H2682 C2674 0.930 . S
H2683 C2675 0.929 . S
H2684 C2692 0.929 . S
H2685 C2694 0.930 . S
H2686 C2696 0.930 . S
H2687 C2699 0.929 . S
H2688 C2702 0.930 . S
H2689 C2704 0.960 . S
H2690 C2704 0.960 . S
H2691 C2704 0.960 . S
C2692 H2684 0.929 . S
C2692 C2693 1.377 . S
C2692 C2694 1.384 . S
C2693 C2692 1.377 . S
C2693 C2699 1.390 . S
C2694 H2685 0.930 . S
C2694 C2692 1.384 . S
C2694 C2695 1.372 . S
C2695 C2694 1.372 . S
C2695 C2696 1.400 . S
C2695 C2700 1.490 . S
C2696 H2686 0.930 . S
C2696 C2695 1.400 . S
C2696 C2699 1.386 . S
H2697 C2713 0.930 . S
H2698 C2714 0.931 . S
C2699 H2687 0.929 . S
C2699 C2693 1.390 . S
C2699 C2696 1.386 . S
C2700 C2695 1.490 . S
C2700 C2702 1.395 . S
C2700 C2703 1.403 . S
H2701 C2707 0.930 . S
C2702 H2688 0.930 . S
C2702 C2700 1.395 . S
C2702 C2705 1.403 . S
C2703 C2700 1.403 . S
C2703 C2704 1.524 . S
C2703 C2707 1.400 . S
C2704 H2689 0.960 . S
C2704 H2690 0.960 . S
C2704 H2691 0.960 . S
C2704 C2703 1.524 . S
C2705 C2702 1.403 . S
C2705 C2706 1.392 . S
C2705 C2709 1.495 . S
C2706 C2705 1.392 . S
C2706 C2707 1.385 . S
C2706 C2708 1.478 . S
C2707 H2701 0.930 . S
C2707 C2703 1.400 . S
C2707 C2706 1.385 . S
C2708 C2706 1.478 . S
C2708 C2710 1.369 1_556 S
C2708 C2714 1.383 . S
C2709 C2705 1.495 . S
C2709 H2715 0.959 . S
C2709 H2716 0.961 . S
C2709 H2717 0.960 . S
C2710 C2708 1.369 1_554 S
C2710 C2711 1.402 . S
C2710 H2718 0.935 . S
C2711 C2710 1.402 . S
C2711 C2712 1.383 . S
C2711 H2719 0.929 . S
C2712 C2711 1.383 . S
C2712 C2713 1.377 1_554 S
C2713 H2697 0.930 . S
C2713 C2712 1.377 1_556 S
C2713 C2714 1.379 . S
C2714 H2698 0.931 . S
C2714 C2708 1.383 . S
C2714 C2713 1.379 . S
H2715 C2709 0.959 . S
H2716 C2709 0.961 . S
H2717 C2709 0.960 . S
H2718 C2710 0.935 . S
H2719 C2711 0.929 . S
C425 C105 1.998 . S
C444 C10 2.015 . S
C461 C14 2.078 . S
C480 C335 2.064 . S
C497 C36 1.993 . S
C516 C131 1.973 . S
C533 C40 2.079 . S
C552 C361 2.085 . S
C569 C62 1.993 . S
C588 C157 1.973 . S
C605 C387 2.079 . S
C624 C66 2.064 . S
C641 C183 1.997 . S
C660 C88 1.973 . S
C677 C413 2.080 . S
C696 C92 2.087 . S
C713 C222 2.078 . S
C732 C127 2.076 . S
C749 C153 2.080 . S
C768 C248 2.065 . S
C785 C179 2.078 . S
C804 C274 2.081 . S
C821 C300 2.079 . S
C840 C205 2.064 . S
C857 C313 1.983 1_565 S
C876 C218 1.962 1_545 S
C893 C244 1.986 1_565 S
C912 C339 1.999 1_545 S
C929 C270 1.979 1_565 S
C948 C365 1.969 1_545 S
C965 C391 1.983 1_565 S
C984 C296 1.960 1_545 S
C1001 C3 1.791 1_556 S
C1020 C55 1.793 . S
C1037 C70 1.744 . S
C1056 C18 1.728 . S
C1073 C81 1.792 . S
C1092 C29 1.793 . S
C1109 C44 1.746 . S
C1128 C96 1.725 . S
C1145 C109 1.794 . S
C1164 C161 1.792 . S
C1181 C120 1.744 . S
C1200 C172 1.730 . S
C1217 C187 1.791 1_556 S
C1236 C135 1.789 . S
C1253 C198 1.746 . S
C1272 C146 1.758 . S
C1289 C263 1.792 . S
C1308 C211 1.786 . S
C1325 C278 1.749 . S
C1344 C226 1.736 . S
C1361 C237 1.792 1_556 S
C1380 C289 1.787 . S
C1397 C304 1.749 . S
C1416 C252 1.733 . S
C1433 C369 1.793 1_556 S
C1452 C317 1.784 . S
C1469 C328 1.745 . S
C1488 C380 1.726 . S
C1505 C395 1.792 . S
C1524 C343 1.794 . S
C1541 C406 1.748 . S
C1560 C354 1.763 . S
C1577 C53 0.225 . S
C1596 C1 0.245 . S
C1613 C75 0.313 . S
C1632 C23 0.336 . S
C1649 C27 0.223 . S
C1668 C79 0.253 . S
C1685 C101 0.285 . S
C1704 C49 0.359 . S
C1721 C166 0.228 . S
C1740 C114 0.234 . S
C1757 C118 0.314 . S
C1776 C170 0.379 . S
C1793 C192 0.226 . S
C1812 C140 0.229 . S
C1829 C196 0.284 . S
C1848 C144 0.224 . S
C1865 C209 0.223 . S
C1884 C261 0.254 . S
C1901 C283 0.314 . S
C1920 C231 0.319 . S
C1937 C287 0.229 . S
C1956 C235 0.229 . S
C1973 C309 0.282 . S
C1992 C257 0.330 . S
C2009 C374 0.226 . S
C2028 C322 0.252 . S
C2045 C326 0.315 . S
C2064 C378 0.377 . S
C2081 C348 0.223 . S
C2100 C400 0.230 . S
C2117 C352 0.309 . S
C2136 C404 0.333 . S
C2153 C5 2.102 . S
C2172 C276 2.172 . S
C2189 C291 2.098 . S
C2208 C16 2.161 . S
C2225 C31 2.098 . S
C2244 C302 2.169 . S
C2261 C42 2.175 . S
C2280 C265 2.103 . S
C2297 C250 2.171 . S
C2316 C57 2.081 . S
C2333 C213 2.098 . S
C2352 C68 2.162 . S
C2369 C224 2.175 . S
C2388 C83 2.109 . S
C2405 C94 2.175 . S
C2424 C239 2.115 . S
C2441 C107 2.095 . S
C2460 C382 2.177 . S
C2477 C393 2.098 . S
C2496 C122 2.167 . S
C2513 C408 2.176 . S
C2532 C133 2.079 . S
C2549 C367 2.097 . S
C2568 C148 2.170 . S
C2585 C356 2.172 . S
C2604 C159 2.117 . S
C2621 C315 2.099 . S
C2640 C174 2.164 . S
C2657 C185 2.101 . S
C2676 C330 2.173 . S
C2693 C200 2.171 . S
C2712 C341 2.110 . S
