# Generated by pormake.
# Topology ooa, (5)-cn, num edge types: 1
# Building blocks:
#     Node 0, Type 0, BuildingBlock: XOMCOT_clean_sbu_1, # of connection points: 5
#     Node 1, Type 0, BuildingBlock: XOMCOT_clean_sbu_1, # of connection points: 5
#     Node 2, Type 0, BuildingBlock: XOMCOT_clean_sbu_1, # of connection points: 5
#     Node 3, Type 0, BuildingBlock: XOMCOT_clean_sbu_1, # of connection points: 5
#     Node 4, Type 0, BuildingBlock: XOMCOT_clean_sbu_1, # of connection points: 5
#     Node 5, Type 0, BuildingBlock: XOMCOT_clean_sbu_1, # of connection points: 5
#     Node 6, Type 0, BuildingBlock: XOMCOT_clean_sbu_1, # of connection points: 5
#     Node 7, Type 0, BuildingBlock: XOMCOT_clean_sbu_1, # of connection points: 5
#     Edge 8, Type (0, 0), BuildingBlock: ZUJKAS_clean_linker_0, # of connection points: 2
#     Edge 9, Type (0, 0), BuildingBlock: ZUJKAS_clean_linker_0, # of connection points: 2
#     Edge 10, Type (0, 0), BuildingBlock: ZUJKAS_clean_linker_0, # of connection points: 2
#     Edge 11, Type (0, 0), BuildingBlock: ZUJKAS_clean_linker_0, # of connection points: 2
#     Edge 12, Type (0, 0), BuildingBlock: ZUJKAS_clean_linker_0, # of connection points: 2
#     Edge 13, Type (0, 0), BuildingBlock: ZUJKAS_clean_linker_0, # of connection points: 2
#     Edge 14, Type (0, 0), BuildingBlock: ZUJKAS_clean_linker_0, # of connection points: 2
#     Edge 15, Type (0, 0), BuildingBlock: ZUJKAS_clean_linker_0, # of connection points: 2
#     Edge 16, Type (0, 0), BuildingBlock: ZUJKAS_clean_linker_0, # of connection points: 2
#     Edge 17, Type (0, 0), BuildingBlock: ZUJKAS_clean_linker_0, # of connection points: 2
#     Edge 18, Type (0, 0), BuildingBlock: ZUJKAS_clean_linker_0, # of connection points: 2
#     Edge 19, Type (0, 0), BuildingBlock: ZUJKAS_clean_linker_0, # of connection points: 2
#     Edge 20, Type (0, 0), BuildingBlock: ZUJKAS_clean_linker_0, # of connection points: 2
#     Edge 21, Type (0, 0), BuildingBlock: ZUJKAS_clean_linker_0, # of connection points: 2
#     Edge 22, Type (0, 0), BuildingBlock: ZUJKAS_clean_linker_0, # of connection points: 2
#     Edge 23, Type (0, 0), BuildingBlock: ZUJKAS_clean_linker_0, # of connection points: 2
#     Edge 24, Type (0, 0), BuildingBlock: ZUJKAS_clean_linker_0, # of connection points: 2
#     Edge 25, Type (0, 0), BuildingBlock: ZUJKAS_clean_linker_0, # of connection points: 2
#     Edge 26, Type (0, 0), BuildingBlock: ZUJKAS_clean_linker_0, # of connection points: 2
#     Edge 27, Type (0, 0), BuildingBlock: ZUJKAS_clean_linker_0, # of connection points: 2
# Relax obj value: 0.414
# Max RMSD: 0.217
# Mean RMSD: 0.217
data_MOF--net-ooa--node1-XOMCOT_clean_sbu_1--edge1-ZUJKAS_clean_linker_0
_symmetry_space_group_name_H-M    P1
_symmetry_Int_Tables_number       1
_symmetry_cell_setting            triclinic
loop_
_symmetry_equiv_pos_as_xyz
'x, y, z'
_cell_length_a     37.118825
_cell_length_b     38.502571
_cell_length_c     60.996385
_cell_angle_alpha  90.000655
_cell_angle_beta   89.981265
_cell_angle_gamma 89.839679
loop_
_atom_site_label
_atom_site_type_symbol
_atom_site_fract_x
_atom_site_fract_y
_atom_site_fract_z
_atom_type_partial_charge
C0 C 0.09734 0.17023 0.10404 0.0
C1 C 0.12094 0.14416 0.1097 0.0
N2 N 0.14297 0.13808 0.09253 0.0
N3 N 0.10466 0.18084 0.08347 0.0
C4 C 0.13245 0.16073 0.07684 0.0
H5 H 0.07554 0.18016 0.11402 0.0
Co6 Co 0.07777 0.21272 0.06735 0.0
C7 C 0.1294 0.23137 0.03264 0.0
O8 O 0.10478 0.22527 0.01766 0.0
N9 N 0.04945 0.24392 0.05126 0.0
C10 C 0.02402 0.28992 0.0354 0.0
C11 C 0.05468 0.27745 0.04567 0.0
C12 C 0.01575 0.23674 0.04436 0.0
N13 N 0.99969 0.26404 0.03453 0.0
O14 O 0.07026 0.17782 0.04581 0.0
H15 H 0.0788 0.29206 0.04928 0.0
H16 H 1.00244 0.21228 0.0473 0.0
O17 O 0.1215 0.22813 0.05288 0.0
C18 C 0.04632 0.15636 0.05202 0.0
O19 O 0.02972 0.16199 0.07074 0.0
N20 N 0.08352 0.24531 0.08965 0.0
C21 C 0.08683 0.26688 0.13306 0.0
C22 C 0.11851 0.26303 0.12066 0.0
C23 C 0.11627 0.25238 0.09879 0.0
C24 C 0.05251 0.25297 0.10056 0.0
C25 C 0.05357 0.2644 0.12222 0.0
H26 H 0.14082 0.24548 0.0903 0.0
H27 H 0.02678 0.24664 0.0933 0.0
H28 H 0.14416 0.16223 0.06062 0.0
H29 H 0.12082 0.12985 0.12497 0.0
H30 H 0.01992 0.31596 0.02917 0.0
H31 H 0.1448 0.26455 0.12828 0.0
H32 H 0.02844 0.2681 0.13094 0.0
C33 C 0.43198 0.81756 0.10684 0.0
C34 C 0.40933 0.84457 0.1122 0.0
N35 N 0.38838 0.85173 0.09469 0.0
N36 N 0.42514 0.80744 0.08611 0.0
C37 C 0.39856 0.82873 0.07912 0.0
H38 H 0.45294 0.80674 0.1171 0.0
Co39 Co 0.45144 0.77515 0.06994 0.0
C40 C 0.40015 0.75824 0.0348 0.0
O41 O 0.4254 0.76312 0.02003 0.0
N42 N 0.47905 0.74357 0.05379 0.0
C43 C 0.50241 0.69859 0.03582 0.0
C44 C 0.47226 0.71114 0.04656 0.0
C45 C 0.51331 0.74987 0.04764 0.0
N46 N 0.52819 0.72322 0.03646 0.0
O47 O 0.46028 0.8101 0.04867 0.0
H48 H 0.44714 0.69749 0.049 0.0
H49 H 0.5275 0.77336 0.05185 0.0
O50 O 0.40755 0.76133 0.05511 0.0
C51 C 0.48428 0.83127 0.05516 0.0
O52 O 0.50026 0.82542 0.07404 0.0
N53 N 0.44452 0.74237 0.09193 0.0
C54 C 0.44047 0.72029 0.13515 0.0
C55 C 0.40894 0.7247 0.1227 0.0
C56 C 0.41155 0.73569 0.10091 0.0
C57 C 0.4753 0.7341 0.10288 0.0
C58 C 0.47387 0.72249 0.12447 0.0
H59 H 0.38721 0.74309 0.09236 0.0
H60 H 0.5012 0.74022 0.09576 0.0
H61 H 0.38766 0.82789 0.06268 0.0
H62 H 0.40951 0.85882 0.12749 0.0
H63 H 0.50496 0.67345 0.02803 0.0
H64 H 0.38261 0.72337 0.1303 0.0
H65 H 0.49883 0.71855 0.13333 0.0
C66 C 0.08801 0.32554 0.40192 0.0
C67 C 0.10963 0.35362 0.39758 0.0
N68 N 0.13286 0.35744 0.41439 0.0
N69 N 0.09782 0.31148 0.42124 0.0
C70 C 0.1251 0.3315 0.42852 0.0
H71 H 0.06601 0.31629 0.39187 0.0
Co72 Co 0.07346 0.27596 0.43544 0.0
C73 C 0.13642 0.233 0.44978 0.0
O74 O 0.12351 0.20556 0.43968 0.0
N75 N 0.0465 0.24182 0.45013 0.0
C76 C 0.02244 0.20692 0.47534 0.0
C77 C 0.05414 0.21913 0.46642 0.0
C78 C 1.0101 0.24321 0.44984 0.0
N79 N 0.99474 0.22254 0.46503 0.0
O80 O 0.06393 0.30703 0.45887 0.0
H81 H 0.08051 0.21408 0.4731 0.0
H82 H 0.99511 0.26073 0.43941 0.0
O83 O 0.11858 0.26148 0.44977 0.0
C84 C 0.03758 0.32718 0.45471 0.0
O85 O 0.01962 0.32267 0.43637 0.0
N86 N 0.08155 0.24688 0.41087 0.0
C87 C 0.08679 0.22776 0.3668 0.0
C88 C 0.1176 0.237 0.3787 0.0
C89 C 0.11439 0.24663 0.40065 0.0
C90 C 0.05185 0.2351 0.40004 0.0
C91 C 0.05398 0.22497 0.37809 0.0
H92 H 0.13774 0.2576 0.4086 0.0
H93 H 0.02564 0.2366 0.40756 0.0
H94 H 0.13783 0.32807 0.44434 0.0
H95 H 0.10808 0.37011 0.38325 0.0
H96 H 0.02009 0.19031 0.48958 0.0
H97 H 0.14341 0.24017 0.37069 0.0
H98 H 0.02954 0.21752 0.36964 0.0
C99 C 0.43218 0.66576 0.40169 0.0
C100 C 0.40995 0.63827 0.39703 0.0
N101 N 0.38788 0.63327 0.4143 0.0
N102 N 0.42388 0.67834 0.42167 0.0
C103 C 0.397 0.65791 0.42905 0.0
H104 H 0.45365 0.67549 0.39141 0.0
Co105 Co 0.44906 0.71305 0.43605 0.0
C106 C 0.38851 0.75572 0.45389 0.0
O107 O 0.40208 0.78405 0.44518 0.0
N108 N 0.47674 0.74651 0.45081 0.0
C109 C 0.50229 0.77834 0.47704 0.0
C110 C 0.47029 0.76567 0.46899 0.0
C111 C 0.51299 0.74726 0.44866 0.0
N112 N 0.52922 0.76631 0.46437 0.0
O113 O 0.4599 0.68097 0.45866 0.0
H114 H 0.44497 0.76734 0.47758 0.0
H115 H 0.52744 0.73173 0.43678 0.0
O116 O 0.40503 0.72673 0.45166 0.0
C117 C 0.48636 0.66121 0.45405 0.0
O118 O 0.50415 0.66671 0.43575 0.0
N119 N 0.43942 0.74318 0.4123 0.0
C120 C 0.42965 0.76219 0.36852 0.0
C121 C 0.39994 0.75609 0.38214 0.0
C122 C 0.40539 0.74594 0.40382 0.0
C123 C 0.46841 0.7523 0.39985 0.0
C124 C 0.46413 0.76202 0.37794 0.0
H125 H 0.38239 0.73645 0.41281 0.0
H126 H 0.49533 0.74822 0.40592 0.0
H127 H 0.38486 0.6607 0.44509 0.0
H128 H 0.41093 0.6224 0.3824 0.0
H129 H 0.50571 0.79222 0.49233 0.0
H130 H 0.3728 0.75616 0.37564 0.0
H131 H 0.48797 0.76591 0.36802 0.0
C132 C 0.93362 0.81866 0.89994 0.0
C133 C 0.91135 0.84601 0.89475 0.0
N134 N 0.88869 0.85149 0.9117 0.0
N135 N 0.9248 0.80656 0.91995 0.0
C136 C 0.89752 0.82718 0.92679 0.0
H137 H 0.95564 0.80887 0.89007 0.0
Co138 Co 0.95052 0.77297 0.93543 0.0
C139 C 0.88921 0.72903 0.95102 0.0
O140 O 0.90365 0.70105 0.94228 0.0
N141 N 0.97871 0.74087 0.95135 0.0
C142 C 1.00409 0.70675 0.97664 0.0
C143 C 0.97196 0.71787 0.96762 0.0
C144 C 0.01502 0.74375 0.95133 0.0
N145 N 0.03107 0.72346 0.96646 0.0
O146 O 0.95842 0.80604 0.95792 0.0
H147 H 0.9458 0.71168 0.97415 0.0
H148 H 0.02948 0.7618 0.94102 0.0
O149 O 0.90572 0.75809 0.94976 0.0
C150 C 0.98411 0.82634 0.95284 0.0
O151 O 1.00119 0.82117 0.93424 0.0
N152 N 0.94446 0.74183 0.91179 0.0
C153 C 0.94237 0.72099 0.86803 0.0
C154 C 0.91043 0.72839 0.87939 0.0
C155 C 0.91205 0.73896 0.90125 0.0
C156 C 0.97534 0.73147 0.90155 0.0
C157 C 0.97483 0.72055 0.87976 0.0
H158 H 0.88772 0.74887 0.90873 0.0
H159 H 1.00111 0.73511 0.9093 0.0
H160 H 0.88518 0.82497 0.94279 0.0
H161 H 0.91294 0.86164 0.88004 0.0
H162 H 1.00717 0.69002 0.99079 0.0
H163 H 0.88482 0.72961 0.87092 0.0
H164 H 1.0001 0.71469 0.87166 0.0
C165 C 0.60006 0.17108 0.89775 0.0
C166 C 0.62388 0.14488 0.89266 0.0
N167 N 0.64476 0.13875 0.91034 0.0
N168 N 0.60611 0.18173 0.91846 0.0
C169 C 0.63338 0.16151 0.92575 0.0
H170 H 0.57891 0.18101 0.88727 0.0
Co171 Co 0.57836 0.21356 0.93415 0.0
C172 C 0.62939 0.23291 0.96911 0.0
O173 O 0.60479 0.22681 0.98411 0.0
N174 N 0.5493 0.24465 0.94979 0.0
C175 C 0.52314 0.29035 0.96557 0.0
C176 C 0.55416 0.27815 0.95556 0.0
C177 C 0.51543 0.23722 0.9563 0.0
N178 N 0.49892 0.26432 0.96608 0.0
O179 O 0.57066 0.17897 0.95581 0.0
H180 H 0.57834 0.2929 0.95232 0.0
H181 H 0.50243 0.21267 0.95315 0.0
O182 O 0.62154 0.22951 0.94888 0.0
C183 C 0.54746 0.15693 0.94938 0.0
O184 O 0.53156 0.16195 0.93037 0.0
N185 N 0.58431 0.24587 0.91173 0.0
C186 C 0.58895 0.267 0.86831 0.0
C187 C 0.62013 0.26439 0.88126 0.0
C188 C 0.61722 0.25383 0.90311 0.0
C189 C 0.55359 0.25235 0.90025 0.0
C190 C 0.55528 0.26341 0.87854 0.0
H191 H 0.64159 0.24782 0.91204 0.0
H192 H 0.52777 0.24527 0.90713 0.0
H193 H 0.64403 0.16297 0.94223 0.0
H194 H 0.62464 0.13049 0.87743 0.0
H195 H 0.51875 0.31628 0.97189 0.0
H196 H 0.64668 0.26676 0.87406 0.0
H197 H 0.53051 0.26597 0.86929 0.0
C198 C 0.93061 0.66673 0.60264 0.0
C199 C 0.90825 0.63918 0.607 0.0
N200 N 0.88686 0.63407 0.58943 0.0
N201 N 0.92305 0.67923 0.58253 0.0
C202 C 0.89648 0.65873 0.57482 0.0
H203 H 0.95172 0.67647 0.61317 0.0
Co204 Co 0.94871 0.71356 0.56804 0.0
C205 C 0.88833 0.75624 0.54995 0.0
O206 O 0.9019 0.7847 0.5585 0.0
N207 N 0.9767 0.74665 0.55309 0.0
C208 C 1.00228 0.77784 0.52656 0.0
C209 C 0.97026 0.76551 0.53479 0.0
C210 C 1.01296 0.74728 0.55515 0.0
N211 N 0.02922 0.76592 0.53925 0.0
O212 O 0.95954 0.68105 0.54569 0.0
H213 H 0.94491 0.76715 0.52624 0.0
H214 H 0.02741 0.73194 0.56712 0.0
O215 O 0.90485 0.72729 0.55232 0.0
C216 C 0.98614 0.66169 0.55065 0.0
O217 O 1.00358 0.66785 0.56899 0.0
N218 N 0.93926 0.7441 0.59159 0.0
C219 C 0.93005 0.76447 0.63519 0.0
C220 C 0.90016 0.75829 0.62172 0.0
C221 C 0.90533 0.74742 0.60014 0.0
C222 C 0.96844 0.75316 0.60387 0.0
C223 C 0.96445 0.76355 0.62567 0.0
H224 H 0.88217 0.73797 0.59129 0.0
H225 H 0.99526 0.74857 0.59779 0.0
H226 H 0.88503 0.66144 0.5586 0.0
H227 H 0.90881 0.62329 0.62163 0.0
H228 H 1.00568 0.79139 0.51115 0.0
H229 H 0.87305 0.75892 0.62828 0.0
H230 H 0.98844 0.76739 0.63545 0.0
C231 C 0.59468 0.32162 0.60238 0.0
C232 C 0.61665 0.34963 0.60607 0.0
N233 N 0.63692 0.35476 0.58803 0.0
N234 N 0.60126 0.30887 0.58219 0.0
C235 C 0.62713 0.32961 0.5738 0.0
H236 H 0.57437 0.31182 0.61346 0.0
Co237 Co 0.57437 0.27415 0.56886 0.0
C238 C 0.63108 0.2314 0.5461 0.0
O239 O 0.61609 0.20212 0.55213 0.0
N240 N 0.54483 0.23946 0.5555 0.0
C241 C 0.5106 0.19228 0.55104 0.0
C242 C 0.54103 0.20547 0.56081 0.0
C243 C 0.5163 0.24581 0.54215 0.0
N244 N 0.49506 0.2178 0.53936 0.0
O245 O 0.56206 0.30655 0.5466 0.0
H246 H 0.5576 0.19145 0.57239 0.0
H247 H 0.50909 0.27114 0.53598 0.0
O248 O 0.61678 0.2603 0.55171 0.0
C249 C 0.53775 0.32781 0.55276 0.0
O250 O 0.52169 0.32244 0.57167 0.0
N251 N 0.58579 0.24478 0.59232 0.0
C252 C 0.5989 0.22584 0.63567 0.0
C253 C 0.62736 0.22844 0.62061 0.0
C254 C 0.6203 0.23836 0.59901 0.0
C255 C 0.55762 0.23984 0.60629 0.0
C256 C 0.56353 0.23002 0.62798 0.0
H257 H 0.64287 0.24451 0.58857 0.0
H258 H 0.53066 0.24678 0.60113 0.0
H259 H 0.63715 0.32743 0.5572 0.0
H260 H 0.61726 0.3653 0.6208 0.0
H261 H 0.49964 0.16651 0.55334 0.0
H262 H 0.65507 0.22546 0.62587 0.0
H263 H 0.54075 0.22901 0.63907 0.0
H264 H 0.08616 0.12682 0.01907 0.0
H265 H 0.07537 0.07042 1.00144 0.0
H266 H 0.97884 0.05755 0.03994 0.0
H267 H 0.98916 0.11355 0.05741 0.0
H268 H 0.06971 0.00602 0.02523 0.0
H269 H 0.94647 0.03476 0.97684 0.0
H270 H 0.97606 0.06838 0.98687 0.0
H271 H 0.94428 0.04815 0.00503 0.0
C272 C 0.06232 0.1122 0.02344 0.0
C273 C 0.0385 0.1245 0.03959 0.0
C274 C 0.05629 0.08003 0.01346 0.0
C275 C 0.02614 0.06013 0.01929 0.0
C276 C 1.00192 0.07282 0.03499 0.0
H277 H 0.94366 0.85616 0.98543 0.0
H278 H 0.95519 0.91188 0.00366 0.0
C279 C 1.00801 0.10473 0.04503 0.0
C280 C 0.02101 0.02501 0.0102 0.0
H281 H 0.96229 0.97526 0.98096 0.0
C282 C 0.0464 -0.00073 0.0154 0.0
C283 C 0.99034 0.0164 0.99763 0.0
C284 C 0.96284 0.04341 0.99107 0.0
C285 C 0.04163 0.96481 0.00861 0.0
C286 C 1.01097 0.95619 0.99602 0.0
C287 C 0.98559 0.98197 0.99081 0.0
C288 C 1.00571 0.92106 0.98692 0.0
C289 C 0.06908 0.93783 0.01528 0.0
C290 C 0.03046 0.90784 0.97171 0.0
C291 C 0.024 0.87623 0.96137 0.0
C292 C 0.99253 0.85736 0.96596 0.0
C293 C 0.96824 0.87007 0.98171 0.0
C294 C 0.9747 0.90188 0.99203 0.0
H295 H 0.0848 0.94626 0.02983 0.0
H296 H 0.05597 0.91263 0.01905 0.0
H297 H 0.08827 0.93365 0.00157 0.0
H298 H 0.05419 0.92256 0.96725 0.0
H299 H 0.04324 0.86707 0.94932 0.0
H300 H 0.58304 0.13195 0.98551 0.0
H301 H 0.57309 0.07595 0.00378 0.0
H302 H 0.48531 0.0543 0.95959 0.0
H303 H 0.49504 0.10971 0.94125 0.0
H304 H 0.50772 0.04873 0.02364 0.0
H305 H 0.55489 0.97043 0.95263 0.0
H306 H 0.56471 0.01612 0.9555 0.0
H307 H 0.52109 0.00234 0.94622 0.0
C308 C 0.56146 0.11534 0.97984 0.0
C309 C 0.54002 0.12502 0.96185 0.0
C310 C 0.55588 0.08343 0.99023 0.0
C311 C 0.52895 0.0609 0.98268 0.0
C312 C 0.50671 0.07111 0.9653 0.0
H313 H 0.44947 0.85743 0.0191 0.0
H314 H 0.4606 0.91348 1.00119 0.0
C315 C 0.51224 0.10284 0.95493 0.0
C316 C 0.52396 0.02651 0.9928 0.0
H317 H 0.52677 0.93968 0.9817 0.0
C318 C 0.5121 0.02485 0.01458 0.0
C319 C 0.52959 -0.00444 0.98078 0.0
C320 C 0.54357 -0.00398 0.95754 0.0
C321 C 0.50499 0.99284 0.02459 0.0
C322 C 0.5105 0.96189 0.01254 0.0
C323 C 0.52247 0.96356 0.99079 0.0
C324 C 0.50483 0.92749 0.02251 0.0
C325 C 0.49099 0.99235 0.04783 0.0
C326 C 0.52671 0.91669 0.03991 0.0
C327 C 0.52052 0.8849 0.05008 0.0
C328 C 0.49242 0.86328 0.04293 0.0
C329 C 0.4713 0.87359 0.02495 0.0
C330 C 0.47754 0.90553 0.01476 0.0
H331 H 0.48014 0.01807 0.05286 0.0
H332 H 0.46949 0.97259 0.04976 0.0
H333 H 0.51334 0.98549 0.05912 0.0
H334 H 0.54835 0.93306 0.04579 0.0
H335 H 0.53747 0.87754 0.06378 0.0
H336 H 0.04506 0.62019 0.5547 0.0
H337 H 0.05493 0.56336 0.53798 0.0
H338 H 0.95496 0.57344 0.50249 0.0
H339 H 0.94496 0.63064 0.51903 0.0
H340 H 1.00822 0.507 0.54327 0.0
H341 H 0.0267 0.54062 0.45543 0.0
H342 H 0.03061 0.57234 0.47711 0.0
H343 H 0.98694 0.55872 0.46782 0.0
C344 C 0.02543 0.61059 0.54306 0.0
C345 C 0.9942 0.62983 0.53817 0.0
C346 C 0.03111 0.57811 0.53357 0.0
C347 C 1.00577 0.56434 0.51896 0.0
C348 C 0.97511 0.58391 0.51347 0.0
H349 H 0.97887 0.36917 0.45272 0.0
H350 H 0.97085 0.42563 0.47022 0.0
C351 C 0.96943 0.61654 0.52293 0.0
C352 C 1.01035 0.52855 0.5107 0.0
H353 H 0.01991 0.48084 0.46397 0.0
C354 C 1.01099 0.50122 0.52595 0.0
C355 C 0.01392 0.52126 0.48811 0.0
C356 C 0.01485 0.54976 0.47114 0.0
C357 C 0.01439 0.46658 0.51914 0.0
C358 C 0.01767 0.4593 0.49654 0.0
C359 C 0.01726 0.48663 0.48131 0.0
C360 C 0.02104 0.42346 0.48816 0.0
C361 C 0.0136 0.43803 0.53606 0.0
C362 C 0.05162 0.40327 0.49289 0.0
C363 C 0.05627 0.37082 0.48295 0.0
C364 C 0.03051 0.3584 0.46803 0.0
C365 C 0.99927 0.37813 0.46407 0.0
C366 C 0.99464 0.4104 0.47402 0.0
H367 H 1.00303 0.44736 0.55207 0.0
H368 H 0.99675 0.41601 0.53038 0.0
H369 H 0.04138 0.42814 0.53868 0.0
H370 H 0.07253 0.41318 0.50355 0.0
H371 H 0.08074 0.3563 0.48615 0.0
H372 H 0.54271 0.61661 0.44922 0.0
H373 H 0.55072 0.5601 0.46666 0.0
H374 H 0.45502 0.57731 0.50533 0.0
H375 H 0.44635 0.63388 0.48763 0.0
H376 H 0.55818 0.54016 0.51044 0.0
H377 H 0.4339 0.48605 0.47293 0.0
H378 H 0.45357 0.52648 0.46404 0.0
H379 H 0.4273 0.52489 0.48876 0.0
C380 C 0.52349 0.60856 0.46157 0.0
C381 C 0.49368 0.62952 0.4669 0.0
C382 C 0.52816 0.57627 0.47152 0.0
C383 C 0.50307 0.56431 0.48691 0.0
C384 C 0.47425 0.58586 0.49312 0.0
H385 H 0.48292 0.3735 0.55953 0.0
H386 H 0.47467 0.43038 0.54255 0.0
C387 C 0.46953 0.61826 0.48315 0.0
C388 C 0.50671 0.52882 0.49587 0.0
H389 H 0.4655 0.44973 0.49768 0.0
C390 C 0.53798 0.52034 0.50765 0.0
C391 C 0.48035 0.50307 0.49202 0.0
C392 C 0.44702 0.51036 0.47859 0.0
C393 C 0.54334 0.48682 0.51604 0.0
C394 C 0.51696 0.46111 0.51221 0.0
C395 C 0.48568 0.46958 0.50046 0.0
C396 C 0.52074 0.42558 0.52104 0.0
C397 C 0.5768 0.47934 0.5293 0.0
C398 C 0.54874 0.40369 0.51401 0.0
C399 C 0.5535 0.37105 0.52364 0.0
C400 C 0.53028 0.35995 0.54042 0.0
C401 C 0.50137 0.3814 0.54672 0.0
C402 C 0.49658 0.41389 0.53705 0.0
H403 H 0.59046 0.50355 0.53463 0.0
H404 H 0.57019 0.46368 0.54405 0.0
H405 H 0.59604 0.46416 0.51916 0.0
H406 H 0.56729 0.41214 0.50139 0.0
H407 H 0.57603 0.35508 0.51847 0.0
H408 H 0.35265 0.88457 0.12753 0.0
H409 H 0.31209 0.93434 0.12424 0.0
H410 H 0.32491 0.93282 0.05402 0.0
H411 H 0.3662 0.88349 0.05712 0.0
H412 H 0.33059 0.00075 0.10302 0.0
H413 H 0.21308 0.93405 0.06516 0.0
H414 H 0.24757 0.91073 0.08005 0.0
H415 H 0.25658 0.9266 0.05296 0.0
C416 C 0.34704 0.89481 0.11137 0.0
C417 C 0.36285 0.87992 0.09261 0.0
C418 C 0.32369 0.92317 0.10953 0.0
C419 C 0.31536 0.93704 0.08889 0.0
C420 C 0.33064 0.92213 0.07008 0.0
H421 H 0.16764 0.10657 0.05549 0.0
H422 H 0.21204 0.05963 0.0532 0.0
C423 C 0.35416 0.89382 0.0719 0.0
C424 C 0.2916 0.96788 0.08726 0.0
H425 H 0.20793 -0.00566 0.07101 0.0
C426 C 0.30379 -0.00056 0.09597 0.0
C427 C 0.25688 0.96606 0.07784 0.0
C428 C 0.24245 0.93256 0.06855 0.0
C429 C 0.28202 0.02929 0.09568 0.0
C430 C 0.24676 0.02724 0.08696 0.0
C431 C 0.23492 -0.00416 0.07774 0.0
C432 C 0.22117 0.05685 0.08818 0.0
C433 C 0.29713 0.0628 0.10457 0.0
C434 C 0.21145 0.0708 0.1086 0.0
C435 C 0.18638 0.09782 0.10996 0.0
C436 C 0.17013 0.11128 0.09093 0.0
C437 C 0.17998 0.09728 0.07045 0.0
C438 C 0.20517 0.07024 0.06912 0.0
H439 H 0.32705 0.06289 0.10402 0.0
H440 H 0.28695 0.08555 0.09523 0.0
H441 H 0.28886 0.06578 0.12196 0.0
H442 H 0.22286 0.06041 0.12358 0.0
H443 H 0.17971 0.10811 0.12596 0.0
H444 H 0.12977 0.42248 0.39758 0.0
H445 H 0.17477 0.46817 0.4013 0.0
H446 H 0.23963 0.40098 0.4419 0.0
H447 H 0.19501 0.35461 0.43779 0.0
H448 H 0.20206 0.50016 0.44004 0.0
H449 H 0.30833 0.43182 0.39202 0.0
H450 H 0.26168 0.41873 0.39141 0.0
H451 H 0.28929 0.40816 0.41463 0.0
C452 C 0.15374 0.41722 0.40712 0.0
C453 C 0.15898 0.38472 0.41718 0.0
C454 C 0.17927 0.44349 0.4094 0.0
C455 C 0.21064 0.4378 0.42168 0.0
C456 C 0.21575 0.4057 0.43213 0.0
H457 H 0.36477 0.60381 0.45228 0.0
H458 H 0.32176 0.55605 0.45604 0.0
C459 C 0.19012 0.37935 0.4299 0.0
C460 C 0.23812 0.46549 0.42307 0.0
H461 H 0.32283 0.48694 0.40614 0.0
C462 C 0.22861 0.49724 0.43282 0.0
C463 C 0.27254 0.46157 0.41343 0.0
C464 C 0.28367 0.42837 0.40212 0.0
C465 C 0.2525 0.52545 0.4329 0.0
C466 C 0.28681 0.52159 0.42313 0.0
C467 C 0.29652 0.48967 0.4137 0.0
C468 C 0.31219 0.551 0.4212 0.0
C469 C 0.24043 0.55954 0.44271 0.0
C470 C 0.32119 0.56373 0.40039 0.0
C471 C 0.34559 0.591 0.39819 0.0
C472 C 0.36167 0.606 0.41677 0.0
C473 C 0.35245 0.59326 0.43766 0.0
C474 C 0.32796 0.56591 0.43985 0.0
H475 H 0.21099 0.56002 0.446 0.0
H476 H 0.25473 0.56378 0.45845 0.0
H477 H 0.24719 0.58143 0.43161 0.0
H478 H 0.3092 0.55259 0.38581 0.0
H479 H 0.3517 0.60046 0.38191 0.0
H480 H 0.86338 0.8808 0.94935 0.0
H481 H 0.8221 0.93026 0.95242 0.0
H482 H 0.8148 0.93583 0.88199 0.0
H483 H 0.85537 0.8861 0.87873 0.0
H484 H 0.83216 0.00062 0.9047 0.0
H485 H 0.71143 0.93378 0.93855 0.0
H486 H 0.75394 0.92561 0.95179 0.0
H487 H 0.74677 0.91061 0.9243 0.0
C488 C 0.85253 0.89208 0.93451 0.0
C489 C 0.86284 0.87942 0.91376 0.0
C490 C 0.82901 0.92044 0.93631 0.0
C491 C 0.81533 0.93655 0.91743 0.0
C492 C 0.82517 0.92377 0.89676 0.0
H493 H 0.68377 0.10868 0.87791 0.0
H494 H 0.72643 0.06071 0.8814 0.0
C495 C 0.84852 0.89542 0.89493 0.0
C496 C 0.79179 0.96759 0.919 0.0
H497 H 0.70708 0.99421 0.93308 0.0
C498 C 0.80485 -0.00069 0.91099 0.0
C499 C 0.75638 0.96578 0.92742 0.0
C500 C 0.74101 0.93214 0.93592 0.0
C501 C 0.78324 0.02927 0.91092 0.0
C502 C 0.74731 0.02721 0.91856 0.0
C503 C 0.73459 -0.0043 0.92716 0.0
C504 C 0.72195 0.05694 0.91669 0.0
C505 C 0.79919 0.06287 0.90275 0.0
C506 C 0.70457 0.07031 0.93532 0.0
C507 C 0.67971 0.09754 0.93334 0.0
C508 C 0.67155 0.11173 0.91264 0.0
C509 C 0.68915 0.09826 0.89406 0.0
C510 C 0.71391 0.07107 0.89606 0.0
H511 H 0.82904 0.0628 0.90417 0.0
H512 H 0.79232 0.06624 0.88517 0.0
H513 H 0.78838 0.08549 0.91196 0.0
H514 H 0.71013 0.05957 0.95139 0.0
H515 H 0.66629 0.10685 0.94796 0.0
H516 H 0.69642 0.35387 0.56217 0.0
H517 H 0.74018 0.40103 0.55746 0.0
H518 H 0.67784 0.46576 0.60103 0.0
H519 H 0.6339 0.41926 0.60547 0.0
H520 H 0.70285 0.49953 0.5616 0.0
H521 H 0.81118 0.43007 0.60728 0.0
H522 H 0.79062 0.40723 0.58482 0.0
H523 H 0.76453 0.41717 0.60879 0.0
C524 C 0.69192 0.37828 0.57055 0.0
C525 C 0.66196 0.3827 0.58441 0.0
C526 C 0.71701 0.40507 0.56796 0.0
C527 C 0.71238 0.43667 0.57911 0.0
C528 C 0.68195 0.44149 0.59238 0.0
H529 H 0.85063 0.59966 0.62123 0.0
H530 H 0.80889 0.55136 0.61647 0.0
C531 C 0.65705 0.41476 0.59506 0.0
C532 C 0.73962 0.46457 0.57772 0.0
H533 H 0.82415 0.48642 0.59477 0.0
C534 C 0.72955 0.49663 0.5686 0.0
C535 C 0.77421 0.46067 0.58711 0.0
C536 C 0.78592 0.42706 0.59771 0.0
C537 C 0.75302 0.52517 0.56897 0.0
C538 C 0.78744 0.52136 0.5786 0.0
C539 C 0.79775 0.48912 0.58734 0.0
C540 C 0.81233 0.55106 0.58107 0.0
C541 C 0.74039 0.55953 0.55985 0.0
C542 C 0.82811 0.56683 0.56272 0.0
C543 C 0.85221 0.59438 0.56539 0.0
C544 C 0.86102 0.60654 0.58649 0.0
C545 C 0.84488 0.5907 0.60479 0.0
C546 C 0.82089 0.56318 0.6021 0.0
H547 H 0.711 0.55966 0.55641 0.0
H548 H 0.74656 0.58092 0.57146 0.0
H549 H 0.75485 0.56492 0.54429 0.0
H550 H 0.82221 0.55748 0.54636 0.0
H551 H 0.86455 0.60554 0.55096 0.0
H552 H 0.18967 0.2329 0.0585 0.0
H553 H 0.25181 0.24357 0.04722 0.0
H554 H 0.21635 0.26036 0.98072 0.0
H555 H 0.15417 0.24878 0.99178 0.0
H556 H 0.27254 0.21805 0.98155 0.0
H557 H 0.30409 0.33196 0.03329 0.0
H558 H 0.2885 0.29583 0.04919 0.0
H559 H 0.25872 0.31619 0.02972 0.0
C560 C 0.19499 0.23929 0.04152 0.0
C561 C 0.16685 0.24009 0.02606 0.0
C562 C 0.2306 0.24563 0.03511 0.0
C563 C 0.23885 0.25344 0.01317 0.0
C564 C 0.21072 0.25459 0.99776 0.0
H565 H 0.45261 0.31918 0.96711 0.0
H566 H 0.38904 0.31816 0.97832 0.0
C567 C 0.17514 0.24797 0.00412 0.0
C568 C 0.27696 0.25814 0.00602 0.0
H569 H 0.35451 0.30274 0.01692 0.0
C570 C 0.29032 0.2368 0.98919 0.0
C571 C 0.30019 0.28294 0.0157 0.0
C572 C 0.28706 0.30828 0.03281 0.0
C573 C 0.32632 0.23886 0.98221 0.0
C574 C 0.35007 0.2623 0.99272 0.0
C575 C 0.3365 0.28442 0.00908 0.0
C576 C 0.38911 0.26369 0.98711 0.0
C577 C 0.33842 0.21608 0.96344 0.0
C578 C 0.4106 0.23379 0.98897 0.0
C579 C 0.44672 0.2343 0.9825 0.0
C580 C 0.46241 0.26487 0.97429 0.0
C581 C 0.44135 0.29527 0.97339 0.0
C582 C 0.405 0.29467 0.97973 0.0
H583 H 0.31533 0.20802 0.95304 0.0
H584 H 0.35842 0.22958 0.95294 0.0
H585 H 0.35114 0.1922 0.97009 0.0
H586 H 0.39934 0.20985 0.99525 0.0
H587 H 0.4624 0.21066 0.98389 0.0
H588 H 0.0732 0.6693 0.97842 0.0
H589 H 0.13677 0.67159 0.98951 0.0
H590 H 0.1356 0.78301 0.98159 0.0
H591 H 0.07291 0.78039 0.96952 0.0
H592 H 0.19431 0.7592 0.96534 0.0
H593 H 0.17783 0.69831 0.04694 0.0
H594 H 0.16353 0.67029 0.02518 0.0
H595 H 0.13987 0.71045 0.03017 0.0
C596 C 0.0867 0.69417 0.9791 0.0
C597 C 0.0683 0.72461 0.97305 0.0
C598 C 0.12289 0.69556 0.98561 0.0
C599 C 0.14098 0.72758 0.98686 0.0
C600 C 0.12243 0.75797 0.98079 0.0
H601 H 0.33843 0.76908 0.05821 0.0
H602 H 0.27632 0.76083 0.046 0.0
C603 C 0.0866 0.75648 0.97384 0.0
C604 C 0.1794 0.72972 0.99394 0.0
H605 H 0.23794 0.70748 0.03489 0.0
C606 C 0.20376 0.74796 0.98061 0.0
C607 C 0.19183 0.71553 0.01401 0.0
C608 C 0.16682 0.69788 0.03 0.0
C609 C 0.23991 0.75261 0.98675 0.0
C610 C 0.25268 0.73726 0.0064 0.0
C611 C 0.22837 0.71891 0.01971 0.0
C612 C 0.29071 0.74114 0.0139 0.0
C613 C 0.26352 0.77509 0.97247 0.0
C614 C 0.31972 0.73224 1.00015 0.0
C615 C 0.35529 0.73764 0.00694 0.0
C616 C 0.36264 0.75108 0.02788 0.0
C617 C 0.33367 0.75863 0.04198 0.0
C618 C 0.29811 0.7539 0.03501 0.0
H619 H 0.24726 0.79323 0.9623 0.0
H620 H 0.28263 0.79059 0.98245 0.0
H621 H 0.27922 0.75831 0.96116 0.0
H622 H 0.31489 0.72124 0.98409 0.0
H623 H 0.37706 0.73114 0.99583 0.0
H624 H 0.47452 0.24728 0.5012 0.0
H625 H 0.41338 0.24951 0.48598 0.0
H626 H 0.37388 0.19264 0.54201 0.0
H627 H 0.43522 0.18875 0.55644 0.0
H628 H 0.3423 0.16951 0.50832 0.0
H629 H 0.33427 0.31255 0.50268 0.0
H630 H 0.37068 0.29598 0.48646 0.0
H631 H 0.37143 0.29075 0.51584 0.0
C632 C 0.45268 0.23515 0.51011 0.0
C633 C 0.45951 0.21777 0.52991 0.0
C634 C 0.41768 0.23677 0.50157 0.0
C635 C 0.3886 0.22209 0.51309 0.0
C636 C 0.39565 0.20431 0.53278 0.0
H637 H 0.1641 0.27389 0.48246 0.0
H638 H 0.22434 0.2704 0.49884 0.0
C639 C 0.43073 0.20196 0.54101 0.0
C640 C 0.35098 0.2245 0.50454 0.0
H641 H 0.28801 0.28093 0.48425 0.0
C642 C 0.33041 0.19398 0.50324 0.0
C643 C 0.33489 0.25645 0.4983 0.0
C644 C 0.35384 0.2908 0.50113 0.0
C645 C 0.29467 0.19437 0.49565 0.0
C646 C 0.27939 0.22596 0.48808 0.0
C647 C 0.29972 0.25659 0.48972 0.0
C648 C 0.24252 0.2278 0.47837 0.0
C649 C 0.27352 0.16096 0.49648 0.0
C650 C 0.2326 0.20543 0.46121 0.0
C651 C 0.19795 0.20679 0.45229 0.0
C652 C 0.17272 0.23135 0.45979 0.0
C653 C 0.18291 0.25455 0.47644 0.0
C654 C 0.21738 0.25261 0.48576 0.0
H655 H 0.2839 0.14336 0.50948 0.0
H656 H 0.24449 0.16584 0.49963 0.0
H657 H 0.27634 0.14717 0.4806 0.0
H658 H 0.25176 0.18701 0.45454 0.0
H659 H 0.19118 0.18905 0.43915 0.0
H660 H 0.06557 0.81679 0.5182 0.0
H661 H 0.12862 0.81509 0.50609 0.0
H662 H 0.14157 0.71433 0.53591 0.0
H663 H 0.07869 0.71555 0.54772 0.0
H664 H 0.19511 0.80372 0.53234 0.0
H665 H 0.16959 0.70163 0.46972 0.0
H666 H 0.13386 0.72753 0.4815 0.0
H667 H 0.15362 0.69272 0.49698 0.0
C668 C 0.08194 0.79437 0.52223 0.0
C669 C 0.06709 0.76635 0.53391 0.0
C670 C 0.11791 0.79349 0.51539 0.0
C671 C 0.13954 0.76442 0.51992 0.0
C672 C 0.12517 0.73686 0.5321 0.0
H673 H 0.35361 0.70316 0.47547 0.0
H674 H 0.29442 0.70551 0.49311 0.0
C675 C 0.0893 0.73779 0.53904 0.0
C676 C 0.17683 0.76247 0.51137 0.0
H677 H 0.22979 0.71943 0.47447 0.0
C678 C 0.20279 0.78534 0.51969 0.0
C679 C 0.18667 0.73831 0.49495 0.0
C680 C 0.15952 0.71375 0.48508 0.0
C681 C 0.23856 0.78447 0.51216 0.0
C682 C 0.24832 0.76066 0.49546 0.0
C683 C 0.22232 0.73762 0.48728 0.0
C684 C 0.28502 0.75979 0.48576 0.0
C685 C 0.26566 0.80862 0.52245 0.0
C686 C 0.29935 0.78943 0.47564 0.0
C687 C 0.33323 0.78823 0.46567 0.0
C688 C 0.35332 0.75721 0.46535 0.0
C689 C 0.33891 0.7275 0.47546 0.0
C690 C 0.30506 0.72879 0.48554 0.0
H691 H 0.25703 0.81698 0.53909 0.0
H692 H 0.29258 0.79614 0.52372 0.0
H693 H 0.26823 0.83224 0.51216 0.0
H694 H 0.28402 0.81338 0.47506 0.0
H695 H 0.34335 0.81151 0.45787 0.0
H696 H 0.56839 0.66574 0.02703 0.0
H697 H 0.63033 0.66443 0.01299 0.0
H698 H 0.63184 0.77631 0.01148 0.0
H699 H 0.5701 0.77797 0.02496 0.0
H700 H 0.65897 0.69623 0.97298 0.0
H701 H 0.72163 0.74876 0.04867 0.0
H702 H 0.67703 0.73012 0.04835 0.0
H703 H 0.68414 0.77344 0.03834 0.0
C704 C 0.58176 0.69006 0.02355 0.0
C705 C 0.56424 0.72196 0.02746 0.0
C706 C 0.61722 0.68926 0.01563 0.0
C707 C 0.63587 0.72029 0.01161 0.0
C708 C 0.61823 0.75207 0.01496 0.0
H709 H 0.84734 0.78256 0.96648 0.0
H710 H 0.78602 0.7792 0.9811 0.0
C711 C 0.58286 0.75292 0.02276 0.0
C712 C 0.67368 0.71976 0.00367 0.0
H713 H 0.759 0.74502 0.01718 0.0
C714 C 0.68094 0.70659 0.98269 0.0
C715 C 0.7022 0.73352 0.01633 0.0
C716 C 0.69607 0.74702 0.03926 0.0
C717 C 0.71586 0.70768 0.97376 0.0
C718 C 0.74442 0.72158 0.9864 0.0
C719 C 0.73714 0.73442 0.00749 0.0
C720 C 0.78197 0.72336 0.97796 0.0
C721 C 0.72157 0.69499 0.9506 0.0
C722 C 0.80042 0.69304 0.97177 0.0
C723 C 0.8354 0.69488 0.96332 0.0
C724 C 0.85287 0.72709 0.96111 0.0
C725 C 0.83471 0.75735 0.96791 0.0
C726 C 0.79963 0.75548 0.97627 0.0
H727 H 0.6959 0.69416 0.94125 0.0
H728 H 0.74086 0.71185 0.94167 0.0
H729 H 0.73281 0.66827 0.95106 0.0
H730 H 0.78773 0.66788 0.97343 0.0
H731 H 0.84865 0.67102 0.95842 0.0
H732 H 0.68934 0.23451 0.94299 0.0
H733 H 0.7518 0.24385 0.95411 0.0
H734 H 0.71729 0.25998 0.02086 0.0
H735 H 0.65473 0.2498 0.00997 0.0
H736 H 0.7872 0.29792 0.97287 0.0
H737 H 0.79113 0.18364 0.0282 0.0
H738 H 0.75452 0.19132 0.00938 0.0
H739 H 0.75647 0.21436 0.03501 0.0
C740 C 0.69494 0.24022 0.96004 0.0
C741 C 0.66698 0.24113 0.97562 0.0
C742 C 0.73074 0.24558 0.96637 0.0
C743 C 0.73942 0.25199 0.9884 0.0
C744 C 0.71142 0.25421 0.00386 0.0
H745 H 0.95325 0.31875 0.03414 0.0
H746 H 0.88996 0.31803 0.02251 0.0
C747 C 0.67561 0.24858 0.99758 0.0
C748 C 0.7778 0.25555 0.99517 0.0
H749 H 0.8422 0.22021 0.02846 0.0
C750 C 0.79925 0.28096 0.98504 0.0
C751 C 0.79371 0.23307 0.01081 0.0
C752 C 0.77291 0.20384 0.02134 0.0
C753 C 0.83604 0.28455 0.99016 0.0
C754 C 0.85169 0.2626 0.00618 0.0
C755 C 0.8302 0.23724 0.0163 0.0
C756 C 0.8906 0.26423 0.01215 0.0
C757 C 0.85799 0.3111 0.97786 0.0
C758 C 0.91204 0.23426 0.01043 0.0
C759 C 0.94795 0.23456 0.01727 0.0
C760 C 0.96341 0.26486 0.02599 0.0
C761 C 0.94224 0.29516 0.02725 0.0
C762 C 0.90607 0.29476 0.02055 0.0
H763 H 0.8447 0.31902 0.96232 0.0
H764 H 0.86107 0.33464 0.98818 0.0
H765 H 0.88527 0.30092 0.97399 0.0
H766 H 0.90085 0.21041 0.00395 0.0
H767 H 0.96365 0.21093 0.01582 0.0
H768 H 0.8423 0.8115 0.54663 0.0
H769 H 0.78253 0.81275 0.52991 0.0
H770 H 0.79475 0.7056 0.5106 0.0
H771 H 0.85427 0.70382 0.5278 0.0
H772 H 0.76002 0.80198 0.48805 0.0
H773 H 0.70003 0.70317 0.54323 0.0
H774 H 0.74333 0.72262 0.5485 0.0
H775 H 0.7392 0.68806 0.52882 0.0
C776 C 0.83234 0.78817 0.53881 0.0
C777 C 0.85297 0.75747 0.53871 0.0
C778 C 0.79815 0.78895 0.52924 0.0
C779 C 0.78386 0.7591 0.51936 0.0
C780 C 0.80483 0.7287 0.51862 0.0
H781 H 0.57869 0.7157 0.45666 0.0
H782 H 0.64165 0.71508 0.46834 0.0
C783 C 0.83897 0.7278 0.52833 0.0
C784 C 0.74698 0.75993 0.50993 0.0
H785 H 0.66397 0.72224 0.5135 0.0
C786 C 0.739 0.78459 0.49364 0.0
C787 C 0.71952 0.73729 0.5173 0.0
C788 C 0.72575 0.71151 0.53557 0.0
C789 C 0.70443 0.78697 0.48438 0.0
C790 C 0.67712 0.76427 0.49171 0.0
C791 C 0.68509 0.73949 0.50786 0.0
C792 C 0.63982 0.76609 0.48313 0.0
C793 C 0.69743 0.81344 0.46664 0.0
C794 C 0.61798 0.79509 0.4875 0.0
C795 C 0.58193 0.79556 0.48081 0.0
C796 C 0.56711 0.76707 0.46959 0.0
C797 C 0.58935 0.73835 0.46487 0.0
C798 C 0.62529 0.73782 0.47169 0.0
H799 H 0.72286 0.82363 0.45954 0.0
H800 H 0.68094 0.80204 0.45328 0.0
H801 H 0.68217 0.83561 0.47369 0.0
H802 H 0.62856 0.81697 0.49658 0.0
H803 H 0.56546 0.818 0.48463 0.0
H804 H 0.94735 0.27618 0.46282 0.0
H805 H 0.88505 0.27691 0.47564 0.0
H806 H 0.89463 0.16955 0.49504 0.0
H807 H 0.95743 0.1689 0.48252 0.0
H808 H 0.82649 0.24091 0.46369 0.0
H809 H 0.85763 0.21257 0.55077 0.0
H810 H 0.89209 0.22347 0.53111 0.0
H811 H 0.8744 0.18003 0.53234 0.0
C812 C 0.93615 0.25258 0.4696 0.0
C813 C 0.95738 0.22241 0.47164 0.0
C814 C 0.90052 0.25311 0.47704 0.0
C815 C 0.88523 0.2235 0.48668 0.0
C816 C 0.90606 0.19303 0.48822 0.0
H817 H 0.67319 0.17467 0.53746 0.0
H818 H 0.73405 0.17349 0.52222 0.0
C819 C 0.94188 0.19259 0.48096 0.0
C820 C 0.8475 0.22466 0.49499 0.0
H821 H 0.79581 0.21177 0.54067 0.0
C822 C 0.81983 0.23469 0.48055 0.0
C823 C 0.83876 0.21676 0.51704 0.0
C824 C 0.8673 0.20795 0.53378 0.0
C825 C 0.78372 0.2364 0.48746 0.0
C826 C 0.77503 0.22801 0.50938 0.0
C827 C 0.80259 0.21805 0.52383 0.0
C828 C 0.73743 0.22906 0.51765 0.0
C829 C 0.75496 0.2466 0.4712 0.0
C830 C 0.71909 0.26077 0.52011 0.0
C831 C 0.68422 0.26161 0.52893 0.0
C832 C 0.66707 0.23071 0.53543 0.0
C833 C 0.68544 0.19898 0.53259 0.0
C834 C 0.72031 0.19821 0.52392 0.0
H835 H 0.76513 0.24628 0.45407 0.0
H836 H 0.73153 0.22883 0.47244 0.0
H837 H 0.74535 0.27325 0.47499 0.0
H838 H 0.73201 0.28492 0.51559 0.0
H839 H 0.67095 0.28649 0.53092 0.0
H840 H 0.14016 0.20165 0.33999 0.0
H841 H 0.14571 0.20948 0.30025 0.0
H842 H 0.04158 0.25931 0.29871 0.0
H843 H 0.03647 0.25316 0.33826 0.0
H844 H 0.10453 0.18814 0.26541 0.0
H845 H 0.10577 0.33168 0.27006 0.0
H846 H 0.11118 0.30442 0.29392 0.0
H847 H 0.06695 0.31337 0.28318 0.0
C848 C 0.11842 0.21423 0.33118 0.0
C849 C 0.08796 0.22691 0.34241 0.0
C850 C 0.12161 0.21861 0.30848 0.0
C851 C 0.09449 0.23582 0.29666 0.0
C852 C 0.06326 0.24678 0.30761 0.0
H853 H 0.04215 0.2327 0.16121 0.0
H854 H 0.04751 0.227 0.20068 0.0
C855 C 0.0601 0.2426 0.33024 0.0
C856 C 0.09859 0.24252 0.27287 0.0
H857 H 0.09472 0.30709 0.23453 0.0
C858 C 0.1028 0.21416 0.25867 0.0
C859 C 0.0972 0.27657 0.26412 0.0
C860 C 0.09543 0.30827 0.27864 0.0
C861 C 0.10374 0.21881 0.23586 0.0
C862 C 0.09959 0.25263 0.22708 0.0
C863 C 0.09732 0.28115 0.2413 0.0
C864 C 0.09542 0.25856 0.20322 0.0
C865 C 0.10891 0.18739 0.22139 0.0
C866 C 0.11952 0.27982 0.19165 0.0
C867 C 0.11606 0.28391 0.16891 0.0
C868 C 0.08827 0.26697 0.15745 0.0
C869 C 0.06349 0.24677 0.16939 0.0
C870 C 0.06688 0.24287 0.19199 0.0
H871 H 0.12296 0.1661 0.23027 0.0
H872 H 0.08217 0.17754 0.21622 0.0
H873 H 0.12464 0.19393 0.20647 0.0
H874 H 0.14148 0.29254 0.20011 0.0
H875 H 0.13543 0.29984 0.16029 0.0
H876 H 0.3934 0.68532 0.16228 0.0
H877 H 0.38815 0.69107 0.20229 0.0
H878 H 0.47781 0.76207 0.20259 0.0
H879 H 0.48317 0.75665 0.16306 0.0
H880 H 0.48214 0.71313 0.23537 0.0
H881 H 0.34732 0.7765 0.23384 0.0
H882 H 0.34995 0.73496 0.2205 0.0
H883 H 0.37445 0.77118 0.2095 0.0
C884 C 0.41208 0.70195 0.17095 0.0
C885 C 0.43892 0.72021 0.15948 0.0
C886 C 0.40894 0.70536 0.19374 0.0
C887 C 0.43231 0.72738 0.20533 0.0
C888 C 0.45955 0.74491 0.19398 0.0
H889 H 0.46641 0.80124 0.33806 0.0
H890 H 0.46557 0.79398 0.29812 0.0
C891 C 0.46277 0.74147 0.17134 0.0
C892 C 0.4287 0.73273 0.22926 0.0
H893 H 0.37307 0.76606 0.26868 0.0
C894 C 0.45828 0.72465 0.24266 0.0
C895 C 0.39757 0.74794 0.23868 0.0
C896 C 0.36558 0.75847 0.22492 0.0
C897 C 0.4576 0.73129 0.26525 0.0
C898 C 0.42666 0.74682 0.27462 0.0
C899 C 0.39683 0.75442 0.26134 0.0
C900 C 0.42454 0.75418 0.29836 0.0
C901 C 0.4898 0.72129 0.279 0.0
C902 C 0.40081 0.73515 0.3115 0.0
C903 C 0.40132 0.73909 0.33423 0.0
C904 C 0.42539 0.76244 0.34427 0.0
C905 C 0.44786 0.7828 0.33089 0.0
C906 C 0.44741 0.77869 0.30811 0.0
H907 H 0.50822 0.70333 0.27014 0.0
H908 H 0.50515 0.74502 0.2833 0.0
H909 H 0.48111 0.70871 0.2945 0.0
H910 H 0.383 0.71609 0.30424 0.0
H911 H 0.38413 0.72242 0.34394 0.0
H912 H 0.88354 0.72682 0.66047 0.0
H913 H 0.88302 0.72136 0.70018 0.0
H914 H 0.96849 0.79649 0.70503 0.0
H915 H 0.96857 0.80312 0.66506 0.0
H916 H 0.98095 0.72837 0.72543 0.0
H917 H 0.85088 0.78847 0.75045 0.0
H918 H 0.84891 0.75887 0.72766 0.0
H919 H 0.87306 0.79896 0.72492 0.0
C920 C 0.90137 0.74327 0.66989 0.0
C921 C 0.92602 0.76561 0.65946 0.0
C922 C 0.90114 0.73988 0.69266 0.0
C923 C 0.92555 0.75864 0.70548 0.0
C924 C 0.94937 0.78186 0.69533 0.0
H925 H 0.98978 0.75317 0.84082 0.0
H926 H 0.98622 0.75922 0.80122 0.0
C927 C 0.94945 0.78551 0.67251 0.0
C928 C 0.92841 0.75141 0.72921 0.0
H929 H 0.88253 0.75664 0.77757 0.0
C930 C 0.95957 0.73472 0.7369 0.0
C931 C 0.90017 0.75922 0.74394 0.0
C932 C 0.86641 0.77759 0.73645 0.0
C933 C 0.96318 0.72535 0.759 0.0
C934 C 0.93519 0.73367 0.77387 0.0
C935 C 0.90388 0.75016 0.76612 0.0
C936 C 0.93869 0.72731 0.79772 0.0
C937 C 0.99664 0.70607 0.76613 0.0
C938 C 0.91292 0.70753 0.80902 0.0
C939 C 0.91486 0.70397 0.83183 0.0
C940 C 0.94259 0.72022 0.84369 0.0
C941 C 0.96869 0.73942 0.83219 0.0
C942 C 0.96665 0.74304 0.80949 0.0
H943 H 1.00946 0.6922 0.75217 0.0
H944 H 0.0165 0.72493 0.77263 0.0
H945 H 0.9905 0.68693 0.77921 0.0
H946 H 0.891 0.69532 0.80021 0.0
H947 H 0.89433 0.68911 0.84022 0.0
H948 H 0.56231 0.1895 0.66734 0.0
H949 H 0.5671 0.19697 0.70712 0.0
H950 H 0.65595 0.26739 0.69801 0.0
H951 H 0.65067 0.26106 0.65834 0.0
H952 H 0.62512 0.18809 0.73754 0.0
H953 H 0.58009 0.32569 0.73117 0.0
H954 H 0.57571 0.2953 0.70881 0.0
H955 H 0.61872 0.31427 0.71491 0.0
C956 C 0.58309 0.2063 0.67382 0.0
C957 C 0.60594 0.22482 0.65964 0.0
C958 C 0.58587 0.21046 0.69653 0.0
C959 C 0.61141 0.23327 0.70541 0.0
C960 C 0.63567 0.25013 0.69142 0.0
H961 H 0.63622 0.30293 0.8418 0.0
H962 H 0.64472 0.2956 0.8021 0.0
C963 C 0.63291 0.24605 0.66874 0.0
C964 C 0.61133 0.24078 0.7292 0.0
H965 H 0.59406 0.3049 0.76652 0.0
C966 C 0.61851 0.21364 0.74389 0.0
C967 C 0.60275 0.27422 0.73739 0.0
C968 C 0.59358 0.30405 0.72231 0.0
C969 C 0.61709 0.21898 0.76663 0.0
C970 C 0.60764 0.25217 0.77481 0.0
C971 C 0.60136 0.27954 0.76014 0.0
C972 C 0.60172 0.25823 0.79848 0.0
C973 C 0.62562 0.18901 0.78172 0.0
C974 C 0.57406 0.24051 0.80932 0.0
C975 C 0.56915 0.2446 0.83181 0.0
C976 C 0.59163 0.2668 0.84399 0.0
C977 C 0.61858 0.28554 0.83292 0.0
C978 C 0.62345 0.28141 0.81029 0.0
H979 H 0.64192 0.16874 0.77333 0.0
H980 H 0.64046 0.19798 0.79647 0.0
H981 H 0.60008 0.17688 0.78722 0.0
H982 H 0.55662 0.22295 0.80041 0.0
H983 H 0.5486 0.22916 0.83976 0.0
loop_
_geom_bond_atom_site_label_1
_geom_bond_atom_site_label_2
_geom_bond_distance
_geom_bond_site_symmetry_2
_ccdc_geom_bond_type
C0 C1 1.351 . S
C0 N3 1.368 . S
C0 H5 0.931 . S
C1 C0 1.351 . S
C1 N2 1.373 . S
C1 H29 0.930 . S
N2 C1 1.373 . S
N2 C4 1.340 . S
N3 C0 1.368 . S
N3 C4 1.321 . S
N3 Co6 2.135 . S
C4 N2 1.340 . S
C4 N3 1.321 . S
C4 H28 0.930 . S
H5 C0 0.931 . S
Co6 N3 2.135 . S
Co6 N9 2.121 . S
Co6 O14 2.055 . S
Co6 O17 2.039 . S
Co6 N20 2.140 . S
C7 O8 1.227 . S
C7 O17 1.265 . S
O8 C7 1.227 . S
N9 Co6 2.121 . S
N9 C11 1.375 . S
N9 C12 1.313 . S
C10 C11 1.338 . S
C10 N13 1.377 1_455 S
C10 H30 0.930 . S
C11 N9 1.375 . S
C11 C10 1.338 . S
C11 H15 0.931 . S
C12 N9 1.313 . S
C12 N13 1.344 1_455 S
C12 H16 0.930 . S
N13 C10 1.377 1_655 S
N13 C12 1.344 1_655 S
O14 Co6 2.055 . S
O14 C18 1.253 . S
H15 C11 0.931 . S
H16 C12 0.930 . S
O17 Co6 2.039 . S
O17 C7 1.265 . S
C18 O14 1.253 . S
C18 O19 1.227 . S
O19 C18 1.227 . S
N20 Co6 2.140 . S
N20 C23 1.346 . S
N20 C24 1.345 . S
C21 C22 1.387 . S
C21 C25 1.391 . S
C22 C21 1.387 . S
C22 C23 1.369 . S
C22 H31 0.929 . S
C23 N20 1.346 . S
C23 C22 1.369 . S
C23 H26 0.928 . S
C24 N20 1.345 . S
C24 C25 1.371 . S
C24 H27 0.931 . S
C25 C21 1.391 . S
C25 C24 1.371 . S
C25 H32 0.930 . S
H26 C23 0.928 . S
H27 C24 0.931 . S
H28 C4 0.930 . S
H29 C1 0.930 . S
H30 C10 0.930 . S
H31 C22 0.929 . S
H32 C25 0.930 . S
C33 C34 1.351 . S
C33 N36 1.368 . S
C33 H38 0.931 . S
C34 C33 1.351 . S
C34 N35 1.373 . S
C34 H62 0.930 . S
N35 C34 1.373 . S
N35 C37 1.340 . S
N36 C33 1.368 . S
N36 C37 1.321 . S
N36 Co39 2.135 . S
C37 N35 1.340 . S
C37 N36 1.321 . S
C37 H61 0.930 . S
H38 C33 0.931 . S
Co39 N36 2.135 . S
Co39 N42 2.121 . S
Co39 O47 2.055 . S
Co39 O50 2.039 . S
Co39 N53 2.140 . S
C40 O41 1.227 . S
C40 O50 1.265 . S
O41 C40 1.227 . S
N42 Co39 2.121 . S
N42 C44 1.375 . S
N42 C45 1.313 . S
C43 C44 1.338 . S
C43 N46 1.377 . S
C43 H63 0.930 . S
C44 N42 1.375 . S
C44 C43 1.338 . S
C44 H48 0.931 . S
C45 N42 1.313 . S
C45 N46 1.344 . S
C45 H49 0.930 . S
N46 C43 1.377 . S
N46 C45 1.344 . S
O47 Co39 2.055 . S
O47 C51 1.253 . S
H48 C44 0.931 . S
H49 C45 0.930 . S
O50 Co39 2.039 . S
O50 C40 1.265 . S
C51 O47 1.253 . S
C51 O52 1.227 . S
O52 C51 1.227 . S
N53 Co39 2.140 . S
N53 C56 1.346 . S
N53 C57 1.345 . S
C54 C55 1.387 . S
C54 C58 1.391 . S
C55 C54 1.387 . S
C55 C56 1.369 . S
C55 H64 0.929 . S
C56 N53 1.346 . S
C56 C55 1.369 . S
C56 H59 0.928 . S
C57 N53 1.345 . S
C57 C58 1.371 . S
C57 H60 0.931 . S
C58 C54 1.391 . S
C58 C57 1.371 . S
C58 H65 0.930 . S
H59 C56 0.928 . S
H60 C57 0.931 . S
H61 C37 0.930 . S
H62 C34 0.930 . S
H63 C43 0.930 . S
H64 C55 0.929 . S
H65 C58 0.930 . S
C66 C67 1.351 . S
C66 N69 1.368 . S
C66 H71 0.931 . S
C67 C66 1.351 . S
C67 N68 1.373 . S
C67 H95 0.930 . S
N68 C67 1.373 . S
N68 C70 1.340 . S
N69 C66 1.368 . S
N69 C70 1.321 . S
N69 Co72 2.135 . S
C70 N68 1.340 . S
C70 N69 1.321 . S
C70 H94 0.930 . S
H71 C66 0.931 . S
Co72 N69 2.135 . S
Co72 N75 2.121 . S
Co72 O80 2.055 . S
Co72 O83 2.039 . S
Co72 N86 2.140 . S
C73 O74 1.227 . S
C73 O83 1.265 . S
O74 C73 1.227 . S
N75 Co72 2.121 . S
N75 C77 1.375 . S
N75 C78 1.313 . S
C76 C77 1.338 . S
C76 N79 1.377 1_455 S
C76 H96 0.930 . S
C77 N75 1.375 . S
C77 C76 1.338 . S
C77 H81 0.931 . S
C78 N75 1.313 . S
C78 N79 1.344 1_455 S
C78 H82 0.930 . S
N79 C76 1.377 1_655 S
N79 C78 1.344 1_655 S
O80 Co72 2.055 . S
O80 C84 1.253 . S
H81 C77 0.931 . S
H82 C78 0.930 . S
O83 Co72 2.039 . S
O83 C73 1.265 . S
C84 O80 1.253 . S
C84 O85 1.227 . S
O85 C84 1.227 . S
N86 Co72 2.140 . S
N86 C89 1.346 . S
N86 C90 1.345 . S
C87 C88 1.387 . S
C87 C91 1.391 . S
C88 C87 1.387 . S
C88 C89 1.369 . S
C88 H97 0.929 . S
C89 N86 1.346 . S
C89 C88 1.369 . S
C89 H92 0.928 . S
C90 N86 1.345 . S
C90 C91 1.371 . S
C90 H93 0.931 . S
C91 C87 1.391 . S
C91 C90 1.371 . S
C91 H98 0.930 . S
H92 C89 0.928 . S
H93 C90 0.931 . S
H94 C70 0.930 . S
H95 C67 0.930 . S
H96 C76 0.930 . S
H97 C88 0.929 . S
H98 C91 0.930 . S
C99 C100 1.351 . S
C99 N102 1.368 . S
C99 H104 0.931 . S
C100 C99 1.351 . S
C100 N101 1.373 . S
C100 H128 0.930 . S
N101 C100 1.373 . S
N101 C103 1.340 . S
N102 C99 1.368 . S
N102 C103 1.321 . S
N102 Co105 2.135 . S
C103 N101 1.340 . S
C103 N102 1.321 . S
C103 H127 0.930 . S
H104 C99 0.931 . S
Co105 N102 2.135 . S
Co105 N108 2.121 . S
Co105 O113 2.055 . S
Co105 O116 2.039 . S
Co105 N119 2.140 . S
C106 O107 1.227 . S
C106 O116 1.265 . S
O107 C106 1.227 . S
N108 Co105 2.121 . S
N108 C110 1.375 . S
N108 C111 1.313 . S
C109 C110 1.338 . S
C109 N112 1.377 . S
C109 H129 0.930 . S
C110 N108 1.375 . S
C110 C109 1.338 . S
C110 H114 0.931 . S
C111 N108 1.313 . S
C111 N112 1.344 . S
C111 H115 0.930 . S
N112 C109 1.377 . S
N112 C111 1.344 . S
O113 Co105 2.055 . S
O113 C117 1.253 . S
H114 C110 0.931 . S
H115 C111 0.930 . S
O116 Co105 2.039 . S
O116 C106 1.265 . S
C117 O113 1.253 . S
C117 O118 1.227 . S
O118 C117 1.227 . S
N119 Co105 2.140 . S
N119 C122 1.346 . S
N119 C123 1.345 . S
C120 C121 1.387 . S
C120 C124 1.391 . S
C121 C120 1.387 . S
C121 C122 1.369 . S
C121 H130 0.929 . S
C122 N119 1.346 . S
C122 C121 1.369 . S
C122 H125 0.928 . S
C123 N119 1.345 . S
C123 C124 1.371 . S
C123 H126 0.931 . S
C124 C120 1.391 . S
C124 C123 1.371 . S
C124 H131 0.930 . S
H125 C122 0.928 . S
H126 C123 0.931 . S
H127 C103 0.930 . S
H128 C100 0.930 . S
H129 C109 0.930 . S
H130 C121 0.929 . S
H131 C124 0.930 . S
C132 C133 1.351 . S
C132 N135 1.368 . S
C132 H137 0.931 . S
C133 C132 1.351 . S
C133 N134 1.373 . S
C133 H161 0.930 . S
N134 C133 1.373 . S
N134 C136 1.340 . S
N135 C132 1.368 . S
N135 C136 1.321 . S
N135 Co138 2.135 . S
C136 N134 1.340 . S
C136 N135 1.321 . S
C136 H160 0.930 . S
H137 C132 0.931 . S
Co138 N135 2.135 . S
Co138 N141 2.121 . S
Co138 O146 2.055 . S
Co138 O149 2.039 . S
Co138 N152 2.140 . S
C139 O140 1.227 . S
C139 O149 1.265 . S
O140 C139 1.227 . S
N141 Co138 2.121 . S
N141 C143 1.375 . S
N141 C144 1.313 . S
C142 C143 1.338 . S
C142 N145 1.377 1_655 S
C142 H162 0.930 . S
C143 N141 1.375 . S
C143 C142 1.338 . S
C143 H147 0.931 . S
C144 N141 1.313 . S
C144 N145 1.344 1_655 S
C144 H148 0.930 . S
N145 C142 1.377 1_455 S
N145 C144 1.344 1_455 S
O146 Co138 2.055 . S
O146 C150 1.253 . S
H147 C143 0.931 . S
H148 C144 0.930 . S
O149 Co138 2.039 . S
O149 C139 1.265 . S
C150 O146 1.253 . S
C150 O151 1.227 . S
O151 C150 1.227 . S
N152 Co138 2.140 . S
N152 C155 1.346 . S
N152 C156 1.345 . S
C153 C154 1.387 . S
C153 C157 1.391 . S
C154 C153 1.387 . S
C154 C155 1.369 . S
C154 H163 0.929 . S
C155 N152 1.346 . S
C155 C154 1.369 . S
C155 H158 0.928 . S
C156 N152 1.345 . S
C156 C157 1.371 . S
C156 H159 0.931 . S
C157 C153 1.391 . S
C157 C156 1.371 . S
C157 H164 0.930 . S
H158 C155 0.928 . S
H159 C156 0.931 . S
H160 C136 0.930 . S
H161 C133 0.930 . S
H162 C142 0.930 . S
H163 C154 0.929 . S
H164 C157 0.930 . S
C165 C166 1.351 . S
C165 N168 1.368 . S
C165 H170 0.931 . S
C166 C165 1.351 . S
C166 N167 1.373 . S
C166 H194 0.930 . S
N167 C166 1.373 . S
N167 C169 1.340 . S
N168 C165 1.368 . S
N168 C169 1.321 . S
N168 Co171 2.135 . S
C169 N167 1.340 . S
C169 N168 1.321 . S
C169 H193 0.930 . S
H170 C165 0.931 . S
Co171 N168 2.135 . S
Co171 N174 2.121 . S
Co171 O179 2.055 . S
Co171 O182 2.039 . S
Co171 N185 2.140 . S
C172 O173 1.227 . S
C172 O182 1.265 . S
O173 C172 1.227 . S
N174 Co171 2.121 . S
N174 C176 1.375 . S
N174 C177 1.313 . S
C175 C176 1.338 . S
C175 N178 1.377 . S
C175 H195 0.930 . S
C176 N174 1.375 . S
C176 C175 1.338 . S
C176 H180 0.931 . S
C177 N174 1.313 . S
C177 N178 1.344 . S
C177 H181 0.930 . S
N178 C175 1.377 . S
N178 C177 1.344 . S
O179 Co171 2.055 . S
O179 C183 1.253 . S
H180 C176 0.931 . S
H181 C177 0.930 . S
O182 Co171 2.039 . S
O182 C172 1.265 . S
C183 O179 1.253 . S
C183 O184 1.227 . S
O184 C183 1.227 . S
N185 Co171 2.140 . S
N185 C188 1.346 . S
N185 C189 1.345 . S
C186 C187 1.387 . S
C186 C190 1.391 . S
C187 C186 1.387 . S
C187 C188 1.369 . S
C187 H196 0.929 . S
C188 N185 1.346 . S
C188 C187 1.369 . S
C188 H191 0.928 . S
C189 N185 1.345 . S
C189 C190 1.371 . S
C189 H192 0.931 . S
C190 C186 1.391 . S
C190 C189 1.371 . S
C190 H197 0.930 . S
H191 C188 0.928 . S
H192 C189 0.931 . S
H193 C169 0.930 . S
H194 C166 0.930 . S
H195 C175 0.930 . S
H196 C187 0.929 . S
H197 C190 0.930 . S
C198 C199 1.351 . S
C198 N201 1.368 . S
C198 H203 0.931 . S
C199 C198 1.351 . S
C199 N200 1.373 . S
C199 H227 0.930 . S
N200 C199 1.373 . S
N200 C202 1.340 . S
N201 C198 1.368 . S
N201 C202 1.321 . S
N201 Co204 2.135 . S
C202 N200 1.340 . S
C202 N201 1.321 . S
C202 H226 0.930 . S
H203 C198 0.931 . S
Co204 N201 2.135 . S
Co204 N207 2.121 . S
Co204 O212 2.055 . S
Co204 O215 2.039 . S
Co204 N218 2.140 . S
C205 O206 1.227 . S
C205 O215 1.265 . S
O206 C205 1.227 . S
N207 Co204 2.121 . S
N207 C209 1.375 . S
N207 C210 1.313 . S
C208 C209 1.338 . S
C208 N211 1.377 1_655 S
C208 H228 0.930 . S
C209 N207 1.375 . S
C209 C208 1.338 . S
C209 H213 0.931 . S
C210 N207 1.313 . S
C210 N211 1.344 1_655 S
C210 H214 0.930 . S
N211 C208 1.377 1_455 S
N211 C210 1.344 1_455 S
O212 Co204 2.055 . S
O212 C216 1.253 . S
H213 C209 0.931 . S
H214 C210 0.930 . S
O215 Co204 2.039 . S
O215 C205 1.265 . S
C216 O212 1.253 . S
C216 O217 1.227 . S
O217 C216 1.227 . S
N218 Co204 2.140 . S
N218 C221 1.346 . S
N218 C222 1.345 . S
C219 C220 1.387 . S
C219 C223 1.391 . S
C220 C219 1.387 . S
C220 C221 1.369 . S
C220 H229 0.929 . S
C221 N218 1.346 . S
C221 C220 1.369 . S
C221 H224 0.928 . S
C222 N218 1.345 . S
C222 C223 1.371 . S
C222 H225 0.931 . S
C223 C219 1.391 . S
C223 C222 1.371 . S
C223 H230 0.930 . S
H224 C221 0.928 . S
H225 C222 0.931 . S
H226 C202 0.930 . S
H227 C199 0.930 . S
H228 C208 0.930 . S
H229 C220 0.929 . S
H230 C223 0.930 . S
C231 C232 1.351 . S
C231 N234 1.368 . S
C231 H236 0.931 . S
C232 C231 1.351 . S
C232 N233 1.373 . S
C232 H260 0.930 . S
N233 C232 1.373 . S
N233 C235 1.340 . S
N234 C231 1.368 . S
N234 C235 1.321 . S
N234 Co237 2.135 . S
C235 N233 1.340 . S
C235 N234 1.321 . S
C235 H259 0.930 . S
H236 C231 0.931 . S
Co237 N234 2.135 . S
Co237 N240 2.121 . S
Co237 O245 2.055 . S
Co237 O248 2.039 . S
Co237 N251 2.140 . S
C238 O239 1.227 . S
C238 O248 1.265 . S
O239 C238 1.227 . S
N240 Co237 2.121 . S
N240 C242 1.375 . S
N240 C243 1.313 . S
C241 C242 1.338 . S
C241 N244 1.377 . S
C241 H261 0.930 . S
C242 N240 1.375 . S
C242 C241 1.338 . S
C242 H246 0.931 . S
C243 N240 1.313 . S
C243 N244 1.344 . S
C243 H247 0.930 . S
N244 C241 1.377 . S
N244 C243 1.344 . S
O245 Co237 2.055 . S
O245 C249 1.253 . S
H246 C242 0.931 . S
H247 C243 0.930 . S
O248 Co237 2.039 . S
O248 C238 1.265 . S
C249 O245 1.253 . S
C249 O250 1.227 . S
O250 C249 1.227 . S
N251 Co237 2.140 . S
N251 C254 1.346 . S
N251 C255 1.345 . S
C252 C253 1.387 . S
C252 C256 1.391 . S
C253 C252 1.387 . S
C253 C254 1.369 . S
C253 H262 0.929 . S
C254 N251 1.346 . S
C254 C253 1.369 . S
C254 H257 0.928 . S
C255 N251 1.345 . S
C255 C256 1.371 . S
C255 H258 0.931 . S
C256 C252 1.391 . S
C256 C255 1.371 . S
C256 H263 0.930 . S
H257 C254 0.928 . S
H258 C255 0.931 . S
H259 C235 0.930 . S
H260 C232 0.930 . S
H261 C241 0.930 . S
H262 C253 0.929 . S
H263 C256 0.930 . S
H264 C272 0.929 . S
H265 C274 0.930 . S
H266 C276 0.930 . S
H267 C279 0.929 . S
H268 C282 0.928 1_545 S
H269 C284 0.960 . S
H270 C284 0.960 1_455 S
H271 C284 0.960 . S
C272 H264 0.929 . S
C272 C273 1.377 . S
C272 C274 1.384 . S
C273 C272 1.377 . S
C273 C279 1.390 1_455 S
C274 H265 0.930 . S
C274 C272 1.384 . S
C274 C275 1.372 . S
C275 C274 1.372 . S
C275 C276 1.400 1_455 S
C275 C280 1.490 . S
C276 H266 0.930 . S
C276 C275 1.400 1_655 S
C276 C279 1.386 . S
H277 C293 0.930 . S
H278 C294 0.931 . S
C279 H267 0.929 . S
C279 C273 1.390 1_655 S
C279 C276 1.386 . S
C280 C275 1.490 . S
C280 C282 1.380 1_545 S
C280 C283 1.403 1_454 S
H281 C287 0.930 . S
C282 H268 0.928 1_565 S
C282 C280 1.380 1_565 S
C282 C285 1.420 . S
C283 C280 1.403 1_656 S
C283 C284 1.524 . S
C283 C287 1.400 1_545 S
C284 H269 0.960 . S
C284 H270 0.960 1_655 S
C284 H271 0.960 . S
C284 C283 1.524 . S
C285 C282 1.420 . S
C285 C286 1.392 1_454 S
C285 C289 1.495 . S
C286 C285 1.392 1_656 S
C286 C287 1.385 . S
C286 C288 1.478 . S
C287 H281 0.930 . S
C287 C283 1.400 1_565 S
C287 C286 1.385 . S
C288 C286 1.478 . S
C288 C290 1.381 1_655 S
C288 C294 1.383 . S
C289 C285 1.495 . S
C289 H295 0.959 . S
C289 H296 0.961 1_455 S
C289 H297 0.960 . S
C290 C288 1.381 1_455 S
C290 C291 1.394 . S
C290 H298 0.930 . S
C291 C290 1.394 . S
C291 C292 1.383 1_455 S
C291 H299 0.929 . S
C292 C291 1.383 1_655 S
C292 C293 1.377 . S
C293 H277 0.930 . S
C293 C292 1.377 . S
C293 C294 1.379 . S
C294 H278 0.931 . S
C294 C288 1.383 . S
C294 C293 1.379 . S
H295 C289 0.959 . S
H296 C289 0.961 1_655 S
H297 C289 0.960 . S
H298 C290 0.930 . S
H299 C291 0.929 . S
H300 C308 0.929 . S
H301 C310 0.930 . S
H302 C312 0.930 . S
H303 C315 0.929 . S
H304 C318 0.930 . S
H305 C320 0.960 1_565 S
H306 C320 0.960 . S
H307 C320 0.960 . S
C308 H300 0.929 . S
C308 C309 1.377 . S
C308 C310 1.384 . S
C309 C308 1.377 . S
C309 C315 1.390 . S
C310 H301 0.930 . S
C310 C308 1.384 . S
C310 C311 1.372 . S
C311 C310 1.372 . S
C311 C312 1.400 . S
C311 C316 1.490 . S
C312 H302 0.930 . S
C312 C311 1.400 . S
C312 C315 1.386 . S
H313 C329 0.930 . S
H314 C330 0.931 . S
C315 H303 0.929 . S
C315 C309 1.390 . S
C315 C312 1.386 . S
C316 C311 1.490 . S
C316 C318 1.395 1_556 S
C316 C319 1.403 . S
H317 C323 0.930 . S
C318 H304 0.930 . S
C318 C316 1.395 1_554 S
C318 C321 1.403 1_545 S
C319 C316 1.403 . S
C319 C320 1.524 . S
C319 C323 1.400 1_545 S
C320 H305 0.960 1_545 S
C320 H306 0.960 . S
C320 H307 0.960 . S
C320 C319 1.524 . S
C321 C318 1.403 1_565 S
C321 C322 1.392 . S
C321 C325 1.495 . S
C322 C321 1.392 . S
C322 C323 1.385 1_554 S
C322 C324 1.478 . S
C323 H317 0.930 . S
C323 C319 1.400 1_565 S
C323 C322 1.385 1_556 S
C324 C322 1.478 . S
C324 C326 1.381 . S
C324 C330 1.383 . S
C325 C321 1.495 . S
C325 H331 0.959 1_565 S
C325 H332 0.961 . S
C325 H333 0.960 . S
C326 C324 1.381 . S
C326 C327 1.394 . S
C326 H334 0.930 . S
C327 C326 1.394 . S
C327 C328 1.383 . S
C327 H335 0.929 . S
C328 C327 1.383 . S
C328 C329 1.377 . S
C329 H313 0.930 . S
C329 C328 1.377 . S
C329 C330 1.379 . S
C330 H314 0.931 . S
C330 C324 1.383 . S
C330 C329 1.379 . S
H331 C325 0.959 1_545 S
H332 C325 0.961 . S
H333 C325 0.960 . S
H334 C326 0.930 . S
H335 C327 0.929 . S
H336 C344 0.924 1_455 S
H337 C346 0.919 1_455 S
H338 C348 0.930 . S
H339 C351 0.929 . S
H340 C354 0.930 . S
H341 C356 0.960 . S
H342 C356 0.960 . S
H343 C356 0.960 . S
C344 H336 0.924 1_655 S
C344 C345 1.377 . S
C344 C346 1.388 . S
C345 C344 1.377 . S
C345 C351 1.390 . S
C346 H337 0.919 1_655 S
C346 C344 1.388 . S
C346 C347 1.379 . S
C347 C346 1.379 . S
C347 C348 1.400 . S
C347 C352 1.490 . S
C348 H338 0.930 . S
C348 C347 1.400 . S
C348 C351 1.386 . S
H349 C365 0.930 1_655 S
H350 C366 0.931 . S
C351 H339 0.929 . S
C351 C345 1.390 . S
C351 C348 1.386 . S
C352 C347 1.490 . S
C352 C354 1.395 . S
C352 C355 1.403 1_655 S
H353 C359 0.930 . S
C354 H340 0.930 . S
C354 C352 1.395 . S
C354 C357 1.403 . S
C355 C352 1.403 1_455 S
C355 C356 1.524 . S
C355 C359 1.400 . S
C356 H341 0.960 . S
C356 H342 0.960 . S
C356 H343 0.960 . S
C356 C355 1.524 . S
C357 C354 1.403 . S
C357 C358 1.392 1_655 S
C357 C361 1.495 . S
C358 C357 1.392 1_455 S
C358 C359 1.385 . S
C358 C360 1.478 . S
C359 H353 0.930 . S
C359 C355 1.400 . S
C359 C358 1.385 . S
C360 C358 1.478 . S
C360 C362 1.381 . S
C360 C366 1.383 1_455 S
C361 C357 1.495 . S
C361 H367 0.959 . S
C361 H368 0.961 . S
C361 H369 0.960 . S
C362 C360 1.381 . S
C362 C363 1.394 . S
C362 H370 0.930 . S
C363 C362 1.394 . S
C363 C364 1.383 . S
C363 H371 0.929 . S
C364 C363 1.383 . S
C364 C365 1.377 . S
C365 H349 0.930 1_455 S
C365 C364 1.377 . S
C365 C366 1.379 1_455 S
C366 H350 0.931 . S
C366 C360 1.383 1_655 S
C366 C365 1.379 1_655 S
H367 C361 0.959 . S
H368 C361 0.961 . S
H369 C361 0.960 . S
H370 C362 0.930 . S
H371 C363 0.929 . S
H372 C380 0.929 . S
H373 C382 0.930 . S
H374 C384 0.930 . S
H375 C387 0.929 . S
H376 C390 0.930 . S
H377 C392 0.960 . S
H378 C392 0.960 . S
H379 C392 0.960 . S
C380 H372 0.929 . S
C380 C381 1.377 . S
C380 C382 1.384 . S
C381 C380 1.377 . S
C381 C387 1.390 . S
C382 H373 0.930 . S
C382 C380 1.384 . S
C382 C383 1.372 . S
C383 C382 1.372 . S
C383 C384 1.400 . S
C383 C388 1.490 . S
C384 H374 0.930 . S
C384 C383 1.400 . S
C384 C387 1.386 . S
H385 C401 0.930 . S
H386 C402 0.931 . S
C387 H375 0.929 . S
C387 C381 1.390 . S
C387 C384 1.386 . S
C388 C383 1.490 . S
C388 C390 1.395 . S
C388 C391 1.403 . S
H389 C395 0.930 . S
C390 H376 0.930 . S
C390 C388 1.395 . S
C390 C393 1.403 . S
C391 C388 1.403 . S
C391 C392 1.524 . S
C391 C395 1.400 . S
C392 H377 0.960 . S
C392 H378 0.960 . S
C392 H379 0.960 . S
C392 C391 1.524 . S
C393 C390 1.403 . S
C393 C394 1.392 . S
C393 C397 1.495 . S
C394 C393 1.392 . S
C394 C395 1.385 . S
C394 C396 1.478 . S
C395 H389 0.930 . S
C395 C391 1.400 . S
C395 C394 1.385 . S
C396 C394 1.478 . S
C396 C398 1.381 . S
C396 C402 1.383 . S
C397 C393 1.495 . S
C397 H403 0.959 . S
C397 H404 0.961 . S
C397 H405 0.960 . S
C398 C396 1.381 . S
C398 C399 1.394 . S
C398 H406 0.930 . S
C399 C398 1.394 . S
C399 C400 1.383 . S
C399 H407 0.929 . S
C400 C399 1.383 . S
C400 C401 1.377 . S
C401 H385 0.930 . S
C401 C400 1.377 . S
C401 C402 1.379 . S
C402 H386 0.931 . S
C402 C396 1.383 . S
C402 C401 1.379 . S
H403 C397 0.959 . S
H404 C397 0.961 . S
H405 C397 0.960 . S
H406 C398 0.930 . S
H407 C399 0.929 . S
H408 C416 0.929 . S
H409 C418 0.930 . S
H410 C420 0.930 . S
H411 C423 0.929 . S
H412 C426 0.930 . S
H413 C428 0.960 . S
H414 C428 0.960 . S
H415 C428 0.960 . S
C416 H408 0.929 . S
C416 C417 1.377 . S
C416 C418 1.384 . S
C417 C416 1.377 . S
C417 C423 1.390 . S
C418 H409 0.930 . S
C418 C416 1.384 . S
C418 C419 1.372 . S
C419 C418 1.372 . S
C419 C420 1.400 . S
C419 C424 1.490 . S
C420 H410 0.930 . S
C420 C419 1.400 . S
C420 C423 1.386 . S
H421 C437 0.930 . S
H422 C438 0.931 . S
C423 H411 0.929 . S
C423 C417 1.390 . S
C423 C420 1.386 . S
C424 C419 1.490 . S
C424 C426 1.395 . S
C424 C427 1.403 . S
H425 C431 0.930 . S
C426 H412 0.930 . S
C426 C424 1.395 . S
C426 C429 1.403 1_565 S
C427 C424 1.403 . S
C427 C428 1.524 . S
C427 C431 1.400 1_565 S
C428 H413 0.960 . S
C428 H414 0.960 . S
C428 H415 0.960 . S
C428 C427 1.524 . S
C429 C426 1.403 1_545 S
C429 C430 1.392 . S
C429 C433 1.495 . S
C430 C429 1.392 . S
C430 C431 1.385 . S
C430 C432 1.478 . S
C431 H425 0.930 . S
C431 C427 1.400 1_545 S
C431 C430 1.385 . S
C432 C430 1.478 . S
C432 C434 1.381 . S
C432 C438 1.383 . S
C433 C429 1.495 . S
C433 H439 0.959 . S
C433 H440 0.961 . S
C433 H441 0.960 . S
C434 C432 1.381 . S
C434 C435 1.394 . S
C434 H442 0.930 . S
C435 C434 1.394 . S
C435 C436 1.383 . S
C435 H443 0.929 . S
C436 C435 1.383 . S
C436 C437 1.377 . S
C437 H421 0.930 . S
C437 C436 1.377 . S
C437 C438 1.379 . S
C438 H422 0.931 . S
C438 C432 1.383 . S
C438 C437 1.379 . S
H439 C433 0.959 . S
H440 C433 0.961 . S
H441 C433 0.960 . S
H442 C434 0.930 . S
H443 C435 0.929 . S
H444 C452 0.929 . S
H445 C454 0.930 . S
H446 C456 0.930 . S
H447 C459 0.929 . S
H448 C462 0.930 . S
H449 C464 0.960 . S
H450 C464 0.960 . S
H451 C464 0.960 . S
C452 H444 0.929 . S
C452 C453 1.377 . S
C452 C454 1.384 . S
C453 C452 1.377 . S
C453 C459 1.390 . S
C454 H445 0.930 . S
C454 C452 1.384 . S
C454 C455 1.372 . S
C455 C454 1.372 . S
C455 C456 1.400 . S
C455 C460 1.490 . S
C456 H446 0.930 . S
C456 C455 1.400 . S
C456 C459 1.386 . S
H457 C473 0.930 . S
H458 C474 0.931 . S
C459 H447 0.929 . S
C459 C453 1.390 . S
C459 C456 1.386 . S
C460 C455 1.490 . S
C460 C462 1.395 . S
C460 C463 1.403 . S
H461 C467 0.930 . S
C462 H448 0.930 . S
C462 C460 1.395 . S
C462 C465 1.403 . S
C463 C460 1.403 . S
C463 C464 1.524 . S
C463 C467 1.400 . S
C464 H449 0.960 . S
C464 H450 0.960 . S
C464 H451 0.960 . S
C464 C463 1.524 . S
C465 C462 1.403 . S
C465 C466 1.392 . S
C465 C469 1.495 . S
C466 C465 1.392 . S
C466 C467 1.385 . S
C466 C468 1.478 . S
C467 H461 0.930 . S
C467 C463 1.400 . S
C467 C466 1.385 . S
C468 C466 1.478 . S
C468 C470 1.381 . S
C468 C474 1.383 . S
C469 C465 1.495 . S
C469 H475 0.959 . S
C469 H476 0.961 . S
C469 H477 0.960 . S
C470 C468 1.381 . S
C470 C471 1.394 . S
C470 H478 0.930 . S
C471 C470 1.394 . S
C471 C472 1.383 . S
C471 H479 0.929 . S
C472 C471 1.383 . S
C472 C473 1.377 . S
C473 H457 0.930 . S
C473 C472 1.377 . S
C473 C474 1.379 . S
C474 H458 0.931 . S
C474 C468 1.383 . S
C474 C473 1.379 . S
H475 C469 0.959 . S
H476 C469 0.961 . S
H477 C469 0.960 . S
H478 C470 0.930 . S
H479 C471 0.929 . S
H480 C488 0.929 . S
H481 C490 0.930 . S
H482 C492 0.930 . S
H483 C495 0.929 . S
H484 C498 0.931 . S
H485 C500 0.960 . S
H486 C500 0.960 . S
H487 C500 0.960 . S
C488 H480 0.929 . S
C488 C489 1.377 . S
C488 C490 1.384 . S
C489 C488 1.377 . S
C489 C495 1.390 . S
C490 H481 0.930 . S
C490 C488 1.384 . S
C490 C491 1.372 . S
C491 C490 1.372 . S
C491 C492 1.400 . S
C491 C496 1.490 . S
C492 H482 0.930 . S
C492 C491 1.400 . S
C492 C495 1.386 . S
H493 C509 0.930 . S
H494 C510 0.931 . S
C495 H483 0.929 . S
C495 C489 1.390 . S
C495 C492 1.386 . S
C496 C491 1.490 . S
C496 C498 1.405 . S
C496 C499 1.403 . S
H497 C503 0.930 . S
C498 H484 0.931 . S
C498 C496 1.405 . S
C498 C501 1.392 1_565 S
C499 C496 1.403 . S
C499 C500 1.524 . S
C499 C503 1.400 1_565 S
C500 H485 0.960 . S
C500 H486 0.960 . S
C500 H487 0.960 . S
C500 C499 1.524 . S
C501 C498 1.392 1_545 S
C501 C502 1.392 . S
C501 C505 1.495 . S
C502 C501 1.392 . S
C502 C503 1.385 . S
C502 C504 1.478 . S
C503 H497 0.930 . S
C503 C499 1.400 1_545 S
C503 C502 1.385 . S
C504 C502 1.478 . S
C504 C506 1.381 . S
C504 C510 1.383 . S
C505 C501 1.495 . S
C505 H511 0.959 . S
C505 H512 0.961 . S
C505 H513 0.960 . S
C506 C504 1.381 . S
C506 C507 1.394 . S
C506 H514 0.930 . S
C507 C506 1.394 . S
C507 C508 1.383 . S
C507 H515 0.929 . S
C508 C507 1.383 . S
C508 C509 1.377 . S
C509 H493 0.930 . S
C509 C508 1.377 . S
C509 C510 1.379 . S
C510 H494 0.931 . S
C510 C504 1.383 . S
C510 C509 1.379 . S
H511 C505 0.959 . S
H512 C505 0.961 . S
H513 C505 0.960 . S
H514 C506 0.930 . S
H515 C507 0.929 . S
H516 C524 0.929 . S
H517 C526 0.930 . S
H518 C528 0.930 . S
H519 C531 0.929 . S
H520 C534 0.930 . S
H521 C536 0.960 . S
H522 C536 0.960 . S
H523 C536 0.960 . S
C524 H516 0.929 . S
C524 C525 1.377 . S
C524 C526 1.384 . S
C525 C524 1.377 . S
C525 C531 1.390 . S
C526 H517 0.930 . S
C526 C524 1.384 . S
C526 C527 1.372 . S
C527 C526 1.372 . S
C527 C528 1.400 . S
C527 C532 1.490 . S
C528 H518 0.930 . S
C528 C527 1.400 . S
C528 C531 1.386 . S
H529 C545 0.930 . S
H530 C546 0.931 . S
C531 H519 0.929 . S
C531 C525 1.390 . S
C531 C528 1.386 . S
C532 C527 1.490 . S
C532 C534 1.395 . S
C532 C535 1.403 . S
H533 C539 0.930 . S
C534 H520 0.930 . S
C534 C532 1.395 . S
C534 C537 1.403 . S
C535 C532 1.403 . S
C535 C536 1.524 . S
C535 C539 1.400 . S
C536 H521 0.960 . S
C536 H522 0.960 . S
C536 H523 0.960 . S
C536 C535 1.524 . S
C537 C534 1.403 . S
C537 C538 1.392 . S
C537 C541 1.495 . S
C538 C537 1.392 . S
C538 C539 1.385 . S
C538 C540 1.478 . S
C539 H533 0.930 . S
C539 C535 1.400 . S
C539 C538 1.385 . S
C540 C538 1.478 . S
C540 C542 1.381 . S
C540 C546 1.383 . S
C541 C537 1.495 . S
C541 H547 0.959 . S
C541 H548 0.961 . S
C541 H549 0.960 . S
C542 C540 1.381 . S
C542 C543 1.394 . S
C542 H550 0.930 . S
C543 C542 1.394 . S
C543 C544 1.383 . S
C543 H551 0.929 . S
C544 C543 1.383 . S
C544 C545 1.377 . S
C545 H529 0.930 . S
C545 C544 1.377 . S
C545 C546 1.379 . S
C546 H530 0.931 . S
C546 C540 1.383 . S
C546 C545 1.379 . S
H547 C541 0.959 . S
H548 C541 0.961 . S
H549 C541 0.960 . S
H550 C542 0.930 . S
H551 C543 0.929 . S
H552 C560 0.929 . S
H553 C562 0.930 . S
H554 C564 0.930 1_556 S
H555 C567 0.929 . S
H556 C570 0.930 . S
H557 C572 0.960 . S
H558 C572 0.960 . S
H559 C572 0.960 . S
C560 H552 0.929 . S
C560 C561 1.377 . S
C560 C562 1.384 . S
C561 C560 1.377 . S
C561 C567 1.390 . S
C562 H553 0.930 . S
C562 C560 1.384 . S
C562 C563 1.372 . S
C563 C562 1.372 . S
C563 C564 1.400 . S
C563 C568 1.490 . S
C564 H554 0.930 1_554 S
C564 C563 1.400 . S
C564 C567 1.386 . S
H565 C581 0.930 . S
H566 C582 0.931 . S
C567 H555 0.929 . S
C567 C561 1.390 . S
C567 C564 1.386 . S
C568 C563 1.490 . S
C568 C570 1.395 . S
C568 C571 1.403 . S
H569 C575 0.927 1_556 S
C570 H556 0.930 . S
C570 C568 1.395 . S
C570 C573 1.403 1_554 S
C571 C568 1.403 . S
C571 C572 1.524 . S
C571 C575 1.407 . S
C572 H557 0.960 . S
C572 H558 0.960 . S
C572 H559 0.960 . S
C572 C571 1.524 . S
C573 C570 1.403 1_556 S
C573 C574 1.392 . S
C573 C577 1.495 . S
C574 C573 1.392 . S
C574 C575 1.380 1_556 S
C574 C576 1.478 . S
C575 H569 0.927 1_554 S
C575 C571 1.407 . S
C575 C574 1.380 1_554 S
C576 C574 1.478 . S
C576 C578 1.381 . S
C576 C582 1.383 . S
C577 C573 1.495 . S
C577 H583 0.959 . S
C577 H584 0.961 . S
C577 H585 0.960 . S
C578 C576 1.381 . S
C578 C579 1.394 . S
C578 H586 0.930 1_556 S
C579 C578 1.394 . S
C579 C580 1.383 . S
C579 H587 0.929 . S
C580 C579 1.383 . S
C580 C581 1.377 . S
C581 H565 0.930 . S
C581 C580 1.377 . S
C581 C582 1.379 . S
C582 H566 0.931 . S
C582 C576 1.383 . S
C582 C581 1.379 . S
H583 C577 0.959 . S
H584 C577 0.961 . S
H585 C577 0.960 . S
H586 C578 0.930 1_554 S
H587 C579 0.929 . S
H588 C596 0.929 . S
H589 C598 0.930 . S
H590 C600 0.930 1_554 S
H591 C603 0.951 . S
H592 C606 0.930 . S
H593 C608 0.960 . S
H594 C608 0.960 . S
H595 C608 0.960 . S
C596 H588 0.929 . S
C596 C597 1.377 . S
C596 C598 1.384 . S
C597 C596 1.377 . S
C597 C603 1.390 . S
C598 H589 0.930 . S
C598 C596 1.384 . S
C598 C599 1.372 . S
C599 C598 1.372 . S
C599 C600 1.400 . S
C599 C604 1.490 . S
C600 H590 0.930 1_556 S
C600 C599 1.400 . S
C600 C603 1.386 . S
H601 C617 0.930 . S
H602 C618 0.931 . S
C603 H591 0.951 . S
C603 C597 1.390 . S
C603 C600 1.386 . S
C604 C599 1.490 . S
C604 C606 1.395 . S
C604 C607 1.403 1_556 S
H605 C611 0.930 . S
C606 H592 0.930 . S
C606 C604 1.395 . S
C606 C609 1.403 . S
C607 C604 1.403 1_554 S
C607 C608 1.524 . S
C607 C611 1.400 . S
C608 H593 0.960 . S
C608 H594 0.960 . S
C608 H595 0.960 . S
C608 C607 1.524 . S
C609 C606 1.403 . S
C609 C610 1.392 1_556 S
C609 C613 1.495 . S
C610 C609 1.392 1_554 S
C610 C611 1.385 . S
C610 C612 1.478 . S
C611 H605 0.930 . S
C611 C607 1.400 . S
C611 C610 1.385 . S
C612 C610 1.478 . S
C612 C614 1.381 . S
C612 C618 1.383 . S
C613 C609 1.495 . S
C613 H619 0.959 . S
C613 H620 0.961 . S
C613 H621 0.960 . S
C614 C612 1.381 . S
C614 C615 1.394 . S
C614 H622 0.930 1_554 S
C615 C614 1.394 . S
C615 C616 1.383 . S
C615 H623 0.929 . S
C616 C615 1.383 . S
C616 C617 1.377 . S
C617 H601 0.930 . S
C617 C616 1.377 . S
C617 C618 1.379 . S
C618 H602 0.931 . S
C618 C612 1.383 . S
C618 C617 1.379 . S
H619 C613 0.959 . S
H620 C613 0.961 . S
H621 C613 0.960 . S
H622 C614 0.930 1_556 S
H623 C615 0.929 . S
H624 C632 0.929 . S
H625 C634 0.930 . S
H626 C636 0.930 . S
H627 C639 0.929 . S
H628 C642 0.930 . S
H629 C644 0.960 . S
H630 C644 0.960 . S
H631 C644 0.960 . S
C632 H624 0.929 . S
C632 C633 1.377 . S
C632 C634 1.384 . S
C633 C632 1.377 . S
C633 C639 1.390 . S
C634 H625 0.930 . S
C634 C632 1.384 . S
C634 C635 1.372 . S
C635 C634 1.372 . S
C635 C636 1.400 . S
C635 C640 1.490 . S
C636 H626 0.930 . S
C636 C635 1.400 . S
C636 C639 1.386 . S
H637 C653 0.930 . S
H638 C654 0.931 . S
C639 H627 0.929 . S
C639 C633 1.390 . S
C639 C636 1.386 . S
C640 C635 1.490 . S
C640 C642 1.395 . S
C640 C643 1.403 . S
H641 C647 0.930 . S
C642 H628 0.930 . S
C642 C640 1.395 . S
C642 C645 1.403 . S
C643 C640 1.403 . S
C643 C644 1.524 . S
C643 C647 1.400 . S
C644 H629 0.960 . S
C644 H630 0.960 . S
C644 H631 0.960 . S
C644 C643 1.524 . S
C645 C642 1.403 . S
C645 C646 1.392 . S
C645 C649 1.495 . S
C646 C645 1.392 . S
C646 C647 1.385 . S
C646 C648 1.478 . S
C647 H641 0.930 . S
C647 C643 1.400 . S
C647 C646 1.385 . S
C648 C646 1.478 . S
C648 C650 1.381 . S
C648 C654 1.383 . S
C649 C645 1.495 . S
C649 H655 0.959 . S
C649 H656 0.961 . S
C649 H657 0.960 . S
C650 C648 1.381 . S
C650 C651 1.394 . S
C650 H658 0.930 . S
C651 C650 1.394 . S
C651 C652 1.383 . S
C651 H659 0.929 . S
C652 C651 1.383 . S
C652 C653 1.377 . S
C653 H637 0.930 . S
C653 C652 1.377 . S
C653 C654 1.379 . S
C654 H638 0.931 . S
C654 C648 1.383 . S
C654 C653 1.379 . S
H655 C649 0.959 . S
H656 C649 0.961 . S
H657 C649 0.960 . S
H658 C650 0.930 . S
H659 C651 0.929 . S
H660 C668 0.929 . S
H661 C670 0.930 . S
H662 C672 0.930 . S
H663 C675 0.929 . S
H664 C678 0.930 . S
H665 C680 0.960 . S
H666 C680 0.960 . S
H667 C680 0.960 . S
C668 H660 0.929 . S
C668 C669 1.377 . S
C668 C670 1.384 . S
C669 C668 1.377 . S
C669 C675 1.390 . S
C670 H661 0.930 . S
C670 C668 1.384 . S
C670 C671 1.372 . S
C671 C670 1.372 . S
C671 C672 1.400 . S
C671 C676 1.490 . S
C672 H662 0.930 . S
C672 C671 1.400 . S
C672 C675 1.386 . S
H673 C689 0.930 . S
H674 C690 0.931 . S
C675 H663 0.929 . S
C675 C669 1.390 . S
C675 C672 1.386 . S
C676 C671 1.490 . S
C676 C678 1.395 . S
C676 C679 1.403 . S
H677 C683 0.930 . S
C678 H664 0.930 . S
C678 C676 1.395 . S
C678 C681 1.403 . S
C679 C676 1.403 . S
C679 C680 1.524 . S
C679 C683 1.400 . S
C680 H665 0.960 . S
C680 H666 0.960 . S
C680 H667 0.960 . S
C680 C679 1.524 . S
C681 C678 1.403 . S
C681 C682 1.392 . S
C681 C685 1.495 . S
C682 C681 1.392 . S
C682 C683 1.385 . S
C682 C684 1.478 . S
C683 H677 0.930 . S
C683 C679 1.400 . S
C683 C682 1.385 . S
C684 C682 1.478 . S
C684 C686 1.381 . S
C684 C690 1.383 . S
C685 C681 1.495 . S
C685 H691 0.959 . S
C685 H692 0.961 . S
C685 H693 0.960 . S
C686 C684 1.381 . S
C686 C687 1.394 . S
C686 H694 0.930 . S
C687 C686 1.394 . S
C687 C688 1.383 . S
C687 H695 0.929 . S
C688 C687 1.383 . S
C688 C689 1.377 . S
C689 H673 0.930 . S
C689 C688 1.377 . S
C689 C690 1.379 . S
C690 H674 0.931 . S
C690 C684 1.383 . S
C690 C689 1.379 . S
H691 C685 0.959 . S
H692 C685 0.961 . S
H693 C685 0.960 . S
H694 C686 0.930 . S
H695 C687 0.929 . S
H696 C704 0.929 . S
H697 C706 0.930 1_556 S
H698 C708 0.930 . S
H699 C711 0.929 . S
H700 C714 0.930 . S
H701 C716 0.960 . S
H702 C716 0.960 . S
H703 C716 0.960 . S
C704 H696 0.929 . S
C704 C705 1.377 . S
C704 C706 1.384 . S
C705 C704 1.377 . S
C705 C711 1.390 . S
C706 H697 0.930 1_554 S
C706 C704 1.384 . S
C706 C707 1.372 . S
C707 C706 1.372 . S
C707 C708 1.400 . S
C707 C712 1.490 . S
C708 H698 0.930 . S
C708 C707 1.400 . S
C708 C711 1.386 . S
H709 C725 0.930 . S
H710 C726 0.931 . S
C711 H699 0.929 . S
C711 C705 1.390 . S
C711 C708 1.386 . S
C712 C707 1.490 . S
C712 C714 1.395 1_554 S
C712 C715 1.403 . S
H713 C719 0.930 . S
C714 H700 0.930 . S
C714 C712 1.395 1_556 S
C714 C717 1.403 . S
C715 C712 1.403 . S
C715 C716 1.524 . S
C715 C719 1.400 . S
C716 H701 0.960 . S
C716 H702 0.960 . S
C716 H703 0.960 . S
C716 C715 1.524 . S
C717 C714 1.403 . S
C717 C718 1.392 . S
C717 C721 1.495 . S
C718 C717 1.392 . S
C718 C719 1.385 1_556 S
C718 C720 1.478 . S
C719 H713 0.930 . S
C719 C715 1.400 . S
C719 C718 1.385 1_554 S
C720 C718 1.478 . S
C720 C722 1.381 . S
C720 C726 1.383 . S
C721 C717 1.495 . S
C721 H727 0.959 . S
C721 H728 0.961 . S
C721 H729 0.960 . S
C722 C720 1.381 . S
C722 C723 1.394 . S
C722 H730 0.930 . S
C723 C722 1.394 . S
C723 C724 1.383 . S
C723 H731 0.929 . S
C724 C723 1.383 . S
C724 C725 1.377 . S
C725 H709 0.930 . S
C725 C724 1.377 . S
C725 C726 1.379 . S
C726 H710 0.931 . S
C726 C720 1.383 . S
C726 C725 1.379 . S
H727 C721 0.959 . S
H728 C721 0.961 . S
H729 C721 0.960 . S
H730 C722 0.930 . S
H731 C723 0.929 . S
H732 C740 0.929 . S
H733 C742 0.930 . S
H734 C744 0.930 1_554 S
H735 C747 0.929 . S
H736 C750 0.930 . S
H737 C752 0.960 . S
H738 C752 0.960 . S
H739 C752 0.960 . S
C740 H732 0.929 . S
C740 C741 1.377 . S
C740 C742 1.384 . S
C741 C740 1.377 . S
C741 C747 1.390 . S
C742 H733 0.930 . S
C742 C740 1.384 . S
C742 C743 1.372 . S
C743 C742 1.372 . S
C743 C744 1.400 . S
C743 C748 1.490 . S
C744 H734 0.930 1_556 S
C744 C743 1.400 . S
C744 C747 1.386 . S
H745 C761 0.930 . S
H746 C762 0.931 . S
C747 H735 0.929 . S
C747 C741 1.390 . S
C747 C744 1.386 . S
C748 C743 1.490 . S
C748 C750 1.395 . S
C748 C751 1.403 1_556 S
H749 C755 0.930 . S
C750 H736 0.930 . S
C750 C748 1.395 . S
C750 C753 1.403 . S
C751 C748 1.403 1_554 S
C751 C752 1.524 . S
C751 C755 1.400 . S
C752 H737 0.960 . S
C752 H738 0.960 . S
C752 H739 0.960 . S
C752 C751 1.524 . S
C753 C750 1.403 . S
C753 C754 1.392 1_556 S
C753 C757 1.495 . S
C754 C753 1.392 1_554 S
C754 C755 1.385 . S
C754 C756 1.478 . S
C755 H749 0.930 . S
C755 C751 1.400 . S
C755 C754 1.385 . S
C756 C754 1.478 . S
C756 C758 1.396 . S
C756 C762 1.383 . S
C757 C753 1.495 . S
C757 H763 0.959 . S
C757 H764 0.961 . S
C757 H765 0.960 . S
C758 C756 1.396 . S
C758 C759 1.408 . S
C758 H766 0.902 1_554 S
C759 C758 1.408 . S
C759 C760 1.383 . S
C759 H767 0.929 . S
C760 C759 1.383 . S
C760 C761 1.377 . S
C761 H745 0.930 . S
C761 C760 1.377 . S
C761 C762 1.379 . S
C762 H746 0.931 . S
C762 C756 1.383 . S
C762 C761 1.379 . S
H763 C757 0.959 . S
H764 C757 0.961 . S
H765 C757 0.960 . S
H766 C758 0.902 1_556 S
H767 C759 0.929 . S
H768 C776 0.929 . S
H769 C778 0.930 . S
H770 C780 0.930 . S
H771 C783 0.929 . S
H772 C786 0.930 . S
H773 C788 0.960 . S
H774 C788 0.960 . S
H775 C788 0.960 . S
C776 H768 0.929 . S
C776 C777 1.377 . S
C776 C778 1.384 . S
C777 C776 1.377 . S
C777 C783 1.390 . S
C778 H769 0.930 . S
C778 C776 1.384 . S
C778 C779 1.372 . S
C779 C778 1.372 . S
C779 C780 1.400 . S
C779 C784 1.490 . S
C780 H770 0.930 . S
C780 C779 1.400 . S
C780 C783 1.386 . S
H781 C797 0.930 . S
H782 C798 0.931 . S
C783 H771 0.929 . S
C783 C777 1.390 . S
C783 C780 1.386 . S
C784 C779 1.490 . S
C784 C786 1.395 . S
C784 C787 1.403 . S
H785 C791 0.930 . S
C786 H772 0.930 . S
C786 C784 1.395 . S
C786 C789 1.403 . S
C787 C784 1.403 . S
C787 C788 1.524 . S
C787 C791 1.400 . S
C788 H773 0.960 . S
C788 H774 0.960 . S
C788 H775 0.960 . S
C788 C787 1.524 . S
C789 C786 1.403 . S
C789 C790 1.392 . S
C789 C793 1.495 . S
C790 C789 1.392 . S
C790 C791 1.385 . S
C790 C792 1.478 . S
C791 H785 0.930 . S
C791 C787 1.400 . S
C791 C790 1.385 . S
C792 C790 1.478 . S
C792 C794 1.381 . S
C792 C798 1.383 . S
C793 C789 1.495 . S
C793 H799 0.959 . S
C793 H800 0.961 . S
C793 H801 0.960 . S
C794 C792 1.381 . S
C794 C795 1.394 . S
C794 H802 0.930 . S
C795 C794 1.394 . S
C795 C796 1.383 . S
C795 H803 0.929 . S
C796 C795 1.383 . S
C796 C797 1.377 . S
C797 H781 0.930 . S
C797 C796 1.377 . S
C797 C798 1.379 . S
C798 H782 0.931 . S
C798 C792 1.383 . S
C798 C797 1.379 . S
H799 C793 0.959 . S
H800 C793 0.961 . S
H801 C793 0.960 . S
H802 C794 0.930 . S
H803 C795 0.929 . S
H804 C812 0.929 . S
H805 C814 0.930 . S
H806 C816 0.930 . S
H807 C819 0.929 . S
H808 C822 0.930 . S
H809 C824 0.960 . S
H810 C824 0.960 . S
H811 C824 0.960 . S
C812 H804 0.929 . S
C812 C813 1.377 . S
C812 C814 1.384 . S
C813 C812 1.377 . S
C813 C819 1.390 . S
C814 H805 0.930 . S
C814 C812 1.384 . S
C814 C815 1.372 . S
C815 C814 1.372 . S
C815 C816 1.400 . S
C815 C820 1.490 . S
C816 H806 0.930 . S
C816 C815 1.400 . S
C816 C819 1.386 . S
H817 C833 0.930 . S
H818 C834 0.931 . S
C819 H807 0.929 . S
C819 C813 1.390 . S
C819 C816 1.386 . S
C820 C815 1.490 . S
C820 C822 1.395 . S
C820 C823 1.403 . S
H821 C827 0.930 . S
C822 H808 0.930 . S
C822 C820 1.395 . S
C822 C825 1.403 . S
C823 C820 1.403 . S
C823 C824 1.524 . S
C823 C827 1.400 . S
C824 H809 0.960 . S
C824 H810 0.960 . S
C824 H811 0.960 . S
C824 C823 1.524 . S
C825 C822 1.403 . S
C825 C826 1.392 . S
C825 C829 1.495 . S
C826 C825 1.392 . S
C826 C827 1.385 . S
C826 C828 1.478 . S
C827 H821 0.930 . S
C827 C823 1.400 . S
C827 C826 1.385 . S
C828 C826 1.478 . S
C828 C830 1.381 . S
C828 C834 1.383 . S
C829 C825 1.495 . S
C829 H835 0.959 . S
C829 H836 0.961 . S
C829 H837 0.960 . S
C830 C828 1.381 . S
C830 C831 1.394 . S
C830 H838 0.930 . S
C831 C830 1.394 . S
C831 C832 1.383 . S
C831 H839 0.929 . S
C832 C831 1.383 . S
C832 C833 1.377 . S
C833 H817 0.930 . S
C833 C832 1.377 . S
C833 C834 1.379 . S
C834 H818 0.931 . S
C834 C828 1.383 . S
C834 C833 1.379 . S
H835 C829 0.959 . S
H836 C829 0.961 . S
H837 C829 0.960 . S
H838 C830 0.930 . S
H839 C831 0.929 . S
H840 C848 0.929 . S
H841 C850 0.930 . S
H842 C852 0.930 . S
H843 C855 0.929 . S
H844 C858 0.930 . S
H845 C860 0.960 . S
H846 C860 0.960 . S
H847 C860 0.960 . S
C848 H840 0.929 . S
C848 C849 1.377 . S
C848 C850 1.384 . S
C849 C848 1.377 . S
C849 C855 1.390 . S
C850 H841 0.930 . S
C850 C848 1.384 . S
C850 C851 1.372 . S
C851 C850 1.372 . S
C851 C852 1.400 . S
C851 C856 1.490 . S
C852 H842 0.930 . S
C852 C851 1.400 . S
C852 C855 1.386 . S
H853 C869 0.930 . S
H854 C870 0.931 . S
C855 H843 0.929 . S
C855 C849 1.390 . S
C855 C852 1.386 . S
C856 C851 1.490 . S
C856 C858 1.395 . S
C856 C859 1.403 . S
H857 C863 0.930 . S
C858 H844 0.930 . S
C858 C856 1.395 . S
C858 C861 1.403 . S
C859 C856 1.403 . S
C859 C860 1.524 . S
C859 C863 1.400 . S
C860 H845 0.960 . S
C860 H846 0.960 . S
C860 H847 0.960 . S
C860 C859 1.524 . S
C861 C858 1.403 . S
C861 C862 1.392 . S
C861 C865 1.495 . S
C862 C861 1.392 . S
C862 C863 1.385 . S
C862 C864 1.478 . S
C863 H857 0.930 . S
C863 C859 1.400 . S
C863 C862 1.385 . S
C864 C862 1.478 . S
C864 C866 1.381 . S
C864 C870 1.383 . S
C865 C861 1.495 . S
C865 H871 0.959 . S
C865 H872 0.961 . S
C865 H873 0.960 . S
C866 C864 1.381 . S
C866 C867 1.394 . S
C866 H874 0.930 . S
C867 C866 1.394 . S
C867 C868 1.383 . S
C867 H875 0.929 . S
C868 C867 1.383 . S
C868 C869 1.377 . S
C869 H853 0.930 . S
C869 C868 1.377 . S
C869 C870 1.379 . S
C870 H854 0.931 . S
C870 C864 1.383 . S
C870 C869 1.379 . S
H871 C865 0.959 . S
H872 C865 0.961 . S
H873 C865 0.960 . S
H874 C866 0.930 . S
H875 C867 0.929 . S
H876 C884 0.929 . S
H877 C886 0.930 . S
H878 C888 0.930 . S
H879 C891 0.929 . S
H880 C894 0.930 . S
H881 C896 0.960 . S
H882 C896 0.960 . S
H883 C896 0.960 . S
C884 H876 0.929 . S
C884 C885 1.377 . S
C884 C886 1.384 . S
C885 C884 1.377 . S
C885 C891 1.390 . S
C886 H877 0.930 . S
C886 C884 1.384 . S
C886 C887 1.372 . S
C887 C886 1.372 . S
C887 C888 1.400 . S
C887 C892 1.490 . S
C888 H878 0.930 . S
C888 C887 1.400 . S
C888 C891 1.386 . S
H889 C905 0.930 . S
H890 C906 0.931 . S
C891 H879 0.929 . S
C891 C885 1.390 . S
C891 C888 1.386 . S
C892 C887 1.490 . S
C892 C894 1.395 . S
C892 C895 1.403 . S
H893 C899 0.930 . S
C894 H880 0.930 . S
C894 C892 1.395 . S
C894 C897 1.403 . S
C895 C892 1.403 . S
C895 C896 1.524 . S
C895 C899 1.400 . S
C896 H881 0.960 . S
C896 H882 0.960 . S
C896 H883 0.960 . S
C896 C895 1.524 . S
C897 C894 1.403 . S
C897 C898 1.392 . S
C897 C901 1.495 . S
C898 C897 1.392 . S
C898 C899 1.385 . S
C898 C900 1.478 . S
C899 H893 0.930 . S
C899 C895 1.400 . S
C899 C898 1.385 . S
C900 C898 1.478 . S
C900 C902 1.381 . S
C900 C906 1.383 . S
C901 C897 1.495 . S
C901 H907 0.959 . S
C901 H908 0.961 . S
C901 H909 0.960 . S
C902 C900 1.381 . S
C902 C903 1.394 . S
C902 H910 0.930 . S
C903 C902 1.394 . S
C903 C904 1.383 . S
C903 H911 0.929 . S
C904 C903 1.383 . S
C904 C905 1.377 . S
C905 H889 0.930 . S
C905 C904 1.377 . S
C905 C906 1.379 . S
C906 H890 0.931 . S
C906 C900 1.383 . S
C906 C905 1.379 . S
H907 C901 0.959 . S
H908 C901 0.961 . S
H909 C901 0.960 . S
H910 C902 0.930 . S
H911 C903 0.929 . S
H912 C920 0.929 . S
H913 C922 0.930 . S
H914 C924 0.930 . S
H915 C927 0.929 . S
H916 C930 0.930 . S
H917 C932 0.960 . S
H918 C932 0.960 . S
H919 C932 0.960 . S
C920 H912 0.929 . S
C920 C921 1.377 . S
C920 C922 1.384 . S
C921 C920 1.377 . S
C921 C927 1.390 . S
C922 H913 0.930 . S
C922 C920 1.384 . S
C922 C923 1.372 . S
C923 C922 1.372 . S
C923 C924 1.400 . S
C923 C928 1.490 . S
C924 H914 0.930 . S
C924 C923 1.400 . S
C924 C927 1.386 . S
H925 C941 0.930 . S
H926 C942 0.931 . S
C927 H915 0.929 . S
C927 C921 1.390 . S
C927 C924 1.386 . S
C928 C923 1.490 . S
C928 C930 1.395 . S
C928 C931 1.403 . S
H929 C935 0.930 . S
C930 H916 0.930 . S
C930 C928 1.395 . S
C930 C933 1.403 . S
C931 C928 1.403 . S
C931 C932 1.524 . S
C931 C935 1.400 . S
C932 H917 0.960 . S
C932 H918 0.960 . S
C932 H919 0.960 . S
C932 C931 1.524 . S
C933 C930 1.403 . S
C933 C934 1.392 . S
C933 C937 1.495 . S
C934 C933 1.392 . S
C934 C935 1.385 . S
C934 C936 1.478 . S
C935 H929 0.930 . S
C935 C931 1.400 . S
C935 C934 1.385 . S
C936 C934 1.478 . S
C936 C938 1.381 . S
C936 C942 1.383 . S
C937 C933 1.495 . S
C937 H943 0.959 1_655 S
C937 H944 0.961 1_655 S
C937 H945 0.960 . S
C938 C936 1.381 . S
C938 C939 1.394 . S
C938 H946 0.930 . S
C939 C938 1.394 . S
C939 C940 1.383 . S
C939 H947 0.929 . S
C940 C939 1.383 . S
C940 C941 1.377 . S
C941 H925 0.930 . S
C941 C940 1.377 . S
C941 C942 1.379 . S
C942 H926 0.931 . S
C942 C936 1.383 . S
C942 C941 1.379 . S
H943 C937 0.959 1_455 S
H944 C937 0.961 1_455 S
H945 C937 0.960 . S
H946 C938 0.930 . S
H947 C939 0.929 . S
H948 C956 0.929 . S
H949 C958 0.930 . S
H950 C960 0.930 . S
H951 C963 0.929 . S
H952 C966 0.930 . S
H953 C968 0.960 . S
H954 C968 0.960 . S
H955 C968 0.960 . S
C956 H948 0.929 . S
C956 C957 1.377 . S
C956 C958 1.384 . S
C957 C956 1.377 . S
C957 C963 1.390 . S
C958 H949 0.930 . S
C958 C956 1.384 . S
C958 C959 1.372 . S
C959 C958 1.372 . S
C959 C960 1.400 . S
C959 C964 1.490 . S
C960 H950 0.930 . S
C960 C959 1.400 . S
C960 C963 1.386 . S
H961 C977 0.930 . S
H962 C978 0.931 . S
C963 H951 0.929 . S
C963 C957 1.390 . S
C963 C960 1.386 . S
C964 C959 1.490 . S
C964 C966 1.395 . S
C964 C967 1.403 . S
H965 C971 0.930 . S
C966 H952 0.930 . S
C966 C964 1.395 . S
C966 C969 1.403 . S
C967 C964 1.403 . S
C967 C968 1.524 . S
C967 C971 1.400 . S
C968 H953 0.960 . S
C968 H954 0.960 . S
C968 H955 0.960 . S
C968 C967 1.524 . S
C969 C966 1.403 . S
C969 C970 1.392 . S
C969 C973 1.495 . S
C970 C969 1.392 . S
C970 C971 1.385 . S
C970 C972 1.478 . S
C971 H965 0.930 . S
C971 C967 1.400 . S
C971 C970 1.385 . S
C972 C970 1.478 . S
C972 C974 1.381 . S
C972 C978 1.383 . S
C973 C969 1.495 . S
C973 H979 0.959 . S
C973 H980 0.961 . S
C973 H981 0.960 . S
C974 C972 1.381 . S
C974 C975 1.394 . S
C974 H982 0.930 . S
C975 C974 1.394 . S
C975 C976 1.383 . S
C975 H983 0.929 . S
C976 C975 1.383 . S
C976 C977 1.377 . S
C977 H961 0.930 . S
C977 C976 1.377 . S
C977 C978 1.379 . S
C978 H962 0.931 . S
C978 C972 1.383 . S
C978 C977 1.379 . S
H979 C973 0.959 . S
H980 C973 0.961 . S
H981 C973 0.960 . S
H982 C974 0.930 . S
H983 C975 0.929 . S
C273 C18 0.758 . S
C292 C150 0.770 . S
C309 C183 0.761 . S
C328 C51 0.788 . S
C345 C216 0.773 . S
C364 C84 0.790 . S
C381 C117 0.763 . S
C400 C249 0.726 . S
C417 N35 0.623 . S
C436 N2 0.692 . S
C453 N68 0.599 . S
C472 N101 0.626 . S
C489 N134 0.598 . S
C508 N167 0.702 . S
C525 N233 0.623 . S
C544 N200 0.591 . S
C561 C7 1.687 . S
C580 N178 1.757 . S
C597 N145 1.772 . S
C616 C40 1.686 . S
C633 N244 1.768 . S
C652 C73 1.695 . S
C669 N211 1.769 . S
C688 C106 1.710 . S
C705 N46 1.772 . S
C724 C139 1.665 . S
C741 C172 1.684 . S
C760 N13 1.770 . S
C777 C205 1.688 . S
C796 N112 1.773 . S
C813 N79 1.768 . S
C832 C238 1.701 . S
C849 C87 1.412 . S
C868 C21 1.398 . S
C885 C54 1.415 . S
C904 C120 1.412 . S
C921 C219 1.412 . S
C940 C153 1.424 . S
C957 C252 1.416 . S
C976 C186 1.398 . S
