# Generated by pormake.
# Topology uns, (4)-cn, num edge types: 1
# Building blocks:
#     Node 0, Type 0, BuildingBlock: MUDLON_clean_sbu_0, # of connection points: 4
#     Node 1, Type 0, BuildingBlock: MUDLON_clean_sbu_0, # of connection points: 4
#     Node 2, Type 0, BuildingBlock: MUDLON_clean_sbu_0, # of connection points: 4
#     Node 3, Type 0, BuildingBlock: MUDLON_clean_sbu_0, # of connection points: 4
#     Node 4, Type 0, BuildingBlock: MUDLON_clean_sbu_0, # of connection points: 4
#     Node 5, Type 0, BuildingBlock: MUDLON_clean_sbu_0, # of connection points: 4
#     Node 6, Type 0, BuildingBlock: MUDLON_clean_sbu_0, # of connection points: 4
#     Node 7, Type 0, BuildingBlock: MUDLON_clean_sbu_0, # of connection points: 4
#     Node 8, Type 0, BuildingBlock: MUDLON_clean_sbu_0, # of connection points: 4
#     Node 9, Type 0, BuildingBlock: MUDLON_clean_sbu_0, # of connection points: 4
#     Node 10, Type 0, BuildingBlock: MUDLON_clean_sbu_0, # of connection points: 4
#     Node 11, Type 0, BuildingBlock: MUDLON_clean_sbu_0, # of connection points: 4
#     Node 12, Type 0, BuildingBlock: MUDLON_clean_sbu_0, # of connection points: 4
#     Node 13, Type 0, BuildingBlock: MUDLON_clean_sbu_0, # of connection points: 4
#     Node 14, Type 0, BuildingBlock: MUDLON_clean_sbu_0, # of connection points: 4
#     Node 15, Type 0, BuildingBlock: MUDLON_clean_sbu_0, # of connection points: 4
#     Node 16, Type 0, BuildingBlock: MUDLON_clean_sbu_0, # of connection points: 4
#     Node 17, Type 0, BuildingBlock: MUDLON_clean_sbu_0, # of connection points: 4
#     Node 18, Type 0, BuildingBlock: MUDLON_clean_sbu_0, # of connection points: 4
#     Node 19, Type 0, BuildingBlock: MUDLON_clean_sbu_0, # of connection points: 4
#     Node 20, Type 0, BuildingBlock: MUDLON_clean_sbu_0, # of connection points: 4
#     Node 21, Type 0, BuildingBlock: MUDLON_clean_sbu_0, # of connection points: 4
#     Node 22, Type 0, BuildingBlock: MUDLON_clean_sbu_0, # of connection points: 4
#     Node 23, Type 0, BuildingBlock: MUDLON_clean_sbu_0, # of connection points: 4
#     Node 24, Type 0, BuildingBlock: MUDLON_clean_sbu_0, # of connection points: 4
#     Node 25, Type 0, BuildingBlock: MUDLON_clean_sbu_0, # of connection points: 4
#     Node 26, Type 0, BuildingBlock: MUDLON_clean_sbu_0, # of connection points: 4
#     Node 27, Type 0, BuildingBlock: MUDLON_clean_sbu_0, # of connection points: 4
#     Node 28, Type 0, BuildingBlock: MUDLON_clean_sbu_0, # of connection points: 4
#     Node 29, Type 0, BuildingBlock: MUDLON_clean_sbu_0, # of connection points: 4
#     Node 30, Type 0, BuildingBlock: MUDLON_clean_sbu_0, # of connection points: 4
#     Node 31, Type 0, BuildingBlock: MUDLON_clean_sbu_0, # of connection points: 4
#     Node 32, Type 0, BuildingBlock: MUDLON_clean_sbu_0, # of connection points: 4
#     Node 33, Type 0, BuildingBlock: MUDLON_clean_sbu_0, # of connection points: 4
#     Node 34, Type 0, BuildingBlock: MUDLON_clean_sbu_0, # of connection points: 4
#     Node 35, Type 0, BuildingBlock: MUDLON_clean_sbu_0, # of connection points: 4
#     Edge 36, Type (0, 0), BuildingBlock: OJICUG_clean_linker_0, # of connection points: 2
#     Edge 37, Type (0, 0), BuildingBlock: OJICUG_clean_linker_0, # of connection points: 2
#     Edge 38, Type (0, 0), BuildingBlock: OJICUG_clean_linker_0, # of connection points: 2
#     Edge 39, Type (0, 0), BuildingBlock: OJICUG_clean_linker_0, # of connection points: 2
#     Edge 40, Type (0, 0), BuildingBlock: OJICUG_clean_linker_0, # of connection points: 2
#     Edge 41, Type (0, 0), BuildingBlock: OJICUG_clean_linker_0, # of connection points: 2
#     Edge 42, Type (0, 0), BuildingBlock: OJICUG_clean_linker_0, # of connection points: 2
#     Edge 43, Type (0, 0), BuildingBlock: OJICUG_clean_linker_0, # of connection points: 2
#     Edge 44, Type (0, 0), BuildingBlock: OJICUG_clean_linker_0, # of connection points: 2
#     Edge 45, Type (0, 0), BuildingBlock: OJICUG_clean_linker_0, # of connection points: 2
#     Edge 46, Type (0, 0), BuildingBlock: OJICUG_clean_linker_0, # of connection points: 2
#     Edge 47, Type (0, 0), BuildingBlock: OJICUG_clean_linker_0, # of connection points: 2
#     Edge 48, Type (0, 0), BuildingBlock: OJICUG_clean_linker_0, # of connection points: 2
#     Edge 49, Type (0, 0), BuildingBlock: OJICUG_clean_linker_0, # of connection points: 2
#     Edge 50, Type (0, 0), BuildingBlock: OJICUG_clean_linker_0, # of connection points: 2
#     Edge 51, Type (0, 0), BuildingBlock: OJICUG_clean_linker_0, # of connection points: 2
#     Edge 52, Type (0, 0), BuildingBlock: OJICUG_clean_linker_0, # of connection points: 2
#     Edge 53, Type (0, 0), BuildingBlock: OJICUG_clean_linker_0, # of connection points: 2
#     Edge 54, Type (0, 0), BuildingBlock: OJICUG_clean_linker_0, # of connection points: 2
#     Edge 55, Type (0, 0), BuildingBlock: OJICUG_clean_linker_0, # of connection points: 2
#     Edge 56, Type (0, 0), BuildingBlock: OJICUG_clean_linker_0, # of connection points: 2
#     Edge 57, Type (0, 0), BuildingBlock: OJICUG_clean_linker_0, # of connection points: 2
#     Edge 58, Type (0, 0), BuildingBlock: OJICUG_clean_linker_0, # of connection points: 2
#     Edge 59, Type (0, 0), BuildingBlock: OJICUG_clean_linker_0, # of connection points: 2
#     Edge 60, Type (0, 0), BuildingBlock: OJICUG_clean_linker_0, # of connection points: 2
#     Edge 61, Type (0, 0), BuildingBlock: OJICUG_clean_linker_0, # of connection points: 2
#     Edge 62, Type (0, 0), BuildingBlock: OJICUG_clean_linker_0, # of connection points: 2
#     Edge 63, Type (0, 0), BuildingBlock: OJICUG_clean_linker_0, # of connection points: 2
#     Edge 64, Type (0, 0), BuildingBlock: OJICUG_clean_linker_0, # of connection points: 2
#     Edge 65, Type (0, 0), BuildingBlock: OJICUG_clean_linker_0, # of connection points: 2
#     Edge 66, Type (0, 0), BuildingBlock: OJICUG_clean_linker_0, # of connection points: 2
#     Edge 67, Type (0, 0), BuildingBlock: OJICUG_clean_linker_0, # of connection points: 2
#     Edge 68, Type (0, 0), BuildingBlock: OJICUG_clean_linker_0, # of connection points: 2
#     Edge 69, Type (0, 0), BuildingBlock: OJICUG_clean_linker_0, # of connection points: 2
#     Edge 70, Type (0, 0), BuildingBlock: OJICUG_clean_linker_0, # of connection points: 2
#     Edge 71, Type (0, 0), BuildingBlock: OJICUG_clean_linker_0, # of connection points: 2
#     Edge 72, Type (0, 0), BuildingBlock: OJICUG_clean_linker_0, # of connection points: 2
#     Edge 73, Type (0, 0), BuildingBlock: OJICUG_clean_linker_0, # of connection points: 2
#     Edge 74, Type (0, 0), BuildingBlock: OJICUG_clean_linker_0, # of connection points: 2
#     Edge 75, Type (0, 0), BuildingBlock: OJICUG_clean_linker_0, # of connection points: 2
#     Edge 76, Type (0, 0), BuildingBlock: OJICUG_clean_linker_0, # of connection points: 2
#     Edge 77, Type (0, 0), BuildingBlock: OJICUG_clean_linker_0, # of connection points: 2
#     Edge 78, Type (0, 0), BuildingBlock: OJICUG_clean_linker_0, # of connection points: 2
#     Edge 79, Type (0, 0), BuildingBlock: OJICUG_clean_linker_0, # of connection points: 2
#     Edge 80, Type (0, 0), BuildingBlock: OJICUG_clean_linker_0, # of connection points: 2
#     Edge 81, Type (0, 0), BuildingBlock: OJICUG_clean_linker_0, # of connection points: 2
#     Edge 82, Type (0, 0), BuildingBlock: OJICUG_clean_linker_0, # of connection points: 2
#     Edge 83, Type (0, 0), BuildingBlock: OJICUG_clean_linker_0, # of connection points: 2
#     Edge 84, Type (0, 0), BuildingBlock: OJICUG_clean_linker_0, # of connection points: 2
#     Edge 85, Type (0, 0), BuildingBlock: OJICUG_clean_linker_0, # of connection points: 2
#     Edge 86, Type (0, 0), BuildingBlock: OJICUG_clean_linker_0, # of connection points: 2
#     Edge 87, Type (0, 0), BuildingBlock: OJICUG_clean_linker_0, # of connection points: 2
#     Edge 88, Type (0, 0), BuildingBlock: OJICUG_clean_linker_0, # of connection points: 2
#     Edge 89, Type (0, 0), BuildingBlock: OJICUG_clean_linker_0, # of connection points: 2
#     Edge 90, Type (0, 0), BuildingBlock: OJICUG_clean_linker_0, # of connection points: 2
#     Edge 91, Type (0, 0), BuildingBlock: OJICUG_clean_linker_0, # of connection points: 2
#     Edge 92, Type (0, 0), BuildingBlock: OJICUG_clean_linker_0, # of connection points: 2
#     Edge 93, Type (0, 0), BuildingBlock: OJICUG_clean_linker_0, # of connection points: 2
#     Edge 94, Type (0, 0), BuildingBlock: OJICUG_clean_linker_0, # of connection points: 2
#     Edge 95, Type (0, 0), BuildingBlock: OJICUG_clean_linker_0, # of connection points: 2
#     Edge 96, Type (0, 0), BuildingBlock: OJICUG_clean_linker_0, # of connection points: 2
#     Edge 97, Type (0, 0), BuildingBlock: OJICUG_clean_linker_0, # of connection points: 2
#     Edge 98, Type (0, 0), BuildingBlock: OJICUG_clean_linker_0, # of connection points: 2
#     Edge 99, Type (0, 0), BuildingBlock: OJICUG_clean_linker_0, # of connection points: 2
#     Edge 100, Type (0, 0), BuildingBlock: OJICUG_clean_linker_0, # of connection points: 2
#     Edge 101, Type (0, 0), BuildingBlock: OJICUG_clean_linker_0, # of connection points: 2
#     Edge 102, Type (0, 0), BuildingBlock: OJICUG_clean_linker_0, # of connection points: 2
#     Edge 103, Type (0, 0), BuildingBlock: OJICUG_clean_linker_0, # of connection points: 2
#     Edge 104, Type (0, 0), BuildingBlock: OJICUG_clean_linker_0, # of connection points: 2
#     Edge 105, Type (0, 0), BuildingBlock: OJICUG_clean_linker_0, # of connection points: 2
#     Edge 106, Type (0, 0), BuildingBlock: OJICUG_clean_linker_0, # of connection points: 2
#     Edge 107, Type (0, 0), BuildingBlock: OJICUG_clean_linker_0, # of connection points: 2
# Relax obj value: 0.027
# Max RMSD: 0.174
# Mean RMSD: 0.174
data_MOF--net-uns--node1-MUDLON_clean_sbu_0--edge1-OJICUG_clean_linker_0
_symmetry_space_group_name_H-M    P1
_symmetry_Int_Tables_number       1
_symmetry_cell_setting            triclinic
loop_
_symmetry_equiv_pos_as_xyz
'x, y, z'
_cell_length_a     43.186048
_cell_length_b     43.275773
_cell_length_c     42.542153
_cell_angle_alpha  90.109457
_cell_angle_beta   90.015093
_cell_angle_gamma 120.01117
loop_
_atom_site_label
_atom_site_type_symbol
_atom_site_fract_x
_atom_site_fract_y
_atom_site_fract_z
_atom_type_partial_charge
Mg0 Mg 0.28086 0.1988 0.06974 0.0
C1 C 0.33526 0.26879 0.09276 0.0
O2 O 0.31473 0.25312 0.11715 0.0
C3 C 0.2423 0.13452 0.02863 0.0
O4 O 0.21616 0.13805 0.04053 0.0
C5 C 0.31709 0.18159 0.11771 0.0
O6 O 0.33656 0.18864 0.09215 0.0
O7 O 0.28738 0.18109 0.11586 0.0
O8 O 0.32841 0.25153 0.06693 0.0
O9 O 0.2379 0.21052 0.06064 0.0
C10 C 0.23975 0.22023 0.03213 0.0
O11 O 0.26517 0.22132 0.01436 0.0
O12 O 0.2744 0.1575 0.03596 0.0
Mg13 Mg 0.83626 0.09295 0.06903 0.0
C14 C 0.81821 0.03243 0.029 0.0
O15 O 0.8152 0.05612 0.01199 0.0
C16 C 0.85395 0.14543 0.11842 0.0
O17 O 0.84498 0.15771 0.09391 0.0
C18 C 0.8978 0.12537 0.02398 0.0
O19 O 0.89879 0.09685 0.03297 0.0
O20 O 0.87325 0.13059 0.03469 0.0
O21 O 0.828 0.04003 0.05756 0.0
O22 O 0.78274 0.08541 0.06802 0.0
C23 C 0.76627 0.07491 0.09409 0.0
O24 O 0.7829 0.07071 0.11813 0.0
O25 O 0.85535 0.11685 0.11521 0.0
Mg26 Mg 0.93703 0.7384 0.05977 0.0
C27 C 1.012 0.78349 0.0411 0.0
O28 O 1.00067 0.7534 0.02567 0.0
C29 C 0.8754 0.69387 0.09849 0.0
O30 O 0.86865 0.67823 0.07083 0.0
C31 C 0.91076 0.77334 0.01475 0.0
O32 O 0.93669 0.80106 0.02924 0.0
O33 O 0.9053 0.74233 0.02155 0.0
O34 O 0.99022 0.7864 0.05943 0.0
O35 O 0.94836 0.69472 0.05789 0.0
C36 C 0.95589 0.68693 0.08464 0.0
O37 O 0.95435 0.70402 0.1096 0.0
O38 O 0.90374 0.7241 0.10173 0.0
Mg39 Mg 0.21998 0.29261 0.46197 0.0
C40 C 0.25387 0.24656 0.47083 0.0
O41 O 0.2819 0.27853 0.47409 0.0
C42 C 0.20271 0.33588 0.4217 0.0
O43 O 0.21178 0.35238 0.44899 0.0
C44 C 0.15691 0.25802 0.50509 0.0
O45 O 0.15489 0.23041 0.49027 0.0
O46 O 0.18329 0.28894 0.49925 0.0
O47 O 0.22389 0.2438 0.46361 0.0
O48 O 0.27482 0.33711 0.46375 0.0
C49 C 0.2901 0.34516 0.43696 0.0
O50 O 0.27158 0.32765 0.41208 0.0
O51 O 0.20079 0.30559 0.41934 0.0
Mg52 Mg 0.75364 0.93497 0.45997 0.0
C53 C 0.79026 1.00286 0.49294 0.0
O54 O 0.75925 0.98361 0.50692 0.0
C55 C 0.71753 0.88156 0.41122 0.0
O56 O 0.69687 0.86961 0.43613 0.0
C57 C 0.78156 0.9103 0.51538 0.0
O58 O 0.80146 0.94481 0.52 0.0
O59 O 0.75812 0.89894 0.49358 0.0
O60 O 0.79728 0.98957 0.46908 0.0
O61 O 0.70575 0.93978 0.46128 0.0
C62 C 0.70172 0.95259 0.43565 0.0
O63 O 0.72536 0.96038 0.41319 0.0
O64 O 0.74752 0.91039 0.41378 0.0
Mg65 Mg 0.09928 0.82413 0.45723 0.0
C66 C 0.08415 0.75389 0.43249 0.0
O67 O 0.08431 0.77105 0.40701 0.0
C68 C 0.13222 0.88952 0.49723 0.0
O69 O 0.10737 0.89236 0.48187 0.0
C70 C 0.15498 0.84283 0.41038 0.0
O71 O 0.167 0.83485 0.43567 0.0
O72 O 0.12582 0.84339 0.41228 0.0
O73 O 0.09097 0.77008 0.45888 0.0
O74 O 0.04651 0.81926 0.46266 0.0
C75 C 1.01897 0.7887 0.46709 0.0
O76 O 0.02228 0.76019 0.4655 0.0
O77 O 0.13497 0.86186 0.49268 0.0
Mg78 Mg 0.7586 0.82809 0.94394 0.0
C79 C 0.80339 0.79176 0.95007 0.0
O80 O 0.77202 0.76336 0.94513 0.0
C81 C 0.71786 0.84266 0.89698 0.0
O82 O 0.69936 0.83649 0.92304 0.0
C83 C 0.78637 0.90119 0.96563 0.0
O84 O 0.80012 0.90371 0.93756 0.0
O85 O 0.7656 0.8702 0.97662 0.0
O86 O 0.80621 0.82249 0.94857 0.0
O87 O 0.71247 0.77507 0.95089 0.0
C88 C 0.70095 0.75659 0.92577 0.0
O89 O 0.71644 0.77116 0.899 0.0
O90 O 0.74762 0.84316 0.89812 0.0
Mg91 Mg 0.21272 0.93458 0.95668 0.0
C92 C 0.28792 0.96257 0.97959 0.0
O93 O 0.2784 0.98021 0.99873 0.0
C94 C 0.15047 0.90057 1.00482 0.0
O95 O 0.159 0.93373 1.01057 0.0
C96 C 0.20361 0.88721 0.90487 0.0
O97 O 0.20971 0.8732 0.92984 0.0
O98 O 0.20153 0.91539 0.90834 0.0
O99 O 0.26427 0.93823 0.96239 0.0
O100 O 0.22409 0.98904 0.96631 0.0
C101 C 0.20274 1.0012 0.96513 0.0
O102 O 0.16975 0.9803 0.95547 0.0
O103 O 0.16926 0.89435 0.9855 0.0
Mg104 Mg 0.09853 0.28083 0.94366 0.0
C105 C 0.02201 0.23804 0.9627 0.0
O106 O 0.0292 0.27075 0.96868 0.0
C107 C 0.15283 0.3178 0.89661 0.0
O108 O 0.16276 0.33896 0.92128 0.0
C109 C 0.14049 0.25335 0.97033 0.0
O110 O 0.12496 0.23509 0.94471 0.0
O111 O 0.13431 0.27809 0.97852 0.0
O112 O 0.04621 0.23329 0.95037 0.0
O113 O 0.08857 0.32535 0.93951 0.0
C114 C 0.07337 0.32252 0.91308 0.0
O115 O 0.06653 0.29518 0.89498 0.0
O116 O 0.12528 0.28689 0.89893 0.0
Mg117 Mg 0.83308 0.749 0.57205 0.0
C118 C 0.82504 0.81775 0.57513 0.0
O119 O 0.8389 0.82389 0.60351 0.0
C120 C 0.854 0.71741 0.62059 0.0
O121 O 0.84292 0.69528 0.59657 0.0
C122 C 0.89312 0.77637 0.52685 0.0
O123 O 0.89458 0.80559 0.53752 0.0
O124 O 0.86778 0.74633 0.53618 0.0
O125 O 0.82191 0.79132 0.55942 0.0
O126 O 0.77974 0.70385 0.57913 0.0
C127 C 0.7679 0.70847 0.60511 0.0
O128 O 0.78818 0.73774 0.62121 0.0
O129 O 0.85631 0.74777 0.61718 0.0
Mg130 Mg 0.29279 0.09444 0.56724 0.0
C131 C 0.36789 0.10097 0.57115 0.0
O132 O 0.38135 0.13562 0.57316 0.0
C133 C 0.26397 0.12897 0.52392 0.0
O134 O 0.23437 0.10042 0.53281 0.0
C135 C 0.32671 0.15054 0.61608 0.0
O136 O 0.34117 0.1683 0.5901 0.0
O137 O 0.30185 0.11809 0.61398 0.0
O138 O 0.33483 0.0808 0.56513 0.0
O139 O 0.24304 0.04356 0.56021 0.0
C140 C 0.24288 0.01404 0.56154 0.0
O141 O 0.27202 0.01419 0.57063 0.0
O142 O 0.29382 0.1332 0.53356 0.0
Mg143 Mg 0.94945 0.20352 0.57746 0.0
C144 C 0.03045 0.23968 0.5689 0.0
O145 O 0.02762 0.26812 0.57383 0.0
C146 C 0.89552 0.18918 0.62553 0.0
O147 O 0.8834 0.19653 0.59994 0.0
C148 C 0.89571 0.13127 0.55639 0.0
O149 O 0.90227 0.12705 0.58574 0.0
O150 O 0.91232 0.16244 0.54457 0.0
O151 O 1.00251 0.20894 0.57103 0.0
O152 O 0.95643 0.25684 0.57258 0.0
C153 C 0.96484 0.2748 0.5981 0.0
O154 O 0.96785 0.25992 0.62391 0.0
O155 O 0.92442 0.18806 0.62376 0.0
Mg156 Mg 0.95213 0.53075 0.40236 0.0
C157 C 1.00397 0.60157 0.42331 0.0
O158 O 0.98176 0.58636 0.44681 0.0
C159 C 0.91672 0.45817 0.37901 0.0
O160 O 0.89681 0.45941 0.40179 0.0
C161 C 0.98905 0.51675 0.45175 0.0
O162 O 1.00822 0.52268 0.42613 0.0
O163 O 0.95916 0.51581 0.44956 0.0
O164 O 0.99914 0.58364 0.39814 0.0
O165 O 0.90841 0.54075 0.39163 0.0
C166 C 0.90962 0.54792 0.36249 0.0
O167 O 0.9344 0.54698 0.34526 0.0
O168 O 0.94517 0.4869 0.37181 0.0
Mg169 Mg 0.51048 0.42827 0.39809 0.0
C170 C 0.46964 0.34916 0.38508 0.0
O171 O 0.44539 0.35795 0.37827 0.0
C172 C 0.53186 0.48642 0.44358 0.0
O173 O 0.52257 0.49751 0.41846 0.0
C174 C 0.57345 0.4488 0.35828 0.0
O175 O 0.57073 0.42251 0.37568 0.0
O176 O 0.54977 0.45796 0.36136 0.0
O177 O 0.49978 0.3731 0.39584 0.0
O178 O 0.45806 0.42415 0.39663 0.0
C179 C 0.44244 0.41581 0.42326 0.0
O180 O 0.4596 0.41263 0.44739 0.0
O181 O 0.53208 0.45711 0.44199 0.0
Mg182 Mg 0.59945 0.07127 0.39782 0.0
C183 C 0.68053 0.11673 0.39137 0.0
O184 O 0.67824 0.08596 0.39768 0.0
C185 C 0.53641 0.04414 0.43998 0.0
O186 O 0.52152 0.03352 0.41218 0.0
C187 C 0.57066 0.10481 0.3544 0.0
O188 O 0.59622 0.13254 0.36919 0.0
O189 O 0.56606 0.07396 0.3605 0.0
O190 O 0.65229 0.11911 0.39252 0.0
O191 O 0.60897 0.02634 0.39591 0.0
C192 C 0.60989 1.01225 0.42194 0.0
O193 O 0.60089 0.02241 0.44779 0.0
O194 O 0.57029 0.06384 0.4417 0.0
Mg195 Mg 0.88274 0.62473 0.78948 0.0
C196 C 0.91625 0.58026 0.80576 0.0
O197 O 0.94245 0.6125 0.81229 0.0
C198 C 0.86772 0.66426 0.74166 0.0
O199 O 0.8788 0.68579 0.76609 0.0
C200 C 0.82131 0.59191 0.83487 0.0
O201 O 0.82157 0.56355 0.82417 0.0
O202 O 0.8454 0.62259 0.82543 0.0
O203 O 0.88739 0.57666 0.79415 0.0
O204 O 0.93726 0.66977 0.79097 0.0
C205 C 0.95362 0.67627 0.76473 0.0
O206 O 0.93634 0.6569 0.74013 0.0
O207 O 0.86401 0.63325 0.74454 0.0
Mg208 Mg 0.42467 0.26773 0.78531 0.0
C209 C 0.47033 0.32779 0.825 0.0
O210 O 0.44501 0.30391 0.84307 0.0
C211 C 0.38914 0.21425 0.73646 0.0
O212 O 0.37001 0.20038 0.76197 0.0
C213 C 0.45508 0.23412 0.82778 0.0
O214 O 0.48441 0.26214 0.81765 0.0
O215 O 0.42493 0.22962 0.81881 0.0
O216 O 0.47034 0.3204 0.796 0.0
O217 O 0.37945 0.27662 0.78799 0.0
C218 C 0.37231 0.28646 0.76208 0.0
O219 O 0.39121 0.28881 0.7371 0.0
O220 O 0.41811 0.2441 0.73874 0.0
Mg221 Mg 0.76685 0.1562 0.79013 0.0
C222 C 0.75139 0.08635 0.76463 0.0
O223 O 0.75174 0.10408 0.7395 0.0
C224 C 0.79901 0.22159 0.82969 0.0
O225 O 0.77508 0.2245 0.81286 0.0
C226 C 0.82381 0.17572 0.7441 0.0
O227 O 0.83486 0.16658 0.76934 0.0
O228 O 0.79467 0.1764 0.74563 0.0
O229 O 0.75854 0.10213 0.79123 0.0
O230 O 0.71358 0.15058 0.79549 0.0
C231 C 0.68653 0.11995 0.80107 0.0
O232 O 0.69057 0.09184 0.80052 0.0
O233 O 0.80164 0.19372 0.82624 0.0
Mg234 Mg 0.41702 0.15757 0.28354 0.0
C235 C 0.4626 0.12221 0.28991 0.0
O236 O 0.43152 0.09365 0.28443 0.0
C237 C 0.37793 0.17414 0.23686 0.0
O238 O 0.35841 0.16632 0.26246 0.0
C239 C 0.4489 0.21757 0.33127 0.0
O240 O 0.47714 0.21465 0.32511 0.0
O241 O 0.41919 0.19576 0.31838 0.0
O242 O 0.46501 0.15278 0.28873 0.0
O243 O 0.37138 0.10383 0.28736 0.0
C244 C 0.36092 0.08648 0.26159 0.0
O245 O 0.37707 0.10239 0.23541 0.0
O246 O 0.40791 0.17516 0.23836 0.0
Mg247 Mg 0.87583 0.25935 0.29119 0.0
C248 C 0.9528 0.28845 0.31162 0.0
O249 O 0.94393 0.30485 0.3327 0.0
C250 C 0.80597 0.22283 0.32514 0.0
O251 O 0.80321 0.24675 0.30827 0.0
C252 C 0.86472 0.21001 0.24038 0.0
O253 O 0.87302 0.19738 0.26505 0.0
O254 O 0.86155 0.23758 0.24388 0.0
O255 O 0.92865 0.26518 0.29405 0.0
O256 O 0.88394 0.31305 0.29968 0.0
C257 C 0.87973 0.31965 0.32806 0.0
O258 O 0.86967 0.29412 0.34898 0.0
O259 O 0.83469 0.22139 0.32328 0.0
Mg260 Mg 0.76807 0.6109 0.27607 0.0
C261 C 0.70824 0.53732 0.29589 0.0
O262 O 0.73544 0.53552 0.30756 0.0
C263 C 0.78781 0.6131 0.20428 0.0
O264 O 0.75589 0.58525 0.19982 0.0
C265 C 0.81587 0.5872 0.29839 0.0
O266 O 0.80701 0.57575 0.26934 0.0
O267 O 0.80296 0.60538 0.31032 0.0
O268 O 0.71432 0.56411 0.27917 0.0
O269 O 0.75688 0.65467 0.27743 0.0
C270 C 0.73824 0.65068 0.25289 0.0
O271 O 0.72854 0.62225 0.23541 0.0
O272 O 0.79784 0.62511 0.23193 0.0
Mg273 Mg 0.50121 0.07865 0.90839 0.0
C274 C 0.46771 0.12151 0.88824 0.0
O275 O 0.4418 0.08873 0.88304 0.0
C276 C 0.51895 0.04276 0.95628 0.0
O277 O 0.50638 0.0205 0.9324 0.0
C278 C 0.56063 0.10638 0.86205 0.0
O279 O 0.56223 0.13558 0.87292 0.0
O280 O 0.53545 0.07631 0.87159 0.0
O281 O 0.49681 0.12632 0.90037 0.0
O282 O 0.44647 0.0351 0.91501 0.0
C283 C 0.43523 0.03938 0.94148 0.0
O284 O 0.4567 0.06749 0.95842 0.0
O285 O 0.52351 0.07402 0.95283 0.0
Mg286 Mg 0.95366 0.42736 0.90322 0.0
C287 C 1.00331 0.40092 0.87906 0.0
O288 O 0.98136 0.38933 0.85492 0.0
C289 C 0.92549 0.46203 0.85854 0.0
O290 O 0.89596 0.43161 0.86352 0.0
C291 C 0.99344 0.47616 0.95394 0.0
O292 O 1.01451 0.48791 0.92928 0.0
O293 O 0.9621 0.44938 0.9505 0.0
O294 O 0.99916 0.41937 0.90002 0.0
O295 O 0.90561 0.37557 0.89428 0.0
C296 C 0.90478 0.34594 0.89801 0.0
O297 O 0.93229 0.34587 0.9111 0.0
O298 O 0.95446 0.46719 0.87118 0.0
Mg299 Mg 0.61337 0.53347 0.90844 0.0
C300 C 0.69388 0.57267 0.89739 0.0
O301 O 0.6886 0.60001 0.89825 0.0
C302 C 0.55798 0.51688 0.95567 0.0
O303 O 0.54538 0.52295 0.92973 0.0
C304 C 0.57076 0.46026 0.88625 0.0
O305 O 0.58399 0.45841 0.91355 0.0
O306 O 0.57867 0.49091 0.87587 0.0
O307 O 0.66761 0.54156 0.90295 0.0
O308 O 0.61802 0.5856 0.90244 0.0
C309 C 0.62605 0.60396 0.9277 0.0
O310 O 0.62894 0.58956 0.95388 0.0
O311 O 0.58769 0.51728 0.9544 0.0
Mg312 Mg 0.61624 0.86394 0.73109 0.0
C313 C 0.66901 0.93411 0.75351 0.0
O314 O 0.64776 0.91813 0.77744 0.0
C315 C 0.57679 0.79822 0.69263 0.0
O316 O 0.55138 0.8003 0.70777 0.0
C317 C 0.6545 0.84801 0.77847 0.0
O318 O 0.67375 0.85546 0.75273 0.0
O319 O 0.6244 0.84676 0.77696 0.0
O320 O 0.66314 0.917 0.7277 0.0
O321 O 0.57241 0.87482 0.72364 0.0
C322 C 0.57025 0.88088 0.69467 0.0
O323 O 0.59262 0.879 0.67489 0.0
O324 O 0.60912 0.82271 0.69703 0.0
Mg325 Mg 0.17722 0.76836 0.73424 0.0
C326 C 0.17422 0.70775 0.69977 0.0
O327 O 0.18701 0.73383 0.67923 0.0
C328 C 0.19317 0.82218 0.78313 0.0
O329 O 0.185 0.83465 0.75827 0.0
C330 C 0.21974 0.82292 0.67972 0.0
O331 O 0.19099 0.82525 0.67452 0.0
O332 O 0.2196 0.80288 0.70159 0.0
O333 O 0.16813 0.71413 0.72764 0.0
O334 O 0.12379 0.76122 0.72977 0.0
C335 C 0.10646 0.7507 0.75549 0.0
O336 O 0.12254 0.74697 0.78018 0.0
O337 O 0.19426 0.79339 0.78037 0.0
Mg338 Mg 0.27655 0.41437 0.73027 0.0
C339 C 0.34835 0.45687 0.70452 0.0
O340 O 0.33359 0.42676 0.68864 0.0
C341 C 0.22204 0.37483 0.77726 0.0
O342 O 0.21189 0.35402 0.75235 0.0
C343 C 0.24745 0.44667 0.68506 0.0
O344 O 0.27566 0.47537 0.69597 0.0
O345 O 0.24152 0.4162 0.69428 0.0
O346 O 0.32992 0.46098 0.72575 0.0
O347 O 0.28583 0.36945 0.72812 0.0
C348 C 0.29613 0.36304 0.75413 0.0
O349 O 0.2987 0.38246 0.77882 0.0
O350 O 0.24951 0.40582 0.77512 0.0
Mg351 Mg 0.54311 0.95003 0.12672 0.0
C352 C 0.57769 0.90417 0.13642 0.0
O353 O 0.6067 0.93471 0.1306 0.0
C354 C 0.52755 0.98799 0.07813 0.0
O355 O 0.53723 1.0092 0.10276 0.0
C356 C 0.48197 0.91895 0.17201 0.0
O357 O 0.48246 0.89028 0.16258 0.0
O358 O 0.5058 0.94925 0.1617 0.0
O359 O 0.5473 0.90213 0.13396 0.0
O360 O 0.59735 0.99505 0.12937 0.0
C361 C 0.61385 1.00374 0.10318 0.0
O362 O 0.5969 0.98625 0.07772 0.0
O363 O 0.52476 0.95738 0.08112 0.0
Mg364 Mg 0.08557 0.59393 0.12456 0.0
C365 C 0.13031 0.65549 0.16292 0.0
O366 O 0.10441 0.63246 0.18105 0.0
C367 C 0.04866 0.54151 0.07544 0.0
O368 O 0.02729 0.53024 0.09994 0.0
C369 C 0.11572 0.56199 0.16956 0.0
O370 O 0.145 0.591 0.16089 0.0
O371 O 0.08572 0.55641 0.15895 0.0
O372 O 0.13111 0.64686 0.13442 0.0
O373 O 0.04055 0.6033 0.12523 0.0
C374 C 0.03668 0.61542 0.09913 0.0
O375 O 0.0587 0.61991 0.07601 0.0
O376 O 0.07938 0.56929 0.07854 0.0
Mg377 Mg 0.43283 0.49219 0.12165 0.0
C378 C 0.41492 0.42116 0.10074 0.0
O379 O 0.41173 0.43711 0.07575 0.0
C380 C 0.47043 0.56471 0.14608 0.0
O381 O 0.45145 0.56462 0.12189 0.0
C382 C 0.48727 0.50735 0.07408 0.0
O383 O 0.49937 0.50036 0.09986 0.0
O384 O 0.45815 0.5081 0.07555 0.0
O385 O 0.42523 0.43868 0.12645 0.0
O386 O 0.37839 0.48316 0.12787 0.0
C387 C 0.3717 0.48891 0.15574 0.0
O388 O 0.39765 0.50152 0.17657 0.0
O389 O 0.4686 0.53536 0.15367 0.0
Mg390 Mg 0.09172 0.4987 0.61839 0.0
C391 C 0.13558 0.46158 0.62528 0.0
O392 O 0.10351 0.43331 0.624 0.0
C393 C 0.05136 0.51401 0.57155 0.0
O394 O 0.03227 0.50723 0.59731 0.0
C395 C 0.131 0.56946 0.64524 0.0
O396 O 0.15035 0.56797 0.62207 0.0
O397 O 0.10134 0.54151 0.65133 0.0
O398 O 0.13896 0.49233 0.62144 0.0
O399 O 0.04546 0.44554 0.62474 0.0
C400 C 0.03488 0.42748 0.59932 0.0
O401 O 0.05084 0.44282 0.57291 0.0
O402 O 0.08122 0.51479 0.57303 0.0
Mg403 Mg 0.54791 0.60179 0.61437 0.0
C404 C 0.6208 0.6284 0.64174 0.0
O405 O 0.61019 0.64596 0.65984 0.0
C406 C 0.48875 0.56823 0.66556 0.0
O407 O 0.50334 0.60068 0.67716 0.0
C408 C 0.54208 0.55472 0.56339 0.0
O409 O 0.54734 0.54096 0.58895 0.0
O410 O 0.53941 0.58266 0.56605 0.0
O411 O 0.59822 0.60433 0.62368 0.0
O412 O 0.55926 0.65641 0.62275 0.0
C413 C 0.53615 0.66603 0.62677 0.0
O414 O 0.50212 0.64248 0.6229 0.0
O415 O 0.5028 0.56225 0.6417 0.0
Mg416 Mg 0.4354 0.95736 0.61868 0.0
C417 C 0.35415 0.91481 0.61717 0.0
O418 O 0.35896 0.94447 0.60435 0.0
C419 C 0.44793 0.97741 0.54911 0.0
O420 O 0.41682 0.97576 0.55175 0.0
C421 C 0.47352 0.92176 0.63941 0.0
O422 O 0.4574 0.90623 0.61299 0.0
O423 O 0.46945 0.94706 0.64991 0.0
O424 O 0.38136 0.91158 0.62287 0.0
O425 O 0.42825 1.00267 0.62818 0.0
C426 C 0.44525 0.03182 0.61307 0.0
O427 O 0.47433 0.03858 0.59768 0.0
O428 O 0.4602 0.9684 0.57235 0.0
Mg429 Mg 0.1669 0.40786 0.24369 0.0
C430 C 0.13184 0.44948 0.22546 0.0
O431 O 0.10901 0.41713 0.21561 0.0
C432 C 0.19206 0.41176 0.3138 0.0
O433 O 0.1871 0.43911 0.31772 0.0
C434 C 0.23401 0.44591 0.21162 0.0
O435 O 0.23316 0.46626 0.23419 0.0
O436 O 0.20628 0.41537 0.2075 0.0
O437 O 0.1598 0.45457 0.2401 0.0
O438 O 0.11241 0.3624 0.24692 0.0
C439 C 0.09963 0.36655 0.2726 0.0
O440 O 0.1195 0.39546 0.2892 0.0
O441 O 0.18827 0.39808 0.28663 0.0
Mg442 Mg 0.62411 0.7605 0.24135 0.0
C443 C 0.67257 0.73307 0.21902 0.0
O444 O 0.64906 0.72 0.19609 0.0
C445 C 0.59284 0.7978 0.20605 0.0
O446 O 0.56557 0.7744 0.22275 0.0
C447 C 0.6625 0.81139 0.29118 0.0
O448 O 0.68309 0.82336 0.26623 0.0
O449 O 0.63188 0.78338 0.28834 0.0
O450 O 0.67048 0.75384 0.23884 0.0
O451 O 0.57826 0.70698 0.23164 0.0
C452 C 0.56872 0.70118 0.20287 0.0
O453 O 0.5853 0.72729 0.18263 0.0
O454 O 0.62265 0.79864 0.20861 0.0
Mg455 Mg 0.27403 0.86327 0.24194 0.0
C456 C 0.35441 0.90187 0.23193 0.0
O457 O 0.34942 0.92939 0.2325 0.0
C458 C 0.22027 0.84818 0.2902 0.0
O459 O 0.20703 0.85406 0.26457 0.0
C460 C 0.231 0.78964 0.2214 0.0
O461 O 0.24437 0.78856 0.24887 0.0
O462 O 0.23898 0.81999 0.2102 0.0
O463 O 0.32789 0.87084 0.23709 0.0
O464 O 0.27882 0.91545 0.2355 0.0
C465 C 0.28716 0.93387 0.26074 0.0
O466 O 0.29057 0.91961 0.28678 0.0
O467 O 0.24959 0.84794 0.28823 0.0
C468 C 0.36579 0.18132 0.14942 0.0
C469 C 0.33198 0.17874 0.14825 0.0
H470 H 0.40701 0.18233 0.17818 0.0
C471 C 0.31379 0.17534 0.17651 0.0
H472 H 0.38066 0.18413 0.1281 0.0
C473 C 0.32908 0.17452 0.20528 0.0
C474 C 0.3629 0.1771 0.20643 0.0
H475 H 0.28786 0.17355 0.17646 0.0
H476 H 0.31424 0.17169 0.22664 0.0
C477 C 0.38108 0.18054 0.17817 0.0
C478 C 0.85416 0.1929 0.15243 0.0
C479 C 0.85804 0.16256 0.14954 0.0
H480 H 0.85289 0.23151 0.18323 0.0
C481 C 0.86394 0.14798 0.17678 0.0
H482 H 0.84946 0.20479 0.13193 0.0
C483 C 0.86575 0.16328 0.20621 0.0
C484 C 0.86168 0.1935 0.20911 0.0
H485 H 0.86683 0.12456 0.17543 0.0
H486 H 0.87034 0.15132 0.22672 0.0
C487 C 0.85593 0.20817 0.18187 0.0
C488 C 0.84245 0.66609 0.18206 0.0
C489 C 0.81055 0.63345 0.17722 0.0
H490 H 0.88768 0.71106 0.16112 0.0
C491 C 0.79984 0.62155 0.14628 0.0
H492 H 0.85144 0.67624 0.20558 0.0
C493 C 0.8206 0.64163 0.12083 0.0
C494 C 0.85251 0.6742 0.12565 0.0
H495 H 0.77538 0.59671 0.14167 0.0
H496 H 0.81165 0.63145 0.0973 0.0
C497 C 0.86314 0.68627 0.15657 0.0
C498 C 0.19988 0.38729 0.39787 0.0
C499 C 0.1991 0.35458 0.39397 0.0
H500 H 0.19866 0.43112 0.37581 0.0
C501 C 0.19697 0.34136 0.36342 0.0
H502 H 0.20166 0.39837 0.42109 0.0
C503 C 0.19565 0.36042 0.33738 0.0
C504 C 0.19624 0.39307 0.3413 0.0
H505 H 0.19666 0.31646 0.35956 0.0
H506 H 0.19377 0.34929 0.31416 0.0
C507 C 0.19839 0.40625 0.37188 0.0
C508 C 0.71032 0.86014 0.32399 0.0
C509 C 0.67622 0.82937 0.32195 0.0
H510 H 0.75026 0.90063 0.3536 0.0
C511 C 0.65625 0.81568 0.34957 0.0
H512 H 0.72654 0.87142 0.30317 0.0
C513 C 0.67002 0.83239 0.37853 0.0
C514 C 0.70408 0.86322 0.38055 0.0
H515 H 0.63003 0.79198 0.34889 0.0
H516 H 0.65378 0.82116 0.39933 0.0
C517 C 0.72408 0.87688 0.35293 0.0
C518 C 0.20368 0.8433 0.37805 0.0
C519 C 0.17243 0.84578 0.37969 0.0
H520 H 0.24312 0.84174 0.34862 0.0
C521 C 0.15697 0.84874 0.35165 0.0
H522 H 0.21623 0.84085 0.39921 0.0
C523 C 0.17229 0.84898 0.32263 0.0
C524 C 0.20342 0.84631 0.32099 0.0
H525 H 0.1328 0.85045 0.35205 0.0
H526 H 0.15967 0.85133 0.30147 0.0
C527 C 0.21901 0.84357 0.34903 0.0
C528 C 0.65231 0.84244 0.83735 0.0
C529 C 0.66995 0.84547 0.80884 0.0
H530 H 0.65378 0.83962 0.88748 0.0
C531 C 0.70378 0.84806 0.80958 0.0
H532 H 0.62638 0.84065 0.83764 0.0
C533 C 0.71964 0.8477 0.83814 0.0
C534 C 0.70205 0.84475 0.86667 0.0
H535 H 0.71823 0.85057 0.78805 0.0
H536 H 0.7456 0.84956 0.83783 0.0
C537 C 0.66819 0.84209 0.86594 0.0
C538 C 0.20426 0.8402 0.87089 0.0
C539 C 0.20104 0.87092 0.87355 0.0
H540 H 0.20462 0.8009 0.84043 0.0
C541 C 0.19616 0.88596 0.84612 0.0
H542 H 0.20817 0.82792 0.89152 0.0
C543 C 0.19428 0.87046 0.81674 0.0
C544 C 0.19724 0.83957 0.81414 0.0
H545 H 0.19375 0.90968 0.84731 0.0
H546 H 0.1902 0.88258 0.79608 0.0
C547 C 0.20239 0.82471 0.84155 0.0
C548 C 0.20056 0.3666 0.86426 0.0
C549 C 0.17111 0.33172 0.86617 0.0
H550 H 0.23952 0.40773 0.83477 0.0
C551 C 0.15834 0.31138 0.83855 0.0
H552 H 0.21102 0.38308 0.88509 0.0
C553 C 0.17461 0.32566 0.80966 0.0
C554 C 0.20399 0.36059 0.80775 0.0
H555 H 0.1356 0.28455 0.83918 0.0
H556 H 0.16415 0.30921 0.78881 0.0
C557 C 0.21681 0.38088 0.83538 0.0
C558 C 0.86622 0.72568 0.67874 0.0
C559 C 0.85898 0.70476 0.65153 0.0
H560 H 0.87425 0.72915 0.72856 0.0
C561 C 0.85428 0.67024 0.65429 0.0
H562 H 0.86972 0.75224 0.67747 0.0
C563 C 0.85654 0.65684 0.68354 0.0
C564 C 0.86365 0.67766 0.71078 0.0
H565 H 0.84854 0.65328 0.63383 0.0
H566 H 0.8529 0.63022 0.68474 0.0
C567 C 0.86856 0.71229 0.70804 0.0
C568 C 0.34334 0.16357 0.70401 0.0
C569 C 0.37433 0.19747 0.70552 0.0
H570 H 0.30384 0.12226 0.67477 0.0
C571 C 0.38928 0.21585 0.67741 0.0
H572 H 0.33104 0.14869 0.72524 0.0
C573 C 0.37338 0.20082 0.64847 0.0
C574 C 0.3423 0.16696 0.64697 0.0
H575 H 0.41293 0.2421 0.67775 0.0
H576 H 0.38564 0.21575 0.62725 0.0
C577 C 0.32757 0.14845 0.67508 0.0
C578 C 0.84605 0.18817 0.65712 0.0
C579 C 0.87721 0.18549 0.65594 0.0
H580 H 0.80493 0.18758 0.68575 0.0
C581 C 0.89112 0.18056 0.68409 0.0
H582 H 0.83465 0.19213 0.63587 0.0
C583 C 0.87413 0.17815 0.71273 0.0
C584 C 0.84283 0.18062 0.71388 0.0
H585 H 0.91517 0.17861 0.68405 0.0
H586 H 0.88544 0.17406 0.73397 0.0
C587 C 0.82906 0.18578 0.68575 0.0
C588 C 0.98643 0.51287 0.51074 0.0
C589 C 1.00434 0.51529 0.48253 0.0
H590 H 0.98743 0.51102 0.56098 0.0
C591 C 0.03824 0.51809 0.48389 0.0
H592 H 0.96044 0.51093 0.51053 0.0
C593 C 0.05386 0.51842 0.51275 0.0
C594 C 0.03594 0.5159 0.54097 0.0
H595 H 0.05291 0.52016 0.4626 0.0
H596 H 0.07984 0.52032 0.51289 0.0
C597 C 1.00206 0.51316 0.53965 0.0
C598 C 0.53381 0.53613 0.47559 0.0
C599 C 0.53688 0.50525 0.47394 0.0
H600 H 0.53282 0.57593 0.50502 0.0
C601 C 0.54238 0.49138 0.50182 0.0
H602 H 0.52947 0.5475 0.45454 0.0
C603 C 0.54413 0.50761 0.53072 0.0
C604 C 0.54043 0.53811 0.53246 0.0
H605 H 0.54473 0.46761 0.50144 0.0
H606 H 0.54811 0.49597 0.55176 0.0
C607 C 0.53556 0.55238 0.50453 0.0
C608 C 0.47701 0.0146 0.46697 0.0
C609 C 0.51427 0.0291 0.46853 0.0
H610 H 0.42686 0.987 0.49117 0.0
C611 C 0.52955 0.02632 0.49678 0.0
H612 H 0.46443 0.01621 0.44548 0.0
C613 C 0.5079 1.0088 0.52272 0.0
C614 C 0.4706 0.99426 0.52113 0.0
H615 H 0.55812 0.03688 0.49862 0.0
H616 H 0.52047 1.007 0.54414 0.0
C617 C 0.45545 0.99769 0.49308 0.0
C618 C 0.51692 0.99462 0.9903 0.0
C619 C 0.52278 0.02956 0.98734 0.0
H620 H 0.51346 0.95393 0.02115 0.0
C621 C 0.52983 0.05048 0.01453 0.0
H622 H 0.51128 0.97768 0.96984 0.0
C623 C 0.53078 0.03668 0.044 0.0
C624 C 0.52476 1.00168 0.04697 0.0
H625 H 0.53417 0.07735 0.01312 0.0
H626 H 0.53635 0.05358 0.06448 0.0
C627 C 0.51792 0.98085 0.01975 0.0
C628 C 0.98654 0.47921 0.01234 0.0
C629 C 1.0073 0.49283 0.9851 0.0
H630 H 0.98347 0.48361 0.06217 0.0
C631 C 0.04223 0.52218 0.98791 0.0
H632 H 0.95965 0.45655 1.01105 0.0
C633 C 0.056 0.53767 0.01723 0.0
C634 C 0.03519 0.52415 0.04445 0.0
H635 H 0.05905 0.53332 0.9674 0.0
H636 H 0.08283 0.56041 0.0185 0.0
C637 C 1.00033 0.49467 0.04167 0.0
C638 C 0.50784 0.51527 0.98673 0.0
C639 C 0.53958 0.51358 0.98597 0.0
H640 H 0.4666 0.51499 0.01498 0.0
C641 C 0.55413 0.51037 0.01445 0.0
H642 H 0.49593 0.51789 0.96522 0.0
C643 C 0.53734 0.50889 0.043 0.0
C644 C 0.50562 0.51061 0.04376 0.0
H645 H 0.57861 0.50921 0.01475 0.0
H646 H 0.54927 0.50629 0.0645 0.0
C647 C 0.49107 0.51382 0.01528 0.0
C648 C 0.24955 0.06001 0.98801 0.0
C649 C 0.214 0.03722 0.9782 0.0
H650 H 0.28659 0.1088 1.01131 0.0
C651 C 0.18879 0.04824 0.98297 0.0
H652 H 0.26973 0.05244 0.98461 0.0
C653 C 0.19844 0.0804 0.99841 0.0
C654 C 0.23362 0.10254 1.00929 0.0
H655 H 0.16123 0.0315 0.97571 0.0
H656 H 0.17801 0.0875 1.00244 0.0
C657 C 0.25928 0.09239 1.00327 0.0
C658 C 0.98365 0.1734 0.97694 0.0
C659 C 0.98798 0.20767 0.97414 0.0
H660 H 0.95166 0.12045 0.99488 0.0
C661 C 0.96064 0.21359 0.98512 0.0
H662 H 1.00418 0.16796 0.96869 0.0
C663 C 0.93051 0.18638 1.00004 0.0
C664 C 0.92714 0.15269 1.0045 0.0
H665 H 0.96301 0.23963 0.98309 0.0
H666 H 0.91056 0.19222 1.00915 0.0
C667 C 0.95359 0.14622 0.99207 0.0
C668 C 0.85462 0.74855 0.98226 0.0
C669 C 0.88567 0.77814 0.99417 0.0
H670 H 0.80453 0.72966 0.95867 0.0
C671 C 0.89113 0.81254 0.98838 0.0
H672 H 0.8496 0.7217 0.98615 0.0
C673 C 0.86527 0.81716 0.97261 0.0
C674 C 0.83329 0.78747 0.96226 0.0
H675 H 0.91486 0.83599 0.99701 0.0
H676 H 0.86976 0.84395 0.96967 0.0
C677 C 0.82875 0.75316 0.96648 0.0
C678 C 0.06671 0.21424 0.54603 0.0
C679 C 0.06458 0.24391 0.55656 0.0
H680 H 0.09753 0.19541 0.52182 0.0
C681 C 0.09458 0.27819 0.55261 0.0
H682 H 0.04423 0.18747 0.54873 0.0
C683 C 0.12523 0.2828 0.53712 0.0
C684 C 0.12662 0.25323 0.52515 0.0
H685 H 0.094 0.30169 0.56055 0.0
H686 H 0.14729 0.30962 0.53353 0.0
C687 C 0.09734 0.21885 0.53051 0.0
C688 C 0.82299 0.87486 0.5736 0.0
C689 C 0.81227 0.84084 0.56123 0.0
H690 H 0.82169 0.92351 0.56881 0.0
C691 C 0.78936 0.82901 0.53494 0.0
H692 H 0.8405 0.88473 0.59387 0.0
C693 C 0.7781 0.85093 0.52091 0.0
C694 C 0.78989 0.88547 0.53252 0.0
H695 H 0.78026 0.80279 0.52498 0.0
H696 H 0.76107 0.8412 0.50032 0.0
C697 C 0.81216 0.89705 0.55924 0.0
C698 C 0.21409 0.94916 0.5468 0.0
C699 C 0.21233 0.98075 0.54866 0.0
H700 H 0.19028 0.89557 0.52925 0.0
C701 C 0.18248 0.98091 0.5357 0.0
H702 H 0.23664 0.948 0.55661 0.0
C703 C 0.1559 0.9508 0.52005 0.0
C704 C 0.15849 0.91977 0.5169 0.0
H705 H 0.18016 1.00468 0.53675 0.0
H706 H 0.13381 0.95228 0.5096 0.0
C707 C 0.1875 0.91903 0.53108 0.0
C708 C 0.80722 0.96617 0.96605 0.0
C709 C 0.7945 0.93422 0.9829 0.0
H710 H 0.82449 0.02176 0.96742 0.0
C711 C 0.79047 0.93478 0.01571 0.0
H712 H 0.81063 0.96675 0.94079 0.0
C713 C 0.79918 0.96687 0.03124 0.0
C714 C 0.81123 0.99859 0.01404 0.0
H715 H 0.78091 0.91057 0.02932 0.0
H716 H 0.79571 0.96672 0.05646 0.0
C717 C 0.81515 0.99778 0.98135 0.0
C718 C 0.09333 0.87681 0.03599 0.0
C719 C 0.11672 0.87054 0.01749 0.0
H720 H 0.04185 0.85428 0.05821 0.0
C721 C 0.1063 0.83523 1.00918 0.0
H722 H 0.10053 0.9037 0.04288 0.0
C723 C 0.0728 0.80713 0.01785 0.0
C724 C 0.04876 0.81345 0.03518 0.0
H725 H 0.12359 0.82928 0.99511 0.0
H726 H 0.06548 0.78041 1.01028 0.0
C727 C 0.05969 0.84852 0.04481 0.0
C728 C 0.18251 0.22999 0.97061 0.0
C729 C 0.16589 0.24573 0.98731 0.0
H730 H 0.21859 0.20985 0.9717 0.0
C731 C 0.1731 0.25258 0.01963 0.0
H732 H 0.17764 0.22439 0.94569 0.0
C733 C 0.19633 0.24339 0.03489 0.0
C734 C 0.21325 0.22813 0.01778 0.0
H735 H 0.16045 0.26448 0.03311 0.0
H736 H 0.20163 0.24889 0.05976 0.0
C737 C 0.20607 0.22166 0.98553 0.0
C738 C 0.92499 0.74842 0.49998 0.0
C739 C 0.92308 0.779 0.50769 0.0
H740 H 0.95657 0.72748 0.48084 0.0
C741 C 0.95163 0.81266 0.49903 0.0
H742 H 0.90346 0.7221 0.50618 0.0
C743 C 0.98215 0.8158 0.48451 0.0
C744 C 0.98485 0.78535 0.4783 0.0
H745 H 0.95098 0.8368 0.5044 0.0
H746 H 1.00413 0.8422 0.47922 0.0
C747 C 0.95552 0.75156 0.48545 0.0
C748 C 0.22598 0.18129 0.4839 0.0
C749 C 0.25666 0.21492 0.48002 0.0
H750 H 0.20424 0.12776 0.50061 0.0
C751 C 0.29019 0.21895 0.48787 0.0
H752 H 0.19977 0.1772 0.47808 0.0
C753 C 0.2928 0.19063 0.50082 0.0
C754 C 0.26194 0.15756 0.50631 0.0
H755 H 0.31446 0.24442 0.48501 0.0
H756 H 0.31891 0.1951 0.5076 0.0
C757 C 0.22859 0.15295 0.49693 0.0
C758 C 0.8142 0.04191 0.54003 0.0
C759 C 0.81731 0.0368 0.50781 0.0
H760 H 0.83651 0.07543 0.58029 0.0
C761 C 0.84607 0.06396 0.49095 0.0
H762 H 0.79251 0.02155 0.55381 0.0
C763 C 0.87115 0.09562 0.50624 0.0
C764 C 0.86828 0.09999 0.53871 0.0
H765 H 0.84906 0.06079 0.46608 0.0
H766 H 0.89327 0.1161 0.49295 0.0
C767 C 0.8395 0.07283 0.5553 0.0
C768 C 0.87987 0.39179 0.37809 0.0
C769 C 0.90657 0.4233 0.36404 0.0
H770 H 0.85063 0.3348 0.37766 0.0
C771 C 0.92313 0.4206 0.33649 0.0
H772 H 0.86644 0.39271 0.39927 0.0
C773 C 0.91345 0.38693 0.32366 0.0
C774 C 0.88757 0.35554 0.33856 0.0
H775 H 0.94368 0.44438 0.32503 0.0
H776 H 0.92706 0.38545 0.30283 0.0
C777 C 0.87074 0.35845 0.36569 0.0
C778 C 0.61164 0.49966 0.32153 0.0
C779 C 0.60566 0.46919 0.33832 0.0
H780 H 0.64868 0.54495 0.29434 0.0
C781 C 0.6322 0.45938 0.33775 0.0
H782 H 0.59171 0.50787 0.32135 0.0
C783 C 0.66471 0.48058 0.32248 0.0
C784 C 0.67153 0.51202 0.30709 0.0
H785 H 0.62848 0.43592 0.35014 0.0
H786 H 0.68502 0.4729 0.32368 0.0
C787 C 0.64424 0.52081 0.30594 0.0
C788 C 0.55024 0.14367 0.32872 0.0
C789 C 0.54528 0.10938 0.33407 0.0
H790 H 0.52832 0.17473 0.31036 0.0
C791 C 0.51458 0.0797 0.32181 0.0
H792 H 0.5737 0.16719 0.33763 0.0
C793 C 0.48856 0.08407 0.30606 0.0
C794 C 0.49262 0.11823 0.30221 0.0
H795 H 0.50998 0.05294 0.32537 0.0
H796 H 0.46462 0.06049 0.29793 0.0
C797 C 0.52423 0.14805 0.31298 0.0
C798 C 0.75652 0.61225 0.87799 0.0
C799 C 0.72851 0.57781 0.88548 0.0
H800 H 0.80779 0.64384 0.85637 0.0
C801 C 0.73293 0.54844 0.8788 0.0
H802 H 0.75417 0.63556 0.88293 0.0
C803 C 0.76376 0.55325 0.86353 0.0
C804 C 0.79095 0.58754 0.85458 0.0
H805 H 0.712 0.52157 0.88429 0.0
H806 H 0.76571 0.52988 0.85783 0.0
C807 C 0.78736 0.61707 0.86273 0.0
C808 C 0.49088 0.21304 0.8581 0.0
C809 C 0.45756 0.2067 0.84673 0.0
H810 H 0.52026 0.1913 0.88052 0.0
C811 C 0.42724 0.17312 0.85185 0.0
H812 H 0.51477 0.23871 0.85474 0.0
C813 C 0.43046 0.14595 0.8665 0.0
C814 C 0.46401 0.15179 0.87661 0.0
H815 H 0.40118 0.16735 0.84351 0.0
H816 H 0.4067 0.12001 0.86912 0.0
C817 C 0.49405 0.18592 0.873 0.0
C818 C 0.87766 0.28125 0.88274 0.0
C819 C 0.87554 0.31269 0.88372 0.0
H820 H 0.85528 0.2278 0.86501 0.0
C821 C 0.84662 0.31279 0.86869 0.0
H822 H 0.89959 0.28018 0.89404 0.0
C823 C 0.82126 0.28277 0.85211 0.0
C824 C 0.82416 0.25184 0.85001 0.0
H825 H 0.84404 0.33643 0.86899 0.0
H826 H 0.79985 0.28424 0.84023 0.0
C827 C 0.85228 0.25118 0.86604 0.0
C828 C 0.48638 0.27406 0.36184 0.0
C829 C 0.45293 0.24879 0.34932 0.0
H830 H 0.51794 0.32549 0.38329 0.0
C831 C 0.42425 0.25528 0.35191 0.0
H832 H 0.50903 0.26983 0.36042 0.0
C833 C 0.4294 0.28718 0.365 0.0
C834 C 0.46332 0.31334 0.37591 0.0
H835 H 0.39809 0.23636 0.3427 0.0
H836 H 0.40698 0.29184 0.36554 0.0
C837 C 0.49151 0.30597 0.37504 0.0
C838 C 0.71505 0.17628 0.36476 0.0
C839 C 0.71422 0.14617 0.37802 0.0
H840 H 0.74451 0.22392 0.33774 0.0
C841 C 0.74496 0.14283 0.3757 0.0
H842 H 0.69192 0.17975 0.36605 0.0
C843 C 0.77524 0.16823 0.35939 0.0
C844 C 0.7754 0.19746 0.3449 0.0
H845 H 0.74532 0.12001 0.3857 0.0
H846 H 0.79807 0.16436 0.35735 0.0
C847 C 0.74522 0.20155 0.34834 0.0
C848 C 0.88155 0.55573 0.31447 0.0
C849 C 0.88454 0.55742 0.34737 0.0
H850 H 0.85799 0.56381 0.27365 0.0
C851 C 0.86476 0.56947 0.36461 0.0
H852 H 0.89629 0.54655 0.3004 0.0
C853 C 0.84274 0.57996 0.34898 0.0
C854 C 0.83985 0.57801 0.31597 0.0
H855 H 0.8667 0.57127 0.39 0.0
H856 H 0.82775 0.58915 0.36266 0.0
C857 C 0.85947 0.56567 0.29906 0.0
C858 C 0.59284 0.07883 0.83497 0.0
C859 C 0.59044 0.10918 0.84246 0.0
H860 H 0.62485 0.0584 0.81576 0.0
C861 C 0.61848 0.14291 0.83324 0.0
H862 H 0.57174 0.05246 0.8416 0.0
C863 C 0.64901 0.14639 0.81842 0.0
C864 C 0.65227 0.1162 0.81247 0.0
H865 H 0.61746 0.1669 0.83842 0.0
H866 H 0.67061 0.17286 0.81274 0.0
C867 C 0.62339 0.0823 0.82016 0.0
C868 C 0.89162 0.4859 0.82877 0.0
C869 C 0.92406 0.49122 0.84149 0.0
H870 H 0.86364 0.50968 0.80724 0.0
C871 C 0.95445 0.52537 0.83964 0.0
H872 H 0.86769 0.45989 0.82965 0.0
C873 C 0.95208 0.55386 0.82682 0.0
C874 C 0.9193 0.54892 0.81543 0.0
H875 H 0.97989 0.53044 0.84904 0.0
H876 H 0.97585 0.58003 0.82668 0.0
C877 C 0.88927 0.51443 0.81583 0.0
C878 C 0.52961 0.39453 0.88608 0.0
C879 C 0.546 0.42681 0.86936 0.0
H880 H 0.49314 0.33839 0.88512 0.0
C881 C 0.53849 0.42624 0.83709 0.0
H882 H 0.53472 0.3939 0.91093 0.0
C883 C 0.51487 0.39389 0.82199 0.0
C884 C 0.49789 0.36186 0.83915 0.0
H885 H 0.55089 0.45069 0.82356 0.0
H886 H 0.50913 0.39407 0.79723 0.0
C887 C 0.50569 0.36262 0.87126 0.0
C888 C 0.58351 0.72658 0.64615 0.0
C889 C 0.54722 0.70187 0.64014 0.0
H890 H 0.62149 0.77656 0.66722 0.0
C891 C 0.52133 0.71064 0.64938 0.0
H892 H 0.6042 0.72074 0.63931 0.0
C893 C 0.53124 0.74246 0.66548 0.0
C894 C 0.56734 0.7665 0.67264 0.0
H895 H 0.49318 0.69239 0.64512 0.0
H896 H 0.51039 0.7478 0.67296 0.0
C897 C 0.59347 0.75861 0.66214 0.0
C898 C 0.28217 0.83877 0.66475 0.0
C899 C 0.25291 0.84432 0.66115 0.0
H900 H 0.33672 0.85608 0.65335 0.0
C901 C 0.25631 0.87124 0.6406 0.0
H902 H 0.28043 0.81803 0.68013 0.0
C903 C 0.28874 0.89315 0.62519 0.0
C904 C 0.31845 0.8885 0.62983 0.0
H905 H 0.23427 0.87612 0.63713 0.0
H906 H 0.29081 0.91441 0.61036 0.0
C907 C 0.31448 0.86049 0.64923 0.0
C908 C 0.22639 0.48418 0.65769 0.0
C909 C 0.22079 0.4502 0.66567 0.0
H910 H 0.2041 0.51452 0.63839 0.0
C911 C 0.18833 0.41997 0.65708 0.0
H912 H 0.25118 0.50807 0.66375 0.0
C913 C 0.16136 0.4237 0.64246 0.0
C914 C 0.16619 0.45775 0.63609 0.0
H915 H 0.18318 0.3934 0.66269 0.0
H916 H 0.13619 0.39983 0.63724 0.0
C917 C 0.1994 0.48792 0.64306 0.0
C918 C 0.41719 0.94081 0.21282 0.0
C919 C 0.38909 0.90663 0.22079 0.0
H920 H 0.46862 0.97163 0.19135 0.0
C921 C 0.39345 0.87701 0.21534 0.0
H922 H 0.41485 0.96428 0.21686 0.0
C923 C 0.42436 0.88128 0.20071 0.0
C924 C 0.45161 0.91525 0.19119 0.0
H925 H 0.37244 0.85033 0.22129 0.0
H926 H 0.4263 0.85771 0.1959 0.0
C927 C 0.44809 0.94508 0.19818 0.0
C928 C 0.15537 0.51471 0.21529 0.0
C929 C 0.12663 0.4795 0.21585 0.0
H930 H 0.17444 0.56846 0.20021 0.0
C931 C 0.09326 0.47249 0.20406 0.0
H932 H 0.1814 0.521 0.22416 0.0
C933 C 0.08916 0.49966 0.19051 0.0
C934 C 0.11845 0.53443 0.18813 0.0
H935 H 0.07046 0.44567 0.20436 0.0
H936 H 0.06343 0.49301 0.18064 0.0
C937 C 0.15137 0.54186 0.20143 0.0
C938 C 0.5229 0.66379 0.16317 0.0
C939 C 0.5411 0.66565 0.19107 0.0
H940 H 0.48652 0.63097 0.12757 0.0
C941 C 0.53483 0.63366 0.20525 0.0
H942 H 0.52704 0.68789 0.15168 0.0
C943 C 0.5117 0.60052 0.19099 0.0
C944 C 0.49412 0.59893 0.16262 0.0
H945 H 0.54875 0.63432 0.22664 0.0
H946 H 0.5079 0.5763 0.20194 0.0
C947 C 0.49961 0.63099 0.1493 0.0
C948 C 0.18326 0.66827 0.66311 0.0
C949 C 0.16513 0.67156 0.68911 0.0
H950 H 0.18703 0.63388 0.62939 0.0
C951 C 0.13657 0.64049 0.70215 0.0
H952 H 0.20542 0.69165 0.65258 0.0
C953 C 0.12544 0.60692 0.68839 0.0
C954 C 0.14311 0.60396 0.66173 0.0
H955 H 0.12194 0.6423 0.72207 0.0
H956 H 0.10274 0.5835 0.69826 0.0
C957 C 0.1726 0.635 0.64978 0.0
C958 C 0.40497 0.47818 0.67435 0.0
C959 C 0.38525 0.48519 0.69667 0.0
H960 H 0.4529 0.49849 0.6474 0.0
C961 C 0.40082 0.51937 0.71028 0.0
H962 H 0.394 0.45209 0.66354 0.0
C963 C 0.43497 0.54623 0.70096 0.0
C964 C 0.45415 0.53936 0.67788 0.0
H965 H 0.38636 0.52559 0.72761 0.0
H966 H 0.44594 0.57255 0.71128 0.0
C967 C 0.43891 0.50485 0.6651 0.0
C968 C 0.53108 0.90866 0.70015 0.0
C969 C 0.54338 0.88949 0.68239 0.0
H970 H 0.49974 0.93479 0.70031 0.0
C971 C 0.53172 0.8804 0.6512 0.0
H972 H 0.5399 0.91622 0.72421 0.0
C973 C 0.5087 0.89051 0.63779 0.0
C974 C 0.49712 0.9106 0.65499 0.0
H975 H 0.54061 0.86555 0.63694 0.0
H976 H 0.50059 0.88312 0.61357 0.0
C977 C 0.50839 0.91949 0.68642 0.0
C978 C 0.27094 0.43855 0.16883 0.0
C979 C 0.26801 0.45794 0.19416 0.0
H980 H 0.30628 0.43365 0.13598 0.0
C981 C 0.2989 0.48914 0.20419 0.0
H982 H 0.24767 0.4145 0.16045 0.0
C983 C 0.33204 0.49972 0.19056 0.0
C984 C 0.33537 0.47987 0.16607 0.0
H985 H 0.29786 0.50499 0.22346 0.0
H986 H 0.35538 0.52317 0.19978 0.0
C987 C 0.30439 0.44964 0.15469 0.0
C988 C 0.61461 0.87732 0.15398 0.0
C989 C 0.58088 0.87459 0.15068 0.0
H990 H 0.64492 0.85524 0.1739 0.0
C991 C 0.55089 0.845 0.16383 0.0
H992 H 0.63829 0.89973 0.14408 0.0
C993 C 0.55478 0.81967 0.1811 0.0
C994 C 0.5887 0.82319 0.1855 0.0
H995 H 0.52453 0.84203 0.16178 0.0
H996 H 0.53119 0.79772 0.1916 0.0
C997 C 0.61846 0.85185 0.17113 0.0
C998 C 0.19909 0.75405 0.17281 0.0
C999 C 0.20602 0.75574 0.2053 0.0
H1000 H 0.17018 0.72054 0.13345 0.0
C1001 C 0.18892 0.72417 0.22297 0.0
H1002 H 0.21206 0.77795 0.15858 0.0
C1003 C 0.16491 0.69183 0.20883 0.0
C1004 C 0.15778 0.68994 0.17649 0.0
H1005 H 0.19358 0.72445 0.24802 0.0
H1006 H 0.15183 0.66817 0.22337 0.0
C1007 C 0.17542 0.72125 0.15842 0.0
C1008 C 0.37119 0.32429 0.12436 0.0
C1009 C 0.36195 0.30724 0.09482 0.0
H1010 H 0.39579 0.3739 0.14956 0.0
C1011 C 0.37513 0.32799 0.06758 0.0
H1012 H 0.36178 0.30894 0.14584 0.0
C1013 C 0.39452 0.3652 0.06978 0.0
C1014 C 0.40132 0.38233 0.09923 0.0
H1015 H 0.36865 0.31566 0.04453 0.0
H1016 H 0.40269 0.38058 0.04825 0.0
C1017 C 0.39082 0.36151 0.12657 0.0
C1018 C 0.66964 0.03945 0.07218 0.0
C1019 C 0.65282 0.0282 0.1016 0.0
H1020 H 0.71894 0.06354 0.04667 0.0
C1021 C 0.67395 0.03696 0.1288 0.0
H1022 H 0.654 0.03341 0.05081 0.0
C1023 C 0.71114 0.05407 0.12638 0.0
C1024 C 0.72783 0.06293 0.09676 0.0
H1025 H 0.66176 0.02877 0.15178 0.0
H1026 H 0.7267 0.05892 0.14767 0.0
C1027 C 0.70684 0.05678 0.06978 0.0
C1028 C 0.97594 0.65249 0.1177 0.0
C1029 C 0.97112 0.66317 0.0877 0.0
H1030 H 1.00012 0.62852 0.14492 0.0
C1031 C 0.98436 0.65405 0.06132 0.0
H1032 H 0.96573 0.65885 0.13849 0.0
C1033 C 1.0042 0.63686 0.06507 0.0
C1034 C 1.01093 0.62818 0.09523 0.0
H1035 H 0.98102 0.66181 0.03793 0.0
H1036 H 1.0154 0.63155 0.04436 0.0
C1037 C 0.99554 0.63501 0.12143 0.0
C1038 C 0.35142 0.38011 0.46035 0.0
C1039 C 0.32912 0.36927 0.43383 0.0
H1040 H 0.40497 0.4038 0.4777 0.0
C1041 C 0.34475 0.37844 0.40376 0.0
H1042 H 0.34023 0.37363 0.48381 0.0
C1043 C 0.38188 0.39577 0.4002 0.0
C1044 C 0.40405 0.40412 0.42666 0.0
H1045 H 0.32826 0.37079 0.38282 0.0
H1046 H 0.39302 0.4008 0.37671 0.0
C1047 C 0.38853 0.39731 0.45679 0.0
C1048 C 0.64542 0.98688 0.39818 0.0
C1049 C 0.62787 0.99083 0.42431 0.0
H1050 H 0.6823 0.97143 0.38135 0.0
C1051 C 0.63139 0.97789 0.45368 0.0
H1052 H 0.64319 0.99638 0.37522 0.0
C1053 C 0.65395 0.96359 0.45726 0.0
C1054 C 0.67347 0.96208 0.43153 0.0
H1055 H 0.61801 0.98031 0.47428 0.0
H1056 H 0.65741 0.95539 0.48042 0.0
C1057 C 0.66802 0.97272 0.40177 0.0
C1058 C 0.06413 0.69812 0.40105 0.0
C1059 C 0.07007 0.71498 0.43058 0.0
H1060 H 0.03884 0.64872 0.37547 0.0
C1061 C 0.05856 0.69388 0.45774 0.0
H1062 H 0.07304 0.7137 0.37966 0.0
C1063 C 0.03892 0.65674 0.45526 0.0
C1064 C 0.03063 0.63996 0.42561 0.0
H1065 H 0.06287 0.70601 0.4808 0.0
H1066 H 0.02883 0.64122 0.47658 0.0
C1067 C 0.04468 0.6609 0.39859 0.0
C1068 C 0.64776 0.66205 0.95558 0.0
C1069 C 0.63854 0.64258 0.92723 0.0
H1070 H 0.6745 0.71356 0.97747 0.0
C1071 C 0.64537 0.66102 0.89869 0.0
H1072 H 0.64244 0.64857 0.97803 0.0
C1073 C 0.66369 0.69829 0.89843 0.0
C1074 C 0.67548 0.71779 0.92669 0.0
H1075 H 0.63839 0.64681 0.87649 0.0
H1076 H 0.67015 0.71178 0.87594 0.0
C1077 C 0.66605 0.69932 0.95532 0.0
C1078 C 0.35239 1.00309 0.99188 0.0
C1079 C 0.32624 0.97696 0.97233 0.0
H1080 H 0.40716 0.04283 0.9976 0.0
C1081 C 0.33688 0.9686 0.94373 0.0
H1082 H 0.34514 1.01001 0.01411 0.0
C1083 C 0.37263 0.98783 0.93395 0.0
C1084 C 0.39831 0.01554 0.95272 0.0
H1085 H 0.31732 0.94859 0.92807 0.0
H1086 H 0.37981 0.98198 0.91122 0.0
C1087 C 0.38798 0.02204 0.98226 0.0
C1088 C 0.06045 0.37213 0.92394 0.0
C1089 C 0.06053 0.34694 0.9032 0.0
H1090 H 0.0427 0.40957 0.93236 0.0
C1091 C 0.04573 0.34323 0.87299 0.0
H1092 H 0.07185 0.37577 0.94726 0.0
C1093 C 0.02904 0.36245 0.86441 0.0
C1094 C 0.02683 0.38594 0.88581 0.0
H1095 H 0.04582 0.32443 0.8562 0.0
H1096 H 1.01654 0.35771 0.84148 0.0
C1097 C 0.04379 0.39152 0.9153 0.0
C1098 C 0.72024 0.69044 0.64555 0.0
C1099 C 0.73142 0.68358 0.61659 0.0
H1100 H 0.67655 0.67787 0.67652 0.0
C1101 C 0.70682 0.65455 0.59838 0.0
H1102 H 0.73866 0.71223 0.66049 0.0
C1103 C 0.67108 0.63447 0.60788 0.0
C1104 C 0.65938 0.64331 0.63563 0.0
H1105 H 0.71473 0.64837 0.57615 0.0
H1106 H 0.65227 0.61349 0.59247 0.0
C1107 C 0.68462 0.6706 0.65491 0.0
C1108 C 0.42589 0.10131 0.57851 0.0
C1109 C 0.38867 0.08456 0.5825 0.0
H1110 H 0.47326 0.09762 0.58501 0.0
C1111 C 0.37105 0.05221 0.59903 0.0
H1112 H 0.44014 0.12651 0.5662 0.0
C1113 C 0.38999 0.03647 0.61078 0.0
C1114 C 0.42694 0.05212 0.60551 0.0
H1115 H 0.3425 0.03909 0.60316 0.0
H1116 H 0.37528 1.0113 0.62302 0.0
C1117 C 0.44481 0.08494 0.58951 0.0
C1118 C 1.00194 0.36919 0.62777 0.0
C1119 C 1.01056 0.38841 0.59955 0.0
H1120 H 0.98033 0.31799 0.64937 0.0
C1121 C 0.99944 0.36955 0.57092 0.0
H1122 H 1.00998 0.3829 0.65018 0.0
C1123 C 0.98254 0.33232 0.57038 0.0
C1124 C 0.97649 0.31326 0.59848 0.0
H1125 H 1.00535 0.38361 0.54872 0.0
H1126 H 0.97597 0.3187 0.5479 0.0
C1127 C 0.9851 0.33197 0.62723 0.0
C1128 C 1.01385 0.71343 0.78945 0.0
C1129 C 0.99255 0.70118 0.76234 0.0
H1130 H 0.06681 0.73912 0.80838 0.0
C1131 C 1.00922 0.70984 0.73267 0.0
H1132 H 1.00184 0.70736 0.8126 0.0
C1133 C 0.0465 0.72821 0.7302 0.0
C1134 C 0.06774 0.73797 0.75737 0.0
H1135 H 0.99346 0.70108 0.7113 0.0
H1136 H 0.05856 0.7329 0.70709 0.0
C1137 C 0.05109 0.73153 0.78697 0.0
C1138 C 0.31833 0.32554 0.72883 0.0
C1139 C 0.30976 0.33787 0.75614 0.0
H1140 H 0.34471 0.29924 0.70941 0.0
C1141 C 0.31775 0.3289 0.78565 0.0
H1142 H 0.31238 0.33187 0.70579 0.0
C1143 C 0.33613 0.31004 0.78778 0.0
C1144 C 0.3471 0.3001 0.76041 0.0
H1145 H 0.31111 0.33771 0.80716 0.0
H1146 H 0.34343 0.30503 0.81078 0.0
C1147 C 0.33696 0.30695 0.73095 0.0
C1148 C 0.70454 0.98872 0.78612 0.0
C1149 C 0.69588 0.97243 0.75626 0.0
H1150 H 0.72941 0.03757 0.81231 0.0
C1151 C 0.71007 0.99378 0.72947 0.0
H1152 H 0.69436 0.9729 0.80728 0.0
C1153 C 0.73014 0.03093 0.73241 0.0
C1154 C 0.73656 0.04735 0.76218 0.0
H1155 H 0.70401 0.98201 0.70619 0.0
H1156 H 0.73921 0.04684 0.71121 0.0
C1157 C 0.72478 0.0258 0.78907 0.0
C1158 C 0.30788 0.99149 0.23218 0.0
C1159 C 0.29929 0.97239 0.26047 0.0
H1160 H 0.33392 0.04283 0.21039 0.0
C1161 C 0.30655 0.99115 0.28909 0.0
H1162 H 0.30247 0.97779 0.20978 0.0
C1163 C 0.32462 0.02839 0.28951 0.0
C1164 C 0.33583 0.04758 0.26129 0.0
H1165 H 0.29983 0.97713 0.31133 0.0
H1166 H 0.33146 0.04206 0.31197 0.0
C1167 C 0.32603 0.02877 0.23259 0.0
C1168 C 1.00105 0.2962 0.27387 0.0
C1169 C 0.99092 0.30281 0.30355 0.0
H1170 H 0.04361 0.31135 0.24045 0.0
C1171 C 1.0175 0.32716 0.32387 0.0
H1172 H 0.98112 0.27754 0.25761 0.0
C1173 C 0.05299 0.34627 0.31408 0.0
C1174 C 0.06285 0.34173 0.28362 0.0
H1175 H 1.0107 0.33263 0.34694 0.0
H1176 H 0.07252 0.36572 0.33014 0.0
C1177 C 0.03678 0.31559 0.26394 0.0
C1178 C 0.72766 0.7019 0.26413 0.0
C1179 C 0.7266 0.67614 0.2434 0.0
H1180 H 0.71167 0.74077 0.27249 0.0
C1181 C 0.71207 0.67304 0.21316 0.0
H1182 H 0.73896 0.70507 0.28745 0.0
C1183 C 0.69664 0.69336 0.20455 0.0
C1184 C 0.69536 0.71734 0.22594 0.0
H1185 H 0.71147 0.65395 0.19631 0.0
H1186 H 0.68432 0.68907 0.18156 0.0
C1187 C 0.71214 0.72238 0.25546 0.0
loop_
_geom_bond_atom_site_label_1
_geom_bond_atom_site_label_2
_geom_bond_distance
_geom_bond_site_symmetry_2
_ccdc_geom_bond_type
Mg0 O7 2.141 . S
Mg0 O8 2.048 . S
Mg0 O9 2.048 . S
Mg0 O12 2.141 . S
C1 O2 1.313 . S
C1 O8 1.195 . S
O2 C1 1.313 . S
C3 O4 1.245 . S
C3 O12 1.289 . S
O4 C3 1.245 . S
C5 O6 1.245 . S
C5 O7 1.289 . S
O6 C5 1.245 . S
O7 Mg0 2.141 . S
O7 C5 1.289 . S
O8 Mg0 2.048 . S
O8 C1 1.195 . S
O9 Mg0 2.048 . S
O9 C10 1.195 . S
C10 O9 1.195 . S
C10 O11 1.313 . S
O11 C10 1.313 . S
O12 Mg0 2.141 . S
O12 C3 1.289 . S
Mg13 O20 2.141 . S
Mg13 O21 2.048 . S
Mg13 O22 2.048 . S
Mg13 O25 2.141 . S
C14 O15 1.313 . S
C14 O21 1.195 . S
O15 C14 1.313 . S
C16 O17 1.245 . S
C16 O25 1.289 . S
O17 C16 1.245 . S
C18 O19 1.245 . S
C18 O20 1.289 . S
O19 C18 1.245 . S
O20 Mg13 2.141 . S
O20 C18 1.289 . S
O21 Mg13 2.048 . S
O21 C14 1.195 . S
O22 Mg13 2.048 . S
O22 C23 1.195 . S
C23 O22 1.195 . S
C23 O24 1.313 . S
O24 C23 1.313 . S
O25 Mg13 2.141 . S
O25 C16 1.289 . S
Mg26 O33 2.141 . S
Mg26 O34 2.048 . S
Mg26 O35 2.048 . S
Mg26 O38 2.141 . S
C27 O28 1.313 . S
C27 O34 1.195 . S
O28 C27 1.313 . S
C29 O30 1.245 . S
C29 O38 1.289 . S
O30 C29 1.245 . S
C31 O32 1.245 . S
C31 O33 1.289 . S
O32 C31 1.245 . S
O33 Mg26 2.141 . S
O33 C31 1.289 . S
O34 Mg26 2.048 . S
O34 C27 1.195 . S
O35 Mg26 2.048 . S
O35 C36 1.195 . S
C36 O35 1.195 . S
C36 O37 1.313 . S
O37 C36 1.313 . S
O38 Mg26 2.141 . S
O38 C29 1.289 . S
Mg39 O46 2.141 . S
Mg39 O47 2.048 . S
Mg39 O48 2.048 . S
Mg39 O51 2.141 . S
C40 O41 1.313 . S
C40 O47 1.195 . S
O41 C40 1.313 . S
C42 O43 1.245 . S
C42 O51 1.289 . S
O43 C42 1.245 . S
C44 O45 1.245 . S
C44 O46 1.289 . S
O45 C44 1.245 . S
O46 Mg39 2.141 . S
O46 C44 1.289 . S
O47 Mg39 2.048 . S
O47 C40 1.195 . S
O48 Mg39 2.048 . S
O48 C49 1.195 . S
C49 O48 1.195 . S
C49 O50 1.313 . S
O50 C49 1.313 . S
O51 Mg39 2.141 . S
O51 C42 1.289 . S
Mg52 O59 2.141 . S
Mg52 O60 2.048 . S
Mg52 O61 2.048 . S
Mg52 O64 2.141 . S
C53 O54 1.313 . S
C53 O60 1.195 . S
O54 C53 1.313 . S
C55 O56 1.245 . S
C55 O64 1.289 . S
O56 C55 1.245 . S
C57 O58 1.245 . S
C57 O59 1.289 . S
O58 C57 1.245 . S
O59 Mg52 2.141 . S
O59 C57 1.289 . S
O60 Mg52 2.048 . S
O60 C53 1.195 . S
O61 Mg52 2.048 . S
O61 C62 1.195 . S
C62 O61 1.195 . S
C62 O63 1.313 . S
O63 C62 1.313 . S
O64 Mg52 2.141 . S
O64 C55 1.289 . S
Mg65 O72 2.141 . S
Mg65 O73 2.048 . S
Mg65 O74 2.048 . S
Mg65 O77 2.141 . S
C66 O67 1.313 . S
C66 O73 1.195 . S
O67 C66 1.313 . S
C68 O69 1.245 . S
C68 O77 1.289 . S
O69 C68 1.245 . S
C70 O71 1.245 . S
C70 O72 1.289 . S
O71 C70 1.245 . S
O72 Mg65 2.141 . S
O72 C70 1.289 . S
O73 Mg65 2.048 . S
O73 C66 1.195 . S
O74 Mg65 2.048 . S
O74 C75 1.195 . S
C75 O74 1.195 . S
C75 O76 1.313 1_455 S
O76 C75 1.313 1_655 S
O77 Mg65 2.141 . S
O77 C68 1.289 . S
Mg78 O85 2.141 . S
Mg78 O86 2.048 . S
Mg78 O87 2.048 . S
Mg78 O90 2.141 . S
C79 O80 1.313 . S
C79 O86 1.195 . S
O80 C79 1.313 . S
C81 O82 1.245 . S
C81 O90 1.289 . S
O82 C81 1.245 . S
C83 O84 1.245 . S
C83 O85 1.289 . S
O84 C83 1.245 . S
O85 Mg78 2.141 . S
O85 C83 1.289 . S
O86 Mg78 2.048 . S
O86 C79 1.195 . S
O87 Mg78 2.048 . S
O87 C88 1.195 . S
C88 O87 1.195 . S
C88 O89 1.313 . S
O89 C88 1.313 . S
O90 Mg78 2.141 . S
O90 C81 1.289 . S
Mg91 O98 2.141 . S
Mg91 O99 2.048 . S
Mg91 O100 2.048 . S
Mg91 O103 2.141 . S
C92 O93 1.313 . S
C92 O99 1.195 . S
O93 C92 1.313 . S
C94 O95 1.245 . S
C94 O103 1.289 . S
O95 C94 1.245 . S
C96 O97 1.245 . S
C96 O98 1.289 . S
O97 C96 1.245 . S
O98 Mg91 2.141 . S
O98 C96 1.289 . S
O99 Mg91 2.048 . S
O99 C92 1.195 . S
O100 Mg91 2.048 . S
O100 C101 1.195 . S
C101 O100 1.195 . S
C101 O102 1.313 . S
O102 C101 1.313 . S
O103 Mg91 2.141 . S
O103 C94 1.289 . S
Mg104 O111 2.141 . S
Mg104 O112 2.048 . S
Mg104 O113 2.048 . S
Mg104 O116 2.141 . S
C105 O106 1.313 1_455 S
C105 O112 1.195 . S
O106 C105 1.313 1_655 S
C107 O108 1.245 . S
C107 O116 1.289 . S
O108 C107 1.245 . S
C109 O110 1.245 . S
C109 O111 1.289 . S
O110 C109 1.245 . S
O111 Mg104 2.141 . S
O111 C109 1.289 . S
O112 Mg104 2.048 . S
O112 C105 1.195 . S
O113 Mg104 2.048 . S
O113 C114 1.195 . S
C114 O113 1.195 . S
C114 O115 1.313 . S
O115 C114 1.313 . S
O116 Mg104 2.141 . S
O116 C107 1.289 . S
Mg117 O124 2.141 . S
Mg117 O125 2.048 . S
Mg117 O126 2.048 . S
Mg117 O129 2.141 . S
C118 O119 1.313 . S
C118 O125 1.195 . S
O119 C118 1.313 . S
C120 O121 1.245 . S
C120 O129 1.289 . S
O121 C120 1.245 . S
C122 O123 1.245 . S
C122 O124 1.289 . S
O123 C122 1.245 . S
O124 Mg117 2.141 . S
O124 C122 1.289 . S
O125 Mg117 2.048 . S
O125 C118 1.195 . S
O126 Mg117 2.048 . S
O126 C127 1.195 . S
C127 O126 1.195 . S
C127 O128 1.313 . S
O128 C127 1.313 . S
O129 Mg117 2.141 . S
O129 C120 1.289 . S
Mg130 O137 2.141 . S
Mg130 O138 2.048 . S
Mg130 O139 2.048 . S
Mg130 O142 2.141 . S
C131 O132 1.313 . S
C131 O138 1.195 . S
O132 C131 1.313 . S
C133 O134 1.245 . S
C133 O142 1.289 . S
O134 C133 1.245 . S
C135 O136 1.245 . S
C135 O137 1.289 . S
O136 C135 1.245 . S
O137 Mg130 2.141 . S
O137 C135 1.289 . S
O138 Mg130 2.048 . S
O138 C131 1.195 . S
O139 Mg130 2.048 . S
O139 C140 1.195 . S
C140 O139 1.195 . S
C140 O141 1.313 . S
O141 C140 1.313 . S
O142 Mg130 2.141 . S
O142 C133 1.289 . S
Mg143 O150 2.141 . S
Mg143 O151 2.048 . S
Mg143 O152 2.048 . S
Mg143 O155 2.141 . S
C144 O145 1.313 1_655 S
C144 O151 1.195 . S
O145 C144 1.313 1_455 S
C146 O147 1.245 . S
C146 O155 1.289 . S
O147 C146 1.245 . S
C148 O149 1.245 . S
C148 O150 1.289 . S
O149 C148 1.245 . S
O150 Mg143 2.141 . S
O150 C148 1.289 . S
O151 Mg143 2.048 . S
O151 C144 1.195 . S
O152 Mg143 2.048 . S
O152 C153 1.195 . S
C153 O152 1.195 . S
C153 O154 1.313 . S
O154 C153 1.313 . S
O155 Mg143 2.141 . S
O155 C146 1.289 . S
Mg156 O163 2.141 . S
Mg156 O164 2.048 . S
Mg156 O165 2.048 . S
Mg156 O168 2.141 . S
C157 O158 1.313 . S
C157 O164 1.195 . S
O158 C157 1.313 . S
C159 O160 1.245 . S
C159 O168 1.289 . S
O160 C159 1.245 . S
C161 O162 1.245 . S
C161 O163 1.289 . S
O162 C161 1.245 . S
O163 Mg156 2.141 . S
O163 C161 1.289 . S
O164 Mg156 2.048 . S
O164 C157 1.195 . S
O165 Mg156 2.048 . S
O165 C166 1.195 . S
C166 O165 1.195 . S
C166 O167 1.313 . S
O167 C166 1.313 . S
O168 Mg156 2.141 . S
O168 C159 1.289 . S
Mg169 O176 2.141 . S
Mg169 O177 2.048 . S
Mg169 O178 2.048 . S
Mg169 O181 2.141 . S
C170 O171 1.313 . S
C170 O177 1.195 . S
O171 C170 1.313 . S
C172 O173 1.245 . S
C172 O181 1.289 . S
O173 C172 1.245 . S
C174 O175 1.245 . S
C174 O176 1.289 . S
O175 C174 1.245 . S
O176 Mg169 2.141 . S
O176 C174 1.289 . S
O177 Mg169 2.048 . S
O177 C170 1.195 . S
O178 Mg169 2.048 . S
O178 C179 1.195 . S
C179 O178 1.195 . S
C179 O180 1.313 . S
O180 C179 1.313 . S
O181 Mg169 2.141 . S
O181 C172 1.289 . S
Mg182 O189 2.141 . S
Mg182 O190 2.048 . S
Mg182 O191 2.048 . S
Mg182 O194 2.141 . S
C183 O184 1.313 . S
C183 O190 1.195 . S
O184 C183 1.313 . S
C185 O186 1.245 . S
C185 O194 1.289 . S
O186 C185 1.245 . S
C187 O188 1.245 . S
C187 O189 1.289 . S
O188 C187 1.245 . S
O189 Mg182 2.141 . S
O189 C187 1.289 . S
O190 Mg182 2.048 . S
O190 C183 1.195 . S
O191 Mg182 2.048 . S
O191 C192 1.195 . S
C192 O191 1.195 . S
C192 O193 1.313 . S
O193 C192 1.313 . S
O194 Mg182 2.141 . S
O194 C185 1.289 . S
Mg195 O202 2.141 . S
Mg195 O203 2.048 . S
Mg195 O204 2.048 . S
Mg195 O207 2.141 . S
C196 O197 1.313 . S
C196 O203 1.195 . S
O197 C196 1.313 . S
C198 O199 1.245 . S
C198 O207 1.289 . S
O199 C198 1.245 . S
C200 O201 1.245 . S
C200 O202 1.289 . S
O201 C200 1.245 . S
O202 Mg195 2.141 . S
O202 C200 1.289 . S
O203 Mg195 2.048 . S
O203 C196 1.195 . S
O204 Mg195 2.048 . S
O204 C205 1.195 . S
C205 O204 1.195 . S
C205 O206 1.313 . S
O206 C205 1.313 . S
O207 Mg195 2.141 . S
O207 C198 1.289 . S
Mg208 O215 2.141 . S
Mg208 O216 2.048 . S
Mg208 O217 2.048 . S
Mg208 O220 2.141 . S
C209 O210 1.313 . S
C209 O216 1.195 . S
O210 C209 1.313 . S
C211 O212 1.245 . S
C211 O220 1.289 . S
O212 C211 1.245 . S
C213 O214 1.245 . S
C213 O215 1.289 . S
O214 C213 1.245 . S
O215 Mg208 2.141 . S
O215 C213 1.289 . S
O216 Mg208 2.048 . S
O216 C209 1.195 . S
O217 Mg208 2.048 . S
O217 C218 1.195 . S
C218 O217 1.195 . S
C218 O219 1.313 . S
O219 C218 1.313 . S
O220 Mg208 2.141 . S
O220 C211 1.289 . S
Mg221 O228 2.141 . S
Mg221 O229 2.048 . S
Mg221 O230 2.048 . S
Mg221 O233 2.141 . S
C222 O223 1.313 . S
C222 O229 1.195 . S
O223 C222 1.313 . S
C224 O225 1.245 . S
C224 O233 1.289 . S
O225 C224 1.245 . S
C226 O227 1.245 . S
C226 O228 1.289 . S
O227 C226 1.245 . S
O228 Mg221 2.141 . S
O228 C226 1.289 . S
O229 Mg221 2.048 . S
O229 C222 1.195 . S
O230 Mg221 2.048 . S
O230 C231 1.195 . S
C231 O230 1.195 . S
C231 O232 1.313 . S
O232 C231 1.313 . S
O233 Mg221 2.141 . S
O233 C224 1.289 . S
Mg234 O241 2.141 . S
Mg234 O242 2.048 . S
Mg234 O243 2.048 . S
Mg234 O246 2.141 . S
C235 O236 1.313 . S
C235 O242 1.195 . S
O236 C235 1.313 . S
C237 O238 1.245 . S
C237 O246 1.289 . S
O238 C237 1.245 . S
C239 O240 1.245 . S
C239 O241 1.289 . S
O240 C239 1.245 . S
O241 Mg234 2.141 . S
O241 C239 1.289 . S
O242 Mg234 2.048 . S
O242 C235 1.195 . S
O243 Mg234 2.048 . S
O243 C244 1.195 . S
C244 O243 1.195 . S
C244 O245 1.313 . S
O245 C244 1.313 . S
O246 Mg234 2.141 . S
O246 C237 1.289 . S
Mg247 O254 2.141 . S
Mg247 O255 2.048 . S
Mg247 O256 2.048 . S
Mg247 O259 2.141 . S
C248 O249 1.313 . S
C248 O255 1.195 . S
O249 C248 1.313 . S
C250 O251 1.245 . S
C250 O259 1.289 . S
O251 C250 1.245 . S
C252 O253 1.245 . S
C252 O254 1.289 . S
O253 C252 1.245 . S
O254 Mg247 2.141 . S
O254 C252 1.289 . S
O255 Mg247 2.048 . S
O255 C248 1.195 . S
O256 Mg247 2.048 . S
O256 C257 1.195 . S
C257 O256 1.195 . S
C257 O258 1.313 . S
O258 C257 1.313 . S
O259 Mg247 2.141 . S
O259 C250 1.289 . S
Mg260 O267 2.141 . S
Mg260 O268 2.048 . S
Mg260 O269 2.048 . S
Mg260 O272 2.141 . S
C261 O262 1.313 . S
C261 O268 1.195 . S
O262 C261 1.313 . S
C263 O264 1.245 . S
C263 O272 1.289 . S
O264 C263 1.245 . S
C265 O266 1.245 . S
C265 O267 1.289 . S
O266 C265 1.245 . S
O267 Mg260 2.141 . S
O267 C265 1.289 . S
O268 Mg260 2.048 . S
O268 C261 1.195 . S
O269 Mg260 2.048 . S
O269 C270 1.195 . S
C270 O269 1.195 . S
C270 O271 1.313 . S
O271 C270 1.313 . S
O272 Mg260 2.141 . S
O272 C263 1.289 . S
Mg273 O280 2.141 . S
Mg273 O281 2.048 . S
Mg273 O282 2.048 . S
Mg273 O285 2.141 . S
C274 O275 1.313 . S
C274 O281 1.195 . S
O275 C274 1.313 . S
C276 O277 1.245 . S
C276 O285 1.289 . S
O277 C276 1.245 . S
C278 O279 1.245 . S
C278 O280 1.289 . S
O279 C278 1.245 . S
O280 Mg273 2.141 . S
O280 C278 1.289 . S
O281 Mg273 2.048 . S
O281 C274 1.195 . S
O282 Mg273 2.048 . S
O282 C283 1.195 . S
C283 O282 1.195 . S
C283 O284 1.313 . S
O284 C283 1.313 . S
O285 Mg273 2.141 . S
O285 C276 1.289 . S
Mg286 O293 2.141 . S
Mg286 O294 2.048 . S
Mg286 O295 2.048 . S
Mg286 O298 2.141 . S
C287 O288 1.313 . S
C287 O294 1.195 . S
O288 C287 1.313 . S
C289 O290 1.245 . S
C289 O298 1.289 . S
O290 C289 1.245 . S
C291 O292 1.245 . S
C291 O293 1.289 . S
O292 C291 1.245 . S
O293 Mg286 2.141 . S
O293 C291 1.289 . S
O294 Mg286 2.048 . S
O294 C287 1.195 . S
O295 Mg286 2.048 . S
O295 C296 1.195 . S
C296 O295 1.195 . S
C296 O297 1.313 . S
O297 C296 1.313 . S
O298 Mg286 2.141 . S
O298 C289 1.289 . S
Mg299 O306 2.141 . S
Mg299 O307 2.048 . S
Mg299 O308 2.048 . S
Mg299 O311 2.141 . S
C300 O301 1.313 . S
C300 O307 1.195 . S
O301 C300 1.313 . S
C302 O303 1.245 . S
C302 O311 1.289 . S
O303 C302 1.245 . S
C304 O305 1.245 . S
C304 O306 1.289 . S
O305 C304 1.245 . S
O306 Mg299 2.141 . S
O306 C304 1.289 . S
O307 Mg299 2.048 . S
O307 C300 1.195 . S
O308 Mg299 2.048 . S
O308 C309 1.195 . S
C309 O308 1.195 . S
C309 O310 1.313 . S
O310 C309 1.313 . S
O311 Mg299 2.141 . S
O311 C302 1.289 . S
Mg312 O319 2.141 . S
Mg312 O320 2.048 . S
Mg312 O321 2.048 . S
Mg312 O324 2.141 . S
C313 O314 1.313 . S
C313 O320 1.195 . S
O314 C313 1.313 . S
C315 O316 1.245 . S
C315 O324 1.289 . S
O316 C315 1.245 . S
C317 O318 1.245 . S
C317 O319 1.289 . S
O318 C317 1.245 . S
O319 Mg312 2.141 . S
O319 C317 1.289 . S
O320 Mg312 2.048 . S
O320 C313 1.195 . S
O321 Mg312 2.048 . S
O321 C322 1.195 . S
C322 O321 1.195 . S
C322 O323 1.313 . S
O323 C322 1.313 . S
O324 Mg312 2.141 . S
O324 C315 1.289 . S
Mg325 O332 2.141 . S
Mg325 O333 2.048 . S
Mg325 O334 2.048 . S
Mg325 O337 2.141 . S
C326 O327 1.313 . S
C326 O333 1.195 . S
O327 C326 1.313 . S
C328 O329 1.245 . S
C328 O337 1.289 . S
O329 C328 1.245 . S
C330 O331 1.245 . S
C330 O332 1.289 . S
O331 C330 1.245 . S
O332 Mg325 2.141 . S
O332 C330 1.289 . S
O333 Mg325 2.048 . S
O333 C326 1.195 . S
O334 Mg325 2.048 . S
O334 C335 1.195 . S
C335 O334 1.195 . S
C335 O336 1.313 . S
O336 C335 1.313 . S
O337 Mg325 2.141 . S
O337 C328 1.289 . S
Mg338 O345 2.141 . S
Mg338 O346 2.048 . S
Mg338 O347 2.048 . S
Mg338 O350 2.141 . S
C339 O340 1.313 . S
C339 O346 1.195 . S
O340 C339 1.313 . S
C341 O342 1.245 . S
C341 O350 1.289 . S
O342 C341 1.245 . S
C343 O344 1.245 . S
C343 O345 1.289 . S
O344 C343 1.245 . S
O345 Mg338 2.141 . S
O345 C343 1.289 . S
O346 Mg338 2.048 . S
O346 C339 1.195 . S
O347 Mg338 2.048 . S
O347 C348 1.195 . S
C348 O347 1.195 . S
C348 O349 1.313 . S
O349 C348 1.313 . S
O350 Mg338 2.141 . S
O350 C341 1.289 . S
Mg351 O358 2.141 . S
Mg351 O359 2.048 . S
Mg351 O360 2.048 . S
Mg351 O363 2.141 . S
C352 O353 1.313 . S
C352 O359 1.195 . S
O353 C352 1.313 . S
C354 O355 1.245 . S
C354 O363 1.289 . S
O355 C354 1.245 . S
C356 O357 1.245 . S
C356 O358 1.289 . S
O357 C356 1.245 . S
O358 Mg351 2.141 . S
O358 C356 1.289 . S
O359 Mg351 2.048 . S
O359 C352 1.195 . S
O360 Mg351 2.048 . S
O360 C361 1.195 . S
C361 O360 1.195 . S
C361 O362 1.313 . S
O362 C361 1.313 . S
O363 Mg351 2.141 . S
O363 C354 1.289 . S
Mg364 O371 2.141 . S
Mg364 O372 2.048 . S
Mg364 O373 2.048 . S
Mg364 O376 2.141 . S
C365 O366 1.313 . S
C365 O372 1.195 . S
O366 C365 1.313 . S
C367 O368 1.245 . S
C367 O376 1.289 . S
O368 C367 1.245 . S
C369 O370 1.245 . S
C369 O371 1.289 . S
O370 C369 1.245 . S
O371 Mg364 2.141 . S
O371 C369 1.289 . S
O372 Mg364 2.048 . S
O372 C365 1.195 . S
O373 Mg364 2.048 . S
O373 C374 1.195 . S
C374 O373 1.195 . S
C374 O375 1.313 . S
O375 C374 1.313 . S
O376 Mg364 2.141 . S
O376 C367 1.289 . S
Mg377 O384 2.141 . S
Mg377 O385 2.048 . S
Mg377 O386 2.048 . S
Mg377 O389 2.141 . S
C378 O379 1.313 . S
C378 O385 1.195 . S
O379 C378 1.313 . S
C380 O381 1.245 . S
C380 O389 1.289 . S
O381 C380 1.245 . S
C382 O383 1.245 . S
C382 O384 1.289 . S
O383 C382 1.245 . S
O384 Mg377 2.141 . S
O384 C382 1.289 . S
O385 Mg377 2.048 . S
O385 C378 1.195 . S
O386 Mg377 2.048 . S
O386 C387 1.195 . S
C387 O386 1.195 . S
C387 O388 1.313 . S
O388 C387 1.313 . S
O389 Mg377 2.141 . S
O389 C380 1.289 . S
Mg390 O397 2.141 . S
Mg390 O398 2.048 . S
Mg390 O399 2.048 . S
Mg390 O402 2.141 . S
C391 O392 1.313 . S
C391 O398 1.195 . S
O392 C391 1.313 . S
C393 O394 1.245 . S
C393 O402 1.289 . S
O394 C393 1.245 . S
C395 O396 1.245 . S
C395 O397 1.289 . S
O396 C395 1.245 . S
O397 Mg390 2.141 . S
O397 C395 1.289 . S
O398 Mg390 2.048 . S
O398 C391 1.195 . S
O399 Mg390 2.048 . S
O399 C400 1.195 . S
C400 O399 1.195 . S
C400 O401 1.313 . S
O401 C400 1.313 . S
O402 Mg390 2.141 . S
O402 C393 1.289 . S
Mg403 O410 2.141 . S
Mg403 O411 2.048 . S
Mg403 O412 2.048 . S
Mg403 O415 2.141 . S
C404 O405 1.313 . S
C404 O411 1.195 . S
O405 C404 1.313 . S
C406 O407 1.245 . S
C406 O415 1.289 . S
O407 C406 1.245 . S
C408 O409 1.245 . S
C408 O410 1.289 . S
O409 C408 1.245 . S
O410 Mg403 2.141 . S
O410 C408 1.289 . S
O411 Mg403 2.048 . S
O411 C404 1.195 . S
O412 Mg403 2.048 . S
O412 C413 1.195 . S
C413 O412 1.195 . S
C413 O414 1.313 . S
O414 C413 1.313 . S
O415 Mg403 2.141 . S
O415 C406 1.289 . S
Mg416 O423 2.141 . S
Mg416 O424 2.048 . S
Mg416 O425 2.048 . S
Mg416 O428 2.141 . S
C417 O418 1.313 . S
C417 O424 1.195 . S
O418 C417 1.313 . S
C419 O420 1.245 . S
C419 O428 1.289 . S
O420 C419 1.245 . S
C421 O422 1.245 . S
C421 O423 1.289 . S
O422 C421 1.245 . S
O423 Mg416 2.141 . S
O423 C421 1.289 . S
O424 Mg416 2.048 . S
O424 C417 1.195 . S
O425 Mg416 2.048 . S
O425 C426 1.195 . S
C426 O425 1.195 . S
C426 O427 1.313 . S
O427 C426 1.313 . S
O428 Mg416 2.141 . S
O428 C419 1.289 . S
Mg429 O436 2.141 . S
Mg429 O437 2.048 . S
Mg429 O438 2.048 . S
Mg429 O441 2.141 . S
C430 O431 1.313 . S
C430 O437 1.195 . S
O431 C430 1.313 . S
C432 O433 1.245 . S
C432 O441 1.289 . S
O433 C432 1.245 . S
C434 O435 1.245 . S
C434 O436 1.289 . S
O435 C434 1.245 . S
O436 Mg429 2.141 . S
O436 C434 1.289 . S
O437 Mg429 2.048 . S
O437 C430 1.195 . S
O438 Mg429 2.048 . S
O438 C439 1.195 . S
C439 O438 1.195 . S
C439 O440 1.313 . S
O440 C439 1.313 . S
O441 Mg429 2.141 . S
O441 C432 1.289 . S
Mg442 O449 2.141 . S
Mg442 O450 2.048 . S
Mg442 O451 2.048 . S
Mg442 O454 2.141 . S
C443 O444 1.313 . S
C443 O450 1.195 . S
O444 C443 1.313 . S
C445 O446 1.245 . S
C445 O454 1.289 . S
O446 C445 1.245 . S
C447 O448 1.245 . S
C447 O449 1.289 . S
O448 C447 1.245 . S
O449 Mg442 2.141 . S
O449 C447 1.289 . S
O450 Mg442 2.048 . S
O450 C443 1.195 . S
O451 Mg442 2.048 . S
O451 C452 1.195 . S
C452 O451 1.195 . S
C452 O453 1.313 . S
O453 C452 1.313 . S
O454 Mg442 2.141 . S
O454 C445 1.289 . S
Mg455 O462 2.141 . S
Mg455 O463 2.048 . S
Mg455 O464 2.048 . S
Mg455 O467 2.141 . S
C456 O457 1.313 . S
C456 O463 1.195 . S
O457 C456 1.313 . S
C458 O459 1.245 . S
C458 O467 1.289 . S
O459 C458 1.245 . S
C460 O461 1.245 . S
C460 O462 1.289 . S
O461 C460 1.245 . S
O462 Mg455 2.141 . S
O462 C460 1.289 . S
O463 Mg455 2.048 . S
O463 C456 1.195 . S
O464 Mg455 2.048 . S
O464 C465 1.195 . S
C465 O464 1.195 . S
C465 O466 1.313 . S
O466 C465 1.313 . S
O467 Mg455 2.141 . S
O467 C458 1.289 . S
C468 C469 1.387 . S
C468 H472 0.950 . S
C468 C477 1.390 . S
C469 C468 1.387 . S
C469 C471 1.387 . S
H470 C477 0.950 . S
C471 C469 1.387 . S
C471 C473 1.390 . S
C471 H475 0.950 . S
H472 C468 0.950 . S
C473 C471 1.390 . S
C473 C474 1.387 . S
C473 H476 0.950 . S
C474 C473 1.387 . S
C474 C477 1.387 . S
H475 C471 0.950 . S
H476 C473 0.950 . S
C477 C468 1.390 . S
C477 H470 0.950 . S
C477 C474 1.387 . S
C478 C479 1.387 . S
C478 H482 0.950 . S
C478 C487 1.390 . S
C479 C478 1.387 . S
C479 C481 1.387 . S
H480 C487 0.950 . S
C481 C479 1.387 . S
C481 C483 1.390 . S
C481 H485 0.950 . S
H482 C478 0.950 . S
C483 C481 1.390 . S
C483 C484 1.387 . S
C483 H486 0.950 . S
C484 C483 1.387 . S
C484 C487 1.387 . S
H485 C481 0.950 . S
H486 C483 0.950 . S
C487 C478 1.390 . S
C487 H480 0.950 . S
C487 C484 1.387 . S
C488 C489 1.387 . S
C488 H492 0.950 . S
C488 C497 1.390 . S
C489 C488 1.387 . S
C489 C491 1.387 . S
H490 C497 0.950 . S
C491 C489 1.387 . S
C491 C493 1.390 . S
C491 H495 0.950 . S
H492 C488 0.950 . S
C493 C491 1.390 . S
C493 C494 1.387 . S
C493 H496 0.950 . S
C494 C493 1.387 . S
C494 C497 1.387 . S
H495 C491 0.950 . S
H496 C493 0.950 . S
C497 C488 1.390 . S
C497 H490 0.950 . S
C497 C494 1.387 . S
C498 C499 1.387 . S
C498 H502 0.950 . S
C498 C507 1.390 . S
C499 C498 1.387 . S
C499 C501 1.387 . S
H500 C507 0.950 . S
C501 C499 1.387 . S
C501 C503 1.390 . S
C501 H505 0.950 . S
H502 C498 0.950 . S
C503 C501 1.390 . S
C503 C504 1.387 . S
C503 H506 0.950 . S
C504 C503 1.387 . S
C504 C507 1.387 . S
H505 C501 0.950 . S
H506 C503 0.950 . S
C507 C498 1.390 . S
C507 H500 0.950 . S
C507 C504 1.387 . S
C508 C509 1.387 . S
C508 H512 0.950 . S
C508 C517 1.390 . S
C509 C508 1.387 . S
C509 C511 1.387 . S
H510 C517 0.950 . S
C511 C509 1.387 . S
C511 C513 1.390 . S
C511 H515 0.950 . S
H512 C508 0.950 . S
C513 C511 1.390 . S
C513 C514 1.387 . S
C513 H516 0.950 . S
C514 C513 1.387 . S
C514 C517 1.387 . S
H515 C511 0.950 . S
H516 C513 0.950 . S
C517 C508 1.390 . S
C517 H510 0.950 . S
C517 C514 1.387 . S
C518 C519 1.387 . S
C518 H522 0.950 . S
C518 C527 1.390 . S
C519 C518 1.387 . S
C519 C521 1.387 . S
H520 C527 0.950 . S
C521 C519 1.387 . S
C521 C523 1.390 . S
C521 H525 0.950 . S
H522 C518 0.950 . S
C523 C521 1.390 . S
C523 C524 1.387 . S
C523 H526 0.950 . S
C524 C523 1.387 . S
C524 C527 1.387 . S
H525 C521 0.950 . S
H526 C523 0.950 . S
C527 C518 1.390 . S
C527 H520 0.950 . S
C527 C524 1.387 . S
C528 C529 1.387 . S
C528 H532 0.950 . S
C528 C537 1.390 . S
C529 C528 1.387 . S
C529 C531 1.387 . S
H530 C537 0.950 . S
C531 C529 1.387 . S
C531 C533 1.390 . S
C531 H535 0.950 . S
H532 C528 0.950 . S
C533 C531 1.390 . S
C533 C534 1.387 . S
C533 H536 0.950 . S
C534 C533 1.387 . S
C534 C537 1.387 . S
H535 C531 0.950 . S
H536 C533 0.950 . S
C537 C528 1.390 . S
C537 H530 0.950 . S
C537 C534 1.387 . S
C538 C539 1.387 . S
C538 H542 0.950 . S
C538 C547 1.390 . S
C539 C538 1.387 . S
C539 C541 1.387 . S
H540 C547 0.950 . S
C541 C539 1.387 . S
C541 C543 1.390 . S
C541 H545 0.950 . S
H542 C538 0.950 . S
C543 C541 1.390 . S
C543 C544 1.387 . S
C543 H546 0.950 . S
C544 C543 1.387 . S
C544 C547 1.387 . S
H545 C541 0.950 . S
H546 C543 0.950 . S
C547 C538 1.390 . S
C547 H540 0.950 . S
C547 C544 1.387 . S
C548 C549 1.387 . S
C548 H552 0.950 . S
C548 C557 1.390 . S
C549 C548 1.387 . S
C549 C551 1.387 . S
H550 C557 0.950 . S
C551 C549 1.387 . S
C551 C553 1.390 . S
C551 H555 0.950 . S
H552 C548 0.950 . S
C553 C551 1.390 . S
C553 C554 1.387 . S
C553 H556 0.950 . S
C554 C553 1.387 . S
C554 C557 1.387 . S
H555 C551 0.950 . S
H556 C553 0.950 . S
C557 C548 1.390 . S
C557 H550 0.950 . S
C557 C554 1.387 . S
C558 C559 1.387 . S
C558 H562 0.950 . S
C558 C567 1.390 . S
C559 C558 1.387 . S
C559 C561 1.387 . S
H560 C567 0.950 . S
C561 C559 1.387 . S
C561 C563 1.390 . S
C561 H565 0.950 . S
H562 C558 0.950 . S
C563 C561 1.390 . S
C563 C564 1.387 . S
C563 H566 0.950 . S
C564 C563 1.387 . S
C564 C567 1.387 . S
H565 C561 0.950 . S
H566 C563 0.950 . S
C567 C558 1.390 . S
C567 H560 0.950 . S
C567 C564 1.387 . S
C568 C569 1.387 . S
C568 H572 0.950 . S
C568 C577 1.390 . S
C569 C568 1.387 . S
C569 C571 1.387 . S
H570 C577 0.950 . S
C571 C569 1.387 . S
C571 C573 1.390 . S
C571 H575 0.950 . S
H572 C568 0.950 . S
C573 C571 1.390 . S
C573 C574 1.387 . S
C573 H576 0.950 . S
C574 C573 1.387 . S
C574 C577 1.387 . S
H575 C571 0.950 . S
H576 C573 0.950 . S
C577 C568 1.390 . S
C577 H570 0.950 . S
C577 C574 1.387 . S
C578 C579 1.387 . S
C578 H582 0.950 . S
C578 C587 1.390 . S
C579 C578 1.387 . S
C579 C581 1.387 . S
H580 C587 0.950 . S
C581 C579 1.387 . S
C581 C583 1.390 . S
C581 H585 0.950 . S
H582 C578 0.950 . S
C583 C581 1.390 . S
C583 C584 1.387 . S
C583 H586 0.950 . S
C584 C583 1.387 . S
C584 C587 1.387 . S
H585 C581 0.950 . S
H586 C583 0.950 . S
C587 C578 1.390 . S
C587 H580 0.950 . S
C587 C584 1.387 . S
C588 C589 1.387 1_455 S
C588 H592 0.950 . S
C588 C597 1.390 . S
C589 C588 1.387 1_655 S
C589 C591 1.387 . S
H590 C597 0.950 . S
C591 C589 1.387 . S
C591 C593 1.390 . S
C591 H595 0.950 . S
H592 C588 0.950 . S
C593 C591 1.390 . S
C593 C594 1.387 1_655 S
C593 H596 0.950 . S
C594 C593 1.387 1_455 S
C594 C597 1.387 . S
H595 C591 0.950 . S
H596 C593 0.950 . S
C597 C588 1.390 . S
C597 H590 0.950 . S
C597 C594 1.387 . S
C598 C599 1.387 . S
C598 H602 0.950 . S
C598 C607 1.390 . S
C599 C598 1.387 . S
C599 C601 1.387 . S
H600 C607 0.950 . S
C601 C599 1.387 . S
C601 C603 1.390 . S
C601 H605 0.950 . S
H602 C598 0.950 . S
C603 C601 1.390 . S
C603 C604 1.387 . S
C603 H606 0.950 . S
C604 C603 1.387 . S
C604 C607 1.387 . S
H605 C601 0.950 . S
H606 C603 0.950 . S
C607 C598 1.390 . S
C607 H600 0.950 . S
C607 C604 1.387 . S
C608 C609 1.387 1_565 S
C608 H612 0.950 . S
C608 C617 1.390 . S
C609 C608 1.387 1_545 S
C609 C611 1.387 . S
H610 C617 0.950 . S
C611 C609 1.387 . S
C611 C613 1.390 . S
C611 H615 0.950 . S
H612 C608 0.950 . S
C613 C611 1.390 . S
C613 C614 1.387 1_545 S
C613 H616 0.950 . S
C614 C613 1.387 1_565 S
C614 C617 1.387 . S
H615 C611 0.950 . S
H616 C613 0.950 . S
C617 C608 1.390 . S
C617 H610 0.950 . S
C617 C614 1.387 . S
C618 C619 1.387 1_565 S
C618 H622 0.950 . S
C618 C627 1.390 1_556 S
C619 C618 1.387 1_545 S
C619 C621 1.387 . S
H620 C627 0.950 . S
C621 C619 1.387 . S
C621 C623 1.390 1_556 S
C621 H625 0.950 . S
H622 C618 0.950 . S
C623 C621 1.390 1_554 S
C623 C624 1.387 1_545 S
C623 H626 0.950 . S
C624 C623 1.387 1_565 S
C624 C627 1.387 . S
H625 C621 0.950 . S
H626 C623 0.950 . S
C627 C618 1.390 1_554 S
C627 H620 0.950 . S
C627 C624 1.387 . S
C628 C629 1.387 . S
C628 H632 0.950 . S
C628 C637 1.390 1_556 S
C629 C628 1.387 . S
C629 C631 1.387 1_655 S
H630 C637 0.950 . S
C631 C629 1.387 1_455 S
C631 C633 1.390 1_556 S
C631 H635 0.950 . S
H632 C628 0.950 . S
C633 C631 1.390 1_554 S
C633 C634 1.387 . S
C633 H636 0.950 . S
C634 C633 1.387 . S
C634 C637 1.387 1_455 S
H635 C631 0.950 . S
H636 C633 0.950 . S
C637 C628 1.390 1_554 S
C637 H630 0.950 . S
C637 C634 1.387 1_655 S
C638 C639 1.387 . S
C638 H642 0.950 . S
C638 C647 1.390 1_556 S
C639 C638 1.387 . S
C639 C641 1.387 . S
H640 C647 0.950 . S
C641 C639 1.387 . S
C641 C643 1.390 1_556 S
C641 H645 0.950 . S
H642 C638 0.950 . S
C643 C641 1.390 1_554 S
C643 C644 1.387 . S
C643 H646 0.950 . S
C644 C643 1.387 . S
C644 C647 1.387 . S
H645 C641 0.950 . S
H646 C643 0.950 . S
C647 C638 1.390 1_554 S
C647 H640 0.950 . S
C647 C644 1.387 . S
C648 C649 1.387 . S
C648 H652 0.950 . S
C648 C657 1.390 1_556 S
C649 C648 1.387 . S
C649 C651 1.387 1_556 S
H650 C657 0.950 . S
C651 C649 1.387 1_554 S
C651 C653 1.390 . S
C651 H655 0.950 1_545 S
H652 C648 0.950 . S
C653 C651 1.390 . S
C653 C654 1.387 . S
C653 H656 0.950 . S
C654 C653 1.387 . S
C654 C657 1.387 . S
H655 C651 0.950 1_565 S
H656 C653 0.950 . S
C657 C648 1.390 1_554 S
C657 H650 0.950 . S
C657 C654 1.387 . S
C658 C659 1.387 1_554 S
C658 H662 0.950 . S
C658 C667 1.390 . S
C659 C658 1.387 1_556 S
C659 C661 1.387 . S
H660 C667 0.950 . S
C661 C659 1.387 . S
C661 C663 1.368 1_556 S
C661 H665 0.950 . S
H662 C658 0.950 . S
C663 C661 1.368 1_554 S
C663 C664 1.421 . S
C663 H666 0.939 1_554 S
C664 C663 1.421 . S
C664 C667 1.387 . S
H665 C661 0.950 . S
H666 C663 0.939 1_556 S
C667 C658 1.390 . S
C667 H660 0.950 . S
C667 C664 1.387 . S
C668 C669 1.387 . S
C668 H672 0.950 . S
C668 C677 1.390 . S
C669 C668 1.387 . S
C669 C671 1.387 . S
H670 C677 0.950 . S
C671 C669 1.387 . S
C671 C673 1.390 1_554 S
C671 H675 0.950 . S
H672 C668 0.950 . S
C673 C671 1.390 1_556 S
C673 C674 1.387 . S
C673 H676 0.950 . S
C674 C673 1.387 . S
C674 C677 1.387 1_556 S
H675 C671 0.950 . S
H676 C673 0.950 . S
C677 C668 1.390 . S
C677 H670 0.950 . S
C677 C674 1.387 1_554 S
C678 C679 1.387 . S
C678 H682 0.950 . S
C678 C687 1.390 . S
C679 C678 1.387 . S
C679 C681 1.387 . S
H680 C687 0.950 . S
C681 C679 1.387 . S
C681 C683 1.390 . S
C681 H685 0.950 1_455 S
H682 C678 0.950 . S
C683 C681 1.390 . S
C683 C684 1.387 . S
C683 H686 0.950 . S
C684 C683 1.387 . S
C684 C687 1.387 . S
H685 C681 0.950 1_655 S
H686 C683 0.950 . S
C687 C678 1.390 . S
C687 H680 0.950 . S
C687 C684 1.387 . S
C688 C689 1.387 . S
C688 H692 0.950 . S
C688 C697 1.390 . S
C689 C688 1.387 . S
C689 C691 1.387 . S
H690 C697 0.950 . S
C691 C689 1.387 . S
C691 C693 1.390 . S
C691 H695 0.950 . S
H692 C688 0.950 . S
C693 C691 1.390 . S
C693 C694 1.387 . S
C693 H696 0.950 . S
C694 C693 1.387 . S
C694 C697 1.387 . S
H695 C691 0.950 . S
H696 C693 0.950 . S
C697 C688 1.390 . S
C697 H690 0.950 . S
C697 C694 1.387 . S
C698 C699 1.387 . S
C698 H702 0.950 . S
C698 C707 1.390 . S
C699 C698 1.387 . S
C699 C701 1.387 . S
H700 C707 0.950 . S
C701 C699 1.387 . S
C701 C703 1.390 . S
C701 H705 0.950 . S
H702 C698 0.950 . S
C703 C701 1.390 . S
C703 C704 1.387 . S
C703 H706 0.950 . S
C704 C703 1.387 . S
C704 C707 1.387 . S
H705 C701 0.950 . S
H706 C703 0.950 . S
C707 C698 1.390 . S
C707 H700 0.950 . S
C707 C704 1.387 . S
C708 C709 1.387 . S
C708 H712 0.950 . S
C708 C717 1.390 . S
C709 C708 1.387 . S
C709 C711 1.387 1_556 S
H710 C717 0.950 1_545 S
C711 C709 1.387 1_554 S
C711 C713 1.390 . S
C711 H715 0.950 . S
H712 C708 0.950 . S
C713 C711 1.390 . S
C713 C714 1.387 . S
C713 H716 0.950 . S
C714 C713 1.387 . S
C714 C717 1.387 1_554 S
H715 C711 0.950 . S
H716 C713 0.950 . S
C717 C708 1.390 . S
C717 H710 0.950 1_565 S
C717 C714 1.387 1_556 S
C718 C719 1.387 1_554 S
C718 H722 0.950 . S
C718 C727 1.390 . S
C719 C718 1.387 1_556 S
C719 C721 1.387 . S
H720 C727 0.950 . S
C721 C719 1.387 . S
C721 C723 1.390 . S
C721 H725 0.950 . S
H722 C718 0.950 . S
C723 C721 1.390 . S
C723 C724 1.387 1_556 S
C723 H726 0.950 1_455 S
C724 C723 1.387 1_554 S
C724 C727 1.387 . S
H725 C721 0.950 . S
H726 C723 0.950 1_655 S
C727 C718 1.390 . S
C727 H720 0.950 . S
C727 C724 1.387 . S
C728 C729 1.387 . S
C728 H732 0.950 . S
C728 C737 1.390 . S
C729 C728 1.387 . S
C729 C731 1.387 . S
H730 C737 0.950 . S
C731 C729 1.387 . S
C731 C733 1.390 1_556 S
C731 H735 0.950 . S
H732 C728 0.950 . S
C733 C731 1.390 1_554 S
C733 C734 1.387 . S
C733 H736 0.950 . S
C734 C733 1.387 . S
C734 C737 1.387 1_554 S
H735 C731 0.950 . S
H736 C733 0.950 . S
C737 C728 1.390 . S
C737 H730 0.950 . S
C737 C734 1.387 1_556 S
C738 C739 1.387 . S
C738 H742 0.950 . S
C738 C747 1.390 . S
C739 C738 1.387 . S
C739 C741 1.387 . S
H740 C747 0.950 . S
C741 C739 1.387 . S
C741 C743 1.390 . S
C741 H745 0.950 . S
H742 C738 0.950 . S
C743 C741 1.390 . S
C743 C744 1.387 . S
C743 H746 0.950 . S
C744 C743 1.387 . S
C744 C747 1.387 . S
H745 C741 0.950 . S
H746 C743 0.950 . S
C747 C738 1.390 . S
C747 H740 0.950 . S
C747 C744 1.387 . S
C748 C749 1.387 . S
C748 H752 0.950 . S
C748 C757 1.390 . S
C749 C748 1.387 . S
C749 C751 1.387 . S
H750 C757 0.950 . S
C751 C749 1.387 . S
C751 C753 1.390 . S
C751 H755 0.950 . S
H752 C748 0.950 . S
C753 C751 1.390 . S
C753 C754 1.387 . S
C753 H756 0.950 . S
C754 C753 1.387 . S
C754 C757 1.387 . S
H755 C751 0.950 . S
H756 C753 0.950 . S
C757 C748 1.390 . S
C757 H750 0.950 . S
C757 C754 1.387 . S
C758 C759 1.387 . S
C758 H762 0.950 . S
C758 C767 1.390 . S
C759 C758 1.387 . S
C759 C761 1.387 . S
H760 C767 0.950 . S
C761 C759 1.387 . S
C761 C763 1.390 . S
C761 H765 0.950 . S
H762 C758 0.950 . S
C763 C761 1.390 . S
C763 C764 1.387 . S
C763 H766 0.950 . S
C764 C763 1.387 . S
C764 C767 1.387 . S
H765 C761 0.950 . S
H766 C763 0.950 . S
C767 C758 1.390 . S
C767 H760 0.950 . S
C767 C764 1.387 . S
C768 C769 1.387 . S
C768 H772 0.950 . S
C768 C777 1.390 . S
C769 C768 1.387 . S
C769 C771 1.387 . S
H770 C777 0.950 . S
C771 C769 1.387 . S
C771 C773 1.390 . S
C771 H775 0.950 . S
H772 C768 0.950 . S
C773 C771 1.390 . S
C773 C774 1.387 . S
C773 H776 0.950 . S
C774 C773 1.387 . S
C774 C777 1.387 . S
H775 C771 0.950 . S
H776 C773 0.950 . S
C777 C768 1.390 . S
C777 H770 0.950 . S
C777 C774 1.387 . S
C778 C779 1.387 . S
C778 H782 0.950 . S
C778 C787 1.390 . S
C779 C778 1.387 . S
C779 C781 1.387 . S
H780 C787 0.950 . S
C781 C779 1.387 . S
C781 C783 1.390 . S
C781 H785 0.950 . S
H782 C778 0.950 . S
C783 C781 1.390 . S
C783 C784 1.387 . S
C783 H786 0.950 . S
C784 C783 1.387 . S
C784 C787 1.387 . S
H785 C781 0.950 . S
H786 C783 0.950 . S
C787 C778 1.390 . S
C787 H780 0.950 . S
C787 C784 1.387 . S
C788 C789 1.387 . S
C788 H792 0.950 . S
C788 C797 1.390 . S
C789 C788 1.387 . S
C789 C791 1.387 . S
H790 C797 0.950 . S
C791 C789 1.387 . S
C791 C793 1.390 . S
C791 H795 0.950 . S
H792 C788 0.950 . S
C793 C791 1.390 . S
C793 C794 1.387 . S
C793 H796 0.950 . S
C794 C793 1.387 . S
C794 C797 1.387 . S
H795 C791 0.950 . S
H796 C793 0.950 . S
C797 C788 1.390 . S
C797 H790 0.950 . S
C797 C794 1.387 . S
C798 C799 1.387 . S
C798 H802 0.950 . S
C798 C807 1.390 . S
C799 C798 1.387 . S
C799 C801 1.387 . S
H800 C807 0.950 . S
C801 C799 1.387 . S
C801 C803 1.390 . S
C801 H805 0.950 . S
H802 C798 0.950 . S
C803 C801 1.390 . S
C803 C804 1.387 . S
C803 H806 0.950 . S
C804 C803 1.387 . S
C804 C807 1.387 . S
H805 C801 0.950 . S
H806 C803 0.950 . S
C807 C798 1.390 . S
C807 H800 0.950 . S
C807 C804 1.387 . S
C808 C809 1.387 . S
C808 H812 0.950 . S
C808 C817 1.390 . S
C809 C808 1.387 . S
C809 C811 1.387 . S
H810 C817 0.950 . S
C811 C809 1.387 . S
C811 C813 1.390 . S
C811 H815 0.950 . S
H812 C808 0.950 . S
C813 C811 1.390 . S
C813 C814 1.387 . S
C813 H816 0.950 . S
C814 C813 1.387 . S
C814 C817 1.387 . S
H815 C811 0.950 . S
H816 C813 0.950 . S
C817 C808 1.390 . S
C817 H810 0.950 . S
C817 C814 1.387 . S
C818 C819 1.387 . S
C818 H822 0.950 . S
C818 C827 1.390 . S
C819 C818 1.387 . S
C819 C821 1.387 . S
H820 C827 0.950 . S
C821 C819 1.387 . S
C821 C823 1.390 . S
C821 H825 0.950 . S
H822 C818 0.950 . S
C823 C821 1.390 . S
C823 C824 1.387 . S
C823 H826 0.950 . S
C824 C823 1.387 . S
C824 C827 1.387 . S
H825 C821 0.950 . S
H826 C823 0.950 . S
C827 C818 1.390 . S
C827 H820 0.950 . S
C827 C824 1.387 . S
C828 C829 1.387 . S
C828 H832 0.950 . S
C828 C837 1.390 . S
C829 C828 1.387 . S
C829 C831 1.387 . S
H830 C837 0.950 . S
C831 C829 1.387 . S
C831 C833 1.390 . S
C831 H835 0.950 . S
H832 C828 0.950 . S
C833 C831 1.390 . S
C833 C834 1.387 . S
C833 H836 0.950 . S
C834 C833 1.387 . S
C834 C837 1.387 . S
H835 C831 0.950 . S
H836 C833 0.950 . S
C837 C828 1.390 . S
C837 H830 0.950 . S
C837 C834 1.387 . S
C838 C839 1.387 . S
C838 H842 0.950 . S
C838 C847 1.390 . S
C839 C838 1.387 . S
C839 C841 1.387 . S
H840 C847 0.950 . S
C841 C839 1.387 . S
C841 C843 1.390 . S
C841 H845 0.950 . S
H842 C838 0.950 . S
C843 C841 1.390 . S
C843 C844 1.387 . S
C843 H846 0.950 . S
C844 C843 1.387 . S
C844 C847 1.387 . S
H845 C841 0.950 . S
H846 C843 0.950 . S
C847 C838 1.390 . S
C847 H840 0.950 . S
C847 C844 1.387 . S
C848 C849 1.387 . S
C848 H852 0.950 . S
C848 C857 1.390 . S
C849 C848 1.387 . S
C849 C851 1.387 . S
H850 C857 0.950 . S
C851 C849 1.387 . S
C851 C853 1.390 . S
C851 H855 0.950 . S
H852 C848 0.950 . S
C853 C851 1.390 . S
C853 C854 1.387 . S
C853 H856 0.950 . S
C854 C853 1.387 . S
C854 C857 1.387 . S
H855 C851 0.950 . S
H856 C853 0.950 . S
C857 C848 1.390 . S
C857 H850 0.950 . S
C857 C854 1.387 . S
C858 C859 1.387 . S
C858 H862 0.950 . S
C858 C867 1.390 . S
C859 C858 1.387 . S
C859 C861 1.387 . S
H860 C867 0.950 . S
C861 C859 1.387 . S
C861 C863 1.390 . S
C861 H865 0.950 . S
H862 C858 0.950 . S
C863 C861 1.390 . S
C863 C864 1.387 . S
C863 H866 0.950 . S
C864 C863 1.387 . S
C864 C867 1.387 . S
H865 C861 0.950 . S
H866 C863 0.950 . S
C867 C858 1.390 . S
C867 H860 0.950 . S
C867 C864 1.387 . S
C868 C869 1.387 . S
C868 H872 0.950 . S
C868 C877 1.390 . S
C869 C868 1.387 . S
C869 C871 1.387 . S
H870 C877 0.950 . S
C871 C869 1.387 . S
C871 C873 1.390 . S
C871 H875 0.950 . S
H872 C868 0.950 . S
C873 C871 1.390 . S
C873 C874 1.387 . S
C873 H876 0.950 . S
C874 C873 1.387 . S
C874 C877 1.387 . S
H875 C871 0.950 . S
H876 C873 0.950 . S
C877 C868 1.390 . S
C877 H870 0.950 . S
C877 C874 1.387 . S
C878 C879 1.387 . S
C878 H882 0.950 . S
C878 C887 1.390 . S
C879 C878 1.387 . S
C879 C881 1.387 . S
H880 C887 0.950 . S
C881 C879 1.387 . S
C881 C883 1.390 . S
C881 H885 0.950 . S
H882 C878 0.950 . S
C883 C881 1.390 . S
C883 C884 1.387 . S
C883 H886 0.950 . S
C884 C883 1.387 . S
C884 C887 1.387 . S
H885 C881 0.950 . S
H886 C883 0.950 . S
C887 C878 1.390 . S
C887 H880 0.950 . S
C887 C884 1.387 . S
C888 C889 1.387 . S
C888 H892 0.950 . S
C888 C897 1.390 . S
C889 C888 1.387 . S
C889 C891 1.387 . S
H890 C897 0.950 . S
C891 C889 1.387 . S
C891 C893 1.390 . S
C891 H895 0.950 . S
H892 C888 0.950 . S
C893 C891 1.390 . S
C893 C894 1.387 . S
C893 H896 0.950 . S
C894 C893 1.387 . S
C894 C897 1.387 . S
H895 C891 0.950 . S
H896 C893 0.950 . S
C897 C888 1.390 . S
C897 H890 0.950 . S
C897 C894 1.387 . S
C898 C899 1.387 . S
C898 H902 0.950 . S
C898 C907 1.390 . S
C899 C898 1.387 . S
C899 C901 1.387 . S
H900 C907 0.950 . S
C901 C899 1.387 . S
C901 C903 1.390 . S
C901 H905 0.950 . S
H902 C898 0.950 . S
C903 C901 1.390 . S
C903 C904 1.387 . S
C903 H906 0.950 . S
C904 C903 1.387 . S
C904 C907 1.387 . S
H905 C901 0.950 . S
H906 C903 0.950 . S
C907 C898 1.390 . S
C907 H900 0.950 . S
C907 C904 1.387 . S
C908 C909 1.387 . S
C908 H912 0.950 . S
C908 C917 1.390 . S
C909 C908 1.387 . S
C909 C911 1.387 . S
H910 C917 0.950 . S
C911 C909 1.387 . S
C911 C913 1.390 . S
C911 H915 0.950 . S
H912 C908 0.950 . S
C913 C911 1.390 . S
C913 C914 1.387 . S
C913 H916 0.950 . S
C914 C913 1.387 . S
C914 C917 1.387 . S
H915 C911 0.950 . S
H916 C913 0.950 . S
C917 C908 1.390 . S
C917 H910 0.950 . S
C917 C914 1.387 . S
C918 C919 1.387 . S
C918 H922 0.950 . S
C918 C927 1.390 . S
C919 C918 1.387 . S
C919 C921 1.387 . S
H920 C927 0.950 . S
C921 C919 1.387 . S
C921 C923 1.390 . S
C921 H925 0.950 . S
H922 C918 0.950 . S
C923 C921 1.390 . S
C923 C924 1.387 . S
C923 H926 0.950 . S
C924 C923 1.387 . S
C924 C927 1.387 . S
H925 C921 0.950 . S
H926 C923 0.950 . S
C927 C918 1.390 . S
C927 H920 0.950 . S
C927 C924 1.387 . S
C928 C929 1.387 . S
C928 H932 0.950 . S
C928 C937 1.390 . S
C929 C928 1.387 . S
C929 C931 1.387 . S
H930 C937 0.950 . S
C931 C929 1.387 . S
C931 C933 1.390 . S
C931 H935 0.950 . S
H932 C928 0.950 . S
C933 C931 1.390 . S
C933 C934 1.387 . S
C933 H936 0.950 . S
C934 C933 1.387 . S
C934 C937 1.387 . S
H935 C931 0.950 . S
H936 C933 0.950 . S
C937 C928 1.390 . S
C937 H930 0.950 . S
C937 C934 1.387 . S
C938 C939 1.387 . S
C938 H942 0.950 . S
C938 C947 1.390 . S
C939 C938 1.387 . S
C939 C941 1.387 . S
H940 C947 0.950 . S
C941 C939 1.387 . S
C941 C943 1.390 . S
C941 H945 0.950 . S
H942 C938 0.950 . S
C943 C941 1.390 . S
C943 C944 1.387 . S
C943 H946 0.950 . S
C944 C943 1.387 . S
C944 C947 1.387 . S
H945 C941 0.950 . S
H946 C943 0.950 . S
C947 C938 1.390 . S
C947 H940 0.950 . S
C947 C944 1.387 . S
C948 C949 1.387 . S
C948 H952 0.950 . S
C948 C957 1.390 . S
C949 C948 1.387 . S
C949 C951 1.387 . S
H950 C957 0.950 . S
C951 C949 1.387 . S
C951 C953 1.390 . S
C951 H955 0.950 . S
H952 C948 0.950 . S
C953 C951 1.390 . S
C953 C954 1.387 . S
C953 H956 0.950 . S
C954 C953 1.387 . S
C954 C957 1.387 . S
H955 C951 0.950 . S
H956 C953 0.950 . S
C957 C948 1.390 . S
C957 H950 0.950 . S
C957 C954 1.387 . S
C958 C959 1.387 . S
C958 H962 0.950 . S
C958 C967 1.390 . S
C959 C958 1.387 . S
C959 C961 1.387 . S
H960 C967 0.950 . S
C961 C959 1.387 . S
C961 C963 1.390 . S
C961 H965 0.950 . S
H962 C958 0.950 . S
C963 C961 1.390 . S
C963 C964 1.387 . S
C963 H966 0.950 . S
C964 C963 1.387 . S
C964 C967 1.387 . S
H965 C961 0.950 . S
H966 C963 0.950 . S
C967 C958 1.390 . S
C967 H960 0.950 . S
C967 C964 1.387 . S
C968 C969 1.387 . S
C968 H972 0.950 . S
C968 C977 1.390 . S
C969 C968 1.387 . S
C969 C971 1.387 . S
H970 C977 0.950 . S
C971 C969 1.387 . S
C971 C973 1.390 . S
C971 H975 0.950 . S
H972 C968 0.950 . S
C973 C971 1.390 . S
C973 C974 1.387 . S
C973 H976 0.950 . S
C974 C973 1.387 . S
C974 C977 1.387 . S
H975 C971 0.950 . S
H976 C973 0.950 . S
C977 C968 1.390 . S
C977 H970 0.950 . S
C977 C974 1.387 . S
C978 C979 1.387 . S
C978 H982 0.950 . S
C978 C987 1.390 . S
C979 C978 1.387 . S
C979 C981 1.387 . S
H980 C987 0.950 . S
C981 C979 1.387 . S
C981 C983 1.390 . S
C981 H985 0.950 . S
H982 C978 0.950 . S
C983 C981 1.390 . S
C983 C984 1.387 . S
C983 H986 0.950 . S
C984 C983 1.387 . S
C984 C987 1.387 . S
H985 C981 0.950 . S
H986 C983 0.950 . S
C987 C978 1.390 . S
C987 H980 0.950 . S
C987 C984 1.387 . S
C988 C989 1.387 . S
C988 H992 0.950 . S
C988 C997 1.390 . S
C989 C988 1.387 . S
C989 C991 1.387 . S
H990 C997 0.950 . S
C991 C989 1.387 . S
C991 C993 1.390 . S
C991 H995 0.950 . S
H992 C988 0.950 . S
C993 C991 1.390 . S
C993 C994 1.387 . S
C993 H996 0.950 . S
C994 C993 1.387 . S
C994 C997 1.387 . S
H995 C991 0.950 . S
H996 C993 0.950 . S
C997 C988 1.390 . S
C997 H990 0.950 . S
C997 C994 1.387 . S
C998 C999 1.387 . S
C998 H1002 0.950 . S
C998 C1007 1.390 . S
C999 C998 1.387 . S
C999 C1001 1.387 . S
H1000 C1007 0.950 . S
C1001 C999 1.387 . S
C1001 C1003 1.390 . S
C1001 H1005 0.950 . S
H1002 C998 0.950 . S
C1003 C1001 1.390 . S
C1003 C1004 1.387 . S
C1003 H1006 0.950 . S
C1004 C1003 1.387 . S
C1004 C1007 1.387 . S
H1005 C1001 0.950 . S
H1006 C1003 0.950 . S
C1007 C998 1.390 . S
C1007 H1000 0.950 . S
C1007 C1004 1.387 . S
C1008 C1009 1.387 . S
C1008 H1012 0.950 . S
C1008 C1017 1.390 . S
C1009 C1008 1.387 . S
C1009 C1011 1.387 . S
H1010 C1017 0.950 . S
C1011 C1009 1.387 . S
C1011 C1013 1.390 . S
C1011 H1015 0.950 . S
H1012 C1008 0.950 . S
C1013 C1011 1.390 . S
C1013 C1014 1.387 . S
C1013 H1016 0.950 . S
C1014 C1013 1.387 . S
C1014 C1017 1.387 . S
H1015 C1011 0.950 . S
H1016 C1013 0.950 . S
C1017 C1008 1.390 . S
C1017 H1010 0.950 . S
C1017 C1014 1.387 . S
C1018 C1019 1.387 . S
C1018 H1022 0.950 . S
C1018 C1027 1.390 . S
C1019 C1018 1.387 . S
C1019 C1021 1.387 . S
H1020 C1027 0.950 . S
C1021 C1019 1.387 . S
C1021 C1023 1.390 1_565 S
C1021 H1025 0.950 . S
H1022 C1018 0.950 . S
C1023 C1021 1.390 1_545 S
C1023 C1024 1.387 1_545 S
C1023 H1026 0.950 . S
C1024 C1023 1.387 1_565 S
C1024 C1027 1.387 . S
H1025 C1021 0.950 . S
H1026 C1023 0.950 . S
C1027 C1018 1.390 . S
C1027 H1020 0.950 . S
C1027 C1024 1.387 . S
C1028 C1029 1.387 . S
C1028 H1032 0.950 . S
C1028 C1037 1.390 . S
C1029 C1028 1.387 . S
C1029 C1031 1.387 . S
H1030 C1037 0.950 . S
C1031 C1029 1.387 . S
C1031 C1033 1.390 . S
C1031 H1035 0.950 1_455 S
H1032 C1028 0.950 . S
C1033 C1031 1.390 . S
C1033 C1034 1.387 . S
C1033 H1036 0.950 . S
C1034 C1033 1.387 . S
C1034 C1037 1.387 . S
H1035 C1031 0.950 1_655 S
H1036 C1033 0.950 . S
C1037 C1028 1.390 . S
C1037 H1030 0.950 . S
C1037 C1034 1.387 . S
C1038 C1039 1.387 . S
C1038 H1042 0.950 . S
C1038 C1047 1.390 . S
C1039 C1038 1.387 . S
C1039 C1041 1.387 . S
H1040 C1047 0.950 . S
C1041 C1039 1.387 . S
C1041 C1043 1.390 . S
C1041 H1045 0.950 . S
H1042 C1038 0.950 . S
C1043 C1041 1.390 . S
C1043 C1044 1.387 . S
C1043 H1046 0.950 . S
C1044 C1043 1.387 . S
C1044 C1047 1.387 . S
H1045 C1041 0.950 . S
H1046 C1043 0.950 . S
C1047 C1038 1.390 . S
C1047 H1040 0.950 . S
C1047 C1044 1.387 . S
C1048 C1049 1.387 . S
C1048 H1052 0.950 . S
C1048 C1057 1.390 1_545 S
C1049 C1048 1.387 . S
C1049 C1051 1.387 . S
H1050 C1057 0.950 . S
C1051 C1049 1.387 . S
C1051 C1053 1.390 . S
C1051 H1055 0.950 . S
H1052 C1048 0.950 . S
C1053 C1051 1.390 . S
C1053 C1054 1.387 . S
C1053 H1056 0.950 . S
C1054 C1053 1.387 . S
C1054 C1057 1.387 1_545 S
H1055 C1051 0.950 . S
H1056 C1053 0.950 . S
C1057 C1048 1.390 1_565 S
C1057 H1050 0.950 . S
C1057 C1054 1.387 1_565 S
C1058 C1059 1.387 . S
C1058 H1062 0.950 . S
C1058 C1067 1.390 . S
C1059 C1058 1.387 . S
C1059 C1061 1.387 1_655 S
H1060 C1067 0.950 . S
C1061 C1059 1.387 1_455 S
C1061 C1063 1.390 1_455 S
C1061 H1065 0.950 . S
H1062 C1058 0.950 . S
C1063 C1061 1.390 1_655 S
C1063 C1064 1.387 . S
C1063 H1066 0.950 1_655 S
C1064 C1063 1.387 . S
C1064 C1067 1.387 . S
H1065 C1061 0.950 . S
H1066 C1063 0.950 1_455 S
C1067 C1058 1.390 . S
C1067 H1060 0.950 . S
C1067 C1064 1.387 . S
C1068 C1069 1.387 . S
C1068 H1072 0.950 . S
C1068 C1077 1.390 . S
C1069 C1068 1.387 . S
C1069 C1071 1.387 . S
H1070 C1077 0.950 . S
C1071 C1069 1.387 . S
C1071 C1073 1.390 . S
C1071 H1075 0.950 . S
H1072 C1068 0.950 . S
C1073 C1071 1.390 . S
C1073 C1074 1.387 . S
C1073 H1076 0.950 . S
C1074 C1073 1.387 . S
C1074 C1077 1.387 . S
H1075 C1071 0.950 . S
H1076 C1073 0.950 . S
C1077 C1068 1.390 . S
C1077 H1070 0.950 . S
C1077 C1074 1.387 . S
C1078 C1079 1.387 1_565 S
C1078 H1082 0.951 . S
C1078 C1087 1.390 1_565 S
C1079 C1078 1.387 1_545 S
C1079 C1081 1.387 . S
H1080 C1087 0.950 . S
C1081 C1079 1.387 . S
C1081 C1083 1.390 . S
C1081 H1085 0.950 . S
H1082 C1078 0.951 . S
C1083 C1081 1.390 . S
C1083 C1084 1.387 . S
C1083 H1086 0.950 . S
C1084 C1083 1.387 . S
C1084 C1087 1.387 . S
H1085 C1081 0.950 . S
H1086 C1083 0.950 . S
C1087 C1078 1.390 1_545 S
C1087 H1080 0.950 . S
C1087 C1084 1.387 . S
C1088 C1089 1.387 . S
C1088 H1092 0.950 . S
C1088 C1097 1.390 . S
C1089 C1088 1.387 . S
C1089 C1091 1.387 . S
H1090 C1097 0.950 . S
C1091 C1089 1.387 . S
C1091 C1093 1.390 . S
C1091 H1095 0.950 1_655 S
H1092 C1088 0.950 . S
C1093 C1091 1.390 . S
C1093 C1094 1.387 . S
C1093 H1096 0.950 . S
C1094 C1093 1.387 . S
C1094 C1097 1.387 . S
H1095 C1091 0.950 1_455 S
H1096 C1093 0.950 . S
C1097 C1088 1.390 . S
C1097 H1090 0.950 . S
C1097 C1094 1.387 . S
C1098 C1099 1.387 . S
C1098 H1102 0.950 . S
C1098 C1107 1.390 . S
C1099 C1098 1.387 . S
C1099 C1101 1.387 . S
H1100 C1107 0.950 . S
C1101 C1099 1.387 . S
C1101 C1103 1.390 . S
C1101 H1105 0.950 . S
H1102 C1098 0.950 . S
C1103 C1101 1.390 . S
C1103 C1104 1.387 . S
C1103 H1106 0.950 . S
C1104 C1103 1.387 . S
C1104 C1107 1.387 . S
H1105 C1101 0.950 . S
H1106 C1103 0.950 . S
C1107 C1098 1.390 . S
C1107 H1100 0.950 . S
C1107 C1104 1.387 . S
C1108 C1109 1.387 1_545 S
C1108 H1112 0.950 . S
C1108 C1117 1.390 1_545 S
C1109 C1108 1.387 1_565 S
C1109 C1111 1.387 . S
H1110 C1117 0.950 . S
C1111 C1109 1.387 . S
C1111 C1113 1.390 . S
C1111 H1115 0.950 . S
H1112 C1108 0.950 . S
C1113 C1111 1.390 . S
C1113 C1114 1.387 . S
C1113 H1116 0.950 . S
C1114 C1113 1.387 . S
C1114 C1117 1.387 . S
H1115 C1111 0.950 . S
H1116 C1113 0.950 . S
C1117 C1108 1.390 1_565 S
C1117 H1110 0.950 . S
C1117 C1114 1.387 . S
C1118 C1119 1.387 . S
C1118 H1122 0.950 . S
C1118 C1127 1.390 . S
C1119 C1118 1.387 . S
C1119 C1121 1.387 . S
H1120 C1127 0.950 . S
C1121 C1119 1.387 . S
C1121 C1123 1.390 1_455 S
C1121 H1125 0.950 1_455 S
H1122 C1118 0.950 . S
C1123 C1121 1.390 1_655 S
C1123 C1124 1.387 1_655 S
C1123 H1126 0.950 . S
C1124 C1123 1.387 1_455 S
C1124 C1127 1.387 . S
H1125 C1121 0.950 1_655 S
H1126 C1123 0.950 . S
C1127 C1118 1.390 . S
C1127 H1120 0.950 . S
C1127 C1124 1.387 . S
C1128 C1129 1.387 . S
C1128 H1132 0.950 . S
C1128 C1137 1.390 1_655 S
C1129 C1128 1.387 . S
C1129 C1131 1.387 . S
H1130 C1137 0.950 . S
C1131 C1129 1.387 . S
C1131 C1133 1.390 1_655 S
C1131 H1135 0.950 . S
H1132 C1128 0.950 . S
C1133 C1131 1.390 1_455 S
C1133 C1134 1.387 . S
C1133 H1136 0.950 . S
C1134 C1133 1.387 . S
C1134 C1137 1.387 . S
H1135 C1131 0.950 . S
H1136 C1133 0.950 . S
C1137 C1128 1.390 1_455 S
C1137 H1130 0.950 . S
C1137 C1134 1.387 . S
C1138 C1139 1.387 . S
C1138 H1142 0.950 . S
C1138 C1147 1.390 . S
C1139 C1138 1.387 . S
C1139 C1141 1.387 . S
H1140 C1147 0.950 . S
C1141 C1139 1.387 . S
C1141 C1143 1.390 . S
C1141 H1145 0.950 . S
H1142 C1138 0.950 . S
C1143 C1141 1.390 . S
C1143 C1144 1.387 . S
C1143 H1146 0.950 . S
C1144 C1143 1.387 . S
C1144 C1147 1.387 . S
H1145 C1141 0.950 . S
H1146 C1143 0.950 . S
C1147 C1138 1.390 . S
C1147 H1140 0.950 . S
C1147 C1144 1.387 . S
C1148 C1149 1.387 . S
C1148 H1152 0.950 . S
C1148 C1157 1.390 1_565 S
C1149 C1148 1.387 . S
C1149 C1151 1.387 . S
H1150 C1157 0.950 . S
C1151 C1149 1.387 . S
C1151 C1153 1.390 1_565 S
C1151 H1155 0.950 . S
H1152 C1148 0.950 . S
C1153 C1151 1.390 1_545 S
C1153 C1154 1.387 . S
C1153 H1156 0.950 . S
C1154 C1153 1.387 . S
C1154 C1157 1.387 . S
H1155 C1151 0.950 . S
H1156 C1153 0.950 . S
C1157 C1148 1.390 1_545 S
C1157 H1150 0.950 . S
C1157 C1154 1.387 . S
C1158 C1159 1.387 . S
C1158 H1162 0.950 . S
C1158 C1167 1.390 1_565 S
C1159 C1158 1.387 . S
C1159 C1161 1.387 . S
H1160 C1167 0.950 . S
C1161 C1159 1.387 . S
C1161 C1163 1.390 1_565 S
C1161 H1165 0.950 . S
H1162 C1158 0.950 . S
C1163 C1161 1.390 1_545 S
C1163 C1164 1.387 . S
C1163 H1166 0.950 . S
C1164 C1163 1.387 . S
C1164 C1167 1.387 . S
H1165 C1161 0.950 . S
H1166 C1163 0.950 . S
C1167 C1158 1.390 1_545 S
C1167 H1160 0.950 . S
C1167 C1164 1.387 . S
C1168 C1169 1.387 . S
C1168 H1172 0.950 . S
C1168 C1177 1.390 1_655 S
C1169 C1168 1.387 . S
C1169 C1171 1.387 . S
H1170 C1177 0.950 . S
C1171 C1169 1.387 . S
C1171 C1173 1.390 1_655 S
C1171 H1175 0.950 . S
H1172 C1168 0.950 . S
C1173 C1171 1.390 1_455 S
C1173 C1174 1.387 . S
C1173 H1176 0.950 . S
C1174 C1173 1.387 . S
C1174 C1177 1.387 . S
H1175 C1171 0.950 . S
H1176 C1173 0.950 . S
C1177 C1168 1.390 1_455 S
C1177 H1170 0.950 . S
C1177 C1174 1.387 . S
C1178 C1179 1.387 . S
C1178 H1182 0.950 . S
C1178 C1187 1.390 . S
C1179 C1178 1.387 . S
C1179 C1181 1.387 . S
H1180 C1187 0.950 . S
C1181 C1179 1.387 . S
C1181 C1183 1.390 . S
C1181 H1185 0.950 . S
H1182 C1178 0.950 . S
C1183 C1181 1.390 . S
C1183 C1184 1.387 . S
C1183 H1186 0.950 . S
C1184 C1183 1.387 . S
C1184 C1187 1.387 . S
H1185 C1181 0.950 . S
H1186 C1183 0.950 . S
C1187 C1178 1.390 . S
C1187 H1180 0.950 . S
C1187 C1184 1.387 . S
C469 C5 1.625 . S
C474 C237 1.625 . S
C479 C16 1.670 . S
C484 C252 1.670 . S
C489 C263 1.626 . S
C494 C29 1.669 . S
C499 C42 1.670 . S
C504 C432 1.626 . S
C509 C447 1.669 . S
C514 C55 1.669 . S
C519 C70 1.625 . S
C524 C458 1.625 . S
C529 C317 1.627 . S
C534 C81 1.627 . S
C539 C96 1.669 . S
C544 C328 1.669 . S
C549 C107 1.625 . S
C554 C341 1.669 . S
C559 C120 1.627 . S
C564 C198 1.670 . S
C569 C211 1.670 . S
C574 C135 1.670 . S
C579 C146 1.625 . S
C584 C226 1.625 . S
C589 C161 1.627 . S
C594 C393 1.627 . S
C599 C172 1.670 . S
C604 C408 1.670 . S
C609 C185 1.670 . S
C614 C419 1.626 . S
C619 C276 1.625 . S
C624 C354 1.670 . S
C629 C291 1.670 . S
C634 C367 1.670 . S
C639 C302 1.627 . S
C644 C382 1.627 . S
C649 C101 1.598 1_545 S
C654 C3 1.596 . S
C659 C105 1.587 1_655 S
C664 C18 1.523 . S
C669 C31 1.525 . S
C674 C79 1.586 . S
C679 C144 1.587 1_455 S
C684 C44 1.524 . S
C689 C118 1.587 . S
C694 C57 1.526 . S
C699 C140 1.598 1_565 S
C704 C68 1.596 . S
C709 C83 1.596 . S
C714 C14 1.598 1_565 S
C719 C94 1.523 . S
C724 C27 1.598 1_455 S
C729 C109 1.596 . S
C734 C10 1.588 . S
C739 C122 1.596 . S
C744 C75 1.586 1_655 S
C749 C40 1.599 . S
C754 C133 1.525 . S
C759 C53 1.598 1_545 S
C764 C148 1.596 . S
C769 C159 1.595 . S
C774 C257 1.598 . S
C779 C174 1.523 . S
C784 C261 1.587 . S
C789 C187 1.524 . S
C794 C235 1.588 . S
C799 C300 1.586 . S
C804 C200 1.525 . S
C809 C213 1.523 . S
C814 C274 1.587 . S
C819 C296 1.598 . S
C824 C224 1.595 . S
C829 C239 1.596 . S
C834 C170 1.598 . S
C839 C183 1.598 . S
C844 C250 1.523 . S
C849 C166 1.588 . S
C854 C265 1.596 . S
C859 C278 1.596 . S
C864 C231 1.586 . S
C869 C289 1.523 . S
C874 C196 1.598 . S
C879 C304 1.596 . S
C884 C209 1.598 . S
C889 C413 1.598 . S
C894 C315 1.596 . S
C899 C330 1.523 . S
C904 C417 1.587 . S
C909 C343 1.524 . S
C914 C391 1.588 . S
C919 C456 1.586 . S
C924 C356 1.524 . S
C929 C430 1.588 . S
C934 C369 1.523 . S
C939 C452 1.598 . S
C944 C380 1.595 . S
C949 C326 1.598 . S
C954 C395 1.596 . S
C959 C339 1.598 . S
C964 C406 1.525 . S
C969 C322 1.586 . S
C974 C421 1.596 . S
C979 C434 1.596 . S
C984 C387 1.586 . S
C989 C352 1.598 . S
C994 C445 1.526 . S
C999 C460 1.595 . S
C1004 C365 1.598 . S
C1009 C1 1.765 . S
C1014 C378 1.765 . S
C1019 C361 1.682 . S
C1024 C23 1.683 1_565 S
C1029 C36 1.683 1_455 S
C1034 C374 1.683 . S
C1039 C49 1.685 . S
C1044 C179 1.684 . S
C1049 C192 1.685 . S
C1054 C62 1.684 1_545 S
C1059 C66 1.763 1_655 S
C1064 C157 1.763 . S
C1069 C309 1.763 . S
C1074 C88 1.763 . S
C1079 C92 1.684 1_545 S
C1084 C283 1.764 . S
C1089 C114 1.764 1_655 S
C1094 C287 1.684 . S
C1099 C127 1.763 . S
C1104 C404 1.683 . S
C1109 C131 1.683 1_565 S
C1114 C426 1.764 . S
C1119 C400 1.765 . S
C1124 C153 1.765 1_455 S
C1129 C205 1.684 . S
C1134 C335 1.684 . S
C1139 C348 1.685 . S
C1144 C218 1.684 . S
C1149 C313 1.763 . S
C1154 C222 1.763 . S
C1159 C465 1.765 . S
C1164 C244 1.765 . S
C1169 C248 1.682 . S
C1174 C439 1.763 . S
C1179 C270 1.764 . S
C1184 C443 1.684 . S
