# Generated by pormake.
# Topology cha, (4)-cn, num edge types: 1
# Building blocks:
#     Node 0, Type 0, BuildingBlock: NAHDIM_clean_sbu_0, # of connection points: 4
#     Node 1, Type 0, BuildingBlock: NAHDIM_clean_sbu_0, # of connection points: 4
#     Node 2, Type 0, BuildingBlock: NAHDIM_clean_sbu_0, # of connection points: 4
#     Node 3, Type 0, BuildingBlock: NAHDIM_clean_sbu_0, # of connection points: 4
#     Node 4, Type 0, BuildingBlock: NAHDIM_clean_sbu_0, # of connection points: 4
#     Node 5, Type 0, BuildingBlock: NAHDIM_clean_sbu_0, # of connection points: 4
#     Node 6, Type 0, BuildingBlock: NAHDIM_clean_sbu_0, # of connection points: 4
#     Node 7, Type 0, BuildingBlock: NAHDIM_clean_sbu_0, # of connection points: 4
#     Node 8, Type 0, BuildingBlock: NAHDIM_clean_sbu_0, # of connection points: 4
#     Node 9, Type 0, BuildingBlock: NAHDIM_clean_sbu_0, # of connection points: 4
#     Node 10, Type 0, BuildingBlock: NAHDIM_clean_sbu_0, # of connection points: 4
#     Node 11, Type 0, BuildingBlock: NAHDIM_clean_sbu_0, # of connection points: 4
#     Node 12, Type 0, BuildingBlock: NAHDIM_clean_sbu_0, # of connection points: 4
#     Node 13, Type 0, BuildingBlock: NAHDIM_clean_sbu_0, # of connection points: 4
#     Node 14, Type 0, BuildingBlock: NAHDIM_clean_sbu_0, # of connection points: 4
#     Node 15, Type 0, BuildingBlock: NAHDIM_clean_sbu_0, # of connection points: 4
#     Node 16, Type 0, BuildingBlock: NAHDIM_clean_sbu_0, # of connection points: 4
#     Node 17, Type 0, BuildingBlock: NAHDIM_clean_sbu_0, # of connection points: 4
#     Node 18, Type 0, BuildingBlock: NAHDIM_clean_sbu_0, # of connection points: 4
#     Node 19, Type 0, BuildingBlock: NAHDIM_clean_sbu_0, # of connection points: 4
#     Node 20, Type 0, BuildingBlock: NAHDIM_clean_sbu_0, # of connection points: 4
#     Node 21, Type 0, BuildingBlock: NAHDIM_clean_sbu_0, # of connection points: 4
#     Node 22, Type 0, BuildingBlock: NAHDIM_clean_sbu_0, # of connection points: 4
#     Node 23, Type 0, BuildingBlock: NAHDIM_clean_sbu_0, # of connection points: 4
#     Node 24, Type 0, BuildingBlock: NAHDIM_clean_sbu_0, # of connection points: 4
#     Node 25, Type 0, BuildingBlock: NAHDIM_clean_sbu_0, # of connection points: 4
#     Node 26, Type 0, BuildingBlock: NAHDIM_clean_sbu_0, # of connection points: 4
#     Node 27, Type 0, BuildingBlock: NAHDIM_clean_sbu_0, # of connection points: 4
#     Node 28, Type 0, BuildingBlock: NAHDIM_clean_sbu_0, # of connection points: 4
#     Node 29, Type 0, BuildingBlock: NAHDIM_clean_sbu_0, # of connection points: 4
#     Node 30, Type 0, BuildingBlock: NAHDIM_clean_sbu_0, # of connection points: 4
#     Node 31, Type 0, BuildingBlock: NAHDIM_clean_sbu_0, # of connection points: 4
#     Node 32, Type 0, BuildingBlock: NAHDIM_clean_sbu_0, # of connection points: 4
#     Node 33, Type 0, BuildingBlock: NAHDIM_clean_sbu_0, # of connection points: 4
#     Node 34, Type 0, BuildingBlock: NAHDIM_clean_sbu_0, # of connection points: 4
#     Node 35, Type 0, BuildingBlock: NAHDIM_clean_sbu_0, # of connection points: 4
#     Edge 36, Type (0, 0), None
#     Edge 37, Type (0, 0), None
#     Edge 38, Type (0, 0), None
#     Edge 39, Type (0, 0), None
#     Edge 40, Type (0, 0), None
#     Edge 41, Type (0, 0), None
#     Edge 42, Type (0, 0), None
#     Edge 43, Type (0, 0), None
#     Edge 44, Type (0, 0), None
#     Edge 45, Type (0, 0), None
#     Edge 46, Type (0, 0), None
#     Edge 47, Type (0, 0), None
#     Edge 48, Type (0, 0), None
#     Edge 49, Type (0, 0), None
#     Edge 50, Type (0, 0), None
#     Edge 51, Type (0, 0), None
#     Edge 52, Type (0, 0), None
#     Edge 53, Type (0, 0), None
#     Edge 54, Type (0, 0), None
#     Edge 55, Type (0, 0), None
#     Edge 56, Type (0, 0), None
#     Edge 57, Type (0, 0), None
#     Edge 58, Type (0, 0), None
#     Edge 59, Type (0, 0), None
#     Edge 60, Type (0, 0), None
#     Edge 61, Type (0, 0), None
#     Edge 62, Type (0, 0), None
#     Edge 63, Type (0, 0), None
#     Edge 64, Type (0, 0), None
#     Edge 65, Type (0, 0), None
#     Edge 66, Type (0, 0), None
#     Edge 67, Type (0, 0), None
#     Edge 68, Type (0, 0), None
#     Edge 69, Type (0, 0), None
#     Edge 70, Type (0, 0), None
#     Edge 71, Type (0, 0), None
#     Edge 72, Type (0, 0), None
#     Edge 73, Type (0, 0), None
#     Edge 74, Type (0, 0), None
#     Edge 75, Type (0, 0), None
#     Edge 76, Type (0, 0), None
#     Edge 77, Type (0, 0), None
#     Edge 78, Type (0, 0), None
#     Edge 79, Type (0, 0), None
#     Edge 80, Type (0, 0), None
#     Edge 81, Type (0, 0), None
#     Edge 82, Type (0, 0), None
#     Edge 83, Type (0, 0), None
#     Edge 84, Type (0, 0), None
#     Edge 85, Type (0, 0), None
#     Edge 86, Type (0, 0), None
#     Edge 87, Type (0, 0), None
#     Edge 88, Type (0, 0), None
#     Edge 89, Type (0, 0), None
#     Edge 90, Type (0, 0), None
#     Edge 91, Type (0, 0), None
#     Edge 92, Type (0, 0), None
#     Edge 93, Type (0, 0), None
#     Edge 94, Type (0, 0), None
#     Edge 95, Type (0, 0), None
#     Edge 96, Type (0, 0), None
#     Edge 97, Type (0, 0), None
#     Edge 98, Type (0, 0), None
#     Edge 99, Type (0, 0), None
#     Edge 100, Type (0, 0), None
#     Edge 101, Type (0, 0), None
#     Edge 102, Type (0, 0), None
#     Edge 103, Type (0, 0), None
#     Edge 104, Type (0, 0), None
#     Edge 105, Type (0, 0), None
#     Edge 106, Type (0, 0), None
#     Edge 107, Type (0, 0), None
# Relax obj value: 0.156
# Max RMSD: 0.148
# Mean RMSD: 0.148
data_MOF--net-cha--node1-NAHDIM_clean_sbu_0--edge1-none
_symmetry_space_group_name_H-M    P1
_symmetry_Int_Tables_number       1
_symmetry_cell_setting            triclinic
loop_
_symmetry_equiv_pos_as_xyz
'x, y, z'
_cell_length_a     28.266007
_cell_length_b     28.265265
_cell_length_c     36.5283
_cell_angle_alpha  89.997145
_cell_angle_beta   90.002653
_cell_angle_gamma 119.99459
loop_
_atom_site_label
_atom_site_type_symbol
_atom_site_fract_x
_atom_site_fract_y
_atom_site_fract_z
_atom_type_partial_charge
C0 C -0.00234 0.30708 0.13913 0.0
O1 O 0.01464 0.27974 0.15898 0.0
O2 O 0.08453 0.25723 0.0849 0.0
Zn3 Zn 0.00793 0.24563 0.07942 0.0
O4 O 0.9518 0.1714 0.09745 0.0
C5 C 0.02207 0.26248 0.0003 0.0
O6 O 0.07466 0.2871 0.00729 0.0
O7 O -0.00505 0.30146 0.1046 0.0
C8 C 0.94952 0.12994 0.08218 0.0
O9 O 0.98818 0.1369 0.05915 0.0
C10 C 0.0963 0.23515 0.11101 0.0
O11 O 0.05927 0.207 0.13591 0.0
O12 O 0.98801 0.24359 0.02638 0.0
C13 C 0.72048 0.70882 0.13914 0.0
O14 O 0.74776 0.75316 0.15898 0.0
O15 O 0.77038 0.84552 0.0849 0.0
Zn16 Zn 0.78195 0.78049 0.07939 0.0
O17 O 0.85621 0.79856 0.09735 0.0
C18 C 0.7651 0.77794 0.0003 0.0
O19 O 0.74073 0.80614 0.00733 0.0
O20 O 0.72615 0.71171 0.10461 0.0
C21 C 0.89766 0.83769 0.08204 0.0
O22 O 0.89068 0.86938 0.05901 0.0
C23 C 0.79247 0.87934 0.11101 0.0
O24 O 0.82063 0.87045 0.1359 0.0
O25 O 0.78385 0.76257 0.02635 0.0
C26 C 0.31876 0.02992 0.13918 0.0
O27 O 0.27444 0.01305 0.159 0.0
O28 O 0.1821 0.94302 0.08486 0.0
Zn29 Zn 0.24714 0.0196 0.07937 0.0
O30 O 0.22905 0.0758 0.09731 0.0
C31 C 0.24949 0.00536 0.00025 0.0
O32 O 0.22089 0.95281 0.00724 0.0
O33 O 0.31588 0.03255 0.10464 0.0
C34 C 0.1899 0.0781 0.08201 0.0
O35 O 0.15821 0.03944 0.05899 0.0
C36 C 0.14825 0.93129 0.11096 0.0
O37 O 0.15712 0.96834 0.13584 0.0
O38 O 0.26516 0.03945 0.02633 0.0
C39 C 0.30407 0.00068 0.82357 0.0
O40 O 0.27682 0.01776 0.80371 0.0
O41 O 0.25415 0.0875 0.87777 0.0
Zn42 Zn 0.24253 0.01089 0.88326 0.0
O43 O 0.1683 0.95476 0.86523 0.0
C44 C 0.25943 0.02505 0.96237 0.0
O45 O 0.28415 0.07764 0.95538 0.0
O46 O 0.29836 -0.00211 0.85809 0.0
C47 C 0.12685 0.95247 0.88051 0.0
O48 O 0.13381 0.99112 0.90354 0.0
C49 C 0.23208 0.09927 0.85165 0.0
O50 O 0.20392 0.06224 0.82675 0.0
O51 O 0.24047 0.99099 0.9363 0.0
C52 C 0.02691 0.3218 0.82351 0.0
O53 O 0.01001 0.27749 0.80368 0.0
O54 O 0.94001 0.18512 0.87781 0.0
Zn55 Zn 0.0166 0.25015 0.8833 0.0
O56 O 0.07279 0.23206 0.86535 0.0
C57 C 0.00238 0.25256 0.96242 0.0
O58 O 0.94982 0.22405 0.95544 0.0
O59 O 0.02955 0.31891 0.85805 0.0
C60 C 0.0751 0.19292 0.88065 0.0
O61 O 0.03645 0.16124 0.90368 0.0
C62 C 0.92827 0.15127 0.85172 0.0
O63 O 0.96532 0.16013 0.82683 0.0
O64 O 0.03645 0.26815 0.93634 0.0
C65 C 0.70578 0.72349 0.82356 0.0
O66 O 0.75012 0.75075 0.80372 0.0
O67 O 0.84245 0.7734 0.87779 0.0
Zn68 Zn 0.77743 0.78497 0.88331 0.0
O69 O 0.79549 0.85924 0.86537 0.0
C70 C 0.77492 0.76814 0.9624 0.0
O71 O 0.80318 0.74384 0.95538 0.0
O72 O 0.70866 0.72918 0.85808 0.0
C73 C 0.83461 0.90069 0.88068 0.0
O74 O 0.8663 0.89372 0.90371 0.0
C75 C 0.87628 0.79549 0.85168 0.0
O76 O 0.86739 0.82368 0.8268 0.0
O77 O 0.7595 0.78684 0.93636 0.0
C78 C 0.0269 0.72355 0.82352 0.0
O79 O 0.00996 0.75093 0.80367 0.0
O80 O 0.94001 0.7734 0.87777 0.0
Zn81 Zn 0.01661 0.78498 0.88325 0.0
O82 O 0.07275 0.85922 0.86523 0.0
C83 C 0.00247 0.76812 0.96236 0.0
O84 O 0.94988 0.74352 0.95537 0.0
O85 O 0.02958 0.72914 0.85805 0.0
C86 C 0.07504 0.90067 0.88051 0.0
O87 O 0.0364 0.89373 0.90354 0.0
C88 C 0.92825 0.79548 0.85166 0.0
O89 O 0.96528 0.82364 0.82676 0.0
O90 O 0.03652 0.787 0.93629 0.0
C91 C 0.30405 0.32178 0.82351 0.0
O92 O 0.27675 0.27745 0.80367 0.0
O93 O 0.25417 0.18508 0.87777 0.0
Zn94 Zn 0.24261 0.25011 0.88327 0.0
O95 O 0.16834 0.23204 0.86533 0.0
C96 C 0.25943 0.25262 0.96237 0.0
O97 O 0.28372 0.22435 0.95535 0.0
O98 O 0.2984 0.31888 0.85804 0.0
C99 C 0.1269 0.1929 0.88064 0.0
O100 O 0.13386 0.16121 0.90367 0.0
C101 C 0.23208 0.15125 0.85165 0.0
O102 O 0.20392 0.16014 0.82676 0.0
O103 O 0.24074 0.26805 0.93632 0.0
C104 C 0.70578 0.00069 0.82348 0.0
O105 O 0.7501 0.01754 0.80366 0.0
O106 O 0.84243 0.08758 0.87781 0.0
Zn107 Zn 0.77737 0.011 0.8833 0.0
O108 O 0.79545 0.95479 0.86539 0.0
C109 C 0.77508 0.02526 0.96242 0.0
O110 O 0.8038 0.07781 0.95543 0.0
O111 O 0.70865 -0.00193 0.85801 0.0
C112 C 0.8346 0.95249 0.88069 0.0
O113 O 0.8663 0.99114 0.90371 0.0
C114 C 0.87629 0.0993 0.85172 0.0
O115 O 0.86742 0.06224 0.82684 0.0
O116 O 0.75931 0.99118 0.93634 0.0
C117 C 0.7205 0.02993 0.13909 0.0
O118 O 0.74773 0.01284 0.15894 0.0
O119 O 0.77042 0.9431 0.0849 0.0
Zn120 Zn 0.78205 0.01972 0.07941 0.0
O121 O 0.85627 0.07584 0.09746 0.0
C122 C 0.7651 0.00558 0.0003 0.0
O123 O 0.74025 0.95298 0.00729 0.0
O124 O 0.72621 0.03272 0.10457 0.0
C125 C 0.89773 0.07813 0.08218 0.0
O126 O 0.89079 0.03949 0.05915 0.0
C127 C 0.79248 0.93133 0.11102 0.0
O128 O 0.82063 0.96835 0.13592 0.0
O129 O 0.78415 0.03964 0.02637 0.0
C130 C -0.00235 0.70879 0.13914 0.0
O131 O 0.01457 0.75311 0.15897 0.0
O132 O 0.08453 0.84546 0.08485 0.0
Zn133 Zn 0.00794 0.78043 0.07936 0.0
O134 O 0.95176 0.79853 0.09732 0.0
C135 C 0.02216 0.77803 0.00024 0.0
O136 O 0.07472 0.80652 0.00722 0.0
O137 O -0.00502 0.71167 0.10461 0.0
C138 C 0.94946 0.83768 0.08203 0.0
O139 O 0.9881 0.86938 0.059 0.0
C140 C 0.09627 0.87931 0.11095 0.0
O141 O 0.05922 0.87045 0.13584 0.0
O142 O 0.98808 0.76245 0.02632 0.0
C143 C 0.31878 0.30711 0.1391 0.0
O144 O 0.27444 0.27987 0.15894 0.0
O145 O 0.18209 0.25721 0.08488 0.0
Zn146 Zn 0.2471 0.24562 0.07936 0.0
O147 O 0.22902 0.17135 0.09732 0.0
C148 C 0.24963 0.26245 0.00026 0.0
O149 O 0.22145 0.28684 0.00729 0.0
O150 O 0.31589 0.30141 0.10458 0.0
C151 C 0.18988 0.1299 0.08201 0.0
O152 O 0.15819 0.13685 0.05898 0.0
C153 C 0.14827 0.23513 0.11099 0.0
O154 O 0.15715 0.20696 0.13588 0.0
O155 O 0.265 0.2437 0.02631 0.0
C156 C 0.66424 0.64039 0.47249 0.0
O157 O 0.68118 0.61301 0.49233 0.0
O158 O 0.75112 0.59056 0.41824 0.0
Zn159 Zn 0.67453 0.57899 0.41275 0.0
O160 O 0.61837 0.50473 0.43074 0.0
C161 C 0.68874 0.5958 0.33364 0.0
O162 O 0.74131 0.62023 0.34064 0.0
O163 O 0.66156 0.6348 0.43796 0.0
C164 C 0.61608 0.46328 0.41545 0.0
O165 O 0.65473 0.47025 0.39243 0.0
C166 C 0.76288 0.56849 0.44435 0.0
O167 O 0.72584 0.54033 0.46925 0.0
O168 O 0.65466 0.57703 0.3597 0.0
C169 C 0.38709 0.04215 0.47251 0.0
O170 O 0.41442 0.08647 0.49235 0.0
O171 O 0.43694 0.17885 0.41824 0.0
Zn172 Zn 0.44851 0.11382 0.41275 0.0
O173 O 0.52277 0.13191 0.43073 0.0
C174 C 0.43179 0.11132 0.33364 0.0
O175 O 0.40752 0.13962 0.34063 0.0
O176 O 0.39271 0.04505 0.43798 0.0
C177 C 0.56422 0.17108 0.41544 0.0
O178 O 0.55724 0.20277 0.39242 0.0
C179 C 0.45902 0.21268 0.44435 0.0
O180 O 0.48718 0.20379 0.46925 0.0
O181 O 0.45043 0.09587 0.35971 0.0
C182 C 0.98536 0.36323 0.47246 0.0
O183 O 0.94104 0.34627 0.4923 0.0
O184 O 0.84866 0.27639 0.41821 0.0
Zn185 Zn 0.91367 0.35298 0.41272 0.0
O186 O 0.89559 0.40914 0.43073 0.0
C187 C 0.9163 0.33878 0.33362 0.0
O188 O 0.88824 0.28621 0.34062 0.0
O189 O 0.98246 0.36594 0.43793 0.0
C190 C 0.85643 0.41145 0.41545 0.0
O191 O 0.82473 0.3728 0.39242 0.0
C192 C 0.81483 0.26464 0.44433 0.0
O193 O 0.82372 0.30167 0.46923 0.0
O194 O 0.93156 0.37286 0.35968 0.0
C195 C 0.97077 0.33396 0.15685 0.0
O196 O 0.94345 0.35096 0.137 0.0
O197 O 0.9209 0.42079 0.21113 0.0
Zn198 Zn 0.90935 0.3442 0.21662 0.0
O199 O 0.83508 0.288 0.19868 0.0
C200 C 0.92608 0.35845 0.29573 0.0
O201 O 0.95024 0.41101 0.28873 0.0
O202 O 0.96514 0.33123 0.19138 0.0
C203 C 0.79363 0.28568 0.214 0.0
O204 O 0.8006 0.32433 0.23703 0.0
C205 C 0.89878 0.43253 0.18503 0.0
O206 O 0.8706 0.39548 0.16015 0.0
O207 O 0.9075 0.32436 0.26967 0.0
C208 C 0.6936 0.65508 0.15687 0.0
O209 O 0.67666 0.61075 0.13704 0.0
O210 O 0.60674 0.51841 0.21115 0.0
Zn211 Zn 0.68332 0.58343 0.21665 0.0
O212 O 0.73951 0.56534 0.19869 0.0
C213 C 0.66908 0.58594 0.29575 0.0
O214 O 0.61651 0.55761 0.28875 0.0
O215 O 0.69629 0.65219 0.1914 0.0
C216 C 0.74181 0.52619 0.214 0.0
O217 O 0.70316 0.49451 0.23703 0.0
C218 C 0.595 0.48457 0.18504 0.0
O219 O 0.63206 0.49344 0.16016 0.0
O220 O 0.70317 0.60139 0.26969 0.0
C221 C 0.37251 0.05678 0.15691 0.0
O222 O 0.41684 0.084 0.13706 0.0
O223 O 0.5092 0.10669 0.21114 0.0
Zn224 Zn 0.44419 0.11828 0.21664 0.0
O225 O 0.46227 0.19254 0.19867 0.0
C226 C 0.44161 0.10147 0.29575 0.0
O227 O 0.46979 0.07707 0.28876 0.0
O228 O 0.3754 0.06249 0.19143 0.0
C229 C 0.5014 0.23399 0.21397 0.0
O230 O 0.53308 0.22702 0.23701 0.0
C231 C 0.54304 0.12878 0.18503 0.0
O232 O 0.53417 0.15697 0.16015 0.0
O233 O 0.42628 0.12022 0.26969 0.0
C234 C 0.69363 0.05682 0.1568 0.0
O235 O 0.67674 0.08424 0.13696 0.0
O236 O 0.60674 0.10663 0.21111 0.0
Zn237 Zn 0.68332 0.11815 0.2166 0.0
O238 O 0.73952 0.19244 0.19868 0.0
C239 C 0.66905 0.10144 0.29571 0.0
O240 O 0.61649 0.07739 0.28871 0.0
O241 O 0.69627 0.06236 0.19133 0.0
C242 C 0.74182 0.23387 0.21399 0.0
O243 O 0.70318 0.22692 0.23702 0.0
C244 C 0.59501 0.12875 0.18502 0.0
O245 O 0.63205 0.15693 0.16013 0.0
O246 O 0.70314 0.11996 0.26964 0.0
C247 C 0.97078 0.65504 0.15688 0.0
O248 O 0.94352 0.61071 0.13703 0.0
O249 O 0.92089 0.51835 0.21113 0.0
Zn250 Zn 0.90932 0.58338 0.21664 0.0
O251 O 0.83505 0.56531 0.19868 0.0
C252 C 0.92607 0.58588 0.29575 0.0
O253 O 0.95029 0.55753 0.28875 0.0
O254 O 0.96511 0.65216 0.1914 0.0
C255 C 0.79361 0.52617 0.21399 0.0
O256 O 0.80056 0.49448 0.23703 0.0
C257 C 0.89877 0.48451 0.18503 0.0
O258 O 0.87058 0.49338 0.16015 0.0
O259 O 0.90745 0.60135 0.26968 0.0
C260 C 0.37252 0.33398 0.15683 0.0
O261 O 0.41684 0.35088 0.137 0.0
O262 O 0.50917 0.42086 0.21113 0.0
Zn263 Zn 0.44415 0.34427 0.21662 0.0
O264 O 0.46224 0.28809 0.19867 0.0
C265 C 0.44165 0.35851 0.29573 0.0
O266 O 0.47005 0.41107 0.28873 0.0
O267 O 0.3754 0.33132 0.19136 0.0
C268 C 0.50139 0.2858 0.21397 0.0
O269 O 0.53308 0.32444 0.237 0.0
C270 C 0.54302 0.43259 0.18504 0.0
O271 O 0.53415 0.39555 0.16015 0.0
O272 O 0.42616 0.32442 0.26966 0.0
C273 C 0.38708 0.36325 0.47244 0.0
O274 O 0.41435 0.34619 0.49229 0.0
O275 O 0.43697 0.27643 0.41822 0.0
Zn276 Zn 0.44858 0.35303 0.41273 0.0
O277 O 0.52282 0.40918 0.43073 0.0
C278 C 0.43177 0.33883 0.33362 0.0
O279 O 0.40726 0.28626 0.34062 0.0
O280 O 0.39277 0.36603 0.43792 0.0
C281 C 0.56428 0.41147 0.41545 0.0
O282 O 0.55734 0.37283 0.39242 0.0
C283 C 0.45904 0.26467 0.44434 0.0
O284 O 0.4872 0.3017 0.46924 0.0
O285 O 0.45057 0.37291 0.35968 0.0
C286 C 0.66425 0.04213 0.47242 0.0
O287 O 0.68125 0.08644 0.49226 0.0
O288 O 0.75109 0.17884 0.4182 0.0
Zn289 Zn 0.6745 0.11385 0.4127 0.0
O290 O 0.61834 0.13194 0.43072 0.0
C291 C 0.68871 0.11119 0.3336 0.0
O292 O 0.74128 0.13915 0.34061 0.0
O293 O 0.66152 0.04504 0.43789 0.0
C294 C 0.61603 0.17109 0.41543 0.0
O295 O 0.65467 0.2028 0.3924 0.0
C296 C 0.76285 0.21266 0.44432 0.0
O297 O 0.72582 0.20378 0.46922 0.0
O298 O 0.65462 0.09599 0.35966 0.0
C299 C 0.98538 0.64043 0.47247 0.0
O300 O 0.94105 0.61315 0.49231 0.0
O301 O 0.84868 0.59055 0.41824 0.0
Zn302 Zn 0.91369 0.57896 0.41274 0.0
O303 O 0.89559 0.5047 0.43074 0.0
C304 C 0.91627 0.59575 0.33363 0.0
O305 O 0.88815 0.62021 0.34063 0.0
O306 O 0.98248 0.63476 0.43795 0.0
C307 C 0.85643 0.46326 0.41546 0.0
O308 O 0.82472 0.47021 0.39243 0.0
C309 C 0.81486 0.56848 0.44435 0.0
O310 O 0.82374 0.54032 0.46925 0.0
O311 O 0.93158 0.57698 0.3597 0.0
C312 C 0.33094 0.97379 0.80585 0.0
O313 O 0.34783 0.94637 0.8257 0.0
O314 O 0.41782 0.92397 0.75155 0.0
Zn315 Zn 0.34123 0.91243 0.74607 0.0
O316 O 0.28505 0.83816 0.76402 0.0
C317 C 0.35546 0.92913 0.66695 0.0
O318 O 0.40802 0.95326 0.67395 0.0
O319 O 0.32828 0.96824 0.77132 0.0
C320 C 0.28274 0.79672 0.74872 0.0
O321 O 0.3214 0.80368 0.7257 0.0
C322 C 0.42956 0.90186 0.77765 0.0
O323 O 0.39252 0.87369 0.80254 0.0
O324 O 0.32138 0.91057 0.69303 0.0
C325 C 0.05377 0.37556 0.80579 0.0
O326 O 0.08101 0.41988 0.82564 0.0
O327 O 0.10367 0.51227 0.75156 0.0
Zn328 Zn 0.11527 0.44726 0.74607 0.0
O329 O 0.18952 0.46535 0.76407 0.0
C330 C 0.09843 0.44462 0.66696 0.0
O331 O 0.07388 0.47266 0.67396 0.0
O332 O 0.05947 0.37846 0.77127 0.0
C333 C 0.23097 0.5045 0.74878 0.0
O334 O 0.224 0.53619 0.72575 0.0
C335 C 0.12575 0.5461 0.77768 0.0
O336 O 0.15391 0.53722 0.80257 0.0
O337 O 0.11727 0.42938 0.69303 0.0
C338 C 0.65204 0.69662 0.80582 0.0
O339 O 0.60771 0.67969 0.82565 0.0
O340 O 0.51538 0.60975 0.75154 0.0
Zn341 Zn 0.58041 0.68633 0.74604 0.0
O342 O 0.56231 0.74252 0.76399 0.0
C343 C 0.58289 0.67208 0.66693 0.0
O344 O 0.55454 0.61952 0.67394 0.0
O345 O 0.64916 0.6993 0.77129 0.0
C346 C 0.52316 0.74481 0.74869 0.0
O347 O 0.49147 0.70615 0.72567 0.0
C348 C 0.48155 0.59802 0.77764 0.0
O349 O 0.49044 0.63507 0.80253 0.0
O350 O 0.59838 0.70617 0.693 0.0
C351 C 0.63737 0.66728 0.49021 0.0
O352 O 0.6101 0.68433 0.47036 0.0
O353 O 0.58749 0.75409 0.54444 0.0
Zn354 Zn 0.5759 0.67749 0.54994 0.0
O355 O 0.50164 0.62133 0.53196 0.0
C356 C 0.59275 0.69173 0.62905 0.0
O357 O 0.61721 0.74431 0.62204 0.0
O358 O 0.6317 0.6645 0.52473 0.0
C359 C 0.46019 0.61902 0.54727 0.0
O360 O 0.46716 0.65767 0.5703 0.0
C361 C 0.56541 0.76585 0.51832 0.0
O362 O 0.53724 0.7288 0.49343 0.0
O363 O 0.57395 0.65764 0.60299 0.0
C364 C 0.36021 0.98839 0.49023 0.0
O365 O 0.34322 0.94407 0.47038 0.0
O366 O 0.27338 0.85169 0.54447 0.0
Zn367 Zn 0.34997 0.91669 0.54996 0.0
O368 O 0.40613 0.8986 0.53195 0.0
C369 C 0.33578 0.91934 0.62907 0.0
O370 O 0.2832 0.8913 0.62207 0.0
O371 O 0.36294 0.98549 0.52476 0.0
C372 C 0.40845 0.85946 0.54725 0.0
O373 O 0.36981 0.82777 0.57028 0.0
C374 C 0.26162 0.81785 0.51836 0.0
O375 O 0.29866 0.82673 0.49346 0.0
O376 O 0.36985 0.93458 0.603 0.0
C377 C 0.03911 0.3901 0.49019 0.0
O378 O 0.08343 0.4174 0.47034 0.0
O379 O 0.17577 0.43995 0.54446 0.0
Zn380 Zn 0.11075 0.45152 0.54996 0.0
O381 O 0.12884 0.5258 0.53201 0.0
C382 C 0.10831 0.43483 0.62908 0.0
O383 O 0.13675 0.4107 0.62208 0.0
O384 O 0.04199 0.39574 0.52471 0.0
C385 C 0.16798 0.56724 0.54732 0.0
O386 O 0.19966 0.56026 0.57034 0.0
C387 C 0.20961 0.46205 0.51836 0.0
O388 O 0.20074 0.49024 0.49347 0.0
O389 O 0.09277 0.45338 0.603 0.0
C390 C 0.36021 0.39013 0.49016 0.0
O391 O 0.34328 0.41753 0.47032 0.0
O392 O 0.27333 0.43994 0.54445 0.0
Zn393 Zn 0.34992 0.4515 0.54994 0.0
O394 O 0.4061 0.52576 0.53198 0.0
C395 C 0.33571 0.43479 0.62906 0.0
O396 O 0.28314 0.41062 0.62206 0.0
O397 O 0.36288 0.3957 0.5247 0.0
C398 C 0.40839 0.56721 0.54727 0.0
O399 O 0.36975 0.56026 0.5703 0.0
C400 C 0.26159 0.46205 0.51835 0.0
O401 O 0.29863 0.49022 0.49346 0.0
O402 O 0.36978 0.45337 0.60298 0.0
C403 C 0.63737 0.98837 0.49014 0.0
O404 O 0.61004 0.94405 0.47029 0.0
O405 O 0.58752 0.85168 0.54442 0.0
Zn406 Zn 0.57596 0.91671 0.5499 0.0
O407 O 0.50169 0.89862 0.53194 0.0
C408 C 0.59272 0.91925 0.62901 0.0
O409 O 0.61702 0.89097 0.62201 0.0
O410 O 0.63175 0.98547 0.52466 0.0
C411 C 0.46025 0.85946 0.54723 0.0
O412 O 0.46722 0.82776 0.57026 0.0
C413 C 0.56543 0.81784 0.51831 0.0
O414 O 0.53726 0.82672 0.49341 0.0
O415 O 0.57405 0.93466 0.60294 0.0
C416 C 0.03913 0.6673 0.4902 0.0
O417 O 0.08344 0.68424 0.47036 0.0
O418 O 0.17581 0.75415 0.54447 0.0
Zn419 Zn 0.11078 0.67756 0.54997 0.0
O420 O 0.12885 0.62137 0.53201 0.0
C421 C 0.10826 0.69183 0.62907 0.0
O422 O 0.13654 0.74439 0.62206 0.0
O423 O 0.04201 0.66461 0.52473 0.0
C424 C 0.16799 0.61906 0.54731 0.0
O425 O 0.19969 0.6577 0.57035 0.0
C426 C 0.20964 0.76588 0.51836 0.0
O427 O 0.20076 0.72883 0.49347 0.0
O428 O 0.09283 0.65773 0.60301 0.0
C429 C 0.05377 0.69666 0.80581 0.0
O430 O 0.08105 0.67962 0.82567 0.0
O431 O 0.10366 0.60983 0.75157 0.0
Zn432 Zn 0.11524 0.68643 0.74607 0.0
O433 O 0.1895 0.7426 0.76403 0.0
C434 C 0.09842 0.67217 0.66696 0.0
O435 O 0.07403 0.61961 0.67397 0.0
O436 O 0.05944 0.69942 0.77129 0.0
C437 C 0.23094 0.7449 0.74873 0.0
O438 O 0.22399 0.70626 0.7257 0.0
C439 C 0.12575 0.59808 0.77768 0.0
O440 O 0.15391 0.63512 0.80257 0.0
O441 O 0.11716 0.70627 0.69302 0.0
C442 C 0.33093 0.37553 0.80579 0.0
O443 O 0.34791 0.41985 0.82563 0.0
O444 O 0.41781 0.51221 0.75154 0.0
Zn445 Zn 0.34121 0.44722 0.74605 0.0
O446 O 0.28506 0.46533 0.76405 0.0
C447 C 0.35539 0.44459 0.66694 0.0
O448 O 0.40797 0.47266 0.67393 0.0
O449 O 0.32823 0.37842 0.77126 0.0
C450 C 0.28278 0.5045 0.74877 0.0
O451 O 0.32142 0.53619 0.72574 0.0
C452 C 0.42957 0.54605 0.77765 0.0
O453 O 0.39253 0.53718 0.80255 0.0
O454 O 0.32132 0.42932 0.69301 0.0
C455 C 0.65204 0.97384 0.80574 0.0
O456 O 0.6077 0.94664 0.82558 0.0
O457 O 0.51536 0.92392 0.75152 0.0
Zn458 Zn 0.58036 0.91232 0.74601 0.0
O459 O 0.56228 0.83806 0.76399 0.0
C460 C 0.58291 0.9291 0.6669 0.0
O461 O 0.55471 0.95348 0.67389 0.0
O462 O 0.64916 0.96811 0.77122 0.0
C463 C 0.52314 0.79661 0.74869 0.0
O464 O 0.49144 0.80355 0.72565 0.0
C465 C 0.48153 0.90183 0.77763 0.0
O466 O 0.4904 0.87364 0.80251 0.0
O467 O 0.59827 0.91037 0.69296 0.0
loop_
_geom_bond_atom_site_label_1
_geom_bond_atom_site_label_2
_geom_bond_distance
_geom_bond_site_symmetry_2
_ccdc_geom_bond_type
C0 O1 1.160 . S
C0 O7 1.185 . S
O1 C0 1.160 . S
O2 Zn3 1.899 . S
O2 C10 1.284 . S
Zn3 O2 1.899 . S
Zn3 O4 2.032 1_455 S
Zn3 O7 2.086 . S
Zn3 O12 1.977 . S
O4 Zn3 2.032 1_655 S
O4 C8 1.278 . S
C5 O6 1.203 . S
C5 O12 1.267 . S
O6 C5 1.203 . S
O7 C0 1.185 . S
O7 Zn3 2.086 . S
C8 O4 1.278 . S
C8 O9 1.211 . S
O9 C8 1.211 . S
C10 O2 1.284 . S
C10 O11 1.273 . S
O11 C10 1.273 . S
O12 Zn3 1.977 . S
O12 C5 1.267 . S
C13 O14 1.160 . S
C13 O20 1.185 . S
O14 C13 1.160 . S
O15 Zn16 1.899 . S
O15 C23 1.284 . S
Zn16 O15 1.899 . S
Zn16 O17 2.032 . S
Zn16 O20 2.086 . S
Zn16 O25 1.977 . S
O17 Zn16 2.032 . S
O17 C21 1.278 . S
C18 O19 1.203 . S
C18 O25 1.267 . S
O19 C18 1.203 . S
O20 C13 1.185 . S
O20 Zn16 2.086 . S
C21 O17 1.278 . S
C21 O22 1.211 . S
O22 C21 1.211 . S
C23 O15 1.284 . S
C23 O24 1.273 . S
O24 C23 1.273 . S
O25 Zn16 1.977 . S
O25 C18 1.267 . S
C26 O27 1.160 . S
C26 O33 1.185 . S
O27 C26 1.160 . S
O28 Zn29 1.899 1_565 S
O28 C36 1.284 . S
Zn29 O28 1.899 1_545 S
Zn29 O30 2.032 . S
Zn29 O33 2.086 . S
Zn29 O38 1.977 . S
O30 Zn29 2.032 . S
O30 C34 1.278 . S
C31 O32 1.203 1_545 S
C31 O38 1.267 . S
O32 C31 1.203 1_565 S
O33 C26 1.185 . S
O33 Zn29 2.086 . S
C34 O30 1.278 . S
C34 O35 1.211 . S
O35 C34 1.211 . S
C36 O28 1.284 . S
C36 O37 1.273 . S
O37 C36 1.273 . S
O38 Zn29 1.977 . S
O38 C31 1.267 . S
C39 O40 1.160 . S
C39 O46 1.185 . S
O40 C39 1.160 . S
O41 Zn42 1.899 . S
O41 C49 1.284 . S
Zn42 O41 1.899 . S
Zn42 O43 2.032 1_545 S
Zn42 O46 2.086 . S
Zn42 O51 1.977 . S
O43 Zn42 2.032 1_565 S
O43 C47 1.278 . S
C44 O45 1.203 . S
C44 O51 1.267 . S
O45 C44 1.203 . S
O46 C39 1.185 . S
O46 Zn42 2.086 . S
C47 O43 1.278 . S
C47 O48 1.211 . S
O48 C47 1.211 . S
C49 O41 1.284 . S
C49 O50 1.273 . S
O50 C49 1.273 . S
O51 Zn42 1.977 . S
O51 C44 1.267 . S
C52 O53 1.160 . S
C52 O59 1.185 . S
O53 C52 1.160 . S
O54 Zn55 1.899 1_655 S
O54 C62 1.284 . S
Zn55 O54 1.899 1_455 S
Zn55 O56 2.032 . S
Zn55 O59 2.086 . S
Zn55 O64 1.977 . S
O56 Zn55 2.032 . S
O56 C60 1.278 . S
C57 O58 1.203 1_455 S
C57 O64 1.267 . S
O58 C57 1.203 1_655 S
O59 C52 1.185 . S
O59 Zn55 2.086 . S
C60 O56 1.278 . S
C60 O61 1.211 . S
O61 C60 1.211 . S
C62 O54 1.284 . S
C62 O63 1.273 . S
O63 C62 1.273 . S
O64 Zn55 1.977 . S
O64 C57 1.267 . S
C65 O66 1.160 . S
C65 O72 1.185 . S
O66 C65 1.160 . S
O67 Zn68 1.899 . S
O67 C75 1.284 . S
Zn68 O67 1.899 . S
Zn68 O69 2.032 . S
Zn68 O72 2.086 . S
Zn68 O77 1.977 . S
O69 Zn68 2.032 . S
O69 C73 1.278 . S
C70 O71 1.203 . S
C70 O77 1.267 . S
O71 C70 1.203 . S
O72 C65 1.185 . S
O72 Zn68 2.086 . S
C73 O69 1.278 . S
C73 O74 1.211 . S
O74 C73 1.211 . S
C75 O67 1.284 . S
C75 O76 1.273 . S
O76 C75 1.273 . S
O77 Zn68 1.977 . S
O77 C70 1.267 . S
C78 O79 1.160 . S
C78 O85 1.185 . S
O79 C78 1.160 . S
O80 Zn81 1.899 1_655 S
O80 C88 1.284 . S
Zn81 O80 1.899 1_455 S
Zn81 O82 2.032 . S
Zn81 O85 2.086 . S
Zn81 O90 1.977 . S
O82 Zn81 2.032 . S
O82 C86 1.278 . S
C83 O84 1.203 1_455 S
C83 O90 1.267 . S
O84 C83 1.203 1_655 S
O85 C78 1.185 . S
O85 Zn81 2.086 . S
C86 O82 1.278 . S
C86 O87 1.211 . S
O87 C86 1.211 . S
C88 O80 1.284 . S
C88 O89 1.273 . S
O89 C88 1.273 . S
O90 Zn81 1.977 . S
O90 C83 1.267 . S
C91 O92 1.160 . S
C91 O98 1.185 . S
O92 C91 1.160 . S
O93 Zn94 1.899 . S
O93 C101 1.284 . S
Zn94 O93 1.899 . S
Zn94 O95 2.032 . S
Zn94 O98 2.086 . S
Zn94 O103 1.977 . S
O95 Zn94 2.032 . S
O95 C99 1.278 . S
C96 O97 1.203 . S
C96 O103 1.267 . S
O97 C96 1.203 . S
O98 C91 1.185 . S
O98 Zn94 2.086 . S
C99 O95 1.278 . S
C99 O100 1.211 . S
O100 C99 1.211 . S
C101 O93 1.284 . S
C101 O102 1.273 . S
O102 C101 1.273 . S
O103 Zn94 1.977 . S
O103 C96 1.267 . S
C104 O105 1.160 . S
C104 O111 1.185 . S
O105 C104 1.160 . S
O106 Zn107 1.899 . S
O106 C114 1.284 . S
Zn107 O106 1.899 . S
Zn107 O108 2.032 1_545 S
Zn107 O111 2.086 . S
Zn107 O116 1.977 . S
O108 Zn107 2.032 1_565 S
O108 C112 1.278 . S
C109 O110 1.203 . S
C109 O116 1.267 . S
O110 C109 1.203 . S
O111 C104 1.185 . S
O111 Zn107 2.086 . S
C112 O108 1.278 . S
C112 O113 1.211 . S
O113 C112 1.211 . S
C114 O106 1.284 . S
C114 O115 1.273 . S
O115 C114 1.273 . S
O116 Zn107 1.977 . S
O116 C109 1.267 . S
C117 O118 1.160 . S
C117 O124 1.185 . S
O118 C117 1.160 . S
O119 Zn120 1.899 1_565 S
O119 C127 1.284 . S
Zn120 O119 1.899 1_545 S
Zn120 O121 2.032 . S
Zn120 O124 2.086 . S
Zn120 O129 1.977 . S
O121 Zn120 2.032 . S
O121 C125 1.278 . S
C122 O123 1.203 1_545 S
C122 O129 1.267 . S
O123 C122 1.203 1_565 S
O124 C117 1.185 . S
O124 Zn120 2.086 . S
C125 O121 1.278 . S
C125 O126 1.211 . S
O126 C125 1.211 . S
C127 O119 1.284 . S
C127 O128 1.273 . S
O128 C127 1.273 . S
O129 Zn120 1.977 . S
O129 C122 1.267 . S
C130 O131 1.160 . S
C130 O137 1.185 . S
O131 C130 1.160 . S
O132 Zn133 1.899 . S
O132 C140 1.284 . S
Zn133 O132 1.899 . S
Zn133 O134 2.032 1_455 S
Zn133 O137 2.086 . S
Zn133 O142 1.977 . S
O134 Zn133 2.032 1_655 S
O134 C138 1.278 . S
C135 O136 1.203 . S
C135 O142 1.267 . S
O136 C135 1.203 . S
O137 C130 1.185 . S
O137 Zn133 2.086 . S
C138 O134 1.278 . S
C138 O139 1.211 . S
O139 C138 1.211 . S
C140 O132 1.284 . S
C140 O141 1.273 . S
O141 C140 1.273 . S
O142 Zn133 1.977 . S
O142 C135 1.267 . S
C143 O144 1.160 . S
C143 O150 1.185 . S
O144 C143 1.160 . S
O145 Zn146 1.899 . S
O145 C153 1.284 . S
Zn146 O145 1.899 . S
Zn146 O147 2.032 . S
Zn146 O150 2.086 . S
Zn146 O155 1.977 . S
O147 Zn146 2.032 . S
O147 C151 1.278 . S
C148 O149 1.203 . S
C148 O155 1.267 . S
O149 C148 1.203 . S
O150 C143 1.185 . S
O150 Zn146 2.086 . S
C151 O147 1.278 . S
C151 O152 1.211 . S
O152 C151 1.211 . S
C153 O145 1.284 . S
C153 O154 1.273 . S
O154 C153 1.273 . S
O155 Zn146 1.977 . S
O155 C148 1.267 . S
C156 O157 1.160 . S
C156 O163 1.185 . S
O157 C156 1.160 . S
O158 Zn159 1.899 . S
O158 C166 1.284 . S
Zn159 O158 1.899 . S
Zn159 O160 2.032 . S
Zn159 O163 2.086 . S
Zn159 O168 1.977 . S
O160 Zn159 2.032 . S
O160 C164 1.278 . S
C161 O162 1.203 . S
C161 O168 1.267 . S
O162 C161 1.203 . S
O163 C156 1.185 . S
O163 Zn159 2.086 . S
C164 O160 1.278 . S
C164 O165 1.211 . S
O165 C164 1.211 . S
C166 O158 1.284 . S
C166 O167 1.273 . S
O167 C166 1.273 . S
O168 Zn159 1.977 . S
O168 C161 1.267 . S
C169 O170 1.160 . S
C169 O176 1.185 . S
O170 C169 1.160 . S
O171 Zn172 1.899 . S
O171 C179 1.284 . S
Zn172 O171 1.899 . S
Zn172 O173 2.032 . S
Zn172 O176 2.086 . S
Zn172 O181 1.977 . S
O173 Zn172 2.032 . S
O173 C177 1.278 . S
C174 O175 1.203 . S
C174 O181 1.267 . S
O175 C174 1.203 . S
O176 C169 1.185 . S
O176 Zn172 2.086 . S
C177 O173 1.278 . S
C177 O178 1.211 . S
O178 C177 1.211 . S
C179 O171 1.284 . S
C179 O180 1.273 . S
O180 C179 1.273 . S
O181 Zn172 1.977 . S
O181 C174 1.267 . S
C182 O183 1.160 . S
C182 O189 1.185 1_655 S
O183 C182 1.160 . S
O184 Zn185 1.899 . S
O184 C192 1.284 . S
Zn185 O184 1.899 . S
Zn185 O186 2.032 . S
Zn185 O189 2.086 1_655 S
Zn185 O194 1.977 . S
O186 Zn185 2.032 . S
O186 C190 1.278 . S
C187 O188 1.203 . S
C187 O194 1.267 . S
O188 C187 1.203 . S
O189 C182 1.185 1_455 S
O189 Zn185 2.086 1_455 S
C190 O186 1.278 . S
C190 O191 1.211 . S
O191 C190 1.211 . S
C192 O184 1.284 . S
C192 O193 1.273 . S
O193 C192 1.273 . S
O194 Zn185 1.977 . S
O194 C187 1.267 . S
C195 O196 1.160 . S
C195 O202 1.185 . S
O196 C195 1.160 . S
O197 Zn198 1.899 . S
O197 C205 1.284 . S
Zn198 O197 1.899 . S
Zn198 O199 2.032 . S
Zn198 O202 2.086 . S
Zn198 O207 1.977 . S
O199 Zn198 2.032 . S
O199 C203 1.278 . S
C200 O201 1.203 . S
C200 O207 1.267 . S
O201 C200 1.203 . S
O202 C195 1.185 . S
O202 Zn198 2.086 . S
C203 O199 1.278 . S
C203 O204 1.211 . S
O204 C203 1.211 . S
C205 O197 1.284 . S
C205 O206 1.273 . S
O206 C205 1.273 . S
O207 Zn198 1.977 . S
O207 C200 1.267 . S
C208 O209 1.160 . S
C208 O215 1.185 . S
O209 C208 1.160 . S
O210 Zn211 1.899 . S
O210 C218 1.284 . S
Zn211 O210 1.899 . S
Zn211 O212 2.032 . S
Zn211 O215 2.086 . S
Zn211 O220 1.977 . S
O212 Zn211 2.032 . S
O212 C216 1.278 . S
C213 O214 1.203 . S
C213 O220 1.267 . S
O214 C213 1.203 . S
O215 C208 1.185 . S
O215 Zn211 2.086 . S
C216 O212 1.278 . S
C216 O217 1.211 . S
O217 C216 1.211 . S
C218 O210 1.284 . S
C218 O219 1.273 . S
O219 C218 1.273 . S
O220 Zn211 1.977 . S
O220 C213 1.267 . S
C221 O222 1.160 . S
C221 O228 1.185 . S
O222 C221 1.160 . S
O223 Zn224 1.899 . S
O223 C231 1.284 . S
Zn224 O223 1.899 . S
Zn224 O225 2.032 . S
Zn224 O228 2.086 . S
Zn224 O233 1.977 . S
O225 Zn224 2.032 . S
O225 C229 1.278 . S
C226 O227 1.203 . S
C226 O233 1.267 . S
O227 C226 1.203 . S
O228 C221 1.185 . S
O228 Zn224 2.086 . S
C229 O225 1.278 . S
C229 O230 1.211 . S
O230 C229 1.211 . S
C231 O223 1.284 . S
C231 O232 1.273 . S
O232 C231 1.273 . S
O233 Zn224 1.977 . S
O233 C226 1.267 . S
C234 O235 1.160 . S
C234 O241 1.185 . S
O235 C234 1.160 . S
O236 Zn237 1.899 . S
O236 C244 1.284 . S
Zn237 O236 1.899 . S
Zn237 O238 2.032 . S
Zn237 O241 2.086 . S
Zn237 O246 1.977 . S
O238 Zn237 2.032 . S
O238 C242 1.278 . S
C239 O240 1.203 . S
C239 O246 1.267 . S
O240 C239 1.203 . S
O241 C234 1.185 . S
O241 Zn237 2.086 . S
C242 O238 1.278 . S
C242 O243 1.211 . S
O243 C242 1.211 . S
C244 O236 1.284 . S
C244 O245 1.273 . S
O245 C244 1.273 . S
O246 Zn237 1.977 . S
O246 C239 1.267 . S
C247 O248 1.160 . S
C247 O254 1.185 . S
O248 C247 1.160 . S
O249 Zn250 1.899 . S
O249 C257 1.284 . S
Zn250 O249 1.899 . S
Zn250 O251 2.032 . S
Zn250 O254 2.086 . S
Zn250 O259 1.977 . S
O251 Zn250 2.032 . S
O251 C255 1.278 . S
C252 O253 1.203 . S
C252 O259 1.267 . S
O253 C252 1.203 . S
O254 C247 1.185 . S
O254 Zn250 2.086 . S
C255 O251 1.278 . S
C255 O256 1.211 . S
O256 C255 1.211 . S
C257 O249 1.284 . S
C257 O258 1.273 . S
O258 C257 1.273 . S
O259 Zn250 1.977 . S
O259 C252 1.267 . S
C260 O261 1.160 . S
C260 O267 1.185 . S
O261 C260 1.160 . S
O262 Zn263 1.899 . S
O262 C270 1.284 . S
Zn263 O262 1.899 . S
Zn263 O264 2.032 . S
Zn263 O267 2.086 . S
Zn263 O272 1.977 . S
O264 Zn263 2.032 . S
O264 C268 1.278 . S
C265 O266 1.203 . S
C265 O272 1.267 . S
O266 C265 1.203 . S
O267 C260 1.185 . S
O267 Zn263 2.086 . S
C268 O264 1.278 . S
C268 O269 1.211 . S
O269 C268 1.211 . S
C270 O262 1.284 . S
C270 O271 1.273 . S
O271 C270 1.273 . S
O272 Zn263 1.977 . S
O272 C265 1.267 . S
C273 O274 1.160 . S
C273 O280 1.185 . S
O274 C273 1.160 . S
O275 Zn276 1.899 . S
O275 C283 1.284 . S
Zn276 O275 1.899 . S
Zn276 O277 2.032 . S
Zn276 O280 2.086 . S
Zn276 O285 1.977 . S
O277 Zn276 2.032 . S
O277 C281 1.278 . S
C278 O279 1.203 . S
C278 O285 1.267 . S
O279 C278 1.203 . S
O280 C273 1.185 . S
O280 Zn276 2.086 . S
C281 O277 1.278 . S
C281 O282 1.211 . S
O282 C281 1.211 . S
C283 O275 1.284 . S
C283 O284 1.273 . S
O284 C283 1.273 . S
O285 Zn276 1.977 . S
O285 C278 1.267 . S
C286 O287 1.160 . S
C286 O293 1.185 . S
O287 C286 1.160 . S
O288 Zn289 1.899 . S
O288 C296 1.284 . S
Zn289 O288 1.899 . S
Zn289 O290 2.032 . S
Zn289 O293 2.086 . S
Zn289 O298 1.977 . S
O290 Zn289 2.032 . S
O290 C294 1.278 . S
C291 O292 1.203 . S
C291 O298 1.267 . S
O292 C291 1.203 . S
O293 C286 1.185 . S
O293 Zn289 2.086 . S
C294 O290 1.278 . S
C294 O295 1.211 . S
O295 C294 1.211 . S
C296 O288 1.284 . S
C296 O297 1.273 . S
O297 C296 1.273 . S
O298 Zn289 1.977 . S
O298 C291 1.267 . S
C299 O300 1.160 . S
C299 O306 1.185 1_655 S
O300 C299 1.160 . S
O301 Zn302 1.899 . S
O301 C309 1.284 . S
Zn302 O301 1.899 . S
Zn302 O303 2.032 . S
Zn302 O306 2.086 1_655 S
Zn302 O311 1.977 . S
O303 Zn302 2.032 . S
O303 C307 1.278 . S
C304 O305 1.203 . S
C304 O311 1.267 . S
O305 C304 1.203 . S
O306 C299 1.185 1_455 S
O306 Zn302 2.086 1_455 S
C307 O303 1.278 . S
C307 O308 1.211 . S
O308 C307 1.211 . S
C309 O301 1.284 . S
C309 O310 1.273 . S
O310 C309 1.273 . S
O311 Zn302 1.977 . S
O311 C304 1.267 . S
C312 O313 1.160 . S
C312 O319 1.185 . S
O313 C312 1.160 . S
O314 Zn315 1.899 . S
O314 C322 1.284 . S
Zn315 O314 1.899 . S
Zn315 O316 2.032 . S
Zn315 O319 2.086 . S
Zn315 O324 1.977 . S
O316 Zn315 2.032 . S
O316 C320 1.278 . S
C317 O318 1.203 . S
C317 O324 1.267 . S
O318 C317 1.203 . S
O319 C312 1.185 . S
O319 Zn315 2.086 . S
C320 O316 1.278 . S
C320 O321 1.211 . S
O321 C320 1.211 . S
C322 O314 1.284 . S
C322 O323 1.273 . S
O323 C322 1.273 . S
O324 Zn315 1.977 . S
O324 C317 1.267 . S
C325 O326 1.160 . S
C325 O332 1.185 . S
O326 C325 1.160 . S
O327 Zn328 1.899 . S
O327 C335 1.284 . S
Zn328 O327 1.899 . S
Zn328 O329 2.032 . S
Zn328 O332 2.086 . S
Zn328 O337 1.977 . S
O329 Zn328 2.032 . S
O329 C333 1.278 . S
C330 O331 1.203 . S
C330 O337 1.267 . S
O331 C330 1.203 . S
O332 C325 1.185 . S
O332 Zn328 2.086 . S
C333 O329 1.278 . S
C333 O334 1.211 . S
O334 C333 1.211 . S
C335 O327 1.284 . S
C335 O336 1.273 . S
O336 C335 1.273 . S
O337 Zn328 1.977 . S
O337 C330 1.267 . S
C338 O339 1.160 . S
C338 O345 1.185 . S
O339 C338 1.160 . S
O340 Zn341 1.899 . S
O340 C348 1.284 . S
Zn341 O340 1.899 . S
Zn341 O342 2.032 . S
Zn341 O345 2.086 . S
Zn341 O350 1.977 . S
O342 Zn341 2.032 . S
O342 C346 1.278 . S
C343 O344 1.203 . S
C343 O350 1.267 . S
O344 C343 1.203 . S
O345 C338 1.185 . S
O345 Zn341 2.086 . S
C346 O342 1.278 . S
C346 O347 1.211 . S
O347 C346 1.211 . S
C348 O340 1.284 . S
C348 O349 1.273 . S
O349 C348 1.273 . S
O350 Zn341 1.977 . S
O350 C343 1.267 . S
C351 O352 1.160 . S
C351 O358 1.185 . S
O352 C351 1.160 . S
O353 Zn354 1.899 . S
O353 C361 1.284 . S
Zn354 O353 1.899 . S
Zn354 O355 2.032 . S
Zn354 O358 2.086 . S
Zn354 O363 1.977 . S
O355 Zn354 2.032 . S
O355 C359 1.278 . S
C356 O357 1.203 . S
C356 O363 1.267 . S
O357 C356 1.203 . S
O358 C351 1.185 . S
O358 Zn354 2.086 . S
C359 O355 1.278 . S
C359 O360 1.211 . S
O360 C359 1.211 . S
C361 O353 1.284 . S
C361 O362 1.273 . S
O362 C361 1.273 . S
O363 Zn354 1.977 . S
O363 C356 1.267 . S
C364 O365 1.160 . S
C364 O371 1.185 1_565 S
O365 C364 1.160 . S
O366 Zn367 1.899 . S
O366 C374 1.284 . S
Zn367 O366 1.899 . S
Zn367 O368 2.032 . S
Zn367 O371 2.086 1_565 S
Zn367 O376 1.977 . S
O368 Zn367 2.032 . S
O368 C372 1.278 . S
C369 O370 1.203 . S
C369 O376 1.267 . S
O370 C369 1.203 . S
O371 C364 1.185 1_545 S
O371 Zn367 2.086 1_545 S
C372 O368 1.278 . S
C372 O373 1.211 . S
O373 C372 1.211 . S
C374 O366 1.284 . S
C374 O375 1.273 . S
O375 C374 1.273 . S
O376 Zn367 1.977 . S
O376 C369 1.267 . S
C377 O378 1.160 . S
C377 O384 1.185 . S
O378 C377 1.160 . S
O379 Zn380 1.899 . S
O379 C387 1.284 . S
Zn380 O379 1.899 . S
Zn380 O381 2.032 . S
Zn380 O384 2.086 . S
Zn380 O389 1.977 . S
O381 Zn380 2.032 . S
O381 C385 1.278 . S
C382 O383 1.203 . S
C382 O389 1.267 . S
O383 C382 1.203 . S
O384 C377 1.185 . S
O384 Zn380 2.086 . S
C385 O381 1.278 . S
C385 O386 1.211 . S
O386 C385 1.211 . S
C387 O379 1.284 . S
C387 O388 1.273 . S
O388 C387 1.273 . S
O389 Zn380 1.977 . S
O389 C382 1.267 . S
C390 O391 1.160 . S
C390 O397 1.185 . S
O391 C390 1.160 . S
O392 Zn393 1.899 . S
O392 C400 1.284 . S
Zn393 O392 1.899 . S
Zn393 O394 2.032 . S
Zn393 O397 2.086 . S
Zn393 O402 1.977 . S
O394 Zn393 2.032 . S
O394 C398 1.278 . S
C395 O396 1.203 . S
C395 O402 1.267 . S
O396 C395 1.203 . S
O397 C390 1.185 . S
O397 Zn393 2.086 . S
C398 O394 1.278 . S
C398 O399 1.211 . S
O399 C398 1.211 . S
C400 O392 1.284 . S
C400 O401 1.273 . S
O401 C400 1.273 . S
O402 Zn393 1.977 . S
O402 C395 1.267 . S
C403 O404 1.160 . S
C403 O410 1.185 1_565 S
O404 C403 1.160 . S
O405 Zn406 1.899 . S
O405 C413 1.284 . S
Zn406 O405 1.899 . S
Zn406 O407 2.032 . S
Zn406 O410 2.086 1_565 S
Zn406 O415 1.977 . S
O407 Zn406 2.032 . S
O407 C411 1.278 . S
C408 O409 1.203 . S
C408 O415 1.267 . S
O409 C408 1.203 . S
O410 C403 1.185 1_545 S
O410 Zn406 2.086 1_545 S
C411 O407 1.278 . S
C411 O412 1.211 . S
O412 C411 1.211 . S
C413 O405 1.284 . S
C413 O414 1.273 . S
O414 C413 1.273 . S
O415 Zn406 1.977 . S
O415 C408 1.267 . S
C416 O417 1.160 . S
C416 O423 1.185 . S
O417 C416 1.160 . S
O418 Zn419 1.899 . S
O418 C426 1.284 . S
Zn419 O418 1.899 . S
Zn419 O420 2.032 . S
Zn419 O423 2.086 . S
Zn419 O428 1.977 . S
O420 Zn419 2.032 . S
O420 C424 1.278 . S
C421 O422 1.203 . S
C421 O428 1.267 . S
O422 C421 1.203 . S
O423 C416 1.185 . S
O423 Zn419 2.086 . S
C424 O420 1.278 . S
C424 O425 1.211 . S
O425 C424 1.211 . S
C426 O418 1.284 . S
C426 O427 1.273 . S
O427 C426 1.273 . S
O428 Zn419 1.977 . S
O428 C421 1.267 . S
C429 O430 1.160 . S
C429 O436 1.185 . S
O430 C429 1.160 . S
O431 Zn432 1.899 . S
O431 C439 1.284 . S
Zn432 O431 1.899 . S
Zn432 O433 2.032 . S
Zn432 O436 2.086 . S
Zn432 O441 1.977 . S
O433 Zn432 2.032 . S
O433 C437 1.278 . S
C434 O435 1.203 . S
C434 O441 1.267 . S
O435 C434 1.203 . S
O436 C429 1.185 . S
O436 Zn432 2.086 . S
C437 O433 1.278 . S
C437 O438 1.211 . S
O438 C437 1.211 . S
C439 O431 1.284 . S
C439 O440 1.273 . S
O440 C439 1.273 . S
O441 Zn432 1.977 . S
O441 C434 1.267 . S
C442 O443 1.160 . S
C442 O449 1.185 . S
O443 C442 1.160 . S
O444 Zn445 1.899 . S
O444 C452 1.284 . S
Zn445 O444 1.899 . S
Zn445 O446 2.032 . S
Zn445 O449 2.086 . S
Zn445 O454 1.977 . S
O446 Zn445 2.032 . S
O446 C450 1.278 . S
C447 O448 1.203 . S
C447 O454 1.267 . S
O448 C447 1.203 . S
O449 C442 1.185 . S
O449 Zn445 2.086 . S
C450 O446 1.278 . S
C450 O451 1.211 . S
O451 C450 1.211 . S
C452 O444 1.284 . S
C452 O453 1.273 . S
O453 C452 1.273 . S
O454 Zn445 1.977 . S
O454 C447 1.267 . S
C455 O456 1.160 . S
C455 O462 1.185 . S
O456 C455 1.160 . S
O457 Zn458 1.899 . S
O457 C465 1.284 . S
Zn458 O457 1.899 . S
Zn458 O459 2.032 . S
Zn458 O462 2.086 . S
Zn458 O467 1.977 . S
O459 Zn458 2.032 . S
O459 C463 1.278 . S
C460 O461 1.203 . S
C460 O467 1.267 . S
O461 C460 1.203 . S
O462 C455 1.185 . S
O462 Zn458 2.086 . S
C463 O459 1.278 . S
C463 O464 1.211 . S
O464 C463 1.211 . S
C465 O457 1.284 . S
C465 O466 1.273 . S
O466 C465 1.273 . S
O467 Zn458 1.977 . S
O467 C460 1.267 . S
C10 C153 1.184 . S
C127 C23 1.184 . S
C140 C36 1.185 . S
C49 C101 1.184 . S
C62 C114 1.185 . S
C75 C88 1.184 . S
C166 C309 1.184 . S
C283 C179 1.184 . S
C192 C296 1.185 . S
C205 C257 1.184 . S
C218 C270 1.184 . S
C231 C244 1.184 . S
C322 C465 1.184 . S
C335 C439 1.184 . S
C452 C348 1.184 . S
C361 C413 1.184 . S
C426 C374 1.185 . S
C400 C387 1.184 . S
C0 C195 1.315 1_455 S
C13 C208 1.316 . S
C26 C221 1.316 . S
C39 C312 1.315 1_545 S
C325 C52 1.316 . S
C338 C65 1.316 . S
C78 C429 1.315 . S
C442 C91 1.315 . S
C104 C455 1.316 1_545 S
C117 C234 1.315 . S
C130 C247 1.316 1_455 S
C143 C260 1.315 . S
C351 C156 1.315 . S
C169 C364 1.315 1_545 S
C182 C377 1.315 1_655 S
C390 C273 1.316 . S
C403 C286 1.315 1_565 S
C299 C416 1.315 1_655 S
C5 C57 1.508 1_554 S
C70 C18 1.508 1_556 S
C44 C31 1.508 1_556 S
C83 C135 1.508 1_556 S
C148 C96 1.508 1_554 S
C109 C122 1.508 1_556 S
C213 C161 1.508 . S
C174 C226 1.508 . S
C187 C200 1.508 . S
C291 C239 1.508 . S
C304 C252 1.508 . S
C278 C265 1.508 . S
C317 C369 1.508 . S
C330 C382 1.508 . S
C343 C356 1.508 . S
C447 C395 1.508 . S
C460 C408 1.508 . S
C434 C421 1.508 . S
C125 C8 1.309 . S
C138 C21 1.309 . S
C34 C151 1.309 . S
C47 C86 1.309 . S
C99 C60 1.309 . S
C73 C112 1.309 . S
C281 C164 1.309 . S
C294 C177 1.309 . S
C190 C307 1.309 . S
C242 C203 1.309 . S
C255 C216 1.309 . S
C268 C229 1.309 . S
C320 C437 1.309 . S
C450 C333 1.309 . S
C346 C463 1.309 . S
C359 C398 1.309 . S
C372 C411 1.309 . S
C424 C385 1.309 . S
