# Generated by pormake.
# Topology lcy-a-x, (5)-cn, num edge types: 1
# Building blocks:
#     Node 0, Type 0, BuildingBlock: BEQFEK_clean_sbu_0, # of connection points: 5
#     Node 1, Type 0, BuildingBlock: BEQFEK_clean_sbu_0, # of connection points: 5
#     Node 2, Type 0, BuildingBlock: BEQFEK_clean_sbu_0, # of connection points: 5
#     Node 3, Type 0, BuildingBlock: BEQFEK_clean_sbu_0, # of connection points: 5
#     Node 4, Type 0, BuildingBlock: BEQFEK_clean_sbu_0, # of connection points: 5
#     Node 5, Type 0, BuildingBlock: BEQFEK_clean_sbu_0, # of connection points: 5
#     Node 6, Type 0, BuildingBlock: BEQFEK_clean_sbu_0, # of connection points: 5
#     Node 7, Type 0, BuildingBlock: BEQFEK_clean_sbu_0, # of connection points: 5
#     Node 8, Type 0, BuildingBlock: BEQFEK_clean_sbu_0, # of connection points: 5
#     Node 9, Type 0, BuildingBlock: BEQFEK_clean_sbu_0, # of connection points: 5
#     Node 10, Type 0, BuildingBlock: BEQFEK_clean_sbu_0, # of connection points: 5
#     Node 11, Type 0, BuildingBlock: BEQFEK_clean_sbu_0, # of connection points: 5
#     Node 12, Type 0, BuildingBlock: BEQFEK_clean_sbu_0, # of connection points: 5
#     Node 13, Type 0, BuildingBlock: BEQFEK_clean_sbu_0, # of connection points: 5
#     Node 14, Type 0, BuildingBlock: BEQFEK_clean_sbu_0, # of connection points: 5
#     Node 15, Type 0, BuildingBlock: BEQFEK_clean_sbu_0, # of connection points: 5
#     Node 16, Type 0, BuildingBlock: BEQFEK_clean_sbu_0, # of connection points: 5
#     Node 17, Type 0, BuildingBlock: BEQFEK_clean_sbu_0, # of connection points: 5
#     Node 18, Type 0, BuildingBlock: BEQFEK_clean_sbu_0, # of connection points: 5
#     Node 19, Type 0, BuildingBlock: BEQFEK_clean_sbu_0, # of connection points: 5
#     Node 20, Type 0, BuildingBlock: BEQFEK_clean_sbu_0, # of connection points: 5
#     Node 21, Type 0, BuildingBlock: BEQFEK_clean_sbu_0, # of connection points: 5
#     Node 22, Type 0, BuildingBlock: BEQFEK_clean_sbu_0, # of connection points: 5
#     Node 23, Type 0, BuildingBlock: BEQFEK_clean_sbu_0, # of connection points: 5
#     Edge 24, Type (0, 0), BuildingBlock: CIFDUS_clean_linker_0, # of connection points: 2
#     Edge 25, Type (0, 0), BuildingBlock: CIFDUS_clean_linker_0, # of connection points: 2
#     Edge 26, Type (0, 0), BuildingBlock: CIFDUS_clean_linker_0, # of connection points: 2
#     Edge 27, Type (0, 0), BuildingBlock: CIFDUS_clean_linker_0, # of connection points: 2
#     Edge 28, Type (0, 0), BuildingBlock: CIFDUS_clean_linker_0, # of connection points: 2
#     Edge 29, Type (0, 0), BuildingBlock: CIFDUS_clean_linker_0, # of connection points: 2
#     Edge 30, Type (0, 0), BuildingBlock: CIFDUS_clean_linker_0, # of connection points: 2
#     Edge 31, Type (0, 0), BuildingBlock: CIFDUS_clean_linker_0, # of connection points: 2
#     Edge 32, Type (0, 0), BuildingBlock: CIFDUS_clean_linker_0, # of connection points: 2
#     Edge 33, Type (0, 0), BuildingBlock: CIFDUS_clean_linker_0, # of connection points: 2
#     Edge 34, Type (0, 0), BuildingBlock: CIFDUS_clean_linker_0, # of connection points: 2
#     Edge 35, Type (0, 0), BuildingBlock: CIFDUS_clean_linker_0, # of connection points: 2
#     Edge 36, Type (0, 0), BuildingBlock: CIFDUS_clean_linker_0, # of connection points: 2
#     Edge 37, Type (0, 0), BuildingBlock: CIFDUS_clean_linker_0, # of connection points: 2
#     Edge 38, Type (0, 0), BuildingBlock: CIFDUS_clean_linker_0, # of connection points: 2
#     Edge 39, Type (0, 0), BuildingBlock: CIFDUS_clean_linker_0, # of connection points: 2
#     Edge 40, Type (0, 0), BuildingBlock: CIFDUS_clean_linker_0, # of connection points: 2
#     Edge 41, Type (0, 0), BuildingBlock: CIFDUS_clean_linker_0, # of connection points: 2
#     Edge 42, Type (0, 0), BuildingBlock: CIFDUS_clean_linker_0, # of connection points: 2
#     Edge 43, Type (0, 0), BuildingBlock: CIFDUS_clean_linker_0, # of connection points: 2
#     Edge 44, Type (0, 0), BuildingBlock: CIFDUS_clean_linker_0, # of connection points: 2
#     Edge 45, Type (0, 0), BuildingBlock: CIFDUS_clean_linker_0, # of connection points: 2
#     Edge 46, Type (0, 0), BuildingBlock: CIFDUS_clean_linker_0, # of connection points: 2
#     Edge 47, Type (0, 0), BuildingBlock: CIFDUS_clean_linker_0, # of connection points: 2
#     Edge 48, Type (0, 0), BuildingBlock: CIFDUS_clean_linker_0, # of connection points: 2
#     Edge 49, Type (0, 0), BuildingBlock: CIFDUS_clean_linker_0, # of connection points: 2
#     Edge 50, Type (0, 0), BuildingBlock: CIFDUS_clean_linker_0, # of connection points: 2
#     Edge 51, Type (0, 0), BuildingBlock: CIFDUS_clean_linker_0, # of connection points: 2
#     Edge 52, Type (0, 0), BuildingBlock: CIFDUS_clean_linker_0, # of connection points: 2
#     Edge 53, Type (0, 0), BuildingBlock: CIFDUS_clean_linker_0, # of connection points: 2
#     Edge 54, Type (0, 0), BuildingBlock: CIFDUS_clean_linker_0, # of connection points: 2
#     Edge 55, Type (0, 0), BuildingBlock: CIFDUS_clean_linker_0, # of connection points: 2
#     Edge 56, Type (0, 0), BuildingBlock: CIFDUS_clean_linker_0, # of connection points: 2
#     Edge 57, Type (0, 0), BuildingBlock: CIFDUS_clean_linker_0, # of connection points: 2
#     Edge 58, Type (0, 0), BuildingBlock: CIFDUS_clean_linker_0, # of connection points: 2
#     Edge 59, Type (0, 0), BuildingBlock: CIFDUS_clean_linker_0, # of connection points: 2
#     Edge 60, Type (0, 0), BuildingBlock: CIFDUS_clean_linker_0, # of connection points: 2
#     Edge 61, Type (0, 0), BuildingBlock: CIFDUS_clean_linker_0, # of connection points: 2
#     Edge 62, Type (0, 0), BuildingBlock: CIFDUS_clean_linker_0, # of connection points: 2
#     Edge 63, Type (0, 0), BuildingBlock: CIFDUS_clean_linker_0, # of connection points: 2
#     Edge 64, Type (0, 0), BuildingBlock: CIFDUS_clean_linker_0, # of connection points: 2
#     Edge 65, Type (0, 0), BuildingBlock: CIFDUS_clean_linker_0, # of connection points: 2
#     Edge 66, Type (0, 0), BuildingBlock: CIFDUS_clean_linker_0, # of connection points: 2
#     Edge 67, Type (0, 0), BuildingBlock: CIFDUS_clean_linker_0, # of connection points: 2
#     Edge 68, Type (0, 0), BuildingBlock: CIFDUS_clean_linker_0, # of connection points: 2
#     Edge 69, Type (0, 0), BuildingBlock: CIFDUS_clean_linker_0, # of connection points: 2
#     Edge 70, Type (0, 0), BuildingBlock: CIFDUS_clean_linker_0, # of connection points: 2
#     Edge 71, Type (0, 0), BuildingBlock: CIFDUS_clean_linker_0, # of connection points: 2
#     Edge 72, Type (0, 0), BuildingBlock: CIFDUS_clean_linker_0, # of connection points: 2
#     Edge 73, Type (0, 0), BuildingBlock: CIFDUS_clean_linker_0, # of connection points: 2
#     Edge 74, Type (0, 0), BuildingBlock: CIFDUS_clean_linker_0, # of connection points: 2
#     Edge 75, Type (0, 0), BuildingBlock: CIFDUS_clean_linker_0, # of connection points: 2
#     Edge 76, Type (0, 0), BuildingBlock: CIFDUS_clean_linker_0, # of connection points: 2
#     Edge 77, Type (0, 0), BuildingBlock: CIFDUS_clean_linker_0, # of connection points: 2
#     Edge 78, Type (0, 0), BuildingBlock: CIFDUS_clean_linker_0, # of connection points: 2
#     Edge 79, Type (0, 0), BuildingBlock: CIFDUS_clean_linker_0, # of connection points: 2
#     Edge 80, Type (0, 0), BuildingBlock: CIFDUS_clean_linker_0, # of connection points: 2
#     Edge 81, Type (0, 0), BuildingBlock: CIFDUS_clean_linker_0, # of connection points: 2
#     Edge 82, Type (0, 0), BuildingBlock: CIFDUS_clean_linker_0, # of connection points: 2
#     Edge 83, Type (0, 0), BuildingBlock: CIFDUS_clean_linker_0, # of connection points: 2
# Relax obj value: 1.271
# Max RMSD: 0.178
# Mean RMSD: 0.178
data_MOF--net-lcy-a-x--node1-BEQFEK_clean_sbu_0--edge1-CIFDUS_clean_linker_0
_symmetry_space_group_name_H-M    P1
_symmetry_Int_Tables_number       1
_symmetry_cell_setting            triclinic
loop_
_symmetry_equiv_pos_as_xyz
'x, y, z'
_cell_length_a     46.773157
_cell_length_b     46.887303
_cell_length_c     46.717632
_cell_angle_alpha  90.013009
_cell_angle_beta   89.937999
_cell_angle_gamma 90.052244
loop_
_atom_site_label
_atom_site_type_symbol
_atom_site_fract_x
_atom_site_fract_y
_atom_site_fract_z
_atom_type_partial_charge
Co0 Co 0.03317 0.01328 0.79915 0.0
Co1 Co 0.0793 0.04827 0.76462 0.0
C2 C 0.03211 0.0191 0.73443 0.0
O3 O 0.02261 0.00896 0.7578 0.0
O4 O 0.05344 0.03575 0.73422 0.0
C5 C 0.97775 0.0212 0.81044 0.0
O6 O 0.98569 0.04106 0.79226 0.0
C7 C 0.09766 0.09148 0.72566 0.0
C8 C 0.14449 0.09397 0.73094 0.0
C9 C 0.12184 0.10468 0.71517 0.0
N10 N 0.10538 0.07341 0.74644 0.0
N11 N 0.13343 0.075 0.74971 0.0
C12 C 0.06735 0.09715 0.71702 0.0
H13 H 0.06241 0.08505 0.6973 0.0
H14 H 0.05226 0.09051 0.73411 0.0
H15 H 0.06434 0.12015 0.71229 0.0
C16 C 0.03456 0.06666 0.83349 0.0
N17 N 0.04295 0.05104 0.81077 0.0
N18 N 0.06057 0.06638 0.79517 0.0
C19 C 0.06315 0.09254 0.80682 0.0
C20 C 0.04658 0.09359 0.83152 0.0
C21 C 0.0174 0.05547 0.8581 0.0
H22 H 0.0199 0.03203 0.85997 0.0
H23 H 0.99457 0.06057 0.85489 0.0
H24 H 0.02427 0.06583 0.87834 0.0
O25 O 0.06743 0.9889 0.80494 0.0
O26 O 0.09887 0.01392 0.77877 0.0
H27 H 0.10255 0.10974 0.79108 0.0
H28 H 0.07909 0.13633 0.80596 0.0
C29 C 0.07992 0.11634 0.79346 0.0
H30 H 0.07127 0.12089 0.77192 0.0
H31 H 0.14504 0.0628 0.76432 0.0
O32 O 0.99627 0.00307 0.81882 0.0
C33 C 0.09244 0.99237 0.79421 0.0
Co34 Co 0.33145 0.682 0.01583 0.0
Co35 Co 0.3263 0.70602 0.95348 0.0
C36 C 0.37234 0.66462 0.97136 0.0
O37 O 0.3639 0.66117 0.99701 0.0
O38 O 0.35914 0.68087 0.95419 0.0
C39 C 0.33472 0.64229 0.06376 0.0
O40 O 0.35421 0.62915 0.04839 0.0
C41 C 0.30868 0.70308 0.89317 0.0
C42 C 0.32272 0.7454 0.8779 0.0
C43 C 0.30867 0.72081 0.86941 0.0
N44 N 0.32159 0.71689 0.91478 0.0
N45 N 0.33055 0.74188 0.90531 0.0
C46 C 0.2978 0.6731 0.89498 0.0
H47 H 0.30986 0.66107 0.91149 0.0
H48 H 0.27495 0.6731 0.90117 0.0
H49 H 0.29974 0.66234 0.87388 0.0
C50 C 0.27009 0.67158 0.00544 0.0
N51 N 0.29631 0.67734 0.99498 0.0
N52 N 0.29346 0.68978 0.96987 0.0
C53 C 0.26545 0.69406 0.96458 0.0
C54 C 0.2497 0.68247 0.98692 0.0
C55 C 0.26447 0.65907 0.03433 0.0
H56 H 0.26959 0.67512 0.05099 0.0
H57 H 0.27823 0.64009 0.03742 0.0
H58 H 0.24176 0.65257 0.03667 0.0
O59 O 0.33973 0.72441 0.01945 0.0
O60 O 0.33475 0.73989 0.97477 0.0
H61 H 0.27178 0.72852 0.93443 0.0
H62 H 0.23842 0.7296 0.95351 0.0
C63 C 0.25433 0.71528 0.9433 0.0
H64 H 0.24325 0.70384 0.92574 0.0
H65 H 0.34119 0.75692 0.91785 0.0
O66 O 0.32481 0.66593 0.05481 0.0
C67 C 0.33952 0.74465 0.00104 0.0
Co68 Co 0.53361 0.06698 0.31021 0.0
Co69 Co 0.49231 0.03432 0.26927 0.0
C70 C 0.55222 0.05239 0.25327 0.0
O71 O 0.56006 0.05685 0.27883 0.0
O72 O 0.52673 0.04524 0.24756 0.0
C73 C 0.58171 0.06867 0.34316 0.0
O74 O 0.5802 0.04193 0.33494 0.0
C75 C 0.4857 0.98928 0.22767 0.0
C76 C 0.439 0.98461 0.22276 0.0
C77 C 0.46498 0.97441 0.21283 0.0
N78 N 0.47278 0.00761 0.24555 0.0
N79 N 0.4448 0.00474 0.24259 0.0
C80 C 0.51739 0.98523 0.22576 0.0
H81 H 0.52631 0.00061 0.21006 0.0
H82 H 0.52742 0.98926 0.2469 0.0
H83 H 0.52268 0.96331 0.21851 0.0
C84 C 0.51653 0.01894 0.34925 0.0
N85 N 0.51452 0.03411 0.32478 0.0
N86 N 0.49917 0.01947 0.30635 0.0
C87 C 0.49166 0.99439 0.31811 0.0
C88 C 0.50283 0.99285 0.34568 0.0
C89 C 0.5316 0.02864 0.37579 0.0
H90 H 0.53321 0.05223 0.37628 0.0
H91 H 0.5533 0.01923 0.37673 0.0
H92 H 0.5198 0.02109 0.39499 0.0
O93 O 0.50723 0.09464 0.29108 0.0
O94 O 0.47139 0.07011 0.27145 0.0
H95 H 0.47326 0.95166 0.3143 0.0
H96 H 0.4918 0.96474 0.28331 0.0
C97 C 0.47773 0.97088 0.30139 0.0
H98 H 0.45721 0.97867 0.29257 0.0
H99 H 0.42971 0.01669 0.25387 0.0
O100 O 0.56094 0.08517 0.33726 0.0
C101 C 0.48386 0.09363 0.2769 0.0
Co102 Co 0.31111 0.1892 0.49304 0.0
Co103 Co 0.32558 0.15586 0.4374 0.0
C104 C 0.29081 0.20844 0.43477 0.0
O105 O 0.28923 0.20954 0.462 0.0
O106 O 0.30642 0.18998 0.42245 0.0
C107 C 0.28207 0.22174 0.53404 0.0
O108 O 0.26063 0.21543 0.51707 0.0
C109 C 0.35396 0.15414 0.38352 0.0
C110 C 0.35636 0.10886 0.37097 0.0
C111 C 0.36352 0.13621 0.36226 0.0
N112 N 0.34141 0.13853 0.40403 0.0
N113 N 0.34287 0.11135 0.39652 0.0
C114 C 0.35835 0.18579 0.38497 0.0
H115 H 0.35895 0.19317 0.40751 0.0
H116 H 0.37856 0.19198 0.37413 0.0
H117 H 0.34047 0.19657 0.37378 0.0
C118 C 0.37337 0.19418 0.49643 0.0
N119 N 0.34931 0.18511 0.48371 0.0
N120 N 0.35565 0.1675 0.46274 0.0
C121 C 0.38431 0.16474 0.46152 0.0
C122 C 0.39643 0.18151 0.48281 0.0
C123 C 0.374 0.21608 0.51975 0.0
H124 H 0.35679 0.23198 0.51633 0.0
H125 H 0.39489 0.22725 0.52068 0.0
H126 H 0.37009 0.2054 0.54059 0.0
O127 O 0.29927 0.14966 0.49883 0.0
O128 O 0.2915 0.13596 0.45474 0.0
H129 H 0.4215 0.14092 0.44847 0.0
H130 H 0.40301 0.15905 0.42014 0.0
C131 C 0.40006 0.14681 0.44022 0.0
H132 H 0.38774 0.12718 0.43544 0.0
H133 H 0.33482 0.09456 0.40879 0.0
O134 O 0.30653 0.21132 0.52862 0.0
C135 C 0.28298 0.13814 0.4806 0.0
Co136 Co 0.40685 0.5759 0.30866 0.0
Co137 Co 0.45379 0.55756 0.35213 0.0
C138 C 0.40163 0.58345 0.37352 0.0
O139 O 0.39082 0.58458 0.34846 0.0
O140 O 0.42635 0.57345 0.37773 0.0
C141 C 0.34928 0.58553 0.28908 0.0
O142 O 0.34702 0.60044 0.31277 0.0
C143 C 0.48313 0.52894 0.39823 0.0
C144 C 0.52632 0.52361 0.37979 0.0
C145 C 0.50932 0.51621 0.40294 0.0
N146 N 0.48445 0.54279 0.37319 0.0
N147 N 0.51057 0.54044 0.36271 0.0
C148 C 0.45612 0.52453 0.41501 0.0
H149 H 0.45463 0.54129 0.43171 0.0
H150 H 0.43712 0.52627 0.40097 0.0
H151 H 0.45591 0.50343 0.42574 0.0
C152 C 0.42249 0.51805 0.28599 0.0
N153 N 0.42287 0.53848 0.30637 0.0
N154 N 0.43829 0.52953 0.32795 0.0
C155 C 0.44628 0.5024 0.32334 0.0
C156 C 0.43755 0.49417 0.29595 0.0
C157 C 0.41093 0.52305 0.25656 0.0
H158 H 0.40966 0.54623 0.25202 0.0
H159 H 0.38909 0.5139 0.25507 0.0
H160 H 0.42475 0.51285 0.24019 0.0
O161 O 0.43726 0.60424 0.29882 0.0
O162 O 0.46955 0.58843 0.32982 0.0
H163 H 0.48295 0.4873 0.34626 0.0
H164 H 0.45452 0.46125 0.34274 0.0
C165 C 0.45946 0.48414 0.34609 0.0
H166 H 0.45086 0.49021 0.36725 0.0
H167 H 0.51695 0.54851 0.34288 0.0
O168 O 0.37368 0.57591 0.28185 0.0
C169 C 0.46208 0.60552 0.31019 0.0
Co170 Co 0.77947 0.26946 0.54043 0.0
Co171 Co 0.79711 0.31523 0.58601 0.0
C172 C 0.75381 0.26858 0.59804 0.0
O173 O 0.75669 0.2563 0.57396 0.0
O174 O 0.76778 0.29103 0.60387 0.0
C175 C 0.75933 0.21893 0.51149 0.0
O176 O 0.73946 0.21893 0.53138 0.0
C177 C 0.82609 0.32105 0.63881 0.0
C178 C 0.82917 0.36739 0.64672 0.0
C179 C 0.83661 0.34096 0.65771 0.0
N180 N 0.81334 0.33481 0.61723 0.0
N181 N 0.81489 0.36255 0.62207 0.0
C182 C 0.8276 0.2892 0.64155 0.0
H183 H 0.81565 0.27845 0.6242 0.0
H184 H 0.85012 0.28196 0.64054 0.0
H185 H 0.8189 0.28263 0.66265 0.0
C186 C 0.84215 0.26174 0.53862 0.0
N187 N 0.81843 0.27362 0.54978 0.0
N188 N 0.82588 0.29429 0.56725 0.0
C189 C 0.85454 0.297 0.56701 0.0
C190 C 0.86572 0.27629 0.54909 0.0
C191 C 0.842 0.2387 0.51644 0.0
H192 H 0.83173 0.24691 0.4967 0.0
H193 H 0.82914 0.22039 0.52427 0.0
H194 H 0.86391 0.2314 0.51111 0.0
O195 O 0.76491 0.30722 0.52707 0.0
O196 O 0.77848 0.34024 0.55881 0.0
H197 H 0.85817 0.33942 0.58416 0.0
H198 H 0.8917 0.3242 0.57299 0.0
C199 C 0.87079 0.31947 0.58303 0.0
H200 H 0.8751 0.31182 0.60501 0.0
H201 H 0.80659 0.37812 0.60844 0.0
O202 O 0.77671 0.23976 0.51015 0.0
C203 C 0.76613 0.33316 0.5356 0.0
Co204 Co 0.02436 0.54067 0.7532 0.0
Co205 Co 0.98413 0.57403 0.79512 0.0
C206 C 0.0377 0.54731 0.81612 0.0
O207 O 0.04325 0.53752 0.79138 0.0
O208 O 0.01593 0.56285 0.82027 0.0
C209 C 0.07285 0.5114 0.73644 0.0
O210 O 0.06537 0.49452 0.75762 0.0
C211 C 0.97199 0.61751 0.83667 0.0
C212 C 0.92798 0.60751 0.85052 0.0
C213 C 0.95149 0.62438 0.85693 0.0
N214 N 0.96118 0.59759 0.81907 0.0
N215 N 0.93464 0.59204 0.82709 0.0
C216 C 0.00287 0.62606 0.83695 0.0
H217 H 0.0129 0.61903 0.85727 0.0
H218 H 0.0145 0.61674 0.8185 0.0
H219 H 0.0048 0.64958 0.83573 0.0
C220 C 0.02143 0.59435 0.72161 0.0
N221 N 0.01336 0.57806 0.74383 0.0
N222 N -0.00288 0.59302 0.76122 0.0
C223 C 0.99492 0.61982 0.75073 0.0
C224 C 0.01064 0.62164 0.72534 0.0
C225 C 0.03971 0.58394 0.69743 0.0
H226 H 0.03172 0.56294 0.68995 0.0
H227 H 0.06198 0.58112 0.70509 0.0
H228 H 0.03958 0.59911 0.6792 0.0
O229 O 0.99116 0.51584 0.75395 0.0
O230 O 0.96381 0.53749 0.78653 0.0
H231 H 0.96268 0.63597 0.77924 0.0
H232 H 0.97301 0.66047 0.75158 0.0
C233 C 0.98093 0.6439 0.76642 0.0
H234 H -0.00324 0.65396 0.78091 0.0
H235 H 0.92192 0.57614 0.81803 0.0
O236 O 0.05413 0.52801 0.72611 0.0
C237 C 0.96896 0.5166 0.76974 0.0
Co238 Co 0.78318 0.83609 0.00463 0.0
Co239 Co 0.7569 0.78803 0.04353 0.0
C240 C 0.76623 0.84745 0.065 0.0
O241 O 0.77533 0.85633 0.04101 0.0
O242 O 0.75832 0.8218 0.06818 0.0
C243 C 0.77545 0.88694 0.97732 0.0
O244 O 0.75052 0.88232 0.98944 0.0
C245 C 0.71184 0.76847 0.08022 0.0
C246 C 0.72834 0.72794 0.09755 0.0
C247 C 0.70627 0.74749 0.10022 0.0
N248 N 0.7359 0.76164 0.06612 0.0
N249 N 0.74547 0.7371 0.07619 0.0
C250 C 0.69714 0.79674 0.07775 0.0
H251 H 0.70544 0.80903 0.05925 0.0
H252 H 0.67381 0.79356 0.07506 0.0
H253 H 0.70044 0.80909 0.09774 0.0
C254 C 0.73493 0.81795 0.96716 0.0
N255 N 0.75138 0.81479 0.9906 0.0
N256 N 0.73966 0.79546 0.00733 0.0
C257 C 0.71509 0.78641 0.99526 0.0
C258 C 0.71037 0.80145 0.96999 0.0
C259 C 0.74245 0.83603 0.94179 0.0
H260 H 0.76598 0.83813 0.93982 0.0
H261 H 0.73292 0.85754 0.94387 0.0
H262 H 0.73367 0.82632 0.92198 0.0
O263 O 0.81553 0.81129 0.01374 0.0
O264 O 0.79715 0.77585 0.03986 0.0
H265 H 0.70652 0.75078 0.02303 0.0
H266 H 0.68364 0.75283 0.99273 0.0
C267 C 0.69487 0.76575 0.00903 0.0
H268 H 0.67864 0.77759 0.02161 0.0
H269 H 0.76473 0.72772 0.06998 0.0
O270 O 0.79466 0.86792 0.9792 0.0
C271 C 0.81838 0.78852 0.02838 0.0
Co272 Co 0.73193 0.08165 0.01473 0.0
Co273 Co 0.68147 0.10262 0.0536 0.0
C274 C 0.68041 0.04501 0.03081 0.0
O275 O 0.70295 0.04962 0.01625 0.0
O276 O 0.67068 0.06346 0.04796 0.0
C277 C 0.77643 0.04328 0.01236 0.0
O278 O 0.76817 0.04096 0.03914 0.0
C279 C 0.63752 0.10404 0.09809 0.0
C280 C 0.63741 0.14917 0.11158 0.0
C281 C 0.62596 0.12267 0.11778 0.0
N282 N 0.65547 0.11863 0.08097 0.0
N283 N 0.65498 0.14571 0.08889 0.0
C284 C 0.63248 0.0725 0.09665 0.0
H285 H 0.62426 0.06685 0.07513 0.0
H286 H 0.65292 0.06105 0.10019 0.0
H287 H 0.61667 0.06528 0.11282 0.0
C288 C 0.76563 0.10277 0.06465 0.0
N289 N 0.74083 0.09846 0.05063 0.0
N290 N 0.71944 0.10391 0.06793 0.0
C291 C 0.72969 0.10864 0.0944 0.0
C292 C 0.75964 0.1088 0.09336 0.0
C293 C 0.79418 0.10317 0.05006 0.0
H294 H 0.79159 0.109 0.02718 0.0
H295 H 0.80411 0.08175 0.05096 0.0
H296 H 0.80871 0.1186 0.0607 0.0
O297 O 0.71527 0.11003 0.98996 0.0
O298 O 0.67608 0.12106 0.01489 0.0
H299 H 0.70467 0.12885 0.12711 0.0
H300 H 0.722 0.09625 0.13851 0.0
C301 C 0.71104 0.10703 0.1205 0.0
H302 H 0.69162 0.09447 0.11584 0.0
H303 H 0.66759 0.16163 0.07962 0.0
O304 O 0.76518 0.06249 0.99686 0.0
C305 C 0.6913 0.12264 0.99222 0.0
Co306 Co 0.21223 0.42703 0.25212 0.0
Co307 Co 0.1942 0.36424 0.26943 0.0
C308 C 0.24652 0.37749 0.23385 0.0
O309 O 0.24373 0.4043 0.23621 0.0
O310 O 0.22895 0.36041 0.24554 0.0
C311 C 0.24016 0.47465 0.22658 0.0
O312 O 0.24391 0.45636 0.20559 0.0
C313 C 0.21205 0.31406 0.29976 0.0
C314 C 0.17209 0.2925 0.31256 0.0
C315 C 0.20155 0.29148 0.31556 0.0
N316 N 0.18997 0.32805 0.28793 0.0
N317 N 0.16607 0.3148 0.29525 0.0
C318 C 0.24235 0.32441 0.29891 0.0
H319 H 0.24286 0.34808 0.29909 0.0
H320 H 0.25486 0.31614 0.31729 0.0
H321 H 0.25251 0.31693 0.2788 0.0
C322 C 0.20795 0.4352 0.3144 0.0
N323 N 0.2059 0.41875 0.29088 0.0
N324 N 0.19721 0.39309 0.29823 0.0
C325 C 0.19288 0.39265 0.32682 0.0
C326 C 0.19959 0.41925 0.33793 0.0
C327 C 0.21752 0.46566 0.31413 0.0
H328 H 0.20344 0.4781 0.29969 0.0
H329 H 0.23959 0.46691 0.30549 0.0
H330 H 0.2169 0.47527 0.33583 0.0
O331 O 0.17789 0.41749 0.22922 0.0
O332 O 0.16404 0.37324 0.24088 0.0
H333 H 0.16518 0.35686 0.33312 0.0
H334 H 0.17831 0.37225 0.36593 0.0
C335 C 0.18392 0.36691 0.34352 0.0
H336 H 0.20176 0.3514 0.34397 0.0
H337 H 0.14564 0.32181 0.28968 0.0
O338 O 0.22471 0.46739 0.2478 0.0
C339 C 0.16125 0.39606 0.22618 0.0
Co340 Co 0.84671 0.02198 0.51319 0.0
Co341 Co 0.89484 0.98227 0.53807 0.0
C342 C 0.9056 0.04281 0.5172 0.0
O343 O 0.87939 0.04792 0.51244 0.0
O344 O 0.91384 0.01858 0.5263 0.0
C345 C 0.81545 0.06449 0.4837 0.0
O346 O 0.839 0.06544 0.46836 0.0
C347 C 0.93676 0.97677 0.58216 0.0
C348 C 0.9447 0.9305 0.5859 0.0
C349 C 0.95141 0.95666 0.59808 0.0
N350 N 0.9221 0.9633 0.56153 0.0
N351 N 0.92722 0.93564 0.56349 0.0
C352 C 0.93313 0.00782 0.58899 0.0
H353 H 0.95014 0.02018 0.57799 0.0
H354 H 0.91208 0.01558 0.58141 0.0
H355 H 0.93478 0.01173 0.61236 0.0
C356 C 0.82346 0.01417 0.57086 0.0
N357 N 0.84209 0.00714 0.55008 0.0
N358 N 0.86104 0.98908 0.56016 0.0
C359 C 0.85423 0.98311 0.5876 0.0
C360 C 0.83054 -0.00084 0.59546 0.0
C361 C 0.80246 0.03814 0.56814 0.0
H362 H 0.78433 0.03106 0.55459 0.0
H363 H 0.81282 0.05653 0.55736 0.0
H364 H 0.79412 0.04526 0.58916 0.0
O365 O 0.85429 0.99177 0.48469 0.0
O366 O 0.887 0.96169 0.50201 0.0
H367 H 0.87828 0.94463 0.59375 0.0
H368 H 0.85612 0.95473 0.6238 0.0
C369 C 0.87019 0.96286 0.60647 0.0
H370 H 0.88845 0.97402 0.61658 0.0
H371 H 0.91772 0.92021 0.55048 0.0
O372 O 0.81299 0.04532 0.50279 0.0
C373 C 0.87 0.96966 0.48229 0.0
Co374 Co 0.27477 0.6022 0.78548 0.0
Co375 Co 0.34139 0.60371 0.79292 0.0
C376 C 0.30926 0.64818 0.7589 0.0
O377 O 0.28551 0.63578 0.76356 0.0
O378 O 0.33267 0.6392 0.76971 0.0
C379 C 0.22192 0.5883 0.76164 0.0
O380 O 0.23737 0.58941 0.73816 0.0
C381 C 0.39191 0.62399 0.82236 0.0
C382 C 0.42009 0.58629 0.82151 0.0
C383 C 0.41716 0.61313 0.83362 0.0
N384 N 0.38041 0.60444 0.80488 0.0
N385 N 0.39788 0.58234 0.80357 0.0
C386 C 0.37623 0.65012 0.83217 0.0
H387 H 0.38826 0.66934 0.82526 0.0
H388 H 0.35438 0.65087 0.82297 0.0
H389 H 0.37486 0.6507 0.85588 0.0
C390 C 0.27576 0.59922 0.84757 0.0
N391 N 0.28941 0.60306 0.82258 0.0
N392 N 0.31715 0.60042 0.82629 0.0
C393 C 0.32181 0.59344 0.854 0.0
C394 C 0.29578 0.59289 0.86839 0.0
C395 C 0.24394 0.59691 0.85024 0.0
H396 H 0.23689 0.57623 0.84109 0.0
H397 H 0.23365 0.61433 0.83793 0.0
H398 H 0.23688 0.59804 0.87287 0.0
O399 O 0.28922 0.56912 0.76528 0.0
O400 O 0.33647 0.57012 0.76737 0.0
H401 H 0.3624 0.5725 0.84977 0.0
H402 H 0.34743 0.57115 0.88545 0.0
C403 C 0.35003 0.58448 0.86602 0.0
H404 H 0.36213 0.60376 0.8723 0.0
H405 H 0.3933 0.56346 0.79263 0.0
O406 O 0.23319 0.59575 0.78524 0.0
C407 C 0.31333 0.55869 0.75873 0.0
Co408 Co 0.19463 0.49218 0.06785 0.0
Co409 Co 0.15685 0.46494 0.01879 0.0
C410 C 0.13889 0.51675 0.05404 0.0
O411 O 0.16196 0.5187 0.06833 0.0
O412 O 0.1354 0.49728 0.03542 0.0
C413 C 0.22475 0.52985 0.10715 0.0
O414 O 0.2 0.54278 0.11 0.0
C415 C 0.12833 0.47643 0.9653 0.0
C416 C 0.11778 0.43396 0.94789 0.0
C417 C 0.11601 0.46293 0.94192 0.0
N418 N 0.13687 0.45649 0.98412 0.0
N419 N 0.13034 0.4311 0.97372 0.0
C420 C 0.13471 0.50759 0.96862 0.0
H421 H 0.15302 0.51089 0.98331 0.0
H422 H 0.13963 0.51742 0.94757 0.0
H423 H 0.11579 0.51846 0.97785 0.0
C424 C 0.23388 0.4999 0.01909 0.0
N425 N 0.20983 0.48886 0.03047 0.0
N426 N 0.19519 0.47593 0.01026 0.0
C427 C 0.21004 0.47768 0.98547 0.0
C428 C 0.23479 0.4934 0.99019 0.0
C429 C 0.255 0.51752 0.03538 0.0
H430 H 0.26439 0.50421 0.05255 0.0
H431 H 0.24392 0.53589 0.04543 0.0
H432 H 0.27262 0.52536 0.02155 0.0
O433 O 0.18006 0.45525 0.08205 0.0
O434 O 0.15463 0.43378 0.04775 0.0
H435 H 0.18603 0.44789 0.96007 0.0
H436 H 0.2176 0.46149 0.94287 0.0
C437 C 0.19953 0.46706 0.95715 0.0
H438 H 0.18699 0.48404 0.94649 0.0
H439 H 0.13498 0.41187 0.98395 0.0
O440 O 0.22591 0.50684 0.09277 0.0
C441 C 0.16498 0.43444 0.07301 0.0
Co442 Co 0.78639 0.01688 0.31825 0.0
Co443 Co 0.81362 0.97636 0.27188 0.0
C444 C 0.76394 0.95767 0.30644 0.0
O445 O 0.76188 0.98192 0.31843 0.0
O446 O 0.78307 0.95279 0.28786 0.0
C447 C 0.74068 0.05204 0.32968 0.0
O448 O 0.73655 0.04506 0.30277 0.0
C449 C 0.81121 0.94204 0.22039 0.0
C450 C 0.85506 0.94509 0.20303 0.0
C451 C 0.82799 0.93451 0.19706 0.0
N452 N 0.82753 0.95661 0.23902 0.0
N453 N 0.85384 0.95796 0.2288 0.0
C454 C 0.77931 0.9397 0.22301 0.0
H455 H 0.77382 0.91928 0.23369 0.0
H456 H 0.77069 0.95746 0.23607 0.0
H457 H 0.76889 0.94031 0.2017 0.0
C458 C 0.79295 0.05858 0.27049 0.0
N459 N 0.794 0.03195 0.28142 0.0
N460 N 0.80191 0.01407 0.26127 0.0
C461 C 0.804 0.02839 0.23633 0.0
C462 C 0.79904 0.05732 0.24136 0.0
C463 C 0.78915 0.08493 0.28821 0.0
H464 H 0.79574 0.08087 0.31065 0.0
H465 H 0.76635 0.09136 0.28814 0.0
H466 H 0.80192 0.10279 0.27924 0.0
O467 O 0.82268 0.00541 0.33573 0.0
O468 O 0.84296 0.97713 0.30284 0.0
H469 H 0.83031 0.00929 0.20397 0.0
H470 H 0.79884 0.02694 0.19002 0.0
C471 C 0.8074 0.014 0.20786 0.0
H472 H 0.79518 0.99394 0.20772 0.0
H473 H 0.8706 0.96879 0.23876 0.0
O474 O 0.76331 0.04352 0.34209 0.0
C475 C 0.84305 0.98939 0.32725 0.0
Co476 Co 0.27017 0.43176 0.57631 0.0
Co477 Co 0.29634 0.49056 0.55749 0.0
C478 C 0.33337 0.43987 0.56394 0.0
O479 O 0.31158 0.42552 0.57169 0.0
O480 O 0.33123 0.46597 0.55648 0.0
C481 C 0.26572 0.37527 0.59605 0.0
O482 O 0.28803 0.38319 0.61116 0.0
C483 C 0.32177 0.53476 0.52179 0.0
C484 C 0.29408 0.5718 0.53109 0.0
C485 C 0.31567 0.56236 0.51319 0.0
N486 N 0.30435 0.52798 0.54359 0.0
N487 N 0.28846 0.55052 0.54967 0.0
C488 C 0.34121 0.51388 0.50727 0.0
H489 H 0.33095 0.49257 0.50626 0.0
H490 H 0.34712 0.52101 0.4854 0.0
H491 H 0.36101 0.51172 0.52016 0.0
C492 C 0.24073 0.43814 0.5211 0.0
N493 N 0.25591 0.44926 0.54296 0.0
N494 N 0.26596 0.47437 0.53543 0.0
C495 C 0.25635 0.48043 0.50889 0.0
C496 C 0.24077 0.45748 0.49862 0.0
C497 C 0.23115 0.4077 0.51996 0.0
H498 H 0.24999 0.39351 0.52225 0.0
H499 H 0.22001 0.40268 0.49962 0.0
H500 H 0.21652 0.4034 0.53817 0.0
O501 O 0.26473 0.45416 0.61173 0.0
O502 O 0.28702 0.49387 0.59821 0.0
H503 H 0.24931 0.50904 0.4734 0.0
H504 H 0.28591 0.50498 0.4841 0.0
C505 C 0.26371 0.50658 0.49211 0.0
H506 H 0.2615 0.52567 0.50581 0.0
H507 H 0.27216 0.55057 0.56495 0.0
O508 O 0.25303 0.39366 0.58071 0.0
C509 C 0.27486 0.47874 0.61724 0.0
Co510 Co 0.76479 0.08707 0.8179 0.0
Co511 Co 0.72441 0.12674 0.78104 0.0
C512 C 0.7737 0.15131 0.81153 0.0
O513 O 0.77908 0.12678 0.82169 0.0
O514 O 0.75325 0.15494 0.79404 0.0
C515 C 0.82044 0.07245 0.82054 0.0
O516 O 0.81845 0.09133 0.79988 0.0
C517 C 0.70832 0.16566 0.73575 0.0
C518 C 0.6651 0.15118 0.72336 0.0
C519 C 0.68665 0.17013 0.7161 0.0
N520 N 0.70006 0.14509 0.75392 0.0
N521 N 0.67394 0.13686 0.7468 0.0
C522 C 0.73812 0.17747 0.73459 0.0
H523 H 0.74 0.19511 0.75031 0.0
H524 H 0.7538 0.16071 0.74034 0.0
H525 H 0.74352 0.18579 0.71303 0.0
C526 C 0.76671 0.0551 0.76348 0.0
N527 N 0.75741 0.0771 0.7795 0.0
N528 N 0.74151 0.09397 0.76363 0.0
C529 C 0.74075 0.08342 0.73671 0.0
C530 C 0.75665 0.05842 0.73583 0.0
C531 C 0.78437 0.03087 0.77451 0.0
H532 H 0.77897 0.02643 0.79719 0.0
H533 H 0.80733 0.0366 0.77307 0.0
H534 H 0.78081 0.01137 0.76151 0.0
O535 O 0.72909 0.08543 0.84043 0.0
O536 O 0.7022 0.11638 0.81591 0.0
H537 H 0.70374 0.09863 0.71472 0.0
H538 H 0.73223 0.08775 0.69115 0.0
C539 C 0.72724 0.09826 0.71179 0.0
H540 H 0.73513 0.12047 0.71068 0.0
H541 H 0.66287 0.12037 0.75689 0.0
O542 O 0.79771 0.06422 0.8331 0.0
C543 C 0.7061 0.09977 0.83719 0.0
Co544 Co 0.02899 0.77456 0.01188 0.0
Co545 Co 0.02012 0.71945 0.04855 0.0
C546 C 0.00872 0.72 0.98553 0.0
O547 O 0.01625 0.74597 0.98408 0.0
O548 O 0.00912 0.70658 0.00922 0.0
C549 C 0.02455 0.81271 0.96687 0.0
O550 O -0.00095 0.80098 0.96573 0.0
C551 C 0.03214 0.66149 0.06449 0.0
C552 C 0.0244 0.66097 0.11117 0.0
C553 C 0.03468 0.64459 0.08869 0.0
N554 N 0.02105 0.68666 0.0723 0.0
N555 N 0.01575 0.68607 0.10009 0.0
C556 C 0.04428 0.6558 0.03529 0.0
H557 H 0.02782 0.64507 0.02202 0.0
H558 H 0.05043 0.67605 0.0247 0.0
H559 H 0.06339 0.64186 0.03639 0.0
C560 C 0.08825 0.76575 0.0292 0.0
N561 N 0.06022 0.76021 0.03228 0.0
N562 N 0.05683 0.73773 0.04877 0.0
C563 C 0.08289 0.72914 0.05772 0.0
C564 C 0.1036 0.74616 0.04512 0.0
C565 C 0.10012 0.78624 0.00768 0.0
H566 H 0.09163 0.80789 0.01206 0.0
H567 H 0.09302 0.77988 0.98593 0.0
H568 H 0.12384 0.78689 0.00834 0.0
O569 O 0.9964 0.78438 0.03632 0.0
O570 O 0.98923 0.74474 0.06146 0.0
H571 H 0.072 0.70039 0.09181 0.0
H572 H 0.10981 0.70504 0.08616 0.0
C573 C 0.08877 0.70317 0.07535 0.0
H574 H 0.0896 0.68417 0.0613 0.0
H575 H 0.00805 0.70341 0.11177 0.0
O576 O 0.04054 0.80711 0.98807 0.0
C577 C 0.98201 0.76993 0.05438 0.0
Co578 Co 0.48648 0.83619 0.04181 0.0
Co579 Co 0.49352 0.89052 0.00399 0.0
C580 C 0.49812 0.8894 0.06969 0.0
O581 O 0.49696 0.86255 0.0721 0.0
O582 O 0.4962 0.90137 0.04536 0.0
C583 C 0.46074 0.79999 0.07968 0.0
O584 O 0.44287 0.8216 0.07946 0.0
C585 C 0.53974 0.92864 0.99551 0.0
C586 C 0.52747 0.95777 0.96061 0.0
C587 C 0.5493 0.95187 0.97989 0.0
N588 N 0.51355 0.92133 0.98631 0.0
N589 N 0.5062 0.93876 0.96533 0.0
C590 C 0.55609 0.91205 0.01757 0.0
H591 H 0.55301 0.92198 0.03888 0.0
H592 H 0.5483 0.88986 0.01908 0.0
H593 H 0.57927 0.91189 0.01247 0.0
C594 C 0.53287 0.81542 0.0037 0.0
N595 N 0.51318 0.8346 0.0121 0.0
N596 N 0.51337 0.85629 0.99434 0.0
C597 C 0.53234 0.85108 0.97334 0.0
C598 C 0.54589 0.8253 0.97881 0.0
C599 C 0.54127 0.78991 0.021 0.0
H600 H 0.53282 0.79153 0.04312 0.0
H601 H 0.56489 0.7878 0.02169 0.0
H602 H 0.53246 0.77045 0.01074 0.0
O603 O 0.45016 0.84937 0.02611 0.0
O604 O 0.45199 0.88584 0.9956 0.0
H605 H 0.51784 0.88175 0.94248 0.0
H606 H 0.54642 0.85865 0.93006 0.0
C607 C 0.53787 0.8707 0.94866 0.0
H608 H 0.55387 0.88701 0.95485 0.0
H609 H 0.48684 0.93775 0.95438 0.0
O610 O 0.48071 0.7995 0.06121 0.0
C611 C 0.43783 0.86717 0.00967 0.0
Co612 Co 0.48023 0.26212 0.22296 0.0
Co613 Co 0.42568 0.26475 0.18541 0.0
C614 C 0.42185 0.23384 0.23744 0.0
O615 O 0.44891 0.2368 0.23943 0.0
O616 O 0.40773 0.2469 0.2183 0.0
C617 C 0.49471 0.26956 0.278 0.0
O618 O 0.46746 0.27614 0.27657 0.0
C619 C 0.36942 0.27093 0.15964 0.0
C620 C 0.3784 0.3026 0.12603 0.0
C621 C 0.35616 0.29015 0.14129 0.0
N622 N 0.3979 0.27319 0.15644 0.0
N623 N 0.40308 0.29109 0.13524 0.0
C624 C 0.35562 0.25514 0.18389 0.0
H625 H 0.35672 0.26828 0.20362 0.0
H626 H 0.33294 0.25018 0.1794 0.0
H627 H 0.36692 0.23469 0.18749 0.0
C628 C 0.474 0.32467 0.22129 0.0
N629 N 0.46649 0.29832 0.21287 0.0
N630 N 0.44206 0.29932 0.19933 0.0
C631 C 0.43145 0.32593 0.20147 0.0
C632 C 0.45159 0.34358 0.21499 0.0
C633 C 0.50273 0.33085 0.234 0.0
H634 H 0.51843 0.31458 0.22688 0.0
H635 H 0.50136 0.32973 0.25768 0.0
H636 H 0.51042 0.35227 0.22742 0.0
O637 O 0.49516 0.24413 0.18882 0.0
O638 O 0.45227 0.23349 0.1727 0.0
H639 H 0.39854 0.34194 0.17444 0.0
H640 H 0.39181 0.3471 0.21227 0.0
C641 C 0.40061 0.3323 0.19599 0.0
H642 H 0.38781 0.31248 0.19678 0.0
H643 H 0.42349 0.29804 0.12946 0.0
O644 O 0.50819 0.26435 0.25494 0.0
C645 C 0.47835 0.22659 0.17678 0.0
Co646 Co 0.10871 0.25471 0.55304 0.0
Co647 Co 0.0861 0.20609 0.51201 0.0
C648 C 0.09693 0.19691 0.57501 0.0
O649 O 0.10388 0.22268 0.57928 0.0
O650 O 0.08979 0.18818 0.55029 0.0
C651 C 0.12391 0.28404 0.6045 0.0
O652 O 0.13833 0.26052 0.60942 0.0
C653 C 0.04311 0.16469 0.49853 0.0
C654 C 0.05886 0.14416 0.45898 0.0
C655 C 0.03737 0.14296 0.47941 0.0
N656 N 0.06668 0.17844 0.48974 0.0
N657 N 0.07594 0.16631 0.46593 0.0
C658 C 0.02866 0.1701 0.52668 0.0
H659 H 0.03675 0.18998 0.53666 0.0
H660 H 0.00525 0.17209 0.52377 0.0
H661 H 0.03257 0.1518 0.54121 0.0
C662 C 0.05354 0.27981 0.53403 0.0
N663 N 0.0745 0.26023 0.5316 0.0
N664 N 0.0665 0.24086 0.5129 0.0
C665 C 0.04125 0.24846 0.50158 0.0
C666 C 0.03161 0.27279 0.51525 0.0
C667 C 0.05251 0.30187 0.55714 0.0
H668 H 0.07074 0.31676 0.55436 0.0
H669 H 0.05483 0.29135 0.57829 0.0
H670 H 0.03225 0.31416 0.55666 0.0
O671 O 0.14268 0.24385 0.52825 0.0
O672 O 0.12413 0.21209 0.49769 0.0
H673 H 0.03997 0.22064 0.46497 0.0
H674 H 0.01073 0.24578 0.46729 0.0
C675 C 0.02503 0.23157 0.47977 0.0
H676 H 0.01143 0.21553 0.49062 0.0
H677 H 0.09459 0.17228 0.4552 0.0
O678 O 0.11359 0.288 0.57957 0.0
C679 C 0.14499 0.22679 0.50689 0.0
Co680 Co 0.1282 0.7976 0.76803 0.0
Co681 Co 0.17288 0.7996 0.71846 0.0
C682 C 0.18046 0.76619 0.77444 0.0
O683 O 0.15544 0.77055 0.78396 0.0
O684 O 0.1889 0.77767 0.75126 0.0
C685 C 0.10258 0.81385 0.81833 0.0
O686 O 0.12908 0.82238 0.82204 0.0
C687 C 0.21039 0.76473 0.68577 0.0
C688 C 0.24257 0.79535 0.67004 0.0
C689 C 0.23739 0.76645 0.67364 0.0
N690 N 0.20002 0.79121 0.68915 0.0
N691 N 0.21903 0.80947 0.67895 0.0
C692 C 0.198 0.73896 0.70025 0.0
H693 H 0.17676 0.74363 0.70965 0.0
H694 H 0.19574 0.72135 0.68455 0.0
H695 H 0.21267 0.73157 0.71738 0.0
C696 C 0.09374 0.77023 0.72482 0.0
N697 N 0.11669 0.78592 0.73156 0.0
N698 N 0.13488 0.78619 0.71007 0.0
C699 C 0.12354 0.77068 0.68852 0.0
C700 C 0.0974 0.75925 0.69738 0.0
C701 C 0.07252 0.76091 0.74705 0.0
H702 H 0.0616 0.78 0.75582 0.0
H703 H 0.08403 0.75048 0.76499 0.0
H704 H 0.05613 0.74611 0.7387 0.0
O705 O 0.14524 0.83531 0.76616 0.0
O706 O 0.17347 0.84095 0.72855 0.0
H707 H 0.15407 0.78116 0.65569 0.0
H708 H 0.12284 0.76161 0.64351 0.0
C709 C 0.13863 0.76402 0.66108 0.0
H710 H 0.15027 0.74356 0.66305 0.0
H711 H 0.21743 0.83157 0.68111 0.0
O712 O 0.09605 0.80118 0.79519 0.0
C713 C 0.1615 0.85079 0.75097 0.0
Co714 Co 0.57825 0.31809 0.47537 0.0
Co715 Co 0.55245 0.34672 0.53077 0.0
C716 C 0.53732 0.36605 0.47218 0.0
O717 O 0.55178 0.3467 0.46014 0.0
O718 O 0.53655 0.36811 0.4991 0.0
C719 C 0.56326 0.28768 0.42953 0.0
O720 O 0.53995 0.29112 0.44489 0.0
C721 C 0.5024 0.36527 0.56004 0.0
C722 C 0.51896 0.39392 0.59363 0.0
C723 C 0.49402 0.38557 0.5799 0.0
N724 N 0.53084 0.36174 0.56189 0.0
N725 N 0.54063 0.37854 0.58239 0.0
C726 C 0.48465 0.35362 0.53599 0.0
H727 H 0.47599 0.37145 0.523 0.0
H728 H 0.49733 0.33915 0.52219 0.0
H729 H 0.46634 0.34135 0.54465 0.0
C730 C 0.55793 0.26638 0.50468 0.0
N731 N 0.56222 0.29469 0.5043 0.0
N732 N 0.54864 0.30635 0.52601 0.0
C733 C 0.53389 0.2857 0.53978 0.0
C734 C 0.53831 0.25973 0.52594 0.0
C735 C 0.57225 0.24559 0.48493 0.0
H736 H 0.59312 0.25419 0.47761 0.0
H737 H 0.55873 0.24132 0.46598 0.0
H738 H 0.57559 0.22495 0.49609 0.0
O739 O 0.61008 0.33969 0.4911 0.0
O740 O 0.59339 0.35831 0.53192 0.0
H741 H 0.51968 0.31017 0.57608 0.0
H742 H 0.51295 0.27259 0.57868 0.0
C743 C 0.51342 0.291 0.56383 0.0
H744 H 0.4916 0.29388 0.55504 0.0
H745 H 0.56228 0.38147 0.58688 0.0
O746 O 0.58689 0.29643 0.43978 0.0
C747 C 0.61333 0.35499 0.51346 0.0
Co748 Co 0.00646 0.31207 0.79418 0.0
Co749 Co 0.95596 0.30655 0.83847 0.0
C750 C 0.95111 0.29677 0.77379 0.0
O751 O 0.97765 0.29667 0.76831 0.0
O752 O 0.94199 0.30122 0.79899 0.0
C753 C 0.04155 0.32624 0.74634 0.0
O754 O 0.01836 0.34024 0.739 0.0
C755 C 0.91447 0.26535 0.85573 0.0
C756 C 0.88323 0.28976 0.88122 0.0
C757 C 0.88806 0.26335 0.86878 0.0
N758 N 0.92514 0.29152 0.86043 0.0
N759 N 0.90654 0.306 0.87603 0.0
C760 C 0.927 0.24438 0.83502 0.0
H761 H 0.94819 0.25156 0.8272 0.0
H762 H 0.92926 0.22327 0.84548 0.0
H763 H 0.91231 0.24173 0.81656 0.0
C764 C 0.03067 0.26829 0.83233 0.0
N765 N 0.01095 0.28825 0.8264 0.0
N766 N 0.99068 0.2873 0.84587 0.0
C767 C -0.00246 0.26758 0.8656 0.0
C768 C 0.02279 0.25427 0.85744 0.0
C769 C 0.05352 0.25981 0.81149 0.0
H770 H 0.04497 0.26066 0.78936 0.0
H771 H 0.06189 0.23811 0.81569 0.0
H772 H 0.0714 0.27531 0.81293 0.0
O773 O 0.99171 0.35066 0.80518 0.0
O774 O 0.96059 0.34776 0.84151 0.0
H775 H 0.9927 0.25143 0.90844 0.0
H776 H 0.96351 0.24363 0.88484 0.0
C777 C 0.97932 0.26015 0.89089 0.0
H778 H 0.96763 0.27928 0.89851 0.0
H779 H 0.90878 0.32751 0.88131 0.0
O780 O 0.04222 0.31399 0.77067 0.0
C781 C 0.97481 0.36227 0.82334 0.0
Co782 Co 0.56568 0.78643 0.2677 0.0
Co783 Co 0.61566 0.77566 0.31032 0.0
C784 C 0.62226 0.77825 0.24498 0.0
O785 O 0.59701 0.78676 0.2401 0.0
O786 O 0.63046 0.77276 0.27031 0.0
C787 C 0.52535 0.7714 0.22856 0.0
O788 O 0.54345 0.75001 0.22756 0.0
C789 C 0.66231 0.81021 0.32589 0.0
C790 C 0.68763 0.7868 0.35791 0.0
C791 C 0.68623 0.81229 0.34285 0.0
N792 N 0.64935 0.7852 0.33102 0.0
N793 N 0.66454 0.7711 0.35023 0.0
C794 C 0.65292 0.83131 0.30363 0.0
H795 H 0.63641 0.8223 0.28934 0.0
H796 H 0.6439 0.85046 0.31425 0.0
H797 H 0.67156 0.83833 0.29067 0.0
C798 C 0.55547 0.83559 0.30572 0.0
N799 N 0.57011 0.81234 0.29751 0.0
N800 N 0.58956 0.80631 0.31684 0.0
C801 C 0.58752 0.82537 0.33837 0.0
C802 C 0.56602 0.84456 0.33197 0.0
C803 C 0.53263 0.84946 0.2882 0.0
H804 H 0.51157 0.84059 0.29461 0.0
H805 H 0.53602 0.84498 0.26513 0.0
H806 H 0.53225 0.87285 0.29185 0.0
O807 O 0.5639 0.74869 0.28485 0.0
O808 O 0.59613 0.73865 0.31829 0.0
H809 H 0.61217 0.80282 0.37 0.0
H810 H 0.59208 0.83299 0.38353 0.0
C811 C 0.60488 0.82481 0.36527 0.0
H812 H 0.62374 0.83893 0.36282 0.0
H813 H 0.65945 0.75078 0.35776 0.0
O814 O 0.53003 0.79157 0.24613 0.0
C815 C 0.5745 0.73161 0.30308 0.0
H816 H 0.13161 0.97898 0.7541 0.0
H817 H 0.09878 0.95254 0.83634 0.0
H818 H 0.12556 0.9079 0.83271 0.0
H819 H 0.14976 0.87357 0.80234 0.0
H820 H 0.17494 0.89654 0.71649 0.0
H821 H 0.16098 0.94606 0.72578 0.0
C822 C 0.13095 0.96378 0.7716 0.0
C823 C 0.11306 0.96876 0.79536 0.0
C824 C 0.14496 0.93759 0.76854 0.0
C825 C 0.11221 0.94892 0.81778 0.0
C826 C 0.12746 0.92347 0.81566 0.0
C827 C 0.15268 0.88949 0.78575 0.0
C828 C 0.16249 0.88132 0.75846 0.0
C829 C 0.14262 0.91708 0.79051 0.0
C830 C 0.16711 0.90228 0.73754 0.0
C831 C 0.15881 0.93047 0.74277 0.0
H832 H 0.39958 0.85233 0.04941 0.0
H833 H 0.40839 0.86798 0.959 0.0
H834 H 0.37059 0.83324 0.94915 0.0
H835 H 0.34779 0.78925 0.96516 0.0
H836 H 0.34842 0.76669 0.05486 0.0
H837 H 0.37035 0.81267 0.06628 0.0
C838 C 0.39229 0.84889 0.02762 0.0
C839 C 0.40728 0.86173 0.00485 0.0
C840 C 0.37339 0.82649 0.02208 0.0
C841 C 0.39736 0.85806 0.97681 0.0
C842 C 0.37626 0.83765 0.9712 0.0
C843 C 0.35217 0.79448 0.98734 0.0
C844 C 0.34732 0.77415 0.0091 0.0
C845 C 0.36618 0.82011 0.99347 0.0
C846 C 0.35259 0.78165 0.03769 0.0
C847 C 0.36502 0.80797 0.0442 0.0
H848 H 0.43888 0.18655 0.19155 0.0
H849 H 0.52973 0.19936 0.18069 0.0
H850 H 0.53924 0.15913 0.21251 0.0
H851 H 0.52184 0.12574 0.24876 0.0
H852 H 0.43124 0.11292 0.26021 0.0
H853 H 0.42142 0.14908 0.22354 0.0
C854 C 0.46082 0.18006 0.19528 0.0
C855 C 0.48364 0.19637 0.18411 0.0
C856 C 0.4661 0.15809 0.21488 0.0
C857 C 0.51183 0.18729 0.1891 0.0
C858 C 0.51726 0.16472 0.20778 0.0
C859 C 0.49991 0.1313 0.24365 0.0
C860 C 0.47719 0.11777 0.25802 0.0
C861 C 0.49458 0.15116 0.22198 0.0
C862 C 0.44896 0.12388 0.25006 0.0
C863 C 0.44342 0.14413 0.22882 0.0
H864 H 0.1783 0.19367 0.53803 0.0
H865 H 0.17069 0.23242 0.45489 0.0
H866 H 0.20933 0.20199 0.43663 0.0
H867 H 0.24626 0.16567 0.44531 0.0
H868 H 0.25288 0.12664 0.52862 0.0
H869 H 0.21217 0.15459 0.54549 0.0
C870 C 0.18592 0.19611 0.5162 0.0
C871 C 0.17298 0.21617 0.49814 0.0
C872 C 0.20687 0.17759 0.50564 0.0
C873 C 0.18154 0.21806 0.46943 0.0
C874 C 0.2031 0.20026 0.45891 0.0
C875 C 0.23814 0.16252 0.46683 0.0
C876 C 0.25255 0.14413 0.48576 0.0
C877 C 0.21582 0.17985 0.47682 0.0
C878 C 0.24188 0.14042 0.51363 0.0
C879 C 0.21909 0.15689 0.52346 0.0
H880 H 0.5108 0.61902 0.33828 0.0
H881 H 0.45948 0.64292 0.26517 0.0
H882 H 0.4923 0.68233 0.2552 0.0
H883 H 0.53275 0.71124 0.26918 0.0
H884 H 0.58244 0.68998 0.34416 0.0
H885 H 0.55287 0.64727 0.35122 0.0
C886 C 0.5068 0.63266 0.31996 0.0
C887 C 0.48255 0.62818 0.30252 0.0
C888 C 0.5253 0.6555 0.31481 0.0
C889 C 0.47781 0.64606 0.27897 0.0
C890 C 0.49656 0.66851 0.2733 0.0
C891 C 0.53739 0.69735 0.28712 0.0
C892 C 0.5596 0.70404 0.30642 0.0
C893 C 0.51996 0.67365 0.29142 0.0
C894 C 0.56542 0.6854 0.32914 0.0
C895 C 0.54845 0.66112 0.3332 0.0
H896 H 0.65657 0.35894 0.47551 0.0
H897 H 0.634 0.37912 0.56285 0.0
H898 H 0.68446 0.38556 0.57454 0.0
H899 H 0.73309 0.37032 0.56358 0.0
H900 H 0.75372 0.33982 0.479 0.0
H901 H 0.70644 0.35387 0.46201 0.0
C902 C 0.66263 0.36531 0.497 0.0
C903 C 0.64186 0.36713 0.51869 0.0
C904 C 0.69155 0.36708 0.50393 0.0
C905 C 0.64977 0.37669 0.54603 0.0
C906 C 0.67861 0.38032 0.55272 0.0
C907 C 0.72766 0.36805 0.5411 0.0
C908 C 0.74624 0.3534 0.52263 0.0
C909 C 0.6996 0.37334 0.5324 0.0
C910 C 0.73935 0.3507 0.49356 0.0
C911 C 0.71222 0.35835 0.48402 0.0
H912 H 0.96386 0.38705 0.77329 0.0
H913 H 0.9672 0.40381 0.86392 0.0
H914 H 0.95698 0.45447 0.85508 0.0
H915 H 0.95507 0.49428 0.82081 0.0
H916 H 0.95418 0.47684 0.73018 0.0
H917 H 0.95366 0.42565 0.73975 0.0
C918 C 0.9623 0.40186 0.79108 0.0
C919 C 0.96736 0.39231 0.81908 0.0
C920 C 0.95617 0.43052 0.78581 0.0
C921 C 0.96411 0.41113 0.84215 0.0
C922 C 0.95809 0.43992 0.83709 0.0
C923 C 0.95335 0.47926 0.80322 0.0
C924 C 0.95489 0.48912 0.77483 0.0
C925 C 0.95496 0.44995 0.80891 0.0
C926 C 0.95296 0.46957 0.75217 0.0
C927 C 0.95324 0.44037 0.75764 0.0
H928 H 0.93636 0.73623 0.06468 0.0
H929 H 0.96161 0.82432 0.05503 0.0
H930 H 0.91193 0.83775 0.04655 0.0
H931 H 0.86328 0.8234 0.03483 0.0
H932 H 0.83775 0.73528 0.04269 0.0
H933 H 0.88618 0.72263 0.05828 0.0
C934 C 0.9309 0.75852 0.06172 0.0
C935 C 0.9526 0.77927 0.06017 0.0
C936 C 0.90261 0.7658 0.05536 0.0
C937 C 0.94522 0.80801 0.05621 0.0
C938 C 0.91693 0.81561 0.05094 0.0
C939 C 0.86836 0.80134 0.03969 0.0
C940 C 0.84741 0.78006 0.03671 0.0
C941 C 0.89583 0.79446 0.04901 0.0
C942 C 0.85386 0.75183 0.04421 0.0
C943 C 0.88137 0.74469 0.05335 0.0
H944 H 0.66192 0.08705 0.96026 0.0
H945 H 0.69435 0.17291 0.96271 0.0
H946 H 0.6932 0.17517 0.91031 0.0
H947 H 0.69654 0.14795 0.86562 0.0
H948 H 0.67653 0.05828 0.86548 0.0
H949 H 0.65889 0.06177 0.91477 0.0
C950 C 0.66725 0.10673 0.94919 0.0
C951 C 0.67789 0.12992 0.96497 0.0
C952 C 0.66962 0.10656 0.91933 0.0
C953 C 0.68563 0.15509 0.95081 0.0
C954 C 0.68548 0.15608 0.92089 0.0
C955 C 0.68715 0.12952 0.87612 0.0
C956 C 0.68751 0.10294 0.86223 0.0
C957 C 0.67955 0.13126 0.90508 0.0
C958 C 0.67617 0.0789 0.87594 0.0
C959 C 0.66633 0.08092 0.9041 0.0
H960 H 0.12488 0.44443 0.11176 0.0
H961 H 0.18513 0.38087 0.08397 0.0
H962 H 0.18119 0.35665 0.13037 0.0
H963 H 0.17074 0.36185 0.18168 0.0
H964 H 0.11769 0.43108 0.21067 0.0
H965 H 0.10741 0.44429 0.16111 0.0
C966 C 0.13608 0.42451 0.11556 0.0
C967 C 0.15512 0.41419 0.09477 0.0
C968 C 0.13507 0.41201 0.14277 0.0
C969 C 0.1701 0.38883 0.09972 0.0
C970 C 0.16806 0.37526 0.12634 0.0
C971 C 0.15569 0.37882 0.17698 0.0
C972 C 0.14472 0.3954 0.19955 0.0
C973 C 0.15201 0.38773 0.14854 0.0
C974 C 0.12597 0.41789 0.19351 0.0
C975 C 0.12052 0.42568 0.1652 0.0
H976 H 0.90384 0.99112 0.4425 0.0
H977 H 0.84156 0.9252 0.45761 0.0
H978 H 0.83427 0.91987 0.4059 0.0
H979 H 0.83632 0.94312 0.35893 0.0
H980 H 0.89145 0.01555 0.34608 0.0
H981 H 0.91177 0.00903 0.39396 0.0
C982 C 0.88969 0.9747 0.43422 0.0
C983 C 0.87336 0.95837 0.45337 0.0
C984 C 0.88414 0.97346 0.40484 0.0
C985 C 0.85453 0.93762 0.44297 0.0
C986 C 0.85016 0.9349 0.4135 0.0
C987 C 0.85378 0.95652 0.36627 0.0
C988 C 0.86277 0.97956 0.3493 0.0
C989 C 0.8635 0.95398 0.39448 0.0
C990 C 0.8847 -0.00252 0.35888 0.0
C991 C 0.89596 0.99393 0.38631 0.0
H992 H 0.32277 0.49751 0.6414 0.0
H993 H 0.23433 0.47905 0.65966 0.0
H994 H 0.24021 0.49802 0.70838 0.0
H995 H 0.26927 0.52475 0.74295 0.0
H996 H 0.3577 0.54352 0.72383 0.0
H997 H 0.35347 0.51813 0.6784 0.0
C998 C 0.30483 0.49759 0.65616 0.0
C999 C 0.27795 0.48783 0.64705 0.0
C1000 C 0.30854 0.5081 0.68387 0.0
C1001 C 0.25503 0.48698 0.66634 0.0
C1002 C 0.25846 0.49771 0.69407 0.0
C1003 C 0.28782 0.52275 0.72913 0.0
C1004 C 0.31362 0.5365 0.73642 0.0
C1005 C 0.28496 0.50897 0.70273 0.0
C1006 C 0.3376 0.53326 0.71864 0.0
C1007 C 0.33509 0.51906 0.69252 0.0
H1008 H 0.12417 0.20456 0.62573 0.0
H1009 H 0.07546 0.14285 0.57733 0.0
H1010 H 0.08091 0.10819 0.61589 0.0
H1011 H 0.09907 0.09565 0.66327 0.0
H1012 H 0.14729 0.15692 0.71218 0.0
H1013 H 0.14341 0.19149 0.67285 0.0
C1014 C 0.11458 0.1836 0.62366 0.0
C1015 C 0.0992 0.17637 0.59879 0.0
C1016 C 0.1181 0.16369 0.64573 0.0
C1017 C 0.08728 0.14898 0.59629 0.0
C1018 C 0.09047 0.12913 0.61826 0.0
C1019 C 0.10857 0.11666 0.66532 0.0
C1020 C 0.12296 0.12415 0.69056 0.0
C1021 C 0.10578 0.1363 0.64302 0.0
C1022 C 0.1361 0.15091 0.6928 0.0
C1023 C 0.13365 0.17064 0.6705 0.0
H1024 H 0.25305 0.7055 0.86858 0.0
H1025 H 0.3214 0.73686 0.81521 0.0
H1026 H 0.28677 0.75085 0.7787 0.0
H1027 H 0.23738 0.76018 0.76533 0.0
H1028 H 0.16895 0.73307 0.82125 0.0
H1029 H 0.2035 0.71012 0.85284 0.0
C1030 C 0.26053 0.71392 0.84833 0.0
C1031 C 0.28971 0.71983 0.84435 0.0
C1032 C 0.24049 0.72284 0.82796 0.0
C1033 C 0.29901 0.73186 0.81847 0.0
C1034 C 0.27926 0.73994 0.79768 0.0
C1035 C 0.22993 0.74889 0.7842 0.0
C1036 C 0.2007 0.74886 0.79126 0.0
C1037 C 0.24992 0.73659 0.80273 0.0
C1038 C 0.19141 0.73385 0.8156 0.0
C1039 C 0.21113 0.72067 0.83365 0.0
H1040 H 0.47232 0.87726 0.11995 0.0
H1041 H 0.52218 0.94183 0.07698 0.0
H1042 H 0.51745 0.9733 0.11848 0.0
H1043 H 0.49673 0.98345 0.16568 0.0
H1044 H 0.443 0.921 0.20677 0.0
H1045 H 0.45125 0.8876 0.16711 0.0
C1046 C 0.48253 0.89805 0.11992 0.0
C1047 C 0.49792 0.90715 0.09569 0.0
C1048 C 0.47862 0.91645 0.14328 0.0
C1049 C 0.51046 0.93435 0.09553 0.0
C1050 C 0.50763 0.95237 0.11915 0.0
C1051 C 0.48708 0.96241 0.16598 0.0
C1052 C 0.46956 0.95438 0.18902 0.0
C1053 C 0.49139 0.9438 0.14291 0.0
C1054 C 0.45655 0.92744 0.1891 0.0
C1055 C 0.46136 0.90841 0.16655 0.0
H1056 H 0.33966 0.16677 0.32045 0.0
H1057 H 0.41907 0.12855 0.34657 0.0
H1058 H 0.44471 0.15545 0.3094 0.0
H1059 H 0.44469 0.19346 0.27276 0.0
H1060 H 0.36449 0.2312 0.24706 0.0
H1061 H 0.33895 0.20101 0.28092 0.0
C1062 C 0.36245 0.16375 0.3173 0.0
C1063 C 0.37756 0.14563 0.33574 0.0
C1064 C 0.37691 0.17965 0.29645 0.0
C1065 C 0.40709 0.14205 0.33209 0.0
C1066 C 0.42172 0.15773 0.31118 0.0
C1067 C 0.42161 0.19499 0.2745 0.0
C1068 C 0.40658 0.21479 0.25757 0.0
C1069 C 0.40693 0.17723 0.2938 0.0
C1070 C 0.37664 0.21624 0.25984 0.0
C1071 C 0.36197 0.19894 0.27917 0.0
H1072 H 0.51815 0.41679 0.49171 0.0
H1073 H 0.53261 0.36887 0.41397 0.0
H1074 H 0.52544 0.41201 0.38564 0.0
H1075 H 0.51956 0.4638 0.38344 0.0
H1076 H 0.50623 0.51196 0.46087 0.0
H1077 H 0.50929 0.46802 0.48929 0.0
C1078 C 0.51925 0.41561 0.46853 0.0
C1079 C 0.52629 0.38979 0.45493 0.0
C1080 C 0.51622 0.44056 0.45255 0.0
C1081 C 0.52742 0.38858 0.42491 0.0
C1082 C 0.52361 0.41324 0.40875 0.0
C1083 C 0.51775 0.46459 0.40659 0.0
C1084 C 0.51352 0.49077 0.42041 0.0
C1085 C 0.51904 0.43943 0.42244 0.0
C1086 C 0.51016 0.49184 0.45017 0.0
C1087 C 0.5116 0.46682 0.46623 0.0
H1088 H 0.89866 0.32051 0.77484 0.0
H1089 H 0.9584 0.27751 0.71906 0.0
H1090 H 0.92781 0.28786 0.67791 0.0
H1091 H 0.88615 0.31219 0.65767 0.0
H1092 H 0.82752 0.35685 0.71291 0.0
H1093 H 0.85642 0.34375 0.75474 0.0
C1094 C 0.90473 0.31284 0.75378 0.0
C1095 C 0.93063 0.29806 0.74995 0.0
C1096 C 0.88771 0.31986 0.73023 0.0
C1097 C 0.93846 0.28877 0.72248 0.0
C1098 C 0.92114 0.2949 0.69899 0.0
C1099 C 0.87955 0.31866 0.67895 0.0
C1100 C 0.85472 0.33502 0.68257 0.0
C1101 C 0.89609 0.31094 0.70259 0.0
C1102 C 0.8467 0.34426 0.70991 0.0
C1103 C 0.86303 0.33656 0.7337 0.0
H1104 H 0.98028 0.66929 0.98061 0.0
H1105 H 0.01414 0.73932 0.93087 0.0
H1106 H -0.00285 0.71708 0.88702 0.0
H1107 H 0.97367 0.67736 0.86246 0.0
H1108 H 0.94028 0.60688 0.91131 0.0
H1109 H 0.95507 0.63014 0.95589 0.0
C1110 C 0.98401 0.67961 0.96017 0.0
C1111 C -0.00132 0.70581 0.95909 0.0
C1112 C 0.97393 0.66683 0.93489 0.0
C1113 C 0.00301 0.71909 0.93241 0.0
C1114 C 0.99324 0.70645 0.90726 0.0
C1115 C 0.9698 0.66708 0.88288 0.0
C1116 C 0.95645 0.64032 0.88371 0.0
C1117 C 0.97883 0.68029 0.90822 0.0
C1118 C 0.95054 0.62758 0.91027 0.0
C1119 C 0.95924 0.64073 0.93569 0.0
H1120 H 0.71948 0.74794 0.15627 0.0
H1121 H 0.64861 0.75385 0.09776 0.0
H1122 H 0.61625 0.76492 0.13751 0.0
H1123 H 0.60863 0.77427 0.18861 0.0
H1124 H 0.6798 0.76879 0.24716 0.0
H1125 H 0.71166 0.75645 0.20764 0.0
C1126 C 0.69684 0.75117 0.15242 0.0
C1127 C 0.68624 0.75007 0.12437 0.0
C1128 C 0.6786 0.75802 0.17525 0.0
C1129 C 0.65707 0.75472 0.11932 0.0
C1130 C 0.63867 0.76113 0.14197 0.0
C1131 C 0.63115 0.77059 0.19272 0.0
C1132 C 0.64183 0.7726 0.22078 0.0
C1133 C 0.64929 0.76325 0.16996 0.0
C1134 C 0.67102 0.76743 0.22576 0.0
C1135 C 0.68924 0.76027 0.2032 0.0
H1136 H 0.64428 0.09267 0.16318 0.0
H1137 H 0.57006 0.13401 0.12788 0.0
H1138 H 0.54031 0.11433 0.16642 0.0
H1139 H 0.5354 0.08387 0.20871 0.0
H1140 H 0.6099 0.045 0.24635 0.0
H1141 H 0.63988 0.06483 0.20795 0.0
C1142 C 0.62165 0.09761 0.16434 0.0
C1143 C 0.60912 0.11466 0.14305 0.0
C1144 C 0.60487 0.08622 0.18645 0.0
C1145 C 0.57993 0.12108 0.14434 0.0
C1146 C 0.56299 0.10963 0.16613 0.0
C1147 C 0.55817 0.07945 0.20827 0.0
C1148 C 0.57048 0.0624 0.2297 0.0
C1149 C 0.57518 0.09179 0.18695 0.0
C1150 C 0.60006 0.05765 0.22966 0.0
C1151 C 0.61712 0.06912 0.20788 0.0
H1152 H 0.20073 0.28905 0.37359 0.0
H1153 H 0.24102 0.25303 0.29895 0.0
H1154 H 0.27264 0.22455 0.32933 0.0
H1155 H 0.28906 0.21051 0.37676 0.0
H1156 H 0.25093 0.24797 0.45209 0.0
H1157 H 0.21834 0.27551 0.42187 0.0
C1158 C 0.21618 0.27457 0.36417 0.0
C1159 C 0.21834 0.27251 0.33422 0.0
C1160 C 0.23483 0.25892 0.38183 0.0
C1161 C 0.23885 0.25444 0.322 0.0
C1162 C 0.25698 0.23838 0.33934 0.0
C1163 C 0.27382 0.22483 0.3867 0.0
C1164 C 0.27252 0.22708 0.41674 0.0
C1165 C 0.25529 0.2406 0.36925 0.0
C1166 C 0.25254 0.24585 0.42906 0.0
C1167 C 0.23377 0.2615 0.41178 0.0
H1168 H 0.99095 -0.00269 0.60784 0.0
H1169 H 0.94646 0.92777 0.64851 0.0
H1170 H 0.96717 0.94111 0.69486 0.0
H1171 H 0.99598 0.9744 0.72406 0.0
H1172 H 0.04036 0.04364 0.68229 0.0
H1173 H 0.02107 0.02905 0.63631 0.0
C1174 C 0.98589 0.98506 0.62689 0.0
C1175 C 0.96702 0.96189 0.625 0.0
C1176 C -0.00256 0.99313 0.65332 0.0
C1177 C 0.96105 0.9457 0.64957 0.0
C1178 C 0.97264 0.9535 0.67606 0.0
C1179 C 0.00128 0.98638 0.70492 0.0
C1180 C 0.01931 0.01038 0.70679 0.0
C1181 C 0.99045 0.97754 0.67827 0.0
C1182 C 0.02635 0.02533 0.68165 0.0
C1183 C 0.01543 0.01691 0.65524 0.0
H1184 H 0.41572 0.68495 0.9404 0.0
H1185 H 0.37956 0.60694 0.97283 0.0
H1186 H 0.40085 0.58039 0.93307 0.0
H1187 H 0.41519 0.58309 0.88255 0.0
H1188 H 0.44291 0.66329 0.84715 0.0
H1189 H 0.44072 0.68523 0.89455 0.0
C1190 C 0.41387 0.66188 0.93948 0.0
C1191 C 0.39579 0.64787 0.95898 0.0
C1192 C 0.42422 0.64736 0.91545 0.0
C1193 C 0.39343 0.61808 0.95797 0.0
C1194 C 0.40519 0.60303 0.93492 0.0
C1195 C 0.42215 0.60497 0.88559 0.0
C1196 C 0.42873 0.62183 0.86157 0.0
C1197 C 0.41853 0.61789 0.91243 0.0
C1198 C 0.43763 0.65011 0.86546 0.0
C1199 C 0.436 0.66268 0.89248 0.0
H1200 H 0.08573 0.51236 0.93677 0.0
H1201 H 0.11945 0.44221 0.88757 0.0
H1202 H 0.10048 0.46342 0.84364 0.0
H1203 H 0.07285 0.5011 0.81963 0.0
H1204 H 0.03908 0.57099 0.86941 0.0
H1205 H 0.06061 0.55123 0.9126 0.0
C1206 C 0.08965 0.50206 0.91641 0.0
C1207 C 0.10453 0.47602 0.91541 0.0
C1208 C 0.07882 0.51444 0.8913 0.0
C1209 C 0.10812 0.46231 0.8889 0.0
C1210 C 0.09742 0.4745 0.86377 0.0
C1211 C 0.07069 0.51234 0.8398 0.0
C1212 C 0.05442 0.53757 0.84121 0.0
C1213 C 0.08262 0.50052 0.86473 0.0
C1214 C 0.05147 0.55156 0.86767 0.0
C1215 C 0.06366 0.5402 0.89243 0.0
H1216 H 0.80064 0.89378 0.0713 0.0
H1217 H 0.74154 0.83975 0.11727 0.0
H1218 H 0.75579 0.86176 0.16234 0.0
H1219 H 0.78826 0.89283 0.18902 0.0
H1220 H 0.84713 0.9473 0.14353 0.0
H1221 H 0.83064 0.92765 0.09792 0.0
C1222 C 0.79036 0.8873 0.09108 0.0
C1223 C 0.77006 0.86513 0.0909 0.0
C1224 C 0.79923 0.89948 0.11706 0.0
C1225 C 0.75721 0.85677 0.1168 0.0
C1226 C 0.76553 0.86916 0.14263 0.0
C1227 C 0.797 0.90093 0.16913 0.0
C1228 C 0.81851 0.92185 0.16964 0.0
C1229 C 0.78705 0.88996 0.14306 0.0
C1230 C 0.83054 0.93116 0.14369 0.0
C1231 C 0.82095 0.92014 0.11762 0.0
H1232 H 0.34456 0.57691 0.38404 0.0
H1233 H 0.42313 0.608 0.42094 0.0
H1234 H 0.40144 0.60859 0.46829 0.0
H1235 H 0.36354 0.59123 0.50012 0.0
H1236 H 0.28511 0.55939 0.46419 0.0
H1237 H 0.30301 0.56822 0.41569 0.0
C1238 C 0.35648 0.58478 0.40232 0.0
C1239 C 0.38546 0.5919 0.3992 0.0
C1240 C 0.34407 0.58436 0.42977 0.0
C1241 C 0.40083 0.60201 0.423 0.0
C1242 C 0.38853 0.60223 0.45012 0.0
C1243 C 0.35013 0.5872 0.4816 0.0
C1244 C 0.3233 0.57465 0.48535 0.0
C1245 C 0.3607 0.59204 0.45394 0.0
C1246 C 0.30593 0.56914 0.46149 0.0
C1247 C 0.31621 0.57404 0.43383 0.0
H1248 H 0.72498 0.21761 0.59732 0.0
H1249 H 0.7416 0.29153 0.65007 0.0
H1250 H 0.71764 0.26899 0.69024 0.0
H1251 H 0.69793 0.22605 0.7124 0.0
H1252 H 0.68238 0.15134 0.66117 0.0
H1253 H 0.69917 0.17655 0.6183 0.0
C1254 C 0.72295 0.22894 0.61746 0.0
C1255 C 0.73559 0.25601 0.62073 0.0
C1256 C 0.70931 0.21571 0.64081 0.0
C1257 C 0.7325 0.27051 0.64695 0.0
C1258 C 0.71874 0.25767 0.67003 0.0
C1259 C 0.6975 0.21567 0.69163 0.0
C1260 C 0.68917 0.18705 0.68971 0.0
C1261 C 0.70792 0.22998 0.66747 0.0
C1262 C 0.6886 0.17354 0.66292 0.0
C1263 C 0.69852 0.18783 0.63854 0.0
H1264 H 0.13486 0.55682 0.0962 0.0
H1265 H 0.08925 0.52156 0.02398 0.0
H1266 H 0.05074 0.55561 0.03114 0.0
H1267 H 0.03168 0.59775 0.05544 0.0
H1268 H 0.07743 0.63419 0.1266 0.0
H1269 H 0.11361 0.59664 0.12313 0.0
C1270 C 0.11648 0.55655 0.08207 0.0
C1271 C 0.11527 0.53701 0.05925 0.0
C1272 C 0.09422 0.57614 0.08637 0.0
C1273 C 0.09103 0.53663 0.04145 0.0
C1274 C 0.06885 0.556 0.04559 0.0
C1275 C 0.04936 0.59708 0.07045 0.0
C1276 C 0.05223 0.61867 0.09097 0.0
C1277 C 0.07045 0.57612 0.06766 0.0
C1278 C 0.07486 0.61761 0.11065 0.0
C1279 C 0.09571 0.5964 0.10842 0.0
H1280 H 0.66283 0.0257 0.979 0.0
H1281 H 0.65481 0.01126 0.0698 0.0
H1282 H 0.61333 0.98073 0.06176 0.0
H1283 H 0.57595 0.96418 0.02995 0.0
H1284 H 0.58278 0.9771 0.93889 0.0
H1285 H 0.62748 0.00372 0.94602 0.0
C1286 C 0.65261 0.01489 0.99683 0.0
C1287 C 0.66196 0.02031 0.02494 0.0
C1288 C 0.62806 -0.00185 0.99208 0.0
C1289 C 0.64811 0.00703 0.04801 0.0
C1290 C 0.6242 0.98992 0.04344 0.0
C1291 C 0.5877 0.97161 0.01145 0.0
C1292 C 0.57644 0.96783 0.98384 0.0
C1293 C 0.61346 0.98618 0.0157 0.0
C1294 C 0.5911 0.97958 0.96037 0.0
C1295 C 0.61674 0.99459 0.96443 0.0
H1296 H 0.35177 0.34517 0.15676 0.0
H1297 H 0.30149 0.2692 0.14407 0.0
H1298 H 0.26246 0.28998 0.17227 0.0
H1299 H 0.24559 0.32725 0.20532 0.0
H1300 H 0.29672 0.40282 0.21847 0.0
H1301 H 0.33316 0.38424 0.18588 0.0
C1302 C 0.33207 0.33337 0.1597 0.0
C1303 C 0.32971 0.30541 0.14914 0.0
C1304 C 0.31041 0.345 0.17673 0.0
C1305 C 0.30386 0.2906 0.15249 0.0
C1306 C 0.28175 0.30235 0.16883 0.0
C1307 C 0.26479 0.33957 0.20115 0.0
C1308 C 0.26883 0.36605 0.21475 0.0
C1309 C 0.28536 0.32899 0.18207 0.0
C1310 C 0.29337 0.38219 0.20854 0.0
C1311 C 0.31407 0.37169 0.18979 0.0
H1312 H 0.98058 0.15013 0.48609 0.0
H1313 H 0.04597 0.08575 0.48023 0.0
H1314 H 0.01089 0.04872 0.4922 0.0
H1315 H 0.96211 0.03526 0.50648 0.0
H1316 H 0.89667 0.09995 0.51178 0.0
H1317 H 0.93149 0.13651 0.49866 0.0
C1318 C 0.98706 0.12797 0.48759 0.0
C1319 C 0.01569 0.12052 0.48284 0.0
C1320 C 0.96693 0.10704 0.49477 0.0
C1321 C 0.0239 0.09179 0.48384 0.0
C1322 C 0.00396 0.07074 0.49092 0.0
C1323 C 0.95553 0.05739 0.50496 0.0
C1324 C 0.92695 0.06495 0.51039 0.0
C1325 C 0.97552 0.07821 0.49689 0.0
C1326 C 0.91859 0.09362 0.50783 0.0
C1327 C 0.93844 0.11452 0.50024 0.0
H1328 H 0.28419 0.64958 0.70768 0.0
H1329 H 0.33293 0.70127 0.76619 0.0
H1330 H 0.32036 0.74423 0.73877 0.0
H1331 H 0.2855 0.76704 0.70593 0.0
H1332 H 0.2362 0.71452 0.64854 0.0
H1333 H 0.2591 0.67175 0.66754 0.0
C1334 C 0.29259 0.67024 0.71399 0.0
C1335 C 0.30883 0.6726 0.73914 0.0
C1336 C 0.28467 0.69461 0.69867 0.0
C1337 C 0.32018 0.69915 0.74696 0.0
C1338 C 0.31274 0.72365 0.73146 0.0
C1339 C 0.28088 0.74632 0.69667 0.0
C1340 C 0.25898 0.74369 0.67619 0.0
C1341 C 0.29357 0.72176 0.70835 0.0
C1342 C 0.2529 0.71685 0.66443 0.0
C1343 C 0.26574 0.69243 0.67552 0.0
H1344 H 0.44138 0.36173 0.58151 0.0
H1345 H 0.48445 0.44293 0.57954 0.0
H1346 H 0.43853 0.46734 0.5733 0.0
H1347 H 0.38613 0.46514 0.56629 0.0
H1348 H 0.34409 0.38306 0.56689 0.0
H1349 H 0.3897 0.35941 0.5745 0.0
C1350 C 0.44072 0.38473 0.57939 0.0
C1351 C 0.46619 0.40048 0.58043 0.0
C1352 C 0.41446 0.39843 0.57503 0.0
C1353 C 0.46501 0.43038 0.57888 0.0
C1354 C 0.43882 0.44429 0.57498 0.0
C1355 C 0.38703 0.44208 0.56777 0.0
C1356 C 0.3617 0.42594 0.56585 0.0
C1357 C 0.41343 0.42847 0.57252 0.0
C1358 C 0.36321 0.39606 0.56823 0.0
C1359 C 0.38928 0.38245 0.57273 0.0
H1360 H 0.82101 0.14989 0.84509 0.0
H1361 H 0.76605 0.20804 0.79929 0.0
H1362 H 0.79514 0.24831 0.8154 0.0
H1363 H 0.83744 0.26683 0.84114 0.0
H1364 H 0.89318 0.2082 0.88485 0.0
H1365 H 0.86229 0.16822 0.87132 0.0
C1366 C 0.81527 0.17135 0.83864 0.0
C1367 C 0.79137 0.17587 0.82091 0.0
C1368 C 0.83213 0.19433 0.84785 0.0
C1369 C 0.78439 0.20389 0.81278 0.0
C1370 C 0.80096 0.22695 0.82208 0.0
C1371 C 0.84235 0.24532 0.84813 0.0
C1372 C 0.86719 0.24028 0.86422 0.0
C1373 C 0.82494 0.22242 0.83953 0.0
C1374 C 0.87395 0.2124 0.87266 0.0
C1375 C 0.85642 0.18961 0.86479 0.0
H1376 H 0.6749 0.8677 0.35292 0.0
H1377 H 0.7428 0.81011 0.32976 0.0
H1378 H 0.77314 0.85064 0.31624 0.0
H1379 H 0.77826 0.9019 0.30669 0.0
H1380 H 0.71042 0.95973 0.33008 0.0
H1381 H 0.68162 0.9195 0.34726 0.0
C1382 C 0.69656 0.86417 0.34538 0.0
C1383 C 0.70673 0.83615 0.34213 0.0
C1384 C 0.71342 0.88747 0.33701 0.0
C1385 C 0.73478 0.83159 0.33265 0.0
C1386 C 0.75188 0.8547 0.32455 0.0
C1387 C 0.7571 0.9057 0.31542 0.0
C1388 C 0.74616 0.93365 0.31655 0.0
C1389 C 0.74105 0.88262 0.32578 0.0
C1390 C 0.71909 0.93836 0.32866 0.0
C1391 C 0.70273 0.91541 0.3386 0.0
H1392 H 0.07919 0.134 0.85771 0.0
H1393 H 0.99207 0.11105 0.83824 0.0
H1394 H 0.97604 0.15874 0.85115 0.0
H1395 H 0.98827 0.20876 0.85692 0.0
H1396 H 0.07552 0.23392 0.87223 0.0
H1397 H 0.09036 0.1837 0.87154 0.0
C1398 C 0.05667 0.13945 0.85695 0.0
C1399 C 0.03688 0.11946 0.84655 0.0
C1400 C 0.04782 0.1674 0.86298 0.0
C1401 C 0.00767 0.12622 0.84616 0.0
C1402 C -0.00146 0.15357 0.8532 0.0
C1403 C 0.01031 0.20321 0.86143 0.0
C1404 C 0.03084 0.22477 0.86469 0.0
C1405 C 0.01862 0.17464 0.86011 0.0
C1406 C 0.05947 0.21744 0.8697 0.0
C1407 C 0.0679 0.18883 0.86913 0.0
H1408 H 0.11996 0.71635 -0.00086 0.0
H1409 H 0.15158 0.75404 0.07698 0.0
H1410 H 0.19992 0.73656 0.06617 0.0
H1411 H 0.23288 0.71146 0.03391 0.0
H1412 H 0.20126 0.67331 0.9562 0.0
H1413 H 0.15285 0.6902 0.96735 0.0
C1414 C 0.13761 0.72074 0.01356 0.0
C1415 C 0.13275 0.73656 0.03859 0.0
C1416 C 0.16499 0.71047 0.00726 0.0
C1417 C 0.15526 0.74205 0.0575 0.0
C1418 C 0.18271 0.73201 0.05134 0.0
C1419 C 0.21524 0.70631 0.01978 0.0
C1420 C 0.22024 0.69065 0.99462 0.0
C1421 C 0.18776 0.71621 0.02629 0.0
C1422 C 0.19758 0.68501 0.97586 0.0
C1423 C 0.17007 0.69473 0.98219 0.0
H1424 H 0.55633 0.97372 0.35271 0.0
H1425 H 0.46833 0.95112 0.36777 0.0
H1426 H 0.48135 0.90053 0.36936 0.0
H1427 H 0.51607 0.8635 0.35431 0.0
H1428 H 0.60394 0.88707 0.33974 0.0
H1429 H 0.59293 0.93678 0.35075 0.0
C1430 C 0.54022 0.9579 0.35795 0.0
C1431 C 0.51134 0.96583 0.35941 0.0
C1432 C 0.54782 0.92907 0.35814 0.0
C1433 C 0.49066 0.94521 0.36617 0.0
C1434 C 0.49806 0.91633 0.36669 0.0
C1435 C 0.53284 0.8795 0.35452 0.0
C1436 C 0.56057 0.87212 0.34583 0.0
C1437 C 0.52627 0.90803 0.36073 0.0
C1438 C 0.58242 0.89259 0.3463 0.0
C1439 C 0.5761 0.92096 0.35245 0.0
H1440 H 0.51114 0.24703 0.47723 0.0
H1441 H 0.5143 0.22425 0.56659 0.0
H1442 H 0.47101 0.19513 0.56062 0.0
H1443 H 0.42972 0.18066 0.53038 0.0
H1444 H 0.42945 0.20296 0.44083 0.0
H1445 H 0.47559 0.22653 0.44603 0.0
C1446 C 0.50335 0.23468 0.49522 0.0
C1447 C 0.51597 0.23771 0.52231 0.0
C1448 C 0.47909 0.21785 0.49147 0.0
C1449 C 0.50467 0.22254 0.54561 0.0
C1450 C 0.48005 0.20583 0.54215 0.0
C1451 C 0.44025 0.19016 0.51201 0.0
C1452 C 0.42646 0.19029 0.48531 0.0
C1453 C 0.46665 0.20403 0.51529 0.0
C1454 C 0.43996 0.20247 0.46147 0.0
C1455 C 0.46614 0.21616 0.46451 0.0
H1456 H 0.40897 0.46623 0.25192 0.0
H1457 H 0.48597 0.46174 0.30278 0.0
H1458 H 0.4947 0.41389 0.28581 0.0
H1459 H 0.47841 0.37258 0.25908 0.0
H1460 H 0.41681 0.38554 0.19146 0.0
H1461 H 0.40381 0.43114 0.21242 0.0
C1462 C 0.42822 0.45551 0.25877 0.0
C1463 C 0.44538 0.46719 0.28067 0.0
C1464 C 0.43551 0.42925 0.24605 0.0
C1465 C 0.47051 0.45251 0.28836 0.0
C1466 C 0.47609 0.42525 0.27802 0.0
C1467 C 0.46316 0.38532 0.24757 0.0
C1468 C 0.44773 0.37405 0.22429 0.0
C1469 C 0.45834 0.41318 0.25727 0.0
C1470 C 0.42762 0.39201 0.21078 0.0
C1471 C 0.42056 0.41864 0.22237 0.0
H1472 H 0.99332 0.23736 0.53792 0.0
H1473 H 0.00242 0.32173 0.50261 0.0
H1474 H 0.9508 0.33 0.50883 0.0
H1475 H 0.90328 0.31247 0.52413 0.0
H1476 H 0.89525 0.22819 0.56004 0.0
H1477 H 0.94643 0.2199 0.55279 0.0
C1478 C 0.98386 0.2575 0.53148 0.0
C1479 C 0.00116 0.27893 0.51969 0.0
C1480 C 0.95457 0.2618 0.53491 0.0
C1481 C 0.98917 0.30508 0.51173 0.0
C1482 C 0.95981 0.30967 0.51517 0.0
C1483 C 0.91294 0.29241 0.53043 0.0
C1484 C 0.89599 0.27099 0.54282 0.0
C1485 C 0.94233 0.28811 0.52668 0.0
C1486 C 0.9082 0.24483 0.55047 0.0
C1487 C 0.93733 0.24021 0.54649 0.0
H1488 H 0.06571 0.63423 0.71522 0.0
H1489 H 0.98058 0.66735 0.70362 0.0
H1490 H 0.00055 0.713 0.68741 0.0
H1491 H 0.04268 0.74509 0.68372 0.0
H1492 H 0.12705 0.71011 0.69558 0.0
H1493 H 0.10698 0.66275 0.70201 0.0
C1494 C 0.05142 0.65103 0.70822 0.0
C1495 C 0.02174 0.64773 0.71133 0.0
C1496 C 0.063 0.67667 0.69833 0.0
C1497 C 0.00356 0.66985 0.70251 0.0
C1498 C 0.01497 0.69576 0.69286 0.0
C1499 C 0.05658 0.72678 0.6864 0.0
C1500 C 0.0862 0.73099 0.68923 0.0
C1501 C 0.04472 0.69971 0.69163 0.0
C1502 C 0.10421 0.70733 0.69294 0.0
C1503 C 0.09269 0.68031 0.69725 0.0
H1504 H 0.59172 0.85891 0.97338 0.0
H1505 H 0.56368 0.77219 0.96161 0.0
H1506 H 0.61309 0.75757 0.95121 0.0
H1507 H 0.66485 0.76917 0.95156 0.0
H1508 H 0.69077 0.85569 0.96994 0.0
H1509 H 0.64159 0.87118 0.96883 0.0
C1510 C 0.59615 0.83702 0.96738 0.0
C1511 C 0.5742 0.81668 0.96789 0.0
C1512 C 0.62435 0.82886 0.96216 0.0
C1513 C 0.58042 0.78815 0.96128 0.0
C1514 C 0.60859 0.77986 0.95535 0.0
C1515 C 0.65966 0.79139 0.95511 0.0
C1516 C 0.68159 0.81109 0.961 0.0
C1517 C 0.63089 0.79994 0.9567 0.0
C1518 C 0.67461 0.84005 0.96463 0.0
C1519 C 0.6463 0.84893 0.96464 0.0
H1520 H 0.83305 0.06467 0.19477 0.0
H1521 H 0.76154 0.10256 0.23892 0.0
H1522 H 0.7508 0.13141 0.19701 0.0
H1523 H 0.75376 0.13617 0.14479 0.0
H1524 H 0.81132 0.08049 0.09894 0.0
H1525 H 0.83605 0.06953 0.14284 0.0
C1526 C 0.81503 0.07919 0.1952 0.0
C1527 C 0.79749 0.08046 0.21961 0.0
C1528 C 0.80633 0.0925 0.16984 0.0
C1529 C 0.77539 0.10077 0.22048 0.0
C1530 C 0.76891 0.11702 0.19624 0.0
C1531 C 0.77149 0.12133 0.14433 0.0
C1532 C 0.7796 0.10843 0.11834 0.0
C1533 C 0.78289 0.11142 0.17025 0.0
C1534 C 0.80411 0.091 0.11814 0.0
C1535 C 0.81813 0.08417 0.14359 0.0
H1536 H 0.19135 0.44485 0.47048 0.0
H1537 H 0.2822 0.45488 0.45861 0.0
H1538 H 0.27728 0.44528 0.40752 0.0
H1539 H 0.24733 0.43339 0.36625 0.0
H1540 H 0.15664 0.42224 0.37727 0.0
H1541 H 0.16104 0.43289 0.42856 0.0
C1542 C 0.20993 0.44482 0.45657 0.0
C1543 C 0.23701 0.45071 0.468 0.0
C1544 C 0.20694 0.43915 0.42715 0.0
C1545 C 0.2611 0.45066 0.45003 0.0
C1546 C 0.25833 0.44513 0.42089 0.0
C1547 C 0.22858 0.43357 0.37996 0.0
C1548 C 0.20175 0.42718 0.36836 0.0
C1549 C 0.23139 0.4394 0.40922 0.0
C1550 C 0.1775 0.42713 0.38605 0.0
C1551 C 0.18004 0.43316 0.41527 0.0
H1552 H 0.77626 -0.00035 0.61611 0.0
H1553 H 0.86396 0.0146 0.64016 0.0
H1554 H 0.84875 0.03156 0.68709 0.0
H1555 H 0.81043 0.04698 0.7192 0.0
H1556 H 0.72247 0.03404 0.69529 0.0
H1557 H 0.73764 0.01179 0.65021 0.0
C1558 C 0.79192 0.00628 0.63188 0.0
C1559 C 0.82111 0.00578 0.62489 0.0
C1560 C 0.78294 0.01677 0.65857 0.0
C1561 C 0.84138 0.01436 0.6453 0.0
C1562 C 0.83269 0.02436 0.67201 0.0
C1563 C 0.79464 0.03871 0.70436 0.0
C1564 C 0.76546 0.04218 0.71025 0.0
C1565 C 0.80354 0.02628 0.6786 0.0
C1566 C 0.74509 0.03175 0.69085 0.0
C1567 C 0.75375 0.01907 0.66519 0.0
H1568 H 0.30218 0.53755 0.88226 0.0
H1569 H 0.27298 0.61816 0.91534 0.0
H1570 H 0.25335 0.59436 0.95769 0.0
H1571 H 0.23985 0.54999 0.98221 0.0
H1572 H 0.26843 0.46912 0.94908 0.0
H1573 H 0.2929 0.49345 0.90954 0.0
C1574 C 0.29221 0.54985 0.89921 0.0
C1575 C 0.2892 0.57947 0.89612 0.0
C1576 C 0.28044 0.5359 0.92303 0.0
C1577 C 0.27577 0.59536 0.91768 0.0
C1578 C 0.26436 0.58173 0.94168 0.0
C1579 C 0.25195 0.53781 0.9666 0.0
C1580 C 0.25225 0.50789 0.96821 0.0
C1581 C 0.26588 0.55194 0.94414 0.0
C1582 C 0.26766 0.49218 0.94787 0.0
C1583 C 0.2817 0.50607 0.92542 0.0
H1584 H 0.84444 0.01911 0.82258 0.0
H1585 H 0.86101 0.10824 0.83821 0.0
H1586 H 0.91211 0.09892 0.84122 0.0
H1587 H 0.95182 0.06762 0.83032 0.0
H1588 H 0.93762 0.97838 0.81399 0.0
H1589 H 0.88582 0.98527 0.82042 0.0
C1590 C 0.85928 0.03614 0.82771 0.0
C1591 C 0.8492 0.06432 0.8302 0.0
C1592 C 0.88896 0.03068 0.82869 0.0
C1593 C 0.86846 0.08642 0.8363 0.0
C1594 C 0.89765 0.08114 0.83783 0.0
C1595 C 0.93753 0.04941 0.82932 0.0
C1596 C 0.94838 0.02255 0.82185 0.0
C1597 C 0.90816 0.05366 0.83276 0.0
C1598 C 0.92966 -0.00079 0.82005 0.0
C1599 C 0.90006 0.00325 0.82345 0.0
H1600 H 0.34032 0.5863 0.07866 0.0
H1601 H 0.29143 0.66192 0.09798 0.0
H1602 H 0.25396 0.63278 0.11945 0.0
H1603 H 0.23071 0.58582 0.12197 0.0
H1604 H 0.27969 0.51019 0.10298 0.0
H1605 H 0.32169 0.53936 0.09296 0.0
C1606 C 0.32192 0.59653 0.08837 0.0
C1607 C 0.31808 0.62616 0.08548 0.0
C1608 C 0.30019 0.57958 0.10035 0.0
C1609 C 0.2945 0.63906 0.099 0.0
C1610 C 0.27296 0.62238 0.11124 0.0
C1611 C 0.25079 0.5756 0.11656 0.0
C1612 C 0.25167 0.54596 0.11189 0.0
C1613 C 0.2748 0.59256 0.11036 0.0
C1614 C 0.27813 0.53307 0.10572 0.0
C1615 C 0.30219 0.54976 0.09989 0.0
H1616 H 0.7062 0.0961 0.31638 0.0
H1617 H 0.71909 0.02949 0.3785 0.0
H1618 H 0.66927 0.03347 0.39384 0.0
H1619 H 0.62023 0.04727 0.38027 0.0
H1620 H 0.60747 0.11425 0.31851 0.0
H1621 H 0.65913 0.11955 0.31291 0.0
C1622 C 0.69834 0.08344 0.33418 0.0
C1623 C 0.71595 0.06232 0.3461 0.0
C1624 C 0.66961 0.08566 0.34261 0.0
C1625 C 0.70583 0.04596 0.36913 0.0
C1626 C 0.67725 0.048 0.37765 0.0
C1627 C 0.62888 0.06396 0.36669 0.0
C1628 C 0.61027 0.08011 0.34957 0.0
C1629 C 0.65859 0.06652 0.36326 0.0
C1630 C 0.62146 0.10169 0.33199 0.0
C1631 C 0.65102 0.10443 0.32847 0.0
H1632 H 0.30043 0.33073 0.60845 0.0
H1633 H 0.21841 0.35137 0.57165 0.0
H1634 H 0.21401 0.30281 0.55326 0.0
H1635 H 0.23713 0.25765 0.5408 0.0
H1636 H 0.32114 0.23875 0.57396 0.0
H1637 H 0.32088 0.28329 0.601 0.0
C1638 C 0.28125 0.32443 0.59705 0.0
C1639 C 0.25997 0.3447 0.59107 0.0
C1640 C 0.27942 0.29687 0.58553 0.0
C1641 C 0.23524 0.3362 0.57627 0.0
C1642 C 0.23276 0.30848 0.56564 0.0
C1643 C 0.25513 0.26295 0.55442 0.0
C1644 C 0.27933 0.24518 0.55498 0.0
C1645 C 0.2553 0.28907 0.56905 0.0
C1646 C 0.30239 0.25227 0.57289 0.0
C1647 C 0.3023 0.27778 0.58829 0.0
H1648 H 0.34545 0.55609 0.23885 0.0
H1649 H 0.29453 0.58755 0.30921 0.0
H1650 H 0.25429 0.55842 0.29362 0.0
H1651 H 0.23633 0.5185 0.26466 0.0
H1652 H 0.287 0.48732 0.19402 0.0
H1653 H 0.3242 0.52215 0.20479 0.0
C1654 C 0.32534 0.55708 0.2504 0.0
C1655 C 0.32326 0.57356 0.2755 0.0
C1656 C 0.30227 0.54004 0.24147 0.0
C1657 C 0.29689 0.5749 0.28995 0.0
C1658 C 0.27385 0.55808 0.28116 0.0
C1659 C 0.25523 0.51973 0.25124 0.0
C1660 C 0.2591 0.49991 0.22897 0.0
C1661 C 0.27671 0.5397 0.25767 0.0
C1662 C 0.28353 0.5021 0.21149 0.0
C1663 C 0.30495 0.52195 0.21772 0.0
H1664 H 0.82212 0.11515 0.45621 0.0
H1665 H 0.76487 0.06971 0.51264 0.0
H1666 H 0.7388 0.11374 0.5223 0.0
H1667 H 0.73755 0.16599 0.52111 0.0
H1668 H 0.79706 0.21176 0.46734 0.0
H1669 H 0.8166 0.16674 0.44993 0.0
C1670 C 0.80354 0.1147 0.4701 0.0
C1671 C 0.79579 0.08924 0.48406 0.0
C1672 C 0.78924 0.14028 0.47634 0.0
C1673 C 0.77152 0.08907 0.50185 0.0
C1674 C 0.75665 0.11428 0.5075 0.0
C1675 C 0.75432 0.16617 0.50505 0.0
C1676 C 0.76617 0.19224 0.49595 0.0
C1677 C 0.76612 0.1402 0.49584 0.0
C1678 C 0.78779 0.192 0.47501 0.0
C1679 C 0.79907 0.16625 0.46511 0.0
H1680 H 0.10741 0.5206 0.78122 0.0
H1681 H 0.10339 0.52747 0.68933 0.0
H1682 H 0.1497 0.55219 0.6889 0.0
H1683 H 0.19002 0.5737 0.7152 0.0
H1684 H 0.19089 0.57026 0.8076 0.0
H1685 H 0.14665 0.54279 0.80735 0.0
C1686 C 0.11702 0.52687 0.76103 0.0
C1687 C 0.10256 0.52157 0.73524 0.0
C1688 C 0.14266 0.54227 0.76116 0.0
C1689 C 0.1146 0.53081 0.70933 0.0
C1690 C 0.14084 0.54518 0.70915 0.0
C1691 C 0.18045 0.56705 0.73527 0.0
C1692 C 0.19375 0.57404 0.76137 0.0
C1693 C 0.15481 0.55144 0.73501 0.0
C1694 C 0.18103 0.56535 0.78721 0.0
C1695 C 0.15585 0.54943 0.78711 0.0
H1696 H 0.76006 0.01617 0.96443 0.0
H1697 H 0.8222 0.01397 0.03236 0.0
H1698 H 0.83359 0.96437 0.02083 0.0
H1699 H 0.8168 0.91935 0.0 0.0
H1700 H 0.74811 0.9202 0.93876 0.0
H1701 H 0.74861 0.97239 0.93829 0.0
C1702 C 0.777 0.00515 0.97579 0.0
C1703 C 0.79036 0.01849 -0.00086 0.0
C1704 C 0.78177 0.97609 0.97045 0.0
C1705 C 0.8118 0.00397 0.01423 0.0
C1706 C 0.81806 0.97557 0.00781 0.0
C1707 C 0.80293 0.93109 0.98561 0.0
C1708 C 0.78261 0.91629 0.96926 0.0
C1709 C 0.8019 0.96096 0.98719 0.0
C1710 C 0.76406 0.93141 0.95127 0.0
C1711 C 0.76417 0.96119 0.95126 0.0
H1712 H 0.11066 0.84054 0.86904 0.0
H1713 H 0.0473 0.79468 0.82005 0.0
H1714 H 0.0149 0.79522 0.86111 0.0
H1715 H 0.00745 0.803 0.91241 0.0
H1716 H 0.0725 0.84545 0.96221 0.0
H1717 H 0.10114 0.85264 0.91904 0.0
C1718 C 0.08965 0.83091 0.8672 0.0
C1719 C 0.08159 0.81713 0.84172 0.0
C1720 C 0.07144 0.83078 0.89102 0.0
C1721 C 0.05414 0.80514 0.83955 0.0
C1722 C 0.03561 0.80545 0.86302 0.0
C1723 C 0.0275 0.81456 0.91372 0.0
C1724 C 0.03795 0.82356 0.94046 0.0
C1725 C 0.0444 0.81744 0.88909 0.0
C1726 C 0.06408 0.83827 0.94184 0.0
C1727 C 0.08055 0.84218 0.91722 0.0
H1728 H 0.51942 0.73904 0.18102 0.0
H1729 H 0.48223 0.8106 0.22572 0.0
H1730 H 0.45267 0.8214 0.18405 0.0
H1731 H 0.44474 0.81602 0.13273 0.0
H1732 H 0.48701 0.7485 0.08638 0.0
H1733 H 0.50658 0.72992 0.13117 0.0
C1734 C 0.5044 0.75663 0.18191 0.0
C1735 C 0.5034 0.77437 0.20616 0.0
C1736 C 0.48846 0.76343 0.1575 0.0
C1737 C 0.48367 0.79691 0.20709 0.0
C1738 C 0.4668 0.8031 0.18328 0.0
C1739 C 0.45744 0.79667 0.13251 0.0
C1740 C 0.46474 0.78377 0.10633 0.0
C1741 C 0.47004 0.7873 0.15797 0.0
C1742 C 0.48131 0.75883 0.10633 0.0
C1743 C 0.49268 0.74839 0.13187 0.0
H1744 H 0.52044 0.25648 0.40819 0.0
H1745 H 0.59876 0.29845 0.38373 0.0
H1746 H 0.58609 0.29313 0.33301 0.0
H1747 H 0.54871 0.28328 0.29627 0.0
H1748 H 0.46906 0.24514 0.32303 0.0
H1749 H 0.48616 0.24222 0.3721 0.0
C1750 C 0.53503 0.264 0.39174 0.0
C1751 C 0.56023 0.2782 0.39959 0.0
C1752 C 0.52705 0.26198 0.36301 0.0
C1753 C 0.57918 0.28743 0.37814 0.0
C1754 C 0.57177 0.28468 0.34918 0.0
C1755 C 0.53546 0.27392 0.31287 0.0
C1756 C 0.50756 0.26486 0.30632 0.0
C1757 C 0.54516 0.27307 0.34141 0.0
C1758 C 0.49043 0.25274 0.32781 0.0
C1759 C 0.5002 0.25096 0.35582 0.0
H1760 H 0.04637 0.34907 0.69285 0.0
H1761 H 0.08737 0.29018 0.75073 0.0
H1762 H 0.11946 0.27479 0.7125 0.0
H1763 H 0.13171 0.27368 0.66138 0.0
H1764 H 0.09002 0.33177 0.6032 0.0
H1765 H 0.0628 0.35209 0.64287 0.0
C1766 C 0.06261 0.33319 0.69727 0.0
C1767 C 0.06413 0.32056 0.72462 0.0
C1768 C 0.0808 0.32412 0.67503 0.0
C1769 C 0.08554 0.3002 0.72992 0.0
C1770 C 0.10388 0.29128 0.708 0.0
C1771 C 0.11714 0.2912 0.65738 0.0
C1772 C 0.11262 0.30078 0.62912 0.0
C1773 C 0.10112 0.30246 0.68026 0.0
C1774 C 0.09373 0.32366 0.62456 0.0
C1775 C 0.07803 0.33525 0.64728 0.0
loop_
_geom_bond_atom_site_label_1
_geom_bond_atom_site_label_2
_geom_bond_distance
_geom_bond_site_symmetry_2
_ccdc_geom_bond_type
Co0 O3 1.970 1_545 S
Co0 N17 1.989 . S
Co0 O25 1.967 1_545 S
Co0 O32 1.920 1_545 S
Co1 O4 1.966 . S
Co1 N10 2.022 . S
Co1 N18 1.993 . S
Co1 O26 1.941 1_545 S
C2 O3 1.258 . S
C2 O4 1.263 1_565 S
O3 Co0 1.970 1_565 S
O3 C2 1.258 . S
O4 Co1 1.966 . S
O4 C2 1.263 1_545 S
C5 O6 1.235 . S
C5 O32 1.289 1_645 S
O6 C5 1.235 . S
C7 C9 1.400 . S
C7 N10 1.351 . S
C7 C12 1.501 . S
C8 C9 1.387 . S
C8 N11 1.341 . S
C9 C7 1.400 . S
C9 C8 1.387 . S
N10 Co1 2.022 . S
N10 C7 1.351 . S
N10 N11 1.365 . S
N11 C8 1.341 . S
N11 N10 1.365 . S
N11 H31 0.862 . S
C12 C7 1.501 . S
C12 H13 0.961 . S
C12 H14 0.961 . S
C12 H15 0.960 . S
H13 C12 0.961 . S
H14 C12 0.961 . S
H15 C12 0.960 . S
C16 N17 1.342 . S
C16 C20 1.401 . S
C16 C21 1.499 . S
N17 Co0 1.989 . S
N17 C16 1.342 . S
N17 N18 1.388 . S
N18 Co1 1.993 . S
N18 N17 1.388 . S
N18 C19 1.346 . S
C19 N18 1.346 . S
C19 C20 1.396 . S
C19 C29 1.510 . S
C20 C16 1.401 . S
C20 C19 1.396 . S
C21 C16 1.499 . S
C21 H22 0.959 . S
C21 H23 0.960 . S
C21 H24 0.961 . S
H22 C21 0.959 . S
H23 C21 0.960 . S
H24 C21 0.961 . S
O25 Co0 1.967 1_565 S
O25 C33 1.258 . S
O26 Co1 1.941 1_565 S
O26 C33 1.266 . S
H27 C29 0.959 . S
H28 C29 0.961 . S
C29 C19 1.510 . S
C29 H27 0.959 . S
C29 H28 0.961 . S
C29 H30 0.960 . S
H30 C29 0.960 . S
H31 N11 0.862 . S
O32 Co0 1.920 1_565 S
O32 C5 1.289 1_465 S
C33 O25 1.258 . S
C33 O26 1.266 . S
Co34 O37 1.970 1_554 S
Co34 N51 1.989 . S
Co34 O59 1.967 . S
Co34 O66 1.920 . S
Co35 O38 1.966 . S
Co35 N44 2.022 . S
Co35 N52 1.993 . S
Co35 O60 1.941 . S
C36 O37 1.258 . S
C36 O38 1.263 . S
O37 Co34 1.970 1_556 S
O37 C36 1.258 . S
O38 Co35 1.966 . S
O38 C36 1.263 . S
C39 O40 1.235 . S
C39 O66 1.289 . S
O40 C39 1.235 . S
C41 C43 1.400 . S
C41 N44 1.351 . S
C41 C46 1.501 . S
C42 C43 1.387 . S
C42 N45 1.341 . S
C43 C41 1.400 . S
C43 C42 1.387 . S
N44 Co35 2.022 . S
N44 C41 1.351 . S
N44 N45 1.365 . S
N45 C42 1.341 . S
N45 N44 1.365 . S
N45 H65 0.862 . S
C46 C41 1.501 . S
C46 H47 0.961 . S
C46 H48 0.961 . S
C46 H49 0.960 . S
H47 C46 0.961 . S
H48 C46 0.961 . S
H49 C46 0.960 . S
C50 N51 1.342 . S
C50 C54 1.401 . S
C50 C55 1.499 . S
N51 Co34 1.989 . S
N51 C50 1.342 . S
N51 N52 1.388 1_554 S
N52 Co35 1.993 . S
N52 N51 1.388 1_556 S
N52 C53 1.346 . S
C53 N52 1.346 . S
C53 C54 1.396 1_556 S
C53 C63 1.510 . S
C54 C50 1.401 . S
C54 C53 1.396 1_554 S
C55 C50 1.499 . S
C55 H56 0.959 . S
C55 H57 0.960 . S
C55 H58 0.961 . S
H56 C55 0.959 . S
H57 C55 0.960 . S
H58 C55 0.961 . S
O59 Co34 1.967 . S
O59 C67 1.258 1_554 S
O60 Co35 1.941 . S
O60 C67 1.266 . S
H61 C63 0.959 . S
H62 C63 0.961 . S
C63 C53 1.510 . S
C63 H61 0.959 . S
C63 H62 0.961 . S
C63 H64 0.960 . S
H64 C63 0.960 . S
H65 N45 0.862 . S
O66 Co34 1.920 . S
O66 C39 1.289 . S
C67 O59 1.258 1_556 S
C67 O60 1.266 . S
Co68 O71 1.970 . S
Co68 N85 1.989 . S
Co68 O93 1.967 . S
Co68 O100 1.920 . S
Co69 O72 1.966 . S
Co69 N78 2.022 . S
Co69 N86 1.993 . S
Co69 O94 1.941 . S
C70 O71 1.258 . S
C70 O72 1.263 . S
O71 Co68 1.970 . S
O71 C70 1.258 . S
O72 Co69 1.966 . S
O72 C70 1.263 . S
C73 O74 1.235 . S
C73 O100 1.289 . S
O74 C73 1.235 . S
C75 C77 1.400 1_545 S
C75 N78 1.351 . S
C75 C80 1.501 . S
C76 C77 1.384 1_545 S
C76 N79 1.353 . S
C77 C75 1.400 1_565 S
C77 C76 1.384 1_565 S
N78 Co69 2.022 . S
N78 C75 1.351 . S
N78 N79 1.365 . S
N79 C76 1.353 . S
N79 N78 1.365 . S
N79 H99 0.862 . S
C80 C75 1.501 . S
C80 H81 0.961 . S
C80 H82 0.961 1_545 S
C80 H83 0.960 . S
H81 C80 0.961 . S
H82 C80 0.961 1_565 S
H83 C80 0.960 . S
C84 N85 1.342 . S
C84 C88 1.401 1_545 S
C84 C89 1.499 . S
N85 Co68 1.989 . S
N85 C84 1.342 . S
N85 N86 1.388 . S
N86 Co69 1.993 . S
N86 N85 1.388 . S
N86 C87 1.346 1_545 S
C87 N86 1.346 1_565 S
C87 C88 1.396 . S
C87 C97 1.510 . S
C88 C84 1.401 1_565 S
C88 C87 1.396 . S
C89 C84 1.499 . S
C89 H90 0.959 . S
C89 H91 0.960 1_545 S
C89 H92 0.961 . S
H90 C89 0.959 . S
H91 C89 0.960 1_565 S
H92 C89 0.961 . S
O93 Co68 1.967 . S
O93 C101 1.258 . S
O94 Co69 1.941 . S
O94 C101 1.266 . S
H95 C97 0.959 . S
H96 C97 0.961 . S
C97 C87 1.510 . S
C97 H95 0.959 . S
C97 H96 0.961 . S
C97 H98 0.960 . S
H98 C97 0.960 . S
H99 N79 0.862 . S
O100 Co68 1.920 . S
O100 C73 1.289 . S
C101 O93 1.258 . S
C101 O94 1.266 . S
Co102 O105 1.970 . S
Co102 N119 1.989 . S
Co102 O127 1.967 . S
Co102 O134 1.920 . S
Co103 O106 1.966 . S
Co103 N112 2.022 . S
Co103 N120 1.993 . S
Co103 O128 1.941 . S
C104 O105 1.258 . S
C104 O106 1.263 . S
O105 Co102 1.970 . S
O105 C104 1.258 . S
O106 Co103 1.966 . S
O106 C104 1.263 . S
C107 O108 1.235 . S
C107 O134 1.289 . S
O108 C107 1.235 . S
C109 C111 1.400 . S
C109 N112 1.351 . S
C109 C114 1.501 . S
C110 C111 1.387 . S
C110 N113 1.341 . S
C111 C109 1.400 . S
C111 C110 1.387 . S
N112 Co103 2.022 . S
N112 C109 1.351 . S
N112 N113 1.365 . S
N113 C110 1.341 . S
N113 N112 1.365 . S
N113 H133 0.862 . S
C114 C109 1.501 . S
C114 H115 0.961 . S
C114 H116 0.961 . S
C114 H117 0.960 . S
H115 C114 0.961 . S
H116 C114 0.961 . S
H117 C114 0.960 . S
C118 N119 1.342 . S
C118 C122 1.401 . S
C118 C123 1.499 . S
N119 Co102 1.989 . S
N119 C118 1.342 . S
N119 N120 1.388 . S
N120 Co103 1.993 . S
N120 N119 1.388 . S
N120 C121 1.346 . S
C121 N120 1.346 . S
C121 C122 1.396 . S
C121 C131 1.510 . S
C122 C118 1.401 . S
C122 C121 1.396 . S
C123 C118 1.499 . S
C123 H124 0.959 . S
C123 H125 0.960 . S
C123 H126 0.961 . S
H124 C123 0.959 . S
H125 C123 0.960 . S
H126 C123 0.961 . S
O127 Co102 1.967 . S
O127 C135 1.258 . S
O128 Co103 1.941 . S
O128 C135 1.266 . S
H129 C131 0.959 . S
H130 C131 0.961 . S
C131 C121 1.510 . S
C131 H129 0.959 . S
C131 H130 0.961 . S
C131 H132 0.960 . S
H132 C131 0.960 . S
H133 N113 0.862 . S
O134 Co102 1.920 . S
O134 C107 1.289 . S
C135 O127 1.258 . S
C135 O128 1.266 . S
Co136 O139 1.970 . S
Co136 N153 1.989 . S
Co136 O161 1.967 . S
Co136 O168 1.920 . S
Co137 O140 1.966 . S
Co137 N146 2.022 . S
Co137 N154 1.993 . S
Co137 O162 1.941 . S
C138 O139 1.258 . S
C138 O140 1.263 . S
O139 Co136 1.970 . S
O139 C138 1.258 . S
O140 Co137 1.966 . S
O140 C138 1.263 . S
C141 O142 1.235 . S
C141 O168 1.289 . S
O142 C141 1.235 . S
C143 C145 1.400 . S
C143 N146 1.351 . S
C143 C148 1.501 . S
C144 C145 1.387 . S
C144 N147 1.341 . S
C145 C143 1.400 . S
C145 C144 1.387 . S
N146 Co137 2.022 . S
N146 C143 1.351 . S
N146 N147 1.365 . S
N147 C144 1.341 . S
N147 N146 1.365 . S
N147 H167 0.862 . S
C148 C143 1.501 . S
C148 H149 0.961 . S
C148 H150 0.961 . S
C148 H151 0.960 . S
H149 C148 0.961 . S
H150 C148 0.961 . S
H151 C148 0.960 . S
C152 N153 1.342 . S
C152 C156 1.401 . S
C152 C157 1.499 . S
N153 Co136 1.989 . S
N153 C152 1.342 . S
N153 N154 1.388 . S
N154 Co137 1.993 . S
N154 N153 1.388 . S
N154 C155 1.346 . S
C155 N154 1.346 . S
C155 C156 1.396 . S
C155 C165 1.510 . S
C156 C152 1.401 . S
C156 C155 1.396 . S
C157 C152 1.499 . S
C157 H158 0.959 . S
C157 H159 0.960 . S
C157 H160 0.961 . S
H158 C157 0.959 . S
H159 C157 0.960 . S
H160 C157 0.961 . S
O161 Co136 1.967 . S
O161 C169 1.258 . S
O162 Co137 1.941 . S
O162 C169 1.266 . S
H163 C165 0.959 . S
H164 C165 0.961 . S
C165 C155 1.510 . S
C165 H163 0.959 . S
C165 H164 0.961 . S
C165 H166 0.960 . S
H166 C165 0.960 . S
H167 N147 0.862 . S
O168 Co136 1.920 . S
O168 C141 1.289 . S
C169 O161 1.258 . S
C169 O162 1.266 . S
Co170 O173 1.970 . S
Co170 N187 1.989 . S
Co170 O195 1.967 . S
Co170 O202 1.920 . S
Co171 O174 1.966 . S
Co171 N180 2.022 . S
Co171 N188 1.993 . S
Co171 O196 1.941 . S
C172 O173 1.258 . S
C172 O174 1.263 . S
O173 Co170 1.970 . S
O173 C172 1.258 . S
O174 Co171 1.966 . S
O174 C172 1.263 . S
C175 O176 1.235 . S
C175 O202 1.289 . S
O176 C175 1.235 . S
C177 C179 1.400 . S
C177 N180 1.351 . S
C177 C182 1.501 . S
C178 C179 1.387 . S
C178 N181 1.341 . S
C179 C177 1.400 . S
C179 C178 1.387 . S
N180 Co171 2.022 . S
N180 C177 1.351 . S
N180 N181 1.365 . S
N181 C178 1.341 . S
N181 N180 1.365 . S
N181 H201 0.862 . S
C182 C177 1.501 . S
C182 H183 0.961 . S
C182 H184 0.961 . S
C182 H185 0.960 . S
H183 C182 0.961 . S
H184 C182 0.961 . S
H185 C182 0.960 . S
C186 N187 1.342 . S
C186 C190 1.401 . S
C186 C191 1.499 . S
N187 Co170 1.989 . S
N187 C186 1.342 . S
N187 N188 1.388 . S
N188 Co171 1.993 . S
N188 N187 1.388 . S
N188 C189 1.346 . S
C189 N188 1.346 . S
C189 C190 1.396 . S
C189 C199 1.510 . S
C190 C186 1.401 . S
C190 C189 1.396 . S
C191 C186 1.499 . S
C191 H192 0.959 . S
C191 H193 0.960 . S
C191 H194 0.961 . S
H192 C191 0.959 . S
H193 C191 0.960 . S
H194 C191 0.961 . S
O195 Co170 1.967 . S
O195 C203 1.258 . S
O196 Co171 1.941 . S
O196 C203 1.266 . S
H197 C199 0.959 . S
H198 C199 0.961 . S
C199 C189 1.510 . S
C199 H197 0.959 . S
C199 H198 0.961 . S
C199 H200 0.960 . S
H200 C199 0.960 . S
H201 N181 0.862 . S
O202 Co170 1.920 . S
O202 C175 1.289 . S
C203 O195 1.258 . S
C203 O196 1.266 . S
Co204 O207 1.970 . S
Co204 N221 1.989 . S
Co204 O229 1.967 . S
Co204 O236 1.920 . S
Co205 O208 1.966 1_655 S
Co205 N214 2.022 . S
Co205 N222 1.993 . S
Co205 O230 1.941 . S
C206 O207 1.258 . S
C206 O208 1.263 . S
O207 Co204 1.970 . S
O207 C206 1.258 . S
O208 Co205 1.966 1_455 S
O208 C206 1.263 . S
C209 O210 1.235 . S
C209 O236 1.289 . S
O210 C209 1.235 . S
C211 C213 1.400 . S
C211 N214 1.351 . S
C211 C216 1.501 . S
C212 C213 1.387 . S
C212 N215 1.341 . S
C213 C211 1.400 . S
C213 C212 1.387 . S
N214 Co205 2.022 . S
N214 C211 1.351 . S
N214 N215 1.365 . S
N215 C212 1.341 . S
N215 N214 1.365 . S
N215 H235 0.862 . S
C216 C211 1.501 . S
C216 H217 0.961 . S
C216 H218 0.961 . S
C216 H219 0.960 . S
H217 C216 0.961 . S
H218 C216 0.961 . S
H219 C216 0.960 . S
C220 N221 1.342 . S
C220 C224 1.401 1_455 S
C220 C225 1.499 . S
N221 Co204 1.989 . S
N221 C220 1.342 . S
N221 N222 1.388 1_455 S
N222 Co205 1.993 . S
N222 N221 1.388 1_655 S
N222 C223 1.346 . S
C223 N222 1.346 . S
C223 C224 1.396 . S
C223 C233 1.510 . S
C224 C220 1.401 1_655 S
C224 C223 1.396 . S
C225 C220 1.499 . S
C225 H226 0.959 . S
C225 H227 0.960 . S
C225 H228 0.961 . S
H226 C225 0.959 . S
H227 C225 0.960 . S
H228 C225 0.961 . S
O229 Co204 1.967 . S
O229 C237 1.258 1_455 S
O230 Co205 1.941 . S
O230 C237 1.266 . S
H231 C233 0.959 . S
H232 C233 0.961 . S
C233 C223 1.510 . S
C233 H231 0.959 . S
C233 H232 0.961 . S
C233 H234 0.960 . S
H234 C233 0.960 . S
H235 N215 0.862 . S
O236 Co204 1.920 . S
O236 C209 1.289 . S
C237 O229 1.258 1_655 S
C237 O230 1.266 . S
Co238 O241 1.970 . S
Co238 N255 1.989 . S
Co238 O263 1.967 . S
Co238 O270 1.920 . S
Co239 O242 1.966 . S
Co239 N248 2.022 . S
Co239 N256 1.993 . S
Co239 O264 1.941 . S
C240 O241 1.258 . S
C240 O242 1.263 . S
O241 Co238 1.970 . S
O241 C240 1.258 . S
O242 Co239 1.966 . S
O242 C240 1.263 . S
C243 O244 1.235 . S
C243 O270 1.289 . S
O244 C243 1.235 . S
C245 C247 1.400 . S
C245 N248 1.351 . S
C245 C250 1.501 . S
C246 C247 1.387 . S
C246 N249 1.341 . S
C247 C245 1.400 . S
C247 C246 1.387 . S
N248 Co239 2.022 . S
N248 C245 1.351 . S
N248 N249 1.365 . S
N249 C246 1.341 . S
N249 N248 1.365 . S
N249 H269 0.862 . S
C250 C245 1.501 . S
C250 H251 0.961 . S
C250 H252 0.961 . S
C250 H253 0.960 . S
H251 C250 0.961 . S
H252 C250 0.961 . S
H253 C250 0.960 . S
C254 N255 1.342 . S
C254 C258 1.401 . S
C254 C259 1.499 . S
N255 Co238 1.989 . S
N255 C254 1.342 . S
N255 N256 1.388 . S
N256 Co239 1.993 . S
N256 N255 1.388 . S
N256 C257 1.346 . S
C257 N256 1.346 . S
C257 C258 1.396 . S
C257 C267 1.510 . S
C258 C254 1.401 . S
C258 C257 1.396 . S
C259 C254 1.499 . S
C259 H260 0.959 . S
C259 H261 0.960 . S
C259 H262 0.961 1_554 S
H260 C259 0.959 . S
H261 C259 0.960 . S
H262 C259 0.961 1_556 S
O263 Co238 1.967 . S
O263 C271 1.258 . S
O264 Co239 1.941 . S
O264 C271 1.266 . S
H265 C267 0.959 . S
H266 C267 0.961 . S
C267 C257 1.510 . S
C267 H265 0.959 . S
C267 H266 0.961 . S
C267 H268 0.960 . S
H268 C267 0.960 . S
H269 N249 0.862 . S
O270 Co238 1.920 . S
O270 C243 1.289 . S
C271 O263 1.258 . S
C271 O264 1.266 . S
Co272 O275 1.970 1_554 S
Co272 N289 1.989 . S
Co272 O297 1.967 1_554 S
Co272 O304 1.920 1_554 S
Co273 O276 1.966 . S
Co273 N282 2.022 . S
Co273 N290 1.993 . S
Co273 O298 1.941 1_554 S
C274 O275 1.258 . S
C274 O276 1.263 1_556 S
O275 Co272 1.970 1_556 S
O275 C274 1.258 . S
O276 Co273 1.966 . S
O276 C274 1.263 1_554 S
C277 O278 1.235 . S
C277 O304 1.289 1_564 S
O278 C277 1.235 . S
C279 C281 1.400 . S
C279 N282 1.351 . S
C279 C284 1.501 . S
C280 C281 1.387 . S
C280 N283 1.341 . S
C281 C279 1.400 . S
C281 C280 1.387 . S
N282 Co273 2.022 . S
N282 C279 1.351 . S
N282 N283 1.365 . S
N283 C280 1.341 . S
N283 N282 1.365 . S
N283 H303 0.862 . S
C284 C279 1.501 . S
C284 H285 0.961 . S
C284 H286 0.961 . S
C284 H287 0.960 . S
H285 C284 0.961 . S
H286 C284 0.961 . S
H287 C284 0.960 . S
C288 N289 1.342 . S
C288 C292 1.401 . S
C288 C293 1.499 . S
N289 Co272 1.989 . S
N289 C288 1.342 . S
N289 N290 1.388 . S
N290 Co273 1.993 . S
N290 N289 1.388 . S
N290 C291 1.346 . S
C291 N290 1.346 . S
C291 C292 1.396 . S
C291 C301 1.510 . S
C292 C288 1.401 . S
C292 C291 1.396 . S
C293 C288 1.499 . S
C293 H294 0.959 . S
C293 H295 0.960 . S
C293 H296 0.961 . S
H294 C293 0.959 . S
H295 C293 0.960 . S
H296 C293 0.961 . S
O297 Co272 1.967 1_556 S
O297 C305 1.258 . S
O298 Co273 1.941 1_556 S
O298 C305 1.266 . S
H299 C301 0.959 . S
H300 C301 0.961 . S
C301 C291 1.510 . S
C301 H299 0.959 . S
C301 H300 0.961 . S
C301 H302 0.960 . S
H302 C301 0.960 . S
H303 N283 0.862 . S
O304 Co272 1.920 1_556 S
O304 C277 1.289 1_546 S
C305 O297 1.258 . S
C305 O298 1.266 . S
Co306 O309 1.970 . S
Co306 N323 1.989 . S
Co306 O331 1.967 . S
Co306 O338 1.920 . S
Co307 O310 1.966 . S
Co307 N316 2.022 . S
Co307 N324 1.993 . S
Co307 O332 1.941 . S
C308 O309 1.258 . S
C308 O310 1.263 . S
O309 Co306 1.970 . S
O309 C308 1.258 . S
O310 Co307 1.966 . S
O310 C308 1.263 . S
C311 O312 1.235 . S
C311 O338 1.289 . S
O312 C311 1.235 . S
C313 C315 1.400 . S
C313 N316 1.351 . S
C313 C318 1.501 . S
C314 C315 1.387 . S
C314 N317 1.341 . S
C315 C313 1.400 . S
C315 C314 1.387 . S
N316 Co307 2.022 . S
N316 C313 1.351 . S
N316 N317 1.365 . S
N317 C314 1.341 . S
N317 N316 1.365 . S
N317 H337 0.862 . S
C318 C313 1.501 . S
C318 H319 0.961 . S
C318 H320 0.961 . S
C318 H321 0.960 . S
H319 C318 0.961 . S
H320 C318 0.961 . S
H321 C318 0.960 . S
C322 N323 1.342 . S
C322 C326 1.401 . S
C322 C327 1.499 . S
N323 Co306 1.989 . S
N323 C322 1.342 . S
N323 N324 1.388 . S
N324 Co307 1.993 . S
N324 N323 1.388 . S
N324 C325 1.346 . S
C325 N324 1.346 . S
C325 C326 1.396 . S
C325 C335 1.510 . S
C326 C322 1.401 . S
C326 C325 1.396 . S
C327 C322 1.499 . S
C327 H328 0.959 . S
C327 H329 0.960 . S
C327 H330 0.961 . S
H328 C327 0.959 . S
H329 C327 0.960 . S
H330 C327 0.961 . S
O331 Co306 1.967 . S
O331 C339 1.258 . S
O332 Co307 1.941 . S
O332 C339 1.266 . S
H333 C335 0.959 . S
H334 C335 0.961 . S
C335 C325 1.510 . S
C335 H333 0.959 . S
C335 H334 0.961 . S
C335 H336 0.960 . S
H336 C335 0.960 . S
H337 N317 0.862 . S
O338 Co306 1.920 . S
O338 C311 1.289 . S
C339 O331 1.258 . S
C339 O332 1.266 . S
Co340 O343 1.970 . S
Co340 N357 1.989 . S
Co340 O365 1.967 . S
Co340 O372 1.920 . S
Co341 O344 1.966 1_565 S
Co341 N350 2.022 . S
Co341 N358 1.993 . S
Co341 O366 1.941 . S
C342 O343 1.258 . S
C342 O344 1.263 . S
O343 Co340 1.970 . S
O343 C342 1.258 . S
O344 Co341 1.966 1_545 S
O344 C342 1.263 . S
C345 O346 1.235 . S
C345 O372 1.289 . S
O346 C345 1.235 . S
C347 C349 1.400 . S
C347 N350 1.351 . S
C347 C352 1.501 . S
C348 C349 1.387 . S
C348 N351 1.341 . S
C349 C347 1.400 . S
C349 C348 1.387 . S
N350 Co341 2.022 . S
N350 C347 1.351 . S
N350 N351 1.365 . S
N351 C348 1.341 . S
N351 N350 1.365 . S
N351 H371 0.862 . S
C352 C347 1.501 . S
C352 H353 0.961 . S
C352 H354 0.961 . S
C352 H355 0.960 . S
H353 C352 0.961 . S
H354 C352 0.961 . S
H355 C352 0.960 . S
C356 N357 1.342 . S
C356 C360 1.401 1_545 S
C356 C361 1.499 . S
N357 Co340 1.989 . S
N357 C356 1.342 . S
N357 N358 1.388 1_545 S
N358 Co341 1.993 . S
N358 N357 1.388 1_565 S
N358 C359 1.346 . S
C359 N358 1.346 . S
C359 C360 1.396 . S
C359 C369 1.510 . S
C360 C356 1.401 1_565 S
C360 C359 1.396 . S
C361 C356 1.499 . S
C361 H362 0.959 . S
C361 H363 0.960 . S
C361 H364 0.961 . S
H362 C361 0.959 . S
H363 C361 0.960 . S
H364 C361 0.961 . S
O365 Co340 1.967 . S
O365 C373 1.258 1_545 S
O366 Co341 1.941 . S
O366 C373 1.266 . S
H367 C369 0.959 . S
H368 C369 0.961 . S
C369 C359 1.510 . S
C369 H367 0.959 . S
C369 H368 0.961 . S
C369 H370 0.960 . S
H370 C369 0.960 . S
H371 N351 0.862 . S
O372 Co340 1.920 . S
O372 C345 1.289 . S
C373 O365 1.258 1_565 S
C373 O366 1.266 . S
Co374 O377 1.970 . S
Co374 N391 1.989 . S
Co374 O399 1.967 . S
Co374 O406 1.920 . S
Co375 O378 1.966 . S
Co375 N384 2.022 . S
Co375 N392 1.993 . S
Co375 O400 1.941 . S
C376 O377 1.258 . S
C376 O378 1.263 . S
O377 Co374 1.970 . S
O377 C376 1.258 . S
O378 Co375 1.966 . S
O378 C376 1.263 . S
C379 O380 1.235 . S
C379 O406 1.289 . S
O380 C379 1.235 . S
C381 C383 1.400 . S
C381 N384 1.351 . S
C381 C386 1.501 . S
C382 C383 1.387 . S
C382 N385 1.341 . S
C383 C381 1.400 . S
C383 C382 1.387 . S
N384 Co375 2.022 . S
N384 C381 1.351 . S
N384 N385 1.365 . S
N385 C382 1.341 . S
N385 N384 1.365 . S
N385 H405 0.862 . S
C386 C381 1.501 . S
C386 H387 0.961 . S
C386 H388 0.961 . S
C386 H389 0.960 . S
H387 C386 0.961 . S
H388 C386 0.961 . S
H389 C386 0.960 . S
C390 N391 1.342 . S
C390 C394 1.401 . S
C390 C395 1.499 . S
N391 Co374 1.989 . S
N391 C390 1.342 . S
N391 N392 1.388 . S
N392 Co375 1.993 . S
N392 N391 1.388 . S
N392 C393 1.346 . S
C393 N392 1.346 . S
C393 C394 1.396 . S
C393 C403 1.510 . S
C394 C390 1.401 . S
C394 C393 1.396 . S
C395 C390 1.499 . S
C395 H396 0.959 . S
C395 H397 0.960 . S
C395 H398 0.961 . S
H396 C395 0.959 . S
H397 C395 0.960 . S
H398 C395 0.961 . S
O399 Co374 1.967 . S
O399 C407 1.258 . S
O400 Co375 1.941 . S
O400 C407 1.266 . S
H401 C403 0.959 . S
H402 C403 0.961 . S
C403 C393 1.510 . S
C403 H401 0.959 . S
C403 H402 0.961 . S
C403 H404 0.960 . S
H404 C403 0.960 . S
H405 N385 0.862 . S
O406 Co374 1.920 . S
O406 C379 1.289 . S
C407 O399 1.258 . S
C407 O400 1.266 . S
Co408 O411 1.970 . S
Co408 N425 1.989 . S
Co408 O433 1.967 . S
Co408 O440 1.920 . S
Co409 O412 1.966 . S
Co409 N418 2.022 . S
Co409 N426 1.993 . S
Co409 O434 1.941 . S
C410 O411 1.258 . S
C410 O412 1.263 . S
O411 Co408 1.970 . S
O411 C410 1.258 . S
O412 Co409 1.966 . S
O412 C410 1.263 . S
C413 O414 1.235 . S
C413 O440 1.289 . S
O414 C413 1.235 . S
C415 C417 1.400 1_554 S
C415 N418 1.351 . S
C415 C420 1.501 . S
C416 C417 1.384 1_554 S
C416 N419 1.353 . S
C417 C415 1.400 1_556 S
C417 C416 1.384 1_556 S
N418 Co409 2.022 . S
N418 C415 1.351 . S
N418 N419 1.365 . S
N419 C416 1.353 . S
N419 N418 1.365 . S
N419 H439 0.862 . S
C420 C415 1.501 . S
C420 H421 0.961 . S
C420 H422 0.961 1_554 S
C420 H423 0.960 . S
H421 C420 0.961 . S
H422 C420 0.961 1_556 S
H423 C420 0.960 . S
C424 N425 1.342 . S
C424 C428 1.401 1_554 S
C424 C429 1.499 . S
N425 Co408 1.989 . S
N425 C424 1.342 . S
N425 N426 1.388 . S
N426 Co409 1.993 . S
N426 N425 1.388 . S
N426 C427 1.346 1_554 S
C427 N426 1.346 1_556 S
C427 C428 1.396 . S
C427 C437 1.510 . S
C428 C424 1.401 1_556 S
C428 C427 1.396 . S
C429 C424 1.499 . S
C429 H430 0.959 . S
C429 H431 0.960 1_554 S
C429 H432 0.961 . S
H430 C429 0.959 . S
H431 C429 0.960 1_556 S
H432 C429 0.961 . S
O433 Co408 1.967 . S
O433 C441 1.258 . S
O434 Co409 1.941 . S
O434 C441 1.266 . S
H435 C437 0.959 . S
H436 C437 0.961 . S
C437 C427 1.510 . S
C437 H435 0.959 . S
C437 H436 0.961 . S
C437 H438 0.960 . S
H438 C437 0.960 . S
H439 N419 0.862 . S
O440 Co408 1.920 . S
O440 C413 1.289 . S
C441 O433 1.258 . S
C441 O434 1.266 . S
Co442 O445 1.970 1_545 S
Co442 N459 1.989 . S
Co442 O467 1.967 . S
Co442 O474 1.920 . S
Co443 O446 1.966 . S
Co443 N452 2.022 . S
Co443 N460 1.993 . S
Co443 O468 1.941 . S
C444 O445 1.258 . S
C444 O446 1.263 . S
O445 Co442 1.970 1_565 S
O445 C444 1.258 . S
O446 Co443 1.966 . S
O446 C444 1.263 . S
C447 O448 1.235 . S
C447 O474 1.289 . S
O448 C447 1.235 . S
C449 C451 1.400 . S
C449 N452 1.351 . S
C449 C454 1.501 . S
C450 C451 1.387 . S
C450 N453 1.341 . S
C451 C449 1.400 . S
C451 C450 1.387 . S
N452 Co443 2.022 . S
N452 C449 1.351 . S
N452 N453 1.365 . S
N453 C450 1.341 . S
N453 N452 1.365 . S
N453 H473 0.862 . S
C454 C449 1.501 . S
C454 H455 0.961 . S
C454 H456 0.961 . S
C454 H457 0.960 . S
H455 C454 0.961 . S
H456 C454 0.961 . S
H457 C454 0.960 . S
C458 N459 1.342 . S
C458 C462 1.401 . S
C458 C463 1.499 . S
N459 Co442 1.989 . S
N459 C458 1.342 . S
N459 N460 1.388 1_545 S
N460 Co443 1.993 . S
N460 N459 1.388 1_565 S
N460 C461 1.346 . S
C461 N460 1.346 . S
C461 C462 1.396 1_565 S
C461 C471 1.510 . S
C462 C458 1.401 . S
C462 C461 1.396 1_545 S
C463 C458 1.499 . S
C463 H464 0.959 . S
C463 H465 0.960 . S
C463 H466 0.961 . S
H464 C463 0.959 . S
H465 C463 0.960 . S
H466 C463 0.961 . S
O467 Co442 1.967 . S
O467 C475 1.258 1_545 S
O468 Co443 1.941 . S
O468 C475 1.266 . S
H469 C471 0.959 . S
H470 C471 0.961 . S
C471 C461 1.510 . S
C471 H469 0.959 . S
C471 H470 0.961 . S
C471 H472 0.960 . S
H472 C471 0.960 . S
H473 N453 0.862 . S
O474 Co442 1.920 . S
O474 C447 1.289 . S
C475 O467 1.258 1_565 S
C475 O468 1.266 . S
Co476 O479 1.970 . S
Co476 N493 1.989 . S
Co476 O501 1.967 . S
Co476 O508 1.920 . S
Co477 O480 1.966 . S
Co477 N486 2.022 . S
Co477 N494 1.993 . S
Co477 O502 1.941 . S
C478 O479 1.258 . S
C478 O480 1.263 . S
O479 Co476 1.970 . S
O479 C478 1.258 . S
O480 Co477 1.966 . S
O480 C478 1.263 . S
C481 O482 1.235 . S
C481 O508 1.289 . S
O482 C481 1.235 . S
C483 C485 1.400 . S
C483 N486 1.351 . S
C483 C488 1.501 . S
C484 C485 1.387 . S
C484 N487 1.341 . S
C485 C483 1.400 . S
C485 C484 1.387 . S
N486 Co477 2.022 . S
N486 C483 1.351 . S
N486 N487 1.365 . S
N487 C484 1.341 . S
N487 N486 1.365 . S
N487 H507 0.862 . S
C488 C483 1.501 . S
C488 H489 0.961 . S
C488 H490 0.961 . S
C488 H491 0.960 . S
H489 C488 0.961 . S
H490 C488 0.961 . S
H491 C488 0.960 . S
C492 N493 1.342 . S
C492 C496 1.401 . S
C492 C497 1.499 . S
N493 Co476 1.989 . S
N493 C492 1.342 . S
N493 N494 1.388 . S
N494 Co477 1.993 . S
N494 N493 1.388 . S
N494 C495 1.346 . S
C495 N494 1.346 . S
C495 C496 1.396 . S
C495 C505 1.510 . S
C496 C492 1.401 . S
C496 C495 1.396 . S
C497 C492 1.499 . S
C497 H498 0.959 . S
C497 H499 0.960 . S
C497 H500 0.961 . S
H498 C497 0.959 . S
H499 C497 0.960 . S
H500 C497 0.961 . S
O501 Co476 1.967 . S
O501 C509 1.258 . S
O502 Co477 1.941 . S
O502 C509 1.266 . S
H503 C505 0.959 . S
H504 C505 0.961 . S
C505 C495 1.510 . S
C505 H503 0.959 . S
C505 H504 0.961 . S
C505 H506 0.960 . S
H506 C505 0.960 . S
H507 N487 0.862 . S
O508 Co476 1.920 . S
O508 C481 1.289 . S
C509 O501 1.258 . S
C509 O502 1.266 . S
Co510 O513 1.970 . S
Co510 N527 1.989 . S
Co510 O535 1.967 . S
Co510 O542 1.920 . S
Co511 O514 1.966 . S
Co511 N520 2.022 . S
Co511 N528 1.993 . S
Co511 O536 1.941 . S
C512 O513 1.258 . S
C512 O514 1.263 . S
O513 Co510 1.970 . S
O513 C512 1.258 . S
O514 Co511 1.966 . S
O514 C512 1.263 . S
C515 O516 1.235 . S
C515 O542 1.289 . S
O516 C515 1.235 . S
C517 C519 1.400 . S
C517 N520 1.351 . S
C517 C522 1.501 . S
C518 C519 1.387 . S
C518 N521 1.341 . S
C519 C517 1.400 . S
C519 C518 1.387 . S
N520 Co511 2.022 . S
N520 C517 1.351 . S
N520 N521 1.365 . S
N521 C518 1.341 . S
N521 N520 1.365 . S
N521 H541 0.862 . S
C522 C517 1.501 . S
C522 H523 0.961 . S
C522 H524 0.961 . S
C522 H525 0.960 . S
H523 C522 0.961 . S
H524 C522 0.961 . S
H525 C522 0.960 . S
C526 N527 1.342 . S
C526 C530 1.401 . S
C526 C531 1.499 . S
N527 Co510 1.989 . S
N527 C526 1.342 . S
N527 N528 1.388 . S
N528 Co511 1.993 . S
N528 N527 1.388 . S
N528 C529 1.346 . S
C529 N528 1.346 . S
C529 C530 1.396 . S
C529 C539 1.510 . S
C530 C526 1.401 . S
C530 C529 1.396 . S
C531 C526 1.499 . S
C531 H532 0.959 . S
C531 H533 0.960 . S
C531 H534 0.961 1_545 S
H532 C531 0.959 . S
H533 C531 0.960 . S
H534 C531 0.961 1_565 S
O535 Co510 1.967 . S
O535 C543 1.258 . S
O536 Co511 1.941 . S
O536 C543 1.266 . S
H537 C539 0.959 . S
H538 C539 0.961 . S
C539 C529 1.510 . S
C539 H537 0.959 . S
C539 H538 0.961 . S
C539 H540 0.960 . S
H540 C539 0.960 . S
H541 N521 0.862 . S
O542 Co510 1.920 . S
O542 C515 1.289 . S
C543 O535 1.258 . S
C543 O536 1.266 . S
Co544 O547 1.970 1_455 S
Co544 N561 1.989 . S
Co544 O569 1.967 1_455 S
Co544 O576 1.920 1_455 S
Co545 O548 1.966 . S
Co545 N554 2.022 . S
Co545 N562 1.993 . S
Co545 O570 1.941 1_455 S
C546 O547 1.258 . S
C546 O548 1.263 1_655 S
O547 Co544 1.970 1_655 S
O547 C546 1.258 . S
O548 Co545 1.966 . S
O548 C546 1.263 1_455 S
C549 O550 1.235 . S
C549 O576 1.289 1_456 S
O550 C549 1.235 . S
C551 C553 1.400 . S
C551 N554 1.351 . S
C551 C556 1.501 . S
C552 C553 1.387 . S
C552 N555 1.341 . S
C553 C551 1.400 . S
C553 C552 1.387 . S
N554 Co545 2.022 . S
N554 C551 1.351 . S
N554 N555 1.365 . S
N555 C552 1.341 . S
N555 N554 1.365 . S
N555 H575 0.862 . S
C556 C551 1.501 . S
C556 H557 0.961 . S
C556 H558 0.961 . S
C556 H559 0.960 . S
H557 C556 0.961 . S
H558 C556 0.961 . S
H559 C556 0.960 . S
C560 N561 1.342 . S
C560 C564 1.401 . S
C560 C565 1.499 . S
N561 Co544 1.989 . S
N561 C560 1.342 . S
N561 N562 1.388 . S
N562 Co545 1.993 . S
N562 N561 1.388 . S
N562 C563 1.346 . S
C563 N562 1.346 . S
C563 C564 1.396 . S
C563 C573 1.510 . S
C564 C560 1.401 . S
C564 C563 1.396 . S
C565 C560 1.499 . S
C565 H566 0.959 . S
C565 H567 0.960 . S
C565 H568 0.961 . S
H566 C565 0.959 . S
H567 C565 0.960 . S
H568 C565 0.961 . S
O569 Co544 1.967 1_655 S
O569 C577 1.258 . S
O570 Co545 1.941 1_655 S
O570 C577 1.266 . S
H571 C573 0.959 . S
H572 C573 0.961 . S
C573 C563 1.510 . S
C573 H571 0.959 . S
C573 H572 0.961 . S
C573 H574 0.960 . S
H574 C573 0.960 . S
H575 N555 0.862 . S
O576 Co544 1.920 1_655 S
O576 C549 1.289 1_654 S
C577 O569 1.258 . S
C577 O570 1.266 . S
Co578 O581 1.970 . S
Co578 N595 1.989 . S
Co578 O603 1.967 . S
Co578 O610 1.920 . S
Co579 O582 1.966 1_556 S
Co579 N588 2.022 . S
Co579 N596 1.993 . S
Co579 O604 1.941 . S
C580 O581 1.258 . S
C580 O582 1.263 . S
O581 Co578 1.970 . S
O581 C580 1.258 . S
O582 Co579 1.966 1_554 S
O582 C580 1.263 . S
C583 O584 1.235 . S
C583 O610 1.289 . S
O584 C583 1.235 . S
C585 C587 1.400 . S
C585 N588 1.351 . S
C585 C590 1.501 . S
C586 C587 1.387 . S
C586 N589 1.341 . S
C587 C585 1.400 . S
C587 C586 1.387 . S
N588 Co579 2.022 . S
N588 C585 1.351 . S
N588 N589 1.365 . S
N589 C586 1.341 . S
N589 N588 1.365 . S
N589 H609 0.862 . S
C590 C585 1.501 . S
C590 H591 0.961 . S
C590 H592 0.961 . S
C590 H593 0.960 . S
H591 C590 0.961 . S
H592 C590 0.961 . S
H593 C590 0.960 . S
C594 N595 1.342 . S
C594 C598 1.401 1_554 S
C594 C599 1.499 . S
N595 Co578 1.989 . S
N595 C594 1.342 . S
N595 N596 1.388 1_554 S
N596 Co579 1.993 . S
N596 N595 1.388 1_556 S
N596 C597 1.346 . S
C597 N596 1.346 . S
C597 C598 1.396 . S
C597 C607 1.510 . S
C598 C594 1.401 1_556 S
C598 C597 1.396 . S
C599 C594 1.499 . S
C599 H600 0.959 . S
C599 H601 0.960 . S
C599 H602 0.961 . S
H600 C599 0.959 . S
H601 C599 0.960 . S
H602 C599 0.961 . S
O603 Co578 1.967 . S
O603 C611 1.258 1_554 S
O604 Co579 1.941 . S
O604 C611 1.266 . S
H605 C607 0.959 . S
H606 C607 0.961 . S
C607 C597 1.510 . S
C607 H605 0.959 . S
C607 H606 0.961 . S
C607 H608 0.960 . S
H608 C607 0.960 . S
H609 N589 0.862 . S
O610 Co578 1.920 . S
O610 C583 1.289 . S
C611 O603 1.258 1_556 S
C611 O604 1.266 . S
Co612 O615 1.970 . S
Co612 N629 1.989 . S
Co612 O637 1.967 . S
Co612 O644 1.920 . S
Co613 O616 1.966 . S
Co613 N622 2.022 . S
Co613 N630 1.993 . S
Co613 O638 1.941 . S
C614 O615 1.258 . S
C614 O616 1.263 . S
O615 Co612 1.970 . S
O615 C614 1.258 . S
O616 Co613 1.966 . S
O616 C614 1.263 . S
C617 O618 1.235 . S
C617 O644 1.289 . S
O618 C617 1.235 . S
C619 C621 1.400 . S
C619 N622 1.351 . S
C619 C624 1.501 . S
C620 C621 1.387 . S
C620 N623 1.341 . S
C621 C619 1.400 . S
C621 C620 1.387 . S
N622 Co613 2.022 . S
N622 C619 1.351 . S
N622 N623 1.365 . S
N623 C620 1.341 . S
N623 N622 1.365 . S
N623 H643 0.862 . S
C624 C619 1.501 . S
C624 H625 0.961 . S
C624 H626 0.961 . S
C624 H627 0.960 . S
H625 C624 0.961 . S
H626 C624 0.961 . S
H627 C624 0.960 . S
C628 N629 1.342 . S
C628 C632 1.401 . S
C628 C633 1.499 . S
N629 Co612 1.989 . S
N629 C628 1.342 . S
N629 N630 1.388 . S
N630 Co613 1.993 . S
N630 N629 1.388 . S
N630 C631 1.346 . S
C631 N630 1.346 . S
C631 C632 1.396 . S
C631 C641 1.510 . S
C632 C628 1.401 . S
C632 C631 1.396 . S
C633 C628 1.499 . S
C633 H634 0.959 . S
C633 H635 0.960 . S
C633 H636 0.961 . S
H634 C633 0.959 . S
H635 C633 0.960 . S
H636 C633 0.961 . S
O637 Co612 1.967 . S
O637 C645 1.258 . S
O638 Co613 1.941 . S
O638 C645 1.266 . S
H639 C641 0.959 . S
H640 C641 0.961 . S
C641 C631 1.510 . S
C641 H639 0.959 . S
C641 H640 0.961 . S
C641 H642 0.960 . S
H642 C641 0.960 . S
H643 N623 0.862 . S
O644 Co612 1.920 . S
O644 C617 1.289 . S
C645 O637 1.258 . S
C645 O638 1.266 . S
Co646 O649 1.970 . S
Co646 N663 1.989 . S
Co646 O671 1.967 . S
Co646 O678 1.920 . S
Co647 O650 1.966 . S
Co647 N656 2.022 . S
Co647 N664 1.993 . S
Co647 O672 1.941 . S
C648 O649 1.258 . S
C648 O650 1.263 . S
O649 Co646 1.970 . S
O649 C648 1.258 . S
O650 Co647 1.966 . S
O650 C648 1.263 . S
C651 O652 1.235 . S
C651 O678 1.289 . S
O652 C651 1.235 . S
C653 C655 1.400 1_455 S
C653 N656 1.351 . S
C653 C658 1.501 . S
C654 C655 1.384 1_455 S
C654 N657 1.353 . S
C655 C653 1.400 1_655 S
C655 C654 1.384 1_655 S
N656 Co647 2.022 . S
N656 C653 1.351 . S
N656 N657 1.365 . S
N657 C654 1.353 . S
N657 N656 1.365 . S
N657 H677 0.862 . S
C658 C653 1.501 . S
C658 H659 0.961 . S
C658 H660 0.961 1_455 S
C658 H661 0.960 . S
H659 C658 0.961 . S
H660 C658 0.961 1_655 S
H661 C658 0.960 . S
C662 N663 1.342 . S
C662 C666 1.401 1_455 S
C662 C667 1.499 . S
N663 Co646 1.989 . S
N663 C662 1.342 . S
N663 N664 1.388 . S
N664 Co647 1.993 . S
N664 N663 1.388 . S
N664 C665 1.346 1_455 S
C665 N664 1.346 1_655 S
C665 C666 1.396 . S
C665 C675 1.510 . S
C666 C662 1.401 1_655 S
C666 C665 1.396 . S
C667 C662 1.499 . S
C667 H668 0.959 . S
C667 H669 0.960 1_455 S
C667 H670 0.961 . S
H668 C667 0.959 . S
H669 C667 0.960 1_655 S
H670 C667 0.961 . S
O671 Co646 1.967 . S
O671 C679 1.258 . S
O672 Co647 1.941 . S
O672 C679 1.266 . S
H673 C675 0.959 . S
H674 C675 0.961 . S
C675 C665 1.510 . S
C675 H673 0.959 . S
C675 H674 0.961 . S
C675 H676 0.960 . S
H676 C675 0.960 . S
H677 N657 0.862 . S
O678 Co646 1.920 . S
O678 C651 1.289 . S
C679 O671 1.258 . S
C679 O672 1.266 . S
Co680 O683 1.970 . S
Co680 N697 1.989 . S
Co680 O705 1.967 . S
Co680 O712 1.920 . S
Co681 O684 1.966 . S
Co681 N690 2.022 . S
Co681 N698 1.993 . S
Co681 O706 1.941 . S
C682 O683 1.258 . S
C682 O684 1.263 . S
O683 Co680 1.970 . S
O683 C682 1.258 . S
O684 Co681 1.966 . S
O684 C682 1.263 . S
C685 O686 1.235 . S
C685 O712 1.289 . S
O686 C685 1.235 . S
C687 C689 1.400 . S
C687 N690 1.351 . S
C687 C692 1.501 . S
C688 C689 1.387 . S
C688 N691 1.341 . S
C689 C687 1.400 . S
C689 C688 1.387 . S
N690 Co681 2.022 . S
N690 C687 1.351 . S
N690 N691 1.365 . S
N691 C688 1.341 . S
N691 N690 1.365 . S
N691 H711 0.862 . S
C692 C687 1.501 . S
C692 H693 0.961 . S
C692 H694 0.961 . S
C692 H695 0.960 . S
H693 C692 0.961 . S
H694 C692 0.961 . S
H695 C692 0.960 . S
C696 N697 1.342 . S
C696 C700 1.401 . S
C696 C701 1.499 . S
N697 Co680 1.989 . S
N697 C696 1.342 . S
N697 N698 1.388 . S
N698 Co681 1.993 . S
N698 N697 1.388 . S
N698 C699 1.346 . S
C699 N698 1.346 . S
C699 C700 1.396 . S
C699 C709 1.510 . S
C700 C696 1.401 . S
C700 C699 1.396 . S
C701 C696 1.499 . S
C701 H702 0.959 . S
C701 H703 0.960 . S
C701 H704 0.961 1_455 S
H702 C701 0.959 . S
H703 C701 0.960 . S
H704 C701 0.961 1_655 S
O705 Co680 1.967 . S
O705 C713 1.258 . S
O706 Co681 1.941 . S
O706 C713 1.266 . S
H707 C709 0.959 . S
H708 C709 0.961 . S
C709 C699 1.510 . S
C709 H707 0.959 . S
C709 H708 0.961 . S
C709 H710 0.960 . S
H710 C709 0.960 . S
H711 N691 0.862 . S
O712 Co680 1.920 . S
O712 C685 1.289 . S
C713 O705 1.258 . S
C713 O706 1.266 . S
Co714 O717 1.970 . S
Co714 N731 1.989 . S
Co714 O739 1.967 . S
Co714 O746 1.920 . S
Co715 O718 1.966 . S
Co715 N724 2.022 . S
Co715 N732 1.993 . S
Co715 O740 1.941 . S
C716 O717 1.258 . S
C716 O718 1.263 . S
O717 Co714 1.970 . S
O717 C716 1.258 . S
O718 Co715 1.966 . S
O718 C716 1.263 . S
C719 O720 1.235 . S
C719 O746 1.289 . S
O720 C719 1.235 . S
C721 C723 1.400 . S
C721 N724 1.351 . S
C721 C726 1.501 . S
C722 C723 1.387 . S
C722 N725 1.341 . S
C723 C721 1.400 . S
C723 C722 1.387 . S
N724 Co715 2.022 . S
N724 C721 1.351 . S
N724 N725 1.365 . S
N725 C722 1.341 . S
N725 N724 1.365 . S
N725 H745 0.862 . S
C726 C721 1.501 . S
C726 H727 0.961 . S
C726 H728 0.961 . S
C726 H729 0.960 . S
H727 C726 0.961 . S
H728 C726 0.961 . S
H729 C726 0.960 . S
C730 N731 1.342 . S
C730 C734 1.401 . S
C730 C735 1.499 . S
N731 Co714 1.989 . S
N731 C730 1.342 . S
N731 N732 1.388 . S
N732 Co715 1.993 . S
N732 N731 1.388 . S
N732 C733 1.346 . S
C733 N732 1.346 . S
C733 C734 1.396 . S
C733 C743 1.510 . S
C734 C730 1.401 . S
C734 C733 1.396 . S
C735 C730 1.499 . S
C735 H736 0.959 . S
C735 H737 0.960 . S
C735 H738 0.961 . S
H736 C735 0.959 . S
H737 C735 0.960 . S
H738 C735 0.961 . S
O739 Co714 1.967 . S
O739 C747 1.258 . S
O740 Co715 1.941 . S
O740 C747 1.266 . S
H741 C743 0.959 . S
H742 C743 0.961 . S
C743 C733 1.510 . S
C743 H741 0.959 . S
C743 H742 0.961 . S
C743 H744 0.960 . S
H744 C743 0.960 . S
H745 N725 0.862 . S
O746 Co714 1.920 . S
O746 C719 1.289 . S
C747 O739 1.258 . S
C747 O740 1.266 . S
Co748 O751 1.970 1_455 S
Co748 N765 1.989 . S
Co748 O773 1.967 . S
Co748 O780 1.920 . S
Co749 O752 1.966 . S
Co749 N758 2.022 . S
Co749 N766 1.993 . S
Co749 O774 1.941 . S
C750 O751 1.258 . S
C750 O752 1.263 . S
O751 Co748 1.970 1_655 S
O751 C750 1.258 . S
O752 Co749 1.966 . S
O752 C750 1.263 . S
C753 O754 1.235 . S
C753 O780 1.289 . S
O754 C753 1.235 . S
C755 C757 1.400 . S
C755 N758 1.351 . S
C755 C760 1.501 . S
C756 C757 1.387 . S
C756 N759 1.341 . S
C757 C755 1.400 . S
C757 C756 1.387 . S
N758 Co749 2.022 . S
N758 C755 1.351 . S
N758 N759 1.365 . S
N759 C756 1.341 . S
N759 N758 1.365 . S
N759 H779 0.862 . S
C760 C755 1.501 . S
C760 H761 0.961 . S
C760 H762 0.961 . S
C760 H763 0.960 . S
H761 C760 0.961 . S
H762 C760 0.961 . S
H763 C760 0.960 . S
C764 N765 1.342 . S
C764 C768 1.401 . S
C764 C769 1.499 . S
N765 Co748 1.989 . S
N765 C764 1.342 . S
N765 N766 1.388 1_455 S
N766 Co749 1.993 . S
N766 N765 1.388 1_655 S
N766 C767 1.346 . S
C767 N766 1.346 . S
C767 C768 1.396 1_655 S
C767 C777 1.510 . S
C768 C764 1.401 . S
C768 C767 1.396 1_455 S
C769 C764 1.499 . S
C769 H770 0.959 . S
C769 H771 0.960 . S
C769 H772 0.961 . S
H770 C769 0.959 . S
H771 C769 0.960 . S
H772 C769 0.961 . S
O773 Co748 1.967 . S
O773 C781 1.258 1_455 S
O774 Co749 1.941 . S
O774 C781 1.266 . S
H775 C777 0.959 . S
H776 C777 0.961 . S
C777 C767 1.510 . S
C777 H775 0.959 . S
C777 H776 0.961 . S
C777 H778 0.960 . S
H778 C777 0.960 . S
H779 N759 0.862 . S
O780 Co748 1.920 . S
O780 C753 1.289 . S
C781 O773 1.258 1_655 S
C781 O774 1.266 . S
Co782 O785 1.970 . S
Co782 N799 1.989 . S
Co782 O807 1.967 . S
Co782 O814 1.920 . S
Co783 O786 1.966 . S
Co783 N792 2.022 . S
Co783 N800 1.993 . S
Co783 O808 1.941 . S
C784 O785 1.258 . S
C784 O786 1.263 . S
O785 Co782 1.970 . S
O785 C784 1.258 . S
O786 Co783 1.966 . S
O786 C784 1.263 . S
C787 O788 1.235 . S
C787 O814 1.289 . S
O788 C787 1.235 . S
C789 C791 1.400 . S
C789 N792 1.351 . S
C789 C794 1.501 . S
C790 C791 1.387 . S
C790 N793 1.341 . S
C791 C789 1.400 . S
C791 C790 1.387 . S
N792 Co783 2.022 . S
N792 C789 1.351 . S
N792 N793 1.365 . S
N793 C790 1.341 . S
N793 N792 1.365 . S
N793 H813 0.862 . S
C794 C789 1.501 . S
C794 H795 0.961 . S
C794 H796 0.961 . S
C794 H797 0.960 . S
H795 C794 0.961 . S
H796 C794 0.961 . S
H797 C794 0.960 . S
C798 N799 1.342 . S
C798 C802 1.401 . S
C798 C803 1.499 . S
N799 Co782 1.989 . S
N799 C798 1.342 . S
N799 N800 1.388 . S
N800 Co783 1.993 . S
N800 N799 1.388 . S
N800 C801 1.346 . S
C801 N800 1.346 . S
C801 C802 1.396 . S
C801 C811 1.510 . S
C802 C798 1.401 . S
C802 C801 1.396 . S
C803 C798 1.499 . S
C803 H804 0.959 . S
C803 H805 0.960 . S
C803 H806 0.961 . S
H804 C803 0.959 . S
H805 C803 0.960 . S
H806 C803 0.961 . S
O807 Co782 1.967 . S
O807 C815 1.258 . S
O808 Co783 1.941 . S
O808 C815 1.266 . S
H809 C811 0.959 . S
H810 C811 0.961 . S
C811 C801 1.510 . S
C811 H809 0.959 . S
C811 H810 0.961 . S
C811 H812 0.960 . S
H812 C811 0.960 . S
H813 N793 0.862 . S
O814 Co782 1.920 . S
O814 C787 1.289 . S
C815 O807 1.258 . S
C815 O808 1.266 . S
H816 C822 0.930 . S
H817 C825 0.930 . S
H818 C826 0.930 . S
H819 C827 0.930 . S
H820 C830 0.930 . S
H821 C831 0.930 . S
C822 H816 0.930 . S
C822 C823 1.355 . S
C822 C824 1.415 . S
C823 C822 1.355 . S
C823 C825 1.419 . S
C824 C822 1.415 . S
C824 C829 1.425 . S
C824 C831 1.409 . S
C825 H817 0.930 . S
C825 C823 1.419 . S
C825 C826 1.362 . S
C826 H818 0.930 . S
C826 C825 1.362 . S
C826 C829 1.409 . S
C827 H819 0.930 . S
C827 C828 1.355 . S
C827 C829 1.415 . S
C828 C827 1.355 . S
C828 C830 1.419 . S
C829 C824 1.425 . S
C829 C826 1.409 . S
C829 C827 1.415 . S
C830 H820 0.930 . S
C830 C828 1.419 . S
C830 C831 1.362 . S
C831 H821 0.930 . S
C831 C824 1.409 . S
C831 C830 1.362 . S
H832 C838 0.930 1_554 S
H833 C841 0.930 . S
H834 C842 0.930 . S
H835 C843 0.930 . S
H836 C846 0.930 . S
H837 C847 0.930 . S
C838 H832 0.930 1_556 S
C838 C839 1.355 . S
C838 C840 1.415 . S
C839 C838 1.355 . S
C839 C841 1.419 . S
C840 C838 1.415 . S
C840 C845 1.425 . S
C840 C847 1.409 1_556 S
C841 H833 0.930 . S
C841 C839 1.419 . S
C841 C842 1.362 . S
C842 H834 0.930 . S
C842 C841 1.362 . S
C842 C845 1.409 . S
C843 H835 0.930 . S
C843 C844 1.355 1_556 S
C843 C845 1.415 . S
C844 C843 1.355 1_554 S
C844 C846 1.419 . S
C845 C840 1.425 . S
C845 C842 1.409 . S
C845 C843 1.415 . S
C846 H836 0.930 . S
C846 C844 1.419 . S
C846 C847 1.362 . S
C847 H837 0.930 . S
C847 C840 1.409 1_554 S
C847 C846 1.362 . S
H848 C854 0.930 . S
H849 C857 0.930 . S
H850 C858 0.930 . S
H851 C859 0.930 . S
H852 C862 0.930 . S
H853 C863 0.930 . S
C854 H848 0.930 . S
C854 C855 1.355 . S
C854 C856 1.415 . S
C855 C854 1.355 . S
C855 C857 1.419 . S
C856 C854 1.415 . S
C856 C861 1.425 . S
C856 C863 1.409 . S
C857 H849 0.930 . S
C857 C855 1.419 . S
C857 C858 1.362 . S
C858 H850 0.930 . S
C858 C857 1.362 . S
C858 C861 1.409 . S
C859 H851 0.930 . S
C859 C860 1.355 . S
C859 C861 1.415 . S
C860 C859 1.355 . S
C860 C862 1.419 . S
C861 C856 1.425 . S
C861 C858 1.409 . S
C861 C859 1.415 . S
C862 H852 0.930 . S
C862 C860 1.419 . S
C862 C863 1.362 . S
C863 H853 0.930 . S
C863 C856 1.409 . S
C863 C862 1.362 . S
H864 C870 0.930 . S
H865 C873 0.930 . S
H866 C874 0.930 . S
H867 C875 0.930 . S
H868 C878 0.930 . S
H869 C879 0.930 . S
C870 H864 0.930 . S
C870 C871 1.355 . S
C870 C872 1.415 . S
C871 C870 1.355 . S
C871 C873 1.419 . S
C872 C870 1.415 . S
C872 C877 1.425 . S
C872 C879 1.409 . S
C873 H865 0.930 . S
C873 C871 1.419 . S
C873 C874 1.362 . S
C874 H866 0.930 . S
C874 C873 1.362 . S
C874 C877 1.409 . S
C875 H867 0.930 . S
C875 C876 1.355 . S
C875 C877 1.415 . S
C876 C875 1.355 . S
C876 C878 1.419 . S
C877 C872 1.425 . S
C877 C874 1.409 . S
C877 C875 1.415 . S
C878 H868 0.930 . S
C878 C876 1.419 . S
C878 C879 1.362 . S
C879 H869 0.930 . S
C879 C872 1.409 . S
C879 C878 1.362 . S
H880 C886 0.930 . S
H881 C889 0.930 . S
H882 C890 0.930 . S
H883 C891 0.930 . S
H884 C894 0.930 . S
H885 C895 0.930 . S
C886 H880 0.930 . S
C886 C887 1.355 . S
C886 C888 1.415 . S
C887 C886 1.355 . S
C887 C889 1.419 . S
C888 C886 1.415 . S
C888 C893 1.425 . S
C888 C895 1.409 . S
C889 H881 0.930 . S
C889 C887 1.419 . S
C889 C890 1.362 . S
C890 H882 0.930 . S
C890 C889 1.362 . S
C890 C893 1.409 . S
C891 H883 0.930 . S
C891 C892 1.355 . S
C891 C893 1.415 . S
C892 C891 1.355 . S
C892 C894 1.419 . S
C893 C888 1.425 . S
C893 C890 1.409 . S
C893 C891 1.415 . S
C894 H884 0.930 . S
C894 C892 1.419 . S
C894 C895 1.362 . S
C895 H885 0.930 . S
C895 C888 1.409 . S
C895 C894 1.362 . S
H896 C902 0.930 . S
H897 C905 0.930 . S
H898 C906 0.930 . S
H899 C907 0.930 . S
H900 C910 0.930 . S
H901 C911 0.930 . S
C902 H896 0.930 . S
C902 C903 1.355 . S
C902 C904 1.415 . S
C903 C902 1.355 . S
C903 C905 1.419 . S
C904 C902 1.415 . S
C904 C909 1.425 . S
C904 C911 1.409 . S
C905 H897 0.930 . S
C905 C903 1.419 . S
C905 C906 1.362 . S
C906 H898 0.930 . S
C906 C905 1.362 . S
C906 C909 1.409 . S
C907 H899 0.930 . S
C907 C908 1.355 . S
C907 C909 1.415 . S
C908 C907 1.355 . S
C908 C910 1.419 . S
C909 C904 1.425 . S
C909 C906 1.409 . S
C909 C907 1.415 . S
C910 H900 0.930 . S
C910 C908 1.419 . S
C910 C911 1.362 . S
C911 H901 0.930 . S
C911 C904 1.409 . S
C911 C910 1.362 . S
H912 C918 0.930 . S
H913 C921 0.930 . S
H914 C922 0.930 . S
H915 C923 0.930 . S
H916 C926 0.930 . S
H917 C927 0.930 . S
C918 H912 0.930 . S
C918 C919 1.355 1_655 S
C918 C920 1.415 . S
C919 C918 1.355 1_455 S
C919 C921 1.419 . S
C920 C918 1.415 . S
C920 C925 1.425 . S
C920 C927 1.409 . S
C921 H913 0.930 . S
C921 C919 1.419 . S
C921 C922 1.362 . S
C922 H914 0.930 . S
C922 C921 1.362 . S
C922 C925 1.409 1_455 S
C923 H915 0.930 . S
C923 C924 1.355 . S
C923 C925 1.415 . S
C924 C923 1.355 . S
C924 C926 1.419 . S
C925 C920 1.425 . S
C925 C922 1.409 1_655 S
C925 C923 1.415 . S
C926 H916 0.930 . S
C926 C924 1.419 . S
C926 C927 1.362 . S
C927 H917 0.930 . S
C927 C920 1.409 . S
C927 C926 1.362 . S
H928 C934 0.930 . S
H929 C937 0.930 . S
H930 C938 0.930 . S
H931 C939 0.930 . S
H932 C942 0.930 . S
H933 C943 0.930 . S
C934 H928 0.930 . S
C934 C935 1.355 . S
C934 C936 1.415 . S
C935 C934 1.355 . S
C935 C937 1.419 . S
C936 C934 1.415 . S
C936 C941 1.425 . S
C936 C943 1.409 . S
C937 H929 0.930 . S
C937 C935 1.419 . S
C937 C938 1.362 . S
C938 H930 0.930 . S
C938 C937 1.362 . S
C938 C941 1.409 . S
C939 H931 0.930 . S
C939 C940 1.355 . S
C939 C941 1.415 . S
C940 C939 1.355 . S
C940 C942 1.419 . S
C941 C936 1.425 . S
C941 C938 1.409 . S
C941 C939 1.415 . S
C942 H932 0.930 . S
C942 C940 1.419 . S
C942 C943 1.362 . S
C943 H933 0.930 . S
C943 C936 1.409 . S
C943 C942 1.362 . S
H944 C950 0.930 . S
H945 C953 0.930 . S
H946 C954 0.930 . S
H947 C955 0.930 . S
H948 C958 0.930 . S
H949 C959 0.930 . S
C950 H944 0.930 . S
C950 C951 1.355 . S
C950 C952 1.415 . S
C951 C950 1.355 . S
C951 C953 1.419 . S
C952 C950 1.415 . S
C952 C957 1.425 . S
C952 C959 1.409 . S
C953 H945 0.930 . S
C953 C951 1.419 . S
C953 C954 1.362 . S
C954 H946 0.930 . S
C954 C953 1.362 . S
C954 C957 1.409 . S
C955 H947 0.930 . S
C955 C956 1.355 . S
C955 C957 1.415 . S
C956 C955 1.355 . S
C956 C958 1.419 . S
C957 C952 1.425 . S
C957 C954 1.409 . S
C957 C955 1.415 . S
C958 H948 0.930 . S
C958 C956 1.419 . S
C958 C959 1.362 . S
C959 H949 0.930 . S
C959 C952 1.409 . S
C959 C958 1.362 . S
H960 C966 0.930 . S
H961 C969 0.930 . S
H962 C970 0.930 . S
H963 C971 0.930 . S
H964 C974 0.930 . S
H965 C975 0.930 . S
C966 H960 0.930 . S
C966 C967 1.355 . S
C966 C968 1.415 . S
C967 C966 1.355 . S
C967 C969 1.419 . S
C968 C966 1.415 . S
C968 C973 1.425 . S
C968 C975 1.409 . S
C969 H961 0.930 . S
C969 C967 1.419 . S
C969 C970 1.362 . S
C970 H962 0.930 . S
C970 C969 1.362 . S
C970 C973 1.409 . S
C971 H963 0.930 . S
C971 C972 1.355 . S
C971 C973 1.415 . S
C972 C971 1.355 . S
C972 C974 1.419 . S
C973 C968 1.425 . S
C973 C970 1.409 . S
C973 C971 1.415 . S
C974 H964 0.930 . S
C974 C972 1.419 . S
C974 C975 1.362 . S
C975 H965 0.930 . S
C975 C968 1.409 . S
C975 C974 1.362 . S
H976 C982 0.930 1_545 S
H977 C985 0.930 . S
H978 C986 0.930 . S
H979 C987 0.930 . S
H980 C990 0.930 . S
H981 C991 0.930 . S
C982 H976 0.930 1_565 S
C982 C983 1.355 . S
C982 C984 1.415 . S
C983 C982 1.355 . S
C983 C985 1.419 . S
C984 C982 1.415 . S
C984 C989 1.425 . S
C984 C991 1.409 1_565 S
C985 H977 0.930 . S
C985 C983 1.419 . S
C985 C986 1.362 . S
C986 H978 0.930 . S
C986 C985 1.362 . S
C986 C989 1.409 . S
C987 H979 0.930 . S
C987 C988 1.355 1_565 S
C987 C989 1.415 . S
C988 C987 1.355 1_545 S
C988 C990 1.419 . S
C989 C984 1.425 . S
C989 C986 1.409 . S
C989 C987 1.415 . S
C990 H980 0.930 . S
C990 C988 1.419 . S
C990 C991 1.362 . S
C991 H981 0.930 . S
C991 C984 1.409 1_545 S
C991 C990 1.362 . S
H992 C998 0.930 . S
H993 C1001 0.930 . S
H994 C1002 0.930 . S
H995 C1003 0.930 . S
H996 C1006 0.930 . S
H997 C1007 0.930 . S
C998 H992 0.930 . S
C998 C999 1.355 . S
C998 C1000 1.415 . S
C999 C998 1.355 . S
C999 C1001 1.419 . S
C1000 C998 1.415 . S
C1000 C1005 1.425 . S
C1000 C1007 1.409 . S
C1001 H993 0.930 . S
C1001 C999 1.419 . S
C1001 C1002 1.362 . S
C1002 H994 0.930 . S
C1002 C1001 1.362 . S
C1002 C1005 1.409 . S
C1003 H995 0.930 . S
C1003 C1004 1.355 . S
C1003 C1005 1.415 . S
C1004 C1003 1.355 . S
C1004 C1006 1.419 . S
C1005 C1000 1.425 . S
C1005 C1002 1.409 . S
C1005 C1003 1.415 . S
C1006 H996 0.930 . S
C1006 C1004 1.419 . S
C1006 C1007 1.362 . S
C1007 H997 0.930 . S
C1007 C1000 1.409 . S
C1007 C1006 1.362 . S
H1008 C1014 0.930 . S
H1009 C1017 0.930 . S
H1010 C1018 0.930 . S
H1011 C1019 0.930 . S
H1012 C1022 0.930 . S
H1013 C1023 0.930 . S
C1014 H1008 0.930 . S
C1014 C1015 1.355 . S
C1014 C1016 1.415 . S
C1015 C1014 1.355 . S
C1015 C1017 1.419 . S
C1016 C1014 1.415 . S
C1016 C1021 1.425 . S
C1016 C1023 1.409 . S
C1017 H1009 0.930 . S
C1017 C1015 1.419 . S
C1017 C1018 1.362 . S
C1018 H1010 0.930 . S
C1018 C1017 1.362 . S
C1018 C1021 1.409 . S
C1019 H1011 0.930 . S
C1019 C1020 1.355 . S
C1019 C1021 1.415 . S
C1020 C1019 1.355 . S
C1020 C1022 1.419 . S
C1021 C1016 1.425 . S
C1021 C1018 1.409 . S
C1021 C1019 1.415 . S
C1022 H1012 0.930 . S
C1022 C1020 1.419 . S
C1022 C1023 1.362 . S
C1023 H1013 0.930 . S
C1023 C1016 1.409 . S
C1023 C1022 1.362 . S
H1024 C1030 0.930 . S
H1025 C1033 0.930 . S
H1026 C1034 0.930 . S
H1027 C1035 0.930 . S
H1028 C1038 0.930 . S
H1029 C1039 0.930 . S
C1030 H1024 0.930 . S
C1030 C1031 1.355 . S
C1030 C1032 1.415 . S
C1031 C1030 1.355 . S
C1031 C1033 1.419 . S
C1032 C1030 1.415 . S
C1032 C1037 1.425 . S
C1032 C1039 1.409 . S
C1033 H1025 0.930 . S
C1033 C1031 1.419 . S
C1033 C1034 1.362 . S
C1034 H1026 0.930 . S
C1034 C1033 1.362 . S
C1034 C1037 1.409 . S
C1035 H1027 0.930 . S
C1035 C1036 1.355 . S
C1035 C1037 1.415 . S
C1036 C1035 1.355 . S
C1036 C1038 1.419 . S
C1037 C1032 1.425 . S
C1037 C1034 1.409 . S
C1037 C1035 1.415 . S
C1038 H1028 0.930 . S
C1038 C1036 1.419 . S
C1038 C1039 1.362 . S
C1039 H1029 0.930 . S
C1039 C1032 1.409 . S
C1039 C1038 1.362 . S
H1040 C1046 0.930 . S
H1041 C1049 0.930 . S
H1042 C1050 0.930 . S
H1043 C1051 0.930 . S
H1044 C1054 0.930 . S
H1045 C1055 0.930 . S
C1046 H1040 0.930 . S
C1046 C1047 1.355 . S
C1046 C1048 1.415 . S
C1047 C1046 1.355 . S
C1047 C1049 1.419 . S
C1048 C1046 1.415 . S
C1048 C1053 1.425 . S
C1048 C1055 1.409 . S
C1049 H1041 0.930 . S
C1049 C1047 1.419 . S
C1049 C1050 1.362 . S
C1050 H1042 0.930 . S
C1050 C1049 1.362 . S
C1050 C1053 1.409 . S
C1051 H1043 0.930 . S
C1051 C1052 1.355 . S
C1051 C1053 1.415 . S
C1052 C1051 1.355 . S
C1052 C1054 1.419 . S
C1053 C1048 1.425 . S
C1053 C1050 1.409 . S
C1053 C1051 1.415 . S
C1054 H1044 0.930 . S
C1054 C1052 1.419 . S
C1054 C1055 1.362 . S
C1055 H1045 0.930 . S
C1055 C1048 1.409 . S
C1055 C1054 1.362 . S
H1056 C1062 0.930 . S
H1057 C1065 0.930 . S
H1058 C1066 0.930 . S
H1059 C1067 0.930 . S
H1060 C1070 0.930 . S
H1061 C1071 0.930 . S
C1062 H1056 0.930 . S
C1062 C1063 1.355 . S
C1062 C1064 1.415 . S
C1063 C1062 1.355 . S
C1063 C1065 1.419 . S
C1064 C1062 1.415 . S
C1064 C1069 1.425 . S
C1064 C1071 1.409 . S
C1065 H1057 0.930 . S
C1065 C1063 1.419 . S
C1065 C1066 1.362 . S
C1066 H1058 0.930 . S
C1066 C1065 1.362 . S
C1066 C1069 1.409 . S
C1067 H1059 0.930 . S
C1067 C1068 1.355 . S
C1067 C1069 1.415 . S
C1068 C1067 1.355 . S
C1068 C1070 1.419 . S
C1069 C1064 1.425 . S
C1069 C1066 1.409 . S
C1069 C1067 1.415 . S
C1070 H1060 0.930 . S
C1070 C1068 1.419 . S
C1070 C1071 1.362 . S
C1071 H1061 0.930 . S
C1071 C1064 1.409 . S
C1071 C1070 1.362 . S
H1072 C1078 0.930 . S
H1073 C1081 0.930 . S
H1074 C1082 0.930 . S
H1075 C1083 0.930 . S
H1076 C1086 0.930 . S
H1077 C1087 0.930 . S
C1078 H1072 0.930 . S
C1078 C1079 1.355 . S
C1078 C1080 1.415 . S
C1079 C1078 1.355 . S
C1079 C1081 1.419 . S
C1080 C1078 1.415 . S
C1080 C1085 1.425 . S
C1080 C1087 1.409 . S
C1081 H1073 0.930 . S
C1081 C1079 1.419 . S
C1081 C1082 1.362 . S
C1082 H1074 0.930 . S
C1082 C1081 1.362 . S
C1082 C1085 1.409 . S
C1083 H1075 0.930 . S
C1083 C1084 1.355 . S
C1083 C1085 1.415 . S
C1084 C1083 1.355 . S
C1084 C1086 1.419 . S
C1085 C1080 1.425 . S
C1085 C1082 1.409 . S
C1085 C1083 1.415 . S
C1086 H1076 0.930 . S
C1086 C1084 1.419 . S
C1086 C1087 1.362 . S
C1087 H1077 0.930 . S
C1087 C1080 1.409 . S
C1087 C1086 1.362 . S
H1088 C1094 0.930 . S
H1089 C1097 0.930 . S
H1090 C1098 0.930 . S
H1091 C1099 0.930 . S
H1092 C1102 0.930 . S
H1093 C1103 0.930 . S
C1094 H1088 0.930 . S
C1094 C1095 1.355 . S
C1094 C1096 1.415 . S
C1095 C1094 1.355 . S
C1095 C1097 1.419 . S
C1096 C1094 1.415 . S
C1096 C1101 1.425 . S
C1096 C1103 1.409 . S
C1097 H1089 0.930 . S
C1097 C1095 1.419 . S
C1097 C1098 1.362 . S
C1098 H1090 0.930 . S
C1098 C1097 1.362 . S
C1098 C1101 1.409 . S
C1099 H1091 0.930 . S
C1099 C1100 1.355 . S
C1099 C1101 1.415 . S
C1100 C1099 1.355 . S
C1100 C1102 1.419 . S
C1101 C1096 1.425 . S
C1101 C1098 1.409 . S
C1101 C1099 1.415 . S
C1102 H1092 0.930 . S
C1102 C1100 1.419 . S
C1102 C1103 1.362 . S
C1103 H1093 0.930 . S
C1103 C1096 1.409 . S
C1103 C1102 1.362 . S
H1104 C1110 0.930 . S
H1105 C1113 0.930 . S
H1106 C1114 0.930 1_455 S
H1107 C1115 0.930 . S
H1108 C1118 0.930 . S
H1109 C1119 0.951 . S
C1110 H1104 0.930 . S
C1110 C1111 1.355 . S
C1110 C1112 1.415 1_554 S
C1111 C1110 1.355 . S
C1111 C1113 1.419 1_654 S
C1112 C1110 1.415 1_556 S
C1112 C1117 1.425 . S
C1112 C1119 1.409 . S
C1113 H1105 0.930 . S
C1113 C1111 1.419 1_456 S
C1113 C1114 1.362 1_455 S
C1114 H1106 0.930 1_655 S
C1114 C1113 1.362 1_655 S
C1114 C1117 1.409 . S
C1115 H1107 0.930 . S
C1115 C1116 1.355 . S
C1115 C1117 1.415 . S
C1116 C1115 1.355 . S
C1116 C1118 1.419 . S
C1117 C1112 1.425 . S
C1117 C1114 1.409 . S
C1117 C1115 1.415 . S
C1118 H1108 0.930 . S
C1118 C1116 1.419 . S
C1118 C1119 1.362 . S
C1119 H1109 0.951 . S
C1119 C1112 1.409 . S
C1119 C1118 1.362 . S
H1120 C1126 0.930 . S
H1121 C1129 0.930 . S
H1122 C1130 0.930 . S
H1123 C1131 0.930 . S
H1124 C1134 0.930 . S
H1125 C1135 0.930 . S
C1126 H1120 0.930 . S
C1126 C1127 1.355 . S
C1126 C1128 1.415 . S
C1127 C1126 1.355 . S
C1127 C1129 1.419 . S
C1128 C1126 1.415 . S
C1128 C1133 1.425 . S
C1128 C1135 1.409 . S
C1129 H1121 0.930 . S
C1129 C1127 1.419 . S
C1129 C1130 1.362 . S
C1130 H1122 0.930 . S
C1130 C1129 1.362 . S
C1130 C1133 1.409 . S
C1131 H1123 0.930 . S
C1131 C1132 1.355 . S
C1131 C1133 1.415 . S
C1132 C1131 1.355 . S
C1132 C1134 1.419 . S
C1133 C1128 1.425 . S
C1133 C1130 1.409 . S
C1133 C1131 1.415 . S
C1134 H1124 0.930 . S
C1134 C1132 1.419 . S
C1134 C1135 1.362 . S
C1135 H1125 0.930 . S
C1135 C1128 1.409 . S
C1135 C1134 1.362 . S
H1136 C1142 0.930 . S
H1137 C1145 0.930 . S
H1138 C1146 0.930 . S
H1139 C1147 0.930 . S
H1140 C1150 0.930 . S
H1141 C1151 0.930 . S
C1142 H1136 0.930 . S
C1142 C1143 1.355 . S
C1142 C1144 1.415 . S
C1143 C1142 1.355 . S
C1143 C1145 1.419 . S
C1144 C1142 1.415 . S
C1144 C1149 1.425 . S
C1144 C1151 1.409 . S
C1145 H1137 0.930 . S
C1145 C1143 1.419 . S
C1145 C1146 1.362 . S
C1146 H1138 0.930 . S
C1146 C1145 1.362 . S
C1146 C1149 1.409 . S
C1147 H1139 0.930 . S
C1147 C1148 1.355 . S
C1147 C1149 1.415 . S
C1148 C1147 1.355 . S
C1148 C1150 1.419 . S
C1149 C1144 1.425 . S
C1149 C1146 1.409 . S
C1149 C1147 1.415 . S
C1150 H1140 0.930 . S
C1150 C1148 1.419 . S
C1150 C1151 1.362 . S
C1151 H1141 0.930 . S
C1151 C1144 1.409 . S
C1151 C1150 1.362 . S
H1152 C1158 0.930 . S
H1153 C1161 0.930 . S
H1154 C1162 0.930 . S
H1155 C1163 0.930 . S
H1156 C1166 0.930 . S
H1157 C1167 0.930 . S
C1158 H1152 0.930 . S
C1158 C1159 1.355 . S
C1158 C1160 1.415 . S
C1159 C1158 1.355 . S
C1159 C1161 1.419 . S
C1160 C1158 1.415 . S
C1160 C1165 1.425 . S
C1160 C1167 1.409 . S
C1161 H1153 0.930 . S
C1161 C1159 1.419 . S
C1161 C1162 1.362 . S
C1162 H1154 0.930 . S
C1162 C1161 1.362 . S
C1162 C1165 1.409 . S
C1163 H1155 0.930 . S
C1163 C1164 1.355 . S
C1163 C1165 1.415 . S
C1164 C1163 1.355 . S
C1164 C1166 1.419 . S
C1165 C1160 1.425 . S
C1165 C1162 1.409 . S
C1165 C1163 1.415 . S
C1166 H1156 0.930 . S
C1166 C1164 1.419 . S
C1166 C1167 1.362 . S
C1167 H1157 0.930 . S
C1167 C1160 1.409 . S
C1167 C1166 1.362 . S
H1168 C1174 0.930 . S
H1169 C1177 0.930 . S
H1170 C1178 0.930 1_545 S
H1171 C1179 0.930 1_545 S
H1172 C1182 0.930 . S
H1173 C1183 0.930 . S
C1174 H1168 0.930 . S
C1174 C1175 1.355 . S
C1174 C1176 1.415 . S
C1175 C1174 1.355 . S
C1175 C1177 1.419 . S
C1176 C1174 1.415 . S
C1176 C1181 1.425 . S
C1176 C1183 1.409 . S
C1177 H1169 0.930 . S
C1177 C1175 1.419 . S
C1177 C1178 1.362 . S
C1178 H1170 0.930 1_565 S
C1178 C1177 1.362 . S
C1178 C1181 1.409 . S
C1179 H1171 0.930 1_565 S
C1179 C1180 1.355 1_655 S
C1179 C1181 1.415 . S
C1180 C1179 1.355 1_455 S
C1180 C1182 1.419 . S
C1181 C1176 1.425 . S
C1181 C1178 1.409 . S
C1181 C1179 1.415 . S
C1182 H1172 0.930 . S
C1182 C1180 1.419 . S
C1182 C1183 1.362 1_455 S
C1183 H1173 0.930 . S
C1183 C1176 1.409 . S
C1183 C1182 1.362 1_655 S
H1184 C1190 0.930 . S
H1185 C1193 0.930 . S
H1186 C1194 0.930 . S
H1187 C1195 0.930 . S
H1188 C1198 0.930 . S
H1189 C1199 0.930 . S
C1190 H1184 0.930 . S
C1190 C1191 1.355 . S
C1190 C1192 1.415 . S
C1191 C1190 1.355 . S
C1191 C1193 1.419 . S
C1192 C1190 1.415 . S
C1192 C1197 1.425 . S
C1192 C1199 1.409 . S
C1193 H1185 0.930 . S
C1193 C1191 1.419 . S
C1193 C1194 1.362 . S
C1194 H1186 0.930 . S
C1194 C1193 1.362 . S
C1194 C1197 1.409 . S
C1195 H1187 0.930 . S
C1195 C1196 1.355 . S
C1195 C1197 1.415 . S
C1196 C1195 1.355 . S
C1196 C1198 1.419 . S
C1197 C1192 1.425 . S
C1197 C1194 1.409 . S
C1197 C1195 1.415 . S
C1198 H1188 0.930 . S
C1198 C1196 1.419 . S
C1198 C1199 1.362 . S
C1199 H1189 0.930 . S
C1199 C1192 1.409 . S
C1199 C1198 1.362 . S
H1200 C1206 0.930 . S
H1201 C1209 0.930 . S
H1202 C1210 0.930 . S
H1203 C1211 0.930 . S
H1204 C1214 0.930 . S
H1205 C1215 0.930 . S
C1206 H1200 0.930 . S
C1206 C1207 1.355 . S
C1206 C1208 1.415 . S
C1207 C1206 1.355 . S
C1207 C1209 1.419 . S
C1208 C1206 1.415 . S
C1208 C1213 1.425 . S
C1208 C1215 1.409 . S
C1209 H1201 0.930 . S
C1209 C1207 1.419 . S
C1209 C1210 1.362 . S
C1210 H1202 0.930 . S
C1210 C1209 1.362 . S
C1210 C1213 1.409 . S
C1211 H1203 0.930 . S
C1211 C1212 1.355 . S
C1211 C1213 1.415 . S
C1212 C1211 1.355 . S
C1212 C1214 1.419 . S
C1213 C1208 1.425 . S
C1213 C1210 1.409 . S
C1213 C1211 1.415 . S
C1214 H1204 0.930 . S
C1214 C1212 1.419 . S
C1214 C1215 1.362 . S
C1215 H1205 0.930 . S
C1215 C1208 1.409 . S
C1215 C1214 1.362 . S
H1216 C1222 0.930 . S
H1217 C1225 0.930 . S
H1218 C1226 0.930 . S
H1219 C1227 0.930 . S
H1220 C1230 0.930 . S
H1221 C1231 0.930 . S
C1222 H1216 0.930 . S
C1222 C1223 1.355 . S
C1222 C1224 1.415 . S
C1223 C1222 1.355 . S
C1223 C1225 1.419 . S
C1224 C1222 1.415 . S
C1224 C1229 1.425 . S
C1224 C1231 1.409 . S
C1225 H1217 0.930 . S
C1225 C1223 1.419 . S
C1225 C1226 1.362 . S
C1226 H1218 0.930 . S
C1226 C1225 1.362 . S
C1226 C1229 1.409 . S
C1227 H1219 0.930 . S
C1227 C1228 1.355 . S
C1227 C1229 1.415 . S
C1228 C1227 1.355 . S
C1228 C1230 1.419 . S
C1229 C1224 1.425 . S
C1229 C1226 1.409 . S
C1229 C1227 1.415 . S
C1230 H1220 0.930 . S
C1230 C1228 1.419 . S
C1230 C1231 1.362 . S
C1231 H1221 0.930 . S
C1231 C1224 1.409 . S
C1231 C1230 1.362 . S
H1232 C1238 0.930 . S
H1233 C1241 0.930 . S
H1234 C1242 0.930 . S
H1235 C1243 0.930 . S
H1236 C1246 0.930 . S
H1237 C1247 0.930 . S
C1238 H1232 0.930 . S
C1238 C1239 1.355 . S
C1238 C1240 1.415 . S
C1239 C1238 1.355 . S
C1239 C1241 1.419 . S
C1240 C1238 1.415 . S
C1240 C1245 1.425 . S
C1240 C1247 1.409 . S
C1241 H1233 0.930 . S
C1241 C1239 1.419 . S
C1241 C1242 1.362 . S
C1242 H1234 0.930 . S
C1242 C1241 1.362 . S
C1242 C1245 1.409 . S
C1243 H1235 0.930 . S
C1243 C1244 1.355 . S
C1243 C1245 1.415 . S
C1244 C1243 1.355 . S
C1244 C1246 1.419 . S
C1245 C1240 1.425 . S
C1245 C1242 1.409 . S
C1245 C1243 1.415 . S
C1246 H1236 0.930 . S
C1246 C1244 1.419 . S
C1246 C1247 1.362 . S
C1247 H1237 0.930 . S
C1247 C1240 1.409 . S
C1247 C1246 1.362 . S
H1248 C1254 0.930 . S
H1249 C1257 0.930 . S
H1250 C1258 0.930 . S
H1251 C1259 0.930 . S
H1252 C1262 0.930 . S
H1253 C1263 0.930 . S
C1254 H1248 0.930 . S
C1254 C1255 1.355 . S
C1254 C1256 1.415 . S
C1255 C1254 1.355 . S
C1255 C1257 1.419 . S
C1256 C1254 1.415 . S
C1256 C1261 1.425 . S
C1256 C1263 1.409 . S
C1257 H1249 0.930 . S
C1257 C1255 1.419 . S
C1257 C1258 1.362 . S
C1258 H1250 0.930 . S
C1258 C1257 1.362 . S
C1258 C1261 1.409 . S
C1259 H1251 0.930 . S
C1259 C1260 1.355 . S
C1259 C1261 1.415 . S
C1260 C1259 1.355 . S
C1260 C1262 1.419 . S
C1261 C1256 1.425 . S
C1261 C1258 1.409 . S
C1261 C1259 1.415 . S
C1262 H1252 0.930 . S
C1262 C1260 1.419 . S
C1262 C1263 1.362 . S
C1263 H1253 0.930 . S
C1263 C1256 1.409 . S
C1263 C1262 1.362 . S
H1264 C1270 0.930 . S
H1265 C1273 0.930 . S
H1266 C1274 0.930 . S
H1267 C1275 0.930 . S
H1268 C1278 0.930 . S
H1269 C1279 0.930 . S
C1270 H1264 0.930 . S
C1270 C1271 1.355 . S
C1270 C1272 1.415 . S
C1271 C1270 1.355 . S
C1271 C1273 1.419 . S
C1272 C1270 1.415 . S
C1272 C1277 1.425 . S
C1272 C1279 1.409 . S
C1273 H1265 0.930 . S
C1273 C1271 1.419 . S
C1273 C1274 1.362 . S
C1274 H1266 0.930 . S
C1274 C1273 1.362 . S
C1274 C1277 1.409 . S
C1275 H1267 0.930 . S
C1275 C1276 1.355 . S
C1275 C1277 1.415 . S
C1276 C1275 1.355 . S
C1276 C1278 1.419 . S
C1277 C1272 1.425 . S
C1277 C1274 1.409 . S
C1277 C1275 1.415 . S
C1278 H1268 0.930 . S
C1278 C1276 1.419 . S
C1278 C1279 1.362 . S
C1279 H1269 0.930 . S
C1279 C1272 1.409 . S
C1279 C1278 1.362 . S
H1280 C1286 0.930 1_554 S
H1281 C1289 0.930 . S
H1282 C1290 0.930 . S
H1283 C1291 0.930 . S
H1284 C1294 0.930 . S
H1285 C1295 0.930 . S
C1286 H1280 0.930 1_556 S
C1286 C1287 1.355 1_565 S
C1286 C1288 1.415 . S
C1287 C1286 1.355 1_545 S
C1287 C1289 1.419 . S
C1288 C1286 1.415 . S
C1288 C1293 1.425 . S
C1288 C1295 1.409 . S
C1289 H1281 0.930 . S
C1289 C1287 1.419 . S
C1289 C1290 1.362 . S
C1290 H1282 0.930 . S
C1290 C1289 1.362 . S
C1290 C1293 1.409 1_545 S
C1291 H1283 0.930 . S
C1291 C1292 1.355 . S
C1291 C1293 1.415 . S
C1292 C1291 1.355 . S
C1292 C1294 1.419 . S
C1293 C1288 1.425 . S
C1293 C1290 1.409 1_565 S
C1293 C1291 1.415 . S
C1294 H1284 0.930 . S
C1294 C1292 1.419 . S
C1294 C1295 1.362 . S
C1295 H1285 0.930 . S
C1295 C1288 1.409 . S
C1295 C1294 1.362 . S
H1296 C1302 0.930 . S
H1297 C1305 0.930 . S
H1298 C1306 0.930 . S
H1299 C1307 0.930 . S
H1300 C1310 0.930 . S
H1301 C1311 0.930 . S
C1302 H1296 0.930 . S
C1302 C1303 1.355 . S
C1302 C1304 1.415 . S
C1303 C1302 1.355 . S
C1303 C1305 1.419 . S
C1304 C1302 1.415 . S
C1304 C1309 1.425 . S
C1304 C1311 1.409 . S
C1305 H1297 0.930 . S
C1305 C1303 1.419 . S
C1305 C1306 1.362 . S
C1306 H1298 0.930 . S
C1306 C1305 1.362 . S
C1306 C1309 1.409 . S
C1307 H1299 0.930 . S
C1307 C1308 1.355 . S
C1307 C1309 1.415 . S
C1308 C1307 1.355 . S
C1308 C1310 1.419 . S
C1309 C1304 1.425 . S
C1309 C1306 1.409 . S
C1309 C1307 1.415 . S
C1310 H1300 0.930 . S
C1310 C1308 1.419 . S
C1310 C1311 1.362 . S
C1311 H1301 0.930 . S
C1311 C1304 1.409 . S
C1311 C1310 1.362 . S
H1312 C1318 0.930 . S
H1313 C1321 0.930 1_455 S
H1314 C1322 0.930 . S
H1315 C1323 0.930 . S
H1316 C1326 0.930 . S
H1317 C1327 0.930 . S
C1318 H1312 0.930 . S
C1318 C1319 1.355 . S
C1318 C1320 1.415 . S
C1319 C1318 1.355 . S
C1319 C1321 1.419 . S
C1320 C1318 1.415 . S
C1320 C1325 1.425 . S
C1320 C1327 1.409 . S
C1321 H1313 0.930 1_655 S
C1321 C1319 1.419 . S
C1321 C1322 1.362 . S
C1322 H1314 0.930 . S
C1322 C1321 1.362 . S
C1322 C1325 1.409 . S
C1323 H1315 0.930 . S
C1323 C1324 1.355 . S
C1323 C1325 1.415 . S
C1324 C1323 1.355 . S
C1324 C1326 1.419 . S
C1325 C1320 1.425 . S
C1325 C1322 1.409 . S
C1325 C1323 1.415 . S
C1326 H1316 0.930 . S
C1326 C1324 1.419 . S
C1326 C1327 1.362 . S
C1327 H1317 0.930 . S
C1327 C1320 1.409 . S
C1327 C1326 1.362 . S
H1328 C1334 0.930 . S
H1329 C1337 0.930 . S
H1330 C1338 0.930 . S
H1331 C1339 0.930 . S
H1332 C1342 0.930 . S
H1333 C1343 0.930 . S
C1334 H1328 0.930 . S
C1334 C1335 1.355 . S
C1334 C1336 1.415 . S
C1335 C1334 1.355 . S
C1335 C1337 1.419 . S
C1336 C1334 1.415 . S
C1336 C1341 1.425 . S
C1336 C1343 1.409 . S
C1337 H1329 0.930 . S
C1337 C1335 1.419 . S
C1337 C1338 1.362 . S
C1338 H1330 0.930 . S
C1338 C1337 1.362 . S
C1338 C1341 1.409 . S
C1339 H1331 0.930 . S
C1339 C1340 1.355 . S
C1339 C1341 1.415 . S
C1340 C1339 1.355 . S
C1340 C1342 1.419 . S
C1341 C1336 1.425 . S
C1341 C1338 1.409 . S
C1341 C1339 1.415 . S
C1342 H1332 0.930 . S
C1342 C1340 1.419 . S
C1342 C1343 1.362 . S
C1343 H1333 0.930 . S
C1343 C1336 1.409 . S
C1343 C1342 1.362 . S
H1344 C1350 0.930 . S
H1345 C1353 0.930 . S
H1346 C1354 0.930 . S
H1347 C1355 0.930 . S
H1348 C1358 0.930 . S
H1349 C1359 0.930 . S
C1350 H1344 0.930 . S
C1350 C1351 1.355 . S
C1350 C1352 1.415 . S
C1351 C1350 1.355 . S
C1351 C1353 1.419 . S
C1352 C1350 1.415 . S
C1352 C1357 1.425 . S
C1352 C1359 1.409 . S
C1353 H1345 0.930 . S
C1353 C1351 1.419 . S
C1353 C1354 1.362 . S
C1354 H1346 0.930 . S
C1354 C1353 1.362 . S
C1354 C1357 1.409 . S
C1355 H1347 0.930 . S
C1355 C1356 1.355 . S
C1355 C1357 1.415 . S
C1356 C1355 1.355 . S
C1356 C1358 1.419 . S
C1357 C1352 1.425 . S
C1357 C1354 1.409 . S
C1357 C1355 1.415 . S
C1358 H1348 0.930 . S
C1358 C1356 1.419 . S
C1358 C1359 1.362 . S
C1359 H1349 0.930 . S
C1359 C1352 1.409 . S
C1359 C1358 1.362 . S
H1360 C1366 0.930 . S
H1361 C1369 0.930 . S
H1362 C1370 0.930 . S
H1363 C1371 0.930 . S
H1364 C1374 0.930 . S
H1365 C1375 0.930 . S
C1366 H1360 0.930 . S
C1366 C1367 1.355 . S
C1366 C1368 1.415 . S
C1367 C1366 1.355 . S
C1367 C1369 1.419 . S
C1368 C1366 1.415 . S
C1368 C1373 1.425 . S
C1368 C1375 1.409 . S
C1369 H1361 0.930 . S
C1369 C1367 1.419 . S
C1369 C1370 1.362 . S
C1370 H1362 0.930 . S
C1370 C1369 1.362 . S
C1370 C1373 1.409 . S
C1371 H1363 0.930 . S
C1371 C1372 1.355 . S
C1371 C1373 1.415 . S
C1372 C1371 1.355 . S
C1372 C1374 1.419 . S
C1373 C1368 1.425 . S
C1373 C1370 1.409 . S
C1373 C1371 1.415 . S
C1374 H1364 0.930 . S
C1374 C1372 1.419 . S
C1374 C1375 1.362 . S
C1375 H1365 0.930 . S
C1375 C1368 1.409 . S
C1375 C1374 1.362 . S
H1376 C1382 0.930 . S
H1377 C1385 0.930 . S
H1378 C1386 0.930 . S
H1379 C1387 0.930 . S
H1380 C1390 0.930 . S
H1381 C1391 0.930 . S
C1382 H1376 0.930 . S
C1382 C1383 1.355 . S
C1382 C1384 1.415 . S
C1383 C1382 1.355 . S
C1383 C1385 1.419 . S
C1384 C1382 1.415 . S
C1384 C1389 1.425 . S
C1384 C1391 1.409 . S
C1385 H1377 0.930 . S
C1385 C1383 1.419 . S
C1385 C1386 1.362 . S
C1386 H1378 0.930 . S
C1386 C1385 1.362 . S
C1386 C1389 1.409 . S
C1387 H1379 0.930 . S
C1387 C1388 1.355 . S
C1387 C1389 1.415 . S
C1388 C1387 1.355 . S
C1388 C1390 1.419 . S
C1389 C1384 1.425 . S
C1389 C1386 1.409 . S
C1389 C1387 1.415 . S
C1390 H1380 0.930 . S
C1390 C1388 1.419 . S
C1390 C1391 1.362 . S
C1391 H1381 0.930 . S
C1391 C1384 1.409 . S
C1391 C1390 1.362 . S
H1392 C1398 0.930 . S
H1393 C1401 0.930 . S
H1394 C1402 0.930 . S
H1395 C1403 0.930 . S
H1396 C1406 0.930 . S
H1397 C1407 0.930 . S
C1398 H1392 0.930 . S
C1398 C1399 1.355 . S
C1398 C1400 1.415 . S
C1399 C1398 1.355 . S
C1399 C1401 1.419 . S
C1400 C1398 1.415 . S
C1400 C1405 1.425 . S
C1400 C1407 1.409 . S
C1401 H1393 0.930 . S
C1401 C1399 1.419 . S
C1401 C1402 1.362 . S
C1402 H1394 0.930 . S
C1402 C1401 1.362 . S
C1402 C1405 1.409 . S
C1403 H1395 0.930 . S
C1403 C1404 1.355 . S
C1403 C1405 1.415 . S
C1404 C1403 1.355 . S
C1404 C1406 1.419 . S
C1405 C1400 1.425 . S
C1405 C1402 1.409 . S
C1405 C1403 1.415 . S
C1406 H1396 0.930 . S
C1406 C1404 1.419 . S
C1406 C1407 1.362 . S
C1407 H1397 0.930 . S
C1407 C1400 1.409 . S
C1407 C1406 1.362 . S
H1408 C1414 0.930 . S
H1409 C1417 0.930 . S
H1410 C1418 0.930 . S
H1411 C1419 0.930 . S
H1412 C1422 0.930 . S
H1413 C1423 0.930 . S
C1414 H1408 0.930 . S
C1414 C1415 1.355 . S
C1414 C1416 1.415 . S
C1415 C1414 1.355 . S
C1415 C1417 1.419 . S
C1416 C1414 1.415 . S
C1416 C1421 1.425 . S
C1416 C1423 1.409 . S
C1417 H1409 0.930 . S
C1417 C1415 1.419 . S
C1417 C1418 1.362 . S
C1418 H1410 0.930 . S
C1418 C1417 1.362 . S
C1418 C1421 1.409 . S
C1419 H1411 0.930 . S
C1419 C1420 1.355 . S
C1419 C1421 1.415 . S
C1420 C1419 1.355 . S
C1420 C1422 1.419 . S
C1421 C1416 1.425 . S
C1421 C1418 1.409 . S
C1421 C1419 1.415 . S
C1422 H1412 0.930 . S
C1422 C1420 1.419 . S
C1422 C1423 1.362 . S
C1423 H1413 0.930 . S
C1423 C1416 1.409 . S
C1423 C1422 1.362 . S
H1424 C1430 0.930 . S
H1425 C1433 0.930 . S
H1426 C1434 0.930 . S
H1427 C1435 0.930 . S
H1428 C1438 0.930 . S
H1429 C1439 0.930 . S
C1430 H1424 0.930 . S
C1430 C1431 1.355 . S
C1430 C1432 1.415 . S
C1431 C1430 1.355 . S
C1431 C1433 1.419 . S
C1432 C1430 1.415 . S
C1432 C1437 1.425 . S
C1432 C1439 1.409 . S
C1433 H1425 0.930 . S
C1433 C1431 1.419 . S
C1433 C1434 1.362 . S
C1434 H1426 0.930 . S
C1434 C1433 1.362 . S
C1434 C1437 1.409 . S
C1435 H1427 0.930 . S
C1435 C1436 1.355 . S
C1435 C1437 1.415 . S
C1436 C1435 1.355 . S
C1436 C1438 1.419 . S
C1437 C1432 1.425 . S
C1437 C1434 1.409 . S
C1437 C1435 1.415 . S
C1438 H1428 0.930 . S
C1438 C1436 1.419 . S
C1438 C1439 1.362 . S
C1439 H1429 0.930 . S
C1439 C1432 1.409 . S
C1439 C1438 1.362 . S
H1440 C1446 0.930 . S
H1441 C1449 0.930 . S
H1442 C1450 0.930 . S
H1443 C1451 0.930 . S
H1444 C1454 0.930 . S
H1445 C1455 0.930 . S
C1446 H1440 0.930 . S
C1446 C1447 1.355 . S
C1446 C1448 1.415 . S
C1447 C1446 1.355 . S
C1447 C1449 1.419 . S
C1448 C1446 1.415 . S
C1448 C1453 1.425 . S
C1448 C1455 1.409 . S
C1449 H1441 0.930 . S
C1449 C1447 1.419 . S
C1449 C1450 1.362 . S
C1450 H1442 0.930 . S
C1450 C1449 1.362 . S
C1450 C1453 1.409 . S
C1451 H1443 0.930 . S
C1451 C1452 1.355 . S
C1451 C1453 1.415 . S
C1452 C1451 1.355 . S
C1452 C1454 1.419 . S
C1453 C1448 1.425 . S
C1453 C1450 1.409 . S
C1453 C1451 1.415 . S
C1454 H1444 0.930 . S
C1454 C1452 1.419 . S
C1454 C1455 1.362 . S
C1455 H1445 0.930 . S
C1455 C1448 1.409 . S
C1455 C1454 1.362 . S
H1456 C1462 0.930 . S
H1457 C1465 0.930 . S
H1458 C1466 0.930 . S
H1459 C1467 0.930 . S
H1460 C1470 0.930 . S
H1461 C1471 0.930 . S
C1462 H1456 0.930 . S
C1462 C1463 1.355 . S
C1462 C1464 1.415 . S
C1463 C1462 1.355 . S
C1463 C1465 1.419 . S
C1464 C1462 1.415 . S
C1464 C1469 1.425 . S
C1464 C1471 1.409 . S
C1465 H1457 0.930 . S
C1465 C1463 1.419 . S
C1465 C1466 1.362 . S
C1466 H1458 0.930 . S
C1466 C1465 1.362 . S
C1466 C1469 1.409 . S
C1467 H1459 0.930 . S
C1467 C1468 1.355 . S
C1467 C1469 1.415 . S
C1468 C1467 1.355 . S
C1468 C1470 1.419 . S
C1469 C1464 1.425 . S
C1469 C1466 1.409 . S
C1469 C1467 1.415 . S
C1470 H1460 0.930 . S
C1470 C1468 1.419 . S
C1470 C1471 1.362 . S
C1471 H1461 0.930 . S
C1471 C1464 1.409 . S
C1471 C1470 1.362 . S
H1472 C1478 0.930 . S
H1473 C1481 0.930 . S
H1474 C1482 0.930 . S
H1475 C1483 0.930 . S
H1476 C1486 0.930 . S
H1477 C1487 0.930 . S
C1478 H1472 0.930 . S
C1478 C1479 1.355 . S
C1478 C1480 1.415 . S
C1479 C1478 1.355 . S
C1479 C1481 1.419 . S
C1480 C1478 1.415 . S
C1480 C1485 1.425 . S
C1480 C1487 1.409 . S
C1481 H1473 0.930 . S
C1481 C1479 1.419 . S
C1481 C1482 1.362 . S
C1482 H1474 0.930 . S
C1482 C1481 1.362 . S
C1482 C1485 1.409 . S
C1483 H1475 0.930 . S
C1483 C1484 1.355 . S
C1483 C1485 1.415 . S
C1484 C1483 1.355 . S
C1484 C1486 1.419 . S
C1485 C1480 1.425 . S
C1485 C1482 1.409 . S
C1485 C1483 1.415 . S
C1486 H1476 0.930 . S
C1486 C1484 1.419 . S
C1486 C1487 1.362 . S
C1487 H1477 0.930 . S
C1487 C1480 1.409 . S
C1487 C1486 1.362 . S
H1488 C1494 0.930 . S
H1489 C1497 0.930 . S
H1490 C1498 0.930 . S
H1491 C1499 0.930 1_655 S
H1492 C1502 0.930 . S
H1493 C1503 0.930 . S
C1494 H1488 0.930 . S
C1494 C1495 1.355 1_455 S
C1494 C1496 1.415 . S
C1495 C1494 1.355 1_655 S
C1495 C1497 1.419 . S
C1496 C1494 1.415 . S
C1496 C1501 1.434 . S
C1496 C1503 1.409 . S
C1497 H1489 0.930 . S
C1497 C1495 1.419 . S
C1497 C1498 1.362 . S
C1498 H1490 0.930 . S
C1498 C1497 1.362 . S
C1498 C1501 1.397 1_655 S
C1499 H1491 0.930 1_455 S
C1499 C1500 1.355 . S
C1499 C1501 1.419 . S
C1500 C1499 1.355 . S
C1500 C1502 1.419 . S
C1501 C1496 1.434 . S
C1501 C1498 1.397 1_455 S
C1501 C1499 1.419 . S
C1502 H1492 0.930 . S
C1502 C1500 1.419 . S
C1502 C1503 1.362 . S
C1503 H1493 0.930 . S
C1503 C1496 1.409 . S
C1503 C1502 1.362 . S
H1504 C1510 0.930 . S
H1505 C1513 0.930 . S
H1506 C1514 0.930 . S
H1507 C1515 0.930 . S
H1508 C1518 0.930 . S
H1509 C1519 0.930 . S
C1510 H1504 0.930 . S
C1510 C1511 1.355 . S
C1510 C1512 1.415 1_556 S
C1511 C1510 1.355 . S
C1511 C1513 1.419 . S
C1512 C1510 1.415 1_554 S
C1512 C1517 1.425 . S
C1512 C1519 1.409 . S
C1513 H1505 0.930 . S
C1513 C1511 1.419 . S
C1513 C1514 1.362 1_556 S
C1514 H1506 0.930 . S
C1514 C1513 1.362 1_554 S
C1514 C1517 1.409 . S
C1515 H1507 0.930 . S
C1515 C1516 1.355 . S
C1515 C1517 1.415 . S
C1516 C1515 1.355 . S
C1516 C1518 1.419 . S
C1517 C1512 1.425 . S
C1517 C1514 1.409 . S
C1517 C1515 1.415 . S
C1518 H1508 0.930 . S
C1518 C1516 1.419 . S
C1518 C1519 1.362 . S
C1519 H1509 0.930 . S
C1519 C1512 1.409 . S
C1519 C1518 1.362 . S
H1520 C1526 0.930 . S
H1521 C1529 0.930 . S
H1522 C1530 0.930 . S
H1523 C1531 0.930 . S
H1524 C1534 0.930 . S
H1525 C1535 0.930 . S
C1526 H1520 0.930 . S
C1526 C1527 1.355 . S
C1526 C1528 1.415 . S
C1527 C1526 1.355 . S
C1527 C1529 1.419 . S
C1528 C1526 1.415 . S
C1528 C1533 1.425 . S
C1528 C1535 1.409 . S
C1529 H1521 0.930 . S
C1529 C1527 1.419 . S
C1529 C1530 1.362 . S
C1530 H1522 0.930 . S
C1530 C1529 1.362 . S
C1530 C1533 1.409 . S
C1531 H1523 0.930 . S
C1531 C1532 1.355 . S
C1531 C1533 1.415 . S
C1532 C1531 1.355 . S
C1532 C1534 1.419 . S
C1533 C1528 1.425 . S
C1533 C1530 1.409 . S
C1533 C1531 1.415 . S
C1534 H1524 0.930 . S
C1534 C1532 1.419 . S
C1534 C1535 1.362 . S
C1535 H1525 0.930 . S
C1535 C1528 1.409 . S
C1535 C1534 1.362 . S
H1536 C1542 0.930 . S
H1537 C1545 0.930 . S
H1538 C1546 0.930 . S
H1539 C1547 0.930 . S
H1540 C1550 0.930 . S
H1541 C1551 0.930 . S
C1542 H1536 0.930 . S
C1542 C1543 1.355 . S
C1542 C1544 1.415 . S
C1543 C1542 1.355 . S
C1543 C1545 1.419 . S
C1544 C1542 1.415 . S
C1544 C1549 1.425 . S
C1544 C1551 1.409 . S
C1545 H1537 0.930 . S
C1545 C1543 1.419 . S
C1545 C1546 1.362 . S
C1546 H1538 0.930 . S
C1546 C1545 1.362 . S
C1546 C1549 1.409 . S
C1547 H1539 0.930 . S
C1547 C1548 1.355 . S
C1547 C1549 1.415 . S
C1548 C1547 1.355 . S
C1548 C1550 1.419 . S
C1549 C1544 1.425 . S
C1549 C1546 1.409 . S
C1549 C1547 1.415 . S
C1550 H1540 0.930 . S
C1550 C1548 1.419 . S
C1550 C1551 1.362 . S
C1551 H1541 0.930 . S
C1551 C1544 1.409 . S
C1551 C1550 1.362 . S
H1552 C1558 0.930 . S
H1553 C1561 0.930 . S
H1554 C1562 0.930 . S
H1555 C1563 0.930 . S
H1556 C1566 0.930 . S
H1557 C1567 0.930 . S
C1558 H1552 0.930 . S
C1558 C1559 1.355 . S
C1558 C1560 1.415 1_565 S
C1559 C1558 1.355 . S
C1559 C1561 1.418 . S
C1560 C1558 1.415 1_545 S
C1560 C1565 1.425 . S
C1560 C1567 1.409 . S
C1561 H1553 0.930 . S
C1561 C1559 1.418 . S
C1561 C1562 1.363 1_565 S
C1562 H1554 0.930 . S
C1562 C1561 1.363 1_545 S
C1562 C1565 1.409 . S
C1563 H1555 0.930 . S
C1563 C1564 1.355 . S
C1563 C1565 1.415 . S
C1564 C1563 1.355 . S
C1564 C1566 1.419 . S
C1565 C1560 1.425 . S
C1565 C1562 1.409 . S
C1565 C1563 1.415 . S
C1566 H1556 0.930 . S
C1566 C1564 1.419 . S
C1566 C1567 1.362 . S
C1567 H1557 0.930 . S
C1567 C1560 1.409 . S
C1567 C1566 1.362 . S
H1568 C1574 0.930 . S
H1569 C1577 0.930 . S
H1570 C1578 0.930 . S
H1571 C1579 0.930 . S
H1572 C1582 0.930 . S
H1573 C1583 0.930 . S
C1574 H1568 0.930 . S
C1574 C1575 1.355 . S
C1574 C1576 1.415 . S
C1575 C1574 1.355 . S
C1575 C1577 1.419 . S
C1576 C1574 1.415 . S
C1576 C1581 1.425 . S
C1576 C1583 1.409 . S
C1577 H1569 0.930 . S
C1577 C1575 1.419 . S
C1577 C1578 1.362 . S
C1578 H1570 0.930 . S
C1578 C1577 1.362 . S
C1578 C1581 1.409 . S
C1579 H1571 0.930 . S
C1579 C1580 1.355 . S
C1579 C1581 1.415 . S
C1580 C1579 1.355 . S
C1580 C1582 1.419 . S
C1581 C1576 1.425 . S
C1581 C1578 1.409 . S
C1581 C1579 1.415 . S
C1582 H1572 0.930 . S
C1582 C1580 1.419 . S
C1582 C1583 1.362 . S
C1583 H1573 0.930 . S
C1583 C1576 1.409 . S
C1583 C1582 1.362 . S
H1584 C1590 0.930 . S
H1585 C1593 0.930 . S
H1586 C1594 0.930 . S
H1587 C1595 0.930 . S
H1588 C1598 0.930 . S
H1589 C1599 0.930 . S
C1590 H1584 0.930 . S
C1590 C1591 1.355 1_565 S
C1590 C1592 1.415 . S
C1591 C1590 1.355 1_545 S
C1591 C1593 1.419 . S
C1592 C1590 1.415 . S
C1592 C1597 1.425 1_565 S
C1592 C1599 1.409 . S
C1593 H1585 0.930 . S
C1593 C1591 1.419 . S
C1593 C1594 1.362 . S
C1594 H1586 0.930 . S
C1594 C1593 1.362 . S
C1594 C1597 1.409 . S
C1595 H1587 0.930 . S
C1595 C1596 1.355 1_545 S
C1595 C1597 1.415 . S
C1596 C1595 1.355 1_565 S
C1596 C1598 1.419 . S
C1597 C1592 1.425 1_545 S
C1597 C1594 1.409 . S
C1597 C1595 1.415 . S
C1598 H1588 0.930 . S
C1598 C1596 1.419 . S
C1598 C1599 1.362 . S
C1599 H1589 0.930 . S
C1599 C1592 1.409 . S
C1599 C1598 1.362 . S
H1600 C1606 0.930 . S
H1601 C1609 0.930 . S
H1602 C1610 0.930 . S
H1603 C1611 0.930 . S
H1604 C1614 0.930 . S
H1605 C1615 0.930 . S
C1606 H1600 0.930 . S
C1606 C1607 1.355 . S
C1606 C1608 1.415 . S
C1607 C1606 1.355 . S
C1607 C1609 1.419 . S
C1608 C1606 1.415 . S
C1608 C1613 1.425 . S
C1608 C1615 1.409 . S
C1609 H1601 0.930 . S
C1609 C1607 1.419 . S
C1609 C1610 1.362 . S
C1610 H1602 0.930 . S
C1610 C1609 1.362 . S
C1610 C1613 1.409 . S
C1611 H1603 0.930 . S
C1611 C1612 1.355 . S
C1611 C1613 1.415 . S
C1612 C1611 1.355 . S
C1612 C1614 1.419 . S
C1613 C1608 1.425 . S
C1613 C1610 1.409 . S
C1613 C1611 1.415 . S
C1614 H1604 0.930 . S
C1614 C1612 1.419 . S
C1614 C1615 1.362 . S
C1615 H1605 0.930 . S
C1615 C1608 1.409 . S
C1615 C1614 1.362 . S
H1616 C1622 0.930 . S
H1617 C1625 0.930 . S
H1618 C1626 0.930 . S
H1619 C1627 0.930 . S
H1620 C1630 0.930 . S
H1621 C1631 0.930 . S
C1622 H1616 0.930 . S
C1622 C1623 1.355 . S
C1622 C1624 1.415 . S
C1623 C1622 1.355 . S
C1623 C1625 1.419 . S
C1624 C1622 1.415 . S
C1624 C1629 1.425 . S
C1624 C1631 1.409 . S
C1625 H1617 0.930 . S
C1625 C1623 1.419 . S
C1625 C1626 1.362 . S
C1626 H1618 0.930 . S
C1626 C1625 1.362 . S
C1626 C1629 1.409 . S
C1627 H1619 0.930 . S
C1627 C1628 1.355 . S
C1627 C1629 1.415 . S
C1628 C1627 1.355 . S
C1628 C1630 1.419 . S
C1629 C1624 1.425 . S
C1629 C1626 1.409 . S
C1629 C1627 1.415 . S
C1630 H1620 0.930 . S
C1630 C1628 1.419 . S
C1630 C1631 1.362 . S
C1631 H1621 0.930 . S
C1631 C1624 1.409 . S
C1631 C1630 1.362 . S
H1632 C1638 0.930 . S
H1633 C1641 0.930 . S
H1634 C1642 0.930 . S
H1635 C1643 0.930 . S
H1636 C1646 0.930 . S
H1637 C1647 0.930 . S
C1638 H1632 0.930 . S
C1638 C1639 1.355 . S
C1638 C1640 1.415 . S
C1639 C1638 1.355 . S
C1639 C1641 1.419 . S
C1640 C1638 1.415 . S
C1640 C1645 1.425 . S
C1640 C1647 1.409 . S
C1641 H1633 0.930 . S
C1641 C1639 1.419 . S
C1641 C1642 1.362 . S
C1642 H1634 0.930 . S
C1642 C1641 1.362 . S
C1642 C1645 1.409 . S
C1643 H1635 0.930 . S
C1643 C1644 1.355 . S
C1643 C1645 1.415 . S
C1644 C1643 1.355 . S
C1644 C1646 1.419 . S
C1645 C1640 1.425 . S
C1645 C1642 1.409 . S
C1645 C1643 1.415 . S
C1646 H1636 0.930 . S
C1646 C1644 1.419 . S
C1646 C1647 1.362 . S
C1647 H1637 0.930 . S
C1647 C1640 1.409 . S
C1647 C1646 1.362 . S
H1648 C1654 0.930 . S
H1649 C1657 0.930 . S
H1650 C1658 0.930 . S
H1651 C1659 0.930 . S
H1652 C1662 0.930 . S
H1653 C1663 0.930 . S
C1654 H1648 0.930 . S
C1654 C1655 1.355 . S
C1654 C1656 1.415 . S
C1655 C1654 1.355 . S
C1655 C1657 1.419 . S
C1656 C1654 1.415 . S
C1656 C1661 1.425 . S
C1656 C1663 1.409 . S
C1657 H1649 0.930 . S
C1657 C1655 1.419 . S
C1657 C1658 1.362 . S
C1658 H1650 0.930 . S
C1658 C1657 1.362 . S
C1658 C1661 1.409 . S
C1659 H1651 0.930 . S
C1659 C1660 1.355 . S
C1659 C1661 1.415 . S
C1660 C1659 1.355 . S
C1660 C1662 1.419 . S
C1661 C1656 1.425 . S
C1661 C1658 1.409 . S
C1661 C1659 1.415 . S
C1662 H1652 0.930 . S
C1662 C1660 1.419 . S
C1662 C1663 1.362 . S
C1663 H1653 0.930 . S
C1663 C1656 1.409 . S
C1663 C1662 1.362 . S
H1664 C1670 0.930 . S
H1665 C1673 0.930 . S
H1666 C1674 0.930 . S
H1667 C1675 0.930 . S
H1668 C1678 0.930 . S
H1669 C1679 0.930 . S
C1670 H1664 0.930 . S
C1670 C1671 1.355 . S
C1670 C1672 1.415 . S
C1671 C1670 1.355 . S
C1671 C1673 1.419 . S
C1672 C1670 1.415 . S
C1672 C1677 1.425 . S
C1672 C1679 1.409 . S
C1673 H1665 0.930 . S
C1673 C1671 1.419 . S
C1673 C1674 1.362 . S
C1674 H1666 0.930 . S
C1674 C1673 1.362 . S
C1674 C1677 1.409 . S
C1675 H1667 0.930 . S
C1675 C1676 1.355 . S
C1675 C1677 1.415 . S
C1676 C1675 1.355 . S
C1676 C1678 1.419 . S
C1677 C1672 1.425 . S
C1677 C1674 1.409 . S
C1677 C1675 1.415 . S
C1678 H1668 0.930 . S
C1678 C1676 1.419 . S
C1678 C1679 1.362 . S
C1679 H1669 0.930 . S
C1679 C1672 1.409 . S
C1679 C1678 1.362 . S
H1680 C1686 0.930 . S
H1681 C1689 0.930 . S
H1682 C1690 0.930 . S
H1683 C1691 0.930 . S
H1684 C1694 0.930 . S
H1685 C1695 0.930 . S
C1686 H1680 0.930 . S
C1686 C1687 1.355 . S
C1686 C1688 1.415 . S
C1687 C1686 1.355 . S
C1687 C1689 1.419 . S
C1688 C1686 1.415 . S
C1688 C1693 1.425 . S
C1688 C1695 1.409 . S
C1689 H1681 0.930 . S
C1689 C1687 1.419 . S
C1689 C1690 1.362 . S
C1690 H1682 0.930 . S
C1690 C1689 1.362 . S
C1690 C1693 1.409 . S
C1691 H1683 0.930 . S
C1691 C1692 1.355 . S
C1691 C1693 1.415 . S
C1692 C1691 1.355 . S
C1692 C1694 1.419 . S
C1693 C1688 1.425 . S
C1693 C1690 1.409 . S
C1693 C1691 1.415 . S
C1694 H1684 0.930 . S
C1694 C1692 1.419 . S
C1694 C1695 1.362 . S
C1695 H1685 0.930 . S
C1695 C1688 1.409 . S
C1695 C1694 1.362 . S
H1696 C1702 0.930 . S
H1697 C1705 0.930 . S
H1698 C1706 0.930 . S
H1699 C1707 0.930 . S
H1700 C1710 0.930 . S
H1701 C1711 0.930 . S
C1702 H1696 0.930 . S
C1702 C1703 1.355 1_554 S
C1702 C1704 1.415 . S
C1703 C1702 1.355 1_556 S
C1703 C1705 1.419 . S
C1704 C1702 1.415 . S
C1704 C1709 1.425 1_554 S
C1704 C1711 1.409 . S
C1705 H1697 0.930 . S
C1705 C1703 1.419 . S
C1705 C1706 1.362 . S
C1706 H1698 0.930 . S
C1706 C1705 1.362 . S
C1706 C1709 1.409 . S
C1707 H1699 0.930 . S
C1707 C1708 1.355 1_556 S
C1707 C1709 1.415 . S
C1708 C1707 1.355 1_554 S
C1708 C1710 1.419 . S
C1709 C1704 1.425 1_556 S
C1709 C1706 1.409 . S
C1709 C1707 1.415 . S
C1710 H1700 0.930 . S
C1710 C1708 1.419 . S
C1710 C1711 1.362 . S
C1711 H1701 0.930 . S
C1711 C1704 1.409 . S
C1711 C1710 1.362 . S
H1712 C1718 0.930 . S
H1713 C1721 0.930 . S
H1714 C1722 0.930 . S
H1715 C1723 0.930 . S
H1716 C1726 0.930 . S
H1717 C1727 0.930 . S
C1718 H1712 0.930 . S
C1718 C1719 1.355 . S
C1718 C1720 1.415 . S
C1719 C1718 1.355 . S
C1719 C1721 1.419 1_455 S
C1720 C1718 1.415 . S
C1720 C1725 1.425 1_455 S
C1720 C1727 1.409 . S
C1721 H1713 0.930 . S
C1721 C1719 1.419 1_655 S
C1721 C1722 1.362 . S
C1722 H1714 0.930 . S
C1722 C1721 1.362 . S
C1722 C1725 1.409 . S
C1723 H1715 0.930 . S
C1723 C1724 1.346 1_655 S
C1723 C1725 1.415 . S
C1724 C1723 1.346 1_455 S
C1724 C1726 1.432 . S
C1725 C1720 1.425 1_655 S
C1725 C1722 1.409 . S
C1725 C1723 1.415 . S
C1726 H1716 0.930 . S
C1726 C1724 1.432 . S
C1726 C1727 1.362 . S
C1727 H1717 0.930 . S
C1727 C1720 1.409 . S
C1727 C1726 1.362 . S
H1728 C1734 0.930 . S
H1729 C1737 0.930 . S
H1730 C1738 0.930 . S
H1731 C1739 0.930 . S
H1732 C1742 0.930 . S
H1733 C1743 0.930 . S
C1734 H1728 0.930 . S
C1734 C1735 1.355 . S
C1734 C1736 1.415 . S
C1735 C1734 1.355 . S
C1735 C1737 1.419 . S
C1736 C1734 1.415 . S
C1736 C1741 1.425 . S
C1736 C1743 1.409 . S
C1737 H1729 0.930 . S
C1737 C1735 1.419 . S
C1737 C1738 1.362 . S
C1738 H1730 0.930 . S
C1738 C1737 1.362 . S
C1738 C1741 1.409 . S
C1739 H1731 0.930 . S
C1739 C1740 1.355 . S
C1739 C1741 1.415 . S
C1740 C1739 1.355 . S
C1740 C1742 1.419 . S
C1741 C1736 1.425 . S
C1741 C1738 1.409 . S
C1741 C1739 1.415 . S
C1742 H1732 0.930 . S
C1742 C1740 1.419 . S
C1742 C1743 1.362 . S
C1743 H1733 0.930 . S
C1743 C1736 1.409 . S
C1743 C1742 1.362 . S
H1744 C1750 0.930 . S
H1745 C1753 0.930 . S
H1746 C1754 0.930 . S
H1747 C1755 0.930 . S
H1748 C1758 0.930 . S
H1749 C1759 0.930 . S
C1750 H1744 0.930 . S
C1750 C1751 1.355 . S
C1750 C1752 1.415 . S
C1751 C1750 1.355 . S
C1751 C1753 1.419 . S
C1752 C1750 1.415 . S
C1752 C1757 1.425 . S
C1752 C1759 1.409 . S
C1753 H1745 0.930 . S
C1753 C1751 1.419 . S
C1753 C1754 1.362 . S
C1754 H1746 0.930 . S
C1754 C1753 1.362 . S
C1754 C1757 1.409 . S
C1755 H1747 0.930 . S
C1755 C1756 1.355 . S
C1755 C1757 1.415 . S
C1756 C1755 1.355 . S
C1756 C1758 1.419 . S
C1757 C1752 1.425 . S
C1757 C1754 1.409 . S
C1757 C1755 1.415 . S
C1758 H1748 0.930 . S
C1758 C1756 1.419 . S
C1758 C1759 1.362 . S
C1759 H1749 0.930 . S
C1759 C1752 1.409 . S
C1759 C1758 1.362 . S
H1760 C1766 0.930 . S
H1761 C1769 0.930 . S
H1762 C1770 0.930 . S
H1763 C1771 0.930 . S
H1764 C1774 0.930 . S
H1765 C1775 0.930 . S
C1766 H1760 0.930 . S
C1766 C1767 1.355 . S
C1766 C1768 1.415 . S
C1767 C1766 1.355 . S
C1767 C1769 1.419 . S
C1768 C1766 1.415 . S
C1768 C1773 1.425 . S
C1768 C1775 1.409 . S
C1769 H1761 0.930 . S
C1769 C1767 1.419 . S
C1769 C1770 1.362 . S
C1770 H1762 0.930 . S
C1770 C1769 1.362 . S
C1770 C1773 1.409 . S
C1771 H1763 0.930 . S
C1771 C1772 1.355 . S
C1771 C1773 1.415 . S
C1772 C1771 1.355 . S
C1772 C1774 1.419 . S
C1773 C1768 1.425 . S
C1773 C1770 1.409 . S
C1773 C1771 1.415 . S
C1774 H1764 0.930 . S
C1774 C1772 1.419 . S
C1774 C1775 1.362 . S
C1775 H1765 0.930 . S
C1775 C1768 1.409 . S
C1775 C1774 1.362 . S
C823 C33 0.784 . S
C828 C713 0.799 . S
C839 C611 0.808 . S
C844 C67 0.795 1_554 S
C855 C645 0.589 . S
C860 C101 0.602 . S
C871 C679 0.614 . S
C876 C135 0.598 . S
C887 C169 0.646 . S
C892 C815 0.670 . S
C903 C747 0.701 . S
C908 C203 0.676 . S
C919 C781 0.821 1_455 S
C924 C237 0.822 . S
C935 C577 0.689 . S
C940 C271 0.714 . S
C951 C305 0.733 . S
C956 C543 0.708 . S
C967 C441 0.809 . S
C972 C339 0.818 . S
C983 C373 0.820 . S
C988 C475 0.822 1_545 S
C999 C509 0.616 . S
C1004 C407 0.636 . S
C1015 C648 1.898 . S
C1020 C9 1.807 . S
C1031 C43 1.842 . S
C1036 C682 1.892 . S
C1047 C580 1.903 . S
C1052 C77 1.806 . S
C1063 C111 1.860 . S
C1068 C614 1.910 . S
C1079 C716 1.907 . S
C1084 C145 1.865 . S
C1095 C750 1.903 . S
C1100 C179 1.866 . S
C1111 C546 1.904 . S
C1116 C213 1.866 . S
C1127 C247 1.836 . S
C1132 C784 1.913 . S
C1143 C281 1.861 . S
C1148 C70 1.898 . S
C1159 C315 1.821 . S
C1164 C104 1.892 . S
C1175 C349 1.805 . S
C1180 C2 1.901 . S
C1191 C36 1.910 . S
C1196 C383 1.857 . S
C1207 C417 1.839 . S
C1212 C206 1.913 . S
C1223 C240 1.894 . S
C1228 C451 1.813 . S
C1239 C138 1.909 . S
C1244 C485 1.816 . S
C1255 C172 1.897 . S
C1260 C519 1.807 . S
C1271 C410 1.900 . S
C1276 C553 1.805 . S
C1287 C274 1.899 . S
C1292 C587 1.806 . S
C1303 C621 1.843 . S
C1308 C308 1.892 . S
C1319 C655 1.811 . S
C1324 C342 1.895 . S
C1335 C376 1.913 . S
C1340 C689 1.839 . S
C1351 C723 1.855 . S
C1356 C478 1.895 . S
C1367 C512 1.907 . S
C1372 C757 1.811 . S
C1383 C791 1.822 . S
C1388 C444 1.892 . S
C1399 C20 1.274 . S
C1404 C768 1.272 . S
C1415 C564 1.330 . S
C1420 C54 1.246 . S
C1431 C88 1.304 . S
C1436 C802 1.247 . S
C1447 C734 1.297 . S
C1452 C122 1.293 . S
C1463 C156 1.281 . S
C1468 C632 1.309 . S
C1479 C666 1.330 . S
C1484 C190 1.240 . S
C1495 C224 1.330 . S
C1500 C700 1.241 . S
C1511 C598 1.316 . S
C1516 C258 1.239 . S
C1527 C462 1.295 . S
C1532 C292 1.253 . S
C1543 C496 1.265 . S
C1548 C326 1.320 . S
C1559 C360 1.245 . S
C1564 C530 1.330 . S
C1575 C394 1.252 . S
C1580 C428 1.297 . S
C1591 C515 1.182 . S
C1596 C5 1.224 1_565 S
C1607 C39 1.162 . S
C1612 C413 1.275 . S
C1623 C447 1.230 . S
C1628 C73 1.177 . S
C1639 C481 1.190 . S
C1644 C107 1.257 . S
C1655 C141 1.147 . S
C1660 C311 1.271 . S
C1671 C345 1.201 . S
C1676 C175 1.247 . S
C1687 C209 1.228 . S
C1692 C379 1.223 . S
C1703 C277 1.278 1_556 S
C1708 C243 1.155 . S
C1719 C685 1.223 . S
C1724 C549 1.229 . S
C1735 C787 1.186 . S
C1740 C583 1.260 . S
C1751 C719 1.271 . S
C1756 C617 1.147 . S
C1767 C753 1.227 . S
C1772 C651 1.224 . S
