# Generated by pormake.
# Topology uli, (4)-cn, num edge types: 1
# Building blocks:
#     Node 0, Type 0, BuildingBlock: QUQFOY_clean_sbu_1, # of connection points: 4
#     Node 1, Type 0, BuildingBlock: QUQFOY_clean_sbu_1, # of connection points: 4
#     Node 2, Type 0, BuildingBlock: QUQFOY_clean_sbu_1, # of connection points: 4
#     Node 3, Type 0, BuildingBlock: QUQFOY_clean_sbu_1, # of connection points: 4
#     Node 4, Type 0, BuildingBlock: QUQFOY_clean_sbu_1, # of connection points: 4
#     Node 5, Type 0, BuildingBlock: QUQFOY_clean_sbu_1, # of connection points: 4
#     Node 6, Type 0, BuildingBlock: QUQFOY_clean_sbu_1, # of connection points: 4
#     Node 7, Type 0, BuildingBlock: QUQFOY_clean_sbu_1, # of connection points: 4
#     Node 8, Type 0, BuildingBlock: QUQFOY_clean_sbu_1, # of connection points: 4
#     Node 9, Type 0, BuildingBlock: QUQFOY_clean_sbu_1, # of connection points: 4
#     Node 10, Type 0, BuildingBlock: QUQFOY_clean_sbu_1, # of connection points: 4
#     Node 11, Type 0, BuildingBlock: QUQFOY_clean_sbu_1, # of connection points: 4
#     Node 12, Type 0, BuildingBlock: QUQFOY_clean_sbu_1, # of connection points: 4
#     Node 13, Type 0, BuildingBlock: QUQFOY_clean_sbu_1, # of connection points: 4
#     Node 14, Type 0, BuildingBlock: QUQFOY_clean_sbu_1, # of connection points: 4
#     Node 15, Type 0, BuildingBlock: QUQFOY_clean_sbu_1, # of connection points: 4
#     Node 16, Type 0, BuildingBlock: QUQFOY_clean_sbu_1, # of connection points: 4
#     Node 17, Type 0, BuildingBlock: QUQFOY_clean_sbu_1, # of connection points: 4
#     Node 18, Type 0, BuildingBlock: QUQFOY_clean_sbu_1, # of connection points: 4
#     Node 19, Type 0, BuildingBlock: QUQFOY_clean_sbu_1, # of connection points: 4
#     Node 20, Type 0, BuildingBlock: QUQFOY_clean_sbu_1, # of connection points: 4
#     Node 21, Type 0, BuildingBlock: QUQFOY_clean_sbu_1, # of connection points: 4
#     Node 22, Type 0, BuildingBlock: QUQFOY_clean_sbu_1, # of connection points: 4
#     Node 23, Type 0, BuildingBlock: QUQFOY_clean_sbu_1, # of connection points: 4
#     Node 24, Type 0, BuildingBlock: QUQFOY_clean_sbu_1, # of connection points: 4
#     Node 25, Type 0, BuildingBlock: QUQFOY_clean_sbu_1, # of connection points: 4
#     Node 26, Type 0, BuildingBlock: QUQFOY_clean_sbu_1, # of connection points: 4
#     Node 27, Type 0, BuildingBlock: QUQFOY_clean_sbu_1, # of connection points: 4
#     Node 28, Type 0, BuildingBlock: QUQFOY_clean_sbu_1, # of connection points: 4
#     Node 29, Type 0, BuildingBlock: QUQFOY_clean_sbu_1, # of connection points: 4
#     Node 30, Type 0, BuildingBlock: QUQFOY_clean_sbu_1, # of connection points: 4
#     Node 31, Type 0, BuildingBlock: QUQFOY_clean_sbu_1, # of connection points: 4
#     Node 32, Type 0, BuildingBlock: QUQFOY_clean_sbu_1, # of connection points: 4
#     Node 33, Type 0, BuildingBlock: QUQFOY_clean_sbu_1, # of connection points: 4
#     Node 34, Type 0, BuildingBlock: QUQFOY_clean_sbu_1, # of connection points: 4
#     Node 35, Type 0, BuildingBlock: QUQFOY_clean_sbu_1, # of connection points: 4
#     Node 36, Type 0, BuildingBlock: QUQFOY_clean_sbu_1, # of connection points: 4
#     Node 37, Type 0, BuildingBlock: QUQFOY_clean_sbu_1, # of connection points: 4
#     Node 38, Type 0, BuildingBlock: QUQFOY_clean_sbu_1, # of connection points: 4
#     Node 39, Type 0, BuildingBlock: QUQFOY_clean_sbu_1, # of connection points: 4
#     Node 40, Type 0, BuildingBlock: QUQFOY_clean_sbu_1, # of connection points: 4
#     Node 41, Type 0, BuildingBlock: QUQFOY_clean_sbu_1, # of connection points: 4
#     Node 42, Type 0, BuildingBlock: QUQFOY_clean_sbu_1, # of connection points: 4
#     Node 43, Type 0, BuildingBlock: QUQFOY_clean_sbu_1, # of connection points: 4
#     Node 44, Type 0, BuildingBlock: QUQFOY_clean_sbu_1, # of connection points: 4
#     Node 45, Type 0, BuildingBlock: QUQFOY_clean_sbu_1, # of connection points: 4
#     Node 46, Type 0, BuildingBlock: QUQFOY_clean_sbu_1, # of connection points: 4
#     Node 47, Type 0, BuildingBlock: QUQFOY_clean_sbu_1, # of connection points: 4
#     Edge 48, Type (0, 0), BuildingBlock: ZUJKAS_clean_linker_0, # of connection points: 2
#     Edge 49, Type (0, 0), BuildingBlock: ZUJKAS_clean_linker_0, # of connection points: 2
#     Edge 50, Type (0, 0), BuildingBlock: ZUJKAS_clean_linker_0, # of connection points: 2
#     Edge 51, Type (0, 0), BuildingBlock: ZUJKAS_clean_linker_0, # of connection points: 2
#     Edge 52, Type (0, 0), BuildingBlock: ZUJKAS_clean_linker_0, # of connection points: 2
#     Edge 53, Type (0, 0), BuildingBlock: ZUJKAS_clean_linker_0, # of connection points: 2
#     Edge 54, Type (0, 0), BuildingBlock: ZUJKAS_clean_linker_0, # of connection points: 2
#     Edge 55, Type (0, 0), BuildingBlock: ZUJKAS_clean_linker_0, # of connection points: 2
#     Edge 56, Type (0, 0), BuildingBlock: ZUJKAS_clean_linker_0, # of connection points: 2
#     Edge 57, Type (0, 0), BuildingBlock: ZUJKAS_clean_linker_0, # of connection points: 2
#     Edge 58, Type (0, 0), BuildingBlock: ZUJKAS_clean_linker_0, # of connection points: 2
#     Edge 59, Type (0, 0), BuildingBlock: ZUJKAS_clean_linker_0, # of connection points: 2
#     Edge 60, Type (0, 0), BuildingBlock: ZUJKAS_clean_linker_0, # of connection points: 2
#     Edge 61, Type (0, 0), BuildingBlock: ZUJKAS_clean_linker_0, # of connection points: 2
#     Edge 62, Type (0, 0), BuildingBlock: ZUJKAS_clean_linker_0, # of connection points: 2
#     Edge 63, Type (0, 0), BuildingBlock: ZUJKAS_clean_linker_0, # of connection points: 2
#     Edge 64, Type (0, 0), BuildingBlock: ZUJKAS_clean_linker_0, # of connection points: 2
#     Edge 65, Type (0, 0), BuildingBlock: ZUJKAS_clean_linker_0, # of connection points: 2
#     Edge 66, Type (0, 0), BuildingBlock: ZUJKAS_clean_linker_0, # of connection points: 2
#     Edge 67, Type (0, 0), BuildingBlock: ZUJKAS_clean_linker_0, # of connection points: 2
#     Edge 68, Type (0, 0), BuildingBlock: ZUJKAS_clean_linker_0, # of connection points: 2
#     Edge 69, Type (0, 0), BuildingBlock: ZUJKAS_clean_linker_0, # of connection points: 2
#     Edge 70, Type (0, 0), BuildingBlock: ZUJKAS_clean_linker_0, # of connection points: 2
#     Edge 71, Type (0, 0), BuildingBlock: ZUJKAS_clean_linker_0, # of connection points: 2
#     Edge 72, Type (0, 0), BuildingBlock: ZUJKAS_clean_linker_0, # of connection points: 2
#     Edge 73, Type (0, 0), BuildingBlock: ZUJKAS_clean_linker_0, # of connection points: 2
#     Edge 74, Type (0, 0), BuildingBlock: ZUJKAS_clean_linker_0, # of connection points: 2
#     Edge 75, Type (0, 0), BuildingBlock: ZUJKAS_clean_linker_0, # of connection points: 2
#     Edge 76, Type (0, 0), BuildingBlock: ZUJKAS_clean_linker_0, # of connection points: 2
#     Edge 77, Type (0, 0), BuildingBlock: ZUJKAS_clean_linker_0, # of connection points: 2
#     Edge 78, Type (0, 0), BuildingBlock: ZUJKAS_clean_linker_0, # of connection points: 2
#     Edge 79, Type (0, 0), BuildingBlock: ZUJKAS_clean_linker_0, # of connection points: 2
#     Edge 80, Type (0, 0), BuildingBlock: ZUJKAS_clean_linker_0, # of connection points: 2
#     Edge 81, Type (0, 0), BuildingBlock: ZUJKAS_clean_linker_0, # of connection points: 2
#     Edge 82, Type (0, 0), BuildingBlock: ZUJKAS_clean_linker_0, # of connection points: 2
#     Edge 83, Type (0, 0), BuildingBlock: ZUJKAS_clean_linker_0, # of connection points: 2
#     Edge 84, Type (0, 0), BuildingBlock: ZUJKAS_clean_linker_0, # of connection points: 2
#     Edge 85, Type (0, 0), BuildingBlock: ZUJKAS_clean_linker_0, # of connection points: 2
#     Edge 86, Type (0, 0), BuildingBlock: ZUJKAS_clean_linker_0, # of connection points: 2
#     Edge 87, Type (0, 0), BuildingBlock: ZUJKAS_clean_linker_0, # of connection points: 2
#     Edge 88, Type (0, 0), BuildingBlock: ZUJKAS_clean_linker_0, # of connection points: 2
#     Edge 89, Type (0, 0), BuildingBlock: ZUJKAS_clean_linker_0, # of connection points: 2
#     Edge 90, Type (0, 0), BuildingBlock: ZUJKAS_clean_linker_0, # of connection points: 2
#     Edge 91, Type (0, 0), BuildingBlock: ZUJKAS_clean_linker_0, # of connection points: 2
#     Edge 92, Type (0, 0), BuildingBlock: ZUJKAS_clean_linker_0, # of connection points: 2
#     Edge 93, Type (0, 0), BuildingBlock: ZUJKAS_clean_linker_0, # of connection points: 2
#     Edge 94, Type (0, 0), BuildingBlock: ZUJKAS_clean_linker_0, # of connection points: 2
#     Edge 95, Type (0, 0), BuildingBlock: ZUJKAS_clean_linker_0, # of connection points: 2
#     Edge 96, Type (0, 0), BuildingBlock: ZUJKAS_clean_linker_0, # of connection points: 2
#     Edge 97, Type (0, 0), BuildingBlock: ZUJKAS_clean_linker_0, # of connection points: 2
#     Edge 98, Type (0, 0), BuildingBlock: ZUJKAS_clean_linker_0, # of connection points: 2
#     Edge 99, Type (0, 0), BuildingBlock: ZUJKAS_clean_linker_0, # of connection points: 2
#     Edge 100, Type (0, 0), BuildingBlock: ZUJKAS_clean_linker_0, # of connection points: 2
#     Edge 101, Type (0, 0), BuildingBlock: ZUJKAS_clean_linker_0, # of connection points: 2
#     Edge 102, Type (0, 0), BuildingBlock: ZUJKAS_clean_linker_0, # of connection points: 2
#     Edge 103, Type (0, 0), BuildingBlock: ZUJKAS_clean_linker_0, # of connection points: 2
#     Edge 104, Type (0, 0), BuildingBlock: ZUJKAS_clean_linker_0, # of connection points: 2
#     Edge 105, Type (0, 0), BuildingBlock: ZUJKAS_clean_linker_0, # of connection points: 2
#     Edge 106, Type (0, 0), BuildingBlock: ZUJKAS_clean_linker_0, # of connection points: 2
#     Edge 107, Type (0, 0), BuildingBlock: ZUJKAS_clean_linker_0, # of connection points: 2
#     Edge 108, Type (0, 0), BuildingBlock: ZUJKAS_clean_linker_0, # of connection points: 2
#     Edge 109, Type (0, 0), BuildingBlock: ZUJKAS_clean_linker_0, # of connection points: 2
#     Edge 110, Type (0, 0), BuildingBlock: ZUJKAS_clean_linker_0, # of connection points: 2
#     Edge 111, Type (0, 0), BuildingBlock: ZUJKAS_clean_linker_0, # of connection points: 2
#     Edge 112, Type (0, 0), BuildingBlock: ZUJKAS_clean_linker_0, # of connection points: 2
#     Edge 113, Type (0, 0), BuildingBlock: ZUJKAS_clean_linker_0, # of connection points: 2
#     Edge 114, Type (0, 0), BuildingBlock: ZUJKAS_clean_linker_0, # of connection points: 2
#     Edge 115, Type (0, 0), BuildingBlock: ZUJKAS_clean_linker_0, # of connection points: 2
#     Edge 116, Type (0, 0), BuildingBlock: ZUJKAS_clean_linker_0, # of connection points: 2
#     Edge 117, Type (0, 0), BuildingBlock: ZUJKAS_clean_linker_0, # of connection points: 2
#     Edge 118, Type (0, 0), BuildingBlock: ZUJKAS_clean_linker_0, # of connection points: 2
#     Edge 119, Type (0, 0), BuildingBlock: ZUJKAS_clean_linker_0, # of connection points: 2
#     Edge 120, Type (0, 0), BuildingBlock: ZUJKAS_clean_linker_0, # of connection points: 2
#     Edge 121, Type (0, 0), BuildingBlock: ZUJKAS_clean_linker_0, # of connection points: 2
#     Edge 122, Type (0, 0), BuildingBlock: ZUJKAS_clean_linker_0, # of connection points: 2
#     Edge 123, Type (0, 0), BuildingBlock: ZUJKAS_clean_linker_0, # of connection points: 2
#     Edge 124, Type (0, 0), BuildingBlock: ZUJKAS_clean_linker_0, # of connection points: 2
#     Edge 125, Type (0, 0), BuildingBlock: ZUJKAS_clean_linker_0, # of connection points: 2
#     Edge 126, Type (0, 0), BuildingBlock: ZUJKAS_clean_linker_0, # of connection points: 2
#     Edge 127, Type (0, 0), BuildingBlock: ZUJKAS_clean_linker_0, # of connection points: 2
#     Edge 128, Type (0, 0), BuildingBlock: ZUJKAS_clean_linker_0, # of connection points: 2
#     Edge 129, Type (0, 0), BuildingBlock: ZUJKAS_clean_linker_0, # of connection points: 2
#     Edge 130, Type (0, 0), BuildingBlock: ZUJKAS_clean_linker_0, # of connection points: 2
#     Edge 131, Type (0, 0), BuildingBlock: ZUJKAS_clean_linker_0, # of connection points: 2
#     Edge 132, Type (0, 0), BuildingBlock: ZUJKAS_clean_linker_0, # of connection points: 2
#     Edge 133, Type (0, 0), BuildingBlock: ZUJKAS_clean_linker_0, # of connection points: 2
#     Edge 134, Type (0, 0), BuildingBlock: ZUJKAS_clean_linker_0, # of connection points: 2
#     Edge 135, Type (0, 0), BuildingBlock: ZUJKAS_clean_linker_0, # of connection points: 2
#     Edge 136, Type (0, 0), BuildingBlock: ZUJKAS_clean_linker_0, # of connection points: 2
#     Edge 137, Type (0, 0), BuildingBlock: ZUJKAS_clean_linker_0, # of connection points: 2
#     Edge 138, Type (0, 0), BuildingBlock: ZUJKAS_clean_linker_0, # of connection points: 2
#     Edge 139, Type (0, 0), BuildingBlock: ZUJKAS_clean_linker_0, # of connection points: 2
#     Edge 140, Type (0, 0), BuildingBlock: ZUJKAS_clean_linker_0, # of connection points: 2
#     Edge 141, Type (0, 0), BuildingBlock: ZUJKAS_clean_linker_0, # of connection points: 2
#     Edge 142, Type (0, 0), BuildingBlock: ZUJKAS_clean_linker_0, # of connection points: 2
#     Edge 143, Type (0, 0), BuildingBlock: ZUJKAS_clean_linker_0, # of connection points: 2
# Relax obj value: 0.325
# Max RMSD: 0.101
# Mean RMSD: 0.101
data_MOF--net-uli--node1-QUQFOY_clean_sbu_1--edge1-ZUJKAS_clean_linker_0
_symmetry_space_group_name_H-M    P1
_symmetry_Int_Tables_number       1
_symmetry_cell_setting            triclinic
loop_
_symmetry_equiv_pos_as_xyz
'x, y, z'
_cell_length_a     92.619589
_cell_length_b     92.625071
_cell_length_c     92.627154
_cell_angle_alpha  89.997971
_cell_angle_beta   90.002545
_cell_angle_gamma 90.00831
loop_
_atom_site_label
_atom_site_type_symbol
_atom_site_fract_x
_atom_site_fract_y
_atom_site_fract_z
_atom_type_partial_charge
O0 O 0.09787 0.2336 0.21745 0.0
Cd1 Cd 0.09 0.2518 0.20749 0.0
Cd2 Cd 0.1097 0.26518 0.22252 0.0
O3 O 0.10937 0.24606 0.23408 0.0
O4 O 0.06927 0.24844 0.20354 0.0
O5 O 0.07731 0.26421 0.21972 0.0
C6 C 0.06657 0.25754 0.21377 0.0
C7 C 0.11318 0.28698 0.23474 0.0
C8 C 0.10494 0.23402 0.22918 0.0
C9 C 0.11382 0.26279 0.19018 0.0
O10 O 0.11951 0.26495 0.20248 0.0
O11 O 0.10078 0.25864 0.1893 0.0
O12 O 0.12313 0.27732 0.23401 0.0
O13 O 0.10083 0.28408 0.22898 0.0
O14 O 0.76369 0.09595 0.21286 0.0
Cd15 Cd 0.74478 0.08913 0.20349 0.0
Cd16 Cd 0.73228 0.10894 0.21957 0.0
O17 O 0.75212 0.10788 0.22987 0.0
O18 O 0.74551 0.06801 0.20014 0.0
O19 O 0.73195 0.07842 0.21702 0.0
C20 C 0.73691 0.06681 0.21107 0.0
C21 C 0.71154 0.1139 0.23311 0.0
C22 C 0.76385 0.10302 0.22461 0.0
C23 C 0.73335 0.1134 0.18709 0.0
O24 O 0.73138 0.11872 0.19958 0.0
O25 O 0.73782 0.10052 0.18572 0.0
O26 O 0.72174 0.12321 0.23161 0.0
O27 O 0.71336 0.10129 0.22749 0.0
O28 O 0.90215 0.76636 0.22052 0.0
Cd29 Cd 0.90974 0.74864 0.20947 0.0
Cd30 Cd 0.88712 0.73512 0.22103 0.0
O31 O 0.88505 0.75441 0.23202 0.0
O32 O 0.93071 0.75173 0.20669 0.0
O33 O 0.92165 0.73486 0.2211 0.0
C34 C 0.93278 0.74166 0.2161 0.0
C35 C 0.88201 0.71348 0.23294 0.0
C36 C 0.89197 0.76603 0.22968 0.0
C37 C 0.8876 0.73878 0.18863 0.0
O38 O 0.88063 0.73509 0.19984 0.0
O39 O 0.90026 0.74397 0.18977 0.0
O40 O 0.87217 0.72295 0.23042 0.0
O41 O 0.89509 0.71646 0.22917 0.0
O42 O 0.23313 0.90183 0.21539 0.0
Cd43 Cd 0.25284 0.90813 0.20737 0.0
Cd44 Cd 0.26285 0.88738 0.22344 0.0
O45 O 0.24274 0.88919 0.23308 0.0
O46 O 0.25198 0.92914 0.20331 0.0
O47 O 0.2646 0.91956 0.22132 0.0
C48 C 0.25979 0.93089 0.21474 0.0
C49 C 0.28387 0.88368 0.23685 0.0
C50 C 0.23171 0.8947 0.22702 0.0
C51 C 0.26353 0.88332 0.19116 0.0
O52 O 0.26378 0.87744 0.20355 0.0
O53 O 0.26071 0.89669 0.18997 0.0
O54 O 0.27394 0.87398 0.23605 0.0
O55 O 0.28151 0.89597 0.23071 0.0
O56 O 0.09596 0.77124 0.78458 0.0
Cd57 Cd 0.09034 0.75158 0.79318 0.0
Cd58 Cd 0.11169 0.74175 0.77739 0.0
O59 O 0.10973 0.7618 0.76765 0.0
O60 O 0.06923 0.75173 0.79671 0.0
O61 O 0.07977 0.73851 0.77973 0.0
C62 C 0.06807 0.74313 0.78578 0.0
C63 C 0.11669 0.72103 0.76391 0.0
C64 C 0.10352 0.77271 0.77323 0.0
C65 C 0.11517 0.74161 0.80988 0.0
O66 O 0.12111 0.74095 0.79753 0.0
O67 O 0.10183 0.74465 0.81094 0.0
O68 O 0.12597 0.73131 0.76522 0.0
O69 O 0.1041 0.72285 0.76958 0.0
O70 O 0.23226 0.09601 0.78305 0.0
Cd71 Cd 0.2514 0.08939 0.79215 0.0
Cd72 Cd 0.26255 0.11101 0.77762 0.0
O73 O 0.24277 0.11032 0.76725 0.0
O74 O 0.25012 0.06825 0.79524 0.0
O75 O 0.26447 0.07844 0.77896 0.0
C76 C 0.25907 0.06687 0.78463 0.0
C77 C 0.28364 0.11598 0.76469 0.0
C78 C 0.23146 0.10422 0.7721 0.0
C79 C 0.26158 0.11322 0.81021 0.0
O80 O 0.26303 0.11959 0.79815 0.0
O81 O 0.25798 0.09999 0.8106 0.0
O82 O 0.27365 0.1255 0.76632 0.0
O83 O 0.28139 0.10322 0.76982 0.0
O84 O 0.90175 0.23191 0.78299 0.0
Cd85 Cd 0.90895 0.25044 0.79284 0.0
Cd86 Cd 0.88757 0.26284 0.77885 0.0
O87 O 0.88738 0.24335 0.7679 0.0
O88 O 0.92991 0.24797 0.79617 0.0
O89 O 0.92077 0.26357 0.78043 0.0
C90 C 0.93194 0.25734 0.78603 0.0
C91 C 0.88284 0.28428 0.76641 0.0
C92 C 0.8933 0.23173 0.7722 0.0
C93 C 0.8856 0.2608 0.81144 0.0
O94 O 0.87926 0.26311 0.7995 0.0
O95 O 0.89863 0.25651 0.8116 0.0
O96 O 0.87313 0.27449 0.76812 0.0
O97 O 0.89566 0.28165 0.77121 0.0
O98 O 0.76727 0.90196 0.78128 0.0
Cd99 Cd 0.74873 0.90894 0.7912 0.0
Cd100 Cd 0.73592 0.88885 0.77558 0.0
O101 O 0.75576 0.88874 0.7652 0.0
O102 O 0.75066 0.92991 0.79498 0.0
O103 O 0.73562 0.92063 0.77876 0.0
C104 C 0.74148 0.93186 0.78465 0.0
C105 C 0.71469 0.88537 0.76235 0.0
C106 C 0.76744 0.8941 0.77005 0.0
C107 C 0.73731 0.88484 0.80809 0.0
O108 O 0.73482 0.87943 0.79573 0.0
O109 O 0.74223 0.89759 0.8092 0.0
O110 O 0.72422 0.87534 0.76368 0.0
O111 O 0.71748 0.8978 0.76799 0.0
O112 O 0.21429 0.09619 0.23216 0.0
Cd113 Cd 0.20524 0.08957 0.25128 0.0
Cd114 Cd 0.22127 0.10991 0.26311 0.0
O115 O 0.23094 0.10934 0.24293 0.0
O116 O 0.20152 0.06851 0.25046 0.0
O117 O 0.21873 0.07853 0.26389 0.0
C118 C 0.2125 0.06705 0.25896 0.0
C119 C 0.23499 0.11452 0.2838 0.0
C120 C 0.22563 0.10388 0.23149 0.0
C121 C 0.18874 0.1138 0.26293 0.0
O122 O 0.20117 0.11932 0.26465 0.0
O123 O 0.18747 0.10092 0.25841 0.0
O124 O 0.23334 0.12405 0.27383 0.0
O125 O 0.22953 0.10188 0.28169 0.0
O126 O 0.90144 0.21188 0.2308 0.0
Cd127 Cd 0.9093 0.20144 0.24867 0.0
Cd128 Cd 0.88968 0.21644 0.26305 0.0
O129 O 0.88945 0.2278 0.24374 0.0
O130 O 0.93026 0.19835 0.24596 0.0
O131 O 0.92103 0.21366 0.26197 0.0
C132 C 0.93222 0.20834 0.25551 0.0
C133 C 0.88471 0.2291 0.28437 0.0
C134 C 0.894 0.22336 0.23157 0.0
C135 C 0.886 0.18382 0.26016 0.0
O136 O 0.88064 0.19604 0.26337 0.0
O137 O 0.89857 0.18299 0.25477 0.0
O138 O 0.87518 0.22741 0.27442 0.0
O139 O 0.89749 0.22407 0.28206 0.0
O140 O 0.7852 0.90496 0.235 0.0
Cd141 Cd 0.79482 0.91225 0.25355 0.0
Cd142 Cd 0.7816 0.89048 0.26628 0.0
O143 O 0.77077 0.89007 0.24666 0.0
O144 O 0.79732 0.93339 0.25179 0.0
O145 O 0.78156 0.92305 0.26667 0.0
C146 C 0.7868 0.93462 0.26086 0.0
C147 C 0.76888 0.88479 0.28733 0.0
C148 C 0.7747 0.89614 0.23497 0.0
C149 C 0.81421 0.88961 0.26392 0.0
O150 O 0.80257 0.88293 0.2667 0.0
O151 O 0.81394 0.90243 0.25912 0.0
O152 O 0.77128 0.87535 0.27743 0.0
O153 O 0.77324 0.89783 0.28511 0.0
O154 O 0.09831 0.77996 0.23109 0.0
Cd155 Cd 0.09099 0.79115 0.24883 0.0
Cd156 Cd 0.11311 0.77898 0.2624 0.0
O157 O 0.11487 0.76782 0.24316 0.0
O158 O 0.06995 0.79399 0.24623 0.0
O159 O 0.07939 0.77956 0.26287 0.0
C160 C 0.06811 0.78455 0.25634 0.0
C161 C 0.11734 0.76703 0.28422 0.0
C162 C 0.10814 0.77042 0.23148 0.0
C163 C 0.11362 0.81138 0.25871 0.0
O164 O 0.12026 0.79997 0.2624 0.0
O165 O 0.10093 0.81061 0.25353 0.0
O166 O 0.12746 0.76912 0.27493 0.0
O167 O 0.10448 0.77127 0.28093 0.0
O168 O 0.21644 0.90337 0.76684 0.0
Cd169 Cd 0.20572 0.91138 0.74912 0.0
Cd170 Cd 0.2165 0.88833 0.73534 0.0
O171 O 0.22685 0.88557 0.75491 0.0
O172 O 0.20391 0.93248 0.752 0.0
O173 O 0.21784 0.92261 0.73518 0.0
C174 C 0.21337 0.93402 0.74187 0.0
C175 C 0.22878 0.88185 0.71423 0.0
C176 C 0.22493 0.89262 0.76652 0.0
C177 C 0.18403 0.89036 0.73868 0.0
O178 O 0.19495 0.88313 0.73464 0.0
O179 O 0.18566 0.90269 0.74447 0.0
O180 O 0.22506 0.87246 0.72376 0.0
O181 O 0.22596 0.89524 0.71684 0.0
O182 O 0.09725 0.216 0.76867 0.0
Cd183 Cd 0.08989 0.20628 0.75013 0.0
Cd184 Cd 0.11134 0.22015 0.73766 0.0
O185 O 0.11152 0.23112 0.75715 0.0
O186 O 0.06888 0.20323 0.75256 0.0
O187 O 0.07827 0.21888 0.73701 0.0
C188 C 0.06701 0.21342 0.74321 0.0
C189 C 0.11654 0.2326 0.71633 0.0
C190 C 0.10568 0.2268 0.76881 0.0
C191 C 0.11301 0.18751 0.73968 0.0
O192 O 0.11944 0.19941 0.73741 0.0
O193 O 0.09999 0.18744 0.74399 0.0
O194 O 0.12609 0.2307 0.72623 0.0
O195 O 0.10362 0.22798 0.71876 0.0
O196 O 0.78186 0.09761 0.76538 0.0
Cd197 Cd 0.79205 0.08961 0.74738 0.0
Cd198 Cd 0.77762 0.10962 0.73357 0.0
O199 O 0.76592 0.10976 0.75263 0.0
O200 O 0.79526 0.06867 0.75028 0.0
O201 O 0.77968 0.07765 0.73442 0.0
C202 C 0.78517 0.06655 0.74088 0.0
C203 C 0.76571 0.11329 0.71162 0.0
C204 C 0.77041 0.10513 0.76475 0.0
C205 C 0.81004 0.11301 0.73644 0.0
O206 O 0.79791 0.11888 0.73383 0.0
O207 O 0.81058 0.10008 0.74096 0.0
O208 O 0.76661 0.12328 0.72123 0.0
O209 O 0.77107 0.1008 0.71467 0.0
O210 O 0.90382 0.78144 0.76888 0.0
Cd211 Cd 0.91079 0.79124 0.75023 0.0
Cd212 Cd 0.89086 0.77577 0.73786 0.0
O213 O 0.89265 0.76423 0.75693 0.0
O214 O 0.9318 0.79486 0.75187 0.0
O215 O 0.92221 0.77861 0.73706 0.0
C216 C 0.93355 0.78447 0.74271 0.0
C217 C 0.88601 0.76368 0.71628 0.0
C218 C 0.89721 0.76943 0.76879 0.0
C219 C 0.88623 0.808 0.74021 0.0
O220 O 0.88062 0.79557 0.73865 0.0
O221 O 0.89947 0.80917 0.74357 0.0
O222 O 0.87692 0.76382 0.72677 0.0
O223 O 0.89835 0.76986 0.7182 0.0
O224 O 0.23192 0.21705 0.09728 0.0
Cd225 Cd 0.25033 0.20689 0.09021 0.0
Cd226 Cd 0.26289 0.22064 0.11162 0.0
O227 O 0.24361 0.23198 0.11162 0.0
O228 O 0.24833 0.20386 0.06912 0.0
O229 O 0.26387 0.21928 0.0789 0.0
C230 C 0.25788 0.21391 0.06749 0.0
C231 C 0.28465 0.23271 0.1158 0.0
C232 C 0.23193 0.22788 0.10568 0.0
C233 C 0.26021 0.18812 0.11367 0.0
O234 O 0.2627 0.20001 0.12004 0.0
O235 O 0.25602 0.18806 0.10061 0.0
O236 O 0.275 0.2314 0.12571 0.0
O237 O 0.28175 0.22767 0.10314 0.0
O238 O 0.23332 0.78297 0.90467 0.0
Cd239 Cd 0.25142 0.79352 0.91172 0.0
Cd240 Cd 0.26468 0.78085 0.8897 0.0
O241 O 0.2451 0.76996 0.88863 0.0
O242 O 0.24966 0.79599 0.93287 0.0
O243 O 0.26562 0.7814 0.92251 0.0
C244 C 0.25959 0.78627 0.93412 0.0
C245 C 0.28585 0.76815 0.88439 0.0
C246 C 0.23344 0.77308 0.8952 0.0
C247 C 0.2614 0.81342 0.88914 0.0
O248 O 0.26515 0.80198 0.88258 0.0
O249 O 0.25594 0.81282 0.90169 0.0
O250 O 0.27621 0.77069 0.87472 0.0
O251 O 0.28334 0.77244 0.89741 0.0
O252 O 0.2198 0.2311 0.90342 0.0
Cd253 Cd 0.21013 0.24999 0.90994 0.0
Cd254 Cd 0.22487 0.26147 0.88876 0.0
O255 O 0.23586 0.24203 0.88972 0.0
O256 O 0.20645 0.24841 0.93096 0.0
O257 O 0.2227 0.26322 0.9214 0.0
C258 C 0.21682 0.25758 0.93274 0.0
C259 C 0.23714 0.28312 0.88464 0.0
C260 C 0.23104 0.23058 0.89559 0.0
C261 C 0.19244 0.25968 0.88564 0.0
O262 O 0.20462 0.26129 0.87952 0.0
O263 O 0.19183 0.25624 0.8989 0.0
O264 O 0.23632 0.27323 0.87491 0.0
O265 O 0.23158 0.28047 0.89714 0.0
O266 O 0.76632 0.21592 0.90209 0.0
Cd267 Cd 0.74741 0.20648 0.90873 0.0
Cd268 Cd 0.73538 0.22255 0.88848 0.0
O269 O 0.75544 0.23249 0.88893 0.0
O270 O 0.749 0.20261 0.92971 0.0
O271 O 0.73455 0.21928 0.92031 0.0
C272 C 0.74014 0.21323 0.93158 0.0
C273 C 0.71447 0.23615 0.88455 0.0
C274 C 0.76691 0.22727 0.89442 0.0
C275 C 0.73596 0.19001 0.88438 0.0
O276 O 0.73403 0.20247 0.87897 0.0
O277 O 0.74053 0.1887 0.89724 0.0
O278 O 0.72422 0.23473 0.87476 0.0
O279 O 0.71689 0.23045 0.89703 0.0
O280 O 0.78356 0.76691 0.90222 0.0
Cd281 Cd 0.79389 0.74921 0.91064 0.0
Cd282 Cd 0.77907 0.73446 0.89119 0.0
O283 O 0.76782 0.75379 0.89018 0.0
O284 O 0.79722 0.7528 0.93143 0.0
O285 O 0.78171 0.73651 0.92308 0.0
C286 C 0.78722 0.74338 0.93393 0.0
C287 C 0.76653 0.71289 0.88728 0.0
C288 C 0.77223 0.76604 0.89456 0.0
C289 C 0.81168 0.73689 0.88778 0.0
O290 O 0.79951 0.73373 0.88229 0.0
O291 O 0.81236 0.74257 0.90024 0.0
O292 O 0.76803 0.72241 0.87729 0.0
O293 O 0.77163 0.71581 0.89991 0.0
O294 O 0.77047 0.78529 0.0978 0.0
Cd295 Cd 0.75108 0.79434 0.09192 0.0
Cd296 Cd 0.74073 0.77859 0.11285 0.0
O297 O 0.7604 0.76814 0.11081 0.0
O298 O 0.75217 0.79848 0.07096 0.0
O299 O 0.73814 0.7815 0.08043 0.0
C300 C 0.74342 0.78776 0.06912 0.0
C301 C 0.71947 0.76575 0.1172 0.0
C302 C 0.77155 0.77367 0.105 0.0
C303 C 0.74153 0.81096 0.11689 0.0
O304 O 0.7407 0.79856 0.12271 0.0
O305 O 0.74435 0.81209 0.10352 0.0
O306 O 0.72965 0.76643 0.12666 0.0
O307 O 0.72165 0.77175 0.10481 0.0
O308 O 0.21827 0.7667 0.09597 0.0
Cd309 Cd 0.20751 0.74899 0.08826 0.0
Cd310 Cd 0.21958 0.73493 0.11018 0.0
O311 O 0.23077 0.75429 0.11195 0.0
O312 O 0.20533 0.75145 0.06715 0.0
O313 O 0.21955 0.73494 0.07718 0.0
C314 C 0.21489 0.74139 0.0657 0.0
C315 C 0.23182 0.71337 0.11489 0.0
C316 C 0.228 0.76616 0.1056 0.0
C317 C 0.18705 0.73854 0.11016 0.0
O318 O 0.1983 0.73448 0.11686 0.0
O319 O 0.18798 0.74439 0.09781 0.0
O320 O 0.2293 0.7227 0.12487 0.0
O321 O 0.22781 0.71645 0.1019 0.0
O322 O 0.7827 0.23198 0.09604 0.0
Cd323 Cd 0.79323 0.24985 0.08825 0.0
Cd324 Cd 0.77795 0.26419 0.10763 0.0
O325 O 0.76647 0.24497 0.10755 0.0
O326 O 0.79647 0.2473 0.06728 0.0
O327 O 0.78099 0.26313 0.07654 0.0
C328 C 0.78642 0.25679 0.06533 0.0
C329 C 0.76553 0.28565 0.11253 0.0
C330 C 0.77103 0.23277 0.10319 0.0
C331 C 0.81047 0.26132 0.11184 0.0
O332 O 0.79815 0.26432 0.11707 0.0
O333 O 0.81151 0.25614 0.0992 0.0
O334 O 0.76683 0.27558 0.12199 0.0
O335 O 0.77074 0.28335 0.09982 0.0
O336 O 0.59727 0.73338 0.71648 0.0
Cd337 Cd 0.58934 0.75132 0.70609 0.0
Cd338 Cd 0.60987 0.76516 0.71979 0.0
O339 O 0.60995 0.74634 0.73185 0.0
O340 O 0.56832 0.7486 0.70333 0.0
O341 O 0.57777 0.76462 0.71847 0.0
C342 C 0.5665 0.75818 0.71331 0.0
C343 C 0.61437 0.78713 0.73138 0.0
C344 C 0.60504 0.73418 0.72776 0.0
C345 C 0.6125 0.76161 0.68737 0.0
O346 O 0.61866 0.76437 0.69932 0.0
O347 O 0.59949 0.75725 0.68721 0.0
O348 O 0.6241 0.77728 0.73031 0.0
O349 O 0.60169 0.78435 0.72632 0.0
O350 O 0.26812 0.59592 0.71493 0.0
Cd351 Cd 0.25031 0.58832 0.70413 0.0
Cd352 Cd 0.23628 0.61075 0.71644 0.0
O353 O 0.2561 0.61288 0.72658 0.0
O354 O 0.25263 0.56719 0.70199 0.0
O355 O 0.23628 0.57733 0.7163 0.0
C356 C 0.24264 0.56581 0.71163 0.0
C357 C 0.21562 0.61788 0.72914 0.0
C358 C 0.26778 0.60611 0.72408 0.0
C359 C 0.23901 0.60992 0.68369 0.0
O360 O 0.23499 0.61647 0.69504 0.0
O361 O 0.24533 0.59778 0.68454 0.0
O362 O 0.22549 0.62692 0.72546 0.0
O363 O 0.21766 0.60443 0.72612 0.0
O364 O 0.40148 0.26809 0.71691 0.0
Cd365 Cd 0.40818 0.24903 0.70752 0.0
Cd366 Cd 0.38887 0.23796 0.72415 0.0
O367 O 0.39194 0.25687 0.73553 0.0
O368 O 0.42906 0.25067 0.70306 0.0
O369 O 0.42018 0.23657 0.72032 0.0
C370 C 0.43126 0.24207 0.71384 0.0
C371 C 0.38481 0.21603 0.73593 0.0
C372 C 0.39596 0.26851 0.72946 0.0
C373 C 0.38266 0.23959 0.69232 0.0
O374 O 0.37753 0.23947 0.70505 0.0
O375 O 0.39612 0.24136 0.69041 0.0
O376 O 0.37564 0.22646 0.73655 0.0
O377 O 0.39681 0.21829 0.72922 0.0
O378 O 0.73289 0.40294 0.71149 0.0
Cd379 Cd 0.75152 0.41057 0.70222 0.0
Cd380 Cd 0.76475 0.39135 0.71852 0.0
O381 O 0.74485 0.39181 0.72877 0.0
O382 O 0.74975 0.43164 0.69892 0.0
O383 O 0.76376 0.42188 0.71581 0.0
C384 C 0.75818 0.43325 0.70992 0.0
C385 C 0.78553 0.38673 0.73213 0.0
C386 C 0.73296 0.39607 0.72335 0.0
C387 C 0.76398 0.38674 0.68601 0.0
O388 O 0.76603 0.38157 0.69854 0.0
O389 O 0.75907 0.39945 0.68451 0.0
O390 O 0.77551 0.37725 0.73057 0.0
O391 O 0.78349 0.39933 0.72655 0.0
O392 O 0.59657 0.26943 0.28466 0.0
Cd393 Cd 0.58981 0.25072 0.2945 0.0
Cd394 Cd 0.61073 0.23874 0.27983 0.0
O395 O 0.61002 0.2581 0.26868 0.0
O396 O 0.56879 0.25258 0.2979 0.0
O397 O 0.57837 0.23745 0.28196 0.0
C398 C 0.56703 0.24334 0.28759 0.0
C399 C 0.61512 0.21716 0.26753 0.0
C400 C 0.60434 0.26969 0.27337 0.0
C401 C 0.61383 0.24082 0.31231 0.0
O402 O 0.61987 0.23893 0.30014 0.0
O403 O 0.60065 0.24455 0.31292 0.0
O404 O 0.6248 0.22706 0.26863 0.0
O405 O 0.60251 0.21975 0.27287 0.0
O406 O 0.73062 0.59492 0.2832 0.0
Cd407 Cd 0.74926 0.58813 0.29307 0.0
Cd408 Cd 0.76188 0.60873 0.27784 0.0
O409 O 0.742 0.60872 0.26752 0.0
O410 O 0.74798 0.567 0.29619 0.0
O411 O 0.76278 0.57726 0.28034 0.0
C412 C 0.75726 0.56567 0.28585 0.0
C413 C 0.78295 0.61303 0.2646 0.0
C414 C 0.73038 0.60304 0.27216 0.0
C415 C 0.76042 0.61199 0.31046 0.0
O416 O 0.76293 0.61764 0.29821 0.0
O417 O 0.7555 0.59922 0.31131 0.0
O418 O 0.77321 0.6228 0.26622 0.0
O419 O 0.78047 0.6004 0.26993 0.0
O420 O 0.40303 0.73241 0.28306 0.0
Cd421 Cd 0.41073 0.75038 0.29349 0.0
Cd422 Cd 0.39112 0.76452 0.27828 0.0
O423 O 0.39102 0.74519 0.267 0.0
O424 O 0.43175 0.74801 0.29668 0.0
O425 O 0.42232 0.76372 0.28119 0.0
C426 C 0.4336 0.75751 0.28662 0.0
C427 C 0.38651 0.78603 0.26586 0.0
C428 C 0.39561 0.73306 0.27155 0.0
C429 C 0.38716 0.7619 0.31083 0.0
O430 O 0.38183 0.76485 0.29853 0.0
O431 O 0.3998 0.75667 0.3118 0.0
O432 O 0.37692 0.77607 0.26709 0.0
O433 O 0.39918 0.78356 0.27111 0.0
O434 O 0.26609 0.40128 0.28232 0.0
Cd435 Cd 0.24819 0.40928 0.29269 0.0
Cd436 Cd 0.23417 0.38912 0.27854 0.0
O437 O 0.2532 0.38871 0.26682 0.0
O438 O 0.25126 0.43019 0.29591 0.0
O439 O 0.23518 0.42135 0.28047 0.0
C440 C 0.24178 0.43239 0.28591 0.0
C441 C 0.21229 0.38534 0.26652 0.0
C442 C 0.26535 0.39351 0.27105 0.0
C443 C 0.23729 0.386 0.31097 0.0
O444 O 0.23442 0.38008 0.29893 0.0
O445 O 0.242 0.39888 0.31134 0.0
O446 O 0.22185 0.37533 0.26766 0.0
O447 O 0.21531 0.39788 0.27177 0.0
O448 O 0.71592 0.59793 0.73482 0.0
Cd449 Cd 0.70651 0.59106 0.75367 0.0
Cd450 Cd 0.72221 0.61127 0.76596 0.0
O451 O 0.73231 0.61108 0.74599 0.0
O452 O 0.70237 0.57013 0.75205 0.0
O453 O 0.71956 0.57928 0.76609 0.0
C454 C 0.71319 0.56813 0.76062 0.0
C455 C 0.73553 0.61471 0.78712 0.0
C456 C 0.72721 0.6057 0.73441 0.0
C457 C 0.68978 0.61531 0.76511 0.0
O458 O 0.70217 0.62085 0.76714 0.0
O459 O 0.68865 0.60242 0.76056 0.0
O460 O 0.73433 0.62469 0.77753 0.0
O461 O 0.72977 0.60232 0.78439 0.0
O462 O 0.40427 0.71518 0.73207 0.0
Cd463 Cd 0.41167 0.70432 0.74983 0.0
Cd464 Cd 0.38976 0.71669 0.76371 0.0
O465 O 0.38852 0.72804 0.7444 0.0
O466 O 0.43276 0.70184 0.74748 0.0
O467 O 0.42287 0.71619 0.76395 0.0
C468 C 0.43431 0.7114 0.75753 0.0
C469 C 0.38454 0.729 0.78512 0.0
C470 C 0.39488 0.72514 0.73257 0.0
C471 C 0.38935 0.68416 0.75989 0.0
O472 O 0.38277 0.6955 0.76391 0.0
O473 O 0.40182 0.68492 0.75425 0.0
O474 O 0.37481 0.72656 0.77551 0.0
O475 O 0.39756 0.72482 0.78246 0.0
O476 O 0.2827 0.40282 0.73309 0.0
Cd477 Cd 0.29283 0.41044 0.75126 0.0
Cd478 Cd 0.27855 0.38967 0.76483 0.0
O479 O 0.26771 0.38893 0.74525 0.0
O480 O 0.29577 0.43148 0.74885 0.0
O481 O 0.28032 0.42194 0.76453 0.0
C482 C 0.28565 0.43325 0.7583 0.0
C483 C 0.26586 0.38489 0.78613 0.0
C484 C 0.27188 0.39441 0.73336 0.0
C485 C 0.31124 0.38747 0.76266 0.0
O486 O 0.29925 0.3815 0.76561 0.0
O487 O 0.31156 0.40011 0.75737 0.0
O488 O 0.26777 0.37517 0.7764 0.0
O489 O 0.2706 0.39774 0.78354 0.0
O490 O 0.59795 0.28329 0.73121 0.0
Cd491 Cd 0.58975 0.29413 0.74869 0.0
Cd492 Cd 0.60948 0.27978 0.76363 0.0
O493 O 0.61008 0.2679 0.74466 0.0
O494 O 0.56885 0.29725 0.74549 0.0
O495 O 0.57769 0.28225 0.76201 0.0
C496 C 0.56665 0.28751 0.75525 0.0
C497 C 0.61406 0.2679 0.78547 0.0
C498 C 0.60558 0.27196 0.73233 0.0
C499 C 0.61285 0.3123 0.75989 0.0
O500 O 0.61837 0.30024 0.76342 0.0
O501 O 0.60028 0.31281 0.75446 0.0
O502 O 0.62377 0.26919 0.77563 0.0
O503 O 0.60133 0.27286 0.78275 0.0
O504 O 0.71713 0.4036 0.26698 0.0
Cd505 Cd 0.70748 0.41021 0.24812 0.0
Cd506 Cd 0.72174 0.3887 0.23652 0.0
O507 O 0.73263 0.38928 0.25603 0.0
O508 O 0.70431 0.43131 0.24958 0.0
O509 O 0.72024 0.42129 0.23474 0.0
C510 C 0.71466 0.43279 0.24035 0.0
C511 C 0.73418 0.38386 0.21511 0.0
C512 C 0.7281 0.39538 0.26747 0.0
C513 C 0.68919 0.3864 0.23836 0.0
O514 O 0.70122 0.38007 0.23653 0.0
O515 O 0.68888 0.39961 0.24203 0.0
O516 O 0.73273 0.37427 0.22507 0.0
O517 O 0.72913 0.39661 0.21756 0.0
O518 O 0.59664 0.71638 0.26753 0.0
Cd519 Cd 0.58996 0.70715 0.2485 0.0
Cd520 Cd 0.61173 0.72144 0.23719 0.0
O521 O 0.61089 0.7321 0.25683 0.0
O522 O 0.56887 0.70396 0.25008 0.0
O523 O 0.57877 0.72018 0.23545 0.0
C524 C 0.56731 0.7145 0.24107 0.0
C525 C 0.61723 0.73416 0.21611 0.0
C526 C 0.60479 0.72738 0.26819 0.0
C527 C 0.61364 0.68882 0.23852 0.0
O528 O 0.62013 0.70081 0.23695 0.0
O529 O 0.60041 0.68858 0.24212 0.0
O530 O 0.62654 0.73251 0.2263 0.0
O531 O 0.60438 0.72916 0.21813 0.0
O532 O 0.28315 0.59749 0.26585 0.0
Cd533 Cd 0.29367 0.5896 0.24802 0.0
Cd534 Cd 0.27833 0.60876 0.23353 0.0
O535 O 0.26694 0.60899 0.25281 0.0
O536 O 0.29714 0.56869 0.25081 0.0
O537 O 0.28151 0.5776 0.23493 0.0
C538 C 0.28708 0.56653 0.24137 0.0
C539 C 0.26572 0.61257 0.21197 0.0
C540 C 0.27152 0.6047 0.26503 0.0
C541 C 0.31077 0.61324 0.23626 0.0
O542 O 0.29844 0.6184 0.23316 0.0
O543 O 0.31184 0.60066 0.24162 0.0
O544 O 0.26683 0.62245 0.22166 0.0
O545 O 0.2713 0.6001 0.2147 0.0
O546 O 0.40252 0.28304 0.26541 0.0
Cd547 Cd 0.40992 0.29315 0.24715 0.0
Cd548 Cd 0.39084 0.27708 0.23361 0.0
O549 O 0.39136 0.26605 0.25309 0.0
O550 O 0.43076 0.29711 0.24973 0.0
O551 O 0.4221 0.28092 0.23429 0.0
C552 C 0.43309 0.28685 0.24056 0.0
C553 C 0.38694 0.26417 0.21225 0.0
C554 C 0.3957 0.27116 0.26508 0.0
C555 C 0.38576 0.30948 0.23559 0.0
O556 O 0.38073 0.29696 0.2331 0.0
O557 O 0.3985 0.31096 0.24044 0.0
O558 O 0.37723 0.2651 0.22214 0.0
O559 O 0.39933 0.27006 0.21471 0.0
O560 O 0.73034 0.71516 0.59572 0.0
Cd561 Cd 0.74936 0.70559 0.58952 0.0
Cd562 Cd 0.76087 0.72114 0.61008 0.0
O563 O 0.74131 0.73189 0.60854 0.0
O564 O 0.74836 0.70184 0.56847 0.0
O565 O 0.76263 0.71836 0.5784 0.0
C566 C 0.75736 0.71241 0.56692 0.0
C567 C 0.78221 0.73395 0.61393 0.0
C568 C 0.72983 0.72675 0.60302 0.0
C569 C 0.75939 0.68884 0.61434 0.0
O570 O 0.76091 0.70122 0.62007 0.0
O571 O 0.75587 0.68776 0.60112 0.0
O572 O 0.77214 0.73357 0.62349 0.0
O573 O 0.78002 0.72753 0.60177 0.0
O574 O 0.73328 0.28603 0.40309 0.0
Cd575 Cd 0.75222 0.2953 0.40995 0.0
Cd576 Cd 0.76391 0.28066 0.38864 0.0
O577 O 0.74418 0.27014 0.38919 0.0
O578 O 0.75031 0.29857 0.43097 0.0
O579 O 0.76512 0.28234 0.42137 0.0
C580 C 0.75928 0.28803 0.43272 0.0
C581 C 0.78487 0.26756 0.38352 0.0
C582 C 0.73273 0.27494 0.39505 0.0
C583 C 0.76272 0.3133 0.38629 0.0
O584 O 0.76447 0.30121 0.38004 0.0
O585 O 0.75877 0.31375 0.39941 0.0
O586 O 0.77488 0.26943 0.37404 0.0
O587 O 0.78273 0.27263 0.39633 0.0
O588 O 0.71524 0.73101 0.40346 0.0
Cd589 Cd 0.70531 0.74932 0.41108 0.0
Cd590 Cd 0.71986 0.76259 0.39076 0.0
O591 O 0.73125 0.74336 0.39096 0.0
O592 O 0.70243 0.74716 0.43216 0.0
O593 O 0.71804 0.76252 0.42236 0.0
C594 C 0.71269 0.7565 0.43377 0.0
C595 C 0.73223 0.7841 0.38603 0.0
C596 C 0.72666 0.73138 0.39587 0.0
C597 C 0.68735 0.76007 0.38762 0.0
O598 O 0.6995 0.76245 0.3817 0.0
O599 O 0.68678 0.75574 0.40061 0.0
O600 O 0.73086 0.77416 0.37644 0.0
O601 O 0.72705 0.78166 0.39874 0.0
O602 O 0.2665 0.7157 0.40087 0.0
Cd603 Cd 0.2482 0.70582 0.4085 0.0
Cd604 Cd 0.23465 0.72198 0.38951 0.0
O605 O 0.25427 0.73278 0.38975 0.0
O606 O 0.25093 0.70188 0.42933 0.0
O607 O 0.23559 0.71821 0.42077 0.0
C608 C 0.24187 0.71223 0.43171 0.0
C609 C 0.21336 0.73509 0.38602 0.0
C610 C 0.26625 0.72755 0.39399 0.0
C611 C 0.23614 0.68956 0.38451 0.0
O612 O 0.23378 0.70209 0.37944 0.0
O613 O 0.2411 0.68808 0.3972 0.0
O614 O 0.22306 0.7341 0.37614 0.0
O615 O 0.21597 0.72915 0.39835 0.0
O616 O 0.28548 0.26748 0.40214 0.0
Cd617 Cd 0.29537 0.249 0.4093 0.0
Cd618 Cd 0.27992 0.23608 0.38902 0.0
O619 O 0.26948 0.25589 0.38891 0.0
O620 O 0.29903 0.25132 0.43022 0.0
O621 O 0.28294 0.236 0.42118 0.0
C622 C 0.28874 0.24212 0.43232 0.0
C623 C 0.26684 0.21501 0.38428 0.0
C624 C 0.27426 0.2676 0.39426 0.0
C625 C 0.31257 0.23742 0.3856 0.0
O626 O 0.30026 0.23499 0.38006 0.0
O627 O 0.31356 0.24244 0.39831 0.0
O628 O 0.26854 0.22491 0.37469 0.0
O629 O 0.27192 0.21736 0.39704 0.0
O630 O 0.26778 0.28395 0.59795 0.0
Cd631 Cd 0.2489 0.29279 0.59036 0.0
Cd632 Cd 0.2372 0.27643 0.60968 0.0
O633 O 0.25645 0.26524 0.60722 0.0
O634 O 0.25127 0.29664 0.56947 0.0
O635 O 0.23681 0.27966 0.5783 0.0
C636 C 0.24271 0.28584 0.56725 0.0
C637 C 0.21574 0.26398 0.61427 0.0
C638 C 0.26813 0.27143 0.60352 0.0
C639 C 0.23837 0.30873 0.61487 0.0
O640 O 0.2377 0.29613 0.62029 0.0
O641 O 0.24116 0.31028 0.60154 0.0
O642 O 0.22615 0.26429 0.62347 0.0
O643 O 0.21776 0.27015 0.60193 0.0
O644 O 0.7182 0.26522 0.59756 0.0
Cd645 Cd 0.70802 0.24711 0.58985 0.0
Cd646 Cd 0.72392 0.2333 0.60884 0.0
O647 O 0.73504 0.25273 0.60875 0.0
O648 O 0.70408 0.25009 0.56905 0.0
O649 O 0.7202 0.23442 0.57743 0.0
C650 C 0.7143 0.24091 0.56656 0.0
C651 C 0.7366 0.2117 0.61201 0.0
C652 C 0.73002 0.26479 0.6045 0.0
C653 C 0.69154 0.23526 0.61383 0.0
O654 O 0.70403 0.23272 0.61891 0.0
O655 O 0.69016 0.24023 0.60112 0.0
O656 O 0.73582 0.22128 0.62203 0.0
O657 O 0.73072 0.21462 0.59972 0.0
O658 O 0.28507 0.73052 0.59599 0.0
Cd659 Cd 0.29416 0.74963 0.5893 0.0
Cd660 Cd 0.27782 0.76104 0.60905 0.0
O661 O 0.26706 0.74154 0.60688 0.0
O662 O 0.29812 0.74807 0.56835 0.0
O663 O 0.28117 0.76224 0.57767 0.0
C664 C 0.28734 0.75673 0.56643 0.0
C665 C 0.26492 0.78226 0.61353 0.0
C666 C 0.2729 0.72999 0.60228 0.0
C667 C 0.31009 0.76001 0.61416 0.0
O668 O 0.2975 0.76094 0.61954 0.0
O669 O 0.31164 0.75693 0.60088 0.0
O670 O 0.26549 0.77194 0.62281 0.0
O671 O 0.2711 0.78029 0.6012 0.0
H672 H 0.93913 0.23373 0.26901 0.0
H673 H 0.96212 0.24674 0.26731 0.0
H674 H 0.98076 0.21084 0.24428 0.0
H675 H 0.95794 0.19778 0.24595 0.0
H676 H -0.0003 0.22501 0.26511 0.0
H677 H 0.97303 0.26255 0.22632 0.0
H678 H 0.96499 0.26031 0.24386 0.0
H679 H 0.965 0.24553 0.23136 0.0
C680 C 0.94824 0.22845 0.26393 0.0
C681 C 0.94668 0.21479 0.25746 0.0
C682 C 0.96132 0.23594 0.26289 0.0
C683 C 0.97301 0.22983 0.25546 0.0
C684 C 0.97182 0.21575 0.25001 0.0
H685 H 0.04164 0.2477 0.2017 0.0
H686 H 0.01843 0.24455 0.21375 0.0
C687 C 0.95876 0.20831 0.25096 0.0
C688 C 0.98603 0.23838 0.25196 0.0
H689 H 0.9982 0.2639 0.22828 0.0
C690 C 0.9994 0.23376 0.25734 0.0
C691 C 0.98552 0.24969 0.2417 0.0
C692 C 0.97141 0.25484 0.23536 0.0
C693 C 0.01236 0.23967 0.25217 0.0
C694 C 0.01187 0.25052 0.24144 0.0
C695 C 0.99848 0.25566 0.2366 0.0
C696 C 0.02505 0.25496 0.23358 0.0
C697 C 0.02651 0.23357 0.25751 0.0
C698 C 0.03621 0.26247 0.24053 0.0
C699 C 0.04952 0.26436 0.23362 0.0
C700 C 0.05182 0.25868 0.21972 0.0
C701 C 0.04024 0.25212 0.21244 0.0
C702 C 0.02696 0.25032 0.21931 0.0
H703 H 0.02496 0.22407 0.26466 0.0
H704 H 0.03339 0.23032 0.24825 0.0
H705 H 0.0324 0.24199 0.26366 0.0
H706 H 0.03485 0.26627 0.2515 0.0
H707 H 0.05824 0.26947 0.23951 0.0
H708 H 0.75799 0.93935 0.26337 0.0
H709 H 0.74553 0.96198 0.25786 0.0
H710 H 0.78647 0.98416 0.25643 0.0
H711 H 0.79901 0.96135 0.26098 0.0
H712 H 0.74217 0.9892 0.2665 0.0
H713 H 0.77334 0.98838 0.21555 0.0
H714 H 0.77388 0.9737 0.22827 0.0
H715 H 0.785 0.98945 0.23095 0.0
C716 C 0.76429 0.94915 0.26231 0.0
C717 C 0.77945 0.94862 0.26237 0.0
C718 C 0.75716 0.96206 0.25911 0.0
C719 C 0.76511 0.97463 0.25619 0.0
C720 C 0.78016 0.97446 0.25811 0.0
H721 H 0.73601 0.06109 0.2397 0.0
H722 H 0.73993 0.03767 0.25101 0.0
C723 C 0.78731 0.96148 0.26086 0.0
C724 C 0.75796 0.98733 0.24952 0.0
H725 H 0.76013 0.00972 0.22044 0.0
C726 C 0.746 0.99366 0.25637 0.0
C727 C 0.76259 0.99281 0.23602 0.0
C728 C 0.77429 0.98563 0.22719 0.0
C729 C 0.73891 0.00567 0.25034 0.0
C730 C 0.74427 0.01179 0.23737 0.0
C731 C 0.75597 0.00515 0.23039 0.0
C732 C 0.73865 0.02547 0.23108 0.0
C733 C 0.72565 0.01144 0.25781 0.0
C734 C 0.73642 0.02656 0.21608 0.0
C735 C 0.73478 0.04004 0.20954 0.0
C736 C 0.73486 0.05263 0.21793 0.0
C737 C 0.73569 0.05149 0.23302 0.0
C738 C 0.73784 0.03805 0.23953 0.0
H739 H 0.71983 0.00269 0.2636 0.0
H740 H 0.72895 0.01956 0.26598 0.0
H741 H 0.71808 0.01659 0.25008 0.0
H742 H 0.73691 0.01703 0.20931 0.0
H743 H 0.73419 0.04068 0.19788 0.0
H744 H 0.04219 0.79615 0.24883 0.0
H745 H 0.01891 0.78384 0.24827 0.0
H746 H 0.038 0.74643 0.26835 0.0
H747 H 0.06142 0.75877 0.26906 0.0
H748 H 0.02437 0.74129 0.2412 0.0
H749 H 0.98829 0.77123 0.27823 0.0
H750 H 0.99869 0.78293 0.26679 0.0
H751 H 0.00775 0.77171 0.2798 0.0
C752 C 0.04136 0.78547 0.25352 0.0
C753 C 0.05363 0.77841 0.25894 0.0
C754 C 0.02802 0.77847 0.25325 0.0
C755 C 0.02672 0.76427 0.25835 0.0
C756 C 0.03878 0.75744 0.26447 0.0
H757 H 0.93983 0.7297 0.24215 0.0
H758 H 0.96336 0.73105 0.25427 0.0
C759 C 0.05212 0.76452 0.26491 0.0
C760 C 0.01332 0.7561 0.25534 0.0
H761 H 0.97674 0.75862 0.25847 0.0
C762 C 0.01396 0.7448 0.24526 0.0
C763 C -0.00021 0.7606 0.26075 0.0
C764 C 0.99856 0.77219 0.2721 0.0
C765 C 0.00132 0.7387 0.23955 0.0
C766 C 0.98778 0.74411 0.24401 0.0
C767 C 0.98715 0.75455 0.25498 0.0
C768 C 0.97434 0.74071 0.23607 0.0
C769 C 0.00255 0.727 0.22831 0.0
C770 C 0.97286 0.74541 0.22175 0.0
C771 C 0.95947 0.74478 0.21488 0.0
C772 C 0.94733 0.73938 0.22219 0.0
C773 C 0.94903 0.73381 0.23621 0.0
C774 C 0.96243 0.73462 0.24317 0.0
H775 H 0.0129 0.72103 0.22934 0.0
H776 H 0.99346 0.71922 0.22915 0.0
H777 H 0.00223 0.73197 0.21741 0.0
H778 H 0.98186 0.75037 0.21616 0.0
H779 H 0.95848 0.74917 0.20408 0.0
H780 H 0.26108 0.93729 0.24332 0.0
H781 H 0.2558 0.96071 0.25428 0.0
H782 H 0.25622 0.98053 0.21213 0.0
H783 H 0.26056 0.95693 0.20106 0.0
H784 H 0.26548 0.98747 0.25643 0.0
H785 H 0.21541 0.98757 0.22382 0.0
H786 H 0.22742 0.9723 0.22432 0.0
H787 H 0.23118 0.9874 0.21263 0.0
C788 C 0.26041 0.94671 0.23643 0.0
C789 C 0.26098 0.94531 0.22134 0.0
C790 C 0.25736 0.96009 0.24271 0.0
C791 C 0.25508 0.97227 0.23398 0.0
C792 C 0.25738 0.97116 0.21902 0.0
H793 H 0.24099 0.06054 0.26001 0.0
H794 H 0.25169 0.03674 0.25654 0.0
C795 C 0.26001 0.95772 0.21271 0.0
C796 C 0.24884 0.98563 0.24028 0.0
H797 H 0.22082 0.00914 0.23641 0.0
C798 C 0.25566 0.99219 0.25214 0.0
C799 C 0.23574 0.99151 0.23502 0.0
C800 C 0.22693 0.98424 0.22337 0.0
C801 C 0.24996 0.00471 0.25858 0.0
C802 C 0.23739 0.01112 0.25265 0.0
C803 C 0.23047 0.00433 0.24099 0.0
C804 C 0.23139 0.02513 0.25774 0.0
C805 C 0.25733 0.01069 0.27181 0.0
C806 C 0.21641 0.02667 0.25973 0.0
C807 C 0.21023 0.04035 0.26113 0.0
C808 C 0.21898 0.0527 0.26104 0.0
C809 C 0.23404 0.05113 0.26035 0.0
C810 C 0.24018 0.03748 0.25845 0.0
H811 H 0.26276 0.00199 0.27803 0.0
H812 H 0.26576 0.0185 0.26843 0.0
H813 H 0.24958 0.01628 0.27905 0.0
H814 H 0.20937 0.01733 0.2593 0.0
H815 H 0.19859 0.04132 0.26162 0.0
H816 H 0.95947 0.79637 0.74988 0.0
H817 H 0.98274 0.78413 0.75088 0.0
H818 H 0.96379 0.74613 0.7318 0.0
H819 H 0.94035 0.75834 0.73075 0.0
H820 H 0.9772 0.74113 0.75833 0.0
H821 H 0.01372 0.77131 0.72207 0.0
H822 H 0.00353 0.78316 0.73351 0.0
H823 H 0.99429 0.77212 0.72044 0.0
C824 C 0.96032 0.78556 0.74551 0.0
C825 C 0.94806 0.7783 0.74031 0.0
C826 C 0.97367 0.7786 0.74601 0.0
C827 C 0.97501 0.76426 0.74132 0.0
C828 C 0.96298 0.75723 0.73537 0.0
H829 H 0.06226 0.73212 0.75901 0.0
H830 H 0.03905 0.7329 0.74635 0.0
C831 C 0.94962 0.76425 0.73475 0.0
C832 C 0.98842 0.75619 0.74458 0.0
H833 H 0.02503 0.75912 0.74234 0.0
C834 C 0.98766 0.74479 0.75454 0.0
C835 C 0.00203 0.76083 0.7395 0.0
C836 C 0.00345 0.77244 0.72817 0.0
C837 C 0.00022 0.73876 0.76049 0.0
C838 C 0.01381 0.74438 0.75645 0.0
C839 C 0.01458 0.7549 0.74556 0.0
C840 C 0.0271 0.74107 0.76467 0.0
C841 C 0.9988 0.72684 0.77149 0.0
C842 C 0.02798 0.74504 0.77927 0.0
C843 C 0.04119 0.74468 0.78649 0.0
C844 C 0.05379 0.74036 0.77924 0.0
C845 C 0.05272 0.73545 0.76491 0.0
C846 C 0.03949 0.73592 0.75764 0.0
H847 H 0.98875 0.72052 0.76976 0.0
H848 H 0.00819 0.71939 0.77108 0.0
H849 H 0.99827 0.73164 0.78245 0.0
H850 H 0.01861 0.7493 0.78483 0.0
H851 H 0.04166 0.74855 0.79752 0.0
H852 H 0.25284 0.04057 0.79618 0.0
H853 H 0.25148 0.01762 0.78337 0.0
H854 H 0.26858 0.03779 0.74504 0.0
H855 H 0.26999 0.06091 0.75785 0.0
H856 H 0.24183 0.02449 0.74102 0.0
H857 H 0.27956 0.98706 0.76812 0.0
H858 H 0.2688 0.9969 0.78087 0.0
H859 H 0.28127 0.00647 0.76943 0.0
C860 C 0.25673 0.04005 0.78516 0.0
C861 C 0.26145 0.05256 0.778 0.0
C862 C 0.25602 0.02689 0.77787 0.0
C863 C 0.26003 0.02598 0.76328 0.0
C864 C 0.26554 0.03826 0.75633 0.0
H865 H 0.2394 0.93987 0.72919 0.0
H866 H 0.25254 0.96287 0.73002 0.0
C867 C 0.26638 0.05144 0.76368 0.0
C868 C 0.25635 0.01282 0.75499 0.0
H869 H 0.25855 0.97613 0.75678 0.0
C870 C 0.24578 0.01392 0.74417 0.0
C871 C 0.26162 0.99907 0.75896 0.0
C872 C 0.27356 0.9973 0.76988 0.0
C873 C 0.23943 0.00155 0.73816 0.0
C874 C 0.24371 0.9878 0.74319 0.0
C875 C 0.25518 0.9867 0.75303 0.0
C876 C 0.23511 0.97468 0.74011 0.0
C877 C 0.22773 0.00331 0.72698 0.0
C878 C 0.22088 0.97383 0.74523 0.0
C879 C 0.21343 0.96075 0.74488 0.0
C880 C 0.22005 0.94828 0.73937 0.0
C881 C 0.23398 0.94934 0.7334 0.0
C882 C 0.24152 0.96243 0.73391 0.0
H883 H 0.22904 0.01358 0.72091 0.0
H884 H 0.22772 0.99417 0.71922 0.0
H885 H 0.21708 0.00363 0.73245 0.0
H886 H 0.21582 0.98308 0.7503 0.0
H887 H 0.20272 0.96026 0.74957 0.0
H888 H 0.06008 0.23917 0.73039 0.0
H889 H 0.03686 0.25182 0.73196 0.0
H890 H 0.01824 0.21498 0.75348 0.0
H891 H 0.04125 0.20228 0.7519 0.0
H892 H 0.99949 0.22925 0.73299 0.0
H893 H 0.0249 0.26655 0.77285 0.0
H894 H 0.0331 0.26495 0.75531 0.0
H895 H 0.03342 0.24988 0.76747 0.0
C896 C 0.05093 0.23363 0.73511 0.0
C897 C 0.05253 0.21979 0.74118 0.0
C898 C 0.03772 0.24091 0.73608 0.0
C899 C 0.02595 0.23441 0.74306 0.0
C900 C 0.02723 0.22019 0.7481 0.0
H901 H 0.95754 0.24852 0.79745 0.0
H902 H 0.98066 0.24681 0.78498 0.0
C903 C 0.0404 0.21296 0.74721 0.0
C904 C 0.01272 0.24265 0.74656 0.0
H905 H -0.00028 0.26713 0.77087 0.0
C906 C 0.99951 0.23781 0.74099 0.0
C907 C 0.01286 0.25371 0.7571 0.0
C908 C 0.02678 0.2591 0.76364 0.0
C909 C 0.98635 0.24314 0.74629 0.0
C910 C 0.98649 0.25368 0.75736 0.0
C911 C -0.00029 0.25913 0.76232 0.0
C912 C 0.97321 0.25728 0.76548 0.0
C913 C 0.97242 0.23671 0.74078 0.0
C914 C 0.96156 0.26435 0.75887 0.0
C915 C 0.94828 0.2654 0.76601 0.0
C916 C 0.94651 0.25932 0.77983 0.0
C917 C 0.95853 0.25322 0.78678 0.0
C918 C 0.97176 0.25225 0.77968 0.0
H919 H 0.9743 0.22748 0.73335 0.0
H920 H 0.96567 0.23294 0.74994 0.0
H921 H 0.96624 0.24509 0.73487 0.0
H922 H 0.96255 0.26846 0.74796 0.0
H923 H 0.93921 0.27017 0.76038 0.0
H924 H 0.7969 0.04086 0.74903 0.0
H925 H 0.78455 0.01765 0.75073 0.0
H926 H 0.74665 0.03615 0.73101 0.0
H927 H 0.759 0.0595 0.72918 0.0
H928 H 0.7421 0.02332 0.7586 0.0
H929 H 0.77128 0.98626 0.72192 0.0
H930 H 0.78319 0.99689 0.73292 0.0
H931 H 0.77179 0.00567 0.71987 0.0
C932 C 0.78608 0.03991 0.74468 0.0
C933 C 0.7789 0.05201 0.73903 0.0
C934 C 0.77906 0.02661 0.7456 0.0
C935 C 0.76472 0.02518 0.74092 0.0
C936 C 0.75776 0.03704 0.73458 0.0
H937 H 0.72986 0.93887 0.75845 0.0
H938 H 0.73146 0.96229 0.74624 0.0
C939 C 0.76485 0.05034 0.73351 0.0
C940 C 0.75663 0.01188 0.74447 0.0
H941 H 0.75881 0.97523 0.74201 0.0
C942 C 0.74549 0.0128 0.75471 0.0
C943 C 0.76096 0.99821 0.73929 0.0
C944 C 0.77237 0.99667 0.72778 0.0
C945 C 0.73935 0.00033 0.76073 0.0
C946 C 0.74457 0.98666 0.75644 0.0
C947 C 0.75489 0.98574 0.74537 0.0
C948 C 0.74096 0.97334 0.76448 0.0
C949 C 0.72775 0.00188 0.77204 0.0
C950 C 0.74544 0.97193 0.77888 0.0
C951 C 0.74464 0.95859 0.78584 0.0
C952 C 0.73932 0.94642 0.77851 0.0
C953 C 0.73394 0.94807 0.7644 0.0
C954 C 0.73488 0.96142 0.75739 0.0
H955 H 0.72185 0.01226 0.77085 0.0
H956 H 0.71989 0.99284 0.77145 0.0
H957 H 0.73281 0.00175 0.7829 0.0
H958 H 0.75038 0.98094 0.78447 0.0
H959 H 0.74888 0.95765 0.7967 0.0
H960 H 0.25072 0.20243 0.0414 0.0
H961 H 0.24992 0.215 0.01827 0.0
H962 H 0.2691 0.25263 0.03785 0.0
H963 H 0.27 0.24006 0.06113 0.0
H964 H 0.24227 0.25764 0.02426 0.0
H965 H 0.27938 0.22834 0.98781 0.0
H966 H 0.26797 0.21635 0.99789 0.0
H967 H 0.28087 0.22747 0.00725 0.0
C968 C 0.25516 0.21323 0.04071 0.0
C969 C 0.26037 0.22028 0.05308 0.0
C970 C 0.25476 0.22038 0.02746 0.0
C971 C 0.25954 0.23471 0.02634 0.0
C972 C 0.26546 0.24154 0.03849 0.0
H973 H 0.24317 0.269 0.93957 0.0
H974 H 0.25532 0.26769 0.96305 0.0
C975 C 0.26601 0.23432 0.05175 0.0
C976 C 0.2564 0.24296 0.01302 0.0
H977 H 0.25937 0.24076 0.97641 0.0
C978 C 0.24629 0.25423 0.0138 0.0
C979 C 0.26177 0.23862 0.99943 0.0
C980 C 0.27322 0.22712 0.99803 0.0
C981 C 0.24051 0.26042 0.00125 0.0
C982 C 0.2449 0.25513 0.98763 0.0
C983 C 0.25591 0.24473 0.98687 0.0
C984 C 0.23693 0.25865 0.97424 0.0
C985 C 0.22931 0.27215 0.00265 0.0
C986 C 0.22247 0.25433 0.97288 0.0
C987 C 0.21555 0.25497 0.95951 0.0
C988 C 0.22297 0.25996 0.94726 0.0
C989 C 0.23715 0.26519 0.94884 0.0
C990 C 0.24412 0.2644 0.96222 0.0
H991 H 0.23059 0.27818 0.01294 0.0
H992 H 0.22994 0.27988 0.99351 0.0
H993 H 0.2184 0.26719 0.00265 0.0
H994 H 0.2168 0.24962 0.98195 0.0
H995 H 0.20464 0.25085 0.95864 0.0
H996 H 0.25292 0.79713 0.96058 0.0
H997 H 0.25215 0.78388 0.9833 0.0
H998 H 0.27103 0.74674 0.96251 0.0
H999 H 0.2719 0.76002 0.93963 0.0
H1000 H 0.24417 0.74149 0.97553 0.0
H1001 H 0.28074 0.76907 0.01375 0.0
H1002 H 0.2697 0.78164 0.00397 0.0
H1003 H 0.2826 0.77071 0.99439 0.0
C1004 C 0.25734 0.7863 0.96093 0.0
C1005 C 0.2624 0.77959 0.94832 0.0
C1006 C 0.25697 0.77876 0.97396 0.0
C1007 C 0.26162 0.76436 0.97461 0.0
C1008 C 0.2675 0.75789 0.96224 0.0
H1009 H 0.24103 0.72891 0.06003 0.0
H1010 H 0.25434 0.72994 0.03716 0.0
C1011 C 0.26803 0.76551 0.9492 0.0
C1012 C 0.25818 0.75566 0.98756 0.0
H1013 H 0.25994 0.75697 0.02429 0.0
C1014 C 0.24792 0.74457 0.98618 0.0
C1015 C 0.2632 0.75956 0.00143 0.0
C1016 C 0.27479 0.7708 0.00348 0.0
C1017 C 0.24159 0.73822 0.99839 0.0
C1018 C 0.24558 0.74317 0.01225 0.0
C1019 C 0.25679 0.75328 0.01363 0.0
C1020 C 0.23686 0.73978 0.02521 0.0
C1021 C 0.23019 0.72678 0.99634 0.0
C1022 C 0.22254 0.74466 0.02593 0.0
C1023 C 0.21498 0.7442 0.03894 0.0
C1024 C 0.22161 0.73882 0.05147 0.0
C1025 C 0.23561 0.73302 0.05052 0.0
C1026 C 0.24325 0.73364 0.03749 0.0
H1027 H 0.23178 0.72088 0.98602 0.0
H1028 H 0.23026 0.71891 0.00538 0.0
H1029 H 0.21941 0.732 0.99596 0.0
H1030 H 0.2175 0.74967 0.01664 0.0
H1031 H 0.20422 0.74876 0.03935 0.0
H1032 H 0.7472 0.20114 0.95745 0.0
H1033 H 0.74926 0.21351 0.9806 0.0
H1034 H 0.73147 0.25217 0.96173 0.0
H1035 H 0.72932 0.23982 0.93844 0.0
H1036 H 0.75893 0.25574 0.97433 0.0
H1037 H 0.72167 0.22831 0.0121 0.0
H1038 H 0.73218 0.21581 0.00167 0.0
H1039 H 0.71949 0.22748 0.99272 0.0
C1040 C 0.74331 0.21213 0.95831 0.0
C1041 C 0.73817 0.21952 0.94611 0.0
C1042 C 0.74443 0.21918 0.97158 0.0
C1043 C 0.74045 0.23373 0.97289 0.0
C1044 C 0.73451 0.24091 0.96094 0.0
H1045 H 0.76043 0.26902 0.05856 0.0
H1046 H 0.74777 0.2674 0.03538 0.0
C1047 C 0.73325 0.23381 0.94767 0.0
C1048 C 0.74446 0.2418 0.98608 0.0
H1049 H 0.74243 0.24004 0.02279 0.0
C1050 C 0.75507 0.25258 0.98492 0.0
C1051 C 0.73932 0.23777 -0.00014 0.0
C1052 C 0.72742 0.22681 0.00168 0.0
C1053 C 0.76146 0.25862 0.99725 0.0
C1054 C 0.75718 0.25367 0.01103 0.0
C1055 C 0.74578 0.24374 0.01219 0.0
C1056 C 0.76553 0.25716 0.0242 0.0
C1057 C 0.77313 0.26982 0.99544 0.0
C1058 C 0.7798 0.25225 0.02546 0.0
C1059 C 0.78701 0.25307 0.03866 0.0
C1060 C 0.78006 0.25884 0.05085 0.0
C1061 C 0.76609 0.2646 0.04934 0.0
C1062 C 0.75882 0.26364 0.03613 0.0
H1063 H 0.772 0.27566 0.98502 0.0
H1064 H 0.77293 0.27778 0.0044 0.0
H1065 H 0.78382 0.2644 0.99547 0.0
H1066 H 0.78509 0.247 0.01644 0.0
H1067 H 0.79775 0.24852 0.03949 0.0
H1068 H 0.76193 0.73025 0.94185 0.0
H1069 H 0.74959 0.73253 0.96518 0.0
H1070 H 0.78601 0.75602 0.98217 0.0
H1071 H 0.79841 0.75377 0.95904 0.0
H1072 H 0.77274 0.73553 0.00189 0.0
H1073 H 0.7338 0.77348 0.97605 0.0
H1074 H 0.73589 0.7558 0.96825 0.0
H1075 H 0.75054 0.76844 0.96744 0.0
C1076 C 0.76745 0.73558 0.95068 0.0
C1077 C 0.78108 0.74197 0.94858 0.0
C1078 C 0.76034 0.73695 0.96394 0.0
C1079 C 0.76681 0.74465 0.97527 0.0
C1080 C 0.78083 0.75009 0.97352 0.0
H1081 H 0.75116 0.79966 0.04336 0.0
H1082 H 0.7531 0.78723 0.02023 0.0
C1083 C 0.78789 0.7488 0.96029 0.0
C1084 C 0.75871 0.74831 0.98853 0.0
H1085 H 0.73349 0.77199 0.00128 0.0
C1086 C 0.76392 0.74323 0.0018 0.0
C1087 C 0.7473 0.75846 0.98829 0.0
C1088 C 0.74153 0.76448 0.97429 0.0
C1089 C 0.75852 0.7486 0.0149 0.0
C1090 C 0.74754 0.75923 0.01465 0.0
C1091 C 0.74182 0.76375 0.00139 0.0
C1092 C 0.74359 0.7673 0.02785 0.0
C1093 C 0.76528 0.74361 0.02886 0.0
C1094 C 0.73692 0.76044 0.03959 0.0
C1095 C 0.73575 0.76755 0.05286 0.0
C1096 C 0.74129 0.7816 0.05456 0.0
C1097 C 0.74688 0.78881 0.04244 0.0
C1098 C 0.74799 0.78173 0.0292 0.0
H1099 H 0.77489 0.73666 0.02704 0.0
H1100 H 0.76859 0.75303 0.0355 0.0
H1101 H 0.75725 0.73733 0.03515 0.0
H1102 H 0.73328 0.74936 0.03867 0.0
H1103 H 0.73136 0.76172 0.062 0.0
H1104 H 0.54048 0.75035 0.70212 0.0
H1105 H 0.51761 0.7486 0.71505 0.0
H1106 H 0.53714 0.76799 0.7526 0.0
H1107 H 0.56016 0.76986 0.73966 0.0
H1108 H 0.52469 0.74046 0.75735 0.0
H1109 H 0.48629 0.77673 0.72949 0.0
H1110 H 0.49664 0.766 0.71711 0.0
H1111 H 0.50565 0.77903 0.72836 0.0
C1112 C 0.53981 0.75464 0.71298 0.0
C1113 C 0.55212 0.76019 0.71989 0.0
C1114 C 0.52671 0.7537 0.72034 0.0
C1115 C 0.52567 0.75825 0.73475 0.0
C1116 C 0.53772 0.76453 0.74144 0.0
H1117 H 0.44023 0.73746 0.77005 0.0
H1118 H 0.46318 0.75061 0.7689 0.0
C1119 C 0.55083 0.76563 0.73401 0.0
C1120 C 0.51264 0.75447 0.74319 0.0
H1121 H 0.47591 0.75604 0.74169 0.0
C1122 C 0.51402 0.74415 0.75421 0.0
C1123 C 0.49878 0.7594 0.73921 0.0
C1124 C 0.49673 0.77102 0.72799 0.0
C1125 C 0.50181 0.73773 0.76048 0.0
C1126 C 0.48795 0.74171 0.75552 0.0
C1127 C 0.48657 0.75292 0.74541 0.0
C1128 C 0.47497 0.73306 0.75898 0.0
C1129 C 0.50386 0.72629 0.77187 0.0
C1130 C 0.47413 0.71874 0.75412 0.0
C1131 C 0.46106 0.71127 0.75465 0.0
C1132 C 0.4486 0.71798 0.76009 0.0
C1133 C 0.44968 0.73197 0.76589 0.0
C1134 C 0.46276 0.73952 0.76519 0.0
H1135 H 0.51421 0.7278 0.77774 0.0
H1136 H 0.49485 0.72639 0.77979 0.0
H1137 H 0.50414 0.71552 0.76663 0.0
H1138 H 0.48335 0.71363 0.74906 0.0
H1139 H 0.46055 0.70051 0.75009 0.0
H1140 H 0.2971 0.45926 0.75081 0.0
H1141 H 0.28437 0.48225 0.7492 0.0
H1142 H 0.24654 0.46284 0.76817 0.0
H1143 H 0.25927 0.4397 0.76988 0.0
H1144 H 0.24189 0.47555 0.74094 0.0
H1145 H 0.27016 0.51351 0.77731 0.0
H1146 H 0.2825 0.50322 0.76648 0.0
H1147 H 0.27123 0.49413 0.77945 0.0
C1148 C 0.28622 0.45997 0.75505 0.0
C1149 C 0.27917 0.44767 0.76041 0.0
C1150 C 0.27897 0.47315 0.75419 0.0
C1151 C 0.26454 0.47427 0.75866 0.0
C1152 C 0.25771 0.46221 0.76477 0.0
H1153 H 0.23031 0.56018 0.73785 0.0
H1154 H 0.23125 0.53727 0.75111 0.0
C1155 C 0.26502 0.44902 0.76578 0.0
C1156 C 0.25623 0.4874 0.75494 0.0
H1157 H 0.25819 0.52411 0.75656 0.0
C1158 C 0.24517 0.48617 0.74464 0.0
C1159 C 0.26038 0.50121 0.7599 0.0
C1160 C 0.27162 0.50311 0.77151 0.0
C1161 C 0.23904 0.49846 0.73825 0.0
C1162 C 0.24419 0.51226 0.74222 0.0
C1163 C 0.25433 0.5135 0.75343 0.0
C1164 C 0.24091 0.52528 0.73356 0.0
C1165 C 0.22759 0.49657 0.72684 0.0
C1166 C 0.24571 0.526 0.71921 0.0
C1167 C 0.24529 0.53903 0.71168 0.0
C1168 C 0.24003 0.55159 0.71835 0.0
C1169 C 0.23432 0.55065 0.7324 0.0
C1170 C 0.2349 0.5376 0.74 0.0
H1171 H 0.22155 0.48631 0.72841 0.0
H1172 H 0.21982 0.5057 0.72692 0.0
H1173 H 0.2328 0.49615 0.71607 0.0
H1174 H 0.25062 0.51669 0.71412 0.0
H1175 H 0.24978 0.53943 0.70089 0.0
H1176 H 0.45678 0.24926 0.70106 0.0
H1177 H 0.48027 0.2514 0.7128 0.0
H1178 H 0.46248 0.23369 0.75201 0.0
H1179 H 0.43887 0.23146 0.7403 0.0
H1180 H 0.47524 0.26127 0.75505 0.0
H1181 H 0.51207 0.2236 0.72685 0.0
H1182 H 0.50128 0.23411 0.71465 0.0
H1183 H 0.49266 0.22148 0.72664 0.0
C1184 C 0.45795 0.24542 0.71204 0.0
C1185 C 0.44596 0.24026 0.71977 0.0
C1186 C 0.47141 0.24659 0.71872 0.0
C1187 C 0.47312 0.24263 0.73325 0.0
C1188 C 0.46138 0.23671 0.74076 0.0
H1189 H 0.55946 0.26171 0.76765 0.0
H1190 H 0.53608 0.24939 0.76608 0.0
C1191 C 0.44792 0.2354 0.73403 0.0
C1192 C 0.48654 0.24662 0.74093 0.0
H1193 H 0.52319 0.24415 0.73846 0.0
C1194 C 0.48573 0.25728 0.75168 0.0
C1195 C 0.50018 0.24132 0.73663 0.0
C1196 C 0.50163 0.22939 0.72565 0.0
C1197 C 0.49825 0.26354 0.75746 0.0
C1198 C 0.51187 0.25906 0.75228 0.0
C1199 C 0.51271 0.24764 0.74235 0.0
C1200 C 0.52522 0.26719 0.75558 0.0
C1201 C 0.49681 0.27529 0.76864 0.0
C1202 C 0.52672 0.28137 0.75048 0.0
C1203 C 0.54003 0.28838 0.75126 0.0
C1204 C 0.55208 0.28133 0.75719 0.0
C1205 C 0.55034 0.26745 0.76311 0.0
C1206 C 0.53702 0.26037 0.76217 0.0
H1207 H 0.4864 0.27445 0.77454 0.0
H1208 H 0.50581 0.27485 0.77654 0.0
H1209 H 0.49712 0.28596 0.76319 0.0
H1210 H 0.51779 0.28674 0.74516 0.0
H1211 H 0.54104 0.29905 0.74659 0.0
H1212 H 0.7606 0.43871 0.73861 0.0
H1213 H 0.75548 0.46166 0.7506 0.0
H1214 H 0.75364 0.48289 0.70917 0.0
H1215 H 0.75775 0.45974 0.69711 0.0
H1216 H 0.76493 0.48813 0.75341 0.0
H1217 H 0.71359 0.48965 0.72294 0.0
H1218 H 0.72559 0.47439 0.72223 0.0
H1219 H 0.72881 0.49 0.71103 0.0
C1220 C 0.75944 0.44835 0.73208 0.0
C1221 C 0.75934 0.44747 0.71694 0.0
C1222 C 0.75647 0.46146 0.73895 0.0
C1223 C 0.75362 0.4739 0.73077 0.0
C1224 C 0.75521 0.47331 0.71569 0.0
H1225 H 0.74154 0.56111 0.76076 0.0
H1226 H 0.75172 0.53731 0.75608 0.0
C1227 C 0.75773 0.46014 0.7088 0.0
C1228 C 0.74768 0.487 0.73784 0.0
H1229 H 0.71971 0.51081 0.73595 0.0
C1230 C 0.75498 0.49306 0.74968 0.0
C1231 C 0.73441 0.49314 0.73334 0.0
C1232 C 0.72507 0.48636 0.72181 0.0
C1233 C 0.74962 0.50534 0.75682 0.0
C1234 C 0.7369 0.51208 0.75162 0.0
C1235 C 0.72948 0.50578 0.73999 0.0
C1236 C 0.73127 0.52598 0.75741 0.0
C1237 C 0.7575 0.51071 0.77002 0.0
C1238 C 0.71637 0.52769 0.75987 0.0
C1239 C 0.71048 0.54141 0.76195 0.0
C1240 C 0.71944 0.55361 0.7621 0.0
C1241 C 0.73444 0.55181 0.76095 0.0
C1242 C 0.74029 0.53815 0.75835 0.0
H1243 H 0.76297 0.50169 0.77573 0.0
H1244 H 0.76598 0.51849 0.76666 0.0
H1245 H 0.75009 0.51616 0.77771 0.0
H1246 H 0.70916 0.51849 0.75929 0.0
H1247 H 0.69887 0.54256 0.76276 0.0
H1248 H 0.44086 0.26133 0.22781 0.0
H1249 H 0.46413 0.24895 0.23028 0.0
H1250 H 0.48146 0.28595 0.25261 0.0
H1251 H 0.45838 0.29839 0.25014 0.0
H1252 H 0.50122 0.27176 0.23294 0.0
H1253 H 0.47431 0.23439 0.27173 0.0
H1254 H 0.46683 0.2359 0.25387 0.0
H1255 H 0.46596 0.25101 0.26595 0.0
C1256 C 0.44975 0.26698 0.23289 0.0
C1257 C 0.44775 0.28077 0.23895 0.0
C1258 C 0.46299 0.25985 0.23437 0.0
C1259 C 0.47438 0.26645 0.24186 0.0
C1260 C 0.47276 0.28065 0.24685 0.0
H1261 H 0.54114 0.25194 0.29855 0.0
H1262 H 0.51834 0.25376 0.28551 0.0
C1263 C 0.45955 0.28774 0.24544 0.0
C1264 C 0.48749 0.2583 0.24594 0.0
H1265 H 0.49955 0.2337 0.27061 0.0
C1266 C 0.5009 0.26318 0.24091 0.0
C1267 C 0.48694 0.24721 0.25643 0.0
C1268 C 0.47278 0.2418 0.26243 0.0
C1269 C 0.51384 0.2578 0.24667 0.0
C1270 C 0.51328 0.24719 0.25765 0.0
C1271 C 0.49988 0.24175 0.26211 0.0
C1272 C 0.52627 0.24341 0.26614 0.0
C1273 C 0.52797 0.26424 0.24171 0.0
C1274 C 0.53806 0.23634 0.25979 0.0
C1275 C 0.55115 0.23523 0.26726 0.0
C1276 C 0.55259 0.24125 0.28114 0.0
C1277 C 0.54041 0.24729 0.28785 0.0
C1278 C 0.52735 0.24832 0.28041 0.0
H1279 H 0.52639 0.27357 0.23435 0.0
H1280 H 0.53444 0.26786 0.25113 0.0
H1281 H 0.53431 0.25591 0.23589 0.0
H1282 H 0.53734 0.23231 0.24883 0.0
H1283 H 0.56035 0.23049 0.26181 0.0
H1284 H 0.70306 0.45899 0.24686 0.0
H1285 H 0.71581 0.48197 0.24822 0.0
H1286 H 0.75397 0.46208 0.23045 0.0
H1287 H 0.74123 0.43893 0.22903 0.0
H1288 H 0.75824 0.47514 0.25734 0.0
H1289 H 0.73066 0.51279 0.22018 0.0
H1290 H 0.71806 0.5028 0.23098 0.0
H1291 H 0.72942 0.4934 0.21831 0.0
C1292 C 0.71402 0.45958 0.24282 0.0
C1293 C 0.72117 0.44714 0.23791 0.0
C1294 C 0.72128 0.47276 0.24353 0.0
C1295 C 0.73581 0.47374 0.23935 0.0
C1296 C 0.74273 0.46154 0.23363 0.0
H1297 H 0.76956 0.55984 0.25966 0.0
H1298 H 0.76876 0.53682 0.24665 0.0
C1299 C 0.73541 0.44835 0.23278 0.0
C1300 C 0.74411 0.48689 0.24304 0.0
H1301 H 0.74221 0.52358 0.24113 0.0
C1302 C 0.75503 0.48573 0.2535 0.0
C1303 C 0.74005 0.50067 0.23792 0.0
C1304 C 0.729 0.5025 0.22611 0.0
C1305 C 0.76108 0.49806 0.25989 0.0
C1306 C 0.75599 0.51183 0.25576 0.0
C1307 C 0.74601 0.513 0.24439 0.0
C1308 C 0.75921 0.52493 0.26432 0.0
C1309 C 0.77241 0.49623 0.27143 0.0
C1310 C 0.75443 0.52575 0.27868 0.0
C1311 C 0.75479 0.53885 0.28609 0.0
C1312 C 0.75992 0.55139 0.27928 0.0
C1313 C 0.7656 0.55035 0.26523 0.0
C1314 C 0.76512 0.53723 0.25775 0.0
H1315 H 0.77851 0.48601 0.26994 0.0
H1316 H 0.78013 0.50541 0.27145 0.0
H1317 H 0.76707 0.49577 0.28214 0.0
H1318 H 0.74959 0.51645 0.28386 0.0
H1319 H 0.75032 0.53931 0.29689 0.0
H1320 H 0.54116 0.70266 0.24739 0.0
H1321 H 0.51814 0.71528 0.24918 0.0
H1322 H 0.53786 0.754 0.23245 0.0
H1323 H 0.56105 0.74138 0.23058 0.0
H1324 H 0.52469 0.75736 0.25957 0.0
H1325 H 0.48735 0.73081 0.22131 0.0
H1326 H 0.4974 0.71799 0.2318 0.0
H1327 H 0.50676 0.72977 0.21949 0.0
C1328 C 0.54052 0.71373 0.24367 0.0
C1329 C 0.55293 0.72104 0.23891 0.0
C1330 C 0.52732 0.72092 0.24463 0.0
C1331 C 0.52628 0.73555 0.24086 0.0
C1332 C 0.53844 0.74268 0.23531 0.0
H1333 H 0.44027 0.77009 0.26075 0.0
H1334 H 0.4635 0.7689 0.24813 0.0
C1335 C 0.55166 0.73543 0.2342 0.0
C1336 C 0.51308 0.74369 0.24474 0.0
H1337 H 0.47639 0.742 0.24229 0.0
C1338 C 0.51414 0.75429 0.25553 0.0
C1339 C 0.49935 0.7398 0.23936 0.0
C1340 C 0.49763 0.72907 0.22724 0.0
C1341 C 0.50175 0.76023 0.2619 0.0
C1342 C 0.48801 0.75534 0.25742 0.0
C1343 C 0.48695 0.74565 0.24581 0.0
C1344 C 0.47478 0.75857 0.26578 0.0
C1345 C 0.50346 0.77123 0.27378 0.0
C1346 C 0.47354 0.75346 0.27999 0.0
C1347 C 0.46031 0.75403 0.28717 0.0
C1348 C 0.44807 0.75974 0.28028 0.0
C1349 C 0.44954 0.7657 0.26638 0.0
C1350 C 0.46277 0.76498 0.25913 0.0
H1351 H 0.51382 0.77719 0.27272 0.0
H1352 H 0.49442 0.77911 0.27374 0.0
H1353 H 0.50352 0.76562 0.28436 0.0
H1354 H 0.4826 0.74823 0.28523 0.0
H1355 H 0.45952 0.74934 0.29786 0.0
H1356 H 0.2988 0.54087 0.24972 0.0
H1357 H 0.28641 0.51769 0.25152 0.0
H1358 H 0.24867 0.53607 0.23139 0.0
H1359 H 0.26105 0.55937 0.22946 0.0
H1360 H 0.244 0.52362 0.25917 0.0
H1361 H 0.27312 0.48597 0.22301 0.0
H1362 H 0.28501 0.49672 0.23394 0.0
H1363 H 0.2737 0.50535 0.22072 0.0
C1364 C 0.28802 0.53989 0.24529 0.0
C1365 C 0.28088 0.55196 0.2395 0.0
C1366 C 0.28097 0.52661 0.24627 0.0
C1367 C 0.26666 0.52516 0.24152 0.0
C1368 C 0.25975 0.53697 0.23503 0.0
H1369 H 0.23026 0.43952 0.2597 0.0
H1370 H 0.23243 0.46281 0.24731 0.0
C1371 C 0.26687 0.55025 0.23389 0.0
C1372 C 0.25849 0.51194 0.2452 0.0
H1373 H 0.26037 0.47525 0.24306 0.0
C1374 C 0.24732 0.51304 0.25539 0.0
C1375 C 0.26275 0.49819 0.24017 0.0
C1376 C 0.27421 0.49646 0.22874 0.0
C1377 C 0.24105 0.50067 0.26148 0.0
C1378 C 0.24615 0.48693 0.25731 0.0
C1379 C 0.25653 0.48582 0.24632 0.0
C1380 C 0.24234 0.47371 0.26543 0.0
C1381 C 0.22943 0.50241 0.27275 0.0
C1382 C 0.24689 0.47227 0.2798 0.0
C1383 C 0.24577 0.459 0.28684 0.0
C1384 C 0.24005 0.44695 0.27964 0.0
C1385 C 0.23463 0.44864 0.26556 0.0
C1386 C 0.23591 0.46191 0.25844 0.0
H1387 H 0.22373 0.5129 0.27158 0.0
H1388 H 0.2214 0.49352 0.27208 0.0
H1389 H 0.23443 0.50212 0.28363 0.0
H1390 H 0.25209 0.48119 0.2853 0.0
H1391 H 0.25005 0.45802 0.29768 0.0
H1392 H 0.75065 0.70069 0.54079 0.0
H1393 H 0.74944 0.71331 0.51772 0.0
H1394 H 0.76781 0.75133 0.53734 0.0
H1395 H 0.76907 0.73874 0.56055 0.0
H1396 H 0.74097 0.75591 0.52439 0.0
H1397 H 0.77757 0.72761 0.48671 0.0
H1398 H 0.76656 0.71525 0.49677 0.0
H1399 H 0.77947 0.7264 0.5061 0.0
C1400 C 0.75485 0.71158 0.54011 0.0
C1401 C 0.75987 0.71875 0.5525 0.0
C1402 C 0.75423 0.71877 0.52689 0.0
C1403 C 0.75861 0.73323 0.5258 0.0
C1404 C 0.76446 0.74014 0.53795 0.0
H1405 H 0.73908 0.76822 0.43991 0.0
H1406 H 0.752 0.76675 0.46296 0.0
C1407 C 0.76521 0.73291 0.55118 0.0
C1408 C 0.755 0.74153 0.51264 0.0
H1409 H 0.75693 0.73967 0.47594 0.0
C1410 C 0.74474 0.75264 0.5138 0.0
C1411 C 0.76004 0.73738 0.49886 0.0
C1412 C 0.77163 0.7261 0.49702 0.0
C1413 C 0.73851 0.75884 0.50147 0.0
C1414 C 0.74258 0.75372 0.4877 0.0
C1415 C 0.75372 0.7435 0.48653 0.0
C1416 C 0.73415 0.75721 0.47459 0.0
C1417 C 0.72718 0.77039 0.5033 0.0
C1418 C 0.71973 0.75265 0.47363 0.0
C1419 C 0.71237 0.75337 0.46051 0.0
C1420 C 0.7193 0.75869 0.44811 0.0
C1421 C 0.73343 0.76414 0.44931 0.0
C1422 C 0.74085 0.76327 0.46244 0.0
H1423 H 0.72866 0.77634 0.51361 0.0
H1424 H 0.72744 0.77821 0.49422 0.0
H1425 H 0.71635 0.76526 0.50354 0.0
H1426 H 0.71444 0.74771 0.48281 0.0
H1427 H 0.70151 0.74908 0.45992 0.0
H1428 H 0.77116 0.26176 0.43931 0.0
H1429 H 0.7688 0.24876 0.46226 0.0
H1430 H 0.74863 0.2861 0.48137 0.0
H1431 H 0.75099 0.29916 0.45862 0.0
H1432 H 0.76812 0.27047 0.50013 0.0
H1433 H 0.72706 0.23566 0.47315 0.0
H1434 H 0.74477 0.23661 0.46522 0.0
H1435 H 0.73336 0.25227 0.46516 0.0
C1436 C 0.76659 0.26733 0.44852 0.0
C1437 C 0.76109 0.28143 0.44713 0.0
C1438 C 0.76517 0.25985 0.46158 0.0
C1439 C 0.7583 0.26639 0.47338 0.0
C1440 C 0.7539 0.28084 0.47234 0.0
H1441 H 0.70292 0.25121 0.54146 0.0
H1442 H 0.71534 0.25374 0.51837 0.0
C1443 C 0.75525 0.28829 0.45933 0.0
C1444 C 0.75422 0.258 0.48634 0.0
H1445 H 0.72891 0.23399 0.4983 0.0
C1446 C 0.7598 0.26223 0.49975 0.0
C1447 C 0.74325 0.24737 0.48574 0.0
C1448 C 0.73664 0.2427 0.47159 0.0
C1449 C 0.75419 0.25664 0.51267 0.0
C1450 C 0.74279 0.24647 0.51209 0.0
C1451 C 0.73772 0.2417 0.49865 0.0
C1452 C 0.73462 0.24246 0.52521 0.0
C1453 C 0.75981 0.26237 0.52686 0.0
C1454 C 0.7411 0.23468 0.53646 0.0
C1455 C 0.73399 0.23316 0.54971 0.0
C1456 C 0.72033 0.23947 0.55186 0.0
C1457 C 0.71347 0.2463 0.54018 0.0
C1458 C 0.72054 0.24775 0.52697 0.0
H1459 H 0.76743 0.27152 0.52537 0.0
H1460 H 0.75072 0.26605 0.53376 0.0
H1461 H 0.76554 0.25363 0.5327 0.0
H1462 H 0.75189 0.23036 0.53521 0.0
H1463 H 0.73955 0.22781 0.55849 0.0
H1464 H 0.22904 0.73767 0.43961 0.0
H1465 H 0.23144 0.74996 0.46294 0.0
H1466 H 0.25409 0.71307 0.48006 0.0
H1467 H 0.2517 0.70071 0.45693 0.0
H1468 H 0.23422 0.72686 0.49984 0.0
H1469 H 0.27266 0.76493 0.47343 0.0
H1470 H 0.25486 0.76329 0.46583 0.0
H1471 H 0.2671 0.74831 0.46492 0.0
C1472 C 0.2342 0.73203 0.44846 0.0
C1473 C 0.24035 0.71829 0.44639 0.0
C1474 C 0.23563 0.73911 0.46174 0.0
C1475 C 0.24317 0.73251 0.47309 0.0
C1476 C 0.24829 0.71836 0.47138 0.0
H1477 H 0.29894 0.74834 0.54073 0.0
H1478 H 0.28632 0.74606 0.51774 0.0
C1479 C 0.24693 0.71132 0.45815 0.0
C1480 C 0.24709 0.7406 0.48628 0.0
H1481 H 0.2712 0.76561 0.49866 0.0
C1482 C 0.24204 0.73557 0.49963 0.0
C1483 C 0.25741 0.75187 0.48587 0.0
C1484 C 0.26344 0.75743 0.47179 0.0
C1485 C 0.24758 0.74101 0.51264 0.0
C1486 C 0.25834 0.75185 0.51222 0.0
C1487 C 0.26286 0.75739 0.49889 0.0
C1488 C 0.26652 0.75586 0.52534 0.0
C1489 C 0.24259 0.73444 0.5267 0.0
C1490 C 0.25979 0.76278 0.537 0.0
C1491 C 0.26702 0.76414 0.5502 0.0
C1492 C 0.28105 0.75855 0.55188 0.0
C1493 C 0.28812 0.75267 0.53982 0.0
C1494 C 0.28092 0.75137 0.52666 0.0
H1495 H 0.23552 0.72489 0.525 0.0
H1496 H 0.25201 0.7311 0.53332 0.0
H1497 H 0.23643 0.7426 0.53294 0.0
H1498 H 0.24874 0.7665 0.5361 0.0
H1499 H 0.26129 0.76876 0.55929 0.0
H1500 H 0.23097 0.25978 0.55964 0.0
H1501 H 0.23363 0.24746 0.53637 0.0
H1502 H 0.2545 0.28517 0.51878 0.0
H1503 H 0.25182 0.29757 0.54186 0.0
H1504 H 0.23502 0.2705 0.4993 0.0
H1505 H 0.27523 0.2341 0.5254 0.0
H1506 H 0.25746 0.23503 0.53321 0.0
H1507 H 0.2691 0.25051 0.53392 0.0
C1508 C 0.23578 0.26558 0.55071 0.0
C1509 C 0.24135 0.27959 0.55263 0.0
C1510 C 0.23738 0.25848 0.53746 0.0
C1511 C 0.24449 0.26533 0.52598 0.0
C1512 C 0.24903 0.27969 0.52755 0.0
H1513 H 0.30013 0.25125 0.45784 0.0
H1514 H 0.2876 0.25326 0.48091 0.0
C1515 C 0.24751 0.28675 0.54076 0.0
C1516 C 0.24857 0.25733 0.51277 0.0
H1517 H 0.27347 0.23321 0.5002 0.0
C1518 C 0.24317 0.2621 0.49946 0.0
C1519 C 0.25932 0.24648 0.5131 0.0
C1520 C 0.26573 0.24122 0.52713 0.0
C1521 C 0.24875 0.25682 0.4864 0.0
C1522 C 0.25994 0.2464 0.48673 0.0
C1523 C 0.26482 0.2411 0.50004 0.0
C1524 C 0.26813 0.24265 0.47354 0.0
C1525 C 0.24335 0.26312 0.47238 0.0
C1526 C 0.26156 0.23541 0.46197 0.0
C1527 C 0.26875 0.2342 0.44873 0.0
C1528 C 0.28255 0.24028 0.44691 0.0
C1529 C 0.28947 0.24654 0.45887 0.0
C1530 C 0.28233 0.24769 0.47207 0.0
H1531 H 0.23592 0.27237 0.47411 0.0
H1532 H 0.25256 0.26681 0.46564 0.0
H1533 H 0.23746 0.25468 0.46624 0.0
H1534 H 0.25067 0.23129 0.46299 0.0
H1535 H 0.26314 0.22929 0.43972 0.0
H1536 H 0.18633 0.13737 0.28017 0.0
H1537 H 0.16768 0.15593 0.27908 0.0
H1538 H 0.14409 0.13051 0.24799 0.0
H1539 H 0.16257 0.11165 0.24936 0.0
H1540 H 0.1641 0.16961 0.2536 0.0
H1541 H 0.11142 0.14775 0.27188 0.0
H1542 H 0.12842 0.13928 0.27635 0.0
H1543 H 0.12048 0.13664 0.25883 0.0
C1544 C 0.17694 0.13552 0.27345 0.0
C1545 C 0.17596 0.12315 0.26473 0.0
C1546 C 0.16628 0.14612 0.27286 0.0
C1547 C 0.15449 0.14462 0.26346 0.0
C1548 C 0.15294 0.13179 0.25552 0.0
H1549 H 0.10033 0.20631 0.21996 0.0
H1550 H 0.1108 0.18423 0.22998 0.0
C1551 C 0.16355 0.12105 0.25625 0.0
C1552 C 0.14543 0.15739 0.26018 0.0
H1553 H 0.11078 0.16998 0.25865 0.0
C1554 C 0.15246 0.16973 0.25491 0.0
C1555 C 0.13023 0.15745 0.26167 0.0
C1556 C 0.12218 0.14461 0.26761 0.0
C1557 C 0.14474 0.18207 0.25089 0.0
C1558 C 0.12955 0.18218 0.2524 0.0
C1559 C 0.12244 0.16986 0.25764 0.0
C1560 C 0.12105 0.19495 0.24801 0.0
C1561 C 0.15288 0.19476 0.24467 0.0
C1562 C 0.12292 0.20816 0.25517 0.0
C1563 C 0.11707 0.22081 0.24943 0.0
C1564 C 0.10917 0.22043 0.23646 0.0
C1565 C 0.10645 0.207 0.2299 0.0
C1566 C 0.11236 0.19435 0.23564 0.0
H1567 H 0.16403 0.19179 0.24139 0.0
H1568 H 0.14715 0.19923 0.23513 0.0
H1569 H 0.15363 0.20341 0.25292 0.0
H1570 H 0.12948 0.20877 0.26483 0.0
H1571 H 0.11923 0.23094 0.25484 0.0
H1572 H 0.88737 0.15919 0.2439 0.0
H1573 H 0.86817 0.14113 0.24126 0.0
H1574 H 0.84434 0.16137 0.27575 0.0
H1575 H 0.86323 0.17962 0.27818 0.0
H1576 H 0.85177 0.12128 0.25942 0.0
H1577 H 0.81959 0.16766 0.23914 0.0
H1578 H 0.83884 0.16868 0.24185 0.0
H1579 H 0.82676 0.17018 0.25697 0.0
C1580 C 0.87824 0.15952 0.2512 0.0
C1581 C 0.87664 0.17095 0.26106 0.0
C1582 C 0.86729 0.14921 0.24967 0.0
C1583 C 0.85473 0.15015 0.2581 0.0
C1584 C 0.85385 0.16064 0.26897 0.0
H1585 H 0.768 0.11778 0.24981 0.0
H1586 H 0.79075 0.127 0.25937 0.0
C1587 C 0.86465 0.17104 0.27036 0.0
C1588 C 0.84178 0.14162 0.25424 0.0
H1589 H 0.80739 0.14549 0.24166 0.0
C1590 C 0.84204 0.12652 0.25555 0.0
C1591 C 0.8292 0.14852 0.249 0.0
C1592 C 0.82856 0.16463 0.2465 0.0
C1593 C 0.82984 0.11816 0.25206 0.0
C1594 C 0.81721 0.12514 0.24708 0.0
C1595 C 0.81704 0.1402 0.24567 0.0
C1596 C 0.80401 0.11721 0.24283 0.0
C1597 C 0.83043 0.102 0.2539 0.0
C1598 C 0.80398 0.1084 0.23052 0.0
C1599 C 0.79096 0.10312 0.22497 0.0
C1600 C 0.77775 0.10669 0.2316 0.0
C1601 C 0.77794 0.11489 0.24438 0.0
C1602 C 0.79094 0.12014 0.2499 0.0
H1603 H 0.83967 0.09863 0.26076 0.0
H1604 H 0.82026 0.09792 0.25877 0.0
H1605 H 0.83167 0.09686 0.24315 0.0
H1606 H 0.81392 0.10623 0.22476 0.0
H1607 H 0.7912 0.09683 0.21512 0.0
H1608 H 0.86455 0.77412 0.23551 0.0
H1609 H 0.85626 0.79723 0.24491 0.0
H1610 H 0.9005 0.81102 0.2502 0.0
H1611 H 0.90877 0.78821 0.23957 0.0
H1612 H 0.85812 0.81021 0.2686 0.0
H1613 H 0.88663 0.84459 0.2286 0.0
H1614 H 0.88636 0.82522 0.22721 0.0
H1615 H 0.89849 0.83402 0.23961 0.0
C1616 C 0.87249 0.78209 0.23869 0.0
C1617 C 0.88727 0.77948 0.23673 0.0
C1618 C 0.86777 0.79531 0.2441 0.0
C1619 C 0.87772 0.80609 0.24802 0.0
C1620 C 0.89257 0.80317 0.24677 0.0
H1621 H 0.82902 0.87825 0.28672 0.0
H1622 H 0.84825 0.86002 0.28533 0.0
C1623 C 0.8973 0.79008 0.24085 0.0
C1624 C 0.87225 0.82031 0.25317 0.0
H1625 H 0.87249 0.85646 0.2459 0.0
C1626 C 0.86128 0.82033 0.26364 0.0
C1627 C 0.87643 0.83357 0.24676 0.0
C1628 C 0.88752 0.83439 0.23484 0.0
C1629 C 0.8536 0.83292 0.26706 0.0
C1630 C 0.85767 0.84618 0.26056 0.0
C1631 C 0.86938 0.84634 0.2509 0.0
C1632 C 0.8487 0.85946 0.26193 0.0
C1633 C 0.84052 0.83152 0.27672 0.0
C1634 C 0.84364 0.86629 0.24935 0.0
C1635 C 0.83332 0.87721 0.2502 0.0
C1636 C 0.82766 0.88129 0.26361 0.0
C1637 C 0.83331 0.87522 0.27627 0.0
C1638 C 0.84409 0.86465 0.27545 0.0
H1639 H 0.8369 0.82012 0.27774 0.0
H1640 H 0.84326 0.83542 0.2877 0.0
H1641 H 0.83133 0.83796 0.27252 0.0
H1642 H 0.84701 0.8626 0.23878 0.0
H1643 H 0.82894 0.88167 0.24031 0.0
H1644 H 0.20581 0.90464 0.21679 0.0
H1645 H 0.18165 0.89751 0.2247 0.0
H1646 H 0.20037 0.871 0.25808 0.0
H1647 H 0.2245 0.87822 0.25044 0.0
H1648 H 0.17236 0.87009 0.22343 0.0
H1649 H 0.16709 0.88922 0.27959 0.0
H1650 H 0.18065 0.89618 0.26741 0.0
H1651 H 0.18365 0.87955 0.27704 0.0
C1652 C 0.20479 0.89753 0.22602 0.0
C1653 C 0.21711 0.89192 0.23293 0.0
C1654 C 0.19096 0.8935 0.23054 0.0
C1655 C 0.18918 0.88388 0.2421 0.0
C1656 C 0.20144 0.87873 0.24938 0.0
H1657 H 0.139 0.8171 0.27236 0.0
H1658 H 0.1545 0.83805 0.26903 0.0
C1659 C 0.21526 0.88277 0.24489 0.0
C1660 C 0.17481 0.87759 0.24529 0.0
H1661 H 0.15249 0.86834 0.27312 0.0
C1662 C 0.16777 0.87003 0.23421 0.0
C1663 C 0.16884 0.87755 0.25934 0.0
C1664 C 0.17539 0.8862 0.27148 0.0
C1665 C 0.15561 0.86146 0.23702 0.0
C1666 C 0.1502 0.86066 0.25129 0.0
C1667 C 0.15667 0.86897 0.2622 0.0
C1668 C 0.13943 0.84957 0.2554 0.0
C1669 C 0.14934 0.85251 0.22493 0.0
C1670 C 0.12551 0.84939 0.24938 0.0
C1671 C 0.11659 0.83732 0.25121 0.0
C1672 C 0.12149 0.82529 0.25909 0.0
C1673 C 0.13496 0.82608 0.26606 0.0
C1674 C 0.14383 0.8381 0.26423 0.0
H1675 H 0.15613 0.85281 0.21505 0.0
H1676 H 0.14812 0.84108 0.22835 0.0
H1677 H 0.13848 0.8567 0.22209 0.0
H1678 H 0.12184 0.85827 0.24272 0.0
H1679 H 0.10623 0.83708 0.24579 0.0
H1680 H 0.1211 0.7802 0.75071 0.0
H1681 H 0.12761 0.80452 0.74289 0.0
H1682 H 0.09799 0.82262 0.77391 0.0
H1683 H 0.09155 0.79831 0.78201 0.0
H1684 H 0.11175 0.82914 0.73261 0.0
H1685 H 0.13762 0.83856 0.78614 0.0
H1686 H 0.13205 0.82083 0.78034 0.0
H1687 H 0.11883 0.83375 0.7862 0.0
C1688 C 0.11581 0.78932 0.75576 0.0
C1689 C 0.10598 0.7873 0.76715 0.0
C1690 C 0.1195 0.80322 0.75123 0.0
C1691 C 0.11344 0.81535 0.75798 0.0
C1692 C 0.10296 0.81339 0.76873 0.0
H1693 H 0.15958 0.89751 0.75384 0.0
H1694 H 0.13813 0.88233 0.75706 0.0
C1695 C 0.09929 0.79948 0.77332 0.0
C1696 C 0.1192 0.82988 0.75462 0.0
H1697 H 0.14132 0.85592 0.76832 0.0
C1698 C 0.11801 0.83515 0.74047 0.0
C1699 C 0.12724 0.83777 0.76494 0.0
C1700 C 0.12914 0.83246 0.78024 0.0
C1701 C 0.12526 0.84776 0.73617 0.0
C1702 C 0.13412 0.85508 0.74623 0.0
C1703 C 0.13449 0.85033 0.76062 0.0
C1704 C 0.14492 0.86603 0.74175 0.0
C1705 C 0.12368 0.85288 0.7208 0.0
C1706 C 0.1556 0.86215 0.73175 0.0
C1707 C 0.16782 0.87075 0.72992 0.0
C1708 C 0.16967 0.88337 0.73814 0.0
C1709 C 0.15846 0.88786 0.74734 0.0
C1710 C 0.1462 0.87919 0.7492 0.0
H1711 H 0.11284 0.8501 0.71646 0.0
H1712 H 0.1253 0.86472 0.7199 0.0
H1713 H 0.13183 0.84737 0.71396 0.0
H1714 H 0.15506 0.85192 0.72612 0.0
H1715 H 0.17622 0.86702 0.72269 0.0
H1716 H 0.22532 0.12407 0.75115 0.0
H1717 H 0.20152 0.1319 0.74301 0.0
H1718 H 0.18149 0.09973 0.77006 0.0
H1719 H 0.20529 0.092 0.77855 0.0
H1720 H 0.17767 0.11838 0.72993 0.0
H1721 H 0.16496 0.13753 0.78554 0.0
H1722 H 0.18291 0.13212 0.7803 0.0
H1723 H 0.16931 0.11872 0.78373 0.0
C1724 C 0.21588 0.11852 0.75526 0.0
C1725 C 0.21721 0.10757 0.76568 0.0
C1726 C 0.20228 0.12298 0.75055 0.0
C1727 C 0.18974 0.11657 0.75614 0.0
C1728 C 0.19103 0.10501 0.76584 0.0
H1729 H 0.10637 0.16104 0.75124 0.0
H1730 H 0.12256 0.1402 0.75333 0.0
C1731 C 0.20464 0.1006 0.77064 0.0
C1732 C 0.17548 0.12289 0.75264 0.0
H1733 H 0.14843 0.1431 0.76736 0.0
C1734 C 0.17114 0.12359 0.73813 0.0
C1735 C 0.16693 0.12961 0.76338 0.0
C1736 C 0.17125 0.1296 0.7791 0.0
C1737 C 0.15881 0.13139 0.73401 0.0
C1738 C 0.15077 0.13882 0.74465 0.0
C1739 C 0.15459 0.13735 0.75923 0.0
C1740 C 0.13982 0.14985 0.7409 0.0
C1741 C 0.15474 0.13195 0.71826 0.0
C1742 C 0.14405 0.16204 0.73296 0.0
C1743 C 0.1349 0.17393 0.73182 0.0
C1744 C 0.12134 0.17392 0.73865 0.0
C1745 C 0.11673 0.16136 0.74583 0.0
C1746 C 0.12597 0.14946 0.74705 0.0
H1747 H 0.15834 0.12205 0.71251 0.0
H1748 H 0.1429 0.13317 0.71683 0.0
H1749 H 0.16017 0.14131 0.71312 0.0
H1750 H 0.15479 0.16274 0.7284 0.0
H1751 H 0.13876 0.18342 0.72616 0.0
H1752 H 0.87275 0.22676 0.75159 0.0
H1753 H 0.86437 0.20342 0.74264 0.0
H1754 H 0.89695 0.18184 0.76794 0.0
H1755 H 0.90524 0.20514 0.77722 0.0
H1756 H 0.87737 0.17999 0.72819 0.0
H1757 H 0.85924 0.1651 0.78357 0.0
H1758 H 0.8647 0.1832 0.77896 0.0
H1759 H 0.87805 0.16939 0.78165 0.0
C1760 C 0.87826 0.21708 0.75514 0.0
C1761 C 0.88951 0.2178 0.7653 0.0
C1762 C 0.87348 0.20374 0.74997 0.0
C1763 C 0.87987 0.1909 0.75484 0.0
C1764 C 0.89169 0.19162 0.76428 0.0
H1765 H 0.83683 0.10701 0.74759 0.0
H1766 H 0.85711 0.12384 0.75003 0.0
C1767 C 0.89642 0.20495 0.76954 0.0
C1768 C 0.87333 0.17686 0.75087 0.0
H1769 H 0.85363 0.14908 0.76491 0.0
C1770 C 0.87235 0.17311 0.73622 0.0
C1771 C 0.86683 0.16787 0.76139 0.0
C1772 C 0.86712 0.17158 0.77727 0.0
C1773 C 0.86459 0.16086 0.73176 0.0
C1774 C 0.85749 0.15231 0.74223 0.0
C1775 C 0.85914 0.15563 0.75692 0.0
C1776 C 0.84673 0.14116 0.73827 0.0
C1777 C 0.86381 0.15738 0.71588 0.0
C1778 C 0.83432 0.14521 0.7306 0.0
C1779 C 0.82274 0.13568 0.72925 0.0
C1780 C 0.82329 0.12191 0.73561 0.0
C1781 C 0.83607 0.11753 0.74255 0.0
C1782 C 0.84766 0.12713 0.74396 0.0
H1783 H 0.8735 0.16142 0.71008 0.0
H1784 H 0.86283 0.14557 0.71404 0.0
H1785 H 0.85421 0.16276 0.71114 0.0
H1786 H 0.8332 0.15607 0.72641 0.0
H1787 H 0.81308 0.13939 0.7238 0.0
H1788 H 0.89256 0.83584 0.74826 0.0
H1789 H 0.87563 0.85615 0.74995 0.0
H1790 H 0.84188 0.82958 0.73201 0.0
H1791 H 0.85862 0.80936 0.73015 0.0
H1792 H 0.84221 0.85935 0.72194 0.0
H1793 H 0.84409 0.85373 0.78186 0.0
H1794 H 0.86093 0.85651 0.7726 0.0
H1795 H 0.85113 0.84 0.76999 0.0
C1796 C 0.8816 0.83442 0.74442 0.0
C1797 C 0.87687 0.82093 0.73927 0.0
C1798 C 0.87195 0.84601 0.74544 0.0
C1799 C 0.85748 0.84426 0.74129 0.0
C1800 C 0.853 0.83112 0.73529 0.0
H1801 H 0.77233 0.87431 0.7487 0.0
H1802 H 0.79558 0.86535 0.74027 0.0
C1803 C 0.86259 0.81955 0.73431 0.0
C1804 C 0.84653 0.85545 0.74445 0.0
H1805 H 0.82676 0.86927 0.77224 0.0
C1806 C 0.83896 0.86175 0.73294 0.0
C1807 C 0.84237 0.85855 0.7588 0.0
C1808 C 0.84995 0.85182 0.77157 0.0
C1809 C 0.82697 0.8707 0.73541 0.0
C1810 C 0.82228 0.8731 0.74975 0.0
C1811 C 0.83035 0.86741 0.76125 0.0
C1812 C 0.80831 0.88014 0.75315 0.0
C1813 C 0.81933 0.87729 0.72264 0.0
C1814 C 0.80768 0.89142 0.76325 0.0
C1815 C 0.79436 0.89643 0.76828 0.0
C1816 C 0.78142 0.89021 0.76332 0.0
C1817 C 0.78207 0.87937 0.75271 0.0
C1818 C 0.79539 0.87432 0.74776 0.0
H1819 H 0.82688 0.87892 0.71346 0.0
H1820 H 0.81069 0.86985 0.71895 0.0
H1821 H 0.81434 0.88782 0.72545 0.0
H1822 H 0.81751 0.89601 0.76762 0.0
H1823 H 0.79424 0.90483 0.77641 0.0
H1824 H 0.24718 0.12319 0.22574 0.0
H1825 H 0.25543 0.13141 0.20211 0.0
H1826 H 0.22719 0.10073 0.18139 0.0
H1827 H 0.21856 0.09266 0.20503 0.0
H1828 H 0.268 0.11835 0.17805 0.0
H1829 H 0.21294 0.13919 0.16565 0.0
H1830 H 0.21796 0.13312 0.18345 0.0
H1831 H 0.21418 0.12022 0.16946 0.0
C1832 C 0.24282 0.11805 0.21618 0.0
C1833 C 0.23203 0.10743 0.21728 0.0
C1834 C 0.24759 0.12274 0.20267 0.0
C1835 C 0.24172 0.11687 0.19 0.0
C1836 C 0.23162 0.10562 0.19104 0.0
H1837 H 0.24819 0.16189 0.10698 0.0
H1838 H 0.24547 0.14112 0.12317 0.0
C1839 C 0.22675 0.10099 0.20456 0.0
C1840 C 0.2454 0.12343 0.17588 0.0
H1841 H 0.23124 0.14443 0.14913 0.0
C1842 C 0.25994 0.12387 0.17159 0.0
C1843 C 0.23485 0.13057 0.16744 0.0
C1844 C 0.21912 0.13089 0.17173 0.0
C1845 C 0.26428 0.13179 0.15941 0.0
C1846 C 0.25384 0.13956 0.15145 0.0
C1847 C 0.23922 0.1384 0.15523 0.0
C1848 C 0.25787 0.15057 0.14058 0.0
C1849 C 0.28006 0.13206 0.1554 0.0
C1850 C 0.26597 0.16261 0.14489 0.0
C1851 C 0.26746 0.17447 0.13575 0.0
C1852 C 0.26083 0.17456 0.12209 0.0
C1853 C 0.25346 0.16213 0.11742 0.0
C1854 C 0.25189 0.15027 0.12665 0.0
H1855 H 0.28563 0.12208 0.15903 0.0
H1856 H 0.28153 0.13325 0.14356 0.0
H1857 H 0.28533 0.14136 0.16081 0.0
H1858 H 0.27043 0.16322 0.15569 0.0
H1859 H 0.27325 0.18385 0.13966 0.0
H1860 H 0.81355 0.27824 0.1356 0.0
H1861 H 0.83202 0.27616 0.15425 0.0
H1862 H 0.85433 0.24424 0.12873 0.0
H1863 H 0.836 0.24651 0.10981 0.0
H1864 H 0.83462 0.25016 0.16773 0.0
H1865 H 0.88786 0.26711 0.14612 0.0
H1866 H 0.871 0.27236 0.13783 0.0
H1867 H 0.87825 0.25462 0.13482 0.0
C1868 C 0.82262 0.27109 0.13376 0.0
C1869 C 0.82325 0.26242 0.12132 0.0
C1870 C 0.83318 0.26994 0.14441 0.0
C1871 C 0.84456 0.26006 0.14289 0.0
C1872 C 0.8458 0.25212 0.13002 0.0
H1873 H 0.89848 0.21485 0.20361 0.0
H1874 H 0.88788 0.22538 0.18184 0.0
C1875 C 0.83527 0.25339 0.11924 0.0
C1876 C 0.85348 0.25636 0.15563 0.0
H1877 H 0.88805 0.25375 0.16825 0.0
C1878 C 0.84629 0.25113 0.1679 0.0
C1879 C 0.86871 0.25743 0.15573 0.0
C1880 C 0.87693 0.2633 0.14297 0.0
C1881 C 0.85388 0.24673 0.18019 0.0
C1882 C 0.86911 0.24783 0.18035 0.0
C1883 C 0.87637 0.25305 0.1681 0.0
C1884 C 0.87751 0.24304 0.19305 0.0
C1885 C 0.84554 0.2405 0.19275 0.0
C1886 C 0.87562 0.24982 0.20646 0.0
C1887 C 0.88154 0.24377 0.21894 0.0
C1888 C 0.88956 0.2309 0.2182 0.0
C1889 C 0.89228 0.22472 0.20458 0.0
C1890 C 0.88628 0.23074 0.19211 0.0
H1891 H 0.83438 0.2374 0.18964 0.0
H1892 H 0.85109 0.23085 0.1972 0.0
H1893 H 0.84481 0.2487 0.20145 0.0
H1894 H 0.86904 0.25944 0.20735 0.0
H1895 H 0.87938 0.24891 0.22922 0.0
H1896 H 0.77964 0.9076 0.20817 0.0
H1897 H 0.77005 0.89909 0.18509 0.0
H1898 H 0.74476 0.86697 0.20739 0.0
H1899 H 0.75402 0.87557 0.23047 0.0
H1900 H 0.77486 0.8726 0.1748 0.0
H1901 H 0.71596 0.88099 0.17799 0.0
H1902 H 0.72843 0.88988 0.19006 0.0
H1903 H 0.7225 0.8717 0.19364 0.0
C1904 C 0.77181 0.89892 0.20819 0.0
C1905 C 0.76765 0.89221 0.22117 0.0
C1906 C 0.76632 0.8941 0.19498 0.0
C1907 C 0.75654 0.88253 0.19451 0.0
C1908 C 0.75199 0.87616 0.20749 0.0
H1909 H 0.73229 0.81228 0.14476 0.0
H1910 H 0.73442 0.83257 0.16137 0.0
C1911 C 0.75742 0.88101 0.22069 0.0
C1912 C 0.75256 0.87584 0.18052 0.0
H1913 H 0.72401 0.86194 0.16179 0.0
C1914 C 0.76373 0.87059 0.17173 0.0
C1915 C 0.73804 0.87326 0.17653 0.0
C1916 C 0.72556 0.8794 0.18499 0.0
C1917 C 0.76082 0.86192 0.15968 0.0
C1918 C 0.74633 0.85857 0.15622 0.0
C1919 C 0.73511 0.86451 0.1645 0.0
C1920 C 0.74282 0.84737 0.14539 0.0
C1921 C 0.77332 0.85558 0.15134 0.0
C1922 C 0.74633 0.84916 0.13075 0.0
C1923 C 0.74516 0.83752 0.12118 0.0
C1924 C 0.74049 0.82395 0.12615 0.0
C1925 C 0.73608 0.82253 0.14061 0.0
C1926 C 0.73722 0.83414 0.15012 0.0
H1927 H 0.78386 0.85762 0.15669 0.0
H1928 H 0.77192 0.84374 0.15005 0.0
H1929 H 0.77368 0.86045 0.1404 0.0
H1930 H 0.7505 0.85938 0.12688 0.0
H1931 H 0.74857 0.83898 0.11009 0.0
H1932 H 0.09119 0.76279 0.20853 0.0
H1933 H 0.09905 0.75172 0.18579 0.0
H1934 H 0.1431 0.75207 0.2011 0.0
H1935 H 0.13512 0.76199 0.22407 0.0
H1936 H 0.11404 0.76072 0.16559 0.0
H1937 H 0.14343 0.7133 0.18501 0.0
H1938 H 0.13217 0.72377 0.19693 0.0
H1939 H 0.15091 0.72853 0.19418 0.0
C1940 C 0.1025 0.76017 0.20709 0.0
C1941 C 0.11254 0.76305 0.21808 0.0
C1942 C 0.107 0.75388 0.1941 0.0
C1943 C 0.12166 0.75066 0.19178 0.0
C1944 C 0.13166 0.75376 0.20277 0.0
H1945 H 0.17118 0.76168 0.11754 0.0
H1946 H 0.15203 0.76249 0.13549 0.0
C1947 C 0.12712 0.7596 0.21588 0.0
C1948 C 0.12683 0.74531 0.17753 0.0
H1949 H 0.15298 0.72418 0.16271 0.0
C1950 C 0.1223 0.75245 0.16492 0.0
C1951 C 0.13714 0.73409 0.17634 0.0
C1952 C 0.141 0.7244 0.18885 0.0
C1953 C 0.12873 0.74959 0.1515 0.0
C1954 C 0.1406 0.73997 0.15078 0.0
C1955 C 0.14419 0.73189 0.16313 0.0
C1956 C 0.15044 0.73924 0.13805 0.0
C1957 C 0.12271 0.75704 0.13832 0.0
C1958 C 0.15627 0.72595 0.1335 0.0
C1959 C 0.16777 0.72558 0.12372 0.0
C1960 C 0.17325 0.73844 0.11792 0.0
C1961 C 0.16684 0.75162 0.12164 0.0
C1962 C 0.15575 0.75205 0.13183 0.0
H1963 H 0.11078 0.75797 0.13911 0.0
H1964 H 0.12708 0.76818 0.13771 0.0
H1965 H 0.12541 0.75118 0.12822 0.0
H1966 H 0.15244 0.7159 0.13807 0.0
H1967 H 0.17273 0.71532 0.12108 0.0
H1968 H 0.22911 0.86492 0.77467 0.0
H1969 H 0.23857 0.85613 0.79758 0.0
H1970 H 0.24662 0.90002 0.81117 0.0
H1971 H 0.23596 0.90886 0.78858 0.0
H1972 H 0.26282 0.85679 0.80951 0.0
H1973 H 0.22583 0.88706 0.84565 0.0
H1974 H 0.2236 0.88696 0.82635 0.0
H1975 H 0.23692 0.89847 0.83465 0.0
C1976 C 0.23289 0.87268 0.78257 0.0
C1977 C 0.23174 0.88754 0.77995 0.0
C1978 C 0.23832 0.86767 0.79568 0.0
C1979 C 0.2431 0.87739 0.80632 0.0
C1980 C 0.24254 0.89228 0.80342 0.0
H1981 H 0.28385 0.82744 0.87625 0.0
H1982 H 0.28194 0.84668 0.85813 0.0
C1983 C 0.23661 0.89733 0.79046 0.0
C1984 C 0.24857 0.87163 0.8203 0.0
H1985 H 0.24319 0.87232 0.85678 0.0
C1986 C 0.25852 0.8602 0.81985 0.0
C1987 C 0.24302 0.87611 0.83384 0.0
C1988 C 0.23166 0.88772 0.83519 0.0
C1989 C 0.26224 0.85242 0.83229 0.0
C1990 C 0.25667 0.85685 0.84586 0.0
C1991 C 0.2475 0.86893 0.84643 0.0
C1992 C 0.25859 0.848 0.85915 0.0
C1993 C 0.2712 0.8389 0.83044 0.0
C1994 C 0.24633 0.84349 0.8669 0.0
C1995 C 0.24755 0.83316 0.8778 0.0
C1996 C 0.26097 0.82694 0.88091 0.0
C1997 C 0.27338 0.83212 0.87395 0.0
C1998 C 0.27224 0.84292 0.86345 0.0
H1999 H 0.27129 0.83511 0.81906 0.0
H2000 H 0.28254 0.8412 0.83355 0.0
H2001 H 0.26705 0.82998 0.83728 0.0
H2002 H 0.23566 0.84725 0.86393 0.0
H2003 H 0.23782 0.82918 0.88296 0.0
H2004 H 0.0949 0.22079 0.79568 0.0
H2005 H 0.10354 0.23005 0.81885 0.0
H2006 H 0.13418 0.25717 0.79661 0.0
H2007 H 0.12546 0.24823 0.77346 0.0
H2008 H 0.13048 0.2259 0.82833 0.0
H2009 H 0.11985 0.28451 0.82726 0.0
H2010 H 0.11111 0.27209 0.81502 0.0
H2011 H 0.12896 0.27881 0.81117 0.0
C2012 C 0.10327 0.22895 0.7957 0.0
C2013 C 0.10955 0.2337 0.78271 0.0
C2014 C 0.10817 0.23426 0.80896 0.0
C2015 C 0.11937 0.24445 0.80947 0.0
C2016 C 0.12527 0.2496 0.7965 0.0
H2017 H 0.18994 0.26987 0.85818 0.0
H2018 H 0.16929 0.2675 0.84207 0.0
C2019 C 0.12035 0.24436 0.78324 0.0
C2020 C 0.12627 0.24823 0.82342 0.0
H2021 H 0.1396 0.27667 0.84271 0.0
C2022 C 0.13215 0.23699 0.8317 0.0
C2023 C 0.12842 0.2627 0.82781 0.0
C2024 C 0.12161 0.27519 0.81991 0.0
C2025 C 0.14104 0.23984 0.84362 0.0
C2026 C 0.14394 0.25433 0.84746 0.0
C2027 C 0.13737 0.26557 0.83971 0.0
C2028 C 0.1553 0.25791 0.85812 0.0
C2029 C 0.14807 0.22733 0.85137 0.0
C2030 C 0.15407 0.25382 0.87266 0.0
C2031 C 0.16593 0.25512 0.88195 0.0
C2032 C 0.17916 0.26052 0.87679 0.0
C2033 C 0.17997 0.26551 0.86247 0.0
C2034 C 0.16815 0.26423 0.85324 0.0
H2035 H 0.14631 0.2169 0.84571 0.0
H2036 H 0.15987 0.22915 0.85243 0.0
H2037 H 0.14348 0.22641 0.86239 0.0
H2038 H 0.14415 0.24909 0.87666 0.0
H2039 H 0.16493 0.25126 0.89294 0.0
H2040 H 0.74515 0.1202 0.76736 0.0
H2041 H 0.73511 0.1308 0.78934 0.0
H2042 H 0.76897 0.11115 0.8145 0.0
H2043 H 0.77903 0.10032 0.79262 0.0
H2044 H 0.7403 0.11193 0.82832 0.0
H2045 H 0.75892 0.16477 0.80668 0.0
H2046 H 0.74727 0.15466 0.79492 0.0
H2047 H 0.76486 0.14776 0.79928 0.0
C2048 C 0.75034 0.11791 0.77759 0.0
C2049 C 0.76304 0.10962 0.7782 0.0
C2050 C 0.74457 0.12396 0.79013 0.0
C2051 C 0.75144 0.12192 0.80347 0.0
C2052 C 0.76353 0.11286 0.80429 0.0
H2053 H 0.74941 0.16378 0.88669 0.0
H2054 H 0.75098 0.14528 0.86786 0.0
C2055 C 0.76929 0.10673 0.79175 0.0
C2056 C 0.74706 0.13055 0.81616 0.0
H2057 H 0.74628 0.16515 0.82863 0.0
C2058 C 0.74152 0.12357 0.82843 0.0
C2059 C 0.74884 0.1457 0.81626 0.0
C2060 C 0.75541 0.1537 0.80365 0.0
C2061 C 0.73746 0.13146 0.84076 0.0
C2062 C 0.7392 0.14663 0.8408 0.0
C2063 C 0.74478 0.15353 0.82852 0.0
C2064 C 0.73583 0.15578 0.85348 0.0
C2065 C 0.73119 0.12356 0.85353 0.0
C2066 C 0.72656 0.16764 0.8518 0.0
C2067 C 0.72584 0.1783 0.8624 0.0
C2068 C 0.73432 0.17727 0.87494 0.0
C2069 C 0.7427 0.16481 0.87717 0.0
C2070 C 0.74355 0.1542 0.86644 0.0
H2071 H 0.72686 0.11282 0.85039 0.0
H2072 H 0.7398 0.12182 0.86168 0.0
H2073 H 0.72243 0.12993 0.85867 0.0
H2074 H 0.72051 0.16907 0.84189 0.0
H2075 H 0.71919 0.18772 0.86044 0.0
H2076 H 0.81555 0.71871 0.86509 0.0
H2077 H 0.83473 0.71972 0.84706 0.0
H2078 H 0.85611 0.75308 0.87154 0.0
H2079 H 0.8371 0.75184 0.88987 0.0
H2080 H 0.8378 0.74455 0.83214 0.0
H2081 H 0.89033 0.72974 0.85678 0.0
H2082 H 0.87322 0.72501 0.86488 0.0
H2083 H 0.88036 0.74295 0.86686 0.0
C2084 C 0.82456 0.72596 0.86686 0.0
C2085 C 0.82476 0.73531 0.8788 0.0
C2086 C 0.83553 0.7265 0.85657 0.0
C2087 C 0.84687 0.73646 0.85795 0.0
C2088 C 0.84763 0.74512 0.87038 0.0
H2089 H 0.90099 0.7797 0.79626 0.0
H2090 H 0.89052 0.76991 0.81844 0.0
C2091 C 0.83671 0.74445 0.88081 0.0
C2092 C 0.85625 0.73945 0.84535 0.0
H2093 H 0.89127 0.74196 0.83397 0.0
C2094 C 0.84949 0.74378 0.8325 0.0
C2095 C 0.8715 0.73865 0.84591 0.0
C2096 C 0.8793 0.73372 0.85931 0.0
C2097 C 0.85749 0.74755 0.82027 0.0
C2098 C 0.87273 0.74675 0.82079 0.0
C2099 C 0.87957 0.74243 0.83361 0.0
C2100 C 0.88152 0.75099 0.80816 0.0
C2101 C 0.84958 0.75279 0.80701 0.0
C2102 C 0.88042 0.74325 0.79519 0.0
C2103 C 0.88626 0.74885 0.78248 0.0
C2104 C 0.89339 0.76226 0.78255 0.0
C2105 C 0.89548 0.7694 0.7958 0.0
C2106 C 0.88956 0.76381 0.80851 0.0
H2107 H 0.83818 0.75568 0.80941 0.0
H2108 H 0.85503 0.76237 0.80229 0.0
H2109 H 0.84952 0.74411 0.79875 0.0
H2110 H 0.87438 0.73324 0.79478 0.0
H2111 H 0.88461 0.74299 0.7725 0.0
H2112 H 0.10724 0.25418 0.16256 0.0
H2113 H 0.12406 0.25182 0.14226 0.0
H2114 H 0.15795 0.27058 0.16808 0.0
H2115 H 0.14128 0.27318 0.18826 0.0
H2116 H 0.15839 0.27921 0.13838 0.0
H2117 H 0.15464 0.21957 0.14572 0.0
H2118 H 0.13809 0.22907 0.14218 0.0
H2119 H 0.14752 0.23206 0.15885 0.0
C2120 C 0.11819 0.25809 0.16381 0.0
C2121 C 0.12299 0.26365 0.17711 0.0
C2122 C 0.12779 0.25668 0.15222 0.0
C2123 C 0.14229 0.26078 0.15379 0.0
C2124 C 0.14681 0.2673 0.16668 0.0
H2125 H 0.2275 0.24946 0.12534 0.0
H2126 H 0.20443 0.25889 0.13379 0.0
C2127 C 0.13726 0.26871 0.17823 0.0
C2128 C 0.15325 0.25697 0.1428 0.0
H2129 H 0.17226 0.22818 0.12993 0.0
C2130 C 0.16129 0.26805 0.13631 0.0
C2131 C 0.15698 0.2424 0.14012 0.0
C2132 C 0.14896 0.23005 0.14712 0.0
C2133 C 0.17332 0.26495 0.12761 0.0
C2134 C 0.17753 0.25041 0.12562 0.0
C2135 C 0.16901 0.23933 0.13147 0.0
C2136 C 0.19148 0.24637 0.11888 0.0
C2137 C 0.18153 0.27728 0.12085 0.0
C2138 C 0.19191 0.23614 0.10771 0.0
C2139 C 0.20511 0.23057 0.10297 0.0
C2140 C 0.21813 0.23508 0.10937 0.0
C2141 C 0.21769 0.24578 0.12014 0.0
C2142 C 0.20449 0.25129 0.1249 0.0
H2143 H 0.17438 0.28674 0.11899 0.0
H2144 H 0.19026 0.28074 0.12829 0.0
H2145 H 0.18647 0.27406 0.11041 0.0
H2146 H 0.182 0.23212 0.10299 0.0
H2147 H 0.20506 0.22239 0.09462 0.0
H2148 H 0.22883 0.75458 0.87265 0.0
H2149 H 0.20565 0.74568 0.86376 0.0
H2150 H 0.18387 0.76636 0.89933 0.0
H2151 H 0.20699 0.77559 0.90817 0.0
H2152 H 0.183 0.729 0.87549 0.0
H2153 H 0.16584 0.78548 0.86389 0.0
H2154 H 0.18421 0.78096 0.86849 0.0
H2155 H 0.17059 0.78161 0.88229 0.0
C2156 C 0.21915 0.75709 0.87871 0.0
C2157 C 0.21974 0.76599 0.89099 0.0
C2158 C 0.20591 0.75196 0.87363 0.0
C2159 C 0.19304 0.75559 0.88075 0.0
C2160 C 0.19366 0.76369 0.89353 0.0
H2161 H 0.10889 0.74967 0.8377 0.0
H2162 H 0.12577 0.7507 0.85809 0.0
C2163 C 0.20689 0.76891 0.89857 0.0
C2164 C 0.17901 0.75187 0.87403 0.0
H2165 H 0.15047 0.76698 0.85631 0.0
C2166 C 0.17576 0.73729 0.87147 0.0
C2167 C 0.16956 0.76271 0.86887 0.0
C2168 C 0.17271 0.77858 0.8709 0.0
C2169 C 0.16358 0.73328 0.86339 0.0
C2170 C 0.15458 0.74415 0.85757 0.0
C2171 C 0.15737 0.75867 0.86084 0.0
C2172 C 0.14354 0.74101 0.84644 0.0
C2173 C 0.16065 0.71747 0.86086 0.0
C2174 C 0.14788 0.735 0.83324 0.0
C2175 C 0.13834 0.73447 0.82161 0.0
C2176 C 0.12426 0.74001 0.82291 0.0
C2177 C 0.11965 0.74529 0.83638 0.0
C2178 C 0.12927 0.74589 0.84803 0.0
H2179 H 0.165 0.71077 0.86981 0.0
H2180 H 0.14891 0.71531 0.85975 0.0
H2181 H 0.16611 0.71403 0.85076 0.0
H2182 H 0.15891 0.73147 0.83164 0.0
H2183 H 0.14222 0.73028 0.8114 0.0
H2184 H 0.22414 0.20411 0.90682 0.0
H2185 H 0.23304 0.18056 0.89891 0.0
H2186 H 0.26163 0.2015 0.86869 0.0
H2187 H 0.25306 0.22503 0.87672 0.0
H2188 H 0.22921 0.17082 0.87217 0.0
H2189 H 0.2876 0.17015 0.88381 0.0
H2190 H 0.27546 0.18295 0.89213 0.0
H2191 H 0.28267 0.18631 0.87437 0.0
C2192 C 0.23257 0.20372 0.89872 0.0
C2193 C 0.23782 0.21647 0.89233 0.0
C2194 C 0.23766 0.19024 0.89424 0.0
C2195 C 0.24814 0.18925 0.88334 0.0
C2196 C 0.25383 0.20198 0.87739 0.0
H2197 H 0.27276 0.14023 0.81317 0.0
H2198 H 0.27082 0.15612 0.83403 0.0
C2199 C 0.2488 0.21545 0.8819 0.0
C2200 C 0.25161 0.1751 0.87669 0.0
H2201 H 0.27967 0.15494 0.86384 0.0
C2202 C 0.24022 0.16711 0.87068 0.0
C2203 C 0.26597 0.17026 0.87479 0.0
C2204 C 0.2786 0.17781 0.88177 0.0
C2205 C 0.24284 0.15508 0.86188 0.0
C2206 C 0.25726 0.15082 0.85918 0.0
C2207 C 0.26863 0.15825 0.86591 0.0
C2208 C 0.26069 0.14018 0.84777 0.0
C2209 C 0.23022 0.14768 0.85469 0.0
C2210 C 0.25616 0.12575 0.84878 0.0
C2211 C 0.25721 0.11659 0.8368 0.0
C2212 C 0.26279 0.12178 0.82365 0.0
C2213 C 0.26825 0.13594 0.82307 0.0
C2214 C 0.26722 0.14503 0.83502 0.0
H2215 H 0.21991 0.15358 0.85639 0.0
H2216 H 0.23212 0.14666 0.84289 0.0
H2217 H 0.22898 0.13665 0.85919 0.0
H2218 H 0.25125 0.12177 0.85862 0.0
H2219 H 0.25299 0.10571 0.83761 0.0
H2220 H 0.77275 0.24857 0.87483 0.0
H2221 H 0.79646 0.2569 0.86686 0.0
H2222 H 0.8169 0.22938 0.89837 0.0
H2223 H 0.79322 0.2207 0.9062 0.0
H2224 H 0.82039 0.26983 0.88023 0.0
H2225 H 0.83313 0.21453 0.86027 0.0
H2226 H 0.81523 0.21963 0.86595 0.0
H2227 H 0.82898 0.216 0.87914 0.0
C2228 C 0.78227 0.2444 0.8802 0.0
C2229 C 0.7811 0.23378 0.89099 0.0
C2230 C 0.79582 0.24921 0.87566 0.0
C2231 C 0.80844 0.24355 0.88184 0.0
C2232 C 0.8073 0.23366 0.89325 0.0
H2233 H 0.89202 0.24909 0.83789 0.0
H2234 H 0.87562 0.24681 0.85855 0.0
C2235 C 0.79375 0.22874 0.89773 0.0
C2236 C 0.82264 0.24718 0.87545 0.0
H2237 H 0.84977 0.23276 0.85513 0.0
C2238 C 0.82694 0.26171 0.87492 0.0
C2239 C 0.83121 0.23654 0.86859 0.0
C2240 C 0.82691 0.22081 0.86838 0.0
C2241 C 0.83929 0.26595 0.8672 0.0
C2242 C 0.84738 0.25541 0.8597 0.0
C2243 C 0.84356 0.24081 0.86095 0.0
C2244 C 0.85844 0.2593 0.84882 0.0
C2245 C 0.84333 0.28172 0.86685 0.0
C2246 C 0.85433 0.26734 0.83667 0.0
C2247 C 0.8636 0.26859 0.82487 0.0
C2248 C 0.87716 0.26177 0.82496 0.0
C2249 C 0.88165 0.2545 0.83751 0.0
C2250 C 0.8723 0.25317 0.84931 0.0
H2251 H 0.83961 0.28736 0.87676 0.0
H2252 H 0.85519 0.28317 0.86577 0.0
H2253 H 0.83801 0.28693 0.85747 0.0
H2254 H 0.84359 0.2719 0.8359 0.0
H2255 H 0.85983 0.27431 0.81539 0.0
H2256 H 0.75191 0.88691 0.83371 0.0
H2257 H 0.75396 0.86799 0.85213 0.0
H2258 H 0.72186 0.84271 0.82982 0.0
H2259 H 0.72002 0.86133 0.81123 0.0
H2260 H 0.73495 0.85148 0.87087 0.0
H2261 H 0.75936 0.81885 0.82684 0.0
H2262 H 0.7562 0.83799 0.82515 0.0
H2263 H 0.74156 0.82543 0.82293 0.0
C2264 C 0.74501 0.8775 0.83296 0.0
C2265 C 0.73601 0.87544 0.82091 0.0
C2266 C 0.74619 0.86671 0.84348 0.0
C2267 C 0.73829 0.85385 0.84212 0.0
C2268 C 0.72825 0.85246 0.83089 0.0
H2269 H 0.74821 0.76818 0.87753 0.0
H2270 H 0.73816 0.79004 0.86675 0.0
C2271 C 0.7272 0.8631 0.82029 0.0
C2272 C 0.74187 0.8412 0.8512 0.0
H2273 H 0.75579 0.80717 0.84913 0.0
C2274 C 0.73949 0.84177 0.86616 0.0
C2275 C 0.74794 0.82862 0.84501 0.0
C2276 C 0.75156 0.82767 0.82913 0.0
C2277 C 0.74277 0.8299 0.87506 0.0
C2278 C 0.74867 0.81729 0.86879 0.0
C2279 C 0.75108 0.81679 0.85386 0.0
C2280 C 0.75304 0.80456 0.87739 0.0
C2281 C 0.73977 0.83085 0.89103 0.0
C2282 C 0.76456 0.80553 0.88717 0.0
C2283 C 0.77037 0.79304 0.89333 0.0
C2284 C 0.76482 0.77936 0.88973 0.0
C2285 C 0.7528 0.77852 0.88049 0.0
C2286 C 0.74701 0.79101 0.87434 0.0
H2287 H 0.73206 0.83968 0.89358 0.0
H2288 H 0.73534 0.8205 0.89516 0.0
H2289 H 0.75002 0.83306 0.89683 0.0
H2290 H 0.76955 0.81585 0.88945 0.0
H2291 H 0.77962 0.79407 0.90042 0.0
H2292 H 0.79766 0.78294 0.09467 0.0
H2293 H 0.82161 0.77425 0.10157 0.0
H2294 H 0.80206 0.74152 0.12831 0.0
H2295 H 0.77813 0.74995 0.12132 0.0
H2296 H 0.83093 0.77536 0.12906 0.0
H2297 H 0.83476 0.71906 0.10998 0.0
H2298 H 0.82157 0.73161 0.10296 0.0
H2299 H 0.81823 0.72209 0.1196 0.0
C2300 C 0.79844 0.77368 0.10177 0.0
C2301 C 0.78596 0.76721 0.10754 0.0
C2302 C 0.81215 0.76871 0.10566 0.0
C2303 C 0.81364 0.75712 0.1153 0.0
C2304 C 0.8012 0.75024 0.12057 0.0
H2305 H 0.86222 0.72542 0.18225 0.0
H2306 H 0.84726 0.72907 0.16099 0.0
C2307 C 0.78749 0.75518 0.11667 0.0
C2308 C 0.82793 0.75357 0.12157 0.0
H2309 H 0.84946 0.72516 0.13091 0.0
C2310 C 0.83523 0.76447 0.12915 0.0
C2311 C 0.83353 0.73937 0.12162 0.0
C2312 C 0.82668 0.72741 0.11296 0.0
C2313 C 0.84726 0.76133 0.13778 0.0
C2314 C 0.85228 0.74692 0.13862 0.0
C2315 C 0.84559 0.7362 0.13025 0.0
C2316 C 0.86278 0.7425 0.14985 0.0
C2317 C 0.85376 0.77326 0.1468 0.0
C2318 C 0.8768 0.74828 0.15034 0.0
C2319 C 0.88542 0.74629 0.16262 0.0
C2320 C 0.88011 0.73846 0.17451 0.0
C2321 C 0.86657 0.73168 0.17338 0.0
C2322 C 0.85801 0.73369 0.16118 0.0
H2323 H 0.84721 0.7833 0.14647 0.0
H2324 H 0.85482 0.7698 0.15823 0.0
H2325 H 0.86471 0.77584 0.14269 0.0
H2326 H 0.88078 0.75491 0.14157 0.0
H2327 H 0.89585 0.75156 0.16311 0.0
H2328 H 0.24629 0.7699 0.12848 0.0
H2329 H 0.25603 0.79263 0.13763 0.0
H2330 H 0.23657 0.81549 0.10204 0.0
H2331 H 0.2265 0.79283 0.09295 0.0
H2332 H 0.27381 0.81451 0.12609 0.0
H2333 H 0.21815 0.8343 0.13741 0.0
H2334 H 0.22182 0.81576 0.13277 0.0
H2335 H 0.22186 0.82944 0.11901 0.0
C2336 C 0.2442 0.77972 0.12249 0.0
C2337 C 0.23542 0.77958 0.11011 0.0
C2338 C 0.24982 0.79271 0.12771 0.0
C2339 C 0.2468 0.80576 0.12065 0.0
C2340 C 0.23878 0.80556 0.10781 0.0
H2341 H 0.25623 0.88974 0.16317 0.0
H2342 H 0.25472 0.87276 0.14292 0.0
C2343 C 0.23306 0.79259 0.10262 0.0
C2344 C 0.25115 0.81957 0.12742 0.0
H2345 H 0.23732 0.84888 0.14493 0.0
C2346 C 0.26586 0.82214 0.13005 0.0
C2347 C 0.24075 0.82955 0.1325 0.0
C2348 C 0.22475 0.82714 0.13041 0.0
C2349 C 0.2704 0.83416 0.13809 0.0
C2350 C 0.25994 0.8437 0.1438 0.0
C2351 C 0.24532 0.84157 0.14049 0.0
C2352 C 0.26355 0.8547 0.15483 0.0
C2353 C 0.28632 0.83635 0.14068 0.0
C2354 C 0.26929 0.85025 0.16811 0.0
C2355 C 0.27009 0.85986 0.17967 0.0
C2356 C 0.26511 0.87412 0.1782 0.0
C2357 C 0.26018 0.87883 0.16464 0.0
C2358 C 0.2593 0.86915 0.15306 0.0
H2359 H 0.29285 0.83161 0.13181 0.0
H2360 H 0.28903 0.84799 0.14169 0.0
H2361 H 0.28945 0.83084 0.15085 0.0
H2362 H 0.27234 0.83909 0.16984 0.0
H2363 H 0.274 0.8559 0.18996 0.0
H2364 H 0.71705 0.13768 0.18487 0.0
H2365 H 0.71887 0.15634 0.16636 0.0
H2366 H 0.74901 0.12995 0.14261 0.0
H2367 H 0.74693 0.11103 0.16094 0.0
H2368 H 0.74474 0.16921 0.16271 0.0
H2369 H 0.72565 0.14801 0.11006 0.0
H2370 H 0.72097 0.13965 0.12706 0.0
H2371 H 0.73836 0.13647 0.11904 0.0
C2372 C 0.72372 0.13566 0.17547 0.0
C2373 C 0.73196 0.12297 0.17441 0.0
C2374 C 0.72473 0.14632 0.1649 0.0
C2375 C 0.73406 0.14455 0.15309 0.0
C2376 C 0.74154 0.13146 0.15147 0.0
H2377 H 0.77944 0.20477 0.09874 0.0
H2378 H 0.76881 0.18305 0.10937 0.0
C2379 C 0.74039 0.12067 0.162 0.0
C2380 C 0.73775 0.15722 0.14405 0.0
H2381 H 0.73968 0.16975 0.1094 0.0
C2382 C 0.74344 0.16938 0.15107 0.0
C2383 C 0.73625 0.15734 0.12885 0.0
C2384 C 0.72986 0.14472 0.1208 0.0
C2385 C 0.74786 0.18158 0.14334 0.0
C2386 C 0.74636 0.18174 0.12816 0.0
C2387 C 0.7407 0.1696 0.12106 0.0
C2388 C 0.75116 0.19435 0.11964 0.0
C2389 C 0.7545 0.19406 0.15148 0.0
C2390 C 0.74441 0.20778 0.12148 0.0
C2391 C 0.7505 0.22022 0.11553 0.0
C2392 C 0.7634 0.21942 0.10757 0.0
C2393 C 0.76955 0.20578 0.1049 0.0
C2394 C 0.76347 0.19335 0.11091 0.0
H2395 H 0.75768 0.19099 0.16263 0.0
H2396 H 0.76419 0.19821 0.14575 0.0
H2397 H 0.74654 0.20298 0.15222 0.0
H2398 H 0.7348 0.20872 0.12808 0.0
H2399 H 0.74539 0.23052 0.11767 0.0
H2400 H 0.66407 0.61288 0.75076 0.0
H2401 H 0.64569 0.63178 0.74832 0.0
H2402 H 0.66818 0.65774 0.77975 0.0
H2403 H 0.68673 0.63913 0.78195 0.0
H2404 H 0.62706 0.64902 0.76684 0.0
H2405 H 0.67145 0.68044 0.74152 0.0
H2406 H 0.67292 0.66139 0.74525 0.0
H2407 H 0.67531 0.67435 0.75951 0.0
C2408 C 0.66485 0.62243 0.75745 0.0
C2409 C 0.67695 0.62467 0.76635 0.0
C2410 C 0.65436 0.63322 0.75604 0.0
C2411 C 0.65579 0.64626 0.76362 0.0
C2412 C 0.66705 0.64785 0.77361 0.0
H2413 H 0.62163 0.73202 0.75205 0.0
H2414 H 0.63188 0.71011 0.7625 0.0
C2415 C 0.67762 0.63721 0.77487 0.0
C2416 C 0.64685 0.65889 0.75967 0.0
H2417 H 0.64933 0.69251 0.74486 0.0
C2418 C 0.63188 0.65855 0.76205 0.0
C2419 C 0.65319 0.67122 0.75324 0.0
C2420 C 0.66907 0.67188 0.74958 0.0
C2421 C 0.62312 0.67043 0.75845 0.0
C2422 C 0.62955 0.68281 0.75225 0.0
C2423 C 0.64448 0.68306 0.7498 0.0
C2424 C 0.62113 0.6956 0.74769 0.0
C2425 C 0.60714 0.66977 0.76145 0.0
C2426 C 0.61146 0.69466 0.73608 0.0
C2427 C 0.60559 0.70719 0.73003 0.0
C2428 C 0.60942 0.72087 0.73544 0.0
C2429 C 0.61852 0.72168 0.74757 0.0
C2430 C 0.62435 0.70917 0.75359 0.0
H2431 H 0.60441 0.66102 0.76919 0.0
H2432 H 0.6032 0.68021 0.76584 0.0
H2433 H 0.6013 0.66764 0.7512 0.0
H2434 H 0.60904 0.68431 0.7312 0.0
H2435 H 0.59861 0.70617 0.72071 0.0
H2436 H 0.29043 0.58926 0.73268 0.0
H2437 H 0.31295 0.59727 0.74411 0.0
H2438 H 0.29825 0.64145 0.74161 0.0
H2439 H 0.27546 0.63336 0.73131 0.0
H2440 H 0.33377 0.61182 0.73556 0.0
H2441 H 0.31234 0.6427 0.78119 0.0
H2442 H 0.30085 0.63124 0.77045 0.0
H2443 H 0.30407 0.64979 0.76526 0.0
C2444 C 0.29198 0.60065 0.73486 0.0
C2445 C 0.28118 0.61069 0.73131 0.0
C2446 C 0.30483 0.60523 0.74136 0.0
C2447 C 0.30722 0.61997 0.74414 0.0
C2448 C 0.29649 0.62998 0.74026 0.0
H2449 H 0.38316 0.66801 0.73657 0.0
H2450 H 0.36489 0.64922 0.73492 0.0
C2451 C 0.2835 0.62537 0.73421 0.0
C2452 C 0.32126 0.62514 0.75003 0.0
H2453 H 0.33538 0.65146 0.77143 0.0
C2454 C 0.33414 0.62025 0.74368 0.0
C2455 C 0.32201 0.63567 0.76108 0.0
C2456 C 0.30905 0.63997 0.76998 0.0
C2457 C 0.34752 0.62649 0.74717 0.0
C2458 C 0.34793 0.63852 0.75661 0.0
C2459 C 0.33521 0.64253 0.76388 0.0
C2460 C 0.36083 0.64807 0.75798 0.0
C2461 C 0.36097 0.62008 0.74059 0.0
C2462 C 0.36468 0.65402 0.77144 0.0
C2463 C 0.37465 0.66533 0.77225 0.0
C2464 C 0.38136 0.67049 0.75971 0.0
C2465 C 0.37835 0.66392 0.74642 0.0
C2466 C 0.36797 0.65304 0.74552 0.0
H2467 H 0.35997 0.60815 0.73978 0.0
H2468 H 0.36232 0.62426 0.72944 0.0
H2469 H 0.37077 0.62266 0.74699 0.0
H2470 H 0.35941 0.65044 0.78125 0.0
H2471 H 0.37674 0.6704 0.78259 0.0
H2472 H 0.38542 0.27329 0.75661 0.0
H2473 H 0.37571 0.2959 0.76613 0.0
H2474 H 0.38891 0.31807 0.7274 0.0
H2475 H 0.39882 0.29554 0.7178 0.0
H2476 H 0.39135 0.33469 0.7553 0.0
H2477 H 0.33794 0.30922 0.74474 0.0
H2478 H 0.35012 0.29897 0.75583 0.0
H2479 H 0.35451 0.30225 0.73723 0.0
C2480 C 0.38656 0.28303 0.75023 0.0
C2481 C 0.39265 0.28256 0.73633 0.0
C2482 C 0.38103 0.29594 0.75571 0.0
C2483 C 0.38144 0.30856 0.74737 0.0
C2484 C 0.38851 0.30841 0.73399 0.0
H2485 H 0.33613 0.38987 0.74691 0.0
H2486 H 0.35538 0.37183 0.74524 0.0
C2487 C 0.3941 0.29551 0.72851 0.0
C2488 C 0.37275 0.32124 0.75164 0.0
H2489 H 0.33784 0.33227 0.75516 0.0
C2490 C 0.37965 0.33421 0.75536 0.0
C2491 C 0.35751 0.32054 0.75154 0.0
C2492 C 0.34952 0.30706 0.74702 0.0
C2493 C 0.37161 0.34651 0.75925 0.0
C2494 C 0.35635 0.34577 0.75916 0.0
C2495 C 0.34954 0.33277 0.7554 0.0
C2496 C 0.34695 0.35832 0.76237 0.0
C2497 C 0.37949 0.36008 0.76357 0.0
C2498 C 0.33602 0.35692 0.77276 0.0
C2499 C 0.3249 0.36704 0.77353 0.0
C2500 C 0.32457 0.37884 0.76401 0.0
C2501 C 0.33617 0.38093 0.75444 0.0
C2502 C 0.34722 0.37065 0.75353 0.0
H2503 H 0.3907 0.35773 0.76714 0.0
H2504 H 0.3801 0.36743 0.75413 0.0
H2505 H 0.37373 0.3658 0.77239 0.0
H2506 H 0.3356 0.3475 0.77969 0.0
H2507 H 0.31616 0.36522 0.78109 0.0
H2508 H 0.61095 0.33666 0.74328 0.0
H2509 H 0.62973 0.3551 0.74036 0.0
H2510 H 0.65414 0.33579 0.77497 0.0
H2511 H 0.63567 0.31716 0.7777 0.0
H2512 H 0.64563 0.37552 0.75828 0.0
H2513 H 0.67903 0.32982 0.73843 0.0
H2514 H 0.65982 0.32831 0.74117 0.0
H2515 H 0.67195 0.32729 0.75629 0.0
C2516 C 0.62012 0.3366 0.75053 0.0
C2517 C 0.622 0.32534 0.76054 0.0
C2518 C 0.63084 0.34713 0.74885 0.0
C2519 C 0.64344 0.34657 0.75724 0.0
C2520 C 0.6446 0.33622 0.76822 0.0
H2521 H 0.72925 0.38131 0.74863 0.0
H2522 H 0.70678 0.37146 0.75825 0.0
C2523 C 0.63403 0.3256 0.76977 0.0
C2524 C 0.65615 0.3554 0.75329 0.0
H2525 H 0.69064 0.35234 0.74074 0.0
C2526 C 0.65549 0.3705 0.75445 0.0
C2527 C 0.66892 0.34879 0.74811 0.0
C2528 C 0.66999 0.33268 0.74577 0.0
C2529 C 0.66746 0.37915 0.75087 0.0
C2530 C 0.68027 0.37247 0.74596 0.0
C2531 C 0.68084 0.3574 0.7447 0.0
C2532 C 0.69324 0.38071 0.74162 0.0
C2533 C 0.66644 0.39531 0.75256 0.0
C2534 C 0.69301 0.38942 0.72923 0.0
C2535 C 0.70587 0.39505 0.72365 0.0
C2536 C 0.71917 0.39195 0.73033 0.0
C2537 C 0.71923 0.38384 0.74316 0.0
C2538 C 0.70639 0.37824 0.74872 0.0
H2539 H 0.65712 0.39849 0.75941 0.0
H2540 H 0.67649 0.39971 0.75738 0.0
H2541 H 0.66503 0.40031 0.74176 0.0
H2542 H 0.68301 0.39124 0.72346 0.0
H2543 H 0.70544 0.40127 0.71376 0.0
H2544 H 0.66199 0.39399 0.24747 0.0
H2545 H 0.64108 0.37792 0.25001 0.0
H2546 H 0.66525 0.34332 0.23038 0.0
H2547 H 0.68601 0.35922 0.22763 0.0
H2548 H 0.63528 0.34412 0.22239 0.0
H2549 H 0.6443 0.34681 0.28187 0.0
H2550 H 0.64112 0.36354 0.27257 0.0
H2551 H 0.65739 0.35359 0.26916 0.0
C2552 C 0.66273 0.38306 0.2434 0.0
C2553 C 0.67574 0.37781 0.23758 0.0
C2554 C 0.6508 0.37389 0.24491 0.0
C2555 C 0.65174 0.35938 0.24061 0.0
C2556 C 0.66433 0.35447 0.23381 0.0
H2557 H 0.62296 0.27466 0.25101 0.0
H2558 H 0.63093 0.29795 0.24174 0.0
C2559 C 0.67622 0.36357 0.23232 0.0
C2560 C 0.64048 0.34876 0.24457 0.0
H2561 H 0.62823 0.32942 0.27339 0.0
C2562 C 0.63349 0.34106 0.23355 0.0
C2563 C 0.63817 0.34483 0.25914 0.0
C2564 C 0.64567 0.35252 0.27141 0.0
C2565 C 0.62471 0.32911 0.23671 0.0
C2566 C 0.62316 0.32461 0.25122 0.0
C2567 C 0.62944 0.33287 0.26227 0.0
C2568 C 0.61657 0.31057 0.2552 0.0
C2569 C 0.61744 0.32124 0.22444 0.0
C2570 C 0.60587 0.30988 0.2659 0.0
C2571 C 0.60142 0.29654 0.27138 0.0
C2572 C 0.60765 0.28365 0.26631 0.0
C2573 C 0.6179 0.28436 0.25514 0.0
C2574 C 0.62238 0.29769 0.24971 0.0
H2575 H 0.61522 0.32865 0.21528 0.0
H2576 H 0.62473 0.31261 0.22044 0.0
H2577 H 0.60714 0.31621 0.22794 0.0
H2578 H 0.60131 0.31968 0.27036 0.0
H2579 H 0.59345 0.29638 0.27995 0.0
H2580 H 0.72529 0.62342 0.25143 0.0
H2581 H 0.7019 0.63197 0.24283 0.0
H2582 H 0.68041 0.59969 0.26861 0.0
H2583 H 0.70379 0.59127 0.27759 0.0
H2584 H 0.67822 0.61954 0.22881 0.0
H2585 H 0.6642 0.63731 0.28454 0.0
H2586 H 0.68215 0.63157 0.2797 0.0
H2587 H 0.66812 0.61845 0.28237 0.0
C2588 C 0.71562 0.618 0.25516 0.0
C2589 C 0.7164 0.60682 0.26539 0.0
C2590 C 0.70225 0.62288 0.25019 0.0
C2591 C 0.68942 0.61665 0.2553 0.0
C2592 C 0.69018 0.60486 0.26477 0.0
H2593 H 0.60657 0.66201 0.24893 0.0
H2594 H 0.62266 0.64107 0.25097 0.0
C2595 C 0.70355 0.60003 0.26985 0.0
C2596 C 0.6754 0.62337 0.25157 0.0
H2597 H 0.64819 0.64352 0.26609 0.0
C2598 C 0.67152 0.6246 0.23697 0.0
C2599 C 0.66663 0.62991 0.26225 0.0
C2600 C 0.67048 0.62938 0.27809 0.0
C2601 C 0.65944 0.63272 0.23272 0.0
C2602 C 0.65117 0.6399 0.24334 0.0
C2603 C 0.65453 0.63795 0.25798 0.0
C2604 C 0.64042 0.65113 0.23961 0.0
C2605 C 0.65587 0.63385 0.21687 0.0
C2606 C 0.64499 0.66358 0.23231 0.0
C2607 C 0.63591 0.67554 0.23122 0.0
C2608 C 0.62207 0.6753 0.23744 0.0
C2609 C 0.61716 0.6625 0.24399 0.0
C2610 C 0.62633 0.65054 0.24517 0.0
H2611 H 0.65966 0.62417 0.21088 0.0
H2612 H 0.64408 0.63513 0.21513 0.0
H2613 H 0.66144 0.64341 0.21227 0.0
H2614 H 0.65591 0.66441 0.22821 0.0
H2615 H 0.63999 0.68521 0.22606 0.0
H2616 H 0.33601 0.61164 0.25158 0.0
H2617 H 0.35426 0.6307 0.25375 0.0
H2618 H 0.3326 0.65529 0.22069 0.0
H2619 H 0.31416 0.63653 0.21871 0.0
H2620 H 0.37337 0.6469 0.23495 0.0
H2621 H 0.32867 0.67988 0.25759 0.0
H2622 H 0.3271 0.66069 0.25475 0.0
H2623 H 0.32523 0.67296 0.23982 0.0
C2624 C 0.33537 0.62093 0.2445 0.0
C2625 C 0.32353 0.62274 0.23517 0.0
C2626 C 0.34579 0.63181 0.24576 0.0
C2627 C 0.34456 0.64452 0.23761 0.0
C2628 C 0.33356 0.64567 0.22728 0.0
H2629 H 0.3794 0.73047 0.24701 0.0
H2630 H 0.36905 0.7084 0.23697 0.0
C2631 C 0.32305 0.63494 0.22615 0.0
C2632 C 0.35351 0.65727 0.24115 0.0
H2633 H 0.35102 0.69155 0.25438 0.0
C2634 C 0.36853 0.65669 0.23917 0.0
C2635 C 0.34714 0.66994 0.24683 0.0
C2636 C 0.33118 0.67092 0.25002 0.0
C2637 C 0.37733 0.66863 0.24247 0.0
C2638 C 0.37089 0.68133 0.24797 0.0
C2639 C 0.3559 0.68184 0.24998 0.0
C2640 C 0.37935 0.69416 0.25234 0.0
C2641 C 0.39337 0.66766 0.23991 0.0
C2642 C 0.38882 0.69342 0.26414 0.0
C2643 C 0.39475 0.70603 0.26994 0.0
C2644 C 0.3912 0.71961 0.26411 0.0
C2645 C 0.38231 0.72021 0.25182 0.0
C2646 C 0.37641 0.70761 0.24603 0.0
H2647 H 0.39614 0.65872 0.23241 0.0
H2648 H 0.39761 0.67794 0.23542 0.0
H2649 H 0.3989 0.66563 0.25034 0.0
H2650 H 0.39102 0.68318 0.26934 0.0
H2651 H 0.40156 0.70517 0.27941 0.0
H2652 H 0.38738 0.33524 0.25 0.0
H2653 H 0.36808 0.35324 0.25215 0.0
H2654 H 0.34285 0.33003 0.22065 0.0
H2655 H 0.36187 0.31186 0.21871 0.0
H2656 H 0.35099 0.3714 0.23321 0.0
H2657 H 0.31949 0.327 0.25842 0.0
H2658 H 0.33861 0.32564 0.25503 0.0
H2659 H 0.32591 0.32303 0.24058 0.0
C2660 C 0.37788 0.3342 0.24325 0.0
C2661 C 0.37599 0.32202 0.23438 0.0
C2662 C 0.36687 0.34448 0.2445 0.0
C2663 C 0.35394 0.34275 0.2368 0.0
C2664 C 0.35266 0.33138 0.22689 0.0
H2665 H 0.26772 0.37652 0.24704 0.0
H2666 H 0.28975 0.36617 0.23691 0.0
C2667 C 0.36353 0.32102 0.22578 0.0
C2668 C 0.34115 0.35161 0.24042 0.0
H2669 H 0.30731 0.34901 0.25471 0.0
C2670 C 0.34141 0.36655 0.23789 0.0
C2671 C 0.32877 0.34523 0.24669 0.0
C2672 C 0.32816 0.32938 0.25048 0.0
C2673 C 0.32941 0.37525 0.24122 0.0
C2674 C 0.31699 0.36879 0.2473 0.0
C2675 C 0.3168 0.35388 0.24986 0.0
C2676 C 0.30412 0.37718 0.25167 0.0
C2677 C 0.33001 0.39121 0.23806 0.0
C2678 C 0.30494 0.38703 0.26314 0.0
C2679 C 0.29236 0.39294 0.269 0.0
C2680 C 0.27873 0.38902 0.26354 0.0
C2681 C 0.27802 0.37972 0.25156 0.0
C2682 C 0.2906 0.37383 0.24572 0.0
H2683 H 0.33877 0.39389 0.23031 0.0
H2684 H 0.31957 0.39506 0.23361 0.0
H2685 H 0.33211 0.39715 0.24825 0.0
H2686 H 0.31525 0.38955 0.26806 0.0
H2687 H 0.29329 0.40008 0.27822 0.0
H2688 H 0.74784 0.62609 0.72895 0.0
H2689 H 0.7561 0.63456 0.70541 0.0
H2690 H 0.73006 0.60215 0.68443 0.0
H2691 H 0.72139 0.59384 0.70796 0.0
H2692 H 0.76987 0.62231 0.68182 0.0
H2693 H 0.71391 0.63936 0.66792 0.0
H2694 H 0.71888 0.63372 0.68586 0.0
H2695 H 0.71616 0.62053 0.67189 0.0
C2696 C 0.74398 0.62063 0.71935 0.0
C2697 C 0.73376 0.60944 0.72032 0.0
C2698 C 0.74875 0.62547 0.70589 0.0
C2699 C 0.74347 0.61918 0.69317 0.0
C2700 C 0.73401 0.60738 0.69411 0.0
H2701 H 0.74933 0.66157 0.60868 0.0
H2702 H 0.74744 0.64148 0.62583 0.0
C2703 C 0.72911 0.60261 0.70757 0.0
C2704 C 0.74704 0.6258 0.67904 0.0
H2705 H 0.73213 0.64513 0.65145 0.0
C2706 C 0.76161 0.62713 0.67506 0.0
C2707 C 0.73623 0.63206 0.67022 0.0
C2708 C 0.72043 0.63148 0.67419 0.0
C2709 C 0.76569 0.63502 0.66278 0.0
C2710 C 0.75493 0.64182 0.65437 0.0
C2711 C 0.74034 0.63983 0.65789 0.0
C2712 C 0.75847 0.65263 0.64314 0.0
C2713 C 0.7815 0.63629 0.65909 0.0
C2714 C 0.7655 0.66543 0.64713 0.0
C2715 C 0.76649 0.67692 0.63745 0.0
C2716 C 0.76044 0.67585 0.62357 0.0
C2717 C 0.75413 0.66271 0.61929 0.0
C2718 C 0.75304 0.65123 0.62906 0.0
H2719 H 0.78773 0.62696 0.66334 0.0
H2720 H 0.78315 0.637 0.64723 0.0
H2721 H 0.78592 0.64623 0.6641 0.0
H2722 H 0.7695 0.66687 0.65803 0.0
H2723 H 0.77147 0.68687 0.64106 0.0
H2724 H 0.40679 0.72231 0.70567 0.0
H2725 H 0.39788 0.73254 0.68304 0.0
H2726 H 0.36423 0.75479 0.70629 0.0
H2727 H 0.37318 0.74485 0.72897 0.0
H2728 H 0.37151 0.72669 0.67248 0.0
H2729 H 0.37706 0.78577 0.67836 0.0
H2730 H 0.38656 0.77318 0.68983 0.0
H2731 H 0.36808 0.77791 0.6936 0.0
C2732 C 0.39766 0.72962 0.70602 0.0
C2733 C 0.39064 0.7327 0.71913 0.0
C2734 C 0.39262 0.73548 0.69307 0.0
C2735 C 0.38051 0.74458 0.69298 0.0
C2736 C 0.37381 0.7481 0.70611 0.0
H2737 H 0.31039 0.76864 0.64227 0.0
H2738 H 0.33022 0.76655 0.65941 0.0
C2739 C 0.37887 0.74229 0.71908 0.0
C2740 C 0.37371 0.74885 0.67914 0.0
H2741 H 0.35896 0.77753 0.66131 0.0
C2742 C 0.36907 0.73783 0.66983 0.0
C2743 C 0.37054 0.76339 0.67572 0.0
C2744 C 0.37596 0.77574 0.68485 0.0
C2745 C 0.36048 0.74086 0.65774 0.0
C2746 C 0.35665 0.75534 0.65476 0.0
C2747 C 0.36193 0.76644 0.66363 0.0
C2748 C 0.34568 0.75886 0.64369 0.0
C2749 C 0.3548 0.72845 0.64882 0.0
C2750 C 0.34798 0.75576 0.62904 0.0
C2751 C 0.33659 0.75688 0.61915 0.0
C2752 C 0.32277 0.76113 0.62382 0.0
C2753 C 0.32084 0.76518 0.63833 0.0
C2754 C 0.33219 0.76406 0.64815 0.0
H2755 H 0.35693 0.71782 0.65395 0.0
H2756 H 0.34299 0.72956 0.6471 0.0
H2757 H 0.36011 0.72852 0.63809 0.0
H2758 H 0.35839 0.75194 0.62536 0.0
H2759 H 0.33846 0.75378 0.60803 0.0
H2760 H 0.27672 0.40522 0.70628 0.0
H2761 H 0.26705 0.39617 0.68344 0.0
H2762 H 0.2418 0.36463 0.70662 0.0
H2763 H 0.25111 0.3738 0.72945 0.0
H2764 H 0.27179 0.36962 0.67368 0.0
H2765 H 0.21286 0.37778 0.67709 0.0
H2766 H 0.22535 0.38687 0.68899 0.0
H2767 H 0.21953 0.3687 0.69281 0.0
C2768 C 0.26888 0.39655 0.70653 0.0
C2769 C 0.26474 0.39018 0.71969 0.0
C2770 C 0.26334 0.39141 0.69347 0.0
C2771 C 0.25354 0.37985 0.69331 0.0
C2772 C 0.24903 0.37381 0.70646 0.0
H2773 H 0.22962 0.30918 0.64296 0.0
H2774 H 0.23176 0.32909 0.66004 0.0
C2775 C 0.25448 0.37899 0.71953 0.0
C2776 C 0.24951 0.37284 0.67949 0.0
H2777 H 0.22092 0.35869 0.66098 0.0
C2778 C 0.26066 0.36754 0.6707 0.0
C2779 C 0.23498 0.37014 0.6756 0.0
C2780 C 0.22251 0.37631 0.68406 0.0
C2781 C 0.25772 0.3588 0.6587 0.0
C2782 C 0.24322 0.35541 0.65531 0.0
C2783 C 0.23202 0.3613 0.66364 0.0
C2784 C 0.2397 0.34439 0.6443 0.0
C2785 C 0.27018 0.3525 0.65028 0.0
C2786 C 0.24295 0.34659 0.62966 0.0
C2787 C 0.24176 0.33518 0.61982 0.0
C2788 C 0.23734 0.32143 0.62451 0.0
C2789 C 0.23321 0.31959 0.63901 0.0
C2790 C 0.23436 0.33097 0.64879 0.0
H2791 H 0.28075 0.35454 0.65559 0.0
H2792 H 0.26879 0.34066 0.64896 0.0
H2793 H 0.27048 0.35741 0.63936 0.0
H2794 H 0.24695 0.35695 0.62598 0.0
H2795 H 0.24496 0.33697 0.60871 0.0
H2796 H 0.68946 0.21901 0.63819 0.0
H2797 H 0.67088 0.2206 0.65679 0.0
H2798 H 0.64688 0.25054 0.6304 0.0
H2799 H 0.66531 0.24874 0.61154 0.0
H2800 H 0.66665 0.2465 0.66975 0.0
H2801 H 0.61462 0.2263 0.64805 0.0
H2802 H 0.6318 0.22194 0.6399 0.0
H2803 H 0.6235 0.23917 0.63659 0.0
C2804 C 0.68002 0.22562 0.63616 0.0
C2805 C 0.6789 0.23387 0.62347 0.0
C2806 C 0.6694 0.22649 0.64679 0.0
C2807 C 0.65748 0.23566 0.64499 0.0
C2808 C 0.65584 0.24318 0.63192 0.0
H2809 H 0.601 0.2796 0.70414 0.0
H2810 H 0.61226 0.26902 0.68273 0.0
C2811 C 0.66642 0.2422 0.62118 0.0
C2812 C 0.64826 0.23911 0.65759 0.0
H2813 H 0.61346 0.24024 0.66981 0.0
C2814 C 0.65504 0.24494 0.66982 0.0
C2815 C 0.6331 0.23726 0.65757 0.0
C2816 C 0.62531 0.23071 0.64487 0.0
C2817 C 0.64711 0.2492 0.68195 0.0
C2818 C 0.63196 0.24735 0.68197 0.0
C2819 C 0.6251 0.24152 0.66977 0.0
C2820 C 0.62318 0.25204 0.69445 0.0
C2821 C 0.65498 0.25608 0.69447 0.0
C2822 C 0.62517 0.24563 0.70803 0.0
C2823 C 0.61887 0.2517 0.7203 0.0
C2824 C 0.61037 0.26424 0.71918 0.0
C2825 C 0.60757 0.27 0.70541 0.0
C2826 C 0.61394 0.26395 0.69314 0.0
H2827 H 0.66604 0.25959 0.69144 0.0
H2828 H 0.64895 0.26558 0.69859 0.0
H2829 H 0.65593 0.24813 0.70338 0.0
H2830 H 0.63212 0.2363 0.7092 0.0
H2831 H 0.62112 0.24689 0.73072 0.0
H2832 H 0.74891 0.37523 0.27312 0.0
H2833 H 0.75771 0.36751 0.29672 0.0
H2834 H 0.73187 0.40033 0.31729 0.0
H2835 H 0.72271 0.40794 0.29371 0.0
H2836 H 0.77182 0.38095 0.31991 0.0
H2837 H 0.71633 0.36307 0.33481 0.0
H2838 H 0.72103 0.36821 0.31664 0.0
H2839 H 0.71831 0.3818 0.33021 0.0
C2840 C 0.74521 0.38094 0.28263 0.0
C2841 C 0.73492 0.39204 0.28154 0.0
C2842 C 0.75029 0.37654 0.29612 0.0
C2843 C 0.74524 0.38317 0.30876 0.0
C2844 C 0.73568 0.39487 0.30767 0.0
H2845 H 0.7521 0.34019 0.39275 0.0
H2846 H 0.74995 0.36073 0.37618 0.0
C2847 C 0.73049 0.39922 0.29418 0.0
C2848 C 0.74911 0.37695 0.32298 0.0
H2849 H 0.73494 0.3575 0.35087 0.0
C2850 C 0.76374 0.37601 0.32682 0.0
C2851 C 0.73854 0.37058 0.332 0.0
C2852 C 0.72268 0.37083 0.32822 0.0
C2853 C 0.76814 0.36833 0.33912 0.0
C2854 C 0.75764 0.36129 0.34767 0.0
C2855 C 0.74296 0.36297 0.34432 0.0
C2856 C 0.76154 0.35041 0.35873 0.0
C2857 C 0.78401 0.36751 0.34265 0.0
C2858 C 0.76904 0.33795 0.3545 0.0
C2859 C 0.77021 0.32622 0.36387 0.0
C2860 C 0.76385 0.32669 0.37764 0.0
C2861 C 0.75714 0.33952 0.38222 0.0
C2862 C 0.7559 0.35125 0.37277 0.0
H2863 H 0.78985 0.37719 0.33863 0.0
H2864 H 0.78582 0.36652 0.35447 0.0
H2865 H 0.78874 0.35791 0.33728 0.0
H2866 H 0.77321 0.33691 0.34363 0.0
H2867 H 0.77549 0.31652 0.36003 0.0
H2868 H 0.59347 0.72031 0.29458 0.0
H2869 H 0.60106 0.72932 0.3182 0.0
H2870 H 0.63129 0.75811 0.29755 0.0
H2871 H 0.62362 0.74939 0.27394 0.0
H2872 H 0.62796 0.72596 0.3283 0.0
H2873 H 0.61492 0.7841 0.32846 0.0
H2874 H 0.607 0.77165 0.3157 0.0
H2875 H 0.62466 0.77915 0.31248 0.0
C2876 C 0.60152 0.72878 0.29504 0.0
C2877 C 0.60801 0.73407 0.28236 0.0
C2878 C 0.60581 0.73394 0.30856 0.0
C2879 C 0.6166 0.74453 0.30965 0.0
C2880 C 0.62268 0.75021 0.29699 0.0
H2881 H 0.6847 0.77161 0.36071 0.0
H2882 H 0.66441 0.76905 0.34419 0.0
C2883 C 0.61837 0.7451 0.28347 0.0
C2884 C 0.62293 0.74821 0.32388 0.0
H2885 H 0.63451 0.77664 0.34428 0.0
C2886 C 0.62907 0.737 0.33202 0.0
C2887 C 0.62435 0.76263 0.32872 0.0
C2888 C 0.61724 0.77504 0.32094 0.0
C2889 C 0.63753 0.73989 0.34424 0.0
C2890 C 0.63969 0.75438 0.34856 0.0
C2891 C 0.63284 0.76554 0.34093 0.0
C2892 C 0.65063 0.75815 0.35958 0.0
C2893 C 0.64491 0.72747 0.3518 0.0
C2894 C 0.64938 0.7534 0.37392 0.0
C2895 C 0.66105 0.75479 0.38344 0.0
C2896 C 0.67411 0.76095 0.37871 0.0
C2897 C 0.67487 0.76665 0.36465 0.0
C2898 C 0.66325 0.76527 0.3552 0.0
H2899 H 0.64381 0.71717 0.34576 0.0
H2900 H 0.65658 0.72979 0.35329 0.0
H2901 H 0.64004 0.72596 0.36264 0.0
H2902 H 0.63963 0.74807 0.37755 0.0
H2903 H 0.66008 0.75038 0.39422 0.0
H2904 H 0.21956 0.68762 0.36037 0.0
H2905 H 0.22086 0.66912 0.34166 0.0
H2906 H 0.25111 0.64496 0.36756 0.0
H2907 H 0.24956 0.66329 0.38653 0.0
H2908 H 0.2464 0.66499 0.3283 0.0
H2909 H 0.2269 0.61275 0.35008 0.0
H2910 H 0.22267 0.62985 0.35847 0.0
H2911 H 0.23997 0.62154 0.36138 0.0
C2912 C 0.22616 0.67816 0.36227 0.0
C2913 C 0.23457 0.67697 0.37484 0.0
C2914 C 0.22687 0.66758 0.35158 0.0
C2915 C 0.23606 0.65564 0.35321 0.0
C2916 C 0.24374 0.65393 0.36618 0.0
H2917 H 0.27997 0.60031 0.29302 0.0
H2918 H 0.26959 0.61124 0.3147 0.0
C2919 C 0.2429 0.66446 0.37699 0.0
C2920 C 0.23937 0.64649 0.34052 0.0
H2921 H 0.24068 0.61174 0.32818 0.0
C2922 C 0.24494 0.65337 0.32822 0.0
C2923 C 0.23767 0.63131 0.34051 0.0
C2924 C 0.23135 0.62342 0.35327 0.0
C2925 C 0.2491 0.64551 0.31601 0.0
C2926 C 0.24742 0.63035 0.31598 0.0
C2927 C 0.24184 0.62339 0.32824 0.0
C2928 C 0.25202 0.62167 0.30341 0.0
C2929 C 0.25567 0.65348 0.30339 0.0
C2930 C 0.24524 0.62349 0.28999 0.0
C2931 C 0.25119 0.61737 0.27757 0.0
C2932 C 0.26399 0.60925 0.27837 0.0
C2933 C 0.27016 0.60659 0.292 0.0
C2934 C 0.26422 0.61277 0.30442 0.0
H2935 H 0.259 0.66462 0.30634 0.0
H2936 H 0.26524 0.64763 0.29917 0.0
H2937 H 0.24761 0.65425 0.29457 0.0
H2938 H 0.2357 0.6302 0.28905 0.0
H2939 H 0.24606 0.6195 0.26728 0.0
H2940 H 0.31582 0.21938 0.36274 0.0
H2941 H 0.33453 0.22051 0.34423 0.0
H2942 H 0.35672 0.25345 0.36856 0.0
H2943 H 0.33818 0.25208 0.38736 0.0
H2944 H 0.33713 0.24567 0.32967 0.0
H2945 H 0.3904 0.23021 0.35226 0.0
H2946 H 0.37355 0.22533 0.36081 0.0
H2947 H 0.38076 0.24323 0.36292 0.0
C2948 C 0.32493 0.22654 0.36437 0.0
C2949 C 0.32548 0.23576 0.3764 0.0
C2950 C 0.33563 0.22715 0.3538 0.0
C2951 C 0.34702 0.23705 0.355 0.0
C2952 C 0.34818 0.24553 0.36752 0.0
H2953 H 0.40001 0.28082 0.29268 0.0
H2954 H 0.38978 0.27078 0.31486 0.0
C2955 C 0.33754 0.24479 0.37824 0.0
C2956 C 0.356 0.24024 0.34215 0.0
H2957 H 0.39061 0.24276 0.32963 0.0
C2958 C 0.34882 0.24483 0.32962 0.0
C2959 C 0.37124 0.23935 0.34218 0.0
C2960 C 0.37946 0.23414 0.35522 0.0
C2961 C 0.35642 0.24878 0.31719 0.0
C2962 C 0.37166 0.24789 0.31717 0.0
C2963 C 0.37891 0.2433 0.32967 0.0
C2964 C 0.38006 0.25234 0.30435 0.0
C2965 C 0.34809 0.25433 0.30432 0.0
C2966 C 0.37843 0.24496 0.29123 0.0
C2967 C 0.38414 0.25072 0.27851 0.0
C2968 C 0.39166 0.26391 0.27874 0.0
C2969 C 0.39418 0.2707 0.2921 0.0
C2970 C 0.3884 0.26496 0.30481 0.0
H2971 H 0.33682 0.2573 0.30719 0.0
H2972 H 0.35347 0.26394 0.29957 0.0
H2973 H 0.34764 0.2458 0.29592 0.0
H2974 H 0.37217 0.2351 0.29072 0.0
H2975 H 0.38215 0.24512 0.26844 0.0
H2976 H 0.70323 0.71908 0.5926 0.0
H2977 H 0.67975 0.72831 0.60036 0.0
H2978 H 0.70098 0.75868 0.62857 0.0
H2979 H 0.72444 0.74976 0.62068 0.0
H2980 H 0.67045 0.726 0.62748 0.0
H2981 H 0.6693 0.7836 0.61238 0.0
H2982 H 0.68203 0.77104 0.6046 0.0
H2983 H 0.6856 0.77928 0.62187 0.0
C2984 C 0.70291 0.72795 0.60021 0.0
C2985 C 0.71572 0.73362 0.6061 0.0
C2986 C 0.68947 0.73323 0.60461 0.0
C2987 C 0.68858 0.74431 0.61491 0.0
C2988 C 0.70137 0.75039 0.62033 0.0
H2989 H 0.63937 0.77301 0.68377 0.0
H2990 H 0.65537 0.76993 0.66313 0.0
C2991 C 0.7148 0.74517 0.6159 0.0
C2992 C 0.67452 0.74811 0.62155 0.0
H2993 H 0.65427 0.77676 0.63285 0.0
C2994 C 0.66668 0.73705 0.62833 0.0
C2995 C 0.66961 0.76253 0.62264 0.0
C2996 C 0.67701 0.77475 0.61484 0.0
C2997 C 0.65471 0.74013 0.63707 0.0
C2998 C 0.65035 0.75465 0.6389 0.0
C2999 C 0.65766 0.76564 0.63144 0.0
C3000 C 0.63963 0.75868 0.65004 0.0
C3001 C 0.64748 0.72791 0.64509 0.0
C3002 C 0.62527 0.7539 0.64928 0.0
C3003 C 0.61605 0.75559 0.66115 0.0
C3004 C 0.6211 0.7621 0.67391 0.0
C3005 C 0.63518 0.7678 0.67418 0.0
C3006 C 0.64433 0.76611 0.66235 0.0
H3007 H 0.65353 0.7176 0.6441 0.0
H3008 H 0.64639 0.73059 0.65673 0.0
H3009 H 0.63648 0.72621 0.64066 0.0
H3010 H 0.62139 0.7483 0.63977 0.0
H3011 H 0.60524 0.75117 0.66056 0.0
H3012 H 0.70624 0.28191 0.40619 0.0
H3013 H 0.68271 0.27265 0.39859 0.0
H3014 H 0.70369 0.24393 0.36854 0.0
H3015 H 0.72721 0.25287 0.37624 0.0
H3016 H 0.67252 0.27576 0.37177 0.0
H3017 H 0.6731 0.21767 0.38496 0.0
H3018 H 0.68574 0.23028 0.39281 0.0
H3019 H 0.68901 0.22274 0.37518 0.0
C3020 C 0.70586 0.27341 0.39817 0.0
C3021 C 0.71861 0.26819 0.39176 0.0
C3022 C 0.6924 0.26811 0.39387 0.0
C3023 C 0.69143 0.25745 0.38315 0.0
C3024 C 0.70416 0.25187 0.37711 0.0
H3025 H 0.641 0.22992 0.3149 0.0
H3026 H 0.65742 0.23269 0.33525 0.0
C3027 C 0.71762 0.25711 0.38143 0.0
C3028 C 0.67724 0.25357 0.37683 0.0
H3029 H 0.65724 0.22485 0.36527 0.0
C3030 C 0.66895 0.26466 0.37068 0.0
C3031 C 0.6726 0.23909 0.37544 0.0
C3032 C 0.68052 0.22679 0.3826 0.0
C3033 C 0.65678 0.26159 0.36222 0.0
C3034 C 0.65267 0.24704 0.36006 0.0
C3035 C 0.66044 0.23599 0.36694 0.0
C3036 C 0.64176 0.24312 0.34908 0.0
C3037 C 0.64903 0.27389 0.35484 0.0
C3038 C 0.62731 0.24753 0.35034 0.0
C3039 C 0.61785 0.24601 0.33865 0.0
C3040 C 0.62274 0.24007 0.32555 0.0
C3041 C 0.63693 0.23471 0.32476 0.0
C3042 C 0.64633 0.23621 0.33642 0.0
H3043 H 0.65486 0.28431 0.35602 0.0
H3044 H 0.64768 0.27159 0.34315 0.0
H3045 H 0.63812 0.27516 0.35962 0.0
H3046 H 0.62355 0.25272 0.36012 0.0
H3047 H 0.60696 0.25016 0.33962 0.0
H3048 H 0.74532 0.60985 0.33578 0.0
H3049 H 0.74331 0.62858 0.35441 0.0
H3050 H 0.77637 0.65344 0.33304 0.0
H3051 H 0.77817 0.63502 0.31425 0.0
H3052 H 0.76236 0.64475 0.3737 0.0
H3053 H 0.73914 0.67779 0.32934 0.0
H3054 H 0.74203 0.65861 0.32768 0.0
H3055 H 0.75689 0.67094 0.32568 0.0
C3056 C 0.75245 0.61912 0.3353 0.0
C3057 C 0.76171 0.62114 0.32345 0.0
C3058 C 0.75128 0.6298 0.34593 0.0
C3059 C 0.75948 0.6425 0.34489 0.0
C3060 C 0.76978 0.64381 0.33387 0.0
H3061 H 0.75118 0.7283 0.37975 0.0
H3062 H 0.76086 0.70603 0.36953 0.0
C3063 C 0.7708 0.63329 0.32316 0.0
C3064 C 0.75592 0.65516 0.35394 0.0
H3065 H 0.74269 0.68945 0.35166 0.0
C3066 C 0.75807 0.65454 0.36894 0.0
C3067 C 0.75014 0.66784 0.34766 0.0
C3068 C 0.74677 0.66885 0.33174 0.0
C3069 C 0.75489 0.66648 0.37778 0.0
C3070 C 0.74935 0.6792 0.37142 0.0
C3071 C 0.74712 0.67973 0.35647 0.0
C3072 C 0.74526 0.69209 0.37992 0.0
C3073 C 0.75763 0.6655 0.3938 0.0
C3074 C 0.73348 0.69158 0.38941 0.0
C3075 C 0.72787 0.70432 0.39527 0.0
C3076 C 0.7339 0.71778 0.39161 0.0
C3077 C 0.74621 0.71814 0.38273 0.0
C3078 C 0.7518 0.70542 0.3769 0.0
H3079 H 0.76492 0.65638 0.39652 0.0
H3080 H 0.76244 0.67569 0.39791 0.0
H3081 H 0.74722 0.66378 0.39947 0.0
H3082 H 0.72812 0.68143 0.39167 0.0
H3083 H 0.7184 0.70365 0.40208 0.0
H3084 H 0.26976 0.75343 0.38017 0.0
H3085 H 0.29209 0.76321 0.37005 0.0
H3086 H 0.31601 0.72748 0.38784 0.0
H3087 H 0.29379 0.71768 0.39821 0.0
H3088 H 0.33091 0.75543 0.38862 0.0
H3089 H 0.30856 0.74088 0.33481 0.0
H3090 H 0.29729 0.75243 0.34555 0.0
H3091 H 0.30087 0.7343 0.35144 0.0
C3092 C 0.2798 0.74776 0.38216 0.0
C3093 C 0.27995 0.73464 0.38979 0.0
C3094 C 0.29254 0.75338 0.37637 0.0
C3095 C 0.30562 0.74593 0.37803 0.0
C3096 C 0.306 0.73336 0.38644 0.0
H3097 H 0.38884 0.74677 0.33618 0.0
H3098 H 0.36995 0.74495 0.3546 0.0
C3099 C 0.29327 0.72775 0.3923 0.0
C3100 C 0.31848 0.75031 0.36964 0.0
H3101 H 0.33103 0.7526 0.33514 0.0
C3102 C 0.33097 0.75489 0.37692 0.0
C3103 C 0.31852 0.74942 0.35441 0.0
C3104 C 0.30566 0.74388 0.34605 0.0
C3105 C 0.34348 0.75888 0.36927 0.0
C3106 C 0.34346 0.75803 0.35403 0.0
C3107 C 0.33096 0.75341 0.34682 0.0
C3108 C 0.3563 0.76137 0.34508 0.0
C3109 C 0.35651 0.7641 0.37751 0.0
C3110 C 0.35506 0.77142 0.33382 0.0
C3111 C 0.36569 0.7723 0.3232 0.0
C3112 C 0.37781 0.7632 0.32368 0.0
C3113 C 0.37964 0.75397 0.33559 0.0
C3114 C 0.36888 0.75297 0.34616 0.0
H3115 H 0.35355 0.7679 0.3885 0.0
H3116 H 0.36428 0.75506 0.37869 0.0
H3117 H 0.36201 0.77301 0.37167 0.0
H3118 H 0.34544 0.778 0.33278 0.0
H3119 H 0.36404 0.7796 0.31421 0.0
H3120 H 0.25301 0.27243 0.37434 0.0
H3121 H 0.244 0.29572 0.36589 0.0
H3122 H 0.2706 0.31757 0.39723 0.0
H3123 H 0.27995 0.29432 0.40556 0.0
H3124 H 0.23019 0.31943 0.37888 0.0
H3125 H 0.28509 0.33366 0.35888 0.0
H3126 H 0.28053 0.31568 0.36479 0.0
H3127 H 0.28377 0.3297 0.37781 0.0
C3128 C 0.25683 0.28216 0.37957 0.0
C3129 C 0.26738 0.28152 0.39047 0.0
C3130 C 0.25163 0.29547 0.37475 0.0
C3131 C 0.25683 0.30837 0.38075 0.0
C3132 C 0.26668 0.30774 0.39225 0.0
H3133 H 0.24905 0.39204 0.33748 0.0
H3134 H 0.25183 0.37526 0.35774 0.0
C3135 C 0.27198 0.29444 0.39701 0.0
C3136 C 0.25277 0.32235 0.37414 0.0
H3137 H 0.26643 0.34986 0.35381 0.0
C3138 C 0.23812 0.3262 0.37355 0.0
C3139 C 0.26316 0.33119 0.36725 0.0
C3140 C 0.27901 0.32735 0.36707 0.0
C3141 C 0.23353 0.33842 0.36584 0.0
C3142 C 0.24385 0.34685 0.35838 0.0
C3143 C 0.25855 0.34342 0.35961 0.0
C3144 C 0.23967 0.35801 0.34772 0.0
C3145 C 0.21766 0.34202 0.36549 0.0
C3146 C 0.23165 0.35399 0.33552 0.0
C3147 C 0.2301 0.36349 0.32394 0.0
C3148 C 0.23661 0.3772 0.32429 0.0
C3149 C 0.24389 0.38156 0.33689 0.0
C3150 C 0.24549 0.37199 0.34847 0.0
H3151 H 0.21209 0.33803 0.37534 0.0
H3152 H 0.21588 0.35384 0.36455 0.0
H3153 H 0.21262 0.33667 0.35603 0.0
H3154 H 0.22733 0.34316 0.33455 0.0
H3155 H 0.22438 0.3598 0.31443 0.0
H3156 H 0.35378 0.24413 0.6927 0.0
H3157 H 0.33711 0.24395 0.67254 0.0
H3158 H 0.37177 0.23235 0.64364 0.0
H3159 H 0.38886 0.23322 0.66393 0.0
H3160 H 0.35633 0.25199 0.63155 0.0
H3161 H 0.31789 0.21204 0.65208 0.0
H3162 H 0.31999 0.22545 0.66581 0.0
H3163 H 0.33531 0.21463 0.66042 0.0
C3164 C 0.35789 0.24135 0.6821 0.0
C3165 C 0.37264 0.23857 0.67994 0.0
C3166 C 0.34828 0.2411 0.67057 0.0
C3167 C 0.35304 0.23765 0.65661 0.0
C3168 C 0.36779 0.23484 0.65435 0.0
H3169 H 0.27476 0.24269 0.6044 0.0
H3170 H 0.29737 0.23177 0.61275 0.0
C3171 C 0.37754 0.23535 0.66593 0.0
C3172 C 0.34262 0.23824 0.64442 0.0
H3173 H 0.30724 0.23141 0.63719 0.0
C3174 C 0.3457 0.24717 0.63257 0.0
C3175 C 0.32893 0.2315 0.64527 0.0
C3176 C 0.32546 0.22023 0.65651 0.0
C3177 C 0.33499 0.25072 0.62244 0.0
C3178 C 0.32067 0.24578 0.62464 0.0
C3179 C 0.31805 0.23564 0.63562 0.0
C3180 C 0.30804 0.25217 0.61701 0.0
C3181 C 0.33917 0.25992 0.60966 0.0
C3182 C 0.30652 0.26726 0.61626 0.0
C3183 C 0.29383 0.27346 0.61105 0.0
C3184 C 0.28213 0.26472 0.60702 0.0
C3185 C 0.28364 0.24965 0.60749 0.0
C3186 C 0.29655 0.24343 0.61227 0.0
H3187 H 0.3502 0.25709 0.60589 0.0
H3188 H 0.33154 0.25861 0.60051 0.0
H3189 H 0.33941 0.27143 0.61297 0.0
H3190 H 0.31486 0.27433 0.62038 0.0
H3191 H 0.29286 0.28511 0.611 0.0
H3192 H 0.75564 0.26793 0.61889 0.0
H3193 H 0.76572 0.29019 0.62887 0.0
H3194 H 0.73094 0.31463 0.60993 0.0
H3195 H 0.72084 0.29248 0.59972 0.0
H3196 H 0.75934 0.32878 0.60942 0.0
H3197 H 0.74303 0.30792 0.66334 0.0
H3198 H 0.75449 0.29616 0.65302 0.0
H3199 H 0.73657 0.30009 0.64671 0.0
C3200 C 0.75025 0.27806 0.61662 0.0
C3201 C 0.7373 0.27839 0.6087 0.0
C3202 C 0.75603 0.29076 0.62233 0.0
C3203 C 0.74893 0.30398 0.6203 0.0
C3204 C 0.73655 0.30451 0.61162 0.0
H3205 H 0.75012 0.38809 0.65993 0.0
H3206 H 0.74877 0.36877 0.64194 0.0
C3207 C 0.73077 0.29182 0.60586 0.0
C3208 C 0.75346 0.3169 0.62852 0.0
H3209 H 0.7551 0.33018 0.66279 0.0
C3210 C 0.75851 0.32912 0.6211 0.0
C3211 C 0.75219 0.3173 0.64372 0.0
C3212 C 0.74617 0.30474 0.65221 0.0
C3213 C 0.76256 0.34171 0.62857 0.0
C3214 C 0.76128 0.34207 0.64378 0.0
C3215 C 0.75623 0.32982 0.65113 0.0
C3216 C 0.76451 0.35509 0.65251 0.0
C3217 C 0.76828 0.35442 0.62017 0.0
C3218 C 0.77405 0.35399 0.66423 0.0
C3219 C 0.77465 0.36487 0.67461 0.0
C3220 C 0.76578 0.37712 0.67342 0.0
C3221 C 0.75714 0.3788 0.66107 0.0
C3222 C 0.75641 0.36779 0.65074 0.0
H3223 H 0.7725 0.35108 0.60945 0.0
H3224 H 0.7594 0.36225 0.61836 0.0
H3225 H 0.77702 0.36 0.6262 0.0
H3226 H 0.7804 0.34429 0.6658 0.0
H3227 H 0.7815 0.36333 0.68397 0.0
H3228 H 0.21849 0.62932 0.67601 0.0
H3229 H 0.22012 0.64692 0.65648 0.0
H3230 H 0.25892 0.62632 0.64104 0.0
H3231 H 0.25713 0.6084 0.66041 0.0
H3232 H 0.24415 0.66409 0.65775 0.0
H3233 H 0.2396 0.63944 0.60332 0.0
H3234 H 0.23263 0.63082 0.61939 0.0
H3235 H 0.25161 0.6302 0.61543 0.0
C3236 C 0.22706 0.62821 0.66812 0.0
C3237 C 0.23778 0.61761 0.6698 0.0
C3238 C 0.22796 0.63826 0.65696 0.0
C3239 C 0.23965 0.63796 0.64733 0.0
C3240 C 0.24967 0.62661 0.6482 0.0
H3241 H 0.28483 0.70314 0.59928 0.0
H3242 H 0.27517 0.68031 0.60837 0.0
C3243 C 0.24867 0.6164 0.6593 0.0
C3244 C 0.24286 0.65097 0.63859 0.0
H3245 H 0.24949 0.6633 0.60447 0.0
C3246 C 0.2451 0.66395 0.64607 0.0
C3247 C 0.24435 0.65068 0.62341 0.0
C3248 C 0.24181 0.63707 0.61487 0.0
C3249 C 0.24904 0.67661 0.63886 0.0
C3250 C 0.25047 0.6764 0.62366 0.0
C3251 C 0.24822 0.66344 0.61611 0.0
C3252 C 0.255 0.6895 0.61572 0.0
C3253 C 0.25215 0.68998 0.64767 0.0
C3254 C 0.2466 0.70209 0.61631 0.0
C3255 C 0.25215 0.71519 0.61131 0.0
C3256 C 0.26614 0.71587 0.60546 0.0
C3257 C 0.27406 0.70301 0.60383 0.0
C3258 C 0.26854 0.68993 0.60896 0.0
H3259 H 0.25386 0.68742 0.65927 0.0
H3260 H 0.26187 0.69567 0.64356 0.0
H3261 H 0.24283 0.69748 0.64691 0.0
H3262 H 0.23601 0.70191 0.62128 0.0
H3263 H 0.24569 0.72486 0.61253 0.0
H3264 H 0.20572 0.3637 0.24799 0.0
H3265 H 0.18181 0.35475 0.24179 0.0
H3266 H 0.16232 0.38961 0.26574 0.0
H3267 H 0.18646 0.39874 0.27198 0.0
H3268 H 0.15331 0.36239 0.2746 0.0
H3269 H 0.14858 0.36643 0.21544 0.0
H3270 H 0.16588 0.35927 0.22036 0.0
H3271 H 0.1611 0.37736 0.2257 0.0
C3272 C 0.19636 0.36971 0.25161 0.0
C3273 C 0.19794 0.38189 0.2605 0.0
C3274 C 0.18268 0.36465 0.24796 0.0
C3275 C 0.17027 0.37161 0.25315 0.0
C3276 C 0.17177 0.38418 0.26149 0.0
H3277 H 0.1002 0.31288 0.22869 0.0
H3278 H 0.10945 0.33697 0.23491 0.0
C3279 C 0.18554 0.3894 0.26501 0.0
C3280 C 0.15613 0.36429 0.25157 0.0
H3281 H 0.13682 0.34542 0.22657 0.0
C3282 C 0.14936 0.35906 0.26409 0.0
C3283 C 0.15076 0.36015 0.23789 0.0
C3284 C 0.15689 0.36625 0.2241 0.0
C3285 C 0.13852 0.34851 0.26326 0.0
C3286 C 0.13451 0.343 0.24961 0.0
C3287 C 0.14005 0.34948 0.23707 0.0
C3288 C 0.12698 0.32895 0.24811 0.0
C3289 C 0.1321 0.34273 0.27705 0.0
C3290 C 0.1336 0.31652 0.25368 0.0
C3291 C 0.12846 0.30286 0.25006 0.0
C3292 C 0.11655 0.30133 0.24081 0.0
C3293 C 0.10933 0.31376 0.23594 0.0
C3294 C 0.11462 0.32751 0.23945 0.0
H3295 H 0.13185 0.3512 0.28554 0.0
H3296 H 0.12097 0.33861 0.27533 0.0
H3297 H 0.13891 0.33374 0.2811 0.0
H3298 H 0.14334 0.31733 0.26011 0.0
H3299 H 0.13425 0.29347 0.25396 0.0
H3300 H 0.68486 0.10137 0.22992 0.0
H3301 H 0.66154 0.11215 0.23659 0.0
H3302 H 0.68382 0.14742 0.25727 0.0
H3303 H 0.70696 0.13677 0.25078 0.0
H3304 H 0.65831 0.13782 0.27206 0.0
H3305 H 0.64952 0.14873 0.21347 0.0
H3306 H 0.65234 0.13039 0.21924 0.0
H3307 H 0.66689 0.14314 0.22028 0.0
C3308 C 0.68475 0.11121 0.23624 0.0
C3309 C 0.69771 0.11834 0.23969 0.0
C3310 C 0.67143 0.11739 0.23995 0.0
C3311 C 0.67098 0.13069 0.24721 0.0
C3312 C 0.68393 0.13716 0.25164 0.0
H3313 H 0.63829 0.21072 0.25084 0.0
H3314 H 0.64752 0.18683 0.24492 0.0
C3315 C 0.69716 0.13108 0.24788 0.0
C3316 C 0.65741 0.13896 0.2489 0.0
H3317 H 0.63586 0.16207 0.22993 0.0
C3318 C 0.65302 0.1428 0.26287 0.0
C3319 C 0.65063 0.14545 0.23684 0.0
C3320 C 0.65504 0.14183 0.22158 0.0
C3321 C 0.64289 0.15385 0.26514 0.0
C3322 C 0.63696 0.16111 0.25309 0.0
C3323 C 0.64042 0.15642 0.23911 0.0
C3324 C 0.62974 0.17528 0.25474 0.0
C3325 C 0.63962 0.15856 0.28039 0.0
C3326 C 0.61638 0.17671 0.26175 0.0
C3327 C 0.61101 0.19046 0.26512 0.0
C3328 C 0.61902 0.20288 0.2616 0.0
C3329 C 0.63192 0.20136 0.25379 0.0
C3330 C 0.6372 0.1877 0.25036 0.0
H3331 H 0.64599 0.15245 0.28852 0.0
H3332 H 0.64195 0.17025 0.2817 0.0
H3333 H 0.62798 0.15687 0.28269 0.0
H3334 H 0.61041 0.16723 0.26509 0.0
H3335 H 0.60104 0.19131 0.27116 0.0
H3336 H 0.78845 0.63485 0.24589 0.0
H3337 H 0.81199 0.6447 0.2395 0.0
H3338 H 0.83293 0.61045 0.26309 0.0
H3339 H 0.80922 0.6004 0.26947 0.0
H3340 H 0.84035 0.63842 0.27228 0.0
H3341 H 0.84595 0.6342 0.21311 0.0
H3342 H 0.82832 0.64048 0.21809 0.0
H3343 H 0.83401 0.62265 0.22337 0.0
C3344 C 0.79806 0.62915 0.24935 0.0
C3345 C 0.79702 0.61689 0.2582 0.0
C3346 C 0.81152 0.63474 0.24561 0.0
C3347 C 0.82422 0.62823 0.2507 0.0
C3348 C 0.82326 0.61553 0.25893 0.0
H3349 H 0.89531 0.6874 0.22869 0.0
H3350 H 0.88539 0.66348 0.23463 0.0
C3351 C 0.80972 0.60979 0.26252 0.0
C3352 C 0.83805 0.63613 0.24923 0.0
H3353 H 0.85738 0.65517 0.22436 0.0
C3354 C 0.84441 0.64172 0.2618 0.0
C3355 C 0.84349 0.64029 0.2356 0.0
C3356 C 0.83767 0.63396 0.22178 0.0
C3357 C 0.85501 0.65252 0.26104 0.0
C3358 C 0.85923 0.65786 0.2474 0.0
C3359 C 0.85401 0.65117 0.23484 0.0
C3360 C 0.86674 0.67189 0.24589 0.0
C3361 C 0.86093 0.65877 0.27486 0.0
C3362 C 0.85963 0.68446 0.25043 0.0
C3363 C 0.86513 0.69802 0.24692 0.0
C3364 C 0.87791 0.69928 0.23888 0.0
C3365 C 0.88551 0.68671 0.23503 0.0
C3366 C 0.87985 0.67307 0.23836 0.0
H3367 H 0.86058 0.65072 0.28375 0.0
H3368 H 0.87223 0.66252 0.27343 0.0
H3369 H 0.85423 0.66814 0.27813 0.0
H3370 H 0.84937 0.6838 0.25601 0.0
H3371 H 0.85904 0.70752 0.25 0.0
H3372 H 0.36477 0.79173 0.24717 0.0
H3373 H 0.35424 0.81521 0.24179 0.0
H3374 H 0.38766 0.83609 0.26662 0.0
H3375 H 0.39837 0.81242 0.27202 0.0
H3376 H 0.35967 0.84258 0.27581 0.0
H3377 H 0.36381 0.85035 0.21691 0.0
H3378 H 0.3578 0.83243 0.22113 0.0
H3379 H 0.37552 0.83819 0.22673 0.0
C3380 C 0.37015 0.80134 0.25112 0.0
C3381 C 0.38236 0.80026 0.26003 0.0
C3382 C 0.36417 0.81478 0.24796 0.0
C3383 C 0.37024 0.82742 0.25368 0.0
C3384 C 0.3829 0.82647 0.26198 0.0
H3385 H 0.30982 0.89707 0.23216 0.0
H3386 H 0.33379 0.88758 0.23827 0.0
C3387 C 0.38903 0.81296 0.265 0.0
C3388 C 0.36197 0.84108 0.25269 0.0
H3389 H 0.34246 0.86075 0.22847 0.0
C3390 C 0.35624 0.84689 0.26547 0.0
C3391 C 0.35766 0.84687 0.23925 0.0
C3392 C 0.36416 0.84172 0.22524 0.0
C3393 C 0.34521 0.85728 0.26507 0.0
C3394 C 0.33973 0.86181 0.25156 0.0
C3395 C 0.34653 0.85713 0.23884 0.0
C3396 C 0.32564 0.86928 0.25027 0.0
C3397 C 0.33901 0.86273 0.27909 0.0
C3398 C 0.31314 0.86231 0.25525 0.0
C3399 C 0.29951 0.86762 0.25171 0.0
C3400 C 0.29808 0.88002 0.24311 0.0
C3401 C 0.31058 0.88754 0.23889 0.0
C3402 C 0.32428 0.88212 0.24233 0.0
H3403 H 0.34728 0.86263 0.28778 0.0
H3404 H 0.3347 0.87385 0.27794 0.0
H3405 H 0.33007 0.85551 0.28251 0.0
H3406 H 0.3139 0.85222 0.26113 0.0
H3407 H 0.29008 0.86158 0.2551 0.0
H3408 H 0.1039 0.69454 0.76728 0.0
H3409 H 0.11444 0.67102 0.76101 0.0
H3410 H 0.15023 0.69257 0.74048 0.0
H3411 H 0.13986 0.71596 0.74666 0.0
H3412 H 0.13933 0.66661 0.72574 0.0
H3413 H 0.15163 0.65909 0.78424 0.0
H3414 H 0.13328 0.66265 0.77887 0.0
H3415 H 0.14669 0.6765 0.77703 0.0
C3416 C 0.11381 0.69424 0.76109 0.0
C3417 C 0.12114 0.70708 0.75758 0.0
C3418 C 0.11985 0.68081 0.7576 0.0
C3419 C 0.13319 0.6801 0.75046 0.0
C3420 C 0.13993 0.6929 0.74601 0.0
H3421 H 0.21169 0.64292 0.74368 0.0
H3422 H 0.18882 0.65424 0.75009 0.0
C3423 C 0.134 0.70627 0.74958 0.0
C3424 C 0.14115 0.66633 0.74888 0.0
H3425 H 0.16383 0.64429 0.76782 0.0
C3426 C 0.14436 0.66138 0.73494 0.0
C3427 C 0.14773 0.65965 0.76094 0.0
C3428 C 0.14477 0.6647 0.77615 0.0
C3429 C 0.15475 0.65058 0.73267 0.0
C3430 C 0.16206 0.64463 0.74468 0.0
C3431 C 0.15811 0.64884 0.75867 0.0
C3432 C 0.17562 0.63641 0.74278 0.0
C3433 C 0.15873 0.64647 0.71742 0.0
C3434 C 0.17577 0.62239 0.73703 0.0
C3435 C 0.18893 0.61579 0.73345 0.0
C3436 C 0.20201 0.62325 0.73544 0.0
C3437 C 0.20178 0.63694 0.74195 0.0
C3438 C 0.18872 0.64342 0.74564 0.0
H3439 H 0.15242 0.65258 0.70925 0.0
H3440 H 0.1704 0.64847 0.71555 0.0
H3441 H 0.15674 0.63477 0.71577 0.0
H3442 H 0.16574 0.6168 0.73482 0.0
H3443 H 0.1888 0.60525 0.72839 0.0
H3444 H 0.36387 0.20964 0.7554 0.0
H3445 H 0.35356 0.18598 0.76042 0.0
H3446 H 0.38568 0.16601 0.73327 0.0
H3447 H 0.39613 0.18984 0.72816 0.0
H3448 H 0.35769 0.15955 0.7252 0.0
H3449 H 0.36401 0.15018 0.78365 0.0
H3450 H 0.35755 0.16811 0.78025 0.0
H3451 H 0.37514 0.16285 0.77382 0.0
C3452 C 0.36902 0.20019 0.75082 0.0
C3453 C 0.38077 0.20159 0.74135 0.0
C3454 C 0.36317 0.18664 0.75379 0.0
C3455 C 0.36894 0.1742 0.74734 0.0
C3456 C 0.38116 0.17546 0.73846 0.0
H3457 H 0.30994 0.10295 0.76843 0.0
H3458 H 0.33363 0.1131 0.76215 0.0
C3459 C 0.38714 0.18906 0.73559 0.0
C3460 C 0.36075 0.16048 0.74826 0.0
H3461 H 0.34232 0.13989 0.77257 0.0
C3462 C 0.35466 0.15493 0.73553 0.0
C3463 C 0.35697 0.15427 0.76168 0.0
C3464 C 0.3639 0.15908 0.7756 0.0
C3465 C 0.3438 0.14438 0.73602 0.0
C3466 C 0.33883 0.13941 0.74956 0.0
C3467 C 0.34598 0.14384 0.76218 0.0
C3468 C 0.32488 0.13173 0.7511 0.0
C3469 C 0.3372 0.13922 0.72206 0.0
C3470 C 0.31216 0.1387 0.74674 0.0
C3471 C 0.29871 0.13303 0.75039 0.0
C3472 C 0.29769 0.12023 0.75846 0.0
C3473 C 0.3104 0.11277 0.7621 0.0
C3474 C 0.32393 0.11857 0.75857 0.0
H3475 H 0.34516 0.13971 0.7131 0.0
H3476 H 0.33311 0.12799 0.72304 0.0
H3477 H 0.32802 0.14637 0.71917 0.0
H3478 H 0.31261 0.14902 0.74125 0.0
H3479 H 0.28911 0.13903 0.74746 0.0
H3480 H 0.81209 0.39941 0.72862 0.0
H3481 H 0.83554 0.38881 0.73514 0.0
H3482 H 0.81364 0.35364 0.75641 0.0
H3483 H 0.79038 0.36412 0.75005 0.0
H3484 H 0.83937 0.36348 0.77078 0.0
H3485 H 0.84729 0.35199 0.71218 0.0
H3486 H 0.84448 0.37038 0.7178 0.0
H3487 H 0.83 0.35758 0.71919 0.0
C3488 C 0.81232 0.38965 0.73505 0.0
C3489 C 0.79943 0.38249 0.73869 0.0
C3490 C 0.8257 0.38356 0.73867 0.0
C3491 C 0.82629 0.37033 0.74605 0.0
C3492 C 0.81342 0.36385 0.75068 0.0
H3493 H 0.85929 0.29044 0.75017 0.0
H3494 H 0.84985 0.31423 0.74415 0.0
C3495 C 0.80012 0.36983 0.74701 0.0
C3496 C 0.83992 0.36211 0.74762 0.0
H3497 H 0.86125 0.33886 0.72856 0.0
C3498 C 0.84453 0.35843 0.76156 0.0
C3499 C 0.84653 0.35551 0.73552 0.0
C3500 C 0.84186 0.35896 0.7203 0.0
C3501 C 0.85474 0.34744 0.76379 0.0
C3502 C 0.86052 0.34007 0.75172 0.0
C3503 C 0.85681 0.3446 0.73776 0.0
C3504 C 0.86781 0.32595 0.75342 0.0
C3505 C 0.85828 0.3429 0.77903 0.0
C3506 C 0.88133 0.32465 0.76014 0.0
C3507 C 0.88683 0.31096 0.76356 0.0
C3508 C 0.87878 0.29847 0.76037 0.0
C3509 C 0.86569 0.29985 0.75285 0.0
C3510 C 0.8603 0.31345 0.74937 0.0
H3511 H 0.85207 0.34912 0.7872 0.0
H3512 H 0.85595 0.33124 0.78051 0.0
H3513 H 0.86996 0.34459 0.7811 0.0
H3514 H 0.88735 0.33419 0.76323 0.0
H3515 H 0.89694 0.3102 0.76938 0.0
H3516 H 0.7085 0.86376 0.74361 0.0
H3517 H 0.68468 0.85471 0.73716 0.0
H3518 H 0.66481 0.88965 0.76067 0.0
H3519 H 0.68882 0.89887 0.76717 0.0
H3520 H 0.65604 0.86253 0.76982 0.0
H3521 H 0.65142 0.86575 0.71058 0.0
H3522 H 0.66871 0.8587 0.71569 0.0
H3523 H 0.66387 0.87686 0.72072 0.0
C3524 C 0.69908 0.86979 0.74705 0.0
C3525 C 0.70051 0.88199 0.75593 0.0
C3526 C 0.68545 0.86466 0.74326 0.0
C3527 C 0.67295 0.87159 0.7483 0.0
C3528 C 0.67432 0.88424 0.75654 0.0
H3529 H 0.60178 0.81322 0.72532 0.0
H3530 H 0.61168 0.8372 0.731 0.0
C3531 C 0.68803 0.88951 0.76021 0.0
C3532 C 0.65887 0.86415 0.74677 0.0
H3533 H 0.6395 0.84502 0.72201 0.0
C3534 C 0.65209 0.85908 0.75935 0.0
C3535 C 0.65352 0.85983 0.73314 0.0
C3536 C 0.65969 0.86572 0.71928 0.0
C3537 C 0.64121 0.84856 0.75865 0.0
C3538 C 0.63715 0.84293 0.74507 0.0
C3539 C 0.64275 0.8492 0.73245 0.0
C3540 C 0.62943 0.82898 0.74376 0.0
C3541 C 0.63479 0.84293 0.77251 0.0
C3542 C 0.636 0.81649 0.74925 0.0
C3543 C 0.6305 0.80289 0.74591 0.0
C3544 C 0.61828 0.80149 0.73707 0.0
C3545 C 0.61116 0.81401 0.73227 0.0
C3546 C 0.61681 0.82769 0.73546 0.0
H3547 H 0.63482 0.8514 0.78101 0.0
H3548 H 0.62356 0.83907 0.77088 0.0
H3549 H 0.64142 0.83377 0.77648 0.0
H3550 H 0.64592 0.81719 0.75541 0.0
H3551 H 0.63622 0.79343 0.74975 0.0
H3552 H 0.27047 0.18872 0.39749 0.0
H3553 H 0.2647 0.16498 0.38709 0.0
H3554 H 0.24422 0.18588 0.35088 0.0
H3555 H 0.24984 0.20943 0.36113 0.0
H3556 H 0.22983 0.1602 0.36103 0.0
H3557 H 0.28875 0.15266 0.35105 0.0
H3558 H 0.28269 0.15593 0.36922 0.0
H3559 H 0.2814 0.17001 0.35598 0.0
C3560 C 0.26437 0.18821 0.38752 0.0
C3561 C 0.26072 0.20091 0.38003 0.0
C3562 C 0.26119 0.17466 0.38156 0.0
C3563 C 0.25424 0.17371 0.36812 0.0
C3564 C 0.24962 0.18638 0.36124 0.0
H3565 H 0.25202 0.13775 0.28913 0.0
H3566 H 0.25798 0.14796 0.31262 0.0
C3567 C 0.25287 0.19984 0.36711 0.0
C3568 C 0.25302 0.15988 0.36018 0.0
H3569 H 0.27282 0.13805 0.33804 0.0
C3570 C 0.23921 0.155 0.35633 0.0
C3571 C 0.26532 0.15322 0.35404 0.0
C3572 C 0.28042 0.15818 0.35767 0.0
C3573 C 0.23733 0.14443 0.34563 0.0
C3574 C 0.24962 0.13853 0.33874 0.0
C3575 C 0.26345 0.14257 0.34342 0.0
C3576 C 0.24829 0.13061 0.32491 0.0
C3577 C 0.22221 0.1406 0.34089 0.0
C3578 C 0.24144 0.11711 0.32403 0.0
C3579 C 0.23804 0.11119 0.31052 0.0
C3580 C 0.2414 0.11875 0.29778 0.0
C3581 C 0.2492 0.13171 0.29875 0.0
C3582 C 0.25265 0.13755 0.31218 0.0
H3583 H 0.21388 0.14713 0.34653 0.0
H3584 H 0.22103 0.14226 0.32908 0.0
H3585 H 0.22012 0.12903 0.3432 0.0
H3586 H 0.23814 0.11152 0.33375 0.0
H3587 H 0.23201 0.10118 0.31009 0.0
H3588 H 0.89765 0.22568 0.31084 0.0
H3589 H 0.88742 0.23249 0.3344 0.0
H3590 H 0.85176 0.25324 0.31282 0.0
H3591 H 0.86182 0.24655 0.28947 0.0
H3592 H 0.86299 0.2684 0.33799 0.0
H3593 H 0.85022 0.21034 0.3477 0.0
H3594 H 0.86858 0.2155 0.3439 0.0
H3595 H 0.85516 0.21679 0.33 0.0
C3596 C 0.88783 0.23201 0.31116 0.0
C3597 C 0.88044 0.23547 0.29835 0.0
C3598 C 0.88197 0.23581 0.3246 0.0
C3599 C 0.86875 0.24321 0.32532 0.0
C3600 C 0.86196 0.24752 0.3125 0.0
H3601 H 0.78988 0.25077 0.36009 0.0
H3602 H 0.81321 0.24372 0.3502 0.0
C3603 C 0.86771 0.24365 0.29916 0.0
C3604 C 0.86095 0.24531 0.3391 0.0
H3605 H 0.83766 0.22743 0.36138 0.0
C3606 C 0.8578 0.25946 0.34349 0.0
C3607 C 0.85417 0.23357 0.34615 0.0
C3608 C 0.8571 0.21816 0.34175 0.0
C3609 C 0.84715 0.26224 0.35391 0.0
C3610 C 0.83956 0.25053 0.36012 0.0
C3611 C 0.84356 0.23635 0.35662 0.0
C3612 C 0.82568 0.25284 0.36772 0.0
C3613 C 0.84317 0.27769 0.35723 0.0
C3614 C 0.82495 0.25983 0.38115 0.0
C3615 C 0.81153 0.26384 0.3869 0.0
C3616 C 0.79874 0.26099 0.3792 0.0
C3617 C 0.79954 0.2532 0.36622 0.0
C3618 C 0.81287 0.24913 0.36057 0.0
H3619 H 0.8495 0.28553 0.35071 0.0
H3620 H 0.83151 0.27949 0.35511 0.0
H3621 H 0.84517 0.27993 0.36882 0.0
H3622 H 0.83474 0.26267 0.38688 0.0
H3623 H 0.81123 0.26985 0.39693 0.0
H3624 H 0.77066 0.89821 0.31372 0.0
H3625 H 0.76369 0.8879 0.33719 0.0
H3626 H 0.74604 0.85066 0.31552 0.0
H3627 H 0.75289 0.8608 0.29225 0.0
H3628 H 0.72922 0.86159 0.33996 0.0
H3629 H 0.7875 0.85215 0.35195 0.0
H3630 H 0.78147 0.8701 0.3475 0.0
H3631 H 0.78144 0.85632 0.3339 0.0
C3632 C 0.76498 0.888 0.31399 0.0
C3633 C 0.76244 0.88023 0.30118 0.0
C3634 C 0.76109 0.8821 0.32738 0.0
C3635 C 0.75451 0.86846 0.32806 0.0
C3636 C 0.75111 0.8612 0.31522 0.0
H3637 H 0.74959 0.78981 0.3632 0.0
H3638 H 0.7559 0.81342 0.35347 0.0
C3639 C 0.75508 0.86699 0.30193 0.0
C3640 C 0.75233 0.86078 0.3419 0.0
H3641 H 0.77061 0.83876 0.36512 0.0
C3642 C 0.73822 0.85695 0.34584 0.0
C3643 C 0.76415 0.85474 0.34945 0.0
C3644 C 0.77953 0.85844 0.34555 0.0
C3645 C 0.73564 0.84631 0.35632 0.0
C3646 C 0.7475 0.83942 0.36303 0.0
C3647 C 0.76157 0.84414 0.35997 0.0
C3648 C 0.74566 0.82549 0.37065 0.0
C3649 C 0.72031 0.84156 0.35917 0.0
C3650 C 0.73828 0.82447 0.38385 0.0
C3651 C 0.7347 0.81089 0.38951 0.0
C3652 C 0.73836 0.79824 0.38194 0.0
C3653 C 0.74653 0.79936 0.36922 0.0
C3654 C 0.75019 0.81285 0.36367 0.0
H3655 H 0.71237 0.84746 0.35238 0.0
H3656 H 0.71918 0.82982 0.35706 0.0
H3657 H 0.7176 0.84348 0.37068 0.0
H3658 H 0.7348 0.83413 0.38944 0.0
H3659 H 0.72838 0.81033 0.39933 0.0
H3660 H 0.20762 0.75501 0.3654 0.0
H3661 H 0.18406 0.76128 0.35559 0.0
H3662 H 0.16335 0.73524 0.38818 0.0
H3663 H 0.18711 0.72893 0.39816 0.0
H3664 H 0.15645 0.72717 0.36023 0.0
H3665 H 0.14917 0.78594 0.36597 0.0
H3666 H 0.16703 0.7819 0.35969 0.0
H3667 H 0.16141 0.77577 0.37728 0.0
C3668 C 0.19804 0.75099 0.37078 0.0
C3669 C 0.19918 0.74145 0.3825 0.0
C3670 C 0.18455 0.75467 0.36523 0.0
C3671 C 0.17192 0.74885 0.37124 0.0
C3672 C 0.17296 0.73997 0.38349 0.0
H3673 H 0.10303 0.77119 0.30979 0.0
H3674 H 0.1119 0.76501 0.33405 0.0
C3675 C 0.18652 0.73642 0.3892 0.0
C3676 C 0.1582 0.75021 0.36311 0.0
H3677 H 0.13901 0.77511 0.34398 0.0
C3678 C 0.15228 0.73764 0.35705 0.0
C3679 C 0.15257 0.76381 0.35911 0.0
C3680 C 0.15779 0.7776 0.366 0.0
C3681 C 0.14205 0.73843 0.3459 0.0
C3682 C 0.13777 0.75211 0.34067 0.0
C3683 C 0.14244 0.76461 0.34786 0.0
C3684 C 0.13088 0.75378 0.32634 0.0
C3685 C 0.13659 0.72463 0.3392 0.0
C3686 C 0.13851 0.74935 0.31404 0.0
C3687 C 0.1336 0.75298 0.30029 0.0
C3688 C 0.1209 0.76107 0.29856 0.0
C3689 C 0.11279 0.76483 0.31083 0.0
C3690 C 0.11785 0.76136 0.32467 0.0
H3691 H 0.13659 0.71568 0.34718 0.0
H3692 H 0.1255 0.72599 0.33484 0.0
H3693 H 0.14385 0.7215 0.3302 0.0
H3694 H 0.14873 0.74375 0.31507 0.0
H3695 H 0.14007 0.74995 0.29103 0.0
H3696 H 0.26992 0.80882 0.60138 0.0
H3697 H 0.26367 0.83237 0.6119 0.0
H3698 H 0.24016 0.8109 0.64587 0.0
H3699 H 0.24629 0.78752 0.63551 0.0
H3700 H 0.22702 0.83738 0.63501 0.0
H3701 H 0.28503 0.84295 0.65033 0.0
H3702 H 0.28046 0.84016 0.63164 0.0
H3703 H 0.27767 0.8259 0.64444 0.0
C3704 C 0.26309 0.80917 0.61086 0.0
C3705 C 0.25872 0.79634 0.61773 0.0
C3706 C 0.2596 0.82261 0.61689 0.0
C3707 C 0.25163 0.82333 0.62976 0.0
C3708 C 0.24635 0.81057 0.63594 0.0
H3709 H 0.2425 0.85655 0.70916 0.0
H3710 H 0.24937 0.84644 0.68587 0.0
C3711 C 0.24989 0.7972 0.63003 0.0
C3712 C 0.25005 0.83697 0.63794 0.0
H3713 H 0.26838 0.85753 0.66243 0.0
C3714 C 0.23609 0.84217 0.64067 0.0
C3715 C 0.26194 0.84309 0.64534 0.0
C3716 C 0.27715 0.83778 0.6429 0.0
C3717 C 0.23357 0.85255 0.65143 0.0
C3718 C 0.24535 0.85783 0.65959 0.0
C3719 C 0.25942 0.85349 0.65607 0.0
C3720 C 0.24299 0.86522 0.67355 0.0
C3721 C 0.21825 0.85686 0.65489 0.0
C3722 C 0.23756 0.87935 0.67435 0.0
C3723 C 0.2337 0.88524 0.68776 0.0
C3724 C 0.23509 0.87698 0.70043 0.0
C3725 C 0.24121 0.86314 0.69958 0.0
C3726 C 0.24518 0.85736 0.68628 0.0
H3727 H 0.21027 0.85137 0.64781 0.0
H3728 H 0.21573 0.85419 0.6663 0.0
H3729 H 0.21701 0.8687 0.65356 0.0
H3730 H 0.23587 0.88559 0.66461 0.0
H3731 H 0.22895 0.89593 0.68811 0.0
H3732 H 0.18927 0.26914 0.60196 0.0
H3733 H 0.1656 0.26355 0.61258 0.0
H3734 H 0.18664 0.24058 0.64719 0.0
H3735 H 0.21012 0.24598 0.63667 0.0
H3736 H 0.16042 0.22755 0.63734 0.0
H3737 H 0.15472 0.28623 0.64966 0.0
H3738 H 0.1572 0.28083 0.63117 0.0
H3739 H 0.17168 0.27865 0.64384 0.0
C3740 C 0.18879 0.26257 0.61161 0.0
C3741 C 0.20154 0.25814 0.61859 0.0
C3742 C 0.17529 0.25947 0.61771 0.0
C3743 C 0.17441 0.25186 0.63079 0.0
C3744 C 0.18708 0.2465 0.63711 0.0
H3745 H 0.14053 0.24832 0.71051 0.0
H3746 H 0.15038 0.25424 0.68687 0.0
C3747 C 0.20051 0.24964 0.6311 0.0
C3748 C 0.16073 0.2507 0.63901 0.0
H3749 H 0.13994 0.27023 0.66235 0.0
C3750 C 0.15558 0.23689 0.64249 0.0
C3751 C 0.15453 0.26294 0.64573 0.0
C3752 C 0.15978 0.27803 0.64252 0.0
C3753 C 0.14523 0.23489 0.65339 0.0
C3754 C 0.13983 0.24707 0.66086 0.0
C3755 C 0.14409 0.26095 0.65654 0.0
C3756 C 0.13233 0.24548 0.67489 0.0
C3757 C 0.14111 0.21973 0.6577 0.0
C3758 C 0.11863 0.23909 0.67601 0.0
C3759 C 0.11291 0.23572 0.68962 0.0
C3760 C 0.12089 0.23862 0.70221 0.0
C3761 C 0.13417 0.24585 0.70101 0.0
C3762 C 0.1398 0.24928 0.6875 0.0
H3763 H 0.14717 0.21143 0.65152 0.0
H3764 H 0.14317 0.21806 0.66939 0.0
H3765 H 0.1294 0.21806 0.65578 0.0
H3766 H 0.11264 0.23622 0.66639 0.0
H3767 H 0.10265 0.23014 0.69023 0.0
H3768 H 0.74737 0.135 0.70468 0.0
H3769 H 0.74175 0.144 0.68065 0.0
H3770 H 0.76586 0.10897 0.66167 0.0
H3771 H 0.77155 0.09981 0.68592 0.0
H3772 H 0.77514 0.13598 0.65281 0.0
H3773 H 0.71606 0.13267 0.64687 0.0
H3774 H 0.72067 0.13987 0.66423 0.0
H3775 H 0.7259 0.12169 0.65966 0.0
C3776 C 0.75114 0.12896 0.6954 0.0
C3777 C 0.75993 0.11674 0.69717 0.0
C3778 C 0.74782 0.13405 0.68164 0.0
C3779 C 0.75324 0.12706 0.66934 0.0
C3780 C 0.76145 0.11443 0.67102 0.0
H3781 H 0.73055 0.18588 0.59888 0.0
H3782 H 0.73648 0.16176 0.6082 0.0
C3783 C 0.76464 0.10919 0.68486 0.0
C3784 C 0.75203 0.1344 0.65517 0.0
H3785 H 0.72769 0.15353 0.63531 0.0
C3786 C 0.76476 0.13944 0.64864 0.0
C3787 C 0.73853 0.1387 0.64952 0.0
C3788 C 0.72453 0.1328 0.65536 0.0
C3789 C 0.76429 0.14995 0.63774 0.0
C3790 C 0.7508 0.15564 0.63344 0.0
C3791 C 0.73807 0.14935 0.63876 0.0
C3792 C 0.74964 0.16966 0.62581 0.0
C3793 C 0.77829 0.1555 0.63156 0.0
C3794 C 0.75532 0.18205 0.63243 0.0
C3795 C 0.75188 0.19574 0.62723 0.0
C3796 C 0.74269 0.19734 0.61529 0.0
C3797 C 0.73777 0.18494 0.60804 0.0
C3798 C 0.7411 0.17118 0.61337 0.0
H3799 H 0.78663 0.14688 0.63146 0.0
H3800 H 0.77684 0.15964 0.62041 0.0
H3801 H 0.78239 0.16441 0.63845 0.0
H3802 H 0.76165 0.18119 0.64223 0.0
H3803 H 0.75582 0.20509 0.63305 0.0
H3804 H 0.78758 0.75997 0.62615 0.0
H3805 H 0.80987 0.76729 0.63824 0.0
H3806 H 0.83026 0.72773 0.62431 0.0
H3807 H 0.80831 0.72105 0.61128 0.0
H3808 H 0.81807 0.75383 0.66007 0.0
H3809 H 0.86455 0.75285 0.62288 0.0
H3810 H 0.84617 0.75281 0.61643 0.0
H3811 H 0.85479 0.7362 0.62179 0.0
C3812 C 0.79707 0.75322 0.62513 0.0
C3813 C 0.79634 0.74003 0.61777 0.0
C3814 C 0.80979 0.75733 0.63209 0.0
C3815 C 0.82184 0.74808 0.63226 0.0
C3816 C 0.82135 0.73529 0.62409 0.0
H3817 H 0.86977 0.73998 0.71083 0.0
H3818 H 0.85638 0.73502 0.68862 0.0
C3819 C 0.80875 0.73141 0.61669 0.0
C3820 C 0.83356 0.75048 0.64299 0.0
H3821 H 0.87011 0.74937 0.64831 0.0
C3822 C 0.82943 0.75309 0.65735 0.0
C3823 C 0.84846 0.74958 0.6396 0.0
C3824 C 0.85373 0.74786 0.62429 0.0
C3825 C 0.83963 0.75452 0.66838 0.0
C3826 C 0.85444 0.75259 0.66518 0.0
C3827 C 0.85872 0.75045 0.6508 0.0
C3828 C 0.86544 0.75304 0.67682 0.0
C3829 C 0.83435 0.75826 0.68337 0.0
C3830 C 0.87596 0.76396 0.67704 0.0
C3831 C 0.88398 0.7665 0.68961 0.0
C3832 C 0.88138 0.75828 0.70208 0.0
C3833 C 0.87188 0.74651 0.70136 0.0
C3834 C 0.86417 0.74375 0.68872 0.0
H3835 H 0.82359 0.76355 0.68306 0.0
H3836 H 0.83328 0.74821 0.6898 0.0
H3837 H 0.84201 0.76557 0.68899 0.0
H3838 H 0.87718 0.77119 0.66793 0.0
H3839 H 0.8912 0.7757 0.68996 0.0
H3840 H 0.29132 0.25029 0.13823 0.0
H3841 H 0.31529 0.25638 0.14714 0.0
H3842 H 0.33458 0.2341 0.11109 0.0
H3843 H 0.3104 0.22798 0.102 0.0
H3844 H 0.34409 0.22442 0.13815 0.0
H3845 H 0.34787 0.28379 0.13533 0.0
H3846 H 0.33081 0.27825 0.14264 0.0
H3847 H 0.3354 0.27354 0.12433 0.0
C3848 C 0.30064 0.24701 0.13197 0.0
C3849 C 0.299 0.23864 0.11944 0.0
C3850 C 0.31435 0.25058 0.13703 0.0
C3851 C 0.32672 0.24584 0.12969 0.0
C3852 C 0.32515 0.238 0.11681 0.0
H3853 H 0.39886 0.27027 0.18588 0.0
H3854 H 0.38859 0.26407 0.16221 0.0
C3855 C 0.31136 0.23455 0.11162 0.0
C3856 C 0.34098 0.24745 0.13677 0.0
H3857 H 0.36068 0.27233 0.15538 0.0
C3858 C 0.34804 0.23491 0.14155 0.0
C3859 C 0.3463 0.26111 0.141 0.0
C3860 C 0.33977 0.27493 0.13541 0.0
C3861 C 0.35926 0.23568 0.1517 0.0
C3862 C 0.36337 0.24928 0.15727 0.0
C3863 C 0.35741 0.26186 0.15127 0.0
C3864 C 0.37158 0.25064 0.17093 0.0
C3865 C 0.36604 0.22186 0.15701 0.0
C3866 C 0.36561 0.2449 0.18362 0.0
C3867 C 0.37133 0.24851 0.19706 0.0
C3868 C 0.38317 0.25792 0.19809 0.0
C3869 C 0.3898 0.26289 0.18537 0.0
C3870 C 0.38393 0.2594 0.17187 0.0
H3871 H 0.36593 0.21347 0.14844 0.0
H3872 H 0.37734 0.22362 0.1606 0.0
H3873 H 0.3597 0.21767 0.16627 0.0
H3874 H 0.3559 0.23839 0.18321 0.0
H3875 H 0.366 0.24454 0.20668 0.0
H3876 H 0.36209 0.747 0.79014 0.0
H3877 H 0.35238 0.75432 0.81348 0.0
H3878 H 0.38723 0.73229 0.83511 0.0
H3879 H 0.39721 0.72506 0.81157 0.0
H3880 H 0.35831 0.7236 0.84323 0.0
H3881 H 0.36485 0.78287 0.84571 0.0
H3882 H 0.35861 0.77686 0.82837 0.0
H3883 H 0.37619 0.77147 0.83464 0.0
C3884 C 0.36791 0.74403 0.79985 0.0
C3885 C 0.38038 0.73546 0.79907 0.0
C3886 C 0.3624 0.74829 0.81318 0.0
C3887 C 0.36917 0.74397 0.82601 0.0
C3888 C 0.38196 0.73587 0.8253 0.0
H3889 H 0.31237 0.77161 0.89705 0.0
H3890 H 0.33579 0.76412 0.88698 0.0
C3891 C 0.38765 0.73179 0.81188 0.0
C3892 C 0.36159 0.74639 0.83986 0.0
H3893 H 0.34398 0.77297 0.85825 0.0
C3894 C 0.35554 0.73438 0.84686 0.0
C3895 C 0.35811 0.76043 0.84469 0.0
C3896 C 0.3649 0.77365 0.83805 0.0
C3897 C 0.34493 0.73612 0.85754 0.0
C3898 C 0.3403 0.75019 0.86122 0.0
C3899 C 0.34746 0.76217 0.85533 0.0
C3900 C 0.32649 0.75269 0.86886 0.0
C3901 C 0.33812 0.72291 0.86416 0.0
C3902 C 0.31358 0.74859 0.86209 0.0
C3903 C 0.30032 0.75299 0.86765 0.0
C3904 C 0.29969 0.76149 0.88018 0.0
C3905 C 0.31257 0.76494 0.88745 0.0
C3906 C 0.32592 0.76072 0.8817 0.0
H3907 H 0.34567 0.71359 0.864 0.0
H3908 H 0.33471 0.72499 0.87547 0.0
H3909 H 0.32842 0.71988 0.8578 0.0
H3910 H 0.31379 0.74263 0.85202 0.0
H3911 H 0.29057 0.75019 0.86183 0.0
H3912 H 0.25535 0.28967 0.86265 0.0
H3913 H 0.26085 0.31356 0.85316 0.0
H3914 H 0.23691 0.33313 0.88797 0.0
H3915 H 0.23137 0.30905 0.89764 0.0
H3916 H 0.22741 0.34118 0.8605 0.0
H3917 H 0.28649 0.34778 0.86416 0.0
H3918 H 0.28185 0.33027 0.85731 0.0
H3919 H 0.27663 0.3352 0.87538 0.0
C3920 C 0.2516 0.29905 0.86854 0.0
C3921 C 0.2429 0.2975 0.88086 0.0
C3922 C 0.25484 0.31273 0.86315 0.0
C3923 C 0.24942 0.32514 0.86994 0.0
C3924 C 0.24131 0.32368 0.88267 0.0
H3925 H 0.27071 0.3975 0.81244 0.0
H3926 H 0.26486 0.38712 0.83616 0.0
C3927 C 0.2382 0.30994 0.88819 0.0
C3928 C 0.25052 0.33919 0.86237 0.0
H3929 H 0.27479 0.35951 0.84359 0.0
C3930 C 0.23776 0.34551 0.85716 0.0
C3931 C 0.264 0.34501 0.85819 0.0
C3932 C 0.27801 0.33929 0.86419 0.0
C3933 C 0.23819 0.35646 0.8467 0.0
C3934 C 0.25168 0.36106 0.84127 0.0
C3935 C 0.26442 0.35585 0.84762 0.0
C3936 C 0.25288 0.36905 0.82746 0.0
C3937 C 0.22417 0.3624 0.84093 0.0
C3938 C 0.24785 0.36248 0.81478 0.0
C3939 C 0.25128 0.36826 0.80132 0.0
C3940 C 0.25976 0.38078 0.80026 0.0
C3941 C 0.26403 0.38791 0.81296 0.0
C3942 C 0.26075 0.38198 0.8265 0.0
H3943 H 0.21555 0.36194 0.84926 0.0
H3944 H 0.22542 0.37374 0.83725 0.0
H3945 H 0.22061 0.35575 0.83162 0.0
H3946 H 0.24203 0.35235 0.81524 0.0
H3947 H 0.24787 0.36252 0.79171 0.0
H3948 H 0.63589 0.2494 0.79146 0.0
H3949 H 0.64589 0.24371 0.8151 0.0
H3950 H 0.61199 0.26822 0.83556 0.0
H3951 H 0.60179 0.27392 0.81171 0.0
H3952 H 0.64011 0.2771 0.84294 0.0
H3953 H 0.63492 0.21812 0.84946 0.0
H3954 H 0.64134 0.22267 0.83176 0.0
H3955 H 0.62359 0.22836 0.8373 0.0
C3956 C 0.6303 0.25324 0.801 0.0
C3957 C 0.61808 0.26212 0.79976 0.0
C3958 C 0.63598 0.2499 0.81452 0.0
C3959 C 0.6296 0.25541 0.8271 0.0
C3960 C 0.61698 0.26374 0.82598 0.0
H3961 H 0.68829 0.23178 0.89761 0.0
H3962 H 0.66453 0.23846 0.88789 0.0
C3963 C 0.61114 0.26694 0.81238 0.0
C3964 C 0.63748 0.25406 0.84096 0.0
H3965 H 0.65612 0.22917 0.86064 0.0
C3966 C 0.64326 0.26664 0.84714 0.0
C3967 C 0.64143 0.24045 0.84661 0.0
C3968 C 0.63486 0.22664 0.84102 0.0
C3969 C 0.65403 0.26586 0.85778 0.0
C3970 C 0.65919 0.25219 0.86219 0.0
C3971 C 0.6523 0.23967 0.85713 0.0
C3972 C 0.67315 0.25054 0.86985 0.0
C3973 C 0.66036 0.27968 0.86361 0.0
C3974 C 0.68582 0.25535 0.86309 0.0
C3975 C 0.69932 0.25147 0.86852 0.0
C3976 C 0.70042 0.24271 0.88084 0.0
C3977 C 0.68776 0.23865 0.88816 0.0
C3978 C 0.67419 0.24241 0.88261 0.0
H3979 H 0.65225 0.28852 0.86348 0.0
H3980 H 0.6644 0.27827 0.87481 0.0
H3981 H 0.66952 0.28306 0.85666 0.0
H3982 H 0.68531 0.26136 0.85307 0.0
H3983 H 0.70888 0.25474 0.86263 0.0
H3984 H 0.75425 0.63634 0.79338 0.0
H3985 H 0.7605 0.64548 0.81722 0.0
H3986 H 0.73689 0.61056 0.83702 0.0
H3987 H 0.73057 0.60127 0.81299 0.0
H3988 H 0.72765 0.63767 0.84567 0.0
H3989 H 0.78687 0.63451 0.85068 0.0
H3990 H 0.78185 0.64157 0.83336 0.0
H3991 H 0.77682 0.6234 0.83816 0.0
C3992 C 0.75075 0.63034 0.80279 0.0
C3993 C 0.74189 0.61812 0.80133 0.0
C3994 C 0.75442 0.63552 0.81644 0.0
C3995 C 0.74929 0.62862 0.82891 0.0
C3996 C 0.74108 0.61595 0.82752 0.0
H3997 H 0.77224 0.68684 0.90009 0.0
H3998 H 0.76634 0.66288 0.89028 0.0
C3999 C 0.73752 0.61064 0.8138 0.0
C4000 C 0.75072 0.63608 0.843 0.0
H4001 H 0.77534 0.65516 0.86259 0.0
C4002 C 0.73809 0.64113 0.8497 0.0
C4003 C 0.76431 0.6404 0.84844 0.0
C4004 C 0.77822 0.63454 0.84236 0.0
C4005 C 0.7387 0.65161 0.86062 0.0
C4006 C 0.75226 0.65723 0.86479 0.0
C4007 C 0.76492 0.651 0.85925 0.0
C4008 C 0.75352 0.67115 0.87258 0.0
C4009 C 0.7248 0.6572 0.86696 0.0
C4010 C 0.74804 0.68367 0.86605 0.0
C4011 C 0.75149 0.69725 0.87151 0.0
C4012 C 0.76045 0.69861 0.88365 0.0
C4013 C 0.76519 0.68608 0.89079 0.0
C4014 C 0.76187 0.67241 0.88518 0.0
H4015 H 0.71633 0.6487 0.8669 0.0
H4016 H 0.72636 0.66106 0.87821 0.0
H4017 H 0.72083 0.66634 0.86032 0.0
H4018 H 0.74184 0.68299 0.85616 0.0
H4019 H 0.74772 0.70673 0.86578 0.0
H4020 H 0.71375 0.74709 0.13908 0.0
H4021 H 0.69017 0.74103 0.14902 0.0
H4022 H 0.66941 0.76511 0.115 0.0
H4023 H 0.69315 0.77122 0.10488 0.0
H4024 H 0.66182 0.77406 0.14283 0.0
H4025 H 0.6562 0.71491 0.13825 0.0
H4026 H 0.67371 0.71983 0.1449 0.0
H4027 H 0.66838 0.72519 0.12698 0.0
C4028 C 0.70417 0.75076 0.13346 0.0
C4029 C 0.70529 0.75966 0.12123 0.0
C4030 C 0.69068 0.74721 0.1391 0.0
C4031 C 0.67802 0.7525 0.13268 0.0
C4032 C 0.67905 0.76081 0.12004 0.0
H4033 H 0.60537 0.72959 0.18941 0.0
H4034 H 0.61629 0.73576 0.16602 0.0
C4035 C 0.6926 0.76424 0.11425 0.0
C4036 C 0.66415 0.75102 0.1405 0.0
H4037 H 0.64428 0.7261 0.15893 0.0
C4038 C 0.65768 0.76358 0.14601 0.0
C4039 C 0.6586 0.73738 0.14449 0.0
C4040 C 0.6645 0.72357 0.13821 0.0
C4041 C 0.64678 0.76279 0.1565 0.0
C4042 C 0.64237 0.74913 0.16166 0.0
C4043 C 0.64779 0.73659 0.15509 0.0
C4044 C 0.63419 0.74755 0.17531 0.0
C4045 C 0.64064 0.7766 0.16255 0.0
C4046 C 0.6405 0.75235 0.18822 0.0
C4047 C 0.63441 0.74874 0.20149 0.0
C4048 C 0.62183 0.7403 0.20214 0.0
C4049 C 0.615 0.73622 0.18921 0.0
C4050 C 0.62124 0.73968 0.17587 0.0
H4051 H 0.64115 0.78545 0.15447 0.0
H4052 H 0.62926 0.77515 0.16603 0.0
H4053 H 0.64712 0.77995 0.17205 0.0
H4054 H 0.65064 0.75819 0.18806 0.0
H4055 H 0.63992 0.75202 0.21128 0.0
H4056 H 0.24594 0.63328 0.20618 0.0
H4057 H 0.23961 0.64302 0.1826 0.0
H4058 H 0.26569 0.61044 0.16194 0.0
H4059 H 0.27202 0.6005 0.18572 0.0
H4060 H 0.27347 0.63881 0.15499 0.0
H4061 H 0.21477 0.63176 0.14786 0.0
H4062 H 0.21888 0.63805 0.16571 0.0
H4063 H 0.22528 0.6206 0.15997 0.0
C4064 C 0.24997 0.6279 0.19661 0.0
C4065 C 0.25949 0.61617 0.19776 0.0
C4066 C 0.24626 0.63341 0.18311 0.0
C4067 C 0.25205 0.62737 0.17049 0.0
C4068 C 0.26098 0.61515 0.17155 0.0
H4069 H 0.2285 0.68753 0.10084 0.0
H4070 H 0.23526 0.66355 0.11005 0.0
C4071 C 0.26454 0.60947 0.18512 0.0
C4072 C 0.25052 0.63538 0.15673 0.0
H4073 H 0.22516 0.65373 0.13737 0.0
C4074 C 0.26294 0.6417 0.15078 0.0
C4075 C 0.23682 0.63901 0.15108 0.0
C4076 C 0.2232 0.63186 0.1564 0.0
C4077 C 0.26188 0.65274 0.14045 0.0
C4078 C 0.24808 0.65758 0.13611 0.0
C4079 C 0.23575 0.65014 0.14084 0.0
C4080 C 0.24606 0.67178 0.12905 0.0
C4081 C 0.27551 0.65976 0.13498 0.0
C4082 C 0.25005 0.68428 0.1366 0.0
C4083 C 0.24608 0.69786 0.1315 0.0
C4084 C 0.2381 0.69923 0.11869 0.0
C4085 C 0.23477 0.68677 0.11068 0.0
C4086 C 0.23858 0.6731 0.11593 0.0
H4087 H 0.2847 0.65206 0.13514 0.0
H4088 H 0.27409 0.66391 0.12382 0.0
H4089 H 0.27832 0.66897 0.1421 0.0
H4090 H 0.25557 0.68351 0.14689 0.0
H4091 H 0.24878 0.70728 0.1379 0.0
H4092 H 0.73131 0.39794 0.18917 0.0
H4093 H 0.7373 0.38826 0.16519 0.0
H4094 H 0.756 0.35057 0.18515 0.0
H4095 H 0.75018 0.36012 0.20894 0.0
H4096 H 0.77158 0.36142 0.16049 0.0
H4097 H 0.71272 0.35358 0.15035 0.0
H4098 H 0.71921 0.37138 0.15467 0.0
H4099 H 0.71954 0.35751 0.16817 0.0
C4100 C 0.73702 0.38776 0.18842 0.0
C4101 C 0.74014 0.3797 0.20091 0.0
C4102 C 0.74035 0.38222 0.17473 0.0
C4103 C 0.7469 0.36861 0.17342 0.0
C4104 C 0.75092 0.36108 0.18592 0.0
H4105 H 0.74805 0.29112 0.13532 0.0
H4106 H 0.74252 0.31457 0.14583 0.0
C4107 C 0.74754 0.36654 0.19952 0.0
C4108 C 0.74841 0.36126 0.1593 0.0
H4109 H 0.72882 0.34061 0.13589 0.0
C4110 C 0.76228 0.35722 0.15476 0.0
C4111 C 0.73619 0.35578 0.15194 0.0
C4112 C 0.72104 0.35968 0.15648 0.0
C4113 C 0.76424 0.34689 0.14385 0.0
C4114 C 0.75199 0.34057 0.13726 0.0
C4115 C 0.73816 0.34554 0.14094 0.0
C4116 C 0.75319 0.32688 0.12908 0.0
C4117 C 0.77935 0.34184 0.14039 0.0
C4118 C 0.7605 0.32605 0.11582 0.0
C4119 C 0.76364 0.31256 0.10971 0.0
C4120 C 0.75959 0.29979 0.11688 0.0
C4121 C 0.7514 0.30076 0.1296 0.0
C4122 C 0.7482 0.31417 0.1356 0.0
H4123 H 0.78761 0.3471 0.14731 0.0
H4124 H 0.78016 0.32996 0.14181 0.0
H4125 H 0.78188 0.34434 0.12895 0.0
H4126 H 0.7643 0.33577 0.11055 0.0
H4127 H 0.76999 0.31211 0.0999 0.0
loop_
_geom_bond_atom_site_label_1
_geom_bond_atom_site_label_2
_geom_bond_distance
_geom_bond_site_symmetry_2
_ccdc_geom_bond_type
O0 Cd1 2.223 . S
O0 C8 1.315 . S
Cd1 O0 2.223 . S
Cd1 O4 2.297 . S
Cd1 O5 2.439 . S
Cd1 O11 2.240 . S
Cd2 O3 2.240 . S
Cd2 O10 2.223 . S
Cd2 O12 2.297 . S
Cd2 O13 2.439 . S
O3 Cd2 2.240 . S
O3 C8 1.279 . S
O4 Cd1 2.297 . S
O4 C6 1.247 . S
O5 Cd1 2.439 . S
O5 C6 1.208 . S
C6 O4 1.247 . S
C6 O5 1.208 . S
C7 O12 1.247 . S
C7 O13 1.208 . S
C8 O0 1.315 . S
C8 O3 1.279 . S
C9 O10 1.315 . S
C9 O11 1.279 . S
O10 Cd2 2.223 . S
O10 C9 1.315 . S
O11 Cd1 2.240 . S
O11 C9 1.279 . S
O12 Cd2 2.297 . S
O12 C7 1.247 . S
O13 Cd2 2.439 . S
O13 C7 1.208 . S
O14 Cd15 2.223 . S
O14 C22 1.315 . S
Cd15 O14 2.223 . S
Cd15 O18 2.297 . S
Cd15 O19 2.439 . S
Cd15 O25 2.240 . S
Cd16 O17 2.240 . S
Cd16 O24 2.223 . S
Cd16 O26 2.297 . S
Cd16 O27 2.439 . S
O17 Cd16 2.240 . S
O17 C22 1.279 . S
O18 Cd15 2.297 . S
O18 C20 1.247 . S
O19 Cd15 2.439 . S
O19 C20 1.208 . S
C20 O18 1.247 . S
C20 O19 1.208 . S
C21 O26 1.247 . S
C21 O27 1.208 . S
C22 O14 1.315 . S
C22 O17 1.279 . S
C23 O24 1.315 . S
C23 O25 1.279 . S
O24 Cd16 2.223 . S
O24 C23 1.315 . S
O25 Cd15 2.240 . S
O25 C23 1.279 . S
O26 Cd16 2.297 . S
O26 C21 1.247 . S
O27 Cd16 2.439 . S
O27 C21 1.208 . S
O28 Cd29 2.223 . S
O28 C36 1.315 . S
Cd29 O28 2.223 . S
Cd29 O32 2.297 . S
Cd29 O33 2.439 . S
Cd29 O39 2.240 . S
Cd30 O31 2.240 . S
Cd30 O38 2.223 . S
Cd30 O40 2.297 . S
Cd30 O41 2.439 . S
O31 Cd30 2.240 . S
O31 C36 1.279 . S
O32 Cd29 2.297 . S
O32 C34 1.247 . S
O33 Cd29 2.439 . S
O33 C34 1.208 . S
C34 O32 1.247 . S
C34 O33 1.208 . S
C35 O40 1.247 . S
C35 O41 1.208 . S
C36 O28 1.315 . S
C36 O31 1.279 . S
C37 O38 1.315 . S
C37 O39 1.279 . S
O38 Cd30 2.223 . S
O38 C37 1.315 . S
O39 Cd29 2.240 . S
O39 C37 1.279 . S
O40 Cd30 2.297 . S
O40 C35 1.247 . S
O41 Cd30 2.439 . S
O41 C35 1.208 . S
O42 Cd43 2.223 . S
O42 C50 1.315 . S
Cd43 O42 2.223 . S
Cd43 O46 2.297 . S
Cd43 O47 2.439 . S
Cd43 O53 2.240 . S
Cd44 O45 2.240 . S
Cd44 O52 2.223 . S
Cd44 O54 2.297 . S
Cd44 O55 2.439 . S
O45 Cd44 2.240 . S
O45 C50 1.279 . S
O46 Cd43 2.297 . S
O46 C48 1.247 . S
O47 Cd43 2.439 . S
O47 C48 1.208 . S
C48 O46 1.247 . S
C48 O47 1.208 . S
C49 O54 1.247 . S
C49 O55 1.208 . S
C50 O42 1.315 . S
C50 O45 1.279 . S
C51 O52 1.315 . S
C51 O53 1.279 . S
O52 Cd44 2.223 . S
O52 C51 1.315 . S
O53 Cd43 2.240 . S
O53 C51 1.279 . S
O54 Cd44 2.297 . S
O54 C49 1.247 . S
O55 Cd44 2.439 . S
O55 C49 1.208 . S
O56 Cd57 2.223 . S
O56 C64 1.315 . S
Cd57 O56 2.223 . S
Cd57 O60 2.297 . S
Cd57 O61 2.439 . S
Cd57 O67 2.240 . S
Cd58 O59 2.240 . S
Cd58 O66 2.223 . S
Cd58 O68 2.297 . S
Cd58 O69 2.439 . S
O59 Cd58 2.240 . S
O59 C64 1.279 . S
O60 Cd57 2.297 . S
O60 C62 1.247 . S
O61 Cd57 2.439 . S
O61 C62 1.208 . S
C62 O60 1.247 . S
C62 O61 1.208 . S
C63 O68 1.247 . S
C63 O69 1.208 . S
C64 O56 1.315 . S
C64 O59 1.279 . S
C65 O66 1.315 . S
C65 O67 1.279 . S
O66 Cd58 2.223 . S
O66 C65 1.315 . S
O67 Cd57 2.240 . S
O67 C65 1.279 . S
O68 Cd58 2.297 . S
O68 C63 1.247 . S
O69 Cd58 2.439 . S
O69 C63 1.208 . S
O70 Cd71 2.223 . S
O70 C78 1.315 . S
Cd71 O70 2.223 . S
Cd71 O74 2.297 . S
Cd71 O75 2.439 . S
Cd71 O81 2.240 . S
Cd72 O73 2.240 . S
Cd72 O80 2.223 . S
Cd72 O82 2.297 . S
Cd72 O83 2.439 . S
O73 Cd72 2.240 . S
O73 C78 1.279 . S
O74 Cd71 2.297 . S
O74 C76 1.247 . S
O75 Cd71 2.439 . S
O75 C76 1.208 . S
C76 O74 1.247 . S
C76 O75 1.208 . S
C77 O82 1.247 . S
C77 O83 1.208 . S
C78 O70 1.315 . S
C78 O73 1.279 . S
C79 O80 1.315 . S
C79 O81 1.279 . S
O80 Cd72 2.223 . S
O80 C79 1.315 . S
O81 Cd71 2.240 . S
O81 C79 1.279 . S
O82 Cd72 2.297 . S
O82 C77 1.247 . S
O83 Cd72 2.439 . S
O83 C77 1.208 . S
O84 Cd85 2.223 . S
O84 C92 1.315 . S
Cd85 O84 2.223 . S
Cd85 O88 2.297 . S
Cd85 O89 2.439 . S
Cd85 O95 2.240 . S
Cd86 O87 2.240 . S
Cd86 O94 2.223 . S
Cd86 O96 2.297 . S
Cd86 O97 2.439 . S
O87 Cd86 2.240 . S
O87 C92 1.279 . S
O88 Cd85 2.297 . S
O88 C90 1.247 . S
O89 Cd85 2.439 . S
O89 C90 1.208 . S
C90 O88 1.247 . S
C90 O89 1.208 . S
C91 O96 1.247 . S
C91 O97 1.208 . S
C92 O84 1.315 . S
C92 O87 1.279 . S
C93 O94 1.315 . S
C93 O95 1.279 . S
O94 Cd86 2.223 . S
O94 C93 1.315 . S
O95 Cd85 2.240 . S
O95 C93 1.279 . S
O96 Cd86 2.297 . S
O96 C91 1.247 . S
O97 Cd86 2.439 . S
O97 C91 1.208 . S
O98 Cd99 2.223 . S
O98 C106 1.315 . S
Cd99 O98 2.223 . S
Cd99 O102 2.297 . S
Cd99 O103 2.439 . S
Cd99 O109 2.240 . S
Cd100 O101 2.240 . S
Cd100 O108 2.223 . S
Cd100 O110 2.297 . S
Cd100 O111 2.439 . S
O101 Cd100 2.240 . S
O101 C106 1.279 . S
O102 Cd99 2.297 . S
O102 C104 1.247 . S
O103 Cd99 2.439 . S
O103 C104 1.208 . S
C104 O102 1.247 . S
C104 O103 1.208 . S
C105 O110 1.247 . S
C105 O111 1.208 . S
C106 O98 1.315 . S
C106 O101 1.279 . S
C107 O108 1.315 . S
C107 O109 1.279 . S
O108 Cd100 2.223 . S
O108 C107 1.315 . S
O109 Cd99 2.240 . S
O109 C107 1.279 . S
O110 Cd100 2.297 . S
O110 C105 1.247 . S
O111 Cd100 2.439 . S
O111 C105 1.208 . S
O112 Cd113 2.223 . S
O112 C120 1.315 . S
Cd113 O112 2.223 . S
Cd113 O116 2.297 . S
Cd113 O117 2.439 . S
Cd113 O123 2.240 . S
Cd114 O115 2.240 . S
Cd114 O122 2.223 . S
Cd114 O124 2.297 . S
Cd114 O125 2.439 . S
O115 Cd114 2.240 . S
O115 C120 1.279 . S
O116 Cd113 2.297 . S
O116 C118 1.247 . S
O117 Cd113 2.439 . S
O117 C118 1.208 . S
C118 O116 1.247 . S
C118 O117 1.208 . S
C119 O124 1.247 . S
C119 O125 1.208 . S
C120 O112 1.315 . S
C120 O115 1.279 . S
C121 O122 1.315 . S
C121 O123 1.279 . S
O122 Cd114 2.223 . S
O122 C121 1.315 . S
O123 Cd113 2.240 . S
O123 C121 1.279 . S
O124 Cd114 2.297 . S
O124 C119 1.247 . S
O125 Cd114 2.439 . S
O125 C119 1.208 . S
O126 Cd127 2.223 . S
O126 C134 1.315 . S
Cd127 O126 2.223 . S
Cd127 O130 2.297 . S
Cd127 O131 2.439 . S
Cd127 O137 2.240 . S
Cd128 O129 2.240 . S
Cd128 O136 2.223 . S
Cd128 O138 2.297 . S
Cd128 O139 2.439 . S
O129 Cd128 2.240 . S
O129 C134 1.279 . S
O130 Cd127 2.297 . S
O130 C132 1.247 . S
O131 Cd127 2.439 . S
O131 C132 1.208 . S
C132 O130 1.247 . S
C132 O131 1.208 . S
C133 O138 1.247 . S
C133 O139 1.208 . S
C134 O126 1.315 . S
C134 O129 1.279 . S
C135 O136 1.315 . S
C135 O137 1.279 . S
O136 Cd128 2.223 . S
O136 C135 1.315 . S
O137 Cd127 2.240 . S
O137 C135 1.279 . S
O138 Cd128 2.297 . S
O138 C133 1.247 . S
O139 Cd128 2.439 . S
O139 C133 1.208 . S
O140 Cd141 2.223 . S
O140 C148 1.315 . S
Cd141 O140 2.223 . S
Cd141 O144 2.297 . S
Cd141 O145 2.439 . S
Cd141 O151 2.240 . S
Cd142 O143 2.240 . S
Cd142 O150 2.223 . S
Cd142 O152 2.297 . S
Cd142 O153 2.439 . S
O143 Cd142 2.240 . S
O143 C148 1.279 . S
O144 Cd141 2.297 . S
O144 C146 1.247 . S
O145 Cd141 2.439 . S
O145 C146 1.208 . S
C146 O144 1.247 . S
C146 O145 1.208 . S
C147 O152 1.247 . S
C147 O153 1.208 . S
C148 O140 1.315 . S
C148 O143 1.279 . S
C149 O150 1.315 . S
C149 O151 1.279 . S
O150 Cd142 2.223 . S
O150 C149 1.315 . S
O151 Cd141 2.240 . S
O151 C149 1.279 . S
O152 Cd142 2.297 . S
O152 C147 1.247 . S
O153 Cd142 2.439 . S
O153 C147 1.208 . S
O154 Cd155 2.223 . S
O154 C162 1.315 . S
Cd155 O154 2.223 . S
Cd155 O158 2.297 . S
Cd155 O159 2.439 . S
Cd155 O165 2.240 . S
Cd156 O157 2.240 . S
Cd156 O164 2.223 . S
Cd156 O166 2.297 . S
Cd156 O167 2.439 . S
O157 Cd156 2.240 . S
O157 C162 1.279 . S
O158 Cd155 2.297 . S
O158 C160 1.247 . S
O159 Cd155 2.439 . S
O159 C160 1.208 . S
C160 O158 1.247 . S
C160 O159 1.208 . S
C161 O166 1.247 . S
C161 O167 1.208 . S
C162 O154 1.315 . S
C162 O157 1.279 . S
C163 O164 1.315 . S
C163 O165 1.279 . S
O164 Cd156 2.223 . S
O164 C163 1.315 . S
O165 Cd155 2.240 . S
O165 C163 1.279 . S
O166 Cd156 2.297 . S
O166 C161 1.247 . S
O167 Cd156 2.439 . S
O167 C161 1.208 . S
O168 Cd169 2.223 . S
O168 C176 1.315 . S
Cd169 O168 2.223 . S
Cd169 O172 2.297 . S
Cd169 O173 2.439 . S
Cd169 O179 2.240 . S
Cd170 O171 2.240 . S
Cd170 O178 2.223 . S
Cd170 O180 2.297 . S
Cd170 O181 2.439 . S
O171 Cd170 2.240 . S
O171 C176 1.279 . S
O172 Cd169 2.297 . S
O172 C174 1.247 . S
O173 Cd169 2.439 . S
O173 C174 1.208 . S
C174 O172 1.247 . S
C174 O173 1.208 . S
C175 O180 1.247 . S
C175 O181 1.208 . S
C176 O168 1.315 . S
C176 O171 1.279 . S
C177 O178 1.315 . S
C177 O179 1.279 . S
O178 Cd170 2.223 . S
O178 C177 1.315 . S
O179 Cd169 2.240 . S
O179 C177 1.279 . S
O180 Cd170 2.297 . S
O180 C175 1.247 . S
O181 Cd170 2.439 . S
O181 C175 1.208 . S
O182 Cd183 2.223 . S
O182 C190 1.315 . S
Cd183 O182 2.223 . S
Cd183 O186 2.297 . S
Cd183 O187 2.439 . S
Cd183 O193 2.240 . S
Cd184 O185 2.240 . S
Cd184 O192 2.223 . S
Cd184 O194 2.297 . S
Cd184 O195 2.439 . S
O185 Cd184 2.240 . S
O185 C190 1.279 . S
O186 Cd183 2.297 . S
O186 C188 1.247 . S
O187 Cd183 2.439 . S
O187 C188 1.208 . S
C188 O186 1.247 . S
C188 O187 1.208 . S
C189 O194 1.247 . S
C189 O195 1.208 . S
C190 O182 1.315 . S
C190 O185 1.279 . S
C191 O192 1.315 . S
C191 O193 1.279 . S
O192 Cd184 2.223 . S
O192 C191 1.315 . S
O193 Cd183 2.240 . S
O193 C191 1.279 . S
O194 Cd184 2.297 . S
O194 C189 1.247 . S
O195 Cd184 2.439 . S
O195 C189 1.208 . S
O196 Cd197 2.223 . S
O196 C204 1.315 . S
Cd197 O196 2.223 . S
Cd197 O200 2.297 . S
Cd197 O201 2.439 . S
Cd197 O207 2.240 . S
Cd198 O199 2.240 . S
Cd198 O206 2.223 . S
Cd198 O208 2.297 . S
Cd198 O209 2.439 . S
O199 Cd198 2.240 . S
O199 C204 1.279 . S
O200 Cd197 2.297 . S
O200 C202 1.247 . S
O201 Cd197 2.439 . S
O201 C202 1.208 . S
C202 O200 1.247 . S
C202 O201 1.208 . S
C203 O208 1.247 . S
C203 O209 1.208 . S
C204 O196 1.315 . S
C204 O199 1.279 . S
C205 O206 1.315 . S
C205 O207 1.279 . S
O206 Cd198 2.223 . S
O206 C205 1.315 . S
O207 Cd197 2.240 . S
O207 C205 1.279 . S
O208 Cd198 2.297 . S
O208 C203 1.247 . S
O209 Cd198 2.439 . S
O209 C203 1.208 . S
O210 Cd211 2.223 . S
O210 C218 1.315 . S
Cd211 O210 2.223 . S
Cd211 O214 2.297 . S
Cd211 O215 2.439 . S
Cd211 O221 2.240 . S
Cd212 O213 2.240 . S
Cd212 O220 2.223 . S
Cd212 O222 2.297 . S
Cd212 O223 2.439 . S
O213 Cd212 2.240 . S
O213 C218 1.279 . S
O214 Cd211 2.297 . S
O214 C216 1.247 . S
O215 Cd211 2.439 . S
O215 C216 1.208 . S
C216 O214 1.247 . S
C216 O215 1.208 . S
C217 O222 1.247 . S
C217 O223 1.208 . S
C218 O210 1.315 . S
C218 O213 1.279 . S
C219 O220 1.315 . S
C219 O221 1.279 . S
O220 Cd212 2.223 . S
O220 C219 1.315 . S
O221 Cd211 2.240 . S
O221 C219 1.279 . S
O222 Cd212 2.297 . S
O222 C217 1.247 . S
O223 Cd212 2.439 . S
O223 C217 1.208 . S
O224 Cd225 2.223 . S
O224 C232 1.315 . S
Cd225 O224 2.223 . S
Cd225 O228 2.297 . S
Cd225 O229 2.439 . S
Cd225 O235 2.240 . S
Cd226 O227 2.240 . S
Cd226 O234 2.223 . S
Cd226 O236 2.297 . S
Cd226 O237 2.439 . S
O227 Cd226 2.240 . S
O227 C232 1.279 . S
O228 Cd225 2.297 . S
O228 C230 1.247 . S
O229 Cd225 2.439 . S
O229 C230 1.208 . S
C230 O228 1.247 . S
C230 O229 1.208 . S
C231 O236 1.247 . S
C231 O237 1.208 . S
C232 O224 1.315 . S
C232 O227 1.279 . S
C233 O234 1.315 . S
C233 O235 1.279 . S
O234 Cd226 2.223 . S
O234 C233 1.315 . S
O235 Cd225 2.240 . S
O235 C233 1.279 . S
O236 Cd226 2.297 . S
O236 C231 1.247 . S
O237 Cd226 2.439 . S
O237 C231 1.208 . S
O238 Cd239 2.223 . S
O238 C246 1.315 . S
Cd239 O238 2.223 . S
Cd239 O242 2.297 . S
Cd239 O243 2.439 . S
Cd239 O249 2.240 . S
Cd240 O241 2.240 . S
Cd240 O248 2.223 . S
Cd240 O250 2.297 . S
Cd240 O251 2.439 . S
O241 Cd240 2.240 . S
O241 C246 1.279 . S
O242 Cd239 2.297 . S
O242 C244 1.247 . S
O243 Cd239 2.439 . S
O243 C244 1.208 . S
C244 O242 1.247 . S
C244 O243 1.208 . S
C245 O250 1.247 . S
C245 O251 1.208 . S
C246 O238 1.315 . S
C246 O241 1.279 . S
C247 O248 1.315 . S
C247 O249 1.279 . S
O248 Cd240 2.223 . S
O248 C247 1.315 . S
O249 Cd239 2.240 . S
O249 C247 1.279 . S
O250 Cd240 2.297 . S
O250 C245 1.247 . S
O251 Cd240 2.439 . S
O251 C245 1.208 . S
O252 Cd253 2.223 . S
O252 C260 1.315 . S
Cd253 O252 2.223 . S
Cd253 O256 2.297 . S
Cd253 O257 2.439 . S
Cd253 O263 2.240 . S
Cd254 O255 2.240 . S
Cd254 O262 2.223 . S
Cd254 O264 2.297 . S
Cd254 O265 2.439 . S
O255 Cd254 2.240 . S
O255 C260 1.279 . S
O256 Cd253 2.297 . S
O256 C258 1.247 . S
O257 Cd253 2.439 . S
O257 C258 1.208 . S
C258 O256 1.247 . S
C258 O257 1.208 . S
C259 O264 1.247 . S
C259 O265 1.208 . S
C260 O252 1.315 . S
C260 O255 1.279 . S
C261 O262 1.315 . S
C261 O263 1.279 . S
O262 Cd254 2.223 . S
O262 C261 1.315 . S
O263 Cd253 2.240 . S
O263 C261 1.279 . S
O264 Cd254 2.297 . S
O264 C259 1.247 . S
O265 Cd254 2.439 . S
O265 C259 1.208 . S
O266 Cd267 2.223 . S
O266 C274 1.315 . S
Cd267 O266 2.223 . S
Cd267 O270 2.297 . S
Cd267 O271 2.439 . S
Cd267 O277 2.240 . S
Cd268 O269 2.240 . S
Cd268 O276 2.223 . S
Cd268 O278 2.297 . S
Cd268 O279 2.439 . S
O269 Cd268 2.240 . S
O269 C274 1.279 . S
O270 Cd267 2.297 . S
O270 C272 1.247 . S
O271 Cd267 2.439 . S
O271 C272 1.208 . S
C272 O270 1.247 . S
C272 O271 1.208 . S
C273 O278 1.247 . S
C273 O279 1.208 . S
C274 O266 1.315 . S
C274 O269 1.279 . S
C275 O276 1.315 . S
C275 O277 1.279 . S
O276 Cd268 2.223 . S
O276 C275 1.315 . S
O277 Cd267 2.240 . S
O277 C275 1.279 . S
O278 Cd268 2.297 . S
O278 C273 1.247 . S
O279 Cd268 2.439 . S
O279 C273 1.208 . S
O280 Cd281 2.223 . S
O280 C288 1.315 . S
Cd281 O280 2.223 . S
Cd281 O284 2.297 . S
Cd281 O285 2.439 . S
Cd281 O291 2.240 . S
Cd282 O283 2.240 . S
Cd282 O290 2.223 . S
Cd282 O292 2.297 . S
Cd282 O293 2.439 . S
O283 Cd282 2.240 . S
O283 C288 1.279 . S
O284 Cd281 2.297 . S
O284 C286 1.247 . S
O285 Cd281 2.439 . S
O285 C286 1.208 . S
C286 O284 1.247 . S
C286 O285 1.208 . S
C287 O292 1.247 . S
C287 O293 1.208 . S
C288 O280 1.315 . S
C288 O283 1.279 . S
C289 O290 1.315 . S
C289 O291 1.279 . S
O290 Cd282 2.223 . S
O290 C289 1.315 . S
O291 Cd281 2.240 . S
O291 C289 1.279 . S
O292 Cd282 2.297 . S
O292 C287 1.247 . S
O293 Cd282 2.439 . S
O293 C287 1.208 . S
O294 Cd295 2.223 . S
O294 C302 1.315 . S
Cd295 O294 2.223 . S
Cd295 O298 2.297 . S
Cd295 O299 2.439 . S
Cd295 O305 2.240 . S
Cd296 O297 2.240 . S
Cd296 O304 2.223 . S
Cd296 O306 2.297 . S
Cd296 O307 2.439 . S
O297 Cd296 2.240 . S
O297 C302 1.279 . S
O298 Cd295 2.297 . S
O298 C300 1.247 . S
O299 Cd295 2.439 . S
O299 C300 1.208 . S
C300 O298 1.247 . S
C300 O299 1.208 . S
C301 O306 1.247 . S
C301 O307 1.208 . S
C302 O294 1.315 . S
C302 O297 1.279 . S
C303 O304 1.315 . S
C303 O305 1.279 . S
O304 Cd296 2.223 . S
O304 C303 1.315 . S
O305 Cd295 2.240 . S
O305 C303 1.279 . S
O306 Cd296 2.297 . S
O306 C301 1.247 . S
O307 Cd296 2.439 . S
O307 C301 1.208 . S
O308 Cd309 2.223 . S
O308 C316 1.315 . S
Cd309 O308 2.223 . S
Cd309 O312 2.297 . S
Cd309 O313 2.439 . S
Cd309 O319 2.240 . S
Cd310 O311 2.240 . S
Cd310 O318 2.223 . S
Cd310 O320 2.297 . S
Cd310 O321 2.439 . S
O311 Cd310 2.240 . S
O311 C316 1.279 . S
O312 Cd309 2.297 . S
O312 C314 1.247 . S
O313 Cd309 2.439 . S
O313 C314 1.208 . S
C314 O312 1.247 . S
C314 O313 1.208 . S
C315 O320 1.247 . S
C315 O321 1.208 . S
C316 O308 1.315 . S
C316 O311 1.279 . S
C317 O318 1.315 . S
C317 O319 1.279 . S
O318 Cd310 2.223 . S
O318 C317 1.315 . S
O319 Cd309 2.240 . S
O319 C317 1.279 . S
O320 Cd310 2.297 . S
O320 C315 1.247 . S
O321 Cd310 2.439 . S
O321 C315 1.208 . S
O322 Cd323 2.223 . S
O322 C330 1.315 . S
Cd323 O322 2.223 . S
Cd323 O326 2.297 . S
Cd323 O327 2.439 . S
Cd323 O333 2.240 . S
Cd324 O325 2.240 . S
Cd324 O332 2.223 . S
Cd324 O334 2.297 . S
Cd324 O335 2.439 . S
O325 Cd324 2.240 . S
O325 C330 1.279 . S
O326 Cd323 2.297 . S
O326 C328 1.247 . S
O327 Cd323 2.439 . S
O327 C328 1.208 . S
C328 O326 1.247 . S
C328 O327 1.208 . S
C329 O334 1.247 . S
C329 O335 1.208 . S
C330 O322 1.315 . S
C330 O325 1.279 . S
C331 O332 1.315 . S
C331 O333 1.279 . S
O332 Cd324 2.223 . S
O332 C331 1.315 . S
O333 Cd323 2.240 . S
O333 C331 1.279 . S
O334 Cd324 2.297 . S
O334 C329 1.247 . S
O335 Cd324 2.439 . S
O335 C329 1.208 . S
O336 Cd337 2.223 . S
O336 C344 1.315 . S
Cd337 O336 2.223 . S
Cd337 O340 2.297 . S
Cd337 O341 2.439 . S
Cd337 O347 2.240 . S
Cd338 O339 2.240 . S
Cd338 O346 2.223 . S
Cd338 O348 2.297 . S
Cd338 O349 2.439 . S
O339 Cd338 2.240 . S
O339 C344 1.279 . S
O340 Cd337 2.297 . S
O340 C342 1.247 . S
O341 Cd337 2.439 . S
O341 C342 1.208 . S
C342 O340 1.247 . S
C342 O341 1.208 . S
C343 O348 1.247 . S
C343 O349 1.208 . S
C344 O336 1.315 . S
C344 O339 1.279 . S
C345 O346 1.315 . S
C345 O347 1.279 . S
O346 Cd338 2.223 . S
O346 C345 1.315 . S
O347 Cd337 2.240 . S
O347 C345 1.279 . S
O348 Cd338 2.297 . S
O348 C343 1.247 . S
O349 Cd338 2.439 . S
O349 C343 1.208 . S
O350 Cd351 2.223 . S
O350 C358 1.315 . S
Cd351 O350 2.223 . S
Cd351 O354 2.297 . S
Cd351 O355 2.439 . S
Cd351 O361 2.240 . S
Cd352 O353 2.240 . S
Cd352 O360 2.223 . S
Cd352 O362 2.297 . S
Cd352 O363 2.439 . S
O353 Cd352 2.240 . S
O353 C358 1.279 . S
O354 Cd351 2.297 . S
O354 C356 1.247 . S
O355 Cd351 2.439 . S
O355 C356 1.208 . S
C356 O354 1.247 . S
C356 O355 1.208 . S
C357 O362 1.247 . S
C357 O363 1.208 . S
C358 O350 1.315 . S
C358 O353 1.279 . S
C359 O360 1.315 . S
C359 O361 1.279 . S
O360 Cd352 2.223 . S
O360 C359 1.315 . S
O361 Cd351 2.240 . S
O361 C359 1.279 . S
O362 Cd352 2.297 . S
O362 C357 1.247 . S
O363 Cd352 2.439 . S
O363 C357 1.208 . S
O364 Cd365 2.223 . S
O364 C372 1.315 . S
Cd365 O364 2.223 . S
Cd365 O368 2.297 . S
Cd365 O369 2.439 . S
Cd365 O375 2.240 . S
Cd366 O367 2.240 . S
Cd366 O374 2.223 . S
Cd366 O376 2.297 . S
Cd366 O377 2.439 . S
O367 Cd366 2.240 . S
O367 C372 1.279 . S
O368 Cd365 2.297 . S
O368 C370 1.247 . S
O369 Cd365 2.439 . S
O369 C370 1.208 . S
C370 O368 1.247 . S
C370 O369 1.208 . S
C371 O376 1.247 . S
C371 O377 1.208 . S
C372 O364 1.315 . S
C372 O367 1.279 . S
C373 O374 1.315 . S
C373 O375 1.279 . S
O374 Cd366 2.223 . S
O374 C373 1.315 . S
O375 Cd365 2.240 . S
O375 C373 1.279 . S
O376 Cd366 2.297 . S
O376 C371 1.247 . S
O377 Cd366 2.439 . S
O377 C371 1.208 . S
O378 Cd379 2.223 . S
O378 C386 1.315 . S
Cd379 O378 2.223 . S
Cd379 O382 2.297 . S
Cd379 O383 2.439 . S
Cd379 O389 2.240 . S
Cd380 O381 2.240 . S
Cd380 O388 2.223 . S
Cd380 O390 2.297 . S
Cd380 O391 2.439 . S
O381 Cd380 2.240 . S
O381 C386 1.279 . S
O382 Cd379 2.297 . S
O382 C384 1.247 . S
O383 Cd379 2.439 . S
O383 C384 1.208 . S
C384 O382 1.247 . S
C384 O383 1.208 . S
C385 O390 1.247 . S
C385 O391 1.208 . S
C386 O378 1.315 . S
C386 O381 1.279 . S
C387 O388 1.315 . S
C387 O389 1.279 . S
O388 Cd380 2.223 . S
O388 C387 1.315 . S
O389 Cd379 2.240 . S
O389 C387 1.279 . S
O390 Cd380 2.297 . S
O390 C385 1.247 . S
O391 Cd380 2.439 . S
O391 C385 1.208 . S
O392 Cd393 2.223 . S
O392 C400 1.315 . S
Cd393 O392 2.223 . S
Cd393 O396 2.297 . S
Cd393 O397 2.439 . S
Cd393 O403 2.240 . S
Cd394 O395 2.240 . S
Cd394 O402 2.223 . S
Cd394 O404 2.297 . S
Cd394 O405 2.439 . S
O395 Cd394 2.240 . S
O395 C400 1.279 . S
O396 Cd393 2.297 . S
O396 C398 1.247 . S
O397 Cd393 2.439 . S
O397 C398 1.208 . S
C398 O396 1.247 . S
C398 O397 1.208 . S
C399 O404 1.247 . S
C399 O405 1.208 . S
C400 O392 1.315 . S
C400 O395 1.279 . S
C401 O402 1.315 . S
C401 O403 1.279 . S
O402 Cd394 2.223 . S
O402 C401 1.315 . S
O403 Cd393 2.240 . S
O403 C401 1.279 . S
O404 Cd394 2.297 . S
O404 C399 1.247 . S
O405 Cd394 2.439 . S
O405 C399 1.208 . S
O406 Cd407 2.223 . S
O406 C414 1.315 . S
Cd407 O406 2.223 . S
Cd407 O410 2.297 . S
Cd407 O411 2.439 . S
Cd407 O417 2.240 . S
Cd408 O409 2.240 . S
Cd408 O416 2.223 . S
Cd408 O418 2.297 . S
Cd408 O419 2.439 . S
O409 Cd408 2.240 . S
O409 C414 1.279 . S
O410 Cd407 2.297 . S
O410 C412 1.247 . S
O411 Cd407 2.439 . S
O411 C412 1.208 . S
C412 O410 1.247 . S
C412 O411 1.208 . S
C413 O418 1.247 . S
C413 O419 1.208 . S
C414 O406 1.315 . S
C414 O409 1.279 . S
C415 O416 1.315 . S
C415 O417 1.279 . S
O416 Cd408 2.223 . S
O416 C415 1.315 . S
O417 Cd407 2.240 . S
O417 C415 1.279 . S
O418 Cd408 2.297 . S
O418 C413 1.247 . S
O419 Cd408 2.439 . S
O419 C413 1.208 . S
O420 Cd421 2.223 . S
O420 C428 1.315 . S
Cd421 O420 2.223 . S
Cd421 O424 2.297 . S
Cd421 O425 2.439 . S
Cd421 O431 2.240 . S
Cd422 O423 2.240 . S
Cd422 O430 2.223 . S
Cd422 O432 2.297 . S
Cd422 O433 2.439 . S
O423 Cd422 2.240 . S
O423 C428 1.279 . S
O424 Cd421 2.297 . S
O424 C426 1.247 . S
O425 Cd421 2.439 . S
O425 C426 1.208 . S
C426 O424 1.247 . S
C426 O425 1.208 . S
C427 O432 1.247 . S
C427 O433 1.208 . S
C428 O420 1.315 . S
C428 O423 1.279 . S
C429 O430 1.315 . S
C429 O431 1.279 . S
O430 Cd422 2.223 . S
O430 C429 1.315 . S
O431 Cd421 2.240 . S
O431 C429 1.279 . S
O432 Cd422 2.297 . S
O432 C427 1.247 . S
O433 Cd422 2.439 . S
O433 C427 1.208 . S
O434 Cd435 2.223 . S
O434 C442 1.315 . S
Cd435 O434 2.223 . S
Cd435 O438 2.297 . S
Cd435 O439 2.439 . S
Cd435 O445 2.240 . S
Cd436 O437 2.240 . S
Cd436 O444 2.223 . S
Cd436 O446 2.297 . S
Cd436 O447 2.439 . S
O437 Cd436 2.240 . S
O437 C442 1.279 . S
O438 Cd435 2.297 . S
O438 C440 1.247 . S
O439 Cd435 2.439 . S
O439 C440 1.208 . S
C440 O438 1.247 . S
C440 O439 1.208 . S
C441 O446 1.247 . S
C441 O447 1.208 . S
C442 O434 1.315 . S
C442 O437 1.279 . S
C443 O444 1.315 . S
C443 O445 1.279 . S
O444 Cd436 2.223 . S
O444 C443 1.315 . S
O445 Cd435 2.240 . S
O445 C443 1.279 . S
O446 Cd436 2.297 . S
O446 C441 1.247 . S
O447 Cd436 2.439 . S
O447 C441 1.208 . S
O448 Cd449 2.223 . S
O448 C456 1.315 . S
Cd449 O448 2.223 . S
Cd449 O452 2.297 . S
Cd449 O453 2.439 . S
Cd449 O459 2.240 . S
Cd450 O451 2.240 . S
Cd450 O458 2.223 . S
Cd450 O460 2.297 . S
Cd450 O461 2.439 . S
O451 Cd450 2.240 . S
O451 C456 1.279 . S
O452 Cd449 2.297 . S
O452 C454 1.247 . S
O453 Cd449 2.439 . S
O453 C454 1.208 . S
C454 O452 1.247 . S
C454 O453 1.208 . S
C455 O460 1.247 . S
C455 O461 1.208 . S
C456 O448 1.315 . S
C456 O451 1.279 . S
C457 O458 1.315 . S
C457 O459 1.279 . S
O458 Cd450 2.223 . S
O458 C457 1.315 . S
O459 Cd449 2.240 . S
O459 C457 1.279 . S
O460 Cd450 2.297 . S
O460 C455 1.247 . S
O461 Cd450 2.439 . S
O461 C455 1.208 . S
O462 Cd463 2.223 . S
O462 C470 1.315 . S
Cd463 O462 2.223 . S
Cd463 O466 2.297 . S
Cd463 O467 2.439 . S
Cd463 O473 2.240 . S
Cd464 O465 2.240 . S
Cd464 O472 2.223 . S
Cd464 O474 2.297 . S
Cd464 O475 2.439 . S
O465 Cd464 2.240 . S
O465 C470 1.279 . S
O466 Cd463 2.297 . S
O466 C468 1.247 . S
O467 Cd463 2.439 . S
O467 C468 1.208 . S
C468 O466 1.247 . S
C468 O467 1.208 . S
C469 O474 1.247 . S
C469 O475 1.208 . S
C470 O462 1.315 . S
C470 O465 1.279 . S
C471 O472 1.315 . S
C471 O473 1.279 . S
O472 Cd464 2.223 . S
O472 C471 1.315 . S
O473 Cd463 2.240 . S
O473 C471 1.279 . S
O474 Cd464 2.297 . S
O474 C469 1.247 . S
O475 Cd464 2.439 . S
O475 C469 1.208 . S
O476 Cd477 2.223 . S
O476 C484 1.315 . S
Cd477 O476 2.223 . S
Cd477 O480 2.297 . S
Cd477 O481 2.439 . S
Cd477 O487 2.240 . S
Cd478 O479 2.240 . S
Cd478 O486 2.223 . S
Cd478 O488 2.297 . S
Cd478 O489 2.439 . S
O479 Cd478 2.240 . S
O479 C484 1.279 . S
O480 Cd477 2.297 . S
O480 C482 1.247 . S
O481 Cd477 2.439 . S
O481 C482 1.208 . S
C482 O480 1.247 . S
C482 O481 1.208 . S
C483 O488 1.247 . S
C483 O489 1.208 . S
C484 O476 1.315 . S
C484 O479 1.279 . S
C485 O486 1.315 . S
C485 O487 1.279 . S
O486 Cd478 2.223 . S
O486 C485 1.315 . S
O487 Cd477 2.240 . S
O487 C485 1.279 . S
O488 Cd478 2.297 . S
O488 C483 1.247 . S
O489 Cd478 2.439 . S
O489 C483 1.208 . S
O490 Cd491 2.223 . S
O490 C498 1.315 . S
Cd491 O490 2.223 . S
Cd491 O494 2.297 . S
Cd491 O495 2.439 . S
Cd491 O501 2.240 . S
Cd492 O493 2.240 . S
Cd492 O500 2.223 . S
Cd492 O502 2.297 . S
Cd492 O503 2.439 . S
O493 Cd492 2.240 . S
O493 C498 1.279 . S
O494 Cd491 2.297 . S
O494 C496 1.247 . S
O495 Cd491 2.439 . S
O495 C496 1.208 . S
C496 O494 1.247 . S
C496 O495 1.208 . S
C497 O502 1.247 . S
C497 O503 1.208 . S
C498 O490 1.315 . S
C498 O493 1.279 . S
C499 O500 1.315 . S
C499 O501 1.279 . S
O500 Cd492 2.223 . S
O500 C499 1.315 . S
O501 Cd491 2.240 . S
O501 C499 1.279 . S
O502 Cd492 2.297 . S
O502 C497 1.247 . S
O503 Cd492 2.439 . S
O503 C497 1.208 . S
O504 Cd505 2.223 . S
O504 C512 1.315 . S
Cd505 O504 2.223 . S
Cd505 O508 2.297 . S
Cd505 O509 2.439 . S
Cd505 O515 2.240 . S
Cd506 O507 2.240 . S
Cd506 O514 2.223 . S
Cd506 O516 2.297 . S
Cd506 O517 2.439 . S
O507 Cd506 2.240 . S
O507 C512 1.279 . S
O508 Cd505 2.297 . S
O508 C510 1.247 . S
O509 Cd505 2.439 . S
O509 C510 1.208 . S
C510 O508 1.247 . S
C510 O509 1.208 . S
C511 O516 1.247 . S
C511 O517 1.208 . S
C512 O504 1.315 . S
C512 O507 1.279 . S
C513 O514 1.315 . S
C513 O515 1.279 . S
O514 Cd506 2.223 . S
O514 C513 1.315 . S
O515 Cd505 2.240 . S
O515 C513 1.279 . S
O516 Cd506 2.297 . S
O516 C511 1.247 . S
O517 Cd506 2.439 . S
O517 C511 1.208 . S
O518 Cd519 2.223 . S
O518 C526 1.315 . S
Cd519 O518 2.223 . S
Cd519 O522 2.297 . S
Cd519 O523 2.439 . S
Cd519 O529 2.240 . S
Cd520 O521 2.240 . S
Cd520 O528 2.223 . S
Cd520 O530 2.297 . S
Cd520 O531 2.439 . S
O521 Cd520 2.240 . S
O521 C526 1.279 . S
O522 Cd519 2.297 . S
O522 C524 1.247 . S
O523 Cd519 2.439 . S
O523 C524 1.208 . S
C524 O522 1.247 . S
C524 O523 1.208 . S
C525 O530 1.247 . S
C525 O531 1.208 . S
C526 O518 1.315 . S
C526 O521 1.279 . S
C527 O528 1.315 . S
C527 O529 1.279 . S
O528 Cd520 2.223 . S
O528 C527 1.315 . S
O529 Cd519 2.240 . S
O529 C527 1.279 . S
O530 Cd520 2.297 . S
O530 C525 1.247 . S
O531 Cd520 2.439 . S
O531 C525 1.208 . S
O532 Cd533 2.223 . S
O532 C540 1.315 . S
Cd533 O532 2.223 . S
Cd533 O536 2.297 . S
Cd533 O537 2.439 . S
Cd533 O543 2.240 . S
Cd534 O535 2.240 . S
Cd534 O542 2.223 . S
Cd534 O544 2.297 . S
Cd534 O545 2.439 . S
O535 Cd534 2.240 . S
O535 C540 1.279 . S
O536 Cd533 2.297 . S
O536 C538 1.247 . S
O537 Cd533 2.439 . S
O537 C538 1.208 . S
C538 O536 1.247 . S
C538 O537 1.208 . S
C539 O544 1.247 . S
C539 O545 1.208 . S
C540 O532 1.315 . S
C540 O535 1.279 . S
C541 O542 1.315 . S
C541 O543 1.279 . S
O542 Cd534 2.223 . S
O542 C541 1.315 . S
O543 Cd533 2.240 . S
O543 C541 1.279 . S
O544 Cd534 2.297 . S
O544 C539 1.247 . S
O545 Cd534 2.439 . S
O545 C539 1.208 . S
O546 Cd547 2.223 . S
O546 C554 1.315 . S
Cd547 O546 2.223 . S
Cd547 O550 2.297 . S
Cd547 O551 2.439 . S
Cd547 O557 2.240 . S
Cd548 O549 2.240 . S
Cd548 O556 2.223 . S
Cd548 O558 2.297 . S
Cd548 O559 2.439 . S
O549 Cd548 2.240 . S
O549 C554 1.279 . S
O550 Cd547 2.297 . S
O550 C552 1.247 . S
O551 Cd547 2.439 . S
O551 C552 1.208 . S
C552 O550 1.247 . S
C552 O551 1.208 . S
C553 O558 1.247 . S
C553 O559 1.208 . S
C554 O546 1.315 . S
C554 O549 1.279 . S
C555 O556 1.315 . S
C555 O557 1.279 . S
O556 Cd548 2.223 . S
O556 C555 1.315 . S
O557 Cd547 2.240 . S
O557 C555 1.279 . S
O558 Cd548 2.297 . S
O558 C553 1.247 . S
O559 Cd548 2.439 . S
O559 C553 1.208 . S
O560 Cd561 2.223 . S
O560 C568 1.315 . S
Cd561 O560 2.223 . S
Cd561 O564 2.297 . S
Cd561 O565 2.439 . S
Cd561 O571 2.240 . S
Cd562 O563 2.240 . S
Cd562 O570 2.223 . S
Cd562 O572 2.297 . S
Cd562 O573 2.439 . S
O563 Cd562 2.240 . S
O563 C568 1.279 . S
O564 Cd561 2.297 . S
O564 C566 1.247 . S
O565 Cd561 2.439 . S
O565 C566 1.208 . S
C566 O564 1.247 . S
C566 O565 1.208 . S
C567 O572 1.247 . S
C567 O573 1.208 . S
C568 O560 1.315 . S
C568 O563 1.279 . S
C569 O570 1.315 . S
C569 O571 1.279 . S
O570 Cd562 2.223 . S
O570 C569 1.315 . S
O571 Cd561 2.240 . S
O571 C569 1.279 . S
O572 Cd562 2.297 . S
O572 C567 1.247 . S
O573 Cd562 2.439 . S
O573 C567 1.208 . S
O574 Cd575 2.223 . S
O574 C582 1.315 . S
Cd575 O574 2.223 . S
Cd575 O578 2.297 . S
Cd575 O579 2.439 . S
Cd575 O585 2.240 . S
Cd576 O577 2.240 . S
Cd576 O584 2.223 . S
Cd576 O586 2.297 . S
Cd576 O587 2.439 . S
O577 Cd576 2.240 . S
O577 C582 1.279 . S
O578 Cd575 2.297 . S
O578 C580 1.247 . S
O579 Cd575 2.439 . S
O579 C580 1.208 . S
C580 O578 1.247 . S
C580 O579 1.208 . S
C581 O586 1.247 . S
C581 O587 1.208 . S
C582 O574 1.315 . S
C582 O577 1.279 . S
C583 O584 1.315 . S
C583 O585 1.279 . S
O584 Cd576 2.223 . S
O584 C583 1.315 . S
O585 Cd575 2.240 . S
O585 C583 1.279 . S
O586 Cd576 2.297 . S
O586 C581 1.247 . S
O587 Cd576 2.439 . S
O587 C581 1.208 . S
O588 Cd589 2.223 . S
O588 C596 1.315 . S
Cd589 O588 2.223 . S
Cd589 O592 2.297 . S
Cd589 O593 2.439 . S
Cd589 O599 2.240 . S
Cd590 O591 2.240 . S
Cd590 O598 2.223 . S
Cd590 O600 2.297 . S
Cd590 O601 2.439 . S
O591 Cd590 2.240 . S
O591 C596 1.279 . S
O592 Cd589 2.297 . S
O592 C594 1.247 . S
O593 Cd589 2.439 . S
O593 C594 1.208 . S
C594 O592 1.247 . S
C594 O593 1.208 . S
C595 O600 1.247 . S
C595 O601 1.208 . S
C596 O588 1.315 . S
C596 O591 1.279 . S
C597 O598 1.315 . S
C597 O599 1.279 . S
O598 Cd590 2.223 . S
O598 C597 1.315 . S
O599 Cd589 2.240 . S
O599 C597 1.279 . S
O600 Cd590 2.297 . S
O600 C595 1.247 . S
O601 Cd590 2.439 . S
O601 C595 1.208 . S
O602 Cd603 2.223 . S
O602 C610 1.315 . S
Cd603 O602 2.223 . S
Cd603 O606 2.297 . S
Cd603 O607 2.439 . S
Cd603 O613 2.240 . S
Cd604 O605 2.240 . S
Cd604 O612 2.223 . S
Cd604 O614 2.297 . S
Cd604 O615 2.439 . S
O605 Cd604 2.240 . S
O605 C610 1.279 . S
O606 Cd603 2.297 . S
O606 C608 1.247 . S
O607 Cd603 2.439 . S
O607 C608 1.208 . S
C608 O606 1.247 . S
C608 O607 1.208 . S
C609 O614 1.247 . S
C609 O615 1.208 . S
C610 O602 1.315 . S
C610 O605 1.279 . S
C611 O612 1.315 . S
C611 O613 1.279 . S
O612 Cd604 2.223 . S
O612 C611 1.315 . S
O613 Cd603 2.240 . S
O613 C611 1.279 . S
O614 Cd604 2.297 . S
O614 C609 1.247 . S
O615 Cd604 2.439 . S
O615 C609 1.208 . S
O616 Cd617 2.223 . S
O616 C624 1.315 . S
Cd617 O616 2.223 . S
Cd617 O620 2.297 . S
Cd617 O621 2.439 . S
Cd617 O627 2.240 . S
Cd618 O619 2.240 . S
Cd618 O626 2.223 . S
Cd618 O628 2.297 . S
Cd618 O629 2.439 . S
O619 Cd618 2.240 . S
O619 C624 1.279 . S
O620 Cd617 2.297 . S
O620 C622 1.247 . S
O621 Cd617 2.439 . S
O621 C622 1.208 . S
C622 O620 1.247 . S
C622 O621 1.208 . S
C623 O628 1.247 . S
C623 O629 1.208 . S
C624 O616 1.315 . S
C624 O619 1.279 . S
C625 O626 1.315 . S
C625 O627 1.279 . S
O626 Cd618 2.223 . S
O626 C625 1.315 . S
O627 Cd617 2.240 . S
O627 C625 1.279 . S
O628 Cd618 2.297 . S
O628 C623 1.247 . S
O629 Cd618 2.439 . S
O629 C623 1.208 . S
O630 Cd631 2.223 . S
O630 C638 1.315 . S
Cd631 O630 2.223 . S
Cd631 O634 2.297 . S
Cd631 O635 2.439 . S
Cd631 O641 2.240 . S
Cd632 O633 2.240 . S
Cd632 O640 2.223 . S
Cd632 O642 2.297 . S
Cd632 O643 2.439 . S
O633 Cd632 2.240 . S
O633 C638 1.279 . S
O634 Cd631 2.297 . S
O634 C636 1.247 . S
O635 Cd631 2.439 . S
O635 C636 1.208 . S
C636 O634 1.247 . S
C636 O635 1.208 . S
C637 O642 1.247 . S
C637 O643 1.208 . S
C638 O630 1.315 . S
C638 O633 1.279 . S
C639 O640 1.315 . S
C639 O641 1.279 . S
O640 Cd632 2.223 . S
O640 C639 1.315 . S
O641 Cd631 2.240 . S
O641 C639 1.279 . S
O642 Cd632 2.297 . S
O642 C637 1.247 . S
O643 Cd632 2.439 . S
O643 C637 1.208 . S
O644 Cd645 2.223 . S
O644 C652 1.315 . S
Cd645 O644 2.223 . S
Cd645 O648 2.297 . S
Cd645 O649 2.439 . S
Cd645 O655 2.240 . S
Cd646 O647 2.240 . S
Cd646 O654 2.223 . S
Cd646 O656 2.297 . S
Cd646 O657 2.439 . S
O647 Cd646 2.240 . S
O647 C652 1.279 . S
O648 Cd645 2.297 . S
O648 C650 1.247 . S
O649 Cd645 2.439 . S
O649 C650 1.208 . S
C650 O648 1.247 . S
C650 O649 1.208 . S
C651 O656 1.247 . S
C651 O657 1.208 . S
C652 O644 1.315 . S
C652 O647 1.279 . S
C653 O654 1.315 . S
C653 O655 1.279 . S
O654 Cd646 2.223 . S
O654 C653 1.315 . S
O655 Cd645 2.240 . S
O655 C653 1.279 . S
O656 Cd646 2.297 . S
O656 C651 1.247 . S
O657 Cd646 2.439 . S
O657 C651 1.208 . S
O658 Cd659 2.223 . S
O658 C666 1.315 . S
Cd659 O658 2.223 . S
Cd659 O662 2.297 . S
Cd659 O663 2.439 . S
Cd659 O669 2.240 . S
Cd660 O661 2.240 . S
Cd660 O668 2.223 . S
Cd660 O670 2.297 . S
Cd660 O671 2.439 . S
O661 Cd660 2.240 . S
O661 C666 1.279 . S
O662 Cd659 2.297 . S
O662 C664 1.247 . S
O663 Cd659 2.439 . S
O663 C664 1.208 . S
C664 O662 1.247 . S
C664 O663 1.208 . S
C665 O670 1.247 . S
C665 O671 1.208 . S
C666 O658 1.315 . S
C666 O661 1.279 . S
C667 O668 1.315 . S
C667 O669 1.279 . S
O668 Cd660 2.223 . S
O668 C667 1.315 . S
O669 Cd659 2.240 . S
O669 C667 1.279 . S
O670 Cd660 2.297 . S
O670 C665 1.247 . S
O671 Cd660 2.439 . S
O671 C665 1.208 . S
H672 C680 0.929 . S
H673 C682 0.930 . S
H674 C684 0.930 . S
H675 C687 0.929 . S
H676 C690 0.937 . S
H677 C692 0.960 . S
H678 C692 0.960 . S
H679 C692 0.960 . S
C680 H672 0.929 . S
C680 C681 1.377 . S
C680 C682 1.384 . S
C681 C680 1.377 . S
C681 C687 1.390 . S
C682 H673 0.930 . S
C682 C680 1.384 . S
C682 C683 1.372 . S
C683 C682 1.372 . S
C683 C684 1.400 . S
C683 C688 1.490 . S
C684 H674 0.930 . S
C684 C683 1.400 . S
C684 C687 1.386 . S
H685 C701 0.930 . S
H686 C702 0.931 . S
C687 H675 0.929 . S
C687 C681 1.390 . S
C687 C684 1.386 . S
C688 C683 1.490 . S
C688 C690 1.435 . S
C688 C691 1.403 . S
H689 C695 0.930 . S
C690 H676 0.937 . S
C690 C688 1.435 . S
C690 C693 1.359 1_655 S
C691 C688 1.403 . S
C691 C692 1.524 . S
C691 C695 1.400 1_655 S
C692 H677 0.960 . S
C692 H678 0.960 . S
C692 H679 0.960 . S
C692 C691 1.524 . S
C693 C690 1.359 1_455 S
C693 C694 1.392 . S
C693 C697 1.495 . S
C694 C693 1.392 . S
C694 C695 1.385 . S
C694 C696 1.478 . S
C695 H689 0.930 . S
C695 C691 1.400 1_455 S
C695 C694 1.385 . S
C696 C694 1.478 . S
C696 C698 1.381 . S
C696 C702 1.383 . S
C697 C693 1.495 . S
C697 H703 0.959 . S
C697 H704 0.961 . S
C697 H705 0.960 . S
C698 C696 1.381 . S
C698 C699 1.394 . S
C698 H706 0.930 . S
C699 C698 1.394 . S
C699 C700 1.383 . S
C699 H707 0.929 . S
C700 C699 1.383 . S
C700 C701 1.377 . S
C701 H685 0.930 . S
C701 C700 1.377 . S
C701 C702 1.379 . S
C702 H686 0.931 . S
C702 C696 1.383 . S
C702 C701 1.379 . S
H703 C697 0.959 . S
H704 C697 0.961 . S
H705 C697 0.960 . S
H706 C698 0.930 . S
H707 C699 0.929 . S
H708 C716 0.929 . S
H709 C718 0.930 . S
H710 C720 0.930 . S
H711 C723 0.929 . S
H712 C726 0.930 . S
H713 C728 0.960 1_545 S
H714 C728 0.960 . S
H715 C728 0.960 . S
C716 H708 0.929 . S
C716 C717 1.377 . S
C716 C718 1.384 . S
C717 C716 1.377 . S
C717 C723 1.390 . S
C718 H709 0.930 . S
C718 C716 1.384 . S
C718 C719 1.372 . S
C719 C718 1.372 . S
C719 C720 1.400 . S
C719 C724 1.490 . S
C720 H710 0.930 . S
C720 C719 1.400 . S
C720 C723 1.386 . S
H721 C737 0.930 . S
H722 C738 0.931 . S
C723 H711 0.929 . S
C723 C717 1.390 . S
C723 C720 1.386 . S
C724 C719 1.490 . S
C724 C726 1.395 . S
C724 C727 1.403 . S
H725 C731 0.930 . S
C726 H712 0.930 . S
C726 C724 1.395 . S
C726 C729 1.403 1_565 S
C727 C724 1.403 . S
C727 C728 1.524 . S
C727 C731 1.400 1_565 S
C728 H713 0.960 1_565 S
C728 H714 0.960 . S
C728 H715 0.960 . S
C728 C727 1.524 . S
C729 C726 1.403 1_545 S
C729 C730 1.392 . S
C729 C733 1.495 . S
C730 C729 1.392 . S
C730 C731 1.385 . S
C730 C732 1.478 . S
C731 H725 0.930 . S
C731 C727 1.400 1_545 S
C731 C730 1.385 . S
C732 C730 1.478 . S
C732 C734 1.381 . S
C732 C738 1.383 . S
C733 C729 1.495 . S
C733 H739 0.959 1_545 S
C733 H740 0.961 . S
C733 H741 0.960 . S
C734 C732 1.381 . S
C734 C735 1.394 . S
C734 H742 0.930 . S
C735 C734 1.394 . S
C735 C736 1.383 . S
C735 H743 0.929 . S
C736 C735 1.383 . S
C736 C737 1.377 . S
C737 H721 0.930 . S
C737 C736 1.377 . S
C737 C738 1.379 . S
C738 H722 0.931 . S
C738 C732 1.383 . S
C738 C737 1.379 . S
H739 C733 0.959 1_565 S
H740 C733 0.961 . S
H741 C733 0.960 . S
H742 C734 0.930 . S
H743 C735 0.929 . S
H744 C752 0.929 . S
H745 C754 0.930 . S
H746 C756 0.930 . S
H747 C759 0.929 . S
H748 C762 0.930 . S
H749 C764 0.960 . S
H750 C764 0.960 . S
H751 C764 0.960 1_455 S
C752 H744 0.929 . S
C752 C753 1.377 . S
C752 C754 1.384 . S
C753 C752 1.377 . S
C753 C759 1.390 . S
C754 H745 0.930 . S
C754 C752 1.384 . S
C754 C755 1.372 . S
C755 C754 1.372 . S
C755 C756 1.400 . S
C755 C760 1.490 . S
C756 H746 0.930 . S
C756 C755 1.400 . S
C756 C759 1.386 . S
H757 C773 0.930 . S
H758 C774 0.931 . S
C759 H747 0.929 . S
C759 C753 1.390 . S
C759 C756 1.386 . S
C760 C755 1.490 . S
C760 C762 1.395 . S
C760 C763 1.337 1_455 S
H761 C767 0.930 . S
C762 H748 0.930 . S
C762 C760 1.395 . S
C762 C765 1.403 . S
C763 C760 1.337 1_655 S
C763 C764 1.537 . S
C763 C767 1.458 . S
C764 H749 0.960 . S
C764 H750 0.960 . S
C764 H751 0.960 1_655 S
C764 C763 1.537 . S
C765 C762 1.403 . S
C765 C766 1.392 1_455 S
C765 C769 1.495 . S
C766 C765 1.392 1_655 S
C766 C767 1.385 . S
C766 C768 1.478 . S
C767 H761 0.930 . S
C767 C763 1.458 . S
C767 C766 1.385 . S
C768 C766 1.478 . S
C768 C770 1.381 . S
C768 C774 1.383 . S
C769 C765 1.495 . S
C769 H775 0.959 . S
C769 H776 0.961 . S
C769 H777 0.960 1_455 S
C770 C768 1.381 . S
C770 C771 1.394 . S
C770 H778 0.930 . S
C771 C770 1.394 . S
C771 C772 1.383 . S
C771 H779 0.929 . S
C772 C771 1.383 . S
C772 C773 1.377 . S
C773 H757 0.930 . S
C773 C772 1.377 . S
C773 C774 1.379 . S
C774 H758 0.931 . S
C774 C768 1.383 . S
C774 C773 1.379 . S
H775 C769 0.959 . S
H776 C769 0.961 . S
H777 C769 0.960 1_655 S
H778 C770 0.930 . S
H779 C771 0.929 . S
H780 C788 0.929 . S
H781 C790 0.930 . S
H782 C792 0.930 . S
H783 C795 0.929 . S
H784 C798 0.930 . S
H785 C800 0.960 1_545 S
H786 C800 0.960 . S
H787 C800 0.960 . S
C788 H780 0.929 . S
C788 C789 1.377 . S
C788 C790 1.384 . S
C789 C788 1.377 . S
C789 C795 1.390 . S
C790 H781 0.930 . S
C790 C788 1.384 . S
C790 C791 1.372 . S
C791 C790 1.372 . S
C791 C792 1.400 . S
C791 C796 1.490 . S
C792 H782 0.930 . S
C792 C791 1.400 . S
C792 C795 1.386 . S
H793 C809 0.930 . S
H794 C810 0.931 . S
C795 H783 0.929 . S
C795 C789 1.390 . S
C795 C792 1.386 . S
C796 C791 1.490 . S
C796 C798 1.395 . S
C796 C799 1.403 . S
H797 C803 0.930 . S
C798 H784 0.930 . S
C798 C796 1.395 . S
C798 C801 1.403 1_565 S
C799 C796 1.403 . S
C799 C800 1.524 . S
C799 C803 1.400 1_565 S
C800 H785 0.960 1_565 S
C800 H786 0.960 . S
C800 H787 0.960 . S
C800 C799 1.524 . S
C801 C798 1.403 1_545 S
C801 C802 1.392 . S
C801 C805 1.495 . S
C802 C801 1.392 . S
C802 C803 1.385 . S
C802 C804 1.478 . S
C803 H797 0.930 . S
C803 C799 1.400 1_545 S
C803 C802 1.385 . S
C804 C802 1.478 . S
C804 C806 1.381 . S
C804 C810 1.383 . S
C805 C801 1.495 . S
C805 H811 0.959 1_545 S
C805 H812 0.961 . S
C805 H813 0.960 . S
C806 C804 1.381 . S
C806 C807 1.394 . S
C806 H814 0.930 . S
C807 C806 1.394 . S
C807 C808 1.383 . S
C807 H815 0.929 . S
C808 C807 1.383 . S
C808 C809 1.377 . S
C809 H793 0.930 . S
C809 C808 1.377 . S
C809 C810 1.379 . S
C810 H794 0.931 . S
C810 C804 1.383 . S
C810 C809 1.379 . S
H811 C805 0.959 1_565 S
H812 C805 0.961 . S
H813 C805 0.960 . S
H814 C806 0.930 . S
H815 C807 0.929 . S
H816 C824 0.929 . S
H817 C826 0.930 . S
H818 C828 0.930 . S
H819 C831 0.929 . S
H820 C834 0.930 . S
H821 C836 0.959 . S
H822 C836 0.960 . S
H823 C836 0.960 . S
C824 H816 0.929 . S
C824 C825 1.377 . S
C824 C826 1.384 . S
C825 C824 1.377 . S
C825 C831 1.390 . S
C826 H817 0.930 . S
C826 C824 1.384 . S
C826 C827 1.372 . S
C827 C826 1.372 . S
C827 C828 1.400 . S
C827 C832 1.490 . S
C828 H818 0.930 . S
C828 C827 1.400 . S
C828 C831 1.386 . S
H829 C845 0.930 . S
H830 C846 0.931 . S
C831 H819 0.929 . S
C831 C825 1.390 . S
C831 C828 1.386 . S
C832 C827 1.490 . S
C832 C834 1.395 . S
C832 C835 1.403 . S
H833 C839 0.930 . S
C834 H820 0.930 . S
C834 C832 1.395 . S
C834 C837 1.403 1_655 S
C835 C832 1.403 . S
C835 C836 1.524 . S
C835 C839 1.400 1_655 S
C836 H821 0.959 . S
C836 H822 0.960 . S
C836 H823 0.960 . S
C836 C835 1.524 . S
C837 C834 1.403 1_455 S
C837 C838 1.392 . S
C837 C841 1.495 . S
C838 C837 1.392 . S
C838 C839 1.385 . S
C838 C840 1.478 . S
C839 H833 0.930 . S
C839 C835 1.400 1_455 S
C839 C838 1.385 . S
C840 C838 1.478 . S
C840 C842 1.381 . S
C840 C846 1.383 . S
C841 C837 1.495 . S
C841 H847 0.959 . S
C841 H848 0.961 . S
C841 H849 0.960 . S
C842 C840 1.381 . S
C842 C843 1.394 . S
C842 H850 0.930 . S
C843 C842 1.394 . S
C843 C844 1.383 . S
C843 H851 0.929 . S
C844 C843 1.383 . S
C844 C845 1.377 . S
C845 H829 0.930 . S
C845 C844 1.377 . S
C845 C846 1.379 . S
C846 H830 0.931 . S
C846 C840 1.383 . S
C846 C845 1.379 . S
H847 C841 0.959 . S
H848 C841 0.961 . S
H849 C841 0.960 . S
H850 C842 0.930 . S
H851 C843 0.929 . S
H852 C860 0.929 . S
H853 C862 0.930 . S
H854 C864 0.930 . S
H855 C867 0.929 . S
H856 C870 0.930 . S
H857 C872 0.960 1_565 S
H858 C872 0.960 . S
H859 C872 0.960 . S
C860 H852 0.929 . S
C860 C861 1.377 . S
C860 C862 1.384 . S
C861 C860 1.377 . S
C861 C867 1.390 . S
C862 H853 0.930 . S
C862 C860 1.384 . S
C862 C863 1.372 . S
C863 C862 1.372 . S
C863 C864 1.400 . S
C863 C868 1.490 . S
C864 H854 0.930 . S
C864 C863 1.400 . S
C864 C867 1.386 . S
H865 C881 0.930 . S
H866 C882 0.931 . S
C867 H855 0.929 . S
C867 C861 1.390 . S
C867 C864 1.386 . S
C868 C863 1.490 . S
C868 C870 1.395 . S
C868 C871 1.403 . S
H869 C875 0.930 . S
C870 H856 0.930 . S
C870 C868 1.395 . S
C870 C873 1.403 1_545 S
C871 C868 1.403 . S
C871 C872 1.524 . S
C871 C875 1.400 1_545 S
C872 H857 0.960 1_545 S
C872 H858 0.960 . S
C872 H859 0.960 . S
C872 C871 1.524 . S
C873 C870 1.403 1_565 S
C873 C874 1.392 . S
C873 C877 1.495 . S
C874 C873 1.392 . S
C874 C875 1.385 . S
C874 C876 1.478 . S
C875 H869 0.930 . S
C875 C871 1.400 1_565 S
C875 C874 1.385 . S
C876 C874 1.478 . S
C876 C878 1.381 . S
C876 C882 1.383 . S
C877 C873 1.495 . S
C877 H883 0.940 1_565 S
C877 H884 0.961 . S
C877 H885 0.960 . S
C878 C876 1.381 . S
C878 C879 1.394 . S
C878 H886 0.930 . S
C879 C878 1.394 . S
C879 C880 1.383 . S
C879 H887 0.929 . S
C880 C879 1.383 . S
C880 C881 1.377 . S
C881 H865 0.930 . S
C881 C880 1.377 . S
C881 C882 1.379 . S
C882 H866 0.931 . S
C882 C876 1.383 . S
C882 C881 1.379 . S
H883 C877 0.940 1_545 S
H884 C877 0.961 . S
H885 C877 0.960 . S
H886 C878 0.930 . S
H887 C879 0.929 . S
H888 C896 0.929 . S
H889 C898 0.930 . S
H890 C900 0.930 . S
H891 C903 0.929 . S
H892 C906 0.930 . S
H893 C908 0.960 . S
H894 C908 0.960 . S
H895 C908 0.960 . S
C896 H888 0.929 . S
C896 C897 1.377 . S
C896 C898 1.384 . S
C897 C896 1.377 . S
C897 C903 1.390 . S
C898 H889 0.930 . S
C898 C896 1.384 . S
C898 C899 1.372 . S
C899 C898 1.372 . S
C899 C900 1.400 . S
C899 C904 1.490 . S
C900 H890 0.930 . S
C900 C899 1.400 . S
C900 C903 1.386 . S
H901 C917 0.930 . S
H902 C918 0.931 . S
C903 H891 0.929 . S
C903 C897 1.390 . S
C903 C900 1.386 . S
C904 C899 1.490 . S
C904 C906 1.395 . S
C904 C907 1.403 . S
H905 C911 0.930 . S
C906 H892 0.930 . S
C906 C904 1.395 . S
C906 C909 1.403 1_455 S
C907 C904 1.403 . S
C907 C908 1.524 . S
C907 C911 1.400 1_455 S
C908 H893 0.960 . S
C908 H894 0.960 . S
C908 H895 0.960 . S
C908 C907 1.524 . S
C909 C906 1.403 1_655 S
C909 C910 1.392 . S
C909 C913 1.495 . S
C910 C909 1.392 . S
C910 C911 1.385 . S
C910 C912 1.478 . S
C911 H905 0.930 . S
C911 C907 1.400 1_655 S
C911 C910 1.385 . S
C912 C910 1.478 . S
C912 C914 1.381 . S
C912 C918 1.383 . S
C913 C909 1.495 . S
C913 H919 0.959 . S
C913 H920 0.961 . S
C913 H921 0.960 . S
C914 C912 1.381 . S
C914 C915 1.394 . S
C914 H922 0.930 . S
C915 C914 1.394 . S
C915 C916 1.383 . S
C915 H923 0.929 . S
C916 C915 1.383 . S
C916 C917 1.377 . S
C917 H901 0.930 . S
C917 C916 1.377 . S
C917 C918 1.379 . S
C918 H902 0.931 . S
C918 C912 1.383 . S
C918 C917 1.379 . S
H919 C913 0.959 . S
H920 C913 0.961 . S
H921 C913 0.960 . S
H922 C914 0.930 . S
H923 C915 0.929 . S
H924 C932 0.929 . S
H925 C934 0.930 . S
H926 C936 0.930 . S
H927 C939 0.929 . S
H928 C942 0.930 . S
H929 C944 1.002 . S
H930 C944 0.927 1_545 S
H931 C944 0.953 1_545 S
C932 H924 0.929 . S
C932 C933 1.377 . S
C932 C934 1.384 . S
C933 C932 1.377 . S
C933 C939 1.390 . S
C934 H925 0.930 . S
C934 C932 1.384 . S
C934 C935 1.372 . S
C935 C934 1.372 . S
C935 C936 1.400 . S
C935 C940 1.490 . S
C936 H926 0.930 . S
C936 C935 1.400 . S
C936 C939 1.386 . S
H937 C953 0.930 . S
H938 C954 0.931 . S
C939 H927 0.929 . S
C939 C933 1.390 . S
C939 C936 1.386 . S
C940 C935 1.490 . S
C940 C942 1.395 . S
C940 C943 1.428 . S
H941 C947 0.930 . S
C942 H928 0.930 . S
C942 C940 1.395 . S
C942 C945 1.403 . S
C943 C940 1.428 . S
C943 C944 1.521 1_545 S
C943 C947 1.376 1_545 S
C944 H929 1.002 . S
C944 H930 0.927 1_565 S
C944 H931 0.953 1_565 S
C944 C943 1.521 1_565 S
C945 C942 1.403 . S
C945 C946 1.392 1_545 S
C945 C949 1.495 . S
C946 C945 1.392 1_565 S
C946 C947 1.385 . S
C946 C948 1.478 . S
C947 H941 0.930 . S
C947 C943 1.376 1_565 S
C947 C946 1.385 . S
C948 C946 1.478 . S
C948 C950 1.381 . S
C948 C954 1.383 . S
C949 C945 1.495 . S
C949 H955 0.959 . S
C949 H956 0.961 1_545 S
C949 H957 0.960 . S
C950 C948 1.381 . S
C950 C951 1.394 . S
C950 H958 0.930 . S
C951 C950 1.394 . S
C951 C952 1.383 . S
C951 H959 0.929 . S
C952 C951 1.383 . S
C952 C953 1.377 . S
C953 H937 0.930 . S
C953 C952 1.377 . S
C953 C954 1.379 . S
C954 H938 0.931 . S
C954 C948 1.383 . S
C954 C953 1.379 . S
H955 C949 0.959 . S
H956 C949 0.961 1_565 S
H957 C949 0.960 . S
H958 C950 0.930 . S
H959 C951 0.929 . S
H960 C968 0.929 . S
H961 C970 0.930 . S
H962 C972 0.930 . S
H963 C975 0.929 . S
H964 C978 0.930 . S
H965 C980 0.960 . S
H966 C980 0.960 1_554 S
H967 C980 0.960 . S
C968 H960 0.929 . S
C968 C969 1.377 . S
C968 C970 1.384 . S
C969 C968 1.377 . S
C969 C975 1.390 . S
C970 H961 0.930 . S
C970 C968 1.384 . S
C970 C971 1.372 . S
C971 C970 1.372 . S
C971 C972 1.400 . S
C971 C976 1.490 . S
C972 H962 0.930 . S
C972 C971 1.400 . S
C972 C975 1.386 . S
H973 C989 0.930 . S
H974 C990 0.931 . S
C975 H963 0.929 . S
C975 C969 1.390 . S
C975 C972 1.386 . S
C976 C971 1.490 . S
C976 C978 1.395 . S
C976 C979 1.403 1_554 S
H977 C983 0.930 . S
C978 H964 0.930 . S
C978 C976 1.395 . S
C978 C981 1.403 . S
C979 C976 1.403 1_556 S
C979 C980 1.524 . S
C979 C983 1.400 . S
C980 H965 0.960 . S
C980 H966 0.960 1_556 S
C980 H967 0.960 . S
C980 C979 1.524 . S
C981 C978 1.403 . S
C981 C982 1.392 1_554 S
C981 C985 1.495 . S
C982 C981 1.392 1_556 S
C982 C983 1.385 . S
C982 C984 1.478 . S
C983 H977 0.930 . S
C983 C979 1.400 . S
C983 C982 1.385 . S
C984 C982 1.478 . S
C984 C986 1.381 . S
C984 C990 1.383 . S
C985 C981 1.495 . S
C985 H991 0.959 . S
C985 H992 0.977 . S
C985 H993 0.960 . S
C986 C984 1.381 . S
C986 C987 1.394 . S
C986 H994 0.930 . S
C987 C986 1.394 . S
C987 C988 1.383 . S
C987 H995 0.929 . S
C988 C987 1.383 . S
C988 C989 1.377 . S
C989 H973 0.930 . S
C989 C988 1.377 . S
C989 C990 1.379 . S
C990 H974 0.931 . S
C990 C984 1.383 . S
C990 C989 1.379 . S
H991 C985 0.959 . S
H992 C985 0.977 . S
H993 C985 0.960 . S
H994 C986 0.930 . S
H995 C987 0.929 . S
H996 C1004 0.929 . S
H997 C1006 0.930 . S
H998 C1008 0.930 . S
H999 C1011 0.929 . S
H1000 C1014 0.930 . S
H1001 C1016 0.960 . S
H1002 C1016 0.970 . S
H1003 C1016 0.960 . S
C1004 H996 0.929 . S
C1004 C1005 1.377 . S
C1004 C1006 1.384 . S
C1005 C1004 1.377 . S
C1005 C1011 1.390 . S
C1006 H997 0.930 . S
C1006 C1004 1.384 . S
C1006 C1007 1.372 . S
C1007 C1006 1.372 . S
C1007 C1008 1.400 . S
C1007 C1012 1.490 . S
C1008 H998 0.930 . S
C1008 C1007 1.400 . S
C1008 C1011 1.386 . S
H1009 C1025 0.930 . S
H1010 C1026 0.931 . S
C1011 H999 0.929 . S
C1011 C1005 1.390 . S
C1011 C1008 1.386 . S
C1012 C1007 1.490 . S
C1012 C1014 1.395 . S
C1012 C1015 1.403 1_556 S
H1013 C1019 0.930 . S
C1014 H1000 0.930 . S
C1014 C1012 1.395 . S
C1014 C1017 1.403 . S
C1015 C1012 1.403 1_554 S
C1015 C1016 1.524 . S
C1015 C1019 1.400 . S
C1016 H1001 0.960 . S
C1016 H1002 0.970 . S
C1016 H1003 0.960 . S
C1016 C1015 1.524 . S
C1017 C1014 1.403 . S
C1017 C1018 1.392 1_556 S
C1017 C1021 1.495 . S
C1018 C1017 1.392 1_554 S
C1018 C1019 1.385 . S
C1018 C1020 1.478 . S
C1019 H1013 0.930 . S
C1019 C1015 1.400 . S
C1019 C1018 1.385 . S
C1020 C1018 1.478 . S
C1020 C1022 1.381 . S
C1020 C1026 1.383 . S
C1021 C1017 1.495 . S
C1021 H1027 0.959 . S
C1021 H1028 0.961 . S
C1021 H1029 0.960 . S
C1022 C1020 1.381 . S
C1022 C1023 1.394 . S
C1022 H1030 0.930 . S
C1023 C1022 1.394 . S
C1023 C1024 1.383 . S
C1023 H1031 0.929 . S
C1024 C1023 1.383 . S
C1024 C1025 1.377 . S
C1025 H1009 0.930 . S
C1025 C1024 1.377 . S
C1025 C1026 1.379 . S
C1026 H1010 0.931 . S
C1026 C1020 1.383 . S
C1026 C1025 1.379 . S
H1027 C1021 0.959 . S
H1028 C1021 0.961 . S
H1029 C1021 0.960 . S
H1030 C1022 0.930 . S
H1031 C1023 0.929 . S
H1032 C1040 0.929 . S
H1033 C1042 0.930 . S
H1034 C1044 0.930 . S
H1035 C1047 0.929 . S
H1036 C1050 0.930 . S
H1037 C1052 0.960 1_554 S
H1038 C1052 0.960 . S
H1039 C1052 0.960 . S
C1040 H1032 0.929 . S
C1040 C1041 1.377 . S
C1040 C1042 1.384 . S
C1041 C1040 1.377 . S
C1041 C1047 1.390 . S
C1042 H1033 0.930 . S
C1042 C1040 1.384 . S
C1042 C1043 1.372 . S
C1043 C1042 1.372 . S
C1043 C1044 1.400 . S
C1043 C1048 1.490 . S
C1044 H1034 0.930 . S
C1044 C1043 1.400 . S
C1044 C1047 1.386 . S
H1045 C1061 0.930 . S
H1046 C1062 0.931 . S
C1047 H1035 0.929 . S
C1047 C1041 1.390 . S
C1047 C1044 1.386 . S
C1048 C1043 1.490 . S
C1048 C1050 1.395 . S
C1048 C1051 1.403 . S
H1049 C1055 0.930 . S
C1050 H1036 0.930 . S
C1050 C1048 1.395 . S
C1050 C1053 1.403 1_556 S
C1051 C1048 1.403 . S
C1051 C1052 1.524 . S
C1051 C1055 1.400 1_556 S
C1052 H1037 0.960 1_556 S
C1052 H1038 0.960 . S
C1052 H1039 0.960 . S
C1052 C1051 1.524 . S
C1053 C1050 1.403 1_554 S
C1053 C1054 1.392 . S
C1053 C1057 1.495 . S
C1054 C1053 1.392 . S
C1054 C1055 1.385 . S
C1054 C1056 1.478 . S
C1055 H1049 0.930 . S
C1055 C1051 1.400 1_554 S
C1055 C1054 1.385 . S
C1056 C1054 1.478 . S
C1056 C1058 1.381 . S
C1056 C1062 1.383 . S
C1057 C1053 1.495 . S
C1057 H1063 0.959 1_554 S
C1057 H1064 0.961 . S
C1057 H1065 0.960 . S
C1058 C1056 1.381 . S
C1058 C1059 1.394 . S
C1058 H1066 0.930 . S
C1059 C1058 1.394 . S
C1059 C1060 1.383 . S
C1059 H1067 0.929 . S
C1060 C1059 1.383 . S
C1060 C1061 1.377 . S
C1061 H1045 0.930 . S
C1061 C1060 1.377 . S
C1061 C1062 1.379 . S
C1062 H1046 0.931 . S
C1062 C1056 1.383 . S
C1062 C1061 1.379 . S
H1063 C1057 0.959 1_556 S
H1064 C1057 0.961 . S
H1065 C1057 0.960 . S
H1066 C1058 0.930 . S
H1067 C1059 0.929 . S
H1068 C1076 0.929 . S
H1069 C1078 0.930 . S
H1070 C1080 0.930 . S
H1071 C1083 0.929 . S
H1072 C1086 0.929 . S
H1073 C1088 0.960 . S
H1074 C1088 0.960 . S
H1075 C1088 0.960 . S
C1076 H1068 0.929 . S
C1076 C1077 1.377 . S
C1076 C1078 1.384 . S
C1077 C1076 1.377 . S
C1077 C1083 1.390 . S
C1078 H1069 0.930 . S
C1078 C1076 1.384 . S
C1078 C1079 1.372 . S
C1079 C1078 1.372 . S
C1079 C1080 1.400 . S
C1079 C1084 1.490 . S
C1080 H1070 0.930 . S
C1080 C1079 1.400 . S
C1080 C1083 1.386 . S
H1081 C1097 0.930 . S
H1082 C1098 0.931 . S
C1083 H1071 0.929 . S
C1083 C1077 1.390 . S
C1083 C1080 1.386 . S
C1084 C1079 1.490 . S
C1084 C1086 1.349 1_556 S
C1084 C1087 1.403 . S
H1085 C1091 0.930 . S
C1086 H1072 0.929 . S
C1086 C1084 1.349 1_554 S
C1086 C1089 1.452 . S
C1087 C1084 1.403 . S
C1087 C1088 1.524 . S
C1087 C1091 1.400 1_556 S
C1088 H1073 0.960 . S
C1088 H1074 0.960 . S
C1088 H1075 0.960 . S
C1088 C1087 1.524 . S
C1089 C1086 1.452 . S
C1089 C1090 1.392 . S
C1089 C1093 1.495 . S
C1090 C1089 1.392 . S
C1090 C1091 1.385 . S
C1090 C1092 1.478 . S
C1091 H1085 0.930 . S
C1091 C1087 1.400 1_554 S
C1091 C1090 1.385 . S
C1092 C1090 1.478 . S
C1092 C1094 1.381 . S
C1092 C1098 1.383 . S
C1093 C1089 1.495 . S
C1093 H1099 0.959 . S
C1093 H1100 0.961 . S
C1093 H1101 0.960 . S
C1094 C1092 1.381 . S
C1094 C1095 1.394 . S
C1094 H1102 0.930 . S
C1095 C1094 1.394 . S
C1095 C1096 1.383 . S
C1095 H1103 0.929 . S
C1096 C1095 1.383 . S
C1096 C1097 1.377 . S
C1097 H1081 0.930 . S
C1097 C1096 1.377 . S
C1097 C1098 1.379 . S
C1098 H1082 0.931 . S
C1098 C1092 1.383 . S
C1098 C1097 1.379 . S
H1099 C1093 0.959 . S
H1100 C1093 0.961 . S
H1101 C1093 0.960 . S
H1102 C1094 0.930 . S
H1103 C1095 0.929 . S
H1104 C1112 0.929 . S
H1105 C1114 0.930 . S
H1106 C1116 0.930 . S
H1107 C1119 0.929 . S
H1108 C1122 0.930 . S
H1109 C1124 0.960 . S
H1110 C1124 0.960 . S
H1111 C1124 0.960 . S
C1112 H1104 0.929 . S
C1112 C1113 1.377 . S
C1112 C1114 1.384 . S
C1113 C1112 1.377 . S
C1113 C1119 1.390 . S
C1114 H1105 0.930 . S
C1114 C1112 1.384 . S
C1114 C1115 1.372 . S
C1115 C1114 1.372 . S
C1115 C1116 1.400 . S
C1115 C1120 1.490 . S
C1116 H1106 0.930 . S
C1116 C1115 1.400 . S
C1116 C1119 1.386 . S
H1117 C1133 0.930 . S
H1118 C1134 0.931 . S
C1119 H1107 0.929 . S
C1119 C1113 1.390 . S
C1119 C1116 1.386 . S
C1120 C1115 1.490 . S
C1120 C1122 1.395 . S
C1120 C1123 1.403 . S
H1121 C1127 0.930 . S
C1122 H1108 0.930 . S
C1122 C1120 1.395 . S
C1122 C1125 1.403 . S
C1123 C1120 1.403 . S
C1123 C1124 1.524 . S
C1123 C1127 1.400 . S
C1124 H1109 0.960 . S
C1124 H1110 0.960 . S
C1124 H1111 0.960 . S
C1124 C1123 1.524 . S
C1125 C1122 1.403 . S
C1125 C1126 1.392 . S
C1125 C1129 1.495 . S
C1126 C1125 1.392 . S
C1126 C1127 1.385 . S
C1126 C1128 1.478 . S
C1127 H1121 0.930 . S
C1127 C1123 1.400 . S
C1127 C1126 1.385 . S
C1128 C1126 1.478 . S
C1128 C1130 1.381 . S
C1128 C1134 1.383 . S
C1129 C1125 1.495 . S
C1129 H1135 0.959 . S
C1129 H1136 0.961 . S
C1129 H1137 0.960 . S
C1130 C1128 1.381 . S
C1130 C1131 1.394 . S
C1130 H1138 0.930 . S
C1131 C1130 1.394 . S
C1131 C1132 1.383 . S
C1131 H1139 0.929 . S
C1132 C1131 1.383 . S
C1132 C1133 1.377 . S
C1133 H1117 0.930 . S
C1133 C1132 1.377 . S
C1133 C1134 1.379 . S
C1134 H1118 0.931 . S
C1134 C1128 1.383 . S
C1134 C1133 1.379 . S
H1135 C1129 0.959 . S
H1136 C1129 0.961 . S
H1137 C1129 0.960 . S
H1138 C1130 0.930 . S
H1139 C1131 0.929 . S
H1140 C1148 0.929 . S
H1141 C1150 0.930 . S
H1142 C1152 0.930 . S
H1143 C1155 0.929 . S
H1144 C1158 0.930 . S
H1145 C1160 0.960 . S
H1146 C1160 0.960 . S
H1147 C1160 0.960 . S
C1148 H1140 0.929 . S
C1148 C1149 1.377 . S
C1148 C1150 1.384 . S
C1149 C1148 1.377 . S
C1149 C1155 1.390 . S
C1150 H1141 0.930 . S
C1150 C1148 1.384 . S
C1150 C1151 1.372 . S
C1151 C1150 1.372 . S
C1151 C1152 1.400 . S
C1151 C1156 1.490 . S
C1152 H1142 0.930 . S
C1152 C1151 1.400 . S
C1152 C1155 1.386 . S
H1153 C1169 0.930 . S
H1154 C1170 0.931 . S
C1155 H1143 0.929 . S
C1155 C1149 1.390 . S
C1155 C1152 1.386 . S
C1156 C1151 1.490 . S
C1156 C1158 1.395 . S
C1156 C1159 1.403 . S
H1157 C1163 0.930 . S
C1158 H1144 0.930 . S
C1158 C1156 1.395 . S
C1158 C1161 1.403 . S
C1159 C1156 1.403 . S
C1159 C1160 1.524 . S
C1159 C1163 1.400 . S
C1160 H1145 0.960 . S
C1160 H1146 0.960 . S
C1160 H1147 0.960 . S
C1160 C1159 1.524 . S
C1161 C1158 1.403 . S
C1161 C1162 1.392 . S
C1161 C1165 1.495 . S
C1162 C1161 1.392 . S
C1162 C1163 1.385 . S
C1162 C1164 1.478 . S
C1163 H1157 0.930 . S
C1163 C1159 1.400 . S
C1163 C1162 1.385 . S
C1164 C1162 1.478 . S
C1164 C1166 1.381 . S
C1164 C1170 1.383 . S
C1165 C1161 1.495 . S
C1165 H1171 0.959 . S
C1165 H1172 0.961 . S
C1165 H1173 0.960 . S
C1166 C1164 1.381 . S
C1166 C1167 1.394 . S
C1166 H1174 0.930 . S
C1167 C1166 1.394 . S
C1167 C1168 1.383 . S
C1167 H1175 0.929 . S
C1168 C1167 1.383 . S
C1168 C1169 1.377 . S
C1169 H1153 0.930 . S
C1169 C1168 1.377 . S
C1169 C1170 1.379 . S
C1170 H1154 0.931 . S
C1170 C1164 1.383 . S
C1170 C1169 1.379 . S
H1171 C1165 0.959 . S
H1172 C1165 0.961 . S
H1173 C1165 0.960 . S
H1174 C1166 0.930 . S
H1175 C1167 0.929 . S
H1176 C1184 0.929 . S
H1177 C1186 0.930 . S
H1178 C1188 0.930 . S
H1179 C1191 0.929 . S
H1180 C1194 0.930 . S
H1181 C1196 0.960 . S
H1182 C1196 0.960 . S
H1183 C1196 0.960 . S
C1184 H1176 0.929 . S
C1184 C1185 1.377 . S
C1184 C1186 1.384 . S
C1185 C1184 1.377 . S
C1185 C1191 1.390 . S
C1186 H1177 0.930 . S
C1186 C1184 1.384 . S
C1186 C1187 1.372 . S
C1187 C1186 1.372 . S
C1187 C1188 1.400 . S
C1187 C1192 1.490 . S
C1188 H1178 0.930 . S
C1188 C1187 1.400 . S
C1188 C1191 1.386 . S
H1189 C1205 0.930 . S
H1190 C1206 0.931 . S
C1191 H1179 0.929 . S
C1191 C1185 1.390 . S
C1191 C1188 1.386 . S
C1192 C1187 1.490 . S
C1192 C1194 1.395 . S
C1192 C1195 1.403 . S
H1193 C1199 0.930 . S
C1194 H1180 0.930 . S
C1194 C1192 1.395 . S
C1194 C1197 1.403 . S
C1195 C1192 1.403 . S
C1195 C1196 1.524 . S
C1195 C1199 1.400 . S
C1196 H1181 0.960 . S
C1196 H1182 0.960 . S
C1196 H1183 0.960 . S
C1196 C1195 1.524 . S
C1197 C1194 1.403 . S
C1197 C1198 1.392 . S
C1197 C1201 1.495 . S
C1198 C1197 1.392 . S
C1198 C1199 1.385 . S
C1198 C1200 1.478 . S
C1199 H1193 0.930 . S
C1199 C1195 1.400 . S
C1199 C1198 1.385 . S
C1200 C1198 1.478 . S
C1200 C1202 1.381 . S
C1200 C1206 1.383 . S
C1201 C1197 1.495 . S
C1201 H1207 0.959 . S
C1201 H1208 0.961 . S
C1201 H1209 0.960 . S
C1202 C1200 1.381 . S
C1202 C1203 1.394 . S
C1202 H1210 0.930 . S
C1203 C1202 1.394 . S
C1203 C1204 1.383 . S
C1203 H1211 0.929 . S
C1204 C1203 1.383 . S
C1204 C1205 1.377 . S
C1205 H1189 0.930 . S
C1205 C1204 1.377 . S
C1205 C1206 1.379 . S
C1206 H1190 0.931 . S
C1206 C1200 1.383 . S
C1206 C1205 1.379 . S
H1207 C1201 0.959 . S
H1208 C1201 0.961 . S
H1209 C1201 0.960 . S
H1210 C1202 0.930 . S
H1211 C1203 0.929 . S
H1212 C1220 0.929 . S
H1213 C1222 0.930 . S
H1214 C1224 0.930 . S
H1215 C1227 0.929 . S
H1216 C1230 0.930 . S
H1217 C1232 0.960 . S
H1218 C1232 0.960 . S
H1219 C1232 0.960 . S
C1220 H1212 0.929 . S
C1220 C1221 1.377 . S
C1220 C1222 1.384 . S
C1221 C1220 1.377 . S
C1221 C1227 1.390 . S
C1222 H1213 0.930 . S
C1222 C1220 1.384 . S
C1222 C1223 1.372 . S
C1223 C1222 1.372 . S
C1223 C1224 1.400 . S
C1223 C1228 1.490 . S
C1224 H1214 0.930 . S
C1224 C1223 1.400 . S
C1224 C1227 1.386 . S
H1225 C1241 0.930 . S
H1226 C1242 0.931 . S
C1227 H1215 0.929 . S
C1227 C1221 1.390 . S
C1227 C1224 1.386 . S
C1228 C1223 1.490 . S
C1228 C1230 1.395 . S
C1228 C1231 1.403 . S
H1229 C1235 0.930 . S
C1230 H1216 0.930 . S
C1230 C1228 1.395 . S
C1230 C1233 1.403 . S
C1231 C1228 1.403 . S
C1231 C1232 1.524 . S
C1231 C1235 1.400 . S
C1232 H1217 0.960 . S
C1232 H1218 0.960 . S
C1232 H1219 0.960 . S
C1232 C1231 1.524 . S
C1233 C1230 1.403 . S
C1233 C1234 1.392 . S
C1233 C1237 1.495 . S
C1234 C1233 1.392 . S
C1234 C1235 1.385 . S
C1234 C1236 1.478 . S
C1235 H1229 0.930 . S
C1235 C1231 1.400 . S
C1235 C1234 1.385 . S
C1236 C1234 1.478 . S
C1236 C1238 1.381 . S
C1236 C1242 1.383 . S
C1237 C1233 1.495 . S
C1237 H1243 0.959 . S
C1237 H1244 0.961 . S
C1237 H1245 0.960 . S
C1238 C1236 1.381 . S
C1238 C1239 1.394 . S
C1238 H1246 0.930 . S
C1239 C1238 1.394 . S
C1239 C1240 1.383 . S
C1239 H1247 0.929 . S
C1240 C1239 1.383 . S
C1240 C1241 1.377 . S
C1241 H1225 0.930 . S
C1241 C1240 1.377 . S
C1241 C1242 1.379 . S
C1242 H1226 0.931 . S
C1242 C1236 1.383 . S
C1242 C1241 1.379 . S
H1243 C1237 0.959 . S
H1244 C1237 0.961 . S
H1245 C1237 0.960 . S
H1246 C1238 0.930 . S
H1247 C1239 0.929 . S
H1248 C1256 0.929 . S
H1249 C1258 0.930 . S
H1250 C1260 0.930 . S
H1251 C1263 0.929 . S
H1252 C1266 0.930 . S
H1253 C1268 0.960 . S
H1254 C1268 0.960 . S
H1255 C1268 0.960 . S
C1256 H1248 0.929 . S
C1256 C1257 1.377 . S
C1256 C1258 1.384 . S
C1257 C1256 1.377 . S
C1257 C1263 1.390 . S
C1258 H1249 0.930 . S
C1258 C1256 1.384 . S
C1258 C1259 1.372 . S
C1259 C1258 1.372 . S
C1259 C1260 1.400 . S
C1259 C1264 1.490 . S
C1260 H1250 0.930 . S
C1260 C1259 1.400 . S
C1260 C1263 1.386 . S
H1261 C1277 0.930 . S
H1262 C1278 0.931 . S
C1263 H1251 0.929 . S
C1263 C1257 1.390 . S
C1263 C1260 1.386 . S
C1264 C1259 1.490 . S
C1264 C1266 1.395 . S
C1264 C1267 1.403 . S
H1265 C1271 0.930 . S
C1266 H1252 0.930 . S
C1266 C1264 1.395 . S
C1266 C1269 1.403 . S
C1267 C1264 1.403 . S
C1267 C1268 1.524 . S
C1267 C1271 1.400 . S
C1268 H1253 0.960 . S
C1268 H1254 0.960 . S
C1268 H1255 0.960 . S
C1268 C1267 1.524 . S
C1269 C1266 1.403 . S
C1269 C1270 1.392 . S
C1269 C1273 1.495 . S
C1270 C1269 1.392 . S
C1270 C1271 1.385 . S
C1270 C1272 1.478 . S
C1271 H1265 0.930 . S
C1271 C1267 1.400 . S
C1271 C1270 1.385 . S
C1272 C1270 1.478 . S
C1272 C1274 1.381 . S
C1272 C1278 1.383 . S
C1273 C1269 1.495 . S
C1273 H1279 0.959 . S
C1273 H1280 0.961 . S
C1273 H1281 0.960 . S
C1274 C1272 1.381 . S
C1274 C1275 1.394 . S
C1274 H1282 0.930 . S
C1275 C1274 1.394 . S
C1275 C1276 1.383 . S
C1275 H1283 0.929 . S
C1276 C1275 1.383 . S
C1276 C1277 1.377 . S
C1277 H1261 0.930 . S
C1277 C1276 1.377 . S
C1277 C1278 1.379 . S
C1278 H1262 0.931 . S
C1278 C1272 1.383 . S
C1278 C1277 1.379 . S
H1279 C1273 0.959 . S
H1280 C1273 0.961 . S
H1281 C1273 0.960 . S
H1282 C1274 0.930 . S
H1283 C1275 0.929 . S
H1284 C1292 0.929 . S
H1285 C1294 0.930 . S
H1286 C1296 0.930 . S
H1287 C1299 0.929 . S
H1288 C1302 0.930 . S
H1289 C1304 0.960 . S
H1290 C1304 0.960 . S
H1291 C1304 0.960 . S
C1292 H1284 0.929 . S
C1292 C1293 1.377 . S
C1292 C1294 1.384 . S
C1293 C1292 1.377 . S
C1293 C1299 1.390 . S
C1294 H1285 0.930 . S
C1294 C1292 1.384 . S
C1294 C1295 1.372 . S
C1295 C1294 1.372 . S
C1295 C1296 1.400 . S
C1295 C1300 1.490 . S
C1296 H1286 0.930 . S
C1296 C1295 1.400 . S
C1296 C1299 1.386 . S
H1297 C1313 0.930 . S
H1298 C1314 0.931 . S
C1299 H1287 0.929 . S
C1299 C1293 1.390 . S
C1299 C1296 1.386 . S
C1300 C1295 1.490 . S
C1300 C1302 1.395 . S
C1300 C1303 1.403 . S
H1301 C1307 0.930 . S
C1302 H1288 0.930 . S
C1302 C1300 1.395 . S
C1302 C1305 1.403 . S
C1303 C1300 1.403 . S
C1303 C1304 1.524 . S
C1303 C1307 1.400 . S
C1304 H1289 0.960 . S
C1304 H1290 0.960 . S
C1304 H1291 0.960 . S
C1304 C1303 1.524 . S
C1305 C1302 1.403 . S
C1305 C1306 1.392 . S
C1305 C1309 1.495 . S
C1306 C1305 1.392 . S
C1306 C1307 1.385 . S
C1306 C1308 1.478 . S
C1307 H1301 0.930 . S
C1307 C1303 1.400 . S
C1307 C1306 1.385 . S
C1308 C1306 1.478 . S
C1308 C1310 1.381 . S
C1308 C1314 1.383 . S
C1309 C1305 1.495 . S
C1309 H1315 0.959 . S
C1309 H1316 0.961 . S
C1309 H1317 0.960 . S
C1310 C1308 1.381 . S
C1310 C1311 1.394 . S
C1310 H1318 0.930 . S
C1311 C1310 1.394 . S
C1311 C1312 1.383 . S
C1311 H1319 0.929 . S
C1312 C1311 1.383 . S
C1312 C1313 1.377 . S
C1313 H1297 0.930 . S
C1313 C1312 1.377 . S
C1313 C1314 1.379 . S
C1314 H1298 0.931 . S
C1314 C1308 1.383 . S
C1314 C1313 1.379 . S
H1315 C1309 0.959 . S
H1316 C1309 0.961 . S
H1317 C1309 0.960 . S
H1318 C1310 0.930 . S
H1319 C1311 0.929 . S
H1320 C1328 0.929 . S
H1321 C1330 0.930 . S
H1322 C1332 0.930 . S
H1323 C1335 0.929 . S
H1324 C1338 0.930 . S
H1325 C1340 0.960 . S
H1326 C1340 0.960 . S
H1327 C1340 0.960 . S
C1328 H1320 0.929 . S
C1328 C1329 1.377 . S
C1328 C1330 1.384 . S
C1329 C1328 1.377 . S
C1329 C1335 1.390 . S
C1330 H1321 0.930 . S
C1330 C1328 1.384 . S
C1330 C1331 1.372 . S
C1331 C1330 1.372 . S
C1331 C1332 1.400 . S
C1331 C1336 1.490 . S
C1332 H1322 0.930 . S
C1332 C1331 1.400 . S
C1332 C1335 1.386 . S
H1333 C1349 0.930 . S
H1334 C1350 0.931 . S
C1335 H1323 0.929 . S
C1335 C1329 1.390 . S
C1335 C1332 1.386 . S
C1336 C1331 1.490 . S
C1336 C1338 1.395 . S
C1336 C1339 1.403 . S
H1337 C1343 0.930 . S
C1338 H1324 0.930 . S
C1338 C1336 1.395 . S
C1338 C1341 1.403 . S
C1339 C1336 1.403 . S
C1339 C1340 1.524 . S
C1339 C1343 1.400 . S
C1340 H1325 0.960 . S
C1340 H1326 0.960 . S
C1340 H1327 0.960 . S
C1340 C1339 1.524 . S
C1341 C1338 1.403 . S
C1341 C1342 1.392 . S
C1341 C1345 1.495 . S
C1342 C1341 1.392 . S
C1342 C1343 1.385 . S
C1342 C1344 1.478 . S
C1343 H1337 0.930 . S
C1343 C1339 1.400 . S
C1343 C1342 1.385 . S
C1344 C1342 1.478 . S
C1344 C1346 1.381 . S
C1344 C1350 1.383 . S
C1345 C1341 1.495 . S
C1345 H1351 0.959 . S
C1345 H1352 0.961 . S
C1345 H1353 0.960 . S
C1346 C1344 1.381 . S
C1346 C1347 1.394 . S
C1346 H1354 0.930 . S
C1347 C1346 1.394 . S
C1347 C1348 1.383 . S
C1347 H1355 0.929 . S
C1348 C1347 1.383 . S
C1348 C1349 1.377 . S
C1349 H1333 0.930 . S
C1349 C1348 1.377 . S
C1349 C1350 1.379 . S
C1350 H1334 0.931 . S
C1350 C1344 1.383 . S
C1350 C1349 1.379 . S
H1351 C1345 0.959 . S
H1352 C1345 0.961 . S
H1353 C1345 0.960 . S
H1354 C1346 0.930 . S
H1355 C1347 0.929 . S
H1356 C1364 0.929 . S
H1357 C1366 0.930 . S
H1358 C1368 0.930 . S
H1359 C1371 0.929 . S
H1360 C1374 0.930 . S
H1361 C1376 0.960 . S
H1362 C1376 0.960 . S
H1363 C1376 0.960 . S
C1364 H1356 0.929 . S
C1364 C1365 1.377 . S
C1364 C1366 1.384 . S
C1365 C1364 1.377 . S
C1365 C1371 1.390 . S
C1366 H1357 0.930 . S
C1366 C1364 1.384 . S
C1366 C1367 1.372 . S
C1367 C1366 1.372 . S
C1367 C1368 1.400 . S
C1367 C1372 1.490 . S
C1368 H1358 0.930 . S
C1368 C1367 1.400 . S
C1368 C1371 1.386 . S
H1369 C1385 0.930 . S
H1370 C1386 0.931 . S
C1371 H1359 0.929 . S
C1371 C1365 1.390 . S
C1371 C1368 1.386 . S
C1372 C1367 1.490 . S
C1372 C1374 1.395 . S
C1372 C1375 1.403 . S
H1373 C1379 0.930 . S
C1374 H1360 0.930 . S
C1374 C1372 1.395 . S
C1374 C1377 1.403 . S
C1375 C1372 1.403 . S
C1375 C1376 1.524 . S
C1375 C1379 1.400 . S
C1376 H1361 0.960 . S
C1376 H1362 0.960 . S
C1376 H1363 0.960 . S
C1376 C1375 1.524 . S
C1377 C1374 1.403 . S
C1377 C1378 1.392 . S
C1377 C1381 1.495 . S
C1378 C1377 1.392 . S
C1378 C1379 1.385 . S
C1378 C1380 1.478 . S
C1379 H1373 0.930 . S
C1379 C1375 1.400 . S
C1379 C1378 1.385 . S
C1380 C1378 1.478 . S
C1380 C1382 1.381 . S
C1380 C1386 1.383 . S
C1381 C1377 1.495 . S
C1381 H1387 0.959 . S
C1381 H1388 0.961 . S
C1381 H1389 0.960 . S
C1382 C1380 1.381 . S
C1382 C1383 1.394 . S
C1382 H1390 0.930 . S
C1383 C1382 1.394 . S
C1383 C1384 1.383 . S
C1383 H1391 0.929 . S
C1384 C1383 1.383 . S
C1384 C1385 1.377 . S
C1385 H1369 0.930 . S
C1385 C1384 1.377 . S
C1385 C1386 1.379 . S
C1386 H1370 0.931 . S
C1386 C1380 1.383 . S
C1386 C1385 1.379 . S
H1387 C1381 0.959 . S
H1388 C1381 0.961 . S
H1389 C1381 0.960 . S
H1390 C1382 0.930 . S
H1391 C1383 0.929 . S
H1392 C1400 0.929 . S
H1393 C1402 0.930 . S
H1394 C1404 0.930 . S
H1395 C1407 0.929 . S
H1396 C1410 0.930 . S
H1397 C1412 0.960 . S
H1398 C1412 0.960 . S
H1399 C1412 0.960 . S
C1400 H1392 0.929 . S
C1400 C1401 1.377 . S
C1400 C1402 1.384 . S
C1401 C1400 1.377 . S
C1401 C1407 1.390 . S
C1402 H1393 0.930 . S
C1402 C1400 1.384 . S
C1402 C1403 1.372 . S
C1403 C1402 1.372 . S
C1403 C1404 1.400 . S
C1403 C1408 1.490 . S
C1404 H1394 0.930 . S
C1404 C1403 1.400 . S
C1404 C1407 1.386 . S
H1405 C1421 0.930 . S
H1406 C1422 0.931 . S
C1407 H1395 0.929 . S
C1407 C1401 1.390 . S
C1407 C1404 1.386 . S
C1408 C1403 1.490 . S
C1408 C1410 1.395 . S
C1408 C1411 1.403 . S
H1409 C1415 0.930 . S
C1410 H1396 0.930 . S
C1410 C1408 1.395 . S
C1410 C1413 1.403 . S
C1411 C1408 1.403 . S
C1411 C1412 1.524 . S
C1411 C1415 1.400 . S
C1412 H1397 0.960 . S
C1412 H1398 0.960 . S
C1412 H1399 0.960 . S
C1412 C1411 1.524 . S
C1413 C1410 1.403 . S
C1413 C1414 1.392 . S
C1413 C1417 1.495 . S
C1414 C1413 1.392 . S
C1414 C1415 1.385 . S
C1414 C1416 1.478 . S
C1415 H1409 0.930 . S
C1415 C1411 1.400 . S
C1415 C1414 1.385 . S
C1416 C1414 1.478 . S
C1416 C1418 1.381 . S
C1416 C1422 1.383 . S
C1417 C1413 1.495 . S
C1417 H1423 0.959 . S
C1417 H1424 0.961 . S
C1417 H1425 0.960 . S
C1418 C1416 1.381 . S
C1418 C1419 1.394 . S
C1418 H1426 0.930 . S
C1419 C1418 1.394 . S
C1419 C1420 1.383 . S
C1419 H1427 0.929 . S
C1420 C1419 1.383 . S
C1420 C1421 1.377 . S
C1421 H1405 0.930 . S
C1421 C1420 1.377 . S
C1421 C1422 1.379 . S
C1422 H1406 0.931 . S
C1422 C1416 1.383 . S
C1422 C1421 1.379 . S
H1423 C1417 0.959 . S
H1424 C1417 0.961 . S
H1425 C1417 0.960 . S
H1426 C1418 0.930 . S
H1427 C1419 0.929 . S
H1428 C1436 0.929 . S
H1429 C1438 0.930 . S
H1430 C1440 0.930 . S
H1431 C1443 0.929 . S
H1432 C1446 0.930 . S
H1433 C1448 0.960 . S
H1434 C1448 0.960 . S
H1435 C1448 0.960 . S
C1436 H1428 0.929 . S
C1436 C1437 1.377 . S
C1436 C1438 1.384 . S
C1437 C1436 1.377 . S
C1437 C1443 1.390 . S
C1438 H1429 0.930 . S
C1438 C1436 1.384 . S
C1438 C1439 1.372 . S
C1439 C1438 1.372 . S
C1439 C1440 1.400 . S
C1439 C1444 1.490 . S
C1440 H1430 0.930 . S
C1440 C1439 1.400 . S
C1440 C1443 1.386 . S
H1441 C1457 0.930 . S
H1442 C1458 0.931 . S
C1443 H1431 0.929 . S
C1443 C1437 1.390 . S
C1443 C1440 1.386 . S
C1444 C1439 1.490 . S
C1444 C1446 1.395 . S
C1444 C1447 1.403 . S
H1445 C1451 0.930 . S
C1446 H1432 0.930 . S
C1446 C1444 1.395 . S
C1446 C1449 1.403 . S
C1447 C1444 1.403 . S
C1447 C1448 1.524 . S
C1447 C1451 1.400 . S
C1448 H1433 0.960 . S
C1448 H1434 0.960 . S
C1448 H1435 0.960 . S
C1448 C1447 1.524 . S
C1449 C1446 1.403 . S
C1449 C1450 1.392 . S
C1449 C1453 1.495 . S
C1450 C1449 1.392 . S
C1450 C1451 1.385 . S
C1450 C1452 1.478 . S
C1451 H1445 0.930 . S
C1451 C1447 1.400 . S
C1451 C1450 1.385 . S
C1452 C1450 1.478 . S
C1452 C1454 1.381 . S
C1452 C1458 1.383 . S
C1453 C1449 1.495 . S
C1453 H1459 0.959 . S
C1453 H1460 0.961 . S
C1453 H1461 0.960 . S
C1454 C1452 1.381 . S
C1454 C1455 1.394 . S
C1454 H1462 0.930 . S
C1455 C1454 1.394 . S
C1455 C1456 1.383 . S
C1455 H1463 0.929 . S
C1456 C1455 1.383 . S
C1456 C1457 1.377 . S
C1457 H1441 0.930 . S
C1457 C1456 1.377 . S
C1457 C1458 1.379 . S
C1458 H1442 0.931 . S
C1458 C1452 1.383 . S
C1458 C1457 1.379 . S
H1459 C1453 0.959 . S
H1460 C1453 0.961 . S
H1461 C1453 0.960 . S
H1462 C1454 0.930 . S
H1463 C1455 0.929 . S
H1464 C1472 0.929 . S
H1465 C1474 0.930 . S
H1466 C1476 0.930 . S
H1467 C1479 0.929 . S
H1468 C1482 0.930 . S
H1469 C1484 0.960 . S
H1470 C1484 0.960 . S
H1471 C1484 0.960 . S
C1472 H1464 0.929 . S
C1472 C1473 1.377 . S
C1472 C1474 1.384 . S
C1473 C1472 1.377 . S
C1473 C1479 1.390 . S
C1474 H1465 0.930 . S
C1474 C1472 1.384 . S
C1474 C1475 1.372 . S
C1475 C1474 1.372 . S
C1475 C1476 1.400 . S
C1475 C1480 1.490 . S
C1476 H1466 0.930 . S
C1476 C1475 1.400 . S
C1476 C1479 1.386 . S
H1477 C1493 0.930 . S
H1478 C1494 0.931 . S
C1479 H1467 0.929 . S
C1479 C1473 1.390 . S
C1479 C1476 1.386 . S
C1480 C1475 1.490 . S
C1480 C1482 1.395 . S
C1480 C1483 1.403 . S
H1481 C1487 0.930 . S
C1482 H1468 0.930 . S
C1482 C1480 1.395 . S
C1482 C1485 1.403 . S
C1483 C1480 1.403 . S
C1483 C1484 1.524 . S
C1483 C1487 1.400 . S
C1484 H1469 0.960 . S
C1484 H1470 0.960 . S
C1484 H1471 0.960 . S
C1484 C1483 1.524 . S
C1485 C1482 1.403 . S
C1485 C1486 1.392 . S
C1485 C1489 1.495 . S
C1486 C1485 1.392 . S
C1486 C1487 1.385 . S
C1486 C1488 1.478 . S
C1487 H1481 0.930 . S
C1487 C1483 1.400 . S
C1487 C1486 1.385 . S
C1488 C1486 1.478 . S
C1488 C1490 1.381 . S
C1488 C1494 1.383 . S
C1489 C1485 1.495 . S
C1489 H1495 0.959 . S
C1489 H1496 0.961 . S
C1489 H1497 0.960 . S
C1490 C1488 1.381 . S
C1490 C1491 1.394 . S
C1490 H1498 0.930 . S
C1491 C1490 1.394 . S
C1491 C1492 1.383 . S
C1491 H1499 0.929 . S
C1492 C1491 1.383 . S
C1492 C1493 1.377 . S
C1493 H1477 0.930 . S
C1493 C1492 1.377 . S
C1493 C1494 1.379 . S
C1494 H1478 0.931 . S
C1494 C1488 1.383 . S
C1494 C1493 1.379 . S
H1495 C1489 0.959 . S
H1496 C1489 0.961 . S
H1497 C1489 0.960 . S
H1498 C1490 0.930 . S
H1499 C1491 0.929 . S
H1500 C1508 0.929 . S
H1501 C1510 0.930 . S
H1502 C1512 0.930 . S
H1503 C1515 0.929 . S
H1504 C1518 0.930 . S
H1505 C1520 0.960 . S
H1506 C1520 0.960 . S
H1507 C1520 0.960 . S
C1508 H1500 0.929 . S
C1508 C1509 1.377 . S
C1508 C1510 1.384 . S
C1509 C1508 1.377 . S
C1509 C1515 1.390 . S
C1510 H1501 0.930 . S
C1510 C1508 1.384 . S
C1510 C1511 1.372 . S
C1511 C1510 1.372 . S
C1511 C1512 1.400 . S
C1511 C1516 1.490 . S
C1512 H1502 0.930 . S
C1512 C1511 1.400 . S
C1512 C1515 1.386 . S
H1513 C1529 0.930 . S
H1514 C1530 0.931 . S
C1515 H1503 0.929 . S
C1515 C1509 1.390 . S
C1515 C1512 1.386 . S
C1516 C1511 1.490 . S
C1516 C1518 1.395 . S
C1516 C1519 1.403 . S
H1517 C1523 0.930 . S
C1518 H1504 0.930 . S
C1518 C1516 1.395 . S
C1518 C1521 1.403 . S
C1519 C1516 1.403 . S
C1519 C1520 1.524 . S
C1519 C1523 1.400 . S
C1520 H1505 0.960 . S
C1520 H1506 0.960 . S
C1520 H1507 0.960 . S
C1520 C1519 1.524 . S
C1521 C1518 1.403 . S
C1521 C1522 1.392 . S
C1521 C1525 1.495 . S
C1522 C1521 1.392 . S
C1522 C1523 1.385 . S
C1522 C1524 1.478 . S
C1523 H1517 0.930 . S
C1523 C1519 1.400 . S
C1523 C1522 1.385 . S
C1524 C1522 1.478 . S
C1524 C1526 1.381 . S
C1524 C1530 1.383 . S
C1525 C1521 1.495 . S
C1525 H1531 0.959 . S
C1525 H1532 0.961 . S
C1525 H1533 0.960 . S
C1526 C1524 1.381 . S
C1526 C1527 1.394 . S
C1526 H1534 0.930 . S
C1527 C1526 1.394 . S
C1527 C1528 1.383 . S
C1527 H1535 0.929 . S
C1528 C1527 1.383 . S
C1528 C1529 1.377 . S
C1529 H1513 0.930 . S
C1529 C1528 1.377 . S
C1529 C1530 1.379 . S
C1530 H1514 0.931 . S
C1530 C1524 1.383 . S
C1530 C1529 1.379 . S
H1531 C1525 0.959 . S
H1532 C1525 0.961 . S
H1533 C1525 0.960 . S
H1534 C1526 0.930 . S
H1535 C1527 0.929 . S
H1536 C1544 0.929 . S
H1537 C1546 0.930 . S
H1538 C1548 0.930 . S
H1539 C1551 0.929 . S
H1540 C1554 0.930 . S
H1541 C1556 0.960 . S
H1542 C1556 0.960 . S
H1543 C1556 0.960 . S
C1544 H1536 0.929 . S
C1544 C1545 1.377 . S
C1544 C1546 1.384 . S
C1545 C1544 1.377 . S
C1545 C1551 1.390 . S
C1546 H1537 0.930 . S
C1546 C1544 1.384 . S
C1546 C1547 1.372 . S
C1547 C1546 1.372 . S
C1547 C1548 1.400 . S
C1547 C1552 1.490 . S
C1548 H1538 0.930 . S
C1548 C1547 1.400 . S
C1548 C1551 1.386 . S
H1549 C1565 0.930 . S
H1550 C1566 0.931 . S
C1551 H1539 0.929 . S
C1551 C1545 1.390 . S
C1551 C1548 1.386 . S
C1552 C1547 1.490 . S
C1552 C1554 1.395 . S
C1552 C1555 1.403 . S
H1553 C1559 0.930 . S
C1554 H1540 0.930 . S
C1554 C1552 1.395 . S
C1554 C1557 1.403 . S
C1555 C1552 1.403 . S
C1555 C1556 1.524 . S
C1555 C1559 1.400 . S
C1556 H1541 0.960 . S
C1556 H1542 0.960 . S
C1556 H1543 0.960 . S
C1556 C1555 1.524 . S
C1557 C1554 1.403 . S
C1557 C1558 1.392 . S
C1557 C1561 1.495 . S
C1558 C1557 1.392 . S
C1558 C1559 1.385 . S
C1558 C1560 1.478 . S
C1559 H1553 0.930 . S
C1559 C1555 1.400 . S
C1559 C1558 1.385 . S
C1560 C1558 1.478 . S
C1560 C1562 1.381 . S
C1560 C1566 1.383 . S
C1561 C1557 1.495 . S
C1561 H1567 0.959 . S
C1561 H1568 0.961 . S
C1561 H1569 0.960 . S
C1562 C1560 1.381 . S
C1562 C1563 1.394 . S
C1562 H1570 0.930 . S
C1563 C1562 1.394 . S
C1563 C1564 1.383 . S
C1563 H1571 0.929 . S
C1564 C1563 1.383 . S
C1564 C1565 1.377 . S
C1565 H1549 0.930 . S
C1565 C1564 1.377 . S
C1565 C1566 1.379 . S
C1566 H1550 0.931 . S
C1566 C1560 1.383 . S
C1566 C1565 1.379 . S
H1567 C1561 0.959 . S
H1568 C1561 0.961 . S
H1569 C1561 0.960 . S
H1570 C1562 0.930 . S
H1571 C1563 0.929 . S
H1572 C1580 0.929 . S
H1573 C1582 0.930 . S
H1574 C1584 0.930 . S
H1575 C1587 0.929 . S
H1576 C1590 0.930 . S
H1577 C1592 0.960 . S
H1578 C1592 0.960 . S
H1579 C1592 0.960 . S
C1580 H1572 0.929 . S
C1580 C1581 1.377 . S
C1580 C1582 1.384 . S
C1581 C1580 1.377 . S
C1581 C1587 1.390 . S
C1582 H1573 0.930 . S
C1582 C1580 1.384 . S
C1582 C1583 1.372 . S
C1583 C1582 1.372 . S
C1583 C1584 1.400 . S
C1583 C1588 1.490 . S
C1584 H1574 0.930 . S
C1584 C1583 1.400 . S
C1584 C1587 1.386 . S
H1585 C1601 0.930 . S
H1586 C1602 0.931 . S
C1587 H1575 0.929 . S
C1587 C1581 1.390 . S
C1587 C1584 1.386 . S
C1588 C1583 1.490 . S
C1588 C1590 1.395 . S
C1588 C1591 1.403 . S
H1589 C1595 0.930 . S
C1590 H1576 0.930 . S
C1590 C1588 1.395 . S
C1590 C1593 1.403 . S
C1591 C1588 1.403 . S
C1591 C1592 1.524 . S
C1591 C1595 1.400 . S
C1592 H1577 0.960 . S
C1592 H1578 0.960 . S
C1592 H1579 0.960 . S
C1592 C1591 1.524 . S
C1593 C1590 1.403 . S
C1593 C1594 1.392 . S
C1593 C1597 1.495 . S
C1594 C1593 1.392 . S
C1594 C1595 1.385 . S
C1594 C1596 1.478 . S
C1595 H1589 0.930 . S
C1595 C1591 1.400 . S
C1595 C1594 1.385 . S
C1596 C1594 1.478 . S
C1596 C1598 1.381 . S
C1596 C1602 1.383 . S
C1597 C1593 1.495 . S
C1597 H1603 0.959 . S
C1597 H1604 0.961 . S
C1597 H1605 0.960 . S
C1598 C1596 1.381 . S
C1598 C1599 1.394 . S
C1598 H1606 0.930 . S
C1599 C1598 1.394 . S
C1599 C1600 1.383 . S
C1599 H1607 0.929 . S
C1600 C1599 1.383 . S
C1600 C1601 1.377 . S
C1601 H1585 0.930 . S
C1601 C1600 1.377 . S
C1601 C1602 1.379 . S
C1602 H1586 0.931 . S
C1602 C1596 1.383 . S
C1602 C1601 1.379 . S
H1603 C1597 0.959 . S
H1604 C1597 0.961 . S
H1605 C1597 0.960 . S
H1606 C1598 0.930 . S
H1607 C1599 0.929 . S
H1608 C1616 0.929 . S
H1609 C1618 0.930 . S
H1610 C1620 0.930 . S
H1611 C1623 0.929 . S
H1612 C1626 0.930 . S
H1613 C1628 0.960 . S
H1614 C1628 0.960 . S
H1615 C1628 0.960 . S
C1616 H1608 0.929 . S
C1616 C1617 1.377 . S
C1616 C1618 1.384 . S
C1617 C1616 1.377 . S
C1617 C1623 1.390 . S
C1618 H1609 0.930 . S
C1618 C1616 1.384 . S
C1618 C1619 1.372 . S
C1619 C1618 1.372 . S
C1619 C1620 1.400 . S
C1619 C1624 1.490 . S
C1620 H1610 0.930 . S
C1620 C1619 1.400 . S
C1620 C1623 1.386 . S
H1621 C1637 0.930 . S
H1622 C1638 0.931 . S
C1623 H1611 0.929 . S
C1623 C1617 1.390 . S
C1623 C1620 1.386 . S
C1624 C1619 1.490 . S
C1624 C1626 1.395 . S
C1624 C1627 1.403 . S
H1625 C1631 0.930 . S
C1626 H1612 0.930 . S
C1626 C1624 1.395 . S
C1626 C1629 1.403 . S
C1627 C1624 1.403 . S
C1627 C1628 1.524 . S
C1627 C1631 1.400 . S
C1628 H1613 0.960 . S
C1628 H1614 0.960 . S
C1628 H1615 0.960 . S
C1628 C1627 1.524 . S
C1629 C1626 1.403 . S
C1629 C1630 1.392 . S
C1629 C1633 1.495 . S
C1630 C1629 1.392 . S
C1630 C1631 1.385 . S
C1630 C1632 1.478 . S
C1631 H1625 0.930 . S
C1631 C1627 1.400 . S
C1631 C1630 1.385 . S
C1632 C1630 1.478 . S
C1632 C1634 1.381 . S
C1632 C1638 1.383 . S
C1633 C1629 1.495 . S
C1633 H1639 0.959 . S
C1633 H1640 0.961 . S
C1633 H1641 0.960 . S
C1634 C1632 1.381 . S
C1634 C1635 1.394 . S
C1634 H1642 0.930 . S
C1635 C1634 1.394 . S
C1635 C1636 1.383 . S
C1635 H1643 0.929 . S
C1636 C1635 1.383 . S
C1636 C1637 1.377 . S
C1637 H1621 0.930 . S
C1637 C1636 1.377 . S
C1637 C1638 1.379 . S
C1638 H1622 0.931 . S
C1638 C1632 1.383 . S
C1638 C1637 1.379 . S
H1639 C1633 0.959 . S
H1640 C1633 0.961 . S
H1641 C1633 0.960 . S
H1642 C1634 0.930 . S
H1643 C1635 0.929 . S
H1644 C1652 0.929 . S
H1645 C1654 0.930 . S
H1646 C1656 0.930 . S
H1647 C1659 0.929 . S
H1648 C1662 0.930 . S
H1649 C1664 0.960 . S
H1650 C1664 0.960 . S
H1651 C1664 0.960 . S
C1652 H1644 0.929 . S
C1652 C1653 1.377 . S
C1652 C1654 1.384 . S
C1653 C1652 1.377 . S
C1653 C1659 1.390 . S
C1654 H1645 0.930 . S
C1654 C1652 1.384 . S
C1654 C1655 1.372 . S
C1655 C1654 1.372 . S
C1655 C1656 1.400 . S
C1655 C1660 1.490 . S
C1656 H1646 0.930 . S
C1656 C1655 1.400 . S
C1656 C1659 1.386 . S
H1657 C1673 0.930 . S
H1658 C1674 0.931 . S
C1659 H1647 0.929 . S
C1659 C1653 1.390 . S
C1659 C1656 1.386 . S
C1660 C1655 1.490 . S
C1660 C1662 1.395 . S
C1660 C1663 1.403 . S
H1661 C1667 0.930 . S
C1662 H1648 0.930 . S
C1662 C1660 1.395 . S
C1662 C1665 1.403 . S
C1663 C1660 1.403 . S
C1663 C1664 1.524 . S
C1663 C1667 1.400 . S
C1664 H1649 0.960 . S
C1664 H1650 0.960 . S
C1664 H1651 0.960 . S
C1664 C1663 1.524 . S
C1665 C1662 1.403 . S
C1665 C1666 1.392 . S
C1665 C1669 1.495 . S
C1666 C1665 1.392 . S
C1666 C1667 1.385 . S
C1666 C1668 1.478 . S
C1667 H1661 0.930 . S
C1667 C1663 1.400 . S
C1667 C1666 1.385 . S
C1668 C1666 1.478 . S
C1668 C1670 1.381 . S
C1668 C1674 1.383 . S
C1669 C1665 1.495 . S
C1669 H1675 0.959 . S
C1669 H1676 0.961 . S
C1669 H1677 0.960 . S
C1670 C1668 1.381 . S
C1670 C1671 1.394 . S
C1670 H1678 0.930 . S
C1671 C1670 1.394 . S
C1671 C1672 1.383 . S
C1671 H1679 0.929 . S
C1672 C1671 1.383 . S
C1672 C1673 1.377 . S
C1673 H1657 0.930 . S
C1673 C1672 1.377 . S
C1673 C1674 1.379 . S
C1674 H1658 0.931 . S
C1674 C1668 1.383 . S
C1674 C1673 1.379 . S
H1675 C1669 0.959 . S
H1676 C1669 0.961 . S
H1677 C1669 0.960 . S
H1678 C1670 0.930 . S
H1679 C1671 0.929 . S
H1680 C1688 0.929 . S
H1681 C1690 0.930 . S
H1682 C1692 0.930 . S
H1683 C1695 0.929 . S
H1684 C1698 0.930 . S
H1685 C1700 0.960 . S
H1686 C1700 0.960 . S
H1687 C1700 0.960 . S
C1688 H1680 0.929 . S
C1688 C1689 1.377 . S
C1688 C1690 1.384 . S
C1689 C1688 1.377 . S
C1689 C1695 1.390 . S
C1690 H1681 0.930 . S
C1690 C1688 1.384 . S
C1690 C1691 1.372 . S
C1691 C1690 1.372 . S
C1691 C1692 1.400 . S
C1691 C1696 1.490 . S
C1692 H1682 0.930 . S
C1692 C1691 1.400 . S
C1692 C1695 1.386 . S
H1693 C1709 0.930 . S
H1694 C1710 0.931 . S
C1695 H1683 0.929 . S
C1695 C1689 1.390 . S
C1695 C1692 1.386 . S
C1696 C1691 1.490 . S
C1696 C1698 1.395 . S
C1696 C1699 1.403 . S
H1697 C1703 0.930 . S
C1698 H1684 0.930 . S
C1698 C1696 1.395 . S
C1698 C1701 1.403 . S
C1699 C1696 1.403 . S
C1699 C1700 1.524 . S
C1699 C1703 1.400 . S
C1700 H1685 0.960 . S
C1700 H1686 0.960 . S
C1700 H1687 0.960 . S
C1700 C1699 1.524 . S
C1701 C1698 1.403 . S
C1701 C1702 1.392 . S
C1701 C1705 1.495 . S
C1702 C1701 1.392 . S
C1702 C1703 1.385 . S
C1702 C1704 1.478 . S
C1703 H1697 0.930 . S
C1703 C1699 1.400 . S
C1703 C1702 1.385 . S
C1704 C1702 1.478 . S
C1704 C1706 1.381 . S
C1704 C1710 1.383 . S
C1705 C1701 1.495 . S
C1705 H1711 0.959 . S
C1705 H1712 0.961 . S
C1705 H1713 0.960 . S
C1706 C1704 1.381 . S
C1706 C1707 1.394 . S
C1706 H1714 0.930 . S
C1707 C1706 1.394 . S
C1707 C1708 1.383 . S
C1707 H1715 0.929 . S
C1708 C1707 1.383 . S
C1708 C1709 1.377 . S
C1709 H1693 0.930 . S
C1709 C1708 1.377 . S
C1709 C1710 1.379 . S
C1710 H1694 0.931 . S
C1710 C1704 1.383 . S
C1710 C1709 1.379 . S
H1711 C1705 0.959 . S
H1712 C1705 0.961 . S
H1713 C1705 0.960 . S
H1714 C1706 0.930 . S
H1715 C1707 0.929 . S
H1716 C1724 0.929 . S
H1717 C1726 0.930 . S
H1718 C1728 0.930 . S
H1719 C1731 0.929 . S
H1720 C1734 0.930 . S
H1721 C1736 0.960 . S
H1722 C1736 0.960 . S
H1723 C1736 0.960 . S
C1724 H1716 0.929 . S
C1724 C1725 1.377 . S
C1724 C1726 1.384 . S
C1725 C1724 1.377 . S
C1725 C1731 1.390 . S
C1726 H1717 0.930 . S
C1726 C1724 1.384 . S
C1726 C1727 1.372 . S
C1727 C1726 1.372 . S
C1727 C1728 1.400 . S
C1727 C1732 1.490 . S
C1728 H1718 0.930 . S
C1728 C1727 1.400 . S
C1728 C1731 1.386 . S
H1729 C1745 0.930 . S
H1730 C1746 0.931 . S
C1731 H1719 0.929 . S
C1731 C1725 1.390 . S
C1731 C1728 1.386 . S
C1732 C1727 1.490 . S
C1732 C1734 1.395 . S
C1732 C1735 1.403 . S
H1733 C1739 0.930 . S
C1734 H1720 0.930 . S
C1734 C1732 1.395 . S
C1734 C1737 1.403 . S
C1735 C1732 1.403 . S
C1735 C1736 1.524 . S
C1735 C1739 1.400 . S
C1736 H1721 0.960 . S
C1736 H1722 0.960 . S
C1736 H1723 0.960 . S
C1736 C1735 1.524 . S
C1737 C1734 1.403 . S
C1737 C1738 1.392 . S
C1737 C1741 1.495 . S
C1738 C1737 1.392 . S
C1738 C1739 1.385 . S
C1738 C1740 1.478 . S
C1739 H1733 0.930 . S
C1739 C1735 1.400 . S
C1739 C1738 1.385 . S
C1740 C1738 1.478 . S
C1740 C1742 1.381 . S
C1740 C1746 1.383 . S
C1741 C1737 1.495 . S
C1741 H1747 0.959 . S
C1741 H1748 0.961 . S
C1741 H1749 0.960 . S
C1742 C1740 1.381 . S
C1742 C1743 1.394 . S
C1742 H1750 0.930 . S
C1743 C1742 1.394 . S
C1743 C1744 1.383 . S
C1743 H1751 0.929 . S
C1744 C1743 1.383 . S
C1744 C1745 1.377 . S
C1745 H1729 0.930 . S
C1745 C1744 1.377 . S
C1745 C1746 1.379 . S
C1746 H1730 0.931 . S
C1746 C1740 1.383 . S
C1746 C1745 1.379 . S
H1747 C1741 0.959 . S
H1748 C1741 0.961 . S
H1749 C1741 0.960 . S
H1750 C1742 0.930 . S
H1751 C1743 0.929 . S
H1752 C1760 0.929 . S
H1753 C1762 0.930 . S
H1754 C1764 0.930 . S
H1755 C1767 0.929 . S
H1756 C1770 0.930 . S
H1757 C1772 0.960 . S
H1758 C1772 0.960 . S
H1759 C1772 0.960 . S
C1760 H1752 0.929 . S
C1760 C1761 1.377 . S
C1760 C1762 1.384 . S
C1761 C1760 1.377 . S
C1761 C1767 1.390 . S
C1762 H1753 0.930 . S
C1762 C1760 1.384 . S
C1762 C1763 1.372 . S
C1763 C1762 1.372 . S
C1763 C1764 1.400 . S
C1763 C1768 1.490 . S
C1764 H1754 0.930 . S
C1764 C1763 1.400 . S
C1764 C1767 1.386 . S
H1765 C1781 0.930 . S
H1766 C1782 0.931 . S
C1767 H1755 0.929 . S
C1767 C1761 1.390 . S
C1767 C1764 1.386 . S
C1768 C1763 1.490 . S
C1768 C1770 1.395 . S
C1768 C1771 1.403 . S
H1769 C1775 0.930 . S
C1770 H1756 0.930 . S
C1770 C1768 1.395 . S
C1770 C1773 1.403 . S
C1771 C1768 1.403 . S
C1771 C1772 1.524 . S
C1771 C1775 1.400 . S
C1772 H1757 0.960 . S
C1772 H1758 0.960 . S
C1772 H1759 0.960 . S
C1772 C1771 1.524 . S
C1773 C1770 1.403 . S
C1773 C1774 1.392 . S
C1773 C1777 1.495 . S
C1774 C1773 1.392 . S
C1774 C1775 1.385 . S
C1774 C1776 1.478 . S
C1775 H1769 0.930 . S
C1775 C1771 1.400 . S
C1775 C1774 1.385 . S
C1776 C1774 1.478 . S
C1776 C1778 1.381 . S
C1776 C1782 1.383 . S
C1777 C1773 1.495 . S
C1777 H1783 0.959 . S
C1777 H1784 0.961 . S
C1777 H1785 0.960 . S
C1778 C1776 1.381 . S
C1778 C1779 1.394 . S
C1778 H1786 0.930 . S
C1779 C1778 1.394 . S
C1779 C1780 1.383 . S
C1779 H1787 0.929 . S
C1780 C1779 1.383 . S
C1780 C1781 1.377 . S
C1781 H1765 0.930 . S
C1781 C1780 1.377 . S
C1781 C1782 1.379 . S
C1782 H1766 0.931 . S
C1782 C1776 1.383 . S
C1782 C1781 1.379 . S
H1783 C1777 0.959 . S
H1784 C1777 0.961 . S
H1785 C1777 0.960 . S
H1786 C1778 0.930 . S
H1787 C1779 0.929 . S
H1788 C1796 0.929 . S
H1789 C1798 0.930 . S
H1790 C1800 0.930 . S
H1791 C1803 0.929 . S
H1792 C1806 0.930 . S
H1793 C1808 0.960 . S
H1794 C1808 0.960 . S
H1795 C1808 0.960 . S
C1796 H1788 0.929 . S
C1796 C1797 1.377 . S
C1796 C1798 1.384 . S
C1797 C1796 1.377 . S
C1797 C1803 1.390 . S
C1798 H1789 0.930 . S
C1798 C1796 1.384 . S
C1798 C1799 1.372 . S
C1799 C1798 1.372 . S
C1799 C1800 1.400 . S
C1799 C1804 1.490 . S
C1800 H1790 0.930 . S
C1800 C1799 1.400 . S
C1800 C1803 1.386 . S
H1801 C1817 0.930 . S
H1802 C1818 0.931 . S
C1803 H1791 0.929 . S
C1803 C1797 1.390 . S
C1803 C1800 1.386 . S
C1804 C1799 1.490 . S
C1804 C1806 1.395 . S
C1804 C1807 1.403 . S
H1805 C1811 0.930 . S
C1806 H1792 0.930 . S
C1806 C1804 1.395 . S
C1806 C1809 1.403 . S
C1807 C1804 1.403 . S
C1807 C1808 1.524 . S
C1807 C1811 1.400 . S
C1808 H1793 0.960 . S
C1808 H1794 0.960 . S
C1808 H1795 0.960 . S
C1808 C1807 1.524 . S
C1809 C1806 1.403 . S
C1809 C1810 1.392 . S
C1809 C1813 1.495 . S
C1810 C1809 1.392 . S
C1810 C1811 1.385 . S
C1810 C1812 1.478 . S
C1811 H1805 0.930 . S
C1811 C1807 1.400 . S
C1811 C1810 1.385 . S
C1812 C1810 1.478 . S
C1812 C1814 1.381 . S
C1812 C1818 1.383 . S
C1813 C1809 1.495 . S
C1813 H1819 0.959 . S
C1813 H1820 0.961 . S
C1813 H1821 0.960 . S
C1814 C1812 1.381 . S
C1814 C1815 1.394 . S
C1814 H1822 0.930 . S
C1815 C1814 1.394 . S
C1815 C1816 1.383 . S
C1815 H1823 0.929 . S
C1816 C1815 1.383 . S
C1816 C1817 1.377 . S
C1817 H1801 0.930 . S
C1817 C1816 1.377 . S
C1817 C1818 1.379 . S
C1818 H1802 0.931 . S
C1818 C1812 1.383 . S
C1818 C1817 1.379 . S
H1819 C1813 0.959 . S
H1820 C1813 0.961 . S
H1821 C1813 0.960 . S
H1822 C1814 0.930 . S
H1823 C1815 0.929 . S
H1824 C1832 0.929 . S
H1825 C1834 0.930 . S
H1826 C1836 0.930 . S
H1827 C1839 0.929 . S
H1828 C1842 0.930 . S
H1829 C1844 0.960 . S
H1830 C1844 0.960 . S
H1831 C1844 0.960 . S
C1832 H1824 0.929 . S
C1832 C1833 1.377 . S
C1832 C1834 1.384 . S
C1833 C1832 1.377 . S
C1833 C1839 1.390 . S
C1834 H1825 0.930 . S
C1834 C1832 1.384 . S
C1834 C1835 1.372 . S
C1835 C1834 1.372 . S
C1835 C1836 1.400 . S
C1835 C1840 1.490 . S
C1836 H1826 0.930 . S
C1836 C1835 1.400 . S
C1836 C1839 1.386 . S
H1837 C1853 0.930 . S
H1838 C1854 0.931 . S
C1839 H1827 0.929 . S
C1839 C1833 1.390 . S
C1839 C1836 1.386 . S
C1840 C1835 1.490 . S
C1840 C1842 1.395 . S
C1840 C1843 1.403 . S
H1841 C1847 0.930 . S
C1842 H1828 0.930 . S
C1842 C1840 1.395 . S
C1842 C1845 1.403 . S
C1843 C1840 1.403 . S
C1843 C1844 1.524 . S
C1843 C1847 1.400 . S
C1844 H1829 0.960 . S
C1844 H1830 0.960 . S
C1844 H1831 0.960 . S
C1844 C1843 1.524 . S
C1845 C1842 1.403 . S
C1845 C1846 1.392 . S
C1845 C1849 1.495 . S
C1846 C1845 1.392 . S
C1846 C1847 1.385 . S
C1846 C1848 1.478 . S
C1847 H1841 0.930 . S
C1847 C1843 1.400 . S
C1847 C1846 1.385 . S
C1848 C1846 1.478 . S
C1848 C1850 1.381 . S
C1848 C1854 1.383 . S
C1849 C1845 1.495 . S
C1849 H1855 0.959 . S
C1849 H1856 0.961 . S
C1849 H1857 0.960 . S
C1850 C1848 1.381 . S
C1850 C1851 1.394 . S
C1850 H1858 0.930 . S
C1851 C1850 1.394 . S
C1851 C1852 1.383 . S
C1851 H1859 0.929 . S
C1852 C1851 1.383 . S
C1852 C1853 1.377 . S
C1853 H1837 0.930 . S
C1853 C1852 1.377 . S
C1853 C1854 1.379 . S
C1854 H1838 0.931 . S
C1854 C1848 1.383 . S
C1854 C1853 1.379 . S
H1855 C1849 0.959 . S
H1856 C1849 0.961 . S
H1857 C1849 0.960 . S
H1858 C1850 0.930 . S
H1859 C1851 0.929 . S
H1860 C1868 0.929 . S
H1861 C1870 0.930 . S
H1862 C1872 0.930 . S
H1863 C1875 0.929 . S
H1864 C1878 0.930 . S
H1865 C1880 0.960 . S
H1866 C1880 0.960 . S
H1867 C1880 0.960 . S
C1868 H1860 0.929 . S
C1868 C1869 1.377 . S
C1868 C1870 1.384 . S
C1869 C1868 1.377 . S
C1869 C1875 1.390 . S
C1870 H1861 0.930 . S
C1870 C1868 1.384 . S
C1870 C1871 1.372 . S
C1871 C1870 1.372 . S
C1871 C1872 1.400 . S
C1871 C1876 1.490 . S
C1872 H1862 0.930 . S
C1872 C1871 1.400 . S
C1872 C1875 1.386 . S
H1873 C1889 0.930 . S
H1874 C1890 0.931 . S
C1875 H1863 0.929 . S
C1875 C1869 1.390 . S
C1875 C1872 1.386 . S
C1876 C1871 1.490 . S
C1876 C1878 1.395 . S
C1876 C1879 1.403 . S
H1877 C1883 0.930 . S
C1878 H1864 0.930 . S
C1878 C1876 1.395 . S
C1878 C1881 1.403 . S
C1879 C1876 1.403 . S
C1879 C1880 1.524 . S
C1879 C1883 1.400 . S
C1880 H1865 0.960 . S
C1880 H1866 0.960 . S
C1880 H1867 0.960 . S
C1880 C1879 1.524 . S
C1881 C1878 1.403 . S
C1881 C1882 1.392 . S
C1881 C1885 1.495 . S
C1882 C1881 1.392 . S
C1882 C1883 1.385 . S
C1882 C1884 1.478 . S
C1883 H1877 0.930 . S
C1883 C1879 1.400 . S
C1883 C1882 1.385 . S
C1884 C1882 1.478 . S
C1884 C1886 1.381 . S
C1884 C1890 1.383 . S
C1885 C1881 1.495 . S
C1885 H1891 0.959 . S
C1885 H1892 0.961 . S
C1885 H1893 0.960 . S
C1886 C1884 1.381 . S
C1886 C1887 1.394 . S
C1886 H1894 0.930 . S
C1887 C1886 1.394 . S
C1887 C1888 1.383 . S
C1887 H1895 0.929 . S
C1888 C1887 1.383 . S
C1888 C1889 1.377 . S
C1889 H1873 0.930 . S
C1889 C1888 1.377 . S
C1889 C1890 1.379 . S
C1890 H1874 0.931 . S
C1890 C1884 1.383 . S
C1890 C1889 1.379 . S
H1891 C1885 0.959 . S
H1892 C1885 0.961 . S
H1893 C1885 0.960 . S
H1894 C1886 0.930 . S
H1895 C1887 0.929 . S
H1896 C1904 0.929 . S
H1897 C1906 0.930 . S
H1898 C1908 0.930 . S
H1899 C1911 0.929 . S
H1900 C1914 0.930 . S
H1901 C1916 0.960 . S
H1902 C1916 0.960 . S
H1903 C1916 0.960 . S
C1904 H1896 0.929 . S
C1904 C1905 1.377 . S
C1904 C1906 1.384 . S
C1905 C1904 1.377 . S
C1905 C1911 1.390 . S
C1906 H1897 0.930 . S
C1906 C1904 1.384 . S
C1906 C1907 1.372 . S
C1907 C1906 1.372 . S
C1907 C1908 1.400 . S
C1907 C1912 1.490 . S
C1908 H1898 0.930 . S
C1908 C1907 1.400 . S
C1908 C1911 1.386 . S
H1909 C1925 0.930 . S
H1910 C1926 0.931 . S
C1911 H1899 0.929 . S
C1911 C1905 1.390 . S
C1911 C1908 1.386 . S
C1912 C1907 1.490 . S
C1912 C1914 1.395 . S
C1912 C1915 1.403 . S
H1913 C1919 0.930 . S
C1914 H1900 0.930 . S
C1914 C1912 1.395 . S
C1914 C1917 1.403 . S
C1915 C1912 1.403 . S
C1915 C1916 1.524 . S
C1915 C1919 1.400 . S
C1916 H1901 0.960 . S
C1916 H1902 0.960 . S
C1916 H1903 0.960 . S
C1916 C1915 1.524 . S
C1917 C1914 1.403 . S
C1917 C1918 1.392 . S
C1917 C1921 1.495 . S
C1918 C1917 1.392 . S
C1918 C1919 1.385 . S
C1918 C1920 1.478 . S
C1919 H1913 0.930 . S
C1919 C1915 1.400 . S
C1919 C1918 1.385 . S
C1920 C1918 1.478 . S
C1920 C1922 1.381 . S
C1920 C1926 1.383 . S
C1921 C1917 1.495 . S
C1921 H1927 0.959 . S
C1921 H1928 0.961 . S
C1921 H1929 0.960 . S
C1922 C1920 1.381 . S
C1922 C1923 1.394 . S
C1922 H1930 0.930 . S
C1923 C1922 1.394 . S
C1923 C1924 1.383 . S
C1923 H1931 0.929 . S
C1924 C1923 1.383 . S
C1924 C1925 1.377 . S
C1925 H1909 0.930 . S
C1925 C1924 1.377 . S
C1925 C1926 1.379 . S
C1926 H1910 0.931 . S
C1926 C1920 1.383 . S
C1926 C1925 1.379 . S
H1927 C1921 0.959 . S
H1928 C1921 0.961 . S
H1929 C1921 0.960 . S
H1930 C1922 0.930 . S
H1931 C1923 0.929 . S
H1932 C1940 0.929 . S
H1933 C1942 0.930 . S
H1934 C1944 0.930 . S
H1935 C1947 0.929 . S
H1936 C1950 0.930 . S
H1937 C1952 0.960 . S
H1938 C1952 0.960 . S
H1939 C1952 0.960 . S
C1940 H1932 0.929 . S
C1940 C1941 1.377 . S
C1940 C1942 1.384 . S
C1941 C1940 1.377 . S
C1941 C1947 1.390 . S
C1942 H1933 0.930 . S
C1942 C1940 1.384 . S
C1942 C1943 1.372 . S
C1943 C1942 1.372 . S
C1943 C1944 1.400 . S
C1943 C1948 1.490 . S
C1944 H1934 0.930 . S
C1944 C1943 1.400 . S
C1944 C1947 1.386 . S
H1945 C1961 0.930 . S
H1946 C1962 0.931 . S
C1947 H1935 0.929 . S
C1947 C1941 1.390 . S
C1947 C1944 1.386 . S
C1948 C1943 1.490 . S
C1948 C1950 1.395 . S
C1948 C1951 1.403 . S
H1949 C1955 0.930 . S
C1950 H1936 0.930 . S
C1950 C1948 1.395 . S
C1950 C1953 1.403 . S
C1951 C1948 1.403 . S
C1951 C1952 1.524 . S
C1951 C1955 1.400 . S
C1952 H1937 0.960 . S
C1952 H1938 0.960 . S
C1952 H1939 0.960 . S
C1952 C1951 1.524 . S
C1953 C1950 1.403 . S
C1953 C1954 1.392 . S
C1953 C1957 1.495 . S
C1954 C1953 1.392 . S
C1954 C1955 1.385 . S
C1954 C1956 1.478 . S
C1955 H1949 0.930 . S
C1955 C1951 1.400 . S
C1955 C1954 1.385 . S
C1956 C1954 1.478 . S
C1956 C1958 1.381 . S
C1956 C1962 1.383 . S
C1957 C1953 1.495 . S
C1957 H1963 0.959 . S
C1957 H1964 0.961 . S
C1957 H1965 0.960 . S
C1958 C1956 1.381 . S
C1958 C1959 1.394 . S
C1958 H1966 0.930 . S
C1959 C1958 1.394 . S
C1959 C1960 1.383 . S
C1959 H1967 0.929 . S
C1960 C1959 1.383 . S
C1960 C1961 1.377 . S
C1961 H1945 0.930 . S
C1961 C1960 1.377 . S
C1961 C1962 1.379 . S
C1962 H1946 0.931 . S
C1962 C1956 1.383 . S
C1962 C1961 1.379 . S
H1963 C1957 0.959 . S
H1964 C1957 0.961 . S
H1965 C1957 0.960 . S
H1966 C1958 0.930 . S
H1967 C1959 0.929 . S
H1968 C1976 0.929 . S
H1969 C1978 0.930 . S
H1970 C1980 0.930 . S
H1971 C1983 0.929 . S
H1972 C1986 0.930 . S
H1973 C1988 0.960 . S
H1974 C1988 0.960 . S
H1975 C1988 0.960 . S
C1976 H1968 0.929 . S
C1976 C1977 1.377 . S
C1976 C1978 1.384 . S
C1977 C1976 1.377 . S
C1977 C1983 1.390 . S
C1978 H1969 0.930 . S
C1978 C1976 1.384 . S
C1978 C1979 1.372 . S
C1979 C1978 1.372 . S
C1979 C1980 1.400 . S
C1979 C1984 1.490 . S
C1980 H1970 0.930 . S
C1980 C1979 1.400 . S
C1980 C1983 1.386 . S
H1981 C1997 0.930 . S
H1982 C1998 0.931 . S
C1983 H1971 0.929 . S
C1983 C1977 1.390 . S
C1983 C1980 1.386 . S
C1984 C1979 1.490 . S
C1984 C1986 1.395 . S
C1984 C1987 1.403 . S
H1985 C1991 0.930 . S
C1986 H1972 0.930 . S
C1986 C1984 1.395 . S
C1986 C1989 1.403 . S
C1987 C1984 1.403 . S
C1987 C1988 1.524 . S
C1987 C1991 1.400 . S
C1988 H1973 0.960 . S
C1988 H1974 0.960 . S
C1988 H1975 0.960 . S
C1988 C1987 1.524 . S
C1989 C1986 1.403 . S
C1989 C1990 1.392 . S
C1989 C1993 1.495 . S
C1990 C1989 1.392 . S
C1990 C1991 1.385 . S
C1990 C1992 1.478 . S
C1991 H1985 0.930 . S
C1991 C1987 1.400 . S
C1991 C1990 1.385 . S
C1992 C1990 1.478 . S
C1992 C1994 1.381 . S
C1992 C1998 1.383 . S
C1993 C1989 1.495 . S
C1993 H1999 0.959 . S
C1993 H2000 0.961 . S
C1993 H2001 0.960 . S
C1994 C1992 1.381 . S
C1994 C1995 1.394 . S
C1994 H2002 0.930 . S
C1995 C1994 1.394 . S
C1995 C1996 1.383 . S
C1995 H2003 0.929 . S
C1996 C1995 1.383 . S
C1996 C1997 1.377 . S
C1997 H1981 0.930 . S
C1997 C1996 1.377 . S
C1997 C1998 1.379 . S
C1998 H1982 0.931 . S
C1998 C1992 1.383 . S
C1998 C1997 1.379 . S
H1999 C1993 0.959 . S
H2000 C1993 0.961 . S
H2001 C1993 0.960 . S
H2002 C1994 0.930 . S
H2003 C1995 0.929 . S
H2004 C2012 0.929 . S
H2005 C2014 0.930 . S
H2006 C2016 0.930 . S
H2007 C2019 0.929 . S
H2008 C2022 0.930 . S
H2009 C2024 0.960 . S
H2010 C2024 0.960 . S
H2011 C2024 0.960 . S
C2012 H2004 0.929 . S
C2012 C2013 1.377 . S
C2012 C2014 1.384 . S
C2013 C2012 1.377 . S
C2013 C2019 1.390 . S
C2014 H2005 0.930 . S
C2014 C2012 1.384 . S
C2014 C2015 1.372 . S
C2015 C2014 1.372 . S
C2015 C2016 1.400 . S
C2015 C2020 1.490 . S
C2016 H2006 0.930 . S
C2016 C2015 1.400 . S
C2016 C2019 1.386 . S
H2017 C2033 0.930 . S
H2018 C2034 0.931 . S
C2019 H2007 0.929 . S
C2019 C2013 1.390 . S
C2019 C2016 1.386 . S
C2020 C2015 1.490 . S
C2020 C2022 1.395 . S
C2020 C2023 1.403 . S
H2021 C2027 0.930 . S
C2022 H2008 0.930 . S
C2022 C2020 1.395 . S
C2022 C2025 1.403 . S
C2023 C2020 1.403 . S
C2023 C2024 1.524 . S
C2023 C2027 1.400 . S
C2024 H2009 0.960 . S
C2024 H2010 0.960 . S
C2024 H2011 0.960 . S
C2024 C2023 1.524 . S
C2025 C2022 1.403 . S
C2025 C2026 1.392 . S
C2025 C2029 1.495 . S
C2026 C2025 1.392 . S
C2026 C2027 1.385 . S
C2026 C2028 1.478 . S
C2027 H2021 0.930 . S
C2027 C2023 1.400 . S
C2027 C2026 1.385 . S
C2028 C2026 1.478 . S
C2028 C2030 1.381 . S
C2028 C2034 1.383 . S
C2029 C2025 1.495 . S
C2029 H2035 0.959 . S
C2029 H2036 0.961 . S
C2029 H2037 0.960 . S
C2030 C2028 1.381 . S
C2030 C2031 1.394 . S
C2030 H2038 0.930 . S
C2031 C2030 1.394 . S
C2031 C2032 1.383 . S
C2031 H2039 0.929 . S
C2032 C2031 1.383 . S
C2032 C2033 1.377 . S
C2033 H2017 0.930 . S
C2033 C2032 1.377 . S
C2033 C2034 1.379 . S
C2034 H2018 0.931 . S
C2034 C2028 1.383 . S
C2034 C2033 1.379 . S
H2035 C2029 0.959 . S
H2036 C2029 0.961 . S
H2037 C2029 0.960 . S
H2038 C2030 0.930 . S
H2039 C2031 0.929 . S
H2040 C2048 0.929 . S
H2041 C2050 0.930 . S
H2042 C2052 0.930 . S
H2043 C2055 0.929 . S
H2044 C2058 0.930 . S
H2045 C2060 0.960 . S
H2046 C2060 0.960 . S
H2047 C2060 0.960 . S
C2048 H2040 0.929 . S
C2048 C2049 1.377 . S
C2048 C2050 1.384 . S
C2049 C2048 1.377 . S
C2049 C2055 1.390 . S
C2050 H2041 0.930 . S
C2050 C2048 1.384 . S
C2050 C2051 1.372 . S
C2051 C2050 1.372 . S
C2051 C2052 1.400 . S
C2051 C2056 1.490 . S
C2052 H2042 0.930 . S
C2052 C2051 1.400 . S
C2052 C2055 1.386 . S
H2053 C2069 0.930 . S
H2054 C2070 0.931 . S
C2055 H2043 0.929 . S
C2055 C2049 1.390 . S
C2055 C2052 1.386 . S
C2056 C2051 1.490 . S
C2056 C2058 1.395 . S
C2056 C2059 1.403 . S
H2057 C2063 0.930 . S
C2058 H2044 0.930 . S
C2058 C2056 1.395 . S
C2058 C2061 1.403 . S
C2059 C2056 1.403 . S
C2059 C2060 1.524 . S
C2059 C2063 1.400 . S
C2060 H2045 0.960 . S
C2060 H2046 0.960 . S
C2060 H2047 0.960 . S
C2060 C2059 1.524 . S
C2061 C2058 1.403 . S
C2061 C2062 1.392 . S
C2061 C2065 1.495 . S
C2062 C2061 1.392 . S
C2062 C2063 1.385 . S
C2062 C2064 1.478 . S
C2063 H2057 0.930 . S
C2063 C2059 1.400 . S
C2063 C2062 1.385 . S
C2064 C2062 1.478 . S
C2064 C2066 1.381 . S
C2064 C2070 1.383 . S
C2065 C2061 1.495 . S
C2065 H2071 0.959 . S
C2065 H2072 0.961 . S
C2065 H2073 0.960 . S
C2066 C2064 1.381 . S
C2066 C2067 1.394 . S
C2066 H2074 0.930 . S
C2067 C2066 1.394 . S
C2067 C2068 1.383 . S
C2067 H2075 0.929 . S
C2068 C2067 1.383 . S
C2068 C2069 1.377 . S
C2069 H2053 0.930 . S
C2069 C2068 1.377 . S
C2069 C2070 1.379 . S
C2070 H2054 0.931 . S
C2070 C2064 1.383 . S
C2070 C2069 1.379 . S
H2071 C2065 0.959 . S
H2072 C2065 0.961 . S
H2073 C2065 0.960 . S
H2074 C2066 0.930 . S
H2075 C2067 0.929 . S
H2076 C2084 0.929 . S
H2077 C2086 0.930 . S
H2078 C2088 0.930 . S
H2079 C2091 0.929 . S
H2080 C2094 0.930 . S
H2081 C2096 0.960 . S
H2082 C2096 0.960 . S
H2083 C2096 0.960 . S
C2084 H2076 0.929 . S
C2084 C2085 1.377 . S
C2084 C2086 1.384 . S
C2085 C2084 1.377 . S
C2085 C2091 1.390 . S
C2086 H2077 0.930 . S
C2086 C2084 1.384 . S
C2086 C2087 1.372 . S
C2087 C2086 1.372 . S
C2087 C2088 1.400 . S
C2087 C2092 1.490 . S
C2088 H2078 0.930 . S
C2088 C2087 1.400 . S
C2088 C2091 1.386 . S
H2089 C2105 0.930 . S
H2090 C2106 0.931 . S
C2091 H2079 0.929 . S
C2091 C2085 1.390 . S
C2091 C2088 1.386 . S
C2092 C2087 1.490 . S
C2092 C2094 1.395 . S
C2092 C2095 1.403 . S
H2093 C2099 0.930 . S
C2094 H2080 0.930 . S
C2094 C2092 1.395 . S
C2094 C2097 1.403 . S
C2095 C2092 1.403 . S
C2095 C2096 1.524 . S
C2095 C2099 1.400 . S
C2096 H2081 0.960 . S
C2096 H2082 0.960 . S
C2096 H2083 0.960 . S
C2096 C2095 1.524 . S
C2097 C2094 1.403 . S
C2097 C2098 1.392 . S
C2097 C2101 1.495 . S
C2098 C2097 1.392 . S
C2098 C2099 1.385 . S
C2098 C2100 1.478 . S
C2099 H2093 0.930 . S
C2099 C2095 1.400 . S
C2099 C2098 1.385 . S
C2100 C2098 1.478 . S
C2100 C2102 1.381 . S
C2100 C2106 1.383 . S
C2101 C2097 1.495 . S
C2101 H2107 0.959 . S
C2101 H2108 0.961 . S
C2101 H2109 0.960 . S
C2102 C2100 1.381 . S
C2102 C2103 1.394 . S
C2102 H2110 0.930 . S
C2103 C2102 1.394 . S
C2103 C2104 1.383 . S
C2103 H2111 0.929 . S
C2104 C2103 1.383 . S
C2104 C2105 1.377 . S
C2105 H2089 0.930 . S
C2105 C2104 1.377 . S
C2105 C2106 1.379 . S
C2106 H2090 0.931 . S
C2106 C2100 1.383 . S
C2106 C2105 1.379 . S
H2107 C2101 0.959 . S
H2108 C2101 0.961 . S
H2109 C2101 0.960 . S
H2110 C2102 0.930 . S
H2111 C2103 0.929 . S
H2112 C2120 0.929 . S
H2113 C2122 0.930 . S
H2114 C2124 0.930 . S
H2115 C2127 0.929 . S
H2116 C2130 0.930 . S
H2117 C2132 0.960 . S
H2118 C2132 0.960 . S
H2119 C2132 0.960 . S
C2120 H2112 0.929 . S
C2120 C2121 1.377 . S
C2120 C2122 1.384 . S
C2121 C2120 1.377 . S
C2121 C2127 1.390 . S
C2122 H2113 0.930 . S
C2122 C2120 1.384 . S
C2122 C2123 1.372 . S
C2123 C2122 1.372 . S
C2123 C2124 1.400 . S
C2123 C2128 1.490 . S
C2124 H2114 0.930 . S
C2124 C2123 1.400 . S
C2124 C2127 1.386 . S
H2125 C2141 0.930 . S
H2126 C2142 0.931 . S
C2127 H2115 0.929 . S
C2127 C2121 1.390 . S
C2127 C2124 1.386 . S
C2128 C2123 1.490 . S
C2128 C2130 1.395 . S
C2128 C2131 1.403 . S
H2129 C2135 0.930 . S
C2130 H2116 0.930 . S
C2130 C2128 1.395 . S
C2130 C2133 1.403 . S
C2131 C2128 1.403 . S
C2131 C2132 1.524 . S
C2131 C2135 1.400 . S
C2132 H2117 0.960 . S
C2132 H2118 0.960 . S
C2132 H2119 0.960 . S
C2132 C2131 1.524 . S
C2133 C2130 1.403 . S
C2133 C2134 1.392 . S
C2133 C2137 1.495 . S
C2134 C2133 1.392 . S
C2134 C2135 1.385 . S
C2134 C2136 1.478 . S
C2135 H2129 0.930 . S
C2135 C2131 1.400 . S
C2135 C2134 1.385 . S
C2136 C2134 1.478 . S
C2136 C2138 1.381 . S
C2136 C2142 1.383 . S
C2137 C2133 1.495 . S
C2137 H2143 0.959 . S
C2137 H2144 0.961 . S
C2137 H2145 0.960 . S
C2138 C2136 1.381 . S
C2138 C2139 1.394 . S
C2138 H2146 0.930 . S
C2139 C2138 1.394 . S
C2139 C2140 1.383 . S
C2139 H2147 0.929 . S
C2140 C2139 1.383 . S
C2140 C2141 1.377 . S
C2141 H2125 0.930 . S
C2141 C2140 1.377 . S
C2141 C2142 1.379 . S
C2142 H2126 0.931 . S
C2142 C2136 1.383 . S
C2142 C2141 1.379 . S
H2143 C2137 0.959 . S
H2144 C2137 0.961 . S
H2145 C2137 0.960 . S
H2146 C2138 0.930 . S
H2147 C2139 0.929 . S
H2148 C2156 0.929 . S
H2149 C2158 0.930 . S
H2150 C2160 0.930 . S
H2151 C2163 0.929 . S
H2152 C2166 0.930 . S
H2153 C2168 0.960 . S
H2154 C2168 0.960 . S
H2155 C2168 0.960 . S
C2156 H2148 0.929 . S
C2156 C2157 1.377 . S
C2156 C2158 1.384 . S
C2157 C2156 1.377 . S
C2157 C2163 1.390 . S
C2158 H2149 0.930 . S
C2158 C2156 1.384 . S
C2158 C2159 1.372 . S
C2159 C2158 1.372 . S
C2159 C2160 1.400 . S
C2159 C2164 1.490 . S
C2160 H2150 0.930 . S
C2160 C2159 1.400 . S
C2160 C2163 1.386 . S
H2161 C2177 0.930 . S
H2162 C2178 0.931 . S
C2163 H2151 0.929 . S
C2163 C2157 1.390 . S
C2163 C2160 1.386 . S
C2164 C2159 1.490 . S
C2164 C2166 1.395 . S
C2164 C2167 1.403 . S
H2165 C2171 0.930 . S
C2166 H2152 0.930 . S
C2166 C2164 1.395 . S
C2166 C2169 1.403 . S
C2167 C2164 1.403 . S
C2167 C2168 1.524 . S
C2167 C2171 1.400 . S
C2168 H2153 0.960 . S
C2168 H2154 0.960 . S
C2168 H2155 0.960 . S
C2168 C2167 1.524 . S
C2169 C2166 1.403 . S
C2169 C2170 1.392 . S
C2169 C2173 1.495 . S
C2170 C2169 1.392 . S
C2170 C2171 1.385 . S
C2170 C2172 1.478 . S
C2171 H2165 0.930 . S
C2171 C2167 1.400 . S
C2171 C2170 1.385 . S
C2172 C2170 1.478 . S
C2172 C2174 1.381 . S
C2172 C2178 1.383 . S
C2173 C2169 1.495 . S
C2173 H2179 0.959 . S
C2173 H2180 0.961 . S
C2173 H2181 0.960 . S
C2174 C2172 1.381 . S
C2174 C2175 1.394 . S
C2174 H2182 0.930 . S
C2175 C2174 1.394 . S
C2175 C2176 1.383 . S
C2175 H2183 0.929 . S
C2176 C2175 1.383 . S
C2176 C2177 1.377 . S
C2177 H2161 0.930 . S
C2177 C2176 1.377 . S
C2177 C2178 1.379 . S
C2178 H2162 0.931 . S
C2178 C2172 1.383 . S
C2178 C2177 1.379 . S
H2179 C2173 0.959 . S
H2180 C2173 0.961 . S
H2181 C2173 0.960 . S
H2182 C2174 0.930 . S
H2183 C2175 0.929 . S
H2184 C2192 0.929 . S
H2185 C2194 0.930 . S
H2186 C2196 0.930 . S
H2187 C2199 0.929 . S
H2188 C2202 0.930 . S
H2189 C2204 0.960 . S
H2190 C2204 0.960 . S
H2191 C2204 0.960 . S
C2192 H2184 0.929 . S
C2192 C2193 1.377 . S
C2192 C2194 1.384 . S
C2193 C2192 1.377 . S
C2193 C2199 1.390 . S
C2194 H2185 0.930 . S
C2194 C2192 1.384 . S
C2194 C2195 1.372 . S
C2195 C2194 1.372 . S
C2195 C2196 1.400 . S
C2195 C2200 1.490 . S
C2196 H2186 0.930 . S
C2196 C2195 1.400 . S
C2196 C2199 1.386 . S
H2197 C2213 0.930 . S
H2198 C2214 0.931 . S
C2199 H2187 0.929 . S
C2199 C2193 1.390 . S
C2199 C2196 1.386 . S
C2200 C2195 1.490 . S
C2200 C2202 1.395 . S
C2200 C2203 1.403 . S
H2201 C2207 0.930 . S
C2202 H2188 0.930 . S
C2202 C2200 1.395 . S
C2202 C2205 1.403 . S
C2203 C2200 1.403 . S
C2203 C2204 1.524 . S
C2203 C2207 1.400 . S
C2204 H2189 0.960 . S
C2204 H2190 0.960 . S
C2204 H2191 0.960 . S
C2204 C2203 1.524 . S
C2205 C2202 1.403 . S
C2205 C2206 1.392 . S
C2205 C2209 1.495 . S
C2206 C2205 1.392 . S
C2206 C2207 1.385 . S
C2206 C2208 1.478 . S
C2207 H2201 0.930 . S
C2207 C2203 1.400 . S
C2207 C2206 1.385 . S
C2208 C2206 1.478 . S
C2208 C2210 1.381 . S
C2208 C2214 1.383 . S
C2209 C2205 1.495 . S
C2209 H2215 0.959 . S
C2209 H2216 0.961 . S
C2209 H2217 0.960 . S
C2210 C2208 1.381 . S
C2210 C2211 1.394 . S
C2210 H2218 0.930 . S
C2211 C2210 1.394 . S
C2211 C2212 1.383 . S
C2211 H2219 0.929 . S
C2212 C2211 1.383 . S
C2212 C2213 1.377 . S
C2213 H2197 0.930 . S
C2213 C2212 1.377 . S
C2213 C2214 1.379 . S
C2214 H2198 0.931 . S
C2214 C2208 1.383 . S
C2214 C2213 1.379 . S
H2215 C2209 0.959 . S
H2216 C2209 0.961 . S
H2217 C2209 0.960 . S
H2218 C2210 0.930 . S
H2219 C2211 0.929 . S
H2220 C2228 0.929 . S
H2221 C2230 0.930 . S
H2222 C2232 0.930 . S
H2223 C2235 0.929 . S
H2224 C2238 0.930 . S
H2225 C2240 0.960 . S
H2226 C2240 0.960 . S
H2227 C2240 0.960 . S
C2228 H2220 0.929 . S
C2228 C2229 1.377 . S
C2228 C2230 1.384 . S
C2229 C2228 1.377 . S
C2229 C2235 1.390 . S
C2230 H2221 0.930 . S
C2230 C2228 1.384 . S
C2230 C2231 1.372 . S
C2231 C2230 1.372 . S
C2231 C2232 1.400 . S
C2231 C2236 1.490 . S
C2232 H2222 0.930 . S
C2232 C2231 1.400 . S
C2232 C2235 1.386 . S
H2233 C2249 0.930 . S
H2234 C2250 0.931 . S
C2235 H2223 0.929 . S
C2235 C2229 1.390 . S
C2235 C2232 1.386 . S
C2236 C2231 1.490 . S
C2236 C2238 1.395 . S
C2236 C2239 1.403 . S
H2237 C2243 0.930 . S
C2238 H2224 0.930 . S
C2238 C2236 1.395 . S
C2238 C2241 1.403 . S
C2239 C2236 1.403 . S
C2239 C2240 1.524 . S
C2239 C2243 1.400 . S
C2240 H2225 0.960 . S
C2240 H2226 0.960 . S
C2240 H2227 0.960 . S
C2240 C2239 1.524 . S
C2241 C2238 1.403 . S
C2241 C2242 1.392 . S
C2241 C2245 1.495 . S
C2242 C2241 1.392 . S
C2242 C2243 1.385 . S
C2242 C2244 1.478 . S
C2243 H2237 0.930 . S
C2243 C2239 1.400 . S
C2243 C2242 1.385 . S
C2244 C2242 1.478 . S
C2244 C2246 1.381 . S
C2244 C2250 1.383 . S
C2245 C2241 1.495 . S
C2245 H2251 0.959 . S
C2245 H2252 0.961 . S
C2245 H2253 0.960 . S
C2246 C2244 1.381 . S
C2246 C2247 1.394 . S
C2246 H2254 0.930 . S
C2247 C2246 1.394 . S
C2247 C2248 1.383 . S
C2247 H2255 0.929 . S
C2248 C2247 1.383 . S
C2248 C2249 1.377 . S
C2249 H2233 0.930 . S
C2249 C2248 1.377 . S
C2249 C2250 1.379 . S
C2250 H2234 0.931 . S
C2250 C2244 1.383 . S
C2250 C2249 1.379 . S
H2251 C2245 0.959 . S
H2252 C2245 0.961 . S
H2253 C2245 0.960 . S
H2254 C2246 0.930 . S
H2255 C2247 0.929 . S
H2256 C2264 0.929 . S
H2257 C2266 0.930 . S
H2258 C2268 0.930 . S
H2259 C2271 0.929 . S
H2260 C2274 0.930 . S
H2261 C2276 0.960 . S
H2262 C2276 0.960 . S
H2263 C2276 0.960 . S
C2264 H2256 0.929 . S
C2264 C2265 1.377 . S
C2264 C2266 1.384 . S
C2265 C2264 1.377 . S
C2265 C2271 1.390 . S
C2266 H2257 0.930 . S
C2266 C2264 1.384 . S
C2266 C2267 1.372 . S
C2267 C2266 1.372 . S
C2267 C2268 1.400 . S
C2267 C2272 1.490 . S
C2268 H2258 0.930 . S
C2268 C2267 1.400 . S
C2268 C2271 1.386 . S
H2269 C2285 0.930 . S
H2270 C2286 0.931 . S
C2271 H2259 0.929 . S
C2271 C2265 1.390 . S
C2271 C2268 1.386 . S
C2272 C2267 1.490 . S
C2272 C2274 1.395 . S
C2272 C2275 1.403 . S
H2273 C2279 0.930 . S
C2274 H2260 0.930 . S
C2274 C2272 1.395 . S
C2274 C2277 1.403 . S
C2275 C2272 1.403 . S
C2275 C2276 1.524 . S
C2275 C2279 1.400 . S
C2276 H2261 0.960 . S
C2276 H2262 0.960 . S
C2276 H2263 0.960 . S
C2276 C2275 1.524 . S
C2277 C2274 1.403 . S
C2277 C2278 1.392 . S
C2277 C2281 1.495 . S
C2278 C2277 1.392 . S
C2278 C2279 1.385 . S
C2278 C2280 1.478 . S
C2279 H2273 0.930 . S
C2279 C2275 1.400 . S
C2279 C2278 1.385 . S
C2280 C2278 1.478 . S
C2280 C2282 1.381 . S
C2280 C2286 1.383 . S
C2281 C2277 1.495 . S
C2281 H2287 0.959 . S
C2281 H2288 0.961 . S
C2281 H2289 0.960 . S
C2282 C2280 1.381 . S
C2282 C2283 1.394 . S
C2282 H2290 0.930 . S
C2283 C2282 1.394 . S
C2283 C2284 1.383 . S
C2283 H2291 0.929 . S
C2284 C2283 1.383 . S
C2284 C2285 1.377 . S
C2285 H2269 0.930 . S
C2285 C2284 1.377 . S
C2285 C2286 1.379 . S
C2286 H2270 0.931 . S
C2286 C2280 1.383 . S
C2286 C2285 1.379 . S
H2287 C2281 0.959 . S
H2288 C2281 0.961 . S
H2289 C2281 0.960 . S
H2290 C2282 0.930 . S
H2291 C2283 0.929 . S
H2292 C2300 0.929 . S
H2293 C2302 0.930 . S
H2294 C2304 0.930 . S
H2295 C2307 0.929 . S
H2296 C2310 0.930 . S
H2297 C2312 0.960 . S
H2298 C2312 0.960 . S
H2299 C2312 0.960 . S
C2300 H2292 0.929 . S
C2300 C2301 1.377 . S
C2300 C2302 1.384 . S
C2301 C2300 1.377 . S
C2301 C2307 1.390 . S
C2302 H2293 0.930 . S
C2302 C2300 1.384 . S
C2302 C2303 1.372 . S
C2303 C2302 1.372 . S
C2303 C2304 1.400 . S
C2303 C2308 1.490 . S
C2304 H2294 0.930 . S
C2304 C2303 1.400 . S
C2304 C2307 1.386 . S
H2305 C2321 0.930 . S
H2306 C2322 0.931 . S
C2307 H2295 0.929 . S
C2307 C2301 1.390 . S
C2307 C2304 1.386 . S
C2308 C2303 1.490 . S
C2308 C2310 1.395 . S
C2308 C2311 1.403 . S
H2309 C2315 0.930 . S
C2310 H2296 0.930 . S
C2310 C2308 1.395 . S
C2310 C2313 1.403 . S
C2311 C2308 1.403 . S
C2311 C2312 1.524 . S
C2311 C2315 1.400 . S
C2312 H2297 0.960 . S
C2312 H2298 0.960 . S
C2312 H2299 0.960 . S
C2312 C2311 1.524 . S
C2313 C2310 1.403 . S
C2313 C2314 1.392 . S
C2313 C2317 1.495 . S
C2314 C2313 1.392 . S
C2314 C2315 1.385 . S
C2314 C2316 1.478 . S
C2315 H2309 0.930 . S
C2315 C2311 1.400 . S
C2315 C2314 1.385 . S
C2316 C2314 1.478 . S
C2316 C2318 1.381 . S
C2316 C2322 1.383 . S
C2317 C2313 1.495 . S
C2317 H2323 0.959 . S
C2317 H2324 0.961 . S
C2317 H2325 0.960 . S
C2318 C2316 1.381 . S
C2318 C2319 1.394 . S
C2318 H2326 0.930 . S
C2319 C2318 1.394 . S
C2319 C2320 1.383 . S
C2319 H2327 0.929 . S
C2320 C2319 1.383 . S
C2320 C2321 1.377 . S
C2321 H2305 0.930 . S
C2321 C2320 1.377 . S
C2321 C2322 1.379 . S
C2322 H2306 0.931 . S
C2322 C2316 1.383 . S
C2322 C2321 1.379 . S
H2323 C2317 0.959 . S
H2324 C2317 0.961 . S
H2325 C2317 0.960 . S
H2326 C2318 0.930 . S
H2327 C2319 0.929 . S
H2328 C2336 0.929 . S
H2329 C2338 0.930 . S
H2330 C2340 0.930 . S
H2331 C2343 0.929 . S
H2332 C2346 0.930 . S
H2333 C2348 0.960 . S
H2334 C2348 0.960 . S
H2335 C2348 0.960 . S
C2336 H2328 0.929 . S
C2336 C2337 1.377 . S
C2336 C2338 1.384 . S
C2337 C2336 1.377 . S
C2337 C2343 1.390 . S
C2338 H2329 0.930 . S
C2338 C2336 1.384 . S
C2338 C2339 1.372 . S
C2339 C2338 1.372 . S
C2339 C2340 1.400 . S
C2339 C2344 1.490 . S
C2340 H2330 0.930 . S
C2340 C2339 1.400 . S
C2340 C2343 1.386 . S
H2341 C2357 0.930 . S
H2342 C2358 0.931 . S
C2343 H2331 0.929 . S
C2343 C2337 1.390 . S
C2343 C2340 1.386 . S
C2344 C2339 1.490 . S
C2344 C2346 1.395 . S
C2344 C2347 1.403 . S
H2345 C2351 0.930 . S
C2346 H2332 0.930 . S
C2346 C2344 1.395 . S
C2346 C2349 1.403 . S
C2347 C2344 1.403 . S
C2347 C2348 1.524 . S
C2347 C2351 1.400 . S
C2348 H2333 0.960 . S
C2348 H2334 0.960 . S
C2348 H2335 0.960 . S
C2348 C2347 1.524 . S
C2349 C2346 1.403 . S
C2349 C2350 1.392 . S
C2349 C2353 1.495 . S
C2350 C2349 1.392 . S
C2350 C2351 1.385 . S
C2350 C2352 1.478 . S
C2351 H2345 0.930 . S
C2351 C2347 1.400 . S
C2351 C2350 1.385 . S
C2352 C2350 1.478 . S
C2352 C2354 1.381 . S
C2352 C2358 1.383 . S
C2353 C2349 1.495 . S
C2353 H2359 0.959 . S
C2353 H2360 0.961 . S
C2353 H2361 0.960 . S
C2354 C2352 1.381 . S
C2354 C2355 1.394 . S
C2354 H2362 0.930 . S
C2355 C2354 1.394 . S
C2355 C2356 1.383 . S
C2355 H2363 0.929 . S
C2356 C2355 1.383 . S
C2356 C2357 1.377 . S
C2357 H2341 0.930 . S
C2357 C2356 1.377 . S
C2357 C2358 1.379 . S
C2358 H2342 0.931 . S
C2358 C2352 1.383 . S
C2358 C2357 1.379 . S
H2359 C2353 0.959 . S
H2360 C2353 0.961 . S
H2361 C2353 0.960 . S
H2362 C2354 0.930 . S
H2363 C2355 0.929 . S
H2364 C2372 0.929 . S
H2365 C2374 0.930 . S
H2366 C2376 0.930 . S
H2367 C2379 0.929 . S
H2368 C2382 0.930 . S
H2369 C2384 0.960 . S
H2370 C2384 0.960 . S
H2371 C2384 0.960 . S
C2372 H2364 0.929 . S
C2372 C2373 1.377 . S
C2372 C2374 1.384 . S
C2373 C2372 1.377 . S
C2373 C2379 1.390 . S
C2374 H2365 0.930 . S
C2374 C2372 1.384 . S
C2374 C2375 1.372 . S
C2375 C2374 1.372 . S
C2375 C2376 1.400 . S
C2375 C2380 1.490 . S
C2376 H2366 0.930 . S
C2376 C2375 1.400 . S
C2376 C2379 1.386 . S
H2377 C2393 0.930 . S
H2378 C2394 0.931 . S
C2379 H2367 0.929 . S
C2379 C2373 1.390 . S
C2379 C2376 1.386 . S
C2380 C2375 1.490 . S
C2380 C2382 1.395 . S
C2380 C2383 1.403 . S
H2381 C2387 0.930 . S
C2382 H2368 0.930 . S
C2382 C2380 1.395 . S
C2382 C2385 1.403 . S
C2383 C2380 1.403 . S
C2383 C2384 1.524 . S
C2383 C2387 1.400 . S
C2384 H2369 0.960 . S
C2384 H2370 0.960 . S
C2384 H2371 0.960 . S
C2384 C2383 1.524 . S
C2385 C2382 1.403 . S
C2385 C2386 1.392 . S
C2385 C2389 1.495 . S
C2386 C2385 1.392 . S
C2386 C2387 1.385 . S
C2386 C2388 1.478 . S
C2387 H2381 0.930 . S
C2387 C2383 1.400 . S
C2387 C2386 1.385 . S
C2388 C2386 1.478 . S
C2388 C2390 1.381 . S
C2388 C2394 1.383 . S
C2389 C2385 1.495 . S
C2389 H2395 0.959 . S
C2389 H2396 0.961 . S
C2389 H2397 0.960 . S
C2390 C2388 1.381 . S
C2390 C2391 1.394 . S
C2390 H2398 0.930 . S
C2391 C2390 1.394 . S
C2391 C2392 1.383 . S
C2391 H2399 0.929 . S
C2392 C2391 1.383 . S
C2392 C2393 1.377 . S
C2393 H2377 0.930 . S
C2393 C2392 1.377 . S
C2393 C2394 1.379 . S
C2394 H2378 0.931 . S
C2394 C2388 1.383 . S
C2394 C2393 1.379 . S
H2395 C2389 0.959 . S
H2396 C2389 0.961 . S
H2397 C2389 0.960 . S
H2398 C2390 0.930 . S
H2399 C2391 0.929 . S
H2400 C2408 0.929 . S
H2401 C2410 0.930 . S
H2402 C2412 0.930 . S
H2403 C2415 0.929 . S
H2404 C2418 0.930 . S
H2405 C2420 0.960 . S
H2406 C2420 0.960 . S
H2407 C2420 0.960 . S
C2408 H2400 0.929 . S
C2408 C2409 1.377 . S
C2408 C2410 1.384 . S
C2409 C2408 1.377 . S
C2409 C2415 1.390 . S
C2410 H2401 0.930 . S
C2410 C2408 1.384 . S
C2410 C2411 1.372 . S
C2411 C2410 1.372 . S
C2411 C2412 1.400 . S
C2411 C2416 1.490 . S
C2412 H2402 0.930 . S
C2412 C2411 1.400 . S
C2412 C2415 1.386 . S
H2413 C2429 0.930 . S
H2414 C2430 0.931 . S
C2415 H2403 0.929 . S
C2415 C2409 1.390 . S
C2415 C2412 1.386 . S
C2416 C2411 1.490 . S
C2416 C2418 1.395 . S
C2416 C2419 1.403 . S
H2417 C2423 0.930 . S
C2418 H2404 0.930 . S
C2418 C2416 1.395 . S
C2418 C2421 1.403 . S
C2419 C2416 1.403 . S
C2419 C2420 1.524 . S
C2419 C2423 1.400 . S
C2420 H2405 0.960 . S
C2420 H2406 0.960 . S
C2420 H2407 0.960 . S
C2420 C2419 1.524 . S
C2421 C2418 1.403 . S
C2421 C2422 1.392 . S
C2421 C2425 1.495 . S
C2422 C2421 1.392 . S
C2422 C2423 1.385 . S
C2422 C2424 1.478 . S
C2423 H2417 0.930 . S
C2423 C2419 1.400 . S
C2423 C2422 1.385 . S
C2424 C2422 1.478 . S
C2424 C2426 1.381 . S
C2424 C2430 1.383 . S
C2425 C2421 1.495 . S
C2425 H2431 0.959 . S
C2425 H2432 0.961 . S
C2425 H2433 0.960 . S
C2426 C2424 1.381 . S
C2426 C2427 1.394 . S
C2426 H2434 0.930 . S
C2427 C2426 1.394 . S
C2427 C2428 1.383 . S
C2427 H2435 0.929 . S
C2428 C2427 1.383 . S
C2428 C2429 1.377 . S
C2429 H2413 0.930 . S
C2429 C2428 1.377 . S
C2429 C2430 1.379 . S
C2430 H2414 0.931 . S
C2430 C2424 1.383 . S
C2430 C2429 1.379 . S
H2431 C2425 0.959 . S
H2432 C2425 0.961 . S
H2433 C2425 0.960 . S
H2434 C2426 0.930 . S
H2435 C2427 0.929 . S
H2436 C2444 0.929 . S
H2437 C2446 0.930 . S
H2438 C2448 0.930 . S
H2439 C2451 0.929 . S
H2440 C2454 0.930 . S
H2441 C2456 0.960 . S
H2442 C2456 0.960 . S
H2443 C2456 0.960 . S
C2444 H2436 0.929 . S
C2444 C2445 1.377 . S
C2444 C2446 1.384 . S
C2445 C2444 1.377 . S
C2445 C2451 1.390 . S
C2446 H2437 0.930 . S
C2446 C2444 1.384 . S
C2446 C2447 1.372 . S
C2447 C2446 1.372 . S
C2447 C2448 1.400 . S
C2447 C2452 1.490 . S
C2448 H2438 0.930 . S
C2448 C2447 1.400 . S
C2448 C2451 1.386 . S
H2449 C2465 0.930 . S
H2450 C2466 0.931 . S
C2451 H2439 0.929 . S
C2451 C2445 1.390 . S
C2451 C2448 1.386 . S
C2452 C2447 1.490 . S
C2452 C2454 1.395 . S
C2452 C2455 1.403 . S
H2453 C2459 0.930 . S
C2454 H2440 0.930 . S
C2454 C2452 1.395 . S
C2454 C2457 1.403 . S
C2455 C2452 1.403 . S
C2455 C2456 1.524 . S
C2455 C2459 1.400 . S
C2456 H2441 0.960 . S
C2456 H2442 0.960 . S
C2456 H2443 0.960 . S
C2456 C2455 1.524 . S
C2457 C2454 1.403 . S
C2457 C2458 1.392 . S
C2457 C2461 1.495 . S
C2458 C2457 1.392 . S
C2458 C2459 1.385 . S
C2458 C2460 1.478 . S
C2459 H2453 0.930 . S
C2459 C2455 1.400 . S
C2459 C2458 1.385 . S
C2460 C2458 1.478 . S
C2460 C2462 1.381 . S
C2460 C2466 1.383 . S
C2461 C2457 1.495 . S
C2461 H2467 0.959 . S
C2461 H2468 0.961 . S
C2461 H2469 0.960 . S
C2462 C2460 1.381 . S
C2462 C2463 1.394 . S
C2462 H2470 0.930 . S
C2463 C2462 1.394 . S
C2463 C2464 1.383 . S
C2463 H2471 0.929 . S
C2464 C2463 1.383 . S
C2464 C2465 1.377 . S
C2465 H2449 0.930 . S
C2465 C2464 1.377 . S
C2465 C2466 1.379 . S
C2466 H2450 0.931 . S
C2466 C2460 1.383 . S
C2466 C2465 1.379 . S
H2467 C2461 0.959 . S
H2468 C2461 0.961 . S
H2469 C2461 0.960 . S
H2470 C2462 0.930 . S
H2471 C2463 0.929 . S
H2472 C2480 0.929 . S
H2473 C2482 0.930 . S
H2474 C2484 0.930 . S
H2475 C2487 0.929 . S
H2476 C2490 0.930 . S
H2477 C2492 0.960 . S
H2478 C2492 0.960 . S
H2479 C2492 0.960 . S
C2480 H2472 0.929 . S
C2480 C2481 1.377 . S
C2480 C2482 1.384 . S
C2481 C2480 1.377 . S
C2481 C2487 1.390 . S
C2482 H2473 0.930 . S
C2482 C2480 1.384 . S
C2482 C2483 1.372 . S
C2483 C2482 1.372 . S
C2483 C2484 1.400 . S
C2483 C2488 1.490 . S
C2484 H2474 0.930 . S
C2484 C2483 1.400 . S
C2484 C2487 1.386 . S
H2485 C2501 0.930 . S
H2486 C2502 0.931 . S
C2487 H2475 0.929 . S
C2487 C2481 1.390 . S
C2487 C2484 1.386 . S
C2488 C2483 1.490 . S
C2488 C2490 1.395 . S
C2488 C2491 1.403 . S
H2489 C2495 0.930 . S
C2490 H2476 0.930 . S
C2490 C2488 1.395 . S
C2490 C2493 1.403 . S
C2491 C2488 1.403 . S
C2491 C2492 1.524 . S
C2491 C2495 1.400 . S
C2492 H2477 0.960 . S
C2492 H2478 0.960 . S
C2492 H2479 0.960 . S
C2492 C2491 1.524 . S
C2493 C2490 1.403 . S
C2493 C2494 1.392 . S
C2493 C2497 1.495 . S
C2494 C2493 1.392 . S
C2494 C2495 1.385 . S
C2494 C2496 1.478 . S
C2495 H2489 0.930 . S
C2495 C2491 1.400 . S
C2495 C2494 1.385 . S
C2496 C2494 1.478 . S
C2496 C2498 1.381 . S
C2496 C2502 1.383 . S
C2497 C2493 1.495 . S
C2497 H2503 0.959 . S
C2497 H2504 0.961 . S
C2497 H2505 0.960 . S
C2498 C2496 1.381 . S
C2498 C2499 1.394 . S
C2498 H2506 0.930 . S
C2499 C2498 1.394 . S
C2499 C2500 1.383 . S
C2499 H2507 0.929 . S
C2500 C2499 1.383 . S
C2500 C2501 1.377 . S
C2501 H2485 0.930 . S
C2501 C2500 1.377 . S
C2501 C2502 1.379 . S
C2502 H2486 0.931 . S
C2502 C2496 1.383 . S
C2502 C2501 1.379 . S
H2503 C2497 0.959 . S
H2504 C2497 0.961 . S
H2505 C2497 0.960 . S
H2506 C2498 0.930 . S
H2507 C2499 0.929 . S
H2508 C2516 0.929 . S
H2509 C2518 0.930 . S
H2510 C2520 0.930 . S
H2511 C2523 0.929 . S
H2512 C2526 0.930 . S
H2513 C2528 0.960 . S
H2514 C2528 0.960 . S
H2515 C2528 0.960 . S
C2516 H2508 0.929 . S
C2516 C2517 1.377 . S
C2516 C2518 1.384 . S
C2517 C2516 1.377 . S
C2517 C2523 1.390 . S
C2518 H2509 0.930 . S
C2518 C2516 1.384 . S
C2518 C2519 1.372 . S
C2519 C2518 1.372 . S
C2519 C2520 1.400 . S
C2519 C2524 1.490 . S
C2520 H2510 0.930 . S
C2520 C2519 1.400 . S
C2520 C2523 1.386 . S
H2521 C2537 0.930 . S
H2522 C2538 0.931 . S
C2523 H2511 0.929 . S
C2523 C2517 1.390 . S
C2523 C2520 1.386 . S
C2524 C2519 1.490 . S
C2524 C2526 1.395 . S
C2524 C2527 1.403 . S
H2525 C2531 0.930 . S
C2526 H2512 0.930 . S
C2526 C2524 1.395 . S
C2526 C2529 1.403 . S
C2527 C2524 1.403 . S
C2527 C2528 1.524 . S
C2527 C2531 1.400 . S
C2528 H2513 0.960 . S
C2528 H2514 0.960 . S
C2528 H2515 0.960 . S
C2528 C2527 1.524 . S
C2529 C2526 1.403 . S
C2529 C2530 1.392 . S
C2529 C2533 1.495 . S
C2530 C2529 1.392 . S
C2530 C2531 1.385 . S
C2530 C2532 1.478 . S
C2531 H2525 0.930 . S
C2531 C2527 1.400 . S
C2531 C2530 1.385 . S
C2532 C2530 1.478 . S
C2532 C2534 1.381 . S
C2532 C2538 1.383 . S
C2533 C2529 1.495 . S
C2533 H2539 0.959 . S
C2533 H2540 0.961 . S
C2533 H2541 0.960 . S
C2534 C2532 1.381 . S
C2534 C2535 1.394 . S
C2534 H2542 0.930 . S
C2535 C2534 1.394 . S
C2535 C2536 1.383 . S
C2535 H2543 0.929 . S
C2536 C2535 1.383 . S
C2536 C2537 1.377 . S
C2537 H2521 0.930 . S
C2537 C2536 1.377 . S
C2537 C2538 1.379 . S
C2538 H2522 0.931 . S
C2538 C2532 1.383 . S
C2538 C2537 1.379 . S
H2539 C2533 0.959 . S
H2540 C2533 0.961 . S
H2541 C2533 0.960 . S
H2542 C2534 0.930 . S
H2543 C2535 0.929 . S
H2544 C2552 0.929 . S
H2545 C2554 0.930 . S
H2546 C2556 0.930 . S
H2547 C2559 0.929 . S
H2548 C2562 0.930 . S
H2549 C2564 0.960 . S
H2550 C2564 0.960 . S
H2551 C2564 0.960 . S
C2552 H2544 0.929 . S
C2552 C2553 1.377 . S
C2552 C2554 1.384 . S
C2553 C2552 1.377 . S
C2553 C2559 1.390 . S
C2554 H2545 0.930 . S
C2554 C2552 1.384 . S
C2554 C2555 1.372 . S
C2555 C2554 1.372 . S
C2555 C2556 1.400 . S
C2555 C2560 1.490 . S
C2556 H2546 0.930 . S
C2556 C2555 1.400 . S
C2556 C2559 1.386 . S
H2557 C2573 0.930 . S
H2558 C2574 0.931 . S
C2559 H2547 0.929 . S
C2559 C2553 1.390 . S
C2559 C2556 1.386 . S
C2560 C2555 1.490 . S
C2560 C2562 1.395 . S
C2560 C2563 1.403 . S
H2561 C2567 0.930 . S
C2562 H2548 0.930 . S
C2562 C2560 1.395 . S
C2562 C2565 1.403 . S
C2563 C2560 1.403 . S
C2563 C2564 1.524 . S
C2563 C2567 1.400 . S
C2564 H2549 0.960 . S
C2564 H2550 0.960 . S
C2564 H2551 0.960 . S
C2564 C2563 1.524 . S
C2565 C2562 1.403 . S
C2565 C2566 1.392 . S
C2565 C2569 1.495 . S
C2566 C2565 1.392 . S
C2566 C2567 1.385 . S
C2566 C2568 1.478 . S
C2567 H2561 0.930 . S
C2567 C2563 1.400 . S
C2567 C2566 1.385 . S
C2568 C2566 1.478 . S
C2568 C2570 1.381 . S
C2568 C2574 1.383 . S
C2569 C2565 1.495 . S
C2569 H2575 0.959 . S
C2569 H2576 0.961 . S
C2569 H2577 0.960 . S
C2570 C2568 1.381 . S
C2570 C2571 1.394 . S
C2570 H2578 0.930 . S
C2571 C2570 1.394 . S
C2571 C2572 1.383 . S
C2571 H2579 0.929 . S
C2572 C2571 1.383 . S
C2572 C2573 1.377 . S
C2573 H2557 0.930 . S
C2573 C2572 1.377 . S
C2573 C2574 1.379 . S
C2574 H2558 0.931 . S
C2574 C2568 1.383 . S
C2574 C2573 1.379 . S
H2575 C2569 0.959 . S
H2576 C2569 0.961 . S
H2577 C2569 0.960 . S
H2578 C2570 0.930 . S
H2579 C2571 0.929 . S
H2580 C2588 0.929 . S
H2581 C2590 0.930 . S
H2582 C2592 0.930 . S
H2583 C2595 0.929 . S
H2584 C2598 0.930 . S
H2585 C2600 0.960 . S
H2586 C2600 0.960 . S
H2587 C2600 0.960 . S
C2588 H2580 0.929 . S
C2588 C2589 1.377 . S
C2588 C2590 1.384 . S
C2589 C2588 1.377 . S
C2589 C2595 1.390 . S
C2590 H2581 0.930 . S
C2590 C2588 1.384 . S
C2590 C2591 1.372 . S
C2591 C2590 1.372 . S
C2591 C2592 1.400 . S
C2591 C2596 1.490 . S
C2592 H2582 0.930 . S
C2592 C2591 1.400 . S
C2592 C2595 1.386 . S
H2593 C2609 0.930 . S
H2594 C2610 0.931 . S
C2595 H2583 0.929 . S
C2595 C2589 1.390 . S
C2595 C2592 1.386 . S
C2596 C2591 1.490 . S
C2596 C2598 1.395 . S
C2596 C2599 1.403 . S
H2597 C2603 0.930 . S
C2598 H2584 0.930 . S
C2598 C2596 1.395 . S
C2598 C2601 1.403 . S
C2599 C2596 1.403 . S
C2599 C2600 1.524 . S
C2599 C2603 1.400 . S
C2600 H2585 0.960 . S
C2600 H2586 0.960 . S
C2600 H2587 0.960 . S
C2600 C2599 1.524 . S
C2601 C2598 1.403 . S
C2601 C2602 1.392 . S
C2601 C2605 1.495 . S
C2602 C2601 1.392 . S
C2602 C2603 1.385 . S
C2602 C2604 1.478 . S
C2603 H2597 0.930 . S
C2603 C2599 1.400 . S
C2603 C2602 1.385 . S
C2604 C2602 1.478 . S
C2604 C2606 1.381 . S
C2604 C2610 1.383 . S
C2605 C2601 1.495 . S
C2605 H2611 0.959 . S
C2605 H2612 0.961 . S
C2605 H2613 0.960 . S
C2606 C2604 1.381 . S
C2606 C2607 1.394 . S
C2606 H2614 0.930 . S
C2607 C2606 1.394 . S
C2607 C2608 1.383 . S
C2607 H2615 0.929 . S
C2608 C2607 1.383 . S
C2608 C2609 1.377 . S
C2609 H2593 0.930 . S
C2609 C2608 1.377 . S
C2609 C2610 1.379 . S
C2610 H2594 0.931 . S
C2610 C2604 1.383 . S
C2610 C2609 1.379 . S
H2611 C2605 0.959 . S
H2612 C2605 0.961 . S
H2613 C2605 0.960 . S
H2614 C2606 0.930 . S
H2615 C2607 0.929 . S
H2616 C2624 0.929 . S
H2617 C2626 0.930 . S
H2618 C2628 0.930 . S
H2619 C2631 0.929 . S
H2620 C2634 0.930 . S
H2621 C2636 0.960 . S
H2622 C2636 0.960 . S
H2623 C2636 0.960 . S
C2624 H2616 0.929 . S
C2624 C2625 1.377 . S
C2624 C2626 1.384 . S
C2625 C2624 1.377 . S
C2625 C2631 1.390 . S
C2626 H2617 0.930 . S
C2626 C2624 1.384 . S
C2626 C2627 1.372 . S
C2627 C2626 1.372 . S
C2627 C2628 1.400 . S
C2627 C2632 1.490 . S
C2628 H2618 0.930 . S
C2628 C2627 1.400 . S
C2628 C2631 1.386 . S
H2629 C2645 0.930 . S
H2630 C2646 0.931 . S
C2631 H2619 0.929 . S
C2631 C2625 1.390 . S
C2631 C2628 1.386 . S
C2632 C2627 1.490 . S
C2632 C2634 1.395 . S
C2632 C2635 1.403 . S
H2633 C2639 0.930 . S
C2634 H2620 0.930 . S
C2634 C2632 1.395 . S
C2634 C2637 1.403 . S
C2635 C2632 1.403 . S
C2635 C2636 1.524 . S
C2635 C2639 1.400 . S
C2636 H2621 0.960 . S
C2636 H2622 0.960 . S
C2636 H2623 0.960 . S
C2636 C2635 1.524 . S
C2637 C2634 1.403 . S
C2637 C2638 1.392 . S
C2637 C2641 1.495 . S
C2638 C2637 1.392 . S
C2638 C2639 1.385 . S
C2638 C2640 1.478 . S
C2639 H2633 0.930 . S
C2639 C2635 1.400 . S
C2639 C2638 1.385 . S
C2640 C2638 1.478 . S
C2640 C2642 1.381 . S
C2640 C2646 1.383 . S
C2641 C2637 1.495 . S
C2641 H2647 0.959 . S
C2641 H2648 0.961 . S
C2641 H2649 0.960 . S
C2642 C2640 1.381 . S
C2642 C2643 1.394 . S
C2642 H2650 0.930 . S
C2643 C2642 1.394 . S
C2643 C2644 1.383 . S
C2643 H2651 0.929 . S
C2644 C2643 1.383 . S
C2644 C2645 1.377 . S
C2645 H2629 0.930 . S
C2645 C2644 1.377 . S
C2645 C2646 1.379 . S
C2646 H2630 0.931 . S
C2646 C2640 1.383 . S
C2646 C2645 1.379 . S
H2647 C2641 0.959 . S
H2648 C2641 0.961 . S
H2649 C2641 0.960 . S
H2650 C2642 0.930 . S
H2651 C2643 0.929 . S
H2652 C2660 0.929 . S
H2653 C2662 0.930 . S
H2654 C2664 0.930 . S
H2655 C2667 0.929 . S
H2656 C2670 0.930 . S
H2657 C2672 0.960 . S
H2658 C2672 0.960 . S
H2659 C2672 0.960 . S
C2660 H2652 0.929 . S
C2660 C2661 1.377 . S
C2660 C2662 1.384 . S
C2661 C2660 1.377 . S
C2661 C2667 1.390 . S
C2662 H2653 0.930 . S
C2662 C2660 1.384 . S
C2662 C2663 1.372 . S
C2663 C2662 1.372 . S
C2663 C2664 1.400 . S
C2663 C2668 1.490 . S
C2664 H2654 0.930 . S
C2664 C2663 1.400 . S
C2664 C2667 1.386 . S
H2665 C2681 0.930 . S
H2666 C2682 0.931 . S
C2667 H2655 0.929 . S
C2667 C2661 1.390 . S
C2667 C2664 1.386 . S
C2668 C2663 1.490 . S
C2668 C2670 1.395 . S
C2668 C2671 1.403 . S
H2669 C2675 0.930 . S
C2670 H2656 0.930 . S
C2670 C2668 1.395 . S
C2670 C2673 1.403 . S
C2671 C2668 1.403 . S
C2671 C2672 1.524 . S
C2671 C2675 1.400 . S
C2672 H2657 0.960 . S
C2672 H2658 0.960 . S
C2672 H2659 0.960 . S
C2672 C2671 1.524 . S
C2673 C2670 1.403 . S
C2673 C2674 1.392 . S
C2673 C2677 1.495 . S
C2674 C2673 1.392 . S
C2674 C2675 1.385 . S
C2674 C2676 1.478 . S
C2675 H2669 0.930 . S
C2675 C2671 1.400 . S
C2675 C2674 1.385 . S
C2676 C2674 1.478 . S
C2676 C2678 1.381 . S
C2676 C2682 1.383 . S
C2677 C2673 1.495 . S
C2677 H2683 0.959 . S
C2677 H2684 0.961 . S
C2677 H2685 0.960 . S
C2678 C2676 1.381 . S
C2678 C2679 1.394 . S
C2678 H2686 0.930 . S
C2679 C2678 1.394 . S
C2679 C2680 1.383 . S
C2679 H2687 0.929 . S
C2680 C2679 1.383 . S
C2680 C2681 1.377 . S
C2681 H2665 0.930 . S
C2681 C2680 1.377 . S
C2681 C2682 1.379 . S
C2682 H2666 0.931 . S
C2682 C2676 1.383 . S
C2682 C2681 1.379 . S
H2683 C2677 0.959 . S
H2684 C2677 0.961 . S
H2685 C2677 0.960 . S
H2686 C2678 0.930 . S
H2687 C2679 0.929 . S
H2688 C2696 0.929 . S
H2689 C2698 0.930 . S
H2690 C2700 0.930 . S
H2691 C2703 0.929 . S
H2692 C2706 0.930 . S
H2693 C2708 0.960 . S
H2694 C2708 0.960 . S
H2695 C2708 0.960 . S
C2696 H2688 0.929 . S
C2696 C2697 1.377 . S
C2696 C2698 1.384 . S
C2697 C2696 1.377 . S
C2697 C2703 1.390 . S
C2698 H2689 0.930 . S
C2698 C2696 1.384 . S
C2698 C2699 1.372 . S
C2699 C2698 1.372 . S
C2699 C2700 1.400 . S
C2699 C2704 1.490 . S
C2700 H2690 0.930 . S
C2700 C2699 1.400 . S
C2700 C2703 1.386 . S
H2701 C2717 0.930 . S
H2702 C2718 0.931 . S
C2703 H2691 0.929 . S
C2703 C2697 1.390 . S
C2703 C2700 1.386 . S
C2704 C2699 1.490 . S
C2704 C2706 1.395 . S
C2704 C2707 1.403 . S
H2705 C2711 0.930 . S
C2706 H2692 0.930 . S
C2706 C2704 1.395 . S
C2706 C2709 1.403 . S
C2707 C2704 1.403 . S
C2707 C2708 1.524 . S
C2707 C2711 1.400 . S
C2708 H2693 0.960 . S
C2708 H2694 0.960 . S
C2708 H2695 0.960 . S
C2708 C2707 1.524 . S
C2709 C2706 1.403 . S
C2709 C2710 1.392 . S
C2709 C2713 1.495 . S
C2710 C2709 1.392 . S
C2710 C2711 1.385 . S
C2710 C2712 1.478 . S
C2711 H2705 0.930 . S
C2711 C2707 1.400 . S
C2711 C2710 1.385 . S
C2712 C2710 1.478 . S
C2712 C2714 1.381 . S
C2712 C2718 1.383 . S
C2713 C2709 1.495 . S
C2713 H2719 0.959 . S
C2713 H2720 0.961 . S
C2713 H2721 0.960 . S
C2714 C2712 1.381 . S
C2714 C2715 1.394 . S
C2714 H2722 0.930 . S
C2715 C2714 1.394 . S
C2715 C2716 1.383 . S
C2715 H2723 0.929 . S
C2716 C2715 1.383 . S
C2716 C2717 1.377 . S
C2717 H2701 0.930 . S
C2717 C2716 1.377 . S
C2717 C2718 1.379 . S
C2718 H2702 0.931 . S
C2718 C2712 1.383 . S
C2718 C2717 1.379 . S
H2719 C2713 0.959 . S
H2720 C2713 0.961 . S
H2721 C2713 0.960 . S
H2722 C2714 0.930 . S
H2723 C2715 0.929 . S
H2724 C2732 0.929 . S
H2725 C2734 0.930 . S
H2726 C2736 0.930 . S
H2727 C2739 0.929 . S
H2728 C2742 0.930 . S
H2729 C2744 0.960 . S
H2730 C2744 0.960 . S
H2731 C2744 0.960 . S
C2732 H2724 0.929 . S
C2732 C2733 1.377 . S
C2732 C2734 1.384 . S
C2733 C2732 1.377 . S
C2733 C2739 1.390 . S
C2734 H2725 0.930 . S
C2734 C2732 1.384 . S
C2734 C2735 1.372 . S
C2735 C2734 1.372 . S
C2735 C2736 1.400 . S
C2735 C2740 1.490 . S
C2736 H2726 0.930 . S
C2736 C2735 1.400 . S
C2736 C2739 1.386 . S
H2737 C2753 0.930 . S
H2738 C2754 0.931 . S
C2739 H2727 0.929 . S
C2739 C2733 1.390 . S
C2739 C2736 1.386 . S
C2740 C2735 1.490 . S
C2740 C2742 1.395 . S
C2740 C2743 1.403 . S
H2741 C2747 0.930 . S
C2742 H2728 0.930 . S
C2742 C2740 1.395 . S
C2742 C2745 1.403 . S
C2743 C2740 1.403 . S
C2743 C2744 1.524 . S
C2743 C2747 1.400 . S
C2744 H2729 0.960 . S
C2744 H2730 0.960 . S
C2744 H2731 0.960 . S
C2744 C2743 1.524 . S
C2745 C2742 1.403 . S
C2745 C2746 1.392 . S
C2745 C2749 1.495 . S
C2746 C2745 1.392 . S
C2746 C2747 1.385 . S
C2746 C2748 1.478 . S
C2747 H2741 0.930 . S
C2747 C2743 1.400 . S
C2747 C2746 1.385 . S
C2748 C2746 1.478 . S
C2748 C2750 1.381 . S
C2748 C2754 1.383 . S
C2749 C2745 1.495 . S
C2749 H2755 0.959 . S
C2749 H2756 0.961 . S
C2749 H2757 0.960 . S
C2750 C2748 1.381 . S
C2750 C2751 1.394 . S
C2750 H2758 0.930 . S
C2751 C2750 1.394 . S
C2751 C2752 1.383 . S
C2751 H2759 0.929 . S
C2752 C2751 1.383 . S
C2752 C2753 1.377 . S
C2753 H2737 0.930 . S
C2753 C2752 1.377 . S
C2753 C2754 1.379 . S
C2754 H2738 0.931 . S
C2754 C2748 1.383 . S
C2754 C2753 1.379 . S
H2755 C2749 0.959 . S
H2756 C2749 0.961 . S
H2757 C2749 0.960 . S
H2758 C2750 0.930 . S
H2759 C2751 0.929 . S
H2760 C2768 0.929 . S
H2761 C2770 0.930 . S
H2762 C2772 0.930 . S
H2763 C2775 0.929 . S
H2764 C2778 0.930 . S
H2765 C2780 0.960 . S
H2766 C2780 0.960 . S
H2767 C2780 0.960 . S
C2768 H2760 0.929 . S
C2768 C2769 1.377 . S
C2768 C2770 1.384 . S
C2769 C2768 1.377 . S
C2769 C2775 1.390 . S
C2770 H2761 0.930 . S
C2770 C2768 1.384 . S
C2770 C2771 1.372 . S
C2771 C2770 1.372 . S
C2771 C2772 1.400 . S
C2771 C2776 1.490 . S
C2772 H2762 0.930 . S
C2772 C2771 1.400 . S
C2772 C2775 1.386 . S
H2773 C2789 0.930 . S
H2774 C2790 0.931 . S
C2775 H2763 0.929 . S
C2775 C2769 1.390 . S
C2775 C2772 1.386 . S
C2776 C2771 1.490 . S
C2776 C2778 1.395 . S
C2776 C2779 1.403 . S
H2777 C2783 0.930 . S
C2778 H2764 0.930 . S
C2778 C2776 1.395 . S
C2778 C2781 1.403 . S
C2779 C2776 1.403 . S
C2779 C2780 1.524 . S
C2779 C2783 1.400 . S
C2780 H2765 0.960 . S
C2780 H2766 0.960 . S
C2780 H2767 0.960 . S
C2780 C2779 1.524 . S
C2781 C2778 1.403 . S
C2781 C2782 1.392 . S
C2781 C2785 1.495 . S
C2782 C2781 1.392 . S
C2782 C2783 1.385 . S
C2782 C2784 1.478 . S
C2783 H2777 0.930 . S
C2783 C2779 1.400 . S
C2783 C2782 1.385 . S
C2784 C2782 1.478 . S
C2784 C2786 1.381 . S
C2784 C2790 1.383 . S
C2785 C2781 1.495 . S
C2785 H2791 0.959 . S
C2785 H2792 0.961 . S
C2785 H2793 0.960 . S
C2786 C2784 1.381 . S
C2786 C2787 1.394 . S
C2786 H2794 0.930 . S
C2787 C2786 1.394 . S
C2787 C2788 1.383 . S
C2787 H2795 0.929 . S
C2788 C2787 1.383 . S
C2788 C2789 1.377 . S
C2789 H2773 0.930 . S
C2789 C2788 1.377 . S
C2789 C2790 1.379 . S
C2790 H2774 0.931 . S
C2790 C2784 1.383 . S
C2790 C2789 1.379 . S
H2791 C2785 0.959 . S
H2792 C2785 0.961 . S
H2793 C2785 0.960 . S
H2794 C2786 0.930 . S
H2795 C2787 0.929 . S
H2796 C2804 0.929 . S
H2797 C2806 0.930 . S
H2798 C2808 0.930 . S
H2799 C2811 0.929 . S
H2800 C2814 0.930 . S
H2801 C2816 0.960 . S
H2802 C2816 0.960 . S
H2803 C2816 0.960 . S
C2804 H2796 0.929 . S
C2804 C2805 1.377 . S
C2804 C2806 1.384 . S
C2805 C2804 1.377 . S
C2805 C2811 1.390 . S
C2806 H2797 0.930 . S
C2806 C2804 1.384 . S
C2806 C2807 1.372 . S
C2807 C2806 1.372 . S
C2807 C2808 1.400 . S
C2807 C2812 1.490 . S
C2808 H2798 0.930 . S
C2808 C2807 1.400 . S
C2808 C2811 1.386 . S
H2809 C2825 0.930 . S
H2810 C2826 0.931 . S
C2811 H2799 0.929 . S
C2811 C2805 1.390 . S
C2811 C2808 1.386 . S
C2812 C2807 1.490 . S
C2812 C2814 1.395 . S
C2812 C2815 1.403 . S
H2813 C2819 0.930 . S
C2814 H2800 0.930 . S
C2814 C2812 1.395 . S
C2814 C2817 1.403 . S
C2815 C2812 1.403 . S
C2815 C2816 1.524 . S
C2815 C2819 1.400 . S
C2816 H2801 0.960 . S
C2816 H2802 0.960 . S
C2816 H2803 0.960 . S
C2816 C2815 1.524 . S
C2817 C2814 1.403 . S
C2817 C2818 1.392 . S
C2817 C2821 1.495 . S
C2818 C2817 1.392 . S
C2818 C2819 1.385 . S
C2818 C2820 1.478 . S
C2819 H2813 0.930 . S
C2819 C2815 1.400 . S
C2819 C2818 1.385 . S
C2820 C2818 1.478 . S
C2820 C2822 1.381 . S
C2820 C2826 1.383 . S
C2821 C2817 1.495 . S
C2821 H2827 0.959 . S
C2821 H2828 0.961 . S
C2821 H2829 0.960 . S
C2822 C2820 1.381 . S
C2822 C2823 1.394 . S
C2822 H2830 0.930 . S
C2823 C2822 1.394 . S
C2823 C2824 1.383 . S
C2823 H2831 0.929 . S
C2824 C2823 1.383 . S
C2824 C2825 1.377 . S
C2825 H2809 0.930 . S
C2825 C2824 1.377 . S
C2825 C2826 1.379 . S
C2826 H2810 0.931 . S
C2826 C2820 1.383 . S
C2826 C2825 1.379 . S
H2827 C2821 0.959 . S
H2828 C2821 0.961 . S
H2829 C2821 0.960 . S
H2830 C2822 0.930 . S
H2831 C2823 0.929 . S
H2832 C2840 0.929 . S
H2833 C2842 0.930 . S
H2834 C2844 0.930 . S
H2835 C2847 0.929 . S
H2836 C2850 0.930 . S
H2837 C2852 0.960 . S
H2838 C2852 0.960 . S
H2839 C2852 0.960 . S
C2840 H2832 0.929 . S
C2840 C2841 1.377 . S
C2840 C2842 1.384 . S
C2841 C2840 1.377 . S
C2841 C2847 1.390 . S
C2842 H2833 0.930 . S
C2842 C2840 1.384 . S
C2842 C2843 1.372 . S
C2843 C2842 1.372 . S
C2843 C2844 1.400 . S
C2843 C2848 1.490 . S
C2844 H2834 0.930 . S
C2844 C2843 1.400 . S
C2844 C2847 1.386 . S
H2845 C2861 0.930 . S
H2846 C2862 0.931 . S
C2847 H2835 0.929 . S
C2847 C2841 1.390 . S
C2847 C2844 1.386 . S
C2848 C2843 1.490 . S
C2848 C2850 1.395 . S
C2848 C2851 1.403 . S
H2849 C2855 0.930 . S
C2850 H2836 0.930 . S
C2850 C2848 1.395 . S
C2850 C2853 1.403 . S
C2851 C2848 1.403 . S
C2851 C2852 1.524 . S
C2851 C2855 1.400 . S
C2852 H2837 0.960 . S
C2852 H2838 0.960 . S
C2852 H2839 0.960 . S
C2852 C2851 1.524 . S
C2853 C2850 1.403 . S
C2853 C2854 1.392 . S
C2853 C2857 1.495 . S
C2854 C2853 1.392 . S
C2854 C2855 1.385 . S
C2854 C2856 1.478 . S
C2855 H2849 0.930 . S
C2855 C2851 1.400 . S
C2855 C2854 1.385 . S
C2856 C2854 1.478 . S
C2856 C2858 1.381 . S
C2856 C2862 1.383 . S
C2857 C2853 1.495 . S
C2857 H2863 0.959 . S
C2857 H2864 0.961 . S
C2857 H2865 0.960 . S
C2858 C2856 1.381 . S
C2858 C2859 1.394 . S
C2858 H2866 0.930 . S
C2859 C2858 1.394 . S
C2859 C2860 1.383 . S
C2859 H2867 0.929 . S
C2860 C2859 1.383 . S
C2860 C2861 1.377 . S
C2861 H2845 0.930 . S
C2861 C2860 1.377 . S
C2861 C2862 1.379 . S
C2862 H2846 0.931 . S
C2862 C2856 1.383 . S
C2862 C2861 1.379 . S
H2863 C2857 0.959 . S
H2864 C2857 0.961 . S
H2865 C2857 0.960 . S
H2866 C2858 0.930 . S
H2867 C2859 0.929 . S
H2868 C2876 0.929 . S
H2869 C2878 0.930 . S
H2870 C2880 0.930 . S
H2871 C2883 0.929 . S
H2872 C2886 0.930 . S
H2873 C2888 0.960 . S
H2874 C2888 0.960 . S
H2875 C2888 0.960 . S
C2876 H2868 0.929 . S
C2876 C2877 1.377 . S
C2876 C2878 1.384 . S
C2877 C2876 1.377 . S
C2877 C2883 1.390 . S
C2878 H2869 0.930 . S
C2878 C2876 1.384 . S
C2878 C2879 1.372 . S
C2879 C2878 1.372 . S
C2879 C2880 1.400 . S
C2879 C2884 1.490 . S
C2880 H2870 0.930 . S
C2880 C2879 1.400 . S
C2880 C2883 1.386 . S
H2881 C2897 0.930 . S
H2882 C2898 0.931 . S
C2883 H2871 0.929 . S
C2883 C2877 1.390 . S
C2883 C2880 1.386 . S
C2884 C2879 1.490 . S
C2884 C2886 1.395 . S
C2884 C2887 1.403 . S
H2885 C2891 0.930 . S
C2886 H2872 0.930 . S
C2886 C2884 1.395 . S
C2886 C2889 1.403 . S
C2887 C2884 1.403 . S
C2887 C2888 1.524 . S
C2887 C2891 1.400 . S
C2888 H2873 0.960 . S
C2888 H2874 0.960 . S
C2888 H2875 0.960 . S
C2888 C2887 1.524 . S
C2889 C2886 1.403 . S
C2889 C2890 1.392 . S
C2889 C2893 1.495 . S
C2890 C2889 1.392 . S
C2890 C2891 1.385 . S
C2890 C2892 1.478 . S
C2891 H2885 0.930 . S
C2891 C2887 1.400 . S
C2891 C2890 1.385 . S
C2892 C2890 1.478 . S
C2892 C2894 1.381 . S
C2892 C2898 1.383 . S
C2893 C2889 1.495 . S
C2893 H2899 0.959 . S
C2893 H2900 0.961 . S
C2893 H2901 0.960 . S
C2894 C2892 1.381 . S
C2894 C2895 1.394 . S
C2894 H2902 0.930 . S
C2895 C2894 1.394 . S
C2895 C2896 1.383 . S
C2895 H2903 0.929 . S
C2896 C2895 1.383 . S
C2896 C2897 1.377 . S
C2897 H2881 0.930 . S
C2897 C2896 1.377 . S
C2897 C2898 1.379 . S
C2898 H2882 0.931 . S
C2898 C2892 1.383 . S
C2898 C2897 1.379 . S
H2899 C2893 0.959 . S
H2900 C2893 0.961 . S
H2901 C2893 0.960 . S
H2902 C2894 0.930 . S
H2903 C2895 0.929 . S
H2904 C2912 0.929 . S
H2905 C2914 0.930 . S
H2906 C2916 0.930 . S
H2907 C2919 0.929 . S
H2908 C2922 0.930 . S
H2909 C2924 0.960 . S
H2910 C2924 0.960 . S
H2911 C2924 0.960 . S
C2912 H2904 0.929 . S
C2912 C2913 1.377 . S
C2912 C2914 1.384 . S
C2913 C2912 1.377 . S
C2913 C2919 1.390 . S
C2914 H2905 0.930 . S
C2914 C2912 1.384 . S
C2914 C2915 1.372 . S
C2915 C2914 1.372 . S
C2915 C2916 1.400 . S
C2915 C2920 1.490 . S
C2916 H2906 0.930 . S
C2916 C2915 1.400 . S
C2916 C2919 1.386 . S
H2917 C2933 0.930 . S
H2918 C2934 0.931 . S
C2919 H2907 0.929 . S
C2919 C2913 1.390 . S
C2919 C2916 1.386 . S
C2920 C2915 1.490 . S
C2920 C2922 1.395 . S
C2920 C2923 1.403 . S
H2921 C2927 0.930 . S
C2922 H2908 0.930 . S
C2922 C2920 1.395 . S
C2922 C2925 1.403 . S
C2923 C2920 1.403 . S
C2923 C2924 1.524 . S
C2923 C2927 1.400 . S
C2924 H2909 0.960 . S
C2924 H2910 0.960 . S
C2924 H2911 0.960 . S
C2924 C2923 1.524 . S
C2925 C2922 1.403 . S
C2925 C2926 1.392 . S
C2925 C2929 1.495 . S
C2926 C2925 1.392 . S
C2926 C2927 1.385 . S
C2926 C2928 1.478 . S
C2927 H2921 0.930 . S
C2927 C2923 1.400 . S
C2927 C2926 1.385 . S
C2928 C2926 1.478 . S
C2928 C2930 1.381 . S
C2928 C2934 1.383 . S
C2929 C2925 1.495 . S
C2929 H2935 0.959 . S
C2929 H2936 0.961 . S
C2929 H2937 0.960 . S
C2930 C2928 1.381 . S
C2930 C2931 1.394 . S
C2930 H2938 0.930 . S
C2931 C2930 1.394 . S
C2931 C2932 1.383 . S
C2931 H2939 0.929 . S
C2932 C2931 1.383 . S
C2932 C2933 1.377 . S
C2933 H2917 0.930 . S
C2933 C2932 1.377 . S
C2933 C2934 1.379 . S
C2934 H2918 0.931 . S
C2934 C2928 1.383 . S
C2934 C2933 1.379 . S
H2935 C2929 0.959 . S
H2936 C2929 0.961 . S
H2937 C2929 0.960 . S
H2938 C2930 0.930 . S
H2939 C2931 0.929 . S
H2940 C2948 0.929 . S
H2941 C2950 0.930 . S
H2942 C2952 0.930 . S
H2943 C2955 0.929 . S
H2944 C2958 0.930 . S
H2945 C2960 0.960 . S
H2946 C2960 0.960 . S
H2947 C2960 0.960 . S
C2948 H2940 0.929 . S
C2948 C2949 1.377 . S
C2948 C2950 1.384 . S
C2949 C2948 1.377 . S
C2949 C2955 1.390 . S
C2950 H2941 0.930 . S
C2950 C2948 1.384 . S
C2950 C2951 1.372 . S
C2951 C2950 1.372 . S
C2951 C2952 1.400 . S
C2951 C2956 1.490 . S
C2952 H2942 0.930 . S
C2952 C2951 1.400 . S
C2952 C2955 1.386 . S
H2953 C2969 0.930 . S
H2954 C2970 0.931 . S
C2955 H2943 0.929 . S
C2955 C2949 1.390 . S
C2955 C2952 1.386 . S
C2956 C2951 1.490 . S
C2956 C2958 1.395 . S
C2956 C2959 1.403 . S
H2957 C2963 0.930 . S
C2958 H2944 0.930 . S
C2958 C2956 1.395 . S
C2958 C2961 1.403 . S
C2959 C2956 1.403 . S
C2959 C2960 1.524 . S
C2959 C2963 1.400 . S
C2960 H2945 0.960 . S
C2960 H2946 0.960 . S
C2960 H2947 0.960 . S
C2960 C2959 1.524 . S
C2961 C2958 1.403 . S
C2961 C2962 1.392 . S
C2961 C2965 1.495 . S
C2962 C2961 1.392 . S
C2962 C2963 1.385 . S
C2962 C2964 1.478 . S
C2963 H2957 0.930 . S
C2963 C2959 1.400 . S
C2963 C2962 1.385 . S
C2964 C2962 1.478 . S
C2964 C2966 1.381 . S
C2964 C2970 1.383 . S
C2965 C2961 1.495 . S
C2965 H2971 0.959 . S
C2965 H2972 0.961 . S
C2965 H2973 0.960 . S
C2966 C2964 1.381 . S
C2966 C2967 1.394 . S
C2966 H2974 0.930 . S
C2967 C2966 1.394 . S
C2967 C2968 1.383 . S
C2967 H2975 0.929 . S
C2968 C2967 1.383 . S
C2968 C2969 1.377 . S
C2969 H2953 0.930 . S
C2969 C2968 1.377 . S
C2969 C2970 1.379 . S
C2970 H2954 0.931 . S
C2970 C2964 1.383 . S
C2970 C2969 1.379 . S
H2971 C2965 0.959 . S
H2972 C2965 0.961 . S
H2973 C2965 0.960 . S
H2974 C2966 0.930 . S
H2975 C2967 0.929 . S
H2976 C2984 0.929 . S
H2977 C2986 0.930 . S
H2978 C2988 0.930 . S
H2979 C2991 0.929 . S
H2980 C2994 0.930 . S
H2981 C2996 0.960 . S
H2982 C2996 0.960 . S
H2983 C2996 0.960 . S
C2984 H2976 0.929 . S
C2984 C2985 1.377 . S
C2984 C2986 1.384 . S
C2985 C2984 1.377 . S
C2985 C2991 1.390 . S
C2986 H2977 0.930 . S
C2986 C2984 1.384 . S
C2986 C2987 1.372 . S
C2987 C2986 1.372 . S
C2987 C2988 1.400 . S
C2987 C2992 1.490 . S
C2988 H2978 0.930 . S
C2988 C2987 1.400 . S
C2988 C2991 1.386 . S
H2989 C3005 0.930 . S
H2990 C3006 0.931 . S
C2991 H2979 0.929 . S
C2991 C2985 1.390 . S
C2991 C2988 1.386 . S
C2992 C2987 1.490 . S
C2992 C2994 1.395 . S
C2992 C2995 1.403 . S
H2993 C2999 0.930 . S
C2994 H2980 0.930 . S
C2994 C2992 1.395 . S
C2994 C2997 1.403 . S
C2995 C2992 1.403 . S
C2995 C2996 1.524 . S
C2995 C2999 1.400 . S
C2996 H2981 0.960 . S
C2996 H2982 0.960 . S
C2996 H2983 0.960 . S
C2996 C2995 1.524 . S
C2997 C2994 1.403 . S
C2997 C2998 1.392 . S
C2997 C3001 1.495 . S
C2998 C2997 1.392 . S
C2998 C2999 1.385 . S
C2998 C3000 1.478 . S
C2999 H2993 0.930 . S
C2999 C2995 1.400 . S
C2999 C2998 1.385 . S
C3000 C2998 1.478 . S
C3000 C3002 1.381 . S
C3000 C3006 1.383 . S
C3001 C2997 1.495 . S
C3001 H3007 0.959 . S
C3001 H3008 0.961 . S
C3001 H3009 0.960 . S
C3002 C3000 1.381 . S
C3002 C3003 1.394 . S
C3002 H3010 0.930 . S
C3003 C3002 1.394 . S
C3003 C3004 1.383 . S
C3003 H3011 0.929 . S
C3004 C3003 1.383 . S
C3004 C3005 1.377 . S
C3005 H2989 0.930 . S
C3005 C3004 1.377 . S
C3005 C3006 1.379 . S
C3006 H2990 0.931 . S
C3006 C3000 1.383 . S
C3006 C3005 1.379 . S
H3007 C3001 0.959 . S
H3008 C3001 0.961 . S
H3009 C3001 0.960 . S
H3010 C3002 0.930 . S
H3011 C3003 0.929 . S
H3012 C3020 0.929 . S
H3013 C3022 0.930 . S
H3014 C3024 0.930 . S
H3015 C3027 0.929 . S
H3016 C3030 0.930 . S
H3017 C3032 0.960 . S
H3018 C3032 0.960 . S
H3019 C3032 0.960 . S
C3020 H3012 0.929 . S
C3020 C3021 1.377 . S
C3020 C3022 1.384 . S
C3021 C3020 1.377 . S
C3021 C3027 1.390 . S
C3022 H3013 0.930 . S
C3022 C3020 1.384 . S
C3022 C3023 1.372 . S
C3023 C3022 1.372 . S
C3023 C3024 1.400 . S
C3023 C3028 1.490 . S
C3024 H3014 0.930 . S
C3024 C3023 1.400 . S
C3024 C3027 1.386 . S
H3025 C3041 0.930 . S
H3026 C3042 0.931 . S
C3027 H3015 0.929 . S
C3027 C3021 1.390 . S
C3027 C3024 1.386 . S
C3028 C3023 1.490 . S
C3028 C3030 1.395 . S
C3028 C3031 1.403 . S
H3029 C3035 0.930 . S
C3030 H3016 0.930 . S
C3030 C3028 1.395 . S
C3030 C3033 1.403 . S
C3031 C3028 1.403 . S
C3031 C3032 1.524 . S
C3031 C3035 1.400 . S
C3032 H3017 0.960 . S
C3032 H3018 0.960 . S
C3032 H3019 0.960 . S
C3032 C3031 1.524 . S
C3033 C3030 1.403 . S
C3033 C3034 1.392 . S
C3033 C3037 1.495 . S
C3034 C3033 1.392 . S
C3034 C3035 1.385 . S
C3034 C3036 1.478 . S
C3035 H3029 0.930 . S
C3035 C3031 1.400 . S
C3035 C3034 1.385 . S
C3036 C3034 1.478 . S
C3036 C3038 1.381 . S
C3036 C3042 1.383 . S
C3037 C3033 1.495 . S
C3037 H3043 0.959 . S
C3037 H3044 0.961 . S
C3037 H3045 0.960 . S
C3038 C3036 1.381 . S
C3038 C3039 1.394 . S
C3038 H3046 0.930 . S
C3039 C3038 1.394 . S
C3039 C3040 1.383 . S
C3039 H3047 0.929 . S
C3040 C3039 1.383 . S
C3040 C3041 1.377 . S
C3041 H3025 0.930 . S
C3041 C3040 1.377 . S
C3041 C3042 1.379 . S
C3042 H3026 0.931 . S
C3042 C3036 1.383 . S
C3042 C3041 1.379 . S
H3043 C3037 0.959 . S
H3044 C3037 0.961 . S
H3045 C3037 0.960 . S
H3046 C3038 0.930 . S
H3047 C3039 0.929 . S
H3048 C3056 0.929 . S
H3049 C3058 0.930 . S
H3050 C3060 0.930 . S
H3051 C3063 0.929 . S
H3052 C3066 0.930 . S
H3053 C3068 0.960 . S
H3054 C3068 0.960 . S
H3055 C3068 0.960 . S
C3056 H3048 0.929 . S
C3056 C3057 1.377 . S
C3056 C3058 1.384 . S
C3057 C3056 1.377 . S
C3057 C3063 1.390 . S
C3058 H3049 0.930 . S
C3058 C3056 1.384 . S
C3058 C3059 1.372 . S
C3059 C3058 1.372 . S
C3059 C3060 1.400 . S
C3059 C3064 1.490 . S
C3060 H3050 0.930 . S
C3060 C3059 1.400 . S
C3060 C3063 1.386 . S
H3061 C3077 0.930 . S
H3062 C3078 0.931 . S
C3063 H3051 0.929 . S
C3063 C3057 1.390 . S
C3063 C3060 1.386 . S
C3064 C3059 1.490 . S
C3064 C3066 1.395 . S
C3064 C3067 1.403 . S
H3065 C3071 0.930 . S
C3066 H3052 0.930 . S
C3066 C3064 1.395 . S
C3066 C3069 1.403 . S
C3067 C3064 1.403 . S
C3067 C3068 1.524 . S
C3067 C3071 1.400 . S
C3068 H3053 0.960 . S
C3068 H3054 0.960 . S
C3068 H3055 0.960 . S
C3068 C3067 1.524 . S
C3069 C3066 1.403 . S
C3069 C3070 1.392 . S
C3069 C3073 1.495 . S
C3070 C3069 1.392 . S
C3070 C3071 1.385 . S
C3070 C3072 1.478 . S
C3071 H3065 0.930 . S
C3071 C3067 1.400 . S
C3071 C3070 1.385 . S
C3072 C3070 1.478 . S
C3072 C3074 1.381 . S
C3072 C3078 1.383 . S
C3073 C3069 1.495 . S
C3073 H3079 0.959 . S
C3073 H3080 0.961 . S
C3073 H3081 0.960 . S
C3074 C3072 1.381 . S
C3074 C3075 1.394 . S
C3074 H3082 0.930 . S
C3075 C3074 1.394 . S
C3075 C3076 1.383 . S
C3075 H3083 0.929 . S
C3076 C3075 1.383 . S
C3076 C3077 1.377 . S
C3077 H3061 0.930 . S
C3077 C3076 1.377 . S
C3077 C3078 1.379 . S
C3078 H3062 0.931 . S
C3078 C3072 1.383 . S
C3078 C3077 1.379 . S
H3079 C3073 0.959 . S
H3080 C3073 0.961 . S
H3081 C3073 0.960 . S
H3082 C3074 0.930 . S
H3083 C3075 0.929 . S
H3084 C3092 0.929 . S
H3085 C3094 0.930 . S
H3086 C3096 0.930 . S
H3087 C3099 0.929 . S
H3088 C3102 0.930 . S
H3089 C3104 0.960 . S
H3090 C3104 0.960 . S
H3091 C3104 0.960 . S
C3092 H3084 0.929 . S
C3092 C3093 1.377 . S
C3092 C3094 1.384 . S
C3093 C3092 1.377 . S
C3093 C3099 1.390 . S
C3094 H3085 0.930 . S
C3094 C3092 1.384 . S
C3094 C3095 1.372 . S
C3095 C3094 1.372 . S
C3095 C3096 1.400 . S
C3095 C3100 1.490 . S
C3096 H3086 0.930 . S
C3096 C3095 1.400 . S
C3096 C3099 1.386 . S
H3097 C3113 0.930 . S
H3098 C3114 0.931 . S
C3099 H3087 0.929 . S
C3099 C3093 1.390 . S
C3099 C3096 1.386 . S
C3100 C3095 1.490 . S
C3100 C3102 1.395 . S
C3100 C3103 1.403 . S
H3101 C3107 0.930 . S
C3102 H3088 0.930 . S
C3102 C3100 1.395 . S
C3102 C3105 1.403 . S
C3103 C3100 1.403 . S
C3103 C3104 1.524 . S
C3103 C3107 1.400 . S
C3104 H3089 0.960 . S
C3104 H3090 0.960 . S
C3104 H3091 0.960 . S
C3104 C3103 1.524 . S
C3105 C3102 1.403 . S
C3105 C3106 1.392 . S
C3105 C3109 1.495 . S
C3106 C3105 1.392 . S
C3106 C3107 1.385 . S
C3106 C3108 1.478 . S
C3107 H3101 0.930 . S
C3107 C3103 1.400 . S
C3107 C3106 1.385 . S
C3108 C3106 1.478 . S
C3108 C3110 1.381 . S
C3108 C3114 1.383 . S
C3109 C3105 1.495 . S
C3109 H3115 0.959 . S
C3109 H3116 0.961 . S
C3109 H3117 0.960 . S
C3110 C3108 1.381 . S
C3110 C3111 1.394 . S
C3110 H3118 0.930 . S
C3111 C3110 1.394 . S
C3111 C3112 1.383 . S
C3111 H3119 0.929 . S
C3112 C3111 1.383 . S
C3112 C3113 1.377 . S
C3113 H3097 0.930 . S
C3113 C3112 1.377 . S
C3113 C3114 1.379 . S
C3114 H3098 0.931 . S
C3114 C3108 1.383 . S
C3114 C3113 1.379 . S
H3115 C3109 0.959 . S
H3116 C3109 0.961 . S
H3117 C3109 0.960 . S
H3118 C3110 0.930 . S
H3119 C3111 0.929 . S
H3120 C3128 0.929 . S
H3121 C3130 0.930 . S
H3122 C3132 0.930 . S
H3123 C3135 0.929 . S
H3124 C3138 0.930 . S
H3125 C3140 0.960 . S
H3126 C3140 0.960 . S
H3127 C3140 0.960 . S
C3128 H3120 0.929 . S
C3128 C3129 1.377 . S
C3128 C3130 1.384 . S
C3129 C3128 1.377 . S
C3129 C3135 1.390 . S
C3130 H3121 0.930 . S
C3130 C3128 1.384 . S
C3130 C3131 1.372 . S
C3131 C3130 1.372 . S
C3131 C3132 1.400 . S
C3131 C3136 1.490 . S
C3132 H3122 0.930 . S
C3132 C3131 1.400 . S
C3132 C3135 1.386 . S
H3133 C3149 0.930 . S
H3134 C3150 0.931 . S
C3135 H3123 0.929 . S
C3135 C3129 1.390 . S
C3135 C3132 1.386 . S
C3136 C3131 1.490 . S
C3136 C3138 1.395 . S
C3136 C3139 1.403 . S
H3137 C3143 0.930 . S
C3138 H3124 0.930 . S
C3138 C3136 1.395 . S
C3138 C3141 1.403 . S
C3139 C3136 1.403 . S
C3139 C3140 1.524 . S
C3139 C3143 1.400 . S
C3140 H3125 0.960 . S
C3140 H3126 0.960 . S
C3140 H3127 0.960 . S
C3140 C3139 1.524 . S
C3141 C3138 1.403 . S
C3141 C3142 1.392 . S
C3141 C3145 1.495 . S
C3142 C3141 1.392 . S
C3142 C3143 1.385 . S
C3142 C3144 1.478 . S
C3143 H3137 0.930 . S
C3143 C3139 1.400 . S
C3143 C3142 1.385 . S
C3144 C3142 1.478 . S
C3144 C3146 1.381 . S
C3144 C3150 1.383 . S
C3145 C3141 1.495 . S
C3145 H3151 0.959 . S
C3145 H3152 0.961 . S
C3145 H3153 0.960 . S
C3146 C3144 1.381 . S
C3146 C3147 1.394 . S
C3146 H3154 0.930 . S
C3147 C3146 1.394 . S
C3147 C3148 1.383 . S
C3147 H3155 0.929 . S
C3148 C3147 1.383 . S
C3148 C3149 1.377 . S
C3149 H3133 0.930 . S
C3149 C3148 1.377 . S
C3149 C3150 1.379 . S
C3150 H3134 0.931 . S
C3150 C3144 1.383 . S
C3150 C3149 1.379 . S
H3151 C3145 0.959 . S
H3152 C3145 0.961 . S
H3153 C3145 0.960 . S
H3154 C3146 0.930 . S
H3155 C3147 0.929 . S
H3156 C3164 0.929 . S
H3157 C3166 0.930 . S
H3158 C3168 0.930 . S
H3159 C3171 0.929 . S
H3160 C3174 0.930 . S
H3161 C3176 0.960 . S
H3162 C3176 0.960 . S
H3163 C3176 0.960 . S
C3164 H3156 0.929 . S
C3164 C3165 1.377 . S
C3164 C3166 1.384 . S
C3165 C3164 1.377 . S
C3165 C3171 1.390 . S
C3166 H3157 0.930 . S
C3166 C3164 1.384 . S
C3166 C3167 1.372 . S
C3167 C3166 1.372 . S
C3167 C3168 1.400 . S
C3167 C3172 1.490 . S
C3168 H3158 0.930 . S
C3168 C3167 1.400 . S
C3168 C3171 1.386 . S
H3169 C3185 0.930 . S
H3170 C3186 0.931 . S
C3171 H3159 0.929 . S
C3171 C3165 1.390 . S
C3171 C3168 1.386 . S
C3172 C3167 1.490 . S
C3172 C3174 1.395 . S
C3172 C3175 1.403 . S
H3173 C3179 0.930 . S
C3174 H3160 0.930 . S
C3174 C3172 1.395 . S
C3174 C3177 1.403 . S
C3175 C3172 1.403 . S
C3175 C3176 1.524 . S
C3175 C3179 1.400 . S
C3176 H3161 0.960 . S
C3176 H3162 0.960 . S
C3176 H3163 0.960 . S
C3176 C3175 1.524 . S
C3177 C3174 1.403 . S
C3177 C3178 1.392 . S
C3177 C3181 1.495 . S
C3178 C3177 1.392 . S
C3178 C3179 1.385 . S
C3178 C3180 1.478 . S
C3179 H3173 0.930 . S
C3179 C3175 1.400 . S
C3179 C3178 1.385 . S
C3180 C3178 1.478 . S
C3180 C3182 1.381 . S
C3180 C3186 1.383 . S
C3181 C3177 1.495 . S
C3181 H3187 0.959 . S
C3181 H3188 0.961 . S
C3181 H3189 0.960 . S
C3182 C3180 1.381 . S
C3182 C3183 1.394 . S
C3182 H3190 0.930 . S
C3183 C3182 1.394 . S
C3183 C3184 1.383 . S
C3183 H3191 0.929 . S
C3184 C3183 1.383 . S
C3184 C3185 1.377 . S
C3185 H3169 0.930 . S
C3185 C3184 1.377 . S
C3185 C3186 1.379 . S
C3186 H3170 0.931 . S
C3186 C3180 1.383 . S
C3186 C3185 1.379 . S
H3187 C3181 0.959 . S
H3188 C3181 0.961 . S
H3189 C3181 0.960 . S
H3190 C3182 0.930 . S
H3191 C3183 0.929 . S
H3192 C3200 0.929 . S
H3193 C3202 0.930 . S
H3194 C3204 0.930 . S
H3195 C3207 0.929 . S
H3196 C3210 0.930 . S
H3197 C3212 0.960 . S
H3198 C3212 0.960 . S
H3199 C3212 0.960 . S
C3200 H3192 0.929 . S
C3200 C3201 1.377 . S
C3200 C3202 1.384 . S
C3201 C3200 1.377 . S
C3201 C3207 1.390 . S
C3202 H3193 0.930 . S
C3202 C3200 1.384 . S
C3202 C3203 1.372 . S
C3203 C3202 1.372 . S
C3203 C3204 1.400 . S
C3203 C3208 1.490 . S
C3204 H3194 0.930 . S
C3204 C3203 1.400 . S
C3204 C3207 1.386 . S
H3205 C3221 0.930 . S
H3206 C3222 0.931 . S
C3207 H3195 0.929 . S
C3207 C3201 1.390 . S
C3207 C3204 1.386 . S
C3208 C3203 1.490 . S
C3208 C3210 1.395 . S
C3208 C3211 1.403 . S
H3209 C3215 0.930 . S
C3210 H3196 0.930 . S
C3210 C3208 1.395 . S
C3210 C3213 1.403 . S
C3211 C3208 1.403 . S
C3211 C3212 1.524 . S
C3211 C3215 1.400 . S
C3212 H3197 0.960 . S
C3212 H3198 0.960 . S
C3212 H3199 0.960 . S
C3212 C3211 1.524 . S
C3213 C3210 1.403 . S
C3213 C3214 1.392 . S
C3213 C3217 1.495 . S
C3214 C3213 1.392 . S
C3214 C3215 1.385 . S
C3214 C3216 1.478 . S
C3215 H3209 0.930 . S
C3215 C3211 1.400 . S
C3215 C3214 1.385 . S
C3216 C3214 1.478 . S
C3216 C3218 1.381 . S
C3216 C3222 1.383 . S
C3217 C3213 1.495 . S
C3217 H3223 0.959 . S
C3217 H3224 0.961 . S
C3217 H3225 0.960 . S
C3218 C3216 1.381 . S
C3218 C3219 1.394 . S
C3218 H3226 0.930 . S
C3219 C3218 1.394 . S
C3219 C3220 1.383 . S
C3219 H3227 0.929 . S
C3220 C3219 1.383 . S
C3220 C3221 1.377 . S
C3221 H3205 0.930 . S
C3221 C3220 1.377 . S
C3221 C3222 1.379 . S
C3222 H3206 0.931 . S
C3222 C3216 1.383 . S
C3222 C3221 1.379 . S
H3223 C3217 0.959 . S
H3224 C3217 0.961 . S
H3225 C3217 0.960 . S
H3226 C3218 0.930 . S
H3227 C3219 0.929 . S
H3228 C3236 0.929 . S
H3229 C3238 0.930 . S
H3230 C3240 0.930 . S
H3231 C3243 0.929 . S
H3232 C3246 0.930 . S
H3233 C3248 0.960 . S
H3234 C3248 0.960 . S
H3235 C3248 0.960 . S
C3236 H3228 0.929 . S
C3236 C3237 1.377 . S
C3236 C3238 1.384 . S
C3237 C3236 1.377 . S
C3237 C3243 1.390 . S
C3238 H3229 0.930 . S
C3238 C3236 1.384 . S
C3238 C3239 1.372 . S
C3239 C3238 1.372 . S
C3239 C3240 1.400 . S
C3239 C3244 1.490 . S
C3240 H3230 0.930 . S
C3240 C3239 1.400 . S
C3240 C3243 1.386 . S
H3241 C3257 0.930 . S
H3242 C3258 0.931 . S
C3243 H3231 0.929 . S
C3243 C3237 1.390 . S
C3243 C3240 1.386 . S
C3244 C3239 1.490 . S
C3244 C3246 1.395 . S
C3244 C3247 1.403 . S
H3245 C3251 0.930 . S
C3246 H3232 0.930 . S
C3246 C3244 1.395 . S
C3246 C3249 1.403 . S
C3247 C3244 1.403 . S
C3247 C3248 1.524 . S
C3247 C3251 1.400 . S
C3248 H3233 0.960 . S
C3248 H3234 0.960 . S
C3248 H3235 0.960 . S
C3248 C3247 1.524 . S
C3249 C3246 1.403 . S
C3249 C3250 1.392 . S
C3249 C3253 1.495 . S
C3250 C3249 1.392 . S
C3250 C3251 1.385 . S
C3250 C3252 1.478 . S
C3251 H3245 0.930 . S
C3251 C3247 1.400 . S
C3251 C3250 1.385 . S
C3252 C3250 1.478 . S
C3252 C3254 1.381 . S
C3252 C3258 1.383 . S
C3253 C3249 1.495 . S
C3253 H3259 0.959 . S
C3253 H3260 0.961 . S
C3253 H3261 0.960 . S
C3254 C3252 1.381 . S
C3254 C3255 1.394 . S
C3254 H3262 0.930 . S
C3255 C3254 1.394 . S
C3255 C3256 1.383 . S
C3255 H3263 0.929 . S
C3256 C3255 1.383 . S
C3256 C3257 1.377 . S
C3257 H3241 0.930 . S
C3257 C3256 1.377 . S
C3257 C3258 1.379 . S
C3258 H3242 0.931 . S
C3258 C3252 1.383 . S
C3258 C3257 1.379 . S
H3259 C3253 0.959 . S
H3260 C3253 0.961 . S
H3261 C3253 0.960 . S
H3262 C3254 0.930 . S
H3263 C3255 0.929 . S
H3264 C3272 0.929 . S
H3265 C3274 0.930 . S
H3266 C3276 0.930 . S
H3267 C3279 0.929 . S
H3268 C3282 0.930 . S
H3269 C3284 0.960 . S
H3270 C3284 0.960 . S
H3271 C3284 0.960 . S
C3272 H3264 0.929 . S
C3272 C3273 1.377 . S
C3272 C3274 1.384 . S
C3273 C3272 1.377 . S
C3273 C3279 1.390 . S
C3274 H3265 0.930 . S
C3274 C3272 1.384 . S
C3274 C3275 1.372 . S
C3275 C3274 1.372 . S
C3275 C3276 1.400 . S
C3275 C3280 1.490 . S
C3276 H3266 0.930 . S
C3276 C3275 1.400 . S
C3276 C3279 1.386 . S
H3277 C3293 0.930 . S
H3278 C3294 0.931 . S
C3279 H3267 0.929 . S
C3279 C3273 1.390 . S
C3279 C3276 1.386 . S
C3280 C3275 1.490 . S
C3280 C3282 1.395 . S
C3280 C3283 1.403 . S
H3281 C3287 0.930 . S
C3282 H3268 0.930 . S
C3282 C3280 1.395 . S
C3282 C3285 1.403 . S
C3283 C3280 1.403 . S
C3283 C3284 1.524 . S
C3283 C3287 1.400 . S
C3284 H3269 0.960 . S
C3284 H3270 0.960 . S
C3284 H3271 0.960 . S
C3284 C3283 1.524 . S
C3285 C3282 1.403 . S
C3285 C3286 1.392 . S
C3285 C3289 1.495 . S
C3286 C3285 1.392 . S
C3286 C3287 1.385 . S
C3286 C3288 1.478 . S
C3287 H3281 0.930 . S
C3287 C3283 1.400 . S
C3287 C3286 1.385 . S
C3288 C3286 1.478 . S
C3288 C3290 1.381 . S
C3288 C3294 1.383 . S
C3289 C3285 1.495 . S
C3289 H3295 0.959 . S
C3289 H3296 0.961 . S
C3289 H3297 0.960 . S
C3290 C3288 1.381 . S
C3290 C3291 1.394 . S
C3290 H3298 0.930 . S
C3291 C3290 1.394 . S
C3291 C3292 1.383 . S
C3291 H3299 0.929 . S
C3292 C3291 1.383 . S
C3292 C3293 1.377 . S
C3293 H3277 0.930 . S
C3293 C3292 1.377 . S
C3293 C3294 1.379 . S
C3294 H3278 0.931 . S
C3294 C3288 1.383 . S
C3294 C3293 1.379 . S
H3295 C3289 0.959 . S
H3296 C3289 0.961 . S
H3297 C3289 0.960 . S
H3298 C3290 0.930 . S
H3299 C3291 0.929 . S
H3300 C3308 0.929 . S
H3301 C3310 0.930 . S
H3302 C3312 0.930 . S
H3303 C3315 0.929 . S
H3304 C3318 0.930 . S
H3305 C3320 0.960 . S
H3306 C3320 0.960 . S
H3307 C3320 0.960 . S
C3308 H3300 0.929 . S
C3308 C3309 1.377 . S
C3308 C3310 1.384 . S
C3309 C3308 1.377 . S
C3309 C3315 1.390 . S
C3310 H3301 0.930 . S
C3310 C3308 1.384 . S
C3310 C3311 1.372 . S
C3311 C3310 1.372 . S
C3311 C3312 1.400 . S
C3311 C3316 1.490 . S
C3312 H3302 0.930 . S
C3312 C3311 1.400 . S
C3312 C3315 1.386 . S
H3313 C3329 0.930 . S
H3314 C3330 0.931 . S
C3315 H3303 0.929 . S
C3315 C3309 1.390 . S
C3315 C3312 1.386 . S
C3316 C3311 1.490 . S
C3316 C3318 1.395 . S
C3316 C3319 1.403 . S
H3317 C3323 0.930 . S
C3318 H3304 0.930 . S
C3318 C3316 1.395 . S
C3318 C3321 1.403 . S
C3319 C3316 1.403 . S
C3319 C3320 1.524 . S
C3319 C3323 1.400 . S
C3320 H3305 0.960 . S
C3320 H3306 0.960 . S
C3320 H3307 0.960 . S
C3320 C3319 1.524 . S
C3321 C3318 1.403 . S
C3321 C3322 1.392 . S
C3321 C3325 1.495 . S
C3322 C3321 1.392 . S
C3322 C3323 1.385 . S
C3322 C3324 1.478 . S
C3323 H3317 0.930 . S
C3323 C3319 1.400 . S
C3323 C3322 1.385 . S
C3324 C3322 1.478 . S
C3324 C3326 1.381 . S
C3324 C3330 1.383 . S
C3325 C3321 1.495 . S
C3325 H3331 0.959 . S
C3325 H3332 0.961 . S
C3325 H3333 0.960 . S
C3326 C3324 1.381 . S
C3326 C3327 1.394 . S
C3326 H3334 0.930 . S
C3327 C3326 1.394 . S
C3327 C3328 1.383 . S
C3327 H3335 0.929 . S
C3328 C3327 1.383 . S
C3328 C3329 1.377 . S
C3329 H3313 0.930 . S
C3329 C3328 1.377 . S
C3329 C3330 1.379 . S
C3330 H3314 0.931 . S
C3330 C3324 1.383 . S
C3330 C3329 1.379 . S
H3331 C3325 0.959 . S
H3332 C3325 0.961 . S
H3333 C3325 0.960 . S
H3334 C3326 0.930 . S
H3335 C3327 0.929 . S
H3336 C3344 0.929 . S
H3337 C3346 0.930 . S
H3338 C3348 0.930 . S
H3339 C3351 0.929 . S
H3340 C3354 0.930 . S
H3341 C3356 0.960 . S
H3342 C3356 0.960 . S
H3343 C3356 0.960 . S
C3344 H3336 0.929 . S
C3344 C3345 1.377 . S
C3344 C3346 1.384 . S
C3345 C3344 1.377 . S
C3345 C3351 1.390 . S
C3346 H3337 0.930 . S
C3346 C3344 1.384 . S
C3346 C3347 1.372 . S
C3347 C3346 1.372 . S
C3347 C3348 1.400 . S
C3347 C3352 1.490 . S
C3348 H3338 0.930 . S
C3348 C3347 1.400 . S
C3348 C3351 1.386 . S
H3349 C3365 0.930 . S
H3350 C3366 0.931 . S
C3351 H3339 0.929 . S
C3351 C3345 1.390 . S
C3351 C3348 1.386 . S
C3352 C3347 1.490 . S
C3352 C3354 1.395 . S
C3352 C3355 1.403 . S
H3353 C3359 0.930 . S
C3354 H3340 0.930 . S
C3354 C3352 1.395 . S
C3354 C3357 1.403 . S
C3355 C3352 1.403 . S
C3355 C3356 1.524 . S
C3355 C3359 1.400 . S
C3356 H3341 0.960 . S
C3356 H3342 0.960 . S
C3356 H3343 0.960 . S
C3356 C3355 1.524 . S
C3357 C3354 1.403 . S
C3357 C3358 1.392 . S
C3357 C3361 1.495 . S
C3358 C3357 1.392 . S
C3358 C3359 1.385 . S
C3358 C3360 1.478 . S
C3359 H3353 0.930 . S
C3359 C3355 1.400 . S
C3359 C3358 1.385 . S
C3360 C3358 1.478 . S
C3360 C3362 1.381 . S
C3360 C3366 1.383 . S
C3361 C3357 1.495 . S
C3361 H3367 0.959 . S
C3361 H3368 0.961 . S
C3361 H3369 0.960 . S
C3362 C3360 1.381 . S
C3362 C3363 1.394 . S
C3362 H3370 0.930 . S
C3363 C3362 1.394 . S
C3363 C3364 1.383 . S
C3363 H3371 0.929 . S
C3364 C3363 1.383 . S
C3364 C3365 1.377 . S
C3365 H3349 0.930 . S
C3365 C3364 1.377 . S
C3365 C3366 1.379 . S
C3366 H3350 0.931 . S
C3366 C3360 1.383 . S
C3366 C3365 1.379 . S
H3367 C3361 0.959 . S
H3368 C3361 0.961 . S
H3369 C3361 0.960 . S
H3370 C3362 0.930 . S
H3371 C3363 0.929 . S
H3372 C3380 0.929 . S
H3373 C3382 0.930 . S
H3374 C3384 0.930 . S
H3375 C3387 0.929 . S
H3376 C3390 0.930 . S
H3377 C3392 0.960 . S
H3378 C3392 0.960 . S
H3379 C3392 0.960 . S
C3380 H3372 0.929 . S
C3380 C3381 1.377 . S
C3380 C3382 1.384 . S
C3381 C3380 1.377 . S
C3381 C3387 1.390 . S
C3382 H3373 0.930 . S
C3382 C3380 1.384 . S
C3382 C3383 1.372 . S
C3383 C3382 1.372 . S
C3383 C3384 1.400 . S
C3383 C3388 1.490 . S
C3384 H3374 0.930 . S
C3384 C3383 1.400 . S
C3384 C3387 1.386 . S
H3385 C3401 0.930 . S
H3386 C3402 0.931 . S
C3387 H3375 0.929 . S
C3387 C3381 1.390 . S
C3387 C3384 1.386 . S
C3388 C3383 1.490 . S
C3388 C3390 1.395 . S
C3388 C3391 1.403 . S
H3389 C3395 0.930 . S
C3390 H3376 0.930 . S
C3390 C3388 1.395 . S
C3390 C3393 1.403 . S
C3391 C3388 1.403 . S
C3391 C3392 1.524 . S
C3391 C3395 1.400 . S
C3392 H3377 0.960 . S
C3392 H3378 0.960 . S
C3392 H3379 0.960 . S
C3392 C3391 1.524 . S
C3393 C3390 1.403 . S
C3393 C3394 1.392 . S
C3393 C3397 1.495 . S
C3394 C3393 1.392 . S
C3394 C3395 1.385 . S
C3394 C3396 1.478 . S
C3395 H3389 0.930 . S
C3395 C3391 1.400 . S
C3395 C3394 1.385 . S
C3396 C3394 1.478 . S
C3396 C3398 1.381 . S
C3396 C3402 1.383 . S
C3397 C3393 1.495 . S
C3397 H3403 0.959 . S
C3397 H3404 0.961 . S
C3397 H3405 0.960 . S
C3398 C3396 1.381 . S
C3398 C3399 1.394 . S
C3398 H3406 0.930 . S
C3399 C3398 1.394 . S
C3399 C3400 1.383 . S
C3399 H3407 0.929 . S
C3400 C3399 1.383 . S
C3400 C3401 1.377 . S
C3401 H3385 0.930 . S
C3401 C3400 1.377 . S
C3401 C3402 1.379 . S
C3402 H3386 0.931 . S
C3402 C3396 1.383 . S
C3402 C3401 1.379 . S
H3403 C3397 0.959 . S
H3404 C3397 0.961 . S
H3405 C3397 0.960 . S
H3406 C3398 0.930 . S
H3407 C3399 0.929 . S
H3408 C3416 0.929 . S
H3409 C3418 0.930 . S
H3410 C3420 0.930 . S
H3411 C3423 0.929 . S
H3412 C3426 0.930 . S
H3413 C3428 0.960 . S
H3414 C3428 0.960 . S
H3415 C3428 0.960 . S
C3416 H3408 0.929 . S
C3416 C3417 1.377 . S
C3416 C3418 1.384 . S
C3417 C3416 1.377 . S
C3417 C3423 1.390 . S
C3418 H3409 0.930 . S
C3418 C3416 1.384 . S
C3418 C3419 1.372 . S
C3419 C3418 1.372 . S
C3419 C3420 1.400 . S
C3419 C3424 1.490 . S
C3420 H3410 0.930 . S
C3420 C3419 1.400 . S
C3420 C3423 1.386 . S
H3421 C3437 0.930 . S
H3422 C3438 0.931 . S
C3423 H3411 0.929 . S
C3423 C3417 1.390 . S
C3423 C3420 1.386 . S
C3424 C3419 1.490 . S
C3424 C3426 1.395 . S
C3424 C3427 1.403 . S
H3425 C3431 0.930 . S
C3426 H3412 0.930 . S
C3426 C3424 1.395 . S
C3426 C3429 1.403 . S
C3427 C3424 1.403 . S
C3427 C3428 1.524 . S
C3427 C3431 1.400 . S
C3428 H3413 0.960 . S
C3428 H3414 0.960 . S
C3428 H3415 0.960 . S
C3428 C3427 1.524 . S
C3429 C3426 1.403 . S
C3429 C3430 1.392 . S
C3429 C3433 1.495 . S
C3430 C3429 1.392 . S
C3430 C3431 1.385 . S
C3430 C3432 1.478 . S
C3431 H3425 0.930 . S
C3431 C3427 1.400 . S
C3431 C3430 1.385 . S
C3432 C3430 1.478 . S
C3432 C3434 1.381 . S
C3432 C3438 1.383 . S
C3433 C3429 1.495 . S
C3433 H3439 0.959 . S
C3433 H3440 0.961 . S
C3433 H3441 0.960 . S
C3434 C3432 1.381 . S
C3434 C3435 1.394 . S
C3434 H3442 0.930 . S
C3435 C3434 1.394 . S
C3435 C3436 1.383 . S
C3435 H3443 0.929 . S
C3436 C3435 1.383 . S
C3436 C3437 1.377 . S
C3437 H3421 0.930 . S
C3437 C3436 1.377 . S
C3437 C3438 1.379 . S
C3438 H3422 0.931 . S
C3438 C3432 1.383 . S
C3438 C3437 1.379 . S
H3439 C3433 0.959 . S
H3440 C3433 0.961 . S
H3441 C3433 0.960 . S
H3442 C3434 0.930 . S
H3443 C3435 0.929 . S
H3444 C3452 0.929 . S
H3445 C3454 0.930 . S
H3446 C3456 0.930 . S
H3447 C3459 0.929 . S
H3448 C3462 0.930 . S
H3449 C3464 0.960 . S
H3450 C3464 0.960 . S
H3451 C3464 0.960 . S
C3452 H3444 0.929 . S
C3452 C3453 1.377 . S
C3452 C3454 1.384 . S
C3453 C3452 1.377 . S
C3453 C3459 1.390 . S
C3454 H3445 0.930 . S
C3454 C3452 1.384 . S
C3454 C3455 1.372 . S
C3455 C3454 1.372 . S
C3455 C3456 1.400 . S
C3455 C3460 1.490 . S
C3456 H3446 0.930 . S
C3456 C3455 1.400 . S
C3456 C3459 1.386 . S
H3457 C3473 0.930 . S
H3458 C3474 0.931 . S
C3459 H3447 0.929 . S
C3459 C3453 1.390 . S
C3459 C3456 1.386 . S
C3460 C3455 1.490 . S
C3460 C3462 1.395 . S
C3460 C3463 1.403 . S
H3461 C3467 0.930 . S
C3462 H3448 0.930 . S
C3462 C3460 1.395 . S
C3462 C3465 1.403 . S
C3463 C3460 1.403 . S
C3463 C3464 1.524 . S
C3463 C3467 1.400 . S
C3464 H3449 0.960 . S
C3464 H3450 0.960 . S
C3464 H3451 0.960 . S
C3464 C3463 1.524 . S
C3465 C3462 1.403 . S
C3465 C3466 1.392 . S
C3465 C3469 1.495 . S
C3466 C3465 1.392 . S
C3466 C3467 1.385 . S
C3466 C3468 1.478 . S
C3467 H3461 0.930 . S
C3467 C3463 1.400 . S
C3467 C3466 1.385 . S
C3468 C3466 1.478 . S
C3468 C3470 1.381 . S
C3468 C3474 1.383 . S
C3469 C3465 1.495 . S
C3469 H3475 0.959 . S
C3469 H3476 0.961 . S
C3469 H3477 0.960 . S
C3470 C3468 1.381 . S
C3470 C3471 1.394 . S
C3470 H3478 0.930 . S
C3471 C3470 1.394 . S
C3471 C3472 1.383 . S
C3471 H3479 0.929 . S
C3472 C3471 1.383 . S
C3472 C3473 1.377 . S
C3473 H3457 0.930 . S
C3473 C3472 1.377 . S
C3473 C3474 1.379 . S
C3474 H3458 0.931 . S
C3474 C3468 1.383 . S
C3474 C3473 1.379 . S
H3475 C3469 0.959 . S
H3476 C3469 0.961 . S
H3477 C3469 0.960 . S
H3478 C3470 0.930 . S
H3479 C3471 0.929 . S
H3480 C3488 0.929 . S
H3481 C3490 0.930 . S
H3482 C3492 0.930 . S
H3483 C3495 0.929 . S
H3484 C3498 0.930 . S
H3485 C3500 0.960 . S
H3486 C3500 0.960 . S
H3487 C3500 0.960 . S
C3488 H3480 0.929 . S
C3488 C3489 1.377 . S
C3488 C3490 1.384 . S
C3489 C3488 1.377 . S
C3489 C3495 1.390 . S
C3490 H3481 0.930 . S
C3490 C3488 1.384 . S
C3490 C3491 1.372 . S
C3491 C3490 1.372 . S
C3491 C3492 1.400 . S
C3491 C3496 1.490 . S
C3492 H3482 0.930 . S
C3492 C3491 1.400 . S
C3492 C3495 1.386 . S
H3493 C3509 0.930 . S
H3494 C3510 0.931 . S
C3495 H3483 0.929 . S
C3495 C3489 1.390 . S
C3495 C3492 1.386 . S
C3496 C3491 1.490 . S
C3496 C3498 1.395 . S
C3496 C3499 1.403 . S
H3497 C3503 0.930 . S
C3498 H3484 0.930 . S
C3498 C3496 1.395 . S
C3498 C3501 1.403 . S
C3499 C3496 1.403 . S
C3499 C3500 1.524 . S
C3499 C3503 1.400 . S
C3500 H3485 0.960 . S
C3500 H3486 0.960 . S
C3500 H3487 0.960 . S
C3500 C3499 1.524 . S
C3501 C3498 1.403 . S
C3501 C3502 1.392 . S
C3501 C3505 1.495 . S
C3502 C3501 1.392 . S
C3502 C3503 1.385 . S
C3502 C3504 1.478 . S
C3503 H3497 0.930 . S
C3503 C3499 1.400 . S
C3503 C3502 1.385 . S
C3504 C3502 1.478 . S
C3504 C3506 1.381 . S
C3504 C3510 1.383 . S
C3505 C3501 1.495 . S
C3505 H3511 0.959 . S
C3505 H3512 0.961 . S
C3505 H3513 0.960 . S
C3506 C3504 1.381 . S
C3506 C3507 1.394 . S
C3506 H3514 0.930 . S
C3507 C3506 1.394 . S
C3507 C3508 1.383 . S
C3507 H3515 0.929 . S
C3508 C3507 1.383 . S
C3508 C3509 1.377 . S
C3509 H3493 0.930 . S
C3509 C3508 1.377 . S
C3509 C3510 1.379 . S
C3510 H3494 0.931 . S
C3510 C3504 1.383 . S
C3510 C3509 1.379 . S
H3511 C3505 0.959 . S
H3512 C3505 0.961 . S
H3513 C3505 0.960 . S
H3514 C3506 0.930 . S
H3515 C3507 0.929 . S
H3516 C3524 0.929 . S
H3517 C3526 0.930 . S
H3518 C3528 0.930 . S
H3519 C3531 0.929 . S
H3520 C3534 0.930 . S
H3521 C3536 0.960 . S
H3522 C3536 0.960 . S
H3523 C3536 0.960 . S
C3524 H3516 0.929 . S
C3524 C3525 1.377 . S
C3524 C3526 1.384 . S
C3525 C3524 1.377 . S
C3525 C3531 1.390 . S
C3526 H3517 0.930 . S
C3526 C3524 1.384 . S
C3526 C3527 1.372 . S
C3527 C3526 1.372 . S
C3527 C3528 1.400 . S
C3527 C3532 1.490 . S
C3528 H3518 0.930 . S
C3528 C3527 1.400 . S
C3528 C3531 1.386 . S
H3529 C3545 0.930 . S
H3530 C3546 0.931 . S
C3531 H3519 0.929 . S
C3531 C3525 1.390 . S
C3531 C3528 1.386 . S
C3532 C3527 1.490 . S
C3532 C3534 1.395 . S
C3532 C3535 1.403 . S
H3533 C3539 0.930 . S
C3534 H3520 0.930 . S
C3534 C3532 1.395 . S
C3534 C3537 1.403 . S
C3535 C3532 1.403 . S
C3535 C3536 1.524 . S
C3535 C3539 1.400 . S
C3536 H3521 0.960 . S
C3536 H3522 0.960 . S
C3536 H3523 0.960 . S
C3536 C3535 1.524 . S
C3537 C3534 1.403 . S
C3537 C3538 1.392 . S
C3537 C3541 1.495 . S
C3538 C3537 1.392 . S
C3538 C3539 1.385 . S
C3538 C3540 1.478 . S
C3539 H3533 0.930 . S
C3539 C3535 1.400 . S
C3539 C3538 1.385 . S
C3540 C3538 1.478 . S
C3540 C3542 1.381 . S
C3540 C3546 1.383 . S
C3541 C3537 1.495 . S
C3541 H3547 0.959 . S
C3541 H3548 0.961 . S
C3541 H3549 0.960 . S
C3542 C3540 1.381 . S
C3542 C3543 1.394 . S
C3542 H3550 0.930 . S
C3543 C3542 1.394 . S
C3543 C3544 1.383 . S
C3543 H3551 0.929 . S
C3544 C3543 1.383 . S
C3544 C3545 1.377 . S
C3545 H3529 0.930 . S
C3545 C3544 1.377 . S
C3545 C3546 1.379 . S
C3546 H3530 0.931 . S
C3546 C3540 1.383 . S
C3546 C3545 1.379 . S
H3547 C3541 0.959 . S
H3548 C3541 0.961 . S
H3549 C3541 0.960 . S
H3550 C3542 0.930 . S
H3551 C3543 0.929 . S
H3552 C3560 0.929 . S
H3553 C3562 0.930 . S
H3554 C3564 0.930 . S
H3555 C3567 0.929 . S
H3556 C3570 0.930 . S
H3557 C3572 0.960 . S
H3558 C3572 0.960 . S
H3559 C3572 0.960 . S
C3560 H3552 0.929 . S
C3560 C3561 1.377 . S
C3560 C3562 1.384 . S
C3561 C3560 1.377 . S
C3561 C3567 1.390 . S
C3562 H3553 0.930 . S
C3562 C3560 1.384 . S
C3562 C3563 1.372 . S
C3563 C3562 1.372 . S
C3563 C3564 1.400 . S
C3563 C3568 1.490 . S
C3564 H3554 0.930 . S
C3564 C3563 1.400 . S
C3564 C3567 1.386 . S
H3565 C3581 0.930 . S
H3566 C3582 0.931 . S
C3567 H3555 0.929 . S
C3567 C3561 1.390 . S
C3567 C3564 1.386 . S
C3568 C3563 1.490 . S
C3568 C3570 1.395 . S
C3568 C3571 1.403 . S
H3569 C3575 0.930 . S
C3570 H3556 0.930 . S
C3570 C3568 1.395 . S
C3570 C3573 1.403 . S
C3571 C3568 1.403 . S
C3571 C3572 1.524 . S
C3571 C3575 1.400 . S
C3572 H3557 0.960 . S
C3572 H3558 0.960 . S
C3572 H3559 0.960 . S
C3572 C3571 1.524 . S
C3573 C3570 1.403 . S
C3573 C3574 1.392 . S
C3573 C3577 1.495 . S
C3574 C3573 1.392 . S
C3574 C3575 1.385 . S
C3574 C3576 1.478 . S
C3575 H3569 0.930 . S
C3575 C3571 1.400 . S
C3575 C3574 1.385 . S
C3576 C3574 1.478 . S
C3576 C3578 1.381 . S
C3576 C3582 1.383 . S
C3577 C3573 1.495 . S
C3577 H3583 0.959 . S
C3577 H3584 0.961 . S
C3577 H3585 0.960 . S
C3578 C3576 1.381 . S
C3578 C3579 1.394 . S
C3578 H3586 0.930 . S
C3579 C3578 1.394 . S
C3579 C3580 1.383 . S
C3579 H3587 0.929 . S
C3580 C3579 1.383 . S
C3580 C3581 1.377 . S
C3581 H3565 0.930 . S
C3581 C3580 1.377 . S
C3581 C3582 1.379 . S
C3582 H3566 0.931 . S
C3582 C3576 1.383 . S
C3582 C3581 1.379 . S
H3583 C3577 0.959 . S
H3584 C3577 0.961 . S
H3585 C3577 0.960 . S
H3586 C3578 0.930 . S
H3587 C3579 0.929 . S
H3588 C3596 0.929 . S
H3589 C3598 0.930 . S
H3590 C3600 0.930 . S
H3591 C3603 0.929 . S
H3592 C3606 0.930 . S
H3593 C3608 0.960 . S
H3594 C3608 0.960 . S
H3595 C3608 0.960 . S
C3596 H3588 0.929 . S
C3596 C3597 1.377 . S
C3596 C3598 1.384 . S
C3597 C3596 1.377 . S
C3597 C3603 1.390 . S
C3598 H3589 0.930 . S
C3598 C3596 1.384 . S
C3598 C3599 1.372 . S
C3599 C3598 1.372 . S
C3599 C3600 1.400 . S
C3599 C3604 1.490 . S
C3600 H3590 0.930 . S
C3600 C3599 1.400 . S
C3600 C3603 1.386 . S
H3601 C3617 0.930 . S
H3602 C3618 0.931 . S
C3603 H3591 0.929 . S
C3603 C3597 1.390 . S
C3603 C3600 1.386 . S
C3604 C3599 1.490 . S
C3604 C3606 1.395 . S
C3604 C3607 1.403 . S
H3605 C3611 0.930 . S
C3606 H3592 0.930 . S
C3606 C3604 1.395 . S
C3606 C3609 1.403 . S
C3607 C3604 1.403 . S
C3607 C3608 1.524 . S
C3607 C3611 1.400 . S
C3608 H3593 0.960 . S
C3608 H3594 0.960 . S
C3608 H3595 0.960 . S
C3608 C3607 1.524 . S
C3609 C3606 1.403 . S
C3609 C3610 1.392 . S
C3609 C3613 1.495 . S
C3610 C3609 1.392 . S
C3610 C3611 1.385 . S
C3610 C3612 1.478 . S
C3611 H3605 0.930 . S
C3611 C3607 1.400 . S
C3611 C3610 1.385 . S
C3612 C3610 1.478 . S
C3612 C3614 1.381 . S
C3612 C3618 1.383 . S
C3613 C3609 1.495 . S
C3613 H3619 0.959 . S
C3613 H3620 0.961 . S
C3613 H3621 0.960 . S
C3614 C3612 1.381 . S
C3614 C3615 1.394 . S
C3614 H3622 0.930 . S
C3615 C3614 1.394 . S
C3615 C3616 1.383 . S
C3615 H3623 0.929 . S
C3616 C3615 1.383 . S
C3616 C3617 1.377 . S
C3617 H3601 0.930 . S
C3617 C3616 1.377 . S
C3617 C3618 1.379 . S
C3618 H3602 0.931 . S
C3618 C3612 1.383 . S
C3618 C3617 1.379 . S
H3619 C3613 0.959 . S
H3620 C3613 0.961 . S
H3621 C3613 0.960 . S
H3622 C3614 0.930 . S
H3623 C3615 0.929 . S
H3624 C3632 0.929 . S
H3625 C3634 0.930 . S
H3626 C3636 0.930 . S
H3627 C3639 0.929 . S
H3628 C3642 0.930 . S
H3629 C3644 0.960 . S
H3630 C3644 0.960 . S
H3631 C3644 0.960 . S
C3632 H3624 0.929 . S
C3632 C3633 1.377 . S
C3632 C3634 1.384 . S
C3633 C3632 1.377 . S
C3633 C3639 1.390 . S
C3634 H3625 0.930 . S
C3634 C3632 1.384 . S
C3634 C3635 1.372 . S
C3635 C3634 1.372 . S
C3635 C3636 1.400 . S
C3635 C3640 1.490 . S
C3636 H3626 0.930 . S
C3636 C3635 1.400 . S
C3636 C3639 1.386 . S
H3637 C3653 0.930 . S
H3638 C3654 0.931 . S
C3639 H3627 0.929 . S
C3639 C3633 1.390 . S
C3639 C3636 1.386 . S
C3640 C3635 1.490 . S
C3640 C3642 1.395 . S
C3640 C3643 1.403 . S
H3641 C3647 0.930 . S
C3642 H3628 0.930 . S
C3642 C3640 1.395 . S
C3642 C3645 1.403 . S
C3643 C3640 1.403 . S
C3643 C3644 1.524 . S
C3643 C3647 1.400 . S
C3644 H3629 0.960 . S
C3644 H3630 0.960 . S
C3644 H3631 0.960 . S
C3644 C3643 1.524 . S
C3645 C3642 1.403 . S
C3645 C3646 1.392 . S
C3645 C3649 1.495 . S
C3646 C3645 1.392 . S
C3646 C3647 1.385 . S
C3646 C3648 1.478 . S
C3647 H3641 0.930 . S
C3647 C3643 1.400 . S
C3647 C3646 1.385 . S
C3648 C3646 1.478 . S
C3648 C3650 1.381 . S
C3648 C3654 1.383 . S
C3649 C3645 1.495 . S
C3649 H3655 0.959 . S
C3649 H3656 0.961 . S
C3649 H3657 0.960 . S
C3650 C3648 1.381 . S
C3650 C3651 1.394 . S
C3650 H3658 0.930 . S
C3651 C3650 1.394 . S
C3651 C3652 1.383 . S
C3651 H3659 0.929 . S
C3652 C3651 1.383 . S
C3652 C3653 1.377 . S
C3653 H3637 0.930 . S
C3653 C3652 1.377 . S
C3653 C3654 1.379 . S
C3654 H3638 0.931 . S
C3654 C3648 1.383 . S
C3654 C3653 1.379 . S
H3655 C3649 0.959 . S
H3656 C3649 0.961 . S
H3657 C3649 0.960 . S
H3658 C3650 0.930 . S
H3659 C3651 0.929 . S
H3660 C3668 0.929 . S
H3661 C3670 0.930 . S
H3662 C3672 0.930 . S
H3663 C3675 0.929 . S
H3664 C3678 0.930 . S
H3665 C3680 0.960 . S
H3666 C3680 0.960 . S
H3667 C3680 0.960 . S
C3668 H3660 0.929 . S
C3668 C3669 1.377 . S
C3668 C3670 1.384 . S
C3669 C3668 1.377 . S
C3669 C3675 1.390 . S
C3670 H3661 0.930 . S
C3670 C3668 1.384 . S
C3670 C3671 1.372 . S
C3671 C3670 1.372 . S
C3671 C3672 1.400 . S
C3671 C3676 1.490 . S
C3672 H3662 0.930 . S
C3672 C3671 1.400 . S
C3672 C3675 1.386 . S
H3673 C3689 0.930 . S
H3674 C3690 0.931 . S
C3675 H3663 0.929 . S
C3675 C3669 1.390 . S
C3675 C3672 1.386 . S
C3676 C3671 1.490 . S
C3676 C3678 1.395 . S
C3676 C3679 1.403 . S
H3677 C3683 0.930 . S
C3678 H3664 0.930 . S
C3678 C3676 1.395 . S
C3678 C3681 1.403 . S
C3679 C3676 1.403 . S
C3679 C3680 1.524 . S
C3679 C3683 1.400 . S
C3680 H3665 0.960 . S
C3680 H3666 0.960 . S
C3680 H3667 0.960 . S
C3680 C3679 1.524 . S
C3681 C3678 1.403 . S
C3681 C3682 1.392 . S
C3681 C3685 1.495 . S
C3682 C3681 1.392 . S
C3682 C3683 1.385 . S
C3682 C3684 1.478 . S
C3683 H3677 0.930 . S
C3683 C3679 1.400 . S
C3683 C3682 1.385 . S
C3684 C3682 1.478 . S
C3684 C3686 1.381 . S
C3684 C3690 1.383 . S
C3685 C3681 1.495 . S
C3685 H3691 0.959 . S
C3685 H3692 0.961 . S
C3685 H3693 0.960 . S
C3686 C3684 1.381 . S
C3686 C3687 1.394 . S
C3686 H3694 0.930 . S
C3687 C3686 1.394 . S
C3687 C3688 1.383 . S
C3687 H3695 0.929 . S
C3688 C3687 1.383 . S
C3688 C3689 1.377 . S
C3689 H3673 0.930 . S
C3689 C3688 1.377 . S
C3689 C3690 1.379 . S
C3690 H3674 0.931 . S
C3690 C3684 1.383 . S
C3690 C3689 1.379 . S
H3691 C3685 0.959 . S
H3692 C3685 0.961 . S
H3693 C3685 0.960 . S
H3694 C3686 0.930 . S
H3695 C3687 0.929 . S
H3696 C3704 0.929 . S
H3697 C3706 0.930 . S
H3698 C3708 0.930 . S
H3699 C3711 0.929 . S
H3700 C3714 0.930 . S
H3701 C3716 0.960 . S
H3702 C3716 0.960 . S
H3703 C3716 0.960 . S
C3704 H3696 0.929 . S
C3704 C3705 1.377 . S
C3704 C3706 1.384 . S
C3705 C3704 1.377 . S
C3705 C3711 1.390 . S
C3706 H3697 0.930 . S
C3706 C3704 1.384 . S
C3706 C3707 1.372 . S
C3707 C3706 1.372 . S
C3707 C3708 1.400 . S
C3707 C3712 1.490 . S
C3708 H3698 0.930 . S
C3708 C3707 1.400 . S
C3708 C3711 1.386 . S
H3709 C3725 0.930 . S
H3710 C3726 0.931 . S
C3711 H3699 0.929 . S
C3711 C3705 1.390 . S
C3711 C3708 1.386 . S
C3712 C3707 1.490 . S
C3712 C3714 1.395 . S
C3712 C3715 1.403 . S
H3713 C3719 0.930 . S
C3714 H3700 0.930 . S
C3714 C3712 1.395 . S
C3714 C3717 1.403 . S
C3715 C3712 1.403 . S
C3715 C3716 1.524 . S
C3715 C3719 1.400 . S
C3716 H3701 0.960 . S
C3716 H3702 0.960 . S
C3716 H3703 0.960 . S
C3716 C3715 1.524 . S
C3717 C3714 1.403 . S
C3717 C3718 1.392 . S
C3717 C3721 1.495 . S
C3718 C3717 1.392 . S
C3718 C3719 1.385 . S
C3718 C3720 1.478 . S
C3719 H3713 0.930 . S
C3719 C3715 1.400 . S
C3719 C3718 1.385 . S
C3720 C3718 1.478 . S
C3720 C3722 1.381 . S
C3720 C3726 1.383 . S
C3721 C3717 1.495 . S
C3721 H3727 0.959 . S
C3721 H3728 0.961 . S
C3721 H3729 0.960 . S
C3722 C3720 1.381 . S
C3722 C3723 1.394 . S
C3722 H3730 0.930 . S
C3723 C3722 1.394 . S
C3723 C3724 1.383 . S
C3723 H3731 0.929 . S
C3724 C3723 1.383 . S
C3724 C3725 1.377 . S
C3725 H3709 0.930 . S
C3725 C3724 1.377 . S
C3725 C3726 1.379 . S
C3726 H3710 0.931 . S
C3726 C3720 1.383 . S
C3726 C3725 1.379 . S
H3727 C3721 0.959 . S
H3728 C3721 0.961 . S
H3729 C3721 0.960 . S
H3730 C3722 0.930 . S
H3731 C3723 0.929 . S
H3732 C3740 0.929 . S
H3733 C3742 0.930 . S
H3734 C3744 0.930 . S
H3735 C3747 0.929 . S
H3736 C3750 0.930 . S
H3737 C3752 0.960 . S
H3738 C3752 0.960 . S
H3739 C3752 0.960 . S
C3740 H3732 0.929 . S
C3740 C3741 1.377 . S
C3740 C3742 1.384 . S
C3741 C3740 1.377 . S
C3741 C3747 1.390 . S
C3742 H3733 0.930 . S
C3742 C3740 1.384 . S
C3742 C3743 1.372 . S
C3743 C3742 1.372 . S
C3743 C3744 1.400 . S
C3743 C3748 1.490 . S
C3744 H3734 0.930 . S
C3744 C3743 1.400 . S
C3744 C3747 1.386 . S
H3745 C3761 0.930 . S
H3746 C3762 0.931 . S
C3747 H3735 0.929 . S
C3747 C3741 1.390 . S
C3747 C3744 1.386 . S
C3748 C3743 1.490 . S
C3748 C3750 1.395 . S
C3748 C3751 1.403 . S
H3749 C3755 0.930 . S
C3750 H3736 0.930 . S
C3750 C3748 1.395 . S
C3750 C3753 1.403 . S
C3751 C3748 1.403 . S
C3751 C3752 1.524 . S
C3751 C3755 1.400 . S
C3752 H3737 0.960 . S
C3752 H3738 0.960 . S
C3752 H3739 0.960 . S
C3752 C3751 1.524 . S
C3753 C3750 1.403 . S
C3753 C3754 1.392 . S
C3753 C3757 1.495 . S
C3754 C3753 1.392 . S
C3754 C3755 1.385 . S
C3754 C3756 1.478 . S
C3755 H3749 0.930 . S
C3755 C3751 1.400 . S
C3755 C3754 1.385 . S
C3756 C3754 1.478 . S
C3756 C3758 1.381 . S
C3756 C3762 1.383 . S
C3757 C3753 1.495 . S
C3757 H3763 0.959 . S
C3757 H3764 0.961 . S
C3757 H3765 0.960 . S
C3758 C3756 1.381 . S
C3758 C3759 1.394 . S
C3758 H3766 0.930 . S
C3759 C3758 1.394 . S
C3759 C3760 1.383 . S
C3759 H3767 0.929 . S
C3760 C3759 1.383 . S
C3760 C3761 1.377 . S
C3761 H3745 0.930 . S
C3761 C3760 1.377 . S
C3761 C3762 1.379 . S
C3762 H3746 0.931 . S
C3762 C3756 1.383 . S
C3762 C3761 1.379 . S
H3763 C3757 0.959 . S
H3764 C3757 0.961 . S
H3765 C3757 0.960 . S
H3766 C3758 0.930 . S
H3767 C3759 0.929 . S
H3768 C3776 0.929 . S
H3769 C3778 0.930 . S
H3770 C3780 0.930 . S
H3771 C3783 0.929 . S
H3772 C3786 0.930 . S
H3773 C3788 0.960 . S
H3774 C3788 0.960 . S
H3775 C3788 0.960 . S
C3776 H3768 0.929 . S
C3776 C3777 1.377 . S
C3776 C3778 1.384 . S
C3777 C3776 1.377 . S
C3777 C3783 1.390 . S
C3778 H3769 0.930 . S
C3778 C3776 1.384 . S
C3778 C3779 1.372 . S
C3779 C3778 1.372 . S
C3779 C3780 1.400 . S
C3779 C3784 1.490 . S
C3780 H3770 0.930 . S
C3780 C3779 1.400 . S
C3780 C3783 1.386 . S
H3781 C3797 0.930 . S
H3782 C3798 0.931 . S
C3783 H3771 0.929 . S
C3783 C3777 1.390 . S
C3783 C3780 1.386 . S
C3784 C3779 1.490 . S
C3784 C3786 1.395 . S
C3784 C3787 1.403 . S
H3785 C3791 0.930 . S
C3786 H3772 0.930 . S
C3786 C3784 1.395 . S
C3786 C3789 1.403 . S
C3787 C3784 1.403 . S
C3787 C3788 1.524 . S
C3787 C3791 1.400 . S
C3788 H3773 0.960 . S
C3788 H3774 0.960 . S
C3788 H3775 0.960 . S
C3788 C3787 1.524 . S
C3789 C3786 1.403 . S
C3789 C3790 1.392 . S
C3789 C3793 1.495 . S
C3790 C3789 1.392 . S
C3790 C3791 1.385 . S
C3790 C3792 1.478 . S
C3791 H3785 0.930 . S
C3791 C3787 1.400 . S
C3791 C3790 1.385 . S
C3792 C3790 1.478 . S
C3792 C3794 1.381 . S
C3792 C3798 1.383 . S
C3793 C3789 1.495 . S
C3793 H3799 0.959 . S
C3793 H3800 0.961 . S
C3793 H3801 0.960 . S
C3794 C3792 1.381 . S
C3794 C3795 1.394 . S
C3794 H3802 0.930 . S
C3795 C3794 1.394 . S
C3795 C3796 1.383 . S
C3795 H3803 0.929 . S
C3796 C3795 1.383 . S
C3796 C3797 1.377 . S
C3797 H3781 0.930 . S
C3797 C3796 1.377 . S
C3797 C3798 1.379 . S
C3798 H3782 0.931 . S
C3798 C3792 1.383 . S
C3798 C3797 1.379 . S
H3799 C3793 0.959 . S
H3800 C3793 0.961 . S
H3801 C3793 0.960 . S
H3802 C3794 0.930 . S
H3803 C3795 0.929 . S
H3804 C3812 0.929 . S
H3805 C3814 0.930 . S
H3806 C3816 0.930 . S
H3807 C3819 0.929 . S
H3808 C3822 0.930 . S
H3809 C3824 0.960 . S
H3810 C3824 0.960 . S
H3811 C3824 0.960 . S
C3812 H3804 0.929 . S
C3812 C3813 1.377 . S
C3812 C3814 1.384 . S
C3813 C3812 1.377 . S
C3813 C3819 1.390 . S
C3814 H3805 0.930 . S
C3814 C3812 1.384 . S
C3814 C3815 1.372 . S
C3815 C3814 1.372 . S
C3815 C3816 1.400 . S
C3815 C3820 1.490 . S
C3816 H3806 0.930 . S
C3816 C3815 1.400 . S
C3816 C3819 1.386 . S
H3817 C3833 0.930 . S
H3818 C3834 0.931 . S
C3819 H3807 0.929 . S
C3819 C3813 1.390 . S
C3819 C3816 1.386 . S
C3820 C3815 1.490 . S
C3820 C3822 1.395 . S
C3820 C3823 1.403 . S
H3821 C3827 0.930 . S
C3822 H3808 0.930 . S
C3822 C3820 1.395 . S
C3822 C3825 1.403 . S
C3823 C3820 1.403 . S
C3823 C3824 1.524 . S
C3823 C3827 1.400 . S
C3824 H3809 0.960 . S
C3824 H3810 0.960 . S
C3824 H3811 0.960 . S
C3824 C3823 1.524 . S
C3825 C3822 1.403 . S
C3825 C3826 1.392 . S
C3825 C3829 1.495 . S
C3826 C3825 1.392 . S
C3826 C3827 1.385 . S
C3826 C3828 1.478 . S
C3827 H3821 0.930 . S
C3827 C3823 1.400 . S
C3827 C3826 1.385 . S
C3828 C3826 1.478 . S
C3828 C3830 1.381 . S
C3828 C3834 1.383 . S
C3829 C3825 1.495 . S
C3829 H3835 0.959 . S
C3829 H3836 0.961 . S
C3829 H3837 0.960 . S
C3830 C3828 1.381 . S
C3830 C3831 1.394 . S
C3830 H3838 0.930 . S
C3831 C3830 1.394 . S
C3831 C3832 1.383 . S
C3831 H3839 0.929 . S
C3832 C3831 1.383 . S
C3832 C3833 1.377 . S
C3833 H3817 0.930 . S
C3833 C3832 1.377 . S
C3833 C3834 1.379 . S
C3834 H3818 0.931 . S
C3834 C3828 1.383 . S
C3834 C3833 1.379 . S
H3835 C3829 0.959 . S
H3836 C3829 0.961 . S
H3837 C3829 0.960 . S
H3838 C3830 0.930 . S
H3839 C3831 0.929 . S
H3840 C3848 0.929 . S
H3841 C3850 0.930 . S
H3842 C3852 0.930 . S
H3843 C3855 0.929 . S
H3844 C3858 0.930 . S
H3845 C3860 0.960 . S
H3846 C3860 0.960 . S
H3847 C3860 0.960 . S
C3848 H3840 0.929 . S
C3848 C3849 1.377 . S
C3848 C3850 1.384 . S
C3849 C3848 1.377 . S
C3849 C3855 1.390 . S
C3850 H3841 0.930 . S
C3850 C3848 1.384 . S
C3850 C3851 1.372 . S
C3851 C3850 1.372 . S
C3851 C3852 1.400 . S
C3851 C3856 1.490 . S
C3852 H3842 0.930 . S
C3852 C3851 1.400 . S
C3852 C3855 1.386 . S
H3853 C3869 0.930 . S
H3854 C3870 0.931 . S
C3855 H3843 0.929 . S
C3855 C3849 1.390 . S
C3855 C3852 1.386 . S
C3856 C3851 1.490 . S
C3856 C3858 1.395 . S
C3856 C3859 1.403 . S
H3857 C3863 0.930 . S
C3858 H3844 0.930 . S
C3858 C3856 1.395 . S
C3858 C3861 1.403 . S
C3859 C3856 1.403 . S
C3859 C3860 1.524 . S
C3859 C3863 1.400 . S
C3860 H3845 0.960 . S
C3860 H3846 0.960 . S
C3860 H3847 0.960 . S
C3860 C3859 1.524 . S
C3861 C3858 1.403 . S
C3861 C3862 1.392 . S
C3861 C3865 1.495 . S
C3862 C3861 1.392 . S
C3862 C3863 1.385 . S
C3862 C3864 1.478 . S
C3863 H3857 0.930 . S
C3863 C3859 1.400 . S
C3863 C3862 1.385 . S
C3864 C3862 1.478 . S
C3864 C3866 1.381 . S
C3864 C3870 1.383 . S
C3865 C3861 1.495 . S
C3865 H3871 0.959 . S
C3865 H3872 0.961 . S
C3865 H3873 0.960 . S
C3866 C3864 1.381 . S
C3866 C3867 1.394 . S
C3866 H3874 0.930 . S
C3867 C3866 1.394 . S
C3867 C3868 1.383 . S
C3867 H3875 0.929 . S
C3868 C3867 1.383 . S
C3868 C3869 1.377 . S
C3869 H3853 0.930 . S
C3869 C3868 1.377 . S
C3869 C3870 1.379 . S
C3870 H3854 0.931 . S
C3870 C3864 1.383 . S
C3870 C3869 1.379 . S
H3871 C3865 0.959 . S
H3872 C3865 0.961 . S
H3873 C3865 0.960 . S
H3874 C3866 0.930 . S
H3875 C3867 0.929 . S
H3876 C3884 0.929 . S
H3877 C3886 0.930 . S
H3878 C3888 0.930 . S
H3879 C3891 0.929 . S
H3880 C3894 0.930 . S
H3881 C3896 0.960 . S
H3882 C3896 0.960 . S
H3883 C3896 0.960 . S
C3884 H3876 0.929 . S
C3884 C3885 1.377 . S
C3884 C3886 1.384 . S
C3885 C3884 1.377 . S
C3885 C3891 1.390 . S
C3886 H3877 0.930 . S
C3886 C3884 1.384 . S
C3886 C3887 1.372 . S
C3887 C3886 1.372 . S
C3887 C3888 1.400 . S
C3887 C3892 1.490 . S
C3888 H3878 0.930 . S
C3888 C3887 1.400 . S
C3888 C3891 1.386 . S
H3889 C3905 0.930 . S
H3890 C3906 0.931 . S
C3891 H3879 0.929 . S
C3891 C3885 1.390 . S
C3891 C3888 1.386 . S
C3892 C3887 1.490 . S
C3892 C3894 1.395 . S
C3892 C3895 1.403 . S
H3893 C3899 0.930 . S
C3894 H3880 0.930 . S
C3894 C3892 1.395 . S
C3894 C3897 1.403 . S
C3895 C3892 1.403 . S
C3895 C3896 1.524 . S
C3895 C3899 1.400 . S
C3896 H3881 0.960 . S
C3896 H3882 0.960 . S
C3896 H3883 0.960 . S
C3896 C3895 1.524 . S
C3897 C3894 1.403 . S
C3897 C3898 1.392 . S
C3897 C3901 1.495 . S
C3898 C3897 1.392 . S
C3898 C3899 1.385 . S
C3898 C3900 1.478 . S
C3899 H3893 0.930 . S
C3899 C3895 1.400 . S
C3899 C3898 1.385 . S
C3900 C3898 1.478 . S
C3900 C3902 1.381 . S
C3900 C3906 1.383 . S
C3901 C3897 1.495 . S
C3901 H3907 0.959 . S
C3901 H3908 0.961 . S
C3901 H3909 0.960 . S
C3902 C3900 1.381 . S
C3902 C3903 1.394 . S
C3902 H3910 0.930 . S
C3903 C3902 1.394 . S
C3903 C3904 1.383 . S
C3903 H3911 0.929 . S
C3904 C3903 1.383 . S
C3904 C3905 1.377 . S
C3905 H3889 0.930 . S
C3905 C3904 1.377 . S
C3905 C3906 1.379 . S
C3906 H3890 0.931 . S
C3906 C3900 1.383 . S
C3906 C3905 1.379 . S
H3907 C3901 0.959 . S
H3908 C3901 0.961 . S
H3909 C3901 0.960 . S
H3910 C3902 0.930 . S
H3911 C3903 0.929 . S
H3912 C3920 0.929 . S
H3913 C3922 0.930 . S
H3914 C3924 0.930 . S
H3915 C3927 0.929 . S
H3916 C3930 0.930 . S
H3917 C3932 0.960 . S
H3918 C3932 0.960 . S
H3919 C3932 0.960 . S
C3920 H3912 0.929 . S
C3920 C3921 1.377 . S
C3920 C3922 1.384 . S
C3921 C3920 1.377 . S
C3921 C3927 1.390 . S
C3922 H3913 0.930 . S
C3922 C3920 1.384 . S
C3922 C3923 1.372 . S
C3923 C3922 1.372 . S
C3923 C3924 1.400 . S
C3923 C3928 1.490 . S
C3924 H3914 0.930 . S
C3924 C3923 1.400 . S
C3924 C3927 1.386 . S
H3925 C3941 0.930 . S
H3926 C3942 0.931 . S
C3927 H3915 0.929 . S
C3927 C3921 1.390 . S
C3927 C3924 1.386 . S
C3928 C3923 1.490 . S
C3928 C3930 1.395 . S
C3928 C3931 1.403 . S
H3929 C3935 0.930 . S
C3930 H3916 0.930 . S
C3930 C3928 1.395 . S
C3930 C3933 1.403 . S
C3931 C3928 1.403 . S
C3931 C3932 1.524 . S
C3931 C3935 1.400 . S
C3932 H3917 0.960 . S
C3932 H3918 0.960 . S
C3932 H3919 0.960 . S
C3932 C3931 1.524 . S
C3933 C3930 1.403 . S
C3933 C3934 1.392 . S
C3933 C3937 1.495 . S
C3934 C3933 1.392 . S
C3934 C3935 1.385 . S
C3934 C3936 1.478 . S
C3935 H3929 0.930 . S
C3935 C3931 1.400 . S
C3935 C3934 1.385 . S
C3936 C3934 1.478 . S
C3936 C3938 1.381 . S
C3936 C3942 1.383 . S
C3937 C3933 1.495 . S
C3937 H3943 0.959 . S
C3937 H3944 0.961 . S
C3937 H3945 0.960 . S
C3938 C3936 1.381 . S
C3938 C3939 1.394 . S
C3938 H3946 0.930 . S
C3939 C3938 1.394 . S
C3939 C3940 1.383 . S
C3939 H3947 0.929 . S
C3940 C3939 1.383 . S
C3940 C3941 1.377 . S
C3941 H3925 0.930 . S
C3941 C3940 1.377 . S
C3941 C3942 1.379 . S
C3942 H3926 0.931 . S
C3942 C3936 1.383 . S
C3942 C3941 1.379 . S
H3943 C3937 0.959 . S
H3944 C3937 0.961 . S
H3945 C3937 0.960 . S
H3946 C3938 0.930 . S
H3947 C3939 0.929 . S
H3948 C3956 0.929 . S
H3949 C3958 0.930 . S
H3950 C3960 0.930 . S
H3951 C3963 0.929 . S
H3952 C3966 0.930 . S
H3953 C3968 0.960 . S
H3954 C3968 0.960 . S
H3955 C3968 0.960 . S
C3956 H3948 0.929 . S
C3956 C3957 1.377 . S
C3956 C3958 1.384 . S
C3957 C3956 1.377 . S
C3957 C3963 1.390 . S
C3958 H3949 0.930 . S
C3958 C3956 1.384 . S
C3958 C3959 1.372 . S
C3959 C3958 1.372 . S
C3959 C3960 1.400 . S
C3959 C3964 1.490 . S
C3960 H3950 0.930 . S
C3960 C3959 1.400 . S
C3960 C3963 1.386 . S
H3961 C3977 0.930 . S
H3962 C3978 0.931 . S
C3963 H3951 0.929 . S
C3963 C3957 1.390 . S
C3963 C3960 1.386 . S
C3964 C3959 1.490 . S
C3964 C3966 1.395 . S
C3964 C3967 1.403 . S
H3965 C3971 0.930 . S
C3966 H3952 0.930 . S
C3966 C3964 1.395 . S
C3966 C3969 1.403 . S
C3967 C3964 1.403 . S
C3967 C3968 1.524 . S
C3967 C3971 1.400 . S
C3968 H3953 0.960 . S
C3968 H3954 0.960 . S
C3968 H3955 0.960 . S
C3968 C3967 1.524 . S
C3969 C3966 1.403 . S
C3969 C3970 1.392 . S
C3969 C3973 1.495 . S
C3970 C3969 1.392 . S
C3970 C3971 1.385 . S
C3970 C3972 1.478 . S
C3971 H3965 0.930 . S
C3971 C3967 1.400 . S
C3971 C3970 1.385 . S
C3972 C3970 1.478 . S
C3972 C3974 1.381 . S
C3972 C3978 1.383 . S
C3973 C3969 1.495 . S
C3973 H3979 0.959 . S
C3973 H3980 0.961 . S
C3973 H3981 0.960 . S
C3974 C3972 1.381 . S
C3974 C3975 1.394 . S
C3974 H3982 0.930 . S
C3975 C3974 1.394 . S
C3975 C3976 1.383 . S
C3975 H3983 0.929 . S
C3976 C3975 1.383 . S
C3976 C3977 1.377 . S
C3977 H3961 0.930 . S
C3977 C3976 1.377 . S
C3977 C3978 1.379 . S
C3978 H3962 0.931 . S
C3978 C3972 1.383 . S
C3978 C3977 1.379 . S
H3979 C3973 0.959 . S
H3980 C3973 0.961 . S
H3981 C3973 0.960 . S
H3982 C3974 0.930 . S
H3983 C3975 0.929 . S
H3984 C3992 0.929 . S
H3985 C3994 0.930 . S
H3986 C3996 0.930 . S
H3987 C3999 0.929 . S
H3988 C4002 0.930 . S
H3989 C4004 0.960 . S
H3990 C4004 0.960 . S
H3991 C4004 0.960 . S
C3992 H3984 0.929 . S
C3992 C3993 1.377 . S
C3992 C3994 1.384 . S
C3993 C3992 1.377 . S
C3993 C3999 1.390 . S
C3994 H3985 0.930 . S
C3994 C3992 1.384 . S
C3994 C3995 1.372 . S
C3995 C3994 1.372 . S
C3995 C3996 1.400 . S
C3995 C4000 1.490 . S
C3996 H3986 0.930 . S
C3996 C3995 1.400 . S
C3996 C3999 1.386 . S
H3997 C4013 0.930 . S
H3998 C4014 0.931 . S
C3999 H3987 0.929 . S
C3999 C3993 1.390 . S
C3999 C3996 1.386 . S
C4000 C3995 1.490 . S
C4000 C4002 1.395 . S
C4000 C4003 1.403 . S
H4001 C4007 0.930 . S
C4002 H3988 0.930 . S
C4002 C4000 1.395 . S
C4002 C4005 1.403 . S
C4003 C4000 1.403 . S
C4003 C4004 1.524 . S
C4003 C4007 1.400 . S
C4004 H3989 0.960 . S
C4004 H3990 0.960 . S
C4004 H3991 0.960 . S
C4004 C4003 1.524 . S
C4005 C4002 1.403 . S
C4005 C4006 1.392 . S
C4005 C4009 1.495 . S
C4006 C4005 1.392 . S
C4006 C4007 1.385 . S
C4006 C4008 1.478 . S
C4007 H4001 0.930 . S
C4007 C4003 1.400 . S
C4007 C4006 1.385 . S
C4008 C4006 1.478 . S
C4008 C4010 1.381 . S
C4008 C4014 1.383 . S
C4009 C4005 1.495 . S
C4009 H4015 0.959 . S
C4009 H4016 0.961 . S
C4009 H4017 0.960 . S
C4010 C4008 1.381 . S
C4010 C4011 1.394 . S
C4010 H4018 0.930 . S
C4011 C4010 1.394 . S
C4011 C4012 1.383 . S
C4011 H4019 0.929 . S
C4012 C4011 1.383 . S
C4012 C4013 1.377 . S
C4013 H3997 0.930 . S
C4013 C4012 1.377 . S
C4013 C4014 1.379 . S
C4014 H3998 0.931 . S
C4014 C4008 1.383 . S
C4014 C4013 1.379 . S
H4015 C4009 0.959 . S
H4016 C4009 0.961 . S
H4017 C4009 0.960 . S
H4018 C4010 0.930 . S
H4019 C4011 0.929 . S
H4020 C4028 0.929 . S
H4021 C4030 0.930 . S
H4022 C4032 0.930 . S
H4023 C4035 0.929 . S
H4024 C4038 0.930 . S
H4025 C4040 0.960 . S
H4026 C4040 0.960 . S
H4027 C4040 0.960 . S
C4028 H4020 0.929 . S
C4028 C4029 1.377 . S
C4028 C4030 1.384 . S
C4029 C4028 1.377 . S
C4029 C4035 1.390 . S
C4030 H4021 0.930 . S
C4030 C4028 1.384 . S
C4030 C4031 1.372 . S
C4031 C4030 1.372 . S
C4031 C4032 1.400 . S
C4031 C4036 1.490 . S
C4032 H4022 0.930 . S
C4032 C4031 1.400 . S
C4032 C4035 1.386 . S
H4033 C4049 0.930 . S
H4034 C4050 0.931 . S
C4035 H4023 0.929 . S
C4035 C4029 1.390 . S
C4035 C4032 1.386 . S
C4036 C4031 1.490 . S
C4036 C4038 1.395 . S
C4036 C4039 1.403 . S
H4037 C4043 0.930 . S
C4038 H4024 0.930 . S
C4038 C4036 1.395 . S
C4038 C4041 1.403 . S
C4039 C4036 1.403 . S
C4039 C4040 1.524 . S
C4039 C4043 1.400 . S
C4040 H4025 0.960 . S
C4040 H4026 0.960 . S
C4040 H4027 0.960 . S
C4040 C4039 1.524 . S
C4041 C4038 1.403 . S
C4041 C4042 1.392 . S
C4041 C4045 1.495 . S
C4042 C4041 1.392 . S
C4042 C4043 1.385 . S
C4042 C4044 1.478 . S
C4043 H4037 0.930 . S
C4043 C4039 1.400 . S
C4043 C4042 1.385 . S
C4044 C4042 1.478 . S
C4044 C4046 1.381 . S
C4044 C4050 1.383 . S
C4045 C4041 1.495 . S
C4045 H4051 0.959 . S
C4045 H4052 0.961 . S
C4045 H4053 0.960 . S
C4046 C4044 1.381 . S
C4046 C4047 1.394 . S
C4046 H4054 0.930 . S
C4047 C4046 1.394 . S
C4047 C4048 1.383 . S
C4047 H4055 0.929 . S
C4048 C4047 1.383 . S
C4048 C4049 1.377 . S
C4049 H4033 0.930 . S
C4049 C4048 1.377 . S
C4049 C4050 1.379 . S
C4050 H4034 0.931 . S
C4050 C4044 1.383 . S
C4050 C4049 1.379 . S
H4051 C4045 0.959 . S
H4052 C4045 0.961 . S
H4053 C4045 0.960 . S
H4054 C4046 0.930 . S
H4055 C4047 0.929 . S
H4056 C4064 0.929 . S
H4057 C4066 0.930 . S
H4058 C4068 0.930 . S
H4059 C4071 0.929 . S
H4060 C4074 0.930 . S
H4061 C4076 0.960 . S
H4062 C4076 0.960 . S
H4063 C4076 0.960 . S
C4064 H4056 0.929 . S
C4064 C4065 1.377 . S
C4064 C4066 1.384 . S
C4065 C4064 1.377 . S
C4065 C4071 1.390 . S
C4066 H4057 0.930 . S
C4066 C4064 1.384 . S
C4066 C4067 1.372 . S
C4067 C4066 1.372 . S
C4067 C4068 1.400 . S
C4067 C4072 1.490 . S
C4068 H4058 0.930 . S
C4068 C4067 1.400 . S
C4068 C4071 1.386 . S
H4069 C4085 0.930 . S
H4070 C4086 0.931 . S
C4071 H4059 0.929 . S
C4071 C4065 1.390 . S
C4071 C4068 1.386 . S
C4072 C4067 1.490 . S
C4072 C4074 1.395 . S
C4072 C4075 1.403 . S
H4073 C4079 0.930 . S
C4074 H4060 0.930 . S
C4074 C4072 1.395 . S
C4074 C4077 1.403 . S
C4075 C4072 1.403 . S
C4075 C4076 1.524 . S
C4075 C4079 1.400 . S
C4076 H4061 0.960 . S
C4076 H4062 0.960 . S
C4076 H4063 0.960 . S
C4076 C4075 1.524 . S
C4077 C4074 1.403 . S
C4077 C4078 1.392 . S
C4077 C4081 1.495 . S
C4078 C4077 1.392 . S
C4078 C4079 1.385 . S
C4078 C4080 1.478 . S
C4079 H4073 0.930 . S
C4079 C4075 1.400 . S
C4079 C4078 1.385 . S
C4080 C4078 1.478 . S
C4080 C4082 1.381 . S
C4080 C4086 1.383 . S
C4081 C4077 1.495 . S
C4081 H4087 0.959 . S
C4081 H4088 0.961 . S
C4081 H4089 0.960 . S
C4082 C4080 1.381 . S
C4082 C4083 1.394 . S
C4082 H4090 0.930 . S
C4083 C4082 1.394 . S
C4083 C4084 1.383 . S
C4083 H4091 0.929 . S
C4084 C4083 1.383 . S
C4084 C4085 1.377 . S
C4085 H4069 0.930 . S
C4085 C4084 1.377 . S
C4085 C4086 1.379 . S
C4086 H4070 0.931 . S
C4086 C4080 1.383 . S
C4086 C4085 1.379 . S
H4087 C4081 0.959 . S
H4088 C4081 0.961 . S
H4089 C4081 0.960 . S
H4090 C4082 0.930 . S
H4091 C4083 0.929 . S
H4092 C4100 0.929 . S
H4093 C4102 0.930 . S
H4094 C4104 0.930 . S
H4095 C4107 0.929 . S
H4096 C4110 0.930 . S
H4097 C4112 0.960 . S
H4098 C4112 0.960 . S
H4099 C4112 0.960 . S
C4100 H4092 0.929 . S
C4100 C4101 1.377 . S
C4100 C4102 1.384 . S
C4101 C4100 1.377 . S
C4101 C4107 1.390 . S
C4102 H4093 0.930 . S
C4102 C4100 1.384 . S
C4102 C4103 1.372 . S
C4103 C4102 1.372 . S
C4103 C4104 1.400 . S
C4103 C4108 1.490 . S
C4104 H4094 0.930 . S
C4104 C4103 1.400 . S
C4104 C4107 1.386 . S
H4105 C4121 0.930 . S
H4106 C4122 0.931 . S
C4107 H4095 0.929 . S
C4107 C4101 1.390 . S
C4107 C4104 1.386 . S
C4108 C4103 1.490 . S
C4108 C4110 1.395 . S
C4108 C4111 1.403 . S
H4109 C4115 0.930 . S
C4110 H4096 0.930 . S
C4110 C4108 1.395 . S
C4110 C4113 1.403 . S
C4111 C4108 1.403 . S
C4111 C4112 1.524 . S
C4111 C4115 1.400 . S
C4112 H4097 0.960 . S
C4112 H4098 0.960 . S
C4112 H4099 0.960 . S
C4112 C4111 1.524 . S
C4113 C4110 1.403 . S
C4113 C4114 1.392 . S
C4113 C4117 1.495 . S
C4114 C4113 1.392 . S
C4114 C4115 1.385 . S
C4114 C4116 1.478 . S
C4115 H4109 0.930 . S
C4115 C4111 1.400 . S
C4115 C4114 1.385 . S
C4116 C4114 1.478 . S
C4116 C4118 1.381 . S
C4116 C4122 1.383 . S
C4117 C4113 1.495 . S
C4117 H4123 0.959 . S
C4117 H4124 0.961 . S
C4117 H4125 0.960 . S
C4118 C4116 1.381 . S
C4118 C4119 1.394 . S
C4118 H4126 0.930 . S
C4119 C4118 1.394 . S
C4119 C4120 1.383 . S
C4119 H4127 0.929 . S
C4120 C4119 1.383 . S
C4120 C4121 1.377 . S
C4121 H4105 0.930 . S
C4121 C4120 1.377 . S
C4121 C4122 1.379 . S
C4122 H4106 0.931 . S
C4122 C4116 1.383 . S
C4122 C4121 1.379 . S
H4123 C4117 0.959 . S
H4124 C4117 0.961 . S
H4125 C4117 0.960 . S
H4126 C4118 0.930 . S
H4127 C4119 0.929 . S
C681 C132 1.436 . S
C700 C6 1.433 . S
C717 C146 1.432 . S
C736 C20 1.458 . S
C753 C160 1.437 . S
C772 C34 1.441 . S
C789 C48 1.432 . S
C808 C118 1.459 . S
C825 C216 1.442 . S
C844 C62 1.419 . S
C861 C76 1.441 . S
C880 C174 1.421 . S
C897 C188 1.432 . S
C916 C90 1.452 . S
C933 C202 1.432 . S
C952 C104 1.461 . S
C969 C230 1.433 . S
C988 C258 1.458 . S
C1005 C244 1.434 . S
C1024 C314 1.456 . S
C1041 C272 1.441 . S
C1060 C328 1.422 . S
C1077 C286 1.442 . S
C1096 C300 1.408 . S
C1113 C342 1.438 . S
C1132 C468 1.438 . S
C1149 C482 1.438 . S
C1168 C356 1.438 . S
C1185 C370 1.435 . S
C1204 C496 1.452 . S
C1221 C384 1.432 . S
C1240 C454 1.457 . S
C1257 C552 1.442 . S
C1276 C398 1.408 . S
C1293 C510 1.432 . S
C1312 C412 1.461 . S
C1329 C524 1.437 . S
C1348 C426 1.445 . S
C1365 C538 1.432 . S
C1384 C440 1.461 . S
C1401 C566 1.442 . S
C1420 C594 1.412 . S
C1437 C580 1.438 . S
C1456 C650 1.421 . S
C1473 C608 1.441 . S
C1492 C664 1.409 . S
C1509 C636 1.437 . S
C1528 C622 1.427 . S
C1545 C121 1.263 . S
C1564 C8 1.340 . S
C1581 C135 1.251 . S
C1600 C22 1.338 . S
C1617 C36 1.342 . S
C1636 C149 1.227 . S
C1653 C50 1.341 . S
C1672 C163 1.269 . S
C1689 C64 1.342 . S
C1708 C177 1.284 . S
C1725 C78 1.341 . S
C1744 C191 1.295 . S
C1761 C92 1.342 . S
C1780 C205 1.291 . S
C1797 C219 1.265 . S
C1816 C106 1.337 . S
C1833 C120 1.342 . S
C1852 C233 1.288 . S
C1869 C331 1.259 . S
C1888 C134 1.341 . S
C1905 C148 1.341 . S
C1924 C303 1.224 . S
C1941 C162 1.341 . S
C1960 C317 1.283 . S
C1977 C176 1.342 . S
C1996 C247 1.227 . S
C2013 C190 1.341 . S
C2032 C261 1.275 . S
C2049 C204 1.341 . S
C2068 C275 1.293 . S
C2085 C289 1.266 . S
C2104 C218 1.339 . S
C2121 C9 1.263 . S
C2140 C232 1.336 . S
C2157 C246 1.342 . S
C2176 C65 1.234 . S
C2193 C260 1.341 . S
C2212 C79 1.274 . S
C2229 C274 1.342 . S
C2248 C93 1.264 . S
C2265 C107 1.254 . S
C2284 C288 1.337 . S
C2301 C302 1.341 . S
C2320 C37 1.238 . S
C2337 C316 1.342 . S
C2356 C51 1.256 . S
C2373 C23 1.267 . S
C2392 C330 1.338 . S
C2409 C457 1.251 . S
C2428 C344 1.340 . S
C2445 C358 1.341 . S
C2464 C471 1.282 . S
C2481 C372 1.341 . S
C2500 C485 1.295 . S
C2517 C499 1.251 . S
C2536 C386 1.339 . S
C2553 C513 1.265 . S
C2572 C400 1.336 . S
C2589 C414 1.342 . S
C2608 C527 1.265 . S
C2625 C541 1.251 . S
C2644 C428 1.339 . S
C2661 C555 1.258 . S
C2680 C442 1.336 . S
C2697 C456 1.342 . S
C2716 C569 1.283 . S
C2733 C470 1.341 . S
C2752 C667 1.274 . S
C2769 C484 1.341 . S
C2788 C639 1.284 . S
C2805 C653 1.264 . S
C2824 C498 1.340 . S
C2841 C512 1.342 . S
C2860 C583 1.279 . S
C2877 C526 1.341 . S
C2896 C597 1.259 . S
C2913 C611 1.267 . S
C2932 C540 1.338 . S
C2949 C625 1.266 . S
C2968 C554 1.339 . S
C2985 C568 1.341 . S
C3004 C345 1.224 . S
C3021 C582 1.341 . S
C3040 C401 1.218 . S
C3057 C415 1.251 . S
C3076 C596 1.338 . S
C3093 C610 1.341 . S
C3112 C429 1.294 . S
C3129 C624 1.341 . S
C3148 C443 1.293 . S
C3165 C373 1.251 . S
C3184 C638 1.340 . S
C3201 C652 1.341 . S
C3220 C387 1.292 . S
C3237 C359 1.266 . S
C3256 C666 1.339 . S
C3273 C441 1.573 . S
C3292 C7 1.539 . S
C3309 C21 1.581 . S
C3328 C399 1.550 . S
C3345 C413 1.571 . S
C3364 C35 1.543 . S
C3381 C427 1.573 . S
C3400 C49 1.539 . S
C3417 C63 1.578 . S
C3436 C357 1.610 . S
C3453 C371 1.576 . S
C3472 C77 1.538 . S
C3489 C385 1.576 . S
C3508 C91 1.605 . S
C3525 C105 1.570 . S
C3544 C343 1.554 . S
C3561 C623 1.584 . S
C3580 C119 1.603 . S
C3597 C133 1.583 . S
C3616 C581 1.608 . S
C3633 C147 1.585 . S
C3652 C595 1.582 . S
C3669 C609 1.573 . S
C3688 C161 1.538 . S
C3705 C665 1.580 . S
C3724 C175 1.611 . S
C3741 C637 1.584 . S
C3760 C189 1.573 . S
C3777 C203 1.571 . S
C3796 C651 1.544 . S
C3813 C567 1.579 . S
C3832 C217 1.544 . S
C3849 C231 1.570 . S
C3868 C553 1.576 . S
C3885 C469 1.570 . S
C3904 C245 1.565 . S
C3921 C259 1.570 . S
C3940 C483 1.559 . S
C3957 C497 1.572 . S
C3976 C273 1.539 . S
C3993 C455 1.572 . S
C4012 C287 1.539 . S
C4029 C301 1.574 . S
C4048 C525 1.537 . S
C4065 C539 1.570 . S
C4084 C315 1.569 . S
C4101 C511 1.576 . S
C4120 C329 1.605 . S
