# Generated by pormake.
# Topology umz, (4)-cn, num edge types: 1
# Building blocks:
#     Node 0, Type 0, BuildingBlock: TATPOV_clean_sbu_0, # of connection points: 4
#     Node 1, Type 0, BuildingBlock: TATPOV_clean_sbu_0, # of connection points: 4
#     Node 2, Type 0, BuildingBlock: TATPOV_clean_sbu_0, # of connection points: 4
#     Node 3, Type 0, BuildingBlock: TATPOV_clean_sbu_0, # of connection points: 4
#     Node 4, Type 0, BuildingBlock: TATPOV_clean_sbu_0, # of connection points: 4
#     Node 5, Type 0, BuildingBlock: TATPOV_clean_sbu_0, # of connection points: 4
#     Node 6, Type 0, BuildingBlock: TATPOV_clean_sbu_0, # of connection points: 4
#     Node 7, Type 0, BuildingBlock: TATPOV_clean_sbu_0, # of connection points: 4
#     Node 8, Type 0, BuildingBlock: TATPOV_clean_sbu_0, # of connection points: 4
#     Node 9, Type 0, BuildingBlock: TATPOV_clean_sbu_0, # of connection points: 4
#     Node 10, Type 0, BuildingBlock: TATPOV_clean_sbu_0, # of connection points: 4
#     Node 11, Type 0, BuildingBlock: TATPOV_clean_sbu_0, # of connection points: 4
#     Node 12, Type 0, BuildingBlock: TATPOV_clean_sbu_0, # of connection points: 4
#     Node 13, Type 0, BuildingBlock: TATPOV_clean_sbu_0, # of connection points: 4
#     Node 14, Type 0, BuildingBlock: TATPOV_clean_sbu_0, # of connection points: 4
#     Node 15, Type 0, BuildingBlock: TATPOV_clean_sbu_0, # of connection points: 4
#     Edge 16, Type (0, 0), BuildingBlock: CIFDUS_clean_linker_0, # of connection points: 2
#     Edge 17, Type (0, 0), BuildingBlock: CIFDUS_clean_linker_0, # of connection points: 2
#     Edge 18, Type (0, 0), BuildingBlock: CIFDUS_clean_linker_0, # of connection points: 2
#     Edge 19, Type (0, 0), BuildingBlock: CIFDUS_clean_linker_0, # of connection points: 2
#     Edge 20, Type (0, 0), BuildingBlock: CIFDUS_clean_linker_0, # of connection points: 2
#     Edge 21, Type (0, 0), BuildingBlock: CIFDUS_clean_linker_0, # of connection points: 2
#     Edge 22, Type (0, 0), BuildingBlock: CIFDUS_clean_linker_0, # of connection points: 2
#     Edge 23, Type (0, 0), BuildingBlock: CIFDUS_clean_linker_0, # of connection points: 2
#     Edge 24, Type (0, 0), BuildingBlock: CIFDUS_clean_linker_0, # of connection points: 2
#     Edge 25, Type (0, 0), BuildingBlock: CIFDUS_clean_linker_0, # of connection points: 2
#     Edge 26, Type (0, 0), BuildingBlock: CIFDUS_clean_linker_0, # of connection points: 2
#     Edge 27, Type (0, 0), BuildingBlock: CIFDUS_clean_linker_0, # of connection points: 2
#     Edge 28, Type (0, 0), BuildingBlock: CIFDUS_clean_linker_0, # of connection points: 2
#     Edge 29, Type (0, 0), BuildingBlock: CIFDUS_clean_linker_0, # of connection points: 2
#     Edge 30, Type (0, 0), BuildingBlock: CIFDUS_clean_linker_0, # of connection points: 2
#     Edge 31, Type (0, 0), BuildingBlock: CIFDUS_clean_linker_0, # of connection points: 2
#     Edge 32, Type (0, 0), BuildingBlock: CIFDUS_clean_linker_0, # of connection points: 2
#     Edge 33, Type (0, 0), BuildingBlock: CIFDUS_clean_linker_0, # of connection points: 2
#     Edge 34, Type (0, 0), BuildingBlock: CIFDUS_clean_linker_0, # of connection points: 2
#     Edge 35, Type (0, 0), BuildingBlock: CIFDUS_clean_linker_0, # of connection points: 2
#     Edge 36, Type (0, 0), BuildingBlock: CIFDUS_clean_linker_0, # of connection points: 2
#     Edge 37, Type (0, 0), BuildingBlock: CIFDUS_clean_linker_0, # of connection points: 2
#     Edge 38, Type (0, 0), BuildingBlock: CIFDUS_clean_linker_0, # of connection points: 2
#     Edge 39, Type (0, 0), BuildingBlock: CIFDUS_clean_linker_0, # of connection points: 2
#     Edge 40, Type (0, 0), BuildingBlock: CIFDUS_clean_linker_0, # of connection points: 2
#     Edge 41, Type (0, 0), BuildingBlock: CIFDUS_clean_linker_0, # of connection points: 2
#     Edge 42, Type (0, 0), BuildingBlock: CIFDUS_clean_linker_0, # of connection points: 2
#     Edge 43, Type (0, 0), BuildingBlock: CIFDUS_clean_linker_0, # of connection points: 2
#     Edge 44, Type (0, 0), BuildingBlock: CIFDUS_clean_linker_0, # of connection points: 2
#     Edge 45, Type (0, 0), BuildingBlock: CIFDUS_clean_linker_0, # of connection points: 2
#     Edge 46, Type (0, 0), BuildingBlock: CIFDUS_clean_linker_0, # of connection points: 2
#     Edge 47, Type (0, 0), BuildingBlock: CIFDUS_clean_linker_0, # of connection points: 2
# Relax obj value: 0.191
# Max RMSD: 0.157
# Mean RMSD: 0.157
data_MOF--net-umz--node1-TATPOV_clean_sbu_0--edge1-CIFDUS_clean_linker_0
_symmetry_space_group_name_H-M    P1
_symmetry_Int_Tables_number       1
_symmetry_cell_setting            triclinic
loop_
_symmetry_equiv_pos_as_xyz
'x, y, z'
_cell_length_a     54.196423
_cell_length_b     54.441039
_cell_length_c     19.698013
_cell_angle_alpha  90.108674
_cell_angle_beta   90.154331
_cell_angle_gamma 89.575472
loop_
_atom_site_label
_atom_site_type_symbol
_atom_site_fract_x
_atom_site_fract_y
_atom_site_fract_z
_atom_type_partial_charge
Zn0 Zn 0.0046 0.55983 0.03769 0.0
Zn1 Zn -0.00689 0.6108 0.03056 0.0
O2 O 0.95936 0.60088 0.0621 0.0
O3 O 0.97701 0.56811 0.10668 0.0
O4 O -0.0092 0.64722 0.01509 0.0
O5 O 0.03304 0.57625 -0.01572 0.0
O6 O 0.00326 0.59717 0.93739 0.0
C7 C 0.95925 0.58342 0.10453 0.0
C8 C 0.03667 0.59092 0.11059 0.0
O9 O 0.01776 0.60497 0.11054 0.0
O10 O 0.03852 0.5744 0.06509 0.0
C11 C 0.00181 0.66317 0.051 0.0
O12 O 0.01527 0.65603 0.10303 0.0
C13 C 0.02425 0.58682 0.93255 0.0
Zn14 Zn 0.90852 -0.00258 0.54955 0.0
Zn15 Zn 0.85964 -0.00836 0.52735 0.0
O16 O 0.86912 0.95728 0.56501 0.0
O17 O 0.8962 0.9763 0.62822 0.0
O18 O 0.82414 -0.00882 0.50301 0.0
O19 O 0.90052 0.02709 0.48881 0.0
O20 O 0.87366 0.00401 0.43633 0.0
C21 C 0.88251 0.95793 0.61826 0.0
C22 C 0.87806 0.03438 0.60745 0.0
O23 O 0.86239 0.0171 0.60479 0.0
O24 O 0.89647 0.03342 0.5674 0.0
C25 C 0.80551 -0.01123 0.54106 0.0
O26 O 0.80849 -0.01551 0.60622 0.0
C27 C 0.88808 0.02231 0.43592 0.0
Zn28 Zn 0.47561 0.91971 0.08223 0.0
Zn29 Zn 0.47232 0.84794 0.05611 0.0
O30 O 0.50981 0.85078 0.08429 0.0
O31 O 0.49364 0.88651 0.0801 0.0
O32 O 0.46654 0.81596 0.01457 0.0
O33 O 0.45742 0.91576 -0.00767 0.0
O34 O 0.45738 0.87421 -0.01261 0.0
C35 C 0.51217 0.87344 0.09607 0.0
C36 C 0.45029 0.87427 0.14664 0.0
O37 O 0.44999 0.85114 0.14034 0.0
O38 O 0.46685 0.88545 0.11429 0.0
C39 C 0.47451 0.79697 0.04446 0.0
O40 O 0.48642 0.79923 0.10234 0.0
C41 C 0.45163 0.89546 0.9632 0.0
Zn42 Zn 0.56927 0.46858 0.54359 0.0
Zn43 Zn 0.61472 0.46824 0.54041 0.0
O44 O 0.60785 0.50264 0.58021 0.0
O45 O 0.56739 0.502 0.58538 0.0
O46 O 0.64919 0.46834 0.51277 0.0
O47 O 0.5614 0.46323 0.44651 0.0
O48 O 0.60066 0.45389 0.45131 0.0
C49 C 0.58755 0.5127 0.59752 0.0
C50 C 0.59328 0.43353 0.63531 0.0
O51 O 0.61292 0.44451 0.61871 0.0
O52 O 0.57304 0.43894 0.60631 0.0
C53 C 0.66821 0.47439 0.54577 0.0
O54 O 0.66618 0.4826 0.60833 0.0
C55 C 0.58024 0.45363 0.41944 0.0
Zn56 Zn 0.01437 0.88931 0.89977 0.0
Zn57 Zn 0.00159 0.84838 0.90987 0.0
O58 O 0.96746 0.86421 0.88946 0.0
O59 O 0.98452 0.89609 0.84062 0.0
O60 O -0.00331 0.81276 0.92877 0.0
O61 O 0.01424 0.90001 -0.00472 0.0
O62 O 0.01947 0.86 -0.00122 0.0
C63 C 0.96554 0.88344 0.8529 0.0
C64 C 0.04286 0.86121 0.81962 0.0
O65 O 0.02261 0.84963 0.82248 0.0
O66 O 0.04743 0.87607 0.86694 0.0
C67 C 0.98332 0.79764 0.89651 0.0
O68 O 0.97022 0.80526 0.84427 0.0
C69 C 0.02143 0.88108 0.02677 0.0
Zn70 Zn 0.56372 0.00654 0.38001 0.0
Zn71 Zn 0.61247 -0.00715 0.42008 0.0
O72 O 0.59542 0.96096 0.39445 0.0
O73 O 0.57932 0.98193 0.31166 0.0
O74 O 0.64701 -0.01628 0.44477 0.0
O75 O 0.57397 0.03186 0.45555 0.0
O76 O 0.59965 0.00722 0.50914 0.0
C77 C 0.58512 0.96132 0.33663 0.0
C78 C 0.59902 0.03721 0.33722 0.0
O79 O 0.6125 0.0179 0.33835 0.0
O80 O 0.58256 0.03928 0.38249 0.0
C81 C 0.66595 -0.00904 0.4133 0.0
O82 O 0.66323 0.00412 0.35788 0.0
C83 C 0.58574 0.02602 0.50905 0.0
Zn84 Zn 0.46462 0.5671 0.91091 0.0
Zn85 Zn 0.46938 0.61117 0.90983 0.0
O86 O 0.50357 0.60005 0.87901 0.0
O87 O 0.49571 0.56144 0.85654 0.0
O88 O 0.47626 0.64498 0.93601 0.0
O89 O 0.46307 0.56094 0.01071 0.0
O90 O 0.45077 0.59886 -0.00615 0.0
C91 C 0.51013 0.57957 0.85385 0.0
C92 C 0.43094 0.59373 0.82258 0.0
O93 O 0.44702 0.61052 0.82704 0.0
O94 O 0.4318 0.57612 0.86455 0.0
C95 C 0.47866 0.66242 0.89444 0.0
O96 O 0.4746 0.65889 0.82937 0.0
C97 C 0.45125 0.57968 0.03051 0.0
Zn98 Zn 0.90014 0.45876 0.41269 0.0
Zn99 Zn 0.85788 0.47076 0.41405 0.0
O100 O 0.87403 0.50414 0.4 0.0
O101 O 0.90521 0.48687 0.34708 0.0
O102 O 0.82345 0.47921 0.43438 0.0
O103 O 0.90479 0.46527 0.51209 0.0
O104 O 0.8678 0.45072 0.49881 0.0
C105 C 0.89254 0.50584 0.36096 0.0
C106 C 0.87422 0.43063 0.32965 0.0
O107 O 0.86184 0.45052 0.32524 0.0
O108 O 0.88377 0.42607 0.3866 0.0
C109 C 0.80443 0.47496 0.39926 0.0
O110 O 0.80658 0.46396 0.34008 0.0
C111 C 0.88719 0.45267 0.53476 0.0
Zn112 Zn 0.96381 0.4223 0.86508 0.0
Zn113 Zn 0.97301 0.35149 0.90506 0.0
O114 O 0.00954 0.36018 0.8781 0.0
O115 O -0.01246 0.39282 0.87061 0.0
O116 O 0.97235 0.31961 0.95214 0.0
O117 O 0.94613 0.41778 0.95541 0.0
O118 O 0.95376 0.37705 0.96851 0.0
C119 C 0.00866 0.3829 0.86504 0.0
C120 C 0.94763 0.37154 0.80928 0.0
O121 O 0.95095 0.34886 0.81999 0.0
O122 O 0.9619 0.38613 0.83989 0.0
C123 C 0.97703 0.30062 0.9172 0.0
O124 O 0.98287 0.30306 0.85284 0.0
C125 C 0.94432 0.39762 -0.01136 0.0
Zn126 Zn 0.05666 0.9687 0.40978 0.0
Zn127 Zn 0.10882 0.97542 0.42895 0.0
O128 O 0.10393 0.00957 0.39392 0.0
O129 O 0.06775 -0.00143 0.35329 0.0
O130 O 0.14306 0.9745 0.4617 0.0
O131 O 0.0708 0.93782 0.45809 0.0
O132 O 0.09098 0.96514 0.51542 0.0
C133 C 0.08562 0.01347 0.35535 0.0
C134 C 0.08993 0.93605 0.33503 0.0
O135 O 0.10639 0.95212 0.34655 0.0
O136 O 0.07038 0.93583 0.37092 0.0
C137 C 0.16234 0.97531 0.42581 0.0
O138 O 0.16045 0.97651 0.35934 0.0
C139 C 0.08112 0.94413 0.51278 0.0
Zn140 Zn 0.50963 0.0624 0.93698 0.0
Zn141 Zn 0.49552 0.11204 0.92188 0.0
O142 O 0.46254 0.10092 0.8867 0.0
O143 O 0.48163 0.06587 0.86522 0.0
O144 O 0.49508 0.14842 0.93102 0.0
O145 O 0.53723 0.08493 0.97774 0.0
O146 O 0.50407 0.10065 0.01965 0.0
C147 C 0.4638 0.0807 0.85452 0.0
C148 C 0.53798 0.08908 0.84708 0.0
O149 O 0.51906 0.10289 0.84239 0.0
O150 O 0.54199 0.07867 0.90385 0.0
C151 C 0.48692 0.16432 0.88951 0.0
O152 O 0.47746 0.1572 0.83126 0.0
C153 C 0.52635 0.09403 0.02841 0.0
Zn154 Zn 0.4114 0.49397 0.38006 0.0
Zn155 Zn 0.35199 0.50005 0.40367 0.0
O156 O 0.36164 0.46663 0.35466 0.0
O157 O 0.4022 0.46 0.3599 0.0
O158 O 0.3172 0.49559 0.43788 0.0
O159 O 0.41344 0.5028 0.47538 0.0
O160 O 0.3734 0.51157 0.48766 0.0
C161 C 0.38064 0.45281 0.34538 0.0
C162 C 0.37232 0.53285 0.3232 0.0
O163 O 0.34988 0.52933 0.3363 0.0
O164 O 0.3876 0.51757 0.34556 0.0
C165 C 0.30006 0.4954 0.39371 0.0
O166 O 0.30595 0.49746 0.32928 0.0
C167 C 0.39569 0.51146 0.51005 0.0
Zn168 Zn 0.95762 0.05616 0.08099 0.0
Zn169 Zn 0.97474 0.1089 0.0264 0.0
O170 O 0.00794 0.0984 0.05847 0.0
O171 O -0.00706 0.06614 0.11216 0.0
O172 O 0.97944 0.14269 -0.00637 0.0
O173 O 0.93592 0.06679 -0.00128 0.0
O174 O 0.96186 0.09067 0.94422 0.0
C175 C 0.01048 0.08086 0.10006 0.0
C176 C 0.93361 0.09744 0.11981 0.0
O177 O 0.95272 0.11032 0.11045 0.0
O178 O 0.92886 0.08115 0.07606 0.0
C179 C 0.9787 0.161 0.03332 0.0
O180 O 0.97427 0.15769 0.09821 0.0
C181 C 0.94295 0.07713 0.94449 0.0
Zn182 Zn 0.39918 0.96387 0.53291 0.0
Zn183 Zn 0.35501 0.96901 0.5474 0.0
O184 O 0.36628 0.0044 0.57077 0.0
O185 O 0.40509 -0.00572 0.58742 0.0
O186 O 0.31994 0.97213 0.52435 0.0
O187 O 0.39989 0.9657 0.43124 0.0
O188 O 0.36537 0.9489 0.46309 0.0
C189 C 0.38774 0.00983 0.59237 0.0
C190 C 0.37779 0.93251 0.63085 0.0
O191 O 0.36099 0.94891 0.63256 0.0
O192 O 0.39066 0.93072 0.57751 0.0
C193 C 0.30091 0.97556 0.56 0.0
O194 O 0.30287 0.97749 0.62632 0.0
C195 C 0.38223 0.95138 0.41907 0.0
Zn196 Zn 0.506 0.39406 0.05018 0.0
Zn197 Zn 0.49515 0.34961 0.03953 0.0
O198 O 0.46109 0.362 0.07097 0.0
O199 O 0.47648 0.39589 0.11415 0.0
O200 O 0.49118 0.31389 0.0186 0.0
O201 O 0.50491 0.40272 0.95244 0.0
O202 O 0.51199 0.36293 0.95288 0.0
C203 C 0.45897 0.38068 0.10964 0.0
C204 C 0.53579 0.36597 0.12856 0.0
O205 O 0.51717 0.35207 0.1232 0.0
O206 O 0.53952 0.38126 0.08182 0.0
C207 C 0.49709 0.29704 0.06013 0.0
O208 O 0.50504 0.30299 0.12102 0.0
C209 C 0.51352 0.38373 0.92366 0.0
Zn210 Zn 0.06086 0.51277 0.55518 0.0
Zn211 Zn 0.1131 0.49303 0.53207 0.0
O212 O 0.10052 0.46026 0.56545 0.0
O213 O 0.06765 0.47973 0.60515 0.0
O214 O 0.149 0.48945 0.51091 0.0
O215 O 0.08145 0.53628 0.4951 0.0
O216 O 0.09681 0.50493 0.44132 0.0
C217 C 0.08171 0.46092 0.60395 0.0
C218 C 0.09969 0.53609 0.61894 0.0
O219 O 0.1112 0.5157 0.61751 0.0
O220 O 0.08608 0.54115 0.56833 0.0
C221 C 0.16537 0.48634 0.55642 0.0
O222 O 0.15861 0.48431 0.62019 0.0
C223 C 0.08761 0.52645 0.43948 0.0
H224 H 0.9704 0.68472 0.96066 0.0
H225 H 0.03079 0.70049 0.09706 0.0
H226 H 0.03035 0.74333 0.06059 0.0
H227 H 0.01331 0.77602 -0.01075 0.0
H228 H 0.95288 0.76074 0.85258 0.0
H229 H 0.95284 0.71786 0.88999 0.0
C230 C 0.98342 0.69755 -0.01745 0.0
C231 C 0.00063 0.68939 0.03146 0.0
C232 C 0.98307 0.72217 0.96127 0.0
C233 C 0.01729 0.70627 0.05959 0.0
C234 C 0.01711 0.73076 0.03856 0.0
C235 C 5e-05 0.76337 0.96762 0.0
C236 C 0.9831 0.77161 0.91816 0.0
C237 C 0.00015 0.73886 -0.01068 0.0
C238 C 0.96617 0.75488 0.89053 0.0
C239 C 0.96611 0.73038 0.91203 0.0
H240 H 0.70956 0.00887 0.36918 0.0
H241 H 0.67754 0.96435 0.52682 0.0
H242 H 0.71771 0.96046 0.5822 0.0
H243 H 0.76208 0.97015 0.58649 0.0
H244 H 0.79373 0.01411 0.42714 0.0
H245 H 0.75355 0.01806 0.37253 0.0
C246 C 0.71138 -0.00182 0.41536 0.0
C247 C 0.6906 -0.01302 0.44373 0.0
C248 C 0.73445 -0.00389 0.44714 0.0
C249 C 0.69327 0.9732 0.5038 0.0
C250 C 0.71622 0.97102 0.53574 0.0
C251 C 0.76007 0.98066 0.54005 0.0
C252 C 0.78078 -0.00828 0.51081 0.0
C253 C 0.73693 0.98255 0.50812 0.0
C254 C 0.77805 0.00522 0.45035 0.0
C255 C 0.75509 0.00751 0.41901 0.0
H256 H 0.50099 0.75566 0.06937 0.0
H257 H 0.44254 0.78505 0.94348 0.0
H258 H 0.4404 0.74647 0.88076 0.0
H259 H 0.45497 0.70426 0.86212 0.0
H260 H 0.51196 0.67419 -0.00897 0.0
H261 H 0.51549 0.71343 0.05098 0.0
C262 C 0.4877 0.75352 0.02853 0.0
C263 C 0.47204 0.77307 0.01083 0.0
C264 C 0.4867 0.73141 -0.00766 0.0
C265 C 0.45492 0.7702 0.95768 0.0
C266 C 0.45372 0.74822 0.92162 0.0
C267 C 0.46846 0.7066 0.90238 0.0
C268 C 0.4834 0.68681 0.92193 0.0
C269 C 0.46967 0.72879 0.93811 0.0
C270 C 0.50046 0.68952 0.97518 0.0
C271 C 0.50232 0.71178 0.0097 0.0
H272 H 0.71178 0.49485 0.58357 0.0
H273 H 0.67807 0.44923 0.42994 0.0
H274 H 0.71677 0.44689 0.36833 0.0
H275 H 0.76032 0.45716 0.35843 0.0
H276 H 0.79452 0.5024 0.51188 0.0
H277 H 0.75548 0.5058 0.57242 0.0
C278 C 0.713 0.48433 0.53685 0.0
C279 C 0.69216 0.47231 0.51145 0.0
C280 C 0.73532 0.48315 0.50113 0.0
C281 C 0.69389 0.4588 0.45053 0.0
C282 C 0.71598 0.45744 0.41504 0.0
C283 C 0.75914 0.46801 0.40458 0.0
C284 C 0.7802 0.47941 0.4306 0.0
C285 C 0.73679 0.4696 0.43973 0.0
C286 C 0.77849 0.49333 0.49083 0.0
C287 C 0.75622 0.49523 0.52573 0.0
H288 H -0.00496 0.25787 0.86712 0.0
H289 H 0.95587 0.28875 0.03813 0.0
H290 H 0.95374 0.24826 0.09077 0.0
H291 H 0.96269 0.20398 0.08748 0.0
H292 H 0.00138 0.17321 0.91553 0.0
H293 H 0.00435 0.21385 0.86439 0.0
C294 C -0.01397 0.25572 0.91585 0.0
C295 C 0.97569 0.27619 0.94872 0.0
C296 C 0.98496 0.23247 0.94588 0.0
C297 C 0.96412 0.27322 0.012 0.0
C298 C 0.96287 0.2501 0.04214 0.0
C299 C 0.97194 0.20626 0.03915 0.0
C300 C 0.98175 0.18575 0.00523 0.0
C301 C 0.97327 0.2296 0.00957 0.0
C302 C -0.00646 0.18881 0.94235 0.0
C303 C -0.00475 0.212 0.91305 0.0
H304 H 0.25545 0.97652 0.61735 0.0
H305 H 0.29254 0.97645 0.42348 0.0
H306 H 0.25303 0.97633 0.36455 0.0
H307 H 0.20782 0.97577 0.36783 0.0
H308 H 0.1709 0.97535 0.562 0.0
H309 H 0.21039 0.97608 0.62058 0.0
C310 C 0.25486 0.9766 0.56229 0.0
C311 C 0.27684 0.97648 0.52515 0.0
C312 C 0.2321 0.97635 0.5285 0.0
C313 C 0.27583 0.97649 0.45357 0.0
C314 C 0.25325 0.9764 0.41961 0.0
C315 C 0.20845 0.97585 0.42289 0.0
C316 C 0.18649 0.97551 0.46028 0.0
C317 C 0.23126 0.97623 0.45657 0.0
C318 C 0.18756 0.97558 0.53177 0.0
C319 C 0.21014 0.97603 0.56553 0.0
H320 H 0.50746 0.18366 0.00277 0.0
H321 H 0.46711 0.20392 0.8217 0.0
H322 H 0.46646 0.24687 0.85914 0.0
H323 H 0.47697 0.27841 0.94435 0.0
H324 H 0.51682 0.25742 0.12571 0.0
H325 H 0.5179 0.21481 0.08711 0.0
C326 C 0.49852 0.19742 0.97125 0.0
C327 C 0.48728 0.19055 0.90954 0.0
C328 C 0.49804 0.22189 -0.00664 0.0
C329 C 0.47591 0.2087 0.86934 0.0
C330 C 0.47547 0.23323 0.89086 0.0
C331 C 0.48584 0.26449 0.97551 0.0
C332 C 0.49674 0.27108 0.03796 0.0
C333 C 0.48637 0.23999 0.95297 0.0
C334 C 0.50814 0.25284 0.07774 0.0
C335 C 0.50886 0.22849 0.05555 0.0
H336 H 0.28135 0.48599 0.51991 0.0
H337 H 0.25965 0.5015 0.31307 0.0
H338 H 0.21634 0.49981 0.34523 0.0
H339 H 0.1846 0.49424 0.43152 0.0
H340 H 0.20555 0.47868 0.63878 0.0
H341 H 0.24915 0.47994 0.60699 0.0
C342 C 0.26714 0.48896 0.4819 0.0
C343 C 0.2738 0.49384 0.41412 0.0
C344 C 0.24213 0.4879 0.50077 0.0
C345 C 0.25512 0.49761 0.36549 0.0
C346 C 0.2303 0.49669 0.38385 0.0
C347 C 0.19866 0.49102 0.46984 0.0
C348 C 0.19179 0.48635 0.53744 0.0
C349 C 0.22361 0.49186 0.45124 0.0
C350 C 0.21031 0.48231 0.58638 0.0
C351 C 0.23526 0.48305 0.56821 0.0
H352 H 0.07222 0.58792 0.89608 0.0
H353 H -0.00042 0.56841 0.82512 0.0
H354 H 0.01749 0.54847 0.72543 0.0
H355 H 0.05331 0.53629 0.66016 0.0
H356 H 0.12634 0.55739 0.72338 0.0
H357 H 0.10889 0.5769 0.826 0.0
C358 C 0.06042 0.5798 0.85766 0.0
C359 C 0.03467 0.57992 0.86671 0.0
C360 C 0.0709 0.56846 0.80038 0.0
C361 C 0.01938 0.56906 0.81787 0.0
C362 C 0.02963 0.55735 0.76163 0.0
C363 C 0.06546 0.54519 0.69635 0.0
C364 C 0.09097 0.54565 0.68449 0.0
C365 C 0.05528 0.55685 0.7528 0.0
C366 C 0.10663 0.55682 0.73199 0.0
C367 C 0.09662 0.56812 0.79 0.0
H368 H 0.88854 0.0862 0.16861 0.0
H369 H 0.96519 0.09189 0.22568 0.0
H370 H 0.95744 0.06874 0.329 0.0
H371 H 0.92994 0.04369 0.39739 0.0
H372 H 0.85339 0.03648 0.34141 0.0
H373 H 0.85982 0.06373 0.24365 0.0
C374 C 0.90325 0.08309 0.20512 0.0
C375 C 0.92727 0.091 0.1901 0.0
C376 C 0.89876 0.06919 0.26382 0.0
C377 C 0.94642 0.08654 0.23686 0.0
C378 C 0.9421 0.07291 0.29541 0.0
C379 C 0.91463 0.04816 0.36386 0.0
C380 C 0.89134 0.03792 0.37568 0.0
C381 C 0.91853 0.0636 0.30829 0.0
C382 C 0.87161 0.0438 0.3322 0.0
C383 C 0.87525 0.05953 0.27689 0.0
H384 H 0.45613 0.92736 0.86224 0.0
H385 H 0.41145 0.86734 0.93107 0.0
H386 H 0.38263 0.87394 0.83585 0.0
H387 H 0.37046 0.89769 0.73132 0.0
H388 H 0.41685 0.95746 0.66786 0.0
H389 H 0.44462 0.95021 0.76224 0.0
C390 C 0.44017 0.91562 0.85596 0.0
C391 C 0.43588 0.89692 0.90263 0.0
C392 C 0.4239 0.91964 0.80215 0.0
C393 C 0.41522 0.88168 0.89452 0.0
C394 C 0.39865 0.88562 0.84065 0.0
C395 C 0.38648 0.90917 0.73925 0.0
C396 C 0.39166 0.92819 0.69345 0.0
C397 C 0.40274 0.90472 0.79409 0.0
C398 C 0.41253 0.94289 0.70315 0.0
C399 C 0.42851 0.93867 0.75673 0.0
H400 H 0.58155 0.37678 0.1781 0.0
H401 H 0.504 0.3774 0.22647 0.0
H402 H 0.51067 0.40795 0.31398 0.0
H403 H 0.53756 0.43639 0.371 0.0
H404 H 0.61618 0.43315 0.33769 0.0
H405 H 0.61019 0.40177 0.24944 0.0
C406 C 0.56643 0.38281 0.2102 0.0
C407 C 0.54235 0.37475 0.19638 0.0
C408 C 0.57047 0.40039 0.26139 0.0
C409 C 0.52274 0.38291 0.23724 0.0
C410 C 0.52645 0.40083 0.28627 0.0
C411 C 0.55346 0.4291 0.3441 0.0
C412 C 0.57718 0.43748 0.35982 0.0
C413 C 0.55007 0.41019 0.29726 0.0
C414 C 0.59761 0.42732 0.32549 0.0
C415 C 0.59424 0.40916 0.27579 0.0
H416 H 0.07108 0.8909 0.31341 0.0
H417 H 0.10581 0.95162 0.21193 0.0
H418 H 0.08806 0.93851 0.10386 0.0
H419 H 0.05644 0.91474 0.0442 0.0
H420 H 0.02139 0.85387 0.14387 0.0
H421 H 0.04538 0.8621 0.24751 0.0
C422 C 0.07555 0.9006 0.26701 0.0
C423 C 0.0893 0.92238 0.27055 0.0
C424 C 0.06453 0.89345 0.20563 0.0
C425 C 0.0953 0.93477 0.21037 0.0
C426 C 0.08474 0.92756 0.1488 0.0
C427 C 0.05415 0.90324 0.08867 0.0
C428 C 0.03665 0.88432 0.08789 0.0
C429 C 0.06821 0.90784 0.14692 0.0
C430 C 0.03442 0.86887 0.14436 0.0
C431 C 0.04819 0.87351 0.2032 0.0
H432 H 0.56248 0.10531 0.7339 0.0
H433 H 0.52957 0.04159 0.82563 0.0
H434 H 0.54332 0.01592 0.73174 0.0
H435 H 0.56516 0.01115 0.62437 0.0
H436 H 0.59591 0.07438 0.52598 0.0
H437 H 0.58347 0.1006 0.62192 0.0
C438 C 0.55843 0.08583 0.73281 0.0
C439 C 0.54558 0.07515 0.78682 0.0
C440 C 0.56652 0.07103 0.67833 0.0
C441 C 0.53995 0.05 0.78495 0.0
C442 C 0.54779 0.0353 0.73142 0.0
C443 C 0.56955 0.03058 0.62499 0.0
C444 C 0.58195 0.04087 0.57005 0.0
C445 C 0.56141 0.0455 0.67847 0.0
C446 C 0.58682 0.06617 0.56922 0.0
C447 C 0.57949 0.08113 0.62353 0.0
H448 H 0.35939 0.54687 0.19621 0.0
H449 H 0.4086 0.56258 0.36251 0.0
H450 H 0.4385 0.58021 0.28483 0.0
H451 H 0.45366 0.58397 0.16747 0.0
H452 H 0.40474 0.5681 0.00073 0.0
H453 H 0.37161 0.5579 0.07977 0.0
C454 C 0.37601 0.55548 0.21542 0.0
C455 C 0.38202 0.55339 0.28426 0.0
C456 C 0.3935 0.56482 0.16999 0.0
C457 C 0.40373 0.56419 0.30923 0.0
C458 C 0.42103 0.57382 0.26477 0.0
C459 C 0.43558 0.57866 0.14905 0.0
C460 C 0.43144 0.57634 0.07936 0.0
C461 C 0.41668 0.57299 0.19476 0.0
C462 C 0.40808 0.56968 0.05487 0.0
C463 C 0.38919 0.56396 0.09985 0.0
H464 H 0.9396 0.36465 0.6767 0.0
H465 H 0.91127 0.40133 0.85419 0.0
H466 H 0.88596 0.42848 0.78319 0.0
H467 H 0.87864 0.4468 0.66991 0.0
H468 H 0.91122 0.41255 0.49396 0.0
H469 H 0.92808 0.37951 0.56376 0.0
C470 C 0.92709 0.37798 0.69938 0.0
C471 C 0.92709 0.38127 0.76966 0.0
C472 C 0.91388 0.39437 0.65816 0.0
C473 C 0.91132 0.39872 0.79961 0.0
C474 C 0.8971 0.41435 0.75911 0.0
C475 C 0.889 0.43177 0.64733 0.0
C476 C 0.89393 0.4319 0.57771 0.0
C477 C 0.8993 0.41323 0.68825 0.0
C478 C 0.90736 0.41257 0.54792 0.0
C479 C 0.917 0.39373 0.58768 0.0
H480 H 0.95686 0.41366 0.11204 0.0
H481 H 0.89676 0.38291 -0.0021 0.0
H482 H 0.86861 0.38986 0.09398 0.0
H483 H 0.86085 0.40794 0.20923 0.0
H484 H 0.92263 0.4375 0.32072 0.0
H485 H 0.95021 0.42793 0.22784 0.0
C486 C 0.93769 0.40811 0.10905 0.0
C487 C 0.92871 0.39783 0.04906 0.0
C488 C 0.92183 0.41229 0.16389 0.0
C489 C 0.9039 0.39073 0.04458 0.0
C490 C 0.88784 0.39488 0.09915 0.0
C491 C 0.88034 0.41213 0.21274 0.0
C492 C 0.88966 0.42357 0.27136 0.0
C493 C 0.89647 0.40621 0.15878 0.0
C494 C 0.915 0.42875 0.27597 0.0
C495 C 0.93088 0.42326 0.22293 0.0
H496 H 0.02252 0.89581 0.7475 0.0
H497 H 0.08459 0.84608 0.74972 0.0
H498 H 0.10303 0.8683 0.65329 0.0
H499 H 0.10165 0.9038 0.57224 0.0
H500 H 0.04177 0.95612 0.58664 0.0
H501 H 0.02248 0.9316 0.67521 0.0
C502 C 0.03981 0.8895 0.72559 0.0
C503 C 0.05185 0.86902 0.75332 0.0
C504 C 0.05096 0.90343 0.67523 0.0
C505 C 0.0747 0.86139 0.7271 0.0
C506 C 0.08536 0.87436 0.6731 0.0
C507 C 0.08466 0.9099 0.59614 0.0
C508 C 0.0731 0.93173 0.5743 0.0
C509 C 0.07385 0.89578 0.64777 0.0
C510 C 0.051 0.93956 0.60411 0.0
C511 C 0.03987 0.92541 0.65383 0.0
H512 H 0.55651 0.03022 0.27563 0.0
H513 H 0.62503 0.06905 0.25446 0.0
H514 H 0.6075 0.09222 0.1577 0.0
H515 H 0.57153 0.10183 0.08234 0.0
H516 H 0.50222 0.06557 0.11722 0.0
H517 H 0.52089 0.04144 0.20837 0.0
C518 C 0.56772 0.04365 0.24956 0.0
C519 C 0.59196 0.04796 0.27154 0.0
C520 C 0.55705 0.05779 0.19838 0.0
C521 C 0.60641 0.06528 0.23753 0.0
C522 C 0.59623 0.07873 0.18323 0.0
C523 C 0.56045 0.08922 0.11172 0.0
C524 C 0.53545 0.08577 0.09457 0.0
C525 C 0.57135 0.07547 0.16432 0.0
C526 C 0.52124 0.06902 0.13125 0.0
C527 C 0.53203 0.0549 0.18223 0.0
H528 H 0.37243 0.55055 0.57389 0.0
H529 H 0.43539 0.50143 0.58657 0.0
H530 H 0.45389 0.52709 0.67262 0.0
H531 H 0.45279 0.56252 0.74432 0.0
H532 H 0.38767 0.608 0.75542 0.0
H533 H 0.36984 0.58585 0.65711 0.0
C534 C 0.38987 0.54525 0.59688 0.0
C535 C 0.40262 0.52419 0.57331 0.0
C536 C 0.40038 0.55996 0.64839 0.0
C537 C 0.42528 0.5176 0.60324 0.0
C538 C 0.43605 0.53238 0.652 0.0
C539 C 0.43481 0.56785 0.72434 0.0
C540 C 0.42163 0.58685 0.75559 0.0
C541 C 0.42397 0.55364 0.67405 0.0
C542 C 0.39826 0.5936 0.73076 0.0
C543 C 0.38796 0.58062 0.67569 0.0
H544 H 0.90522 0.01467 0.70194 0.0
H545 H 0.86332 0.08006 0.65669 0.0
H546 H 0.88006 0.10006 0.75967 0.0
H547 H 0.9094 0.09892 0.85904 0.0
H548 H 0.95321 0.03353 0.8922 0.0
H549 H 0.93354 0.01348 0.79584 0.0
C550 C 0.89938 0.03314 0.7154 0.0
C551 C 0.88294 0.04582 0.67326 0.0
C552 C 0.91006 0.04461 0.77116 0.0
C553 C 0.87574 0.06992 0.68967 0.0
C554 C 0.88555 0.08136 0.7478 0.0
C555 C 0.91472 0.08045 0.84398 0.0
C556 C 0.93286 0.06761 0.88121 0.0
C557 C 0.90328 0.06902 0.78803 0.0
C558 C 0.93951 0.04363 0.86306 0.0
C559 C 0.92814 0.03214 0.80865 0.0
H560 H 0.38909 0.95695 0.28473 0.0
H561 H 0.38552 0.90292 0.44372 0.0
H562 H 0.40361 0.87185 0.36859 0.0
H563 H 0.42672 0.86246 0.26346 0.0
H564 H 0.43036 0.91718 0.10588 0.0
H565 H 0.40519 0.94527 0.17294 0.0
C566 C 0.39151 0.93813 0.3017 0.0
C567 C 0.38612 0.93202 0.36882 0.0
C568 C 0.40208 0.92056 0.25854 0.0
C569 C 0.38938 0.90775 0.39146 0.0
C570 C 0.39992 0.89009 0.34884 0.0
C571 C 0.42141 0.8803 0.24353 0.0
C572 C 0.43089 0.8882 0.18128 0.0
C573 C 0.40727 0.89658 0.2831 0.0
C574 C 0.42383 0.91116 0.15495 0.0
C575 C 0.40939 0.92719 0.19309 0.0
H576 H 0.54687 0.41948 0.91053 0.0
H577 H 0.52109 0.35302 0.8155 0.0
H578 H 0.55022 0.35886 0.72166 0.0
H579 H 0.57692 0.38745 0.65806 0.0
H580 H 0.60392 0.45255 0.75731 0.0
H581 H 0.58102 0.44231 0.85978 0.0
C582 C 0.54754 0.40637 0.86897 0.0
C583 C 0.53097 0.38664 0.86731 0.0
C584 C 0.56477 0.40944 0.81695 0.0
C585 C 0.53301 0.3689 0.81582 0.0
C586 C 0.54981 0.3721 0.76282 0.0
C587 C 0.57876 0.39859 0.70351 0.0
C588 C 0.59163 0.42082 0.7004 0.0
C589 C 0.56507 0.39284 0.76161 0.0
C590 C 0.59415 0.43525 0.75911 0.0
C591 C 0.58062 0.4297 0.81712 0.0
H592 H 0.10893 0.54635 0.32657 0.0
H593 H 0.03907 0.53069 0.42064 0.0
H594 H 0.01743 0.55463 0.33428 0.0
H595 H 0.01804 0.57869 0.23009 0.0
H596 H 0.08668 0.59103 0.1267 0.0
H597 H 0.1094 0.5709 0.21964 0.0
C598 C 0.08897 0.54779 0.3268 0.0
C599 C 0.07548 0.53643 0.37868 0.0
C600 C 0.07659 0.56176 0.27678 0.0
C601 C 0.04967 0.53892 0.38009 0.0
C602 C 0.03734 0.55289 0.33144 0.0
C603 C 0.03806 0.5777 0.22928 0.0
C604 C 0.05083 0.58676 0.17303 0.0
C605 C 0.05059 0.56449 0.27984 0.0
C606 C 0.07665 0.58464 0.17072 0.0
C607 C 0.08952 0.57272 0.2231 0.0
H608 H 0.87453 0.53298 0.25646 0.0
H609 H 0.93138 0.53022 0.40962 0.0
H610 H 0.95537 0.56058 0.34777 0.0
H611 H 0.9644 0.57921 0.23821 0.0
H612 H 0.90968 0.57973 0.07938 0.0
H613 H 0.88008 0.55984 0.15552 0.0
C614 C 0.89163 0.53999 0.27738 0.0
C615 C 0.9014 0.52959 0.33704 0.0
C616 C 0.90577 0.55675 0.23986 0.0
C617 C 0.92366 0.53824 0.36383 0.0
C618 C 0.93743 0.5554 0.32819 0.0
C619 C 0.94564 0.57576 0.22134 0.0
C620 C 0.93917 0.58035 0.15354 0.0
C621 C 0.92934 0.56354 0.26433 0.0
C622 C 0.91493 0.57618 0.1316 0.0
C623 C 0.89817 0.56457 0.17491 0.0
H624 H 0.89029 0.96016 0.75239 0.0
H625 H 0.88381 0.90854 0.58743 0.0
H626 H 0.9054 0.87721 0.65524 0.0
H627 H 0.93517 0.86881 0.74966 0.0
H628 H 0.9437 0.92262 0.90857 0.0
H629 H 0.9125 0.94883 0.85556 0.0
C630 C 0.89286 0.94175 0.73219 0.0
C631 C 0.88601 0.93678 0.6646 0.0
C632 C 0.90627 0.92444 0.77015 0.0
C633 C 0.88903 0.91283 0.63922 0.0
C634 C 0.90171 0.89504 0.67775 0.0
C635 C 0.92927 0.88576 0.7739 0.0
C636 C 0.94149 0.89386 0.83295 0.0
C637 C 0.91179 0.90119 0.74154 0.0
C638 C 0.93427 0.91605 0.8635 0.0
C639 C 0.91659 0.93111 0.83287 0.0
H640 H 0.50199 0.90212 0.20107 0.0
H641 H 0.56279 0.86625 0.1 0.0
H642 H 0.59206 0.88788 0.17505 0.0
H643 H 0.59966 0.9218 0.25923 0.0
H644 H 0.53731 0.95579 0.3586 0.0
H645 H 0.50909 0.92994 0.29463 0.0
C646 C 0.52167 0.89887 0.19564 0.0
C647 C 0.5304 0.88326 0.14422 0.0
C648 C 0.53797 0.91106 0.23874 0.0
C649 C 0.5558 0.87855 0.13889 0.0
C650 C 0.57243 0.89091 0.18169 0.0
C651 C 0.57996 0.92273 0.26836 0.0
C652 C 0.57039 0.94049 0.31341 0.0
C653 C 0.56371 0.90784 0.23054 0.0
C654 C 0.54489 0.94201 0.32454 0.0
C655 C 0.52879 0.92745 0.28752 0.0
H656 H 0.56781 0.55865 0.59247 0.0
H657 H 0.60416 0.50669 0.72428 0.0
H658 H 0.58563 0.52625 0.8235 0.0
H659 H 0.55092 0.55112 0.86739 0.0
H660 H 0.51578 0.60432 0.73695 0.0
H661 H 0.54246 0.59195 0.64268 0.0
C662 C 0.57275 0.55261 0.64322 0.0
C663 C 0.58712 0.5313 0.65141 0.0
C664 C 0.56182 0.56386 0.70007 0.0
C665 C 0.59332 0.52331 0.71713 0.0
C666 C 0.58238 0.53422 0.77383 0.0
C667 C 0.54994 0.56064 0.81909 0.0
C668 C 0.5314 0.57824 0.80824 0.0
C669 C 0.56536 0.55346 0.76533 0.0
C670 C 0.53008 0.59066 0.74591 0.0
C671 C 0.54516 0.58346 0.69192 0.0
H672 H 0.06722 0.46703 0.73185 0.0
H673 H 0.08418 0.41045 0.58574 0.0
H674 H 0.06691 0.37929 0.66247 0.0
H675 H 0.04032 0.36991 0.76287 0.0
H676 H 0.02167 0.42832 0.90223 0.0
H677 H 0.0466 0.45699 0.83745 0.0
C678 C 0.06747 0.44779 0.7172 0.0
C679 C 0.07637 0.44104 0.65283 0.0
C680 C 0.05712 0.43038 0.76061 0.0
C681 C 0.07721 0.41606 0.63492 0.0
C682 C 0.06721 0.39832 0.67868 0.0
C683 C 0.04257 0.3887 0.78009 0.0
C684 C 0.02929 0.39711 0.83716 0.0
C685 C 0.05618 0.40544 0.74055 0.0
C686 C 0.03183 0.42154 0.8586 0.0
C687 C 0.0459 0.43796 0.82127 0.0
H688 H 0.05385 0.05637 0.08588 0.0
H689 H 0.01247 0.10333 0.22065 0.0
H690 H 0.03841 0.09081 0.31624 0.0
H691 H 0.06486 0.05834 0.36416 0.0
H692 H 0.10515 0.01016 0.23042 0.0
H693 H 0.08862 0.0318 0.13144 0.0
C694 C 0.05143 0.06466 0.13559 0.0
C695 C 0.0314 0.08051 0.14701 0.0
C696 C 0.0661 0.05692 0.19056 0.0
C697 C 0.02797 0.09109 0.21135 0.0
C698 C 0.04264 0.08379 0.26603 0.0
C699 C 0.07103 0.05359 0.31339 0.0
C700 C 0.086 0.03282 0.30399 0.0
C701 C 0.06069 0.06555 0.25692 0.0
C702 C 0.09375 0.02635 0.23832 0.0
C703 C 0.08399 0.03846 0.18175 0.0
H704 H 0.42764 0.03786 0.58132 0.0
H705 H 0.35969 0.03148 0.69219 0.0
H706 H 0.37612 0.05801 0.7824 0.0
H707 H 0.4136 0.07462 0.84056 0.0
H708 H 0.48204 0.0771 0.72966 0.0
H709 H 0.46188 0.06065 0.62903 0.0
C710 C 0.41613 0.04306 0.6241 0.0
C711 C 0.39273 0.03257 0.63077 0.0
C712 C 0.42614 0.05715 0.67677 0.0
C713 C 0.3778 0.03946 0.68598 0.0
C714 C 0.38736 0.0543 0.73808 0.0
C715 C 0.42372 0.07227 0.79355 0.0
C716 C 0.44924 0.07676 0.79232 0.0
C717 C 0.41208 0.062 0.73591 0.0
C718 C 0.46238 0.07355 0.73154 0.0
C719 C 0.4509 0.06411 0.67405 0.0
H720 H 0.41216 0.39872 0.09348 0.0
H721 H 0.46221 0.36731 0.24028 0.0
H722 H 0.43589 0.38136 0.33297 0.0
H723 H 0.4045 0.41059 0.37086 0.0
H724 H 0.35645 0.44541 0.2252 0.0
H725 H 0.37444 0.42047 0.1341 0.0
C726 C 0.41663 0.39413 0.14566 0.0
C727 C 0.43912 0.3823 0.16042 0.0
C728 C 0.40152 0.40273 0.19901 0.0
C729 C 0.44505 0.37662 0.22808 0.0
C730 C 0.43 0.38463 0.28109 0.0
C731 C 0.39713 0.41175 0.31963 0.0
C732 C 0.37968 0.43016 0.30429 0.0
C733 C 0.40892 0.39883 0.26717 0.0
C734 C 0.36997 0.43143 0.23819 0.0
C735 C 0.38072 0.41756 0.18577 0.0
loop_
_geom_bond_atom_site_label_1
_geom_bond_atom_site_label_2
_geom_bond_distance
_geom_bond_site_symmetry_2
_ccdc_geom_bond_type
Zn0 O3 2.031 1_455 S
Zn0 O5 2.049 1_554 S
Zn0 O10 2.067 . S
Zn1 O2 1.962 1_455 S
Zn1 O4 1.986 . S
Zn1 O6 1.996 1_554 S
Zn1 O9 1.943 . S
O2 Zn1 1.962 1_655 S
O2 C7 1.254 . S
O3 Zn0 2.031 1_655 S
O3 C7 1.269 . S
O4 Zn1 1.986 . S
O4 C11 1.262 . S
O5 Zn0 2.049 1_556 S
O5 C13 1.260 . S
O6 Zn1 1.996 1_556 S
O6 C13 1.257 . S
C7 O2 1.254 . S
C7 O3 1.269 . S
C8 O9 1.249 . S
C8 O10 1.270 . S
O9 Zn1 1.943 . S
O9 C8 1.249 . S
O10 Zn0 2.067 . S
O10 C8 1.270 . S
C11 O4 1.262 . S
C11 O12 1.232 . S
O12 C11 1.232 . S
C13 O5 1.260 . S
C13 O6 1.257 . S
Zn14 O17 2.031 1_545 S
Zn14 O19 2.049 . S
Zn14 O24 2.067 . S
Zn15 O16 1.962 1_545 S
Zn15 O18 1.986 . S
Zn15 O20 1.996 . S
Zn15 O23 1.943 . S
O16 Zn15 1.962 1_565 S
O16 C21 1.254 . S
O17 Zn14 2.031 1_565 S
O17 C21 1.269 . S
O18 Zn15 1.986 . S
O18 C25 1.262 . S
O19 Zn14 2.049 . S
O19 C27 1.260 . S
O20 Zn15 1.996 . S
O20 C27 1.257 . S
C21 O16 1.254 . S
C21 O17 1.269 . S
C22 O23 1.249 . S
C22 O24 1.270 . S
O23 Zn15 1.943 . S
O23 C22 1.249 . S
O24 Zn14 2.067 . S
O24 C22 1.270 . S
C25 O18 1.262 . S
C25 O26 1.232 . S
O26 C25 1.232 . S
C27 O19 1.260 . S
C27 O20 1.257 . S
Zn28 O31 2.031 . S
Zn28 O33 2.049 1_554 S
Zn28 O38 2.067 . S
Zn29 O30 1.962 . S
Zn29 O32 1.986 . S
Zn29 O34 1.996 1_554 S
Zn29 O37 1.943 . S
O30 Zn29 1.962 . S
O30 C35 1.254 . S
O31 Zn28 2.031 . S
O31 C35 1.269 . S
O32 Zn29 1.986 . S
O32 C39 1.262 . S
O33 Zn28 2.049 1_556 S
O33 C41 1.260 . S
O34 Zn29 1.996 1_556 S
O34 C41 1.257 . S
C35 O30 1.254 . S
C35 O31 1.269 . S
C36 O37 1.249 . S
C36 O38 1.270 . S
O37 Zn29 1.943 . S
O37 C36 1.249 . S
O38 Zn28 2.067 . S
O38 C36 1.270 . S
C39 O32 1.262 . S
C39 O40 1.232 . S
O40 C39 1.232 . S
C41 O33 1.260 . S
C41 O34 1.257 . S
Zn42 O45 2.031 . S
Zn42 O47 2.049 . S
Zn42 O52 2.067 . S
Zn43 O44 1.962 . S
Zn43 O46 1.986 . S
Zn43 O48 1.996 . S
Zn43 O51 1.943 . S
O44 Zn43 1.962 . S
O44 C49 1.254 . S
O45 Zn42 2.031 . S
O45 C49 1.269 . S
O46 Zn43 1.986 . S
O46 C53 1.262 . S
O47 Zn42 2.049 . S
O47 C55 1.260 . S
O48 Zn43 1.996 . S
O48 C55 1.257 . S
C49 O44 1.254 . S
C49 O45 1.269 . S
C50 O51 1.249 . S
C50 O52 1.270 . S
O51 Zn43 1.943 . S
O51 C50 1.249 . S
O52 Zn42 2.067 . S
O52 C50 1.270 . S
C53 O46 1.262 . S
C53 O54 1.232 . S
O54 C53 1.232 . S
C55 O47 1.260 . S
C55 O48 1.257 . S
Zn56 O59 2.031 1_455 S
Zn56 O61 2.049 1_556 S
Zn56 O66 2.067 . S
Zn57 O58 1.962 1_455 S
Zn57 O60 1.986 . S
Zn57 O62 1.996 1_556 S
Zn57 O65 1.943 . S
O58 Zn57 1.962 1_655 S
O58 C63 1.254 . S
O59 Zn56 2.031 1_655 S
O59 C63 1.269 . S
O60 Zn57 1.986 . S
O60 C67 1.262 . S
O61 Zn56 2.049 1_554 S
O61 C69 1.260 . S
O62 Zn57 1.996 1_554 S
O62 C69 1.257 . S
C63 O58 1.254 . S
C63 O59 1.269 . S
C64 O65 1.249 . S
C64 O66 1.270 . S
O65 Zn57 1.943 . S
O65 C64 1.249 . S
O66 Zn56 2.067 . S
O66 C64 1.270 . S
C67 O60 1.262 . S
C67 O68 1.232 . S
O68 C67 1.232 . S
C69 O61 1.260 . S
C69 O62 1.257 . S
Zn70 O73 2.031 1_545 S
Zn70 O75 2.049 . S
Zn70 O80 2.067 . S
Zn71 O72 1.962 1_545 S
Zn71 O74 1.986 . S
Zn71 O76 1.996 . S
Zn71 O79 1.943 . S
O72 Zn71 1.962 1_565 S
O72 C77 1.254 . S
O73 Zn70 2.031 1_565 S
O73 C77 1.269 . S
O74 Zn71 1.986 . S
O74 C81 1.262 . S
O75 Zn70 2.049 . S
O75 C83 1.260 . S
O76 Zn71 1.996 . S
O76 C83 1.257 . S
C77 O72 1.254 . S
C77 O73 1.269 . S
C78 O79 1.249 . S
C78 O80 1.270 . S
O79 Zn71 1.943 . S
O79 C78 1.249 . S
O80 Zn70 2.067 . S
O80 C78 1.270 . S
C81 O74 1.262 . S
C81 O82 1.232 . S
O82 C81 1.232 . S
C83 O75 1.260 . S
C83 O76 1.257 . S
Zn84 O87 2.031 . S
Zn84 O89 2.049 1_556 S
Zn84 O94 2.067 . S
Zn85 O86 1.962 . S
Zn85 O88 1.986 . S
Zn85 O90 1.996 1_556 S
Zn85 O93 1.943 . S
O86 Zn85 1.962 . S
O86 C91 1.254 . S
O87 Zn84 2.031 . S
O87 C91 1.269 . S
O88 Zn85 1.986 . S
O88 C95 1.262 . S
O89 Zn84 2.049 1_554 S
O89 C97 1.260 . S
O90 Zn85 1.996 1_554 S
O90 C97 1.257 . S
C91 O86 1.254 . S
C91 O87 1.269 . S
C92 O93 1.249 . S
C92 O94 1.270 . S
O93 Zn85 1.943 . S
O93 C92 1.249 . S
O94 Zn84 2.067 . S
O94 C92 1.270 . S
C95 O88 1.262 . S
C95 O96 1.232 . S
O96 C95 1.232 . S
C97 O89 1.260 . S
C97 O90 1.257 . S
Zn98 O101 2.031 . S
Zn98 O103 2.049 . S
Zn98 O108 2.067 . S
Zn99 O100 1.962 . S
Zn99 O102 1.986 . S
Zn99 O104 1.996 . S
Zn99 O107 1.943 . S
O100 Zn99 1.962 . S
O100 C105 1.254 . S
O101 Zn98 2.031 . S
O101 C105 1.269 . S
O102 Zn99 1.986 . S
O102 C109 1.262 . S
O103 Zn98 2.049 . S
O103 C111 1.260 . S
O104 Zn99 1.996 . S
O104 C111 1.257 . S
C105 O100 1.254 . S
C105 O101 1.269 . S
C106 O107 1.249 . S
C106 O108 1.270 . S
O107 Zn99 1.943 . S
O107 C106 1.249 . S
O108 Zn98 2.067 . S
O108 C106 1.270 . S
C109 O102 1.262 . S
C109 O110 1.232 . S
O110 C109 1.232 . S
C111 O103 1.260 . S
C111 O104 1.257 . S
Zn112 O115 2.031 1_655 S
Zn112 O117 2.049 1_556 S
Zn112 O122 2.067 . S
Zn113 O114 1.962 1_655 S
Zn113 O116 1.986 . S
Zn113 O118 1.996 1_556 S
Zn113 O121 1.943 . S
O114 Zn113 1.962 1_455 S
O114 C119 1.254 . S
O115 Zn112 2.031 1_455 S
O115 C119 1.269 . S
O116 Zn113 1.986 . S
O116 C123 1.262 . S
O117 Zn112 2.049 1_554 S
O117 C125 1.260 . S
O118 Zn113 1.996 1_554 S
O118 C125 1.257 . S
C119 O114 1.254 . S
C119 O115 1.269 . S
C120 O121 1.249 . S
C120 O122 1.270 . S
O121 Zn113 1.943 . S
O121 C120 1.249 . S
O122 Zn112 2.067 . S
O122 C120 1.270 . S
C123 O116 1.262 . S
C123 O124 1.232 . S
O124 C123 1.232 . S
C125 O117 1.260 . S
C125 O118 1.257 . S
Zn126 O129 2.031 1_565 S
Zn126 O131 2.049 . S
Zn126 O136 2.067 . S
Zn127 O128 1.962 1_565 S
Zn127 O130 1.986 . S
Zn127 O132 1.996 . S
Zn127 O135 1.943 . S
O128 Zn127 1.962 1_545 S
O128 C133 1.254 . S
O129 Zn126 2.031 1_545 S
O129 C133 1.269 . S
O130 Zn127 1.986 . S
O130 C137 1.262 . S
O131 Zn126 2.049 . S
O131 C139 1.260 . S
O132 Zn127 1.996 . S
O132 C139 1.257 . S
C133 O128 1.254 . S
C133 O129 1.269 . S
C134 O135 1.249 . S
C134 O136 1.270 . S
O135 Zn127 1.943 . S
O135 C134 1.249 . S
O136 Zn126 2.067 . S
O136 C134 1.270 . S
C137 O130 1.262 . S
C137 O138 1.232 . S
O138 C137 1.232 . S
C139 O131 1.260 . S
C139 O132 1.257 . S
Zn140 O143 2.031 . S
Zn140 O145 2.049 1_556 S
Zn140 O150 2.067 . S
Zn141 O142 1.962 . S
Zn141 O144 1.986 . S
Zn141 O146 1.996 1_556 S
Zn141 O149 1.943 . S
O142 Zn141 1.962 . S
O142 C147 1.254 . S
O143 Zn140 2.031 . S
O143 C147 1.269 . S
O144 Zn141 1.986 . S
O144 C151 1.262 . S
O145 Zn140 2.049 1_554 S
O145 C153 1.260 . S
O146 Zn141 1.996 1_554 S
O146 C153 1.257 . S
C147 O142 1.254 . S
C147 O143 1.269 . S
C148 O149 1.249 . S
C148 O150 1.270 . S
O149 Zn141 1.943 . S
O149 C148 1.249 . S
O150 Zn140 2.067 . S
O150 C148 1.270 . S
C151 O144 1.262 . S
C151 O152 1.232 . S
O152 C151 1.232 . S
C153 O145 1.260 . S
C153 O146 1.257 . S
Zn154 O157 2.031 . S
Zn154 O159 2.049 . S
Zn154 O164 2.067 . S
Zn155 O156 1.962 . S
Zn155 O158 1.986 . S
Zn155 O160 1.996 . S
Zn155 O163 1.943 . S
O156 Zn155 1.962 . S
O156 C161 1.254 . S
O157 Zn154 2.031 . S
O157 C161 1.269 . S
O158 Zn155 1.986 . S
O158 C165 1.262 . S
O159 Zn154 2.049 . S
O159 C167 1.260 . S
O160 Zn155 1.996 . S
O160 C167 1.257 . S
C161 O156 1.254 . S
C161 O157 1.269 . S
C162 O163 1.249 . S
C162 O164 1.270 . S
O163 Zn155 1.943 . S
O163 C162 1.249 . S
O164 Zn154 2.067 . S
O164 C162 1.270 . S
C165 O158 1.262 . S
C165 O166 1.232 . S
O166 C165 1.232 . S
C167 O159 1.260 . S
C167 O160 1.257 . S
Zn168 O171 2.031 1_655 S
Zn168 O173 2.049 1_554 S
Zn168 O178 2.067 . S
Zn169 O170 1.962 1_655 S
Zn169 O172 1.986 . S
Zn169 O174 1.996 1_554 S
Zn169 O177 1.943 . S
O170 Zn169 1.962 1_455 S
O170 C175 1.254 . S
O171 Zn168 2.031 1_455 S
O171 C175 1.269 . S
O172 Zn169 1.986 . S
O172 C179 1.262 . S
O173 Zn168 2.049 1_556 S
O173 C181 1.260 . S
O174 Zn169 1.996 1_556 S
O174 C181 1.257 . S
C175 O170 1.254 . S
C175 O171 1.269 . S
C176 O177 1.249 . S
C176 O178 1.270 . S
O177 Zn169 1.943 . S
O177 C176 1.249 . S
O178 Zn168 2.067 . S
O178 C176 1.270 . S
C179 O172 1.262 . S
C179 O180 1.232 . S
O180 C179 1.232 . S
C181 O173 1.260 . S
C181 O174 1.257 . S
Zn182 O185 2.031 1_565 S
Zn182 O187 2.049 . S
Zn182 O192 2.067 . S
Zn183 O184 1.962 1_565 S
Zn183 O186 1.986 . S
Zn183 O188 1.996 . S
Zn183 O191 1.943 . S
O184 Zn183 1.962 1_545 S
O184 C189 1.254 . S
O185 Zn182 2.031 1_545 S
O185 C189 1.269 . S
O186 Zn183 1.986 . S
O186 C193 1.262 . S
O187 Zn182 2.049 . S
O187 C195 1.260 . S
O188 Zn183 1.996 . S
O188 C195 1.257 . S
C189 O184 1.254 . S
C189 O185 1.269 . S
C190 O191 1.249 . S
C190 O192 1.270 . S
O191 Zn183 1.943 . S
O191 C190 1.249 . S
O192 Zn182 2.067 . S
O192 C190 1.270 . S
C193 O186 1.262 . S
C193 O194 1.232 . S
O194 C193 1.232 . S
C195 O187 1.260 . S
C195 O188 1.257 . S
Zn196 O199 2.031 . S
Zn196 O201 2.049 1_554 S
Zn196 O206 2.067 . S
Zn197 O198 1.962 . S
Zn197 O200 1.986 . S
Zn197 O202 1.996 1_554 S
Zn197 O205 1.943 . S
O198 Zn197 1.962 . S
O198 C203 1.254 . S
O199 Zn196 2.031 . S
O199 C203 1.269 . S
O200 Zn197 1.986 . S
O200 C207 1.262 . S
O201 Zn196 2.049 1_556 S
O201 C209 1.260 . S
O202 Zn197 1.996 1_556 S
O202 C209 1.257 . S
C203 O198 1.254 . S
C203 O199 1.269 . S
C204 O205 1.249 . S
C204 O206 1.270 . S
O205 Zn197 1.943 . S
O205 C204 1.249 . S
O206 Zn196 2.067 . S
O206 C204 1.270 . S
C207 O200 1.262 . S
C207 O208 1.232 . S
O208 C207 1.232 . S
C209 O201 1.260 . S
C209 O202 1.257 . S
Zn210 O213 2.031 . S
Zn210 O215 2.049 . S
Zn210 O220 2.067 . S
Zn211 O212 1.962 . S
Zn211 O214 1.986 . S
Zn211 O216 1.996 . S
Zn211 O219 1.943 . S
O212 Zn211 1.962 . S
O212 C217 1.254 . S
O213 Zn210 2.031 . S
O213 C217 1.269 . S
O214 Zn211 1.986 . S
O214 C221 1.262 . S
O215 Zn210 2.049 . S
O215 C223 1.260 . S
O216 Zn211 1.996 . S
O216 C223 1.257 . S
C217 O212 1.254 . S
C217 O213 1.269 . S
C218 O219 1.249 . S
C218 O220 1.270 . S
O219 Zn211 1.943 . S
O219 C218 1.249 . S
O220 Zn210 2.067 . S
O220 C218 1.270 . S
C221 O214 1.262 . S
C221 O222 1.232 . S
O222 C221 1.232 . S
C223 O215 1.260 . S
C223 O216 1.257 . S
H224 C230 0.930 1_556 S
H225 C233 0.930 . S
H226 C234 0.930 . S
H227 C235 0.930 1_554 S
H228 C238 0.930 . S
H229 C239 0.930 . S
C230 H224 0.930 1_554 S
C230 C231 1.355 1_655 S
C230 C232 1.420 1_554 S
C231 C230 1.355 1_455 S
C231 C233 1.419 . S
C232 C230 1.420 1_556 S
C232 C237 1.392 1_656 S
C232 C239 1.436 . S
C233 H225 0.930 . S
C233 C231 1.419 . S
C233 C234 1.362 . S
C234 H226 0.930 . S
C234 C233 1.362 . S
C234 C237 1.409 . S
C235 H227 0.930 1_556 S
C235 C236 1.355 . S
C235 C237 1.415 1_556 S
C236 C235 1.355 . S
C236 C238 1.419 1_455 S
C237 C232 1.392 1_454 S
C237 C234 1.409 . S
C237 C235 1.415 1_554 S
C238 H228 0.930 . S
C238 C236 1.419 1_655 S
C238 C239 1.362 . S
C239 H229 0.930 . S
C239 C232 1.436 . S
C239 C238 1.362 . S
H240 C246 0.930 . S
H241 C249 0.930 . S
H242 C250 0.930 . S
H243 C251 0.930 1_565 S
H244 C254 0.930 . S
H245 C255 0.930 . S
C246 H240 0.930 . S
C246 C247 1.355 . S
C246 C248 1.415 . S
C247 C246 1.355 . S
C247 C249 1.419 1_545 S
C248 C246 1.415 . S
C248 C253 1.425 . S
C248 C255 1.409 . S
C249 H241 0.930 . S
C249 C247 1.419 1_565 S
C249 C250 1.362 . S
C250 H242 0.930 . S
C250 C249 1.362 . S
C250 C253 1.409 1_565 S
C251 H243 0.930 1_545 S
C251 C252 1.355 . S
C251 C253 1.415 . S
C252 C251 1.355 . S
C252 C254 1.419 . S
C253 C248 1.425 . S
C253 C250 1.409 1_545 S
C253 C251 1.415 . S
C254 H244 0.930 . S
C254 C252 1.419 . S
C254 C255 1.362 . S
C255 H245 0.930 . S
C255 C248 1.409 . S
C255 C254 1.362 . S
H256 C262 0.930 . S
H257 C265 0.930 . S
H258 C266 0.930 . S
H259 C267 0.930 . S
H260 C270 0.930 . S
H261 C271 0.930 . S
C262 H256 0.930 . S
C262 C263 1.355 . S
C262 C264 1.415 . S
C263 C262 1.355 . S
C263 C265 1.419 1_554 S
C264 C262 1.415 . S
C264 C269 1.425 1_554 S
C264 C271 1.409 . S
C265 H257 0.930 . S
C265 C263 1.419 1_556 S
C265 C266 1.362 . S
C266 H258 0.930 . S
C266 C265 1.362 . S
C266 C269 1.409 . S
C267 H259 0.930 . S
C267 C268 1.355 . S
C267 C269 1.415 . S
C268 C267 1.355 . S
C268 C270 1.419 1_556 S
C269 C264 1.425 1_556 S
C269 C266 1.409 . S
C269 C267 1.415 . S
C270 H260 0.930 . S
C270 C268 1.419 1_554 S
C270 C271 1.362 . S
C271 H261 0.930 . S
C271 C264 1.409 . S
C271 C270 1.362 . S
H272 C278 0.930 . S
H273 C281 0.930 . S
H274 C282 0.930 . S
H275 C283 0.930 . S
H276 C286 0.930 . S
H277 C287 0.930 . S
C278 H272 0.930 . S
C278 C279 1.355 . S
C278 C280 1.415 . S
C279 C278 1.355 . S
C279 C281 1.419 . S
C280 C278 1.415 . S
C280 C285 1.425 . S
C280 C287 1.409 . S
C281 H273 0.930 . S
C281 C279 1.419 . S
C281 C282 1.362 . S
C282 H274 0.930 . S
C282 C281 1.362 . S
C282 C285 1.409 . S
C283 H275 0.930 . S
C283 C284 1.355 . S
C283 C285 1.415 . S
C284 C283 1.355 . S
C284 C286 1.419 . S
C285 C280 1.425 . S
C285 C282 1.409 . S
C285 C283 1.415 . S
C286 H276 0.930 . S
C286 C284 1.419 . S
C286 C287 1.362 . S
C287 H277 0.930 . S
C287 C280 1.409 . S
C287 C286 1.362 . S
H288 C294 0.930 1_455 S
H289 C297 0.930 . S
H290 C298 0.930 . S
H291 C299 0.930 . S
H292 C302 0.930 . S
H293 C303 0.930 . S
C294 H288 0.930 1_655 S
C294 C295 1.355 . S
C294 C296 1.415 . S
C295 C294 1.355 . S
C295 C297 1.419 1_556 S
C296 C294 1.415 . S
C296 C301 1.425 1_556 S
C296 C303 1.409 1_655 S
C297 H289 0.930 . S
C297 C295 1.419 1_554 S
C297 C298 1.362 . S
C298 H290 0.930 . S
C298 C297 1.362 . S
C298 C301 1.409 . S
C299 H291 0.930 . S
C299 C300 1.355 . S
C299 C301 1.415 . S
C300 C299 1.355 . S
C300 C302 1.419 1_654 S
C301 C296 1.425 1_554 S
C301 C298 1.409 . S
C301 C299 1.415 . S
C302 H292 0.930 . S
C302 C300 1.419 1_456 S
C302 C303 1.362 . S
C303 H293 0.930 . S
C303 C296 1.409 1_455 S
C303 C302 1.362 . S
H304 C310 0.930 . S
H305 C313 0.930 . S
H306 C314 0.930 . S
H307 C315 0.930 . S
H308 C318 0.930 . S
H309 C319 0.930 . S
C310 H304 0.930 . S
C310 C311 1.355 . S
C310 C312 1.415 . S
C311 C310 1.355 . S
C311 C313 1.419 . S
C312 C310 1.415 . S
C312 C317 1.425 . S
C312 C319 1.409 . S
C313 H305 0.930 . S
C313 C311 1.419 . S
C313 C314 1.362 . S
C314 H306 0.930 . S
C314 C313 1.362 . S
C314 C317 1.409 . S
C315 H307 0.930 . S
C315 C316 1.355 . S
C315 C317 1.415 . S
C316 C315 1.355 . S
C316 C318 1.419 . S
C317 C312 1.425 . S
C317 C314 1.409 . S
C317 C315 1.415 . S
C318 H308 0.930 . S
C318 C316 1.419 . S
C318 C319 1.362 . S
C319 H309 0.930 . S
C319 C312 1.409 . S
C319 C318 1.362 . S
H320 C326 0.930 . S
H321 C329 0.930 . S
H322 C330 0.930 . S
H323 C331 0.930 . S
H324 C334 0.930 . S
H325 C335 0.930 . S
C326 H320 0.930 . S
C326 C327 1.355 1_554 S
C326 C328 1.415 . S
C327 C326 1.355 1_556 S
C327 C329 1.419 . S
C328 C326 1.415 . S
C328 C333 1.425 1_554 S
C328 C335 1.409 . S
C329 H321 0.930 . S
C329 C327 1.419 . S
C329 C330 1.362 . S
C330 H322 0.930 . S
C330 C329 1.362 . S
C330 C333 1.409 . S
C331 H323 0.930 . S
C331 C332 1.355 1_556 S
C331 C333 1.415 . S
C332 C331 1.355 1_554 S
C332 C334 1.419 . S
C333 C328 1.425 1_556 S
C333 C330 1.409 . S
C333 C331 1.415 . S
C334 H324 0.930 . S
C334 C332 1.419 . S
C334 C335 1.362 . S
C335 H325 0.930 . S
C335 C328 1.409 . S
C335 C334 1.362 . S
H336 C342 0.930 . S
H337 C345 0.930 . S
H338 C346 0.930 . S
H339 C347 0.930 . S
H340 C350 0.930 . S
H341 C351 0.930 . S
C342 H336 0.930 . S
C342 C343 1.355 . S
C342 C344 1.415 . S
C343 C342 1.355 . S
C343 C345 1.419 . S
C344 C342 1.415 . S
C344 C349 1.425 . S
C344 C351 1.409 . S
C345 H337 0.930 . S
C345 C343 1.419 . S
C345 C346 1.362 . S
C346 H338 0.930 . S
C346 C345 1.362 . S
C346 C349 1.409 . S
C347 H339 0.930 . S
C347 C348 1.355 . S
C347 C349 1.415 . S
C348 C347 1.355 . S
C348 C350 1.419 . S
C349 C344 1.425 . S
C349 C346 1.409 . S
C349 C347 1.415 . S
C350 H340 0.930 . S
C350 C348 1.419 . S
C350 C351 1.362 . S
C351 H341 0.930 . S
C351 C344 1.409 . S
C351 C350 1.362 . S
H352 C358 0.930 . S
H353 C361 0.930 . S
H354 C362 0.930 . S
H355 C363 0.930 . S
H356 C366 0.930 . S
H357 C367 0.930 . S
C358 H352 0.930 . S
C358 C359 1.355 . S
C358 C360 1.415 . S
C359 C358 1.355 . S
C359 C361 1.419 . S
C360 C358 1.415 . S
C360 C365 1.425 . S
C360 C367 1.409 . S
C361 H353 0.930 . S
C361 C359 1.419 . S
C361 C362 1.362 . S
C362 H354 0.930 . S
C362 C361 1.362 . S
C362 C365 1.409 . S
C363 H355 0.930 . S
C363 C364 1.355 . S
C363 C365 1.415 . S
C364 C363 1.355 . S
C364 C366 1.419 . S
C365 C360 1.425 . S
C365 C362 1.409 . S
C365 C363 1.415 . S
C366 H356 0.930 . S
C366 C364 1.419 . S
C366 C367 1.362 . S
C367 H357 0.930 . S
C367 C360 1.409 . S
C367 C366 1.362 . S
H368 C374 0.930 . S
H369 C377 0.930 . S
H370 C378 0.930 . S
H371 C379 0.930 . S
H372 C382 0.930 . S
H373 C383 0.930 . S
C374 H368 0.930 . S
C374 C375 1.355 . S
C374 C376 1.415 . S
C375 C374 1.355 . S
C375 C377 1.419 . S
C376 C374 1.415 . S
C376 C381 1.425 . S
C376 C383 1.409 . S
C377 H369 0.930 . S
C377 C375 1.419 . S
C377 C378 1.362 . S
C378 H370 0.930 . S
C378 C377 1.362 . S
C378 C381 1.409 . S
C379 H371 0.930 . S
C379 C380 1.355 . S
C379 C381 1.415 . S
C380 C379 1.355 . S
C380 C382 1.419 . S
C381 C376 1.425 . S
C381 C378 1.409 . S
C381 C379 1.415 . S
C382 H372 0.930 . S
C382 C380 1.419 . S
C382 C383 1.362 . S
C383 H373 0.930 . S
C383 C376 1.409 . S
C383 C382 1.362 . S
H384 C390 0.930 . S
H385 C393 0.930 . S
H386 C394 0.930 . S
H387 C395 0.930 . S
H388 C398 0.930 . S
H389 C399 0.930 . S
C390 H384 0.930 . S
C390 C391 1.355 . S
C390 C392 1.415 . S
C391 C390 1.355 . S
C391 C393 1.419 . S
C392 C390 1.415 . S
C392 C397 1.425 . S
C392 C399 1.409 . S
C393 H385 0.930 . S
C393 C391 1.419 . S
C393 C394 1.362 . S
C394 H386 0.930 . S
C394 C393 1.362 . S
C394 C397 1.409 . S
C395 H387 0.930 . S
C395 C396 1.355 . S
C395 C397 1.415 . S
C396 C395 1.355 . S
C396 C398 1.419 . S
C397 C392 1.425 . S
C397 C394 1.409 . S
C397 C395 1.415 . S
C398 H388 0.930 . S
C398 C396 1.419 . S
C398 C399 1.362 . S
C399 H389 0.930 . S
C399 C392 1.409 . S
C399 C398 1.362 . S
H400 C406 0.930 . S
H401 C409 0.930 . S
H402 C410 0.930 . S
H403 C411 0.930 . S
H404 C414 0.930 . S
H405 C415 0.930 . S
C406 H400 0.930 . S
C406 C407 1.355 . S
C406 C408 1.415 . S
C407 C406 1.355 . S
C407 C409 1.419 . S
C408 C406 1.415 . S
C408 C413 1.425 . S
C408 C415 1.409 . S
C409 H401 0.930 . S
C409 C407 1.419 . S
C409 C410 1.362 . S
C410 H402 0.930 . S
C410 C409 1.362 . S
C410 C413 1.409 . S
C411 H403 0.930 . S
C411 C412 1.355 . S
C411 C413 1.415 . S
C412 C411 1.355 . S
C412 C414 1.419 . S
C413 C408 1.425 . S
C413 C410 1.409 . S
C413 C411 1.415 . S
C414 H404 0.930 . S
C414 C412 1.419 . S
C414 C415 1.362 . S
C415 H405 0.930 . S
C415 C408 1.409 . S
C415 C414 1.362 . S
H416 C422 0.930 . S
H417 C425 0.930 . S
H418 C426 0.930 . S
H419 C427 0.930 . S
H420 C430 0.930 . S
H421 C431 0.930 . S
C422 H416 0.930 . S
C422 C423 1.355 . S
C422 C424 1.415 . S
C423 C422 1.355 . S
C423 C425 1.419 . S
C424 C422 1.415 . S
C424 C429 1.425 . S
C424 C431 1.409 . S
C425 H417 0.930 . S
C425 C423 1.419 . S
C425 C426 1.362 . S
C426 H418 0.930 . S
C426 C425 1.362 . S
C426 C429 1.409 . S
C427 H419 0.930 . S
C427 C428 1.355 . S
C427 C429 1.415 . S
C428 C427 1.355 . S
C428 C430 1.419 . S
C429 C424 1.425 . S
C429 C426 1.409 . S
C429 C427 1.415 . S
C430 H420 0.930 . S
C430 C428 1.419 . S
C430 C431 1.362 . S
C431 H421 0.930 . S
C431 C424 1.409 . S
C431 C430 1.362 . S
H432 C438 0.930 . S
H433 C441 0.930 . S
H434 C442 0.930 . S
H435 C443 0.930 . S
H436 C446 0.930 . S
H437 C447 0.930 . S
C438 H432 0.930 . S
C438 C439 1.355 . S
C438 C440 1.415 . S
C439 C438 1.355 . S
C439 C441 1.419 . S
C440 C438 1.415 . S
C440 C445 1.425 . S
C440 C447 1.409 . S
C441 H433 0.930 . S
C441 C439 1.419 . S
C441 C442 1.362 . S
C442 H434 0.930 . S
C442 C441 1.362 . S
C442 C445 1.409 . S
C443 H435 0.930 . S
C443 C444 1.355 . S
C443 C445 1.415 . S
C444 C443 1.355 . S
C444 C446 1.419 . S
C445 C440 1.425 . S
C445 C442 1.409 . S
C445 C443 1.415 . S
C446 H436 0.930 . S
C446 C444 1.419 . S
C446 C447 1.362 . S
C447 H437 0.930 . S
C447 C440 1.409 . S
C447 C446 1.362 . S
H448 C454 0.930 . S
H449 C457 0.930 . S
H450 C458 0.930 . S
H451 C459 0.930 . S
H452 C462 0.930 . S
H453 C463 0.930 . S
C454 H448 0.930 . S
C454 C455 1.355 . S
C454 C456 1.415 . S
C455 C454 1.355 . S
C455 C457 1.419 . S
C456 C454 1.415 . S
C456 C461 1.425 . S
C456 C463 1.409 . S
C457 H449 0.930 . S
C457 C455 1.419 . S
C457 C458 1.362 . S
C458 H450 0.930 . S
C458 C457 1.362 . S
C458 C461 1.409 . S
C459 H451 0.930 . S
C459 C460 1.355 . S
C459 C461 1.415 . S
C460 C459 1.355 . S
C460 C462 1.419 . S
C461 C456 1.425 . S
C461 C458 1.409 . S
C461 C459 1.415 . S
C462 H452 0.930 . S
C462 C460 1.419 . S
C462 C463 1.362 . S
C463 H453 0.930 . S
C463 C456 1.409 . S
C463 C462 1.362 . S
H464 C470 0.930 . S
H465 C473 0.930 . S
H466 C474 0.930 . S
H467 C475 0.930 . S
H468 C478 0.930 . S
H469 C479 0.930 . S
C470 H464 0.930 . S
C470 C471 1.355 . S
C470 C472 1.415 . S
C471 C470 1.355 . S
C471 C473 1.419 . S
C472 C470 1.415 . S
C472 C477 1.425 . S
C472 C479 1.409 . S
C473 H465 0.930 . S
C473 C471 1.419 . S
C473 C474 1.362 . S
C474 H466 0.930 . S
C474 C473 1.362 . S
C474 C477 1.409 . S
C475 H467 0.930 . S
C475 C476 1.355 . S
C475 C477 1.415 . S
C476 C475 1.355 . S
C476 C478 1.419 . S
C477 C472 1.425 . S
C477 C474 1.409 . S
C477 C475 1.415 . S
C478 H468 0.930 . S
C478 C476 1.419 . S
C478 C479 1.362 . S
C479 H469 0.930 . S
C479 C472 1.409 . S
C479 C478 1.362 . S
H480 C486 0.930 . S
H481 C489 0.930 . S
H482 C490 0.930 . S
H483 C491 0.930 . S
H484 C494 0.930 . S
H485 C495 0.930 . S
C486 H480 0.930 . S
C486 C487 1.355 . S
C486 C488 1.415 . S
C487 C486 1.355 . S
C487 C489 1.419 . S
C488 C486 1.415 . S
C488 C493 1.425 . S
C488 C495 1.409 . S
C489 H481 0.930 . S
C489 C487 1.419 . S
C489 C490 1.362 . S
C490 H482 0.930 . S
C490 C489 1.362 . S
C490 C493 1.409 . S
C491 H483 0.930 . S
C491 C492 1.355 . S
C491 C493 1.415 . S
C492 C491 1.355 . S
C492 C494 1.419 . S
C493 C488 1.425 . S
C493 C490 1.409 . S
C493 C491 1.415 . S
C494 H484 0.930 . S
C494 C492 1.419 . S
C494 C495 1.362 . S
C495 H485 0.930 . S
C495 C488 1.409 . S
C495 C494 1.362 . S
H496 C502 0.930 . S
H497 C505 0.930 . S
H498 C506 0.930 . S
H499 C507 0.930 . S
H500 C510 0.930 . S
H501 C511 0.930 . S
C502 H496 0.930 . S
C502 C503 1.355 . S
C502 C504 1.415 . S
C503 C502 1.355 . S
C503 C505 1.419 . S
C504 C502 1.415 . S
C504 C509 1.425 . S
C504 C511 1.409 . S
C505 H497 0.930 . S
C505 C503 1.419 . S
C505 C506 1.362 . S
C506 H498 0.930 . S
C506 C505 1.362 . S
C506 C509 1.409 . S
C507 H499 0.930 . S
C507 C508 1.355 . S
C507 C509 1.415 . S
C508 C507 1.355 . S
C508 C510 1.419 . S
C509 C504 1.425 . S
C509 C506 1.409 . S
C509 C507 1.415 . S
C510 H500 0.930 . S
C510 C508 1.419 . S
C510 C511 1.362 . S
C511 H501 0.930 . S
C511 C504 1.409 . S
C511 C510 1.362 . S
H512 C518 0.930 . S
H513 C521 0.930 . S
H514 C522 0.930 . S
H515 C523 0.930 . S
H516 C526 0.930 . S
H517 C527 0.930 . S
C518 H512 0.930 . S
C518 C519 1.355 . S
C518 C520 1.415 . S
C519 C518 1.355 . S
C519 C521 1.419 . S
C520 C518 1.415 . S
C520 C525 1.425 . S
C520 C527 1.409 . S
C521 H513 0.930 . S
C521 C519 1.419 . S
C521 C522 1.362 . S
C522 H514 0.930 . S
C522 C521 1.362 . S
C522 C525 1.409 . S
C523 H515 0.930 . S
C523 C524 1.355 . S
C523 C525 1.415 . S
C524 C523 1.355 . S
C524 C526 1.419 . S
C525 C520 1.425 . S
C525 C522 1.409 . S
C525 C523 1.415 . S
C526 H516 0.930 . S
C526 C524 1.419 . S
C526 C527 1.362 . S
C527 H517 0.930 . S
C527 C520 1.409 . S
C527 C526 1.362 . S
H528 C534 0.930 . S
H529 C537 0.930 . S
H530 C538 0.930 . S
H531 C539 0.930 . S
H532 C542 0.930 . S
H533 C543 0.930 . S
C534 H528 0.930 . S
C534 C535 1.355 . S
C534 C536 1.415 . S
C535 C534 1.355 . S
C535 C537 1.419 . S
C536 C534 1.415 . S
C536 C541 1.425 . S
C536 C543 1.409 . S
C537 H529 0.930 . S
C537 C535 1.419 . S
C537 C538 1.362 . S
C538 H530 0.930 . S
C538 C537 1.362 . S
C538 C541 1.409 . S
C539 H531 0.930 . S
C539 C540 1.355 . S
C539 C541 1.415 . S
C540 C539 1.355 . S
C540 C542 1.419 . S
C541 C536 1.425 . S
C541 C538 1.409 . S
C541 C539 1.415 . S
C542 H532 0.930 . S
C542 C540 1.419 . S
C542 C543 1.362 . S
C543 H533 0.930 . S
C543 C536 1.409 . S
C543 C542 1.362 . S
H544 C550 0.930 . S
H545 C553 0.930 . S
H546 C554 0.930 . S
H547 C555 0.930 . S
H548 C558 0.930 . S
H549 C559 0.930 . S
C550 H544 0.930 . S
C550 C551 1.355 . S
C550 C552 1.415 . S
C551 C550 1.355 . S
C551 C553 1.419 . S
C552 C550 1.415 . S
C552 C557 1.425 . S
C552 C559 1.409 . S
C553 H545 0.930 . S
C553 C551 1.419 . S
C553 C554 1.362 . S
C554 H546 0.930 . S
C554 C553 1.362 . S
C554 C557 1.409 . S
C555 H547 0.930 . S
C555 C556 1.355 . S
C555 C557 1.415 . S
C556 C555 1.355 . S
C556 C558 1.419 . S
C557 C552 1.425 . S
C557 C554 1.409 . S
C557 C555 1.415 . S
C558 H548 0.930 . S
C558 C556 1.419 . S
C558 C559 1.362 . S
C559 H549 0.930 . S
C559 C552 1.409 . S
C559 C558 1.362 . S
H560 C566 0.930 . S
H561 C569 0.930 . S
H562 C570 0.930 . S
H563 C571 0.930 . S
H564 C574 0.930 . S
H565 C575 0.930 . S
C566 H560 0.930 . S
C566 C567 1.355 . S
C566 C568 1.415 . S
C567 C566 1.355 . S
C567 C569 1.419 . S
C568 C566 1.415 . S
C568 C573 1.425 . S
C568 C575 1.409 . S
C569 H561 0.930 . S
C569 C567 1.419 . S
C569 C570 1.362 . S
C570 H562 0.930 . S
C570 C569 1.362 . S
C570 C573 1.409 . S
C571 H563 0.930 . S
C571 C572 1.355 . S
C571 C573 1.415 . S
C572 C571 1.355 . S
C572 C574 1.419 . S
C573 C568 1.425 . S
C573 C570 1.409 . S
C573 C571 1.415 . S
C574 H564 0.930 . S
C574 C572 1.419 . S
C574 C575 1.362 . S
C575 H565 0.930 . S
C575 C568 1.409 . S
C575 C574 1.362 . S
H576 C582 0.930 . S
H577 C585 0.930 . S
H578 C586 0.930 . S
H579 C587 0.930 . S
H580 C590 0.930 . S
H581 C591 0.930 . S
C582 H576 0.930 . S
C582 C583 1.355 . S
C582 C584 1.415 . S
C583 C582 1.355 . S
C583 C585 1.419 . S
C584 C582 1.415 . S
C584 C589 1.425 . S
C584 C591 1.409 . S
C585 H577 0.930 . S
C585 C583 1.419 . S
C585 C586 1.362 . S
C586 H578 0.930 . S
C586 C585 1.362 . S
C586 C589 1.409 . S
C587 H579 0.930 . S
C587 C588 1.355 . S
C587 C589 1.415 . S
C588 C587 1.355 . S
C588 C590 1.419 . S
C589 C584 1.425 . S
C589 C586 1.409 . S
C589 C587 1.415 . S
C590 H580 0.930 . S
C590 C588 1.419 . S
C590 C591 1.362 . S
C591 H581 0.930 . S
C591 C584 1.409 . S
C591 C590 1.362 . S
H592 C598 0.930 . S
H593 C601 0.930 . S
H594 C602 0.930 . S
H595 C603 0.930 . S
H596 C606 0.930 . S
H597 C607 0.930 . S
C598 H592 0.930 . S
C598 C599 1.355 . S
C598 C600 1.415 . S
C599 C598 1.355 . S
C599 C601 1.419 . S
C600 C598 1.415 . S
C600 C605 1.425 . S
C600 C607 1.409 . S
C601 H593 0.930 . S
C601 C599 1.419 . S
C601 C602 1.362 . S
C602 H594 0.930 . S
C602 C601 1.362 . S
C602 C605 1.409 . S
C603 H595 0.930 . S
C603 C604 1.355 . S
C603 C605 1.415 . S
C604 C603 1.355 . S
C604 C606 1.419 . S
C605 C600 1.425 . S
C605 C602 1.409 . S
C605 C603 1.415 . S
C606 H596 0.930 . S
C606 C604 1.419 . S
C606 C607 1.362 . S
C607 H597 0.930 . S
C607 C600 1.409 . S
C607 C606 1.362 . S
H608 C614 0.930 . S
H609 C617 0.930 . S
H610 C618 0.930 . S
H611 C619 0.930 . S
H612 C622 0.930 . S
H613 C623 0.930 . S
C614 H608 0.930 . S
C614 C615 1.355 . S
C614 C616 1.415 . S
C615 C614 1.355 . S
C615 C617 1.419 . S
C616 C614 1.415 . S
C616 C621 1.425 . S
C616 C623 1.409 . S
C617 H609 0.930 . S
C617 C615 1.419 . S
C617 C618 1.362 . S
C618 H610 0.930 . S
C618 C617 1.362 . S
C618 C621 1.409 . S
C619 H611 0.930 . S
C619 C620 1.355 . S
C619 C621 1.415 . S
C620 C619 1.355 . S
C620 C622 1.419 . S
C621 C616 1.425 . S
C621 C618 1.409 . S
C621 C619 1.415 . S
C622 H612 0.930 . S
C622 C620 1.419 . S
C622 C623 1.362 . S
C623 H613 0.930 . S
C623 C616 1.409 . S
C623 C622 1.362 . S
H624 C630 0.930 . S
H625 C633 0.930 . S
H626 C634 0.930 . S
H627 C635 0.930 . S
H628 C638 0.930 . S
H629 C639 0.930 . S
C630 H624 0.930 . S
C630 C631 1.355 . S
C630 C632 1.415 . S
C631 C630 1.355 . S
C631 C633 1.419 . S
C632 C630 1.415 . S
C632 C637 1.425 . S
C632 C639 1.409 . S
C633 H625 0.930 . S
C633 C631 1.419 . S
C633 C634 1.362 . S
C634 H626 0.930 . S
C634 C633 1.362 . S
C634 C637 1.409 . S
C635 H627 0.930 . S
C635 C636 1.355 . S
C635 C637 1.415 . S
C636 C635 1.355 . S
C636 C638 1.419 . S
C637 C632 1.425 . S
C637 C634 1.409 . S
C637 C635 1.415 . S
C638 H628 0.930 . S
C638 C636 1.419 . S
C638 C639 1.362 . S
C639 H629 0.930 . S
C639 C632 1.409 . S
C639 C638 1.362 . S
H640 C646 0.930 . S
H641 C649 0.930 . S
H642 C650 0.930 . S
H643 C651 0.930 . S
H644 C654 0.930 . S
H645 C655 0.930 . S
C646 H640 0.930 . S
C646 C647 1.355 . S
C646 C648 1.415 . S
C647 C646 1.355 . S
C647 C649 1.419 . S
C648 C646 1.415 . S
C648 C653 1.425 . S
C648 C655 1.409 . S
C649 H641 0.930 . S
C649 C647 1.419 . S
C649 C650 1.362 . S
C650 H642 0.930 . S
C650 C649 1.362 . S
C650 C653 1.409 . S
C651 H643 0.930 . S
C651 C652 1.355 . S
C651 C653 1.415 . S
C652 C651 1.355 . S
C652 C654 1.419 . S
C653 C648 1.425 . S
C653 C650 1.409 . S
C653 C651 1.415 . S
C654 H644 0.930 . S
C654 C652 1.419 . S
C654 C655 1.362 . S
C655 H645 0.930 . S
C655 C648 1.409 . S
C655 C654 1.362 . S
H656 C662 0.930 . S
H657 C665 0.930 . S
H658 C666 0.930 . S
H659 C667 0.930 . S
H660 C670 0.930 . S
H661 C671 0.930 . S
C662 H656 0.930 . S
C662 C663 1.355 . S
C662 C664 1.415 . S
C663 C662 1.355 . S
C663 C665 1.419 . S
C664 C662 1.415 . S
C664 C669 1.425 . S
C664 C671 1.409 . S
C665 H657 0.930 . S
C665 C663 1.419 . S
C665 C666 1.362 . S
C666 H658 0.930 . S
C666 C665 1.362 . S
C666 C669 1.409 . S
C667 H659 0.930 . S
C667 C668 1.355 . S
C667 C669 1.415 . S
C668 C667 1.355 . S
C668 C670 1.419 . S
C669 C664 1.425 . S
C669 C666 1.409 . S
C669 C667 1.415 . S
C670 H660 0.930 . S
C670 C668 1.419 . S
C670 C671 1.362 . S
C671 H661 0.930 . S
C671 C664 1.409 . S
C671 C670 1.362 . S
H672 C678 0.930 . S
H673 C681 0.930 . S
H674 C682 0.930 . S
H675 C683 0.930 . S
H676 C686 0.930 . S
H677 C687 0.930 . S
C678 H672 0.930 . S
C678 C679 1.355 . S
C678 C680 1.415 . S
C679 C678 1.355 . S
C679 C681 1.419 . S
C680 C678 1.415 . S
C680 C685 1.425 . S
C680 C687 1.409 . S
C681 H673 0.930 . S
C681 C679 1.419 . S
C681 C682 1.362 . S
C682 H674 0.930 . S
C682 C681 1.362 . S
C682 C685 1.409 . S
C683 H675 0.930 . S
C683 C684 1.355 . S
C683 C685 1.415 . S
C684 C683 1.355 . S
C684 C686 1.419 . S
C685 C680 1.425 . S
C685 C682 1.409 . S
C685 C683 1.415 . S
C686 H676 0.930 . S
C686 C684 1.419 . S
C686 C687 1.362 . S
C687 H677 0.930 . S
C687 C680 1.409 . S
C687 C686 1.362 . S
H688 C694 0.930 . S
H689 C697 0.930 . S
H690 C698 0.930 . S
H691 C699 0.930 . S
H692 C702 0.930 . S
H693 C703 0.930 . S
C694 H688 0.930 . S
C694 C695 1.355 . S
C694 C696 1.415 . S
C695 C694 1.355 . S
C695 C697 1.419 . S
C696 C694 1.415 . S
C696 C701 1.425 . S
C696 C703 1.409 . S
C697 H689 0.930 . S
C697 C695 1.419 . S
C697 C698 1.362 . S
C698 H690 0.930 . S
C698 C697 1.362 . S
C698 C701 1.409 . S
C699 H691 0.930 . S
C699 C700 1.355 . S
C699 C701 1.415 . S
C700 C699 1.355 . S
C700 C702 1.419 . S
C701 C696 1.425 . S
C701 C698 1.409 . S
C701 C699 1.415 . S
C702 H692 0.930 . S
C702 C700 1.419 . S
C702 C703 1.362 . S
C703 H693 0.930 . S
C703 C696 1.409 . S
C703 C702 1.362 . S
H704 C710 0.930 . S
H705 C713 0.930 . S
H706 C714 0.930 . S
H707 C715 0.930 . S
H708 C718 0.930 . S
H709 C719 0.930 . S
C710 H704 0.930 . S
C710 C711 1.355 . S
C710 C712 1.415 . S
C711 C710 1.355 . S
C711 C713 1.419 . S
C712 C710 1.415 . S
C712 C717 1.425 . S
C712 C719 1.409 . S
C713 H705 0.930 . S
C713 C711 1.419 . S
C713 C714 1.362 . S
C714 H706 0.930 . S
C714 C713 1.362 . S
C714 C717 1.409 . S
C715 H707 0.930 . S
C715 C716 1.355 . S
C715 C717 1.415 . S
C716 C715 1.355 . S
C716 C718 1.419 . S
C717 C712 1.425 . S
C717 C714 1.409 . S
C717 C715 1.415 . S
C718 H708 0.930 . S
C718 C716 1.419 . S
C718 C719 1.362 . S
C719 H709 0.930 . S
C719 C712 1.409 . S
C719 C718 1.362 . S
H720 C726 0.930 . S
H721 C729 0.930 . S
H722 C730 0.930 . S
H723 C731 0.930 . S
H724 C734 0.930 . S
H725 C735 0.930 . S
C726 H720 0.930 . S
C726 C727 1.355 . S
C726 C728 1.415 . S
C727 C726 1.355 . S
C727 C729 1.419 . S
C728 C726 1.415 . S
C728 C733 1.425 . S
C728 C735 1.409 . S
C729 H721 0.930 . S
C729 C727 1.419 . S
C729 C730 1.362 . S
C730 H722 0.930 . S
C730 C729 1.362 . S
C730 C733 1.409 . S
C731 H723 0.930 . S
C731 C732 1.355 . S
C731 C733 1.415 . S
C732 C731 1.355 . S
C732 C734 1.419 . S
C733 C728 1.425 . S
C733 C730 1.409 . S
C733 C731 1.415 . S
C734 H724 0.930 . S
C734 C732 1.419 . S
C734 C735 1.362 . S
C735 H725 0.930 . S
C735 C728 1.409 . S
C735 C734 1.362 . S
C231 C11 1.236 . S
C236 C67 1.226 . S
C247 C81 1.221 . S
C252 C25 1.229 . S
C263 C39 1.225 . S
C268 C95 1.219 . S
C279 C53 1.222 . S
C284 C109 1.219 . S
C295 C123 1.229 . S
C300 C179 1.220 . S
C311 C193 1.223 . S
C316 C137 1.219 . S
C327 C151 1.230 . S
C332 C207 1.239 . S
C343 C165 1.240 . S
C348 C221 1.240 . S
C359 C13 1.180 . S
C364 C218 1.245 . S
C375 C176 1.179 . S
C380 C27 1.234 . S
C391 C41 1.174 . S
C396 C190 1.134 . S
C407 C204 1.184 . S
C412 C55 1.236 . S
C423 C134 1.231 . S
C428 C69 1.227 . S
C439 C148 1.145 . S
C444 C83 1.206 . S
C455 C162 1.134 . S
C460 C97 1.173 . S
C471 C120 1.137 . S
C476 C111 1.153 . S
C487 C125 1.200 . S
C492 C106 1.141 . S
C503 C64 1.234 . S
C508 C139 1.151 . S
C519 C78 1.243 . S
C524 C153 1.168 . S
C535 C167 1.126 . S
C540 C92 1.209 . S
C551 C22 1.229 . S
C556 C181 1.143 . S
C567 C195 1.179 . S
C572 C36 1.134 . S
C583 C209 1.238 . S
C588 C50 1.198 . S
C599 C223 1.120 . S
C604 C8 1.169 . S
C615 C105 1.277 . S
C620 C7 1.348 . S
C631 C21 1.348 . S
C636 C63 1.288 . S
C647 C35 1.349 . S
C652 C77 1.283 . S
C663 C49 1.281 . S
C668 C91 1.306 . S
C679 C217 1.347 . S
C684 C119 1.274 . S
C695 C175 1.283 . S
C700 C133 1.303 . S
C711 C189 1.324 . S
C716 C147 1.271 . S
C727 C203 1.268 . S
C732 C161 1.338 . S
