# Generated by pormake.
# Topology ftb, (5)-cn, num edge types: 1
# Building blocks:
#     Node 0, Type 0, BuildingBlock: BEQFEK_clean_sbu_0, # of connection points: 5
#     Node 1, Type 0, BuildingBlock: BEQFEK_clean_sbu_0, # of connection points: 5
#     Node 2, Type 0, BuildingBlock: BEQFEK_clean_sbu_0, # of connection points: 5
#     Node 3, Type 0, BuildingBlock: BEQFEK_clean_sbu_0, # of connection points: 5
#     Node 4, Type 0, BuildingBlock: BEQFEK_clean_sbu_0, # of connection points: 5
#     Node 5, Type 0, BuildingBlock: BEQFEK_clean_sbu_0, # of connection points: 5
#     Node 6, Type 0, BuildingBlock: BEQFEK_clean_sbu_0, # of connection points: 5
#     Node 7, Type 0, BuildingBlock: BEQFEK_clean_sbu_0, # of connection points: 5
#     Edge 8, Type (0, 0), BuildingBlock: TEMPAE_clean_linker_10, # of connection points: 2
#     Edge 9, Type (0, 0), BuildingBlock: TEMPAE_clean_linker_10, # of connection points: 2
#     Edge 10, Type (0, 0), BuildingBlock: TEMPAE_clean_linker_10, # of connection points: 2
#     Edge 11, Type (0, 0), BuildingBlock: TEMPAE_clean_linker_10, # of connection points: 2
#     Edge 12, Type (0, 0), BuildingBlock: TEMPAE_clean_linker_10, # of connection points: 2
#     Edge 13, Type (0, 0), BuildingBlock: TEMPAE_clean_linker_10, # of connection points: 2
#     Edge 14, Type (0, 0), BuildingBlock: TEMPAE_clean_linker_10, # of connection points: 2
#     Edge 15, Type (0, 0), BuildingBlock: TEMPAE_clean_linker_10, # of connection points: 2
#     Edge 16, Type (0, 0), BuildingBlock: TEMPAE_clean_linker_10, # of connection points: 2
#     Edge 17, Type (0, 0), BuildingBlock: TEMPAE_clean_linker_10, # of connection points: 2
#     Edge 18, Type (0, 0), BuildingBlock: TEMPAE_clean_linker_10, # of connection points: 2
#     Edge 19, Type (0, 0), BuildingBlock: TEMPAE_clean_linker_10, # of connection points: 2
#     Edge 20, Type (0, 0), BuildingBlock: TEMPAE_clean_linker_10, # of connection points: 2
#     Edge 21, Type (0, 0), BuildingBlock: TEMPAE_clean_linker_10, # of connection points: 2
#     Edge 22, Type (0, 0), BuildingBlock: TEMPAE_clean_linker_10, # of connection points: 2
#     Edge 23, Type (0, 0), BuildingBlock: TEMPAE_clean_linker_10, # of connection points: 2
#     Edge 24, Type (0, 0), BuildingBlock: TEMPAE_clean_linker_10, # of connection points: 2
#     Edge 25, Type (0, 0), BuildingBlock: TEMPAE_clean_linker_10, # of connection points: 2
#     Edge 26, Type (0, 0), BuildingBlock: TEMPAE_clean_linker_10, # of connection points: 2
#     Edge 27, Type (0, 0), BuildingBlock: TEMPAE_clean_linker_10, # of connection points: 2
# Relax obj value: 0.131
# Max RMSD: 0.202
# Mean RMSD: 0.202
data_MOF--net-ftb--node1-BEQFEK_clean_sbu_0--edge1-TEMPAE_clean_linker_10
_symmetry_space_group_name_H-M    P1
_symmetry_Int_Tables_number       1
_symmetry_cell_setting            triclinic
loop_
_symmetry_equiv_pos_as_xyz
'x, y, z'
_cell_length_a     56.489765
_cell_length_b     15.389455
_cell_length_c     36.267021
_cell_angle_alpha  90.057194
_cell_angle_beta   93.126604
_cell_angle_gamma 89.98046
loop_
_atom_site_label
_atom_site_type_symbol
_atom_site_fract_x
_atom_site_fract_y
_atom_site_fract_z
_atom_type_partial_charge
Co0 Co 0.33984 0.08581 0.08681 0.0
Co1 Co 0.34287 0.00579 0.0077 0.0
C2 C 0.33373 0.89299 0.07037 0.0
O3 O 0.33407 0.95959 0.09133 0.0
O4 O 0.33802 0.89926 0.03634 0.0
C5 C 0.35326 0.09706 0.16394 0.0
O6 O 0.36394 0.02268 0.15842 0.0
C7 C 0.34916 0.9061 0.93915 0.0
C8 C 0.35468 0.01304 0.89984 0.0
C9 C 0.35337 0.92353 0.90256 0.0
N10 N 0.3481 0.98215 0.95725 0.0
N11 N 0.35126 0.04569 0.93353 0.0
C12 C 0.34732 0.81912 0.95714 0.0
H13 H 0.32868 0.80809 0.96416 0.0
H14 H 0.35853 0.81814 0.98322 0.0
H15 H 0.35299 0.766 0.9389 0.0
C16 C 0.38804 0.14448 0.07159 0.0
N17 N 0.3671 0.108 0.06102 0.0
N18 N 0.36885 0.07057 0.02867 0.0
C19 C 0.39127 0.07926 0.01834 0.0
C20 C 0.40401 0.1273 0.04496 0.0
C21 C 0.39365 0.1851 0.10852 0.0
H22 H 0.37836 0.22411 0.11699 0.0
H23 H 0.39736 0.13317 0.12921 0.0
H24 H 0.40954 0.22734 0.10785 0.0
O25 O 0.31157 0.13571 0.06147 0.0
O26 O 0.31216 0.06899 0.00722 0.0
H27 H 0.39629 0.06951 0.96059 0.0
H28 H 0.42074 0.02843 0.98904 0.0
C29 C 0.40113 0.03296 0.98622 0.0
H30 H 0.39347 0.96673 0.9836 0.0
H31 H 0.3512 0.11153 0.94046 0.0
O32 O 0.34236 0.13517 0.13699 0.0
C33 C 0.30208 0.11831 0.02976 0.0
Co34 Co 0.64658 0.07916 0.03531 0.0
Co35 Co 0.6426 0.98054 0.11126 0.0
C36 C 0.65576 0.88498 0.04497 0.0
O37 O 0.65479 0.95555 0.02644 0.0
O38 O 0.6503 0.88279 0.07867 0.0
C39 C 0.65212 0.11903 0.95797 0.0
O40 O 0.66411 0.04591 0.95761 0.0
C41 C 0.64282 0.87318 0.1797 0.0
C42 C 0.62839 0.96848 0.21821 0.0
C43 C 0.63732 0.88488 0.21637 0.0
N44 N 0.63705 0.94634 0.16088 0.0
N45 N 0.62854 0.00288 0.1842 0.0
C46 C 0.65585 0.79863 0.16371 0.0
H47 H 0.66754 0.82232 0.14227 0.0
H48 H 0.64282 0.75277 0.15048 0.0
H49 H 0.66667 0.76359 0.18538 0.0
C50 C 0.59767 0.12487 0.04946 0.0
N51 N 0.61845 0.08778 0.06012 0.0
N52 N 0.61602 0.04306 0.09056 0.0
C53 C 0.59318 0.04779 0.09951 0.0
C54 C 0.58092 0.10052 0.07395 0.0
C55 C 0.59395 0.18082 0.01589 0.0
H56 H 0.60872 0.22802 0.01475 0.0
H57 H 0.59396 0.1394 0.99083 0.0
H58 H 0.57695 0.21695 0.01603 0.0
O59 O 0.67317 0.12962 0.06466 0.0
O60 O 0.67182 0.0524 0.11618 0.0
H61 H 0.5819 0.03032 0.15429 0.0
H62 H 0.56401 0.97421 0.11951 0.0
C63 C 0.58247 0.9927 0.12826 0.0
H64 H 0.59308 0.93291 0.13341 0.0
H65 H 0.62351 0.06619 0.17709 0.0
O66 O 0.64336 0.14371 0.98778 0.0
C67 C 0.68179 0.10857 0.09651 0.0
Co68 Co 0.34483 0.58095 0.58651 0.0
Co69 Co 0.3461 0.51871 0.50417 0.0
C70 C 0.33737 0.39441 0.56482 0.0
O71 O 0.3388 0.45541 0.58861 0.0
O72 O 0.34097 0.40851 0.53092 0.0
C73 C 0.35304 0.5856 0.66594 0.0
O74 O 0.3584 0.5029 0.66301 0.0
C75 C 0.35595 0.42349 0.43623 0.0
C76 C 0.34967 0.52599 0.39417 0.0
C77 C 0.35583 0.43943 0.3986 0.0
N78 N 0.35014 0.49745 0.45327 0.0
N79 N 0.34632 0.55831 0.42795 0.0
C80 C 0.36215 0.34053 0.45591 0.0
H81 H 0.37178 0.35474 0.48272 0.0
H82 H 0.3732 0.29826 0.43894 0.0
H83 H 0.34558 0.30548 0.46154 0.0
C84 C 0.39321 0.63693 0.57194 0.0
N85 N 0.3719 0.60501 0.56049 0.0
N86 N 0.37222 0.58261 0.52554 0.0
C87 C 0.39368 0.60179 0.51323 0.0
C88 C 0.4078 0.63641 0.54228 0.0
C89 C 0.40013 0.65458 0.61171 0.0
H90 H 0.39482 0.59866 0.62861 0.0
H91 H 0.41944 0.66457 0.61677 0.0
H92 H 0.39048 0.71279 0.62095 0.0
O93 O 0.31599 0.6333 0.563 0.0
O94 O 0.3157 0.5806 0.50598 0.0
H95 H 0.41811 0.61404 0.46931 0.0
H96 H 0.40066 0.51508 0.46894 0.0
C97 C 0.40053 0.58599 0.47448 0.0
H98 H 0.38725 0.61652 0.45501 0.0
H99 H 0.34134 0.62195 0.43378 0.0
O100 O 0.34755 0.62929 0.63701 0.0
C101 C 0.306 0.62339 0.53102 0.0
Co102 Co 0.64465 0.53657 0.53044 0.0
Co103 Co 0.64642 0.53321 0.61806 0.0
C104 C 0.65464 0.37417 0.57107 0.0
O105 O 0.65071 0.41243 0.54017 0.0
O106 O 0.65242 0.41373 0.60157 0.0
C107 C 0.65637 0.55368 0.45481 0.0
O108 O 0.67724 0.52657 0.46782 0.0
C109 C 0.63832 0.46718 0.6926 0.0
C110 C 0.6498 0.57888 0.7275 0.0
C111 C 0.64207 0.49359 0.72918 0.0
N112 N 0.64359 0.53397 0.67054 0.0
N113 N 0.65019 0.60074 0.69161 0.0
C114 C 0.63319 0.37734 0.67845 0.0
H115 H 0.65013 0.34583 0.67203 0.0
H116 H 0.62176 0.38076 0.65261 0.0
H117 H 0.62455 0.33627 0.69877 0.0
C118 C 0.59702 0.60402 0.54294 0.0
N119 N 0.61862 0.5781 0.55589 0.0
N120 N 0.61978 0.5823 0.59215 0.0
C121 C 0.59919 0.61406 0.60349 0.0
C122 C 0.58394 0.62865 0.57265 0.0
C123 C 0.58832 0.59411 0.50338 0.0
H124 H 0.59672 0.5367 0.491 0.0
H125 H 0.56881 0.58572 0.50065 0.0
H126 H 0.59327 0.65274 0.48776 0.0
O127 O 0.67475 0.595 0.54638 0.0
O128 O 0.67606 0.59244 0.60784 0.0
H129 H 0.61007 0.66252 0.65705 0.0
H130 H 0.57873 0.67243 0.64587 0.0
C131 C 0.59448 0.63034 0.64311 0.0
H132 H 0.59171 0.56734 0.6571 0.0
H133 H 0.65592 0.66013 0.68147 0.0
O134 O 0.63958 0.55982 0.47665 0.0
C135 C 0.6853 0.61037 0.57759 0.0
Co136 Co 0.84981 0.03401 0.61247 0.0
Co137 Co 0.84774 0.01503 0.52573 0.0
C138 C 0.8405 0.86455 0.57949 0.0
O139 O 0.84606 0.90842 0.6085 0.0
O140 O 0.84058 0.89871 0.54738 0.0
C141 C 0.85658 0.02915 0.69354 0.0
O142 O 0.85978 0.94492 0.69061 0.0
C143 C 0.85644 0.93368 0.45398 0.0
C144 C 0.84893 0.0426 0.41548 0.0
C145 C 0.85514 0.95558 0.41679 0.0
N146 N 0.85114 0.00444 0.47371 0.0
N147 N 0.84664 0.06924 0.45047 0.0
C148 C 0.86311 0.84771 0.47067 0.0
H149 H 0.87227 0.85713 0.49823 0.0
H150 H 0.87473 0.81084 0.45251 0.0
H151 H 0.84677 0.80938 0.47416 0.0
C152 C 0.89716 0.10025 0.59835 0.0
N153 N 0.87565 0.07185 0.58611 0.0
N154 N 0.87469 0.06777 0.54986 0.0
C155 C 0.89537 0.0968 0.53769 0.0
C156 C 0.91042 0.11804 0.56807 0.0
C157 C 0.90563 0.09827 0.63822 0.0
H158 H 0.89756 0.04243 0.65214 0.0
H159 H 0.92518 0.09214 0.6416 0.0
H160 H 0.90003 0.15892 0.65185 0.0
O161 O 0.81918 0.08195 0.59307 0.0
O162 O 0.819 0.08439 0.53179 0.0
H163 H 0.91666 0.14293 0.49371 0.0
H164 H 0.90206 0.03913 0.4856 0.0
C165 C 0.90033 0.10492 0.49772 0.0
H166 H 0.88528 0.13822 0.48288 0.0
H167 H 0.84168 0.1315 0.45849 0.0
O168 O 0.85287 0.07458 0.66454 0.0
C169 C 0.80922 0.1002 0.56177 0.0
Co170 Co 0.14471 0.05936 0.53334 0.0
Co171 Co 0.14941 0.00193 0.616 0.0
C172 C 0.15365 0.87432 0.55487 0.0
O173 O 0.15022 0.93414 0.53101 0.0
O174 O 0.15282 0.89015 0.58931 0.0
C175 C 0.15195 0.07899 0.45846 0.0
O176 O 0.16984 0.02738 0.46764 0.0
C177 C 0.14243 0.91974 0.6886 0.0
C178 C 0.1592 0.01928 0.72548 0.0
C179 C 0.14824 0.93882 0.72547 0.0
N180 N 0.14965 0.98625 0.66795 0.0
N181 N 0.15949 0.04559 0.69023 0.0
C182 C 0.13153 0.83794 0.67313 0.0
H183 H 0.13498 0.83014 0.64364 0.0
H184 H 0.11204 0.84093 0.67547 0.0
H185 H 0.13844 0.78056 0.6888 0.0
C186 C 0.09825 0.11868 0.55574 0.0
N187 N 0.11992 0.08552 0.56371 0.0
N188 N 0.12213 0.06562 0.59893 0.0
C189 C 0.10209 0.08856 0.615 0.0
C190 C 0.08617 0.12271 0.58811 0.0
C191 C 0.08844 0.13403 0.51705 0.0
H192 H 0.09536 0.08436 0.49828 0.0
H193 H 0.06881 0.13085 0.51494 0.0
H194 H 0.09421 0.19894 0.50773 0.0
O195 O 0.17498 0.11365 0.55064 0.0
O196 O 0.17912 0.06364 0.60796 0.0
H197 H 0.08267 0.11445 0.66374 0.0
H198 H 0.09603 0.00765 0.66142 0.0
C199 C 0.09837 0.07764 0.65529 0.0
H200 H 0.11418 0.10127 0.67171 0.0
H201 H 0.16681 0.10359 0.68125 0.0
O202 O 0.13798 0.10162 0.48298 0.0
C203 C 0.18704 0.10507 0.58103 0.0
Co204 Co 0.84055 0.582 0.10413 0.0
Co205 Co 0.84648 0.48383 0.02873 0.0
C206 C 0.83221 0.38775 0.09385 0.0
O207 O 0.83264 0.45832 0.11233 0.0
O208 O 0.83818 0.38586 0.06045 0.0
C209 C 0.85346 0.61012 0.18063 0.0
O210 O 0.86541 0.53763 0.17694 0.0
C211 C 0.85281 0.36869 0.96396 0.0
C212 C 0.86511 0.46428 0.92377 0.0
C213 C 0.85991 0.37713 0.92803 0.0
N214 N 0.85389 0.44749 0.98015 0.0
N215 N 0.86109 0.50421 0.95582 0.0
C216 C 0.84608 0.28718 0.98322 0.0
H217 H 0.82685 0.28899 0.98799 0.0
H218 H 0.85584 0.28356 0.01056 0.0
H219 H 0.85011 0.22845 0.96695 0.0
C220 C 0.88959 0.63422 0.09132 0.0
N221 N 0.86927 0.59337 0.08089 0.0
N222 N 0.87241 0.54759 0.05089 0.0
C223 C 0.89525 0.55458 0.04232 0.0
C224 C 0.90679 0.6105 0.06744 0.0
C225 C 0.89241 0.6958 0.12323 0.0
H226 H 0.87568 0.73192 0.12655 0.0
H227 H 0.89684 0.65864 0.14886 0.0
H228 H 0.90697 0.74266 0.11909 0.0
O229 O 0.81445 0.63142 0.07343 0.0
O230 O 0.81707 0.5551 0.02176 0.0
H231 H 0.9063 0.53503 0.9875 0.0
H232 H 0.92536 0.48526 0.02269 0.0
C233 C 0.9066 0.49954 0.01412 0.0
H234 H 0.89692 0.43732 0.01012 0.0
H235 H 0.8633 0.57045 0.96117 0.0
O236 O 0.84172 0.64125 0.15279 0.0
C237 C 0.80657 0.61081 0.04109 0.0
Co238 Co 0.14455 0.572 0.03599 0.0
Co239 Co 0.14597 0.49328 0.11529 0.0
C240 C 0.15163 0.37909 0.05179 0.0
O241 O 0.15016 0.44562 0.03088 0.0
O242 O 0.14896 0.38552 0.08638 0.0
C243 C 0.14744 0.59033 0.95858 0.0
O244 O 0.16111 0.52151 0.9624 0.0
C245 C 0.14614 0.39874 0.1859 0.0
C246 C 0.1418 0.50805 0.22465 0.0
C247 C 0.14449 0.41876 0.223 0.0
N248 N 0.1441 0.47296 0.16655 0.0
N249 N 0.14167 0.53797 0.18986 0.0
C250 C 0.15209 0.31295 0.16929 0.0
H251 H 0.16572 0.32234 0.14877 0.0
H252 H 0.13599 0.28578 0.15465 0.0
H253 H 0.15896 0.26613 0.19049 0.0
C254 C 0.09795 0.63149 0.05727 0.0
N255 N 0.11913 0.59441 0.06541 0.0
N256 N 0.11906 0.55798 0.09814 0.0
C257 C 0.09746 0.56855 0.11149 0.0
C258 C 0.08355 0.61661 0.08626 0.0
C259 C 0.09069 0.66935 0.02038 0.0
H260 H 0.10384 0.71895 0.0129 0.0
H261 H 0.09055 0.61726 0.99918 0.0
H262 H 0.07284 0.69952 0.02032 0.0
O263 O 0.174 0.62321 0.05698 0.0
O264 O 0.17627 0.5563 0.11121 0.0
H265 H 0.09521 0.56478 0.17001 0.0
H266 H 0.06982 0.51964 0.14512 0.0
C267 C 0.08941 0.52524 0.14559 0.0
H268 H 0.09746 0.4597 0.14858 0.0
H269 H 0.14014 0.60302 0.18197 0.0
O270 O 0.13833 0.62243 0.98676 0.0
C271 C 0.1851 0.60563 0.08746 0.0
C272 C 0.34731 0.29794 0.36704 0.0
C273 C 0.35912 0.37795 0.36816 0.0
C274 C 0.34761 0.24458 0.33568 0.0
C275 C 0.36021 0.27195 0.30505 0.0
C276 C 0.37315 0.35074 0.3069 0.0
C277 C 0.37219 0.40339 0.33832 0.0
C278 C 0.33328 0.16173 0.33448 0.0
C279 C 0.38708 0.38147 0.27502 0.0
C280 C 0.372 0.11364 0.2277 0.0
C281 C 0.35458 0.13842 0.20073 0.0
C282 C 0.37396 0.15584 0.26208 0.0
C283 C 0.35788 0.22326 0.26969 0.0
C284 C 0.33988 0.24685 0.24289 0.0
C285 C 0.33858 0.20461 0.20864 0.0
C286 C 0.39354 0.12987 0.28988 0.0
C287 C 0.32218 0.31762 0.25016 0.0
H288 H 0.33676 0.27921 0.38982 0.0
H289 H 0.3813 0.46544 0.33931 0.0
H290 H 0.31791 0.16903 0.31434 0.0
H291 H 0.34408 0.10666 0.32501 0.0
H292 H 0.32656 0.14523 0.36182 0.0
H293 H 0.39826 0.4389 0.28245 0.0
H294 H 0.39865 0.32863 0.26551 0.0
H295 H 0.3747 0.39929 0.25143 0.0
H296 H 0.38447 0.06272 0.22162 0.0
H297 H 0.32495 0.22349 0.18799 0.0
H298 H 0.38604 0.11232 0.31651 0.0
H299 H 0.40566 0.1857 0.29533 0.0
H300 H 0.40404 0.07404 0.28024 0.0
H301 H 0.31311 0.30337 0.27586 0.0
H302 H 0.30854 0.32494 0.22712 0.0
H303 H 0.3315 0.38061 0.25427 0.0
C304 C 0.63757 0.73681 0.2459 0.0
C305 C 0.64145 0.82664 0.24864 0.0
C306 C 0.64009 0.6832 0.2773 0.0
C307 C 0.64655 0.72056 0.31215 0.0
C308 C 0.65077 0.81106 0.31485 0.0
C309 C 0.64806 0.86287 0.28315 0.0
C310 C 0.63531 0.58708 0.27338 0.0
C311 C 0.6578 0.85357 0.3514 0.0
C312 C 0.63106 0.61825 0.40293 0.0
C313 C 0.65313 0.58613 0.41633 0.0
C314 C 0.62838 0.65817 0.36815 0.0
C315 C 0.64826 0.66641 0.34623 0.0
C316 C 0.6703 0.63036 0.35882 0.0
C317 C 0.67247 0.59056 0.39369 0.0
C318 C 0.60453 0.69537 0.35568 0.0
C319 C 0.69191 0.63772 0.33628 0.0
H320 H 0.63188 0.70876 0.21948 0.0
H321 H 0.65109 0.93228 0.28542 0.0
H322 H 0.65064 0.54931 0.28519 0.0
H323 H 0.61974 0.56935 0.28915 0.0
H324 H 0.63178 0.56738 0.24412 0.0
H325 H 0.66114 0.92433 0.34858 0.0
H326 H 0.64356 0.84437 0.37092 0.0
H327 H 0.67407 0.82254 0.36385 0.0
H328 H 0.61596 0.61464 0.42008 0.0
H329 H 0.68957 0.56559 0.4037 0.0
H330 H 0.59942 0.67373 0.32717 0.0
H331 H 0.6056 0.76736 0.35529 0.0
H332 H 0.59037 0.67608 0.37412 0.0
H333 H 0.68771 0.61615 0.30747 0.0
H334 H 0.70703 0.59865 0.34808 0.0
H335 H 0.69752 0.70671 0.33516 0.0
C336 C 0.34234 0.70927 0.70617 0.0
C337 C 0.35345 0.62851 0.70242 0.0
C338 C 0.34256 0.75165 0.74037 0.0
C339 C 0.35452 0.71296 0.7715 0.0
C340 C 0.36574 0.63133 0.76798 0.0
C341 C 0.36492 0.58965 0.73346 0.0
C342 C 0.33011 0.83815 0.74312 0.0
C343 C 0.37891 0.58885 0.80052 0.0
C344 C 0.37303 0.87358 0.84677 0.0
C345 C 0.35509 0.86263 0.87148 0.0
C346 C 0.37374 0.82202 0.81498 0.0
C347 C 0.3557 0.75966 0.80739 0.0
C348 C 0.33779 0.74718 0.83272 0.0
C349 C 0.33776 0.79874 0.86465 0.0
C350 C 0.39329 0.83644 0.78888 0.0
C351 C 0.31802 0.6825 0.8252 0.0
H352 H 0.33327 0.73934 0.68235 0.0
H353 H 0.3736 0.52735 0.73067 0.0
H354 H 0.31699 0.83535 0.76477 0.0
H355 H 0.34315 0.88945 0.75133 0.0
H356 H 0.32078 0.85755 0.71663 0.0
H357 H 0.38636 0.52458 0.79334 0.0
H358 H 0.39363 0.63153 0.81093 0.0
H359 H 0.3669 0.58001 0.82342 0.0
H360 H 0.38637 0.92331 0.85214 0.0
H361 H 0.3236 0.79175 0.88342 0.0
H362 H 0.38575 0.86412 0.76255 0.0
H363 H 0.40178 0.77372 0.78224 0.0
H364 H 0.40714 0.88147 0.80052 0.0
H365 H 0.30688 0.7035 0.80067 0.0
H366 H 0.30652 0.67598 0.84894 0.0
H367 H 0.32537 0.61771 0.81881 0.0
C368 C 0.62321 0.3853 0.77017 0.0
C369 C 0.64218 0.44034 0.76317 0.0
C370 C 0.62382 0.33244 0.8018 0.0
C371 C 0.64367 0.3364 0.82738 0.0
C372 C 0.66248 0.39433 0.82105 0.0
C373 C 0.6615 0.4456 0.78903 0.0
C374 C 0.60337 0.27184 0.80767 0.0
C375 C 0.68381 0.40136 0.84787 0.0
C376 C 0.63806 0.25472 0.92545 0.0
C377 C 0.64928 0.17342 0.92426 0.0
C378 C 0.63586 0.30804 0.89404 0.0
C379 C 0.64498 0.27923 0.86055 0.0
C380 C 0.65599 0.19672 0.859 0.0
C381 C 0.65806 0.14492 0.89088 0.0
C382 C 0.62415 0.39583 0.89688 0.0
C383 C 0.66582 0.16355 0.82374 0.0
H384 H 0.60778 0.38401 0.75107 0.0
H385 H 0.67609 0.48886 0.78385 0.0
H386 H 0.60981 0.20375 0.80919 0.0
H387 H 0.59551 0.28668 0.83433 0.0
H388 H 0.58925 0.2766 0.78521 0.0
H389 H 0.69658 0.45155 0.83947 0.0
H390 H 0.6781 0.41767 0.87583 0.0
H391 H 0.69311 0.33791 0.84993 0.0
H392 H 0.63121 0.27735 0.95109 0.0
H393 H 0.66668 0.08214 0.88964 0.0
H394 H 0.60919 0.4015 0.8759 0.0
H395 H 0.63703 0.44782 0.8911 0.0
H396 H 0.61733 0.40747 0.92462 0.0
H397 H 0.65173 0.16341 0.80119 0.0
H398 H 0.67316 0.09679 0.82677 0.0
H399 H 0.68009 0.20744 0.81515 0.0
C400 C 0.86573 0.02819 0.76213 0.0
C401 C 0.85717 0.072 0.73021 0.0
C402 C 0.8667 0.06967 0.79677 0.0
C403 C 0.85865 0.15649 0.79953 0.0
C404 C 0.84962 0.20036 0.76747 0.0
C405 C 0.84914 0.15785 0.73325 0.0
C406 C 0.87669 0.02124 0.83028 0.0
C407 C 0.84063 0.29268 0.76924 0.0
C408 C 0.84149 0.25636 0.89019 0.0
C409 C 0.86083 0.31126 0.89848 0.0
C410 C 0.84095 0.20243 0.85885 0.0
C411 C 0.86028 0.2033 0.83553 0.0
C412 C 0.8803 0.25581 0.84485 0.0
C413 C 0.8802 0.30991 0.87599 0.0
C414 C 0.81913 0.1484 0.84958 0.0
C415 C 0.90139 0.25788 0.82101 0.0
H416 H 0.87201 0.96192 0.75999 0.0
H417 H 0.84233 0.19205 0.70879 0.0
H418 H 0.89263 0.05544 0.84214 0.0
H419 H 0.86354 0.01993 0.85191 0.0
H420 H 0.88165 0.95335 0.82369 0.0
H421 H 0.83323 0.31623 0.74204 0.0
H422 H 0.82665 0.29751 0.78948 0.0
H423 H 0.85527 0.33661 0.77882 0.0
H424 H 0.82627 0.25885 0.90711 0.0
H425 H 0.89513 0.35261 0.8824 0.0
H426 H 0.82414 0.08036 0.84356 0.0
H427 H 0.8097 0.17461 0.82435 0.0
H428 H 0.80671 0.1483 0.87229 0.0
H429 H 0.9074 0.19087 0.81516 0.0
H430 H 0.91651 0.29482 0.83414 0.0
H431 H 0.89624 0.28872 0.79411 0.0
C432 C 0.13215 0.71396 0.91978 0.0
C433 C 0.14416 0.63423 0.92252 0.0
C434 C 0.13079 0.76059 0.88661 0.0
C435 C 0.14155 0.72623 0.85544 0.0
C436 C 0.15269 0.64389 0.8575 0.0
C437 C 0.15394 0.59888 0.89112 0.0
C438 C 0.11887 0.84849 0.88547 0.0
C439 C 0.16414 0.605 0.82462 0.0
C440 C 0.12652 0.82908 0.76208 0.0
C441 C 0.1461 0.88369 0.75842 0.0
C442 C 0.12487 0.77633 0.79336 0.0
C443 C 0.14302 0.77992 0.82179 0.0
C444 C 0.1626 0.83609 0.81852 0.0
C445 C 0.16389 0.88725 0.78684 0.0
C446 C 0.10372 0.71723 0.7961 0.0
C447 C 0.1822 0.84226 0.84848 0.0
H448 H 0.12443 0.74148 0.9439 0.0
H449 H 0.16305 0.53691 0.89298 0.0
H450 H 0.13232 0.89988 0.88192 0.0
H451 H 0.10583 0.85263 0.86153 0.0
H452 H 0.10961 0.86244 0.91107 0.0
H453 H 0.17008 0.53705 0.82976 0.0
H454 H 0.15159 0.60593 0.80001 0.0
H455 H 0.17976 0.64456 0.81795 0.0
H456 H 0.11227 0.82849 0.74092 0.0
H457 H 0.17903 0.92961 0.78417 0.0
H458 H 0.09366 0.73571 0.82034 0.0
H459 H 0.10971 0.64913 0.80039 0.0
H460 H 0.09156 0.71989 0.77099 0.0
H461 H 0.17477 0.86224 0.87489 0.0
H462 H 0.19615 0.88956 0.84164 0.0
H463 H 0.19059 0.77769 0.85302 0.0
C464 C 0.86919 0.92909 0.35385 0.0
C465 C 0.85735 0.89887 0.38425 0.0
C466 C 0.86984 0.87944 0.32143 0.0
C467 C 0.85785 0.79865 0.31913 0.0
C468 C 0.84606 0.76745 0.34996 0.0
C469 C 0.84605 0.81785 0.38225 0.0
C470 C 0.88291 0.91433 0.28938 0.0
C471 C 0.8327 0.68246 0.34834 0.0
C472 C 0.83759 0.72132 0.22306 0.0
C473 C 0.85444 0.65713 0.21629 0.0
C474 C 0.83833 0.76696 0.25661 0.0
C475 C 0.85661 0.74905 0.28383 0.0
C476 C 0.87373 0.68456 0.27711 0.0
C477 C 0.87232 0.63882 0.24352 0.0
C478 C 0.81953 0.83436 0.26292 0.0
C479 C 0.8937 0.66467 0.30522 0.0
H480 H 0.87784 0.99198 0.35539 0.0
H481 H 0.83633 0.79544 0.40536 0.0
H482 H 0.89564 0.86512 0.28002 0.0
H483 H 0.87016 0.92795 0.26575 0.0
H484 H 0.89276 0.97504 0.29656 0.0
H485 H 0.8254 0.66547 0.37524 0.0
H486 H 0.81782 0.68655 0.32713 0.0
H487 H 0.84447 0.62903 0.34003 0.0
H488 H 0.82365 0.73545 0.20219 0.0
H489 H 0.88549 0.58968 0.23835 0.0
H490 H 0.82786 0.89912 0.26711 0.0
H491 H 0.81032 0.81869 0.28834 0.0
H492 H 0.80612 0.83865 0.23942 0.0
H493 H 0.90435 0.72416 0.31108 0.0
H494 H 0.90562 0.6128 0.29573 0.0
H495 H 0.88641 0.64392 0.3316 0.0
C496 C 0.16625 0.09982 0.39515 0.0
C497 C 0.14927 0.11643 0.42104 0.0
C498 C 0.16515 0.1418 0.36083 0.0
C499 C 0.1466 0.20148 0.35234 0.0
C500 C 0.12881 0.21551 0.37767 0.0
C501 C 0.13036 0.17276 0.41177 0.0
C502 C 0.18437 0.12519 0.33434 0.0
C503 C 0.10871 0.27859 0.36947 0.0
C504 C 0.15787 0.38805 0.28792 0.0
C505 C 0.14589 0.36042 0.25519 0.0
C506 C 0.15858 0.336 0.31956 0.0
C507 C 0.14684 0.25474 0.3184 0.0
C508 C 0.13479 0.22625 0.28536 0.0
C509 C 0.13435 0.27985 0.25408 0.0
C510 C 0.1716 0.36856 0.35437 0.0
C511 C 0.12196 0.14019 0.2833 0.0
H512 H 0.18084 0.05597 0.40208 0.0
H513 H 0.11706 0.18536 0.43156 0.0
H514 H 0.17646 0.10922 0.3065 0.0
H515 H 0.19515 0.18487 0.33161 0.0
H516 H 0.19634 0.07133 0.34369 0.0
H517 H 0.09528 0.27656 0.39072 0.0
H518 H 0.11584 0.34565 0.36828 0.0
H519 H 0.0998 0.26423 0.34213 0.0
H520 H 0.1667 0.45062 0.28876 0.0
H521 H 0.12447 0.2597 0.22908 0.0
H522 H 0.18529 0.3208 0.364 0.0
H523 H 0.15904 0.37566 0.37665 0.0
H524 H 0.18035 0.43222 0.35029 0.0
H525 H 0.13419 0.08691 0.29225 0.0
H526 H 0.11449 0.12563 0.255 0.0
H527 H 0.10728 0.14064 0.30241 0.0
C528 C 0.54275 0.14301 0.10012 0.0
C529 C 0.55512 0.11427 0.07003 0.0
C530 C 0.51803 0.15221 0.09712 0.0
C531 C 0.50561 0.13158 0.06329 0.0
C532 C 0.51815 0.10388 0.03266 0.0
C533 C 0.54281 0.09526 0.03648 0.0
C534 C 0.50517 0.18182 0.13031 0.0
C535 C 0.50546 0.0807 0.99623 0.0
C536 C 0.44198 0.05644 0.0635 0.0
C537 C 0.42987 0.13044 0.05058 0.0
C538 C 0.46669 0.0567 0.0686 0.0
C539 C 0.47939 0.13297 0.06046 0.0
C540 C 0.46707 0.20857 0.04803 0.0
C541 C 0.44227 0.2064 0.04328 0.0
C542 C 0.47921 0.97494 0.08198 0.0
C543 C 0.48012 0.29083 0.0391 0.0
H544 H 0.55243 0.15768 0.12601 0.0
H545 H 0.55243 0.07142 0.01346 0.0
H546 H 0.49364 0.23823 0.12294 0.0
H547 H 0.49352 0.12892 0.13947 0.0
H548 H 0.51757 0.2004 0.15383 0.0
H549 H 0.51797 0.06515 0.97456 0.0
H550 H 0.49386 0.02355 0.9999 0.0
H551 H 0.49392 0.13521 0.9864 0.0
H552 H 0.43205 0.99817 0.06932 0.0
H553 H 0.43258 0.26346 0.03348 0.0
H554 H 0.49067 0.98896 0.10709 0.0
H555 H 0.49087 0.95084 0.06055 0.0
H556 H 0.4666 0.92245 0.08847 0.0
H557 H 0.49176 0.31127 0.06318 0.0
H558 H 0.46784 0.34501 0.03135 0.0
H559 H 0.49169 0.2787 0.01588 0.0
C560 C 0.44341 0.72537 0.56143 0.0
C561 C 0.43366 0.65175 0.54365 0.0
C562 C 0.46805 0.73455 0.56716 0.0
C563 C 0.48314 0.67024 0.55334 0.0
C564 C 0.47335 0.59865 0.53329 0.0
C565 C 0.44871 0.58922 0.52949 0.0
C566 C 0.47782 0.81017 0.58972 0.0
C567 C 0.48886 0.53 0.51709 0.0
C568 C 0.54879 0.70614 0.54377 0.0
C569 C 0.55845 0.65119 0.57147 0.0
C570 C 0.52418 0.71614 0.53826 0.0
C571 C 0.50905 0.67302 0.56212 0.0
C572 C 0.51884 0.62352 0.59208 0.0
C573 C 0.54341 0.61148 0.59587 0.0
C574 C 0.51441 0.76734 0.50536 0.0
C575 C 0.5033 0.57888 0.61888 0.0
H576 H 0.43171 0.77404 0.57212 0.0
H577 H 0.44125 0.53132 0.51639 0.0
H578 H 0.48581 0.78577 0.61638 0.0
H579 H 0.49208 0.84336 0.57531 0.0
H580 H 0.4639 0.85846 0.59561 0.0
H581 H 0.47857 0.48522 0.49828 0.0
H582 H 0.50302 0.56072 0.50154 0.0
H583 H 0.49762 0.49101 0.53964 0.0
H584 H 0.56045 0.738 0.52525 0.0
H585 H 0.55069 0.56767 0.61692 0.0
H586 H 0.5004 0.81287 0.51348 0.0
H587 H 0.50615 0.72194 0.48463 0.0
H588 H 0.52842 0.80486 0.49207 0.0
H589 H 0.48929 0.62371 0.62772 0.0
H590 H 0.51366 0.55525 0.64381 0.0
H591 H 0.49437 0.52236 0.60518 0.0
C592 C 0.04628 0.08637 0.60998 0.0
C593 C 0.06077 0.14301 0.59113 0.0
C594 C 0.02165 0.09728 0.60842 0.0
C595 C 0.01126 0.16396 0.58608 0.0
C596 C 0.02585 0.22392 0.56842 0.0
C597 C 0.05054 0.21372 0.57185 0.0
C598 C 0.0067 0.03385 0.62879 0.0
C599 C 0.01545 0.29441 0.54356 0.0
C600 C 0.9511 0.09409 0.54658 0.0
C601 C 0.93593 0.14 0.56883 0.0
C602 C 0.97564 0.10667 0.55008 0.0
C603 C 0.98528 0.16336 0.57776 0.0
C604 C 0.97004 0.21209 0.59953 0.0
C605 C 0.94544 0.20109 0.59422 0.0
C606 C 0.99131 0.05566 0.52543 0.0
C607 C 0.97965 0.27117 0.63003 0.0
H608 H 0.05401 0.03076 0.62443 0.0
H609 H 0.06181 0.25826 0.5577 0.0
H610 H 0.99263 0.06861 0.64312 0.0
H611 H -0.00216 0.98812 0.6088 0.0
H612 H 0.01748 0.99539 0.64946 0.0
H613 H 0.02899 0.34278 0.53619 0.0
H614 H 0.0078 0.26451 0.51772 0.0
H615 H 0.00087 0.32873 0.55678 0.0
H616 H 0.94392 0.04548 0.52745 0.0
H617 H 0.93367 0.2374 0.61114 0.0
H618 H 0.00068 0.00388 0.54172 0.0
H619 H 0.00498 0.09852 0.51421 0.0
H620 H 0.981 0.02469 0.50199 0.0
H621 H 0.98775 0.23113 0.65282 0.0
H622 H 0.96558 0.31231 0.6413 0.0
H623 H 0.99377 0.31391 0.62013 0.0
C624 C 0.94483 0.65117 0.04045 0.0
C625 C 0.93242 0.62848 0.07136 0.0
C626 C 0.96958 0.65882 0.04302 0.0
C627 C 0.98199 0.64379 0.07739 0.0
C628 C 0.96937 0.62509 0.10906 0.0
C629 C 0.94468 0.61703 0.10559 0.0
C630 C 0.9825 0.67853 0.00864 0.0
C631 C 0.98202 0.60888 0.14619 0.0
C632 C 0.04385 0.55106 0.07651 0.0
C633 C 0.05768 0.62447 0.0847 0.0
C634 C 0.01913 0.55687 0.07374 0.0
C635 C 0.00816 0.63816 0.07945 0.0
C636 C 0.02217 0.71273 0.08763 0.0
C637 C 0.04695 0.705 0.08997 0.0
C638 C 0.00477 0.47605 0.06471 0.0
C639 C 0.01099 0.80013 0.09407 0.0
H640 H 0.93521 0.66066 0.01407 0.0
H641 H 0.93511 0.59796 0.12936 0.0
H642 H 0.99533 0.73223 0.0139 0.0
H643 H 0.99276 0.62055 0.00074 0.0
H644 H 0.97017 0.69666 0.98498 0.0
H645 H 0.96953 0.60476 0.16874 0.0
H646 H 0.99204 0.54694 0.14532 0.0
H647 H 0.99503 0.66135 0.15287 0.0
H648 H 0.05247 0.48921 0.07207 0.0
H649 H 0.05795 0.76152 0.096 0.0
H650 H 0.99324 0.48664 0.03935 0.0
H651 H 0.99301 0.46164 0.08745 0.0
H652 H 0.01613 0.41837 0.06041 0.0
H653 H -0.00033 0.81939 0.06947 0.0
H654 H 0.02442 0.85171 0.09997 0.0
H655 H -0.00067 0.79608 0.11767 0.0
C656 C 0.17122 0.3017 0.00148 0.0
C657 C 0.16326 0.3006 0.03751 0.0
C658 C 0.19128 0.25405 0.99268 0.0
C659 C 0.203 0.2027 0.02031 0.0
C660 C 0.19213 0.18781 0.05398 0.0
C661 C 0.17226 0.23728 0.0623 0.0
C662 C 0.2018 0.26914 0.95588 0.0
C663 C 0.20337 0.12924 0.08332 0.0
C664 C 0.26109 0.08735 0.00459 0.0
C665 C 0.27741 0.14557 0.02155 0.0
C666 C 0.23669 0.10539 0.00297 0.0
C667 C 0.22866 0.18414 0.01811 0.0
C668 C 0.24529 0.24529 0.03331 0.0
C669 C 0.26945 0.22461 0.03526 0.0
C670 C 0.21964 0.0376 0.98732 0.0
C671 C 0.23756 0.3312 0.04901 0.0
H672 H 0.1637 0.34769 0.98148 0.0
H673 H 0.16564 0.23323 0.08973 0.0
H674 H 0.21623 0.31791 0.95935 0.0
H675 H 0.20959 0.20852 0.94526 0.0
H676 H 0.18836 0.29417 0.93503 0.0
H677 H 0.19054 0.11044 0.10406 0.0
H678 H 0.21051 0.06955 0.07083 0.0
H679 H 0.21838 0.16387 0.09788 0.0
H680 H 0.26723 0.0253 0.99461 0.0
H681 H 0.28212 0.26938 0.0484 0.0
H682 H 0.20392 0.06753 0.9727 0.0
H683 H 0.21327 0.99787 0.01029 0.0
H684 H 0.22834 0.99327 0.968 0.0
H685 H 0.22586 0.3663 0.02846 0.0
H686 H 0.25283 0.37386 0.05718 0.0
H687 H 0.22725 0.31958 0.07372 0.0
C688 C 0.76743 0.5914 0.00665 0.0
C689 C 0.78308 0.64396 0.02819 0.0
C690 C 0.74347 0.61461 0.00065 0.0
C691 C 0.73523 0.69243 0.01633 0.0
C692 C 0.75142 0.74851 0.03589 0.0
C693 C 0.7751 0.72319 0.04177 0.0
C694 C 0.7269 0.55278 0.97977 0.0
C695 C 0.74351 0.83327 0.05243 0.0
C696 C 0.67974 0.82033 0.99614 0.0
C697 C 0.66917 0.81122 0.03011 0.0
C698 C 0.70003 0.77247 0.98858 0.0
C699 C 0.70959 0.71391 0.01543 0.0
C700 C 0.69648 0.69321 0.04642 0.0
C701 C 0.67631 0.74229 0.05344 0.0
C702 C 0.71295 0.79354 0.95438 0.0
C703 C 0.70552 0.62783 0.07481 0.0
H704 H 0.77351 0.52953 0.9964 0.0
H705 H 0.78723 0.76407 0.05821 0.0
H706 H 0.71876 0.50876 0.99971 0.0
H707 H 0.71238 0.58768 0.96417 0.0
H708 H 0.73656 0.51199 0.96024 0.0
H709 H 0.75863 0.87185 0.06459 0.0
H710 H 0.73389 0.87336 0.03108 0.0
H711 H 0.73113 0.81995 0.07447 0.0
H712 H 0.67384 0.87127 0.97719 0.0
H713 H 0.66777 0.73257 0.07917 0.0
H714 H 0.72093 0.73429 0.94279 0.0
H715 H 0.72754 0.83978 0.96168 0.0
H716 H 0.70096 0.82407 0.93278 0.0
H717 H 0.71262 0.56945 0.06124 0.0
H718 H 0.6914 0.60738 0.09313 0.0
H719 H 0.72019 0.65726 0.09219 0.0
C720 C 0.21674 0.71439 0.07877 0.0
C721 C 0.20975 0.63516 0.09346 0.0
C722 C 0.24058 0.73937 0.08088 0.0
C723 C 0.2579 0.68239 0.09724 0.0
C724 C 0.25088 0.60268 0.11264 0.0
C725 C 0.22677 0.58031 0.11084 0.0
C726 C 0.24725 0.82606 0.06478 0.0
C727 C 0.26875 0.53896 0.12929 0.0
C728 C 0.31495 0.74854 0.05801 0.0
C729 C 0.32204 0.81357 0.0834 0.0
C730 C 0.29557 0.69492 0.06456 0.0
C731 C 0.28323 0.70744 0.09706 0.0
C732 C 0.29297 0.76173 0.12543 0.0
C733 C 0.31254 0.81377 0.11839 0.0
C734 C 0.28643 0.63373 0.03454 0.0
C735 C 0.28078 0.77453 0.16105 0.0
H736 H 0.20353 0.75656 0.06532 0.0
H737 H 0.22138 0.51803 0.12155 0.0
H738 H 0.25767 0.86493 0.08572 0.0
H739 H 0.25853 0.8157 0.04106 0.0
H740 H 0.23148 0.86457 0.05506 0.0
H741 H 0.26041 0.49243 0.14806 0.0
H742 H 0.27642 0.50113 0.10677 0.0
H743 H 0.28355 0.57255 0.14479 0.0
H744 H 0.32273 0.74568 0.03137 0.0
H745 H 0.31848 0.86168 0.1388 0.0
H746 H 0.2714 0.66483 0.01856 0.0
H747 H 0.27981 0.57266 0.04652 0.0
H748 H 0.30036 0.61766 0.01516 0.0
H749 H 0.26536 0.81848 0.15598 0.0
H750 H 0.29285 0.80412 0.18278 0.0
H751 H 0.27404 0.71196 0.17141 0.0
C752 C 0.71331 0.22049 0.09441 0.0
C753 C 0.70543 0.14173 0.10849 0.0
C754 C 0.73695 0.24632 0.10019 0.0
C755 C 0.7532 0.19117 0.12011 0.0
C756 C 0.7451 0.11349 0.13599 0.0
C757 C 0.72119 0.08982 0.13012 0.0
C758 C 0.74473 0.33087 0.0834 0.0
C759 C 0.76178 0.05245 0.15709 0.0
C760 C 0.81235 0.24407 0.08471 0.0
C761 C 0.81891 0.31339 0.10824 0.0
C762 C 0.79229 0.1939 0.09115 0.0
C763 C 0.77873 0.21402 0.12171 0.0
C764 C 0.78771 0.27316 0.14881 0.0
C765 C 0.80789 0.32206 0.14186 0.0
C766 C 0.78387 0.12794 0.06254 0.0
C767 C 0.77425 0.29372 0.18255 0.0
H768 H 0.7011 0.26083 0.07786 0.0
H769 H 0.7152 0.02823 0.14072 0.0
H770 H 0.75406 0.37192 0.10474 0.0
H771 H 0.75734 0.3174 0.06168 0.0
H772 H 0.72958 0.36855 0.07079 0.0
H773 H 0.75215 0.01096 0.17636 0.0
H774 H 0.7703 0.0091 0.13725 0.0
H775 H 0.77602 0.08811 0.17301 0.0
H776 H 0.82123 0.23482 0.05925 0.0
H777 H 0.81335 0.3735 0.16093 0.0
H778 H 0.76936 0.15668 0.04461 0.0
H779 H 0.77673 0.06941 0.07588 0.0
H780 H 0.79834 0.10789 0.04478 0.0
H781 H 0.75949 0.33882 0.17473 0.0
H782 H 0.78581 0.3253 0.20442 0.0
H783 H 0.76645 0.23405 0.19399 0.0
C784 C 0.17335 0.79037 0.50677 0.0
C785 C 0.16579 0.79462 0.54302 0.0
C786 C 0.19398 0.74504 0.49904 0.0
C787 C 0.20649 0.69994 0.5279 0.0
C788 C 0.19616 0.68951 0.56233 0.0
C789 C 0.17587 0.73766 0.56965 0.0
C790 C 0.20417 0.75755 0.46179 0.0
C791 C 0.2083 0.63756 0.59315 0.0
C792 C 0.2646 0.58704 0.51077 0.0
C793 C 0.28099 0.64814 0.52534 0.0
C794 C 0.24015 0.60273 0.51107 0.0
C795 C 0.23214 0.68247 0.52523 0.0
C796 C 0.24877 0.7461 0.53828 0.0
C797 C 0.27304 0.72729 0.53886 0.0
C798 C 0.22298 0.53264 0.49796 0.0
C799 C 0.24096 0.83314 0.55274 0.0
H800 H 0.16515 0.83175 0.48552 0.0
H801 H 0.16966 0.73808 0.59742 0.0
H802 H 0.21697 0.81233 0.46358 0.0
H803 H 0.21382 0.69903 0.45301 0.0
H804 H 0.19011 0.77363 0.44025 0.0
H805 H 0.1957 0.61888 0.61426 0.0
H806 H 0.21652 0.57791 0.58235 0.0
H807 H 0.22259 0.67739 0.60688 0.0
H808 H 0.27086 0.52488 0.50109 0.0
H809 H 0.28582 0.77392 0.55034 0.0
H810 H 0.21 0.55858 0.47672 0.0
H811 H 0.21274 0.51016 0.5214 0.0
H812 H 0.23211 0.4758 0.48625 0.0
H813 H 0.22824 0.86458 0.53251 0.0
H814 H 0.25612 0.87802 0.55847 0.0
H815 H 0.23176 0.82378 0.5787 0.0
C816 C 0.68451 0.28013 0.60351 0.0
C817 C 0.66959 0.29529 0.57191 0.0
C818 C 0.7058 0.23487 0.6011 0.0
C819 C 0.71157 0.19952 0.56675 0.0
C820 C 0.6948 0.20219 0.53634 0.0
C821 C 0.67406 0.25151 0.53905 0.0
C822 C 0.72328 0.23411 0.63421 0.0
C823 C 0.69973 0.15973 0.50006 0.0
C824 C 0.77689 0.20707 0.54831 0.0
C825 C 0.78421 0.12486 0.5604 0.0
C826 C 0.75301 0.23156 0.54944 0.0
C827 C 0.73622 0.17094 0.56179 0.0
C828 C 0.74357 0.08656 0.57266 0.0
C829 C 0.76762 0.06485 0.57219 0.0
C830 C 0.74595 0.32332 0.53891 0.0
C831 C 0.72613 0.0195 0.58494 0.0
H832 H 0.68117 0.31257 0.62924 0.0
H833 H 0.6624 0.26149 0.51468 0.0
H834 H 0.73019 0.16761 0.63955 0.0
H835 H 0.73863 0.27618 0.62854 0.0
H836 H 0.71531 0.25822 0.65962 0.0
H837 H 0.68333 0.15264 0.48197 0.0
H838 H 0.7125 0.19996 0.48535 0.0
H839 H 0.70783 0.09466 0.5047 0.0
H840 H 0.78993 0.25294 0.53928 0.0
H841 H 0.77355 0.00086 0.58113 0.0
H842 H 0.7377 0.35567 0.56238 0.0
H843 H 0.73254 0.32232 0.51541 0.0
H844 H 0.76129 0.363 0.53097 0.0
H845 H 0.71375 0.04765 0.60441 0.0
H846 H 0.73516 0.96296 0.59851 0.0
H847 H 0.7153 0.9961 0.56049 0.0
C848 C 0.22944 0.07769 0.59848 0.0
C849 C 0.21185 0.13365 0.58346 0.0
C850 C 0.25349 0.10017 0.59836 0.0
C851 C 0.25987 0.18158 0.58386 0.0
C852 C 0.24204 0.23893 0.56926 0.0
C853 C 0.21822 0.21339 0.5686 0.0
C854 C 0.27201 0.03606 0.61274 0.0
C855 C 0.24808 0.32733 0.55425 0.0
C856 C 0.31485 0.30923 0.60937 0.0
C857 C 0.32483 0.31404 0.57479 0.0
C858 C 0.29474 0.25828 0.61422 0.0
C859 C 0.28504 0.20896 0.58415 0.0
C860 C 0.29758 0.20152 0.55156 0.0
C861 C 0.31738 0.25467 0.54714 0.0
C862 C 0.28208 0.26742 0.64964 0.0
C863 C 0.28843 0.146 0.51956 0.0
H864 H 0.22442 0.01491 0.60915 0.0
H865 H 0.20453 0.25605 0.55681 0.0
H866 H 0.28272 0.01426 0.58972 0.0
H867 H 0.28436 0.06714 0.6336 0.0
H868 H 0.26401 0.97798 0.62531 0.0
H869 H 0.23201 0.36575 0.54604 0.0
H870 H 0.25883 0.36477 0.57529 0.0
H871 H 0.25885 0.31983 0.52976 0.0
H872 H 0.32091 0.35295 0.63137 0.0
H873 H 0.3254 0.25591 0.52067 0.0
H874 H 0.27491 0.2042 0.65847 0.0
H875 H 0.26689 0.31263 0.64499 0.0
H876 H 0.29394 0.29386 0.67239 0.0
H877 H 0.28098 0.08405 0.5294 0.0
H878 H 0.30261 0.13125 0.50043 0.0
H879 H 0.27402 0.18122 0.50382 0.0
C880 C 0.71881 0.70835 0.56474 0.0
C881 C 0.71063 0.63007 0.57855 0.0
C882 C 0.74319 0.72564 0.5653 0.0
C883 C 0.75958 0.66183 0.57902 0.0
C884 C 0.75127 0.58078 0.59126 0.0
C885 C 0.72679 0.56632 0.59132 0.0
C886 C 0.75138 0.81303 0.55203 0.0
C887 C 0.76816 0.50919 0.60371 0.0
C888 C 0.81981 0.73387 0.55257 0.0
C889 C 0.82671 0.78385 0.5837 0.0
C890 C 0.79924 0.68268 0.55221 0.0
C891 C 0.78512 0.68426 0.58324 0.0
C892 C 0.7939 0.72411 0.61639 0.0
C893 C 0.815 0.77171 0.61646 0.0
C894 C 0.79131 0.63545 0.51723 0.0
C895 C 0.77946 0.72739 0.65023 0.0
H896 H 0.70613 0.75646 0.55426 0.0
H897 H 0.7202 0.50444 0.60078 0.0
H898 H 0.73635 0.85549 0.54261 0.0
H899 H 0.76189 0.8463 0.57459 0.0
H900 H 0.76309 0.80456 0.52874 0.0
H901 H 0.7588 0.45254 0.61508 0.0
H902 H 0.77808 0.48685 0.57988 0.0
H903 H 0.78142 0.53328 0.62497 0.0
H904 H 0.82917 0.74082 0.52746 0.0
H905 H 0.82045 0.80849 0.64098 0.0
H906 H 0.77877 0.677 0.50054 0.0
H907 H 0.78201 0.57412 0.52348 0.0
H908 H 0.80657 0.62035 0.50024 0.0
H909 H 0.76436 0.7728 0.64509 0.0
H910 H 0.79011 0.75021 0.67502 0.0
H911 H 0.77199 0.66269 0.65626 0.0
loop_
_geom_bond_atom_site_label_1
_geom_bond_atom_site_label_2
_geom_bond_distance
_geom_bond_site_symmetry_2
_ccdc_geom_bond_type
Co0 O3 1.970 1_545 S
Co0 N17 1.989 . S
Co0 O25 1.967 . S
Co0 O32 1.920 . S
Co1 O4 1.966 1_545 S
Co1 N10 2.022 1_544 S
Co1 N18 1.993 . S
Co1 O26 1.941 . S
C2 O3 1.258 . S
C2 O4 1.263 . S
O3 Co0 1.970 1_565 S
O3 C2 1.258 . S
O4 Co1 1.966 1_565 S
O4 C2 1.263 . S
C5 O6 1.235 1_545 S
C5 O32 1.289 . S
O6 C5 1.235 1_565 S
C7 C9 1.400 . S
C7 N10 1.351 . S
C7 C12 1.501 . S
C8 C9 1.387 . S
C8 N11 1.341 1_565 S
C9 C7 1.400 . S
C9 C8 1.387 . S
N10 Co1 2.022 1_566 S
N10 C7 1.351 . S
N10 N11 1.365 1_565 S
N11 C8 1.341 1_545 S
N11 N10 1.365 1_545 S
N11 H31 0.862 . S
C12 C7 1.501 . S
C12 H13 0.961 . S
C12 H14 0.961 . S
C12 H15 0.960 . S
H13 C12 0.961 . S
H14 C12 0.961 . S
H15 C12 0.960 . S
C16 N17 1.342 . S
C16 C20 1.401 . S
C16 C21 1.499 . S
N17 Co0 1.989 . S
N17 C16 1.342 . S
N17 N18 1.388 . S
N18 Co1 1.993 . S
N18 N17 1.388 . S
N18 C19 1.346 . S
C19 N18 1.346 . S
C19 C20 1.396 . S
C19 C29 1.510 1_544 S
C20 C16 1.401 . S
C20 C19 1.396 . S
C21 C16 1.499 . S
C21 H22 0.959 . S
C21 H23 0.960 . S
C21 H24 0.961 . S
H22 C21 0.959 . S
H23 C21 0.960 . S
H24 C21 0.961 . S
O25 Co0 1.967 . S
O25 C33 1.258 . S
O26 Co1 1.941 . S
O26 C33 1.266 . S
H27 C29 0.959 1_545 S
H28 C29 0.961 . S
C29 C19 1.510 1_566 S
C29 H27 0.959 1_565 S
C29 H28 0.961 . S
C29 H30 0.960 . S
H30 C29 0.960 . S
H31 N11 0.862 . S
O32 Co0 1.920 . S
O32 C5 1.289 . S
C33 O25 1.258 . S
C33 O26 1.266 . S
Co34 O37 1.970 1_545 S
Co34 N51 1.989 . S
Co34 O59 1.967 . S
Co34 O66 1.920 1_554 S
Co35 O38 1.966 1_545 S
Co35 N44 2.022 1_545 S
Co35 N52 1.993 . S
Co35 O60 1.941 . S
C36 O37 1.258 . S
C36 O38 1.263 . S
O37 Co34 1.970 1_565 S
O37 C36 1.258 . S
O38 Co35 1.966 1_565 S
O38 C36 1.263 . S
C39 O40 1.235 1_545 S
C39 O66 1.289 . S
O40 C39 1.235 1_565 S
C41 C43 1.400 . S
C41 N44 1.351 . S
C41 C46 1.501 . S
C42 C43 1.387 . S
C42 N45 1.341 1_565 S
C43 C41 1.400 . S
C43 C42 1.387 . S
N44 Co35 2.022 1_565 S
N44 C41 1.351 . S
N44 N45 1.365 1_565 S
N45 C42 1.341 1_545 S
N45 N44 1.365 1_545 S
N45 H65 0.862 . S
C46 C41 1.501 . S
C46 H47 0.961 . S
C46 H48 0.961 . S
C46 H49 0.960 . S
H47 C46 0.961 . S
H48 C46 0.961 . S
H49 C46 0.960 . S
C50 N51 1.342 . S
C50 C54 1.401 . S
C50 C55 1.499 . S
N51 Co34 1.989 . S
N51 C50 1.342 . S
N51 N52 1.388 . S
N52 Co35 1.993 . S
N52 N51 1.388 . S
N52 C53 1.346 . S
C53 N52 1.346 . S
C53 C54 1.396 . S
C53 C63 1.510 1_545 S
C54 C50 1.401 . S
C54 C53 1.396 . S
C55 C50 1.499 . S
C55 H56 0.959 1_554 S
C55 H57 0.960 1_554 S
C55 H58 0.961 . S
H56 C55 0.959 1_556 S
H57 C55 0.960 1_556 S
H58 C55 0.961 . S
O59 Co34 1.967 . S
O59 C67 1.258 . S
O60 Co35 1.941 . S
O60 C67 1.266 . S
H61 C63 0.959 1_545 S
H62 C63 0.961 . S
C63 C53 1.510 1_565 S
C63 H61 0.959 1_565 S
C63 H62 0.961 . S
C63 H64 0.960 . S
H64 C63 0.960 . S
H65 N45 0.862 . S
O66 Co34 1.920 1_556 S
O66 C39 1.289 . S
C67 O59 1.258 . S
C67 O60 1.266 . S
Co68 O71 1.970 . S
Co68 N85 1.989 . S
Co68 O93 1.967 . S
Co68 O100 1.920 . S
Co69 O72 1.966 . S
Co69 N78 2.022 . S
Co69 N86 1.993 . S
Co69 O94 1.941 . S
C70 O71 1.258 . S
C70 O72 1.263 . S
O71 Co68 1.970 . S
O71 C70 1.258 . S
O72 Co69 1.966 . S
O72 C70 1.263 . S
C73 O74 1.235 . S
C73 O100 1.289 . S
O74 C73 1.235 . S
C75 C77 1.400 . S
C75 N78 1.351 . S
C75 C80 1.501 . S
C76 C77 1.387 . S
C76 N79 1.341 . S
C77 C75 1.400 . S
C77 C76 1.387 . S
N78 Co69 2.022 . S
N78 C75 1.351 . S
N78 N79 1.365 . S
N79 C76 1.341 . S
N79 N78 1.365 . S
N79 H99 0.862 . S
C80 C75 1.501 . S
C80 H81 0.961 . S
C80 H82 0.961 . S
C80 H83 0.960 . S
H81 C80 0.961 . S
H82 C80 0.961 . S
H83 C80 0.960 . S
C84 N85 1.342 . S
C84 C88 1.401 . S
C84 C89 1.499 . S
N85 Co68 1.989 . S
N85 C84 1.342 . S
N85 N86 1.388 . S
N86 Co69 1.993 . S
N86 N85 1.388 . S
N86 C87 1.346 . S
C87 N86 1.346 . S
C87 C88 1.396 . S
C87 C97 1.510 . S
C88 C84 1.401 . S
C88 C87 1.396 . S
C89 C84 1.499 . S
C89 H90 0.959 . S
C89 H91 0.960 . S
C89 H92 0.961 . S
H90 C89 0.959 . S
H91 C89 0.960 . S
H92 C89 0.961 . S
O93 Co68 1.967 . S
O93 C101 1.258 . S
O94 Co69 1.941 . S
O94 C101 1.266 . S
H95 C97 0.959 . S
H96 C97 0.961 . S
C97 C87 1.510 . S
C97 H95 0.959 . S
C97 H96 0.961 . S
C97 H98 0.960 . S
H98 C97 0.960 . S
H99 N79 0.862 . S
O100 Co68 1.920 . S
O100 C73 1.289 . S
C101 O93 1.258 . S
C101 O94 1.266 . S
Co102 O105 1.970 . S
Co102 N119 1.989 . S
Co102 O127 1.967 . S
Co102 O134 1.920 . S
Co103 O106 1.966 . S
Co103 N112 2.022 . S
Co103 N120 1.993 . S
Co103 O128 1.941 . S
C104 O105 1.258 . S
C104 O106 1.263 . S
O105 Co102 1.970 . S
O105 C104 1.258 . S
O106 Co103 1.966 . S
O106 C104 1.263 . S
C107 O108 1.235 . S
C107 O134 1.289 . S
O108 C107 1.235 . S
C109 C111 1.400 . S
C109 N112 1.351 . S
C109 C114 1.501 . S
C110 C111 1.387 . S
C110 N113 1.341 . S
C111 C109 1.400 . S
C111 C110 1.387 . S
N112 Co103 2.022 . S
N112 C109 1.351 . S
N112 N113 1.365 . S
N113 C110 1.341 . S
N113 N112 1.365 . S
N113 H133 0.862 . S
C114 C109 1.501 . S
C114 H115 0.961 . S
C114 H116 0.961 . S
C114 H117 0.960 . S
H115 C114 0.961 . S
H116 C114 0.961 . S
H117 C114 0.960 . S
C118 N119 1.342 . S
C118 C122 1.401 . S
C118 C123 1.499 . S
N119 Co102 1.989 . S
N119 C118 1.342 . S
N119 N120 1.388 . S
N120 Co103 1.993 . S
N120 N119 1.388 . S
N120 C121 1.346 . S
C121 N120 1.346 . S
C121 C122 1.396 . S
C121 C131 1.510 . S
C122 C118 1.401 . S
C122 C121 1.396 . S
C123 C118 1.499 . S
C123 H124 0.959 . S
C123 H125 0.960 . S
C123 H126 0.961 . S
H124 C123 0.959 . S
H125 C123 0.960 . S
H126 C123 0.961 . S
O127 Co102 1.967 . S
O127 C135 1.258 . S
O128 Co103 1.941 . S
O128 C135 1.266 . S
H129 C131 0.959 . S
H130 C131 0.961 . S
C131 C121 1.510 . S
C131 H129 0.959 . S
C131 H130 0.961 . S
C131 H132 0.960 . S
H132 C131 0.960 . S
H133 N113 0.862 . S
O134 Co102 1.920 . S
O134 C107 1.289 . S
C135 O127 1.258 . S
C135 O128 1.266 . S
Co136 O139 1.970 1_545 S
Co136 N153 1.989 . S
Co136 O161 1.967 . S
Co136 O168 1.920 . S
Co137 O140 1.966 1_545 S
Co137 N146 2.022 1_545 S
Co137 N154 1.993 . S
Co137 O162 1.941 . S
C138 O139 1.258 . S
C138 O140 1.263 . S
O139 Co136 1.970 1_565 S
O139 C138 1.258 . S
O140 Co137 1.966 1_565 S
O140 C138 1.263 . S
C141 O142 1.235 1_545 S
C141 O168 1.289 . S
O142 C141 1.235 1_565 S
C143 C145 1.400 . S
C143 N146 1.351 . S
C143 C148 1.501 . S
C144 C145 1.387 . S
C144 N147 1.341 1_565 S
C145 C143 1.400 . S
C145 C144 1.387 . S
N146 Co137 2.022 1_565 S
N146 C143 1.351 . S
N146 N147 1.365 1_565 S
N147 C144 1.341 1_545 S
N147 N146 1.365 1_545 S
N147 H167 0.862 . S
C148 C143 1.501 . S
C148 H149 0.961 . S
C148 H150 0.961 . S
C148 H151 0.960 . S
H149 C148 0.961 . S
H150 C148 0.961 . S
H151 C148 0.960 . S
C152 N153 1.342 . S
C152 C156 1.401 . S
C152 C157 1.499 . S
N153 Co136 1.989 . S
N153 C152 1.342 . S
N153 N154 1.388 . S
N154 Co137 1.993 . S
N154 N153 1.388 . S
N154 C155 1.346 . S
C155 N154 1.346 . S
C155 C156 1.396 . S
C155 C165 1.510 1_545 S
C156 C152 1.401 . S
C156 C155 1.396 . S
C157 C152 1.499 . S
C157 H158 0.959 . S
C157 H159 0.960 . S
C157 H160 0.961 . S
H158 C157 0.959 . S
H159 C157 0.960 . S
H160 C157 0.961 . S
O161 Co136 1.967 . S
O161 C169 1.258 . S
O162 Co137 1.941 . S
O162 C169 1.266 . S
H163 C165 0.959 1_545 S
H164 C165 0.961 . S
C165 C155 1.510 1_565 S
C165 H163 0.959 1_565 S
C165 H164 0.961 . S
C165 H166 0.960 . S
H166 C165 0.960 . S
H167 N147 0.862 . S
O168 Co136 1.920 . S
O168 C141 1.289 . S
C169 O161 1.258 . S
C169 O162 1.266 . S
Co170 O173 1.970 1_545 S
Co170 N187 1.989 . S
Co170 O195 1.967 . S
Co170 O202 1.920 . S
Co171 O174 1.966 1_545 S
Co171 N180 2.022 1_545 S
Co171 N188 1.993 . S
Co171 O196 1.941 . S
C172 O173 1.258 . S
C172 O174 1.263 . S
O173 Co170 1.970 1_565 S
O173 C172 1.258 . S
O174 Co171 1.966 1_565 S
O174 C172 1.263 . S
C175 O176 1.235 1_545 S
C175 O202 1.289 . S
O176 C175 1.235 1_565 S
C177 C179 1.400 . S
C177 N180 1.351 . S
C177 C182 1.501 . S
C178 C179 1.387 . S
C178 N181 1.341 1_565 S
C179 C177 1.400 . S
C179 C178 1.387 . S
N180 Co171 2.022 1_565 S
N180 C177 1.351 . S
N180 N181 1.365 1_565 S
N181 C178 1.341 1_545 S
N181 N180 1.365 1_545 S
N181 H201 0.862 . S
C182 C177 1.501 . S
C182 H183 0.961 . S
C182 H184 0.961 . S
C182 H185 0.960 . S
H183 C182 0.961 . S
H184 C182 0.961 . S
H185 C182 0.960 . S
C186 N187 1.342 . S
C186 C190 1.401 . S
C186 C191 1.499 . S
N187 Co170 1.989 . S
N187 C186 1.342 . S
N187 N188 1.388 . S
N188 Co171 1.993 . S
N188 N187 1.388 . S
N188 C189 1.346 . S
C189 N188 1.346 . S
C189 C190 1.396 . S
C189 C199 1.510 1_545 S
C190 C186 1.401 . S
C190 C189 1.396 . S
C191 C186 1.499 . S
C191 H192 0.959 . S
C191 H193 0.960 . S
C191 H194 0.961 . S
H192 C191 0.959 . S
H193 C191 0.960 . S
H194 C191 0.961 . S
O195 Co170 1.967 . S
O195 C203 1.258 . S
O196 Co171 1.941 . S
O196 C203 1.266 . S
H197 C199 0.959 1_545 S
H198 C199 0.961 . S
C199 C189 1.510 1_565 S
C199 H197 0.959 1_565 S
C199 H198 0.961 . S
C199 H200 0.960 . S
H200 C199 0.960 . S
H201 N181 0.862 . S
O202 Co170 1.920 . S
O202 C175 1.289 . S
C203 O195 1.258 . S
C203 O196 1.266 . S
Co204 O207 1.970 . S
Co204 N221 1.989 . S
Co204 O229 1.967 . S
Co204 O236 1.920 . S
Co205 O208 1.966 . S
Co205 N214 2.022 1_554 S
Co205 N222 1.993 . S
Co205 O230 1.941 . S
C206 O207 1.258 . S
C206 O208 1.263 . S
O207 Co204 1.970 . S
O207 C206 1.258 . S
O208 Co205 1.966 . S
O208 C206 1.263 . S
C209 O210 1.235 . S
C209 O236 1.289 . S
O210 C209 1.235 . S
C211 C213 1.400 . S
C211 N214 1.351 . S
C211 C216 1.501 . S
C212 C213 1.387 . S
C212 N215 1.341 . S
C213 C211 1.400 . S
C213 C212 1.387 . S
N214 Co205 2.022 1_556 S
N214 C211 1.351 . S
N214 N215 1.365 . S
N215 C212 1.341 . S
N215 N214 1.365 . S
N215 H235 0.862 . S
C216 C211 1.501 . S
C216 H217 0.961 . S
C216 H218 0.961 . S
C216 H219 0.960 . S
H217 C216 0.961 . S
H218 C216 0.961 . S
H219 C216 0.960 . S
C220 N221 1.342 . S
C220 C224 1.401 . S
C220 C225 1.499 . S
N221 Co204 1.989 . S
N221 C220 1.342 . S
N221 N222 1.388 . S
N222 Co205 1.993 . S
N222 N221 1.388 . S
N222 C223 1.346 . S
C223 N222 1.346 . S
C223 C224 1.396 . S
C223 C233 1.510 1_554 S
C224 C220 1.401 . S
C224 C223 1.396 . S
C225 C220 1.499 . S
C225 H226 0.959 . S
C225 H227 0.960 . S
C225 H228 0.961 . S
H226 C225 0.959 . S
H227 C225 0.960 . S
H228 C225 0.961 . S
O229 Co204 1.967 . S
O229 C237 1.258 . S
O230 Co205 1.941 . S
O230 C237 1.266 . S
H231 C233 0.959 . S
H232 C233 0.961 . S
C233 C223 1.510 1_556 S
C233 H231 0.959 . S
C233 H232 0.961 . S
C233 H234 0.960 . S
H234 C233 0.960 . S
H235 N215 0.862 . S
O236 Co204 1.920 . S
O236 C209 1.289 . S
C237 O229 1.258 . S
C237 O230 1.266 . S
Co238 O241 1.970 . S
Co238 N255 1.989 . S
Co238 O263 1.967 . S
Co238 O270 1.920 1_554 S
Co239 O242 1.966 . S
Co239 N248 2.022 . S
Co239 N256 1.993 . S
Co239 O264 1.941 . S
C240 O241 1.258 . S
C240 O242 1.263 . S
O241 Co238 1.970 . S
O241 C240 1.258 . S
O242 Co239 1.966 . S
O242 C240 1.263 . S
C243 O244 1.235 . S
C243 O270 1.289 . S
O244 C243 1.235 . S
C245 C247 1.400 . S
C245 N248 1.351 . S
C245 C250 1.501 . S
C246 C247 1.387 . S
C246 N249 1.341 . S
C247 C245 1.400 . S
C247 C246 1.387 . S
N248 Co239 2.022 . S
N248 C245 1.351 . S
N248 N249 1.365 . S
N249 C246 1.341 . S
N249 N248 1.365 . S
N249 H269 0.862 . S
C250 C245 1.501 . S
C250 H251 0.961 . S
C250 H252 0.961 . S
C250 H253 0.960 . S
H251 C250 0.961 . S
H252 C250 0.961 . S
H253 C250 0.960 . S
C254 N255 1.342 . S
C254 C258 1.401 . S
C254 C259 1.499 . S
N255 Co238 1.989 . S
N255 C254 1.342 . S
N255 N256 1.388 . S
N256 Co239 1.993 . S
N256 N255 1.388 . S
N256 C257 1.346 . S
C257 N256 1.346 . S
C257 C258 1.396 . S
C257 C267 1.510 . S
C258 C254 1.401 . S
C258 C257 1.396 . S
C259 C254 1.499 . S
C259 H260 0.959 1_554 S
C259 H261 0.960 1_554 S
C259 H262 0.961 . S
H260 C259 0.959 1_556 S
H261 C259 0.960 1_556 S
H262 C259 0.961 . S
O263 Co238 1.967 . S
O263 C271 1.258 . S
O264 Co239 1.941 . S
O264 C271 1.266 . S
H265 C267 0.959 . S
H266 C267 0.961 . S
C267 C257 1.510 . S
C267 H265 0.959 . S
C267 H266 0.961 . S
C267 H268 0.960 . S
H268 C267 0.960 . S
H269 N249 0.862 . S
O270 Co238 1.920 1_556 S
O270 C243 1.289 . S
C271 O263 1.258 . S
C271 O264 1.266 . S
C272 C273 1.391 . S
C272 C274 1.394 . S
C272 H288 0.931 . S
C273 C272 1.391 . S
C273 C277 1.376 . S
C274 C272 1.394 . S
C274 C275 1.369 . S
C274 C278 1.531 . S
C275 C274 1.369 . S
C275 C276 1.410 . S
C275 C283 1.503 . S
C276 C275 1.410 . S
C276 C277 1.392 . S
C276 C279 1.511 . S
C277 C273 1.376 . S
C277 C276 1.392 . S
C277 H289 0.929 . S
C278 C274 1.531 . S
C278 H290 0.960 . S
C278 H291 0.962 . S
C278 H292 0.960 . S
C279 C276 1.511 . S
C279 H293 0.961 . S
C279 H294 0.961 . S
C279 H295 0.961 . S
C280 C281 1.370 . S
C280 C282 1.363 . S
C280 H296 0.931 . S
C281 C280 1.370 . S
C281 C285 1.408 . S
C282 C280 1.363 . S
C282 C283 1.370 . S
C282 C286 1.524 . S
C283 C275 1.503 . S
C283 C282 1.370 . S
C283 C284 1.403 . S
C284 C283 1.403 . S
C284 C285 1.404 . S
C284 C287 1.539 . S
C285 C281 1.408 . S
C285 C284 1.404 . S
C285 H297 0.930 . S
C286 C282 1.524 . S
C286 H298 0.956 . S
C286 H299 0.961 . S
C286 H300 0.961 . S
C287 C284 1.539 . S
C287 H301 0.958 . S
C287 H302 0.961 . S
C287 H303 0.960 . S
H288 C272 0.931 . S
H289 C277 0.929 . S
H290 C278 0.960 . S
H291 C278 0.962 . S
H292 C278 0.960 . S
H293 C279 0.961 . S
H294 C279 0.961 . S
H295 C279 0.961 . S
H296 C280 0.931 . S
H297 C285 0.930 . S
H298 C286 0.956 . S
H299 C286 0.961 . S
H300 C286 0.961 . S
H301 C287 0.958 . S
H302 C287 0.961 . S
H303 C287 0.960 . S
C304 C305 1.391 . S
C304 C306 1.394 . S
C304 H320 0.931 . S
C305 C304 1.391 . S
C305 C309 1.376 . S
C306 C304 1.394 . S
C306 C307 1.369 . S
C306 C310 1.531 . S
C307 C306 1.369 . S
C307 C308 1.410 . S
C307 C315 1.503 . S
C308 C307 1.410 . S
C308 C309 1.392 . S
C308 C311 1.511 . S
C309 C305 1.376 . S
C309 C308 1.392 . S
C309 H321 0.929 . S
C310 C306 1.531 . S
C310 H322 0.960 . S
C310 H323 0.962 . S
C310 H324 0.960 . S
C311 C308 1.511 . S
C311 H325 0.961 . S
C311 H326 0.961 . S
C311 H327 0.961 . S
C312 C313 1.370 . S
C312 C314 1.363 . S
C312 H328 0.931 . S
C313 C312 1.370 . S
C313 C317 1.408 . S
C314 C312 1.363 . S
C314 C315 1.370 . S
C314 C318 1.524 . S
C315 C307 1.503 . S
C315 C314 1.370 . S
C315 C316 1.403 . S
C316 C315 1.403 . S
C316 C317 1.404 . S
C316 C319 1.539 . S
C317 C313 1.408 . S
C317 C316 1.404 . S
C317 H329 0.930 . S
C318 C314 1.524 . S
C318 H330 0.956 . S
C318 H331 0.961 . S
C318 H332 0.961 . S
C319 C316 1.539 . S
C319 H333 0.958 . S
C319 H334 0.961 . S
C319 H335 0.960 . S
H320 C304 0.931 . S
H321 C309 0.929 . S
H322 C310 0.960 . S
H323 C310 0.962 . S
H324 C310 0.960 . S
H325 C311 0.961 . S
H326 C311 0.961 . S
H327 C311 0.961 . S
H328 C312 0.931 . S
H329 C317 0.930 . S
H330 C318 0.956 . S
H331 C318 0.961 . S
H332 C318 0.961 . S
H333 C319 0.958 . S
H334 C319 0.961 . S
H335 C319 0.960 . S
C336 C337 1.391 . S
C336 C338 1.394 . S
C336 H352 0.931 . S
C337 C336 1.391 . S
C337 C341 1.376 . S
C338 C336 1.394 . S
C338 C339 1.369 . S
C338 C342 1.531 . S
C339 C338 1.369 . S
C339 C340 1.410 . S
C339 C347 1.503 . S
C340 C339 1.410 . S
C340 C341 1.392 . S
C340 C343 1.511 . S
C341 C337 1.376 . S
C341 C340 1.392 . S
C341 H353 0.929 . S
C342 C338 1.531 . S
C342 H354 0.960 . S
C342 H355 0.962 . S
C342 H356 0.960 . S
C343 C340 1.511 . S
C343 H357 0.961 . S
C343 H358 0.961 . S
C343 H359 0.961 . S
C344 C345 1.370 . S
C344 C346 1.363 . S
C344 H360 0.931 . S
C345 C344 1.370 . S
C345 C349 1.408 . S
C346 C344 1.363 . S
C346 C347 1.370 . S
C346 C350 1.524 . S
C347 C339 1.503 . S
C347 C346 1.370 . S
C347 C348 1.403 . S
C348 C347 1.403 . S
C348 C349 1.404 . S
C348 C351 1.539 . S
C349 C345 1.408 . S
C349 C348 1.404 . S
C349 H361 0.930 . S
C350 C346 1.524 . S
C350 H362 0.956 . S
C350 H363 0.961 . S
C350 H364 0.961 . S
C351 C348 1.539 . S
C351 H365 0.958 . S
C351 H366 0.961 . S
C351 H367 0.960 . S
H352 C336 0.931 . S
H353 C341 0.929 . S
H354 C342 0.960 . S
H355 C342 0.962 . S
H356 C342 0.960 . S
H357 C343 0.961 . S
H358 C343 0.961 . S
H359 C343 0.961 . S
H360 C344 0.931 . S
H361 C349 0.930 . S
H362 C350 0.956 . S
H363 C350 0.961 . S
H364 C350 0.961 . S
H365 C351 0.958 . S
H366 C351 0.961 . S
H367 C351 0.960 . S
C368 C369 1.391 . S
C368 C370 1.394 . S
C368 H384 0.931 . S
C369 C368 1.391 . S
C369 C373 1.376 . S
C370 C368 1.394 . S
C370 C371 1.369 . S
C370 C374 1.531 . S
C371 C370 1.369 . S
C371 C372 1.410 . S
C371 C379 1.503 . S
C372 C371 1.410 . S
C372 C373 1.392 . S
C372 C375 1.511 . S
C373 C369 1.376 . S
C373 C372 1.392 . S
C373 H385 0.929 . S
C374 C370 1.531 . S
C374 H386 0.960 . S
C374 H387 0.962 . S
C374 H388 0.960 . S
C375 C372 1.511 . S
C375 H389 0.961 . S
C375 H390 0.961 . S
C375 H391 0.961 . S
C376 C377 1.370 . S
C376 C378 1.363 . S
C376 H392 0.931 . S
C377 C376 1.370 . S
C377 C381 1.408 . S
C378 C376 1.363 . S
C378 C379 1.370 . S
C378 C382 1.524 . S
C379 C371 1.503 . S
C379 C378 1.370 . S
C379 C380 1.403 . S
C380 C379 1.403 . S
C380 C381 1.404 . S
C380 C383 1.539 . S
C381 C377 1.408 . S
C381 C380 1.404 . S
C381 H393 0.930 . S
C382 C378 1.524 . S
C382 H394 0.956 . S
C382 H395 0.961 . S
C382 H396 0.961 . S
C383 C380 1.539 . S
C383 H397 0.958 . S
C383 H398 0.961 . S
C383 H399 0.960 . S
H384 C368 0.931 . S
H385 C373 0.929 . S
H386 C374 0.960 . S
H387 C374 0.962 . S
H388 C374 0.960 . S
H389 C375 0.961 . S
H390 C375 0.961 . S
H391 C375 0.961 . S
H392 C376 0.931 . S
H393 C381 0.930 . S
H394 C382 0.956 . S
H395 C382 0.961 . S
H396 C382 0.961 . S
H397 C383 0.958 . S
H398 C383 0.961 . S
H399 C383 0.960 . S
C400 C401 1.391 . S
C400 C402 1.394 . S
C400 H416 0.931 1_545 S
C401 C400 1.391 . S
C401 C405 1.376 . S
C402 C400 1.394 . S
C402 C403 1.369 . S
C402 C406 1.531 . S
C403 C402 1.369 . S
C403 C404 1.410 . S
C403 C411 1.503 . S
C404 C403 1.410 . S
C404 C405 1.392 . S
C404 C407 1.511 . S
C405 C401 1.376 . S
C405 C404 1.392 . S
C405 H417 0.929 . S
C406 C402 1.531 . S
C406 H418 0.960 . S
C406 H419 0.962 . S
C406 H420 0.960 1_545 S
C407 C404 1.511 . S
C407 H421 0.961 . S
C407 H422 0.961 . S
C407 H423 0.961 . S
C408 C409 1.370 . S
C408 C410 1.363 . S
C408 H424 0.931 . S
C409 C408 1.370 . S
C409 C413 1.408 . S
C410 C408 1.363 . S
C410 C411 1.370 . S
C410 C414 1.524 . S
C411 C403 1.503 . S
C411 C410 1.370 . S
C411 C412 1.403 . S
C412 C411 1.403 . S
C412 C413 1.404 . S
C412 C415 1.539 . S
C413 C409 1.408 . S
C413 C412 1.404 . S
C413 H425 0.930 . S
C414 C410 1.524 . S
C414 H426 0.956 . S
C414 H427 0.961 . S
C414 H428 0.961 . S
C415 C412 1.539 . S
C415 H429 0.958 . S
C415 H430 0.961 . S
C415 H431 0.960 . S
H416 C400 0.931 1_565 S
H417 C405 0.929 . S
H418 C406 0.960 . S
H419 C406 0.962 . S
H420 C406 0.960 1_565 S
H421 C407 0.961 . S
H422 C407 0.961 . S
H423 C407 0.961 . S
H424 C408 0.931 . S
H425 C413 0.930 . S
H426 C414 0.956 . S
H427 C414 0.961 . S
H428 C414 0.961 . S
H429 C415 0.958 . S
H430 C415 0.961 . S
H431 C415 0.960 . S
C432 C433 1.391 . S
C432 C434 1.394 . S
C432 H448 0.931 . S
C433 C432 1.391 . S
C433 C437 1.376 . S
C434 C432 1.394 . S
C434 C435 1.369 . S
C434 C438 1.531 . S
C435 C434 1.369 . S
C435 C436 1.410 . S
C435 C443 1.503 . S
C436 C435 1.410 . S
C436 C437 1.392 . S
C436 C439 1.511 . S
C437 C433 1.376 . S
C437 C436 1.392 . S
C437 H449 0.929 . S
C438 C434 1.531 . S
C438 H450 0.960 . S
C438 H451 0.962 . S
C438 H452 0.960 . S
C439 C436 1.511 . S
C439 H453 0.961 . S
C439 H454 0.961 . S
C439 H455 0.961 . S
C440 C441 1.370 . S
C440 C442 1.363 . S
C440 H456 0.931 . S
C441 C440 1.370 . S
C441 C445 1.408 . S
C442 C440 1.363 . S
C442 C443 1.370 . S
C442 C446 1.524 . S
C443 C435 1.503 . S
C443 C442 1.370 . S
C443 C444 1.403 . S
C444 C443 1.403 . S
C444 C445 1.404 . S
C444 C447 1.539 . S
C445 C441 1.408 . S
C445 C444 1.404 . S
C445 H457 0.930 . S
C446 C442 1.524 . S
C446 H458 0.956 . S
C446 H459 0.961 . S
C446 H460 0.961 . S
C447 C444 1.539 . S
C447 H461 0.958 . S
C447 H462 0.961 . S
C447 H463 0.960 . S
H448 C432 0.931 . S
H449 C437 0.929 . S
H450 C438 0.960 . S
H451 C438 0.962 . S
H452 C438 0.960 . S
H453 C439 0.961 . S
H454 C439 0.961 . S
H455 C439 0.961 . S
H456 C440 0.931 . S
H457 C445 0.930 . S
H458 C446 0.956 . S
H459 C446 0.961 . S
H460 C446 0.961 . S
H461 C447 0.958 . S
H462 C447 0.961 . S
H463 C447 0.960 . S
C464 C465 1.391 . S
C464 C466 1.394 . S
C464 H480 0.931 . S
C465 C464 1.391 . S
C465 C469 1.376 . S
C466 C464 1.394 . S
C466 C467 1.369 . S
C466 C470 1.531 . S
C467 C466 1.369 . S
C467 C468 1.410 . S
C467 C475 1.503 . S
C468 C467 1.410 . S
C468 C469 1.392 . S
C468 C471 1.511 . S
C469 C465 1.376 . S
C469 C468 1.392 . S
C469 H481 0.929 . S
C470 C466 1.531 . S
C470 H482 0.960 . S
C470 H483 0.962 . S
C470 H484 0.960 . S
C471 C468 1.511 . S
C471 H485 0.961 . S
C471 H486 0.961 . S
C471 H487 0.961 . S
C472 C473 1.370 . S
C472 C474 1.363 . S
C472 H488 0.931 . S
C473 C472 1.370 . S
C473 C477 1.408 . S
C474 C472 1.363 . S
C474 C475 1.370 . S
C474 C478 1.524 . S
C475 C467 1.503 . S
C475 C474 1.370 . S
C475 C476 1.403 . S
C476 C475 1.403 . S
C476 C477 1.404 . S
C476 C479 1.539 . S
C477 C473 1.408 . S
C477 C476 1.404 . S
C477 H489 0.930 . S
C478 C474 1.524 . S
C478 H490 0.956 . S
C478 H491 0.961 . S
C478 H492 0.961 . S
C479 C476 1.539 . S
C479 H493 0.958 . S
C479 H494 0.961 . S
C479 H495 0.960 . S
H480 C464 0.931 . S
H481 C469 0.929 . S
H482 C470 0.960 . S
H483 C470 0.962 . S
H484 C470 0.960 . S
H485 C471 0.961 . S
H486 C471 0.961 . S
H487 C471 0.961 . S
H488 C472 0.931 . S
H489 C477 0.930 . S
H490 C478 0.956 . S
H491 C478 0.961 . S
H492 C478 0.961 . S
H493 C479 0.958 . S
H494 C479 0.961 . S
H495 C479 0.960 . S
C496 C497 1.391 . S
C496 C498 1.394 . S
C496 H512 0.931 . S
C497 C496 1.391 . S
C497 C501 1.376 . S
C498 C496 1.394 . S
C498 C499 1.369 . S
C498 C502 1.531 . S
C499 C498 1.369 . S
C499 C500 1.410 . S
C499 C507 1.503 . S
C500 C499 1.410 . S
C500 C501 1.392 . S
C500 C503 1.511 . S
C501 C497 1.376 . S
C501 C500 1.392 . S
C501 H513 0.929 . S
C502 C498 1.531 . S
C502 H514 0.960 . S
C502 H515 0.962 . S
C502 H516 0.960 . S
C503 C500 1.511 . S
C503 H517 0.961 . S
C503 H518 0.961 . S
C503 H519 0.961 . S
C504 C505 1.370 . S
C504 C506 1.363 . S
C504 H520 0.931 . S
C505 C504 1.370 . S
C505 C509 1.408 . S
C506 C504 1.363 . S
C506 C507 1.370 . S
C506 C510 1.524 . S
C507 C499 1.503 . S
C507 C506 1.370 . S
C507 C508 1.403 . S
C508 C507 1.403 . S
C508 C509 1.404 . S
C508 C511 1.539 . S
C509 C505 1.408 . S
C509 C508 1.404 . S
C509 H521 0.930 . S
C510 C506 1.524 . S
C510 H522 0.956 . S
C510 H523 0.961 . S
C510 H524 0.961 . S
C511 C508 1.539 . S
C511 H525 0.958 . S
C511 H526 0.961 . S
C511 H527 0.960 . S
H512 C496 0.931 . S
H513 C501 0.929 . S
H514 C502 0.960 . S
H515 C502 0.962 . S
H516 C502 0.960 . S
H517 C503 0.961 . S
H518 C503 0.961 . S
H519 C503 0.961 . S
H520 C504 0.931 . S
H521 C509 0.930 . S
H522 C510 0.956 . S
H523 C510 0.961 . S
H524 C510 0.961 . S
H525 C511 0.958 . S
H526 C511 0.961 . S
H527 C511 0.960 . S
C528 C529 1.391 . S
C528 C530 1.394 . S
C528 H544 0.931 . S
C529 C528 1.391 . S
C529 C533 1.376 . S
C530 C528 1.394 . S
C530 C531 1.369 . S
C530 C534 1.531 . S
C531 C530 1.369 . S
C531 C532 1.410 . S
C531 C539 1.503 . S
C532 C531 1.410 . S
C532 C533 1.392 . S
C532 C535 1.516 . S
C533 C529 1.376 . S
C533 C532 1.392 . S
C533 H545 0.929 . S
C534 C530 1.531 . S
C534 H546 0.960 . S
C534 H547 0.962 . S
C534 H548 0.960 . S
C535 C532 1.516 . S
C535 H549 0.952 1_544 S
C535 H550 0.957 1_545 S
C535 H551 0.969 1_554 S
C536 C537 1.370 . S
C536 C538 1.363 . S
C536 H552 0.931 1_545 S
C537 C536 1.370 . S
C537 C541 1.408 . S
C538 C536 1.363 . S
C538 C539 1.370 . S
C538 C542 1.524 1_545 S
C539 C531 1.503 . S
C539 C538 1.370 . S
C539 C540 1.403 . S
C540 C539 1.403 . S
C540 C541 1.404 . S
C540 C543 1.539 . S
C541 C537 1.408 . S
C541 C540 1.404 . S
C541 H553 0.930 . S
C542 C538 1.524 1_565 S
C542 H554 0.956 . S
C542 H555 0.961 . S
C542 H556 0.961 . S
C543 C540 1.539 . S
C543 H557 0.958 . S
C543 H558 0.978 . S
C543 H559 0.960 . S
H544 C528 0.931 . S
H545 C533 0.929 . S
H546 C534 0.960 . S
H547 C534 0.962 . S
H548 C534 0.960 . S
H549 C535 0.952 1_566 S
H550 C535 0.957 1_565 S
H551 C535 0.969 1_556 S
H552 C536 0.931 1_565 S
H553 C541 0.930 . S
H554 C542 0.956 . S
H555 C542 0.961 . S
H556 C542 0.961 . S
H557 C543 0.958 . S
H558 C543 0.978 . S
H559 C543 0.960 . S
C560 C561 1.391 . S
C560 C562 1.394 . S
C560 H576 0.931 . S
C561 C560 1.391 . S
C561 C565 1.376 . S
C562 C560 1.394 . S
C562 C563 1.369 . S
C562 C566 1.531 . S
C563 C562 1.369 . S
C563 C564 1.410 . S
C563 C571 1.503 . S
C564 C563 1.410 . S
C564 C565 1.392 . S
C564 C567 1.511 . S
C565 C561 1.376 . S
C565 C564 1.392 . S
C565 H577 0.929 . S
C566 C562 1.531 . S
C566 H578 0.960 . S
C566 H579 0.962 . S
C566 H580 0.960 . S
C567 C564 1.511 . S
C567 H581 0.961 . S
C567 H582 0.961 . S
C567 H583 0.961 . S
C568 C569 1.370 . S
C568 C570 1.363 . S
C568 H584 0.931 . S
C569 C568 1.370 . S
C569 C573 1.408 . S
C570 C568 1.363 . S
C570 C571 1.370 . S
C570 C574 1.524 . S
C571 C563 1.503 . S
C571 C570 1.370 . S
C571 C572 1.403 . S
C572 C571 1.403 . S
C572 C573 1.404 . S
C572 C575 1.539 . S
C573 C569 1.408 . S
C573 C572 1.404 . S
C573 H585 0.930 . S
C574 C570 1.524 . S
C574 H586 0.956 . S
C574 H587 0.961 . S
C574 H588 0.961 . S
C575 C572 1.539 . S
C575 H589 0.958 . S
C575 H590 0.961 . S
C575 H591 0.960 . S
H576 C560 0.931 . S
H577 C565 0.929 . S
H578 C566 0.960 . S
H579 C566 0.962 . S
H580 C566 0.960 . S
H581 C567 0.961 . S
H582 C567 0.961 . S
H583 C567 0.961 . S
H584 C568 0.931 . S
H585 C573 0.930 . S
H586 C574 0.956 . S
H587 C574 0.961 . S
H588 C574 0.961 . S
H589 C575 0.958 . S
H590 C575 0.961 . S
H591 C575 0.960 . S
C592 C593 1.391 . S
C592 C594 1.394 . S
C592 H608 0.931 1_545 S
C593 C592 1.391 . S
C593 C597 1.376 . S
C594 C592 1.394 . S
C594 C595 1.369 . S
C594 C598 1.531 1_545 S
C595 C594 1.369 . S
C595 C596 1.410 . S
C595 C603 1.503 1_455 S
C596 C595 1.410 . S
C596 C597 1.392 . S
C596 C599 1.511 . S
C597 C593 1.376 . S
C597 C596 1.392 . S
C597 H609 0.929 . S
C598 C594 1.531 1_565 S
C598 H610 0.960 1_455 S
C598 H611 0.962 . S
C598 H612 0.960 . S
C599 C596 1.511 . S
C599 H613 0.961 . S
C599 H614 0.936 1_455 S
C599 H615 0.961 . S
C600 C601 1.370 . S
C600 C602 1.363 . S
C600 H616 0.931 1_545 S
C601 C600 1.370 . S
C601 C605 1.408 . S
C602 C600 1.363 . S
C602 C603 1.370 . S
C602 C606 1.524 1_545 S
C603 C595 1.503 1_655 S
C603 C602 1.370 . S
C603 C604 1.403 . S
C604 C603 1.403 . S
C604 C605 1.404 . S
C604 C607 1.539 . S
C605 C601 1.408 . S
C605 C604 1.404 . S
C605 H617 0.930 . S
C606 C602 1.524 1_565 S
C606 H618 0.947 1_655 S
C606 H619 0.961 1_665 S
C606 H620 0.961 . S
C607 C604 1.539 . S
C607 H621 0.958 . S
C607 H622 0.961 . S
C607 H623 0.960 . S
H608 C592 0.931 1_565 S
H609 C597 0.929 . S
H610 C598 0.960 1_655 S
H611 C598 0.962 . S
H612 C598 0.960 . S
H613 C599 0.961 . S
H614 C599 0.936 1_655 S
H615 C599 0.961 . S
H616 C600 0.931 1_565 S
H617 C605 0.930 . S
H618 C606 0.947 1_455 S
H619 C606 0.961 1_445 S
H620 C606 0.961 . S
H621 C607 0.958 . S
H622 C607 0.961 . S
H623 C607 0.960 . S
C624 C625 1.391 . S
C624 C626 1.394 . S
C624 H640 0.931 . S
C625 C624 1.391 . S
C625 C629 1.376 . S
C626 C624 1.394 . S
C626 C627 1.369 . S
C626 C630 1.531 . S
C627 C626 1.369 . S
C627 C628 1.410 . S
C627 C635 1.503 1_655 S
C628 C627 1.410 . S
C628 C629 1.392 . S
C628 C631 1.511 . S
C629 C625 1.376 . S
C629 C628 1.392 . S
C629 H641 0.929 . S
C630 C626 1.531 . S
C630 H642 0.960 1_655 S
C630 H643 0.962 1_554 S
C630 H644 0.960 1_554 S
C631 C628 1.511 . S
C631 H645 0.961 . S
C631 H646 0.957 . S
C631 H647 0.961 . S
C632 C633 1.370 . S
C632 C634 1.363 . S
C632 H648 0.931 . S
C633 C632 1.370 . S
C633 C637 1.408 . S
C634 C632 1.363 . S
C634 C635 1.370 . S
C634 C638 1.524 . S
C635 C627 1.503 1_455 S
C635 C634 1.370 . S
C635 C636 1.403 . S
C636 C635 1.403 . S
C636 C637 1.404 . S
C636 C639 1.539 . S
C637 C633 1.408 . S
C637 C636 1.404 . S
C637 H649 0.930 . S
C638 C634 1.524 . S
C638 H650 0.956 . S
C638 H651 0.928 1_455 S
C638 H652 0.961 . S
C639 C636 1.539 . S
C639 H653 0.958 . S
C639 H654 0.961 . S
C639 H655 0.960 1_455 S
H640 C624 0.931 . S
H641 C629 0.929 . S
H642 C630 0.960 1_455 S
H643 C630 0.962 1_556 S
H644 C630 0.960 1_556 S
H645 C631 0.961 . S
H646 C631 0.957 . S
H647 C631 0.961 . S
H648 C632 0.931 . S
H649 C637 0.930 . S
H650 C638 0.956 . S
H651 C638 0.928 1_655 S
H652 C638 0.961 . S
H653 C639 0.958 . S
H654 C639 0.961 . S
H655 C639 0.960 1_655 S
C656 C657 1.391 . S
C656 C658 1.394 . S
C656 H672 0.931 . S
C657 C656 1.391 . S
C657 C661 1.376 . S
C658 C656 1.394 . S
C658 C659 1.369 . S
C658 C662 1.531 1_554 S
C659 C658 1.369 . S
C659 C660 1.410 . S
C659 C667 1.503 . S
C660 C659 1.410 . S
C660 C661 1.392 . S
C660 C663 1.511 . S
C661 C657 1.376 . S
C661 C660 1.392 . S
C661 H673 0.929 . S
C662 C658 1.531 1_556 S
C662 H674 0.960 . S
C662 H675 0.962 . S
C662 H676 0.960 . S
C663 C660 1.511 . S
C663 H677 0.961 . S
C663 H678 0.961 . S
C663 H679 0.961 . S
C664 C665 1.370 . S
C664 C666 1.363 . S
C664 H680 0.931 . S
C665 C664 1.370 . S
C665 C669 1.408 . S
C666 C664 1.363 . S
C666 C667 1.370 . S
C666 C670 1.524 . S
C667 C659 1.503 . S
C667 C666 1.370 . S
C667 C668 1.403 . S
C668 C667 1.403 . S
C668 C669 1.404 . S
C668 C671 1.539 . S
C669 C665 1.408 . S
C669 C668 1.404 . S
C669 H681 0.930 . S
C670 C666 1.524 . S
C670 H682 0.956 . S
C670 H683 0.961 . S
C670 H684 0.961 . S
C671 C668 1.539 . S
C671 H685 0.958 1_554 S
C671 H686 0.961 . S
C671 H687 0.960 . S
H672 C656 0.931 . S
H673 C661 0.929 . S
H674 C662 0.960 . S
H675 C662 0.962 . S
H676 C662 0.960 . S
H677 C663 0.961 . S
H678 C663 0.961 . S
H679 C663 0.961 . S
H680 C664 0.931 . S
H681 C669 0.930 . S
H682 C670 0.956 . S
H683 C670 0.961 . S
H684 C670 0.961 . S
H685 C671 0.958 1_556 S
H686 C671 0.961 . S
H687 C671 0.960 . S
C688 C689 1.391 . S
C688 C690 1.394 . S
C688 H704 0.931 . S
C689 C688 1.391 . S
C689 C693 1.376 . S
C690 C688 1.394 . S
C690 C691 1.369 . S
C690 C694 1.531 . S
C691 C690 1.369 . S
C691 C692 1.410 . S
C691 C699 1.503 . S
C692 C691 1.410 . S
C692 C693 1.392 . S
C692 C695 1.511 . S
C693 C689 1.376 . S
C693 C692 1.392 . S
C693 H705 0.929 . S
C694 C690 1.531 . S
C694 H706 0.960 . S
C694 H707 0.962 1_554 S
C694 H708 0.960 . S
C695 C692 1.511 . S
C695 H709 0.961 . S
C695 H710 0.961 . S
C695 H711 0.961 . S
C696 C697 1.370 . S
C696 C698 1.363 . S
C696 H712 0.931 . S
C697 C696 1.370 . S
C697 C701 1.408 . S
C698 C696 1.363 . S
C698 C699 1.370 . S
C698 C702 1.524 1_554 S
C699 C691 1.503 . S
C699 C698 1.370 . S
C699 C700 1.403 . S
C700 C699 1.403 . S
C700 C701 1.404 . S
C700 C703 1.539 . S
C701 C697 1.408 . S
C701 C700 1.404 . S
C701 H713 0.930 . S
C702 C698 1.524 1_556 S
C702 H714 0.956 . S
C702 H715 0.961 1_556 S
C702 H716 0.961 . S
C703 C700 1.539 . S
C703 H717 0.958 . S
C703 H718 0.961 . S
C703 H719 0.960 . S
H704 C688 0.931 . S
H705 C693 0.929 . S
H706 C694 0.960 . S
H707 C694 0.962 1_556 S
H708 C694 0.960 . S
H709 C695 0.961 . S
H710 C695 0.961 . S
H711 C695 0.961 . S
H712 C696 0.931 . S
H713 C701 0.930 . S
H714 C702 0.956 . S
H715 C702 0.961 1_554 S
H716 C702 0.961 . S
H717 C703 0.958 . S
H718 C703 0.961 . S
H719 C703 0.960 . S
C720 C721 1.391 . S
C720 C722 1.394 . S
C720 H736 0.931 . S
C721 C720 1.391 . S
C721 C725 1.376 . S
C722 C720 1.394 . S
C722 C723 1.369 . S
C722 C726 1.531 . S
C723 C722 1.369 . S
C723 C724 1.410 . S
C723 C731 1.503 . S
C724 C723 1.410 . S
C724 C725 1.392 . S
C724 C727 1.511 . S
C725 C721 1.376 . S
C725 C724 1.392 . S
C725 H737 0.929 . S
C726 C722 1.531 . S
C726 H738 0.960 . S
C726 H739 0.962 . S
C726 H740 0.960 . S
C727 C724 1.511 . S
C727 H741 0.961 . S
C727 H742 0.961 . S
C727 H743 0.961 . S
C728 C729 1.370 . S
C728 C730 1.363 . S
C728 H744 0.931 . S
C729 C728 1.370 . S
C729 C733 1.408 . S
C730 C728 1.363 . S
C730 C731 1.370 . S
C730 C734 1.524 . S
C731 C723 1.503 . S
C731 C730 1.370 . S
C731 C732 1.403 . S
C732 C731 1.403 . S
C732 C733 1.404 . S
C732 C735 1.539 . S
C733 C729 1.408 . S
C733 C732 1.404 . S
C733 H745 0.930 . S
C734 C730 1.524 . S
C734 H746 0.956 . S
C734 H747 0.961 . S
C734 H748 0.961 . S
C735 C732 1.539 . S
C735 H749 0.958 . S
C735 H750 0.961 . S
C735 H751 0.960 . S
H736 C720 0.931 . S
H737 C725 0.929 . S
H738 C726 0.960 . S
H739 C726 0.962 . S
H740 C726 0.960 . S
H741 C727 0.961 . S
H742 C727 0.961 . S
H743 C727 0.961 . S
H744 C728 0.931 . S
H745 C733 0.930 . S
H746 C734 0.956 . S
H747 C734 0.961 . S
H748 C734 0.961 . S
H749 C735 0.958 . S
H750 C735 0.961 . S
H751 C735 0.960 . S
C752 C753 1.391 . S
C752 C754 1.394 . S
C752 H768 0.931 . S
C753 C752 1.391 . S
C753 C757 1.376 . S
C754 C752 1.394 . S
C754 C755 1.369 . S
C754 C758 1.531 . S
C755 C754 1.369 . S
C755 C756 1.410 . S
C755 C763 1.503 . S
C756 C755 1.410 . S
C756 C757 1.392 . S
C756 C759 1.511 . S
C757 C753 1.376 . S
C757 C756 1.392 . S
C757 H769 0.929 . S
C758 C754 1.531 . S
C758 H770 0.960 . S
C758 H771 0.962 . S
C758 H772 0.960 . S
C759 C756 1.511 . S
C759 H773 0.961 . S
C759 H774 0.961 . S
C759 H775 0.961 . S
C760 C761 1.370 . S
C760 C762 1.363 . S
C760 H776 0.931 . S
C761 C760 1.370 . S
C761 C765 1.408 . S
C762 C760 1.363 . S
C762 C763 1.370 . S
C762 C766 1.524 . S
C763 C755 1.503 . S
C763 C762 1.370 . S
C763 C764 1.403 . S
C764 C763 1.403 . S
C764 C765 1.404 . S
C764 C767 1.539 . S
C765 C761 1.408 . S
C765 C764 1.404 . S
C765 H777 0.930 . S
C766 C762 1.524 . S
C766 H778 0.956 . S
C766 H779 0.961 . S
C766 H780 0.961 1_554 S
C767 C764 1.539 . S
C767 H781 0.958 . S
C767 H782 0.961 . S
C767 H783 0.960 . S
H768 C752 0.931 . S
H769 C757 0.929 . S
H770 C758 0.960 . S
H771 C758 0.962 . S
H772 C758 0.960 . S
H773 C759 0.961 . S
H774 C759 0.961 . S
H775 C759 0.961 . S
H776 C760 0.931 . S
H777 C765 0.930 . S
H778 C766 0.956 . S
H779 C766 0.961 . S
H780 C766 0.961 1_556 S
H781 C767 0.958 . S
H782 C767 0.961 . S
H783 C767 0.960 . S
C784 C785 1.391 . S
C784 C786 1.394 . S
C784 H800 0.931 . S
C785 C784 1.391 . S
C785 C789 1.376 . S
C786 C784 1.394 . S
C786 C787 1.369 . S
C786 C790 1.531 . S
C787 C786 1.369 . S
C787 C788 1.410 . S
C787 C795 1.503 . S
C788 C787 1.410 . S
C788 C789 1.392 . S
C788 C791 1.511 . S
C789 C785 1.376 . S
C789 C788 1.392 . S
C789 H801 0.929 . S
C790 C786 1.531 . S
C790 H802 0.960 . S
C790 H803 0.962 . S
C790 H804 0.960 . S
C791 C788 1.511 . S
C791 H805 0.961 . S
C791 H806 0.961 . S
C791 H807 0.961 . S
C792 C793 1.370 . S
C792 C794 1.363 . S
C792 H808 0.931 . S
C793 C792 1.370 . S
C793 C797 1.408 . S
C794 C792 1.363 . S
C794 C795 1.370 . S
C794 C798 1.524 . S
C795 C787 1.503 . S
C795 C794 1.370 . S
C795 C796 1.403 . S
C796 C795 1.403 . S
C796 C797 1.404 . S
C796 C799 1.539 . S
C797 C793 1.408 . S
C797 C796 1.404 . S
C797 H809 0.930 . S
C798 C794 1.524 . S
C798 H810 0.956 . S
C798 H811 0.961 . S
C798 H812 0.961 . S
C799 C796 1.539 . S
C799 H813 0.958 . S
C799 H814 0.961 . S
C799 H815 0.960 . S
H800 C784 0.931 . S
H801 C789 0.929 . S
H802 C790 0.960 . S
H803 C790 0.962 . S
H804 C790 0.960 . S
H805 C791 0.961 . S
H806 C791 0.961 . S
H807 C791 0.961 . S
H808 C792 0.931 . S
H809 C797 0.930 . S
H810 C798 0.956 . S
H811 C798 0.961 . S
H812 C798 0.961 . S
H813 C799 0.958 . S
H814 C799 0.961 . S
H815 C799 0.960 . S
C816 C817 1.391 . S
C816 C818 1.394 . S
C816 H832 0.931 . S
C817 C816 1.391 . S
C817 C821 1.376 . S
C818 C816 1.394 . S
C818 C819 1.369 . S
C818 C822 1.531 . S
C819 C818 1.369 . S
C819 C820 1.410 . S
C819 C827 1.503 . S
C820 C819 1.410 . S
C820 C821 1.392 . S
C820 C823 1.511 . S
C821 C817 1.376 . S
C821 C820 1.392 . S
C821 H833 0.929 . S
C822 C818 1.531 . S
C822 H834 0.960 . S
C822 H835 0.962 . S
C822 H836 0.960 . S
C823 C820 1.511 . S
C823 H837 0.961 . S
C823 H838 0.961 . S
C823 H839 0.961 . S
C824 C825 1.370 . S
C824 C826 1.363 . S
C824 H840 0.931 . S
C825 C824 1.370 . S
C825 C829 1.408 . S
C826 C824 1.363 . S
C826 C827 1.370 . S
C826 C830 1.524 . S
C827 C819 1.503 . S
C827 C826 1.370 . S
C827 C828 1.403 . S
C828 C827 1.403 . S
C828 C829 1.404 . S
C828 C831 1.539 . S
C829 C825 1.408 . S
C829 C828 1.404 . S
C829 H841 0.930 . S
C830 C826 1.524 . S
C830 H842 0.956 . S
C830 H843 0.961 . S
C830 H844 0.961 . S
C831 C828 1.539 . S
C831 H845 0.958 . S
C831 H846 0.961 . S
C831 H847 0.960 . S
H832 C816 0.931 . S
H833 C821 0.929 . S
H834 C822 0.960 . S
H835 C822 0.962 . S
H836 C822 0.960 . S
H837 C823 0.961 . S
H838 C823 0.961 . S
H839 C823 0.961 . S
H840 C824 0.931 . S
H841 C829 0.930 . S
H842 C830 0.956 . S
H843 C830 0.961 . S
H844 C830 0.961 . S
H845 C831 0.958 . S
H846 C831 0.961 . S
H847 C831 0.960 . S
C848 C849 1.391 . S
C848 C850 1.394 . S
C848 H864 0.931 . S
C849 C848 1.391 . S
C849 C853 1.376 . S
C850 C848 1.394 . S
C850 C851 1.369 . S
C850 C854 1.531 . S
C851 C850 1.369 . S
C851 C852 1.410 . S
C851 C859 1.503 . S
C852 C851 1.410 . S
C852 C853 1.392 . S
C852 C855 1.511 . S
C853 C849 1.376 . S
C853 C852 1.392 . S
C853 H865 0.929 . S
C854 C850 1.531 . S
C854 H866 0.960 . S
C854 H867 0.962 . S
C854 H868 0.960 . S
C855 C852 1.511 . S
C855 H869 0.961 . S
C855 H870 0.961 . S
C855 H871 0.961 . S
C856 C857 1.370 . S
C856 C858 1.363 . S
C856 H872 0.931 . S
C857 C856 1.370 . S
C857 C861 1.408 . S
C858 C856 1.363 . S
C858 C859 1.370 . S
C858 C862 1.524 . S
C859 C851 1.503 . S
C859 C858 1.370 . S
C859 C860 1.403 . S
C860 C859 1.403 . S
C860 C861 1.404 . S
C860 C863 1.539 . S
C861 C857 1.408 . S
C861 C860 1.404 . S
C861 H873 0.930 . S
C862 C858 1.524 . S
C862 H874 0.956 . S
C862 H875 0.961 . S
C862 H876 0.961 . S
C863 C860 1.539 . S
C863 H877 0.958 . S
C863 H878 0.961 . S
C863 H879 0.960 . S
H864 C848 0.931 . S
H865 C853 0.929 . S
H866 C854 0.960 . S
H867 C854 0.962 . S
H868 C854 0.960 . S
H869 C855 0.961 . S
H870 C855 0.961 . S
H871 C855 0.961 . S
H872 C856 0.931 . S
H873 C861 0.930 . S
H874 C862 0.956 . S
H875 C862 0.961 . S
H876 C862 0.961 . S
H877 C863 0.958 . S
H878 C863 0.961 . S
H879 C863 0.960 . S
C880 C881 1.391 . S
C880 C882 1.394 . S
C880 H896 0.931 . S
C881 C880 1.391 . S
C881 C885 1.376 . S
C882 C880 1.394 . S
C882 C883 1.369 . S
C882 C886 1.531 . S
C883 C882 1.369 . S
C883 C884 1.410 . S
C883 C891 1.503 . S
C884 C883 1.410 . S
C884 C885 1.392 . S
C884 C887 1.511 . S
C885 C881 1.376 . S
C885 C884 1.392 . S
C885 H897 0.929 . S
C886 C882 1.531 . S
C886 H898 0.960 . S
C886 H899 0.962 . S
C886 H900 0.960 . S
C887 C884 1.511 . S
C887 H901 0.961 . S
C887 H902 0.961 . S
C887 H903 0.961 . S
C888 C889 1.370 . S
C888 C890 1.363 . S
C888 H904 0.931 . S
C889 C888 1.370 . S
C889 C893 1.408 . S
C890 C888 1.363 . S
C890 C891 1.370 . S
C890 C894 1.524 . S
C891 C883 1.503 . S
C891 C890 1.370 . S
C891 C892 1.403 . S
C892 C891 1.403 . S
C892 C893 1.404 . S
C892 C895 1.539 . S
C893 C889 1.408 . S
C893 C892 1.404 . S
C893 H905 0.930 . S
C894 C890 1.524 . S
C894 H906 0.956 . S
C894 H907 0.961 . S
C894 H908 0.961 . S
C895 C892 1.539 . S
C895 H909 0.958 . S
C895 H910 0.961 . S
C895 H911 0.960 . S
H896 C880 0.931 . S
H897 C885 0.929 . S
H898 C886 0.960 . S
H899 C886 0.962 . S
H900 C886 0.960 . S
H901 C887 0.961 . S
H902 C887 0.961 . S
H903 C887 0.961 . S
H904 C888 0.931 . S
H905 C893 0.930 . S
H906 C894 0.956 . S
H907 C894 0.961 . S
H908 C894 0.961 . S
H909 C895 0.958 . S
H910 C895 0.961 . S
H911 C895 0.960 . S
C273 C77 1.481 . S
C281 C5 1.548 . S
C305 C43 1.498 . S
C313 C107 1.551 . S
C337 C73 1.549 . S
C345 C9 1.511 . S
C369 C111 1.511 . S
C377 C39 1.552 . S
C401 C141 1.545 . S
C409 C213 1.515 . S
C433 C243 1.544 . S
C441 C179 1.502 . S
C465 C145 1.530 . S
C473 C209 1.551 . S
C497 C175 1.551 . S
C505 C247 1.522 . S
C529 C54 1.428 . S
C537 C20 1.434 . S
C561 C88 1.406 . S
C569 C122 1.424 . S
C593 C190 1.440 . S
C601 C156 1.427 . S
C625 C224 1.429 . S
C633 C258 1.434 . S
C657 C240 0.800 . S
C665 C33 0.852 . S
C689 C237 0.779 . S
C697 C36 0.841 . S
C721 C271 0.780 . S
C729 C2 0.852 . S
C753 C67 0.837 . S
C761 C206 0.842 . S
C785 C172 0.797 . S
C793 C101 0.852 . S
C817 C104 0.863 . S
C825 C169 0.802 . S
C849 C203 0.811 . S
C857 C70 0.831 . S
C881 C135 0.843 . S
C889 C138 0.840 . S
