# Generated by pormake.
# Topology snk, (6)-cn, num edge types: 1
# Building blocks:
#     Node 0, Type 0, BuildingBlock: INOVEN_clean_sbu_0, # of connection points: 6
#     Node 1, Type 0, BuildingBlock: INOVEN_clean_sbu_0, # of connection points: 6
#     Node 2, Type 0, BuildingBlock: INOVEN_clean_sbu_0, # of connection points: 6
#     Node 3, Type 0, BuildingBlock: INOVEN_clean_sbu_0, # of connection points: 6
#     Node 4, Type 0, BuildingBlock: INOVEN_clean_sbu_0, # of connection points: 6
#     Node 5, Type 0, BuildingBlock: INOVEN_clean_sbu_0, # of connection points: 6
#     Node 6, Type 0, BuildingBlock: INOVEN_clean_sbu_0, # of connection points: 6
#     Node 7, Type 0, BuildingBlock: INOVEN_clean_sbu_0, # of connection points: 6
#     Edge 8, Type (0, 0), BuildingBlock: MIFKUJ_clean_linker_0, # of connection points: 2
#     Edge 9, Type (0, 0), BuildingBlock: MIFKUJ_clean_linker_0, # of connection points: 2
#     Edge 10, Type (0, 0), BuildingBlock: MIFKUJ_clean_linker_0, # of connection points: 2
#     Edge 11, Type (0, 0), BuildingBlock: MIFKUJ_clean_linker_0, # of connection points: 2
#     Edge 12, Type (0, 0), BuildingBlock: MIFKUJ_clean_linker_0, # of connection points: 2
#     Edge 13, Type (0, 0), BuildingBlock: MIFKUJ_clean_linker_0, # of connection points: 2
#     Edge 14, Type (0, 0), BuildingBlock: MIFKUJ_clean_linker_0, # of connection points: 2
#     Edge 15, Type (0, 0), BuildingBlock: MIFKUJ_clean_linker_0, # of connection points: 2
#     Edge 16, Type (0, 0), BuildingBlock: MIFKUJ_clean_linker_0, # of connection points: 2
#     Edge 17, Type (0, 0), BuildingBlock: MIFKUJ_clean_linker_0, # of connection points: 2
#     Edge 18, Type (0, 0), BuildingBlock: MIFKUJ_clean_linker_0, # of connection points: 2
#     Edge 19, Type (0, 0), BuildingBlock: MIFKUJ_clean_linker_0, # of connection points: 2
#     Edge 20, Type (0, 0), BuildingBlock: MIFKUJ_clean_linker_0, # of connection points: 2
#     Edge 21, Type (0, 0), BuildingBlock: MIFKUJ_clean_linker_0, # of connection points: 2
#     Edge 22, Type (0, 0), BuildingBlock: MIFKUJ_clean_linker_0, # of connection points: 2
#     Edge 23, Type (0, 0), BuildingBlock: MIFKUJ_clean_linker_0, # of connection points: 2
#     Edge 24, Type (0, 0), BuildingBlock: MIFKUJ_clean_linker_0, # of connection points: 2
#     Edge 25, Type (0, 0), BuildingBlock: MIFKUJ_clean_linker_0, # of connection points: 2
#     Edge 26, Type (0, 0), BuildingBlock: MIFKUJ_clean_linker_0, # of connection points: 2
#     Edge 27, Type (0, 0), BuildingBlock: MIFKUJ_clean_linker_0, # of connection points: 2
#     Edge 28, Type (0, 0), BuildingBlock: MIFKUJ_clean_linker_0, # of connection points: 2
#     Edge 29, Type (0, 0), BuildingBlock: MIFKUJ_clean_linker_0, # of connection points: 2
#     Edge 30, Type (0, 0), BuildingBlock: MIFKUJ_clean_linker_0, # of connection points: 2
#     Edge 31, Type (0, 0), BuildingBlock: MIFKUJ_clean_linker_0, # of connection points: 2
# Relax obj value: 0.062
# Max RMSD: 0.120
# Mean RMSD: 0.109
data_MOF--net-snk--node1-INOVEN_clean_sbu_0--edge1-MIFKUJ_clean_linker_0
_symmetry_space_group_name_H-M    P1
_symmetry_Int_Tables_number       1
_symmetry_cell_setting            triclinic
loop_
_symmetry_equiv_pos_as_xyz
'x, y, z'
_cell_length_a     50.14553
_cell_length_b     50.115326
_cell_length_c     30.180885
_cell_angle_alpha  96.408046
_cell_angle_beta   96.626256
_cell_angle_gamma 90.84251
loop_
_atom_site_label
_atom_site_type_symbol
_atom_site_fract_x
_atom_site_fract_y
_atom_site_fract_z
_atom_type_partial_charge
Gd0 Gd 0.99547 0.99802 0.47613 0.0
Gd1 Gd 0.01777 0.02152 0.57111 0.0
C2 C 0.04383 0.04418 0.49147 0.0
C3 C 0.97676 0.98986 0.39174 0.0
C4 C 0.98345 0.99515 0.34678 0.0
C5 C 1.00568 0.98353 0.32835 0.0
C6 C 0.96612 0.01039 0.32032 0.0
C7 C 0.99209 1.00096 0.25696 0.0
C8 C 0.97042 0.01336 0.27608 0.0
C9 C 0.00994 0.98642 0.28402 0.0
C10 C 0.03365 0.96926 0.51841 0.0
C11 C 0.96789 0.97653 0.55558 0.0
C12 C 0.0383 0.02904 0.65461 0.0
C13 C 0.03284 0.02396 0.70013 0.0
C14 C 0.00791 0.02936 0.71572 0.0
C15 C 0.05356 0.01473 0.72935 0.0
C16 C 0.02495 0.01719 0.78984 0.0
C17 C 0.04964 0.01119 0.77351 0.0
C18 C 1.00405 0.02611 0.76011 0.0
C19 C 0.97963 0.05041 0.52918 0.0
O20 O 0.02308 0.03249 0.46481 0.0
O21 O 0.04876 0.03954 0.53391 0.0
O22 O 0.99128 0.97262 0.41271 0.0
O23 O 0.97024 0.01037 0.41878 0.0
O24 O 0.013 0.95853 0.49238 0.0
O25 O 0.0338 0.99445 0.51915 0.0
O26 O 0.98835 0.9885 0.58285 0.0
O27 O 0.96405 0.98026 0.51256 0.0
O28 O 0.02357 0.04661 0.63482 0.0
O29 O 0.04347 0.00821 0.62703 0.0
O30 O 1.00006 0.06111 0.55591 0.0
O31 O 0.97954 0.0252 0.52808 0.0
H32 H 0.01945 0.9716 0.34772 0.0
H33 H 0.94885 0.01961 0.3336 0.0
H34 H 0.95657 0.02522 0.25672 0.0
H35 H 0.02674 0.97642 0.27052 0.0
H36 H 0.99156 0.03656 0.69391 0.0
H37 H 0.07292 0.01031 0.71803 0.0
H38 H 0.06604 1.00365 0.79475 0.0
H39 H 0.98486 0.0313 0.77136 0.0
Gd40 Gd 0.25316 0.74488 0.73004 0.0
Gd41 Gd 0.24329 0.7668 0.82828 0.0
C42 C 0.21363 0.79349 0.74185 0.0
C43 C 0.25704 0.71902 0.65192 0.0
C44 C 0.25566 0.72464 0.60455 0.0
C45 C 0.27574 0.71508 0.57863 0.0
C46 C 0.23457 0.73906 0.58457 0.0
C47 C 0.25352 0.73376 0.51311 0.0
C48 C 0.23347 0.74349 0.53935 0.0
C49 C 0.27475 0.71963 0.53355 0.0
C50 C 0.28085 0.79004 0.76552 0.0
C51 C 0.28506 0.72018 0.81667 0.0
C52 C 0.23772 0.79213 0.90615 0.0
C53 C 0.23952 0.78653 0.95353 0.0
C54 C 0.21942 0.79569 0.97968 0.0
C55 C 0.26095 0.77242 0.97322 0.0
C56 C 0.24224 0.7772 0.0449 0.0
C57 C 0.26232 0.76787 0.01843 0.0
C58 C 0.22069 0.79105 0.02474 0.0
C59 C 0.21744 0.72066 0.79373 0.0
O60 O 0.21977 0.77258 0.71456 0.0
O61 O 0.22308 0.79689 0.78512 0.0
O62 O 0.27785 0.72927 0.67903 0.0
O63 O 0.23466 0.72028 0.67054 0.0
O64 O 0.27285 0.78473 0.72294 0.0
O65 O 0.27565 0.77048 0.78602 0.0
O66 O 0.27847 0.74107 0.84367 0.0
O67 O 0.27492 0.71583 0.77374 0.0
O68 O 0.21762 0.78051 0.87895 0.0
O69 O 0.26013 0.79247 0.88774 0.0
O70 O 0.22497 0.72634 0.8363 0.0
O71 O 0.22149 0.74034 0.7728 0.0
H72 H 0.29227 0.70401 0.59332 0.0
H73 H 0.2188 0.74676 0.60375 0.0
H74 H 0.21664 0.75418 0.52479 0.0
H75 H 0.29083 0.71224 0.51486 0.0
H76 H 0.20263 0.8065 0.96518 0.0
H77 H 0.27672 0.76503 0.9538 0.0
H78 H 0.27937 0.75741 0.03278 0.0
H79 H 0.20459 0.79811 0.04364 0.0
Gd80 Gd 0.51881 1.00251 0.05087 0.0
Gd81 Gd 0.49145 0.01286 0.95735 0.0
C82 C 0.46727 0.04176 0.04237 0.0
C83 C 0.54102 1.00572 0.13328 0.0
C84 C 0.53308 0.00853 0.17928 0.0
C85 C 0.51122 0.99367 0.19018 0.0
C86 C 0.54854 0.02521 0.21347 0.0
C87 C 0.5215 0.01095 0.26928 0.0
C88 C 0.54277 0.0265 0.25797 0.0
C89 C 0.50556 0.99481 0.23473 0.0
C90 C 0.47899 0.96767 0.01382 0.0
C91 C 0.54337 0.97361 0.96664 0.0
C92 C 0.46877 0.00899 0.87517 0.0
C93 C 0.47621 0.00737 0.82878 0.0
C94 C 0.49459 0.02586 0.81642 0.0
C95 C 0.46344 0.98807 0.79554 0.0
C96 C 0.48597 0.00669 0.73785 0.0
C97 C 0.46819 0.98774 0.75066 0.0
C98 C 0.49942 0.02551 0.77152 0.0
C99 C 0.53105 0.04802 0.99399 0.0
O100 O 0.48981 0.03579 0.06628 0.0
O101 O 0.46095 0.03101 1.00024 0.0
O102 O 0.5344 0.983 0.10835 0.0
O103 O 0.53814 0.02661 0.11082 0.0
O104 O 0.50033 0.96051 0.03745 0.0
O105 O 0.47928 0.99251 1.01265 0.0
O106 O 0.52125 0.9801 0.94198 0.0
O107 O 0.54926 0.98393 1.00903 0.0
O108 O 0.47384 0.03185 0.90054 0.0
O109 O 0.47337 0.98807 0.89713 0.0
O110 O 0.51035 0.05463 0.96813 0.0
O111 O 0.53084 0.02319 0.99586 0.0
H112 H 0.49879 0.9808 0.16442 0.0
H113 H 0.56551 0.03681 0.20589 0.0
H114 H 0.55556 0.039 0.28376 0.0
H115 H 0.48879 0.9829 0.2422 0.0
H116 H 0.50497 0.04087 0.8413 0.0
H117 H 0.44929 0.97352 0.80409 0.0
H118 H 0.45727 0.97308 0.72581 0.0
H119 H 0.51365 0.04007 0.76319 0.0
Gd120 Gd 0.26654 0.26483 0.30712 0.0
Gd121 Gd 0.24317 0.2432 0.21122 0.0
C122 C 0.22145 0.21525 0.29094 0.0
C123 C 0.27234 0.28483 0.39089 0.0
C124 C 0.26669 0.27834 0.43557 0.0
C125 C 0.26669 0.25184 0.4467 0.0
C126 C 0.26222 0.29937 0.46835 0.0
C127 C 0.25913 0.26782 0.52368 0.0
C128 C 0.25845 0.29421 0.51185 0.0
C129 C 0.26303 0.24664 0.49039 0.0
C130 C 0.29581 0.22707 0.26598 0.0
C131 C 0.28808 0.29317 0.22777 0.0
C132 C 0.23633 0.22304 0.12745 0.0
C133 C 0.24169 0.22847 0.08207 0.0
C134 C 0.24149 0.25459 0.06926 0.0
C135 C 0.24568 0.20677 0.05018 0.0
C136 C 0.24806 0.23692 0.99255 0.0
C137 C 0.24882 0.21091 1.00595 0.0
C138 C 0.24458 0.25876 0.02488 0.0
C139 C 0.21377 0.28048 0.25313 0.0
O140 O 0.23524 0.23405 0.31909 0.0
O141 O 0.22305 0.21281 0.24717 0.0
O142 O 0.29069 0.27094 0.37187 0.0
O143 O 0.25168 0.28954 0.36243 0.0
O144 O 0.30618 0.24701 0.29417 0.0
O145 O 0.27048 0.22697 0.26326 0.0
O146 O 0.27491 0.27385 0.19965 0.0
O147 O 0.28587 0.29574 0.27135 0.0
O148 O 0.21877 0.23796 0.14667 0.0
O149 O 0.25695 0.21782 0.15555 0.0
O150 O 0.20345 0.26041 0.2252 0.0
O151 O 0.23906 0.28093 0.25512 0.0
H152 H 0.26987 0.23524 0.42182 0.0
H153 H 0.26216 0.31996 0.46052 0.0
H154 H 0.25579 0.31103 0.53661 0.0
H155 H 0.26327 0.22606 0.49816 0.0
H156 H 0.23858 0.27169 0.09334 0.0
H157 H 0.24588 0.18646 0.05931 0.0
H158 H 0.25123 0.19361 0.98197 0.0
H159 H 0.24421 0.27907 0.01585 0.0
Gd160 Gd 0.76297 0.24407 0.2126 0.0
Gd161 Gd 0.75369 0.26973 0.30903 0.0
C162 C 0.72277 0.29285 0.22467 0.0
C163 C 0.76472 0.21619 0.13563 0.0
C164 C 0.76374 0.22099 0.08766 0.0
C165 C 0.78718 0.2186 0.06621 0.0
C166 C 0.73971 0.22733 0.06252 0.0
C167 C 0.7628 0.22917 0.99583 0.0
C168 C 0.73926 0.23133 0.01716 0.0
C169 C 0.78675 0.22275 0.02102 0.0
C170 C 0.78719 0.29238 0.23871 0.0
C171 C 0.79404 0.21968 0.29972 0.0
C172 C 0.75675 0.29111 0.39207 0.0
C173 C 0.75833 0.2831 0.4383 0.0
C174 C 0.73552 0.28509 0.46144 0.0
C175 C 0.78246 0.27488 0.46073 0.0
C176 C 0.76086 0.27099 0.52838 0.0
C177 C 0.78373 0.26897 0.50529 0.0
C178 C 0.73672 0.27898 0.50573 0.0
C179 C 0.71756 0.23183 0.26898 0.0
O180 O 0.72624 0.26922 0.20173 0.0
O181 O 0.736 0.29998 0.26498 0.0
O182 O 0.78627 0.2253 0.16221 0.0
O183 O 0.74254 0.21928 0.15481 0.0
O184 O 0.78022 0.28353 0.19696 0.0
O185 O 0.78396 0.27428 0.26332 0.0
O186 O 0.78118 0.23635 0.32662 0.0
O187 O 0.79022 0.21895 0.25533 0.0
O188 O 0.73414 0.28553 0.36632 0.0
O189 O 0.77772 0.28771 0.3701 0.0
O190 O 0.71124 0.25256 0.29484 0.0
O191 O 0.7424 0.23153 0.26747 0.0
H192 H 0.80593 0.21341 0.08442 0.0
H193 H 0.72123 0.22923 0.07781 0.0
H194 H 0.7205 0.23647 0.99893 0.0
H195 H 0.80517 0.2205 1.00559 0.0
H196 H 0.71671 0.29174 0.44543 0.0
H197 H 0.80042 0.27319 0.44404 0.0
H198 H 0.8026 0.26267 0.5216 0.0
H199 H 0.71883 0.28116 0.52263 0.0
Gd200 Gd 0.77259 0.76653 0.81894 0.0
Gd201 Gd 0.74835 0.74427 0.72462 0.0
C202 C 0.72884 0.71571 0.80482 0.0
C203 C 0.78073 0.78614 0.90295 0.0
C204 C 0.77759 0.7795 0.94877 0.0
C205 C 0.79819 0.78721 0.9836 0.0
C206 C 0.75434 0.76654 0.95884 0.0
C207 C 0.77234 0.7696 0.03825 0.0
C208 C 0.75174 0.76168 1.00313 0.0
C209 C 0.79564 0.78234 0.02771 0.0
C210 C 0.80233 0.72978 0.77618 0.0
C211 C 0.79166 0.79538 0.73846 0.0
C212 C 0.7397 0.72443 0.64075 0.0
C213 C 0.74316 0.73032 0.5947 0.0
C214 C 0.72347 0.7208 0.55941 0.0
C215 C 0.76581 0.74443 0.58498 0.0
C216 C 0.749 0.73901 0.50498 0.0
C217 C 0.76875 0.74863 0.54051 0.0
C218 C 0.7263 0.72511 0.51516 0.0
C219 C 0.71883 0.78077 0.76834 0.0
O220 O 0.74123 0.73589 0.83201 0.0
O221 O 0.73146 0.71247 0.76142 0.0
O222 O 0.79882 0.77313 0.88193 0.0
O223 O 0.75894 0.79011 0.87637 0.0
O224 O 0.81245 0.75034 0.80309 0.0
O225 O 0.77711 0.72865 0.77525 0.0
O226 O 0.7793 0.77521 0.71124 0.0
O227 O 0.78936 0.79839 0.78201 0.0
O228 O 0.72215 0.73847 0.66154 0.0
O229 O 0.76129 0.71991 0.66736 0.0
O230 O 0.70856 0.75982 0.74257 0.0
O231 O 0.74393 0.78216 0.76812 0.0
H232 H 0.81623 0.79738 0.97675 0.0
H233 H 0.73814 0.76033 0.93261 0.0
H234 H 0.73364 0.75156 1.0098 0.0
H235 H 0.81176 0.78912 0.05376 0.0
H236 H 0.70591 0.70974 0.56606 0.0
H237 H 0.7813 0.752 0.61164 0.0
H238 H 0.78639 0.75959 0.53399 0.0
H239 H 0.71088 0.71708 0.48874 0.0
Gd240 Gd 0.49567 0.4947 0.96742 0.0
Gd241 Gd 0.51647 0.51818 0.06233 0.0
C242 C 0.54534 0.53966 0.98393 0.0
C243 C 0.47671 0.48708 0.88313 0.0
C244 C 0.48372 0.49107 0.83784 0.0
C245 C 0.48726 0.46856 0.80713 0.0
C246 C 0.48496 0.51679 0.82351 0.0
C247 C 0.49237 0.49723 0.74831 0.0
C248 C 0.48921 0.51982 0.77924 0.0
C249 C 0.49165 0.47159 0.763 0.0
C250 C 0.53342 0.46561 1.00984 0.0
C251 C 0.46714 0.47295 0.04594 0.0
C252 C 0.53494 0.52624 0.14678 0.0
C253 C 0.52749 0.52222 0.19177 0.0
C254 C 0.52413 0.54474 0.22256 0.0
C255 C 0.52537 0.49646 0.20563 0.0
C256 C 0.51743 0.51599 0.28058 0.0
C257 C 0.52043 0.4934 0.24958 0.0
C258 C 0.51905 0.54168 0.26634 0.0
C259 C 0.47865 0.54716 0.01966 0.0
O260 O 0.52549 0.52727 0.95594 0.0
O261 O 0.54828 0.53643 0.02714 0.0
O262 O 0.4898 0.46891 0.90412 0.0
O263 O 0.47201 0.50839 0.91004 0.0
O264 O 0.51332 0.45516 0.98216 0.0
O265 O 0.5336 0.4909 1.01171 0.0
O266 O 0.48721 0.48512 0.07368 0.0
O267 O 0.46386 0.47655 1.00287 0.0
O268 O 0.52174 0.54416 0.1254 0.0
O269 O 0.54015 0.50498 0.12017 0.0
O270 O 0.4988 0.55767 0.04714 0.0
O271 O 0.47852 0.5219 0.01815 0.0
H272 H 0.48605 0.44848 0.817 0.0
H273 H 0.48222 0.53459 0.84622 0.0
H274 H 0.48995 0.53987 0.76916 0.0
H275 H 0.49364 0.45374 0.73998 0.0
H276 H 0.52597 0.56484 0.213 0.0
H277 H 0.52789 0.47865 0.1828 0.0
H278 H 0.51903 0.47332 0.25934 0.0
H279 H 0.51721 0.55953 0.28946 0.0
Gd280 Gd 0.01815 0.49738 0.55257 0.0
Gd281 Gd 0.99601 0.51709 0.4615 0.0
C282 C 0.97017 0.54117 0.54901 0.0
C283 C 0.03967 0.494 0.63377 0.0
C284 C 0.0332 0.49714 0.68062 0.0
C285 C 0.03728 0.4755 0.7061 0.0
C286 C 0.02427 0.52148 0.70101 0.0
C287 C 0.02459 0.50256 0.77218 0.0
C288 C 0.02 0.52415 0.74637 0.0
C289 C 0.03293 0.47811 0.75123 0.0
C290 C 0.97803 0.46748 0.50425 0.0
C291 C 0.04346 0.47255 0.46509 0.0
C292 C 0.97478 0.5218 0.38054 0.0
C293 C 0.98163 0.52119 0.33419 0.0
C294 C 0.97255 0.54176 0.30885 0.0
C295 C 0.99612 0.50028 0.31428 0.0
C296 C 0.99092 0.51983 0.24322 0.0
C297 C 1.00055 0.4995 0.26914 0.0
C298 C 0.97729 0.54122 0.26407 0.0
C299 C 0.03774 0.54568 0.50868 0.0
O300 O 0.9895 0.52984 0.57366 0.0
O301 O 0.96644 0.53637 0.50469 0.0
O302 O 0.02828 0.47347 0.60734 0.0
O303 O 0.04129 0.51575 0.61363 0.0
O304 O 0.99705 0.45746 0.52975 0.0
O305 O 0.97993 0.49268 0.50858 0.0
O306 O 0.02366 0.4834 0.44051 0.0
O307 O 0.04777 0.47841 0.50927 0.0
O308 O 0.98457 0.54219 0.4089 0.0
O309 O 0.97479 0.49909 0.39835 0.0
O310 O 0.01916 0.55646 0.48352 0.0
O311 O 0.03436 0.52073 0.50451 0.0
H312 H 0.04415 0.45654 0.69116 0.0
H313 H 0.02094 0.53855 0.6822 0.0
H314 H 0.01377 0.54332 0.76145 0.0
H315 H 0.03613 0.46089 0.76972 0.0
H316 H 0.9615 0.55821 0.32365 0.0
H317 H 1.00342 0.48417 0.33316 0.0
H318 H 0.01086 0.48252 0.25435 0.0
H319 H 0.97018 0.55765 0.24584 0.0
H320 H 0.02986 0.07701 0.42678 0.0
H321 H 0.0587 0.10796 0.39549 0.0
H322 H 0.12718 0.0844 0.4812 0.0
H323 H 0.09783 0.05474 0.51487 0.0
H324 H 0.1316 0.13584 0.47553 0.0
H325 H 0.10865 0.0585 0.36032 0.0
H326 H 0.07366 0.02921 0.31372 0.0
H327 H 0.04061 0.09746 0.25494 0.0
H328 H 0.07518 0.12714 0.30142 0.0
H329 H 0.23336 0.18838 0.36408 0.0
H330 H 0.20365 0.15925 0.39746 0.0
H331 H 0.13864 0.17343 0.29658 0.0
H332 H 0.16928 0.20043 0.26083 0.0
H333 H 0.1312 0.12742 0.31019 0.0
H334 H 0.14904 0.20508 0.41736 0.0
H335 H 0.17654 0.23967 0.46795 0.0
H336 H 0.21205 0.17878 0.54328 0.0
H337 H 0.1849 0.14378 0.49297 0.0
C338 C 0.05107 0.07844 0.439 0.0
C339 C 0.06161 0.06313 0.47293 0.0
C340 C 0.06767 0.09609 0.42084 0.0
C341 C 0.09551 0.09806 0.43468 0.0
C342 C 0.10591 0.08322 0.46945 0.0
C343 C 0.08912 0.06615 0.48863 0.0
C344 C 0.11385 0.11506 0.41254 0.0
C345 C 0.13177 0.13374 0.4394 0.0
C346 C 0.11349 0.11334 0.36521 0.0
C347 C 0.09441 0.09503 0.33445 0.0
C348 C 0.09404 0.06719 0.33719 0.0
C349 C 0.07422 0.05055 0.31093 0.0
C350 C 0.05488 0.06152 0.28158 0.0
C351 C 0.0556 0.08902 0.27774 0.0
C352 C 0.07532 0.10574 0.30392 0.0
C353 C 0.21277 0.18497 0.34882 0.0
C354 C 0.20364 0.19658 0.30978 0.0
C355 C 0.19557 0.1686 0.36834 0.0
C356 C 0.16833 0.16456 0.35078 0.0
C357 C 0.15939 0.17601 0.31124 0.0
C358 C 0.17692 0.19153 0.2907 0.0
C359 C 0.14931 0.1483 0.37314 0.0
C360 C 0.13125 0.12966 0.34635 0.0
C361 C 0.14893 0.15075 0.4205 0.0
C362 C 0.16509 0.17178 0.45114 0.0
C363 C 0.16279 0.19905 0.44461 0.0
C364 C 0.1783 0.21873 0.47326 0.0
C365 C 0.19604 0.21142 0.50878 0.0
C366 C 0.19829 0.18441 0.51575 0.0
C367 C 0.18281 0.16465 0.48725 0.0
H368 H 0.20798 0.22667 0.53097 0.0
H369 H 0.03923 0.0488 0.26198 0.0
H370 H 0.02759 0.91828 0.53937 0.0
H371 H 0.0598 0.89285 0.58428 0.0
H372 H 0.11599 0.96027 0.60314 0.0
H373 H 0.08353 0.98605 0.559 0.0
H374 H 0.13841 0.91052 0.57517 0.0
H375 H 0.08316 0.94872 0.68141 0.0
H376 H 0.0419 0.95904 0.7161 0.0
H377 H 0.0313 0.87621 0.73481 0.0
H378 H 0.07076 0.86472 0.69616 0.0
H379 H 0.19763 0.84089 0.78474 0.0
H380 H 0.16956 0.87499 0.75207 0.0
H381 H 0.16161 0.82671 0.62346 0.0
H382 H 0.18987 0.79287 0.65541 0.0
H383 H 0.11901 0.87369 0.71429 0.0
H384 H 0.15801 0.86567 0.53968 0.0
H385 H 0.2001 0.85549 0.50704 0.0
H386 H 0.24581 0.88167 0.63408 0.0
H387 H 0.20403 0.89234 0.66734 0.0
C388 C 0.0468 0.92769 0.55317 0.0
C389 C 0.05314 0.95409 0.54565 0.0
C390 C 0.06512 0.91318 0.57895 0.0
C391 C 0.09025 0.9247 0.59716 0.0
C392 C 0.09669 0.95103 0.58941 0.0
C393 C 0.07816 0.96573 0.56431 0.0
C394 C 0.11001 0.90891 0.6232 0.0
C395 C 0.13413 0.90248 0.6056 0.0
C396 C 0.10464 0.89889 0.66349 0.0
C397 C 0.07994 0.90574 0.68502 0.0
C398 C 0.07164 0.93249 0.69157 0.0
C399 C 0.04845 0.93858 0.71191 0.0
C400 C 0.03383 0.91831 0.72732 0.0
C401 C 0.04229 0.89185 0.72215 0.0
C402 C 0.06495 0.88549 0.7006 0.0
C403 C 0.18996 0.83753 0.74947 0.0
C404 C 0.19615 0.81411 0.72274 0.0
C405 C 0.17386 0.85706 0.73086 0.0
C406 C 0.16376 0.85365 0.68513 0.0
C407 C 0.1696 0.83011 0.6586 0.0
C408 C 0.18568 0.81065 0.67708 0.0
C409 C 0.14666 0.87432 0.66505 0.0
C410 C 0.12316 0.88177 0.68385 0.0
C411 C 0.15255 0.88541 0.62602 0.0
C412 C 0.17785 0.87962 0.60606 0.0
C413 C 0.17705 0.86941 0.56058 0.0
C414 C 0.20085 0.86351 0.54199 0.0
C415 C 0.22561 0.86787 0.56849 0.0
C416 C 0.22661 0.87823 0.61362 0.0
C417 C 0.20287 0.88417 0.63237 0.0
H418 H 0.24401 0.86325 0.55405 0.0
H419 H 0.01606 0.92312 0.74351 0.0
H420 H 0.30243 0.82893 0.72265 0.0
H421 H 0.33894 0.86116 0.75435 0.0
H422 H 0.33822 0.83201 0.88353 0.0
H423 H 0.30316 0.79916 0.85174 0.0
H424 H 0.34522 0.90164 0.82172 0.0
H425 H 0.39886 0.82578 0.93226 0.0
H426 H 0.40405 0.77677 0.92901 0.0
H427 H 0.39123 0.7695 0.785 0.0
H428 H 0.38635 0.81851 0.78732 0.0
H429 H 0.42517 0.96959 1.00507 0.0
H430 H 0.39334 0.94082 0.95271 0.0
H431 H 0.4595 0.89869 0.89966 0.0
H432 H 0.49112 0.92598 0.95525 0.0
H433 H 0.42475 0.8647 0.90528 0.0
H434 H 0.41867 0.94821 0.84326 0.0
H435 H 0.41263 0.997 0.84182 0.0
H436 H 0.33322 0.98932 0.87941 0.0
H437 H 0.33872 0.94066 0.88136 0.0
C438 C 0.31001 0.82965 0.75787 0.0
C439 C 0.3001 0.81163 0.78487 0.0
C440 C 0.33075 0.84801 0.77586 0.0
C441 C 0.34158 0.84845 0.82093 0.0
C442 C 0.33053 0.83151 0.84838 0.0
C443 C 0.31024 0.81299 0.83034 0.0
C444 C 0.36495 0.86592 0.83972 0.0
C445 C 0.36283 0.89372 0.83962 0.0
C446 C 0.38815 0.85528 0.86174 0.0
C447 C 0.39214 0.82586 0.86001 0.0
C448 C 0.39741 0.81378 0.89988 0.0
C449 C 0.40022 0.78597 0.8982 0.0
C450 C 0.39792 0.77002 0.85683 0.0
C451 C 0.39295 0.78187 0.81703 0.0
C452 C 0.39015 0.80966 0.81851 0.0
C453 C 0.4327 0.95389 0.98248 0.0
C454 C 0.46025 0.94949 0.98414 0.0
C455 C 0.41463 0.93781 0.95204 0.0
C456 C 0.42401 0.91807 0.9212 0.0
C457 C 0.45176 0.91382 0.92298 0.0
C458 C 0.46977 0.92922 0.95473 0.0
C459 C 0.40475 0.90083 0.88909 0.0
C460 C 0.40761 0.8729 0.88658 0.0
C461 C 0.38256 0.91144 0.86382 0.0
C462 C 0.37918 0.94076 0.86251 0.0
C463 C 0.39997 0.95696 0.85135 0.0
C464 C 0.39665 0.98457 0.85047 0.0
C465 C 0.37264 0.99621 0.86061 0.0
C466 C 0.35182 0.98027 0.87154 0.0
C467 C 0.355 0.95267 0.8724 0.0
H468 H 0.37015 0.01759 0.85995 0.0
H469 H 0.4 0.74849 0.85562 0.0
H470 H 0.47785 0.0761 0.11937 0.0
H471 H 0.44687 0.10545 0.15662 0.0
H472 H 0.38248 0.07698 0.05398 0.0
H473 H 0.41378 0.04825 0.01548 0.0
H474 H 0.37869 0.12814 0.07218 0.0
H475 H 0.39032 0.05628 0.16345 0.0
H476 H 0.41488 0.02468 0.20916 0.0
H477 H 0.44868 0.09056 0.30294 0.0
H478 H 0.42475 0.12263 0.25734 0.0
H479 H 0.27778 0.18298 0.20729 0.0
H480 H 0.30511 0.14985 0.16806 0.0
H481 H 0.37721 0.18988 0.23742 0.0
H482 H 0.35016 0.22368 0.27504 0.0
H483 H 0.3738 0.13056 0.23585 0.0
H484 H 0.36517 0.20177 0.14017 0.0
H485 H 0.34001 0.23327 0.09507 0.0
H486 H 0.2989 0.16703 1.01089 0.0
H487 H 0.32355 0.13509 0.05603 0.0
C488 C 0.45708 0.07602 0.1047 0.0
C489 C 0.44827 0.0597 0.06454 0.0
C490 C 0.4393 0.09273 0.12625 0.0
C491 C 0.41209 0.09308 0.1088 0.0
C492 C 0.40331 0.07703 0.06833 0.0
C493 C 0.42123 0.06058 0.04633 0.0
C494 C 0.39306 0.11062 0.13232 0.0
C495 C 0.37732 0.12822 0.1078 0.0
C496 C 0.39144 0.11119 0.17909 0.0
C497 C 0.4059 0.09191 0.20666 0.0
C498 C 0.40317 0.06407 0.19359 0.0
C499 C 0.41697 0.04606 0.21952 0.0
C500 C 0.4334 0.05561 0.25885 0.0
C501 C 0.436 0.0832 0.27241 0.0
C502 C 0.42231 0.1013 0.24653 0.0
C503 C 0.29945 0.18489 0.21371 0.0
C504 C 0.31185 0.20619 0.2436 0.0
C505 C 0.31501 0.16586 0.19155 0.0
C506 C 0.34316 0.1675 0.1998 0.0
C507 C 0.35552 0.18828 0.23065 0.0
C508 C 0.34003 0.20759 0.25201 0.0
C509 C 0.35988 0.14793 0.17568 0.0
C510 C 0.3751 0.13006 0.20013 0.0
C511 C 0.3609 0.14694 0.12893 0.0
C512 C 0.34598 0.16605 0.10179 0.0
C513 C 0.35055 0.19392 0.11235 0.0
C514 C 0.33644 0.21185 0.08673 0.0
C515 C 0.31787 0.20216 0.05016 0.0
C516 C 0.31331 0.1745 0.03923 0.0
C517 C 0.32734 0.15647 0.06482 0.0
H518 H 0.30712 0.21609 0.03021 0.0
H519 H 0.44407 0.04164 0.27886 0.0
H520 H 0.9701 0.96224 0.64128 0.0
H521 H 0.93962 0.93196 0.67071 0.0
H522 H 0.89224 0.9191 0.54118 0.0
H523 H 0.92247 0.94966 0.5116 0.0
H524 H 0.85966 0.92399 0.6034 0.0
H525 H 0.93593 0.87302 0.57934 0.0
H526 H 0.98314 0.85964 0.58348 0.0
H527 H 0.9858 0.85838 0.72596 0.0
H528 H 0.93903 0.8729 0.723 0.0
H529 H 0.79174 0.80379 0.65007 0.0
H530 H 0.82034 0.8351 0.61853 0.0
H531 H 0.85896 0.86227 0.75127 0.0
H532 H 0.83013 0.83133 0.78322 0.0
H533 H 0.89515 0.84901 0.68495 0.0
H534 H 0.81632 0.90181 0.70395 0.0
H535 H 0.76777 0.91008 0.69289 0.0
H536 H 0.76909 0.90129 0.55 0.0
H537 H 0.81759 0.89259 0.5602 0.0
C538 C 0.95317 0.95307 0.61896 0.0
C539 C 0.94889 0.95847 0.5739 0.0
C540 C 0.93576 0.93558 0.63586 0.0
C541 C 0.91364 0.92285 0.60817 0.0
C542 C 0.90908 0.92856 0.56338 0.0
C543 C 0.9265 0.94604 0.54642 0.0
C544 C 0.8954 0.9036 0.62591 0.0
C545 C 0.86752 0.90746 0.62079 0.0
C546 C 0.90536 0.88188 0.64878 0.0
C547 C 0.934 0.87442 0.65102 0.0
C548 C 0.94673 0.87043 0.61171 0.0
C549 C 0.97345 0.86262 0.61382 0.0
C550 C 0.98754 0.85829 0.65496 0.0
C551 C 0.97499 0.86195 0.69412 0.0
C552 C 0.94839 0.87007 0.69227 0.0
C553 C 0.80621 0.8165 0.67267 0.0
C554 C 0.80852 0.81502 0.71931 0.0
C555 C 0.82253 0.83447 0.65452 0.0
C556 C 0.8418 0.85116 0.68247 0.0
C557 C 0.84425 0.84964 0.72898 0.0
C558 C 0.82764 0.83199 0.74724 0.0
C559 C 0.85973 0.86983 0.6632 0.0
C560 C 0.88749 0.86571 0.6678 0.0
C561 C 0.84962 0.89087 0.63896 0.0
C562 C 0.82053 0.8963 0.63284 0.0
C563 C 0.80621 0.90142 0.67016 0.0
C564 C 0.77871 0.90623 0.66405 0.0
C565 C 0.76534 0.90615 0.62077 0.0
C566 C 0.77946 0.90133 0.58351 0.0
C567 C 0.80696 0.89648 0.58944 0.0
H568 H 0.74405 0.90987 0.61611 0.0
H569 H 0.00813 0.85194 0.65642 0.0
H570 H 0.93178 0.03226 0.48185 0.0
H571 H 0.89943 0.05811 0.43764 0.0
H572 H 0.9511 0.12872 0.47204 0.0
H573 H 0.98333 0.10308 0.51628 0.0
H574 H 0.87192 0.10387 0.46495 0.0
H575 H 0.94789 0.16276 0.37888 0.0
H576 H 0.99274 0.15615 0.35395 0.0
H577 H 0.97876 0.07072 0.33681 0.0
H578 H 0.93366 0.07678 0.36082 0.0
H579 H 0.81236 0.21937 0.3887 0.0
H580 H 0.84336 0.18834 0.42275 0.0
H581 H 0.84998 0.1461 0.29209 0.0
H582 H 0.81927 0.17744 0.2575 0.0
H583 H 0.89817 0.15149 0.34028 0.0
H584 H 0.81076 0.12059 0.36473 0.0
H585 H 0.76565 0.12477 0.38939 0.0
H586 H 0.80082 0.14898 0.52475 0.0
H587 H 0.84616 0.14529 0.50078 0.0
C588 C 0.93618 0.05329 0.47989 0.0
C589 C 0.96001 0.06571 0.50248 0.0
C590 C 0.9177 0.06803 0.45478 0.0
C591 C 0.92294 0.09528 0.45133 0.0
C592 C 0.94676 0.10766 0.4739 0.0
C593 C 0.96509 0.09302 0.49931 0.0
C594 C 0.90346 0.11104 0.4247 0.0
C595 C 0.8776 0.11422 0.4376 0.0
C596 C 0.91076 0.1241 0.38845 0.0
C597 C 0.93743 0.12027 0.37205 0.0
C598 C 0.95428 0.14257 0.36944 0.0
C599 C 0.97977 0.1389 0.35553 0.0
C600 C 0.98862 0.11302 0.34395 0.0
C601 C 0.97191 0.09074 0.34591 0.0
C602 C 0.94638 0.09429 0.3597 0.0
C603 C 0.8203 0.20345 0.36708 0.0
C604 C 0.81304 0.20079 0.3203 0.0
C605 C 0.83804 0.18566 0.38668 0.0
C606 C 0.84873 0.16456 0.36012 0.0
C607 C 0.84196 0.16214 0.31334 0.0
C608 C 0.8243 0.18005 0.29362 0.0
C609 C 0.86675 0.14496 0.38134 0.0
C610 C 0.89237 0.14104 0.36743 0.0
C611 C 0.8591 0.13085 0.41627 0.0
C612 C 0.83186 0.13285 0.43087 0.0
C613 C 0.80888 0.12696 0.3997 0.0
C614 C 0.78327 0.12922 0.41356 0.0
C615 C 0.78037 0.13718 0.45858 0.0
C616 C 0.80309 0.14283 0.48987 0.0
C617 C 0.82875 0.14062 0.47618 0.0
H618 H 0.76053 0.13893 0.46924 0.0
H619 H 0.0084 0.11023 0.33341 0.0
H620 H 0.66707 0.2419 0.23389 0.0
H621 H 0.63558 0.21057 0.18544 0.0
H622 H 0.69329 0.14769 0.19614 0.0
H623 H 0.72546 0.17967 0.24171 0.0
H624 H 0.67234 0.14355 0.11667 0.0
H625 H 0.635 0.15331 0.25597 0.0
H626 H 0.61791 0.17713 0.32249 0.0
H627 H 0.55558 0.21073 0.2376 0.0
H628 H 0.57251 0.18737 0.17052 0.0
H629 H 0.5769 0.03601 0.04382 0.0
H630 H 0.60911 0.06757 0.09032 0.0
H631 H 0.56185 0.13398 0.05023 0.0
H632 H 0.52947 0.10246 1.00366 0.0
H633 H 0.57709 0.13531 0.1443 0.0
H634 H 0.61723 0.12166 1.00439 0.0
H635 H 0.63436 0.09297 0.94264 0.0
H636 H 0.6922 0.06058 0.03708 0.0
H637 H 0.67521 0.08887 0.09945 0.0
C638 C 0.67284 0.22133 0.2259 0.0
C639 C 0.69836 0.2129 0.24156 0.0
C640 C 0.65486 0.20341 0.1985 0.0
C641 C 0.66181 0.17657 0.188 0.0
C642 C 0.68745 0.16826 0.20382 0.0
C643 C 0.70573 0.18642 0.22996 0.0
C644 C 0.64261 0.15727 0.15976 0.0
C645 C 0.65163 0.14155 0.12322 0.0
C646 C 0.61547 0.15475 0.16791 0.0
C647 C 0.60519 0.16878 0.2082 0.0
C648 C 0.61776 0.16592 0.25148 0.0
C649 C 0.60809 0.17932 0.28928 0.0
C650 C 0.58572 0.19549 0.28427 0.0
C651 C 0.57293 0.19823 0.24143 0.0
C652 C 0.58254 0.18489 0.20351 0.0
C653 C 0.5735 0.05735 0.04479 0.0
C654 C 0.55086 0.06695 0.02026 0.0
C655 C 0.59187 0.07528 0.07121 0.0
C656 C 0.5878 0.10298 0.07328 0.0
C657 C 0.56521 0.11261 0.04881 0.0
C658 C 0.54688 0.09468 0.0222 0.0
C659 C 0.60695 0.12193 0.10166 0.0
C660 C 0.59786 0.13748 0.1381 0.0
C661 C 0.63416 0.12371 0.09425 0.0
C662 C 0.64482 0.10724 0.05659 0.0
C663 C 0.63352 0.10833 1.01199 0.0
C664 C 0.64322 0.09216 0.97688 0.0
C665 C 0.66432 0.07492 0.98594 0.0
C666 C 0.67586 0.07393 0.03011 0.0
C667 C 0.66623 0.09007 0.06534 0.0
H668 H 0.67175 0.06236 0.95873 0.0
H669 H 0.57826 0.20585 0.31358 0.0
H670 H 0.67417 0.7718 0.80773 0.0
H671 H 0.64624 0.8051 0.84424 0.0
H672 H 0.69846 0.86867 0.81536 0.0
H673 H 0.72771 0.83504 0.78252 0.0
H674 H 0.68323 0.88409 0.88859 0.0
H675 H 0.63301 0.84704 0.74966 0.0
H676 H 0.6125 0.81068 0.69371 0.0
H677 H 0.56331 0.78567 0.78982 0.0
H678 H 0.58369 0.82177 0.84645 0.0
H679 H 0.54451 0.95647 0.87738 0.0
H680 H 0.57566 0.92536 0.84385 0.0
H681 H 0.61517 0.91601 0.97579 0.0
H682 H 0.58479 0.94781 1.0093 0.0
H683 H 0.58459 0.87557 0.84706 0.0
H684 H 0.68037 0.90241 0.97353 0.0
H685 H 0.70141 0.942 0.02146 0.0
H686 H 0.66016 0.99421 0.9346 0.0
H687 H 0.63918 0.95495 0.8858 0.0
C688 C 0.67972 0.79291 0.80961 0.0
C689 C 0.70285 0.80097 0.79203 0.0
C690 C 0.66361 0.812 0.83008 0.0
C691 C 0.66954 0.83964 0.83133 0.0
C692 C 0.6932 0.84758 0.81474 0.0
C693 C 0.7099 0.82839 0.79581 0.0
C694 C 0.65095 0.86019 0.84919 0.0
C695 C 0.66168 0.88218 0.87935 0.0
C696 C 0.62275 0.85829 0.83664 0.0
C697 C 0.61001 0.83698 0.80234 0.0
C698 C 0.61786 0.83375 0.75886 0.0
C699 C 0.60626 0.81319 0.72704 0.0
C700 C 0.58665 0.79585 0.73823 0.0
C701 C 0.5785 0.79912 0.7812 0.0
C702 C 0.59003 0.81966 0.81314 0.0
C703 C 0.55995 0.94793 0.89925 0.0
C704 C 0.56228 0.95483 0.94602 0.0
C705 C 0.57772 0.93004 0.88002 0.0
C706 C 0.5981 0.91851 0.90713 0.0
C707 C 0.60012 0.92506 0.95393 0.0
C708 C 0.58261 0.94322 0.97312 0.0
C709 C 0.61689 0.89929 0.88658 0.0
C710 C 0.60617 0.87752 0.85607 0.0
C711 C 0.64513 0.90197 0.89747 0.0
C712 C 0.658 0.92571 0.92627 0.0
C713 C 0.67589 0.92233 0.96455 0.0
C714 C 0.68778 0.94472 0.99188 0.0
C715 C 0.68206 0.9706 0.98116 0.0
C716 C 0.66451 0.97416 0.94296 0.0
C717 C 0.65259 0.95184 0.91547 0.0
H718 H 0.69125 0.98791 1.0024 0.0
H719 H 0.57775 0.77989 0.7136 0.0
H720 H 0.54957 0.54664 0.89592 0.0
H721 H 0.58124 0.57575 0.86663 0.0
H722 H 0.61618 0.60309 1.00171 0.0
H723 H 0.58509 0.57341 0.03114 0.0
H724 H 0.58949 0.62746 0.87298 0.0
H725 H 0.68157 0.62153 1.00518 0.0
H726 H 0.70182 0.58987 0.05552 0.0
H727 H 0.66482 0.52337 0.96646 0.0
H728 H 0.64463 0.55461 0.91532 0.0
H729 H 0.7236 0.71147 0.89345 0.0
H730 H 0.69306 0.68174 0.92413 0.0
H731 H 0.66311 0.64714 0.7901 0.0
H732 H 0.6936 0.67679 0.7591 0.0
H733 H 0.68768 0.62694 0.91895 0.0
H734 H 0.59523 0.6331 0.78695 0.0
H735 H 0.5754 0.66499 0.73664 0.0
H736 H 0.61364 0.73107 0.82517 0.0
H737 H 0.63334 0.69963 0.87634 0.0
C738 C 0.56408 0.55871 0.91949 0.0
C739 C 0.56481 0.5574 0.96602 0.0
C740 C 0.58219 0.5755 0.90262 0.0
C741 C 0.60154 0.59152 0.9317 0.0
C742 C 0.60199 0.59057 0.97825 0.0
C743 C 0.58404 0.5736 0.99514 0.0
C744 C 0.62095 0.60932 0.91332 0.0
C745 C 0.61098 0.62699 0.88262 0.0
C746 C 0.64907 0.60945 0.92649 0.0
C747 C 0.66137 0.59044 0.95668 0.0
C748 C 0.67784 0.60015 0.99627 0.0
C749 C 0.68929 0.58227 0.02495 0.0
C750 C 0.68454 0.55463 0.01426 0.0
C751 C 0.6684 0.54479 0.97478 0.0
C752 C 0.65692 0.56258 0.94596 0.0
C753 C 0.71061 0.69749 0.87039 0.0
C754 C 0.71113 0.69666 0.82366 0.0
C755 C 0.69316 0.68041 0.88808 0.0
C756 C 0.67551 0.66229 0.85954 0.0
C757 C 0.67626 0.66112 0.81291 0.0
C758 C 0.69386 0.67805 0.7952 0.0
C759 C 0.65618 0.64482 0.87849 0.0
C760 C 0.66618 0.6273 0.9093 0.0
C761 C 0.62811 0.64482 0.86542 0.0
C762 C 0.616 0.66395 0.83521 0.0
C763 C 0.59932 0.65444 0.79576 0.0
C764 C 0.58811 0.67244 0.76709 0.0
C765 C 0.59333 0.70003 0.77763 0.0
C766 C 0.60969 0.70969 0.81696 0.0
C767 C 0.62091 0.69178 0.84578 0.0
H768 H 0.58466 0.71393 0.75537 0.0
H769 H 0.6934 0.54083 0.03654 0.0
H770 H 0.7188 0.34679 0.24969 0.0
H771 H 0.68822 0.37803 0.21473 0.0
H772 H 0.6529 0.31294 0.11935 0.0
H773 H 0.68398 0.28183 0.15321 0.0
H774 H 0.65975 0.35394 0.07714 0.0
H775 H 0.62163 0.34163 0.21238 0.0
H776 H 0.6211 0.34128 0.29391 0.0
H777 H 0.64153 0.42561 0.31551 0.0
H778 H 0.64254 0.42639 0.23411 0.0
H779 H 0.53634 0.41126 1.00293 0.0
H780 H 0.57031 0.38437 0.04069 0.0
H781 H 0.6111 0.45668 0.10763 0.0
H782 H 0.57739 0.48385 0.06888 0.0
H783 H 0.60327 0.41507 0.16501 0.0
H784 H 0.63851 0.42653 0.0269 0.0
H785 H 0.63677 0.4256 0.94477 0.0
H786 H 0.61906 0.34074 0.92841 0.0
H787 H 0.62029 0.34124 1.01046 0.0
C788 C 0.70444 0.33911 0.22138 0.0
C789 C 0.70382 0.31179 0.20431 0.0
C790 C 0.68686 0.357 0.20149 0.0
C791 C 0.66791 0.34788 0.16465 0.0
C792 C 0.66731 0.32057 0.14764 0.0
C793 C 0.68509 0.30275 0.16713 0.0
C794 C 0.64902 0.36673 0.1432 0.0
C795 C 0.64722 0.36705 0.09644 0.0
C796 C 0.63302 0.38442 0.16825 0.0
C797 C 0.63246 0.384 0.2172 0.0
C798 C 0.62623 0.36005 0.23455 0.0
C799 C 0.6258 0.35979 0.28073 0.0
C800 C 0.63136 0.38339 0.30988 0.0
C801 C 0.63729 0.40733 0.29289 0.0
C802 C 0.63777 0.4077 0.24674 0.0
C803 C 0.55257 0.42148 0.02559 0.0
C804 C 0.55416 0.44967 0.03307 0.0
C805 C 0.57197 0.40607 0.04713 0.0
C806 C 0.59327 0.41851 0.07686 0.0
C807 C 0.59479 0.44669 0.08487 0.0
C808 C 0.57553 0.46217 0.06277 0.0
C809 C 0.6139 0.40189 0.09921 0.0
C810 C 0.61599 0.40202 0.14599 0.0
C811 C 0.62993 0.38436 0.07418 0.0
C812 C 0.62925 0.38398 0.02482 0.0
C813 C 0.63401 0.40771 1.00577 0.0
C814 C 0.63316 0.40725 0.95923 0.0
C815 C 0.62774 0.38314 0.93138 0.0
C816 C 0.62322 0.35941 0.95003 0.0
C817 C 0.62402 0.35977 0.99655 0.0
H818 H 0.6271 0.38282 0.89536 0.0
H819 H 0.63101 0.38314 0.34563 0.0
H820 H 0.98135 0.41489 0.47328 0.0
H821 H 0.94988 0.38826 0.41695 0.0
H822 H 0.90059 0.4576 0.40413 0.0
H823 H 0.93262 0.48449 0.45921 0.0
H824 H 0.90182 0.37433 0.42142 0.0
H825 H 0.86657 0.4563 0.30687 0.0
H826 H 0.88617 0.4934 0.27261 0.0
H827 H 0.96232 0.45502 0.27994 0.0
H828 H 0.94339 0.41822 0.31521 0.0
H829 H 0.78192 0.3246 0.31453 0.0
H830 H 0.81325 0.36046 0.35041 0.0
H831 H 0.85784 0.35147 0.23576 0.0
H832 H 0.82565 0.3162 0.19896 0.0
H833 H 0.86205 0.40266 0.27618 0.0
H834 H 0.87484 0.31465 0.31736 0.0
H835 H 0.86123 0.2714 0.3409 0.0
H836 H 0.84158 0.31195 0.46543 0.0
H837 H 0.85468 0.35555 0.44228 0.0
C838 C 0.96384 0.42441 0.45819 0.0
C839 C 0.95916 0.45157 0.47056 0.0
C840 C 0.94596 0.40925 0.42599 0.0
C841 C 0.92301 0.421 0.40608 0.0
C842 C 0.91846 0.44826 0.4183 0.0
C843 C 0.93656 0.46352 0.45007 0.0
C844 C 0.90273 0.40424 0.37538 0.0
C845 C 0.89326 0.38054 0.38964 0.0
C846 C 0.89197 0.41192 0.33339 0.0
C847 C 0.90362 0.43467 0.31398 0.0
C848 C 0.88755 0.45594 0.30143 0.0
C849 C 0.89858 0.47699 0.28204 0.0
C850 C 0.92555 0.47674 0.27445 0.0
C851 C 0.94157 0.4555 0.28645 0.0
C852 C 0.93075 0.43463 0.3064 0.0
C853 C 0.79801 0.33083 0.29663 0.0
C854 C 0.80199 0.31748 0.25477 0.0
C855 C 0.81577 0.35132 0.31694 0.0
C856 C 0.8382 0.35795 0.29618 0.0
C857 C 0.84069 0.34645 0.25233 0.0
C858 C 0.82245 0.32632 0.23148 0.0
C859 C 0.86089 0.37334 0.32299 0.0
C860 C 0.87073 0.39663 0.30804 0.0
C861 C 0.87302 0.36458 0.36336 0.0
C862 C 0.86557 0.33839 0.37796 0.0
C863 C 0.86749 0.31436 0.34968 0.0
C864 C 0.85987 0.28979 0.36293 0.0
C865 C 0.85057 0.28893 0.40463 0.0
C866 C 0.84883 0.31266 0.43315 0.0
C867 C 0.85636 0.33731 0.41999 0.0
H868 H 0.84478 0.26986 0.41485 0.0
H869 H 0.93399 0.4929 0.25901 0.0
H870 H 0.85613 0.73216 0.7724 0.0
H871 H 0.88352 0.6994 0.73346 0.0
H872 H 0.81293 0.64895 0.68845 0.0
H873 H 0.78532 0.68207 0.72682 0.0
H874 H 0.89521 0.64976 0.74291 0.0
H875 H 0.81852 0.61584 0.58714 0.0
H876 H 0.78117 0.63489 0.54108 0.0
H877 H 0.81626 0.71407 0.57795 0.0
H878 H 0.85375 0.69551 0.62402 0.0
H879 H 0.95138 0.53708 0.62943 0.0
H880 H 0.92076 0.56707 0.66692 0.0
H881 H 0.91825 0.61698 0.55879 0.0
H882 H 0.94709 0.58576 0.51973 0.0
H883 H 0.87243 0.61694 0.58154 0.0
H884 H 0.95898 0.63104 0.66897 0.0
H885 H 1.00018 0.6173 0.71256 0.0
H886 H 0.95311 0.5879 0.80792 0.0
H887 H 0.9116 0.60118 0.76458 0.0
C888 C 0.84644 0.71409 0.75415 0.0
C889 C 0.81858 0.70969 0.75249 0.0
C890 C 0.86214 0.69532 0.73204 0.0
C891 C 0.85034 0.67172 0.70773 0.0
C892 C 0.82249 0.66716 0.7064 0.0
C893 C 0.80672 0.68605 0.72841 0.0
C894 C 0.86727 0.65207 0.68373 0.0
C895 C 0.89021 0.64254 0.70763 0.0
C896 C 0.86116 0.64305 0.63748 0.0
C897 C 0.83878 0.65429 0.60938 0.0
C898 C 0.81825 0.6373 0.58532 0.0
C899 C 0.79703 0.64803 0.55929 0.0
C900 C 0.79623 0.6757 0.55678 0.0
C901 C 0.81674 0.69268 0.58016 0.0
C902 C 0.83795 0.68207 0.6063 0.0
C903 C 0.94414 0.55441 0.61368 0.0
C904 C 0.95166 0.5592 0.57181 0.0
C905 C 0.92678 0.5717 0.63527 0.0
C906 C 0.91756 0.59484 0.61643 0.0
C907 C 0.92493 0.59937 0.57425 0.0
C908 C 0.94154 0.58158 0.55196 0.0
C909 C 0.90057 0.6145 0.64065 0.0
C910 C 0.8775 0.62402 0.61685 0.0
C911 C 0.90719 0.62434 0.68664 0.0
C912 C 0.93217 0.61689 0.71331 0.0
C913 C 0.95742 0.62156 0.69915 0.0
C914 C 0.98082 0.61385 0.72381 0.0
C915 C 0.97925 0.60167 0.76292 0.0
C916 C 0.95429 0.5973 0.77759 0.0
C917 C 0.93082 0.60495 0.75302 0.0
H918 H 0.99738 0.59567 0.78192 0.0
H919 H 0.7798 0.68396 0.53661 0.0
H920 H 0.33015 0.32466 0.27264 0.0
H921 H 0.35999 0.35496 0.24187 0.0
H922 H 0.31512 0.33668 0.1108 0.0
H923 H 0.28623 0.30522 0.14104 0.0
H924 H 0.36368 0.33863 0.09875 0.0
H925 H 0.31175 0.39957 0.18635 0.0
H926 H 0.29263 0.41865 0.25434 0.0
H927 H 0.37203 0.43437 0.3234 0.0
H928 H 0.39161 0.41518 0.25597 0.0
H929 H 0.42131 0.4466 1.00194 0.0
H930 H 0.3904 0.41693 0.03198 0.0
H931 H 0.43872 0.42832 0.16077 0.0
H932 H 0.46932 0.45841 0.13132 0.0
H933 H 0.38794 0.4304 0.17313 0.0
H934 H 0.4393 0.36963 0.08337 0.0
H935 H 0.45754 0.35081 0.01443 0.0
H936 H 0.37753 0.33532 0.9478 0.0
H937 H 0.35881 0.35443 0.01614 0.0
C938 C 0.32654 0.3272 0.2373 0.0
C939 C 0.30564 0.31255 0.20945 0.0
C940 C 0.34358 0.34475 0.21966 0.0
C941 C 0.33969 0.34881 0.17392 0.0
C942 C 0.31875 0.33414 0.14614 0.0
C943 C 0.3021 0.31615 0.16356 0.0
C944 C 0.35774 0.36771 0.15471 0.0
C945 C 0.36855 0.35885 0.11478 0.0
C946 C 0.36488 0.39403 0.17573 0.0
C947 C 0.35313 0.40572 0.21623 0.0
C948 C 0.32512 0.40697 0.21612 0.0
C949 C 0.31421 0.41783 0.25454 0.0
C950 C 0.3311 0.42768 0.29319 0.0
C951 C 0.35896 0.42676 0.29345 0.0
C952 C 0.36997 0.41592 0.25512 0.0
C953 C 0.4254 0.44283 0.03667 0.0
C954 C 0.44796 0.45497 0.06405 0.0
C955 C 0.40771 0.42566 0.05382 0.0
C956 C 0.41227 0.41991 0.09865 0.0
C957 C 0.43462 0.43228 0.12611 0.0
C958 C 0.45222 0.44952 0.10909 0.0
C959 C 0.39374 0.4013 0.11724 0.0
C960 C 0.3829 0.41021 0.15707 0.0
C961 C 0.38639 0.37513 0.09591 0.0
C962 C 0.39766 0.36374 0.05475 0.0
C963 C 0.4256 0.36243 0.0539 0.0
C964 C 0.43603 0.35168 0.01494 0.0
C965 C 0.41871 0.34195 0.97672 0.0
C966 C 0.39093 0.34291 0.9774 0.0
C967 C 0.3804 0.3537 0.01624 0.0
H968 H 0.42682 0.33361 0.94661 0.0
H969 H 0.32262 0.43607 0.32291 0.0
H970 H 0.4751 0.60144 0.02782 0.0
H971 H 0.44056 0.62825 0.99126 0.0
H972 H 0.4005 0.55594 0.9229 0.0
H973 H 0.43468 0.52881 0.96067 0.0
H974 H 0.40901 0.60065 0.86728 0.0
H975 H 0.37257 0.58235 1.00228 0.0
H976 H 0.37407 0.58074 0.08388 0.0
H977 H 0.38904 0.66602 0.10725 0.0
H978 H 0.38806 0.66808 0.02578 0.0
H979 H 0.29211 0.66769 0.78475 0.0
H980 H 0.32356 0.63619 0.81705 0.0
H981 H 0.35406 0.69851 0.92187 0.0
H982 H 0.32194 0.72961 0.89084 0.0
H983 H 0.34889 0.6556 0.95785 0.0
H984 H 0.3886 0.67576 0.82826 0.0
H985 H 0.39058 0.68001 0.74809 0.0
H986 H 0.37381 0.59537 0.71551 0.0
H987 H 0.37136 0.59067 0.79548 0.0
C988 C 0.45893 0.5912 1.00507 0.0
C989 C 0.45765 0.56302 0.99694 0.0
C990 C 0.43922 0.60656 0.9842 0.0
C991 C 0.41799 0.59407 0.95441 0.0
C992 C 0.4168 0.56594 0.94567 0.0
C993 C 0.43632 0.55049 0.9672 0.0
C994 C 0.39696 0.61064 0.93309 0.0
C995 C 0.39549 0.61234 0.8868 0.0
C996 C 0.38001 0.62651 0.95895 0.0
C997 C 0.38049 0.62532 1.00794 0.0
C998 C 0.37643 0.60073 0.02483 0.0
C999 C 0.37714 0.59974 0.07106 0.0
C1000 C 0.38172 0.62325 0.10074 0.0
C1001 C 0.38553 0.64782 0.08423 0.0
C1002 C 0.38488 0.64891 0.03803 0.0
C1003 C 0.3056 0.67467 0.8146 0.0
C1004 C 0.30453 0.70114 0.83524 0.0
C1005 C 0.32369 0.65666 0.83296 0.0
C1006 C 0.34154 0.66496 0.87171 0.0
C1007 C 0.34051 0.69148 0.89212 0.0
C1008 C 0.32213 0.70931 0.87427 0.0
C1009 C 0.36093 0.64602 0.89172 0.0
C1010 C 0.36218 0.64385 0.93795 0.0
C1011 C 0.37807 0.63016 0.86589 0.0
C1012 C 0.37949 0.63292 0.81779 0.0
C1013 C 0.38512 0.65809 0.80396 0.0
C1014 C 0.38636 0.66057 0.75856 0.0
C1015 C 0.38224 0.63799 0.72671 0.0
C1016 C 0.37694 0.61286 0.74021 0.0
C1017 C 0.37564 0.61027 0.78557 0.0
H1018 H 0.38322 0.63995 0.69158 0.0
H1019 H 0.38225 0.62245 0.13652 0.0
H1020 H 0.1711 0.69772 0.81056 0.0
H1021 H 0.14652 0.65956 0.76518 0.0
H1022 H 0.21244 0.6481 0.68522 0.0
H1023 H 0.2364 0.68661 0.72966 0.0
H1024 H 0.16912 0.6532 0.63383 0.0
H1025 H 0.194 0.60014 0.75135 0.0
H1026 H 0.20061 0.58794 0.82867 0.0
H1027 H 0.11556 0.59014 0.83511 0.0
H1028 H 0.10845 0.60277 0.75806 0.0
H1029 H 0.08056 0.52388 0.55306 0.0
H1030 H 0.1171 0.54754 0.60347 0.0
H1031 H 0.08119 0.62334 0.58078 0.0
H1032 H 0.04463 0.59971 0.52989 0.0
H1033 H 0.11612 0.57915 0.6808 0.0
H1034 H 0.13036 0.66986 0.5799 0.0
H1035 H 0.12708 0.67925 0.50098 0.0
H1036 H 0.14072 0.59635 0.45907 0.0
H1037 H 0.14452 0.58655 0.53777 0.0
C1038 C 0.18043 0.68656 0.78388 0.0
C1039 C 0.20519 0.69516 0.77262 0.0
C1040 C 0.16654 0.66472 0.7582 0.0
C1041 C 0.17767 0.65104 0.72176 0.0
C1042 C 0.20342 0.65853 0.71293 0.0
C1043 C 0.21701 0.68058 0.73807 0.0
C1044 C 0.16102 0.63171 0.68918 0.0
C1045 C 0.15777 0.63683 0.6441 0.0
C1046 C 0.14657 0.61012 0.70246 0.0
C1047 C 0.15072 0.6026 0.74894 0.0
C1048 C 0.17671 0.59825 0.76936 0.0
C1049 C 0.18055 0.59122 0.81314 0.0
C1050 C 0.15852 0.58832 0.83681 0.0
C1051 C 0.13261 0.5924 0.81673 0.0
C1052 C 0.12866 0.59947 0.77297 0.0
C1053 C 0.08052 0.5456 0.55879 0.0
C1054 C 0.0599 0.5601 0.53779 0.0
C1055 C 0.10133 0.55903 0.58759 0.0
C1056 C 0.10185 0.5871 0.59549 0.0
C1057 C 0.08124 0.60163 0.57451 0.0
C1058 C 0.06042 0.58819 0.54561 0.0
C1059 C 0.12378 0.6013 0.62614 0.0
C1060 C 0.12789 0.59527 0.67068 0.0
C1061 C 0.13955 0.62167 0.61224 0.0
C1062 C 0.13748 0.62744 0.56476 0.0
C1063 C 0.13278 0.65366 0.55387 0.0
C1064 C 0.13081 0.65905 0.50916 0.0
C1065 C 0.13361 0.6384 0.47502 0.0
C1066 C 0.13846 0.61232 0.48553 0.0
C1067 C 0.14048 0.60682 0.53018 0.0
H1068 H 0.13207 0.64261 0.44043 0.0
H1069 H 0.16154 0.58286 0.8707 0.0
H1070 H 0.16003 0.27837 0.25632 0.0
H1071 H 0.13236 0.31201 0.29246 0.0
H1072 H 0.20297 0.36215 0.33874 0.0
H1073 H 0.23086 0.32842 0.30209 0.0
H1074 H 0.13223 0.33198 0.37877 0.0
H1075 H 0.18379 0.42835 0.33821 0.0
H1076 H 0.21068 0.44312 0.28141 0.0
H1077 H 0.17357 0.38075 0.18368 0.0
H1078 H 0.14624 0.36584 0.23971 0.0
H1079 H 0.08491 0.44542 0.5048 0.0
H1080 H 0.11472 0.41414 0.46864 0.0
H1081 H 0.07419 0.42624 0.33877 0.0
H1082 H 0.04419 0.45781 0.37469 0.0
H1083 H 0.12948 0.42552 0.33938 0.0
H1084 H 0.05967 0.37147 0.38468 0.0
H1085 H 0.03084 0.35592 0.43809 0.0
H1086 H 0.10039 0.33174 0.51919 0.0
H1087 H 0.12968 0.34754 0.46659 0.0
C1088 C 0.16969 0.29656 0.27419 0.0
C1089 C 0.19758 0.30084 0.27628 0.0
C1090 C 0.15386 0.31572 0.29499 0.0
C1091 C 0.16552 0.33969 0.31806 0.0
C1092 C 0.19348 0.34392 0.3207 0.0
C1093 C 0.2094 0.32463 0.29996 0.0
C1094 C 0.14817 0.36014 0.33897 0.0
C1095 C 0.13176 0.35246 0.3703 0.0
C1096 C 0.14721 0.38678 0.32749 0.0
C1097 C 0.1632 0.39583 0.29331 0.0
C1098 C 0.18131 0.41786 0.30455 0.0
C1099 C 0.19664 0.42624 0.2725 0.0
C1100 C 0.1939 0.41282 0.22901 0.0
C1101 C 0.17575 0.39106 0.21742 0.0
C1102 C 0.16037 0.38261 0.24933 0.0
C1103 C 0.08231 0.44158 0.46851 0.0
C1104 C 0.062 0.4541 0.44269 0.0
C1105 C 0.0994 0.42362 0.4479 0.0
C1106 C 0.09656 0.41767 0.40103 0.0
C1107 C 0.07674 0.43055 0.37501 0.0
C1108 C 0.05953 0.44851 0.39563 0.0
C1109 C 0.11378 0.39738 0.37944 0.0
C1110 C 0.13014 0.40509 0.34806 0.0
C1111 C 0.11447 0.37064 0.39043 0.0
C1112 C 0.09688 0.36093 0.42192 0.0
C1113 C 0.06883 0.36303 0.41408 0.0
C1114 C 0.05241 0.35414 0.44418 0.0
C1115 C 0.06378 0.34291 0.48207 0.0
C1116 C 0.09161 0.34048 0.48986 0.0
C1117 C 0.10813 0.34938 0.4599 0.0
H1118 H 0.05104 0.33603 0.50534 0.0
H1119 H 0.20581 0.41932 0.20427 0.0
H1120 H 0.97939 1.00161 0.8247 0.0
H1121 H 0.97352 0.99895 0.90343 0.0
H1122 H 0.05636 0.02352 0.94268 0.0
H1123 H 0.06223 0.02739 0.86451 0.0
H1124 H 0.03993 0.97878 0.98363 0.0
H1125 H 0.01067 0.0678 0.95911 0.0
H1126 H 0.98353 0.10073 0.92027 0.0
H1127 H 0.91122 0.06285 0.94952 0.0
H1128 H 0.93794 0.02943 0.98799 0.0
H1129 H 0.039 1.00574 0.21866 0.0
H1130 H 0.04417 0.00837 0.13991 0.0
H1131 H 0.95823 1.00053 0.10616 0.0
H1132 H 0.95285 0.99883 0.18513 0.0
H1133 H 0.97569 0.03613 0.06106 0.0
H1134 H 1.00282 0.94734 0.08494 0.0
H1135 H 0.02833 0.91258 0.12183 0.0
H1136 H 0.10216 0.9469 0.09163 0.0
H1137 H 0.07711 0.9821 0.05506 0.0
C1138 C 0.99633 0.0068 0.84999 0.0
C1139 C 0.02131 0.01476 0.83783 0.0
C1140 C 0.99295 1.00509 0.89505 0.0
C1141 C 0.01449 0.01111 0.92898 0.0
C1142 C 0.0395 0.01865 0.91705 0.0
C1143 C 0.04283 0.02068 0.87213 0.0
C1144 C 0.01096 0.00974 0.97698 0.0
C1145 C 0.02612 0.99152 1.00078 0.0
C1146 C 0.99237 0.0258 0.99895 0.0
C1147 C 0.9763 0.04595 0.97601 0.0
C1148 C 0.98897 0.06635 0.95692 0.0
C1149 C 0.97367 0.08513 0.93504 0.0
C1150 C 0.94566 0.08384 0.93231 0.0
C1151 C 0.93291 0.0638 0.95159 0.0
C1152 C 0.94813 0.04495 0.97346 0.0
C1153 C 0.02115 1.00465 0.19461 0.0
C1154 C 0.99546 1.00241 0.20865 0.0
C1155 C 0.02416 1.00598 0.14934 0.0
C1156 C 1.00162 1.00428 0.11666 0.0
C1157 C 0.97597 1.002 0.13055 0.0
C1158 C 0.97292 1.00112 0.1759 0.0
C1159 C 1.00472 1.00511 0.06814 0.0
C1160 C 0.98947 0.02326 0.0441 0.0
C1161 C 0.02297 0.98867 0.04575 0.0
C1162 C 0.0381 0.96751 0.06765 0.0
C1163 C 0.02451 0.9476 0.08646 0.0
C1164 C 0.03889 0.9278 0.10726 0.0
C1165 C 0.06686 0.92758 0.10918 0.0
C1166 C 0.0805 0.94712 0.09018 0.0
C1167 C 0.06622 0.96699 0.06937 0.0
H1168 H 0.07795 0.91223 0.12529 0.0
H1169 H 0.93385 0.0984 0.91537 0.0
H1170 H 0.23678 0.77839 0.47315 0.0
H1171 H 0.23458 0.78521 0.39389 0.0
H1172 H 0.26574 0.70637 0.36385 0.0
H1173 H 0.26744 0.69907 0.4428 0.0
H1174 H 0.2906 0.7437 0.32246 0.0
H1175 H 0.20028 0.71705 0.33716 0.0
H1176 H 0.15745 0.71884 0.36997 0.0
H1177 H 0.14657 0.79942 0.33694 0.0
H1178 H 0.18956 0.79825 0.30449 0.0
H1179 H 0.2595 0.73257 0.08432 0.0
H1180 H 0.26184 0.7254 0.16347 0.0
H1181 H 0.23024 0.80395 0.19442 0.0
H1182 H 0.22831 0.81155 0.11557 0.0
H1183 H 0.20561 0.76647 0.23526 0.0
H1184 H 0.29617 0.79303 0.22071 0.0
H1185 H 0.33893 0.79097 0.18768 0.0
H1186 H 0.34924 0.71021 0.22015 0.0
H1187 H 0.30632 0.71166 0.25286 0.0
C1188 C 0.24287 0.76232 0.44971 0.0
C1189 C 0.25225 0.73813 0.46466 0.0
C1190 C 0.2417 0.76632 0.40432 0.0
C1191 C 0.24984 0.74624 0.37276 0.0
C1192 C 0.25944 0.7222 0.38755 0.0
C1193 C 0.26051 0.71813 0.43286 0.0
C1194 C 0.24839 0.75031 0.32436 0.0
C1195 C 0.27193 0.74833 0.30325 0.0
C1196 C 0.22417 0.75689 0.29941 0.0
C1197 C 0.19829 0.75766 0.31882 0.0
C1198 C 0.18887 0.73524 0.33724 0.0
C1199 C 0.16454 0.73612 0.35571 0.0
C1200 C 0.14933 0.75926 0.35566 0.0
C1201 C 0.15839 0.78153 0.33702 0.0
C1202 C 0.18273 0.78076 0.31856 0.0
C1203 C 0.25334 0.7485 0.10796 0.0
C1204 C 0.24374 0.77268 0.0933 0.0
C1205 C 0.25461 0.7443 0.15327 0.0
C1206 C 0.24638 0.7642 0.18506 0.0
C1207 C 0.23661 0.78825 0.17055 0.0
C1208 C 0.23542 0.79251 0.12531 0.0
C1209 C 0.24783 0.75993 0.23338 0.0
C1210 C 0.22427 0.76186 0.25447 0.0
C1211 C 0.27203 0.75327 0.25829 0.0
C1212 C 0.2979 0.75236 0.23882 0.0
C1213 C 0.30745 0.77476 0.22049 0.0
C1214 C 0.33174 0.77371 0.20189 0.0
C1215 C 0.34676 0.75045 0.20171 0.0
C1216 C 0.33756 0.7282 0.22026 0.0
C1217 C 0.31327 0.72913 0.23887 0.0
H1218 H 0.36556 0.74968 0.18729 0.0
H1219 H 0.13049 0.7599 0.36995 0.0
H1220 H 0.4889 0.9639 0.67314 0.0
H1221 H 0.494 0.96494 0.59385 0.0
H1222 H 0.49795 0.05154 0.61362 0.0
H1223 H 0.49169 0.05069 0.69258 0.0
H1224 H 0.46731 0.03507 0.53775 0.0
H1225 H 0.5548 0.01387 0.60373 0.0
H1226 H 0.58808 0.98879 0.64809 0.0
H1227 H 0.56665 0.91683 0.55903 0.0
H1228 H 0.53296 0.94142 0.51446 0.0
H1229 H 0.52152 0.0539 0.33428 0.0
H1230 H 0.51523 0.05317 0.41346 0.0
H1231 H 0.50428 0.967 0.39171 0.0
H1232 H 0.51092 0.96755 0.3127 0.0
H1233 H 0.53849 0.98351 0.46817 0.0
H1234 H 0.45125 1.00578 0.40146 0.0
H1235 H 0.41988 0.03206 0.35573 0.0
H1236 H 0.44237 0.1033 0.44594 0.0
H1237 H 0.47426 0.07752 0.49182 0.0
C1238 C 0.49063 0.98321 0.66065 0.0
C1239 C 0.48996 0.00721 0.68956 0.0
C1240 C 0.49382 0.98377 0.61526 0.0
C1241 C 0.49671 0.00833 0.59765 0.0
C1242 C 0.49586 0.03232 0.62629 0.0
C1243 C 0.49258 0.03178 0.67167 0.0
C1244 C 0.50058 0.00899 0.54943 0.0
C1245 C 0.48311 0.02406 0.52276 0.0
C1246 C 0.52087 0.99427 0.52937 0.0
C1247 C 0.54116 0.97943 0.55602 0.0
C1248 C 0.55703 0.99265 0.5938 0.0
C1249 C 0.576 0.97853 0.61895 0.0
C1250 C 0.57943 0.95122 0.60646 0.0
C1251 C 0.56394 0.93798 0.56871 0.0
C1252 C 0.54493 0.95201 0.54347 0.0
C1253 C 0.51783 0.03479 0.34639 0.0
C1254 C 0.51665 0.01079 0.3171 0.0
C1255 C 0.51408 0.03441 0.3916 0.0
C1256 C 0.50913 0.01003 0.40854 0.0
C1257 C 0.50805 0.98605 0.37943 0.0
C1258 C 0.5116 0.98643 0.33416 0.0
C1259 C 0.50523 0.0095 0.45666 0.0
C1260 C 0.5227 0.99448 0.48325 0.0
C1261 C 0.48505 0.02437 0.47665 0.0
C1262 C 0.46533 0.03976 0.44986 0.0
C1263 C 0.44963 0.02708 0.41142 0.0
C1264 C 0.43175 0.04188 0.38547 0.0
C1265 C 0.42919 0.06934 0.39785 0.0
C1266 C 0.44441 0.08203 0.43635 0.0
C1267 C 0.46237 0.06733 0.46237 0.0
H1268 H 0.41539 0.08078 0.37764 0.0
H1269 H 0.59412 0.94032 0.62597 0.0
H1270 H 0.28228 0.21311 0.93624 0.0
H1271 H 0.28399 0.21812 0.85685 0.0
H1272 H 0.22035 0.27495 0.86106 0.0
H1273 H 0.21823 0.26969 0.94031 0.0
H1274 H 0.21145 0.2384 0.78711 0.0
H1275 H 0.28425 0.29628 0.85858 0.0
H1276 H 0.32603 0.30878 0.9086 0.0
H1277 H 0.36835 0.24895 0.83331 0.0
H1278 H 0.32671 0.23583 0.78317 0.0
H1279 H 0.22461 0.29059 0.58036 0.0
H1280 H 0.22285 0.28468 0.65932 0.0
H1281 H 0.28621 0.2276 0.65326 0.0
H1282 H 0.28844 0.23384 0.57438 0.0
H1283 H 0.29536 0.26395 0.728 0.0
H1284 H 0.22194 0.20629 0.6563 0.0
H1285 H 0.17997 0.19464 0.60629 0.0
H1286 H 0.1388 0.25532 0.6818 0.0
H1287 H 0.18056 0.26743 0.73221 0.0
C1288 C 0.26861 0.22665 0.92028 0.0
C1289 C 0.25012 0.24101 0.94476 0.0
C1290 C 0.26974 0.22964 0.87491 0.0
C1291 C 0.25241 0.24704 0.85288 0.0
C1292 C 0.23395 0.26143 0.87724 0.0
C1293 C 0.23293 0.25858 0.9227 0.0
C1294 C 0.25324 0.24989 0.80433 0.0
C1295 C 0.22973 0.24433 0.77432 0.0
C1296 C 0.27719 0.25706 0.78729 0.0
C1297 C 0.30228 0.26487 0.8174 0.0
C1298 C 0.30241 0.28562 0.85292 0.0
C1299 C 0.32608 0.29285 0.88125 0.0
C1300 C 0.34981 0.27962 0.87422 0.0
C1301 C 0.34994 0.25916 0.83876 0.0
C1302 C 0.32631 0.25183 0.81035 0.0
C1303 C 0.2382 0.27679 0.5958 0.0
C1304 C 0.25672 0.26275 0.57094 0.0
C1305 C 0.23704 0.27327 0.64093 0.0
C1306 C 0.25431 0.25558 0.66235 0.0
C1307 C 0.27267 0.24136 0.63755 0.0
C1308 C 0.27375 0.24476 0.5923 0.0
C1309 C 0.25359 0.25242 0.71081 0.0
C1310 C 0.27711 0.25794 0.7408 0.0
C1311 C 0.22963 0.2453 0.72787 0.0
C1312 C 0.20444 0.23793 0.6978 0.0
C1313 C 0.20399 0.21727 0.66206 0.0
C1314 C 0.18024 0.21057 0.63366 0.0
C1315 C 0.15679 0.22432 0.6407 0.0
C1316 C 0.157 0.24471 0.67633 0.0
C1317 C 0.18068 0.25147 0.7049 0.0
H1318 H 0.13843 0.21912 0.61863 0.0
H1319 H 0.36812 0.28526 0.89617 0.0
H1320 H 0.80013 0.25641 0.95698 0.0
H1321 H 0.80004 0.2628 0.87783 0.0
H1322 H 0.72458 0.21859 0.84595 0.0
H1323 H 0.72481 0.21163 0.92507 0.0
H1324 H 0.75921 0.20325 0.78545 0.0
H1325 H 0.72659 0.28628 0.85004 0.0
H1326 H 0.72708 0.32719 0.90376 0.0
H1327 H 0.80138 0.3537 0.863 0.0
H1328 H 0.80153 0.31274 0.80944 0.0
H1329 H 0.72416 0.243 0.56724 0.0
H1330 H 0.72519 0.23555 0.64615 0.0
H1331 H 0.80132 0.27864 0.67678 0.0
H1332 H 0.80022 0.28654 0.59789 0.0
H1333 H 0.76663 0.2944 0.73778 0.0
H1334 H 0.79872 0.21142 0.67208 0.0
H1335 H 0.79747 0.17089 0.61737 0.0
H1336 H 0.72362 0.14441 0.65969 0.0
H1337 H 0.72418 0.18502 0.71419 0.0
C1338 C 0.78357 0.24788 0.93314 0.0
C1339 C 0.76246 0.23351 0.94754 0.0
C1340 C 0.78345 0.25175 0.88786 0.0
C1341 C 0.76219 0.24138 0.85582 0.0
C1342 C 0.74118 0.22684 0.86998 0.0
C1343 C 0.74123 0.22307 0.91533 0.0
C1344 C 0.76196 0.24567 0.8076 0.0
C1345 C 0.76047 0.2232 0.775 0.0
C1346 C 0.76422 0.27166 0.79387 0.0
C1347 C 0.76421 0.2963 0.82606 0.0
C1348 C 0.74316 0.30072 0.85281 0.0
C1349 C 0.74329 0.32394 0.88318 0.0
C1350 C 0.76429 0.34299 0.88689 0.0
C1351 C 0.78515 0.3389 0.86014 0.0
C1352 C 0.78513 0.3157 0.82975 0.0
C1353 C 0.74112 0.25095 0.59076 0.0
C1354 C 0.76212 0.26537 0.57615 0.0
C1355 C 0.74176 0.2465 0.63586 0.0
C1356 C 0.76342 0.25637 0.66748 0.0
C1357 C 0.78442 0.27079 0.65305 0.0
C1358 C 0.78387 0.27509 0.60784 0.0
C1359 C 0.7639 0.25199 0.71567 0.0
C1360 C 0.76542 0.27445 0.74825 0.0
C1361 C 0.76163 0.226 0.72935 0.0
C1362 C 0.76136 0.20141 0.69693 0.0
C1363 C 0.7821 0.19706 0.66949 0.0
C1364 C 0.78153 0.17406 0.63855 0.0
C1365 C 0.76044 0.15512 0.63498 0.0
C1366 C 0.73992 0.15911 0.66245 0.0
C1367 C 0.74036 0.18211 0.6934 0.0
H1368 H 0.76004 0.13733 0.61099 0.0
H1369 H 0.76435 0.36096 0.9104 0.0
H1370 H 0.79426 0.73414 0.4615 0.0
H1371 H 0.79838 0.73915 0.38278 0.0
H1372 H 0.71456 0.75805 0.36184 0.0
H1373 H 0.71029 0.75289 0.44031 0.0
H1374 H 0.72618 0.7242 0.29433 0.0
H1375 H 0.76615 0.80685 0.37056 0.0
H1376 H 0.79738 0.83515 0.42622 0.0
H1377 H 0.8646 0.79934 0.3686 0.0
H1378 H 0.83375 0.77054 0.31295 0.0
H1379 H 0.72752 0.77516 0.08289 0.0
H1380 H 0.72368 0.76955 0.16141 0.0
H1381 H 0.80701 0.74868 0.18033 0.0
H1382 H 0.81098 0.75414 0.10188 0.0
H1383 H 0.79583 0.78333 0.2487 0.0
H1384 H 0.75556 0.70087 0.17204 0.0
H1385 H 0.72413 0.67284 0.1163 0.0
H1386 H 0.6572 0.70872 0.17466 0.0
H1387 H 0.68823 0.73724 0.2304 0.0
C1388 C 0.77677 0.73968 0.44028 0.0
C1389 C 0.75194 0.74313 0.4574 0.0
C1390 C 0.77914 0.74252 0.39516 0.0
C1391 C 0.75684 0.74923 0.36615 0.0
C1392 C 0.73207 0.75276 0.38327 0.0
C1393 C 0.72965 0.74978 0.42825 0.0
C1394 C 0.75911 0.7522 0.31789 0.0
C1395 C 0.7412 0.73742 0.28446 0.0
C1396 C 0.77906 0.76896 0.3046 0.0
C1397 C 0.79764 0.78635 0.33787 0.0
C1398 C 0.7876 0.80487 0.36996 0.0
C1399 C 0.80523 0.82102 0.40148 0.0
C1400 C 0.83296 0.81899 0.40102 0.0
C1401 C 0.84311 0.80086 0.36896 0.0
C1402 C 0.82557 0.78463 0.3374 0.0
C1403 C 0.74496 0.76901 0.10353 0.0
C1404 C 0.76957 0.76511 0.08579 0.0
C1405 C 0.74275 0.76586 0.14858 0.0
C1406 C 0.765 0.75848 0.17698 0.0
C1407 C 0.78955 0.75449 0.15933 0.0
C1408 C 0.7918 0.75768 0.11435 0.0
C1409 C 0.76288 0.75535 0.2252 0.0
C1410 C 0.78082 0.7701 0.2586 0.0
C1411 C 0.74293 0.73861 0.23847 0.0
C1412 C 0.72423 0.72137 0.20513 0.0
C1413 C 0.73414 0.70293 0.17279 0.0
C1414 C 0.7164 0.68693 0.14122 0.0
C1415 C 0.68869 0.68905 0.14187 0.0
C1416 C 0.67866 0.70712 0.17416 0.0
C1417 C 0.69632 0.72319 0.20578 0.0
H1418 H 0.67499 0.67664 0.1174 0.0
H1419 H 0.84657 0.83151 0.42545 0.0
H1420 H 0.52642 0.47055 0.69492 0.0
H1421 H 0.53015 0.47401 0.61566 0.0
H1422 H 0.46952 0.53416 0.61427 0.0
H1423 H 0.46526 0.53037 0.69335 0.0
H1424 H 0.4604 0.49719 0.5413 0.0
H1425 H 0.5348 0.55197 0.61516 0.0
H1426 H 0.57602 0.56299 0.66734 0.0
H1427 H 0.61691 0.49967 0.59731 0.0
H1428 H 0.57579 0.488 0.54505 0.0
H1429 H 0.48315 0.54315 0.33298 0.0
H1430 H 0.4786 0.53979 0.41203 0.0
H1431 H 0.5382 0.47864 0.41469 0.0
H1432 H 0.54325 0.48228 0.33584 0.0
H1433 H 0.54756 0.51654 0.487 0.0
H1434 H 0.47232 0.46212 0.41266 0.0
H1435 H 0.43092 0.45218 0.36041 0.0
H1436 H 0.39144 0.51621 0.43137 0.0
H1437 H 0.43272 0.52678 0.48371 0.0
C1438 C 0.51382 0.48447 0.67774 0.0
C1439 C 0.49557 0.50021 0.70058 0.0
C1440 C 0.51611 0.48657 0.63248 0.0
C1441 C 0.50026 0.5045 0.60901 0.0
C1442 C 0.482 0.52022 0.63166 0.0
C1443 C 0.47977 0.51821 0.67701 0.0
C1444 C 0.50248 0.50652 0.5607 0.0
C1445 C 0.47939 0.50179 0.52951 0.0
C1446 C 0.52735 0.51199 0.5451 0.0
C1447 C 0.55212 0.51893 0.57647 0.0
C1448 C 0.55251 0.54023 0.61112 0.0
C1449 C 0.57587 0.54663 0.64067 0.0
C1450 C 0.59904 0.53199 0.63572 0.0
C1451 C 0.59893 0.51096 0.60114 0.0
C1452 C 0.5756 0.50446 0.57152 0.0
C1453 C 0.49532 0.529 0.35039 0.0
C1454 C 0.51355 0.51296 0.32802 0.0
C1455 C 0.49254 0.52696 0.39551 0.0
C1456 C 0.50791 0.50882 0.41928 0.0
C1457 C 0.52608 0.49274 0.39703 0.0
C1458 C 0.52877 0.49467 0.35184 0.0
C1459 C 0.50552 0.50708 0.46759 0.0
C1460 C 0.52858 0.51191 0.49879 0.0
C1461 C 0.4806 0.50182 0.48319 0.0
C1462 C 0.45571 0.49541 0.45185 0.0
C1463 C 0.45488 0.47423 0.41691 0.0
C1464 C 0.43142 0.46845 0.38732 0.0
C1465 C 0.40859 0.48361 0.39249 0.0
C1466 C 0.40915 0.50451 0.42737 0.0
C1467 C 0.43256 0.51039 0.45703 0.0
H1468 H 0.39046 0.47914 0.36953 0.0
H1469 H 0.61711 0.53698 0.65862 0.0
H1470 H 0.98546 0.52926 0.81481 0.0
H1471 H 0.97993 0.53313 0.89478 0.0
H1472 H 0.05038 0.48623 0.91978 0.0
H1473 H 0.05626 0.48254 0.84022 0.0
H1474 H 0.01021 0.46917 0.96213 0.0
H1475 H 0.05286 0.55344 0.94839 0.0
H1476 H 0.05857 0.59598 0.91622 0.0
H1477 H 0.98241 0.62182 0.95461 0.0
H1478 H 0.97606 0.57922 0.98647 0.0
H1479 H 0.03369 0.50052 0.20065 0.0
H1480 H 0.03876 0.49788 0.12069 0.0
H1481 H 0.96218 0.53464 0.09545 0.0
H1482 H 0.95617 0.53616 0.17473 0.0
H1483 H 1.00499 0.55717 0.05365 0.0
H1484 H 0.96296 0.47225 0.06765 0.0
H1485 H 0.95809 0.42962 0.09994 0.0
H1486 H 0.03462 0.40515 0.06136 0.0
H1487 H 0.04015 0.44787 0.02945 0.0
C1488 C 0.99994 0.52 0.83737 0.0
C1489 C 0.02124 0.50547 0.82093 0.0
C1490 C 0.99672 0.52218 0.88309 0.0
C1491 C 0.01481 0.51004 0.91335 0.0
C1492 C 0.03608 0.4956 0.89706 0.0
C1493 C 0.03934 0.49344 0.85146 0.0
C1494 C 0.01153 0.51216 0.96196 0.0
C1495 C 0.00942 0.48843 0.98222 0.0
C1496 C 0.01 0.53727 0.98808 0.0
C1497 C 0.01386 0.56302 0.9694 0.0
C1498 C 0.03723 0.56811 0.94968 0.0
C1499 C 0.0406 0.59224 0.93154 0.0
C1500 C 0.02082 0.61156 0.93325 0.0
C1501 C 0.99768 0.60681 0.95325 0.0
C1502 C 0.9942 0.58269 0.97139 0.0
C1503 C 0.01771 0.50774 0.17817 0.0
C1504 C 0.99451 0.51859 0.19454 0.0
C1505 C 0.02077 0.5064 0.13246 0.0
C1506 C 1.00086 0.51611 0.10223 0.0
C1507 C 0.97788 0.52724 0.11833 0.0
C1508 C 0.97459 0.52822 0.16385 0.0
C1509 C 1.00378 0.5142 0.05362 0.0
C1510 C 1.00581 0.53795 0.03344 0.0
C1511 C 1.0054 0.48913 0.02761 0.0
C1512 C 1.00211 0.46339 0.04663 0.0
C1513 C 0.97888 0.4579 0.06644 0.0
C1514 C 0.97597 0.4337 0.0846 0.0
C1515 C 0.99607 0.41472 0.08282 0.0
C1516 C 0.01909 0.41989 0.06278 0.0
C1517 C 0.02212 0.44409 0.04464 0.0
H1518 H 0.99377 0.39599 0.09687 0.0
H1519 H 0.02346 0.63023 0.91917 0.0
loop_
_geom_bond_atom_site_label_1
_geom_bond_atom_site_label_2
_geom_bond_distance
_geom_bond_site_symmetry_2
_ccdc_geom_bond_type
Gd0 C3 2.818 1_655 S
Gd0 O20 2.377 1_665 S
Gd0 O22 2.448 1_655 S
Gd0 O23 2.506 . S
Gd0 O24 2.435 1_655 S
Gd0 O25 2.717 1_655 S
Gd0 O27 2.395 . S
Gd0 O31 2.327 1_565 S
Gd1 C12 2.818 1_455 S
Gd1 O21 2.395 . S
Gd1 O25 2.327 1_545 S
Gd1 O26 2.377 1_445 S
Gd1 O28 2.448 1_455 S
Gd1 O29 2.506 . S
Gd1 O30 2.435 1_455 S
Gd1 O31 2.717 1_455 S
C2 O20 1.240 . S
C2 O21 1.240 . S
C3 Gd0 2.818 1_455 S
C3 C4 1.510 . S
C3 O22 1.249 . S
C3 O23 1.252 1_455 S
C4 C3 1.510 . S
C4 C5 1.404 . S
C4 C6 1.352 1_565 S
C5 C4 1.404 . S
C5 C9 1.389 . S
C5 H32 0.930 . S
C6 C4 1.352 1_545 S
C6 C8 1.374 . S
C6 H33 0.931 1_455 S
C7 C8 1.359 1_565 S
C7 C9 1.364 . S
C8 C6 1.374 . S
C8 C7 1.359 1_545 S
C8 H34 0.939 . S
C9 C5 1.389 . S
C9 C7 1.364 . S
C9 H35 0.931 . S
C10 O24 1.256 . S
C10 O25 1.257 . S
C11 O26 1.240 . S
C11 O27 1.240 . S
C12 Gd1 2.818 1_655 S
C12 C13 1.510 . S
C12 O28 1.249 . S
C12 O29 1.252 1_655 S
C13 C12 1.510 . S
C13 C14 1.404 . S
C13 C15 1.360 1_545 S
C14 C13 1.404 . S
C14 C18 1.389 . S
C14 H36 0.930 . S
C15 C13 1.360 1_565 S
C15 C17 1.387 . S
C15 H37 0.910 1_655 S
C16 C17 1.359 1_545 S
C16 C18 1.364 . S
C17 C15 1.387 . S
C17 C16 1.359 1_565 S
C17 H38 0.937 . S
C18 C14 1.389 . S
C18 C16 1.364 . S
C18 H39 0.931 . S
C19 O30 1.256 . S
C19 O31 1.257 . S
O20 Gd0 2.377 1_445 S
O20 C2 1.240 . S
O21 Gd1 2.395 . S
O21 C2 1.240 . S
O22 Gd0 2.448 1_455 S
O22 C3 1.249 . S
O23 Gd0 2.506 . S
O23 C3 1.252 1_655 S
O24 Gd0 2.435 1_455 S
O24 C10 1.256 . S
O25 Gd0 2.717 1_455 S
O25 Gd1 2.327 1_565 S
O25 C10 1.257 . S
O26 Gd1 2.377 1_665 S
O26 C11 1.240 . S
O27 Gd0 2.395 . S
O27 C11 1.240 . S
O28 Gd1 2.448 1_655 S
O28 C12 1.249 . S
O29 Gd1 2.506 . S
O29 C12 1.252 1_455 S
O30 Gd1 2.435 1_655 S
O30 C19 1.256 . S
O31 Gd0 2.327 1_545 S
O31 Gd1 2.717 1_655 S
O31 C19 1.257 . S
H32 C5 0.930 . S
H33 C6 0.931 1_655 S
H34 C8 0.939 . S
H35 C9 0.931 . S
H36 C14 0.930 . S
H37 C15 0.910 1_455 S
H38 C17 0.937 . S
H39 C18 0.931 . S
Gd40 C43 2.818 . S
Gd40 O60 2.377 . S
Gd40 O62 2.448 . S
Gd40 O63 2.506 . S
Gd40 O64 2.435 . S
Gd40 O65 2.717 . S
Gd40 O67 2.395 . S
Gd40 O71 2.327 . S
Gd41 C52 2.818 . S
Gd41 O61 2.395 . S
Gd41 O65 2.327 . S
Gd41 O66 2.377 . S
Gd41 O68 2.448 . S
Gd41 O69 2.506 . S
Gd41 O70 2.435 . S
Gd41 O71 2.717 . S
C42 O60 1.240 . S
C42 O61 1.240 . S
C43 Gd40 2.818 . S
C43 C44 1.510 . S
C43 O62 1.249 . S
C43 O63 1.252 . S
C44 C43 1.510 . S
C44 C45 1.404 . S
C44 C46 1.352 . S
C45 C44 1.404 . S
C45 C49 1.389 . S
C45 H72 0.930 . S
C46 C44 1.352 . S
C46 C48 1.374 . S
C46 H73 0.931 . S
C47 C48 1.359 . S
C47 C49 1.364 . S
C48 C46 1.374 . S
C48 C47 1.359 . S
C48 H74 0.931 . S
C49 C45 1.389 . S
C49 C47 1.364 . S
C49 H75 0.931 . S
C50 O64 1.256 . S
C50 O65 1.257 . S
C51 O66 1.240 . S
C51 O67 1.240 . S
C52 Gd41 2.818 . S
C52 C53 1.510 . S
C52 O68 1.249 . S
C52 O69 1.252 . S
C53 C52 1.510 . S
C53 C54 1.404 . S
C53 C55 1.352 . S
C54 C53 1.404 . S
C54 C58 1.389 . S
C54 H76 0.930 . S
C55 C53 1.352 . S
C55 C57 1.374 1_556 S
C55 H77 0.931 . S
C56 C57 1.359 . S
C56 C58 1.364 1_554 S
C57 C55 1.374 1_554 S
C57 C56 1.359 . S
C57 H78 0.931 . S
C58 C54 1.389 . S
C58 C56 1.364 1_556 S
C58 H79 0.931 1_556 S
C59 O70 1.256 . S
C59 O71 1.257 . S
O60 Gd40 2.377 . S
O60 C42 1.240 . S
O61 Gd41 2.395 . S
O61 C42 1.240 . S
O62 Gd40 2.448 . S
O62 C43 1.249 . S
O63 Gd40 2.506 . S
O63 C43 1.252 . S
O64 Gd40 2.435 . S
O64 C50 1.256 . S
O65 Gd40 2.717 . S
O65 Gd41 2.327 . S
O65 C50 1.257 . S
O66 Gd41 2.377 . S
O66 C51 1.240 . S
O67 Gd40 2.395 . S
O67 C51 1.240 . S
O68 Gd41 2.448 . S
O68 C52 1.249 . S
O69 Gd41 2.506 . S
O69 C52 1.252 . S
O70 Gd41 2.435 . S
O70 C59 1.256 . S
O71 Gd40 2.327 . S
O71 Gd41 2.717 . S
O71 C59 1.257 . S
H72 C45 0.930 . S
H73 C46 0.931 . S
H74 C48 0.931 . S
H75 C49 0.931 . S
H76 C54 0.930 . S
H77 C55 0.931 . S
H78 C57 0.931 . S
H79 C58 0.931 1_554 S
Gd80 C83 2.818 . S
Gd80 O100 2.377 1_565 S
Gd80 O102 2.448 . S
Gd80 O103 2.506 1_565 S
Gd80 O104 2.435 . S
Gd80 O105 2.717 1_554 S
Gd80 O107 2.395 1_554 S
Gd80 O111 2.327 1_565 S
Gd81 C92 2.818 . S
Gd81 O101 2.395 1_556 S
Gd81 O105 2.327 1_545 S
Gd81 O106 2.377 1_545 S
Gd81 O108 2.448 . S
Gd81 O109 2.506 1_545 S
Gd81 O110 2.435 . S
Gd81 O111 2.717 1_556 S
C82 O100 1.240 . S
C82 O101 1.240 . S
C83 Gd80 2.818 . S
C83 C84 1.510 . S
C83 O102 1.249 . S
C83 O103 1.252 1_565 S
C84 C83 1.510 . S
C84 C85 1.404 . S
C84 C86 1.352 1_565 S
C85 C84 1.404 . S
C85 C89 1.389 . S
C85 H112 0.930 . S
C86 C84 1.352 1_545 S
C86 C88 1.374 . S
C86 H113 0.931 . S
C87 C88 1.359 . S
C87 C89 1.364 1_545 S
C88 C86 1.374 . S
C88 C87 1.359 . S
C88 H114 0.931 . S
C89 C85 1.389 . S
C89 C87 1.364 1_565 S
C89 H115 0.931 . S
C90 O104 1.256 1_556 S
C90 O105 1.257 . S
C91 O106 1.240 . S
C91 O107 1.240 . S
C92 Gd81 2.818 . S
C92 C93 1.510 . S
C92 O108 1.249 . S
C92 O109 1.252 1_545 S
C93 C92 1.510 . S
C93 C94 1.404 . S
C93 C95 1.352 1_545 S
C94 C93 1.404 . S
C94 C98 1.389 . S
C94 H116 0.930 . S
C95 C93 1.352 1_565 S
C95 C97 1.374 . S
C95 H117 0.931 . S
C96 C97 1.359 . S
C96 C98 1.364 1_565 S
C97 C95 1.374 . S
C97 C96 1.359 . S
C97 H118 0.931 . S
C98 C94 1.389 . S
C98 C96 1.364 1_545 S
C98 H119 0.931 . S
C99 O110 1.256 1_554 S
C99 O111 1.257 . S
O100 Gd80 2.377 1_545 S
O100 C82 1.240 . S
O101 Gd81 2.395 1_554 S
O101 C82 1.240 . S
O102 Gd80 2.448 . S
O102 C83 1.249 . S
O103 Gd80 2.506 1_545 S
O103 C83 1.252 1_545 S
O104 Gd80 2.435 . S
O104 C90 1.256 1_554 S
O105 Gd80 2.717 1_556 S
O105 Gd81 2.327 1_565 S
O105 C90 1.257 . S
O106 Gd81 2.377 1_565 S
O106 C91 1.240 . S
O107 Gd80 2.395 1_556 S
O107 C91 1.240 . S
O108 Gd81 2.448 . S
O108 C92 1.249 . S
O109 Gd81 2.506 1_565 S
O109 C92 1.252 1_565 S
O110 Gd81 2.435 . S
O110 C99 1.256 1_556 S
O111 Gd80 2.327 1_545 S
O111 Gd81 2.717 1_554 S
O111 C99 1.257 . S
H112 C85 0.930 . S
H113 C86 0.931 . S
H114 C88 0.931 . S
H115 C89 0.931 . S
H116 C94 0.930 . S
H117 C95 0.931 . S
H118 C97 0.931 . S
H119 C98 0.931 . S
Gd120 C123 2.818 . S
Gd120 O140 2.377 . S
Gd120 O142 2.448 . S
Gd120 O143 2.506 . S
Gd120 O144 2.435 . S
Gd120 O145 2.717 . S
Gd120 O147 2.395 . S
Gd120 O151 2.327 . S
Gd121 C132 2.818 . S
Gd121 O141 2.395 . S
Gd121 O145 2.327 . S
Gd121 O146 2.377 . S
Gd121 O148 2.448 . S
Gd121 O149 2.506 . S
Gd121 O150 2.435 . S
Gd121 O151 2.717 . S
C122 O140 1.240 . S
C122 O141 1.240 . S
C123 Gd120 2.818 . S
C123 C124 1.510 . S
C123 O142 1.249 . S
C123 O143 1.252 . S
C124 C123 1.510 . S
C124 C125 1.404 . S
C124 C126 1.352 . S
C125 C124 1.404 . S
C125 C129 1.389 . S
C125 H152 0.930 . S
C126 C124 1.352 . S
C126 C128 1.374 . S
C126 H153 0.931 . S
C127 C128 1.359 . S
C127 C129 1.364 . S
C128 C126 1.374 . S
C128 C127 1.359 . S
C128 H154 0.931 . S
C129 C125 1.389 . S
C129 C127 1.364 . S
C129 H155 0.931 . S
C130 O144 1.256 . S
C130 O145 1.257 . S
C131 O146 1.240 . S
C131 O147 1.240 . S
C132 Gd121 2.818 . S
C132 C133 1.510 . S
C132 O148 1.249 . S
C132 O149 1.252 . S
C133 C132 1.510 . S
C133 C134 1.404 . S
C133 C135 1.352 . S
C134 C133 1.404 . S
C134 C138 1.389 1_554 S
C134 H156 0.930 . S
C135 C133 1.352 . S
C135 C137 1.374 . S
C135 H157 0.931 . S
C136 C137 1.359 1_556 S
C136 C138 1.364 . S
C137 C135 1.374 . S
C137 C136 1.359 1_554 S
C137 H158 0.931 1_554 S
C138 C134 1.389 1_556 S
C138 C136 1.364 . S
C138 H159 0.931 . S
C139 O150 1.256 . S
C139 O151 1.257 . S
O140 Gd120 2.377 . S
O140 C122 1.240 . S
O141 Gd121 2.395 . S
O141 C122 1.240 . S
O142 Gd120 2.448 . S
O142 C123 1.249 . S
O143 Gd120 2.506 . S
O143 C123 1.252 . S
O144 Gd120 2.435 . S
O144 C130 1.256 . S
O145 Gd120 2.717 . S
O145 Gd121 2.327 . S
O145 C130 1.257 . S
O146 Gd121 2.377 . S
O146 C131 1.240 . S
O147 Gd120 2.395 . S
O147 C131 1.240 . S
O148 Gd121 2.448 . S
O148 C132 1.249 . S
O149 Gd121 2.506 . S
O149 C132 1.252 . S
O150 Gd121 2.435 . S
O150 C139 1.256 . S
O151 Gd120 2.327 . S
O151 Gd121 2.717 . S
O151 C139 1.257 . S
H152 C125 0.930 . S
H153 C126 0.931 . S
H154 C128 0.931 . S
H155 C129 0.931 . S
H156 C134 0.930 . S
H157 C135 0.931 . S
H158 C137 0.931 1_556 S
H159 C138 0.931 . S
Gd160 C163 2.818 . S
Gd160 O180 2.377 . S
Gd160 O182 2.448 . S
Gd160 O183 2.506 . S
Gd160 O184 2.435 . S
Gd160 O185 2.717 . S
Gd160 O187 2.395 . S
Gd160 O191 2.327 . S
Gd161 C172 2.818 . S
Gd161 O181 2.395 . S
Gd161 O185 2.327 . S
Gd161 O186 2.377 . S
Gd161 O188 2.448 . S
Gd161 O189 2.506 . S
Gd161 O190 2.435 . S
Gd161 O191 2.717 . S
C162 O180 1.240 . S
C162 O181 1.240 . S
C163 Gd160 2.818 . S
C163 C164 1.510 . S
C163 O182 1.249 . S
C163 O183 1.252 . S
C164 C163 1.510 . S
C164 C165 1.404 . S
C164 C166 1.352 . S
C165 C164 1.404 . S
C165 C169 1.389 . S
C165 H192 0.930 . S
C166 C164 1.352 . S
C166 C168 1.374 1_554 S
C166 H193 0.931 . S
C167 C168 1.359 . S
C167 C169 1.364 1_556 S
C168 C166 1.374 1_556 S
C168 C167 1.359 . S
C168 H194 0.931 . S
C169 C165 1.389 . S
C169 C167 1.364 1_554 S
C169 H195 0.931 1_554 S
C170 O184 1.256 . S
C170 O185 1.257 . S
C171 O186 1.240 . S
C171 O187 1.240 . S
C172 Gd161 2.818 . S
C172 C173 1.510 . S
C172 O188 1.249 . S
C172 O189 1.252 . S
C173 C172 1.510 . S
C173 C174 1.404 . S
C173 C175 1.352 . S
C174 C173 1.404 . S
C174 C178 1.389 . S
C174 H196 0.930 . S
C175 C173 1.352 . S
C175 C177 1.374 . S
C175 H197 0.931 . S
C176 C177 1.359 . S
C176 C178 1.364 . S
C177 C175 1.374 . S
C177 C176 1.359 . S
C177 H198 0.931 . S
C178 C174 1.389 . S
C178 C176 1.364 . S
C178 H199 0.931 . S
C179 O190 1.256 . S
C179 O191 1.257 . S
O180 Gd160 2.377 . S
O180 C162 1.240 . S
O181 Gd161 2.395 . S
O181 C162 1.240 . S
O182 Gd160 2.448 . S
O182 C163 1.249 . S
O183 Gd160 2.506 . S
O183 C163 1.252 . S
O184 Gd160 2.435 . S
O184 C170 1.256 . S
O185 Gd160 2.717 . S
O185 Gd161 2.327 . S
O185 C170 1.257 . S
O186 Gd161 2.377 . S
O186 C171 1.240 . S
O187 Gd160 2.395 . S
O187 C171 1.240 . S
O188 Gd161 2.448 . S
O188 C172 1.249 . S
O189 Gd161 2.506 . S
O189 C172 1.252 . S
O190 Gd161 2.435 . S
O190 C179 1.256 . S
O191 Gd160 2.327 . S
O191 Gd161 2.717 . S
O191 C179 1.257 . S
H192 C165 0.930 . S
H193 C166 0.931 . S
H194 C168 0.931 . S
H195 C169 0.931 1_556 S
H196 C174 0.930 . S
H197 C175 0.931 . S
H198 C177 0.931 . S
H199 C178 0.931 . S
Gd200 C203 2.818 . S
Gd200 O220 2.377 . S
Gd200 O222 2.448 . S
Gd200 O223 2.506 . S
Gd200 O224 2.435 . S
Gd200 O225 2.717 . S
Gd200 O227 2.395 . S
Gd200 O231 2.327 . S
Gd201 C212 2.818 . S
Gd201 O221 2.395 . S
Gd201 O225 2.327 . S
Gd201 O226 2.377 . S
Gd201 O228 2.448 . S
Gd201 O229 2.506 . S
Gd201 O230 2.435 . S
Gd201 O231 2.717 . S
C202 O220 1.240 . S
C202 O221 1.240 . S
C203 Gd200 2.818 . S
C203 C204 1.510 . S
C203 O222 1.249 . S
C203 O223 1.252 . S
C204 C203 1.510 . S
C204 C205 1.404 . S
C204 C206 1.352 . S
C205 C204 1.404 . S
C205 C209 1.389 1_556 S
C205 H232 0.930 . S
C206 C204 1.352 . S
C206 C208 1.374 . S
C206 H233 0.931 . S
C207 C208 1.359 1_554 S
C207 C209 1.364 . S
C208 C206 1.374 . S
C208 C207 1.359 1_556 S
C208 H234 0.931 1_556 S
C209 C205 1.389 1_554 S
C209 C207 1.364 . S
C209 H235 0.931 . S
C210 O224 1.256 . S
C210 O225 1.257 . S
C211 O226 1.240 . S
C211 O227 1.240 . S
C212 Gd201 2.818 . S
C212 C213 1.510 . S
C212 O228 1.249 . S
C212 O229 1.252 . S
C213 C212 1.510 . S
C213 C214 1.404 . S
C213 C215 1.352 . S
C214 C213 1.404 . S
C214 C218 1.389 . S
C214 H236 0.930 . S
C215 C213 1.352 . S
C215 C217 1.374 . S
C215 H237 0.931 . S
C216 C217 1.359 . S
C216 C218 1.364 . S
C217 C215 1.374 . S
C217 C216 1.359 . S
C217 H238 0.931 . S
C218 C214 1.389 . S
C218 C216 1.364 . S
C218 H239 0.931 . S
C219 O230 1.256 . S
C219 O231 1.257 . S
O220 Gd200 2.377 . S
O220 C202 1.240 . S
O221 Gd201 2.395 . S
O221 C202 1.240 . S
O222 Gd200 2.448 . S
O222 C203 1.249 . S
O223 Gd200 2.506 . S
O223 C203 1.252 . S
O224 Gd200 2.435 . S
O224 C210 1.256 . S
O225 Gd200 2.717 . S
O225 Gd201 2.327 . S
O225 C210 1.257 . S
O226 Gd201 2.377 . S
O226 C211 1.240 . S
O227 Gd200 2.395 . S
O227 C211 1.240 . S
O228 Gd201 2.448 . S
O228 C212 1.249 . S
O229 Gd201 2.506 . S
O229 C212 1.252 . S
O230 Gd201 2.435 . S
O230 C219 1.256 . S
O231 Gd200 2.327 . S
O231 Gd201 2.717 . S
O231 C219 1.257 . S
H232 C205 0.930 . S
H233 C206 0.931 . S
H234 C208 0.931 1_554 S
H235 C209 0.931 . S
H236 C214 0.930 . S
H237 C215 0.931 . S
H238 C217 0.931 . S
H239 C218 0.931 . S
Gd240 C243 2.818 . S
Gd240 O260 2.377 . S
Gd240 O262 2.448 . S
Gd240 O263 2.506 . S
Gd240 O264 2.435 . S
Gd240 O265 2.717 1_556 S
Gd240 O267 2.395 . S
Gd240 O271 2.327 . S
Gd241 C252 2.818 . S
Gd241 O261 2.395 . S
Gd241 O265 2.327 . S
Gd241 O266 2.377 . S
Gd241 O268 2.448 . S
Gd241 O269 2.506 . S
Gd241 O270 2.435 . S
Gd241 O271 2.717 1_554 S
C242 O260 1.240 . S
C242 O261 1.240 1_556 S
C243 Gd240 2.818 . S
C243 C244 1.510 . S
C243 O262 1.249 . S
C243 O263 1.252 . S
C244 C243 1.510 . S
C244 C245 1.404 . S
C244 C246 1.352 . S
C245 C244 1.404 . S
C245 C249 1.389 . S
C245 H272 0.930 . S
C246 C244 1.352 . S
C246 C248 1.374 . S
C246 H273 0.931 . S
C247 C248 1.359 . S
C247 C249 1.364 . S
C248 C246 1.374 . S
C248 C247 1.359 . S
C248 H274 0.931 . S
C249 C245 1.389 . S
C249 C247 1.364 . S
C249 H275 0.931 . S
C250 O264 1.256 1_554 S
C250 O265 1.257 . S
C251 O266 1.240 . S
C251 O267 1.240 1_554 S
C252 Gd241 2.818 . S
C252 C253 1.510 . S
C252 O268 1.249 . S
C252 O269 1.252 . S
C253 C252 1.510 . S
C253 C254 1.404 . S
C253 C255 1.352 . S
C254 C253 1.404 . S
C254 C258 1.389 . S
C254 H276 0.930 . S
C255 C253 1.352 . S
C255 C257 1.374 . S
C255 H277 0.931 . S
C256 C257 1.359 . S
C256 C258 1.364 . S
C257 C255 1.374 . S
C257 C256 1.359 . S
C257 H278 0.931 . S
C258 C254 1.389 . S
C258 C256 1.364 . S
C258 H279 0.931 . S
C259 O270 1.256 1_556 S
C259 O271 1.257 . S
O260 Gd240 2.377 . S
O260 C242 1.240 . S
O261 Gd241 2.395 . S
O261 C242 1.240 1_554 S
O262 Gd240 2.448 . S
O262 C243 1.249 . S
O263 Gd240 2.506 . S
O263 C243 1.252 . S
O264 Gd240 2.435 . S
O264 C250 1.256 1_556 S
O265 Gd240 2.717 1_554 S
O265 Gd241 2.327 . S
O265 C250 1.257 . S
O266 Gd241 2.377 . S
O266 C251 1.240 . S
O267 Gd240 2.395 . S
O267 C251 1.240 1_556 S
O268 Gd241 2.448 . S
O268 C252 1.249 . S
O269 Gd241 2.506 . S
O269 C252 1.252 . S
O270 Gd241 2.435 . S
O270 C259 1.256 1_554 S
O271 Gd240 2.327 . S
O271 Gd241 2.717 1_556 S
O271 C259 1.257 . S
H272 C245 0.930 . S
H273 C246 0.931 . S
H274 C248 0.931 . S
H275 C249 0.931 . S
H276 C254 0.930 . S
H277 C255 0.931 . S
H278 C257 0.931 . S
H279 C258 0.931 . S
Gd280 C283 2.818 1_455 S
Gd280 O300 2.377 1_455 S
Gd280 O302 2.448 1_455 S
Gd280 O303 2.506 . S
Gd280 O304 2.435 1_455 S
Gd280 O305 2.717 1_455 S
Gd280 O307 2.395 . S
Gd280 O311 2.327 . S
Gd281 C292 2.818 1_655 S
Gd281 O301 2.395 . S
Gd281 O305 2.327 . S
Gd281 O306 2.377 1_655 S
Gd281 O308 2.448 1_655 S
Gd281 O309 2.506 . S
Gd281 O310 2.435 1_655 S
Gd281 O311 2.717 1_655 S
C282 O300 1.240 . S
C282 O301 1.240 . S
C283 Gd280 2.818 1_655 S
C283 C284 1.510 . S
C283 O302 1.249 . S
C283 O303 1.252 1_655 S
C284 C283 1.510 . S
C284 C285 1.404 . S
C284 C286 1.356 . S
C285 C284 1.404 . S
C285 C289 1.389 . S
C285 H312 0.930 . S
C286 C284 1.356 . S
C286 C288 1.381 . S
C286 H313 0.919 1_655 S
C287 C288 1.359 . S
C287 C289 1.364 . S
C288 C286 1.381 . S
C288 C287 1.359 . S
C288 H314 0.930 . S
C289 C285 1.389 . S
C289 C287 1.364 . S
C289 H315 0.931 . S
C290 O304 1.256 . S
C290 O305 1.257 . S
C291 O306 1.240 . S
C291 O307 1.240 . S
C292 Gd281 2.818 1_455 S
C292 C293 1.510 . S
C292 O308 1.249 . S
C292 O309 1.252 1_455 S
C293 C292 1.510 . S
C293 C294 1.404 . S
C293 C295 1.358 . S
C294 C293 1.404 . S
C294 C298 1.389 . S
C294 H316 0.930 . S
C295 C293 1.358 . S
C295 C297 1.385 . S
C295 H317 0.914 1_455 S
C296 C297 1.359 . S
C296 C298 1.364 . S
C297 C295 1.385 . S
C297 C296 1.359 . S
C297 H318 0.932 . S
C298 C294 1.389 . S
C298 C296 1.364 . S
C298 H319 0.931 . S
C299 O310 1.256 . S
C299 O311 1.257 . S
O300 Gd280 2.377 1_655 S
O300 C282 1.240 . S
O301 Gd281 2.395 . S
O301 C282 1.240 . S
O302 Gd280 2.448 1_655 S
O302 C283 1.249 . S
O303 Gd280 2.506 . S
O303 C283 1.252 1_455 S
O304 Gd280 2.435 1_655 S
O304 C290 1.256 . S
O305 Gd280 2.717 1_655 S
O305 Gd281 2.327 . S
O305 C290 1.257 . S
O306 Gd281 2.377 1_455 S
O306 C291 1.240 . S
O307 Gd280 2.395 . S
O307 C291 1.240 . S
O308 Gd281 2.448 1_455 S
O308 C292 1.249 . S
O309 Gd281 2.506 . S
O309 C292 1.252 1_655 S
O310 Gd281 2.435 1_455 S
O310 C299 1.256 . S
O311 Gd280 2.327 . S
O311 Gd281 2.717 1_455 S
O311 C299 1.257 . S
H312 C285 0.930 . S
H313 C286 0.919 1_455 S
H314 C288 0.930 . S
H315 C289 0.931 . S
H316 C294 0.930 . S
H317 C295 0.914 1_655 S
H318 C297 0.932 . S
H319 C298 0.931 . S
H320 C338 0.951 . S
H321 C340 0.951 . S
H322 C342 0.950 . S
H323 C343 0.950 . S
H324 C345 0.950 . S
H325 C348 0.950 . S
H326 C349 0.950 . S
H327 C351 0.950 . S
H328 C352 0.950 . S
H329 C353 0.951 . S
H330 C355 0.951 . S
H331 C357 0.950 . S
H332 C358 0.950 . S
H333 C360 0.950 . S
H334 C363 0.950 . S
H335 C364 0.950 . S
H336 C366 0.950 . S
H337 C367 0.950 . S
C338 H320 0.951 . S
C338 C339 1.366 . S
C338 C340 1.388 . S
C339 C338 1.366 . S
C339 C343 1.385 . S
C340 H321 0.951 . S
C340 C338 1.388 . S
C340 C341 1.366 . S
C341 C340 1.366 . S
C341 C342 1.414 . S
C341 C344 1.499 . S
C342 H322 0.950 . S
C342 C341 1.414 . S
C342 C343 1.374 . S
C343 H323 0.950 . S
C343 C339 1.385 . S
C343 C342 1.374 . S
C344 C341 1.499 . S
C344 C345 1.373 . S
C344 C346 1.389 . S
C345 H324 0.950 . S
C345 C344 1.373 . S
C345 C361 1.377 . S
C346 C344 1.389 . S
C346 C347 1.524 . S
C346 C360 1.377 . S
C347 C346 1.524 . S
C347 C348 1.397 . S
C347 C352 1.363 . S
C348 H325 0.950 . S
C348 C347 1.397 . S
C348 C349 1.334 . S
C349 H326 0.950 . S
C349 C348 1.334 . S
C349 C350 1.287 . S
C350 C349 1.287 . S
C350 C351 1.524 . S
C350 H369 0.913 . S
C351 H327 0.950 . S
C351 C350 1.524 . S
C351 C352 1.415 . S
C352 H328 0.950 . S
C352 C347 1.363 . S
C352 C351 1.415 . S
C353 H329 0.951 . S
C353 C354 1.366 . S
C353 C355 1.388 . S
C354 C353 1.366 . S
C354 C358 1.385 . S
C355 H330 0.951 . S
C355 C353 1.388 . S
C355 C356 1.366 . S
C356 C355 1.366 . S
C356 C357 1.414 . S
C356 C359 1.499 . S
C357 H331 0.950 . S
C357 C356 1.414 . S
C357 C358 1.374 . S
C358 H332 0.950 . S
C358 C354 1.385 . S
C358 C357 1.374 . S
C359 C356 1.499 . S
C359 C360 1.373 . S
C359 C361 1.389 . S
C360 H333 0.950 . S
C360 C346 1.377 . S
C360 C359 1.373 . S
C361 C345 1.377 . S
C361 C359 1.389 . S
C361 C362 1.524 . S
C362 C361 1.524 . S
C362 C363 1.397 . S
C362 C367 1.363 . S
C363 H334 0.950 . S
C363 C362 1.397 . S
C363 C364 1.334 . S
C364 H335 0.950 . S
C364 C363 1.334 . S
C364 C365 1.287 . S
C365 C364 1.287 . S
C365 C366 1.524 . S
C365 H368 0.999 . S
C366 H336 0.950 . S
C366 C365 1.524 . S
C366 C367 1.415 . S
C367 H337 0.950 . S
C367 C362 1.363 . S
C367 C366 1.415 . S
H368 C365 0.999 . S
H369 C350 0.913 . S
H370 C388 0.951 . S
H371 C390 0.951 . S
H372 C392 0.950 . S
H373 C393 0.950 . S
H374 C395 0.950 . S
H375 C398 0.950 . S
H376 C399 0.950 . S
H377 C401 0.950 . S
H378 C402 0.950 . S
H379 C403 0.951 . S
H380 C405 0.951 . S
H381 C407 0.950 . S
H382 C408 0.950 . S
H383 C410 0.950 . S
H384 C413 0.950 . S
H385 C414 0.950 . S
H386 C416 0.950 . S
H387 C417 0.950 . S
C388 H370 0.951 . S
C388 C389 1.366 . S
C388 C390 1.388 . S
C389 C388 1.366 . S
C389 C393 1.385 . S
C390 H371 0.951 . S
C390 C388 1.388 . S
C390 C391 1.366 . S
C391 C390 1.366 . S
C391 C392 1.414 . S
C391 C394 1.499 . S
C392 H372 0.950 . S
C392 C391 1.414 . S
C392 C393 1.374 . S
C393 H373 0.950 . S
C393 C389 1.385 . S
C393 C392 1.374 . S
C394 C391 1.499 . S
C394 C395 1.373 . S
C394 C396 1.389 . S
C395 H374 0.950 . S
C395 C394 1.373 . S
C395 C411 1.377 . S
C396 C394 1.389 . S
C396 C397 1.524 . S
C396 C410 1.377 . S
C397 C396 1.524 . S
C397 C398 1.397 . S
C397 C402 1.363 . S
C398 H375 0.950 . S
C398 C397 1.397 . S
C398 C399 1.334 . S
C399 H376 0.950 . S
C399 C398 1.334 . S
C399 C400 1.287 . S
C400 C399 1.287 . S
C400 C401 1.524 . S
C400 H419 0.913 . S
C401 H377 0.950 . S
C401 C400 1.524 . S
C401 C402 1.415 . S
C402 H378 0.950 . S
C402 C397 1.363 . S
C402 C401 1.415 . S
C403 H379 0.951 . S
C403 C404 1.366 . S
C403 C405 1.388 . S
C404 C403 1.366 . S
C404 C408 1.385 . S
C405 H380 0.951 . S
C405 C403 1.388 . S
C405 C406 1.366 . S
C406 C405 1.366 . S
C406 C407 1.414 . S
C406 C409 1.499 . S
C407 H381 0.950 . S
C407 C406 1.414 . S
C407 C408 1.374 . S
C408 H382 0.950 . S
C408 C404 1.385 . S
C408 C407 1.374 . S
C409 C406 1.499 . S
C409 C410 1.373 . S
C409 C411 1.389 . S
C410 H383 0.950 . S
C410 C396 1.377 . S
C410 C409 1.373 . S
C411 C395 1.377 . S
C411 C409 1.389 . S
C411 C412 1.524 . S
C412 C411 1.524 . S
C412 C413 1.397 . S
C412 C417 1.363 . S
C413 H384 0.950 . S
C413 C412 1.397 . S
C413 C414 1.334 . S
C414 H385 0.950 . S
C414 C413 1.334 . S
C414 C415 1.287 . S
C415 C414 1.287 . S
C415 C416 1.524 . S
C415 H418 0.999 . S
C416 H386 0.950 . S
C416 C415 1.524 . S
C416 C417 1.415 . S
C417 H387 0.950 . S
C417 C412 1.363 . S
C417 C416 1.415 . S
H418 C415 0.999 . S
H419 C400 0.913 . S
H420 C438 0.951 . S
H421 C440 0.951 . S
H422 C442 0.950 . S
H423 C443 0.950 . S
H424 C445 0.950 . S
H425 C448 0.950 . S
H426 C449 0.950 . S
H427 C451 0.950 . S
H428 C452 0.950 . S
H429 C453 0.951 1_554 S
H430 C455 0.951 . S
H431 C457 0.950 . S
H432 C458 0.950 . S
H433 C460 0.950 . S
H434 C463 0.950 . S
H435 C464 0.950 . S
H436 C466 0.950 . S
H437 C467 0.950 . S
C438 H420 0.951 . S
C438 C439 1.366 . S
C438 C440 1.388 . S
C439 C438 1.366 . S
C439 C443 1.385 . S
C440 H421 0.951 . S
C440 C438 1.388 . S
C440 C441 1.366 . S
C441 C440 1.366 . S
C441 C442 1.414 . S
C441 C444 1.499 . S
C442 H422 0.950 . S
C442 C441 1.414 . S
C442 C443 1.374 . S
C443 H423 0.950 . S
C443 C439 1.385 . S
C443 C442 1.374 . S
C444 C441 1.499 . S
C444 C445 1.373 . S
C444 C446 1.389 . S
C445 H424 0.950 . S
C445 C444 1.373 . S
C445 C461 1.377 . S
C446 C444 1.389 . S
C446 C447 1.524 . S
C446 C460 1.377 . S
C447 C446 1.524 . S
C447 C448 1.397 . S
C447 C452 1.363 . S
C448 H425 0.950 . S
C448 C447 1.397 . S
C448 C449 1.334 . S
C449 H426 0.950 . S
C449 C448 1.334 . S
C449 C450 1.287 . S
C450 C449 1.287 . S
C450 C451 1.524 . S
C450 H469 0.913 . S
C451 H427 0.950 . S
C451 C450 1.524 . S
C451 C452 1.415 . S
C452 H428 0.950 . S
C452 C447 1.363 . S
C452 C451 1.415 . S
C453 H429 0.951 1_556 S
C453 C454 1.366 . S
C453 C455 1.388 . S
C454 C453 1.366 . S
C454 C458 1.385 . S
C455 H430 0.951 . S
C455 C453 1.388 . S
C455 C456 1.366 . S
C456 C455 1.366 . S
C456 C457 1.414 . S
C456 C459 1.499 . S
C457 H431 0.950 . S
C457 C456 1.414 . S
C457 C458 1.374 . S
C458 H432 0.950 . S
C458 C454 1.385 . S
C458 C457 1.374 . S
C459 C456 1.499 . S
C459 C460 1.373 . S
C459 C461 1.389 . S
C460 H433 0.950 . S
C460 C446 1.377 . S
C460 C459 1.373 . S
C461 C445 1.377 . S
C461 C459 1.389 . S
C461 C462 1.524 . S
C462 C461 1.524 . S
C462 C463 1.397 . S
C462 C467 1.363 . S
C463 H434 0.950 . S
C463 C462 1.397 . S
C463 C464 1.334 . S
C464 H435 0.950 . S
C464 C463 1.334 . S
C464 C465 1.287 . S
C465 C464 1.287 . S
C465 C466 1.524 . S
C465 H468 0.999 . S
C466 H436 0.950 . S
C466 C465 1.524 . S
C466 C467 1.415 . S
C467 H437 0.950 . S
C467 C462 1.363 . S
C467 C466 1.415 . S
H468 C465 0.999 . S
H469 C450 0.913 . S
H470 C488 0.951 . S
H471 C490 0.951 . S
H472 C492 0.950 . S
H473 C493 0.950 . S
H474 C495 0.950 . S
H475 C498 0.950 . S
H476 C499 0.950 . S
H477 C501 0.950 . S
H478 C502 0.950 . S
H479 C503 0.951 . S
H480 C505 0.951 . S
H481 C507 0.950 . S
H482 C508 0.950 . S
H483 C510 0.950 . S
H484 C513 0.950 . S
H485 C514 0.950 . S
H486 C516 0.950 1_556 S
H487 C517 0.950 . S
C488 H470 0.951 . S
C488 C489 1.366 . S
C488 C490 1.388 . S
C489 C488 1.366 . S
C489 C493 1.385 . S
C490 H471 0.951 . S
C490 C488 1.388 . S
C490 C491 1.366 . S
C491 C490 1.366 . S
C491 C492 1.414 . S
C491 C494 1.499 . S
C492 H472 0.950 . S
C492 C491 1.414 . S
C492 C493 1.374 . S
C493 H473 0.950 . S
C493 C489 1.385 . S
C493 C492 1.374 . S
C494 C491 1.499 . S
C494 C495 1.373 . S
C494 C496 1.389 . S
C495 H474 0.950 . S
C495 C494 1.373 . S
C495 C511 1.377 . S
C496 C494 1.389 . S
C496 C497 1.524 . S
C496 C510 1.377 . S
C497 C496 1.524 . S
C497 C498 1.397 . S
C497 C502 1.363 . S
C498 H475 0.950 . S
C498 C497 1.397 . S
C498 C499 1.334 . S
C499 H476 0.950 . S
C499 C498 1.334 . S
C499 C500 1.287 . S
C500 C499 1.287 . S
C500 C501 1.524 . S
C500 H519 0.913 . S
C501 H477 0.950 . S
C501 C500 1.524 . S
C501 C502 1.415 . S
C502 H478 0.950 . S
C502 C497 1.363 . S
C502 C501 1.415 . S
C503 H479 0.951 . S
C503 C504 1.366 . S
C503 C505 1.388 . S
C504 C503 1.366 . S
C504 C508 1.385 . S
C505 H480 0.951 . S
C505 C503 1.388 . S
C505 C506 1.366 . S
C506 C505 1.366 . S
C506 C507 1.414 . S
C506 C509 1.499 . S
C507 H481 0.950 . S
C507 C506 1.414 . S
C507 C508 1.374 . S
C508 H482 0.950 . S
C508 C504 1.385 . S
C508 C507 1.374 . S
C509 C506 1.499 . S
C509 C510 1.373 . S
C509 C511 1.389 . S
C510 H483 0.950 . S
C510 C496 1.377 . S
C510 C509 1.373 . S
C511 C495 1.377 . S
C511 C509 1.389 . S
C511 C512 1.524 . S
C512 C511 1.524 . S
C512 C513 1.397 . S
C512 C517 1.363 . S
C513 H484 0.950 . S
C513 C512 1.397 . S
C513 C514 1.334 . S
C514 H485 0.950 . S
C514 C513 1.334 . S
C514 C515 1.287 . S
C515 C514 1.287 . S
C515 C516 1.524 . S
C515 H518 0.999 1_554 S
C516 H486 0.950 1_554 S
C516 C515 1.524 . S
C516 C517 1.415 . S
C517 H487 0.950 . S
C517 C512 1.363 . S
C517 C516 1.415 . S
H518 C515 0.999 1_556 S
H519 C500 0.913 . S
H520 C538 0.951 . S
H521 C540 0.951 . S
H522 C542 0.950 . S
H523 C543 0.950 . S
H524 C545 0.950 . S
H525 C548 0.950 . S
H526 C549 0.950 . S
H527 C551 0.950 . S
H528 C552 0.950 . S
H529 C553 0.951 . S
H530 C555 0.951 . S
H531 C557 0.950 . S
H532 C558 0.950 . S
H533 C560 0.950 . S
H534 C563 0.950 . S
H535 C564 0.950 . S
H536 C566 0.950 . S
H537 C567 0.950 . S
C538 H520 0.951 . S
C538 C539 1.366 . S
C538 C540 1.388 . S
C539 C538 1.366 . S
C539 C543 1.385 . S
C540 H521 0.951 . S
C540 C538 1.388 . S
C540 C541 1.366 . S
C541 C540 1.366 . S
C541 C542 1.414 . S
C541 C544 1.499 . S
C542 H522 0.950 . S
C542 C541 1.414 . S
C542 C543 1.374 . S
C543 H523 0.950 . S
C543 C539 1.385 . S
C543 C542 1.374 . S
C544 C541 1.499 . S
C544 C545 1.373 . S
C544 C546 1.389 . S
C545 H524 0.950 . S
C545 C544 1.373 . S
C545 C561 1.377 . S
C546 C544 1.389 . S
C546 C547 1.524 . S
C546 C560 1.377 . S
C547 C546 1.524 . S
C547 C548 1.397 . S
C547 C552 1.363 . S
C548 H525 0.950 . S
C548 C547 1.397 . S
C548 C549 1.334 . S
C549 H526 0.950 . S
C549 C548 1.334 . S
C549 C550 1.287 . S
C550 C549 1.287 . S
C550 C551 1.524 . S
C550 H569 0.913 . S
C551 H527 0.950 . S
C551 C550 1.524 . S
C551 C552 1.415 . S
C552 H528 0.950 . S
C552 C547 1.363 . S
C552 C551 1.415 . S
C553 H529 0.951 . S
C553 C554 1.366 . S
C553 C555 1.388 . S
C554 C553 1.366 . S
C554 C558 1.385 . S
C555 H530 0.951 . S
C555 C553 1.388 . S
C555 C556 1.366 . S
C556 C555 1.366 . S
C556 C557 1.414 . S
C556 C559 1.499 . S
C557 H531 0.950 . S
C557 C556 1.414 . S
C557 C558 1.374 . S
C558 H532 0.950 . S
C558 C554 1.385 . S
C558 C557 1.374 . S
C559 C556 1.499 . S
C559 C560 1.373 . S
C559 C561 1.389 . S
C560 H533 0.950 . S
C560 C546 1.377 . S
C560 C559 1.373 . S
C561 C545 1.377 . S
C561 C559 1.389 . S
C561 C562 1.524 . S
C562 C561 1.524 . S
C562 C563 1.397 . S
C562 C567 1.363 . S
C563 H534 0.950 . S
C563 C562 1.397 . S
C563 C564 1.334 . S
C564 H535 0.950 . S
C564 C563 1.334 . S
C564 C565 1.287 . S
C565 C564 1.287 . S
C565 C566 1.524 . S
C565 H568 0.999 . S
C566 H536 0.950 . S
C566 C565 1.524 . S
C566 C567 1.415 . S
C567 H537 0.950 . S
C567 C562 1.363 . S
C567 C566 1.415 . S
H568 C565 0.999 . S
H569 C550 0.913 . S
H570 C588 0.951 . S
H571 C590 0.951 . S
H572 C592 0.950 . S
H573 C593 0.950 . S
H574 C595 0.950 . S
H575 C598 0.950 . S
H576 C599 0.950 . S
H577 C601 0.950 . S
H578 C602 0.950 . S
H579 C603 0.951 . S
H580 C605 0.951 . S
H581 C607 0.950 . S
H582 C608 0.950 . S
H583 C610 0.950 . S
H584 C613 0.950 . S
H585 C614 0.950 . S
H586 C616 0.950 . S
H587 C617 0.950 . S
C588 H570 0.951 . S
C588 C589 1.366 . S
C588 C590 1.388 . S
C589 C588 1.366 . S
C589 C593 1.385 . S
C590 H571 0.951 . S
C590 C588 1.388 . S
C590 C591 1.366 . S
C591 C590 1.366 . S
C591 C592 1.414 . S
C591 C594 1.499 . S
C592 H572 0.950 . S
C592 C591 1.414 . S
C592 C593 1.374 . S
C593 H573 0.950 . S
C593 C589 1.385 . S
C593 C592 1.374 . S
C594 C591 1.499 . S
C594 C595 1.373 . S
C594 C596 1.389 . S
C595 H574 0.950 . S
C595 C594 1.373 . S
C595 C611 1.377 . S
C596 C594 1.389 . S
C596 C597 1.524 . S
C596 C610 1.377 . S
C597 C596 1.524 . S
C597 C598 1.397 . S
C597 C602 1.363 . S
C598 H575 0.950 . S
C598 C597 1.397 . S
C598 C599 1.334 . S
C599 H576 0.950 . S
C599 C598 1.334 . S
C599 C600 1.287 . S
C600 C599 1.287 . S
C600 C601 1.524 . S
C600 H619 0.913 . S
C601 H577 0.950 . S
C601 C600 1.524 . S
C601 C602 1.415 . S
C602 H578 0.950 . S
C602 C597 1.363 . S
C602 C601 1.415 . S
C603 H579 0.951 . S
C603 C604 1.366 . S
C603 C605 1.388 . S
C604 C603 1.366 . S
C604 C608 1.385 . S
C605 H580 0.951 . S
C605 C603 1.388 . S
C605 C606 1.366 . S
C606 C605 1.366 . S
C606 C607 1.414 . S
C606 C609 1.499 . S
C607 H581 0.950 . S
C607 C606 1.414 . S
C607 C608 1.374 . S
C608 H582 0.950 . S
C608 C604 1.385 . S
C608 C607 1.374 . S
C609 C606 1.499 . S
C609 C610 1.373 . S
C609 C611 1.389 . S
C610 H583 0.950 . S
C610 C596 1.377 . S
C610 C609 1.373 . S
C611 C595 1.377 . S
C611 C609 1.389 . S
C611 C612 1.524 . S
C612 C611 1.524 . S
C612 C613 1.397 . S
C612 C617 1.363 . S
C613 H584 0.950 . S
C613 C612 1.397 . S
C613 C614 1.334 . S
C614 H585 0.950 . S
C614 C613 1.334 . S
C614 C615 1.287 . S
C615 C614 1.287 . S
C615 C616 1.524 . S
C615 H618 0.999 . S
C616 H586 0.950 . S
C616 C615 1.524 . S
C616 C617 1.415 . S
C617 H587 0.950 . S
C617 C612 1.363 . S
C617 C616 1.415 . S
H618 C615 0.999 . S
H619 C600 0.913 . S
H620 C638 0.951 . S
H621 C640 0.951 . S
H622 C642 0.950 . S
H623 C643 0.950 . S
H624 C645 0.950 . S
H625 C648 0.950 . S
H626 C649 0.950 . S
H627 C651 0.950 . S
H628 C652 0.950 . S
H629 C653 0.951 . S
H630 C655 0.951 . S
H631 C657 0.950 . S
H632 C658 0.950 1_556 S
H633 C660 0.950 . S
H634 C663 0.950 . S
H635 C664 0.950 . S
H636 C666 0.950 . S
H637 C667 0.950 . S
C638 H620 0.951 . S
C638 C639 1.366 . S
C638 C640 1.388 . S
C639 C638 1.366 . S
C639 C643 1.385 . S
C640 H621 0.951 . S
C640 C638 1.388 . S
C640 C641 1.366 . S
C641 C640 1.366 . S
C641 C642 1.414 . S
C641 C644 1.499 . S
C642 H622 0.950 . S
C642 C641 1.414 . S
C642 C643 1.374 . S
C643 H623 0.950 . S
C643 C639 1.385 . S
C643 C642 1.374 . S
C644 C641 1.499 . S
C644 C645 1.373 . S
C644 C646 1.389 . S
C645 H624 0.950 . S
C645 C644 1.373 . S
C645 C661 1.377 . S
C646 C644 1.389 . S
C646 C647 1.524 . S
C646 C660 1.377 . S
C647 C646 1.524 . S
C647 C648 1.397 . S
C647 C652 1.363 . S
C648 H625 0.950 . S
C648 C647 1.397 . S
C648 C649 1.334 . S
C649 H626 0.950 . S
C649 C648 1.334 . S
C649 C650 1.287 . S
C650 C649 1.287 . S
C650 C651 1.524 . S
C650 H669 0.913 . S
C651 H627 0.950 . S
C651 C650 1.524 . S
C651 C652 1.415 . S
C652 H628 0.950 . S
C652 C647 1.363 . S
C652 C651 1.415 . S
C653 H629 0.951 . S
C653 C654 1.366 . S
C653 C655 1.388 . S
C654 C653 1.366 . S
C654 C658 1.385 . S
C655 H630 0.951 . S
C655 C653 1.388 . S
C655 C656 1.366 . S
C656 C655 1.366 . S
C656 C657 1.414 . S
C656 C659 1.499 . S
C657 H631 0.950 . S
C657 C656 1.414 . S
C657 C658 1.374 . S
C658 H632 0.950 1_554 S
C658 C654 1.385 . S
C658 C657 1.374 . S
C659 C656 1.499 . S
C659 C660 1.373 . S
C659 C661 1.389 . S
C660 H633 0.950 . S
C660 C646 1.377 . S
C660 C659 1.373 . S
C661 C645 1.377 . S
C661 C659 1.389 . S
C661 C662 1.524 . S
C662 C661 1.524 . S
C662 C663 1.397 . S
C662 C667 1.363 . S
C663 H634 0.950 . S
C663 C662 1.397 . S
C663 C664 1.334 . S
C664 H635 0.950 . S
C664 C663 1.334 . S
C664 C665 1.287 . S
C665 C664 1.287 . S
C665 C666 1.524 . S
C665 H668 0.999 . S
C666 H636 0.950 . S
C666 C665 1.524 . S
C666 C667 1.415 . S
C667 H637 0.950 . S
C667 C662 1.363 . S
C667 C666 1.415 . S
H668 C665 0.999 . S
H669 C650 0.913 . S
H670 C688 0.951 . S
H671 C690 0.951 . S
H672 C692 0.950 . S
H673 C693 0.950 . S
H674 C695 0.950 . S
H675 C698 0.950 . S
H676 C699 0.950 . S
H677 C701 0.950 . S
H678 C702 0.950 . S
H679 C703 0.951 . S
H680 C705 0.951 . S
H681 C707 0.950 . S
H682 C708 0.950 . S
H683 C710 0.950 . S
H684 C713 0.950 . S
H685 C714 0.950 . S
H686 C716 0.950 . S
H687 C717 0.950 . S
C688 H670 0.951 . S
C688 C689 1.366 . S
C688 C690 1.388 . S
C689 C688 1.366 . S
C689 C693 1.385 . S
C690 H671 0.951 . S
C690 C688 1.388 . S
C690 C691 1.366 . S
C691 C690 1.366 . S
C691 C692 1.414 . S
C691 C694 1.499 . S
C692 H672 0.950 . S
C692 C691 1.414 . S
C692 C693 1.374 . S
C693 H673 0.950 . S
C693 C689 1.385 . S
C693 C692 1.374 . S
C694 C691 1.499 . S
C694 C695 1.373 . S
C694 C696 1.389 . S
C695 H674 0.950 . S
C695 C694 1.373 . S
C695 C711 1.377 . S
C696 C694 1.389 . S
C696 C697 1.524 . S
C696 C710 1.377 . S
C697 C696 1.524 . S
C697 C698 1.397 . S
C697 C702 1.363 . S
C698 H675 0.950 . S
C698 C697 1.397 . S
C698 C699 1.334 . S
C699 H676 0.950 . S
C699 C698 1.334 . S
C699 C700 1.287 . S
C700 C699 1.287 . S
C700 C701 1.524 . S
C700 H719 0.913 . S
C701 H677 0.950 . S
C701 C700 1.524 . S
C701 C702 1.415 . S
C702 H678 0.950 . S
C702 C697 1.363 . S
C702 C701 1.415 . S
C703 H679 0.951 . S
C703 C704 1.366 . S
C703 C705 1.388 . S
C704 C703 1.366 . S
C704 C708 1.385 . S
C705 H680 0.951 . S
C705 C703 1.388 . S
C705 C706 1.366 . S
C706 C705 1.366 . S
C706 C707 1.414 . S
C706 C709 1.499 . S
C707 H681 0.950 . S
C707 C706 1.414 . S
C707 C708 1.374 . S
C708 H682 0.950 . S
C708 C704 1.385 . S
C708 C707 1.374 . S
C709 C706 1.499 . S
C709 C710 1.373 . S
C709 C711 1.389 . S
C710 H683 0.950 . S
C710 C696 1.377 . S
C710 C709 1.373 . S
C711 C695 1.377 . S
C711 C709 1.389 . S
C711 C712 1.524 . S
C712 C711 1.524 . S
C712 C713 1.397 . S
C712 C717 1.363 . S
C713 H684 0.950 . S
C713 C712 1.397 . S
C713 C714 1.334 . S
C714 H685 0.950 . S
C714 C713 1.334 . S
C714 C715 1.287 . S
C715 C714 1.287 . S
C715 C716 1.524 . S
C715 H718 0.999 . S
C716 H686 0.950 . S
C716 C715 1.524 . S
C716 C717 1.415 . S
C717 H687 0.950 . S
C717 C712 1.363 . S
C717 C716 1.415 . S
H718 C715 0.999 . S
H719 C700 0.913 . S
H720 C738 0.951 . S
H721 C740 0.951 . S
H722 C742 0.950 . S
H723 C743 0.950 . S
H724 C745 0.950 . S
H725 C748 0.950 . S
H726 C749 0.950 . S
H727 C751 0.950 . S
H728 C752 0.950 . S
H729 C753 0.951 . S
H730 C755 0.951 . S
H731 C757 0.950 . S
H732 C758 0.950 . S
H733 C760 0.950 . S
H734 C763 0.950 . S
H735 C764 0.950 . S
H736 C766 0.950 . S
H737 C767 0.950 . S
C738 H720 0.951 . S
C738 C739 1.366 . S
C738 C740 1.388 . S
C739 C738 1.366 . S
C739 C743 1.385 . S
C740 H721 0.951 . S
C740 C738 1.388 . S
C740 C741 1.366 . S
C741 C740 1.366 . S
C741 C742 1.414 . S
C741 C744 1.499 . S
C742 H722 0.950 . S
C742 C741 1.414 . S
C742 C743 1.374 . S
C743 H723 0.950 . S
C743 C739 1.385 . S
C743 C742 1.374 . S
C744 C741 1.499 . S
C744 C745 1.373 . S
C744 C746 1.389 . S
C745 H724 0.950 . S
C745 C744 1.373 . S
C745 C761 1.377 . S
C746 C744 1.389 . S
C746 C747 1.524 . S
C746 C760 1.377 . S
C747 C746 1.524 . S
C747 C748 1.397 . S
C747 C752 1.363 . S
C748 H725 0.950 . S
C748 C747 1.397 . S
C748 C749 1.334 1_556 S
C749 H726 0.950 . S
C749 C748 1.334 1_554 S
C749 C750 1.287 . S
C750 C749 1.287 . S
C750 C751 1.524 1_554 S
C750 H769 0.913 . S
C751 H727 0.950 . S
C751 C750 1.524 1_556 S
C751 C752 1.415 . S
C752 H728 0.950 . S
C752 C747 1.363 . S
C752 C751 1.415 . S
C753 H729 0.951 . S
C753 C754 1.366 . S
C753 C755 1.388 . S
C754 C753 1.366 . S
C754 C758 1.385 . S
C755 H730 0.951 . S
C755 C753 1.388 . S
C755 C756 1.366 . S
C756 C755 1.366 . S
C756 C757 1.414 . S
C756 C759 1.499 . S
C757 H731 0.950 . S
C757 C756 1.414 . S
C757 C758 1.374 . S
C758 H732 0.950 . S
C758 C754 1.385 . S
C758 C757 1.374 . S
C759 C756 1.499 . S
C759 C760 1.373 . S
C759 C761 1.389 . S
C760 H733 0.950 . S
C760 C746 1.377 . S
C760 C759 1.373 . S
C761 C745 1.377 . S
C761 C759 1.389 . S
C761 C762 1.524 . S
C762 C761 1.524 . S
C762 C763 1.397 . S
C762 C767 1.363 . S
C763 H734 0.950 . S
C763 C762 1.397 . S
C763 C764 1.334 . S
C764 H735 0.950 . S
C764 C763 1.334 . S
C764 C765 1.287 . S
C765 C764 1.287 . S
C765 C766 1.524 . S
C765 H768 0.999 . S
C766 H736 0.950 . S
C766 C765 1.524 . S
C766 C767 1.415 . S
C767 H737 0.950 . S
C767 C762 1.363 . S
C767 C766 1.415 . S
H768 C765 0.999 . S
H769 C750 0.913 . S
H770 C788 0.951 . S
H771 C790 0.951 . S
H772 C792 0.950 . S
H773 C793 0.950 . S
H774 C795 0.950 . S
H775 C798 0.950 . S
H776 C799 0.950 . S
H777 C801 0.950 . S
H778 C802 0.950 . S
H779 C803 0.951 . S
H780 C805 0.951 . S
H781 C807 0.950 . S
H782 C808 0.950 . S
H783 C810 0.950 . S
H784 C813 0.950 . S
H785 C814 0.950 . S
H786 C816 0.950 . S
H787 C817 0.950 . S
C788 H770 0.951 . S
C788 C789 1.366 . S
C788 C790 1.388 . S
C789 C788 1.366 . S
C789 C793 1.385 . S
C790 H771 0.951 . S
C790 C788 1.388 . S
C790 C791 1.366 . S
C791 C790 1.366 . S
C791 C792 1.414 . S
C791 C794 1.499 . S
C792 H772 0.950 . S
C792 C791 1.414 . S
C792 C793 1.374 . S
C793 H773 0.950 . S
C793 C789 1.385 . S
C793 C792 1.374 . S
C794 C791 1.499 . S
C794 C795 1.373 . S
C794 C796 1.389 . S
C795 H774 0.950 . S
C795 C794 1.373 . S
C795 C811 1.377 . S
C796 C794 1.389 . S
C796 C797 1.524 . S
C796 C810 1.377 . S
C797 C796 1.524 . S
C797 C798 1.397 . S
C797 C802 1.363 . S
C798 H775 0.950 . S
C798 C797 1.397 . S
C798 C799 1.334 . S
C799 H776 0.950 . S
C799 C798 1.334 . S
C799 C800 1.287 . S
C800 C799 1.287 . S
C800 C801 1.524 . S
C800 H819 0.913 . S
C801 H777 0.950 . S
C801 C800 1.524 . S
C801 C802 1.415 . S
C802 H778 0.950 . S
C802 C797 1.363 . S
C802 C801 1.415 . S
C803 H779 0.951 . S
C803 C804 1.366 . S
C803 C805 1.388 . S
C804 C803 1.366 . S
C804 C808 1.385 . S
C805 H780 0.951 . S
C805 C803 1.388 . S
C805 C806 1.366 . S
C806 C805 1.366 . S
C806 C807 1.414 . S
C806 C809 1.499 . S
C807 H781 0.950 . S
C807 C806 1.414 . S
C807 C808 1.374 . S
C808 H782 0.950 . S
C808 C804 1.385 . S
C808 C807 1.374 . S
C809 C806 1.499 . S
C809 C810 1.373 . S
C809 C811 1.389 . S
C810 H783 0.950 . S
C810 C796 1.377 . S
C810 C809 1.373 . S
C811 C795 1.377 . S
C811 C809 1.389 . S
C811 C812 1.524 . S
C812 C811 1.524 . S
C812 C813 1.397 1_554 S
C812 C817 1.363 . S
C813 H784 0.950 . S
C813 C812 1.397 1_556 S
C813 C814 1.334 . S
C814 H785 0.950 . S
C814 C813 1.334 . S
C814 C815 1.287 . S
C815 C814 1.287 . S
C815 C816 1.524 . S
C815 H818 0.999 . S
C816 H786 0.950 . S
C816 C815 1.524 . S
C816 C817 1.415 1_556 S
C817 H787 0.950 . S
C817 C812 1.363 . S
C817 C816 1.415 1_554 S
H818 C815 0.999 . S
H819 C800 0.913 . S
H820 C838 0.951 . S
H821 C840 0.951 . S
H822 C842 0.950 . S
H823 C843 0.950 . S
H824 C845 0.950 . S
H825 C848 0.950 . S
H826 C849 0.950 . S
H827 C851 0.950 . S
H828 C852 0.950 . S
H829 C853 0.951 . S
H830 C855 0.951 . S
H831 C857 0.950 . S
H832 C858 0.950 . S
H833 C860 0.950 . S
H834 C863 0.950 . S
H835 C864 0.950 . S
H836 C866 0.950 . S
H837 C867 0.950 . S
C838 H820 0.951 . S
C838 C839 1.366 . S
C838 C840 1.388 . S
C839 C838 1.366 . S
C839 C843 1.385 . S
C840 H821 0.951 . S
C840 C838 1.388 . S
C840 C841 1.366 . S
C841 C840 1.366 . S
C841 C842 1.414 . S
C841 C844 1.499 . S
C842 H822 0.950 . S
C842 C841 1.414 . S
C842 C843 1.374 . S
C843 H823 0.950 . S
C843 C839 1.385 . S
C843 C842 1.374 . S
C844 C841 1.499 . S
C844 C845 1.373 . S
C844 C846 1.389 . S
C845 H824 0.950 . S
C845 C844 1.373 . S
C845 C861 1.377 . S
C846 C844 1.389 . S
C846 C847 1.524 . S
C846 C860 1.377 . S
C847 C846 1.524 . S
C847 C848 1.397 . S
C847 C852 1.363 . S
C848 H825 0.950 . S
C848 C847 1.397 . S
C848 C849 1.334 . S
C849 H826 0.950 . S
C849 C848 1.334 . S
C849 C850 1.287 . S
C850 C849 1.287 . S
C850 C851 1.524 . S
C850 H869 0.913 . S
C851 H827 0.950 . S
C851 C850 1.524 . S
C851 C852 1.415 . S
C852 H828 0.950 . S
C852 C847 1.363 . S
C852 C851 1.415 . S
C853 H829 0.951 . S
C853 C854 1.366 . S
C853 C855 1.388 . S
C854 C853 1.366 . S
C854 C858 1.385 . S
C855 H830 0.951 . S
C855 C853 1.388 . S
C855 C856 1.366 . S
C856 C855 1.366 . S
C856 C857 1.414 . S
C856 C859 1.499 . S
C857 H831 0.950 . S
C857 C856 1.414 . S
C857 C858 1.374 . S
C858 H832 0.950 . S
C858 C854 1.385 . S
C858 C857 1.374 . S
C859 C856 1.499 . S
C859 C860 1.373 . S
C859 C861 1.389 . S
C860 H833 0.950 . S
C860 C846 1.377 . S
C860 C859 1.373 . S
C861 C845 1.377 . S
C861 C859 1.389 . S
C861 C862 1.524 . S
C862 C861 1.524 . S
C862 C863 1.397 . S
C862 C867 1.363 . S
C863 H834 0.950 . S
C863 C862 1.397 . S
C863 C864 1.334 . S
C864 H835 0.950 . S
C864 C863 1.334 . S
C864 C865 1.287 . S
C865 C864 1.287 . S
C865 C866 1.524 . S
C865 H868 0.999 . S
C866 H836 0.950 . S
C866 C865 1.524 . S
C866 C867 1.415 . S
C867 H837 0.950 . S
C867 C862 1.363 . S
C867 C866 1.415 . S
H868 C865 0.999 . S
H869 C850 0.913 . S
H870 C888 0.951 . S
H871 C890 0.951 . S
H872 C892 0.950 . S
H873 C893 0.950 . S
H874 C895 0.950 . S
H875 C898 0.950 . S
H876 C899 0.950 . S
H877 C901 0.950 . S
H878 C902 0.950 . S
H879 C903 0.951 . S
H880 C905 0.951 . S
H881 C907 0.950 . S
H882 C908 0.950 . S
H883 C910 0.950 . S
H884 C913 0.950 . S
H885 C914 0.950 . S
H886 C916 0.950 . S
H887 C917 0.950 . S
C888 H870 0.951 . S
C888 C889 1.366 . S
C888 C890 1.388 . S
C889 C888 1.366 . S
C889 C893 1.385 . S
C890 H871 0.951 . S
C890 C888 1.388 . S
C890 C891 1.366 . S
C891 C890 1.366 . S
C891 C892 1.414 . S
C891 C894 1.499 . S
C892 H872 0.950 . S
C892 C891 1.414 . S
C892 C893 1.374 . S
C893 H873 0.950 . S
C893 C889 1.385 . S
C893 C892 1.374 . S
C894 C891 1.499 . S
C894 C895 1.373 . S
C894 C896 1.389 . S
C895 H874 0.950 . S
C895 C894 1.373 . S
C895 C911 1.377 . S
C896 C894 1.389 . S
C896 C897 1.524 . S
C896 C910 1.377 . S
C897 C896 1.524 . S
C897 C898 1.397 . S
C897 C902 1.363 . S
C898 H875 0.950 . S
C898 C897 1.397 . S
C898 C899 1.334 . S
C899 H876 0.950 . S
C899 C898 1.334 . S
C899 C900 1.287 . S
C900 C899 1.287 . S
C900 C901 1.524 . S
C900 H919 0.913 . S
C901 H877 0.950 . S
C901 C900 1.524 . S
C901 C902 1.415 . S
C902 H878 0.950 . S
C902 C897 1.363 . S
C902 C901 1.415 . S
C903 H879 0.951 . S
C903 C904 1.366 . S
C903 C905 1.388 . S
C904 C903 1.366 . S
C904 C908 1.385 . S
C905 H880 0.951 . S
C905 C903 1.388 . S
C905 C906 1.366 . S
C906 C905 1.366 . S
C906 C907 1.414 . S
C906 C909 1.499 . S
C907 H881 0.950 . S
C907 C906 1.414 . S
C907 C908 1.374 . S
C908 H882 0.950 . S
C908 C904 1.385 . S
C908 C907 1.374 . S
C909 C906 1.499 . S
C909 C910 1.373 . S
C909 C911 1.389 . S
C910 H883 0.950 . S
C910 C896 1.377 . S
C910 C909 1.373 . S
C911 C895 1.377 . S
C911 C909 1.389 . S
C911 C912 1.524 . S
C912 C911 1.524 . S
C912 C913 1.397 . S
C912 C917 1.363 . S
C913 H884 0.950 . S
C913 C912 1.397 . S
C913 C914 1.334 . S
C914 H885 0.950 . S
C914 C913 1.334 . S
C914 C915 1.287 . S
C915 C914 1.287 . S
C915 C916 1.524 . S
C915 H918 0.999 . S
C916 H886 0.950 . S
C916 C915 1.524 . S
C916 C917 1.415 . S
C917 H887 0.950 . S
C917 C912 1.363 . S
C917 C916 1.415 . S
H918 C915 0.999 . S
H919 C900 0.913 . S
H920 C938 0.951 . S
H921 C940 0.951 . S
H922 C942 0.950 . S
H923 C943 0.950 . S
H924 C945 0.950 . S
H925 C948 0.950 . S
H926 C949 0.950 . S
H927 C951 0.950 . S
H928 C952 0.950 . S
H929 C953 0.951 . S
H930 C955 0.951 . S
H931 C957 0.950 . S
H932 C958 0.950 . S
H933 C960 0.950 . S
H934 C963 0.950 . S
H935 C964 0.950 . S
H936 C966 0.950 . S
H937 C967 0.950 . S
C938 H920 0.951 . S
C938 C939 1.366 . S
C938 C940 1.388 . S
C939 C938 1.366 . S
C939 C943 1.385 . S
C940 H921 0.951 . S
C940 C938 1.388 . S
C940 C941 1.366 . S
C941 C940 1.366 . S
C941 C942 1.414 . S
C941 C944 1.499 . S
C942 H922 0.950 . S
C942 C941 1.414 . S
C942 C943 1.374 . S
C943 H923 0.950 . S
C943 C939 1.385 . S
C943 C942 1.374 . S
C944 C941 1.499 . S
C944 C945 1.373 . S
C944 C946 1.389 . S
C945 H924 0.950 . S
C945 C944 1.373 . S
C945 C961 1.377 . S
C946 C944 1.389 . S
C946 C947 1.524 . S
C946 C960 1.377 . S
C947 C946 1.524 . S
C947 C948 1.397 . S
C947 C952 1.363 . S
C948 H925 0.950 . S
C948 C947 1.397 . S
C948 C949 1.334 . S
C949 H926 0.950 . S
C949 C948 1.334 . S
C949 C950 1.287 . S
C950 C949 1.287 . S
C950 C951 1.524 . S
C950 H969 0.913 . S
C951 H927 0.950 . S
C951 C950 1.524 . S
C951 C952 1.415 . S
C952 H928 0.950 . S
C952 C947 1.363 . S
C952 C951 1.415 . S
C953 H929 0.951 . S
C953 C954 1.366 . S
C953 C955 1.388 . S
C954 C953 1.366 . S
C954 C958 1.385 . S
C955 H930 0.951 . S
C955 C953 1.388 . S
C955 C956 1.366 . S
C956 C955 1.366 . S
C956 C957 1.414 . S
C956 C959 1.499 . S
C957 H931 0.950 . S
C957 C956 1.414 . S
C957 C958 1.374 . S
C958 H932 0.950 . S
C958 C954 1.385 . S
C958 C957 1.374 . S
C959 C956 1.499 . S
C959 C960 1.373 . S
C959 C961 1.389 . S
C960 H933 0.950 . S
C960 C946 1.377 . S
C960 C959 1.373 . S
C961 C945 1.377 . S
C961 C959 1.389 . S
C961 C962 1.524 . S
C962 C961 1.524 . S
C962 C963 1.397 . S
C962 C967 1.363 . S
C963 H934 0.950 . S
C963 C962 1.397 . S
C963 C964 1.334 1_554 S
C964 H935 0.950 . S
C964 C963 1.334 1_556 S
C964 C965 1.287 . S
C965 C964 1.287 . S
C965 C966 1.524 . S
C965 H968 0.999 . S
C966 H936 0.950 . S
C966 C965 1.524 . S
C966 C967 1.415 1_556 S
C967 H937 0.950 . S
C967 C962 1.363 . S
C967 C966 1.415 1_554 S
H968 C965 0.999 . S
H969 C950 0.913 . S
H970 C988 0.951 . S
H971 C990 0.951 . S
H972 C992 0.950 . S
H973 C993 0.950 . S
H974 C995 0.950 . S
H975 C998 0.949 1_556 S
H976 C999 0.950 . S
H977 C1001 0.950 . S
H978 C1002 0.950 . S
H979 C1003 0.951 . S
H980 C1005 0.951 . S
H981 C1007 0.950 . S
H982 C1008 0.950 . S
H983 C1010 0.950 . S
H984 C1013 0.950 . S
H985 C1014 0.950 . S
H986 C1016 0.950 . S
H987 C1017 0.950 . S
C988 H970 0.951 . S
C988 C989 1.366 . S
C988 C990 1.388 . S
C989 C988 1.366 . S
C989 C993 1.385 . S
C990 H971 0.951 . S
C990 C988 1.388 . S
C990 C991 1.366 . S
C991 C990 1.366 . S
C991 C992 1.414 . S
C991 C994 1.499 . S
C992 H972 0.950 . S
C992 C991 1.414 . S
C992 C993 1.374 . S
C993 H973 0.950 . S
C993 C989 1.385 . S
C993 C992 1.374 . S
C994 C991 1.499 . S
C994 C995 1.373 . S
C994 C996 1.389 . S
C995 H974 0.950 . S
C995 C994 1.373 . S
C995 C1011 1.377 . S
C996 C994 1.389 . S
C996 C997 1.524 . S
C996 C1010 1.377 . S
C997 C996 1.524 . S
C997 C998 1.397 1_556 S
C997 C1002 1.363 . S
C998 H975 0.949 1_554 S
C998 C997 1.397 1_554 S
C998 C999 1.334 . S
C999 H976 0.950 . S
C999 C998 1.334 . S
C999 C1000 1.287 . S
C1000 C999 1.287 . S
C1000 C1001 1.524 . S
C1000 H1019 0.913 . S
C1001 H977 0.950 . S
C1001 C1000 1.524 . S
C1001 C1002 1.415 1_554 S
C1002 H978 0.950 . S
C1002 C997 1.363 . S
C1002 C1001 1.415 1_556 S
C1003 H979 0.951 . S
C1003 C1004 1.366 . S
C1003 C1005 1.388 . S
C1004 C1003 1.366 . S
C1004 C1008 1.385 . S
C1005 H980 0.951 . S
C1005 C1003 1.388 . S
C1005 C1006 1.366 . S
C1006 C1005 1.366 . S
C1006 C1007 1.414 . S
C1006 C1009 1.499 . S
C1007 H981 0.950 . S
C1007 C1006 1.414 . S
C1007 C1008 1.374 . S
C1008 H982 0.950 . S
C1008 C1004 1.385 . S
C1008 C1007 1.374 . S
C1009 C1006 1.499 . S
C1009 C1010 1.373 . S
C1009 C1011 1.389 . S
C1010 H983 0.950 . S
C1010 C996 1.377 . S
C1010 C1009 1.373 . S
C1011 C995 1.377 . S
C1011 C1009 1.389 . S
C1011 C1012 1.524 . S
C1012 C1011 1.524 . S
C1012 C1013 1.397 . S
C1012 C1017 1.363 . S
C1013 H984 0.950 . S
C1013 C1012 1.397 . S
C1013 C1014 1.334 . S
C1014 H985 0.950 . S
C1014 C1013 1.334 . S
C1014 C1015 1.287 . S
C1015 C1014 1.287 . S
C1015 C1016 1.524 . S
C1015 H1018 0.999 . S
C1016 H986 0.950 . S
C1016 C1015 1.524 . S
C1016 C1017 1.415 . S
C1017 H987 0.950 . S
C1017 C1012 1.363 . S
C1017 C1016 1.415 . S
H1018 C1015 0.999 . S
H1019 C1000 0.913 . S
H1020 C1038 0.951 . S
H1021 C1040 0.951 . S
H1022 C1042 0.950 . S
H1023 C1043 0.950 . S
H1024 C1045 0.950 . S
H1025 C1048 0.950 . S
H1026 C1049 0.950 . S
H1027 C1051 0.950 . S
H1028 C1052 0.950 . S
H1029 C1053 0.951 . S
H1030 C1055 0.951 . S
H1031 C1057 0.950 . S
H1032 C1058 0.950 . S
H1033 C1060 0.950 . S
H1034 C1063 0.950 . S
H1035 C1064 0.950 . S
H1036 C1066 0.950 . S
H1037 C1067 0.950 . S
C1038 H1020 0.951 . S
C1038 C1039 1.366 . S
C1038 C1040 1.388 . S
C1039 C1038 1.366 . S
C1039 C1043 1.385 . S
C1040 H1021 0.951 . S
C1040 C1038 1.388 . S
C1040 C1041 1.366 . S
C1041 C1040 1.366 . S
C1041 C1042 1.414 . S
C1041 C1044 1.499 . S
C1042 H1022 0.950 . S
C1042 C1041 1.414 . S
C1042 C1043 1.374 . S
C1043 H1023 0.950 . S
C1043 C1039 1.385 . S
C1043 C1042 1.374 . S
C1044 C1041 1.499 . S
C1044 C1045 1.373 . S
C1044 C1046 1.389 . S
C1045 H1024 0.950 . S
C1045 C1044 1.373 . S
C1045 C1061 1.377 . S
C1046 C1044 1.389 . S
C1046 C1047 1.524 . S
C1046 C1060 1.377 . S
C1047 C1046 1.524 . S
C1047 C1048 1.397 . S
C1047 C1052 1.363 . S
C1048 H1025 0.950 . S
C1048 C1047 1.397 . S
C1048 C1049 1.334 . S
C1049 H1026 0.950 . S
C1049 C1048 1.334 . S
C1049 C1050 1.287 . S
C1050 C1049 1.287 . S
C1050 C1051 1.524 . S
C1050 H1069 0.913 . S
C1051 H1027 0.950 . S
C1051 C1050 1.524 . S
C1051 C1052 1.415 . S
C1052 H1028 0.950 . S
C1052 C1047 1.363 . S
C1052 C1051 1.415 . S
C1053 H1029 0.951 . S
C1053 C1054 1.366 . S
C1053 C1055 1.388 . S
C1054 C1053 1.366 . S
C1054 C1058 1.385 . S
C1055 H1030 0.951 . S
C1055 C1053 1.388 . S
C1055 C1056 1.366 . S
C1056 C1055 1.366 . S
C1056 C1057 1.414 . S
C1056 C1059 1.499 . S
C1057 H1031 0.950 . S
C1057 C1056 1.414 . S
C1057 C1058 1.374 . S
C1058 H1032 0.950 . S
C1058 C1054 1.385 . S
C1058 C1057 1.374 . S
C1059 C1056 1.499 . S
C1059 C1060 1.373 . S
C1059 C1061 1.389 . S
C1060 H1033 0.950 . S
C1060 C1046 1.377 . S
C1060 C1059 1.373 . S
C1061 C1045 1.377 . S
C1061 C1059 1.389 . S
C1061 C1062 1.524 . S
C1062 C1061 1.524 . S
C1062 C1063 1.397 . S
C1062 C1067 1.363 . S
C1063 H1034 0.950 . S
C1063 C1062 1.397 . S
C1063 C1064 1.334 . S
C1064 H1035 0.950 . S
C1064 C1063 1.334 . S
C1064 C1065 1.287 . S
C1065 C1064 1.287 . S
C1065 C1066 1.524 . S
C1065 H1068 0.999 . S
C1066 H1036 0.950 . S
C1066 C1065 1.524 . S
C1066 C1067 1.415 . S
C1067 H1037 0.950 . S
C1067 C1062 1.363 . S
C1067 C1066 1.415 . S
H1068 C1065 0.999 . S
H1069 C1050 0.913 . S
H1070 C1088 0.951 . S
H1071 C1090 0.951 . S
H1072 C1092 0.950 . S
H1073 C1093 0.950 . S
H1074 C1095 0.950 . S
H1075 C1098 0.950 . S
H1076 C1099 0.950 . S
H1077 C1101 0.950 . S
H1078 C1102 0.950 . S
H1079 C1103 0.951 . S
H1080 C1105 0.951 . S
H1081 C1107 0.950 . S
H1082 C1108 0.950 . S
H1083 C1110 0.950 . S
H1084 C1113 0.950 . S
H1085 C1114 0.950 . S
H1086 C1116 0.950 . S
H1087 C1117 0.950 . S
C1088 H1070 0.951 . S
C1088 C1089 1.366 . S
C1088 C1090 1.388 . S
C1089 C1088 1.366 . S
C1089 C1093 1.385 . S
C1090 H1071 0.951 . S
C1090 C1088 1.388 . S
C1090 C1091 1.366 . S
C1091 C1090 1.366 . S
C1091 C1092 1.414 . S
C1091 C1094 1.499 . S
C1092 H1072 0.950 . S
C1092 C1091 1.414 . S
C1092 C1093 1.374 . S
C1093 H1073 0.950 . S
C1093 C1089 1.385 . S
C1093 C1092 1.374 . S
C1094 C1091 1.499 . S
C1094 C1095 1.373 . S
C1094 C1096 1.389 . S
C1095 H1074 0.950 . S
C1095 C1094 1.373 . S
C1095 C1111 1.377 . S
C1096 C1094 1.389 . S
C1096 C1097 1.524 . S
C1096 C1110 1.377 . S
C1097 C1096 1.524 . S
C1097 C1098 1.397 . S
C1097 C1102 1.363 . S
C1098 H1075 0.950 . S
C1098 C1097 1.397 . S
C1098 C1099 1.334 . S
C1099 H1076 0.950 . S
C1099 C1098 1.334 . S
C1099 C1100 1.287 . S
C1100 C1099 1.287 . S
C1100 C1101 1.524 . S
C1100 H1119 0.913 . S
C1101 H1077 0.950 . S
C1101 C1100 1.524 . S
C1101 C1102 1.415 . S
C1102 H1078 0.950 . S
C1102 C1097 1.363 . S
C1102 C1101 1.415 . S
C1103 H1079 0.951 . S
C1103 C1104 1.366 . S
C1103 C1105 1.388 . S
C1104 C1103 1.366 . S
C1104 C1108 1.385 . S
C1105 H1080 0.951 . S
C1105 C1103 1.388 . S
C1105 C1106 1.366 . S
C1106 C1105 1.366 . S
C1106 C1107 1.414 . S
C1106 C1109 1.499 . S
C1107 H1081 0.950 . S
C1107 C1106 1.414 . S
C1107 C1108 1.374 . S
C1108 H1082 0.950 . S
C1108 C1104 1.385 . S
C1108 C1107 1.374 . S
C1109 C1106 1.499 . S
C1109 C1110 1.373 . S
C1109 C1111 1.389 . S
C1110 H1083 0.950 . S
C1110 C1096 1.377 . S
C1110 C1109 1.373 . S
C1111 C1095 1.377 . S
C1111 C1109 1.389 . S
C1111 C1112 1.524 . S
C1112 C1111 1.524 . S
C1112 C1113 1.397 . S
C1112 C1117 1.363 . S
C1113 H1084 0.950 . S
C1113 C1112 1.397 . S
C1113 C1114 1.334 . S
C1114 H1085 0.950 . S
C1114 C1113 1.334 . S
C1114 C1115 1.287 . S
C1115 C1114 1.287 . S
C1115 C1116 1.524 . S
C1115 H1118 0.999 . S
C1116 H1086 0.950 . S
C1116 C1115 1.524 . S
C1116 C1117 1.415 . S
C1117 H1087 0.950 . S
C1117 C1112 1.363 . S
C1117 C1116 1.415 . S
H1118 C1115 0.999 . S
H1119 C1100 0.913 . S
H1120 C1138 0.951 1_565 S
H1121 C1140 0.958 . S
H1122 C1142 0.950 . S
H1123 C1143 0.950 . S
H1124 C1145 0.950 . S
H1125 C1148 0.950 . S
H1126 C1149 0.950 . S
H1127 C1151 0.950 . S
H1128 C1152 0.950 . S
H1129 C1153 0.951 1_545 S
H1130 C1155 0.962 . S
H1131 C1157 0.950 . S
H1132 C1158 0.950 . S
H1133 C1160 0.950 . S
H1134 C1163 0.950 . S
H1135 C1164 0.950 . S
H1136 C1166 0.950 . S
H1137 C1167 0.950 . S
C1138 H1120 0.951 1_545 S
C1138 C1139 1.366 . S
C1138 C1140 1.384 1_545 S
C1139 C1138 1.366 . S
C1139 C1143 1.385 1_655 S
C1140 H1121 0.958 . S
C1140 C1138 1.384 1_565 S
C1140 C1141 1.363 1_565 S
C1141 C1140 1.363 1_545 S
C1141 C1142 1.414 1_655 S
C1141 C1144 1.499 . S
C1142 H1122 0.950 . S
C1142 C1141 1.414 1_455 S
C1142 C1143 1.374 . S
C1143 H1123 0.950 . S
C1143 C1139 1.385 1_455 S
C1143 C1142 1.374 . S
C1144 C1141 1.499 . S
C1144 C1145 1.373 1_645 S
C1144 C1146 1.389 . S
C1145 H1124 0.950 . S
C1145 C1144 1.373 1_465 S
C1145 C1161 1.377 1_556 S
C1146 C1144 1.389 . S
C1146 C1147 1.524 . S
C1146 C1160 1.377 1_556 S
C1147 C1146 1.524 . S
C1147 C1148 1.397 . S
C1147 C1152 1.363 . S
C1148 H1125 0.950 . S
C1148 C1147 1.397 . S
C1148 C1149 1.334 . S
C1149 H1126 0.950 . S
C1149 C1148 1.334 . S
C1149 C1150 1.287 . S
C1150 C1149 1.287 . S
C1150 C1151 1.524 . S
C1150 H1169 0.913 . S
C1151 H1127 0.950 . S
C1151 C1150 1.524 . S
C1151 C1152 1.415 . S
C1152 H1128 0.950 . S
C1152 C1147 1.363 . S
C1152 C1151 1.415 . S
C1153 H1129 0.951 1_565 S
C1153 C1154 1.366 . S
C1153 C1155 1.382 1_565 S
C1154 C1153 1.366 . S
C1154 C1158 1.385 1_455 S
C1155 H1130 0.962 . S
C1155 C1153 1.382 1_545 S
C1155 C1156 1.361 1_545 S
C1156 C1155 1.361 1_565 S
C1156 C1157 1.414 1_455 S
C1156 C1159 1.499 . S
C1157 H1131 0.950 . S
C1157 C1156 1.414 1_655 S
C1157 C1158 1.374 . S
C1158 H1132 0.950 . S
C1158 C1154 1.385 1_655 S
C1158 C1157 1.374 . S
C1159 C1156 1.499 . S
C1159 C1160 1.373 1_465 S
C1159 C1161 1.389 . S
C1160 H1133 0.950 . S
C1160 C1146 1.377 1_554 S
C1160 C1159 1.373 1_645 S
C1161 C1145 1.377 1_554 S
C1161 C1159 1.389 . S
C1161 C1162 1.524 . S
C1162 C1161 1.524 . S
C1162 C1163 1.397 . S
C1162 C1167 1.363 . S
C1163 H1134 0.950 . S
C1163 C1162 1.397 . S
C1163 C1164 1.334 . S
C1164 H1135 0.950 . S
C1164 C1163 1.334 . S
C1164 C1165 1.287 . S
C1165 C1164 1.287 . S
C1165 C1166 1.524 . S
C1165 H1168 0.999 . S
C1166 H1136 0.950 . S
C1166 C1165 1.524 . S
C1166 C1167 1.415 . S
C1167 H1137 0.950 . S
C1167 C1162 1.363 . S
C1167 C1166 1.415 . S
H1168 C1165 0.999 . S
H1169 C1150 0.913 . S
H1170 C1188 0.951 . S
H1171 C1190 0.951 . S
H1172 C1192 0.950 . S
H1173 C1193 0.950 . S
H1174 C1195 0.950 . S
H1175 C1198 0.950 . S
H1176 C1199 0.950 . S
H1177 C1201 0.950 . S
H1178 C1202 0.950 . S
H1179 C1203 0.951 . S
H1180 C1205 0.951 . S
H1181 C1207 0.950 . S
H1182 C1208 0.950 . S
H1183 C1210 0.950 . S
H1184 C1213 0.950 . S
H1185 C1214 0.950 . S
H1186 C1216 0.950 . S
H1187 C1217 0.950 . S
C1188 H1170 0.951 . S
C1188 C1189 1.366 . S
C1188 C1190 1.388 . S
C1189 C1188 1.366 . S
C1189 C1193 1.385 . S
C1190 H1171 0.951 . S
C1190 C1188 1.388 . S
C1190 C1191 1.366 . S
C1191 C1190 1.366 . S
C1191 C1192 1.414 . S
C1191 C1194 1.499 . S
C1192 H1172 0.950 . S
C1192 C1191 1.414 . S
C1192 C1193 1.374 . S
C1193 H1173 0.950 . S
C1193 C1189 1.385 . S
C1193 C1192 1.374 . S
C1194 C1191 1.499 . S
C1194 C1195 1.373 . S
C1194 C1196 1.389 . S
C1195 H1174 0.950 . S
C1195 C1194 1.373 . S
C1195 C1211 1.377 . S
C1196 C1194 1.389 . S
C1196 C1197 1.524 . S
C1196 C1210 1.377 . S
C1197 C1196 1.524 . S
C1197 C1198 1.397 . S
C1197 C1202 1.363 . S
C1198 H1175 0.950 . S
C1198 C1197 1.397 . S
C1198 C1199 1.334 . S
C1199 H1176 0.950 . S
C1199 C1198 1.334 . S
C1199 C1200 1.287 . S
C1200 C1199 1.287 . S
C1200 C1201 1.524 . S
C1200 H1219 0.913 . S
C1201 H1177 0.950 . S
C1201 C1200 1.524 . S
C1201 C1202 1.415 . S
C1202 H1178 0.950 . S
C1202 C1197 1.363 . S
C1202 C1201 1.415 . S
C1203 H1179 0.951 . S
C1203 C1204 1.366 . S
C1203 C1205 1.388 . S
C1204 C1203 1.366 . S
C1204 C1208 1.385 . S
C1205 H1180 0.951 . S
C1205 C1203 1.388 . S
C1205 C1206 1.366 . S
C1206 C1205 1.366 . S
C1206 C1207 1.414 . S
C1206 C1209 1.499 . S
C1207 H1181 0.950 . S
C1207 C1206 1.414 . S
C1207 C1208 1.374 . S
C1208 H1182 0.950 . S
C1208 C1204 1.385 . S
C1208 C1207 1.374 . S
C1209 C1206 1.499 . S
C1209 C1210 1.373 . S
C1209 C1211 1.389 . S
C1210 H1183 0.950 . S
C1210 C1196 1.377 . S
C1210 C1209 1.373 . S
C1211 C1195 1.377 . S
C1211 C1209 1.389 . S
C1211 C1212 1.524 . S
C1212 C1211 1.524 . S
C1212 C1213 1.397 . S
C1212 C1217 1.363 . S
C1213 H1184 0.950 . S
C1213 C1212 1.397 . S
C1213 C1214 1.334 . S
C1214 H1185 0.950 . S
C1214 C1213 1.334 . S
C1214 C1215 1.287 . S
C1215 C1214 1.287 . S
C1215 C1216 1.524 . S
C1215 H1218 0.999 . S
C1216 H1186 0.950 . S
C1216 C1215 1.524 . S
C1216 C1217 1.415 . S
C1217 H1187 0.950 . S
C1217 C1212 1.363 . S
C1217 C1216 1.415 . S
H1218 C1215 0.999 . S
H1219 C1200 0.913 . S
H1220 C1238 0.951 . S
H1221 C1240 0.951 . S
H1222 C1242 0.950 . S
H1223 C1243 0.950 . S
H1224 C1245 0.950 . S
H1225 C1248 0.977 . S
H1226 C1249 0.950 . S
H1227 C1251 0.950 . S
H1228 C1252 0.950 . S
H1229 C1253 0.951 . S
H1230 C1255 0.951 . S
H1231 C1257 0.950 . S
H1232 C1258 0.950 . S
H1233 C1260 0.950 . S
H1234 C1263 0.986 . S
H1235 C1264 0.950 . S
H1236 C1266 0.950 . S
H1237 C1267 0.950 . S
C1238 H1220 0.951 . S
C1238 C1239 1.366 . S
C1238 C1240 1.388 . S
C1239 C1238 1.366 . S
C1239 C1243 1.385 1_565 S
C1240 H1221 0.951 . S
C1240 C1238 1.388 . S
C1240 C1241 1.366 . S
C1241 C1240 1.366 . S
C1241 C1242 1.414 1_565 S
C1241 C1244 1.507 . S
C1242 H1222 0.950 . S
C1242 C1241 1.414 1_545 S
C1242 C1243 1.374 . S
C1243 H1223 0.950 . S
C1243 C1239 1.385 1_545 S
C1243 C1242 1.374 . S
C1244 C1241 1.507 . S
C1244 C1245 1.352 1_565 S
C1244 C1246 1.405 . S
C1245 H1224 0.950 . S
C1245 C1244 1.352 1_545 S
C1245 C1261 1.377 . S
C1246 C1244 1.405 . S
C1246 C1247 1.524 . S
C1246 C1260 1.377 . S
C1247 C1246 1.524 . S
C1247 C1248 1.397 . S
C1247 C1252 1.363 . S
C1248 H1225 0.977 . S
C1248 C1247 1.397 . S
C1248 C1249 1.334 . S
C1249 H1226 0.950 . S
C1249 C1248 1.334 . S
C1249 C1250 1.287 . S
C1250 C1249 1.287 . S
C1250 C1251 1.524 . S
C1250 H1269 0.913 . S
C1251 H1227 0.950 . S
C1251 C1250 1.524 . S
C1251 C1252 1.415 . S
C1252 H1228 0.950 . S
C1252 C1247 1.363 . S
C1252 C1251 1.415 . S
C1253 H1229 0.951 . S
C1253 C1254 1.366 . S
C1253 C1255 1.388 . S
C1254 C1253 1.366 . S
C1254 C1258 1.385 1_545 S
C1255 H1230 0.951 . S
C1255 C1253 1.388 . S
C1255 C1256 1.366 . S
C1256 C1255 1.366 . S
C1256 C1257 1.414 1_545 S
C1256 C1259 1.510 . S
C1257 H1231 0.950 . S
C1257 C1256 1.414 1_565 S
C1257 C1258 1.374 . S
C1258 H1232 0.950 . S
C1258 C1254 1.385 1_565 S
C1258 C1257 1.374 . S
C1259 C1256 1.510 . S
C1259 C1260 1.345 1_545 S
C1259 C1261 1.409 . S
C1260 H1233 0.950 . S
C1260 C1246 1.377 . S
C1260 C1259 1.345 1_565 S
C1261 C1245 1.377 . S
C1261 C1259 1.409 . S
C1261 C1262 1.524 . S
C1262 C1261 1.524 . S
C1262 C1263 1.397 . S
C1262 C1267 1.363 . S
C1263 H1234 0.986 . S
C1263 C1262 1.397 . S
C1263 C1264 1.334 . S
C1264 H1235 0.950 . S
C1264 C1263 1.334 . S
C1264 C1265 1.287 . S
C1265 C1264 1.287 . S
C1265 C1266 1.524 . S
C1265 H1268 0.999 . S
C1266 H1236 0.950 . S
C1266 C1265 1.524 . S
C1266 C1267 1.415 . S
C1267 H1237 0.950 . S
C1267 C1262 1.363 . S
C1267 C1266 1.415 . S
H1268 C1265 0.999 . S
H1269 C1250 0.913 . S
H1270 C1288 0.951 . S
H1271 C1290 0.951 . S
H1272 C1292 0.950 . S
H1273 C1293 0.950 . S
H1274 C1295 0.950 . S
H1275 C1298 0.950 . S
H1276 C1299 0.950 . S
H1277 C1301 0.950 . S
H1278 C1302 0.950 . S
H1279 C1303 0.951 . S
H1280 C1305 0.951 . S
H1281 C1307 0.950 . S
H1282 C1308 0.950 . S
H1283 C1310 0.950 . S
H1284 C1313 0.950 . S
H1285 C1314 0.950 . S
H1286 C1316 0.950 . S
H1287 C1317 0.950 . S
C1288 H1270 0.951 . S
C1288 C1289 1.366 . S
C1288 C1290 1.388 . S
C1289 C1288 1.366 . S
C1289 C1293 1.385 . S
C1290 H1271 0.951 . S
C1290 C1288 1.388 . S
C1290 C1291 1.366 . S
C1291 C1290 1.366 . S
C1291 C1292 1.414 . S
C1291 C1294 1.499 . S
C1292 H1272 0.950 . S
C1292 C1291 1.414 . S
C1292 C1293 1.374 . S
C1293 H1273 0.950 . S
C1293 C1289 1.385 . S
C1293 C1292 1.374 . S
C1294 C1291 1.499 . S
C1294 C1295 1.373 . S
C1294 C1296 1.389 . S
C1295 H1274 0.950 . S
C1295 C1294 1.373 . S
C1295 C1311 1.377 . S
C1296 C1294 1.389 . S
C1296 C1297 1.524 . S
C1296 C1310 1.377 . S
C1297 C1296 1.524 . S
C1297 C1298 1.397 . S
C1297 C1302 1.363 . S
C1298 H1275 0.950 . S
C1298 C1297 1.397 . S
C1298 C1299 1.334 . S
C1299 H1276 0.950 . S
C1299 C1298 1.334 . S
C1299 C1300 1.287 . S
C1300 C1299 1.287 . S
C1300 C1301 1.524 . S
C1300 H1319 0.913 . S
C1301 H1277 0.950 . S
C1301 C1300 1.524 . S
C1301 C1302 1.415 . S
C1302 H1278 0.950 . S
C1302 C1297 1.363 . S
C1302 C1301 1.415 . S
C1303 H1279 0.951 . S
C1303 C1304 1.366 . S
C1303 C1305 1.388 . S
C1304 C1303 1.366 . S
C1304 C1308 1.385 . S
C1305 H1280 0.951 . S
C1305 C1303 1.388 . S
C1305 C1306 1.366 . S
C1306 C1305 1.366 . S
C1306 C1307 1.414 . S
C1306 C1309 1.499 . S
C1307 H1281 0.950 . S
C1307 C1306 1.414 . S
C1307 C1308 1.374 . S
C1308 H1282 0.950 . S
C1308 C1304 1.385 . S
C1308 C1307 1.374 . S
C1309 C1306 1.499 . S
C1309 C1310 1.373 . S
C1309 C1311 1.389 . S
C1310 H1283 0.950 . S
C1310 C1296 1.377 . S
C1310 C1309 1.373 . S
C1311 C1295 1.377 . S
C1311 C1309 1.389 . S
C1311 C1312 1.524 . S
C1312 C1311 1.524 . S
C1312 C1313 1.397 . S
C1312 C1317 1.363 . S
C1313 H1284 0.950 . S
C1313 C1312 1.397 . S
C1313 C1314 1.334 . S
C1314 H1285 0.950 . S
C1314 C1313 1.334 . S
C1314 C1315 1.287 . S
C1315 C1314 1.287 . S
C1315 C1316 1.524 . S
C1315 H1318 0.999 . S
C1316 H1286 0.950 . S
C1316 C1315 1.524 . S
C1316 C1317 1.415 . S
C1317 H1287 0.950 . S
C1317 C1312 1.363 . S
C1317 C1316 1.415 . S
H1318 C1315 0.999 . S
H1319 C1300 0.913 . S
H1320 C1338 0.951 . S
H1321 C1340 0.951 . S
H1322 C1342 0.950 . S
H1323 C1343 0.950 . S
H1324 C1345 0.950 . S
H1325 C1348 0.950 . S
H1326 C1349 0.950 . S
H1327 C1351 0.950 . S
H1328 C1352 0.950 . S
H1329 C1353 0.951 . S
H1330 C1355 0.951 . S
H1331 C1357 0.950 . S
H1332 C1358 0.950 . S
H1333 C1360 0.950 . S
H1334 C1363 0.950 . S
H1335 C1364 0.950 . S
H1336 C1366 0.950 . S
H1337 C1367 0.950 . S
C1338 H1320 0.951 . S
C1338 C1339 1.366 . S
C1338 C1340 1.388 . S
C1339 C1338 1.366 . S
C1339 C1343 1.385 . S
C1340 H1321 0.951 . S
C1340 C1338 1.388 . S
C1340 C1341 1.366 . S
C1341 C1340 1.366 . S
C1341 C1342 1.414 . S
C1341 C1344 1.499 . S
C1342 H1322 0.950 . S
C1342 C1341 1.414 . S
C1342 C1343 1.374 . S
C1343 H1323 0.950 . S
C1343 C1339 1.385 . S
C1343 C1342 1.374 . S
C1344 C1341 1.499 . S
C1344 C1345 1.373 . S
C1344 C1346 1.389 . S
C1345 H1324 0.950 . S
C1345 C1344 1.373 . S
C1345 C1361 1.377 . S
C1346 C1344 1.389 . S
C1346 C1347 1.524 . S
C1346 C1360 1.377 . S
C1347 C1346 1.524 . S
C1347 C1348 1.397 . S
C1347 C1352 1.363 . S
C1348 H1325 0.950 . S
C1348 C1347 1.397 . S
C1348 C1349 1.334 . S
C1349 H1326 0.950 . S
C1349 C1348 1.334 . S
C1349 C1350 1.287 . S
C1350 C1349 1.287 . S
C1350 C1351 1.524 . S
C1350 H1369 0.913 . S
C1351 H1327 0.950 . S
C1351 C1350 1.524 . S
C1351 C1352 1.415 . S
C1352 H1328 0.950 . S
C1352 C1347 1.363 . S
C1352 C1351 1.415 . S
C1353 H1329 0.951 . S
C1353 C1354 1.366 . S
C1353 C1355 1.388 . S
C1354 C1353 1.366 . S
C1354 C1358 1.385 . S
C1355 H1330 0.951 . S
C1355 C1353 1.388 . S
C1355 C1356 1.366 . S
C1356 C1355 1.366 . S
C1356 C1357 1.414 . S
C1356 C1359 1.499 . S
C1357 H1331 0.950 . S
C1357 C1356 1.414 . S
C1357 C1358 1.374 . S
C1358 H1332 0.950 . S
C1358 C1354 1.385 . S
C1358 C1357 1.374 . S
C1359 C1356 1.499 . S
C1359 C1360 1.373 . S
C1359 C1361 1.389 . S
C1360 H1333 0.950 . S
C1360 C1346 1.377 . S
C1360 C1359 1.373 . S
C1361 C1345 1.377 . S
C1361 C1359 1.389 . S
C1361 C1362 1.524 . S
C1362 C1361 1.524 . S
C1362 C1363 1.397 . S
C1362 C1367 1.363 . S
C1363 H1334 0.950 . S
C1363 C1362 1.397 . S
C1363 C1364 1.334 . S
C1364 H1335 0.950 . S
C1364 C1363 1.334 . S
C1364 C1365 1.287 . S
C1365 C1364 1.287 . S
C1365 C1366 1.524 . S
C1365 H1368 0.999 . S
C1366 H1336 0.950 . S
C1366 C1365 1.524 . S
C1366 C1367 1.415 . S
C1367 H1337 0.950 . S
C1367 C1362 1.363 . S
C1367 C1366 1.415 . S
H1368 C1365 0.999 . S
H1369 C1350 0.913 . S
H1370 C1388 0.951 . S
H1371 C1390 0.951 . S
H1372 C1392 0.950 . S
H1373 C1393 0.950 . S
H1374 C1395 0.950 . S
H1375 C1398 0.950 . S
H1376 C1399 0.950 . S
H1377 C1401 0.950 . S
H1378 C1402 0.950 . S
H1379 C1403 0.951 . S
H1380 C1405 0.951 . S
H1381 C1407 0.950 . S
H1382 C1408 0.950 . S
H1383 C1410 0.950 . S
H1384 C1413 0.950 . S
H1385 C1414 0.950 . S
H1386 C1416 0.950 . S
H1387 C1417 0.950 . S
C1388 H1370 0.951 . S
C1388 C1389 1.366 . S
C1388 C1390 1.388 . S
C1389 C1388 1.366 . S
C1389 C1393 1.385 . S
C1390 H1371 0.951 . S
C1390 C1388 1.388 . S
C1390 C1391 1.366 . S
C1391 C1390 1.366 . S
C1391 C1392 1.414 . S
C1391 C1394 1.499 . S
C1392 H1372 0.950 . S
C1392 C1391 1.414 . S
C1392 C1393 1.374 . S
C1393 H1373 0.950 . S
C1393 C1389 1.385 . S
C1393 C1392 1.374 . S
C1394 C1391 1.499 . S
C1394 C1395 1.373 . S
C1394 C1396 1.389 . S
C1395 H1374 0.950 . S
C1395 C1394 1.373 . S
C1395 C1411 1.377 . S
C1396 C1394 1.389 . S
C1396 C1397 1.524 . S
C1396 C1410 1.377 . S
C1397 C1396 1.524 . S
C1397 C1398 1.397 . S
C1397 C1402 1.363 . S
C1398 H1375 0.950 . S
C1398 C1397 1.397 . S
C1398 C1399 1.334 . S
C1399 H1376 0.950 . S
C1399 C1398 1.334 . S
C1399 C1400 1.287 . S
C1400 C1399 1.287 . S
C1400 C1401 1.524 . S
C1400 H1419 0.913 . S
C1401 H1377 0.950 . S
C1401 C1400 1.524 . S
C1401 C1402 1.415 . S
C1402 H1378 0.950 . S
C1402 C1397 1.363 . S
C1402 C1401 1.415 . S
C1403 H1379 0.951 . S
C1403 C1404 1.366 . S
C1403 C1405 1.388 . S
C1404 C1403 1.366 . S
C1404 C1408 1.385 . S
C1405 H1380 0.951 . S
C1405 C1403 1.388 . S
C1405 C1406 1.366 . S
C1406 C1405 1.366 . S
C1406 C1407 1.414 . S
C1406 C1409 1.499 . S
C1407 H1381 0.950 . S
C1407 C1406 1.414 . S
C1407 C1408 1.374 . S
C1408 H1382 0.950 . S
C1408 C1404 1.385 . S
C1408 C1407 1.374 . S
C1409 C1406 1.499 . S
C1409 C1410 1.373 . S
C1409 C1411 1.389 . S
C1410 H1383 0.950 . S
C1410 C1396 1.377 . S
C1410 C1409 1.373 . S
C1411 C1395 1.377 . S
C1411 C1409 1.389 . S
C1411 C1412 1.524 . S
C1412 C1411 1.524 . S
C1412 C1413 1.397 . S
C1412 C1417 1.363 . S
C1413 H1384 0.950 . S
C1413 C1412 1.397 . S
C1413 C1414 1.334 . S
C1414 H1385 0.950 . S
C1414 C1413 1.334 . S
C1414 C1415 1.287 . S
C1415 C1414 1.287 . S
C1415 C1416 1.524 . S
C1415 H1418 0.999 . S
C1416 H1386 0.950 . S
C1416 C1415 1.524 . S
C1416 C1417 1.415 . S
C1417 H1387 0.950 . S
C1417 C1412 1.363 . S
C1417 C1416 1.415 . S
H1418 C1415 0.999 . S
H1419 C1400 0.913 . S
H1420 C1438 0.951 . S
H1421 C1440 0.951 . S
H1422 C1442 0.950 . S
H1423 C1443 0.950 . S
H1424 C1445 0.950 . S
H1425 C1448 0.950 . S
H1426 C1449 0.950 . S
H1427 C1451 0.950 . S
H1428 C1452 0.950 . S
H1429 C1453 0.951 . S
H1430 C1455 0.951 . S
H1431 C1457 0.950 . S
H1432 C1458 0.950 . S
H1433 C1460 0.950 . S
H1434 C1463 0.950 . S
H1435 C1464 0.950 . S
H1436 C1466 0.950 . S
H1437 C1467 0.950 . S
C1438 H1420 0.951 . S
C1438 C1439 1.366 . S
C1438 C1440 1.388 . S
C1439 C1438 1.366 . S
C1439 C1443 1.385 . S
C1440 H1421 0.951 . S
C1440 C1438 1.388 . S
C1440 C1441 1.366 . S
C1441 C1440 1.366 . S
C1441 C1442 1.414 . S
C1441 C1444 1.499 . S
C1442 H1422 0.950 . S
C1442 C1441 1.414 . S
C1442 C1443 1.374 . S
C1443 H1423 0.950 . S
C1443 C1439 1.385 . S
C1443 C1442 1.374 . S
C1444 C1441 1.499 . S
C1444 C1445 1.373 . S
C1444 C1446 1.389 . S
C1445 H1424 0.950 . S
C1445 C1444 1.373 . S
C1445 C1461 1.377 . S
C1446 C1444 1.389 . S
C1446 C1447 1.524 . S
C1446 C1460 1.377 . S
C1447 C1446 1.524 . S
C1447 C1448 1.397 . S
C1447 C1452 1.363 . S
C1448 H1425 0.950 . S
C1448 C1447 1.397 . S
C1448 C1449 1.334 . S
C1449 H1426 0.950 . S
C1449 C1448 1.334 . S
C1449 C1450 1.287 . S
C1450 C1449 1.287 . S
C1450 C1451 1.524 . S
C1450 H1469 0.913 . S
C1451 H1427 0.950 . S
C1451 C1450 1.524 . S
C1451 C1452 1.415 . S
C1452 H1428 0.950 . S
C1452 C1447 1.363 . S
C1452 C1451 1.415 . S
C1453 H1429 0.951 . S
C1453 C1454 1.366 . S
C1453 C1455 1.388 . S
C1454 C1453 1.366 . S
C1454 C1458 1.385 . S
C1455 H1430 0.951 . S
C1455 C1453 1.388 . S
C1455 C1456 1.366 . S
C1456 C1455 1.366 . S
C1456 C1457 1.414 . S
C1456 C1459 1.499 . S
C1457 H1431 0.950 . S
C1457 C1456 1.414 . S
C1457 C1458 1.374 . S
C1458 H1432 0.950 . S
C1458 C1454 1.385 . S
C1458 C1457 1.374 . S
C1459 C1456 1.499 . S
C1459 C1460 1.373 . S
C1459 C1461 1.389 . S
C1460 H1433 0.950 . S
C1460 C1446 1.377 . S
C1460 C1459 1.373 . S
C1461 C1445 1.377 . S
C1461 C1459 1.389 . S
C1461 C1462 1.524 . S
C1462 C1461 1.524 . S
C1462 C1463 1.397 . S
C1462 C1467 1.363 . S
C1463 H1434 0.950 . S
C1463 C1462 1.397 . S
C1463 C1464 1.334 . S
C1464 H1435 0.950 . S
C1464 C1463 1.334 . S
C1464 C1465 1.287 . S
C1465 C1464 1.287 . S
C1465 C1466 1.524 . S
C1465 H1468 0.999 . S
C1466 H1436 0.950 . S
C1466 C1465 1.524 . S
C1466 C1467 1.415 . S
C1467 H1437 0.950 . S
C1467 C1462 1.363 . S
C1467 C1466 1.415 . S
H1468 C1465 0.999 . S
H1469 C1450 0.913 . S
H1470 C1488 0.951 . S
H1471 C1490 0.951 . S
H1472 C1492 0.950 . S
H1473 C1493 0.950 . S
H1474 C1495 0.950 . S
H1475 C1498 0.950 . S
H1476 C1499 0.950 . S
H1477 C1501 0.950 . S
H1478 C1502 0.950 1_554 S
H1479 C1503 0.951 . S
H1480 C1505 0.951 . S
H1481 C1507 0.950 . S
H1482 C1508 0.950 . S
H1483 C1510 0.950 . S
H1484 C1513 0.950 . S
H1485 C1514 0.950 . S
H1486 C1516 0.950 . S
H1487 C1517 0.950 1_556 S
C1488 H1470 0.951 . S
C1488 C1489 1.366 . S
C1488 C1490 1.388 . S
C1489 C1488 1.366 . S
C1489 C1493 1.385 . S
C1490 H1471 0.951 . S
C1490 C1488 1.388 . S
C1490 C1491 1.366 . S
C1491 C1490 1.366 . S
C1491 C1492 1.414 . S
C1491 C1494 1.499 . S
C1492 H1472 0.950 . S
C1492 C1491 1.414 . S
C1492 C1493 1.374 . S
C1493 H1473 0.950 . S
C1493 C1489 1.385 . S
C1493 C1492 1.374 . S
C1494 C1491 1.499 . S
C1494 C1495 1.373 . S
C1494 C1496 1.389 1_655 S
C1495 H1474 0.950 . S
C1495 C1494 1.373 . S
C1495 C1511 1.377 1_556 S
C1496 C1494 1.389 1_455 S
C1496 C1497 1.524 . S
C1496 C1510 1.377 1_556 S
C1497 C1496 1.524 . S
C1497 C1498 1.397 . S
C1497 C1502 1.363 . S
C1498 H1475 0.950 . S
C1498 C1497 1.397 . S
C1498 C1499 1.334 . S
C1499 H1476 0.950 . S
C1499 C1498 1.334 . S
C1499 C1500 1.287 . S
C1500 C1499 1.287 . S
C1500 C1501 1.524 . S
C1500 H1519 0.913 . S
C1501 H1477 0.950 . S
C1501 C1500 1.524 . S
C1501 C1502 1.415 . S
C1502 H1478 0.950 1_556 S
C1502 C1497 1.363 . S
C1502 C1501 1.415 . S
C1503 H1479 0.951 . S
C1503 C1504 1.366 . S
C1503 C1505 1.388 . S
C1504 C1503 1.366 . S
C1504 C1508 1.385 . S
C1505 H1480 0.951 . S
C1505 C1503 1.388 . S
C1505 C1506 1.366 . S
C1506 C1505 1.366 . S
C1506 C1507 1.414 . S
C1506 C1509 1.499 . S
C1507 H1481 0.950 . S
C1507 C1506 1.414 . S
C1507 C1508 1.374 . S
C1508 H1482 0.950 . S
C1508 C1504 1.385 . S
C1508 C1507 1.374 . S
C1509 C1506 1.499 . S
C1509 C1510 1.373 . S
C1509 C1511 1.389 1_455 S
C1510 H1483 0.950 . S
C1510 C1496 1.377 1_554 S
C1510 C1509 1.373 . S
C1511 C1495 1.377 1_554 S
C1511 C1509 1.389 1_655 S
C1511 C1512 1.524 . S
C1512 C1511 1.524 . S
C1512 C1513 1.397 . S
C1512 C1517 1.363 . S
C1513 H1484 0.950 . S
C1513 C1512 1.397 . S
C1513 C1514 1.334 . S
C1514 H1485 0.950 . S
C1514 C1513 1.334 . S
C1514 C1515 1.287 . S
C1515 C1514 1.287 . S
C1515 C1516 1.524 . S
C1515 H1518 0.999 . S
C1516 H1486 0.950 . S
C1516 C1515 1.524 . S
C1516 C1517 1.415 . S
C1517 H1487 0.950 1_554 S
C1517 C1512 1.363 . S
C1517 C1516 1.415 . S
H1518 C1515 0.999 . S
H1519 C1500 0.913 . S
C339 C2 2.107 . S
C354 C122 2.101 . S
C389 C10 1.505 . S
C404 C42 1.519 . S
C439 C50 0.831 . S
C454 C90 0.833 . S
C489 C82 1.519 . S
C504 C130 1.501 . S
C539 C11 2.107 . S
C554 C211 2.114 . S
C589 C19 1.505 . S
C604 C171 1.519 . S
C639 C179 0.831 . S
C654 C99 0.827 . S
C689 C219 1.505 . S
C704 C91 1.523 . S
C739 C242 2.108 . S
C754 C202 2.109 . S
C789 C162 1.520 . S
C804 C250 1.504 . S
C839 C290 0.830 . S
C854 C170 0.832 . S
C889 C210 1.505 . S
C904 C282 1.522 . S
C939 C131 2.108 . S
C954 C251 2.106 . S
C989 C259 1.505 . S
C1004 C51 1.521 . S
C1039 C59 0.831 . S
C1054 C299 0.829 . S
C1089 C139 1.505 . S
C1104 C291 1.516 . S
C1139 C16 1.544 . S
C1154 C7 1.544 . S
C1189 C47 1.508 . S
C1204 C56 1.508 . S
C1239 C96 1.507 . S
C1254 C87 1.507 . S
C1289 C136 1.545 . S
C1304 C127 1.545 . S
C1339 C167 1.507 . S
C1354 C176 1.507 . S
C1389 C216 1.545 . S
C1404 C207 1.545 . S
C1439 C247 1.545 . S
C1454 C256 1.545 . S
C1489 C287 1.508 . S
C1504 C296 1.508 . S
