# Generated by pormake.
# Topology unb, (4)-cn, num edge types: 1
# Building blocks:
#     Node 0, Type 0, BuildingBlock: CEKHIL_clean_sbu_0, # of connection points: 4
#     Node 1, Type 0, BuildingBlock: CEKHIL_clean_sbu_0, # of connection points: 4
#     Node 2, Type 0, BuildingBlock: CEKHIL_clean_sbu_0, # of connection points: 4
#     Node 3, Type 0, BuildingBlock: CEKHIL_clean_sbu_0, # of connection points: 4
#     Node 4, Type 0, BuildingBlock: CEKHIL_clean_sbu_0, # of connection points: 4
#     Node 5, Type 0, BuildingBlock: CEKHIL_clean_sbu_0, # of connection points: 4
#     Node 6, Type 0, BuildingBlock: CEKHIL_clean_sbu_0, # of connection points: 4
#     Node 7, Type 0, BuildingBlock: CEKHIL_clean_sbu_0, # of connection points: 4
#     Node 8, Type 0, BuildingBlock: CEKHIL_clean_sbu_0, # of connection points: 4
#     Node 9, Type 0, BuildingBlock: CEKHIL_clean_sbu_0, # of connection points: 4
#     Node 10, Type 0, BuildingBlock: CEKHIL_clean_sbu_0, # of connection points: 4
#     Node 11, Type 0, BuildingBlock: CEKHIL_clean_sbu_0, # of connection points: 4
#     Node 12, Type 0, BuildingBlock: CEKHIL_clean_sbu_0, # of connection points: 4
#     Node 13, Type 0, BuildingBlock: CEKHIL_clean_sbu_0, # of connection points: 4
#     Node 14, Type 0, BuildingBlock: CEKHIL_clean_sbu_0, # of connection points: 4
#     Node 15, Type 0, BuildingBlock: CEKHIL_clean_sbu_0, # of connection points: 4
#     Node 16, Type 0, BuildingBlock: CEKHIL_clean_sbu_0, # of connection points: 4
#     Node 17, Type 0, BuildingBlock: CEKHIL_clean_sbu_0, # of connection points: 4
#     Edge 18, Type (0, 0), BuildingBlock: MIFKUJ_clean_linker_0, # of connection points: 2
#     Edge 19, Type (0, 0), BuildingBlock: MIFKUJ_clean_linker_0, # of connection points: 2
#     Edge 20, Type (0, 0), BuildingBlock: MIFKUJ_clean_linker_0, # of connection points: 2
#     Edge 21, Type (0, 0), BuildingBlock: MIFKUJ_clean_linker_0, # of connection points: 2
#     Edge 22, Type (0, 0), BuildingBlock: MIFKUJ_clean_linker_0, # of connection points: 2
#     Edge 23, Type (0, 0), BuildingBlock: MIFKUJ_clean_linker_0, # of connection points: 2
#     Edge 24, Type (0, 0), BuildingBlock: MIFKUJ_clean_linker_0, # of connection points: 2
#     Edge 25, Type (0, 0), BuildingBlock: MIFKUJ_clean_linker_0, # of connection points: 2
#     Edge 26, Type (0, 0), BuildingBlock: MIFKUJ_clean_linker_0, # of connection points: 2
#     Edge 27, Type (0, 0), BuildingBlock: MIFKUJ_clean_linker_0, # of connection points: 2
#     Edge 28, Type (0, 0), BuildingBlock: MIFKUJ_clean_linker_0, # of connection points: 2
#     Edge 29, Type (0, 0), BuildingBlock: MIFKUJ_clean_linker_0, # of connection points: 2
#     Edge 30, Type (0, 0), BuildingBlock: MIFKUJ_clean_linker_0, # of connection points: 2
#     Edge 31, Type (0, 0), BuildingBlock: MIFKUJ_clean_linker_0, # of connection points: 2
#     Edge 32, Type (0, 0), BuildingBlock: MIFKUJ_clean_linker_0, # of connection points: 2
#     Edge 33, Type (0, 0), BuildingBlock: MIFKUJ_clean_linker_0, # of connection points: 2
#     Edge 34, Type (0, 0), BuildingBlock: MIFKUJ_clean_linker_0, # of connection points: 2
#     Edge 35, Type (0, 0), BuildingBlock: MIFKUJ_clean_linker_0, # of connection points: 2
#     Edge 36, Type (0, 0), BuildingBlock: MIFKUJ_clean_linker_0, # of connection points: 2
#     Edge 37, Type (0, 0), BuildingBlock: MIFKUJ_clean_linker_0, # of connection points: 2
#     Edge 38, Type (0, 0), BuildingBlock: MIFKUJ_clean_linker_0, # of connection points: 2
#     Edge 39, Type (0, 0), BuildingBlock: MIFKUJ_clean_linker_0, # of connection points: 2
#     Edge 40, Type (0, 0), BuildingBlock: MIFKUJ_clean_linker_0, # of connection points: 2
#     Edge 41, Type (0, 0), BuildingBlock: MIFKUJ_clean_linker_0, # of connection points: 2
#     Edge 42, Type (0, 0), BuildingBlock: MIFKUJ_clean_linker_0, # of connection points: 2
#     Edge 43, Type (0, 0), BuildingBlock: MIFKUJ_clean_linker_0, # of connection points: 2
#     Edge 44, Type (0, 0), BuildingBlock: MIFKUJ_clean_linker_0, # of connection points: 2
#     Edge 45, Type (0, 0), BuildingBlock: MIFKUJ_clean_linker_0, # of connection points: 2
#     Edge 46, Type (0, 0), BuildingBlock: MIFKUJ_clean_linker_0, # of connection points: 2
#     Edge 47, Type (0, 0), BuildingBlock: MIFKUJ_clean_linker_0, # of connection points: 2
#     Edge 48, Type (0, 0), BuildingBlock: MIFKUJ_clean_linker_0, # of connection points: 2
#     Edge 49, Type (0, 0), BuildingBlock: MIFKUJ_clean_linker_0, # of connection points: 2
#     Edge 50, Type (0, 0), BuildingBlock: MIFKUJ_clean_linker_0, # of connection points: 2
#     Edge 51, Type (0, 0), BuildingBlock: MIFKUJ_clean_linker_0, # of connection points: 2
#     Edge 52, Type (0, 0), BuildingBlock: MIFKUJ_clean_linker_0, # of connection points: 2
#     Edge 53, Type (0, 0), BuildingBlock: MIFKUJ_clean_linker_0, # of connection points: 2
# Relax obj value: 0.115
# Max RMSD: 0.095
# Mean RMSD: 0.095
data_MOF--net-unb--node1-CEKHIL_clean_sbu_0--edge1-MIFKUJ_clean_linker_0
_symmetry_space_group_name_H-M    P1
_symmetry_Int_Tables_number       1
_symmetry_cell_setting            triclinic
loop_
_symmetry_equiv_pos_as_xyz
'x, y, z'
_cell_length_a     81.018613
_cell_length_b     81.141578
_cell_length_c     33.150889
_cell_angle_alpha  89.878497
_cell_angle_beta   90.040561
_cell_angle_gamma 119.96932
loop_
_atom_site_label
_atom_site_type_symbol
_atom_site_fract_x
_atom_site_fract_y
_atom_site_fract_z
_atom_type_partial_charge
Co0 Co 0.14168 0.2716 0.09361 0.0
O1 O 0.11817 0.2726 0.09578 0.0
O2 O 0.12116 0.24949 0.06796 0.0
C3 C 0.15081 0.28109 0.15821 0.0
O4 O 0.16227 0.26421 0.08519 0.0
Co5 Co 0.18206 0.3063 0.10613 0.0
O6 O 0.19185 0.2888 0.0942 0.0
C7 C 0.16 0.30343 0.0332 0.0
C8 C 0.11034 0.25662 0.07604 0.0
C9 C 0.18052 0.27149 0.085 0.0
O10 O 0.14841 0.28573 0.04068 0.0
O11 O 0.17295 0.31446 0.05792 0.0
O12 O 0.1383 0.26341 0.15057 0.0
O13 O 0.15641 0.29235 0.12764 0.0
Co14 Co 0.75142 0.87355 0.09108 0.0
O15 O 0.75072 0.84929 0.0938 0.0
O16 O 0.7754 0.87623 0.07312 0.0
C17 C 0.73731 0.87069 0.15237 0.0
O18 O 0.7584 0.90147 0.08328 0.0
Co19 Co 0.71512 0.87729 0.09302 0.0
O20 O 0.73256 0.90491 0.08471 0.0
C21 C 0.72289 0.8589 0.02496 0.0
C22 C 0.76791 0.85805 0.07913 0.0
C23 C 0.75044 0.91179 0.08019 0.0
O24 O 0.74062 0.86699 0.03479 0.0
O25 O 0.71022 0.85934 0.0472 0.0
O26 O 0.75558 0.87706 0.1502 0.0
O27 O 0.72852 0.86592 0.11843 0.0
Co28 Co 0.15013 0.88253 0.09321 0.0
O29 O 0.17458 0.90593 0.09572 0.0
O30 O 0.14771 0.90394 0.07521 0.0
C31 C 0.15309 0.8712 0.15431 0.0
O32 O 0.12207 0.86193 0.08582 0.0
Co33 Co 0.14537 0.84224 0.09492 0.0
O34 O 0.11755 0.83237 0.09036 0.0
C35 C 0.16362 0.86805 0.02598 0.0
C36 C 0.16594 0.91448 0.081 0.0
C37 C 0.11113 0.84369 0.08481 0.0
O38 O 0.15627 0.87822 0.03674 0.0
O39 O 0.16285 0.85464 0.04775 0.0
O40 O 0.14684 0.8832 0.15234 0.0
O41 O 0.1576 0.86703 0.12024 0.0
Co42 Co 0.27613 0.13809 0.90971 0.0
O43 O 0.27901 0.11565 0.90911 0.0
O44 O 0.25347 0.11621 0.93045 0.0
C45 C 0.2883 0.14871 0.84687 0.0
O46 O 0.26681 0.15728 0.9162 0.0
Co47 Co 0.30929 0.17977 0.90191 0.0
O48 O 0.2896 0.18746 0.90452 0.0
C49 C 0.30566 0.15627 0.97335 0.0
C50 C 0.26201 0.10649 0.92477 0.0
C51 C 0.27249 0.1752 0.91358 0.0
O52 O 0.28808 0.14456 0.96488 0.0
O53 O 0.31685 0.16976 0.94971 0.0
O54 O 0.27058 0.13541 0.85118 0.0
O55 O 0.29795 0.15437 0.87973 0.0
Co56 Co 0.88449 0.14266 0.91142 0.0
O57 O 0.90763 0.16745 0.91046 0.0
O58 O 0.90584 0.14088 0.93222 0.0
C59 C 0.87445 0.14559 0.84883 0.0
O60 O 0.86447 0.11436 0.91782 0.0
Co61 Co 0.84339 0.13561 0.90354 0.0
O62 O 0.83462 0.10805 0.90639 0.0
C63 C 0.86653 0.15385 0.97647 0.0
C64 C 0.9162 0.15909 0.92649 0.0
C65 C 0.84641 0.10259 0.91536 0.0
O66 O 0.87849 0.14843 0.96679 0.0
O67 O 0.85296 0.15171 0.95326 0.0
O68 O 0.88676 0.13978 0.8526 0.0
O69 O 0.86902 0.14944 0.88211 0.0
Co70 Co 0.88204 0.74751 0.9102 0.0
O71 O 0.8573 0.74599 0.91017 0.0
O72 O 0.88423 0.77104 0.92943 0.0
C73 C 0.87897 0.73394 0.84821 0.0
O74 O 0.91031 0.75535 0.91539 0.0
Co75 Co 0.88707 0.71203 0.90586 0.0
O76 O 0.91476 0.73022 0.91144 0.0
C77 C 0.87026 0.7193 0.97746 0.0
C78 C 0.86591 0.76314 0.92482 0.0
C79 C 0.9212 0.74796 0.91662 0.0
O80 O 0.877 0.73675 0.96663 0.0
O81 O 0.87063 0.70671 0.95492 0.0
O82 O 0.88442 0.75197 0.85113 0.0
O83 O 0.87481 0.7249 0.88194 0.0
Co84 Co 0.80976 0.60523 0.42944 0.0
O85 O 0.78745 0.60848 0.42779 0.0
O86 O 0.78855 0.58361 0.40438 0.0
C87 C 0.81783 0.61519 0.4943 0.0
O88 O 0.82839 0.59521 0.42425 0.0
Co89 Co 0.85145 0.63581 0.44624 0.0
O90 O 0.85804 0.61531 0.44528 0.0
C91 C 0.83318 0.63503 0.3677 0.0
C92 C 0.77866 0.59196 0.41011 0.0
C93 C 0.84565 0.59926 0.43123 0.0
O94 O 0.81861 0.61869 0.37598 0.0
O95 O 0.84665 0.64445 0.39291 0.0
O96 O 0.80466 0.59776 0.48668 0.0
O97 O 0.82529 0.62598 0.46335 0.0
Co98 Co 0.41753 0.20902 0.42516 0.0
O99 O 0.41639 0.18454 0.42555 0.0
O100 O 0.44075 0.21131 0.40323 0.0
C101 C 0.40525 0.20597 0.48841 0.0
O102 O 0.42509 0.23715 0.41913 0.0
Co103 Co 0.38249 0.21425 0.43403 0.0
O104 O 0.40023 0.24185 0.42656 0.0
C105 C 0.38779 0.19682 0.36075 0.0
C106 C 0.43315 0.1931 0.40881 0.0
C107 C 0.4178 0.2481 0.41914 0.0
O108 O 0.40536 0.20301 0.37009 0.0
O109 O 0.37603 0.19811 0.38446 0.0
O110 O 0.42339 0.21222 0.48359 0.0
O111 O 0.3954 0.20154 0.45577 0.0
Co112 Co 0.81475 0.21368 0.42591 0.0
O113 O 0.83937 0.23693 0.42891 0.0
O114 O 0.813 0.23502 0.40509 0.0
C115 C 0.81618 0.2026 0.48839 0.0
O116 O 0.78664 0.19338 0.41759 0.0
Co117 Co 0.80919 0.17299 0.43125 0.0
O118 O 0.78162 0.16368 0.42397 0.0
C119 C 0.82896 0.1981 0.36221 0.0
C120 C 0.83113 0.24545 0.41211 0.0
C121 C 0.77554 0.17517 0.41692 0.0
O122 O 0.82162 0.20854 0.37077 0.0
O123 O 0.82755 0.18481 0.38535 0.0
O124 O 0.81074 0.21518 0.48452 0.0
O125 O 0.82114 0.19801 0.45542 0.0
Co126 Co 0.94299 0.47005 0.24516 0.0
O127 O 0.94563 0.44747 0.24625 0.0
O128 O 0.91992 0.44833 0.26486 0.0
C129 C 0.95662 0.48017 0.18311 0.0
O130 O 0.93369 0.48936 0.24935 0.0
Co131 Co 0.97597 0.51173 0.23679 0.0
O132 O 0.95629 0.51935 0.23592 0.0
C133 C 0.9695 0.49063 0.31406 0.0
C134 C 0.92841 0.43846 0.26083 0.0
C135 C 0.93922 0.50719 0.24534 0.0
O136 O 0.95372 0.47655 0.30143 0.0
O137 O 0.98059 0.50493 0.29212 0.0
O138 O 0.93864 0.46735 0.18614 0.0
O139 O 0.9655 0.48603 0.21681 0.0
Co140 Co 0.55359 0.47754 0.24421 0.0
O141 O 0.57646 0.50241 0.243 0.0
O142 O 0.57535 0.47589 0.26308 0.0
C143 C 0.54286 0.48052 0.18252 0.0
O144 O 0.53355 0.44923 0.25072 0.0
Co145 Co 0.51255 0.47113 0.23921 0.0
O146 O 0.50367 0.44356 0.24257 0.0
C147 C 0.53743 0.49013 0.30931 0.0
C148 C 0.5854 0.49418 0.25779 0.0
C149 C 0.51537 0.43776 0.2498 0.0
O150 O 0.54819 0.48322 0.30016 0.0
O151 O 0.52405 0.4887 0.28638 0.0
O152 O 0.55524 0.47475 0.18513 0.0
O153 O 0.53787 0.48439 0.21632 0.0
Co154 Co 0.54586 0.07993 0.24603 0.0
O155 O 0.52085 0.07786 0.24753 0.0
O156 O 0.54742 0.10265 0.26905 0.0
C157 C 0.54208 0.06753 0.18271 0.0
O158 O 0.57434 0.08839 0.25006 0.0
Co159 Co 0.55276 0.04586 0.23383 0.0
O160 O 0.5803 0.06464 0.2382 0.0
C161 C 0.53533 0.04994 0.30849 0.0
C162 C 0.52909 0.09457 0.26427 0.0
C163 C 0.58596 0.0819 0.24733 0.0
O164 O 0.54113 0.06757 0.30075 0.0
O165 O 0.5365 0.03859 0.28344 0.0
O166 O 0.54783 0.08557 0.18723 0.0
O167 O 0.53885 0.05808 0.21559 0.0
Co168 Co 0.47525 0.93726 0.76288 0.0
O169 O 0.45224 0.93921 0.76264 0.0
O170 O 0.45386 0.91426 0.74177 0.0
C171 C 0.4852 0.94993 0.82569 0.0
O172 O 0.49532 0.92887 0.75748 0.0
Co173 Co 0.51641 0.97171 0.77208 0.0
O174 O 0.52515 0.95302 0.76662 0.0
C175 C 0.4939 0.96651 0.69798 0.0
C176 C 0.44359 0.92228 0.74685 0.0
C177 C 0.51352 0.93564 0.75852 0.0
O178 O 0.48184 0.94914 0.70747 0.0
O179 O 0.50703 0.97799 0.72185 0.0
O180 O 0.47246 0.93199 0.82181 0.0
O181 O 0.49068 0.95928 0.79251 0.0
Co182 Co 0.08606 0.53957 0.76025 0.0
O183 O 0.08409 0.51468 0.76096 0.0
O184 O 0.10965 0.54139 0.74245 0.0
C185 C 0.07176 0.53631 0.8214 0.0
O186 O 0.09458 0.56797 0.75459 0.0
Co187 Co 0.05161 0.54636 0.76408 0.0
O188 O 0.07053 0.57385 0.76278 0.0
C189 C 0.06027 0.53241 0.68888 0.0
C190 C 0.10143 0.52307 0.74708 0.0
C191 C 0.08801 0.57955 0.7557 0.0
O192 O 0.07604 0.53477 0.70335 0.0
O193 O 0.04833 0.53507 0.70901 0.0
O194 O 0.08986 0.5418 0.81939 0.0
O195 O 0.06312 0.5326 0.78725 0.0
Co196 Co 0.48268 0.54768 0.75819 0.0
O197 O 0.50738 0.5709 0.76008 0.0
O198 O 0.48089 0.56895 0.73709 0.0
C199 C 0.48446 0.53705 0.82092 0.0
O200 O 0.45451 0.52743 0.75072 0.0
Co201 Co 0.47665 0.50682 0.76538 0.0
O202 O 0.4491 0.49769 0.75916 0.0
C203 C 0.49543 0.53074 0.69389 0.0
C204 C 0.49906 0.5794 0.74352 0.0
C205 C 0.44321 0.50925 0.75119 0.0
O206 O 0.48916 0.54204 0.70312 0.0
O207 O 0.49368 0.51734 0.71714 0.0
O208 O 0.47905 0.54964 0.81679 0.0
O209 O 0.48916 0.53215 0.78801 0.0
Co210 Co 0.6104 0.80456 0.57621 0.0
O211 O 0.61225 0.78153 0.57411 0.0
O212 O 0.58784 0.78329 0.59888 0.0
C213 C 0.62213 0.81497 0.5129 0.0
O214 O 0.60194 0.82438 0.58398 0.0
Co215 Co 0.64431 0.84577 0.56745 0.0
O216 O 0.62537 0.8543 0.57297 0.0
C217 C 0.6405 0.82275 0.63984 0.0
C218 C 0.59572 0.77305 0.5919 0.0
C219 C 0.60818 0.84243 0.58229 0.0
O220 O 0.62307 0.81072 0.63078 0.0
O221 O 0.65163 0.83634 0.61637 0.0
O222 O 0.60424 0.80218 0.51778 0.0
O223 O 0.63201 0.82029 0.54545 0.0
Co224 Co 0.21829 0.80882 0.57882 0.0
O225 O 0.24106 0.83393 0.57805 0.0
O226 O 0.23996 0.8077 0.60003 0.0
C227 C 0.20805 0.81075 0.51565 0.0
O228 O 0.19866 0.78033 0.58553 0.0
Co229 Co 0.17683 0.801 0.56977 0.0
O230 O 0.16857 0.77369 0.57562 0.0
C231 C 0.19979 0.82014 0.64235 0.0
C232 C 0.24998 0.82593 0.59412 0.0
C233 C 0.18057 0.76845 0.58429 0.0
O234 O 0.21183 0.81466 0.63382 0.0
O235 O 0.18637 0.81776 0.61842 0.0
O236 O 0.22099 0.80583 0.52022 0.0
O237 O 0.20244 0.81478 0.54846 0.0
Co238 Co 0.21443 0.41201 0.57589 0.0
O239 O 0.18932 0.40965 0.57622 0.0
O240 O 0.21592 0.43515 0.59547 0.0
C241 C 0.21162 0.39872 0.51381 0.0
O242 O 0.24292 0.42077 0.58087 0.0
Co243 Co 0.22146 0.37781 0.56989 0.0
O244 O 0.24897 0.39682 0.57334 0.0
C245 C 0.20323 0.38337 0.64167 0.0
C246 C 0.19757 0.42678 0.59101 0.0
C247 C 0.25457 0.41429 0.58002 0.0
O248 O 0.20947 0.40088 0.63195 0.0
O249 O 0.20467 0.37153 0.61855 0.0
O250 O 0.21662 0.41664 0.51685 0.0
O251 O 0.20791 0.38968 0.54745 0.0
H252 H 0.20623 0.36323 0.50442 0.0
H253 H 0.19683 0.34366 0.44416 0.0
H254 H 0.1995 0.39001 0.375 0.0
H255 H 0.20917 0.40999 0.43602 0.0
H256 H 0.1655 0.33123 0.40161 0.0
H257 H 0.20956 0.3841 0.27513 0.0
H258 H 0.24057 0.41345 0.26614 0.0
H259 H 0.26337 0.3981 0.3671 0.0
H260 H 0.2326 0.36857 0.37634 0.0
H261 H 0.12883 0.2867 0.21162 0.0
H262 H 0.1397 0.30713 0.27128 0.0
H263 H 0.19612 0.31503 0.2556 0.0
H264 H 0.18539 0.29562 0.19423 0.0
H265 H 0.20043 0.34707 0.27169 0.0
H266 H 0.16182 0.28597 0.33537 0.0
H267 H 0.1326 0.25519 0.34722 0.0
H268 H 0.10216 0.2842 0.37739 0.0
H269 H 0.13115 0.31515 0.36531 0.0
C270 C 0.20507 0.36945 0.47639 0.0
C271 C 0.20843 0.38823 0.47517 0.0
C272 C 0.19956 0.35813 0.44186 0.0
C273 C 0.19728 0.3652 0.40493 0.0
C274 C 0.20124 0.3842 0.40308 0.0
C275 C 0.20682 0.39565 0.43793 0.0
C276 C 0.19012 0.35225 0.36921 0.0
C277 C 0.17313 0.33474 0.37314 0.0
C278 C 0.20012 0.3566 0.33217 0.0
C279 C 0.2187 0.37425 0.3267 0.0
C280 C 0.22121 0.38698 0.29534 0.0
C281 C 0.23874 0.40365 0.29021 0.0
C282 C 0.2539 0.40768 0.31613 0.0
C283 C 0.25159 0.39501 0.34716 0.0
C284 C 0.2341 0.37832 0.35239 0.0
C285 C 0.14338 0.29234 0.22176 0.0
C286 C 0.15614 0.28913 0.19918 0.0
C287 C 0.14966 0.30411 0.25586 0.0
C288 C 0.16875 0.31254 0.26876 0.0
C289 C 0.18134 0.30879 0.2466 0.0
C290 C 0.17516 0.29744 0.21189 0.0
C291 C 0.17582 0.32586 0.3041 0.0
C292 C 0.19273 0.34352 0.30006 0.0
C293 C 0.16599 0.32145 0.34148 0.0
C294 C 0.14861 0.30286 0.34911 0.0
C295 C 0.14887 0.28577 0.34434 0.0
C296 C 0.13235 0.2683 0.35112 0.0
C297 C 0.11553 0.26774 0.36296 0.0
C298 C 0.1152 0.28466 0.36818 0.0
C299 C 0.13167 0.30217 0.36143 0.0
H300 H 0.10275 0.2542 0.36816 0.0
H301 H 0.26746 0.42059 0.31211 0.0
H302 H 0.65715 0.84547 0.5007 0.0
H303 H 0.67566 0.85565 0.43901 0.0
H304 H 0.6283 0.81161 0.37301 0.0
H305 H 0.60955 0.80092 0.43589 0.0
H306 H 0.66053 0.81219 0.35318 0.0
H307 H 0.64237 0.85948 0.361 0.0
H308 H 0.63754 0.88422 0.39261 0.0
H309 H 0.69772 0.9185 0.41337 0.0
H310 H 0.70289 0.89383 0.38238 0.0
H311 H 0.69899 0.84986 0.16048 0.0
H312 H 0.67991 0.84153 0.22162 0.0
H313 H 0.73069 0.87409 0.29242 0.0
H314 H 0.75027 0.88227 0.23057 0.0
H315 H 0.69672 0.8796 0.30872 0.0
H316 H 0.71405 0.83105 0.30044 0.0
H317 H 0.71791 0.80618 0.26651 0.0
H318 H 0.65773 0.77422 0.24371 0.0
H319 H 0.65355 0.79907 0.27697 0.0
C320 C 0.65044 0.83803 0.47307 0.0
C321 C 0.63177 0.82236 0.47335 0.0
C322 C 0.66111 0.84398 0.43758 0.0
C323 C 0.65342 0.8346 0.401 0.0
C324 C 0.63458 0.81915 0.40081 0.0
C325 C 0.62379 0.81314 0.43665 0.0
C326 C 0.66558 0.84052 0.36389 0.0
C327 C 0.66816 0.82688 0.34316 0.0
C328 C 0.67602 0.85979 0.35111 0.0
C329 C 0.673 0.87472 0.36965 0.0
C330 C 0.65456 0.87223 0.37257 0.0
C331 C 0.65177 0.88625 0.39034 0.0
C332 C 0.66731 0.9029 0.40507 0.0
C333 C 0.68569 0.90558 0.40197 0.0
C334 C 0.68857 0.89159 0.38426 0.0
C335 C 0.70625 0.85539 0.18892 0.0
C336 C 0.72625 0.86678 0.19052 0.0
C337 C 0.69523 0.85052 0.22394 0.0
C338 C 0.70383 0.85709 0.26162 0.0
C339 C 0.72377 0.86885 0.26357 0.0
C340 C 0.73494 0.8735 0.2283 0.0
C341 C 0.69168 0.8513 0.29852 0.0
C342 C 0.68907 0.86494 0.31898 0.0
C343 C 0.68107 0.83202 0.31079 0.0
C344 C 0.68352 0.81703 0.29083 0.0
C345 C 0.70166 0.81882 0.28784 0.0
C346 C 0.7039 0.8047 0.2688 0.0
C347 C 0.68808 0.78865 0.25286 0.0
C348 C 0.66998 0.78667 0.25602 0.0
C349 C 0.66766 0.80076 0.27499 0.0
H350 H 0.68984 0.77773 0.23815 0.0
H351 H 0.66512 0.91374 0.41882 0.0
H352 H 0.22314 0.8139 0.43916 0.0
H353 H 0.21299 0.82281 0.37673 0.0
H354 H 0.1671 0.82331 0.44155 0.0
H355 H 0.17687 0.81421 0.50305 0.0
H356 H 0.15466 0.80889 0.37048 0.0
H357 H 0.20948 0.86461 0.42081 0.0
H358 H 0.24265 0.88428 0.44404 0.0
H359 H 0.26309 0.87833 0.32859 0.0
H360 H 0.23 0.85838 0.30485 0.0
H361 H 0.13979 0.87028 0.23198 0.0
H362 H 0.14801 0.85869 0.29351 0.0
H363 H 0.185 0.84583 0.22366 0.0
H364 H 0.17659 0.85673 0.16273 0.0
H365 H 0.20173 0.86675 0.297 0.0
H366 H 0.14559 0.81077 0.24795 0.0
H367 H 0.11205 0.79241 0.22623 0.0
H368 H 0.0938 0.80071 0.34222 0.0
H369 H 0.12729 0.8194 0.36442 0.0
C370 C 0.21069 0.81557 0.4398 0.0
C371 C 0.20089 0.8134 0.47617 0.0
C372 C 0.20498 0.82084 0.40421 0.0
C373 C 0.1894 0.82406 0.4044 0.0
C374 C 0.17915 0.82099 0.44036 0.0
C375 C 0.18483 0.8158 0.47568 0.0
C376 C 0.18403 0.83129 0.36797 0.0
C377 C 0.16497 0.82165 0.35474 0.0
C378 C 0.19737 0.84792 0.34702 0.0
C379 C 0.21727 0.85981 0.36123 0.0
C380 C 0.22105 0.86735 0.4005 0.0
C381 C 0.23983 0.87858 0.41374 0.0
C382 C 0.25497 0.8825 0.38785 0.0
C383 C 0.25135 0.87524 0.34864 0.0
C384 C 0.23258 0.86398 0.33527 0.0
C385 C 0.14961 0.86492 0.22987 0.0
C386 C 0.15743 0.86436 0.19239 0.0
C387 C 0.1543 0.8583 0.26496 0.0
C388 C 0.16718 0.85141 0.26317 0.0
C389 C 0.17511 0.85111 0.22587 0.0
C390 C 0.17016 0.85729 0.19096 0.0
C391 C 0.17246 0.84433 0.29974 0.0
C392 C 0.19148 0.85401 0.3129 0.0
C393 C 0.15906 0.82791 0.32092 0.0
C394 C 0.13894 0.81668 0.30766 0.0
C395 C 0.13444 0.80885 0.26868 0.0
C396 C 0.11543 0.79835 0.25631 0.0
C397 C 0.10081 0.79545 0.28278 0.0
C398 C 0.10515 0.80301 0.32172 0.0
C399 C 0.12414 0.81355 0.33421 0.0
H400 H 0.0861 0.7873 0.27316 0.0
H401 H 0.2695 0.89121 0.39814 0.0
H402 H 0.37354 0.17302 0.50577 0.0
H403 H 0.35432 0.16411 0.56688 0.0
H404 H 0.3941 0.21799 0.62064 0.0
H405 H 0.41413 0.22651 0.55953 0.0
H406 H 0.38149 0.19165 0.67638 0.0
H407 H 0.34956 0.20809 0.57538 0.0
H408 H 0.33551 0.20641 0.50842 0.0
H409 H 0.29568 0.14704 0.5265 0.0
H410 H 0.30965 0.1483 0.59335 0.0
H411 H 0.31865 0.18356 0.8315 0.0
H412 H 0.33824 0.19432 0.7708 0.0
H413 H 0.30059 0.14081 0.71305 0.0
H414 H 0.28039 0.13027 0.77369 0.0
H415 H 0.31239 0.16816 0.6596 0.0
H416 H 0.34473 0.15146 0.75952 0.0
H417 H 0.35887 0.15286 0.82624 0.0
H418 H 0.39789 0.21256 0.81013 0.0
H419 H 0.38382 0.21157 0.74352 0.0
C420 C 0.37832 0.18292 0.53079 0.0
C421 C 0.39526 0.20052 0.52781 0.0
C422 C 0.36719 0.17788 0.56568 0.0
C423 C 0.37227 0.19061 0.59811 0.0
C424 C 0.38968 0.20796 0.59594 0.0
C425 C 0.40116 0.21284 0.56111 0.0
C426 C 0.35919 0.18573 0.63368 0.0
C427 C 0.36645 0.18683 0.67267 0.0
C428 C 0.33938 0.17896 0.62916 0.0
C429 C 0.33074 0.17827 0.58926 0.0
C430 C 0.33785 0.19466 0.565 0.0
C431 C 0.3299 0.19378 0.52707 0.0
C432 C 0.31473 0.17663 0.51319 0.0
C433 C 0.30743 0.16032 0.53728 0.0
C434 C 0.31534 0.16112 0.57521 0.0
C435 C 0.31433 0.17418 0.80564 0.0
C436 C 0.29798 0.15602 0.80746 0.0
C437 C 0.3257 0.18029 0.77099 0.0
C438 C 0.32135 0.1682 0.73756 0.0
C439 C 0.30443 0.15039 0.73849 0.0
C440 C 0.2928 0.14438 0.77308 0.0
C441 C 0.33467 0.17399 0.70226 0.0
C442 C 0.32744 0.17306 0.66332 0.0
C443 C 0.3545 0.18092 0.70685 0.0
C444 C 0.36311 0.18147 0.7467 0.0
C445 C 0.35626 0.16491 0.77031 0.0
C446 C 0.36426 0.16563 0.8081 0.0
C447 C 0.37924 0.1828 0.82246 0.0
C448 C 0.38628 0.19928 0.799 0.0
C449 C 0.37831 0.19864 0.76121 0.0
H450 H 0.38541 0.18332 0.85173 0.0
H451 H 0.30861 0.17597 0.48379 0.0
H452 H 0.82072 0.17201 0.4989 0.0
H453 H 0.82941 0.16154 0.55988 0.0
H454 H 0.8265 0.20529 0.62781 0.0
H455 H 0.81798 0.21619 0.56582 0.0
H456 H 0.85862 0.20468 0.64532 0.0
H457 H 0.79283 0.15792 0.6397 0.0
H458 H 0.7629 0.13337 0.60884 0.0
H459 H 0.78805 0.09858 0.58647 0.0
H460 H 0.81826 0.12306 0.6167 0.0
H461 H 0.85796 0.16716 0.83858 0.0
H462 H 0.8481 0.17569 0.7765 0.0
H463 H 0.86642 0.1426 0.70806 0.0
H464 H 0.87696 0.13421 0.771 0.0
H465 H 0.82682 0.13738 0.69072 0.0
H466 H 0.89293 0.18514 0.69808 0.0
H467 H 0.92203 0.20987 0.7313 0.0
H468 H 0.8949 0.24291 0.75321 0.0
H469 H 0.86551 0.21821 0.72067 0.0
C470 C 0.82162 0.17931 0.52684 0.0
C471 C 0.81858 0.19494 0.52741 0.0
C472 C 0.82656 0.17321 0.56188 0.0
C473 C 0.8285 0.18247 0.59873 0.0
C474 C 0.82506 0.19787 0.59976 0.0
C475 C 0.82003 0.20399 0.56443 0.0
C476 C 0.835 0.17647 0.63532 0.0
C477 C 0.85147 0.19001 0.65552 0.0
C478 C 0.82603 0.15722 0.64823 0.0
C479 C 0.80787 0.14241 0.63015 0.0
C480 C 0.79204 0.14511 0.62792 0.0
C481 C 0.77501 0.13119 0.61058 0.0
C482 C 0.77359 0.11445 0.59561 0.0
C483 C 0.78918 0.11156 0.59804 0.0
C484 C 0.80626 0.12545 0.61531 0.0
C485 C 0.85993 0.16157 0.81047 0.0
C486 C 0.86826 0.14992 0.80987 0.0
C487 C 0.85429 0.16656 0.7749 0.0
C488 C 0.85655 0.15987 0.73764 0.0
C489 C 0.86456 0.14794 0.73661 0.0
C490 C 0.87061 0.14319 0.77248 0.0
C491 C 0.85042 0.16557 0.7003 0.0
C492 C 0.83399 0.15201 0.68019 0.0
C493 C 0.85929 0.18482 0.68771 0.0
C494 C 0.87694 0.19972 0.7073 0.0
C495 C 0.89309 0.19758 0.71035 0.0
C496 C 0.90966 0.21162 0.72897 0.0
C497 C 0.9103 0.22793 0.74445 0.0
C498 C 0.89438 0.23025 0.74125 0.0
C499 C 0.87777 0.21625 0.72269 0.0
H500 H 0.92314 0.23879 0.75884 0.0
H501 H 0.76039 0.10369 0.5822 0.0
H502 H 0.87366 0.69843 0.83799 0.0
H503 H 0.86394 0.67898 0.77713 0.0
H504 H 0.86585 0.72539 0.70986 0.0
H505 H 0.8759 0.74523 0.77107 0.0
H506 H 0.82871 0.67179 0.72892 0.0
H507 H 0.88423 0.72619 0.6481 0.0
H508 H 0.91839 0.7506 0.64815 0.0
H509 H 0.93259 0.70918 0.69077 0.0
H510 H 0.89847 0.68464 0.69135 0.0
H511 H 0.79905 0.62978 0.53432 0.0
H512 H 0.80994 0.65031 0.59383 0.0
H513 H 0.8581 0.64149 0.60418 0.0
H514 H 0.84753 0.62163 0.54323 0.0
H515 H 0.87043 0.67692 0.61446 0.0
H516 H 0.81759 0.62129 0.67209 0.0
H517 H 0.78434 0.5951 0.67755 0.0
H518 H 0.76505 0.63552 0.68761 0.0
H519 H 0.79817 0.66196 0.68172 0.0
C520 C 0.87233 0.70469 0.81017 0.0
C521 C 0.87561 0.72345 0.80948 0.0
C522 C 0.86672 0.69349 0.77537 0.0
C523 C 0.86422 0.70069 0.73886 0.0
C524 C 0.86794 0.71959 0.73758 0.0
C525 C 0.8737 0.73093 0.77256 0.0
C526 C 0.85671 0.6879 0.70312 0.0
C527 C 0.83769 0.67307 0.70347 0.0
C528 C 0.86855 0.6891 0.67072 0.0
C529 C 0.88892 0.70372 0.67005 0.0
C530 C 0.89467 0.72237 0.65765 0.0
C531 C 0.914 0.7362 0.65756 0.0
C532 C 0.92765 0.73145 0.66953 0.0
C533 C 0.922 0.71285 0.68157 0.0
C534 C 0.90269 0.69899 0.68182 0.0
C535 C 0.81164 0.63179 0.55011 0.0
C536 C 0.82213 0.62365 0.53505 0.0
C537 C 0.81793 0.64359 0.58413 0.0
C538 C 0.83477 0.64736 0.60427 0.0
C539 C 0.84505 0.63885 0.58951 0.0
C540 C 0.83888 0.62726 0.55505 0.0
C541 C 0.84207 0.66081 0.63939 0.0
C542 C 0.86118 0.67566 0.63933 0.0
C543 C 0.83025 0.65947 0.67233 0.0
C544 C 0.81034 0.64359 0.6761 0.0
C545 C 0.80624 0.62459 0.6752 0.0
C546 C 0.78742 0.6097 0.67842 0.0
C547 C 0.77259 0.61365 0.68282 0.0
C548 C 0.77655 0.63249 0.68415 0.0
C549 C 0.79534 0.64743 0.68093 0.0
H550 H 0.75803 0.6021 0.68529 0.0
H551 H 0.9426 0.74217 0.66942 0.0
H552 H 0.99462 0.50366 0.17442 0.0
H553 H 1.0134 0.5138 0.11314 0.0
H554 H 0.96231 0.48296 0.04205 0.0
H555 H 0.94322 0.47196 0.10438 0.0
H556 H 0.98901 0.47744 0.01205 0.0
H557 H 0.98778 0.53341 0.04996 0.0
H558 H 0.99094 0.55892 0.09518 0.0
H559 H 0.05029 0.57768 0.11203 0.0
H560 H 0.04743 0.55212 0.06733 0.0
H561 H 0.03368 0.52212 0.82878 0.0
H562 H 1.01452 0.51357 0.88988 0.0
H563 H 0.06517 0.53347 0.96219 0.0
H564 H 0.08471 0.54199 0.9004 0.0
H565 H 0.03848 0.54494 0.99026 0.0
H566 H 0.03867 0.48799 0.95131 0.0
H567 H 0.03472 0.46283 0.90412 0.0
H568 H 0.976 0.44658 0.88671 0.0
H569 H 0.97967 0.47185 0.93336 0.0
C570 C 0.98722 0.49908 0.14585 0.0
C571 C 0.96731 0.48705 0.14445 0.0
C572 C 0.99806 0.50505 0.1106 0.0
C573 C 0.98936 0.49956 0.07263 0.0
C574 C 0.96942 0.48753 0.07092 0.0
C575 C 0.95848 0.48131 0.10653 0.0
C576 C 1.00134 0.50596 0.03523 0.0
C577 C 0.99957 0.49226 0.00705 0.0
C578 C 0.01553 0.52526 0.02881 0.0
C579 C 0.01734 0.54074 0.05553 0.0
C580 C 1.00147 0.5429 0.06352 0.0
C581 C 1.00322 0.55738 0.08903 0.0
C582 C 0.0208 0.56989 0.10653 0.0
C583 C 0.03668 0.56797 0.09847 0.0
C584 C 0.03501 0.5535 0.07301 0.0
C585 C 0.04089 0.52483 0.85758 0.0
C586 C 0.0608 0.53271 0.85959 0.0
C587 C 0.02982 0.51984 0.89257 0.0
C588 C 0.03833 0.52265 0.93065 0.0
C589 C 0.05829 0.5311 0.93307 0.0
C590 C 0.06944 0.53597 0.89779 0.0
C591 C 0.02613 0.51642 0.96751 0.0
C592 C 0.02786 0.53015 0.99543 0.0
C593 C 1.01177 0.49721 0.97344 0.0
C594 C 1.0095 0.48194 0.94554 0.0
C595 C 0.02495 0.47916 0.93716 0.0
C596 C 0.02276 0.46486 0.91056 0.0
C597 C 1.00513 0.45314 0.89235 0.0
C598 C 0.98965 0.45568 0.9008 0.0
C599 C 0.99178 0.46998 0.92735 0.0
H600 H 1.00346 0.44207 0.87176 0.0
H601 H 0.02212 0.58109 0.12628 0.0
H602 H 0.52752 0.50315 0.17391 0.0
H603 H 0.51676 0.51151 0.11316 0.0
H604 H 0.53161 0.47607 0.04297 0.0
H605 H 0.54351 0.46831 0.10453 0.0
H606 H 0.54116 0.50713 0.00294 0.0
H607 H 0.48347 0.46283 0.06932 0.0
H608 H 0.46089 0.44915 0.12604 0.0
H609 H 0.45742 0.50014 0.13396 0.0
H610 H 0.48018 0.51424 0.07762 0.0
H611 H 0.49016 0.50718 0.83172 0.0
H612 H 0.49868 0.49688 0.89322 0.0
H613 H 0.49349 0.53939 0.96081 0.0
H614 H 0.48477 0.54992 0.8985 0.0
H615 H 0.4784 0.50404 1.00124 0.0
H616 H 0.53667 0.54798 0.93399 0.0
H617 H 0.55869 0.56066 0.87613 0.0
H618 H 0.56002 0.50852 0.86849 0.0
H619 H 0.53779 0.49542 0.92596 0.0
C620 C 0.52846 0.49698 0.14567 0.0
C621 C 0.53619 0.48483 0.14423 0.0
C622 C 0.52213 0.50172 0.11078 0.0
C623 C 0.52276 0.49403 0.07336 0.0
C624 C 0.53076 0.48208 0.07152 0.0
C625 C 0.53751 0.47758 0.10666 0.0
C626 C 0.51545 0.49899 0.03647 0.0
C627 C 0.52729 0.5061 0.00244 0.0
C628 C 0.4975 0.49816 0.03579 0.0
C629 C 0.48364 0.48963 0.06941 0.0
C630 C 0.47797 0.47116 0.08329 0.0
C631 C 0.46513 0.46334 0.11537 0.0
C632 C 0.45776 0.47378 0.13364 0.0
C633 C 0.46316 0.49207 0.11979 0.0
C634 C 0.476 0.49997 0.08775 0.0
C635 C 0.49059 0.5143 0.85963 0.0
C636 C 0.48689 0.52951 0.86005 0.0
C637 C 0.49558 0.50839 0.89484 0.0
C638 C 0.49713 0.51758 0.93155 0.0
C639 C 0.49251 0.53217 0.93272 0.0
C640 C 0.48747 0.53814 0.89718 0.0
C641 C 0.50414 0.51216 0.96806 0.0
C642 C 0.49224 0.50498 1.0019 0.0
C643 C 0.52193 0.51274 0.96841 0.0
C644 C 0.53543 0.52066 0.93406 0.0
C645 C 0.54155 0.53917 0.91979 0.0
C646 C 0.55408 0.54644 0.88709 0.0
C647 C 0.56071 0.53539 0.86859 0.0
C648 C 0.55486 0.51706 0.88282 0.0
C649 C 0.54231 0.50971 0.91548 0.0
H650 H 0.57041 0.54104 0.84327 0.0
H651 H 0.44783 0.4677 0.15848 0.0
H652 H 0.55686 0.07998 0.10562 0.0
H653 H 0.5486 0.06028 0.0442 0.0
H654 H 0.50647 0.0119 0.11156 0.0
H655 H 0.51517 0.03101 0.17221 0.0
H656 H 0.52409 1.00013 0.06917 0.0
H657 H 0.496 0.0391 0.04005 0.0
H658 H 0.49591 0.06918 0.02993 0.0
H659 H 0.53648 0.08448 0.93373 0.0
H660 H 0.53699 0.05458 0.94362 0.0
H661 H 0.47039 0.93901 0.90285 0.0
H662 H 0.48081 0.95899 0.96387 0.0
H663 H 0.52674 1.00408 0.89647 0.0
H664 H 0.51645 0.98454 0.83623 0.0
H665 H 0.50814 0.01781 0.93767 0.0
H666 H 0.5347 0.97743 0.96656 0.0
H667 H 0.53345 0.94671 0.97678 0.0
H668 H 0.4938 0.93331 0.07418 0.0
H669 H 0.49462 0.96386 0.06419 0.0
C670 C 0.54579 0.06518 0.107 0.0
C671 C 0.53678 0.05705 0.14381 0.0
C672 C 0.54101 0.05389 0.07192 0.0
C673 C 0.52682 0.03446 0.07296 0.0
C674 C 0.5176 0.02667 0.10967 0.0
C675 C 0.52258 0.03773 0.14448 0.0
C676 C 0.52153 0.02182 0.03666 0.0
C677 C 0.5204 1.00398 0.04059 0.0
C678 C 0.51701 0.02677 0.9989 0.0
C679 C 0.51669 0.04472 0.99287 0.0
C680 C 0.50501 0.04895 0.01694 0.0
C681 C 0.50486 0.06595 0.01121 0.0
C682 C 0.51623 0.07876 0.98129 0.0
C683 C 0.52772 0.07457 0.95695 0.0
C684 C 0.52793 0.05759 0.96258 0.0
C685 C 0.48291 0.95303 0.90138 0.0
C686 C 0.49254 0.96013 0.8646 0.0
C687 C 0.48883 0.9645 0.93619 0.0
C688 C 0.50456 0.98317 0.9348 0.0
C689 C 0.51449 0.98988 0.8984 0.0
C690 C 0.5086 0.97855 0.8639 0.0
C691 C 0.5105 0.99612 0.97049 0.0
C692 C 0.51181 0.01401 0.96634 0.0
C693 C 0.51498 0.99114 0.00817 0.0
C694 C 0.51458 0.97284 0.01437 0.0
C695 C 0.52561 0.96787 0.98997 0.0
C696 C 0.52499 0.9505 0.99575 0.0
C697 C 0.51351 0.93804 0.02604 0.0
C698 C 0.50266 0.94296 0.05069 0.0
C699 C 0.50321 0.9603 0.04501 0.0
H700 H 0.51305 0.9246 0.03046 0.0
H701 H 0.5161 0.09192 0.97691 0.0
H702 H 0.14031 0.2843 0.96539 0.0
H703 H 0.14228 0.29782 0.89824 0.0
H704 H 0.17983 0.35408 0.94461 0.0
H705 H 0.17784 0.34085 0.01157 0.0
H706 H 0.15494 0.35418 0.88848 0.0
H707 H 0.19838 0.33 0.90297 0.0
H708 H 0.20706 0.30549 0.91773 0.0
H709 H 0.17033 0.27057 0.82256 0.0
H710 H 0.1612 0.29477 0.80765 0.0
H711 H 0.20944 0.40307 0.7126 0.0
H712 H 0.197 0.38941 0.77943 0.0
H713 H 0.16366 0.33386 0.72581 0.0
H714 H 0.17637 0.34723 0.6597 0.0
H715 H 0.18403 0.33242 0.78513 0.0
H716 H 0.14305 0.35869 0.76616 0.0
H717 H 0.1355 0.38399 0.75133 0.0
H718 H 0.16828 0.41567 0.85394 0.0
H719 H 0.17627 0.39069 0.86906 0.0
C720 C 0.14874 0.29958 0.96142 0.0
C721 C 0.15918 0.31146 0.99367 0.0
C722 C 0.14985 0.30726 0.92308 0.0
C723 C 0.1614 0.32692 0.9165 0.0
C724 C 0.17086 0.33889 0.9491 0.0
C725 C 0.16982 0.33125 0.9873 0.0
C726 C 0.1652 0.33488 0.87522 0.0
C727 C 0.16133 0.34949 0.86579 0.0
C728 C 0.1734 0.32861 0.84571 0.0
C729 C 0.17893 0.31408 0.85454 0.0
C730 C 0.19203 0.31702 0.88542 0.0
C731 C 0.19705 0.3032 0.89378 0.0
C732 C 0.1892 0.28645 0.87118 0.0
C733 C 0.17636 0.28352 0.8401 0.0
C734 C 0.17126 0.29729 0.83169 0.0
C735 C 0.19922 0.38802 0.71514 0.0
C736 C 0.19407 0.37616 0.68117 0.0
C737 C 0.19207 0.38023 0.75323 0.0
C738 C 0.17941 0.36059 0.75756 0.0
C739 C 0.17352 0.349 0.72323 0.0
C740 C 0.18082 0.35668 0.68548 0.0
C741 C 0.1736 0.35167 0.79792 0.0
C742 C 0.17731 0.33695 0.80739 0.0
C743 C 0.16532 0.35792 0.82734 0.0
C744 C 0.16039 0.37288 0.81853 0.0
C745 C 0.14877 0.37111 0.7854 0.0
C746 C 0.14439 0.38539 0.77696 0.0
C747 C 0.15144 0.40145 0.80162 0.0
C748 C 0.16284 0.40323 0.83484 0.0
C749 C 0.16728 0.38901 0.84338 0.0
H750 H 0.14805 0.41249 0.79503 0.0
H751 H 0.19311 0.27577 0.87768 0.0
H752 H 0.67754 0.84235 0.66385 0.0
H753 H 0.69069 0.84172 0.72919 0.0
H754 H 0.63494 0.79922 0.77062 0.0
H755 H 0.6214 0.79985 0.70473 0.0
H756 H 0.65261 0.82923 0.82204 0.0
H757 H 0.66898 0.78729 0.75559 0.0
H758 H 0.68197 0.77658 0.70087 0.0
H759 H 0.73749 0.82511 0.71957 0.0
H760 H 0.72479 0.83628 0.77404 0.0
H761 H 0.68932 0.82723 0.00958 0.0
H762 H 0.67539 0.81468 0.94365 0.0
H763 H 0.72736 0.85654 0.88599 0.0
H764 H 0.74165 0.8689 0.95245 0.0
H765 H 0.70952 0.82237 0.84414 0.0
H766 H 0.69293 0.86666 0.90149 0.0
H767 H 0.68076 0.87919 0.95431 0.0
H768 H 0.62636 0.82791 0.95011 0.0
H769 H 0.63831 0.81496 0.89765 0.0
C770 C 0.66799 0.83273 0.6866 0.0
C771 C 0.64834 0.82124 0.6791 0.0
C772 C 0.67561 0.83226 0.7239 0.0
C773 C 0.66384 0.82025 0.75453 0.0
C774 C 0.64426 0.8085 0.74716 0.0
C775 C 0.63658 0.80889 0.70957 0.0
C776 C 0.67191 0.82141 0.79514 0.0
C777 C 0.66473 0.82722 0.82712 0.0
C778 C 0.68814 0.81943 0.8013 0.0
C779 C 0.69589 0.81267 0.7688 0.0
C780 C 0.68394 0.79575 0.74788 0.0
C781 C 0.69126 0.78958 0.71692 0.0
C782 C 0.71054 0.80017 0.70671 0.0
C783 C 0.72256 0.81692 0.72751 0.0
C784 C 0.71531 0.82316 0.75849 0.0
C785 C 0.69794 0.83347 0.98286 0.0
C786 C 0.71642 0.84922 0.98587 0.0
C787 C 0.68996 0.82629 0.94528 0.0
C788 C 0.70018 0.835 0.91004 0.0
C789 C 0.71923 0.84971 0.91295 0.0
C790 C 0.72737 0.85676 0.95079 0.0
C791 C 0.69023 0.83024 0.87076 0.0
C792 C 0.69714 0.82394 0.83913 0.0
C793 C 0.67384 0.83196 0.86464 0.0
C794 C 0.66658 0.83976 0.896 0.0
C795 C 0.67842 0.858 0.91207 0.0
C796 C 0.67156 0.86518 0.9419 0.0
C797 C 0.65282 0.85432 0.95565 0.0
C798 C 0.64088 0.83628 0.93949 0.0
C799 C 0.64769 0.82902 0.9097 0.0
H800 H 0.64752 0.85991 0.97874 0.0
H801 H 0.71617 0.79538 0.68272 0.0
H802 H 0.19531 0.86647 0.00767 0.0
H803 H 0.20682 0.86498 0.94032 0.0
H804 H 0.16304 0.87348 0.8871 0.0
H805 H 0.15176 0.87553 0.95471 0.0
H806 H 0.16328 0.83746 0.86961 0.0
H807 H 0.20321 0.90543 0.86745 0.0
H808 H 0.2276 0.93662 0.89369 0.0
H809 H 0.26909 0.91844 0.89191 0.0
H810 H 0.24489 0.88703 0.86611 0.0
H811 H 0.17817 0.83533 0.66625 0.0
H812 H 0.17772 0.8486 0.73126 0.0
H813 H 0.22335 0.84007 0.77274 0.0
H814 H 0.224 0.82649 0.70676 0.0
H815 H 0.22443 0.87685 0.79739 0.0
H816 H 0.18559 0.80941 0.80104 0.0
H817 H 0.16214 0.77817 0.77397 0.0
H818 H 0.11899 0.79416 0.77698 0.0
H819 H 0.14248 0.82589 0.80276 0.0
C820 C 0.1885 0.86856 0.98157 0.0
C821 C 0.17258 0.87096 0.98612 0.0
C822 C 0.19513 0.8678 0.94324 0.0
C823 C 0.18574 0.86911 0.90899 0.0
C824 C 0.17049 0.87256 0.91339 0.0
C825 C 0.1641 0.87376 0.95185 0.0
C826 C 0.18996 0.86387 0.86938 0.0
C827 C 0.17651 0.8462 0.85349 0.0
C828 C 0.20761 0.87494 0.8496 0.0
C829 C 0.22217 0.89379 0.86525 0.0
C830 C 0.21748 0.908 0.87306 0.0
C831 C 0.23128 0.92574 0.88775 0.0
C832 C 0.24986 0.92949 0.8946 0.0
C833 C 0.25469 0.91551 0.88665 0.0
C834 C 0.24094 0.89774 0.87193 0.0
C835 C 0.18828 0.83632 0.68883 0.0
C836 C 0.20092 0.82949 0.6814 0.0
C837 C 0.18806 0.84407 0.72597 0.0
C838 C 0.2004 0.84518 0.75668 0.0
C839 C 0.21376 0.83933 0.74914 0.0
C840 C 0.21398 0.83146 0.71165 0.0
C841 C 0.1976 0.8506 0.79747 0.0
C842 C 0.21124 0.86814 0.81365 0.0
C843 C 0.18021 0.8393 0.81807 0.0
C844 C 0.16587 0.82012 0.8034 0.0
C845 C 0.17115 0.80636 0.79554 0.0
C846 C 0.15783 0.78853 0.78046 0.0
C847 C 0.13904 0.78413 0.77375 0.0
C848 C 0.13355 0.79759 0.78215 0.0
C849 C 0.14689 0.81552 0.79693 0.0
H850 H 0.12873 0.7703 0.76209 0.0
H851 H 0.26053 0.94323 0.90596 0.0
H852 H 0.35085 0.1777 0.33594 0.0
H853 H 0.3387 0.16559 0.26913 0.0
H854 H 0.39571 0.1837 0.22759 0.0
H855 H 0.40823 0.19623 0.29496 0.0
H856 H 0.3771 0.19629 0.17967 0.0
H857 H 0.36332 0.13655 0.23565 0.0
H858 H 0.3509 0.1108 0.28624 0.0
H859 H 0.29433 0.10136 0.26842 0.0
H860 H 0.30643 0.12724 0.21815 0.0
H861 H 0.34175 0.16402 0.98678 0.0
H862 H 0.35669 0.16532 0.05144 0.0
H863 H 0.30303 0.14667 0.11187 0.0
H864 H 0.28775 0.14459 0.04657 0.0
H865 H 0.32267 0.13229 0.14817 0.0
H866 H 0.33625 0.19425 0.10267 0.0
H867 H 0.34762 0.22104 0.05477 0.0
H868 H 0.40346 0.22727 0.05611 0.0
H869 H 0.39234 0.20033 0.10365 0.0
C870 C 0.36089 0.17901 0.31284 0.0
C871 C 0.38058 0.18813 0.32074 0.0
C872 C 0.35385 0.17187 0.27468 0.0
C873 C 0.36626 0.17353 0.24355 0.0
C874 C 0.3859 0.18218 0.25139 0.0
C875 C 0.393 0.18933 0.28982 0.0
C876 C 0.35874 0.16793 0.20213 0.0
C877 C 0.36555 0.18214 0.17246 0.0
C878 C 0.34321 0.14966 0.19328 0.0
C879 C 0.33582 0.13393 0.22323 0.0
C880 C 0.34825 0.12907 0.24269 0.0
C881 C 0.34126 0.11443 0.27129 0.0
C882 C 0.32184 0.10447 0.28058 0.0
C883 C 0.30936 0.10909 0.26119 0.0
C884 C 0.31628 0.12372 0.23258 0.0
C885 C 0.33307 0.15995 0.01381 0.0
C886 C 0.31369 0.15454 0.01191 0.0
C887 C 0.34163 0.16071 0.0507 0.0
C888 C 0.3311 0.15661 0.08653 0.0
C889 C 0.31144 0.15002 0.08454 0.0
C890 C 0.30274 0.14888 0.04734 0.0
C891 C 0.34095 0.16071 0.12598 0.0
C892 C 0.33451 0.14629 0.15522 0.0
C893 C 0.35667 0.17889 0.13477 0.0
C894 C 0.36341 0.19515 0.10634 0.0
C895 C 0.35091 0.20125 0.09252 0.0
C896 C 0.35732 0.21647 0.06547 0.0
C897 C 0.37623 0.22581 0.05231 0.0
C898 C 0.3888 0.21999 0.06627 0.0
C899 C 0.38246 0.20476 0.09328 0.0
H900 H 0.38117 0.23759 0.03137 0.0
H901 H 0.31646 0.09315 0.30275 0.0
H902 H 0.88947 0.15707 0.04089 0.0
H903 H 0.89008 0.1706 0.10738 0.0
H904 H 0.84787 0.18461 0.06746 0.0
H905 H 0.8473 0.1715 1.00145 0.0
H906 H 0.87443 0.21262 0.11393 0.0
H907 H 0.83464 0.14395 0.11797 0.0
H908 H 0.82798 0.11095 0.11048 0.0
H909 H 0.8713 0.12127 0.19773 0.0
H910 H 0.87837 0.15444 0.20531 0.0
H911 H 0.82141 0.20878 0.28919 0.0
H912 H 0.83471 0.20729 0.22376 0.0
H913 H 0.87266 0.1922 0.28368 0.0
H914 H 0.85898 0.193 0.34859 0.0
H915 H 0.85341 0.16734 0.22875 0.0
H916 H 0.88903 0.23537 0.23247 0.0
H917 H 0.89379 0.26768 0.24016 0.0
H918 H 0.85702 0.25843 0.13907 0.0
H919 H 0.85181 0.22595 0.13111 0.0
C920 C 0.88047 0.1632 0.04621 0.0
C921 C 0.86813 0.16292 0.01603 0.0
C922 C 0.88085 0.17093 0.08414 0.0
C923 C 0.8689 0.17846 0.09232 0.0
C924 C 0.85724 0.17892 0.06173 0.0
C925 C 0.85681 0.17122 0.02406 0.0
C926 C 0.86716 0.18444 0.13345 0.0
C927 C 0.86987 0.20278 0.13917 0.0
C928 C 0.86145 0.17165 0.16634 0.0
C929 C 0.85721 0.15173 0.1618 0.0
C930 C 0.84285 0.13923 0.13529 0.0
C931 C 0.83898 0.12049 0.13107 0.0
C932 C 0.84926 0.11404 0.1535 0.0
C933 C 0.86338 0.12631 0.18029 0.0
C934 C 0.86733 0.14507 0.18456 0.0
C935 C 0.83288 0.20558 0.2883 0.0
C936 C 0.83901 0.20074 0.3237 0.0
C937 C 0.84054 0.2048 0.251 0.0
C938 C 0.8547 0.19962 0.24885 0.0
C939 C 0.86167 0.19609 0.28459 0.0
C940 C 0.85384 0.19655 0.32162 0.0
C941 C 0.86058 0.19557 0.20952 0.0
C942 C 0.85848 0.17746 0.20399 0.0
C943 C 0.8667 0.20856 0.17689 0.0
C944 C 0.86994 0.22816 0.18137 0.0
C945 C 0.88186 0.24017 0.21204 0.0
C946 C 0.88465 0.25853 0.21642 0.0
C947 C 0.87569 0.26509 0.19017 0.0
C948 C 0.86395 0.25332 0.1594 0.0
C949 C 0.86109 0.23495 0.1549 0.0
H950 H 0.87787 0.27931 0.19362 0.0
H951 H 0.84624 0.09952 0.15022 0.0
H952 H 0.88645 0.73719 0.04803 0.0
H953 H 0.87728 0.72341 0.11604 0.0
H954 H 0.82821 0.67417 0.06665 0.0
H955 H 0.83767 0.68755 0.99867 0.0
H956 H 0.82305 0.68932 0.14578 0.0
H957 H 0.86159 0.66872 0.07497 0.0
H958 H 0.8897 0.6734 0.03679 0.0
H959 H 0.92589 0.70397 0.1365 0.0
H960 H 0.89807 0.70018 0.17465 0.0
H961 H 0.80684 0.62236 0.30591 0.0
H962 H 0.81033 0.63727 0.23955 0.0
H963 H 0.86653 0.68205 0.27253 0.0
H964 H 0.86336 0.66736 0.338 0.0
H965 H 0.86674 0.66839 0.19994 0.0
H966 H 0.82846 0.68816 0.27247 0.0
H967 H 0.80075 0.68476 0.31025 0.0
H968 H 0.76453 0.65694 0.2087 0.0
H969 H 0.79184 0.65941 0.17096 0.0
C970 C 0.87344 0.72369 0.05197 0.0
C971 C 0.86275 0.71334 0.01843 0.0
C972 C 0.86827 0.71583 0.09063 0.0
C973 C 0.85215 0.69777 0.09606 0.0
C974 C 0.84065 0.68814 0.06292 0.0
C975 C 0.84608 0.69575 0.02424 0.0
C976 C 0.84851 0.68794 0.13529 0.0
C977 C 0.83244 0.68455 0.15765 0.0
C978 C 0.86097 0.68197 0.15054 0.0
C979 C 0.87776 0.68447 0.12739 0.0
C980 C 0.87557 0.67677 0.08847 0.0
C981 C 0.89146 0.67926 0.06683 0.0
C982 C 0.9096 0.68914 0.08406 0.0
C983 C 0.91186 0.6965 0.12302 0.0
C984 C 0.89604 0.69424 0.14461 0.0
C985 C 0.81994 0.63537 0.29896 0.0
C986 C 0.83481 0.64362 0.32735 0.0
C987 C 0.82186 0.64391 0.26115 0.0
C988 C 0.83867 0.66082 0.25126 0.0
C989 C 0.85346 0.669 0.27951 0.0
C990 C 0.85157 0.66056 0.31707 0.0
C991 C 0.84134 0.66993 0.2112 0.0
C992 C 0.85726 0.67312 0.18836 0.0
C993 C 0.82876 0.67577 0.19574 0.0
C994 C 0.81219 0.67368 0.21908 0.0
C995 C 0.81453 0.68096 0.25846 0.0
C996 C 0.79887 0.67921 0.2799 0.0
C997 C 0.78085 0.67049 0.26205 0.0
C998 C 0.77845 0.6635 0.22272 0.0
C999 C 0.794 0.66501 0.20134 0.0
H1000 H 0.76876 0.66923 0.27861 0.0
H1001 H 0.92189 0.69099 0.06733 0.0
H1002 H 0.9669 0.46047 0.35678 0.0
H1003 H 0.98377 0.46236 0.41988 0.0
H1004 H 1.0035 0.52253 0.4267 0.0
H1005 H 0.98729 0.52077 0.36364 0.0
H1006 H 0.03235 0.51662 0.43374 0.0
H1007 H 0.96879 0.4893 0.49013 0.0
H1008 H 0.93486 0.46501 0.49719 0.0
H1009 H 0.95031 0.42289 0.52634 0.0
H1010 H 0.98436 0.44691 0.51896 0.0
H1011 H 0.04789 0.54804 0.63366 0.0
H1012 H 0.03483 0.53555 0.56696 0.0
H1013 H 0.04682 0.48984 0.58386 0.0
H1014 H 0.06058 0.50276 0.65074 0.0
H1015 H 1.00532 0.48149 0.56154 0.0
H1016 H 0.07055 0.51363 0.51803 0.0
H1017 H 0.10345 0.54067 0.51629 0.0
H1018 H 0.08349 0.57648 0.46666 0.0
H1019 H 0.05043 0.54973 0.46866 0.0
C1020 C 0.97451 0.47395 0.37241 0.0
C1021 C 0.97597 0.49051 0.35543 0.0
C1022 C 0.98419 0.47505 0.40825 0.0
C1023 C 0.9951 0.49265 0.42766 0.0
C1024 C 0.99545 0.50887 0.41187 0.0
C1025 C 0.98608 0.50784 0.37602 0.0
C1026 C 1.00708 0.4948 0.46322 0.0
C1027 C 0.02643 0.50885 0.46161 0.0
C1028 C 0.99953 0.48426 0.49919 0.0
C1029 C 0.97909 0.46982 0.5034 0.0
C1030 C 0.96494 0.47481 0.49764 0.0
C1031 C 0.94569 0.46111 0.5018 0.0
C1032 C 0.94043 0.4424 0.51204 0.0
C1033 C 0.95441 0.43738 0.51828 0.0
C1034 C 0.97368 0.45103 0.51413 0.0
C1035 C 0.04809 0.53555 0.62277 0.0
C1036 C 0.05524 0.52634 0.64692 0.0
C1037 C 0.04061 0.52843 0.58487 0.0
C1038 C 0.03984 0.51179 0.57085 0.0
C1039 C 0.04736 0.50272 0.59443 0.0
C1040 C 0.05531 0.51015 0.63223 0.0
C1041 C 0.03022 0.50378 0.53221 0.0
C1042 C 1.01134 0.4887 0.53317 0.0
C1043 C 0.03805 0.51362 0.4958 0.0
C1044 C 0.05798 0.52966 0.49362 0.0
C1045 C 0.07316 0.52729 0.50694 0.0
C1046 C 0.09184 0.54257 0.50588 0.0
C1047 C 0.09556 0.56029 0.49142 0.0
C1048 C 0.0806 0.56274 0.47783 0.0
C1049 C 0.06188 0.54751 0.47883 0.0
H1050 H 0.11003 0.57211 0.49072 0.0
H1051 H 0.92552 0.43182 0.51527 0.0
H1052 H 0.51635 0.51455 0.67147 0.0
H1053 H 0.52924 0.51479 0.60536 0.0
H1054 H 0.50908 0.55155 0.56061 0.0
H1055 H 0.49572 0.5512 0.62728 0.0
H1056 H 0.49767 0.52023 0.51446 0.0
H1057 H 0.55675 0.56809 0.56933 0.0
H1058 H 0.58238 0.58261 0.61995 0.0
H1059 H 0.59387 0.5367 0.60578 0.0
H1060 H 0.56812 0.52175 0.55548 0.0
H1061 H 0.5317 0.51966 0.32316 0.0
H1062 H 0.53074 0.53313 0.38812 0.0
H1063 H 0.54756 0.49647 0.44765 0.0
H1064 H 0.54904 0.48317 0.38202 0.0
H1065 H 0.56269 0.53194 0.48437 0.0
H1066 H 0.50162 0.48199 0.4391 0.0
H1067 H 0.47516 0.46565 0.3908 0.0
H1068 H 0.46665 0.51381 0.39002 0.0
H1069 H 0.49327 0.53056 0.4379 0.0
C1070 C 0.51476 0.52287 0.64781 0.0
C1071 C 0.50479 0.53269 0.65454 0.0
C1072 C 0.52236 0.52315 0.61007 0.0
C1073 C 0.52031 0.53336 0.57824 0.0
C1074 C 0.5109 0.54369 0.58499 0.0
C1075 C 0.50329 0.54347 0.62301 0.0
C1076 C 0.52619 0.53135 0.5372 0.0
C1077 C 0.51202 0.52329 0.50756 0.0
C1078 C 0.54476 0.53469 0.5288 0.0
C1079 C 0.56042 0.54375 0.55873 0.0
C1080 C 0.56466 0.56102 0.57717 0.0
C1081 C 0.57923 0.56934 0.60579 0.0
C1082 C 0.58974 0.56057 0.61611 0.0
C1083 C 0.58573 0.54349 0.59775 0.0
C1084 C 0.57117 0.5351 0.56912 0.0
C1085 C 0.53551 0.51468 0.35002 0.0
C1086 C 0.54006 0.50011 0.34783 0.0
C1087 C 0.535 0.52242 0.38704 0.0
C1088 C 0.53864 0.51546 0.42263 0.0
C1089 C 0.54461 0.50193 0.4204 0.0
C1090 C 0.5454 0.49433 0.38305 0.0
C1091 C 0.53415 0.52082 0.46196 0.0
C1092 C 0.54848 0.52932 0.49117 0.0
C1093 C 0.51566 0.51769 0.4703 0.0
C1094 C 0.49957 0.50761 0.44171 0.0
C1095 C 0.4942 0.48915 0.42838 0.0
C1096 C 0.47916 0.47981 0.40112 0.0
C1097 C 0.46927 0.48871 0.38726 0.0
C1098 C 0.47435 0.50695 0.40073 0.0
C1099 C 0.48941 0.51637 0.42793 0.0
H1100 H 0.45762 0.48146 0.36616 0.0
H1101 H 0.601 0.56703 0.6383 0.0
H1102 H 0.47071 0.94736 0.63331 0.0
H1103 H 0.47203 0.96025 0.5655 0.0
H1104 H 0.51738 0.01511 0.60412 0.0
H1105 H 0.51586 1.00276 0.67116 0.0
H1106 H 0.49453 0.02 0.55747 0.0
H1107 H 0.5262 0.98298 0.55491 0.0
H1108 H 0.5286 0.95402 0.56281 0.0
H1109 H 0.48444 0.92532 0.47472 0.0
H1110 H 0.48161 0.95408 0.46671 0.0
H1111 H 0.54848 0.06597 0.38221 0.0
H1112 H 0.53738 0.05031 0.44792 0.0
H1113 H 0.49282 1.00046 0.38891 0.0
H1114 H 0.50455 0.01568 0.32336 0.0
H1115 H 0.51005 0.99068 0.44331 0.0
H1116 H 0.48642 0.03459 0.43782 0.0
H1117 H 0.49279 0.06715 0.42621 0.0
H1118 H 0.52732 0.08612 0.53302 0.0
H1119 H 0.52244 0.05391 0.54347 0.0
C1120 C 0.4808 0.96222 0.62735 0.0
C1121 C 0.49332 0.97393 0.65756 0.0
C1122 C 0.48155 0.96953 0.58865 0.0
C1123 C 0.49493 0.9886 0.57976 0.0
C1124 C 0.50689 1.00039 0.6103 0.0
C1125 C 0.50609 0.9932 0.64869 0.0
C1126 C 0.49763 0.99632 0.53834 0.0
C1127 C 0.49785 0.01357 0.53242 0.0
C1128 C 0.50191 0.98788 0.50571 0.0
C1129 C 0.5035 0.97056 0.51066 0.0
C1130 C 0.51688 0.97043 0.53751 0.0
C1131 C 0.51834 0.95407 0.54196 0.0
C1132 C 0.50662 0.93781 0.5194 0.0
C1133 C 0.49346 0.93791 0.49227 0.0
C1134 C 0.49192 0.95423 0.48777 0.0
C1135 C 0.53615 0.0518 0.38354 0.0
C1136 C 0.52723 0.04201 0.3481 0.0
C1137 C 0.52985 0.04284 0.42092 0.0
C1138 C 0.51412 0.02428 0.42328 0.0
C1139 C 0.50497 0.01474 0.38777 0.0
C1140 C 0.51157 0.02349 0.35048 0.0
C1141 C 0.50733 0.01456 0.46262 0.0
C1142 C 0.50628 0.9969 0.46804 0.0
C1143 C 0.50285 0.02294 0.4951 0.0
C1144 C 0.50416 0.0418 0.49124 0.0
C1145 C 0.49539 0.04568 0.45885 0.0
C1146 C 0.49886 0.06414 0.45232 0.0
C1147 C 0.51033 0.07871 0.47905 0.0
C1148 C 0.51842 0.07483 0.51234 0.0
C1149 C 0.51545 0.05649 0.51838 0.0
H1150 H 0.51302 0.09302 0.47391 0.0
H1151 H 0.50779 0.92517 0.52285 0.0
H1152 H 0.16505 0.23254 0.08707 0.0
H1153 H 0.1785 0.21388 0.05795 0.0
H1154 H 0.2274 0.26554 0.01645 0.0
H1155 H 0.21453 0.28426 0.04663 0.0
H1156 H 0.19951 0.22608 0.95873 0.0
H1157 H 0.24505 0.25712 0.07069 0.0
H1158 H 0.25219 0.26562 0.14249 0.0
H1159 H 0.21979 0.20659 0.17541 0.0
H1160 H 0.21218 0.1978 0.1037 0.0
H1161 H 0.27359 0.20838 0.89187 0.0
H1162 H 0.25475 0.22168 0.91999 0.0
H1163 H 0.22388 0.17184 0.99451 0.0
H1164 H 0.24231 0.15821 0.96576 0.0
H1165 H 0.23987 0.20754 0.03735 0.0
H1166 H 0.20011 0.17609 0.92498 0.0
H1167 H 0.19211 0.16682 0.8538 0.0
H1168 H 0.21203 0.22503 0.82137 0.0
H1169 H 0.22045 0.23471 0.89235 0.0
C1170 C 0.17877 0.23992 0.07215 0.0
C1171 C 0.1888 0.25992 0.06964 0.0
C1172 C 0.1864 0.22925 0.05544 0.0
C1173 C 0.20397 0.23835 0.03515 0.0
C1174 C 0.21389 0.25825 0.03222 0.0
C1175 C 0.20654 0.26893 0.04973 0.0
C1176 C 0.21203 0.22719 0.01663 0.0
C1177 C 0.20844 0.22212 0.97576 0.0
C1178 C 0.22329 0.22164 0.03907 0.0
C1179 C 0.22778 0.22685 0.08203 0.0
C1180 C 0.23923 0.24599 0.0933 0.0
C1181 C 0.24341 0.25085 0.13394 0.0
C1182 C 0.23637 0.23666 0.16352 0.0
C1183 C 0.22517 0.21757 0.15248 0.0
C1184 C 0.22091 0.21265 0.11186 0.0
C1185 C 0.26255 0.20008 0.91369 0.0
C1186 C 0.25942 0.18217 0.92638 0.0
C1187 C 0.25181 0.20772 0.92979 0.0
C1188 C 0.23793 0.19779 0.95948 0.0
C1189 C 0.23451 0.17977 0.97168 0.0
C1190 C 0.24497 0.17193 0.95494 0.0
C1191 C 0.22772 0.20671 0.97901 0.0
C1192 C 0.23086 0.21135 0.02018 0.0
C1193 C 0.21604 0.21184 0.95673 0.0
C1194 C 0.21112 0.20616 0.91395 0.0
C1195 C 0.20299 0.18695 0.90262 0.0
C1196 C 0.19833 0.18161 0.86232 0.0
C1197 C 0.20161 0.19534 0.83306 0.0
C1198 C 0.20953 0.21442 0.84407 0.0
C1199 C 0.21423 0.21984 0.88435 0.0
H1200 H 0.19798 0.19118 0.80187 0.0
H1201 H 0.23965 0.24045 0.19497 0.0
H1202 H 0.86521 0.08649 0.95349 0.0
H1203 H 0.85132 0.05453 0.98254 0.0
H1204 H 0.7963 0.04079 0.93536 0.0
H1205 H 0.80995 0.07273 0.90698 0.0
H1206 H 0.79338 0.03135 0.01243 0.0
H1207 H 0.82442 0.02207 0.89629 0.0
H1208 H 0.8521 0.02949 0.8532 0.0
H1209 H 0.88007 0.02011 0.95336 0.0
H1210 H 0.85264 0.01286 0.99716 0.0
H1211 H 0.73772 0.93333 0.04311 0.0
H1212 H 0.75612 0.96537 0.01629 0.0
H1213 H 0.80791 0.9688 0.06008 0.0
H1214 H 0.78943 0.93595 0.08521 0.0
H1215 H 0.81523 0.98483 0.99079 0.0
H1216 H 0.78538 0.99297 0.10658 0.0
H1217 H 0.75908 0.98653 0.15311 0.0
H1218 H 0.73091 0.99974 0.05935 0.0
H1219 H 0.75692 1.00603 0.01209 0.0
C1220 C 0.85022 0.07658 0.94863 0.0
C1221 C 0.83874 0.08232 0.92783 0.0
C1222 C 0.84227 0.05823 0.96531 0.0
C1223 C 0.8227 0.0451 0.96121 0.0
C1224 C 0.8114 0.05061 0.93923 0.0
C1225 C 0.81928 0.06893 0.92279 0.0
C1226 C 0.81362 0.02604 0.98156 0.0
C1227 C 0.79803 0.0211 0.00723 0.0
C1228 C 0.82017 0.01291 0.97655 0.0
C1229 C 0.83656 0.0171 0.95008 0.0
C1230 C 0.83653 0.02171 0.90918 0.0
C1231 C 0.85216 0.02587 0.88462 0.0
C1232 C 0.86786 0.02532 0.90056 0.0
C1233 C 0.86792 0.02055 0.94106 0.0
C1234 C 0.85232 0.0164 0.96575 0.0
C1235 C 0.75301 0.94091 0.04758 0.0
C1236 C 0.76201 0.93205 0.06695 0.0
C1237 C 0.76358 0.95939 0.03225 0.0
C1238 C 0.78348 0.96994 0.03691 0.0
C1239 C 0.79259 0.96113 0.05619 0.0
C1240 C 0.78199 0.94236 0.07081 0.0
C1241 C 0.79457 0.98989 0.02075 0.0
C1242 C 0.81059 0.99507 0.99614 0.0
C1243 C 0.78865 1.00345 0.02726 0.0
C1244 C 0.77305 0.99985 0.05572 0.0
C1245 C 0.77353 0.99441 0.09582 0.0
C1246 C 0.75867 0.99079 0.12233 0.0
C1247 C 0.74332 0.99269 0.10917 0.0
C1248 C 0.74281 0.99827 0.0695 0.0
C1249 C 0.75762 1.00189 0.04285 0.0
H1250 H 0.73183 0.98987 0.12974 0.0
H1251 H 0.87995 0.02855 0.8815 0.0
H1252 H 0.94646 0.7362 0.93694 0.0
H1253 H 0.97815 0.75492 0.96609 0.0
H1254 H 0.97425 0.80577 0.95497 0.0
H1255 H 0.94215 0.78702 0.92612 0.0
H1256 H 1.0112 0.81034 0.93293 0.0
H1257 H 0.96734 0.78866 0.04241 0.0
H1258 H 0.93996 0.76527 0.0825 0.0
H1259 H 0.96796 0.73286 0.10223 0.0
H1260 H 0.99543 0.75595 0.06169 0.0
H1261 H 0.09246 0.86255 0.0599 0.0
H1262 H 0.06016 0.84871 0.03255 0.0
H1263 H 0.05133 0.79239 0.05317 0.0
H1264 H 0.08338 0.80603 0.08105 0.0
H1265 H 0.01992 0.79315 0.07195 0.0
H1266 H 0.06316 0.81437 0.9586 0.0
H1267 H 0.09015 0.83781 0.9176 0.0
H1268 H 0.06303 0.87145 0.9049 0.0
H1269 H 0.03598 0.84832 0.9463 0.0
C1270 C 0.95233 0.7514 0.94004 0.0
C1271 C 0.94157 0.76002 0.92911 0.0
C1272 C 0.9705 0.76209 0.95697 0.0
C1273 C 0.97856 0.78174 0.96314 0.0
C1274 C 0.96832 0.79062 0.95058 0.0
C1275 C 0.94995 0.77986 0.93406 0.0
C1276 C 0.99726 0.79259 0.98436 0.0
C1277 C 1.01306 0.80683 0.96357 0.0
C1278 C 0.99978 0.78787 0.02417 0.0
C1279 C 0.98337 0.77395 0.04872 0.0
C1280 C 0.9676 0.77646 0.055 0.0
C1281 C 0.95208 0.76328 0.07785 0.0
C1282 C 0.95222 0.74759 0.09485 0.0
C1283 C 0.96788 0.74504 0.08902 0.0
C1284 C 0.98345 0.75818 0.06614 0.0
C1285 C 0.08358 0.84721 0.05917 0.0
C1286 C 0.0907 0.83547 0.07267 0.0
C1287 C 0.06511 0.8393 0.04315 0.0
C1288 C 0.0533 0.81945 0.04002 0.0
C1289 C 0.06009 0.80773 0.05501 0.0
C1290 C 0.07852 0.8156 0.07099 0.0
C1291 C 0.03409 0.81076 0.02033 0.0
C1292 C 0.01811 0.79684 0.04143 0.0
C1293 C 0.03143 0.81585 0.98083 0.0
C1294 C 0.04766 0.82974 0.95593 0.0
C1295 C 0.06303 0.82685 0.94733 0.0
C1296 C 0.07832 0.84006 0.92398 0.0
C1297 C 0.07833 0.85614 0.90876 0.0
C1298 C 0.06302 0.85901 0.91678 0.0
C1299 C 0.0477 0.84585 0.94017 0.0
H1300 H 0.09018 0.86635 0.89068 0.0
H1301 H 0.94022 0.73748 0.11266 0.0
H1302 H 0.82723 0.74799 0.93201 0.0
H1303 H 0.81014 0.76336 0.95879 0.0
H1304 H 0.86348 0.81557 0.97456 0.0
H1305 H 0.88064 0.80008 0.94905 0.0
H1306 H 0.84311 0.81007 0.03813 0.0
H1307 H 0.83017 0.80825 0.89662 0.0
H1308 H 0.8192 0.79359 0.82969 0.0
H1309 H 0.76292 0.75768 0.87678 0.0
H1310 H 0.77362 0.77196 0.94416 0.0
H1311 H 0.8056 0.87296 0.06002 0.0
H1312 H 0.82154 0.85604 0.0352 0.0
H1313 H 0.7687 0.80283 0.04365 0.0
H1314 H 0.75271 0.81964 0.06909 0.0
H1315 H 0.78784 0.80808 0.969 0.0
H1316 H 0.80137 0.81128 0.11051 0.0
H1317 H 0.8128 0.82711 0.17625 0.0
H1318 H 0.86883 0.86194 0.12695 0.0
H1319 H 0.85765 0.8465 0.0607 0.0
C1320 C 0.83531 0.7628 0.94084 0.0
C1321 C 0.85532 0.77281 0.9382 0.0
C1322 C 0.8255 0.77162 0.95608 0.0
C1323 C 0.83542 0.79078 0.96843 0.0
C1324 C 0.85541 0.80081 0.9654 0.0
C1325 C 0.86523 0.79194 0.95057 0.0
C1326 C 0.82512 0.80026 0.98547 0.0
C1327 C 0.8312 0.80982 0.0226 0.0
C1328 C 0.80923 0.79966 0.96599 0.0
C1329 C 0.80275 0.79103 0.92554 0.0
C1330 C 0.81549 0.79712 0.89278 0.0
C1331 C 0.80931 0.7889 0.85475 0.0
C1332 C 0.79039 0.77467 0.84901 0.0
C1333 C 0.77758 0.76868 0.88128 0.0
C1334 C 0.78369 0.77684 0.9194 0.0
C1335 C 0.7974 0.85763 0.05699 0.0
C1336 C 0.77789 0.84765 0.06675 0.0
C1337 C 0.80654 0.84797 0.04278 0.0
C1338 C 0.79635 0.82813 0.03757 0.0
C1339 C 0.77687 0.81812 0.04737 0.0
C1340 C 0.76778 0.82775 0.06217 0.0
C1341 C 0.80598 0.81794 0.02125 0.0
C1342 C 0.79975 0.80827 0.98438 0.0
C1343 C 0.82184 0.81858 0.04072 0.0
C1344 C 0.82862 0.82787 0.08053 0.0
C1345 C 0.81608 0.82244 0.11358 0.0
C1346 C 0.82253 0.83131 0.15096 0.0
C1347 C 0.84152 0.84556 0.15575 0.0
C1348 C 0.85411 0.85092 0.12318 0.0
C1349 C 0.84774 0.8421 0.08572 0.0
H1350 H 0.84648 0.85241 0.18472 0.0
H1351 H 0.78563 0.76833 0.81954 0.0
H1352 H 0.15209 0.9343 0.04008 0.0
H1353 H 0.16986 0.96673 0.01363 0.0
H1354 H 0.22161 0.97317 0.06527 0.0
H1355 H 0.20387 0.94059 0.09186 0.0
H1356 H 0.21912 1.00543 0.07567 0.0
H1357 H 0.21411 0.96501 0.96779 0.0
H1358 H 0.19827 0.93795 0.92094 0.0
H1359 H 0.16489 0.9611 0.87294 0.0
H1360 H 0.18022 0.9881 0.92017 0.0
H1361 H 0.27958 0.08642 0.94699 0.0
H1362 H 0.26448 0.05382 0.97402 0.0
H1363 H 0.20913 0.04826 0.95831 0.0
H1364 H 0.2241 0.08098 0.93272 0.0
H1365 H 0.21583 0.01561 0.92885 0.0
H1366 H 0.22036 0.05502 0.04351 0.0
H1367 H 0.23784 0.08206 0.08979 0.0
H1368 H 0.27482 0.06056 0.12299 0.0
H1369 H 0.25772 0.03353 0.07633 0.0
C1370 C 0.16722 0.94263 0.04618 0.0
C1371 C 0.17654 0.93478 0.06806 0.0
C1372 C 0.1774 0.96118 0.03082 0.0
C1373 C 0.19716 0.97238 0.03696 0.0
C1374 C 0.20641 0.96483 0.06 0.0
C1375 C 0.19623 0.94618 0.07516 0.0
C1376 C 0.20809 0.99174 0.01847 0.0
C1377 C 0.21858 1.00759 0.0435 0.0
C1378 C 0.20744 0.99469 0.97644 0.0
C1379 C 0.19818 0.97849 0.94786 0.0
C1380 C 0.20326 0.96425 0.94753 0.0
C1381 C 0.1944 0.94893 0.92085 0.0
C1382 C 0.18057 0.9478 0.89402 0.0
C1383 C 0.17559 0.96199 0.89379 0.0
C1384 C 0.18436 0.9773 0.92052 0.0
C1385 C 0.26419 0.07818 0.94897 0.0
C1386 C 0.25303 0.08626 0.93768 0.0
C1387 C 0.25559 0.05959 0.96453 0.0
C1388 C 0.23568 0.04862 0.96821 0.0
C1389 C 0.2245 0.05646 0.95569 0.0
C1390 C 0.23309 0.07516 0.94113 0.0
C1391 C 0.22646 0.02919 0.98617 0.0
C1392 C 0.21637 0.01336 0.96098 0.0
C1393 C 0.2277 0.02624 0.0279 0.0
C1394 C 0.23794 0.04242 0.05601 0.0
C1395 C 0.23236 0.05618 0.06032 0.0
C1396 C 0.24217 0.07147 0.0867 0.0
C1397 C 0.25749 0.07307 0.1092 0.0
C1398 C 0.26298 0.05933 0.10546 0.0
C1399 C 0.25324 0.04402 0.07906 0.0
H1400 H 0.26506 0.08492 0.12962 0.0
H1401 H 0.17374 0.93594 0.87336 0.0
H1402 H 0.94293 0.19649 0.9116 0.0
H1403 H 0.97608 0.21392 0.93497 0.0
H1404 H 0.96793 0.16361 0.99708 0.0
H1405 H 0.93521 0.14605 0.97262 0.0
H1406 H 0.99278 0.22436 0.00365 0.0
H1407 H 1.00762 0.16107 1.00169 0.0
H1408 H 0.99845 0.13207 0.96198 0.0
H1409 H 0.98566 0.15659 0.86023 0.0
H1410 H 0.99499 0.18582 0.89911 0.0
H1411 H 0.07872 0.25372 0.11327 0.0
H1412 H 0.04591 0.23766 0.08783 0.0
H1413 H 0.06502 0.22456 0.9771 0.0
H1414 H 0.09728 0.23905 0.00414 0.0
H1415 H 0.03488 0.19658 0.99101 0.0
H1416 H 0.05136 0.26207 0.99173 0.0
H1417 H 0.06252 0.2939 0.02071 0.0
H1418 H 0.01636 0.27014 0.10574 0.0
H1419 H 1.00505 0.23814 0.07756 0.0
C1420 C 0.94828 0.18912 0.92995 0.0
C1421 C 0.93645 0.1698 0.93982 0.0
C1422 C 0.96723 0.19913 0.94352 0.0
C1423 C 0.97475 0.19009 0.96743 0.0
C1424 C 0.96277 0.17088 0.97789 0.0
C1425 C 0.94396 0.16083 0.96394 0.0
C1426 C 0.99503 0.20062 0.98159 0.0
C1427 C 1.00201 0.21831 1.00076 0.0
C1428 C 1.00738 0.19308 0.97714 0.0
C1429 C 1.00182 0.17555 0.9535 0.0
C1430 C 1.00291 0.16029 0.97081 0.0
C1431 C 0.99768 0.14381 0.94844 0.0
C1432 C 0.99142 0.14246 0.90866 0.0
C1433 C 0.99044 0.15762 0.8911 0.0
C1434 C 0.99567 0.17414 0.91331 0.0
C1435 C 0.07581 0.24734 0.08356 0.0
C1436 C 0.09051 0.24756 0.06073 0.0
C1437 C 0.05705 0.23831 0.06874 0.0
C1438 C 0.05275 0.23006 0.02996 0.0
C1439 C 0.06766 0.23059 0.00713 0.0
C1440 C 0.08619 0.23896 0.02254 0.0
C1441 C 0.03282 0.22045 0.01331 0.0
C1442 C 0.0258 0.20279 0.99382 0.0
C1443 C 0.02076 0.22846 0.01592 0.0
C1444 C 0.02747 0.2477 0.03277 0.0
C1445 C 0.04366 0.26363 0.01676 0.0
C1446 C 0.05 0.2817 0.03302 0.0
C1447 C 0.04018 0.28404 0.06511 0.0
C1448 C 0.02396 0.26831 0.08092 0.0
C1449 C 0.01757 0.25021 0.06479 0.0
H1450 H 0.04512 0.29803 0.07767 0.0
H1451 H 0.98737 0.12969 0.89141 0.0
H1452 H 0.87111 0.5903 0.46549 0.0
H1453 H 0.88399 0.57148 0.43548 0.0
H1454 H 0.84913 0.56196 0.32986 0.0
H1455 H 0.83508 0.57919 0.36146 0.0
H1456 H 0.85136 0.5332 0.33622 0.0
H1457 H 0.90077 0.59917 0.34146 0.0
H1458 H 0.92205 0.62985 0.37453 0.0
H1459 H 0.94564 0.60306 0.44805 0.0
H1460 H 0.92437 0.57219 0.41569 0.0
H1461 H 0.94371 0.54264 0.23284 0.0
H1462 H 0.92535 0.55593 0.2626 0.0
H1463 H 0.88761 0.50181 0.31833 0.0
H1464 H 0.90562 0.48827 0.28772 0.0
H1465 H 0.92162 0.56203 0.33652 0.0
H1466 H 0.84432 0.49753 0.33839 0.0
H1467 H 0.82349 0.4698 0.29614 0.0
H1468 H 0.85665 0.49868 0.19147 0.0
H1469 H 0.87751 0.52665 0.23296 0.0
C1470 C 0.86597 0.58384 0.43623 0.0
C1471 C 0.85208 0.5862 0.41588 0.0
C1472 C 0.87352 0.57326 0.41873 0.0
C1473 C 0.86811 0.56569 0.37953 0.0
C1474 C 0.8537 0.56756 0.35996 0.0
C1475 C 0.84564 0.57747 0.3781 0.0
C1476 C 0.87782 0.55654 0.35808 0.0
C1477 C 0.86673 0.53956 0.33645 0.0
C1478 C 0.89795 0.5648 0.35729 0.0
C1479 C 0.91087 0.58337 0.37644 0.0
C1480 C 0.91045 0.59983 0.36479 0.0
C1481 C 0.92251 0.61724 0.3834 0.0
C1482 C 0.93515 0.61839 0.41344 0.0
C1483 C 0.93582 0.60215 0.42483 0.0
C1484 C 0.92379 0.5847 0.40634 0.0
C1485 C 0.93127 0.53342 0.25075 0.0
C1486 C 0.9262 0.51434 0.25776 0.0
C1487 C 0.92083 0.5411 0.26804 0.0
C1488 C 0.90505 0.52998 0.29297 0.0
C1489 C 0.89953 0.51072 0.29886 0.0
C1490 C 0.90988 0.50296 0.28124 0.0
C1491 C 0.89517 0.53886 0.31447 0.0
C1492 C 0.90624 0.5557 0.33631 0.0
C1493 C 0.87511 0.53086 0.3141 0.0
C1494 C 0.86261 0.51409 0.28892 0.0
C1495 C 0.84714 0.49797 0.30635 0.0
C1496 C 0.83533 0.48221 0.28253 0.0
C1497 C 0.83879 0.48244 0.24118 0.0
C1498 C 0.85403 0.49847 0.22353 0.0
C1499 C 0.86588 0.51427 0.2472 0.0
H1500 H 0.82962 0.47023 0.2228 0.0
H1501 H 0.94446 0.63188 0.42784 0.0
H1502 H 0.53428 0.42063 0.28319 0.0
H1503 H 0.5202 0.3887 0.31263 0.0
H1504 H 0.46446 0.37699 0.27476 0.0
H1505 H 0.4783 0.4088 0.24577 0.0
H1506 H 0.46429 0.36846 0.35276 0.0
H1507 H 0.4887 0.35618 0.22942 0.0
H1508 H 0.51402 0.36176 0.1808 0.0
H1509 H 0.54439 0.3508 0.27342 0.0
H1510 H 0.51936 0.34538 0.32272 0.0
H1511 H 0.40541 0.27113 0.38801 0.0
H1512 H 0.42415 0.30292 0.3601 0.0
H1513 H 0.47595 0.30321 0.39183 0.0
H1514 H 0.45703 0.27062 0.41794 0.0
H1515 H 0.48122 0.31889 0.32264 0.0
H1516 H 0.45792 0.32988 0.44534 0.0
H1517 H 0.43415 0.3252 0.49722 0.0
H1518 H 0.4041 0.34026 0.41152 0.0
H1519 H 0.42756 0.3448 0.35897 0.0
C1520 C 0.51907 0.41115 0.28041 0.0
C1521 C 0.50747 0.41744 0.2621 0.0
C1522 C 0.51101 0.39284 0.29734 0.0
C1523 C 0.4912 0.38033 0.29607 0.0
C1524 C 0.47974 0.38634 0.27644 0.0
C1525 C 0.48774 0.40459 0.25965 0.0
C1526 C 0.4821 0.36145 0.31707 0.0
C1527 C 0.46786 0.35755 0.34578 0.0
C1528 C 0.48731 0.34745 0.30957 0.0
C1529 C 0.50225 0.35057 0.27983 0.0
C1530 C 0.50085 0.3551 0.23948 0.0
C1531 C 0.51513 0.3582 0.21179 0.0
C1532 C 0.53083 0.35668 0.22403 0.0
C1533 C 0.53224 0.35199 0.26398 0.0
C1534 C 0.518 0.34889 0.29179 0.0
C1535 C 0.42079 0.27798 0.38964 0.0
C1536 C 0.42966 0.26831 0.40583 0.0
C1537 C 0.43157 0.29632 0.37368 0.0
C1538 C 0.4516 0.3059 0.37457 0.0
C1539 C 0.46055 0.2963 0.39085 0.0
C1540 C 0.44971 0.27768 0.40606 0.0
C1541 C 0.46295 0.32565 0.35757 0.0
C1542 C 0.47769 0.3298 0.32984 0.0
C1543 C 0.45847 0.34008 0.3665 0.0
C1544 C 0.44444 0.33756 0.39815 0.0
C1545 C 0.44619 0.3321 0.43751 0.0
C1546 C 0.43277 0.32948 0.46703 0.0
C1547 C 0.41761 0.3324 0.45765 0.0
C1548 C 0.41586 0.338 0.41874 0.0
C1549 C 0.42922 0.34063 0.38909 0.0
H1550 H 0.40723 0.33035 0.48055 0.0
H1551 H 0.54188 0.3591 0.20256 0.0
H1552 H 0.6045 0.1196 0.27099 0.0
H1553 H 0.63649 0.1379 0.30034 0.0
H1554 H 0.6452 0.09015 0.28335 0.0
H1555 H 0.61354 0.07189 0.25384 0.0
H1556 H 0.65317 0.10433 0.36149 0.0
H1557 H 0.66804 0.12892 0.22477 0.0
H1558 H 0.66453 0.14479 0.16452 0.0
H1559 H 0.6792 0.19475 0.23445 0.0
H1560 H 0.68255 0.17906 0.29526 0.0
H1561 H 0.74986 0.13812 0.39866 0.0
H1562 H 0.71794 0.12508 0.3713 0.0
H1563 H 0.72273 0.18039 0.37774 0.0
H1564 H 0.75528 0.19382 0.40393 0.0
H1565 H 0.70667 0.16494 0.30973 0.0
H1566 H 0.69382 0.14281 0.44477 0.0
H1567 H 0.69662 0.12801 0.5075 0.0
H1568 H 0.67673 0.07493 0.44572 0.0
H1569 H 0.67406 0.08948 0.38245 0.0
C1570 C 0.61333 0.11309 0.27282 0.0
C1571 C 0.60628 0.09418 0.25995 0.0
C1572 C 0.63164 0.12359 0.28971 0.0
C1573 C 0.64328 0.11539 0.29428 0.0
C1574 C 0.6365 0.09677 0.28039 0.0
C1575 C 0.61834 0.08636 0.26324 0.0
C1576 C 0.66214 0.12569 0.31512 0.0
C1577 C 0.66493 0.11749 0.34995 0.0
C1578 C 0.67727 0.14331 0.30122 0.0
C1579 C 0.67533 0.15274 0.26464 0.0
C1580 C 0.67035 0.14323 0.22737 0.0
C1581 C 0.66843 0.1522 0.19311 0.0
C1582 C 0.67158 0.17075 0.19568 0.0
C1583 C 0.67673 0.18037 0.23251 0.0
C1584 C 0.67866 0.17145 0.26687 0.0
C1585 C 0.74415 0.14757 0.39481 0.0
C1586 C 0.75525 0.16707 0.40394 0.0
C1587 C 0.72573 0.14002 0.37918 0.0
C1588 C 0.7176 0.15159 0.37295 0.0
C1589 C 0.72856 0.17107 0.38229 0.0
C1590 C 0.74717 0.17873 0.39755 0.0
C1591 C 0.69792 0.14329 0.35565 0.0
C1592 C 0.69492 0.15187 0.32161 0.0
C1593 C 0.68241 0.12616 0.37072 0.0
C1594 C 0.68387 0.11728 0.40877 0.0
C1595 C 0.69016 0.12801 0.44449 0.0
C1596 C 0.69171 0.11966 0.48016 0.0
C1597 C 0.68689 0.10055 0.48058 0.0
C1598 C 0.68046 0.08974 0.44534 0.0
C1599 C 0.6789 0.09802 0.40958 0.0
H1600 H 0.68811 0.09412 0.50822 0.0
H1601 H 0.67008 0.17767 0.16913 0.0
H1602 H 0.53934 0.12181 0.32244 0.0
H1603 H 0.52113 0.13642 0.3474 0.0
H1604 H 0.47598 0.10286 0.26368 0.0
H1605 H 0.49386 0.08767 0.2395 0.0
H1606 H 0.48902 0.14369 0.26398 0.0
H1607 H 0.46342 0.09005 0.35083 0.0
H1608 H 0.45885 0.06623 0.4025 0.0
H1609 H 0.48965 0.11072 0.48856 0.0
H1610 H 0.49448 0.13483 0.43733 0.0
H1611 H 0.41987 0.15479 0.41365 0.0
H1612 H 0.43465 0.13713 0.38703 0.0
H1613 H 0.48251 0.18955 0.34466 0.0
H1614 H 0.46765 0.20725 0.37069 0.0
H1615 H 0.4658 0.13724 0.40469 0.0
H1616 H 0.50118 0.18078 0.25914 0.0
H1617 H 0.4954 0.19972 0.20864 0.0
H1618 H 0.43559 0.1689 0.23585 0.0
H1619 H 0.44096 0.14959 0.286 0.0
C1620 C 0.52552 0.1175 0.30936 0.0
C1621 C 0.5181 0.10362 0.27882 0.0
C1622 C 0.51507 0.12579 0.32384 0.0
C1623 C 0.49715 0.12072 0.30754 0.0
C1624 C 0.48975 0.10698 0.2768 0.0
C1625 C 0.49999 0.09832 0.26299 0.0
C1626 C 0.48657 0.13034 0.32156 0.0
C1627 C 0.48402 0.14235 0.29481 0.0
C1628 C 0.4796 0.1283 0.36146 0.0
C1629 C 0.47951 0.11424 0.3901 0.0
C1630 C 0.46962 0.09478 0.38047 0.0
C1631 C 0.46678 0.08122 0.40982 0.0
C1632 C 0.47377 0.08697 0.44888 0.0
C1633 C 0.48411 0.1063 0.45837 0.0
C1634 C 0.48695 0.11991 0.42918 0.0
C1635 C 0.43357 0.16258 0.39875 0.0
C1636 C 0.44257 0.18246 0.3944 0.0
C1637 C 0.44202 0.15245 0.38349 0.0
C1638 C 0.45965 0.16192 0.36334 0.0
C1639 C 0.46877 0.18182 0.3594 0.0
C1640 C 0.46031 0.19196 0.37462 0.0
C1641 C 0.46865 0.15099 0.34756 0.0
C1642 C 0.471 0.1388 0.37397 0.0
C1643 C 0.47492 0.15248 0.30709 0.0
C1644 C 0.47153 0.16389 0.27667 0.0
C1645 C 0.48679 0.17801 0.25424 0.0
C1646 C 0.48358 0.18881 0.22568 0.0
C1647 C 0.46515 0.18556 0.21915 0.0
C1648 C 0.44987 0.17145 0.24104 0.0
C1649 C 0.453 0.16059 0.26958 0.0
H1650 H 0.46271 0.19395 0.19705 0.0
H1651 H 0.47122 0.07643 0.47179 0.0
H1652 H 0.86656 0.27355 0.43675 0.0
H1653 H 0.88455 0.30655 0.41202 0.0
H1654 H 0.83861 0.29554 0.33081 0.0
H1655 H 0.8204 0.26288 0.35608 0.0
H1656 H 0.87765 0.31454 0.29529 0.0
H1657 H 0.84047 0.31858 0.406 0.0
H1658 H 0.82971 0.31454 0.47675 0.0
H1659 H 0.88742 0.35055 0.51587 0.0
H1660 H 0.89855 0.35456 0.44533 0.0
H1661 H 0.89281 0.41689 0.29278 0.0
H1662 H 0.87802 0.38435 0.31853 0.0
H1663 H 0.92828 0.38176 0.28685 0.0
H1664 H 0.94317 0.4144 0.26064 0.0
H1665 H 0.88884 0.36953 0.37999 0.0
H1666 H 0.91711 0.33937 0.26412 0.0
H1667 H 0.92714 0.34362 0.1927 0.0
H1668 H 0.88548 0.35974 0.16341 0.0
H1669 H 0.87536 0.35574 0.23474 0.0
C1670 C 0.86027 0.27822 0.41381 0.0
C1671 C 0.842 0.26562 0.39857 0.0
C1672 C 0.87057 0.29705 0.39966 0.0
C1673 C 0.86295 0.30348 0.36943 0.0
C1674 C 0.8448 0.29087 0.35401 0.0
C1675 C 0.83435 0.27223 0.36871 0.0
C1676 C 0.87368 0.32337 0.35399 0.0
C1677 C 0.88021 0.32656 0.31394 0.0
C1678 C 0.87703 0.33911 0.37813 0.0
C1679 C 0.87036 0.33666 0.42048 0.0
C1680 C 0.85088 0.32546 0.42973 0.0
C1681 C 0.84471 0.32322 0.46978 0.0
C1682 C 0.85788 0.33223 0.5008 0.0
C1683 C 0.87724 0.34354 0.49182 0.0
C1684 C 0.88349 0.34581 0.45182 0.0
C1685 C 0.90072 0.4094 0.29099 0.0
C1686 C 0.91919 0.41829 0.27447 0.0
C1687 C 0.89224 0.39078 0.30594 0.0
C1688 C 0.90195 0.3805 0.30459 0.0
C1689 C 0.92037 0.38927 0.28784 0.0
C1690 C 0.92889 0.40796 0.2729 0.0
C1691 C 0.89275 0.36073 0.32117 0.0
C1692 C 0.88652 0.35754 0.36148 0.0
C1693 C 0.88968 0.34499 0.29734 0.0
C1694 C 0.89555 0.34731 0.25456 0.0
C1695 C 0.91009 0.34377 0.24234 0.0
C1696 C 0.91583 0.3462 0.20196 0.0
C1697 C 0.90696 0.35196 0.17354 0.0
C1698 C 0.89237 0.35533 0.18546 0.0
C1699 C 0.88668 0.35306 0.22586 0.0
H1700 H 0.91139 0.35379 0.14228 0.0
H1701 H 0.85307 0.33049 0.53178 0.0
H1702 H 0.61023 0.48113 0.27065 0.0
H1703 H 0.64279 0.49882 0.29649 0.0
H1704 H 0.63843 0.54962 0.30336 0.0
H1705 H 0.6062 0.53216 0.27533 0.0
H1706 H 0.672 0.55993 0.28122 0.0
H1707 H 0.63419 0.52017 0.3892 0.0
H1708 H 0.6112 0.49036 0.42319 0.0
H1709 H 0.64779 0.46714 0.40159 0.0
H1710 H 0.67089 0.49673 0.36698 0.0
H1711 H 0.75459 0.60685 0.41013 0.0
H1712 H 0.72153 0.59154 0.38576 0.0
H1713 H 0.72422 0.54136 0.35468 0.0
H1714 H 0.75698 0.55642 0.37895 0.0
H1715 H 0.69104 0.53225 0.39308 0.0
H1716 H 0.72857 0.57395 0.28303 0.0
H1717 H 0.75114 0.60521 0.25355 0.0
H1718 H 0.7139 0.62645 0.28599 0.0
H1719 H 0.69124 0.59541 0.31617 0.0
C1720 C 0.61627 0.49611 0.27736 0.0
C1721 C 0.6056 0.50522 0.27102 0.0
C1722 C 0.63488 0.50622 0.29256 0.0
C1723 C 0.64307 0.52554 0.30309 0.0
C1724 C 0.63255 0.53475 0.29576 0.0
C1725 C 0.61408 0.52474 0.2797 0.0
C1726 C 0.66251 0.53607 0.32178 0.0
C1727 C 0.67599 0.55393 0.30609 0.0
C1728 C 0.66801 0.52841 0.35424 0.0
C1729 C 0.65419 0.51061 0.37519 0.0
C1730 C 0.63728 0.50866 0.39147 0.0
C1731 C 0.62424 0.49181 0.41088 0.0
C1732 C 0.62801 0.47685 0.41447 0.0
C1733 C 0.64487 0.47873 0.39875 0.0
C1734 C 0.65796 0.49555 0.37927 0.0
C1735 C 0.7481 0.59254 0.39819 0.0
C1736 C 0.75848 0.5829 0.39644 0.0
C1737 C 0.72922 0.58382 0.38412 0.0
C1738 C 0.72037 0.5653 0.36805 0.0
C1739 C 0.73066 0.55562 0.36692 0.0
C1740 C 0.74947 0.56432 0.38073 0.0
C1741 C 0.70046 0.55585 0.3521 0.0
C1742 C 0.68692 0.53821 0.36837 0.0
C1743 C 0.6948 0.56389 0.32082 0.0
C1744 C 0.70832 0.58243 0.30218 0.0
C1745 C 0.72526 0.58533 0.2841 0.0
C1746 C 0.73805 0.603 0.26725 0.0
C1747 C 0.73395 0.6178 0.26802 0.0
C1748 C 0.71705 0.61497 0.28549 0.0
C1749 C 0.70423 0.59735 0.30244 0.0
H1750 H 0.74384 0.63144 0.25502 0.0
H1751 H 0.6179 0.46381 0.4295 0.0
H1752 H 0.57103 0.82245 0.60962 0.0
H1753 H 0.55238 0.83536 0.64042 0.0
H1754 H 0.59833 0.89234 0.61813 0.0
H1755 H 0.617 0.87968 0.5874 0.0
H1756 H 0.58615 0.88713 0.6967 0.0
H1757 H 0.55711 0.87328 0.5637 0.0
H1758 H 0.53993 0.85219 0.50657 0.0
H1759 H 0.49293 0.817 0.58444 0.0
H1760 H 0.50994 0.83776 0.64217 0.0
H1761 H 0.55017 0.94749 0.73621 0.0
H1762 H 0.56324 0.92895 0.70782 0.0
H1763 H 0.50887 0.87768 0.7217 0.0
H1764 H 0.49526 0.89654 0.74857 0.0
H1765 H 0.52281 0.87595 0.65307 0.0
H1766 H 0.54929 0.88922 0.78469 0.0
H1767 H 0.56556 0.9086 0.8445 0.0
H1768 H 0.61618 0.94199 0.77447 0.0
H1769 H 0.60014 0.92298 0.71408 0.0
C1770 C 0.57707 0.83774 0.61063 0.0
C1771 C 0.59563 0.84997 0.59599 0.0
C1772 C 0.56635 0.8451 0.62831 0.0
C1773 C 0.57394 0.86486 0.63177 0.0
C1774 C 0.59217 0.87706 0.61605 0.0
C1775 C 0.60283 0.86975 0.59824 0.0
C1776 C 0.56351 0.87303 0.65355 0.0
C1777 C 0.57238 0.88483 0.6869 0.0
C1778 C 0.54512 0.86935 0.64209 0.0
C1779 C 0.53488 0.85696 0.60733 0.0
C1780 C 0.54317 0.86096 0.56871 0.0
C1781 C 0.53346 0.84908 0.5362 0.0
C1782 C 0.51537 0.83323 0.5419 0.0
C1783 C 0.50695 0.82927 0.58008 0.0
C1784 C 0.51661 0.84109 0.61269 0.0
C1785 C 0.54094 0.93223 0.73389 0.0
C1786 C 0.52164 0.92355 0.7453 0.0
C1787 C 0.54853 0.92156 0.71764 0.0
C1788 C 0.53727 0.90174 0.7133 0.0
C1789 C 0.51797 0.89292 0.72485 0.0
C1790 C 0.51021 0.90371 0.74051 0.0
C1791 C 0.54573 0.89059 0.69562 0.0
C1792 C 0.53649 0.87815 0.66321 0.0
C1793 C 0.56366 0.89337 0.70842 0.0
C1794 C 0.57346 0.90474 0.74478 0.0
C1795 C 0.56386 0.90076 0.78199 0.0
C1796 C 0.57305 0.91167 0.816 0.0
C1797 C 0.59188 0.92653 0.81327 0.0
C1798 C 0.60159 0.93048 0.77654 0.0
C1799 C 0.59247 0.91962 0.74242 0.0
H1800 H 0.59896 0.93497 0.83964 0.0
H1801 H 0.50788 0.82405 0.5167 0.0
H1802 H 0.14342 0.74125 0.59811 0.0
H1803 H 0.13121 0.70987 0.62827 0.0
H1804 H 0.188 0.71815 0.63228 0.0
H1805 H 0.20057 0.74996 0.60242 0.0
H1806 H 0.15776 0.68005 0.60554 0.0
H1807 H 0.17199 0.72443 0.71526 0.0
H1808 H 0.17047 0.74953 0.75417 0.0
H1809 H 0.10954 0.71522 0.76052 0.0
H1810 H 0.11065 0.69006 0.72114 0.0
H1811 H 0.12585 0.59782 0.73234 0.0
H1812 H 0.14466 0.62998 0.70437 0.0
H1813 H 0.09691 0.63896 0.72058 0.0
H1814 H 0.0784 0.60736 0.74961 0.0
H1815 H 0.1267 0.66953 0.73936 0.0
H1816 H 0.10997 0.62736 0.62632 0.0
H1817 H 0.10835 0.60112 0.58585 0.0
H1818 H 0.16945 0.6296 0.58119 0.0
H1819 H 0.17143 0.65592 0.62208 0.0
C1820 C 0.1534 0.73644 0.60483 0.0
C1821 C 0.17307 0.74833 0.5978 0.0
C1822 C 0.14634 0.71843 0.62232 0.0
C1823 C 0.15868 0.71169 0.63299 0.0
C1824 C 0.17821 0.72307 0.62441 0.0
C1825 C 0.18537 0.74127 0.6073 0.0
C1826 C 0.15106 0.69309 0.65448 0.0
C1827 C 0.15127 0.6778 0.63513 0.0
C1828 C 0.14207 0.68996 0.69257 0.0
C1829 C 0.14141 0.70541 0.71501 0.0
C1830 C 0.15826 0.72234 0.72452 0.0
C1831 C 0.15746 0.73656 0.74676 0.0
C1832 C 0.13991 0.73394 0.75983 0.0
C1833 C 0.12311 0.71721 0.75041 0.0
C1834 C 0.12382 0.70297 0.72815 0.0
C1835 C 0.11945 0.60675 0.73054 0.0
C1836 C 0.10052 0.59984 0.74335 0.0
C1837 C 0.13018 0.62511 0.71406 0.0
C1838 C 0.12217 0.63693 0.70952 0.0
C1839 C 0.10352 0.63025 0.72356 0.0
C1840 C 0.09289 0.61205 0.74027 0.0
C1841 C 0.1329 0.6562 0.69016 0.0
C1842 C 0.13334 0.6717 0.70994 0.0
C1843 C 0.14199 0.65934 0.65202 0.0
C1844 C 0.14085 0.64349 0.6277 0.0
C1845 C 0.12306 0.62795 0.61697 0.0
C1846 C 0.12208 0.61307 0.5939 0.0
C1847 C 0.13879 0.61366 0.58108 0.0
C1848 C 0.15652 0.62915 0.59123 0.0
C1849 C 0.15758 0.64405 0.61434 0.0
H1850 H 0.13799 0.60214 0.56318 0.0
H1851 H 0.13928 0.7448 0.77748 0.0
H1852 H 0.4233 0.5281 0.73643 0.0
H1853 H 0.39145 0.51498 0.70644 0.0
H1854 H 0.38596 0.45937 0.70332 0.0
H1855 H 0.41741 0.47214 0.73362 0.0
H1856 H 0.37818 0.47128 0.6285 0.0
H1857 H 0.36136 0.46763 0.77003 0.0
H1858 H 0.36313 0.4811 0.83758 0.0
H1859 H 0.34503 0.51851 0.78845 0.0
H1860 H 0.34341 0.50543 0.72047 0.0
H1861 H 0.28281 0.40518 0.58585 0.0
H1862 H 0.31477 0.42439 0.61284 0.0
H1863 H 0.30501 0.47161 0.62816 0.0
H1864 H 0.27255 0.45216 0.60206 0.0
H1865 H 0.32161 0.46843 0.69308 0.0
H1866 H 0.33569 0.47163 0.55387 0.0
H1867 H 0.33451 0.46005 0.48466 0.0
H1868 H 0.35891 0.42664 0.5256 0.0
H1869 H 0.35999 0.43781 0.59521 0.0
C1870 C 0.41521 0.51302 0.72994 0.0
C1871 C 0.42304 0.50123 0.73757 0.0
C1872 C 0.39699 0.50555 0.71273 0.0
C1873 C 0.38633 0.48619 0.70241 0.0
C1874 C 0.39393 0.47436 0.71082 0.0
C1875 C 0.41194 0.48172 0.72845 0.0
C1876 C 0.36757 0.47819 0.68147 0.0
C1877 C 0.36576 0.47051 0.64273 0.0
C1878 C 0.35155 0.47791 0.69926 0.0
C1879 C 0.35249 0.48572 0.7401 0.0
C1880 C 0.35793 0.47886 0.77357 0.0
C1881 C 0.35887 0.48639 0.81195 0.0
C1882 C 0.35426 0.50069 0.81728 0.0
C1883 C 0.34864 0.50745 0.78426 0.0
C1884 C 0.34769 0.49998 0.74581 0.0
C1885 C 0.28744 0.41973 0.59436 0.0
C1886 C 0.27496 0.42705 0.59151 0.0
C1887 C 0.30587 0.43079 0.60977 0.0
C1888 C 0.31255 0.44962 0.62225 0.0
C1889 C 0.30028 0.45715 0.61877 0.0
C1890 C 0.28173 0.44602 0.60351 0.0
C1891 C 0.33202 0.46097 0.64034 0.0
C1892 C 0.33402 0.46935 0.6785 0.0
C1893 C 0.34836 0.46221 0.6217 0.0
C1894 C 0.34779 0.45546 0.57985 0.0
C1895 C 0.34068 0.46171 0.54819 0.0
C1896 C 0.34005 0.45523 0.50886 0.0
C1897 C 0.3466 0.44259 0.50075 0.0
C1898 C 0.35384 0.43643 0.53194 0.0
C1899 C 0.35448 0.44285 0.57133 0.0
H1900 H 0.3461 0.43759 0.47028 0.0
H1901 H 0.35499 0.5065 0.84702 0.0
H1902 H 0.15957 0.40977 0.60967 0.0
H1903 H 0.14237 0.42475 0.6379 0.0
H1904 H 0.19359 0.47961 0.63094 0.0
H1905 H 0.21098 0.46453 0.60468 0.0
H1906 H 0.17815 0.47775 0.6985 0.0
H1907 H 0.15286 0.46315 0.56348 0.0
H1908 H 0.1372 0.44247 0.50487 0.0
H1909 H 0.08723 0.40823 0.57614 0.0
H1910 H 0.10269 0.42858 0.63532 0.0
H1911 H 0.13783 0.53739 0.7193 0.0
H1912 H 0.15301 0.51986 0.6945 0.0
H1913 H 0.10193 0.46681 0.72057 0.0
H1914 H 0.08655 0.48434 0.74523 0.0
H1915 H 0.11592 0.46626 0.64624 0.0
H1916 H 0.14125 0.48249 0.78027 0.0
H1917 H 0.15711 0.50399 0.83764 0.0
H1918 H 0.20748 0.53617 0.76612 0.0
H1919 H 0.19183 0.51501 0.70813 0.0
C1920 C 0.16709 0.42505 0.61378 0.0
C1921 C 0.18662 0.43597 0.60472 0.0
C1922 C 0.15722 0.43366 0.62984 0.0
C1923 C 0.16652 0.45345 0.63619 0.0
C1924 C 0.18599 0.46435 0.62654 0.0
C1925 C 0.19594 0.45571 0.61127 0.0
C1926 C 0.15627 0.46284 0.65395 0.0
C1927 C 0.16467 0.47538 0.68657 0.0
C1928 C 0.13835 0.45946 0.6395 0.0
C1929 C 0.12901 0.44727 0.60391 0.0
C1930 C 0.13858 0.45114 0.56671 0.0
C1931 C 0.12973 0.43949 0.53338 0.0
C1932 C 0.11125 0.42401 0.53681 0.0
C1933 C 0.10155 0.4202 0.57354 0.0
C1934 C 0.11035 0.4318 0.60697 0.0
C1935 C 0.12984 0.52199 0.72012 0.0
C1936 C 0.11098 0.51229 0.73449 0.0
C1937 C 0.13858 0.51196 0.70597 0.0
C1938 C 0.12872 0.49197 0.70593 0.0
C1939 C 0.10987 0.48222 0.72032 0.0
C1940 C 0.10112 0.49227 0.73463 0.0
C1941 C 0.13801 0.48134 0.69012 0.0
C1942 C 0.1294 0.46855 0.65806 0.0
C1943 C 0.15581 0.4846 0.70482 0.0
C1944 C 0.16531 0.49725 0.73976 0.0
C1945 C 0.15566 0.49423 0.77669 0.0
C1946 C 0.16462 0.50634 0.80933 0.0
C1947 C 0.18328 0.52146 0.8055 0.0
C1948 C 0.19303 0.52446 0.76904 0.0
C1949 C 0.18413 0.5124 0.73629 0.0
H1950 H 0.19018 0.53082 0.8308 0.0
H1951 H 0.10442 0.41501 0.51097 0.0
H1952 H 0.53706 0.60551 0.75436 0.0
H1953 H 0.55452 0.63856 0.73046 0.0
H1954 H 0.50296 0.63176 0.67686 0.0
H1955 H 0.48543 0.59908 0.70154 0.0
H1956 H 0.56291 0.65486 0.66001 0.0
H1957 H 0.50166 0.67228 0.67787 0.0
H1958 H 0.47447 0.66407 0.72317 0.0
H1959 H 0.50186 0.65024 0.81757 0.0
H1960 H 0.52931 0.65862 0.77306 0.0
H1961 H 0.59077 0.74114 0.55246 0.0
H1962 H 0.57491 0.70839 0.57822 0.0
H1963 H 0.56679 0.72827 0.69329 0.0
H1964 H 0.58095 0.76048 0.66612 0.0
H1965 H 0.53785 0.69868 0.68296 0.0
H1966 H 0.6026 0.71297 0.66845 0.0
H1967 H 0.63294 0.72301 0.63298 0.0
H1968 H 0.60432 0.67684 0.54942 0.0
H1969 H 0.57377 0.66665 0.58414 0.0
C1970 C 0.52942 0.61113 0.73778 0.0
C1971 C 0.50978 0.59966 0.73026 0.0
C1972 C 0.53946 0.63001 0.72388 0.0
C1973 C 0.53009 0.63787 0.70215 0.0
C1974 C 0.51052 0.6263 0.69423 0.0
C1975 C 0.50049 0.60752 0.70833 0.0
C1976 C 0.54065 0.65807 0.68763 0.0
C1977 C 0.55747 0.66447 0.66514 0.0
C1978 C 0.53391 0.67089 0.69494 0.0
C1979 C 0.51745 0.66588 0.72194 0.0
C1980 C 0.5019 0.66754 0.70832 0.0
C1981 C 0.48644 0.66285 0.73387 0.0
C1982 C 0.4864 0.65657 0.77317 0.0
C1983 C 0.50186 0.65503 0.78707 0.0
C1984 C 0.51736 0.65972 0.76167 0.0
C1985 C 0.58553 0.7384 0.5832 0.0
C1986 C 0.587 0.75328 0.60727 0.0
C1987 C 0.57662 0.71967 0.59819 0.0
C1988 C 0.56981 0.7156 0.63824 0.0
C1989 C 0.57167 0.73072 0.66228 0.0
C1990 C 0.57986 0.74922 0.64681 0.0
C1991 C 0.56027 0.69569 0.65506 0.0
C1992 C 0.54348 0.68922 0.67786 0.0
C1993 C 0.56753 0.68312 0.64944 0.0
C1994 C 0.58589 0.68915 0.62868 0.0
C1995 C 0.60277 0.70502 0.64239 0.0
C1996 C 0.62 0.71073 0.62243 0.0
C1997 C 0.62055 0.7006 0.58891 0.0
C1998 C 0.60387 0.68469 0.57536 0.0
C1999 C 0.5866 0.67893 0.59519 0.0
H2000 H 0.63389 0.70505 0.57348 0.0
H2001 H 0.47442 0.65295 0.79289 0.0
H2002 H 0.27111 0.86399 0.61182 0.0
H2003 H 0.30357 0.88129 0.63879 0.0
H2004 H 0.30728 0.83012 0.63182 0.0
H2005 H 0.27453 0.81265 0.60709 0.0
H2006 H 0.32172 0.84545 0.69792 0.0
H2007 H 0.33106 0.87125 0.56362 0.0
H2008 H 0.32544 0.88702 0.50583 0.0
H2009 H 0.34139 0.93661 0.57807 0.0
H2010 H 0.3469 0.92105 0.63643 0.0
H2011 H 0.42199 0.88644 0.71617 0.0
H2012 H 0.38928 0.87131 0.69112 0.0
H2013 H 0.38649 0.92156 0.72087 0.0
H2014 H 0.41939 0.93688 0.74588 0.0
H2015 H 0.37162 0.90805 0.64582 0.0
H2016 H 0.36375 0.88178 0.77917 0.0
H2017 H 0.37009 0.8656 0.83506 0.0
H2018 H 0.35205 0.81608 0.76124 0.0
H2019 H 0.34584 0.83206 0.70472 0.0
C2020 C 0.27894 0.8565 0.61571 0.0
C2021 C 0.27025 0.83695 0.60715 0.0
C2022 C 0.2976 0.86644 0.63101 0.0
C2023 C 0.30822 0.8572 0.63699 0.0
C2024 C 0.29955 0.8377 0.62776 0.0
C2025 C 0.28079 0.8277 0.61336 0.0
C2026 C 0.32807 0.86749 0.65404 0.0
C2027 C 0.33264 0.85901 0.68597 0.0
C2028 C 0.34241 0.8855 0.63959 0.0
C2029 C 0.33921 0.89491 0.60448 0.0
C2030 C 0.33325 0.88547 0.56724 0.0
C2031 C 0.3301 0.89438 0.53438 0.0
C2032 C 0.333 0.91278 0.53831 0.0
C2033 C 0.33912 0.92235 0.57508 0.0
C2034 C 0.34228 0.9135 0.60805 0.0
C2035 C 0.41442 0.89427 0.71766 0.0
C2036 C 0.42334 0.91287 0.7333 0.0
C2037 C 0.39564 0.88556 0.70335 0.0
C2038 C 0.38525 0.89518 0.70436 0.0
C2039 C 0.39415 0.9138 0.71978 0.0
C2040 C 0.41294 0.92251 0.73428 0.0
C2041 C 0.3652 0.8858 0.68898 0.0
C2042 C 0.36062 0.89448 0.65759 0.0
C2043 C 0.35089 0.86786 0.70354 0.0
C2044 C 0.35448 0.85818 0.73761 0.0
C2045 C 0.36126 0.86749 0.77477 0.0
C2046 C 0.36481 0.85834 0.80657 0.0
C2047 C 0.36152 0.83984 0.80168 0.0
C2048 C 0.35461 0.83042 0.76499 0.0
C2049 C 0.35105 0.8395 0.73307 0.0
H2050 H 0.36428 0.83279 0.82633 0.0
H2051 H 0.33055 0.91965 0.51284 0.0
loop_
_geom_bond_atom_site_label_1
_geom_bond_atom_site_label_2
_geom_bond_distance
_geom_bond_site_symmetry_2
_ccdc_geom_bond_type
Co0 O1 2.216 . S
Co0 O2 2.091 . S
Co0 O4 2.004 . S
Co0 O10 2.028 . S
Co0 O12 2.137 . S
Co0 O13 2.244 . S
O1 Co0 2.216 . S
O1 C8 1.247 . S
O2 Co0 2.091 . S
O2 C8 1.261 . S
C3 O12 1.247 . S
C3 O13 1.272 . S
O4 Co0 2.004 . S
O4 C9 1.259 . S
Co5 O6 2.061 . S
Co5 O11 2.052 . S
Co5 O13 2.135 . S
O6 Co5 2.061 . S
O6 C9 1.235 . S
C7 O10 1.235 1_556 S
C7 O11 1.241 1_556 S
C8 O1 1.247 . S
C8 O2 1.261 . S
C9 O4 1.259 . S
C9 O6 1.235 . S
O10 Co0 2.028 . S
O10 C7 1.235 1_554 S
O11 Co5 2.052 . S
O11 C7 1.241 1_554 S
O12 Co0 2.137 . S
O12 C3 1.247 . S
O13 Co0 2.244 . S
O13 C3 1.272 . S
O13 Co5 2.135 . S
Co14 O15 2.216 . S
Co14 O16 2.091 . S
Co14 O18 2.004 . S
Co14 O24 2.029 . S
Co14 O26 2.137 . S
Co14 O27 2.244 . S
O15 Co14 2.216 . S
O15 C22 1.247 . S
O16 Co14 2.091 . S
O16 C22 1.261 . S
C17 O26 1.247 . S
C17 O27 1.272 . S
O18 Co14 2.004 . S
O18 C23 1.259 . S
Co19 O20 2.061 . S
Co19 O25 2.052 . S
Co19 O27 2.135 . S
O20 Co19 2.061 . S
O20 C23 1.235 . S
C21 O24 1.235 1_556 S
C21 O25 1.241 1_556 S
C22 O15 1.247 . S
C22 O16 1.261 . S
C23 O18 1.259 . S
C23 O20 1.235 . S
O24 Co14 2.029 . S
O24 C21 1.235 1_554 S
O25 Co19 2.052 . S
O25 C21 1.241 1_554 S
O26 Co14 2.137 . S
O26 C17 1.247 . S
O27 Co14 2.244 . S
O27 C17 1.272 . S
O27 Co19 2.135 . S
Co28 O29 2.216 . S
Co28 O30 2.091 . S
Co28 O32 2.004 . S
Co28 O38 2.028 . S
Co28 O40 2.137 . S
Co28 O41 2.244 . S
O29 Co28 2.216 . S
O29 C36 1.247 . S
O30 Co28 2.091 . S
O30 C36 1.261 . S
C31 O40 1.247 . S
C31 O41 1.272 . S
O32 Co28 2.004 . S
O32 C37 1.259 . S
Co33 O34 2.061 . S
Co33 O39 2.052 . S
Co33 O41 2.135 . S
O34 Co33 2.061 . S
O34 C37 1.235 . S
C35 O38 1.235 1_556 S
C35 O39 1.241 1_556 S
C36 O29 1.247 . S
C36 O30 1.261 . S
C37 O32 1.259 . S
C37 O34 1.235 . S
O38 Co28 2.028 . S
O38 C35 1.235 1_554 S
O39 Co33 2.052 . S
O39 C35 1.241 1_554 S
O40 Co28 2.137 . S
O40 C31 1.247 . S
O41 Co28 2.244 . S
O41 C31 1.272 . S
O41 Co33 2.135 . S
Co42 O43 2.216 . S
Co42 O44 2.091 . S
Co42 O46 2.004 . S
Co42 O52 2.028 . S
Co42 O54 2.137 . S
Co42 O55 2.244 . S
O43 Co42 2.216 . S
O43 C50 1.247 . S
O44 Co42 2.091 . S
O44 C50 1.261 . S
C45 O54 1.247 . S
C45 O55 1.272 . S
O46 Co42 2.004 . S
O46 C51 1.259 . S
Co47 O48 2.061 . S
Co47 O53 2.052 . S
Co47 O55 2.135 . S
O48 Co47 2.061 . S
O48 C51 1.235 . S
C49 O52 1.235 1_554 S
C49 O53 1.241 1_554 S
C50 O43 1.247 . S
C50 O44 1.261 . S
C51 O46 1.259 . S
C51 O48 1.235 . S
O52 Co42 2.028 . S
O52 C49 1.235 1_556 S
O53 Co47 2.052 . S
O53 C49 1.241 1_556 S
O54 Co42 2.137 . S
O54 C45 1.247 . S
O55 Co42 2.244 . S
O55 C45 1.272 . S
O55 Co47 2.135 . S
Co56 O57 2.216 . S
Co56 O58 2.091 . S
Co56 O60 2.004 . S
Co56 O66 2.028 . S
Co56 O68 2.137 . S
Co56 O69 2.244 . S
O57 Co56 2.216 . S
O57 C64 1.247 . S
O58 Co56 2.091 . S
O58 C64 1.261 . S
C59 O68 1.247 . S
C59 O69 1.272 . S
O60 Co56 2.004 . S
O60 C65 1.259 . S
Co61 O62 2.061 . S
Co61 O67 2.052 . S
Co61 O69 2.135 . S
O62 Co61 2.061 . S
O62 C65 1.235 . S
C63 O66 1.235 1_554 S
C63 O67 1.241 1_554 S
C64 O57 1.247 . S
C64 O58 1.261 . S
C65 O60 1.259 . S
C65 O62 1.235 . S
O66 Co56 2.028 . S
O66 C63 1.235 1_556 S
O67 Co61 2.052 . S
O67 C63 1.241 1_556 S
O68 Co56 2.137 . S
O68 C59 1.247 . S
O69 Co56 2.244 . S
O69 C59 1.272 . S
O69 Co61 2.135 . S
Co70 O71 2.216 . S
Co70 O72 2.091 . S
Co70 O74 2.004 . S
Co70 O80 2.029 . S
Co70 O82 2.137 . S
Co70 O83 2.244 . S
O71 Co70 2.216 . S
O71 C78 1.247 . S
O72 Co70 2.091 . S
O72 C78 1.261 . S
C73 O82 1.247 . S
C73 O83 1.272 . S
O74 Co70 2.004 . S
O74 C79 1.259 . S
Co75 O76 2.061 . S
Co75 O81 2.052 . S
Co75 O83 2.135 . S
O76 Co75 2.061 . S
O76 C79 1.235 . S
C77 O80 1.235 1_554 S
C77 O81 1.241 1_554 S
C78 O71 1.247 . S
C78 O72 1.261 . S
C79 O74 1.259 . S
C79 O76 1.235 . S
O80 Co70 2.029 . S
O80 C77 1.235 1_556 S
O81 Co75 2.052 . S
O81 C77 1.241 1_556 S
O82 Co70 2.137 . S
O82 C73 1.247 . S
O83 Co70 2.244 . S
O83 C73 1.272 . S
O83 Co75 2.135 . S
Co84 O85 2.216 . S
Co84 O86 2.091 . S
Co84 O88 2.004 . S
Co84 O94 2.021 . S
Co84 O96 2.137 . S
Co84 O97 2.244 . S
O85 Co84 2.216 . S
O85 C92 1.247 . S
O86 Co84 2.091 . S
O86 C92 1.261 . S
C87 O96 1.247 . S
C87 O97 1.272 . S
O88 Co84 2.004 . S
O88 C93 1.259 . S
Co89 O90 2.061 . S
Co89 O95 2.052 . S
Co89 O97 2.135 . S
O90 Co89 2.061 . S
O90 C93 1.235 . S
C91 O94 1.238 . S
C91 O95 1.241 . S
C92 O85 1.247 . S
C92 O86 1.261 . S
C93 O88 1.259 . S
C93 O90 1.235 . S
O94 Co84 2.021 . S
O94 C91 1.238 . S
O95 Co89 2.052 . S
O95 C91 1.241 . S
O96 Co84 2.137 . S
O96 C87 1.247 . S
O97 Co84 2.244 . S
O97 C87 1.272 . S
O97 Co89 2.135 . S
Co98 O99 2.216 . S
Co98 O100 2.091 . S
Co98 O102 2.004 . S
Co98 O108 2.021 . S
Co98 O110 2.137 . S
Co98 O111 2.244 . S
O99 Co98 2.216 . S
O99 C106 1.247 . S
O100 Co98 2.091 . S
O100 C106 1.261 . S
C101 O110 1.247 . S
C101 O111 1.272 . S
O102 Co98 2.004 . S
O102 C107 1.259 . S
Co103 O104 2.061 . S
Co103 O109 2.052 . S
Co103 O111 2.135 . S
O104 Co103 2.061 . S
O104 C107 1.235 . S
C105 O108 1.238 . S
C105 O109 1.241 . S
C106 O99 1.247 . S
C106 O100 1.261 . S
C107 O102 1.259 . S
C107 O104 1.235 . S
O108 Co98 2.021 . S
O108 C105 1.238 . S
O109 Co103 2.052 . S
O109 C105 1.241 . S
O110 Co98 2.137 . S
O110 C101 1.247 . S
O111 Co98 2.244 . S
O111 C101 1.272 . S
O111 Co103 2.135 . S
Co112 O113 2.216 . S
Co112 O114 2.091 . S
Co112 O116 2.004 . S
Co112 O122 2.021 . S
Co112 O124 2.137 . S
Co112 O125 2.244 . S
O113 Co112 2.216 . S
O113 C120 1.247 . S
O114 Co112 2.091 . S
O114 C120 1.261 . S
C115 O124 1.247 . S
C115 O125 1.272 . S
O116 Co112 2.004 . S
O116 C121 1.259 . S
Co117 O118 2.061 . S
Co117 O123 2.052 . S
Co117 O125 2.135 . S
O118 Co117 2.061 . S
O118 C121 1.235 . S
C119 O122 1.238 . S
C119 O123 1.241 . S
C120 O113 1.247 . S
C120 O114 1.261 . S
C121 O116 1.259 . S
C121 O118 1.235 . S
O122 Co112 2.021 . S
O122 C119 1.238 . S
O123 Co117 2.052 . S
O123 C119 1.241 . S
O124 Co112 2.137 . S
O124 C115 1.247 . S
O125 Co112 2.244 . S
O125 C115 1.272 . S
O125 Co117 2.135 . S
Co126 O127 2.216 . S
Co126 O128 2.091 . S
Co126 O130 2.004 . S
Co126 O136 2.021 . S
Co126 O138 2.137 . S
Co126 O139 2.244 . S
O127 Co126 2.216 . S
O127 C134 1.247 . S
O128 Co126 2.091 . S
O128 C134 1.261 . S
C129 O138 1.247 . S
C129 O139 1.272 . S
O130 Co126 2.004 . S
O130 C135 1.259 . S
Co131 O132 2.061 . S
Co131 O137 2.052 . S
Co131 O139 2.135 . S
O132 Co131 2.061 . S
O132 C135 1.235 . S
C133 O136 1.238 . S
C133 O137 1.241 . S
C134 O127 1.247 . S
C134 O128 1.261 . S
C135 O130 1.259 . S
C135 O132 1.235 . S
O136 Co126 2.021 . S
O136 C133 1.238 . S
O137 Co131 2.052 . S
O137 C133 1.241 . S
O138 Co126 2.137 . S
O138 C129 1.247 . S
O139 Co126 2.244 . S
O139 C129 1.272 . S
O139 Co131 2.135 . S
Co140 O141 2.216 . S
Co140 O142 2.091 . S
Co140 O144 2.004 . S
Co140 O150 2.021 . S
Co140 O152 2.137 . S
Co140 O153 2.244 . S
O141 Co140 2.216 . S
O141 C148 1.247 . S
O142 Co140 2.091 . S
O142 C148 1.261 . S
C143 O152 1.247 . S
C143 O153 1.272 . S
O144 Co140 2.004 . S
O144 C149 1.259 . S
Co145 O146 2.061 . S
Co145 O151 2.052 . S
Co145 O153 2.135 . S
O146 Co145 2.061 . S
O146 C149 1.235 . S
C147 O150 1.238 . S
C147 O151 1.241 . S
C148 O141 1.247 . S
C148 O142 1.261 . S
C149 O144 1.259 . S
C149 O146 1.235 . S
O150 Co140 2.021 . S
O150 C147 1.238 . S
O151 Co145 2.052 . S
O151 C147 1.241 . S
O152 Co140 2.137 . S
O152 C143 1.247 . S
O153 Co140 2.244 . S
O153 C143 1.272 . S
O153 Co145 2.135 . S
Co154 O155 2.216 . S
Co154 O156 2.091 . S
Co154 O158 2.004 . S
Co154 O164 2.021 . S
Co154 O166 2.137 . S
Co154 O167 2.244 . S
O155 Co154 2.216 . S
O155 C162 1.247 . S
O156 Co154 2.091 . S
O156 C162 1.261 . S
C157 O166 1.247 . S
C157 O167 1.272 . S
O158 Co154 2.004 . S
O158 C163 1.259 . S
Co159 O160 2.061 . S
Co159 O165 2.052 . S
Co159 O167 2.135 . S
O160 Co159 2.061 . S
O160 C163 1.235 . S
C161 O164 1.238 . S
C161 O165 1.241 . S
C162 O155 1.247 . S
C162 O156 1.261 . S
C163 O158 1.259 . S
C163 O160 1.235 . S
O164 Co154 2.021 . S
O164 C161 1.238 . S
O165 Co159 2.052 . S
O165 C161 1.241 . S
O166 Co154 2.137 . S
O166 C157 1.247 . S
O167 Co154 2.244 . S
O167 C157 1.272 . S
O167 Co159 2.135 . S
Co168 O169 2.216 . S
Co168 O170 2.091 . S
Co168 O172 2.004 . S
Co168 O178 2.021 . S
Co168 O180 2.137 . S
Co168 O181 2.244 . S
O169 Co168 2.216 . S
O169 C176 1.247 . S
O170 Co168 2.091 . S
O170 C176 1.261 . S
C171 O180 1.247 . S
C171 O181 1.272 . S
O172 Co168 2.004 . S
O172 C177 1.259 . S
Co173 O174 2.061 . S
Co173 O179 2.052 . S
Co173 O181 2.135 . S
O174 Co173 2.061 . S
O174 C177 1.235 . S
C175 O178 1.238 . S
C175 O179 1.241 . S
C176 O169 1.247 . S
C176 O170 1.261 . S
C177 O172 1.259 . S
C177 O174 1.235 . S
O178 Co168 2.021 . S
O178 C175 1.238 . S
O179 Co173 2.052 . S
O179 C175 1.241 . S
O180 Co168 2.137 . S
O180 C171 1.247 . S
O181 Co168 2.244 . S
O181 C171 1.272 . S
O181 Co173 2.135 . S
Co182 O183 2.216 . S
Co182 O184 2.091 . S
Co182 O186 2.004 . S
Co182 O192 2.021 . S
Co182 O194 2.137 . S
Co182 O195 2.244 . S
O183 Co182 2.216 . S
O183 C190 1.247 . S
O184 Co182 2.091 . S
O184 C190 1.261 . S
C185 O194 1.247 . S
C185 O195 1.272 . S
O186 Co182 2.004 . S
O186 C191 1.259 . S
Co187 O188 2.061 . S
Co187 O193 2.052 . S
Co187 O195 2.135 . S
O188 Co187 2.061 . S
O188 C191 1.235 . S
C189 O192 1.238 . S
C189 O193 1.241 . S
C190 O183 1.247 . S
C190 O184 1.261 . S
C191 O186 1.259 . S
C191 O188 1.235 . S
O192 Co182 2.021 . S
O192 C189 1.238 . S
O193 Co187 2.052 . S
O193 C189 1.241 . S
O194 Co182 2.137 . S
O194 C185 1.247 . S
O195 Co182 2.244 . S
O195 C185 1.272 . S
O195 Co187 2.135 . S
Co196 O197 2.216 . S
Co196 O198 2.091 . S
Co196 O200 2.004 . S
Co196 O206 2.021 . S
Co196 O208 2.137 . S
Co196 O209 2.244 . S
O197 Co196 2.216 . S
O197 C204 1.247 . S
O198 Co196 2.091 . S
O198 C204 1.261 . S
C199 O208 1.247 . S
C199 O209 1.272 . S
O200 Co196 2.004 . S
O200 C205 1.259 . S
Co201 O202 2.061 . S
Co201 O207 2.052 . S
Co201 O209 2.135 . S
O202 Co201 2.061 . S
O202 C205 1.235 . S
C203 O206 1.238 . S
C203 O207 1.241 . S
C204 O197 1.247 . S
C204 O198 1.261 . S
C205 O200 1.259 . S
C205 O202 1.235 . S
O206 Co196 2.021 . S
O206 C203 1.238 . S
O207 Co201 2.052 . S
O207 C203 1.241 . S
O208 Co196 2.137 . S
O208 C199 1.247 . S
O209 Co196 2.244 . S
O209 C199 1.272 . S
O209 Co201 2.135 . S
Co210 O211 2.216 . S
Co210 O212 2.091 . S
Co210 O214 2.004 . S
Co210 O220 2.021 . S
Co210 O222 2.137 . S
Co210 O223 2.244 . S
O211 Co210 2.216 . S
O211 C218 1.247 . S
O212 Co210 2.091 . S
O212 C218 1.261 . S
C213 O222 1.247 . S
C213 O223 1.272 . S
O214 Co210 2.004 . S
O214 C219 1.259 . S
Co215 O216 2.061 . S
Co215 O221 2.052 . S
Co215 O223 2.135 . S
O216 Co215 2.061 . S
O216 C219 1.235 . S
C217 O220 1.238 . S
C217 O221 1.241 . S
C218 O211 1.247 . S
C218 O212 1.261 . S
C219 O214 1.259 . S
C219 O216 1.235 . S
O220 Co210 2.021 . S
O220 C217 1.238 . S
O221 Co215 2.052 . S
O221 C217 1.241 . S
O222 Co210 2.137 . S
O222 C213 1.247 . S
O223 Co210 2.244 . S
O223 C213 1.272 . S
O223 Co215 2.135 . S
Co224 O225 2.216 . S
Co224 O226 2.091 . S
Co224 O228 2.004 . S
Co224 O234 2.021 . S
Co224 O236 2.137 . S
Co224 O237 2.244 . S
O225 Co224 2.216 . S
O225 C232 1.247 . S
O226 Co224 2.091 . S
O226 C232 1.261 . S
C227 O236 1.247 . S
C227 O237 1.272 . S
O228 Co224 2.004 . S
O228 C233 1.259 . S
Co229 O230 2.061 . S
Co229 O235 2.052 . S
Co229 O237 2.135 . S
O230 Co229 2.061 . S
O230 C233 1.235 . S
C231 O234 1.238 . S
C231 O235 1.241 . S
C232 O225 1.247 . S
C232 O226 1.261 . S
C233 O228 1.259 . S
C233 O230 1.235 . S
O234 Co224 2.021 . S
O234 C231 1.238 . S
O235 Co229 2.052 . S
O235 C231 1.241 . S
O236 Co224 2.137 . S
O236 C227 1.247 . S
O237 Co224 2.244 . S
O237 C227 1.272 . S
O237 Co229 2.135 . S
Co238 O239 2.216 . S
Co238 O240 2.091 . S
Co238 O242 2.004 . S
Co238 O248 2.021 . S
Co238 O250 2.137 . S
Co238 O251 2.244 . S
O239 Co238 2.216 . S
O239 C246 1.247 . S
O240 Co238 2.091 . S
O240 C246 1.261 . S
C241 O250 1.247 . S
C241 O251 1.272 . S
O242 Co238 2.004 . S
O242 C247 1.259 . S
Co243 O244 2.061 . S
Co243 O249 2.052 . S
Co243 O251 2.135 . S
O244 Co243 2.061 . S
O244 C247 1.235 . S
C245 O248 1.238 . S
C245 O249 1.241 . S
C246 O239 1.247 . S
C246 O240 1.261 . S
C247 O242 1.259 . S
C247 O244 1.235 . S
O248 Co238 2.021 . S
O248 C245 1.238 . S
O249 Co243 2.052 . S
O249 C245 1.241 . S
O250 Co238 2.137 . S
O250 C241 1.247 . S
O251 Co238 2.244 . S
O251 C241 1.272 . S
O251 Co243 2.135 . S
H252 C270 0.951 . S
H253 C272 0.951 . S
H254 C274 0.950 . S
H255 C275 0.950 . S
H256 C277 0.950 . S
H257 C280 0.950 . S
H258 C281 0.950 . S
H259 C283 0.950 . S
H260 C284 0.950 . S
H261 C285 0.951 . S
H262 C287 0.951 . S
H263 C289 0.950 . S
H264 C290 0.950 . S
H265 C292 0.950 . S
H266 C295 0.950 . S
H267 C296 0.950 . S
H268 C298 0.950 . S
H269 C299 0.950 . S
C270 H252 0.951 . S
C270 C271 1.366 . S
C270 C272 1.388 . S
C271 C270 1.366 . S
C271 C275 1.385 . S
C272 H253 0.951 . S
C272 C270 1.388 . S
C272 C273 1.366 . S
C273 C272 1.366 . S
C273 C274 1.414 . S
C273 C276 1.499 . S
C274 H254 0.950 . S
C274 C273 1.414 . S
C274 C275 1.374 . S
C275 H255 0.950 . S
C275 C271 1.385 . S
C275 C274 1.374 . S
C276 C273 1.499 . S
C276 C277 1.373 . S
C276 C278 1.389 . S
C277 H256 0.950 . S
C277 C276 1.373 . S
C277 C293 1.377 . S
C278 C276 1.389 . S
C278 C279 1.524 . S
C278 C292 1.377 . S
C279 C278 1.524 . S
C279 C280 1.397 . S
C279 C284 1.363 . S
C280 H257 0.950 . S
C280 C279 1.397 . S
C280 C281 1.334 . S
C281 H258 0.950 . S
C281 C280 1.334 . S
C281 C282 1.287 . S
C282 C281 1.287 . S
C282 C283 1.524 . S
C282 H301 0.913 . S
C283 H259 0.950 . S
C283 C282 1.524 . S
C283 C284 1.415 . S
C284 H260 0.950 . S
C284 C279 1.363 . S
C284 C283 1.415 . S
C285 H261 0.951 . S
C285 C286 1.366 . S
C285 C287 1.388 . S
C286 C285 1.366 . S
C286 C290 1.385 . S
C287 H262 0.951 . S
C287 C285 1.388 . S
C287 C288 1.366 . S
C288 C287 1.366 . S
C288 C289 1.414 . S
C288 C291 1.499 . S
C289 H263 0.950 . S
C289 C288 1.414 . S
C289 C290 1.374 . S
C290 H264 0.950 . S
C290 C286 1.385 . S
C290 C289 1.374 . S
C291 C288 1.499 . S
C291 C292 1.373 . S
C291 C293 1.389 . S
C292 H265 0.950 . S
C292 C278 1.377 . S
C292 C291 1.373 . S
C293 C277 1.377 . S
C293 C291 1.389 . S
C293 C294 1.524 . S
C294 C293 1.524 . S
C294 C295 1.397 . S
C294 C299 1.363 . S
C295 H266 0.950 . S
C295 C294 1.397 . S
C295 C296 1.334 . S
C296 H267 0.950 . S
C296 C295 1.334 . S
C296 C297 1.287 . S
C297 C296 1.287 . S
C297 C298 1.524 . S
C297 H300 0.999 . S
C298 H268 0.950 . S
C298 C297 1.524 . S
C298 C299 1.415 . S
C299 H269 0.950 . S
C299 C294 1.363 . S
C299 C298 1.415 . S
H300 C297 0.999 . S
H301 C282 0.913 . S
H302 C320 0.951 . S
H303 C322 0.951 . S
H304 C324 0.950 . S
H305 C325 0.950 . S
H306 C327 0.950 . S
H307 C330 0.950 . S
H308 C331 0.950 . S
H309 C333 0.950 . S
H310 C334 0.950 . S
H311 C335 0.951 . S
H312 C337 0.951 . S
H313 C339 0.950 . S
H314 C340 0.950 . S
H315 C342 0.950 . S
H316 C345 0.950 . S
H317 C346 0.950 . S
H318 C348 0.950 . S
H319 C349 0.950 . S
C320 H302 0.951 . S
C320 C321 1.366 . S
C320 C322 1.388 . S
C321 C320 1.366 . S
C321 C325 1.385 . S
C322 H303 0.951 . S
C322 C320 1.388 . S
C322 C323 1.366 . S
C323 C322 1.366 . S
C323 C324 1.414 . S
C323 C326 1.499 . S
C324 H304 0.950 . S
C324 C323 1.414 . S
C324 C325 1.374 . S
C325 H305 0.950 . S
C325 C321 1.385 . S
C325 C324 1.374 . S
C326 C323 1.499 . S
C326 C327 1.373 . S
C326 C328 1.389 . S
C327 H306 0.950 . S
C327 C326 1.373 . S
C327 C343 1.377 . S
C328 C326 1.389 . S
C328 C329 1.524 . S
C328 C342 1.377 . S
C329 C328 1.524 . S
C329 C330 1.397 . S
C329 C334 1.363 . S
C330 H307 0.950 . S
C330 C329 1.397 . S
C330 C331 1.334 . S
C331 H308 0.950 . S
C331 C330 1.334 . S
C331 C332 1.287 . S
C332 C331 1.287 . S
C332 C333 1.524 . S
C332 H351 0.913 . S
C333 H309 0.950 . S
C333 C332 1.524 . S
C333 C334 1.415 . S
C334 H310 0.950 . S
C334 C329 1.363 . S
C334 C333 1.415 . S
C335 H311 0.951 . S
C335 C336 1.366 . S
C335 C337 1.388 . S
C336 C335 1.366 . S
C336 C340 1.385 . S
C337 H312 0.951 . S
C337 C335 1.388 . S
C337 C338 1.366 . S
C338 C337 1.366 . S
C338 C339 1.414 . S
C338 C341 1.499 . S
C339 H313 0.950 . S
C339 C338 1.414 . S
C339 C340 1.374 . S
C340 H314 0.950 . S
C340 C336 1.385 . S
C340 C339 1.374 . S
C341 C338 1.499 . S
C341 C342 1.373 . S
C341 C343 1.389 . S
C342 H315 0.950 . S
C342 C328 1.377 . S
C342 C341 1.373 . S
C343 C327 1.377 . S
C343 C341 1.389 . S
C343 C344 1.524 . S
C344 C343 1.524 . S
C344 C345 1.397 . S
C344 C349 1.363 . S
C345 H316 0.950 . S
C345 C344 1.397 . S
C345 C346 1.334 . S
C346 H317 0.950 . S
C346 C345 1.334 . S
C346 C347 1.287 . S
C347 C346 1.287 . S
C347 C348 1.524 . S
C347 H350 0.999 . S
C348 H318 0.950 . S
C348 C347 1.524 . S
C348 C349 1.415 . S
C349 H319 0.950 . S
C349 C344 1.363 . S
C349 C348 1.415 . S
H350 C347 0.999 . S
H351 C332 0.913 . S
H352 C370 0.951 . S
H353 C372 0.951 . S
H354 C374 0.950 . S
H355 C375 0.950 . S
H356 C377 0.950 . S
H357 C380 0.950 . S
H358 C381 0.950 . S
H359 C383 0.950 . S
H360 C384 0.950 . S
H361 C385 0.951 . S
H362 C387 0.951 . S
H363 C389 0.950 . S
H364 C390 0.950 . S
H365 C392 0.950 . S
H366 C395 0.950 . S
H367 C396 0.950 . S
H368 C398 0.950 . S
H369 C399 0.950 . S
C370 H352 0.951 . S
C370 C371 1.366 . S
C370 C372 1.388 . S
C371 C370 1.366 . S
C371 C375 1.385 . S
C372 H353 0.951 . S
C372 C370 1.388 . S
C372 C373 1.366 . S
C373 C372 1.366 . S
C373 C374 1.414 . S
C373 C376 1.499 . S
C374 H354 0.950 . S
C374 C373 1.414 . S
C374 C375 1.374 . S
C375 H355 0.950 . S
C375 C371 1.385 . S
C375 C374 1.374 . S
C376 C373 1.499 . S
C376 C377 1.373 . S
C376 C378 1.389 . S
C377 H356 0.950 . S
C377 C376 1.373 . S
C377 C393 1.377 . S
C378 C376 1.389 . S
C378 C379 1.524 . S
C378 C392 1.377 . S
C379 C378 1.524 . S
C379 C380 1.397 . S
C379 C384 1.363 . S
C380 H357 0.950 . S
C380 C379 1.397 . S
C380 C381 1.334 . S
C381 H358 0.950 . S
C381 C380 1.334 . S
C381 C382 1.287 . S
C382 C381 1.287 . S
C382 C383 1.524 . S
C382 H401 0.913 . S
C383 H359 0.950 . S
C383 C382 1.524 . S
C383 C384 1.415 . S
C384 H360 0.950 . S
C384 C379 1.363 . S
C384 C383 1.415 . S
C385 H361 0.951 . S
C385 C386 1.366 . S
C385 C387 1.388 . S
C386 C385 1.366 . S
C386 C390 1.385 . S
C387 H362 0.951 . S
C387 C385 1.388 . S
C387 C388 1.366 . S
C388 C387 1.366 . S
C388 C389 1.414 . S
C388 C391 1.499 . S
C389 H363 0.950 . S
C389 C388 1.414 . S
C389 C390 1.374 . S
C390 H364 0.950 . S
C390 C386 1.385 . S
C390 C389 1.374 . S
C391 C388 1.499 . S
C391 C392 1.373 . S
C391 C393 1.389 . S
C392 H365 0.950 . S
C392 C378 1.377 . S
C392 C391 1.373 . S
C393 C377 1.377 . S
C393 C391 1.389 . S
C393 C394 1.524 . S
C394 C393 1.524 . S
C394 C395 1.397 . S
C394 C399 1.363 . S
C395 H366 0.950 . S
C395 C394 1.397 . S
C395 C396 1.334 . S
C396 H367 0.950 . S
C396 C395 1.334 . S
C396 C397 1.287 . S
C397 C396 1.287 . S
C397 C398 1.524 . S
C397 H400 0.999 . S
C398 H368 0.950 . S
C398 C397 1.524 . S
C398 C399 1.415 . S
C399 H369 0.950 . S
C399 C394 1.363 . S
C399 C398 1.415 . S
H400 C397 0.999 . S
H401 C382 0.913 . S
H402 C420 0.951 . S
H403 C422 0.951 . S
H404 C424 0.950 . S
H405 C425 0.950 . S
H406 C427 0.950 . S
H407 C430 0.950 . S
H408 C431 0.950 . S
H409 C433 0.950 . S
H410 C434 0.950 . S
H411 C435 0.951 . S
H412 C437 0.951 . S
H413 C439 0.950 . S
H414 C440 0.950 . S
H415 C442 0.950 . S
H416 C445 0.950 . S
H417 C446 0.950 . S
H418 C448 0.950 . S
H419 C449 0.950 . S
C420 H402 0.951 . S
C420 C421 1.366 . S
C420 C422 1.388 . S
C421 C420 1.366 . S
C421 C425 1.385 . S
C422 H403 0.951 . S
C422 C420 1.388 . S
C422 C423 1.366 . S
C423 C422 1.366 . S
C423 C424 1.414 . S
C423 C426 1.499 . S
C424 H404 0.950 . S
C424 C423 1.414 . S
C424 C425 1.374 . S
C425 H405 0.950 . S
C425 C421 1.385 . S
C425 C424 1.374 . S
C426 C423 1.499 . S
C426 C427 1.373 . S
C426 C428 1.389 . S
C427 H406 0.950 . S
C427 C426 1.373 . S
C427 C443 1.377 . S
C428 C426 1.389 . S
C428 C429 1.524 . S
C428 C442 1.377 . S
C429 C428 1.524 . S
C429 C430 1.397 . S
C429 C434 1.363 . S
C430 H407 0.950 . S
C430 C429 1.397 . S
C430 C431 1.334 . S
C431 H408 0.950 . S
C431 C430 1.334 . S
C431 C432 1.287 . S
C432 C431 1.287 . S
C432 C433 1.524 . S
C432 H451 0.913 . S
C433 H409 0.950 . S
C433 C432 1.524 . S
C433 C434 1.415 . S
C434 H410 0.950 . S
C434 C429 1.363 . S
C434 C433 1.415 . S
C435 H411 0.951 . S
C435 C436 1.366 . S
C435 C437 1.388 . S
C436 C435 1.366 . S
C436 C440 1.385 . S
C437 H412 0.951 . S
C437 C435 1.388 . S
C437 C438 1.366 . S
C438 C437 1.366 . S
C438 C439 1.414 . S
C438 C441 1.499 . S
C439 H413 0.950 . S
C439 C438 1.414 . S
C439 C440 1.374 . S
C440 H414 0.950 . S
C440 C436 1.385 . S
C440 C439 1.374 . S
C441 C438 1.499 . S
C441 C442 1.373 . S
C441 C443 1.389 . S
C442 H415 0.950 . S
C442 C428 1.377 . S
C442 C441 1.373 . S
C443 C427 1.377 . S
C443 C441 1.389 . S
C443 C444 1.524 . S
C444 C443 1.524 . S
C444 C445 1.397 . S
C444 C449 1.363 . S
C445 H416 0.950 . S
C445 C444 1.397 . S
C445 C446 1.334 . S
C446 H417 0.950 . S
C446 C445 1.334 . S
C446 C447 1.287 . S
C447 C446 1.287 . S
C447 C448 1.524 . S
C447 H450 0.999 . S
C448 H418 0.950 . S
C448 C447 1.524 . S
C448 C449 1.415 . S
C449 H419 0.950 . S
C449 C444 1.363 . S
C449 C448 1.415 . S
H450 C447 0.999 . S
H451 C432 0.913 . S
H452 C470 0.951 . S
H453 C472 0.951 . S
H454 C474 0.950 . S
H455 C475 0.950 . S
H456 C477 0.950 . S
H457 C480 0.950 . S
H458 C481 0.950 . S
H459 C483 0.950 . S
H460 C484 0.950 . S
H461 C485 0.951 . S
H462 C487 0.951 . S
H463 C489 0.950 . S
H464 C490 0.950 . S
H465 C492 0.950 . S
H466 C495 0.950 . S
H467 C496 0.950 . S
H468 C498 0.950 . S
H469 C499 0.950 . S
C470 H452 0.951 . S
C470 C471 1.366 . S
C470 C472 1.388 . S
C471 C470 1.366 . S
C471 C475 1.385 . S
C472 H453 0.951 . S
C472 C470 1.388 . S
C472 C473 1.366 . S
C473 C472 1.366 . S
C473 C474 1.414 . S
C473 C476 1.499 . S
C474 H454 0.950 . S
C474 C473 1.414 . S
C474 C475 1.374 . S
C475 H455 0.950 . S
C475 C471 1.385 . S
C475 C474 1.374 . S
C476 C473 1.499 . S
C476 C477 1.373 . S
C476 C478 1.389 . S
C477 H456 0.950 . S
C477 C476 1.373 . S
C477 C493 1.377 . S
C478 C476 1.389 . S
C478 C479 1.524 . S
C478 C492 1.377 . S
C479 C478 1.524 . S
C479 C480 1.397 . S
C479 C484 1.363 . S
C480 H457 0.950 . S
C480 C479 1.397 . S
C480 C481 1.334 . S
C481 H458 0.950 . S
C481 C480 1.334 . S
C481 C482 1.287 . S
C482 C481 1.287 . S
C482 C483 1.524 . S
C482 H501 0.913 . S
C483 H459 0.950 . S
C483 C482 1.524 . S
C483 C484 1.415 . S
C484 H460 0.950 . S
C484 C479 1.363 . S
C484 C483 1.415 . S
C485 H461 0.951 . S
C485 C486 1.366 . S
C485 C487 1.388 . S
C486 C485 1.366 . S
C486 C490 1.385 . S
C487 H462 0.951 . S
C487 C485 1.388 . S
C487 C488 1.366 . S
C488 C487 1.366 . S
C488 C489 1.414 . S
C488 C491 1.499 . S
C489 H463 0.950 . S
C489 C488 1.414 . S
C489 C490 1.374 . S
C490 H464 0.950 . S
C490 C486 1.385 . S
C490 C489 1.374 . S
C491 C488 1.499 . S
C491 C492 1.373 . S
C491 C493 1.389 . S
C492 H465 0.950 . S
C492 C478 1.377 . S
C492 C491 1.373 . S
C493 C477 1.377 . S
C493 C491 1.389 . S
C493 C494 1.524 . S
C494 C493 1.524 . S
C494 C495 1.397 . S
C494 C499 1.363 . S
C495 H466 0.950 . S
C495 C494 1.397 . S
C495 C496 1.334 . S
C496 H467 0.950 . S
C496 C495 1.334 . S
C496 C497 1.287 . S
C497 C496 1.287 . S
C497 C498 1.524 . S
C497 H500 0.999 . S
C498 H468 0.950 . S
C498 C497 1.524 . S
C498 C499 1.415 . S
C499 H469 0.950 . S
C499 C494 1.363 . S
C499 C498 1.415 . S
H500 C497 0.999 . S
H501 C482 0.913 . S
H502 C520 0.951 . S
H503 C522 0.951 . S
H504 C524 0.950 . S
H505 C525 0.950 . S
H506 C527 0.950 . S
H507 C530 0.950 . S
H508 C531 0.950 . S
H509 C533 0.950 . S
H510 C534 0.950 . S
H511 C535 0.951 . S
H512 C537 0.951 . S
H513 C539 0.950 . S
H514 C540 0.950 . S
H515 C542 0.950 . S
H516 C545 0.950 . S
H517 C546 0.950 . S
H518 C548 0.950 . S
H519 C549 0.950 . S
C520 H502 0.951 . S
C520 C521 1.366 . S
C520 C522 1.388 . S
C521 C520 1.366 . S
C521 C525 1.385 . S
C522 H503 0.951 . S
C522 C520 1.388 . S
C522 C523 1.366 . S
C523 C522 1.366 . S
C523 C524 1.414 . S
C523 C526 1.499 . S
C524 H504 0.950 . S
C524 C523 1.414 . S
C524 C525 1.374 . S
C525 H505 0.950 . S
C525 C521 1.385 . S
C525 C524 1.374 . S
C526 C523 1.499 . S
C526 C527 1.373 . S
C526 C528 1.389 . S
C527 H506 0.950 . S
C527 C526 1.373 . S
C527 C543 1.377 . S
C528 C526 1.389 . S
C528 C529 1.524 . S
C528 C542 1.377 . S
C529 C528 1.524 . S
C529 C530 1.397 . S
C529 C534 1.363 . S
C530 H507 0.950 . S
C530 C529 1.397 . S
C530 C531 1.334 . S
C531 H508 0.950 . S
C531 C530 1.334 . S
C531 C532 1.287 . S
C532 C531 1.287 . S
C532 C533 1.524 . S
C532 H551 0.913 . S
C533 H509 0.950 . S
C533 C532 1.524 . S
C533 C534 1.415 . S
C534 H510 0.950 . S
C534 C529 1.363 . S
C534 C533 1.415 . S
C535 H511 0.951 . S
C535 C536 1.366 . S
C535 C537 1.388 . S
C536 C535 1.366 . S
C536 C540 1.385 . S
C537 H512 0.951 . S
C537 C535 1.388 . S
C537 C538 1.366 . S
C538 C537 1.366 . S
C538 C539 1.414 . S
C538 C541 1.499 . S
C539 H513 0.950 . S
C539 C538 1.414 . S
C539 C540 1.374 . S
C540 H514 0.950 . S
C540 C536 1.385 . S
C540 C539 1.374 . S
C541 C538 1.499 . S
C541 C542 1.373 . S
C541 C543 1.389 . S
C542 H515 0.950 . S
C542 C528 1.377 . S
C542 C541 1.373 . S
C543 C527 1.377 . S
C543 C541 1.389 . S
C543 C544 1.524 . S
C544 C543 1.524 . S
C544 C545 1.397 . S
C544 C549 1.363 . S
C545 H516 0.950 . S
C545 C544 1.397 . S
C545 C546 1.334 . S
C546 H517 0.950 . S
C546 C545 1.334 . S
C546 C547 1.287 . S
C547 C546 1.287 . S
C547 C548 1.524 . S
C547 H550 0.999 . S
C548 H518 0.950 . S
C548 C547 1.524 . S
C548 C549 1.415 . S
C549 H519 0.950 . S
C549 C544 1.363 . S
C549 C548 1.415 . S
H550 C547 0.999 . S
H551 C532 0.913 . S
H552 C570 0.951 . S
H553 C572 0.951 1_455 S
H554 C574 0.950 . S
H555 C575 0.950 . S
H556 C577 0.950 . S
H557 C580 0.950 . S
H558 C581 0.950 . S
H559 C583 0.950 . S
H560 C584 0.950 . S
H561 C585 0.951 . S
H562 C587 0.951 1_655 S
H563 C589 0.950 . S
H564 C590 0.950 . S
H565 C592 0.950 . S
H566 C595 0.950 . S
H567 C596 0.950 . S
H568 C598 0.950 . S
H569 C599 0.950 . S
C570 H552 0.951 . S
C570 C571 1.366 . S
C570 C572 1.388 . S
C571 C570 1.366 . S
C571 C575 1.385 . S
C572 H553 0.951 1_655 S
C572 C570 1.388 . S
C572 C573 1.366 . S
C573 C572 1.366 . S
C573 C574 1.414 . S
C573 C576 1.499 . S
C574 H554 0.950 . S
C574 C573 1.414 . S
C574 C575 1.374 . S
C575 H555 0.950 . S
C575 C571 1.385 . S
C575 C574 1.374 . S
C576 C573 1.499 . S
C576 C577 1.373 . S
C576 C578 1.389 1_655 S
C577 H556 0.950 . S
C577 C576 1.373 . S
C577 C593 1.377 1_554 S
C578 C576 1.389 1_455 S
C578 C579 1.524 . S
C578 C592 1.377 1_554 S
C579 C578 1.524 . S
C579 C580 1.397 1_455 S
C579 C584 1.363 . S
C580 H557 0.950 . S
C580 C579 1.397 1_655 S
C580 C581 1.334 . S
C581 H558 0.950 . S
C581 C580 1.334 . S
C581 C582 1.287 1_655 S
C582 C581 1.287 1_455 S
C582 C583 1.524 . S
C582 H601 0.913 . S
C583 H559 0.950 . S
C583 C582 1.524 . S
C583 C584 1.415 . S
C584 H560 0.950 . S
C584 C579 1.363 . S
C584 C583 1.415 . S
C585 H561 0.951 . S
C585 C586 1.366 . S
C585 C587 1.388 . S
C586 C585 1.366 . S
C586 C590 1.385 . S
C587 H562 0.951 1_455 S
C587 C585 1.388 . S
C587 C588 1.366 . S
C588 C587 1.366 . S
C588 C589 1.414 . S
C588 C591 1.499 . S
C589 H563 0.950 . S
C589 C588 1.414 . S
C589 C590 1.374 . S
C590 H564 0.950 . S
C590 C586 1.385 . S
C590 C589 1.374 . S
C591 C588 1.499 . S
C591 C592 1.373 . S
C591 C593 1.389 1_455 S
C592 H565 0.950 . S
C592 C578 1.377 1_556 S
C592 C591 1.373 . S
C593 C577 1.377 1_556 S
C593 C591 1.389 1_655 S
C593 C594 1.524 . S
C594 C593 1.524 . S
C594 C595 1.397 1_655 S
C594 C599 1.363 . S
C595 H566 0.950 . S
C595 C594 1.397 1_455 S
C595 C596 1.334 . S
C596 H567 0.950 . S
C596 C595 1.334 . S
C596 C597 1.287 1_455 S
C597 C596 1.287 1_655 S
C597 C598 1.524 . S
C597 H600 0.999 . S
C598 H568 0.950 . S
C598 C597 1.524 . S
C598 C599 1.415 . S
C599 H569 0.950 . S
C599 C594 1.363 . S
C599 C598 1.415 . S
H600 C597 0.999 . S
H601 C582 0.913 . S
H602 C620 0.951 . S
H603 C622 0.951 . S
H604 C624 0.950 . S
H605 C625 0.950 . S
H606 C627 0.950 . S
H607 C630 0.950 . S
H608 C631 0.950 . S
H609 C633 0.950 . S
H610 C634 0.950 . S
H611 C635 0.951 . S
H612 C637 0.951 . S
H613 C639 0.950 . S
H614 C640 0.950 . S
H615 C642 0.950 . S
H616 C645 0.950 . S
H617 C646 0.950 . S
H618 C648 0.950 . S
H619 C649 0.950 . S
C620 H602 0.951 . S
C620 C621 1.366 . S
C620 C622 1.388 . S
C621 C620 1.366 . S
C621 C625 1.385 . S
C622 H603 0.951 . S
C622 C620 1.388 . S
C622 C623 1.366 . S
C623 C622 1.366 . S
C623 C624 1.414 . S
C623 C626 1.499 . S
C624 H604 0.950 . S
C624 C623 1.414 . S
C624 C625 1.374 . S
C625 H605 0.950 . S
C625 C621 1.385 . S
C625 C624 1.374 . S
C626 C623 1.499 . S
C626 C627 1.373 . S
C626 C628 1.389 . S
C627 H606 0.950 . S
C627 C626 1.373 . S
C627 C643 1.377 1_554 S
C628 C626 1.389 . S
C628 C629 1.524 . S
C628 C642 1.377 1_554 S
C629 C628 1.524 . S
C629 C630 1.397 . S
C629 C634 1.363 . S
C630 H607 0.950 . S
C630 C629 1.397 . S
C630 C631 1.334 . S
C631 H608 0.950 . S
C631 C630 1.334 . S
C631 C632 1.287 . S
C632 C631 1.287 . S
C632 C633 1.524 . S
C632 H651 0.913 . S
C633 H609 0.950 . S
C633 C632 1.524 . S
C633 C634 1.415 . S
C634 H610 0.950 . S
C634 C629 1.363 . S
C634 C633 1.415 . S
C635 H611 0.951 . S
C635 C636 1.366 . S
C635 C637 1.388 . S
C636 C635 1.366 . S
C636 C640 1.385 . S
C637 H612 0.951 . S
C637 C635 1.388 . S
C637 C638 1.366 . S
C638 C637 1.366 . S
C638 C639 1.414 . S
C638 C641 1.499 . S
C639 H613 0.950 . S
C639 C638 1.414 . S
C639 C640 1.374 . S
C640 H614 0.950 . S
C640 C636 1.385 . S
C640 C639 1.374 . S
C641 C638 1.499 . S
C641 C642 1.373 . S
C641 C643 1.389 . S
C642 H615 0.950 . S
C642 C628 1.377 1_556 S
C642 C641 1.373 . S
C643 C627 1.377 1_556 S
C643 C641 1.389 . S
C643 C644 1.524 . S
C644 C643 1.524 . S
C644 C645 1.397 . S
C644 C649 1.363 . S
C645 H616 0.950 . S
C645 C644 1.397 . S
C645 C646 1.334 . S
C646 H617 0.950 . S
C646 C645 1.334 . S
C646 C647 1.287 . S
C647 C646 1.287 . S
C647 C648 1.524 . S
C647 H650 0.999 . S
C648 H618 0.950 . S
C648 C647 1.524 . S
C648 C649 1.415 . S
C649 H619 0.950 . S
C649 C644 1.363 . S
C649 C648 1.415 . S
H650 C647 0.999 . S
H651 C632 0.913 . S
H652 C670 0.951 . S
H653 C672 0.951 . S
H654 C674 0.950 1_565 S
H655 C675 0.950 . S
H656 C677 0.950 . S
H657 C680 0.950 . S
H658 C681 0.950 . S
H659 C683 0.950 . S
H660 C684 0.950 . S
H661 C685 0.951 . S
H662 C687 0.951 . S
H663 C689 0.950 1_545 S
H664 C690 0.950 . S
H665 C692 0.950 . S
H666 C695 0.950 . S
H667 C696 0.950 . S
H668 C698 0.950 . S
H669 C699 0.950 . S
C670 H652 0.951 . S
C670 C671 1.366 . S
C670 C672 1.388 . S
C671 C670 1.366 . S
C671 C675 1.385 . S
C672 H653 0.951 . S
C672 C670 1.388 . S
C672 C673 1.366 . S
C673 C672 1.366 . S
C673 C674 1.414 . S
C673 C676 1.499 . S
C674 H654 0.950 1_545 S
C674 C673 1.414 . S
C674 C675 1.374 . S
C675 H655 0.950 . S
C675 C671 1.385 . S
C675 C674 1.374 . S
C676 C673 1.499 . S
C676 C677 1.373 1_545 S
C676 C678 1.389 . S
C677 H656 0.950 . S
C677 C676 1.373 1_565 S
C677 C693 1.377 1_554 S
C678 C676 1.389 . S
C678 C679 1.524 . S
C678 C692 1.377 1_554 S
C679 C678 1.524 . S
C679 C680 1.397 . S
C679 C684 1.363 1_554 S
C680 H657 0.950 . S
C680 C679 1.397 . S
C680 C681 1.334 . S
C681 H658 0.950 . S
C681 C680 1.334 . S
C681 C682 1.287 . S
C682 C681 1.287 . S
C682 C683 1.524 1_554 S
C682 H701 0.913 . S
C683 H659 0.950 . S
C683 C682 1.524 1_556 S
C683 C684 1.415 . S
C684 H660 0.950 . S
C684 C679 1.363 1_556 S
C684 C683 1.415 . S
C685 H661 0.951 . S
C685 C686 1.366 . S
C685 C687 1.388 . S
C686 C685 1.366 . S
C686 C690 1.385 . S
C687 H662 0.951 . S
C687 C685 1.388 . S
C687 C688 1.366 . S
C688 C687 1.366 . S
C688 C689 1.414 . S
C688 C691 1.499 . S
C689 H663 0.950 1_565 S
C689 C688 1.414 . S
C689 C690 1.374 . S
C690 H664 0.950 . S
C690 C686 1.385 . S
C690 C689 1.374 . S
C691 C688 1.499 . S
C691 C692 1.373 1_565 S
C691 C693 1.389 . S
C692 H665 0.950 . S
C692 C678 1.377 1_556 S
C692 C691 1.373 1_545 S
C693 C677 1.377 1_556 S
C693 C691 1.389 . S
C693 C694 1.524 . S
C694 C693 1.524 . S
C694 C695 1.397 . S
C694 C699 1.363 1_556 S
C695 H666 0.950 . S
C695 C694 1.397 . S
C695 C696 1.334 . S
C696 H667 0.950 . S
C696 C695 1.334 . S
C696 C697 1.287 . S
C697 C696 1.287 . S
C697 C698 1.524 1_556 S
C697 H700 0.999 . S
C698 H668 0.950 . S
C698 C697 1.524 1_554 S
C698 C699 1.415 . S
C699 H669 0.950 . S
C699 C694 1.363 1_554 S
C699 C698 1.415 . S
H700 C697 0.999 . S
H701 C682 0.913 . S
H702 C720 0.951 . S
H703 C722 0.951 . S
H704 C724 0.950 . S
H705 C725 0.950 1_554 S
H706 C727 0.950 . S
H707 C730 0.950 . S
H708 C731 0.950 . S
H709 C733 0.950 . S
H710 C734 0.950 . S
H711 C735 0.951 . S
H712 C737 0.951 . S
H713 C739 0.950 . S
H714 C740 0.950 . S
H715 C742 0.950 . S
H716 C745 0.950 . S
H717 C746 0.950 . S
H718 C748 0.950 . S
H719 C749 0.950 . S
C720 H702 0.951 . S
C720 C721 1.366 . S
C720 C722 1.388 . S
C721 C720 1.366 . S
C721 C725 1.385 . S
C722 H703 0.951 . S
C722 C720 1.388 . S
C722 C723 1.366 . S
C723 C722 1.366 . S
C723 C724 1.414 . S
C723 C726 1.499 . S
C724 H704 0.950 . S
C724 C723 1.414 . S
C724 C725 1.374 . S
C725 H705 0.950 1_556 S
C725 C721 1.385 . S
C725 C724 1.374 . S
C726 C723 1.499 . S
C726 C727 1.373 . S
C726 C728 1.389 . S
C727 H706 0.950 . S
C727 C726 1.373 . S
C727 C743 1.377 . S
C728 C726 1.389 . S
C728 C729 1.524 . S
C728 C742 1.377 . S
C729 C728 1.524 . S
C729 C730 1.397 . S
C729 C734 1.363 . S
C730 H707 0.950 . S
C730 C729 1.397 . S
C730 C731 1.334 . S
C731 H708 0.950 . S
C731 C730 1.334 . S
C731 C732 1.287 . S
C732 C731 1.287 . S
C732 C733 1.524 . S
C732 H751 0.913 . S
C733 H709 0.950 . S
C733 C732 1.524 . S
C733 C734 1.415 . S
C734 H710 0.950 . S
C734 C729 1.363 . S
C734 C733 1.415 . S
C735 H711 0.951 . S
C735 C736 1.366 . S
C735 C737 1.388 . S
C736 C735 1.366 . S
C736 C740 1.385 . S
C737 H712 0.951 . S
C737 C735 1.388 . S
C737 C738 1.366 . S
C738 C737 1.366 . S
C738 C739 1.414 . S
C738 C741 1.499 . S
C739 H713 0.950 . S
C739 C738 1.414 . S
C739 C740 1.374 . S
C740 H714 0.950 . S
C740 C736 1.385 . S
C740 C739 1.374 . S
C741 C738 1.499 . S
C741 C742 1.373 . S
C741 C743 1.389 . S
C742 H715 0.950 . S
C742 C728 1.377 . S
C742 C741 1.373 . S
C743 C727 1.377 . S
C743 C741 1.389 . S
C743 C744 1.524 . S
C744 C743 1.524 . S
C744 C745 1.397 . S
C744 C749 1.363 . S
C745 H716 0.950 . S
C745 C744 1.397 . S
C745 C746 1.334 . S
C746 H717 0.950 . S
C746 C745 1.334 . S
C746 C747 1.287 . S
C747 C746 1.287 . S
C747 C748 1.524 . S
C747 H750 0.999 . S
C748 H718 0.950 . S
C748 C747 1.524 . S
C748 C749 1.415 . S
C749 H719 0.950 . S
C749 C744 1.363 . S
C749 C748 1.415 . S
H750 C747 0.999 . S
H751 C732 0.913 . S
H752 C770 0.951 . S
H753 C772 0.951 . S
H754 C774 0.950 . S
H755 C775 0.950 . S
H756 C777 0.950 . S
H757 C780 0.950 . S
H758 C781 0.950 . S
H759 C783 0.950 . S
H760 C784 0.950 . S
H761 C785 0.951 1_554 S
H762 C787 0.951 . S
H763 C789 0.950 . S
H764 C790 0.950 . S
H765 C792 0.950 . S
H766 C795 0.950 . S
H767 C796 0.950 . S
H768 C798 0.950 . S
H769 C799 0.950 . S
C770 H752 0.951 . S
C770 C771 1.366 . S
C770 C772 1.388 . S
C771 C770 1.366 . S
C771 C775 1.385 . S
C772 H753 0.951 . S
C772 C770 1.388 . S
C772 C773 1.366 . S
C773 C772 1.366 . S
C773 C774 1.414 . S
C773 C776 1.499 . S
C774 H754 0.950 . S
C774 C773 1.414 . S
C774 C775 1.374 . S
C775 H755 0.950 . S
C775 C771 1.385 . S
C775 C774 1.374 . S
C776 C773 1.499 . S
C776 C777 1.373 . S
C776 C778 1.389 . S
C777 H756 0.950 . S
C777 C776 1.373 . S
C777 C793 1.377 . S
C778 C776 1.389 . S
C778 C779 1.524 . S
C778 C792 1.377 . S
C779 C778 1.524 . S
C779 C780 1.397 . S
C779 C784 1.363 . S
C780 H757 0.950 . S
C780 C779 1.397 . S
C780 C781 1.334 . S
C781 H758 0.950 . S
C781 C780 1.334 . S
C781 C782 1.287 . S
C782 C781 1.287 . S
C782 C783 1.524 . S
C782 H801 0.913 . S
C783 H759 0.950 . S
C783 C782 1.524 . S
C783 C784 1.415 . S
C784 H760 0.950 . S
C784 C779 1.363 . S
C784 C783 1.415 . S
C785 H761 0.951 1_556 S
C785 C786 1.366 . S
C785 C787 1.388 . S
C786 C785 1.366 . S
C786 C790 1.385 . S
C787 H762 0.951 . S
C787 C785 1.388 . S
C787 C788 1.366 . S
C788 C787 1.366 . S
C788 C789 1.414 . S
C788 C791 1.499 . S
C789 H763 0.950 . S
C789 C788 1.414 . S
C789 C790 1.374 . S
C790 H764 0.950 . S
C790 C786 1.385 . S
C790 C789 1.374 . S
C791 C788 1.499 . S
C791 C792 1.373 . S
C791 C793 1.389 . S
C792 H765 0.950 . S
C792 C778 1.377 . S
C792 C791 1.373 . S
C793 C777 1.377 . S
C793 C791 1.389 . S
C793 C794 1.524 . S
C794 C793 1.524 . S
C794 C795 1.397 . S
C794 C799 1.363 . S
C795 H766 0.950 . S
C795 C794 1.397 . S
C795 C796 1.334 . S
C796 H767 0.950 . S
C796 C795 1.334 . S
C796 C797 1.287 . S
C797 C796 1.287 . S
C797 C798 1.524 . S
C797 H800 0.999 . S
C798 H768 0.950 . S
C798 C797 1.524 . S
C798 C799 1.415 . S
C799 H769 0.950 . S
C799 C794 1.363 . S
C799 C798 1.415 . S
H800 C797 0.999 . S
H801 C782 0.913 . S
H802 C820 0.951 . S
H803 C822 0.951 . S
H804 C824 0.950 . S
H805 C825 0.950 . S
H806 C827 0.950 . S
H807 C830 0.950 . S
H808 C831 0.950 . S
H809 C833 0.950 . S
H810 C834 0.950 . S
H811 C835 0.951 . S
H812 C837 0.951 . S
H813 C839 0.950 . S
H814 C840 0.950 . S
H815 C842 0.950 . S
H816 C845 0.950 . S
H817 C846 0.950 . S
H818 C848 0.950 . S
H819 C849 0.950 . S
C820 H802 0.951 . S
C820 C821 1.366 . S
C820 C822 1.388 . S
C821 C820 1.366 . S
C821 C825 1.385 . S
C822 H803 0.951 . S
C822 C820 1.388 . S
C822 C823 1.366 . S
C823 C822 1.366 . S
C823 C824 1.414 . S
C823 C826 1.499 . S
C824 H804 0.950 . S
C824 C823 1.414 . S
C824 C825 1.374 . S
C825 H805 0.950 . S
C825 C821 1.385 . S
C825 C824 1.374 . S
C826 C823 1.499 . S
C826 C827 1.373 . S
C826 C828 1.389 . S
C827 H806 0.950 . S
C827 C826 1.373 . S
C827 C843 1.377 . S
C828 C826 1.389 . S
C828 C829 1.524 . S
C828 C842 1.377 . S
C829 C828 1.524 . S
C829 C830 1.397 . S
C829 C834 1.363 . S
C830 H807 0.950 . S
C830 C829 1.397 . S
C830 C831 1.334 . S
C831 H808 0.950 . S
C831 C830 1.334 . S
C831 C832 1.287 . S
C832 C831 1.287 . S
C832 C833 1.524 . S
C832 H851 0.913 . S
C833 H809 0.950 . S
C833 C832 1.524 . S
C833 C834 1.415 . S
C834 H810 0.950 . S
C834 C829 1.363 . S
C834 C833 1.415 . S
C835 H811 0.951 . S
C835 C836 1.366 . S
C835 C837 1.388 . S
C836 C835 1.366 . S
C836 C840 1.385 . S
C837 H812 0.951 . S
C837 C835 1.388 . S
C837 C838 1.366 . S
C838 C837 1.366 . S
C838 C839 1.414 . S
C838 C841 1.499 . S
C839 H813 0.950 . S
C839 C838 1.414 . S
C839 C840 1.374 . S
C840 H814 0.950 . S
C840 C836 1.385 . S
C840 C839 1.374 . S
C841 C838 1.499 . S
C841 C842 1.373 . S
C841 C843 1.389 . S
C842 H815 0.950 . S
C842 C828 1.377 . S
C842 C841 1.373 . S
C843 C827 1.377 . S
C843 C841 1.389 . S
C843 C844 1.524 . S
C844 C843 1.524 . S
C844 C845 1.397 . S
C844 C849 1.363 . S
C845 H816 0.950 . S
C845 C844 1.397 . S
C845 C846 1.334 . S
C846 H817 0.950 . S
C846 C845 1.334 . S
C846 C847 1.287 . S
C847 C846 1.287 . S
C847 C848 1.524 . S
C847 H850 0.999 . S
C848 H818 0.950 . S
C848 C847 1.524 . S
C848 C849 1.415 . S
C849 H819 0.950 . S
C849 C844 1.363 . S
C849 C848 1.415 . S
H850 C847 0.999 . S
H851 C832 0.913 . S
H852 C870 0.951 . S
H853 C872 0.951 . S
H854 C874 0.950 . S
H855 C875 0.950 . S
H856 C877 0.950 . S
H857 C880 0.950 . S
H858 C881 0.950 . S
H859 C883 0.950 . S
H860 C884 0.950 . S
H861 C885 0.951 1_556 S
H862 C887 0.951 . S
H863 C889 0.950 . S
H864 C890 0.950 . S
H865 C892 0.950 . S
H866 C895 0.950 . S
H867 C896 0.950 . S
H868 C898 0.950 . S
H869 C899 0.950 . S
C870 H852 0.951 . S
C870 C871 1.366 . S
C870 C872 1.388 . S
C871 C870 1.366 . S
C871 C875 1.385 . S
C872 H853 0.951 . S
C872 C870 1.388 . S
C872 C873 1.366 . S
C873 C872 1.366 . S
C873 C874 1.414 . S
C873 C876 1.499 . S
C874 H854 0.950 . S
C874 C873 1.414 . S
C874 C875 1.374 . S
C875 H855 0.950 . S
C875 C871 1.385 . S
C875 C874 1.374 . S
C876 C873 1.499 . S
C876 C877 1.373 . S
C876 C878 1.389 . S
C877 H856 0.950 . S
C877 C876 1.373 . S
C877 C893 1.377 . S
C878 C876 1.389 . S
C878 C879 1.524 . S
C878 C892 1.377 . S
C879 C878 1.524 . S
C879 C880 1.397 . S
C879 C884 1.363 . S
C880 H857 0.950 . S
C880 C879 1.397 . S
C880 C881 1.334 . S
C881 H858 0.950 . S
C881 C880 1.334 . S
C881 C882 1.287 . S
C882 C881 1.287 . S
C882 C883 1.524 . S
C882 H901 0.913 . S
C883 H859 0.950 . S
C883 C882 1.524 . S
C883 C884 1.415 . S
C884 H860 0.950 . S
C884 C879 1.363 . S
C884 C883 1.415 . S
C885 H861 0.951 1_554 S
C885 C886 1.366 . S
C885 C887 1.388 . S
C886 C885 1.366 . S
C886 C890 1.385 . S
C887 H862 0.951 . S
C887 C885 1.388 . S
C887 C888 1.366 . S
C888 C887 1.366 . S
C888 C889 1.414 . S
C888 C891 1.499 . S
C889 H863 0.950 . S
C889 C888 1.414 . S
C889 C890 1.374 . S
C890 H864 0.950 . S
C890 C886 1.385 . S
C890 C889 1.374 . S
C891 C888 1.499 . S
C891 C892 1.373 . S
C891 C893 1.389 . S
C892 H865 0.950 . S
C892 C878 1.377 . S
C892 C891 1.373 . S
C893 C877 1.377 . S
C893 C891 1.389 . S
C893 C894 1.524 . S
C894 C893 1.524 . S
C894 C895 1.397 . S
C894 C899 1.363 . S
C895 H866 0.950 . S
C895 C894 1.397 . S
C895 C896 1.334 . S
C896 H867 0.950 . S
C896 C895 1.334 . S
C896 C897 1.287 . S
C897 C896 1.287 . S
C897 C898 1.524 . S
C897 H900 0.999 . S
C898 H868 0.950 . S
C898 C897 1.524 . S
C898 C899 1.415 . S
C899 H869 0.950 . S
C899 C894 1.363 . S
C899 C898 1.415 . S
H900 C897 0.999 . S
H901 C882 0.913 . S
H902 C920 0.951 . S
H903 C922 0.951 . S
H904 C924 0.950 . S
H905 C925 0.950 1_556 S
H906 C927 0.950 . S
H907 C930 0.950 . S
H908 C931 0.950 . S
H909 C933 0.950 . S
H910 C934 0.950 . S
H911 C935 0.951 . S
H912 C937 0.951 . S
H913 C939 0.950 . S
H914 C940 0.950 . S
H915 C942 0.950 . S
H916 C945 0.950 . S
H917 C946 0.950 . S
H918 C948 0.950 . S
H919 C949 0.950 . S
C920 H902 0.951 . S
C920 C921 1.366 . S
C920 C922 1.388 . S
C921 C920 1.366 . S
C921 C925 1.385 . S
C922 H903 0.951 . S
C922 C920 1.388 . S
C922 C923 1.366 . S
C923 C922 1.366 . S
C923 C924 1.414 . S
C923 C926 1.499 . S
C924 H904 0.950 . S
C924 C923 1.414 . S
C924 C925 1.374 . S
C925 H905 0.950 1_554 S
C925 C921 1.385 . S
C925 C924 1.374 . S
C926 C923 1.499 . S
C926 C927 1.373 . S
C926 C928 1.389 . S
C927 H906 0.950 . S
C927 C926 1.373 . S
C927 C943 1.377 . S
C928 C926 1.389 . S
C928 C929 1.524 . S
C928 C942 1.377 . S
C929 C928 1.524 . S
C929 C930 1.397 . S
C929 C934 1.363 . S
C930 H907 0.950 . S
C930 C929 1.397 . S
C930 C931 1.334 . S
C931 H908 0.950 . S
C931 C930 1.334 . S
C931 C932 1.287 . S
C932 C931 1.287 . S
C932 C933 1.524 . S
C932 H951 0.913 . S
C933 H909 0.950 . S
C933 C932 1.524 . S
C933 C934 1.415 . S
C934 H910 0.950 . S
C934 C929 1.363 . S
C934 C933 1.415 . S
C935 H911 0.951 . S
C935 C936 1.366 . S
C935 C937 1.388 . S
C936 C935 1.366 . S
C936 C940 1.385 . S
C937 H912 0.951 . S
C937 C935 1.388 . S
C937 C938 1.366 . S
C938 C937 1.366 . S
C938 C939 1.414 . S
C938 C941 1.499 . S
C939 H913 0.950 . S
C939 C938 1.414 . S
C939 C940 1.374 . S
C940 H914 0.950 . S
C940 C936 1.385 . S
C940 C939 1.374 . S
C941 C938 1.499 . S
C941 C942 1.373 . S
C941 C943 1.389 . S
C942 H915 0.950 . S
C942 C928 1.377 . S
C942 C941 1.373 . S
C943 C927 1.377 . S
C943 C941 1.389 . S
C943 C944 1.524 . S
C944 C943 1.524 . S
C944 C945 1.397 . S
C944 C949 1.363 . S
C945 H916 0.950 . S
C945 C944 1.397 . S
C945 C946 1.334 . S
C946 H917 0.950 . S
C946 C945 1.334 . S
C946 C947 1.287 . S
C947 C946 1.287 . S
C947 C948 1.524 . S
C947 H950 0.999 . S
C948 H918 0.950 . S
C948 C947 1.524 . S
C948 C949 1.415 . S
C949 H919 0.950 . S
C949 C944 1.363 . S
C949 C948 1.415 . S
H950 C947 0.999 . S
H951 C932 0.913 . S
H952 C970 0.951 . S
H953 C972 0.951 . S
H954 C974 0.950 . S
H955 C975 0.950 . S
H956 C977 0.950 . S
H957 C980 0.950 . S
H958 C981 0.950 . S
H959 C983 0.950 . S
H960 C984 0.950 . S
H961 C985 0.951 . S
H962 C987 0.951 . S
H963 C989 0.950 . S
H964 C990 0.950 . S
H965 C992 0.950 . S
H966 C995 0.950 . S
H967 C996 0.950 . S
H968 C998 0.950 . S
H969 C999 0.950 . S
C970 H952 0.951 . S
C970 C971 1.366 . S
C970 C972 1.388 . S
C971 C970 1.366 . S
C971 C975 1.385 . S
C972 H953 0.951 . S
C972 C970 1.388 . S
C972 C973 1.366 . S
C973 C972 1.366 . S
C973 C974 1.414 . S
C973 C976 1.499 . S
C974 H954 0.950 . S
C974 C973 1.414 . S
C974 C975 1.374 . S
C975 H955 0.950 . S
C975 C971 1.385 . S
C975 C974 1.374 . S
C976 C973 1.499 . S
C976 C977 1.373 . S
C976 C978 1.389 . S
C977 H956 0.950 . S
C977 C976 1.373 . S
C977 C993 1.377 . S
C978 C976 1.389 . S
C978 C979 1.524 . S
C978 C992 1.377 . S
C979 C978 1.524 . S
C979 C980 1.397 . S
C979 C984 1.363 . S
C980 H957 0.950 . S
C980 C979 1.397 . S
C980 C981 1.334 . S
C981 H958 0.950 . S
C981 C980 1.334 . S
C981 C982 1.287 . S
C982 C981 1.287 . S
C982 C983 1.524 . S
C982 H1001 0.913 . S
C983 H959 0.950 . S
C983 C982 1.524 . S
C983 C984 1.415 . S
C984 H960 0.950 . S
C984 C979 1.363 . S
C984 C983 1.415 . S
C985 H961 0.951 . S
C985 C986 1.366 . S
C985 C987 1.388 . S
C986 C985 1.366 . S
C986 C990 1.385 . S
C987 H962 0.951 . S
C987 C985 1.388 . S
C987 C988 1.366 . S
C988 C987 1.366 . S
C988 C989 1.414 . S
C988 C991 1.499 . S
C989 H963 0.950 . S
C989 C988 1.414 . S
C989 C990 1.374 . S
C990 H964 0.950 . S
C990 C986 1.385 . S
C990 C989 1.374 . S
C991 C988 1.499 . S
C991 C992 1.373 . S
C991 C993 1.389 . S
C992 H965 0.950 . S
C992 C978 1.377 . S
C992 C991 1.373 . S
C993 C977 1.377 . S
C993 C991 1.389 . S
C993 C994 1.524 . S
C994 C993 1.524 . S
C994 C995 1.397 . S
C994 C999 1.363 . S
C995 H966 0.950 . S
C995 C994 1.397 . S
C995 C996 1.334 . S
C996 H967 0.950 . S
C996 C995 1.334 . S
C996 C997 1.287 . S
C997 C996 1.287 . S
C997 C998 1.524 . S
C997 H1000 0.999 . S
C998 H968 0.950 . S
C998 C997 1.524 . S
C998 C999 1.415 . S
C999 H969 0.950 . S
C999 C994 1.363 . S
C999 C998 1.415 . S
H1000 C997 0.999 . S
H1001 C982 0.913 . S
H1002 C1020 0.951 . S
H1003 C1022 0.951 . S
H1004 C1024 0.950 . S
H1005 C1025 0.950 . S
H1006 C1027 0.950 . S
H1007 C1030 0.950 . S
H1008 C1031 0.950 . S
H1009 C1033 0.950 . S
H1010 C1034 0.950 . S
H1011 C1035 0.951 . S
H1012 C1037 0.951 . S
H1013 C1039 0.950 . S
H1014 C1040 0.950 . S
H1015 C1042 0.950 . S
H1016 C1045 0.950 . S
H1017 C1046 0.950 . S
H1018 C1048 0.950 . S
H1019 C1049 0.950 . S
C1020 H1002 0.951 . S
C1020 C1021 1.366 . S
C1020 C1022 1.388 . S
C1021 C1020 1.366 . S
C1021 C1025 1.385 . S
C1022 H1003 0.951 . S
C1022 C1020 1.388 . S
C1022 C1023 1.366 . S
C1023 C1022 1.366 . S
C1023 C1024 1.414 . S
C1023 C1026 1.499 . S
C1024 H1004 0.950 . S
C1024 C1023 1.414 . S
C1024 C1025 1.374 . S
C1025 H1005 0.950 . S
C1025 C1021 1.385 . S
C1025 C1024 1.374 . S
C1026 C1023 1.499 . S
C1026 C1027 1.373 1_655 S
C1026 C1028 1.389 . S
C1027 H1006 0.950 . S
C1027 C1026 1.373 1_455 S
C1027 C1043 1.377 . S
C1028 C1026 1.389 . S
C1028 C1029 1.524 . S
C1028 C1042 1.377 . S
C1029 C1028 1.524 . S
C1029 C1030 1.397 . S
C1029 C1034 1.363 . S
C1030 H1007 0.950 . S
C1030 C1029 1.397 . S
C1030 C1031 1.334 . S
C1031 H1008 0.950 . S
C1031 C1030 1.334 . S
C1031 C1032 1.287 . S
C1032 C1031 1.287 . S
C1032 C1033 1.524 . S
C1032 H1051 0.913 . S
C1033 H1009 0.950 . S
C1033 C1032 1.524 . S
C1033 C1034 1.415 . S
C1034 H1010 0.950 . S
C1034 C1029 1.363 . S
C1034 C1033 1.415 . S
C1035 H1011 0.951 . S
C1035 C1036 1.366 . S
C1035 C1037 1.388 . S
C1036 C1035 1.366 . S
C1036 C1040 1.385 . S
C1037 H1012 0.951 . S
C1037 C1035 1.388 . S
C1037 C1038 1.366 . S
C1038 C1037 1.366 . S
C1038 C1039 1.414 . S
C1038 C1041 1.499 . S
C1039 H1013 0.950 . S
C1039 C1038 1.414 . S
C1039 C1040 1.374 . S
C1040 H1014 0.950 . S
C1040 C1036 1.385 . S
C1040 C1039 1.374 . S
C1041 C1038 1.499 . S
C1041 C1042 1.373 1_455 S
C1041 C1043 1.389 . S
C1042 H1015 0.950 . S
C1042 C1028 1.377 . S
C1042 C1041 1.373 1_655 S
C1043 C1027 1.377 . S
C1043 C1041 1.389 . S
C1043 C1044 1.524 . S
C1044 C1043 1.524 . S
C1044 C1045 1.397 . S
C1044 C1049 1.363 . S
C1045 H1016 0.950 . S
C1045 C1044 1.397 . S
C1045 C1046 1.334 . S
C1046 H1017 0.950 . S
C1046 C1045 1.334 . S
C1046 C1047 1.287 . S
C1047 C1046 1.287 . S
C1047 C1048 1.524 . S
C1047 H1050 0.999 . S
C1048 H1018 0.950 . S
C1048 C1047 1.524 . S
C1048 C1049 1.415 . S
C1049 H1019 0.950 . S
C1049 C1044 1.363 . S
C1049 C1048 1.415 . S
H1050 C1047 0.999 . S
H1051 C1032 0.913 . S
H1052 C1070 0.951 . S
H1053 C1072 0.951 . S
H1054 C1074 0.950 . S
H1055 C1075 0.950 . S
H1056 C1077 0.950 . S
H1057 C1080 0.950 . S
H1058 C1081 0.950 . S
H1059 C1083 0.950 . S
H1060 C1084 0.950 . S
H1061 C1085 0.951 . S
H1062 C1087 0.951 . S
H1063 C1089 0.950 . S
H1064 C1090 0.950 . S
H1065 C1092 0.950 . S
H1066 C1095 0.950 . S
H1067 C1096 0.950 . S
H1068 C1098 0.950 . S
H1069 C1099 0.950 . S
C1070 H1052 0.951 . S
C1070 C1071 1.366 . S
C1070 C1072 1.388 . S
C1071 C1070 1.366 . S
C1071 C1075 1.385 . S
C1072 H1053 0.951 . S
C1072 C1070 1.388 . S
C1072 C1073 1.366 . S
C1073 C1072 1.366 . S
C1073 C1074 1.414 . S
C1073 C1076 1.499 . S
C1074 H1054 0.950 . S
C1074 C1073 1.414 . S
C1074 C1075 1.374 . S
C1075 H1055 0.950 . S
C1075 C1071 1.385 . S
C1075 C1074 1.374 . S
C1076 C1073 1.499 . S
C1076 C1077 1.373 . S
C1076 C1078 1.389 . S
C1077 H1056 0.950 . S
C1077 C1076 1.373 . S
C1077 C1093 1.377 . S
C1078 C1076 1.389 . S
C1078 C1079 1.524 . S
C1078 C1092 1.377 . S
C1079 C1078 1.524 . S
C1079 C1080 1.397 . S
C1079 C1084 1.363 . S
C1080 H1057 0.950 . S
C1080 C1079 1.397 . S
C1080 C1081 1.334 . S
C1081 H1058 0.950 . S
C1081 C1080 1.334 . S
C1081 C1082 1.287 . S
C1082 C1081 1.287 . S
C1082 C1083 1.524 . S
C1082 H1101 0.913 . S
C1083 H1059 0.950 . S
C1083 C1082 1.524 . S
C1083 C1084 1.415 . S
C1084 H1060 0.950 . S
C1084 C1079 1.363 . S
C1084 C1083 1.415 . S
C1085 H1061 0.951 . S
C1085 C1086 1.366 . S
C1085 C1087 1.388 . S
C1086 C1085 1.366 . S
C1086 C1090 1.385 . S
C1087 H1062 0.951 . S
C1087 C1085 1.388 . S
C1087 C1088 1.366 . S
C1088 C1087 1.366 . S
C1088 C1089 1.414 . S
C1088 C1091 1.499 . S
C1089 H1063 0.950 . S
C1089 C1088 1.414 . S
C1089 C1090 1.374 . S
C1090 H1064 0.950 . S
C1090 C1086 1.385 . S
C1090 C1089 1.374 . S
C1091 C1088 1.499 . S
C1091 C1092 1.373 . S
C1091 C1093 1.389 . S
C1092 H1065 0.950 . S
C1092 C1078 1.377 . S
C1092 C1091 1.373 . S
C1093 C1077 1.377 . S
C1093 C1091 1.389 . S
C1093 C1094 1.524 . S
C1094 C1093 1.524 . S
C1094 C1095 1.397 . S
C1094 C1099 1.363 . S
C1095 H1066 0.950 . S
C1095 C1094 1.397 . S
C1095 C1096 1.334 . S
C1096 H1067 0.950 . S
C1096 C1095 1.334 . S
C1096 C1097 1.287 . S
C1097 C1096 1.287 . S
C1097 C1098 1.524 . S
C1097 H1100 0.999 . S
C1098 H1068 0.950 . S
C1098 C1097 1.524 . S
C1098 C1099 1.415 . S
C1099 H1069 0.950 . S
C1099 C1094 1.363 . S
C1099 C1098 1.415 . S
H1100 C1097 0.999 . S
H1101 C1082 0.913 . S
H1102 C1120 0.951 . S
H1103 C1122 0.951 . S
H1104 C1124 0.950 1_545 S
H1105 C1125 0.950 . S
H1106 C1127 0.950 . S
H1107 C1130 0.950 . S
H1108 C1131 0.950 . S
H1109 C1133 0.950 . S
H1110 C1134 0.950 . S
H1111 C1135 0.951 . S
H1112 C1137 0.951 . S
H1113 C1139 0.950 1_565 S
H1114 C1140 0.950 . S
H1115 C1142 0.950 . S
H1116 C1145 0.950 . S
H1117 C1146 0.950 . S
H1118 C1148 0.950 . S
H1119 C1149 0.950 . S
C1120 H1102 0.951 . S
C1120 C1121 1.366 . S
C1120 C1122 1.388 . S
C1121 C1120 1.366 . S
C1121 C1125 1.385 . S
C1122 H1103 0.951 . S
C1122 C1120 1.388 . S
C1122 C1123 1.366 . S
C1123 C1122 1.366 . S
C1123 C1124 1.414 . S
C1123 C1126 1.499 . S
C1124 H1104 0.950 1_565 S
C1124 C1123 1.414 . S
C1124 C1125 1.374 . S
C1125 H1105 0.950 . S
C1125 C1121 1.385 . S
C1125 C1124 1.374 . S
C1126 C1123 1.499 . S
C1126 C1127 1.373 1_565 S
C1126 C1128 1.389 . S
C1127 H1106 0.950 . S
C1127 C1126 1.373 1_545 S
C1127 C1143 1.377 . S
C1128 C1126 1.389 . S
C1128 C1129 1.524 . S
C1128 C1142 1.377 . S
C1129 C1128 1.524 . S
C1129 C1130 1.397 . S
C1129 C1134 1.363 . S
C1130 H1107 0.950 . S
C1130 C1129 1.397 . S
C1130 C1131 1.334 . S
C1131 H1108 0.950 . S
C1131 C1130 1.334 . S
C1131 C1132 1.287 . S
C1132 C1131 1.287 . S
C1132 C1133 1.524 . S
C1132 H1151 0.913 . S
C1133 H1109 0.950 . S
C1133 C1132 1.524 . S
C1133 C1134 1.415 . S
C1134 H1110 0.950 . S
C1134 C1129 1.363 . S
C1134 C1133 1.415 . S
C1135 H1111 0.951 . S
C1135 C1136 1.366 . S
C1135 C1137 1.388 . S
C1136 C1135 1.366 . S
C1136 C1140 1.385 . S
C1137 H1112 0.951 . S
C1137 C1135 1.388 . S
C1137 C1138 1.366 . S
C1138 C1137 1.366 . S
C1138 C1139 1.414 . S
C1138 C1141 1.499 . S
C1139 H1113 0.950 1_545 S
C1139 C1138 1.414 . S
C1139 C1140 1.374 . S
C1140 H1114 0.950 . S
C1140 C1136 1.385 . S
C1140 C1139 1.374 . S
C1141 C1138 1.499 . S
C1141 C1142 1.373 1_545 S
C1141 C1143 1.389 . S
C1142 H1115 0.950 . S
C1142 C1128 1.377 . S
C1142 C1141 1.373 1_565 S
C1143 C1127 1.377 . S
C1143 C1141 1.389 . S
C1143 C1144 1.524 . S
C1144 C1143 1.524 . S
C1144 C1145 1.397 . S
C1144 C1149 1.363 . S
C1145 H1116 0.950 . S
C1145 C1144 1.397 . S
C1145 C1146 1.334 . S
C1146 H1117 0.950 . S
C1146 C1145 1.334 . S
C1146 C1147 1.287 . S
C1147 C1146 1.287 . S
C1147 C1148 1.524 . S
C1147 H1150 0.999 . S
C1148 H1118 0.950 . S
C1148 C1147 1.524 . S
C1148 C1149 1.415 . S
C1149 H1119 0.950 . S
C1149 C1144 1.363 . S
C1149 C1148 1.415 . S
H1150 C1147 0.999 . S
H1151 C1132 0.913 . S
H1152 C1170 0.951 . S
H1153 C1172 0.951 . S
H1154 C1174 0.950 . S
H1155 C1175 0.950 1_556 S
H1156 C1177 0.950 . S
H1157 C1180 0.950 . S
H1158 C1181 0.950 . S
H1159 C1183 0.950 . S
H1160 C1184 0.950 . S
H1161 C1185 0.951 . S
H1162 C1187 0.951 . S
H1163 C1189 0.950 . S
H1164 C1190 0.950 1_554 S
H1165 C1192 0.950 . S
H1166 C1195 0.950 . S
H1167 C1196 0.950 . S
H1168 C1198 0.950 . S
H1169 C1199 0.950 . S
C1170 H1152 0.951 . S
C1170 C1171 1.366 . S
C1170 C1172 1.388 . S
C1171 C1170 1.366 . S
C1171 C1175 1.385 . S
C1172 H1153 0.951 . S
C1172 C1170 1.388 . S
C1172 C1173 1.366 . S
C1173 C1172 1.366 . S
C1173 C1174 1.414 1_554 S
C1173 C1176 1.499 . S
C1174 H1154 0.950 . S
C1174 C1173 1.414 1_556 S
C1174 C1175 1.374 1_556 S
C1175 H1155 0.950 1_554 S
C1175 C1171 1.385 . S
C1175 C1174 1.374 1_554 S
C1176 C1173 1.499 . S
C1176 C1177 1.373 1_554 S
C1176 C1178 1.389 . S
C1177 H1156 0.950 . S
C1177 C1176 1.373 1_556 S
C1177 C1193 1.377 . S
C1178 C1176 1.389 . S
C1178 C1179 1.524 . S
C1178 C1192 1.377 . S
C1179 C1178 1.524 . S
C1179 C1180 1.397 . S
C1179 C1184 1.363 . S
C1180 H1157 0.950 . S
C1180 C1179 1.397 . S
C1180 C1181 1.334 . S
C1181 H1158 0.950 . S
C1181 C1180 1.334 . S
C1181 C1182 1.287 . S
C1182 C1181 1.287 . S
C1182 C1183 1.524 . S
C1182 H1201 0.913 . S
C1183 H1159 0.950 . S
C1183 C1182 1.524 . S
C1183 C1184 1.415 . S
C1184 H1160 0.950 . S
C1184 C1179 1.363 . S
C1184 C1183 1.415 . S
C1185 H1161 0.951 . S
C1185 C1186 1.366 . S
C1185 C1187 1.388 . S
C1186 C1185 1.366 . S
C1186 C1190 1.385 . S
C1187 H1162 0.951 . S
C1187 C1185 1.388 . S
C1187 C1188 1.366 . S
C1188 C1187 1.366 . S
C1188 C1189 1.414 1_556 S
C1188 C1191 1.499 . S
C1189 H1163 0.950 . S
C1189 C1188 1.414 1_554 S
C1189 C1190 1.374 1_554 S
C1190 H1164 0.950 1_556 S
C1190 C1186 1.385 . S
C1190 C1189 1.374 1_556 S
C1191 C1188 1.499 . S
C1191 C1192 1.373 1_556 S
C1191 C1193 1.389 . S
C1192 H1165 0.950 . S
C1192 C1178 1.377 . S
C1192 C1191 1.373 1_554 S
C1193 C1177 1.377 . S
C1193 C1191 1.389 . S
C1193 C1194 1.524 . S
C1194 C1193 1.524 . S
C1194 C1195 1.397 . S
C1194 C1199 1.363 . S
C1195 H1166 0.950 . S
C1195 C1194 1.397 . S
C1195 C1196 1.334 . S
C1196 H1167 0.950 . S
C1196 C1195 1.334 . S
C1196 C1197 1.287 . S
C1197 C1196 1.287 . S
C1197 C1198 1.524 . S
C1197 H1200 0.999 . S
C1198 H1168 0.950 . S
C1198 C1197 1.524 . S
C1198 C1199 1.415 . S
C1199 H1169 0.950 . S
C1199 C1194 1.363 . S
C1199 C1198 1.415 . S
H1200 C1197 0.999 . S
H1201 C1182 0.913 . S
H1202 C1220 0.951 . S
H1203 C1222 0.951 1_554 S
H1204 C1224 0.950 . S
H1205 C1225 0.950 . S
H1206 C1227 0.950 . S
H1207 C1230 0.950 . S
H1208 C1231 0.950 . S
H1209 C1233 0.950 . S
H1210 C1234 0.950 1_554 S
H1211 C1235 0.951 . S
H1212 C1237 0.951 1_556 S
H1213 C1239 0.950 . S
H1214 C1240 0.950 . S
H1215 C1242 0.950 . S
H1216 C1245 0.950 . S
H1217 C1246 0.950 . S
H1218 C1248 0.950 . S
H1219 C1249 0.950 1_556 S
C1220 H1202 0.951 . S
C1220 C1221 1.366 . S
C1220 C1222 1.388 . S
C1221 C1220 1.366 . S
C1221 C1225 1.385 . S
C1222 H1203 0.951 1_556 S
C1222 C1220 1.388 . S
C1222 C1223 1.366 . S
C1223 C1222 1.366 . S
C1223 C1224 1.414 . S
C1223 C1226 1.499 . S
C1224 H1204 0.950 . S
C1224 C1223 1.414 . S
C1224 C1225 1.374 . S
C1225 H1205 0.950 . S
C1225 C1221 1.385 . S
C1225 C1224 1.374 . S
C1226 C1223 1.499 . S
C1226 C1227 1.375 . S
C1226 C1228 1.389 . S
C1227 H1206 0.950 . S
C1227 C1226 1.375 . S
C1227 C1243 1.375 1_546 S
C1228 C1226 1.389 . S
C1228 C1229 1.524 . S
C1228 C1242 1.374 1_546 S
C1229 C1228 1.524 . S
C1229 C1230 1.397 . S
C1229 C1234 1.363 . S
C1230 H1207 0.950 . S
C1230 C1229 1.397 . S
C1230 C1231 1.334 . S
C1231 H1208 0.950 . S
C1231 C1230 1.334 . S
C1231 C1232 1.287 . S
C1232 C1231 1.287 . S
C1232 C1233 1.524 . S
C1232 H1251 0.913 . S
C1233 H1209 0.950 . S
C1233 C1232 1.524 . S
C1233 C1234 1.415 . S
C1234 H1210 0.950 1_556 S
C1234 C1229 1.363 . S
C1234 C1233 1.415 . S
C1235 H1211 0.951 . S
C1235 C1236 1.366 . S
C1235 C1237 1.388 . S
C1236 C1235 1.366 . S
C1236 C1240 1.385 . S
C1237 H1212 0.951 1_554 S
C1237 C1235 1.388 . S
C1237 C1238 1.366 . S
C1238 C1237 1.366 . S
C1238 C1239 1.414 . S
C1238 C1241 1.499 . S
C1239 H1213 0.950 . S
C1239 C1238 1.414 . S
C1239 C1240 1.374 . S
C1240 H1214 0.950 . S
C1240 C1236 1.385 . S
C1240 C1239 1.374 . S
C1241 C1238 1.499 . S
C1241 C1242 1.375 . S
C1241 C1243 1.389 . S
C1242 H1215 0.950 . S
C1242 C1228 1.374 1_564 S
C1242 C1241 1.375 . S
C1243 C1227 1.375 1_564 S
C1243 C1241 1.389 . S
C1243 C1244 1.524 . S
C1244 C1243 1.524 . S
C1244 C1245 1.397 . S
C1244 C1249 1.363 . S
C1245 H1216 0.950 . S
C1245 C1244 1.397 . S
C1245 C1246 1.334 . S
C1246 H1217 0.950 . S
C1246 C1245 1.334 . S
C1246 C1247 1.287 . S
C1247 C1246 1.287 . S
C1247 C1248 1.524 . S
C1247 H1250 0.999 . S
C1248 H1218 0.950 . S
C1248 C1247 1.524 . S
C1248 C1249 1.415 . S
C1249 H1219 0.950 1_554 S
C1249 C1244 1.363 . S
C1249 C1248 1.415 . S
H1250 C1247 0.999 . S
H1251 C1232 0.913 . S
H1252 C1270 0.951 . S
H1253 C1272 0.951 . S
H1254 C1274 0.950 . S
H1255 C1275 0.950 . S
H1256 C1277 0.950 . S
H1257 C1280 0.950 . S
H1258 C1281 0.950 . S
H1259 C1283 0.950 . S
H1260 C1284 0.950 . S
H1261 C1285 0.951 . S
H1262 C1287 0.951 . S
H1263 C1289 0.950 . S
H1264 C1290 0.950 . S
H1265 C1292 0.950 . S
H1266 C1295 0.950 . S
H1267 C1296 0.950 . S
H1268 C1298 0.950 . S
H1269 C1299 0.950 . S
C1270 H1252 0.951 . S
C1270 C1271 1.366 . S
C1270 C1272 1.388 . S
C1271 C1270 1.366 . S
C1271 C1275 1.385 . S
C1272 H1253 0.951 . S
C1272 C1270 1.388 . S
C1272 C1273 1.366 . S
C1273 C1272 1.366 . S
C1273 C1274 1.414 . S
C1273 C1276 1.499 . S
C1274 H1254 0.950 . S
C1274 C1273 1.414 . S
C1274 C1275 1.374 . S
C1275 H1255 0.950 . S
C1275 C1271 1.385 . S
C1275 C1274 1.374 . S
C1276 C1273 1.499 . S
C1276 C1277 1.373 . S
C1276 C1278 1.389 1_556 S
C1277 H1256 0.950 . S
C1277 C1276 1.373 . S
C1277 C1293 1.377 1_655 S
C1278 C1276 1.389 1_554 S
C1278 C1279 1.524 . S
C1278 C1292 1.377 1_655 S
C1279 C1278 1.524 . S
C1279 C1280 1.397 . S
C1279 C1284 1.363 . S
C1280 H1257 0.950 . S
C1280 C1279 1.397 . S
C1280 C1281 1.334 . S
C1281 H1258 0.950 . S
C1281 C1280 1.334 . S
C1281 C1282 1.287 . S
C1282 C1281 1.287 . S
C1282 C1283 1.524 . S
C1282 H1301 0.913 . S
C1283 H1259 0.950 . S
C1283 C1282 1.524 . S
C1283 C1284 1.415 . S
C1284 H1260 0.950 . S
C1284 C1279 1.363 . S
C1284 C1283 1.415 . S
C1285 H1261 0.951 . S
C1285 C1286 1.366 . S
C1285 C1287 1.388 . S
C1286 C1285 1.366 . S
C1286 C1290 1.385 . S
C1287 H1262 0.951 . S
C1287 C1285 1.388 . S
C1287 C1288 1.366 . S
C1288 C1287 1.366 . S
C1288 C1289 1.414 . S
C1288 C1291 1.499 . S
C1289 H1263 0.950 . S
C1289 C1288 1.414 . S
C1289 C1290 1.374 . S
C1290 H1264 0.950 . S
C1290 C1286 1.385 . S
C1290 C1289 1.374 . S
C1291 C1288 1.499 . S
C1291 C1292 1.373 . S
C1291 C1293 1.389 1_554 S
C1292 H1265 0.950 . S
C1292 C1278 1.377 1_455 S
C1292 C1291 1.373 . S
C1293 C1277 1.377 1_455 S
C1293 C1291 1.389 1_556 S
C1293 C1294 1.524 . S
C1294 C1293 1.524 . S
C1294 C1295 1.397 . S
C1294 C1299 1.363 . S
C1295 H1266 0.950 . S
C1295 C1294 1.397 . S
C1295 C1296 1.334 . S
C1296 H1267 0.950 . S
C1296 C1295 1.334 . S
C1296 C1297 1.287 . S
C1297 C1296 1.287 . S
C1297 C1298 1.524 . S
C1297 H1300 0.999 . S
C1298 H1268 0.950 . S
C1298 C1297 1.524 . S
C1298 C1299 1.415 . S
C1299 H1269 0.950 . S
C1299 C1294 1.363 . S
C1299 C1298 1.415 . S
H1300 C1297 0.999 . S
H1301 C1282 0.913 . S
H1302 C1320 0.951 . S
H1303 C1322 0.951 . S
H1304 C1324 0.950 . S
H1305 C1325 0.950 . S
H1306 C1327 0.950 . S
H1307 C1330 0.950 . S
H1308 C1331 0.950 . S
H1309 C1333 0.950 . S
H1310 C1334 0.950 . S
H1311 C1335 0.951 . S
H1312 C1337 0.951 . S
H1313 C1339 0.950 . S
H1314 C1340 0.950 . S
H1315 C1342 0.950 . S
H1316 C1345 0.950 . S
H1317 C1346 0.950 . S
H1318 C1348 0.950 . S
H1319 C1349 0.950 . S
C1320 H1302 0.951 . S
C1320 C1321 1.366 . S
C1320 C1322 1.388 . S
C1321 C1320 1.366 . S
C1321 C1325 1.385 . S
C1322 H1303 0.951 . S
C1322 C1320 1.388 . S
C1322 C1323 1.366 . S
C1323 C1322 1.366 . S
C1323 C1324 1.414 . S
C1323 C1326 1.499 . S
C1324 H1304 0.950 . S
C1324 C1323 1.414 . S
C1324 C1325 1.374 . S
C1325 H1305 0.950 . S
C1325 C1321 1.385 . S
C1325 C1324 1.374 . S
C1326 C1323 1.499 . S
C1326 C1327 1.373 1_556 S
C1326 C1328 1.389 . S
C1327 H1306 0.950 . S
C1327 C1326 1.373 1_554 S
C1327 C1343 1.377 . S
C1328 C1326 1.389 . S
C1328 C1329 1.524 . S
C1328 C1342 1.377 . S
C1329 C1328 1.524 . S
C1329 C1330 1.397 . S
C1329 C1334 1.363 . S
C1330 H1307 0.950 . S
C1330 C1329 1.397 . S
C1330 C1331 1.334 . S
C1331 H1308 0.950 . S
C1331 C1330 1.334 . S
C1331 C1332 1.287 . S
C1332 C1331 1.287 . S
C1332 C1333 1.524 . S
C1332 H1351 0.913 . S
C1333 H1309 0.950 . S
C1333 C1332 1.524 . S
C1333 C1334 1.415 . S
C1334 H1310 0.950 . S
C1334 C1329 1.363 . S
C1334 C1333 1.415 . S
C1335 H1311 0.951 . S
C1335 C1336 1.366 . S
C1335 C1337 1.388 . S
C1336 C1335 1.366 . S
C1336 C1340 1.385 . S
C1337 H1312 0.951 . S
C1337 C1335 1.388 . S
C1337 C1338 1.366 . S
C1338 C1337 1.366 . S
C1338 C1339 1.414 . S
C1338 C1341 1.499 . S
C1339 H1313 0.950 . S
C1339 C1338 1.414 . S
C1339 C1340 1.374 . S
C1340 H1314 0.950 . S
C1340 C1336 1.385 . S
C1340 C1339 1.374 . S
C1341 C1338 1.499 . S
C1341 C1342 1.373 1_554 S
C1341 C1343 1.389 . S
C1342 H1315 0.950 . S
C1342 C1328 1.377 . S
C1342 C1341 1.373 1_556 S
C1343 C1327 1.377 . S
C1343 C1341 1.389 . S
C1343 C1344 1.524 . S
C1344 C1343 1.524 . S
C1344 C1345 1.397 . S
C1344 C1349 1.363 . S
C1345 H1316 0.950 . S
C1345 C1344 1.397 . S
C1345 C1346 1.334 . S
C1346 H1317 0.950 . S
C1346 C1345 1.334 . S
C1346 C1347 1.287 . S
C1347 C1346 1.287 . S
C1347 C1348 1.524 . S
C1347 H1350 0.999 . S
C1348 H1318 0.950 . S
C1348 C1347 1.524 . S
C1348 C1349 1.415 . S
C1349 H1319 0.950 . S
C1349 C1344 1.363 . S
C1349 C1348 1.415 . S
H1350 C1347 0.999 . S
H1351 C1332 0.913 . S
H1352 C1370 0.951 1_556 S
H1353 C1372 0.951 . S
H1354 C1374 0.950 . S
H1355 C1375 0.950 . S
H1356 C1377 0.950 . S
H1357 C1380 0.950 . S
H1358 C1381 0.950 . S
H1359 C1383 0.950 . S
H1360 C1384 0.950 . S
H1361 C1385 0.951 1_554 S
H1362 C1387 0.951 . S
H1363 C1389 0.950 . S
H1364 C1390 0.950 . S
H1365 C1392 0.950 . S
H1366 C1395 0.950 . S
H1367 C1396 0.950 . S
H1368 C1398 0.950 . S
H1369 C1399 0.950 . S
C1370 H1352 0.951 1_554 S
C1370 C1371 1.366 . S
C1370 C1372 1.388 1_554 S
C1371 C1370 1.366 . S
C1371 C1375 1.385 . S
C1372 H1353 0.951 . S
C1372 C1370 1.388 1_556 S
C1372 C1373 1.366 1_556 S
C1373 C1372 1.366 1_554 S
C1373 C1374 1.414 . S
C1373 C1376 1.499 . S
C1374 H1354 0.950 . S
C1374 C1373 1.414 . S
C1374 C1375 1.374 . S
C1375 H1355 0.950 . S
C1375 C1371 1.385 . S
C1375 C1374 1.374 . S
C1376 C1373 1.499 . S
C1376 C1377 1.373 . S
C1376 C1378 1.389 1_554 S
C1377 H1356 0.950 . S
C1377 C1376 1.373 . S
C1377 C1393 1.377 1_565 S
C1378 C1376 1.389 1_556 S
C1378 C1379 1.524 . S
C1378 C1392 1.377 1_565 S
C1379 C1378 1.524 . S
C1379 C1380 1.397 . S
C1379 C1384 1.363 . S
C1380 H1357 0.950 . S
C1380 C1379 1.397 . S
C1380 C1381 1.334 . S
C1381 H1358 0.950 . S
C1381 C1380 1.334 . S
C1381 C1382 1.287 . S
C1382 C1381 1.287 . S
C1382 C1383 1.524 . S
C1382 H1401 0.913 . S
C1383 H1359 0.950 . S
C1383 C1382 1.524 . S
C1383 C1384 1.415 . S
C1384 H1360 0.950 . S
C1384 C1379 1.363 . S
C1384 C1383 1.415 . S
C1385 H1361 0.951 1_556 S
C1385 C1386 1.366 . S
C1385 C1387 1.388 1_556 S
C1386 C1385 1.366 . S
C1386 C1390 1.385 . S
C1387 H1362 0.951 . S
C1387 C1385 1.388 1_554 S
C1387 C1388 1.366 1_554 S
C1388 C1387 1.366 1_556 S
C1388 C1389 1.414 . S
C1388 C1391 1.499 . S
C1389 H1363 0.950 . S
C1389 C1388 1.414 . S
C1389 C1390 1.374 . S
C1390 H1364 0.950 . S
C1390 C1386 1.385 . S
C1390 C1389 1.374 . S
C1391 C1388 1.499 . S
C1391 C1392 1.373 . S
C1391 C1393 1.389 1_556 S
C1392 H1365 0.950 . S
C1392 C1378 1.377 1_545 S
C1392 C1391 1.373 . S
C1393 C1377 1.377 1_545 S
C1393 C1391 1.389 1_554 S
C1393 C1394 1.524 . S
C1394 C1393 1.524 . S
C1394 C1395 1.397 . S
C1394 C1399 1.363 . S
C1395 H1366 0.950 . S
C1395 C1394 1.397 . S
C1395 C1396 1.334 . S
C1396 H1367 0.950 . S
C1396 C1395 1.334 . S
C1396 C1397 1.287 . S
C1397 C1396 1.287 . S
C1397 C1398 1.524 . S
C1397 H1400 0.999 . S
C1398 H1368 0.950 . S
C1398 C1397 1.524 . S
C1398 C1399 1.415 . S
C1399 H1369 0.950 . S
C1399 C1394 1.363 . S
C1399 C1398 1.415 . S
H1400 C1397 0.999 . S
H1401 C1382 0.913 . S
H1402 C1420 0.951 . S
H1403 C1422 0.951 . S
H1404 C1424 0.950 . S
H1405 C1425 0.950 . S
H1406 C1427 0.950 . S
H1407 C1430 0.950 . S
H1408 C1431 0.950 . S
H1409 C1433 0.950 . S
H1410 C1434 0.950 1_455 S
H1411 C1435 0.951 . S
H1412 C1437 0.951 . S
H1413 C1439 0.950 . S
H1414 C1440 0.950 . S
H1415 C1442 0.950 . S
H1416 C1445 0.950 . S
H1417 C1446 0.950 . S
H1418 C1448 0.950 . S
H1419 C1449 0.950 1_655 S
C1420 H1402 0.951 . S
C1420 C1421 1.366 . S
C1420 C1422 1.388 . S
C1421 C1420 1.366 . S
C1421 C1425 1.385 1_556 S
C1422 H1403 0.951 . S
C1422 C1420 1.388 . S
C1422 C1423 1.366 . S
C1423 C1422 1.366 . S
C1423 C1424 1.414 1_556 S
C1423 C1426 1.499 . S
C1424 H1404 0.950 . S
C1424 C1423 1.414 1_554 S
C1424 C1425 1.374 . S
C1425 H1405 0.950 . S
C1425 C1421 1.385 1_554 S
C1425 C1424 1.374 . S
C1426 C1423 1.499 . S
C1426 C1427 1.373 1_556 S
C1426 C1428 1.389 . S
C1427 H1406 0.950 . S
C1427 C1426 1.373 1_554 S
C1427 C1443 1.377 1_655 S
C1428 C1426 1.389 . S
C1428 C1429 1.524 . S
C1428 C1442 1.377 1_655 S
C1429 C1428 1.524 . S
C1429 C1430 1.397 . S
C1429 C1434 1.363 . S
C1430 H1407 0.950 . S
C1430 C1429 1.397 . S
C1430 C1431 1.334 . S
C1431 H1408 0.950 . S
C1431 C1430 1.334 . S
C1431 C1432 1.287 . S
C1432 C1431 1.287 . S
C1432 C1433 1.524 . S
C1432 H1451 0.913 . S
C1433 H1409 0.950 . S
C1433 C1432 1.524 . S
C1433 C1434 1.415 . S
C1434 H1410 0.950 1_655 S
C1434 C1429 1.363 . S
C1434 C1433 1.415 . S
C1435 H1411 0.951 . S
C1435 C1436 1.366 . S
C1435 C1437 1.388 . S
C1436 C1435 1.366 . S
C1436 C1440 1.385 1_554 S
C1437 H1412 0.951 . S
C1437 C1435 1.388 . S
C1437 C1438 1.366 . S
C1438 C1437 1.366 . S
C1438 C1439 1.414 1_554 S
C1438 C1441 1.499 . S
C1439 H1413 0.950 . S
C1439 C1438 1.414 1_556 S
C1439 C1440 1.374 . S
C1440 H1414 0.950 . S
C1440 C1436 1.385 1_556 S
C1440 C1439 1.374 . S
C1441 C1438 1.499 . S
C1441 C1442 1.373 1_554 S
C1441 C1443 1.389 . S
C1442 H1415 0.950 . S
C1442 C1428 1.377 1_455 S
C1442 C1441 1.373 1_556 S
C1443 C1427 1.377 1_455 S
C1443 C1441 1.389 . S
C1443 C1444 1.524 . S
C1444 C1443 1.524 . S
C1444 C1445 1.397 . S
C1444 C1449 1.363 . S
C1445 H1416 0.950 . S
C1445 C1444 1.397 . S
C1445 C1446 1.334 . S
C1446 H1417 0.950 . S
C1446 C1445 1.334 . S
C1446 C1447 1.287 . S
C1447 C1446 1.287 . S
C1447 C1448 1.524 . S
C1447 H1450 0.999 . S
C1448 H1418 0.950 . S
C1448 C1447 1.524 . S
C1448 C1449 1.415 . S
C1449 H1419 0.950 1_455 S
C1449 C1444 1.363 . S
C1449 C1448 1.415 . S
H1450 C1447 0.999 . S
H1451 C1432 0.913 . S
H1452 C1470 0.951 . S
H1453 C1472 0.951 . S
H1454 C1474 0.950 . S
H1455 C1475 0.950 . S
H1456 C1477 0.950 . S
H1457 C1480 0.950 . S
H1458 C1481 0.950 . S
H1459 C1483 0.950 . S
H1460 C1484 0.950 . S
H1461 C1485 0.951 . S
H1462 C1487 0.951 . S
H1463 C1489 0.950 . S
H1464 C1490 0.950 . S
H1465 C1492 0.950 . S
H1466 C1495 0.950 . S
H1467 C1496 0.950 . S
H1468 C1498 0.950 . S
H1469 C1499 0.950 . S
C1470 H1452 0.951 . S
C1470 C1471 1.366 . S
C1470 C1472 1.388 . S
C1471 C1470 1.366 . S
C1471 C1475 1.385 . S
C1472 H1453 0.951 . S
C1472 C1470 1.388 . S
C1472 C1473 1.366 . S
C1473 C1472 1.366 . S
C1473 C1474 1.414 . S
C1473 C1476 1.499 . S
C1474 H1454 0.950 . S
C1474 C1473 1.414 . S
C1474 C1475 1.374 . S
C1475 H1455 0.950 . S
C1475 C1471 1.385 . S
C1475 C1474 1.374 . S
C1476 C1473 1.499 . S
C1476 C1477 1.373 . S
C1476 C1478 1.389 . S
C1477 H1456 0.950 . S
C1477 C1476 1.373 . S
C1477 C1493 1.377 . S
C1478 C1476 1.389 . S
C1478 C1479 1.524 . S
C1478 C1492 1.377 . S
C1479 C1478 1.524 . S
C1479 C1480 1.397 . S
C1479 C1484 1.363 . S
C1480 H1457 0.950 . S
C1480 C1479 1.397 . S
C1480 C1481 1.334 . S
C1481 H1458 0.950 . S
C1481 C1480 1.334 . S
C1481 C1482 1.287 . S
C1482 C1481 1.287 . S
C1482 C1483 1.524 . S
C1482 H1501 0.913 . S
C1483 H1459 0.950 . S
C1483 C1482 1.524 . S
C1483 C1484 1.415 . S
C1484 H1460 0.950 . S
C1484 C1479 1.363 . S
C1484 C1483 1.415 . S
C1485 H1461 0.951 . S
C1485 C1486 1.366 . S
C1485 C1487 1.388 . S
C1486 C1485 1.366 . S
C1486 C1490 1.385 . S
C1487 H1462 0.951 . S
C1487 C1485 1.388 . S
C1487 C1488 1.366 . S
C1488 C1487 1.366 . S
C1488 C1489 1.414 . S
C1488 C1491 1.499 . S
C1489 H1463 0.950 . S
C1489 C1488 1.414 . S
C1489 C1490 1.374 . S
C1490 H1464 0.950 . S
C1490 C1486 1.385 . S
C1490 C1489 1.374 . S
C1491 C1488 1.499 . S
C1491 C1492 1.373 . S
C1491 C1493 1.389 . S
C1492 H1465 0.950 . S
C1492 C1478 1.377 . S
C1492 C1491 1.373 . S
C1493 C1477 1.377 . S
C1493 C1491 1.389 . S
C1493 C1494 1.524 . S
C1494 C1493 1.524 . S
C1494 C1495 1.397 . S
C1494 C1499 1.363 . S
C1495 H1466 0.950 . S
C1495 C1494 1.397 . S
C1495 C1496 1.334 . S
C1496 H1467 0.950 . S
C1496 C1495 1.334 . S
C1496 C1497 1.287 . S
C1497 C1496 1.287 . S
C1497 C1498 1.524 . S
C1497 H1500 0.999 . S
C1498 H1468 0.950 . S
C1498 C1497 1.524 . S
C1498 C1499 1.415 . S
C1499 H1469 0.950 . S
C1499 C1494 1.363 . S
C1499 C1498 1.415 . S
H1500 C1497 0.999 . S
H1501 C1482 0.913 . S
H1502 C1520 0.951 . S
H1503 C1522 0.951 . S
H1504 C1524 0.950 . S
H1505 C1525 0.950 . S
H1506 C1527 0.950 . S
H1507 C1530 0.950 . S
H1508 C1531 0.950 . S
H1509 C1533 0.950 . S
H1510 C1534 0.950 . S
H1511 C1535 0.951 . S
H1512 C1537 0.951 . S
H1513 C1539 0.950 . S
H1514 C1540 0.950 . S
H1515 C1542 0.950 . S
H1516 C1545 0.950 . S
H1517 C1546 0.950 . S
H1518 C1548 0.950 . S
H1519 C1549 0.950 . S
C1520 H1502 0.951 . S
C1520 C1521 1.366 . S
C1520 C1522 1.388 . S
C1521 C1520 1.366 . S
C1521 C1525 1.385 . S
C1522 H1503 0.951 . S
C1522 C1520 1.388 . S
C1522 C1523 1.366 . S
C1523 C1522 1.366 . S
C1523 C1524 1.414 . S
C1523 C1526 1.499 . S
C1524 H1504 0.950 . S
C1524 C1523 1.414 . S
C1524 C1525 1.374 . S
C1525 H1505 0.950 . S
C1525 C1521 1.385 . S
C1525 C1524 1.374 . S
C1526 C1523 1.499 . S
C1526 C1527 1.373 . S
C1526 C1528 1.389 . S
C1527 H1506 0.950 . S
C1527 C1526 1.373 . S
C1527 C1543 1.377 . S
C1528 C1526 1.389 . S
C1528 C1529 1.524 . S
C1528 C1542 1.377 . S
C1529 C1528 1.524 . S
C1529 C1530 1.397 . S
C1529 C1534 1.363 . S
C1530 H1507 0.950 . S
C1530 C1529 1.397 . S
C1530 C1531 1.334 . S
C1531 H1508 0.950 . S
C1531 C1530 1.334 . S
C1531 C1532 1.287 . S
C1532 C1531 1.287 . S
C1532 C1533 1.524 . S
C1532 H1551 0.913 . S
C1533 H1509 0.950 . S
C1533 C1532 1.524 . S
C1533 C1534 1.415 . S
C1534 H1510 0.950 . S
C1534 C1529 1.363 . S
C1534 C1533 1.415 . S
C1535 H1511 0.951 . S
C1535 C1536 1.366 . S
C1535 C1537 1.388 . S
C1536 C1535 1.366 . S
C1536 C1540 1.385 . S
C1537 H1512 0.951 . S
C1537 C1535 1.388 . S
C1537 C1538 1.366 . S
C1538 C1537 1.366 . S
C1538 C1539 1.414 . S
C1538 C1541 1.499 . S
C1539 H1513 0.950 . S
C1539 C1538 1.414 . S
C1539 C1540 1.374 . S
C1540 H1514 0.950 . S
C1540 C1536 1.385 . S
C1540 C1539 1.374 . S
C1541 C1538 1.499 . S
C1541 C1542 1.373 . S
C1541 C1543 1.389 . S
C1542 H1515 0.950 . S
C1542 C1528 1.377 . S
C1542 C1541 1.373 . S
C1543 C1527 1.377 . S
C1543 C1541 1.389 . S
C1543 C1544 1.524 . S
C1544 C1543 1.524 . S
C1544 C1545 1.397 . S
C1544 C1549 1.363 . S
C1545 H1516 0.950 . S
C1545 C1544 1.397 . S
C1545 C1546 1.334 . S
C1546 H1517 0.950 . S
C1546 C1545 1.334 . S
C1546 C1547 1.287 . S
C1547 C1546 1.287 . S
C1547 C1548 1.524 . S
C1547 H1550 0.999 . S
C1548 H1518 0.950 . S
C1548 C1547 1.524 . S
C1548 C1549 1.415 . S
C1549 H1519 0.950 . S
C1549 C1544 1.363 . S
C1549 C1548 1.415 . S
H1550 C1547 0.999 . S
H1551 C1532 0.913 . S
H1552 C1570 0.951 . S
H1553 C1572 0.951 . S
H1554 C1574 0.950 . S
H1555 C1575 0.950 . S
H1556 C1577 0.950 . S
H1557 C1580 0.950 . S
H1558 C1581 0.950 . S
H1559 C1583 0.950 . S
H1560 C1584 0.950 . S
H1561 C1585 0.951 . S
H1562 C1587 0.951 . S
H1563 C1589 0.950 . S
H1564 C1590 0.950 . S
H1565 C1592 0.950 . S
H1566 C1595 0.950 . S
H1567 C1596 0.950 . S
H1568 C1598 0.950 . S
H1569 C1599 0.950 . S
C1570 H1552 0.951 . S
C1570 C1571 1.366 . S
C1570 C1572 1.388 . S
C1571 C1570 1.366 . S
C1571 C1575 1.385 . S
C1572 H1553 0.951 . S
C1572 C1570 1.388 . S
C1572 C1573 1.366 . S
C1573 C1572 1.366 . S
C1573 C1574 1.414 . S
C1573 C1576 1.499 . S
C1574 H1554 0.950 . S
C1574 C1573 1.414 . S
C1574 C1575 1.374 . S
C1575 H1555 0.950 . S
C1575 C1571 1.385 . S
C1575 C1574 1.374 . S
C1576 C1573 1.499 . S
C1576 C1577 1.373 . S
C1576 C1578 1.389 . S
C1577 H1556 0.950 . S
C1577 C1576 1.373 . S
C1577 C1593 1.377 . S
C1578 C1576 1.389 . S
C1578 C1579 1.524 . S
C1578 C1592 1.377 . S
C1579 C1578 1.524 . S
C1579 C1580 1.397 . S
C1579 C1584 1.363 . S
C1580 H1557 0.950 . S
C1580 C1579 1.397 . S
C1580 C1581 1.334 . S
C1581 H1558 0.950 . S
C1581 C1580 1.334 . S
C1581 C1582 1.287 . S
C1582 C1581 1.287 . S
C1582 C1583 1.524 . S
C1582 H1601 0.913 . S
C1583 H1559 0.950 . S
C1583 C1582 1.524 . S
C1583 C1584 1.415 . S
C1584 H1560 0.950 . S
C1584 C1579 1.363 . S
C1584 C1583 1.415 . S
C1585 H1561 0.951 . S
C1585 C1586 1.366 . S
C1585 C1587 1.388 . S
C1586 C1585 1.366 . S
C1586 C1590 1.385 . S
C1587 H1562 0.951 . S
C1587 C1585 1.388 . S
C1587 C1588 1.366 . S
C1588 C1587 1.366 . S
C1588 C1589 1.414 . S
C1588 C1591 1.499 . S
C1589 H1563 0.950 . S
C1589 C1588 1.414 . S
C1589 C1590 1.374 . S
C1590 H1564 0.950 . S
C1590 C1586 1.385 . S
C1590 C1589 1.374 . S
C1591 C1588 1.499 . S
C1591 C1592 1.373 . S
C1591 C1593 1.389 . S
C1592 H1565 0.950 . S
C1592 C1578 1.377 . S
C1592 C1591 1.373 . S
C1593 C1577 1.377 . S
C1593 C1591 1.389 . S
C1593 C1594 1.524 . S
C1594 C1593 1.524 . S
C1594 C1595 1.397 . S
C1594 C1599 1.363 . S
C1595 H1566 0.950 . S
C1595 C1594 1.397 . S
C1595 C1596 1.334 . S
C1596 H1567 0.950 . S
C1596 C1595 1.334 . S
C1596 C1597 1.287 . S
C1597 C1596 1.287 . S
C1597 C1598 1.524 . S
C1597 H1600 0.999 . S
C1598 H1568 0.950 . S
C1598 C1597 1.524 . S
C1598 C1599 1.415 . S
C1599 H1569 0.950 . S
C1599 C1594 1.363 . S
C1599 C1598 1.415 . S
H1600 C1597 0.999 . S
H1601 C1582 0.913 . S
H1602 C1620 0.951 . S
H1603 C1622 0.951 . S
H1604 C1624 0.950 . S
H1605 C1625 0.950 . S
H1606 C1627 0.950 . S
H1607 C1630 0.950 . S
H1608 C1631 0.950 . S
H1609 C1633 0.950 . S
H1610 C1634 0.950 . S
H1611 C1635 0.951 . S
H1612 C1637 0.951 . S
H1613 C1639 0.950 . S
H1614 C1640 0.950 . S
H1615 C1642 0.950 . S
H1616 C1645 0.950 . S
H1617 C1646 0.950 . S
H1618 C1648 0.950 . S
H1619 C1649 0.950 . S
C1620 H1602 0.951 . S
C1620 C1621 1.366 . S
C1620 C1622 1.388 . S
C1621 C1620 1.366 . S
C1621 C1625 1.385 . S
C1622 H1603 0.951 . S
C1622 C1620 1.388 . S
C1622 C1623 1.366 . S
C1623 C1622 1.366 . S
C1623 C1624 1.414 . S
C1623 C1626 1.499 . S
C1624 H1604 0.950 . S
C1624 C1623 1.414 . S
C1624 C1625 1.374 . S
C1625 H1605 0.950 . S
C1625 C1621 1.385 . S
C1625 C1624 1.374 . S
C1626 C1623 1.499 . S
C1626 C1627 1.373 . S
C1626 C1628 1.389 . S
C1627 H1606 0.950 . S
C1627 C1626 1.373 . S
C1627 C1643 1.377 . S
C1628 C1626 1.389 . S
C1628 C1629 1.524 . S
C1628 C1642 1.377 . S
C1629 C1628 1.524 . S
C1629 C1630 1.397 . S
C1629 C1634 1.363 . S
C1630 H1607 0.950 . S
C1630 C1629 1.397 . S
C1630 C1631 1.334 . S
C1631 H1608 0.950 . S
C1631 C1630 1.334 . S
C1631 C1632 1.287 . S
C1632 C1631 1.287 . S
C1632 C1633 1.524 . S
C1632 H1651 0.913 . S
C1633 H1609 0.950 . S
C1633 C1632 1.524 . S
C1633 C1634 1.415 . S
C1634 H1610 0.950 . S
C1634 C1629 1.363 . S
C1634 C1633 1.415 . S
C1635 H1611 0.951 . S
C1635 C1636 1.366 . S
C1635 C1637 1.388 . S
C1636 C1635 1.366 . S
C1636 C1640 1.385 . S
C1637 H1612 0.951 . S
C1637 C1635 1.388 . S
C1637 C1638 1.366 . S
C1638 C1637 1.366 . S
C1638 C1639 1.414 . S
C1638 C1641 1.499 . S
C1639 H1613 0.950 . S
C1639 C1638 1.414 . S
C1639 C1640 1.374 . S
C1640 H1614 0.950 . S
C1640 C1636 1.385 . S
C1640 C1639 1.374 . S
C1641 C1638 1.499 . S
C1641 C1642 1.373 . S
C1641 C1643 1.389 . S
C1642 H1615 0.950 . S
C1642 C1628 1.377 . S
C1642 C1641 1.373 . S
C1643 C1627 1.377 . S
C1643 C1641 1.389 . S
C1643 C1644 1.524 . S
C1644 C1643 1.524 . S
C1644 C1645 1.397 . S
C1644 C1649 1.363 . S
C1645 H1616 0.950 . S
C1645 C1644 1.397 . S
C1645 C1646 1.334 . S
C1646 H1617 0.950 . S
C1646 C1645 1.334 . S
C1646 C1647 1.287 . S
C1647 C1646 1.287 . S
C1647 C1648 1.524 . S
C1647 H1650 0.999 . S
C1648 H1618 0.950 . S
C1648 C1647 1.524 . S
C1648 C1649 1.415 . S
C1649 H1619 0.950 . S
C1649 C1644 1.363 . S
C1649 C1648 1.415 . S
H1650 C1647 0.999 . S
H1651 C1632 0.913 . S
H1652 C1670 0.951 . S
H1653 C1672 0.951 . S
H1654 C1674 0.950 . S
H1655 C1675 0.950 . S
H1656 C1677 0.950 . S
H1657 C1680 0.950 . S
H1658 C1681 0.950 . S
H1659 C1683 0.950 . S
H1660 C1684 0.950 . S
H1661 C1685 0.951 . S
H1662 C1687 0.951 . S
H1663 C1689 0.950 . S
H1664 C1690 0.950 . S
H1665 C1692 0.950 . S
H1666 C1695 0.950 . S
H1667 C1696 0.950 . S
H1668 C1698 0.950 . S
H1669 C1699 0.950 . S
C1670 H1652 0.951 . S
C1670 C1671 1.366 . S
C1670 C1672 1.388 . S
C1671 C1670 1.366 . S
C1671 C1675 1.385 . S
C1672 H1653 0.951 . S
C1672 C1670 1.388 . S
C1672 C1673 1.366 . S
C1673 C1672 1.366 . S
C1673 C1674 1.414 . S
C1673 C1676 1.499 . S
C1674 H1654 0.950 . S
C1674 C1673 1.414 . S
C1674 C1675 1.374 . S
C1675 H1655 0.950 . S
C1675 C1671 1.385 . S
C1675 C1674 1.374 . S
C1676 C1673 1.499 . S
C1676 C1677 1.373 . S
C1676 C1678 1.389 . S
C1677 H1656 0.950 . S
C1677 C1676 1.373 . S
C1677 C1693 1.377 . S
C1678 C1676 1.389 . S
C1678 C1679 1.524 . S
C1678 C1692 1.377 . S
C1679 C1678 1.524 . S
C1679 C1680 1.397 . S
C1679 C1684 1.363 . S
C1680 H1657 0.950 . S
C1680 C1679 1.397 . S
C1680 C1681 1.334 . S
C1681 H1658 0.950 . S
C1681 C1680 1.334 . S
C1681 C1682 1.287 . S
C1682 C1681 1.287 . S
C1682 C1683 1.524 . S
C1682 H1701 0.913 . S
C1683 H1659 0.950 . S
C1683 C1682 1.524 . S
C1683 C1684 1.415 . S
C1684 H1660 0.950 . S
C1684 C1679 1.363 . S
C1684 C1683 1.415 . S
C1685 H1661 0.951 . S
C1685 C1686 1.366 . S
C1685 C1687 1.388 . S
C1686 C1685 1.366 . S
C1686 C1690 1.385 . S
C1687 H1662 0.951 . S
C1687 C1685 1.388 . S
C1687 C1688 1.366 . S
C1688 C1687 1.366 . S
C1688 C1689 1.414 . S
C1688 C1691 1.499 . S
C1689 H1663 0.950 . S
C1689 C1688 1.414 . S
C1689 C1690 1.374 . S
C1690 H1664 0.950 . S
C1690 C1686 1.385 . S
C1690 C1689 1.374 . S
C1691 C1688 1.499 . S
C1691 C1692 1.373 . S
C1691 C1693 1.389 . S
C1692 H1665 0.950 . S
C1692 C1678 1.377 . S
C1692 C1691 1.373 . S
C1693 C1677 1.377 . S
C1693 C1691 1.389 . S
C1693 C1694 1.524 . S
C1694 C1693 1.524 . S
C1694 C1695 1.397 . S
C1694 C1699 1.363 . S
C1695 H1666 0.950 . S
C1695 C1694 1.397 . S
C1695 C1696 1.334 . S
C1696 H1667 0.950 . S
C1696 C1695 1.334 . S
C1696 C1697 1.287 . S
C1697 C1696 1.287 . S
C1697 C1698 1.524 . S
C1697 H1700 0.999 . S
C1698 H1668 0.950 . S
C1698 C1697 1.524 . S
C1698 C1699 1.415 . S
C1699 H1669 0.950 . S
C1699 C1694 1.363 . S
C1699 C1698 1.415 . S
H1700 C1697 0.999 . S
H1701 C1682 0.913 . S
H1702 C1720 0.951 . S
H1703 C1722 0.951 . S
H1704 C1724 0.950 . S
H1705 C1725 0.950 . S
H1706 C1727 0.950 . S
H1707 C1730 0.950 . S
H1708 C1731 0.950 . S
H1709 C1733 0.950 . S
H1710 C1734 0.950 . S
H1711 C1735 0.951 . S
H1712 C1737 0.951 . S
H1713 C1739 0.950 . S
H1714 C1740 0.950 . S
H1715 C1742 0.950 . S
H1716 C1745 0.950 . S
H1717 C1746 0.950 . S
H1718 C1748 0.950 . S
H1719 C1749 0.950 . S
C1720 H1702 0.951 . S
C1720 C1721 1.366 . S
C1720 C1722 1.388 . S
C1721 C1720 1.366 . S
C1721 C1725 1.385 . S
C1722 H1703 0.951 . S
C1722 C1720 1.388 . S
C1722 C1723 1.366 . S
C1723 C1722 1.366 . S
C1723 C1724 1.414 . S
C1723 C1726 1.499 . S
C1724 H1704 0.950 . S
C1724 C1723 1.414 . S
C1724 C1725 1.374 . S
C1725 H1705 0.950 . S
C1725 C1721 1.385 . S
C1725 C1724 1.374 . S
C1726 C1723 1.499 . S
C1726 C1727 1.373 . S
C1726 C1728 1.389 . S
C1727 H1706 0.950 . S
C1727 C1726 1.373 . S
C1727 C1743 1.377 . S
C1728 C1726 1.389 . S
C1728 C1729 1.524 . S
C1728 C1742 1.377 . S
C1729 C1728 1.524 . S
C1729 C1730 1.397 . S
C1729 C1734 1.363 . S
C1730 H1707 0.950 . S
C1730 C1729 1.397 . S
C1730 C1731 1.334 . S
C1731 H1708 0.950 . S
C1731 C1730 1.334 . S
C1731 C1732 1.287 . S
C1732 C1731 1.287 . S
C1732 C1733 1.524 . S
C1732 H1751 0.913 . S
C1733 H1709 0.950 . S
C1733 C1732 1.524 . S
C1733 C1734 1.415 . S
C1734 H1710 0.950 . S
C1734 C1729 1.363 . S
C1734 C1733 1.415 . S
C1735 H1711 0.951 . S
C1735 C1736 1.366 . S
C1735 C1737 1.388 . S
C1736 C1735 1.366 . S
C1736 C1740 1.385 . S
C1737 H1712 0.951 . S
C1737 C1735 1.388 . S
C1737 C1738 1.366 . S
C1738 C1737 1.366 . S
C1738 C1739 1.414 . S
C1738 C1741 1.499 . S
C1739 H1713 0.950 . S
C1739 C1738 1.414 . S
C1739 C1740 1.374 . S
C1740 H1714 0.950 . S
C1740 C1736 1.385 . S
C1740 C1739 1.374 . S
C1741 C1738 1.499 . S
C1741 C1742 1.373 . S
C1741 C1743 1.389 . S
C1742 H1715 0.950 . S
C1742 C1728 1.377 . S
C1742 C1741 1.373 . S
C1743 C1727 1.377 . S
C1743 C1741 1.389 . S
C1743 C1744 1.524 . S
C1744 C1743 1.524 . S
C1744 C1745 1.397 . S
C1744 C1749 1.363 . S
C1745 H1716 0.950 . S
C1745 C1744 1.397 . S
C1745 C1746 1.334 . S
C1746 H1717 0.950 . S
C1746 C1745 1.334 . S
C1746 C1747 1.287 . S
C1747 C1746 1.287 . S
C1747 C1748 1.524 . S
C1747 H1750 0.999 . S
C1748 H1718 0.950 . S
C1748 C1747 1.524 . S
C1748 C1749 1.415 . S
C1749 H1719 0.950 . S
C1749 C1744 1.363 . S
C1749 C1748 1.415 . S
H1750 C1747 0.999 . S
H1751 C1732 0.913 . S
H1752 C1770 0.951 . S
H1753 C1772 0.951 . S
H1754 C1774 0.950 . S
H1755 C1775 0.950 . S
H1756 C1777 0.950 . S
H1757 C1780 0.950 . S
H1758 C1781 0.950 . S
H1759 C1783 0.950 . S
H1760 C1784 0.950 . S
H1761 C1785 0.951 . S
H1762 C1787 0.951 . S
H1763 C1789 0.950 . S
H1764 C1790 0.950 . S
H1765 C1792 0.950 . S
H1766 C1795 0.950 . S
H1767 C1796 0.950 . S
H1768 C1798 0.950 . S
H1769 C1799 0.950 . S
C1770 H1752 0.951 . S
C1770 C1771 1.366 . S
C1770 C1772 1.388 . S
C1771 C1770 1.366 . S
C1771 C1775 1.385 . S
C1772 H1753 0.951 . S
C1772 C1770 1.388 . S
C1772 C1773 1.366 . S
C1773 C1772 1.366 . S
C1773 C1774 1.414 . S
C1773 C1776 1.499 . S
C1774 H1754 0.950 . S
C1774 C1773 1.414 . S
C1774 C1775 1.374 . S
C1775 H1755 0.950 . S
C1775 C1771 1.385 . S
C1775 C1774 1.374 . S
C1776 C1773 1.499 . S
C1776 C1777 1.373 . S
C1776 C1778 1.389 . S
C1777 H1756 0.950 . S
C1777 C1776 1.373 . S
C1777 C1793 1.377 . S
C1778 C1776 1.389 . S
C1778 C1779 1.524 . S
C1778 C1792 1.377 . S
C1779 C1778 1.524 . S
C1779 C1780 1.397 . S
C1779 C1784 1.363 . S
C1780 H1757 0.950 . S
C1780 C1779 1.397 . S
C1780 C1781 1.334 . S
C1781 H1758 0.950 . S
C1781 C1780 1.334 . S
C1781 C1782 1.287 . S
C1782 C1781 1.287 . S
C1782 C1783 1.524 . S
C1782 H1801 0.913 . S
C1783 H1759 0.950 . S
C1783 C1782 1.524 . S
C1783 C1784 1.415 . S
C1784 H1760 0.950 . S
C1784 C1779 1.363 . S
C1784 C1783 1.415 . S
C1785 H1761 0.951 . S
C1785 C1786 1.366 . S
C1785 C1787 1.388 . S
C1786 C1785 1.366 . S
C1786 C1790 1.385 . S
C1787 H1762 0.951 . S
C1787 C1785 1.388 . S
C1787 C1788 1.366 . S
C1788 C1787 1.366 . S
C1788 C1789 1.414 . S
C1788 C1791 1.499 . S
C1789 H1763 0.950 . S
C1789 C1788 1.414 . S
C1789 C1790 1.374 . S
C1790 H1764 0.950 . S
C1790 C1786 1.385 . S
C1790 C1789 1.374 . S
C1791 C1788 1.499 . S
C1791 C1792 1.373 . S
C1791 C1793 1.389 . S
C1792 H1765 0.950 . S
C1792 C1778 1.377 . S
C1792 C1791 1.373 . S
C1793 C1777 1.377 . S
C1793 C1791 1.389 . S
C1793 C1794 1.524 . S
C1794 C1793 1.524 . S
C1794 C1795 1.397 . S
C1794 C1799 1.363 . S
C1795 H1766 0.950 . S
C1795 C1794 1.397 . S
C1795 C1796 1.334 . S
C1796 H1767 0.950 . S
C1796 C1795 1.334 . S
C1796 C1797 1.287 . S
C1797 C1796 1.287 . S
C1797 C1798 1.524 . S
C1797 H1800 0.999 . S
C1798 H1768 0.950 . S
C1798 C1797 1.524 . S
C1798 C1799 1.415 . S
C1799 H1769 0.950 . S
C1799 C1794 1.363 . S
C1799 C1798 1.415 . S
H1800 C1797 0.999 . S
H1801 C1782 0.913 . S
H1802 C1820 0.951 . S
H1803 C1822 0.951 . S
H1804 C1824 0.950 . S
H1805 C1825 0.950 . S
H1806 C1827 0.950 . S
H1807 C1830 0.950 . S
H1808 C1831 0.950 . S
H1809 C1833 0.950 . S
H1810 C1834 0.950 . S
H1811 C1835 0.951 . S
H1812 C1837 0.951 . S
H1813 C1839 0.950 . S
H1814 C1840 0.950 . S
H1815 C1842 0.950 . S
H1816 C1845 0.950 . S
H1817 C1846 0.950 . S
H1818 C1848 0.950 . S
H1819 C1849 0.950 . S
C1820 H1802 0.951 . S
C1820 C1821 1.366 . S
C1820 C1822 1.388 . S
C1821 C1820 1.366 . S
C1821 C1825 1.385 . S
C1822 H1803 0.951 . S
C1822 C1820 1.388 . S
C1822 C1823 1.366 . S
C1823 C1822 1.366 . S
C1823 C1824 1.414 . S
C1823 C1826 1.499 . S
C1824 H1804 0.950 . S
C1824 C1823 1.414 . S
C1824 C1825 1.374 . S
C1825 H1805 0.950 . S
C1825 C1821 1.385 . S
C1825 C1824 1.374 . S
C1826 C1823 1.499 . S
C1826 C1827 1.373 . S
C1826 C1828 1.389 . S
C1827 H1806 0.950 . S
C1827 C1826 1.373 . S
C1827 C1843 1.377 . S
C1828 C1826 1.389 . S
C1828 C1829 1.524 . S
C1828 C1842 1.377 . S
C1829 C1828 1.524 . S
C1829 C1830 1.397 . S
C1829 C1834 1.363 . S
C1830 H1807 0.950 . S
C1830 C1829 1.397 . S
C1830 C1831 1.334 . S
C1831 H1808 0.950 . S
C1831 C1830 1.334 . S
C1831 C1832 1.287 . S
C1832 C1831 1.287 . S
C1832 C1833 1.524 . S
C1832 H1851 0.913 . S
C1833 H1809 0.950 . S
C1833 C1832 1.524 . S
C1833 C1834 1.415 . S
C1834 H1810 0.950 . S
C1834 C1829 1.363 . S
C1834 C1833 1.415 . S
C1835 H1811 0.951 . S
C1835 C1836 1.366 . S
C1835 C1837 1.388 . S
C1836 C1835 1.366 . S
C1836 C1840 1.385 . S
C1837 H1812 0.951 . S
C1837 C1835 1.388 . S
C1837 C1838 1.366 . S
C1838 C1837 1.366 . S
C1838 C1839 1.414 . S
C1838 C1841 1.499 . S
C1839 H1813 0.950 . S
C1839 C1838 1.414 . S
C1839 C1840 1.374 . S
C1840 H1814 0.950 . S
C1840 C1836 1.385 . S
C1840 C1839 1.374 . S
C1841 C1838 1.499 . S
C1841 C1842 1.373 . S
C1841 C1843 1.389 . S
C1842 H1815 0.950 . S
C1842 C1828 1.377 . S
C1842 C1841 1.373 . S
C1843 C1827 1.377 . S
C1843 C1841 1.389 . S
C1843 C1844 1.524 . S
C1844 C1843 1.524 . S
C1844 C1845 1.397 . S
C1844 C1849 1.363 . S
C1845 H1816 0.950 . S
C1845 C1844 1.397 . S
C1845 C1846 1.334 . S
C1846 H1817 0.950 . S
C1846 C1845 1.334 . S
C1846 C1847 1.287 . S
C1847 C1846 1.287 . S
C1847 C1848 1.524 . S
C1847 H1850 0.999 . S
C1848 H1818 0.950 . S
C1848 C1847 1.524 . S
C1848 C1849 1.415 . S
C1849 H1819 0.950 . S
C1849 C1844 1.363 . S
C1849 C1848 1.415 . S
H1850 C1847 0.999 . S
H1851 C1832 0.913 . S
H1852 C1870 0.951 . S
H1853 C1872 0.951 . S
H1854 C1874 0.950 . S
H1855 C1875 0.950 . S
H1856 C1877 0.950 . S
H1857 C1880 0.950 . S
H1858 C1881 0.950 . S
H1859 C1883 0.950 . S
H1860 C1884 0.950 . S
H1861 C1885 0.951 . S
H1862 C1887 0.951 . S
H1863 C1889 0.950 . S
H1864 C1890 0.950 . S
H1865 C1892 0.950 . S
H1866 C1895 0.950 . S
H1867 C1896 0.950 . S
H1868 C1898 0.950 . S
H1869 C1899 0.950 . S
C1870 H1852 0.951 . S
C1870 C1871 1.366 . S
C1870 C1872 1.388 . S
C1871 C1870 1.366 . S
C1871 C1875 1.385 . S
C1872 H1853 0.951 . S
C1872 C1870 1.388 . S
C1872 C1873 1.366 . S
C1873 C1872 1.366 . S
C1873 C1874 1.414 . S
C1873 C1876 1.499 . S
C1874 H1854 0.950 . S
C1874 C1873 1.414 . S
C1874 C1875 1.374 . S
C1875 H1855 0.950 . S
C1875 C1871 1.385 . S
C1875 C1874 1.374 . S
C1876 C1873 1.499 . S
C1876 C1877 1.373 . S
C1876 C1878 1.389 . S
C1877 H1856 0.950 . S
C1877 C1876 1.373 . S
C1877 C1893 1.377 . S
C1878 C1876 1.389 . S
C1878 C1879 1.524 . S
C1878 C1892 1.377 . S
C1879 C1878 1.524 . S
C1879 C1880 1.397 . S
C1879 C1884 1.363 . S
C1880 H1857 0.950 . S
C1880 C1879 1.397 . S
C1880 C1881 1.334 . S
C1881 H1858 0.950 . S
C1881 C1880 1.334 . S
C1881 C1882 1.287 . S
C1882 C1881 1.287 . S
C1882 C1883 1.524 . S
C1882 H1901 0.913 . S
C1883 H1859 0.950 . S
C1883 C1882 1.524 . S
C1883 C1884 1.415 . S
C1884 H1860 0.950 . S
C1884 C1879 1.363 . S
C1884 C1883 1.415 . S
C1885 H1861 0.951 . S
C1885 C1886 1.366 . S
C1885 C1887 1.388 . S
C1886 C1885 1.366 . S
C1886 C1890 1.385 . S
C1887 H1862 0.951 . S
C1887 C1885 1.388 . S
C1887 C1888 1.366 . S
C1888 C1887 1.366 . S
C1888 C1889 1.414 . S
C1888 C1891 1.499 . S
C1889 H1863 0.950 . S
C1889 C1888 1.414 . S
C1889 C1890 1.374 . S
C1890 H1864 0.950 . S
C1890 C1886 1.385 . S
C1890 C1889 1.374 . S
C1891 C1888 1.499 . S
C1891 C1892 1.373 . S
C1891 C1893 1.389 . S
C1892 H1865 0.950 . S
C1892 C1878 1.377 . S
C1892 C1891 1.373 . S
C1893 C1877 1.377 . S
C1893 C1891 1.389 . S
C1893 C1894 1.524 . S
C1894 C1893 1.524 . S
C1894 C1895 1.397 . S
C1894 C1899 1.363 . S
C1895 H1866 0.950 . S
C1895 C1894 1.397 . S
C1895 C1896 1.334 . S
C1896 H1867 0.950 . S
C1896 C1895 1.334 . S
C1896 C1897 1.287 . S
C1897 C1896 1.287 . S
C1897 C1898 1.524 . S
C1897 H1900 0.999 . S
C1898 H1868 0.950 . S
C1898 C1897 1.524 . S
C1898 C1899 1.415 . S
C1899 H1869 0.950 . S
C1899 C1894 1.363 . S
C1899 C1898 1.415 . S
H1900 C1897 0.999 . S
H1901 C1882 0.913 . S
H1902 C1920 0.951 . S
H1903 C1922 0.951 . S
H1904 C1924 0.950 . S
H1905 C1925 0.950 . S
H1906 C1927 0.950 . S
H1907 C1930 0.950 . S
H1908 C1931 0.950 . S
H1909 C1933 0.950 . S
H1910 C1934 0.950 . S
H1911 C1935 0.951 . S
H1912 C1937 0.951 . S
H1913 C1939 0.950 . S
H1914 C1940 0.950 . S
H1915 C1942 0.950 . S
H1916 C1945 0.950 . S
H1917 C1946 0.950 . S
H1918 C1948 0.950 . S
H1919 C1949 0.950 . S
C1920 H1902 0.951 . S
C1920 C1921 1.366 . S
C1920 C1922 1.388 . S
C1921 C1920 1.366 . S
C1921 C1925 1.385 . S
C1922 H1903 0.951 . S
C1922 C1920 1.388 . S
C1922 C1923 1.366 . S
C1923 C1922 1.366 . S
C1923 C1924 1.414 . S
C1923 C1926 1.499 . S
C1924 H1904 0.950 . S
C1924 C1923 1.414 . S
C1924 C1925 1.374 . S
C1925 H1905 0.950 . S
C1925 C1921 1.385 . S
C1925 C1924 1.374 . S
C1926 C1923 1.499 . S
C1926 C1927 1.373 . S
C1926 C1928 1.389 . S
C1927 H1906 0.950 . S
C1927 C1926 1.373 . S
C1927 C1943 1.377 . S
C1928 C1926 1.389 . S
C1928 C1929 1.524 . S
C1928 C1942 1.377 . S
C1929 C1928 1.524 . S
C1929 C1930 1.397 . S
C1929 C1934 1.363 . S
C1930 H1907 0.950 . S
C1930 C1929 1.397 . S
C1930 C1931 1.334 . S
C1931 H1908 0.950 . S
C1931 C1930 1.334 . S
C1931 C1932 1.287 . S
C1932 C1931 1.287 . S
C1932 C1933 1.524 . S
C1932 H1951 0.913 . S
C1933 H1909 0.950 . S
C1933 C1932 1.524 . S
C1933 C1934 1.415 . S
C1934 H1910 0.950 . S
C1934 C1929 1.363 . S
C1934 C1933 1.415 . S
C1935 H1911 0.951 . S
C1935 C1936 1.366 . S
C1935 C1937 1.388 . S
C1936 C1935 1.366 . S
C1936 C1940 1.385 . S
C1937 H1912 0.951 . S
C1937 C1935 1.388 . S
C1937 C1938 1.366 . S
C1938 C1937 1.366 . S
C1938 C1939 1.414 . S
C1938 C1941 1.499 . S
C1939 H1913 0.950 . S
C1939 C1938 1.414 . S
C1939 C1940 1.374 . S
C1940 H1914 0.950 . S
C1940 C1936 1.385 . S
C1940 C1939 1.374 . S
C1941 C1938 1.499 . S
C1941 C1942 1.373 . S
C1941 C1943 1.389 . S
C1942 H1915 0.950 . S
C1942 C1928 1.377 . S
C1942 C1941 1.373 . S
C1943 C1927 1.377 . S
C1943 C1941 1.389 . S
C1943 C1944 1.524 . S
C1944 C1943 1.524 . S
C1944 C1945 1.397 . S
C1944 C1949 1.363 . S
C1945 H1916 0.950 . S
C1945 C1944 1.397 . S
C1945 C1946 1.334 . S
C1946 H1917 0.950 . S
C1946 C1945 1.334 . S
C1946 C1947 1.287 . S
C1947 C1946 1.287 . S
C1947 C1948 1.524 . S
C1947 H1950 0.999 . S
C1948 H1918 0.950 . S
C1948 C1947 1.524 . S
C1948 C1949 1.415 . S
C1949 H1919 0.950 . S
C1949 C1944 1.363 . S
C1949 C1948 1.415 . S
H1950 C1947 0.999 . S
H1951 C1932 0.913 . S
H1952 C1970 0.951 . S
H1953 C1972 0.951 . S
H1954 C1974 0.950 . S
H1955 C1975 0.950 . S
H1956 C1977 0.950 . S
H1957 C1980 0.950 . S
H1958 C1981 0.950 . S
H1959 C1983 0.950 . S
H1960 C1984 0.950 . S
H1961 C1985 0.951 . S
H1962 C1987 0.951 . S
H1963 C1989 0.950 . S
H1964 C1990 0.950 . S
H1965 C1992 0.950 . S
H1966 C1995 0.950 . S
H1967 C1996 0.950 . S
H1968 C1998 0.950 . S
H1969 C1999 0.950 . S
C1970 H1952 0.951 . S
C1970 C1971 1.366 . S
C1970 C1972 1.388 . S
C1971 C1970 1.366 . S
C1971 C1975 1.385 . S
C1972 H1953 0.951 . S
C1972 C1970 1.388 . S
C1972 C1973 1.366 . S
C1973 C1972 1.366 . S
C1973 C1974 1.414 . S
C1973 C1976 1.499 . S
C1974 H1954 0.950 . S
C1974 C1973 1.414 . S
C1974 C1975 1.374 . S
C1975 H1955 0.950 . S
C1975 C1971 1.385 . S
C1975 C1974 1.374 . S
C1976 C1973 1.499 . S
C1976 C1977 1.373 . S
C1976 C1978 1.389 . S
C1977 H1956 0.950 . S
C1977 C1976 1.373 . S
C1977 C1993 1.377 . S
C1978 C1976 1.389 . S
C1978 C1979 1.524 . S
C1978 C1992 1.377 . S
C1979 C1978 1.524 . S
C1979 C1980 1.397 . S
C1979 C1984 1.363 . S
C1980 H1957 0.950 . S
C1980 C1979 1.397 . S
C1980 C1981 1.334 . S
C1981 H1958 0.950 . S
C1981 C1980 1.334 . S
C1981 C1982 1.287 . S
C1982 C1981 1.287 . S
C1982 C1983 1.524 . S
C1982 H2001 0.913 . S
C1983 H1959 0.950 . S
C1983 C1982 1.524 . S
C1983 C1984 1.415 . S
C1984 H1960 0.950 . S
C1984 C1979 1.363 . S
C1984 C1983 1.415 . S
C1985 H1961 0.951 . S
C1985 C1986 1.366 . S
C1985 C1987 1.388 . S
C1986 C1985 1.366 . S
C1986 C1990 1.385 . S
C1987 H1962 0.951 . S
C1987 C1985 1.388 . S
C1987 C1988 1.366 . S
C1988 C1987 1.366 . S
C1988 C1989 1.414 . S
C1988 C1991 1.499 . S
C1989 H1963 0.950 . S
C1989 C1988 1.414 . S
C1989 C1990 1.374 . S
C1990 H1964 0.950 . S
C1990 C1986 1.385 . S
C1990 C1989 1.374 . S
C1991 C1988 1.499 . S
C1991 C1992 1.373 . S
C1991 C1993 1.389 . S
C1992 H1965 0.950 . S
C1992 C1978 1.377 . S
C1992 C1991 1.373 . S
C1993 C1977 1.377 . S
C1993 C1991 1.389 . S
C1993 C1994 1.524 . S
C1994 C1993 1.524 . S
C1994 C1995 1.397 . S
C1994 C1999 1.363 . S
C1995 H1966 0.950 . S
C1995 C1994 1.397 . S
C1995 C1996 1.334 . S
C1996 H1967 0.950 . S
C1996 C1995 1.334 . S
C1996 C1997 1.287 . S
C1997 C1996 1.287 . S
C1997 C1998 1.524 . S
C1997 H2000 0.999 . S
C1998 H1968 0.950 . S
C1998 C1997 1.524 . S
C1998 C1999 1.415 . S
C1999 H1969 0.950 . S
C1999 C1994 1.363 . S
C1999 C1998 1.415 . S
H2000 C1997 0.999 . S
H2001 C1982 0.913 . S
H2002 C2020 0.951 . S
H2003 C2022 0.951 . S
H2004 C2024 0.950 . S
H2005 C2025 0.950 . S
H2006 C2027 0.950 . S
H2007 C2030 0.950 . S
H2008 C2031 0.950 . S
H2009 C2033 0.950 . S
H2010 C2034 0.950 . S
H2011 C2035 0.951 . S
H2012 C2037 0.951 . S
H2013 C2039 0.950 . S
H2014 C2040 0.950 . S
H2015 C2042 0.950 . S
H2016 C2045 0.950 . S
H2017 C2046 0.950 . S
H2018 C2048 0.950 . S
H2019 C2049 0.950 . S
C2020 H2002 0.951 . S
C2020 C2021 1.366 . S
C2020 C2022 1.388 . S
C2021 C2020 1.366 . S
C2021 C2025 1.385 . S
C2022 H2003 0.951 . S
C2022 C2020 1.388 . S
C2022 C2023 1.366 . S
C2023 C2022 1.366 . S
C2023 C2024 1.414 . S
C2023 C2026 1.499 . S
C2024 H2004 0.950 . S
C2024 C2023 1.414 . S
C2024 C2025 1.374 . S
C2025 H2005 0.950 . S
C2025 C2021 1.385 . S
C2025 C2024 1.374 . S
C2026 C2023 1.499 . S
C2026 C2027 1.373 . S
C2026 C2028 1.389 . S
C2027 H2006 0.950 . S
C2027 C2026 1.373 . S
C2027 C2043 1.377 . S
C2028 C2026 1.389 . S
C2028 C2029 1.524 . S
C2028 C2042 1.377 . S
C2029 C2028 1.524 . S
C2029 C2030 1.397 . S
C2029 C2034 1.363 . S
C2030 H2007 0.950 . S
C2030 C2029 1.397 . S
C2030 C2031 1.334 . S
C2031 H2008 0.950 . S
C2031 C2030 1.334 . S
C2031 C2032 1.287 . S
C2032 C2031 1.287 . S
C2032 C2033 1.524 . S
C2032 H2051 0.913 . S
C2033 H2009 0.950 . S
C2033 C2032 1.524 . S
C2033 C2034 1.415 . S
C2034 H2010 0.950 . S
C2034 C2029 1.363 . S
C2034 C2033 1.415 . S
C2035 H2011 0.951 . S
C2035 C2036 1.366 . S
C2035 C2037 1.388 . S
C2036 C2035 1.366 . S
C2036 C2040 1.385 . S
C2037 H2012 0.951 . S
C2037 C2035 1.388 . S
C2037 C2038 1.366 . S
C2038 C2037 1.366 . S
C2038 C2039 1.414 . S
C2038 C2041 1.499 . S
C2039 H2013 0.950 . S
C2039 C2038 1.414 . S
C2039 C2040 1.374 . S
C2040 H2014 0.950 . S
C2040 C2036 1.385 . S
C2040 C2039 1.374 . S
C2041 C2038 1.499 . S
C2041 C2042 1.373 . S
C2041 C2043 1.389 . S
C2042 H2015 0.950 . S
C2042 C2028 1.377 . S
C2042 C2041 1.373 . S
C2043 C2027 1.377 . S
C2043 C2041 1.389 . S
C2043 C2044 1.524 . S
C2044 C2043 1.524 . S
C2044 C2045 1.397 . S
C2044 C2049 1.363 . S
C2045 H2016 0.950 . S
C2045 C2044 1.397 . S
C2045 C2046 1.334 . S
C2046 H2017 0.950 . S
C2046 C2045 1.334 . S
C2046 C2047 1.287 . S
C2047 C2046 1.287 . S
C2047 C2048 1.524 . S
C2047 H2050 0.999 . S
C2048 H2018 0.950 . S
C2048 C2047 1.524 . S
C2048 C2049 1.415 . S
C2049 H2019 0.950 . S
C2049 C2044 1.363 . S
C2049 C2048 1.415 . S
H2050 C2047 0.999 . S
H2051 C2032 0.913 . S
C271 C241 1.959 . S
C286 C3 1.959 . S
C321 C213 1.959 . S
C336 C17 1.959 . S
C371 C227 1.959 . S
C386 C31 1.959 . S
C421 C101 1.959 . S
C436 C45 1.959 . S
C471 C115 1.959 . S
C486 C59 1.959 . S
C521 C73 1.959 . S
C536 C87 1.959 . S
C571 C129 1.959 . S
C586 C185 1.959 . S
C621 C143 1.959 . S
C636 C199 1.959 . S
C671 C157 1.959 . S
C686 C171 1.959 . S
C721 C7 0.243 . S
C736 C245 0.239 . S
C771 C217 0.240 . S
C786 C21 0.244 . S
C821 C35 0.239 . S
C836 C231 0.242 . S
C871 C105 0.240 . S
C886 C49 0.244 . S
C921 C63 0.243 . S
C936 C119 0.239 . S
C971 C77 0.244 . S
C986 C91 0.241 . S
C1021 C133 0.241 . S
C1036 C189 0.241 . S
C1071 C203 0.240 . S
C1086 C147 0.244 . S
C1121 C175 0.243 . S
C1136 C161 0.239 . S
C1171 C9 1.772 . S
C1186 C51 1.772 . S
C1221 C65 1.772 . S
C1236 C23 1.772 . S
C1271 C79 1.772 . S
C1286 C37 1.772 . S
C1321 C78 1.769 . S
C1336 C22 1.769 . S
C1371 C36 1.769 . S
C1386 C50 1.769 . S
C1421 C64 1.769 . S
C1436 C8 1.768 . S
C1471 C93 1.772 . S
C1486 C135 1.772 . S
C1521 C149 1.772 . S
C1536 C107 1.772 . S
C1571 C163 1.772 . S
C1586 C121 1.772 . S
C1621 C162 1.768 . S
C1636 C106 1.769 . S
C1671 C120 1.769 . S
C1686 C134 1.768 . S
C1721 C148 1.769 . S
C1736 C92 1.768 . S
C1771 C219 1.772 . S
C1786 C177 1.772 . S
C1821 C233 1.773 . S
C1836 C191 1.773 . S
C1871 C205 1.772 . S
C1886 C247 1.772 . S
C1921 C246 1.768 . S
C1936 C190 1.769 . S
C1971 C204 1.769 . S
C1986 C218 1.768 . S
C2021 C232 1.768 . S
C2036 C176 1.769 . S
