# Generated by pormake.
# Topology ukb, (4)-cn, num edge types: 1
# Building blocks:
#     Node 0, Type 0, BuildingBlock: ICAMEG_clean_sbu_1, # of connection points: 4
#     Node 1, Type 0, BuildingBlock: ICAMEG_clean_sbu_1, # of connection points: 4
#     Node 2, Type 0, BuildingBlock: ICAMEG_clean_sbu_1, # of connection points: 4
#     Node 3, Type 0, BuildingBlock: ICAMEG_clean_sbu_1, # of connection points: 4
#     Node 4, Type 0, BuildingBlock: ICAMEG_clean_sbu_1, # of connection points: 4
#     Node 5, Type 0, BuildingBlock: ICAMEG_clean_sbu_1, # of connection points: 4
#     Node 6, Type 0, BuildingBlock: ICAMEG_clean_sbu_1, # of connection points: 4
#     Node 7, Type 0, BuildingBlock: ICAMEG_clean_sbu_1, # of connection points: 4
#     Node 8, Type 0, BuildingBlock: ICAMEG_clean_sbu_1, # of connection points: 4
#     Node 9, Type 0, BuildingBlock: ICAMEG_clean_sbu_1, # of connection points: 4
#     Node 10, Type 0, BuildingBlock: ICAMEG_clean_sbu_1, # of connection points: 4
#     Node 11, Type 0, BuildingBlock: ICAMEG_clean_sbu_1, # of connection points: 4
#     Node 12, Type 0, BuildingBlock: ICAMEG_clean_sbu_1, # of connection points: 4
#     Node 13, Type 0, BuildingBlock: ICAMEG_clean_sbu_1, # of connection points: 4
#     Node 14, Type 0, BuildingBlock: ICAMEG_clean_sbu_1, # of connection points: 4
#     Node 15, Type 0, BuildingBlock: ICAMEG_clean_sbu_1, # of connection points: 4
#     Edge 16, Type (0, 0), BuildingBlock: KIFKEQ_clean_linker_1, # of connection points: 2
#     Edge 17, Type (0, 0), BuildingBlock: KIFKEQ_clean_linker_1, # of connection points: 2
#     Edge 18, Type (0, 0), BuildingBlock: KIFKEQ_clean_linker_1, # of connection points: 2
#     Edge 19, Type (0, 0), BuildingBlock: KIFKEQ_clean_linker_1, # of connection points: 2
#     Edge 20, Type (0, 0), BuildingBlock: KIFKEQ_clean_linker_1, # of connection points: 2
#     Edge 21, Type (0, 0), BuildingBlock: KIFKEQ_clean_linker_1, # of connection points: 2
#     Edge 22, Type (0, 0), BuildingBlock: KIFKEQ_clean_linker_1, # of connection points: 2
#     Edge 23, Type (0, 0), BuildingBlock: KIFKEQ_clean_linker_1, # of connection points: 2
#     Edge 24, Type (0, 0), BuildingBlock: KIFKEQ_clean_linker_1, # of connection points: 2
#     Edge 25, Type (0, 0), BuildingBlock: KIFKEQ_clean_linker_1, # of connection points: 2
#     Edge 26, Type (0, 0), BuildingBlock: KIFKEQ_clean_linker_1, # of connection points: 2
#     Edge 27, Type (0, 0), BuildingBlock: KIFKEQ_clean_linker_1, # of connection points: 2
#     Edge 28, Type (0, 0), BuildingBlock: KIFKEQ_clean_linker_1, # of connection points: 2
#     Edge 29, Type (0, 0), BuildingBlock: KIFKEQ_clean_linker_1, # of connection points: 2
#     Edge 30, Type (0, 0), BuildingBlock: KIFKEQ_clean_linker_1, # of connection points: 2
#     Edge 31, Type (0, 0), BuildingBlock: KIFKEQ_clean_linker_1, # of connection points: 2
#     Edge 32, Type (0, 0), BuildingBlock: KIFKEQ_clean_linker_1, # of connection points: 2
#     Edge 33, Type (0, 0), BuildingBlock: KIFKEQ_clean_linker_1, # of connection points: 2
#     Edge 34, Type (0, 0), BuildingBlock: KIFKEQ_clean_linker_1, # of connection points: 2
#     Edge 35, Type (0, 0), BuildingBlock: KIFKEQ_clean_linker_1, # of connection points: 2
#     Edge 36, Type (0, 0), BuildingBlock: KIFKEQ_clean_linker_1, # of connection points: 2
#     Edge 37, Type (0, 0), BuildingBlock: KIFKEQ_clean_linker_1, # of connection points: 2
#     Edge 38, Type (0, 0), BuildingBlock: KIFKEQ_clean_linker_1, # of connection points: 2
#     Edge 39, Type (0, 0), BuildingBlock: KIFKEQ_clean_linker_1, # of connection points: 2
#     Edge 40, Type (0, 0), BuildingBlock: KIFKEQ_clean_linker_1, # of connection points: 2
#     Edge 41, Type (0, 0), BuildingBlock: KIFKEQ_clean_linker_1, # of connection points: 2
#     Edge 42, Type (0, 0), BuildingBlock: KIFKEQ_clean_linker_1, # of connection points: 2
#     Edge 43, Type (0, 0), BuildingBlock: KIFKEQ_clean_linker_1, # of connection points: 2
#     Edge 44, Type (0, 0), BuildingBlock: KIFKEQ_clean_linker_1, # of connection points: 2
#     Edge 45, Type (0, 0), BuildingBlock: KIFKEQ_clean_linker_1, # of connection points: 2
#     Edge 46, Type (0, 0), BuildingBlock: KIFKEQ_clean_linker_1, # of connection points: 2
#     Edge 47, Type (0, 0), BuildingBlock: KIFKEQ_clean_linker_1, # of connection points: 2
# Relax obj value: 0.076
# Max RMSD: 0.091
# Mean RMSD: 0.091
data_MOF--net-ukb--node1-ICAMEG_clean_sbu_1--edge1-KIFKEQ_clean_linker_1
_symmetry_space_group_name_H-M    P1
_symmetry_Int_Tables_number       1
_symmetry_cell_setting            triclinic
loop_
_symmetry_equiv_pos_as_xyz
'x, y, z'
_cell_length_a     47.123619
_cell_length_b     47.106479
_cell_length_c     43.443446
_cell_angle_alpha  89.968208
_cell_angle_beta   90.054675
_cell_angle_gamma 90.037208
loop_
_atom_site_label
_atom_site_type_symbol
_atom_site_fract_x
_atom_site_fract_y
_atom_site_fract_z
_atom_type_partial_charge
Co0 Co 0.57486 0.18971 0.15602 0.0
Co1 Co 0.53132 0.19295 0.2202 0.0
O2 O 0.53785 0.18494 0.17629 0.0
C3 C 0.53246 0.21447 0.11028 0.0
O4 O 0.51102 0.21181 0.12928 0.0
C5 C 0.51175 0.13279 0.21719 0.0
O6 O 0.53592 0.12593 0.20413 0.0
O7 O 0.56502 0.16993 0.23289 0.0
O8 O 0.59447 0.17369 0.19264 0.0
H9 H 0.55971 0.22205 0.32715 0.0
H10 H 0.52824 0.15769 0.12535 0.0
O11 O 0.55728 0.20639 0.11797 0.0
H12 H 0.60797 0.09039 0.13275 0.0
H13 H 0.64347 0.18566 0.06723 0.0
H14 H 0.63119 0.21029 0.17672 0.0
H15 H 0.61291 0.13927 0.15218 0.0
H16 H 0.59712 0.17932 0.09263 0.0
O17 O 0.50652 0.15855 0.22398 0.0
H18 H 0.56757 0.21183 0.27215 0.0
H19 H 0.48048 0.19083 0.26108 0.0
H20 H 0.67798 0.21672 0.1523 0.0
H21 H 0.52248 0.10915 0.10533 0.0
H22 H 0.68434 0.20437 0.09716 0.0
H23 H 0.56251 0.07505 0.109 0.0
O24 O 0.57907 0.22888 0.17291 0.0
H25 H 0.4394 0.21078 0.16475 0.0
H26 H 0.51087 0.25137 0.23506 0.0
H27 H 0.46954 0.28019 0.21982 0.0
H28 H 0.43338 0.25988 0.18449 0.0
H29 H 0.48133 0.18285 0.18019 0.0
H30 H 0.47174 0.20059 0.31602 0.0
H31 H 0.51151 0.21644 0.34943 0.0
O32 O 0.55561 0.22752 0.21781 0.0
C33 C 0.58901 0.16591 0.22007 0.0
C34 C 0.5422 0.21522 0.31281 0.0
C35 C 0.49283 0.20315 0.30657 0.0
N36 N 0.52448 0.2009 0.26337 0.0
C37 C 0.5465 0.20947 0.28163 0.0
C38 C 0.49793 0.19758 0.27549 0.0
C39 C 0.51515 0.21205 0.32531 0.0
C40 C 0.5459 0.1432 0.12668 0.0
N41 N 0.57101 0.15155 0.13955 0.0
C42 C 0.54245 0.11563 0.11545 0.0
C43 C 0.5649 0.09649 0.11758 0.0
C44 C 0.5904 0.10508 0.1309 0.0
C45 C 0.59306 0.1328 0.1419 0.0
C46 C 0.64098 0.19107 0.09129 0.0
C47 C 0.63383 0.20471 0.15277 0.0
C48 C 0.61476 0.18759 0.10578 0.0
N49 N 0.61149 0.19424 0.1362 0.0
C50 C 0.66036 0.20846 0.13904 0.0
C51 C 0.66391 0.20156 0.10809 0.0
C52 C 0.57178 0.23992 0.19851 0.0
C53 C 0.455 0.21986 0.18017 0.0
C54 C 0.49542 0.24248 0.21941 0.0
C55 C 0.47196 0.25885 0.211 0.0
C56 C 0.45166 0.24742 0.19122 0.0
N57 N 0.49859 0.21548 0.20842 0.0
C58 C 0.47873 0.20411 0.18909 0.0
Co59 Co 0.31306 0.58413 0.6482 0.0
Co60 Co 0.31038 0.5394 0.71195 0.0
O61 O 0.31856 0.54688 0.6681 0.0
C62 C 0.28086 0.54467 0.60615 0.0
O63 O 0.27428 0.52786 0.62917 0.0
C64 C 0.36819 0.51296 0.70101 0.0
O65 O 0.36927 0.52253 0.6727 0.0
O66 O 0.33114 0.57432 0.72526 0.0
O67 O 0.32943 0.60358 0.68465 0.0
H68 H 0.27687 0.56598 0.81784 0.0
H69 H 0.34293 0.53936 0.61301 0.0
O70 O 0.29635 0.56645 0.61041 0.0
H71 H 0.41233 0.61708 0.62399 0.0
H72 H 0.3157 0.65351 0.55992 0.0
H73 H 0.2923 0.64013 0.66959 0.0
H74 H 0.36427 0.62157 0.64575 0.0
H75 H 0.32261 0.60699 0.58485 0.0
O76 O 0.34661 0.51747 0.71795 0.0
H77 H 0.28779 0.57434 0.76307 0.0
H78 H 0.31509 0.48889 0.75329 0.0
H79 H 0.28528 0.68707 0.64561 0.0
H80 H 0.39062 0.53417 0.59037 0.0
H81 H 0.29701 0.69399 0.59038 0.0
H82 H 0.42576 0.57317 0.59594 0.0
O83 O 0.27412 0.58796 0.66575 0.0
H84 H 0.29757 0.44827 0.65299 0.0
H85 H 0.25418 0.51413 0.72741 0.0
H86 H 0.22789 0.47139 0.71136 0.0
H87 H 0.24965 0.43801 0.67398 0.0
H88 H 0.32287 0.49143 0.66929 0.0
H89 H 0.30472 0.4797 0.80803 0.0
H90 H 0.28535 0.51837 0.84067 0.0
O91 O 0.27431 0.56113 0.70845 0.0
C92 C 0.33607 0.59816 0.71242 0.0
C93 C 0.28523 0.54893 0.80384 0.0
C94 C 0.3009 0.50052 0.79834 0.0
N95 N 0.30188 0.53209 0.75494 0.0
C96 C 0.29138 0.55352 0.77279 0.0
C97 C 0.3068 0.50588 0.76738 0.0
C98 C 0.29002 0.52222 0.81664 0.0
C99 C 0.358 0.55654 0.61525 0.0
N100 N 0.35081 0.5807 0.63075 0.0
C101 C 0.38502 0.55342 0.60251 0.0
C102 C 0.40474 0.57529 0.60569 0.0
C103 C 0.39723 0.59991 0.62147 0.0
C104 C 0.37002 0.60226 0.63392 0.0
C105 C 0.31056 0.65078 0.58402 0.0
C106 C 0.29759 0.643 0.64558 0.0
C107 C 0.31437 0.62447 0.59826 0.0
N108 N 0.30801 0.62087 0.62871 0.0
C109 C 0.29351 0.66962 0.63212 0.0
C110 C 0.30007 0.67348 0.60112 0.0
C111 C 0.2623 0.57845 0.69005 0.0
C112 C 0.28793 0.46257 0.66943 0.0
C113 C 0.26377 0.49981 0.71104 0.0
C114 C 0.24879 0.47558 0.7021 0.0
C115 C 0.26102 0.45685 0.68116 0.0
N116 N 0.29024 0.50522 0.69959 0.0
C117 C 0.30228 0.487 0.67893 0.0
Co118 Co 0.92426 0.31037 0.15607 0.0
Co119 Co 0.96856 0.30534 0.21956 0.0
O120 O 0.96147 0.31456 0.17602 0.0
C121 C 0.96225 0.2783 0.11281 0.0
O122 O 0.97762 0.26885 0.13585 0.0
C123 C 0.98781 0.36529 0.21499 0.0
O124 O 0.96581 0.3705 0.19732 0.0
O125 O 0.93467 0.32736 0.23345 0.0
O126 O 0.90488 0.32516 0.19332 0.0
H127 H 0.94161 0.27206 0.32549 0.0
H128 H 0.96996 0.34175 0.1241 0.0
O129 O 0.94183 0.29541 0.11748 0.0
H130 H 0.89248 0.41101 0.13711 0.0
H131 H 0.85491 0.31778 0.06809 0.0
H132 H 0.86816 0.28883 0.17626 0.0
H133 H 0.88701 0.36175 0.15538 0.0
H134 H 0.90146 0.3232 0.09339 0.0
O135 O 0.99244 0.34026 0.22487 0.0
H136 H 0.93314 0.28387 0.27093 0.0
H137 H 0.01965 0.30722 0.26018 0.0
H138 H 0.82118 0.28326 0.15192 0.0
H139 H 0.97625 0.39074 0.10519 0.0
H140 H 0.81433 0.29778 0.09744 0.0
H141 H 0.93736 0.42578 0.11175 0.0
O142 O 0.9202 0.27069 0.17168 0.0
H143 H 0.05911 0.2908 0.16079 0.0
H144 H 0.99073 0.24716 0.2325 0.0
H145 H 0.03221 0.21959 0.21518 0.0
H146 H 0.06679 0.24144 0.17912 0.0
H147 H 0.01716 0.31751 0.17847 0.0
H148 H 0.029 0.29591 0.31469 0.0
H149 H 0.98983 0.27809 0.34771 0.0
O150 O 0.94496 0.27036 0.21588 0.0
C151 C 0.91058 0.33188 0.22101 0.0
C152 C 0.95887 0.27973 0.31132 0.0
C153 C 0.00791 0.29315 0.30526 0.0
N154 N 0.97591 0.29603 0.26234 0.0
C155 C 0.95422 0.28638 0.28039 0.0
C156 C 0.00247 0.29958 0.27443 0.0
C157 C 0.98592 0.28314 0.32378 0.0
C158 C 0.95285 0.35682 0.12678 0.0
N159 N 0.92813 0.34888 0.14077 0.0
C160 C 0.95657 0.38455 0.11614 0.0
C161 C 0.93476 0.40421 0.11987 0.0
C162 C 0.90959 0.39595 0.13413 0.0
C163 C 0.90664 0.36804 0.14453 0.0
C164 C 0.85761 0.31142 0.09185 0.0
C165 C 0.86531 0.29533 0.15259 0.0
C166 C 0.88394 0.31438 0.10629 0.0
N167 N 0.88749 0.30648 0.13634 0.0
C168 C 0.83868 0.29207 0.13891 0.0
C169 C 0.83485 0.3002 0.10834 0.0
C170 C 0.92831 0.25865 0.19651 0.0
C171 C 0.04423 0.28107 0.17655 0.0
C172 C 0.00559 0.25676 0.21668 0.0
C173 C 0.02909 0.24108 0.20703 0.0
C174 C 0.0485 0.25336 0.18681 0.0
N175 N 0.00158 0.28395 0.20655 0.0
C176 C 0.0205 0.29612 0.18673 0.0
Co177 Co 0.19019 0.9236 0.65896 0.0
Co178 Co 0.19485 0.971 0.71889 0.0
O179 O 0.18457 0.96144 0.67656 0.0
C180 C 0.21925 0.96006 0.6129 0.0
O181 O 0.23365 0.97149 0.63564 0.0
C182 C 0.13466 0.99022 0.71718 0.0
O183 O 0.12753 0.96523 0.70621 0.0
O184 O 0.17247 0.93824 0.73497 0.0
O185 O 0.17981 0.90495 0.6988 0.0
H186 H 0.22885 0.94995 0.82615 0.0
H187 H 0.15268 0.96484 0.62733 0.0
O188 O 0.20064 0.9411 0.61841 0.0
H189 H 0.09164 0.88274 0.65153 0.0
H190 H 0.18264 0.84998 0.57536 0.0
H191 H 0.21736 0.87026 0.68019 0.0
H192 H 0.14241 0.88239 0.66537 0.0
H193 H 0.17532 0.89713 0.59871 0.0
O194 O 0.16062 0.99602 0.72246 0.0
H195 H 0.21612 0.93836 0.77252 0.0
H196 H 0.19457 0.02452 0.75563 0.0
H197 H 0.22493 0.82276 0.65783 0.0
H198 H 0.10205 0.96598 0.61283 0.0
H199 H 0.20751 0.81237 0.60504 0.0
H200 H 0.07116 0.92473 0.62501 0.0
O201 O 0.23087 0.92335 0.67163 0.0
H202 H 0.21078 0.05693 0.65262 0.0
H203 H 0.25344 0.9931 0.72982 0.0
H204 H 0.28171 0.0327 0.70888 0.0
H205 H 0.26036 0.06499 0.67003 0.0
H206 H 0.18335 0.01688 0.67399 0.0
H207 H 0.2068 0.03699 0.80916 0.0
H208 H 0.2242 0.99958 0.84479 0.0
O209 O 0.22946 0.94659 0.71666 0.0
C210 C 0.1713 0.91268 0.72538 0.0
C211 C 0.22135 0.96645 0.81083 0.0
C212 C 0.20895 0.01529 0.8013 0.0
N213 N 0.20478 0.98076 0.76092 0.0
C214 C 0.21418 0.96003 0.78042 0.0
C215 C 0.20198 0.00809 0.77104 0.0
C216 C 0.21872 0.9943 0.82128 0.0
C217 C 0.13941 0.94672 0.63246 0.0
N218 N 0.15051 0.92353 0.64702 0.0
C219 C 0.11075 0.94752 0.6243 0.0
C220 C 0.09342 0.92439 0.63118 0.0
C221 C 0.10489 0.90082 0.64607 0.0
C222 C 0.13364 0.90078 0.65391 0.0
C223 C 0.19027 0.85423 0.59841 0.0
C224 C 0.20954 0.86584 0.6573 0.0
C225 C 0.18624 0.8809 0.61173 0.0
N226 N 0.19568 0.88636 0.6409 0.0
C227 C 0.21397 0.83894 0.64471 0.0
C228 C 0.20422 0.83313 0.61508 0.0
C229 C 0.24221 0.9311 0.69695 0.0
C230 C 0.2203 0.04305 0.66959 0.0
C231 C 0.24404 0.00697 0.71283 0.0
C232 C 0.26012 0.02942 0.70112 0.0
C233 C 0.24813 0.04753 0.67934 0.0
N234 N 0.21674 0.00274 0.70319 0.0
C235 C 0.20484 0.0204 0.68184 0.0
Co236 Co 0.57376 0.31828 0.85211 0.0
Co237 Co 0.5336 0.31523 0.78516 0.0
O238 O 0.53826 0.32431 0.82914 0.0
C239 C 0.53459 0.28487 0.89287 0.0
O240 O 0.52646 0.26936 0.86933 0.0
C241 C 0.50722 0.37339 0.79286 0.0
O242 O 0.5166 0.37537 0.82117 0.0
O243 O 0.56932 0.33577 0.77431 0.0
O244 O 0.59656 0.33157 0.8164 0.0
H245 H 0.56699 0.27987 0.6823 0.0
H246 H 0.52865 0.35227 0.88222 0.0
O247 O 0.55213 0.30513 0.88911 0.0
H248 H 0.61049 0.41695 0.87269 0.0
H249 H 0.63658 0.32213 0.94592 0.0
H250 H 0.63002 0.2939 0.83685 0.0
H251 H 0.6136 0.36763 0.85416 0.0
H252 H 0.59244 0.32994 0.91661 0.0
O253 O 0.51192 0.35127 0.77681 0.0
H254 H 0.57175 0.29176 0.73735 0.0
H255 H 0.48591 0.31913 0.73994 0.0
H256 H 0.67465 0.28592 0.86525 0.0
H257 H 0.52482 0.40129 0.90164 0.0
H258 H 0.67812 0.30006 0.9202 0.0
H259 H 0.56589 0.43406 0.89676 0.0
O260 O 0.57688 0.27837 0.83702 0.0
H261 H 0.43972 0.30317 0.83871 0.0
H262 H 0.50882 0.25904 0.7684 0.0
H263 H 0.4653 0.23298 0.78224 0.0
H264 H 0.43031 0.2551 0.81756 0.0
H265 H 0.48365 0.32828 0.82455 0.0
H266 H 0.48032 0.3078 0.68485 0.0
H267 H 0.52102 0.2879 0.65569 0.0
O268 O 0.55505 0.27915 0.79107 0.0
C269 C 0.59284 0.3389 0.78847 0.0
C270 C 0.54908 0.28845 0.69478 0.0
C271 C 0.50045 0.30417 0.6962 0.0
N272 N 0.52909 0.30594 0.7419 0.0
C273 C 0.55162 0.29515 0.72597 0.0
C274 C 0.50377 0.31062 0.72737 0.0
C275 C 0.52329 0.29299 0.67985 0.0
C276 C 0.54672 0.36631 0.88029 0.0
N277 N 0.57126 0.35709 0.86689 0.0
C278 C 0.54438 0.39409 0.8912 0.0
C279 C 0.56741 0.41248 0.88841 0.0
C280 C 0.59242 0.4029 0.87485 0.0
C281 C 0.59398 0.37499 0.86419 0.0
C282 C 0.63534 0.3159 0.92198 0.0
C283 C 0.6314 0.30024 0.86072 0.0
C284 C 0.61037 0.3202 0.90527 0.0
N285 N 0.60868 0.31249 0.87499 0.0
C286 C 0.65671 0.29561 0.87669 0.0
C287 C 0.65864 0.30353 0.90753 0.0
C288 C 0.56982 0.26671 0.81165 0.0
C289 C 0.45475 0.29335 0.82319 0.0
C290 C 0.49379 0.26877 0.78387 0.0
C291 C 0.46913 0.25394 0.79156 0.0
C292 C 0.4495 0.26636 0.81136 0.0
N293 N 0.49874 0.29531 0.79541 0.0
C294 C 0.47964 0.30756 0.81495 0.0
Co295 Co 0.18707 0.57698 0.34021 0.0
Co296 Co 0.19066 0.53096 0.27889 0.0
O297 O 0.18019 0.53965 0.32153 0.0
C298 C 0.21338 0.53908 0.38751 0.0
O299 O 0.22793 0.52643 0.36569 0.0
C300 C 0.13026 0.51242 0.28151 0.0
O301 O 0.12431 0.53521 0.29762 0.0
O302 O 0.16943 0.56481 0.26367 0.0
O303 O 0.17842 0.59685 0.30062 0.0
H304 H 0.22705 0.55446 0.17323 0.0
H305 H 0.14725 0.53713 0.37052 0.0
O306 O 0.1958 0.55864 0.38076 0.0
H307 H 0.09026 0.62193 0.34592 0.0
H308 H 0.1808 0.64968 0.4249 0.0
H309 H 0.2173 0.6293 0.3209 0.0
H310 H 0.14119 0.62023 0.33312 0.0
H311 H 0.17174 0.60334 0.4004 0.0
O312 O 0.15566 0.50731 0.27329 0.0
H313 H 0.21388 0.56462 0.22705 0.0
H314 H 0.18911 0.47873 0.23999 0.0
H315 H 0.22663 0.67601 0.34442 0.0
H316 H 0.09643 0.53806 0.38407 0.0
H317 H 0.20834 0.68645 0.39681 0.0
H318 H 0.06756 0.58067 0.37165 0.0
O319 O 0.22799 0.57557 0.32872 0.0
H320 H 0.20256 0.44266 0.34238 0.0
H321 H 0.24849 0.50697 0.26796 0.0
H322 H 0.27498 0.46575 0.28793 0.0
H323 H 0.25197 0.43321 0.32538 0.0
H324 H 0.17694 0.48432 0.322 0.0
H325 H 0.20175 0.4677 0.18623 0.0
H326 H 0.22098 0.50569 0.1525 0.0
O327 O 0.22612 0.55406 0.28272 0.0
C328 C 0.16947 0.59017 0.27389 0.0
C329 C 0.21875 0.5377 0.18773 0.0
C330 C 0.20452 0.48902 0.19501 0.0
N331 N 0.20092 0.52226 0.2367 0.0
C332 C 0.21133 0.54332 0.21824 0.0
C333 C 0.19734 0.49541 0.22541 0.0
C334 C 0.21533 0.51034 0.1761 0.0
C335 C 0.13488 0.55585 0.36533 0.0
N336 N 0.1472 0.57862 0.35114 0.0
C337 C 0.10609 0.55621 0.37294 0.0
C338 C 0.0899 0.5801 0.36592 0.0
C339 C 0.10262 0.60325 0.35145 0.0
C340 C 0.13145 0.60212 0.34417 0.0
C341 C 0.18885 0.64541 0.40204 0.0
C342 C 0.20911 0.63373 0.34362 0.0
C343 C 0.18384 0.61918 0.38808 0.0
N344 N 0.19384 0.61367 0.35916 0.0
C345 C 0.21454 0.6602 0.35686 0.0
C346 C 0.20429 0.66603 0.38627 0.0
C347 C 0.2393 0.56823 0.30328 0.0
C348 C 0.21279 0.45665 0.32603 0.0
C349 C 0.23839 0.49301 0.28437 0.0
C350 C 0.25346 0.46964 0.29552 0.0
C351 C 0.24053 0.45139 0.31652 0.0
N352 N 0.21118 0.49801 0.29378 0.0
C353 C 0.19837 0.48021 0.31435 0.0
Co354 Co 0.92505 0.18668 0.84588 0.0
Co355 Co 0.9713 0.19726 0.78542 0.0
O356 O 0.96256 0.1835 0.82685 0.0
C357 C 0.96223 0.2132 0.89339 0.0
O358 O 0.97433 0.22822 0.87156 0.0
C359 C 0.98942 0.13691 0.78175 0.0
O360 O 0.96486 0.12972 0.7937 0.0
O361 O 0.93787 0.1768 0.76774 0.0
O362 O 0.90587 0.17825 0.80602 0.0
H363 H 0.94856 0.24125 0.68296 0.0
H364 H 0.96826 0.14884 0.87366 0.0
O365 O 0.94295 0.19526 0.88668 0.0
H366 H 0.88798 0.08639 0.84672 0.0
H367 H 0.85384 0.17125 0.93062 0.0
H368 H 0.87013 0.2127 0.8279 0.0
H369 H 0.88545 0.13788 0.83683 0.0
H370 H 0.90058 0.16712 0.90555 0.0
O371 O 0.99551 0.163 0.77766 0.0
H372 H 0.93797 0.22402 0.73534 0.0
H373 H 0.02387 0.19903 0.74719 0.0
H374 H 0.82299 0.21711 0.85199 0.0
H375 H 0.97158 0.09748 0.8842 0.0
H376 H 0.81461 0.19631 0.90376 0.0
H377 H 0.93127 0.06588 0.87061 0.0
O378 O 0.92311 0.228 0.8363 0.0
H379 H 0.0587 0.20581 0.85105 0.0
H380 H 0.99481 0.25588 0.7794 0.0
H381 H 0.03539 0.2815 0.8021 0.0
H382 H 0.06772 0.2564 0.83818 0.0
H383 H 0.01765 0.18112 0.82804 0.0
H384 H 0.03534 0.21572 0.69482 0.0
H385 H 0.99755 0.23713 0.66238 0.0
O386 O 0.94757 0.23199 0.79207 0.0
C387 C 0.91286 0.17327 0.77825 0.0
C388 C 0.96523 0.23203 0.6969 0.0
C389 C 0.01392 0.21766 0.70354 0.0
N390 N 0.98031 0.2107 0.74436 0.0
C391 C 0.95937 0.22231 0.7266 0.0
C392 C 0.00728 0.20817 0.73314 0.0
C393 C 0.99271 0.22968 0.68536 0.0
C394 C 0.95053 0.13525 0.86797 0.0
N395 N 0.92665 0.14636 0.85482 0.0
C396 C 0.95258 0.10618 0.87387 0.0
C397 C 0.92996 0.08845 0.8662 0.0
C398 C 0.90567 0.09995 0.85278 0.0
C399 C 0.90439 0.12911 0.84718 0.0
C400 C 0.85722 0.1804 0.90806 0.0
C401 C 0.86662 0.20348 0.85035 0.0
C402 C 0.88367 0.17821 0.89379 0.0
N403 N 0.88807 0.18962 0.86525 0.0
C404 C 0.83989 0.2061 0.86392 0.0
C405 C 0.83521 0.19445 0.89297 0.0
C406 C 0.93127 0.24212 0.81282 0.0
C407 C 0.04477 0.21698 0.83535 0.0
C408 C 0.00863 0.24491 0.79526 0.0
C409 C 0.03166 0.25947 0.80794 0.0
C410 C 0.0498 0.24537 0.82815 0.0
N411 N 0.00382 0.21708 0.80245 0.0
C412 C 0.02155 0.20309 0.8222 0.0
Co413 Co 0.31392 0.92476 0.35099 0.0
Co414 Co 0.30825 0.96489 0.28486 0.0
O415 O 0.31765 0.96061 0.32853 0.0
C416 C 0.27878 0.96139 0.39213 0.0
O417 O 0.26257 0.96791 0.36856 0.0
C418 C 0.36773 0.98618 0.28567 0.0
O419 O 0.37522 0.96282 0.30006 0.0
O420 O 0.33188 0.93131 0.2735 0.0
O421 O 0.32767 0.90291 0.31471 0.0
H422 H 0.27756 0.93093 0.18037 0.0
H423 H 0.34664 0.97231 0.37809 0.0
O424 O 0.30041 0.94557 0.38846 0.0
H425 H 0.41468 0.89324 0.36924 0.0
H426 H 0.32268 0.8617 0.44417 0.0
H427 H 0.29211 0.86739 0.33574 0.0
H428 H 0.36486 0.8871 0.35314 0.0
H429 H 0.32764 0.90639 0.41506 0.0
O430 O 0.34179 0.99049 0.27883 0.0
H431 H 0.28926 0.92582 0.23544 0.0
H432 H 0.30781 0.01391 0.24133 0.0
H433 H 0.28698 0.82221 0.36392 0.0
H434 H 0.39623 0.97931 0.39473 0.0
H435 H 0.30233 0.81917 0.41854 0.0
H436 H 0.43064 0.93961 0.39027 0.0
O437 O 0.27395 0.91974 0.3365 0.0
H438 H 0.28807 0.05702 0.33872 0.0
H439 H 0.24927 0.98345 0.26977 0.0
H440 H 0.21929 0.0241 0.28454 0.0
H441 H 0.2387 0.06129 0.3192 0.0
H442 H 0.31725 0.01586 0.32356 0.0
H443 H 0.29654 0.01992 0.18625 0.0
H444 H 0.28117 0.97826 0.15542 0.0
O445 O 0.2745 0.93977 0.28959 0.0
C446 C 0.33543 0.90754 0.28706 0.0
C447 C 0.28416 0.94926 0.19357 0.0
C448 C 0.29484 0.9992 0.19687 0.0
N449 N 0.29903 0.96957 0.24162 0.0
C450 C 0.29075 0.94651 0.22478 0.0
C451 C 0.30127 0.99565 0.22803 0.0
C452 C 0.28621 0.97582 0.17959 0.0
C453 C 0.36145 0.95487 0.3763 0.0
N454 N 0.35284 0.92931 0.36474 0.0
C455 C 0.38951 0.95899 0.38567 0.0
C456 C 0.40882 0.93671 0.38312 0.0
C457 C 0.39988 0.9107 0.3713 0.0
C458 C 0.37166 0.90737 0.36214 0.0
C459 C 0.31596 0.86275 0.42036 0.0
C460 C 0.29897 0.8662 0.35945 0.0
C461 C 0.31865 0.88801 0.40378 0.0
N462 N 0.31034 0.88945 0.37366 0.0
C463 C 0.29596 0.84057 0.37531 0.0
C464 C 0.30455 0.83889 0.40597 0.0
C465 C 0.26248 0.925 0.31047 0.0
C466 C 0.2794 0.04099 0.32354 0.0
C467 C 0.25784 0.99948 0.28496 0.0
C468 C 0.24078 0.02249 0.29318 0.0
C469 C 0.25169 0.04335 0.31261 0.0
N470 N 0.28502 0.99735 0.29571 0.0
C471 C 0.29585 0.01769 0.31482 0.0
Co472 Co 0.43362 0.81546 0.84888 0.0
Co473 Co 0.4744 0.81266 0.78291 0.0
O474 O 0.4695 0.82094 0.82684 0.0
C475 C 0.47153 0.78126 0.89027 0.0
O476 O 0.47944 0.76549 0.86689 0.0
C477 C 0.49392 0.87244 0.78797 0.0
O478 O 0.4724 0.87741 0.80635 0.0
O479 O 0.43982 0.83498 0.7718 0.0
O480 O 0.41153 0.82932 0.8128 0.0
H481 H 0.4421 0.78186 0.67785 0.0
H482 H 0.47969 0.84903 0.87774 0.0
O483 O 0.45452 0.80193 0.88624 0.0
H484 H 0.39855 0.91465 0.86951 0.0
H485 H 0.36953 0.81988 0.94149 0.0
H486 H 0.37721 0.79197 0.83243 0.0
H487 H 0.39429 0.86512 0.85184 0.0
H488 H 0.4142 0.82716 0.91305 0.0
O489 O 0.4981 0.84762 0.77733 0.0
H490 H 0.43642 0.79239 0.73312 0.0
H491 H 0.52334 0.8156 0.73946 0.0
H492 H 0.33206 0.78453 0.85994 0.0
H493 H 0.4848 0.89833 0.89604 0.0
H494 H 0.32802 0.79852 0.91488 0.0
H495 H 0.44407 0.93155 0.89187 0.0
O496 O 0.43008 0.77565 0.83335 0.0
H497 H 0.56713 0.7963 0.83713 0.0
H498 H 0.49629 0.75514 0.76648 0.0
H499 H 0.5384 0.72707 0.78091 0.0
H500 H 0.57423 0.74768 0.81644 0.0
H501 H 0.52455 0.82353 0.82227 0.0
H502 H 0.5299 0.80558 0.6842 0.0
H503 H 0.48911 0.78846 0.65304 0.0
O504 O 0.45101 0.7776 0.78697 0.0
C505 C 0.41597 0.83768 0.78533 0.0
C506 C 0.46005 0.78923 0.6912 0.0
C507 C 0.50932 0.80258 0.69476 0.0
N508 N 0.47956 0.80441 0.73954 0.0
C509 C 0.45698 0.79515 0.72252 0.0
C510 C 0.50546 0.80828 0.72602 0.0
C511 C 0.48643 0.79296 0.67729 0.0
C512 C 0.46179 0.86329 0.87611 0.0
N513 N 0.43671 0.85418 0.86375 0.0
C514 C 0.46485 0.89121 0.8864 0.0
C515 C 0.442 0.90985 0.884 0.0
C516 C 0.41647 0.90039 0.87143 0.0
C517 C 0.4142 0.87233 0.86135 0.0
C518 C 0.37102 0.81372 0.91755 0.0
C519 C 0.37558 0.79824 0.8563 0.0
C520 C 0.39629 0.81773 0.90134 0.0
N521 N 0.39829 0.81012 0.87105 0.0
C522 C 0.34998 0.79392 0.87177 0.0
C523 C 0.34773 0.80175 0.9026 0.0
C524 C 0.43627 0.76477 0.80729 0.0
C525 C 0.5517 0.78711 0.8216 0.0
C526 C 0.51169 0.76419 0.78207 0.0
C527 C 0.53555 0.74823 0.79009 0.0
C528 C 0.55565 0.75981 0.81001 0.0
N529 N 0.50799 0.79096 0.79349 0.0
C530 C 0.52759 0.80245 0.81304 0.0
Co531 Co 0.69089 0.42483 0.35621 0.0
Co532 Co 0.69556 0.46733 0.29163 0.0
O533 O 0.68599 0.46119 0.33498 0.0
C534 C 0.72469 0.46217 0.39786 0.0
O535 O 0.73979 0.47041 0.37409 0.0
C536 C 0.63504 0.48587 0.29127 0.0
O537 O 0.62794 0.46174 0.30435 0.0
O538 O 0.67357 0.433 0.27869 0.0
O539 O 0.67746 0.40376 0.31926 0.0
H540 H 0.72889 0.43814 0.18647 0.0
H541 H 0.65707 0.47064 0.38506 0.0
O542 O 0.70412 0.44494 0.39425 0.0
H543 H 0.59118 0.38991 0.3739 0.0
H544 H 0.68451 0.35885 0.44722 0.0
H545 H 0.71392 0.36851 0.33881 0.0
H546 H 0.64101 0.3857 0.35731 0.0
H547 H 0.67821 0.40424 0.41973 0.0
O548 O 0.66101 0.4915 0.28592 0.0
H549 H 0.71687 0.43078 0.24115 0.0
H550 H 0.69424 0.51767 0.24988 0.0
H551 H 0.72039 0.32268 0.36536 0.0
H552 H 0.60743 0.4757 0.40223 0.0
H553 H 0.70564 0.31764 0.41997 0.0
H554 H 0.5741 0.43516 0.39661 0.0
O555 O 0.73094 0.42121 0.34145 0.0
H556 H 0.71074 0.55823 0.34975 0.0
H557 H 0.75352 0.48968 0.27776 0.0
H558 H 0.78134 0.53119 0.2947 0.0
H559 H 0.75991 0.56586 0.33092 0.0
H560 H 0.68379 0.51625 0.3324 0.0
H561 H 0.70574 0.5259 0.19524 0.0
H562 H 0.72333 0.48598 0.16317 0.0
O563 O 0.73038 0.44378 0.29594 0.0
C564 C 0.67008 0.40889 0.29159 0.0
C565 C 0.72131 0.45572 0.20022 0.0
C566 C 0.70828 0.50496 0.20513 0.0
N567 N 0.705 0.4738 0.24873 0.0
C568 C 0.71453 0.4517 0.23121 0.0
C569 C 0.70171 0.50015 0.23604 0.0
C570 C 0.71816 0.48256 0.18716 0.0
C571 C 0.64273 0.45284 0.38275 0.0
N572 N 0.65195 0.42788 0.37028 0.0
C573 C 0.61463 0.45586 0.39242 0.0
C574 C 0.59594 0.43312 0.38923 0.0
C575 C 0.6055 0.40773 0.37647 0.0
C576 C 0.63373 0.4055 0.36703 0.0
C577 C 0.69099 0.36078 0.42342 0.0
C578 C 0.70731 0.36644 0.36253 0.0
C579 C 0.68753 0.38644 0.40775 0.0
N580 N 0.69554 0.38897 0.37763 0.0
C581 C 0.71109 0.34046 0.37746 0.0
C582 C 0.70283 0.33765 0.40811 0.0
C583 C 0.74256 0.42828 0.31605 0.0
C584 C 0.7203 0.54329 0.33393 0.0
C585 C 0.74413 0.50456 0.29365 0.0
C586 C 0.75994 0.52809 0.30308 0.0
C587 C 0.7479 0.54754 0.32339 0.0
N588 N 0.71707 0.50054 0.30407 0.0
C589 C 0.70512 0.51953 0.32397 0.0
Co590 Co 0.07621 0.68899 0.85329 0.0
Co591 Co 0.03597 0.7004 0.78753 0.0
O592 O 0.04031 0.68839 0.83055 0.0
C593 C 0.04122 0.72569 0.89461 0.0
O594 O 0.03475 0.74189 0.87102 0.0
C595 C 0.01627 0.64065 0.78725 0.0
O596 O 0.03754 0.63465 0.80565 0.0
O597 O 0.07053 0.67894 0.77433 0.0
O598 O 0.09687 0.674 0.817 0.0
H599 H 0.0693 0.74039 0.6866 0.0
H600 H 0.02616 0.66001 0.88006 0.0
O601 O 0.05651 0.7037 0.89088 0.0
H602 H 0.09927 0.58573 0.87016 0.0
H603 H 0.13799 0.67423 0.94662 0.0
H604 H 0.1353 0.70578 0.8384 0.0
H605 H 0.10951 0.63506 0.85473 0.0
H606 H 0.09316 0.67328 0.91732 0.0
O607 O 0.01222 0.66606 0.77823 0.0
H608 H 0.07441 0.72508 0.74064 0.0
H609 H 0.98752 0.70118 0.74326 0.0
H610 H 0.18063 0.70686 0.86678 0.0
H611 H 0.01508 0.61098 0.89603 0.0
H612 H 0.18217 0.69102 0.9213 0.0
H613 H 0.05176 0.57343 0.89101 0.0
O614 O 0.08454 0.72863 0.83942 0.0
H615 H 0.9429 0.7126 0.84221 0.0
H616 H 0.01433 0.75901 0.77631 0.0
H617 H 0.97224 0.78602 0.793 0.0
H618 H 0.93613 0.76276 0.82615 0.0
H619 H 0.98548 0.6865 0.82521 0.0
H620 H 0.98153 0.71598 0.68917 0.0
H621 H 0.02258 0.73586 0.66051 0.0
O622 O 0.0595 0.73484 0.79571 0.0
C623 C 0.09294 0.67077 0.78822 0.0
C624 C 0.05123 0.73184 0.69887 0.0
C625 C 0.00198 0.7181 0.7003 0.0
N626 N 0.03125 0.71245 0.74514 0.0
C627 C 0.05398 0.72322 0.72949 0.0
C628 C 0.00552 0.70969 0.73089 0.0
C629 C 0.02502 0.72927 0.68424 0.0
C630 C 0.04231 0.64383 0.87808 0.0
N631 N 0.06847 0.65041 0.86655 0.0
C632 C 0.03588 0.61609 0.88704 0.0
C633 C 0.05646 0.59502 0.88418 0.0
C634 C 0.08311 0.6019 0.87245 0.0
C635 C 0.08876 0.62986 0.86367 0.0
C636 C 0.13759 0.68118 0.92287 0.0
C637 C 0.13581 0.69875 0.86208 0.0
C638 C 0.11225 0.68077 0.90618 0.0
N639 N 0.11162 0.68939 0.87613 0.0
C640 C 0.16153 0.69946 0.87805 0.0
C641 C 0.16238 0.69058 0.90865 0.0
C642 C 0.07698 0.74343 0.81614 0.0
C643 C 0.95848 0.72296 0.82776 0.0
C644 C 0.99882 0.74884 0.79092 0.0
C645 C 0.97497 0.76419 0.80019 0.0
C646 C 0.95471 0.75111 0.81877 0.0
N647 N 0.00237 0.72124 0.79983 0.0
C648 C 0.98259 0.70827 0.81801 0.0
Co649 Co 0.81028 0.07252 0.35101 0.0
Co650 Co 0.80604 0.02961 0.28712 0.0
O651 O 0.81553 0.03597 0.33043 0.0
C652 C 0.77952 0.03452 0.39506 0.0
O653 O 0.76382 0.02473 0.37243 0.0
C654 C 0.86594 0.00979 0.28928 0.0
O655 O 0.87292 0.03395 0.30235 0.0
O656 O 0.82879 0.06341 0.27407 0.0
O657 O 0.82207 0.09352 0.31332 0.0
H658 H 0.77387 0.05838 0.18132 0.0
H659 H 0.84629 0.02816 0.37951 0.0
O660 O 0.79888 0.05273 0.3898 0.0
H661 H 0.90935 0.11068 0.36513 0.0
H662 H 0.81723 0.14018 0.44044 0.0
H663 H 0.7848 0.12773 0.33334 0.0
H664 H 0.85897 0.1132 0.35008 0.0
H665 H 0.82431 0.09463 0.41361 0.0
O666 O 0.84018 0.00473 0.28232 0.0
H667 H 0.78562 0.06603 0.23604 0.0
H668 H 0.80704 0.97892 0.24594 0.0
H669 H 0.77751 0.17372 0.35922 0.0
H670 H 0.89651 0.02478 0.39517 0.0
H671 H 0.79378 0.18017 0.41318 0.0
H672 H 0.92843 0.06623 0.38792 0.0
O673 O 0.76982 0.07448 0.33736 0.0
H674 H 0.7886 0.93949 0.34604 0.0
H675 H 0.74781 0.00824 0.27276 0.0
H676 H 0.71908 0.96737 0.28971 0.0
H677 H 0.7395 0.9326 0.32657 0.0
H678 H 0.81648 0.98084 0.32868 0.0
H679 H 0.79577 0.97039 0.19126 0.0
H680 H 0.77893 0.01028 0.1586 0.0
O681 O 0.77152 0.05388 0.2908 0.0
C682 C 0.83075 0.088 0.28621 0.0
C683 C 0.78111 0.04082 0.19534 0.0
C684 C 0.79344 0.99144 0.20091 0.0
N685 N 0.79683 0.02292 0.2442 0.0
C686 C 0.78773 0.045 0.22635 0.0
C687 C 0.79987 0.99642 0.23183 0.0
C688 C 0.78399 0.01383 0.1826 0.0
C689 C 0.86 0.04635 0.3765 0.0
N690 N 0.84968 0.07086 0.36395 0.0
C691 C 0.88844 0.04428 0.38532 0.0
C692 C 0.90634 0.06753 0.38121 0.0
C693 C 0.89566 0.09247 0.3684 0.0
C694 C 0.86712 0.09375 0.35983 0.0
C695 C 0.81008 0.13765 0.41692 0.0
C696 C 0.79207 0.13041 0.35676 0.0
C697 C 0.81396 0.11187 0.40163 0.0
N698 N 0.80511 0.10856 0.37187 0.0
C699 C 0.78782 0.15648 0.37133 0.0
C700 C 0.79693 0.16008 0.40161 0.0
C701 C 0.7587 0.06829 0.31139 0.0
C702 C 0.77948 0.95448 0.32994 0.0
C703 C 0.75677 0.99332 0.28893 0.0
C704 C 0.74045 0.97015 0.29837 0.0
C705 C 0.75192 0.95063 0.31904 0.0
N706 N 0.7838 0.99692 0.2997 0.0
C707 C 0.79519 0.97788 0.31997 0.0
Co708 Co 0.42829 0.68635 0.15251 0.0
Co709 Co 0.47055 0.68885 0.21784 0.0
O710 O 0.46488 0.68125 0.17367 0.0
C711 C 0.47168 0.7111 0.10781 0.0
O712 O 0.493 0.70751 0.12685 0.0
C713 C 0.49016 0.62854 0.21578 0.0
O714 O 0.46617 0.62124 0.20255 0.0
O715 O 0.43652 0.66576 0.22937 0.0
O716 O 0.40793 0.66988 0.18837 0.0
H717 H 0.4399 0.71685 0.32434 0.0
H718 H 0.47551 0.6544 0.12292 0.0
O719 O 0.44664 0.70351 0.11517 0.0
H720 H 0.39513 0.58755 0.12659 0.0
H721 H 0.36144 0.68373 0.06194 0.0
H722 H 0.3716 0.70669 0.17214 0.0
H723 H 0.39004 0.63618 0.14664 0.0
H724 H 0.40726 0.67693 0.08839 0.0
O725 O 0.49521 0.65446 0.22201 0.0
H726 H 0.43322 0.70718 0.26901 0.0
H727 H 0.52055 0.6865 0.26005 0.0
H728 H 0.32533 0.71356 0.14664 0.0
H729 H 0.48144 0.60613 0.1023 0.0
H730 H 0.32003 0.70206 0.09114 0.0
H731 H 0.44107 0.57225 0.10408 0.0
O732 O 0.42384 0.72535 0.16983 0.0
H733 H 0.56347 0.70702 0.1647 0.0
H734 H 0.49106 0.747 0.23405 0.0
H735 H 0.53277 0.77586 0.22013 0.0
H736 H 0.5694 0.75585 0.18529 0.0
H737 H 0.52116 0.67906 0.17884 0.0
H738 H 0.52811 0.6957 0.31533 0.0
H739 H 0.48763 0.71111 0.34784 0.0
O740 O 0.44649 0.72346 0.21522 0.0
C741 C 0.41282 0.66181 0.21584 0.0
C742 C 0.45772 0.71021 0.3104 0.0
C743 C 0.50722 0.6983 0.30535 0.0
N744 N 0.47649 0.69642 0.26128 0.0
C745 C 0.45408 0.70476 0.27904 0.0
C746 C 0.50279 0.69304 0.27407 0.0
C747 C 0.4845 0.70696 0.32358 0.0
C748 C 0.45771 0.64003 0.12342 0.0
N749 N 0.43233 0.64838 0.13558 0.0
C750 C 0.46125 0.61259 0.11186 0.0
C751 C 0.43862 0.59358 0.11293 0.0
C752 C 0.41285 0.60215 0.12555 0.0
C753 C 0.41011 0.62974 0.13691 0.0
C754 C 0.36347 0.68877 0.08614 0.0
C755 C 0.36942 0.70147 0.14802 0.0
C756 C 0.38938 0.68503 0.10123 0.0
N757 N 0.39206 0.69122 0.13185 0.0
C758 C 0.34319 0.70548 0.13369 0.0
C759 C 0.34024 0.69904 0.10254 0.0
C760 C 0.43077 0.73613 0.1957 0.0
C761 C 0.54766 0.71598 0.17991 0.0
C762 C 0.50671 0.73826 0.2186 0.0
C763 C 0.53038 0.75464 0.21094 0.0
C764 C 0.55095 0.74338 0.19143 0.0
N765 N 0.50359 0.71141 0.20715 0.0
C766 C 0.52371 0.70021 0.18809 0.0
Co767 Co 0.8184 0.42758 0.66223 0.0
Co768 Co 0.81423 0.4731 0.72402 0.0
O769 O 0.82371 0.46509 0.681 0.0
C770 C 0.78734 0.46413 0.61764 0.0
O771 O 0.77271 0.47448 0.64078 0.0
C772 C 0.87348 0.49442 0.7191 0.0
O773 O 0.87986 0.47186 0.7028 0.0
O774 O 0.83763 0.44037 0.73824 0.0
O775 O 0.82993 0.40802 0.70117 0.0
H776 H 0.7827 0.44764 0.83098 0.0
H777 H 0.8543 0.47017 0.63048 0.0
O778 O 0.80679 0.44591 0.62249 0.0
H779 H 0.91751 0.38898 0.65125 0.0
H780 H 0.82547 0.3564 0.57614 0.0
H781 H 0.79267 0.37315 0.68234 0.0
H782 H 0.86716 0.38733 0.66652 0.0
H783 H 0.83245 0.40304 0.60081 0.0
O784 O 0.84816 0.49846 0.72829 0.0
H785 H 0.7946 0.4382 0.77666 0.0
H786 H 0.81434 0.52529 0.76296 0.0
H787 H 0.78546 0.32614 0.65864 0.0
H788 H 0.90447 0.47258 0.61448 0.0
H789 H 0.80192 0.31753 0.60515 0.0
H790 H 0.93646 0.43182 0.62496 0.0
O791 O 0.77803 0.42617 0.67578 0.0
H792 H 0.79563 0.56083 0.6615 0.0
H793 H 0.75554 0.49381 0.73709 0.0
H794 H 0.72625 0.53357 0.7183 0.0
H795 H 0.7463 0.56746 0.68026 0.0
H796 H 0.8241 0.52059 0.68074 0.0
H797 H 0.80292 0.53562 0.8172 0.0
H798 H 0.78684 0.49666 0.85158 0.0
O799 O 0.77996 0.44818 0.7215 0.0
C800 C 0.83899 0.41515 0.72773 0.0
C801 C 0.78961 0.46481 0.81621 0.0
C802 C 0.80099 0.51419 0.80849 0.0
N803 N 0.80496 0.48119 0.76661 0.0
C804 C 0.79631 0.45961 0.78542 0.0
C805 C 0.80749 0.50819 0.77781 0.0
C806 C 0.79196 0.49231 0.82776 0.0
C807 C 0.86803 0.45223 0.63483 0.0
N808 N 0.85779 0.42861 0.64932 0.0
C809 C 0.89644 0.45377 0.62584 0.0
C810 C 0.91439 0.43091 0.63177 0.0
C811 C 0.90378 0.40688 0.64655 0.0
C812 C 0.87526 0.4061 0.65523 0.0
C813 C 0.81826 0.35988 0.59948 0.0
C814 C 0.80007 0.36952 0.65913 0.0
C815 C 0.82211 0.38625 0.61356 0.0
N816 N 0.81319 0.39074 0.64309 0.0
C817 C 0.79584 0.34288 0.6458 0.0
C818 C 0.80506 0.33807 0.61578 0.0
C819 C 0.76707 0.43303 0.70155 0.0
C820 C 0.78667 0.54624 0.67813 0.0
C821 C 0.76438 0.50839 0.72046 0.0
C822 C 0.74771 0.53091 0.70996 0.0
C823 C 0.75899 0.54993 0.68863 0.0
N824 N 0.79153 0.50495 0.71008 0.0
C825 C 0.80272 0.52349 0.68917 0.0
Co826 Co 0.07636 0.82117 0.16033 0.0
Co827 Co 0.03116 0.80384 0.22042 0.0
O828 O 0.03883 0.81933 0.17939 0.0
C829 C 0.04333 0.78716 0.11504 0.0
O830 O 0.03363 0.77189 0.13804 0.0
C831 C 0.01132 0.86334 0.22521 0.0
O832 O 0.03511 0.87096 0.21185 0.0
O833 O 0.06416 0.82448 0.23898 0.0
O834 O 0.09326 0.8349 0.19949 0.0
H835 H 0.05621 0.75632 0.32038 0.0
H836 H 0.02761 0.85007 0.13069 0.0
O837 O 0.06021 0.80775 0.12016 0.0
H838 H 0.09684 0.92588 0.15303 0.0
H839 H 0.14483 0.84323 0.07464 0.0
H840 H 0.13454 0.8055 0.17996 0.0
H841 H 0.10763 0.87606 0.1659 0.0
H842 H 0.09778 0.841 0.09937 0.0
O843 O 0.0061 0.83714 0.22996 0.0
H844 H 0.06578 0.77594 0.26875 0.0
H845 H 0.97915 0.79917 0.25915 0.0
H846 H 0.18202 0.80754 0.15619 0.0
H847 H 0.01606 0.89961 0.11717 0.0
H848 H 0.18738 0.82651 0.10315 0.0
H849 H 0.05078 0.93793 0.12845 0.0
O850 O 0.085 0.78104 0.17226 0.0
H851 H 0.94327 0.79496 0.15558 0.0
H852 H 0.00989 0.74426 0.22373 0.0
H853 H 0.96995 0.71817 0.20031 0.0
H854 H 0.93627 0.74357 0.16599 0.0
H855 H 0.98369 0.82013 0.17927 0.0
H856 H 0.96869 0.78005 0.31079 0.0
H857 H 0.00736 0.75832 0.34171 0.0
O858 O 0.0559 0.77046 0.21172 0.0
C859 C 0.08688 0.83506 0.22794 0.0
C860 C 0.03916 0.76566 0.30709 0.0
C861 C 0.99005 0.77902 0.30173 0.0
N862 N 0.02301 0.78851 0.26089 0.0
C863 C 0.04444 0.77673 0.27782 0.0
C864 C 0.99611 0.78988 0.27254 0.0
C865 C 0.01176 0.76682 0.31906 0.0
C866 C 0.04294 0.8666 0.13538 0.0
N867 N 0.06832 0.86016 0.1489 0.0
C868 C 0.03623 0.89462 0.1278 0.0
C869 C 0.05571 0.91611 0.13417 0.0
C870 C 0.08155 0.90937 0.14797 0.0
C871 C 0.08752 0.88112 0.15524 0.0
C872 C 0.14277 0.83494 0.09777 0.0
C873 C 0.13673 0.8139 0.15692 0.0
C874 C 0.11618 0.83355 0.11186 0.0
N875 N 0.11345 0.82323 0.14112 0.0
C876 C 0.16365 0.81495 0.14356 0.0
C877 C 0.16664 0.82557 0.11379 0.0
C878 C 0.07568 0.76411 0.19291 0.0
C879 C 0.95779 0.78366 0.17051 0.0
C880 C 0.99544 0.75539 0.20867 0.0
C881 C 0.97279 0.74055 0.19556 0.0
C882 C 0.95389 0.75482 0.17633 0.0
N883 N 0.99912 0.78367 0.20285 0.0
C884 C 0.98066 0.79782 0.18406 0.0
Co885 Co 0.68596 0.0792 0.65668 0.0
Co886 Co 0.69631 0.03949 0.72328 0.0
O887 O 0.68524 0.04328 0.67971 0.0
C888 C 0.71473 0.03686 0.614 0.0
O889 O 0.71476 0.01661 0.63473 0.0
C890 C 0.63649 0.01962 0.72201 0.0
O891 O 0.63092 0.04003 0.70235 0.0
O892 O 0.67487 0.07443 0.7355 0.0
O893 O 0.66848 0.09916 0.692 0.0
H894 H 0.73465 0.07407 0.82449 0.0
H895 H 0.65881 0.0279 0.62953 0.0
O896 O 0.70398 0.06107 0.61979 0.0
H897 H 0.58348 0.10033 0.63307 0.0
H898 H 0.67408 0.14137 0.56313 0.0
H899 H 0.70055 0.13856 0.67294 0.0
H900 H 0.63175 0.11146 0.65131 0.0
H901 H 0.67287 0.09627 0.59195 0.0
O902 O 0.66159 0.01623 0.73227 0.0
H903 H 0.72043 0.07845 0.77003 0.0
H904 H 0.69578 0.99172 0.76846 0.0
H905 H 0.70181 0.18416 0.64506 0.0
H906 H 0.61097 0.01596 0.61075 0.0
H907 H 0.68852 0.18576 0.58974 0.0
H908 H 0.57283 0.05229 0.61252 0.0
O909 O 0.72467 0.08839 0.67247 0.0
H910 H 0.70776 0.94411 0.67309 0.0
H911 H 0.75476 0.01787 0.73543 0.0
H912 H 0.78136 0.97485 0.72096 0.0
H913 H 0.7578 0.93753 0.68964 0.0
H914 H 0.68214 0.98772 0.68767 0.0
H915 H 0.7095 0.98646 0.82297 0.0
H916 H 0.7292 0.0278 0.85132 0.0
O917 O 0.73116 0.0625 0.71547 0.0
C918 C 0.66554 0.09598 0.72088 0.0
C919 C 0.72617 0.05587 0.81236 0.0
C920 C 0.71202 0.00671 0.81152 0.0
N921 N 0.70748 0.03533 0.76603 0.0
C922 C 0.71816 0.05821 0.7815 0.0
C923 C 0.70422 0.00984 0.78067 0.0
C924 C 0.72308 0.02992 0.82741 0.0
C925 C 0.64254 0.04398 0.62995 0.0
N926 N 0.64828 0.07048 0.64113 0.0
C927 C 0.61538 0.03703 0.61947 0.0
C928 C 0.59398 0.05739 0.62053 0.0
C929 C 0.59994 0.08434 0.63207 0.0
C930 C 0.62733 0.09051 0.6424 0.0
C931 C 0.67988 0.14096 0.58724 0.0
C932 C 0.69458 0.1391 0.64892 0.0
C933 C 0.6793 0.11547 0.60367 0.0
N934 N 0.68647 0.1148 0.63416 0.0
C935 C 0.6954 0.16498 0.63323 0.0
C936 C 0.68797 0.16585 0.60219 0.0
C937 C 0.7396 0.08045 0.69545 0.0
C938 C 0.71827 0.96021 0.68674 0.0
C939 C 0.7445 0.00192 0.72148 0.0
C940 C 0.7596 0.9775 0.71352 0.0
C941 C 0.74635 0.95655 0.696 0.0
N942 N 0.71699 0.00539 0.71224 0.0
C943 C 0.70383 0.9849 0.69516 0.0
H944 H 0.51659 0.07474 0.21205 0.0
H945 H 0.45949 0.14069 0.24264 0.0
H946 H 0.48229 0.03875 0.22856 0.0
H947 H 0.42578 0.10499 0.2595 0.0
H948 H 0.35876 0.0362 0.25555 0.0
H949 H 0.39373 0.07037 0.2379 0.0
H950 H 0.46086 0.01864 0.27582 0.0
H951 H 0.42568 0.98388 0.29315 0.0
C952 C 0.49676 0.08157 0.2222 0.0
C953 C 0.49081 0.11063 0.22592 0.0
C954 C 0.47721 0.06095 0.23189 0.0
C955 C 0.45125 0.06897 0.24533 0.0
C956 C 0.44535 0.09802 0.24886 0.0
C957 C 0.46482 0.11854 0.23928 0.0
C958 C 0.38095 0.03202 0.26024 0.0
C959 C 0.38936 0.00727 0.27589 0.0
C960 C 0.40104 0.05174 0.25018 0.0
C961 C 0.43013 0.04735 0.25551 0.0
C962 C 0.43864 0.02254 0.27106 0.0
C963 C 0.41846 0.00273 0.28121 0.0
H964 H 0.39007 0.51397 0.7587 0.0
H965 H 0.3977 0.47143 0.67132 0.0
H966 H 0.42615 0.4831 0.78053 0.0
H967 H 0.43192 0.43858 0.69351 0.0
H968 H 0.50609 0.39185 0.73361 0.0
H969 H 0.47557 0.42795 0.71113 0.0
H970 H 0.43521 0.43979 0.79976 0.0
H971 H 0.46768 0.40555 0.82236 0.0
C972 C 0.39948 0.49778 0.74424 0.0
C973 C 0.39126 0.49509 0.71334 0.0
C974 C 0.41997 0.47973 0.75683 0.0
C975 C 0.43207 0.45776 0.73914 0.0
C976 C 0.42382 0.4554 0.70797 0.0
C977 C 0.40398 0.47413 0.69513 0.0
C978 C 0.49087 0.40255 0.74823 0.0
C979 C 0.48929 0.39607 0.77971 0.0
C980 C 0.47304 0.42309 0.73531 0.0
C981 C 0.45244 0.43702 0.75333 0.0
C982 C 0.45106 0.43033 0.78499 0.0
C983 C 0.46956 0.41046 0.79808 0.0
H984 H 0.01862 0.36846 0.26785 0.0
H985 H 1.00003 0.41464 0.18431 0.0
H986 H 0.0508 0.40639 0.28415 0.0
H987 H 0.03315 0.4522 0.20034 0.0
H988 H 0.12937 0.47979 0.22996 0.0
H989 H 0.09265 0.44633 0.21354 0.0
H990 H 0.04346 0.46638 0.29429 0.0
H991 H 0.07985 0.5008 0.31039 0.0
C992 C 0.02145 0.3867 0.25296 0.0
C993 C 0.00689 0.38858 0.22475 0.0
C994 C 0.0397 0.40843 0.26241 0.0
C995 C 0.04428 0.43214 0.24352 0.0
C996 C 0.02982 0.4341 0.2153 0.0
C997 C 0.01093 0.41268 0.20618 0.0
C998 C 0.11064 0.47723 0.24414 0.0
C999 C 0.10748 0.49283 0.27153 0.0
C1000 C 0.08961 0.45823 0.23462 0.0
C1001 C 0.06532 0.45392 0.25264 0.0
C1002 C 0.06204 0.46947 0.28002 0.0
C1003 C 0.08278 0.4891 0.28917 0.0
H1004 H 0.07665 0.98576 0.71142 0.0
H1005 H 0.14283 0.04286 0.74173 0.0
H1006 H 0.04087 0.02074 0.72648 0.0
H1007 H 0.10735 0.07719 0.75731 0.0
H1008 H 0.98554 0.07897 0.78841 0.0
H1009 H 0.01993 0.04317 0.77197 0.0
H1010 H 0.07371 0.1094 0.73546 0.0
H1011 H 0.03995 0.14497 0.75241 0.0
C1012 C 0.08358 0.00572 0.72125 0.0
C1013 C 0.11264 0.01148 0.72524 0.0
C1014 C 0.06307 0.02568 0.7301 0.0
C1015 C 0.07119 0.05185 0.74307 0.0
C1016 C 0.10027 0.05751 0.74695 0.0
C1017 C 0.12068 0.03767 0.73812 0.0
C1018 C 0.00474 0.08585 0.77692 0.0
C1019 C 0.01003 0.11488 0.77193 0.0
C1020 C 0.02436 0.06531 0.7673 0.0
C1021 C 0.04968 0.07337 0.75248 0.0
C1022 C 0.05471 0.1024 0.74726 0.0
C1023 C 0.03523 0.12285 0.75691 0.0
H1024 H 0.50658 0.92131 0.81931 0.0
H1025 H 0.52461 0.87601 0.73515 0.0
H1026 H 0.53991 0.95882 0.80375 0.0
H1027 H 0.55709 0.91378 0.71938 0.0
H1028 H 0.5878 0.00518 0.69145 0.0
H1029 H 0.5516 0.97082 0.70771 0.0
H1030 H 0.59747 0.95629 0.79223 0.0
H1031 H 0.63406 0.98992 0.77575 0.0
C1032 C 0.51743 0.91951 0.79743 0.0
C1033 C 0.51312 0.89571 0.77852 0.0
C1034 C 0.53648 0.94088 0.78859 0.0
C1035 C 0.55089 0.93914 0.76034 0.0
C1036 C 0.54607 0.91568 0.74116 0.0
C1037 C 0.52763 0.89403 0.7503 0.0
C1038 C 0.59004 0.99476 0.71357 0.0
C1039 C 0.61378 1.00011 0.73228 0.0
C1040 C 0.5694 0.97512 0.7228 0.0
C1041 C 0.57179 0.96107 0.75123 0.0
C1042 C 0.59509 0.96702 0.77031 0.0
C1043 C 0.61605 0.98611 0.76078 0.0
H1044 H 0.54106 0.6375 0.24388 0.0
H1045 H 0.48652 0.5703 0.21075 0.0
H1046 H 0.57456 0.60265 0.26275 0.0
H1047 H 0.52084 0.53507 0.22916 0.0
H1048 H 0.57687 0.48137 0.29581 0.0
H1049 H 0.54126 0.51503 0.2769 0.0
H1050 H 0.60816 0.56936 0.24294 0.0
H1051 H 0.64341 0.53648 0.2623 0.0
C1052 C 0.53626 0.61525 0.24036 0.0
C1053 C 0.51104 0.60676 0.22567 0.0
C1054 C 0.55564 0.5952 0.25111 0.0
C1055 C 0.55053 0.56601 0.24737 0.0
C1056 C 0.52531 0.55739 0.23267 0.0
C1057 C 0.50577 0.57757 0.22188 0.0
C1058 C 0.58392 0.50059 0.28445 0.0
C1059 C 0.61304 0.50625 0.28077 0.0
C1060 C 0.56351 0.51975 0.27338 0.0
C1061 C 0.57183 0.54497 0.25848 0.0
C1062 C 0.60094 0.55043 0.25474 0.0
C1063 C 0.62122 0.53142 0.26578 0.0
H1064 H 0.98524 0.6394 0.7343 0.0
H1065 H 0.00364 0.59068 0.81619 0.0
H1066 H 0.9525 0.60224 0.71696 0.0
H1067 H 0.97009 0.55398 0.79916 0.0
H1068 H 0.87401 0.52755 0.77027 0.0
H1069 H 0.91049 0.56132 0.78647 0.0
H1070 H 0.95949 0.54177 0.70544 0.0
H1071 H 0.92331 0.50703 0.68951 0.0
C1072 C 0.98227 0.62077 0.74858 0.0
C1073 C 0.99693 0.61792 0.77663 0.0
C1074 C 0.96371 0.59951 0.73855 0.0
C1075 C 0.95896 0.57535 0.75673 0.0
C1076 C 0.97355 0.57244 0.78476 0.0
C1077 C 0.99269 0.59338 0.79444 0.0
C1078 C 0.89259 0.53035 0.75592 0.0
C1079 C 0.89581 0.51471 0.72857 0.0
C1080 C 0.91347 0.54954 0.76531 0.0
C1081 C 0.93768 0.55399 0.7472 0.0
C1082 C 0.94094 0.53858 0.71975 0.0
C1083 C 0.92033 0.51876 0.71071 0.0
H1084 H 0.85777 0.95761 0.26363 0.0
H1085 H 0.92381 0.01359 0.29667 0.0
H1086 H 0.89329 0.923 0.24866 0.0
H1087 H 0.95957 0.97843 0.28204 0.0
H1088 H 0.01497 0.92121 0.21906 0.0
H1089 H 0.98051 0.95678 0.23566 0.0
H1090 H 0.92675 0.89025 0.27152 0.0
H1091 H 0.96078 0.85478 0.25455 0.0
C1092 C 0.87989 0.9625 0.26791 0.0
C1093 C 0.88791 0.98845 0.28137 0.0
C1094 C 0.90029 0.94251 0.25945 0.0
C1095 C 0.9293 0.94786 0.26421 0.0
C1096 C 0.9374 0.97377 0.27777 0.0
C1097 C 0.91691 0.99383 0.28634 0.0
C1098 C 0.99579 0.91418 0.23048 0.0
C1099 C 0.9906 0.88511 0.23533 0.0
C1100 C 0.97614 0.9346 0.24019 0.0
C1101 C 0.95083 0.92639 0.25487 0.0
C1102 C 0.94581 0.89732 0.2599 0.0
C1103 C 0.96542 0.87696 0.25025 0.0
H1104 H 0.61213 0.27229 0.16855 0.0
H1105 H 0.55884 0.27092 0.24959 0.0
H1106 H 0.63553 0.31531 0.18794 0.0
H1107 H 0.58202 0.31339 0.26843 0.0
H1108 H 0.65808 0.35584 0.31286 0.0
H1109 H 0.63335 0.3178 0.28691 0.0
H1110 H 0.62571 0.36928 0.20516 0.0
H1111 H 0.65066 0.40827 0.23142 0.0
C1112 C 0.60507 0.28132 0.19014 0.0
C1113 C 0.58379 0.26785 0.20764 0.0
C1114 C 0.6184 0.30598 0.20113 0.0
C1115 C 0.61079 0.31741 0.22984 0.0
C1116 C 0.58858 0.30479 0.24644 0.0
C1117 C 0.57526 0.2804 0.23551 0.0
C1118 C 0.65119 0.35938 0.28939 0.0
C1119 C 0.65609 0.38545 0.27444 0.0
C1120 C 0.63693 0.33745 0.27453 0.0
C1121 C 0.62728 0.34073 0.2442 0.0
C1122 C 0.6329 0.36629 0.22862 0.0
C1123 C 0.64707 0.38858 0.24369 0.0
H1124 H 0.23254 0.62364 0.66571 0.0
H1125 H 0.22764 0.55796 0.73511 0.0
H1126 H 0.18914 0.64506 0.68639 0.0
H1127 H 0.18457 0.57901 0.75511 0.0
H1128 H 0.09688 0.66181 0.72544 0.0
H1129 H 0.13548 0.63789 0.69767 0.0
H1130 H 0.17943 0.62438 0.78367 0.0
H1131 H 0.14161 0.64783 0.81114 0.0
C1132 C 0.22198 0.61342 0.68488 0.0
C1133 C 0.23388 0.58926 0.69898 0.0
C1134 C 0.19709 0.62566 0.69664 0.0
C1135 C 0.18376 0.61394 0.72266 0.0
C1136 C 0.19469 0.58883 0.7354 0.0
C1137 C 0.2194 0.5767 0.7238 0.0
C1138 C 0.11477 0.65362 0.73836 0.0
C1139 C 0.11589 0.65654 0.77062 0.0
C1140 C 0.13687 0.64007 0.72245 0.0
C1141 C 0.16026 0.62894 0.73856 0.0
C1142 C 0.16142 0.63218 0.77064 0.0
C1143 C 0.13966 0.6458 0.78641 0.0
H1144 H 0.85241 0.08818 0.22692 0.0
H1145 H 0.84 0.14188 0.30657 0.0
H1146 H 0.87728 0.12749 0.20101 0.0
H1147 H 0.86487 0.1801 0.28109 0.0
H1148 H 0.94158 0.22635 0.24662 0.0
H1149 H 0.91846 0.18335 0.26431 0.0
H1150 H 0.86516 0.18302 0.18356 0.0
H1151 H 0.88829 0.22669 0.16544 0.0
C1152 C 0.85488 0.1082 0.23887 0.0
C1153 C 0.84451 0.1116 0.26905 0.0
C1154 C 0.86901 0.13065 0.224 0.0
C1155 C 0.87328 0.15661 0.23929 0.0
C1156 C 0.86227 0.16015 0.26898 0.0
C1157 C 0.84797 0.1381 0.28357 0.0
C1158 C 0.92522 0.21711 0.23224 0.0
C1159 C 0.91659 0.23033 0.20472 0.0
C1160 C 0.91199 0.1924 0.24246 0.0
C1161 C 0.88989 0.18008 0.22543 0.0
C1162 C 0.88224 0.19213 0.19703 0.0
C1163 C 0.89542 0.21715 0.18678 0.0
H1164 H 0.27403 0.94574 0.74693 0.0
H1165 H 0.27525 0.8918 0.66637 0.0
H1166 H 0.3177 0.92418 0.76485 0.0
H1167 H 0.31945 0.87006 0.68479 0.0
H1168 H 0.41327 0.85703 0.72524 0.0
H1169 H 0.37315 0.8812 0.7002 0.0
H1170 H 0.32447 0.87354 0.78387 0.0
H1171 H 0.36365 0.84954 0.80862 0.0
C1172 C 0.28373 0.92953 0.73277 0.0
C1173 C 0.2708 0.9203 0.70532 0.0
C1174 C 0.3088 0.91714 0.74315 0.0
C1175 C 0.32174 0.89521 0.72642 0.0
C1176 C 0.3099 0.88698 0.69808 0.0
C1177 C 0.28457 0.89938 0.68764 0.0
C1178 C 0.39397 0.86051 0.73823 0.0
C1179 C 0.39194 0.85163 0.76912 0.0
C1180 C 0.37103 0.87423 0.72385 0.0
C1181 C 0.3459 0.87957 0.74027 0.0
C1182 C 0.34377 0.87019 0.77083 0.0
C1183 C 0.36635 0.85634 0.78499 0.0
H1184 H 0.61369 0.23723 0.83901 0.0
H1185 H 0.55047 0.23086 0.76718 0.0
H1186 H 0.63571 0.19331 0.82035 0.0
H1187 H 0.57185 0.18716 0.74935 0.0
H1188 H 0.64173 0.14351 0.69636 0.0
H1189 H 0.61724 0.18145 0.72237 0.0
H1190 H 0.63028 0.13976 0.80977 0.0
H1191 H 0.65546 0.10104 0.78345 0.0
C1192 C 0.60409 0.22619 0.81977 0.0
C1193 C 0.58054 0.23787 0.80431 0.0
C1194 C 0.61665 0.20101 0.80917 0.0
C1195 C 0.6058 0.18709 0.78304 0.0
C1196 C 0.58109 0.19773 0.76912 0.0
C1197 C 0.56874 0.2228 0.77947 0.0
C1198 C 0.63938 0.14205 0.7211 0.0
C1199 C 0.65043 0.1189 0.7377 0.0
C1200 C 0.62514 0.1639 0.73604 0.0
C1201 C 0.62142 0.16342 0.76808 0.0
C1202 C 0.63279 0.14063 0.78501 0.0
C1203 C 0.64707 0.11845 0.76992 0.0
H1204 H 0.41053 0.64319 0.27629 0.0
H1205 H 0.36135 0.64711 0.19224 0.0
H1206 H 0.37096 0.61826 0.30156 0.0
H1207 H 0.32278 0.6225 0.21716 0.0
H1208 H 0.27208 0.55196 0.25476 0.0
H1209 H 0.31632 0.57268 0.23745 0.0
H1210 H 0.31714 0.62843 0.31622 0.0
H1211 H 0.27248 0.60733 0.33416 0.0
C1212 C 0.39149 0.6387 0.26319 0.0
C1213 C 0.38939 0.6469 0.23207 0.0
C1214 C 0.36885 0.62457 0.27768 0.0
C1215 C 0.34399 0.6181 0.26116 0.0
C1216 C 0.34188 0.62665 0.23032 0.0
C1217 C 0.36412 0.64089 0.21604 0.0
C1218 C 0.28174 0.56827 0.26884 0.0
C1219 C 0.26839 0.57819 0.29571 0.0
C1220 C 0.30715 0.5802 0.2588 0.0
C1221 C 0.31993 0.60245 0.27523 0.0
C1222 C 0.30773 0.61125 0.30315 0.0
C1223 C 0.28212 0.59923 0.31332 0.0
H1224 H 0.88606 0.4183 0.76453 0.0
H1225 H 0.82051 0.36099 0.73348 0.0
H1226 H 0.90968 0.3787 0.79123 0.0
H1227 H 0.84347 0.32191 0.76088 0.0
H1228 H 0.88228 0.26481 0.83624 0.0
H1229 H 0.8595 0.30936 0.82102 0.0
H1230 H 0.9311 0.32952 0.76327 0.0
H1231 H 0.95349 0.28468 0.77739 0.0
C1232 C 0.87642 0.39742 0.76403 0.0
C1233 C 0.85158 0.39258 0.74691 0.0
C1234 C 0.88991 0.37486 0.77918 0.0
C1235 C 0.87822 0.34741 0.77817 0.0
C1236 C 0.85271 0.34294 0.76223 0.0
C1237 C 0.8397 0.36523 0.74644 0.0
C1238 C 0.89341 0.27891 0.8207 0.0
C1239 C 0.91964 0.27101 0.80784 0.0
C1240 C 0.88035 0.30438 0.81203 0.0
C1241 C 0.89364 0.32277 0.79107 0.0
C1242 C 0.92058 0.31578 0.7797 0.0
C1243 C 0.93331 0.29003 0.78772 0.0
H1244 H 0.09843 0.89092 0.22826 0.0
H1245 H 0.12077 0.81204 0.27229 0.0
H1246 H 0.13792 0.91459 0.25392 0.0
H1247 H 0.16143 0.83529 0.29711 0.0
H1248 H 0.22817 0.8907 0.34635 0.0
H1249 H 0.18192 0.87054 0.33233 0.0
H1250 H 0.1872 0.91175 0.24364 0.0
H1251 H 0.23225 0.93217 0.2576 0.0
C1252 C 0.1116 0.87885 0.24399 0.0
C1253 C 0.10674 0.84982 0.24847 0.0
C1254 C 0.13438 0.89226 0.25845 0.0
C1255 C 0.15329 0.87671 0.27706 0.0
C1256 C 0.14726 0.84793 0.28307 0.0
C1257 C 0.12406 0.83459 0.2689 0.0
C1258 C 0.21923 0.89565 0.32401 0.0
C1259 C 0.234 0.9132 0.30322 0.0
C1260 C 0.19281 0.884 0.31593 0.0
C1261 C 0.18062 0.88976 0.28698 0.0
C1262 C 0.19544 0.90739 0.26643 0.0
C1263 C 0.22159 0.91897 0.27442 0.0
H1264 H 0.35385 0.59806 0.7732 0.0
H1265 H 0.3509 0.65063 0.69154 0.0
H1266 H 0.37946 0.63611 0.80035 0.0
H1267 H 0.37622 0.68774 0.71835 0.0
H1268 H 0.39507 0.73317 0.83697 0.0
H1269 H 0.37124 0.69044 0.81731 0.0
H1270 H 0.42698 0.69036 0.73858 0.0
H1271 H 0.45045 0.73255 0.75761 0.0
C1272 C 0.35859 0.61758 0.76105 0.0
C1273 C 0.35062 0.62101 0.72999 0.0
C1274 C 0.37312 0.63933 0.77663 0.0
C1275 C 0.38016 0.66465 0.76127 0.0
C1276 C 0.37157 0.66824 0.7306 0.0
C1277 C 0.35696 0.64684 0.71523 0.0
C1278 C 0.40257 0.72369 0.81577 0.0
C1279 C 0.42447 0.73661 0.79871 0.0
C1280 C 0.38896 0.69922 0.8046 0.0
C1281 C 0.39702 0.68741 0.77621 0.0
C1282 C 0.42002 0.6993 0.76028 0.0
C1283 C 0.43353 0.72352 0.77132 0.0
H1284 H 0.91054 0.34828 0.28224 0.0
H1285 H 0.85822 0.34708 0.20032 0.0
H1286 H 0.87221 0.37288 0.30998 0.0
H1287 H 0.82092 0.37145 0.22768 0.0
H1288 H 0.77322 0.38576 0.34475 0.0
H1289 H 0.8166 0.36291 0.32547 0.0
H1290 H 0.81914 0.4223 0.24992 0.0
H1291 H 0.77636 0.44481 0.26852 0.0
C1292 C 0.89104 0.35322 0.27016 0.0
C1293 C 0.88773 0.34602 0.23887 0.0
C1294 C 0.86913 0.36714 0.28607 0.0
C1295 C 0.84383 0.37435 0.2708 0.0
C1296 C 0.8404 0.36658 0.23987 0.0
C1297 C 0.86192 0.35255 0.22419 0.0
C1298 C 0.78339 0.39427 0.32439 0.0
C1299 C 0.771 0.41691 0.308 0.0
C1300 C 0.80823 0.38124 0.31346 0.0
C1301 C 0.82091 0.39066 0.28601 0.0
C1302 C 0.80956 0.41438 0.2709 0.0
C1303 C 0.78497 0.4273 0.28169 0.0
H1304 H 0.0536 0.78975 0.78834 0.0
H1305 H 0.13051 0.76046 0.83213 0.0
H1306 H 0.07758 0.83343 0.77293 0.0
H1307 H 0.1547 0.80409 0.81603 0.0
H1308 H 0.18768 0.8576 0.72901 0.0
H1309 H 0.16537 0.81935 0.75815 0.0
H1310 H 0.10488 0.87874 0.79559 0.0
H1311 H 0.12777 0.91746 0.76684 0.0
C1312 C 0.0755 0.79283 0.79508 0.0
C1313 C 0.09023 0.77156 0.81123 0.0
C1314 C 0.08915 0.81793 0.78643 0.0
C1315 C 0.11798 0.82204 0.79323 0.0
C1316 C 0.13244 0.80136 0.81051 0.0
C1317 C 0.11859 0.77648 0.81978 0.0
C1318 C 0.16989 0.8626 0.74382 0.0
C1319 C 0.15935 0.89045 0.74558 0.0
C1320 C 0.15728 0.84075 0.76067 0.0
C1321 C 0.13348 0.84614 0.77914 0.0
C1322 C 0.12327 0.87411 0.78154 0.0
C1323 C 0.13637 0.89619 0.7652 0.0
H1324 H 0.5896 0.14693 0.28046 0.0
H1325 H 0.64136 0.15202 0.19841 0.0
H1326 H 0.6284 0.12174 0.30687 0.0
H1327 H 0.67917 0.12717 0.22447 0.0
H1328 H 0.7262 0.05386 0.26196 0.0
H1329 H 0.68309 0.07625 0.24397 0.0
H1330 H 0.68294 0.13131 0.32329 0.0
H1331 H 0.72659 0.1085 0.34196 0.0
C1332 C 0.60907 0.14271 0.26806 0.0
C1333 C 0.61209 0.1512 0.23712 0.0
C1334 C 0.63126 0.12844 0.28322 0.0
C1335 C 0.65659 0.12219 0.26754 0.0
C1336 C 0.6597 0.13122 0.23696 0.0
C1337 C 0.63788 0.14555 0.22203 0.0
C1338 C 0.71694 0.07038 0.27604 0.0
C1339 C 0.73021 0.07956 0.30331 0.0
C1340 C 0.69217 0.08326 0.2656 0.0
C1341 C 0.67992 0.10577 0.282 0.0
C1342 C 0.69198 0.11394 0.31025 0.0
C1343 C 0.71699 0.10094 0.32084 0.0
H1344 H 0.39067 0.7689 0.16578 0.0
H1345 H 0.44424 0.76699 0.2467 0.0
H1346 H 0.36815 0.81241 0.18502 0.0
H1347 H 0.42212 0.81 0.26528 0.0
H1348 H 0.34841 0.85533 0.31001 0.0
H1349 H 0.37224 0.81647 0.28463 0.0
H1350 H 0.3781 0.86569 0.20105 0.0
H1351 H 0.3539 0.9054 0.22668 0.0
C1352 C 0.39798 0.77791 0.18731 0.0
C1353 C 0.41908 0.76417 0.20481 0.0
C1354 C 0.38515 0.80285 0.19822 0.0
C1355 C 0.39316 0.81432 0.22682 0.0
C1356 C 0.41519 0.80138 0.2434 0.0
C1357 C 0.42794 0.77668 0.23261 0.0
C1358 C 0.35475 0.8582 0.28626 0.0
C1359 C 0.3495 0.8838 0.27057 0.0
C1360 C 0.36852 0.83581 0.27172 0.0
C1361 C 0.37736 0.83818 0.24101 0.0
C1362 C 0.37151 0.86336 0.2248 0.0
C1363 C 0.35781 0.88608 0.23952 0.0
H1364 H 0.73608 0.44569 0.75269 0.0
H1365 H 0.73378 0.39443 0.67011 0.0
H1366 H 0.69263 0.42354 0.77032 0.0
H1367 H 0.68984 0.37202 0.68827 0.0
H1368 H 0.59619 0.35851 0.72853 0.0
H1369 H 0.63669 0.38248 0.7041 0.0
H1370 H 0.68505 0.373 0.78787 0.0
H1371 H 0.64542 0.34928 0.81206 0.0
C1372 C 0.72621 0.42991 0.73805 0.0
C1373 C 0.73873 0.42166 0.71007 0.0
C1374 C 0.70128 0.41715 0.74828 0.0
C1375 C 0.68809 0.39579 0.73088 0.0
C1376 C 0.69959 0.38848 0.70211 0.0
C1377 C 0.72477 0.40126 0.69181 0.0
C1378 C 0.61551 0.3615 0.74165 0.0
C1379 C 0.61729 0.35227 0.77245 0.0
C1380 C 0.63867 0.37511 0.72762 0.0
C1381 C 0.66382 0.37996 0.74427 0.0
C1382 C 0.66575 0.37008 0.77466 0.0
C1383 C 0.64292 0.35638 0.78851 0.0
H1384 H 0.12601 0.58792 0.23195 0.0
H1385 H 0.18702 0.64502 0.27287 0.0
H1386 H 0.10357 0.62828 0.20559 0.0
H1387 H 0.16507 0.68495 0.24625 0.0
H1388 H 0.13001 0.74882 0.17787 0.0
H1389 H 0.15426 0.70449 0.1912 0.0
H1390 H 0.07651 0.67164 0.22972 0.0
H1391 H 0.05241 0.71589 0.21695 0.0
C1392 C 0.13498 0.60894 0.23474 0.0
C1393 C 0.15812 0.61339 0.25458 0.0
C1394 C 0.12211 0.63199 0.2198 0.0
C1395 C 0.13265 0.65969 0.22387 0.0
C1396 C 0.15668 0.66382 0.24244 0.0
C1397 C 0.16911 0.64098 0.25784 0.0
C1398 C 0.11797 0.73194 0.18865 0.0
C1399 C 0.08934 0.73598 0.1966 0.0
C1400 C 0.13187 0.70663 0.19634 0.0
C1401 C 0.11724 0.68468 0.2115 0.0
C1402 C 0.08823 0.68809 0.2178 0.0
C1403 C 0.0745 0.71354 0.21067 0.0
H1404 H 0.91569 0.12861 0.73817 0.0
H1405 H 0.85907 0.19262 0.77371 0.0
H1406 H 0.87551 0.10583 0.71164 0.0
H1407 H 0.81933 0.17048 0.74672 0.0
H1408 H 0.75745 0.13299 0.67673 0.0
H1409 H 0.80198 0.15681 0.69024 0.0
H1410 H 0.82999 0.08159 0.73808 0.0
H1411 H 0.78542 0.05796 0.72527 0.0
C1412 C 0.89484 0.13821 0.73954 0.0
C1413 C 0.89035 0.16228 0.75793 0.0
C1414 C 0.87192 0.12516 0.72456 0.0
C1415 C 0.8444 0.13648 0.72714 0.0
C1416 C 0.84035 0.16149 0.74411 0.0
C1417 C 0.86303 0.17407 0.75963 0.0
C1418 C 0.7733 0.12138 0.6897 0.0
C1419 C 0.7678 0.09366 0.70017 0.0
C1420 C 0.79872 0.13503 0.69742 0.0
C1421 C 0.81938 0.12097 0.7151 0.0
C1422 C 0.81453 0.09279 0.72416 0.0
C1423 C 0.7889 0.07936 0.71703 0.0
H1424 H 0.57279 0.23828 0.07413 0.0
H1425 H 0.48347 0.21751 0.07562 0.0
H1426 H 0.5679 0.25669 0.02215 0.0
H1427 H 0.47873 0.2358 0.02271 0.0
H1428 H 0.50656 0.237 0.91344 0.0
H1429 H 0.50152 0.22136 0.96712 0.0
H1430 H 0.54039 0.29923 0.99802 0.0
H1431 H 0.54518 0.31501 0.94504 0.0
C1432 C 0.55204 0.23769 0.06336 0.0
C1433 C 0.52848 0.22649 0.07905 0.0
C1434 C 0.54925 0.24835 0.0336 0.0
C1435 C 0.52292 0.24778 0.01848 0.0
C1436 C 0.49926 0.23645 0.03392 0.0
C1437 C 0.50195 0.22618 0.06416 0.0
C1438 C 0.51343 0.25103 0.93173 0.0
C1439 C 0.52673 0.27703 0.92486 0.0
C1440 C 0.51048 0.24209 0.96242 0.0
C1441 C 0.52093 0.25896 0.98661 0.0
C1442 C 0.53249 0.28567 0.97978 0.0
C1443 C 0.53524 0.29465 0.94935 0.0
H1444 H 0.25325 0.50301 0.41279 0.0
H1445 H 0.18758 0.56294 0.43727 0.0
H1446 H 0.26749 0.50016 0.46715 0.0
H1447 H 0.20212 0.56027 0.49088 0.0
H1448 H 0.27184 0.58454 0.56243 0.0
H1449 H 0.25315 0.57835 0.51075 0.0
H1450 H 0.24493 0.48828 0.52638 0.0
H1451 H 0.26337 0.49451 0.57916 0.0
C1452 C 0.24154 0.51514 0.4297 0.0
C1453 C 0.21956 0.53355 0.42052 0.0
C1454 C 0.24963 0.5134 0.46079 0.0
C1455 C 0.23601 0.53019 0.48304 0.0
C1456 C 0.21307 0.54727 0.4741 0.0
C1457 C 0.20483 0.5488 0.44331 0.0
C1458 C 0.2661 0.56335 0.55502 0.0
C1459 C 0.2691 0.53999 0.57492 0.0
C1460 C 0.25527 0.55986 0.52543 0.0
C1461 C 0.24755 0.53288 0.51467 0.0
C1462 C 0.25079 0.5093 0.53424 0.0
C1463 C 0.26116 0.51289 0.56436 0.0
H1464 H 0.92223 0.27453 0.06837 0.0
H1465 H 0.01084 0.25705 0.08569 0.0
H1466 H 0.92702 0.25634 0.01634 0.0
H1467 H 0.01568 0.23917 0.03251 0.0
H1468 H 1.00022 0.25142 0.91828 0.0
H1469 H 0.00454 0.26513 0.97267 0.0
H1470 H 0.94172 0.20249 0.99705 0.0
H1471 H 0.93757 0.18843 0.94339 0.0
C1472 C 0.94285 0.26701 0.06099 0.0
C1473 C 0.9662 0.26728 0.08117 0.0
C1474 C 0.9455 0.25648 0.03121 0.0
C1475 C 0.97166 0.24635 0.02054 0.0
C1476 C 0.99529 0.24694 0.04033 0.0
C1477 C 0.99249 0.25701 0.07065 0.0
C1478 C 0.98776 0.24019 0.93533 0.0
C1479 C 0.96824 0.2191 0.92635 0.0
C1480 C 0.99038 0.24795 0.96641 0.0
C1481 C 0.97335 0.2349 0.98886 0.0
C1482 C 0.955 0.21289 0.9801 0.0
C1483 C 0.95261 0.20494 0.94929 0.0
H1484 H 0.22711 0.98079 0.41234 0.0
H1485 H 0.31117 0.95869 0.44407 0.0
H1486 H 0.21165 0.98633 0.46577 0.0
H1487 H 0.29571 0.96404 0.49717 0.0
H1488 H 0.26454 0.9906 0.59094 0.0
H1489 H 0.27845 0.99722 0.53719 0.0
H1490 H 0.20373 0.95151 0.50781 0.0
H1491 H 0.18975 0.94504 0.56128 0.0
C1492 C 0.24242 0.97763 0.43064 0.0
C1493 C 0.27031 0.96907 0.42393 0.0
C1494 C 0.23351 0.98062 0.46125 0.0
C1495 C 0.25239 0.97544 0.48574 0.0
C1496 C 0.28067 0.96843 0.47891 0.0
C1497 C 0.28949 0.96519 0.44841 0.0
C1498 C 0.25087 0.98233 0.573 0.0
C1499 C 0.22617 0.96706 0.58045 0.0
C1500 C 0.25891 0.98603 0.54221 0.0
C1501 C 0.24227 0.97479 0.51821 0.0
C1502 C 0.21689 0.9607 0.52568 0.0
C1503 C 0.20899 0.9568 0.5564 0.0
H1504 H 0.4614 0.81189 0.94221 0.0
H1505 H 0.49838 0.73292 0.91132 0.0
H1506 H 0.46582 0.79637 0.99532 0.0
H1507 H 0.50299 0.7175 0.96512 0.0
H1508 H 0.52067 0.71266 0.07312 0.0
H1509 H 0.52588 0.73095 0.02028 0.0
H1510 H 0.43762 0.75533 0.02019 0.0
H1511 H 0.43228 0.73696 0.07212 0.0
C1512 C 0.47088 0.79136 0.9467 0.0
C1513 C 0.47906 0.77343 0.92238 0.0
C1514 C 0.47342 0.78251 0.97721 0.0
C1515 C 0.4844 0.75561 0.9843 0.0
C1516 C 0.4945 0.73839 0.96025 0.0
C1517 C 0.49178 0.7472 0.92949 0.0
C1518 C 0.50252 0.72214 0.0618 0.0
C1519 C 0.47609 0.7234 0.07678 0.0
C1520 C 0.50546 0.73241 0.03158 0.0
C1521 C 0.48219 0.74468 0.01626 0.0
C1522 C 0.456 0.74627 0.03153 0.0
C1523 C 0.45293 0.73562 0.06127 0.0
H1524 H 0.73955 0.49125 0.59664 0.0
H1525 H 0.81745 0.45239 0.56556 0.0
H1526 H 0.72441 0.49704 0.54312 0.0
H1527 H 0.80227 0.45803 0.51234 0.0
H1528 H 0.69368 0.45597 0.45038 0.0
H1529 H 0.70949 0.46239 0.50325 0.0
H1530 H 0.79073 0.49226 0.47061 0.0
H1531 H 0.77492 0.48566 0.4174 0.0
C1532 C 0.75363 0.48435 0.57843 0.0
C1533 C 0.77958 0.47112 0.58541 0.0
C1534 C 0.74489 0.48755 0.54778 0.0
C1535 C 0.76207 0.47787 0.52347 0.0
C1536 C 0.78864 0.46597 0.53046 0.0
C1537 C 0.79725 0.46255 0.56104 0.0
C1538 C 0.71478 0.46432 0.4544 0.0
C1539 C 0.73313 0.47006 0.42963 0.0
C1540 C 0.72378 0.46819 0.48477 0.0
C1541 C 0.75142 0.47771 0.49118 0.0
C1542 C 0.76939 0.48463 0.46641 0.0
C1543 C 0.76028 0.48101 0.43594 0.0
H1544 H 0.0149 0.74015 0.09384 0.0
H1545 H 0.05652 0.8168 0.06295 0.0
H1546 H 0.00806 0.72568 0.0403 0.0
H1547 H 0.05004 0.80219 0.00974 0.0
H1548 H 0.04507 0.6937 0.94674 0.0
H1549 H 0.04015 0.70935 0.99975 0.0
H1550 H 0.01599 0.79288 0.96817 0.0
H1551 H 0.02132 0.77726 0.91478 0.0
C1552 C 0.02233 0.75405 0.07568 0.0
C1553 C 0.03652 0.77948 0.08273 0.0
C1554 C 0.01851 0.7457 0.045 0.0
C1555 C 0.02862 0.76271 0.0207 0.0
C1556 C 0.0417 0.78872 0.0278 0.0
C1557 C 0.04564 0.79697 0.0584 0.0
C1558 C 0.03831 0.71532 0.95101 0.0
C1559 C 0.03389 0.73432 0.92647 0.0
C1560 C 0.03528 0.72424 0.98149 0.0
C1561 C 0.02785 0.75243 0.98827 0.0
C1562 C 0.02209 0.77111 0.96372 0.0
C1563 C 0.02496 0.76211 0.93312 0.0
H1564 H 0.73542 0.07687 0.57541 0.0
H1565 H 0.72063 0.98655 0.5822 0.0
H1566 H 0.75303 0.07085 0.52327 0.0
H1567 H 0.73805 0.98062 0.52909 0.0
H1568 H 0.73391 0.00473 0.41844 0.0
H1569 H 0.72026 1.00063 0.47284 0.0
H1570 H 0.79676 0.04465 0.49932 0.0
H1571 H 0.81058 0.04856 0.44563 0.0
C1572 C 0.73602 0.05566 0.56577 0.0
C1573 C 0.7267 0.03216 0.58294 0.0
C1574 C 0.7462 0.05223 0.53593 0.0
C1575 C 0.74698 0.02527 0.52223 0.0
C1576 C 0.73763 1.00162 0.5392 0.0
C1577 C 0.72787 0.005 0.56954 0.0
C1578 C 0.74809 0.01295 0.43593 0.0
C1579 C 0.77306 0.02744 0.42761 0.0
C1580 C 0.74031 0.01051 0.46702 0.0
C1581 C 0.75733 0.02264 0.49014 0.0
C1582 C 0.78311 0.03542 0.4819 0.0
C1583 C 0.79095 0.03768 0.45107 0.0
loop_
_geom_bond_atom_site_label_1
_geom_bond_atom_site_label_2
_geom_bond_distance
_geom_bond_site_symmetry_2
_ccdc_geom_bond_type
Co0 O2 2.143 . S
Co0 O8 2.074 . S
Co0 O11 2.093 . S
Co0 O24 2.097 . S
Co0 N41 2.151 . S
Co0 N49 2.214 . S
Co1 O2 2.160 . S
Co1 O7 2.058 . S
Co1 O17 2.057 . S
Co1 O32 2.037 . S
Co1 N36 2.145 . S
Co1 N57 2.257 . S
O2 Co0 2.143 . S
O2 Co1 2.160 . S
C3 O4 1.278 . S
C3 O11 1.224 . S
O4 C3 1.278 . S
C5 O6 1.245 . S
C5 O17 1.232 . S
O6 C5 1.245 . S
O7 Co1 2.058 . S
O7 C33 1.269 . S
O8 Co0 2.074 . S
O8 C33 1.257 . S
H9 C34 0.930 . S
H10 C40 0.930 . S
O11 Co0 2.093 . S
O11 C3 1.224 . S
H12 C44 0.929 . S
H13 C46 0.930 . S
H14 C47 0.930 . S
H15 C45 0.929 . S
H16 C48 0.928 . S
O17 Co1 2.057 . S
O17 C5 1.232 . S
H18 C37 0.929 . S
H19 C38 0.929 . S
H20 C50 0.931 . S
H21 C42 0.929 . S
H22 C51 0.930 . S
H23 C43 0.931 . S
O24 Co0 2.097 . S
O24 C52 1.214 . S
H25 C53 0.929 . S
H26 C54 0.929 . S
H27 C55 0.930 . S
H28 C56 0.929 . S
H29 C58 0.930 . S
H30 C35 0.930 . S
H31 C39 0.930 . S
O32 Co1 2.037 . S
O32 C52 1.234 . S
C33 O7 1.269 . S
C33 O8 1.257 . S
C34 H9 0.930 . S
C34 C37 1.388 . S
C34 C39 1.418 . S
C35 H30 0.930 . S
C35 C38 1.404 . S
C35 C39 1.353 . S
N36 Co1 2.145 . S
N36 C37 1.397 . S
N36 C38 1.334 . S
C37 H18 0.929 . S
C37 C34 1.388 . S
C37 N36 1.397 . S
C38 H19 0.929 . S
C38 C35 1.404 . S
C38 N36 1.334 . S
C39 H31 0.930 . S
C39 C34 1.418 . S
C39 C35 1.353 . S
C40 H10 0.930 . S
C40 N41 1.330 . S
C40 C42 1.446 . S
N41 Co0 2.151 . S
N41 C40 1.330 . S
N41 C45 1.418 . S
C42 H21 0.929 . S
C42 C40 1.446 . S
C42 C43 1.332 . S
C43 H23 0.931 . S
C43 C42 1.332 . S
C43 C44 1.267 . S
C44 H12 0.929 . S
C44 C43 1.267 . S
C44 C45 1.251 . S
C45 H15 0.929 . S
C45 N41 1.418 . S
C45 C44 1.251 . S
C46 H13 0.930 . S
C46 C48 1.406 . S
C46 C51 1.261 . S
C47 H14 0.930 . S
C47 N49 1.325 . S
C47 C50 1.357 . S
C48 H16 0.928 . S
C48 C46 1.406 . S
C48 N49 1.261 . S
N49 Co0 2.214 . S
N49 C47 1.325 . S
N49 C48 1.261 . S
C50 H20 0.931 . S
C50 C47 1.357 . S
C50 C51 1.312 . S
C51 H22 0.930 . S
C51 C46 1.261 . S
C51 C50 1.312 . S
C52 O24 1.214 . S
C52 O32 1.234 . S
C53 H25 0.929 . S
C53 C56 1.391 . S
C53 C58 1.391 . S
C54 H26 0.929 . S
C54 C55 1.390 . S
C54 N57 1.391 . S
C55 H27 0.930 . S
C55 C54 1.390 . S
C55 C56 1.392 . S
C56 H28 0.929 . S
C56 C53 1.391 . S
C56 C55 1.392 . S
N57 Co1 2.257 . S
N57 C54 1.391 . S
N57 C58 1.388 . S
C58 H29 0.930 . S
C58 C53 1.391 . S
C58 N57 1.388 . S
Co59 O61 2.143 . S
Co59 O67 2.074 . S
Co59 O70 2.093 . S
Co59 O83 2.097 . S
Co59 N100 2.151 . S
Co59 N108 2.214 . S
Co60 O61 2.160 . S
Co60 O66 2.058 . S
Co60 O76 2.057 . S
Co60 O91 2.037 . S
Co60 N95 2.145 . S
Co60 N116 2.257 . S
O61 Co59 2.143 . S
O61 Co60 2.160 . S
C62 O63 1.278 . S
C62 O70 1.224 . S
O63 C62 1.278 . S
C64 O65 1.245 . S
C64 O76 1.232 . S
O65 C64 1.245 . S
O66 Co60 2.058 . S
O66 C92 1.269 . S
O67 Co59 2.074 . S
O67 C92 1.257 . S
H68 C93 0.930 . S
H69 C99 0.930 . S
O70 Co59 2.093 . S
O70 C62 1.224 . S
H71 C103 0.929 . S
H72 C105 0.930 . S
H73 C106 0.930 . S
H74 C104 0.929 . S
H75 C107 0.928 . S
O76 Co60 2.057 . S
O76 C64 1.232 . S
H77 C96 0.929 . S
H78 C97 0.929 . S
H79 C109 0.931 . S
H80 C101 0.929 . S
H81 C110 0.930 . S
H82 C102 0.931 . S
O83 Co59 2.097 . S
O83 C111 1.214 . S
H84 C112 0.929 . S
H85 C113 0.929 . S
H86 C114 0.930 . S
H87 C115 0.929 . S
H88 C117 0.930 . S
H89 C94 0.930 . S
H90 C98 0.930 . S
O91 Co60 2.037 . S
O91 C111 1.234 . S
C92 O66 1.269 . S
C92 O67 1.257 . S
C93 H68 0.930 . S
C93 C96 1.388 . S
C93 C98 1.418 . S
C94 H89 0.930 . S
C94 C97 1.404 . S
C94 C98 1.353 . S
N95 Co60 2.145 . S
N95 C96 1.397 . S
N95 C97 1.334 . S
C96 H77 0.929 . S
C96 C93 1.388 . S
C96 N95 1.397 . S
C97 H78 0.929 . S
C97 C94 1.404 . S
C97 N95 1.334 . S
C98 H90 0.930 . S
C98 C93 1.418 . S
C98 C94 1.353 . S
C99 H69 0.930 . S
C99 N100 1.330 . S
C99 C101 1.446 . S
N100 Co59 2.151 . S
N100 C99 1.330 . S
N100 C104 1.418 . S
C101 H80 0.929 . S
C101 C99 1.446 . S
C101 C102 1.332 . S
C102 H82 0.931 . S
C102 C101 1.332 . S
C102 C103 1.267 . S
C103 H71 0.929 . S
C103 C102 1.267 . S
C103 C104 1.251 . S
C104 H74 0.929 . S
C104 N100 1.418 . S
C104 C103 1.251 . S
C105 H72 0.930 . S
C105 C107 1.406 . S
C105 C110 1.261 . S
C106 H73 0.930 . S
C106 N108 1.325 . S
C106 C109 1.357 . S
C107 H75 0.928 . S
C107 C105 1.406 . S
C107 N108 1.261 . S
N108 Co59 2.214 . S
N108 C106 1.325 . S
N108 C107 1.261 . S
C109 H79 0.931 . S
C109 C106 1.357 . S
C109 C110 1.312 . S
C110 H81 0.930 . S
C110 C105 1.261 . S
C110 C109 1.312 . S
C111 O83 1.214 . S
C111 O91 1.234 . S
C112 H84 0.929 . S
C112 C115 1.391 . S
C112 C117 1.391 . S
C113 H85 0.929 . S
C113 C114 1.390 . S
C113 N116 1.391 . S
C114 H86 0.930 . S
C114 C113 1.390 . S
C114 C115 1.392 . S
C115 H87 0.929 . S
C115 C112 1.391 . S
C115 C114 1.392 . S
N116 Co60 2.257 . S
N116 C113 1.391 . S
N116 C117 1.388 . S
C117 H88 0.930 . S
C117 C112 1.391 . S
C117 N116 1.388 . S
Co118 O120 2.143 . S
Co118 O126 2.074 . S
Co118 O129 2.093 . S
Co118 O142 2.097 . S
Co118 N159 2.151 . S
Co118 N167 2.214 . S
Co119 O120 2.160 . S
Co119 O125 2.058 . S
Co119 O135 2.057 1_655 S
Co119 O150 2.037 . S
Co119 N154 2.145 . S
Co119 N175 2.257 1_655 S
O120 Co118 2.143 . S
O120 Co119 2.160 . S
C121 O122 1.278 1_655 S
C121 O129 1.224 . S
O122 C121 1.278 1_455 S
C123 O124 1.245 . S
C123 O135 1.232 . S
O124 C123 1.245 . S
O125 Co119 2.058 . S
O125 C151 1.269 . S
O126 Co118 2.074 . S
O126 C151 1.257 . S
H127 C152 0.930 . S
H128 C158 0.930 . S
O129 Co118 2.093 . S
O129 C121 1.224 . S
H130 C162 0.929 . S
H131 C164 0.930 . S
H132 C165 0.930 . S
H133 C163 0.929 . S
H134 C166 0.928 . S
O135 Co119 2.057 1_455 S
O135 C123 1.232 . S
H136 C155 0.929 . S
H137 C156 0.929 . S
H138 C168 0.931 . S
H139 C160 0.929 . S
H140 C169 0.930 . S
H141 C161 0.931 . S
O142 Co118 2.097 . S
O142 C170 1.214 . S
H143 C171 0.929 . S
H144 C172 0.927 . S
H145 C173 0.930 . S
H146 C174 0.929 . S
H147 C176 0.930 . S
H148 C153 0.930 . S
H149 C157 0.930 1_455 S
O150 Co119 2.037 . S
O150 C170 1.234 . S
C151 O125 1.269 . S
C151 O126 1.257 . S
C152 H127 0.930 . S
C152 C155 1.388 . S
C152 C157 1.418 . S
C153 H148 0.930 . S
C153 C156 1.404 . S
C153 C157 1.353 1_455 S
N154 Co119 2.145 . S
N154 C155 1.397 . S
N154 C156 1.334 1_655 S
C155 H136 0.929 . S
C155 C152 1.388 . S
C155 N154 1.397 . S
C156 H137 0.929 . S
C156 C153 1.404 . S
C156 N154 1.334 1_455 S
C157 H149 0.930 1_655 S
C157 C152 1.418 . S
C157 C153 1.353 1_655 S
C158 H128 0.930 . S
C158 N159 1.330 . S
C158 C160 1.446 . S
N159 Co118 2.151 . S
N159 C158 1.330 . S
N159 C163 1.418 . S
C160 H139 0.929 . S
C160 C158 1.446 . S
C160 C161 1.332 . S
C161 H141 0.931 . S
C161 C160 1.332 . S
C161 C162 1.267 . S
C162 H130 0.929 . S
C162 C161 1.267 . S
C162 C163 1.251 . S
C163 H133 0.929 . S
C163 N159 1.418 . S
C163 C162 1.251 . S
C164 H131 0.930 . S
C164 C166 1.406 . S
C164 C169 1.261 . S
C165 H132 0.930 . S
C165 N167 1.325 . S
C165 C168 1.357 . S
C166 H134 0.928 . S
C166 C164 1.406 . S
C166 N167 1.261 . S
N167 Co118 2.214 . S
N167 C165 1.325 . S
N167 C166 1.261 . S
C168 H138 0.931 . S
C168 C165 1.357 . S
C168 C169 1.312 . S
C169 H140 0.930 . S
C169 C164 1.261 . S
C169 C168 1.312 . S
C170 O142 1.214 . S
C170 O150 1.234 . S
C171 H143 0.929 . S
C171 C174 1.391 . S
C171 C176 1.391 . S
C172 H144 0.927 . S
C172 C173 1.390 . S
C172 N175 1.391 . S
C173 H145 0.930 . S
C173 C172 1.390 . S
C173 C174 1.392 . S
C174 H146 0.929 . S
C174 C171 1.391 . S
C174 C173 1.392 . S
N175 Co119 2.257 1_455 S
N175 C172 1.391 . S
N175 C176 1.388 . S
C176 H147 0.930 . S
C176 C171 1.391 . S
C176 N175 1.388 . S
Co177 O179 2.143 . S
Co177 O185 2.074 . S
Co177 O188 2.093 . S
Co177 O201 2.097 . S
Co177 N218 2.151 . S
Co177 N226 2.214 . S
Co178 O179 2.160 . S
Co178 O184 2.058 . S
Co178 O194 2.057 1_565 S
Co178 O209 2.037 . S
Co178 N213 2.145 . S
Co178 N234 2.257 1_565 S
O179 Co177 2.143 . S
O179 Co178 2.160 . S
C180 O181 1.278 1_565 S
C180 O188 1.224 . S
O181 C180 1.278 1_545 S
C182 O183 1.245 . S
C182 O194 1.232 . S
O183 C182 1.245 . S
O184 Co178 2.058 . S
O184 C210 1.269 . S
O185 Co177 2.074 . S
O185 C210 1.257 . S
H186 C211 0.930 . S
H187 C217 0.930 . S
O188 Co177 2.093 . S
O188 C180 1.224 . S
H189 C221 0.929 . S
H190 C223 0.930 . S
H191 C224 0.930 . S
H192 C222 0.929 . S
H193 C225 0.928 . S
O194 Co178 2.057 1_545 S
O194 C182 1.232 . S
H195 C214 0.929 . S
H196 C215 0.929 . S
H197 C227 0.931 . S
H198 C219 0.929 . S
H199 C228 0.930 . S
H200 C220 0.931 . S
O201 Co177 2.097 . S
O201 C229 1.214 . S
H202 C230 0.929 . S
H203 C231 0.927 . S
H204 C232 0.930 . S
H205 C233 0.929 . S
H206 C235 0.930 . S
H207 C212 0.930 . S
H208 C216 0.930 1_545 S
O209 Co178 2.037 . S
O209 C229 1.234 . S
C210 O184 1.269 . S
C210 O185 1.257 . S
C211 H186 0.930 . S
C211 C214 1.388 . S
C211 C216 1.418 . S
C212 H207 0.930 . S
C212 C215 1.404 . S
C212 C216 1.353 1_545 S
N213 Co178 2.145 . S
N213 C214 1.397 . S
N213 C215 1.334 1_565 S
C214 H195 0.929 . S
C214 C211 1.388 . S
C214 N213 1.397 . S
C215 H196 0.929 . S
C215 C212 1.404 . S
C215 N213 1.334 1_545 S
C216 H208 0.930 1_565 S
C216 C211 1.418 . S
C216 C212 1.353 1_565 S
C217 H187 0.930 . S
C217 N218 1.330 . S
C217 C219 1.446 . S
N218 Co177 2.151 . S
N218 C217 1.330 . S
N218 C222 1.418 . S
C219 H198 0.929 . S
C219 C217 1.446 . S
C219 C220 1.332 . S
C220 H200 0.931 . S
C220 C219 1.332 . S
C220 C221 1.267 . S
C221 H189 0.929 . S
C221 C220 1.267 . S
C221 C222 1.251 . S
C222 H192 0.929 . S
C222 N218 1.418 . S
C222 C221 1.251 . S
C223 H190 0.930 . S
C223 C225 1.406 . S
C223 C228 1.261 . S
C224 H191 0.930 . S
C224 N226 1.325 . S
C224 C227 1.357 . S
C225 H193 0.928 . S
C225 C223 1.406 . S
C225 N226 1.261 . S
N226 Co177 2.214 . S
N226 C224 1.325 . S
N226 C225 1.261 . S
C227 H197 0.931 . S
C227 C224 1.357 . S
C227 C228 1.312 . S
C228 H199 0.930 . S
C228 C223 1.261 . S
C228 C227 1.312 . S
C229 O201 1.214 . S
C229 O209 1.234 . S
C230 H202 0.929 . S
C230 C233 1.391 . S
C230 C235 1.391 . S
C231 H203 0.927 . S
C231 C232 1.390 . S
C231 N234 1.391 . S
C232 H204 0.930 . S
C232 C231 1.390 . S
C232 C233 1.392 . S
C233 H205 0.929 . S
C233 C230 1.391 . S
C233 C232 1.392 . S
N234 Co178 2.257 1_545 S
N234 C231 1.391 . S
N234 C235 1.388 . S
C235 H206 0.930 . S
C235 C230 1.391 . S
C235 N234 1.388 . S
Co236 O238 2.143 . S
Co236 O244 2.074 . S
Co236 O247 2.093 . S
Co236 O260 2.097 . S
Co236 N277 2.151 . S
Co236 N285 2.214 . S
Co237 O238 2.160 . S
Co237 O243 2.058 . S
Co237 O253 2.057 . S
Co237 O268 2.037 . S
Co237 N272 2.145 . S
Co237 N293 2.257 . S
O238 Co236 2.143 . S
O238 Co237 2.160 . S
C239 O240 1.278 . S
C239 O247 1.224 . S
O240 C239 1.278 . S
C241 O242 1.245 . S
C241 O253 1.232 . S
O242 C241 1.245 . S
O243 Co237 2.058 . S
O243 C269 1.269 . S
O244 Co236 2.074 . S
O244 C269 1.257 . S
H245 C270 0.930 . S
H246 C276 0.930 . S
O247 Co236 2.093 . S
O247 C239 1.224 . S
H248 C280 0.929 . S
H249 C282 0.930 . S
H250 C283 0.930 . S
H251 C281 0.929 . S
H252 C284 0.928 . S
O253 Co237 2.057 . S
O253 C241 1.232 . S
H254 C273 0.929 . S
H255 C274 0.929 . S
H256 C286 0.931 . S
H257 C278 0.929 . S
H258 C287 0.930 . S
H259 C279 0.931 . S
O260 Co236 2.097 . S
O260 C288 1.214 . S
H261 C289 0.929 . S
H262 C290 0.929 . S
H263 C291 0.930 . S
H264 C292 0.929 . S
H265 C294 0.930 . S
H266 C271 0.930 . S
H267 C275 0.930 . S
O268 Co237 2.037 . S
O268 C288 1.234 . S
C269 O243 1.269 . S
C269 O244 1.257 . S
C270 H245 0.930 . S
C270 C273 1.388 . S
C270 C275 1.418 . S
C271 H266 0.930 . S
C271 C274 1.404 . S
C271 C275 1.353 . S
N272 Co237 2.145 . S
N272 C273 1.397 . S
N272 C274 1.334 . S
C273 H254 0.929 . S
C273 C270 1.388 . S
C273 N272 1.397 . S
C274 H255 0.929 . S
C274 C271 1.404 . S
C274 N272 1.334 . S
C275 H267 0.930 . S
C275 C270 1.418 . S
C275 C271 1.353 . S
C276 H246 0.930 . S
C276 N277 1.330 . S
C276 C278 1.446 . S
N277 Co236 2.151 . S
N277 C276 1.330 . S
N277 C281 1.418 . S
C278 H257 0.929 . S
C278 C276 1.446 . S
C278 C279 1.332 . S
C279 H259 0.931 . S
C279 C278 1.332 . S
C279 C280 1.267 . S
C280 H248 0.929 . S
C280 C279 1.267 . S
C280 C281 1.251 . S
C281 H251 0.929 . S
C281 N277 1.418 . S
C281 C280 1.251 . S
C282 H249 0.930 . S
C282 C284 1.406 . S
C282 C287 1.261 . S
C283 H250 0.930 . S
C283 N285 1.325 . S
C283 C286 1.357 . S
C284 H252 0.928 . S
C284 C282 1.406 . S
C284 N285 1.261 . S
N285 Co236 2.214 . S
N285 C283 1.325 . S
N285 C284 1.261 . S
C286 H256 0.931 . S
C286 C283 1.357 . S
C286 C287 1.312 . S
C287 H258 0.930 . S
C287 C282 1.261 . S
C287 C286 1.312 . S
C288 O260 1.214 . S
C288 O268 1.234 . S
C289 H261 0.929 . S
C289 C292 1.391 . S
C289 C294 1.391 . S
C290 H262 0.929 . S
C290 C291 1.390 . S
C290 N293 1.391 . S
C291 H263 0.930 . S
C291 C290 1.390 . S
C291 C292 1.392 . S
C292 H264 0.929 . S
C292 C289 1.391 . S
C292 C291 1.392 . S
N293 Co237 2.257 . S
N293 C290 1.391 . S
N293 C294 1.388 . S
C294 H265 0.930 . S
C294 C289 1.391 . S
C294 N293 1.388 . S
Co295 O297 2.143 . S
Co295 O303 2.074 . S
Co295 O306 2.093 . S
Co295 O319 2.097 . S
Co295 N336 2.151 . S
Co295 N344 2.214 . S
Co296 O297 2.160 . S
Co296 O302 2.058 . S
Co296 O312 2.057 . S
Co296 O327 2.037 . S
Co296 N331 2.145 . S
Co296 N352 2.257 . S
O297 Co295 2.143 . S
O297 Co296 2.160 . S
C298 O299 1.278 . S
C298 O306 1.224 . S
O299 C298 1.278 . S
C300 O301 1.245 . S
C300 O312 1.232 . S
O301 C300 1.245 . S
O302 Co296 2.058 . S
O302 C328 1.269 . S
O303 Co295 2.074 . S
O303 C328 1.257 . S
H304 C329 0.930 . S
H305 C335 0.930 . S
O306 Co295 2.093 . S
O306 C298 1.224 . S
H307 C339 0.929 . S
H308 C341 0.930 . S
H309 C342 0.930 . S
H310 C340 0.929 . S
H311 C343 0.928 . S
O312 Co296 2.057 . S
O312 C300 1.232 . S
H313 C332 0.929 . S
H314 C333 0.929 . S
H315 C345 0.931 . S
H316 C337 0.929 . S
H317 C346 0.930 . S
H318 C338 0.931 . S
O319 Co295 2.097 . S
O319 C347 1.214 . S
H320 C348 0.929 . S
H321 C349 0.929 . S
H322 C350 0.930 . S
H323 C351 0.929 . S
H324 C353 0.930 . S
H325 C330 0.930 . S
H326 C334 0.930 . S
O327 Co296 2.037 . S
O327 C347 1.234 . S
C328 O302 1.269 . S
C328 O303 1.257 . S
C329 H304 0.930 . S
C329 C332 1.388 . S
C329 C334 1.418 . S
C330 H325 0.930 . S
C330 C333 1.404 . S
C330 C334 1.353 . S
N331 Co296 2.145 . S
N331 C332 1.397 . S
N331 C333 1.334 . S
C332 H313 0.929 . S
C332 C329 1.388 . S
C332 N331 1.397 . S
C333 H314 0.929 . S
C333 C330 1.404 . S
C333 N331 1.334 . S
C334 H326 0.930 . S
C334 C329 1.418 . S
C334 C330 1.353 . S
C335 H305 0.930 . S
C335 N336 1.330 . S
C335 C337 1.446 . S
N336 Co295 2.151 . S
N336 C335 1.330 . S
N336 C340 1.418 . S
C337 H316 0.929 . S
C337 C335 1.446 . S
C337 C338 1.332 . S
C338 H318 0.931 . S
C338 C337 1.332 . S
C338 C339 1.267 . S
C339 H307 0.929 . S
C339 C338 1.267 . S
C339 C340 1.251 . S
C340 H310 0.929 . S
C340 N336 1.418 . S
C340 C339 1.251 . S
C341 H308 0.930 . S
C341 C343 1.406 . S
C341 C346 1.261 . S
C342 H309 0.930 . S
C342 N344 1.325 . S
C342 C345 1.357 . S
C343 H311 0.928 . S
C343 C341 1.406 . S
C343 N344 1.261 . S
N344 Co295 2.214 . S
N344 C342 1.325 . S
N344 C343 1.261 . S
C345 H315 0.931 . S
C345 C342 1.357 . S
C345 C346 1.312 . S
C346 H317 0.930 . S
C346 C341 1.261 . S
C346 C345 1.312 . S
C347 O319 1.214 . S
C347 O327 1.234 . S
C348 H320 0.929 . S
C348 C351 1.391 . S
C348 C353 1.391 . S
C349 H321 0.929 . S
C349 C350 1.390 . S
C349 N352 1.391 . S
C350 H322 0.930 . S
C350 C349 1.390 . S
C350 C351 1.392 . S
C351 H323 0.929 . S
C351 C348 1.391 . S
C351 C350 1.392 . S
N352 Co296 2.257 . S
N352 C349 1.391 . S
N352 C353 1.388 . S
C353 H324 0.930 . S
C353 C348 1.391 . S
C353 N352 1.388 . S
Co354 O356 2.143 . S
Co354 O362 2.074 . S
Co354 O365 2.093 . S
Co354 O378 2.097 . S
Co354 N395 2.151 . S
Co354 N403 2.214 . S
Co355 O356 2.160 . S
Co355 O361 2.058 . S
Co355 O371 2.057 1_655 S
Co355 O386 2.037 . S
Co355 N390 2.145 . S
Co355 N411 2.257 1_655 S
O356 Co354 2.143 . S
O356 Co355 2.160 . S
C357 O358 1.278 1_655 S
C357 O365 1.224 . S
O358 C357 1.278 1_455 S
C359 O360 1.245 . S
C359 O371 1.232 . S
O360 C359 1.245 . S
O361 Co355 2.058 . S
O361 C387 1.269 . S
O362 Co354 2.074 . S
O362 C387 1.257 . S
H363 C388 0.930 . S
H364 C394 0.930 . S
O365 Co354 2.093 . S
O365 C357 1.224 . S
H366 C398 0.929 . S
H367 C400 0.930 . S
H368 C401 0.930 . S
H369 C399 0.929 . S
H370 C402 0.928 . S
O371 Co355 2.057 1_455 S
O371 C359 1.232 . S
H372 C391 0.929 . S
H373 C392 0.929 . S
H374 C404 0.931 . S
H375 C396 0.929 . S
H376 C405 0.930 . S
H377 C397 0.931 . S
O378 Co354 2.097 . S
O378 C406 1.214 . S
H379 C407 0.929 . S
H380 C408 0.927 . S
H381 C409 0.930 . S
H382 C410 0.929 . S
H383 C412 0.930 . S
H384 C389 0.930 . S
H385 C393 0.930 1_455 S
O386 Co355 2.037 . S
O386 C406 1.234 . S
C387 O361 1.269 . S
C387 O362 1.257 . S
C388 H363 0.930 . S
C388 C391 1.388 . S
C388 C393 1.418 . S
C389 H384 0.930 . S
C389 C392 1.404 . S
C389 C393 1.353 1_455 S
N390 Co355 2.145 . S
N390 C391 1.397 . S
N390 C392 1.334 1_655 S
C391 H372 0.929 . S
C391 C388 1.388 . S
C391 N390 1.397 . S
C392 H373 0.929 . S
C392 C389 1.404 . S
C392 N390 1.334 1_455 S
C393 H385 0.930 1_655 S
C393 C388 1.418 . S
C393 C389 1.353 1_655 S
C394 H364 0.930 . S
C394 N395 1.330 . S
C394 C396 1.446 . S
N395 Co354 2.151 . S
N395 C394 1.330 . S
N395 C399 1.418 . S
C396 H375 0.929 . S
C396 C394 1.446 . S
C396 C397 1.332 . S
C397 H377 0.931 . S
C397 C396 1.332 . S
C397 C398 1.267 . S
C398 H366 0.929 . S
C398 C397 1.267 . S
C398 C399 1.251 . S
C399 H369 0.929 . S
C399 N395 1.418 . S
C399 C398 1.251 . S
C400 H367 0.930 . S
C400 C402 1.406 . S
C400 C405 1.261 . S
C401 H368 0.930 . S
C401 N403 1.325 . S
C401 C404 1.357 . S
C402 H370 0.928 . S
C402 C400 1.406 . S
C402 N403 1.261 . S
N403 Co354 2.214 . S
N403 C401 1.325 . S
N403 C402 1.261 . S
C404 H374 0.931 . S
C404 C401 1.357 . S
C404 C405 1.312 . S
C405 H376 0.930 . S
C405 C400 1.261 . S
C405 C404 1.312 . S
C406 O378 1.214 . S
C406 O386 1.234 . S
C407 H379 0.929 . S
C407 C410 1.391 . S
C407 C412 1.391 . S
C408 H380 0.927 . S
C408 C409 1.390 . S
C408 N411 1.391 . S
C409 H381 0.930 . S
C409 C408 1.390 . S
C409 C410 1.392 . S
C410 H382 0.929 . S
C410 C407 1.391 . S
C410 C409 1.392 . S
N411 Co355 2.257 1_455 S
N411 C408 1.391 . S
N411 C412 1.388 . S
C412 H383 0.930 . S
C412 C407 1.391 . S
C412 N411 1.388 . S
Co413 O415 2.143 . S
Co413 O421 2.074 . S
Co413 O424 2.093 . S
Co413 O437 2.097 . S
Co413 N454 2.151 . S
Co413 N462 2.214 . S
Co414 O415 2.160 . S
Co414 O420 2.058 . S
Co414 O430 2.057 1_565 S
Co414 O445 2.037 . S
Co414 N449 2.145 . S
Co414 N470 2.257 1_565 S
O415 Co413 2.143 . S
O415 Co414 2.160 . S
C416 O417 1.278 1_565 S
C416 O424 1.224 . S
O417 C416 1.278 1_545 S
C418 O419 1.245 . S
C418 O430 1.232 . S
O419 C418 1.245 . S
O420 Co414 2.058 . S
O420 C446 1.269 . S
O421 Co413 2.074 . S
O421 C446 1.257 . S
H422 C447 0.930 . S
H423 C453 0.930 . S
O424 Co413 2.093 . S
O424 C416 1.224 . S
H425 C457 0.929 . S
H426 C459 0.930 . S
H427 C460 0.930 . S
H428 C458 0.929 . S
H429 C461 0.928 . S
O430 Co414 2.057 1_545 S
O430 C418 1.232 . S
H431 C450 0.929 . S
H432 C451 0.929 . S
H433 C463 0.931 . S
H434 C455 0.929 . S
H435 C464 0.930 . S
H436 C456 0.931 . S
O437 Co413 2.097 . S
O437 C465 1.214 . S
H438 C466 0.929 . S
H439 C467 0.927 . S
H440 C468 0.930 . S
H441 C469 0.929 . S
H442 C471 0.930 . S
H443 C448 0.930 . S
H444 C452 0.930 1_545 S
O445 Co414 2.037 . S
O445 C465 1.234 . S
C446 O420 1.269 . S
C446 O421 1.257 . S
C447 H422 0.930 . S
C447 C450 1.388 . S
C447 C452 1.418 . S
C448 H443 0.930 . S
C448 C451 1.404 . S
C448 C452 1.353 1_545 S
N449 Co414 2.145 . S
N449 C450 1.397 . S
N449 C451 1.334 1_565 S
C450 H431 0.929 . S
C450 C447 1.388 . S
C450 N449 1.397 . S
C451 H432 0.929 . S
C451 C448 1.404 . S
C451 N449 1.334 1_545 S
C452 H444 0.930 1_565 S
C452 C447 1.418 . S
C452 C448 1.353 1_565 S
C453 H423 0.930 . S
C453 N454 1.330 . S
C453 C455 1.446 . S
N454 Co413 2.151 . S
N454 C453 1.330 . S
N454 C458 1.418 . S
C455 H434 0.929 . S
C455 C453 1.446 . S
C455 C456 1.332 . S
C456 H436 0.931 . S
C456 C455 1.332 . S
C456 C457 1.267 . S
C457 H425 0.929 . S
C457 C456 1.267 . S
C457 C458 1.251 . S
C458 H428 0.929 . S
C458 N454 1.418 . S
C458 C457 1.251 . S
C459 H426 0.930 . S
C459 C461 1.406 . S
C459 C464 1.261 . S
C460 H427 0.930 . S
C460 N462 1.325 . S
C460 C463 1.357 . S
C461 H429 0.928 . S
C461 C459 1.406 . S
C461 N462 1.261 . S
N462 Co413 2.214 . S
N462 C460 1.325 . S
N462 C461 1.261 . S
C463 H433 0.931 . S
C463 C460 1.357 . S
C463 C464 1.312 . S
C464 H435 0.930 . S
C464 C459 1.261 . S
C464 C463 1.312 . S
C465 O437 1.214 . S
C465 O445 1.234 . S
C466 H438 0.929 . S
C466 C469 1.391 . S
C466 C471 1.391 . S
C467 H439 0.927 . S
C467 C468 1.390 . S
C467 N470 1.391 . S
C468 H440 0.930 . S
C468 C467 1.390 . S
C468 C469 1.392 . S
C469 H441 0.929 . S
C469 C466 1.391 . S
C469 C468 1.392 . S
N470 Co414 2.257 1_545 S
N470 C467 1.391 . S
N470 C471 1.388 . S
C471 H442 0.930 . S
C471 C466 1.391 . S
C471 N470 1.388 . S
Co472 O474 2.143 . S
Co472 O480 2.074 . S
Co472 O483 2.093 . S
Co472 O496 2.097 . S
Co472 N513 2.151 . S
Co472 N521 2.214 . S
Co473 O474 2.160 . S
Co473 O479 2.058 . S
Co473 O489 2.057 . S
Co473 O504 2.037 . S
Co473 N508 2.145 . S
Co473 N529 2.257 . S
O474 Co472 2.143 . S
O474 Co473 2.160 . S
C475 O476 1.278 . S
C475 O483 1.224 . S
O476 C475 1.278 . S
C477 O478 1.245 . S
C477 O489 1.232 . S
O478 C477 1.245 . S
O479 Co473 2.058 . S
O479 C505 1.269 . S
O480 Co472 2.074 . S
O480 C505 1.257 . S
H481 C506 0.930 . S
H482 C512 0.930 . S
O483 Co472 2.093 . S
O483 C475 1.224 . S
H484 C516 0.929 . S
H485 C518 0.930 . S
H486 C519 0.930 . S
H487 C517 0.929 . S
H488 C520 0.928 . S
O489 Co473 2.057 . S
O489 C477 1.232 . S
H490 C509 0.929 . S
H491 C510 0.929 . S
H492 C522 0.931 . S
H493 C514 0.929 . S
H494 C523 0.930 . S
H495 C515 0.931 . S
O496 Co472 2.097 . S
O496 C524 1.214 . S
H497 C525 0.929 . S
H498 C526 0.929 . S
H499 C527 0.930 . S
H500 C528 0.929 . S
H501 C530 0.930 . S
H502 C507 0.930 . S
H503 C511 0.930 . S
O504 Co473 2.037 . S
O504 C524 1.234 . S
C505 O479 1.269 . S
C505 O480 1.257 . S
C506 H481 0.930 . S
C506 C509 1.388 . S
C506 C511 1.418 . S
C507 H502 0.930 . S
C507 C510 1.404 . S
C507 C511 1.353 . S
N508 Co473 2.145 . S
N508 C509 1.397 . S
N508 C510 1.334 . S
C509 H490 0.929 . S
C509 C506 1.388 . S
C509 N508 1.397 . S
C510 H491 0.929 . S
C510 C507 1.404 . S
C510 N508 1.334 . S
C511 H503 0.930 . S
C511 C506 1.418 . S
C511 C507 1.353 . S
C512 H482 0.930 . S
C512 N513 1.330 . S
C512 C514 1.446 . S
N513 Co472 2.151 . S
N513 C512 1.330 . S
N513 C517 1.418 . S
C514 H493 0.929 . S
C514 C512 1.446 . S
C514 C515 1.332 . S
C515 H495 0.931 . S
C515 C514 1.332 . S
C515 C516 1.267 . S
C516 H484 0.929 . S
C516 C515 1.267 . S
C516 C517 1.251 . S
C517 H487 0.929 . S
C517 N513 1.418 . S
C517 C516 1.251 . S
C518 H485 0.930 . S
C518 C520 1.406 . S
C518 C523 1.261 . S
C519 H486 0.930 . S
C519 N521 1.325 . S
C519 C522 1.357 . S
C520 H488 0.928 . S
C520 C518 1.406 . S
C520 N521 1.261 . S
N521 Co472 2.214 . S
N521 C519 1.325 . S
N521 C520 1.261 . S
C522 H492 0.931 . S
C522 C519 1.357 . S
C522 C523 1.312 . S
C523 H494 0.930 . S
C523 C518 1.261 . S
C523 C522 1.312 . S
C524 O496 1.214 . S
C524 O504 1.234 . S
C525 H497 0.929 . S
C525 C528 1.391 . S
C525 C530 1.391 . S
C526 H498 0.929 . S
C526 C527 1.390 . S
C526 N529 1.391 . S
C527 H499 0.930 . S
C527 C526 1.390 . S
C527 C528 1.392 . S
C528 H500 0.929 . S
C528 C525 1.391 . S
C528 C527 1.392 . S
N529 Co473 2.257 . S
N529 C526 1.391 . S
N529 C530 1.388 . S
C530 H501 0.930 . S
C530 C525 1.391 . S
C530 N529 1.388 . S
Co531 O533 2.143 . S
Co531 O539 2.074 . S
Co531 O542 2.093 . S
Co531 O555 2.097 . S
Co531 N572 2.151 . S
Co531 N580 2.214 . S
Co532 O533 2.160 . S
Co532 O538 2.058 . S
Co532 O548 2.057 . S
Co532 O563 2.037 . S
Co532 N567 2.145 . S
Co532 N588 2.257 . S
O533 Co531 2.143 . S
O533 Co532 2.160 . S
C534 O535 1.278 . S
C534 O542 1.224 . S
O535 C534 1.278 . S
C536 O537 1.245 . S
C536 O548 1.232 . S
O537 C536 1.245 . S
O538 Co532 2.058 . S
O538 C564 1.269 . S
O539 Co531 2.074 . S
O539 C564 1.257 . S
H540 C565 0.930 . S
H541 C571 0.930 . S
O542 Co531 2.093 . S
O542 C534 1.224 . S
H543 C575 0.929 . S
H544 C577 0.930 . S
H545 C578 0.930 . S
H546 C576 0.929 . S
H547 C579 0.928 . S
O548 Co532 2.057 . S
O548 C536 1.232 . S
H549 C568 0.929 . S
H550 C569 0.929 . S
H551 C581 0.931 . S
H552 C573 0.929 . S
H553 C582 0.930 . S
H554 C574 0.931 . S
O555 Co531 2.097 . S
O555 C583 1.214 . S
H556 C584 0.929 . S
H557 C585 0.929 . S
H558 C586 0.930 . S
H559 C587 0.929 . S
H560 C589 0.930 . S
H561 C566 0.930 . S
H562 C570 0.930 . S
O563 Co532 2.037 . S
O563 C583 1.234 . S
C564 O538 1.269 . S
C564 O539 1.257 . S
C565 H540 0.930 . S
C565 C568 1.388 . S
C565 C570 1.418 . S
C566 H561 0.930 . S
C566 C569 1.404 . S
C566 C570 1.353 . S
N567 Co532 2.145 . S
N567 C568 1.397 . S
N567 C569 1.334 . S
C568 H549 0.929 . S
C568 C565 1.388 . S
C568 N567 1.397 . S
C569 H550 0.929 . S
C569 C566 1.404 . S
C569 N567 1.334 . S
C570 H562 0.930 . S
C570 C565 1.418 . S
C570 C566 1.353 . S
C571 H541 0.930 . S
C571 N572 1.330 . S
C571 C573 1.446 . S
N572 Co531 2.151 . S
N572 C571 1.330 . S
N572 C576 1.418 . S
C573 H552 0.929 . S
C573 C571 1.446 . S
C573 C574 1.332 . S
C574 H554 0.931 . S
C574 C573 1.332 . S
C574 C575 1.267 . S
C575 H543 0.929 . S
C575 C574 1.267 . S
C575 C576 1.251 . S
C576 H546 0.929 . S
C576 N572 1.418 . S
C576 C575 1.251 . S
C577 H544 0.930 . S
C577 C579 1.406 . S
C577 C582 1.261 . S
C578 H545 0.930 . S
C578 N580 1.325 . S
C578 C581 1.357 . S
C579 H547 0.928 . S
C579 C577 1.406 . S
C579 N580 1.261 . S
N580 Co531 2.214 . S
N580 C578 1.325 . S
N580 C579 1.261 . S
C581 H551 0.931 . S
C581 C578 1.357 . S
C581 C582 1.312 . S
C582 H553 0.930 . S
C582 C577 1.261 . S
C582 C581 1.312 . S
C583 O555 1.214 . S
C583 O563 1.234 . S
C584 H556 0.929 . S
C584 C587 1.391 . S
C584 C589 1.391 . S
C585 H557 0.929 . S
C585 C586 1.390 . S
C585 N588 1.391 . S
C586 H558 0.930 . S
C586 C585 1.390 . S
C586 C587 1.392 . S
C587 H559 0.929 . S
C587 C584 1.391 . S
C587 C586 1.392 . S
N588 Co532 2.257 . S
N588 C585 1.391 . S
N588 C589 1.388 . S
C589 H560 0.930 . S
C589 C584 1.391 . S
C589 N588 1.388 . S
Co590 O592 2.143 . S
Co590 O598 2.074 . S
Co590 O601 2.093 . S
Co590 O614 2.097 . S
Co590 N631 2.151 . S
Co590 N639 2.214 . S
Co591 O592 2.160 . S
Co591 O597 2.058 . S
Co591 O607 2.057 1_455 S
Co591 O622 2.037 . S
Co591 N626 2.145 . S
Co591 N647 2.257 1_455 S
O592 Co590 2.143 . S
O592 Co591 2.160 . S
C593 O594 1.278 1_455 S
C593 O601 1.224 . S
O594 C593 1.278 1_655 S
C595 O596 1.245 . S
C595 O607 1.232 . S
O596 C595 1.245 . S
O597 Co591 2.058 . S
O597 C623 1.269 . S
O598 Co590 2.074 . S
O598 C623 1.257 . S
H599 C624 0.930 . S
H600 C630 0.930 . S
O601 Co590 2.093 . S
O601 C593 1.224 . S
H602 C634 0.929 . S
H603 C636 0.930 . S
H604 C637 0.930 . S
H605 C635 0.929 . S
H606 C638 0.928 . S
O607 Co591 2.057 1_655 S
O607 C595 1.232 . S
H608 C627 0.929 . S
H609 C628 0.929 . S
H610 C640 0.931 . S
H611 C632 0.929 . S
H612 C641 0.930 . S
H613 C633 0.931 . S
O614 Co590 2.097 . S
O614 C642 1.214 . S
H615 C643 0.929 . S
H616 C644 0.927 . S
H617 C645 0.930 . S
H618 C646 0.929 . S
H619 C648 0.930 . S
H620 C625 0.930 . S
H621 C629 0.930 1_655 S
O622 Co591 2.037 . S
O622 C642 1.234 . S
C623 O597 1.269 . S
C623 O598 1.257 . S
C624 H599 0.930 . S
C624 C627 1.388 . S
C624 C629 1.418 . S
C625 H620 0.930 . S
C625 C628 1.404 . S
C625 C629 1.353 1_655 S
N626 Co591 2.145 . S
N626 C627 1.397 . S
N626 C628 1.334 1_455 S
C627 H608 0.929 . S
C627 C624 1.388 . S
C627 N626 1.397 . S
C628 H609 0.929 . S
C628 C625 1.404 . S
C628 N626 1.334 1_655 S
C629 H621 0.930 1_455 S
C629 C624 1.418 . S
C629 C625 1.353 1_455 S
C630 H600 0.930 . S
C630 N631 1.330 . S
C630 C632 1.446 . S
N631 Co590 2.151 . S
N631 C630 1.330 . S
N631 C635 1.418 . S
C632 H611 0.929 . S
C632 C630 1.446 . S
C632 C633 1.332 . S
C633 H613 0.931 . S
C633 C632 1.332 . S
C633 C634 1.267 . S
C634 H602 0.929 . S
C634 C633 1.267 . S
C634 C635 1.251 . S
C635 H605 0.929 . S
C635 N631 1.418 . S
C635 C634 1.251 . S
C636 H603 0.930 . S
C636 C638 1.406 . S
C636 C641 1.261 . S
C637 H604 0.930 . S
C637 N639 1.325 . S
C637 C640 1.357 . S
C638 H606 0.928 . S
C638 C636 1.406 . S
C638 N639 1.261 . S
N639 Co590 2.214 . S
N639 C637 1.325 . S
N639 C638 1.261 . S
C640 H610 0.931 . S
C640 C637 1.357 . S
C640 C641 1.312 . S
C641 H612 0.930 . S
C641 C636 1.261 . S
C641 C640 1.312 . S
C642 O614 1.214 . S
C642 O622 1.234 . S
C643 H615 0.929 . S
C643 C646 1.391 . S
C643 C648 1.391 . S
C644 H616 0.927 . S
C644 C645 1.390 . S
C644 N647 1.391 . S
C645 H617 0.930 . S
C645 C644 1.390 . S
C645 C646 1.392 . S
C646 H618 0.929 . S
C646 C643 1.391 . S
C646 C645 1.392 . S
N647 Co591 2.257 1_655 S
N647 C644 1.391 . S
N647 C648 1.388 . S
C648 H619 0.930 . S
C648 C643 1.391 . S
C648 N647 1.388 . S
Co649 O651 2.143 . S
Co649 O657 2.074 . S
Co649 O660 2.093 . S
Co649 O673 2.097 . S
Co649 N690 2.151 . S
Co649 N698 2.214 . S
Co650 O651 2.160 . S
Co650 O656 2.058 . S
Co650 O666 2.057 1_545 S
Co650 O681 2.037 . S
Co650 N685 2.145 . S
Co650 N706 2.257 1_545 S
O651 Co649 2.143 . S
O651 Co650 2.160 . S
C652 O653 1.278 1_545 S
C652 O660 1.224 . S
O653 C652 1.278 1_565 S
C654 O655 1.245 . S
C654 O666 1.232 . S
O655 C654 1.245 . S
O656 Co650 2.058 . S
O656 C682 1.269 . S
O657 Co649 2.074 . S
O657 C682 1.257 . S
H658 C683 0.930 . S
H659 C689 0.930 . S
O660 Co649 2.093 . S
O660 C652 1.224 . S
H661 C693 0.929 . S
H662 C695 0.930 . S
H663 C696 0.930 . S
H664 C694 0.929 . S
H665 C697 0.928 . S
O666 Co650 2.057 1_565 S
O666 C654 1.232 . S
H667 C686 0.929 . S
H668 C687 0.929 . S
H669 C699 0.931 . S
H670 C691 0.929 . S
H671 C700 0.930 . S
H672 C692 0.931 . S
O673 Co649 2.097 . S
O673 C701 1.214 . S
H674 C702 0.929 . S
H675 C703 0.927 . S
H676 C704 0.930 . S
H677 C705 0.929 . S
H678 C707 0.930 . S
H679 C684 0.930 . S
H680 C688 0.930 1_565 S
O681 Co650 2.037 . S
O681 C701 1.234 . S
C682 O656 1.269 . S
C682 O657 1.257 . S
C683 H658 0.930 . S
C683 C686 1.388 . S
C683 C688 1.418 . S
C684 H679 0.930 . S
C684 C687 1.404 . S
C684 C688 1.353 1_565 S
N685 Co650 2.145 . S
N685 C686 1.397 . S
N685 C687 1.334 1_545 S
C686 H667 0.929 . S
C686 C683 1.388 . S
C686 N685 1.397 . S
C687 H668 0.929 . S
C687 C684 1.404 . S
C687 N685 1.334 1_565 S
C688 H680 0.930 1_545 S
C688 C683 1.418 . S
C688 C684 1.353 1_545 S
C689 H659 0.930 . S
C689 N690 1.330 . S
C689 C691 1.446 . S
N690 Co649 2.151 . S
N690 C689 1.330 . S
N690 C694 1.418 . S
C691 H670 0.929 . S
C691 C689 1.446 . S
C691 C692 1.332 . S
C692 H672 0.931 . S
C692 C691 1.332 . S
C692 C693 1.267 . S
C693 H661 0.929 . S
C693 C692 1.267 . S
C693 C694 1.251 . S
C694 H664 0.929 . S
C694 N690 1.418 . S
C694 C693 1.251 . S
C695 H662 0.930 . S
C695 C697 1.406 . S
C695 C700 1.261 . S
C696 H663 0.930 . S
C696 N698 1.325 . S
C696 C699 1.357 . S
C697 H665 0.928 . S
C697 C695 1.406 . S
C697 N698 1.261 . S
N698 Co649 2.214 . S
N698 C696 1.325 . S
N698 C697 1.261 . S
C699 H669 0.931 . S
C699 C696 1.357 . S
C699 C700 1.312 . S
C700 H671 0.930 . S
C700 C695 1.261 . S
C700 C699 1.312 . S
C701 O673 1.214 . S
C701 O681 1.234 . S
C702 H674 0.929 . S
C702 C705 1.391 . S
C702 C707 1.391 . S
C703 H675 0.927 . S
C703 C704 1.390 . S
C703 N706 1.391 . S
C704 H676 0.930 . S
C704 C703 1.390 . S
C704 C705 1.392 . S
C705 H677 0.929 . S
C705 C702 1.391 . S
C705 C704 1.392 . S
N706 Co650 2.257 1_565 S
N706 C703 1.391 . S
N706 C707 1.388 . S
C707 H678 0.930 . S
C707 C702 1.391 . S
C707 N706 1.388 . S
Co708 O710 2.143 . S
Co708 O716 2.074 . S
Co708 O719 2.093 . S
Co708 O732 2.097 . S
Co708 N749 2.151 . S
Co708 N757 2.214 . S
Co709 O710 2.160 . S
Co709 O715 2.058 . S
Co709 O725 2.057 . S
Co709 O740 2.037 . S
Co709 N744 2.145 . S
Co709 N765 2.257 . S
O710 Co708 2.143 . S
O710 Co709 2.160 . S
C711 O712 1.278 . S
C711 O719 1.224 . S
O712 C711 1.278 . S
C713 O714 1.245 . S
C713 O725 1.232 . S
O714 C713 1.245 . S
O715 Co709 2.058 . S
O715 C741 1.269 . S
O716 Co708 2.074 . S
O716 C741 1.257 . S
H717 C742 0.930 . S
H718 C748 0.930 . S
O719 Co708 2.093 . S
O719 C711 1.224 . S
H720 C752 0.929 . S
H721 C754 0.930 . S
H722 C755 0.930 . S
H723 C753 0.929 . S
H724 C756 0.928 . S
O725 Co709 2.057 . S
O725 C713 1.232 . S
H726 C745 0.929 . S
H727 C746 0.929 . S
H728 C758 0.931 . S
H729 C750 0.929 . S
H730 C759 0.930 . S
H731 C751 0.931 . S
O732 Co708 2.097 . S
O732 C760 1.214 . S
H733 C761 0.929 . S
H734 C762 0.929 . S
H735 C763 0.930 . S
H736 C764 0.929 . S
H737 C766 0.930 . S
H738 C743 0.930 . S
H739 C747 0.930 . S
O740 Co709 2.037 . S
O740 C760 1.234 . S
C741 O715 1.269 . S
C741 O716 1.257 . S
C742 H717 0.930 . S
C742 C745 1.388 . S
C742 C747 1.418 . S
C743 H738 0.930 . S
C743 C746 1.404 . S
C743 C747 1.353 . S
N744 Co709 2.145 . S
N744 C745 1.397 . S
N744 C746 1.334 . S
C745 H726 0.929 . S
C745 C742 1.388 . S
C745 N744 1.397 . S
C746 H727 0.929 . S
C746 C743 1.404 . S
C746 N744 1.334 . S
C747 H739 0.930 . S
C747 C742 1.418 . S
C747 C743 1.353 . S
C748 H718 0.930 . S
C748 N749 1.330 . S
C748 C750 1.446 . S
N749 Co708 2.151 . S
N749 C748 1.330 . S
N749 C753 1.418 . S
C750 H729 0.929 . S
C750 C748 1.446 . S
C750 C751 1.332 . S
C751 H731 0.931 . S
C751 C750 1.332 . S
C751 C752 1.267 . S
C752 H720 0.929 . S
C752 C751 1.267 . S
C752 C753 1.251 . S
C753 H723 0.929 . S
C753 N749 1.418 . S
C753 C752 1.251 . S
C754 H721 0.930 . S
C754 C756 1.406 . S
C754 C759 1.261 . S
C755 H722 0.930 . S
C755 N757 1.325 . S
C755 C758 1.357 . S
C756 H724 0.928 . S
C756 C754 1.406 . S
C756 N757 1.261 . S
N757 Co708 2.214 . S
N757 C755 1.325 . S
N757 C756 1.261 . S
C758 H728 0.931 . S
C758 C755 1.357 . S
C758 C759 1.312 . S
C759 H730 0.930 . S
C759 C754 1.261 . S
C759 C758 1.312 . S
C760 O732 1.214 . S
C760 O740 1.234 . S
C761 H733 0.929 . S
C761 C764 1.391 . S
C761 C766 1.391 . S
C762 H734 0.929 . S
C762 C763 1.390 . S
C762 N765 1.391 . S
C763 H735 0.930 . S
C763 C762 1.390 . S
C763 C764 1.392 . S
C764 H736 0.929 . S
C764 C761 1.391 . S
C764 C763 1.392 . S
N765 Co709 2.257 . S
N765 C762 1.391 . S
N765 C766 1.388 . S
C766 H737 0.930 . S
C766 C761 1.391 . S
C766 N765 1.388 . S
Co767 O769 2.143 . S
Co767 O775 2.074 . S
Co767 O778 2.093 . S
Co767 O791 2.097 . S
Co767 N808 2.151 . S
Co767 N816 2.214 . S
Co768 O769 2.160 . S
Co768 O774 2.058 . S
Co768 O784 2.057 . S
Co768 O799 2.037 . S
Co768 N803 2.145 . S
Co768 N824 2.257 . S
O769 Co767 2.143 . S
O769 Co768 2.160 . S
C770 O771 1.278 . S
C770 O778 1.224 . S
O771 C770 1.278 . S
C772 O773 1.245 . S
C772 O784 1.232 . S
O773 C772 1.245 . S
O774 Co768 2.058 . S
O774 C800 1.269 . S
O775 Co767 2.074 . S
O775 C800 1.257 . S
H776 C801 0.930 . S
H777 C807 0.930 . S
O778 Co767 2.093 . S
O778 C770 1.224 . S
H779 C811 0.929 . S
H780 C813 0.930 . S
H781 C814 0.930 . S
H782 C812 0.929 . S
H783 C815 0.928 . S
O784 Co768 2.057 . S
O784 C772 1.232 . S
H785 C804 0.929 . S
H786 C805 0.929 . S
H787 C817 0.931 . S
H788 C809 0.929 . S
H789 C818 0.930 . S
H790 C810 0.931 . S
O791 Co767 2.097 . S
O791 C819 1.214 . S
H792 C820 0.929 . S
H793 C821 0.929 . S
H794 C822 0.930 . S
H795 C823 0.929 . S
H796 C825 0.930 . S
H797 C802 0.930 . S
H798 C806 0.930 . S
O799 Co768 2.037 . S
O799 C819 1.234 . S
C800 O774 1.269 . S
C800 O775 1.257 . S
C801 H776 0.930 . S
C801 C804 1.388 . S
C801 C806 1.418 . S
C802 H797 0.930 . S
C802 C805 1.404 . S
C802 C806 1.353 . S
N803 Co768 2.145 . S
N803 C804 1.397 . S
N803 C805 1.334 . S
C804 H785 0.929 . S
C804 C801 1.388 . S
C804 N803 1.397 . S
C805 H786 0.929 . S
C805 C802 1.404 . S
C805 N803 1.334 . S
C806 H798 0.930 . S
C806 C801 1.418 . S
C806 C802 1.353 . S
C807 H777 0.930 . S
C807 N808 1.330 . S
C807 C809 1.446 . S
N808 Co767 2.151 . S
N808 C807 1.330 . S
N808 C812 1.418 . S
C809 H788 0.929 . S
C809 C807 1.446 . S
C809 C810 1.332 . S
C810 H790 0.931 . S
C810 C809 1.332 . S
C810 C811 1.267 . S
C811 H779 0.929 . S
C811 C810 1.267 . S
C811 C812 1.251 . S
C812 H782 0.929 . S
C812 N808 1.418 . S
C812 C811 1.251 . S
C813 H780 0.930 . S
C813 C815 1.406 . S
C813 C818 1.261 . S
C814 H781 0.930 . S
C814 N816 1.325 . S
C814 C817 1.357 . S
C815 H783 0.928 . S
C815 C813 1.406 . S
C815 N816 1.261 . S
N816 Co767 2.214 . S
N816 C814 1.325 . S
N816 C815 1.261 . S
C817 H787 0.931 . S
C817 C814 1.357 . S
C817 C818 1.312 . S
C818 H789 0.930 . S
C818 C813 1.261 . S
C818 C817 1.312 . S
C819 O791 1.214 . S
C819 O799 1.234 . S
C820 H792 0.929 . S
C820 C823 1.391 . S
C820 C825 1.391 . S
C821 H793 0.929 . S
C821 C822 1.390 . S
C821 N824 1.391 . S
C822 H794 0.930 . S
C822 C821 1.390 . S
C822 C823 1.392 . S
C823 H795 0.929 . S
C823 C820 1.391 . S
C823 C822 1.392 . S
N824 Co768 2.257 . S
N824 C821 1.391 . S
N824 C825 1.388 . S
C825 H796 0.930 . S
C825 C820 1.391 . S
C825 N824 1.388 . S
Co826 O828 2.143 . S
Co826 O834 2.074 . S
Co826 O837 2.093 . S
Co826 O850 2.097 . S
Co826 N867 2.151 . S
Co826 N875 2.214 . S
Co827 O828 2.160 . S
Co827 O833 2.058 . S
Co827 O843 2.057 1_455 S
Co827 O858 2.037 . S
Co827 N862 2.145 . S
Co827 N883 2.257 1_455 S
O828 Co826 2.143 . S
O828 Co827 2.160 . S
C829 O830 1.278 1_455 S
C829 O837 1.224 . S
O830 C829 1.278 1_655 S
C831 O832 1.245 . S
C831 O843 1.232 . S
O832 C831 1.245 . S
O833 Co827 2.058 . S
O833 C859 1.269 . S
O834 Co826 2.074 . S
O834 C859 1.257 . S
H835 C860 0.930 . S
H836 C866 0.930 . S
O837 Co826 2.093 . S
O837 C829 1.224 . S
H838 C870 0.929 . S
H839 C872 0.930 . S
H840 C873 0.930 . S
H841 C871 0.929 . S
H842 C874 0.928 . S
O843 Co827 2.057 1_655 S
O843 C831 1.232 . S
H844 C863 0.929 . S
H845 C864 0.929 . S
H846 C876 0.931 . S
H847 C868 0.929 . S
H848 C877 0.930 . S
H849 C869 0.931 . S
O850 Co826 2.097 . S
O850 C878 1.214 . S
H851 C879 0.929 . S
H852 C880 0.927 . S
H853 C881 0.930 . S
H854 C882 0.929 . S
H855 C884 0.930 . S
H856 C861 0.930 . S
H857 C865 0.930 1_655 S
O858 Co827 2.037 . S
O858 C878 1.234 . S
C859 O833 1.269 . S
C859 O834 1.257 . S
C860 H835 0.930 . S
C860 C863 1.388 . S
C860 C865 1.418 . S
C861 H856 0.930 . S
C861 C864 1.404 . S
C861 C865 1.353 1_655 S
N862 Co827 2.145 . S
N862 C863 1.397 . S
N862 C864 1.334 1_455 S
C863 H844 0.929 . S
C863 C860 1.388 . S
C863 N862 1.397 . S
C864 H845 0.929 . S
C864 C861 1.404 . S
C864 N862 1.334 1_655 S
C865 H857 0.930 1_455 S
C865 C860 1.418 . S
C865 C861 1.353 1_455 S
C866 H836 0.930 . S
C866 N867 1.330 . S
C866 C868 1.446 . S
N867 Co826 2.151 . S
N867 C866 1.330 . S
N867 C871 1.418 . S
C868 H847 0.929 . S
C868 C866 1.446 . S
C868 C869 1.332 . S
C869 H849 0.931 . S
C869 C868 1.332 . S
C869 C870 1.267 . S
C870 H838 0.929 . S
C870 C869 1.267 . S
C870 C871 1.251 . S
C871 H841 0.929 . S
C871 N867 1.418 . S
C871 C870 1.251 . S
C872 H839 0.930 . S
C872 C874 1.406 . S
C872 C877 1.261 . S
C873 H840 0.930 . S
C873 N875 1.325 . S
C873 C876 1.357 . S
C874 H842 0.928 . S
C874 C872 1.406 . S
C874 N875 1.261 . S
N875 Co826 2.214 . S
N875 C873 1.325 . S
N875 C874 1.261 . S
C876 H846 0.931 . S
C876 C873 1.357 . S
C876 C877 1.312 . S
C877 H848 0.930 . S
C877 C872 1.261 . S
C877 C876 1.312 . S
C878 O850 1.214 . S
C878 O858 1.234 . S
C879 H851 0.929 . S
C879 C882 1.391 . S
C879 C884 1.391 . S
C880 H852 0.927 . S
C880 C881 1.390 . S
C880 N883 1.391 . S
C881 H853 0.930 . S
C881 C880 1.390 . S
C881 C882 1.392 . S
C882 H854 0.929 . S
C882 C879 1.391 . S
C882 C881 1.392 . S
N883 Co827 2.257 1_655 S
N883 C880 1.391 . S
N883 C884 1.388 . S
C884 H855 0.930 . S
C884 C879 1.391 . S
C884 N883 1.388 . S
Co885 O887 2.143 . S
Co885 O893 2.074 . S
Co885 O896 2.093 . S
Co885 O909 2.097 . S
Co885 N926 2.151 . S
Co885 N934 2.214 . S
Co886 O887 2.160 . S
Co886 O892 2.058 . S
Co886 O902 2.057 1_545 S
Co886 O917 2.037 . S
Co886 N921 2.145 . S
Co886 N942 2.257 1_545 S
O887 Co885 2.143 . S
O887 Co886 2.160 . S
C888 O889 1.278 1_545 S
C888 O896 1.224 . S
O889 C888 1.278 1_565 S
C890 O891 1.245 . S
C890 O902 1.232 . S
O891 C890 1.245 . S
O892 Co886 2.058 . S
O892 C918 1.269 . S
O893 Co885 2.074 . S
O893 C918 1.257 . S
H894 C919 0.930 . S
H895 C925 0.930 . S
O896 Co885 2.093 . S
O896 C888 1.224 . S
H897 C929 0.929 . S
H898 C931 0.930 . S
H899 C932 0.930 . S
H900 C930 0.929 . S
H901 C933 0.928 . S
O902 Co886 2.057 1_565 S
O902 C890 1.232 . S
H903 C922 0.929 . S
H904 C923 0.929 . S
H905 C935 0.931 . S
H906 C927 0.929 . S
H907 C936 0.930 . S
H908 C928 0.931 . S
O909 Co885 2.097 . S
O909 C937 1.214 . S
H910 C938 0.929 . S
H911 C939 0.927 . S
H912 C940 0.930 . S
H913 C941 0.929 . S
H914 C943 0.930 . S
H915 C920 0.930 . S
H916 C924 0.930 1_565 S
O917 Co886 2.037 . S
O917 C937 1.234 . S
C918 O892 1.269 . S
C918 O893 1.257 . S
C919 H894 0.930 . S
C919 C922 1.388 . S
C919 C924 1.418 . S
C920 H915 0.930 . S
C920 C923 1.404 . S
C920 C924 1.353 1_565 S
N921 Co886 2.145 . S
N921 C922 1.397 . S
N921 C923 1.334 1_545 S
C922 H903 0.929 . S
C922 C919 1.388 . S
C922 N921 1.397 . S
C923 H904 0.929 . S
C923 C920 1.404 . S
C923 N921 1.334 1_565 S
C924 H916 0.930 1_545 S
C924 C919 1.418 . S
C924 C920 1.353 1_545 S
C925 H895 0.930 . S
C925 N926 1.330 . S
C925 C927 1.446 . S
N926 Co885 2.151 . S
N926 C925 1.330 . S
N926 C930 1.418 . S
C927 H906 0.929 . S
C927 C925 1.446 . S
C927 C928 1.332 . S
C928 H908 0.931 . S
C928 C927 1.332 . S
C928 C929 1.267 . S
C929 H897 0.929 . S
C929 C928 1.267 . S
C929 C930 1.251 . S
C930 H900 0.929 . S
C930 N926 1.418 . S
C930 C929 1.251 . S
C931 H898 0.930 . S
C931 C933 1.406 . S
C931 C936 1.261 . S
C932 H899 0.930 . S
C932 N934 1.325 . S
C932 C935 1.357 . S
C933 H901 0.928 . S
C933 C931 1.406 . S
C933 N934 1.261 . S
N934 Co885 2.214 . S
N934 C932 1.325 . S
N934 C933 1.261 . S
C935 H905 0.931 . S
C935 C932 1.357 . S
C935 C936 1.312 . S
C936 H907 0.930 . S
C936 C931 1.261 . S
C936 C935 1.312 . S
C937 O909 1.214 . S
C937 O917 1.234 . S
C938 H910 0.929 . S
C938 C941 1.391 . S
C938 C943 1.391 . S
C939 H911 0.927 . S
C939 C940 1.390 . S
C939 N942 1.391 . S
C940 H912 0.930 . S
C940 C939 1.390 . S
C940 C941 1.392 . S
C941 H913 0.929 . S
C941 C938 1.391 . S
C941 C940 1.392 . S
N942 Co886 2.257 1_565 S
N942 C939 1.391 . S
N942 C943 1.388 . S
C943 H914 0.930 . S
C943 C938 1.391 . S
C943 N942 1.388 . S
H944 C952 0.950 . S
H945 C957 0.950 . S
H946 C954 0.950 . S
H947 C956 0.950 . S
H948 C958 0.950 . S
H949 C960 0.950 . S
H950 C962 0.950 . S
H951 C963 0.950 . S
C952 H944 0.950 . S
C952 C953 1.386 . S
C952 C954 1.391 . S
C953 C952 1.386 . S
C953 C957 1.393 . S
C954 H946 0.950 . S
C954 C952 1.391 . S
C954 C955 1.400 . S
C955 C954 1.400 . S
C955 C956 1.398 . S
C955 C961 1.491 . S
C956 H947 0.950 . S
C956 C955 1.398 . S
C956 C957 1.391 . S
C957 H945 0.950 . S
C957 C953 1.393 . S
C957 C956 1.391 . S
C958 H948 0.950 . S
C958 C959 1.386 . S
C958 C960 1.391 . S
C959 C958 1.386 . S
C959 C963 1.393 . S
C960 H949 0.950 . S
C960 C958 1.391 . S
C960 C961 1.400 . S
C961 C955 1.491 . S
C961 C960 1.400 . S
C961 C962 1.398 . S
C962 H950 0.950 . S
C962 C961 1.398 . S
C962 C963 1.391 . S
C963 H951 0.950 . S
C963 C959 1.393 . S
C963 C962 1.391 . S
H964 C972 0.950 . S
H965 C977 0.950 . S
H966 C974 0.950 . S
H967 C976 0.950 . S
H968 C978 0.950 . S
H969 C980 0.950 . S
H970 C982 0.950 . S
H971 C983 0.950 . S
C972 H964 0.950 . S
C972 C973 1.386 . S
C972 C974 1.391 . S
C973 C972 1.386 . S
C973 C977 1.393 . S
C974 H966 0.950 . S
C974 C972 1.391 . S
C974 C975 1.400 . S
C975 C974 1.400 . S
C975 C976 1.398 . S
C975 C981 1.491 . S
C976 H967 0.950 . S
C976 C975 1.398 . S
C976 C977 1.391 . S
C977 H965 0.950 . S
C977 C973 1.393 . S
C977 C976 1.391 . S
C978 H968 0.950 . S
C978 C979 1.386 . S
C978 C980 1.391 . S
C979 C978 1.386 . S
C979 C983 1.393 . S
C980 H969 0.950 . S
C980 C978 1.391 . S
C980 C981 1.400 . S
C981 C975 1.491 . S
C981 C980 1.400 . S
C981 C982 1.398 . S
C982 H970 0.950 . S
C982 C981 1.398 . S
C982 C983 1.391 . S
C983 H971 0.950 . S
C983 C979 1.393 . S
C983 C982 1.391 . S
H984 C992 0.950 . S
H985 C997 0.950 . S
H986 C994 0.950 . S
H987 C996 0.950 . S
H988 C998 0.950 . S
H989 C1000 0.950 . S
H990 C1002 0.950 . S
H991 C1003 0.950 . S
C992 H984 0.950 . S
C992 C993 1.386 . S
C992 C994 1.391 . S
C993 C992 1.386 . S
C993 C997 1.393 . S
C994 H986 0.950 . S
C994 C992 1.391 . S
C994 C995 1.400 . S
C995 C994 1.400 . S
C995 C996 1.398 . S
C995 C1001 1.491 . S
C996 H987 0.950 . S
C996 C995 1.398 . S
C996 C997 1.391 . S
C997 H985 0.950 . S
C997 C993 1.393 . S
C997 C996 1.391 . S
C998 H988 0.950 . S
C998 C999 1.386 . S
C998 C1000 1.391 . S
C999 C998 1.386 . S
C999 C1003 1.393 . S
C1000 H989 0.950 . S
C1000 C998 1.391 . S
C1000 C1001 1.400 . S
C1001 C995 1.491 . S
C1001 C1000 1.400 . S
C1001 C1002 1.398 . S
C1002 H990 0.950 . S
C1002 C1001 1.398 . S
C1002 C1003 1.391 . S
C1003 H991 0.950 . S
C1003 C999 1.393 . S
C1003 C1002 1.391 . S
H1004 C1012 0.950 . S
H1005 C1017 0.950 . S
H1006 C1014 0.950 . S
H1007 C1016 0.950 . S
H1008 C1018 0.950 . S
H1009 C1020 0.950 . S
H1010 C1022 0.950 . S
H1011 C1023 0.950 . S
C1012 H1004 0.950 . S
C1012 C1013 1.386 . S
C1012 C1014 1.391 . S
C1013 C1012 1.386 . S
C1013 C1017 1.393 . S
C1014 H1006 0.950 . S
C1014 C1012 1.391 . S
C1014 C1015 1.400 . S
C1015 C1014 1.400 . S
C1015 C1016 1.398 . S
C1015 C1021 1.491 . S
C1016 H1007 0.950 . S
C1016 C1015 1.398 . S
C1016 C1017 1.391 . S
C1017 H1005 0.950 . S
C1017 C1013 1.393 . S
C1017 C1016 1.391 . S
C1018 H1008 0.950 . S
C1018 C1019 1.386 . S
C1018 C1020 1.391 . S
C1019 C1018 1.386 . S
C1019 C1023 1.393 . S
C1020 H1009 0.950 . S
C1020 C1018 1.391 . S
C1020 C1021 1.400 . S
C1021 C1015 1.491 . S
C1021 C1020 1.400 . S
C1021 C1022 1.398 . S
C1022 H1010 0.950 . S
C1022 C1021 1.398 . S
C1022 C1023 1.391 . S
C1023 H1011 0.950 . S
C1023 C1019 1.393 . S
C1023 C1022 1.391 . S
H1024 C1032 0.950 . S
H1025 C1037 0.950 . S
H1026 C1034 0.950 . S
H1027 C1036 0.950 . S
H1028 C1038 0.950 . S
H1029 C1040 0.950 . S
H1030 C1042 0.950 . S
H1031 C1043 0.950 . S
C1032 H1024 0.950 . S
C1032 C1033 1.386 . S
C1032 C1034 1.391 . S
C1033 C1032 1.386 . S
C1033 C1037 1.393 . S
C1034 H1026 0.950 . S
C1034 C1032 1.391 . S
C1034 C1035 1.400 . S
C1035 C1034 1.400 . S
C1035 C1036 1.398 . S
C1035 C1041 1.491 . S
C1036 H1027 0.950 . S
C1036 C1035 1.398 . S
C1036 C1037 1.391 . S
C1037 H1025 0.950 . S
C1037 C1033 1.393 . S
C1037 C1036 1.391 . S
C1038 H1028 0.950 . S
C1038 C1039 1.386 . S
C1038 C1040 1.391 . S
C1039 C1038 1.386 . S
C1039 C1043 1.393 . S
C1040 H1029 0.950 . S
C1040 C1038 1.391 . S
C1040 C1041 1.400 . S
C1041 C1035 1.491 . S
C1041 C1040 1.400 . S
C1041 C1042 1.398 . S
C1042 H1030 0.950 . S
C1042 C1041 1.398 . S
C1042 C1043 1.391 . S
C1043 H1031 0.950 . S
C1043 C1039 1.393 . S
C1043 C1042 1.391 . S
H1044 C1052 0.950 . S
H1045 C1057 0.950 . S
H1046 C1054 0.950 . S
H1047 C1056 0.950 . S
H1048 C1058 0.950 . S
H1049 C1060 0.950 . S
H1050 C1062 0.950 . S
H1051 C1063 0.950 . S
C1052 H1044 0.950 . S
C1052 C1053 1.386 . S
C1052 C1054 1.391 . S
C1053 C1052 1.386 . S
C1053 C1057 1.393 . S
C1054 H1046 0.950 . S
C1054 C1052 1.391 . S
C1054 C1055 1.400 . S
C1055 C1054 1.400 . S
C1055 C1056 1.398 . S
C1055 C1061 1.491 . S
C1056 H1047 0.950 . S
C1056 C1055 1.398 . S
C1056 C1057 1.391 . S
C1057 H1045 0.950 . S
C1057 C1053 1.393 . S
C1057 C1056 1.391 . S
C1058 H1048 0.950 . S
C1058 C1059 1.386 . S
C1058 C1060 1.391 . S
C1059 C1058 1.386 . S
C1059 C1063 1.393 . S
C1060 H1049 0.950 . S
C1060 C1058 1.391 . S
C1060 C1061 1.400 . S
C1061 C1055 1.491 . S
C1061 C1060 1.400 . S
C1061 C1062 1.398 . S
C1062 H1050 0.950 . S
C1062 C1061 1.398 . S
C1062 C1063 1.391 . S
C1063 H1051 0.950 . S
C1063 C1059 1.393 . S
C1063 C1062 1.391 . S
H1064 C1072 0.950 . S
H1065 C1077 0.950 . S
H1066 C1074 0.950 . S
H1067 C1076 0.950 . S
H1068 C1078 0.950 . S
H1069 C1080 0.950 . S
H1070 C1082 0.950 . S
H1071 C1083 0.950 . S
C1072 H1064 0.950 . S
C1072 C1073 1.386 . S
C1072 C1074 1.391 . S
C1073 C1072 1.386 . S
C1073 C1077 1.393 . S
C1074 H1066 0.950 . S
C1074 C1072 1.391 . S
C1074 C1075 1.400 . S
C1075 C1074 1.400 . S
C1075 C1076 1.398 . S
C1075 C1081 1.491 . S
C1076 H1067 0.950 . S
C1076 C1075 1.398 . S
C1076 C1077 1.391 . S
C1077 H1065 0.950 . S
C1077 C1073 1.393 . S
C1077 C1076 1.391 . S
C1078 H1068 0.950 . S
C1078 C1079 1.386 . S
C1078 C1080 1.391 . S
C1079 C1078 1.386 . S
C1079 C1083 1.393 . S
C1080 H1069 0.950 . S
C1080 C1078 1.391 . S
C1080 C1081 1.400 . S
C1081 C1075 1.491 . S
C1081 C1080 1.400 . S
C1081 C1082 1.398 . S
C1082 H1070 0.950 . S
C1082 C1081 1.398 . S
C1082 C1083 1.391 . S
C1083 H1071 0.950 . S
C1083 C1079 1.393 . S
C1083 C1082 1.391 . S
H1084 C1092 0.950 . S
H1085 C1097 0.950 . S
H1086 C1094 0.950 . S
H1087 C1096 0.950 . S
H1088 C1098 0.950 . S
H1089 C1100 0.950 . S
H1090 C1102 0.950 . S
H1091 C1103 0.950 . S
C1092 H1084 0.950 . S
C1092 C1093 1.386 . S
C1092 C1094 1.391 . S
C1093 C1092 1.386 . S
C1093 C1097 1.393 . S
C1094 H1086 0.950 . S
C1094 C1092 1.391 . S
C1094 C1095 1.400 . S
C1095 C1094 1.400 . S
C1095 C1096 1.398 . S
C1095 C1101 1.491 . S
C1096 H1087 0.950 . S
C1096 C1095 1.398 . S
C1096 C1097 1.391 . S
C1097 H1085 0.950 . S
C1097 C1093 1.393 . S
C1097 C1096 1.391 . S
C1098 H1088 0.950 . S
C1098 C1099 1.386 . S
C1098 C1100 1.391 . S
C1099 C1098 1.386 . S
C1099 C1103 1.393 . S
C1100 H1089 0.950 . S
C1100 C1098 1.391 . S
C1100 C1101 1.400 . S
C1101 C1095 1.491 . S
C1101 C1100 1.400 . S
C1101 C1102 1.398 . S
C1102 H1090 0.950 . S
C1102 C1101 1.398 . S
C1102 C1103 1.391 . S
C1103 H1091 0.950 . S
C1103 C1099 1.393 . S
C1103 C1102 1.391 . S
H1104 C1112 0.950 . S
H1105 C1117 0.950 . S
H1106 C1114 0.950 . S
H1107 C1116 0.950 . S
H1108 C1118 0.950 . S
H1109 C1120 0.950 . S
H1110 C1122 0.950 . S
H1111 C1123 0.950 . S
C1112 H1104 0.950 . S
C1112 C1113 1.386 . S
C1112 C1114 1.391 . S
C1113 C1112 1.386 . S
C1113 C1117 1.393 . S
C1114 H1106 0.950 . S
C1114 C1112 1.391 . S
C1114 C1115 1.400 . S
C1115 C1114 1.400 . S
C1115 C1116 1.398 . S
C1115 C1121 1.491 . S
C1116 H1107 0.950 . S
C1116 C1115 1.398 . S
C1116 C1117 1.391 . S
C1117 H1105 0.950 . S
C1117 C1113 1.393 . S
C1117 C1116 1.391 . S
C1118 H1108 0.950 . S
C1118 C1119 1.386 . S
C1118 C1120 1.391 . S
C1119 C1118 1.386 . S
C1119 C1123 1.393 . S
C1120 H1109 0.950 . S
C1120 C1118 1.391 . S
C1120 C1121 1.400 . S
C1121 C1115 1.491 . S
C1121 C1120 1.400 . S
C1121 C1122 1.398 . S
C1122 H1110 0.950 . S
C1122 C1121 1.398 . S
C1122 C1123 1.391 . S
C1123 H1111 0.950 . S
C1123 C1119 1.393 . S
C1123 C1122 1.391 . S
H1124 C1132 0.950 . S
H1125 C1137 0.950 . S
H1126 C1134 0.950 . S
H1127 C1136 0.950 . S
H1128 C1138 0.950 . S
H1129 C1140 0.950 . S
H1130 C1142 0.950 . S
H1131 C1143 0.950 . S
C1132 H1124 0.950 . S
C1132 C1133 1.386 . S
C1132 C1134 1.391 . S
C1133 C1132 1.386 . S
C1133 C1137 1.393 . S
C1134 H1126 0.950 . S
C1134 C1132 1.391 . S
C1134 C1135 1.400 . S
C1135 C1134 1.400 . S
C1135 C1136 1.398 . S
C1135 C1141 1.491 . S
C1136 H1127 0.950 . S
C1136 C1135 1.398 . S
C1136 C1137 1.391 . S
C1137 H1125 0.950 . S
C1137 C1133 1.393 . S
C1137 C1136 1.391 . S
C1138 H1128 0.950 . S
C1138 C1139 1.386 . S
C1138 C1140 1.391 . S
C1139 C1138 1.386 . S
C1139 C1143 1.393 . S
C1140 H1129 0.950 . S
C1140 C1138 1.391 . S
C1140 C1141 1.400 . S
C1141 C1135 1.491 . S
C1141 C1140 1.400 . S
C1141 C1142 1.398 . S
C1142 H1130 0.950 . S
C1142 C1141 1.398 . S
C1142 C1143 1.391 . S
C1143 H1131 0.950 . S
C1143 C1139 1.393 . S
C1143 C1142 1.391 . S
H1144 C1152 0.950 . S
H1145 C1157 0.950 . S
H1146 C1154 0.950 . S
H1147 C1156 0.950 . S
H1148 C1158 0.950 . S
H1149 C1160 0.950 . S
H1150 C1162 0.950 . S
H1151 C1163 0.950 . S
C1152 H1144 0.950 . S
C1152 C1153 1.386 . S
C1152 C1154 1.391 . S
C1153 C1152 1.386 . S
C1153 C1157 1.393 . S
C1154 H1146 0.950 . S
C1154 C1152 1.391 . S
C1154 C1155 1.400 . S
C1155 C1154 1.400 . S
C1155 C1156 1.398 . S
C1155 C1161 1.491 . S
C1156 H1147 0.950 . S
C1156 C1155 1.398 . S
C1156 C1157 1.391 . S
C1157 H1145 0.950 . S
C1157 C1153 1.393 . S
C1157 C1156 1.391 . S
C1158 H1148 0.950 . S
C1158 C1159 1.386 . S
C1158 C1160 1.391 . S
C1159 C1158 1.386 . S
C1159 C1163 1.393 . S
C1160 H1149 0.950 . S
C1160 C1158 1.391 . S
C1160 C1161 1.400 . S
C1161 C1155 1.491 . S
C1161 C1160 1.400 . S
C1161 C1162 1.398 . S
C1162 H1150 0.950 . S
C1162 C1161 1.398 . S
C1162 C1163 1.391 . S
C1163 H1151 0.950 . S
C1163 C1159 1.393 . S
C1163 C1162 1.391 . S
H1164 C1172 0.950 . S
H1165 C1177 0.950 . S
H1166 C1174 0.950 . S
H1167 C1176 0.950 . S
H1168 C1178 0.950 . S
H1169 C1180 0.950 . S
H1170 C1182 0.950 . S
H1171 C1183 0.950 . S
C1172 H1164 0.950 . S
C1172 C1173 1.386 . S
C1172 C1174 1.391 . S
C1173 C1172 1.386 . S
C1173 C1177 1.393 . S
C1174 H1166 0.950 . S
C1174 C1172 1.391 . S
C1174 C1175 1.400 . S
C1175 C1174 1.400 . S
C1175 C1176 1.398 . S
C1175 C1181 1.491 . S
C1176 H1167 0.950 . S
C1176 C1175 1.398 . S
C1176 C1177 1.391 . S
C1177 H1165 0.950 . S
C1177 C1173 1.393 . S
C1177 C1176 1.391 . S
C1178 H1168 0.950 . S
C1178 C1179 1.386 . S
C1178 C1180 1.391 . S
C1179 C1178 1.386 . S
C1179 C1183 1.393 . S
C1180 H1169 0.950 . S
C1180 C1178 1.391 . S
C1180 C1181 1.400 . S
C1181 C1175 1.491 . S
C1181 C1180 1.400 . S
C1181 C1182 1.398 . S
C1182 H1170 0.950 . S
C1182 C1181 1.398 . S
C1182 C1183 1.391 . S
C1183 H1171 0.950 . S
C1183 C1179 1.393 . S
C1183 C1182 1.391 . S
H1184 C1192 0.950 . S
H1185 C1197 0.950 . S
H1186 C1194 0.950 . S
H1187 C1196 0.950 . S
H1188 C1198 0.950 . S
H1189 C1200 0.950 . S
H1190 C1202 0.950 . S
H1191 C1203 0.950 . S
C1192 H1184 0.950 . S
C1192 C1193 1.386 . S
C1192 C1194 1.391 . S
C1193 C1192 1.386 . S
C1193 C1197 1.393 . S
C1194 H1186 0.950 . S
C1194 C1192 1.391 . S
C1194 C1195 1.400 . S
C1195 C1194 1.400 . S
C1195 C1196 1.398 . S
C1195 C1201 1.491 . S
C1196 H1187 0.950 . S
C1196 C1195 1.398 . S
C1196 C1197 1.391 . S
C1197 H1185 0.950 . S
C1197 C1193 1.393 . S
C1197 C1196 1.391 . S
C1198 H1188 0.950 . S
C1198 C1199 1.386 . S
C1198 C1200 1.391 . S
C1199 C1198 1.386 . S
C1199 C1203 1.393 . S
C1200 H1189 0.950 . S
C1200 C1198 1.391 . S
C1200 C1201 1.400 . S
C1201 C1195 1.491 . S
C1201 C1200 1.400 . S
C1201 C1202 1.398 . S
C1202 H1190 0.950 . S
C1202 C1201 1.398 . S
C1202 C1203 1.391 . S
C1203 H1191 0.950 . S
C1203 C1199 1.393 . S
C1203 C1202 1.391 . S
H1204 C1212 0.950 . S
H1205 C1217 0.950 . S
H1206 C1214 0.950 . S
H1207 C1216 0.950 . S
H1208 C1218 0.950 . S
H1209 C1220 0.950 . S
H1210 C1222 0.950 . S
H1211 C1223 0.950 . S
C1212 H1204 0.950 . S
C1212 C1213 1.386 . S
C1212 C1214 1.391 . S
C1213 C1212 1.386 . S
C1213 C1217 1.393 . S
C1214 H1206 0.950 . S
C1214 C1212 1.391 . S
C1214 C1215 1.400 . S
C1215 C1214 1.400 . S
C1215 C1216 1.398 . S
C1215 C1221 1.491 . S
C1216 H1207 0.950 . S
C1216 C1215 1.398 . S
C1216 C1217 1.391 . S
C1217 H1205 0.950 . S
C1217 C1213 1.393 . S
C1217 C1216 1.391 . S
C1218 H1208 0.950 . S
C1218 C1219 1.386 . S
C1218 C1220 1.391 . S
C1219 C1218 1.386 . S
C1219 C1223 1.393 . S
C1220 H1209 0.950 . S
C1220 C1218 1.391 . S
C1220 C1221 1.400 . S
C1221 C1215 1.491 . S
C1221 C1220 1.400 . S
C1221 C1222 1.398 . S
C1222 H1210 0.950 . S
C1222 C1221 1.398 . S
C1222 C1223 1.391 . S
C1223 H1211 0.950 . S
C1223 C1219 1.393 . S
C1223 C1222 1.391 . S
H1224 C1232 0.950 . S
H1225 C1237 0.950 . S
H1226 C1234 0.950 . S
H1227 C1236 0.950 . S
H1228 C1238 0.950 . S
H1229 C1240 0.950 . S
H1230 C1242 0.950 . S
H1231 C1243 0.950 . S
C1232 H1224 0.950 . S
C1232 C1233 1.386 . S
C1232 C1234 1.391 . S
C1233 C1232 1.386 . S
C1233 C1237 1.393 . S
C1234 H1226 0.950 . S
C1234 C1232 1.391 . S
C1234 C1235 1.400 . S
C1235 C1234 1.400 . S
C1235 C1236 1.398 . S
C1235 C1241 1.491 . S
C1236 H1227 0.950 . S
C1236 C1235 1.398 . S
C1236 C1237 1.391 . S
C1237 H1225 0.950 . S
C1237 C1233 1.393 . S
C1237 C1236 1.391 . S
C1238 H1228 0.950 . S
C1238 C1239 1.386 . S
C1238 C1240 1.391 . S
C1239 C1238 1.386 . S
C1239 C1243 1.393 . S
C1240 H1229 0.950 . S
C1240 C1238 1.391 . S
C1240 C1241 1.400 . S
C1241 C1235 1.491 . S
C1241 C1240 1.400 . S
C1241 C1242 1.398 . S
C1242 H1230 0.950 . S
C1242 C1241 1.398 . S
C1242 C1243 1.391 . S
C1243 H1231 0.950 . S
C1243 C1239 1.393 . S
C1243 C1242 1.391 . S
H1244 C1252 0.950 . S
H1245 C1257 0.950 . S
H1246 C1254 0.950 . S
H1247 C1256 0.950 . S
H1248 C1258 0.950 . S
H1249 C1260 0.950 . S
H1250 C1262 0.950 . S
H1251 C1263 0.950 . S
C1252 H1244 0.950 . S
C1252 C1253 1.386 . S
C1252 C1254 1.391 . S
C1253 C1252 1.386 . S
C1253 C1257 1.393 . S
C1254 H1246 0.950 . S
C1254 C1252 1.391 . S
C1254 C1255 1.400 . S
C1255 C1254 1.400 . S
C1255 C1256 1.398 . S
C1255 C1261 1.491 . S
C1256 H1247 0.950 . S
C1256 C1255 1.398 . S
C1256 C1257 1.391 . S
C1257 H1245 0.950 . S
C1257 C1253 1.393 . S
C1257 C1256 1.391 . S
C1258 H1248 0.950 . S
C1258 C1259 1.386 . S
C1258 C1260 1.391 . S
C1259 C1258 1.386 . S
C1259 C1263 1.393 . S
C1260 H1249 0.950 . S
C1260 C1258 1.391 . S
C1260 C1261 1.400 . S
C1261 C1255 1.491 . S
C1261 C1260 1.400 . S
C1261 C1262 1.398 . S
C1262 H1250 0.950 . S
C1262 C1261 1.398 . S
C1262 C1263 1.391 . S
C1263 H1251 0.950 . S
C1263 C1259 1.393 . S
C1263 C1262 1.391 . S
H1264 C1272 0.950 . S
H1265 C1277 0.950 . S
H1266 C1274 0.950 . S
H1267 C1276 0.950 . S
H1268 C1278 0.950 . S
H1269 C1280 0.950 . S
H1270 C1282 0.950 . S
H1271 C1283 0.950 . S
C1272 H1264 0.950 . S
C1272 C1273 1.386 . S
C1272 C1274 1.391 . S
C1273 C1272 1.386 . S
C1273 C1277 1.393 . S
C1274 H1266 0.950 . S
C1274 C1272 1.391 . S
C1274 C1275 1.400 . S
C1275 C1274 1.400 . S
C1275 C1276 1.398 . S
C1275 C1281 1.491 . S
C1276 H1267 0.950 . S
C1276 C1275 1.398 . S
C1276 C1277 1.391 . S
C1277 H1265 0.950 . S
C1277 C1273 1.393 . S
C1277 C1276 1.391 . S
C1278 H1268 0.950 . S
C1278 C1279 1.386 . S
C1278 C1280 1.391 . S
C1279 C1278 1.386 . S
C1279 C1283 1.393 . S
C1280 H1269 0.950 . S
C1280 C1278 1.391 . S
C1280 C1281 1.400 . S
C1281 C1275 1.491 . S
C1281 C1280 1.400 . S
C1281 C1282 1.398 . S
C1282 H1270 0.950 . S
C1282 C1281 1.398 . S
C1282 C1283 1.391 . S
C1283 H1271 0.950 . S
C1283 C1279 1.393 . S
C1283 C1282 1.391 . S
H1284 C1292 0.950 . S
H1285 C1297 0.950 . S
H1286 C1294 0.950 . S
H1287 C1296 0.950 . S
H1288 C1298 0.950 . S
H1289 C1300 0.950 . S
H1290 C1302 0.950 . S
H1291 C1303 0.950 . S
C1292 H1284 0.950 . S
C1292 C1293 1.386 . S
C1292 C1294 1.391 . S
C1293 C1292 1.386 . S
C1293 C1297 1.393 . S
C1294 H1286 0.950 . S
C1294 C1292 1.391 . S
C1294 C1295 1.400 . S
C1295 C1294 1.400 . S
C1295 C1296 1.398 . S
C1295 C1301 1.491 . S
C1296 H1287 0.950 . S
C1296 C1295 1.398 . S
C1296 C1297 1.391 . S
C1297 H1285 0.950 . S
C1297 C1293 1.393 . S
C1297 C1296 1.391 . S
C1298 H1288 0.950 . S
C1298 C1299 1.386 . S
C1298 C1300 1.391 . S
C1299 C1298 1.386 . S
C1299 C1303 1.393 . S
C1300 H1289 0.950 . S
C1300 C1298 1.391 . S
C1300 C1301 1.400 . S
C1301 C1295 1.491 . S
C1301 C1300 1.400 . S
C1301 C1302 1.398 . S
C1302 H1290 0.950 . S
C1302 C1301 1.398 . S
C1302 C1303 1.391 . S
C1303 H1291 0.950 . S
C1303 C1299 1.393 . S
C1303 C1302 1.391 . S
H1304 C1312 0.950 . S
H1305 C1317 0.950 . S
H1306 C1314 0.950 . S
H1307 C1316 0.950 . S
H1308 C1318 0.950 . S
H1309 C1320 0.950 . S
H1310 C1322 0.950 . S
H1311 C1323 0.950 . S
C1312 H1304 0.950 . S
C1312 C1313 1.386 . S
C1312 C1314 1.391 . S
C1313 C1312 1.386 . S
C1313 C1317 1.393 . S
C1314 H1306 0.950 . S
C1314 C1312 1.391 . S
C1314 C1315 1.400 . S
C1315 C1314 1.400 . S
C1315 C1316 1.398 . S
C1315 C1321 1.491 . S
C1316 H1307 0.950 . S
C1316 C1315 1.398 . S
C1316 C1317 1.391 . S
C1317 H1305 0.950 . S
C1317 C1313 1.393 . S
C1317 C1316 1.391 . S
C1318 H1308 0.950 . S
C1318 C1319 1.386 . S
C1318 C1320 1.391 . S
C1319 C1318 1.386 . S
C1319 C1323 1.393 . S
C1320 H1309 0.950 . S
C1320 C1318 1.391 . S
C1320 C1321 1.400 . S
C1321 C1315 1.491 . S
C1321 C1320 1.400 . S
C1321 C1322 1.398 . S
C1322 H1310 0.950 . S
C1322 C1321 1.398 . S
C1322 C1323 1.391 . S
C1323 H1311 0.950 . S
C1323 C1319 1.393 . S
C1323 C1322 1.391 . S
H1324 C1332 0.950 . S
H1325 C1337 0.950 . S
H1326 C1334 0.950 . S
H1327 C1336 0.950 . S
H1328 C1338 0.950 . S
H1329 C1340 0.950 . S
H1330 C1342 0.950 . S
H1331 C1343 0.950 . S
C1332 H1324 0.950 . S
C1332 C1333 1.386 . S
C1332 C1334 1.391 . S
C1333 C1332 1.386 . S
C1333 C1337 1.393 . S
C1334 H1326 0.950 . S
C1334 C1332 1.391 . S
C1334 C1335 1.400 . S
C1335 C1334 1.400 . S
C1335 C1336 1.398 . S
C1335 C1341 1.491 . S
C1336 H1327 0.950 . S
C1336 C1335 1.398 . S
C1336 C1337 1.391 . S
C1337 H1325 0.950 . S
C1337 C1333 1.393 . S
C1337 C1336 1.391 . S
C1338 H1328 0.950 . S
C1338 C1339 1.386 . S
C1338 C1340 1.391 . S
C1339 C1338 1.386 . S
C1339 C1343 1.393 . S
C1340 H1329 0.950 . S
C1340 C1338 1.391 . S
C1340 C1341 1.400 . S
C1341 C1335 1.491 . S
C1341 C1340 1.400 . S
C1341 C1342 1.398 . S
C1342 H1330 0.950 . S
C1342 C1341 1.398 . S
C1342 C1343 1.391 . S
C1343 H1331 0.950 . S
C1343 C1339 1.393 . S
C1343 C1342 1.391 . S
H1344 C1352 0.950 . S
H1345 C1357 0.950 . S
H1346 C1354 0.950 . S
H1347 C1356 0.950 . S
H1348 C1358 0.950 . S
H1349 C1360 0.950 . S
H1350 C1362 0.950 . S
H1351 C1363 0.950 . S
C1352 H1344 0.950 . S
C1352 C1353 1.386 . S
C1352 C1354 1.391 . S
C1353 C1352 1.386 . S
C1353 C1357 1.393 . S
C1354 H1346 0.950 . S
C1354 C1352 1.391 . S
C1354 C1355 1.400 . S
C1355 C1354 1.400 . S
C1355 C1356 1.398 . S
C1355 C1361 1.491 . S
C1356 H1347 0.950 . S
C1356 C1355 1.398 . S
C1356 C1357 1.391 . S
C1357 H1345 0.950 . S
C1357 C1353 1.393 . S
C1357 C1356 1.391 . S
C1358 H1348 0.950 . S
C1358 C1359 1.386 . S
C1358 C1360 1.391 . S
C1359 C1358 1.386 . S
C1359 C1363 1.393 . S
C1360 H1349 0.950 . S
C1360 C1358 1.391 . S
C1360 C1361 1.400 . S
C1361 C1355 1.491 . S
C1361 C1360 1.400 . S
C1361 C1362 1.398 . S
C1362 H1350 0.950 . S
C1362 C1361 1.398 . S
C1362 C1363 1.391 . S
C1363 H1351 0.950 . S
C1363 C1359 1.393 . S
C1363 C1362 1.391 . S
H1364 C1372 0.950 . S
H1365 C1377 0.950 . S
H1366 C1374 0.950 . S
H1367 C1376 0.950 . S
H1368 C1378 0.950 . S
H1369 C1380 0.950 . S
H1370 C1382 0.950 . S
H1371 C1383 0.950 . S
C1372 H1364 0.950 . S
C1372 C1373 1.386 . S
C1372 C1374 1.391 . S
C1373 C1372 1.386 . S
C1373 C1377 1.393 . S
C1374 H1366 0.950 . S
C1374 C1372 1.391 . S
C1374 C1375 1.400 . S
C1375 C1374 1.400 . S
C1375 C1376 1.398 . S
C1375 C1381 1.491 . S
C1376 H1367 0.950 . S
C1376 C1375 1.398 . S
C1376 C1377 1.391 . S
C1377 H1365 0.950 . S
C1377 C1373 1.393 . S
C1377 C1376 1.391 . S
C1378 H1368 0.950 . S
C1378 C1379 1.386 . S
C1378 C1380 1.391 . S
C1379 C1378 1.386 . S
C1379 C1383 1.393 . S
C1380 H1369 0.950 . S
C1380 C1378 1.391 . S
C1380 C1381 1.400 . S
C1381 C1375 1.491 . S
C1381 C1380 1.400 . S
C1381 C1382 1.398 . S
C1382 H1370 0.950 . S
C1382 C1381 1.398 . S
C1382 C1383 1.391 . S
C1383 H1371 0.950 . S
C1383 C1379 1.393 . S
C1383 C1382 1.391 . S
H1384 C1392 0.950 . S
H1385 C1397 0.950 . S
H1386 C1394 0.950 . S
H1387 C1396 0.950 . S
H1388 C1398 0.950 . S
H1389 C1400 0.950 . S
H1390 C1402 0.950 . S
H1391 C1403 0.950 . S
C1392 H1384 0.950 . S
C1392 C1393 1.386 . S
C1392 C1394 1.391 . S
C1393 C1392 1.386 . S
C1393 C1397 1.393 . S
C1394 H1386 0.950 . S
C1394 C1392 1.391 . S
C1394 C1395 1.400 . S
C1395 C1394 1.400 . S
C1395 C1396 1.398 . S
C1395 C1401 1.491 . S
C1396 H1387 0.950 . S
C1396 C1395 1.398 . S
C1396 C1397 1.391 . S
C1397 H1385 0.950 . S
C1397 C1393 1.393 . S
C1397 C1396 1.391 . S
C1398 H1388 0.950 . S
C1398 C1399 1.386 . S
C1398 C1400 1.391 . S
C1399 C1398 1.386 . S
C1399 C1403 1.393 . S
C1400 H1389 0.950 . S
C1400 C1398 1.391 . S
C1400 C1401 1.400 . S
C1401 C1395 1.491 . S
C1401 C1400 1.400 . S
C1401 C1402 1.398 . S
C1402 H1390 0.950 . S
C1402 C1401 1.398 . S
C1402 C1403 1.391 . S
C1403 H1391 0.950 . S
C1403 C1399 1.393 . S
C1403 C1402 1.391 . S
H1404 C1412 0.950 . S
H1405 C1417 0.950 . S
H1406 C1414 0.950 . S
H1407 C1416 0.950 . S
H1408 C1418 0.950 . S
H1409 C1420 0.950 . S
H1410 C1422 0.950 . S
H1411 C1423 0.950 . S
C1412 H1404 0.950 . S
C1412 C1413 1.386 . S
C1412 C1414 1.391 . S
C1413 C1412 1.386 . S
C1413 C1417 1.393 . S
C1414 H1406 0.950 . S
C1414 C1412 1.391 . S
C1414 C1415 1.400 . S
C1415 C1414 1.400 . S
C1415 C1416 1.398 . S
C1415 C1421 1.491 . S
C1416 H1407 0.950 . S
C1416 C1415 1.398 . S
C1416 C1417 1.391 . S
C1417 H1405 0.950 . S
C1417 C1413 1.393 . S
C1417 C1416 1.391 . S
C1418 H1408 0.950 . S
C1418 C1419 1.386 . S
C1418 C1420 1.391 . S
C1419 C1418 1.386 . S
C1419 C1423 1.393 . S
C1420 H1409 0.950 . S
C1420 C1418 1.391 . S
C1420 C1421 1.400 . S
C1421 C1415 1.491 . S
C1421 C1420 1.400 . S
C1421 C1422 1.398 . S
C1422 H1410 0.950 . S
C1422 C1421 1.398 . S
C1422 C1423 1.391 . S
C1423 H1411 0.950 . S
C1423 C1419 1.393 . S
C1423 C1422 1.391 . S
H1424 C1432 0.950 . S
H1425 C1437 0.950 . S
H1426 C1434 0.950 . S
H1427 C1436 0.950 . S
H1428 C1438 0.950 . S
H1429 C1440 0.950 . S
H1430 C1442 0.950 . S
H1431 C1443 0.950 . S
C1432 H1424 0.950 . S
C1432 C1433 1.386 . S
C1432 C1434 1.391 . S
C1433 C1432 1.386 . S
C1433 C1437 1.393 . S
C1434 H1426 0.950 . S
C1434 C1432 1.391 . S
C1434 C1435 1.400 . S
C1435 C1434 1.400 . S
C1435 C1436 1.398 . S
C1435 C1441 1.491 1_554 S
C1436 H1427 0.950 . S
C1436 C1435 1.398 . S
C1436 C1437 1.391 . S
C1437 H1425 0.950 . S
C1437 C1433 1.393 . S
C1437 C1436 1.391 . S
C1438 H1428 0.950 . S
C1438 C1439 1.386 . S
C1438 C1440 1.391 . S
C1439 C1438 1.386 . S
C1439 C1443 1.393 . S
C1440 H1429 0.950 . S
C1440 C1438 1.391 . S
C1440 C1441 1.400 . S
C1441 C1435 1.491 1_556 S
C1441 C1440 1.400 . S
C1441 C1442 1.398 . S
C1442 H1430 0.950 . S
C1442 C1441 1.398 . S
C1442 C1443 1.391 . S
C1443 H1431 0.950 . S
C1443 C1439 1.393 . S
C1443 C1442 1.391 . S
H1444 C1452 0.950 . S
H1445 C1457 0.950 . S
H1446 C1454 0.950 . S
H1447 C1456 0.950 . S
H1448 C1458 0.950 . S
H1449 C1460 0.950 . S
H1450 C1462 0.950 . S
H1451 C1463 0.950 . S
C1452 H1444 0.950 . S
C1452 C1453 1.386 . S
C1452 C1454 1.391 . S
C1453 C1452 1.386 . S
C1453 C1457 1.393 . S
C1454 H1446 0.950 . S
C1454 C1452 1.391 . S
C1454 C1455 1.400 . S
C1455 C1454 1.400 . S
C1455 C1456 1.398 . S
C1455 C1461 1.491 . S
C1456 H1447 0.950 . S
C1456 C1455 1.398 . S
C1456 C1457 1.391 . S
C1457 H1445 0.950 . S
C1457 C1453 1.393 . S
C1457 C1456 1.391 . S
C1458 H1448 0.950 . S
C1458 C1459 1.386 . S
C1458 C1460 1.391 . S
C1459 C1458 1.386 . S
C1459 C1463 1.393 . S
C1460 H1449 0.950 . S
C1460 C1458 1.391 . S
C1460 C1461 1.400 . S
C1461 C1455 1.491 . S
C1461 C1460 1.400 . S
C1461 C1462 1.398 . S
C1462 H1450 0.950 . S
C1462 C1461 1.398 . S
C1462 C1463 1.391 . S
C1463 H1451 0.950 . S
C1463 C1459 1.393 . S
C1463 C1462 1.391 . S
H1464 C1472 0.950 . S
H1465 C1477 0.950 . S
H1466 C1474 0.950 . S
H1467 C1476 0.950 . S
H1468 C1478 0.950 . S
H1469 C1480 0.950 . S
H1470 C1482 0.950 . S
H1471 C1483 0.950 . S
C1472 H1464 0.950 . S
C1472 C1473 1.386 . S
C1472 C1474 1.391 . S
C1473 C1472 1.386 . S
C1473 C1477 1.393 1_655 S
C1474 H1466 0.950 . S
C1474 C1472 1.391 . S
C1474 C1475 1.400 . S
C1475 C1474 1.400 . S
C1475 C1476 1.398 1_655 S
C1475 C1481 1.491 1_554 S
C1476 H1467 0.950 . S
C1476 C1475 1.398 1_455 S
C1476 C1477 1.391 . S
C1477 H1465 0.950 . S
C1477 C1473 1.393 1_455 S
C1477 C1476 1.391 . S
C1478 H1468 0.950 . S
C1478 C1479 1.386 1_455 S
C1478 C1480 1.391 . S
C1479 C1478 1.386 1_655 S
C1479 C1483 1.393 . S
C1480 H1469 0.950 . S
C1480 C1478 1.391 . S
C1480 C1481 1.400 1_455 S
C1481 C1475 1.491 1_556 S
C1481 C1480 1.400 1_655 S
C1481 C1482 1.398 . S
C1482 H1470 0.950 . S
C1482 C1481 1.398 . S
C1482 C1483 1.391 . S
C1483 H1471 0.950 . S
C1483 C1479 1.393 . S
C1483 C1482 1.391 . S
H1484 C1492 0.950 . S
H1485 C1497 0.950 . S
H1486 C1494 0.950 . S
H1487 C1496 0.950 . S
H1488 C1498 0.950 . S
H1489 C1500 0.950 . S
H1490 C1502 0.950 . S
H1491 C1503 0.950 . S
C1492 H1484 0.950 . S
C1492 C1493 1.386 . S
C1492 C1494 1.391 . S
C1493 C1492 1.386 . S
C1493 C1497 1.393 . S
C1494 H1486 0.950 . S
C1494 C1492 1.391 . S
C1494 C1495 1.400 . S
C1495 C1494 1.400 . S
C1495 C1496 1.398 . S
C1495 C1501 1.491 . S
C1496 H1487 0.950 . S
C1496 C1495 1.398 . S
C1496 C1497 1.391 . S
C1497 H1485 0.950 . S
C1497 C1493 1.393 . S
C1497 C1496 1.391 . S
C1498 H1488 0.950 . S
C1498 C1499 1.386 . S
C1498 C1500 1.391 . S
C1499 C1498 1.386 . S
C1499 C1503 1.393 . S
C1500 H1489 0.950 . S
C1500 C1498 1.391 . S
C1500 C1501 1.400 . S
C1501 C1495 1.491 . S
C1501 C1500 1.400 . S
C1501 C1502 1.398 . S
C1502 H1490 0.950 . S
C1502 C1501 1.398 . S
C1502 C1503 1.391 . S
C1503 H1491 0.950 . S
C1503 C1499 1.393 . S
C1503 C1502 1.391 . S
H1504 C1512 0.950 . S
H1505 C1517 0.950 . S
H1506 C1514 0.950 . S
H1507 C1516 0.950 . S
H1508 C1518 0.950 . S
H1509 C1520 0.950 . S
H1510 C1522 0.950 . S
H1511 C1523 0.950 . S
C1512 H1504 0.950 . S
C1512 C1513 1.386 . S
C1512 C1514 1.391 . S
C1513 C1512 1.386 . S
C1513 C1517 1.393 . S
C1514 H1506 0.950 . S
C1514 C1512 1.391 . S
C1514 C1515 1.400 . S
C1515 C1514 1.400 . S
C1515 C1516 1.398 . S
C1515 C1521 1.491 1_556 S
C1516 H1507 0.950 . S
C1516 C1515 1.398 . S
C1516 C1517 1.391 . S
C1517 H1505 0.950 . S
C1517 C1513 1.393 . S
C1517 C1516 1.391 . S
C1518 H1508 0.950 . S
C1518 C1519 1.386 . S
C1518 C1520 1.391 . S
C1519 C1518 1.386 . S
C1519 C1523 1.393 . S
C1520 H1509 0.950 . S
C1520 C1518 1.391 . S
C1520 C1521 1.400 . S
C1521 C1515 1.491 1_554 S
C1521 C1520 1.400 . S
C1521 C1522 1.398 . S
C1522 H1510 0.950 . S
C1522 C1521 1.398 . S
C1522 C1523 1.391 . S
C1523 H1511 0.950 . S
C1523 C1519 1.393 . S
C1523 C1522 1.391 . S
H1524 C1532 0.950 . S
H1525 C1537 0.950 . S
H1526 C1534 0.950 . S
H1527 C1536 0.950 . S
H1528 C1538 0.950 . S
H1529 C1540 0.950 . S
H1530 C1542 0.950 . S
H1531 C1543 0.950 . S
C1532 H1524 0.950 . S
C1532 C1533 1.386 . S
C1532 C1534 1.391 . S
C1533 C1532 1.386 . S
C1533 C1537 1.393 . S
C1534 H1526 0.950 . S
C1534 C1532 1.391 . S
C1534 C1535 1.400 . S
C1535 C1534 1.400 . S
C1535 C1536 1.398 . S
C1535 C1541 1.491 . S
C1536 H1527 0.950 . S
C1536 C1535 1.398 . S
C1536 C1537 1.391 . S
C1537 H1525 0.950 . S
C1537 C1533 1.393 . S
C1537 C1536 1.391 . S
C1538 H1528 0.950 . S
C1538 C1539 1.386 . S
C1538 C1540 1.391 . S
C1539 C1538 1.386 . S
C1539 C1543 1.393 . S
C1540 H1529 0.950 . S
C1540 C1538 1.391 . S
C1540 C1541 1.400 . S
C1541 C1535 1.491 . S
C1541 C1540 1.400 . S
C1541 C1542 1.398 . S
C1542 H1530 0.950 . S
C1542 C1541 1.398 . S
C1542 C1543 1.391 . S
C1543 H1531 0.950 . S
C1543 C1539 1.393 . S
C1543 C1542 1.391 . S
H1544 C1552 0.949 . S
H1545 C1557 0.950 . S
H1546 C1554 0.942 1_655 S
H1547 C1556 0.950 . S
H1548 C1558 0.950 . S
H1549 C1560 0.950 . S
H1550 C1562 0.950 1_655 S
H1551 C1563 0.950 1_655 S
C1552 H1544 0.949 . S
C1552 C1553 1.386 . S
C1552 C1554 1.391 . S
C1553 C1552 1.386 . S
C1553 C1557 1.393 . S
C1554 H1546 0.942 1_455 S
C1554 C1552 1.391 . S
C1554 C1555 1.400 . S
C1555 C1554 1.400 . S
C1555 C1556 1.398 . S
C1555 C1561 1.491 1_554 S
C1556 H1547 0.950 . S
C1556 C1555 1.398 . S
C1556 C1557 1.391 . S
C1557 H1545 0.950 . S
C1557 C1553 1.393 . S
C1557 C1556 1.391 . S
C1558 H1548 0.950 . S
C1558 C1559 1.386 . S
C1558 C1560 1.391 . S
C1559 C1558 1.386 . S
C1559 C1563 1.393 . S
C1560 H1549 0.950 . S
C1560 C1558 1.391 . S
C1560 C1561 1.400 . S
C1561 C1555 1.491 1_556 S
C1561 C1560 1.400 . S
C1561 C1562 1.398 . S
C1562 H1550 0.950 1_455 S
C1562 C1561 1.398 . S
C1562 C1563 1.391 . S
C1563 H1551 0.950 1_455 S
C1563 C1559 1.393 . S
C1563 C1562 1.391 . S
H1564 C1572 0.950 . S
H1565 C1577 0.950 . S
H1566 C1574 0.950 . S
H1567 C1576 0.950 . S
H1568 C1578 0.955 . S
H1569 C1580 0.963 . S
H1570 C1582 0.950 . S
H1571 C1583 0.950 . S
C1572 H1564 0.950 . S
C1572 C1573 1.386 . S
C1572 C1574 1.391 . S
C1573 C1572 1.386 . S
C1573 C1577 1.393 1_545 S
C1574 H1566 0.950 . S
C1574 C1572 1.391 . S
C1574 C1575 1.400 . S
C1575 C1574 1.400 . S
C1575 C1576 1.398 1_545 S
C1575 C1581 1.491 . S
C1576 H1567 0.950 . S
C1576 C1575 1.398 1_565 S
C1576 C1577 1.391 . S
C1577 H1565 0.950 . S
C1577 C1573 1.393 1_565 S
C1577 C1576 1.391 . S
C1578 H1568 0.955 . S
C1578 C1579 1.380 1_565 S
C1578 C1580 1.391 . S
C1579 C1578 1.380 1_545 S
C1579 C1583 1.393 . S
C1580 H1569 0.963 . S
C1580 C1578 1.391 . S
C1580 C1581 1.388 1_565 S
C1581 C1575 1.491 . S
C1581 C1580 1.388 1_545 S
C1581 C1582 1.398 . S
C1582 H1570 0.950 . S
C1582 C1581 1.398 . S
C1582 C1583 1.391 . S
C1583 H1571 0.950 . S
C1583 C1579 1.393 . S
C1583 C1582 1.391 . S
C953 C5 1.470 . S
C959 C418 1.468 . S
C973 C64 1.479 . S
C979 C241 1.469 . S
C993 C123 1.479 . S
C999 C300 1.469 . S
C1013 C182 1.472 . S
C1019 C359 1.480 . S
C1033 C477 1.480 . S
C1039 C890 1.473 . S
C1053 C713 1.468 . S
C1059 C536 1.469 . S
C1073 C595 1.474 . S
C1079 C772 1.480 . S
C1093 C654 1.469 . S
C1099 C831 1.468 . S
C1113 C52 1.600 . S
C1119 C564 1.599 . S
C1133 C111 1.597 . S
C1139 C623 1.592 . S
C1153 C682 1.599 . S
C1159 C170 1.601 . S
C1173 C229 1.596 . S
C1179 C505 1.591 . S
C1193 C288 1.601 . S
C1199 C918 1.598 . S
C1213 C741 1.596 . S
C1219 C347 1.600 . S
C1233 C800 1.599 . S
C1239 C406 1.599 . S
C1253 C859 1.599 . S
C1259 C465 1.598 . S
C1273 C92 1.592 . S
C1279 C524 1.597 . S
C1293 C151 1.591 . S
C1299 C583 1.597 . S
C1313 C642 1.597 . S
C1319 C210 1.592 . S
C1333 C33 1.591 . S
C1339 C701 1.596 . S
C1353 C760 1.595 . S
C1359 C446 1.591 . S
C1373 C819 1.601 . S
C1379 C269 1.599 . S
C1393 C328 1.593 . S
C1399 C878 1.598 . S
C1413 C387 1.592 . S
C1419 C937 1.598 . S
C1433 C3 1.653 . S
C1439 C239 1.659 . S
C1453 C298 1.650 . S
C1459 C62 1.661 . S
C1473 C121 1.654 . S
C1479 C357 1.659 . S
C1493 C416 1.648 . S
C1499 C180 1.663 . S
C1513 C475 1.653 . S
C1519 C711 1.658 . S
C1533 C770 1.663 . S
C1539 C534 1.650 . S
C1553 C829 1.648 . S
C1559 C593 1.663 . S
C1573 C888 1.663 . S
C1579 C652 1.648 . S
