# Generated by pormake.
# Topology atn, (4)-cn, num edge types: 1
# Building blocks:
#     Node 0, Type 0, BuildingBlock: QUQFOY_clean_sbu_1, # of connection points: 4
#     Node 1, Type 0, BuildingBlock: QUQFOY_clean_sbu_1, # of connection points: 4
#     Node 2, Type 0, BuildingBlock: QUQFOY_clean_sbu_1, # of connection points: 4
#     Node 3, Type 0, BuildingBlock: QUQFOY_clean_sbu_1, # of connection points: 4
#     Node 4, Type 0, BuildingBlock: QUQFOY_clean_sbu_1, # of connection points: 4
#     Node 5, Type 0, BuildingBlock: QUQFOY_clean_sbu_1, # of connection points: 4
#     Node 6, Type 0, BuildingBlock: QUQFOY_clean_sbu_1, # of connection points: 4
#     Node 7, Type 0, BuildingBlock: QUQFOY_clean_sbu_1, # of connection points: 4
#     Node 8, Type 0, BuildingBlock: QUQFOY_clean_sbu_1, # of connection points: 4
#     Node 9, Type 0, BuildingBlock: QUQFOY_clean_sbu_1, # of connection points: 4
#     Node 10, Type 0, BuildingBlock: QUQFOY_clean_sbu_1, # of connection points: 4
#     Node 11, Type 0, BuildingBlock: QUQFOY_clean_sbu_1, # of connection points: 4
#     Node 12, Type 0, BuildingBlock: QUQFOY_clean_sbu_1, # of connection points: 4
#     Node 13, Type 0, BuildingBlock: QUQFOY_clean_sbu_1, # of connection points: 4
#     Node 14, Type 0, BuildingBlock: QUQFOY_clean_sbu_1, # of connection points: 4
#     Node 15, Type 0, BuildingBlock: QUQFOY_clean_sbu_1, # of connection points: 4
#     Edge 16, Type (0, 0), BuildingBlock: EYOCIG_clean_linker_4, # of connection points: 2
#     Edge 17, Type (0, 0), BuildingBlock: EYOCIG_clean_linker_4, # of connection points: 2
#     Edge 18, Type (0, 0), BuildingBlock: EYOCIG_clean_linker_4, # of connection points: 2
#     Edge 19, Type (0, 0), BuildingBlock: EYOCIG_clean_linker_4, # of connection points: 2
#     Edge 20, Type (0, 0), BuildingBlock: EYOCIG_clean_linker_4, # of connection points: 2
#     Edge 21, Type (0, 0), BuildingBlock: EYOCIG_clean_linker_4, # of connection points: 2
#     Edge 22, Type (0, 0), BuildingBlock: EYOCIG_clean_linker_4, # of connection points: 2
#     Edge 23, Type (0, 0), BuildingBlock: EYOCIG_clean_linker_4, # of connection points: 2
#     Edge 24, Type (0, 0), BuildingBlock: EYOCIG_clean_linker_4, # of connection points: 2
#     Edge 25, Type (0, 0), BuildingBlock: EYOCIG_clean_linker_4, # of connection points: 2
#     Edge 26, Type (0, 0), BuildingBlock: EYOCIG_clean_linker_4, # of connection points: 2
#     Edge 27, Type (0, 0), BuildingBlock: EYOCIG_clean_linker_4, # of connection points: 2
#     Edge 28, Type (0, 0), BuildingBlock: EYOCIG_clean_linker_4, # of connection points: 2
#     Edge 29, Type (0, 0), BuildingBlock: EYOCIG_clean_linker_4, # of connection points: 2
#     Edge 30, Type (0, 0), BuildingBlock: EYOCIG_clean_linker_4, # of connection points: 2
#     Edge 31, Type (0, 0), BuildingBlock: EYOCIG_clean_linker_4, # of connection points: 2
#     Edge 32, Type (0, 0), BuildingBlock: EYOCIG_clean_linker_4, # of connection points: 2
#     Edge 33, Type (0, 0), BuildingBlock: EYOCIG_clean_linker_4, # of connection points: 2
#     Edge 34, Type (0, 0), BuildingBlock: EYOCIG_clean_linker_4, # of connection points: 2
#     Edge 35, Type (0, 0), BuildingBlock: EYOCIG_clean_linker_4, # of connection points: 2
#     Edge 36, Type (0, 0), BuildingBlock: EYOCIG_clean_linker_4, # of connection points: 2
#     Edge 37, Type (0, 0), BuildingBlock: EYOCIG_clean_linker_4, # of connection points: 2
#     Edge 38, Type (0, 0), BuildingBlock: EYOCIG_clean_linker_4, # of connection points: 2
#     Edge 39, Type (0, 0), BuildingBlock: EYOCIG_clean_linker_4, # of connection points: 2
#     Edge 40, Type (0, 0), BuildingBlock: EYOCIG_clean_linker_4, # of connection points: 2
#     Edge 41, Type (0, 0), BuildingBlock: EYOCIG_clean_linker_4, # of connection points: 2
#     Edge 42, Type (0, 0), BuildingBlock: EYOCIG_clean_linker_4, # of connection points: 2
#     Edge 43, Type (0, 0), BuildingBlock: EYOCIG_clean_linker_4, # of connection points: 2
#     Edge 44, Type (0, 0), BuildingBlock: EYOCIG_clean_linker_4, # of connection points: 2
#     Edge 45, Type (0, 0), BuildingBlock: EYOCIG_clean_linker_4, # of connection points: 2
#     Edge 46, Type (0, 0), BuildingBlock: EYOCIG_clean_linker_4, # of connection points: 2
#     Edge 47, Type (0, 0), BuildingBlock: EYOCIG_clean_linker_4, # of connection points: 2
# Relax obj value: 0.059
# Max RMSD: 0.084
# Mean RMSD: 0.084
data_MOF--net-atn--node1-QUQFOY_clean_sbu_1--edge1-EYOCIG_clean_linker_4
_symmetry_space_group_name_H-M    P1
_symmetry_Int_Tables_number       1
_symmetry_cell_setting            triclinic
loop_
_symmetry_equiv_pos_as_xyz
'x, y, z'
_cell_length_a     49.342446
_cell_length_b     49.333033
_cell_length_c     22.911187
_cell_angle_alpha  89.938049
_cell_angle_beta   90.040046
_cell_angle_gamma 89.991811
loop_
_atom_site_label
_atom_site_type_symbol
_atom_site_fract_x
_atom_site_fract_y
_atom_site_fract_z
_atom_type_partial_charge
O0 O 0.20575 0.37773 0.14695 0.0
Cd1 Cd 0.22092 0.39285 0.07056 0.0
Cd2 Cd 0.18997 0.35235 0.03123 0.0
O3 O 0.16946 0.35832 0.10822 0.0
O4 O 0.23575 0.43033 0.08643 0.0
O5 O 0.20001 0.42282 0.03024 0.0
C6 C 0.21629 0.43987 0.05482 0.0
C7 C 0.17874 0.35132 0.93346 0.0
C8 C 0.18333 0.36545 0.15251 0.0
C9 C 0.24663 0.34128 0.03798 0.0
O10 O 0.22361 0.33079 0.04598 0.0
O11 O 0.24972 0.3669 0.0348 0.0
O12 O 0.17046 0.33238 0.96818 0.0
O13 O 0.19084 0.37224 0.95537 0.0
O14 O 0.63743 0.20638 0.14684 0.0
Cd15 Cd 0.62257 0.22104 0.06972 0.0
Cd16 Cd 0.66349 0.19034 0.03147 0.0
O17 O 0.65782 0.17036 0.10934 0.0
O18 O 0.58486 0.23544 0.08443 0.0
O19 O 0.59308 0.19968 0.0289 0.0
C20 C 0.57572 0.21583 0.05278 0.0
C21 C 0.66463 0.17781 0.9344 0.0
C22 C 0.65017 0.18425 0.15315 0.0
C23 C 0.67385 0.24742 0.03727 0.0
O24 O 0.6846 0.22446 0.04467 0.0
O25 O 0.6482 0.25027 0.03451 0.0
O26 O 0.68373 0.17033 0.96954 0.0
O27 O 0.64358 0.18995 0.9556 0.0
O28 O 0.80991 0.63809 0.14692 0.0
Cd29 Cd 0.79507 0.62277 0.07049 0.0
Cd30 Cd 0.82542 0.66361 0.03065 0.0
O31 O 0.84567 0.65849 0.10827 0.0
O32 O 0.78106 0.58495 0.08611 0.0
O33 O 0.81653 0.59334 0.0298 0.0
C34 C 0.80063 0.57589 0.05425 0.0
C35 C 0.83783 0.66431 0.93346 0.0
C36 C 0.83194 0.65105 0.1525 0.0
C37 C 0.76829 0.67382 0.03778 0.0
O38 O 0.79127 0.68467 0.04397 0.0
O39 O 0.7655 0.64815 0.03566 0.0
O40 O 0.84524 0.68363 0.96803 0.0
O41 O 0.82577 0.64334 0.95529 0.0
O42 O 0.37791 0.80933 0.147 0.0
Cd43 Cd 0.39304 0.79495 0.07004 0.0
Cd44 Cd 0.35213 0.82547 0.03127 0.0
O45 O 0.35735 0.84527 0.10937 0.0
O46 O 0.43087 0.78083 0.08494 0.0
O47 O 0.42238 0.8166 0.02942 0.0
C48 C 0.43986 0.80055 0.05336 0.0
C49 C 0.35133 0.83806 0.93417 0.0
C50 C 0.3649 0.83129 0.15321 0.0
C51 C 0.34195 0.76832 0.0376 0.0
O52 O 0.33113 0.79129 0.04429 0.0
O53 O 0.36761 0.76553 0.03505 0.0
O54 O 0.33206 0.84545 0.9689 0.0
O55 O 0.37233 0.82597 0.95582 0.0
O56 O 0.20571 0.6378 0.9303 0.0
Cd57 Cd 0.22088 0.62275 1.00686 0.0
Cd58 Cd 0.19026 0.66354 0.04618 0.0
O59 O 0.16987 0.65806 0.96885 0.0
O60 O 0.23544 0.58516 0.99125 0.0
O61 O 0.19998 0.59302 0.04794 0.0
C62 C 0.21611 0.57582 0.02341 0.0
C63 C 0.17775 0.66499 0.14328 0.0
C64 C 0.18354 0.65053 0.92464 0.0
C65 C 0.24732 0.67397 0.03925 0.0
O66 O 0.22432 0.68471 0.03244 0.0
O67 O 0.2502 0.64832 0.04171 0.0
O68 O 0.17036 0.68403 0.1079 0.0
O69 O 0.18983 0.64385 0.12236 0.0
O70 O 0.3779 0.20572 0.92977 0.0
Cd71 Cd 0.39287 0.22094 1.0061 0.0
Cd72 Cd 0.35244 0.19005 0.04567 0.0
O73 O 0.3584 0.16951 0.96867 0.0
O74 O 0.43042 0.23555 0.99023 0.0
O75 O 0.42269 0.19995 0.04675 0.0
C76 C 0.43984 0.21607 0.02196 0.0
C77 C 0.35081 0.17853 0.14334 0.0
C78 C 0.36557 0.18333 0.92431 0.0
C79 C 0.34125 0.24679 0.03727 0.0
O80 O 0.33085 0.22364 0.03045 0.0
O81 O 0.36684 0.25 0.04056 0.0
O82 O 0.33207 0.1704 0.10801 0.0
O83 O 0.37184 0.1907 0.12216 0.0
O84 O 0.8093 0.37822 0.92996 0.0
Cd85 Cd 0.79486 0.39324 1.00687 0.0
Cd86 Cd 0.82527 0.3524 0.04559 0.0
O87 O 0.84531 0.35787 0.96777 0.0
O88 O 0.78067 0.43104 0.99176 0.0
O89 O 0.81651 0.42269 0.04713 0.0
C90 C 0.80044 0.44012 0.02306 0.0
C91 C 0.8371 0.35208 0.14308 0.0
C92 C 0.83137 0.36539 0.92384 0.0
C93 C 0.76834 0.34195 0.03884 0.0
O94 O 0.79131 0.33118 0.03194 0.0
O95 O 0.76552 0.36761 0.04179 0.0
O96 O 0.84501 0.3328 0.10892 0.0
O97 O 0.82493 0.37287 0.12068 0.0
O98 O 0.63763 0.80945 0.92993 0.0
Cd99 Cd 0.62253 0.7949 1.00676 0.0
Cd100 Cd 0.66341 0.82528 0.04553 0.0
O101 O 0.6578 0.84549 0.96788 0.0
O102 O 0.58481 0.78063 0.99129 0.0
O103 O 0.59295 0.81646 0.04668 0.0
C104 C 0.57561 0.80038 0.02245 0.0
C105 C 0.66394 0.83692 0.14308 0.0
C106 C 0.65033 0.8316 0.92389 0.0
C107 C 0.67376 0.76836 0.03922 0.0
O108 O 0.68457 0.79128 0.03175 0.0
O109 O 0.6481 0.76562 0.04225 0.0
O110 O 0.68316 0.84487 0.10878 0.0
O111 O 0.64308 0.82484 0.12081 0.0
O112 O 0.70548 0.87798 0.64687 0.0
Cd113 Cd 0.72066 0.8929 0.57036 0.0
Cd114 Cd 0.68988 0.85241 0.53094 0.0
O115 O 0.66946 0.8581 0.60813 0.0
O116 O 0.73496 0.93067 0.58532 0.0
O117 O 0.69951 0.92238 0.52882 0.0
C118 C 0.7155 0.93978 0.55314 0.0
C119 C 0.67773 0.85083 0.43358 0.0
C120 C 0.68324 0.86539 0.65241 0.0
C121 C 0.74675 0.8413 0.53937 0.0
O122 O 0.72359 0.83085 0.54556 0.0
O123 O 0.74994 0.86692 0.53652 0.0
O124 O 0.66996 0.832 0.46908 0.0
O125 O 0.68997 0.87188 0.45448 0.0
O126 O 0.13746 0.70589 0.64702 0.0
Cd127 Cd 0.12274 0.72076 0.57012 0.0
Cd128 Cd 0.1631 0.68993 0.53141 0.0
O129 O 0.15718 0.66966 0.60889 0.0
O130 O 0.08497 0.73513 0.58468 0.0
O131 O 0.09328 0.69936 0.52924 0.0
C132 C 0.07587 0.71544 0.55319 0.0
C133 C 0.16348 0.67853 0.4337 0.0
C134 C 0.14988 0.68357 0.65296 0.0
C135 C 0.17449 0.74659 0.53895 0.0
O136 O 0.18489 0.72344 0.54583 0.0
O137 O 0.14888 0.74982 0.53574 0.0
O138 O 0.18254 0.67015 0.46804 0.0
O139 O 0.14284 0.69095 0.45597 0.0
O140 O 0.30993 0.13752 0.64695 0.0
Cd141 Cd 0.29478 0.12274 0.57025 0.0
Cd142 Cd 0.32527 0.16369 0.53145 0.0
O143 O 0.34581 0.15779 0.60854 0.0
O144 O 0.28022 0.08509 0.58546 0.0
O145 O 0.31571 0.09309 0.52897 0.0
C146 C 0.29959 0.07582 0.55334 0.0
C147 C 0.33679 0.16489 0.43385 0.0
C148 C 0.33212 0.15018 0.65271 0.0
C149 C 0.26836 0.17421 0.53926 0.0
O150 O 0.29137 0.18489 0.54622 0.0
O151 O 0.26547 0.14858 0.53599 0.0
O152 O 0.34474 0.18389 0.46867 0.0
O153 O 0.32476 0.14387 0.45556 0.0
O154 O 0.87773 0.31017 0.64717 0.0
Cd155 Cd 0.89288 0.29513 0.57088 0.0
Cd156 Cd 0.85229 0.32572 0.53088 0.0
O157 O 0.85764 0.34607 0.60824 0.0
O158 O 0.93068 0.28103 0.58647 0.0
O159 O 0.92234 0.31645 0.52982 0.0
C160 C 0.93977 0.30056 0.55445 0.0
C161 C 0.85093 0.33812 0.43363 0.0
C162 C 0.86495 0.33231 0.65259 0.0
C163 C 0.84153 0.26869 0.53936 0.0
O164 O 0.83094 0.29182 0.54502 0.0
O165 O 0.86717 0.26563 0.53694 0.0
O166 O 0.83193 0.34566 0.46886 0.0
O167 O 0.87198 0.32594 0.45476 0.0
O168 O 0.70567 0.13815 0.43027 0.0
Cd169 Cd 0.72069 0.12278 0.5066 0.0
Cd170 Cd 0.69009 0.16341 0.54637 0.0
O171 O 0.66962 0.15791 0.46911 0.0
O172 O 0.73513 0.08514 0.49053 0.0
O173 O 0.69944 0.09291 0.54656 0.0
C174 C 0.71555 0.07573 0.52194 0.0
C175 C 0.67855 0.16373 0.644 0.0
C176 C 0.68339 0.1507 0.42479 0.0
C177 C 0.74688 0.17415 0.53996 0.0
O178 O 0.72391 0.18485 0.53249 0.0
O179 O 0.74979 0.14848 0.54246 0.0
O180 O 0.67049 0.18299 0.60982 0.0
O181 O 0.69069 0.14296 0.62156 0.0
O182 O 0.87792 0.70667 0.43014 0.0
Cd183 Cd 0.89301 0.72096 0.50719 0.0
Cd184 Cd 0.85253 0.69 0.54563 0.0
O185 O 0.8581 0.67029 0.46752 0.0
O186 O 0.93075 0.73537 0.49223 0.0
O187 O 0.92265 0.69924 0.54687 0.0
C188 C 0.93997 0.71547 0.52303 0.0
C189 C 0.85225 0.67793 0.643 0.0
C190 C 0.86534 0.68447 0.42376 0.0
C191 C 0.84148 0.74679 0.54039 0.0
O192 O 0.83093 0.72378 0.53261 0.0
O193 O 0.86712 0.74983 0.5432 0.0
O194 O 0.83307 0.66992 0.60861 0.0
O195 O 0.87296 0.6903 0.62085 0.0
O196 O 0.30941 0.87752 0.43022 0.0
Cd197 Cd 0.29466 0.89279 0.50674 0.0
Cd198 Cd 0.32574 0.85247 0.54618 0.0
O199 O 0.34572 0.85783 0.46836 0.0
O200 O 0.27987 0.93034 0.49086 0.0
O201 O 0.31577 0.92277 0.54653 0.0
C202 C 0.29944 0.93986 0.52213 0.0
C203 C 0.33757 0.85229 0.64366 0.0
C204 C 0.33162 0.8649 0.42432 0.0
C205 C 0.26901 0.84122 0.54008 0.0
O206 O 0.2921 0.83075 0.53285 0.0
O207 O 0.26583 0.86685 0.54259 0.0
O208 O 0.34568 0.83307 0.60953 0.0
O209 O 0.32523 0.87297 0.62121 0.0
O210 O 0.13748 0.30975 0.43014 0.0
Cd211 Cd 0.12243 0.29508 0.50701 0.0
Cd212 Cd 0.16352 0.32549 0.54555 0.0
O213 O 0.15766 0.34578 0.46811 0.0
O214 O 0.08464 0.2809 0.49191 0.0
O215 O 0.09299 0.31665 0.54741 0.0
C216 C 0.07556 0.30061 0.52334 0.0
C217 C 0.16493 0.33723 0.64302 0.0
C218 C 0.15013 0.33194 0.42411 0.0
C219 C 0.17364 0.26851 0.53933 0.0
O220 O 0.18446 0.29139 0.53141 0.0
O221 O 0.14799 0.2658 0.54257 0.0
O222 O 0.18394 0.34499 0.60799 0.0
O223 O 0.14378 0.32534 0.62155 0.0
C224 C 0.21111 0.5223 0.03678 0.0
C225 C 0.21277 0.54679 0.03165 0.0
C226 C 0.21118 0.49344 0.04244 0.0
C227 C 0.21296 0.46894 0.04722 0.0
C228 C 0.49339 0.21062 0.03393 0.0
C229 C 0.46889 0.21252 0.02939 0.0
C230 C 0.52225 0.21049 0.03937 0.0
C231 C 0.54674 0.21224 0.04443 0.0
C232 C 0.80628 0.49358 0.03569 0.0
C233 C 0.80428 0.4691 0.03095 0.0
C234 C 0.80632 0.52244 0.04121 0.0
C235 C 0.80439 0.54692 0.0461 0.0
C236 C 0.52214 0.80615 0.03458 0.0
C237 C 0.54662 0.80416 0.03002 0.0
C238 C 0.49328 0.80623 0.04003 0.0
C239 C 0.46881 0.80434 0.04503 0.0
C240 C 0.71008 0.02216 0.53398 0.0
C241 C 0.71198 0.04666 0.52942 0.0
C242 C 0.71004 0.99327 0.53954 0.0
C243 C 0.71186 0.96878 0.54469 0.0
C244 C 0.9935 0.70972 0.5351 0.0
C245 C 0.969 0.71167 0.5306 0.0
C246 C 0.02239 0.70972 0.54036 0.0
C247 C 0.04688 0.71165 0.54516 0.0
C248 C 0.30468 0.02231 0.53989 0.0
C249 C 0.30298 0.0468 0.54503 0.0
C250 C 0.30461 0.99344 0.53428 0.0
C251 C 0.30281 0.96893 0.52961 0.0
C252 C 0.0221 0.30634 0.53615 0.0
C253 C 0.04658 0.30441 0.53135 0.0
C254 C 0.99323 0.30631 0.54163 0.0
C255 C 0.96876 0.30434 0.54644 0.0
C256 C 0.28662 0.30673 0.03528 0.0
C257 C 0.26925 0.32362 0.03608 0.0
C258 C 0.30662 0.28674 0.03693 0.0
C259 C 0.32352 0.26938 0.03746 0.0
C260 C 0.72791 0.30787 0.03833 0.0
C261 C 0.74544 0.3246 0.03897 0.0
C262 C 0.70794 0.28785 0.03608 0.0
C263 C 0.69123 0.2703 0.03621 0.0
C264 C 0.72777 0.70784 0.03782 0.0
C265 C 0.74535 0.69114 0.03745 0.0
C266 C 0.70778 0.72785 0.04001 0.0
C267 C 0.69108 0.74543 0.04008 0.0
C268 C 0.2878 0.708 0.04004 0.0
C269 C 0.27018 0.69135 0.04005 0.0
C270 C 0.30788 0.72789 0.03783 0.0
C271 C 0.32464 0.7454 0.03733 0.0
C272 C 0.80692 0.78682 0.54245 0.0
C273 C 0.82385 0.76948 0.54195 0.0
C274 C 0.78683 0.80675 0.54039 0.0
C275 C 0.76939 0.82359 0.53959 0.0
C276 C 0.22906 0.80659 0.54153 0.0
C277 C 0.2464 0.82352 0.54126 0.0
C278 C 0.2091 0.78657 0.53943 0.0
C279 C 0.19222 0.76919 0.53883 0.0
C280 C 0.22791 0.20829 0.53942 0.0
C281 C 0.24552 0.19163 0.53896 0.0
C282 C 0.20778 0.22815 0.54129 0.0
C283 C 0.19097 0.24561 0.54088 0.0
C284 C 0.80716 0.22846 0.54074 0.0
C285 C 0.82396 0.24593 0.53979 0.0
C286 C 0.78715 0.20845 0.54263 0.0
C287 C 0.76968 0.19164 0.54183 0.0
C288 C 0.16427 0.34476 0.31728 0.0
C289 C 0.15825 0.3397 0.36682 0.0
C290 C 0.17032 0.35094 0.259 0.0
C291 C 0.1754 0.35711 0.20955 0.0
C292 C 0.6704 0.16542 0.31839 0.0
C293 C 0.67548 0.15916 0.3678 0.0
C294 C 0.66431 0.17161 0.26012 0.0
C295 C 0.65828 0.17662 0.21055 0.0
C296 C 0.85069 0.67229 0.31696 0.0
C297 C 0.85697 0.67709 0.36645 0.0
C298 C 0.84454 0.66613 0.25878 0.0
C299 C 0.83958 0.65969 0.20946 0.0
C300 C 0.34386 0.84964 0.318 0.0
C301 C 0.33907 0.85618 0.36731 0.0
C302 C 0.34998 0.84339 0.25985 0.0
C303 C 0.35638 0.8386 0.21045 0.0
C304 C 0.16425 0.67085 0.75973 0.0
C305 C 0.15814 0.67581 0.71018 0.0
C306 C 0.17045 0.66484 0.81804 0.0
C307 C 0.17561 0.65876 0.86751 0.0
C308 C 0.34507 0.16433 0.75944 0.0
C309 C 0.33999 0.15833 0.7099 0.0
C310 C 0.35118 0.17034 0.81777 0.0
C311 C 0.35728 0.17537 0.86728 0.0
C312 C 0.84368 0.35091 0.81705 0.0
C313 C 0.83885 0.35708 0.86657 0.0
C314 C 0.84986 0.3449 0.75881 0.0
C315 C 0.85628 0.34 0.70947 0.0
C316 C 0.66456 0.84426 0.81706 0.0
C317 C 0.65851 0.83929 0.86661 0.0
C318 C 0.67054 0.85048 0.75879 0.0
C319 C 0.67548 0.85683 0.70939 0.0
C320 C 0.84713 0.6723 0.75766 0.0
C321 C 0.84957 0.67493 0.70539 0.0
C322 C 0.84407 0.66944 0.81896 0.0
C323 C 0.84119 0.66704 0.87117 0.0
C324 C 0.34298 0.84734 0.75841 0.0
C325 C 0.34046 0.84971 0.7061 0.0
C326 C 0.34592 0.84434 0.81972 0.0
C327 C 0.34846 0.84144 0.8719 0.0
C328 C 0.17097 0.34259 0.75751 0.0
C329 C 0.16815 0.34012 0.70531 0.0
C330 C 0.17391 0.34557 0.8188 0.0
C331 C 0.17615 0.34826 0.87108 0.0
C332 C 0.67034 0.17165 0.82003 0.0
C333 C 0.66771 0.17448 0.87219 0.0
C334 C 0.67327 0.16868 0.75873 0.0
C335 C 0.67574 0.1663 0.70643 0.0
C336 C 0.84539 0.34419 0.31916 0.0
C337 C 0.8478 0.34148 0.37142 0.0
C338 C 0.84262 0.34708 0.2578 0.0
C339 C 0.84005 0.34947 0.2055 0.0
C340 C 0.6691 0.84219 0.25779 0.0
C341 C 0.66666 0.83974 0.2055 0.0
C342 C 0.67195 0.84498 0.31915 0.0
C343 C 0.67453 0.84753 0.37139 0.0
C344 C 0.16864 0.67327 0.319 0.0
C345 C 0.16617 0.67573 0.37128 0.0
C346 C 0.17161 0.67055 0.25767 0.0
C347 C 0.17435 0.66814 0.20544 0.0
C348 C 0.34207 0.17068 0.31929 0.0
C349 C 0.33964 0.168 0.37153 0.0
C350 C 0.34487 0.17349 0.25793 0.0
C351 C 0.34745 0.17573 0.20562 0.0
loop_
_geom_bond_atom_site_label_1
_geom_bond_atom_site_label_2
_geom_bond_distance
_geom_bond_site_symmetry_2
_ccdc_geom_bond_type
O0 Cd1 2.223 . S
O0 C8 1.315 . S
Cd1 O0 2.223 . S
Cd1 O4 2.297 . S
Cd1 O5 2.439 . S
Cd1 O11 2.240 . S
Cd2 O3 2.240 . S
Cd2 O10 2.223 . S
Cd2 O12 2.297 1_554 S
Cd2 O13 2.439 1_554 S
O3 Cd2 2.240 . S
O3 C8 1.279 . S
O4 Cd1 2.297 . S
O4 C6 1.247 . S
O5 Cd1 2.439 . S
O5 C6 1.208 . S
C6 O4 1.247 . S
C6 O5 1.208 . S
C7 O12 1.247 . S
C7 O13 1.208 . S
C8 O0 1.315 . S
C8 O3 1.279 . S
C9 O10 1.315 . S
C9 O11 1.279 . S
O10 Cd2 2.223 . S
O10 C9 1.315 . S
O11 Cd1 2.240 . S
O11 C9 1.279 . S
O12 Cd2 2.297 1_556 S
O12 C7 1.247 . S
O13 Cd2 2.439 1_556 S
O13 C7 1.208 . S
O14 Cd15 2.223 . S
O14 C22 1.315 . S
Cd15 O14 2.223 . S
Cd15 O18 2.297 . S
Cd15 O19 2.439 . S
Cd15 O25 2.240 . S
Cd16 O17 2.240 . S
Cd16 O24 2.223 . S
Cd16 O26 2.297 1_554 S
Cd16 O27 2.439 1_554 S
O17 Cd16 2.240 . S
O17 C22 1.279 . S
O18 Cd15 2.297 . S
O18 C20 1.247 . S
O19 Cd15 2.439 . S
O19 C20 1.208 . S
C20 O18 1.247 . S
C20 O19 1.208 . S
C21 O26 1.247 . S
C21 O27 1.208 . S
C22 O14 1.315 . S
C22 O17 1.279 . S
C23 O24 1.315 . S
C23 O25 1.279 . S
O24 Cd16 2.223 . S
O24 C23 1.315 . S
O25 Cd15 2.240 . S
O25 C23 1.279 . S
O26 Cd16 2.297 1_556 S
O26 C21 1.247 . S
O27 Cd16 2.439 1_556 S
O27 C21 1.208 . S
O28 Cd29 2.223 . S
O28 C36 1.315 . S
Cd29 O28 2.223 . S
Cd29 O32 2.297 . S
Cd29 O33 2.439 . S
Cd29 O39 2.240 . S
Cd30 O31 2.240 . S
Cd30 O38 2.223 . S
Cd30 O40 2.297 1_554 S
Cd30 O41 2.439 1_554 S
O31 Cd30 2.240 . S
O31 C36 1.279 . S
O32 Cd29 2.297 . S
O32 C34 1.247 . S
O33 Cd29 2.439 . S
O33 C34 1.208 . S
C34 O32 1.247 . S
C34 O33 1.208 . S
C35 O40 1.247 . S
C35 O41 1.208 . S
C36 O28 1.315 . S
C36 O31 1.279 . S
C37 O38 1.315 . S
C37 O39 1.279 . S
O38 Cd30 2.223 . S
O38 C37 1.315 . S
O39 Cd29 2.240 . S
O39 C37 1.279 . S
O40 Cd30 2.297 1_556 S
O40 C35 1.247 . S
O41 Cd30 2.439 1_556 S
O41 C35 1.208 . S
O42 Cd43 2.223 . S
O42 C50 1.315 . S
Cd43 O42 2.223 . S
Cd43 O46 2.297 . S
Cd43 O47 2.439 . S
Cd43 O53 2.240 . S
Cd44 O45 2.240 . S
Cd44 O52 2.223 . S
Cd44 O54 2.297 1_554 S
Cd44 O55 2.439 1_554 S
O45 Cd44 2.240 . S
O45 C50 1.279 . S
O46 Cd43 2.297 . S
O46 C48 1.247 . S
O47 Cd43 2.439 . S
O47 C48 1.208 . S
C48 O46 1.247 . S
C48 O47 1.208 . S
C49 O54 1.247 . S
C49 O55 1.208 . S
C50 O42 1.315 . S
C50 O45 1.279 . S
C51 O52 1.315 . S
C51 O53 1.279 . S
O52 Cd44 2.223 . S
O52 C51 1.315 . S
O53 Cd43 2.240 . S
O53 C51 1.279 . S
O54 Cd44 2.297 1_556 S
O54 C49 1.247 . S
O55 Cd44 2.439 1_556 S
O55 C49 1.208 . S
O56 Cd57 2.223 . S
O56 C64 1.315 . S
Cd57 O56 2.223 . S
Cd57 O60 2.297 . S
Cd57 O61 2.439 1_556 S
Cd57 O67 2.240 1_556 S
Cd58 O59 2.240 1_554 S
Cd58 O66 2.223 . S
Cd58 O68 2.297 . S
Cd58 O69 2.439 . S
O59 Cd58 2.240 1_556 S
O59 C64 1.279 . S
O60 Cd57 2.297 . S
O60 C62 1.247 . S
O61 Cd57 2.439 1_554 S
O61 C62 1.208 1_554 S
C62 O60 1.247 . S
C62 O61 1.208 1_556 S
C63 O68 1.247 . S
C63 O69 1.208 . S
C64 O56 1.315 . S
C64 O59 1.279 . S
C65 O66 1.315 . S
C65 O67 1.279 . S
O66 Cd58 2.223 . S
O66 C65 1.315 . S
O67 Cd57 2.240 1_554 S
O67 C65 1.279 . S
O68 Cd58 2.297 . S
O68 C63 1.247 . S
O69 Cd58 2.439 . S
O69 C63 1.208 . S
O70 Cd71 2.223 . S
O70 C78 1.315 . S
Cd71 O70 2.223 . S
Cd71 O74 2.297 . S
Cd71 O75 2.439 1_556 S
Cd71 O81 2.240 1_556 S
Cd72 O73 2.240 1_554 S
Cd72 O80 2.223 . S
Cd72 O82 2.297 . S
Cd72 O83 2.439 . S
O73 Cd72 2.240 1_556 S
O73 C78 1.279 . S
O74 Cd71 2.297 . S
O74 C76 1.247 . S
O75 Cd71 2.439 1_554 S
O75 C76 1.208 1_554 S
C76 O74 1.247 . S
C76 O75 1.208 1_556 S
C77 O82 1.247 . S
C77 O83 1.208 . S
C78 O70 1.315 . S
C78 O73 1.279 . S
C79 O80 1.315 . S
C79 O81 1.279 . S
O80 Cd72 2.223 . S
O80 C79 1.315 . S
O81 Cd71 2.240 1_554 S
O81 C79 1.279 . S
O82 Cd72 2.297 . S
O82 C77 1.247 . S
O83 Cd72 2.439 . S
O83 C77 1.208 . S
O84 Cd85 2.223 . S
O84 C92 1.315 . S
Cd85 O84 2.223 . S
Cd85 O88 2.297 . S
Cd85 O89 2.439 1_556 S
Cd85 O95 2.240 1_556 S
Cd86 O87 2.240 1_554 S
Cd86 O94 2.223 . S
Cd86 O96 2.297 . S
Cd86 O97 2.439 . S
O87 Cd86 2.240 1_556 S
O87 C92 1.279 . S
O88 Cd85 2.297 . S
O88 C90 1.247 . S
O89 Cd85 2.439 1_554 S
O89 C90 1.208 1_554 S
C90 O88 1.247 . S
C90 O89 1.208 1_556 S
C91 O96 1.247 . S
C91 O97 1.208 . S
C92 O84 1.315 . S
C92 O87 1.279 . S
C93 O94 1.315 . S
C93 O95 1.279 . S
O94 Cd86 2.223 . S
O94 C93 1.315 . S
O95 Cd85 2.240 1_554 S
O95 C93 1.279 . S
O96 Cd86 2.297 . S
O96 C91 1.247 . S
O97 Cd86 2.439 . S
O97 C91 1.208 . S
O98 Cd99 2.223 . S
O98 C106 1.315 . S
Cd99 O98 2.223 . S
Cd99 O102 2.297 . S
Cd99 O103 2.439 1_556 S
Cd99 O109 2.240 1_556 S
Cd100 O101 2.240 1_554 S
Cd100 O108 2.223 . S
Cd100 O110 2.297 . S
Cd100 O111 2.439 . S
O101 Cd100 2.240 1_556 S
O101 C106 1.279 . S
O102 Cd99 2.297 . S
O102 C104 1.247 . S
O103 Cd99 2.439 1_554 S
O103 C104 1.208 1_554 S
C104 O102 1.247 . S
C104 O103 1.208 1_556 S
C105 O110 1.247 . S
C105 O111 1.208 . S
C106 O98 1.315 . S
C106 O101 1.279 . S
C107 O108 1.315 . S
C107 O109 1.279 . S
O108 Cd100 2.223 . S
O108 C107 1.315 . S
O109 Cd99 2.240 1_554 S
O109 C107 1.279 . S
O110 Cd100 2.297 . S
O110 C105 1.247 . S
O111 Cd100 2.439 . S
O111 C105 1.208 . S
O112 Cd113 2.223 . S
O112 C120 1.315 . S
Cd113 O112 2.223 . S
Cd113 O116 2.297 . S
Cd113 O117 2.439 . S
Cd113 O123 2.240 . S
Cd114 O115 2.240 . S
Cd114 O122 2.223 . S
Cd114 O124 2.297 . S
Cd114 O125 2.439 . S
O115 Cd114 2.240 . S
O115 C120 1.279 . S
O116 Cd113 2.297 . S
O116 C118 1.247 . S
O117 Cd113 2.439 . S
O117 C118 1.208 . S
C118 O116 1.247 . S
C118 O117 1.208 . S
C119 O124 1.247 . S
C119 O125 1.208 . S
C120 O112 1.315 . S
C120 O115 1.279 . S
C121 O122 1.315 . S
C121 O123 1.279 . S
O122 Cd114 2.223 . S
O122 C121 1.315 . S
O123 Cd113 2.240 . S
O123 C121 1.279 . S
O124 Cd114 2.297 . S
O124 C119 1.247 . S
O125 Cd114 2.439 . S
O125 C119 1.208 . S
O126 Cd127 2.223 . S
O126 C134 1.315 . S
Cd127 O126 2.223 . S
Cd127 O130 2.297 . S
Cd127 O131 2.439 . S
Cd127 O137 2.240 . S
Cd128 O129 2.240 . S
Cd128 O136 2.223 . S
Cd128 O138 2.297 . S
Cd128 O139 2.439 . S
O129 Cd128 2.240 . S
O129 C134 1.279 . S
O130 Cd127 2.297 . S
O130 C132 1.247 . S
O131 Cd127 2.439 . S
O131 C132 1.208 . S
C132 O130 1.247 . S
C132 O131 1.208 . S
C133 O138 1.247 . S
C133 O139 1.208 . S
C134 O126 1.315 . S
C134 O129 1.279 . S
C135 O136 1.315 . S
C135 O137 1.279 . S
O136 Cd128 2.223 . S
O136 C135 1.315 . S
O137 Cd127 2.240 . S
O137 C135 1.279 . S
O138 Cd128 2.297 . S
O138 C133 1.247 . S
O139 Cd128 2.439 . S
O139 C133 1.208 . S
O140 Cd141 2.223 . S
O140 C148 1.315 . S
Cd141 O140 2.223 . S
Cd141 O144 2.297 . S
Cd141 O145 2.439 . S
Cd141 O151 2.240 . S
Cd142 O143 2.240 . S
Cd142 O150 2.223 . S
Cd142 O152 2.297 . S
Cd142 O153 2.439 . S
O143 Cd142 2.240 . S
O143 C148 1.279 . S
O144 Cd141 2.297 . S
O144 C146 1.247 . S
O145 Cd141 2.439 . S
O145 C146 1.208 . S
C146 O144 1.247 . S
C146 O145 1.208 . S
C147 O152 1.247 . S
C147 O153 1.208 . S
C148 O140 1.315 . S
C148 O143 1.279 . S
C149 O150 1.315 . S
C149 O151 1.279 . S
O150 Cd142 2.223 . S
O150 C149 1.315 . S
O151 Cd141 2.240 . S
O151 C149 1.279 . S
O152 Cd142 2.297 . S
O152 C147 1.247 . S
O153 Cd142 2.439 . S
O153 C147 1.208 . S
O154 Cd155 2.223 . S
O154 C162 1.315 . S
Cd155 O154 2.223 . S
Cd155 O158 2.297 . S
Cd155 O159 2.439 . S
Cd155 O165 2.240 . S
Cd156 O157 2.240 . S
Cd156 O164 2.223 . S
Cd156 O166 2.297 . S
Cd156 O167 2.439 . S
O157 Cd156 2.240 . S
O157 C162 1.279 . S
O158 Cd155 2.297 . S
O158 C160 1.247 . S
O159 Cd155 2.439 . S
O159 C160 1.208 . S
C160 O158 1.247 . S
C160 O159 1.208 . S
C161 O166 1.247 . S
C161 O167 1.208 . S
C162 O154 1.315 . S
C162 O157 1.279 . S
C163 O164 1.315 . S
C163 O165 1.279 . S
O164 Cd156 2.223 . S
O164 C163 1.315 . S
O165 Cd155 2.240 . S
O165 C163 1.279 . S
O166 Cd156 2.297 . S
O166 C161 1.247 . S
O167 Cd156 2.439 . S
O167 C161 1.208 . S
O168 Cd169 2.223 . S
O168 C176 1.315 . S
Cd169 O168 2.223 . S
Cd169 O172 2.297 . S
Cd169 O173 2.439 . S
Cd169 O179 2.240 . S
Cd170 O171 2.240 . S
Cd170 O178 2.223 . S
Cd170 O180 2.297 . S
Cd170 O181 2.439 . S
O171 Cd170 2.240 . S
O171 C176 1.279 . S
O172 Cd169 2.297 . S
O172 C174 1.247 . S
O173 Cd169 2.439 . S
O173 C174 1.208 . S
C174 O172 1.247 . S
C174 O173 1.208 . S
C175 O180 1.247 . S
C175 O181 1.208 . S
C176 O168 1.315 . S
C176 O171 1.279 . S
C177 O178 1.315 . S
C177 O179 1.279 . S
O178 Cd170 2.223 . S
O178 C177 1.315 . S
O179 Cd169 2.240 . S
O179 C177 1.279 . S
O180 Cd170 2.297 . S
O180 C175 1.247 . S
O181 Cd170 2.439 . S
O181 C175 1.208 . S
O182 Cd183 2.223 . S
O182 C190 1.315 . S
Cd183 O182 2.223 . S
Cd183 O186 2.297 . S
Cd183 O187 2.439 . S
Cd183 O193 2.240 . S
Cd184 O185 2.240 . S
Cd184 O192 2.223 . S
Cd184 O194 2.297 . S
Cd184 O195 2.439 . S
O185 Cd184 2.240 . S
O185 C190 1.279 . S
O186 Cd183 2.297 . S
O186 C188 1.247 . S
O187 Cd183 2.439 . S
O187 C188 1.208 . S
C188 O186 1.247 . S
C188 O187 1.208 . S
C189 O194 1.247 . S
C189 O195 1.208 . S
C190 O182 1.315 . S
C190 O185 1.279 . S
C191 O192 1.315 . S
C191 O193 1.279 . S
O192 Cd184 2.223 . S
O192 C191 1.315 . S
O193 Cd183 2.240 . S
O193 C191 1.279 . S
O194 Cd184 2.297 . S
O194 C189 1.247 . S
O195 Cd184 2.439 . S
O195 C189 1.208 . S
O196 Cd197 2.223 . S
O196 C204 1.315 . S
Cd197 O196 2.223 . S
Cd197 O200 2.297 . S
Cd197 O201 2.439 . S
Cd197 O207 2.240 . S
Cd198 O199 2.240 . S
Cd198 O206 2.223 . S
Cd198 O208 2.297 . S
Cd198 O209 2.439 . S
O199 Cd198 2.240 . S
O199 C204 1.279 . S
O200 Cd197 2.297 . S
O200 C202 1.247 . S
O201 Cd197 2.439 . S
O201 C202 1.208 . S
C202 O200 1.247 . S
C202 O201 1.208 . S
C203 O208 1.247 . S
C203 O209 1.208 . S
C204 O196 1.315 . S
C204 O199 1.279 . S
C205 O206 1.315 . S
C205 O207 1.279 . S
O206 Cd198 2.223 . S
O206 C205 1.315 . S
O207 Cd197 2.240 . S
O207 C205 1.279 . S
O208 Cd198 2.297 . S
O208 C203 1.247 . S
O209 Cd198 2.439 . S
O209 C203 1.208 . S
O210 Cd211 2.223 . S
O210 C218 1.315 . S
Cd211 O210 2.223 . S
Cd211 O214 2.297 . S
Cd211 O215 2.439 . S
Cd211 O221 2.240 . S
Cd212 O213 2.240 . S
Cd212 O220 2.223 . S
Cd212 O222 2.297 . S
Cd212 O223 2.439 . S
O213 Cd212 2.240 . S
O213 C218 1.279 . S
O214 Cd211 2.297 . S
O214 C216 1.247 . S
O215 Cd211 2.439 . S
O215 C216 1.208 . S
C216 O214 1.247 . S
C216 O215 1.208 . S
C217 O222 1.247 . S
C217 O223 1.208 . S
C218 O210 1.315 . S
C218 O213 1.279 . S
C219 O220 1.315 . S
C219 O221 1.279 . S
O220 Cd212 2.223 . S
O220 C219 1.315 . S
O221 Cd211 2.240 . S
O221 C219 1.279 . S
O222 Cd212 2.297 . S
O222 C217 1.247 . S
O223 Cd212 2.439 . S
O223 C217 1.208 . S
C224 C225 1.170 . S
C224 C226 1.380 . S
C225 C224 1.170 . S
C226 C224 1.380 . S
C226 C227 1.170 . S
C227 C226 1.170 . S
C228 C229 1.170 . S
C228 C230 1.380 . S
C229 C228 1.170 . S
C230 C228 1.380 . S
C230 C231 1.170 . S
C231 C230 1.170 . S
C232 C233 1.170 . S
C232 C234 1.380 . S
C233 C232 1.170 . S
C234 C232 1.380 . S
C234 C235 1.170 . S
C235 C234 1.170 . S
C236 C237 1.170 . S
C236 C238 1.380 . S
C237 C236 1.170 . S
C238 C236 1.380 . S
C238 C239 1.170 . S
C239 C238 1.170 . S
C240 C241 1.170 . S
C240 C242 1.380 1_545 S
C241 C240 1.170 . S
C242 C240 1.380 1_565 S
C242 C243 1.170 . S
C243 C242 1.170 . S
C244 C245 1.170 . S
C244 C246 1.380 1_655 S
C245 C244 1.170 . S
C246 C244 1.380 1_455 S
C246 C247 1.170 . S
C247 C246 1.170 . S
C248 C249 1.170 . S
C248 C250 1.380 1_545 S
C249 C248 1.170 . S
C250 C248 1.380 1_565 S
C250 C251 1.170 . S
C251 C250 1.170 . S
C252 C253 1.170 . S
C252 C254 1.380 1_455 S
C253 C252 1.170 . S
C254 C252 1.380 1_655 S
C254 C255 1.170 . S
C255 C254 1.170 . S
C256 C257 1.170 . S
C256 C258 1.380 . S
C257 C256 1.170 . S
C258 C256 1.380 . S
C258 C259 1.170 . S
C259 C258 1.170 . S
C260 C261 1.170 . S
C260 C262 1.380 . S
C261 C260 1.170 . S
C262 C260 1.380 . S
C262 C263 1.170 . S
C263 C262 1.170 . S
C264 C265 1.170 . S
C264 C266 1.380 . S
C265 C264 1.170 . S
C266 C264 1.380 . S
C266 C267 1.170 . S
C267 C266 1.170 . S
C268 C269 1.170 . S
C268 C270 1.380 . S
C269 C268 1.170 . S
C270 C268 1.380 . S
C270 C271 1.170 . S
C271 C270 1.170 . S
C272 C273 1.170 . S
C272 C274 1.380 . S
C273 C272 1.170 . S
C274 C272 1.380 . S
C274 C275 1.170 . S
C275 C274 1.170 . S
C276 C277 1.170 . S
C276 C278 1.380 . S
C277 C276 1.170 . S
C278 C276 1.380 . S
C278 C279 1.170 . S
C279 C278 1.170 . S
C280 C281 1.170 . S
C280 C282 1.380 . S
C281 C280 1.170 . S
C282 C280 1.380 . S
C282 C283 1.170 . S
C283 C282 1.170 . S
C284 C285 1.170 . S
C284 C286 1.380 . S
C285 C284 1.170 . S
C286 C284 1.380 . S
C286 C287 1.170 . S
C287 C286 1.170 . S
C288 C289 1.170 . S
C288 C290 1.380 . S
C289 C288 1.170 . S
C290 C288 1.380 . S
C290 C291 1.170 . S
C291 C290 1.170 . S
C292 C293 1.170 . S
C292 C294 1.380 . S
C293 C292 1.170 . S
C294 C292 1.380 . S
C294 C295 1.170 . S
C295 C294 1.170 . S
C296 C297 1.170 . S
C296 C298 1.380 . S
C297 C296 1.170 . S
C298 C296 1.380 . S
C298 C299 1.170 . S
C299 C298 1.170 . S
C300 C301 1.170 . S
C300 C302 1.380 . S
C301 C300 1.170 . S
C302 C300 1.380 . S
C302 C303 1.170 . S
C303 C302 1.170 . S
C304 C305 1.170 . S
C304 C306 1.380 . S
C305 C304 1.170 . S
C306 C304 1.380 . S
C306 C307 1.170 . S
C307 C306 1.170 . S
C308 C309 1.170 . S
C308 C310 1.380 . S
C309 C308 1.170 . S
C310 C308 1.380 . S
C310 C311 1.170 . S
C311 C310 1.170 . S
C312 C313 1.170 . S
C312 C314 1.380 . S
C313 C312 1.170 . S
C314 C312 1.380 . S
C314 C315 1.170 . S
C315 C314 1.170 . S
C316 C317 1.170 . S
C316 C318 1.380 . S
C317 C316 1.170 . S
C318 C316 1.380 . S
C318 C319 1.170 . S
C319 C318 1.170 . S
C320 C321 1.170 . S
C320 C322 1.380 . S
C321 C320 1.170 . S
C322 C320 1.380 . S
C322 C323 1.170 . S
C323 C322 1.170 . S
C324 C325 1.170 . S
C324 C326 1.380 . S
C325 C324 1.170 . S
C326 C324 1.380 . S
C326 C327 1.170 . S
C327 C326 1.170 . S
C328 C329 1.170 . S
C328 C330 1.380 . S
C329 C328 1.170 . S
C330 C328 1.380 . S
C330 C331 1.170 . S
C331 C330 1.170 . S
C332 C333 1.170 . S
C332 C334 1.380 . S
C333 C332 1.170 . S
C334 C332 1.380 . S
C334 C335 1.170 . S
C335 C334 1.170 . S
C336 C337 1.170 . S
C336 C338 1.380 . S
C337 C336 1.170 . S
C338 C336 1.380 . S
C338 C339 1.170 . S
C339 C338 1.170 . S
C340 C341 1.170 . S
C340 C342 1.380 . S
C341 C340 1.170 . S
C342 C340 1.380 . S
C342 C343 1.170 . S
C343 C342 1.170 . S
C344 C345 1.170 . S
C344 C346 1.380 . S
C345 C344 1.170 . S
C346 C344 1.380 . S
C346 C347 1.170 . S
C347 C346 1.170 . S
C348 C349 1.170 . S
C348 C350 1.380 . S
C349 C348 1.170 . S
C350 C348 1.380 . S
C350 C351 1.170 . S
C351 C350 1.170 . S
C225 C62 1.573 1_554 S
C227 C6 1.574 . S
C229 C76 1.584 1_554 S
C231 C20 1.583 . S
C233 C90 1.598 1_554 S
C235 C34 1.597 . S
C237 C104 1.595 1_554 S
C239 C48 1.594 . S
C241 C174 1.591 . S
C243 C118 1.590 . S
C245 C188 1.597 . S
C247 C132 1.596 . S
C249 C146 1.575 . S
C251 C202 1.576 . S
C253 C216 1.598 . S
C255 C160 1.598 . S
C257 C9 1.503 . S
C259 C79 1.516 . S
C261 C93 1.535 . S
C263 C23 1.527 . S
C265 C37 1.533 . S
C267 C107 1.532 . S
C269 C65 1.531 . S
C271 C51 1.534 . S
C273 C191 1.503 . S
C275 C121 1.516 . S
C277 C205 1.502 . S
C279 C135 1.511 . S
C281 C149 1.535 . S
C283 C219 1.526 . S
C285 C163 1.526 . S
C287 C177 1.510 . S
C289 C218 1.907 . S
C291 C8 1.915 . S
C293 C176 1.916 . S
C295 C22 1.904 . S
C297 C190 1.900 . S
C299 C36 1.915 . S
C301 C204 1.909 . S
C303 C50 1.903 . S
C305 C134 1.907 . S
C307 C64 1.915 . S
C309 C148 1.910 . S
C311 C78 1.912 . S
C313 C92 1.900 . S
C315 C162 1.916 . S
C317 C106 1.902 . S
C319 C120 1.917 . S
C321 C189 1.094 . S
C323 C35 1.087 . S
C325 C203 1.095 . S
C327 C49 1.083 . S
C329 C217 1.071 . S
C331 C7 1.078 . S
C333 C21 1.077 . S
C335 C175 1.094 . S
C337 C161 1.078 . S
C339 C91 1.094 . S
C341 C105 1.090 . S
C343 C119 1.073 . S
C345 C133 1.094 . S
C347 C63 1.077 . S
C349 C147 1.076 . S
C351 C77 1.072 . S
