# Generated by pormake.
# Topology wlh, (5)-cn, num edge types: 1
# Building blocks:
#     Node 0, Type 0, BuildingBlock: XOMCOT_clean_sbu_1, # of connection points: 5
#     Node 1, Type 0, BuildingBlock: XOMCOT_clean_sbu_1, # of connection points: 5
#     Node 2, Type 0, BuildingBlock: XOMCOT_clean_sbu_1, # of connection points: 5
#     Node 3, Type 0, BuildingBlock: XOMCOT_clean_sbu_1, # of connection points: 5
#     Node 4, Type 0, BuildingBlock: XOMCOT_clean_sbu_1, # of connection points: 5
#     Node 5, Type 0, BuildingBlock: XOMCOT_clean_sbu_1, # of connection points: 5
#     Node 6, Type 0, BuildingBlock: XOMCOT_clean_sbu_1, # of connection points: 5
#     Node 7, Type 0, BuildingBlock: XOMCOT_clean_sbu_1, # of connection points: 5
#     Node 8, Type 0, BuildingBlock: XOMCOT_clean_sbu_1, # of connection points: 5
#     Node 9, Type 0, BuildingBlock: XOMCOT_clean_sbu_1, # of connection points: 5
#     Node 10, Type 0, BuildingBlock: XOMCOT_clean_sbu_1, # of connection points: 5
#     Node 11, Type 0, BuildingBlock: XOMCOT_clean_sbu_1, # of connection points: 5
#     Node 12, Type 0, BuildingBlock: XOMCOT_clean_sbu_1, # of connection points: 5
#     Node 13, Type 0, BuildingBlock: XOMCOT_clean_sbu_1, # of connection points: 5
#     Node 14, Type 0, BuildingBlock: XOMCOT_clean_sbu_1, # of connection points: 5
#     Node 15, Type 0, BuildingBlock: XOMCOT_clean_sbu_1, # of connection points: 5
#     Node 16, Type 0, BuildingBlock: XOMCOT_clean_sbu_1, # of connection points: 5
#     Node 17, Type 0, BuildingBlock: XOMCOT_clean_sbu_1, # of connection points: 5
#     Node 18, Type 0, BuildingBlock: XOMCOT_clean_sbu_1, # of connection points: 5
#     Node 19, Type 0, BuildingBlock: XOMCOT_clean_sbu_1, # of connection points: 5
#     Node 20, Type 0, BuildingBlock: XOMCOT_clean_sbu_1, # of connection points: 5
#     Node 21, Type 0, BuildingBlock: XOMCOT_clean_sbu_1, # of connection points: 5
#     Node 22, Type 0, BuildingBlock: XOMCOT_clean_sbu_1, # of connection points: 5
#     Node 23, Type 0, BuildingBlock: XOMCOT_clean_sbu_1, # of connection points: 5
#     Node 24, Type 0, BuildingBlock: XOMCOT_clean_sbu_1, # of connection points: 5
#     Node 25, Type 0, BuildingBlock: XOMCOT_clean_sbu_1, # of connection points: 5
#     Node 26, Type 0, BuildingBlock: XOMCOT_clean_sbu_1, # of connection points: 5
#     Node 27, Type 0, BuildingBlock: XOMCOT_clean_sbu_1, # of connection points: 5
#     Node 28, Type 0, BuildingBlock: XOMCOT_clean_sbu_1, # of connection points: 5
#     Node 29, Type 0, BuildingBlock: XOMCOT_clean_sbu_1, # of connection points: 5
#     Node 30, Type 0, BuildingBlock: XOMCOT_clean_sbu_1, # of connection points: 5
#     Node 31, Type 0, BuildingBlock: XOMCOT_clean_sbu_1, # of connection points: 5
#     Node 32, Type 0, BuildingBlock: XOMCOT_clean_sbu_1, # of connection points: 5
#     Node 33, Type 0, BuildingBlock: XOMCOT_clean_sbu_1, # of connection points: 5
#     Node 34, Type 0, BuildingBlock: XOMCOT_clean_sbu_1, # of connection points: 5
#     Node 35, Type 0, BuildingBlock: XOMCOT_clean_sbu_1, # of connection points: 5
#     Edge 36, Type (0, 0), BuildingBlock: OJICUG_clean_linker_0, # of connection points: 2
#     Edge 37, Type (0, 0), BuildingBlock: OJICUG_clean_linker_0, # of connection points: 2
#     Edge 38, Type (0, 0), BuildingBlock: OJICUG_clean_linker_0, # of connection points: 2
#     Edge 39, Type (0, 0), BuildingBlock: OJICUG_clean_linker_0, # of connection points: 2
#     Edge 40, Type (0, 0), BuildingBlock: OJICUG_clean_linker_0, # of connection points: 2
#     Edge 41, Type (0, 0), BuildingBlock: OJICUG_clean_linker_0, # of connection points: 2
#     Edge 42, Type (0, 0), BuildingBlock: OJICUG_clean_linker_0, # of connection points: 2
#     Edge 43, Type (0, 0), BuildingBlock: OJICUG_clean_linker_0, # of connection points: 2
#     Edge 44, Type (0, 0), BuildingBlock: OJICUG_clean_linker_0, # of connection points: 2
#     Edge 45, Type (0, 0), BuildingBlock: OJICUG_clean_linker_0, # of connection points: 2
#     Edge 46, Type (0, 0), BuildingBlock: OJICUG_clean_linker_0, # of connection points: 2
#     Edge 47, Type (0, 0), BuildingBlock: OJICUG_clean_linker_0, # of connection points: 2
#     Edge 48, Type (0, 0), BuildingBlock: OJICUG_clean_linker_0, # of connection points: 2
#     Edge 49, Type (0, 0), BuildingBlock: OJICUG_clean_linker_0, # of connection points: 2
#     Edge 50, Type (0, 0), BuildingBlock: OJICUG_clean_linker_0, # of connection points: 2
#     Edge 51, Type (0, 0), BuildingBlock: OJICUG_clean_linker_0, # of connection points: 2
#     Edge 52, Type (0, 0), BuildingBlock: OJICUG_clean_linker_0, # of connection points: 2
#     Edge 53, Type (0, 0), BuildingBlock: OJICUG_clean_linker_0, # of connection points: 2
#     Edge 54, Type (0, 0), BuildingBlock: OJICUG_clean_linker_0, # of connection points: 2
#     Edge 55, Type (0, 0), BuildingBlock: OJICUG_clean_linker_0, # of connection points: 2
#     Edge 56, Type (0, 0), BuildingBlock: OJICUG_clean_linker_0, # of connection points: 2
#     Edge 57, Type (0, 0), BuildingBlock: OJICUG_clean_linker_0, # of connection points: 2
#     Edge 58, Type (0, 0), BuildingBlock: OJICUG_clean_linker_0, # of connection points: 2
#     Edge 59, Type (0, 0), BuildingBlock: OJICUG_clean_linker_0, # of connection points: 2
#     Edge 60, Type (0, 0), BuildingBlock: OJICUG_clean_linker_0, # of connection points: 2
#     Edge 61, Type (0, 0), BuildingBlock: OJICUG_clean_linker_0, # of connection points: 2
#     Edge 62, Type (0, 0), BuildingBlock: OJICUG_clean_linker_0, # of connection points: 2
#     Edge 63, Type (0, 0), BuildingBlock: OJICUG_clean_linker_0, # of connection points: 2
#     Edge 64, Type (0, 0), BuildingBlock: OJICUG_clean_linker_0, # of connection points: 2
#     Edge 65, Type (0, 0), BuildingBlock: OJICUG_clean_linker_0, # of connection points: 2
#     Edge 66, Type (0, 0), BuildingBlock: OJICUG_clean_linker_0, # of connection points: 2
#     Edge 67, Type (0, 0), BuildingBlock: OJICUG_clean_linker_0, # of connection points: 2
#     Edge 68, Type (0, 0), BuildingBlock: OJICUG_clean_linker_0, # of connection points: 2
#     Edge 69, Type (0, 0), BuildingBlock: OJICUG_clean_linker_0, # of connection points: 2
#     Edge 70, Type (0, 0), BuildingBlock: OJICUG_clean_linker_0, # of connection points: 2
#     Edge 71, Type (0, 0), BuildingBlock: OJICUG_clean_linker_0, # of connection points: 2
#     Edge 72, Type (0, 0), BuildingBlock: OJICUG_clean_linker_0, # of connection points: 2
#     Edge 73, Type (0, 0), BuildingBlock: OJICUG_clean_linker_0, # of connection points: 2
#     Edge 74, Type (0, 0), BuildingBlock: OJICUG_clean_linker_0, # of connection points: 2
#     Edge 75, Type (0, 0), BuildingBlock: OJICUG_clean_linker_0, # of connection points: 2
#     Edge 76, Type (0, 0), BuildingBlock: OJICUG_clean_linker_0, # of connection points: 2
#     Edge 77, Type (0, 0), BuildingBlock: OJICUG_clean_linker_0, # of connection points: 2
#     Edge 78, Type (0, 0), BuildingBlock: OJICUG_clean_linker_0, # of connection points: 2
#     Edge 79, Type (0, 0), BuildingBlock: OJICUG_clean_linker_0, # of connection points: 2
#     Edge 80, Type (0, 0), BuildingBlock: OJICUG_clean_linker_0, # of connection points: 2
#     Edge 81, Type (0, 0), BuildingBlock: OJICUG_clean_linker_0, # of connection points: 2
#     Edge 82, Type (0, 0), BuildingBlock: OJICUG_clean_linker_0, # of connection points: 2
#     Edge 83, Type (0, 0), BuildingBlock: OJICUG_clean_linker_0, # of connection points: 2
#     Edge 84, Type (0, 0), BuildingBlock: OJICUG_clean_linker_0, # of connection points: 2
#     Edge 85, Type (0, 0), BuildingBlock: OJICUG_clean_linker_0, # of connection points: 2
#     Edge 86, Type (0, 0), BuildingBlock: OJICUG_clean_linker_0, # of connection points: 2
#     Edge 87, Type (0, 0), BuildingBlock: OJICUG_clean_linker_0, # of connection points: 2
#     Edge 88, Type (0, 0), BuildingBlock: OJICUG_clean_linker_0, # of connection points: 2
#     Edge 89, Type (0, 0), BuildingBlock: OJICUG_clean_linker_0, # of connection points: 2
#     Edge 90, Type (0, 0), BuildingBlock: OJICUG_clean_linker_0, # of connection points: 2
#     Edge 91, Type (0, 0), BuildingBlock: OJICUG_clean_linker_0, # of connection points: 2
#     Edge 92, Type (0, 0), BuildingBlock: OJICUG_clean_linker_0, # of connection points: 2
#     Edge 93, Type (0, 0), BuildingBlock: OJICUG_clean_linker_0, # of connection points: 2
#     Edge 94, Type (0, 0), BuildingBlock: OJICUG_clean_linker_0, # of connection points: 2
#     Edge 95, Type (0, 0), BuildingBlock: OJICUG_clean_linker_0, # of connection points: 2
#     Edge 96, Type (0, 0), BuildingBlock: OJICUG_clean_linker_0, # of connection points: 2
#     Edge 97, Type (0, 0), BuildingBlock: OJICUG_clean_linker_0, # of connection points: 2
#     Edge 98, Type (0, 0), BuildingBlock: OJICUG_clean_linker_0, # of connection points: 2
#     Edge 99, Type (0, 0), BuildingBlock: OJICUG_clean_linker_0, # of connection points: 2
#     Edge 100, Type (0, 0), BuildingBlock: OJICUG_clean_linker_0, # of connection points: 2
#     Edge 101, Type (0, 0), BuildingBlock: OJICUG_clean_linker_0, # of connection points: 2
#     Edge 102, Type (0, 0), BuildingBlock: OJICUG_clean_linker_0, # of connection points: 2
#     Edge 103, Type (0, 0), BuildingBlock: OJICUG_clean_linker_0, # of connection points: 2
#     Edge 104, Type (0, 0), BuildingBlock: OJICUG_clean_linker_0, # of connection points: 2
#     Edge 105, Type (0, 0), BuildingBlock: OJICUG_clean_linker_0, # of connection points: 2
#     Edge 106, Type (0, 0), BuildingBlock: OJICUG_clean_linker_0, # of connection points: 2
#     Edge 107, Type (0, 0), BuildingBlock: OJICUG_clean_linker_0, # of connection points: 2
#     Edge 108, Type (0, 0), BuildingBlock: OJICUG_clean_linker_0, # of connection points: 2
#     Edge 109, Type (0, 0), BuildingBlock: OJICUG_clean_linker_0, # of connection points: 2
#     Edge 110, Type (0, 0), BuildingBlock: OJICUG_clean_linker_0, # of connection points: 2
#     Edge 111, Type (0, 0), BuildingBlock: OJICUG_clean_linker_0, # of connection points: 2
#     Edge 112, Type (0, 0), BuildingBlock: OJICUG_clean_linker_0, # of connection points: 2
#     Edge 113, Type (0, 0), BuildingBlock: OJICUG_clean_linker_0, # of connection points: 2
#     Edge 114, Type (0, 0), BuildingBlock: OJICUG_clean_linker_0, # of connection points: 2
#     Edge 115, Type (0, 0), BuildingBlock: OJICUG_clean_linker_0, # of connection points: 2
#     Edge 116, Type (0, 0), BuildingBlock: OJICUG_clean_linker_0, # of connection points: 2
#     Edge 117, Type (0, 0), BuildingBlock: OJICUG_clean_linker_0, # of connection points: 2
#     Edge 118, Type (0, 0), BuildingBlock: OJICUG_clean_linker_0, # of connection points: 2
#     Edge 119, Type (0, 0), BuildingBlock: OJICUG_clean_linker_0, # of connection points: 2
#     Edge 120, Type (0, 0), BuildingBlock: OJICUG_clean_linker_0, # of connection points: 2
#     Edge 121, Type (0, 0), BuildingBlock: OJICUG_clean_linker_0, # of connection points: 2
#     Edge 122, Type (0, 0), BuildingBlock: OJICUG_clean_linker_0, # of connection points: 2
#     Edge 123, Type (0, 0), BuildingBlock: OJICUG_clean_linker_0, # of connection points: 2
#     Edge 124, Type (0, 0), BuildingBlock: OJICUG_clean_linker_0, # of connection points: 2
#     Edge 125, Type (0, 0), BuildingBlock: OJICUG_clean_linker_0, # of connection points: 2
# Relax obj value: 0.341
# Max RMSD: 0.229
# Mean RMSD: 0.229
data_MOF--net-wlh--node1-XOMCOT_clean_sbu_1--edge1-OJICUG_clean_linker_0
_symmetry_space_group_name_H-M    P1
_symmetry_Int_Tables_number       1
_symmetry_cell_setting            triclinic
loop_
_symmetry_equiv_pos_as_xyz
'x, y, z'
_cell_length_a     29.725665
_cell_length_b     29.733106
_cell_length_c     118.18503
_cell_angle_alpha  90.018987
_cell_angle_beta   90.044216
_cell_angle_gamma 119.91394
loop_
_atom_site_label
_atom_site_type_symbol
_atom_site_fract_x
_atom_site_fract_y
_atom_site_fract_z
_atom_type_partial_charge
C0 C 0.19121 0.29178 0.19608 0.0
C1 C 0.21486 0.2629 0.19381 0.0
N2 N 0.17978 0.21846 0.18878 0.0
N3 N 0.14168 0.26567 0.19241 0.0
C4 C 0.13589 0.22105 0.18804 0.0
H5 H 0.20964 0.33045 0.19963 0.0
Co6 Co 0.09762 0.29297 0.1909 0.0
C7 C 1.00263 0.2068 0.18047 0.0
O8 O 0.99787 0.238 0.17332 0.0
N9 N 0.0531 0.32102 0.18936 0.0
C10 C 0.98585 0.33352 0.19179 0.0
C11 C 1.00638 0.30243 0.19441 0.0
C12 C 0.06003 0.36368 0.18374 0.0
N13 N 0.01958 0.37223 0.18506 0.0
O14 O 0.11785 0.30563 0.1754 0.0
H15 H 0.98821 0.26829 0.19971 0.0
H16 H 0.09383 0.38772 0.17866 0.0
O17 O 0.04047 0.22462 0.1874 0.0
C18 C 0.16112 0.34751 0.17425 0.0
O19 O 0.17705 0.38149 0.18254 0.0
N20 N 0.08219 0.2828 0.20631 0.0
C21 C 0.05992 0.27779 0.22926 0.0
C22 C 0.04064 0.23232 0.22281 0.0
C23 C 0.05299 0.23555 0.21135 0.0
C24 C 0.10272 0.32727 0.21253 0.0
C25 C 0.09217 0.32567 0.22408 0.0
H26 H 0.03861 0.20002 0.20658 0.0
H27 H 0.12664 0.36424 0.20843 0.0
H28 H 0.10144 0.19239 0.18369 0.0
H29 H 0.25485 0.27403 0.19554 0.0
H30 H 0.9491 0.32817 0.19478 0.0
H31 H 0.01664 0.19461 0.22664 0.0
H32 H 0.10807 0.36149 0.22886 0.0
C33 C 0.76291 0.93438 0.19498 0.0
C34 C 0.79357 0.98769 0.19514 0.0
N35 N 0.83777 1.00048 0.18954 0.0
N36 N 0.78777 0.91405 0.18925 0.0
C37 C 0.83333 0.9553 0.18606 0.0
H38 H 0.72381 0.91206 0.19822 0.0
Co39 Co 0.758 0.84643 0.18397 0.0
C40 C 0.84392 0.82387 0.18304 0.0
O41 O 0.81115 0.77819 0.1873 0.0
N42 N 0.7263 0.77774 0.17792 0.0
C43 C 0.71363 0.71404 0.16602 0.0
C44 C 0.74498 0.76544 0.16869 0.0
C45 C 0.68111 0.73335 0.18015 0.0
N46 N 0.6735 0.69387 0.17325 0.0
O47 O 0.7539 0.87228 0.16936 0.0
H48 H 0.77911 0.79254 0.16402 0.0
H49 H 0.65291 0.72986 0.18632 0.0
O50 O 0.82817 0.85605 0.18082 0.0
C51 C 0.71129 0.87259 0.16843 0.0
O52 O 0.67527 0.84764 0.1761 0.0
N53 N 0.75993 0.82399 0.19895 0.0
C54 C 0.76067 0.79929 0.22173 0.0
C55 C 0.80673 0.83402 0.21626 0.0
C56 C 0.80546 0.84651 0.20495 0.0
C57 C 0.71431 0.79322 0.20446 0.0
C58 C 0.71387 0.77888 0.21577 0.0
H59 H 0.84116 0.87585 0.20117 0.0
H60 H 0.67791 0.7821 0.20036 0.0
H61 H 0.86109 0.95276 0.18057 0.0
H62 H 0.78359 0.015 0.19878 0.0
H63 H 0.71845 0.69367 0.15895 0.0
H64 H 0.84336 0.85219 0.22078 0.0
H65 H 0.67725 0.75414 0.21996 0.0
C66 C 0.12508 0.87958 0.19634 0.0
C67 C 0.07177 0.85533 0.19631 0.0
N68 N 0.05717 0.88179 0.18939 0.0
N69 N 0.14404 0.92121 0.18948 0.0
C70 C 0.10177 0.92171 0.18538 0.0
H71 H 0.14852 0.86664 0.20073 0.0
Co72 Co 0.21297 0.96103 0.18519 0.0
C73 C 0.21596 0.05464 0.17482 0.0
O74 O 0.24696 0.05864 0.16649 0.0
N75 N 0.28299 1.00052 0.18092 0.0
C76 C 0.36552 0.063 0.17962 0.0
C77 C 0.31715 0.05024 0.18364 0.0
C78 C 0.31179 0.98375 0.17545 0.0
N79 N 0.36221 0.02095 0.17447 0.0
O80 O 0.19258 0.93418 0.17023 0.0
H81 H 0.30763 0.07553 0.18837 0.0
H82 H 0.29643 0.94453 0.17248 0.0
O83 O 0.20134 0.01815 0.18202 0.0
C84 C 0.18962 0.89004 0.16935 0.0
O85 O 0.20831 0.87466 0.17763 0.0
N86 N 0.23127 0.98315 0.2001 0.0
C87 C 0.25423 1.00213 0.223 0.0
C88 C 0.23229 0.02742 0.21713 0.0
C89 C 0.22032 0.01683 0.20568 0.0
C90 C 0.25356 0.95903 0.20563 0.0
C91 C 0.26509 0.96769 0.21715 0.0
H92 H 0.20099 0.03473 0.20149 0.0
H93 H 0.26108 0.93182 0.20111 0.0
H94 H 0.10349 0.94893 0.17908 0.0
H95 H 0.04572 0.82041 0.20091 0.0
H96 H 0.4002 0.10057 0.18038 0.0
H97 H 0.22251 0.0535 0.22146 0.0
H98 H 0.28182 0.94733 0.22146 0.0
C99 C 0.27694 0.15589 0.30039 0.0
C100 C 0.25185 0.18409 0.30123 0.0
N101 N 0.20888 0.15694 0.30758 0.0
N102 N 0.24985 0.11123 0.30616 0.0
C103 C 0.20838 0.11272 0.31037 0.0
H104 H 0.31378 0.16811 0.29629 0.0
Co105 Co 0.27296 0.06551 0.30958 0.0
C106 C 0.17903 0.97368 0.31926 0.0
O107 O 0.2055 0.96696 0.32733 0.0
N108 N 0.29737 0.01943 0.31293 0.0
C109 C 0.30953 0.9515 0.31182 0.0
C110 C 0.27761 0.97071 0.30887 0.0
C111 C 0.34157 0.02898 0.31826 0.0
N112 N 0.35009 0.98828 0.3177 0.0
O113 O 0.28118 0.08949 0.32495 0.0
H114 H 0.24297 0.95089 0.30373 0.0
H115 H 0.3675 0.06543 0.32231 0.0
O116 O 0.2019 0.0113 0.31235 0.0
C117 C 0.32356 0.13227 0.32631 0.0
O118 O 0.36003 0.14551 0.31865 0.0
N119 N 0.26753 0.04692 0.29436 0.0
C120 C 0.26926 0.02996 0.27128 0.0
C121 C 0.22202 0.00924 0.27708 0.0
C122 C 0.22187 0.01887 0.28861 0.0
C123 C 0.31385 0.06723 0.28886 0.0
C124 C 0.31565 0.05945 0.27725 0.0
H125 H 0.18493 1.00458 0.29277 0.0
H126 H 0.34953 0.09029 0.29351 0.0
H127 H 0.18039 0.08376 0.31605 0.0
H128 H 0.26484 0.22211 0.29765 0.0
H129 H 0.30403 0.91397 0.30942 0.0
H130 H 0.18545 0.98721 0.27264 0.0
H131 H 0.3528 0.07631 0.27299 0.0
C132 C 0.8839 0.1178 0.30045 0.0
C133 C 0.86186 0.06466 0.29996 0.0
N134 N 0.88375 0.04975 0.30805 0.0
N135 N 0.91996 0.13631 0.3087 0.0
C136 C 0.91888 0.09403 0.3132 0.0
H137 H 0.87323 0.14125 0.29536 0.0
Co138 Co 0.95619 0.20378 0.31405 0.0
C139 C 0.06451 0.22623 0.31681 0.0
O140 O 0.0802 0.27374 0.3133 0.0
N141 N 0.9916 0.27209 0.31995 0.0
C142 C 0.03783 0.33679 0.33198 0.0
C143 C 0.01797 0.28489 0.32985 0.0
C144 C 0.99379 0.31672 0.31656 0.0
N145 N 0.02262 0.35668 0.3236 0.0
O146 O 0.92527 0.17786 0.3285 0.0
H147 H 0.02209 0.25787 0.33528 0.0
H148 H 0.97354 0.32016 0.30934 0.0
O149 O 0.01575 0.19421 0.31785 0.0
C150 C 0.88629 0.18291 0.33095 0.0
O151 O 0.87827 0.21559 0.325 0.0
N152 N 0.98218 0.22653 0.29927 0.0
C153 C 1.00836 0.25224 0.2766 0.0
C154 C 0.02752 0.22489 0.28259 0.0
C155 C 0.01237 0.21066 0.29376 0.0
C156 C 0.96057 0.2503 0.2933 0.0
C157 C 0.9736 0.26414 0.28196 0.0
H158 H 0.02303 0.18462 0.29769 0.0
H159 H 0.9311 0.25632 0.29718 0.0
H160 H 0.94267 0.0957 0.3203 0.0
H161 H 0.83082 0.0389 0.29435 0.0
H162 H 0.05939 0.35772 0.33942 0.0
H163 H 0.0519 0.21223 0.27848 0.0
H164 H 0.95605 0.28305 0.27739 0.0
C165 C 0.91014 0.74218 0.29905 0.0
C166 C 0.96333 0.77012 0.30047 0.0
N167 N 0.97541 0.81492 0.30574 0.0
N168 N 0.88897 0.76915 0.3035 0.0
C169 C 0.92989 0.81339 0.30746 0.0
H170 H 0.88805 0.70341 0.29561 0.0
Co171 Co 0.8185 0.74319 0.30662 0.0
C172 C 0.83688 0.84145 0.31817 0.0
O173 O 0.83464 0.82479 0.32856 0.0
N174 N 0.74769 0.71699 0.31006 0.0
C175 C 0.66961 0.70948 0.31154 0.0
C176 C 0.72017 0.74117 0.3082 0.0
C177 C 0.71272 0.67038 0.31445 0.0
N178 N 0.66463 0.66465 0.31548 0.0
O179 O 0.83327 0.73263 0.3218 0.0
H180 H 0.73569 0.7794 0.30454 0.0
H181 H 0.72231 0.64098 0.3167 0.0
O182 O 0.83161 0.81231 0.3098 0.0
C183 C 0.83539 0.69095 0.3226 0.0
O184 O 0.81532 0.65697 0.31433 0.0
N185 N 0.8059 0.75188 0.2914 0.0
C186 C 0.78555 0.7637 0.26881 0.0
C187 C 0.8263 0.80468 0.27476 0.0
C188 C 0.83576 0.79802 0.28601 0.0
C189 C 0.76757 0.71076 0.28567 0.0
C190 C 0.75626 0.71601 0.27441 0.0
H191 H 0.86759 0.83007 0.29036 0.0
H192 H 0.74514 0.67382 0.28988 0.0
H193 H 0.92657 0.84261 0.31223 0.0
H194 H 0.99082 0.75798 0.29809 0.0
H195 H 0.63924 0.71939 0.31121 0.0
H196 H 0.85136 0.84163 0.27075 0.0
H197 H 0.72446 0.68315 0.27021 0.0
C198 C 0.87105 0.7507 0.79487 0.0
C199 C 0.84574 0.77884 0.79452 0.0
N200 N 0.86775 0.81738 0.80222 0.0
N201 N 0.90894 0.7716 0.80271 0.0
C202 C 0.90616 0.81229 0.807 0.0
H203 H 0.86066 0.71561 0.79017 0.0
Co204 Co 0.94603 0.74217 0.80858 0.0
C205 C 0.05377 0.82982 0.81053 0.0
O206 O 0.06977 0.79795 0.8072 0.0
N207 N 0.98254 0.71124 0.8151 0.0
C208 C 0.0307 0.6973 0.82756 0.0
C209 C 1.01031 0.72836 0.82479 0.0
C210 C 0.98444 0.66769 0.81253 0.0
N211 N 0.0144 0.65918 0.81984 0.0
O212 O 0.91484 0.73932 0.82292 0.0
H213 H 0.01499 0.76126 0.82965 0.0
H214 H 0.96333 0.64154 0.8057 0.0
O215 O 1.00499 0.81254 0.81179 0.0
C216 C 0.87273 0.6964 0.82423 0.0
O217 O 0.86256 0.65837 0.81716 0.0
N218 N 0.9714 0.74206 0.79389 0.0
C219 C 0.99266 0.7354 0.77113 0.0
C220 C 0.01315 0.78363 0.77648 0.0
C221 C 1.00049 0.78623 0.78772 0.0
C222 C 0.94918 0.69495 0.78863 0.0
C223 C 0.95969 0.69061 0.77727 0.0
H224 H 0.01185 0.824 0.79116 0.0
H225 H 0.92069 0.66078 0.79305 0.0
H226 H 0.92914 0.83519 0.81412 0.0
H227 H 0.81251 0.77047 0.7893 0.0
H228 H 0.05356 0.70085 0.835 0.0
H229 H 0.03625 0.81925 0.7718 0.0
H230 H 0.94119 0.65283 0.77324 0.0
C231 C 0.26198 0.11768 0.79636 0.0
C232 C 0.23406 0.06443 0.79558 0.0
N233 N 0.1956 0.04652 0.8033 0.0
N234 N 0.24105 0.13322 0.8045 0.0
C235 C 0.20055 0.08906 0.80856 0.0
H236 H 0.29681 0.14323 0.79169 0.0
Co237 Co 0.27065 0.19942 0.81055 0.0
C238 C 0.18326 0.21934 0.81322 0.0
O239 O 0.21507 0.26733 0.81002 0.0
N240 N 0.30218 0.26656 0.81722 0.0
C241 C 0.31759 0.32815 0.82993 0.0
C242 C 0.28604 0.27696 0.82707 0.0
C243 C 0.34578 0.31183 0.81464 0.0
N244 N 0.35511 0.35001 0.82209 0.0
O245 O 0.27542 0.1708 0.82468 0.0
H246 H 0.25352 0.24872 0.832 0.0
H247 H 0.37149 0.31686 0.80772 0.0
O248 O 0.20056 0.1877 0.81428 0.0
C249 C 0.31848 0.17162 0.82578 0.0
O250 O 0.35593 0.19939 0.8186 0.0
N251 N 0.26817 0.22505 0.79602 0.0
C252 C 0.2688 0.25202 0.77338 0.0
C253 C 0.22199 0.22282 0.77913 0.0
C254 C 0.22247 0.20803 0.79028 0.0
C255 C 0.31408 0.25145 0.79034 0.0
C256 C 0.31538 0.26583 0.77901 0.0
H257 H 0.18584 0.18029 0.79397 0.0
H258 H 0.34964 0.25844 0.79435 0.0
H259 H 0.17748 0.08787 0.81575 0.0
H260 H 0.24239 0.04062 0.79 0.0
H261 H 0.31486 0.34722 0.83749 0.0
H262 H 0.18519 0.20873 0.77481 0.0
H263 H 0.35217 0.28613 0.77462 0.0
C264 C 0.89832 0.14242 0.79668 0.0
C265 C 0.95171 0.16792 0.79634 0.0
N266 N 0.96839 0.14543 0.80389 0.0
N267 N 0.88158 0.10399 0.80437 0.0
C268 C 0.92509 0.10657 0.80857 0.0
H269 H 0.87349 0.15313 0.79212 0.0
Co270 Co 0.81536 0.06709 0.8103 0.0
C271 C 0.79474 0.95915 0.81189 0.0
O272 O 0.74693 0.94393 0.80865 0.0
N273 N 0.74831 0.03098 0.81691 0.0
C274 C 0.68679 0.98343 0.82948 0.0
C275 C 0.73771 1.00247 0.82647 0.0
C276 C 0.70353 0.03104 0.81468 0.0
N277 N 0.66539 1.00145 0.82205 0.0
O278 O 0.84405 0.09819 0.82459 0.0
H279 H 0.7657 0.99661 0.83113 0.0
H280 H 0.69891 0.05358 0.80811 0.0
O281 O 0.82653 0.00773 0.81335 0.0
C282 C 0.84286 0.14018 0.82583 0.0
O283 O 0.81386 0.14933 0.81886 0.0
N284 N 0.78963 0.0418 0.79563 0.0
C285 C 0.76205 0.02023 0.77288 0.0
C286 C 0.79083 1.00082 0.77819 0.0
C287 C 0.80593 0.01372 0.78942 0.0
C288 C 0.76375 0.0631 0.79038 0.0
C289 C 0.74906 0.0524 0.77902 0.0
H290 H 0.83323 1.00341 0.79283 0.0
H291 H 0.75738 0.0912 0.7948 0.0
H292 H 0.92519 0.08325 0.81559 0.0
H293 H 0.97642 0.20166 0.79127 0.0
H294 H 0.6677 0.9605 0.83691 0.0
H295 H 0.80424 0.97844 0.7735 0.0
H296 H 0.72905 0.07018 0.77498 0.0
C297 C 0.74311 0.85369 0.6974 0.0
C298 C 0.76934 0.82644 0.69727 0.0
N299 N 0.81259 0.85299 0.69097 0.0
N300 N 0.76974 0.89723 0.69124 0.0
C301 C 0.81202 0.89591 0.68748 0.0
H302 H 0.70602 0.84163 0.70136 0.0
Co303 Co 0.74589 0.9419 0.68716 0.0
C304 C 0.83957 0.03146 0.67692 0.0
O305 O 0.81296 0.03543 0.66849 0.0
N306 N 0.72089 0.987 0.68316 0.0
C307 C 0.7091 0.05527 0.6836 0.0
C308 C 0.7415 0.03674 0.6866 0.0
C309 C 0.67558 0.97615 0.67816 0.0
N310 N 0.66726 0.0171 0.67831 0.0
O311 O 0.73866 0.91589 0.67201 0.0
H312 H 0.77699 0.05778 0.69142 0.0
H313 H 0.64866 0.93854 0.67471 0.0
O314 O 0.81688 0.99605 0.68433 0.0
C315 C 0.69655 0.87285 0.67067 0.0
O316 O 0.65958 0.85983 0.6782 0.0
N317 N 0.75019 0.96268 0.70222 0.0
C318 C 0.74585 0.98424 0.72496 0.0
C319 C 0.79362 1.00559 0.71935 0.0
C320 C 0.79511 0.99369 0.70798 0.0
C321 C 0.7034 0.94173 0.70754 0.0
C322 C 0.70031 0.95175 0.71897 0.0
H323 H 0.83249 0.00891 0.70397 0.0
H324 H 0.66835 0.91655 0.70288 0.0
H325 H 0.84014 0.92414 0.6817 0.0
H326 H 0.75706 0.78951 0.70134 0.0
H327 H 0.71526 0.09341 0.68561 0.0
H328 H 0.82963 0.02995 0.72381 0.0
H329 H 0.6628 0.93431 0.72309 0.0
C330 C 0.1538 0.89397 0.69692 0.0
C331 C 0.17847 0.94745 0.69675 0.0
N332 N 0.14753 0.96142 0.69131 0.0
N333 N 0.10785 0.87467 0.69153 0.0
C334 C 0.10506 0.91677 0.68826 0.0
H335 H 0.17023 0.87081 0.69987 0.0
Co336 Co 0.07024 0.80818 0.68567 0.0
C337 C 0.96164 0.78663 0.68399 0.0
O338 O 0.94641 0.73884 0.68721 0.0
N339 N 0.03357 0.741 0.67909 0.0
C340 C 0.98623 0.68052 0.66629 0.0
C341 C 1.00702 0.73169 0.66926 0.0
C342 C 0.03029 0.69489 0.68161 0.0
N343 N 1.00092 0.65739 0.67405 0.0
O344 O 0.10046 0.83686 0.67135 0.0
H345 H 1.00343 0.76068 0.66445 0.0
H346 H 0.04981 0.68867 0.68862 0.0
O347 O 1.0103 0.8188 0.68277 0.0
C348 C 0.14206 0.83521 0.66978 0.0
O349 O 0.15117 0.80504 0.67637 0.0
N350 N 0.04614 0.78265 0.70037 0.0
C351 C 0.02626 0.75405 0.72311 0.0
C352 C 1.00487 0.78141 0.71794 0.0
C353 C 0.01683 0.797 0.7067 0.0
C354 C 0.06927 0.75819 0.70546 0.0
C355 C 0.05948 0.74302 0.71681 0.0
H356 H 1.00454 0.8229 0.70337 0.0
H357 H 0.09751 0.75264 0.70085 0.0
H358 H 0.07528 0.9151 0.68272 0.0
H359 H 0.21716 0.97398 0.69983 0.0
H360 H 0.96406 0.66222 0.65871 0.0
H361 H 0.98146 0.79324 0.72274 0.0
H362 H 0.07852 0.72392 0.72069 0.0
C363 C 0.11153 0.26842 0.69372 0.0
C364 C 0.05824 0.24056 0.69255 0.0
N365 N 0.04503 0.19332 0.68843 0.0
N366 N 0.13168 0.23895 0.69025 0.0
C367 C 0.09008 0.19334 0.68713 0.0
H368 H 0.13438 0.30852 0.69633 0.0
Co369 Co 0.20181 0.26262 0.68754 0.0
C370 C 0.20021 0.16793 0.67846 0.0
O371 O 0.23296 0.19338 0.67026 0.0
N372 N 0.27309 0.28708 0.68484 0.0
C373 C 0.35224 0.29696 0.68645 0.0
C374 C 0.30062 0.26591 0.68905 0.0
C375 C 0.30925 0.33145 0.67982 0.0
N376 N 0.35784 0.33847 0.68068 0.0
O377 O 0.18859 0.26918 0.67195 0.0
H378 H 0.28446 0.23077 0.69403 0.0
H379 H 0.30035 0.35856 0.67575 0.0
O380 O 0.18613 0.19171 0.68528 0.0
C381 C 0.1892 0.31172 0.67002 0.0
O382 O 0.21197 0.34928 0.67748 0.0
N383 N 0.213 0.25891 0.70297 0.0
C384 C 0.23779 0.2642 0.72579 0.0
C385 C 0.21018 0.2161 0.72034 0.0
C386 C 0.19732 0.21417 0.70893 0.0
C387 C 0.23884 0.30596 0.7082 0.0
C388 C 0.25146 0.30953 0.71967 0.0
H389 H 0.17495 0.17664 0.70498 0.0
H390 H 0.25012 0.34091 0.70337 0.0
H391 H 0.09266 0.16199 0.68314 0.0
H392 H 0.03144 0.25434 0.69431 0.0
H393 H 0.3834 0.29031 0.68901 0.0
H394 H 0.19799 0.18028 0.72492 0.0
H395 H 0.27242 0.34728 0.72367 0.0
C396 C 0.81133 0.59565 0.53707 0.0
C397 C 0.83754 0.56843 0.53769 0.0
N398 N 0.81763 0.53035 0.52986 0.0
N399 N 0.7749 0.5746 0.52892 0.0
C400 C 0.77946 0.53474 0.52473 0.0
H401 H 0.8202 0.63027 0.54179 0.0
Co402 Co 0.73768 0.60309 0.52259 0.0
C403 C 0.63098 0.51478 0.52013 0.0
O404 O 0.61375 0.54605 0.52315 0.0
N405 N 0.7012 0.63292 0.51561 0.0
C406 C 0.65488 0.64583 0.50249 0.0
C407 C 0.67579 0.61572 0.50566 0.0
C408 C 0.6972 0.67545 0.51801 0.0
N409 N 0.66841 0.68341 0.51026 0.0
O410 O 0.77002 0.60547 0.50852 0.0
H411 H 0.67308 0.58339 0.50089 0.0
H412 H 0.71582 0.70115 0.52506 0.0
O413 O 0.67998 0.53264 0.51929 0.0
C414 C 0.81201 0.64821 0.50706 0.0
O415 O 0.82195 0.68727 0.5138 0.0
N416 N 0.71059 0.60325 0.53707 0.0
C417 C 0.68793 0.60956 0.55975 0.0
C418 C 0.66795 0.56141 0.55439 0.0
C419 C 0.68128 0.559 0.5432 0.0
C420 C 0.73193 0.65037 0.54232 0.0
C421 C 0.72078 0.65451 0.55365 0.0
H422 H 0.67049 0.5213 0.53981 0.0
H423 H 0.76036 0.6847 0.53792 0.0
H424 H 0.75801 0.51203 0.51745 0.0
H425 H 0.87002 0.57722 0.5432 0.0
H426 H 0.63345 0.64193 0.49479 0.0
H427 H 0.64494 0.52571 0.55905 0.0
H428 H 0.73884 0.69224 0.55769 0.0
C429 C 0.42563 0.22482 0.53298 0.0
C430 C 0.45254 0.27795 0.53404 0.0
N431 N 0.49205 0.29726 0.52657 0.0
N432 N 0.44829 0.21078 0.52493 0.0
C433 C 0.48879 0.25571 0.5212 0.0
H434 H 0.3902 0.19838 0.53734 0.0
Co435 Co 0.42039 0.14568 0.51847 0.0
C436 C 0.50987 0.12803 0.51582 0.0
O437 O 0.47868 0.07923 0.51856 0.0
N438 N 0.39026 0.07946 0.51149 0.0
C439 C 0.37482 0.01771 0.49883 0.0
C440 C 0.40675 0.06891 0.50171 0.0
C441 C 0.34634 0.03447 0.51401 0.0
N442 N 0.33687 0.99623 0.50658 0.0
O443 O 0.41705 0.17594 0.50445 0.0
H444 H 0.43972 0.09699 0.49687 0.0
H445 H 0.32046 0.02963 0.52087 0.0
O446 O 0.49152 0.15892 0.5151 0.0
C447 C 0.37405 0.17533 0.50338 0.0
O448 O 0.33612 0.14629 0.51036 0.0
N449 N 0.42081 0.11832 0.53286 0.0
C450 C 0.41495 0.08966 0.55551 0.0
C451 C 0.46295 0.1168 0.55009 0.0
C452 C 0.46519 0.13251 0.53892 0.0
C453 C 0.3739 0.09367 0.5382 0.0
C454 C 0.36995 0.07846 0.54951 0.0
H455 H 0.5029 0.15906 0.53552 0.0
H456 H 0.33972 0.08902 0.53392 0.0
H457 H 0.51295 0.25817 0.51411 0.0
H458 H 0.44274 0.30073 0.53959 0.0
H459 H 0.37768 0.99843 0.49131 0.0
H460 H 0.49873 0.1289 0.5547 0.0
H461 H 0.33241 0.05977 0.55363 0.0
C462 C 0.79532 0.20406 0.53201 0.0
C463 C 0.74188 0.17731 0.53203 0.0
N464 N 0.72512 0.20281 0.52536 0.0
N465 N 0.81215 0.24629 0.52539 0.0
C466 C 0.76853 0.24476 0.52154 0.0
H467 H 0.82026 0.19176 0.53594 0.0
Co468 Co 0.87904 0.28631 0.51989 0.0
C469 C 0.89722 0.39376 0.52008 0.0
O470 O 0.94483 0.4092 0.52352 0.0
N471 N 0.94695 0.32575 0.5137 0.0
C472 C 1.00972 0.37781 0.5018 0.0
C473 C 0.95848 0.35767 0.50469 0.0
C474 C 0.99165 0.32512 0.5157 0.0
N475 N 0.03058 0.35728 0.50873 0.0
O476 O 0.85182 0.25996 0.50515 0.0
H477 H 0.93086 0.36495 0.50028 0.0
H478 H 0.99558 0.30022 0.52176 0.0
O479 O 0.86667 0.34553 0.51793 0.0
C480 C 0.8562 0.2211 0.50216 0.0
O481 O 0.89019 0.21282 0.5075 0.0
N482 N 0.90313 0.30697 0.53491 0.0
C483 C 0.93101 0.32436 0.55775 0.0
C484 C 0.901 0.34353 0.55292 0.0
C485 C 0.8858 0.33268 0.54163 0.0
C486 C 0.92976 0.28539 0.53969 0.0
C487 C 0.94463 0.29403 0.55109 0.0
H488 H 0.85804 0.34303 0.53854 0.0
H489 H 0.93703 0.25892 0.53484 0.0
H490 H 0.76857 0.27122 0.51525 0.0
H491 H 0.71726 0.14077 0.53624 0.0
H492 H 0.0293 0.40315 0.49472 0.0
H493 H 0.88704 0.36438 0.558 0.0
H494 H 0.96555 0.27634 0.55472 0.0
C495 C 0.92958 0.47346 0.63014 0.0
C496 C 0.90229 0.49962 0.62977 0.0
N497 N 0.86218 0.47678 0.63706 0.0
N498 N 0.90664 0.43411 0.63758 0.0
C499 C 0.86543 0.43681 0.64159 0.0
H500 H 0.96558 0.48435 0.6258 0.0
Co501 Co 0.93558 0.39638 0.64346 0.0
C502 C 0.84894 0.28803 0.64466 0.0
O503 O 0.88173 0.27315 0.64135 0.0
N504 N 0.96614 0.35945 0.64996 0.0
C505 C 0.97961 0.31081 0.66236 0.0
C506 C 0.94841 0.33097 0.65953 0.0
C507 C 1.01007 0.35807 0.64751 0.0
N508 N 0.01837 0.32789 0.65479 0.0
O509 O 0.93576 0.42535 0.65795 0.0
H510 H 0.91505 0.32573 0.66428 0.0
H511 H 0.03669 0.37982 0.64082 0.0
O512 O 0.86514 0.33654 0.64608 0.0
C513 C 0.9791 0.46421 0.66084 0.0
O514 O 0.02114 0.47217 0.65547 0.0
N515 N 0.93794 0.37304 0.62865 0.0
C516 C 0.94726 0.35402 0.60586 0.0
C517 C 0.89845 0.33268 0.61096 0.0
C518 C 0.89452 0.34423 0.62222 0.0
C519 C 0.98562 0.39612 0.62364 0.0
C520 C 0.99128 0.38677 0.61226 0.0
H521 H 0.85629 0.33214 0.62547 0.0
H522 H 0.01922 0.42434 0.62829 0.0
H523 H 0.84095 0.41272 0.6484 0.0
H524 H 0.91239 0.53403 0.62483 0.0
H525 H 0.97576 0.28769 0.66976 0.0
H526 H 0.86337 0.30974 0.60608 0.0
H527 H 0.02947 0.40595 0.60844 0.0
C528 C 0.52836 0.44578 0.63433 0.0
C529 C 0.50443 0.39233 0.63442 0.0
N530 N 0.53625 0.37889 0.63965 0.0
N531 N 0.57473 0.46558 0.63956 0.0
C532 C 0.57844 0.4238 0.64267 0.0
H533 H 0.51133 0.46856 0.63149 0.0
Co534 Co 0.61302 0.5325 0.6452 0.0
C535 C 0.72168 0.5526 0.64609 0.0
O536 O 0.7374 0.60041 0.64279 0.0
N537 N 0.65057 0.6004 0.65153 0.0
C538 C 0.70041 0.66327 0.66368 0.0
C539 C 0.68072 0.61198 0.66087 0.0
C540 C 0.65046 0.64512 0.64923 0.0
N541 N 0.6813 0.68408 0.65636 0.0
O542 O 0.5843 0.50471 0.65971 0.0
H543 H 0.68731 0.58444 0.66551 0.0
H544 H 0.62715 0.64918 0.64276 0.0
O545 O 0.67309 0.52156 0.64774 0.0
C546 C 0.54264 0.50631 0.66126 0.0
O547 O 0.53346 0.53617 0.65458 0.0
N548 N 0.63537 0.55717 0.63037 0.0
C549 C 0.65432 0.58686 0.60769 0.0
C550 C 0.67554 0.55884 0.61262 0.0
C551 C 0.66399 0.54267 0.62384 0.0
C552 C 0.61195 0.58176 0.62548 0.0
C553 C 0.62134 0.59754 0.61416 0.0
H554 H 0.67619 0.51645 0.62701 0.0
H555 H 0.58381 0.58697 0.63021 0.0
H556 H 0.60885 0.42579 0.64804 0.0
H557 H 0.46574 0.36542 0.6314 0.0
H558 H 0.7247 0.68308 0.67091 0.0
H559 H 0.69863 0.54713 0.60767 0.0
H560 H 0.60227 0.61697 0.61046 0.0
C561 C 0.56324 0.07335 0.63031 0.0
C562 C 0.61667 0.09891 0.63044 0.0
N563 N 0.63376 0.1405 0.63732 0.0
N564 N 0.54683 0.09881 0.63704 0.0
C565 C 0.59062 0.13953 0.64119 0.0
H566 H 0.53793 0.03769 0.62586 0.0
Co567 Co 0.47878 0.07691 0.64112 0.0
C568 C 0.4872 0.1724 0.65139 0.0
O569 O 0.45739 0.1469 0.66 0.0
N570 N 0.40946 0.05438 0.64515 0.0
C571 C 0.33094 0.04639 0.64504 0.0
C572 C 0.38188 0.07708 0.64193 0.0
C573 C 0.37408 0.0095 0.6501 0.0
N574 N 0.32577 1.00359 0.65016 0.0
O575 O 0.49696 0.06934 0.65624 0.0
H576 H 0.39739 0.11286 0.63719 0.0
H577 H 0.38343 0.98121 0.65337 0.0
O578 O 0.49777 0.14846 0.64386 0.0
C579 C 0.49818 0.02724 0.65732 0.0
O580 O 0.47521 0.99127 0.64953 0.0
N581 N 0.46243 0.08122 0.6261 0.0
C582 C 0.43606 0.07605 0.60341 0.0
C583 C 0.46351 0.12412 0.60888 0.0
C584 C 0.4771 0.126 0.62024 0.0
C585 C 0.43554 0.03417 0.62092 0.0
C586 C 0.42217 0.03065 0.60951 0.0
H587 H 0.49997 0.1635 0.62417 0.0
H588 H 0.42506 0.99923 0.62568 0.0
H589 H 0.59086 0.1665 0.64737 0.0
H590 H 0.64102 0.08752 0.6259 0.0
H591 H 0.29983 0.0542 0.64321 0.0
H592 H 0.47575 0.15998 0.60431 0.0
H593 H 0.40126 0.99292 0.60549 0.0
C594 C 0.51897 0.10931 0.1331 0.0
C595 C 0.49651 0.13839 0.13595 0.0
N596 N 0.53369 0.18392 0.1401 0.0
N597 N 0.57043 0.13603 0.13547 0.0
C598 C 0.57804 0.18188 0.13962 0.0
H599 H 0.4982 0.07 0.12995 0.0
Co600 Co 0.61502 0.10677 0.13616 0.0
C601 C 0.69286 0.19079 0.14154 0.0
O602 O 0.69093 0.1847 0.1305 0.0
N603 N 0.65802 0.07698 0.13751 0.0
C604 C 0.71679 0.05346 0.13375 0.0
C605 C 0.69692 0.08459 0.13046 0.0
C606 C 0.65531 0.04147 0.14505 0.0
N607 N 0.69022 0.02595 0.14288 0.0
O608 O 0.56643 0.06058 0.14761 0.0
H609 H 0.70881 0.10977 0.12315 0.0
H610 H 0.62753 0.02641 0.15189 0.0
O611 O 0.65606 0.1563 0.14753 0.0
C612 C 0.52162 0.01978 0.14743 0.0
O613 O 0.50485 0.99199 0.13817 0.0
N614 N 0.58192 0.06365 0.1234 0.0
C615 C 0.57791 0.02893 0.10124 0.0
C616 C 0.57779 0.07503 0.10337 0.0
C617 C 0.58163 0.09244 0.11441 0.0
C618 C 0.57826 0.01643 0.12148 0.0
C619 C 0.57675 0.99858 0.11042 0.0
H620 H 0.58996 0.13186 0.11557 0.0
H621 H 0.58157 0.9945 0.12839 0.0
H622 H 0.61449 0.2121 0.14291 0.0
H623 H 0.45575 0.12653 0.13527 0.0
H624 H 0.74699 0.04984 0.12946 0.0
H625 H 0.58078 0.10053 0.0965 0.0
H626 H 0.57811 0.96326 0.10905 0.0
C627 C 0.92731 0.45963 0.13383 0.0
C628 C 0.89755 0.4064 0.134 0.0
N629 N 0.86026 0.39276 0.14192 0.0
N630 N 0.90848 0.47944 0.1415 0.0
C631 C 0.8677 0.4379 0.14629 0.0
H632 H 0.96151 0.4824 0.12873 0.0
Co633 Co 0.94019 0.54751 0.14629 0.0
C634 C 0.85669 0.57287 0.14877 0.0
O635 O 0.88953 0.61872 0.1446 0.0
N636 N 0.97367 0.61649 0.15179 0.0
C637 C 0.99093 0.68088 0.16381 0.0
C638 C 0.9606 0.62876 0.16182 0.0
C639 C 0.01432 0.6619 0.14815 0.0
N640 N 0.02456 0.70164 0.15521 0.0
O641 O 0.94796 0.52384 0.16081 0.0
H642 H 0.93066 0.60124 0.16739 0.0
H643 H 0.03708 0.66613 0.14071 0.0
O644 O 0.8715 0.53942 0.15031 0.0
C645 C 0.99172 0.52586 0.16162 0.0
O646 O 0.02703 0.55176 0.15388 0.0
N647 N 0.93498 0.56782 0.13136 0.0
C648 C 0.93108 0.58538 0.10826 0.0
C649 C 0.8855 0.5594 0.11459 0.0
C650 C 0.88817 0.54928 0.126 0.0
C651 C 0.97965 0.5912 0.12518 0.0
C652 C 0.97869 0.60084 0.11361 0.0
H653 H 0.85222 0.52393 0.13026 0.0
H654 H 0.01595 0.59968 0.12906 0.0
H655 H 0.84557 0.44068 0.15325 0.0
H656 H 0.90314 0.37985 0.12872 0.0
H657 H 0.99014 0.7016 0.17128 0.0
H658 H 0.84787 0.54426 0.11059 0.0
H659 H 0.01455 0.61898 0.10884 0.0
C660 C 0.57876 0.52069 0.13354 0.0
C661 C 0.63212 0.54615 0.13428 0.0
N662 N 0.64574 0.51809 0.14095 0.0
N663 N 0.55906 0.4769 0.13972 0.0
C664 C 0.60076 0.47633 0.14411 0.0
H665 H 0.55571 0.53396 0.12911 0.0
Co666 Co 0.48975 0.43299 0.14306 0.0
C667 C 0.49235 0.34374 0.15426 0.0
O668 O 0.45954 0.33821 0.16231 0.0
N669 N 0.41906 0.38835 0.14639 0.0
C670 C 0.33915 0.32019 0.14583 0.0
C671 C 0.39011 0.33869 0.14289 0.0
C672 C 0.3846 0.3991 0.1514 0.0
N673 N 0.33545 0.35828 0.15117 0.0
O674 O 0.50456 0.46023 0.15813 0.0
H675 H 0.40489 0.31754 0.13821 0.0
H676 H 0.39531 0.43634 0.15507 0.0
O677 O 0.50543 0.37922 0.14688 0.0
C678 C 0.50478 0.50318 0.15886 0.0
O679 O 0.48286 0.51535 0.15067 0.0
N680 N 0.47727 0.41066 0.12801 0.0
C681 C 0.45499 0.38261 0.1054 0.0
C682 C 0.48384 0.36612 0.11175 0.0
C683 C 0.49544 0.38136 0.12303 0.0
C684 C 0.44985 0.42775 0.1219 0.0
C685 C 0.43843 0.41435 0.11051 0.0
H686 H 0.51941 0.36981 0.12762 0.0
H687 H 0.43683 0.45193 0.12593 0.0
H688 H 0.5983 0.44749 0.15004 0.0
H689 H 0.65878 0.58269 0.1303 0.0
H690 H 0.30727 0.28195 0.14387 0.0
H691 H 0.4982 0.34254 0.10796 0.0
H692 H 0.41645 0.4281 0.10577 0.0
C693 C 0.41561 0.18265 0.0342 0.0
C694 C 0.44231 0.15586 0.03422 0.0
N695 N 0.4803 0.17726 0.02641 0.0
N696 N 0.43679 0.22069 0.02641 0.0
C697 C 0.47616 0.21652 0.02182 0.0
H698 H 0.38184 0.17389 0.03923 0.0
Co699 Co 0.41046 0.26235 0.02172 0.0
C700 C 0.50217 0.34908 0.00963 0.0
O701 O 0.47472 0.3527 0.00133 0.0
N702 N 0.38297 0.30435 0.01708 0.0
C703 C 0.37012 0.3717 0.01567 0.0
C704 C 0.40412 0.35569 0.01904 0.0
C705 C 0.33559 0.2899 0.01268 0.0
N706 N 0.32662 0.33026 0.01172 0.0
O707 O 0.39779 0.22914 0.0072 0.0
H708 H 0.44153 0.37992 0.02295 0.0
H709 H 0.30754 0.25017 0.01063 0.0
O710 O 0.48001 0.3152 0.01735 0.0
C711 C 0.35685 0.18446 0.00723 0.0
O712 O 0.32437 0.17272 0.01573 0.0
N713 N 0.42039 0.29063 0.03625 0.0
C714 C 0.4256 0.32321 0.05851 0.0
C715 C 0.47086 0.34095 0.05208 0.0
C716 C 0.46758 0.32352 0.041 0.0
C717 C 0.37594 0.2732 0.04237 0.0
C718 C 0.37765 0.28877 0.05358 0.0
H719 H 0.50323 0.33586 0.03643 0.0
H720 H 0.33904 0.24639 0.03854 0.0
H721 H 0.49954 0.23995 0.01482 0.0
H722 H 0.434 0.12277 0.03947 0.0
H723 H 0.37722 0.41104 0.01614 0.0
H724 H 0.50861 0.36671 0.05574 0.0
H725 H 0.34199 0.27403 0.05837 0.0
C726 C 0.81406 0.21559 0.03293 0.0
C727 C 0.83875 0.26909 0.03266 0.0
N728 N 0.80949 0.28296 0.02651 0.0
N729 N 0.76971 0.19607 0.02691 0.0
C730 C 0.76793 0.23813 0.02314 0.0
H731 H 0.82953 0.19253 0.03646 0.0
Co732 Co 0.73331 0.12895 0.02116 0.0
C733 C 0.62549 0.10725 0.01863 0.0
O734 O 0.6106 0.06006 0.02226 0.0
N735 N 0.69827 0.06138 0.0146 0.0
C736 C 0.65097 0.99925 0.00206 0.0
C737 C 0.67053 0.05045 0.00489 0.0
C738 C 0.69785 0.0165 0.01701 0.0
N739 N 0.66815 0.97798 0.00971 0.0
O740 O 0.76644 0.15675 0.00705 0.0
H741 H 0.66516 0.07829 5e-05 0.0
H742 H 0.72006 0.01189 0.02364 0.0
O743 O 0.67408 0.13933 0.01725 0.0
C744 C 0.80845 0.15567 0.00579 0.0
O745 O 0.81828 0.12727 0.01278 0.0
N746 N 0.70449 0.1038 0.03572 0.0
C747 C 0.65872 0.063 0.05667 0.0
C748 C 0.65294 0.10225 0.0515 0.0
C749 C 0.67731 0.12311 0.04123 0.0
C750 C 0.71614 0.07078 0.04131 0.0
C751 C 0.6925 0.04865 0.05166 0.0
H752 H 0.67394 0.15479 0.03769 0.0
H753 H 0.74477 0.06237 0.03792 0.0
H754 H 0.73962 0.23625 0.01712 0.0
H755 H 0.87642 0.29571 0.03622 0.0
H756 H 0.62788 0.97971 0.99467 0.0
H757 H 0.63056 0.11761 0.05546 0.0
H758 H 0.70067 0.02075 0.05566 0.0
C759 C 0.77053 0.58552 0.02813 0.0
C760 C 0.71753 0.55674 0.02651 0.0
N761 N 0.70643 0.51129 0.0217 0.0
N762 N 0.79262 0.55838 0.02429 0.0
C763 C 0.75245 0.51326 0.02044 0.0
H764 H 0.7919 0.6248 0.03133 0.0
Co765 Co 0.86348 0.58473 0.02187 0.0
C766 C 0.86695 0.49089 0.01335 0.0
O767 O 0.90249 0.5167 0.00565 0.0
N768 N 0.93562 0.61207 0.01941 0.0
C769 C 0.01637 0.62667 0.02147 0.0
C770 C 0.965 0.59392 0.02406 0.0
C771 C 0.97044 0.65625 0.01408 0.0
N772 N 0.02004 0.66623 0.01522 0.0
O773 O 0.85104 0.59193 0.00625 0.0
H774 H 0.95021 0.55963 0.02929 0.0
H775 H 0.95978 0.68102 0.00954 0.0
O776 O 0.85027 0.51435 0.0196 0.0
C777 C 0.85062 0.63429 0.00475 0.0
O778 O 0.87127 0.67001 0.01267 0.0
N779 N 0.87384 0.58093 0.03736 0.0
C780 C 0.89697 0.5874 0.06033 0.0
C781 C 0.87214 0.53919 0.05484 0.0
C782 C 0.86009 0.53661 0.04334 0.0
C783 C 0.89704 0.62798 0.04262 0.0
C784 C 0.90879 0.63212 0.05415 0.0
H785 H 0.83991 0.49898 0.03935 0.0
H786 H 0.90689 0.66254 0.03777 0.0
H787 H 0.75688 0.48389 0.01601 0.0
H788 H 0.68947 0.56872 0.02847 0.0
H789 H 0.04858 0.62232 0.02433 0.0
H790 H 0.86145 0.50374 0.05943 0.0
H791 H 0.92768 0.66996 0.05815 0.0
C792 C 0.50913 0.93356 0.86043 0.0
C793 C 0.53367 0.9049 0.85915 0.0
N794 N 0.49899 0.8581 0.85497 0.0
N795 N 0.45945 0.90504 0.85696 0.0
C796 C 0.4544 0.8591 0.85374 0.0
H797 H 0.52695 0.97349 0.8632 0.0
Co798 Co 0.41452 0.93091 0.85478 0.0
C799 C 0.3226 0.84401 0.8435 0.0
O800 O 0.3187 0.87496 0.83613 0.0
N801 N 0.36948 0.95792 0.85263 0.0
C802 C 0.30156 0.96993 0.85429 0.0
C803 C 0.32137 0.9383 0.85703 0.0
C804 C 0.37796 1.00169 0.84726 0.0
N805 N 0.33723 0.01005 0.84814 0.0
O806 O 0.43779 0.94447 0.83944 0.0
H807 H 0.30197 0.90333 0.86206 0.0
H808 H 0.41323 0.02691 0.84275 0.0
O809 O 0.35904 0.86233 0.85079 0.0
C810 C 0.48039 0.98692 0.83812 0.0
O811 O 0.49507 0.02216 0.84613 0.0
N812 N 0.39567 0.91922 0.87005 0.0
C813 C 0.37104 0.91006 0.89294 0.0
C814 C 0.35352 0.86578 0.88618 0.0
C815 C 0.36707 0.8711 0.87476 0.0
C816 C 0.41402 0.9627 0.87656 0.0
C817 C 0.40232 0.95901 0.88809 0.0
H818 H 0.35454 0.83635 0.86982 0.0
H819 H 0.43761 1.00043 0.87274 0.0
H820 H 0.4199 0.82801 0.84989 0.0
H821 H 0.574 0.9177 0.86095 0.0
H822 H 0.2641 0.96415 0.85684 0.0
H823 H 0.33026 0.82734 0.88974 0.0
H824 H 0.41683 0.99398 0.89313 0.0
C825 C 0.08153 0.57139 0.85734 0.0
C826 C 0.10971 0.62456 0.85615 0.0
N827 N 0.15721 0.63736 0.85229 0.0
N828 N 0.11107 0.55093 0.85413 0.0
C829 C 0.15711 0.59218 0.85117 0.0
H830 H 0.04131 0.54881 0.85986 0.0
Co831 Co 0.08671 0.48057 0.85195 0.0
C832 C 0.1776 0.47704 0.84223 0.0
O833 O 0.14907 0.44264 0.83453 0.0
N834 N 0.06113 0.40879 0.84983 0.0
C835 C 0.04977 0.32936 0.85205 0.0
C836 C 0.08131 0.38112 0.85445 0.0
C837 C 0.01701 0.37265 0.84472 0.0
N838 N 1.00906 0.3239 0.84595 0.0
O839 O 0.07664 0.49079 0.83636 0.0
H840 H 0.11627 0.39741 0.85952 0.0
H841 H 0.99091 0.38171 0.84024 0.0
O842 O 0.15689 0.49468 0.84903 0.0
C843 C 0.03383 0.49008 0.83473 0.0
O844 O 0.99762 0.46845 0.8425 0.0
N845 N 0.0942 0.4728 0.86737 0.0
C846 C 0.09571 0.45521 0.89039 0.0
C847 C 0.14216 0.48215 0.88434 0.0
C848 C 0.14067 0.49144 0.87283 0.0
C849 C 0.04868 0.44766 0.87319 0.0
C850 C 0.04852 0.43858 0.88478 0.0
H851 H 0.17696 0.5136 0.8684 0.0
H852 H 0.01233 0.43424 0.86875 0.0
H853 H 0.18902 0.58927 0.84759 0.0
H854 H 0.09616 0.65162 0.85783 0.0
H855 H 0.05569 0.2981 0.85489 0.0
H856 H 0.17929 0.4964 0.88852 0.0
H857 H 0.01197 0.41795 0.88926 0.0
C858 C 0.44585 0.50556 0.86042 0.0
C859 C 0.39271 0.48116 0.85901 0.0
N860 N 0.38082 0.5157 0.85459 0.0
N861 N 0.4672 0.55504 0.85682 0.0
C862 C 0.4265 0.56003 0.85337 0.0
H863 H 0.46778 0.48766 0.86329 0.0
Co864 Co 0.53779 0.60041 0.85433 0.0
C865 C 0.53928 0.69308 0.84446 0.0
O866 O 0.57087 0.6965 0.83631 0.0
N867 N 0.60941 0.64615 0.85169 0.0
C868 C 0.68908 0.71456 0.85299 0.0
C869 C 0.63792 0.69449 0.85599 0.0
C870 C 0.64441 0.63781 0.84613 0.0
N871 N 0.69333 0.67882 0.8468 0.0
O872 O 0.52534 0.57948 0.83878 0.0
H873 H 0.62262 0.71359 0.86122 0.0
H874 H 0.63433 0.60232 0.84168 0.0
O875 O 0.52387 0.65673 0.85172 0.0
C876 C 0.52545 0.53709 0.83715 0.0
O877 O 0.54736 0.52239 0.84485 0.0
N878 N 0.54775 0.61656 0.86979 0.0
C879 C 0.56403 0.63665 0.89288 0.0
C880 C 0.52685 0.64385 0.88714 0.0
C881 C 0.51941 0.63378 0.87555 0.0
C882 C 0.58286 0.60769 0.87534 0.0
C883 C 0.59241 0.61853 0.88688 0.0
H884 H 0.49029 0.63907 0.87125 0.0
H885 H 0.60384 0.59246 0.87075 0.0
H886 H 0.43024 0.59423 0.84927 0.0
H887 H 0.36512 0.44092 0.86082 0.0
H888 H 0.72079 0.75211 0.85547 0.0
H889 H 0.50393 0.65735 0.89158 0.0
H890 H 0.62084 0.61181 0.89112 0.0
C891 C 0.60002 0.81562 0.97216 0.0
C892 C 0.57147 0.84043 0.97315 0.0
N893 N 0.52509 0.80691 0.97771 0.0
N894 N 0.57179 0.76678 0.97609 0.0
C895 C 0.52624 0.76258 0.97939 0.0
H896 H 0.63997 0.83302 0.96943 0.0
Co897 Co 0.5986 0.72358 0.97966 0.0
C898 C 0.51056 0.61771 0.97789 0.0
O899 O 0.54262 0.60675 0.9725 0.0
N900 N 0.62751 0.68136 0.98417 0.0
C901 C 0.63709 0.62341 0.99436 0.0
C902 C 0.60563 0.6438 0.99214 0.0
C903 C 0.6747 0.68558 0.98243 0.0
N904 N 0.68064 0.64961 0.98824 0.0
O905 O 0.60224 0.74557 0.99495 0.0
H906 H 0.56976 0.63315 0.99651 0.0
H907 H 0.70565 0.71637 0.97766 0.0
O908 O 0.52727 0.66375 0.98176 0.0
C909 C 0.64626 0.78379 0.9977 0.0
O910 O 0.68699 0.79193 0.99176 0.0
N911 N 0.59609 0.70628 0.964 0.0
C912 C 0.5895 0.68332 0.9408 0.0
C913 C 0.54705 0.68016 0.94666 0.0
C914 C 0.55124 0.69213 0.95813 0.0
C915 C 0.63911 0.71387 0.95825 0.0
C916 C 0.6364 0.70133 0.94674 0.0
H917 H 0.51788 0.68998 0.96228 0.0
H918 H 0.67617 0.73102 0.96239 0.0
H919 H 0.49606 0.7292 0.98376 0.0
H920 H 0.5844 0.88048 0.97104 0.0
H921 H 0.63013 0.59415 0.00064 0.0
H922 H 0.51077 0.66937 0.94241 0.0
H923 H 0.67086 0.70592 0.94258 0.0
C924 C 0.17951 0.75598 0.97049 0.0
C925 C 0.15523 0.70289 0.97187 0.0
N926 N 0.1878 0.69176 0.97752 0.0
N927 N 0.22688 0.77792 0.97533 0.0
C928 C 0.23079 0.73771 0.97952 0.0
H929 H 0.16282 0.77745 0.9667 0.0
Co930 Co 0.2698 0.84832 0.97811 0.0
C931 C 0.36437 0.85346 0.98882 0.0
O932 O 0.37099 0.88927 0.99621 0.0
N933 N 0.31306 0.92029 0.98091 0.0
C934 C 0.37938 1.00103 0.97952 0.0
C935 C 0.36139 0.95001 0.97675 0.0
C936 C 0.30257 0.95455 0.98618 0.0
N937 N 0.3424 1.00427 0.98547 0.0
O938 O 0.24389 0.83511 0.99331 0.0
H939 H 0.3821 0.93565 0.97177 0.0
H940 H 0.26618 0.94318 0.99036 0.0
O941 O 0.32621 0.83568 0.98196 0.0
C942 C 0.19969 0.83245 0.99382 0.0
O943 O 0.18628 0.85236 0.98543 0.0
N944 N 0.29038 0.85877 0.96294 0.0
C945 C 0.31628 0.87882 0.94017 0.0
C946 C 0.33477 0.85205 0.94666 0.0
C947 C 0.32058 0.8415 0.95801 0.0
C948 C 0.27125 0.88401 0.95669 0.0
C949 C 0.28357 0.89429 0.94523 0.0
H950 H 0.3338 0.81922 0.96273 0.0
H951 H 0.24644 0.89635 0.96067 0.0
H952 H 0.263 0.74189 0.98456 0.0
H953 H 0.1165 0.67474 0.96909 0.0
H954 H 0.41657 0.03321 0.97705 0.0
H955 H 0.35915 0.83852 0.94292 0.0
H956 H 0.26828 0.91468 0.94041 0.0
C957 C 0.22719 0.40117 0.96374 0.0
C958 C 0.28056 0.42801 0.96383 0.0
N959 N 0.29667 0.4662 0.9716 0.0
N960 N 0.20984 0.42248 0.97139 0.0
C961 C 0.253 0.46195 0.97607 0.0
H962 H 0.20252 0.36779 0.95857 0.0
Co963 Co 0.14119 0.39791 0.97522 0.0
C964 C 0.14463 0.48633 0.98794 0.0
O965 O 0.11111 0.4563 0.9956 0.0
N966 N 0.0712 0.37271 0.97896 0.0
C967 C 0.99224 0.36344 0.97915 0.0
C968 C 0.04285 0.39478 0.97591 0.0
C969 C 0.03672 0.32767 0.98399 0.0
N970 N 0.98811 0.32098 0.98424 0.0
O971 O 0.15657 0.3816 0.98989 0.0
H972 H 0.05781 0.43109 0.9714 0.0
H973 H 0.04714 0.30023 0.98731 0.0
O974 O 0.15867 0.46677 0.98007 0.0
C975 C 0.15959 0.34026 0.98956 0.0
O976 O 0.14013 0.30986 0.98069 0.0
N977 N 0.12806 0.41151 0.96054 0.0
C978 C 0.11002 0.42195 0.93789 0.0
C979 C 0.13642 0.46583 0.94478 0.0
C980 C 0.1459 0.45989 0.95608 0.0
C981 C 0.10184 0.36839 0.95397 0.0
C982 C 0.09263 0.37273 0.94256 0.0
H983 H 0.16856 0.49437 0.96107 0.0
H984 H 0.08899 0.3305 0.95761 0.0
H985 H 0.25248 0.48598 0.98289 0.0
H986 H 0.30557 0.42011 0.95855 0.0
H987 H 0.9608 0.37103 0.97756 0.0
H988 H 0.15126 0.50447 0.94134 0.0
H989 H 0.07241 0.33807 0.93742 0.0
C990 C 0.18358 0.4143 0.46866 0.0
C991 C 0.15854 0.44257 0.46988 0.0
N992 N 0.19257 0.48919 0.47426 0.0
N993 N 0.23289 0.44295 0.47235 0.0
C994 C 0.23715 0.48844 0.47567 0.0
H995 H 0.16616 0.37438 0.46589 0.0
Co996 Co 0.27849 0.41857 0.47526 0.0
C997 C 0.37147 0.51243 0.48455 0.0
O998 O 0.37747 0.48613 0.49276 0.0
N999 N 0.32449 0.39332 0.47816 0.0
C1000 C 0.39283 0.38189 0.47672 0.0
C1001 C 0.37289 0.41331 0.47391 0.0
C1002 C 0.31586 0.34936 0.48347 0.0
N1003 N 0.35689 0.34137 0.48273 0.0
O1004 O 0.25809 0.41248 0.49081 0.0
H1005 H 0.39213 0.44795 0.46878 0.0
H1006 H 0.27996 0.32335 0.4877 0.0
O1007 O 0.33426 0.48947 0.47753 0.0
C1008 C 0.21568 0.37036 0.49265 0.0
O1009 O 0.20067 0.33281 0.48518 0.0
N1010 N 0.29365 0.42162 0.45985 0.0
C1011 C 0.31067 0.41446 0.43695 0.0
C1012 C 0.33386 0.46282 0.44237 0.0
C1013 C 0.32421 0.46575 0.45383 0.0
C1014 C 0.27018 0.37437 0.45467 0.0
C1015 C 0.27792 0.36988 0.44317 0.0
H1016 H 0.34144 0.50352 0.45775 0.0
H1017 H 0.24545 0.33998 0.45956 0.0
H1018 H 0.27076 0.51899 0.4799 0.0
H1019 H 0.11819 0.42943 0.46802 0.0
H1020 H 0.43033 0.38774 0.47418 0.0
H1021 H 0.35852 0.49815 0.43773 0.0
H1022 H 0.25913 0.33194 0.43922 0.0
C1023 C 0.60173 0.78916 0.46878 0.0
C1024 C 0.57318 0.73572 0.46882 0.0
N1025 N 0.52707 0.72132 0.47371 0.0
N1026 N 0.57376 0.80817 0.47369 0.0
C1027 C 0.5283 0.76585 0.47656 0.0
H1028 H 0.64174 0.81257 0.46617 0.0
Co1029 Co 0.60179 0.87553 0.47905 0.0
C1030 C 0.51488 0.89718 0.47986 0.0
O1031 O 0.54733 0.94422 0.47621 0.0
N1032 N 0.63175 0.94379 0.4851 0.0
C1033 C 0.64471 1.00644 0.49729 0.0
C1034 C 0.61415 0.95489 0.49465 0.0
C1035 C 0.67492 0.98927 0.48243 0.0
N1036 N 0.68299 0.02807 0.48961 0.0
O1037 O 0.60234 0.84899 0.49374 0.0
H1038 H 0.58132 0.92684 0.49953 0.0
H1039 H 0.70107 0.99406 0.47562 0.0
O1040 O 0.53124 0.86512 0.48156 0.0
C1041 C 0.64574 0.85384 0.49673 0.0
O1042 O 0.68776 0.88758 0.49132 0.0
N1043 N 0.60336 0.89859 0.46404 0.0
C1044 C 0.61052 0.92314 0.44104 0.0
C1045 C 0.56216 0.89562 0.44631 0.0
C1046 C 0.55935 0.88205 0.45768 0.0
C1047 C 0.65068 0.92308 0.45886 0.0
C1048 C 0.65526 0.93621 0.44737 0.0
H1049 H 0.52152 0.856 0.46111 0.0
H1050 H 0.68491 0.9302 0.46352 0.0
H1051 H 0.49872 0.7673 0.48161 0.0
H1052 H 0.58614 0.70944 0.46597 0.0
H1053 H 0.64067 0.02598 0.50463 0.0
H1054 H 0.52663 0.88223 0.44152 0.0
H1055 H 0.69319 0.95544 0.44343 0.0
C1056 C 0.22868 0.83065 0.46739 0.0
C1057 C 0.28208 0.85858 0.46748 0.0
N1058 N 0.29959 0.83171 0.47344 0.0
N1059 N 0.21269 0.78644 0.47324 0.0
C1060 C 0.25668 0.78799 0.47678 0.0
H1061 H 0.20303 0.84242 0.4636 0.0
Co1062 Co 0.14455 0.73952 0.47705 0.0
C1063 C 0.15114 0.6511 0.48697 0.0
O1064 O 0.12094 0.64686 0.4955 0.0
N1065 N 0.07509 0.69233 0.48087 0.0
C1066 C 0.99595 0.62293 0.48048 0.0
C1067 C 0.04682 0.6427 0.47729 0.0
C1068 C 0.04036 0.7018 0.48617 0.0
N1069 N 0.99172 0.66025 0.48603 0.0
O1070 O 0.16179 0.76401 0.49229 0.0
H1071 H 0.06183 0.62277 0.47224 0.0
H1072 H 0.05034 0.73884 0.48985 0.0
O1073 O 0.16317 0.68647 0.47959 0.0
C1074 C 0.16186 0.80657 0.49375 0.0
O1075 O 0.13709 0.81918 0.48633 0.0
N1076 N 0.12988 0.71971 0.4619 0.0
C1077 C 0.11092 0.69914 0.43895 0.0
C1078 C 0.14944 0.69305 0.44435 0.0
C1079 C 0.1583 0.70344 0.45587 0.0
C1080 C 0.09265 0.72652 0.45674 0.0
C1081 C 0.08181 0.71547 0.44525 0.0
H1082 H 0.1892 0.7 0.45984 0.0
H1083 H 0.07163 0.74107 0.46155 0.0
H1084 H 0.25722 0.75907 0.48224 0.0
H1085 H 0.30609 0.896 0.46356 0.0
H1086 H 0.9643 0.58466 0.47843 0.0
H1087 H 0.17284 0.68083 0.43967 0.0
H1088 H 0.05226 0.72121 0.44124 0.0
C1089 C 0.07828 0.5176 0.36245 0.0
C1090 C 0.10443 0.49027 0.36199 0.0
N1091 N 0.14872 0.51842 0.3561 0.0
N1092 N 0.10594 0.5628 0.3569 0.0
C1093 C 0.14878 0.56233 0.35318 0.0
H1094 H 0.04055 0.50455 0.36618 0.0
Co1095 Co 0.08262 0.60873 0.35322 0.0
C1096 C 0.18717 0.68895 0.344 0.0
O1097 O 0.1768 0.6763 0.33328 0.0
N1098 N 0.05855 0.65456 0.34928 0.0
C1099 C 0.05131 0.72474 0.34659 0.0
C1100 C 0.08421 0.70688 0.34973 0.0
C1101 C 1.00995 0.64168 0.34603 0.0
N1102 N 1.00425 0.68361 0.34427 0.0
O1103 O 0.0783 0.58676 0.33787 0.0
H1104 H 0.12413 0.73089 0.35235 0.0
H1105 H 0.97894 0.60207 0.34529 0.0
O1106 O 0.15313 0.66413 0.35152 0.0
C1107 C 0.03608 0.54478 0.33587 0.0
O1108 O 0.99772 0.53044 0.34308 0.0
N1109 N 0.08537 0.62694 0.36849 0.0
C1110 C 0.08932 0.65349 0.39125 0.0
C1111 C 0.13193 0.65409 0.38601 0.0
C1112 C 0.12918 0.64073 0.37466 0.0
C1113 C 0.0426 0.62378 0.37351 0.0
C1114 C 0.04393 0.63755 0.38487 0.0
H1115 H 0.16232 0.64082 0.37089 0.0
H1116 H 1.00729 0.61072 0.3687 0.0
H1117 H 0.1778 0.59193 0.34779 0.0
H1118 H 0.09131 0.45215 0.36553 0.0
H1119 H 0.0618 0.7651 0.34601 0.0
H1120 H 0.16707 0.66403 0.39066 0.0
H1121 H 1.00993 0.63612 0.38857 0.0
C1122 C 0.47388 0.55127 0.36707 0.0
C1123 C 0.49995 0.6044 0.36809 0.0
N1124 N 0.48246 0.62391 0.36002 0.0
N1125 N 0.43986 0.5373 0.35844 0.0
C1126 C 0.44578 0.58236 0.35432 0.0
H1127 H 0.48117 0.52473 0.37192 0.0
Co1128 Co 0.4043 0.47167 0.35205 0.0
C1129 C 0.29737 0.4521 0.34829 0.0
O1130 O 0.28088 0.40384 0.35133 0.0
N1131 N 0.37005 0.40501 0.34512 0.0
C1132 C 0.32652 0.34401 0.33211 0.0
C1133 C 0.34544 0.39509 0.33502 0.0
C1134 C 0.36802 0.35961 0.34782 0.0
N1135 N 0.34076 0.32179 0.34018 0.0
O1136 O 0.44085 0.50141 0.33817 0.0
H1137 H 0.34194 0.42355 0.32998 0.0
H1138 H 0.38726 0.3542 0.35499 0.0
O1139 O 0.34645 0.48402 0.34775 0.0
C1140 C 0.48475 0.50337 0.33825 0.0
O1141 O 0.49366 0.47839 0.34632 0.0
N1142 N 0.37357 0.44491 0.36633 0.0
C1143 C 0.3475 0.41984 0.38907 0.0
C1144 C 0.32862 0.44733 0.38303 0.0
C1145 C 0.34366 0.46117 0.37183 0.0
C1146 C 0.39348 0.41935 0.37223 0.0
C1147 C 0.38061 0.406 0.3836 0.0
H1148 H 0.33411 0.48816 0.36797 0.0
H1149 H 0.42268 0.41282 0.3684 0.0
H1150 H 0.42632 0.58486 0.3468 0.0
H1151 H 0.53059 0.62705 0.37408 0.0
H1152 H 0.30615 0.32526 0.32439 0.0
H1153 H 0.30544 0.46133 0.38718 0.0
H1154 H 0.39788 0.38683 0.38818 0.0
C1155 C 0.45309 0.91369 0.3684 0.0
C1156 C 0.39979 0.88229 0.36793 0.0
N1157 N 0.38811 0.84777 0.35944 0.0
N1158 N 0.47466 0.89843 0.36035 0.0
C1159 C 0.43423 0.85832 0.35509 0.0
H1160 H 0.47448 0.94675 0.37391 0.0
Co1161 Co 0.54235 0.92955 0.35511 0.0
C1162 C 0.56341 0.84208 0.35347 0.0
O1163 O 0.61082 0.87331 0.35713 0.0
N1164 N 0.61049 0.96115 0.34911 0.0
C1165 C 0.67302 0.97499 0.33683 0.0
C1166 C 0.6216 0.94409 0.33948 0.0
C1167 C 0.65577 1.00451 0.35181 0.0
N1168 N 0.69447 0.01297 0.34459 0.0
O1169 O 0.5163 0.9329 0.34054 0.0
H1170 H 0.59366 0.91138 0.33454 0.0
H1171 H 0.6605 0.03043 0.35868 0.0
O1172 O 0.5325 0.85988 0.35196 0.0
C1173 C 0.51679 0.97566 0.33917 0.0
O1174 O 0.54397 0.01368 0.3463 0.0
N1175 N 0.56574 0.92936 0.37 0.0
C1176 C 0.59254 0.93655 0.39287 0.0
C1177 C 0.56563 0.8882 0.38752 0.0
C1178 C 0.55097 0.88532 0.3762 0.0
C1179 C 0.5897 0.97651 0.37525 0.0
C1180 C 0.60398 0.98111 0.38666 0.0
H1181 H 0.52552 0.84744 0.3727 0.0
H1182 H 0.59551 0.01055 0.37073 0.0
H1183 H 0.43866 0.83834 0.3479 0.0
H1184 H 0.37187 0.88618 0.37309 0.0
H1185 H 0.6926 0.97142 0.32946 0.0
H1186 H 0.55349 0.8527 0.39222 0.0
H1187 H 0.62277 0.01897 0.39065 0.0
C1188 C 0.2333 0.18885 0.17873 0.0
C1189 C 0.18767 0.1775 0.18457 0.0
H1190 H 0.27738 0.15849 0.17069 0.0
C1191 C 0.14984 0.12547 0.18636 0.0
H1192 H 0.26268 0.22874 0.17713 0.0
C1193 C 0.15845 0.08548 0.18286 0.0
C1194 C 0.20444 0.09669 0.17719 0.0
H1195 H 0.11439 0.11588 0.19084 0.0
H1196 H 0.12944 0.04573 0.18475 0.0
C1197 C 0.24136 0.14873 0.17494 0.0
C1198 C 0.97121 0.11451 0.18584 0.0
C1199 C 0.96031 0.15263 0.18186 0.0
H1200 H 0.94016 0.03549 0.1912 0.0
C1201 C 0.90836 0.13948 0.18018 0.0
H1202 H 0.01087 0.12363 0.18726 0.0
C1203 C 0.86803 0.08958 0.18279 0.0
C1204 C 0.87905 0.05168 0.18682 0.0
H1205 H 0.89884 0.16826 0.17725 0.0
H1206 H 0.82821 0.08041 0.18162 0.0
C1207 C 0.93094 0.06425 0.18812 0.0
C1208 C 0.91418 0.80157 0.18427 0.0
C1209 C 0.89978 0.83966 0.18283 0.0
H1210 H 0.97539 0.78515 0.18735 0.0
C1211 C 0.93893 0.89214 0.18254 0.0
H1212 H 0.88518 0.76073 0.18439 0.0
C1213 C 0.99107 0.90613 0.18428 0.0
C1214 C 1.00475 0.8679 0.18641 0.0
H1215 H 0.92912 0.92242 0.18149 0.0
H1216 H 0.02033 0.94684 0.18448 0.0
C1217 C 0.96589 0.8155 0.18605 0.0
C1218 C 0.15535 0.24317 0.31536 0.0
C1219 C 0.1021 0.2073 0.31648 0.0
H1220 H 0.231 0.2552 0.31173 0.0
C1221 C 0.08523 0.15401 0.31568 0.0
H1222 H 0.16978 0.28448 0.31606 0.0
C1223 C 0.12056 0.13728 0.31312 0.0
C1224 C 0.17325 0.17351 0.31127 0.0
H1225 H 0.04446 0.12537 0.31645 0.0
H1226 H 0.10627 0.09617 0.31206 0.0
C1227 C 0.19044 0.22649 0.31277 0.0
C1228 C 0.83992 0.90831 0.3049 0.0
C1229 C 0.84735 0.89485 0.31587 0.0
H1230 H 0.84618 0.96786 0.2938 0.0
C1231 C 0.86599 0.9331 0.32435 0.0
H1232 H 0.82509 0.87978 0.29817 0.0
C1233 C 0.87793 0.98395 0.32182 0.0
C1234 C 0.87109 0.99742 0.31078 0.0
H1235 H 0.87204 0.92398 0.33289 0.0
H1236 H 0.89212 0.01256 0.32852 0.0
C1237 C 0.8516 0.95883 0.30239 0.0
C1238 C 0.10819 0.88044 0.31889 0.0
C1239 C 0.12495 0.93301 0.31675 0.0
H1240 H 0.04734 0.80128 0.31679 0.0
C1241 C 0.09108 0.94596 0.31121 0.0
H1242 H 0.13363 0.86926 0.32304 0.0
C1243 C 0.04164 0.90719 0.30781 0.0
C1244 C 0.02568 0.85464 0.30958 0.0
H1245 H 0.10303 0.98612 0.30941 0.0
H1246 H 0.0163 0.91806 0.30352 0.0
C1247 C 0.05921 0.84156 0.31521 0.0
C1248 C 0.86704 0.9379 0.81165 0.0
C1249 C 0.81382 0.9217 0.81098 0.0
H1250 H 0.92602 0.917 0.80933 0.0
C1251 C 0.77876 0.86976 0.80811 0.0
H1252 H 0.89511 0.97766 0.81379 0.0
C1253 C 0.7965 0.83563 0.8054 0.0
C1254 C 0.84971 0.85224 0.80561 0.0
H1255 H 0.73746 0.85567 0.80758 0.0
H1256 H 0.76849 0.79616 0.80306 0.0
C1257 C 0.88478 0.90332 0.80906 0.0
C1258 C 0.10921 0.97604 0.80946 0.0
C1259 C 0.16067 0.99299 0.80615 0.0
H1260 H 0.03454 0.91086 0.81345 0.0
C1261 C 0.17749 0.9566 0.80541 0.0
H1262 H 0.09536 1.00341 0.81012 0.0
C1263 C 0.14326 0.90414 0.80746 0.0
C1264 C 0.09101 0.88647 0.81018 0.0
H1265 H 0.2172 0.9687 0.80314 0.0
H1266 H 0.15758 0.87723 0.80654 0.0
C1267 C 0.07453 0.92314 0.81139 0.0
C1268 C 0.10905 0.23486 0.81015 0.0
C1269 C 0.12664 0.19986 0.81256 0.0
H1270 H 0.04509 0.24487 0.80547 0.0
C1271 C 0.09025 0.14644 0.81289 0.0
H1272 H 0.13577 0.27629 0.80991 0.0
C1273 C 0.03788 0.1285 0.81035 0.0
C1274 C 0.02122 0.16358 0.8073 0.0
H1275 H 0.10249 0.11842 0.81468 0.0
H1276 H 0.01079 0.08715 0.81033 0.0
C1277 C 0.05712 0.21692 0.80749 0.0
C1278 C 0.87011 0.76812 0.68527 0.0
C1279 C 0.92321 0.80466 0.68416 0.0
H1280 H 0.79345 0.75485 0.68819 0.0
C1281 C 0.93882 0.85777 0.68442 0.0
H1282 H 0.85653 0.72689 0.68498 0.0
C1283 C 0.90233 0.87379 0.68633 0.0
C1284 C 0.84967 0.83702 0.68806 0.0
H1285 H 0.97938 0.88694 0.68363 0.0
H1286 H 0.91561 0.91488 0.68691 0.0
C1287 C 0.83388 0.78408 0.68721 0.0
C1288 C 0.20717 0.0449 0.68215 0.0
C1289 C 0.1603 0.01266 0.68779 0.0
H1290 H 0.25591 0.11904 0.67443 0.0
C1291 C 0.1255 0.03065 0.68976 0.0
H1292 H 0.23417 0.03132 0.68042 0.0
C1293 C 0.13817 0.08088 0.68656 0.0
C1294 C 0.18517 0.11345 0.68096 0.0
H1295 H 0.08907 1.00616 0.69404 0.0
H1296 H 0.11124 0.0943 0.68852 0.0
C1297 C 0.21923 0.09468 0.67863 0.0
C1298 C 0.92839 0.06108 0.68469 0.0
C1299 C 0.89379 0.07269 0.67904 0.0
H1300 H 1.00431 0.09072 0.69192 0.0
C1301 C 0.91016 0.12462 0.67631 0.0
H1302 H 0.91668 0.02141 0.68694 0.0
C1303 C 0.95962 0.16431 0.67949 0.0
C1304 C 0.99413 0.15265 0.68516 0.0
H1305 H 0.8841 0.13478 0.67208 0.0
H1306 H 0.97108 0.20411 0.67749 0.0
C1307 C 0.97837 0.1006 0.68755 0.0
C1308 C 0.89073 0.51404 0.52757 0.0
C1309 C 0.83748 0.49673 0.52665 0.0
H1310 H 0.95133 0.49585 0.52592 0.0
C1311 C 0.8042 0.44628 0.52257 0.0
H1312 H 0.91753 0.55307 0.53041 0.0
C1313 C 0.82359 0.41307 0.51996 0.0
C1314 C 0.87674 0.42998 0.52128 0.0
H1315 H 0.76298 0.43201 0.52174 0.0
H1316 H 0.79677 0.37379 0.51725 0.0
C1317 C 0.91013 0.48125 0.52488 0.0
C1318 C 0.57828 0.36922 0.52091 0.0
C1319 C 0.52635 0.35113 0.52397 0.0
H1320 H 0.65258 0.4355 0.51727 0.0
C1321 C 0.50834 0.38658 0.52467 0.0
H1322 H 0.59299 0.34253 0.52028 0.0
C1323 C 0.5419 0.43931 0.52281 0.0
C1324 C 0.59455 0.45806 0.52032 0.0
H1325 H 0.46823 0.37354 0.52674 0.0
H1326 H 0.52674 0.46555 0.52368 0.0
C1327 C 0.61224 0.42234 0.51916 0.0
C1328 C 0.65463 0.22018 0.51986 0.0
C1329 C 0.67237 0.18498 0.52185 0.0
H1330 H 0.58913 0.23004 0.51635 0.0
C1331 C 0.63749 0.1317 0.52053 0.0
H1332 H 0.68083 0.26149 0.52075 0.0
C1333 C 0.5855 0.11374 0.51787 0.0
C1334 C 0.56677 0.14855 0.51654 0.0
H1335 H 0.65032 0.10373 0.52168 0.0
H1336 H 0.55958 0.07224 0.51724 0.0
C1337 C 0.60221 0.20214 0.51729 0.0
C1338 C 0.74171 0.47932 0.64591 0.0
C1339 C 0.75864 0.53272 0.64529 0.0
H1340 H 0.76161 0.41954 0.64369 0.0
C1341 C 0.81103 0.56726 0.64271 0.0
H1342 H 0.70169 0.45159 0.64787 0.0
C1343 C 0.84494 0.54889 0.64023 0.0
C1344 C 0.82759 0.49547 0.64033 0.0
H1345 H 0.82574 0.60867 0.64226 0.0
H1346 H 0.88481 0.57663 0.63814 0.0
C1347 C 0.77596 0.46091 0.6435 0.0
C1348 C 0.54791 0.26013 0.64346 0.0
C1349 C 0.50175 0.22698 0.64926 0.0
H1350 H 0.59542 0.33542 0.63605 0.0
C1351 C 0.46764 0.24511 0.65208 0.0
H1352 H 0.57477 0.24702 0.64115 0.0
C1353 C 0.47872 0.29489 0.64882 0.0
C1354 C 0.52467 0.32774 0.64296 0.0
H1355 H 0.43156 0.22019 0.65645 0.0
H1356 H 0.45163 0.30796 0.65092 0.0
C1357 C 0.55966 0.31041 0.64051 0.0
C1358 C 0.72414 0.16115 0.64042 0.0
C1359 C 0.68688 0.17697 0.64025 0.0
H1360 H 0.804 0.1834 0.64225 0.0
C1361 C 0.70262 0.22913 0.64267 0.0
H1362 H 0.71307 0.12107 0.63886 0.0
C1363 C 0.75508 0.26522 0.64465 0.0
C1364 C 0.79264 0.24965 0.64431 0.0
H1365 H 0.67472 0.24244 0.64259 0.0
H1366 H 0.76637 0.30552 0.64601 0.0
C1367 C 0.77628 0.19695 0.64246 0.0
C1368 C 0.56229 0.27677 0.1426 0.0
C1369 C 0.5264 0.22452 0.1448 0.0
H1370 H 0.57945 0.35567 0.14386 0.0
C1371 C 0.48191 0.21227 0.15123 0.0
H1372 H 0.59683 0.28712 0.13768 0.0
C1373 C 0.47244 0.25143 0.15499 0.0
C1374 C 0.50679 0.30348 0.1522 0.0
H1375 H 0.45404 0.17225 0.15317 0.0
H1376 H 0.43694 0.24068 0.15957 0.0
C1377 C 0.55229 0.31585 0.14614 0.0
C1378 C 0.82823 0.29864 0.14277 0.0
C1379 C 0.82047 0.34082 0.14483 0.0
H1380 H 0.79274 0.21647 0.14061 0.0
C1381 C 0.77165 0.33083 0.14879 0.0
H1382 H 0.86567 0.30487 0.14005 0.0
C1383 C 0.73006 0.2798 0.14942 0.0
C1384 C 0.73686 0.23826 0.1461 0.0
H1385 H 0.76443 0.36243 0.15051 0.0
H1386 H 0.69183 0.27349 0.15143 0.0
C1387 C 0.78676 0.24793 0.14334 0.0
C1388 C 0.71035 0.49207 0.14613 0.0
C1389 C 0.69736 0.53106 0.14436 0.0
H1390 H 0.77131 0.47452 0.14902 0.0
C1391 C 0.73602 0.58315 0.14561 0.0
H1392 H 0.6812 0.45155 0.14525 0.0
C1393 C 0.78716 0.59623 0.14788 0.0
C1394 C 0.80104 0.55756 0.14889 0.0
H1395 H 0.72687 0.6139 0.14461 0.0
H1396 H 0.81629 0.63696 0.14839 0.0
C1397 C 0.76185 0.5052 0.14835 0.0
C1398 C 0.60267 0.17831 0.01794 0.0
C1399 C 0.58721 0.12538 0.01885 0.0
H1400 H 0.58032 0.23644 0.01968 0.0
C1401 C 0.535 0.08975 0.02136 0.0
H1402 H 0.64257 0.20677 0.01604 0.0
C1403 C 0.49987 0.10678 0.02358 0.0
C1404 C 0.51579 0.15977 0.02322 0.0
H1405 H 0.52147 0.04862 0.02204 0.0
H1406 H 0.46026 0.07845 0.02574 0.0
C1407 C 0.56713 0.19532 0.02005 0.0
C1408 C 0.88517 0.41703 0.01426 0.0
C1409 C 0.85084 0.43607 0.01595 0.0
H1410 H 0.89906 0.3532 0.01659 0.0
C1411 C 0.80221 0.40325 0.02092 0.0
H1412 H 0.92305 0.44146 0.01055 0.0
C1413 C 0.78825 0.35261 0.02414 0.0
C1414 C 0.82327 0.33437 0.02282 0.0
H1415 H 0.77497 0.41677 0.02238 0.0
H1416 H 0.75063 0.32804 0.02795 0.0
C1417 C 0.87175 0.36685 0.01781 0.0
C1418 C 0.62179 0.4821 0.01236 0.0
C1419 C 0.65645 0.47045 0.01796 0.0
H1420 H 0.54624 0.45254 0.00495 0.0
C1421 C 0.64137 0.41828 0.02 0.0
H1422 H 0.6328 0.52202 0.01062 0.0
C1423 C 0.59168 0.37864 0.01697 0.0
C1424 C 0.55669 0.39028 0.0115 0.0
H1425 H 0.66745 0.40841 0.0243 0.0
H1426 H 0.58029 0.33888 0.01905 0.0
C1427 C 0.57261 0.44235 0.00901 0.0
C1428 C 0.56285 0.78649 0.84324 0.0
C1429 C 0.52714 0.73511 0.84631 0.0
H1430 H 0.58218 0.86639 0.84385 0.0
C1431 C 0.48137 0.7248 0.85196 0.0
H1432 H 0.59867 0.79565 0.83897 0.0
C1433 C 0.47161 0.76506 0.85454 0.0
C1434 C 0.50812 0.81657 0.85183 0.0
H1435 H 0.45324 0.68562 0.85447 0.0
H1436 H 0.43624 0.75624 0.85896 0.0
C1437 C 0.55373 0.82696 0.84611 0.0
C1438 C 0.29066 0.7528 0.84985 0.0
C1439 C 0.28056 0.78948 0.8447 0.0
H1440 H 0.25906 0.67524 0.85617 0.0
C1441 C 0.22925 0.77463 0.84168 0.0
H1442 H 0.32971 0.7631 0.85233 0.0
C1443 C 0.18866 0.72464 0.84416 0.0
C1444 C 0.19884 0.68831 0.84945 0.0
H1445 H 0.2202 0.80218 0.8378 0.0
H1446 H 0.1493 0.71432 0.84196 0.0
C1447 C 0.25031 0.70255 0.85206 0.0
C1448 C 0.29507 0.45996 0.84572 0.0
C1449 C 0.33056 0.50664 0.85106 0.0
H1450 H 0.21932 0.41464 0.8384 0.0
C1451 C 0.31642 0.54463 0.85287 0.0
H1452 H 0.30526 0.43028 0.84414 0.0
C1453 C 0.2671 0.53546 0.84976 0.0
C1454 C 0.2314 0.48866 0.84448 0.0
H1455 H 0.3431 0.58087 0.85698 0.0
H1456 H 0.25675 0.56484 0.85159 0.0
C1457 C 0.24618 0.45131 0.84233 0.0
C1458 C 0.3931 0.79156 0.9822 0.0
C1459 C 0.40545 0.83973 0.98698 0.0
H1460 H 0.42176 0.74312 0.97569 0.0
C1461 C 0.45786 0.87629 0.98901 0.0
H1462 H 0.35313 0.76269 0.98048 0.0
C1463 C 0.49712 0.86558 0.98595 0.0
C1464 C 0.48472 0.81758 0.98108 0.0
H1465 H 0.46868 0.91394 0.99256 0.0
H1466 H 0.53723 0.89482 0.98737 0.0
C1467 C 0.43228 0.78032 0.97945 0.0
C1468 C 0.1307 0.60566 0.98594 0.0
C1469 C 0.17836 0.64156 0.98107 0.0
H1470 H 0.08327 0.52845 0.99236 0.0
C1471 C 0.21652 0.62753 0.97946 0.0
H1472 H 0.10102 0.61603 0.98736 0.0
C1473 C 0.20621 0.57748 0.98213 0.0
C1474 C 0.15813 0.54109 0.98678 0.0
H1475 H 0.25351 0.65471 0.97572 0.0
H1476 H 0.23543 0.56682 0.98033 0.0
C1477 C 0.12089 0.55597 0.98892 0.0
C1478 C 0.44017 0.52647 0.97525 0.0
C1479 C 0.45486 0.57798 0.97802 0.0
H1480 H 0.37841 0.45059 0.97116 0.0
C1481 C 0.41605 0.59118 0.97966 0.0
H1482 H 0.46904 0.51478 0.97407 0.0
C1483 C 0.3637 0.554 0.97794 0.0
C1484 C 0.34954 0.50325 0.97451 0.0
H1485 H 0.42621 0.63059 0.98176 0.0
H1486 H 0.33461 0.56555 0.97878 0.0
C1487 C 0.38823 0.48964 0.9735 0.0
C1488 C 0.12763 0.5577 0.48706 0.0
C1489 C 0.16367 0.60978 0.48462 0.0
H1490 H 0.10814 0.47807 0.48532 0.0
C1491 C 0.20969 0.62152 0.4789 0.0
H1492 H 0.09152 0.54752 0.49132 0.0
C1493 C 0.21949 0.58194 0.47569 0.0
C1494 C 0.18273 0.52979 0.4778 0.0
H1495 H 0.23794 0.66134 0.47685 0.0
H1496 H 0.25519 0.59186 0.47129 0.0
C1497 C 0.13677 0.51799 0.48353 0.0
C1498 C 0.50176 0.63585 0.48207 0.0
C1499 C 0.48794 0.66956 0.47679 0.0
H1500 H 0.47542 0.56005 0.48901 0.0
C1501 C 0.43545 0.6521 0.47454 0.0
H1502 H 0.54205 0.64875 0.48395 0.0
C1503 C 0.39751 0.60113 0.47716 0.0
C1504 C 0.4112 0.56726 0.48245 0.0
H1505 H 0.42408 0.67755 0.47048 0.0
H1506 H 0.35747 0.58823 0.47502 0.0
C1507 C 0.46365 0.58538 0.48503 0.0
C1508 C 0.36866 0.81072 0.47783 0.0
C1509 C 0.35282 0.84763 0.47613 0.0
H1510 H 0.43242 0.79725 0.48043 0.0
C1511 C 0.39008 0.90054 0.47683 0.0
H1512 H 0.34085 0.76964 0.47734 0.0
C1513 C 0.44229 0.9163 0.47863 0.0
C1514 C 0.45864 0.87956 0.47977 0.0
H1515 H 0.379 0.92992 0.47587 0.0
H1516 H 0.47007 0.95749 0.47883 0.0
C1517 C 0.42111 0.82653 0.47963 0.0
C1518 C 0.20602 0.43444 0.34907 0.0
C1519 C 0.25938 0.47081 0.34843 0.0
H1520 H 0.12936 0.42104 0.35202 0.0
C1521 C 0.27537 0.52387 0.34941 0.0
H1522 H 0.19212 0.39328 0.34825 0.0
C1523 C 0.23891 0.53978 0.35158 0.0
C1524 C 0.18594 0.50293 0.3529 0.0
H1525 H 0.31615 0.55291 0.34902 0.0
H1526 H 0.25244 0.58069 0.35272 0.0
C1527 C 0.16991 0.45026 0.35133 0.0
C1528 C 0.4904 0.74963 0.3516 0.0
C1529 C 0.54313 0.78527 0.35368 0.0
H1530 H 0.42962 0.6698 0.35202 0.0
C1531 C 0.57585 0.76624 0.35709 0.0
H1532 H 0.4641 0.76296 0.34898 0.0
C1533 C 0.556 0.71335 0.35895 0.0
C1534 C 0.50303 0.67794 0.35734 0.0
H1535 H 0.61671 0.79237 0.35869 0.0
H1536 H 0.58214 0.70015 0.36175 0.0
C1537 C 0.4706 0.69635 0.35336 0.0
C1538 C 0.33001 0.79172 0.3441 0.0
C1539 C 0.33737 0.80945 0.35539 0.0
H1540 H 0.27696 0.7401 0.3316 0.0
C1541 C 0.29444 0.78858 0.36268 0.0
H1542 H 0.36189 0.80756 0.33816 0.0
C1543 C 0.24574 0.75019 0.35888 0.0
C1544 C 0.23861 0.73158 0.34768 0.0
H1545 H 0.29862 0.8011 0.3714 0.0
H1546 H 0.21368 0.735 0.36478 0.0
C1547 C 0.28116 0.75329 0.34028 0.0
C1548 C 0.2881 0.40121 0.15863 0.0
C1549 C 0.28882 0.35572 0.15565 0.0
H1550 H 0.24653 0.43417 0.16662 0.0
C1551 C 0.24342 0.30753 0.15745 0.0
H1552 H 0.32141 0.4391 0.15716 0.0
C1553 C 0.19974 0.30491 0.16259 0.0
C1554 C 0.2006 0.35032 0.16621 0.0
H1555 H 0.24208 0.27148 0.15538 0.0
H1556 H 0.16668 0.26711 0.1644 0.0
C1557 C 0.24472 0.39849 0.16391 0.0
C1558 C 0.65727 0.90653 0.15983 0.0
C1559 C 0.70548 0.90854 0.16061 0.0
H1560 H 0.61459 0.94173 0.15361 0.0
C1561 C 0.74832 0.94865 0.15495 0.0
H1562 H 0.62333 0.87613 0.16404 0.0
C1563 C 0.74325 0.98676 0.14898 0.0
C1564 C 0.69534 0.98572 0.14861 0.0
H1565 H 0.78613 0.95171 0.15548 0.0
H1566 H 0.77722 0.01798 0.14498 0.0
C1567 C 0.6523 0.94456 0.15394 0.0
C1568 C 0.16021 0.8094 0.15821 0.0
C1569 C 0.15178 0.84978 0.16171 0.0
H1570 H 0.12521 0.72976 0.15302 0.0
C1571 C 0.10195 0.84355 0.16064 0.0
H1572 H 0.19826 0.8132 0.15906 0.0
C1573 C 0.06013 0.79541 0.15752 0.0
C1574 C 0.06788 0.75353 0.15508 0.0
H1575 H 0.09424 0.87379 0.16339 0.0
H1576 H 0.02118 0.78963 0.15782 0.0
C1577 C 0.11856 0.76172 0.15477 0.0
C1578 C 0.28568 0.22749 0.33728 0.0
C1579 C 0.33463 0.27068 0.33955 0.0
H1580 H 0.24302 0.1478 0.33218 0.0
C1581 C 0.37832 0.26434 0.33963 0.0
H1582 H 0.25149 0.23163 0.3372 0.0
C1583 C 0.37384 0.21695 0.33638 0.0
C1584 C 0.32538 0.17466 0.33329 0.0
H1585 H 0.41643 0.29723 0.34128 0.0
H1586 H 0.40883 0.21446 0.33554 0.0
C1587 C 0.28092 0.17954 0.33443 0.0
C1588 C 0.78789 0.04963 0.34115 0.0
C1589 C 0.74607 0.05694 0.34396 0.0
H1590 H 0.86623 0.08433 0.33531 0.0
C1591 C 0.75407 0.10756 0.34445 0.0
H1592 H 0.78251 0.01085 0.34077 0.0
C1593 C 0.80173 0.14969 0.34111 0.0
C1594 C 0.8424 0.14192 0.33745 0.0
H1595 H 0.72227 0.11402 0.34652 0.0
H1596 H 0.80564 0.18789 0.34072 0.0
C1597 C 0.83584 0.09178 0.33808 0.0
C1598 C 0.91422 0.73238 0.33516 0.0
C1599 C 0.87323 0.68766 0.33024 0.0
H1600 H 0.98756 0.76637 0.34354 0.0
C1601 C 0.8737 0.64075 0.33102 0.0
H1602 H 0.91531 0.76929 0.33462 0.0
C1603 C 0.91558 0.63909 0.33594 0.0
C1604 C 0.95838 0.68435 0.34028 0.0
H1605 H 0.84272 0.60554 0.32731 0.0
H1606 H 0.91497 0.60247 0.33584 0.0
C1607 C 0.95623 0.73074 0.34013 0.0
C1608 C 0.82894 0.73691 0.83497 0.0
C1609 C 0.83037 0.69238 0.83155 0.0
H1610 H 0.78401 0.7677 0.8422 0.0
C1611 C 0.78722 0.64341 0.83384 0.0
H1612 H 0.86118 0.77524 0.83317 0.0
C1613 C 0.74293 0.63895 0.83905 0.0
C1614 C 0.74036 0.68341 0.84203 0.0
H1615 H 0.7871 0.6083 0.83133 0.0
H1616 H 0.71053 0.60053 0.8406 0.0
C1617 C 0.78441 0.73248 0.84012 0.0
C1618 C 0.3722 0.13892 0.83508 0.0
C1619 C 0.32311 0.13346 0.83304 0.0
H1620 H 0.41537 0.10485 0.84161 0.0
C1621 C 0.27878 0.08802 0.83669 0.0
H1622 H 0.40715 0.17352 0.83239 0.0
C1623 C 0.28342 0.048 0.8418 0.0
C1624 C 0.33254 0.05258 0.84346 0.0
H1625 H 0.24036 0.08225 0.8351 0.0
H1626 H 0.24827 0.01277 0.84405 0.0
C1627 C 0.37688 0.09915 0.84026 0.0
C1628 C 0.87698 0.22729 0.83478 0.0
C1629 C 0.8825 0.18374 0.83267 0.0
H1630 H 0.91221 0.30543 0.84076 0.0
C1631 C 0.92928 0.1859 0.83567 0.0
H1632 H 0.84139 0.22686 0.83257 0.0
C1633 C 0.97044 0.2315 0.84019 0.0
C1634 C 0.96567 0.27589 0.84187 0.0
H1635 H 0.9351 0.15334 0.834 0.0
H1636 H 1.00662 0.23246 0.84195 0.0
C1637 C 0.91793 0.27268 0.83934 0.0
C1638 C 0.73562 0.77819 0.65983 0.0
C1639 C 0.68695 0.73499 0.65731 0.0
H1640 H 0.77751 0.85737 0.66533 0.0
C1641 C 0.64312 0.74115 0.65715 0.0
H1642 H 0.76998 0.77437 0.65996 0.0
C1643 C 0.64714 0.78823 0.66051 0.0
C1644 C 0.69527 0.83045 0.66381 0.0
H1645 H 0.60518 0.70839 0.65531 0.0
H1646 H 0.61203 0.79057 0.66123 0.0
C1647 C 0.7399 0.82577 0.66285 0.0
C1648 C 0.18901 0.92402 0.66114 0.0
C1649 C 0.18568 0.87591 0.66316 0.0
H1650 H 0.23641 1.0026 0.65583 0.0
C1651 C 0.22825 0.86977 0.66034 0.0
H1652 H 0.15736 0.9304 0.66345 0.0
C1653 C 0.27372 0.91117 0.65592 0.0
C1654 C 0.27801 0.96002 0.65429 0.0
H1655 H 0.22693 0.83318 0.66184 0.0
H1656 H 0.30559 0.90482 0.65388 0.0
C1657 C 0.23467 0.96561 0.65681 0.0
C1658 C 0.15589 0.36084 0.65912 0.0
C1659 C 0.14934 0.31278 0.66268 0.0
H1660 H 0.11873 0.40311 0.65359 0.0
C1661 C 0.10008 0.2683 0.66162 0.0
H1662 H 0.19334 0.3958 0.6599 0.0
C1663 C 0.05727 0.27286 0.65833 0.0
C1664 C 0.06322 0.32162 0.6557 0.0
H1665 H 0.09363 0.23075 0.66432 0.0
H1666 H 0.019 0.23876 0.6584 0.0
C1667 C 0.11326 0.36513 0.65554 0.0
C1668 C 0.89785 0.69903 0.49749 0.0
C1669 C 0.85458 0.65068 0.5001 0.0
H1670 H 0.97468 0.74015 0.49081 0.0
C1671 C 0.85593 0.60535 0.49741 0.0
H1672 H 0.89796 0.73468 0.49945 0.0
C1673 C 0.90055 0.60845 0.49268 0.0
C1674 C 0.94471 0.65696 0.49042 0.0
H1675 H 0.82352 0.56749 0.49948 0.0
H1676 H 0.90087 0.57274 0.49117 0.0
C1677 C 0.94222 0.70215 0.49266 0.0
C1678 C 0.41024 0.3024 0.48875 0.0
C1679 C 0.36123 0.29812 0.48709 0.0
H1680 H 0.45286 0.26681 0.49498 0.0
C1681 C 0.31669 0.25093 0.48988 0.0
H1682 H 0.44554 0.3381 0.48682 0.0
C1683 C 0.32103 0.21008 0.49459 0.0
C1684 C 0.36998 0.21507 0.49657 0.0
H1685 H 0.2783 0.24547 0.48853 0.0
H1686 H 0.28589 0.17491 0.49695 0.0
C1687 C 0.41454 0.26133 0.49339 0.0
C1688 C 0.72005 0.1214 0.4936 0.0
C1689 C 0.72693 0.07987 0.49024 0.0
H1690 H 0.75588 0.1999 0.49944 0.0
C1691 C 0.77756 0.08858 0.48888 0.0
H1692 H 0.68134 0.1157 0.49462 0.0
C1693 C 0.82034 0.13652 0.49186 0.0
C1694 C 0.81331 0.17695 0.49603 0.0
H1695 H 0.7839 0.05718 0.48635 0.0
H1696 H 0.85875 0.14089 0.49154 0.0
C1697 C 0.76282 0.16969 0.49631 0.0
C1698 C 0.02808 0.54778 0.67149 0.0
C1699 C 0.98072 0.50827 0.66708 0.0
H1700 H 0.07135 0.6265 0.67739 0.0
C1701 C 0.93803 0.51641 0.66672 0.0
H1702 H 0.06169 0.5427 0.67186 0.0
C1703 C 0.94403 0.56473 0.66962 0.0
C1704 C 0.99236 0.60536 0.67325 0.0
H1705 H 0.90105 0.48695 0.66337 0.0
H1706 H 0.91153 0.57123 0.66853 0.0
C1707 C 0.03368 0.59573 0.67466 0.0
C1708 C 0.45595 0.47185 0.67044 0.0
C1709 C 0.49888 0.46583 0.66792 0.0
H1710 H 0.37799 0.43674 0.67655 0.0
C1711 C 0.49566 0.41796 0.67024 0.0
H1712 H 0.45713 0.50823 0.66873 0.0
C1713 C 0.44974 0.37649 0.67455 0.0
C1714 C 0.40602 0.38195 0.67669 0.0
H1715 H 0.5276 0.41166 0.66818 0.0
H1716 H 0.44797 0.3396 0.6758 0.0
C1717 C 0.41021 0.43056 0.67479 0.0
C1718 C 0.58276 0.07018 0.66786 0.0
C1719 C 0.53749 0.02472 0.66461 0.0
H1720 H 0.65983 0.10376 0.67435 0.0
C1721 C 0.53424 0.97661 0.66665 0.0
H1722 H 0.58692 0.10793 0.66624 0.0
C1723 C 0.57604 0.97399 0.67139 0.0
C1724 C 0.6226 0.01951 0.67411 0.0
H1725 H 0.49987 0.94083 0.66421 0.0
H1726 H 0.57189 0.93613 0.67271 0.0
C1727 C 0.62488 0.06765 0.67248 0.0
C1728 C 0.39149 0.97642 0.16108 0.0
C1729 C 0.40326 0.01689 0.1688 0.0
H1730 H 0.4196 0.94462 0.14858 0.0
C1731 C 0.45579 0.05437 0.17052 0.0
H1732 H 0.35184 0.94678 0.15943 0.0
C1733 C 0.49498 0.05321 0.16418 0.0
C1734 C 0.48268 0.01445 0.15599 0.0
H1735 H 0.46679 0.08549 0.17655 0.0
H1736 H 0.53463 0.08421 0.16533 0.0
C1737 C 0.43064 0.97511 0.15481 0.0
C1738 C 0.95636 0.44585 0.17368 0.0
C1739 C 0.99913 0.49037 0.16921 0.0
H1740 H 0.92898 0.37292 0.18193 0.0
C1741 C 0.04902 0.49697 0.1707 0.0
H1742 H 0.91734 0.43921 0.17253 0.0
C1743 C 0.05586 0.459 0.17613 0.0
C1744 C 0.01294 0.41319 0.18015 0.0
H1745 H 0.08284 0.53093 0.16737 0.0
H1746 H 0.09484 0.46539 0.17702 0.0
C1747 C 0.96315 0.40766 0.17905 0.0
C1748 C 0.53671 0.58847 0.1685 0.0
C1749 C 0.54383 0.54625 0.16589 0.0
H1750 H 0.57291 0.66894 0.17316 0.0
C1751 C 0.59301 0.55146 0.1676 0.0
H1752 H 0.49931 0.58565 0.16717 0.0
C1753 C 0.63528 0.59955 0.17065 0.0
C1754 C 0.62881 0.64272 0.17243 0.0
H1755 H 0.5999 0.51986 0.16563 0.0
H1756 H 0.67362 0.60381 0.17107 0.0
C1757 C 0.57874 0.63614 0.17188 0.0
C1758 C 0.39309 0.09821 0.99057 0.0
C1759 C 0.34528 0.05117 0.98998 0.0
H1760 H 0.43417 0.17741 0.99618 0.0
C1761 C 0.30069 0.05095 0.99407 0.0
H1762 H 0.42862 0.10055 0.98764 0.0
C1763 C 0.30419 0.09537 -0.00096 0.0
C1764 C 0.35219 0.14155 -4e-05 0.0
H1765 H 0.26299 0.01632 0.99364 0.0
H1766 H 0.26933 0.09307 0.00248 0.0
C1767 C 0.39642 0.14281 0.99543 0.0
C1768 C 0.85288 0.2418 0.99603 0.0
C1769 C 0.85121 0.19509 -0.00122 0.0
H1770 H 0.89779 0.31873 0.98966 0.0
C1771 C 0.89427 0.18945 0.99619 0.0
H1772 H 0.82077 0.2478 0.99812 0.0
C1773 C 0.93863 0.23014 0.99122 0.0
C1774 C 0.94131 0.27779 0.98884 0.0
H1775 H 0.89416 0.1539 0.99825 0.0
H1776 H 0.97093 0.22421 0.98937 0.0
C1777 C 0.89743 0.28271 0.99118 0.0
C1778 C 0.7643 0.59186 0.99503 0.0
C1779 C 0.81222 0.63667 0.99714 0.0
H1780 H 0.68428 0.56118 0.99057 0.0
C1781 C 0.81804 0.68533 0.99434 0.0
H1782 H 0.75835 0.55385 0.99716 0.0
C1783 C 0.77568 0.68946 0.99049 0.0
C1784 C 0.72648 0.64504 0.98953 0.0
H1785 H 0.85448 0.72057 0.99593 0.0
H1786 H 0.78049 0.72764 0.98917 0.0
C1787 C 0.72173 0.59608 0.99137 0.0
C1788 C 0.57151 0.94783 0.82543 0.0
C1789 C 0.61498 0.99654 0.82319 0.0
H1790 H 0.49307 0.90612 0.83133 0.0
C1791 C 0.60993 0.04094 0.82374 0.0
H1792 H 0.57471 0.91314 0.82503 0.0
C1793 C 0.56364 0.03721 0.82759 0.0
C1794 C 0.52132 0.98887 0.83068 0.0
H1795 H 0.6431 0.07888 0.82212 0.0
H1796 H 0.56217 0.07252 0.8289 0.0
C1797 C 0.52476 0.94389 0.82896 0.0
C1798 C 0.97818 0.56447 0.82049 0.0
C1799 C 0.02135 0.61473 0.82059 0.0
H1800 H 0.94857 0.48458 0.82484 0.0
C1801 C 0.0705 0.62129 0.82308 0.0
H1802 H 0.93991 0.55858 0.81866 0.0
C1803 C 0.07584 0.57882 0.82624 0.0
C1804 C 0.03177 0.52934 0.82738 0.0
H1805 H 0.10431 0.65977 0.82315 0.0
H1806 H 0.11372 0.58574 0.82883 0.0
C1807 C 0.98324 0.5222 0.82398 0.0
C1808 C 0.43672 0.4914 0.82857 0.0
C1809 C 0.4859 0.49602 0.82979 0.0
H1810 H 0.35566 0.4399 0.82532 0.0
C1811 C 0.49249 0.45426 0.82643 0.0
H1812 H 0.43024 0.52269 0.83111 0.0
C1813 C 0.44995 0.40734 0.82287 0.0
C1814 C 0.39995 0.40104 0.82288 0.0
H1815 H 0.52988 0.45662 0.82734 0.0
H1816 H 0.45537 0.37464 0.82107 0.0
C1817 C 0.39396 0.44399 0.82533 0.0
C1818 C 0.6055 0.8355 0.00415 0.0
C1819 C 0.64896 0.82855 0.00385 0.0
H1820 H 0.57813 0.88957 0.00612 0.0
C1821 C 0.69742 0.86981 0.00729 0.0
H1822 H 0.56758 0.80463 0.0016 0.0
C1823 C 0.70311 0.91818 0.01005 0.0
C1824 C 0.66065 0.92634 0.00921 0.0
H1825 H 0.73162 0.86566 0.00715 0.0
H1826 H 0.74136 0.95018 0.01202 0.0
C1827 C 0.61149 0.88417 0.00664 0.0
C1828 C 0.06796 0.75611 0.00761 0.0
C1829 C 0.0672 0.71028 0.01092 0.0
H1830 H 0.11086 0.83106 -9e-05 0.0
C1831 C 0.11335 0.7081 0.00978 0.0
H1832 H 0.03393 0.76009 0.00856 0.0
C1833 C 0.1581 0.7496 0.00504 0.0
C1834 C 0.15774 0.79418 0.00124 0.0
H1835 H 0.11454 0.67354 0.01211 0.0
H1836 H 0.19191 0.74543 0.00376 0.0
C1837 C 0.11248 0.7973 0.0028 0.0
C1838 C 0.2035 0.29072 0.99541 0.0
C1839 C 0.19676 0.33398 0.99689 0.0
H1840 H 0.24993 0.25584 -0.0013 0.0
C1841 C 0.2308 0.37387 0.00417 0.0
H1842 H 0.17803 0.25917 0.98986 0.0
C1843 C 0.27217 0.37177 0.00935 0.0
C1844 C 0.28083 0.32988 0.00732 0.0
H1845 H 0.22687 0.4078 0.0055 0.0
H1846 H 0.29792 0.40372 0.01474 0.0
C1847 C 0.24496 0.28874 0.00052 0.0
C1848 C 0.12435 0.41091 0.5048 0.0
C1849 C 0.08115 0.36242 0.50741 0.0
H1850 H 0.20249 0.4521 0.49863 0.0
C1851 C 0.08678 0.31829 0.50727 0.0
H1852 H 0.12102 0.44554 0.50495 0.0
C1853 C 0.1331 0.32183 0.5035 0.0
C1854 C 0.17502 0.36972 0.50002 0.0
H1855 H 0.05405 0.28047 0.5092 0.0
H1856 H 0.13487 0.28649 0.50257 0.0
C1857 C 0.17112 0.41467 0.50128 0.0
C1858 C 0.69454 0.81969 0.50762 0.0
C1859 C 0.64737 0.81157 0.50302 0.0
H1860 H 0.73793 0.78465 0.51374 0.0
C1861 C 0.60503 0.76069 0.5025 0.0
H1862 H 0.72787 0.85844 0.50808 0.0
C1863 C 0.61125 0.71861 0.50551 0.0
C1864 C 0.65945 0.72659 0.50934 0.0
H1865 H 0.56826 0.75297 0.49895 0.0
H1866 H 0.57907 0.67958 0.50436 0.0
C1867 C 0.70036 0.77756 0.51086 0.0
C1868 C 0.25303 0.85394 0.50107 0.0
C1869 C 0.20372 0.84944 0.50034 0.0
H1870 H 0.33491 0.90558 0.50327 0.0
C1871 C 0.19834 0.89216 0.50347 0.0
H1872 H 0.25853 0.82178 0.49879 0.0
C1873 C 0.24187 0.93955 0.50639 0.0
C1874 C 0.29167 0.94542 0.50592 0.0
H1875 H 0.16087 0.88991 0.50294 0.0
H1876 H 0.2371 0.97268 0.50814 0.0
C1877 C 0.29679 0.90187 0.50359 0.0
C1878 C 0.07708 0.45117 0.32595 0.0
C1879 C 0.02861 0.40769 0.32352 0.0
H1880 H 0.11838 0.531 0.3309 0.0
C1881 C 0.98489 0.41374 0.32265 0.0
H1882 H 0.11131 0.44724 0.32658 0.0
C1883 C 0.98851 0.46114 0.32545 0.0
C1884 C 0.03616 0.50346 0.32892 0.0
H1885 H 0.94715 0.38063 0.32081 0.0
H1886 H 0.95329 0.46344 0.3258 0.0
C1887 C 0.08104 0.49906 0.32838 0.0
C1888 C 0.52483 0.5769 0.32417 0.0
C1889 C 0.52883 0.54069 0.3311 0.0
H1890 H 0.56413 0.6438 0.31361 0.0
C1891 C 0.57751 0.54385 0.33213 0.0
H1892 H 0.48802 0.57569 0.32319 0.0
C1893 C 0.6215 0.58347 0.32682 0.0
C1894 C 0.61825 0.62115 0.32023 0.0
H1895 H 0.58221 0.51666 0.33739 0.0
H1896 H 0.6583 0.5853 0.32825 0.0
C1897 C 0.5689 0.61648 0.31878 0.0
C1898 C 0.44049 0.03033 0.32496 0.0
C1899 C 0.39394 0.98512 0.3221 0.0
H1900 H 0.5161 0.06272 0.33235 0.0
C1901 C 0.39085 0.93668 0.32377 0.0
H1902 H 0.44518 0.06837 0.32357 0.0
C1903 C 0.43227 0.93356 0.32859 0.0
C1904 C 0.47758 0.97873 0.33197 0.0
H1905 H 0.35577 0.90089 0.32176 0.0
H1906 H 0.42771 0.89565 0.33019 0.0
C1907 C 0.48161 0.02714 0.32987 0.0
C1908 C 0.98192 0.24329 0.25631 0.0
C1909 C 0.02134 0.26367 0.26451 0.0
H1910 H 0.96357 0.23131 0.23862 0.0
C1911 C 0.07345 0.29095 0.26106 0.0
H1912 H 0.9415 0.22164 0.25881 0.0
C1913 C 0.08602 0.29707 0.24956 0.0
C1914 C 0.04666 0.27494 0.24137 0.0
H1915 H 0.10441 0.30675 0.26727 0.0
H1916 H 0.12648 0.31749 0.24707 0.0
C1917 C 0.99451 0.24844 0.24482 0.0
C1918 C 0.77668 0.82811 0.2418 0.0
C1919 C 0.76177 0.78818 0.23385 0.0
H1920 H 0.79367 0.85119 0.25908 0.0
C1921 C 0.7516 0.73907 0.23746 0.0
H1922 H 0.7844 0.86621 0.23916 0.0
C1923 C 0.75829 0.7306 0.24884 0.0
C1924 C 0.77466 0.77102 0.25683 0.0
H1925 H 0.74039 0.70789 0.2314 0.0
H1926 H 0.75237 0.69293 0.25127 0.0
C1927 C 0.78249 0.8195 0.25317 0.0
C1928 C 0.23955 0.96592 0.24254 0.0
C1929 C 0.26234 0.00919 0.23534 0.0
H1930 H 0.2236 0.93884 0.25968 0.0
C1931 C 0.28996 0.05917 0.24002 0.0
H1932 H 0.21769 0.92704 0.2391 0.0
C1933 C 0.29403 0.06583 0.25175 0.0
C1934 C 0.26957 0.02265 0.25894 0.0
H1935 H 0.30782 0.09303 0.2346 0.0
H1936 H 0.31462 0.10477 0.2552 0.0
C1937 C 0.2427 0.97264 0.25426 0.0
C1938 C 0.05203 0.75823 0.75449 0.0
C1939 C 1.00139 0.73312 0.75888 0.0
H1940 H 0.09952 0.78341 0.7396 0.0
C1941 C 0.95903 0.7106 0.75141 0.0
H1942 H 0.08522 0.77601 0.76012 0.0
C1943 C 0.96716 0.71561 0.73972 0.0
C1944 C 0.01777 0.74223 0.73533 0.0
H1945 H 0.91965 0.69154 0.75461 0.0
H1946 H 0.93393 0.70001 0.73409 0.0
C1947 C 0.06017 0.76227 0.7428 0.0
C1948 C 0.24149 0.28736 0.75729 0.0
C1949 C 0.26767 0.26199 0.76119 0.0
H1950 H 0.21237 0.30875 0.74287 0.0
C1951 C 0.2872 0.24062 0.75334 0.0
H1952 H 0.22582 0.30374 0.76323 0.0
C1953 C 0.27851 0.24243 0.74178 0.0
C1954 C 0.2511 0.26655 0.73789 0.0
H1955 H 0.3069 0.2203 0.7562 0.0
H1956 H 0.29227 0.2241 0.73587 0.0
C1957 C 0.23381 0.29018 0.7457 0.0
C1958 C 0.77212 0.05323 0.75312 0.0
C1959 C 0.75118 0.01119 0.76066 0.0
H1960 H 0.78721 0.07742 0.73577 0.0
C1961 C 0.725 0.96038 0.75638 0.0
H1962 H 0.793 0.09271 0.75626 0.0
C1963 C 0.72102 0.95167 0.74471 0.0
C1964 C 0.74423 0.99366 0.73718 0.0
H1965 H 0.70888 0.92746 0.76208 0.0
H1966 H 0.70197 0.91214 0.74159 0.0
C1967 C 0.76912 0.04452 0.74145 0.0
C1968 C 0.71344 0.62688 0.59116 0.0
C1969 C 0.66282 0.59992 0.59553 0.0
H1970 H 0.76095 0.65221 0.57627 0.0
C1971 C 0.62042 0.5809 0.58808 0.0
H1972 H 0.74665 0.64174 0.59677 0.0
C1973 C 0.62856 0.58612 0.57639 0.0
C1974 C 0.6792 0.61144 0.572 0.0
H1975 H 0.58106 0.55956 0.59127 0.0
H1976 H 0.59537 0.56894 0.57075 0.0
C1977 C 0.72157 0.63308 0.57948 0.0
C1978 C 0.39941 0.09937 0.58688 0.0
C1979 C 0.42467 0.07384 0.59121 0.0
H1980 H 0.37534 0.12314 0.57203 0.0
C1981 C 0.44235 0.0493 0.58374 0.0
H1982 H 0.38543 0.11846 0.59252 0.0
C1983 C 0.43725 0.05257 0.57207 0.0
C1984 C 0.41336 0.07942 0.56774 0.0
H1985 H 0.46226 0.0297 0.58692 0.0
H1986 H 0.4532 0.0354 0.56642 0.0
C1987 C 0.39333 0.10171 0.57522 0.0
C1988 C 0.92695 0.29622 0.58899 0.0
C1989 C 0.95081 0.34646 0.59359 0.0
H1990 H 0.90323 0.24994 0.57388 0.0
C1991 C 0.97287 0.38943 0.5863 0.0
H1992 H 0.90951 0.26255 0.59447 0.0
C1993 C 0.96844 0.38223 0.57458 0.0
C1994 C 0.94293 0.33197 0.56998 0.0
H1995 H 0.99093 0.42851 0.58967 0.0
H1996 H 0.98342 0.41585 0.5691 0.0
C1997 C 0.92354 0.28903 0.57725 0.0
C1998 C 0.58208 0.03233 0.06958 0.0
C1999 C 0.63243 0.04079 0.06764 0.0
H2000 H 0.52443 0.02053 0.08192 0.0
C2001 C 0.65912 0.03331 0.07661 0.0
H2002 H 0.55993 0.03645 0.06279 0.0
C2003 C 0.63807 0.02289 0.08752 0.0
C2004 C 0.59021 0.02007 0.08962 0.0
H2005 H 0.69795 0.0396 0.07542 0.0
H2006 H 0.66142 0.02202 0.09447 0.0
C2007 C 0.56133 0.02242 0.08049 0.0
C2008 C 0.93748 0.56775 0.07676 0.0
C2009 C 0.90949 0.59068 0.07252 0.0
H2010 H 0.96744 0.54938 0.09149 0.0
C2011 C 0.89197 0.6152 0.08004 0.0
H2012 H 0.95156 0.54885 0.0711 0.0
C2013 C 0.90044 0.6149 0.09167 0.0
C2014 C 0.92762 0.59117 0.09593 0.0
H2015 H 0.87013 0.63294 0.07696 0.0
H2016 H 0.88499 0.63239 0.09737 0.0
C2017 C 0.94692 0.56844 0.08837 0.0
C2018 C 0.45473 0.39119 0.07354 0.0
C2019 C 0.4291 0.33853 0.07048 0.0
H2020 H 0.48201 0.44642 0.08714 0.0
C2021 C 0.40963 0.30048 0.07897 0.0
H2022 H 0.47004 0.42109 0.0671 0.0
C2023 C 0.41734 0.3149 0.09036 0.0
C2024 C 0.44358 0.36754 0.09341 0.0
H2025 H 0.39012 0.25966 0.07678 0.0
H2026 H 0.40333 0.285 0.0968 0.0
C2027 C 0.46139 0.40561 0.08494 0.0
C2028 C 0.38266 0.91624 0.92482 0.0
C2029 C 0.3303 0.88935 0.9281 0.0
H2030 H 0.43659 0.94483 0.91099 0.0
C2031 C 0.29143 0.87097 0.91978 0.0
H2032 H 0.4132 0.9308 0.93113 0.0
C2033 C 0.30475 0.87808 0.90832 0.0
C2034 C 0.35711 0.90473 0.90504 0.0
H2035 H 0.25082 0.84989 0.92214 0.0
H2036 H 0.27422 0.86266 0.90201 0.0
C2037 C 0.39598 0.92441 0.91336 0.0
C2038 C 0.12083 0.41669 0.90617 0.0
C2039 C 0.09683 0.44453 0.90253 0.0
H2040 H 0.14282 0.38688 0.92035 0.0
C2041 C 0.0754 0.46334 0.91053 0.0
H2042 H 0.13749 0.40182 0.9001 0.0
C2043 C 0.07926 0.45564 0.92207 0.0
C2044 C 0.10347 0.42796 0.92572 0.0
H2045 H 0.05693 0.48509 0.90786 0.0
H2046 H 0.06351 0.47136 0.92816 0.0
C2047 C 0.12363 0.40797 0.91769 0.0
C2048 C 0.62637 0.69606 0.92102 0.0
C2049 C 0.58455 0.66935 0.92855 0.0
H2050 H 0.65261 0.70612 0.90378 0.0
C2051 C 0.53686 0.63002 0.92419 0.0
H2052 H 0.66348 0.72696 0.92397 0.0
C2053 C 0.53045 0.61935 0.91262 0.0
C2054 C 0.5719 0.64671 0.90515 0.0
H2055 H 0.50413 0.60744 0.92971 0.0
H2056 H 0.49305 0.58958 0.90949 0.0
C2057 C 0.62018 0.68447 0.90944 0.0
C2058 C 0.37964 0.43373 0.40898 0.0
C2059 C 0.33779 0.41216 0.40137 0.0
H2060 H 0.40363 0.45188 0.4263 0.0
C2061 C 0.28687 0.38847 0.40557 0.0
H2062 H 0.41924 0.45281 0.40591 0.0
C2063 C 0.27796 0.38734 0.41721 0.0
C2064 C 0.31988 0.41099 0.42478 0.0
H2065 H 0.25407 0.3719 0.39983 0.0
H2066 H 0.23841 0.36989 0.42026 0.0
C2067 C 0.37076 0.4336 0.42059 0.0
C2068 C 0.62921 0.91443 0.40966 0.0
C2069 C 0.60363 0.93934 0.40514 0.0
H2070 H 0.65265 0.89102 0.4247 0.0
C2071 C 0.5846 0.96303 0.41251 0.0
H2072 H 0.64412 0.89584 0.40413 0.0
C2073 C 0.58871 0.95953 0.42422 0.0
C2074 C 0.61293 0.93331 0.42875 0.0
H2075 H 0.56429 0.98202 0.40922 0.0
H2076 H 0.57171 0.97607 0.42977 0.0
C2077 C 0.63433 0.91192 0.42138 0.0
C2078 C 0.14515 0.71859 0.41935 0.0
C2079 C 0.10323 0.69061 0.42667 0.0
H2080 H 0.17294 0.73045 0.40237 0.0
C2081 C 0.05525 0.65297 0.42225 0.0
H2082 H 0.1823 0.74832 0.4226 0.0
C2083 C 0.05004 0.64165 0.41067 0.0
C2084 C 0.09263 0.66839 0.40334 0.0
H2085 H 0.0225 0.63093 0.42781 0.0
H2086 H 0.01331 0.61066 0.40755 0.0
C2087 C 0.13977 0.70802 0.40779 0.0
loop_
_geom_bond_atom_site_label_1
_geom_bond_atom_site_label_2
_geom_bond_distance
_geom_bond_site_symmetry_2
_ccdc_geom_bond_type
C0 C1 1.351 . S
C0 N3 1.368 . S
C0 H5 0.931 . S
C1 C0 1.351 . S
C1 N2 1.373 . S
C1 H29 0.930 . S
N2 C1 1.373 . S
N2 C4 1.340 . S
N3 C0 1.368 . S
N3 C4 1.321 . S
N3 Co6 2.135 . S
C4 N2 1.340 . S
C4 N3 1.321 . S
C4 H28 0.930 . S
H5 C0 0.931 . S
Co6 N3 2.135 . S
Co6 N9 2.121 . S
Co6 O14 2.055 . S
Co6 O17 2.039 . S
Co6 N20 2.140 . S
C7 O8 1.227 . S
C7 O17 1.265 1_655 S
O8 C7 1.227 . S
N9 Co6 2.121 . S
N9 C11 1.375 1_455 S
N9 C12 1.313 . S
C10 C11 1.338 . S
C10 N13 1.377 1_655 S
C10 H30 0.930 . S
C11 N9 1.375 1_655 S
C11 C10 1.338 . S
C11 H15 0.931 . S
C12 N9 1.313 . S
C12 N13 1.344 . S
C12 H16 0.930 . S
N13 C10 1.377 1_455 S
N13 C12 1.344 . S
O14 Co6 2.055 . S
O14 C18 1.253 . S
H15 C11 0.931 . S
H16 C12 0.930 . S
O17 Co6 2.039 . S
O17 C7 1.265 1_455 S
C18 O14 1.253 . S
C18 O19 1.227 . S
O19 C18 1.227 . S
N20 Co6 2.140 . S
N20 C23 1.346 . S
N20 C24 1.345 . S
C21 C22 1.387 . S
C21 C25 1.391 . S
C22 C21 1.387 . S
C22 C23 1.369 . S
C22 H31 0.929 . S
C23 N20 1.346 . S
C23 C22 1.369 . S
C23 H26 0.928 . S
C24 N20 1.345 . S
C24 C25 1.371 . S
C24 H27 0.931 . S
C25 C21 1.391 . S
C25 C24 1.371 . S
C25 H32 0.930 . S
H26 C23 0.928 . S
H27 C24 0.931 . S
H28 C4 0.930 . S
H29 C1 0.930 . S
H30 C10 0.930 . S
H31 C22 0.929 . S
H32 C25 0.930 . S
C33 C34 1.351 . S
C33 N36 1.368 . S
C33 H38 0.931 . S
C34 C33 1.351 . S
C34 N35 1.373 . S
C34 H62 0.930 1_565 S
N35 C34 1.373 . S
N35 C37 1.340 . S
N36 C33 1.368 . S
N36 C37 1.321 . S
N36 Co39 2.135 . S
C37 N35 1.340 . S
C37 N36 1.321 . S
C37 H61 0.930 . S
H38 C33 0.931 . S
Co39 N36 2.135 . S
Co39 N42 2.121 . S
Co39 O47 2.055 . S
Co39 O50 2.039 . S
Co39 N53 2.140 . S
C40 O41 1.227 . S
C40 O50 1.265 . S
O41 C40 1.227 . S
N42 Co39 2.121 . S
N42 C44 1.375 . S
N42 C45 1.313 . S
C43 C44 1.338 . S
C43 N46 1.377 . S
C43 H63 0.930 . S
C44 N42 1.375 . S
C44 C43 1.338 . S
C44 H48 0.931 . S
C45 N42 1.313 . S
C45 N46 1.344 . S
C45 H49 0.930 . S
N46 C43 1.377 . S
N46 C45 1.344 . S
O47 Co39 2.055 . S
O47 C51 1.253 . S
H48 C44 0.931 . S
H49 C45 0.930 . S
O50 Co39 2.039 . S
O50 C40 1.265 . S
C51 O47 1.253 . S
C51 O52 1.227 . S
O52 C51 1.227 . S
N53 Co39 2.140 . S
N53 C56 1.346 . S
N53 C57 1.345 . S
C54 C55 1.387 . S
C54 C58 1.391 . S
C55 C54 1.387 . S
C55 C56 1.369 . S
C55 H64 0.929 . S
C56 N53 1.346 . S
C56 C55 1.369 . S
C56 H59 0.928 . S
C57 N53 1.345 . S
C57 C58 1.371 . S
C57 H60 0.931 . S
C58 C54 1.391 . S
C58 C57 1.371 . S
C58 H65 0.930 . S
H59 C56 0.928 . S
H60 C57 0.931 . S
H61 C37 0.930 . S
H62 C34 0.930 1_545 S
H63 C43 0.930 . S
H64 C55 0.929 . S
H65 C58 0.930 . S
C66 C67 1.351 . S
C66 N69 1.368 . S
C66 H71 0.931 . S
C67 C66 1.351 . S
C67 N68 1.373 . S
C67 H95 0.930 1_455 S
N68 C67 1.373 . S
N68 C70 1.340 . S
N69 C66 1.368 . S
N69 C70 1.321 . S
N69 Co72 2.135 . S
C70 N68 1.340 . S
C70 N69 1.321 . S
C70 H94 0.930 . S
H71 C66 0.931 . S
Co72 N69 2.135 . S
Co72 N75 2.121 . S
Co72 O80 2.055 . S
Co72 O83 2.039 . S
Co72 N86 2.140 . S
C73 O74 1.227 . S
C73 O83 1.265 1_545 S
O74 C73 1.227 . S
N75 Co72 2.121 . S
N75 C77 1.375 1_565 S
N75 C78 1.313 . S
C76 C77 1.338 . S
C76 N79 1.377 1_545 S
C76 H96 0.930 . S
C77 N75 1.375 1_545 S
C77 C76 1.338 . S
C77 H81 0.931 . S
C78 N75 1.313 . S
C78 N79 1.344 . S
C78 H82 0.930 . S
N79 C76 1.377 1_565 S
N79 C78 1.344 . S
O80 Co72 2.055 . S
O80 C84 1.253 . S
H81 C77 0.931 . S
H82 C78 0.930 . S
O83 Co72 2.039 . S
O83 C73 1.265 1_565 S
C84 O80 1.253 . S
C84 O85 1.227 . S
O85 C84 1.227 . S
N86 Co72 2.140 . S
N86 C89 1.346 . S
N86 C90 1.345 . S
C87 C88 1.387 . S
C87 C91 1.391 . S
C88 C87 1.387 . S
C88 C89 1.369 . S
C88 H97 0.929 . S
C89 N86 1.346 . S
C89 C88 1.369 . S
C89 H92 0.928 . S
C90 N86 1.345 . S
C90 C91 1.371 . S
C90 H93 0.931 . S
C91 C87 1.391 . S
C91 C90 1.371 . S
C91 H98 0.930 . S
H92 C89 0.928 . S
H93 C90 0.931 . S
H94 C70 0.930 . S
H95 C67 0.930 1_655 S
H96 C76 0.930 . S
H97 C88 0.929 . S
H98 C91 0.930 . S
C99 C100 1.351 . S
C99 N102 1.368 . S
C99 H104 0.931 . S
C100 C99 1.351 . S
C100 N101 1.373 . S
C100 H128 0.930 . S
N101 C100 1.373 . S
N101 C103 1.340 . S
N102 C99 1.368 . S
N102 C103 1.321 . S
N102 Co105 2.135 . S
C103 N101 1.340 . S
C103 N102 1.321 . S
C103 H127 0.930 . S
H104 C99 0.931 . S
Co105 N102 2.135 . S
Co105 N108 2.121 . S
Co105 O113 2.055 . S
Co105 O116 2.039 . S
Co105 N119 2.140 . S
C106 O107 1.227 . S
C106 O116 1.265 1_565 S
O107 C106 1.227 . S
N108 Co105 2.121 . S
N108 C110 1.375 1_545 S
N108 C111 1.313 . S
C109 C110 1.338 . S
C109 N112 1.377 1_565 S
C109 H129 0.930 . S
C110 N108 1.375 1_565 S
C110 C109 1.338 . S
C110 H114 0.931 . S
C111 N108 1.313 . S
C111 N112 1.344 . S
C111 H115 0.930 . S
N112 C109 1.377 1_545 S
N112 C111 1.344 . S
O113 Co105 2.055 . S
O113 C117 1.253 . S
H114 C110 0.931 . S
H115 C111 0.930 . S
O116 Co105 2.039 . S
O116 C106 1.265 1_545 S
C117 O113 1.253 . S
C117 O118 1.227 . S
O118 C117 1.227 . S
N119 Co105 2.140 . S
N119 C122 1.346 . S
N119 C123 1.345 . S
C120 C121 1.387 . S
C120 C124 1.391 . S
C121 C120 1.387 . S
C121 C122 1.369 . S
C121 H130 0.929 . S
C122 N119 1.346 . S
C122 C121 1.369 . S
C122 H125 0.928 . S
C123 N119 1.345 . S
C123 C124 1.371 . S
C123 H126 0.931 . S
C124 C120 1.391 . S
C124 C123 1.371 . S
C124 H131 0.930 . S
H125 C122 0.928 . S
H126 C123 0.931 . S
H127 C103 0.930 . S
H128 C100 0.930 . S
H129 C109 0.930 . S
H130 C121 0.929 . S
H131 C124 0.930 . S
C132 C133 1.351 . S
C132 N135 1.368 . S
C132 H137 0.931 . S
C133 C132 1.351 . S
C133 N134 1.373 . S
C133 H161 0.930 1_545 S
N134 C133 1.373 . S
N134 C136 1.340 . S
N135 C132 1.368 . S
N135 C136 1.321 . S
N135 Co138 2.135 . S
C136 N134 1.340 . S
C136 N135 1.321 . S
C136 H160 0.930 . S
H137 C132 0.931 . S
Co138 N135 2.135 . S
Co138 N141 2.121 . S
Co138 O146 2.055 . S
Co138 O149 2.039 . S
Co138 N152 2.140 . S
C139 O140 1.227 . S
C139 O149 1.265 1_455 S
O140 C139 1.227 . S
N141 Co138 2.121 . S
N141 C143 1.375 1_655 S
N141 C144 1.313 . S
C142 C143 1.338 . S
C142 N145 1.377 1_455 S
C142 H162 0.930 . S
C143 N141 1.375 1_455 S
C143 C142 1.338 . S
C143 H147 0.931 . S
C144 N141 1.313 . S
C144 N145 1.344 . S
C144 H148 0.930 . S
N145 C142 1.377 1_655 S
N145 C144 1.344 . S
O146 Co138 2.055 . S
O146 C150 1.253 . S
H147 C143 0.931 . S
H148 C144 0.930 . S
O149 Co138 2.039 . S
O149 C139 1.265 1_655 S
C150 O146 1.253 . S
C150 O151 1.227 . S
O151 C150 1.227 . S
N152 Co138 2.140 . S
N152 C155 1.346 . S
N152 C156 1.345 . S
C153 C154 1.387 . S
C153 C157 1.391 . S
C154 C153 1.387 . S
C154 C155 1.369 . S
C154 H163 0.929 . S
C155 N152 1.346 . S
C155 C154 1.369 . S
C155 H158 0.928 . S
C156 N152 1.345 . S
C156 C157 1.371 . S
C156 H159 0.931 . S
C157 C153 1.391 . S
C157 C156 1.371 . S
C157 H164 0.930 . S
H158 C155 0.928 . S
H159 C156 0.931 . S
H160 C136 0.930 . S
H161 C133 0.930 1_565 S
H162 C142 0.930 . S
H163 C154 0.929 . S
H164 C157 0.930 . S
C165 C166 1.351 . S
C165 N168 1.368 . S
C165 H170 0.931 . S
C166 C165 1.351 . S
C166 N167 1.373 . S
C166 H194 0.930 1_655 S
N167 C166 1.373 . S
N167 C169 1.340 . S
N168 C165 1.368 . S
N168 C169 1.321 . S
N168 Co171 2.135 . S
C169 N167 1.340 . S
C169 N168 1.321 . S
C169 H193 0.930 . S
H170 C165 0.931 . S
Co171 N168 2.135 . S
Co171 N174 2.121 . S
Co171 O179 2.055 . S
Co171 O182 2.039 . S
Co171 N185 2.140 . S
C172 O173 1.227 . S
C172 O182 1.265 . S
O173 C172 1.227 . S
N174 Co171 2.121 . S
N174 C176 1.375 . S
N174 C177 1.313 . S
C175 C176 1.338 . S
C175 N178 1.377 . S
C175 H195 0.930 . S
C176 N174 1.375 . S
C176 C175 1.338 . S
C176 H180 0.931 . S
C177 N174 1.313 . S
C177 N178 1.344 . S
C177 H181 0.930 . S
N178 C175 1.377 . S
N178 C177 1.344 . S
O179 Co171 2.055 . S
O179 C183 1.253 . S
H180 C176 0.931 . S
H181 C177 0.930 . S
O182 Co171 2.039 . S
O182 C172 1.265 . S
C183 O179 1.253 . S
C183 O184 1.227 . S
O184 C183 1.227 . S
N185 Co171 2.140 . S
N185 C188 1.346 . S
N185 C189 1.345 . S
C186 C187 1.387 . S
C186 C190 1.391 . S
C187 C186 1.387 . S
C187 C188 1.369 . S
C187 H196 0.929 . S
C188 N185 1.346 . S
C188 C187 1.369 . S
C188 H191 0.928 . S
C189 N185 1.345 . S
C189 C190 1.371 . S
C189 H192 0.931 . S
C190 C186 1.391 . S
C190 C189 1.371 . S
C190 H197 0.930 . S
H191 C188 0.928 . S
H192 C189 0.931 . S
H193 C169 0.930 . S
H194 C166 0.930 1_455 S
H195 C175 0.930 . S
H196 C187 0.929 . S
H197 C190 0.930 . S
C198 C199 1.351 . S
C198 N201 1.368 . S
C198 H203 0.931 . S
C199 C198 1.351 . S
C199 N200 1.373 . S
C199 H227 0.930 . S
N200 C199 1.373 . S
N200 C202 1.340 . S
N201 C198 1.368 . S
N201 C202 1.321 . S
N201 Co204 2.135 . S
C202 N200 1.340 . S
C202 N201 1.321 . S
C202 H226 0.930 . S
H203 C198 0.931 . S
Co204 N201 2.135 . S
Co204 N207 2.121 . S
Co204 O212 2.055 . S
Co204 O215 2.039 . S
Co204 N218 2.140 . S
C205 O206 1.227 . S
C205 O215 1.265 1_455 S
O206 C205 1.227 . S
N207 Co204 2.121 . S
N207 C209 1.375 1_655 S
N207 C210 1.313 . S
C208 C209 1.338 . S
C208 N211 1.377 1_455 S
C208 H228 0.930 . S
C209 N207 1.375 1_455 S
C209 C208 1.338 . S
C209 H213 0.931 . S
C210 N207 1.313 . S
C210 N211 1.344 . S
C210 H214 0.930 . S
N211 C208 1.377 1_655 S
N211 C210 1.344 . S
O212 Co204 2.055 . S
O212 C216 1.253 . S
H213 C209 0.931 . S
H214 C210 0.930 . S
O215 Co204 2.039 . S
O215 C205 1.265 1_655 S
C216 O212 1.253 . S
C216 O217 1.227 . S
O217 C216 1.227 . S
N218 Co204 2.140 . S
N218 C221 1.346 . S
N218 C222 1.345 . S
C219 C220 1.387 . S
C219 C223 1.391 . S
C220 C219 1.387 . S
C220 C221 1.369 . S
C220 H229 0.929 . S
C221 N218 1.346 . S
C221 C220 1.369 . S
C221 H224 0.928 . S
C222 N218 1.345 . S
C222 C223 1.371 . S
C222 H225 0.931 . S
C223 C219 1.391 . S
C223 C222 1.371 . S
C223 H230 0.930 . S
H224 C221 0.928 . S
H225 C222 0.931 . S
H226 C202 0.930 . S
H227 C199 0.930 . S
H228 C208 0.930 . S
H229 C220 0.929 . S
H230 C223 0.930 . S
C231 C232 1.351 . S
C231 N234 1.368 . S
C231 H236 0.931 . S
C232 C231 1.351 . S
C232 N233 1.373 . S
C232 H260 0.930 1_545 S
N233 C232 1.373 . S
N233 C235 1.340 . S
N234 C231 1.368 . S
N234 C235 1.321 . S
N234 Co237 2.135 . S
C235 N233 1.340 . S
C235 N234 1.321 . S
C235 H259 0.930 . S
H236 C231 0.931 . S
Co237 N234 2.135 . S
Co237 N240 2.121 . S
Co237 O245 2.055 . S
Co237 O248 2.039 . S
Co237 N251 2.140 . S
C238 O239 1.227 . S
C238 O248 1.265 . S
O239 C238 1.227 . S
N240 Co237 2.121 . S
N240 C242 1.375 . S
N240 C243 1.313 . S
C241 C242 1.338 . S
C241 N244 1.377 . S
C241 H261 0.930 . S
C242 N240 1.375 . S
C242 C241 1.338 . S
C242 H246 0.931 . S
C243 N240 1.313 . S
C243 N244 1.344 . S
C243 H247 0.930 . S
N244 C241 1.377 . S
N244 C243 1.344 . S
O245 Co237 2.055 . S
O245 C249 1.253 . S
H246 C242 0.931 . S
H247 C243 0.930 . S
O248 Co237 2.039 . S
O248 C238 1.265 . S
C249 O245 1.253 . S
C249 O250 1.227 . S
O250 C249 1.227 . S
N251 Co237 2.140 . S
N251 C254 1.346 . S
N251 C255 1.345 . S
C252 C253 1.387 . S
C252 C256 1.391 . S
C253 C252 1.387 . S
C253 C254 1.369 . S
C253 H262 0.929 . S
C254 N251 1.346 . S
C254 C253 1.369 . S
C254 H257 0.928 . S
C255 N251 1.345 . S
C255 C256 1.371 . S
C255 H258 0.931 . S
C256 C252 1.391 . S
C256 C255 1.371 . S
C256 H263 0.930 . S
H257 C254 0.928 . S
H258 C255 0.931 . S
H259 C235 0.930 . S
H260 C232 0.930 1_565 S
H261 C241 0.930 . S
H262 C253 0.929 . S
H263 C256 0.930 . S
C264 C265 1.351 . S
C264 N267 1.368 . S
C264 H269 0.931 . S
C265 C264 1.351 . S
C265 N266 1.373 . S
C265 H293 0.930 1_655 S
N266 C265 1.373 . S
N266 C268 1.340 . S
N267 C264 1.368 . S
N267 C268 1.321 . S
N267 Co270 2.135 . S
C268 N266 1.340 . S
C268 N267 1.321 . S
C268 H292 0.930 . S
H269 C264 0.931 . S
Co270 N267 2.135 . S
Co270 N273 2.121 . S
Co270 O278 2.055 . S
Co270 O281 2.039 . S
Co270 N284 2.140 . S
C271 O272 1.227 . S
C271 O281 1.265 1_565 S
O272 C271 1.227 . S
N273 Co270 2.121 . S
N273 C275 1.375 1_545 S
N273 C276 1.313 . S
C274 C275 1.338 . S
C274 N277 1.377 1_565 S
C274 H294 0.930 . S
C275 N273 1.375 1_565 S
C275 C274 1.338 . S
C275 H279 0.931 . S
C276 N273 1.313 . S
C276 N277 1.344 . S
C276 H280 0.930 . S
N277 C274 1.377 1_545 S
N277 C276 1.344 . S
O278 Co270 2.055 . S
O278 C282 1.253 . S
H279 C275 0.931 . S
H280 C276 0.930 . S
O281 Co270 2.039 . S
O281 C271 1.265 1_545 S
C282 O278 1.253 . S
C282 O283 1.227 . S
O283 C282 1.227 . S
N284 Co270 2.140 . S
N284 C287 1.346 . S
N284 C288 1.345 . S
C285 C286 1.387 . S
C285 C289 1.391 . S
C286 C285 1.387 . S
C286 C287 1.369 . S
C286 H295 0.929 . S
C287 N284 1.346 . S
C287 C286 1.369 . S
C287 H290 0.928 . S
C288 N284 1.345 . S
C288 C289 1.371 . S
C288 H291 0.931 . S
C289 C285 1.391 . S
C289 C288 1.371 . S
C289 H296 0.930 . S
H290 C287 0.928 . S
H291 C288 0.931 . S
H292 C268 0.930 . S
H293 C265 0.930 1_455 S
H294 C274 0.930 . S
H295 C286 0.929 . S
H296 C289 0.930 . S
C297 C298 1.351 . S
C297 N300 1.368 . S
C297 H302 0.931 . S
C298 C297 1.351 . S
C298 N299 1.373 . S
C298 H326 0.930 . S
N299 C298 1.373 . S
N299 C301 1.340 . S
N300 C297 1.368 . S
N300 C301 1.321 . S
N300 Co303 2.135 . S
C301 N299 1.340 . S
C301 N300 1.321 . S
C301 H325 0.930 . S
H302 C297 0.931 . S
Co303 N300 2.135 . S
Co303 N306 2.121 . S
Co303 O311 2.055 . S
Co303 O314 2.039 . S
Co303 N317 2.140 . S
C304 O305 1.227 . S
C304 O314 1.265 1_545 S
O305 C304 1.227 . S
N306 Co303 2.121 . S
N306 C308 1.375 1_565 S
N306 C309 1.313 . S
C307 C308 1.338 . S
C307 N310 1.377 1_545 S
C307 H327 0.930 . S
C308 N306 1.375 1_545 S
C308 C307 1.338 . S
C308 H312 0.931 . S
C309 N306 1.313 . S
C309 N310 1.344 . S
C309 H313 0.930 . S
N310 C307 1.377 1_565 S
N310 C309 1.344 . S
O311 Co303 2.055 . S
O311 C315 1.253 . S
H312 C308 0.931 . S
H313 C309 0.930 . S
O314 Co303 2.039 . S
O314 C304 1.265 1_565 S
C315 O311 1.253 . S
C315 O316 1.227 . S
O316 C315 1.227 . S
N317 Co303 2.140 . S
N317 C320 1.346 . S
N317 C321 1.345 . S
C318 C319 1.387 . S
C318 C322 1.391 . S
C319 C318 1.387 . S
C319 C320 1.369 . S
C319 H328 0.929 . S
C320 N317 1.346 . S
C320 C319 1.369 . S
C320 H323 0.928 . S
C321 N317 1.345 . S
C321 C322 1.371 . S
C321 H324 0.931 . S
C322 C318 1.391 . S
C322 C321 1.371 . S
C322 H329 0.930 . S
H323 C320 0.928 . S
H324 C321 0.931 . S
H325 C301 0.930 . S
H326 C298 0.930 . S
H327 C307 0.930 . S
H328 C319 0.929 . S
H329 C322 0.930 . S
C330 C331 1.351 . S
C330 N333 1.368 . S
C330 H335 0.931 . S
C331 C330 1.351 . S
C331 N332 1.373 . S
C331 H359 0.930 1_565 S
N332 C331 1.373 . S
N332 C334 1.340 . S
N333 C330 1.368 . S
N333 C334 1.321 . S
N333 Co336 2.135 . S
C334 N332 1.340 . S
C334 N333 1.321 . S
C334 H358 0.930 . S
H335 C330 0.931 . S
Co336 N333 2.135 . S
Co336 N339 2.121 . S
Co336 O344 2.055 . S
Co336 O347 2.039 . S
Co336 N350 2.140 . S
C337 O338 1.227 . S
C337 O347 1.265 1_655 S
O338 C337 1.227 . S
N339 Co336 2.121 . S
N339 C341 1.375 1_455 S
N339 C342 1.313 . S
C340 C341 1.338 . S
C340 N343 1.377 1_655 S
C340 H360 0.930 . S
C341 N339 1.375 1_655 S
C341 C340 1.338 . S
C341 H345 0.931 . S
C342 N339 1.313 . S
C342 N343 1.344 . S
C342 H346 0.930 . S
N343 C340 1.377 1_455 S
N343 C342 1.344 . S
O344 Co336 2.055 . S
O344 C348 1.253 . S
H345 C341 0.931 . S
H346 C342 0.930 . S
O347 Co336 2.039 . S
O347 C337 1.265 1_455 S
C348 O344 1.253 . S
C348 O349 1.227 . S
O349 C348 1.227 . S
N350 Co336 2.140 . S
N350 C353 1.346 . S
N350 C354 1.345 . S
C351 C352 1.387 . S
C351 C355 1.391 . S
C352 C351 1.387 . S
C352 C353 1.369 . S
C352 H361 0.929 . S
C353 N350 1.346 . S
C353 C352 1.369 . S
C353 H356 0.928 . S
C354 N350 1.345 . S
C354 C355 1.371 . S
C354 H357 0.931 . S
C355 C351 1.391 . S
C355 C354 1.371 . S
C355 H362 0.930 . S
H356 C353 0.928 . S
H357 C354 0.931 . S
H358 C334 0.930 . S
H359 C331 0.930 1_545 S
H360 C340 0.930 . S
H361 C352 0.929 . S
H362 C355 0.930 . S
C363 C364 1.351 . S
C363 N366 1.368 . S
C363 H368 0.931 . S
C364 C363 1.351 . S
C364 N365 1.373 . S
C364 H392 0.930 1_455 S
N365 C364 1.373 . S
N365 C367 1.340 . S
N366 C363 1.368 . S
N366 C367 1.321 . S
N366 Co369 2.135 . S
C367 N365 1.340 . S
C367 N366 1.321 . S
C367 H391 0.930 . S
H368 C363 0.931 . S
Co369 N366 2.135 . S
Co369 N372 2.121 . S
Co369 O377 2.055 . S
Co369 O380 2.039 . S
Co369 N383 2.140 . S
C370 O371 1.227 . S
C370 O380 1.265 . S
O371 C370 1.227 . S
N372 Co369 2.121 . S
N372 C374 1.375 . S
N372 C375 1.313 . S
C373 C374 1.338 . S
C373 N376 1.377 . S
C373 H393 0.930 . S
C374 N372 1.375 . S
C374 C373 1.338 . S
C374 H378 0.931 . S
C375 N372 1.313 . S
C375 N376 1.344 . S
C375 H379 0.930 . S
N376 C373 1.377 . S
N376 C375 1.344 . S
O377 Co369 2.055 . S
O377 C381 1.253 . S
H378 C374 0.931 . S
H379 C375 0.930 . S
O380 Co369 2.039 . S
O380 C370 1.265 . S
C381 O377 1.253 . S
C381 O382 1.227 . S
O382 C381 1.227 . S
N383 Co369 2.140 . S
N383 C386 1.346 . S
N383 C387 1.345 . S
C384 C385 1.387 . S
C384 C388 1.391 . S
C385 C384 1.387 . S
C385 C386 1.369 . S
C385 H394 0.929 . S
C386 N383 1.346 . S
C386 C385 1.369 . S
C386 H389 0.928 . S
C387 N383 1.345 . S
C387 C388 1.371 . S
C387 H390 0.931 . S
C388 C384 1.391 . S
C388 C387 1.371 . S
C388 H395 0.930 . S
H389 C386 0.928 . S
H390 C387 0.931 . S
H391 C367 0.930 . S
H392 C364 0.930 1_655 S
H393 C373 0.930 . S
H394 C385 0.929 . S
H395 C388 0.930 . S
C396 C397 1.351 . S
C396 N399 1.368 . S
C396 H401 0.931 . S
C397 C396 1.351 . S
C397 N398 1.373 . S
C397 H425 0.930 . S
N398 C397 1.373 . S
N398 C400 1.340 . S
N399 C396 1.368 . S
N399 C400 1.321 . S
N399 Co402 2.135 . S
C400 N398 1.340 . S
C400 N399 1.321 . S
C400 H424 0.930 . S
H401 C396 0.931 . S
Co402 N399 2.135 . S
Co402 N405 2.121 . S
Co402 O410 2.055 . S
Co402 O413 2.039 . S
Co402 N416 2.140 . S
C403 O404 1.227 . S
C403 O413 1.265 . S
O404 C403 1.227 . S
N405 Co402 2.121 . S
N405 C407 1.375 . S
N405 C408 1.313 . S
C406 C407 1.338 . S
C406 N409 1.377 . S
C406 H426 0.930 . S
C407 N405 1.375 . S
C407 C406 1.338 . S
C407 H411 0.931 . S
C408 N405 1.313 . S
C408 N409 1.344 . S
C408 H412 0.930 . S
N409 C406 1.377 . S
N409 C408 1.344 . S
O410 Co402 2.055 . S
O410 C414 1.253 . S
H411 C407 0.931 . S
H412 C408 0.930 . S
O413 Co402 2.039 . S
O413 C403 1.265 . S
C414 O410 1.253 . S
C414 O415 1.227 . S
O415 C414 1.227 . S
N416 Co402 2.140 . S
N416 C419 1.346 . S
N416 C420 1.345 . S
C417 C418 1.387 . S
C417 C421 1.391 . S
C418 C417 1.387 . S
C418 C419 1.369 . S
C418 H427 0.929 . S
C419 N416 1.346 . S
C419 C418 1.369 . S
C419 H422 0.928 . S
C420 N416 1.345 . S
C420 C421 1.371 . S
C420 H423 0.931 . S
C421 C417 1.391 . S
C421 C420 1.371 . S
C421 H428 0.930 . S
H422 C419 0.928 . S
H423 C420 0.931 . S
H424 C400 0.930 . S
H425 C397 0.930 . S
H426 C406 0.930 . S
H427 C418 0.929 . S
H428 C421 0.930 . S
C429 C430 1.351 . S
C429 N432 1.368 . S
C429 H434 0.931 . S
C430 C429 1.351 . S
C430 N431 1.373 . S
C430 H458 0.930 . S
N431 C430 1.373 . S
N431 C433 1.340 . S
N432 C429 1.368 . S
N432 C433 1.321 . S
N432 Co435 2.135 . S
C433 N431 1.340 . S
C433 N432 1.321 . S
C433 H457 0.930 . S
H434 C429 0.931 . S
Co435 N432 2.135 . S
Co435 N438 2.121 . S
Co435 O443 2.055 . S
Co435 O446 2.039 . S
Co435 N449 2.140 . S
C436 O437 1.227 . S
C436 O446 1.265 . S
O437 C436 1.227 . S
N438 Co435 2.121 . S
N438 C440 1.375 . S
N438 C441 1.313 . S
C439 C440 1.338 . S
C439 N442 1.377 . S
C439 H459 0.930 1_545 S
C440 N438 1.375 . S
C440 C439 1.338 . S
C440 H444 0.931 . S
C441 N438 1.313 . S
C441 N442 1.344 . S
C441 H445 0.930 . S
N442 C439 1.377 . S
N442 C441 1.344 . S
O443 Co435 2.055 . S
O443 C447 1.253 . S
H444 C440 0.931 . S
H445 C441 0.930 . S
O446 Co435 2.039 . S
O446 C436 1.265 . S
C447 O443 1.253 . S
C447 O448 1.227 . S
O448 C447 1.227 . S
N449 Co435 2.140 . S
N449 C452 1.346 . S
N449 C453 1.345 . S
C450 C451 1.387 . S
C450 C454 1.391 . S
C451 C450 1.387 . S
C451 C452 1.369 . S
C451 H460 0.929 . S
C452 N449 1.346 . S
C452 C451 1.369 . S
C452 H455 0.928 . S
C453 N449 1.345 . S
C453 C454 1.371 . S
C453 H456 0.931 . S
C454 C450 1.391 . S
C454 C453 1.371 . S
C454 H461 0.930 . S
H455 C452 0.928 . S
H456 C453 0.931 . S
H457 C433 0.930 . S
H458 C430 0.930 . S
H459 C439 0.930 1_565 S
H460 C451 0.929 . S
H461 C454 0.930 . S
C462 C463 1.351 . S
C462 N465 1.368 . S
C462 H467 0.931 . S
C463 C462 1.351 . S
C463 N464 1.373 . S
C463 H491 0.930 . S
N464 C463 1.373 . S
N464 C466 1.340 . S
N465 C462 1.368 . S
N465 C466 1.321 . S
N465 Co468 2.135 . S
C466 N464 1.340 . S
C466 N465 1.321 . S
C466 H490 0.930 . S
H467 C462 0.931 . S
Co468 N465 2.135 . S
Co468 N471 2.121 . S
Co468 O476 2.055 . S
Co468 O479 2.039 . S
Co468 N482 2.140 . S
C469 O470 1.227 . S
C469 O479 1.265 . S
O470 C469 1.227 . S
N471 Co468 2.121 . S
N471 C473 1.375 . S
N471 C474 1.313 . S
C472 C473 1.338 . S
C472 N475 1.377 . S
C472 H492 0.930 1_655 S
C473 N471 1.375 . S
C473 C472 1.338 . S
C473 H477 0.931 . S
C474 N471 1.313 . S
C474 N475 1.344 . S
C474 H478 0.930 . S
N475 C472 1.377 . S
N475 C474 1.344 . S
O476 Co468 2.055 . S
O476 C480 1.253 . S
H477 C473 0.931 . S
H478 C474 0.930 . S
O479 Co468 2.039 . S
O479 C469 1.265 . S
C480 O476 1.253 . S
C480 O481 1.227 . S
O481 C480 1.227 . S
N482 Co468 2.140 . S
N482 C485 1.346 . S
N482 C486 1.345 . S
C483 C484 1.387 . S
C483 C487 1.391 . S
C484 C483 1.387 . S
C484 C485 1.369 . S
C484 H493 0.929 . S
C485 N482 1.346 . S
C485 C484 1.369 . S
C485 H488 0.928 . S
C486 N482 1.345 . S
C486 C487 1.371 . S
C486 H489 0.931 . S
C487 C483 1.391 . S
C487 C486 1.371 . S
C487 H494 0.930 . S
H488 C485 0.928 . S
H489 C486 0.931 . S
H490 C466 0.930 . S
H491 C463 0.930 . S
H492 C472 0.930 1_455 S
H493 C484 0.929 . S
H494 C487 0.930 . S
C495 C496 1.351 . S
C495 N498 1.368 . S
C495 H500 0.931 . S
C496 C495 1.351 . S
C496 N497 1.373 . S
C496 H524 0.930 . S
N497 C496 1.373 . S
N497 C499 1.340 . S
N498 C495 1.368 . S
N498 C499 1.321 . S
N498 Co501 2.135 . S
C499 N497 1.340 . S
C499 N498 1.321 . S
C499 H523 0.930 . S
H500 C495 0.931 . S
Co501 N498 2.135 . S
Co501 N504 2.121 . S
Co501 O509 2.055 . S
Co501 O512 2.039 . S
Co501 N515 2.140 . S
C502 O503 1.227 . S
C502 O512 1.265 . S
O503 C502 1.227 . S
N504 Co501 2.121 . S
N504 C506 1.375 . S
N504 C507 1.313 1_655 S
C505 C506 1.338 . S
C505 N508 1.377 1_655 S
C505 H525 0.930 . S
C506 N504 1.375 . S
C506 C505 1.338 . S
C506 H510 0.931 . S
C507 N504 1.313 1_455 S
C507 N508 1.344 . S
C507 H511 0.930 . S
N508 C505 1.377 1_455 S
N508 C507 1.344 . S
O509 Co501 2.055 . S
O509 C513 1.253 . S
H510 C506 0.931 . S
H511 C507 0.930 . S
O512 Co501 2.039 . S
O512 C502 1.265 . S
C513 O509 1.253 . S
C513 O514 1.227 1_655 S
O514 C513 1.227 1_455 S
N515 Co501 2.140 . S
N515 C518 1.346 . S
N515 C519 1.345 . S
C516 C517 1.387 . S
C516 C520 1.391 . S
C517 C516 1.387 . S
C517 C518 1.369 . S
C517 H526 0.929 . S
C518 N515 1.346 . S
C518 C517 1.369 . S
C518 H521 0.928 . S
C519 N515 1.345 . S
C519 C520 1.371 . S
C519 H522 0.931 1_655 S
C520 C516 1.391 . S
C520 C519 1.371 . S
C520 H527 0.930 1_655 S
H521 C518 0.928 . S
H522 C519 0.931 1_455 S
H523 C499 0.930 . S
H524 C496 0.930 . S
H525 C505 0.930 . S
H526 C517 0.929 . S
H527 C520 0.930 1_455 S
C528 C529 1.351 . S
C528 N531 1.368 . S
C528 H533 0.931 . S
C529 C528 1.351 . S
C529 N530 1.373 . S
C529 H557 0.930 . S
N530 C529 1.373 . S
N530 C532 1.340 . S
N531 C528 1.368 . S
N531 C532 1.321 . S
N531 Co534 2.135 . S
C532 N530 1.340 . S
C532 N531 1.321 . S
C532 H556 0.930 . S
H533 C528 0.931 . S
Co534 N531 2.135 . S
Co534 N537 2.121 . S
Co534 O542 2.055 . S
Co534 O545 2.039 . S
Co534 N548 2.140 . S
C535 O536 1.227 . S
C535 O545 1.265 . S
O536 C535 1.227 . S
N537 Co534 2.121 . S
N537 C539 1.375 . S
N537 C540 1.313 . S
C538 C539 1.338 . S
C538 N541 1.377 . S
C538 H558 0.930 . S
C539 N537 1.375 . S
C539 C538 1.338 . S
C539 H543 0.931 . S
C540 N537 1.313 . S
C540 N541 1.344 . S
C540 H544 0.930 . S
N541 C538 1.377 . S
N541 C540 1.344 . S
O542 Co534 2.055 . S
O542 C546 1.253 . S
H543 C539 0.931 . S
H544 C540 0.930 . S
O545 Co534 2.039 . S
O545 C535 1.265 . S
C546 O542 1.253 . S
C546 O547 1.227 . S
O547 C546 1.227 . S
N548 Co534 2.140 . S
N548 C551 1.346 . S
N548 C552 1.345 . S
C549 C550 1.387 . S
C549 C553 1.391 . S
C550 C549 1.387 . S
C550 C551 1.369 . S
C550 H559 0.929 . S
C551 N548 1.346 . S
C551 C550 1.369 . S
C551 H554 0.928 . S
C552 N548 1.345 . S
C552 C553 1.371 . S
C552 H555 0.931 . S
C553 C549 1.391 . S
C553 C552 1.371 . S
C553 H560 0.930 . S
H554 C551 0.928 . S
H555 C552 0.931 . S
H556 C532 0.930 . S
H557 C529 0.930 . S
H558 C538 0.930 . S
H559 C550 0.929 . S
H560 C553 0.930 . S
C561 C562 1.351 . S
C561 N564 1.368 . S
C561 H566 0.931 . S
C562 C561 1.351 . S
C562 N563 1.373 . S
C562 H590 0.930 . S
N563 C562 1.373 . S
N563 C565 1.340 . S
N564 C561 1.368 . S
N564 C565 1.321 . S
N564 Co567 2.135 . S
C565 N563 1.340 . S
C565 N564 1.321 . S
C565 H589 0.930 . S
H566 C561 0.931 . S
Co567 N564 2.135 . S
Co567 N570 2.121 . S
Co567 O575 2.055 . S
Co567 O578 2.039 . S
Co567 N581 2.140 . S
C568 O569 1.227 . S
C568 O578 1.265 . S
O569 C568 1.227 . S
N570 Co567 2.121 . S
N570 C572 1.375 . S
N570 C573 1.313 1_545 S
C571 C572 1.338 . S
C571 N574 1.377 1_545 S
C571 H591 0.930 . S
C572 N570 1.375 . S
C572 C571 1.338 . S
C572 H576 0.931 . S
C573 N570 1.313 1_565 S
C573 N574 1.344 . S
C573 H577 0.930 . S
N574 C571 1.377 1_565 S
N574 C573 1.344 . S
O575 Co567 2.055 . S
O575 C579 1.253 . S
H576 C572 0.931 . S
H577 C573 0.930 . S
O578 Co567 2.039 . S
O578 C568 1.265 . S
C579 O575 1.253 . S
C579 O580 1.227 1_545 S
O580 C579 1.227 1_565 S
N581 Co567 2.140 . S
N581 C584 1.346 . S
N581 C585 1.345 . S
C582 C583 1.387 . S
C582 C586 1.405 . S
C583 C582 1.387 . S
C583 C584 1.369 . S
C583 H592 0.929 . S
C584 N581 1.346 . S
C584 C583 1.369 . S
C584 H587 0.928 . S
C585 N581 1.345 . S
C585 C586 1.375 . S
C585 H588 0.931 1_545 S
C586 C582 1.405 . S
C586 C585 1.375 . S
C586 H593 0.912 1_545 S
H587 C584 0.928 . S
H588 C585 0.931 1_565 S
H589 C565 0.930 . S
H590 C562 0.930 . S
H591 C571 0.930 . S
H592 C583 0.929 . S
H593 C586 0.912 1_565 S
C594 C595 1.351 . S
C594 N597 1.368 . S
C594 H599 0.931 . S
C595 C594 1.351 . S
C595 N596 1.373 . S
C595 H623 0.930 . S
N596 C595 1.373 . S
N596 C598 1.340 . S
N597 C594 1.368 . S
N597 C598 1.321 . S
N597 Co600 2.135 . S
C598 N596 1.340 . S
C598 N597 1.321 . S
C598 H622 0.930 . S
H599 C594 0.931 . S
Co600 N597 2.135 . S
Co600 N603 2.121 . S
Co600 O608 2.055 . S
Co600 O611 2.039 . S
Co600 N614 2.140 . S
C601 O602 1.227 . S
C601 O611 1.265 . S
O602 C601 1.227 . S
N603 Co600 2.121 . S
N603 C605 1.375 . S
N603 C606 1.313 1_545 S
C604 C605 1.338 . S
C604 N607 1.377 1_545 S
C604 H624 0.930 . S
C605 N603 1.375 . S
C605 C604 1.338 . S
C605 H609 0.931 . S
C606 N603 1.313 1_565 S
C606 N607 1.344 . S
C606 H610 0.930 . S
N607 C604 1.377 1_565 S
N607 C606 1.344 . S
O608 Co600 2.055 . S
O608 C612 1.253 . S
H609 C605 0.931 . S
H610 C606 0.930 . S
O611 Co600 2.039 . S
O611 C601 1.265 . S
C612 O608 1.253 . S
C612 O613 1.227 1_545 S
O613 C612 1.227 1_565 S
N614 Co600 2.140 . S
N614 C617 1.346 . S
N614 C618 1.345 . S
C615 C616 1.387 . S
C615 C619 1.408 . S
C616 C615 1.387 . S
C616 C617 1.369 . S
C616 H625 0.929 . S
C617 N614 1.346 . S
C617 C616 1.369 . S
C617 H620 0.928 . S
C618 N614 1.345 . S
C618 C619 1.380 . S
C618 H621 0.931 1_545 S
C619 C615 1.408 . S
C619 C618 1.380 . S
C619 H626 0.905 1_545 S
H620 C617 0.928 . S
H621 C618 0.931 1_565 S
H622 C598 0.930 . S
H623 C595 0.930 . S
H624 C604 0.930 . S
H625 C616 0.929 . S
H626 C619 0.905 1_565 S
C627 C628 1.351 . S
C627 N630 1.368 . S
C627 H632 0.931 . S
C628 C627 1.351 . S
C628 N629 1.373 . S
C628 H656 0.930 . S
N629 C628 1.373 . S
N629 C631 1.340 . S
N630 C627 1.368 . S
N630 C631 1.321 . S
N630 Co633 2.135 . S
C631 N629 1.340 . S
C631 N630 1.321 . S
C631 H655 0.930 . S
H632 C627 0.931 . S
Co633 N630 2.135 . S
Co633 N636 2.121 . S
Co633 O641 2.055 . S
Co633 O644 2.039 . S
Co633 N647 2.140 . S
C634 O635 1.227 . S
C634 O644 1.265 . S
O635 C634 1.227 . S
N636 Co633 2.121 . S
N636 C638 1.375 . S
N636 C639 1.313 1_655 S
C637 C638 1.338 . S
C637 N640 1.377 1_655 S
C637 H657 0.930 . S
C638 N636 1.375 . S
C638 C637 1.338 . S
C638 H642 0.931 . S
C639 N636 1.313 1_455 S
C639 N640 1.344 . S
C639 H643 0.930 . S
N640 C637 1.377 1_455 S
N640 C639 1.344 . S
O641 Co633 2.055 . S
O641 C645 1.253 . S
H642 C638 0.931 . S
H643 C639 0.930 . S
O644 Co633 2.039 . S
O644 C634 1.265 . S
C645 O641 1.253 . S
C645 O646 1.227 1_655 S
O646 C645 1.227 1_455 S
N647 Co633 2.140 . S
N647 C650 1.346 . S
N647 C651 1.345 . S
C648 C649 1.387 . S
C648 C652 1.405 . S
C649 C648 1.387 . S
C649 C650 1.369 . S
C649 H658 0.929 . S
C650 N647 1.346 . S
C650 C649 1.369 . S
C650 H653 0.928 . S
C651 N647 1.345 . S
C651 C652 1.375 . S
C651 H654 0.931 1_655 S
C652 C648 1.405 . S
C652 C651 1.375 . S
C652 H659 0.912 1_655 S
H653 C650 0.928 . S
H654 C651 0.931 1_455 S
H655 C631 0.930 . S
H656 C628 0.930 . S
H657 C637 0.930 . S
H658 C649 0.929 . S
H659 C652 0.912 1_455 S
C660 C661 1.351 . S
C660 N663 1.368 . S
C660 H665 0.931 . S
C661 C660 1.351 . S
C661 N662 1.373 . S
C661 H689 0.930 . S
N662 C661 1.373 . S
N662 C664 1.340 . S
N663 C660 1.368 . S
N663 C664 1.321 . S
N663 Co666 2.135 . S
C664 N662 1.340 . S
C664 N663 1.321 . S
C664 H688 0.930 . S
H665 C660 0.931 . S
Co666 N663 2.135 . S
Co666 N669 2.121 . S
Co666 O674 2.055 . S
Co666 O677 2.039 . S
Co666 N680 2.140 . S
C667 O668 1.227 . S
C667 O677 1.265 . S
O668 C667 1.227 . S
N669 Co666 2.121 . S
N669 C671 1.375 . S
N669 C672 1.313 . S
C670 C671 1.338 . S
C670 N673 1.377 . S
C670 H690 0.930 . S
C671 N669 1.375 . S
C671 C670 1.338 . S
C671 H675 0.931 . S
C672 N669 1.313 . S
C672 N673 1.344 . S
C672 H676 0.930 . S
N673 C670 1.377 . S
N673 C672 1.344 . S
O674 Co666 2.055 . S
O674 C678 1.253 . S
H675 C671 0.931 . S
H676 C672 0.930 . S
O677 Co666 2.039 . S
O677 C667 1.265 . S
C678 O674 1.253 . S
C678 O679 1.227 . S
O679 C678 1.227 . S
N680 Co666 2.140 . S
N680 C683 1.346 . S
N680 C684 1.345 . S
C681 C682 1.387 . S
C681 C685 1.391 . S
C682 C681 1.387 . S
C682 C683 1.369 . S
C682 H691 0.929 . S
C683 N680 1.346 . S
C683 C682 1.369 . S
C683 H686 0.928 . S
C684 N680 1.345 . S
C684 C685 1.371 . S
C684 H687 0.931 . S
C685 C681 1.391 . S
C685 C684 1.371 . S
C685 H692 0.930 . S
H686 C683 0.928 . S
H687 C684 0.931 . S
H688 C664 0.930 . S
H689 C661 0.930 . S
H690 C670 0.930 . S
H691 C682 0.929 . S
H692 C685 0.930 . S
C693 C694 1.351 . S
C693 N696 1.368 . S
C693 H698 0.931 . S
C694 C693 1.351 . S
C694 N695 1.373 . S
C694 H722 0.930 . S
N695 C694 1.373 . S
N695 C697 1.340 . S
N696 C693 1.368 . S
N696 C697 1.321 . S
N696 Co699 2.135 . S
C697 N695 1.340 . S
C697 N696 1.321 . S
C697 H721 0.930 . S
H698 C693 0.931 . S
Co699 N696 2.135 . S
Co699 N702 2.121 . S
Co699 O707 2.055 . S
Co699 O710 2.039 . S
Co699 N713 2.140 . S
C700 O701 1.227 . S
C700 O710 1.265 . S
O701 C700 1.227 . S
N702 Co699 2.121 . S
N702 C704 1.375 . S
N702 C705 1.313 . S
C703 C704 1.338 . S
C703 N706 1.377 . S
C703 H723 0.930 . S
C704 N702 1.375 . S
C704 C703 1.338 . S
C704 H708 0.931 . S
C705 N702 1.313 . S
C705 N706 1.344 . S
C705 H709 0.930 . S
N706 C703 1.377 . S
N706 C705 1.344 . S
O707 Co699 2.055 . S
O707 C711 1.253 . S
H708 C704 0.931 . S
H709 C705 0.930 . S
O710 Co699 2.039 . S
O710 C700 1.265 . S
C711 O707 1.253 . S
C711 O712 1.227 . S
O712 C711 1.227 . S
N713 Co699 2.140 . S
N713 C716 1.346 . S
N713 C717 1.345 . S
C714 C715 1.387 . S
C714 C718 1.391 . S
C715 C714 1.387 . S
C715 C716 1.369 . S
C715 H724 0.929 . S
C716 N713 1.346 . S
C716 C715 1.369 . S
C716 H719 0.928 . S
C717 N713 1.345 . S
C717 C718 1.371 . S
C717 H720 0.931 . S
C718 C714 1.391 . S
C718 C717 1.371 . S
C718 H725 0.930 . S
H719 C716 0.928 . S
H720 C717 0.931 . S
H721 C697 0.930 . S
H722 C694 0.930 . S
H723 C703 0.930 . S
H724 C715 0.929 . S
H725 C718 0.930 . S
C726 C727 1.351 . S
C726 N729 1.368 . S
C726 H731 0.931 . S
C727 C726 1.351 . S
C727 N728 1.373 . S
C727 H755 0.930 . S
N728 C727 1.373 . S
N728 C730 1.340 . S
N729 C726 1.368 . S
N729 C730 1.321 . S
N729 Co732 2.135 . S
C730 N728 1.340 . S
C730 N729 1.321 . S
C730 H754 0.930 . S
H731 C726 0.931 . S
Co732 N729 2.135 . S
Co732 N735 2.121 . S
Co732 O740 2.055 . S
Co732 O743 2.039 . S
Co732 N746 2.140 . S
C733 O734 1.227 . S
C733 O743 1.265 . S
O734 C733 1.227 . S
N735 Co732 2.121 . S
N735 C737 1.375 . S
N735 C738 1.313 . S
C736 C737 1.338 . S
C736 N739 1.377 . S
C736 H756 0.930 1_545 S
C737 N735 1.375 . S
C737 C736 1.338 . S
C737 H741 0.931 . S
C738 N735 1.313 . S
C738 N739 1.344 . S
C738 H742 0.930 . S
N739 C736 1.377 . S
N739 C738 1.344 . S
O740 Co732 2.055 . S
O740 C744 1.253 . S
H741 C737 0.931 . S
H742 C738 0.930 . S
O743 Co732 2.039 . S
O743 C733 1.265 . S
C744 O740 1.253 . S
C744 O745 1.227 . S
O745 C744 1.227 . S
N746 Co732 2.140 . S
N746 C749 1.346 . S
N746 C750 1.345 . S
C747 C748 1.387 . S
C747 C751 1.391 . S
C748 C747 1.387 . S
C748 C749 1.369 . S
C748 H757 0.929 . S
C749 N746 1.346 . S
C749 C748 1.369 . S
C749 H752 0.928 . S
C750 N746 1.345 . S
C750 C751 1.371 . S
C750 H753 0.931 . S
C751 C747 1.391 . S
C751 C750 1.371 . S
C751 H758 0.930 . S
H752 C749 0.928 . S
H753 C750 0.931 . S
H754 C730 0.930 . S
H755 C727 0.930 . S
H756 C736 0.930 1_565 S
H757 C748 0.929 . S
H758 C751 0.930 . S
C759 C760 1.351 . S
C759 N762 1.368 . S
C759 H764 0.931 . S
C760 C759 1.351 . S
C760 N761 1.373 . S
C760 H788 0.930 . S
N761 C760 1.373 . S
N761 C763 1.340 . S
N762 C759 1.368 . S
N762 C763 1.321 . S
N762 Co765 2.135 . S
C763 N761 1.340 . S
C763 N762 1.321 . S
C763 H787 0.930 . S
H764 C759 0.931 . S
Co765 N762 2.135 . S
Co765 N768 2.121 . S
Co765 O773 2.055 . S
Co765 O776 2.039 . S
Co765 N779 2.140 . S
C766 O767 1.227 . S
C766 O776 1.265 . S
O767 C766 1.227 . S
N768 Co765 2.121 . S
N768 C770 1.375 . S
N768 C771 1.313 . S
C769 C770 1.338 . S
C769 N772 1.377 . S
C769 H789 0.930 1_655 S
C770 N768 1.375 . S
C770 C769 1.338 . S
C770 H774 0.931 . S
C771 N768 1.313 . S
C771 N772 1.344 . S
C771 H775 0.930 . S
N772 C769 1.377 . S
N772 C771 1.344 . S
O773 Co765 2.055 . S
O773 C777 1.253 . S
H774 C770 0.931 . S
H775 C771 0.930 . S
O776 Co765 2.039 . S
O776 C766 1.265 . S
C777 O773 1.253 . S
C777 O778 1.227 . S
O778 C777 1.227 . S
N779 Co765 2.140 . S
N779 C782 1.346 . S
N779 C783 1.345 . S
C780 C781 1.387 . S
C780 C784 1.391 . S
C781 C780 1.387 . S
C781 C782 1.369 . S
C781 H790 0.929 . S
C782 N779 1.346 . S
C782 C781 1.369 . S
C782 H785 0.928 . S
C783 N779 1.345 . S
C783 C784 1.371 . S
C783 H786 0.931 . S
C784 C780 1.391 . S
C784 C783 1.371 . S
C784 H791 0.930 . S
H785 C782 0.928 . S
H786 C783 0.931 . S
H787 C763 0.930 . S
H788 C760 0.930 . S
H789 C769 0.930 1_455 S
H790 C781 0.929 . S
H791 C784 0.930 . S
C792 C793 1.351 . S
C792 N795 1.368 . S
C792 H797 0.931 . S
C793 C792 1.351 . S
C793 N794 1.373 . S
C793 H821 0.930 . S
N794 C793 1.373 . S
N794 C796 1.340 . S
N795 C792 1.368 . S
N795 C796 1.321 . S
N795 Co798 2.135 . S
C796 N794 1.340 . S
C796 N795 1.321 . S
C796 H820 0.930 . S
H797 C792 0.931 . S
Co798 N795 2.135 . S
Co798 N801 2.121 . S
Co798 O806 2.055 . S
Co798 O809 2.039 . S
Co798 N812 2.140 . S
C799 O800 1.227 . S
C799 O809 1.265 . S
O800 C799 1.227 . S
N801 Co798 2.121 . S
N801 C803 1.375 . S
N801 C804 1.313 1_565 S
C802 C803 1.338 . S
C802 N805 1.377 1_565 S
C802 H822 0.930 . S
C803 N801 1.375 . S
C803 C802 1.338 . S
C803 H807 0.931 . S
C804 N801 1.313 1_545 S
C804 N805 1.344 . S
C804 H808 0.930 . S
N805 C802 1.377 1_545 S
N805 C804 1.344 . S
O806 Co798 2.055 . S
O806 C810 1.253 . S
H807 C803 0.931 . S
H808 C804 0.930 . S
O809 Co798 2.039 . S
O809 C799 1.265 . S
C810 O806 1.253 . S
C810 O811 1.227 1_565 S
O811 C810 1.227 1_545 S
N812 Co798 2.140 . S
N812 C815 1.346 . S
N812 C816 1.345 . S
C813 C814 1.387 . S
C813 C817 1.408 . S
C814 C813 1.387 . S
C814 C815 1.369 . S
C814 H823 0.929 . S
C815 N812 1.346 . S
C815 C814 1.369 . S
C815 H818 0.928 . S
C816 N812 1.345 . S
C816 C817 1.380 . S
C816 H819 0.931 1_565 S
C817 C813 1.408 . S
C817 C816 1.380 . S
C817 H824 0.905 1_565 S
H818 C815 0.928 . S
H819 C816 0.931 1_545 S
H820 C796 0.930 . S
H821 C793 0.930 . S
H822 C802 0.930 . S
H823 C814 0.929 . S
H824 C817 0.905 1_545 S
C825 C826 1.351 . S
C825 N828 1.368 . S
C825 H830 0.931 . S
C826 C825 1.351 . S
C826 N827 1.373 . S
C826 H854 0.930 . S
N827 C826 1.373 . S
N827 C829 1.340 . S
N828 C825 1.368 . S
N828 C829 1.321 . S
N828 Co831 2.135 . S
C829 N827 1.340 . S
C829 N828 1.321 . S
C829 H853 0.930 . S
H830 C825 0.931 . S
Co831 N828 2.135 . S
Co831 N834 2.121 . S
Co831 O839 2.055 . S
Co831 O842 2.039 . S
Co831 N845 2.140 . S
C832 O833 1.227 . S
C832 O842 1.265 . S
O833 C832 1.227 . S
N834 Co831 2.121 . S
N834 C836 1.375 . S
N834 C837 1.313 1_455 S
C835 C836 1.338 . S
C835 N838 1.377 1_455 S
C835 H855 0.930 . S
C836 N834 1.375 . S
C836 C835 1.338 . S
C836 H840 0.931 . S
C837 N834 1.313 1_655 S
C837 N838 1.344 . S
C837 H841 0.930 . S
N838 C835 1.377 1_655 S
N838 C837 1.344 . S
O839 Co831 2.055 . S
O839 C843 1.253 . S
H840 C836 0.931 . S
H841 C837 0.930 . S
O842 Co831 2.039 . S
O842 C832 1.265 . S
C843 O839 1.253 . S
C843 O844 1.227 1_455 S
O844 C843 1.227 1_655 S
N845 Co831 2.140 . S
N845 C848 1.346 . S
N845 C849 1.345 . S
C846 C847 1.387 . S
C846 C850 1.405 . S
C847 C846 1.387 . S
C847 C848 1.369 . S
C847 H856 0.929 . S
C848 N845 1.346 . S
C848 C847 1.369 . S
C848 H851 0.928 . S
C849 N845 1.345 . S
C849 C850 1.375 . S
C849 H852 0.931 1_455 S
C850 C846 1.405 . S
C850 C849 1.375 . S
C850 H857 0.912 1_455 S
H851 C848 0.928 . S
H852 C849 0.931 1_655 S
H853 C829 0.930 . S
H854 C826 0.930 . S
H855 C835 0.930 . S
H856 C847 0.929 . S
H857 C850 0.912 1_655 S
C858 C859 1.351 . S
C858 N861 1.368 . S
C858 H863 0.931 . S
C859 C858 1.351 . S
C859 N860 1.373 . S
C859 H887 0.930 . S
N860 C859 1.373 . S
N860 C862 1.340 . S
N861 C858 1.368 . S
N861 C862 1.321 . S
N861 Co864 2.135 . S
C862 N860 1.340 . S
C862 N861 1.321 . S
C862 H886 0.930 . S
H863 C858 0.931 . S
Co864 N861 2.135 . S
Co864 N867 2.121 . S
Co864 O872 2.055 . S
Co864 O875 2.039 . S
Co864 N878 2.140 . S
C865 O866 1.227 . S
C865 O875 1.265 . S
O866 C865 1.227 . S
N867 Co864 2.121 . S
N867 C869 1.375 . S
N867 C870 1.313 . S
C868 C869 1.338 . S
C868 N871 1.377 . S
C868 H888 0.930 . S
C869 N867 1.375 . S
C869 C868 1.338 . S
C869 H873 0.931 . S
C870 N867 1.313 . S
C870 N871 1.344 . S
C870 H874 0.930 . S
N871 C868 1.377 . S
N871 C870 1.344 . S
O872 Co864 2.055 . S
O872 C876 1.253 . S
H873 C869 0.931 . S
H874 C870 0.930 . S
O875 Co864 2.039 . S
O875 C865 1.265 . S
C876 O872 1.253 . S
C876 O877 1.227 . S
O877 C876 1.227 . S
N878 Co864 2.140 . S
N878 C881 1.346 . S
N878 C882 1.345 . S
C879 C880 1.387 . S
C879 C883 1.391 . S
C880 C879 1.387 . S
C880 C881 1.369 . S
C880 H889 0.929 . S
C881 N878 1.346 . S
C881 C880 1.369 . S
C881 H884 0.928 . S
C882 N878 1.345 . S
C882 C883 1.371 . S
C882 H885 0.931 . S
C883 C879 1.391 . S
C883 C882 1.371 . S
C883 H890 0.930 . S
H884 C881 0.928 . S
H885 C882 0.931 . S
H886 C862 0.930 . S
H887 C859 0.930 . S
H888 C868 0.930 . S
H889 C880 0.929 . S
H890 C883 0.930 . S
C891 C892 1.351 . S
C891 N894 1.368 . S
C891 H896 0.931 . S
C892 C891 1.351 . S
C892 N893 1.373 . S
C892 H920 0.930 . S
N893 C892 1.373 . S
N893 C895 1.340 . S
N894 C891 1.368 . S
N894 C895 1.321 . S
N894 Co897 2.135 . S
C895 N893 1.340 . S
C895 N894 1.321 . S
C895 H919 0.930 . S
H896 C891 0.931 . S
Co897 N894 2.135 . S
Co897 N900 2.121 . S
Co897 O905 2.055 . S
Co897 O908 2.039 . S
Co897 N911 2.140 . S
C898 O899 1.227 . S
C898 O908 1.265 . S
O899 C898 1.227 . S
N900 Co897 2.121 . S
N900 C902 1.375 . S
N900 C903 1.313 . S
C901 C902 1.338 . S
C901 N904 1.377 . S
C901 H921 0.930 . S
C902 N900 1.375 . S
C902 C901 1.338 . S
C902 H906 0.931 . S
C903 N900 1.313 . S
C903 N904 1.344 . S
C903 H907 0.930 . S
N904 C901 1.377 . S
N904 C903 1.344 . S
O905 Co897 2.055 . S
O905 C909 1.253 . S
H906 C902 0.931 . S
H907 C903 0.930 . S
O908 Co897 2.039 . S
O908 C898 1.265 . S
C909 O905 1.253 . S
C909 O910 1.227 . S
O910 C909 1.227 . S
N911 Co897 2.140 . S
N911 C914 1.346 . S
N911 C915 1.345 . S
C912 C913 1.387 . S
C912 C916 1.391 . S
C913 C912 1.387 . S
C913 C914 1.369 . S
C913 H922 0.929 . S
C914 N911 1.346 . S
C914 C913 1.369 . S
C914 H917 0.928 . S
C915 N911 1.345 . S
C915 C916 1.371 . S
C915 H918 0.931 . S
C916 C912 1.391 . S
C916 C915 1.371 . S
C916 H923 0.930 . S
H917 C914 0.928 . S
H918 C915 0.931 . S
H919 C895 0.930 . S
H920 C892 0.930 . S
H921 C901 0.930 . S
H922 C913 0.929 . S
H923 C916 0.930 . S
C924 C925 1.351 . S
C924 N927 1.368 . S
C924 H929 0.931 . S
C925 C924 1.351 . S
C925 N926 1.373 . S
C925 H953 0.930 . S
N926 C925 1.373 . S
N926 C928 1.340 . S
N927 C924 1.368 . S
N927 C928 1.321 . S
N927 Co930 2.135 . S
C928 N926 1.340 . S
C928 N927 1.321 . S
C928 H952 0.930 . S
H929 C924 0.931 . S
Co930 N927 2.135 . S
Co930 N933 2.121 . S
Co930 O938 2.055 . S
Co930 O941 2.039 . S
Co930 N944 2.140 . S
C931 O932 1.227 . S
C931 O941 1.265 . S
O932 C931 1.227 . S
N933 Co930 2.121 . S
N933 C935 1.375 . S
N933 C936 1.313 . S
C934 C935 1.338 . S
C934 N937 1.377 . S
C934 H954 0.930 1_565 S
C935 N933 1.375 . S
C935 C934 1.338 . S
C935 H939 0.931 . S
C936 N933 1.313 . S
C936 N937 1.344 . S
C936 H940 0.930 . S
N937 C934 1.377 . S
N937 C936 1.344 . S
O938 Co930 2.055 . S
O938 C942 1.253 . S
H939 C935 0.931 . S
H940 C936 0.930 . S
O941 Co930 2.039 . S
O941 C931 1.265 . S
C942 O938 1.253 . S
C942 O943 1.227 . S
O943 C942 1.227 . S
N944 Co930 2.140 . S
N944 C947 1.346 . S
N944 C948 1.345 . S
C945 C946 1.387 . S
C945 C949 1.391 . S
C946 C945 1.387 . S
C946 C947 1.369 . S
C946 H955 0.929 . S
C947 N944 1.346 . S
C947 C946 1.369 . S
C947 H950 0.928 . S
C948 N944 1.345 . S
C948 C949 1.371 . S
C948 H951 0.931 . S
C949 C945 1.391 . S
C949 C948 1.371 . S
C949 H956 0.930 . S
H950 C947 0.928 . S
H951 C948 0.931 . S
H952 C928 0.930 . S
H953 C925 0.930 . S
H954 C934 0.930 1_545 S
H955 C946 0.929 . S
H956 C949 0.930 . S
C957 C958 1.351 . S
C957 N960 1.368 . S
C957 H962 0.931 . S
C958 C957 1.351 . S
C958 N959 1.373 . S
C958 H986 0.930 . S
N959 C958 1.373 . S
N959 C961 1.340 . S
N960 C957 1.368 . S
N960 C961 1.321 . S
N960 Co963 2.135 . S
C961 N959 1.340 . S
C961 N960 1.321 . S
C961 H985 0.930 . S
H962 C957 0.931 . S
Co963 N960 2.135 . S
Co963 N966 2.121 . S
Co963 O971 2.055 . S
Co963 O974 2.039 . S
Co963 N977 2.140 . S
C964 O965 1.227 . S
C964 O974 1.265 . S
O965 C964 1.227 . S
N966 Co963 2.121 . S
N966 C968 1.375 . S
N966 C969 1.313 . S
C967 C968 1.338 . S
C967 N970 1.377 . S
C967 H987 0.930 1_455 S
C968 N966 1.375 . S
C968 C967 1.338 . S
C968 H972 0.931 . S
C969 N966 1.313 . S
C969 N970 1.344 . S
C969 H973 0.930 . S
N970 C967 1.377 . S
N970 C969 1.344 . S
O971 Co963 2.055 . S
O971 C975 1.253 . S
H972 C968 0.931 . S
H973 C969 0.930 . S
O974 Co963 2.039 . S
O974 C964 1.265 . S
C975 O971 1.253 . S
C975 O976 1.227 . S
O976 C975 1.227 . S
N977 Co963 2.140 . S
N977 C980 1.346 . S
N977 C981 1.345 . S
C978 C979 1.387 . S
C978 C982 1.391 . S
C979 C978 1.387 . S
C979 C980 1.369 . S
C979 H988 0.929 . S
C980 N977 1.346 . S
C980 C979 1.369 . S
C980 H983 0.928 . S
C981 N977 1.345 . S
C981 C982 1.371 . S
C981 H984 0.931 . S
C982 C978 1.391 . S
C982 C981 1.371 . S
C982 H989 0.930 . S
H983 C980 0.928 . S
H984 C981 0.931 . S
H985 C961 0.930 . S
H986 C958 0.930 . S
H987 C967 0.930 1_655 S
H988 C979 0.929 . S
H989 C982 0.930 . S
C990 C991 1.351 . S
C990 N993 1.368 . S
C990 H995 0.931 . S
C991 C990 1.351 . S
C991 N992 1.373 . S
C991 H1019 0.930 . S
N992 C991 1.373 . S
N992 C994 1.340 . S
N993 C990 1.368 . S
N993 C994 1.321 . S
N993 Co996 2.135 . S
C994 N992 1.340 . S
C994 N993 1.321 . S
C994 H1018 0.930 . S
H995 C990 0.931 . S
Co996 N993 2.135 . S
Co996 N999 2.121 . S
Co996 O1004 2.055 . S
Co996 O1007 2.039 . S
Co996 N1010 2.140 . S
C997 O998 1.227 . S
C997 O1007 1.265 . S
O998 C997 1.227 . S
N999 Co996 2.121 . S
N999 C1001 1.375 . S
N999 C1002 1.313 . S
C1000 C1001 1.338 . S
C1000 N1003 1.377 . S
C1000 H1020 0.930 . S
C1001 N999 1.375 . S
C1001 C1000 1.338 . S
C1001 H1005 0.931 . S
C1002 N999 1.313 . S
C1002 N1003 1.344 . S
C1002 H1006 0.930 . S
N1003 C1000 1.377 . S
N1003 C1002 1.344 . S
O1004 Co996 2.055 . S
O1004 C1008 1.253 . S
H1005 C1001 0.931 . S
H1006 C1002 0.930 . S
O1007 Co996 2.039 . S
O1007 C997 1.265 . S
C1008 O1004 1.253 . S
C1008 O1009 1.227 . S
O1009 C1008 1.227 . S
N1010 Co996 2.140 . S
N1010 C1013 1.346 . S
N1010 C1014 1.345 . S
C1011 C1012 1.387 . S
C1011 C1015 1.391 . S
C1012 C1011 1.387 . S
C1012 C1013 1.369 . S
C1012 H1021 0.929 . S
C1013 N1010 1.346 . S
C1013 C1012 1.369 . S
C1013 H1016 0.928 . S
C1014 N1010 1.345 . S
C1014 C1015 1.371 . S
C1014 H1017 0.931 . S
C1015 C1011 1.391 . S
C1015 C1014 1.371 . S
C1015 H1022 0.930 . S
H1016 C1013 0.928 . S
H1017 C1014 0.931 . S
H1018 C994 0.930 . S
H1019 C991 0.930 . S
H1020 C1000 0.930 . S
H1021 C1012 0.929 . S
H1022 C1015 0.930 . S
C1023 C1024 1.351 . S
C1023 N1026 1.368 . S
C1023 H1028 0.931 . S
C1024 C1023 1.351 . S
C1024 N1025 1.373 . S
C1024 H1052 0.930 . S
N1025 C1024 1.373 . S
N1025 C1027 1.340 . S
N1026 C1023 1.368 . S
N1026 C1027 1.321 . S
N1026 Co1029 2.135 . S
C1027 N1025 1.340 . S
C1027 N1026 1.321 . S
C1027 H1051 0.930 . S
H1028 C1023 0.931 . S
Co1029 N1026 2.135 . S
Co1029 N1032 2.121 . S
Co1029 O1037 2.055 . S
Co1029 O1040 2.039 . S
Co1029 N1043 2.140 . S
C1030 O1031 1.227 . S
C1030 O1040 1.265 . S
O1031 C1030 1.227 . S
N1032 Co1029 2.121 . S
N1032 C1034 1.375 . S
N1032 C1035 1.313 . S
C1033 C1034 1.338 . S
C1033 N1036 1.377 . S
C1033 H1053 0.930 1_565 S
C1034 N1032 1.375 . S
C1034 C1033 1.338 . S
C1034 H1038 0.931 . S
C1035 N1032 1.313 . S
C1035 N1036 1.344 . S
C1035 H1039 0.930 . S
N1036 C1033 1.377 . S
N1036 C1035 1.344 . S
O1037 Co1029 2.055 . S
O1037 C1041 1.253 . S
H1038 C1034 0.931 . S
H1039 C1035 0.930 . S
O1040 Co1029 2.039 . S
O1040 C1030 1.265 . S
C1041 O1037 1.253 . S
C1041 O1042 1.227 . S
O1042 C1041 1.227 . S
N1043 Co1029 2.140 . S
N1043 C1046 1.346 . S
N1043 C1047 1.345 . S
C1044 C1045 1.387 . S
C1044 C1048 1.391 . S
C1045 C1044 1.387 . S
C1045 C1046 1.369 . S
C1045 H1054 0.929 . S
C1046 N1043 1.346 . S
C1046 C1045 1.369 . S
C1046 H1049 0.928 . S
C1047 N1043 1.345 . S
C1047 C1048 1.371 . S
C1047 H1050 0.931 . S
C1048 C1044 1.391 . S
C1048 C1047 1.371 . S
C1048 H1055 0.930 . S
H1049 C1046 0.928 . S
H1050 C1047 0.931 . S
H1051 C1027 0.930 . S
H1052 C1024 0.930 . S
H1053 C1033 0.930 1_545 S
H1054 C1045 0.929 . S
H1055 C1048 0.930 . S
C1056 C1057 1.351 . S
C1056 N1059 1.368 . S
C1056 H1061 0.931 . S
C1057 C1056 1.351 . S
C1057 N1058 1.373 . S
C1057 H1085 0.930 . S
N1058 C1057 1.373 . S
N1058 C1060 1.340 . S
N1059 C1056 1.368 . S
N1059 C1060 1.321 . S
N1059 Co1062 2.135 . S
C1060 N1058 1.340 . S
C1060 N1059 1.321 . S
C1060 H1084 0.930 . S
H1061 C1056 0.931 . S
Co1062 N1059 2.135 . S
Co1062 N1065 2.121 . S
Co1062 O1070 2.055 . S
Co1062 O1073 2.039 . S
Co1062 N1076 2.140 . S
C1063 O1064 1.227 . S
C1063 O1073 1.265 . S
O1064 C1063 1.227 . S
N1065 Co1062 2.121 . S
N1065 C1067 1.375 . S
N1065 C1068 1.313 . S
C1066 C1067 1.338 . S
C1066 N1069 1.377 . S
C1066 H1086 0.930 1_455 S
C1067 N1065 1.375 . S
C1067 C1066 1.338 . S
C1067 H1071 0.931 . S
C1068 N1065 1.313 . S
C1068 N1069 1.344 . S
C1068 H1072 0.930 . S
N1069 C1066 1.377 . S
N1069 C1068 1.344 . S
O1070 Co1062 2.055 . S
O1070 C1074 1.253 . S
H1071 C1067 0.931 . S
H1072 C1068 0.930 . S
O1073 Co1062 2.039 . S
O1073 C1063 1.265 . S
C1074 O1070 1.253 . S
C1074 O1075 1.227 . S
O1075 C1074 1.227 . S
N1076 Co1062 2.140 . S
N1076 C1079 1.346 . S
N1076 C1080 1.345 . S
C1077 C1078 1.387 . S
C1077 C1081 1.391 . S
C1078 C1077 1.387 . S
C1078 C1079 1.369 . S
C1078 H1087 0.929 . S
C1079 N1076 1.346 . S
C1079 C1078 1.369 . S
C1079 H1082 0.928 . S
C1080 N1076 1.345 . S
C1080 C1081 1.371 . S
C1080 H1083 0.931 . S
C1081 C1077 1.391 . S
C1081 C1080 1.371 . S
C1081 H1088 0.930 . S
H1082 C1079 0.928 . S
H1083 C1080 0.931 . S
H1084 C1060 0.930 . S
H1085 C1057 0.930 . S
H1086 C1066 0.930 1_655 S
H1087 C1078 0.929 . S
H1088 C1081 0.930 . S
C1089 C1090 1.351 . S
C1089 N1092 1.368 . S
C1089 H1094 0.931 . S
C1090 C1089 1.351 . S
C1090 N1091 1.373 . S
C1090 H1118 0.930 . S
N1091 C1090 1.373 . S
N1091 C1093 1.340 . S
N1092 C1089 1.368 . S
N1092 C1093 1.321 . S
N1092 Co1095 2.135 . S
C1093 N1091 1.340 . S
C1093 N1092 1.321 . S
C1093 H1117 0.930 . S
H1094 C1089 0.931 . S
Co1095 N1092 2.135 . S
Co1095 N1098 2.121 . S
Co1095 O1103 2.055 . S
Co1095 O1106 2.039 . S
Co1095 N1109 2.140 . S
C1096 O1097 1.227 . S
C1096 O1106 1.265 . S
O1097 C1096 1.227 . S
N1098 Co1095 2.121 . S
N1098 C1100 1.375 . S
N1098 C1101 1.313 1_455 S
C1099 C1100 1.338 . S
C1099 N1102 1.377 1_455 S
C1099 H1119 0.930 . S
C1100 N1098 1.375 . S
C1100 C1099 1.338 . S
C1100 H1104 0.931 . S
C1101 N1098 1.313 1_655 S
C1101 N1102 1.344 . S
C1101 H1105 0.930 . S
N1102 C1099 1.377 1_655 S
N1102 C1101 1.344 . S
O1103 Co1095 2.055 . S
O1103 C1107 1.253 . S
H1104 C1100 0.931 . S
H1105 C1101 0.930 . S
O1106 Co1095 2.039 . S
O1106 C1096 1.265 . S
C1107 O1103 1.253 . S
C1107 O1108 1.227 1_455 S
O1108 C1107 1.227 1_655 S
N1109 Co1095 2.140 . S
N1109 C1112 1.346 . S
N1109 C1113 1.345 . S
C1110 C1111 1.387 . S
C1110 C1114 1.391 . S
C1111 C1110 1.387 . S
C1111 C1112 1.369 . S
C1111 H1120 0.929 . S
C1112 N1109 1.346 . S
C1112 C1111 1.369 . S
C1112 H1115 0.928 . S
C1113 N1109 1.345 . S
C1113 C1114 1.371 . S
C1113 H1116 0.931 1_455 S
C1114 C1110 1.391 . S
C1114 C1113 1.371 . S
C1114 H1121 0.930 1_455 S
H1115 C1112 0.928 . S
H1116 C1113 0.931 1_655 S
H1117 C1093 0.930 . S
H1118 C1090 0.930 . S
H1119 C1099 0.930 . S
H1120 C1111 0.929 . S
H1121 C1114 0.930 1_655 S
C1122 C1123 1.351 . S
C1122 N1125 1.368 . S
C1122 H1127 0.931 . S
C1123 C1122 1.351 . S
C1123 N1124 1.373 . S
C1123 H1151 0.930 . S
N1124 C1123 1.373 . S
N1124 C1126 1.340 . S
N1125 C1122 1.368 . S
N1125 C1126 1.321 . S
N1125 Co1128 2.135 . S
C1126 N1124 1.340 . S
C1126 N1125 1.321 . S
C1126 H1150 0.930 . S
H1127 C1122 0.931 . S
Co1128 N1125 2.135 . S
Co1128 N1131 2.121 . S
Co1128 O1136 2.055 . S
Co1128 O1139 2.039 . S
Co1128 N1142 2.140 . S
C1129 O1130 1.227 . S
C1129 O1139 1.265 . S
O1130 C1129 1.227 . S
N1131 Co1128 2.121 . S
N1131 C1133 1.375 . S
N1131 C1134 1.313 . S
C1132 C1133 1.338 . S
C1132 N1135 1.377 . S
C1132 H1152 0.930 . S
C1133 N1131 1.375 . S
C1133 C1132 1.338 . S
C1133 H1137 0.931 . S
C1134 N1131 1.313 . S
C1134 N1135 1.344 . S
C1134 H1138 0.930 . S
N1135 C1132 1.377 . S
N1135 C1134 1.344 . S
O1136 Co1128 2.055 . S
O1136 C1140 1.253 . S
H1137 C1133 0.931 . S
H1138 C1134 0.930 . S
O1139 Co1128 2.039 . S
O1139 C1129 1.265 . S
C1140 O1136 1.253 . S
C1140 O1141 1.227 . S
O1141 C1140 1.227 . S
N1142 Co1128 2.140 . S
N1142 C1145 1.346 . S
N1142 C1146 1.345 . S
C1143 C1144 1.387 . S
C1143 C1147 1.391 . S
C1144 C1143 1.387 . S
C1144 C1145 1.369 . S
C1144 H1153 0.929 . S
C1145 N1142 1.346 . S
C1145 C1144 1.369 . S
C1145 H1148 0.928 . S
C1146 N1142 1.345 . S
C1146 C1147 1.371 . S
C1146 H1149 0.931 . S
C1147 C1143 1.391 . S
C1147 C1146 1.371 . S
C1147 H1154 0.930 . S
H1148 C1145 0.928 . S
H1149 C1146 0.931 . S
H1150 C1126 0.930 . S
H1151 C1123 0.930 . S
H1152 C1132 0.930 . S
H1153 C1144 0.929 . S
H1154 C1147 0.930 . S
C1155 C1156 1.351 . S
C1155 N1158 1.368 . S
C1155 H1160 0.931 . S
C1156 C1155 1.351 . S
C1156 N1157 1.373 . S
C1156 H1184 0.930 . S
N1157 C1156 1.373 . S
N1157 C1159 1.340 . S
N1158 C1155 1.368 . S
N1158 C1159 1.321 . S
N1158 Co1161 2.135 . S
C1159 N1157 1.340 . S
C1159 N1158 1.321 . S
C1159 H1183 0.930 . S
H1160 C1155 0.931 . S
Co1161 N1158 2.135 . S
Co1161 N1164 2.121 . S
Co1161 O1169 2.055 . S
Co1161 O1172 2.039 . S
Co1161 N1175 2.140 . S
C1162 O1163 1.227 . S
C1162 O1172 1.265 . S
O1163 C1162 1.227 . S
N1164 Co1161 2.121 . S
N1164 C1166 1.375 . S
N1164 C1167 1.313 1_565 S
C1165 C1166 1.338 . S
C1165 N1168 1.377 1_565 S
C1165 H1185 0.930 . S
C1166 N1164 1.375 . S
C1166 C1165 1.338 . S
C1166 H1170 0.931 . S
C1167 N1164 1.313 1_545 S
C1167 N1168 1.344 . S
C1167 H1171 0.930 . S
N1168 C1165 1.377 1_545 S
N1168 C1167 1.344 . S
O1169 Co1161 2.055 . S
O1169 C1173 1.253 . S
H1170 C1166 0.931 . S
H1171 C1167 0.930 . S
O1172 Co1161 2.039 . S
O1172 C1162 1.265 . S
C1173 O1169 1.253 . S
C1173 O1174 1.227 1_565 S
O1174 C1173 1.227 1_545 S
N1175 Co1161 2.140 . S
N1175 C1178 1.346 . S
N1175 C1179 1.345 . S
C1176 C1177 1.387 . S
C1176 C1180 1.405 . S
C1177 C1176 1.387 . S
C1177 C1178 1.369 . S
C1177 H1186 0.929 . S
C1178 N1175 1.346 . S
C1178 C1177 1.369 . S
C1178 H1181 0.928 . S
C1179 N1175 1.345 . S
C1179 C1180 1.375 . S
C1179 H1182 0.931 1_565 S
C1180 C1176 1.405 . S
C1180 C1179 1.375 . S
C1180 H1187 0.912 1_565 S
H1181 C1178 0.928 . S
H1182 C1179 0.931 1_545 S
H1183 C1159 0.930 . S
H1184 C1156 0.930 . S
H1185 C1165 0.930 . S
H1186 C1177 0.929 . S
H1187 C1180 0.912 1_545 S
C1188 C1189 1.387 . S
C1188 H1192 0.950 . S
C1188 C1197 1.390 . S
C1189 C1188 1.387 . S
C1189 C1191 1.387 . S
H1190 C1197 0.950 . S
C1191 C1189 1.387 . S
C1191 C1193 1.390 . S
C1191 H1195 0.950 . S
H1192 C1188 0.950 . S
C1193 C1191 1.390 . S
C1193 C1194 1.387 . S
C1193 H1196 0.950 . S
C1194 C1193 1.387 . S
C1194 C1197 1.387 . S
H1195 C1191 0.950 . S
H1196 C1193 0.950 . S
C1197 C1188 1.390 . S
C1197 H1190 0.950 . S
C1197 C1194 1.387 . S
C1198 C1199 1.387 . S
C1198 H1202 0.950 1_655 S
C1198 C1207 1.390 . S
C1199 C1198 1.387 . S
C1199 C1201 1.387 . S
H1200 C1207 0.950 . S
C1201 C1199 1.387 . S
C1201 C1203 1.390 . S
C1201 H1205 0.950 . S
H1202 C1198 0.950 1_455 S
C1203 C1201 1.390 . S
C1203 C1204 1.387 . S
C1203 H1206 0.950 . S
C1204 C1203 1.387 . S
C1204 C1207 1.387 . S
H1205 C1201 0.950 . S
H1206 C1203 0.950 . S
C1207 C1198 1.390 . S
C1207 H1200 0.950 . S
C1207 C1204 1.387 . S
C1208 C1209 1.387 . S
C1208 H1212 0.950 . S
C1208 C1217 1.390 . S
C1209 C1208 1.387 . S
C1209 C1211 1.387 . S
H1210 C1217 0.950 . S
C1211 C1209 1.387 . S
C1211 C1213 1.390 . S
C1211 H1215 0.950 . S
H1212 C1208 0.950 . S
C1213 C1211 1.390 . S
C1213 C1214 1.387 . S
C1213 H1216 0.950 1_655 S
C1214 C1213 1.387 . S
C1214 C1217 1.387 . S
H1215 C1211 0.950 . S
H1216 C1213 0.950 1_455 S
C1217 C1208 1.390 . S
C1217 H1210 0.950 . S
C1217 C1214 1.387 . S
C1218 C1219 1.387 . S
C1218 H1222 0.950 . S
C1218 C1227 1.390 . S
C1219 C1218 1.387 . S
C1219 C1221 1.387 . S
H1220 C1227 0.950 . S
C1221 C1219 1.387 . S
C1221 C1223 1.390 . S
C1221 H1225 0.950 . S
H1222 C1218 0.950 . S
C1223 C1221 1.390 . S
C1223 C1224 1.387 . S
C1223 H1226 0.950 . S
C1224 C1223 1.387 . S
C1224 C1227 1.387 . S
H1225 C1221 0.950 . S
H1226 C1223 0.950 . S
C1227 C1218 1.390 . S
C1227 H1220 0.950 . S
C1227 C1224 1.387 . S
C1228 C1229 1.387 . S
C1228 H1232 0.950 . S
C1228 C1237 1.390 . S
C1229 C1228 1.387 . S
C1229 C1231 1.387 . S
H1230 C1237 0.950 . S
C1231 C1229 1.387 . S
C1231 C1233 1.390 . S
C1231 H1235 0.950 . S
H1232 C1228 0.950 . S
C1233 C1231 1.390 . S
C1233 C1234 1.387 . S
C1233 H1236 0.950 1_565 S
C1234 C1233 1.387 . S
C1234 C1237 1.387 . S
H1235 C1231 0.950 . S
H1236 C1233 0.950 1_545 S
C1237 C1228 1.390 . S
C1237 H1230 0.950 . S
C1237 C1234 1.387 . S
C1238 C1239 1.387 . S
C1238 H1242 0.950 . S
C1238 C1247 1.390 . S
C1239 C1238 1.387 . S
C1239 C1241 1.387 . S
H1240 C1247 0.950 . S
C1241 C1239 1.387 . S
C1241 C1243 1.390 . S
C1241 H1245 0.950 1_565 S
H1242 C1238 0.950 . S
C1243 C1241 1.390 . S
C1243 C1244 1.387 . S
C1243 H1246 0.950 . S
C1244 C1243 1.387 . S
C1244 C1247 1.387 . S
H1245 C1241 0.950 1_545 S
H1246 C1243 0.950 . S
C1247 C1238 1.390 . S
C1247 H1240 0.950 . S
C1247 C1244 1.387 . S
C1248 C1249 1.387 . S
C1248 H1252 0.950 . S
C1248 C1257 1.390 . S
C1249 C1248 1.387 . S
C1249 C1251 1.387 . S
H1250 C1257 0.950 . S
C1251 C1249 1.387 . S
C1251 C1253 1.390 . S
C1251 H1255 0.950 . S
H1252 C1248 0.950 . S
C1253 C1251 1.390 . S
C1253 C1254 1.387 . S
C1253 H1256 0.950 . S
C1254 C1253 1.387 . S
C1254 C1257 1.387 . S
H1255 C1251 0.950 . S
H1256 C1253 0.950 . S
C1257 C1248 1.390 . S
C1257 H1250 0.950 . S
C1257 C1254 1.387 . S
C1258 C1259 1.387 . S
C1258 H1262 0.950 . S
C1258 C1267 1.390 . S
C1259 C1258 1.387 . S
C1259 C1261 1.387 . S
H1260 C1267 0.950 . S
C1261 C1259 1.387 . S
C1261 C1263 1.390 . S
C1261 H1265 0.950 . S
H1262 C1258 0.950 . S
C1263 C1261 1.390 . S
C1263 C1264 1.387 . S
C1263 H1266 0.950 . S
C1264 C1263 1.387 . S
C1264 C1267 1.387 . S
H1265 C1261 0.950 . S
H1266 C1263 0.950 . S
C1267 C1258 1.390 . S
C1267 H1260 0.950 . S
C1267 C1264 1.387 . S
C1268 C1269 1.387 . S
C1268 H1272 0.950 . S
C1268 C1277 1.390 . S
C1269 C1268 1.387 . S
C1269 C1271 1.387 . S
H1270 C1277 0.950 . S
C1271 C1269 1.387 . S
C1271 C1273 1.390 . S
C1271 H1275 0.950 . S
H1272 C1268 0.950 . S
C1273 C1271 1.390 . S
C1273 C1274 1.387 . S
C1273 H1276 0.950 . S
C1274 C1273 1.387 . S
C1274 C1277 1.387 . S
H1275 C1271 0.950 . S
H1276 C1273 0.950 . S
C1277 C1268 1.390 . S
C1277 H1270 0.950 . S
C1277 C1274 1.387 . S
C1278 C1279 1.387 . S
C1278 H1282 0.950 . S
C1278 C1287 1.390 . S
C1279 C1278 1.387 . S
C1279 C1281 1.387 . S
H1280 C1287 0.950 . S
C1281 C1279 1.387 . S
C1281 C1283 1.390 . S
C1281 H1285 0.950 . S
H1282 C1278 0.950 . S
C1283 C1281 1.390 . S
C1283 C1284 1.387 . S
C1283 H1286 0.950 . S
C1284 C1283 1.387 . S
C1284 C1287 1.387 . S
H1285 C1281 0.950 . S
H1286 C1283 0.950 . S
C1287 C1278 1.390 . S
C1287 H1280 0.950 . S
C1287 C1284 1.387 . S
C1288 C1289 1.387 . S
C1288 H1292 0.950 . S
C1288 C1297 1.390 . S
C1289 C1288 1.387 . S
C1289 C1291 1.387 . S
H1290 C1297 0.950 . S
C1291 C1289 1.387 . S
C1291 C1293 1.390 . S
C1291 H1295 0.950 . S
H1292 C1288 0.950 . S
C1293 C1291 1.390 . S
C1293 C1294 1.387 . S
C1293 H1296 0.950 . S
C1294 C1293 1.387 . S
C1294 C1297 1.387 . S
H1295 C1291 0.950 . S
H1296 C1293 0.950 . S
C1297 C1288 1.390 . S
C1297 H1290 0.950 . S
C1297 C1294 1.387 . S
C1298 C1299 1.387 . S
C1298 H1302 0.950 . S
C1298 C1307 1.390 . S
C1299 C1298 1.387 . S
C1299 C1301 1.387 . S
H1300 C1307 0.950 . S
C1301 C1299 1.387 . S
C1301 C1303 1.390 . S
C1301 H1305 0.950 . S
H1302 C1298 0.950 . S
C1303 C1301 1.390 . S
C1303 C1304 1.387 . S
C1303 H1306 0.950 . S
C1304 C1303 1.387 . S
C1304 C1307 1.387 . S
H1305 C1301 0.950 . S
H1306 C1303 0.950 . S
C1307 C1298 1.390 . S
C1307 H1300 0.950 . S
C1307 C1304 1.387 . S
C1308 C1309 1.387 . S
C1308 H1312 0.950 . S
C1308 C1317 1.390 . S
C1309 C1308 1.387 . S
C1309 C1311 1.387 . S
H1310 C1317 0.950 . S
C1311 C1309 1.387 . S
C1311 C1313 1.390 . S
C1311 H1315 0.950 . S
H1312 C1308 0.950 . S
C1313 C1311 1.390 . S
C1313 C1314 1.387 . S
C1313 H1316 0.950 . S
C1314 C1313 1.387 . S
C1314 C1317 1.387 . S
H1315 C1311 0.950 . S
H1316 C1313 0.950 . S
C1317 C1308 1.390 . S
C1317 H1310 0.950 . S
C1317 C1314 1.387 . S
C1318 C1319 1.387 . S
C1318 H1322 0.950 . S
C1318 C1327 1.390 . S
C1319 C1318 1.387 . S
C1319 C1321 1.387 . S
H1320 C1327 0.950 . S
C1321 C1319 1.387 . S
C1321 C1323 1.390 . S
C1321 H1325 0.950 . S
H1322 C1318 0.950 . S
C1323 C1321 1.390 . S
C1323 C1324 1.387 . S
C1323 H1326 0.950 . S
C1324 C1323 1.387 . S
C1324 C1327 1.387 . S
H1325 C1321 0.950 . S
H1326 C1323 0.950 . S
C1327 C1318 1.390 . S
C1327 H1320 0.950 . S
C1327 C1324 1.387 . S
C1328 C1329 1.387 . S
C1328 H1332 0.950 . S
C1328 C1337 1.390 . S
C1329 C1328 1.387 . S
C1329 C1331 1.387 . S
H1330 C1337 0.950 . S
C1331 C1329 1.387 . S
C1331 C1333 1.390 . S
C1331 H1335 0.950 . S
H1332 C1328 0.950 . S
C1333 C1331 1.390 . S
C1333 C1334 1.387 . S
C1333 H1336 0.950 . S
C1334 C1333 1.387 . S
C1334 C1337 1.387 . S
H1335 C1331 0.950 . S
H1336 C1333 0.950 . S
C1337 C1328 1.390 . S
C1337 H1330 0.950 . S
C1337 C1334 1.387 . S
C1338 C1339 1.387 . S
C1338 H1342 0.950 . S
C1338 C1347 1.390 . S
C1339 C1338 1.387 . S
C1339 C1341 1.387 . S
H1340 C1347 0.950 . S
C1341 C1339 1.387 . S
C1341 C1343 1.390 . S
C1341 H1345 0.950 . S
H1342 C1338 0.950 . S
C1343 C1341 1.390 . S
C1343 C1344 1.387 . S
C1343 H1346 0.950 . S
C1344 C1343 1.387 . S
C1344 C1347 1.387 . S
H1345 C1341 0.950 . S
H1346 C1343 0.950 . S
C1347 C1338 1.390 . S
C1347 H1340 0.950 . S
C1347 C1344 1.387 . S
C1348 C1349 1.387 . S
C1348 H1352 0.950 . S
C1348 C1357 1.390 . S
C1349 C1348 1.387 . S
C1349 C1351 1.387 . S
H1350 C1357 0.950 . S
C1351 C1349 1.387 . S
C1351 C1353 1.390 . S
C1351 H1355 0.950 . S
H1352 C1348 0.950 . S
C1353 C1351 1.390 . S
C1353 C1354 1.387 . S
C1353 H1356 0.950 . S
C1354 C1353 1.387 . S
C1354 C1357 1.387 . S
H1355 C1351 0.950 . S
H1356 C1353 0.950 . S
C1357 C1348 1.390 . S
C1357 H1350 0.950 . S
C1357 C1354 1.387 . S
C1358 C1359 1.387 . S
C1358 H1362 0.950 . S
C1358 C1367 1.390 . S
C1359 C1358 1.387 . S
C1359 C1361 1.387 . S
H1360 C1367 0.950 . S
C1361 C1359 1.387 . S
C1361 C1363 1.390 . S
C1361 H1365 0.950 . S
H1362 C1358 0.950 . S
C1363 C1361 1.390 . S
C1363 C1364 1.387 . S
C1363 H1366 0.950 . S
C1364 C1363 1.387 . S
C1364 C1367 1.387 . S
H1365 C1361 0.950 . S
H1366 C1363 0.950 . S
C1367 C1358 1.390 . S
C1367 H1360 0.950 . S
C1367 C1364 1.387 . S
C1368 C1369 1.387 . S
C1368 H1372 0.950 . S
C1368 C1377 1.390 . S
C1369 C1368 1.387 . S
C1369 C1371 1.387 . S
H1370 C1377 0.950 . S
C1371 C1369 1.387 . S
C1371 C1373 1.390 . S
C1371 H1375 0.950 . S
H1372 C1368 0.950 . S
C1373 C1371 1.390 . S
C1373 C1374 1.387 . S
C1373 H1376 0.950 . S
C1374 C1373 1.387 . S
C1374 C1377 1.387 . S
H1375 C1371 0.950 . S
H1376 C1373 0.950 . S
C1377 C1368 1.390 . S
C1377 H1370 0.950 . S
C1377 C1374 1.387 . S
C1378 C1379 1.387 . S
C1378 H1382 0.950 . S
C1378 C1387 1.390 . S
C1379 C1378 1.387 . S
C1379 C1381 1.387 . S
H1380 C1387 0.950 . S
C1381 C1379 1.387 . S
C1381 C1383 1.390 . S
C1381 H1385 0.950 . S
H1382 C1378 0.950 . S
C1383 C1381 1.390 . S
C1383 C1384 1.387 . S
C1383 H1386 0.950 . S
C1384 C1383 1.387 . S
C1384 C1387 1.387 . S
H1385 C1381 0.950 . S
H1386 C1383 0.950 . S
C1387 C1378 1.390 . S
C1387 H1380 0.950 . S
C1387 C1384 1.387 . S
C1388 C1389 1.387 . S
C1388 H1392 0.950 . S
C1388 C1397 1.390 . S
C1389 C1388 1.387 . S
C1389 C1391 1.387 . S
H1390 C1397 0.950 . S
C1391 C1389 1.387 . S
C1391 C1393 1.390 . S
C1391 H1395 0.950 . S
H1392 C1388 0.950 . S
C1393 C1391 1.390 . S
C1393 C1394 1.387 . S
C1393 H1396 0.950 . S
C1394 C1393 1.387 . S
C1394 C1397 1.387 . S
H1395 C1391 0.950 . S
H1396 C1393 0.950 . S
C1397 C1388 1.390 . S
C1397 H1390 0.950 . S
C1397 C1394 1.387 . S
C1398 C1399 1.387 . S
C1398 H1402 0.950 . S
C1398 C1407 1.390 . S
C1399 C1398 1.387 . S
C1399 C1401 1.387 . S
H1400 C1407 0.950 . S
C1401 C1399 1.387 . S
C1401 C1403 1.390 . S
C1401 H1405 0.950 . S
H1402 C1398 0.950 . S
C1403 C1401 1.390 . S
C1403 C1404 1.387 . S
C1403 H1406 0.950 . S
C1404 C1403 1.387 . S
C1404 C1407 1.387 . S
H1405 C1401 0.950 . S
H1406 C1403 0.950 . S
C1407 C1398 1.390 . S
C1407 H1400 0.950 . S
C1407 C1404 1.387 . S
C1408 C1409 1.387 . S
C1408 H1412 0.950 . S
C1408 C1417 1.390 . S
C1409 C1408 1.387 . S
C1409 C1411 1.387 . S
H1410 C1417 0.950 . S
C1411 C1409 1.387 . S
C1411 C1413 1.390 . S
C1411 H1415 0.950 . S
H1412 C1408 0.950 . S
C1413 C1411 1.390 . S
C1413 C1414 1.387 . S
C1413 H1416 0.950 . S
C1414 C1413 1.387 . S
C1414 C1417 1.387 . S
H1415 C1411 0.950 . S
H1416 C1413 0.950 . S
C1417 C1408 1.390 . S
C1417 H1410 0.950 . S
C1417 C1414 1.387 . S
C1418 C1419 1.387 . S
C1418 H1422 0.950 . S
C1418 C1427 1.390 . S
C1419 C1418 1.387 . S
C1419 C1421 1.387 . S
H1420 C1427 0.950 . S
C1421 C1419 1.387 . S
C1421 C1423 1.390 . S
C1421 H1425 0.950 . S
H1422 C1418 0.950 . S
C1423 C1421 1.390 . S
C1423 C1424 1.387 . S
C1423 H1426 0.950 . S
C1424 C1423 1.387 . S
C1424 C1427 1.387 . S
H1425 C1421 0.950 . S
H1426 C1423 0.950 . S
C1427 C1418 1.390 . S
C1427 H1420 0.950 . S
C1427 C1424 1.387 . S
C1428 C1429 1.387 . S
C1428 H1432 0.950 . S
C1428 C1437 1.390 . S
C1429 C1428 1.387 . S
C1429 C1431 1.387 . S
H1430 C1437 0.950 . S
C1431 C1429 1.387 . S
C1431 C1433 1.390 . S
C1431 H1435 0.950 . S
H1432 C1428 0.950 . S
C1433 C1431 1.390 . S
C1433 C1434 1.387 . S
C1433 H1436 0.950 . S
C1434 C1433 1.387 . S
C1434 C1437 1.387 . S
H1435 C1431 0.950 . S
H1436 C1433 0.950 . S
C1437 C1428 1.390 . S
C1437 H1430 0.950 . S
C1437 C1434 1.387 . S
C1438 C1439 1.387 . S
C1438 H1442 0.950 . S
C1438 C1447 1.390 . S
C1439 C1438 1.387 . S
C1439 C1441 1.387 . S
H1440 C1447 0.950 . S
C1441 C1439 1.387 . S
C1441 C1443 1.390 . S
C1441 H1445 0.950 . S
H1442 C1438 0.950 . S
C1443 C1441 1.390 . S
C1443 C1444 1.387 . S
C1443 H1446 0.950 . S
C1444 C1443 1.387 . S
C1444 C1447 1.387 . S
H1445 C1441 0.950 . S
H1446 C1443 0.950 . S
C1447 C1438 1.390 . S
C1447 H1440 0.950 . S
C1447 C1444 1.387 . S
C1448 C1449 1.387 . S
C1448 H1452 0.950 . S
C1448 C1457 1.390 . S
C1449 C1448 1.387 . S
C1449 C1451 1.387 . S
H1450 C1457 0.950 . S
C1451 C1449 1.387 . S
C1451 C1453 1.390 . S
C1451 H1455 0.950 . S
H1452 C1448 0.950 . S
C1453 C1451 1.390 . S
C1453 C1454 1.387 . S
C1453 H1456 0.950 . S
C1454 C1453 1.387 . S
C1454 C1457 1.387 . S
H1455 C1451 0.950 . S
H1456 C1453 0.950 . S
C1457 C1448 1.390 . S
C1457 H1450 0.950 . S
C1457 C1454 1.387 . S
C1458 C1459 1.387 . S
C1458 H1462 0.950 . S
C1458 C1467 1.390 . S
C1459 C1458 1.387 . S
C1459 C1461 1.387 . S
H1460 C1467 0.950 . S
C1461 C1459 1.387 . S
C1461 C1463 1.390 . S
C1461 H1465 0.950 . S
H1462 C1458 0.950 . S
C1463 C1461 1.390 . S
C1463 C1464 1.387 . S
C1463 H1466 0.950 . S
C1464 C1463 1.387 . S
C1464 C1467 1.387 . S
H1465 C1461 0.950 . S
H1466 C1463 0.950 . S
C1467 C1458 1.390 . S
C1467 H1460 0.950 . S
C1467 C1464 1.387 . S
C1468 C1469 1.387 . S
C1468 H1472 0.950 . S
C1468 C1477 1.390 . S
C1469 C1468 1.387 . S
C1469 C1471 1.387 . S
H1470 C1477 0.950 . S
C1471 C1469 1.387 . S
C1471 C1473 1.390 . S
C1471 H1475 0.950 . S
H1472 C1468 0.950 . S
C1473 C1471 1.390 . S
C1473 C1474 1.387 . S
C1473 H1476 0.950 . S
C1474 C1473 1.387 . S
C1474 C1477 1.387 . S
H1475 C1471 0.950 . S
H1476 C1473 0.950 . S
C1477 C1468 1.390 . S
C1477 H1470 0.950 . S
C1477 C1474 1.387 . S
C1478 C1479 1.387 . S
C1478 H1482 0.950 . S
C1478 C1487 1.390 . S
C1479 C1478 1.387 . S
C1479 C1481 1.387 . S
H1480 C1487 0.950 . S
C1481 C1479 1.387 . S
C1481 C1483 1.390 . S
C1481 H1485 0.950 . S
H1482 C1478 0.950 . S
C1483 C1481 1.390 . S
C1483 C1484 1.387 . S
C1483 H1486 0.950 . S
C1484 C1483 1.387 . S
C1484 C1487 1.387 . S
H1485 C1481 0.950 . S
H1486 C1483 0.950 . S
C1487 C1478 1.390 . S
C1487 H1480 0.950 . S
C1487 C1484 1.387 . S
C1488 C1489 1.387 . S
C1488 H1492 0.950 . S
C1488 C1497 1.390 . S
C1489 C1488 1.387 . S
C1489 C1491 1.387 . S
H1490 C1497 0.950 . S
C1491 C1489 1.387 . S
C1491 C1493 1.390 . S
C1491 H1495 0.950 . S
H1492 C1488 0.950 . S
C1493 C1491 1.390 . S
C1493 C1494 1.387 . S
C1493 H1496 0.950 . S
C1494 C1493 1.387 . S
C1494 C1497 1.387 . S
H1495 C1491 0.950 . S
H1496 C1493 0.950 . S
C1497 C1488 1.390 . S
C1497 H1490 0.950 . S
C1497 C1494 1.387 . S
C1498 C1499 1.387 . S
C1498 H1502 0.950 . S
C1498 C1507 1.390 . S
C1499 C1498 1.387 . S
C1499 C1501 1.387 . S
H1500 C1507 0.950 . S
C1501 C1499 1.387 . S
C1501 C1503 1.390 . S
C1501 H1505 0.950 . S
H1502 C1498 0.950 . S
C1503 C1501 1.390 . S
C1503 C1504 1.387 . S
C1503 H1506 0.950 . S
C1504 C1503 1.387 . S
C1504 C1507 1.387 . S
H1505 C1501 0.950 . S
H1506 C1503 0.950 . S
C1507 C1498 1.390 . S
C1507 H1500 0.950 . S
C1507 C1504 1.387 . S
C1508 C1509 1.387 . S
C1508 H1512 0.950 . S
C1508 C1517 1.390 . S
C1509 C1508 1.387 . S
C1509 C1511 1.387 . S
H1510 C1517 0.950 . S
C1511 C1509 1.387 . S
C1511 C1513 1.390 . S
C1511 H1515 0.950 . S
H1512 C1508 0.950 . S
C1513 C1511 1.390 . S
C1513 C1514 1.387 . S
C1513 H1516 0.950 . S
C1514 C1513 1.387 . S
C1514 C1517 1.387 . S
H1515 C1511 0.950 . S
H1516 C1513 0.950 . S
C1517 C1508 1.390 . S
C1517 H1510 0.950 . S
C1517 C1514 1.387 . S
C1518 C1519 1.387 . S
C1518 H1522 0.950 . S
C1518 C1527 1.390 . S
C1519 C1518 1.387 . S
C1519 C1521 1.387 . S
H1520 C1527 0.950 . S
C1521 C1519 1.387 . S
C1521 C1523 1.390 . S
C1521 H1525 0.950 . S
H1522 C1518 0.950 . S
C1523 C1521 1.390 . S
C1523 C1524 1.387 . S
C1523 H1526 0.950 . S
C1524 C1523 1.387 . S
C1524 C1527 1.387 . S
H1525 C1521 0.950 . S
H1526 C1523 0.950 . S
C1527 C1518 1.390 . S
C1527 H1520 0.950 . S
C1527 C1524 1.387 . S
C1528 C1529 1.387 . S
C1528 H1532 0.950 . S
C1528 C1537 1.390 . S
C1529 C1528 1.387 . S
C1529 C1531 1.387 . S
H1530 C1537 0.950 . S
C1531 C1529 1.387 . S
C1531 C1533 1.390 . S
C1531 H1535 0.950 . S
H1532 C1528 0.950 . S
C1533 C1531 1.390 . S
C1533 C1534 1.387 . S
C1533 H1536 0.950 . S
C1534 C1533 1.387 . S
C1534 C1537 1.387 . S
H1535 C1531 0.950 . S
H1536 C1533 0.950 . S
C1537 C1528 1.390 . S
C1537 H1530 0.950 . S
C1537 C1534 1.387 . S
C1538 C1539 1.387 . S
C1538 H1542 0.950 . S
C1538 C1547 1.390 . S
C1539 C1538 1.387 . S
C1539 C1541 1.387 . S
H1540 C1547 0.950 . S
C1541 C1539 1.387 . S
C1541 C1543 1.390 . S
C1541 H1545 0.950 . S
H1542 C1538 0.950 . S
C1543 C1541 1.390 . S
C1543 C1544 1.387 . S
C1543 H1546 0.950 . S
C1544 C1543 1.387 . S
C1544 C1547 1.387 . S
H1545 C1541 0.950 . S
H1546 C1543 0.950 . S
C1547 C1538 1.390 . S
C1547 H1540 0.950 . S
C1547 C1544 1.387 . S
C1548 C1549 1.387 . S
C1548 H1552 0.950 . S
C1548 C1557 1.390 . S
C1549 C1548 1.387 . S
C1549 C1551 1.387 . S
H1550 C1557 0.950 . S
C1551 C1549 1.387 . S
C1551 C1553 1.390 . S
C1551 H1555 0.950 . S
H1552 C1548 0.950 . S
C1553 C1551 1.390 . S
C1553 C1554 1.387 . S
C1553 H1556 0.950 . S
C1554 C1553 1.387 . S
C1554 C1557 1.387 . S
H1555 C1551 0.950 . S
H1556 C1553 0.950 . S
C1557 C1548 1.390 . S
C1557 H1550 0.950 . S
C1557 C1554 1.387 . S
C1558 C1559 1.387 . S
C1558 H1562 0.950 . S
C1558 C1567 1.390 . S
C1559 C1558 1.387 . S
C1559 C1561 1.387 . S
H1560 C1567 0.950 . S
C1561 C1559 1.387 . S
C1561 C1563 1.390 . S
C1561 H1565 0.950 . S
H1562 C1558 0.950 . S
C1563 C1561 1.390 . S
C1563 C1564 1.387 . S
C1563 H1566 0.950 . S
C1564 C1563 1.387 . S
C1564 C1567 1.387 . S
H1565 C1561 0.950 . S
H1566 C1563 0.950 . S
C1567 C1558 1.390 . S
C1567 H1560 0.950 . S
C1567 C1564 1.387 . S
C1568 C1569 1.387 . S
C1568 H1572 0.950 . S
C1568 C1577 1.390 . S
C1569 C1568 1.387 . S
C1569 C1571 1.387 . S
H1570 C1577 0.950 . S
C1571 C1569 1.387 . S
C1571 C1573 1.390 . S
C1571 H1575 0.950 . S
H1572 C1568 0.950 . S
C1573 C1571 1.390 . S
C1573 C1574 1.387 . S
C1573 H1576 0.950 . S
C1574 C1573 1.387 . S
C1574 C1577 1.387 . S
H1575 C1571 0.950 . S
H1576 C1573 0.950 . S
C1577 C1568 1.390 . S
C1577 H1570 0.950 . S
C1577 C1574 1.387 . S
C1578 C1579 1.387 . S
C1578 H1582 0.950 . S
C1578 C1587 1.390 . S
C1579 C1578 1.387 . S
C1579 C1581 1.387 . S
H1580 C1587 0.950 . S
C1581 C1579 1.387 . S
C1581 C1583 1.390 . S
C1581 H1585 0.950 . S
H1582 C1578 0.950 . S
C1583 C1581 1.390 . S
C1583 C1584 1.387 . S
C1583 H1586 0.950 . S
C1584 C1583 1.387 . S
C1584 C1587 1.387 . S
H1585 C1581 0.950 . S
H1586 C1583 0.950 . S
C1587 C1578 1.390 . S
C1587 H1580 0.950 . S
C1587 C1584 1.387 . S
C1588 C1589 1.387 . S
C1588 H1592 0.950 . S
C1588 C1597 1.390 . S
C1589 C1588 1.387 . S
C1589 C1591 1.387 . S
H1590 C1597 0.950 . S
C1591 C1589 1.387 . S
C1591 C1593 1.390 . S
C1591 H1595 0.950 . S
H1592 C1588 0.950 . S
C1593 C1591 1.390 . S
C1593 C1594 1.387 . S
C1593 H1596 0.950 . S
C1594 C1593 1.387 . S
C1594 C1597 1.387 . S
H1595 C1591 0.950 . S
H1596 C1593 0.950 . S
C1597 C1588 1.390 . S
C1597 H1590 0.950 . S
C1597 C1594 1.387 . S
C1598 C1599 1.387 . S
C1598 H1602 0.950 . S
C1598 C1607 1.390 . S
C1599 C1598 1.387 . S
C1599 C1601 1.387 . S
H1600 C1607 0.950 . S
C1601 C1599 1.387 . S
C1601 C1603 1.390 . S
C1601 H1605 0.950 . S
H1602 C1598 0.950 . S
C1603 C1601 1.390 . S
C1603 C1604 1.387 . S
C1603 H1606 0.950 . S
C1604 C1603 1.387 . S
C1604 C1607 1.387 . S
H1605 C1601 0.950 . S
H1606 C1603 0.950 . S
C1607 C1598 1.390 . S
C1607 H1600 0.950 . S
C1607 C1604 1.387 . S
C1608 C1609 1.387 . S
C1608 H1612 0.950 . S
C1608 C1617 1.390 . S
C1609 C1608 1.387 . S
C1609 C1611 1.387 . S
H1610 C1617 0.950 . S
C1611 C1609 1.387 . S
C1611 C1613 1.390 . S
C1611 H1615 0.950 . S
H1612 C1608 0.950 . S
C1613 C1611 1.390 . S
C1613 C1614 1.387 . S
C1613 H1616 0.950 . S
C1614 C1613 1.387 . S
C1614 C1617 1.387 . S
H1615 C1611 0.950 . S
H1616 C1613 0.950 . S
C1617 C1608 1.390 . S
C1617 H1610 0.950 . S
C1617 C1614 1.387 . S
C1618 C1619 1.387 . S
C1618 H1622 0.950 . S
C1618 C1627 1.390 . S
C1619 C1618 1.387 . S
C1619 C1621 1.387 . S
H1620 C1627 0.950 . S
C1621 C1619 1.387 . S
C1621 C1623 1.390 . S
C1621 H1625 0.950 . S
H1622 C1618 0.950 . S
C1623 C1621 1.390 . S
C1623 C1624 1.387 . S
C1623 H1626 0.950 . S
C1624 C1623 1.387 . S
C1624 C1627 1.387 . S
H1625 C1621 0.950 . S
H1626 C1623 0.950 . S
C1627 C1618 1.390 . S
C1627 H1620 0.950 . S
C1627 C1624 1.387 . S
C1628 C1629 1.387 . S
C1628 H1632 0.950 . S
C1628 C1637 1.390 . S
C1629 C1628 1.387 . S
C1629 C1631 1.387 . S
H1630 C1637 0.950 . S
C1631 C1629 1.387 . S
C1631 C1633 1.390 . S
C1631 H1635 0.950 . S
H1632 C1628 0.950 . S
C1633 C1631 1.390 . S
C1633 C1634 1.387 . S
C1633 H1636 0.950 . S
C1634 C1633 1.387 . S
C1634 C1637 1.387 . S
H1635 C1631 0.950 . S
H1636 C1633 0.950 . S
C1637 C1628 1.390 . S
C1637 H1630 0.950 . S
C1637 C1634 1.387 . S
C1638 C1639 1.387 . S
C1638 H1642 0.950 . S
C1638 C1647 1.390 . S
C1639 C1638 1.387 . S
C1639 C1641 1.387 . S
H1640 C1647 0.950 . S
C1641 C1639 1.387 . S
C1641 C1643 1.390 . S
C1641 H1645 0.950 . S
H1642 C1638 0.950 . S
C1643 C1641 1.390 . S
C1643 C1644 1.387 . S
C1643 H1646 0.950 . S
C1644 C1643 1.387 . S
C1644 C1647 1.387 . S
H1645 C1641 0.950 . S
H1646 C1643 0.950 . S
C1647 C1638 1.390 . S
C1647 H1640 0.950 . S
C1647 C1644 1.387 . S
C1648 C1649 1.387 . S
C1648 H1652 0.950 . S
C1648 C1657 1.390 . S
C1649 C1648 1.387 . S
C1649 C1651 1.387 . S
H1650 C1657 0.950 . S
C1651 C1649 1.387 . S
C1651 C1653 1.390 . S
C1651 H1655 0.950 . S
H1652 C1648 0.950 . S
C1653 C1651 1.390 . S
C1653 C1654 1.387 . S
C1653 H1656 0.950 . S
C1654 C1653 1.387 . S
C1654 C1657 1.387 . S
H1655 C1651 0.950 . S
H1656 C1653 0.950 . S
C1657 C1648 1.390 . S
C1657 H1650 0.950 . S
C1657 C1654 1.387 . S
C1658 C1659 1.387 . S
C1658 H1662 0.950 . S
C1658 C1667 1.390 . S
C1659 C1658 1.387 . S
C1659 C1661 1.387 . S
H1660 C1667 0.950 . S
C1661 C1659 1.387 . S
C1661 C1663 1.390 . S
C1661 H1665 0.950 . S
H1662 C1658 0.950 . S
C1663 C1661 1.390 . S
C1663 C1664 1.387 . S
C1663 H1666 0.950 . S
C1664 C1663 1.387 . S
C1664 C1667 1.387 . S
H1665 C1661 0.950 . S
H1666 C1663 0.950 . S
C1667 C1658 1.390 . S
C1667 H1660 0.950 . S
C1667 C1664 1.387 . S
C1668 C1669 1.387 . S
C1668 H1672 0.950 . S
C1668 C1677 1.390 . S
C1669 C1668 1.387 . S
C1669 C1671 1.387 . S
H1670 C1677 0.950 . S
C1671 C1669 1.387 . S
C1671 C1673 1.390 . S
C1671 H1675 0.950 . S
H1672 C1668 0.950 . S
C1673 C1671 1.390 . S
C1673 C1674 1.387 . S
C1673 H1676 0.950 . S
C1674 C1673 1.387 . S
C1674 C1677 1.387 . S
H1675 C1671 0.950 . S
H1676 C1673 0.950 . S
C1677 C1668 1.390 . S
C1677 H1670 0.950 . S
C1677 C1674 1.387 . S
C1678 C1679 1.387 . S
C1678 H1682 0.950 . S
C1678 C1687 1.390 . S
C1679 C1678 1.387 . S
C1679 C1681 1.387 . S
H1680 C1687 0.950 . S
C1681 C1679 1.387 . S
C1681 C1683 1.390 . S
C1681 H1685 0.950 . S
H1682 C1678 0.950 . S
C1683 C1681 1.390 . S
C1683 C1684 1.387 . S
C1683 H1686 0.950 . S
C1684 C1683 1.387 . S
C1684 C1687 1.387 . S
H1685 C1681 0.950 . S
H1686 C1683 0.950 . S
C1687 C1678 1.390 . S
C1687 H1680 0.950 . S
C1687 C1684 1.387 . S
C1688 C1689 1.387 . S
C1688 H1692 0.950 . S
C1688 C1697 1.390 . S
C1689 C1688 1.387 . S
C1689 C1691 1.387 . S
H1690 C1697 0.950 . S
C1691 C1689 1.387 . S
C1691 C1693 1.390 . S
C1691 H1695 0.950 1_545 S
H1692 C1688 0.950 . S
C1693 C1691 1.390 . S
C1693 C1694 1.387 . S
C1693 H1696 0.950 . S
C1694 C1693 1.387 . S
C1694 C1697 1.387 . S
H1695 C1691 0.950 1_565 S
H1696 C1693 0.950 . S
C1697 C1688 1.390 . S
C1697 H1690 0.950 . S
C1697 C1694 1.387 . S
C1698 C1699 1.387 . S
C1698 H1702 0.950 . S
C1698 C1707 1.390 . S
C1699 C1698 1.387 . S
C1699 C1701 1.387 . S
H1700 C1707 0.950 . S
C1701 C1699 1.387 . S
C1701 C1703 1.390 . S
C1701 H1705 0.950 . S
H1702 C1698 0.950 . S
C1703 C1701 1.390 . S
C1703 C1704 1.387 . S
C1703 H1706 0.950 . S
C1704 C1703 1.387 . S
C1704 C1707 1.387 . S
H1705 C1701 0.950 . S
H1706 C1703 0.950 . S
C1707 C1698 1.390 . S
C1707 H1700 0.950 . S
C1707 C1704 1.387 . S
C1708 C1709 1.387 . S
C1708 H1712 0.950 . S
C1708 C1717 1.390 . S
C1709 C1708 1.387 . S
C1709 C1711 1.387 . S
H1710 C1717 0.950 . S
C1711 C1709 1.387 . S
C1711 C1713 1.390 . S
C1711 H1715 0.950 . S
H1712 C1708 0.950 . S
C1713 C1711 1.390 . S
C1713 C1714 1.387 . S
C1713 H1716 0.950 . S
C1714 C1713 1.387 . S
C1714 C1717 1.387 . S
H1715 C1711 0.950 . S
H1716 C1713 0.950 . S
C1717 C1708 1.390 . S
C1717 H1710 0.950 . S
C1717 C1714 1.387 . S
C1718 C1719 1.387 1_545 S
C1718 H1722 0.950 . S
C1718 C1727 1.390 . S
C1719 C1718 1.387 1_565 S
C1719 C1721 1.387 . S
H1720 C1727 0.950 . S
C1721 C1719 1.387 . S
C1721 C1723 1.390 . S
C1721 H1725 0.950 . S
H1722 C1718 0.950 . S
C1723 C1721 1.390 . S
C1723 C1724 1.387 . S
C1723 H1726 0.950 . S
C1724 C1723 1.387 . S
C1724 C1727 1.387 1_565 S
H1725 C1721 0.950 . S
H1726 C1723 0.950 . S
C1727 C1718 1.390 . S
C1727 H1720 0.950 . S
C1727 C1724 1.387 1_545 S
C1728 C1729 1.387 . S
C1728 H1732 0.950 . S
C1728 C1737 1.390 . S
C1729 C1728 1.387 . S
C1729 C1731 1.387 1_565 S
H1730 C1737 0.950 . S
C1731 C1729 1.387 1_545 S
C1731 C1733 1.390 . S
C1731 H1735 0.950 . S
H1732 C1728 0.950 . S
C1733 C1731 1.390 . S
C1733 C1734 1.387 1_545 S
C1733 H1736 0.950 . S
C1734 C1733 1.387 1_565 S
C1734 C1737 1.387 . S
H1735 C1731 0.950 . S
H1736 C1733 0.950 . S
C1737 C1728 1.390 . S
C1737 H1730 0.950 . S
C1737 C1734 1.387 . S
C1738 C1739 1.387 1_655 S
C1738 H1742 0.950 . S
C1738 C1747 1.390 1_655 S
C1739 C1738 1.387 1_455 S
C1739 C1741 1.387 . S
H1740 C1747 0.950 1_655 S
C1741 C1739 1.387 . S
C1741 C1743 1.390 . S
C1741 H1745 0.950 . S
H1742 C1738 0.950 . S
C1743 C1741 1.390 . S
C1743 C1744 1.387 . S
C1743 H1746 0.950 . S
C1744 C1743 1.387 . S
C1744 C1747 1.387 . S
H1745 C1741 0.950 . S
H1746 C1743 0.950 . S
C1747 C1738 1.390 1_455 S
C1747 H1740 0.950 1_455 S
C1747 C1744 1.387 . S
C1748 C1749 1.387 . S
C1748 H1752 0.950 . S
C1748 C1757 1.390 . S
C1749 C1748 1.387 . S
C1749 C1751 1.387 . S
H1750 C1757 0.950 . S
C1751 C1749 1.387 . S
C1751 C1753 1.390 . S
C1751 H1755 0.950 . S
H1752 C1748 0.950 . S
C1753 C1751 1.390 . S
C1753 C1754 1.387 . S
C1753 H1756 0.950 . S
C1754 C1753 1.387 . S
C1754 C1757 1.387 . S
H1755 C1751 0.950 . S
H1756 C1753 0.950 . S
C1757 C1748 1.390 . S
C1757 H1750 0.950 . S
C1757 C1754 1.387 . S
C1758 C1759 1.387 . S
C1758 H1762 0.950 . S
C1758 C1767 1.390 1_556 S
C1759 C1758 1.387 . S
C1759 C1761 1.387 . S
H1760 C1767 0.950 . S
C1761 C1759 1.387 . S
C1761 C1763 1.390 1_556 S
C1761 H1765 0.950 . S
H1762 C1758 0.950 . S
C1763 C1761 1.390 1_554 S
C1763 C1764 1.387 . S
C1763 H1766 0.950 . S
C1764 C1763 1.387 . S
C1764 C1767 1.387 . S
H1765 C1761 0.950 . S
H1766 C1763 0.950 . S
C1767 C1758 1.390 1_554 S
C1767 H1760 0.950 . S
C1767 C1764 1.387 . S
C1768 C1769 1.387 1_556 S
C1768 H1772 0.950 . S
C1768 C1777 1.390 . S
C1769 C1768 1.387 1_554 S
C1769 C1771 1.387 . S
H1770 C1777 0.950 . S
C1771 C1769 1.387 . S
C1771 C1773 1.390 . S
C1771 H1775 0.950 . S
H1772 C1768 0.950 . S
C1773 C1771 1.390 . S
C1773 C1774 1.387 1_554 S
C1773 H1776 0.950 1_655 S
C1774 C1773 1.387 1_556 S
C1774 C1777 1.387 . S
H1775 C1771 0.950 . S
H1776 C1773 0.950 1_455 S
C1777 C1768 1.390 . S
C1777 H1770 0.950 . S
C1777 C1774 1.387 . S
C1778 C1779 1.401 . S
C1778 H1782 0.949 . S
C1778 C1787 1.376 1_554 S
C1779 C1778 1.401 . S
C1779 C1781 1.387 . S
H1780 C1787 0.950 . S
C1781 C1779 1.387 . S
C1781 C1783 1.381 1_554 S
C1781 H1785 0.950 . S
H1782 C1778 0.949 . S
C1783 C1781 1.381 1_556 S
C1783 C1784 1.396 . S
C1783 H1786 0.949 . S
C1784 C1783 1.396 . S
C1784 C1787 1.387 . S
H1785 C1781 0.950 . S
H1786 C1783 0.949 . S
C1787 C1778 1.376 1_556 S
C1787 H1780 0.950 . S
C1787 C1784 1.387 . S
C1788 C1789 1.387 1_565 S
C1788 H1792 0.950 . S
C1788 C1797 1.390 . S
C1789 C1788 1.387 1_545 S
C1789 C1791 1.387 . S
H1790 C1797 0.950 . S
C1791 C1789 1.387 . S
C1791 C1793 1.390 . S
C1791 H1795 0.950 . S
H1792 C1788 0.950 . S
C1793 C1791 1.390 . S
C1793 C1794 1.387 . S
C1793 H1796 0.950 . S
C1794 C1793 1.387 . S
C1794 C1797 1.387 1_545 S
H1795 C1791 0.950 . S
H1796 C1793 0.950 . S
C1797 C1788 1.390 . S
C1797 H1790 0.950 . S
C1797 C1794 1.387 1_565 S
C1798 C1799 1.387 . S
C1798 H1802 0.950 . S
C1798 C1807 1.390 . S
C1799 C1798 1.387 . S
C1799 C1801 1.387 1_655 S
H1800 C1807 0.950 . S
C1801 C1799 1.387 1_455 S
C1801 C1803 1.390 . S
C1801 H1805 0.950 . S
H1802 C1798 0.950 . S
C1803 C1801 1.390 . S
C1803 C1804 1.387 1_455 S
C1803 H1806 0.950 . S
C1804 C1803 1.387 1_655 S
C1804 C1807 1.387 . S
H1805 C1801 0.950 . S
H1806 C1803 0.950 . S
C1807 C1798 1.390 . S
C1807 H1800 0.950 . S
C1807 C1804 1.387 . S
C1808 C1809 1.387 . S
C1808 H1812 0.950 . S
C1808 C1817 1.390 . S
C1809 C1808 1.387 . S
C1809 C1811 1.387 . S
H1810 C1817 0.950 . S
C1811 C1809 1.387 . S
C1811 C1813 1.390 . S
C1811 H1815 0.950 . S
H1812 C1808 0.950 . S
C1813 C1811 1.390 . S
C1813 C1814 1.387 . S
C1813 H1816 0.950 . S
C1814 C1813 1.387 . S
C1814 C1817 1.387 . S
H1815 C1811 0.950 . S
H1816 C1813 0.950 . S
C1817 C1808 1.390 . S
C1817 H1810 0.950 . S
C1817 C1814 1.387 . S
C1818 C1819 1.387 . S
C1818 H1822 0.950 . S
C1818 C1827 1.389 1_556 S
C1819 C1818 1.387 . S
C1819 C1821 1.394 . S
H1820 C1827 0.950 . S
C1821 C1819 1.394 . S
C1821 C1823 1.384 1_556 S
C1821 H1825 0.950 . S
H1822 C1818 0.950 . S
C1823 C1821 1.384 1_554 S
C1823 C1824 1.387 . S
C1823 H1826 0.950 . S
C1824 C1823 1.387 . S
C1824 C1827 1.389 . S
H1825 C1821 0.950 . S
H1826 C1823 0.950 . S
C1827 C1818 1.389 1_554 S
C1827 H1820 0.950 . S
C1827 C1824 1.389 . S
C1828 C1829 1.387 1_556 S
C1828 H1832 0.950 . S
C1828 C1837 1.390 . S
C1829 C1828 1.387 1_554 S
C1829 C1831 1.387 . S
H1830 C1837 0.950 . S
C1831 C1829 1.387 . S
C1831 C1833 1.390 . S
C1831 H1835 0.950 . S
H1832 C1828 0.950 . S
C1833 C1831 1.390 . S
C1833 C1834 1.387 1_554 S
C1833 H1836 0.950 . S
C1834 C1833 1.387 1_556 S
C1834 C1837 1.387 . S
H1835 C1831 0.950 . S
H1836 C1833 0.950 . S
C1837 C1828 1.390 . S
C1837 H1830 0.950 . S
C1837 C1834 1.387 . S
C1838 C1839 1.387 . S
C1838 H1842 0.950 . S
C1838 C1847 1.372 1_556 S
C1839 C1838 1.387 . S
C1839 C1841 1.411 . S
H1840 C1847 0.949 . S
C1841 C1839 1.411 . S
C1841 C1843 1.367 1_556 S
C1841 H1845 0.949 . S
H1842 C1838 0.950 . S
C1843 C1841 1.367 1_554 S
C1843 C1844 1.387 . S
C1843 H1846 0.950 . S
C1844 C1843 1.387 . S
C1844 C1847 1.405 . S
H1845 C1841 0.949 . S
H1846 C1843 0.950 . S
C1847 C1838 1.372 1_554 S
C1847 H1840 0.949 . S
C1847 C1844 1.405 . S
C1848 C1849 1.387 . S
C1848 H1852 0.950 . S
C1848 C1857 1.390 . S
C1849 C1848 1.387 . S
C1849 C1851 1.387 . S
H1850 C1857 0.950 . S
C1851 C1849 1.387 . S
C1851 C1853 1.390 . S
C1851 H1855 0.950 1_455 S
H1852 C1848 0.950 . S
C1853 C1851 1.390 . S
C1853 C1854 1.387 . S
C1853 H1856 0.950 . S
C1854 C1853 1.387 . S
C1854 C1857 1.387 . S
H1855 C1851 0.950 1_655 S
H1856 C1853 0.950 . S
C1857 C1848 1.390 . S
C1857 H1850 0.950 . S
C1857 C1854 1.387 . S
C1858 C1859 1.387 . S
C1858 H1862 0.950 . S
C1858 C1867 1.390 . S
C1859 C1858 1.387 . S
C1859 C1861 1.387 . S
H1860 C1867 0.950 . S
C1861 C1859 1.387 . S
C1861 C1863 1.390 . S
C1861 H1865 0.950 . S
H1862 C1858 0.950 . S
C1863 C1861 1.390 . S
C1863 C1864 1.387 . S
C1863 H1866 0.950 . S
C1864 C1863 1.387 . S
C1864 C1867 1.387 . S
H1865 C1861 0.950 . S
H1866 C1863 0.950 . S
C1867 C1858 1.390 . S
C1867 H1860 0.950 . S
C1867 C1864 1.387 . S
C1868 C1869 1.387 . S
C1868 H1872 0.950 . S
C1868 C1877 1.390 . S
C1869 C1868 1.387 . S
C1869 C1871 1.387 . S
H1870 C1877 0.950 . S
C1871 C1869 1.387 . S
C1871 C1873 1.390 . S
C1871 H1875 0.950 . S
H1872 C1868 0.950 . S
C1873 C1871 1.390 . S
C1873 C1874 1.387 . S
C1873 H1876 0.942 1_565 S
C1874 C1873 1.387 . S
C1874 C1877 1.387 . S
H1875 C1871 0.950 . S
H1876 C1873 0.942 1_545 S
C1877 C1868 1.390 . S
C1877 H1870 0.950 . S
C1877 C1874 1.387 . S
C1878 C1879 1.387 1_455 S
C1878 H1882 0.950 . S
C1878 C1887 1.390 . S
C1879 C1878 1.387 1_655 S
C1879 C1881 1.387 . S
H1880 C1887 0.950 . S
C1881 C1879 1.387 . S
C1881 C1883 1.390 . S
C1881 H1885 0.950 . S
H1882 C1878 0.950 . S
C1883 C1881 1.390 . S
C1883 C1884 1.387 . S
C1883 H1886 0.950 . S
C1884 C1883 1.387 . S
C1884 C1887 1.387 1_655 S
H1885 C1881 0.950 . S
H1886 C1883 0.950 . S
C1887 C1878 1.390 . S
C1887 H1880 0.950 . S
C1887 C1884 1.387 1_455 S
C1888 C1889 1.387 . S
C1888 H1892 0.950 . S
C1888 C1897 1.390 . S
C1889 C1888 1.387 . S
C1889 C1891 1.387 . S
H1890 C1897 0.950 . S
C1891 C1889 1.387 . S
C1891 C1893 1.390 . S
C1891 H1895 0.950 . S
H1892 C1888 0.950 . S
C1893 C1891 1.390 . S
C1893 C1894 1.387 . S
C1893 H1896 0.950 . S
C1894 C1893 1.387 . S
C1894 C1897 1.387 . S
H1895 C1891 0.950 . S
H1896 C1893 0.950 . S
C1897 C1888 1.390 . S
C1897 H1890 0.950 . S
C1897 C1894 1.387 . S
C1898 C1899 1.387 . S
C1898 H1902 0.950 . S
C1898 C1907 1.390 . S
C1899 C1898 1.387 . S
C1899 C1901 1.387 1_545 S
H1900 C1907 0.950 . S
C1901 C1899 1.387 1_565 S
C1901 C1903 1.390 . S
C1901 H1905 0.950 . S
H1902 C1898 0.950 . S
C1903 C1901 1.390 . S
C1903 C1904 1.387 1_565 S
C1903 H1906 0.950 . S
C1904 C1903 1.387 1_545 S
C1904 C1907 1.387 . S
H1905 C1901 0.950 . S
H1906 C1903 0.950 . S
C1907 C1898 1.390 . S
C1907 H1900 0.950 . S
C1907 C1904 1.387 . S
C1908 C1909 1.387 . S
C1908 H1912 0.950 . S
C1908 C1917 1.390 . S
C1909 C1908 1.387 . S
C1909 C1911 1.387 1_655 S
H1910 C1917 0.950 . S
C1911 C1909 1.387 1_455 S
C1911 C1913 1.390 . S
C1911 H1915 0.950 . S
H1912 C1908 0.950 . S
C1913 C1911 1.390 . S
C1913 C1914 1.387 . S
C1913 H1916 0.950 . S
C1914 C1913 1.387 . S
C1914 C1917 1.387 1_455 S
H1915 C1911 0.950 . S
H1916 C1913 0.950 . S
C1917 C1908 1.390 . S
C1917 H1910 0.950 . S
C1917 C1914 1.387 1_655 S
C1918 C1919 1.387 . S
C1918 H1922 0.950 . S
C1918 C1927 1.390 . S
C1919 C1918 1.387 . S
C1919 C1921 1.387 . S
H1920 C1927 0.950 . S
C1921 C1919 1.387 . S
C1921 C1923 1.390 . S
C1921 H1925 0.950 . S
H1922 C1918 0.950 . S
C1923 C1921 1.390 . S
C1923 C1924 1.387 . S
C1923 H1926 0.950 . S
C1924 C1923 1.387 . S
C1924 C1927 1.387 . S
H1925 C1921 0.950 . S
H1926 C1923 0.950 . S
C1927 C1918 1.390 . S
C1927 H1920 0.950 . S
C1927 C1924 1.387 . S
C1928 C1929 1.387 . S
C1928 H1932 0.950 . S
C1928 C1937 1.390 1_565 S
C1929 C1928 1.387 . S
C1929 C1931 1.387 . S
H1930 C1937 0.950 . S
C1931 C1929 1.387 . S
C1931 C1933 1.390 1_565 S
C1931 H1935 0.950 . S
H1932 C1928 0.950 . S
C1933 C1931 1.390 1_545 S
C1933 C1934 1.387 . S
C1933 H1936 0.950 . S
C1934 C1933 1.387 . S
C1934 C1937 1.387 . S
H1935 C1931 0.950 . S
H1936 C1933 0.950 . S
C1937 C1928 1.390 1_545 S
C1937 H1930 0.950 . S
C1937 C1934 1.387 . S
C1938 C1939 1.387 . S
C1938 H1942 0.950 . S
C1938 C1947 1.390 1_655 S
C1939 C1938 1.387 . S
C1939 C1941 1.387 . S
H1940 C1947 0.950 . S
C1941 C1939 1.387 . S
C1941 C1943 1.390 1_655 S
C1941 H1945 0.950 . S
H1942 C1938 0.950 . S
C1943 C1941 1.390 1_455 S
C1943 C1944 1.387 . S
C1943 H1946 0.950 . S
C1944 C1943 1.387 . S
C1944 C1947 1.387 . S
H1945 C1941 0.950 . S
H1946 C1943 0.950 . S
C1947 C1938 1.390 1_455 S
C1947 H1940 0.950 . S
C1947 C1944 1.387 . S
C1948 C1949 1.387 . S
C1948 H1952 0.950 . S
C1948 C1957 1.390 . S
C1949 C1948 1.387 . S
C1949 C1951 1.387 . S
H1950 C1957 0.950 . S
C1951 C1949 1.387 . S
C1951 C1953 1.390 . S
C1951 H1955 0.950 . S
H1952 C1948 0.950 . S
C1953 C1951 1.390 . S
C1953 C1954 1.387 . S
C1953 H1956 0.950 . S
C1954 C1953 1.387 . S
C1954 C1957 1.387 . S
H1955 C1951 0.950 . S
H1956 C1953 0.950 . S
C1957 C1948 1.390 . S
C1957 H1950 0.950 . S
C1957 C1954 1.387 . S
C1958 C1959 1.387 . S
C1958 H1962 0.950 . S
C1958 C1967 1.390 1_545 S
C1959 C1958 1.387 . S
C1959 C1961 1.387 . S
H1960 C1967 0.950 . S
C1961 C1959 1.387 . S
C1961 C1963 1.390 1_545 S
C1961 H1965 0.950 . S
H1962 C1958 0.950 . S
C1963 C1961 1.390 1_565 S
C1963 C1964 1.387 . S
C1963 H1966 0.950 . S
C1964 C1963 1.387 . S
C1964 C1967 1.387 . S
H1965 C1961 0.950 . S
H1966 C1963 0.950 . S
C1967 C1958 1.390 1_565 S
C1967 H1960 0.950 . S
C1967 C1964 1.387 . S
C1968 C1969 1.387 . S
C1968 H1972 0.950 . S
C1968 C1977 1.390 . S
C1969 C1968 1.387 . S
C1969 C1971 1.387 . S
H1970 C1977 0.950 . S
C1971 C1969 1.387 . S
C1971 C1973 1.390 . S
C1971 H1975 0.950 . S
H1972 C1968 0.950 . S
C1973 C1971 1.390 . S
C1973 C1974 1.387 . S
C1973 H1976 0.950 . S
C1974 C1973 1.387 . S
C1974 C1977 1.387 . S
H1975 C1971 0.950 . S
H1976 C1973 0.950 . S
C1977 C1968 1.390 . S
C1977 H1970 0.950 . S
C1977 C1974 1.387 . S
C1978 C1979 1.387 . S
C1978 H1982 0.950 . S
C1978 C1987 1.390 . S
C1979 C1978 1.387 . S
C1979 C1981 1.387 . S
H1980 C1987 0.950 . S
C1981 C1979 1.387 . S
C1981 C1983 1.390 . S
C1981 H1985 0.950 1_545 S
H1982 C1978 0.950 . S
C1983 C1981 1.390 . S
C1983 C1984 1.387 . S
C1983 H1986 0.950 . S
C1984 C1983 1.387 . S
C1984 C1987 1.387 . S
H1985 C1981 0.950 1_565 S
H1986 C1983 0.950 . S
C1987 C1978 1.390 . S
C1987 H1980 0.950 . S
C1987 C1984 1.387 . S
C1988 C1989 1.387 . S
C1988 H1992 0.950 . S
C1988 C1997 1.390 . S
C1989 C1988 1.387 . S
C1989 C1991 1.387 . S
H1990 C1997 0.950 . S
C1991 C1989 1.387 . S
C1991 C1993 1.390 . S
C1991 H1995 0.950 1_655 S
H1992 C1988 0.950 . S
C1993 C1991 1.390 . S
C1993 C1994 1.387 . S
C1993 H1996 0.950 . S
C1994 C1993 1.387 . S
C1994 C1997 1.387 . S
H1995 C1991 0.950 1_455 S
H1996 C1993 0.950 . S
C1997 C1988 1.390 . S
C1997 H1990 0.950 . S
C1997 C1994 1.387 . S
C1998 C1999 1.387 . S
C1998 H2002 0.950 . S
C1998 C2007 1.390 . S
C1999 C1998 1.387 . S
C1999 C2001 1.387 . S
H2000 C2007 0.950 1_565 S
C2001 C1999 1.387 . S
C2001 C2003 1.390 . S
C2001 H2005 0.950 . S
H2002 C1998 0.950 . S
C2003 C2001 1.390 . S
C2003 C2004 1.387 . S
C2003 H2006 0.950 . S
C2004 C2003 1.387 . S
C2004 C2007 1.387 . S
H2005 C2001 0.950 . S
H2006 C2003 0.950 . S
C2007 C1998 1.390 . S
C2007 H2000 0.950 1_545 S
C2007 C2004 1.387 . S
C2008 C2009 1.387 . S
C2008 H2012 0.950 . S
C2008 C2017 1.390 . S
C2009 C2008 1.387 . S
C2009 C2011 1.387 . S
H2010 C2017 0.950 . S
C2011 C2009 1.387 . S
C2011 C2013 1.390 . S
C2011 H2015 0.950 . S
H2012 C2008 0.950 . S
C2013 C2011 1.390 . S
C2013 C2014 1.387 . S
C2013 H2016 0.950 . S
C2014 C2013 1.387 . S
C2014 C2017 1.387 . S
H2015 C2011 0.950 . S
H2016 C2013 0.950 . S
C2017 C2008 1.390 . S
C2017 H2010 0.950 . S
C2017 C2014 1.387 . S
C2018 C2019 1.387 . S
C2018 H2022 0.950 . S
C2018 C2027 1.390 . S
C2019 C2018 1.387 . S
C2019 C2021 1.387 . S
H2020 C2027 0.950 . S
C2021 C2019 1.387 . S
C2021 C2023 1.390 . S
C2021 H2025 0.950 . S
H2022 C2018 0.950 . S
C2023 C2021 1.390 . S
C2023 C2024 1.387 . S
C2023 H2026 0.950 . S
C2024 C2023 1.387 . S
C2024 C2027 1.387 . S
H2025 C2021 0.950 . S
H2026 C2023 0.950 . S
C2027 C2018 1.390 . S
C2027 H2020 0.950 . S
C2027 C2024 1.387 . S
C2028 C2029 1.387 . S
C2028 H2032 0.950 . S
C2028 C2037 1.390 . S
C2029 C2028 1.387 . S
C2029 C2031 1.387 . S
H2030 C2037 0.950 1_545 S
C2031 C2029 1.387 . S
C2031 C2033 1.390 . S
C2031 H2035 0.950 . S
H2032 C2028 0.950 . S
C2033 C2031 1.390 . S
C2033 C2034 1.387 . S
C2033 H2036 0.950 . S
C2034 C2033 1.387 . S
C2034 C2037 1.387 . S
H2035 C2031 0.950 . S
H2036 C2033 0.950 . S
C2037 C2028 1.390 . S
C2037 H2030 0.950 1_565 S
C2037 C2034 1.387 . S
C2038 C2039 1.387 . S
C2038 H2042 0.950 . S
C2038 C2047 1.390 . S
C2039 C2038 1.387 . S
C2039 C2041 1.387 . S
H2040 C2047 0.950 . S
C2041 C2039 1.387 . S
C2041 C2043 1.390 . S
C2041 H2045 0.950 . S
H2042 C2038 0.950 . S
C2043 C2041 1.390 . S
C2043 C2044 1.387 . S
C2043 H2046 0.950 . S
C2044 C2043 1.387 . S
C2044 C2047 1.387 . S
H2045 C2041 0.950 . S
H2046 C2043 0.950 . S
C2047 C2038 1.390 . S
C2047 H2040 0.950 . S
C2047 C2044 1.387 . S
C2048 C2049 1.387 . S
C2048 H2052 0.950 . S
C2048 C2057 1.390 . S
C2049 C2048 1.387 . S
C2049 C2051 1.387 . S
H2050 C2057 0.950 . S
C2051 C2049 1.387 . S
C2051 C2053 1.390 . S
C2051 H2055 0.950 . S
H2052 C2048 0.950 . S
C2053 C2051 1.390 . S
C2053 C2054 1.387 . S
C2053 H2056 0.950 . S
C2054 C2053 1.387 . S
C2054 C2057 1.387 . S
H2055 C2051 0.950 . S
H2056 C2053 0.950 . S
C2057 C2048 1.390 . S
C2057 H2050 0.950 . S
C2057 C2054 1.387 . S
C2058 C2059 1.387 . S
C2058 H2062 0.950 . S
C2058 C2067 1.390 . S
C2059 C2058 1.387 . S
C2059 C2061 1.387 . S
H2060 C2067 0.950 . S
C2061 C2059 1.387 . S
C2061 C2063 1.390 . S
C2061 H2065 0.950 . S
H2062 C2058 0.950 . S
C2063 C2061 1.390 . S
C2063 C2064 1.387 . S
C2063 H2066 0.950 . S
C2064 C2063 1.387 . S
C2064 C2067 1.387 . S
H2065 C2061 0.950 . S
H2066 C2063 0.950 . S
C2067 C2058 1.390 . S
C2067 H2060 0.950 . S
C2067 C2064 1.387 . S
C2068 C2069 1.387 . S
C2068 H2072 0.950 . S
C2068 C2077 1.390 . S
C2069 C2068 1.387 . S
C2069 C2071 1.387 . S
H2070 C2077 0.950 . S
C2071 C2069 1.387 . S
C2071 C2073 1.390 . S
C2071 H2075 0.950 1_565 S
H2072 C2068 0.950 . S
C2073 C2071 1.390 . S
C2073 C2074 1.387 . S
C2073 H2076 0.950 . S
C2074 C2073 1.387 . S
C2074 C2077 1.387 . S
H2075 C2071 0.950 1_545 S
H2076 C2073 0.950 . S
C2077 C2068 1.390 . S
C2077 H2070 0.950 . S
C2077 C2074 1.387 . S
C2078 C2079 1.387 . S
C2078 H2082 0.950 . S
C2078 C2087 1.390 . S
C2079 C2078 1.387 . S
C2079 C2081 1.387 . S
H2080 C2087 0.950 . S
C2081 C2079 1.387 . S
C2081 C2083 1.390 . S
C2081 H2085 0.950 . S
H2082 C2078 0.950 . S
C2083 C2081 1.390 . S
C2083 C2084 1.387 . S
C2083 H2086 0.950 1_455 S
C2084 C2083 1.387 . S
C2084 C2087 1.387 . S
H2085 C2081 0.950 . S
H2086 C2083 0.950 1_655 S
C2087 C2078 1.390 . S
C2087 H2080 0.950 . S
C2087 C2084 1.387 . S
C1189 N2 1.286 . S
C1194 C73 1.276 . S
C1199 C7 1.278 . S
C1204 N35 1.287 1_545 S
C1209 C40 1.274 . S
C1214 N68 1.283 1_655 S
C1219 C139 1.273 . S
C1224 N101 1.283 . S
C1229 C172 1.274 . S
C1234 N134 1.283 1_565 S
C1239 C106 1.275 . S
C1244 N167 1.285 1_455 S
C1249 C271 1.276 . S
C1254 N200 1.286 . S
C1259 N233 1.285 1_565 S
C1264 C205 1.276 . S
C1269 C238 1.279 . S
C1274 N266 1.289 1_455 S
C1279 C337 1.279 . S
C1284 N299 1.288 . S
C1289 N332 1.288 1_545 S
C1294 C370 1.279 . S
C1299 C304 1.277 . S
C1304 N365 1.286 1_655 S
C1309 N398 1.286 . S
C1314 C469 1.277 . S
C1319 N431 1.286 . S
C1324 C403 1.277 . S
C1329 N464 1.286 . S
C1334 C436 1.277 . S
C1339 C535 1.279 . S
C1344 N497 1.289 . S
C1349 C568 1.277 . S
C1354 N530 1.286 . S
C1359 N563 1.284 . S
C1364 C502 1.274 . S
C1369 N596 1.284 . S
C1374 C667 1.274 . S
C1379 N629 1.287 . S
C1384 C601 1.278 . S
C1389 N662 1.283 . S
C1394 C634 1.274 . S
C1399 C733 1.274 . S
C1404 N695 1.283 . S
C1409 C766 1.280 . S
C1414 N728 1.289 . S
C1419 N761 1.288 . S
C1424 C700 1.279 . S
C1429 C865 1.276 . S
C1434 N794 1.285 . S
C1439 C799 1.277 . S
C1444 N827 1.286 . S
C1449 N860 1.284 . S
C1454 C832 1.274 . S
C1459 C931 1.279 . S
C1464 N893 1.288 . S
C1469 N926 1.286 . S
C1474 C964 1.276 . S
C1479 C898 1.276 . S
C1484 N959 1.285 . S
C1489 C1063 1.277 . S
C1494 N992 1.286 . S
C1499 N1025 1.286 . S
C1504 C997 1.277 . S
C1509 N1058 1.283 . S
C1514 C1030 1.274 . S
C1519 C1129 1.278 . S
C1524 N1091 1.287 . S
C1529 C1162 1.275 . S
C1534 N1124 1.284 . S
C1539 N1157 1.283 . S
C1544 C1096 1.274 . S
C1549 N673 1.484 . S
C1554 C18 1.468 . S
C1559 C51 1.468 . S
C1564 N607 1.484 . S
C1569 C84 1.469 . S
C1574 N640 1.483 . S
C1579 N1135 1.485 . S
C1584 C117 1.467 . S
C1589 N1168 1.485 . S
C1594 C150 1.466 . S
C1599 C183 1.467 . S
C1604 N1102 1.485 . S
C1609 C216 1.468 . S
C1614 N871 1.484 . S
C1619 C249 1.466 . S
C1624 N805 1.485 . S
C1629 C282 1.466 . S
C1634 N838 1.485 . S
C1639 N541 1.483 . S
C1644 C315 1.469 . S
C1649 C348 1.467 . S
C1654 N574 1.484 . S
C1659 C381 1.467 . S
C1664 N508 1.485 . S
C1669 C414 1.468 . S
C1674 N1069 1.484 1_655 S
C1679 N1003 1.485 . S
C1684 C447 1.466 . S
C1689 N1036 1.485 1_545 S
C1694 C480 1.466 . S
C1699 C513 1.469 1_455 S
C1704 N343 1.483 . S
C1709 C546 1.469 . S
C1714 N376 1.483 . S
C1719 C579 1.467 1_565 S
C1724 N310 1.485 . S
C1729 N79 1.485 . S
C1734 C612 1.467 1_565 S
C1739 C645 1.467 1_455 S
C1744 N13 1.485 . S
C1749 C678 1.466 . S
C1754 N46 1.485 . S
C1759 N937 1.484 1_545 S
C1764 C711 1.468 . S
C1769 C744 1.469 . S
C1774 N970 1.483 1_655 S
C1779 C777 1.468 . S
C1784 N904 1.483 . S
C1789 N277 1.485 . S
C1794 C810 1.467 1_545 S
C1799 N211 1.483 . S
C1804 C843 1.469 1_655 S
C1809 C876 1.466 . S
C1814 N244 1.485 . S
C1819 C909 1.468 . S
C1824 N739 1.484 1_565 S
C1829 N772 1.483 1_455 S
C1834 C942 1.469 . S
C1839 C975 1.468 . S
C1844 N706 1.483 . S
C1849 N475 1.483 1_455 S
C1854 C1008 1.469 . S
C1859 C1041 1.466 . S
C1864 N409 1.485 . S
C1869 C1074 1.469 . S
C1874 N442 1.483 1_565 S
C1879 N145 1.483 . S
C1884 C1107 1.469 1_655 S
C1889 C1140 1.469 . S
C1894 N178 1.483 . S
C1899 N112 1.485 . S
C1904 C1173 1.467 1_545 S
C1909 C153 1.740 . S
C1914 C21 1.742 . S
C1919 C54 1.740 . S
C1924 C186 1.741 . S
C1929 C87 1.744 . S
C1934 C120 1.744 . S
C1939 C219 1.743 . S
C1944 C351 1.744 . S
C1949 C252 1.741 . S
C1954 C384 1.743 . S
C1959 C285 1.744 . S
C1964 C318 1.744 . S
C1969 C549 1.744 . S
C1974 C417 1.743 . S
C1979 C582 1.742 . S
C1984 C450 1.740 . S
C1989 C516 1.740 . S
C1994 C483 1.740 . S
C1999 C747 1.740 . S
C2004 C615 1.741 . S
C2009 C780 1.743 . S
C2014 C648 1.744 . S
C2019 C714 1.740 . S
C2024 C681 1.740 . S
C2029 C945 1.744 . S
C2034 C813 1.743 . S
C2039 C846 1.744 . S
C2044 C978 1.743 . S
C2049 C912 1.744 . S
C2054 C879 1.744 . S
C2059 C1143 1.744 . S
C2064 C1011 1.743 . S
C2069 C1176 1.743 . S
C2074 C1044 1.744 . S
C2079 C1077 1.744 . S
C2084 C1110 1.744 . S
