# Generated by pormake.
# Topology sxa, (6)-cn, num edge types: 1
# Building blocks:
#     Node 0, Type 0, BuildingBlock: PAMTOO_clean_sbu_0, # of connection points: 6
#     Node 1, Type 0, BuildingBlock: PAMTOO_clean_sbu_0, # of connection points: 6
#     Node 2, Type 0, BuildingBlock: PAMTOO_clean_sbu_0, # of connection points: 6
#     Node 3, Type 0, BuildingBlock: PAMTOO_clean_sbu_0, # of connection points: 6
#     Edge 4, Type (0, 0), BuildingBlock: FUNLAD_clean_linker_1, # of connection points: 2
#     Edge 5, Type (0, 0), BuildingBlock: FUNLAD_clean_linker_1, # of connection points: 2
#     Edge 6, Type (0, 0), BuildingBlock: FUNLAD_clean_linker_1, # of connection points: 2
#     Edge 7, Type (0, 0), BuildingBlock: FUNLAD_clean_linker_1, # of connection points: 2
#     Edge 8, Type (0, 0), BuildingBlock: FUNLAD_clean_linker_1, # of connection points: 2
#     Edge 9, Type (0, 0), BuildingBlock: FUNLAD_clean_linker_1, # of connection points: 2
#     Edge 10, Type (0, 0), BuildingBlock: FUNLAD_clean_linker_1, # of connection points: 2
#     Edge 11, Type (0, 0), BuildingBlock: FUNLAD_clean_linker_1, # of connection points: 2
#     Edge 12, Type (0, 0), BuildingBlock: FUNLAD_clean_linker_1, # of connection points: 2
#     Edge 13, Type (0, 0), BuildingBlock: FUNLAD_clean_linker_1, # of connection points: 2
#     Edge 14, Type (0, 0), BuildingBlock: FUNLAD_clean_linker_1, # of connection points: 2
#     Edge 15, Type (0, 0), BuildingBlock: FUNLAD_clean_linker_1, # of connection points: 2
# Relax obj value: 0.216
# Max RMSD: 0.276
# Mean RMSD: 0.276
data_MOF--net-sxa--node1-PAMTOO_clean_sbu_0--edge1-FUNLAD_clean_linker_1
_symmetry_space_group_name_H-M    P1
_symmetry_Int_Tables_number       1
_symmetry_cell_setting            triclinic
loop_
_symmetry_equiv_pos_as_xyz
'x, y, z'
_cell_length_a     36.630875
_cell_length_b     28.748651
_cell_length_c     17.701274
_cell_angle_alpha  93.70471
_cell_angle_beta   123.98148
_cell_angle_gamma 81.609054
loop_
_atom_site_label
_atom_site_type_symbol
_atom_site_fract_x
_atom_site_fract_y
_atom_site_fract_z
_atom_type_partial_charge
Dy0 Dy 0.06316 0.78561 0.24451 0.0
Dy1 Dy 0.06398 0.77796 0.0578 0.0
C2 C 0.07717 0.68706 0.16024 0.0
O3 O 0.13597 0.77525 0.2974 0.0
O4 O 0.13093 0.79729 0.1677 0.0
O5 O 0.0732 0.75574 0.36547 0.0
O6 O 0.03884 0.8261 0.31916 0.0
O7 O 0.04066 0.85156 0.0718 0.0
O8 O 0.08037 0.85486 0.22639 0.0
O9 O 1.00237 0.75156 0.0248 0.0
O10 O 0.99501 0.8027 0.12016 0.0
O11 O 0.03361 0.80302 0.91992 0.0
O12 O 0.08847 0.74667 0.97746 0.0
C13 C 0.15429 0.78666 0.25561 0.0
O14 O 0.05608 0.71027 0.1949 0.0
O15 O 0.09531 0.70965 0.13058 0.0
C16 C 1.01679 0.78262 0.39409 0.0
C17 C 0.95217 0.76762 0.42969 0.0
C18 C 0.95585 0.74174 0.36314 0.0
C19 C 0.98747 0.74929 0.34512 0.0
C20 C 1.01364 0.80815 0.46113 0.0
C21 C 0.98193 0.80083 0.47892 0.0
C22 C 0.05047 0.79184 0.37631 0.0
C23 C 0.06238 0.87526 0.14631 0.0
C24 C 0.97782 0.77466 0.05078 0.0
C25 C 0.08841 0.80342 0.88907 0.0
C26 C 0.15359 0.8431 0.88723 0.0
C27 C 0.12944 0.86899 0.91945 0.0
C28 C 0.09754 0.84898 0.92146 0.0
C29 C 0.10905 0.77964 0.8482 0.0
C30 C 0.14133 0.79944 0.847 0.0
C31 C 0.06376 0.7778 0.91166 0.0
H32 H 0.9336 0.716 0.32357 0.0
H33 H 0.9888 0.72926 0.29255 0.0
H34 H 0.03585 0.83403 0.50006 0.0
H35 H 0.98128 0.82128 0.53163 0.0
H36 H 0.13645 0.90362 0.94725 0.0
H37 H 0.08198 0.86805 0.95327 0.0
H38 H 0.10244 0.74445 0.82292 0.0
H39 H 0.15902 0.779 0.82063 0.0
Dy40 Dy 0.57281 0.28128 0.25094 0.0
Dy41 Dy 0.57186 0.2724 0.06341 0.0
C42 C 0.5868 0.18324 0.16667 0.0
O43 O 0.64571 0.26873 0.30578 0.0
O44 O 0.64135 0.28588 0.17454 0.0
O45 O 0.57883 0.24852 0.36524 0.0
O46 O 0.55752 0.32319 0.33869 0.0
O47 O 0.54401 0.34514 0.06946 0.0
O48 O 0.58724 0.35034 0.22361 0.0
O49 O 0.50661 0.2538 0.02857 0.0
O50 O 0.50319 0.30068 0.13386 0.0
O51 O 0.57613 0.30381 0.96177 0.0
O52 O 0.56167 0.23211 0.94722 0.0
C53 C 0.66445 0.27737 0.26332 0.0
O54 O 0.56363 0.20692 0.19631 0.0
O55 O 0.60698 0.20607 0.1423 0.0
C56 C 0.52843 0.28443 0.40551 0.0
C57 C 0.46425 0.28154 0.44823 0.0
C58 C 0.46798 0.24819 0.38989 0.0
C59 C 0.49967 0.24969 0.3687 0.0
C60 C 0.52451 0.3176 0.46318 0.0
C61 C 0.49289 0.31628 0.48388 0.0
C62 C 0.56306 0.28703 0.38655 0.0
C63 C 0.56632 0.37011 0.14186 0.0
C64 C 0.48387 0.27617 0.05971 0.0
C65 C 0.60941 0.24847 0.90517 0.0
C66 C 0.68362 0.21243 0.89954 0.0
C67 C 0.68089 0.25755 0.93334 0.0
C68 C 0.64432 0.27526 0.93653 0.0
C69 C 0.61074 0.20475 0.86579 0.0
C70 C 0.64754 0.18692 0.86281 0.0
C71 C 0.57345 0.26431 0.91923 0.0
H72 H 0.44598 0.22154 0.35881 0.0
H73 H 0.50151 0.22386 0.32323 0.0
H74 H 0.54607 0.3448 0.49249 0.0
H75 H 0.49083 0.34275 0.52827 0.0
H76 H 0.70721 0.27913 0.95847 0.0
H77 H 0.6441 0.30944 0.96594 0.0
H78 H 0.58397 0.18371 0.83999 0.0
H79 H 0.64852 0.15245 0.83487 0.0
Dy80 Dy 0.09237 0.27085 0.95909 0.0
Dy81 Dy 0.10694 0.2594 0.79125 0.0
C82 C 0.1073 0.16843 0.8913 0.0
O83 O 0.15558 0.29716 0.99976 0.0
O84 O 0.16737 0.23674 0.92699 0.0
O85 O 0.11944 0.25527 0.10006 0.0
O86 O 0.05638 0.29938 0.01873 0.0
O87 O 0.10179 0.3373 0.82367 0.0
O88 O 0.06027 0.33788 0.88307 0.0
O89 O 0.03233 0.27227 0.71956 0.0
O90 O 0.03137 0.24492 0.83849 0.0
O91 O 0.15418 0.27911 0.76827 0.0
O92 O 0.10425 0.2361 0.66668 0.0
C93 C 0.18333 0.26923 0.98767 0.0
O94 O 0.11506 0.19519 0.96018 0.0
O95 O 0.09872 0.18579 0.81462 0.0
C96 C 0.06262 0.24605 0.12019 0.0
C97 C 1.0046 0.198 0.13237 0.0
C98 C 1.0276 0.17601 0.09451 0.0
C99 C 0.05603 0.20015 0.08752 0.0
C100 C 0.04324 0.26613 0.16594 0.0
C101 C 1.01459 0.24212 0.17245 0.0
C102 C 0.08373 0.27535 0.09457 0.0
C103 C 0.07787 0.36037 0.85218 0.0
C104 C 1.01096 0.25728 0.75191 0.0
C105 C 0.16 0.2582 0.64028 0.0
C106 C 0.21393 0.2525 0.56908 0.0
C107 C 0.21446 0.28975 0.62544 0.0
C108 C 0.18805 0.29238 0.66057 0.0
C109 C 0.15759 0.22241 0.58032 0.0
C110 C 0.18436 0.2195 0.54566 0.0
C111 C 0.13917 0.25651 0.69242 0.0
H112 H 1.02216 0.14124 0.06644 0.0
H113 H 0.07088 0.18397 0.05216 0.0
H114 H 0.04802 0.30152 0.19151 0.0
H115 H 0.99767 0.25964 0.20287 0.0
H116 H 0.23687 0.31569 0.64711 0.0
H117 H 0.19114 0.32028 0.70718 0.0
H118 H 0.13681 0.19521 0.564 0.0
H119 H 0.18295 0.19035 0.50255 0.0
Dy120 Dy 0.58844 0.76918 0.94887 0.0
Dy121 Dy 0.59404 0.75819 0.76803 0.0
C122 C 0.59492 0.67074 0.87186 0.0
O123 O 0.65452 0.78753 0.99078 0.0
O124 O 0.66152 0.73861 0.89194 0.0
O125 O 0.58066 0.73872 0.0463 0.0
O126 O 0.59682 0.80987 0.06331 0.0
O127 O 0.60245 0.83283 0.82155 0.0
O128 O 0.5559 0.83536 0.86836 0.0
O129 O 0.52036 0.76956 0.70488 0.0
O130 O 0.51929 0.75879 0.83262 0.0
O131 O 0.58784 0.78818 0.65127 0.0
O132 O 0.61846 0.71648 0.69451 0.0
C133 C 0.67907 0.76385 0.96528 0.0
O134 O 0.61588 0.69582 0.94479 0.0
O135 O 0.57655 0.69004 0.79054 0.0
C136 C 0.54717 0.79503 0.10096 0.0
C137 C 0.47382 0.83277 0.10859 0.0
C138 C 0.47303 0.79061 0.06279 0.0
C139 C 0.50932 0.77189 0.05942 0.0
C140 C 0.54853 0.8365 0.14849 0.0
C141 C 0.51203 0.85537 0.15175 0.0
C142 C 0.58364 0.77817 0.08918 0.0
C143 C 0.57797 0.85729 0.8475 0.0
C144 C 0.49904 0.76452 0.74372 0.0
C145 C 0.6452 0.75861 0.627 0.0
C146 C 0.71236 0.77168 0.59769 0.0
C147 C 0.70852 0.79708 0.66445 0.0
C148 C 0.67562 0.7905 0.67932 0.0
C149 C 0.6487 0.73332 0.56016 0.0
C150 C 0.68167 0.73969 0.54548 0.0
C151 C 0.60961 0.75113 0.64031 0.0
H152 H 0.44381 0.77282 0.02574 0.0
H153 H 0.50695 0.74008 0.02147 0.0
H154 H 0.57733 0.85503 0.18083 0.0
H155 H 0.51332 0.88811 0.18658 0.0
H156 H 0.73147 0.82187 0.70628 0.0
H157 H 0.67403 0.81031 0.73179 0.0
H158 H 0.62566 0.70854 0.5187 0.0
H159 H 0.68245 0.71964 0.49254 0.0
H160 H 0.09674 0.43074 0.853 0.0
C161 C 0.07812 0.41173 0.86865 0.0
H162 H 0.04224 0.41406 0.93021 0.0
H163 H 0.16674 0.57299 0.18703 0.0
H164 H 0.22926 0.51177 0.23761 0.0
H165 H 0.21907 0.43511 0.16216 0.0
H166 H 0.14672 0.41943 0.03523 0.0
C167 C 0.06133 0.43291 0.91557 0.0
C168 C 0.06904 0.48079 0.9551 0.0
C169 C 0.11174 0.48907 0.03063 0.0
C170 C 0.11752 0.53301 0.07554 0.0
C171 C 0.16051 0.54041 0.15023 0.0
C172 C 0.19667 0.50548 0.18034 0.0
C173 C 0.19093 0.46234 0.13783 0.0
C174 C 0.14907 0.45392 0.06434 0.0
H175 H 0.0556 0.61744 0.15409 0.0
C176 C 0.07364 0.63657 0.13708 0.0
H177 H 0.10692 0.63519 0.07012 0.0
H178 H 0.983 0.47654 0.81389 0.0
H179 H 0.92049 0.53782 0.76375 0.0
H180 H 0.93064 0.61403 0.84089 0.0
H181 H 1.00303 0.62935 0.96865 0.0
C182 C 0.08841 0.61619 0.08609 0.0
C183 C 0.08062 0.56834 0.04668 0.0
C184 C 0.03794 0.56004 0.97141 0.0
C185 C 0.03216 0.51619 0.92615 0.0
C186 C 0.9892 0.50899 0.85111 0.0
C187 C 0.95306 0.54395 0.82129 0.0
C188 C 0.95877 0.58686 0.86467 0.0
C189 C 1.00061 0.5951 0.93846 0.0
H190 H 0.59365 0.43826 0.18967 0.0
C191 C 0.57327 0.41815 0.12967 0.0
H192 H 0.53946 0.41384 0.98655 0.0
H193 H 0.5491 0.64237 0.01123 0.0
H194 H 0.50367 0.64798 0.07222 0.0
H195 H 0.48759 0.57657 0.11257 0.0
H196 H 0.51715 0.49908 0.09286 0.0
C197 C 0.55819 0.43504 0.04597 0.0
C198 C 0.57065 0.47891 0.02941 0.0
C199 C 0.55317 0.52405 0.04134 0.0
C200 C 0.56225 0.56535 0.01734 0.0
C201 C 0.54385 0.60988 0.02926 0.0
C202 C 0.51745 0.61363 0.06373 0.0
C203 C 0.5084 0.57343 0.08644 0.0
C204 C 0.52576 0.52911 0.07513 0.0
H205 H 0.56748 0.60274 0.82187 0.0
C206 C 0.58735 0.62272 0.88245 0.0
H207 H 0.61987 0.62666 0.02532 0.0
H208 H 0.60963 0.39827 0.99769 0.0
H209 H 0.655 0.3927 0.93649 0.0
H210 H 0.67135 0.46408 0.89684 0.0
H211 H 0.64211 0.54155 0.91727 0.0
C212 C 0.60151 0.60562 0.96544 0.0
C213 C 0.58856 0.56174 0.98066 0.0
C214 C 0.60595 0.5166 0.96849 0.0
C215 C 0.5968 0.47529 0.99233 0.0
C216 C 0.61501 0.43076 0.97997 0.0
C217 C 0.64135 0.42702 0.94536 0.0
C218 C 0.65055 0.46723 0.92302 0.0
C219 C 0.63336 0.51154 0.93473 0.0
H220 H 0.60493 0.92472 0.8654 0.0
C221 C 0.58284 0.90743 0.87353 0.0
H222 H 0.54336 0.91163 0.92699 0.0
H223 H 0.63535 0.05482 0.23646 0.0
H224 H 0.65989 0.98191 0.32292 0.0
H225 H 0.64588 0.90576 0.24556 0.0
H226 H 0.60799 0.90206 0.08163 0.0
C227 C 0.56404 0.92982 0.91587 0.0
C228 C 0.57493 0.9762 0.96159 0.0
C229 C 0.59682 0.97817 0.05788 0.0
C230 C 0.60437 0.02227 0.10259 0.0
C231 C 0.62775 0.0226 0.19882 0.0
C232 C 0.64226 0.98093 0.24942 0.0
C233 C 0.63442 0.93806 0.20592 0.0
C234 C 0.6123 0.93646 0.11152 0.0
H235 H 0.56102 0.11526 0.15082 0.0
C236 C 0.58225 0.13305 0.14079 0.0
H237 H 0.62008 0.12986 0.08377 0.0
H238 H 0.52946 0.98592 0.7763 0.0
H239 H 0.50371 0.05888 0.68945 0.0
H240 H 0.51645 0.13515 0.76634 0.0
H241 H 0.55499 0.1389 0.93052 0.0
C242 C 0.60025 0.11116 0.09658 0.0
C243 C 0.58942 0.0647 0.05099 0.0
C244 C 0.56724 0.06274 0.95462 0.0
C245 C 0.55994 1.01862 0.91 0.0
C246 C 0.53661 1.01822 0.81378 0.0
C247 C 0.52144 0.05991 0.76297 0.0
C248 C 0.52865 0.10284 0.80626 0.0
C249 C 0.55109 0.10447 0.90075 0.0
H250 H 0.09359 0.94103 0.19977 0.0
C251 C 0.0723 0.92235 0.13826 0.0
H252 H 0.03732 0.9209 0.99462 0.0
H253 H 1.02775 0.12623 0.88938 0.0
H254 H 0.95179 0.12495 0.8411 0.0
H255 H 0.93069 0.05849 0.88352 0.0
H256 H 0.98568 0.99288 0.97507 0.0
C257 C 0.05955 0.9391 0.05603 0.0
C258 C 0.07411 0.98168 0.04132 0.0
C259 C 0.04157 1.01959 0.98635 0.0
C260 C 0.05376 0.05789 0.96141 0.0
C261 C 1.02053 0.09578 0.909 0.0
C262 C 0.97665 0.09561 0.88091 0.0
C263 C 0.96477 0.0582 0.90481 0.0
C264 C 0.99668 0.02065 0.95706 0.0
H265 H 0.08748 0.09752 0.83883 0.0
C266 C 0.10324 0.11853 0.89962 0.0
H267 H 0.1298 0.12255 0.04085 0.0
H268 H 0.14504 0.91332 0.1415 0.0
H269 H 0.22132 0.91619 0.19452 0.0
H270 H 0.24256 0.98307 0.15347 0.0
H271 H 0.18713 0.04813 0.05961 0.0
C272 C 0.11293 0.10195 0.97971 0.0
C273 C 0.09863 0.05827 0.99096 0.0
C274 C 0.13119 0.02046 0.04609 0.0
C275 C 0.11898 0.98197 0.07061 0.0
C276 C 0.15227 0.94419 0.12314 0.0
C277 C 0.19635 0.94513 0.15346 0.0
C278 C 0.20829 0.98285 0.13048 0.0
C279 C 0.17621 1.02002 0.07697 0.0
H280 H 0.43405 0.76168 0.72258 0.0
C281 C 0.44999 0.76546 0.68716 0.0
H282 H 0.43951 0.77609 0.55912 0.0
H283 H 0.25393 0.69621 0.45694 0.0
H284 H 0.30148 0.62391 0.53364 0.0
H285 H 0.38274 0.61824 0.61257 0.0
H286 H 0.41698 0.68489 0.6157 0.0
C287 C 0.42447 0.77078 0.59565 0.0
C288 C 0.37481 0.77284 0.54253 0.0
C289 C 0.35502 0.73329 0.54006 0.0
C290 C 0.3079 0.73635 0.49303 0.0
C291 C 0.28938 0.69614 0.49191 0.0
C292 C 0.31628 0.65425 0.53537 0.0
C293 C 0.36204 0.65107 0.5799 0.0
C294 C 0.38131 0.68985 0.58194 0.0
H295 H 0.21678 0.79327 0.2682 0.0
C296 C 0.20301 0.78755 0.3071 0.0
H297 H 0.21756 0.77417 0.43753 0.0
H298 H 0.40107 0.85401 0.52708 0.0
H299 H 0.35354 0.92599 0.44806 0.0
H300 H 0.27239 0.93232 0.37143 0.0
H301 H 0.23814 0.86657 0.37192 0.0
C302 C 0.2307 0.78116 0.39812 0.0
C303 C 0.28022 0.77864 0.44666 0.0
C304 C 0.29999 0.81799 0.44783 0.0
C305 C 0.34712 0.81477 0.49441 0.0
C306 C 0.36565 0.85445 0.49328 0.0
C307 C 0.33875 0.89609 0.44836 0.0
C308 C 0.29305 0.89961 0.40499 0.0
C309 C 0.27376 0.86133 0.40511 0.0
H310 H 0.24959 0.21014 0.51376 0.0
C311 C 0.24584 0.2446 0.53962 0.0
H312 H 0.26815 0.31144 0.57045 0.0
H313 H 0.45629 0.25685 0.6375 0.0
H314 H 0.47525 0.27463 0.79 0.0
H315 H 0.41744 0.28909 0.82259 0.0
H316 H 0.34013 0.28545 0.7028 0.0
C317 C 0.27081 0.27675 0.54475 0.0
C318 C 0.30587 0.266 0.52372 0.0
C319 C 0.35104 0.26966 0.59362 0.0
C320 C 0.38452 0.26248 0.57432 0.0
C321 C 0.42935 0.26391 0.64712 0.0
C322 C 0.44082 0.27358 0.7354 0.0
C323 C 0.40825 0.28164 0.75377 0.0
C324 C 0.36393 0.27959 0.68417 0.0
H325 H 0.42354 0.31603 0.49842 0.0
C326 C 0.43002 0.2834 0.47069 0.0
H327 H 0.41297 0.2145 0.43426 0.0
H328 H 0.22297 0.25864 0.37119 0.0
H329 H 0.20489 0.23668 0.22085 0.0
H330 H 0.26291 0.22138 0.18916 0.0
H331 H 0.3396 0.22883 0.30733 0.0
C332 C 0.40753 0.2477 0.46151 0.0
C333 C 0.373 0.25282 0.48422 0.0
C334 C 0.32818 0.24726 0.41519 0.0
C335 C 0.2946 0.25466 0.43432 0.0
C336 C 0.25002 0.2516 0.362 0.0
C337 C 0.23902 0.23948 0.27488 0.0
C338 C 0.27173 0.23094 0.25699 0.0
C339 C 0.31571 0.23518 0.32571 0.0
H340 H 0.94867 0.23656 0.72234 0.0
C341 C 0.96252 0.25363 0.6925 0.0
H342 H 0.94747 0.28931 0.57587 0.0
H343 H 0.76464 0.20744 0.30663 0.0
H344 H 0.80938 0.16978 0.25322 0.0
H345 H 0.88902 0.17774 0.33593 0.0
H346 H 0.92447 0.22314 0.47369 0.0
C347 C 0.93449 0.2726 0.60784 0.0
C348 C 0.88518 0.27032 0.55476 0.0
C349 C 0.86428 0.24496 0.47245 0.0
C350 C 0.8178 0.24149 0.42292 0.0
C351 C 0.79902 0.2133 0.34453 0.0
C352 C 0.82452 0.19093 0.31356 0.0
C353 C 0.86937 0.19533 0.36028 0.0
C354 C 0.88926 0.22166 0.43914 0.0
H355 H 0.72605 0.29307 0.28078 0.0
C356 C 0.71328 0.27872 0.31564 0.0
H357 H 0.72979 0.24809 0.4377 0.0
H358 H 0.91243 0.32629 0.70371 0.0
H359 H 0.86783 0.36335 0.75808 0.0
H360 H 0.78808 0.35601 0.67452 0.0
H361 H 0.75233 0.31201 0.53545 0.0
C362 C 0.74228 0.26207 0.40198 0.0
C363 C 0.79149 0.26474 0.45376 0.0
C364 C 0.81245 0.28998 0.53629 0.0
C365 C 0.85894 0.29331 0.58594 0.0
C366 C 0.87794 0.32081 0.66532 0.0
C367 C 0.85257 0.34278 0.69689 0.0
C368 C 0.80765 0.33874 0.64974 0.0
C369 C 0.78759 0.31309 0.57007 0.0
H370 H 0.89806 0.72997 0.40789 0.0
C371 C 0.91685 0.75887 0.44444 0.0
H372 H 0.92181 0.81562 0.53088 0.0
H373 H 0.72967 0.83583 0.44998 0.0
H374 H 0.72702 0.90724 0.3809 0.0
H375 H 0.78829 0.91976 0.36742 0.0
H376 H 0.85288 0.861 0.42346 0.0
C377 C 0.90564 0.78498 0.49699 0.0
C378 C 0.86809 0.77638 0.50493 0.0
C379 C 0.83071 0.81153 0.47409 0.0
C380 C 0.7954 0.80463 0.48328 0.0
C381 C 0.75795 0.83966 0.4477 0.0
C382 C 0.75576 0.88073 0.40695 0.0
C383 C 0.79029 0.88779 0.3994 0.0
C384 C 0.82727 0.85372 0.43211 0.0
H385 H 0.76769 0.80839 0.62318 0.0
C386 C 0.74854 0.77994 0.58524 0.0
H387 H 0.74328 0.72389 0.49727 0.0
H388 H 0.93648 0.70409 0.58253 0.0
H389 H 0.93939 0.63282 0.65264 0.0
H390 H 0.87727 0.61956 0.66281 0.0
H391 H 0.81236 0.67793 0.60524 0.0
C392 C 0.75978 0.75416 0.53245 0.0
C393 C 0.79752 0.76287 0.52523 0.0
C394 C 0.8349 0.72773 0.55608 0.0
C395 C 0.87034 0.73475 0.54741 0.0
C396 C 0.90804 0.70001 0.58409 0.0
C397 C 0.91032 0.65901 0.62519 0.0
C398 C 0.87542 0.6516 0.63125 0.0
C399 C 0.83823 0.68545 0.59764 0.0
H400 H 0.43009 0.89382 0.11197 0.0
C401 C 0.43385 0.85588 0.10478 0.0
H402 H 0.40514 0.79394 0.0865 0.0
H403 H 0.25373 0.85615 0.13856 0.0
H404 H 0.3087 0.81952 0.2862 0.0
H405 H 0.38725 0.80087 0.33746 0.0
H406 H 0.41084 0.81761 0.2391 0.0
C407 C 0.40097 0.83209 0.08672 0.0
C408 C 0.35767 0.8558 0.06687 0.0
C409 C 0.34493 0.84804 0.12672 0.0
C410 C 0.30004 0.86041 0.09858 0.0
C411 C 0.28759 0.84907 0.15728 0.0
C412 C 0.31887 0.82784 0.2424 0.0
C413 C 0.36304 0.81713 0.27101 0.0
C414 C 0.37608 0.82679 0.21391 0.0
H415 H 0.2094 0.83734 0.87071 0.0
C416 C 0.19514 0.85694 0.90506 0.0
H417 H 0.20866 0.90264 0.01396 0.0
H418 H 0.37114 0.87786 0.93561 0.0
H419 H 0.31745 0.92047 0.79376 0.0
H420 H 0.24126 0.94824 0.75186 0.0
H421 H 0.21822 0.93229 0.85151 0.0
C422 C 0.22036 0.88469 0.97423 0.0
C423 C 0.26838 0.88172 0.01146 0.0
C424 C 0.28222 0.89419 0.95601 0.0
C425 C 0.32669 0.88008 0.9824 0.0
C426 C 0.33842 0.88921 0.92136 0.0
C427 C 0.30777 0.91352 0.83917 0.0
C428 C 0.26484 0.92903 0.81543 0.0
C429 C 0.252 0.91948 0.87286 0.0
H430 H 0.23149 0.31927 0.0295 0.0
C431 C 0.22678 0.28243 0.01724 0.0
H432 H 0.2524 0.21397 1.00621 0.0
H433 H 0.36384 0.26537 0.86336 0.0
H434 H 0.31233 0.21776 0.74325 0.0
H435 H 0.25264 0.19105 0.74783 0.0
H436 H 0.24297 0.2135 0.86988 0.0
C437 C 0.25797 0.25061 0.01842 0.0
C438 C 0.29654 0.26411 0.021 0.0
C439 C 0.30163 0.25067 0.94827 0.0
C440 C 0.33738 0.2641 0.94764 0.0
C441 C 0.33942 0.25327 0.87074 0.0
C442 C 0.30956 0.22658 0.80039 0.0
C443 C 0.27588 0.21169 0.80282 0.0
C444 C 0.27106 0.22451 0.87426 0.0
H445 H 0.43059 0.23153 1.00289 0.0
C446 C 0.43831 0.26715 0.02276 0.0
H447 H 0.41815 0.3355 0.04606 0.0
H448 H 0.29944 0.29186 0.17534 0.0
H449 H 0.35319 0.33575 0.29917 0.0
H450 H 0.41593 0.35781 0.29985 0.0
H451 H 0.42563 0.3352 0.17815 0.0
C452 C 0.40936 0.30014 0.02685 0.0
C453 C 0.36964 0.28861 0.02228 0.0
C454 C 0.36481 0.30162 0.09557 0.0
C455 C 0.3283 0.28938 0.09487 0.0
C456 C 0.32537 0.30154 0.17034 0.0
C457 C 0.35637 0.32642 0.24268 0.0
C458 C 0.39168 0.33876 0.24311 0.0
C459 C 0.3965 0.3259 0.17169 0.0
H460 H 0.72104 0.16534 0.85349 0.0
C461 C 0.7241 0.1912 0.90368 0.0
H462 H 0.76871 0.22392 0.02576 0.0
H463 H 0.94537 0.09589 0.16231 0.0
H464 H 0.92526 0.06632 0.2584 0.0
H465 H 0.84991 0.08813 0.22542 0.0
H466 H 0.79424 0.13956 0.09635 0.0
C467 C 0.76455 0.20158 0.97028 0.0
C468 C 0.80572 0.18049 0.97703 0.0
C469 C 0.83745 0.14978 0.05155 0.0
C470 C 0.88083 0.13733 0.07081 0.0
C471 C 0.91214 0.10694 0.146 0.0
C472 C 0.90094 0.08956 0.20115 0.0
C473 C 0.8585 0.10182 0.18252 0.0
C474 C 0.82696 0.13153 0.10862 0.0
H475 H 0.95344 0.19561 0.16049 0.0
C476 C 0.96586 0.17975 0.12017 0.0
H477 H 0.94943 0.13999 1.00287 0.0
H478 H 0.75155 0.23738 0.8241 0.0
H479 H 0.77087 0.26352 0.7249 0.0
H480 H 0.84563 0.23995 0.75606 0.0
H481 H 0.90156 0.19055 0.88704 0.0
C482 C 0.93967 0.15392 0.04828 0.0
C483 C 0.89232 0.15584 0.01577 0.0
C484 C 0.85933 0.18272 0.9359 0.0
C485 C 0.81601 0.19566 0.91709 0.0
C486 C 0.78464 0.22546 0.84067 0.0
C487 C 0.79534 0.24096 0.78322 0.0
C488 C 0.83744 0.22776 0.80082 0.0
C489 C 0.86927 0.19927 0.87641 0.0
H490 H 0.92757 0.72668 0.99865 0.0
C491 C 0.93334 0.7631 0.01478 0.0
H492 H 0.90942 0.83147 0.03022 0.0
H493 H 0.74141 0.70049 0.86 0.0
H494 H 0.75087 0.68079 0.73705 0.0
H495 H 0.81005 0.70968 0.73365 0.0
H496 H 0.85981 0.75863 0.8531 0.0
C497 C 0.90278 0.79525 0.01459 0.0
C498 C 0.86425 0.78145 0.01094 0.0
C499 C 0.83358 0.75517 0.93744 0.0
C500 C 0.79891 0.73943 0.93879 0.0
C501 C 0.76899 0.71288 0.86449 0.0
C502 C 0.7738 0.70144 0.79263 0.0
C503 C 0.80705 0.71772 0.7906 0.0
C504 C 0.83596 0.74518 0.86072 0.0
H505 H 0.73221 0.80843 0.02537 0.0
C506 C 0.7249 0.77256 1.00697 0.0
H507 H 0.74645 0.70355 0.98927 0.0
H508 H 0.91666 0.83271 0.16269 0.0
H509 H 0.90711 0.85248 0.28563 0.0
H510 H 0.84852 0.82267 0.28997 0.0
H511 H 0.79899 0.77339 0.17068 0.0
C512 C 0.75469 0.73916 1.00719 0.0
C513 C 0.79411 0.75136 0.01232 0.0
C514 C 0.825 0.7773 0.08613 0.0
C515 C 0.85953 0.79323 0.08459 0.0
C516 C 0.88924 0.82009 0.15855 0.0
C517 C 0.88441 0.83151 0.23039 0.0
C518 C 0.85148 0.81475 0.23294 0.0
C519 C 0.82273 0.78709 0.16301 0.0
loop_
_geom_bond_atom_site_label_1
_geom_bond_atom_site_label_2
_geom_bond_distance
_geom_bond_site_symmetry_2
_ccdc_geom_bond_type
Dy0 O3 2.307 . S
Dy0 O5 2.395 . S
Dy0 O6 2.383 . S
Dy0 O8 2.339 . S
Dy0 O10 2.298 1_455 S
Dy0 O14 2.275 . S
Dy0 C22 2.738 1_455 S
Dy1 O4 2.298 . S
Dy1 O7 2.275 . S
Dy1 O9 2.307 1_455 S
Dy1 O11 2.395 . S
Dy1 O12 2.379 . S
Dy1 O15 2.339 . S
Dy1 C31 2.738 . S
C2 O14 1.254 . S
C2 O15 1.257 . S
O3 Dy0 2.307 . S
O3 C13 1.266 . S
O4 Dy1 2.298 . S
O4 C13 1.236 . S
O5 Dy0 2.395 . S
O5 C22 1.255 1_455 S
O6 Dy0 2.383 . S
O6 C22 1.247 1_455 S
O7 Dy1 2.275 . S
O7 C23 1.254 . S
O8 Dy0 2.339 . S
O8 C23 1.257 . S
O9 Dy1 2.307 1_655 S
O9 C24 1.266 . S
O10 Dy0 2.298 1_655 S
O10 C24 1.236 . S
O11 Dy1 2.395 . S
O11 C31 1.255 . S
O12 Dy1 2.379 . S
O12 C31 1.249 . S
C13 O3 1.266 . S
C13 O4 1.236 . S
O14 Dy0 2.275 . S
O14 C2 1.254 . S
O15 Dy1 2.339 . S
O15 C2 1.257 . S
C16 C19 1.344 . S
C16 C20 1.328 . S
C16 C22 1.516 . S
C17 C18 1.304 . S
C17 C21 1.323 . S
C18 C17 1.304 . S
C18 C19 1.371 . S
C18 H32 0.930 . S
C19 C16 1.344 . S
C19 C18 1.371 . S
C19 H33 0.931 . S
C20 C16 1.328 . S
C20 C21 1.433 . S
C20 H34 0.931 . S
C21 C17 1.323 . S
C21 C20 1.433 . S
C21 H35 0.933 . S
C22 Dy0 2.738 1_655 S
C22 O5 1.255 1_655 S
C22 O6 1.247 1_655 S
C22 C16 1.516 . S
C23 O7 1.254 . S
C23 O8 1.257 . S
C24 O9 1.266 . S
C24 O10 1.236 . S
C25 C28 1.344 1_556 S
C25 C29 1.328 . S
C25 C31 1.516 1_556 S
C26 C27 1.304 . S
C26 C30 1.323 . S
C27 C26 1.304 . S
C27 C28 1.371 1_556 S
C27 H36 0.930 . S
C28 C25 1.344 1_554 S
C28 C27 1.371 1_554 S
C28 H37 0.931 . S
C29 C25 1.328 . S
C29 C30 1.433 . S
C29 H38 0.931 . S
C30 C26 1.323 . S
C30 C29 1.433 . S
C30 H39 0.933 . S
C31 Dy1 2.738 . S
C31 O11 1.255 . S
C31 O12 1.249 . S
C31 C25 1.516 1_554 S
H32 C18 0.930 . S
H33 C19 0.931 . S
H34 C20 0.931 . S
H35 C21 0.933 . S
H36 C27 0.930 . S
H37 C28 0.931 . S
H38 C29 0.931 . S
H39 C30 0.933 . S
Dy40 O43 2.307 . S
Dy40 O45 2.395 . S
Dy40 O46 2.379 . S
Dy40 O48 2.339 . S
Dy40 O50 2.298 . S
Dy40 O54 2.275 . S
Dy40 C62 2.738 . S
Dy41 O44 2.298 . S
Dy41 O47 2.275 . S
Dy41 O49 2.307 . S
Dy41 O51 2.395 . S
Dy41 O52 2.379 . S
Dy41 O55 2.339 . S
Dy41 C71 2.738 . S
C42 O54 1.254 . S
C42 O55 1.257 . S
O43 Dy40 2.307 . S
O43 C53 1.266 . S
O44 Dy41 2.298 . S
O44 C53 1.236 . S
O45 Dy40 2.395 . S
O45 C62 1.255 . S
O46 Dy40 2.379 . S
O46 C62 1.249 . S
O47 Dy41 2.275 . S
O47 C63 1.254 . S
O48 Dy40 2.339 . S
O48 C63 1.257 . S
O49 Dy41 2.307 . S
O49 C64 1.266 . S
O50 Dy40 2.298 . S
O50 C64 1.236 . S
O51 Dy41 2.395 . S
O51 C71 1.255 . S
O52 Dy41 2.379 . S
O52 C71 1.249 . S
C53 O43 1.266 . S
C53 O44 1.236 . S
O54 Dy40 2.275 . S
O54 C42 1.254 . S
O55 Dy41 2.339 . S
O55 C42 1.257 . S
C56 C59 1.344 . S
C56 C60 1.328 . S
C56 C62 1.516 . S
C57 C58 1.304 . S
C57 C61 1.323 . S
C58 C57 1.304 . S
C58 C59 1.371 . S
C58 H72 0.930 . S
C59 C56 1.344 . S
C59 C58 1.371 . S
C59 H73 0.931 . S
C60 C56 1.328 . S
C60 C61 1.433 . S
C60 H74 0.931 . S
C61 C57 1.323 . S
C61 C60 1.433 . S
C61 H75 0.933 . S
C62 Dy40 2.738 . S
C62 O45 1.255 . S
C62 O46 1.249 . S
C62 C56 1.516 . S
C63 O47 1.254 . S
C63 O48 1.257 . S
C64 O49 1.266 . S
C64 O50 1.236 . S
C65 C68 1.344 1_556 S
C65 C69 1.328 . S
C65 C71 1.516 1_556 S
C66 C67 1.304 . S
C66 C70 1.323 . S
C67 C66 1.304 . S
C67 C68 1.371 1_556 S
C67 H76 0.930 . S
C68 C65 1.344 1_554 S
C68 C67 1.371 1_554 S
C68 H77 0.931 . S
C69 C65 1.328 . S
C69 C70 1.433 . S
C69 H78 0.931 . S
C70 C66 1.323 . S
C70 C69 1.433 . S
C70 H79 0.933 . S
C71 Dy41 2.738 . S
C71 O51 1.255 . S
C71 O52 1.249 . S
C71 C65 1.516 1_554 S
H72 C58 0.930 . S
H73 C59 0.931 . S
H74 C60 0.931 . S
H75 C61 0.933 . S
H76 C67 0.930 . S
H77 C68 0.931 . S
H78 C69 0.931 . S
H79 C70 0.933 . S
Dy80 O83 2.307 . S
Dy80 O85 2.395 . S
Dy80 O86 2.379 . S
Dy80 O88 2.339 . S
Dy80 O90 2.298 1_455 S
Dy80 O94 2.275 . S
Dy80 C102 2.736 . S
Dy81 O84 2.298 . S
Dy81 O87 2.275 . S
Dy81 O89 2.307 1_455 S
Dy81 O91 2.395 . S
Dy81 O92 2.379 . S
Dy81 O95 2.339 . S
Dy81 C111 2.738 . S
C82 O94 1.254 . S
C82 O95 1.257 . S
O83 Dy80 2.307 . S
O83 C93 1.266 . S
O84 Dy81 2.298 . S
O84 C93 1.236 . S
O85 Dy80 2.395 . S
O85 C102 1.255 . S
O86 Dy80 2.379 . S
O86 C102 1.249 . S
O87 Dy81 2.275 . S
O87 C103 1.254 . S
O88 Dy80 2.339 . S
O88 C103 1.257 . S
O89 Dy81 2.307 1_655 S
O89 C104 1.266 . S
O90 Dy80 2.298 1_655 S
O90 C104 1.236 . S
O91 Dy81 2.395 . S
O91 C111 1.255 . S
O92 Dy81 2.379 . S
O92 C111 1.249 . S
C93 O83 1.266 . S
C93 O84 1.236 . S
O94 Dy80 2.275 . S
O94 C82 1.254 . S
O95 Dy81 2.339 . S
O95 C82 1.257 . S
C96 C99 1.344 1_554 S
C96 C100 1.328 . S
C96 C102 1.517 1_654 S
C97 C98 1.304 . S
C97 C101 1.323 . S
C98 C97 1.304 . S
C98 C99 1.371 1_554 S
C98 H112 0.930 . S
C99 C96 1.344 1_556 S
C99 C98 1.371 1_556 S
C99 H113 0.931 . S
C100 C96 1.328 . S
C100 C101 1.433 . S
C100 H114 0.931 . S
C101 C97 1.323 . S
C101 C100 1.433 . S
C101 H115 0.933 . S
C102 Dy80 2.736 . S
C102 O85 1.255 . S
C102 O86 1.249 . S
C102 C96 1.517 1_456 S
C103 O87 1.254 . S
C103 O88 1.257 . S
C104 O89 1.266 . S
C104 O90 1.236 . S
C105 C108 1.344 . S
C105 C109 1.328 . S
C105 C111 1.516 . S
C106 C107 1.304 . S
C106 C110 1.323 . S
C107 C106 1.304 . S
C107 C108 1.371 . S
C107 H116 0.930 . S
C108 C105 1.344 . S
C108 C107 1.371 . S
C108 H117 0.931 . S
C109 C105 1.328 . S
C109 C110 1.433 . S
C109 H118 0.931 . S
C110 C106 1.323 . S
C110 C109 1.433 . S
C110 H119 0.933 . S
C111 Dy81 2.738 . S
C111 O91 1.255 . S
C111 O92 1.249 . S
C111 C105 1.516 . S
H112 C98 0.930 . S
H113 C99 0.931 . S
H114 C100 0.931 . S
H115 C101 0.933 . S
H116 C107 0.930 . S
H117 C108 0.931 . S
H118 C109 0.931 . S
H119 C110 0.933 . S
Dy120 O123 2.307 . S
Dy120 O125 2.395 . S
Dy120 O126 2.379 . S
Dy120 O128 2.339 . S
Dy120 O130 2.298 . S
Dy120 O134 2.275 . S
Dy120 C142 2.738 . S
Dy121 O124 2.298 . S
Dy121 O127 2.275 . S
Dy121 O129 2.307 . S
Dy121 O131 2.395 . S
Dy121 O132 2.379 . S
Dy121 O135 2.339 . S
Dy121 C151 2.738 . S
C122 O134 1.254 . S
C122 O135 1.257 . S
O123 Dy120 2.307 . S
O123 C133 1.266 . S
O124 Dy121 2.298 . S
O124 C133 1.236 . S
O125 Dy120 2.395 . S
O125 C142 1.255 . S
O126 Dy120 2.379 . S
O126 C142 1.249 . S
O127 Dy121 2.275 . S
O127 C143 1.254 . S
O128 Dy120 2.339 . S
O128 C143 1.257 . S
O129 Dy121 2.307 . S
O129 C144 1.266 . S
O130 Dy120 2.298 . S
O130 C144 1.236 . S
O131 Dy121 2.395 . S
O131 C151 1.255 . S
O132 Dy121 2.379 . S
O132 C151 1.249 . S
C133 O123 1.266 . S
C133 O124 1.236 . S
O134 Dy120 2.275 . S
O134 C122 1.254 . S
O135 Dy121 2.339 . S
O135 C122 1.257 . S
C136 C139 1.344 1_554 S
C136 C140 1.328 . S
C136 C142 1.516 1_554 S
C137 C138 1.304 . S
C137 C141 1.323 . S
C138 C137 1.304 . S
C138 C139 1.371 1_554 S
C138 H152 0.930 . S
C139 C136 1.344 1_556 S
C139 C138 1.371 1_556 S
C139 H153 0.931 . S
C140 C136 1.328 . S
C140 C141 1.433 . S
C140 H154 0.931 . S
C141 C137 1.323 . S
C141 C140 1.433 . S
C141 H155 0.933 . S
C142 Dy120 2.738 . S
C142 O125 1.255 . S
C142 O126 1.249 . S
C142 C136 1.516 1_556 S
C143 O127 1.254 . S
C143 O128 1.257 . S
C144 O129 1.266 . S
C144 O130 1.236 . S
C145 C148 1.344 . S
C145 C149 1.328 . S
C145 C151 1.516 . S
C146 C147 1.304 . S
C146 C150 1.323 . S
C147 C146 1.304 . S
C147 C148 1.371 . S
C147 H156 0.930 . S
C148 C145 1.344 . S
C148 C147 1.371 . S
C148 H157 0.931 . S
C149 C145 1.328 . S
C149 C150 1.433 . S
C149 H158 0.931 . S
C150 C146 1.323 . S
C150 C149 1.433 . S
C150 H159 0.933 . S
C151 Dy121 2.738 . S
C151 O131 1.255 . S
C151 O132 1.249 . S
C151 C145 1.516 . S
H152 C138 0.930 . S
H153 C139 0.931 . S
H154 C140 0.931 . S
H155 C141 0.933 . S
H156 C147 0.930 . S
H157 C148 0.931 . S
H158 C149 0.931 . S
H159 C150 0.933 . S
H160 C161 0.951 . S
C161 H160 0.951 . S
C161 C167 1.265 . S
H162 C167 0.950 . S
H163 C171 0.949 . S
H164 C172 0.950 . S
H165 C173 0.951 . S
H166 C174 0.951 . S
C167 C161 1.265 . S
C167 H162 0.950 . S
C167 C168 1.478 . S
C168 C167 1.478 . S
C168 C169 1.397 . S
C168 C185 1.394 1_556 S
C169 C168 1.397 . S
C169 C170 1.438 . S
C169 C174 1.429 . S
C170 C169 1.438 . S
C170 C171 1.428 . S
C170 C183 1.394 1_556 S
C171 H163 0.949 . S
C171 C170 1.428 . S
C171 C172 1.345 . S
C172 H164 0.950 . S
C172 C171 1.345 . S
C172 C173 1.424 . S
C173 H165 0.951 . S
C173 C172 1.424 . S
C173 C174 1.347 . S
C174 H166 0.951 . S
C174 C169 1.429 . S
C174 C173 1.347 . S
H175 C176 0.951 . S
C176 H175 0.951 . S
C176 C182 1.265 . S
H177 C182 0.950 . S
H178 C186 0.949 . S
H179 C187 0.950 . S
H180 C188 0.951 . S
H181 C189 0.951 . S
C182 C176 1.265 . S
C182 H177 0.950 . S
C182 C183 1.478 . S
C183 C170 1.394 1_554 S
C183 C182 1.478 . S
C183 C184 1.397 . S
C184 C183 1.397 . S
C184 C185 1.438 . S
C184 C189 1.429 . S
C185 C168 1.394 1_554 S
C185 C184 1.438 . S
C185 C186 1.428 . S
C186 H178 0.949 . S
C186 C185 1.428 . S
C186 C187 1.345 . S
C187 H179 0.950 . S
C187 C186 1.345 . S
C187 C188 1.424 . S
C188 H180 0.951 . S
C188 C187 1.424 . S
C188 C189 1.347 . S
C189 H181 0.951 . S
C189 C184 1.429 . S
C189 C188 1.347 . S
H190 C191 0.951 . S
C191 H190 0.951 . S
C191 C197 1.265 . S
H192 C197 0.950 . S
H193 C201 0.949 . S
H194 C202 0.950 . S
H195 C203 0.951 . S
H196 C204 0.951 . S
C197 C191 1.265 . S
C197 H192 0.950 . S
C197 C198 1.478 . S
C198 C197 1.478 . S
C198 C199 1.397 . S
C198 C215 1.394 1_554 S
C199 C198 1.397 . S
C199 C200 1.438 . S
C199 C204 1.429 . S
C200 C199 1.438 . S
C200 C201 1.428 . S
C200 C213 1.394 1_554 S
C201 H193 0.949 . S
C201 C200 1.428 . S
C201 C202 1.345 . S
C202 H194 0.950 . S
C202 C201 1.345 . S
C202 C203 1.424 . S
C203 H195 0.951 . S
C203 C202 1.424 . S
C203 C204 1.347 . S
C204 H196 0.951 . S
C204 C199 1.429 . S
C204 C203 1.347 . S
H205 C206 0.951 . S
C206 H205 0.951 . S
C206 C212 1.265 . S
H207 C212 0.950 . S
H208 C216 0.949 . S
H209 C217 0.950 . S
H210 C218 0.951 . S
H211 C219 0.951 . S
C212 C206 1.265 . S
C212 H207 0.950 . S
C212 C213 1.478 . S
C213 C200 1.394 1_556 S
C213 C212 1.478 . S
C213 C214 1.397 . S
C214 C213 1.397 . S
C214 C215 1.438 . S
C214 C219 1.429 . S
C215 C198 1.394 1_556 S
C215 C214 1.438 . S
C215 C216 1.428 . S
C216 H208 0.949 . S
C216 C215 1.428 . S
C216 C217 1.345 . S
C217 H209 0.950 . S
C217 C216 1.345 . S
C217 C218 1.424 . S
C218 H210 0.951 . S
C218 C217 1.424 . S
C218 C219 1.347 . S
C219 H211 0.951 . S
C219 C214 1.429 . S
C219 C218 1.347 . S
H220 C221 0.951 . S
C221 H220 0.951 . S
C221 C227 1.265 . S
H222 C227 0.950 . S
H223 C231 0.959 . S
H224 C232 0.950 . S
H225 C233 0.951 . S
H226 C234 0.951 . S
C227 C221 1.265 . S
C227 H222 0.950 . S
C227 C228 1.478 . S
C228 C227 1.478 . S
C228 C229 1.397 1_556 S
C228 C245 1.394 . S
C229 C228 1.397 1_554 S
C229 C230 1.438 1_565 S
C229 C234 1.429 . S
C230 C229 1.438 1_545 S
C230 C231 1.429 . S
C230 C243 1.394 . S
C231 H223 0.959 . S
C231 C230 1.429 . S
C231 C232 1.334 1_545 S
C232 H224 0.950 . S
C232 C231 1.334 1_565 S
C232 C233 1.424 . S
C233 H225 0.951 . S
C233 C232 1.424 . S
C233 C234 1.347 . S
C234 H226 0.951 . S
C234 C229 1.429 . S
C234 C233 1.347 . S
H235 C236 0.951 . S
C236 H235 0.951 . S
C236 C242 1.265 . S
H237 C242 0.950 . S
H238 C246 0.959 . S
H239 C247 0.950 . S
H240 C248 0.951 . S
H241 C249 0.951 . S
C242 C236 1.265 . S
C242 H237 0.950 . S
C242 C243 1.478 . S
C243 C230 1.394 . S
C243 C242 1.478 . S
C243 C244 1.397 1_554 S
C244 C243 1.397 1_556 S
C244 C245 1.438 1_545 S
C244 C249 1.429 . S
C245 C228 1.394 . S
C245 C244 1.438 1_565 S
C245 C246 1.429 . S
C246 H238 0.959 . S
C246 C245 1.429 . S
C246 C247 1.334 1_565 S
C247 H239 0.950 . S
C247 C246 1.334 1_545 S
C247 C248 1.424 . S
C248 H240 0.951 . S
C248 C247 1.424 . S
C248 C249 1.347 . S
C249 H241 0.951 . S
C249 C244 1.429 . S
C249 C248 1.347 . S
H250 C251 0.951 . S
C251 H250 0.951 . S
C251 C257 1.265 . S
H252 C257 0.950 1_655 S
H253 C261 0.949 1_556 S
H254 C262 0.950 1_655 S
H255 C263 0.951 . S
H256 C264 0.951 1_655 S
C257 C251 1.265 . S
C257 H252 0.950 1_455 S
C257 C258 1.478 . S
C258 C257 1.478 . S
C258 C259 1.397 1_565 S
C258 C275 1.394 1_554 S
C259 C258 1.397 1_545 S
C259 C260 1.438 . S
C259 C264 1.429 . S
C260 C259 1.438 . S
C260 C261 1.428 . S
C260 C273 1.394 1_554 S
C261 H253 0.949 1_554 S
C261 C260 1.428 . S
C261 C262 1.343 . S
C262 H254 0.950 1_455 S
C262 C261 1.343 . S
C262 C263 1.425 1_455 S
C263 H255 0.951 . S
C263 C262 1.425 1_655 S
C263 C264 1.347 1_655 S
C264 H256 0.951 1_455 S
C264 C259 1.429 . S
C264 C263 1.347 1_455 S
H265 C266 0.951 . S
C266 H265 0.951 . S
C266 C272 1.265 . S
H267 C272 0.950 . S
H268 C276 0.949 1_554 S
H269 C277 0.950 . S
H270 C278 0.951 . S
H271 C279 0.951 . S
C272 C266 1.265 . S
C272 H267 0.950 . S
C272 C273 1.478 . S
C273 C260 1.394 1_556 S
C273 C272 1.478 . S
C273 C274 1.397 1_545 S
C274 C273 1.397 1_565 S
C274 C275 1.438 . S
C274 C279 1.429 . S
C275 C258 1.394 1_556 S
C275 C274 1.438 . S
C275 C276 1.428 . S
C276 H268 0.949 1_556 S
C276 C275 1.428 . S
C276 C277 1.345 . S
C277 H269 0.950 . S
C277 C276 1.345 . S
C277 C278 1.424 . S
C278 H270 0.951 . S
C278 C277 1.424 . S
C278 C279 1.347 . S
C279 H271 0.951 . S
C279 C274 1.429 . S
C279 C278 1.347 . S
H280 C281 0.951 . S
C281 H280 0.951 . S
C281 C287 1.265 . S
H282 C287 0.950 . S
H283 C291 0.949 . S
H284 C292 0.950 . S
H285 C293 0.951 . S
H286 C294 0.951 . S
C287 C281 1.265 . S
C287 H282 0.950 . S
C287 C288 1.478 . S
C288 C287 1.478 . S
C288 C289 1.397 . S
C288 C305 1.394 . S
C289 C288 1.397 . S
C289 C290 1.438 . S
C289 C294 1.429 . S
C290 C289 1.438 . S
C290 C291 1.428 . S
C290 C303 1.394 . S
C291 H283 0.949 . S
C291 C290 1.428 . S
C291 C292 1.345 . S
C292 H284 0.950 . S
C292 C291 1.345 . S
C292 C293 1.424 . S
C293 H285 0.951 . S
C293 C292 1.424 . S
C293 C294 1.347 . S
C294 H286 0.951 . S
C294 C289 1.429 . S
C294 C293 1.347 . S
H295 C296 0.951 . S
C296 H295 0.951 . S
C296 C302 1.265 . S
H297 C302 0.950 . S
H298 C306 0.949 . S
H299 C307 0.950 . S
H300 C308 0.951 . S
H301 C309 0.951 . S
C302 C296 1.265 . S
C302 H297 0.950 . S
C302 C303 1.478 . S
C303 C290 1.394 . S
C303 C302 1.478 . S
C303 C304 1.397 . S
C304 C303 1.397 . S
C304 C305 1.438 . S
C304 C309 1.429 . S
C305 C288 1.394 . S
C305 C304 1.438 . S
C305 C306 1.428 . S
C306 H298 0.949 . S
C306 C305 1.428 . S
C306 C307 1.345 . S
C307 H299 0.950 . S
C307 C306 1.345 . S
C307 C308 1.424 . S
C308 H300 0.951 . S
C308 C307 1.424 . S
C308 C309 1.347 . S
C309 H301 0.951 . S
C309 C304 1.429 . S
C309 C308 1.347 . S
H310 C311 0.951 . S
C311 H310 0.951 . S
C311 C317 1.265 . S
H312 C317 0.950 . S
H313 C321 0.949 . S
H314 C322 0.950 . S
H315 C323 0.951 . S
H316 C324 0.951 . S
C317 C311 1.265 . S
C317 H312 0.950 . S
C317 C318 1.478 . S
C318 C317 1.478 . S
C318 C319 1.397 . S
C318 C335 1.394 . S
C319 C318 1.397 . S
C319 C320 1.438 . S
C319 C324 1.429 . S
C320 C319 1.438 . S
C320 C321 1.428 . S
C320 C333 1.394 . S
C321 H313 0.949 . S
C321 C320 1.428 . S
C321 C322 1.345 . S
C322 H314 0.950 . S
C322 C321 1.345 . S
C322 C323 1.424 . S
C323 H315 0.951 . S
C323 C322 1.424 . S
C323 C324 1.347 . S
C324 H316 0.951 . S
C324 C319 1.429 . S
C324 C323 1.347 . S
H325 C326 0.951 . S
C326 H325 0.951 . S
C326 C332 1.265 . S
H327 C332 0.950 . S
H328 C336 0.949 . S
H329 C337 0.950 . S
H330 C338 0.951 . S
H331 C339 0.951 . S
C332 C326 1.265 . S
C332 H327 0.950 . S
C332 C333 1.478 . S
C333 C320 1.394 . S
C333 C332 1.478 . S
C333 C334 1.397 . S
C334 C333 1.397 . S
C334 C335 1.438 . S
C334 C339 1.429 . S
C335 C318 1.394 . S
C335 C334 1.438 . S
C335 C336 1.428 . S
C336 H328 0.949 . S
C336 C335 1.428 . S
C336 C337 1.345 . S
C337 H329 0.950 . S
C337 C336 1.345 . S
C337 C338 1.424 . S
C338 H330 0.951 . S
C338 C337 1.424 . S
C338 C339 1.347 . S
C339 H331 0.951 . S
C339 C334 1.429 . S
C339 C338 1.347 . S
H340 C341 0.951 . S
C341 H340 0.951 . S
C341 C347 1.265 . S
H342 C347 0.950 . S
H343 C351 0.949 . S
H344 C352 0.950 . S
H345 C353 0.951 . S
H346 C354 0.951 . S
C347 C341 1.265 . S
C347 H342 0.950 . S
C347 C348 1.478 . S
C348 C347 1.478 . S
C348 C349 1.397 . S
C348 C365 1.394 . S
C349 C348 1.397 . S
C349 C350 1.438 . S
C349 C354 1.429 . S
C350 C349 1.438 . S
C350 C351 1.428 . S
C350 C363 1.394 . S
C351 H343 0.949 . S
C351 C350 1.428 . S
C351 C352 1.345 . S
C352 H344 0.950 . S
C352 C351 1.345 . S
C352 C353 1.424 . S
C353 H345 0.951 . S
C353 C352 1.424 . S
C353 C354 1.347 . S
C354 H346 0.951 . S
C354 C349 1.429 . S
C354 C353 1.347 . S
H355 C356 0.951 . S
C356 H355 0.951 . S
C356 C362 1.265 . S
H357 C362 0.950 . S
H358 C366 0.949 . S
H359 C367 0.950 . S
H360 C368 0.951 . S
H361 C369 0.951 . S
C362 C356 1.265 . S
C362 H357 0.950 . S
C362 C363 1.478 . S
C363 C350 1.394 . S
C363 C362 1.478 . S
C363 C364 1.397 . S
C364 C363 1.397 . S
C364 C365 1.438 . S
C364 C369 1.429 . S
C365 C348 1.394 . S
C365 C364 1.438 . S
C365 C366 1.428 . S
C366 H358 0.949 . S
C366 C365 1.428 . S
C366 C367 1.345 . S
C367 H359 0.950 . S
C367 C366 1.345 . S
C367 C368 1.424 . S
C368 H360 0.951 . S
C368 C367 1.424 . S
C368 C369 1.347 . S
C369 H361 0.951 . S
C369 C364 1.429 . S
C369 C368 1.347 . S
H370 C371 0.951 . S
C371 H370 0.951 . S
C371 C377 1.265 . S
H372 C377 0.950 . S
H373 C381 0.949 . S
H374 C382 0.950 . S
H375 C383 0.951 . S
H376 C384 0.951 . S
C377 C371 1.265 . S
C377 H372 0.950 . S
C377 C378 1.478 . S
C378 C377 1.478 . S
C378 C379 1.397 . S
C378 C395 1.394 . S
C379 C378 1.397 . S
C379 C380 1.438 . S
C379 C384 1.429 . S
C380 C379 1.438 . S
C380 C381 1.428 . S
C380 C393 1.394 . S
C381 H373 0.949 . S
C381 C380 1.428 . S
C381 C382 1.345 . S
C382 H374 0.950 . S
C382 C381 1.345 . S
C382 C383 1.424 . S
C383 H375 0.951 . S
C383 C382 1.424 . S
C383 C384 1.347 . S
C384 H376 0.951 . S
C384 C379 1.429 . S
C384 C383 1.347 . S
H385 C386 0.951 . S
C386 H385 0.951 . S
C386 C392 1.265 . S
H387 C392 0.950 . S
H388 C396 0.949 . S
H389 C397 0.950 . S
H390 C398 0.951 . S
H391 C399 0.951 . S
C392 C386 1.265 . S
C392 H387 0.950 . S
C392 C393 1.478 . S
C393 C380 1.394 . S
C393 C392 1.478 . S
C393 C394 1.397 . S
C394 C393 1.397 . S
C394 C395 1.438 . S
C394 C399 1.429 . S
C395 C378 1.394 . S
C395 C394 1.438 . S
C395 C396 1.428 . S
C396 H388 0.949 . S
C396 C395 1.428 . S
C396 C397 1.345 . S
C397 H389 0.950 . S
C397 C396 1.345 . S
C397 C398 1.424 . S
C398 H390 0.951 . S
C398 C397 1.424 . S
C398 C399 1.347 . S
C399 H391 0.951 . S
C399 C394 1.429 . S
C399 C398 1.347 . S
H400 C401 0.951 . S
C401 H400 0.951 . S
C401 C407 1.265 . S
H402 C407 0.950 . S
H403 C411 0.949 . S
H404 C412 0.950 . S
H405 C413 0.951 . S
H406 C414 0.951 . S
C407 C401 1.265 . S
C407 H402 0.950 . S
C407 C408 1.478 . S
C408 C407 1.478 . S
C408 C409 1.397 . S
C408 C425 1.394 1_554 S
C409 C408 1.397 . S
C409 C410 1.438 . S
C409 C414 1.429 . S
C410 C409 1.438 . S
C410 C411 1.428 . S
C410 C423 1.394 1_554 S
C411 H403 0.949 . S
C411 C410 1.428 . S
C411 C412 1.345 . S
C412 H404 0.950 . S
C412 C411 1.345 . S
C412 C413 1.424 . S
C413 H405 0.951 . S
C413 C412 1.424 . S
C413 C414 1.347 . S
C414 H406 0.951 . S
C414 C409 1.429 . S
C414 C413 1.347 . S
H415 C416 0.951 . S
C416 H415 0.951 . S
C416 C422 1.265 . S
H417 C422 0.950 . S
H418 C426 0.949 . S
H419 C427 0.950 . S
H420 C428 0.951 . S
H421 C429 0.951 . S
C422 C416 1.265 . S
C422 H417 0.950 . S
C422 C423 1.478 . S
C423 C410 1.394 1_556 S
C423 C422 1.478 . S
C423 C424 1.397 . S
C424 C423 1.397 . S
C424 C425 1.438 . S
C424 C429 1.429 . S
C425 C408 1.394 1_556 S
C425 C424 1.438 . S
C425 C426 1.428 . S
C426 H418 0.949 . S
C426 C425 1.428 . S
C426 C427 1.345 . S
C427 H419 0.950 . S
C427 C426 1.345 . S
C427 C428 1.424 . S
C428 H420 0.951 . S
C428 C427 1.424 . S
C428 C429 1.347 . S
C429 H421 0.951 . S
C429 C424 1.429 . S
C429 C428 1.347 . S
H430 C431 0.951 1_554 S
C431 H430 0.951 1_556 S
C431 C437 1.265 . S
H432 C437 0.950 . S
H433 C441 0.949 . S
H434 C442 0.950 . S
H435 C443 0.951 . S
H436 C444 0.951 . S
C437 C431 1.265 . S
C437 H432 0.950 . S
C437 C438 1.478 . S
C438 C437 1.478 . S
C438 C439 1.397 . S
C438 C455 1.394 1_556 S
C439 C438 1.397 . S
C439 C440 1.438 . S
C439 C444 1.429 . S
C440 C439 1.438 . S
C440 C441 1.428 . S
C440 C453 1.394 1_556 S
C441 H433 0.949 . S
C441 C440 1.428 . S
C441 C442 1.345 . S
C442 H434 0.950 . S
C442 C441 1.345 . S
C442 C443 1.424 . S
C443 H435 0.951 . S
C443 C442 1.424 . S
C443 C444 1.347 . S
C444 H436 0.951 . S
C444 C439 1.429 . S
C444 C443 1.347 . S
H445 C446 0.951 1_556 S
C446 H445 0.951 1_554 S
C446 C452 1.265 . S
H447 C452 0.950 . S
H448 C456 0.949 . S
H449 C457 0.950 . S
H450 C458 0.951 . S
H451 C459 0.951 . S
C452 C446 1.265 . S
C452 H447 0.950 . S
C452 C453 1.478 . S
C453 C440 1.394 1_554 S
C453 C452 1.478 . S
C453 C454 1.397 . S
C454 C453 1.397 . S
C454 C455 1.438 . S
C454 C459 1.429 . S
C455 C438 1.394 1_554 S
C455 C454 1.438 . S
C455 C456 1.428 . S
C456 H448 0.949 . S
C456 C455 1.428 . S
C456 C457 1.345 . S
C457 H449 0.950 . S
C457 C456 1.345 . S
C457 C458 1.424 . S
C458 H450 0.951 . S
C458 C457 1.424 . S
C458 C459 1.347 . S
C459 H451 0.951 . S
C459 C454 1.429 . S
C459 C458 1.347 . S
H460 C461 0.951 . S
C461 H460 0.951 . S
C461 C467 1.265 . S
H462 C467 0.950 1_554 S
H463 C471 0.949 . S
H464 C472 0.950 . S
H465 C473 0.951 . S
H466 C474 0.951 . S
C467 C461 1.265 . S
C467 H462 0.950 1_556 S
C467 C468 1.478 . S
C468 C467 1.478 . S
C468 C469 1.397 1_556 S
C468 C485 1.394 . S
C469 C468 1.397 1_554 S
C469 C470 1.438 . S
C469 C474 1.429 . S
C470 C469 1.438 . S
C470 C471 1.428 . S
C470 C483 1.394 . S
C471 H463 0.949 . S
C471 C470 1.428 . S
C471 C472 1.345 . S
C472 H464 0.950 . S
C472 C471 1.345 . S
C472 C473 1.424 . S
C473 H465 0.951 . S
C473 C472 1.424 . S
C473 C474 1.347 . S
C474 H466 0.951 . S
C474 C469 1.429 . S
C474 C473 1.347 . S
H475 C476 0.951 . S
C476 H475 0.951 . S
C476 C482 1.265 . S
H477 C482 0.950 1_556 S
H478 C486 0.949 . S
H479 C487 0.950 . S
H480 C488 0.951 . S
H481 C489 0.951 . S
C482 C476 1.265 . S
C482 H477 0.950 1_554 S
C482 C483 1.478 . S
C483 C470 1.394 . S
C483 C482 1.478 . S
C483 C484 1.397 1_554 S
C484 C483 1.397 1_556 S
C484 C485 1.438 . S
C484 C489 1.429 . S
C485 C468 1.394 . S
C485 C484 1.438 . S
C485 C486 1.428 . S
C486 H478 0.949 . S
C486 C485 1.428 . S
C486 C487 1.345 . S
C487 H479 0.950 . S
C487 C486 1.345 . S
C487 C488 1.424 . S
C488 H480 0.951 . S
C488 C487 1.424 . S
C488 C489 1.347 . S
C489 H481 0.951 . S
C489 C484 1.429 . S
C489 C488 1.347 . S
H490 C491 0.951 . S
C491 H490 0.951 . S
C491 C497 1.265 1_554 S
H492 C497 0.950 . S
H493 C501 0.949 . S
H494 C502 0.950 . S
H495 C503 0.951 . S
H496 C504 0.951 . S
C497 C491 1.265 1_556 S
C497 H492 0.950 . S
C497 C498 1.478 . S
C498 C497 1.478 . S
C498 C499 1.397 . S
C498 C515 1.394 1_556 S
C499 C498 1.397 . S
C499 C500 1.438 . S
C499 C504 1.429 . S
C500 C499 1.438 . S
C500 C501 1.428 . S
C500 C513 1.394 1_556 S
C501 H493 0.949 . S
C501 C500 1.428 . S
C501 C502 1.345 . S
C502 H494 0.950 . S
C502 C501 1.345 . S
C502 C503 1.424 . S
C503 H495 0.951 . S
C503 C502 1.424 . S
C503 C504 1.347 . S
C504 H496 0.951 . S
C504 C499 1.429 . S
C504 C503 1.347 . S
H505 C506 0.951 . S
C506 H505 0.951 . S
C506 C512 1.265 1_556 S
H507 C512 0.950 . S
H508 C516 0.949 . S
H509 C517 0.950 . S
H510 C518 0.951 . S
H511 C519 0.951 . S
C512 C506 1.265 1_554 S
C512 H507 0.950 . S
C512 C513 1.478 . S
C513 C500 1.394 1_554 S
C513 C512 1.478 . S
C513 C514 1.397 . S
C514 C513 1.397 . S
C514 C515 1.438 . S
C514 C519 1.429 . S
C515 C498 1.394 1_554 S
C515 C514 1.438 . S
C515 C516 1.428 . S
C516 H508 0.949 . S
C516 C515 1.428 . S
C516 C517 1.345 . S
C517 H509 0.950 . S
C517 C516 1.345 . S
C517 C518 1.424 . S
C518 H510 0.951 . S
C518 C517 1.424 . S
C518 C519 1.347 . S
C519 H511 0.951 . S
C519 C514 1.429 . S
C519 C518 1.347 . S
C161 C103 1.875 . S
C176 C2 1.875 . S
C191 C63 2.505 . S
C206 C122 2.505 . S
C221 C143 1.947 . S
C236 C42 1.947 . S
C251 C23 2.510 . S
C266 C82 2.510 . S
C281 C144 1.574 . S
C296 C13 1.574 . S
C311 C106 1.561 . S
C326 C57 1.561 . S
C341 C104 1.575 . S
C356 C53 1.575 . S
C371 C17 1.561 . S
C386 C146 1.561 . S
C401 C137 0.627 . S
C416 C26 0.627 . S
C431 C93 1.888 . S
C446 C64 1.888 . S
C461 C66 0.758 . S
C476 C97 0.758 . S
C491 C24 1.828 . S
C506 C133 1.828 . S
