# Generated by pormake.
# Topology ukg, (4)-cn, num edge types: 1
# Building blocks:
#     Node 0, Type 0, BuildingBlock: KOZSID_clean_sbu_0, # of connection points: 4
#     Node 1, Type 0, BuildingBlock: KOZSID_clean_sbu_0, # of connection points: 4
#     Node 2, Type 0, BuildingBlock: KOZSID_clean_sbu_0, # of connection points: 4
#     Node 3, Type 0, BuildingBlock: KOZSID_clean_sbu_0, # of connection points: 4
#     Node 4, Type 0, BuildingBlock: KOZSID_clean_sbu_0, # of connection points: 4
#     Node 5, Type 0, BuildingBlock: KOZSID_clean_sbu_0, # of connection points: 4
#     Node 6, Type 0, BuildingBlock: KOZSID_clean_sbu_0, # of connection points: 4
#     Node 7, Type 0, BuildingBlock: KOZSID_clean_sbu_0, # of connection points: 4
#     Edge 8, Type (0, 0), BuildingBlock: MIFKUJ_clean_linker_0, # of connection points: 2
#     Edge 9, Type (0, 0), BuildingBlock: MIFKUJ_clean_linker_0, # of connection points: 2
#     Edge 10, Type (0, 0), BuildingBlock: MIFKUJ_clean_linker_0, # of connection points: 2
#     Edge 11, Type (0, 0), BuildingBlock: MIFKUJ_clean_linker_0, # of connection points: 2
#     Edge 12, Type (0, 0), BuildingBlock: MIFKUJ_clean_linker_0, # of connection points: 2
#     Edge 13, Type (0, 0), BuildingBlock: MIFKUJ_clean_linker_0, # of connection points: 2
#     Edge 14, Type (0, 0), BuildingBlock: MIFKUJ_clean_linker_0, # of connection points: 2
#     Edge 15, Type (0, 0), BuildingBlock: MIFKUJ_clean_linker_0, # of connection points: 2
#     Edge 16, Type (0, 0), BuildingBlock: MIFKUJ_clean_linker_0, # of connection points: 2
#     Edge 17, Type (0, 0), BuildingBlock: MIFKUJ_clean_linker_0, # of connection points: 2
#     Edge 18, Type (0, 0), BuildingBlock: MIFKUJ_clean_linker_0, # of connection points: 2
#     Edge 19, Type (0, 0), BuildingBlock: MIFKUJ_clean_linker_0, # of connection points: 2
#     Edge 20, Type (0, 0), BuildingBlock: MIFKUJ_clean_linker_0, # of connection points: 2
#     Edge 21, Type (0, 0), BuildingBlock: MIFKUJ_clean_linker_0, # of connection points: 2
#     Edge 22, Type (0, 0), BuildingBlock: MIFKUJ_clean_linker_0, # of connection points: 2
#     Edge 23, Type (0, 0), BuildingBlock: MIFKUJ_clean_linker_0, # of connection points: 2
# Relax obj value: 0.106
# Max RMSD: 0.260
# Mean RMSD: 0.246
data_MOF--net-ukg--node1-KOZSID_clean_sbu_0--edge1-MIFKUJ_clean_linker_0
_symmetry_space_group_name_H-M    P1
_symmetry_Int_Tables_number       1
_symmetry_cell_setting            triclinic
loop_
_symmetry_equiv_pos_as_xyz
'x, y, z'
_cell_length_a     44.888217
_cell_length_b     44.872075
_cell_length_c     61.393503
_cell_angle_alpha  90.24682
_cell_angle_beta   89.594285
_cell_angle_gamma 90.106463
loop_
_atom_site_label
_atom_site_type_symbol
_atom_site_fract_x
_atom_site_fract_y
_atom_site_fract_z
_atom_type_partial_charge
C0 C 0.96458 0.64524 0.15941 0.0
C1 C 0.9393 0.66004 0.15238 0.0
C2 C 0.94844 0.68751 0.1454 0.0
C3 C 0.97865 0.68799 0.14855 0.0
N4 N 0.98936 0.66237 0.15675 0.0
Co5 Co 0.03172 0.65492 0.16501 0.0
N6 N 0.04622 0.69109 0.14916 0.0
C7 C 0.02894 0.71337 0.14183 0.0
C8 C 0.04482 0.73611 0.13239 0.0
C9 C 0.07406 0.72794 0.13407 0.0
C10 C 0.0744 0.70051 0.14445 0.0
N11 N 0.07398 0.64759 0.17349 0.0
C12 C 0.09973 0.66022 0.16628 0.0
C13 C 0.12435 0.64713 0.17593 0.0
C14 C 0.11372 0.62645 0.19024 0.0
C15 C 0.08337 0.62768 0.18832 0.0
N16 N 0.01754 0.61861 0.18075 0.0
C17 C 0.03355 0.60191 0.1946 0.0
C18 C 0.01845 0.57756 0.20238 0.0
C19 C 0.99096 0.57909 0.19313 0.0
C20 C 0.99076 0.60456 0.18034 0.0
N21 N 0.03703 0.63086 0.13837 0.0
C22 C 0.03495 0.59342 0.10152 0.0
C23 C 0.04902 0.58416 0.12067 0.0
C24 C 0.04973 0.60316 0.13891 0.0
C25 C 0.02356 0.6224 0.10087 0.0
C26 C 0.02511 0.64075 0.11927 0.0
N27 N 0.02528 0.67932 0.1914 0.0
C28 C 0.9895 0.69743 0.21769 0.0
C29 C 1.00673 0.72282 0.22148 0.0
C30 C 0.0349 0.72467 0.21154 0.0
C31 C 0.04382 0.70256 0.19657 0.0
C32 C 0.99932 0.67588 0.20293 0.0
H33 H 0.06493 0.70523 0.18834 0.0
H34 H 0.98471 0.65746 0.1999 0.0
H35 H 0.05964 0.59497 0.15362 0.0
H36 H 0.01559 0.66264 0.11816 0.0
C37 C 0.99793 0.71099 0.14246 0.0
C38 C 0.96343 0.61672 0.17098 0.0
C39 C 0.10193 0.68603 0.15172 0.0
C40 C 0.0636 0.60767 0.19787 0.0
H41 H 0.91652 0.65211 0.15288 0.0
H42 H 0.93468 0.70502 0.13877 0.0
H43 H 0.03617 0.75617 0.12504 0.0
H44 H 0.09299 0.74109 0.12881 0.0
H45 H 0.14764 0.65211 0.17307 0.0
H46 H 0.12663 0.61159 0.20029 0.0
H47 H 0.02661 0.56046 0.21318 0.0
H48 H 0.97274 0.56376 0.19601 0.0
H49 H 0.05828 0.56196 0.12187 0.0
H50 H 0.01308 0.63077 0.08628 0.0
H51 H 0.96789 0.69481 0.22544 0.0
H52 H 0.0491 0.74383 0.21431 0.0
C53 C 0.40401 0.51353 0.62099 0.0
C54 C 0.43015 0.53003 0.62226 0.0
C55 C 0.42789 0.54736 0.64068 0.0
C56 C 0.4007 0.5404 0.64973 0.0
N57 N 0.38589 0.51955 0.63824 0.0
Co58 Co 0.34606 0.50305 0.64575 0.0
N59 N 0.34878 0.51713 0.67633 0.0
C60 C 0.3676 0.53806 0.68386 0.0
C61 C 0.36485 0.54245 0.70594 0.0
C62 C 0.34284 0.52317 0.71262 0.0
C63 C 0.33319 0.50818 0.69414 0.0
N64 N 0.30613 0.48688 0.65301 0.0
C65 C 0.29392 0.48076 0.67268 0.0
C66 C 0.26489 0.47043 0.67045 0.0
C67 C 0.25897 0.47005 0.64856 0.0
C68 C 0.28454 0.48025 0.63869 0.0
N69 N 0.3432 0.4889 0.61521 0.0
C70 C 0.31786 0.48164 0.60482 0.0
C71 C 0.32258 0.47337 0.58353 0.0
C72 C 0.35274 0.47582 0.58028 0.0
C73 C 0.36479 0.48543 0.59987 0.0
N74 N 0.36429 0.46531 0.65442 0.0
C75 C 0.38479 0.4131 0.67449 0.0
C76 C 0.36009 0.41242 0.66053 0.0
C77 C 0.35048 0.43867 0.65043 0.0
C78 C 0.40015 0.44019 0.67672 0.0
C79 C 0.38942 0.46589 0.66684 0.0
N80 N 0.32771 0.54114 0.6377 0.0
C81 C 0.32657 0.58539 0.61554 0.0
C82 C 0.30478 0.59809 0.62917 0.0
C83 C 0.29418 0.5813 0.64677 0.0
C84 C 0.30599 0.55311 0.6508 0.0
C85 C 0.33748 0.55679 0.61994 0.0
H86 H 0.29797 0.54135 0.66494 0.0
H87 H 0.35429 0.54763 0.60922 0.0
H88 H 0.33102 0.43767 0.64024 0.0
H89 H 0.40085 0.4865 0.67011 0.0
C90 C 0.39077 0.54878 0.67059 0.0
C91 C 0.39618 0.49385 0.60264 0.0
C92 C 0.30832 0.48678 0.69364 0.0
C93 C 0.29097 0.4789 0.61636 0.0
H94 H 0.44889 0.52968 0.61109 0.0
H95 H 0.44462 0.5623 0.64715 0.0
H96 H 0.37819 0.55688 0.71616 0.0
H97 H 0.33496 0.52044 0.72918 0.0
H98 H 0.24954 0.46403 0.68328 0.0
H99 H 0.23884 0.46221 0.64079 0.0
H100 H 0.3062 0.46577 0.5719 0.0
H101 H 0.36442 0.47154 0.56511 0.0
H102 H 0.34742 0.39216 0.65809 0.0
H103 H 0.42002 0.4419 0.68653 0.0
H104 H 0.33517 0.59748 0.60162 0.0
H105 H 0.27758 0.59029 0.65786 0.0
C106 C 0.53924 0.84157 0.16347 0.0
C107 C 0.56403 0.82693 0.15514 0.0
C108 C 0.55363 0.80521 0.14146 0.0
C109 C 0.52319 0.80773 0.14229 0.0
N110 N 0.51352 0.83001 0.15542 0.0
Co111 Co 0.47089 0.83963 0.16267 0.0
N112 N 0.45537 0.80752 0.14278 0.0
C113 C 0.47189 0.79025 0.12922 0.0
C114 C 0.45537 0.76986 0.11778 0.0
C115 C 0.4266 0.77434 0.1244 0.0
C116 C 0.42712 0.79738 0.13955 0.0
N117 N 0.42843 0.84815 0.17102 0.0
C118 C 0.40277 0.834 0.16551 0.0
C119 C 0.37811 0.84742 0.1752 0.0
C120 C 0.38856 0.87022 0.18772 0.0
C121 C 0.41882 0.86962 0.18488 0.0
N122 N 0.48603 0.87284 0.18161 0.0
C123 C 0.46937 0.89287 0.19277 0.0
C124 C 0.48573 0.91356 0.204 0.0
C125 C 0.51468 0.90633 0.19982 0.0
C126 C 0.51426 0.88143 0.18629 0.0
N127 N 0.46893 0.86822 0.13777 0.0
C128 C 0.46926 0.90901 0.10258 0.0
C129 C 0.45212 0.91439 0.12134 0.0
C130 C 0.45238 0.89393 0.13867 0.0
C131 C 0.48553 0.88259 0.10163 0.0
C132 C 0.48495 0.86277 0.11906 0.0
N133 N 0.47368 0.81093 0.18728 0.0
C134 C 0.47912 0.80064 0.22584 0.0
C135 C 0.48688 0.77098 0.2214 0.0
C136 C 0.48662 0.76154 0.19973 0.0
C137 C 0.48008 0.78156 0.18317 0.0
C138 C 0.47214 0.82003 0.20865 0.0
H139 H 0.4813 0.77272 0.16711 0.0
H140 H 0.4661 0.84241 0.21293 0.0
H141 H 0.43925 0.89953 0.15265 0.0
H142 H 0.49787 0.8432 0.1169 0.0
C143 C 0.50306 0.79058 0.13022 0.0
C144 C 0.54124 0.86623 0.17902 0.0
C145 C 0.40049 0.80787 0.15125 0.0
C146 C 0.4386 0.88984 0.19413 0.0
H147 H 0.5872 0.8315 0.15863 0.0
H148 H 0.56671 0.78952 0.13199 0.0
H149 H 0.46344 0.75278 0.10674 0.0
H150 H 0.40758 0.76142 0.11915 0.0
H151 H 0.35489 0.84149 0.17337 0.0
H152 H 0.37561 0.88559 0.19757 0.0
H153 H 0.47757 0.93124 0.21449 0.0
H154 H 0.53392 0.91774 0.20637 0.0
H155 H 0.43907 0.93458 0.12288 0.0
H156 H 0.49865 0.87698 0.08731 0.0
H157 H 0.47851 0.80887 0.24245 0.0
H158 H 0.49263 0.73891 0.19535 0.0
C159 C 0.0935 0.97929 0.62285 0.0
C160 C 0.06912 0.96031 0.62425 0.0
C161 C 0.07325 0.94304 0.6424 0.0
C162 C 0.09988 0.95231 0.65103 0.0
N163 N 0.11256 0.97449 0.63952 0.0
Co164 Co 0.15138 0.99368 0.64606 0.0
N165 N 0.15079 0.97923 0.67654 0.0
C166 C 0.13386 0.95683 0.68429 0.0
C167 C 0.13782 0.95229 0.70619 0.0
C168 C 0.15866 0.973 0.71251 0.0
C169 C 0.16645 0.98897 0.69401 0.0
N170 N 0.19026 0.01273 0.65241 0.0
C171 C 0.20277 0.01949 0.67179 0.0
C172 C 0.2308 0.0321 0.66883 0.0
C173 C 0.23578 0.03329 0.6468 0.0
C174 C 0.21071 0.02128 0.63756 0.0
N175 N 0.15216 1.00816 0.61558 0.0
C176 C 0.17638 0.01796 0.60469 0.0
C177 C 0.17009 0.02717 0.58395 0.0
C178 C 0.1401 0.02263 0.58157 0.0
C179 C 0.12976 0.01051 0.60101 0.0
N180 N 0.13064 0.02984 0.6556 0.0
C181 C 0.10441 0.0805 0.67443 0.0
C182 C 0.12903 0.08317 0.66036 0.0
C183 C 0.14158 0.05756 0.65086 0.0
C184 C 0.09267 0.05208 0.67822 0.0
C185 C 0.10612 0.02719 0.66879 0.0
N186 N 0.17205 0.95701 0.63707 0.0
C187 C 0.17414 0.91233 0.61514 0.0
C188 C 0.19681 0.90077 0.62822 0.0
C189 C 0.2076 0.91851 0.64525 0.0
C190 C 0.19489 0.94636 0.64946 0.0
C191 C 0.16237 0.94062 0.61965 0.0
H192 H 0.20294 0.95879 0.66327 0.0
H193 H 0.14478 0.94883 0.60942 0.0
H194 H 0.16065 0.06008 0.64023 0.0
H195 H 0.09722 1.00564 0.6729 0.0
C196 C 0.11115 0.94445 0.67149 0.0
C197 C 0.0992 0.99953 0.6045 0.0
C198 C 0.18986 0.01199 0.69312 0.0
C199 C 0.20333 0.02262 0.6155 0.0
H200 H 0.0505 0.95888 0.61319 0.0
H201 H 0.05815 0.92641 0.64889 0.0
H202 H 0.12604 0.9367 0.71656 0.0
H203 H 0.16706 0.97597 0.72885 0.0
H204 H 0.24617 0.03945 0.68126 0.0
H205 H 0.2549 0.04284 0.63853 0.0
H206 H 0.18524 0.03709 0.57225 0.0
H207 H 0.12744 0.0276 0.56711 0.0
H208 H 0.13865 0.10479 0.65688 0.0
H209 H 0.07393 0.0489 0.68919 0.0
H210 H 0.16541 0.8995 0.60162 0.0
H211 H 0.22495 0.91043 0.65588 0.0
C212 C 1.00606 0.36425 0.92096 0.0
C213 C 0.01756 0.3546 0.94066 0.0
C214 C 0.02969 0.32719 0.93693 0.0
C215 C 0.02466 0.32146 0.91534 0.0
N216 N 0.00977 0.34335 0.90511 0.0
Co217 Co 0.99739 0.34323 0.87391 0.0
N218 N 1.0074 0.30002 0.87042 0.0
C219 C 0.02212 0.28302 0.88482 0.0
C220 C 0.025 0.25385 0.87844 0.0
C221 C 0.01172 0.25229 0.85854 0.0
C222 C 1.00165 0.28078 0.85384 0.0
N223 N 0.98544 0.34316 0.84256 0.0
C224 C 0.98307 0.32036 0.82801 0.0
C225 C 0.97571 0.33078 0.80748 0.0
C226 C 0.97383 0.3611 0.8091 0.0
C227 C 0.98016 0.36752 0.83042 0.0
N228 N 0.98709 0.38636 0.87761 0.0
C229 C 0.98165 0.40569 0.86139 0.0
C230 C 0.97618 0.43417 0.86854 0.0
C231 C 0.97868 0.43296 0.8907 0.0
C232 C 0.98551 0.40366 0.89584 0.0
N233 N 0.03809 0.35447 0.86485 0.0
C234 C 0.08973 0.37707 0.84465 0.0
C235 C 0.07794 0.39071 0.86344 0.0
C236 C 0.05226 0.37887 0.87342 0.0
C237 C 0.0767 0.35045 0.83756 0.0
C238 C 0.05112 0.3397 0.84777 0.0
N239 N 0.95643 0.33206 0.88226 0.0
C240 C 0.90372 0.33557 0.87529 0.0
C241 C 0.89789 0.31077 0.88846 0.0
C242 C 0.92194 0.29793 0.89947 0.0
C243 C 0.95093 0.30892 0.8962 0.0
C244 C 0.93291 0.34585 0.8725 0.0
H245 H 0.96892 0.29797 0.9044 0.0
H246 H 0.93639 0.36445 0.86182 0.0
H247 H 0.04321 0.39032 0.88741 0.0
H248 H 0.0412 0.3202 0.84092 0.0
C249 C 0.03023 0.29437 0.90502 0.0
C250 C 0.99381 0.39419 0.91783 0.0
C251 C 0.99151 0.28933 0.83211 0.0
C252 C 0.9794 0.39581 0.8399 0.0
H253 H 0.01741 0.36624 0.95614 0.0
H254 H 0.04016 0.31279 0.94872 0.0
H255 H 0.03531 0.23583 0.88728 0.0
H256 H 0.01059 0.23269 0.84823 0.0
H257 H 0.97294 0.31789 0.79269 0.0
H258 H 0.96854 0.37662 0.79625 0.0
H259 H 0.97084 0.45348 0.85882 0.0
H260 H 0.97656 0.45171 0.90175 0.0
H261 H 0.08751 0.41113 0.86976 0.0
H262 H 0.08557 0.3384 0.82364 0.0
H263 H 0.88587 0.34682 0.86688 0.0
H264 H 0.91865 0.27876 0.90987 0.0
C265 C 0.60361 0.5093 0.33606 0.0
C266 C 0.58059 0.50988 0.321 0.0
C267 C 0.58074 0.48297 0.31055 0.0
C268 C 0.60367 0.46746 0.31972 0.0
N269 N 0.61787 0.48262 0.33555 0.0
Co270 Co 0.65298 0.4681 0.35224 0.0
N271 N 0.64677 0.42622 0.34217 0.0
C272 C 0.62986 0.41779 0.32516 0.0
C273 C 0.63103 0.38787 0.32081 0.0
C274 C 0.65006 0.37654 0.3359 0.0
C275 C 0.65932 0.4003 0.34882 0.0
N276 N 0.68795 0.45324 0.36899 0.0
C277 C 0.69619 0.42496 0.37416 0.0
C278 C 0.72163 0.42512 0.3869 0.0
C279 C 0.73017 0.45426 0.38911 0.0
C280 C 0.70938 0.47034 0.37791 0.0
N281 N 0.6595 0.51008 0.36199 0.0
C282 C 0.68435 0.52068 0.37148 0.0
C283 C 0.6831 0.55062 0.37598 0.0
C284 C 0.65593 0.55967 0.36854 0.0
C285 C 0.64213 0.53466 0.35981 0.0
N286 N 0.62714 0.46132 0.37776 0.0
C287 C 0.58868 0.45785 0.41417 0.0
C288 C 0.61737 0.46993 0.41594 0.0
C289 C 0.63609 0.47137 0.39773 0.0
C290 C 0.57996 0.44682 0.3937 0.0
C291 C 0.59954 0.44863 0.37577 0.0
N292 N 0.6791 0.47571 0.32696 0.0
C293 C 0.72421 0.46554 0.30663 0.0
C294 C 0.72169 0.49269 0.29547 0.0
C295 C 0.69625 0.50997 0.29945 0.0
C296 C 0.67555 0.50129 0.31522 0.0
C297 C 0.70255 0.45734 0.32209 0.0
H298 H 0.65725 0.51609 0.31834 0.0
H299 H 0.70548 0.43667 0.33066 0.0
H300 H 0.6576 0.48143 0.39983 0.0
H301 H 0.59214 0.44027 0.36023 0.0
C302 C 0.61083 0.43792 0.31519 0.0
C303 C 0.61403 0.53599 0.34771 0.0
C304 C 0.68202 0.39755 0.36585 0.0
C305 C 0.70691 0.50135 0.37802 0.0
H306 H 0.56591 0.52822 0.31725 0.0
H307 H 0.56586 0.4756 0.2978 0.0
H308 H 0.61916 0.37566 0.30833 0.0
H309 H 0.65678 0.35345 0.33685 0.0
H310 H 0.73305 0.4062 0.39378 0.0
H311 H 0.7488 0.46276 0.39838 0.0
H312 H 0.69975 0.56418 0.38399 0.0
H313 H 0.64747 0.58224 0.36905 0.0
H314 H 0.62517 0.47919 0.43119 0.0
H315 H 0.55818 0.4369 0.3915 0.0
H316 H 0.74331 0.4512 0.30416 0.0
H317 H 0.6925 0.53057 0.29077 0.0
C318 C 0.48707 0.12985 0.91776 0.0
C319 C 0.47876 0.14046 0.93821 0.0
C320 C 0.475 0.1706 0.93626 0.0
C321 C 0.48131 0.17677 0.91486 0.0
N322 N 0.48865 0.15238 0.90317 0.0
Co323 Co 0.50076 0.15188 0.87203 0.0
N324 N 0.48293 0.19168 0.86702 0.0
C325 C 0.47546 0.2117 0.88251 0.0
C326 C 0.4622 0.23668 0.87424 0.0
C327 C 0.46153 0.23222 0.85216 0.0
C328 C 0.47488 0.20479 0.84814 0.0
N329 N 0.51293 0.15151 0.84092 0.0
C330 C 0.50308 0.16833 0.82417 0.0
C331 C 0.51807 0.1611 0.80501 0.0
C332 C 0.53794 0.139 0.81008 0.0
C333 C 0.53409 0.13404 0.83198 0.0
N334 N 0.51869 0.1121 0.87725 0.0
C335 C 0.53901 0.09859 0.86437 0.0
C336 C 0.54693 0.07094 0.87183 0.0
C337 C 0.53083 0.06697 0.89069 0.0
C338 C 0.51411 0.09266 0.89384 0.0
N339 N 0.46298 0.13293 0.86395 0.0
C340 C 0.40988 0.11132 0.84576 0.0
C341 C 0.43731 0.09803 0.8408 0.0
C342 C 0.46343 0.10914 0.84997 0.0
C343 C 0.40947 0.13486 0.8609 0.0
C344 C 0.43622 0.14506 0.87003 0.0
N345 N 0.53892 0.17094 0.87943 0.0
C346 C 0.57791 0.20557 0.86975 0.0
C347 C 0.59671 0.19393 0.88575 0.0
C348 C 0.58518 0.17141 0.89927 0.0
C349 C 0.55625 0.1604 0.89594 0.0
C350 C 0.5494 0.19378 0.86681 0.0
H351 H 0.54829 0.1427 0.9063 0.0
H352 H 0.53616 0.20272 0.85383 0.0
H353 H 0.48417 0.09922 0.8449 0.0
H354 H 0.43538 0.16348 0.88136 0.0
C355 C 0.47616 0.20394 0.90452 0.0
C356 C 0.49572 0.09883 0.91332 0.0
C357 C 0.48161 0.19289 0.82628 0.0
C358 C 0.54604 0.11026 0.8438 0.0
H359 H 0.47608 0.12784 0.95308 0.0
H360 H 0.46768 0.18601 0.94881 0.0
H361 H 0.45283 0.25528 0.88323 0.0
H362 H 0.45221 0.2475 0.84047 0.0
H363 H 0.51513 0.17093 0.78911 0.0
H364 H 0.55267 0.12729 0.79896 0.0
H365 H 0.56168 0.05502 0.86405 0.0
H366 H 0.53145 0.0474 0.90089 0.0
H367 H 0.43884 0.07999 0.82906 0.0
H368 H 0.38871 0.14555 0.86543 0.0
H369 H 0.5852 0.22354 0.85926 0.0
H370 H 0.59868 0.16157 0.91188 0.0
C371 C 0.87908 0.99044 0.32898 0.0
C372 C 0.90292 0.99024 0.3144 0.0
C373 C 0.91256 0.01908 0.31261 0.0
C374 C 0.89423 0.03522 0.32616 0.0
N375 N 0.87355 0.0184 0.3363 0.0
Co376 Co 0.84321 0.03289 0.35754 0.0
N377 N 0.84832 0.07486 0.34784 0.0
C378 C 0.87112 0.08546 0.33575 0.0
C379 C 0.86821 0.11504 0.3307 0.0
C380 C 0.84215 0.1238 0.34042 0.0
C381 C 0.83077 0.09906 0.35124 0.0
N382 N 0.81311 0.04771 0.37893 0.0
C383 C 0.799 0.07444 0.38027 0.0
C384 C 0.78058 0.07561 0.39851 0.0
C385 C 0.78344 0.0488 0.40895 0.0
C386 C 0.80344 0.03277 0.39661 0.0
N387 N 0.83816 0.99091 0.36713 0.0
C388 C 0.82555 0.98206 0.38597 0.0
C389 C 0.82535 0.95161 0.38825 0.0
C390 C 0.83891 0.94069 0.36976 0.0
C391 C 0.84671 0.96518 0.35722 0.0
N392 N 0.87454 0.03819 0.37951 0.0
C393 C 0.91364 0.03976 0.41525 0.0
C394 C 0.89398 0.06345 0.4112 0.0
C395 C 0.87476 0.06229 0.39325 0.0
C396 C 0.9141 0.01606 0.40029 0.0
C397 C 0.89475 0.01584 0.3826 0.0
N398 N 0.81177 0.02648 0.33592 0.0
C399 C 0.76479 1.00343 0.32714 0.0
C400 C 0.76987 1.00774 0.30485 0.0
C401 C 0.79593 0.02287 0.29851 0.0
C402 C 0.81643 0.03233 0.31431 0.0
C403 C 0.78588 0.01285 0.34229 0.0
H404 H 0.83649 0.04347 0.30898 0.0
H405 H 0.78168 1.00787 0.35915 0.0
H406 H 0.85942 0.08045 0.39091 0.0
H407 H 0.89536 0.99673 0.37195 0.0
C408 C 0.89237 0.06623 0.32681 0.0
C409 C 0.86405 0.96346 0.33683 0.0
C410 C 0.80474 0.10007 0.36595 0.0
C411 C 0.81051 1.00259 0.39934 0.0
H412 H 0.91255 0.97123 0.30605 0.0
H413 H 0.93009 0.0274 0.30207 0.0
H414 H 0.88274 0.12839 0.3205 0.0
H415 H 0.8328 0.14597 0.33967 0.0
H416 H 0.76692 0.0941 0.40392 0.0
H417 H 0.7718 0.04164 0.42351 0.0
H418 H 0.8157 0.93882 0.40144 0.0
H419 H 0.84282 0.91743 0.36603 0.0
H420 H 0.89312 0.08263 0.42194 0.0
H421 H 0.92844 0.99699 0.40261 0.0
H422 H 0.74522 0.99163 0.3329 0.0
H423 H 0.80063 0.0271 0.28147 0.0
H424 H 0.95042 0.42373 0.94094 0.0
H425 H 0.95711 0.45864 0.9716 0.0
H426 H 0.05245 0.44997 0.96526 0.0
H427 H 0.04575 0.41566 0.93445 0.0
H428 H 0.03187 0.44317 1.00829 0.0
H429 H 0.02035 0.51133 0.94843 0.0
H430 H 0.99448 0.53235 0.91673 0.0
H431 H 0.91885 0.55361 0.95706 0.0
H432 H 0.94409 0.53224 0.98895 0.0
H433 H 0.0766 0.55739 0.08169 0.0
H434 H 0.06978 0.52473 0.05002 0.0
H435 H 0.97702 0.54954 0.04749 0.0
H436 H 0.98416 0.58306 0.07849 0.0
H437 H 0.99578 0.54756 1.00865 0.0
H438 H 1.00401 0.47935 0.06795 0.0
H439 H 0.02667 0.45633 0.10023 0.0
H440 H 0.10398 0.43279 0.06238 0.0
H441 H 0.08194 0.45604 0.02992 0.0
C442 C 0.97273 0.42959 0.94603 0.0
C443 C 0.99756 0.4169 0.93552 0.0
C444 C 0.97657 0.44945 0.96352 0.0
C445 C 1.00532 0.45686 0.97081 0.0
C446 C 0.03009 0.44448 0.96005 0.0
C447 C 0.02626 0.42497 0.94244 0.0
C448 C 0.00971 0.47712 0.98986 0.0
C449 C 0.0243 0.46612 1.0083 0.0
C450 C 0.99906 0.50678 0.99015 0.0
C451 C 0.984 0.51992 0.97103 0.0
C452 C 0.99811 0.52027 0.95051 0.0
C453 C 0.98357 0.53228 0.93251 0.0
C454 C 0.95501 0.54424 0.93487 0.0
C455 C 0.94096 0.5443 0.95525 0.0
C456 C 0.95538 0.53225 0.9733 0.0
C457 C 0.05476 0.55575 0.07439 0.0
C458 C 0.03095 0.57284 0.08259 0.0
C459 C 0.05079 0.53695 0.05631 0.0
C460 C 0.0227 0.53412 0.04639 0.0
C461 C 0.99894 0.55122 0.05466 0.0
C462 C 1.00303 0.5704 0.07245 0.0
C463 C 0.01802 0.5137 0.02731 0.0
C464 C 1.00336 0.52462 1.00879 0.0
C465 C 0.02814 0.48375 0.0271 0.0
C466 C 0.04145 0.4697 0.04657 0.0
C467 C 0.02593 0.46946 0.06655 0.0
C468 C 0.03866 0.45634 0.08487 0.0
C469 C 0.06679 0.44318 0.08338 0.0
C470 C 0.08222 0.44304 0.06353 0.0
C471 C 0.06961 0.45616 0.04516 0.0
H472 H 0.0766 0.43303 0.09758 0.0
H473 H 0.94379 0.55354 0.92091 0.0
H474 H 0.42055 0.44152 0.58859 0.0
H475 H 0.4533 0.43326 0.55684 0.0
H476 H 0.45032 0.52722 0.54241 0.0
H477 H 0.41773 0.53536 0.57412 0.0
H478 H 0.44571 0.44187 0.51394 0.0
H479 H 0.51704 0.54891 0.52068 0.0
H480 H 0.53474 0.5837 0.54902 0.0
H481 H 0.52935 0.51416 0.59672 0.0
H482 H 0.5121 0.47885 0.56861 0.0
H483 H 0.52823 0.46861 0.41537 0.0
H484 H 0.4957 0.47231 0.44744 0.0
H485 H 0.56988 0.45158 0.48891 0.0
H486 H 0.60237 0.44739 0.45702 0.0
H487 H 0.54015 0.49819 0.50486 0.0
H488 H 0.5149 0.40047 0.47902 0.0
H489 H 0.49864 0.36308 0.45204 0.0
H490 H 0.4153 0.40873 0.44502 0.0
H491 H 0.43124 0.44665 0.47175 0.0
C492 C 0.42726 0.46037 0.57872 0.0
C493 C 0.41736 0.48916 0.58407 0.0
C494 C 0.44575 0.45565 0.56052 0.0
C495 C 0.45467 0.47966 0.54732 0.0
C496 C 0.44429 0.5084 0.55252 0.0
C497 C 0.42578 0.51308 0.57067 0.0
C498 C 0.47481 0.47471 0.52816 0.0
C499 C 0.46634 0.45422 0.51196 0.0
C500 C 0.50198 0.49046 0.52561 0.0
C501 C 0.513 0.51133 0.54256 0.0
C502 C 0.51979 0.54101 0.53719 0.0
C503 C 0.52972 0.56083 0.55322 0.0
C504 C 0.53308 0.55118 0.57467 0.0
C505 C 0.52665 0.52164 0.58012 0.0
C506 C 0.51677 0.50173 0.56414 0.0
C507 C 0.53756 0.4643 0.43126 0.0
C508 C 0.56808 0.45781 0.43349 0.0
C509 C 0.5189 0.46656 0.44964 0.0
C510 C 0.53026 0.46223 0.47069 0.0
C511 C 0.56056 0.45526 0.47292 0.0
C512 C 0.57917 0.45294 0.45459 0.0
C513 C 0.51088 0.46564 0.49045 0.0
C514 C 0.51949 0.48588 0.50678 0.0
C515 C 0.48405 0.44936 0.49325 0.0
C516 C 0.47438 0.42655 0.47723 0.0
C517 C 0.4932 0.40266 0.4716 0.0
C518 C 0.48402 0.38135 0.45637 0.0
C519 C 0.45598 0.38356 0.44678 0.0
C520 C 0.43703 0.40706 0.45244 0.0
C521 C 0.44611 0.42846 0.46764 0.0
H522 H 0.44892 0.36704 0.435 0.0
H523 H 0.54071 0.56656 0.58706 0.0
H524 H 0.51855 0.92693 0.07972 0.0
H525 H 0.52103 0.95927 0.04788 0.0
H526 H 0.42598 0.97227 0.05135 0.0
H527 H 0.42327 0.93941 0.08325 0.0
H528 H 0.44574 0.95987 1.00927 0.0
H529 H 0.47183 0.02732 0.06697 0.0
H530 H 0.49981 0.04414 0.09919 0.0
H531 H 0.5815 0.04043 0.06248 0.0
H532 H 0.55406 0.02317 0.0301 0.0
H533 H 0.44415 0.07647 0.93033 0.0
H534 H 0.43791 0.04491 0.96255 0.0
H535 H 0.53345 0.04014 0.9692 0.0
H536 H 0.53947 0.07308 0.93776 0.0
H537 H 0.51122 0.04896 1.00687 0.0
H538 H 0.48728 0.9797 0.94991 0.0
H539 H 0.46092 0.9612 0.91743 0.0
H540 H 0.37755 0.96609 0.95198 0.0
H541 H 0.40337 0.98501 0.98459 0.0
C542 C 0.49811 0.93664 0.07375 0.0
C543 C 0.47067 0.93048 0.08405 0.0
C544 C 0.49961 0.95531 0.05558 0.0
C545 C 0.47373 0.96841 0.04722 0.0
C546 C 0.44627 0.96247 0.0575 0.0
C547 C 0.44477 0.94389 0.07584 0.0
C548 C 0.47552 0.98785 0.02757 0.0
C549 C 0.45967 0.97964 1.00883 0.0
C550 C 0.49436 0.01318 0.02674 0.0
C551 C 0.5109 0.02372 0.04616 0.0
C552 C 0.49579 0.02988 0.06581 0.0
C553 C 0.51155 0.03953 0.08409 0.0
C554 C 0.54242 0.04329 0.0829 0.0
C555 C 0.55759 0.03748 0.06339 0.0
C556 C 0.54194 0.0278 0.04506 0.0
C557 C 0.46376 0.06819 0.93851 0.0
C558 C 0.49229 0.07647 0.93117 0.0
C559 C 0.46022 0.05008 0.95691 0.0
C560 C 0.48521 0.03949 0.96824 0.0
C561 C 0.51376 0.04774 0.96078 0.0
C562 C 0.51725 0.06622 0.9426 0.0
C563 C 0.48168 0.02088 0.98831 0.0
C564 C 0.49719 0.02926 1.00721 0.0
C565 C 0.4628 0.9955 0.98918 0.0
C566 C 0.44723 0.98405 0.96962 0.0
C567 C 0.4633 0.97704 0.95053 0.0
C568 C 0.44845 0.96645 0.9321 0.0
C569 C 0.41757 0.96255 0.93262 0.0
C570 C 0.40147 0.96916 0.95159 0.0
C571 C 0.4162 0.9798 0.97006 0.0
H572 H 0.40612 0.95434 0.91834 0.0
H573 H 0.55459 0.05077 0.09707 0.0
H574 H 0.97008 0.01655 0.41961 0.0
H575 H 0.99861 0.01009 0.4529 0.0
H576 H 0.92992 0.05494 0.48975 0.0
H577 H 0.90047 0.06054 0.45661 0.0
H578 H 0.98901 0.07276 0.50103 0.0
H579 H 0.93206 0.98262 0.49227 0.0
H580 H 0.91361 0.9387 0.47217 0.0
H581 H 1.00318 0.9068 0.4643 0.0
H582 H 0.02222 0.9508 0.48406 0.0
H583 H 0.04789 0.03223 0.6041 0.0
H584 H 0.01354 0.03925 0.57353 0.0
H585 H 0.06722 0.98011 0.53394 0.0
H586 H 0.10055 0.97217 0.56479 0.0
H587 H 0.01259 0.97007 0.52501 0.0
H588 H 0.07079 0.05947 0.53098 0.0
H589 H 0.09159 0.10366 0.54946 0.0
H590 H 1.00331 0.13739 0.56067 0.0
H591 H 0.98196 0.09315 0.54252 0.0
C592 C 0.96077 0.02491 0.43475 0.0
C593 C 0.93261 0.03878 0.43527 0.0
C594 C 0.97729 0.02131 0.45381 0.0
C595 C 0.96629 0.0317 0.4739 0.0
C596 C 0.93886 0.0467 0.47444 0.0
C597 C 0.92211 0.05005 0.45538 0.0
C598 C 0.9831 0.02603 0.49434 0.0
C599 C 0.9938 0.05032 0.50649 0.0
C600 C 0.98999 0.99677 0.50119 0.0
C601 C 0.97858 0.97015 0.48948 0.0
C602 C 0.94784 0.96636 0.4861 0.0
C603 C 0.93727 0.94144 0.4748 0.0
C604 C 0.95721 0.92001 0.46692 0.0
C605 C 0.98776 0.92344 0.47039 0.0
C606 C 0.99845 0.94835 0.48166 0.0
C607 C 0.05203 0.02057 0.58889 0.0
C608 C 0.07703 1.00209 0.5866 0.0
C609 C 0.03259 0.02475 0.57136 0.0
C610 C 0.03808 0.01082 0.55111 0.0
C611 C 0.06246 0.99132 0.54923 0.0
C612 C 0.0816 0.98686 0.56682 0.0
C613 C 0.01893 0.01682 0.53173 0.0
C614 C 1.00775 0.99257 0.51972 0.0
C615 C 0.01199 0.04614 0.52482 0.0
C616 C 0.02477 0.07285 0.5356 0.0
C617 C 0.05581 0.07621 0.53752 0.0
C618 C 0.06769 0.10128 0.54792 0.0
C619 C 0.04878 0.12328 0.55629 0.0
C620 C 0.01793 0.1203 0.55421 0.0
C621 C 1.00592 0.09524 0.54386 0.0
H622 H 0.05802 0.14267 0.56434 0.0
H623 H 0.94899 0.90072 0.45817 0.0
H624 H 0.13502 0.71148 0.18389 0.0
H625 H 0.18523 0.73212 0.18141 0.0
H626 H 0.1849 0.71851 0.11175 0.0
H627 H 0.13514 0.69569 0.11461 0.0
H628 H 0.23607 0.70415 0.12456 0.0
H629 H 0.17844 0.79066 0.13853 0.0
H630 H 0.14125 0.82261 0.15687 0.0
H631 H 0.19141 0.8191 0.2161 0.0
H632 H 0.22869 0.78674 0.19821 0.0
H633 H 0.36596 0.8021 0.11463 0.0
H634 H 0.31521 0.78147 0.11215 0.0
H635 H 0.31687 0.7608 0.18063 0.0
H636 H 0.3679 0.78027 0.18293 0.0
H637 H 0.26505 0.79524 0.16532 0.0
H638 H 0.32208 0.70612 0.14861 0.0
H639 H 0.35911 0.67731 0.12749 0.0
H640 H 0.30887 0.69106 0.06914 0.0
H641 H 0.27177 0.72039 0.08988 0.0
C642 C 0.14568 0.71298 0.16804 0.0
C643 C 0.13131 0.70175 0.14946 0.0
C644 C 0.17436 0.7251 0.16656 0.0
C645 C 0.18906 0.72753 0.14631 0.0
C646 C 0.17429 0.71698 0.1276 0.0
C647 C 0.14575 0.70416 0.12917 0.0
C648 C 0.22008 0.74009 0.14495 0.0
C649 C 0.24212 0.72438 0.13319 0.0
C650 C 0.22853 0.76646 0.15623 0.0
C651 C 0.20625 0.78607 0.16706 0.0
C652 C 0.18145 0.79654 0.15551 0.0
C653 C 0.16036 0.81474 0.16582 0.0
C654 C 0.16393 0.82283 0.18765 0.0
C655 C 0.18865 0.81279 0.19919 0.0
C656 C 0.20979 0.79455 0.18897 0.0
C657 C 0.3557 0.79248 0.129 0.0
C658 C 0.37095 0.79252 0.14893 0.0
C659 C 0.32666 0.78091 0.12761 0.0
C660 C 0.31217 0.76967 0.14623 0.0
C661 C 0.32754 0.76939 0.16607 0.0
C662 C 0.35672 0.78037 0.16735 0.0
C663 C 0.28068 0.75902 0.1453 0.0
C664 C 0.25869 0.77516 0.1566 0.0
C665 C 0.27218 0.73356 0.13316 0.0
C666 C 0.29434 0.71573 0.12075 0.0
C667 C 0.31908 0.70324 0.13124 0.0
C668 C 0.34005 0.68677 0.11935 0.0
C669 C 0.3364 0.68243 0.09697 0.0
C670 C 0.3117 0.69448 0.08646 0.0
C671 C 0.29069 0.71102 0.09828 0.0
H672 H 0.35266 0.66966 0.08779 0.0
H673 H 0.14758 0.83693 0.1956 0.0
H674 H 0.24716 0.61803 0.63032 0.0
H675 H 0.22953 0.6695 0.62741 0.0
H676 H 0.31992 0.69972 0.61797 0.0
H677 H 0.3377 0.64822 0.62083 0.0
H678 H 0.28797 0.73218 0.64996 0.0
H679 H 0.2751 0.69903 0.57589 0.0
H680 H 0.25666 0.66539 0.54711 0.0
H681 H 0.16648 0.68243 0.56727 0.0
H682 H 0.1844 0.71584 0.5964 0.0
H683 H 0.25488 0.88233 0.62718 0.0
H684 H 0.27364 0.8313 0.62453 0.0
H685 H 0.18348 0.79834 0.62029 0.0
H686 H 0.16475 0.84952 0.62213 0.0
H687 H 0.21602 0.7668 0.59461 0.0
H688 H 0.22605 0.79681 0.66895 0.0
H689 H 0.2418 0.82876 0.69957 0.0
H690 H 0.33352 0.81558 0.68172 0.0
H691 H 0.31828 0.78387 0.65079 0.0
C692 C 0.26326 0.63563 0.62749 0.0
C693 C 0.29383 0.62904 0.62576 0.0
C694 C 0.25315 0.66502 0.62574 0.0
C695 C 0.27339 0.68848 0.62239 0.0
C696 C 0.3039 0.68197 0.62051 0.0
C697 C 0.314 0.65252 0.62198 0.0
C698 C 0.2628 0.71989 0.62161 0.0
C699 C 0.27261 0.73992 0.63765 0.0
C700 C 0.24194 0.72969 0.60603 0.0
C701 C 0.23112 0.70973 0.58845 0.0
C702 C 0.25135 0.69541 0.57431 0.0
C703 C 0.24099 0.67642 0.5579 0.0
C704 C 0.21042 0.67172 0.55539 0.0
C705 C 0.19015 0.68606 0.56925 0.0
C706 C 0.2004 0.70505 0.58569 0.0
C707 C 0.23909 0.86419 0.62555 0.0
C708 C 0.20833 0.86995 0.62496 0.0
C709 C 0.24982 0.83496 0.62416 0.0
C710 C 0.23001 0.81071 0.62272 0.0
C711 C 0.19929 0.81653 0.62145 0.0
C712 C 0.18858 0.84582 0.62247 0.0
C713 C 0.24125 0.77934 0.62297 0.0
C714 C 0.23149 0.75923 0.60689 0.0
C715 C 0.26175 0.76926 0.6388 0.0
C716 C 0.271 0.78823 0.65742 0.0
C717 C 0.24957 0.8009 0.67146 0.0
C718 C 0.2584 0.81894 0.68888 0.0
C719 C 0.28864 0.82426 0.69255 0.0
C720 C 0.3101 0.81148 0.67884 0.0
C721 C 0.30138 0.79346 0.66137 0.0
H722 H 0.29544 0.83823 0.70605 0.0
H723 H 0.20244 0.65701 0.54268 0.0
H724 H 0.63071 0.20101 0.92284 0.0
H725 H 0.68225 0.21841 0.92538 0.0
H726 H 0.68549 0.2298 0.85568 0.0
H727 H 0.63488 0.21082 0.85287 0.0
H728 H 0.73496 0.20658 0.86775 0.0
H729 H 0.6767 0.2897 0.89358 0.0
H730 H 0.63994 0.31521 0.91713 0.0
H731 H 0.69178 0.29427 0.97353 0.0
H732 H 0.72867 0.26828 0.95033 0.0
H733 H 0.85763 0.30377 0.85551 0.0
H734 H 0.80754 0.28272 0.85735 0.0
H735 H 0.81828 0.26636 0.92599 0.0
H736 H 0.86843 0.28819 0.92439 0.0
H737 H 0.76318 0.28965 0.91707 0.0
H738 H 0.82336 0.20943 0.88992 0.0
H739 H 0.86013 0.18546 0.86553 0.0
H740 H 0.80422 0.20255 0.81054 0.0
H741 H 0.76729 0.22702 0.83455 0.0
C742 C 0.64245 0.2069 0.908 0.0
C743 C 0.62825 0.2047 0.88766 0.0
C744 C 0.67191 0.21723 0.90951 0.0
C745 C 0.68782 0.22598 0.89076 0.0
C746 C 0.67383 0.22339 0.87045 0.0
C747 C 0.64457 0.21284 0.8689 0.0
C748 C 0.71905 0.23762 0.89204 0.0
C749 C 0.74096 0.22496 0.8784 0.0
C750 C 0.72737 0.26112 0.9063 0.0
C751 C 0.70526 0.27677 0.92025 0.0
C752 C 0.68014 0.29034 0.91103 0.0
C753 C 0.6593 0.30492 0.92431 0.0
C754 C 0.66347 0.30629 0.94682 0.0
C755 C 0.68854 0.29315 0.9561 0.0
C756 C 0.70943 0.27851 0.94289 0.0
C757 C 0.84932 0.29602 0.87109 0.0
C758 C 0.86717 0.29782 0.88983 0.0
C759 C 0.82069 0.28368 0.87206 0.0
C760 C 0.80915 0.2726 0.89176 0.0
C761 C 0.8267 0.27464 0.91058 0.0
C762 C 0.85547 0.28694 0.90961 0.0
C763 C 0.77879 0.25892 0.89253 0.0
C764 C 0.75713 0.27115 0.90655 0.0
C765 C 0.77061 0.23518 0.8785 0.0
C766 C 0.79267 0.22027 0.86402 0.0
C767 C 0.819 0.20827 0.8726 0.0
C768 C 0.83986 0.19456 0.85885 0.0
C769 C 0.83454 0.19253 0.83649 0.0
C770 C 0.80832 0.20415 0.82785 0.0
C771 C 0.7874 0.21791 0.84153 0.0
H772 H 0.85072 0.18192 0.82587 0.0
H773 H 0.64732 0.31759 0.95708 0.0
H774 H 0.65389 0.34829 0.38219 0.0
H775 H 0.67283 0.29733 0.3843 0.0
H776 H 0.75899 0.32777 0.36182 0.0
H777 H 0.73898 0.37802 0.3576 0.0
H778 H 0.75148 0.28061 0.34319 0.0
H779 H 0.73909 0.30408 0.41848 0.0
H780 H 0.71339 0.32107 0.45191 0.0
H781 H 0.64938 0.25044 0.44532 0.0
H782 H 0.67448 0.23325 0.41168 0.0
H783 H 0.8287 0.15059 0.38372 0.0
H784 H 0.80605 0.20027 0.38642 0.0
H785 H 0.72364 0.16492 0.36157 0.0
H786 H 0.74672 0.11528 0.35801 0.0
H787 H 0.72956 0.21279 0.40488 0.0
H788 H 0.74621 0.19359 0.32599 0.0
H789 H 0.77954 0.17662 0.29634 0.0
H790 H 0.84469 0.2419 0.31507 0.0
H791 H 0.8119 0.25885 0.3451 0.0
C792 C 0.67697 0.34407 0.37797 0.0
C793 C 0.69509 0.36734 0.37019 0.0
C794 C 0.68796 0.31487 0.37933 0.0
C795 C 0.71775 0.30831 0.37372 0.0
C796 C 0.73599 0.33184 0.36633 0.0
C797 C 0.72469 0.36081 0.36428 0.0
C798 C 0.72953 0.27691 0.37453 0.0
C799 C 0.74672 0.26614 0.35689 0.0
C800 C 0.72364 0.25732 0.39222 0.0
C801 C 0.7085 0.26756 0.41244 0.0
C802 C 0.71942 0.2923 0.42408 0.0
C803 C 0.70497 0.30195 0.44308 0.0
C804 C 0.67972 0.28689 0.45071 0.0
C805 C 0.66891 0.26211 0.43938 0.0
C806 C 0.68325 0.25238 0.42035 0.0
C807 C 0.80569 0.15343 0.37894 0.0
C808 C 0.7896 0.12928 0.37022 0.0
C809 C 0.79277 0.18175 0.38058 0.0
C810 C 0.76323 0.18634 0.37408 0.0
C811 C 0.74649 0.16186 0.36664 0.0
C812 C 0.75964 0.13358 0.3646 0.0
C813 C 0.75079 0.2171 0.3736 0.0
C814 C 0.73385 0.2276 0.39129 0.0
C815 C 0.75759 0.23676 0.35636 0.0
C816 C 0.77676 0.22727 0.33787 0.0
C817 C 0.76773 0.20415 0.32387 0.0
C818 C 0.78651 0.19456 0.30699 0.0
C819 C 0.81426 0.20811 0.30386 0.0
C820 C 0.82321 0.23139 0.31753 0.0
C821 C 0.80454 0.24101 0.33447 0.0
H822 H 0.82878 0.20063 0.2908 0.0
H823 H 0.66857 0.2944 0.46542 0.0
H824 H 0.74011 0.55044 0.28934 0.0
H825 H 0.77835 0.56904 0.2646 0.0
H826 H 0.79781 0.47931 0.24374 0.0
H827 H 0.75851 0.46032 0.2679 0.0
H828 H 0.84906 0.51382 0.25376 0.0
H829 H 0.7608 0.52136 0.21032 0.0
H830 H 0.70888 0.53607 0.2032 0.0
H831 H 0.73227 0.62815 0.21197 0.0
H832 H 0.78425 0.61395 0.21948 0.0
H833 H 0.91954 0.58369 0.15138 0.0
H834 H 0.87566 0.5609 0.1692 0.0
H835 H 0.8999 0.60277 0.22991 0.0
H836 H 0.94314 0.62575 0.21216 0.0
H837 H 0.82588 0.58678 0.19571 0.0
H838 H 0.8958 0.5468 0.26772 0.0
H839 H 0.94798 0.53364 0.27557 0.0
H840 H 0.96081 0.50584 0.20916 0.0
H841 H 0.90866 0.51856 0.20098 0.0
C842 C 0.75198 0.53452 0.27923 0.0
C843 C 0.7457 0.50377 0.2805 0.0
C844 C 0.77407 0.54528 0.26517 0.0
C845 C 0.79071 0.52562 0.25214 0.0
C846 C 0.78514 0.49489 0.25363 0.0
C847 C 0.76273 0.48407 0.26755 0.0
C848 C 0.81416 0.53739 0.23725 0.0
C849 C 0.84393 0.52956 0.24096 0.0
C850 C 0.80751 0.55791 0.22049 0.0
C851 C 0.77639 0.56656 0.2156 0.0
C852 C 0.75484 0.54473 0.21086 0.0
C853 C 0.7254 0.55298 0.20674 0.0
C854 C 0.71727 0.58302 0.20717 0.0
C855 C 0.7386 0.60488 0.21165 0.0
C856 C 0.76806 0.59675 0.21581 0.0
C857 C 0.91498 0.58843 0.16839 0.0
C858 C 0.93458 0.60634 0.18045 0.0
C859 C 0.89005 0.57545 0.17854 0.0
C860 C 0.88476 0.57992 0.20092 0.0
C861 C 0.90369 0.59887 0.21268 0.0
C862 C 0.92828 0.61205 0.20253 0.0
C863 C 0.86068 0.56354 0.2125 0.0
C864 C 0.83088 0.57068 0.20829 0.0
C865 C 0.86726 0.54241 0.22883 0.0
C866 C 0.89839 0.53382 0.23373 0.0
C867 C 0.90972 0.5377 0.25484 0.0
C868 C 0.9393 0.53038 0.25933 0.0
C869 C 0.95773 0.51899 0.24286 0.0
C870 C 0.94655 0.51474 0.22189 0.0
C871 C 0.917 0.52207 0.21731 0.0
H872 H 0.98065 0.51342 0.24635 0.0
H873 H 0.69446 0.58936 0.204 0.0
H874 H 0.40849 0.41216 0.71561 0.0
H875 H 0.42532 0.36944 0.73637 0.0
H876 H 0.3966 0.31032 0.6852 0.0
H877 H 0.38119 0.35323 0.6634 0.0
H878 H 0.37922 0.29731 0.73435 0.0
H879 H 0.46165 0.31366 0.68449 0.0
H880 H 0.49875 0.34507 0.66562 0.0
H881 H 0.53507 0.37208 0.72715 0.0
H882 H 0.49785 0.34119 0.7464 0.0
H883 H 0.44454 0.17757 0.7929 0.0
H884 H 0.42894 0.20896 0.76231 0.0
H885 H 0.48494 0.28018 0.7862 0.0
H886 H 0.50195 0.24807 0.8156 0.0
H887 H 0.48748 0.2821 0.7456 0.0
H888 H 0.40484 0.27356 0.79605 0.0
H889 H 0.36725 0.2462 0.81765 0.0
H890 H 0.33041 0.2094 0.75902 0.0
H891 H 0.36804 0.23627 0.73709 0.0
C892 C 0.40621 0.39024 0.70838 0.0
C893 C 0.3939 0.38646 0.68747 0.0
C894 C 0.41555 0.36576 0.72049 0.0
C895 C 0.41231 0.33679 0.71228 0.0
C896 C 0.39923 0.33258 0.6918 0.0
C897 C 0.39033 0.35719 0.67942 0.0
C898 C 0.42339 0.31127 0.72516 0.0
C899 C 0.40287 0.29344 0.7365 0.0
C900 C 0.45421 0.30695 0.72841 0.0
C901 C 0.47681 0.32529 0.71687 0.0
C902 C 0.47738 0.32649 0.69399 0.0
C903 C 0.49847 0.34417 0.68323 0.0
C904 C 0.51922 0.36061 0.69517 0.0
C905 C 0.51897 0.35935 0.71791 0.0
C906 C 0.49791 0.34173 0.72876 0.0
C907 C 0.45368 0.19982 0.79132 0.0
C908 C 0.4738 0.2108 0.80679 0.0
C909 C 0.44461 0.21786 0.774 0.0
C910 C 0.45502 0.2474 0.7722 0.0
C911 C 0.47631 0.25766 0.78717 0.0
C912 C 0.48588 0.23942 0.80409 0.0
C913 C 0.44335 0.26816 0.75533 0.0
C914 C 0.46378 0.28535 0.74326 0.0
C915 C 0.41239 0.27234 0.75183 0.0
C916 C 0.38944 0.25664 0.76496 0.0
C917 C 0.3888 0.25952 0.78778 0.0
C918 C 0.36749 0.2441 0.80008 0.0
C919 C 0.34652 0.22599 0.78972 0.0
C920 C 0.34671 0.22338 0.76703 0.0
C921 C 0.36801 0.23871 0.75465 0.0
H922 H 0.33008 0.21403 0.79927 0.0
H923 H 0.53553 0.37428 0.68681 0.0
H924 H 0.57858 0.90794 0.16179 0.0
H925 H 0.62177 0.93135 0.17941 0.0
H926 H 0.61081 0.87261 0.23437 0.0
H927 H 0.56787 0.84915 0.21658 0.0
H928 H 0.62247 0.96235 0.21619 0.0
H929 H 0.67759 0.86184 0.25916 0.0
H930 H 0.68568 0.80815 0.25276 0.0
H931 H 0.67988 0.82164 0.18373 0.0
H932 H 0.67221 0.87546 0.18968 0.0
H933 H 0.70881 1.00815 0.30653 0.0
H934 H 0.67402 0.98369 0.28178 0.0
H935 H 0.74749 0.95438 0.2415 0.0
H936 H 0.78258 0.97828 0.26658 0.0
H937 H 0.70863 0.9095 0.24815 0.0
H938 H 0.7023 0.0107 0.22486 0.0
H939 H 0.69581 0.06496 0.22924 0.0
H940 H 0.60748 0.05116 0.25457 0.0
H941 H 0.61359 0.99677 0.25064 0.0
C942 C 0.58605 0.89957 0.17734 0.0
C943 C 0.57042 0.87647 0.18772 0.0
C944 C 0.61049 0.91309 0.18751 0.0
C945 C 0.61976 0.9037 0.20821 0.0
C946 C 0.60451 0.87998 0.21828 0.0
C947 C 0.58006 0.86651 0.20812 0.0
C948 C 0.64408 0.91985 0.21986 0.0
C949 C 0.64135 0.95075 0.22309 0.0
C950 C 0.66901 0.90495 0.22867 0.0
C951 C 0.67407 0.87266 0.2249 0.0
C952 C 0.67819 0.85338 0.24261 0.0
C953 C 0.68268 0.82291 0.23906 0.0
C954 C 0.68321 0.81147 0.21786 0.0
C955 C 0.67936 0.8305 0.20015 0.0
C956 C 0.67491 0.86099 0.2036 0.0
C957 C 0.71762 0.99657 0.29238 0.0
C958 C 0.74856 0.99524 0.28857 0.0
C959 C 0.69764 0.98272 0.27814 0.0
C960 C 0.70803 0.9673 0.25963 0.0
C961 C 0.73888 0.96616 0.25563 0.0
C962 C 0.75892 0.98012 0.26987 0.0
C963 C 0.68664 0.95184 0.24484 0.0
C964 C 0.68985 0.92109 0.24111 0.0
C965 C 0.66233 0.96694 0.23531 0.0
C966 C 0.6585 0.99964 0.2376 0.0
C967 C 0.68157 0.01922 0.23151 0.0
C968 C 0.67795 0.05 0.23389 0.0
C969 C 0.65127 0.0615 0.24221 0.0
C970 C 0.62814 0.04222 0.24814 0.0
C971 C 0.63166 0.01142 0.24581 0.0
H972 H 0.64851 0.08534 0.24404 0.0
H973 H 0.68666 0.78788 0.21515 0.0
H974 H 0.04814 0.27829 0.81848 0.0
H975 H 0.06484 0.24585 0.78888 0.0
H976 H 0.97342 0.22497 0.77366 0.0
H977 H 0.95661 0.25737 0.80385 0.0
H978 H 1.0077 0.17542 0.77446 0.0
H979 H 0.01515 0.27181 0.74122 0.0
H980 H 0.03072 0.32446 0.73938 0.0
H981 H 0.12257 0.29816 0.74152 0.0
H982 H 0.10755 0.24535 0.74372 0.0
H983 H 0.04578 0.09537 0.67951 0.0
H984 H 0.02469 0.13411 0.7031 0.0
H985 H 0.11329 0.16259 0.72048 0.0
H986 H 0.13448 0.12413 0.69653 0.0
H987 H 0.07785 0.20968 0.71692 0.0
H988 H 0.07229 0.11558 0.75343 0.0
H989 H 0.05901 0.06254 0.75756 0.0
H990 H 0.96629 0.08413 0.75149 0.0
H991 H 0.97907 0.13728 0.747 0.0
C992 C 0.03158 0.26699 0.80871 0.0
C993 C 1.00107 0.27038 0.81332 0.0
C994 C 0.04115 0.24852 0.79173 0.0
C995 C 0.0204 0.23329 0.77878 0.0
C996 C 0.98982 0.23664 0.78336 0.0
C997 C 0.98022 0.25514 0.80049 0.0
C998 C 0.03092 0.21317 0.761 0.0
C999 C 0.02253 0.18305 0.76161 0.0
C1000 C 0.05108 0.22289 0.74462 0.0
C1001 C 0.0602 0.25461 0.74276 0.0
C1002 C 0.03867 0.27725 0.74139 0.0
C1003 C 0.0474 0.30713 0.74029 0.0
C1004 C 0.07762 0.31466 0.74036 0.0
C1005 C 0.09917 0.2923 0.74146 0.0
C1006 C 0.09056 0.26238 0.74261 0.0
C1007 C 0.06075 0.11013 0.68817 0.0
C1008 C 0.09179 0.10659 0.68629 0.0
C1009 C 0.04868 0.13221 0.70171 0.0
C1010 C 0.06737 0.1509 0.71397 0.0
C1011 C 0.09839 0.1484 0.71126 0.0
C1012 C 0.1105 0.12648 0.69752 0.0
C1013 C 0.05459 0.17192 0.73039 0.0
C1014 C 0.06268 0.20214 0.72959 0.0
C1015 C 0.03443 0.16225 0.74678 0.0
C1016 C 0.02666 0.13035 0.74964 0.0
C1017 C 0.04909 0.10898 0.75281 0.0
C1018 C 0.04165 0.07891 0.75524 0.0
C1019 C 0.01183 0.06996 0.75472 0.0
C1020 C 0.98938 0.09109 0.75184 0.0
C1021 C 0.9967 0.12119 0.74937 0.0
H1022 H 1.00611 0.04666 0.7566 0.0
H1023 H 0.08433 0.33781 0.73954 0.0
H1024 H 0.09378 0.38024 0.8004 0.0
H1025 H 0.13406 0.40045 0.77828 0.0
H1026 H 0.18062 0.42727 0.8364 0.0
H1027 H 0.14054 0.40583 0.85888 0.0
H1028 H 0.15489 0.45376 0.77284 0.0
H1029 H 0.25648 0.42363 0.82568 0.0
H1030 H 0.27123 0.386 0.85274 0.0
H1031 H 0.20887 0.3237 0.82551 0.0
H1032 H 0.19407 0.3608 0.79814 0.0
H1033 H 0.27787 0.52206 0.72246 0.0
H1034 H 0.24487 0.50583 0.7521 0.0
H1035 H 0.26747 0.4142 0.73832 0.0
H1036 H 0.30137 0.43063 0.70918 0.0
H1037 H 0.25988 0.42164 0.78118 0.0
H1038 H 0.20588 0.44603 0.71654 0.0
H1039 H 0.19043 0.47811 0.68614 0.0
H1040 H 0.15516 0.5422 0.73158 0.0
H1041 H 0.17082 0.51067 0.76227 0.0
C1042 C 0.11272 0.39007 0.80859 0.0
C1043 C 0.1141 0.39093 0.83149 0.0
C1044 C 0.13565 0.40196 0.79585 0.0
C1045 C 0.16058 0.41519 0.8056 0.0
C1046 C 0.16181 0.41681 0.82848 0.0
C1047 C 0.13877 0.40478 0.84132 0.0
C1048 C 0.18509 0.42698 0.79156 0.0
C1049 C 0.17787 0.44691 0.77483 0.0
C1050 C 0.21505 0.41767 0.79378 0.0
C1051 C 0.22391 0.39513 0.81007 0.0
C1052 C 0.24597 0.40187 0.82546 0.0
C1053 C 0.25434 0.38064 0.84085 0.0
C1054 C 0.2409 0.35252 0.8409 0.0
C1055 C 0.21916 0.34553 0.82552 0.0
C1056 C 0.21075 0.36667 0.81009 0.0
C1057 C 0.27657 0.49856 0.72634 0.0
C1058 C 0.29251 0.47757 0.7139 0.0
C1059 C 0.25747 0.48926 0.74308 0.0
C1060 C 0.25337 0.45875 0.74729 0.0
C1061 C 0.27032 0.43785 0.73546 0.0
C1062 C 0.28965 0.44719 0.71884 0.0
C1063 C 0.22962 0.44851 0.76261 0.0
C1064 C 0.23697 0.42886 0.77948 0.0
C1065 C 0.19955 0.45733 0.76013 0.0
C1066 C 0.1898 0.47615 0.7417 0.0
C1067 C 0.195 0.46706 0.72005 0.0
C1068 C 0.1862 0.48513 0.70277 0.0
C1069 C 0.17191 0.51222 0.70693 0.0
C1070 C 0.16629 0.52124 0.72838 0.0
C1071 C 0.17511 0.50327 0.74573 0.0
H1072 H 0.16512 0.52619 0.69353 0.0
H1073 H 0.2474 0.33612 0.85283 0.0
H1074 H 0.56057 0.5623 0.35753 0.0
H1075 H 0.53845 0.60596 0.33975 0.0
H1076 H 0.61966 0.6189 0.30297 0.0
H1077 H 0.64135 0.575 0.32031 0.0
H1078 H 0.55076 0.66568 0.33437 0.0
H1079 H 0.60187 0.63458 0.25093 0.0
H1080 H 0.62204 0.59016 0.23217 0.0
H1081 H 0.56537 0.53372 0.27076 0.0
H1082 H 0.54454 0.5778 0.28949 0.0
H1083 H 0.52529 0.78114 0.25533 0.0
H1084 H 0.546 0.74425 0.28039 0.0
H1085 H 0.49109 0.67604 0.25135 0.0
H1086 H 0.47056 0.71265 0.22632 0.0
H1087 H 0.54566 0.65671 0.2539 0.0
H1088 H 0.47757 0.70457 0.30344 0.0
H1089 H 0.45501 0.74699 0.32314 0.0
H1090 H 0.53909 0.76663 0.35293 0.0
H1091 H 0.56225 0.72454 0.33318 0.0
C1092 C 0.57382 0.575 0.34604 0.0
C1093 C 0.60262 0.56547 0.34031 0.0
C1094 C 0.56124 0.59989 0.33589 0.0
C1095 C 0.57724 0.61552 0.3198 0.0
C1096 C 0.60674 0.60703 0.31513 0.0
C1097 C 0.61921 0.58211 0.32515 0.0
C1098 C 0.5623 0.63877 0.30647 0.0
C1099 C 0.54972 0.66381 0.31677 0.0
C1100 C 0.56038 0.6361 0.28352 0.0
C1101 C 0.57186 0.6095 0.27173 0.0
C1102 C 0.59357 0.61271 0.25529 0.0
C1103 C 0.60514 0.58758 0.24469 0.0
C1104 C 0.59505 0.55913 0.25031 0.0
C1105 C 0.57322 0.55576 0.26645 0.0
C1106 C 0.56152 0.5808 0.27706 0.0
C1107 C 0.51718 0.75842 0.25462 0.0
C1108 C 0.49635 0.74985 0.23875 0.0
C1109 C 0.5291 0.73729 0.26893 0.0
C1110 C 0.52018 0.70723 0.26781 0.0
C1111 C 0.49858 0.69896 0.25248 0.0
C1112 C 0.4868 0.71997 0.23817 0.0
C1113 C 0.53427 0.68398 0.28172 0.0
C1114 C 0.54674 0.6588 0.27149 0.0
C1115 C 0.5356 0.68635 0.30473 0.0
C1116 C 0.5217 0.71158 0.31668 0.0
C1117 C 0.49129 0.71807 0.31407 0.0
C1118 C 0.47839 0.74203 0.32527 0.0
C1119 C 0.49562 0.75954 0.33924 0.0
C1120 C 0.52578 0.75307 0.34208 0.0
C1121 C 0.5388 0.72915 0.33091 0.0
H1122 H 0.48559 0.77808 0.34789 0.0
H1123 H 0.60412 0.53971 0.24214 0.0
H1124 H 0.39148 0.05424 0.83753 0.0
H1125 H 0.35021 0.03799 0.8146 0.0
H1126 H 0.3253 0.1296 0.80423 0.0
H1127 H 0.36653 0.14602 0.82741 0.0
H1128 H 0.27625 0.09479 0.80821 0.0
H1129 H 0.36661 0.0922 0.76641 0.0
H1130 H 0.4188 0.07873 0.75844 0.0
H1131 H 0.39559 0.98587 0.75966 0.0
H1132 H 0.34332 0.99879 0.76798 0.0
H1133 H 0.19428 0.06797 0.70995 0.0
H1134 H 0.22794 0.08534 0.73868 0.0
H1135 H 0.25727 0.99494 0.74879 0.0
H1136 H 0.22437 0.97786 0.71957 0.0
H1137 H 0.30336 0.03037 0.74528 0.0
H1138 H 0.21174 0.034 0.78639 0.0
H1139 H 0.15965 0.04879 0.79338 0.0
H1140 H 0.18512 0.14105 0.7922 0.0
H1141 H 0.23732 0.12682 0.78489 0.0
C1142 C 0.37708 0.07094 0.83052 0.0
C1143 C 0.38247 0.10144 0.83417 0.0
C1144 C 0.35348 0.06162 0.81738 0.0
C1145 C 0.33493 0.08256 0.8073 0.0
C1146 C 0.33932 0.113 0.81177 0.0
C1147 C 0.36286 0.12236 0.82507 0.0
C1148 C 0.31211 0.07264 0.79125 0.0
C1149 C 0.28221 0.08095 0.79432 0.0
C1150 C 0.31973 0.0543 0.77321 0.0
C1151 C 0.35111 0.04646 0.76803 0.0
C1152 C 0.37268 0.0689 0.76513 0.0
C1153 C 0.40227 0.06137 0.76054 0.0
C1154 C 0.41052 0.03146 0.7586 0.0
C1155 C 0.38918 1.00903 0.7612 0.0
C1156 C 0.35956 0.01644 0.76584 0.0
C1157 C 0.20742 0.05182 0.71874 0.0
C1158 C 0.20623 0.02153 0.713 0.0
C1159 C 0.22664 0.06171 0.73515 0.0
C1160 C 0.24496 0.04143 0.74619 0.0
C1161 C 0.24328 0.01103 0.74066 0.0
C1162 C 0.22423 1.0012 0.72417 0.0
C1163 C 0.26731 0.05201 0.7624 0.0
C1164 C 0.29727 0.04401 0.75924 0.0
C1165 C 0.2597 0.07076 0.78023 0.0
C1166 C 0.2284 0.07934 0.78492 0.0
C1167 C 0.2062 0.05745 0.78749 0.0
C1168 C 0.17666 0.06573 0.79152 0.0
C1169 C 0.16906 0.09584 0.79318 0.0
C1170 C 0.19103 0.11773 0.79089 0.0
C1171 C 0.2206 0.10957 0.78683 0.0
H1172 H 0.14617 0.10221 0.79628 0.0
H1173 H 0.43345 0.02567 0.75504 0.0
H1174 H 0.95481 0.75131 0.2137 0.0
H1175 H 0.93157 0.79148 0.23485 0.0
H1176 H 1.00547 0.79092 0.27932 0.0
H1177 H 0.02927 0.75088 0.25775 0.0
H1178 H 0.94384 0.78988 0.29892 0.0
H1179 H 1.00509 0.845 0.24871 0.0
H1180 H 0.02499 0.85825 0.2125 0.0
H1181 H 0.93707 0.88116 0.19124 0.0
H1182 H 0.91654 0.86756 0.22725 0.0
H1183 H 0.90435 0.92519 0.35419 0.0
H1184 H 0.92847 0.8828 0.336 0.0
H1185 H 0.87201 0.89521 0.28015 0.0
H1186 H 0.84841 0.93806 0.29829 0.0
H1187 H 0.92695 0.88983 0.26712 0.0
H1188 H 0.86461 0.83442 0.31553 0.0
H1189 H 0.84244 0.81974 0.35074 0.0
H1190 H 0.92888 0.7957 0.37439 0.0
H1191 H 0.95165 0.81067 0.33941 0.0
C1192 C 0.96616 0.75983 0.22795 0.0
C1193 C 0.9938 0.748 0.23414 0.0
C1194 C 0.95288 0.78277 0.24 0.0
C1195 C 0.96675 0.79415 0.25867 0.0
C1196 C 0.99438 0.78238 0.26498 0.0
C1197 C 1.00802 0.7597 0.25262 0.0
C1198 C 0.95209 0.81833 0.27141 0.0
C1199 C 0.94057 0.81193 0.29219 0.0
C1200 C 0.94698 0.84672 0.26228 0.0
C1201 C 0.95924 0.85497 0.24062 0.0
C1202 C 0.98995 0.85258 0.23625 0.0
C1203 C 1.00135 0.86021 0.21577 0.0
C1204 C 0.9823 0.87047 0.19956 0.0
C1205 C 0.9518 0.87317 0.20381 0.0
C1206 C 0.94027 0.86553 0.22425 0.0
C1207 C 0.89654 0.91818 0.33832 0.0
C1208 C 0.87411 0.93431 0.32779 0.0
C1209 C 0.91038 0.89405 0.32787 0.0
C1210 C 0.90196 0.88551 0.30671 0.0
C1211 C 0.87891 0.90124 0.29646 0.0
C1212 C 0.86519 0.92547 0.30688 0.0
C1213 C 0.91839 0.8615 0.29474 0.0
C1214 C 0.93024 0.86788 0.27402 0.0
C1215 C 0.92346 0.83298 0.30385 0.0
C1216 C 0.90987 0.82397 0.32492 0.0
C1217 C 0.87893 0.82625 0.3283 0.0
C1218 C 0.86625 0.81784 0.34821 0.0
C1219 C 0.88425 0.80688 0.36482 0.0
C1220 C 0.91497 0.80424 0.36153 0.0
C1221 C 0.92778 0.81267 0.34165 0.0
H1222 H 0.87439 0.80035 0.38022 0.0
H1223 H 0.99118 0.87638 0.18372 0.0
loop_
_geom_bond_atom_site_label_1
_geom_bond_atom_site_label_2
_geom_bond_distance
_geom_bond_site_symmetry_2
_ccdc_geom_bond_type
C0 C1 1.443 . S
C0 N4 1.376 . S
C0 C38 1.389 . S
C1 C0 1.443 . S
C1 C2 1.340 . S
C1 H41 0.951 . S
C2 C1 1.340 . S
C2 C3 1.439 . S
C2 H42 0.950 . S
C3 C2 1.439 . S
C3 N4 1.374 . S
C3 C37 1.395 . S
N4 C0 1.376 . S
N4 C3 1.374 . S
N4 Co5 2.008 1_655 S
Co5 N4 2.008 1_455 S
Co5 N6 1.995 . S
Co5 N11 2.008 . S
Co5 N16 1.995 1_455 S
Co5 N21 2.282 . S
Co5 N27 2.282 1_455 S
N6 Co5 1.995 . S
N6 C7 1.376 1_455 S
N6 C10 1.383 . S
C7 N6 1.376 1_655 S
C7 C8 1.446 1_655 S
C7 C37 1.391 . S
C8 C7 1.446 1_455 S
C8 C9 1.339 . S
C8 H43 0.949 . S
C9 C8 1.339 . S
C9 C10 1.439 . S
C9 H44 0.950 . S
C10 N6 1.383 . S
C10 C9 1.439 . S
C10 C39 1.392 . S
N11 Co5 2.008 . S
N11 C12 1.376 . S
N11 C15 1.374 . S
C12 N11 1.376 . S
C12 C13 1.443 . S
C12 C39 1.389 . S
C13 C12 1.443 . S
C13 C14 1.340 . S
C13 H45 0.951 . S
C14 C13 1.340 . S
C14 C15 1.439 . S
C14 H46 0.950 . S
C15 N11 1.374 . S
C15 C14 1.439 . S
C15 C40 1.395 . S
N16 Co5 1.995 1_655 S
N16 C17 1.376 1_655 S
N16 C20 1.383 . S
C17 N16 1.376 1_455 S
C17 C18 1.446 1_455 S
C17 C40 1.391 . S
C18 C17 1.446 1_655 S
C18 C19 1.339 . S
C18 H47 0.949 . S
C19 C18 1.339 . S
C19 C20 1.439 . S
C19 H48 0.950 . S
C20 N16 1.383 . S
C20 C19 1.439 . S
C20 C38 1.392 . S
N21 Co5 2.282 . S
N21 C24 1.332 . S
N21 C26 1.332 . S
C22 C23 1.386 . S
C22 C25 1.388 . S
C23 C22 1.386 . S
C23 C24 1.382 . S
C23 H49 0.950 . S
C24 N21 1.332 . S
C24 C23 1.382 . S
C24 H35 0.952 . S
C25 C22 1.388 . S
C25 C26 1.382 . S
C25 H50 0.950 . S
C26 N21 1.332 . S
C26 C25 1.382 . S
C26 H36 0.948 1_455 S
N27 Co5 2.282 1_655 S
N27 C31 1.332 . S
N27 C32 1.332 . S
C28 C29 1.388 . S
C28 C32 1.382 . S
C28 H51 0.950 . S
C29 C28 1.388 . S
C29 C30 1.386 . S
C30 C29 1.386 . S
C30 C31 1.382 . S
C30 H52 0.950 . S
C31 N27 1.332 . S
C31 C30 1.382 . S
C31 H33 0.952 . S
C32 N27 1.332 . S
C32 C28 1.382 . S
C32 H34 0.948 1_655 S
H33 C31 0.952 . S
H34 C32 0.948 1_455 S
H35 C24 0.952 . S
H36 C26 0.948 1_655 S
C37 C3 1.395 . S
C37 C7 1.391 . S
C38 C0 1.389 . S
C38 C20 1.392 . S
C39 C10 1.392 . S
C39 C12 1.389 . S
C40 C15 1.395 . S
C40 C17 1.391 . S
H41 C1 0.951 . S
H42 C2 0.950 . S
H43 C8 0.949 . S
H44 C9 0.950 . S
H45 C13 0.951 . S
H46 C14 0.950 . S
H47 C18 0.949 . S
H48 C19 0.950 . S
H49 C23 0.950 . S
H50 C25 0.950 . S
H51 C28 0.950 . S
H52 C30 0.950 . S
C53 C54 1.443 . S
C53 N57 1.376 . S
C53 C91 1.389 . S
C54 C53 1.443 . S
C54 C55 1.340 . S
C54 H94 0.951 . S
C55 C54 1.340 . S
C55 C56 1.439 . S
C55 H95 0.950 . S
C56 C55 1.439 . S
C56 N57 1.374 . S
C56 C90 1.395 . S
N57 C53 1.376 . S
N57 C56 1.374 . S
N57 Co58 2.008 . S
Co58 N57 2.008 . S
Co58 N59 1.995 . S
Co58 N64 2.008 . S
Co58 N69 1.995 . S
Co58 N74 2.282 . S
Co58 N80 2.282 . S
N59 Co58 1.995 . S
N59 C60 1.376 . S
N59 C63 1.383 . S
C60 N59 1.376 . S
C60 C61 1.446 . S
C60 C90 1.391 . S
C61 C60 1.446 . S
C61 C62 1.339 . S
C61 H96 0.949 . S
C62 C61 1.339 . S
C62 C63 1.439 . S
C62 H97 0.950 . S
C63 N59 1.383 . S
C63 C62 1.439 . S
C63 C92 1.392 . S
N64 Co58 2.008 . S
N64 C65 1.376 . S
N64 C68 1.374 . S
C65 N64 1.376 . S
C65 C66 1.443 . S
C65 C92 1.389 . S
C66 C65 1.443 . S
C66 C67 1.340 . S
C66 H98 0.951 . S
C67 C66 1.340 . S
C67 C68 1.439 . S
C67 H99 0.950 . S
C68 N64 1.374 . S
C68 C67 1.439 . S
C68 C93 1.395 . S
N69 Co58 1.995 . S
N69 C70 1.376 . S
N69 C73 1.383 . S
C70 N69 1.376 . S
C70 C71 1.446 . S
C70 C93 1.391 . S
C71 C70 1.446 . S
C71 C72 1.339 . S
C71 H100 0.949 . S
C72 C71 1.339 . S
C72 C73 1.439 . S
C72 H101 0.950 . S
C73 N69 1.383 . S
C73 C72 1.439 . S
C73 C91 1.392 . S
N74 Co58 2.282 . S
N74 C77 1.332 . S
N74 C79 1.332 . S
C75 C76 1.386 . S
C75 C78 1.388 . S
C76 C75 1.386 . S
C76 C77 1.382 . S
C76 H102 0.950 . S
C77 N74 1.332 . S
C77 C76 1.382 . S
C77 H88 0.952 . S
C78 C75 1.388 . S
C78 C79 1.382 . S
C78 H103 0.950 . S
C79 N74 1.332 . S
C79 C78 1.382 . S
C79 H89 0.948 . S
N80 Co58 2.282 . S
N80 C84 1.332 . S
N80 C85 1.332 . S
C81 C82 1.388 . S
C81 C85 1.382 . S
C81 H104 0.950 . S
C82 C81 1.388 . S
C82 C83 1.386 . S
C83 C82 1.386 . S
C83 C84 1.382 . S
C83 H105 0.950 . S
C84 N80 1.332 . S
C84 C83 1.382 . S
C84 H86 0.952 . S
C85 N80 1.332 . S
C85 C81 1.382 . S
C85 H87 0.948 . S
H86 C84 0.952 . S
H87 C85 0.948 . S
H88 C77 0.952 . S
H89 C79 0.948 . S
C90 C56 1.395 . S
C90 C60 1.391 . S
C91 C53 1.389 . S
C91 C73 1.392 . S
C92 C63 1.392 . S
C92 C65 1.389 . S
C93 C68 1.395 . S
C93 C70 1.391 . S
H94 C54 0.951 . S
H95 C55 0.950 . S
H96 C61 0.949 . S
H97 C62 0.950 . S
H98 C66 0.951 . S
H99 C67 0.950 . S
H100 C71 0.949 . S
H101 C72 0.950 . S
H102 C76 0.950 . S
H103 C78 0.950 . S
H104 C81 0.950 . S
H105 C83 0.950 . S
C106 C107 1.443 . S
C106 N110 1.376 . S
C106 C144 1.389 . S
C107 C106 1.443 . S
C107 C108 1.340 . S
C107 H147 0.951 . S
C108 C107 1.340 . S
C108 C109 1.439 . S
C108 H148 0.950 . S
C109 C108 1.439 . S
C109 N110 1.374 . S
C109 C143 1.395 . S
N110 C106 1.376 . S
N110 C109 1.374 . S
N110 Co111 2.008 . S
Co111 N110 2.008 . S
Co111 N112 1.995 . S
Co111 N117 2.008 . S
Co111 N122 1.995 . S
Co111 N127 2.282 . S
Co111 N133 2.282 . S
N112 Co111 1.995 . S
N112 C113 1.376 . S
N112 C116 1.383 . S
C113 N112 1.376 . S
C113 C114 1.446 . S
C113 C143 1.391 . S
C114 C113 1.446 . S
C114 C115 1.339 . S
C114 H149 0.949 . S
C115 C114 1.339 . S
C115 C116 1.439 . S
C115 H150 0.950 . S
C116 N112 1.383 . S
C116 C115 1.439 . S
C116 C145 1.392 . S
N117 Co111 2.008 . S
N117 C118 1.376 . S
N117 C121 1.374 . S
C118 N117 1.376 . S
C118 C119 1.443 . S
C118 C145 1.389 . S
C119 C118 1.443 . S
C119 C120 1.340 . S
C119 H151 0.951 . S
C120 C119 1.340 . S
C120 C121 1.439 . S
C120 H152 0.950 . S
C121 N117 1.374 . S
C121 C120 1.439 . S
C121 C146 1.395 . S
N122 Co111 1.995 . S
N122 C123 1.376 . S
N122 C126 1.383 . S
C123 N122 1.376 . S
C123 C124 1.446 . S
C123 C146 1.391 . S
C124 C123 1.446 . S
C124 C125 1.339 . S
C124 H153 0.949 . S
C125 C124 1.339 . S
C125 C126 1.439 . S
C125 H154 0.950 . S
C126 N122 1.383 . S
C126 C125 1.439 . S
C126 C144 1.392 . S
N127 Co111 2.282 . S
N127 C130 1.332 . S
N127 C132 1.332 . S
C128 C129 1.386 . S
C128 C131 1.388 . S
C129 C128 1.386 . S
C129 C130 1.382 . S
C129 H155 0.950 . S
C130 N127 1.332 . S
C130 C129 1.382 . S
C130 H141 0.952 . S
C131 C128 1.388 . S
C131 C132 1.382 . S
C131 H156 0.950 . S
C132 N127 1.332 . S
C132 C131 1.382 . S
C132 H142 0.948 . S
N133 Co111 2.282 . S
N133 C137 1.332 . S
N133 C138 1.332 . S
C134 C135 1.388 . S
C134 C138 1.382 . S
C134 H157 0.950 . S
C135 C134 1.388 . S
C135 C136 1.386 . S
C136 C135 1.386 . S
C136 C137 1.382 . S
C136 H158 0.950 . S
C137 N133 1.332 . S
C137 C136 1.382 . S
C137 H139 0.952 . S
C138 N133 1.332 . S
C138 C134 1.382 . S
C138 H140 0.948 . S
H139 C137 0.952 . S
H140 C138 0.948 . S
H141 C130 0.952 . S
H142 C132 0.948 . S
C143 C109 1.395 . S
C143 C113 1.391 . S
C144 C106 1.389 . S
C144 C126 1.392 . S
C145 C116 1.392 . S
C145 C118 1.389 . S
C146 C121 1.395 . S
C146 C123 1.391 . S
H147 C107 0.951 . S
H148 C108 0.950 . S
H149 C114 0.949 . S
H150 C115 0.950 . S
H151 C119 0.951 . S
H152 C120 0.950 . S
H153 C124 0.949 . S
H154 C125 0.950 . S
H155 C129 0.950 . S
H156 C131 0.950 . S
H157 C134 0.950 . S
H158 C136 0.950 . S
C159 C160 1.443 . S
C159 N163 1.376 . S
C159 C197 1.389 . S
C160 C159 1.443 . S
C160 C161 1.340 . S
C160 H200 0.951 . S
C161 C160 1.340 . S
C161 C162 1.439 . S
C161 H201 0.950 . S
C162 C161 1.439 . S
C162 N163 1.374 . S
C162 C196 1.395 . S
N163 C159 1.376 . S
N163 C162 1.374 . S
N163 Co164 2.008 . S
Co164 N163 2.008 . S
Co164 N165 1.995 . S
Co164 N170 2.008 1_565 S
Co164 N175 1.995 1_565 S
Co164 N180 2.282 1_565 S
Co164 N186 2.282 . S
N165 Co164 1.995 . S
N165 C166 1.376 . S
N165 C169 1.383 . S
C166 N165 1.376 . S
C166 C167 1.446 . S
C166 C196 1.391 . S
C167 C166 1.446 . S
C167 C168 1.339 . S
C167 H202 0.949 . S
C168 C167 1.339 . S
C168 C169 1.439 . S
C168 H203 0.950 . S
C169 N165 1.383 . S
C169 C168 1.439 . S
C169 C198 1.392 1_565 S
N170 Co164 2.008 1_545 S
N170 C171 1.376 . S
N170 C174 1.374 . S
C171 N170 1.376 . S
C171 C172 1.443 . S
C171 C198 1.389 . S
C172 C171 1.443 . S
C172 C173 1.340 . S
C172 H204 0.951 . S
C173 C172 1.340 . S
C173 C174 1.439 . S
C173 H205 0.950 . S
C174 N170 1.374 . S
C174 C173 1.439 . S
C174 C199 1.395 . S
N175 Co164 1.995 1_545 S
N175 C176 1.376 . S
N175 C179 1.383 . S
C176 N175 1.376 . S
C176 C177 1.446 . S
C176 C199 1.391 . S
C177 C176 1.446 . S
C177 C178 1.339 . S
C177 H206 0.949 . S
C178 C177 1.339 . S
C178 C179 1.439 . S
C178 H207 0.950 . S
C179 N175 1.383 . S
C179 C178 1.439 . S
C179 C197 1.392 1_545 S
N180 Co164 2.282 1_545 S
N180 C183 1.332 . S
N180 C185 1.332 . S
C181 C182 1.386 . S
C181 C184 1.388 . S
C182 C181 1.386 . S
C182 C183 1.382 . S
C182 H208 0.950 . S
C183 N180 1.332 . S
C183 C182 1.382 . S
C183 H194 0.952 . S
C184 C181 1.388 . S
C184 C185 1.382 . S
C184 H209 0.950 . S
C185 N180 1.332 . S
C185 C184 1.382 . S
C185 H195 0.948 . S
N186 Co164 2.282 . S
N186 C190 1.332 . S
N186 C191 1.332 . S
C187 C188 1.388 . S
C187 C191 1.382 . S
C187 H210 0.950 . S
C188 C187 1.388 . S
C188 C189 1.386 . S
C189 C188 1.386 . S
C189 C190 1.382 . S
C189 H211 0.950 . S
C190 N186 1.332 . S
C190 C189 1.382 . S
C190 H192 0.952 . S
C191 N186 1.332 . S
C191 C187 1.382 . S
C191 H193 0.948 . S
H192 C190 0.952 . S
H193 C191 0.948 . S
H194 C183 0.952 . S
H195 C185 0.948 . S
C196 C162 1.395 . S
C196 C166 1.391 . S
C197 C159 1.389 . S
C197 C179 1.392 1_565 S
C198 C169 1.392 1_545 S
C198 C171 1.389 . S
C199 C174 1.395 . S
C199 C176 1.391 . S
H200 C160 0.951 . S
H201 C161 0.950 . S
H202 C167 0.949 . S
H203 C168 0.950 . S
H204 C172 0.951 . S
H205 C173 0.950 . S
H206 C177 0.949 . S
H207 C178 0.950 . S
H208 C182 0.950 . S
H209 C184 0.950 . S
H210 C187 0.950 . S
H211 C189 0.950 . S
C212 C213 1.437 1_655 S
C212 N216 1.367 1_655 S
C212 C250 1.405 . S
C213 C212 1.437 1_455 S
C213 C214 1.340 . S
C213 H253 0.951 . S
C214 C213 1.340 . S
C214 C215 1.439 . S
C214 H254 0.950 . S
C215 C214 1.439 . S
C215 N216 1.374 . S
C215 C249 1.395 . S
N216 C212 1.367 1_455 S
N216 C215 1.374 . S
N216 Co217 2.008 1_455 S
Co217 N216 2.008 1_655 S
Co217 N218 1.995 1_655 S
Co217 N223 2.008 . S
Co217 N228 1.995 . S
Co217 N233 2.282 1_655 S
Co217 N239 2.282 . S
N218 Co217 1.995 1_455 S
N218 C219 1.376 . S
N218 C222 1.383 . S
C219 N218 1.376 . S
C219 C220 1.446 . S
C219 C249 1.391 . S
C220 C219 1.446 . S
C220 C221 1.339 . S
C220 H255 0.949 . S
C221 C220 1.339 . S
C221 C222 1.439 . S
C221 H256 0.950 . S
C222 N218 1.383 . S
C222 C221 1.439 . S
C222 C251 1.392 . S
N223 Co217 2.008 . S
N223 C224 1.369 1_655 S
N223 C227 1.374 . S
C224 N223 1.369 1_455 S
C224 C225 1.439 1_455 S
C224 C251 1.400 . S
C225 C224 1.439 1_655 S
C225 C226 1.340 . S
C225 H257 0.951 . S
C226 C225 1.340 . S
C226 C227 1.439 . S
C226 H258 0.950 . S
C227 N223 1.374 . S
C227 C226 1.439 . S
C227 C252 1.395 . S
N228 Co217 1.995 . S
N228 C229 1.376 . S
N228 C232 1.383 . S
C229 N228 1.376 . S
C229 C230 1.446 . S
C229 C252 1.391 . S
C230 C229 1.446 . S
C230 C231 1.339 . S
C230 H259 0.949 . S
C231 C230 1.339 . S
C231 C232 1.439 . S
C231 H260 0.950 . S
C232 N228 1.383 . S
C232 C231 1.439 . S
C232 C250 1.392 . S
N233 Co217 2.282 1_455 S
N233 C236 1.332 . S
N233 C238 1.332 . S
C234 C235 1.386 . S
C234 C237 1.388 . S
C235 C234 1.386 . S
C235 C236 1.382 . S
C235 H261 0.950 . S
C236 N233 1.332 . S
C236 C235 1.382 . S
C236 H247 0.952 . S
C237 C234 1.388 . S
C237 C238 1.382 . S
C237 H262 0.950 . S
C238 N233 1.332 . S
C238 C237 1.382 . S
C238 H248 0.948 . S
N239 Co217 2.282 . S
N239 C243 1.332 . S
N239 C244 1.332 . S
C240 C241 1.388 . S
C240 C244 1.382 . S
C240 H263 0.950 . S
C241 C240 1.388 . S
C241 C242 1.386 . S
C242 C241 1.386 . S
C242 C243 1.382 . S
C242 H264 0.950 . S
C243 N239 1.332 . S
C243 C242 1.382 . S
C243 H245 0.952 . S
C244 N239 1.332 . S
C244 C240 1.382 . S
C244 H246 0.948 . S
H245 C243 0.952 . S
H246 C244 0.948 . S
H247 C236 0.952 . S
H248 C238 0.948 . S
C249 C215 1.395 . S
C249 C219 1.391 . S
C250 C212 1.405 . S
C250 C232 1.392 . S
C251 C222 1.392 . S
C251 C224 1.400 . S
C252 C227 1.395 . S
C252 C229 1.391 . S
H253 C213 0.951 . S
H254 C214 0.950 . S
H255 C220 0.949 . S
H256 C221 0.950 . S
H257 C225 0.951 . S
H258 C226 0.950 . S
H259 C230 0.949 . S
H260 C231 0.950 . S
H261 C235 0.950 . S
H262 C237 0.950 . S
H263 C240 0.950 . S
H264 C242 0.950 . S
C265 C266 1.443 . S
C265 N269 1.376 . S
C265 C303 1.389 . S
C266 C265 1.443 . S
C266 C267 1.340 . S
C266 H306 0.951 . S
C267 C266 1.340 . S
C267 C268 1.439 . S
C267 H307 0.950 . S
C268 C267 1.439 . S
C268 N269 1.374 . S
C268 C302 1.395 . S
N269 C265 1.376 . S
N269 C268 1.374 . S
N269 Co270 2.008 . S
Co270 N269 2.008 . S
Co270 N271 1.995 . S
Co270 N276 2.008 . S
Co270 N281 1.995 . S
Co270 N286 2.282 . S
Co270 N292 2.282 . S
N271 Co270 1.995 . S
N271 C272 1.376 . S
N271 C275 1.383 . S
C272 N271 1.376 . S
C272 C273 1.446 . S
C272 C302 1.391 . S
C273 C272 1.446 . S
C273 C274 1.339 . S
C273 H308 0.949 . S
C274 C273 1.339 . S
C274 C275 1.439 . S
C274 H309 0.950 . S
C275 N271 1.383 . S
C275 C274 1.439 . S
C275 C304 1.392 . S
N276 Co270 2.008 . S
N276 C277 1.376 . S
N276 C280 1.374 . S
C277 N276 1.376 . S
C277 C278 1.443 . S
C277 C304 1.389 . S
C278 C277 1.443 . S
C278 C279 1.340 . S
C278 H310 0.951 . S
C279 C278 1.340 . S
C279 C280 1.439 . S
C279 H311 0.950 . S
C280 N276 1.374 . S
C280 C279 1.439 . S
C280 C305 1.395 . S
N281 Co270 1.995 . S
N281 C282 1.376 . S
N281 C285 1.383 . S
C282 N281 1.376 . S
C282 C283 1.446 . S
C282 C305 1.391 . S
C283 C282 1.446 . S
C283 C284 1.339 . S
C283 H312 0.949 . S
C284 C283 1.339 . S
C284 C285 1.439 . S
C284 H313 0.950 . S
C285 N281 1.383 . S
C285 C284 1.439 . S
C285 C303 1.392 . S
N286 Co270 2.282 . S
N286 C289 1.332 . S
N286 C291 1.332 . S
C287 C288 1.386 . S
C287 C290 1.388 . S
C288 C287 1.386 . S
C288 C289 1.382 . S
C288 H314 0.950 . S
C289 N286 1.332 . S
C289 C288 1.382 . S
C289 H300 0.952 . S
C290 C287 1.388 . S
C290 C291 1.382 . S
C290 H315 0.950 . S
C291 N286 1.332 . S
C291 C290 1.382 . S
C291 H301 0.948 . S
N292 Co270 2.282 . S
N292 C296 1.332 . S
N292 C297 1.332 . S
C293 C294 1.388 . S
C293 C297 1.382 . S
C293 H316 0.950 . S
C294 C293 1.388 . S
C294 C295 1.386 . S
C295 C294 1.386 . S
C295 C296 1.382 . S
C295 H317 0.950 . S
C296 N292 1.332 . S
C296 C295 1.382 . S
C296 H298 0.952 . S
C297 N292 1.332 . S
C297 C293 1.382 . S
C297 H299 0.948 . S
H298 C296 0.952 . S
H299 C297 0.948 . S
H300 C289 0.952 . S
H301 C291 0.948 . S
C302 C268 1.395 . S
C302 C272 1.391 . S
C303 C265 1.389 . S
C303 C285 1.392 . S
C304 C275 1.392 . S
C304 C277 1.389 . S
C305 C280 1.395 . S
C305 C282 1.391 . S
H306 C266 0.951 . S
H307 C267 0.950 . S
H308 C273 0.949 . S
H309 C274 0.950 . S
H310 C278 0.951 . S
H311 C279 0.950 . S
H312 C283 0.949 . S
H313 C284 0.950 . S
H314 C288 0.950 . S
H315 C290 0.950 . S
H316 C293 0.950 . S
H317 C295 0.950 . S
C318 C319 1.443 . S
C318 N322 1.376 . S
C318 C356 1.389 . S
C319 C318 1.443 . S
C319 C320 1.340 . S
C319 H359 0.951 . S
C320 C319 1.340 . S
C320 C321 1.439 . S
C320 H360 0.950 . S
C321 C320 1.439 . S
C321 N322 1.374 . S
C321 C355 1.395 . S
N322 C318 1.376 . S
N322 C321 1.374 . S
N322 Co323 2.008 . S
Co323 N322 2.008 . S
Co323 N324 1.995 . S
Co323 N329 2.008 . S
Co323 N334 1.995 . S
Co323 N339 2.282 . S
Co323 N345 2.282 . S
N324 Co323 1.995 . S
N324 C325 1.376 . S
N324 C328 1.383 . S
C325 N324 1.376 . S
C325 C326 1.446 . S
C325 C355 1.391 . S
C326 C325 1.446 . S
C326 C327 1.339 . S
C326 H361 0.949 . S
C327 C326 1.339 . S
C327 C328 1.439 . S
C327 H362 0.950 . S
C328 N324 1.383 . S
C328 C327 1.439 . S
C328 C357 1.392 . S
N329 Co323 2.008 . S
N329 C330 1.376 . S
N329 C333 1.374 . S
C330 N329 1.376 . S
C330 C331 1.443 . S
C330 C357 1.389 . S
C331 C330 1.443 . S
C331 C332 1.340 . S
C331 H363 0.951 . S
C332 C331 1.340 . S
C332 C333 1.439 . S
C332 H364 0.950 . S
C333 N329 1.374 . S
C333 C332 1.439 . S
C333 C358 1.395 . S
N334 Co323 1.995 . S
N334 C335 1.376 . S
N334 C338 1.383 . S
C335 N334 1.376 . S
C335 C336 1.446 . S
C335 C358 1.391 . S
C336 C335 1.446 . S
C336 C337 1.339 . S
C336 H365 0.949 . S
C337 C336 1.339 . S
C337 C338 1.439 . S
C337 H366 0.950 . S
C338 N334 1.383 . S
C338 C337 1.439 . S
C338 C356 1.392 . S
N339 Co323 2.282 . S
N339 C342 1.332 . S
N339 C344 1.332 . S
C340 C341 1.386 . S
C340 C343 1.388 . S
C341 C340 1.386 . S
C341 C342 1.382 . S
C341 H367 0.950 . S
C342 N339 1.332 . S
C342 C341 1.382 . S
C342 H353 0.952 . S
C343 C340 1.388 . S
C343 C344 1.382 . S
C343 H368 0.950 . S
C344 N339 1.332 . S
C344 C343 1.382 . S
C344 H354 0.948 . S
N345 Co323 2.282 . S
N345 C349 1.332 . S
N345 C350 1.332 . S
C346 C347 1.388 . S
C346 C350 1.382 . S
C346 H369 0.950 . S
C347 C346 1.388 . S
C347 C348 1.386 . S
C348 C347 1.386 . S
C348 C349 1.382 . S
C348 H370 0.950 . S
C349 N345 1.332 . S
C349 C348 1.382 . S
C349 H351 0.952 . S
C350 N345 1.332 . S
C350 C346 1.382 . S
C350 H352 0.948 . S
H351 C349 0.952 . S
H352 C350 0.948 . S
H353 C342 0.952 . S
H354 C344 0.948 . S
C355 C321 1.395 . S
C355 C325 1.391 . S
C356 C318 1.389 . S
C356 C338 1.392 . S
C357 C328 1.392 . S
C357 C330 1.389 . S
C358 C333 1.395 . S
C358 C335 1.391 . S
H359 C319 0.951 . S
H360 C320 0.950 . S
H361 C326 0.949 . S
H362 C327 0.950 . S
H363 C331 0.951 . S
H364 C332 0.950 . S
H365 C336 0.949 . S
H366 C337 0.950 . S
H367 C341 0.950 . S
H368 C343 0.950 . S
H369 C346 0.950 . S
H370 C348 0.950 . S
C371 C372 1.443 . S
C371 N375 1.376 . S
C371 C409 1.389 . S
C372 C371 1.443 . S
C372 C373 1.340 . S
C372 H412 0.951 . S
C373 C372 1.340 . S
C373 C374 1.439 1_565 S
C373 H413 0.950 . S
C374 C373 1.439 1_545 S
C374 N375 1.374 1_545 S
C374 C408 1.395 . S
N375 C371 1.376 . S
N375 C374 1.374 1_565 S
N375 Co376 2.008 1_565 S
Co376 N375 2.008 1_545 S
Co376 N377 1.995 . S
Co376 N382 2.008 . S
Co376 N387 1.995 1_545 S
Co376 N392 2.282 . S
Co376 N398 2.282 1_545 S
N377 Co376 1.995 . S
N377 C378 1.376 . S
N377 C381 1.383 . S
C378 N377 1.376 . S
C378 C379 1.446 . S
C378 C408 1.391 . S
C379 C378 1.446 . S
C379 C380 1.339 . S
C379 H414 0.949 . S
C380 C379 1.339 . S
C380 C381 1.439 . S
C380 H415 0.950 . S
C381 N377 1.383 . S
C381 C380 1.439 . S
C381 C410 1.392 . S
N382 Co376 2.008 . S
N382 C383 1.376 . S
N382 C386 1.374 1_545 S
C383 N382 1.376 . S
C383 C384 1.443 . S
C383 C410 1.389 . S
C384 C383 1.443 . S
C384 C385 1.340 . S
C384 H416 0.951 . S
C385 C384 1.340 . S
C385 C386 1.439 1_545 S
C385 H417 0.950 . S
C386 N382 1.374 1_565 S
C386 C385 1.439 1_565 S
C386 C411 1.395 . S
N387 Co376 1.995 1_565 S
N387 C388 1.376 . S
N387 C391 1.383 . S
C388 N387 1.376 . S
C388 C389 1.446 . S
C388 C411 1.391 . S
C389 C388 1.446 . S
C389 C390 1.339 . S
C389 H418 0.949 . S
C390 C389 1.339 . S
C390 C391 1.439 . S
C390 H419 0.950 . S
C391 N387 1.383 . S
C391 C390 1.439 . S
C391 C409 1.392 . S
N392 Co376 2.282 . S
N392 C395 1.332 1_545 S
N392 C397 1.332 . S
C393 C394 1.386 . S
C393 C396 1.388 . S
C394 C393 1.386 . S
C394 C395 1.382 1_545 S
C394 H420 0.950 1_545 S
C395 N392 1.332 1_565 S
C395 C394 1.382 1_565 S
C395 H406 0.952 . S
C396 C393 1.388 . S
C396 C397 1.382 . S
C396 H421 0.950 . S
C397 N392 1.332 . S
C397 C396 1.382 . S
C397 H407 0.948 . S
N398 Co376 2.282 1_565 S
N398 C402 1.332 1_565 S
N398 C403 1.332 . S
C399 C400 1.388 . S
C399 C403 1.382 . S
C399 H422 0.950 . S
C400 C399 1.388 . S
C400 C401 1.386 . S
C401 C400 1.386 . S
C401 C402 1.382 1_565 S
C401 H423 0.950 1_565 S
C402 N398 1.332 1_545 S
C402 C401 1.382 1_545 S
C402 H404 0.952 . S
C403 N398 1.332 . S
C403 C399 1.382 . S
C403 H405 0.948 . S
H404 C402 0.952 . S
H405 C403 0.948 . S
H406 C395 0.952 . S
H407 C397 0.948 . S
C408 C374 1.395 . S
C408 C378 1.391 . S
C409 C371 1.389 . S
C409 C391 1.392 . S
C410 C381 1.392 . S
C410 C383 1.389 . S
C411 C386 1.395 . S
C411 C388 1.391 . S
H412 C372 0.951 . S
H413 C373 0.950 . S
H414 C379 0.949 . S
H415 C380 0.950 . S
H416 C384 0.951 . S
H417 C385 0.950 . S
H418 C389 0.949 . S
H419 C390 0.950 . S
H420 C394 0.950 1_565 S
H421 C396 0.950 . S
H422 C399 0.950 . S
H423 C401 0.950 1_545 S
H424 C442 0.951 . S
H425 C444 0.951 . S
H426 C446 0.950 . S
H427 C447 0.950 . S
H428 C449 0.950 . S
H429 C452 0.950 . S
H430 C453 0.950 . S
H431 C455 0.950 . S
H432 C456 0.950 . S
H433 C457 0.951 . S
H434 C459 0.951 . S
H435 C461 0.950 . S
H436 C462 0.973 . S
H437 C464 0.950 . S
H438 C467 0.950 . S
H439 C468 0.950 . S
H440 C470 0.950 . S
H441 C471 0.996 . S
C442 H424 0.951 . S
C442 C443 1.366 . S
C442 C444 1.388 . S
C443 C442 1.366 . S
C443 C447 1.385 1_655 S
C444 H425 0.951 . S
C444 C442 1.388 . S
C444 C445 1.366 . S
C445 C444 1.366 . S
C445 C446 1.414 1_655 S
C445 C448 1.499 1_655 S
C446 H426 0.950 . S
C446 C445 1.414 1_455 S
C446 C447 1.374 . S
C447 H427 0.950 . S
C447 C443 1.385 1_455 S
C447 C446 1.374 . S
C448 C445 1.499 1_455 S
C448 C449 1.373 . S
C448 C450 1.389 1_455 S
C449 H428 0.950 . S
C449 C448 1.373 . S
C449 C465 1.377 1_556 S
C450 C448 1.389 1_655 S
C450 C451 1.524 . S
C450 C464 1.377 . S
C451 C450 1.524 . S
C451 C452 1.397 . S
C451 C456 1.363 . S
C452 H429 0.950 . S
C452 C451 1.397 . S
C452 C453 1.334 . S
C453 H430 0.950 . S
C453 C452 1.334 . S
C453 C454 1.287 . S
C454 C453 1.287 . S
C454 C455 1.524 . S
C454 H473 0.913 . S
C455 H431 0.950 . S
C455 C454 1.524 . S
C455 C456 1.415 . S
C456 H432 0.950 . S
C456 C451 1.363 . S
C456 C455 1.415 . S
C457 H433 0.951 . S
C457 C458 1.366 . S
C457 C459 1.388 . S
C458 C457 1.366 . S
C458 C462 1.356 1_455 S
C459 H434 0.951 . S
C459 C457 1.388 . S
C459 C460 1.366 . S
C460 C459 1.366 . S
C460 C461 1.414 1_455 S
C460 C463 1.499 . S
C461 H435 0.950 . S
C461 C460 1.414 1_655 S
C461 C462 1.380 . S
C462 H436 0.973 . S
C462 C458 1.356 1_655 S
C462 C461 1.380 . S
C463 C460 1.499 . S
C463 C464 1.373 1_454 S
C463 C465 1.389 . S
C464 H437 0.950 . S
C464 C450 1.377 . S
C464 C463 1.373 1_656 S
C465 C449 1.377 1_554 S
C465 C463 1.389 . S
C465 C466 1.524 . S
C466 C465 1.524 . S
C466 C467 1.397 . S
C466 C471 1.363 . S
C467 H438 0.950 . S
C467 C466 1.397 . S
C467 C468 1.334 . S
C468 H439 0.950 . S
C468 C467 1.334 . S
C468 C469 1.287 . S
C469 C468 1.287 . S
C469 C470 1.524 . S
C469 H472 0.999 . S
C470 H440 0.950 . S
C470 C469 1.524 . S
C470 C471 1.415 . S
C471 H441 0.996 . S
C471 C466 1.363 . S
C471 C470 1.415 . S
H472 C469 0.999 . S
H473 C454 0.913 . S
H474 C492 0.951 . S
H475 C494 0.951 . S
H476 C496 0.950 . S
H477 C497 0.950 . S
H478 C499 0.950 . S
H479 C502 0.950 . S
H480 C503 0.950 . S
H481 C505 0.950 . S
H482 C506 0.950 . S
H483 C507 0.951 . S
H484 C509 0.951 . S
H485 C511 0.950 . S
H486 C512 0.950 . S
H487 C514 0.950 . S
H488 C517 0.950 . S
H489 C518 0.950 . S
H490 C520 0.950 . S
H491 C521 0.950 . S
C492 H474 0.951 . S
C492 C493 1.366 . S
C492 C494 1.388 . S
C493 C492 1.366 . S
C493 C497 1.385 . S
C494 H475 0.951 . S
C494 C492 1.388 . S
C494 C495 1.366 . S
C495 C494 1.366 . S
C495 C496 1.414 . S
C495 C498 1.499 . S
C496 H476 0.950 . S
C496 C495 1.414 . S
C496 C497 1.374 . S
C497 H477 0.950 . S
C497 C493 1.385 . S
C497 C496 1.374 . S
C498 C495 1.499 . S
C498 C499 1.373 . S
C498 C500 1.389 . S
C499 H478 0.950 . S
C499 C498 1.373 . S
C499 C515 1.377 . S
C500 C498 1.389 . S
C500 C501 1.524 . S
C500 C514 1.377 . S
C501 C500 1.524 . S
C501 C502 1.397 . S
C501 C506 1.363 . S
C502 H479 0.950 . S
C502 C501 1.397 . S
C502 C503 1.334 . S
C503 H480 0.950 . S
C503 C502 1.334 . S
C503 C504 1.287 . S
C504 C503 1.287 . S
C504 C505 1.524 . S
C504 H523 0.913 . S
C505 H481 0.950 . S
C505 C504 1.524 . S
C505 C506 1.415 . S
C506 H482 0.950 . S
C506 C501 1.363 . S
C506 C505 1.415 . S
C507 H483 0.951 . S
C507 C508 1.366 . S
C507 C509 1.388 . S
C508 C507 1.366 . S
C508 C512 1.385 . S
C509 H484 0.951 . S
C509 C507 1.388 . S
C509 C510 1.366 . S
C510 C509 1.366 . S
C510 C511 1.414 . S
C510 C513 1.499 . S
C511 H485 0.950 . S
C511 C510 1.414 . S
C511 C512 1.374 . S
C512 H486 0.950 . S
C512 C508 1.385 . S
C512 C511 1.374 . S
C513 C510 1.499 . S
C513 C514 1.373 . S
C513 C515 1.389 . S
C514 H487 0.950 . S
C514 C500 1.377 . S
C514 C513 1.373 . S
C515 C499 1.377 . S
C515 C513 1.389 . S
C515 C516 1.524 . S
C516 C515 1.524 . S
C516 C517 1.397 . S
C516 C521 1.363 . S
C517 H488 0.950 . S
C517 C516 1.397 . S
C517 C518 1.334 . S
C518 H489 0.950 . S
C518 C517 1.334 . S
C518 C519 1.287 . S
C519 C518 1.287 . S
C519 C520 1.524 . S
C519 H522 0.999 . S
C520 H490 0.950 . S
C520 C519 1.524 . S
C520 C521 1.415 . S
C521 H491 0.950 . S
C521 C516 1.363 . S
C521 C520 1.415 . S
H522 C519 0.999 . S
H523 C504 0.913 . S
H524 C542 0.951 . S
H525 C544 0.951 . S
H526 C546 0.950 . S
H527 C547 0.950 . S
H528 C549 0.950 . S
H529 C552 0.950 . S
H530 C553 0.950 . S
H531 C555 0.950 . S
H532 C556 0.950 . S
H533 C557 0.951 . S
H534 C559 0.951 . S
H535 C561 0.950 . S
H536 C562 0.950 . S
H537 C564 0.950 . S
H538 C567 0.950 . S
H539 C568 0.950 . S
H540 C570 0.950 1_554 S
H541 C571 0.925 1_554 S
C542 H524 0.951 . S
C542 C543 1.366 . S
C542 C544 1.388 . S
C543 C542 1.366 . S
C543 C547 1.385 . S
C544 H525 0.951 . S
C544 C542 1.388 . S
C544 C545 1.366 . S
C545 C544 1.366 . S
C545 C546 1.414 . S
C545 C548 1.499 . S
C546 H526 0.950 . S
C546 C545 1.414 . S
C546 C547 1.374 . S
C547 H527 0.950 . S
C547 C543 1.385 . S
C547 C546 1.374 . S
C548 C545 1.499 . S
C548 C549 1.373 . S
C548 C550 1.389 1_554 S
C549 H528 0.950 . S
C549 C548 1.373 . S
C549 C565 1.377 1_564 S
C550 C548 1.389 1_556 S
C550 C551 1.524 1_556 S
C550 C564 1.377 1_565 S
C551 C550 1.524 1_554 S
C551 C552 1.397 . S
C551 C556 1.363 1_554 S
C552 H529 0.950 . S
C552 C551 1.397 . S
C552 C553 1.334 . S
C553 H530 0.950 . S
C553 C552 1.334 . S
C553 C554 1.287 . S
C554 C553 1.287 . S
C554 C555 1.524 1_554 S
C554 H573 0.913 . S
C555 H531 0.950 . S
C555 C554 1.524 1_556 S
C555 C556 1.415 . S
C556 H532 0.950 . S
C556 C551 1.363 1_556 S
C556 C555 1.415 . S
C557 H533 0.951 . S
C557 C558 1.366 . S
C557 C559 1.388 . S
C558 C557 1.366 . S
C558 C562 1.385 . S
C559 H534 0.951 . S
C559 C557 1.388 . S
C559 C560 1.366 . S
C560 C559 1.366 . S
C560 C561 1.414 . S
C560 C563 1.499 . S
C561 H535 0.950 . S
C561 C560 1.414 . S
C561 C562 1.374 . S
C562 H536 0.950 . S
C562 C558 1.385 . S
C562 C561 1.374 . S
C563 C560 1.499 . S
C563 C564 1.373 . S
C563 C565 1.389 . S
C564 H537 0.950 . S
C564 C550 1.377 1_545 S
C564 C563 1.373 . S
C565 C549 1.377 1_546 S
C565 C563 1.389 . S
C565 C566 1.524 . S
C566 C565 1.524 . S
C566 C567 1.397 . S
C566 C571 1.381 . S
C567 H538 0.950 . S
C567 C566 1.397 . S
C567 C568 1.334 . S
C568 H539 0.950 . S
C568 C567 1.334 . S
C568 C569 1.287 . S
C569 C568 1.287 . S
C569 C570 1.524 . S
C569 H572 0.999 . S
C570 H540 0.950 1_556 S
C570 C569 1.524 . S
C570 C571 1.422 . S
C571 H541 0.925 1_556 S
C571 C566 1.381 . S
C571 C570 1.422 . S
H572 C569 0.999 . S
H573 C554 0.913 . S
H574 C592 0.951 . S
H575 C594 0.951 . S
H576 C596 0.950 . S
H577 C597 0.950 . S
H578 C599 0.950 . S
H579 C602 0.950 . S
H580 C603 0.950 . S
H581 C605 0.950 . S
H582 C606 0.950 . S
H583 C607 0.951 . S
H584 C609 0.951 . S
H585 C611 0.950 . S
H586 C612 0.950 . S
H587 C614 0.950 . S
H588 C617 0.950 . S
H589 C618 0.950 . S
H590 C620 0.950 . S
H591 C621 0.950 . S
C592 H574 0.951 . S
C592 C593 1.366 . S
C592 C594 1.388 . S
C593 C592 1.366 . S
C593 C597 1.385 . S
C594 H575 0.951 . S
C594 C592 1.388 . S
C594 C595 1.366 . S
C595 C594 1.366 . S
C595 C596 1.414 . S
C595 C598 1.499 . S
C596 H576 0.950 . S
C596 C595 1.414 . S
C596 C597 1.374 . S
C597 H577 0.950 . S
C597 C593 1.385 . S
C597 C596 1.374 . S
C598 C595 1.499 . S
C598 C599 1.373 . S
C598 C600 1.389 1_545 S
C599 H578 0.950 . S
C599 C598 1.373 . S
C599 C615 1.404 . S
C600 C598 1.389 1_565 S
C600 C601 1.524 . S
C600 C614 1.377 1_655 S
C601 C600 1.524 . S
C601 C602 1.397 . S
C601 C606 1.363 1_655 S
C602 H579 0.950 . S
C602 C601 1.397 . S
C602 C603 1.334 . S
C603 H580 0.950 . S
C603 C602 1.334 . S
C603 C604 1.287 . S
C604 C603 1.287 . S
C604 C605 1.524 1_655 S
C604 H623 0.913 . S
C605 H581 0.950 . S
C605 C604 1.524 1_455 S
C605 C606 1.415 . S
C606 H582 0.950 . S
C606 C601 1.363 1_455 S
C606 C605 1.415 . S
C607 H583 0.951 . S
C607 C608 1.366 . S
C607 C609 1.388 . S
C608 C607 1.366 . S
C608 C612 1.385 . S
C609 H584 0.951 . S
C609 C607 1.388 . S
C609 C610 1.366 . S
C610 C609 1.366 . S
C610 C611 1.414 . S
C610 C613 1.499 1_565 S
C611 H585 0.950 . S
C611 C610 1.414 . S
C611 C612 1.374 . S
C612 H586 0.950 . S
C612 C608 1.385 . S
C612 C611 1.374 . S
C613 C610 1.499 1_545 S
C613 C614 1.373 1_545 S
C613 C615 1.363 1_455 S
C614 H587 0.950 . S
C614 C600 1.377 1_455 S
C614 C613 1.373 1_565 S
C615 C599 1.404 . S
C615 C613 1.363 1_655 S
C615 C616 1.524 . S
C616 C615 1.524 . S
C616 C617 1.381 1_655 S
C616 C621 1.378 . S
C617 H588 0.950 . S
C617 C616 1.381 1_455 S
C617 C618 1.334 . S
C618 H589 0.950 . S
C618 C617 1.334 . S
C618 C619 1.287 . S
C619 C618 1.287 . S
C619 C620 1.524 1_455 S
C619 H622 0.999 . S
C620 H590 0.950 . S
C620 C619 1.524 1_655 S
C620 C621 1.415 . S
C621 H591 0.950 . S
C621 C616 1.378 . S
C621 C620 1.415 . S
H622 C619 0.999 . S
H623 C604 0.913 . S
H624 C642 0.951 . S
H625 C644 0.951 . S
H626 C646 0.950 . S
H627 C647 0.950 . S
H628 C649 0.950 . S
H629 C652 0.950 . S
H630 C653 0.950 . S
H631 C655 0.950 . S
H632 C656 0.950 . S
H633 C657 0.951 . S
H634 C659 0.951 . S
H635 C661 0.950 . S
H636 C662 0.950 . S
H637 C664 0.950 . S
H638 C667 0.950 . S
H639 C668 0.950 . S
H640 C670 0.950 . S
H641 C671 0.950 . S
C642 H624 0.951 . S
C642 C643 1.366 . S
C642 C644 1.388 . S
C643 C642 1.366 . S
C643 C647 1.385 . S
C644 H625 0.951 . S
C644 C642 1.388 . S
C644 C645 1.366 . S
C645 C644 1.366 . S
C645 C646 1.414 . S
C645 C648 1.499 . S
C646 H626 0.950 . S
C646 C645 1.414 . S
C646 C647 1.374 . S
C647 H627 0.950 . S
C647 C643 1.385 . S
C647 C646 1.374 . S
C648 C645 1.499 . S
C648 C649 1.373 . S
C648 C650 1.389 . S
C649 H628 0.950 . S
C649 C648 1.373 . S
C649 C665 1.377 . S
C650 C648 1.389 . S
C650 C651 1.524 . S
C650 C664 1.377 . S
C651 C650 1.524 . S
C651 C652 1.397 . S
C651 C656 1.363 . S
C652 H629 0.950 . S
C652 C651 1.397 . S
C652 C653 1.334 . S
C653 H630 0.950 . S
C653 C652 1.334 . S
C653 C654 1.287 . S
C654 C653 1.287 . S
C654 C655 1.524 . S
C654 H673 0.913 . S
C655 H631 0.950 . S
C655 C654 1.524 . S
C655 C656 1.415 . S
C656 H632 0.950 . S
C656 C651 1.363 . S
C656 C655 1.415 . S
C657 H633 0.951 . S
C657 C658 1.366 . S
C657 C659 1.388 . S
C658 C657 1.366 . S
C658 C662 1.385 . S
C659 H634 0.951 . S
C659 C657 1.388 . S
C659 C660 1.366 . S
C660 C659 1.366 . S
C660 C661 1.414 . S
C660 C663 1.499 . S
C661 H635 0.950 . S
C661 C660 1.414 . S
C661 C662 1.374 . S
C662 H636 0.950 . S
C662 C658 1.385 . S
C662 C661 1.374 . S
C663 C660 1.499 . S
C663 C664 1.373 . S
C663 C665 1.389 . S
C664 H637 0.950 . S
C664 C650 1.377 . S
C664 C663 1.373 . S
C665 C649 1.377 . S
C665 C663 1.389 . S
C665 C666 1.524 . S
C666 C665 1.524 . S
C666 C667 1.397 . S
C666 C671 1.363 . S
C667 H638 0.950 . S
C667 C666 1.397 . S
C667 C668 1.334 . S
C668 H639 0.950 . S
C668 C667 1.334 . S
C668 C669 1.287 . S
C669 C668 1.287 . S
C669 C670 1.524 . S
C669 H672 0.999 . S
C670 H640 0.950 . S
C670 C669 1.524 . S
C670 C671 1.415 . S
C671 H641 0.950 . S
C671 C666 1.363 . S
C671 C670 1.415 . S
H672 C669 0.999 . S
H673 C654 0.913 . S
H674 C692 0.951 . S
H675 C694 0.951 . S
H676 C696 0.950 . S
H677 C697 0.950 . S
H678 C699 0.950 . S
H679 C702 0.950 . S
H680 C703 0.950 . S
H681 C705 0.950 . S
H682 C706 0.950 . S
H683 C707 0.951 . S
H684 C709 0.951 . S
H685 C711 0.950 . S
H686 C712 0.950 . S
H687 C714 0.950 . S
H688 C717 0.950 . S
H689 C718 0.950 . S
H690 C720 0.950 . S
H691 C721 0.950 . S
C692 H674 0.951 . S
C692 C693 1.366 . S
C692 C694 1.388 . S
C693 C692 1.366 . S
C693 C697 1.385 . S
C694 H675 0.951 . S
C694 C692 1.388 . S
C694 C695 1.366 . S
C695 C694 1.366 . S
C695 C696 1.414 . S
C695 C698 1.499 . S
C696 H676 0.950 . S
C696 C695 1.414 . S
C696 C697 1.374 . S
C697 H677 0.950 . S
C697 C693 1.385 . S
C697 C696 1.374 . S
C698 C695 1.499 . S
C698 C699 1.373 . S
C698 C700 1.389 . S
C699 H678 0.950 . S
C699 C698 1.373 . S
C699 C715 1.377 . S
C700 C698 1.389 . S
C700 C701 1.524 . S
C700 C714 1.377 . S
C701 C700 1.524 . S
C701 C702 1.397 . S
C701 C706 1.363 . S
C702 H679 0.950 . S
C702 C701 1.397 . S
C702 C703 1.334 . S
C703 H680 0.950 . S
C703 C702 1.334 . S
C703 C704 1.287 . S
C704 C703 1.287 . S
C704 C705 1.524 . S
C704 H723 0.913 . S
C705 H681 0.950 . S
C705 C704 1.524 . S
C705 C706 1.415 . S
C706 H682 0.950 . S
C706 C701 1.363 . S
C706 C705 1.415 . S
C707 H683 0.951 . S
C707 C708 1.366 . S
C707 C709 1.388 . S
C708 C707 1.366 . S
C708 C712 1.385 . S
C709 H684 0.951 . S
C709 C707 1.388 . S
C709 C710 1.366 . S
C710 C709 1.366 . S
C710 C711 1.414 . S
C710 C713 1.499 . S
C711 H685 0.950 . S
C711 C710 1.414 . S
C711 C712 1.374 . S
C712 H686 0.950 . S
C712 C708 1.385 . S
C712 C711 1.374 . S
C713 C710 1.499 . S
C713 C714 1.373 . S
C713 C715 1.389 . S
C714 H687 0.950 . S
C714 C700 1.377 . S
C714 C713 1.373 . S
C715 C699 1.377 . S
C715 C713 1.389 . S
C715 C716 1.524 . S
C716 C715 1.524 . S
C716 C717 1.397 . S
C716 C721 1.363 . S
C717 H688 0.950 . S
C717 C716 1.397 . S
C717 C718 1.334 . S
C718 H689 0.950 . S
C718 C717 1.334 . S
C718 C719 1.287 . S
C719 C718 1.287 . S
C719 C720 1.524 . S
C719 H722 0.999 . S
C720 H690 0.950 . S
C720 C719 1.524 . S
C720 C721 1.415 . S
C721 H691 0.950 . S
C721 C716 1.363 . S
C721 C720 1.415 . S
H722 C719 0.999 . S
H723 C704 0.913 . S
H724 C742 0.951 . S
H725 C744 0.951 . S
H726 C746 0.950 . S
H727 C747 0.950 . S
H728 C749 0.950 . S
H729 C752 0.950 . S
H730 C753 0.950 . S
H731 C755 0.950 . S
H732 C756 0.950 . S
H733 C757 0.951 . S
H734 C759 0.951 . S
H735 C761 0.950 . S
H736 C762 0.950 . S
H737 C764 0.950 . S
H738 C767 0.950 . S
H739 C768 0.950 . S
H740 C770 0.950 . S
H741 C771 0.950 . S
C742 H724 0.951 . S
C742 C743 1.366 . S
C742 C744 1.388 . S
C743 C742 1.366 . S
C743 C747 1.385 . S
C744 H725 0.951 . S
C744 C742 1.388 . S
C744 C745 1.366 . S
C745 C744 1.366 . S
C745 C746 1.414 . S
C745 C748 1.499 . S
C746 H726 0.950 . S
C746 C745 1.414 . S
C746 C747 1.374 . S
C747 H727 0.950 . S
C747 C743 1.385 . S
C747 C746 1.374 . S
C748 C745 1.499 . S
C748 C749 1.373 . S
C748 C750 1.389 . S
C749 H728 0.950 . S
C749 C748 1.373 . S
C749 C765 1.377 . S
C750 C748 1.389 . S
C750 C751 1.524 . S
C750 C764 1.377 . S
C751 C750 1.524 . S
C751 C752 1.397 . S
C751 C756 1.363 . S
C752 H729 0.950 . S
C752 C751 1.397 . S
C752 C753 1.334 . S
C753 H730 0.950 . S
C753 C752 1.334 . S
C753 C754 1.287 . S
C754 C753 1.287 . S
C754 C755 1.524 . S
C754 H773 0.913 . S
C755 H731 0.950 . S
C755 C754 1.524 . S
C755 C756 1.415 . S
C756 H732 0.950 . S
C756 C751 1.363 . S
C756 C755 1.415 . S
C757 H733 0.951 . S
C757 C758 1.366 . S
C757 C759 1.388 . S
C758 C757 1.366 . S
C758 C762 1.385 . S
C759 H734 0.951 . S
C759 C757 1.388 . S
C759 C760 1.366 . S
C760 C759 1.366 . S
C760 C761 1.414 . S
C760 C763 1.499 . S
C761 H735 0.950 . S
C761 C760 1.414 . S
C761 C762 1.374 . S
C762 H736 0.950 . S
C762 C758 1.385 . S
C762 C761 1.374 . S
C763 C760 1.499 . S
C763 C764 1.373 . S
C763 C765 1.389 . S
C764 H737 0.950 . S
C764 C750 1.377 . S
C764 C763 1.373 . S
C765 C749 1.377 . S
C765 C763 1.389 . S
C765 C766 1.524 . S
C766 C765 1.524 . S
C766 C767 1.397 . S
C766 C771 1.363 . S
C767 H738 0.950 . S
C767 C766 1.397 . S
C767 C768 1.334 . S
C768 H739 0.950 . S
C768 C767 1.334 . S
C768 C769 1.287 . S
C769 C768 1.287 . S
C769 C770 1.524 . S
C769 H772 0.999 . S
C770 H740 0.950 . S
C770 C769 1.524 . S
C770 C771 1.415 . S
C771 H741 0.950 . S
C771 C766 1.363 . S
C771 C770 1.415 . S
H772 C769 0.999 . S
H773 C754 0.913 . S
H774 C792 0.951 . S
H775 C794 0.951 . S
H776 C796 0.950 . S
H777 C797 0.950 . S
H778 C799 0.950 . S
H779 C802 0.950 . S
H780 C803 0.950 . S
H781 C805 0.950 . S
H782 C806 0.950 . S
H783 C807 0.951 . S
H784 C809 0.951 . S
H785 C811 0.950 . S
H786 C812 0.950 . S
H787 C814 0.950 . S
H788 C817 0.950 . S
H789 C818 0.950 . S
H790 C820 0.950 . S
H791 C821 0.950 . S
C792 H774 0.951 . S
C792 C793 1.366 . S
C792 C794 1.388 . S
C793 C792 1.366 . S
C793 C797 1.385 . S
C794 H775 0.951 . S
C794 C792 1.388 . S
C794 C795 1.366 . S
C795 C794 1.366 . S
C795 C796 1.414 . S
C795 C798 1.499 . S
C796 H776 0.950 . S
C796 C795 1.414 . S
C796 C797 1.374 . S
C797 H777 0.950 . S
C797 C793 1.385 . S
C797 C796 1.374 . S
C798 C795 1.499 . S
C798 C799 1.373 . S
C798 C800 1.389 . S
C799 H778 0.950 . S
C799 C798 1.373 . S
C799 C815 1.377 . S
C800 C798 1.389 . S
C800 C801 1.524 . S
C800 C814 1.377 . S
C801 C800 1.524 . S
C801 C802 1.397 . S
C801 C806 1.363 . S
C802 H779 0.950 . S
C802 C801 1.397 . S
C802 C803 1.334 . S
C803 H780 0.950 . S
C803 C802 1.334 . S
C803 C804 1.287 . S
C804 C803 1.287 . S
C804 C805 1.524 . S
C804 H823 0.913 . S
C805 H781 0.950 . S
C805 C804 1.524 . S
C805 C806 1.415 . S
C806 H782 0.950 . S
C806 C801 1.363 . S
C806 C805 1.415 . S
C807 H783 0.951 . S
C807 C808 1.366 . S
C807 C809 1.388 . S
C808 C807 1.366 . S
C808 C812 1.385 . S
C809 H784 0.951 . S
C809 C807 1.388 . S
C809 C810 1.366 . S
C810 C809 1.366 . S
C810 C811 1.414 . S
C810 C813 1.499 . S
C811 H785 0.950 . S
C811 C810 1.414 . S
C811 C812 1.374 . S
C812 H786 0.950 . S
C812 C808 1.385 . S
C812 C811 1.374 . S
C813 C810 1.499 . S
C813 C814 1.373 . S
C813 C815 1.389 . S
C814 H787 0.950 . S
C814 C800 1.377 . S
C814 C813 1.373 . S
C815 C799 1.377 . S
C815 C813 1.389 . S
C815 C816 1.524 . S
C816 C815 1.524 . S
C816 C817 1.397 . S
C816 C821 1.363 . S
C817 H788 0.950 . S
C817 C816 1.397 . S
C817 C818 1.334 . S
C818 H789 0.950 . S
C818 C817 1.334 . S
C818 C819 1.287 . S
C819 C818 1.287 . S
C819 C820 1.524 . S
C819 H822 0.999 . S
C820 H790 0.950 . S
C820 C819 1.524 . S
C820 C821 1.415 . S
C821 H791 0.950 . S
C821 C816 1.363 . S
C821 C820 1.415 . S
H822 C819 0.999 . S
H823 C804 0.913 . S
H824 C842 0.951 . S
H825 C844 0.951 . S
H826 C846 0.950 . S
H827 C847 0.950 . S
H828 C849 0.950 . S
H829 C852 0.950 . S
H830 C853 0.950 . S
H831 C855 0.950 . S
H832 C856 0.950 . S
H833 C857 0.951 . S
H834 C859 0.951 . S
H835 C861 0.950 . S
H836 C862 0.950 . S
H837 C864 0.950 . S
H838 C867 0.950 . S
H839 C868 0.950 . S
H840 C870 0.950 . S
H841 C871 0.950 . S
C842 H824 0.951 . S
C842 C843 1.366 . S
C842 C844 1.388 . S
C843 C842 1.366 . S
C843 C847 1.385 . S
C844 H825 0.951 . S
C844 C842 1.388 . S
C844 C845 1.366 . S
C845 C844 1.366 . S
C845 C846 1.414 . S
C845 C848 1.499 . S
C846 H826 0.950 . S
C846 C845 1.414 . S
C846 C847 1.374 . S
C847 H827 0.950 . S
C847 C843 1.385 . S
C847 C846 1.374 . S
C848 C845 1.499 . S
C848 C849 1.373 . S
C848 C850 1.389 . S
C849 H828 0.950 . S
C849 C848 1.373 . S
C849 C865 1.377 . S
C850 C848 1.389 . S
C850 C851 1.524 . S
C850 C864 1.377 . S
C851 C850 1.524 . S
C851 C852 1.397 . S
C851 C856 1.363 . S
C852 H829 0.950 . S
C852 C851 1.397 . S
C852 C853 1.334 . S
C853 H830 0.950 . S
C853 C852 1.334 . S
C853 C854 1.287 . S
C854 C853 1.287 . S
C854 C855 1.524 . S
C854 H873 0.913 . S
C855 H831 0.950 . S
C855 C854 1.524 . S
C855 C856 1.415 . S
C856 H832 0.950 . S
C856 C851 1.363 . S
C856 C855 1.415 . S
C857 H833 0.951 . S
C857 C858 1.366 . S
C857 C859 1.388 . S
C858 C857 1.366 . S
C858 C862 1.385 . S
C859 H834 0.951 . S
C859 C857 1.388 . S
C859 C860 1.366 . S
C860 C859 1.366 . S
C860 C861 1.414 . S
C860 C863 1.499 . S
C861 H835 0.950 . S
C861 C860 1.414 . S
C861 C862 1.374 . S
C862 H836 0.950 . S
C862 C858 1.385 . S
C862 C861 1.374 . S
C863 C860 1.499 . S
C863 C864 1.373 . S
C863 C865 1.389 . S
C864 H837 0.950 . S
C864 C850 1.377 . S
C864 C863 1.373 . S
C865 C849 1.377 . S
C865 C863 1.389 . S
C865 C866 1.524 . S
C866 C865 1.524 . S
C866 C867 1.397 . S
C866 C871 1.363 . S
C867 H838 0.950 . S
C867 C866 1.397 . S
C867 C868 1.334 . S
C868 H839 0.950 . S
C868 C867 1.334 . S
C868 C869 1.287 . S
C869 C868 1.287 . S
C869 C870 1.524 . S
C869 H872 0.999 . S
C870 H840 0.950 . S
C870 C869 1.524 . S
C870 C871 1.415 . S
C871 H841 0.950 . S
C871 C866 1.363 . S
C871 C870 1.415 . S
H872 C869 0.999 . S
H873 C854 0.913 . S
H874 C892 0.951 . S
H875 C894 0.951 . S
H876 C896 0.950 . S
H877 C897 0.950 . S
H878 C899 0.950 . S
H879 C902 0.950 . S
H880 C903 0.950 . S
H881 C905 0.950 . S
H882 C906 0.950 . S
H883 C907 0.951 . S
H884 C909 0.951 . S
H885 C911 0.950 . S
H886 C912 0.950 . S
H887 C914 0.950 . S
H888 C917 0.950 . S
H889 C918 0.950 . S
H890 C920 0.950 . S
H891 C921 0.950 . S
C892 H874 0.951 . S
C892 C893 1.366 . S
C892 C894 1.388 . S
C893 C892 1.366 . S
C893 C897 1.385 . S
C894 H875 0.951 . S
C894 C892 1.388 . S
C894 C895 1.366 . S
C895 C894 1.366 . S
C895 C896 1.414 . S
C895 C898 1.499 . S
C896 H876 0.950 . S
C896 C895 1.414 . S
C896 C897 1.374 . S
C897 H877 0.950 . S
C897 C893 1.385 . S
C897 C896 1.374 . S
C898 C895 1.499 . S
C898 C899 1.373 . S
C898 C900 1.389 . S
C899 H878 0.950 . S
C899 C898 1.373 . S
C899 C915 1.377 . S
C900 C898 1.389 . S
C900 C901 1.524 . S
C900 C914 1.377 . S
C901 C900 1.524 . S
C901 C902 1.397 . S
C901 C906 1.363 . S
C902 H879 0.950 . S
C902 C901 1.397 . S
C902 C903 1.334 . S
C903 H880 0.950 . S
C903 C902 1.334 . S
C903 C904 1.287 . S
C904 C903 1.287 . S
C904 C905 1.524 . S
C904 H923 0.913 . S
C905 H881 0.950 . S
C905 C904 1.524 . S
C905 C906 1.415 . S
C906 H882 0.950 . S
C906 C901 1.363 . S
C906 C905 1.415 . S
C907 H883 0.951 . S
C907 C908 1.366 . S
C907 C909 1.388 . S
C908 C907 1.366 . S
C908 C912 1.385 . S
C909 H884 0.951 . S
C909 C907 1.388 . S
C909 C910 1.366 . S
C910 C909 1.366 . S
C910 C911 1.414 . S
C910 C913 1.499 . S
C911 H885 0.950 . S
C911 C910 1.414 . S
C911 C912 1.374 . S
C912 H886 0.950 . S
C912 C908 1.385 . S
C912 C911 1.374 . S
C913 C910 1.499 . S
C913 C914 1.373 . S
C913 C915 1.389 . S
C914 H887 0.950 . S
C914 C900 1.377 . S
C914 C913 1.373 . S
C915 C899 1.377 . S
C915 C913 1.389 . S
C915 C916 1.524 . S
C916 C915 1.524 . S
C916 C917 1.397 . S
C916 C921 1.363 . S
C917 H888 0.950 . S
C917 C916 1.397 . S
C917 C918 1.334 . S
C918 H889 0.950 . S
C918 C917 1.334 . S
C918 C919 1.287 . S
C919 C918 1.287 . S
C919 C920 1.524 . S
C919 H922 0.999 . S
C920 H890 0.950 . S
C920 C919 1.524 . S
C920 C921 1.415 . S
C921 H891 0.950 . S
C921 C916 1.363 . S
C921 C920 1.415 . S
H922 C919 0.999 . S
H923 C904 0.913 . S
H924 C942 0.951 . S
H925 C944 0.951 . S
H926 C946 0.950 . S
H927 C947 0.950 . S
H928 C949 0.950 . S
H929 C952 0.950 . S
H930 C953 0.950 . S
H931 C955 0.950 . S
H932 C956 0.950 . S
H933 C957 0.951 . S
H934 C959 0.951 . S
H935 C961 0.950 . S
H936 C962 0.950 . S
H937 C964 0.950 . S
H938 C967 0.950 . S
H939 C968 0.950 . S
H940 C970 0.950 . S
H941 C971 0.950 . S
C942 H924 0.951 . S
C942 C943 1.366 . S
C942 C944 1.388 . S
C943 C942 1.366 . S
C943 C947 1.385 . S
C944 H925 0.951 . S
C944 C942 1.388 . S
C944 C945 1.366 . S
C945 C944 1.366 . S
C945 C946 1.414 . S
C945 C948 1.499 . S
C946 H926 0.950 . S
C946 C945 1.414 . S
C946 C947 1.374 . S
C947 H927 0.950 . S
C947 C943 1.385 . S
C947 C946 1.374 . S
C948 C945 1.499 . S
C948 C949 1.373 . S
C948 C950 1.389 . S
C949 H928 0.950 . S
C949 C948 1.373 . S
C949 C965 1.377 . S
C950 C948 1.389 . S
C950 C951 1.524 . S
C950 C964 1.377 . S
C951 C950 1.524 . S
C951 C952 1.397 . S
C951 C956 1.363 . S
C952 H929 0.950 . S
C952 C951 1.397 . S
C952 C953 1.334 . S
C953 H930 0.950 . S
C953 C952 1.334 . S
C953 C954 1.287 . S
C954 C953 1.287 . S
C954 C955 1.524 . S
C954 H973 0.913 . S
C955 H931 0.950 . S
C955 C954 1.524 . S
C955 C956 1.415 . S
C956 H932 0.950 . S
C956 C951 1.363 . S
C956 C955 1.415 . S
C957 H933 0.951 . S
C957 C958 1.366 . S
C957 C959 1.388 . S
C958 C957 1.366 . S
C958 C962 1.385 . S
C959 H934 0.951 . S
C959 C957 1.388 . S
C959 C960 1.366 . S
C960 C959 1.366 . S
C960 C961 1.414 . S
C960 C963 1.499 . S
C961 H935 0.950 . S
C961 C960 1.414 . S
C961 C962 1.374 . S
C962 H936 0.950 . S
C962 C958 1.385 . S
C962 C961 1.374 . S
C963 C960 1.499 . S
C963 C964 1.373 . S
C963 C965 1.389 . S
C964 H937 0.950 . S
C964 C950 1.377 . S
C964 C963 1.373 . S
C965 C949 1.377 . S
C965 C963 1.389 . S
C965 C966 1.524 . S
C966 C965 1.524 . S
C966 C967 1.397 . S
C966 C971 1.363 . S
C967 H938 0.950 . S
C967 C966 1.397 . S
C967 C968 1.334 1_565 S
C968 H939 0.950 . S
C968 C967 1.334 1_545 S
C968 C969 1.287 . S
C969 C968 1.287 . S
C969 C970 1.524 1_545 S
C969 H972 0.999 . S
C970 H940 0.950 . S
C970 C969 1.524 1_565 S
C970 C971 1.415 . S
C971 H941 0.950 . S
C971 C966 1.363 . S
C971 C970 1.415 . S
H972 C969 0.999 . S
H973 C954 0.913 . S
H974 C992 0.951 . S
H975 C994 0.951 . S
H976 C996 0.950 . S
H977 C997 0.950 1_655 S
H978 C999 0.950 . S
H979 C1002 0.950 . S
H980 C1003 0.950 . S
H981 C1005 0.950 . S
H982 C1006 0.950 . S
H983 C1007 0.951 . S
H984 C1009 0.951 . S
H985 C1011 0.950 . S
H986 C1012 0.950 . S
H987 C1014 0.950 . S
H988 C1017 0.950 . S
H989 C1018 0.950 . S
H990 C1020 0.950 . S
H991 C1021 0.950 . S
C992 H974 0.951 . S
C992 C993 1.366 . S
C992 C994 1.388 . S
C993 C992 1.366 . S
C993 C997 1.385 . S
C994 H975 0.951 . S
C994 C992 1.388 . S
C994 C995 1.366 . S
C995 C994 1.366 . S
C995 C996 1.414 . S
C995 C998 1.499 . S
C996 H976 0.950 . S
C996 C995 1.414 . S
C996 C997 1.374 . S
C997 H977 0.950 1_455 S
C997 C993 1.385 . S
C997 C996 1.374 . S
C998 C995 1.499 . S
C998 C999 1.373 . S
C998 C1000 1.389 . S
C999 H978 0.950 . S
C999 C998 1.373 . S
C999 C1015 1.377 . S
C1000 C998 1.389 . S
C1000 C1001 1.524 . S
C1000 C1014 1.377 . S
C1001 C1000 1.524 . S
C1001 C1002 1.397 . S
C1001 C1006 1.363 . S
C1002 H979 0.950 . S
C1002 C1001 1.397 . S
C1002 C1003 1.334 . S
C1003 H980 0.950 . S
C1003 C1002 1.334 . S
C1003 C1004 1.287 . S
C1004 C1003 1.287 . S
C1004 C1005 1.524 . S
C1004 H1023 0.913 . S
C1005 H981 0.950 . S
C1005 C1004 1.524 . S
C1005 C1006 1.415 . S
C1006 H982 0.950 . S
C1006 C1001 1.363 . S
C1006 C1005 1.415 . S
C1007 H983 0.951 . S
C1007 C1008 1.366 . S
C1007 C1009 1.388 . S
C1008 C1007 1.366 . S
C1008 C1012 1.385 . S
C1009 H984 0.951 . S
C1009 C1007 1.388 . S
C1009 C1010 1.366 . S
C1010 C1009 1.366 . S
C1010 C1011 1.414 . S
C1010 C1013 1.499 . S
C1011 H985 0.950 . S
C1011 C1010 1.414 . S
C1011 C1012 1.374 . S
C1012 H986 0.950 . S
C1012 C1008 1.385 . S
C1012 C1011 1.374 . S
C1013 C1010 1.499 . S
C1013 C1014 1.373 . S
C1013 C1015 1.389 . S
C1014 H987 0.950 . S
C1014 C1000 1.377 . S
C1014 C1013 1.373 . S
C1015 C999 1.377 . S
C1015 C1013 1.389 . S
C1015 C1016 1.524 . S
C1016 C1015 1.524 . S
C1016 C1017 1.397 . S
C1016 C1021 1.363 . S
C1017 H988 0.950 . S
C1017 C1016 1.397 . S
C1017 C1018 1.334 . S
C1018 H989 0.950 . S
C1018 C1017 1.334 . S
C1018 C1019 1.287 . S
C1019 C1018 1.287 . S
C1019 C1020 1.524 . S
C1019 H1022 0.999 . S
C1020 H990 0.950 . S
C1020 C1019 1.524 . S
C1020 C1021 1.415 . S
C1021 H991 0.950 . S
C1021 C1016 1.363 . S
C1021 C1020 1.415 . S
H1022 C1019 0.999 . S
H1023 C1004 0.913 . S
H1024 C1042 0.951 . S
H1025 C1044 0.951 . S
H1026 C1046 0.950 . S
H1027 C1047 0.950 . S
H1028 C1049 0.950 . S
H1029 C1052 0.950 . S
H1030 C1053 0.950 . S
H1031 C1055 0.950 . S
H1032 C1056 0.950 . S
H1033 C1057 0.951 . S
H1034 C1059 0.951 . S
H1035 C1061 0.950 . S
H1036 C1062 0.950 . S
H1037 C1064 0.950 . S
H1038 C1067 0.950 . S
H1039 C1068 0.950 . S
H1040 C1070 0.950 . S
H1041 C1071 0.950 . S
C1042 H1024 0.951 . S
C1042 C1043 1.366 . S
C1042 C1044 1.388 . S
C1043 C1042 1.366 . S
C1043 C1047 1.385 . S
C1044 H1025 0.951 . S
C1044 C1042 1.388 . S
C1044 C1045 1.366 . S
C1045 C1044 1.366 . S
C1045 C1046 1.414 . S
C1045 C1048 1.499 . S
C1046 H1026 0.950 . S
C1046 C1045 1.414 . S
C1046 C1047 1.374 . S
C1047 H1027 0.950 . S
C1047 C1043 1.385 . S
C1047 C1046 1.374 . S
C1048 C1045 1.499 . S
C1048 C1049 1.373 . S
C1048 C1050 1.389 . S
C1049 H1028 0.950 . S
C1049 C1048 1.373 . S
C1049 C1065 1.377 . S
C1050 C1048 1.389 . S
C1050 C1051 1.524 . S
C1050 C1064 1.377 . S
C1051 C1050 1.524 . S
C1051 C1052 1.397 . S
C1051 C1056 1.363 . S
C1052 H1029 0.950 . S
C1052 C1051 1.397 . S
C1052 C1053 1.334 . S
C1053 H1030 0.950 . S
C1053 C1052 1.334 . S
C1053 C1054 1.287 . S
C1054 C1053 1.287 . S
C1054 C1055 1.524 . S
C1054 H1073 0.913 . S
C1055 H1031 0.950 . S
C1055 C1054 1.524 . S
C1055 C1056 1.415 . S
C1056 H1032 0.950 . S
C1056 C1051 1.363 . S
C1056 C1055 1.415 . S
C1057 H1033 0.951 . S
C1057 C1058 1.366 . S
C1057 C1059 1.388 . S
C1058 C1057 1.366 . S
C1058 C1062 1.385 . S
C1059 H1034 0.951 . S
C1059 C1057 1.388 . S
C1059 C1060 1.366 . S
C1060 C1059 1.366 . S
C1060 C1061 1.414 . S
C1060 C1063 1.499 . S
C1061 H1035 0.950 . S
C1061 C1060 1.414 . S
C1061 C1062 1.374 . S
C1062 H1036 0.950 . S
C1062 C1058 1.385 . S
C1062 C1061 1.374 . S
C1063 C1060 1.499 . S
C1063 C1064 1.373 . S
C1063 C1065 1.389 . S
C1064 H1037 0.950 . S
C1064 C1050 1.377 . S
C1064 C1063 1.373 . S
C1065 C1049 1.377 . S
C1065 C1063 1.389 . S
C1065 C1066 1.524 . S
C1066 C1065 1.524 . S
C1066 C1067 1.397 . S
C1066 C1071 1.363 . S
C1067 H1038 0.950 . S
C1067 C1066 1.397 . S
C1067 C1068 1.334 . S
C1068 H1039 0.950 . S
C1068 C1067 1.334 . S
C1068 C1069 1.287 . S
C1069 C1068 1.287 . S
C1069 C1070 1.524 . S
C1069 H1072 0.999 . S
C1070 H1040 0.950 . S
C1070 C1069 1.524 . S
C1070 C1071 1.415 . S
C1071 H1041 0.950 . S
C1071 C1066 1.363 . S
C1071 C1070 1.415 . S
H1072 C1069 0.999 . S
H1073 C1054 0.913 . S
H1074 C1092 0.951 . S
H1075 C1094 0.951 . S
H1076 C1096 0.950 . S
H1077 C1097 0.950 . S
H1078 C1099 0.950 . S
H1079 C1102 0.950 . S
H1080 C1103 0.950 . S
H1081 C1105 0.950 . S
H1082 C1106 0.950 . S
H1083 C1107 0.951 . S
H1084 C1109 0.951 . S
H1085 C1111 0.950 . S
H1086 C1112 0.950 . S
H1087 C1114 0.950 . S
H1088 C1117 0.950 . S
H1089 C1118 0.950 . S
H1090 C1120 0.950 . S
H1091 C1121 0.950 . S
C1092 H1074 0.951 . S
C1092 C1093 1.366 . S
C1092 C1094 1.388 . S
C1093 C1092 1.366 . S
C1093 C1097 1.385 . S
C1094 H1075 0.951 . S
C1094 C1092 1.388 . S
C1094 C1095 1.366 . S
C1095 C1094 1.366 . S
C1095 C1096 1.414 . S
C1095 C1098 1.499 . S
C1096 H1076 0.950 . S
C1096 C1095 1.414 . S
C1096 C1097 1.374 . S
C1097 H1077 0.950 . S
C1097 C1093 1.385 . S
C1097 C1096 1.374 . S
C1098 C1095 1.499 . S
C1098 C1099 1.373 . S
C1098 C1100 1.389 . S
C1099 H1078 0.950 . S
C1099 C1098 1.373 . S
C1099 C1115 1.377 . S
C1100 C1098 1.389 . S
C1100 C1101 1.524 . S
C1100 C1114 1.377 . S
C1101 C1100 1.524 . S
C1101 C1102 1.397 . S
C1101 C1106 1.363 . S
C1102 H1079 0.950 . S
C1102 C1101 1.397 . S
C1102 C1103 1.334 . S
C1103 H1080 0.950 . S
C1103 C1102 1.334 . S
C1103 C1104 1.287 . S
C1104 C1103 1.287 . S
C1104 C1105 1.524 . S
C1104 H1123 0.913 . S
C1105 H1081 0.950 . S
C1105 C1104 1.524 . S
C1105 C1106 1.415 . S
C1106 H1082 0.950 . S
C1106 C1101 1.363 . S
C1106 C1105 1.415 . S
C1107 H1083 0.951 . S
C1107 C1108 1.366 . S
C1107 C1109 1.388 . S
C1108 C1107 1.366 . S
C1108 C1112 1.385 . S
C1109 H1084 0.951 . S
C1109 C1107 1.388 . S
C1109 C1110 1.366 . S
C1110 C1109 1.366 . S
C1110 C1111 1.414 . S
C1110 C1113 1.499 . S
C1111 H1085 0.950 . S
C1111 C1110 1.414 . S
C1111 C1112 1.374 . S
C1112 H1086 0.950 . S
C1112 C1108 1.385 . S
C1112 C1111 1.374 . S
C1113 C1110 1.499 . S
C1113 C1114 1.373 . S
C1113 C1115 1.389 . S
C1114 H1087 0.950 . S
C1114 C1100 1.377 . S
C1114 C1113 1.373 . S
C1115 C1099 1.377 . S
C1115 C1113 1.389 . S
C1115 C1116 1.524 . S
C1116 C1115 1.524 . S
C1116 C1117 1.397 . S
C1116 C1121 1.363 . S
C1117 H1088 0.950 . S
C1117 C1116 1.397 . S
C1117 C1118 1.334 . S
C1118 H1089 0.950 . S
C1118 C1117 1.334 . S
C1118 C1119 1.287 . S
C1119 C1118 1.287 . S
C1119 C1120 1.524 . S
C1119 H1122 0.999 . S
C1120 H1090 0.950 . S
C1120 C1119 1.524 . S
C1120 C1121 1.415 . S
C1121 H1091 0.950 . S
C1121 C1116 1.363 . S
C1121 C1120 1.415 . S
H1122 C1119 0.999 . S
H1123 C1104 0.913 . S
H1124 C1142 0.951 . S
H1125 C1144 0.951 . S
H1126 C1146 0.950 . S
H1127 C1147 0.950 . S
H1128 C1149 0.950 . S
H1129 C1152 0.950 . S
H1130 C1153 0.950 . S
H1131 C1155 0.950 1_565 S
H1132 C1156 0.950 . S
H1133 C1157 0.951 . S
H1134 C1159 0.951 . S
H1135 C1161 0.950 . S
H1136 C1162 0.950 1_565 S
H1137 C1164 0.950 . S
H1138 C1167 0.950 . S
H1139 C1168 0.950 . S
H1140 C1170 0.950 . S
H1141 C1171 0.950 . S
C1142 H1124 0.951 . S
C1142 C1143 1.366 . S
C1142 C1144 1.388 . S
C1143 C1142 1.366 . S
C1143 C1147 1.385 . S
C1144 H1125 0.951 . S
C1144 C1142 1.388 . S
C1144 C1145 1.366 . S
C1145 C1144 1.366 . S
C1145 C1146 1.414 . S
C1145 C1148 1.499 . S
C1146 H1126 0.950 . S
C1146 C1145 1.414 . S
C1146 C1147 1.374 . S
C1147 H1127 0.950 . S
C1147 C1143 1.385 . S
C1147 C1146 1.374 . S
C1148 C1145 1.499 . S
C1148 C1149 1.373 . S
C1148 C1150 1.389 . S
C1149 H1128 0.950 . S
C1149 C1148 1.373 . S
C1149 C1165 1.377 . S
C1150 C1148 1.389 . S
C1150 C1151 1.524 . S
C1150 C1164 1.377 . S
C1151 C1150 1.524 . S
C1151 C1152 1.397 . S
C1151 C1156 1.363 . S
C1152 H1129 0.950 . S
C1152 C1151 1.397 . S
C1152 C1153 1.334 . S
C1153 H1130 0.950 . S
C1153 C1152 1.334 . S
C1153 C1154 1.287 . S
C1154 C1153 1.287 . S
C1154 C1155 1.524 . S
C1154 H1173 0.913 . S
C1155 H1131 0.950 1_545 S
C1155 C1154 1.524 . S
C1155 C1156 1.415 . S
C1156 H1132 0.950 . S
C1156 C1151 1.363 . S
C1156 C1155 1.415 . S
C1157 H1133 0.951 . S
C1157 C1158 1.366 . S
C1157 C1159 1.388 . S
C1158 C1157 1.366 . S
C1158 C1162 1.385 . S
C1159 H1134 0.951 . S
C1159 C1157 1.388 . S
C1159 C1160 1.366 . S
C1160 C1159 1.366 . S
C1160 C1161 1.414 . S
C1160 C1163 1.499 . S
C1161 H1135 0.950 . S
C1161 C1160 1.414 . S
C1161 C1162 1.374 . S
C1162 H1136 0.950 1_545 S
C1162 C1158 1.385 . S
C1162 C1161 1.374 . S
C1163 C1160 1.499 . S
C1163 C1164 1.373 . S
C1163 C1165 1.389 . S
C1164 H1137 0.950 . S
C1164 C1150 1.377 . S
C1164 C1163 1.373 . S
C1165 C1149 1.377 . S
C1165 C1163 1.389 . S
C1165 C1166 1.524 . S
C1166 C1165 1.524 . S
C1166 C1167 1.397 . S
C1166 C1171 1.363 . S
C1167 H1138 0.950 . S
C1167 C1166 1.397 . S
C1167 C1168 1.334 . S
C1168 H1139 0.950 . S
C1168 C1167 1.334 . S
C1168 C1169 1.287 . S
C1169 C1168 1.287 . S
C1169 C1170 1.524 . S
C1169 H1172 0.999 . S
C1170 H1140 0.950 . S
C1170 C1169 1.524 . S
C1170 C1171 1.415 . S
C1171 H1141 0.950 . S
C1171 C1166 1.363 . S
C1171 C1170 1.415 . S
H1172 C1169 0.999 . S
H1173 C1154 0.913 . S
H1174 C1192 0.951 . S
H1175 C1194 0.951 . S
H1176 C1196 0.950 . S
H1177 C1197 0.950 . S
H1178 C1199 0.950 . S
H1179 C1202 0.950 . S
H1180 C1203 0.950 . S
H1181 C1205 0.950 . S
H1182 C1206 0.950 . S
H1183 C1207 0.951 . S
H1184 C1209 0.951 . S
H1185 C1211 0.950 . S
H1186 C1212 0.950 . S
H1187 C1214 0.950 . S
H1188 C1217 0.950 . S
H1189 C1218 0.950 . S
H1190 C1220 0.950 . S
H1191 C1221 0.950 . S
C1192 H1174 0.951 . S
C1192 C1193 1.366 . S
C1192 C1194 1.388 . S
C1193 C1192 1.366 . S
C1193 C1197 1.385 . S
C1194 H1175 0.951 . S
C1194 C1192 1.388 . S
C1194 C1195 1.366 . S
C1195 C1194 1.366 . S
C1195 C1196 1.414 . S
C1195 C1198 1.499 . S
C1196 H1176 0.950 . S
C1196 C1195 1.414 . S
C1196 C1197 1.374 . S
C1197 H1177 0.950 . S
C1197 C1193 1.385 . S
C1197 C1196 1.374 . S
C1198 C1195 1.499 . S
C1198 C1199 1.373 . S
C1198 C1200 1.389 . S
C1199 H1178 0.950 . S
C1199 C1198 1.373 . S
C1199 C1215 1.377 . S
C1200 C1198 1.389 . S
C1200 C1201 1.524 . S
C1200 C1214 1.377 . S
C1201 C1200 1.524 . S
C1201 C1202 1.397 . S
C1201 C1206 1.363 . S
C1202 H1179 0.950 . S
C1202 C1201 1.397 . S
C1202 C1203 1.334 . S
C1203 H1180 0.950 . S
C1203 C1202 1.334 . S
C1203 C1204 1.287 . S
C1204 C1203 1.287 . S
C1204 C1205 1.524 . S
C1204 H1223 0.913 . S
C1205 H1181 0.950 . S
C1205 C1204 1.524 . S
C1205 C1206 1.415 . S
C1206 H1182 0.950 . S
C1206 C1201 1.363 . S
C1206 C1205 1.415 . S
C1207 H1183 0.951 . S
C1207 C1208 1.366 . S
C1207 C1209 1.388 . S
C1208 C1207 1.366 . S
C1208 C1212 1.385 . S
C1209 H1184 0.951 . S
C1209 C1207 1.388 . S
C1209 C1210 1.366 . S
C1210 C1209 1.366 . S
C1210 C1211 1.414 . S
C1210 C1213 1.499 . S
C1211 H1185 0.950 . S
C1211 C1210 1.414 . S
C1211 C1212 1.374 . S
C1212 H1186 0.950 . S
C1212 C1208 1.385 . S
C1212 C1211 1.374 . S
C1213 C1210 1.499 . S
C1213 C1214 1.373 . S
C1213 C1215 1.389 . S
C1214 H1187 0.950 . S
C1214 C1200 1.377 . S
C1214 C1213 1.373 . S
C1215 C1199 1.377 . S
C1215 C1213 1.389 . S
C1215 C1216 1.524 . S
C1216 C1215 1.524 . S
C1216 C1217 1.397 . S
C1216 C1221 1.363 . S
C1217 H1188 0.950 . S
C1217 C1216 1.397 . S
C1217 C1218 1.334 . S
C1218 H1189 0.950 . S
C1218 C1217 1.334 . S
C1218 C1219 1.287 . S
C1219 C1218 1.287 . S
C1219 C1220 1.524 . S
C1219 H1222 0.999 . S
C1220 H1190 0.950 . S
C1220 C1219 1.524 . S
C1220 C1221 1.415 . S
C1221 H1191 0.950 . S
C1221 C1216 1.363 . S
C1221 C1220 1.415 . S
H1222 C1219 0.999 . S
H1223 C1204 0.913 . S
C443 C250 2.117 . S
C458 C22 2.114 . S
C493 C91 2.049 . S
C508 C287 2.048 . S
C543 C128 1.910 . S
C558 C356 1.911 . S
C593 C393 1.996 . S
C608 C197 2.000 . S
C643 C39 2.968 . S
C658 C145 2.964 . S
C693 C82 2.600 . S
C708 C188 2.610 . S
C743 C347 2.594 . S
C758 C241 2.588 . S
C793 C304 2.979 . S
C808 C410 2.988 . S
C843 C294 1.529 . S
C858 C38 1.496 . S
C893 C75 1.514 . S
C908 C357 1.585 . S
C943 C144 1.558 . S
C958 C400 1.597 . S
C993 C251 1.400 . S
C1008 C181 1.356 . S
C1043 C234 1.415 . S
C1058 C92 1.469 . S
C1093 C303 1.561 . S
C1108 C135 1.615 . S
C1143 C340 1.466 . S
C1158 C198 1.525 . S
C1193 C29 1.508 . S
C1208 C409 1.476 . S
