# Generated by pormake.
# Topology ukd, (4)-cn, num edge types: 1
# Building blocks:
#     Node 0, Type 0, BuildingBlock: GALJAG_clean_sbu_0, # of connection points: 4
#     Node 1, Type 0, BuildingBlock: GALJAG_clean_sbu_0, # of connection points: 4
#     Node 2, Type 0, BuildingBlock: GALJAG_clean_sbu_0, # of connection points: 4
#     Node 3, Type 0, BuildingBlock: GALJAG_clean_sbu_0, # of connection points: 4
#     Node 4, Type 0, BuildingBlock: GALJAG_clean_sbu_0, # of connection points: 4
#     Node 5, Type 0, BuildingBlock: GALJAG_clean_sbu_0, # of connection points: 4
#     Node 6, Type 0, BuildingBlock: GALJAG_clean_sbu_0, # of connection points: 4
#     Node 7, Type 0, BuildingBlock: GALJAG_clean_sbu_0, # of connection points: 4
#     Node 8, Type 0, BuildingBlock: GALJAG_clean_sbu_0, # of connection points: 4
#     Node 9, Type 0, BuildingBlock: GALJAG_clean_sbu_0, # of connection points: 4
#     Node 10, Type 0, BuildingBlock: GALJAG_clean_sbu_0, # of connection points: 4
#     Node 11, Type 0, BuildingBlock: GALJAG_clean_sbu_0, # of connection points: 4
#     Node 12, Type 0, BuildingBlock: GALJAG_clean_sbu_0, # of connection points: 4
#     Node 13, Type 0, BuildingBlock: GALJAG_clean_sbu_0, # of connection points: 4
#     Node 14, Type 0, BuildingBlock: GALJAG_clean_sbu_0, # of connection points: 4
#     Node 15, Type 0, BuildingBlock: GALJAG_clean_sbu_0, # of connection points: 4
#     Node 16, Type 0, BuildingBlock: GALJAG_clean_sbu_0, # of connection points: 4
#     Node 17, Type 0, BuildingBlock: GALJAG_clean_sbu_0, # of connection points: 4
#     Node 18, Type 0, BuildingBlock: GALJAG_clean_sbu_0, # of connection points: 4
#     Node 19, Type 0, BuildingBlock: GALJAG_clean_sbu_0, # of connection points: 4
#     Node 20, Type 0, BuildingBlock: GALJAG_clean_sbu_0, # of connection points: 4
#     Node 21, Type 0, BuildingBlock: GALJAG_clean_sbu_0, # of connection points: 4
#     Node 22, Type 0, BuildingBlock: GALJAG_clean_sbu_0, # of connection points: 4
#     Node 23, Type 0, BuildingBlock: GALJAG_clean_sbu_0, # of connection points: 4
#     Node 24, Type 0, BuildingBlock: GALJAG_clean_sbu_0, # of connection points: 4
#     Node 25, Type 0, BuildingBlock: GALJAG_clean_sbu_0, # of connection points: 4
#     Node 26, Type 0, BuildingBlock: GALJAG_clean_sbu_0, # of connection points: 4
#     Node 27, Type 0, BuildingBlock: GALJAG_clean_sbu_0, # of connection points: 4
#     Node 28, Type 0, BuildingBlock: GALJAG_clean_sbu_0, # of connection points: 4
#     Node 29, Type 0, BuildingBlock: GALJAG_clean_sbu_0, # of connection points: 4
#     Node 30, Type 0, BuildingBlock: GALJAG_clean_sbu_0, # of connection points: 4
#     Node 31, Type 0, BuildingBlock: GALJAG_clean_sbu_0, # of connection points: 4
#     Edge 32, Type (0, 0), BuildingBlock: UVAHIK_clean_linker_0, # of connection points: 2
#     Edge 33, Type (0, 0), BuildingBlock: UVAHIK_clean_linker_0, # of connection points: 2
#     Edge 34, Type (0, 0), BuildingBlock: UVAHIK_clean_linker_0, # of connection points: 2
#     Edge 35, Type (0, 0), BuildingBlock: UVAHIK_clean_linker_0, # of connection points: 2
#     Edge 36, Type (0, 0), BuildingBlock: UVAHIK_clean_linker_0, # of connection points: 2
#     Edge 37, Type (0, 0), BuildingBlock: UVAHIK_clean_linker_0, # of connection points: 2
#     Edge 38, Type (0, 0), BuildingBlock: UVAHIK_clean_linker_0, # of connection points: 2
#     Edge 39, Type (0, 0), BuildingBlock: UVAHIK_clean_linker_0, # of connection points: 2
#     Edge 40, Type (0, 0), BuildingBlock: UVAHIK_clean_linker_0, # of connection points: 2
#     Edge 41, Type (0, 0), BuildingBlock: UVAHIK_clean_linker_0, # of connection points: 2
#     Edge 42, Type (0, 0), BuildingBlock: UVAHIK_clean_linker_0, # of connection points: 2
#     Edge 43, Type (0, 0), BuildingBlock: UVAHIK_clean_linker_0, # of connection points: 2
#     Edge 44, Type (0, 0), BuildingBlock: UVAHIK_clean_linker_0, # of connection points: 2
#     Edge 45, Type (0, 0), BuildingBlock: UVAHIK_clean_linker_0, # of connection points: 2
#     Edge 46, Type (0, 0), BuildingBlock: UVAHIK_clean_linker_0, # of connection points: 2
#     Edge 47, Type (0, 0), BuildingBlock: UVAHIK_clean_linker_0, # of connection points: 2
#     Edge 48, Type (0, 0), BuildingBlock: UVAHIK_clean_linker_0, # of connection points: 2
#     Edge 49, Type (0, 0), BuildingBlock: UVAHIK_clean_linker_0, # of connection points: 2
#     Edge 50, Type (0, 0), BuildingBlock: UVAHIK_clean_linker_0, # of connection points: 2
#     Edge 51, Type (0, 0), BuildingBlock: UVAHIK_clean_linker_0, # of connection points: 2
#     Edge 52, Type (0, 0), BuildingBlock: UVAHIK_clean_linker_0, # of connection points: 2
#     Edge 53, Type (0, 0), BuildingBlock: UVAHIK_clean_linker_0, # of connection points: 2
#     Edge 54, Type (0, 0), BuildingBlock: UVAHIK_clean_linker_0, # of connection points: 2
#     Edge 55, Type (0, 0), BuildingBlock: UVAHIK_clean_linker_0, # of connection points: 2
#     Edge 56, Type (0, 0), BuildingBlock: UVAHIK_clean_linker_0, # of connection points: 2
#     Edge 57, Type (0, 0), BuildingBlock: UVAHIK_clean_linker_0, # of connection points: 2
#     Edge 58, Type (0, 0), BuildingBlock: UVAHIK_clean_linker_0, # of connection points: 2
#     Edge 59, Type (0, 0), BuildingBlock: UVAHIK_clean_linker_0, # of connection points: 2
#     Edge 60, Type (0, 0), BuildingBlock: UVAHIK_clean_linker_0, # of connection points: 2
#     Edge 61, Type (0, 0), BuildingBlock: UVAHIK_clean_linker_0, # of connection points: 2
#     Edge 62, Type (0, 0), BuildingBlock: UVAHIK_clean_linker_0, # of connection points: 2
#     Edge 63, Type (0, 0), BuildingBlock: UVAHIK_clean_linker_0, # of connection points: 2
#     Edge 64, Type (0, 0), BuildingBlock: UVAHIK_clean_linker_0, # of connection points: 2
#     Edge 65, Type (0, 0), BuildingBlock: UVAHIK_clean_linker_0, # of connection points: 2
#     Edge 66, Type (0, 0), BuildingBlock: UVAHIK_clean_linker_0, # of connection points: 2
#     Edge 67, Type (0, 0), BuildingBlock: UVAHIK_clean_linker_0, # of connection points: 2
#     Edge 68, Type (0, 0), BuildingBlock: UVAHIK_clean_linker_0, # of connection points: 2
#     Edge 69, Type (0, 0), BuildingBlock: UVAHIK_clean_linker_0, # of connection points: 2
#     Edge 70, Type (0, 0), BuildingBlock: UVAHIK_clean_linker_0, # of connection points: 2
#     Edge 71, Type (0, 0), BuildingBlock: UVAHIK_clean_linker_0, # of connection points: 2
#     Edge 72, Type (0, 0), BuildingBlock: UVAHIK_clean_linker_0, # of connection points: 2
#     Edge 73, Type (0, 0), BuildingBlock: UVAHIK_clean_linker_0, # of connection points: 2
#     Edge 74, Type (0, 0), BuildingBlock: UVAHIK_clean_linker_0, # of connection points: 2
#     Edge 75, Type (0, 0), BuildingBlock: UVAHIK_clean_linker_0, # of connection points: 2
#     Edge 76, Type (0, 0), BuildingBlock: UVAHIK_clean_linker_0, # of connection points: 2
#     Edge 77, Type (0, 0), BuildingBlock: UVAHIK_clean_linker_0, # of connection points: 2
#     Edge 78, Type (0, 0), BuildingBlock: UVAHIK_clean_linker_0, # of connection points: 2
#     Edge 79, Type (0, 0), BuildingBlock: UVAHIK_clean_linker_0, # of connection points: 2
#     Edge 80, Type (0, 0), BuildingBlock: UVAHIK_clean_linker_0, # of connection points: 2
#     Edge 81, Type (0, 0), BuildingBlock: UVAHIK_clean_linker_0, # of connection points: 2
#     Edge 82, Type (0, 0), BuildingBlock: UVAHIK_clean_linker_0, # of connection points: 2
#     Edge 83, Type (0, 0), BuildingBlock: UVAHIK_clean_linker_0, # of connection points: 2
#     Edge 84, Type (0, 0), BuildingBlock: UVAHIK_clean_linker_0, # of connection points: 2
#     Edge 85, Type (0, 0), BuildingBlock: UVAHIK_clean_linker_0, # of connection points: 2
#     Edge 86, Type (0, 0), BuildingBlock: UVAHIK_clean_linker_0, # of connection points: 2
#     Edge 87, Type (0, 0), BuildingBlock: UVAHIK_clean_linker_0, # of connection points: 2
#     Edge 88, Type (0, 0), BuildingBlock: UVAHIK_clean_linker_0, # of connection points: 2
#     Edge 89, Type (0, 0), BuildingBlock: UVAHIK_clean_linker_0, # of connection points: 2
#     Edge 90, Type (0, 0), BuildingBlock: UVAHIK_clean_linker_0, # of connection points: 2
#     Edge 91, Type (0, 0), BuildingBlock: UVAHIK_clean_linker_0, # of connection points: 2
#     Edge 92, Type (0, 0), BuildingBlock: UVAHIK_clean_linker_0, # of connection points: 2
#     Edge 93, Type (0, 0), BuildingBlock: UVAHIK_clean_linker_0, # of connection points: 2
#     Edge 94, Type (0, 0), BuildingBlock: UVAHIK_clean_linker_0, # of connection points: 2
#     Edge 95, Type (0, 0), BuildingBlock: UVAHIK_clean_linker_0, # of connection points: 2
# Relax obj value: 0.105
# Max RMSD: 0.103
# Mean RMSD: 0.103
data_MOF--net-ukd--node1-GALJAG_clean_sbu_0--edge1-UVAHIK_clean_linker_0
_symmetry_space_group_name_H-M    P1
_symmetry_Int_Tables_number       1
_symmetry_cell_setting            triclinic
loop_
_symmetry_equiv_pos_as_xyz
'x, y, z'
_cell_length_a     59.352192
_cell_length_b     59.226005
_cell_length_c     92.040502
_cell_angle_alpha  90.016045
_cell_angle_beta   90.007562
_cell_angle_gamma 89.987298
loop_
_atom_site_label
_atom_site_type_symbol
_atom_site_fract_x
_atom_site_fract_y
_atom_site_fract_z
_atom_type_partial_charge
In0 In 0.21187 0.18389 0.33996 0.0
O1 O 0.18259 0.1606 0.33418 0.0
O2 O 0.18659 0.1702 0.35628 0.0
C3 C 0.22444 0.19628 0.3131 0.0
C4 C 0.24639 0.15693 0.34769 0.0
C5 C 0.1999 0.22468 0.35031 0.0
O6 O 0.2065 0.18546 0.31553 0.0
O7 O 0.23616 0.20053 0.32421 0.0
O8 O 0.21312 0.21182 0.35721 0.0
O9 O 0.19288 0.21686 0.3384 0.0
C10 C 0.17536 0.15923 0.34704 0.0
O11 O 0.24399 0.17648 0.35295 0.0
O12 O 0.23139 0.15115 0.33875 0.0
In13 In 0.0593 0.96312 0.59478 0.0
O14 O 0.06822 0.98939 0.61207 0.0
O15 O 0.08113 0.99394 0.59075 0.0
C16 C 0.02122 0.945 0.60561 0.0
C17 C 0.09172 0.93201 0.59948 0.0
C18 C 0.0427 0.97338 0.5685 0.0
O19 O 0.02887 0.96364 0.6101 0.0
O20 O 0.03292 0.93558 0.59592 0.0
O21 O 0.05768 0.95849 0.57033 0.0
O22 O 0.03627 0.98325 0.57994 0.0
C23 C 0.07997 0.00125 0.60358 0.0
O24 O 0.08729 0.93951 0.58699 0.0
O25 O 0.07993 0.94029 0.60954 0.0
In26 In 0.28121 0.80549 0.8414 0.0
O27 O 0.24732 0.8101 0.85298 0.0
O28 O 0.26442 0.83931 0.84548 0.0
C29 C 0.29069 0.76408 0.8519 0.0
C30 C 0.31916 0.82887 0.84707 0.0
C31 C 0.26976 0.79681 0.81366 0.0
O32 O 0.28156 0.77915 0.85962 0.0
O33 O 0.29494 0.76998 0.83903 0.0
O34 O 0.28896 0.80407 0.81722 0.0
O35 O 0.2562 0.79426 0.82408 0.0
C36 C 0.24737 0.83131 0.85176 0.0
O37 O 0.30818 0.83128 0.83544 0.0
O38 O 0.31098 0.81471 0.85584 0.0
In39 In 0.43279 0.02997 0.0934 0.0
O40 O 0.42376 0.00027 0.10821 0.0
O41 O 0.40416 0.00552 0.08919 0.0
C42 C 0.47068 0.04456 0.10648 0.0
C43 C 0.40314 0.06303 0.09937 0.0
C44 C 0.44956 0.02107 0.06684 0.0
O45 O 0.46361 0.02459 0.10795 0.0
O46 O 0.4586 0.057 0.09856 0.0
O47 O 0.43649 0.03743 0.06925 0.0
O48 O 0.45407 0.00915 0.07781 0.0
C49 C 0.40748 0.99384 0.10042 0.0
O50 O 0.40796 0.05722 0.08655 0.0
O51 O 0.41317 0.05203 0.10919 0.0
In52 In 0.21211 0.79825 0.14887 0.0
O53 O 0.24211 0.8083 0.13467 0.0
O54 O 0.23397 0.82902 0.15278 0.0
C55 C 0.1997 0.75973 0.13553 0.0
C56 C 0.17762 0.82589 0.14234 0.0
C57 C 0.22135 0.78201 0.17555 0.0
O58 O 0.21921 0.76792 0.13407 0.0
O59 O 0.18675 0.77091 0.14366 0.0
O60 O 0.20381 0.79324 0.17282 0.0
O61 O 0.23425 0.77905 0.16485 0.0
C62 C 0.24672 0.82566 0.14205 0.0
O63 O 0.18385 0.82228 0.15525 0.0
O64 O 0.18901 0.8158 0.13273 0.0
In65 In 0.43931 0.95986 0.39881 0.0
O66 O 0.43127 0.99024 0.38415 0.0
O67 O 0.4081 0.98145 0.4008 0.0
C68 C 0.47928 0.95194 0.38552 0.0
C69 C 0.41567 0.92126 0.396 0.0
C70 C 0.4474 0.97091 0.42661 0.0
O71 O 0.46069 0.94824 0.37934 0.0
O72 O 0.4776 0.96012 0.39807 0.0
O73 O 0.43816 0.9525 0.42308 0.0
O74 O 0.45247 0.98366 0.41612 0.0
C75 C 0.41289 0.99457 0.3905 0.0
O76 O 0.4314 0.92342 0.40512 0.0
O77 O 0.41216 0.93841 0.3882 0.0
In78 In 0.2796 0.19385 0.64793 0.0
O79 O 0.30619 0.16775 0.65454 0.0
O80 O 0.31064 0.18465 0.6345 0.0
C81 C 0.26934 0.20886 0.67463 0.0
C82 C 0.24495 0.16634 0.64099 0.0
C83 C 0.28547 0.23421 0.63504 0.0
O84 O 0.28826 0.2003 0.67158 0.0
O85 O 0.25562 0.20995 0.66415 0.0
O86 O 0.2772 0.21755 0.62832 0.0
O87 O 0.2907 0.2304 0.64809 0.0
C88 C 0.31818 0.17042 0.6434 0.0
O89 O 0.25068 0.18266 0.63302 0.0
O90 O 0.25686 0.16379 0.65217 0.0
In91 In 0.06011 0.03188 0.90107 0.0
O92 O 0.087 0.05824 0.90613 0.0
O93 O 0.07677 0.05445 0.88416 0.0
C94 C 0.0453 0.0244 0.92815 0.0
C95 C 0.08256 0.99353 0.8948 0.0
C96 C 0.02056 0.04729 0.89082 0.0
O97 O 0.06017 0.039 0.9253 0.0
O98 O 0.0382 0.01334 0.91734 0.0
O99 O 0.02964 0.02963 0.88575 0.0
O100 O 0.03157 0.05698 0.90073 0.0
C101 C 0.089 0.06479 0.89317 0.0
O102 O 0.06757 0.00134 0.88646 0.0
O103 O 0.08606 0.00505 0.90607 0.0
In104 In 0.7777 0.81229 0.6508 0.0
O105 O 0.7492 0.82007 0.63473 0.0
O106 O 0.75066 0.83859 0.65449 0.0
C107 C 0.79364 0.77235 0.64144 0.0
C108 C 0.81173 0.84061 0.64407 0.0
C109 C 0.76652 0.79794 0.67746 0.0
O110 O 0.77699 0.78182 0.6354 0.0
O111 O 0.80201 0.78308 0.65196 0.0
O112 O 0.78226 0.81189 0.67527 0.0
O113 O 0.75625 0.79146 0.66617 0.0
C114 C 0.74051 0.8351 0.64268 0.0
O115 O 0.80398 0.83896 0.65678 0.0
O116 O 0.80198 0.82842 0.63478 0.0
In117 In 0.93351 0.02942 0.4012 0.0
O118 O 0.96385 0.02889 0.38578 0.0
O119 O 0.96169 0.05501 0.40161 0.0
C120 C 0.91175 0.99131 0.39357 0.0
C121 C 0.94833 0.01908 0.42789 0.0
C122 C 0.90412 0.06242 0.3942 0.0
O123 O 0.92599 0.00057 0.38532 0.0
O124 O 0.90848 0.00134 0.40545 0.0
O125 O 0.90679 0.05573 0.40709 0.0
O126 O 0.91583 0.05212 0.3849 0.0
C127 C 0.97265 0.04636 0.39128 0.0
O128 O 0.93365 0.03415 0.42568 0.0
O129 O 0.95537 0.00914 0.41662 0.0
In130 In 0.71063 0.17853 0.15263 0.0
O131 O 0.68128 0.15703 0.1605 0.0
O132 O 0.68919 0.15585 0.13803 0.0
C133 C 0.72234 0.19567 0.17853 0.0
C134 C 0.74799 0.15465 0.14633 0.0
C135 C 0.69561 0.21699 0.14032 0.0
O136 O 0.70751 0.18054 0.17714 0.0
O137 O 0.73151 0.20197 0.16683 0.0
O138 O 0.71209 0.20615 0.13515 0.0
O139 O 0.68665 0.20816 0.15134 0.0
C140 C 0.67659 0.1491 0.14817 0.0
O141 O 0.73971 0.16881 0.13758 0.0
O142 O 0.73732 0.15248 0.15808 0.0
In143 In 0.55801 0.96582 0.89915 0.0
O144 O 0.5274 0.9655 0.8839 0.0
O145 O 0.53239 0.9377 0.89817 0.0
C146 C 0.57832 0.00488 0.8919 0.0
C147 C 0.54174 0.97508 0.92565 0.0
C148 C 0.58976 0.93484 0.89271 0.0
O149 O 0.56546 0.99459 0.8832 0.0
O150 O 0.58088 0.99543 0.90404 0.0
O151 O 0.58568 0.94088 0.90558 0.0
O152 O 0.57826 0.94484 0.88316 0.0
C153 C 0.52043 0.94659 0.88842 0.0
O154 O 0.55712 0.96067 0.92357 0.0
O155 O 0.53466 0.98485 0.91434 0.0
In156 In 0.7822 0.18613 0.84394 0.0
O157 O 0.80702 0.15802 0.83806 0.0
O158 O 0.80454 0.16786 0.86018 0.0
C159 C 0.77186 0.20112 0.81726 0.0
C160 C 0.74376 0.16568 0.8522 0.0
C161 C 0.80062 0.22481 0.85368 0.0
O162 O 0.7872 0.18675 0.81948 0.0
O163 O 0.76159 0.20772 0.8285 0.0
O164 O 0.78289 0.21671 0.85922 0.0
O165 O 0.80886 0.21335 0.84344 0.0
C166 C 0.81395 0.15537 0.8509 0.0
O167 O 0.75297 0.18085 0.85979 0.0
O168 O 0.75401 0.16084 0.84062 0.0
In169 In 0.5569 0.03674 0.59123 0.0
O170 O 0.5513 0.03959 0.56693 0.0
O171 O 0.53075 0.01645 0.57863 0.0
C172 C 0.59165 0.06602 0.5924 0.0
C173 C 0.52283 0.05836 0.6048 0.0
C174 C 0.57748 -0.00161 0.59962 0.0
O175 O 0.58183 0.06101 0.58069 0.0
O176 O 0.58408 0.0561 0.6035 0.0
O177 O 0.56609 0.01037 0.60827 0.0
O178 O 0.57837 0.00572 0.58677 0.0
C179 C 0.53559 0.02525 0.56655 0.0
O180 O 0.52868 0.03858 0.60822 0.0
O181 O 0.5343 0.06712 0.59478 0.0
In182 In 0.71394 0.80272 0.34355 0.0
O183 O 0.68173 0.82078 0.33644 0.0
O184 O 0.69421 0.82774 0.35753 0.0
C185 C 0.7282 0.78987 0.31714 0.0
C186 C 0.75107 0.82533 0.35187 0.0
C187 C 0.69923 0.76329 0.35479 0.0
O188 O 0.71374 0.80525 0.31897 0.0
O189 O 0.73566 0.78109 0.32869 0.0
O190 O 0.71359 0.77539 0.36123 0.0
O191 O 0.69221 0.77124 0.34295 0.0
C192 C 0.67926 0.83153 0.34813 0.0
O193 O 0.74243 0.80993 0.35955 0.0
O194 O 0.74093 0.82931 0.34011 0.0
In195 In 0.93509 0.95879 0.09245 0.0
O196 O 0.93394 0.96325 0.06805 0.0
O197 O 0.95998 0.98025 0.07964 0.0
C198 C 0.90323 0.92626 0.09326 0.0
C199 C 0.97229 0.93847 0.10311 0.0
C200 C 0.91406 0.99531 0.10335 0.0
O201 O 0.91442 0.93072 0.082 0.0
O202 O 0.90806 0.93822 0.10416 0.0
O203 O 0.92616 0.98261 0.11115 0.0
O204 O 0.91266 0.98951 0.09021 0.0
C205 C 0.95098 0.97597 0.06751 0.0
O206 O 0.9638 0.95568 0.10907 0.0
O207 O 0.96186 0.93154 0.09207 0.0
In208 In 0.71386 0.68744 0.84479 0.0
O209 O 0.74178 0.67999 0.86125 0.0
O210 O 0.7422 0.66242 0.84112 0.0
C211 C 0.69751 0.727 0.85456 0.0
C212 C 0.68112 0.65742 0.85116 0.0
C213 C 0.72429 0.70226 0.81811 0.0
O214 O 0.71484 0.71802 0.86006 0.0
O215 O 0.68852 0.71589 0.84442 0.0
O216 O 0.70867 0.68821 0.82037 0.0
O217 O 0.73485 0.70857 0.82931 0.0
C218 C 0.75148 0.66566 0.85325 0.0
O219 O 0.6888 0.65983 0.83848 0.0
O220 O 0.69013 0.66992 0.86059 0.0
In221 In 0.56251 0.45707 0.09155 0.0
O222 O 0.57171 0.48601 0.10696 0.0
O223 O 0.58921 0.48338 0.08689 0.0
C224 C 0.52274 0.44303 0.1023 0.0
C225 C 0.59124 0.4231 0.09776 0.0
C226 C 0.54695 0.46824 0.06516 0.0
O227 O 0.53318 0.45966 0.10766 0.0
O228 O 0.53259 0.43345 0.09185 0.0
O229 O 0.56017 0.4518 0.06715 0.0
O230 O 0.54178 0.47912 0.07648 0.0
C231 C 0.58651 0.49408 0.09859 0.0
O232 O 0.58775 0.4298 0.08496 0.0
O233 O 0.58038 0.43361 0.10739 0.0
In234 In 0.78067 0.30977 0.3441 0.0
O235 O 0.75302 0.31633 0.36086 0.0
O236 O 0.75145 0.33395 0.34079 0.0
C237 C 0.79847 0.27101 0.35423 0.0
C238 C 0.81252 0.34112 0.34965 0.0
C239 C 0.76958 0.29461 0.31758 0.0
O240 O 0.78078 0.27949 0.35956 0.0
O241 O 0.80714 0.2822 0.34402 0.0
O242 O 0.78464 0.30933 0.31958 0.0
O243 O 0.75995 0.28769 0.32898 0.0
C244 C 0.74262 0.33034 0.35301 0.0
O245 O 0.80552 0.33705 0.33699 0.0
O246 O 0.8033 0.32956 0.35949 0.0
In247 In 0.93261 0.53273 0.59259 0.0
O248 O 0.92662 0.50108 0.60642 0.0
O249 O 0.90093 0.51172 0.59183 0.0
C250 C 0.97277 0.54812 0.60186 0.0
C251 C 0.90627 0.56804 0.59967 0.0
C252 C 0.9449 0.51932 0.56589 0.0
O253 O 0.96195 0.53331 0.60888 0.0
O254 O 0.96327 0.5549 0.59042 0.0
O255 O 0.93285 0.53657 0.56804 0.0
O256 O 0.95042 0.50864 0.57721 0.0
C257 C 0.90724 0.49756 0.60119 0.0
O258 O 0.90818 0.56103 0.58678 0.0
O259 O 0.91752 0.55716 0.60896 0.0
In260 In 0.71295 0.29981 0.64779 0.0
O261 O 0.74388 0.30961 0.63428 0.0
O262 O 0.73405 0.33096 0.65175 0.0
C263 C 0.70753 0.26116 0.63256 0.0
C264 C 0.67346 0.32203 0.64465 0.0
C265 C 0.72413 0.28864 0.67514 0.0
O266 O 0.70812 0.28019 0.6264 0.0
O267 O 0.70992 0.26181 0.64612 0.0
O268 O 0.70644 0.29959 0.6722 0.0
O269 O 0.73616 0.2836 0.66431 0.0
C270 C 0.74774 0.32729 0.64155 0.0
O271 O 0.67517 0.30406 0.6519 0.0
O272 O 0.69155 0.32863 0.63889 0.0
In273 In 0.94014 0.46524 0.9014 0.0
O274 O 0.92941 0.4926 0.88516 0.0
O275 O 0.91357 0.49184 0.90582 0.0
C276 C 0.98181 0.45548 0.8917 0.0
C277 C 0.91403 0.42952 0.89422 0.0
C278 C 0.95217 0.47507 0.92875 0.0
O279 O 0.97002 0.47096 0.88609 0.0
O280 O 0.9725 0.445 0.90199 0.0
O281 O 0.94089 0.45767 0.92557 0.0
O282 O 0.95746 0.48744 0.9181 0.0
C283 C 0.91526 0.50141 0.89367 0.0
O284 O 0.91376 0.4383 0.90668 0.0
O285 O 0.92725 0.43886 0.88537 0.0
In286 In 0.77766 0.69285 0.14612 0.0
O287 O 0.75391 0.67919 0.12861 0.0
O288 O 0.74768 0.6699 0.15049 0.0
C289 C 0.7832 0.73047 0.12992 0.0
C290 C 0.81635 0.6689 0.14547 0.0
C291 C 0.77121 0.70625 0.17371 0.0
O292 O 0.7749 0.73069 0.1425 0.0
O293 O 0.78825 0.71109 0.12525 0.0
O294 O 0.78697 0.69306 0.17014 0.0
O295 O 0.75861 0.7124 0.1634 0.0
C296 C 0.74176 0.66832 0.1374 0.0
O297 O 0.81588 0.69008 0.14682 0.0
O298 O 0.79725 0.6597 0.14448 0.0
In299 In 0.55551 0.52975 0.40045 0.0
O300 O 0.58134 0.55577 0.40804 0.0
O301 O 0.57819 0.54992 0.38535 0.0
C302 C 0.53781 0.52112 0.42672 0.0
C303 C 0.57744 0.49128 0.39382 0.0
C304 C 0.5187 0.54684 0.38731 0.0
O305 O 0.55276 0.53596 0.42475 0.0
O306 O 0.53167 0.51076 0.4154 0.0
O307 O 0.52536 0.52691 0.38503 0.0
O308 O 0.53057 0.55793 0.39615 0.0
C309 C 0.5878 0.56077 0.39538 0.0
O310 O 0.56544 0.50161 0.38467 0.0
O311 O 0.57837 0.50037 0.40618 0.0
In312 In 0.28148 0.31016 0.14735 0.0
O313 O 0.25216 0.31698 0.13183 0.0
O314 O 0.25466 0.33682 0.15101 0.0
C315 C 0.29631 0.2703 0.13706 0.0
C316 C 0.31474 0.33961 0.14096 0.0
C317 C 0.2709 0.29495 0.17394 0.0
O318 O 0.28028 0.28086 0.13111 0.0
O319 O 0.30494 0.28006 0.14788 0.0
O320 O 0.28761 0.30767 0.17166 0.0
O321 O 0.25936 0.29021 0.16283 0.0
C322 C 0.24387 0.33252 0.13955 0.0
O323 O 0.30702 0.33733 0.15363 0.0
O324 O 0.30556 0.32723 0.13153 0.0
In325 In 0.43588 0.53224 0.89953 0.0
O326 O 0.43748 0.53634 0.92404 0.0
O327 O 0.4575 0.51056 0.91434 0.0
C328 C 0.40467 0.56427 0.89399 0.0
C329 C 0.47464 0.54917 0.8889 0.0
C330 C 0.41459 0.49416 0.89138 0.0
O331 O 0.40977 0.55825 0.90671 0.0
O332 O 0.41526 0.55411 0.88408 0.0
O333 O 0.4292 0.5036 0.88348 0.0
O334 O 0.4107 0.50401 0.90325 0.0
C335 C 0.45152 0.52056 0.92582 0.0
O336 O 0.46526 0.53205 0.88341 0.0
O337 O 0.46424 0.55786 0.89944 0.0
In338 In 0.21371 0.68764 0.64649 0.0
O339 O 0.24248 0.67861 0.63102 0.0
O340 O 0.23891 0.65947 0.65041 0.0
C341 C 0.2017 0.72828 0.63591 0.0
C342 C 0.17863 0.66028 0.64018 0.0
C343 C 0.22457 0.70267 0.6731 0.0
O344 O 0.21702 0.71658 0.63007 0.0
O345 O 0.1924 0.71927 0.64677 0.0
O346 O 0.20696 0.6913 0.67067 0.0
O347 O 0.2369 0.70608 0.66214 0.0
C348 C 0.24984 0.66277 0.63887 0.0
O349 O 0.1868 0.6618 0.65278 0.0
O350 O 0.18829 0.67234 0.63078 0.0
In351 In 0.05791 0.45968 0.40028 0.0
O352 O 0.05526 0.45341 0.42462 0.0
O353 O 0.03909 0.48251 0.41593 0.0
C354 C 0.08628 0.4256 0.3937 0.0
C355 C 0.01845 0.44579 0.38897 0.0
C356 C 0.08156 0.49693 0.39336 0.0
O357 O 0.08272 0.43195 0.40657 0.0
O358 O 0.07552 0.43642 0.38415 0.0
O359 O 0.06297 0.49228 0.38741 0.0
O360 O 0.08821 0.4827 0.40259 0.0
C361 C 0.04333 0.47068 0.42699 0.0
O362 O 0.03082 0.45998 0.38254 0.0
O363 O 0.02626 0.43843 0.40078 0.0
In364 In 0.27993 0.68589 0.34593 0.0
O365 O 0.24941 0.67992 0.36067 0.0
O366 O 0.25518 0.65712 0.34324 0.0
C367 C 0.29235 0.72288 0.3613 0.0
C368 C 0.3159 0.65823 0.34707 0.0
C369 C 0.26999 0.69849 0.31862 0.0
O370 O 0.28207 0.72395 0.34938 0.0
O371 O 0.29592 0.70311 0.36576 0.0
O372 O 0.28777 0.68786 0.32177 0.0
O373 O 0.25723 0.70268 0.32925 0.0
C374 C 0.24293 0.6626 0.35384 0.0
O375 O 0.31461 0.67453 0.33828 0.0
O376 O 0.29903 0.65589 0.35527 0.0
In377 In 0.0531 0.53079 0.09775 0.0
O378 O 0.04698 0.53956 0.07404 0.0
O379 O 0.02754 0.51304 0.08328 0.0
C380 C 0.08861 0.559 0.09857 0.0
C381 C 0.01951 0.54998 0.11331 0.0
C382 C 0.07376 0.4916 0.10438 0.0
O383 O 0.07771 0.55505 0.08707 0.0
O384 O 0.08174 0.54849 0.10965 0.0
O385 O 0.06492 0.50401 0.11396 0.0
O386 O 0.07202 0.4989 0.09158 0.0
C387 C 0.03198 0.52475 0.0722 0.0
O388 O 0.02122 0.52889 0.11183 0.0
O389 O 0.03486 0.56116 0.10723 0.0
In390 In 0.21214 0.31222 0.84339 0.0
O391 O 0.24044 0.3196 0.85962 0.0
O392 O 0.24251 0.33403 0.83851 0.0
C393 C 0.19433 0.27373 0.85387 0.0
C394 C 0.1823 0.34513 0.84979 0.0
C395 C 0.22076 0.29644 0.81668 0.0
O396 O 0.21282 0.28146 0.8585 0.0
O397 O 0.18489 0.28559 0.84427 0.0
O398 O 0.20511 0.31039 0.81916 0.0
O399 O 0.23206 0.29057 0.82768 0.0
C400 C 0.2514 0.33175 0.85085 0.0
O401 O 0.1889 0.34136 0.837 0.0
O402 O 0.19085 0.33244 0.85929 0.0
In403 In 0.43585 0.45856 0.59496 0.0
O404 O 0.4398 0.45078 0.57088 0.0
O405 O 0.46052 0.47644 0.57997 0.0
C406 C 0.40098 0.42965 0.59611 0.0
C407 C 0.47039 0.44008 0.61008 0.0
C408 C 0.41485 0.49738 0.60221 0.0
O409 O 0.41267 0.43237 0.58479 0.0
O410 O 0.40685 0.44161 0.60683 0.0
O411 O 0.4244 0.48505 0.61154 0.0
O412 O 0.41606 0.49019 0.58936 0.0
C413 C 0.45488 0.46544 0.56881 0.0
O414 O 0.46923 0.46092 0.60745 0.0
O415 O 0.45406 0.42874 0.60533 0.0
C416 C 0.11368 0.39561 0.40107 0.0
C417 C 0.10159 0.40678 0.3901 0.0
C418 C 0.12774 0.37742 0.39766 0.0
C419 C 0.15691 0.34971 0.36678 0.0
H420 H 0.15372 0.29623 0.391 0.0
C421 C 0.18086 0.26159 0.34635 0.0
C422 C 0.19272 0.24703 0.35565 0.0
C423 C 0.1731 0.28239 0.35135 0.0
C424 C 0.15511 0.31117 0.38428 0.0
H425 H 0.09483 0.40787 0.36696 0.0
H426 H 0.119 0.37596 0.36103 0.0
H427 H 0.13361 0.33033 0.39828 0.0
H428 H 0.20608 0.24289 0.3774 0.0
H429 H 0.19219 0.27942 0.38624 0.0
H430 H 0.17778 0.33025 0.35253 0.0
C431 C 0.11799 0.38143 0.37224 0.0
C432 C 0.14359 0.33071 0.38844 0.0
C433 C 0.104 0.39962 0.37564 0.0
C434 C 0.19697 0.25382 0.37002 0.0
C435 C 0.18897 0.27463 0.37508 0.0
C436 C 0.16832 0.33016 0.3626 0.0
C437 C 0.12995 0.37004 0.38321 0.0
C438 C 0.14398 0.35006 0.37957 0.0
C439 C 0.17687 0.28906 0.36578 0.0
C440 C 0.16714 0.31055 0.37114 0.0
H441 H 0.11222 0.40084 0.41231 0.0
H442 H 0.1369 0.36917 0.40634 0.0
H443 H 0.15796 0.36448 0.35987 0.0
H444 H 0.17736 0.25683 0.33522 0.0
H445 H 0.16356 0.293 0.34399 0.0
C446 C 0.9905 0.91665 0.60346 0.0
C447 C -0.00011 0.93515 0.61081 0.0
C448 C 0.97011 0.9074 0.60801 0.0
C449 C 0.91915 0.91974 0.62984 0.0
H450 H 0.91065 0.85506 0.62613 0.0
C451 C 0.84113 0.8691 0.65077 0.0
C452 C 0.83181 0.85417 0.64053 0.0
C453 C 0.8613 0.88039 0.64777 0.0
C454 C 0.91279 0.87315 0.62717 0.0
H455 H 0.99545 0.95845 0.62874 0.0
H456 H 0.95998 0.94181 0.63702 0.0
H457 H 0.94714 0.87153 0.62044 0.0
H458 H 0.83589 0.83977 0.61902 0.0
H459 H 0.87124 0.85919 0.6139 0.0
H460 H 0.88467 0.92102 0.63687 0.0
C461 C 0.96817 0.93474 0.62754 0.0
C462 C 0.93365 0.88264 0.62386 0.0
C463 C 0.98854 0.94419 0.62287 0.0
C464 C 0.84267 0.85117 0.62712 0.0
C465 C 0.86294 0.86217 0.62421 0.0
C466 C 0.89831 0.91015 0.63336 0.0
C467 C 0.95872 0.91622 0.62015 0.0
C468 C 0.93698 0.9061 0.62486 0.0
C469 C 0.87259 0.87661 0.63458 0.0
C470 C 0.89487 0.88683 0.63178 0.0
H471 H -0.00125 0.90947 0.59403 0.0
H472 H 0.96312 0.89351 0.60183 0.0
H473 H 0.92105 0.93788 0.63061 0.0
H474 H 0.83307 0.87173 0.66119 0.0
H475 H 0.86848 0.89144 0.65593 0.0
C476 C 0.38331 0.58838 0.87654 0.0
C477 C 0.38815 0.58227 0.89093 0.0
C478 C 0.36857 0.60617 0.8736 0.0
C479 C 0.34669 0.65823 0.88983 0.0
H480 H 0.30649 0.65697 0.85661 0.0
C481 C 0.29512 0.73645 0.87233 0.0
C482 C 0.29682 0.74155 0.85747 0.0
C483 C 0.30246 0.71553 0.87758 0.0
C484 C 0.31764 0.65757 0.86593 0.0
H485 H 0.38095 0.58951 0.91356 0.0
H486 H 0.35508 0.6206 0.90841 0.0
H487 H 0.32641 0.62268 0.86376 0.0
H488 H 0.30679 0.7286 0.83638 0.0
H489 H 0.31962 0.69228 0.8455 0.0
H490 H 0.33841 0.69327 0.89174 0.0
C491 C 0.36285 0.61178 0.8994 0.0
C492 C 0.32906 0.63796 0.87 0.0
C493 C 0.37759 0.59394 0.90235 0.0
C494 C 0.30531 0.72516 0.8479 0.0
C495 C 0.31249 0.70427 0.85311 0.0
C496 C 0.33525 0.67785 0.88575 0.0
C497 C 0.35837 0.61823 0.88499 0.0
C498 C 0.34414 0.63821 0.88177 0.0
C499 C 0.31143 0.69932 0.86802 0.0
C500 C 0.32105 0.67785 0.87354 0.0
H501 H 0.39121 0.57969 0.86752 0.0
H502 H 0.36574 0.61092 0.86238 0.0
H503 H 0.35836 0.65905 0.89886 0.0
H504 H 0.28859 0.74878 0.87994 0.0
H505 H 0.30129 0.7121 0.88911 0.0
C506 C 0.50749 0.03768 0.11904 0.0
C507 C 0.49171 0.0528 0.11314 0.0
C508 C 0.52794 0.04565 0.12459 0.0
C509 C 0.55544 0.0966 0.13887 0.0
H510 H 0.61097 0.06982 0.12481 0.0
C511 C 0.64213 0.12936 0.15712 0.0
C512 C 0.65714 0.13409 0.14572 0.0
C513 C 0.6227 0.11667 0.15458 0.0
C514 C 0.59559 0.07738 0.12886 0.0
H515 H 0.4846 0.08806 0.10874 0.0
H516 H 0.52009 0.10196 0.11858 0.0
H517 H 0.57475 0.0531 0.11801 0.0
H518 H 0.6641 0.12856 0.12287 0.0
H519 H 0.63012 0.10635 0.11843 0.0
H520 H 0.57613 0.12122 0.14939 0.0
C521 C 0.51672 0.08399 0.11891 0.0
C522 C 0.57491 0.06772 0.12508 0.0
C523 C 0.49647 0.07601 0.1132 0.0
C524 C 0.6528 0.1252 0.13185 0.0
C525 C 0.63343 0.11238 0.12933 0.0
C526 C 0.57608 0.10611 0.14276 0.0
C527 C 0.53274 0.06889 0.12454 0.0
C528 C 0.55465 0.07753 0.12981 0.0
C529 C 0.61799 0.10834 0.14062 0.0
C530 C 0.59634 0.09685 0.13758 0.0
H531 H 0.50424 0.01968 0.1191 0.0
H532 H 0.54 0.03369 0.12893 0.0
H533 H 0.54006 0.10438 0.14275 0.0
H534 H 0.6451 0.13592 0.16794 0.0
H535 H 0.6112 0.11362 0.1635 0.0
C536 C 0.1693 0.73338 0.12798 0.0
C537 C 0.19233 0.73867 0.12846 0.0
C538 C 0.16201 0.7132 0.12181 0.0
C539 C 0.17912 0.65548 0.11544 0.0
H540 H 0.12566 0.65429 0.09121 0.0
C541 C 0.11179 0.58927 0.08701 0.0
C542 C 0.10664 0.57611 0.09926 0.0
C543 C 0.12669 0.60743 0.08814 0.0
C544 C 0.14084 0.65427 0.09774 0.0
H545 H 0.22586 0.72716 0.12276 0.0
H546 H 0.21302 0.69134 0.11214 0.0
H547 H 0.14311 0.69032 0.09724 0.0
H548 H 0.11404 0.5707 0.12206 0.0
H549 H 0.13995 0.6025 0.12407 0.0
H550 H 0.17631 0.61942 0.11638 0.0
C551 C 0.20068 0.70302 0.11648 0.0
C552 C 0.1507 0.67492 0.10129 0.0
C553 C 0.20799 0.72347 0.1225 0.0
C554 C 0.11764 0.58062 0.11245 0.0
C555 C 0.13261 0.59873 0.11357 0.0
C556 C 0.16914 0.63478 0.11198 0.0
C557 C 0.17761 0.69773 0.11611 0.0
C558 C 0.16954 0.67576 0.11049 0.0
C559 C 0.13679 0.61271 0.10153 0.0
C560 C 0.14955 0.63403 0.1034 0.0
H561 H 0.15685 0.74481 0.13247 0.0
H562 H 0.14415 0.70941 0.12185 0.0
H563 H 0.1936 0.65569 0.12261 0.0
H564 H 0.10366 0.58608 0.07667 0.0
H565 H 0.12981 0.61776 0.07864 0.0
C566 C 0.50236 0.93268 0.36637 0.0
C567 C 0.5012 0.94506 0.37937 0.0
C568 C 0.52286 0.92346 0.36176 0.0
C569 C 0.5755 0.90287 0.37742 0.0
H570 H 0.59657 0.90017 0.33759 0.0
C571 C 0.6597 0.86058 0.36321 0.0
C572 C 0.6602 0.847 0.35072 0.0
C573 C 0.64132 0.87469 0.36593 0.0
C574 C 0.59079 0.90061 0.34875 0.0
H575 H 0.52073 0.95872 0.39725 0.0
H576 H 0.55641 0.94276 0.38918 0.0
H577 H 0.56248 0.92157 0.34341 0.0
H578 H 0.64211 0.83773 0.33115 0.0
H579 H 0.60971 0.86189 0.33607 0.0
H580 H 0.60321 0.88148 0.38279 0.0
C581 C 0.54148 0.93986 0.38267 0.0
C582 C 0.57133 0.91291 0.35207 0.0
C583 C 0.52106 0.94909 0.38725 0.0
C584 C 0.64216 0.84806 0.34086 0.0
C585 C 0.62368 0.86202 0.34364 0.0
C586 C 0.5948 0.89048 0.37411 0.0
C587 C 0.54249 0.92642 0.37011 0.0
C588 C 0.5635 0.91415 0.36645 0.0
C589 C 0.62293 0.87535 0.35629 0.0
C590 C 0.6027 0.88916 0.35973 0.0
H591 H 0.4873 0.92932 0.36008 0.0
H592 H 0.52313 0.9131 0.35206 0.0
H593 H 0.56963 0.90312 0.38856 0.0
H594 H 0.67348 0.86027 0.37093 0.0
H595 H 0.64152 0.88504 0.37563 0.0
C596 C 0.29415 0.27515 0.63697 0.0
C597 C 0.28973 0.25628 0.6282 0.0
C598 C 0.30025 0.29568 0.63073 0.0
C599 C 0.32994 0.31753 0.59956 0.0
H600 H 0.31108 0.37545 0.61504 0.0
C601 C 0.3773 0.39927 0.585 0.0
C602 C 0.38271 0.41284 0.59703 0.0
C603 C 0.36134 0.38203 0.58629 0.0
C604 C 0.31653 0.35941 0.6106 0.0
H605 H 0.28744 0.24416 0.60603 0.0
H606 H 0.29862 0.28021 0.59505 0.0
H607 H 0.29066 0.34128 0.62186 0.0
H608 H 0.37511 0.41962 0.61965 0.0
H609 H 0.34765 0.38938 0.62198 0.0
H610 H 0.35657 0.33535 0.58895 0.0
C611 C 0.2972 0.27904 0.60675 0.0
C612 C 0.30478 0.3399 0.61445 0.0
C613 C 0.29076 0.25849 0.61302 0.0
C614 C 0.37129 0.40942 0.61019 0.0
C615 C 0.35539 0.39219 0.61149 0.0
C616 C 0.34179 0.33703 0.59577 0.0
C617 C 0.3023 0.29773 0.61558 0.0
C618 C 0.31183 0.31869 0.60934 0.0
C619 C 0.35051 0.37803 0.59962 0.0
C620 C 0.33566 0.35809 0.60163 0.0
H621 H 0.29338 0.27393 0.6487 0.0
H622 H 0.30436 0.3097 0.63782 0.0
H623 H 0.33589 0.30138 0.59557 0.0
H624 H 0.38576 0.40162 0.57469 0.0
H625 H 0.35777 0.37159 0.5769 0.0
C626 C 0.98794 0.07308 0.89394 0.0
C627 C -0.00138 0.05608 0.88586 0.0
C628 C 0.96745 0.08203 0.88938 0.0
C629 C 0.91838 0.07195 0.86543 0.0
H630 H 0.90973 0.13618 0.87154 0.0
C631 C 0.84259 0.12606 0.84418 0.0
C632 C 0.83294 0.1404 0.85464 0.0
C633 C 0.86207 0.11373 0.84743 0.0
C634 C 0.91188 0.11821 0.86983 0.0
H635 H 0.99612 0.03482 0.86677 0.0
H636 H 0.96031 0.05098 0.8585 0.0
H637 H 0.94569 0.119 0.87764 0.0
H638 H 0.83551 0.15241 0.87685 0.0
H639 H 0.86962 0.13117 0.88241 0.0
H640 H 0.88443 0.07156 0.85731 0.0
C641 C 0.9677 0.05712 0.86851 0.0
C642 C 0.93244 0.10831 0.87338 0.0
C643 C 0.98823 0.04795 0.87318 0.0
C644 C 0.8426 0.14156 0.86855 0.0
C645 C 0.86215 0.1295 0.87172 0.0
C646 C 0.8978 0.08197 0.8617 0.0
C647 C 0.9572 0.07445 0.87651 0.0
C648 C 0.93581 0.08498 0.87154 0.0
C649 C 0.8723 0.11583 0.86111 0.0
C650 C 0.89428 0.10511 0.86416 0.0
H651 H 0.99539 0.07949 0.90386 0.0
H652 H 0.95958 0.0949 0.89604 0.0
H653 H 0.92038 0.05392 0.86394 0.0
H654 H 0.83543 0.12482 0.83338 0.0
H655 H 0.86964 0.10332 0.83907 0.0
C656 C 0.89383 0.59698 0.61764 0.0
C657 C 0.89259 0.58793 0.60356 0.0
C658 C 0.8819 0.6165 0.62118 0.0
C659 C 0.8339 0.6519 0.61102 0.0
H660 H 0.86751 0.6989 0.63078 0.0
C661 C 0.79693 0.74085 0.62332 0.0
C662 C 0.80302 0.75053 0.63668 0.0
C663 C 0.80697 0.72068 0.6187 0.0
C664 C 0.85777 0.68586 0.62544 0.0
H665 H 0.87742 0.59175 0.58227 0.0
H666 H 0.85631 0.62592 0.58856 0.0
H667 H 0.88635 0.66399 0.62401 0.0
H668 H 0.82361 0.74634 0.65596 0.0
H669 H 0.84056 0.71108 0.64817 0.0
H670 H 0.80516 0.67365 0.61271 0.0
C671 C 0.86658 0.61788 0.5968 0.0
C672 C 0.8686 0.66589 0.62153 0.0
C673 C 0.87872 0.59842 0.5932 0.0
C674 C 0.81879 0.73943 0.64551 0.0
C675 C 0.82862 0.71927 0.641 0.0
C676 C 0.82295 0.67186 0.61506 0.0
C677 C 0.86834 0.62726 0.61076 0.0
C678 C 0.85675 0.64864 0.61442 0.0
C679 C 0.82315 0.70982 0.62744 0.0
C680 C 0.83473 0.68897 0.62247 0.0
H681 H 0.90434 0.58921 0.62586 0.0
H682 H 0.88333 0.62325 0.63208 0.0
H683 H 0.82438 0.63878 0.60558 0.0
H684 H 0.7848 0.7491 0.6163 0.0
H685 H 0.80248 0.71392 0.60816 0.0
C686 C 0.14559 0.14852 0.36486 0.0
C687 C 0.15504 0.14628 0.35095 0.0
C688 C 0.12591 0.13695 0.36847 0.0
C689 C 0.0914 0.08791 0.35944 0.0
H690 H 0.04366 0.12211 0.37797 0.0
C691 C 0.0038 0.04944 0.37296 0.0
C692 C 0.99396 0.0563 0.38612 0.0
C693 C 0.02351 0.05984 0.36796 0.0
C694 C 0.05691 0.11221 0.37297 0.0
H695 H 0.15165 0.12984 0.33001 0.0
H696 H 0.11724 0.10931 0.33644 0.0
H697 H 0.07821 0.14113 0.37074 0.0
H698 H -0.00267 0.07878 0.40459 0.0
H699 H 0.03184 0.09636 0.39615 0.0
H700 H 0.07031 0.05883 0.362 0.0
C701 C 0.12509 0.1201 0.34449 0.0
C702 C 0.07666 0.12316 0.36879 0.0
C703 C 0.14468 0.1319 0.3408 0.0
C704 C 0.0044 0.07331 0.39432 0.0
C705 C 0.02412 0.08351 0.38942 0.0
C706 C 0.07168 0.07686 0.36377 0.0
C707 C 0.11541 0.12273 0.35831 0.0
C708 C 0.09417 0.11109 0.36213 0.0
C709 C 0.03377 0.07716 0.37608 0.0
C710 C 0.05431 0.08886 0.37075 0.0
H711 H 0.15324 0.15946 0.3729 0.0
H712 H 0.11892 0.13907 0.37926 0.0
H713 H 0.10474 0.07821 0.35437 0.0
H714 H 0.99605 0.03637 0.36642 0.0
H715 H 0.03042 0.05465 0.35759 0.0
C716 C 0.61878 0.39327 0.09025 0.0
C717 C 0.60617 0.40392 0.1012 0.0
C718 C 0.6321 0.37445 0.09348 0.0
C719 C 0.65719 0.34298 0.12452 0.0
H720 H 0.65482 0.29184 0.09821 0.0
C721 C 0.67331 0.25229 0.14289 0.0
C722 C 0.68794 0.2389 0.13455 0.0
C723 C 0.66644 0.27339 0.1379 0.0
C724 C 0.65591 0.30612 0.10554 0.0
H725 H 0.59774 0.40344 0.12411 0.0
H726 H 0.62043 0.37043 0.1297 0.0
H727 H 0.63716 0.32749 0.09122 0.0
H728 H 0.70664 0.23689 0.11436 0.0
H729 H 0.69402 0.27388 0.1054 0.0
H730 H 0.67499 0.32121 0.1391 0.0
C731 C 0.62053 0.3768 0.11867 0.0
C732 C 0.64586 0.32655 0.10154 0.0
C733 C 0.60736 0.39565 0.11546 0.0
C734 C 0.69536 0.24691 0.121 0.0
C735 C 0.68815 0.26798 0.11588 0.0
C736 C 0.667 0.32252 0.12855 0.0
C737 C 0.63297 0.36587 0.10772 0.0
C738 C 0.64592 0.34506 0.11115 0.0
C739 C 0.6738 0.28146 0.12438 0.0
C740 C 0.66599 0.30378 0.11924 0.0
H741 H 0.61824 0.39937 0.07916 0.0
H742 H 0.64167 0.3666 0.08483 0.0
H743 H 0.65805 0.35704 0.13202 0.0
H744 H 0.66735 0.24659 0.15339 0.0
H745 H 0.65512 0.28333 0.14457 0.0
C746 C 0.4925 0.91532 0.88938 0.0
C747 C 0.49993 0.93542 0.88288 0.0
C748 C 0.47333 0.90435 0.88427 0.0
C749 C 0.4213 0.91305 0.86312 0.0
H750 H 0.42102 0.84755 0.86264 0.0
C751 C 0.34683 0.85935 0.8411 0.0
C752 C 0.34001 0.84153 0.85017 0.0
C753 C 0.36663 0.87128 0.84407 0.0
C754 C 0.42083 0.86584 0.86278 0.0
H755 H 0.49311 0.95988 0.86593 0.0
H756 H 0.45956 0.94042 0.85678 0.0
H757 H 0.45532 0.8676 0.86929 0.0
H758 H 0.34844 0.8222 0.86942 0.0
H759 H 0.38308 0.84291 0.87453 0.0
H760 H 0.38669 0.91111 0.85654 0.0
C761 C 0.46849 0.93333 0.86597 0.0
C762 C 0.44045 0.87734 0.86662 0.0
C763 C 0.48772 0.94441 0.87116 0.0
C764 C 0.35331 0.83584 0.86223 0.0
C765 C 0.37319 0.8476 0.86511 0.0
C766 C 0.40168 0.9015 0.85916 0.0
C767 C 0.46115 0.91309 0.87245 0.0
C768 C 0.4408 0.90107 0.86712 0.0
C769 C 0.38005 0.86542 0.85606 0.0
C770 C 0.40117 0.87778 0.85922 0.0
H771 H 0.50146 0.90805 0.89851 0.0
H772 H 0.46789 0.88909 0.88973 0.0
H773 H 0.42094 0.93132 0.86352 0.0
H774 H 0.33686 0.8641 0.83173 0.0
H775 H 0.37161 0.88487 0.83688 0.0
C776 C 0.88475 0.40057 0.90019 0.0
C777 C 0.90072 0.40933 0.89044 0.0
C778 C 0.87292 0.38083 0.89682 0.0
C779 C 0.87792 0.32944 0.8751 0.0
H780 H 0.81308 0.32465 0.87937 0.0
C781 C 0.82915 0.25523 0.85074 0.0
C782 C 0.81111 0.24605 0.85862 0.0
C783 C 0.83946 0.27514 0.85528 0.0
C784 C 0.83123 0.3256 0.87833 0.0
H785 H 0.91663 0.40459 0.86945 0.0
H786 H 0.89612 0.37007 0.86362 0.0
H787 H 0.83215 0.35974 0.88611 0.0
H788 H 0.78957 0.25052 0.87741 0.0
H789 H 0.80796 0.28526 0.88559 0.0
H790 H 0.87724 0.29539 0.86751 0.0
C791 C 0.89281 0.37839 0.87388 0.0
C792 C 0.84211 0.3457 0.88214 0.0
C793 C 0.90444 0.39821 0.87718 0.0
C794 C 0.80345 0.25726 0.87112 0.0
C795 C 0.8139 0.2772 0.87575 0.0
C796 C 0.86712 0.30934 0.87142 0.0
C797 C 0.87708 0.36941 0.88371 0.0
C798 C 0.86551 0.34789 0.88036 0.0
C799 C 0.83213 0.28629 0.86791 0.0
C800 C 0.8436 0.30728 0.87276 0.0
H801 H 0.88154 0.40883 0.91049 0.0
H802 H 0.86095 0.37419 0.9046 0.0
H803 H 0.89604 0.33053 0.87389 0.0
H804 H 0.83531 0.24707 0.84097 0.0
H805 H 0.8531 0.28191 0.84879 0.0
C806 C 0.35419 0.16504 0.62989 0.0
C807 C 0.33964 0.15839 0.64113 0.0
C808 C 0.3748 0.15415 0.62791 0.0
C809 C 0.40415 0.10104 0.63405 0.0
H810 H 0.45781 0.13698 0.62748 0.0
C811 C 0.49089 0.06006 0.6226 0.0
C812 C 0.50344 0.07009 0.6114 0.0
C813 C 0.47182 0.0709 0.62819 0.0
C814 C 0.44296 0.12669 0.62919 0.0
H815 H 0.33506 0.13502 0.65902 0.0
H816 H 0.3711 0.11566 0.65537 0.0
H817 H 0.42231 0.15565 0.63324 0.0
H818 H 0.5061 0.09939 0.59737 0.0
H819 H 0.47277 0.118 0.60684 0.0
H820 H 0.42454 0.07211 0.62946 0.0
C821 C 0.36652 0.12938 0.64817 0.0
C822 C 0.42267 0.13739 0.63252 0.0
C823 C 0.34598 0.14048 0.65027 0.0
C824 C 0.49683 0.09128 0.60606 0.0
C825 C 0.47777 0.10203 0.61157 0.0
C826 C 0.42443 0.09032 0.63057 0.0
C827 C 0.38118 0.13624 0.63703 0.0
C828 C 0.403 0.1247 0.63473 0.0
C829 C 0.46494 0.09194 0.62264 0.0
C830 C 0.44398 0.10306 0.62783 0.0
H831 H 0.34974 0.17881 0.62269 0.0
H832 H 0.38567 0.15958 0.61913 0.0
H833 H 0.38917 0.09089 0.63562 0.0
H834 H 0.49566 0.04375 0.62694 0.0
H835 H 0.46244 0.06279 0.63683 0.0
C836 C 0.67965 0.72661 0.3511 0.0
C837 C 0.69158 0.74122 0.36032 0.0
C838 C 0.67239 0.70562 0.35608 0.0
C839 C 0.65528 0.67571 0.38849 0.0
H840 H 0.66283 0.62252 0.36438 0.0
C841 C 0.61491 0.59032 0.40391 0.0
C842 C 0.60428 0.57884 0.39245 0.0
C843 C 0.62922 0.60854 0.40107 0.0
C844 C 0.66046 0.63722 0.37121 0.0
H845 H 0.70527 0.74545 0.38198 0.0
H846 H 0.69202 0.70868 0.39085 0.0
H847 H 0.68094 0.65785 0.35741 0.0
H848 H 0.60064 0.57703 0.36904 0.0
H849 H 0.62508 0.60901 0.36408 0.0
H850 H 0.63391 0.65549 0.40193 0.0
C851 C 0.68851 0.71353 0.37973 0.0
C852 C 0.67092 0.6574 0.36724 0.0
C853 C 0.6961 0.73447 0.37466 0.0
C854 C 0.60866 0.58551 0.3781 0.0
C855 C 0.62283 0.60377 0.37526 0.0
C856 C 0.64461 0.65557 0.3924 0.0
C857 C 0.67667 0.6989 0.37044 0.0
C858 C 0.66801 0.67694 0.37567 0.0
C859 C 0.63309 0.61569 0.38671 0.0
C860 C 0.64665 0.63623 0.3836 0.0
H861 H 0.67597 0.73134 0.33998 0.0
H862 H 0.66303 0.69479 0.34876 0.0
H863 H 0.65265 0.6906 0.39512 0.0
H864 H 0.6119 0.58545 0.41509 0.0
H865 H 0.63709 0.61715 0.41012 0.0
C866 C 0.1486 0.83915 0.1247 0.0
C867 C 0.15768 0.83967 0.13878 0.0
C868 C 0.1287 0.8507 0.12156 0.0
C869 C 0.09207 0.89693 0.13288 0.0
H870 H 0.04541 0.86235 0.11352 0.0
C871 C 0.00302 0.93341 0.12155 0.0
C872 C 0.99318 0.92756 0.1082 0.0
C873 C 0.02294 0.92293 0.12612 0.0
C874 C 0.05833 0.87238 0.11876 0.0
H875 H 0.15359 0.85331 0.16049 0.0
H876 H 0.11885 0.87389 0.15488 0.0
H877 H 0.08109 0.84439 0.1195 0.0
H878 H 0.99662 0.90655 0.08902 0.0
H879 H 0.03149 0.88887 0.09671 0.0
H880 H 0.06957 0.92514 0.13177 0.0
C881 C 0.12712 0.8644 0.14635 0.0
C882 C 0.07873 0.86203 0.12221 0.0
C883 C 0.14691 0.85259 0.14955 0.0
C884 C 0.00367 0.91124 0.09945 0.0
C885 C 0.02362 0.90098 0.10392 0.0
C886 C 0.0717 0.90742 0.12925 0.0
C887 C 0.11765 0.86321 0.13239 0.0
C888 C 0.09586 0.87425 0.12918 0.0
C889 C 0.03347 0.90656 0.11735 0.0
C890 C 0.05468 0.8953 0.12199 0.0
H891 H 0.15655 0.82934 0.11619 0.0
H892 H 0.12184 0.84973 0.11067 0.0
H893 H 0.10508 0.90671 0.13822 0.0
H894 H 0.99524 0.94595 0.12851 0.0
H895 H 0.02993 0.92747 0.13659 0.0
C896 C 0.69567 0.75923 0.87223 0.0
C897 C 0.68843 0.74897 0.85929 0.0
C898 C 0.68645 0.77989 0.87665 0.0
C899 C 0.6366 0.81639 0.87006 0.0
H900 H 0.67292 0.86318 0.88799 0.0
C901 C 0.60512 0.90706 0.87499 0.0
C902 C 0.60498 0.91597 0.88913 0.0
C903 C 0.61712 0.88741 0.8719 0.0
C904 C 0.66263 0.85016 0.88307 0.0
H905 H 0.66651 0.75251 0.84059 0.0
H906 H 0.65105 0.78863 0.84796 0.0
H907 H 0.69022 0.82692 0.88162 0.0
H908 H 0.61827 0.91209 0.91094 0.0
H909 H 0.6397 0.87773 0.9054 0.0
H910 H 0.60924 0.83982 0.87111 0.0
C911 C 0.66323 0.78054 0.85501 0.0
C912 C 0.67245 0.82939 0.87948 0.0
C913 C 0.67221 0.75988 0.85072 0.0
C914 C 0.61805 0.90553 0.89995 0.0
C915 C 0.63034 0.88596 0.8968 0.0
C916 C 0.62694 0.83716 0.87344 0.0
C917 C 0.66998 0.7907 0.86811 0.0
C918 C 0.65958 0.81237 0.87275 0.0
C919 C 0.62944 0.87644 0.88284 0.0
C920 C 0.6399 0.8543 0.87982 0.0
H921 H 0.70818 0.75114 0.87904 0.0
H922 H 0.69191 0.78715 0.88685 0.0
H923 H 0.626 0.80349 0.86529 0.0
H924 H 0.59525 0.91476 0.86642 0.0
H925 H 0.61639 0.88048 0.86102 0.0
C926 C 0.48778 0.42052 0.09886 0.0
C927 C 0.5003 0.43574 0.10732 0.0
C928 C 0.46631 0.41385 0.10319 0.0
C929 C 0.4308 0.40562 0.13469 0.0
H930 H 0.38257 0.40432 0.10626 0.0
C931 C 0.34307 0.36882 0.14824 0.0
C932 C 0.33372 0.35476 0.13752 0.0
C933 C 0.36187 0.38218 0.14511 0.0
C934 C 0.39588 0.40444 0.11431 0.0
H935 H 0.50031 0.45581 0.12702 0.0
H936 H 0.46265 0.44364 0.13482 0.0
H937 H 0.41875 0.42109 0.09987 0.0
H938 H 0.33642 0.3439 0.1151 0.0
H939 H 0.3694 0.36672 0.10972 0.0
H940 H 0.40835 0.38805 0.14893 0.0
C941 C 0.46953 0.43709 0.12477 0.0
C942 C 0.41653 0.41413 0.11066 0.0
C943 C 0.49099 0.44405 0.1203 0.0
C944 C 0.34321 0.35464 0.12356 0.0
C945 C 0.36204 0.36787 0.12046 0.0
C946 C 0.41017 0.3957 0.13831 0.0
C947 C 0.45696 0.42206 0.11617 0.0
C948 C 0.43433 0.41435 0.12071 0.0
C949 C 0.37173 0.38167 0.13121 0.0
C950 C 0.39265 0.39454 0.12803 0.0
H951 H 0.49449 0.41387 0.08878 0.0
H952 H 0.45709 0.402 0.09647 0.0
H953 H 0.44433 0.40546 0.1426 0.0
H954 H 0.33602 0.36931 0.15909 0.0
H955 H 0.36875 0.39283 0.15359 0.0
C956 C 0.87616 0.09241 0.40082 0.0
C957 C 0.89005 0.08206 0.39039 0.0
C958 C 0.86458 0.11232 0.39746 0.0
C959 C 0.86997 0.16173 0.37455 0.0
H960 H 0.80615 0.1715 0.38099 0.0
C961 C 0.82522 0.23905 0.35106 0.0
C962 C 0.80814 0.24943 0.35921 0.0
C963 C 0.83442 0.21855 0.35552 0.0
C964 C 0.82406 0.16918 0.37935 0.0
H965 H 0.90215 0.08393 0.36818 0.0
H966 H 0.8822 0.1188 0.36244 0.0
H967 H 0.82318 0.1353 0.38764 0.0
H968 H 0.78726 0.24661 0.37843 0.0
H969 H 0.80386 0.21096 0.38653 0.0
H970 H 0.87123 0.19552 0.36658 0.0
C971 C 0.8803 0.11154 0.37317 0.0
C972 C 0.83374 0.14843 0.38309 0.0
C973 C 0.8916 0.09155 0.37645 0.0
C974 C 0.80041 0.23892 0.37194 0.0
C975 C 0.80982 0.21845 0.37651 0.0
C976 C 0.86042 0.18249 0.371 0.0
C977 C 0.86699 0.12229 0.38371 0.0
C978 C 0.8567 0.14445 0.38049 0.0
C979 C 0.827 0.20806 0.36836 0.0
C980 C 0.83727 0.18637 0.3731 0.0
H981 H 0.87465 0.08541 0.41165 0.0
H982 H 0.85444 0.12036 0.40577 0.0
H983 H 0.88782 0.15919 0.3727 0.0
H984 H 0.83135 0.24664 0.34111 0.0
H985 H 0.84722 0.21081 0.34877 0.0
C986 C 0.14864 0.63278 0.64749 0.0
C987 C 0.15865 0.64642 0.6368 0.0
C988 C 0.12892 0.62074 0.64443 0.0
C989 C 0.07994 0.62264 0.62034 0.0
H990 H 0.07124 0.55979 0.63076 0.0
C991 C 0.00641 0.57206 0.5973 0.0
C992 C 0.99465 0.55741 0.60657 0.0
C993 C 0.02658 0.58189 0.60172 0.0
C994 C 0.07332 0.57743 0.62796 0.0
H995 H 0.15629 0.65771 0.61444 0.0
H996 H 0.12192 0.63678 0.60913 0.0
H997 H 0.10653 0.57881 0.63714 0.0
H998 H 0.995 0.54112 0.62765 0.0
H999 H 0.03037 0.55868 0.63554 0.0
H1000 H 0.04687 0.62152 0.61126 0.0
C1001 C 0.12917 0.63553 0.6199 0.0
C1002 C 0.09351 0.58828 0.63158 0.0
C1003 C 0.1489 0.64741 0.62292 0.0
C1004 C 0.00374 0.55238 0.62029 0.0
C1005 C 0.024 0.56236 0.62477 0.0
C1006 C 0.0598 0.6119 0.6168 0.0
C1007 C 0.11881 0.62231 0.63067 0.0
C1008 C 0.09713 0.61089 0.62758 0.0
C1009 C 0.03546 0.57747 0.61557 0.0
C1010 C 0.05638 0.58906 0.62033 0.0
H1011 H 0.15583 0.63168 0.65829 0.0
H1012 H 0.12124 0.61074 0.65295 0.0
H1013 H 0.08205 0.64023 0.61741 0.0
H1014 H -3e-05 0.57608 0.58659 0.0
H1015 H 0.03524 0.59302 0.59423 0.0
C1016 C 0.61457 0.09681 0.58114 0.0
C1017 C 0.60963 0.08316 0.59321 0.0
C1018 C 0.63007 0.11448 0.58235 0.0
C1019 C 0.67582 0.13739 0.60528 0.0
H1020 H 0.6526 0.19582 0.59356 0.0
C1021 C 0.70262 0.21946 0.63272 0.0
C1022 C 0.70287 0.23979 0.62487 0.0
C1023 C 0.69588 0.19942 0.62609 0.0
C1024 C 0.65968 0.17964 0.59658 0.0
H1025 H 0.61772 0.07654 0.61578 0.0
H1026 H 0.64483 0.1073 0.61787 0.0
H1027 H 0.63225 0.16169 0.58687 0.0
H1028 H 0.69735 0.25494 0.60374 0.0
H1029 H 0.68569 0.21967 0.59203 0.0
H1030 H 0.70292 0.15534 0.61534 0.0
C1031 C 0.6368 0.10435 0.60747 0.0
C1032 C 0.64796 0.16006 0.59277 0.0
C1033 C 0.62116 0.08684 0.60631 0.0
C1034 C 0.69722 0.23951 0.61006 0.0
C1035 C 0.69045 0.21936 0.60339 0.0
C1036 C 0.68763 0.15695 0.609 0.0
C1037 C 0.64109 0.11862 0.59559 0.0
C1038 C 0.65552 0.13882 0.5975 0.0
C1039 C 0.68927 0.19917 0.61143 0.0
C1040 C 0.67926 0.17835 0.60515 0.0
H1041 H 0.60595 0.09431 0.57089 0.0
H1042 H 0.63317 0.12514 0.573 0.0
H1043 H 0.68222 0.12119 0.60886 0.0
H1044 H 0.70691 0.21912 0.64415 0.0
H1045 H 0.69484 0.18433 0.6327 0.0
C1046 C 0.1572 0.36433 0.86765 0.0
C1047 C 0.16512 0.36226 0.85334 0.0
C1048 C 0.13983 0.37934 0.87094 0.0
C1049 C 0.09172 0.40801 0.85388 0.0
H1050 H 0.08801 0.43719 0.89153 0.0
C1051 C 0.01279 0.45747 0.87322 0.0
C1052 C 0.00473 0.44984 0.88671 0.0
C1053 C 0.03419 0.45102 0.86836 0.0
C1054 C 0.08889 0.42923 0.88095 0.0
H1055 H 0.16169 0.37485 0.83134 0.0
H1056 H 0.13146 0.40141 0.83713 0.0
H1057 H 0.12292 0.41859 0.88427 0.0
H1058 H 0.01285 0.43016 0.90587 0.0
H1059 H 0.05019 0.41918 0.89749 0.0
H1060 H 0.05747 0.41837 0.85073 0.0
C1061 C 0.13845 0.39114 0.84576 0.0
C1062 C 0.10881 0.4185 0.87681 0.0
C1063 C 0.15581 0.37602 0.84245 0.0
C1064 C 0.0186 0.43622 0.8954 0.0
C1065 C 0.04004 0.43009 0.89066 0.0
C1066 C 0.07184 0.41893 0.85798 0.0
C1067 C 0.13005 0.39274 0.86001 0.0
C1068 C 0.11022 0.40712 0.86342 0.0
C1069 C 0.04797 0.43722 0.87704 0.0
C1070 C 0.07003 0.42901 0.87174 0.0
H1071 H 0.16401 0.35391 0.87626 0.0
H1072 H 0.13354 0.37981 0.88198 0.0
H1073 H 0.09213 0.39924 0.84355 0.0
H1074 H 0.00239 0.46799 0.86631 0.0
H1075 H 0.03996 0.45674 0.85782 0.0
C1076 C 0.87249 0.90534 0.10597 0.0
C1077 C 0.88642 0.90796 0.09377 0.0
C1078 C 0.85741 0.88729 0.10678 0.0
C1079 C 0.85096 0.82958 0.09435 0.0
H1080 H 0.79045 0.83533 0.10981 0.0
C1081 C 0.7992 0.75069 0.10837 0.0
C1082 C 0.78878 0.75144 0.12206 0.0
C1083 C 0.80729 0.77049 0.10195 0.0
C1084 C 0.80733 0.83342 0.10552 0.0
H1085 H 0.89519 0.89415 0.07268 0.0
H1086 H 0.86904 0.86235 0.07422 0.0
H1087 H 0.8123 0.86922 0.10437 0.0
H1088 H 0.77755 0.77352 0.13941 0.0
H1089 H 0.79208 0.8078 0.12847 0.0
H1090 H 0.84665 0.79392 0.09621 0.0
C1091 C 0.86977 0.8743 0.08312 0.0
C1092 C 0.81978 0.85283 0.10237 0.0
C1093 C 0.88467 0.8925 0.08224 0.0
C1094 C 0.78553 0.77241 0.12884 0.0
C1095 C 0.79373 0.79214 0.12249 0.0
C1096 C 0.83861 0.81019 0.09764 0.0
C1097 C 0.85617 0.8714 0.09546 0.0
C1098 C 0.84189 0.85107 0.09707 0.0
C1099 C 0.80523 0.79137 0.10915 0.0
C1100 C 0.81685 0.81186 0.1036 0.0
H1101 H 0.87346 0.91705 0.115 0.0
H1102 H 0.8473 0.88531 0.1165 0.0
H1103 H 0.86805 0.82774 0.09041 0.0
H1104 H 0.80179 0.73475 0.10286 0.0
H1105 H 0.8157 0.76935 0.09154 0.0
C1106 C 0.4846 0.54345 0.37137 0.0
C1107 C 0.49845 0.55655 0.38043 0.0
C1108 C 0.4651 0.55275 0.36526 0.0
C1109 C 0.43793 0.60752 0.35698 0.0
H1110 H 0.38213 0.57368 0.35934 0.0
C1111 C 0.33755 0.62725 0.35906 0.0
C1112 C 0.33596 0.64362 0.34808 0.0
C1113 C 0.35718 0.61451 0.36068 0.0
C1114 C 0.39759 0.58333 0.3586 0.0
H1115 H 0.50295 0.58964 0.39011 0.0
H1116 H 0.469 0.60575 0.37961 0.0
H1117 H 0.41746 0.55587 0.36666 0.0
H1118 H 0.3532 0.65883 0.32977 0.0
H1119 H 0.38741 0.63636 0.33247 0.0
H1120 H 0.41806 0.63531 0.34961 0.0
C1121 C 0.47326 0.58842 0.37703 0.0
C1122 C 0.41784 0.57305 0.36263 0.0
C1123 C 0.49263 0.57914 0.38314 0.0
C1124 C 0.35404 0.64646 0.33841 0.0
C1125 C 0.37365 0.63365 0.33999 0.0
C1126 C 0.41772 0.6178 0.35297 0.0
C1127 C 0.45922 0.57534 0.36807 0.0
C1128 C 0.43815 0.58522 0.36218 0.0
C1129 C 0.3756 0.61782 0.35131 0.0
C1130 C 0.39725 0.60598 0.35401 0.0
H1131 H 0.48872 0.52599 0.36909 0.0
H1132 H 0.45467 0.54231 0.35832 0.0
H1133 H 0.45335 0.61724 0.35632 0.0
H1134 H 0.32385 0.6247 0.36666 0.0
H1135 H 0.35822 0.60268 0.36962 0.0
C1136 C 0.37552 0.09244 0.09146 0.0
C1137 C 0.38781 0.08195 0.10262 0.0
C1138 C 0.36201 0.1112 0.09444 0.0
C1139 C 0.33611 0.14346 0.12492 0.0
H1140 H 0.33896 0.19357 0.09784 0.0
C1141 C 0.31806 0.23501 0.14125 0.0
C1142 C 0.30403 0.24789 0.13219 0.0
C1143 C 0.32524 0.21362 0.13696 0.0
C1144 C 0.33774 0.17958 0.10539 0.0
H1145 H 0.39538 0.08257 0.12566 0.0
H1146 H 0.37238 0.11559 0.13081 0.0
H1147 H 0.35705 0.15784 0.09165 0.0
H1148 H 0.28656 0.24866 0.11151 0.0
H1149 H 0.29967 0.2112 0.10381 0.0
H1150 H 0.31771 0.16567 0.13892 0.0
C1151 C 0.37268 0.10911 0.11981 0.0
C1152 C 0.34804 0.15908 0.10185 0.0
C1153 C 0.38601 0.09026 0.11685 0.0
C1154 C 0.29738 0.23904 0.11869 0.0
C1155 C 0.30488 0.2177 0.11428 0.0
C1156 C 0.32606 0.16401 0.12851 0.0
C1157 C 0.36066 0.11995 0.10862 0.0
C1158 C 0.34773 0.14091 0.1117 0.0
C1159 C 0.31877 0.20479 0.12344 0.0
C1160 C 0.32716 0.18237 0.1189 0.0
H1161 H 0.3765 0.08628 0.0804 0.0
H1162 H 0.35272 0.11892 0.08562 0.0
H1163 H 0.33509 0.12967 0.13261 0.0
H1164 H 0.3234 0.24138 0.15173 0.0
H1165 H 0.33618 0.20412 0.14413 0.0
C1166 C 0.50823 0.5737 0.89245 0.0
C1167 C 0.49662 0.55781 0.88395 0.0
C1168 C 0.52946 0.58133 0.88826 0.0
C1169 C 0.56559 0.59044 0.85708 0.0
H1170 H 0.61318 0.5929 0.88593 0.0
C1171 C 0.65316 0.62785 0.84391 0.0
C1172 C 0.66227 0.64212 0.85459 0.0
C1173 C 0.63439 0.61442 0.84702 0.0
C1174 C 0.60005 0.59248 0.87777 0.0
H1175 H 0.49791 0.53768 0.86429 0.0
H1176 H 0.53508 0.55152 0.85676 0.0
H1177 H 0.57713 0.57571 0.89211 0.0
H1178 H 0.6592 0.65329 0.87694 0.0
H1179 H 0.62629 0.63038 0.88227 0.0
H1180 H 0.58808 0.60808 0.84292 0.0
C1181 C 0.5277 0.55785 0.86672 0.0
C1182 C 0.57946 0.58256 0.8813 0.0
C1183 C 0.50651 0.54994 0.87104 0.0
C1184 C 0.6526 0.64238 0.8685 0.0
C1185 C 0.6338 0.6291 0.87158 0.0
C1186 C 0.58614 0.6006 0.85358 0.0
C1187 C 0.53942 0.57344 0.87539 0.0
C1188 C 0.56191 0.58184 0.87109 0.0
C1189 C 0.62434 0.61509 0.86085 0.0
C1190 C 0.60345 0.60215 0.86399 0.0
H1191 H 0.50104 0.58004 0.90247 0.0
H1192 H 0.53802 0.59359 0.89503 0.0
H1193 H 0.55225 0.5902 0.84905 0.0
H1194 H 0.66036 0.62725 0.8331 0.0
H1195 H 0.62771 0.6036 0.83857 0.0
C1196 C 0.18236 0.76496 0.63992 0.0
C1197 C 0.19536 0.75102 0.63087 0.0
C1198 C 0.17609 0.7865 0.63538 0.0
C1199 C 0.16328 0.81929 0.60343 0.0
H1200 H 0.16658 0.86983 0.63017 0.0
C1201 C 0.12113 0.905 0.59059 0.0
C1202 C 0.10861 0.9142 0.60211 0.0
C1203 C 0.13605 0.88711 0.59305 0.0
C1204 C 0.16548 0.85589 0.62258 0.0
H1205 H 0.21208 0.74861 0.60999 0.0
H1206 H 0.20052 0.7864 0.60185 0.0
H1207 H 0.1849 0.83425 0.63637 0.0
H1208 H 0.10223 0.91234 0.62527 0.0
H1209 H 0.1278 0.88102 0.62954 0.0
H1210 H 0.14286 0.84048 0.58997 0.0
C1211 C 0.19544 0.78058 0.61252 0.0
C1212 C 0.17605 0.83558 0.62611 0.0
C1213 C 0.20205 0.75906 0.61717 0.0
C1214 C 0.11169 0.90562 0.61618 0.0
C1215 C 0.12651 0.88776 0.61864 0.0
C1216 C 0.15252 0.83958 0.59993 0.0
C1217 C 0.18245 0.79449 0.62163 0.0
C1218 C 0.17449 0.81691 0.61677 0.0
C1219 C 0.1387 0.87812 0.60709 0.0
C1220 C 0.15293 0.85788 0.60969 0.0
H1221 H 0.17702 0.75925 0.65056 0.0
H1222 H 0.1658 0.79674 0.64254 0.0
H1223 H 0.16172 0.80509 0.59608 0.0
H1224 H 0.11915 0.91137 0.57963 0.0
H1225 H 0.14536 0.88022 0.58396 0.0
C1226 C 0.98888 0.44466 0.36949 0.0
C1227 C 0.99613 0.43886 0.38354 0.0
C1228 C 0.96752 0.43807 0.36461 0.0
C1229 C 0.91171 0.42084 0.37788 0.0
H1230 H 0.90661 0.38733 0.34184 0.0
C1231 C 0.83901 0.3598 0.36688 0.0
C1232 C 0.83089 0.35721 0.35267 0.0
C1233 C 0.85749 0.37368 0.36967 0.0
C1234 C 0.9076 0.39707 0.35178 0.0
H1235 H 0.98676 0.42189 0.40353 0.0
H1236 H 0.9496 0.4106 0.39508 0.0
H1237 H 0.94249 0.40474 0.34837 0.0
H1238 H 0.83517 0.36768 0.33026 0.0
H1239 H 0.86738 0.39223 0.33517 0.0
H1240 H 0.87702 0.41293 0.38148 0.0
C1241 C 0.9603 0.42026 0.38785 0.0
C1242 C 0.92817 0.40699 0.35551 0.0
C1243 C 0.98165 0.42656 0.39264 0.0
C1244 C 0.84116 0.3693 0.34133 0.0
C1245 C 0.85966 0.38326 0.34413 0.0
C1246 C 0.89114 0.41109 0.37411 0.0
C1247 C 0.95301 0.42593 0.37381 0.0
C1248 C 0.93056 0.41838 0.3688 0.0
C1249 C 0.86821 0.38536 0.35831 0.0
C1250 C 0.88903 0.3985 0.36124 0.0
H1251 H -0.00028 0.45416 0.36227 0.0
H1252 H 0.96226 0.44263 0.35374 0.0
H1253 H 0.91304 0.42988 0.38808 0.0
H1254 H 0.83146 0.35065 0.37583 0.0
H1255 H 0.86385 0.3746 0.38069 0.0
C1256 C 0.29661 0.76465 0.36302 0.0
C1257 C 0.30128 0.74313 0.36865 0.0
C1258 C 0.30713 0.78371 0.36878 0.0
C1259 C 0.359 0.79998 0.38745 0.0
H1260 H 0.32951 0.85829 0.38995 0.0
C1261 C 0.40659 0.88165 0.40347 0.0
C1262 C 0.40202 0.90055 0.39474 0.0
C1263 C 0.39337 0.86219 0.40233 0.0
C1264 C 0.33798 0.84213 0.38925 0.0
H1265 H 0.31983 0.72469 0.38511 0.0
H1266 H 0.3382 0.75813 0.39526 0.0
H1267 H 0.30718 0.8246 0.38492 0.0
H1268 H 0.38007 0.91398 0.378 0.0
H1269 H 0.35717 0.88002 0.37591 0.0
H1270 H 0.38988 0.8176 0.39143 0.0
C1271 C 0.32657 0.7602 0.38629 0.0
C1272 C 0.3252 0.82285 0.3864 0.0
C1273 C 0.31596 0.7411 0.38055 0.0
C1274 C 0.38399 0.89967 0.38488 0.0
C1275 C 0.37075 0.88029 0.38378 0.0
C1276 C 0.37178 0.81928 0.39032 0.0
C1277 C 0.32259 0.78165 0.38028 0.0
C1278 C 0.33563 0.80163 0.38515 0.0
C1279 C 0.37528 0.86134 0.39249 0.0
C1280 C 0.36147 0.84061 0.39093 0.0
H1281 H 0.28537 0.76673 0.35384 0.0
H1282 H 0.30389 0.79995 0.36379 0.0
H1283 H 0.36758 0.78393 0.38637 0.0
H1284 H 0.42036 0.88189 0.4112 0.0
H1285 H 0.39717 0.84789 0.40924 0.0
C1286 C 0.00081 0.58427 0.12329 0.0
C1287 C 0.00016 0.56101 0.12041 0.0
C1288 C 0.98166 0.59547 0.1283 0.0
C1289 C 0.92417 0.58723 0.14344 0.0
H1290 H 0.913 0.64455 0.12437 0.0
C1291 C 0.83747 0.63248 0.14314 0.0
C1292 C 0.83763 0.65607 0.14476 0.0
C1293 C 0.8577 0.62056 0.1418 0.0
C1294 C 0.916 0.62872 0.12995 0.0
H1295 H 0.97933 0.53098 0.1211 0.0
H1296 H 0.9456 0.55065 0.12955 0.0
H1297 H 0.94772 0.62427 0.11944 0.0
H1298 H 0.85901 0.68561 0.14668 0.0
H1299 H 0.89427 0.66482 0.14436 0.0
H1300 H 0.89199 0.59162 0.15365 0.0
C1301 C 0.96101 0.5602 0.12816 0.0
C1302 C 0.93595 0.6171 0.12716 0.0
C1303 C 0.98029 0.54894 0.12326 0.0
C1304 C 0.85836 0.66745 0.14535 0.0
C1305 C 0.87854 0.65556 0.14397 0.0
C1306 C 0.90409 0.59886 0.14618 0.0
C1307 C 0.96134 0.58371 0.13038 0.0
C1308 C 0.94031 0.59622 0.13386 0.0
C1309 C 0.87842 0.63203 0.142 0.0
C1310 C 0.89983 0.61974 0.13945 0.0
H1311 H 0.016 0.59395 0.12134 0.0
H1312 H 0.98266 0.61348 0.13025 0.0
H1313 H 0.9271 0.57129 0.14887 0.0
H1314 H 0.82172 0.62328 0.14267 0.0
H1315 H 0.85709 0.60246 0.14017 0.0
C1316 C 0.16655 0.24262 0.85113 0.0
C1317 C 0.18465 0.25213 0.85879 0.0
C1318 C 0.15741 0.22202 0.85541 0.0
C1319 C 0.16932 0.17087 0.87728 0.0
H1320 H 0.10488 0.1622 0.87294 0.0
C1321 C 0.11809 0.09394 0.89908 0.0
C1322 C 0.10301 0.0843 0.88906 0.0
C1323 C 0.1297 0.11375 0.89562 0.0
C1324 C 0.12292 0.16436 0.87412 0.0
H1325 H 0.20739 0.24766 0.87698 0.0
H1326 H 0.19091 0.2118 0.88481 0.0
H1327 H 0.12141 0.19871 0.86724 0.0
H1328 H 0.08877 0.08735 0.86745 0.0
H1329 H 0.10879 0.12215 0.86152 0.0
H1330 H 0.17046 0.13644 0.88455 0.0
C1331 C 0.18408 0.22007 0.87529 0.0
C1332 C 0.13243 0.18524 0.87081 0.0
C1333 C 0.19343 0.24066 0.87088 0.0
C1334 C 0.10027 0.09441 0.87538 0.0
C1335 C 0.11162 0.11435 0.87201 0.0
C1336 C 0.1597 0.15001 0.8808 0.0
C1337 C 0.16593 0.21053 0.8676 0.0
C1338 C 0.1558 0.18867 0.8721 0.0
C1339 C 0.12614 0.12438 0.88218 0.0
C1340 C 0.13647 0.14652 0.87901 0.0
H1341 H 0.15958 0.25096 0.84166 0.0
H1342 H 0.14382 0.21496 0.849 0.0
H1343 H 0.18739 0.17283 0.87827 0.0
H1344 H 0.12053 0.08644 0.90969 0.0
H1345 H 0.14078 0.12123 0.90364 0.0
C1346 C 0.51089 0.44053 0.61747 0.0
C1347 C 0.49002 0.42941 0.61707 0.0
C1348 C 0.53009 0.42932 0.62251 0.0
C1349 C 0.5516 0.37113 0.62795 0.0
H1350 H 0.60148 0.40223 0.64638 0.0
C1351 C 0.63169 0.32494 0.64779 0.0
C1352 C 0.65208 0.3345 0.64309 0.0
C1353 C 0.61143 0.33669 0.64608 0.0
C1354 C 0.58766 0.39337 0.64122 0.0
H1355 H 0.47248 0.39844 0.62241 0.0
H1356 H 0.50569 0.37919 0.6318 0.0
H1357 H 0.56656 0.42264 0.64149 0.0
H1358 H 0.66737 0.36396 0.63317 0.0
H1359 H 0.63199 0.38455 0.63031 0.0
H1360 H 0.57272 0.34183 0.62783 0.0
C1361 C 0.50753 0.39624 0.62773 0.0
C1362 C 0.56768 0.40506 0.63836 0.0
C1363 C 0.48844 0.40731 0.62247 0.0
C1364 C 0.6519 0.35615 0.63686 0.0
C1365 C 0.63169 0.368 0.63531 0.0
C1366 C 0.57144 0.35941 0.631 0.0
C1367 C 0.52874 0.40686 0.62746 0.0
C1368 C 0.54947 0.39416 0.63151 0.0
C1369 C 0.61126 0.35832 0.63981 0.0
C1370 C 0.58976 0.37048 0.63748 0.0
H1371 H 0.51258 0.45755 0.61329 0.0
H1372 H 0.54612 0.43799 0.62195 0.0
H1373 H 0.53819 0.36224 0.6224 0.0
H1374 H 0.63135 0.30829 0.65266 0.0
H1375 H 0.59591 0.32891 0.6497 0.0
C1376 C 0.2472 0.27119 0.19029 0.0
C1377 C 0.26584 0.28547 0.18837 0.0
C1378 C 0.243 0.26132 0.20378 0.0
C1379 C 0.25581 0.26683 0.24281 0.0
H1380 H 0.23799 0.20385 0.24417 0.0
C1381 C 0.24993 0.21783 0.29661 0.0
C1382 C 0.23057 0.20454 0.29854 0.0
C1383 C 0.25492 0.22701 0.28303 0.0
C1384 C 0.24278 0.22149 0.24394 0.0
H1385 H 0.29457 0.30086 0.19903 0.0
H1386 H 0.28736 0.28346 0.22259 0.0
H1387 H 0.24498 0.22181 0.22075 0.0
H1388 H 0.20152 0.18997 0.28776 0.0
H1389 H 0.2102 0.20609 0.26401 0.0
H1390 H 0.25361 0.26651 0.266 0.0
C1391 C 0.27585 0.28008 0.21372 0.0
C1392 C 0.24674 0.23179 0.23055 0.0
C1393 C 0.28003 0.28997 0.20022 0.0
C1394 C 0.21659 0.20013 0.28657 0.0
C1395 C 0.2216 0.20928 0.27297 0.0
C1396 C 0.25189 0.25653 0.2562 0.0
C1397 C 0.25737 0.26553 0.21561 0.0
C1398 C 0.25324 0.25459 0.22984 0.0
C1399 C 0.24067 0.22304 0.27112 0.0
C1400 C 0.2453 0.23377 0.2569 0.0
H1401 H 0.23595 0.26748 0.18134 0.0
H1402 H 0.22844 0.25045 0.20496 0.0
H1403 H 0.26049 0.28451 0.2426 0.0
H1404 H 0.26106 0.22145 0.30565 0.0
H1405 H 0.26991 0.23729 0.28187 0.0
C1406 C 0.01611 0.99485 0.55265 0.0
C1407 C 0.03309 0.97849 0.55412 0.0
C1408 C 0.00661 -0.00072 0.53907 0.0
C1409 C -0.00174 0.97388 0.50298 0.0
H1410 H 0.9867 0.03557 0.49097 0.0
C1411 C 0.97374 -0.00269 0.44433 0.0
C1412 C 0.95703 0.01385 0.4425 0.0
C1413 C 0.98247 0.99279 0.4581 0.0
C1414 C 0.98958 0.01824 0.49425 0.0
H1415 H 0.05363 0.95409 0.54257 0.0
H1416 H 0.03718 0.96197 0.51882 0.0
H1417 H 0.00331 0.02827 0.51475 0.0
H1418 H 0.93614 0.03845 0.45359 0.0
H1419 H 0.95127 0.0304 0.4777 0.0
H1420 H 0.98458 0.96384 0.48247 0.0
C1421 C 0.03101 0.97116 0.52819 0.0
C1422 C -0.0009 0.01407 0.50785 0.0
C1423 C 0.04052 0.96675 0.54176 0.0
C1424 C 0.94906 0.02565 0.45469 0.0
C1425 C 0.95781 0.02113 0.46847 0.0
C1426 C 0.98873 0.97805 0.48938 0.0
C1427 C 0.01389 0.98741 0.52671 0.0
C1428 C 0.0036 0.99185 0.51233 0.0
C1429 C 0.97468 0.00473 0.4703 0.0
C1430 C 0.98436 0.00027 0.48486 0.0
H1431 H 0.01002 0.00411 0.56201 0.0
H1432 H 0.99329 0.01172 0.5383 0.0
H1433 H 0.00119 0.95655 0.50624 0.0
H1434 H 0.98024 0.988 0.43511 0.0
H1435 H 0.99565 0.98024 0.45915 0.0
C1436 C 0.21435 0.70995 0.69899 0.0
C1437 C 0.22972 0.71228 0.68749 0.0
C1438 C 0.21865 0.72008 0.7124 0.0
C1439 C 0.26428 0.74257 0.73511 0.0
H1440 H 0.21595 0.77449 0.7547 0.0
C1441 C 0.28002 0.79313 0.78747 0.0
C1442 C 0.26419 0.79024 0.79864 0.0
C1443 C 0.27551 0.78517 0.77349 0.0
C1444 C 0.22956 0.76548 0.74942 0.0
H1445 H 0.26174 0.72673 0.681 0.0
H1446 H 0.26928 0.7444 0.70447 0.0
H1447 H 0.2089 0.75674 0.73121 0.0
H1448 H 0.23099 0.77735 0.80393 0.0
H1449 H 0.22321 0.76319 0.77958 0.0
H1450 H 0.28488 0.75101 0.75337 0.0
C1451 C 0.25398 0.73466 0.70313 0.0
C1452 C 0.22552 0.75531 0.73599 0.0
C1453 C 0.24963 0.72461 0.6897 0.0
C1454 C 0.24349 0.77985 0.79551 0.0
C1455 C 0.239 0.77183 0.78154 0.0
C1456 C 0.26831 0.75267 0.74856 0.0
C1457 C 0.23844 0.73264 0.71458 0.0
C1458 C 0.24282 0.74368 0.72873 0.0
C1459 C 0.2551 0.77411 0.77044 0.0
C1460 C 0.25097 0.76417 0.75589 0.0
H1461 H 0.19886 0.70053 0.69759 0.0
H1462 H 0.20653 0.71799 0.72109 0.0
H1463 H 0.27785 0.73348 0.72984 0.0
H1464 H 0.29608 0.80118 0.78957 0.0
H1465 H 0.28809 0.78751 0.76511 0.0
C1466 C 0.47454 -0.00128 0.05045 0.0
C1467 C 0.45897 0.01632 0.05235 0.0
C1468 C 0.48362 0.99432 0.03675 0.0
C1469 C 0.49325 0.02059 0.00095 0.0
H1470 H 0.50087 0.95863 0.9882 0.0
C1471 C 0.51628 -0.00307 0.94202 0.0
C1472 C 0.53262 0.98003 0.94019 0.0
C1473 C 0.50749 0.00151 0.95577 0.0
C1474 C 0.49904 0.97601 0.99168 0.0
H1475 H 0.44055 0.04305 0.04149 0.0
H1476 H 0.45615 0.03516 0.01751 0.0
H1477 H 0.48488 0.96629 0.0121 0.0
H1478 H 0.55267 0.95469 0.95124 0.0
H1479 H 0.53733 0.96271 0.9753 0.0
H1480 H 0.50727 0.03027 0.98046 0.0
C1481 C 0.46162 0.02498 0.02662 0.0
C1482 C 0.48992 0.9804 0.00536 0.0
C1483 C 0.45259 0.02941 0.04033 0.0
C1484 C 0.54006 0.96779 0.95234 0.0
C1485 C 0.5312 0.9723 0.96609 0.0
C1486 C 0.50231 0.01619 0.98725 0.0
C1487 C 0.47726 0.00741 0.02469 0.0
C1488 C 0.48693 0.00274 0.01015 0.0
C1489 C 0.51482 0.98919 0.96793 0.0
C1490 C 0.5053 0.99386 0.98248 0.0
H1491 H 0.47983 0.98841 0.05955 0.0
H1492 H 0.49587 0.98087 0.03566 0.0
H1493 H 0.4915 0.03798 0.00442 0.0
H1494 H 0.51022 0.0066 0.93283 0.0
H1495 H 0.49471 0.01445 0.95686 0.0
C1496 C 0.27974 0.7014 0.29229 0.0
C1497 C 0.26472 0.70587 0.30372 0.0
C1498 C 0.27497 0.70889 0.27824 0.0
C1499 C 0.22835 0.72787 0.25474 0.0
H1500 H 0.27612 0.75554 0.23218 0.0
C1501 C 0.21129 0.7765 0.20165 0.0
C1502 C 0.22632 0.77292 0.1901 0.0
C1503 C 0.21597 0.7678 0.21542 0.0
C1504 C 0.26267 0.74762 0.23828 0.0
H1505 H 0.23289 0.72149 0.30946 0.0
H1506 H 0.22463 0.73473 0.28495 0.0
H1507 H 0.28427 0.74098 0.25639 0.0
H1508 H 0.25797 0.75743 0.18383 0.0
H1509 H 0.26607 0.74209 0.20787 0.0
H1510 H 0.20674 0.7346 0.23665 0.0
C1511 C 0.23997 0.72524 0.28679 0.0
C1512 C 0.26734 0.73927 0.25214 0.0
C1513 C 0.24475 0.71777 0.30084 0.0
C1514 C 0.24612 0.7605 0.19256 0.0
C1515 C 0.25081 0.75182 0.20633 0.0
C1516 C 0.22369 0.73621 0.24089 0.0
C1517 C 0.25507 0.72096 0.27536 0.0
C1518 C 0.25021 0.72937 0.26053 0.0
C1519 C 0.23578 0.75538 0.2179 0.0
C1520 C 0.24079 0.74624 0.23253 0.0
H1521 H 0.29524 0.6922 0.2942 0.0
H1522 H 0.28679 0.70511 0.26961 0.0
H1523 H 0.21489 0.72003 0.26087 0.0
H1524 H 0.19592 0.78606 0.20007 0.0
H1525 H 0.20421 0.77106 0.22417 0.0
C1526 C 0.44625 0.96249 0.45322 0.0
C1527 C 0.45257 0.97685 0.44179 0.0
C1528 C 0.45202 0.9678 0.46754 0.0
C1529 C 0.47153 0.01502 0.49084 0.0
H1530 H 0.49594 0.96716 0.51492 0.0
C1531 C 0.52773 0.03203 0.54033 0.0
C1532 C 0.52368 0.01951 0.55301 0.0
C1533 C 0.51642 0.02682 0.52748 0.0
C1534 C 0.48886 0.98063 0.5084 0.0
H1535 H 0.46958 0.00811 0.43632 0.0
H1536 H 0.48 0.01716 0.4612 0.0
H1537 H 0.48056 0.95812 0.49104 0.0
H1538 H 0.50467 0.99175 0.56226 0.0
H1539 H 0.48501 0.98246 0.53965 0.0
H1540 H 0.48055 0.03761 0.50803 0.0
C1541 C 0.47025 0.00202 0.4592 0.0
C1542 C 0.48 0.97547 0.49474 0.0
C1543 C 0.46442 0.99676 0.44493 0.0
C1544 C 0.50812 0.00166 0.55262 0.0
C1545 C 0.49693 0.9963 0.53971 0.0
C1546 C 0.48051 0.02019 0.50444 0.0
C1547 C 0.46425 0.98754 0.47067 0.0
C1548 C 0.47162 0.99267 0.4857 0.0
C1549 C 0.50096 0.00889 0.52704 0.0
C1550 C 0.48961 0.0031 0.51323 0.0
H1551 H 0.43701 0.94706 0.4511 0.0
H1552 H 0.44693 0.95643 0.47615 0.0
H1553 H 0.46477 0.0286 0.48427 0.0
H1554 H 0.53963 0.0459 0.54032 0.0
H1555 H 0.52007 0.0366 0.51782 0.0
C1556 C 0.24445 0.27389 0.79964 0.0
C1557 C 0.22551 0.2876 0.80204 0.0
C1558 C 0.24901 0.26548 0.78579 0.0
C1559 C 0.22226 0.25181 0.75107 0.0
H1560 H 0.28312 0.25519 0.73588 0.0
C1561 C 0.2437 0.22915 0.69171 0.0
C1562 C 0.26391 0.21746 0.68922 0.0
C1563 C 0.2388 0.23772 0.70548 0.0
C1564 C 0.2661 0.25385 0.74003 0.0
H1565 H 0.19643 0.30322 0.79193 0.0
H1566 H 0.20438 0.28841 0.76768 0.0
H1567 H 0.27496 0.27015 0.75998 0.0
H1568 H 0.2947 0.20523 0.69916 0.0
H1569 H 0.28596 0.21976 0.72328 0.0
H1570 H 0.21342 0.23525 0.73122 0.0
C1571 C 0.21563 0.28414 0.77653 0.0
C1572 C 0.26144 0.26247 0.75381 0.0
C1573 C 0.21115 0.29269 0.79037 0.0
C1574 C 0.27904 0.21429 0.70076 0.0
C1575 C 0.27409 0.22273 0.71455 0.0
C1576 C 0.22695 0.24306 0.73731 0.0
C1577 C 0.23463 0.2705 0.77412 0.0
C1578 C 0.23949 0.26152 0.75946 0.0
C1579 C 0.25397 0.23465 0.71705 0.0
C1580 C 0.24893 0.24397 0.73165 0.0
H1581 H 0.25579 0.26967 0.80846 0.0
H1582 H 0.26365 0.25481 0.78425 0.0
H1583 H 0.20524 0.25062 0.75525 0.0
H1584 H 0.23177 0.23192 0.68298 0.0
H1585 H 0.2233 0.24707 0.707 0.0
C1586 C 0.04578 0.03255 0.95477 0.0
C1587 C 0.03622 0.02118 0.94288 0.0
C1588 C 0.03664 0.03002 0.96866 0.0
C1589 C 0.98432 0.01474 0.98736 0.0
H1590 H 0.02305 0.00075 0.02008 0.0
C1591 C 0.95007 0.97795 0.0405 0.0
C1592 C 0.95999 0.98457 0.05367 0.0
C1593 C 0.95914 0.98508 0.02732 0.0
C1594 C 0.01204 0.00506 0.01112 0.0
H1595 H 0.00975 -0.00177 0.93611 0.0
H1596 H 0.99377 0.99386 0.96036 0.0
H1597 H 0.0397 0.00806 0.9963 0.0
H1598 H 0.98678 0.00426 0.06346 0.0
H1599 H 0.00251 0.01703 0.04035 0.0
H1600 H 0.95665 0.01166 0.00208 0.0
C1601 C 0.00821 0.00482 0.95894 0.0
C1602 C 0.02158 0.00917 -0.00249 0.0
C1603 C 0.01746 0.00718 0.94509 0.0
C1604 C 0.97887 -0.00116 0.05345 0.0
C1605 C 0.98793 0.00604 0.04023 0.0
C1606 C 0.9748 0.01078 0.00096 0.0
C1607 C 0.01767 0.01627 0.97083 0.0
C1608 C 0.00776 0.01363 0.98546 0.0
C1609 C 0.97827 -0.00094 0.02702 0.0
C1610 C 0.98852 0.00546 0.01293 0.0
H1611 H 0.06025 0.04347 0.95335 0.0
H1612 H 0.04416 0.0391 0.97765 0.0
H1613 H 0.97334 0.01855 0.97828 0.0
H1614 H 0.93553 0.9669 0.04035 0.0
H1615 H 0.95151 0.97909 0.01735 0.0
C1616 C 0.77359 0.7962 0.70416 0.0
C1617 C 0.76115 0.78913 0.69201 0.0
C1618 C 0.76923 0.78703 0.71785 0.0
C1619 C 0.74475 0.73693 0.73532 0.0
H1620 H 0.74432 0.7747 0.76974 0.0
C1621 C 0.71655 0.70432 0.79149 0.0
C1622 C 0.72923 0.71131 0.80355 0.0
C1623 C 0.72056 0.71365 0.77781 0.0
C1624 C 0.74464 0.7639 0.76024 0.0
H1625 H 0.73414 0.7673 0.68463 0.0
H1626 H 0.72636 0.75145 0.70857 0.0
H1627 H 0.75054 0.7918 0.74598 0.0
H1628 H 0.75626 0.73323 0.81079 0.0
H1629 H 0.76343 0.74938 0.78685 0.0
H1630 H 0.73887 0.70903 0.74958 0.0
C1631 C 0.73968 0.76383 0.70749 0.0
C1632 C 0.74817 0.7737 0.74664 0.0
C1633 C 0.74404 0.77301 0.69381 0.0
C1634 C 0.74619 0.72757 0.80168 0.0
C1635 C 0.75019 0.73692 0.788 0.0
C1636 C 0.74121 0.72714 0.74891 0.0
C1637 C 0.75235 0.77062 0.71962 0.0
C1638 C 0.74828 0.76031 0.73404 0.0
C1639 C 0.73731 0.73016 0.77595 0.0
C1640 C 0.74115 0.74052 0.76151 0.0
H1641 H 0.78692 0.80857 0.70308 0.0
H1642 H 0.77942 0.79242 0.72697 0.0
H1643 H 0.7451 0.72613 0.72582 0.0
H1644 H 0.70332 0.69186 0.79264 0.0
H1645 H 0.71021 0.70828 0.76875 0.0
C1646 C 0.74408 0.22299 0.19373 0.0
C1647 C 0.72794 0.20573 0.19271 0.0
C1648 C 0.74871 0.23308 0.20711 0.0
C1649 C 0.72386 0.24263 0.2432 0.0
H1650 H 0.78542 0.25521 0.25477 0.0
C1651 C 0.74768 0.2688 0.30146 0.0
C1652 C 0.7641 0.28568 0.30307 0.0
C1653 C 0.74305 0.25977 0.28778 0.0
C1654 C 0.76812 0.25206 0.25161 0.0
H1655 H 0.70421 0.18525 0.20484 0.0
H1656 H 0.71245 0.20272 0.22822 0.0
H1657 H 0.77805 0.23773 0.23124 0.0
H1658 H 0.78832 0.30661 0.29168 0.0
H1659 H 0.78005 0.29096 0.26774 0.0
H1660 H 0.71392 0.25689 0.26357 0.0
C1661 C 0.7213 0.20867 0.21867 0.0
C1662 C 0.76391 0.24204 0.23815 0.0
C1663 C 0.71669 0.19857 0.20531 0.0
C1664 C 0.77561 0.29356 0.29075 0.0
C1665 C 0.77098 0.28451 0.27707 0.0
C1666 C 0.72806 0.25266 0.25664 0.0
C1667 C 0.73725 0.22612 0.21969 0.0
C1668 C 0.74174 0.23712 0.23385 0.0
C1669 C 0.75474 0.26744 0.27546 0.0
C1670 C 0.75024 0.25738 0.26101 0.0
H1671 H 0.75295 0.22888 0.18417 0.0
H1672 H 0.76094 0.24664 0.20755 0.0
H1673 H 0.70657 0.23939 0.24006 0.0
H1674 H 0.7386 0.26237 0.31078 0.0
H1675 H 0.73063 0.24644 0.2869 0.0
C1676 C 0.77978 0.20356 0.79068 0.0
C1677 C 0.76673 0.21003 0.80269 0.0
C1678 C 0.77532 0.21249 0.77695 0.0
C1679 C 0.74748 0.26054 0.75877 0.0
H1680 H 0.75058 0.22175 0.72488 0.0
C1681 C 0.71621 0.28739 0.7018 0.0
C1682 C 0.72988 0.28134 0.68998 0.0
C1683 C 0.72113 0.27941 0.71573 0.0
C1684 C 0.74988 0.23283 0.73423 0.0
H1685 H 0.73865 0.23069 0.8098 0.0
H1686 H 0.73059 0.24601 0.78577 0.0
H1687 H 0.75798 0.20601 0.74886 0.0
H1688 H 0.75965 0.26265 0.68344 0.0
H1689 H 0.76823 0.24878 0.70775 0.0
H1690 H 0.73915 0.28731 0.74408 0.0
C1691 C 0.74451 0.23434 0.78699 0.0
C1692 C 0.75413 0.22383 0.74796 0.0
C1693 C 0.74902 0.22545 0.80073 0.0
C1694 C 0.74877 0.26753 0.69235 0.0
C1695 C 0.75361 0.25948 0.70624 0.0
C1696 C 0.74313 0.26952 0.74503 0.0
C1697 C 0.75767 0.22801 0.77496 0.0
C1698 C 0.75302 0.23759 0.76038 0.0
C1699 C 0.73972 0.26516 0.71804 0.0
C1700 C 0.74435 0.25576 0.73263 0.0
H1701 H 0.79361 0.19177 0.7919 0.0
H1702 H 0.78595 0.20751 0.76794 0.0
H1703 H 0.74682 0.27165 0.76811 0.0
H1704 H 0.70155 0.29801 0.70027 0.0
H1705 H 0.71005 0.28392 0.72462 0.0
C1706 C 0.75162 0.76531 0.30103 0.0
C1707 C 0.73527 0.78227 0.3026 0.0
C1708 C 0.75757 0.7575 0.28723 0.0
C1709 C 0.75443 0.77223 0.24818 0.0
H1710 H 0.7605 0.70762 0.24246 0.0
C1711 C 0.75199 0.73118 0.19167 0.0
C1712 C 0.76813 0.71448 0.18868 0.0
C1713 C 0.74949 0.73958 0.20573 0.0
C1714 C 0.75912 0.72572 0.24394 0.0
H1715 H 0.71249 0.80457 0.29104 0.0
H1716 H 0.72257 0.79072 0.26701 0.0
H1717 H 0.75376 0.72243 0.26682 0.0
H1718 H 0.79417 0.69329 0.19802 0.0
H1719 H 0.78967 0.70792 0.2227 0.0
H1720 H 0.75929 0.77544 0.22524 0.0
C1721 C 0.73109 0.78367 0.27638 0.0
C1722 C 0.75532 0.73422 0.25788 0.0
C1723 C 0.72521 0.79152 0.29015 0.0
C1724 C 0.78158 0.70615 0.20004 0.0
C1725 C 0.77896 0.71445 0.21414 0.0
C1726 C 0.75811 0.76373 0.23425 0.0
C1727 C 0.74723 0.76648 0.27476 0.0
C1728 C 0.75268 0.75755 0.26012 0.0
C1729 C 0.76299 0.73135 0.21709 0.0
C1730 C 0.76024 0.74038 0.23197 0.0
H1731 H 0.7597 0.75794 0.31045 0.0
H1732 H 0.77027 0.74444 0.28633 0.0
H1733 H 0.7529 0.79033 0.24959 0.0
H1734 H 0.74139 0.7379 0.18312 0.0
H1735 H 0.73683 0.75239 0.20774 0.0
C1736 C 0.54381 0.46131 0.03848 0.0
C1737 C 0.53774 0.47397 0.05077 0.0
C1738 C 0.53456 0.46636 0.02492 0.0
C1739 C 0.48575 0.49399 0.00794 0.0
H1740 H 0.52337 0.49439 0.97349 0.0
C1741 C 0.45433 0.52687 0.95258 0.0
C1742 C 0.46071 0.51461 0.94019 0.0
C1743 C 0.46356 0.52166 0.96612 0.0
C1744 C 0.5126 0.49408 0.98299 0.0
H1745 H 0.51746 0.50194 0.05855 0.0
H1746 H 0.50143 0.51087 0.03483 0.0
H1747 H 0.54013 0.48598 -0.00293 0.0
H1748 H 0.48146 0.48714 0.93221 0.0
H1749 H 0.49739 0.47786 0.95589 0.0
H1750 H 0.45822 0.50205 0.99387 0.0
C1751 C 0.51312 0.49689 0.0357 0.0
C1752 C 0.5222 0.48929 0.99648 0.0
C1753 C 0.5224 0.49187 0.04925 0.0
C1754 C 0.4763 0.49692 0.94158 0.0
C1755 C 0.48552 0.4917 0.95512 0.0
C1756 C 0.47615 0.49875 0.99444 0.0
C1757 C 0.51903 0.48413 0.02341 0.0
C1758 C 0.50888 0.48922 0.00909 0.0
C1759 C 0.47933 0.50409 0.96752 0.0
C1760 C 0.48948 0.49886 0.98183 0.0
H1761 H 0.55556 0.44738 0.03934 0.0
H1762 H 0.53925 0.45609 0.01566 0.0
H1763 H 0.475 0.49371 0.01745 0.0
H1764 H 0.44238 0.54065 0.9518 0.0
H1765 H 0.45866 0.53168 0.97544 0.0
C1766 C 0.0386 0.46201 0.45337 0.0
C1767 C 0.03407 0.47604 0.44143 0.0
C1768 C 0.02886 0.4665 0.46688 0.0
C1769 C 0.00181 0.51174 0.4882 0.0
H1770 H 0.97722 0.46196 0.51051 0.0
C1771 C 0.94787 0.52632 0.53922 0.0
C1772 C 0.95312 0.51295 0.55136 0.0
C1773 C 0.95706 0.52128 0.52565 0.0
C1774 C 0.98417 0.476 0.50445 0.0
H1775 H 0.01604 0.50586 0.43422 0.0
H1776 H -0.00111 0.5136 0.45775 0.0
H1777 H 0.99541 0.45451 0.48723 0.0
H1778 H 0.97157 0.48352 0.55879 0.0
H1779 H 0.98769 0.47476 0.53507 0.0
H1780 H 0.99056 0.53323 0.50541 0.0
C1781 C 0.01015 0.49929 0.45675 0.0
C1782 C 0.99463 0.47174 0.49115 0.0
C1783 C 0.0199 0.49481 0.44326 0.0
C1784 C 0.96722 0.4941 0.54961 0.0
C1785 C 0.97637 0.48903 0.53602 0.0
C1786 C 0.99132 0.516 0.50148 0.0
C1787 C 0.01441 0.48511 0.46868 0.0
C1788 C 0.00356 0.48957 0.48288 0.0
C1789 C 0.97162 0.50275 0.52395 0.0
C1790 C 0.98239 0.49818 0.50974 0.0
H1791 H 0.0495 0.44744 0.45226 0.0
H1792 H 0.0327 0.45546 0.47592 0.0
H1793 H 0.00882 0.5258 0.48218 0.0
H1794 H 0.93699 0.54091 0.54026 0.0
H1795 H 0.95284 0.53194 0.51649 0.0
C1796 C 0.02653 0.5345 0.04606 0.0
C1797 C 0.02112 0.52085 0.05802 0.0
C1798 C 0.01711 0.53014 0.03245 0.0
C1799 C 0.99274 0.48415 0.01101 0.0
H1800 H 0.97263 0.5325 0.98573 0.0
C1801 C 0.9517 0.4668 0.95535 0.0
C1802 C 0.95864 0.4806 0.94379 0.0
C1803 C 0.9579 0.47202 0.96959 0.0
C1804 C 0.97836 0.51884 0.99262 0.0
H1805 H 0.00128 0.49224 0.06527 0.0
H1806 H 0.98476 0.48464 0.04147 0.0
H1807 H 0.98572 0.5413 0.01022 0.0
H1808 H 0.97745 0.51067 0.938 0.0
H1809 H 0.98856 0.51961 0.96284 0.0
H1810 H 0.98576 0.46171 0.99338 0.0
C1811 C 0.99644 0.49858 0.04259 0.0
C1812 C 0.98582 0.52388 0.00664 0.0
C1813 C 0.0058 0.503 0.05621 0.0
C1814 C 0.97181 0.49976 0.94671 0.0
C1815 C 0.97804 0.50496 0.96095 0.0
C1816 C 0.98535 0.47911 -0.00301 0.0
C1817 C 0.00216 0.51198 0.03055 0.0
C1818 C 0.99323 0.5066 0.01593 0.0
C1819 C 0.97118 0.49113 0.97254 0.0
C1820 C 0.97823 0.49642 0.98761 0.0
H1821 H 0.03831 0.54838 0.04715 0.0
H1822 H 0.02202 0.5406 0.02334 0.0
H1823 H -0.00133 0.47051 0.01786 0.0
H1824 H 0.94145 0.45197 0.95341 0.0
H1825 H 0.95212 0.46119 0.97831 0.0
C1826 C 0.51294 0.49833 0.44295 0.0
C1827 C 0.52872 0.51578 0.44121 0.0
C1828 C 0.50491 0.49277 0.45675 0.0
C1829 C 0.49856 0.51529 0.49381 0.0
H1830 H 0.49375 0.45215 0.50457 0.0
C1831 C 0.48034 0.48741 0.55252 0.0
C1832 C 0.46444 0.4701 0.55435 0.0
C1833 C 0.48854 0.49263 0.53872 0.0
C1834 C 0.49479 0.46984 0.50167 0.0
H1835 H 0.54833 0.54126 0.45246 0.0
H1836 H 0.53438 0.53147 0.47657 0.0
H1837 H 0.50691 0.46228 0.48032 0.0
H1838 H 0.4449 0.4444 0.54326 0.0
H1839 H 0.45914 0.4536 0.51911 0.0
H1840 H 0.48642 0.52286 0.51514 0.0
C1841 C 0.52807 0.52222 0.46727 0.0
C1842 C 0.5023 0.47564 0.4878 0.0
C1843 C 0.53613 0.52775 0.45348 0.0
C1844 C 0.45718 0.45782 0.54217 0.0
C1845 C 0.46541 0.46301 0.52836 0.0
C1846 C 0.49105 0.50949 0.50768 0.0
C1847 C 0.51246 0.50459 0.46905 0.0
C1848 C 0.50428 0.49843 0.48373 0.0
C1849 C 0.48102 0.48061 0.52648 0.0
C1850 C 0.48912 0.48671 0.51177 0.0
H1851 H 0.5069 0.48885 0.43367 0.0
H1852 H 0.49267 0.47929 0.45777 0.0
H1853 H 0.49959 0.53298 0.49092 0.0
H1854 H 0.48628 0.49712 0.56174 0.0
H1855 H 0.50081 0.50606 0.53763 0.0
C1856 C 0.28198 0.14857 0.36138 0.0
C1857 C 0.26515 0.14176 0.35158 0.0
C1858 C 0.29937 0.13374 0.36518 0.0
C1859 C 0.3114 0.07318 0.36723 0.0
H1860 H 0.37403 0.09138 0.37014 0.0
C1861 C 0.37734 0.01621 0.39371 0.0
C1862 C 0.39771 0.01311 0.3862 0.0
C1863 C 0.36227 0.03298 0.38947 0.0
C1864 C 0.35661 0.08608 0.36928 0.0
H1865 H 0.25358 0.11437 0.33781 0.0
H1866 H 0.28381 0.08862 0.34442 0.0
H1867 H 0.34554 0.11888 0.36241 0.0
H1868 H 0.41861 0.02553 0.36862 0.0
H1869 H 0.39202 0.05503 0.36113 0.0
H1870 H 0.32229 0.04045 0.37399 0.0
C1871 C 0.28348 0.10527 0.34929 0.0
C1872 C 0.34032 0.10183 0.365 0.0
C1873 C 0.26621 0.12005 0.34548 0.0
C1874 C 0.40298 0.02752 0.37457 0.0
C1875 C 0.38786 0.04444 0.37034 0.0
C1876 C 0.32759 0.05755 0.37158 0.0
C1877 C 0.30011 0.11185 0.35929 0.0
C1878 C 0.31757 0.09547 0.36391 0.0
C1879 C 0.36721 0.04708 0.37763 0.0
C1880 C 0.35034 0.06383 0.3727 0.0
H1881 H 0.28159 0.16525 0.36621 0.0
H1882 H 0.3119 0.13919 0.37299 0.0
H1883 H 0.29397 0.06785 0.36663 0.0
H1884 H 0.37286 0.00549 0.40279 0.0
H1885 H 0.34666 0.03486 0.39544 0.0
C1886 C 0.10221 0.03585 0.598 0.0
C1887 C 0.09251 0.02138 0.60834 0.0
C1888 C 0.11583 0.05379 0.60239 0.0
C1889 C 0.15433 0.06879 0.63118 0.0
H1890 H 0.15178 0.12903 0.61474 0.0
C1891 C 0.21725 0.13714 0.64861 0.0
C1892 C 0.22564 0.15155 0.63779 0.0
C1893 C 0.19912 0.12288 0.64572 0.0
C1894 C 0.15287 0.11222 0.61932 0.0
H1895 H 0.08875 0.01469 0.63136 0.0
H1896 H 0.11298 0.04594 0.63905 0.0
H1897 H 0.12272 0.10146 0.6085 0.0
H1898 H 0.22162 0.16258 0.61551 0.0
H1899 H 0.19041 0.137 0.61022 0.0
H1900 H 0.18488 0.07895 0.64149 0.0
C1901 C 0.10994 0.04337 0.62756 0.0
C1902 C 0.13615 0.09652 0.61581 0.0
C1903 C 0.09605 0.02559 0.62317 0.0
C1904 C 0.21544 0.15162 0.62404 0.0
C1905 C 0.19745 0.1371 0.62107 0.0
C1906 C 0.17117 0.08434 0.63454 0.0
C1907 C 0.12022 0.0574 0.61719 0.0
C1908 C 0.13682 0.07465 0.62166 0.0
C1909 C 0.18916 0.12244 0.63186 0.0
C1910 C 0.17073 0.10623 0.6286 0.0
H1911 H 0.09967 0.03302 0.58648 0.0
H1912 H 0.12369 0.06426 0.59418 0.0
H1913 H 0.15545 0.0519 0.63564 0.0
H1914 H 0.22463 0.13695 0.65938 0.0
H1915 H 0.1929 0.11221 0.65439 0.0
C1916 C 0.20891 0.83641 0.86253 0.0
C1917 C 0.22893 0.8458 0.85707 0.0
C1918 C 0.19145 0.85043 0.86734 0.0
C1919 C 0.18114 0.90778 0.88088 0.0
H1920 H 0.11926 0.89803 0.86885 0.0
C1921 C 0.11061 0.96443 0.90206 0.0
C1922 C 0.09585 0.97312 0.89153 0.0
C1923 C 0.12486 0.94647 0.89874 0.0
C1924 C 0.13647 0.90093 0.87228 0.0
H1925 H 0.24642 0.87708 0.85232 0.0
H1926 H 0.21611 0.90145 0.86073 0.0
H1927 H 0.14861 0.87143 0.86124 0.0
H1928 H 0.08362 0.96921 0.86949 0.0
H1929 H 0.10893 0.93789 0.86356 0.0
H1930 H 0.16936 0.93749 0.89157 0.0
C1931 C 0.2139 0.88332 0.8614 0.0
C1932 C 0.1532 0.88563 0.86804 0.0
C1933 C 0.23122 0.86936 0.85652 0.0
C1934 C 0.09489 0.96285 0.87779 0.0
C1935 C 0.10927 0.94487 0.87444 0.0
C1936 C 0.16449 0.92295 0.88516 0.0
C1937 C 0.19387 0.87402 0.86689 0.0
C1938 C 0.17574 0.88912 0.87215 0.0
C1939 C 0.12478 0.93687 0.88479 0.0
C1940 C 0.14201 0.91984 0.8808 0.0
H1941 H 0.2067 0.81827 0.86304 0.0
H1942 H 0.17621 0.84284 0.87159 0.0
H1943 H 0.19834 0.91076 0.88433 0.0
H1944 H 0.11151 0.97183 0.91281 0.0
H1945 H 0.1363 0.94038 0.90704 0.0
C1946 C 0.28064 0.83596 0.12729 0.0
C1947 C 0.2651 0.84131 0.13828 0.0
C1948 C 0.29751 0.85134 0.12347 0.0
C1949 C 0.30871 0.91165 0.12308 0.0
H1950 H 0.37161 0.89518 0.11861 0.0
C1951 C 0.37297 0.97079 0.0964 0.0
C1952 C 0.39283 0.97469 0.1043 0.0
C1953 C 0.35834 0.95347 0.10042 0.0
C1954 C 0.3541 0.89996 0.11986 0.0
H1955 H 0.2552 0.86666 0.15406 0.0
H1956 H 0.28442 0.89357 0.14724 0.0
H1957 H 0.34414 0.86656 0.12624 0.0
H1958 H 0.41336 0.96316 0.12232 0.0
H1959 H 0.38774 0.93256 0.12927 0.0
H1960 H 0.31849 0.94493 0.11665 0.0
C1961 C 0.28356 0.87753 0.1416 0.0
C1962 C 0.33842 0.88361 0.12411 0.0
C1963 C 0.26691 0.86211 0.14552 0.0
C1964 C 0.39812 0.96054 0.11607 0.0
C1965 C 0.38356 0.94301 0.12 0.0
C1966 C 0.32427 0.92786 0.11866 0.0
C1967 C 0.29889 0.87238 0.13047 0.0
C1968 C 0.31562 0.88939 0.12582 0.0
C1969 C 0.36339 0.93957 0.11232 0.0
C1970 C 0.3471 0.92218 0.11702 0.0
H1971 H 0.27965 0.82001 0.12157 0.0
H1972 H 0.30908 0.84705 0.1148 0.0
H1973 H 0.29119 0.91647 0.12421 0.0
H1974 H 0.36848 0.98138 0.08725 0.0
H1975 H 0.34299 0.95101 0.09424 0.0
C1976 C 0.70867 0.86041 0.64921 0.0
C1977 C 0.72031 0.84806 0.63858 0.0
C1978 C 0.69041 0.87395 0.6454 0.0
C1979 C 0.6501 0.88698 0.61558 0.0
H1980 H 0.648 0.94528 0.63476 0.0
C1981 C 0.60115 0.96462 0.59404 0.0
C1982 C 0.58983 0.97805 0.60429 0.0
C1983 C 0.61441 0.94645 0.59855 0.0
C1984 C 0.64814 0.92894 0.62946 0.0
H1985 H 0.72168 0.83958 0.61571 0.0
H1986 H 0.69015 0.86394 0.60888 0.0
H1987 H 0.6764 0.91794 0.64188 0.0
H1988 H 0.58272 0.98252 0.62722 0.0
H1989 H 0.60607 0.95084 0.63511 0.0
H1990 H 0.62223 0.89862 0.60277 0.0
C1991 C 0.69482 0.8628 0.62023 0.0
C1992 C 0.6644 0.91321 0.63356 0.0
C1993 C 0.71295 0.84896 0.62411 0.0
C1994 C 0.59135 0.97251 0.61909 0.0
C1995 C 0.60476 0.95445 0.62361 0.0
C1996 C 0.63393 0.90287 0.61139 0.0
C1997 C 0.68358 0.87576 0.63082 0.0
C1998 C 0.66564 0.89204 0.62666 0.0
C1999 C 0.61672 0.9415 0.6134 0.0
C2000 C 0.63286 0.92402 0.61827 0.0
H2001 H 0.71379 0.85976 0.6605 0.0
H2002 H 0.6818 0.88321 0.65389 0.0
H2003 H 0.6504 0.87075 0.61018 0.0
H2004 H 0.6002 0.96846 0.58255 0.0
H2005 H 0.62358 0.93685 0.59046 0.0
C2006 C 0.89724 0.9639 0.37513 0.0
C2007 C 0.89935 0.97065 0.38968 0.0
C2008 C 0.88384 0.94532 0.37149 0.0
C2009 C 0.83665 0.91156 0.38641 0.0
H2010 H 0.84874 0.87327 0.35313 0.0
C2011 C 0.7787 0.83742 0.37084 0.0
C2012 C 0.77109 0.83824 0.35641 0.0
C2013 C 0.79667 0.851 0.37531 0.0
C2014 C 0.84523 0.88383 0.36247 0.0
H2015 H 0.89033 0.96266 0.4119 0.0
H2016 H 0.86778 0.92979 0.40567 0.0
H2017 H 0.87643 0.90164 0.3604 0.0
H2018 H 0.77682 0.85303 0.33517 0.0
H2019 H 0.80838 0.87653 0.34296 0.0
H2020 H 0.80551 0.89366 0.38847 0.0
C2021 C 0.87567 0.93922 0.39698 0.0
C2022 C 0.86099 0.90017 0.36659 0.0
C2023 C 0.88871 0.95798 0.40057 0.0
C2024 C 0.78228 0.85217 0.34639 0.0
C2025 C 0.80043 0.86548 0.35081 0.0
C2026 C 0.82109 0.89506 0.38241 0.0
C2027 C 0.87259 0.93296 0.38237 0.0
C2028 C 0.85674 0.91446 0.3785 0.0
C2029 C 0.80752 0.86532 0.36535 0.0
C2030 C 0.82508 0.88127 0.37029 0.0
H2031 H 0.90527 0.97345 0.36654 0.0
H2032 H 0.88168 0.9412 0.36012 0.0
H2033 H 0.8325 0.92253 0.39543 0.0
H2034 H 0.77038 0.82679 0.37877 0.0
H2035 H 0.80192 0.85051 0.38658 0.0
C2036 C 0.77863 0.12857 0.15414 0.0
C2037 C 0.7684 0.1414 0.14314 0.0
C2038 C 0.79745 0.11527 0.15111 0.0
C2039 C 0.84194 0.10493 0.12345 0.0
H2040 H 0.8423 0.04488 0.14027 0.0
C2041 C 0.89105 0.02995 0.09951 0.0
C2042 C 0.90168 0.01492 0.10912 0.0
C2043 C 0.87788 0.04761 0.10482 0.0
C2044 C 0.84266 0.06173 0.13569 0.0
H2045 H 0.77001 0.15077 0.12041 0.0
H2046 H 0.8025 0.12699 0.11495 0.0
H2047 H 0.81308 0.07155 0.14726 0.0
H2048 H 0.90752 0.00693 0.13179 0.0
H2049 H 0.88416 0.0378 0.14111 0.0
H2050 H 0.87107 0.09458 0.11142 0.0
C2051 C 0.79631 0.12755 0.12601 0.0
C2052 C 0.82592 0.07705 0.13969 0.0
C2053 C 0.77759 0.14105 0.1291 0.0
C2054 C 0.89946 0.01826 0.12415 0.0
C2055 C 0.88606 0.03584 0.12947 0.0
C2056 C 0.85859 0.08951 0.11936 0.0
C2057 C 0.80631 0.11432 0.13696 0.0
C2058 C 0.82516 0.09873 0.13347 0.0
C2059 C 0.87492 0.05048 0.11984 0.0
C2060 C 0.8589 0.06766 0.12529 0.0
H2061 H 0.77203 0.12872 0.16512 0.0
H2062 H 0.80497 0.10564 0.15985 0.0
H2063 H 0.84209 0.12162 0.11865 0.0
H2064 H 0.89255 0.02781 0.08786 0.0
H2065 H 0.8693 0.05849 0.09714 0.0
C2066 C 0.59368 0.03207 0.87363 0.0
C2067 C 0.59025 0.02588 0.88817 0.0
C2068 C 0.60708 0.05076 0.87023 0.0
C2069 C 0.65263 0.08516 0.88641 0.0
H2070 H 0.64424 0.12162 0.85185 0.0
C2071 C 0.71457 0.15595 0.87078 0.0
C2072 C 0.72292 0.154 0.85656 0.0
C2073 C 0.69572 0.14349 0.87509 0.0
C2074 C 0.64671 0.11158 0.86156 0.0
H2075 H 0.59676 0.03506 0.91058 0.0
H2076 H 0.61934 0.06809 0.90471 0.0
H2077 H 0.61545 0.09413 0.85872 0.0
H2078 H 0.71761 0.13838 0.83552 0.0
H2079 H 0.68462 0.1168 0.84302 0.0
H2080 H 0.68392 0.10254 0.88918 0.0
C2081 C 0.61247 0.05815 0.89588 0.0
C2082 C 0.63031 0.09577 0.86546 0.0
C2083 C 0.59942 0.0393 0.89926 0.0
C2084 C 0.7116 0.1401 0.84658 0.0
C2085 C 0.69262 0.1279 0.85083 0.0
C2086 C 0.66885 0.10112 0.8826 0.0
C2087 C 0.61701 0.06377 0.88133 0.0
C2088 C 0.63327 0.08207 0.8778 0.0
C2089 C 0.68474 0.12916 0.86518 0.0
C2090 C 0.66624 0.11419 0.87001 0.0
H2091 H 0.5868 0.02195 0.86489 0.0
H2092 H 0.61039 0.0544 0.8589 0.0
H2093 H 0.65577 0.07464 0.89581 0.0
H2094 H 0.72296 0.16659 0.87868 0.0
H2095 H 0.68988 0.14483 0.88621 0.0
C2096 C 0.77843 0.65276 0.87241 0.0
C2097 C 0.77162 0.65298 0.8578 0.0
C2098 C 0.79643 0.63917 0.87681 0.0
C2099 C 0.84612 0.608 0.86383 0.0
H2100 H 0.83282 0.56708 0.89555 0.0
C2101 C 0.89931 0.52831 0.87541 0.0
C2102 C 0.90159 0.5213 0.88989 0.0
C2103 C 0.8853 0.5465 0.87192 0.0
C2104 C 0.83707 0.57865 0.88687 0.0
H2105 H 0.77881 0.64007 0.83624 0.0
H2106 H 0.81037 0.61654 0.84392 0.0
H2107 H 0.80562 0.59599 0.88894 0.0
H2108 H 0.89199 0.52835 0.91216 0.0
H2109 H 0.86823 0.56046 0.90618 0.0
H2110 H 0.8776 0.5907 0.86174 0.0
C2111 C 0.8018 0.62679 0.85195 0.0
C2112 C 0.82143 0.59519 0.88308 0.0
C2113 C 0.78365 0.64013 0.84758 0.0
C2114 C 0.89028 0.53322 0.90087 0.0
C2115 C 0.87657 0.55156 0.89742 0.0
C2116 C 0.86193 0.5916 0.86773 0.0
C2117 C 0.80808 0.62587 0.86664 0.0
C2118 C 0.82567 0.60982 0.87141 0.0
C2119 C 0.87356 0.55818 0.88289 0.0
C2120 C 0.85747 0.57653 0.87918 0.0
H2121 H 0.76944 0.66254 0.88049 0.0
H2122 H 0.80106 0.63883 0.88819 0.0
H2123 H 0.84982 0.61921 0.85484 0.0
H2124 H 0.90785 0.51936 0.86674 0.0
H2125 H 0.88317 0.55094 0.86059 0.0
C2126 C 0.71903 0.64969 0.11793 0.0
C2127 C 0.72282 0.65395 0.13274 0.0
C2128 C 0.70221 0.63461 0.11363 0.0
C2129 C 0.65074 0.60539 0.1258 0.0
H2130 H 0.66968 0.55902 0.09868 0.0
C2131 C 0.59988 0.52343 0.11617 0.0
C2132 C 0.5998 0.51437 0.10208 0.0
C2133 C 0.61339 0.54208 0.11946 0.0
C2134 C 0.66393 0.57204 0.10606 0.0
H2135 H 0.71149 0.64657 0.15463 0.0
H2136 H 0.68207 0.62028 0.1471 0.0
H2137 H 0.69546 0.58939 0.10493 0.0
H2138 H 0.61298 0.51816 0.08024 0.0
H2139 H 0.63599 0.55098 0.08585 0.0
H2140 H 0.61917 0.58801 0.12694 0.0
C2141 C 0.69204 0.62861 0.13883 0.0
C2142 C 0.67874 0.58943 0.10965 0.0
C2143 C 0.70897 0.64354 0.14314 0.0
C2144 C 0.61292 0.52463 0.09125 0.0
C2145 C 0.6262 0.54338 0.09449 0.0
C2146 C 0.63581 0.58806 0.12212 0.0
C2147 C 0.68877 0.62369 0.12406 0.0
C2148 C 0.67238 0.60617 0.11963 0.0
C2149 C 0.62689 0.55213 0.10868 0.0
C2150 C 0.6423 0.57108 0.11228 0.0
H2151 H 0.72942 0.65756 0.10969 0.0
H2152 H 0.69988 0.63128 0.10216 0.0
H2153 H 0.64537 0.6182 0.13345 0.0
H2154 H 0.58992 0.5158 0.12471 0.0
H2155 H 0.6137 0.54823 0.13054 0.0
C2156 C 0.70964 0.3551 0.34787 0.0
C2157 C 0.7221 0.34217 0.35781 0.0
C2158 C 0.69097 0.36747 0.35249 0.0
C2159 C 0.66971 0.39631 0.38436 0.0
H2160 H 0.61438 0.4011 0.36215 0.0
C2161 C 0.60011 0.45796 0.40151 0.0
C2162 C 0.59014 0.47061 0.39033 0.0
C2163 C 0.61347 0.43925 0.39826 0.0
C2164 C 0.62978 0.40006 0.36841 0.0
H2165 H 0.72452 0.33146 0.38028 0.0
H2166 H 0.69195 0.35344 0.38842 0.0
H2167 H 0.6429 0.37344 0.35508 0.0
H2168 H 0.58572 0.47335 0.36704 0.0
H2169 H 0.60967 0.4411 0.36128 0.0
H2170 H 0.65728 0.42348 0.3973 0.0
C2171 C 0.69667 0.35394 0.37706 0.0
C2172 C 0.64603 0.38417 0.36441 0.0
C2173 C 0.71523 0.34135 0.3724 0.0
C2174 C 0.5932 0.46385 0.37586 0.0
C2175 C 0.6068 0.44527 0.37259 0.0
C2176 C 0.65359 0.41231 0.38829 0.0
C2177 C 0.68454 0.36731 0.36716 0.0
C2178 C 0.66627 0.38238 0.37223 0.0
C2179 C 0.61739 0.43297 0.38375 0.0
C2180 C 0.63356 0.41461 0.38024 0.0
H2181 H 0.71452 0.35596 0.33654 0.0
H2182 H 0.68207 0.37783 0.34466 0.0
H2183 H 0.68531 0.39551 0.39045 0.0
H2184 H 0.5978 0.46266 0.41279 0.0
H2185 H 0.62097 0.42989 0.40714 0.0
C2186 C 0.8709 0.47678 0.59983 0.0
C2187 C 0.89271 0.47858 0.60563 0.0
C2188 C 0.85666 0.45935 0.60412 0.0
C2189 C 0.85495 0.40275 0.62001 0.0
H2190 H 0.79343 0.41945 0.6294 0.0
C2191 C 0.78147 0.3387 0.62688 0.0
C2192 C 0.76641 0.34293 0.63834 0.0
C2193 C 0.79847 0.35426 0.6236 0.0
C2194 C 0.81059 0.41453 0.62693 0.0
H2195 H 0.91694 0.46329 0.62026 0.0
H2196 H 0.89183 0.43255 0.62782 0.0
H2197 H 0.82025 0.44855 0.62241 0.0
H2198 H 0.75774 0.36627 0.65563 0.0
H2199 H 0.78729 0.39329 0.6499 0.0
H2200 H 0.84509 0.36861 0.62454 0.0
C2201 C 0.88589 0.4447 0.61991 0.0
C2202 C 0.82588 0.43116 0.6228 0.0
C2203 C 0.90017 0.46232 0.61565 0.0
C2204 C 0.76898 0.36263 0.64666 0.0
C2205 C 0.78586 0.37815 0.64336 0.0
C2206 C 0.83954 0.38601 0.62406 0.0
C2207 C 0.86391 0.44325 0.61429 0.0
C2208 C 0.84816 0.42545 0.61921 0.0
C2209 C 0.80057 0.37429 0.63168 0.0
C2210 C 0.8172 0.39178 0.62754 0.0
H2211 H 0.86471 0.48898 0.59202 0.0
H2212 H 0.83993 0.45844 0.59946 0.0
H2213 H 0.87201 0.39791 0.61723 0.0
H2214 H 0.7799 0.3236 0.62032 0.0
H2215 H 0.80951 0.35094 0.61447 0.0
C2216 C 0.09263 0.46598 0.12218 0.0
C2217 C 0.08636 0.47084 0.10782 0.0
C2218 C 0.10655 0.44753 0.12519 0.0
C2219 C 0.14902 0.41175 0.10723 0.0
H2220 H 0.14592 0.37792 0.14324 0.0
C2221 C 0.21354 0.34234 0.12175 0.0
C2222 C 0.22319 0.34483 0.13559 0.0
C2223 C 0.19442 0.35479 0.11792 0.0
C2224 C 0.14694 0.38723 0.13313 0.0
H2225 H 0.08854 0.45962 0.08545 0.0
H2226 H 0.1123 0.42709 0.09072 0.0
H2227 H 0.11606 0.40474 0.13727 0.0
H2228 H 0.22014 0.3617 0.15641 0.0
H2229 H 0.18678 0.38333 0.14976 0.0
H2230 H 0.18002 0.3944 0.10319 0.0
C2231 C 0.10705 0.43782 0.09962 0.0
C2232 C 0.12991 0.40263 0.12973 0.0
C2233 C 0.09334 0.45638 0.09661 0.0
C2234 C 0.2131 0.35951 0.14565 0.0
C2235 C 0.1939 0.37175 0.14188 0.0
C2236 C 0.16592 0.39622 0.11058 0.0
C2237 C 0.11427 0.43348 0.1139 0.0
C2238 C 0.13099 0.41541 0.11688 0.0
C2239 C 0.18452 0.36971 0.12794 0.0
C2240 C 0.16528 0.38416 0.12369 0.0
H2241 H 0.0875 0.4769 0.13103 0.0
H2242 H 0.11198 0.44487 0.13629 0.0
H2243 H 0.15063 0.42154 0.09735 0.0
H2244 H 0.22096 0.33108 0.1138 0.0
H2245 H 0.18743 0.35284 0.10712 0.0
C2246 C 0.40423 0.46526 0.87275 0.0
C2247 C 0.40252 0.47353 0.887 0.0
C2248 C 0.39152 0.44658 0.86841 0.0
C2249 C 0.35881 0.39797 0.88185 0.0
H2250 H 0.32259 0.40768 0.84737 0.0
C2251 C 0.27847 0.34671 0.8693 0.0
C2252 C 0.27256 0.34323 0.85471 0.0
C2253 C 0.29738 0.35967 0.87282 0.0
C2254 C 0.3329 0.40437 0.85684 0.0
H2255 H 0.38702 0.46828 0.90807 0.0
H2256 H 0.3649 0.43563 0.9005 0.0
H2257 H 0.35079 0.43542 0.85419 0.0
H2258 H 0.28243 0.34915 0.83237 0.0
H2259 H 0.31581 0.37104 0.83846 0.0
H2260 H 0.34077 0.36697 0.88458 0.0
C2261 C 0.37605 0.44353 0.8927 0.0
C2262 C 0.34904 0.42034 0.86076 0.0
C2263 C 0.38857 0.46232 0.89699 0.0
C2264 C 0.28646 0.35188 0.84371 0.0
C2265 C 0.30551 0.36452 0.84722 0.0
C2266 C 0.34279 0.38183 0.87786 0.0
C2267 C 0.37711 0.43574 0.87831 0.0
C2268 C 0.36187 0.4175 0.87343 0.0
C2269 C 0.31086 0.36912 0.8618 0.0
C2270 C 0.32937 0.38504 0.86543 0.0
H2271 H 0.41493 0.47355 0.86485 0.0
H2272 H 0.39272 0.44079 0.85727 0.0
H2273 H 0.36866 0.39531 0.89162 0.0
H2274 H 0.26798 0.34021 0.87798 0.0
H2275 H 0.30083 0.36306 0.88416 0.0
C2276 C 0.39464 0.53248 0.59496 0.0
C2277 C 0.40212 0.51793 0.60598 0.0
C2278 C 0.38096 0.55094 0.59827 0.0
C2279 C 0.35957 0.58603 0.62887 0.0
H2280 H 0.30921 0.59595 0.60276 0.0
C2281 C 0.27887 0.6339 0.64507 0.0
C2282 C 0.26961 0.64899 0.63493 0.0
C2283 C 0.29717 0.62032 0.64131 0.0
C2284 C 0.32337 0.59362 0.61004 0.0
H2285 H 0.4018 0.51155 0.62915 0.0
H2286 H 0.37737 0.54343 0.63496 0.0
H2287 H 0.33751 0.56776 0.59669 0.0
H2288 H 0.27238 0.66202 0.61299 0.0
H2289 H 0.3043 0.63796 0.60634 0.0
H2290 H 0.34475 0.61138 0.64246 0.0
C2291 C 0.3824 0.5409 0.62377 0.0
C2292 C 0.33964 0.5775 0.60656 0.0
C2293 C 0.39629 0.52255 0.62045 0.0
C2294 C 0.27917 0.65049 0.62101 0.0
C2295 C 0.29736 0.63671 0.61719 0.0
C2296 C 0.34315 0.60202 0.6324 0.0
C2297 C 0.37425 0.5551 0.61268 0.0
C2298 C 0.35783 0.57333 0.616 0.0
C2299 C 0.30644 0.62141 0.6273 0.0
C2300 C 0.32478 0.60579 0.62308 0.0
H2301 H 0.39907 0.52943 0.58371 0.0
H2302 H 0.37542 0.56179 0.5895 0.0
H2303 H 0.37354 0.58353 0.63626 0.0
H2304 H 0.27187 0.63245 0.6559 0.0
H2305 H 0.30367 0.60851 0.64926 0.0
C2306 C 0.11552 0.52111 0.39662 0.0
C2307 C 0.09461 0.51741 0.38991 0.0
C2308 C 0.12821 0.5402 0.39325 0.0
C2309 C 0.13672 0.5817 0.36426 0.0
H2310 H 0.17384 0.6108 0.39346 0.0
C2311 C 0.21689 0.63028 0.34983 0.0
C2312 C 0.22277 0.64952 0.35789 0.0
C2313 C 0.19827 0.61733 0.35376 0.0
C2314 C 0.16332 0.60315 0.3852 0.0
H2315 H 0.07029 0.53098 0.37465 0.0
H2316 H 0.09247 0.56456 0.36882 0.0
H2317 H 0.14611 0.58273 0.40082 0.0
H2318 H 0.21353 0.67065 0.37618 0.0
H2319 H 0.18074 0.64798 0.38303 0.0
H2320 H 0.15398 0.60207 0.34864 0.0
C2321 C 0.09915 0.55253 0.37656 0.0
C2322 C 0.14763 0.58686 0.3894 0.0
C2323 C 0.08644 0.53336 0.37992 0.0
C2324 C 0.20943 0.65582 0.36982 0.0
C2325 C 0.19072 0.64282 0.37376 0.0
C2326 C 0.15236 0.59805 0.36007 0.0
C2327 C 0.12025 0.55608 0.38313 0.0
C2328 C 0.13461 0.5755 0.37893 0.0
C2329 C 0.18505 0.62334 0.36581 0.0
C2330 C 0.16628 0.60848 0.37045 0.0
H2331 H 0.12226 0.50909 0.40436 0.0
H2332 H 0.14457 0.54218 0.39831 0.0
H2333 H 0.12703 0.57322 0.35592 0.0
H2334 H 0.22688 0.62499 0.34058 0.0
H2335 H 0.19464 0.6022 0.34756 0.0
loop_
_geom_bond_atom_site_label_1
_geom_bond_atom_site_label_2
_geom_bond_distance
_geom_bond_site_symmetry_2
_ccdc_geom_bond_type
In0 O1 2.294 . S
In0 O2 2.326 . S
In0 O6 2.266 . S
In0 O7 2.326 . S
In0 O8 2.266 . S
In0 O9 2.326 . S
In0 O11 2.294 . S
In0 O12 2.326 . S
O1 In0 2.294 . S
O1 C10 1.240 . S
O2 In0 2.326 . S
O2 C10 1.252 . S
C3 O6 1.252 . S
C3 O7 1.260 . S
C4 O11 1.240 . S
C4 O12 1.252 . S
C5 O8 1.252 . S
C5 O9 1.260 . S
O6 In0 2.266 . S
O6 C3 1.252 . S
O7 In0 2.326 . S
O7 C3 1.260 . S
O8 In0 2.266 . S
O8 C5 1.252 . S
O9 In0 2.326 . S
O9 C5 1.260 . S
C10 O1 1.240 . S
C10 O2 1.252 . S
O11 In0 2.294 . S
O11 C4 1.240 . S
O12 In0 2.326 . S
O12 C4 1.252 . S
In13 O14 2.294 . S
In13 O15 2.326 . S
In13 O19 2.266 . S
In13 O20 2.326 . S
In13 O21 2.266 . S
In13 O22 2.326 . S
In13 O24 2.294 . S
In13 O25 2.326 . S
O14 In13 2.294 . S
O14 C23 1.240 . S
O15 In13 2.326 . S
O15 C23 1.252 . S
C16 O19 1.252 . S
C16 O20 1.260 . S
C17 O24 1.240 . S
C17 O25 1.252 . S
C18 O21 1.252 . S
C18 O22 1.260 . S
O19 In13 2.266 . S
O19 C16 1.252 . S
O20 In13 2.326 . S
O20 C16 1.260 . S
O21 In13 2.266 . S
O21 C18 1.252 . S
O22 In13 2.326 . S
O22 C18 1.260 . S
C23 O14 1.240 . S
C23 O15 1.252 . S
O24 In13 2.294 . S
O24 C17 1.240 . S
O25 In13 2.326 . S
O25 C17 1.252 . S
In26 O27 2.294 . S
In26 O28 2.326 . S
In26 O32 2.266 . S
In26 O33 2.326 . S
In26 O34 2.266 . S
In26 O35 2.326 . S
In26 O37 2.294 . S
In26 O38 2.326 . S
O27 In26 2.294 . S
O27 C36 1.240 . S
O28 In26 2.326 . S
O28 C36 1.252 . S
C29 O32 1.252 . S
C29 O33 1.260 . S
C30 O37 1.240 . S
C30 O38 1.252 . S
C31 O34 1.252 . S
C31 O35 1.260 . S
O32 In26 2.266 . S
O32 C29 1.252 . S
O33 In26 2.326 . S
O33 C29 1.260 . S
O34 In26 2.266 . S
O34 C31 1.252 . S
O35 In26 2.326 . S
O35 C31 1.260 . S
C36 O27 1.240 . S
C36 O28 1.252 . S
O37 In26 2.294 . S
O37 C30 1.240 . S
O38 In26 2.326 . S
O38 C30 1.252 . S
In39 O40 2.294 . S
In39 O41 2.326 . S
In39 O45 2.266 . S
In39 O46 2.326 . S
In39 O47 2.266 . S
In39 O48 2.326 . S
In39 O50 2.294 . S
In39 O51 2.326 . S
O40 In39 2.294 . S
O40 C49 1.240 . S
O41 In39 2.326 . S
O41 C49 1.252 . S
C42 O45 1.252 . S
C42 O46 1.260 . S
C43 O50 1.240 . S
C43 O51 1.252 . S
C44 O47 1.252 . S
C44 O48 1.260 . S
O45 In39 2.266 . S
O45 C42 1.252 . S
O46 In39 2.326 . S
O46 C42 1.260 . S
O47 In39 2.266 . S
O47 C44 1.252 . S
O48 In39 2.326 . S
O48 C44 1.260 . S
C49 O40 1.240 . S
C49 O41 1.252 . S
O50 In39 2.294 . S
O50 C43 1.240 . S
O51 In39 2.326 . S
O51 C43 1.252 . S
In52 O53 2.294 . S
In52 O54 2.326 . S
In52 O58 2.266 . S
In52 O59 2.326 . S
In52 O60 2.266 . S
In52 O61 2.326 . S
In52 O63 2.294 . S
In52 O64 2.326 . S
O53 In52 2.294 . S
O53 C62 1.240 . S
O54 In52 2.326 . S
O54 C62 1.252 . S
C55 O58 1.252 . S
C55 O59 1.260 . S
C56 O63 1.240 . S
C56 O64 1.252 . S
C57 O60 1.252 . S
C57 O61 1.260 . S
O58 In52 2.266 . S
O58 C55 1.252 . S
O59 In52 2.326 . S
O59 C55 1.260 . S
O60 In52 2.266 . S
O60 C57 1.252 . S
O61 In52 2.326 . S
O61 C57 1.260 . S
C62 O53 1.240 . S
C62 O54 1.252 . S
O63 In52 2.294 . S
O63 C56 1.240 . S
O64 In52 2.326 . S
O64 C56 1.252 . S
In65 O66 2.294 . S
In65 O67 2.326 . S
In65 O71 2.266 . S
In65 O72 2.326 . S
In65 O73 2.266 . S
In65 O74 2.326 . S
In65 O76 2.294 . S
In65 O77 2.326 . S
O66 In65 2.294 . S
O66 C75 1.240 . S
O67 In65 2.326 . S
O67 C75 1.252 . S
C68 O71 1.252 . S
C68 O72 1.260 . S
C69 O76 1.240 . S
C69 O77 1.252 . S
C70 O73 1.252 . S
C70 O74 1.260 . S
O71 In65 2.266 . S
O71 C68 1.252 . S
O72 In65 2.326 . S
O72 C68 1.260 . S
O73 In65 2.266 . S
O73 C70 1.252 . S
O74 In65 2.326 . S
O74 C70 1.260 . S
C75 O66 1.240 . S
C75 O67 1.252 . S
O76 In65 2.294 . S
O76 C69 1.240 . S
O77 In65 2.326 . S
O77 C69 1.252 . S
In78 O79 2.294 . S
In78 O80 2.326 . S
In78 O84 2.266 . S
In78 O85 2.326 . S
In78 O86 2.266 . S
In78 O87 2.326 . S
In78 O89 2.294 . S
In78 O90 2.326 . S
O79 In78 2.294 . S
O79 C88 1.240 . S
O80 In78 2.326 . S
O80 C88 1.252 . S
C81 O84 1.252 . S
C81 O85 1.260 . S
C82 O89 1.240 . S
C82 O90 1.252 . S
C83 O86 1.252 . S
C83 O87 1.260 . S
O84 In78 2.266 . S
O84 C81 1.252 . S
O85 In78 2.326 . S
O85 C81 1.260 . S
O86 In78 2.266 . S
O86 C83 1.252 . S
O87 In78 2.326 . S
O87 C83 1.260 . S
C88 O79 1.240 . S
C88 O80 1.252 . S
O89 In78 2.294 . S
O89 C82 1.240 . S
O90 In78 2.326 . S
O90 C82 1.252 . S
In91 O92 2.294 . S
In91 O93 2.326 . S
In91 O97 2.266 . S
In91 O98 2.326 . S
In91 O99 2.266 . S
In91 O100 2.326 . S
In91 O102 2.294 . S
In91 O103 2.326 . S
O92 In91 2.294 . S
O92 C101 1.240 . S
O93 In91 2.326 . S
O93 C101 1.252 . S
C94 O97 1.252 . S
C94 O98 1.260 . S
C95 O102 1.240 . S
C95 O103 1.252 . S
C96 O99 1.252 . S
C96 O100 1.260 . S
O97 In91 2.266 . S
O97 C94 1.252 . S
O98 In91 2.326 . S
O98 C94 1.260 . S
O99 In91 2.266 . S
O99 C96 1.252 . S
O100 In91 2.326 . S
O100 C96 1.260 . S
C101 O92 1.240 . S
C101 O93 1.252 . S
O102 In91 2.294 . S
O102 C95 1.240 . S
O103 In91 2.326 . S
O103 C95 1.252 . S
In104 O105 2.294 . S
In104 O106 2.326 . S
In104 O110 2.266 . S
In104 O111 2.326 . S
In104 O112 2.266 . S
In104 O113 2.326 . S
In104 O115 2.294 . S
In104 O116 2.326 . S
O105 In104 2.294 . S
O105 C114 1.240 . S
O106 In104 2.326 . S
O106 C114 1.252 . S
C107 O110 1.252 . S
C107 O111 1.260 . S
C108 O115 1.240 . S
C108 O116 1.252 . S
C109 O112 1.252 . S
C109 O113 1.260 . S
O110 In104 2.266 . S
O110 C107 1.252 . S
O111 In104 2.326 . S
O111 C107 1.260 . S
O112 In104 2.266 . S
O112 C109 1.252 . S
O113 In104 2.326 . S
O113 C109 1.260 . S
C114 O105 1.240 . S
C114 O106 1.252 . S
O115 In104 2.294 . S
O115 C108 1.240 . S
O116 In104 2.326 . S
O116 C108 1.252 . S
In117 O118 2.294 . S
In117 O119 2.326 . S
In117 O123 2.266 . S
In117 O124 2.326 . S
In117 O125 2.266 . S
In117 O126 2.326 . S
In117 O128 2.294 . S
In117 O129 2.326 . S
O118 In117 2.294 . S
O118 C127 1.240 . S
O119 In117 2.326 . S
O119 C127 1.252 . S
C120 O123 1.252 . S
C120 O124 1.260 . S
C121 O128 1.240 . S
C121 O129 1.252 . S
C122 O125 1.252 . S
C122 O126 1.260 . S
O123 In117 2.266 . S
O123 C120 1.252 . S
O124 In117 2.326 . S
O124 C120 1.260 . S
O125 In117 2.266 . S
O125 C122 1.252 . S
O126 In117 2.326 . S
O126 C122 1.260 . S
C127 O118 1.240 . S
C127 O119 1.252 . S
O128 In117 2.294 . S
O128 C121 1.240 . S
O129 In117 2.326 . S
O129 C121 1.252 . S
In130 O131 2.294 . S
In130 O132 2.326 . S
In130 O136 2.266 . S
In130 O137 2.326 . S
In130 O138 2.266 . S
In130 O139 2.326 . S
In130 O141 2.294 . S
In130 O142 2.326 . S
O131 In130 2.294 . S
O131 C140 1.240 . S
O132 In130 2.326 . S
O132 C140 1.252 . S
C133 O136 1.252 . S
C133 O137 1.260 . S
C134 O141 1.240 . S
C134 O142 1.252 . S
C135 O138 1.252 . S
C135 O139 1.260 . S
O136 In130 2.266 . S
O136 C133 1.252 . S
O137 In130 2.326 . S
O137 C133 1.260 . S
O138 In130 2.266 . S
O138 C135 1.252 . S
O139 In130 2.326 . S
O139 C135 1.260 . S
C140 O131 1.240 . S
C140 O132 1.252 . S
O141 In130 2.294 . S
O141 C134 1.240 . S
O142 In130 2.326 . S
O142 C134 1.252 . S
In143 O144 2.294 . S
In143 O145 2.326 . S
In143 O149 2.266 . S
In143 O150 2.326 . S
In143 O151 2.266 . S
In143 O152 2.326 . S
In143 O154 2.294 . S
In143 O155 2.326 . S
O144 In143 2.294 . S
O144 C153 1.240 . S
O145 In143 2.326 . S
O145 C153 1.252 . S
C146 O149 1.252 . S
C146 O150 1.260 . S
C147 O154 1.240 . S
C147 O155 1.252 . S
C148 O151 1.252 . S
C148 O152 1.260 . S
O149 In143 2.266 . S
O149 C146 1.252 . S
O150 In143 2.326 . S
O150 C146 1.260 . S
O151 In143 2.266 . S
O151 C148 1.252 . S
O152 In143 2.326 . S
O152 C148 1.260 . S
C153 O144 1.240 . S
C153 O145 1.252 . S
O154 In143 2.294 . S
O154 C147 1.240 . S
O155 In143 2.326 . S
O155 C147 1.252 . S
In156 O157 2.294 . S
In156 O158 2.326 . S
In156 O162 2.266 . S
In156 O163 2.326 . S
In156 O164 2.266 . S
In156 O165 2.326 . S
In156 O167 2.294 . S
In156 O168 2.326 . S
O157 In156 2.294 . S
O157 C166 1.240 . S
O158 In156 2.326 . S
O158 C166 1.252 . S
C159 O162 1.252 . S
C159 O163 1.260 . S
C160 O167 1.240 . S
C160 O168 1.252 . S
C161 O164 1.252 . S
C161 O165 1.260 . S
O162 In156 2.266 . S
O162 C159 1.252 . S
O163 In156 2.326 . S
O163 C159 1.260 . S
O164 In156 2.266 . S
O164 C161 1.252 . S
O165 In156 2.326 . S
O165 C161 1.260 . S
C166 O157 1.240 . S
C166 O158 1.252 . S
O167 In156 2.294 . S
O167 C160 1.240 . S
O168 In156 2.326 . S
O168 C160 1.252 . S
In169 O170 2.294 . S
In169 O171 2.326 . S
In169 O175 2.266 . S
In169 O176 2.326 . S
In169 O177 2.266 . S
In169 O178 2.326 . S
In169 O180 2.294 . S
In169 O181 2.326 . S
O170 In169 2.294 . S
O170 C179 1.240 . S
O171 In169 2.326 . S
O171 C179 1.252 . S
C172 O175 1.252 . S
C172 O176 1.260 . S
C173 O180 1.240 . S
C173 O181 1.252 . S
C174 O177 1.252 . S
C174 O178 1.260 . S
O175 In169 2.266 . S
O175 C172 1.252 . S
O176 In169 2.326 . S
O176 C172 1.260 . S
O177 In169 2.266 . S
O177 C174 1.252 . S
O178 In169 2.326 . S
O178 C174 1.260 . S
C179 O170 1.240 . S
C179 O171 1.252 . S
O180 In169 2.294 . S
O180 C173 1.240 . S
O181 In169 2.326 . S
O181 C173 1.252 . S
In182 O183 2.294 . S
In182 O184 2.326 . S
In182 O188 2.266 . S
In182 O189 2.326 . S
In182 O190 2.266 . S
In182 O191 2.326 . S
In182 O193 2.294 . S
In182 O194 2.326 . S
O183 In182 2.294 . S
O183 C192 1.240 . S
O184 In182 2.326 . S
O184 C192 1.252 . S
C185 O188 1.252 . S
C185 O189 1.260 . S
C186 O193 1.240 . S
C186 O194 1.252 . S
C187 O190 1.252 . S
C187 O191 1.260 . S
O188 In182 2.266 . S
O188 C185 1.252 . S
O189 In182 2.326 . S
O189 C185 1.260 . S
O190 In182 2.266 . S
O190 C187 1.252 . S
O191 In182 2.326 . S
O191 C187 1.260 . S
C192 O183 1.240 . S
C192 O184 1.252 . S
O193 In182 2.294 . S
O193 C186 1.240 . S
O194 In182 2.326 . S
O194 C186 1.252 . S
In195 O196 2.294 . S
In195 O197 2.326 . S
In195 O201 2.266 . S
In195 O202 2.326 . S
In195 O203 2.266 . S
In195 O204 2.326 . S
In195 O206 2.294 . S
In195 O207 2.326 . S
O196 In195 2.294 . S
O196 C205 1.240 . S
O197 In195 2.326 . S
O197 C205 1.252 . S
C198 O201 1.252 . S
C198 O202 1.260 . S
C199 O206 1.240 . S
C199 O207 1.252 . S
C200 O203 1.252 . S
C200 O204 1.260 . S
O201 In195 2.266 . S
O201 C198 1.252 . S
O202 In195 2.326 . S
O202 C198 1.260 . S
O203 In195 2.266 . S
O203 C200 1.252 . S
O204 In195 2.326 . S
O204 C200 1.260 . S
C205 O196 1.240 . S
C205 O197 1.252 . S
O206 In195 2.294 . S
O206 C199 1.240 . S
O207 In195 2.326 . S
O207 C199 1.252 . S
In208 O209 2.294 . S
In208 O210 2.326 . S
In208 O214 2.266 . S
In208 O215 2.326 . S
In208 O216 2.266 . S
In208 O217 2.326 . S
In208 O219 2.294 . S
In208 O220 2.326 . S
O209 In208 2.294 . S
O209 C218 1.240 . S
O210 In208 2.326 . S
O210 C218 1.252 . S
C211 O214 1.252 . S
C211 O215 1.260 . S
C212 O219 1.240 . S
C212 O220 1.252 . S
C213 O216 1.252 . S
C213 O217 1.260 . S
O214 In208 2.266 . S
O214 C211 1.252 . S
O215 In208 2.326 . S
O215 C211 1.260 . S
O216 In208 2.266 . S
O216 C213 1.252 . S
O217 In208 2.326 . S
O217 C213 1.260 . S
C218 O209 1.240 . S
C218 O210 1.252 . S
O219 In208 2.294 . S
O219 C212 1.240 . S
O220 In208 2.326 . S
O220 C212 1.252 . S
In221 O222 2.294 . S
In221 O223 2.326 . S
In221 O227 2.266 . S
In221 O228 2.326 . S
In221 O229 2.266 . S
In221 O230 2.326 . S
In221 O232 2.294 . S
In221 O233 2.326 . S
O222 In221 2.294 . S
O222 C231 1.240 . S
O223 In221 2.326 . S
O223 C231 1.252 . S
C224 O227 1.252 . S
C224 O228 1.260 . S
C225 O232 1.240 . S
C225 O233 1.252 . S
C226 O229 1.252 . S
C226 O230 1.260 . S
O227 In221 2.266 . S
O227 C224 1.252 . S
O228 In221 2.326 . S
O228 C224 1.260 . S
O229 In221 2.266 . S
O229 C226 1.252 . S
O230 In221 2.326 . S
O230 C226 1.260 . S
C231 O222 1.240 . S
C231 O223 1.252 . S
O232 In221 2.294 . S
O232 C225 1.240 . S
O233 In221 2.326 . S
O233 C225 1.252 . S
In234 O235 2.294 . S
In234 O236 2.326 . S
In234 O240 2.266 . S
In234 O241 2.326 . S
In234 O242 2.266 . S
In234 O243 2.326 . S
In234 O245 2.294 . S
In234 O246 2.326 . S
O235 In234 2.294 . S
O235 C244 1.240 . S
O236 In234 2.326 . S
O236 C244 1.252 . S
C237 O240 1.252 . S
C237 O241 1.260 . S
C238 O245 1.240 . S
C238 O246 1.252 . S
C239 O242 1.252 . S
C239 O243 1.260 . S
O240 In234 2.266 . S
O240 C237 1.252 . S
O241 In234 2.326 . S
O241 C237 1.260 . S
O242 In234 2.266 . S
O242 C239 1.252 . S
O243 In234 2.326 . S
O243 C239 1.260 . S
C244 O235 1.240 . S
C244 O236 1.252 . S
O245 In234 2.294 . S
O245 C238 1.240 . S
O246 In234 2.326 . S
O246 C238 1.252 . S
In247 O248 2.294 . S
In247 O249 2.326 . S
In247 O253 2.266 . S
In247 O254 2.326 . S
In247 O255 2.266 . S
In247 O256 2.326 . S
In247 O258 2.294 . S
In247 O259 2.326 . S
O248 In247 2.294 . S
O248 C257 1.240 . S
O249 In247 2.326 . S
O249 C257 1.252 . S
C250 O253 1.252 . S
C250 O254 1.260 . S
C251 O258 1.240 . S
C251 O259 1.252 . S
C252 O255 1.252 . S
C252 O256 1.260 . S
O253 In247 2.266 . S
O253 C250 1.252 . S
O254 In247 2.326 . S
O254 C250 1.260 . S
O255 In247 2.266 . S
O255 C252 1.252 . S
O256 In247 2.326 . S
O256 C252 1.260 . S
C257 O248 1.240 . S
C257 O249 1.252 . S
O258 In247 2.294 . S
O258 C251 1.240 . S
O259 In247 2.326 . S
O259 C251 1.252 . S
In260 O261 2.294 . S
In260 O262 2.326 . S
In260 O266 2.266 . S
In260 O267 2.326 . S
In260 O268 2.266 . S
In260 O269 2.326 . S
In260 O271 2.294 . S
In260 O272 2.326 . S
O261 In260 2.294 . S
O261 C270 1.240 . S
O262 In260 2.326 . S
O262 C270 1.252 . S
C263 O266 1.252 . S
C263 O267 1.260 . S
C264 O271 1.240 . S
C264 O272 1.252 . S
C265 O268 1.252 . S
C265 O269 1.260 . S
O266 In260 2.266 . S
O266 C263 1.252 . S
O267 In260 2.326 . S
O267 C263 1.260 . S
O268 In260 2.266 . S
O268 C265 1.252 . S
O269 In260 2.326 . S
O269 C265 1.260 . S
C270 O261 1.240 . S
C270 O262 1.252 . S
O271 In260 2.294 . S
O271 C264 1.240 . S
O272 In260 2.326 . S
O272 C264 1.252 . S
In273 O274 2.294 . S
In273 O275 2.326 . S
In273 O279 2.266 . S
In273 O280 2.326 . S
In273 O281 2.266 . S
In273 O282 2.326 . S
In273 O284 2.294 . S
In273 O285 2.326 . S
O274 In273 2.294 . S
O274 C283 1.240 . S
O275 In273 2.326 . S
O275 C283 1.252 . S
C276 O279 1.252 . S
C276 O280 1.260 . S
C277 O284 1.240 . S
C277 O285 1.252 . S
C278 O281 1.252 . S
C278 O282 1.260 . S
O279 In273 2.266 . S
O279 C276 1.252 . S
O280 In273 2.326 . S
O280 C276 1.260 . S
O281 In273 2.266 . S
O281 C278 1.252 . S
O282 In273 2.326 . S
O282 C278 1.260 . S
C283 O274 1.240 . S
C283 O275 1.252 . S
O284 In273 2.294 . S
O284 C277 1.240 . S
O285 In273 2.326 . S
O285 C277 1.252 . S
In286 O287 2.294 . S
In286 O288 2.326 . S
In286 O292 2.266 . S
In286 O293 2.326 . S
In286 O294 2.266 . S
In286 O295 2.326 . S
In286 O297 2.294 . S
In286 O298 2.326 . S
O287 In286 2.294 . S
O287 C296 1.240 . S
O288 In286 2.326 . S
O288 C296 1.252 . S
C289 O292 1.252 . S
C289 O293 1.260 . S
C290 O297 1.240 . S
C290 O298 1.252 . S
C291 O294 1.252 . S
C291 O295 1.260 . S
O292 In286 2.266 . S
O292 C289 1.252 . S
O293 In286 2.326 . S
O293 C289 1.260 . S
O294 In286 2.266 . S
O294 C291 1.252 . S
O295 In286 2.326 . S
O295 C291 1.260 . S
C296 O287 1.240 . S
C296 O288 1.252 . S
O297 In286 2.294 . S
O297 C290 1.240 . S
O298 In286 2.326 . S
O298 C290 1.252 . S
In299 O300 2.294 . S
In299 O301 2.326 . S
In299 O305 2.266 . S
In299 O306 2.326 . S
In299 O307 2.266 . S
In299 O308 2.326 . S
In299 O310 2.294 . S
In299 O311 2.326 . S
O300 In299 2.294 . S
O300 C309 1.240 . S
O301 In299 2.326 . S
O301 C309 1.252 . S
C302 O305 1.252 . S
C302 O306 1.260 . S
C303 O310 1.240 . S
C303 O311 1.252 . S
C304 O307 1.252 . S
C304 O308 1.260 . S
O305 In299 2.266 . S
O305 C302 1.252 . S
O306 In299 2.326 . S
O306 C302 1.260 . S
O307 In299 2.266 . S
O307 C304 1.252 . S
O308 In299 2.326 . S
O308 C304 1.260 . S
C309 O300 1.240 . S
C309 O301 1.252 . S
O310 In299 2.294 . S
O310 C303 1.240 . S
O311 In299 2.326 . S
O311 C303 1.252 . S
In312 O313 2.294 . S
In312 O314 2.326 . S
In312 O318 2.266 . S
In312 O319 2.326 . S
In312 O320 2.266 . S
In312 O321 2.326 . S
In312 O323 2.294 . S
In312 O324 2.326 . S
O313 In312 2.294 . S
O313 C322 1.240 . S
O314 In312 2.326 . S
O314 C322 1.252 . S
C315 O318 1.252 . S
C315 O319 1.260 . S
C316 O323 1.240 . S
C316 O324 1.252 . S
C317 O320 1.252 . S
C317 O321 1.260 . S
O318 In312 2.266 . S
O318 C315 1.252 . S
O319 In312 2.326 . S
O319 C315 1.260 . S
O320 In312 2.266 . S
O320 C317 1.252 . S
O321 In312 2.326 . S
O321 C317 1.260 . S
C322 O313 1.240 . S
C322 O314 1.252 . S
O323 In312 2.294 . S
O323 C316 1.240 . S
O324 In312 2.326 . S
O324 C316 1.252 . S
In325 O326 2.294 . S
In325 O327 2.326 . S
In325 O331 2.266 . S
In325 O332 2.326 . S
In325 O333 2.266 . S
In325 O334 2.326 . S
In325 O336 2.294 . S
In325 O337 2.326 . S
O326 In325 2.294 . S
O326 C335 1.240 . S
O327 In325 2.326 . S
O327 C335 1.252 . S
C328 O331 1.252 . S
C328 O332 1.260 . S
C329 O336 1.240 . S
C329 O337 1.252 . S
C330 O333 1.252 . S
C330 O334 1.260 . S
O331 In325 2.266 . S
O331 C328 1.252 . S
O332 In325 2.326 . S
O332 C328 1.260 . S
O333 In325 2.266 . S
O333 C330 1.252 . S
O334 In325 2.326 . S
O334 C330 1.260 . S
C335 O326 1.240 . S
C335 O327 1.252 . S
O336 In325 2.294 . S
O336 C329 1.240 . S
O337 In325 2.326 . S
O337 C329 1.252 . S
In338 O339 2.294 . S
In338 O340 2.326 . S
In338 O344 2.266 . S
In338 O345 2.326 . S
In338 O346 2.266 . S
In338 O347 2.326 . S
In338 O349 2.294 . S
In338 O350 2.326 . S
O339 In338 2.294 . S
O339 C348 1.240 . S
O340 In338 2.326 . S
O340 C348 1.252 . S
C341 O344 1.252 . S
C341 O345 1.260 . S
C342 O349 1.240 . S
C342 O350 1.252 . S
C343 O346 1.252 . S
C343 O347 1.260 . S
O344 In338 2.266 . S
O344 C341 1.252 . S
O345 In338 2.326 . S
O345 C341 1.260 . S
O346 In338 2.266 . S
O346 C343 1.252 . S
O347 In338 2.326 . S
O347 C343 1.260 . S
C348 O339 1.240 . S
C348 O340 1.252 . S
O349 In338 2.294 . S
O349 C342 1.240 . S
O350 In338 2.326 . S
O350 C342 1.252 . S
In351 O352 2.294 . S
In351 O353 2.326 . S
In351 O357 2.266 . S
In351 O358 2.326 . S
In351 O359 2.266 . S
In351 O360 2.326 . S
In351 O362 2.294 . S
In351 O363 2.326 . S
O352 In351 2.294 . S
O352 C361 1.240 . S
O353 In351 2.326 . S
O353 C361 1.252 . S
C354 O357 1.252 . S
C354 O358 1.260 . S
C355 O362 1.240 . S
C355 O363 1.252 . S
C356 O359 1.252 . S
C356 O360 1.260 . S
O357 In351 2.266 . S
O357 C354 1.252 . S
O358 In351 2.326 . S
O358 C354 1.260 . S
O359 In351 2.266 . S
O359 C356 1.252 . S
O360 In351 2.326 . S
O360 C356 1.260 . S
C361 O352 1.240 . S
C361 O353 1.252 . S
O362 In351 2.294 . S
O362 C355 1.240 . S
O363 In351 2.326 . S
O363 C355 1.252 . S
In364 O365 2.294 . S
In364 O366 2.326 . S
In364 O370 2.266 . S
In364 O371 2.326 . S
In364 O372 2.266 . S
In364 O373 2.326 . S
In364 O375 2.294 . S
In364 O376 2.326 . S
O365 In364 2.294 . S
O365 C374 1.240 . S
O366 In364 2.326 . S
O366 C374 1.252 . S
C367 O370 1.252 . S
C367 O371 1.260 . S
C368 O375 1.240 . S
C368 O376 1.252 . S
C369 O372 1.252 . S
C369 O373 1.260 . S
O370 In364 2.266 . S
O370 C367 1.252 . S
O371 In364 2.326 . S
O371 C367 1.260 . S
O372 In364 2.266 . S
O372 C369 1.252 . S
O373 In364 2.326 . S
O373 C369 1.260 . S
C374 O365 1.240 . S
C374 O366 1.252 . S
O375 In364 2.294 . S
O375 C368 1.240 . S
O376 In364 2.326 . S
O376 C368 1.252 . S
In377 O378 2.294 . S
In377 O379 2.326 . S
In377 O383 2.266 . S
In377 O384 2.326 . S
In377 O385 2.266 . S
In377 O386 2.326 . S
In377 O388 2.294 . S
In377 O389 2.326 . S
O378 In377 2.294 . S
O378 C387 1.240 . S
O379 In377 2.326 . S
O379 C387 1.252 . S
C380 O383 1.252 . S
C380 O384 1.260 . S
C381 O388 1.240 . S
C381 O389 1.252 . S
C382 O385 1.252 . S
C382 O386 1.260 . S
O383 In377 2.266 . S
O383 C380 1.252 . S
O384 In377 2.326 . S
O384 C380 1.260 . S
O385 In377 2.266 . S
O385 C382 1.252 . S
O386 In377 2.326 . S
O386 C382 1.260 . S
C387 O378 1.240 . S
C387 O379 1.252 . S
O388 In377 2.294 . S
O388 C381 1.240 . S
O389 In377 2.326 . S
O389 C381 1.252 . S
In390 O391 2.294 . S
In390 O392 2.326 . S
In390 O396 2.266 . S
In390 O397 2.326 . S
In390 O398 2.266 . S
In390 O399 2.326 . S
In390 O401 2.294 . S
In390 O402 2.326 . S
O391 In390 2.294 . S
O391 C400 1.240 . S
O392 In390 2.326 . S
O392 C400 1.252 . S
C393 O396 1.252 . S
C393 O397 1.260 . S
C394 O401 1.240 . S
C394 O402 1.252 . S
C395 O398 1.252 . S
C395 O399 1.260 . S
O396 In390 2.266 . S
O396 C393 1.252 . S
O397 In390 2.326 . S
O397 C393 1.260 . S
O398 In390 2.266 . S
O398 C395 1.252 . S
O399 In390 2.326 . S
O399 C395 1.260 . S
C400 O391 1.240 . S
C400 O392 1.252 . S
O401 In390 2.294 . S
O401 C394 1.240 . S
O402 In390 2.326 . S
O402 C394 1.252 . S
In403 O404 2.294 . S
In403 O405 2.326 . S
In403 O409 2.266 . S
In403 O410 2.326 . S
In403 O411 2.266 . S
In403 O412 2.326 . S
In403 O414 2.294 . S
In403 O415 2.326 . S
O404 In403 2.294 . S
O404 C413 1.240 . S
O405 In403 2.326 . S
O405 C413 1.252 . S
C406 O409 1.252 . S
C406 O410 1.260 . S
C407 O414 1.240 . S
C407 O415 1.252 . S
C408 O411 1.252 . S
C408 O412 1.260 . S
O409 In403 2.266 . S
O409 C406 1.252 . S
O410 In403 2.326 . S
O410 C406 1.260 . S
O411 In403 2.266 . S
O411 C408 1.252 . S
O412 In403 2.326 . S
O412 C408 1.260 . S
C413 O404 1.240 . S
C413 O405 1.252 . S
O414 In403 2.294 . S
O414 C407 1.240 . S
O415 In403 2.326 . S
O415 C407 1.252 . S
C416 C417 1.349 . S
C416 C418 1.327 . S
C416 H441 0.950 . S
C417 C416 1.349 . S
C417 C433 1.349 . S
C418 C416 1.327 . S
C418 C437 1.429 . S
C418 H442 0.950 . S
C419 C436 1.574 . S
C419 C438 1.368 . S
C419 H443 0.949 . S
H420 C424 0.949 . S
C421 C422 1.349 . S
C421 C423 1.327 . S
C421 H444 0.950 . S
C422 C421 1.349 . S
C422 C434 1.349 . S
C423 C421 1.327 . S
C423 C439 1.429 . S
C423 H445 0.950 . S
C424 H420 0.949 . S
C424 C432 1.574 . S
C424 C440 1.368 . S
H425 C433 0.950 . S
H426 C431 0.950 . S
H427 C432 0.949 . S
H428 C434 0.950 . S
H429 C435 0.950 . S
H430 C436 0.949 . S
C431 H426 0.950 . S
C431 C433 1.327 . S
C431 C437 1.429 . S
C432 C424 1.574 . S
C432 H427 0.949 . S
C432 C438 1.368 . S
C433 C417 1.349 . S
C433 H425 0.950 . S
C433 C431 1.327 . S
C434 C422 1.349 . S
C434 H428 0.950 . S
C434 C435 1.327 . S
C435 H429 0.950 . S
C435 C434 1.327 . S
C435 C439 1.429 . S
C436 C419 1.574 . S
C436 H430 0.949 . S
C436 C440 1.368 . S
C437 C418 1.429 . S
C437 C431 1.429 . S
C437 C438 1.523 . S
C438 C419 1.368 . S
C438 C432 1.368 . S
C438 C437 1.523 . S
C439 C423 1.429 . S
C439 C435 1.429 . S
C439 C440 1.523 . S
C440 C424 1.368 . S
C440 C436 1.368 . S
C440 C439 1.523 . S
H441 C416 0.950 . S
H442 C418 0.950 . S
H443 C419 0.949 . S
H444 C421 0.950 . S
H445 C423 0.950 . S
C446 C447 1.344 1_655 S
C446 C448 1.327 . S
C446 H471 0.950 1_655 S
C447 C446 1.344 1_455 S
C447 C463 1.335 1_455 S
C448 C446 1.327 . S
C448 C467 1.429 . S
C448 H472 0.950 . S
C449 C466 1.574 . S
C449 C468 1.368 . S
C449 H473 0.949 . S
H450 C454 0.949 . S
C451 C452 1.349 . S
C451 C453 1.327 . S
C451 H474 0.950 . S
C452 C451 1.349 . S
C452 C464 1.349 . S
C453 C451 1.327 . S
C453 C469 1.429 . S
C453 H475 0.950 . S
C454 H450 0.949 . S
C454 C462 1.574 . S
C454 C470 1.368 . S
H455 C463 0.950 . S
H456 C461 0.950 . S
H457 C462 0.949 . S
H458 C464 0.950 . S
H459 C465 0.950 . S
H460 C466 0.949 . S
C461 H456 0.950 . S
C461 C463 1.327 . S
C461 C467 1.429 . S
C462 C454 1.574 . S
C462 H457 0.949 . S
C462 C468 1.368 . S
C463 C447 1.335 1_655 S
C463 H455 0.950 . S
C463 C461 1.327 . S
C464 C452 1.349 . S
C464 H458 0.950 . S
C464 C465 1.327 . S
C465 H459 0.950 . S
C465 C464 1.327 . S
C465 C469 1.429 . S
C466 C449 1.574 . S
C466 H460 0.949 . S
C466 C470 1.368 . S
C467 C448 1.429 . S
C467 C461 1.429 . S
C467 C468 1.523 . S
C468 C449 1.368 . S
C468 C462 1.368 . S
C468 C467 1.523 . S
C469 C453 1.429 . S
C469 C465 1.429 . S
C469 C470 1.523 . S
C470 C454 1.368 . S
C470 C466 1.368 . S
C470 C469 1.523 . S
H471 C446 0.950 1_455 S
H472 C448 0.950 . S
H473 C449 0.949 . S
H474 C451 0.950 . S
H475 C453 0.950 . S
C476 C477 1.349 . S
C476 C478 1.327 . S
C476 H501 0.950 . S
C477 C476 1.349 . S
C477 C493 1.349 . S
C478 C476 1.327 . S
C478 C497 1.429 . S
C478 H502 0.950 . S
C479 C496 1.574 . S
C479 C498 1.368 . S
C479 H503 0.949 . S
H480 C484 0.949 . S
C481 C482 1.349 . S
C481 C483 1.327 . S
C481 H504 0.950 . S
C482 C481 1.349 . S
C482 C494 1.349 . S
C483 C481 1.327 . S
C483 C499 1.429 . S
C483 H505 0.950 . S
C484 H480 0.949 . S
C484 C492 1.574 . S
C484 C500 1.368 . S
H485 C493 0.950 . S
H486 C491 0.950 . S
H487 C492 0.949 . S
H488 C494 0.950 . S
H489 C495 0.950 . S
H490 C496 0.949 . S
C491 H486 0.950 . S
C491 C493 1.327 . S
C491 C497 1.429 . S
C492 C484 1.574 . S
C492 H487 0.949 . S
C492 C498 1.368 . S
C493 C477 1.349 . S
C493 H485 0.950 . S
C493 C491 1.327 . S
C494 C482 1.349 . S
C494 H488 0.950 . S
C494 C495 1.327 . S
C495 H489 0.950 . S
C495 C494 1.327 . S
C495 C499 1.429 . S
C496 C479 1.574 . S
C496 H490 0.949 . S
C496 C500 1.368 . S
C497 C478 1.429 . S
C497 C491 1.429 . S
C497 C498 1.523 . S
C498 C479 1.368 . S
C498 C492 1.368 . S
C498 C497 1.523 . S
C499 C483 1.429 . S
C499 C495 1.429 . S
C499 C500 1.523 . S
C500 C484 1.368 . S
C500 C496 1.368 . S
C500 C499 1.523 . S
H501 C476 0.950 . S
H502 C478 0.950 . S
H503 C479 0.949 . S
H504 C481 0.950 . S
H505 C483 0.950 . S
C506 C507 1.349 . S
C506 C508 1.327 . S
C506 H531 0.950 . S
C507 C506 1.349 . S
C507 C523 1.349 . S
C508 C506 1.327 . S
C508 C527 1.429 . S
C508 H532 0.950 . S
C509 C526 1.574 . S
C509 C528 1.368 . S
C509 H533 0.949 . S
H510 C514 0.949 . S
C511 C512 1.349 . S
C511 C513 1.327 . S
C511 H534 0.950 . S
C512 C511 1.349 . S
C512 C524 1.349 . S
C513 C511 1.327 . S
C513 C529 1.429 . S
C513 H535 0.950 . S
C514 H510 0.949 . S
C514 C522 1.574 . S
C514 C530 1.368 . S
H515 C523 0.950 . S
H516 C521 0.950 . S
H517 C522 0.949 . S
H518 C524 0.950 . S
H519 C525 0.950 . S
H520 C526 0.949 . S
C521 H516 0.950 . S
C521 C523 1.327 . S
C521 C527 1.429 . S
C522 C514 1.574 . S
C522 H517 0.949 . S
C522 C528 1.368 . S
C523 C507 1.349 . S
C523 H515 0.950 . S
C523 C521 1.327 . S
C524 C512 1.349 . S
C524 H518 0.950 . S
C524 C525 1.327 . S
C525 H519 0.950 . S
C525 C524 1.327 . S
C525 C529 1.429 . S
C526 C509 1.574 . S
C526 H520 0.949 . S
C526 C530 1.368 . S
C527 C508 1.429 . S
C527 C521 1.429 . S
C527 C528 1.523 . S
C528 C509 1.368 . S
C528 C522 1.368 . S
C528 C527 1.523 . S
C529 C513 1.429 . S
C529 C525 1.429 . S
C529 C530 1.523 . S
C530 C514 1.368 . S
C530 C526 1.368 . S
C530 C529 1.523 . S
H531 C506 0.950 . S
H532 C508 0.950 . S
H533 C509 0.949 . S
H534 C511 0.950 . S
H535 C513 0.950 . S
C536 C537 1.349 . S
C536 C538 1.327 . S
C536 H561 0.950 . S
C537 C536 1.349 . S
C537 C553 1.349 . S
C538 C536 1.327 . S
C538 C557 1.429 . S
C538 H562 0.950 . S
C539 C556 1.574 . S
C539 C558 1.368 . S
C539 H563 0.949 . S
H540 C544 0.949 . S
C541 C542 1.349 . S
C541 C543 1.327 . S
C541 H564 0.950 . S
C542 C541 1.349 . S
C542 C554 1.349 . S
C543 C541 1.327 . S
C543 C559 1.429 . S
C543 H565 0.950 . S
C544 H540 0.949 . S
C544 C552 1.574 . S
C544 C560 1.368 . S
H545 C553 0.950 . S
H546 C551 0.950 . S
H547 C552 0.949 . S
H548 C554 0.950 . S
H549 C555 0.950 . S
H550 C556 0.949 . S
C551 H546 0.950 . S
C551 C553 1.327 . S
C551 C557 1.429 . S
C552 C544 1.574 . S
C552 H547 0.949 . S
C552 C558 1.368 . S
C553 C537 1.349 . S
C553 H545 0.950 . S
C553 C551 1.327 . S
C554 C542 1.349 . S
C554 H548 0.950 . S
C554 C555 1.327 . S
C555 H549 0.950 . S
C555 C554 1.327 . S
C555 C559 1.429 . S
C556 C539 1.574 . S
C556 H550 0.949 . S
C556 C560 1.368 . S
C557 C538 1.429 . S
C557 C551 1.429 . S
C557 C558 1.523 . S
C558 C539 1.368 . S
C558 C552 1.368 . S
C558 C557 1.523 . S
C559 C543 1.429 . S
C559 C555 1.429 . S
C559 C560 1.523 . S
C560 C544 1.368 . S
C560 C556 1.368 . S
C560 C559 1.523 . S
H561 C536 0.950 . S
H562 C538 0.950 . S
H563 C539 0.949 . S
H564 C541 0.950 . S
H565 C543 0.950 . S
C566 C567 1.349 . S
C566 C568 1.327 . S
C566 H591 0.950 . S
C567 C566 1.349 . S
C567 C583 1.349 . S
C568 C566 1.327 . S
C568 C587 1.429 . S
C568 H592 0.950 . S
C569 C586 1.574 . S
C569 C588 1.368 . S
C569 H593 0.949 . S
H570 C574 0.949 . S
C571 C572 1.349 . S
C571 C573 1.327 . S
C571 H594 0.950 . S
C572 C571 1.349 . S
C572 C584 1.349 . S
C573 C571 1.327 . S
C573 C589 1.429 . S
C573 H595 0.950 . S
C574 H570 0.949 . S
C574 C582 1.574 . S
C574 C590 1.368 . S
H575 C583 0.950 . S
H576 C581 0.950 . S
H577 C582 0.949 . S
H578 C584 0.950 . S
H579 C585 0.950 . S
H580 C586 0.949 . S
C581 H576 0.950 . S
C581 C583 1.327 . S
C581 C587 1.429 . S
C582 C574 1.574 . S
C582 H577 0.949 . S
C582 C588 1.368 . S
C583 C567 1.349 . S
C583 H575 0.950 . S
C583 C581 1.327 . S
C584 C572 1.349 . S
C584 H578 0.950 . S
C584 C585 1.327 . S
C585 H579 0.950 . S
C585 C584 1.327 . S
C585 C589 1.429 . S
C586 C569 1.574 . S
C586 H580 0.949 . S
C586 C590 1.368 . S
C587 C568 1.429 . S
C587 C581 1.429 . S
C587 C588 1.523 . S
C588 C569 1.368 . S
C588 C582 1.368 . S
C588 C587 1.523 . S
C589 C573 1.429 . S
C589 C585 1.429 . S
C589 C590 1.523 . S
C590 C574 1.368 . S
C590 C586 1.368 . S
C590 C589 1.523 . S
H591 C566 0.950 . S
H592 C568 0.950 . S
H593 C569 0.949 . S
H594 C571 0.950 . S
H595 C573 0.950 . S
C596 C597 1.349 . S
C596 C598 1.327 . S
C596 H621 0.950 . S
C597 C596 1.349 . S
C597 C613 1.349 . S
C598 C596 1.327 . S
C598 C617 1.429 . S
C598 H622 0.950 . S
C599 C616 1.574 . S
C599 C618 1.368 . S
C599 H623 0.949 . S
H600 C604 0.949 . S
C601 C602 1.349 . S
C601 C603 1.327 . S
C601 H624 0.950 . S
C602 C601 1.349 . S
C602 C614 1.349 . S
C603 C601 1.327 . S
C603 C619 1.429 . S
C603 H625 0.950 . S
C604 H600 0.949 . S
C604 C612 1.574 . S
C604 C620 1.368 . S
H605 C613 0.950 . S
H606 C611 0.950 . S
H607 C612 0.949 . S
H608 C614 0.950 . S
H609 C615 0.950 . S
H610 C616 0.949 . S
C611 H606 0.950 . S
C611 C613 1.327 . S
C611 C617 1.429 . S
C612 C604 1.574 . S
C612 H607 0.949 . S
C612 C618 1.368 . S
C613 C597 1.349 . S
C613 H605 0.950 . S
C613 C611 1.327 . S
C614 C602 1.349 . S
C614 H608 0.950 . S
C614 C615 1.327 . S
C615 H609 0.950 . S
C615 C614 1.327 . S
C615 C619 1.429 . S
C616 C599 1.574 . S
C616 H610 0.949 . S
C616 C620 1.368 . S
C617 C598 1.429 . S
C617 C611 1.429 . S
C617 C618 1.523 . S
C618 C599 1.368 . S
C618 C612 1.368 . S
C618 C617 1.523 . S
C619 C603 1.429 . S
C619 C615 1.429 . S
C619 C620 1.523 . S
C620 C604 1.368 . S
C620 C616 1.368 . S
C620 C619 1.523 . S
H621 C596 0.950 . S
H622 C598 0.950 . S
H623 C599 0.949 . S
H624 C601 0.950 . S
H625 C603 0.950 . S
C626 C627 1.343 1_655 S
C626 C628 1.327 . S
C626 H651 0.950 1_655 S
C627 C626 1.343 1_455 S
C627 C643 1.336 1_455 S
C628 C626 1.327 . S
C628 C647 1.429 . S
C628 H652 0.950 . S
C629 C646 1.574 . S
C629 C648 1.368 . S
C629 H653 0.949 . S
H630 C634 0.949 . S
C631 C632 1.349 . S
C631 C633 1.327 . S
C631 H654 0.950 . S
C632 C631 1.349 . S
C632 C644 1.349 . S
C633 C631 1.327 . S
C633 C649 1.429 . S
C633 H655 0.950 . S
C634 H630 0.949 . S
C634 C642 1.574 . S
C634 C650 1.368 . S
H635 C643 0.950 . S
H636 C641 0.950 . S
H637 C642 0.949 . S
H638 C644 0.950 . S
H639 C645 0.950 . S
H640 C646 0.949 . S
C641 H636 0.950 . S
C641 C643 1.327 . S
C641 C647 1.429 . S
C642 C634 1.574 . S
C642 H637 0.949 . S
C642 C648 1.368 . S
C643 C627 1.336 1_655 S
C643 H635 0.950 . S
C643 C641 1.327 . S
C644 C632 1.349 . S
C644 H638 0.950 . S
C644 C645 1.327 . S
C645 H639 0.950 . S
C645 C644 1.327 . S
C645 C649 1.429 . S
C646 C629 1.574 . S
C646 H640 0.949 . S
C646 C650 1.368 . S
C647 C628 1.429 . S
C647 C641 1.429 . S
C647 C648 1.523 . S
C648 C629 1.368 . S
C648 C642 1.368 . S
C648 C647 1.523 . S
C649 C633 1.429 . S
C649 C645 1.429 . S
C649 C650 1.523 . S
C650 C634 1.368 . S
C650 C646 1.368 . S
C650 C649 1.523 . S
H651 C626 0.950 1_455 S
H652 C628 0.950 . S
H653 C629 0.949 . S
H654 C631 0.950 . S
H655 C633 0.950 . S
C656 C657 1.349 . S
C656 C658 1.327 . S
C656 H681 0.950 . S
C657 C656 1.349 . S
C657 C673 1.349 . S
C658 C656 1.327 . S
C658 C677 1.429 . S
C658 H682 0.950 . S
C659 C676 1.574 . S
C659 C678 1.368 . S
C659 H683 0.949 . S
H660 C664 0.949 . S
C661 C662 1.349 . S
C661 C663 1.327 . S
C661 H684 0.950 . S
C662 C661 1.349 . S
C662 C674 1.349 . S
C663 C661 1.327 . S
C663 C679 1.429 . S
C663 H685 0.950 . S
C664 H660 0.949 . S
C664 C672 1.574 . S
C664 C680 1.368 . S
H665 C673 0.950 . S
H666 C671 0.950 . S
H667 C672 0.949 . S
H668 C674 0.950 . S
H669 C675 0.950 . S
H670 C676 0.949 . S
C671 H666 0.950 . S
C671 C673 1.327 . S
C671 C677 1.429 . S
C672 C664 1.574 . S
C672 H667 0.949 . S
C672 C678 1.368 . S
C673 C657 1.349 . S
C673 H665 0.950 . S
C673 C671 1.327 . S
C674 C662 1.349 . S
C674 H668 0.950 . S
C674 C675 1.327 . S
C675 H669 0.950 . S
C675 C674 1.327 . S
C675 C679 1.429 . S
C676 C659 1.574 . S
C676 H670 0.949 . S
C676 C680 1.368 . S
C677 C658 1.429 . S
C677 C671 1.429 . S
C677 C678 1.523 . S
C678 C659 1.368 . S
C678 C672 1.368 . S
C678 C677 1.523 . S
C679 C663 1.429 . S
C679 C675 1.429 . S
C679 C680 1.523 . S
C680 C664 1.368 . S
C680 C676 1.368 . S
C680 C679 1.523 . S
H681 C656 0.950 . S
H682 C658 0.950 . S
H683 C659 0.949 . S
H684 C661 0.950 . S
H685 C663 0.950 . S
C686 C687 1.349 . S
C686 C688 1.327 . S
C686 H711 0.950 . S
C687 C686 1.349 . S
C687 C703 1.349 . S
C688 C686 1.327 . S
C688 C707 1.429 . S
C688 H712 0.950 . S
C689 C706 1.574 . S
C689 C708 1.368 . S
C689 H713 0.949 . S
H690 C694 0.949 . S
C691 C692 1.348 . S
C691 C693 1.327 . S
C691 H714 0.950 . S
C692 C691 1.348 . S
C692 C704 1.349 . S
C693 C691 1.327 . S
C693 C709 1.429 . S
C693 H715 0.950 . S
C694 H690 0.949 . S
C694 C702 1.574 . S
C694 C710 1.368 . S
H695 C703 0.950 . S
H696 C701 0.950 . S
H697 C702 0.949 . S
H698 C704 0.950 1_655 S
H699 C705 0.950 . S
H700 C706 0.949 . S
C701 H696 0.950 . S
C701 C703 1.327 . S
C701 C707 1.429 . S
C702 C694 1.574 . S
C702 H697 0.949 . S
C702 C708 1.368 . S
C703 C687 1.349 . S
C703 H695 0.950 . S
C703 C701 1.327 . S
C704 C692 1.349 . S
C704 H698 0.950 1_455 S
C704 C705 1.327 . S
C705 H699 0.950 . S
C705 C704 1.327 . S
C705 C709 1.429 . S
C706 C689 1.574 . S
C706 H700 0.949 . S
C706 C710 1.368 . S
C707 C688 1.429 . S
C707 C701 1.429 . S
C707 C708 1.523 . S
C708 C689 1.368 . S
C708 C702 1.368 . S
C708 C707 1.523 . S
C709 C693 1.429 . S
C709 C705 1.429 . S
C709 C710 1.523 . S
C710 C694 1.368 . S
C710 C706 1.368 . S
C710 C709 1.523 . S
H711 C686 0.950 . S
H712 C688 0.950 . S
H713 C689 0.949 . S
H714 C691 0.950 . S
H715 C693 0.950 . S
C716 C717 1.349 . S
C716 C718 1.327 . S
C716 H741 0.950 . S
C717 C716 1.349 . S
C717 C733 1.349 . S
C718 C716 1.327 . S
C718 C737 1.429 . S
C718 H742 0.950 . S
C719 C736 1.574 . S
C719 C738 1.368 . S
C719 H743 0.949 . S
H720 C724 0.949 . S
C721 C722 1.349 . S
C721 C723 1.327 . S
C721 H744 0.950 . S
C722 C721 1.349 . S
C722 C734 1.349 . S
C723 C721 1.327 . S
C723 C739 1.429 . S
C723 H745 0.950 . S
C724 H720 0.949 . S
C724 C732 1.574 . S
C724 C740 1.368 . S
H725 C733 0.950 . S
H726 C731 0.950 . S
H727 C732 0.949 . S
H728 C734 0.950 . S
H729 C735 0.950 . S
H730 C736 0.949 . S
C731 H726 0.950 . S
C731 C733 1.327 . S
C731 C737 1.429 . S
C732 C724 1.574 . S
C732 H727 0.949 . S
C732 C738 1.368 . S
C733 C717 1.349 . S
C733 H725 0.950 . S
C733 C731 1.327 . S
C734 C722 1.349 . S
C734 H728 0.950 . S
C734 C735 1.327 . S
C735 H729 0.950 . S
C735 C734 1.327 . S
C735 C739 1.429 . S
C736 C719 1.574 . S
C736 H730 0.949 . S
C736 C740 1.368 . S
C737 C718 1.429 . S
C737 C731 1.429 . S
C737 C738 1.523 . S
C738 C719 1.368 . S
C738 C732 1.368 . S
C738 C737 1.523 . S
C739 C723 1.429 . S
C739 C735 1.429 . S
C739 C740 1.523 . S
C740 C724 1.368 . S
C740 C736 1.368 . S
C740 C739 1.523 . S
H741 C716 0.950 . S
H742 C718 0.950 . S
H743 C719 0.949 . S
H744 C721 0.950 . S
H745 C723 0.950 . S
C746 C747 1.349 . S
C746 C748 1.327 . S
C746 H771 0.950 . S
C747 C746 1.349 . S
C747 C763 1.349 . S
C748 C746 1.327 . S
C748 C767 1.429 . S
C748 H772 0.950 . S
C749 C766 1.574 . S
C749 C768 1.368 . S
C749 H773 0.949 . S
H750 C754 0.949 . S
C751 C752 1.349 . S
C751 C753 1.327 . S
C751 H774 0.950 . S
C752 C751 1.349 . S
C752 C764 1.349 . S
C753 C751 1.327 . S
C753 C769 1.429 . S
C753 H775 0.950 . S
C754 H750 0.949 . S
C754 C762 1.574 . S
C754 C770 1.368 . S
H755 C763 0.950 . S
H756 C761 0.950 . S
H757 C762 0.949 . S
H758 C764 0.950 . S
H759 C765 0.950 . S
H760 C766 0.949 . S
C761 H756 0.950 . S
C761 C763 1.327 . S
C761 C767 1.429 . S
C762 C754 1.574 . S
C762 H757 0.949 . S
C762 C768 1.368 . S
C763 C747 1.349 . S
C763 H755 0.950 . S
C763 C761 1.327 . S
C764 C752 1.349 . S
C764 H758 0.950 . S
C764 C765 1.327 . S
C765 H759 0.950 . S
C765 C764 1.327 . S
C765 C769 1.429 . S
C766 C749 1.574 . S
C766 H760 0.949 . S
C766 C770 1.368 . S
C767 C748 1.429 . S
C767 C761 1.429 . S
C767 C768 1.523 . S
C768 C749 1.368 . S
C768 C762 1.368 . S
C768 C767 1.523 . S
C769 C753 1.429 . S
C769 C765 1.429 . S
C769 C770 1.523 . S
C770 C754 1.368 . S
C770 C766 1.368 . S
C770 C769 1.523 . S
H771 C746 0.950 . S
H772 C748 0.950 . S
H773 C749 0.949 . S
H774 C751 0.950 . S
H775 C753 0.950 . S
C776 C777 1.349 . S
C776 C778 1.327 . S
C776 H801 0.950 . S
C777 C776 1.349 . S
C777 C793 1.349 . S
C778 C776 1.327 . S
C778 C797 1.429 . S
C778 H802 0.950 . S
C779 C796 1.574 . S
C779 C798 1.368 . S
C779 H803 0.949 . S
H780 C784 0.949 . S
C781 C782 1.349 . S
C781 C783 1.327 . S
C781 H804 0.950 . S
C782 C781 1.349 . S
C782 C794 1.349 . S
C783 C781 1.327 . S
C783 C799 1.429 . S
C783 H805 0.950 . S
C784 H780 0.949 . S
C784 C792 1.574 . S
C784 C800 1.368 . S
H785 C793 0.950 . S
H786 C791 0.950 . S
H787 C792 0.949 . S
H788 C794 0.950 . S
H789 C795 0.950 . S
H790 C796 0.949 . S
C791 H786 0.950 . S
C791 C793 1.327 . S
C791 C797 1.429 . S
C792 C784 1.574 . S
C792 H787 0.949 . S
C792 C798 1.368 . S
C793 C777 1.349 . S
C793 H785 0.950 . S
C793 C791 1.327 . S
C794 C782 1.349 . S
C794 H788 0.950 . S
C794 C795 1.327 . S
C795 H789 0.950 . S
C795 C794 1.327 . S
C795 C799 1.429 . S
C796 C779 1.574 . S
C796 H790 0.949 . S
C796 C800 1.368 . S
C797 C778 1.429 . S
C797 C791 1.429 . S
C797 C798 1.523 . S
C798 C779 1.368 . S
C798 C792 1.368 . S
C798 C797 1.523 . S
C799 C783 1.429 . S
C799 C795 1.429 . S
C799 C800 1.523 . S
C800 C784 1.368 . S
C800 C796 1.368 . S
C800 C799 1.523 . S
H801 C776 0.950 . S
H802 C778 0.950 . S
H803 C779 0.949 . S
H804 C781 0.950 . S
H805 C783 0.950 . S
C806 C807 1.349 . S
C806 C808 1.327 . S
C806 H831 0.950 . S
C807 C806 1.349 . S
C807 C823 1.349 . S
C808 C806 1.327 . S
C808 C827 1.429 . S
C808 H832 0.950 . S
C809 C826 1.574 . S
C809 C828 1.368 . S
C809 H833 0.949 . S
H810 C814 0.949 . S
C811 C812 1.349 . S
C811 C813 1.327 . S
C811 H834 0.950 . S
C812 C811 1.349 . S
C812 C824 1.349 . S
C813 C811 1.327 . S
C813 C829 1.429 . S
C813 H835 0.950 . S
C814 H810 0.949 . S
C814 C822 1.574 . S
C814 C830 1.368 . S
H815 C823 0.950 . S
H816 C821 0.950 . S
H817 C822 0.949 . S
H818 C824 0.950 . S
H819 C825 0.950 . S
H820 C826 0.949 . S
C821 H816 0.950 . S
C821 C823 1.327 . S
C821 C827 1.429 . S
C822 C814 1.574 . S
C822 H817 0.949 . S
C822 C828 1.368 . S
C823 C807 1.349 . S
C823 H815 0.950 . S
C823 C821 1.327 . S
C824 C812 1.349 . S
C824 H818 0.950 . S
C824 C825 1.327 . S
C825 H819 0.950 . S
C825 C824 1.327 . S
C825 C829 1.429 . S
C826 C809 1.574 . S
C826 H820 0.949 . S
C826 C830 1.368 . S
C827 C808 1.429 . S
C827 C821 1.429 . S
C827 C828 1.523 . S
C828 C809 1.368 . S
C828 C822 1.368 . S
C828 C827 1.523 . S
C829 C813 1.429 . S
C829 C825 1.429 . S
C829 C830 1.523 . S
C830 C814 1.368 . S
C830 C826 1.368 . S
C830 C829 1.523 . S
H831 C806 0.950 . S
H832 C808 0.950 . S
H833 C809 0.949 . S
H834 C811 0.950 . S
H835 C813 0.950 . S
C836 C837 1.349 . S
C836 C838 1.327 . S
C836 H861 0.950 . S
C837 C836 1.349 . S
C837 C853 1.349 . S
C838 C836 1.327 . S
C838 C857 1.429 . S
C838 H862 0.950 . S
C839 C856 1.574 . S
C839 C858 1.368 . S
C839 H863 0.949 . S
H840 C844 0.949 . S
C841 C842 1.349 . S
C841 C843 1.327 . S
C841 H864 0.950 . S
C842 C841 1.349 . S
C842 C854 1.349 . S
C843 C841 1.327 . S
C843 C859 1.429 . S
C843 H865 0.950 . S
C844 H840 0.949 . S
C844 C852 1.574 . S
C844 C860 1.368 . S
H845 C853 0.950 . S
H846 C851 0.950 . S
H847 C852 0.949 . S
H848 C854 0.950 . S
H849 C855 0.950 . S
H850 C856 0.949 . S
C851 H846 0.950 . S
C851 C853 1.327 . S
C851 C857 1.429 . S
C852 C844 1.574 . S
C852 H847 0.949 . S
C852 C858 1.368 . S
C853 C837 1.349 . S
C853 H845 0.950 . S
C853 C851 1.327 . S
C854 C842 1.349 . S
C854 H848 0.950 . S
C854 C855 1.327 . S
C855 H849 0.950 . S
C855 C854 1.327 . S
C855 C859 1.429 . S
C856 C839 1.574 . S
C856 H850 0.949 . S
C856 C860 1.368 . S
C857 C838 1.429 . S
C857 C851 1.429 . S
C857 C858 1.523 . S
C858 C839 1.368 . S
C858 C852 1.368 . S
C858 C857 1.523 . S
C859 C843 1.429 . S
C859 C855 1.429 . S
C859 C860 1.523 . S
C860 C844 1.368 . S
C860 C856 1.368 . S
C860 C859 1.523 . S
H861 C836 0.950 . S
H862 C838 0.950 . S
H863 C839 0.949 . S
H864 C841 0.950 . S
H865 C843 0.950 . S
C866 C867 1.349 . S
C866 C868 1.327 . S
C866 H891 0.950 . S
C867 C866 1.349 . S
C867 C883 1.349 . S
C868 C866 1.327 . S
C868 C887 1.429 . S
C868 H892 0.950 . S
C869 C886 1.574 . S
C869 C888 1.368 . S
C869 H893 0.949 . S
H870 C874 0.949 . S
C871 C872 1.348 . S
C871 C873 1.327 . S
C871 H894 0.950 . S
C872 C871 1.348 . S
C872 C884 1.348 . S
C873 C871 1.327 . S
C873 C889 1.429 . S
C873 H895 0.950 . S
C874 H870 0.949 . S
C874 C882 1.574 . S
C874 C890 1.368 . S
H875 C883 0.950 . S
H876 C881 0.950 . S
H877 C882 0.949 . S
H878 C884 0.950 . S
H879 C885 0.950 . S
H880 C886 0.949 . S
C881 H876 0.950 . S
C881 C883 1.327 . S
C881 C887 1.429 . S
C882 C874 1.574 . S
C882 H877 0.949 . S
C882 C888 1.368 . S
C883 C867 1.349 . S
C883 H875 0.950 . S
C883 C881 1.327 . S
C884 C872 1.348 . S
C884 H878 0.950 . S
C884 C885 1.327 . S
C885 H879 0.950 . S
C885 C884 1.327 . S
C885 C889 1.429 . S
C886 C869 1.574 . S
C886 H880 0.949 . S
C886 C890 1.368 . S
C887 C868 1.429 . S
C887 C881 1.429 . S
C887 C888 1.523 . S
C888 C869 1.368 . S
C888 C882 1.368 . S
C888 C887 1.523 . S
C889 C873 1.429 . S
C889 C885 1.429 . S
C889 C890 1.523 . S
C890 C874 1.368 . S
C890 C886 1.368 . S
C890 C889 1.523 . S
H891 C866 0.950 . S
H892 C868 0.950 . S
H893 C869 0.949 . S
H894 C871 0.950 . S
H895 C873 0.950 . S
C896 C897 1.349 . S
C896 C898 1.327 . S
C896 H921 0.950 . S
C897 C896 1.349 . S
C897 C913 1.349 . S
C898 C896 1.327 . S
C898 C917 1.429 . S
C898 H922 0.950 . S
C899 C916 1.574 . S
C899 C918 1.368 . S
C899 H923 0.949 . S
H900 C904 0.949 . S
C901 C902 1.349 . S
C901 C903 1.327 . S
C901 H924 0.950 . S
C902 C901 1.349 . S
C902 C914 1.349 . S
C903 C901 1.327 . S
C903 C919 1.429 . S
C903 H925 0.950 . S
C904 H900 0.949 . S
C904 C912 1.574 . S
C904 C920 1.368 . S
H905 C913 0.950 . S
H906 C911 0.950 . S
H907 C912 0.949 . S
H908 C914 0.950 . S
H909 C915 0.950 . S
H910 C916 0.949 . S
C911 H906 0.950 . S
C911 C913 1.327 . S
C911 C917 1.429 . S
C912 C904 1.574 . S
C912 H907 0.949 . S
C912 C918 1.368 . S
C913 C897 1.349 . S
C913 H905 0.950 . S
C913 C911 1.327 . S
C914 C902 1.349 . S
C914 H908 0.950 . S
C914 C915 1.327 . S
C915 H909 0.950 . S
C915 C914 1.327 . S
C915 C919 1.429 . S
C916 C899 1.574 . S
C916 H910 0.949 . S
C916 C920 1.368 . S
C917 C898 1.429 . S
C917 C911 1.429 . S
C917 C918 1.523 . S
C918 C899 1.368 . S
C918 C912 1.368 . S
C918 C917 1.523 . S
C919 C903 1.429 . S
C919 C915 1.429 . S
C919 C920 1.523 . S
C920 C904 1.368 . S
C920 C916 1.368 . S
C920 C919 1.523 . S
H921 C896 0.950 . S
H922 C898 0.950 . S
H923 C899 0.949 . S
H924 C901 0.950 . S
H925 C903 0.950 . S
C926 C927 1.349 . S
C926 C928 1.327 . S
C926 H951 0.950 . S
C927 C926 1.349 . S
C927 C943 1.349 . S
C928 C926 1.327 . S
C928 C947 1.429 . S
C928 H952 0.950 . S
C929 C946 1.574 . S
C929 C948 1.368 . S
C929 H953 0.949 . S
H930 C934 0.949 . S
C931 C932 1.349 . S
C931 C933 1.327 . S
C931 H954 0.950 . S
C932 C931 1.349 . S
C932 C944 1.349 . S
C933 C931 1.327 . S
C933 C949 1.429 . S
C933 H955 0.950 . S
C934 H930 0.949 . S
C934 C942 1.574 . S
C934 C950 1.368 . S
H935 C943 0.950 . S
H936 C941 0.950 . S
H937 C942 0.949 . S
H938 C944 0.950 . S
H939 C945 0.950 . S
H940 C946 0.949 . S
C941 H936 0.950 . S
C941 C943 1.327 . S
C941 C947 1.429 . S
C942 C934 1.574 . S
C942 H937 0.949 . S
C942 C948 1.368 . S
C943 C927 1.349 . S
C943 H935 0.950 . S
C943 C941 1.327 . S
C944 C932 1.349 . S
C944 H938 0.950 . S
C944 C945 1.327 . S
C945 H939 0.950 . S
C945 C944 1.327 . S
C945 C949 1.429 . S
C946 C929 1.574 . S
C946 H940 0.949 . S
C946 C950 1.368 . S
C947 C928 1.429 . S
C947 C941 1.429 . S
C947 C948 1.523 . S
C948 C929 1.368 . S
C948 C942 1.368 . S
C948 C947 1.523 . S
C949 C933 1.429 . S
C949 C945 1.429 . S
C949 C950 1.523 . S
C950 C934 1.368 . S
C950 C946 1.368 . S
C950 C949 1.523 . S
H951 C926 0.950 . S
H952 C928 0.950 . S
H953 C929 0.949 . S
H954 C931 0.950 . S
H955 C933 0.950 . S
C956 C957 1.349 . S
C956 C958 1.327 . S
C956 H981 0.950 . S
C957 C956 1.349 . S
C957 C973 1.349 . S
C958 C956 1.327 . S
C958 C977 1.429 . S
C958 H982 0.950 . S
C959 C976 1.574 . S
C959 C978 1.368 . S
C959 H983 0.949 . S
H960 C964 0.949 . S
C961 C962 1.349 . S
C961 C963 1.327 . S
C961 H984 0.950 . S
C962 C961 1.349 . S
C962 C974 1.349 . S
C963 C961 1.327 . S
C963 C979 1.429 . S
C963 H985 0.950 . S
C964 H960 0.949 . S
C964 C972 1.574 . S
C964 C980 1.368 . S
H965 C973 0.950 . S
H966 C971 0.950 . S
H967 C972 0.949 . S
H968 C974 0.950 . S
H969 C975 0.950 . S
H970 C976 0.949 . S
C971 H966 0.950 . S
C971 C973 1.327 . S
C971 C977 1.429 . S
C972 C964 1.574 . S
C972 H967 0.949 . S
C972 C978 1.368 . S
C973 C957 1.349 . S
C973 H965 0.950 . S
C973 C971 1.327 . S
C974 C962 1.349 . S
C974 H968 0.950 . S
C974 C975 1.327 . S
C975 H969 0.950 . S
C975 C974 1.327 . S
C975 C979 1.429 . S
C976 C959 1.574 . S
C976 H970 0.949 . S
C976 C980 1.368 . S
C977 C958 1.429 . S
C977 C971 1.429 . S
C977 C978 1.523 . S
C978 C959 1.368 . S
C978 C972 1.368 . S
C978 C977 1.523 . S
C979 C963 1.429 . S
C979 C975 1.429 . S
C979 C980 1.523 . S
C980 C964 1.368 . S
C980 C976 1.368 . S
C980 C979 1.523 . S
H981 C956 0.950 . S
H982 C958 0.950 . S
H983 C959 0.949 . S
H984 C961 0.950 . S
H985 C963 0.950 . S
C986 C987 1.349 . S
C986 C988 1.327 . S
C986 H1011 0.950 . S
C987 C986 1.349 . S
C987 C1003 1.349 . S
C988 C986 1.327 . S
C988 C1007 1.429 . S
C988 H1012 0.950 . S
C989 C1006 1.574 . S
C989 C1008 1.368 . S
C989 H1013 0.949 . S
H990 C994 0.949 . S
C991 C992 1.339 1_455 S
C991 C993 1.327 . S
C991 H1014 0.950 . S
C992 C991 1.339 1_655 S
C992 C1004 1.340 1_655 S
C993 C991 1.327 . S
C993 C1009 1.429 . S
C993 H1015 0.950 . S
C994 H990 0.949 . S
C994 C1002 1.574 . S
C994 C1010 1.368 . S
H995 C1003 0.950 . S
H996 C1001 0.950 . S
H997 C1002 0.949 . S
H998 C1004 0.950 . S
H999 C1005 0.950 . S
H1000 C1006 0.949 . S
C1001 H996 0.950 . S
C1001 C1003 1.327 . S
C1001 C1007 1.429 . S
C1002 C994 1.574 . S
C1002 H997 0.949 . S
C1002 C1008 1.368 . S
C1003 C987 1.349 . S
C1003 H995 0.950 . S
C1003 C1001 1.327 . S
C1004 C992 1.340 1_455 S
C1004 H998 0.950 . S
C1004 C1005 1.327 . S
C1005 H999 0.950 . S
C1005 C1004 1.327 . S
C1005 C1009 1.429 . S
C1006 C989 1.574 . S
C1006 H1000 0.949 . S
C1006 C1010 1.368 . S
C1007 C988 1.429 . S
C1007 C1001 1.429 . S
C1007 C1008 1.523 . S
C1008 C989 1.368 . S
C1008 C1002 1.368 . S
C1008 C1007 1.523 . S
C1009 C993 1.429 . S
C1009 C1005 1.429 . S
C1009 C1010 1.523 . S
C1010 C994 1.368 . S
C1010 C1006 1.368 . S
C1010 C1009 1.523 . S
H1011 C986 0.950 . S
H1012 C988 0.950 . S
H1013 C989 0.949 . S
H1014 C991 0.950 . S
H1015 C993 0.950 . S
C1016 C1017 1.349 . S
C1016 C1018 1.327 . S
C1016 H1041 0.950 . S
C1017 C1016 1.349 . S
C1017 C1033 1.349 . S
C1018 C1016 1.327 . S
C1018 C1037 1.429 . S
C1018 H1042 0.950 . S
C1019 C1036 1.574 . S
C1019 C1038 1.368 . S
C1019 H1043 0.949 . S
H1020 C1024 0.949 . S
C1021 C1022 1.349 . S
C1021 C1023 1.327 . S
C1021 H1044 0.950 . S
C1022 C1021 1.349 . S
C1022 C1034 1.349 . S
C1023 C1021 1.327 . S
C1023 C1039 1.429 . S
C1023 H1045 0.950 . S
C1024 H1020 0.949 . S
C1024 C1032 1.574 . S
C1024 C1040 1.368 . S
H1025 C1033 0.950 . S
H1026 C1031 0.950 . S
H1027 C1032 0.949 . S
H1028 C1034 0.950 . S
H1029 C1035 0.950 . S
H1030 C1036 0.949 . S
C1031 H1026 0.950 . S
C1031 C1033 1.327 . S
C1031 C1037 1.429 . S
C1032 C1024 1.574 . S
C1032 H1027 0.949 . S
C1032 C1038 1.368 . S
C1033 C1017 1.349 . S
C1033 H1025 0.950 . S
C1033 C1031 1.327 . S
C1034 C1022 1.349 . S
C1034 H1028 0.950 . S
C1034 C1035 1.327 . S
C1035 H1029 0.950 . S
C1035 C1034 1.327 . S
C1035 C1039 1.429 . S
C1036 C1019 1.574 . S
C1036 H1030 0.949 . S
C1036 C1040 1.368 . S
C1037 C1018 1.429 . S
C1037 C1031 1.429 . S
C1037 C1038 1.523 . S
C1038 C1019 1.368 . S
C1038 C1032 1.368 . S
C1038 C1037 1.523 . S
C1039 C1023 1.429 . S
C1039 C1035 1.429 . S
C1039 C1040 1.523 . S
C1040 C1024 1.368 . S
C1040 C1036 1.368 . S
C1040 C1039 1.523 . S
H1041 C1016 0.950 . S
H1042 C1018 0.950 . S
H1043 C1019 0.949 . S
H1044 C1021 0.950 . S
H1045 C1023 0.950 . S
C1046 C1047 1.349 . S
C1046 C1048 1.327 . S
C1046 H1071 0.950 . S
C1047 C1046 1.349 . S
C1047 C1063 1.349 . S
C1048 C1046 1.327 . S
C1048 C1067 1.429 . S
C1048 H1072 0.950 . S
C1049 C1066 1.574 . S
C1049 C1068 1.368 . S
C1049 H1073 0.949 . S
H1050 C1054 0.949 . S
C1051 C1052 1.344 1_455 S
C1051 C1053 1.327 . S
C1051 H1074 0.950 1_455 S
C1052 C1051 1.344 1_655 S
C1052 C1064 1.336 1_655 S
C1053 C1051 1.327 . S
C1053 C1069 1.429 . S
C1053 H1075 0.950 . S
C1054 H1050 0.949 . S
C1054 C1062 1.574 . S
C1054 C1070 1.368 . S
H1055 C1063 0.950 . S
H1056 C1061 0.950 . S
H1057 C1062 0.949 . S
H1058 C1064 0.950 . S
H1059 C1065 0.950 . S
H1060 C1066 0.949 . S
C1061 H1056 0.950 . S
C1061 C1063 1.327 . S
C1061 C1067 1.429 . S
C1062 C1054 1.574 . S
C1062 H1057 0.949 . S
C1062 C1068 1.368 . S
C1063 C1047 1.349 . S
C1063 H1055 0.950 . S
C1063 C1061 1.327 . S
C1064 C1052 1.336 1_455 S
C1064 H1058 0.950 . S
C1064 C1065 1.327 . S
C1065 H1059 0.950 . S
C1065 C1064 1.327 . S
C1065 C1069 1.429 . S
C1066 C1049 1.574 . S
C1066 H1060 0.949 . S
C1066 C1070 1.368 . S
C1067 C1048 1.429 . S
C1067 C1061 1.429 . S
C1067 C1068 1.523 . S
C1068 C1049 1.368 . S
C1068 C1062 1.368 . S
C1068 C1067 1.523 . S
C1069 C1053 1.429 . S
C1069 C1065 1.429 . S
C1069 C1070 1.523 . S
C1070 C1054 1.368 . S
C1070 C1066 1.368 . S
C1070 C1069 1.523 . S
H1071 C1046 0.950 . S
H1072 C1048 0.950 . S
H1073 C1049 0.949 . S
H1074 C1051 0.950 1_655 S
H1075 C1053 0.950 . S
C1076 C1077 1.349 . S
C1076 C1078 1.327 . S
C1076 H1101 0.950 . S
C1077 C1076 1.349 . S
C1077 C1093 1.349 . S
C1078 C1076 1.327 . S
C1078 C1097 1.429 . S
C1078 H1102 0.950 . S
C1079 C1096 1.574 . S
C1079 C1098 1.368 . S
C1079 H1103 0.949 . S
H1080 C1084 0.949 . S
C1081 C1082 1.349 . S
C1081 C1083 1.327 . S
C1081 H1104 0.950 . S
C1082 C1081 1.349 . S
C1082 C1094 1.349 . S
C1083 C1081 1.327 . S
C1083 C1099 1.429 . S
C1083 H1105 0.950 . S
C1084 H1080 0.949 . S
C1084 C1092 1.574 . S
C1084 C1100 1.368 . S
H1085 C1093 0.950 . S
H1086 C1091 0.950 . S
H1087 C1092 0.949 . S
H1088 C1094 0.950 . S
H1089 C1095 0.950 . S
H1090 C1096 0.949 . S
C1091 H1086 0.950 . S
C1091 C1093 1.327 . S
C1091 C1097 1.429 . S
C1092 C1084 1.574 . S
C1092 H1087 0.949 . S
C1092 C1098 1.368 . S
C1093 C1077 1.349 . S
C1093 H1085 0.950 . S
C1093 C1091 1.327 . S
C1094 C1082 1.349 . S
C1094 H1088 0.950 . S
C1094 C1095 1.327 . S
C1095 H1089 0.950 . S
C1095 C1094 1.327 . S
C1095 C1099 1.429 . S
C1096 C1079 1.574 . S
C1096 H1090 0.949 . S
C1096 C1100 1.368 . S
C1097 C1078 1.429 . S
C1097 C1091 1.429 . S
C1097 C1098 1.523 . S
C1098 C1079 1.368 . S
C1098 C1092 1.368 . S
C1098 C1097 1.523 . S
C1099 C1083 1.429 . S
C1099 C1095 1.429 . S
C1099 C1100 1.523 . S
C1100 C1084 1.368 . S
C1100 C1096 1.368 . S
C1100 C1099 1.523 . S
H1101 C1076 0.950 . S
H1102 C1078 0.950 . S
H1103 C1079 0.949 . S
H1104 C1081 0.950 . S
H1105 C1083 0.950 . S
C1106 C1107 1.349 . S
C1106 C1108 1.327 . S
C1106 H1131 0.950 . S
C1107 C1106 1.349 . S
C1107 C1123 1.349 . S
C1108 C1106 1.327 . S
C1108 C1127 1.429 . S
C1108 H1132 0.950 . S
C1109 C1126 1.574 . S
C1109 C1128 1.368 . S
C1109 H1133 0.949 . S
H1110 C1114 0.949 . S
C1111 C1112 1.349 . S
C1111 C1113 1.327 . S
C1111 H1134 0.950 . S
C1112 C1111 1.349 . S
C1112 C1124 1.349 . S
C1113 C1111 1.327 . S
C1113 C1129 1.429 . S
C1113 H1135 0.950 . S
C1114 H1110 0.949 . S
C1114 C1122 1.574 . S
C1114 C1130 1.368 . S
H1115 C1123 0.950 . S
H1116 C1121 0.950 . S
H1117 C1122 0.949 . S
H1118 C1124 0.950 . S
H1119 C1125 0.950 . S
H1120 C1126 0.949 . S
C1121 H1116 0.950 . S
C1121 C1123 1.327 . S
C1121 C1127 1.429 . S
C1122 C1114 1.574 . S
C1122 H1117 0.949 . S
C1122 C1128 1.368 . S
C1123 C1107 1.349 . S
C1123 H1115 0.950 . S
C1123 C1121 1.327 . S
C1124 C1112 1.349 . S
C1124 H1118 0.950 . S
C1124 C1125 1.327 . S
C1125 H1119 0.950 . S
C1125 C1124 1.327 . S
C1125 C1129 1.429 . S
C1126 C1109 1.574 . S
C1126 H1120 0.949 . S
C1126 C1130 1.368 . S
C1127 C1108 1.429 . S
C1127 C1121 1.429 . S
C1127 C1128 1.523 . S
C1128 C1109 1.368 . S
C1128 C1122 1.368 . S
C1128 C1127 1.523 . S
C1129 C1113 1.429 . S
C1129 C1125 1.429 . S
C1129 C1130 1.523 . S
C1130 C1114 1.368 . S
C1130 C1126 1.368 . S
C1130 C1129 1.523 . S
H1131 C1106 0.950 . S
H1132 C1108 0.950 . S
H1133 C1109 0.949 . S
H1134 C1111 0.950 . S
H1135 C1113 0.950 . S
C1136 C1137 1.349 . S
C1136 C1138 1.327 . S
C1136 H1161 0.950 . S
C1137 C1136 1.349 . S
C1137 C1153 1.349 . S
C1138 C1136 1.327 . S
C1138 C1157 1.429 . S
C1138 H1162 0.950 . S
C1139 C1156 1.574 . S
C1139 C1158 1.368 . S
C1139 H1163 0.949 . S
H1140 C1144 0.949 . S
C1141 C1142 1.349 . S
C1141 C1143 1.327 . S
C1141 H1164 0.950 . S
C1142 C1141 1.349 . S
C1142 C1154 1.349 . S
C1143 C1141 1.327 . S
C1143 C1159 1.429 . S
C1143 H1165 0.950 . S
C1144 H1140 0.949 . S
C1144 C1152 1.574 . S
C1144 C1160 1.368 . S
H1145 C1153 0.950 . S
H1146 C1151 0.950 . S
H1147 C1152 0.949 . S
H1148 C1154 0.950 . S
H1149 C1155 0.950 . S
H1150 C1156 0.949 . S
C1151 H1146 0.950 . S
C1151 C1153 1.327 . S
C1151 C1157 1.429 . S
C1152 C1144 1.574 . S
C1152 H1147 0.949 . S
C1152 C1158 1.368 . S
C1153 C1137 1.349 . S
C1153 H1145 0.950 . S
C1153 C1151 1.327 . S
C1154 C1142 1.349 . S
C1154 H1148 0.950 . S
C1154 C1155 1.327 . S
C1155 H1149 0.950 . S
C1155 C1154 1.327 . S
C1155 C1159 1.429 . S
C1156 C1139 1.574 . S
C1156 H1150 0.949 . S
C1156 C1160 1.368 . S
C1157 C1138 1.429 . S
C1157 C1151 1.429 . S
C1157 C1158 1.523 . S
C1158 C1139 1.368 . S
C1158 C1152 1.368 . S
C1158 C1157 1.523 . S
C1159 C1143 1.429 . S
C1159 C1155 1.429 . S
C1159 C1160 1.523 . S
C1160 C1144 1.368 . S
C1160 C1156 1.368 . S
C1160 C1159 1.523 . S
H1161 C1136 0.950 . S
H1162 C1138 0.950 . S
H1163 C1139 0.949 . S
H1164 C1141 0.950 . S
H1165 C1143 0.950 . S
C1166 C1167 1.349 . S
C1166 C1168 1.327 . S
C1166 H1191 0.950 . S
C1167 C1166 1.349 . S
C1167 C1183 1.349 . S
C1168 C1166 1.327 . S
C1168 C1187 1.429 . S
C1168 H1192 0.950 . S
C1169 C1186 1.574 . S
C1169 C1188 1.368 . S
C1169 H1193 0.949 . S
H1170 C1174 0.949 . S
C1171 C1172 1.349 . S
C1171 C1173 1.327 . S
C1171 H1194 0.950 . S
C1172 C1171 1.349 . S
C1172 C1184 1.349 . S
C1173 C1171 1.327 . S
C1173 C1189 1.429 . S
C1173 H1195 0.950 . S
C1174 H1170 0.949 . S
C1174 C1182 1.574 . S
C1174 C1190 1.368 . S
H1175 C1183 0.950 . S
H1176 C1181 0.950 . S
H1177 C1182 0.949 . S
H1178 C1184 0.950 . S
H1179 C1185 0.950 . S
H1180 C1186 0.949 . S
C1181 H1176 0.950 . S
C1181 C1183 1.327 . S
C1181 C1187 1.429 . S
C1182 C1174 1.574 . S
C1182 H1177 0.949 . S
C1182 C1188 1.368 . S
C1183 C1167 1.349 . S
C1183 H1175 0.950 . S
C1183 C1181 1.327 . S
C1184 C1172 1.349 . S
C1184 H1178 0.950 . S
C1184 C1185 1.327 . S
C1185 H1179 0.950 . S
C1185 C1184 1.327 . S
C1185 C1189 1.429 . S
C1186 C1169 1.574 . S
C1186 H1180 0.949 . S
C1186 C1190 1.368 . S
C1187 C1168 1.429 . S
C1187 C1181 1.429 . S
C1187 C1188 1.523 . S
C1188 C1169 1.368 . S
C1188 C1182 1.368 . S
C1188 C1187 1.523 . S
C1189 C1173 1.429 . S
C1189 C1185 1.429 . S
C1189 C1190 1.523 . S
C1190 C1174 1.368 . S
C1190 C1186 1.368 . S
C1190 C1189 1.523 . S
H1191 C1166 0.950 . S
H1192 C1168 0.950 . S
H1193 C1169 0.949 . S
H1194 C1171 0.950 . S
H1195 C1173 0.950 . S
C1196 C1197 1.349 . S
C1196 C1198 1.327 . S
C1196 H1221 0.950 . S
C1197 C1196 1.349 . S
C1197 C1213 1.349 . S
C1198 C1196 1.327 . S
C1198 C1217 1.429 . S
C1198 H1222 0.950 . S
C1199 C1216 1.574 . S
C1199 C1218 1.368 . S
C1199 H1223 0.949 . S
H1200 C1204 0.949 . S
C1201 C1202 1.349 . S
C1201 C1203 1.327 . S
C1201 H1224 0.950 . S
C1202 C1201 1.349 . S
C1202 C1214 1.349 . S
C1203 C1201 1.327 . S
C1203 C1219 1.429 . S
C1203 H1225 0.950 . S
C1204 H1200 0.949 . S
C1204 C1212 1.574 . S
C1204 C1220 1.368 . S
H1205 C1213 0.950 . S
H1206 C1211 0.950 . S
H1207 C1212 0.949 . S
H1208 C1214 0.950 . S
H1209 C1215 0.950 . S
H1210 C1216 0.949 . S
C1211 H1206 0.950 . S
C1211 C1213 1.327 . S
C1211 C1217 1.429 . S
C1212 C1204 1.574 . S
C1212 H1207 0.949 . S
C1212 C1218 1.368 . S
C1213 C1197 1.349 . S
C1213 H1205 0.950 . S
C1213 C1211 1.327 . S
C1214 C1202 1.349 . S
C1214 H1208 0.950 . S
C1214 C1215 1.327 . S
C1215 H1209 0.950 . S
C1215 C1214 1.327 . S
C1215 C1219 1.429 . S
C1216 C1199 1.574 . S
C1216 H1210 0.949 . S
C1216 C1220 1.368 . S
C1217 C1198 1.429 . S
C1217 C1211 1.429 . S
C1217 C1218 1.523 . S
C1218 C1199 1.368 . S
C1218 C1212 1.368 . S
C1218 C1217 1.523 . S
C1219 C1203 1.429 . S
C1219 C1215 1.429 . S
C1219 C1220 1.523 . S
C1220 C1204 1.368 . S
C1220 C1216 1.368 . S
C1220 C1219 1.523 . S
H1221 C1196 0.950 . S
H1222 C1198 0.950 . S
H1223 C1199 0.949 . S
H1224 C1201 0.950 . S
H1225 C1203 0.950 . S
C1226 C1227 1.349 . S
C1226 C1228 1.327 . S
C1226 H1251 0.950 1_655 S
C1227 C1226 1.349 . S
C1227 C1243 1.348 . S
C1228 C1226 1.327 . S
C1228 C1247 1.429 . S
C1228 H1252 0.950 . S
C1229 C1246 1.574 . S
C1229 C1248 1.368 . S
C1229 H1253 0.949 . S
H1230 C1234 0.949 . S
C1231 C1232 1.349 . S
C1231 C1233 1.327 . S
C1231 H1254 0.950 . S
C1232 C1231 1.349 . S
C1232 C1244 1.349 . S
C1233 C1231 1.327 . S
C1233 C1249 1.429 . S
C1233 H1255 0.950 . S
C1234 H1230 0.949 . S
C1234 C1242 1.574 . S
C1234 C1250 1.368 . S
H1235 C1243 0.950 . S
H1236 C1241 0.950 . S
H1237 C1242 0.949 . S
H1238 C1244 0.950 . S
H1239 C1245 0.950 . S
H1240 C1246 0.949 . S
C1241 H1236 0.950 . S
C1241 C1243 1.327 . S
C1241 C1247 1.429 . S
C1242 C1234 1.574 . S
C1242 H1237 0.949 . S
C1242 C1248 1.368 . S
C1243 C1227 1.348 . S
C1243 H1235 0.950 . S
C1243 C1241 1.327 . S
C1244 C1232 1.349 . S
C1244 H1238 0.950 . S
C1244 C1245 1.327 . S
C1245 H1239 0.950 . S
C1245 C1244 1.327 . S
C1245 C1249 1.429 . S
C1246 C1229 1.574 . S
C1246 H1240 0.949 . S
C1246 C1250 1.368 . S
C1247 C1228 1.429 . S
C1247 C1241 1.429 . S
C1247 C1248 1.523 . S
C1248 C1229 1.368 . S
C1248 C1242 1.368 . S
C1248 C1247 1.523 . S
C1249 C1233 1.429 . S
C1249 C1245 1.429 . S
C1249 C1250 1.523 . S
C1250 C1234 1.368 . S
C1250 C1246 1.368 . S
C1250 C1249 1.523 . S
H1251 C1226 0.950 1_455 S
H1252 C1228 0.950 . S
H1253 C1229 0.949 . S
H1254 C1231 0.950 . S
H1255 C1233 0.950 . S
C1256 C1257 1.349 . S
C1256 C1258 1.327 . S
C1256 H1281 0.950 . S
C1257 C1256 1.349 . S
C1257 C1273 1.349 . S
C1258 C1256 1.327 . S
C1258 C1277 1.429 . S
C1258 H1282 0.950 . S
C1259 C1276 1.574 . S
C1259 C1278 1.368 . S
C1259 H1283 0.949 . S
H1260 C1264 0.949 . S
C1261 C1262 1.349 . S
C1261 C1263 1.327 . S
C1261 H1284 0.950 . S
C1262 C1261 1.349 . S
C1262 C1274 1.349 . S
C1263 C1261 1.327 . S
C1263 C1279 1.429 . S
C1263 H1285 0.950 . S
C1264 H1260 0.949 . S
C1264 C1272 1.574 . S
C1264 C1280 1.368 . S
H1265 C1273 0.950 . S
H1266 C1271 0.950 . S
H1267 C1272 0.949 . S
H1268 C1274 0.950 . S
H1269 C1275 0.950 . S
H1270 C1276 0.949 . S
C1271 H1266 0.950 . S
C1271 C1273 1.327 . S
C1271 C1277 1.429 . S
C1272 C1264 1.574 . S
C1272 H1267 0.949 . S
C1272 C1278 1.368 . S
C1273 C1257 1.349 . S
C1273 H1265 0.950 . S
C1273 C1271 1.327 . S
C1274 C1262 1.349 . S
C1274 H1268 0.950 . S
C1274 C1275 1.327 . S
C1275 H1269 0.950 . S
C1275 C1274 1.327 . S
C1275 C1279 1.429 . S
C1276 C1259 1.574 . S
C1276 H1270 0.949 . S
C1276 C1280 1.368 . S
C1277 C1258 1.429 . S
C1277 C1271 1.429 . S
C1277 C1278 1.523 . S
C1278 C1259 1.368 . S
C1278 C1272 1.368 . S
C1278 C1277 1.523 . S
C1279 C1263 1.429 . S
C1279 C1275 1.429 . S
C1279 C1280 1.523 . S
C1280 C1264 1.368 . S
C1280 C1276 1.368 . S
C1280 C1279 1.523 . S
H1281 C1256 0.950 . S
H1282 C1258 0.950 . S
H1283 C1259 0.949 . S
H1284 C1261 0.950 . S
H1285 C1263 0.950 . S
C1286 C1287 1.348 1_455 S
C1286 C1288 1.300 1_455 S
C1286 H1311 0.979 . S
C1287 C1286 1.348 1_655 S
C1287 C1303 1.348 . S
C1288 C1286 1.300 1_655 S
C1288 C1307 1.429 . S
C1288 H1312 0.950 . S
C1289 C1306 1.574 . S
C1289 C1308 1.368 . S
C1289 H1313 0.949 . S
H1290 C1294 0.949 . S
C1291 C1292 1.349 . S
C1291 C1293 1.327 . S
C1291 H1314 0.950 . S
C1292 C1291 1.349 . S
C1292 C1304 1.349 . S
C1293 C1291 1.327 . S
C1293 C1309 1.429 . S
C1293 H1315 0.950 . S
C1294 H1290 0.949 . S
C1294 C1302 1.574 . S
C1294 C1310 1.368 . S
H1295 C1303 0.950 . S
H1296 C1301 0.950 . S
H1297 C1302 0.949 . S
H1298 C1304 0.950 . S
H1299 C1305 0.950 . S
H1300 C1306 0.949 . S
C1301 H1296 0.950 . S
C1301 C1303 1.327 . S
C1301 C1307 1.429 . S
C1302 C1294 1.574 . S
C1302 H1297 0.949 . S
C1302 C1308 1.368 . S
C1303 C1287 1.348 . S
C1303 H1295 0.950 . S
C1303 C1301 1.327 . S
C1304 C1292 1.349 . S
C1304 H1298 0.950 . S
C1304 C1305 1.327 . S
C1305 H1299 0.950 . S
C1305 C1304 1.327 . S
C1305 C1309 1.429 . S
C1306 C1289 1.574 . S
C1306 H1300 0.949 . S
C1306 C1310 1.368 . S
C1307 C1288 1.429 . S
C1307 C1301 1.429 . S
C1307 C1308 1.523 . S
C1308 C1289 1.368 . S
C1308 C1302 1.368 . S
C1308 C1307 1.523 . S
C1309 C1293 1.429 . S
C1309 C1305 1.429 . S
C1309 C1310 1.523 . S
C1310 C1294 1.368 . S
C1310 C1306 1.368 . S
C1310 C1309 1.523 . S
H1311 C1286 0.979 . S
H1312 C1288 0.950 . S
H1313 C1289 0.949 . S
H1314 C1291 0.950 . S
H1315 C1293 0.950 . S
C1316 C1317 1.349 . S
C1316 C1318 1.327 . S
C1316 H1341 0.950 . S
C1317 C1316 1.349 . S
C1317 C1333 1.349 . S
C1318 C1316 1.327 . S
C1318 C1337 1.429 . S
C1318 H1342 0.950 . S
C1319 C1336 1.574 . S
C1319 C1338 1.368 . S
C1319 H1343 0.949 . S
H1320 C1324 0.949 . S
C1321 C1322 1.349 . S
C1321 C1323 1.327 . S
C1321 H1344 0.950 . S
C1322 C1321 1.349 . S
C1322 C1334 1.349 . S
C1323 C1321 1.327 . S
C1323 C1339 1.429 . S
C1323 H1345 0.950 . S
C1324 H1320 0.949 . S
C1324 C1332 1.574 . S
C1324 C1340 1.368 . S
H1325 C1333 0.950 . S
H1326 C1331 0.950 . S
H1327 C1332 0.949 . S
H1328 C1334 0.950 . S
H1329 C1335 0.950 . S
H1330 C1336 0.949 . S
C1331 H1326 0.950 . S
C1331 C1333 1.327 . S
C1331 C1337 1.429 . S
C1332 C1324 1.574 . S
C1332 H1327 0.949 . S
C1332 C1338 1.368 . S
C1333 C1317 1.349 . S
C1333 H1325 0.950 . S
C1333 C1331 1.327 . S
C1334 C1322 1.349 . S
C1334 H1328 0.950 . S
C1334 C1335 1.327 . S
C1335 H1329 0.950 . S
C1335 C1334 1.327 . S
C1335 C1339 1.429 . S
C1336 C1319 1.574 . S
C1336 H1330 0.949 . S
C1336 C1340 1.368 . S
C1337 C1318 1.429 . S
C1337 C1331 1.429 . S
C1337 C1338 1.523 . S
C1338 C1319 1.368 . S
C1338 C1332 1.368 . S
C1338 C1337 1.523 . S
C1339 C1323 1.429 . S
C1339 C1335 1.429 . S
C1339 C1340 1.523 . S
C1340 C1324 1.368 . S
C1340 C1336 1.368 . S
C1340 C1339 1.523 . S
H1341 C1316 0.950 . S
H1342 C1318 0.950 . S
H1343 C1319 0.949 . S
H1344 C1321 0.950 . S
H1345 C1323 0.950 . S
C1346 C1347 1.349 . S
C1346 C1348 1.327 . S
C1346 H1371 0.950 . S
C1347 C1346 1.349 . S
C1347 C1363 1.349 . S
C1348 C1346 1.327 . S
C1348 C1367 1.429 . S
C1348 H1372 0.950 . S
C1349 C1366 1.574 . S
C1349 C1368 1.368 . S
C1349 H1373 0.949 . S
H1350 C1354 0.949 . S
C1351 C1352 1.349 . S
C1351 C1353 1.327 . S
C1351 H1374 0.950 . S
C1352 C1351 1.349 . S
C1352 C1364 1.349 . S
C1353 C1351 1.327 . S
C1353 C1369 1.429 . S
C1353 H1375 0.950 . S
C1354 H1350 0.949 . S
C1354 C1362 1.574 . S
C1354 C1370 1.368 . S
H1355 C1363 0.950 . S
H1356 C1361 0.950 . S
H1357 C1362 0.949 . S
H1358 C1364 0.950 . S
H1359 C1365 0.950 . S
H1360 C1366 0.949 . S
C1361 H1356 0.950 . S
C1361 C1363 1.327 . S
C1361 C1367 1.429 . S
C1362 C1354 1.574 . S
C1362 H1357 0.949 . S
C1362 C1368 1.368 . S
C1363 C1347 1.349 . S
C1363 H1355 0.950 . S
C1363 C1361 1.327 . S
C1364 C1352 1.349 . S
C1364 H1358 0.950 . S
C1364 C1365 1.327 . S
C1365 H1359 0.950 . S
C1365 C1364 1.327 . S
C1365 C1369 1.429 . S
C1366 C1349 1.574 . S
C1366 H1360 0.949 . S
C1366 C1370 1.368 . S
C1367 C1348 1.429 . S
C1367 C1361 1.429 . S
C1367 C1368 1.523 . S
C1368 C1349 1.368 . S
C1368 C1362 1.368 . S
C1368 C1367 1.523 . S
C1369 C1353 1.429 . S
C1369 C1365 1.429 . S
C1369 C1370 1.523 . S
C1370 C1354 1.368 . S
C1370 C1366 1.368 . S
C1370 C1369 1.523 . S
H1371 C1346 0.950 . S
H1372 C1348 0.950 . S
H1373 C1349 0.949 . S
H1374 C1351 0.950 . S
H1375 C1353 0.950 . S
C1376 C1377 1.349 . S
C1376 C1378 1.327 . S
C1376 H1401 0.950 . S
C1377 C1376 1.349 . S
C1377 C1393 1.349 . S
C1378 C1376 1.327 . S
C1378 C1397 1.429 . S
C1378 H1402 0.950 . S
C1379 C1396 1.574 . S
C1379 C1398 1.368 . S
C1379 H1403 0.949 . S
H1380 C1384 0.949 . S
C1381 C1382 1.349 . S
C1381 C1383 1.327 . S
C1381 H1404 0.950 . S
C1382 C1381 1.349 . S
C1382 C1394 1.349 . S
C1383 C1381 1.327 . S
C1383 C1399 1.429 . S
C1383 H1405 0.950 . S
C1384 H1380 0.949 . S
C1384 C1392 1.574 . S
C1384 C1400 1.368 . S
H1385 C1393 0.950 . S
H1386 C1391 0.950 . S
H1387 C1392 0.949 . S
H1388 C1394 0.950 . S
H1389 C1395 0.950 . S
H1390 C1396 0.949 . S
C1391 H1386 0.950 . S
C1391 C1393 1.327 . S
C1391 C1397 1.429 . S
C1392 C1384 1.574 . S
C1392 H1387 0.949 . S
C1392 C1398 1.368 . S
C1393 C1377 1.349 . S
C1393 H1385 0.950 . S
C1393 C1391 1.327 . S
C1394 C1382 1.349 . S
C1394 H1388 0.950 . S
C1394 C1395 1.327 . S
C1395 H1389 0.950 . S
C1395 C1394 1.327 . S
C1395 C1399 1.429 . S
C1396 C1379 1.574 . S
C1396 H1390 0.949 . S
C1396 C1400 1.368 . S
C1397 C1378 1.429 . S
C1397 C1391 1.429 . S
C1397 C1398 1.523 . S
C1398 C1379 1.368 . S
C1398 C1392 1.368 . S
C1398 C1397 1.523 . S
C1399 C1383 1.429 . S
C1399 C1395 1.429 . S
C1399 C1400 1.523 . S
C1400 C1384 1.368 . S
C1400 C1396 1.368 . S
C1400 C1399 1.523 . S
H1401 C1376 0.950 . S
H1402 C1378 0.950 . S
H1403 C1379 0.949 . S
H1404 C1381 0.950 . S
H1405 C1383 0.950 . S
C1406 C1407 1.349 1_545 S
C1406 C1408 1.327 . S
C1406 H1431 0.950 . S
C1407 C1406 1.349 1_565 S
C1407 C1423 1.349 . S
C1408 C1406 1.327 . S
C1408 C1427 1.429 1_545 S
C1408 H1432 0.950 . S
C1409 C1426 1.574 . S
C1409 C1428 1.368 1_655 S
C1409 H1433 0.949 . S
H1410 C1414 0.949 . S
C1411 C1412 1.349 1_565 S
C1411 C1413 1.327 . S
C1411 H1434 0.950 . S
C1412 C1411 1.349 1_545 S
C1412 C1424 1.349 . S
C1413 C1411 1.327 . S
C1413 C1429 1.429 1_565 S
C1413 H1435 0.950 . S
C1414 H1410 0.949 . S
C1414 C1422 1.574 . S
C1414 C1430 1.368 1_455 S
H1415 C1423 0.950 . S
H1416 C1421 0.950 . S
H1417 C1422 0.949 . S
H1418 C1424 0.950 . S
H1419 C1425 0.950 . S
H1420 C1426 0.949 . S
C1421 H1416 0.950 . S
C1421 C1423 1.327 . S
C1421 C1427 1.429 . S
C1422 C1414 1.574 . S
C1422 H1417 0.949 . S
C1422 C1428 1.368 1_545 S
C1423 C1407 1.349 . S
C1423 H1415 0.950 . S
C1423 C1421 1.327 . S
C1424 C1412 1.349 . S
C1424 H1418 0.950 . S
C1424 C1425 1.327 . S
C1425 H1419 0.950 . S
C1425 C1424 1.327 . S
C1425 C1429 1.429 . S
C1426 C1409 1.574 . S
C1426 H1420 0.949 . S
C1426 C1430 1.368 1_565 S
C1427 C1408 1.429 1_565 S
C1427 C1421 1.429 . S
C1427 C1428 1.523 . S
C1428 C1409 1.368 1_455 S
C1428 C1422 1.368 1_565 S
C1428 C1427 1.523 . S
C1429 C1413 1.429 1_545 S
C1429 C1425 1.429 . S
C1429 C1430 1.523 . S
C1430 C1414 1.368 1_655 S
C1430 C1426 1.368 1_545 S
C1430 C1429 1.523 . S
H1431 C1406 0.950 . S
H1432 C1408 0.950 . S
H1433 C1409 0.949 . S
H1434 C1411 0.950 . S
H1435 C1413 0.950 . S
C1436 C1437 1.349 . S
C1436 C1438 1.327 . S
C1436 H1461 0.950 . S
C1437 C1436 1.349 . S
C1437 C1453 1.349 . S
C1438 C1436 1.327 . S
C1438 C1457 1.429 . S
C1438 H1462 0.950 . S
C1439 C1456 1.574 . S
C1439 C1458 1.368 . S
C1439 H1463 0.949 . S
H1440 C1444 0.949 . S
C1441 C1442 1.349 . S
C1441 C1443 1.327 . S
C1441 H1464 0.950 . S
C1442 C1441 1.349 . S
C1442 C1454 1.349 . S
C1443 C1441 1.327 . S
C1443 C1459 1.429 . S
C1443 H1465 0.950 . S
C1444 H1440 0.949 . S
C1444 C1452 1.574 . S
C1444 C1460 1.368 . S
H1445 C1453 0.950 . S
H1446 C1451 0.950 . S
H1447 C1452 0.949 . S
H1448 C1454 0.950 . S
H1449 C1455 0.950 . S
H1450 C1456 0.949 . S
C1451 H1446 0.950 . S
C1451 C1453 1.327 . S
C1451 C1457 1.429 . S
C1452 C1444 1.574 . S
C1452 H1447 0.949 . S
C1452 C1458 1.368 . S
C1453 C1437 1.349 . S
C1453 H1445 0.950 . S
C1453 C1451 1.327 . S
C1454 C1442 1.349 . S
C1454 H1448 0.950 . S
C1454 C1455 1.327 . S
C1455 H1449 0.950 . S
C1455 C1454 1.327 . S
C1455 C1459 1.429 . S
C1456 C1439 1.574 . S
C1456 H1450 0.949 . S
C1456 C1460 1.368 . S
C1457 C1438 1.429 . S
C1457 C1451 1.429 . S
C1457 C1458 1.523 . S
C1458 C1439 1.368 . S
C1458 C1452 1.368 . S
C1458 C1457 1.523 . S
C1459 C1443 1.429 . S
C1459 C1455 1.429 . S
C1459 C1460 1.523 . S
C1460 C1444 1.368 . S
C1460 C1456 1.368 . S
C1460 C1459 1.523 . S
H1461 C1436 0.950 . S
H1462 C1438 0.950 . S
H1463 C1439 0.949 . S
H1464 C1441 0.950 . S
H1465 C1443 0.950 . S
C1466 C1467 1.349 . S
C1466 C1468 1.327 1_545 S
C1466 H1491 0.950 1_545 S
C1467 C1466 1.349 . S
C1467 C1483 1.349 . S
C1468 C1466 1.327 1_565 S
C1468 C1487 1.429 1_565 S
C1468 H1492 0.950 . S
C1469 C1486 1.574 1_554 S
C1469 C1488 1.368 . S
C1469 H1493 0.949 . S
H1470 C1474 0.949 . S
C1471 C1472 1.349 . S
C1471 C1473 1.327 1_565 S
C1471 H1494 0.950 1_565 S
C1472 C1471 1.349 . S
C1472 C1484 1.349 . S
C1473 C1471 1.327 1_545 S
C1473 C1489 1.429 1_545 S
C1473 H1495 0.950 . S
C1474 H1470 0.949 . S
C1474 C1482 1.574 1_556 S
C1474 C1490 1.368 . S
H1475 C1483 0.950 . S
H1476 C1481 0.950 . S
H1477 C1482 0.949 . S
H1478 C1484 0.950 . S
H1479 C1485 0.950 . S
H1480 C1486 0.949 . S
C1481 H1476 0.950 . S
C1481 C1483 1.327 . S
C1481 C1487 1.429 . S
C1482 C1474 1.574 1_554 S
C1482 H1477 0.949 . S
C1482 C1488 1.368 1_565 S
C1483 C1467 1.349 . S
C1483 H1475 0.950 . S
C1483 C1481 1.327 . S
C1484 C1472 1.349 . S
C1484 H1478 0.950 . S
C1484 C1485 1.327 . S
C1485 H1479 0.950 . S
C1485 C1484 1.327 . S
C1485 C1489 1.429 . S
C1486 C1469 1.574 1_556 S
C1486 H1480 0.949 . S
C1486 C1490 1.368 1_545 S
C1487 C1468 1.429 1_545 S
C1487 C1481 1.429 . S
C1487 C1488 1.523 . S
C1488 C1469 1.368 . S
C1488 C1482 1.368 1_545 S
C1488 C1487 1.523 . S
C1489 C1473 1.429 1_565 S
C1489 C1485 1.429 . S
C1489 C1490 1.523 . S
C1490 C1474 1.368 . S
C1490 C1486 1.368 1_565 S
C1490 C1489 1.523 . S
H1491 C1466 0.950 1_565 S
H1492 C1468 0.950 . S
H1493 C1469 0.949 . S
H1494 C1471 0.950 1_545 S
H1495 C1473 0.950 . S
C1496 C1497 1.349 . S
C1496 C1498 1.327 . S
C1496 H1521 0.950 . S
C1497 C1496 1.349 . S
C1497 C1513 1.349 . S
C1498 C1496 1.327 . S
C1498 C1517 1.429 . S
C1498 H1522 0.950 . S
C1499 C1516 1.574 . S
C1499 C1518 1.368 . S
C1499 H1523 0.949 . S
H1500 C1504 0.949 . S
C1501 C1502 1.349 . S
C1501 C1503 1.327 . S
C1501 H1524 0.950 . S
C1502 C1501 1.349 . S
C1502 C1514 1.349 . S
C1503 C1501 1.327 . S
C1503 C1519 1.429 . S
C1503 H1525 0.950 . S
C1504 H1500 0.949 . S
C1504 C1512 1.574 . S
C1504 C1520 1.368 . S
H1505 C1513 0.950 . S
H1506 C1511 0.950 . S
H1507 C1512 0.949 . S
H1508 C1514 0.950 . S
H1509 C1515 0.950 . S
H1510 C1516 0.949 . S
C1511 H1506 0.950 . S
C1511 C1513 1.327 . S
C1511 C1517 1.429 . S
C1512 C1504 1.574 . S
C1512 H1507 0.949 . S
C1512 C1518 1.368 . S
C1513 C1497 1.349 . S
C1513 H1505 0.950 . S
C1513 C1511 1.327 . S
C1514 C1502 1.349 . S
C1514 H1508 0.950 . S
C1514 C1515 1.327 . S
C1515 H1509 0.950 . S
C1515 C1514 1.327 . S
C1515 C1519 1.429 . S
C1516 C1499 1.574 . S
C1516 H1510 0.949 . S
C1516 C1520 1.368 . S
C1517 C1498 1.429 . S
C1517 C1511 1.429 . S
C1517 C1518 1.523 . S
C1518 C1499 1.368 . S
C1518 C1512 1.368 . S
C1518 C1517 1.523 . S
C1519 C1503 1.429 . S
C1519 C1515 1.429 . S
C1519 C1520 1.523 . S
C1520 C1504 1.368 . S
C1520 C1516 1.368 . S
C1520 C1519 1.523 . S
H1521 C1496 0.950 . S
H1522 C1498 0.950 . S
H1523 C1499 0.949 . S
H1524 C1501 0.950 . S
H1525 C1503 0.950 . S
C1526 C1527 1.349 . S
C1526 C1528 1.327 . S
C1526 H1551 0.950 . S
C1527 C1526 1.349 . S
C1527 C1543 1.349 1_565 S
C1528 C1526 1.327 . S
C1528 C1547 1.429 . S
C1528 H1552 0.950 . S
C1529 C1546 1.574 . S
C1529 C1548 1.368 1_545 S
C1529 H1553 0.949 . S
H1530 C1534 0.949 . S
C1531 C1532 1.349 . S
C1531 C1533 1.327 . S
C1531 H1554 0.950 . S
C1532 C1531 1.349 . S
C1532 C1544 1.349 1_545 S
C1533 C1531 1.327 . S
C1533 C1549 1.429 . S
C1533 H1555 0.950 . S
C1534 H1530 0.949 . S
C1534 C1542 1.574 . S
C1534 C1550 1.368 1_565 S
H1535 C1543 0.950 . S
H1536 C1541 0.950 . S
H1537 C1542 0.949 . S
H1538 C1544 0.950 . S
H1539 C1545 0.950 . S
H1540 C1546 0.949 . S
C1541 H1536 0.950 . S
C1541 C1543 1.327 . S
C1541 C1547 1.429 1_545 S
C1542 C1534 1.574 . S
C1542 H1537 0.949 . S
C1542 C1548 1.368 . S
C1543 C1527 1.349 1_545 S
C1543 H1535 0.950 . S
C1543 C1541 1.327 . S
C1544 C1532 1.349 1_565 S
C1544 H1538 0.950 . S
C1544 C1545 1.327 . S
C1545 H1539 0.950 . S
C1545 C1544 1.327 . S
C1545 C1549 1.429 1_565 S
C1546 C1529 1.574 . S
C1546 H1540 0.949 . S
C1546 C1550 1.368 . S
C1547 C1528 1.429 . S
C1547 C1541 1.429 1_565 S
C1547 C1548 1.523 . S
C1548 C1529 1.368 1_565 S
C1548 C1542 1.368 . S
C1548 C1547 1.523 . S
C1549 C1533 1.429 . S
C1549 C1545 1.429 1_545 S
C1549 C1550 1.523 . S
C1550 C1534 1.368 1_545 S
C1550 C1546 1.368 . S
C1550 C1549 1.523 . S
H1551 C1526 0.950 . S
H1552 C1528 0.950 . S
H1553 C1529 0.949 . S
H1554 C1531 0.950 . S
H1555 C1533 0.950 . S
C1556 C1557 1.349 . S
C1556 C1558 1.327 . S
C1556 H1581 0.950 . S
C1557 C1556 1.349 . S
C1557 C1573 1.349 . S
C1558 C1556 1.327 . S
C1558 C1577 1.429 . S
C1558 H1582 0.950 . S
C1559 C1576 1.574 . S
C1559 C1578 1.368 . S
C1559 H1583 0.949 . S
H1560 C1564 0.949 . S
C1561 C1562 1.349 . S
C1561 C1563 1.327 . S
C1561 H1584 0.950 . S
C1562 C1561 1.349 . S
C1562 C1574 1.349 . S
C1563 C1561 1.327 . S
C1563 C1579 1.429 . S
C1563 H1585 0.950 . S
C1564 H1560 0.949 . S
C1564 C1572 1.574 . S
C1564 C1580 1.368 . S
H1565 C1573 0.950 . S
H1566 C1571 0.950 . S
H1567 C1572 0.949 . S
H1568 C1574 0.950 . S
H1569 C1575 0.950 . S
H1570 C1576 0.949 . S
C1571 H1566 0.950 . S
C1571 C1573 1.327 . S
C1571 C1577 1.429 . S
C1572 C1564 1.574 . S
C1572 H1567 0.949 . S
C1572 C1578 1.368 . S
C1573 C1557 1.349 . S
C1573 H1565 0.950 . S
C1573 C1571 1.327 . S
C1574 C1562 1.349 . S
C1574 H1568 0.950 . S
C1574 C1575 1.327 . S
C1575 H1569 0.950 . S
C1575 C1574 1.327 . S
C1575 C1579 1.429 . S
C1576 C1559 1.574 . S
C1576 H1570 0.949 . S
C1576 C1580 1.368 . S
C1577 C1558 1.429 . S
C1577 C1571 1.429 . S
C1577 C1578 1.523 . S
C1578 C1559 1.368 . S
C1578 C1572 1.368 . S
C1578 C1577 1.523 . S
C1579 C1563 1.429 . S
C1579 C1575 1.429 . S
C1579 C1580 1.523 . S
C1580 C1564 1.368 . S
C1580 C1576 1.368 . S
C1580 C1579 1.523 . S
H1581 C1556 0.950 . S
H1582 C1558 0.950 . S
H1583 C1559 0.949 . S
H1584 C1561 0.950 . S
H1585 C1563 0.950 . S
C1586 C1587 1.349 . S
C1586 C1588 1.327 . S
C1586 H1611 0.950 . S
C1587 C1586 1.349 . S
C1587 C1603 1.325 1_545 S
C1588 C1586 1.327 . S
C1588 C1607 1.429 . S
C1588 H1612 0.950 . S
C1589 C1606 1.574 1_556 S
C1589 C1608 1.368 1_665 S
C1589 H1613 0.949 . S
H1590 C1594 0.949 . S
C1591 C1592 1.349 . S
C1591 C1593 1.327 . S
C1591 H1614 0.950 . S
C1592 C1591 1.349 . S
C1592 C1604 1.315 1_565 S
C1593 C1591 1.327 . S
C1593 C1609 1.429 . S
C1593 H1615 0.950 . S
C1594 H1590 0.949 . S
C1594 C1602 1.574 1_554 S
C1594 C1610 1.368 1_445 S
H1595 C1603 0.969 . S
H1596 C1601 0.950 . S
H1597 C1602 0.949 . S
H1598 C1604 0.976 . S
H1599 C1605 0.950 . S
H1600 C1606 0.949 . S
C1601 H1596 0.950 . S
C1601 C1603 1.334 . S
C1601 C1607 1.429 1_565 S
C1602 C1594 1.574 1_556 S
C1602 H1597 0.949 . S
C1602 C1608 1.368 . S
C1603 C1587 1.325 1_565 S
C1603 H1595 0.969 . S
C1603 C1601 1.334 . S
C1604 C1592 1.315 1_545 S
C1604 H1598 0.976 . S
C1604 C1605 1.336 . S
C1605 H1599 0.950 . S
C1605 C1604 1.336 . S
C1605 C1609 1.429 1_545 S
C1606 C1589 1.574 1_554 S
C1606 H1600 0.949 . S
C1606 C1610 1.368 . S
C1607 C1588 1.429 . S
C1607 C1601 1.429 1_545 S
C1607 C1608 1.523 . S
C1608 C1589 1.368 1_445 S
C1608 C1602 1.368 . S
C1608 C1607 1.523 . S
C1609 C1593 1.429 . S
C1609 C1605 1.429 1_565 S
C1609 C1610 1.523 . S
C1610 C1594 1.368 1_665 S
C1610 C1606 1.368 . S
C1610 C1609 1.523 . S
H1611 C1586 0.950 . S
H1612 C1588 0.950 . S
H1613 C1589 0.949 . S
H1614 C1591 0.950 . S
H1615 C1593 0.950 . S
C1616 C1617 1.349 . S
C1616 C1618 1.327 . S
C1616 H1641 0.950 . S
C1617 C1616 1.349 . S
C1617 C1633 1.349 . S
C1618 C1616 1.327 . S
C1618 C1637 1.429 . S
C1618 H1642 0.950 . S
C1619 C1636 1.574 . S
C1619 C1638 1.368 . S
C1619 H1643 0.949 . S
H1620 C1624 0.949 . S
C1621 C1622 1.349 . S
C1621 C1623 1.327 . S
C1621 H1644 0.950 . S
C1622 C1621 1.349 . S
C1622 C1634 1.349 . S
C1623 C1621 1.327 . S
C1623 C1639 1.429 . S
C1623 H1645 0.950 . S
C1624 H1620 0.949 . S
C1624 C1632 1.574 . S
C1624 C1640 1.368 . S
H1625 C1633 0.950 . S
H1626 C1631 0.950 . S
H1627 C1632 0.949 . S
H1628 C1634 0.950 . S
H1629 C1635 0.950 . S
H1630 C1636 0.949 . S
C1631 H1626 0.950 . S
C1631 C1633 1.327 . S
C1631 C1637 1.429 . S
C1632 C1624 1.574 . S
C1632 H1627 0.949 . S
C1632 C1638 1.368 . S
C1633 C1617 1.349 . S
C1633 H1625 0.950 . S
C1633 C1631 1.327 . S
C1634 C1622 1.349 . S
C1634 H1628 0.950 . S
C1634 C1635 1.327 . S
C1635 H1629 0.950 . S
C1635 C1634 1.327 . S
C1635 C1639 1.429 . S
C1636 C1619 1.574 . S
C1636 H1630 0.949 . S
C1636 C1640 1.368 . S
C1637 C1618 1.429 . S
C1637 C1631 1.429 . S
C1637 C1638 1.523 . S
C1638 C1619 1.368 . S
C1638 C1632 1.368 . S
C1638 C1637 1.523 . S
C1639 C1623 1.429 . S
C1639 C1635 1.429 . S
C1639 C1640 1.523 . S
C1640 C1624 1.368 . S
C1640 C1636 1.368 . S
C1640 C1639 1.523 . S
H1641 C1616 0.950 . S
H1642 C1618 0.950 . S
H1643 C1619 0.949 . S
H1644 C1621 0.950 . S
H1645 C1623 0.950 . S
C1646 C1647 1.349 . S
C1646 C1648 1.327 . S
C1646 H1671 0.950 . S
C1647 C1646 1.349 . S
C1647 C1663 1.349 . S
C1648 C1646 1.327 . S
C1648 C1667 1.429 . S
C1648 H1672 0.950 . S
C1649 C1666 1.574 . S
C1649 C1668 1.368 . S
C1649 H1673 0.949 . S
H1650 C1654 0.949 . S
C1651 C1652 1.349 . S
C1651 C1653 1.327 . S
C1651 H1674 0.950 . S
C1652 C1651 1.349 . S
C1652 C1664 1.349 . S
C1653 C1651 1.327 . S
C1653 C1669 1.429 . S
C1653 H1675 0.950 . S
C1654 H1650 0.949 . S
C1654 C1662 1.574 . S
C1654 C1670 1.368 . S
H1655 C1663 0.950 . S
H1656 C1661 0.950 . S
H1657 C1662 0.949 . S
H1658 C1664 0.950 . S
H1659 C1665 0.950 . S
H1660 C1666 0.949 . S
C1661 H1656 0.950 . S
C1661 C1663 1.327 . S
C1661 C1667 1.429 . S
C1662 C1654 1.574 . S
C1662 H1657 0.949 . S
C1662 C1668 1.368 . S
C1663 C1647 1.349 . S
C1663 H1655 0.950 . S
C1663 C1661 1.327 . S
C1664 C1652 1.349 . S
C1664 H1658 0.950 . S
C1664 C1665 1.327 . S
C1665 H1659 0.950 . S
C1665 C1664 1.327 . S
C1665 C1669 1.429 . S
C1666 C1649 1.574 . S
C1666 H1660 0.949 . S
C1666 C1670 1.368 . S
C1667 C1648 1.429 . S
C1667 C1661 1.429 . S
C1667 C1668 1.523 . S
C1668 C1649 1.368 . S
C1668 C1662 1.368 . S
C1668 C1667 1.523 . S
C1669 C1653 1.429 . S
C1669 C1665 1.429 . S
C1669 C1670 1.523 . S
C1670 C1654 1.368 . S
C1670 C1666 1.368 . S
C1670 C1669 1.523 . S
H1671 C1646 0.950 . S
H1672 C1648 0.950 . S
H1673 C1649 0.949 . S
H1674 C1651 0.950 . S
H1675 C1653 0.950 . S
C1676 C1677 1.349 . S
C1676 C1678 1.327 . S
C1676 H1701 0.950 . S
C1677 C1676 1.349 . S
C1677 C1693 1.349 . S
C1678 C1676 1.327 . S
C1678 C1697 1.429 . S
C1678 H1702 0.950 . S
C1679 C1696 1.574 . S
C1679 C1698 1.368 . S
C1679 H1703 0.949 . S
H1680 C1684 0.949 . S
C1681 C1682 1.349 . S
C1681 C1683 1.327 . S
C1681 H1704 0.950 . S
C1682 C1681 1.349 . S
C1682 C1694 1.349 . S
C1683 C1681 1.327 . S
C1683 C1699 1.429 . S
C1683 H1705 0.950 . S
C1684 H1680 0.949 . S
C1684 C1692 1.574 . S
C1684 C1700 1.368 . S
H1685 C1693 0.950 . S
H1686 C1691 0.950 . S
H1687 C1692 0.949 . S
H1688 C1694 0.950 . S
H1689 C1695 0.950 . S
H1690 C1696 0.949 . S
C1691 H1686 0.950 . S
C1691 C1693 1.327 . S
C1691 C1697 1.429 . S
C1692 C1684 1.574 . S
C1692 H1687 0.949 . S
C1692 C1698 1.368 . S
C1693 C1677 1.349 . S
C1693 H1685 0.950 . S
C1693 C1691 1.327 . S
C1694 C1682 1.349 . S
C1694 H1688 0.950 . S
C1694 C1695 1.327 . S
C1695 H1689 0.950 . S
C1695 C1694 1.327 . S
C1695 C1699 1.429 . S
C1696 C1679 1.574 . S
C1696 H1690 0.949 . S
C1696 C1700 1.368 . S
C1697 C1678 1.429 . S
C1697 C1691 1.429 . S
C1697 C1698 1.523 . S
C1698 C1679 1.368 . S
C1698 C1692 1.368 . S
C1698 C1697 1.523 . S
C1699 C1683 1.429 . S
C1699 C1695 1.429 . S
C1699 C1700 1.523 . S
C1700 C1684 1.368 . S
C1700 C1696 1.368 . S
C1700 C1699 1.523 . S
H1701 C1676 0.950 . S
H1702 C1678 0.950 . S
H1703 C1679 0.949 . S
H1704 C1681 0.950 . S
H1705 C1683 0.950 . S
C1706 C1707 1.349 . S
C1706 C1708 1.327 . S
C1706 H1731 0.950 . S
C1707 C1706 1.349 . S
C1707 C1723 1.349 . S
C1708 C1706 1.327 . S
C1708 C1727 1.429 . S
C1708 H1732 0.950 . S
C1709 C1726 1.574 . S
C1709 C1728 1.368 . S
C1709 H1733 0.949 . S
H1710 C1714 0.949 . S
C1711 C1712 1.349 . S
C1711 C1713 1.327 . S
C1711 H1734 0.950 . S
C1712 C1711 1.349 . S
C1712 C1724 1.349 . S
C1713 C1711 1.327 . S
C1713 C1729 1.429 . S
C1713 H1735 0.950 . S
C1714 H1710 0.949 . S
C1714 C1722 1.574 . S
C1714 C1730 1.368 . S
H1715 C1723 0.950 . S
H1716 C1721 0.950 . S
H1717 C1722 0.949 . S
H1718 C1724 0.950 . S
H1719 C1725 0.950 . S
H1720 C1726 0.949 . S
C1721 H1716 0.950 . S
C1721 C1723 1.327 . S
C1721 C1727 1.429 . S
C1722 C1714 1.574 . S
C1722 H1717 0.949 . S
C1722 C1728 1.368 . S
C1723 C1707 1.349 . S
C1723 H1715 0.950 . S
C1723 C1721 1.327 . S
C1724 C1712 1.349 . S
C1724 H1718 0.950 . S
C1724 C1725 1.327 . S
C1725 H1719 0.950 . S
C1725 C1724 1.327 . S
C1725 C1729 1.429 . S
C1726 C1709 1.574 . S
C1726 H1720 0.949 . S
C1726 C1730 1.368 . S
C1727 C1708 1.429 . S
C1727 C1721 1.429 . S
C1727 C1728 1.523 . S
C1728 C1709 1.368 . S
C1728 C1722 1.368 . S
C1728 C1727 1.523 . S
C1729 C1713 1.429 . S
C1729 C1725 1.429 . S
C1729 C1730 1.523 . S
C1730 C1714 1.368 . S
C1730 C1726 1.368 . S
C1730 C1729 1.523 . S
H1731 C1706 0.950 . S
H1732 C1708 0.950 . S
H1733 C1709 0.949 . S
H1734 C1711 0.950 . S
H1735 C1713 0.950 . S
C1736 C1737 1.349 . S
C1736 C1738 1.327 . S
C1736 H1761 0.950 . S
C1737 C1736 1.349 . S
C1737 C1753 1.349 . S
C1738 C1736 1.327 . S
C1738 C1757 1.429 . S
C1738 H1762 0.950 . S
C1739 C1756 1.574 1_554 S
C1739 C1758 1.368 . S
C1739 H1763 0.949 . S
H1740 C1744 0.949 . S
C1741 C1742 1.349 . S
C1741 C1743 1.327 . S
C1741 H1764 0.950 . S
C1742 C1741 1.349 . S
C1742 C1754 1.349 . S
C1743 C1741 1.327 . S
C1743 C1759 1.429 . S
C1743 H1765 0.950 . S
C1744 H1740 0.949 . S
C1744 C1752 1.574 1_556 S
C1744 C1760 1.368 . S
H1745 C1753 0.950 . S
H1746 C1751 0.950 . S
H1747 C1752 0.949 . S
H1748 C1754 0.950 . S
H1749 C1755 0.950 . S
H1750 C1756 0.949 . S
C1751 H1746 0.950 . S
C1751 C1753 1.327 . S
C1751 C1757 1.429 . S
C1752 C1744 1.574 1_554 S
C1752 H1747 0.949 . S
C1752 C1758 1.368 . S
C1753 C1737 1.349 . S
C1753 H1745 0.950 . S
C1753 C1751 1.327 . S
C1754 C1742 1.349 . S
C1754 H1748 0.950 . S
C1754 C1755 1.327 . S
C1755 H1749 0.950 . S
C1755 C1754 1.327 . S
C1755 C1759 1.429 . S
C1756 C1739 1.574 1_556 S
C1756 H1750 0.949 . S
C1756 C1760 1.368 . S
C1757 C1738 1.429 . S
C1757 C1751 1.429 . S
C1757 C1758 1.523 . S
C1758 C1739 1.368 . S
C1758 C1752 1.368 . S
C1758 C1757 1.523 . S
C1759 C1743 1.429 . S
C1759 C1755 1.429 . S
C1759 C1760 1.523 . S
C1760 C1744 1.368 . S
C1760 C1756 1.368 . S
C1760 C1759 1.523 . S
H1761 C1736 0.950 . S
H1762 C1738 0.950 . S
H1763 C1739 0.949 . S
H1764 C1741 0.950 . S
H1765 C1743 0.950 . S
C1766 C1767 1.349 . S
C1766 C1768 1.327 . S
C1766 H1791 0.950 . S
C1767 C1766 1.349 . S
C1767 C1783 1.349 . S
C1768 C1766 1.327 . S
C1768 C1787 1.429 . S
C1768 H1792 0.950 . S
C1769 C1786 1.574 . S
C1769 C1788 1.368 1_655 S
C1769 H1793 0.949 . S
H1770 C1774 0.949 . S
C1771 C1772 1.349 . S
C1771 C1773 1.327 . S
C1771 H1794 0.950 . S
C1772 C1771 1.349 . S
C1772 C1784 1.349 . S
C1773 C1771 1.327 . S
C1773 C1789 1.429 . S
C1773 H1795 0.950 . S
C1774 H1770 0.949 . S
C1774 C1782 1.574 . S
C1774 C1790 1.368 1_455 S
H1775 C1783 0.950 . S
H1776 C1781 0.950 . S
H1777 C1782 0.949 . S
H1778 C1784 0.950 . S
H1779 C1785 0.950 . S
H1780 C1786 0.949 . S
C1781 H1776 0.950 . S
C1781 C1783 1.327 . S
C1781 C1787 1.429 . S
C1782 C1774 1.574 . S
C1782 H1777 0.949 . S
C1782 C1788 1.368 . S
C1783 C1767 1.349 . S
C1783 H1775 0.950 . S
C1783 C1781 1.327 . S
C1784 C1772 1.349 . S
C1784 H1778 0.950 . S
C1784 C1785 1.327 . S
C1785 H1779 0.950 . S
C1785 C1784 1.327 . S
C1785 C1789 1.429 . S
C1786 C1769 1.574 . S
C1786 H1780 0.949 . S
C1786 C1790 1.368 . S
C1787 C1768 1.429 . S
C1787 C1781 1.429 . S
C1787 C1788 1.523 . S
C1788 C1769 1.368 1_455 S
C1788 C1782 1.368 . S
C1788 C1787 1.523 . S
C1789 C1773 1.429 . S
C1789 C1785 1.429 . S
C1789 C1790 1.523 . S
C1790 C1774 1.368 1_655 S
C1790 C1786 1.368 . S
C1790 C1789 1.523 . S
H1791 C1766 0.950 . S
H1792 C1768 0.950 . S
H1793 C1769 0.949 . S
H1794 C1771 0.950 . S
H1795 C1773 0.950 . S
C1796 C1797 1.349 . S
C1796 C1798 1.327 . S
C1796 H1821 0.950 . S
C1797 C1796 1.349 . S
C1797 C1813 1.349 . S
C1798 C1796 1.327 . S
C1798 C1817 1.429 . S
C1798 H1822 0.950 . S
C1799 C1816 1.574 1_554 S
C1799 C1818 1.368 1_655 S
C1799 H1823 0.949 . S
H1800 C1804 0.949 . S
C1801 C1802 1.349 . S
C1801 C1803 1.327 . S
C1801 H1824 0.950 . S
C1802 C1801 1.349 . S
C1802 C1814 1.349 . S
C1803 C1801 1.327 . S
C1803 C1819 1.429 . S
C1803 H1825 0.950 . S
C1804 H1800 0.949 . S
C1804 C1812 1.574 1_556 S
C1804 C1820 1.368 1_455 S
H1805 C1813 0.950 . S
H1806 C1811 0.950 . S
H1807 C1812 0.949 . S
H1808 C1814 0.950 . S
H1809 C1815 0.950 . S
H1810 C1816 0.949 . S
C1811 H1806 0.950 . S
C1811 C1813 1.327 . S
C1811 C1817 1.429 . S
C1812 C1804 1.574 1_554 S
C1812 H1807 0.949 . S
C1812 C1818 1.368 . S
C1813 C1797 1.349 . S
C1813 H1805 0.950 . S
C1813 C1811 1.327 . S
C1814 C1802 1.349 . S
C1814 H1808 0.950 . S
C1814 C1815 1.327 . S
C1815 H1809 0.950 . S
C1815 C1814 1.327 . S
C1815 C1819 1.429 . S
C1816 C1799 1.574 1_556 S
C1816 H1810 0.949 . S
C1816 C1820 1.368 . S
C1817 C1798 1.429 . S
C1817 C1811 1.429 . S
C1817 C1818 1.523 . S
C1818 C1799 1.368 1_455 S
C1818 C1812 1.368 . S
C1818 C1817 1.523 . S
C1819 C1803 1.429 . S
C1819 C1815 1.429 . S
C1819 C1820 1.523 . S
C1820 C1804 1.368 1_655 S
C1820 C1816 1.368 . S
C1820 C1819 1.523 . S
H1821 C1796 0.950 . S
H1822 C1798 0.950 . S
H1823 C1799 0.949 . S
H1824 C1801 0.950 . S
H1825 C1803 0.950 . S
C1826 C1827 1.349 . S
C1826 C1828 1.327 . S
C1826 H1851 0.950 . S
C1827 C1826 1.349 . S
C1827 C1843 1.349 . S
C1828 C1826 1.327 . S
C1828 C1847 1.429 . S
C1828 H1852 0.950 . S
C1829 C1846 1.574 . S
C1829 C1848 1.368 . S
C1829 H1853 0.949 . S
H1830 C1834 0.949 . S
C1831 C1832 1.349 . S
C1831 C1833 1.327 . S
C1831 H1854 0.950 . S
C1832 C1831 1.349 . S
C1832 C1844 1.349 . S
C1833 C1831 1.327 . S
C1833 C1849 1.429 . S
C1833 H1855 0.950 . S
C1834 H1830 0.949 . S
C1834 C1842 1.574 . S
C1834 C1850 1.368 . S
H1835 C1843 0.950 . S
H1836 C1841 0.950 . S
H1837 C1842 0.949 . S
H1838 C1844 0.950 . S
H1839 C1845 0.950 . S
H1840 C1846 0.949 . S
C1841 H1836 0.950 . S
C1841 C1843 1.327 . S
C1841 C1847 1.429 . S
C1842 C1834 1.574 . S
C1842 H1837 0.949 . S
C1842 C1848 1.368 . S
C1843 C1827 1.349 . S
C1843 H1835 0.950 . S
C1843 C1841 1.327 . S
C1844 C1832 1.349 . S
C1844 H1838 0.950 . S
C1844 C1845 1.327 . S
C1845 H1839 0.950 . S
C1845 C1844 1.327 . S
C1845 C1849 1.429 . S
C1846 C1829 1.574 . S
C1846 H1840 0.949 . S
C1846 C1850 1.368 . S
C1847 C1828 1.429 . S
C1847 C1841 1.429 . S
C1847 C1848 1.523 . S
C1848 C1829 1.368 . S
C1848 C1842 1.368 . S
C1848 C1847 1.523 . S
C1849 C1833 1.429 . S
C1849 C1845 1.429 . S
C1849 C1850 1.523 . S
C1850 C1834 1.368 . S
C1850 C1846 1.368 . S
C1850 C1849 1.523 . S
H1851 C1826 0.950 . S
H1852 C1828 0.950 . S
H1853 C1829 0.949 . S
H1854 C1831 0.950 . S
H1855 C1833 0.950 . S
C1856 C1857 1.349 . S
C1856 C1858 1.327 . S
C1856 H1881 0.950 . S
C1857 C1856 1.349 . S
C1857 C1873 1.349 . S
C1858 C1856 1.327 . S
C1858 C1877 1.429 . S
C1858 H1882 0.950 . S
C1859 C1876 1.574 . S
C1859 C1878 1.368 . S
C1859 H1883 0.949 . S
H1860 C1864 0.949 . S
C1861 C1862 1.349 . S
C1861 C1863 1.327 . S
C1861 H1884 0.950 1_545 S
C1862 C1861 1.349 . S
C1862 C1874 1.349 . S
C1863 C1861 1.327 . S
C1863 C1879 1.429 . S
C1863 H1885 0.950 . S
C1864 H1860 0.949 . S
C1864 C1872 1.574 . S
C1864 C1880 1.368 . S
H1865 C1873 0.950 . S
H1866 C1871 0.950 . S
H1867 C1872 0.949 . S
H1868 C1874 0.950 . S
H1869 C1875 0.950 . S
H1870 C1876 0.949 . S
C1871 H1866 0.950 . S
C1871 C1873 1.327 . S
C1871 C1877 1.429 . S
C1872 C1864 1.574 . S
C1872 H1867 0.949 . S
C1872 C1878 1.368 . S
C1873 C1857 1.349 . S
C1873 H1865 0.950 . S
C1873 C1871 1.327 . S
C1874 C1862 1.349 . S
C1874 H1868 0.950 . S
C1874 C1875 1.327 . S
C1875 H1869 0.950 . S
C1875 C1874 1.327 . S
C1875 C1879 1.429 . S
C1876 C1859 1.574 . S
C1876 H1870 0.949 . S
C1876 C1880 1.368 . S
C1877 C1858 1.429 . S
C1877 C1871 1.429 . S
C1877 C1878 1.523 . S
C1878 C1859 1.368 . S
C1878 C1872 1.368 . S
C1878 C1877 1.523 . S
C1879 C1863 1.429 . S
C1879 C1875 1.429 . S
C1879 C1880 1.523 . S
C1880 C1864 1.368 . S
C1880 C1876 1.368 . S
C1880 C1879 1.523 . S
H1881 C1856 0.950 . S
H1882 C1858 0.950 . S
H1883 C1859 0.949 . S
H1884 C1861 0.950 1_565 S
H1885 C1863 0.950 . S
C1886 C1887 1.349 . S
C1886 C1888 1.327 . S
C1886 H1911 0.950 . S
C1887 C1886 1.349 . S
C1887 C1903 1.349 . S
C1888 C1886 1.327 . S
C1888 C1907 1.429 . S
C1888 H1912 0.950 . S
C1889 C1906 1.574 . S
C1889 C1908 1.368 . S
C1889 H1913 0.949 . S
H1890 C1894 0.949 . S
C1891 C1892 1.349 . S
C1891 C1893 1.327 . S
C1891 H1914 0.950 . S
C1892 C1891 1.349 . S
C1892 C1904 1.349 . S
C1893 C1891 1.327 . S
C1893 C1909 1.429 . S
C1893 H1915 0.950 . S
C1894 H1890 0.949 . S
C1894 C1902 1.574 . S
C1894 C1910 1.368 . S
H1895 C1903 0.950 1_565 S
H1896 C1901 0.950 . S
H1897 C1902 0.949 . S
H1898 C1904 0.950 . S
H1899 C1905 0.950 . S
H1900 C1906 0.949 . S
C1901 H1896 0.950 . S
C1901 C1903 1.327 . S
C1901 C1907 1.429 . S
C1902 C1894 1.574 . S
C1902 H1897 0.949 . S
C1902 C1908 1.368 . S
C1903 C1887 1.349 . S
C1903 H1895 0.950 1_545 S
C1903 C1901 1.327 . S
C1904 C1892 1.349 . S
C1904 H1898 0.950 . S
C1904 C1905 1.327 . S
C1905 H1899 0.950 . S
C1905 C1904 1.327 . S
C1905 C1909 1.429 . S
C1906 C1889 1.574 . S
C1906 H1900 0.949 . S
C1906 C1910 1.368 . S
C1907 C1888 1.429 . S
C1907 C1901 1.429 . S
C1907 C1908 1.523 . S
C1908 C1889 1.368 . S
C1908 C1902 1.368 . S
C1908 C1907 1.523 . S
C1909 C1893 1.429 . S
C1909 C1905 1.429 . S
C1909 C1910 1.523 . S
C1910 C1894 1.368 . S
C1910 C1906 1.368 . S
C1910 C1909 1.523 . S
H1911 C1886 0.950 . S
H1912 C1888 0.950 . S
H1913 C1889 0.949 . S
H1914 C1891 0.950 . S
H1915 C1893 0.950 . S
C1916 C1917 1.349 . S
C1916 C1918 1.327 . S
C1916 H1941 0.950 . S
C1917 C1916 1.349 . S
C1917 C1933 1.349 . S
C1918 C1916 1.327 . S
C1918 C1937 1.429 . S
C1918 H1942 0.950 . S
C1919 C1936 1.574 . S
C1919 C1938 1.368 . S
C1919 H1943 0.949 . S
H1920 C1924 0.949 . S
C1921 C1922 1.349 . S
C1921 C1923 1.327 . S
C1921 H1944 0.950 1_565 S
C1922 C1921 1.349 . S
C1922 C1934 1.349 . S
C1923 C1921 1.327 . S
C1923 C1939 1.429 . S
C1923 H1945 0.950 . S
C1924 H1920 0.949 . S
C1924 C1932 1.574 . S
C1924 C1940 1.368 . S
H1925 C1933 0.950 . S
H1926 C1931 0.950 . S
H1927 C1932 0.949 . S
H1928 C1934 0.950 . S
H1929 C1935 0.950 . S
H1930 C1936 0.949 . S
C1931 H1926 0.950 . S
C1931 C1933 1.327 . S
C1931 C1937 1.429 . S
C1932 C1924 1.574 . S
C1932 H1927 0.949 . S
C1932 C1938 1.368 . S
C1933 C1917 1.349 . S
C1933 H1925 0.950 . S
C1933 C1931 1.327 . S
C1934 C1922 1.349 . S
C1934 H1928 0.950 . S
C1934 C1935 1.327 . S
C1935 H1929 0.950 . S
C1935 C1934 1.327 . S
C1935 C1939 1.429 . S
C1936 C1919 1.574 . S
C1936 H1930 0.949 . S
C1936 C1940 1.368 . S
C1937 C1918 1.429 . S
C1937 C1931 1.429 . S
C1937 C1938 1.523 . S
C1938 C1919 1.368 . S
C1938 C1932 1.368 . S
C1938 C1937 1.523 . S
C1939 C1923 1.429 . S
C1939 C1935 1.429 . S
C1939 C1940 1.523 . S
C1940 C1924 1.368 . S
C1940 C1936 1.368 . S
C1940 C1939 1.523 . S
H1941 C1916 0.950 . S
H1942 C1918 0.950 . S
H1943 C1919 0.949 . S
H1944 C1921 0.950 1_545 S
H1945 C1923 0.950 . S
C1946 C1947 1.349 . S
C1946 C1948 1.327 . S
C1946 H1971 0.950 . S
C1947 C1946 1.349 . S
C1947 C1963 1.349 . S
C1948 C1946 1.327 . S
C1948 C1967 1.429 . S
C1948 H1972 0.950 . S
C1949 C1966 1.574 . S
C1949 C1968 1.368 . S
C1949 H1973 0.949 . S
H1950 C1954 0.949 . S
C1951 C1952 1.349 . S
C1951 C1953 1.327 . S
C1951 H1974 0.950 1_565 S
C1952 C1951 1.349 . S
C1952 C1964 1.349 . S
C1953 C1951 1.327 . S
C1953 C1969 1.429 . S
C1953 H1975 0.950 . S
C1954 H1950 0.949 . S
C1954 C1962 1.574 . S
C1954 C1970 1.368 . S
H1955 C1963 0.950 . S
H1956 C1961 0.950 . S
H1957 C1962 0.949 . S
H1958 C1964 0.950 . S
H1959 C1965 0.950 . S
H1960 C1966 0.949 . S
C1961 H1956 0.950 . S
C1961 C1963 1.327 . S
C1961 C1967 1.429 . S
C1962 C1954 1.574 . S
C1962 H1957 0.949 . S
C1962 C1968 1.368 . S
C1963 C1947 1.349 . S
C1963 H1955 0.950 . S
C1963 C1961 1.327 . S
C1964 C1952 1.349 . S
C1964 H1958 0.950 . S
C1964 C1965 1.327 . S
C1965 H1959 0.950 . S
C1965 C1964 1.327 . S
C1965 C1969 1.429 . S
C1966 C1949 1.574 . S
C1966 H1960 0.949 . S
C1966 C1970 1.368 . S
C1967 C1948 1.429 . S
C1967 C1961 1.429 . S
C1967 C1968 1.523 . S
C1968 C1949 1.368 . S
C1968 C1962 1.368 . S
C1968 C1967 1.523 . S
C1969 C1953 1.429 . S
C1969 C1965 1.429 . S
C1969 C1970 1.523 . S
C1970 C1954 1.368 . S
C1970 C1966 1.368 . S
C1970 C1969 1.523 . S
H1971 C1946 0.950 . S
H1972 C1948 0.950 . S
H1973 C1949 0.949 . S
H1974 C1951 0.950 1_545 S
H1975 C1953 0.950 . S
C1976 C1977 1.349 . S
C1976 C1978 1.327 . S
C1976 H2001 0.950 . S
C1977 C1976 1.349 . S
C1977 C1993 1.349 . S
C1978 C1976 1.327 . S
C1978 C1997 1.429 . S
C1978 H2002 0.950 . S
C1979 C1996 1.574 . S
C1979 C1998 1.368 . S
C1979 H2003 0.949 . S
H1980 C1984 0.949 . S
C1981 C1982 1.349 . S
C1981 C1983 1.327 . S
C1981 H2004 0.950 . S
C1982 C1981 1.349 . S
C1982 C1994 1.349 . S
C1983 C1981 1.327 . S
C1983 C1999 1.429 . S
C1983 H2005 0.950 . S
C1984 H1980 0.949 . S
C1984 C1992 1.574 . S
C1984 C2000 1.368 . S
H1985 C1993 0.950 . S
H1986 C1991 0.950 . S
H1987 C1992 0.949 . S
H1988 C1994 0.950 1_545 S
H1989 C1995 0.950 . S
H1990 C1996 0.949 . S
C1991 H1986 0.950 . S
C1991 C1993 1.327 . S
C1991 C1997 1.429 . S
C1992 C1984 1.574 . S
C1992 H1987 0.949 . S
C1992 C1998 1.368 . S
C1993 C1977 1.349 . S
C1993 H1985 0.950 . S
C1993 C1991 1.327 . S
C1994 C1982 1.349 . S
C1994 H1988 0.950 1_565 S
C1994 C1995 1.327 . S
C1995 H1989 0.950 . S
C1995 C1994 1.327 . S
C1995 C1999 1.429 . S
C1996 C1979 1.574 . S
C1996 H1990 0.949 . S
C1996 C2000 1.368 . S
C1997 C1978 1.429 . S
C1997 C1991 1.429 . S
C1997 C1998 1.523 . S
C1998 C1979 1.368 . S
C1998 C1992 1.368 . S
C1998 C1997 1.523 . S
C1999 C1983 1.429 . S
C1999 C1995 1.429 . S
C1999 C2000 1.523 . S
C2000 C1984 1.368 . S
C2000 C1996 1.368 . S
C2000 C1999 1.523 . S
H2001 C1976 0.950 . S
H2002 C1978 0.950 . S
H2003 C1979 0.949 . S
H2004 C1981 0.950 . S
H2005 C1983 0.950 . S
C2006 C2007 1.349 . S
C2006 C2008 1.327 . S
C2006 H2031 0.950 . S
C2007 C2006 1.349 . S
C2007 C2023 1.349 . S
C2008 C2006 1.327 . S
C2008 C2027 1.429 . S
C2008 H2032 0.950 . S
C2009 C2026 1.574 . S
C2009 C2028 1.368 . S
C2009 H2033 0.949 . S
H2010 C2014 0.949 . S
C2011 C2012 1.349 . S
C2011 C2013 1.327 . S
C2011 H2034 0.950 . S
C2012 C2011 1.349 . S
C2012 C2024 1.349 . S
C2013 C2011 1.327 . S
C2013 C2029 1.429 . S
C2013 H2035 0.950 . S
C2014 H2010 0.949 . S
C2014 C2022 1.574 . S
C2014 C2030 1.368 . S
H2015 C2023 0.963 . S
H2016 C2021 0.950 . S
H2017 C2022 0.949 . S
H2018 C2024 0.950 . S
H2019 C2025 0.950 . S
H2020 C2026 0.949 . S
C2021 H2016 0.950 . S
C2021 C2023 1.327 . S
C2021 C2027 1.429 . S
C2022 C2014 1.574 . S
C2022 H2017 0.949 . S
C2022 C2028 1.368 . S
C2023 C2007 1.349 . S
C2023 H2015 0.963 . S
C2023 C2021 1.327 . S
C2024 C2012 1.349 . S
C2024 H2018 0.950 . S
C2024 C2025 1.327 . S
C2025 H2019 0.950 . S
C2025 C2024 1.327 . S
C2025 C2029 1.429 . S
C2026 C2009 1.574 . S
C2026 H2020 0.949 . S
C2026 C2030 1.368 . S
C2027 C2008 1.429 . S
C2027 C2021 1.429 . S
C2027 C2028 1.523 . S
C2028 C2009 1.368 . S
C2028 C2022 1.368 . S
C2028 C2027 1.523 . S
C2029 C2013 1.429 . S
C2029 C2025 1.429 . S
C2029 C2030 1.523 . S
C2030 C2014 1.368 . S
C2030 C2026 1.368 . S
C2030 C2029 1.523 . S
H2031 C2006 0.950 . S
H2032 C2008 0.950 . S
H2033 C2009 0.949 . S
H2034 C2011 0.950 . S
H2035 C2013 0.950 . S
C2036 C2037 1.349 . S
C2036 C2038 1.327 . S
C2036 H2061 0.950 . S
C2037 C2036 1.349 . S
C2037 C2053 1.349 . S
C2038 C2036 1.327 . S
C2038 C2057 1.429 . S
C2038 H2062 0.950 . S
C2039 C2056 1.574 . S
C2039 C2058 1.368 . S
C2039 H2063 0.949 . S
H2040 C2044 0.949 . S
C2041 C2042 1.349 . S
C2041 C2043 1.327 . S
C2041 H2064 0.950 . S
C2042 C2041 1.349 . S
C2042 C2054 1.349 . S
C2043 C2041 1.327 . S
C2043 C2059 1.429 . S
C2043 H2065 0.950 . S
C2044 H2040 0.949 . S
C2044 C2052 1.574 . S
C2044 C2060 1.368 . S
H2045 C2053 0.950 . S
H2046 C2051 0.950 . S
H2047 C2052 0.949 . S
H2048 C2054 0.950 1_565 S
H2049 C2055 0.950 . S
H2050 C2056 0.949 . S
C2051 H2046 0.950 . S
C2051 C2053 1.327 . S
C2051 C2057 1.429 . S
C2052 C2044 1.574 . S
C2052 H2047 0.949 . S
C2052 C2058 1.368 . S
C2053 C2037 1.349 . S
C2053 H2045 0.950 . S
C2053 C2051 1.327 . S
C2054 C2042 1.349 . S
C2054 H2048 0.950 1_545 S
C2054 C2055 1.327 . S
C2055 H2049 0.950 . S
C2055 C2054 1.327 . S
C2055 C2059 1.429 . S
C2056 C2039 1.574 . S
C2056 H2050 0.949 . S
C2056 C2060 1.368 . S
C2057 C2038 1.429 . S
C2057 C2051 1.429 . S
C2057 C2058 1.523 . S
C2058 C2039 1.368 . S
C2058 C2052 1.368 . S
C2058 C2057 1.523 . S
C2059 C2043 1.429 . S
C2059 C2055 1.429 . S
C2059 C2060 1.523 . S
C2060 C2044 1.368 . S
C2060 C2056 1.368 . S
C2060 C2059 1.523 . S
H2061 C2036 0.950 . S
H2062 C2038 0.950 . S
H2063 C2039 0.949 . S
H2064 C2041 0.950 . S
H2065 C2043 0.950 . S
C2066 C2067 1.349 . S
C2066 C2068 1.327 . S
C2066 H2091 0.950 . S
C2067 C2066 1.349 . S
C2067 C2083 1.349 . S
C2068 C2066 1.327 . S
C2068 C2087 1.429 . S
C2068 H2092 0.950 . S
C2069 C2086 1.574 . S
C2069 C2088 1.368 . S
C2069 H2093 0.949 . S
H2070 C2074 0.949 . S
C2071 C2072 1.349 . S
C2071 C2073 1.327 . S
C2071 H2094 0.950 . S
C2072 C2071 1.349 . S
C2072 C2084 1.349 . S
C2073 C2071 1.327 . S
C2073 C2089 1.429 . S
C2073 H2095 0.950 . S
C2074 H2070 0.949 . S
C2074 C2082 1.574 . S
C2074 C2090 1.368 . S
H2075 C2083 0.950 . S
H2076 C2081 0.950 . S
H2077 C2082 0.949 . S
H2078 C2084 0.950 . S
H2079 C2085 0.950 . S
H2080 C2086 0.949 . S
C2081 H2076 0.950 . S
C2081 C2083 1.327 . S
C2081 C2087 1.429 . S
C2082 C2074 1.574 . S
C2082 H2077 0.949 . S
C2082 C2088 1.368 . S
C2083 C2067 1.349 . S
C2083 H2075 0.950 . S
C2083 C2081 1.327 . S
C2084 C2072 1.349 . S
C2084 H2078 0.950 . S
C2084 C2085 1.327 . S
C2085 H2079 0.950 . S
C2085 C2084 1.327 . S
C2085 C2089 1.429 . S
C2086 C2069 1.574 . S
C2086 H2080 0.949 . S
C2086 C2090 1.368 . S
C2087 C2068 1.429 . S
C2087 C2081 1.429 . S
C2087 C2088 1.523 . S
C2088 C2069 1.368 . S
C2088 C2082 1.368 . S
C2088 C2087 1.523 . S
C2089 C2073 1.429 . S
C2089 C2085 1.429 . S
C2089 C2090 1.523 . S
C2090 C2074 1.368 . S
C2090 C2086 1.368 . S
C2090 C2089 1.523 . S
H2091 C2066 0.950 . S
H2092 C2068 0.950 . S
H2093 C2069 0.949 . S
H2094 C2071 0.950 . S
H2095 C2073 0.950 . S
C2096 C2097 1.349 . S
C2096 C2098 1.327 . S
C2096 H2121 0.950 . S
C2097 C2096 1.349 . S
C2097 C2113 1.349 . S
C2098 C2096 1.327 . S
C2098 C2117 1.429 . S
C2098 H2122 0.950 . S
C2099 C2116 1.574 . S
C2099 C2118 1.368 . S
C2099 H2123 0.949 . S
H2100 C2104 0.949 . S
C2101 C2102 1.349 . S
C2101 C2103 1.327 . S
C2101 H2124 0.950 . S
C2102 C2101 1.349 . S
C2102 C2114 1.349 . S
C2103 C2101 1.327 . S
C2103 C2119 1.429 . S
C2103 H2125 0.950 . S
C2104 H2100 0.949 . S
C2104 C2112 1.574 . S
C2104 C2120 1.368 . S
H2105 C2113 0.950 . S
H2106 C2111 0.950 . S
H2107 C2112 0.949 . S
H2108 C2114 0.950 . S
H2109 C2115 0.950 . S
H2110 C2116 0.949 . S
C2111 H2106 0.950 . S
C2111 C2113 1.327 . S
C2111 C2117 1.429 . S
C2112 C2104 1.574 . S
C2112 H2107 0.949 . S
C2112 C2118 1.368 . S
C2113 C2097 1.349 . S
C2113 H2105 0.950 . S
C2113 C2111 1.327 . S
C2114 C2102 1.349 . S
C2114 H2108 0.950 . S
C2114 C2115 1.327 . S
C2115 H2109 0.950 . S
C2115 C2114 1.327 . S
C2115 C2119 1.429 . S
C2116 C2099 1.574 . S
C2116 H2110 0.949 . S
C2116 C2120 1.368 . S
C2117 C2098 1.429 . S
C2117 C2111 1.429 . S
C2117 C2118 1.523 . S
C2118 C2099 1.368 . S
C2118 C2112 1.368 . S
C2118 C2117 1.523 . S
C2119 C2103 1.429 . S
C2119 C2115 1.429 . S
C2119 C2120 1.523 . S
C2120 C2104 1.368 . S
C2120 C2116 1.368 . S
C2120 C2119 1.523 . S
H2121 C2096 0.950 . S
H2122 C2098 0.950 . S
H2123 C2099 0.949 . S
H2124 C2101 0.950 . S
H2125 C2103 0.950 . S
C2126 C2127 1.349 . S
C2126 C2128 1.327 . S
C2126 H2151 0.950 . S
C2127 C2126 1.349 . S
C2127 C2143 1.349 . S
C2128 C2126 1.327 . S
C2128 C2147 1.429 . S
C2128 H2152 0.950 . S
C2129 C2146 1.574 . S
C2129 C2148 1.368 . S
C2129 H2153 0.949 . S
H2130 C2134 0.949 . S
C2131 C2132 1.349 . S
C2131 C2133 1.327 . S
C2131 H2154 0.950 . S
C2132 C2131 1.349 . S
C2132 C2144 1.349 . S
C2133 C2131 1.327 . S
C2133 C2149 1.429 . S
C2133 H2155 0.950 . S
C2134 H2130 0.949 . S
C2134 C2142 1.574 . S
C2134 C2150 1.368 . S
H2135 C2143 0.950 . S
H2136 C2141 0.950 . S
H2137 C2142 0.949 . S
H2138 C2144 0.950 . S
H2139 C2145 0.950 . S
H2140 C2146 0.949 . S
C2141 H2136 0.950 . S
C2141 C2143 1.327 . S
C2141 C2147 1.429 . S
C2142 C2134 1.574 . S
C2142 H2137 0.949 . S
C2142 C2148 1.368 . S
C2143 C2127 1.349 . S
C2143 H2135 0.950 . S
C2143 C2141 1.327 . S
C2144 C2132 1.349 . S
C2144 H2138 0.950 . S
C2144 C2145 1.327 . S
C2145 H2139 0.950 . S
C2145 C2144 1.327 . S
C2145 C2149 1.429 . S
C2146 C2129 1.574 . S
C2146 H2140 0.949 . S
C2146 C2150 1.368 . S
C2147 C2128 1.429 . S
C2147 C2141 1.429 . S
C2147 C2148 1.523 . S
C2148 C2129 1.368 . S
C2148 C2142 1.368 . S
C2148 C2147 1.523 . S
C2149 C2133 1.429 . S
C2149 C2145 1.429 . S
C2149 C2150 1.523 . S
C2150 C2134 1.368 . S
C2150 C2146 1.368 . S
C2150 C2149 1.523 . S
H2151 C2126 0.950 . S
H2152 C2128 0.950 . S
H2153 C2129 0.949 . S
H2154 C2131 0.950 . S
H2155 C2133 0.950 . S
C2156 C2157 1.349 . S
C2156 C2158 1.327 . S
C2156 H2181 0.950 . S
C2157 C2156 1.349 . S
C2157 C2173 1.349 . S
C2158 C2156 1.327 . S
C2158 C2177 1.429 . S
C2158 H2182 0.950 . S
C2159 C2176 1.574 . S
C2159 C2178 1.368 . S
C2159 H2183 0.949 . S
H2160 C2164 0.949 . S
C2161 C2162 1.349 . S
C2161 C2163 1.327 . S
C2161 H2184 0.950 . S
C2162 C2161 1.349 . S
C2162 C2174 1.349 . S
C2163 C2161 1.327 . S
C2163 C2179 1.429 . S
C2163 H2185 0.950 . S
C2164 H2160 0.949 . S
C2164 C2172 1.574 . S
C2164 C2180 1.368 . S
H2165 C2173 0.950 . S
H2166 C2171 0.950 . S
H2167 C2172 0.949 . S
H2168 C2174 0.950 . S
H2169 C2175 0.950 . S
H2170 C2176 0.949 . S
C2171 H2166 0.950 . S
C2171 C2173 1.327 . S
C2171 C2177 1.429 . S
C2172 C2164 1.574 . S
C2172 H2167 0.949 . S
C2172 C2178 1.368 . S
C2173 C2157 1.349 . S
C2173 H2165 0.950 . S
C2173 C2171 1.327 . S
C2174 C2162 1.349 . S
C2174 H2168 0.950 . S
C2174 C2175 1.327 . S
C2175 H2169 0.950 . S
C2175 C2174 1.327 . S
C2175 C2179 1.429 . S
C2176 C2159 1.574 . S
C2176 H2170 0.949 . S
C2176 C2180 1.368 . S
C2177 C2158 1.429 . S
C2177 C2171 1.429 . S
C2177 C2178 1.523 . S
C2178 C2159 1.368 . S
C2178 C2172 1.368 . S
C2178 C2177 1.523 . S
C2179 C2163 1.429 . S
C2179 C2175 1.429 . S
C2179 C2180 1.523 . S
C2180 C2164 1.368 . S
C2180 C2176 1.368 . S
C2180 C2179 1.523 . S
H2181 C2156 0.950 . S
H2182 C2158 0.950 . S
H2183 C2159 0.949 . S
H2184 C2161 0.950 . S
H2185 C2163 0.950 . S
C2186 C2187 1.349 . S
C2186 C2188 1.327 . S
C2186 H2211 0.950 . S
C2187 C2186 1.349 . S
C2187 C2203 1.349 . S
C2188 C2186 1.327 . S
C2188 C2207 1.429 . S
C2188 H2212 0.950 . S
C2189 C2206 1.574 . S
C2189 C2208 1.368 . S
C2189 H2213 0.949 . S
H2190 C2194 0.949 . S
C2191 C2192 1.349 . S
C2191 C2193 1.327 . S
C2191 H2214 0.950 . S
C2192 C2191 1.349 . S
C2192 C2204 1.349 . S
C2193 C2191 1.327 . S
C2193 C2209 1.429 . S
C2193 H2215 0.950 . S
C2194 H2190 0.949 . S
C2194 C2202 1.574 . S
C2194 C2210 1.368 . S
H2195 C2203 0.950 . S
H2196 C2201 0.950 . S
H2197 C2202 0.949 . S
H2198 C2204 0.950 . S
H2199 C2205 0.950 . S
H2200 C2206 0.949 . S
C2201 H2196 0.950 . S
C2201 C2203 1.327 . S
C2201 C2207 1.429 . S
C2202 C2194 1.574 . S
C2202 H2197 0.949 . S
C2202 C2208 1.368 . S
C2203 C2187 1.349 . S
C2203 H2195 0.950 . S
C2203 C2201 1.327 . S
C2204 C2192 1.349 . S
C2204 H2198 0.950 . S
C2204 C2205 1.327 . S
C2205 H2199 0.950 . S
C2205 C2204 1.327 . S
C2205 C2209 1.429 . S
C2206 C2189 1.574 . S
C2206 H2200 0.949 . S
C2206 C2210 1.368 . S
C2207 C2188 1.429 . S
C2207 C2201 1.429 . S
C2207 C2208 1.523 . S
C2208 C2189 1.368 . S
C2208 C2202 1.368 . S
C2208 C2207 1.523 . S
C2209 C2193 1.429 . S
C2209 C2205 1.429 . S
C2209 C2210 1.523 . S
C2210 C2194 1.368 . S
C2210 C2206 1.368 . S
C2210 C2209 1.523 . S
H2211 C2186 0.950 . S
H2212 C2188 0.950 . S
H2213 C2189 0.949 . S
H2214 C2191 0.950 . S
H2215 C2193 0.950 . S
C2216 C2217 1.349 . S
C2216 C2218 1.327 . S
C2216 H2241 0.950 . S
C2217 C2216 1.349 . S
C2217 C2233 1.349 . S
C2218 C2216 1.327 . S
C2218 C2237 1.429 . S
C2218 H2242 0.950 . S
C2219 C2236 1.574 . S
C2219 C2238 1.368 . S
C2219 H2243 0.949 . S
H2220 C2224 0.949 . S
C2221 C2222 1.349 . S
C2221 C2223 1.327 . S
C2221 H2244 0.950 . S
C2222 C2221 1.349 . S
C2222 C2234 1.349 . S
C2223 C2221 1.327 . S
C2223 C2239 1.429 . S
C2223 H2245 0.950 . S
C2224 H2220 0.949 . S
C2224 C2232 1.574 . S
C2224 C2240 1.368 . S
H2225 C2233 0.950 . S
H2226 C2231 0.950 . S
H2227 C2232 0.949 . S
H2228 C2234 0.950 . S
H2229 C2235 0.950 . S
H2230 C2236 0.949 . S
C2231 H2226 0.950 . S
C2231 C2233 1.327 . S
C2231 C2237 1.429 . S
C2232 C2224 1.574 . S
C2232 H2227 0.949 . S
C2232 C2238 1.368 . S
C2233 C2217 1.349 . S
C2233 H2225 0.950 . S
C2233 C2231 1.327 . S
C2234 C2222 1.349 . S
C2234 H2228 0.950 . S
C2234 C2235 1.327 . S
C2235 H2229 0.950 . S
C2235 C2234 1.327 . S
C2235 C2239 1.429 . S
C2236 C2219 1.574 . S
C2236 H2230 0.949 . S
C2236 C2240 1.368 . S
C2237 C2218 1.429 . S
C2237 C2231 1.429 . S
C2237 C2238 1.523 . S
C2238 C2219 1.368 . S
C2238 C2232 1.368 . S
C2238 C2237 1.523 . S
C2239 C2223 1.429 . S
C2239 C2235 1.429 . S
C2239 C2240 1.523 . S
C2240 C2224 1.368 . S
C2240 C2236 1.368 . S
C2240 C2239 1.523 . S
H2241 C2216 0.950 . S
H2242 C2218 0.950 . S
H2243 C2219 0.949 . S
H2244 C2221 0.950 . S
H2245 C2223 0.950 . S
C2246 C2247 1.349 . S
C2246 C2248 1.327 . S
C2246 H2271 0.950 . S
C2247 C2246 1.349 . S
C2247 C2263 1.349 . S
C2248 C2246 1.327 . S
C2248 C2267 1.429 . S
C2248 H2272 0.950 . S
C2249 C2266 1.574 . S
C2249 C2268 1.368 . S
C2249 H2273 0.949 . S
H2250 C2254 0.949 . S
C2251 C2252 1.349 . S
C2251 C2253 1.327 . S
C2251 H2274 0.950 . S
C2252 C2251 1.349 . S
C2252 C2264 1.349 . S
C2253 C2251 1.327 . S
C2253 C2269 1.429 . S
C2253 H2275 0.950 . S
C2254 H2250 0.949 . S
C2254 C2262 1.574 . S
C2254 C2270 1.368 . S
H2255 C2263 0.950 . S
H2256 C2261 0.950 . S
H2257 C2262 0.949 . S
H2258 C2264 0.950 . S
H2259 C2265 0.950 . S
H2260 C2266 0.949 . S
C2261 H2256 0.950 . S
C2261 C2263 1.327 . S
C2261 C2267 1.429 . S
C2262 C2254 1.574 . S
C2262 H2257 0.949 . S
C2262 C2268 1.368 . S
C2263 C2247 1.349 . S
C2263 H2255 0.950 . S
C2263 C2261 1.327 . S
C2264 C2252 1.349 . S
C2264 H2258 0.950 . S
C2264 C2265 1.327 . S
C2265 H2259 0.950 . S
C2265 C2264 1.327 . S
C2265 C2269 1.429 . S
C2266 C2249 1.574 . S
C2266 H2260 0.949 . S
C2266 C2270 1.368 . S
C2267 C2248 1.429 . S
C2267 C2261 1.429 . S
C2267 C2268 1.523 . S
C2268 C2249 1.368 . S
C2268 C2262 1.368 . S
C2268 C2267 1.523 . S
C2269 C2253 1.429 . S
C2269 C2265 1.429 . S
C2269 C2270 1.523 . S
C2270 C2254 1.368 . S
C2270 C2266 1.368 . S
C2270 C2269 1.523 . S
H2271 C2246 0.950 . S
H2272 C2248 0.950 . S
H2273 C2249 0.949 . S
H2274 C2251 0.950 . S
H2275 C2253 0.950 . S
C2276 C2277 1.349 . S
C2276 C2278 1.327 . S
C2276 H2301 0.950 . S
C2277 C2276 1.349 . S
C2277 C2293 1.349 . S
C2278 C2276 1.327 . S
C2278 C2297 1.429 . S
C2278 H2302 0.950 . S
C2279 C2296 1.574 . S
C2279 C2298 1.368 . S
C2279 H2303 0.949 . S
H2280 C2284 0.949 . S
C2281 C2282 1.349 . S
C2281 C2283 1.327 . S
C2281 H2304 0.950 . S
C2282 C2281 1.349 . S
C2282 C2294 1.349 . S
C2283 C2281 1.327 . S
C2283 C2299 1.429 . S
C2283 H2305 0.950 . S
C2284 H2280 0.949 . S
C2284 C2292 1.574 . S
C2284 C2300 1.368 . S
H2285 C2293 0.950 . S
H2286 C2291 0.950 . S
H2287 C2292 0.949 . S
H2288 C2294 0.950 . S
H2289 C2295 0.950 . S
H2290 C2296 0.949 . S
C2291 H2286 0.950 . S
C2291 C2293 1.327 . S
C2291 C2297 1.429 . S
C2292 C2284 1.574 . S
C2292 H2287 0.949 . S
C2292 C2298 1.368 . S
C2293 C2277 1.349 . S
C2293 H2285 0.950 . S
C2293 C2291 1.327 . S
C2294 C2282 1.349 . S
C2294 H2288 0.950 . S
C2294 C2295 1.327 . S
C2295 H2289 0.950 . S
C2295 C2294 1.327 . S
C2295 C2299 1.429 . S
C2296 C2279 1.574 . S
C2296 H2290 0.949 . S
C2296 C2300 1.368 . S
C2297 C2278 1.429 . S
C2297 C2291 1.429 . S
C2297 C2298 1.523 . S
C2298 C2279 1.368 . S
C2298 C2292 1.368 . S
C2298 C2297 1.523 . S
C2299 C2283 1.429 . S
C2299 C2295 1.429 . S
C2299 C2300 1.523 . S
C2300 C2284 1.368 . S
C2300 C2296 1.368 . S
C2300 C2299 1.523 . S
H2301 C2276 0.950 . S
H2302 C2278 0.950 . S
H2303 C2279 0.949 . S
H2304 C2281 0.950 . S
H2305 C2283 0.950 . S
C2306 C2307 1.349 . S
C2306 C2308 1.327 . S
C2306 H2331 0.950 . S
C2307 C2306 1.349 . S
C2307 C2323 1.349 . S
C2308 C2306 1.327 . S
C2308 C2327 1.429 . S
C2308 H2332 0.950 . S
C2309 C2326 1.574 . S
C2309 C2328 1.368 . S
C2309 H2333 0.949 . S
H2310 C2314 0.949 . S
C2311 C2312 1.349 . S
C2311 C2313 1.327 . S
C2311 H2334 0.950 . S
C2312 C2311 1.349 . S
C2312 C2324 1.349 . S
C2313 C2311 1.327 . S
C2313 C2329 1.429 . S
C2313 H2335 0.950 . S
C2314 H2310 0.949 . S
C2314 C2322 1.574 . S
C2314 C2330 1.368 . S
H2315 C2323 0.950 . S
H2316 C2321 0.950 . S
H2317 C2322 0.949 . S
H2318 C2324 0.950 . S
H2319 C2325 0.950 . S
H2320 C2326 0.949 . S
C2321 H2316 0.950 . S
C2321 C2323 1.327 . S
C2321 C2327 1.429 . S
C2322 C2314 1.574 . S
C2322 H2317 0.949 . S
C2322 C2328 1.368 . S
C2323 C2307 1.349 . S
C2323 H2315 0.950 . S
C2323 C2321 1.327 . S
C2324 C2312 1.349 . S
C2324 H2318 0.950 . S
C2324 C2325 1.327 . S
C2325 H2319 0.950 . S
C2325 C2324 1.327 . S
C2325 C2329 1.429 . S
C2326 C2309 1.574 . S
C2326 H2320 0.949 . S
C2326 C2330 1.368 . S
C2327 C2308 1.429 . S
C2327 C2321 1.429 . S
C2327 C2328 1.523 . S
C2328 C2309 1.368 . S
C2328 C2322 1.368 . S
C2328 C2327 1.523 . S
C2329 C2313 1.429 . S
C2329 C2325 1.429 . S
C2329 C2330 1.523 . S
C2330 C2314 1.368 . S
C2330 C2326 1.368 . S
C2330 C2329 1.523 . S
H2331 C2306 0.950 . S
H2332 C2308 0.950 . S
H2333 C2309 0.949 . S
H2334 C2311 0.950 . S
H2335 C2313 0.950 . S
C417 C354 1.471 . S
C422 C5 1.471 . S
C447 C16 1.480 . S
C452 C108 1.463 . S
C477 C328 1.471 . S
C482 C29 1.471 . S
C507 C42 1.460 . S
C512 C140 1.463 . S
C537 C55 1.471 . S
C542 C380 1.471 . S
C567 C68 1.460 . S
C572 C192 1.463 . S
C597 C83 1.471 . S
C602 C406 1.471 . S
C627 C96 1.480 . S
C632 C166 1.463 . S
C657 C251 1.477 . S
C662 C107 1.474 . S
C687 C10 1.462 . S
C692 C127 1.463 1_455 S
C717 C225 1.477 . S
C722 C135 1.474 . S
C747 C153 1.462 . S
C752 C30 1.462 . S
C777 C277 1.477 . S
C782 C161 1.474 . S
C807 C88 1.462 . S
C812 C173 1.462 . S
C837 C187 1.474 . S
C842 C309 1.477 . S
C867 C56 1.462 . S
C872 C199 1.463 1_455 S
C897 C211 1.471 . S
C902 C148 1.471 . S
C927 C224 1.460 . S
C932 C316 1.463 . S
C957 C122 1.471 . S
C962 C237 1.471 . S
C987 C342 1.463 . S
C992 C250 1.480 . S
C1017 C172 1.471 . S
C1022 C263 1.471 . S
C1047 C394 1.463 . S
C1052 C276 1.480 . S
C1077 C198 1.471 . S
C1082 C289 1.471 . S
C1107 C304 1.460 . S
C1112 C368 1.463 . S
C1137 C43 1.477 . S
C1142 C315 1.474 . S
C1167 C329 1.462 . S
C1172 C212 1.462 . S
C1197 C341 1.474 . S
C1202 C17 1.477 . S
C1227 C355 1.463 1_655 S
C1232 C238 1.462 . S
C1257 C367 1.474 . S
C1262 C69 1.477 . S
C1287 C381 1.463 1_655 S
C1292 C290 1.462 . S
C1317 C393 1.474 . S
C1322 C101 1.477 . S
C1347 C407 1.462 . S
C1352 C264 1.462 . S
C1377 C317 1.532 . S
C1382 C3 1.532 . S
C1407 C18 1.536 . S
C1412 C121 1.533 . S
C1437 C343 1.532 . S
C1442 C31 1.532 . S
C1467 C44 1.536 . S
C1472 C147 1.533 . S
C1497 C369 1.532 . S
C1502 C57 1.532 . S
C1527 C70 1.536 . S
C1532 C179 1.533 . S
C1557 C395 1.532 . S
C1562 C81 1.532 . S
C1587 C94 1.536 . S
C1592 C205 1.533 . S
C1617 C109 1.532 . S
C1622 C213 1.532 . S
C1647 C133 1.532 . S
C1652 C239 1.532 . S
C1677 C159 1.532 . S
C1682 C265 1.532 . S
C1707 C185 1.532 . S
C1712 C291 1.532 . S
C1737 C226 1.536 . S
C1742 C335 1.533 . S
C1767 C361 1.533 . S
C1772 C252 1.536 . S
C1797 C387 1.533 . S
C1802 C278 1.536 . S
C1827 C302 1.536 . S
C1832 C413 1.533 . S
C1857 C4 1.354 . S
C1862 C75 1.355 1_545 S
C1887 C23 1.355 1_545 S
C1892 C82 1.354 . S
C1917 C36 1.354 . S
C1922 C95 1.355 1_565 S
C1947 C62 1.354 . S
C1952 C49 1.355 1_565 S
C1977 C114 1.357 . S
C1982 C174 1.356 1_565 S
C2007 C120 1.356 1_565 S
C2012 C186 1.357 . S
C2037 C134 1.357 . S
C2042 C200 1.356 1_545 S
C2067 C146 1.356 1_545 S
C2072 C160 1.357 . S
C2097 C218 1.354 . S
C2102 C283 1.355 . S
C2127 C296 1.354 . S
C2132 C231 1.355 . S
C2157 C244 1.354 . S
C2162 C303 1.355 . S
C2187 C257 1.355 . S
C2192 C270 1.354 . S
C2217 C382 1.356 . S
C2222 C322 1.356 . S
C2247 C330 1.356 . S
C2252 C400 1.356 . S
C2277 C408 1.356 . S
C2282 C348 1.356 . S
C2307 C356 1.356 . S
C2312 C374 1.356 . S
