# Generated by pormake.
# Topology wna, (6)-cn, num edge types: 1
# Building blocks:
#     Node 0, Type 0, BuildingBlock: FUNLAD_clean_sbu_0, # of connection points: 6
#     Node 1, Type 0, BuildingBlock: FUNLAD_clean_sbu_0, # of connection points: 6
#     Node 2, Type 0, BuildingBlock: FUNLAD_clean_sbu_0, # of connection points: 6
#     Node 3, Type 0, BuildingBlock: FUNLAD_clean_sbu_0, # of connection points: 6
#     Node 4, Type 0, BuildingBlock: FUNLAD_clean_sbu_0, # of connection points: 6
#     Node 5, Type 0, BuildingBlock: FUNLAD_clean_sbu_0, # of connection points: 6
#     Node 6, Type 0, BuildingBlock: FUNLAD_clean_sbu_0, # of connection points: 6
#     Node 7, Type 0, BuildingBlock: FUNLAD_clean_sbu_0, # of connection points: 6
#     Node 8, Type 0, BuildingBlock: FUNLAD_clean_sbu_0, # of connection points: 6
#     Node 9, Type 0, BuildingBlock: FUNLAD_clean_sbu_0, # of connection points: 6
#     Node 10, Type 0, BuildingBlock: FUNLAD_clean_sbu_0, # of connection points: 6
#     Node 11, Type 0, BuildingBlock: FUNLAD_clean_sbu_0, # of connection points: 6
#     Node 12, Type 0, BuildingBlock: FUNLAD_clean_sbu_0, # of connection points: 6
#     Node 13, Type 0, BuildingBlock: FUNLAD_clean_sbu_0, # of connection points: 6
#     Node 14, Type 0, BuildingBlock: FUNLAD_clean_sbu_0, # of connection points: 6
#     Node 15, Type 0, BuildingBlock: FUNLAD_clean_sbu_0, # of connection points: 6
#     Node 16, Type 0, BuildingBlock: FUNLAD_clean_sbu_0, # of connection points: 6
#     Node 17, Type 0, BuildingBlock: FUNLAD_clean_sbu_0, # of connection points: 6
#     Node 18, Type 0, BuildingBlock: FUNLAD_clean_sbu_0, # of connection points: 6
#     Node 19, Type 0, BuildingBlock: FUNLAD_clean_sbu_0, # of connection points: 6
#     Node 20, Type 0, BuildingBlock: FUNLAD_clean_sbu_0, # of connection points: 6
#     Node 21, Type 0, BuildingBlock: FUNLAD_clean_sbu_0, # of connection points: 6
#     Node 22, Type 0, BuildingBlock: FUNLAD_clean_sbu_0, # of connection points: 6
#     Node 23, Type 0, BuildingBlock: FUNLAD_clean_sbu_0, # of connection points: 6
#     Node 24, Type 0, BuildingBlock: FUNLAD_clean_sbu_0, # of connection points: 6
#     Node 25, Type 0, BuildingBlock: FUNLAD_clean_sbu_0, # of connection points: 6
#     Node 26, Type 0, BuildingBlock: FUNLAD_clean_sbu_0, # of connection points: 6
#     Node 27, Type 0, BuildingBlock: FUNLAD_clean_sbu_0, # of connection points: 6
#     Node 28, Type 0, BuildingBlock: FUNLAD_clean_sbu_0, # of connection points: 6
#     Node 29, Type 0, BuildingBlock: FUNLAD_clean_sbu_0, # of connection points: 6
#     Node 30, Type 0, BuildingBlock: FUNLAD_clean_sbu_0, # of connection points: 6
#     Node 31, Type 0, BuildingBlock: FUNLAD_clean_sbu_0, # of connection points: 6
#     Node 32, Type 0, BuildingBlock: FUNLAD_clean_sbu_0, # of connection points: 6
#     Node 33, Type 0, BuildingBlock: FUNLAD_clean_sbu_0, # of connection points: 6
#     Node 34, Type 0, BuildingBlock: FUNLAD_clean_sbu_0, # of connection points: 6
#     Node 35, Type 0, BuildingBlock: FUNLAD_clean_sbu_0, # of connection points: 6
#     Edge 36, Type (0, 0), BuildingBlock: OJICUG_clean_linker_0, # of connection points: 2
#     Edge 37, Type (0, 0), BuildingBlock: OJICUG_clean_linker_0, # of connection points: 2
#     Edge 38, Type (0, 0), BuildingBlock: OJICUG_clean_linker_0, # of connection points: 2
#     Edge 39, Type (0, 0), BuildingBlock: OJICUG_clean_linker_0, # of connection points: 2
#     Edge 40, Type (0, 0), BuildingBlock: OJICUG_clean_linker_0, # of connection points: 2
#     Edge 41, Type (0, 0), BuildingBlock: OJICUG_clean_linker_0, # of connection points: 2
#     Edge 42, Type (0, 0), BuildingBlock: OJICUG_clean_linker_0, # of connection points: 2
#     Edge 43, Type (0, 0), BuildingBlock: OJICUG_clean_linker_0, # of connection points: 2
#     Edge 44, Type (0, 0), BuildingBlock: OJICUG_clean_linker_0, # of connection points: 2
#     Edge 45, Type (0, 0), BuildingBlock: OJICUG_clean_linker_0, # of connection points: 2
#     Edge 46, Type (0, 0), BuildingBlock: OJICUG_clean_linker_0, # of connection points: 2
#     Edge 47, Type (0, 0), BuildingBlock: OJICUG_clean_linker_0, # of connection points: 2
#     Edge 48, Type (0, 0), BuildingBlock: OJICUG_clean_linker_0, # of connection points: 2
#     Edge 49, Type (0, 0), BuildingBlock: OJICUG_clean_linker_0, # of connection points: 2
#     Edge 50, Type (0, 0), BuildingBlock: OJICUG_clean_linker_0, # of connection points: 2
#     Edge 51, Type (0, 0), BuildingBlock: OJICUG_clean_linker_0, # of connection points: 2
#     Edge 52, Type (0, 0), BuildingBlock: OJICUG_clean_linker_0, # of connection points: 2
#     Edge 53, Type (0, 0), BuildingBlock: OJICUG_clean_linker_0, # of connection points: 2
#     Edge 54, Type (0, 0), BuildingBlock: OJICUG_clean_linker_0, # of connection points: 2
#     Edge 55, Type (0, 0), BuildingBlock: OJICUG_clean_linker_0, # of connection points: 2
#     Edge 56, Type (0, 0), BuildingBlock: OJICUG_clean_linker_0, # of connection points: 2
#     Edge 57, Type (0, 0), BuildingBlock: OJICUG_clean_linker_0, # of connection points: 2
#     Edge 58, Type (0, 0), BuildingBlock: OJICUG_clean_linker_0, # of connection points: 2
#     Edge 59, Type (0, 0), BuildingBlock: OJICUG_clean_linker_0, # of connection points: 2
#     Edge 60, Type (0, 0), BuildingBlock: OJICUG_clean_linker_0, # of connection points: 2
#     Edge 61, Type (0, 0), BuildingBlock: OJICUG_clean_linker_0, # of connection points: 2
#     Edge 62, Type (0, 0), BuildingBlock: OJICUG_clean_linker_0, # of connection points: 2
#     Edge 63, Type (0, 0), BuildingBlock: OJICUG_clean_linker_0, # of connection points: 2
#     Edge 64, Type (0, 0), BuildingBlock: OJICUG_clean_linker_0, # of connection points: 2
#     Edge 65, Type (0, 0), BuildingBlock: OJICUG_clean_linker_0, # of connection points: 2
#     Edge 66, Type (0, 0), BuildingBlock: OJICUG_clean_linker_0, # of connection points: 2
#     Edge 67, Type (0, 0), BuildingBlock: OJICUG_clean_linker_0, # of connection points: 2
#     Edge 68, Type (0, 0), BuildingBlock: OJICUG_clean_linker_0, # of connection points: 2
#     Edge 69, Type (0, 0), BuildingBlock: OJICUG_clean_linker_0, # of connection points: 2
#     Edge 70, Type (0, 0), BuildingBlock: OJICUG_clean_linker_0, # of connection points: 2
#     Edge 71, Type (0, 0), BuildingBlock: OJICUG_clean_linker_0, # of connection points: 2
#     Edge 72, Type (0, 0), BuildingBlock: OJICUG_clean_linker_0, # of connection points: 2
#     Edge 73, Type (0, 0), BuildingBlock: OJICUG_clean_linker_0, # of connection points: 2
#     Edge 74, Type (0, 0), BuildingBlock: OJICUG_clean_linker_0, # of connection points: 2
#     Edge 75, Type (0, 0), BuildingBlock: OJICUG_clean_linker_0, # of connection points: 2
#     Edge 76, Type (0, 0), BuildingBlock: OJICUG_clean_linker_0, # of connection points: 2
#     Edge 77, Type (0, 0), BuildingBlock: OJICUG_clean_linker_0, # of connection points: 2
#     Edge 78, Type (0, 0), BuildingBlock: OJICUG_clean_linker_0, # of connection points: 2
#     Edge 79, Type (0, 0), BuildingBlock: OJICUG_clean_linker_0, # of connection points: 2
#     Edge 80, Type (0, 0), BuildingBlock: OJICUG_clean_linker_0, # of connection points: 2
#     Edge 81, Type (0, 0), BuildingBlock: OJICUG_clean_linker_0, # of connection points: 2
#     Edge 82, Type (0, 0), BuildingBlock: OJICUG_clean_linker_0, # of connection points: 2
#     Edge 83, Type (0, 0), BuildingBlock: OJICUG_clean_linker_0, # of connection points: 2
#     Edge 84, Type (0, 0), BuildingBlock: OJICUG_clean_linker_0, # of connection points: 2
#     Edge 85, Type (0, 0), BuildingBlock: OJICUG_clean_linker_0, # of connection points: 2
#     Edge 86, Type (0, 0), BuildingBlock: OJICUG_clean_linker_0, # of connection points: 2
#     Edge 87, Type (0, 0), BuildingBlock: OJICUG_clean_linker_0, # of connection points: 2
#     Edge 88, Type (0, 0), BuildingBlock: OJICUG_clean_linker_0, # of connection points: 2
#     Edge 89, Type (0, 0), BuildingBlock: OJICUG_clean_linker_0, # of connection points: 2
#     Edge 90, Type (0, 0), BuildingBlock: OJICUG_clean_linker_0, # of connection points: 2
#     Edge 91, Type (0, 0), BuildingBlock: OJICUG_clean_linker_0, # of connection points: 2
#     Edge 92, Type (0, 0), BuildingBlock: OJICUG_clean_linker_0, # of connection points: 2
#     Edge 93, Type (0, 0), BuildingBlock: OJICUG_clean_linker_0, # of connection points: 2
#     Edge 94, Type (0, 0), BuildingBlock: OJICUG_clean_linker_0, # of connection points: 2
#     Edge 95, Type (0, 0), BuildingBlock: OJICUG_clean_linker_0, # of connection points: 2
#     Edge 96, Type (0, 0), BuildingBlock: OJICUG_clean_linker_0, # of connection points: 2
#     Edge 97, Type (0, 0), BuildingBlock: OJICUG_clean_linker_0, # of connection points: 2
#     Edge 98, Type (0, 0), BuildingBlock: OJICUG_clean_linker_0, # of connection points: 2
#     Edge 99, Type (0, 0), BuildingBlock: OJICUG_clean_linker_0, # of connection points: 2
#     Edge 100, Type (0, 0), BuildingBlock: OJICUG_clean_linker_0, # of connection points: 2
#     Edge 101, Type (0, 0), BuildingBlock: OJICUG_clean_linker_0, # of connection points: 2
#     Edge 102, Type (0, 0), BuildingBlock: OJICUG_clean_linker_0, # of connection points: 2
#     Edge 103, Type (0, 0), BuildingBlock: OJICUG_clean_linker_0, # of connection points: 2
#     Edge 104, Type (0, 0), BuildingBlock: OJICUG_clean_linker_0, # of connection points: 2
#     Edge 105, Type (0, 0), BuildingBlock: OJICUG_clean_linker_0, # of connection points: 2
#     Edge 106, Type (0, 0), BuildingBlock: OJICUG_clean_linker_0, # of connection points: 2
#     Edge 107, Type (0, 0), BuildingBlock: OJICUG_clean_linker_0, # of connection points: 2
#     Edge 108, Type (0, 0), BuildingBlock: OJICUG_clean_linker_0, # of connection points: 2
#     Edge 109, Type (0, 0), BuildingBlock: OJICUG_clean_linker_0, # of connection points: 2
#     Edge 110, Type (0, 0), BuildingBlock: OJICUG_clean_linker_0, # of connection points: 2
#     Edge 111, Type (0, 0), BuildingBlock: OJICUG_clean_linker_0, # of connection points: 2
#     Edge 112, Type (0, 0), BuildingBlock: OJICUG_clean_linker_0, # of connection points: 2
#     Edge 113, Type (0, 0), BuildingBlock: OJICUG_clean_linker_0, # of connection points: 2
#     Edge 114, Type (0, 0), BuildingBlock: OJICUG_clean_linker_0, # of connection points: 2
#     Edge 115, Type (0, 0), BuildingBlock: OJICUG_clean_linker_0, # of connection points: 2
#     Edge 116, Type (0, 0), BuildingBlock: OJICUG_clean_linker_0, # of connection points: 2
#     Edge 117, Type (0, 0), BuildingBlock: OJICUG_clean_linker_0, # of connection points: 2
#     Edge 118, Type (0, 0), BuildingBlock: OJICUG_clean_linker_0, # of connection points: 2
#     Edge 119, Type (0, 0), BuildingBlock: OJICUG_clean_linker_0, # of connection points: 2
#     Edge 120, Type (0, 0), BuildingBlock: OJICUG_clean_linker_0, # of connection points: 2
#     Edge 121, Type (0, 0), BuildingBlock: OJICUG_clean_linker_0, # of connection points: 2
#     Edge 122, Type (0, 0), BuildingBlock: OJICUG_clean_linker_0, # of connection points: 2
#     Edge 123, Type (0, 0), BuildingBlock: OJICUG_clean_linker_0, # of connection points: 2
#     Edge 124, Type (0, 0), BuildingBlock: OJICUG_clean_linker_0, # of connection points: 2
#     Edge 125, Type (0, 0), BuildingBlock: OJICUG_clean_linker_0, # of connection points: 2
#     Edge 126, Type (0, 0), BuildingBlock: OJICUG_clean_linker_0, # of connection points: 2
#     Edge 127, Type (0, 0), BuildingBlock: OJICUG_clean_linker_0, # of connection points: 2
#     Edge 128, Type (0, 0), BuildingBlock: OJICUG_clean_linker_0, # of connection points: 2
#     Edge 129, Type (0, 0), BuildingBlock: OJICUG_clean_linker_0, # of connection points: 2
#     Edge 130, Type (0, 0), BuildingBlock: OJICUG_clean_linker_0, # of connection points: 2
#     Edge 131, Type (0, 0), BuildingBlock: OJICUG_clean_linker_0, # of connection points: 2
#     Edge 132, Type (0, 0), BuildingBlock: OJICUG_clean_linker_0, # of connection points: 2
#     Edge 133, Type (0, 0), BuildingBlock: OJICUG_clean_linker_0, # of connection points: 2
#     Edge 134, Type (0, 0), BuildingBlock: OJICUG_clean_linker_0, # of connection points: 2
#     Edge 135, Type (0, 0), BuildingBlock: OJICUG_clean_linker_0, # of connection points: 2
#     Edge 136, Type (0, 0), BuildingBlock: OJICUG_clean_linker_0, # of connection points: 2
#     Edge 137, Type (0, 0), BuildingBlock: OJICUG_clean_linker_0, # of connection points: 2
#     Edge 138, Type (0, 0), BuildingBlock: OJICUG_clean_linker_0, # of connection points: 2
#     Edge 139, Type (0, 0), BuildingBlock: OJICUG_clean_linker_0, # of connection points: 2
#     Edge 140, Type (0, 0), BuildingBlock: OJICUG_clean_linker_0, # of connection points: 2
#     Edge 141, Type (0, 0), BuildingBlock: OJICUG_clean_linker_0, # of connection points: 2
#     Edge 142, Type (0, 0), BuildingBlock: OJICUG_clean_linker_0, # of connection points: 2
#     Edge 143, Type (0, 0), BuildingBlock: OJICUG_clean_linker_0, # of connection points: 2
# Relax obj value: 0.575
# Max RMSD: 0.295
# Mean RMSD: 0.295
data_MOF--net-wna--node1-FUNLAD_clean_sbu_0--edge1-OJICUG_clean_linker_0
_symmetry_space_group_name_H-M    P1
_symmetry_Int_Tables_number       1
_symmetry_cell_setting            triclinic
loop_
_symmetry_equiv_pos_as_xyz
'x, y, z'
_cell_length_a     37.007377
_cell_length_b     36.947903
_cell_length_c     57.289984
_cell_angle_alpha  89.987235
_cell_angle_beta   89.961585
_cell_angle_gamma 119.98254
loop_
_atom_site_label
_atom_site_type_symbol
_atom_site_fract_x
_atom_site_fract_y
_atom_site_fract_z
_atom_type_partial_charge
C0 C 0.0474 0.22149 0.21209 0.0
N1 N 0.11017 0.18254 0.16338 0.0
C2 C 0.1394 0.18464 0.17858 0.0
C3 C 0.15658 0.1587 0.17584 0.0
C4 C 0.14247 0.12864 0.15785 0.0
C5 C 0.11179 0.12702 0.14263 0.0
C6 C 0.09685 0.15478 0.14539 0.0
Zn7 Zn 0.08772 0.22379 0.166 0.0
C8 C -0.00156 0.18154 0.15245 0.0
N9 N 0.04243 0.30799 0.16706 0.0
C10 C 0.06519 0.34517 0.17824 0.0
C11 C 0.01165 0.30186 0.15188 0.0
C12 C 0.00367 0.33409 0.14689 0.0
C13 C 0.0286 0.37385 0.15688 0.0
C14 C 0.0593 0.3788 0.17309 0.0
Zn15 Zn 0.06194 0.26512 0.16744 0.0
O16 O 0.05961 0.19998 0.20047 0.0
C17 C 0.15242 0.30548 0.18007 0.0
O18 O 0.05018 0.25412 0.20289 0.0
H19 H -0.00564 0.27251 0.14274 0.0
H20 H 0.14997 0.20678 0.19281 0.0
H21 H 0.08945 0.3496 0.19033 0.0
O22 O 0.14296 0.26761 0.18128 0.0
O23 O 0.12522 0.31452 0.17333 0.0
H24 H 0.07446 0.1539 0.13299 0.0
O25 O 0.07265 0.27587 0.13241 0.0
O26 O 0.11471 0.25031 0.13167 0.0
O27 O 0.0 0.21414 0.16089 0.0
O28 O 0.0317 0.17988 0.15075 0.0
C29 C 0.09932 0.27037 0.12166 0.0
H30 H 0.18083 0.16267 0.18783 0.0
H31 H 0.09858 0.10425 0.12877 0.0
H32 H 0.97844 0.3277 0.13504 0.0
H33 H 0.07963 0.40855 0.18129 0.0
C34 C 0.78421 0.83114 0.20488 0.0
N35 N 0.80989 0.9295 0.1571 0.0
C36 C 0.82052 0.95525 0.17593 0.0
C37 C 0.84603 -0.00162 0.17319 0.0
C38 C 0.86053 0.01516 0.15084 0.0
C39 C 0.84815 0.9878 0.1317 0.0
C40 C 0.82298 0.94494 0.13526 0.0
Zn41 Zn 0.77172 0.86672 0.1608 0.0
C42 C 0.81373 0.82166 0.14439 0.0
N43 N 0.69158 0.73843 0.16509 0.0
C44 C 0.65728 0.72419 0.17894 0.0
C45 C 0.69509 0.71333 0.14903 0.0
C46 C 0.66261 0.67268 0.14576 0.0
C47 C 0.62533 0.65807 0.15848 0.0
C48 C 0.62333 0.6843 0.1756 0.0
Zn49 Zn 0.73231 0.8005 0.1635 0.0
O50 O 0.80279 0.86472 0.19287 0.0
C51 C 0.69293 0.84894 0.18003 0.0
O52 O 0.7495 0.80139 0.19781 0.0
H53 H 0.72228 0.72534 0.13792 0.0
H54 H 0.80948 0.94227 0.19311 0.0
H55 H 0.65517 0.74447 0.19178 0.0
O56 O 0.73065 0.87777 0.1797 0.0
O57 O 0.68344 0.81292 0.17263 0.0
H58 H 0.81403 0.92393 0.12052 0.0
O59 O 0.71542 0.79789 0.12929 0.0
O60 O 0.73821 0.865 0.1286 0.0
O61 O 0.78242 0.79103 0.15402 0.0
O62 O 0.81427 0.85611 0.14209 0.0
C63 C 0.71795 0.82925 0.11898 0.0
H64 H 0.85535 0.01816 0.18851 0.0
H65 H 0.85819 -0.00069 0.11413 0.0
H66 H 0.66671 0.65336 0.13305 0.0
H67 H 0.59549 0.67493 0.18586 0.0
C68 C 0.15474 0.94847 0.21584 0.0
N69 N 0.06227 0.88133 0.16388 0.0
C70 C 0.03273 0.86406 0.18084 0.0
C71 C 0.99066 0.84811 0.17534 0.0
C72 C 0.97907 0.84988 0.15216 0.0
C73 C 0.01028 0.86729 0.13503 0.0
C74 C 0.05179 0.88304 0.14131 0.0
Zn75 Zn 0.12374 0.90339 0.17051 0.0
C76 C 0.17353 0.99113 0.15509 0.0
N77 N 0.25176 0.94688 0.17893 0.0
C78 C 0.26502 0.92556 0.19254 0.0
C79 C 0.27737 0.97492 0.16275 0.0
C80 C 0.31695 0.98072 0.15883 0.0
C81 C 0.3302 0.95651 0.17111 0.0
C82 C 0.30421 0.92964 0.18875 0.0
Zn83 Zn 0.1898 0.92729 0.17576 0.0
O84 O 0.12261 0.93442 0.20271 0.0
C85 C 0.13692 0.83971 0.19154 0.0
O86 O 0.18574 0.94488 0.2095 0.0
H87 H 0.26628 0.99091 0.15164 0.0
H88 H 0.04182 0.86286 0.19864 0.0
H89 H 0.24431 0.90334 0.20532 0.0
O90 O 0.10887 0.84944 0.18896 0.0
O91 O 0.17438 0.86596 0.18629 0.0
H92 H 0.07576 0.8967 0.12807 0.0
O93 O 0.19494 0.90996 0.14215 0.0
O94 O 0.12734 0.87171 0.13908 0.0
O95 O 0.20227 0.98789 0.16528 0.0
O96 O 0.13827 0.95866 0.15207 0.0
C97 C 0.16349 0.88177 0.13157 0.0
H98 H 0.96766 0.83559 0.18918 0.0
H99 H 0.00274 0.86897 0.11694 0.0
H100 H 0.3364 0.0032 0.14575 0.0
H101 H 0.31309 0.91054 0.19883 0.0
C102 C 0.19662 0.039 0.30162 0.0
N103 N 0.16807 0.10365 0.35312 0.0
C104 C 0.15764 0.12059 0.33509 0.0
C105 C 0.13197 0.13769 0.33889 0.0
C106 C 0.11681 0.13724 0.36144 0.0
C107 C 0.12824 0.11969 0.37973 0.0
C108 C 0.15406 0.10305 0.37516 0.0
Zn109 Zn 0.20856 0.08222 0.34775 0.0
C110 C 0.17575 -0.00243 0.36348 0.0
N111 N 0.29736 0.04467 0.33716 0.0
C112 C 0.32866 0.06242 0.32116 0.0
C113 C 0.29753 0.01911 0.35417 0.0
C114 C 0.33051 0.01145 0.35602 0.0
C115 C 0.36449 0.03117 0.34064 0.0
C116 C 0.3629 0.05632 0.32269 0.0
Zn117 Zn 0.25495 0.06381 0.34073 0.0
O118 O 0.17661 0.04953 0.31565 0.0
C119 C 0.2834 0.14703 0.32311 0.0
O120 O 0.23201 0.04435 0.30754 0.0
H121 H 0.27301 0.00608 0.3671 0.0
H122 H 0.16932 0.12094 0.31773 0.0
H123 H 0.3281 0.08287 0.30784 0.0
O124 O 0.24595 0.13522 0.3285 0.0
O125 O 0.29864 0.12385 0.32783 0.0
H126 H 0.16311 0.08981 0.38927 0.0
O127 O 0.27956 0.08437 0.37354 0.0
O128 O 0.24304 0.11534 0.37892 0.0
O129 O 0.20854 0.00341 0.35298 0.0
O130 O 0.17009 0.02828 0.36676 0.0
C131 C 0.27265 0.10937 0.38514 0.0
H132 H 0.12324 0.15014 0.3242 0.0
H133 H 0.11732 0.11881 0.39737 0.0
H134 H 0.32945 0.99063 0.36964 0.0
H135 H 0.38832 0.0722 0.31041 0.0
C136 C 0.94816 0.17212 0.29699 0.0
N137 N 0.87243 0.06281 0.33888 0.0
C138 C 0.84787 0.03835 0.32118 0.0
C139 C 0.83031 0.99487 0.32211 0.0
C140 C 0.83899 0.97617 0.34114 0.0
C141 C 0.86473 0.00258 0.35902 0.0
C142 C 0.88031 0.04553 0.35777 0.0
Zn143 Zn 0.89639 0.12661 0.3392 0.0
C144 C 0.98202 0.16931 0.35939 0.0
N145 N 0.94503 0.25659 0.3443 0.0
C146 C 0.93765 0.27749 0.32715 0.0
C147 C 0.96198 0.27512 0.36506 0.0
C148 C 0.971 0.31577 0.36953 0.0
C149 C 0.96403 0.33842 0.35216 0.0
C150 C 0.94738 0.31878 0.33063 0.0
Zn151 Zn 0.92383 0.19449 0.34136 0.0
O152 O 0.93023 0.1356 0.30612 0.0
C153 C 0.83707 0.14946 0.32196 0.0
O154 O 0.94606 0.20134 0.30745 0.0
H155 H 0.96753 0.25795 0.37852 0.0
H156 H 0.84147 0.05241 0.30637 0.0
H157 H 0.92372 0.26193 0.31088 0.0
O158 O 0.84476 0.11972 0.32153 0.0
O159 O 0.86428 0.1848 0.32998 0.0
H160 H 0.89884 0.06499 0.37207 0.0
O161 O 0.9026 0.18821 0.37495 0.0
O162 O 0.86334 0.12036 0.37225 0.0
O163 O 0.98229 0.20249 0.35318 0.0
O164 O 0.94899 0.13436 0.35696 0.0
C165 C 0.87507 0.15409 0.38356 0.0
H166 H 0.81006 0.97637 0.30803 0.0
H167 H 0.87368 0.99071 0.37384 0.0
H168 H 0.98318 0.32912 0.38651 0.0
H169 H 0.94242 0.33518 0.31645 0.0
C170 C 0.83695 0.77842 0.28523 0.0
N171 N 0.92536 0.81219 0.34074 0.0
C172 C 0.95485 0.81119 0.327 0.0
C173 C -0.00296 0.83497 0.33262 0.0
C174 C 0.00993 0.86232 0.35189 0.0
C175 C 0.97858 0.86342 0.36538 0.0
C176 C 0.93655 0.83744 0.35981 0.0
Zn177 Zn 0.86319 0.77132 0.33418 0.0
C178 C 0.81187 0.80943 0.34258 0.0
N179 N 0.73676 0.68398 0.32209 0.0
C180 C 0.72459 0.64677 0.31132 0.0
C181 C 0.71014 0.68911 0.33624 0.0
C182 C 0.67094 0.65557 0.34135 0.0
C183 C 0.65911 0.61571 0.33248 0.0
C184 C 0.68584 0.6119 0.31648 0.0
Zn185 Zn 0.79868 0.727 0.32582 0.0
O186 O 0.86593 0.79916 0.30003 0.0
C187 C 0.85264 0.69164 0.31694 0.0
O188 O 0.80628 0.74315 0.291 0.0
H189 H 0.72025 0.71834 0.34516 0.0
H190 H 0.94589 0.7914 0.31176 0.0
H191 H 0.74595 0.64311 0.30004 0.0
O192 O 0.87923 0.72979 0.31963 0.0
O193 O 0.81431 0.6793 0.32001 0.0
H194 H 0.91292 0.83749 0.37087 0.0
O195 O 0.79059 0.71042 0.36049 0.0
O196 O 0.85734 0.74084 0.36771 0.0
O197 O 0.78569 0.77691 0.3316 0.0
O198 O 0.8465 0.81318 0.34868 0.0
C199 C 0.81991 0.71564 0.37389 0.0
H200 H 0.01893 0.83136 0.32179 0.0
H201 H 0.98588 0.88435 0.38003 0.0
H202 H 0.65079 0.66074 0.35289 0.0
H203 H 0.67801 0.58201 0.30893 0.0
C204 C 0.8845 0.71534 0.87169 0.0
N205 N 0.93551 0.67641 0.82429 0.0
C206 C 0.96852 0.6841 0.83804 0.0
C207 C 0.97519 0.65174 0.84471 0.0
C208 C 0.94678 0.61043 0.838 0.0
C209 C 0.91433 0.60374 0.82268 0.0
C210 C 0.90967 0.63742 0.81573 0.0
Zn211 Zn 0.91685 0.71994 0.82465 0.0
C212 C 0.82529 0.68035 0.81544 0.0
N213 N 0.87105 0.80317 0.83215 0.0
C214 C 0.88469 0.82916 0.85093 0.0
C215 C 0.84165 0.80246 0.8176 0.0
C216 C 0.82448 0.82803 0.82189 0.0
C217 C 0.83867 0.85605 0.84088 0.0
C218 C 0.86966 0.8564 0.85531 0.0
Zn219 Zn 0.89254 0.76167 0.82795 0.0
O220 O 0.91086 0.71087 0.85995 0.0
C221 C 0.98309 0.80378 0.83778 0.0
O222 O 0.86783 0.73494 0.86258 0.0
H223 H 0.83083 0.78156 0.80279 0.0
H224 H 0.98835 0.71485 0.84519 0.0
H225 H 0.90724 0.8288 0.86275 0.0
O226 O 0.97979 0.77095 0.82855 0.0
O227 O 0.95032 0.80546 0.84196 0.0
H228 H 0.8837 0.6317 0.80468 0.0
O229 O 0.91847 0.78539 0.79316 0.0
O230 O 0.92411 0.72919 0.78896 0.0
O231 O 0.8356 0.71841 0.81378 0.0
O232 O 0.85256 0.67084 0.82132 0.0
C233 C 0.92837 0.763 0.78059 0.0
H234 H 0.00199 0.65927 0.85553 0.0
H235 H 0.89165 0.57275 0.81679 0.0
H236 H 0.80012 0.82536 0.81039 0.0
H237 H 0.88294 0.87778 0.8698 0.0
C238 C 0.27444 0.14674 0.87714 0.0
N239 N 0.29562 0.24826 0.83954 0.0
C240 C 0.29535 0.26575 0.86038 0.0
C241 C 0.3248 0.30712 0.86515 0.0
C242 C 0.35461 0.33117 0.8482 0.0
C243 C 0.35364 0.31263 0.82658 0.0
C244 C 0.32379 0.2708 0.82264 0.0
Zn245 Zn 0.25798 0.18535 0.8367 0.0
C246 C 0.30199 0.14523 0.81407 0.0
N247 N 0.18378 0.0531 0.8347 0.0
C248 C 0.17015 0.03525 0.85604 0.0
C249 C 0.17196 0.02952 0.81493 0.0
C250 C 0.14408 0.98638 0.81622 0.0
C251 C 0.12851 0.96754 0.83808 0.0
C252 C 0.14295 0.9925 0.85815 0.0
Zn253 Zn 0.22065 0.11691 0.8345 0.0
O254 O 0.27875 0.18062 0.86939 0.0
C255 C 0.17539 0.15487 0.85765 0.0
O256 O 0.25213 0.11309 0.86595 0.0
H257 H 0.18316 0.04432 0.79813 0.0
H258 H 0.27307 0.24716 0.87373 0.0
H259 H 0.17943 0.05437 0.87158 0.0
O260 O 0.20712 0.18892 0.85134 0.0
O261 O 0.17491 0.1207 0.85434 0.0
H262 H 0.32367 0.25609 0.80629 0.0
O263 O 0.19127 0.12313 0.80289 0.0
O264 O 0.23666 0.19049 0.80383 0.0
O265 O 0.26565 0.11347 0.81481 0.0
O266 O 0.3082 0.17986 0.82228 0.0
C267 C 0.20595 0.15952 0.794 0.0
H268 H 0.32456 0.31988 0.88213 0.0
H269 H 0.37546 0.33026 0.81281 0.0
H270 H 0.13345 0.96843 0.80025 0.0
H271 H 0.13238 0.97934 0.87538 0.0
C272 C 0.82567 0.1037 0.87778 0.0
N273 N 0.74274 0.04869 0.82579 0.0
C274 C 0.71556 0.01782 0.84027 0.0
C275 C 0.6758 0.01157 0.84397 0.0
C276 C 0.66373 0.03807 0.83334 0.0
C277 C 0.6912 0.06804 0.8173 0.0
C278 C 0.73082 0.07277 0.81371 0.0
Zn279 Zn 0.8044 0.06613 0.8304 0.0
C280 C 0.86296 0.15221 0.8182 0.0
N281 N 0.92737 0.10012 0.84832 0.0
C282 C 0.9376 0.0943 0.87027 0.0
C283 C 0.95696 0.1192 0.83153 0.0
C284 C -0.00122 0.13331 0.83654 0.0
C285 C 0.01019 0.12736 0.85897 0.0
C286 C 0.97904 0.1075 0.87596 0.0
Zn287 Zn 0.86693 0.08213 0.84087 0.0
O288 O 0.7963 0.08025 0.8642 0.0
C289 C 0.81259 0.9952 0.85115 0.0
O290 O 0.8625 0.11177 0.87286 0.0
H291 H 0.94812 0.12346 0.8142 0.0
H292 H 0.72531 -0.00029 0.85046 0.0
H293 H 0.91356 0.07938 0.8834 0.0
O294 O 0.7886 0.00321 0.83909 0.0
O295 O 0.84739 0.02509 0.85784 0.0
H296 H 0.75275 0.09745 0.80242 0.0
O297 O 0.86894 0.0527 0.80796 0.0
O298 O 0.81202 0.05254 0.79644 0.0
O299 O 0.88692 0.13834 0.82365 0.0
O300 O 0.82383 0.1292 0.82095 0.0
C301 C 0.84175 0.04562 0.79219 0.0
H302 H 0.65524 0.98695 0.8558 0.0
H303 H 0.68306 0.08893 0.80852 0.0
H304 H 0.02182 0.14774 0.82282 0.0
H305 H 0.98667 0.10232 0.89344 0.0
C306 C 0.7052 0.87351 0.62869 0.0
N307 N 0.69333 0.95069 0.67341 0.0
C308 C 0.69269 0.97451 0.65551 0.0
C309 C 0.66046 0.98338 0.65364 0.0
C310 C 0.62772 0.9666 0.66997 0.0
C311 C 0.63015 0.9436 0.68886 0.0
C312 C 0.66367 0.93641 0.6904 0.0
Zn313 Zn 0.73189 0.92672 0.67022 0.0
C314 C 0.69368 0.84135 0.69114 0.0
N315 N 0.80553 0.86995 0.65997 0.0
C316 C 0.81524 0.86857 0.63719 0.0
C317 C 0.81933 0.85447 0.67716 0.0
C318 C 0.84495 0.83779 0.67166 0.0
C319 C 0.8563 0.83707 0.64828 0.0
C320 C 0.8404 0.85204 0.63094 0.0
Zn321 Zn 0.7694 0.89638 0.66632 0.0
O322 O 0.70393 0.90344 0.63853 0.0
C323 C 0.80971 0.9815 0.64542 0.0
O324 O 0.73067 0.86261 0.63622 0.0
H325 H 0.81111 0.85576 0.69514 0.0
H326 H 0.71599 0.9849 0.6419 0.0
H327 H 0.80399 0.88098 0.62374 0.0
O328 O 0.77941 0.98281 0.65497 0.0
O329 O 0.81037 0.94752 0.64565 0.0
H330 H 0.66465 0.91747 0.70449 0.0
O331 O 0.80556 0.93029 0.69707 0.0
O332 O 0.75932 0.95057 0.70212 0.0
O333 O 0.72951 0.84627 0.68705 0.0
O334 O 0.68556 0.86963 0.68527 0.0
C335 C 0.79206 0.95058 0.70876 0.0
H336 H 0.66097 0.00257 0.63923 0.0
H337 H 0.60576 0.92989 0.7019 0.0
H338 H 0.85702 0.8271 0.68564 0.0
H339 H 0.84796 0.85173 0.6127 0.0
C340 C 0.1033 0.83269 0.61137 0.0
N341 N 0.04028 0.73113 0.65247 0.0
C342 C 0.02341 0.71253 0.63171 0.0
C343 C 0.01722 0.67306 0.62658 0.0
C344 C 0.0262 0.65101 0.64343 0.0
C345 C 0.04208 0.67042 0.66516 0.0
C346 C 0.04952 0.71091 0.66918 0.0
Zn347 Zn 0.05958 0.79317 0.65528 0.0
C348 C 0.147 0.84212 0.6723 0.0
N349 N 0.10577 0.92452 0.65554 0.0
C350 C 0.09561 0.94126 0.63727 0.0
C351 C 0.13265 0.9496 0.67233 0.0
C352 C 0.15095 0.99309 0.67085 0.0
C353 C 0.14063 0.01137 0.65231 0.0
C354 C 0.11194 0.98435 0.63558 0.0
Zn355 Zn 0.08358 0.8608 0.65549 0.0
O356 O 0.07827 0.79894 0.62132 0.0
C357 C -0.00347 0.81402 0.63876 0.0
O358 O 0.11461 0.86715 0.62179 0.0
H359 H 0.14069 0.93608 0.68673 0.0
H360 H 0.01609 0.72895 0.61861 0.0
H361 H 0.07501 0.92128 0.62373 0.0
O362 O -0.00066 0.78256 0.64521 0.0
O363 O 0.02876 0.85005 0.63908 0.0
H364 H 0.06333 0.72645 0.68547 0.0
O365 O 0.05113 0.85136 0.68909 0.0
O366 O 0.03959 0.78689 0.68948 0.0
O367 O 0.13737 0.87049 0.67203 0.0
O368 O 0.12078 0.80558 0.66531 0.0
C369 C 0.03521 0.81555 0.69899 0.0
H370 H 0.00581 0.6604 0.6094 0.0
H371 H 0.04844 0.65461 0.67908 0.0
H372 H 0.17331 0.01192 0.68408 0.0
H373 H 0.10157 -0.00405 0.62126 0.0
C374 C 0.15783 0.27417 0.62444 0.0
N375 N 0.24481 0.30455 0.67332 0.0
C376 C 0.27208 0.29996 0.65944 0.0
C377 C 0.31151 0.33355 0.65502 0.0
C378 C 0.32296 0.3731 0.66415 0.0
C379 C 0.29524 0.37665 0.67949 0.0
C380 C 0.25624 0.34166 0.68404 0.0
Zn381 Zn 0.18341 0.25948 0.67023 0.0
C382 C 0.12508 0.28695 0.68436 0.0
N383 N 0.05953 0.16997 0.65688 0.0
C384 C 0.04813 0.15621 0.6346 0.0
C385 C 0.03079 0.15807 0.67426 0.0
C386 C 0.98858 0.13139 0.66948 0.0
C387 C 0.97593 0.11678 0.6466 0.0
C388 C 0.00633 0.1294 0.62906 0.0
Zn389 Zn 0.12036 0.21277 0.66302 0.0
O390 O 0.18891 0.27901 0.63608 0.0
C391 C 0.17356 0.17984 0.65012 0.0
O392 O 0.12153 0.24686 0.63128 0.0
H393 H 0.04057 0.16959 0.69181 0.0
H394 H 0.26273 0.27104 0.6504 0.0
H395 H 0.07148 0.16644 0.621 0.0
O396 O 0.199 0.21171 0.66186 0.0
O397 O 0.1385 0.17554 0.64468 0.0
H398 H 0.2344 0.34504 0.69503 0.0
O399 O 0.12258 0.18238 0.69588 0.0
O400 O 0.17935 0.24151 0.70452 0.0
O401 O 0.10128 0.24816 0.68136 0.0
O402 O 0.16349 0.30343 0.67914 0.0
C403 C 0.15158 0.20485 0.71039 0.0
H404 H 0.3323 0.32853 0.64393 0.0
H405 H 0.30271 0.40635 0.68716 0.0
H406 H 0.96621 0.12171 0.68362 0.0
H407 H -0.00214 0.11892 0.61121 0.0
C408 C 0.72007 0.56231 0.54476 0.0
N409 N 0.77912 0.51968 0.49605 0.0
C410 C 0.80769 0.52134 0.51163 0.0
C411 C 0.82474 0.4952 0.50918 0.0
C412 C 0.81143 0.46566 0.49095 0.0
C413 C 0.78126 0.46431 0.4754 0.0
C414 C 0.76614 0.49202 0.47802 0.0
Zn415 Zn 0.75759 0.56184 0.49828 0.0
C416 C 0.66832 0.52197 0.48763 0.0
N417 N 0.71678 0.64906 0.50066 0.0
C418 C 0.73987 0.68599 0.51202 0.0
C419 C 0.68523 0.64295 0.48612 0.0
C420 C 0.67637 0.67484 0.4822 0.0
C421 C 0.70115 0.71423 0.4926 0.0
C422 C 0.73303 0.71931 0.50793 0.0
Zn423 Zn 0.73541 0.60578 0.5005 0.0
O424 O 0.7301 0.53938 0.53283 0.0
C425 C 0.82505 0.64431 0.51096 0.0
O426 O 0.72626 0.59663 0.5361 0.0
H427 H 0.66771 0.61375 0.47687 0.0
H428 H 0.81785 0.54336 0.52592 0.0
H429 H 0.7648 0.69033 0.52356 0.0
O430 O 0.81433 0.60609 0.51276 0.0
O431 O 0.79841 0.65424 0.50456 0.0
H432 H 0.744 0.49135 0.4655 0.0
O433 O 0.74325 0.6146 0.46522 0.0
O434 O 0.78347 0.58689 0.46372 0.0
O435 O 0.67334 0.55592 0.49613 0.0
O436 O 0.69982 0.51774 0.48397 0.0
C437 C 0.76863 0.60772 0.45404 0.0
H438 H 0.84839 0.49864 0.52149 0.0
H439 H 0.76869 0.44177 0.46139 0.0
H440 H 0.65033 0.66839 0.47097 0.0
H441 H 0.75326 0.74888 0.51636 0.0
C442 C 0.45478 0.16327 0.54304 0.0
N443 N 0.48304 0.26825 0.49947 0.0
C444 C 0.48512 0.29364 0.51724 0.0
C445 C 0.5095 0.33697 0.51505 0.0
C446 C 0.53344 0.35459 0.49473 0.0
C447 C 0.53098 0.32731 0.47687 0.0
C448 C 0.50495 0.28438 0.47941 0.0
Zn449 Zn 0.44324 0.20512 0.5011 0.0
C450 C 0.48047 0.15928 0.47962 0.0
N451 N 0.3579 0.07554 0.50126 0.0
C452 C 0.32445 0.05863 0.51588 0.0
C453 C 0.3605 0.05338 0.48305 0.0
C454 C 0.32849 0.01297 0.4787 0.0
C455 C 0.29237 0.99542 0.49261 0.0
C456 C 0.29091 0.01872 0.51164 0.0
Zn457 Zn 0.39966 0.1377 0.50207 0.0
O458 O 0.47252 0.19866 0.5327 0.0
C459 C 0.36532 0.18692 0.5238 0.0
O460 O 0.42117 0.1335 0.53475 0.0
H461 H 0.38662 0.06749 0.47116 0.0
H462 H 0.46738 0.28045 0.53305 0.0
H463 H 0.3228 0.07667 0.53026 0.0
O464 O 0.40289 0.21491 0.52081 0.0
O465 O 0.35314 0.15006 0.51667 0.0
H466 H 0.50223 0.26401 0.46517 0.0
O467 O 0.37799 0.14082 0.4695 0.0
O468 O 0.41217 0.20927 0.4698 0.0
O469 O 0.44779 0.12787 0.48761 0.0
O470 O 0.48439 0.1952 0.48134 0.0
C471 C 0.38563 0.175 0.46037 0.0
H472 H 0.50921 0.35618 0.52921 0.0
H473 H 0.54932 0.33856 0.46108 0.0
H474 H 0.33214 -0.00396 0.46434 0.0
H475 H 0.26381 0.00697 0.52285 0.0
C476 C 0.81751 0.27877 0.54678 0.0
N477 N 0.72868 0.22137 0.49214 0.0
C478 C 0.69956 0.20383 0.5093 0.0
C479 C 0.6573 0.18681 0.50411 0.0
C480 C 0.64491 0.18778 0.48102 0.0
C481 C 0.67571 0.20607 0.4637 0.0
C482 C 0.71757 0.22281 0.46967 0.0
Zn483 Zn 0.78969 0.24127 0.49897 0.0
C484 C 0.84208 0.32806 0.48669 0.0
N485 N 0.91519 0.276 0.5108 0.0
C486 C 0.92666 0.25078 0.52204 0.0
C487 C 0.9424 0.30707 0.49646 0.0
C488 C 0.98156 0.31214 0.49187 0.0
C489 C -0.00713 0.2842 0.50145 0.0
C490 C 0.96541 0.25414 0.51746 0.0
Zn491 Zn 0.85332 0.25865 0.507 0.0
O492 O 0.78894 0.27149 0.53186 0.0
C493 C 0.79564 0.17258 0.52085 0.0
O494 O 0.84717 0.27244 0.54123 0.0
H495 H 0.93297 0.3263 0.48709 0.0
H496 H 0.70911 0.20274 0.52701 0.0
H497 H 0.9049 0.22616 0.5334 0.0
O498 O 0.77143 0.18667 0.51676 0.0
O499 O 0.83432 0.19513 0.51645 0.0
H500 H 0.74124 0.23658 0.45627 0.0
O501 O 0.86015 0.2442 0.47303 0.0
O502 O 0.79297 0.2101 0.46723 0.0
O503 O 0.86802 0.32181 0.49811 0.0
O504 O 0.80708 0.29708 0.48126 0.0
C505 C 0.82935 0.21858 0.46096 0.0
H506 H 0.63469 0.17387 0.51813 0.0
H507 H 0.66755 0.20737 0.44568 0.0
H508 H 0.00217 0.33707 0.48023 0.0
H509 H 0.97276 0.23211 0.52552 0.0
C510 C 0.85922 0.3663 0.634 0.0
N511 N 0.83713 0.44963 0.6754 0.0
C512 C 0.83282 0.46863 0.65614 0.0
C513 C 0.80784 0.487 0.65693 0.0
C514 C 0.7861 0.4848 0.67755 0.0
C515 C 0.79178 0.46549 0.69723 0.0
C516 C 0.81789 0.44855 0.69583 0.0
Zn517 Zn 0.87473 0.42422 0.67493 0.0
C518 C 0.83489 0.3428 0.6985 0.0
N519 N 0.95575 0.37476 0.67603 0.0
C520 C 0.98202 0.37915 0.65827 0.0
C521 C 0.95901 0.36043 0.69734 0.0
C522 C 0.9904 0.35114 0.70174 0.0
C523 C 0.01836 0.35571 0.6839 0.0
C524 C 0.01361 0.36948 0.66181 0.0
Zn525 Zn 0.91627 0.39773 0.67393 0.0
O526 O 0.84417 0.38713 0.64363 0.0
C527 C 0.95206 0.47839 0.64918 0.0
O528 O 0.89115 0.36723 0.64282 0.0
H529 H 0.93818 0.35775 0.71133 0.0
H530 H 0.84874 0.46954 0.64012 0.0
H531 H 0.97909 0.39106 0.64156 0.0
O532 O 0.91611 0.47202 0.65426 0.0
O533 O 0.96312 0.45254 0.65586 0.0
H534 H 0.82241 0.43407 0.7111 0.0
O535 O 0.94252 0.42877 0.70461 0.0
O536 O 0.90753 0.46193 0.70547 0.0
O537 O 0.86765 0.34293 0.69153 0.0
O538 O 0.83195 0.37517 0.6955 0.0
C539 C 0.93644 0.45646 0.71356 0.0
H540 H 0.80528 0.5023 0.64142 0.0
H541 H 0.7753 0.46222 0.71341 0.0
H542 H -0.00693 0.34113 0.71911 0.0
H543 H 0.03389 0.37258 0.64739 0.0
C544 C 0.60381 0.50575 0.6224 0.0
N545 N 0.53675 0.3986 0.66723 0.0
C546 C 0.51031 0.3718 0.65083 0.0
C547 C 0.49276 0.32854 0.6536 0.0
C548 C 0.50324 0.31246 0.67316 0.0
C549 C 0.5314 0.34123 0.68945 0.0
C550 C 0.54704 0.38392 0.68639 0.0
Zn551 Zn 0.55822 0.46196 0.66605 0.0
C552 C 0.64611 0.5099 0.68123 0.0
N553 N 0.60001 0.59058 0.66904 0.0
C554 C 0.57747 0.60592 0.65856 0.0
C555 C 0.63016 0.61369 0.68489 0.0
C556 C 0.63824 0.65344 0.69096 0.0
C557 C 0.61387 0.66932 0.68153 0.0
C558 C 0.5833 0.64493 0.66491 0.0
Zn559 Zn 0.58161 0.52875 0.66671 0.0
O560 O 0.58983 0.47045 0.63264 0.0
C561 C 0.49343 0.47884 0.65108 0.0
O562 O 0.59782 0.5336 0.63171 0.0
H563 H 0.64707 0.60089 0.69365 0.0
H564 H 0.502 0.38381 0.63581 0.0
H565 H 0.5536 0.5873 0.64599 0.0
O566 O 0.50362 0.45093 0.64958 0.0
O567 O 0.51944 0.51453 0.65908 0.0
H568 H 0.56709 0.40526 0.69965 0.0
O569 O 0.56714 0.52495 0.70149 0.0
O570 O 0.52785 0.45694 0.69965 0.0
O571 O 0.64256 0.54051 0.67423 0.0
O572 O 0.61411 0.4738 0.68209 0.0
C573 C 0.54055 0.49098 0.71078 0.0
H574 H 0.47081 0.30813 0.64063 0.0
H575 H 0.54182 0.33127 0.70449 0.0
H576 H 0.66339 0.67117 0.70308 0.0
H577 H 0.5633 0.65517 0.65713 0.0
C578 C 0.50124 0.11385 0.62739 0.0
N579 N 0.58606 0.15057 0.68468 0.0
C580 C 0.61627 0.16003 0.66839 0.0
C581 C 0.65821 0.18707 0.67384 0.0
C582 C 0.66933 0.20462 0.69629 0.0
C583 C 0.63743 0.19406 0.71278 0.0
C584 C 0.59589 0.1669 0.70658 0.0
Zn585 Zn 0.52496 0.10843 0.67689 0.0
C586 C 0.47184 0.14514 0.68324 0.0
N587 N 0.39989 0.01887 0.66303 0.0
C588 C 0.38938 0.98323 0.65092 0.0
C589 C 0.37111 0.02241 0.67608 0.0
C590 C 0.33067 0.98889 0.67819 0.0
C591 C 0.31961 0.95062 0.66732 0.0
C592 C 0.3493 0.94846 0.65294 0.0
Zn593 Zn 0.46109 0.06312 0.66835 0.0
O594 O 0.52919 0.13585 0.64244 0.0
C595 C 0.51771 0.02996 0.6615 0.0
O596 O 0.47094 0.07848 0.63332 0.0
H597 H 0.38001 0.05046 0.68602 0.0
H598 H 0.60784 0.14654 0.65112 0.0
H599 H 0.41263 0.98083 0.64068 0.0
O600 O 0.54379 0.06853 0.66338 0.0
O601 O 0.47912 0.01692 0.66428 0.0
H602 H 0.57145 0.15872 0.71934 0.0
O603 O 0.45057 0.04714 0.70321 0.0
O604 O 0.51734 0.07771 0.71053 0.0
O605 O 0.44633 0.11202 0.67243 0.0
O606 O 0.5062 0.14935 0.69037 0.0
C607 C 0.47987 0.05279 0.71677 0.0
H608 H 0.68155 0.1949 0.66039 0.0
H609 H 0.64447 0.20659 0.73032 0.0
H610 H 0.30862 0.99288 0.68873 0.0
H611 H 0.34235 0.91981 0.64411 0.0
C612 C 0.55712 0.05188 0.21258 0.0
N613 N 0.61144 0.01971 0.16274 0.0
C614 C 0.64254 0.02493 0.17737 0.0
C615 C 0.65063 0.99245 0.18105 0.0
C616 C 0.62559 0.95358 0.17018 0.0
C617 C 0.59515 0.94989 0.15418 0.0
C618 C 0.589 0.98372 0.15045 0.0
Zn619 Zn 0.5902 0.0606 0.16534 0.0
C620 C 0.49947 0.01843 0.15563 0.0
N621 N 0.53991 0.13981 0.17461 0.0
C622 C 0.55336 0.16707 0.19282 0.0
C623 C 0.51 0.13748 0.15986 0.0
C624 C 0.49237 0.16281 0.16321 0.0
C625 C 0.50686 0.19267 0.18128 0.0
C626 C 0.53795 0.19433 0.19618 0.0
Zn627 Zn 0.56405 0.10058 0.16994 0.0
O628 O 0.58376 0.04841 0.20047 0.0
C629 C 0.65403 0.14463 0.18005 0.0
O630 O 0.54005 0.07163 0.20413 0.0
H631 H 0.49953 0.11591 0.14537 0.0
H632 H 0.65963 0.05348 0.18726 0.0
H633 H 0.57651 0.16819 0.20474 0.0
O634 O 0.65187 0.11268 0.17029 0.0
O635 O 0.62067 0.14509 0.18442 0.0
H636 H 0.56453 0.98023 0.13878 0.0
O637 O 0.5893 0.1271 0.13564 0.0
O638 O 0.59746 0.07277 0.1299 0.0
O639 O 0.5082 0.05613 0.15525 0.0
O640 O 0.52754 0.00986 0.16104 0.0
C641 C 0.59994 0.10625 0.12234 0.0
H642 H 0.67573 -0.0023 0.19276 0.0
H643 H 0.57504 0.92079 0.14528 0.0
H644 H 0.46775 0.15882 0.15151 0.0
H645 H 0.55131 0.21698 0.2101 0.0
C646 C 0.94153 0.49253 0.20769 0.0
N647 N 0.96509 0.58927 0.16733 0.0
C648 C 0.96038 0.61275 0.18402 0.0
C649 C -0.00717 0.65263 0.18916 0.0
C650 C 0.03153 0.66822 0.17781 0.0
C651 C 0.03499 0.6438 0.16007 0.0
C652 C 0.00102 0.6047 0.15478 0.0
Zn653 Zn 0.92316 0.52674 0.16688 0.0
C654 C 0.96027 0.47819 0.14575 0.0
N655 N 0.84396 0.39699 0.16968 0.0
C656 C 0.83267 0.38154 0.19168 0.0
C657 C 0.83079 0.37134 0.15076 0.0
C658 C 0.80448 0.32828 0.15365 0.0
C659 C 0.79192 0.31163 0.17623 0.0
C660 C 0.80695 0.33889 0.19537 0.0
Zn661 Zn 0.88285 0.45984 0.1669 0.0
O662 O 0.94365 0.52551 0.19995 0.0
C663 C 0.84271 0.50382 0.18835 0.0
O664 O 0.91813 0.45808 0.19735 0.0
H665 H 0.84037 0.38432 0.13343 0.0
H666 H 0.93222 0.60003 0.19431 0.0
H667 H 0.84345 0.40241 0.2065 0.0
O668 O 0.874 0.5358 0.17968 0.0
O669 O 0.8417 0.46903 0.18788 0.0
H670 H 0.0044 0.58597 0.14144 0.0
O671 O 0.85093 0.46529 0.13605 0.0
O672 O 0.90331 0.52982 0.13359 0.0
O673 O 0.92239 0.44967 0.14589 0.0
O674 O 0.97026 0.51371 0.15428 0.0
C675 C 0.86915 0.50055 0.12553 0.0
H676 H 0.98747 0.67052 0.20225 0.0
H677 H 0.06389 0.65386 0.15074 0.0
H678 H 0.79313 0.3085 0.13835 0.0
H679 H 0.79858 0.32748 0.21309 0.0
C680 C 0.49125 0.44015 0.21007 0.0
N681 N 0.40287 0.3792 0.16151 0.0
C682 C 0.37668 0.35056 0.17728 0.0
C683 C 0.33667 0.34411 0.18058 0.0
C684 C 0.32351 0.36823 0.1681 0.0
C685 C 0.35038 0.39604 0.15103 0.0
C686 C 0.38999 0.40079 0.14787 0.0
Zn687 Zn 0.46478 0.39814 0.16483 0.0
C688 C 0.51817 0.48538 0.15056 0.0
N689 N 0.59215 0.44127 0.1765 0.0
C690 C 0.60383 0.43848 0.19864 0.0
C691 C 0.62087 0.45976 0.15922 0.0
C692 C 0.66326 0.47602 0.16391 0.0
C693 C 0.67618 0.47326 0.18661 0.0
C694 C 0.64579 0.45436 0.2041 0.0
Zn695 Zn 0.53039 0.41976 0.17044 0.0
O696 O 0.45956 0.41318 0.19904 0.0
C697 C 0.47952 0.33207 0.18424 0.0
O698 O 0.52729 0.44983 0.20252 0.0
H699 H 0.61089 0.46185 0.14178 0.0
H700 H 0.38751 0.33433 0.18839 0.0
H701 H 0.5805 0.42399 0.21217 0.0
O702 O 0.45166 0.33664 0.17392 0.0
O703 O 0.51512 0.36376 0.18784 0.0
H704 H 0.4112 0.42353 0.13545 0.0
O705 O 0.53127 0.39052 0.13749 0.0
O706 O 0.46985 0.38405 0.13029 0.0
O707 O 0.5456 0.47475 0.15296 0.0
O708 O 0.48053 0.45984 0.15578 0.0
C709 C 0.50069 0.38045 0.12361 0.0
H710 H 0.31669 0.32101 0.19326 0.0
H711 H 0.34174 0.41524 0.14087 0.0
H712 H 0.68554 0.48963 0.14978 0.0
H713 H 0.65434 0.45179 0.22185 0.0
C714 C 0.38084 0.211 0.95528 0.0
N715 N 0.35443 0.27814 1.00033 0.0
C716 C 0.35473 0.30339 0.98298 0.0
C717 C 0.32095 0.30947 0.9798 0.0
C718 C 0.28548 0.28821 0.99404 0.0
C719 C 0.28647 0.26331 0.01234 0.0
C720 C 0.32163 0.25906 0.01534 0.0
Zn721 Zn 0.39846 0.26058 0.99834 0.0
C722 C 0.37147 0.17785 0.01842 0.0
N723 N 0.48614 0.22133 0.98821 0.0
C724 C 0.49883 0.22069 0.966 0.0
C725 C 0.4979 0.20579 0.00634 0.0
C726 C 0.52346 0.18863 0.0024 0.0
C727 C 0.53694 0.18751 0.9796 0.0
C728 C 0.5243 0.20382 0.96128 0.0
Zn729 Zn 0.44481 0.24152 0.99293 0.0
O730 O 0.37374 0.23659 0.96608 0.0
C731 C 0.47668 0.32521 0.97433 0.0
O732 O 0.41042 0.20558 0.96222 0.0
H733 H 0.48716 0.20641 0.02382 0.0
H734 H 0.38027 0.31738 0.97072 0.0
H735 H 0.48875 0.23286 0.95182 0.0
O736 O 0.44393 0.32045 0.98438 0.0
O737 O 0.48244 0.29429 0.97272 0.0
H738 H 0.32172 0.23889 0.02897 0.0
O739 O 0.47662 0.27732 0.02449 0.0
O740 O 0.42196 0.28477 0.0307 0.0
O741 O 0.40897 0.18977 0.01319 0.0
O742 O 0.35594 0.20056 0.01299 0.0
C743 C 0.4576 0.29127 0.03701 0.0
H744 H 0.32267 0.3303 0.96601 0.0
H745 H 0.26 0.2462 0.0238 0.0
H746 H 0.53322 0.17714 0.01709 0.0
H747 H 0.53389 0.20343 0.94345 0.0
C748 C 0.77581 0.16585 0.9555 0.0
N749 N 0.70826 0.06919 0.99824 0.0
C750 C 0.68131 0.04558 0.98117 0.0
C751 C 0.67283 0.00491 0.97734 0.0
C752 C 0.69354 0.98869 0.99059 0.0
C753 C 0.72055 0.01364 0.00846 0.0
C754 C 0.72676 0.05355 0.01232 0.0
Zn755 Zn 0.72901 0.13134 0.9986 0.0
C756 C 0.81618 0.17815 0.01709 0.0
N757 N 0.78077 0.26241 0.99655 0.0
C758 C 0.77325 0.27816 0.97686 0.0
C759 C 0.80488 0.28826 0.01395 0.0
C760 C 0.82238 0.33158 0.01188 0.0
C761 C 0.81401 0.34877 0.99203 0.0
C762 C 0.7888 0.321 0.97444 0.0
Zn763 Zn 0.75667 0.19868 0.99851 0.0
O764 O 0.74701 0.13298 0.96467 0.0
C765 C 0.67053 0.15421 0.97943 0.0
O766 O 0.78959 0.20059 0.96612 0.0
H767 H 0.81087 0.27542 0.02945 0.0
H768 H 0.66744 0.05872 0.96987 0.0
H769 H 0.75493 0.25752 0.96288 0.0
O770 O 0.67006 0.12212 0.98776 0.0
O771 O 0.70418 0.18905 0.97975 0.0
H772 H 0.7479 0.07264 0.02593 0.0
O773 O 0.72237 0.19329 0.03076 0.0
O774 O 0.70938 0.12842 0.03259 0.0
O775 O 0.80819 0.20767 0.01734 0.0
O776 O 0.78931 0.14288 0.00902 0.0
C777 C 0.70536 0.15792 0.04115 0.0
H778 H 0.65043 0.98673 0.96397 0.0
H779 H 0.73768 0.00315 0.01911 0.0
H780 H 0.84229 0.35112 0.0258 0.0
H781 H 0.78017 0.33173 0.959 0.0
C782 C 0.83436 0.60757 0.95236 0.0
N783 N 0.91923 0.64263 0.00393 0.0
C784 C 0.94642 0.63761 0.99024 0.0
C785 C 0.9872 0.67017 0.98736 0.0
C786 C 0.00015 0.70911 0.99798 0.0
C787 C 0.97189 0.7128 0.01284 0.0
C788 C 0.93161 0.67888 0.0158 0.0
Zn789 Zn 0.85718 0.59984 1.00042 0.0
C790 C 0.80452 0.63702 0.0084 0.0
N791 N 0.7288 0.51443 0.98828 0.0
C792 C 0.71626 0.48639 0.97046 0.0
C793 C 0.70016 0.51748 0.00179 0.0
C794 C 0.65756 0.4928 0.99727 0.0
C795 C 0.64332 0.46252 0.97943 0.0
C796 C 0.67382 0.45958 0.96607 0.0
Zn797 Zn 0.79183 0.55538 0.99377 0.0
O798 O 0.86441 0.61352 0.96539 0.0
C799 C 0.84223 0.51583 0.9861 0.0
O800 O 0.79718 0.58365 0.95948 0.0
H801 H 0.71005 0.53939 0.01609 0.0
H802 H 0.93602 0.60903 0.98054 0.0
H803 H 0.73912 0.48453 0.95956 0.0
O804 O 0.86944 0.54927 0.99598 0.0
O805 O 0.80733 0.51188 0.98039 0.0
H806 H 0.90967 0.68243 0.02664 0.0
O807 O 0.78984 0.53003 0.02851 0.0
O808 O 0.85025 0.58628 0.03579 0.0
O809 O 0.77744 0.59871 0.00732 0.0
O810 O 0.84248 0.64852 0.00463 0.0
C811 C 0.81965 0.55179 0.04265 0.0
H812 H 0.008 0.66481 0.9765 0.0
H813 H 0.98004 0.74193 0.02148 0.0
H814 H 0.6364 0.49793 0.00788 0.0
H815 H 0.66555 0.43651 0.95247 0.0
C816 C 0.39315 0.89576 0.88768 0.0
N817 N 0.44406 0.85258 0.83381 0.0
C818 C 0.47592 0.85489 0.84681 0.0
C819 C 0.49301 0.82952 0.84168 0.0
C820 C 0.47622 0.79984 0.82353 0.0
C821 C 0.44252 0.79758 0.81085 0.0
C822 C 0.42759 0.82476 0.81594 0.0
Zn823 Zn 0.42367 0.89507 0.83889 0.0
C824 C 0.33298 0.85582 0.83241 0.0
N825 N 0.38476 0.98376 0.84549 0.0
C826 C 0.41135 0.02285 0.85372 0.0
C827 C 0.35133 0.97623 0.83216 0.0
C828 C 0.34519 0.00881 0.82534 0.0
C829 C 0.37436 0.05008 0.83158 0.0
C830 C 0.40697 0.05673 0.84674 0.0
Zn831 Zn 0.40261 0.93961 0.84409 0.0
O832 O 0.40125 0.87295 0.87431 0.0
C833 C 0.49378 0.97699 0.85044 0.0
O834 O 0.39779 0.93013 0.87993 0.0
H835 H 0.33092 0.94546 0.82521 0.0
H836 H 0.48891 0.87701 0.86099 0.0
H837 H 0.43774 0.02845 0.86436 0.0
O838 O 0.48257 0.9386 0.85115 0.0
O839 O 0.4669 0.98783 0.84623 0.0
H840 H 0.40293 0.82367 0.80534 0.0
O841 O 0.40613 0.94867 0.80867 0.0
O842 O 0.44499 0.92014 0.80378 0.0
O843 O 0.33951 0.8898 0.84164 0.0
O844 O 0.36366 0.85127 0.82688 0.0
C845 C 0.42967 0.94176 0.79578 0.0
H846 H 0.51943 0.83382 0.85186 0.0
H847 H 0.42714 0.77489 0.79714 0.0
H848 H 0.31835 0.0016 0.8146 0.0
H849 H 0.42998 0.08785 0.85232 0.0
C850 C 0.11185 0.49305 0.86995 0.0
N851 N 0.1386 0.60462 0.83344 0.0
C852 C 0.14184 0.62657 0.85314 0.0
C853 C 0.16786 0.67001 0.85356 0.0
C854 C 0.19146 0.69102 0.83364 0.0
C855 C 0.18696 0.66728 0.81356 0.0
C856 C 0.15996 0.62428 0.81375 0.0
Zn857 Zn 0.10043 0.54124 0.83146 0.0
C858 C 0.14336 0.50269 0.80635 0.0
N859 N 0.02137 0.41137 0.82291 0.0
C860 C -0.00561 0.38887 0.84028 0.0
C861 C 0.01992 0.39412 0.80171 0.0
C862 C 0.99018 0.35268 0.79724 0.0
C863 C 0.96181 0.32871 0.8148 0.0
C864 C 0.9642 0.34722 0.83659 0.0
Zn865 Zn 0.06068 0.47341 0.82701 0.0
O866 O 0.12779 0.53056 0.86253 0.0
C867 C 0.01897 0.51363 0.85199 0.0
O868 O 0.08105 0.46398 0.85912 0.0
H869 H 0.0414 0.41277 0.78807 0.0
H870 H 0.12424 0.61043 0.86855 0.0
H871 H -0.00398 0.40341 0.85693 0.0
O872 O 0.05573 0.54465 0.85159 0.0
O873 O 0.01165 0.47942 0.84268 0.0
H874 H 0.15642 0.60653 0.79807 0.0
O875 O 0.04047 0.48244 0.79502 0.0
O876 O 0.07142 0.5501 0.80045 0.0
O877 O 0.11034 0.46872 0.81127 0.0
O878 O 0.14556 0.53715 0.81133 0.0
C879 C 0.04723 0.51795 0.78853 0.0
H880 H 0.1695 0.68676 0.86938 0.0
H881 H 0.20488 0.68136 0.79789 0.0
H882 H 0.98929 0.3396 0.78018 0.0
H883 H 0.94347 0.32951 0.85076 0.0
C884 C 0.48114 0.61929 0.87223 0.0
N885 N 0.39086 0.55796 0.81803 0.0
C886 C 0.36118 0.53983 0.83487 0.0
C887 C 0.31934 0.52527 0.82959 0.0
C888 C 0.30805 0.52979 0.80682 0.0
C889 C 0.3393 0.54868 0.78981 0.0
C890 C 0.3807 0.56236 0.79579 0.0
Zn891 Zn 0.45148 0.57623 0.82528 0.0
C892 C 0.50564 0.66277 0.81237 0.0
N893 N 0.57676 0.61075 0.83848 0.0
C894 C 0.5887 0.58749 0.85136 0.0
C895 C 0.60366 0.6401 0.82322 0.0
C896 C 0.64321 0.64564 0.8196 0.0
C897 C 0.65533 0.61996 0.8312 0.0
C898 C 0.62806 0.59151 0.84791 0.0
Zn899 Zn 0.51508 0.59377 0.83451 0.0
O900 O 0.45138 0.60856 0.85759 0.0
C901 C 0.45604 0.5078 0.84886 0.0
O902 O 0.51032 0.61166 0.86777 0.0
H903 H 0.59381 0.65754 0.81248 0.0
H904 H 0.36997 0.53659 0.85242 0.0
H905 H 0.56698 0.56401 0.86328 0.0
O906 O 0.43188 0.52149 0.84357 0.0
O907 O 0.4951 0.53084 0.84562 0.0
H908 H 0.40476 0.57643 0.78261 0.0
O909 O 0.52125 0.57654 0.80139 0.0
O910 O 0.45463 0.54406 0.79387 0.0
O911 O 0.53104 0.65612 0.82398 0.0
O912 O 0.47038 0.63207 0.80703 0.0
C913 C 0.49125 0.55184 0.7886 0.0
H914 H 0.29619 0.51158 0.84331 0.0
H915 H 0.33178 0.55273 0.77208 0.0
H916 H 0.66359 0.66915 0.8072 0.0
H917 H 0.63616 0.57126 0.85744 0.0
C918 C 0.52796 0.7131 0.95637 0.0
N919 N 0.50645 0.77748 0.01148 0.0
C920 C 0.49515 0.79669 0.99517 0.0
C921 C 0.47016 0.81362 0.00143 0.0
C922 C 0.45679 0.81077 0.02469 0.0
C923 C 0.46977 0.79158 0.0412 0.0
C924 C 0.49455 0.77499 0.03417 0.0
Zn925 Zn 0.5435 0.75309 0.00324 0.0
C926 C 0.50225 0.66429 0.01691 0.0
N927 N 0.62261 0.70458 0.99114 0.0
C928 C 0.6559 0.72536 0.97662 0.0
C929 C 0.62081 0.67596 0.00671 0.0
C930 C 0.65448 0.66945 0.00927 0.0
C931 C 0.69095 0.69338 0.99614 0.0
C932 C 0.6908 0.7205 0.97898 0.0
Zn933 Zn 0.58243 0.72626 0.99637 0.0
O934 O 0.50982 0.72518 0.97081 0.0
C935 C 0.62081 0.8153 0.98266 0.0
O936 O 0.56157 0.71416 0.96226 0.0
H937 H 0.59452 0.66025 0.0184 0.0
H938 H 0.50519 0.79851 0.97726 0.0
H939 H 0.65675 0.74793 0.9643 0.0
O940 O 0.58364 0.80726 0.98555 0.0
O941 O 0.63051 0.78772 0.98743 0.0
H942 H 0.50409 0.75981 0.0469 0.0
O943 O 0.60416 0.73861 0.03018 0.0
O944 O 0.58017 0.78129 0.03491 0.0
O945 O 0.53259 0.66563 0.00571 0.0
O946 O 0.50216 0.69805 0.0208 0.0
C947 C 0.60341 0.7672 0.04189 0.0
H948 H 0.46026 0.82749 0.98804 0.0
H949 H 0.46045 0.78894 0.05932 0.0
H950 H 0.65231 0.64685 0.02204 0.0
H951 H 0.718 0.7394 0.9683 0.0
C952 C 0.28706 0.84039 0.9695 0.0
N953 N 0.21148 0.72897 0.00974 0.0
C954 C 0.18706 0.70527 0.99178 0.0
C955 C 0.16909 0.66177 0.99223 0.0
C956 C 0.1773 0.64219 0.01097 0.0
C957 C 0.20332 0.66782 0.02901 0.0
C958 C 0.21932 0.71089 0.02827 0.0
Zn959 Zn 0.23402 0.79248 0.0109 0.0
C960 C 0.31884 0.8368 0.03136 0.0
N961 N 0.27859 0.92167 0.01667 0.0
C962 C 0.27045 0.94248 0.99981 0.0
C963 C 0.29585 0.94003 0.03742 0.0
C964 C 0.30481 0.98061 0.04209 0.0
C965 C 0.29697 0.00309 0.02503 0.0
C966 C 0.27971 0.98355 0.00358 0.0
Zn967 Zn 0.25882 0.86002 0.01317 0.0
O968 O 0.26945 0.80364 0.9783 0.0
C969 C 0.17338 0.81359 0.99274 0.0
O970 O 0.28288 0.86865 0.97965 0.0
H971 H 0.30184 0.92283 0.05066 0.0
H972 H 0.18085 0.71992 0.9772 0.0
H973 H 0.25635 0.92705 0.98354 0.0
O974 O 0.18227 0.78468 0.99276 0.0
O975 O 0.19932 0.8492 0.00101 0.0
H976 H 0.23789 0.72978 0.04272 0.0
O977 O 0.23602 0.85219 0.0465 0.0
O978 O 0.19973 0.78408 0.04362 0.0
O979 O 0.31738 0.86922 0.02545 0.0
O980 O 0.28665 0.80114 0.02898 0.0
C981 C 0.20953 0.81739 0.05493 0.0
H982 H 0.14871 0.64393 0.97803 0.0
H983 H 0.21194 0.65517 0.0436 0.0
H984 H 0.31768 0.99414 0.05895 0.0
H985 H 0.27407 -4e-05 0.98967 0.0
C986 C 0.16077 0.43879 0.95231 0.0
N987 N 0.25224 0.47176 0.00565 0.0
C988 C 0.28018 0.48268 0.98789 0.0
C989 C 0.32267 0.50943 0.99199 0.0
C990 C 0.33656 0.52487 0.01463 0.0
C991 C 0.30697 0.51235 0.03266 0.0
C992 C 0.26483 0.4859 0.02775 0.0
Zn993 Zn 0.19036 0.43166 1.00006 0.0
C994 C 0.14202 0.47245 0.01079 0.0
N995 N 0.06371 0.34774 0.99159 0.0
C996 C 0.05078 0.31029 0.98095 0.0
C997 C 0.03778 0.35374 0.00582 0.0
C998 C -0.00173 0.32083 0.01102 0.0
C999 C 0.98554 0.28072 0.0022 0.0
C1000 C 0.01184 0.27602 0.98629 0.0
Zn1001 Zn 0.12563 0.38999 0.9942 0.0
O1002 O 0.1909 0.46022 0.96635 0.0
C1003 C 0.1775 0.35227 0.98349 0.0
O1004 O 0.13078 0.40382 0.959 0.0
H1005 H 0.04858 0.38325 0.01457 0.0
H1006 H 0.26946 0.47081 0.97049 0.0
H1007 H 0.07163 0.30603 0.96955 0.0
O1008 O 0.2052 0.39051 0.98386 0.0
O1009 O 0.14025 0.34155 0.98885 0.0
H1010 H 0.24211 0.47671 0.04163 0.0
O1011 O 0.11925 0.37531 0.0292 0.0
O1012 O 0.18601 0.39967 0.03316 0.0
O1013 O 0.11439 0.44083 0.99978 0.0
O1014 O 0.17602 0.4741 0.01627 0.0
C1015 C 0.14909 0.3775 0.041 0.0
H1016 H 0.34419 0.5188 0.97744 0.0
H1017 H 0.3162 0.52306 0.05041 0.0
H1018 H 0.97853 0.32676 0.02247 0.0
H1019 H 0.00346 0.24594 0.97882 0.0
C1020 C 0.20347 0.3828 0.54602 0.0
N1021 N 0.27068 0.34631 0.50753 0.0
C1022 C 0.28877 0.34837 0.52851 0.0
C1023 C 0.29646 0.31689 0.53548 0.0
C1024 C 0.28801 0.28384 0.52021 0.0
C1025 C 0.27089 0.28341 0.49814 0.0
C1026 C 0.26178 0.31476 0.4923 0.0
Zn1027 Zn 0.24973 0.38724 0.50294 0.0
C1028 C 0.16167 0.34492 0.48568 0.0
N1029 N 0.20019 0.4685 0.50014 0.0
C1030 C 0.20881 0.49387 0.519 0.0
C1031 C 0.17558 0.46869 0.48257 0.0
C1032 C 0.15878 0.49527 0.48361 0.0
C1033 C 0.16823 0.52281 0.50263 0.0
C1034 C 0.19398 0.52178 0.52036 0.0
Zn1035 Zn 0.22298 0.42787 0.50089 0.0
O1036 O 0.23099 0.37632 0.53734 0.0
C1037 C 0.31019 0.47193 0.51835 0.0
O1038 O 0.1906 0.40337 0.53433 0.0
H1039 H 0.16849 0.44791 0.46785 0.0
H1040 H 0.29581 0.37375 0.54041 0.0
H1041 H 0.22726 0.4926 0.53324 0.0
O1042 O 0.30958 0.43857 0.51224 0.0
O1043 O 0.27679 0.47347 0.51755 0.0
H1044 H 0.247 0.31353 0.4758 0.0
O1045 O 0.25604 0.45044 0.46747 0.0
O1046 O 0.26921 0.39861 0.46833 0.0
O1047 O 0.17027 0.3826 0.48414 0.0
O1048 O 0.18883 0.33673 0.49374 0.0
C1049 C 0.27219 0.43045 0.45797 0.0
H1050 H 0.3086 0.31862 0.55286 0.0
H1051 H 0.26477 0.25944 0.48539 0.0
H1052 H 0.13849 0.49388 0.46964 0.0
H1053 H 0.20346 0.54272 0.53515 0.0
C1054 C 0.59509 0.8148 0.55174 0.0
N1055 N 0.62398 0.91687 0.51299 0.0
C1056 C 0.62565 0.93518 0.53385 0.0
C1057 C 0.65786 0.97531 0.53864 0.0
C1058 C 0.68808 -0.00229 0.52152 0.0
C1059 C 0.68483 0.97853 0.49979 0.0
C1060 C 0.65255 0.93768 0.49595 0.0
Zn1061 Zn 0.58297 0.85477 0.51052 0.0
C1062 C 0.62295 0.80966 0.48872 0.0
N1063 N 0.50331 0.72376 0.50989 0.0
C1064 C 0.48804 0.70864 0.53154 0.0
C1065 C 0.49307 0.69777 0.49118 0.0
C1066 C 0.4657 0.65475 0.49392 0.0
C1067 C 0.449 0.63864 0.51611 0.0
C1068 C 0.46113 0.66621 0.53506 0.0
Zn1069 Zn 0.54305 0.78695 0.50852 0.0
O1070 O 0.60089 0.8491 0.5438 0.0
C1071 C 0.50125 0.83017 0.53003 0.0
O1072 O 0.57284 0.78153 0.54028 0.0
H1073 H 0.50574 0.71042 0.47416 0.0
H1074 H 0.60279 0.91802 0.54724 0.0
H1075 H 0.49651 0.72961 0.54626 0.0
O1076 O 0.5341 0.86314 0.5237 0.0
O1077 O 0.49929 0.79511 0.52769 0.0
H1078 H 0.6508 0.92228 0.47959 0.0
O1079 O 0.51548 0.79462 0.47644 0.0
O1080 O 0.56445 0.86087 0.47721 0.0
O1081 O 0.58585 0.77925 0.4893 0.0
O1082 O 0.63123 0.84478 0.49721 0.0
C1083 C 0.53279 0.83109 0.46731 0.0
H1084 H 0.6592 0.98833 0.55576 0.0
H1085 H 0.70676 0.99487 0.48583 0.0
H1086 H 0.45675 0.6346 0.47876 0.0
H1087 H 0.44953 0.65519 0.55251 0.0
C1088 C 0.15076 0.7679 0.53464 0.0
N1089 N 0.07104 0.71487 0.48183 0.0
C1090 C 0.04332 0.68191 0.49494 0.0
C1091 C 0.00384 0.67581 0.49933 0.0
C1092 C -0.00719 0.70457 0.49083 0.0
C1093 C 0.02043 0.73623 0.47565 0.0
C1094 C 0.05965 0.74068 0.47122 0.0
Zn1095 Zn 0.13239 0.73335 0.4874 0.0
C1096 C 0.18785 0.82259 0.47851 0.0
N1097 N 0.25604 0.77309 0.50558 0.0
C1098 C 0.26311 0.76669 0.52811 0.0
C1099 C 0.28805 0.7941 0.49034 0.0
C1100 C 0.32918 0.80933 0.4976 0.0
C1101 C 0.33732 0.80288 0.52075 0.0
C1102 C 0.30363 0.78141 0.53609 0.0
Zn1103 Zn 0.19598 0.75333 0.49636 0.0
O1104 O 0.12118 0.74178 0.52199 0.0
C1105 C 0.14349 0.66391 0.50492 0.0
O1106 O 0.18796 0.77932 0.52858 0.0
H1107 H 0.28165 0.79904 0.47256 0.0
H1108 H 0.0526 0.66215 0.50383 0.0
H1109 H 0.23721 0.75025 0.54 0.0
O1110 O 0.11837 0.6705 0.49309 0.0
O1111 O 0.17756 0.69473 0.51178 0.0
H1112 H 0.08189 0.7667 0.46079 0.0
O1113 O 0.20168 0.72809 0.46308 0.0
O1114 O 0.14311 0.72561 0.45277 0.0
O1115 O 0.21457 0.81102 0.48095 0.0
O1116 O 0.14952 0.79659 0.48166 0.0
C1117 C 0.17406 0.72108 0.44762 0.0
H1118 H 0.98288 0.6498 0.51029 0.0
H1119 H 0.0129 0.7587 0.46838 0.0
H1120 H 0.35422 0.82503 0.48506 0.0
H1121 H 0.30851 0.77596 0.5541 0.0
C1122 C 0.05687 0.54535 0.28169 0.0
N1123 N 0.03068 0.61553 0.32514 0.0
C1124 C 0.02921 0.63909 0.30734 0.0
C1125 C -0.00416 0.64634 0.30546 0.0
C1126 C 0.96286 0.62818 0.32165 0.0
C1127 C 0.96579 0.60474 0.34015 0.0
C1128 C 0.00037 0.59932 0.34175 0.0
Zn1129 Zn 0.0735 0.59655 0.32349 0.0
C1130 C 0.0425 0.51325 0.34546 0.0
N1131 N 0.1575 0.55186 0.31779 0.0
C1132 C 0.171 0.55066 0.29587 0.0
C1133 C 0.16825 0.53643 0.33641 0.0
C1134 C 0.19394 0.51918 0.33332 0.0
C1135 C 0.20861 0.51792 0.31087 0.0
C1136 C 0.19664 0.53371 0.29199 0.0
Zn1137 Zn 0.11755 0.57396 0.32135 0.0
O1138 O 0.04984 0.57235 0.29079 0.0
C1139 C 0.1535 0.6578 0.30087 0.0
O1140 O 0.08373 0.53789 0.29084 0.0
H1141 H 0.1569 0.53752 0.35365 0.0
H1142 H 0.05322 0.65112 0.29409 0.0
H1143 H 0.16175 0.56277 0.28128 0.0
O1144 O 0.12065 0.65582 0.30926 0.0
O1145 O 0.15683 0.62531 0.30101 0.0
H1146 H 0.00208 0.5807 0.35579 0.0
O1147 O 0.14934 0.61008 0.3523 0.0
O1148 O 0.09665 0.62143 0.35609 0.0
O1149 O 0.08018 0.52377 0.34187 0.0
O1150 O 0.02889 0.53676 0.33827 0.0
C1151 C 0.1312 0.62643 0.36347 0.0
H1152 H -0.00401 0.66583 0.29131 0.0
H1153 H 0.94124 0.58974 0.353 0.0
H1154 H 0.20314 0.50803 0.3484 0.0
H1155 H 0.20719 0.53319 0.27442 0.0
C1156 C 0.45082 0.50576 0.28886 0.0
N1157 N 0.38307 0.40332 0.32781 0.0
C1158 C 0.3639 0.38563 0.3073 0.0
C1159 C 0.3541 0.34517 0.30185 0.0
C1160 C 0.36268 0.32196 0.31801 0.0
C1161 C 0.3819 0.34074 0.33927 0.0
C1162 C 0.39223 0.3819 0.34376 0.0
Zn1163 Zn 0.4039 0.4648 0.33155 0.0
C1164 C 0.491 0.51011 0.3499 0.0
N1165 N 0.45387 0.59574 0.33399 0.0
C1166 C 0.44615 0.61238 0.31475 0.0
C1167 C 0.47831 0.62077 0.35156 0.0
C1168 C 0.49596 0.66425 0.35008 0.0
C1169 C 0.48767 0.68225 0.33056 0.0
C1170 C 0.46194 0.65525 0.3129 0.0
Zn1171 Zn 0.43065 0.53214 0.33366 0.0
O1172 O 0.42351 0.4717 0.29759 0.0
C1173 C 0.34478 0.48869 0.31429 0.0
O1174 O 0.46343 0.53935 0.30041 0.0
H1175 H 0.48469 0.60717 0.36659 0.0
H1176 H 0.35705 0.40328 0.29479 0.0
H1177 H 0.42782 0.59247 0.30054 0.0
O1178 O 0.34494 0.45599 0.32092 0.0
O1179 O 0.3777 0.52386 0.31616 0.0
H1180 H 0.40788 0.39689 0.35983 0.0
O1181 O 0.39674 0.52207 0.36691 0.0
O1182 O 0.38324 0.45702 0.36576 0.0
O1183 O 0.48285 0.53953 0.35106 0.0
O1184 O 0.46385 0.4749 0.34175 0.0
C1185 C 0.38025 0.48572 0.37623 0.0
H1186 H 0.3398 0.33224 0.28514 0.0
H1187 H 0.3882 0.32368 0.3525 0.0
H1188 H 0.51611 0.68333 0.36406 0.0
H1189 H 0.45329 0.66669 0.29775 0.0
C1190 C 0.50766 0.94129 0.29201 0.0
N1191 N 0.58938 0.97536 0.34433 0.0
C1192 C 0.61717 0.97059 0.33104 0.0
C1193 C 0.65662 0.00437 0.32664 0.0
C1194 C 0.66761 0.0441 0.33538 0.0
C1195 C 0.63947 0.04763 0.35041 0.0
C1196 C 0.60041 0.01256 0.35482 0.0
Zn1197 Zn 0.52789 0.93097 0.34007 0.0
C1198 C 0.47193 0.96504 0.34778 0.0
N1199 N 0.40223 0.84463 0.32455 0.0
C1200 C 0.39329 0.83091 0.30211 0.0
C1201 C 0.3713 0.83362 0.34056 0.0
C1202 C 0.32951 0.80771 0.33421 0.0
C1203 C 0.3193 0.79328 0.31106 0.0
C1204 C 0.35204 0.8055 0.29494 0.0
Zn1205 Zn 0.46345 0.88639 0.33245 0.0
O1206 O 0.53729 0.94632 0.30509 0.0
C1207 C 0.51622 0.84911 0.32507 0.0
O1208 O 0.47041 0.91729 0.29885 0.0
H1209 H 0.37902 0.84514 0.35826 0.0
H1210 H 0.60795 0.94135 0.32232 0.0
H1211 H 0.41823 0.84012 0.28957 0.0
O1212 O 0.54226 0.88205 0.33579 0.0
O1213 O 0.48163 0.84511 0.31855 0.0
H1214 H 0.57806 0.01598 0.36534 0.0
O1215 O 0.46008 0.85907 0.36696 0.0
O1216 O 0.5193 0.91612 0.37524 0.0
O1217 O 0.44522 0.92655 0.34636 0.0
O1218 O 0.51021 0.97734 0.34435 0.0
C1219 C 0.48894 0.88105 0.3816 0.0
H1220 H 0.67776 -0.00055 0.3158 0.0
H1221 H 0.64659 0.07743 0.35779 0.0
H1222 H 0.30558 0.79855 0.34743 0.0
H1223 H 0.34599 0.79575 0.27687 0.0
C1224 C 0.1743 0.08769 0.17511 0.0
C1225 C 0.15781 0.09795 0.15564 0.0
H1226 H 0.19407 0.04704 0.1896 0.0
C1227 C 0.15353 0.07629 0.13454 0.0
H1228 H 0.17769 0.10239 0.19189 0.0
C1229 C 0.16134 0.04292 0.13368 0.0
C1230 C 0.17587 0.03196 0.15348 0.0
H1231 H 0.14278 0.08385 0.11873 0.0
H1232 H 0.15466 0.02478 0.11779 0.0
C1233 C 0.18386 0.05565 0.17388 0.0
C1234 C 0.92318 0.1323 0.16134 0.0
C1235 C 0.95872 0.14304 0.14775 0.0
H1236 H 0.86361 0.08299 0.1729 0.0
C1237 C 0.95884 0.11306 0.13276 0.0
H1238 H 0.92243 0.15481 0.17315 0.0
C1239 C 0.92573 0.07214 0.13281 0.0
C1240 C 0.8916 0.0602 0.14785 0.0
H1241 H 0.98588 0.12056 0.12207 0.0
H1242 H 0.92841 0.04931 0.12222 0.0
C1243 C 0.88986 0.09107 0.16144 0.0
C1244 C 0.90182 0.80169 0.15677 0.0
C1245 C 0.93524 0.8369 0.14623 0.0
H1246 H 0.83623 0.76825 0.16381 0.0
C1247 C 0.92662 0.86196 0.13141 0.0
H1248 H 0.90745 0.78133 0.16791 0.0
C1249 C 0.88593 0.85419 0.12881 0.0
C1250 C 0.85301 0.82127 0.14103 0.0
H1251 H 0.95159 0.88941 0.12307 0.0
H1252 H 0.88072 0.87583 0.11858 0.0
C1253 C 0.86097 0.79382 0.15412 0.0
C1254 C 0.05017 0.12687 0.37848 0.0
C1255 C 0.08637 0.15163 0.36533 0.0
H1256 H 0.98874 0.11394 0.3873 0.0
C1257 C 0.09084 0.18747 0.35402 0.0
H1258 H 0.04566 0.099 0.38732 0.0
C1259 C 0.05819 0.19628 0.3542 0.0
C1260 C 0.02051 0.16905 0.36547 0.0
H1261 H 0.11874 0.20749 0.34408 0.0
H1262 H 0.06115 0.22222 0.3439 0.0
C1263 C 0.01753 0.13544 0.37848 0.0
C1264 C 0.81328 0.86884 0.36384 0.0
C1265 C 0.80767 0.84686 0.34304 0.0
H1266 H 0.82392 0.92532 0.37987 0.0
C1267 C 0.80708 0.86541 0.32181 0.0
H1268 H 0.81402 0.85505 0.38041 0.0
C1269 C 0.81554 0.90674 0.32119 0.0
C1270 C 0.82355 0.9301 0.34193 0.0
H1271 H 0.80355 0.84914 0.30549 0.0
H1272 H 0.8183 0.92081 0.30425 0.0
C1273 C 0.81996 0.90958 0.36336 0.0
C1274 C 0.06899 0.91057 0.37898 0.0
C1275 C 0.0554 0.89113 0.35697 0.0
H1276 H 0.11842 0.96039 0.39847 0.0
C1277 C 0.0856 0.90222 0.33921 0.0
H1278 H 0.04784 0.9021 0.39362 0.0
C1279 C 0.12681 0.93345 0.34278 0.0
C1280 C 0.13872 0.95572 0.3638 0.0
H1281 H 0.0775 0.8893 0.32184 0.0
H1282 H 0.14822 0.94315 0.32813 0.0
C1283 C 0.1099 0.94333 0.38213 0.0
C1284 C 0.80792 0.89964 0.82634 0.0
C1285 C 0.82323 0.88618 0.84497 0.0
H1286 H 0.79038 0.94346 0.81426 0.0
C1287 C 0.82668 0.90446 0.86713 0.0
H1288 H 0.80505 0.88735 0.8089 0.0
C1289 C 0.81987 0.93822 0.86985 0.0
C1290 C 0.80728 0.95301 0.85081 0.0
H1291 H 0.83638 0.8941 0.8823 0.0
H1292 H 0.82631 0.954 0.88655 0.0
C1293 C 0.79935 0.9321 0.82937 0.0
C1294 C 0.06115 0.91324 0.85558 0.0
C1295 C 0.09421 0.92339 0.83998 0.0
H1296 H 0.00078 0.86718 0.86749 0.0
C1297 C 0.09257 0.89174 0.82556 0.0
H1298 H 0.06089 0.9368 0.86671 0.0
C1299 C 0.05766 0.85135 0.82605 0.0
C1300 C 0.02378 0.84222 0.8408 0.0
H1301 H 0.11773 0.89846 0.81351 0.0
H1302 H 0.05617 0.8281 0.81396 0.0
C1303 C 0.02648 0.87324 0.856 0.0
C1304 C 0.06276 0.10961 0.87395 0.0
C1305 C 0.05393 0.13892 0.86381 0.0
H1306 H 0.10895 0.09218 0.88034 0.0
C1307 C 0.08706 0.17719 0.85588 0.0
H1308 H 0.03783 0.07985 0.88019 0.0
C1309 C 0.12792 0.1845 0.85621 0.0
C1310 C 0.1361 0.15333 0.86415 0.0
H1311 H 0.08106 0.20054 0.8483 0.0
H1312 H 0.15241 0.21301 0.84845 0.0
C1313 C 0.10349 0.11669 0.87403 0.0
C1314 C 0.92001 0.84955 0.62643 0.0
C1315 C 0.88782 0.82491 0.64219 0.0
H1316 H 0.97942 0.86442 0.61246 0.0
C1317 C 0.88832 0.79126 0.65337 0.0
H1318 H 0.92084 0.87591 0.61764 0.0
C1319 C 0.92197 0.78442 0.65016 0.0
C1320 C 0.95578 0.81149 0.63596 0.0
H1321 H 0.86365 0.77139 0.66535 0.0
H1322 H 0.9231 0.76025 0.66029 0.0
C1323 C 0.95363 0.84294 0.62339 0.0
C1324 C 0.16826 0.1188 0.62866 0.0
C1325 C 0.17782 0.14239 0.64918 0.0
H1326 H 0.15225 0.0603 0.61311 0.0
C1327 C 0.1805 0.1246 0.67027 0.0
H1328 H 0.16562 0.13183 0.61223 0.0
C1329 C 0.17006 0.08266 0.6712 0.0
C1330 C 0.15788 0.05777 0.65088 0.0
H1331 H 0.18678 0.14192 0.68645 0.0
H1332 H 0.16898 0.06945 0.6882 0.0
C1333 C 0.15948 0.07732 0.62939 0.0
C1334 C 0.88015 0.01774 0.62725 0.0
C1335 C 0.84857 0.02023 0.63951 0.0
H1336 H 0.94538 0.04632 0.62006 0.0
C1337 C 0.85815 0.0578 0.65074 0.0
H1338 H 0.87364 0.98917 0.61842 0.0
C1339 C 0.89943 0.09049 0.65186 0.0
C1340 C 0.93162 0.08628 0.64155 0.0
H1341 H 0.83451 0.06062 0.6604 0.0
H1342 H 0.90645 0.11816 0.66182 0.0
C1343 C 0.9213 0.05049 0.62823 0.0
C1344 C 0.83396 0.38294 0.46594 0.0
C1345 C 0.84601 0.36976 0.48591 0.0
H1346 H 0.81656 0.42507 0.45129 0.0
C1347 C 0.85139 0.39131 0.50694 0.0
H1348 H 0.82914 0.36645 0.44957 0.0
C1349 C 0.8416 0.42325 0.50843 0.0
C1350 C 0.82727 0.43536 0.48872 0.0
H1351 H 0.85949 0.38094 0.52278 0.0
H1352 H 0.84289 0.43635 0.52549 0.0
C1353 C 0.82569 0.41599 0.46718 0.0
C1354 C 0.58076 0.42505 0.51273 0.0
C1355 C 0.56263 0.40059 0.49264 0.0
H1356 H 0.6275 0.48378 0.52648 0.0
C1357 C 0.57551 0.41998 0.47057 0.0
H1358 H 0.57271 0.41182 0.53007 0.0
C1359 C 0.6085 0.46106 0.46866 0.0
C1360 C 0.62756 0.48412 0.48877 0.0
H1361 H 0.56144 0.40311 0.45463 0.0
H1362 H 0.62014 0.47422 0.45154 0.0
C1363 C 0.61243 0.46653 0.51075 0.0
C1364 C 0.5271 0.12962 0.48557 0.0
C1365 C 0.51786 0.15701 0.47344 0.0
H1366 H 0.57518 0.11786 0.49745 0.0
C1367 C 0.54926 0.1895 0.4602 0.0
H1368 H 0.50349 0.10444 0.49602 0.0
C1369 C 0.59022 0.19755 0.46126 0.0
C1370 C 0.60053 0.17318 0.47559 0.0
H1371 H 0.54287 0.21104 0.45067 0.0
H1372 H 0.61422 0.22502 0.45244 0.0
C1373 C 0.56826 0.13777 0.48672 0.0
C1374 C 0.73076 0.49384 0.65795 0.0
C1375 C 0.75479 0.49881 0.67796 0.0
H1376 H 0.67795 0.49467 0.6436 0.0
C1377 C 0.7456 0.51322 0.69873 0.0
H1378 H 0.73603 0.4821 0.64176 0.0
C1379 C 0.71127 0.5194 0.69984 0.0
C1380 C 0.68655 0.51226 0.68004 0.0
H1381 H 0.76397 0.51832 0.71436 0.0
H1382 H 0.70313 0.52807 0.71625 0.0
C1383 C 0.6972 0.50077 0.65899 0.0
C1384 C 0.47609 0.20838 0.70133 0.0
C1385 C 0.46813 0.18284 0.68177 0.0
H1386 H 0.49008 0.26802 0.7143 0.0
C1387 C 0.46644 0.19818 0.65964 0.0
H1388 H 0.47782 0.19719 0.71855 0.0
C1389 C 0.47613 0.23969 0.65687 0.0
C1390 C 0.48662 0.26649 0.6763 0.0
H1391 H 0.46127 0.17923 0.64421 0.0
H1392 H 0.47792 0.25112 0.63928 0.0
C1393 C 0.48414 0.24939 0.69871 0.0
C1394 C 0.76354 0.30583 0.71556 0.0
C1395 C 0.79629 0.30359 0.70449 0.0
H1396 H 0.6979 0.27669 0.72143 0.0
C1397 C 0.7879 0.26573 0.69411 0.0
H1398 H 0.76903 0.33465 0.72366 0.0
C1399 C 0.74682 0.23236 0.69267 0.0
C1400 C 0.71349 0.23616 0.70176 0.0
H1401 H 0.81239 0.26311 0.68527 0.0
H1402 H 0.74094 0.20438 0.68341 0.0
C1403 C 0.72264 0.27252 0.71423 0.0
C1404 C 0.47624 0.23459 0.16404 0.0
C1405 C 0.49189 0.22354 0.18359 0.0
H1406 H 0.45823 0.27656 0.1495 0.0
C1407 C 0.49612 0.24489 0.20478 0.0
H1408 H 0.47303 0.22014 0.1472 0.0
C1409 C 0.4892 0.2788 0.20567 0.0
C1410 C 0.47571 0.29066 0.18578 0.0
H1411 H 0.50634 0.23671 0.22059 0.0
H1412 H 0.49593 0.29676 0.22163 0.0
C1413 C 0.46761 0.26723 0.16527 0.0
C1414 C 0.7285 0.25574 0.19626 0.0
C1415 C 0.76052 0.26686 0.17978 0.0
H1416 H 0.67032 0.20783 0.20971 0.0
C1417 C 0.76031 0.23536 0.16587 0.0
H1418 H 0.72731 0.27912 0.20711 0.0
C1419 C 0.72728 0.1941 0.1674 0.0
C1420 C 0.69391 0.18392 0.18274 0.0
H1421 H 0.78488 0.24284 0.15327 0.0
H1422 H 0.7265 0.17096 0.15549 0.0
C1423 C 0.69568 0.21478 0.19774 0.0
C1424 C 0.79425 0.53157 0.18226 0.0
C1425 C 0.80366 0.5037 0.19375 0.0
H1426 H 0.74615 0.54382 0.17099 0.0
C1427 C 0.7719 0.46973 0.20599 0.0
H1428 H 0.81804 0.55791 0.17256 0.0
C1429 C 0.7308 0.46142 0.20488 0.0
C1430 C 0.7206 0.4869 0.19148 0.0
H1431 H 0.77825 0.44771 0.215 0.0
H1432 H 0.7067 0.43324 0.21311 0.0
C1433 C 0.75298 0.52312 0.18105 0.0
C1434 C 0.59509 0.12814 0.98636 0.0
C1435 C 0.63178 0.15423 0.97393 0.0
H1436 H 0.53577 0.11834 0.99793 0.0
C1437 C 0.63391 0.18687 0.96035 0.0
H1438 H 0.59279 0.10292 0.99709 0.0
C1439 C 0.60165 0.19592 0.96101 0.0
C1440 C 0.5667 0.17252 0.9753 0.0
H1441 H 0.66191 0.20742 0.95061 0.0
H1442 H 0.60564 0.2232 0.9517 0.0
C1443 C 0.5628 0.13738 0.98714 0.0
C1444 C 0.83671 0.41933 0.01031 0.0
C1445 C 0.82924 0.39471 0.99012 0.0
H1446 H 0.84861 0.47792 0.0245 0.0
C1447 C 0.83334 0.41388 0.96817 0.0
H1448 H 0.8334 0.40632 0.0276 0.0
C1449 C 0.84037 0.45469 0.96659 0.0
C1450 C 0.84573 0.47801 0.98683 0.0
H1451 H 0.82964 0.39707 0.95208 0.0
H1452 H 0.84018 0.46752 0.94961 0.0
C1453 C 0.84545 0.46066 0.00861 0.0
C1454 C 0.52701 0.39256 0.99191 0.0
C1455 C 0.51359 0.36703 0.97207 0.0
H1456 H 0.57779 0.44015 0.01059 0.0
C1457 C 0.54115 0.37656 0.95329 0.0
H1458 H 0.50664 0.38516 0.00693 0.0
C1459 C 0.58226 0.40975 0.95486 0.0
C1460 C 0.59744 0.43273 0.97579 0.0
H1461 H 0.53153 0.35697 0.93787 0.0
H1462 H 0.60232 0.41583 0.93991 0.0
C1463 C 0.56846 0.42441 0.99396 0.0
C1464 C 0.4847 0.74943 0.79691 0.0
C1465 C 0.49212 0.77022 0.8186 0.0
H1466 H 0.4831 0.69863 0.7778 0.0
C1467 C 0.51238 0.76 0.8361 0.0
H1468 H 0.47112 0.75721 0.78243 0.0
C1469 C 0.52193 0.72828 0.83264 0.0
C1470 C 0.51012 0.70473 0.81201 0.0
H1471 H 0.5186 0.77426 0.85317 0.0
H1472 H 0.53481 0.71951 0.84708 0.0
C1473 C 0.49262 0.71642 0.79389 0.0
C1474 C 0.24493 0.75548 0.85472 0.0
C1475 C 0.2228 0.73661 0.83411 0.0
H1476 H 0.29673 0.80907 0.87017 0.0
C1477 C 0.23393 0.76077 0.81347 0.0
H1478 H 0.23803 0.73816 0.87091 0.0
C1479 C 0.2686 0.8011 0.81302 0.0
C1480 C 0.2916 0.81855 0.83337 0.0
H1481 H 0.21697 0.74803 0.79738 0.0
H1482 H 0.27836 0.81797 0.79663 0.0
C1483 C 0.27876 0.79616 0.85435 0.0
C1484 C 0.25568 0.54658 0.79044 0.0
C1485 C 0.26435 0.51788 0.80152 0.0
H1486 H 0.20958 0.56366 0.78285 0.0
C1487 C 0.23108 0.47998 0.80977 0.0
H1488 H 0.28071 0.57605 0.78394 0.0
C1489 C 0.19019 0.47256 0.8088 0.0
C1490 C 0.18218 0.50329 0.79992 0.0
H1491 H 0.23697 0.4571 0.8181 0.0
H1492 H 0.16556 0.44455 0.8169 0.0
C1493 C 0.21495 0.53945 0.78977 0.0
C1494 C 0.42829 0.8598 0.02143 0.0
C1495 C 0.42609 0.82377 0.03114 0.0
H1496 H 0.39589 0.89324 0.01464 0.0
C1497 C 0.39165 0.79747 0.04517 0.0
H1498 H 0.45481 0.88104 0.01089 0.0
C1499 C 0.3583 0.80468 0.0475 0.0
C1500 C 0.35873 0.83836 0.03591 0.0
H1501 H 0.38882 0.76938 0.05285 0.0
H1502 H 0.33072 0.78195 0.05683 0.0
C1503 C 0.39489 0.86718 0.02391 0.0
C1504 C 0.15601 0.57452 0.03259 0.0
C1505 C 0.16061 0.5959 0.01136 0.0
H1506 H 0.14693 0.51833 0.0491 0.0
C1507 C 0.15187 0.57298 0.9904 0.0
H1508 H 0.16065 0.59003 0.04923 0.0
C1509 C 0.14132 0.53102 0.99063 0.0
C1510 C 0.14046 0.5113 0.01168 0.0
H1511 H 0.15548 0.58773 0.97359 0.0
H1512 H 0.13719 0.515 0.97415 0.0
C1513 C 0.14714 0.53301 0.03269 0.0
C1514 C 0.39098 0.5908 0.03358 0.0
C1515 C 0.381 0.55654 0.01894 0.0
H1516 H 0.43773 0.65129 0.045 0.0
C1517 C 0.41344 0.555 0.00698 0.0
H1518 H 0.36691 0.59328 0.04298 0.0
C1519 C 0.45435 0.58862 0.00809 0.0
C1520 C 0.46341 0.62438 0.02113 0.0
H1521 H 0.40694 0.52861 0.99596 0.0
H1522 H 0.47811 0.5878 0.99742 0.0
C1523 C 0.43171 0.62424 0.03471 0.0
C1524 C 0.14634 0.57012 0.48296 0.0
C1525 C 0.1536 0.55399 0.50361 0.0
H1526 H 0.13572 0.61679 0.46752 0.0
C1527 C 0.1502 0.57072 0.52515 0.0
H1528 H 0.14904 0.55895 0.46596 0.0
C1529 C 0.14432 0.60526 0.52585 0.0
C1530 C 0.13937 0.62231 0.50514 0.0
H1531 H 0.15366 0.55834 0.54158 0.0
H1532 H 0.14503 0.61949 0.54251 0.0
C1533 C 0.13871 0.6035 0.48378 0.0
C1534 C 0.41865 0.56173 0.5078 0.0
C1535 C 0.41648 0.59417 0.51938 0.0
H1536 H 0.38672 0.49649 0.49907 0.0
C1537 C 0.38157 0.58421 0.53345 0.0
H1538 H 0.44539 0.5684 0.49708 0.0
C1539 C 0.34853 0.54333 0.53479 0.0
C1540 C 0.34951 0.51135 0.52213 0.0
H1541 H 0.3786 0.60838 0.54243 0.0
H1542 H 0.32104 0.53718 0.54467 0.0
C1543 C 0.38546 0.52051 0.50928 0.0
C1544 C 0.45527 0.86058 0.52372 0.0
C1545 C 0.46211 0.83031 0.53443 0.0
H1546 H 0.40991 0.87557 0.51093 0.0
C1547 C 0.42814 0.79472 0.54423 0.0
H1548 H 0.48086 0.88826 0.51592 0.0
C1549 C 0.38763 0.78726 0.54116 0.0
C1550 C 0.38033 0.81528 0.52821 0.0
H1551 H 0.43255 0.7709 0.5526 0.0
H1552 H 0.36196 0.75792 0.54733 0.0
C1553 C 0.41462 0.85299 0.52052 0.0
C1554 C 0.2753 0.52853 0.29412 0.0
C1555 C 0.23944 0.50405 0.30757 0.0
H1556 H 0.33686 0.54195 0.28536 0.0
C1557 C 0.23566 0.46916 0.31962 0.0
H1558 H 0.27922 0.55571 0.28472 0.0
C1559 C 0.26873 0.46105 0.3198 0.0
C1560 C 0.30603 0.4881 0.30816 0.0
H1561 H 0.20801 0.44943 0.32983 0.0
H1562 H 0.26639 0.43589 0.3306 0.0
C1563 C 0.30833 0.52068 0.29448 0.0
C1564 C 0.50856 0.74787 0.30702 0.0
C1565 C 0.50362 0.72829 0.32892 0.0
H1566 H 0.51591 0.80177 0.28856 0.0
C1567 C 0.51057 0.7525 0.3492 0.0
H1568 H 0.50535 0.7313 0.2909 0.0
C1569 C 0.51926 0.79383 0.34762 0.0
C1570 C 0.52009 0.81153 0.32583 0.0
H1571 H 0.50675 0.73905 0.36642 0.0
H1572 H 0.52182 0.81077 0.36355 0.0
C1573 C 0.51558 0.78866 0.30553 0.0
C1574 C 0.22544 0.69851 0.28512 0.0
C1575 C 0.19223 0.6982 0.29721 0.0
H1576 H 0.29123 0.72769 0.28046 0.0
C1577 C 0.2004 0.73301 0.31091 0.0
H1578 H 0.22017 0.67203 0.2745 0.0
C1579 C 0.24154 0.76533 0.31438 0.0
C1580 C 0.27524 0.76345 0.30418 0.0
H1581 H 0.17555 0.73356 0.32063 0.0
H1582 H 0.24703 0.79074 0.32596 0.0
C1583 C 0.2664 0.73057 0.28863 0.0
C1584 C 0.21556 0.35319 0.15828 0.0
C1585 C 0.19683 0.33644 0.17989 0.0
H1586 H 0.27002 0.37478 0.13715 0.0
C1587 C 0.2216 0.33775 0.19866 0.0
H1588 H 0.19666 0.35167 0.14346 0.0
C1589 C 0.26393 0.35199 0.19529 0.0
C1590 C 0.28173 0.36338 0.17283 0.0
H1591 H 0.20755 0.32457 0.21541 0.0
H1592 H 0.28194 0.35134 0.21 0.0
C1593 C 0.25763 0.36611 0.15466 0.0
C1594 C 0.62629 0.88861 0.15774 0.0
C1595 C 0.63221 0.91783 0.17523 0.0
H1596 H 0.63915 0.84101 0.14652 0.0
C1597 C 0.64816 0.91474 0.19701 0.0
H1598 H 0.61417 0.88971 0.14074 0.0
C1599 C 0.66366 0.88757 0.19996 0.0
C1600 C 0.66163 0.86174 0.18157 0.0
H1601 H 0.65133 0.93523 0.21133 0.0
H1602 H 0.68028 0.8892 0.21586 0.0
C1603 C 0.64032 0.8603 0.16108 0.0
C1604 C 0.12525 0.77679 0.17135 0.0
C1605 C 0.12306 0.79528 0.19223 0.0
H1606 H 0.09674 0.72309 0.1497 0.0
C1607 C 0.09627 0.77037 0.21 0.0
H1608 H 0.14526 0.79585 0.15723 0.0
C1609 C 0.06932 0.72786 0.20613 0.0
C1610 C 0.06708 0.71025 0.18394 0.0
H1611 H 0.09403 0.78432 0.22618 0.0
H1612 H 0.04849 0.70965 0.22013 0.0
C1613 C 0.09702 0.73482 0.16703 0.0
C1614 C 0.28958 0.20919 0.30381 0.0
C1615 C 0.30929 0.18998 0.31496 0.0
H1616 H 0.29046 0.2659 0.29659 0.0
C1617 C 0.35035 0.21438 0.32299 0.0
H1618 H 0.25794 0.19082 0.29734 0.0
C1619 C 0.36948 0.25791 0.32238 0.0
C1620 C 0.34761 0.27718 0.31376 0.0
H1621 H 0.36609 0.20006 0.33166 0.0
H1622 H 0.40024 0.27632 0.32993 0.0
C1623 C 0.30841 0.25238 0.30333 0.0
C1624 C 0.72634 0.08224 0.3069 0.0
C1625 C 0.70843 0.0809 0.32883 0.0
H1626 H 0.78284 0.10673 0.28711 0.0
C1627 C 0.73185 0.11266 0.34508 0.0
H1628 H 0.70866 0.05967 0.29345 0.0
C1629 C 0.77382 0.14142 0.34068 0.0
C1630 C 0.79311 0.13785 0.3204 0.0
H1631 H 0.71916 0.1131 0.36204 0.0
H1632 H 0.79235 0.1627 0.35445 0.0
C1633 C 0.76855 0.10997 0.3029 0.0
C1634 C 0.87758 0.65149 0.33841 0.0
C1635 C 0.86831 0.66253 0.31678 0.0
H1636 H 0.91584 0.63375 0.35714 0.0
C1637 C 0.88555 0.6567 0.2964 0.0
H1638 H 0.86535 0.657 0.35439 0.0
C1639 C 0.9139 0.64226 0.2978 0.0
C1640 C 0.9267 0.6352 0.3197 0.0
H1641 H 0.87924 0.66588 0.27961 0.0
H1642 H 0.92733 0.63879 0.28175 0.0
C1643 C 0.90679 0.63832 0.33992 0.0
C1644 C 0.71269 0.63429 0.80286 0.0
C1645 C 0.69639 0.62377 0.82567 0.0
H1646 H 0.76761 0.6606 0.78153 0.0
C1647 C 0.72153 0.62153 0.84336 0.0
H1648 H 0.69374 0.63466 0.78856 0.0
C1649 C 0.76339 0.63429 0.83888 0.0
C1650 C 0.78069 0.65009 0.81683 0.0
H1651 H 0.7101 0.61343 0.86108 0.0
H1652 H 0.78324 0.63627 0.85329 0.0
C1653 C 0.75471 0.64818 0.7986 0.0
C1654 C 0.36291 0.14605 0.83122 0.0
C1655 C 0.33664 0.13706 0.81182 0.0
H1656 H 0.3938 0.12399 0.85362 0.0
C1657 C 0.33314 0.10696 0.79574 0.0
H1658 H 0.36621 0.1694 0.84381 0.0
C1659 C 0.35009 0.08167 0.80093 0.0
C1660 C 0.3693 0.08514 0.8227 0.0
H1661 H 0.3133 0.09979 0.78053 0.0
H1662 H 0.34465 0.05693 0.78884 0.0
C1663 C 0.37848 0.11968 0.83694 0.0
C1664 C 0.92149 0.21549 0.80085 0.0
C1665 C 0.88224 0.19639 0.81171 0.0
H1666 H 0.9775 0.27239 0.79346 0.0
C1667 C 0.86644 0.2212 0.82039 0.0
H1668 H 0.93425 0.19686 0.79401 0.0
C1669 C 0.89144 0.26473 0.82022 0.0
C1670 C 0.93223 0.28374 0.81115 0.0
H1671 H 0.83633 0.20705 0.82898 0.0
H1672 H 0.87966 0.2834 0.82816 0.0
C1673 C 0.94623 0.25876 0.80051 0.0
C1674 C 0.61604 0.73673 0.6716 0.0
C1675 C 0.62269 0.71209 0.68788 0.0
H1676 H 0.63193 0.79835 0.66108 0.0
C1677 C 0.64287 0.7307 0.70908 0.0
H1678 H 0.60071 0.7242 0.6551 0.0
C1679 C 0.66247 0.77391 0.71193 0.0
C1680 C 0.65985 0.79862 0.69429 0.0
H1681 H 0.64653 0.71258 0.72274 0.0
H1682 H 0.68248 0.78823 0.72691 0.0
C1683 C 0.63383 0.77957 0.67506 0.0
C1684 C 0.25583 0.909 0.69212 0.0
C1685 C 0.27713 0.91387 0.67092 0.0
H1686 H 0.19656 0.88104 0.70939 0.0
C1687 C 0.25597 0.8856 0.65266 0.0
H1688 H 0.27144 0.92887 0.70696 0.0
C1689 C 0.21344 0.85644 0.6547 0.0
C1690 C 0.19135 0.85581 0.67475 0.0
H1691 H 0.27115 0.88813 0.6361 0.0
H1692 H 0.19696 0.83788 0.6396 0.0
C1693 C 0.21315 0.88081 0.69385 0.0
C1694 C 0.08995 0.36524 0.67719 0.0
C1695 C 0.05049 0.34361 0.68798 0.0
H1696 H 0.14595 0.3646 0.66818 0.0
C1697 C 0.04056 0.30809 0.70149 0.0
H1698 H 0.0989 0.39328 0.66712 0.0
C1699 C 0.06777 0.29249 0.70252 0.0
C1700 C 0.1053 0.31177 0.68993 0.0
H1701 H 0.01049 0.29043 0.70994 0.0
H1702 H 0.05786 0.26331 0.71167 0.0
C1703 C 0.11727 0.34941 0.67819 0.0
C1704 C 0.89613 0.67295 0.52647 0.0
C1705 C 0.8696 0.67435 0.5096 0.0
H1706 H 0.95713 0.68385 0.53408 0.0
C1707 C 0.88604 0.69405 0.48812 0.0
H1708 H 0.88389 0.65775 0.54312 0.0
C1709 C 0.92742 0.70694 0.48236 0.0
C1710 C 0.95282 0.70102 0.4983 0.0
H1711 H 0.86575 0.69494 0.47478 0.0
H1712 H 0.93816 0.71798 0.46481 0.0
C1713 C 0.93772 0.68701 0.52103 0.0
C1714 C 0.2987 0.18679 0.51823 0.0
C1715 C 0.33619 0.20111 0.5305 0.0
H1716 H 0.25297 0.20134 0.50581 0.0
C1717 C 0.35212 0.23809 0.54346 0.0
H1718 H 0.2858 0.15827 0.50808 0.0
C1719 C 0.33491 0.26376 0.54121 0.0
C1720 C 0.30031 0.25232 0.52656 0.0
H1721 H 0.38098 0.24967 0.55314 0.0
H1722 H 0.35148 0.29415 0.54938 0.0
C1723 C 0.28067 0.21216 0.51641 0.0
C1724 C 0.7606 0.05901 0.51542 0.0
C1725 C 0.7208 0.04176 0.52577 0.0
H1726 H 0.81702 0.11525 0.50623 0.0
C1727 C 0.71102 0.06796 0.5388 0.0
H1728 H 0.76959 0.03953 0.50579 0.0
C1729 C 0.7386 0.11068 0.53966 0.0
C1730 C 0.77624 0.12836 0.52721 0.0
H1731 H 0.68076 0.05623 0.5469 0.0
H1732 H 0.72874 0.13038 0.54834 0.0
C1733 C 0.7882 0.10218 0.5161 0.0
C1734 C 0.98147 0.58096 0.62471 0.0
C1735 C 0.01554 0.6069 0.63912 0.0
H1736 H 0.9362 0.51862 0.61542 0.0
C1737 C 0.03585 0.58885 0.65123 0.0
H1738 H 0.96453 0.59287 0.61505 0.0
C1739 C 0.01865 0.5454 0.65168 0.0
C1740 C 0.98137 0.51972 0.63975 0.0
H1741 H 0.06324 0.60783 0.66171 0.0
H1742 H 0.03172 0.53196 0.66344 0.0
C1743 C 0.96507 0.53795 0.62476 0.0
C1744 C 0.38225 0.41083 0.63602 0.0
C1745 C 0.36407 0.40956 0.65786 0.0
H1746 H 0.43908 0.43471 0.61658 0.0
C1747 C 0.38758 0.44077 0.67436 0.0
H1748 H 0.36454 0.38878 0.62237 0.0
C1749 C 0.42973 0.46898 0.67024 0.0
C1750 C 0.44904 0.46529 0.65002 0.0
H1751 H 0.37473 0.44123 0.69126 0.0
H1752 H 0.44818 0.49016 0.68406 0.0
C1753 C 0.42468 0.4378 0.63236 0.0
C1754 C 0.57883 0.97893 0.64509 0.0
C1755 C 0.59198 0.974 0.6674 0.0
H1756 H 0.54397 0.00082 0.62559 0.0
C1757 C 0.57275 0.97939 0.68722 0.0
H1758 H 0.59179 0.97362 0.62939 0.0
C1759 C 0.54379 0.99272 0.68484 0.0
C1760 C 0.53411 0.00154 0.6627 0.0
H1761 H 0.58209 0.97631 0.70467 0.0
H1762 H 0.53189 -0.00015 0.70042 0.0
C1763 C 0.5507 0.99346 0.64279 0.0
C1764 C 0.3965 0.95852 0.18326 0.0
C1765 C 0.3712 0.96033 0.16552 0.0
H1766 H 0.45824 0.97377 0.19323 0.0
C1767 C 0.38725 0.97025 0.14264 0.0
H1768 H 0.38537 0.95091 0.20106 0.0
C1769 C 0.4293 0.98437 0.13838 0.0
C1770 C 0.45539 0.98692 0.1567 0.0
H1771 H 0.36816 0.9701 0.12828 0.0
H1772 H 0.44215 -0.00331 0.12129 0.0
C1773 C 0.43826 0.97128 0.17876 0.0
C1774 C 0.98703 0.43659 0.12624 0.0
C1775 C 0.99119 0.46471 0.14382 0.0
H1776 H -0.00187 0.38767 0.1158 0.0
C1777 C 0.01485 0.46843 0.16371 0.0
H1778 H 0.9687 0.43314 0.11079 0.0
C1779 C 0.02911 0.4404 0.16749 0.0
C1780 C 0.02127 0.40905 0.15098 0.0
H1781 H 0.01783 0.48947 0.17769 0.0
H1782 H 0.04305 0.44141 0.18423 0.0
C1783 C 0.00285 0.40968 0.12954 0.0
C1784 C 0.55685 0.55292 0.13018 0.0
C1785 C 0.53286 0.52982 0.14924 0.0
H1786 H 0.60294 0.61261 0.11756 0.0
C1787 C 0.53402 0.55009 0.17009 0.0
H1788 H 0.5565 0.53744 0.11404 0.0
C1789 C 0.56264 0.59239 0.1728 0.0
C1790 C 0.58962 0.61534 0.15438 0.0
H1791 H 0.51627 0.53232 0.18516 0.0
H1792 H 0.56562 0.60583 0.18995 0.0
C1793 C 0.58426 0.59569 0.13253 0.0
C1794 C 0.34839 0.07387 0.03999 0.0
C1795 C 0.31037 0.04778 0.02869 0.0
H1796 H 0.39686 0.13638 0.04634 0.0
C1797 C 0.2881 0.06571 0.0188 0.0
H1798 H 0.36659 0.06142 0.04773 0.0
C1799 C 0.30583 0.10915 0.01792 0.0
C1800 C 0.34594 0.13493 0.02693 0.0
H1801 H 0.25818 0.04633 0.01052 0.0
H1802 H 0.28996 0.12237 0.0083 0.0
C1803 C 0.36586 0.11699 0.0392 0.0
C1804 C 0.92039 0.21264 0.99344 0.0
C1805 C 0.94463 0.2448 0.0093 0.0
H1806 H 0.85941 0.16311 0.9847 0.0
C1807 C 0.92746 0.24471 0.03129 0.0
H1808 H 0.93234 0.21119 0.97643 0.0
C1809 C 0.88518 0.218 0.0356 0.0
C1810 C 0.86002 0.18973 0.01843 0.0
H1811 H 0.94577 0.26746 0.04453 0.0
H1812 H 0.87142 0.22216 0.05135 0.0
C1813 C 0.87848 0.18474 0.99822 0.0
C1814 C 0.78474 0.68028 0.98562 0.0
C1815 C 0.78919 0.6664 0.00764 0.0
H1816 H 0.74897 0.69822 0.96437 0.0
C1817 C 0.76638 0.66829 0.02658 0.0
H1818 H 0.80141 0.6779 0.97066 0.0
C1819 C 0.73684 0.68066 0.02316 0.0
C1820 C 0.72851 0.68963 1.00053 0.0
H1821 H 0.76901 0.65702 0.0436 0.0
H1822 H 0.71874 0.6806 0.03803 0.0
C1823 C 0.75434 0.6915 0.98201 0.0
C1824 C 0.60661 0.02188 0.86214 0.0
C1825 C 0.62265 0.03371 0.83935 0.0
H1826 H 0.55194 0.99436 0.88368 0.0
C1827 C 0.59728 0.03672 0.8221 0.0
H1828 H 0.62576 0.02083 0.87612 0.0
C1829 C 0.55544 0.02355 0.82692 0.0
C1830 C 0.53846 0.00667 0.84885 0.0
H1831 H 0.60859 0.04586 0.80443 0.0
H1832 H 0.5354 0.02236 0.8128 0.0
C1833 C 0.56463 0.00761 0.86671 0.0
C1834 C 0.94152 0.54026 0.83215 0.0
C1835 C 0.95258 0.57541 0.84631 0.0
H1836 H 0.95163 0.48938 0.82457 0.0
C1837 C 0.97377 0.57907 0.86741 0.0
H1838 H 0.92461 0.53548 0.81599 0.0
C1839 C 0.99074 0.55348 0.87171 0.0
C1840 C 0.98515 0.52275 0.85552 0.0
H1841 H 0.9805 0.60395 0.87965 0.0
H1842 H 0.01197 0.56076 0.88627 0.0
C1843 C 0.95688 0.51345 0.83712 0.0
C1844 C 0.42577 0.39509 0.84377 0.0
C1845 C 0.38474 0.37599 0.85255 0.0
H1846 H 0.48183 0.45287 0.83639 0.0
C1847 C 0.37146 0.40073 0.86422 0.0
H1848 H 0.43722 0.37671 0.83513 0.0
C1849 C 0.39718 0.44385 0.86534 0.0
C1850 C 0.43664 0.46326 0.85473 0.0
H1851 H 0.34009 0.38728 0.87109 0.0
H1852 H 0.38487 0.46234 0.87295 0.0
C1853 C 0.45165 0.43853 0.8449 0.0
C1854 C 0.6715 0.87876 0.00239 0.0
C1855 C 0.65265 0.8591 0.98139 0.0
H1856 H 0.69707 0.93444 0.02234 0.0
C1857 C 0.65404 0.88303 0.96217 0.0
H1858 H 0.66976 0.86041 0.01758 0.0
C1859 C 0.67128 0.92612 0.96451 0.0
C1860 C 0.68518 0.94538 0.98648 0.0
H1861 H 0.63915 0.86808 0.94589 0.0
H1862 H 0.67117 0.94368 0.94942 0.0
C1863 C 0.68704 0.92143 0.00508 0.0
C1864 C 0.06478 0.77447 0.01149 0.0
C1865 C 0.04314 0.74483 0.99386 0.0
H1866 H 0.12409 0.8225 0.02392 0.0
C1867 C 0.06436 0.74755 0.9729 0.0
H1868 H 0.0499 0.77381 0.02787 0.0
C1869 C 0.10727 0.77467 0.97107 0.0
C1870 C 0.12937 0.8009 0.98972 0.0
H1871 H 0.04852 0.72687 0.9584 0.0
H1872 H 0.1237 0.77268 0.9559 0.0
C1873 C 0.10745 0.80275 0.00922 0.0
C1874 C 0.21241 0.31786 0.96472 0.0
C1875 C 0.19185 0.32211 0.98407 0.0
H1876 H 0.25613 0.30071 0.9524 0.0
C1877 C 0.19638 0.30808 0.00601 0.0
H1878 H 0.2095 0.32899 0.94772 0.0
C1879 C 0.22498 0.2944 0.00911 0.0
C1880 C 0.24876 0.29368 0.99013 0.0
H1881 H 0.1813 0.31206 0.02124 0.0
H1882 H 0.23076 0.28787 0.0267 0.0
C1883 C 0.23988 0.30269 0.96763 0.0
C1884 C 0.09889 0.29227 0.50614 0.0
C1885 C 0.11732 0.31322 0.48523 0.0
H1886 H 0.0454 0.2684 0.52835 0.0
C1887 C 0.09208 0.31558 0.4678 0.0
H1888 H 0.11794 0.29024 0.51984 0.0
C1889 C 0.05019 0.302 0.47233 0.0
C1890 C 0.03328 0.28737 0.49471 0.0
H1891 H 0.10568 0.33163 0.45153 0.0
H1892 H 0.03205 0.30601 0.45882 0.0
C1893 C 0.05729 0.28003 0.51105 0.0
C1894 C 0.68138 0.80373 0.50413 0.0
C1895 C 0.656 0.79969 0.48504 0.0
H1896 H 0.71373 0.77838 0.52227 0.0
C1897 C 0.65319 0.77425 0.46625 0.0
H1898 H 0.68353 0.82299 0.51892 0.0
C1899 C 0.67196 0.74968 0.46765 0.0
C1900 C 0.69191 0.74858 0.48839 0.0
H1901 H 0.63367 0.77079 0.45136 0.0
H1902 H 0.66809 0.72937 0.4531 0.0
C1903 C 0.69859 0.77783 0.50603 0.0
C1904 C 0.20594 0.88411 0.50211 0.0
C1905 C 0.20298 0.86714 0.47988 0.0
H1906 H 0.23775 0.93738 0.52392 0.0
C1907 C 0.22435 0.89327 0.46112 0.0
H1908 H 0.19017 0.86397 0.51689 0.0
C1909 C 0.25064 0.93593 0.46488 0.0
C1910 C 0.25756 0.95251 0.48771 0.0
H1911 H 0.2226 0.88037 0.44389 0.0
H1912 H 0.26722 0.95534 0.45006 0.0
C1913 C 0.23339 0.92634 0.5061 0.0
C1914 C 0.97586 0.44558 0.3435 0.0
C1915 C 0.01488 0.47067 0.35393 0.0
H1916 H 0.92828 0.38326 0.33513 0.0
C1917 C 0.03243 0.45197 0.36764 0.0
H1918 H 0.9618 0.45938 0.33277 0.0
C1919 C 0.01426 0.40878 0.36835 0.0
C1920 C 0.97765 0.38329 0.35568 0.0
H1921 H 0.06251 0.47082 0.37593 0.0
H1922 H 0.03117 0.39592 0.37719 0.0
C1923 C 0.95725 0.40204 0.34443 0.0
C1924 C 0.60275 0.57823 0.36234 0.0
C1925 C 0.61892 0.57906 0.33993 0.0
H1926 H 0.54781 0.55411 0.38351 0.0
C1927 C 0.59435 0.54687 0.32417 0.0
H1928 H 0.62142 0.6011 0.37544 0.0
C1929 C 0.55285 0.51811 0.32956 0.0
C1930 C 0.53512 0.52218 0.35035 0.0
H1931 H 0.60567 0.54601 0.30687 0.0
H1932 H 0.53333 0.49644 0.31618 0.0
C1933 C 0.56091 0.55055 0.36733 0.0
C1934 C 0.42043 0.02017 0.32318 0.0
C1935 C 0.40037 0.02402 0.34308 0.0
H1936 H 0.46095 -0.00045 0.30955 0.0
C1937 C 0.41211 0.01681 0.36525 0.0
H1938 H 0.41217 0.02516 0.30583 0.0
C1939 C 0.43934 0.00117 0.36724 0.0
C1940 C 0.45648 0.99426 0.34717 0.0
H1941 H 0.39843 0.0209 0.38103 0.0
H1942 H 0.44486 0.99197 0.38423 0.0
C1943 C 0.44852 0.00564 0.32527 0.0
C1944 C 0.16844 0.34475 0.07437 0.0
C1945 C 0.13847 0.34918 0.06146 0.0
H1946 H 0.17951 0.31474 0.10365 0.0
C1947 C 0.09602 0.32301 0.06691 0.0
H1948 H 0.2013 0.36378 0.0703 0.0
C1949 C 0.08379 0.29459 0.08515 0.0
C1950 C 0.11343 0.2914 0.09884 0.0
H1951 H 0.07172 0.32459 0.0572 0.0
H1952 H 0.05084 0.27628 0.08928 0.0
C1953 C 0.15597 0.31606 0.09306 0.0
C1954 C 0.63744 0.81987 0.0748 0.0
C1955 C 0.63386 0.7864 0.06125 0.0
H1956 H 0.66831 0.86115 0.10385 0.0
C1957 C 0.66225 0.77222 0.06515 0.0
H1958 H 0.61657 0.83202 0.07192 0.0
C1959 C 0.69202 0.78941 0.08263 0.0
C1960 C 0.69443 0.8212 0.097 0.0
H1961 H 0.66136 0.74719 0.05484 0.0
H1962 H 0.71214 0.77635 0.08564 0.0
C1963 C 0.66755 0.83713 0.09269 0.0
C1964 C 0.20856 0.85736 0.11362 0.0
C1965 C 0.17056 0.85744 0.11337 0.0
H1966 H 0.2495 0.84184 0.09557 0.0
C1967 C 0.14105 0.83438 0.09604 0.0
H1968 H 0.23159 0.87366 0.12712 0.0
C1969 C 0.15139 0.81532 0.07797 0.0
C1970 C 0.19094 0.81856 0.07736 0.0
H1971 H 0.11124 0.83323 0.09568 0.0
H1972 H 0.12994 0.80116 0.06355 0.0
C1973 C 0.21854 0.83814 0.09589 0.0
C1974 C 0.32125 0.16626 0.44181 0.0
C1975 C 0.36194 0.17271 0.43942 0.0
H1976 H 0.26037 0.14115 0.42622 0.0
C1977 C 0.3739 0.1629 0.41831 0.0
H1978 H 0.3111 0.17244 0.45833 0.0
C1979 C 0.34492 0.14415 0.40042 0.0
C1980 C 0.30329 0.13474 0.40328 0.0
H1981 H 0.40467 0.16653 0.41634 0.0
H1982 H 0.35471 0.13522 0.38466 0.0
C1983 C 0.29212 0.14781 0.42367 0.0
C1984 C 0.81735 0.15222 0.40716 0.0
C1985 C 0.85737 0.15664 0.40605 0.0
H1986 H 0.7767 0.16892 0.42537 0.0
C1987 C 0.88572 0.17773 0.42406 0.0
H1988 H 0.79524 0.13679 0.39318 0.0
C1989 C 0.87577 0.19682 0.44186 0.0
C1990 C 0.83702 0.19541 0.44223 0.0
H1991 H 0.91703 0.18233 0.42335 0.0
H1992 H 0.89933 0.21399 0.45496 0.0
C1993 C 0.80709 0.17131 0.42528 0.0
C1994 C 0.7662 0.66177 0.39975 0.0
C1995 C 0.80876 0.68765 0.39448 0.0
H1996 H 0.72052 0.61478 0.42184 0.0
C1997 C 0.8384 0.68273 0.4074 0.0
H1998 H 0.74222 0.66397 0.39007 0.0
C1999 C 0.82547 0.65351 0.4258 0.0
C2000 C 0.78283 0.62892 0.43132 0.0
H2001 H 0.87133 0.70153 0.40344 0.0
H2002 H 0.84876 0.65171 0.43638 0.0
C2003 C 0.75352 0.63287 0.41777 0.0
C2004 C 0.89929 0.68348 0.9054 0.0
C2005 C 0.871 0.69232 0.89404 0.0
H2006 H 0.90946 0.64874 0.93147 0.0
C2007 C 0.82924 0.67212 0.90167 0.0
H2008 H 0.93159 0.69812 0.89984 0.0
C2009 C 0.81613 0.64296 0.92012 0.0
C2010 C 0.84468 0.63367 0.93103 0.0
H2011 H 0.80656 0.6777 0.89289 0.0
H2012 H 0.78403 0.62811 0.92598 0.0
C2013 C 0.88635 0.65455 0.9234 0.0
C2014 C 0.28319 0.16151 0.91897 0.0
C2015 C 0.29559 0.14858 0.89911 0.0
H2016 H 0.30043 0.19096 0.9522 0.0
C2017 C 0.33476 0.15095 0.89891 0.0
H2018 H 0.2535 0.16069 0.91932 0.0
C2019 C 0.36245 0.16916 0.91775 0.0
C2020 C 0.35119 0.18557 0.93671 0.0
H2021 H 0.34519 0.14182 0.88352 0.0
H2022 H 0.39337 0.17292 0.91678 0.0
C2023 C 0.31054 0.17963 0.93757 0.0
C2024 C 0.77514 0.11804 0.89849 0.0
C2025 C 0.81588 0.1243 0.89709 0.0
H2026 H 0.73152 0.12828 0.91754 0.0
C2027 C 0.84581 0.15131 0.91332 0.0
H2028 H 0.75124 0.09827 0.88611 0.0
C2029 C 0.83422 0.16938 0.9314 0.0
C2030 C 0.79273 0.16077 0.93327 0.0
H2031 H 0.8776 0.15739 0.91248 0.0
H2032 H 0.85686 0.18776 0.94465 0.0
C2033 C 0.76383 0.13596 0.91626 0.0
C2034 C 0.60779 0.83475 0.59285 0.0
C2035 C 0.61562 0.81597 0.57384 0.0
H2036 H 0.62988 0.86723 0.62499 0.0
C2037 C 0.65088 0.81092 0.57421 0.0
H2038 H 0.58115 0.8395 0.59276 0.0
C2039 C 0.67969 0.82761 0.59268 0.0
C2040 C 0.67348 0.84983 0.61065 0.0
H2041 H 0.65786 0.7972 0.55942 0.0
H2042 H 0.70786 0.82556 0.59212 0.0
C2043 C 0.63624 0.85135 0.61106 0.0
C2044 C 0.1717 0.81794 0.56887 0.0
C2045 C 0.14108 0.78933 0.55348 0.0
H2046 H 0.18393 0.85643 0.59938 0.0
C2047 C 0.1004 0.78308 0.55497 0.0
H2048 H 0.20352 0.82416 0.56782 0.0
C2049 C 0.08982 0.80256 0.57225 0.0
C2050 C 0.11941 0.82869 0.58868 0.0
H2051 H 0.07612 0.76222 0.54308 0.0
H2052 H 0.05748 0.79463 0.5739 0.0
C2053 C 0.16082 0.8373 0.5865 0.0
C2054 C 0.14569 0.32892 0.57074 0.0
C2055 C 0.18648 0.36323 0.56881 0.0
H2056 H 0.10417 0.27279 0.58977 0.0
C2057 C 0.21543 0.36971 0.58631 0.0
H2058 H 0.12297 0.32292 0.55721 0.0
C2059 C 0.20522 0.34106 0.60435 0.0
C2060 C 0.16559 0.30479 0.6055 0.0
H2061 H 0.24724 0.39545 0.58504 0.0
H2062 H 0.22926 0.34686 0.61701 0.0
C2063 C 0.13519 0.29987 0.58908 0.0
C2064 C 0.9558 0.4965 0.75156 0.0
C2065 C 0.96726 0.48443 0.73093 0.0
H2066 H 0.97429 0.51921 0.78653 0.0
C2067 C 0.00903 0.49449 0.72792 0.0
H2068 H 0.92389 0.48923 0.75425 0.0
C2069 C 0.03759 0.51167 0.74613 0.0
C2070 C 0.0251 0.51952 0.76765 0.0
H2071 H 0.01892 0.48617 0.71197 0.0
H2072 H 0.06822 0.51497 0.7441 0.0
C2073 C 0.98469 0.51388 0.76992 0.0
C2074 C 0.55217 0.51772 0.75068 0.0
C2075 C 0.52348 0.49396 0.73337 0.0
H2076 H 0.56468 0.55459 0.78116 0.0
C2077 C 0.48208 0.48568 0.73521 0.0
H2078 H 0.58441 0.52515 0.74942 0.0
C2079 C 0.47053 0.5036 0.75336 0.0
C2080 C 0.50042 0.53004 0.76972 0.0
H2081 H 0.45959 0.46797 0.72176 0.0
H2082 H 0.43896 0.49819 0.75402 0.0
C2083 C 0.54087 0.53539 0.7686 0.0
C2084 C 0.49755 0.01586 0.74816 0.0
C2085 C 0.46893 0.02527 0.7375 0.0
H2086 H 0.50715 0.98008 0.77467 0.0
C2087 C 0.42705 0.00349 0.74476 0.0
H2088 H 0.52983 0.03147 0.74258 0.0
C2089 C 0.41411 0.97378 0.76241 0.0
C2090 C 0.44254 0.96481 0.77347 0.0
H2091 H 0.40395 0.00943 0.7368 0.0
H2092 H 0.3818 0.95869 0.76799 0.0
C2093 C 0.48439 0.98569 0.76603 0.0
C2094 C 0.5021 0.00694 0.24216 0.0
C2095 C 0.54391 0.02792 0.23464 0.0
H2096 H 0.45706 0.96167 0.266 0.0
C2097 C 0.57258 0.01943 0.24584 0.0
H2098 H 0.47917 0.01229 0.23351 0.0
C2099 C 0.55995 0.99014 0.26367 0.0
C2100 C 0.51818 0.96838 0.2711 0.0
H2101 H 0.60493 0.03474 0.24033 0.0
H2102 H 0.58329 0.98465 0.27171 0.0
C2103 C 0.48928 0.97727 0.26031 0.0
C2104 C 0.04348 0.54312 0.23958 0.0
C2105 C 0.03231 0.52285 0.26116 0.0
H2106 H 0.02294 0.54857 0.20565 0.0
C2107 C 0.99222 0.48779 0.26408 0.0
H2108 H 0.07379 0.57075 0.23716 0.0
C2109 C 0.96274 0.47489 0.24597 0.0
C2110 C 0.97309 0.49762 0.22506 0.0
H2111 H 0.98274 0.4725 0.28092 0.0
H2112 H 0.93123 0.4496 0.24897 0.0
C2113 C 0.01417 0.53064 0.22171 0.0
C2114 C 0.51597 0.48819 0.24535 0.0
C2115 C 0.48483 0.46371 0.22904 0.0
H2116 H 0.53004 0.5232 0.27739 0.0
C2117 C 0.44621 0.4624 0.2303 0.0
H2118 H 0.5463 0.49052 0.24452 0.0
C2119 C 0.43757 0.48193 0.24843 0.0
C2120 C 0.46711 0.50323 0.2659 0.0
H2121 H 0.42182 0.445 0.21765 0.0
H2122 H 0.40635 0.47741 0.24987 0.0
C2123 C 0.50701 0.50762 0.26383 0.0
C2124 C -0.00341 0.22505 0.26841 0.0
C2125 C 0.97438 0.18295 0.2755 0.0
H2126 H 0.03763 0.26991 0.24375 0.0
C2127 C 0.97935 0.15338 0.26245 0.0
H2128 H -0.00564 0.24907 0.27806 0.0
C2129 C 0.00491 0.16573 0.24234 0.0
C2130 C 0.02595 0.20784 0.23508 0.0
H2131 H 0.96311 0.12079 0.26754 0.0
H2132 H 0.007 0.14223 0.23209 0.0
C2133 C 0.0219 0.23722 0.24868 0.0
C2134 C 0.84439 0.83819 0.26039 0.0
C2135 C 0.8343 0.79614 0.26259 0.0
H2136 H 0.83611 0.88291 0.24018 0.0
C2137 C 0.81277 0.76828 0.24441 0.0
H2138 H 0.86066 0.86023 0.27432 0.0
C2139 C 0.79837 0.78088 0.22546 0.0
C2140 C 0.80513 0.82179 0.22403 0.0
H2141 H 0.80479 0.73583 0.24553 0.0
H2142 H 0.78049 0.75789 0.2122 0.0
C2143 C 0.82998 0.85105 0.24107 0.0
C2144 C 0.20977 0.03319 0.26012 0.0
C2145 C 0.18074 0.02092 0.27836 0.0
H2146 H 0.22371 0.01998 0.22619 0.0
C2147 C 0.14009 0.98717 0.27484 0.0
H2148 H 0.2412 0.05922 0.26229 0.0
C2149 C 0.12988 0.96424 0.25382 0.0
C2150 C 0.16045 0.97488 0.23644 0.0
H2151 H 0.11733 0.97685 0.28881 0.0
H2152 H 0.09927 0.93693 0.25179 0.0
C2153 C 0.1998 0.01051 0.23949 0.0
C2154 C 0.975 0.82051 0.7523 0.0
C2155 C 0.95077 0.77775 0.75796 0.0
H2156 H 0.02139 0.86659 0.72926 0.0
C2157 C 0.95357 0.74853 0.74356 0.0
H2158 H 0.97396 0.84387 0.76324 0.0
C2159 C 0.98114 0.7614 0.72481 0.0
C2160 C 0.00676 0.80404 0.71951 0.0
H2161 H 0.93537 0.71537 0.74727 0.0
H2162 H 0.98236 0.73745 0.7145 0.0
C2163 C 0.00264 0.83356 0.7331 0.0
C2164 C 0.14787 0.14784 0.73668 0.0
C2165 C 0.15675 0.18925 0.73329 0.0
H2166 H 0.15672 0.10547 0.75872 0.0
C2167 C 0.17803 0.21875 0.7509 0.0
H2168 H 0.13192 0.12455 0.72327 0.0
C2169 C 0.19268 0.20824 0.77063 0.0
C2170 C 0.18635 0.16773 0.77356 0.0
H2171 H 0.1851 0.25082 0.74894 0.0
H2172 H 0.20995 0.23244 0.78341 0.0
C2173 C 0.16246 0.13707 0.75681 0.0
C2174 C 0.84373 0.98995 0.76779 0.0
C2175 C 0.84162 0.0269 0.76943 0.0
H2176 H 0.82941 0.93584 0.74682 0.0
C2177 C 0.83014 0.04121 0.74971 0.0
H2178 H 0.85206 0.97808 0.78292 0.0
C2179 C 0.81736 0.01741 0.72943 0.0
C2180 C 0.81546 0.97852 0.72836 0.0
H2181 H 0.82835 0.06959 0.7505 0.0
H2182 H 0.80647 0.02834 0.71496 0.0
C2183 C 0.83065 0.96574 0.74725 0.0
C2184 C 0.64282 0.49037 0.59085 0.0
C2185 C 0.63319 0.51827 0.60229 0.0
H2186 H 0.67849 0.48227 0.56366 0.0
C2187 C 0.65539 0.5607 0.59591 0.0
H2188 H 0.6269 0.45762 0.59562 0.0
C2189 C 0.68554 0.57486 0.57847 0.0
C2190 C 0.69429 0.5471 0.56632 0.0
H2191 H 0.64981 0.58354 0.60454 0.0
H2192 H 0.70118 0.60776 0.57403 0.0
C2193 C 0.67294 0.50462 0.57288 0.0
C2194 C 0.47794 0.10094 0.5863 0.0
C2195 C 0.49941 0.12998 0.60404 0.0
H2196 H 0.44743 0.08895 0.55338 0.0
C2197 C 0.51099 0.17215 0.60043 0.0
H2198 H 0.46881 0.06832 0.58848 0.0
C2199 C 0.4984 0.18419 0.58004 0.0
C2200 C 0.47385 0.15404 0.56326 0.0
H2201 H 0.52715 0.19511 0.61397 0.0
H2202 H 0.50574 0.21631 0.57804 0.0
C2203 C 0.4653 0.11275 0.56626 0.0
C2204 C 0.84674 0.30587 0.60955 0.0
C2205 C 0.84038 0.33991 0.61304 0.0
H2206 H 0.84341 0.25949 0.58611 0.0
C2207 C 0.81987 0.34969 0.59557 0.0
H2208 H 0.86167 0.29692 0.62281 0.0
C2209 C 0.80906 0.32771 0.57423 0.0
C2210 C 0.81861 0.29579 0.57031 0.0
H2211 H 0.81451 0.37574 0.59784 0.0
H2212 H 0.79593 0.33747 0.56036 0.0
C2213 C 0.83607 0.28421 0.58853 0.0
C2214 C 0.67682 0.17752 0.07647 0.0
C2215 C 0.67576 0.14753 0.06092 0.0
H2216 H 0.65274 0.18798 0.10851 0.0
C2217 C 0.64496 0.10541 0.06405 0.0
H2218 H 0.69978 0.21025 0.0743 0.0
C2219 C 0.61787 0.093 0.08297 0.0
C2220 C 0.62066 0.12218 0.09952 0.0
H2221 H 0.6422 0.08148 0.05205 0.0
H2222 H 0.59594 0.05997 0.08529 0.0
C2223 C 0.64952 0.16485 0.0958 0.0
C2224 C 0.8225 0.48068 0.08966 0.0
C2225 C 0.85001 0.5107 0.10566 0.0
H2226 H 0.79045 0.47014 0.05677 0.0
C2227 C 0.86106 0.55272 0.10238 0.0
H2228 H 0.8131 0.44803 0.09189 0.0
C2229 C 0.84778 0.5651 0.08281 0.0
C2230 C 0.82306 0.53593 0.06581 0.0
H2231 H 0.88121 0.5766 0.11468 0.0
H2232 H 0.85875 0.59809 0.0804 0.0
C2233 C 0.8092 0.49328 0.06975 0.0
C2234 C 0.51182 0.33416 0.09538 0.0
C2235 C 0.49885 0.36341 0.1 0.0
H2236 H 0.50892 0.28766 0.07139 0.0
C2237 C 0.47777 0.37212 0.08255 0.0
H2238 H 0.52789 0.3267 0.10867 0.0
C2239 C 0.467 0.35008 0.06167 0.0
C2240 C 0.47681 0.3185 0.05758 0.0
H2241 H 0.4678 0.3948 0.08549 0.0
H2242 H 0.44929 0.35669 0.04902 0.0
C2243 C 0.50087 0.31177 0.07417 0.0
C2244 C 0.36932 0.90918 0.92557 0.0
C2245 C 0.37154 0.88044 0.91049 0.0
H2246 H 0.34107 0.9192 0.9553 0.0
C2247 C 0.34718 0.83747 0.91566 0.0
H2248 H 0.38763 0.94247 0.92225 0.0
C2249 C 0.31972 0.82375 0.93493 0.0
C2250 C 0.31604 0.8528 0.94918 0.0
H2251 H 0.34784 0.81447 0.90423 0.0
H2252 H 0.30066 0.79057 0.93826 0.0
C2253 C 0.34202 0.89565 0.94448 0.0
C2254 C 0.13095 0.42635 0.9125 0.0
C2255 C 0.15639 0.45513 0.9295 0.0
H2256 H 0.09722 0.4157 0.8808 0.0
C2257 C 0.17054 0.49788 0.9259 0.0
H2258 H 0.11966 0.39325 0.91468 0.0
C2259 C 0.15724 0.51104 0.90623 0.0
C2260 C 0.12951 0.48155 0.89005 0.0
H2261 H 0.1898 0.52073 0.93887 0.0
H2262 H 0.16726 0.54387 0.9042 0.0
C2263 C 0.1177 0.43929 0.89313 0.0
C2264 C 0.52822 0.68235 0.89453 0.0
C2265 C 0.48795 0.64785 0.89191 0.0
H2266 H 0.57161 0.73096 0.91673 0.0
C2267 C 0.45788 0.63973 0.90923 0.0
H2268 H 0.55192 0.6896 0.88136 0.0
C2269 C 0.46944 0.66378 0.92987 0.0
C2270 C 0.51094 0.69612 0.93307 0.0
H2271 H 0.42664 0.61325 0.90757 0.0
H2272 H 0.44703 0.65502 0.94394 0.0
C2273 C 0.53949 0.70623 0.91475 0.0
C2274 C 0.31204 0.48543 0.42677 0.0
C2275 C 0.29819 0.44546 0.43639 0.0
H2276 H 0.34952 0.53023 0.40032 0.0
C2277 C 0.31275 0.42036 0.42645 0.0
H2278 H 0.30187 0.50581 0.43419 0.0
C2279 C 0.34025 0.43446 0.40763 0.0
C2280 C 0.35421 0.47418 0.39782 0.0
H2281 H 0.30319 0.38955 0.43333 0.0
H2282 H 0.35031 0.41368 0.40064 0.0
C2283 C 0.33981 0.49966 0.40761 0.0
C2284 C 0.47798 0.82298 0.40929 0.0
C2285 C 0.49139 0.86543 0.40506 0.0
H2286 H 0.48075 0.7783 0.43243 0.0
C2287 C 0.5145 0.89485 0.42235 0.0
H2288 H 0.46053 0.79967 0.39612 0.0
C2289 C 0.52645 0.88291 0.44263 0.0
C2290 C 0.51563 0.84108 0.44638 0.0
H2291 H 0.52511 0.92772 0.41973 0.0
H2292 H 0.54528 0.907 0.45516 0.0
C2293 C 0.48993 0.81083 0.42991 0.0
C2294 C 0.15553 0.71297 0.40585 0.0
C2295 C 0.17406 0.7036 0.42445 0.0
H2296 H 0.12809 0.69603 0.37207 0.0
C2297 C 0.18433 0.67192 0.4216 0.0
H2298 H 0.14755 0.73737 0.40749 0.0
C2299 C 0.17284 0.64772 0.40106 0.0
C2300 C 0.15084 0.65501 0.38342 0.0
H2301 H 0.19826 0.66385 0.43582 0.0
H2302 H 0.17861 0.62181 0.39967 0.0
C2303 C 0.14407 0.68901 0.38564 0.0
loop_
_geom_bond_atom_site_label_1
_geom_bond_atom_site_label_2
_geom_bond_distance
_geom_bond_site_symmetry_2
_ccdc_geom_bond_type
C0 O16 1.251 . S
C0 O18 1.254 . S
N1 C2 1.333 . S
N1 C6 1.307 . S
N1 Zn7 2.020 . S
C2 N1 1.333 . S
C2 C3 1.379 . S
C2 H20 0.952 . S
C3 C2 1.379 . S
C3 C4 1.390 . S
C3 H30 0.949 . S
C4 C3 1.390 . S
C4 C5 1.357 . S
C5 C4 1.357 . S
C5 C6 1.370 . S
C5 H31 0.950 . S
C6 N1 1.307 . S
C6 C5 1.370 . S
C6 H24 0.948 . S
Zn7 N1 2.020 . S
Zn7 O16 2.039 . S
Zn7 O22 2.034 . S
Zn7 O26 2.025 . S
Zn7 O28 2.024 . S
C8 O27 1.246 . S
C8 O28 1.249 . S
N9 C10 1.307 . S
N9 C11 1.333 . S
N9 Zn15 2.020 . S
C10 N9 1.307 . S
C10 C14 1.370 . S
C10 H21 0.948 . S
C11 N9 1.333 . S
C11 C12 1.379 . S
C11 H19 0.952 . S
C12 C11 1.379 . S
C12 C13 1.390 . S
C12 H32 0.949 . S
C13 C12 1.390 . S
C13 C14 1.357 . S
C14 C10 1.370 . S
C14 C13 1.357 . S
C14 H33 0.950 . S
Zn15 N9 2.020 . S
Zn15 O18 2.025 . S
Zn15 O23 2.024 . S
Zn15 O25 2.039 . S
Zn15 O27 2.034 . S
O16 C0 1.251 . S
O16 Zn7 2.039 . S
C17 O22 1.246 . S
C17 O23 1.249 . S
O18 C0 1.254 . S
O18 Zn15 2.025 . S
H19 C11 0.952 . S
H20 C2 0.952 . S
H21 C10 0.948 . S
O22 Zn7 2.034 . S
O22 C17 1.246 . S
O23 Zn15 2.024 . S
O23 C17 1.249 . S
H24 C6 0.948 . S
O25 Zn15 2.039 . S
O25 C29 1.251 . S
O26 Zn7 2.025 . S
O26 C29 1.254 . S
O27 C8 1.246 . S
O27 Zn15 2.034 . S
O28 Zn7 2.024 . S
O28 C8 1.249 . S
C29 O25 1.251 . S
C29 O26 1.254 . S
H30 C3 0.949 . S
H31 C5 0.950 . S
H32 C12 0.949 . S
H33 C14 0.950 . S
C34 O50 1.251 . S
C34 O52 1.254 . S
N35 C36 1.333 . S
N35 C40 1.307 . S
N35 Zn41 2.020 . S
C36 N35 1.333 . S
C36 C37 1.379 1_565 S
C36 H54 0.952 . S
C37 C36 1.379 1_545 S
C37 C38 1.390 . S
C37 H64 0.949 . S
C38 C37 1.390 . S
C38 C39 1.357 . S
C39 C38 1.357 . S
C39 C40 1.370 1_545 S
C39 H65 0.950 . S
C40 N35 1.307 . S
C40 C39 1.370 1_565 S
C40 H58 0.948 . S
Zn41 N35 2.020 . S
Zn41 O50 2.039 . S
Zn41 O56 2.034 . S
Zn41 O60 2.025 . S
Zn41 O62 2.024 . S
C42 O61 1.246 . S
C42 O62 1.249 . S
N43 C44 1.307 . S
N43 C45 1.333 . S
N43 Zn49 2.020 . S
C44 N43 1.307 . S
C44 C48 1.370 . S
C44 H55 0.948 . S
C45 N43 1.333 . S
C45 C46 1.379 . S
C45 H53 0.952 . S
C46 C45 1.379 . S
C46 C47 1.390 . S
C46 H66 0.949 . S
C47 C46 1.390 . S
C47 C48 1.357 . S
C48 C44 1.370 . S
C48 C47 1.357 . S
C48 H67 0.950 . S
Zn49 N43 2.020 . S
Zn49 O52 2.025 . S
Zn49 O57 2.024 . S
Zn49 O59 2.039 . S
Zn49 O61 2.034 . S
O50 C34 1.251 . S
O50 Zn41 2.039 . S
C51 O56 1.246 . S
C51 O57 1.249 . S
O52 C34 1.254 . S
O52 Zn49 2.025 . S
H53 C45 0.952 . S
H54 C36 0.952 . S
H55 C44 0.948 . S
O56 Zn41 2.034 . S
O56 C51 1.246 . S
O57 Zn49 2.024 . S
O57 C51 1.249 . S
H58 C40 0.948 . S
O59 Zn49 2.039 . S
O59 C63 1.251 . S
O60 Zn41 2.025 . S
O60 C63 1.254 . S
O61 C42 1.246 . S
O61 Zn49 2.034 . S
O62 Zn41 2.024 . S
O62 C42 1.249 . S
C63 O59 1.251 . S
C63 O60 1.254 . S
H64 C37 0.949 . S
H65 C39 0.950 . S
H66 C46 0.949 . S
H67 C48 0.950 . S
C68 O84 1.251 . S
C68 O86 1.254 . S
N69 C70 1.333 . S
N69 C74 1.307 . S
N69 Zn75 2.020 . S
C70 N69 1.333 . S
C70 C71 1.379 1_455 S
C70 H88 0.952 . S
C71 C70 1.379 1_655 S
C71 C72 1.390 . S
C71 H98 0.949 . S
C72 C71 1.390 . S
C72 C73 1.357 . S
C73 C72 1.357 . S
C73 C74 1.370 1_655 S
C73 H99 0.950 . S
C74 N69 1.307 . S
C74 C73 1.370 1_455 S
C74 H92 0.948 . S
Zn75 N69 2.020 . S
Zn75 O84 2.039 . S
Zn75 O90 2.034 . S
Zn75 O94 2.025 . S
Zn75 O96 2.024 . S
C76 O95 1.246 . S
C76 O96 1.249 . S
N77 C78 1.307 . S
N77 C79 1.333 . S
N77 Zn83 2.020 . S
C78 N77 1.307 . S
C78 C82 1.370 . S
C78 H89 0.948 . S
C79 N77 1.333 . S
C79 C80 1.379 . S
C79 H87 0.952 . S
C80 C79 1.379 . S
C80 C81 1.390 . S
C80 H100 0.949 . S
C81 C80 1.390 . S
C81 C82 1.357 . S
C82 C78 1.370 . S
C82 C81 1.357 . S
C82 H101 0.950 . S
Zn83 N77 2.020 . S
Zn83 O86 2.025 . S
Zn83 O91 2.024 . S
Zn83 O93 2.039 . S
Zn83 O95 2.034 . S
O84 C68 1.251 . S
O84 Zn75 2.039 . S
C85 O90 1.246 . S
C85 O91 1.249 . S
O86 C68 1.254 . S
O86 Zn83 2.025 . S
H87 C79 0.952 . S
H88 C70 0.952 . S
H89 C78 0.948 . S
O90 Zn75 2.034 . S
O90 C85 1.246 . S
O91 Zn83 2.024 . S
O91 C85 1.249 . S
H92 C74 0.948 . S
O93 Zn83 2.039 . S
O93 C97 1.251 . S
O94 Zn75 2.025 . S
O94 C97 1.254 . S
O95 C76 1.246 . S
O95 Zn83 2.034 . S
O96 Zn75 2.024 . S
O96 C76 1.249 . S
C97 O93 1.251 . S
C97 O94 1.254 . S
H98 C71 0.949 . S
H99 C73 0.950 . S
H100 C80 0.949 . S
H101 C82 0.950 . S
C102 O118 1.251 . S
C102 O120 1.254 . S
N103 C104 1.333 . S
N103 C108 1.307 . S
N103 Zn109 2.020 . S
C104 N103 1.333 . S
C104 C105 1.379 . S
C104 H122 0.952 . S
C105 C104 1.379 . S
C105 C106 1.390 . S
C105 H132 0.949 . S
C106 C105 1.390 . S
C106 C107 1.357 . S
C107 C106 1.357 . S
C107 C108 1.370 . S
C107 H133 0.950 . S
C108 N103 1.307 . S
C108 C107 1.370 . S
C108 H126 0.948 . S
Zn109 N103 2.020 . S
Zn109 O118 2.039 . S
Zn109 O124 2.034 . S
Zn109 O128 2.025 . S
Zn109 O130 2.024 . S
C110 O129 1.246 . S
C110 O130 1.249 . S
N111 C112 1.307 . S
N111 C113 1.333 . S
N111 Zn117 2.020 . S
C112 N111 1.307 . S
C112 C116 1.370 . S
C112 H123 0.948 . S
C113 N111 1.333 . S
C113 C114 1.379 . S
C113 H121 0.952 . S
C114 C113 1.379 . S
C114 C115 1.390 . S
C114 H134 0.949 . S
C115 C114 1.390 . S
C115 C116 1.357 . S
C116 C112 1.370 . S
C116 C115 1.357 . S
C116 H135 0.950 . S
Zn117 N111 2.020 . S
Zn117 O120 2.025 . S
Zn117 O125 2.024 . S
Zn117 O127 2.039 . S
Zn117 O129 2.034 . S
O118 C102 1.251 . S
O118 Zn109 2.039 . S
C119 O124 1.246 . S
C119 O125 1.249 . S
O120 C102 1.254 . S
O120 Zn117 2.025 . S
H121 C113 0.952 . S
H122 C104 0.952 . S
H123 C112 0.948 . S
O124 Zn109 2.034 . S
O124 C119 1.246 . S
O125 Zn117 2.024 . S
O125 C119 1.249 . S
H126 C108 0.948 . S
O127 Zn117 2.039 . S
O127 C131 1.251 . S
O128 Zn109 2.025 . S
O128 C131 1.254 . S
O129 C110 1.246 . S
O129 Zn117 2.034 . S
O130 Zn109 2.024 . S
O130 C110 1.249 . S
C131 O127 1.251 . S
C131 O128 1.254 . S
H132 C105 0.949 . S
H133 C107 0.950 . S
H134 C114 0.949 . S
H135 C116 0.950 . S
C136 O152 1.251 . S
C136 O154 1.254 . S
N137 C138 1.333 . S
N137 C142 1.307 . S
N137 Zn143 2.020 . S
C138 N137 1.333 . S
C138 C139 1.379 1_545 S
C138 H156 0.952 . S
C139 C138 1.379 1_565 S
C139 C140 1.390 . S
C139 H166 0.949 . S
C140 C139 1.390 . S
C140 C141 1.357 . S
C141 C140 1.357 . S
C141 C142 1.370 1_565 S
C141 H167 0.950 . S
C142 N137 1.307 . S
C142 C141 1.370 1_545 S
C142 H160 0.948 . S
Zn143 N137 2.020 . S
Zn143 O152 2.039 . S
Zn143 O158 2.034 . S
Zn143 O162 2.025 . S
Zn143 O164 2.024 . S
C144 O163 1.246 . S
C144 O164 1.249 . S
N145 C146 1.307 . S
N145 C147 1.333 . S
N145 Zn151 2.020 . S
C146 N145 1.307 . S
C146 C150 1.370 . S
C146 H157 0.948 . S
C147 N145 1.333 . S
C147 C148 1.379 . S
C147 H155 0.952 . S
C148 C147 1.379 . S
C148 C149 1.390 . S
C148 H168 0.949 . S
C149 C148 1.390 . S
C149 C150 1.357 . S
C150 C146 1.370 . S
C150 C149 1.357 . S
C150 H169 0.950 . S
Zn151 N145 2.020 . S
Zn151 O154 2.025 . S
Zn151 O159 2.024 . S
Zn151 O161 2.039 . S
Zn151 O163 2.034 . S
O152 C136 1.251 . S
O152 Zn143 2.039 . S
C153 O158 1.246 . S
C153 O159 1.249 . S
O154 C136 1.254 . S
O154 Zn151 2.025 . S
H155 C147 0.952 . S
H156 C138 0.952 . S
H157 C146 0.948 . S
O158 Zn143 2.034 . S
O158 C153 1.246 . S
O159 Zn151 2.024 . S
O159 C153 1.249 . S
H160 C142 0.948 . S
O161 Zn151 2.039 . S
O161 C165 1.251 . S
O162 Zn143 2.025 . S
O162 C165 1.254 . S
O163 C144 1.246 . S
O163 Zn151 2.034 . S
O164 Zn143 2.024 . S
O164 C144 1.249 . S
C165 O161 1.251 . S
C165 O162 1.254 . S
H166 C139 0.949 . S
H167 C141 0.950 . S
H168 C148 0.949 . S
H169 C150 0.950 . S
C170 O186 1.251 . S
C170 O188 1.254 . S
N171 C172 1.333 . S
N171 C176 1.307 . S
N171 Zn177 2.020 . S
C172 N171 1.333 . S
C172 C173 1.379 1_655 S
C172 H190 0.952 . S
C173 C172 1.379 1_455 S
C173 C174 1.390 . S
C173 H200 0.949 . S
C174 C173 1.390 . S
C174 C175 1.357 . S
C175 C174 1.357 . S
C175 C176 1.370 1_455 S
C175 H201 0.950 . S
C176 N171 1.307 . S
C176 C175 1.370 1_655 S
C176 H194 0.948 . S
Zn177 N171 2.020 . S
Zn177 O186 2.039 . S
Zn177 O192 2.034 . S
Zn177 O196 2.025 . S
Zn177 O198 2.024 . S
C178 O197 1.246 . S
C178 O198 1.249 . S
N179 C180 1.307 . S
N179 C181 1.333 . S
N179 Zn185 2.020 . S
C180 N179 1.307 . S
C180 C184 1.370 . S
C180 H191 0.948 . S
C181 N179 1.333 . S
C181 C182 1.379 . S
C181 H189 0.952 . S
C182 C181 1.379 . S
C182 C183 1.390 . S
C182 H202 0.949 . S
C183 C182 1.390 . S
C183 C184 1.357 . S
C184 C180 1.370 . S
C184 C183 1.357 . S
C184 H203 0.950 . S
Zn185 N179 2.020 . S
Zn185 O188 2.025 . S
Zn185 O193 2.024 . S
Zn185 O195 2.039 . S
Zn185 O197 2.034 . S
O186 C170 1.251 . S
O186 Zn177 2.039 . S
C187 O192 1.246 . S
C187 O193 1.249 . S
O188 C170 1.254 . S
O188 Zn185 2.025 . S
H189 C181 0.952 . S
H190 C172 0.952 . S
H191 C180 0.948 . S
O192 Zn177 2.034 . S
O192 C187 1.246 . S
O193 Zn185 2.024 . S
O193 C187 1.249 . S
H194 C176 0.948 . S
O195 Zn185 2.039 . S
O195 C199 1.251 . S
O196 Zn177 2.025 . S
O196 C199 1.254 . S
O197 C178 1.246 . S
O197 Zn185 2.034 . S
O198 Zn177 2.024 . S
O198 C178 1.249 . S
C199 O195 1.251 . S
C199 O196 1.254 . S
H200 C173 0.949 . S
H201 C175 0.950 . S
H202 C182 0.949 . S
H203 C184 0.950 . S
C204 O220 1.251 . S
C204 O222 1.254 . S
N205 C206 1.333 . S
N205 C210 1.307 . S
N205 Zn211 2.020 . S
C206 N205 1.333 . S
C206 C207 1.379 . S
C206 H224 0.952 . S
C207 C206 1.379 . S
C207 C208 1.390 . S
C207 H234 0.949 . S
C208 C207 1.390 . S
C208 C209 1.357 . S
C209 C208 1.357 . S
C209 C210 1.370 . S
C209 H235 0.950 . S
C210 N205 1.307 . S
C210 C209 1.370 . S
C210 H228 0.948 . S
Zn211 N205 2.020 . S
Zn211 O220 2.039 . S
Zn211 O226 2.034 . S
Zn211 O230 2.025 . S
Zn211 O232 2.024 . S
C212 O231 1.246 . S
C212 O232 1.249 . S
N213 C214 1.307 . S
N213 C215 1.333 . S
N213 Zn219 2.020 . S
C214 N213 1.307 . S
C214 C218 1.370 . S
C214 H225 0.948 . S
C215 N213 1.333 . S
C215 C216 1.379 . S
C215 H223 0.952 . S
C216 C215 1.379 . S
C216 C217 1.390 . S
C216 H236 0.949 . S
C217 C216 1.390 . S
C217 C218 1.357 . S
C218 C214 1.370 . S
C218 C217 1.357 . S
C218 H237 0.950 . S
Zn219 N213 2.020 . S
Zn219 O222 2.025 . S
Zn219 O227 2.024 . S
Zn219 O229 2.039 . S
Zn219 O231 2.034 . S
O220 C204 1.251 . S
O220 Zn211 2.039 . S
C221 O226 1.246 . S
C221 O227 1.249 . S
O222 C204 1.254 . S
O222 Zn219 2.025 . S
H223 C215 0.952 . S
H224 C206 0.952 . S
H225 C214 0.948 . S
O226 Zn211 2.034 . S
O226 C221 1.246 . S
O227 Zn219 2.024 . S
O227 C221 1.249 . S
H228 C210 0.948 . S
O229 Zn219 2.039 . S
O229 C233 1.251 . S
O230 Zn211 2.025 . S
O230 C233 1.254 . S
O231 C212 1.246 . S
O231 Zn219 2.034 . S
O232 Zn211 2.024 . S
O232 C212 1.249 . S
C233 O229 1.251 . S
C233 O230 1.254 . S
H234 C207 0.949 . S
H235 C209 0.950 . S
H236 C216 0.949 . S
H237 C218 0.950 . S
C238 O254 1.251 . S
C238 O256 1.254 . S
N239 C240 1.333 . S
N239 C244 1.307 . S
N239 Zn245 2.020 . S
C240 N239 1.333 . S
C240 C241 1.379 . S
C240 H258 0.952 . S
C241 C240 1.379 . S
C241 C242 1.390 . S
C241 H268 0.949 . S
C242 C241 1.390 . S
C242 C243 1.357 . S
C243 C242 1.357 . S
C243 C244 1.370 . S
C243 H269 0.950 . S
C244 N239 1.307 . S
C244 C243 1.370 . S
C244 H262 0.948 . S
Zn245 N239 2.020 . S
Zn245 O254 2.039 . S
Zn245 O260 2.034 . S
Zn245 O264 2.025 . S
Zn245 O266 2.024 . S
C246 O265 1.246 . S
C246 O266 1.249 . S
N247 C248 1.307 . S
N247 C249 1.333 . S
N247 Zn253 2.020 . S
C248 N247 1.307 . S
C248 C252 1.370 1_545 S
C248 H259 0.948 . S
C249 N247 1.333 . S
C249 C250 1.379 1_545 S
C249 H257 0.952 . S
C250 C249 1.379 1_565 S
C250 C251 1.390 . S
C250 H270 0.949 . S
C251 C250 1.390 . S
C251 C252 1.357 . S
C252 C248 1.370 1_565 S
C252 C251 1.357 . S
C252 H271 0.950 . S
Zn253 N247 2.020 . S
Zn253 O256 2.025 . S
Zn253 O261 2.024 . S
Zn253 O263 2.039 . S
Zn253 O265 2.034 . S
O254 C238 1.251 . S
O254 Zn245 2.039 . S
C255 O260 1.246 . S
C255 O261 1.249 . S
O256 C238 1.254 . S
O256 Zn253 2.025 . S
H257 C249 0.952 . S
H258 C240 0.952 . S
H259 C248 0.948 . S
O260 Zn245 2.034 . S
O260 C255 1.246 . S
O261 Zn253 2.024 . S
O261 C255 1.249 . S
H262 C244 0.948 . S
O263 Zn253 2.039 . S
O263 C267 1.251 . S
O264 Zn245 2.025 . S
O264 C267 1.254 . S
O265 C246 1.246 . S
O265 Zn253 2.034 . S
O266 Zn245 2.024 . S
O266 C246 1.249 . S
C267 O263 1.251 . S
C267 O264 1.254 . S
H268 C241 0.949 . S
H269 C243 0.950 . S
H270 C250 0.949 . S
H271 C252 0.950 . S
C272 O288 1.251 . S
C272 O290 1.254 . S
N273 C274 1.333 . S
N273 C278 1.307 . S
N273 Zn279 2.020 . S
C274 N273 1.333 . S
C274 C275 1.379 . S
C274 H292 0.952 . S
C275 C274 1.379 . S
C275 C276 1.390 . S
C275 H302 0.949 . S
C276 C275 1.390 . S
C276 C277 1.357 . S
C277 C276 1.357 . S
C277 C278 1.370 . S
C277 H303 0.950 . S
C278 N273 1.307 . S
C278 C277 1.370 . S
C278 H296 0.948 . S
Zn279 N273 2.020 . S
Zn279 O288 2.039 . S
Zn279 O294 2.034 . S
Zn279 O298 2.025 . S
Zn279 O300 2.024 . S
C280 O299 1.246 . S
C280 O300 1.249 . S
N281 C282 1.307 . S
N281 C283 1.333 . S
N281 Zn287 2.020 . S
C282 N281 1.307 . S
C282 C286 1.370 1_655 S
C282 H293 0.948 . S
C283 N281 1.333 . S
C283 C284 1.379 1_655 S
C283 H291 0.952 . S
C284 C283 1.379 1_455 S
C284 C285 1.390 . S
C284 H304 0.949 . S
C285 C284 1.390 . S
C285 C286 1.357 . S
C286 C282 1.370 1_455 S
C286 C285 1.357 . S
C286 H305 0.950 . S
Zn287 N281 2.020 . S
Zn287 O290 2.025 . S
Zn287 O295 2.024 . S
Zn287 O297 2.039 . S
Zn287 O299 2.034 . S
O288 C272 1.251 . S
O288 Zn279 2.039 . S
C289 O294 1.246 . S
C289 O295 1.249 . S
O290 C272 1.254 . S
O290 Zn287 2.025 . S
H291 C283 0.952 . S
H292 C274 0.952 . S
H293 C282 0.948 . S
O294 Zn279 2.034 . S
O294 C289 1.246 . S
O295 Zn287 2.024 . S
O295 C289 1.249 . S
H296 C278 0.948 . S
O297 Zn287 2.039 . S
O297 C301 1.251 . S
O298 Zn279 2.025 . S
O298 C301 1.254 . S
O299 C280 1.246 . S
O299 Zn287 2.034 . S
O300 Zn279 2.024 . S
O300 C280 1.249 . S
C301 O297 1.251 . S
C301 O298 1.254 . S
H302 C275 0.949 . S
H303 C277 0.950 . S
H304 C284 0.949 . S
H305 C286 0.950 . S
C306 O322 1.251 . S
C306 O324 1.254 . S
N307 C308 1.333 . S
N307 C312 1.307 . S
N307 Zn313 2.020 . S
C308 N307 1.333 . S
C308 C309 1.379 . S
C308 H326 0.952 . S
C309 C308 1.379 . S
C309 C310 1.390 . S
C309 H336 0.949 . S
C310 C309 1.390 . S
C310 C311 1.357 . S
C311 C310 1.357 . S
C311 C312 1.370 . S
C311 H337 0.950 . S
C312 N307 1.307 . S
C312 C311 1.370 . S
C312 H330 0.948 . S
Zn313 N307 2.020 . S
Zn313 O322 2.039 . S
Zn313 O328 2.034 . S
Zn313 O332 2.025 . S
Zn313 O334 2.024 . S
C314 O333 1.246 . S
C314 O334 1.249 . S
N315 C316 1.307 . S
N315 C317 1.333 . S
N315 Zn321 2.020 . S
C316 N315 1.307 . S
C316 C320 1.370 . S
C316 H327 0.948 . S
C317 N315 1.333 . S
C317 C318 1.379 . S
C317 H325 0.952 . S
C318 C317 1.379 . S
C318 C319 1.390 . S
C318 H338 0.949 . S
C319 C318 1.390 . S
C319 C320 1.357 . S
C320 C316 1.370 . S
C320 C319 1.357 . S
C320 H339 0.950 . S
Zn321 N315 2.020 . S
Zn321 O324 2.025 . S
Zn321 O329 2.024 . S
Zn321 O331 2.039 . S
Zn321 O333 2.034 . S
O322 C306 1.251 . S
O322 Zn313 2.039 . S
C323 O328 1.246 . S
C323 O329 1.249 . S
O324 C306 1.254 . S
O324 Zn321 2.025 . S
H325 C317 0.952 . S
H326 C308 0.952 . S
H327 C316 0.948 . S
O328 Zn313 2.034 . S
O328 C323 1.246 . S
O329 Zn321 2.024 . S
O329 C323 1.249 . S
H330 C312 0.948 . S
O331 Zn321 2.039 . S
O331 C335 1.251 . S
O332 Zn313 2.025 . S
O332 C335 1.254 . S
O333 C314 1.246 . S
O333 Zn321 2.034 . S
O334 Zn313 2.024 . S
O334 C314 1.249 . S
C335 O331 1.251 . S
C335 O332 1.254 . S
H336 C309 0.949 . S
H337 C311 0.950 . S
H338 C318 0.949 . S
H339 C320 0.950 . S
C340 O356 1.251 . S
C340 O358 1.254 . S
N341 C342 1.333 . S
N341 C346 1.307 . S
N341 Zn347 2.020 . S
C342 N341 1.333 . S
C342 C343 1.379 . S
C342 H360 0.952 . S
C343 C342 1.379 . S
C343 C344 1.390 . S
C343 H370 0.949 . S
C344 C343 1.390 . S
C344 C345 1.357 . S
C345 C344 1.357 . S
C345 C346 1.370 . S
C345 H371 0.950 . S
C346 N341 1.307 . S
C346 C345 1.370 . S
C346 H364 0.948 . S
Zn347 N341 2.020 . S
Zn347 O356 2.039 . S
Zn347 O362 2.034 . S
Zn347 O366 2.025 . S
Zn347 O368 2.024 . S
C348 O367 1.246 . S
C348 O368 1.249 . S
N349 C350 1.307 . S
N349 C351 1.333 . S
N349 Zn355 2.020 . S
C350 N349 1.307 . S
C350 C354 1.370 1_565 S
C350 H361 0.948 . S
C351 N349 1.333 . S
C351 C352 1.379 1_565 S
C351 H359 0.952 . S
C352 C351 1.379 1_545 S
C352 C353 1.390 . S
C352 H372 0.949 . S
C353 C352 1.390 . S
C353 C354 1.357 . S
C354 C350 1.370 1_545 S
C354 C353 1.357 . S
C354 H373 0.950 . S
Zn355 N349 2.020 . S
Zn355 O358 2.025 . S
Zn355 O363 2.024 . S
Zn355 O365 2.039 . S
Zn355 O367 2.034 . S
O356 C340 1.251 . S
O356 Zn347 2.039 . S
C357 O362 1.246 . S
C357 O363 1.249 . S
O358 C340 1.254 . S
O358 Zn355 2.025 . S
H359 C351 0.952 . S
H360 C342 0.952 . S
H361 C350 0.948 . S
O362 Zn347 2.034 . S
O362 C357 1.246 . S
O363 Zn355 2.024 . S
O363 C357 1.249 . S
H364 C346 0.948 . S
O365 Zn355 2.039 . S
O365 C369 1.251 . S
O366 Zn347 2.025 . S
O366 C369 1.254 . S
O367 C348 1.246 . S
O367 Zn355 2.034 . S
O368 Zn347 2.024 . S
O368 C348 1.249 . S
C369 O365 1.251 . S
C369 O366 1.254 . S
H370 C343 0.949 . S
H371 C345 0.950 . S
H372 C352 0.949 . S
H373 C354 0.950 . S
C374 O390 1.251 . S
C374 O392 1.254 . S
N375 C376 1.333 . S
N375 C380 1.307 . S
N375 Zn381 2.020 . S
C376 N375 1.333 . S
C376 C377 1.379 . S
C376 H394 0.952 . S
C377 C376 1.379 . S
C377 C378 1.390 . S
C377 H404 0.949 . S
C378 C377 1.390 . S
C378 C379 1.357 . S
C379 C378 1.357 . S
C379 C380 1.370 . S
C379 H405 0.950 . S
C380 N375 1.307 . S
C380 C379 1.370 . S
C380 H398 0.948 . S
Zn381 N375 2.020 . S
Zn381 O390 2.039 . S
Zn381 O396 2.034 . S
Zn381 O400 2.025 . S
Zn381 O402 2.024 . S
C382 O401 1.246 . S
C382 O402 1.249 . S
N383 C384 1.307 . S
N383 C385 1.333 . S
N383 Zn389 2.020 . S
C384 N383 1.307 . S
C384 C388 1.370 1_455 S
C384 H395 0.948 . S
C385 N383 1.333 . S
C385 C386 1.379 1_455 S
C385 H393 0.952 . S
C386 C385 1.379 1_655 S
C386 C387 1.390 . S
C386 H406 0.949 . S
C387 C386 1.390 . S
C387 C388 1.357 . S
C388 C384 1.370 1_655 S
C388 C387 1.357 . S
C388 H407 0.950 . S
Zn389 N383 2.020 . S
Zn389 O392 2.025 . S
Zn389 O397 2.024 . S
Zn389 O399 2.039 . S
Zn389 O401 2.034 . S
O390 C374 1.251 . S
O390 Zn381 2.039 . S
C391 O396 1.246 . S
C391 O397 1.249 . S
O392 C374 1.254 . S
O392 Zn389 2.025 . S
H393 C385 0.952 . S
H394 C376 0.952 . S
H395 C384 0.948 . S
O396 Zn381 2.034 . S
O396 C391 1.246 . S
O397 Zn389 2.024 . S
O397 C391 1.249 . S
H398 C380 0.948 . S
O399 Zn389 2.039 . S
O399 C403 1.251 . S
O400 Zn381 2.025 . S
O400 C403 1.254 . S
O401 C382 1.246 . S
O401 Zn389 2.034 . S
O402 Zn381 2.024 . S
O402 C382 1.249 . S
C403 O399 1.251 . S
C403 O400 1.254 . S
H404 C377 0.949 . S
H405 C379 0.950 . S
H406 C386 0.949 . S
H407 C388 0.950 . S
C408 O424 1.251 . S
C408 O426 1.254 . S
N409 C410 1.333 . S
N409 C414 1.307 . S
N409 Zn415 2.020 . S
C410 N409 1.333 . S
C410 C411 1.379 . S
C410 H428 0.952 . S
C411 C410 1.379 . S
C411 C412 1.390 . S
C411 H438 0.949 . S
C412 C411 1.390 . S
C412 C413 1.357 . S
C413 C412 1.357 . S
C413 C414 1.370 . S
C413 H439 0.950 . S
C414 N409 1.307 . S
C414 C413 1.370 . S
C414 H432 0.948 . S
Zn415 N409 2.020 . S
Zn415 O424 2.039 . S
Zn415 O430 2.034 . S
Zn415 O434 2.025 . S
Zn415 O436 2.024 . S
C416 O435 1.246 . S
C416 O436 1.249 . S
N417 C418 1.307 . S
N417 C419 1.333 . S
N417 Zn423 2.020 . S
C418 N417 1.307 . S
C418 C422 1.370 . S
C418 H429 0.948 . S
C419 N417 1.333 . S
C419 C420 1.379 . S
C419 H427 0.952 . S
C420 C419 1.379 . S
C420 C421 1.390 . S
C420 H440 0.949 . S
C421 C420 1.390 . S
C421 C422 1.357 . S
C422 C418 1.370 . S
C422 C421 1.357 . S
C422 H441 0.950 . S
Zn423 N417 2.020 . S
Zn423 O426 2.025 . S
Zn423 O431 2.024 . S
Zn423 O433 2.039 . S
Zn423 O435 2.034 . S
O424 C408 1.251 . S
O424 Zn415 2.039 . S
C425 O430 1.246 . S
C425 O431 1.249 . S
O426 C408 1.254 . S
O426 Zn423 2.025 . S
H427 C419 0.952 . S
H428 C410 0.952 . S
H429 C418 0.948 . S
O430 Zn415 2.034 . S
O430 C425 1.246 . S
O431 Zn423 2.024 . S
O431 C425 1.249 . S
H432 C414 0.948 . S
O433 Zn423 2.039 . S
O433 C437 1.251 . S
O434 Zn415 2.025 . S
O434 C437 1.254 . S
O435 C416 1.246 . S
O435 Zn423 2.034 . S
O436 Zn415 2.024 . S
O436 C416 1.249 . S
C437 O433 1.251 . S
C437 O434 1.254 . S
H438 C411 0.949 . S
H439 C413 0.950 . S
H440 C420 0.949 . S
H441 C422 0.950 . S
C442 O458 1.251 . S
C442 O460 1.254 . S
N443 C444 1.333 . S
N443 C448 1.307 . S
N443 Zn449 2.020 . S
C444 N443 1.333 . S
C444 C445 1.379 . S
C444 H462 0.952 . S
C445 C444 1.379 . S
C445 C446 1.390 . S
C445 H472 0.949 . S
C446 C445 1.390 . S
C446 C447 1.357 . S
C447 C446 1.357 . S
C447 C448 1.370 . S
C447 H473 0.950 . S
C448 N443 1.307 . S
C448 C447 1.370 . S
C448 H466 0.948 . S
Zn449 N443 2.020 . S
Zn449 O458 2.039 . S
Zn449 O464 2.034 . S
Zn449 O468 2.025 . S
Zn449 O470 2.024 . S
C450 O469 1.246 . S
C450 O470 1.249 . S
N451 C452 1.307 . S
N451 C453 1.333 . S
N451 Zn457 2.020 . S
C452 N451 1.307 . S
C452 C456 1.370 . S
C452 H463 0.948 . S
C453 N451 1.333 . S
C453 C454 1.379 . S
C453 H461 0.952 . S
C454 C453 1.379 . S
C454 C455 1.390 1_545 S
C454 H474 0.949 1_545 S
C455 C454 1.390 1_565 S
C455 C456 1.357 1_565 S
C456 C452 1.370 . S
C456 C455 1.357 1_545 S
C456 H475 0.950 . S
Zn457 N451 2.020 . S
Zn457 O460 2.025 . S
Zn457 O465 2.024 . S
Zn457 O467 2.039 . S
Zn457 O469 2.034 . S
O458 C442 1.251 . S
O458 Zn449 2.039 . S
C459 O464 1.246 . S
C459 O465 1.249 . S
O460 C442 1.254 . S
O460 Zn457 2.025 . S
H461 C453 0.952 . S
H462 C444 0.952 . S
H463 C452 0.948 . S
O464 Zn449 2.034 . S
O464 C459 1.246 . S
O465 Zn457 2.024 . S
O465 C459 1.249 . S
H466 C448 0.948 . S
O467 Zn457 2.039 . S
O467 C471 1.251 . S
O468 Zn449 2.025 . S
O468 C471 1.254 . S
O469 C450 1.246 . S
O469 Zn457 2.034 . S
O470 Zn449 2.024 . S
O470 C450 1.249 . S
C471 O467 1.251 . S
C471 O468 1.254 . S
H472 C445 0.949 . S
H473 C447 0.950 . S
H474 C454 0.949 1_565 S
H475 C456 0.950 . S
C476 O492 1.251 . S
C476 O494 1.254 . S
N477 C478 1.333 . S
N477 C482 1.307 . S
N477 Zn483 2.020 . S
C478 N477 1.333 . S
C478 C479 1.379 . S
C478 H496 0.952 . S
C479 C478 1.379 . S
C479 C480 1.390 . S
C479 H506 0.949 . S
C480 C479 1.390 . S
C480 C481 1.357 . S
C481 C480 1.357 . S
C481 C482 1.370 . S
C481 H507 0.950 . S
C482 N477 1.307 . S
C482 C481 1.370 . S
C482 H500 0.948 . S
Zn483 N477 2.020 . S
Zn483 O492 2.039 . S
Zn483 O498 2.034 . S
Zn483 O502 2.025 . S
Zn483 O504 2.024 . S
C484 O503 1.246 . S
C484 O504 1.249 . S
N485 C486 1.307 . S
N485 C487 1.333 . S
N485 Zn491 2.020 . S
C486 N485 1.307 . S
C486 C490 1.370 . S
C486 H497 0.948 . S
C487 N485 1.333 . S
C487 C488 1.379 . S
C487 H495 0.952 . S
C488 C487 1.379 . S
C488 C489 1.390 1_655 S
C488 H508 0.949 1_655 S
C489 C488 1.390 1_455 S
C489 C490 1.357 1_455 S
C490 C486 1.370 . S
C490 C489 1.357 1_655 S
C490 H509 0.951 . S
Zn491 N485 2.020 . S
Zn491 O494 2.025 . S
Zn491 O499 2.024 . S
Zn491 O501 2.039 . S
Zn491 O503 2.034 . S
O492 C476 1.251 . S
O492 Zn483 2.039 . S
C493 O498 1.246 . S
C493 O499 1.249 . S
O494 C476 1.254 . S
O494 Zn491 2.025 . S
H495 C487 0.952 . S
H496 C478 0.952 . S
H497 C486 0.948 . S
O498 Zn483 2.034 . S
O498 C493 1.246 . S
O499 Zn491 2.024 . S
O499 C493 1.249 . S
H500 C482 0.948 . S
O501 Zn491 2.039 . S
O501 C505 1.251 . S
O502 Zn483 2.025 . S
O502 C505 1.254 . S
O503 C484 1.246 . S
O503 Zn491 2.034 . S
O504 Zn483 2.024 . S
O504 C484 1.249 . S
C505 O501 1.251 . S
C505 O502 1.254 . S
H506 C479 0.949 . S
H507 C481 0.950 . S
H508 C488 0.949 1_455 S
H509 C490 0.951 . S
C510 O526 1.251 . S
C510 O528 1.254 . S
N511 C512 1.333 . S
N511 C516 1.307 . S
N511 Zn517 2.020 . S
C512 N511 1.333 . S
C512 C513 1.379 . S
C512 H530 0.952 . S
C513 C512 1.379 . S
C513 C514 1.390 . S
C513 H540 0.949 . S
C514 C513 1.390 . S
C514 C515 1.357 . S
C515 C514 1.357 . S
C515 C516 1.370 . S
C515 H541 0.950 . S
C516 N511 1.307 . S
C516 C515 1.370 . S
C516 H534 0.948 . S
Zn517 N511 2.020 . S
Zn517 O526 2.039 . S
Zn517 O532 2.034 . S
Zn517 O536 2.025 . S
Zn517 O538 2.024 . S
C518 O537 1.246 . S
C518 O538 1.249 . S
N519 C520 1.307 1_655 S
N519 C521 1.344 . S
N519 Zn525 2.020 . S
C520 N519 1.307 1_455 S
C520 C524 1.370 . S
C520 H531 0.948 . S
C521 N519 1.344 . S
C521 C522 1.356 1_655 S
C521 H529 0.965 . S
C522 C521 1.356 1_455 S
C522 C523 1.390 . S
C522 H542 0.949 . S
C523 C522 1.390 . S
C523 C524 1.357 . S
C524 C520 1.370 . S
C524 C523 1.357 . S
C524 H543 0.950 . S
Zn525 N519 2.020 . S
Zn525 O528 2.025 . S
Zn525 O533 2.024 . S
Zn525 O535 2.039 . S
Zn525 O537 2.034 . S
O526 C510 1.251 . S
O526 Zn517 2.039 . S
C527 O532 1.246 . S
C527 O533 1.249 . S
O528 C510 1.254 . S
O528 Zn525 2.025 . S
H529 C521 0.965 . S
H530 C512 0.952 . S
H531 C520 0.948 . S
O532 Zn517 2.034 . S
O532 C527 1.246 . S
O533 Zn525 2.024 . S
O533 C527 1.249 . S
H534 C516 0.948 . S
O535 Zn525 2.039 . S
O535 C539 1.251 . S
O536 Zn517 2.025 . S
O536 C539 1.254 . S
O537 C518 1.246 . S
O537 Zn525 2.034 . S
O538 Zn517 2.024 . S
O538 C518 1.249 . S
C539 O535 1.251 . S
C539 O536 1.254 . S
H540 C513 0.949 . S
H541 C515 0.950 . S
H542 C522 0.949 . S
H543 C524 0.950 . S
C544 O560 1.251 . S
C544 O562 1.254 . S
N545 C546 1.333 . S
N545 C550 1.307 . S
N545 Zn551 2.020 . S
C546 N545 1.333 . S
C546 C547 1.379 . S
C546 H564 0.952 . S
C547 C546 1.379 . S
C547 C548 1.390 . S
C547 H574 0.949 . S
C548 C547 1.390 . S
C548 C549 1.357 . S
C549 C548 1.357 . S
C549 C550 1.370 . S
C549 H575 0.950 . S
C550 N545 1.307 . S
C550 C549 1.370 . S
C550 H568 0.948 . S
Zn551 N545 2.020 . S
Zn551 O560 2.039 . S
Zn551 O566 2.034 . S
Zn551 O570 2.025 . S
Zn551 O572 2.024 . S
C552 O571 1.246 . S
C552 O572 1.249 . S
N553 C554 1.307 . S
N553 C555 1.333 . S
N553 Zn559 2.020 . S
C554 N553 1.307 . S
C554 C558 1.370 . S
C554 H565 0.948 . S
C555 N553 1.333 . S
C555 C556 1.379 . S
C555 H563 0.952 . S
C556 C555 1.379 . S
C556 C557 1.390 . S
C556 H576 0.949 . S
C557 C556 1.390 . S
C557 C558 1.357 . S
C558 C554 1.370 . S
C558 C557 1.357 . S
C558 H577 0.950 . S
Zn559 N553 2.020 . S
Zn559 O562 2.025 . S
Zn559 O567 2.024 . S
Zn559 O569 2.039 . S
Zn559 O571 2.034 . S
O560 C544 1.251 . S
O560 Zn551 2.039 . S
C561 O566 1.246 . S
C561 O567 1.249 . S
O562 C544 1.254 . S
O562 Zn559 2.025 . S
H563 C555 0.952 . S
H564 C546 0.952 . S
H565 C554 0.948 . S
O566 Zn551 2.034 . S
O566 C561 1.246 . S
O567 Zn559 2.024 . S
O567 C561 1.249 . S
H568 C550 0.948 . S
O569 Zn559 2.039 . S
O569 C573 1.251 . S
O570 Zn551 2.025 . S
O570 C573 1.254 . S
O571 C552 1.246 . S
O571 Zn559 2.034 . S
O572 Zn551 2.024 . S
O572 C552 1.249 . S
C573 O569 1.251 . S
C573 O570 1.254 . S
H574 C547 0.949 . S
H575 C549 0.950 . S
H576 C556 0.949 . S
H577 C558 0.950 . S
C578 O594 1.251 . S
C578 O596 1.254 . S
N579 C580 1.333 . S
N579 C584 1.307 . S
N579 Zn585 2.020 . S
C580 N579 1.333 . S
C580 C581 1.379 . S
C580 H598 0.952 . S
C581 C580 1.379 . S
C581 C582 1.390 . S
C581 H608 0.949 . S
C582 C581 1.390 . S
C582 C583 1.357 . S
C583 C582 1.357 . S
C583 C584 1.370 . S
C583 H609 0.950 . S
C584 N579 1.307 . S
C584 C583 1.370 . S
C584 H602 0.948 . S
Zn585 N579 2.020 . S
Zn585 O594 2.039 . S
Zn585 O600 2.034 . S
Zn585 O604 2.025 . S
Zn585 O606 2.024 . S
C586 O605 1.246 . S
C586 O606 1.249 . S
N587 C588 1.307 1_545 S
N587 C589 1.333 . S
N587 Zn593 2.020 . S
C588 N587 1.307 1_565 S
C588 C592 1.370 . S
C588 H599 0.948 . S
C589 N587 1.333 . S
C589 C590 1.375 1_545 S
C589 H597 0.957 . S
C590 C589 1.375 1_565 S
C590 C591 1.390 . S
C590 H610 0.949 . S
C591 C590 1.390 . S
C591 C592 1.357 . S
C592 C588 1.370 . S
C592 C591 1.357 . S
C592 H611 0.950 . S
Zn593 N587 2.020 . S
Zn593 O596 2.025 . S
Zn593 O601 2.024 . S
Zn593 O603 2.039 . S
Zn593 O605 2.034 . S
O594 C578 1.251 . S
O594 Zn585 2.039 . S
C595 O600 1.246 . S
C595 O601 1.249 . S
O596 C578 1.254 . S
O596 Zn593 2.025 . S
H597 C589 0.957 . S
H598 C580 0.952 . S
H599 C588 0.948 . S
O600 Zn585 2.034 . S
O600 C595 1.246 . S
O601 Zn593 2.024 . S
O601 C595 1.249 . S
H602 C584 0.948 . S
O603 Zn593 2.039 . S
O603 C607 1.251 . S
O604 Zn585 2.025 . S
O604 C607 1.254 . S
O605 C586 1.246 . S
O605 Zn593 2.034 . S
O606 Zn585 2.024 . S
O606 C586 1.249 . S
C607 O603 1.251 . S
C607 O604 1.254 . S
H608 C581 0.949 . S
H609 C583 0.950 . S
H610 C590 0.949 . S
H611 C592 0.950 . S
C612 O628 1.251 . S
C612 O630 1.254 . S
N613 C614 1.344 . S
N613 C618 1.307 1_545 S
N613 Zn619 2.020 . S
C614 N613 1.344 . S
C614 C615 1.356 1_545 S
C614 H632 0.965 . S
C615 C614 1.356 1_565 S
C615 C616 1.390 . S
C615 H642 0.949 . S
C616 C615 1.390 . S
C616 C617 1.357 . S
C617 C616 1.357 . S
C617 C618 1.370 . S
C617 H643 0.950 . S
C618 N613 1.307 1_565 S
C618 C617 1.370 . S
C618 H636 0.948 . S
Zn619 N613 2.020 . S
Zn619 O628 2.039 . S
Zn619 O634 2.034 . S
Zn619 O638 2.025 . S
Zn619 O640 2.024 . S
C620 O639 1.246 . S
C620 O640 1.249 . S
N621 C622 1.307 . S
N621 C623 1.333 . S
N621 Zn627 2.020 . S
C622 N621 1.307 . S
C622 C626 1.370 . S
C622 H633 0.948 . S
C623 N621 1.333 . S
C623 C624 1.379 . S
C623 H631 0.952 . S
C624 C623 1.379 . S
C624 C625 1.390 . S
C624 H644 0.949 . S
C625 C624 1.390 . S
C625 C626 1.357 . S
C626 C622 1.370 . S
C626 C625 1.357 . S
C626 H645 0.950 . S
Zn627 N621 2.020 . S
Zn627 O630 2.025 . S
Zn627 O635 2.024 . S
Zn627 O637 2.039 . S
Zn627 O639 2.034 . S
O628 C612 1.251 . S
O628 Zn619 2.039 . S
C629 O634 1.246 . S
C629 O635 1.249 . S
O630 C612 1.254 . S
O630 Zn627 2.025 . S
H631 C623 0.952 . S
H632 C614 0.965 . S
H633 C622 0.948 . S
O634 Zn619 2.034 . S
O634 C629 1.246 . S
O635 Zn627 2.024 . S
O635 C629 1.249 . S
H636 C618 0.948 . S
O637 Zn627 2.039 . S
O637 C641 1.251 . S
O638 Zn619 2.025 . S
O638 C641 1.254 . S
O639 C620 1.246 . S
O639 Zn627 2.034 . S
O640 Zn619 2.024 . S
O640 C620 1.249 . S
C641 O637 1.251 . S
C641 O638 1.254 . S
H642 C615 0.949 . S
H643 C617 0.950 . S
H644 C624 0.949 . S
H645 C626 0.950 . S
C646 O662 1.251 . S
C646 O664 1.254 . S
N647 C648 1.333 . S
N647 C652 1.307 1_655 S
N647 Zn653 2.020 . S
C648 N647 1.333 . S
C648 C649 1.375 1_655 S
C648 H666 0.957 . S
C649 C648 1.375 1_455 S
C649 C650 1.390 . S
C649 H676 0.949 . S
C650 C649 1.390 . S
C650 C651 1.357 . S
C651 C650 1.357 . S
C651 C652 1.370 . S
C651 H677 0.950 . S
C652 N647 1.307 1_455 S
C652 C651 1.370 . S
C652 H670 0.948 . S
Zn653 N647 2.020 . S
Zn653 O662 2.039 . S
Zn653 O668 2.034 . S
Zn653 O672 2.025 . S
Zn653 O674 2.024 . S
C654 O673 1.246 . S
C654 O674 1.249 . S
N655 C656 1.307 . S
N655 C657 1.333 . S
N655 Zn661 2.020 . S
C656 N655 1.307 . S
C656 C660 1.370 . S
C656 H667 0.948 . S
C657 N655 1.333 . S
C657 C658 1.379 . S
C657 H665 0.952 . S
C658 C657 1.379 . S
C658 C659 1.390 . S
C658 H678 0.949 . S
C659 C658 1.390 . S
C659 C660 1.357 . S
C660 C656 1.370 . S
C660 C659 1.357 . S
C660 H679 0.950 . S
Zn661 N655 2.020 . S
Zn661 O664 2.025 . S
Zn661 O669 2.024 . S
Zn661 O671 2.039 . S
Zn661 O673 2.034 . S
O662 C646 1.251 . S
O662 Zn653 2.039 . S
C663 O668 1.246 . S
C663 O669 1.249 . S
O664 C646 1.254 . S
O664 Zn661 2.025 . S
H665 C657 0.952 . S
H666 C648 0.957 . S
H667 C656 0.948 . S
O668 Zn653 2.034 . S
O668 C663 1.246 . S
O669 Zn661 2.024 . S
O669 C663 1.249 . S
H670 C652 0.948 . S
O671 Zn661 2.039 . S
O671 C675 1.251 . S
O672 Zn653 2.025 . S
O672 C675 1.254 . S
O673 C654 1.246 . S
O673 Zn661 2.034 . S
O674 Zn653 2.024 . S
O674 C654 1.249 . S
C675 O671 1.251 . S
C675 O672 1.254 . S
H676 C649 0.949 . S
H677 C651 0.950 . S
H678 C658 0.949 . S
H679 C660 0.950 . S
C680 O696 1.251 . S
C680 O698 1.254 . S
N681 C682 1.333 . S
N681 C686 1.307 . S
N681 Zn687 2.020 . S
C682 N681 1.333 . S
C682 C683 1.379 . S
C682 H700 0.952 . S
C683 C682 1.379 . S
C683 C684 1.390 . S
C683 H710 0.949 . S
C684 C683 1.390 . S
C684 C685 1.357 . S
C685 C684 1.357 . S
C685 C686 1.370 . S
C685 H711 0.950 . S
C686 N681 1.307 . S
C686 C685 1.370 . S
C686 H704 0.948 . S
Zn687 N681 2.020 . S
Zn687 O696 2.039 . S
Zn687 O702 2.034 . S
Zn687 O706 2.025 . S
Zn687 O708 2.024 . S
C688 O707 1.246 . S
C688 O708 1.249 . S
N689 C690 1.307 . S
N689 C691 1.333 . S
N689 Zn695 2.020 . S
C690 N689 1.307 . S
C690 C694 1.370 . S
C690 H701 0.948 . S
C691 N689 1.333 . S
C691 C692 1.379 . S
C691 H699 0.952 . S
C692 C691 1.379 . S
C692 C693 1.390 . S
C692 H712 0.949 . S
C693 C692 1.390 . S
C693 C694 1.357 . S
C694 C690 1.370 . S
C694 C693 1.357 . S
C694 H713 0.950 . S
Zn695 N689 2.020 . S
Zn695 O698 2.025 . S
Zn695 O703 2.024 . S
Zn695 O705 2.039 . S
Zn695 O707 2.034 . S
O696 C680 1.251 . S
O696 Zn687 2.039 . S
C697 O702 1.246 . S
C697 O703 1.249 . S
O698 C680 1.254 . S
O698 Zn695 2.025 . S
H699 C691 0.952 . S
H700 C682 0.952 . S
H701 C690 0.948 . S
O702 Zn687 2.034 . S
O702 C697 1.246 . S
O703 Zn695 2.024 . S
O703 C697 1.249 . S
H704 C686 0.948 . S
O705 Zn695 2.039 . S
O705 C709 1.251 . S
O706 Zn687 2.025 . S
O706 C709 1.254 . S
O707 C688 1.246 . S
O707 Zn695 2.034 . S
O708 Zn687 2.024 . S
O708 C688 1.249 . S
C709 O705 1.251 . S
C709 O706 1.254 . S
H710 C683 0.949 . S
H711 C685 0.950 . S
H712 C692 0.949 . S
H713 C694 0.950 . S
C714 O730 1.251 . S
C714 O732 1.254 . S
N715 C716 1.346 . S
N715 C720 1.295 1_556 S
N715 Zn721 2.020 . S
C716 N715 1.346 . S
C716 C717 1.379 . S
C716 H734 0.952 . S
C717 C716 1.379 . S
C717 C718 1.390 . S
C717 H744 0.949 . S
C718 C717 1.390 . S
C718 C719 1.357 1_556 S
C719 C718 1.357 1_554 S
C719 C720 1.370 . S
C719 H745 0.950 . S
C720 N715 1.295 1_554 S
C720 C719 1.370 . S
C720 H738 0.948 . S
Zn721 N715 2.020 . S
Zn721 O730 2.039 . S
Zn721 O736 2.034 . S
Zn721 O740 2.025 1_556 S
Zn721 O742 2.024 1_556 S
C722 O741 1.246 . S
C722 O742 1.249 . S
N723 C724 1.307 . S
N723 C725 1.333 1_556 S
N723 Zn729 2.020 . S
C724 N723 1.307 . S
C724 C728 1.370 . S
C724 H735 0.948 . S
C725 N723 1.333 1_554 S
C725 C726 1.379 . S
C725 H733 0.952 . S
C726 C725 1.379 . S
C726 C727 1.390 1_554 S
C726 H746 0.949 . S
C727 C726 1.390 1_556 S
C727 C728 1.357 . S
C728 C724 1.370 . S
C728 C727 1.357 . S
C728 H747 0.950 . S
Zn729 N723 2.020 . S
Zn729 O732 2.025 . S
Zn729 O737 2.024 . S
Zn729 O739 2.039 1_556 S
Zn729 O741 2.034 1_556 S
O730 C714 1.251 . S
O730 Zn721 2.039 . S
C731 O736 1.246 . S
C731 O737 1.249 . S
O732 C714 1.254 . S
O732 Zn729 2.025 . S
H733 C725 0.952 . S
H734 C716 0.952 . S
H735 C724 0.948 . S
O736 Zn721 2.034 . S
O736 C731 1.246 . S
O737 Zn729 2.024 . S
O737 C731 1.249 . S
H738 C720 0.948 . S
O739 Zn729 2.039 1_554 S
O739 C743 1.251 . S
O740 Zn721 2.025 1_554 S
O740 C743 1.254 . S
O741 C722 1.246 . S
O741 Zn729 2.034 1_554 S
O742 Zn721 2.024 1_554 S
O742 C722 1.249 . S
C743 O739 1.251 . S
C743 O740 1.254 . S
H744 C717 0.949 . S
H745 C719 0.950 . S
H746 C726 0.949 . S
H747 C728 0.950 . S
C748 O764 1.251 . S
C748 O766 1.254 . S
N749 C750 1.346 . S
N749 C754 1.295 1_556 S
N749 Zn755 2.020 . S
C750 N749 1.346 . S
C750 C751 1.379 . S
C750 H768 0.952 . S
C751 C750 1.379 . S
C751 C752 1.390 1_545 S
C751 H778 0.949 1_545 S
C752 C751 1.390 1_565 S
C752 C753 1.357 1_566 S
C753 C752 1.357 1_544 S
C753 C754 1.370 . S
C753 H779 0.951 . S
C754 N749 1.295 1_554 S
C754 C753 1.370 . S
C754 H772 0.948 . S
Zn755 N749 2.020 . S
Zn755 O764 2.039 . S
Zn755 O770 2.034 . S
Zn755 O774 2.025 1_556 S
Zn755 O776 2.024 1_556 S
C756 O775 1.246 . S
C756 O776 1.249 . S
N757 C758 1.307 . S
N757 C759 1.333 1_556 S
N757 Zn763 2.020 . S
C758 N757 1.307 . S
C758 C762 1.370 . S
C758 H769 0.948 . S
C759 N757 1.333 1_554 S
C759 C760 1.379 . S
C759 H767 0.952 . S
C760 C759 1.379 . S
C760 C761 1.390 1_554 S
C760 H780 0.949 . S
C761 C760 1.390 1_556 S
C761 C762 1.357 . S
C762 C758 1.370 . S
C762 C761 1.357 . S
C762 H781 0.950 . S
Zn763 N757 2.020 . S
Zn763 O766 2.025 . S
Zn763 O771 2.024 . S
Zn763 O773 2.039 1_556 S
Zn763 O775 2.034 1_556 S
O764 C748 1.251 . S
O764 Zn755 2.039 . S
C765 O770 1.246 . S
C765 O771 1.249 . S
O766 C748 1.254 . S
O766 Zn763 2.025 . S
H767 C759 0.952 . S
H768 C750 0.952 . S
H769 C758 0.948 . S
O770 Zn755 2.034 . S
O770 C765 1.246 . S
O771 Zn763 2.024 . S
O771 C765 1.249 . S
H772 C754 0.948 . S
O773 Zn763 2.039 1_554 S
O773 C777 1.251 . S
O774 Zn755 2.025 1_554 S
O774 C777 1.254 . S
O775 C756 1.246 . S
O775 Zn763 2.034 1_554 S
O776 Zn755 2.024 1_554 S
O776 C756 1.249 . S
C777 O773 1.251 . S
C777 O774 1.254 . S
H778 C751 0.949 1_565 S
H779 C753 0.951 . S
H780 C760 0.949 . S
H781 C762 0.950 . S
C782 O798 1.251 . S
C782 O800 1.254 . S
N783 C784 1.346 . S
N783 C788 1.295 1_556 S
N783 Zn789 2.020 . S
C784 N783 1.346 . S
C784 C785 1.379 . S
C784 H802 0.952 . S
C785 C784 1.379 . S
C785 C786 1.390 1_655 S
C785 H812 0.949 1_655 S
C786 C785 1.390 1_455 S
C786 C787 1.357 1_456 S
C787 C786 1.357 1_654 S
C787 C788 1.370 . S
C787 H813 0.950 . S
C788 N783 1.295 1_554 S
C788 C787 1.370 . S
C788 H806 0.948 . S
Zn789 N783 2.020 . S
Zn789 O798 2.039 . S
Zn789 O804 2.034 . S
Zn789 O808 2.025 1_556 S
Zn789 O810 2.024 1_556 S
C790 O809 1.246 . S
C790 O810 1.249 . S
N791 C792 1.307 . S
N791 C793 1.333 1_556 S
N791 Zn797 2.020 . S
C792 N791 1.307 . S
C792 C796 1.370 . S
C792 H803 0.948 . S
C793 N791 1.333 1_554 S
C793 C794 1.379 . S
C793 H801 0.952 . S
C794 C793 1.379 . S
C794 C795 1.390 1_554 S
C794 H814 0.949 . S
C795 C794 1.390 1_556 S
C795 C796 1.357 . S
C796 C792 1.370 . S
C796 C795 1.357 . S
C796 H815 0.950 . S
Zn797 N791 2.020 . S
Zn797 O800 2.025 . S
Zn797 O805 2.024 . S
Zn797 O807 2.039 1_556 S
Zn797 O809 2.034 1_556 S
O798 C782 1.251 . S
O798 Zn789 2.039 . S
C799 O804 1.246 . S
C799 O805 1.249 . S
O800 C782 1.254 . S
O800 Zn797 2.025 . S
H801 C793 0.952 . S
H802 C784 0.952 . S
H803 C792 0.948 . S
O804 Zn789 2.034 . S
O804 C799 1.246 . S
O805 Zn797 2.024 . S
O805 C799 1.249 . S
H806 C788 0.948 . S
O807 Zn797 2.039 1_554 S
O807 C811 1.251 . S
O808 Zn789 2.025 1_554 S
O808 C811 1.254 . S
O809 C790 1.246 . S
O809 Zn797 2.034 1_554 S
O810 Zn789 2.024 1_554 S
O810 C790 1.249 . S
C811 O807 1.251 . S
C811 O808 1.254 . S
H812 C785 0.949 1_455 S
H813 C787 0.950 . S
H814 C794 0.949 . S
H815 C796 0.950 . S
C816 O832 1.251 . S
C816 O834 1.254 . S
N817 C818 1.333 . S
N817 C822 1.307 . S
N817 Zn823 2.020 . S
C818 N817 1.333 . S
C818 C819 1.379 . S
C818 H836 0.952 . S
C819 C818 1.379 . S
C819 C820 1.390 . S
C819 H846 0.949 . S
C820 C819 1.390 . S
C820 C821 1.357 . S
C821 C820 1.357 . S
C821 C822 1.370 . S
C821 H847 0.950 . S
C822 N817 1.307 . S
C822 C821 1.370 . S
C822 H840 0.948 . S
Zn823 N817 2.020 . S
Zn823 O832 2.039 . S
Zn823 O838 2.034 . S
Zn823 O842 2.025 . S
Zn823 O844 2.024 . S
C824 O843 1.246 . S
C824 O844 1.249 . S
N825 C826 1.307 1_565 S
N825 C827 1.344 . S
N825 Zn831 2.020 . S
C826 N825 1.307 1_545 S
C826 C830 1.370 . S
C826 H837 0.948 . S
C827 N825 1.344 . S
C827 C828 1.356 1_565 S
C827 H835 0.965 . S
C828 C827 1.356 1_545 S
C828 C829 1.390 . S
C828 H848 0.949 . S
C829 C828 1.390 . S
C829 C830 1.357 . S
C830 C826 1.370 . S
C830 C829 1.357 . S
C830 H849 0.950 . S
Zn831 N825 2.020 . S
Zn831 O834 2.025 . S
Zn831 O839 2.024 . S
Zn831 O841 2.039 . S
Zn831 O843 2.034 . S
O832 C816 1.251 . S
O832 Zn823 2.039 . S
C833 O838 1.246 . S
C833 O839 1.249 . S
O834 C816 1.254 . S
O834 Zn831 2.025 . S
H835 C827 0.965 . S
H836 C818 0.952 . S
H837 C826 0.948 . S
O838 Zn823 2.034 . S
O838 C833 1.246 . S
O839 Zn831 2.024 . S
O839 C833 1.249 . S
H840 C822 0.948 . S
O841 Zn831 2.039 . S
O841 C845 1.251 . S
O842 Zn823 2.025 . S
O842 C845 1.254 . S
O843 C824 1.246 . S
O843 Zn831 2.034 . S
O844 Zn823 2.024 . S
O844 C824 1.249 . S
C845 O841 1.251 . S
C845 O842 1.254 . S
H846 C819 0.949 . S
H847 C821 0.950 . S
H848 C828 0.949 . S
H849 C830 0.950 . S
C850 O866 1.251 . S
C850 O868 1.254 . S
N851 C852 1.333 . S
N851 C856 1.307 . S
N851 Zn857 2.020 . S
C852 N851 1.333 . S
C852 C853 1.379 . S
C852 H870 0.952 . S
C853 C852 1.379 . S
C853 C854 1.390 . S
C853 H880 0.949 . S
C854 C853 1.390 . S
C854 C855 1.357 . S
C855 C854 1.357 . S
C855 C856 1.370 . S
C855 H881 0.950 . S
C856 N851 1.307 . S
C856 C855 1.370 . S
C856 H874 0.948 . S
Zn857 N851 2.020 . S
Zn857 O866 2.039 . S
Zn857 O872 2.034 . S
Zn857 O876 2.025 . S
Zn857 O878 2.024 . S
C858 O877 1.246 . S
C858 O878 1.249 . S
N859 C860 1.307 1_455 S
N859 C861 1.333 . S
N859 Zn865 2.020 . S
C860 N859 1.307 1_655 S
C860 C864 1.370 . S
C860 H871 0.948 . S
C861 N859 1.333 . S
C861 C862 1.375 1_455 S
C861 H869 0.957 . S
C862 C861 1.375 1_655 S
C862 C863 1.390 . S
C862 H882 0.949 . S
C863 C862 1.390 . S
C863 C864 1.357 . S
C864 C860 1.370 . S
C864 C863 1.357 . S
C864 H883 0.950 . S
Zn865 N859 2.020 . S
Zn865 O868 2.025 . S
Zn865 O873 2.024 . S
Zn865 O875 2.039 . S
Zn865 O877 2.034 . S
O866 C850 1.251 . S
O866 Zn857 2.039 . S
C867 O872 1.246 . S
C867 O873 1.249 . S
O868 C850 1.254 . S
O868 Zn865 2.025 . S
H869 C861 0.957 . S
H870 C852 0.952 . S
H871 C860 0.948 . S
O872 Zn857 2.034 . S
O872 C867 1.246 . S
O873 Zn865 2.024 . S
O873 C867 1.249 . S
H874 C856 0.948 . S
O875 Zn865 2.039 . S
O875 C879 1.251 . S
O876 Zn857 2.025 . S
O876 C879 1.254 . S
O877 C858 1.246 . S
O877 Zn865 2.034 . S
O878 Zn857 2.024 . S
O878 C858 1.249 . S
C879 O875 1.251 . S
C879 O876 1.254 . S
H880 C853 0.949 . S
H881 C855 0.950 . S
H882 C862 0.949 . S
H883 C864 0.950 . S
C884 O900 1.251 . S
C884 O902 1.254 . S
N885 C886 1.333 . S
N885 C890 1.307 . S
N885 Zn891 2.020 . S
C886 N885 1.333 . S
C886 C887 1.379 . S
C886 H904 0.952 . S
C887 C886 1.379 . S
C887 C888 1.390 . S
C887 H914 0.949 . S
C888 C887 1.390 . S
C888 C889 1.357 . S
C889 C888 1.357 . S
C889 C890 1.370 . S
C889 H915 0.950 . S
C890 N885 1.307 . S
C890 C889 1.370 . S
C890 H908 0.948 . S
Zn891 N885 2.020 . S
Zn891 O900 2.039 . S
Zn891 O906 2.034 . S
Zn891 O910 2.025 . S
Zn891 O912 2.024 . S
C892 O911 1.246 . S
C892 O912 1.249 . S
N893 C894 1.307 . S
N893 C895 1.333 . S
N893 Zn899 2.020 . S
C894 N893 1.307 . S
C894 C898 1.370 . S
C894 H905 0.948 . S
C895 N893 1.333 . S
C895 C896 1.379 . S
C895 H903 0.952 . S
C896 C895 1.379 . S
C896 C897 1.390 . S
C896 H916 0.949 . S
C897 C896 1.390 . S
C897 C898 1.357 . S
C898 C894 1.370 . S
C898 C897 1.357 . S
C898 H917 0.950 . S
Zn899 N893 2.020 . S
Zn899 O902 2.025 . S
Zn899 O907 2.024 . S
Zn899 O909 2.039 . S
Zn899 O911 2.034 . S
O900 C884 1.251 . S
O900 Zn891 2.039 . S
C901 O906 1.246 . S
C901 O907 1.249 . S
O902 C884 1.254 . S
O902 Zn899 2.025 . S
H903 C895 0.952 . S
H904 C886 0.952 . S
H905 C894 0.948 . S
O906 Zn891 2.034 . S
O906 C901 1.246 . S
O907 Zn899 2.024 . S
O907 C901 1.249 . S
H908 C890 0.948 . S
O909 Zn899 2.039 . S
O909 C913 1.251 . S
O910 Zn891 2.025 . S
O910 C913 1.254 . S
O911 C892 1.246 . S
O911 Zn899 2.034 . S
O912 Zn891 2.024 . S
O912 C892 1.249 . S
C913 O909 1.251 . S
C913 O910 1.254 . S
H914 C887 0.949 . S
H915 C889 0.950 . S
H916 C896 0.949 . S
H917 C898 0.950 . S
C918 O934 1.251 . S
C918 O936 1.254 . S
N919 C920 1.333 1_554 S
N919 C924 1.307 . S
N919 Zn925 2.020 . S
C920 N919 1.333 1_556 S
C920 C921 1.379 . S
C920 H938 0.952 . S
C921 C920 1.379 . S
C921 C922 1.390 1_556 S
C921 H948 0.949 . S
C922 C921 1.390 1_554 S
C922 C923 1.357 . S
C923 C922 1.357 . S
C923 C924 1.370 . S
C923 H949 0.950 . S
C924 N919 1.307 . S
C924 C923 1.370 . S
C924 H942 0.948 . S
Zn925 N919 2.020 . S
Zn925 O934 2.039 1_554 S
Zn925 O940 2.034 1_554 S
Zn925 O944 2.025 . S
Zn925 O946 2.024 . S
C926 O945 1.246 . S
C926 O946 1.249 . S
N927 C928 1.295 1_554 S
N927 C929 1.346 . S
N927 Zn933 2.020 . S
C928 N927 1.295 1_556 S
C928 C932 1.370 . S
C928 H939 0.948 . S
C929 N927 1.346 . S
C929 C930 1.379 . S
C929 H937 0.952 . S
C930 C929 1.379 . S
C930 C931 1.390 . S
C930 H950 0.949 . S
C931 C930 1.390 . S
C931 C932 1.357 1_554 S
C932 C928 1.370 . S
C932 C931 1.357 1_556 S
C932 H951 0.950 . S
Zn933 N927 2.020 . S
Zn933 O936 2.025 1_554 S
Zn933 O941 2.024 1_554 S
Zn933 O943 2.039 . S
Zn933 O945 2.034 . S
O934 C918 1.251 . S
O934 Zn925 2.039 1_556 S
C935 O940 1.246 . S
C935 O941 1.249 . S
O936 C918 1.254 . S
O936 Zn933 2.025 1_556 S
H937 C929 0.952 . S
H938 C920 0.952 . S
H939 C928 0.948 . S
O940 Zn925 2.034 1_556 S
O940 C935 1.246 . S
O941 Zn933 2.024 1_556 S
O941 C935 1.249 . S
H942 C924 0.948 . S
O943 Zn933 2.039 . S
O943 C947 1.251 . S
O944 Zn925 2.025 . S
O944 C947 1.254 . S
O945 C926 1.246 . S
O945 Zn933 2.034 . S
O946 Zn925 2.024 . S
O946 C926 1.249 . S
C947 O943 1.251 . S
C947 O944 1.254 . S
H948 C921 0.949 . S
H949 C923 0.950 . S
H950 C930 0.949 . S
H951 C932 0.950 . S
C952 O968 1.251 . S
C952 O970 1.254 . S
N953 C954 1.333 1_554 S
N953 C958 1.307 . S
N953 Zn959 2.020 . S
C954 N953 1.333 1_556 S
C954 C955 1.379 . S
C954 H972 0.952 . S
C955 C954 1.379 . S
C955 C956 1.390 1_556 S
C955 H982 0.949 . S
C956 C955 1.390 1_554 S
C956 C957 1.357 . S
C957 C956 1.357 . S
C957 C958 1.370 . S
C957 H983 0.950 . S
C958 N953 1.307 . S
C958 C957 1.370 . S
C958 H976 0.948 . S
Zn959 N953 2.020 . S
Zn959 O968 2.039 1_554 S
Zn959 O974 2.034 1_554 S
Zn959 O978 2.025 . S
Zn959 O980 2.024 . S
C960 O979 1.246 . S
C960 O980 1.249 . S
N961 C962 1.295 1_554 S
N961 C963 1.346 . S
N961 Zn967 2.020 . S
C962 N961 1.295 1_556 S
C962 C966 1.370 . S
C962 H973 0.948 . S
C963 N961 1.346 . S
C963 C964 1.379 . S
C963 H971 0.952 . S
C964 C963 1.379 . S
C964 C965 1.390 1_565 S
C964 H984 0.949 1_565 S
C965 C964 1.390 1_545 S
C965 C966 1.357 1_544 S
C966 C962 1.370 . S
C966 C965 1.357 1_566 S
C966 H985 0.951 . S
Zn967 N961 2.020 . S
Zn967 O970 2.025 1_554 S
Zn967 O975 2.024 1_554 S
Zn967 O977 2.039 . S
Zn967 O979 2.034 . S
O968 C952 1.251 . S
O968 Zn959 2.039 1_556 S
C969 O974 1.246 . S
C969 O975 1.249 . S
O970 C952 1.254 . S
O970 Zn967 2.025 1_556 S
H971 C963 0.952 . S
H972 C954 0.952 . S
H973 C962 0.948 . S
O974 Zn959 2.034 1_556 S
O974 C969 1.246 . S
O975 Zn967 2.024 1_556 S
O975 C969 1.249 . S
H976 C958 0.948 . S
O977 Zn967 2.039 . S
O977 C981 1.251 . S
O978 Zn959 2.025 . S
O978 C981 1.254 . S
O979 C960 1.246 . S
O979 Zn967 2.034 . S
O980 Zn959 2.024 . S
O980 C960 1.249 . S
C981 O977 1.251 . S
C981 O978 1.254 . S
H982 C955 0.949 . S
H983 C957 0.950 . S
H984 C964 0.949 1_545 S
H985 C966 0.951 . S
C986 O1002 1.251 . S
C986 O1004 1.254 . S
N987 C988 1.333 1_554 S
N987 C992 1.307 . S
N987 Zn993 2.020 . S
C988 N987 1.333 1_556 S
C988 C989 1.379 . S
C988 H1006 0.952 . S
C989 C988 1.379 . S
C989 C990 1.390 1_556 S
C989 H1016 0.949 . S
C990 C989 1.390 1_554 S
C990 C991 1.357 . S
C991 C990 1.357 . S
C991 C992 1.370 . S
C991 H1017 0.950 . S
C992 N987 1.307 . S
C992 C991 1.370 . S
C992 H1010 0.948 . S
Zn993 N987 2.020 . S
Zn993 O1002 2.039 1_554 S
Zn993 O1008 2.034 1_554 S
Zn993 O1012 2.025 . S
Zn993 O1014 2.024 . S
C994 O1013 1.246 . S
C994 O1014 1.249 . S
N995 C996 1.295 1_554 S
N995 C997 1.346 . S
N995 Zn1001 2.020 . S
C996 N995 1.295 1_556 S
C996 C1000 1.370 . S
C996 H1007 0.948 . S
C997 N995 1.346 . S
C997 C998 1.379 . S
C997 H1005 0.952 . S
C998 C997 1.379 . S
C998 C999 1.390 1_455 S
C998 H1018 0.949 1_455 S
C999 C998 1.390 1_655 S
C999 C1000 1.357 1_654 S
C1000 C996 1.370 . S
C1000 C999 1.357 1_456 S
C1000 H1019 0.950 . S
Zn1001 N995 2.020 . S
Zn1001 O1004 2.025 1_554 S
Zn1001 O1009 2.024 1_554 S
Zn1001 O1011 2.039 . S
Zn1001 O1013 2.034 . S
O1002 C986 1.251 . S
O1002 Zn993 2.039 1_556 S
C1003 O1008 1.246 . S
C1003 O1009 1.249 . S
O1004 C986 1.254 . S
O1004 Zn1001 2.025 1_556 S
H1005 C997 0.952 . S
H1006 C988 0.952 . S
H1007 C996 0.948 . S
O1008 Zn993 2.034 1_556 S
O1008 C1003 1.246 . S
O1009 Zn1001 2.024 1_556 S
O1009 C1003 1.249 . S
H1010 C992 0.948 . S
O1011 Zn1001 2.039 . S
O1011 C1015 1.251 . S
O1012 Zn993 2.025 . S
O1012 C1015 1.254 . S
O1013 C994 1.246 . S
O1013 Zn1001 2.034 . S
O1014 Zn993 2.024 . S
O1014 C994 1.249 . S
C1015 O1011 1.251 . S
C1015 O1012 1.254 . S
H1016 C989 0.949 . S
H1017 C991 0.950 . S
H1018 C998 0.949 1_655 S
H1019 C1000 0.950 . S
C1020 O1036 1.251 . S
C1020 O1038 1.254 . S
N1021 C1022 1.333 . S
N1021 C1026 1.307 . S
N1021 Zn1027 2.020 . S
C1022 N1021 1.333 . S
C1022 C1023 1.379 . S
C1022 H1040 0.952 . S
C1023 C1022 1.379 . S
C1023 C1024 1.390 . S
C1023 H1050 0.949 . S
C1024 C1023 1.390 . S
C1024 C1025 1.357 . S
C1025 C1024 1.357 . S
C1025 C1026 1.370 . S
C1025 H1051 0.950 . S
C1026 N1021 1.307 . S
C1026 C1025 1.370 . S
C1026 H1044 0.948 . S
Zn1027 N1021 2.020 . S
Zn1027 O1036 2.039 . S
Zn1027 O1042 2.034 . S
Zn1027 O1046 2.025 . S
Zn1027 O1048 2.024 . S
C1028 O1047 1.246 . S
C1028 O1048 1.249 . S
N1029 C1030 1.307 . S
N1029 C1031 1.333 . S
N1029 Zn1035 2.020 . S
C1030 N1029 1.307 . S
C1030 C1034 1.370 . S
C1030 H1041 0.948 . S
C1031 N1029 1.333 . S
C1031 C1032 1.379 . S
C1031 H1039 0.952 . S
C1032 C1031 1.379 . S
C1032 C1033 1.390 . S
C1032 H1052 0.949 . S
C1033 C1032 1.390 . S
C1033 C1034 1.357 . S
C1034 C1030 1.370 . S
C1034 C1033 1.357 . S
C1034 H1053 0.950 . S
Zn1035 N1029 2.020 . S
Zn1035 O1038 2.025 . S
Zn1035 O1043 2.024 . S
Zn1035 O1045 2.039 . S
Zn1035 O1047 2.034 . S
O1036 C1020 1.251 . S
O1036 Zn1027 2.039 . S
C1037 O1042 1.246 . S
C1037 O1043 1.249 . S
O1038 C1020 1.254 . S
O1038 Zn1035 2.025 . S
H1039 C1031 0.952 . S
H1040 C1022 0.952 . S
H1041 C1030 0.948 . S
O1042 Zn1027 2.034 . S
O1042 C1037 1.246 . S
O1043 Zn1035 2.024 . S
O1043 C1037 1.249 . S
H1044 C1026 0.948 . S
O1045 Zn1035 2.039 . S
O1045 C1049 1.251 . S
O1046 Zn1027 2.025 . S
O1046 C1049 1.254 . S
O1047 C1028 1.246 . S
O1047 Zn1035 2.034 . S
O1048 Zn1027 2.024 . S
O1048 C1028 1.249 . S
C1049 O1045 1.251 . S
C1049 O1046 1.254 . S
H1050 C1023 0.949 . S
H1051 C1025 0.950 . S
H1052 C1032 0.949 . S
H1053 C1034 0.950 . S
C1054 O1070 1.251 . S
C1054 O1072 1.254 . S
N1055 C1056 1.333 . S
N1055 C1060 1.307 . S
N1055 Zn1061 2.020 . S
C1056 N1055 1.333 . S
C1056 C1057 1.379 . S
C1056 H1074 0.952 . S
C1057 C1056 1.379 . S
C1057 C1058 1.390 1_565 S
C1057 H1084 0.949 1_565 S
C1058 C1057 1.390 1_545 S
C1058 C1059 1.357 1_545 S
C1059 C1058 1.357 1_565 S
C1059 C1060 1.370 . S
C1059 H1085 0.950 . S
C1060 N1055 1.307 . S
C1060 C1059 1.370 . S
C1060 H1078 0.948 . S
Zn1061 N1055 2.020 . S
Zn1061 O1070 2.039 . S
Zn1061 O1076 2.034 . S
Zn1061 O1080 2.025 . S
Zn1061 O1082 2.024 . S
C1062 O1081 1.246 . S
C1062 O1082 1.249 . S
N1063 C1064 1.307 . S
N1063 C1065 1.333 . S
N1063 Zn1069 2.020 . S
C1064 N1063 1.307 . S
C1064 C1068 1.370 . S
C1064 H1075 0.948 . S
C1065 N1063 1.333 . S
C1065 C1066 1.379 . S
C1065 H1073 0.952 . S
C1066 C1065 1.379 . S
C1066 C1067 1.390 . S
C1066 H1086 0.949 . S
C1067 C1066 1.390 . S
C1067 C1068 1.357 . S
C1068 C1064 1.370 . S
C1068 C1067 1.357 . S
C1068 H1087 0.950 . S
Zn1069 N1063 2.020 . S
Zn1069 O1072 2.025 . S
Zn1069 O1077 2.024 . S
Zn1069 O1079 2.039 . S
Zn1069 O1081 2.034 . S
O1070 C1054 1.251 . S
O1070 Zn1061 2.039 . S
C1071 O1076 1.246 . S
C1071 O1077 1.249 . S
O1072 C1054 1.254 . S
O1072 Zn1069 2.025 . S
H1073 C1065 0.952 . S
H1074 C1056 0.952 . S
H1075 C1064 0.948 . S
O1076 Zn1061 2.034 . S
O1076 C1071 1.246 . S
O1077 Zn1069 2.024 . S
O1077 C1071 1.249 . S
H1078 C1060 0.948 . S
O1079 Zn1069 2.039 . S
O1079 C1083 1.251 . S
O1080 Zn1061 2.025 . S
O1080 C1083 1.254 . S
O1081 C1062 1.246 . S
O1081 Zn1069 2.034 . S
O1082 Zn1061 2.024 . S
O1082 C1062 1.249 . S
C1083 O1079 1.251 . S
C1083 O1080 1.254 . S
H1084 C1057 0.949 1_545 S
H1085 C1059 0.950 . S
H1086 C1066 0.949 . S
H1087 C1068 0.950 . S
C1088 O1104 1.251 . S
C1088 O1106 1.254 . S
N1089 C1090 1.333 . S
N1089 C1094 1.307 . S
N1089 Zn1095 2.020 . S
C1090 N1089 1.333 . S
C1090 C1091 1.379 . S
C1090 H1108 0.952 . S
C1091 C1090 1.379 . S
C1091 C1092 1.390 1_455 S
C1091 H1118 0.949 1_455 S
C1092 C1091 1.390 1_655 S
C1092 C1093 1.357 1_655 S
C1093 C1092 1.357 1_455 S
C1093 C1094 1.370 . S
C1093 H1119 0.951 . S
C1094 N1089 1.307 . S
C1094 C1093 1.370 . S
C1094 H1112 0.948 . S
Zn1095 N1089 2.020 . S
Zn1095 O1104 2.039 . S
Zn1095 O1110 2.034 . S
Zn1095 O1114 2.025 . S
Zn1095 O1116 2.024 . S
C1096 O1115 1.246 . S
C1096 O1116 1.249 . S
N1097 C1098 1.307 . S
N1097 C1099 1.333 . S
N1097 Zn1103 2.020 . S
C1098 N1097 1.307 . S
C1098 C1102 1.370 . S
C1098 H1109 0.948 . S
C1099 N1097 1.333 . S
C1099 C1100 1.379 . S
C1099 H1107 0.952 . S
C1100 C1099 1.379 . S
C1100 C1101 1.390 . S
C1100 H1120 0.949 . S
C1101 C1100 1.390 . S
C1101 C1102 1.357 . S
C1102 C1098 1.370 . S
C1102 C1101 1.357 . S
C1102 H1121 0.950 . S
Zn1103 N1097 2.020 . S
Zn1103 O1106 2.025 . S
Zn1103 O1111 2.024 . S
Zn1103 O1113 2.039 . S
Zn1103 O1115 2.034 . S
O1104 C1088 1.251 . S
O1104 Zn1095 2.039 . S
C1105 O1110 1.246 . S
C1105 O1111 1.249 . S
O1106 C1088 1.254 . S
O1106 Zn1103 2.025 . S
H1107 C1099 0.952 . S
H1108 C1090 0.952 . S
H1109 C1098 0.948 . S
O1110 Zn1095 2.034 . S
O1110 C1105 1.246 . S
O1111 Zn1103 2.024 . S
O1111 C1105 1.249 . S
H1112 C1094 0.948 . S
O1113 Zn1103 2.039 . S
O1113 C1117 1.251 . S
O1114 Zn1095 2.025 . S
O1114 C1117 1.254 . S
O1115 C1096 1.246 . S
O1115 Zn1103 2.034 . S
O1116 Zn1095 2.024 . S
O1116 C1096 1.249 . S
C1117 O1113 1.251 . S
C1117 O1114 1.254 . S
H1118 C1091 0.949 1_655 S
H1119 C1093 0.951 . S
H1120 C1100 0.949 . S
H1121 C1102 0.950 . S
C1122 O1138 1.251 . S
C1122 O1140 1.254 . S
N1123 C1124 1.344 . S
N1123 C1128 1.307 1_455 S
N1123 Zn1129 2.020 . S
C1124 N1123 1.344 . S
C1124 C1125 1.356 1_455 S
C1124 H1142 0.965 . S
C1125 C1124 1.356 1_655 S
C1125 C1126 1.390 . S
C1125 H1152 0.949 . S
C1126 C1125 1.390 . S
C1126 C1127 1.357 . S
C1127 C1126 1.357 . S
C1127 C1128 1.370 . S
C1127 H1153 0.950 . S
C1128 N1123 1.307 1_655 S
C1128 C1127 1.370 . S
C1128 H1146 0.948 . S
Zn1129 N1123 2.020 . S
Zn1129 O1138 2.039 . S
Zn1129 O1144 2.034 . S
Zn1129 O1148 2.025 . S
Zn1129 O1150 2.024 . S
C1130 O1149 1.246 . S
C1130 O1150 1.249 . S
N1131 C1132 1.307 . S
N1131 C1133 1.333 . S
N1131 Zn1137 2.020 . S
C1132 N1131 1.307 . S
C1132 C1136 1.370 . S
C1132 H1143 0.948 . S
C1133 N1131 1.333 . S
C1133 C1134 1.379 . S
C1133 H1141 0.952 . S
C1134 C1133 1.379 . S
C1134 C1135 1.390 . S
C1134 H1154 0.949 . S
C1135 C1134 1.390 . S
C1135 C1136 1.357 . S
C1136 C1132 1.370 . S
C1136 C1135 1.357 . S
C1136 H1155 0.950 . S
Zn1137 N1131 2.020 . S
Zn1137 O1140 2.025 . S
Zn1137 O1145 2.024 . S
Zn1137 O1147 2.039 . S
Zn1137 O1149 2.034 . S
O1138 C1122 1.251 . S
O1138 Zn1129 2.039 . S
C1139 O1144 1.246 . S
C1139 O1145 1.249 . S
O1140 C1122 1.254 . S
O1140 Zn1137 2.025 . S
H1141 C1133 0.952 . S
H1142 C1124 0.965 . S
H1143 C1132 0.948 . S
O1144 Zn1129 2.034 . S
O1144 C1139 1.246 . S
O1145 Zn1137 2.024 . S
O1145 C1139 1.249 . S
H1146 C1128 0.948 . S
O1147 Zn1137 2.039 . S
O1147 C1151 1.251 . S
O1148 Zn1129 2.025 . S
O1148 C1151 1.254 . S
O1149 C1130 1.246 . S
O1149 Zn1137 2.034 . S
O1150 Zn1129 2.024 . S
O1150 C1130 1.249 . S
C1151 O1147 1.251 . S
C1151 O1148 1.254 . S
H1152 C1125 0.949 . S
H1153 C1127 0.950 . S
H1154 C1134 0.949 . S
H1155 C1136 0.950 . S
C1156 O1172 1.251 . S
C1156 O1174 1.254 . S
N1157 C1158 1.333 . S
N1157 C1162 1.307 . S
N1157 Zn1163 2.020 . S
C1158 N1157 1.333 . S
C1158 C1159 1.379 . S
C1158 H1176 0.952 . S
C1159 C1158 1.379 . S
C1159 C1160 1.390 . S
C1159 H1186 0.949 . S
C1160 C1159 1.390 . S
C1160 C1161 1.357 . S
C1161 C1160 1.357 . S
C1161 C1162 1.370 . S
C1161 H1187 0.950 . S
C1162 N1157 1.307 . S
C1162 C1161 1.370 . S
C1162 H1180 0.948 . S
Zn1163 N1157 2.020 . S
Zn1163 O1172 2.039 . S
Zn1163 O1178 2.034 . S
Zn1163 O1182 2.025 . S
Zn1163 O1184 2.024 . S
C1164 O1183 1.246 . S
C1164 O1184 1.249 . S
N1165 C1166 1.307 . S
N1165 C1167 1.333 . S
N1165 Zn1171 2.020 . S
C1166 N1165 1.307 . S
C1166 C1170 1.370 . S
C1166 H1177 0.948 . S
C1167 N1165 1.333 . S
C1167 C1168 1.379 . S
C1167 H1175 0.952 . S
C1168 C1167 1.379 . S
C1168 C1169 1.390 . S
C1168 H1188 0.949 . S
C1169 C1168 1.390 . S
C1169 C1170 1.357 . S
C1170 C1166 1.370 . S
C1170 C1169 1.357 . S
C1170 H1189 0.950 . S
Zn1171 N1165 2.020 . S
Zn1171 O1174 2.025 . S
Zn1171 O1179 2.024 . S
Zn1171 O1181 2.039 . S
Zn1171 O1183 2.034 . S
O1172 C1156 1.251 . S
O1172 Zn1163 2.039 . S
C1173 O1178 1.246 . S
C1173 O1179 1.249 . S
O1174 C1156 1.254 . S
O1174 Zn1171 2.025 . S
H1175 C1167 0.952 . S
H1176 C1158 0.952 . S
H1177 C1166 0.948 . S
O1178 Zn1163 2.034 . S
O1178 C1173 1.246 . S
O1179 Zn1171 2.024 . S
O1179 C1173 1.249 . S
H1180 C1162 0.948 . S
O1181 Zn1171 2.039 . S
O1181 C1185 1.251 . S
O1182 Zn1163 2.025 . S
O1182 C1185 1.254 . S
O1183 C1164 1.246 . S
O1183 Zn1171 2.034 . S
O1184 Zn1163 2.024 . S
O1184 C1164 1.249 . S
C1185 O1181 1.251 . S
C1185 O1182 1.254 . S
H1186 C1159 0.949 . S
H1187 C1161 0.950 . S
H1188 C1168 0.949 . S
H1189 C1170 0.950 . S
C1190 O1206 1.251 . S
C1190 O1208 1.254 . S
N1191 C1192 1.333 . S
N1191 C1196 1.307 1_565 S
N1191 Zn1197 2.020 . S
C1192 N1191 1.333 . S
C1192 C1193 1.375 1_565 S
C1192 H1210 0.957 . S
C1193 C1192 1.375 1_545 S
C1193 C1194 1.390 . S
C1193 H1220 0.949 . S
C1194 C1193 1.390 . S
C1194 C1195 1.357 . S
C1195 C1194 1.357 . S
C1195 C1196 1.370 . S
C1195 H1221 0.950 . S
C1196 N1191 1.307 1_545 S
C1196 C1195 1.370 . S
C1196 H1214 0.948 . S
Zn1197 N1191 2.020 . S
Zn1197 O1206 2.039 . S
Zn1197 O1212 2.034 . S
Zn1197 O1216 2.025 . S
Zn1197 O1218 2.024 . S
C1198 O1217 1.246 . S
C1198 O1218 1.249 . S
N1199 C1200 1.307 . S
N1199 C1201 1.333 . S
N1199 Zn1205 2.020 . S
C1200 N1199 1.307 . S
C1200 C1204 1.370 . S
C1200 H1211 0.948 . S
C1201 N1199 1.333 . S
C1201 C1202 1.379 . S
C1201 H1209 0.952 . S
C1202 C1201 1.379 . S
C1202 C1203 1.390 . S
C1202 H1222 0.949 . S
C1203 C1202 1.390 . S
C1203 C1204 1.357 . S
C1204 C1200 1.370 . S
C1204 C1203 1.357 . S
C1204 H1223 0.950 . S
Zn1205 N1199 2.020 . S
Zn1205 O1208 2.025 . S
Zn1205 O1213 2.024 . S
Zn1205 O1215 2.039 . S
Zn1205 O1217 2.034 . S
O1206 C1190 1.251 . S
O1206 Zn1197 2.039 . S
C1207 O1212 1.246 . S
C1207 O1213 1.249 . S
O1208 C1190 1.254 . S
O1208 Zn1205 2.025 . S
H1209 C1201 0.952 . S
H1210 C1192 0.957 . S
H1211 C1200 0.948 . S
O1212 Zn1197 2.034 . S
O1212 C1207 1.246 . S
O1213 Zn1205 2.024 . S
O1213 C1207 1.249 . S
H1214 C1196 0.948 . S
O1215 Zn1205 2.039 . S
O1215 C1219 1.251 . S
O1216 Zn1197 2.025 . S
O1216 C1219 1.254 . S
O1217 C1198 1.246 . S
O1217 Zn1205 2.034 . S
O1218 Zn1197 2.024 . S
O1218 C1198 1.249 . S
C1219 O1215 1.251 . S
C1219 O1216 1.254 . S
H1220 C1193 0.949 . S
H1221 C1195 0.950 . S
H1222 C1202 0.949 . S
H1223 C1204 0.950 . S
C1224 C1225 1.387 . S
C1224 H1228 0.950 . S
C1224 C1233 1.390 . S
C1225 C1224 1.387 . S
C1225 C1227 1.387 . S
H1226 C1233 0.950 . S
C1227 C1225 1.387 . S
C1227 C1229 1.390 . S
C1227 H1231 0.950 . S
H1228 C1224 0.950 . S
C1229 C1227 1.390 . S
C1229 C1230 1.387 . S
C1229 H1232 0.950 . S
C1230 C1229 1.387 . S
C1230 C1233 1.387 . S
H1231 C1227 0.950 . S
H1232 C1229 0.950 . S
C1233 C1224 1.390 . S
C1233 H1226 0.950 . S
C1233 C1230 1.387 . S
C1234 C1235 1.387 . S
C1234 H1238 0.950 . S
C1234 C1243 1.390 . S
C1235 C1234 1.387 . S
C1235 C1237 1.387 . S
H1236 C1243 0.950 . S
C1237 C1235 1.387 . S
C1237 C1239 1.390 . S
C1237 H1241 0.950 . S
H1238 C1234 0.950 . S
C1239 C1237 1.390 . S
C1239 C1240 1.387 . S
C1239 H1242 0.950 . S
C1240 C1239 1.387 . S
C1240 C1243 1.387 . S
H1241 C1237 0.950 . S
H1242 C1239 0.950 . S
C1243 C1234 1.390 . S
C1243 H1236 0.950 . S
C1243 C1240 1.387 . S
C1244 C1245 1.387 . S
C1244 H1248 0.950 . S
C1244 C1253 1.390 . S
C1245 C1244 1.387 . S
C1245 C1247 1.387 . S
H1246 C1253 0.950 . S
C1247 C1245 1.387 . S
C1247 C1249 1.390 . S
C1247 H1251 0.950 . S
H1248 C1244 0.950 . S
C1249 C1247 1.390 . S
C1249 C1250 1.387 . S
C1249 H1252 0.950 . S
C1250 C1249 1.387 . S
C1250 C1253 1.387 . S
H1251 C1247 0.950 . S
H1252 C1249 0.950 . S
C1253 C1244 1.390 . S
C1253 H1246 0.950 . S
C1253 C1250 1.387 . S
C1254 C1255 1.387 . S
C1254 H1258 0.950 . S
C1254 C1263 1.390 . S
C1255 C1254 1.387 . S
C1255 C1257 1.387 . S
H1256 C1263 0.950 1_655 S
C1257 C1255 1.387 . S
C1257 C1259 1.390 . S
C1257 H1261 0.950 . S
H1258 C1254 0.950 . S
C1259 C1257 1.390 . S
C1259 C1260 1.387 . S
C1259 H1262 0.950 . S
C1260 C1259 1.387 . S
C1260 C1263 1.387 . S
H1261 C1257 0.950 . S
H1262 C1259 0.950 . S
C1263 C1254 1.390 . S
C1263 H1256 0.950 1_455 S
C1263 C1260 1.387 . S
C1264 C1265 1.387 . S
C1264 H1268 0.950 . S
C1264 C1273 1.390 . S
C1265 C1264 1.387 . S
C1265 C1267 1.387 . S
H1266 C1273 0.950 . S
C1267 C1265 1.387 . S
C1267 C1269 1.390 . S
C1267 H1271 0.950 . S
H1268 C1264 0.950 . S
C1269 C1267 1.390 . S
C1269 C1270 1.387 . S
C1269 H1272 0.950 . S
C1270 C1269 1.387 . S
C1270 C1273 1.387 . S
H1271 C1267 0.950 . S
H1272 C1269 0.950 . S
C1273 C1264 1.390 . S
C1273 H1266 0.950 . S
C1273 C1270 1.387 . S
C1274 C1275 1.387 . S
C1274 H1278 0.950 . S
C1274 C1283 1.390 . S
C1275 C1274 1.387 . S
C1275 C1277 1.387 . S
H1276 C1283 0.950 . S
C1277 C1275 1.387 . S
C1277 C1279 1.390 . S
C1277 H1281 0.950 . S
H1278 C1274 0.950 . S
C1279 C1277 1.390 . S
C1279 C1280 1.387 . S
C1279 H1282 0.950 . S
C1280 C1279 1.387 . S
C1280 C1283 1.387 . S
H1281 C1277 0.950 . S
H1282 C1279 0.950 . S
C1283 C1274 1.390 . S
C1283 H1276 0.950 . S
C1283 C1280 1.387 . S
C1284 C1285 1.387 . S
C1284 H1288 0.950 . S
C1284 C1293 1.390 . S
C1285 C1284 1.387 . S
C1285 C1287 1.387 . S
H1286 C1293 0.950 . S
C1287 C1285 1.387 . S
C1287 C1289 1.390 . S
C1287 H1291 0.950 . S
H1288 C1284 0.950 . S
C1289 C1287 1.390 . S
C1289 C1290 1.387 . S
C1289 H1292 0.950 . S
C1290 C1289 1.387 . S
C1290 C1293 1.387 . S
H1291 C1287 0.950 . S
H1292 C1289 0.950 . S
C1293 C1284 1.390 . S
C1293 H1286 0.950 . S
C1293 C1290 1.387 . S
C1294 C1295 1.387 . S
C1294 H1298 0.950 . S
C1294 C1303 1.390 . S
C1295 C1294 1.387 . S
C1295 C1297 1.387 . S
H1296 C1303 0.950 . S
C1297 C1295 1.387 . S
C1297 C1299 1.390 . S
C1297 H1301 0.950 . S
H1298 C1294 0.950 . S
C1299 C1297 1.390 . S
C1299 C1300 1.387 . S
C1299 H1302 0.950 . S
C1300 C1299 1.387 . S
C1300 C1303 1.387 . S
H1301 C1297 0.950 . S
H1302 C1299 0.950 . S
C1303 C1294 1.390 . S
C1303 H1296 0.950 . S
C1303 C1300 1.387 . S
C1304 C1305 1.387 . S
C1304 H1308 0.950 . S
C1304 C1313 1.390 . S
C1305 C1304 1.387 . S
C1305 C1307 1.387 . S
H1306 C1313 0.950 . S
C1307 C1305 1.387 . S
C1307 C1309 1.390 . S
C1307 H1311 0.950 . S
H1308 C1304 0.950 . S
C1309 C1307 1.390 . S
C1309 C1310 1.387 . S
C1309 H1312 0.950 . S
C1310 C1309 1.387 . S
C1310 C1313 1.387 . S
H1311 C1307 0.950 . S
H1312 C1309 0.950 . S
C1313 C1304 1.390 . S
C1313 H1306 0.950 . S
C1313 C1310 1.387 . S
C1314 C1315 1.387 . S
C1314 H1318 0.950 . S
C1314 C1323 1.390 . S
C1315 C1314 1.387 . S
C1315 C1317 1.387 . S
H1316 C1323 0.950 1_455 S
C1317 C1315 1.387 . S
C1317 C1319 1.390 . S
C1317 H1321 0.950 . S
H1318 C1314 0.950 . S
C1319 C1317 1.390 . S
C1319 C1320 1.387 . S
C1319 H1322 0.950 . S
C1320 C1319 1.387 . S
C1320 C1323 1.387 . S
H1321 C1317 0.950 . S
H1322 C1319 0.950 . S
C1323 C1314 1.390 . S
C1323 H1316 0.950 1_655 S
C1323 C1320 1.387 . S
C1324 C1325 1.387 . S
C1324 H1328 0.950 . S
C1324 C1333 1.390 . S
C1325 C1324 1.387 . S
C1325 C1327 1.387 . S
H1326 C1333 0.950 . S
C1327 C1325 1.387 . S
C1327 C1329 1.390 . S
C1327 H1331 0.950 . S
H1328 C1324 0.950 . S
C1329 C1327 1.390 . S
C1329 C1330 1.387 . S
C1329 H1332 0.950 . S
C1330 C1329 1.387 . S
C1330 C1333 1.387 . S
H1331 C1327 0.950 . S
H1332 C1329 0.950 . S
C1333 C1324 1.390 . S
C1333 H1326 0.950 . S
C1333 C1330 1.387 . S
C1334 C1335 1.387 . S
C1334 H1338 0.950 . S
C1334 C1343 1.390 . S
C1335 C1334 1.387 . S
C1335 C1337 1.387 . S
H1336 C1343 0.950 . S
C1337 C1335 1.387 . S
C1337 C1339 1.390 . S
C1337 H1341 0.950 . S
H1338 C1334 0.950 . S
C1339 C1337 1.390 . S
C1339 C1340 1.387 . S
C1339 H1342 0.950 . S
C1340 C1339 1.387 . S
C1340 C1343 1.387 . S
H1341 C1337 0.950 . S
H1342 C1339 0.950 . S
C1343 C1334 1.390 . S
C1343 H1336 0.950 . S
C1343 C1340 1.387 . S
C1344 C1345 1.387 . S
C1344 H1348 0.950 . S
C1344 C1353 1.390 . S
C1345 C1344 1.387 . S
C1345 C1347 1.387 . S
H1346 C1353 0.950 . S
C1347 C1345 1.387 . S
C1347 C1349 1.390 . S
C1347 H1351 0.950 . S
H1348 C1344 0.950 . S
C1349 C1347 1.390 . S
C1349 C1350 1.387 . S
C1349 H1352 0.950 . S
C1350 C1349 1.387 . S
C1350 C1353 1.387 . S
H1351 C1347 0.950 . S
H1352 C1349 0.950 . S
C1353 C1344 1.390 . S
C1353 H1346 0.950 . S
C1353 C1350 1.387 . S
C1354 C1355 1.387 . S
C1354 H1358 0.950 . S
C1354 C1363 1.390 . S
C1355 C1354 1.387 . S
C1355 C1357 1.387 . S
H1356 C1363 0.950 . S
C1357 C1355 1.387 . S
C1357 C1359 1.390 . S
C1357 H1361 0.950 . S
H1358 C1354 0.950 . S
C1359 C1357 1.390 . S
C1359 C1360 1.387 . S
C1359 H1362 0.950 . S
C1360 C1359 1.387 . S
C1360 C1363 1.387 . S
H1361 C1357 0.950 . S
H1362 C1359 0.950 . S
C1363 C1354 1.390 . S
C1363 H1356 0.950 . S
C1363 C1360 1.387 . S
C1364 C1365 1.387 . S
C1364 H1368 0.950 . S
C1364 C1373 1.390 . S
C1365 C1364 1.387 . S
C1365 C1367 1.387 . S
H1366 C1373 0.950 . S
C1367 C1365 1.387 . S
C1367 C1369 1.390 . S
C1367 H1371 0.950 . S
H1368 C1364 0.950 . S
C1369 C1367 1.390 . S
C1369 C1370 1.387 . S
C1369 H1372 0.950 . S
C1370 C1369 1.387 . S
C1370 C1373 1.387 . S
H1371 C1367 0.950 . S
H1372 C1369 0.950 . S
C1373 C1364 1.390 . S
C1373 H1366 0.950 . S
C1373 C1370 1.387 . S
C1374 C1375 1.387 . S
C1374 H1378 0.950 . S
C1374 C1383 1.390 . S
C1375 C1374 1.387 . S
C1375 C1377 1.387 . S
H1376 C1383 0.950 . S
C1377 C1375 1.387 . S
C1377 C1379 1.390 . S
C1377 H1381 0.950 . S
H1378 C1374 0.950 . S
C1379 C1377 1.390 . S
C1379 C1380 1.387 . S
C1379 H1382 0.950 . S
C1380 C1379 1.387 . S
C1380 C1383 1.387 . S
H1381 C1377 0.950 . S
H1382 C1379 0.950 . S
C1383 C1374 1.390 . S
C1383 H1376 0.950 . S
C1383 C1380 1.387 . S
C1384 C1385 1.387 . S
C1384 H1388 0.950 . S
C1384 C1393 1.390 . S
C1385 C1384 1.387 . S
C1385 C1387 1.387 . S
H1386 C1393 0.950 . S
C1387 C1385 1.387 . S
C1387 C1389 1.390 . S
C1387 H1391 0.950 . S
H1388 C1384 0.950 . S
C1389 C1387 1.390 . S
C1389 C1390 1.387 . S
C1389 H1392 0.950 . S
C1390 C1389 1.387 . S
C1390 C1393 1.387 . S
H1391 C1387 0.950 . S
H1392 C1389 0.950 . S
C1393 C1384 1.390 . S
C1393 H1386 0.950 . S
C1393 C1390 1.387 . S
C1394 C1395 1.387 . S
C1394 H1398 0.950 . S
C1394 C1403 1.390 . S
C1395 C1394 1.387 . S
C1395 C1397 1.387 . S
H1396 C1403 0.950 . S
C1397 C1395 1.387 . S
C1397 C1399 1.390 . S
C1397 H1401 0.950 . S
H1398 C1394 0.950 . S
C1399 C1397 1.390 . S
C1399 C1400 1.387 . S
C1399 H1402 0.950 . S
C1400 C1399 1.387 . S
C1400 C1403 1.387 . S
H1401 C1397 0.950 . S
H1402 C1399 0.950 . S
C1403 C1394 1.390 . S
C1403 H1396 0.950 . S
C1403 C1400 1.387 . S
C1404 C1405 1.387 . S
C1404 H1408 0.950 . S
C1404 C1413 1.390 . S
C1405 C1404 1.387 . S
C1405 C1407 1.387 . S
H1406 C1413 0.950 . S
C1407 C1405 1.387 . S
C1407 C1409 1.390 . S
C1407 H1411 0.950 . S
H1408 C1404 0.950 . S
C1409 C1407 1.390 . S
C1409 C1410 1.387 . S
C1409 H1412 0.950 . S
C1410 C1409 1.387 . S
C1410 C1413 1.387 . S
H1411 C1407 0.950 . S
H1412 C1409 0.950 . S
C1413 C1404 1.390 . S
C1413 H1406 0.950 . S
C1413 C1410 1.387 . S
C1414 C1415 1.387 . S
C1414 H1418 0.950 . S
C1414 C1423 1.390 . S
C1415 C1414 1.387 . S
C1415 C1417 1.387 . S
H1416 C1423 0.950 . S
C1417 C1415 1.387 . S
C1417 C1419 1.390 . S
C1417 H1421 0.950 . S
H1418 C1414 0.950 . S
C1419 C1417 1.390 . S
C1419 C1420 1.387 . S
C1419 H1422 0.950 . S
C1420 C1419 1.387 . S
C1420 C1423 1.387 . S
H1421 C1417 0.950 . S
H1422 C1419 0.950 . S
C1423 C1414 1.390 . S
C1423 H1416 0.950 . S
C1423 C1420 1.387 . S
C1424 C1425 1.387 . S
C1424 H1428 0.950 . S
C1424 C1433 1.390 . S
C1425 C1424 1.387 . S
C1425 C1427 1.387 . S
H1426 C1433 0.950 . S
C1427 C1425 1.387 . S
C1427 C1429 1.390 . S
C1427 H1431 0.950 . S
H1428 C1424 0.950 . S
C1429 C1427 1.390 . S
C1429 C1430 1.387 . S
C1429 H1432 0.950 . S
C1430 C1429 1.387 . S
C1430 C1433 1.387 . S
H1431 C1427 0.950 . S
H1432 C1429 0.950 . S
C1433 C1424 1.390 . S
C1433 H1426 0.950 . S
C1433 C1430 1.387 . S
C1434 C1435 1.387 1_554 S
C1434 H1438 0.950 . S
C1434 C1443 1.390 . S
C1435 C1434 1.387 1_556 S
C1435 C1437 1.387 . S
H1436 C1443 0.950 . S
C1437 C1435 1.387 . S
C1437 C1439 1.390 . S
C1437 H1441 0.950 . S
H1438 C1434 0.950 . S
C1439 C1437 1.390 . S
C1439 C1440 1.387 . S
C1439 H1442 0.950 . S
C1440 C1439 1.387 . S
C1440 C1443 1.387 1_556 S
H1441 C1437 0.950 . S
H1442 C1439 0.950 . S
C1443 C1434 1.390 . S
C1443 H1436 0.950 . S
C1443 C1440 1.387 1_554 S
C1444 C1445 1.387 1_554 S
C1444 H1448 0.950 . S
C1444 C1453 1.390 . S
C1445 C1444 1.387 1_556 S
C1445 C1447 1.387 . S
H1446 C1453 0.950 . S
C1447 C1445 1.387 . S
C1447 C1449 1.390 . S
C1447 H1451 0.950 . S
H1448 C1444 0.950 . S
C1449 C1447 1.390 . S
C1449 C1450 1.387 . S
C1449 H1452 0.950 . S
C1450 C1449 1.387 . S
C1450 C1453 1.387 1_556 S
H1451 C1447 0.950 . S
H1452 C1449 0.950 . S
C1453 C1444 1.390 . S
C1453 H1446 0.950 . S
C1453 C1450 1.387 1_554 S
C1454 C1455 1.387 1_554 S
C1454 H1458 0.950 . S
C1454 C1463 1.390 . S
C1455 C1454 1.387 1_556 S
C1455 C1457 1.387 . S
H1456 C1463 0.950 . S
C1457 C1455 1.387 . S
C1457 C1459 1.390 . S
C1457 H1461 0.950 . S
H1458 C1454 0.950 . S
C1459 C1457 1.390 . S
C1459 C1460 1.387 . S
C1459 H1462 0.950 . S
C1460 C1459 1.387 . S
C1460 C1463 1.387 1_556 S
H1461 C1457 0.950 . S
H1462 C1459 0.950 . S
C1463 C1454 1.390 . S
C1463 H1456 0.950 . S
C1463 C1460 1.387 1_554 S
C1464 C1465 1.387 . S
C1464 H1468 0.950 . S
C1464 C1473 1.390 . S
C1465 C1464 1.387 . S
C1465 C1467 1.387 . S
H1466 C1473 0.950 . S
C1467 C1465 1.387 . S
C1467 C1469 1.390 . S
C1467 H1471 0.950 . S
H1468 C1464 0.950 . S
C1469 C1467 1.390 . S
C1469 C1470 1.387 . S
C1469 H1472 0.950 . S
C1470 C1469 1.387 . S
C1470 C1473 1.387 . S
H1471 C1467 0.950 . S
H1472 C1469 0.950 . S
C1473 C1464 1.390 . S
C1473 H1466 0.950 . S
C1473 C1470 1.387 . S
C1474 C1475 1.387 . S
C1474 H1478 0.950 . S
C1474 C1483 1.390 . S
C1475 C1474 1.387 . S
C1475 C1477 1.387 . S
H1476 C1483 0.950 . S
C1477 C1475 1.387 . S
C1477 C1479 1.390 . S
C1477 H1481 0.950 . S
H1478 C1474 0.950 . S
C1479 C1477 1.390 . S
C1479 C1480 1.387 . S
C1479 H1482 0.950 . S
C1480 C1479 1.387 . S
C1480 C1483 1.387 . S
H1481 C1477 0.950 . S
H1482 C1479 0.950 . S
C1483 C1474 1.390 . S
C1483 H1476 0.950 . S
C1483 C1480 1.387 . S
C1484 C1485 1.387 . S
C1484 H1488 0.950 . S
C1484 C1493 1.390 . S
C1485 C1484 1.387 . S
C1485 C1487 1.387 . S
H1486 C1493 0.950 . S
C1487 C1485 1.387 . S
C1487 C1489 1.390 . S
C1487 H1491 0.950 . S
H1488 C1484 0.950 . S
C1489 C1487 1.390 . S
C1489 C1490 1.387 . S
C1489 H1492 0.950 . S
C1490 C1489 1.387 . S
C1490 C1493 1.387 . S
H1491 C1487 0.950 . S
H1492 C1489 0.950 . S
C1493 C1484 1.390 . S
C1493 H1486 0.950 . S
C1493 C1490 1.387 . S
C1494 C1495 1.387 1_556 S
C1494 H1498 0.950 . S
C1494 C1503 1.390 . S
C1495 C1494 1.387 1_554 S
C1495 C1497 1.387 . S
H1496 C1503 0.950 . S
C1497 C1495 1.387 . S
C1497 C1499 1.390 . S
C1497 H1501 0.950 . S
H1498 C1494 0.950 . S
C1499 C1497 1.390 . S
C1499 C1500 1.387 . S
C1499 H1502 0.950 . S
C1500 C1499 1.387 . S
C1500 C1503 1.387 1_554 S
H1501 C1497 0.950 . S
H1502 C1499 0.950 . S
C1503 C1494 1.390 . S
C1503 H1496 0.950 . S
C1503 C1500 1.387 1_556 S
C1504 C1505 1.387 . S
C1504 H1508 0.950 . S
C1504 C1513 1.390 . S
C1505 C1504 1.387 . S
C1505 C1507 1.387 1_554 S
H1506 C1513 0.950 . S
C1507 C1505 1.387 1_556 S
C1507 C1509 1.390 . S
C1507 H1511 0.950 . S
H1508 C1504 0.950 . S
C1509 C1507 1.390 . S
C1509 C1510 1.387 1_556 S
C1509 H1512 0.950 . S
C1510 C1509 1.387 1_554 S
C1510 C1513 1.387 . S
H1511 C1507 0.950 . S
H1512 C1509 0.950 . S
C1513 C1504 1.390 . S
C1513 H1506 0.950 . S
C1513 C1510 1.387 . S
C1514 C1515 1.387 . S
C1514 H1518 0.950 . S
C1514 C1523 1.390 . S
C1515 C1514 1.387 . S
C1515 C1517 1.387 1_554 S
H1516 C1523 0.950 . S
C1517 C1515 1.387 1_556 S
C1517 C1519 1.390 . S
C1517 H1521 0.950 . S
H1518 C1514 0.950 . S
C1519 C1517 1.390 . S
C1519 C1520 1.387 1_556 S
C1519 H1522 0.950 . S
C1520 C1519 1.387 1_554 S
C1520 C1523 1.387 . S
H1521 C1517 0.950 . S
H1522 C1519 0.950 . S
C1523 C1514 1.390 . S
C1523 H1516 0.950 . S
C1523 C1520 1.387 . S
C1524 C1525 1.387 . S
C1524 H1528 0.950 . S
C1524 C1533 1.390 . S
C1525 C1524 1.387 . S
C1525 C1527 1.387 . S
H1526 C1533 0.950 . S
C1527 C1525 1.387 . S
C1527 C1529 1.390 . S
C1527 H1531 0.950 . S
H1528 C1524 0.950 . S
C1529 C1527 1.390 . S
C1529 C1530 1.387 . S
C1529 H1532 0.950 . S
C1530 C1529 1.387 . S
C1530 C1533 1.387 . S
H1531 C1527 0.950 . S
H1532 C1529 0.950 . S
C1533 C1524 1.390 . S
C1533 H1526 0.950 . S
C1533 C1530 1.387 . S
C1534 C1535 1.387 . S
C1534 H1538 0.950 . S
C1534 C1543 1.390 . S
C1535 C1534 1.387 . S
C1535 C1537 1.387 . S
H1536 C1543 0.950 . S
C1537 C1535 1.387 . S
C1537 C1539 1.390 . S
C1537 H1541 0.950 . S
H1538 C1534 0.950 . S
C1539 C1537 1.390 . S
C1539 C1540 1.387 . S
C1539 H1542 0.950 . S
C1540 C1539 1.387 . S
C1540 C1543 1.387 . S
H1541 C1537 0.950 . S
H1542 C1539 0.950 . S
C1543 C1534 1.390 . S
C1543 H1536 0.950 . S
C1543 C1540 1.387 . S
C1544 C1545 1.387 . S
C1544 H1548 0.950 . S
C1544 C1553 1.390 . S
C1545 C1544 1.387 . S
C1545 C1547 1.387 . S
H1546 C1553 0.950 . S
C1547 C1545 1.387 . S
C1547 C1549 1.390 . S
C1547 H1551 0.950 . S
H1548 C1544 0.950 . S
C1549 C1547 1.390 . S
C1549 C1550 1.387 . S
C1549 H1552 0.950 . S
C1550 C1549 1.387 . S
C1550 C1553 1.387 . S
H1551 C1547 0.950 . S
H1552 C1549 0.950 . S
C1553 C1544 1.390 . S
C1553 H1546 0.950 . S
C1553 C1550 1.387 . S
C1554 C1555 1.387 . S
C1554 H1558 0.950 . S
C1554 C1563 1.390 . S
C1555 C1554 1.387 . S
C1555 C1557 1.387 . S
H1556 C1563 0.950 . S
C1557 C1555 1.387 . S
C1557 C1559 1.390 . S
C1557 H1561 0.950 . S
H1558 C1554 0.950 . S
C1559 C1557 1.390 . S
C1559 C1560 1.387 . S
C1559 H1562 0.950 . S
C1560 C1559 1.387 . S
C1560 C1563 1.387 . S
H1561 C1557 0.950 . S
H1562 C1559 0.950 . S
C1563 C1554 1.390 . S
C1563 H1556 0.950 . S
C1563 C1560 1.387 . S
C1564 C1565 1.387 . S
C1564 H1568 0.950 . S
C1564 C1573 1.390 . S
C1565 C1564 1.387 . S
C1565 C1567 1.387 . S
H1566 C1573 0.950 . S
C1567 C1565 1.387 . S
C1567 C1569 1.390 . S
C1567 H1571 0.950 . S
H1568 C1564 0.950 . S
C1569 C1567 1.390 . S
C1569 C1570 1.387 . S
C1569 H1572 0.950 . S
C1570 C1569 1.387 . S
C1570 C1573 1.387 . S
H1571 C1567 0.950 . S
H1572 C1569 0.950 . S
C1573 C1564 1.390 . S
C1573 H1566 0.950 . S
C1573 C1570 1.387 . S
C1574 C1575 1.387 . S
C1574 H1578 0.950 . S
C1574 C1583 1.390 . S
C1575 C1574 1.387 . S
C1575 C1577 1.387 . S
H1576 C1583 0.950 . S
C1577 C1575 1.387 . S
C1577 C1579 1.390 . S
C1577 H1581 0.950 . S
H1578 C1574 0.950 . S
C1579 C1577 1.390 . S
C1579 C1580 1.387 . S
C1579 H1582 0.950 . S
C1580 C1579 1.387 . S
C1580 C1583 1.387 . S
H1581 C1577 0.950 . S
H1582 C1579 0.950 . S
C1583 C1574 1.390 . S
C1583 H1576 0.950 . S
C1583 C1580 1.387 . S
C1584 C1585 1.387 . S
C1584 H1588 0.950 . S
C1584 C1593 1.390 . S
C1585 C1584 1.387 . S
C1585 C1587 1.387 . S
H1586 C1593 0.950 . S
C1587 C1585 1.387 . S
C1587 C1589 1.390 . S
C1587 H1591 0.950 . S
H1588 C1584 0.950 . S
C1589 C1587 1.390 . S
C1589 C1590 1.387 . S
C1589 H1592 0.950 . S
C1590 C1589 1.387 . S
C1590 C1593 1.387 . S
H1591 C1587 0.950 . S
H1592 C1589 0.950 . S
C1593 C1584 1.390 . S
C1593 H1586 0.950 . S
C1593 C1590 1.387 . S
C1594 C1595 1.387 . S
C1594 H1598 0.950 . S
C1594 C1603 1.390 . S
C1595 C1594 1.387 . S
C1595 C1597 1.387 . S
H1596 C1603 0.950 . S
C1597 C1595 1.387 . S
C1597 C1599 1.390 . S
C1597 H1601 0.950 . S
H1598 C1594 0.950 . S
C1599 C1597 1.390 . S
C1599 C1600 1.387 . S
C1599 H1602 0.950 . S
C1600 C1599 1.387 . S
C1600 C1603 1.387 . S
H1601 C1597 0.950 . S
H1602 C1599 0.950 . S
C1603 C1594 1.390 . S
C1603 H1596 0.950 . S
C1603 C1600 1.387 . S
C1604 C1605 1.387 . S
C1604 H1608 0.950 . S
C1604 C1613 1.390 . S
C1605 C1604 1.387 . S
C1605 C1607 1.387 . S
H1606 C1613 0.950 . S
C1607 C1605 1.387 . S
C1607 C1609 1.390 . S
C1607 H1611 0.950 . S
H1608 C1604 0.950 . S
C1609 C1607 1.390 . S
C1609 C1610 1.387 . S
C1609 H1612 0.950 . S
C1610 C1609 1.387 . S
C1610 C1613 1.387 . S
H1611 C1607 0.950 . S
H1612 C1609 0.950 . S
C1613 C1604 1.390 . S
C1613 H1606 0.950 . S
C1613 C1610 1.387 . S
C1614 C1615 1.387 . S
C1614 H1618 0.950 . S
C1614 C1623 1.390 . S
C1615 C1614 1.387 . S
C1615 C1617 1.387 . S
H1616 C1623 0.950 . S
C1617 C1615 1.387 . S
C1617 C1619 1.390 . S
C1617 H1621 0.950 . S
H1618 C1614 0.950 . S
C1619 C1617 1.390 . S
C1619 C1620 1.387 . S
C1619 H1622 0.950 . S
C1620 C1619 1.387 . S
C1620 C1623 1.387 . S
H1621 C1617 0.950 . S
H1622 C1619 0.950 . S
C1623 C1614 1.390 . S
C1623 H1616 0.950 . S
C1623 C1620 1.387 . S
C1624 C1625 1.387 . S
C1624 H1628 0.950 . S
C1624 C1633 1.390 . S
C1625 C1624 1.387 . S
C1625 C1627 1.387 . S
H1626 C1633 0.950 . S
C1627 C1625 1.387 . S
C1627 C1629 1.390 . S
C1627 H1631 0.950 . S
H1628 C1624 0.950 . S
C1629 C1627 1.390 . S
C1629 C1630 1.387 . S
C1629 H1632 0.950 . S
C1630 C1629 1.387 . S
C1630 C1633 1.387 . S
H1631 C1627 0.950 . S
H1632 C1629 0.950 . S
C1633 C1624 1.390 . S
C1633 H1626 0.950 . S
C1633 C1630 1.387 . S
C1634 C1635 1.387 . S
C1634 H1638 0.950 . S
C1634 C1643 1.390 . S
C1635 C1634 1.387 . S
C1635 C1637 1.387 . S
H1636 C1643 0.950 . S
C1637 C1635 1.387 . S
C1637 C1639 1.390 . S
C1637 H1641 0.950 . S
H1638 C1634 0.950 . S
C1639 C1637 1.390 . S
C1639 C1640 1.387 . S
C1639 H1642 0.950 . S
C1640 C1639 1.387 . S
C1640 C1643 1.387 . S
H1641 C1637 0.950 . S
H1642 C1639 0.950 . S
C1643 C1634 1.390 . S
C1643 H1636 0.950 . S
C1643 C1640 1.387 . S
C1644 C1645 1.387 . S
C1644 H1648 0.950 . S
C1644 C1653 1.390 . S
C1645 C1644 1.387 . S
C1645 C1647 1.387 . S
H1646 C1653 0.950 . S
C1647 C1645 1.387 . S
C1647 C1649 1.390 . S
C1647 H1651 0.950 . S
H1648 C1644 0.950 . S
C1649 C1647 1.390 . S
C1649 C1650 1.387 . S
C1649 H1652 0.950 . S
C1650 C1649 1.387 . S
C1650 C1653 1.387 . S
H1651 C1647 0.950 . S
H1652 C1649 0.950 . S
C1653 C1644 1.390 . S
C1653 H1646 0.950 . S
C1653 C1650 1.387 . S
C1654 C1655 1.387 . S
C1654 H1658 0.950 . S
C1654 C1663 1.390 . S
C1655 C1654 1.387 . S
C1655 C1657 1.387 . S
H1656 C1663 0.950 . S
C1657 C1655 1.387 . S
C1657 C1659 1.390 . S
C1657 H1661 0.950 . S
H1658 C1654 0.950 . S
C1659 C1657 1.390 . S
C1659 C1660 1.387 . S
C1659 H1662 0.950 . S
C1660 C1659 1.387 . S
C1660 C1663 1.387 . S
H1661 C1657 0.950 . S
H1662 C1659 0.950 . S
C1663 C1654 1.390 . S
C1663 H1656 0.950 . S
C1663 C1660 1.387 . S
C1664 C1665 1.387 . S
C1664 H1668 0.950 . S
C1664 C1673 1.390 . S
C1665 C1664 1.387 . S
C1665 C1667 1.387 . S
H1666 C1673 0.950 . S
C1667 C1665 1.387 . S
C1667 C1669 1.390 . S
C1667 H1671 0.950 . S
H1668 C1664 0.950 . S
C1669 C1667 1.390 . S
C1669 C1670 1.387 . S
C1669 H1672 0.950 . S
C1670 C1669 1.387 . S
C1670 C1673 1.387 . S
H1671 C1667 0.950 . S
H1672 C1669 0.950 . S
C1673 C1664 1.390 . S
C1673 H1666 0.950 . S
C1673 C1670 1.387 . S
C1674 C1675 1.387 . S
C1674 H1678 0.950 . S
C1674 C1683 1.390 . S
C1675 C1674 1.387 . S
C1675 C1677 1.387 . S
H1676 C1683 0.950 . S
C1677 C1675 1.387 . S
C1677 C1679 1.390 . S
C1677 H1681 0.950 . S
H1678 C1674 0.950 . S
C1679 C1677 1.390 . S
C1679 C1680 1.387 . S
C1679 H1682 0.950 . S
C1680 C1679 1.387 . S
C1680 C1683 1.387 . S
H1681 C1677 0.950 . S
H1682 C1679 0.950 . S
C1683 C1674 1.390 . S
C1683 H1676 0.950 . S
C1683 C1680 1.387 . S
C1684 C1685 1.387 . S
C1684 H1688 0.950 . S
C1684 C1693 1.390 . S
C1685 C1684 1.387 . S
C1685 C1687 1.387 . S
H1686 C1693 0.950 . S
C1687 C1685 1.387 . S
C1687 C1689 1.390 . S
C1687 H1691 0.950 . S
H1688 C1684 0.950 . S
C1689 C1687 1.390 . S
C1689 C1690 1.387 . S
C1689 H1692 0.950 . S
C1690 C1689 1.387 . S
C1690 C1693 1.387 . S
H1691 C1687 0.950 . S
H1692 C1689 0.950 . S
C1693 C1684 1.390 . S
C1693 H1686 0.950 . S
C1693 C1690 1.387 . S
C1694 C1695 1.387 . S
C1694 H1698 0.950 . S
C1694 C1703 1.390 . S
C1695 C1694 1.387 . S
C1695 C1697 1.387 . S
H1696 C1703 0.950 . S
C1697 C1695 1.387 . S
C1697 C1699 1.390 . S
C1697 H1701 0.950 . S
H1698 C1694 0.950 . S
C1699 C1697 1.390 . S
C1699 C1700 1.387 . S
C1699 H1702 0.950 . S
C1700 C1699 1.387 . S
C1700 C1703 1.387 . S
H1701 C1697 0.950 . S
H1702 C1699 0.950 . S
C1703 C1694 1.390 . S
C1703 H1696 0.950 . S
C1703 C1700 1.387 . S
C1704 C1705 1.387 . S
C1704 H1708 0.950 . S
C1704 C1713 1.390 . S
C1705 C1704 1.387 . S
C1705 C1707 1.387 . S
H1706 C1713 0.950 . S
C1707 C1705 1.387 . S
C1707 C1709 1.390 . S
C1707 H1711 0.950 . S
H1708 C1704 0.950 . S
C1709 C1707 1.390 . S
C1709 C1710 1.387 . S
C1709 H1712 0.950 . S
C1710 C1709 1.387 . S
C1710 C1713 1.387 . S
H1711 C1707 0.950 . S
H1712 C1709 0.950 . S
C1713 C1704 1.390 . S
C1713 H1706 0.950 . S
C1713 C1710 1.387 . S
C1714 C1715 1.387 . S
C1714 H1718 0.950 . S
C1714 C1723 1.390 . S
C1715 C1714 1.387 . S
C1715 C1717 1.387 . S
H1716 C1723 0.950 . S
C1717 C1715 1.387 . S
C1717 C1719 1.390 . S
C1717 H1721 0.950 . S
H1718 C1714 0.950 . S
C1719 C1717 1.390 . S
C1719 C1720 1.387 . S
C1719 H1722 0.950 . S
C1720 C1719 1.387 . S
C1720 C1723 1.387 . S
H1721 C1717 0.950 . S
H1722 C1719 0.950 . S
C1723 C1714 1.390 . S
C1723 H1716 0.950 . S
C1723 C1720 1.387 . S
C1724 C1725 1.387 . S
C1724 H1728 0.950 . S
C1724 C1733 1.390 . S
C1725 C1724 1.387 . S
C1725 C1727 1.387 . S
H1726 C1733 0.950 . S
C1727 C1725 1.387 . S
C1727 C1729 1.390 . S
C1727 H1731 0.950 . S
H1728 C1724 0.950 . S
C1729 C1727 1.390 . S
C1729 C1730 1.387 . S
C1729 H1732 0.950 . S
C1730 C1729 1.387 . S
C1730 C1733 1.387 . S
H1731 C1727 0.950 . S
H1732 C1729 0.950 . S
C1733 C1724 1.390 . S
C1733 H1726 0.950 . S
C1733 C1730 1.387 . S
C1734 C1735 1.387 1_655 S
C1734 H1738 0.950 . S
C1734 C1743 1.390 . S
C1735 C1734 1.387 1_455 S
C1735 C1737 1.387 . S
H1736 C1743 0.950 . S
C1737 C1735 1.387 . S
C1737 C1739 1.390 . S
C1737 H1741 0.950 . S
H1738 C1734 0.950 . S
C1739 C1737 1.390 . S
C1739 C1740 1.387 1_455 S
C1739 H1742 0.950 . S
C1740 C1739 1.387 1_655 S
C1740 C1743 1.387 . S
H1741 C1737 0.950 . S
H1742 C1739 0.950 . S
C1743 C1734 1.390 . S
C1743 H1736 0.950 . S
C1743 C1740 1.387 . S
C1744 C1745 1.387 . S
C1744 H1748 0.950 . S
C1744 C1753 1.390 . S
C1745 C1744 1.387 . S
C1745 C1747 1.387 . S
H1746 C1753 0.950 . S
C1747 C1745 1.387 . S
C1747 C1749 1.390 . S
C1747 H1751 0.950 . S
H1748 C1744 0.950 . S
C1749 C1747 1.390 . S
C1749 C1750 1.387 . S
C1749 H1752 0.950 . S
C1750 C1749 1.387 . S
C1750 C1753 1.387 . S
H1751 C1747 0.950 . S
H1752 C1749 0.950 . S
C1753 C1744 1.390 . S
C1753 H1746 0.950 . S
C1753 C1750 1.387 . S
C1754 C1755 1.387 . S
C1754 H1758 0.950 . S
C1754 C1763 1.390 . S
C1755 C1754 1.387 . S
C1755 C1757 1.387 . S
H1756 C1763 0.950 . S
C1757 C1755 1.387 . S
C1757 C1759 1.390 1_565 S
C1757 H1761 0.950 . S
H1758 C1754 0.950 . S
C1759 C1757 1.390 1_545 S
C1759 C1760 1.387 . S
C1759 H1762 0.950 . S
C1760 C1759 1.387 . S
C1760 C1763 1.387 1_545 S
H1761 C1757 0.950 . S
H1762 C1759 0.950 . S
C1763 C1754 1.390 . S
C1763 H1756 0.950 . S
C1763 C1760 1.387 1_565 S
C1764 C1765 1.387 . S
C1764 H1768 0.950 . S
C1764 C1773 1.390 . S
C1765 C1764 1.387 . S
C1765 C1767 1.387 . S
H1766 C1773 0.950 . S
C1767 C1765 1.387 . S
C1767 C1769 1.390 1_565 S
C1767 H1771 0.950 . S
H1768 C1764 0.950 . S
C1769 C1767 1.390 1_545 S
C1769 C1770 1.387 . S
C1769 H1772 0.950 . S
C1770 C1769 1.387 . S
C1770 C1773 1.387 1_545 S
H1771 C1767 0.950 . S
H1772 C1769 0.950 . S
C1773 C1764 1.390 . S
C1773 H1766 0.950 . S
C1773 C1770 1.387 1_565 S
C1774 C1775 1.387 1_455 S
C1774 H1778 0.950 . S
C1774 C1783 1.390 . S
C1775 C1774 1.387 1_655 S
C1775 C1777 1.387 . S
H1776 C1783 0.950 . S
C1777 C1775 1.387 . S
C1777 C1779 1.390 1_655 S
C1777 H1781 0.950 . S
H1778 C1774 0.950 . S
C1779 C1777 1.390 1_455 S
C1779 C1780 1.387 . S
C1779 H1782 0.950 . S
C1780 C1779 1.387 . S
C1780 C1783 1.387 . S
H1781 C1777 0.950 . S
H1782 C1779 0.950 . S
C1783 C1774 1.390 . S
C1783 H1776 0.950 . S
C1783 C1780 1.387 . S
C1784 C1785 1.387 . S
C1784 H1788 0.950 . S
C1784 C1793 1.390 . S
C1785 C1784 1.387 . S
C1785 C1787 1.387 . S
H1786 C1793 0.950 . S
C1787 C1785 1.387 . S
C1787 C1789 1.390 . S
C1787 H1791 0.950 . S
H1788 C1784 0.950 . S
C1789 C1787 1.390 . S
C1789 C1790 1.387 . S
C1789 H1792 0.950 . S
C1790 C1789 1.387 . S
C1790 C1793 1.387 . S
H1791 C1787 0.950 . S
H1792 C1789 0.950 . S
C1793 C1784 1.390 . S
C1793 H1786 0.950 . S
C1793 C1790 1.387 . S
C1794 C1795 1.387 . S
C1794 H1798 0.950 . S
C1794 C1803 1.390 . S
C1795 C1794 1.387 . S
C1795 C1797 1.387 1_554 S
H1796 C1803 0.950 . S
C1797 C1795 1.387 1_556 S
C1797 C1799 1.390 . S
C1797 H1801 0.950 . S
H1798 C1794 0.950 . S
C1799 C1797 1.390 . S
C1799 C1800 1.387 1_556 S
C1799 H1802 0.950 . S
C1800 C1799 1.387 1_554 S
C1800 C1803 1.387 . S
H1801 C1797 0.950 . S
H1802 C1799 0.950 . S
C1803 C1794 1.390 . S
C1803 H1796 0.950 . S
C1803 C1800 1.387 . S
C1804 C1805 1.387 1_556 S
C1804 H1808 0.950 . S
C1804 C1813 1.390 . S
C1805 C1804 1.387 1_554 S
C1805 C1807 1.387 . S
H1806 C1813 0.950 . S
C1807 C1805 1.387 . S
C1807 C1809 1.390 . S
C1807 H1811 0.950 . S
H1808 C1804 0.950 . S
C1809 C1807 1.390 . S
C1809 C1810 1.387 . S
C1809 H1812 0.950 . S
C1810 C1809 1.387 . S
C1810 C1813 1.387 1_554 S
H1811 C1807 0.950 . S
H1812 C1809 0.950 . S
C1813 C1804 1.390 . S
C1813 H1806 0.950 . S
C1813 C1810 1.387 1_556 S
C1814 C1815 1.387 1_556 S
C1814 H1818 0.950 . S
C1814 C1823 1.390 . S
C1815 C1814 1.387 1_554 S
C1815 C1817 1.387 . S
H1816 C1823 0.950 . S
C1817 C1815 1.387 . S
C1817 C1819 1.390 . S
C1817 H1821 0.950 . S
H1818 C1814 0.950 . S
C1819 C1817 1.390 . S
C1819 C1820 1.387 . S
C1819 H1822 0.950 . S
C1820 C1819 1.387 . S
C1820 C1823 1.387 1_554 S
H1821 C1817 0.950 . S
H1822 C1819 0.950 . S
C1823 C1814 1.390 . S
C1823 H1816 0.950 . S
C1823 C1820 1.387 1_556 S
C1824 C1825 1.387 . S
C1824 H1828 0.950 . S
C1824 C1833 1.390 . S
C1825 C1824 1.387 . S
C1825 C1827 1.387 . S
H1826 C1833 0.950 . S
C1827 C1825 1.387 . S
C1827 C1829 1.390 1_545 S
C1827 H1831 0.950 . S
H1828 C1824 0.950 . S
C1829 C1827 1.390 1_565 S
C1829 C1830 1.387 . S
C1829 H1832 0.950 . S
C1830 C1829 1.387 . S
C1830 C1833 1.387 1_565 S
H1831 C1827 0.950 . S
H1832 C1829 0.950 . S
C1833 C1824 1.390 . S
C1833 H1826 0.950 . S
C1833 C1830 1.387 1_545 S
C1834 C1835 1.387 . S
C1834 H1838 0.950 . S
C1834 C1843 1.390 1_655 S
C1835 C1834 1.387 . S
C1835 C1837 1.387 . S
H1836 C1843 0.950 . S
C1837 C1835 1.387 . S
C1837 C1839 1.390 . S
C1837 H1841 0.950 . S
H1838 C1834 0.950 . S
C1839 C1837 1.390 . S
C1839 C1840 1.387 1_655 S
C1839 H1842 0.950 1_655 S
C1840 C1839 1.387 1_455 S
C1840 C1843 1.387 . S
H1841 C1837 0.950 . S
H1842 C1839 0.950 1_455 S
C1843 C1834 1.390 1_455 S
C1843 H1836 0.950 . S
C1843 C1840 1.387 . S
C1844 C1845 1.387 . S
C1844 H1848 0.950 . S
C1844 C1853 1.390 . S
C1845 C1844 1.387 . S
C1845 C1847 1.387 . S
H1846 C1853 0.950 . S
C1847 C1845 1.387 . S
C1847 C1849 1.390 . S
C1847 H1851 0.950 . S
H1848 C1844 0.950 . S
C1849 C1847 1.390 . S
C1849 C1850 1.387 . S
C1849 H1852 0.950 . S
C1850 C1849 1.387 . S
C1850 C1853 1.387 . S
H1851 C1847 0.950 . S
H1852 C1849 0.950 . S
C1853 C1844 1.390 . S
C1853 H1846 0.950 . S
C1853 C1850 1.387 . S
C1854 C1855 1.387 1_554 S
C1854 H1858 0.950 . S
C1854 C1863 1.390 . S
C1855 C1854 1.387 1_556 S
C1855 C1857 1.387 . S
H1856 C1863 0.950 . S
C1857 C1855 1.387 . S
C1857 C1859 1.390 . S
C1857 H1861 0.950 . S
H1858 C1854 0.950 . S
C1859 C1857 1.390 . S
C1859 C1860 1.387 . S
C1859 H1862 0.950 . S
C1860 C1859 1.387 . S
C1860 C1863 1.387 1_556 S
H1861 C1857 0.950 . S
H1862 C1859 0.950 . S
C1863 C1854 1.390 . S
C1863 H1856 0.950 . S
C1863 C1860 1.387 1_554 S
C1864 C1865 1.387 1_554 S
C1864 H1868 0.950 . S
C1864 C1873 1.390 . S
C1865 C1864 1.387 1_556 S
C1865 C1867 1.387 . S
H1866 C1873 0.950 . S
C1867 C1865 1.387 . S
C1867 C1869 1.390 . S
C1867 H1871 0.950 . S
H1868 C1864 0.950 . S
C1869 C1867 1.390 . S
C1869 C1870 1.387 . S
C1869 H1872 0.950 . S
C1870 C1869 1.387 . S
C1870 C1873 1.387 1_556 S
H1871 C1867 0.950 . S
H1872 C1869 0.950 . S
C1873 C1864 1.390 . S
C1873 H1866 0.950 . S
C1873 C1870 1.387 1_554 S
C1874 C1875 1.387 . S
C1874 H1878 0.950 . S
C1874 C1883 1.390 . S
C1875 C1874 1.387 . S
C1875 C1877 1.387 1_556 S
H1876 C1883 0.950 . S
C1877 C1875 1.387 1_554 S
C1877 C1879 1.390 . S
C1877 H1881 0.950 . S
H1878 C1874 0.950 . S
C1879 C1877 1.390 . S
C1879 C1880 1.387 1_554 S
C1879 H1882 0.950 . S
C1880 C1879 1.387 1_556 S
C1880 C1883 1.387 . S
H1881 C1877 0.950 . S
H1882 C1879 0.950 . S
C1883 C1874 1.390 . S
C1883 H1876 0.950 . S
C1883 C1880 1.387 . S
C1884 C1885 1.387 . S
C1884 H1888 0.950 . S
C1884 C1893 1.390 . S
C1885 C1884 1.387 . S
C1885 C1887 1.387 . S
H1886 C1893 0.950 . S
C1887 C1885 1.387 . S
C1887 C1889 1.390 . S
C1887 H1891 0.950 . S
H1888 C1884 0.950 . S
C1889 C1887 1.390 . S
C1889 C1890 1.387 . S
C1889 H1892 0.950 . S
C1890 C1889 1.387 . S
C1890 C1893 1.387 . S
H1891 C1887 0.950 . S
H1892 C1889 0.950 . S
C1893 C1884 1.390 . S
C1893 H1886 0.950 . S
C1893 C1890 1.387 . S
C1894 C1895 1.387 . S
C1894 H1898 0.950 . S
C1894 C1903 1.390 . S
C1895 C1894 1.387 . S
C1895 C1897 1.387 . S
H1896 C1903 0.950 . S
C1897 C1895 1.387 . S
C1897 C1899 1.390 . S
C1897 H1901 0.950 . S
H1898 C1894 0.950 . S
C1899 C1897 1.390 . S
C1899 C1900 1.387 . S
C1899 H1902 0.950 . S
C1900 C1899 1.387 . S
C1900 C1903 1.387 . S
H1901 C1897 0.950 . S
H1902 C1899 0.950 . S
C1903 C1894 1.390 . S
C1903 H1896 0.950 . S
C1903 C1900 1.387 . S
C1904 C1905 1.387 . S
C1904 H1908 0.950 . S
C1904 C1913 1.390 . S
C1905 C1904 1.387 . S
C1905 C1907 1.387 . S
H1906 C1913 0.950 . S
C1907 C1905 1.387 . S
C1907 C1909 1.390 . S
C1907 H1911 0.950 . S
H1908 C1904 0.950 . S
C1909 C1907 1.390 . S
C1909 C1910 1.387 . S
C1909 H1912 0.950 . S
C1910 C1909 1.387 . S
C1910 C1913 1.387 . S
H1911 C1907 0.950 . S
H1912 C1909 0.950 . S
C1913 C1904 1.390 . S
C1913 H1906 0.950 . S
C1913 C1910 1.387 . S
C1914 C1915 1.387 1_655 S
C1914 H1918 0.950 . S
C1914 C1923 1.390 . S
C1915 C1914 1.387 1_455 S
C1915 C1917 1.387 . S
H1916 C1923 0.950 . S
C1917 C1915 1.387 . S
C1917 C1919 1.390 . S
C1917 H1921 0.950 . S
H1918 C1914 0.950 . S
C1919 C1917 1.390 . S
C1919 C1920 1.387 1_455 S
C1919 H1922 0.950 . S
C1920 C1919 1.387 1_655 S
C1920 C1923 1.387 . S
H1921 C1917 0.950 . S
H1922 C1919 0.950 . S
C1923 C1914 1.390 . S
C1923 H1916 0.950 . S
C1923 C1920 1.387 . S
C1924 C1925 1.387 . S
C1924 H1928 0.950 . S
C1924 C1933 1.390 . S
C1925 C1924 1.387 . S
C1925 C1927 1.387 . S
H1926 C1933 0.950 . S
C1927 C1925 1.387 . S
C1927 C1929 1.390 . S
C1927 H1931 0.950 . S
H1928 C1924 0.950 . S
C1929 C1927 1.390 . S
C1929 C1930 1.387 . S
C1929 H1932 0.950 . S
C1930 C1929 1.387 . S
C1930 C1933 1.387 . S
H1931 C1927 0.950 . S
H1932 C1929 0.950 . S
C1933 C1924 1.390 . S
C1933 H1926 0.950 . S
C1933 C1930 1.387 . S
C1934 C1935 1.387 . S
C1934 H1938 0.950 . S
C1934 C1943 1.390 1_545 S
C1935 C1934 1.387 . S
C1935 C1937 1.387 . S
H1936 C1943 0.950 . S
C1937 C1935 1.387 . S
C1937 C1939 1.390 . S
C1937 H1941 0.950 . S
H1938 C1934 0.950 . S
C1939 C1937 1.390 . S
C1939 C1940 1.387 1_545 S
C1939 H1942 0.950 . S
C1940 C1939 1.387 1_565 S
C1940 C1943 1.387 . S
H1941 C1937 0.950 . S
H1942 C1939 0.950 . S
C1943 C1934 1.390 1_565 S
C1943 H1936 0.950 . S
C1943 C1940 1.387 . S
C1944 C1945 1.387 . S
C1944 H1948 0.950 . S
C1944 C1953 1.390 . S
C1945 C1944 1.387 . S
C1945 C1947 1.387 . S
H1946 C1953 0.950 . S
C1947 C1945 1.387 . S
C1947 C1949 1.390 . S
C1947 H1951 0.950 . S
H1948 C1944 0.950 . S
C1949 C1947 1.390 . S
C1949 C1950 1.387 . S
C1949 H1952 0.950 . S
C1950 C1949 1.387 . S
C1950 C1953 1.387 . S
H1951 C1947 0.950 . S
H1952 C1949 0.950 . S
C1953 C1944 1.390 . S
C1953 H1946 0.950 . S
C1953 C1950 1.387 . S
C1954 C1955 1.387 . S
C1954 H1958 0.950 . S
C1954 C1963 1.390 . S
C1955 C1954 1.387 . S
C1955 C1957 1.387 . S
H1956 C1963 0.950 . S
C1957 C1955 1.387 . S
C1957 C1959 1.390 . S
C1957 H1961 0.950 . S
H1958 C1954 0.950 . S
C1959 C1957 1.390 . S
C1959 C1960 1.387 . S
C1959 H1962 0.950 . S
C1960 C1959 1.387 . S
C1960 C1963 1.387 . S
H1961 C1957 0.950 . S
H1962 C1959 0.950 . S
C1963 C1954 1.390 . S
C1963 H1956 0.950 . S
C1963 C1960 1.387 . S
C1964 C1965 1.387 . S
C1964 H1968 0.950 . S
C1964 C1973 1.390 . S
C1965 C1964 1.387 . S
C1965 C1967 1.387 . S
H1966 C1973 0.950 . S
C1967 C1965 1.387 . S
C1967 C1969 1.390 . S
C1967 H1971 0.950 . S
H1968 C1964 0.950 . S
C1969 C1967 1.390 . S
C1969 C1970 1.387 . S
C1969 H1972 0.950 . S
C1970 C1969 1.387 . S
C1970 C1973 1.387 . S
H1971 C1967 0.950 . S
H1972 C1969 0.950 . S
C1973 C1964 1.390 . S
C1973 H1966 0.950 . S
C1973 C1970 1.387 . S
C1974 C1975 1.387 . S
C1974 H1978 0.950 . S
C1974 C1983 1.390 . S
C1975 C1974 1.387 . S
C1975 C1977 1.387 . S
H1976 C1983 0.950 . S
C1977 C1975 1.387 . S
C1977 C1979 1.390 . S
C1977 H1981 0.950 . S
H1978 C1974 0.950 . S
C1979 C1977 1.390 . S
C1979 C1980 1.387 . S
C1979 H1982 0.950 . S
C1980 C1979 1.387 . S
C1980 C1983 1.387 . S
H1981 C1977 0.950 . S
H1982 C1979 0.950 . S
C1983 C1974 1.390 . S
C1983 H1976 0.950 . S
C1983 C1980 1.387 . S
C1984 C1985 1.387 . S
C1984 H1988 0.950 . S
C1984 C1993 1.390 . S
C1985 C1984 1.387 . S
C1985 C1987 1.387 . S
H1986 C1993 0.950 . S
C1987 C1985 1.387 . S
C1987 C1989 1.390 . S
C1987 H1991 0.950 . S
H1988 C1984 0.950 . S
C1989 C1987 1.390 . S
C1989 C1990 1.387 . S
C1989 H1992 0.950 . S
C1990 C1989 1.387 . S
C1990 C1993 1.387 . S
H1991 C1987 0.950 . S
H1992 C1989 0.950 . S
C1993 C1984 1.390 . S
C1993 H1986 0.950 . S
C1993 C1990 1.387 . S
C1994 C1995 1.387 . S
C1994 H1998 0.950 . S
C1994 C2003 1.390 . S
C1995 C1994 1.387 . S
C1995 C1997 1.387 . S
H1996 C2003 0.950 . S
C1997 C1995 1.387 . S
C1997 C1999 1.390 . S
C1997 H2001 0.950 . S
H1998 C1994 0.950 . S
C1999 C1997 1.390 . S
C1999 C2000 1.387 . S
C1999 H2002 0.950 . S
C2000 C1999 1.387 . S
C2000 C2003 1.387 . S
H2001 C1997 0.950 . S
H2002 C1999 0.950 . S
C2003 C1994 1.390 . S
C2003 H1996 0.950 . S
C2003 C2000 1.387 . S
C2004 C2005 1.387 . S
C2004 H2008 0.950 . S
C2004 C2013 1.390 . S
C2005 C2004 1.387 . S
C2005 C2007 1.387 . S
H2006 C2013 0.950 . S
C2007 C2005 1.387 . S
C2007 C2009 1.390 . S
C2007 H2011 0.950 . S
H2008 C2004 0.950 . S
C2009 C2007 1.390 . S
C2009 C2010 1.387 . S
C2009 H2012 0.950 . S
C2010 C2009 1.387 . S
C2010 C2013 1.387 . S
H2011 C2007 0.950 . S
H2012 C2009 0.950 . S
C2013 C2004 1.390 . S
C2013 H2006 0.950 . S
C2013 C2010 1.387 . S
C2014 C2015 1.387 . S
C2014 H2018 0.950 . S
C2014 C2023 1.390 . S
C2015 C2014 1.387 . S
C2015 C2017 1.387 . S
H2016 C2023 0.950 . S
C2017 C2015 1.387 . S
C2017 C2019 1.390 . S
C2017 H2021 0.950 . S
H2018 C2014 0.950 . S
C2019 C2017 1.390 . S
C2019 C2020 1.387 . S
C2019 H2022 0.950 . S
C2020 C2019 1.387 . S
C2020 C2023 1.387 . S
H2021 C2017 0.950 . S
H2022 C2019 0.950 . S
C2023 C2014 1.390 . S
C2023 H2016 0.950 . S
C2023 C2020 1.387 . S
C2024 C2025 1.387 . S
C2024 H2028 0.950 . S
C2024 C2033 1.390 . S
C2025 C2024 1.387 . S
C2025 C2027 1.387 . S
H2026 C2033 0.950 . S
C2027 C2025 1.387 . S
C2027 C2029 1.390 . S
C2027 H2031 0.950 . S
H2028 C2024 0.950 . S
C2029 C2027 1.390 . S
C2029 C2030 1.387 . S
C2029 H2032 0.950 . S
C2030 C2029 1.387 . S
C2030 C2033 1.387 . S
H2031 C2027 0.950 . S
H2032 C2029 0.950 . S
C2033 C2024 1.390 . S
C2033 H2026 0.950 . S
C2033 C2030 1.387 . S
C2034 C2035 1.387 . S
C2034 H2038 0.950 . S
C2034 C2043 1.390 . S
C2035 C2034 1.387 . S
C2035 C2037 1.387 . S
H2036 C2043 0.950 . S
C2037 C2035 1.387 . S
C2037 C2039 1.390 . S
C2037 H2041 0.950 . S
H2038 C2034 0.950 . S
C2039 C2037 1.390 . S
C2039 C2040 1.387 . S
C2039 H2042 0.950 . S
C2040 C2039 1.387 . S
C2040 C2043 1.387 . S
H2041 C2037 0.950 . S
H2042 C2039 0.950 . S
C2043 C2034 1.390 . S
C2043 H2036 0.950 . S
C2043 C2040 1.387 . S
C2044 C2045 1.387 . S
C2044 H2048 0.950 . S
C2044 C2053 1.390 . S
C2045 C2044 1.387 . S
C2045 C2047 1.387 . S
H2046 C2053 0.950 . S
C2047 C2045 1.387 . S
C2047 C2049 1.390 . S
C2047 H2051 0.950 . S
H2048 C2044 0.950 . S
C2049 C2047 1.390 . S
C2049 C2050 1.387 . S
C2049 H2052 0.950 . S
C2050 C2049 1.387 . S
C2050 C2053 1.387 . S
H2051 C2047 0.950 . S
H2052 C2049 0.950 . S
C2053 C2044 1.390 . S
C2053 H2046 0.950 . S
C2053 C2050 1.387 . S
C2054 C2055 1.387 . S
C2054 H2058 0.950 . S
C2054 C2063 1.390 . S
C2055 C2054 1.387 . S
C2055 C2057 1.387 . S
H2056 C2063 0.950 . S
C2057 C2055 1.387 . S
C2057 C2059 1.390 . S
C2057 H2061 0.950 . S
H2058 C2054 0.950 . S
C2059 C2057 1.390 . S
C2059 C2060 1.387 . S
C2059 H2062 0.950 . S
C2060 C2059 1.387 . S
C2060 C2063 1.387 . S
H2061 C2057 0.950 . S
H2062 C2059 0.950 . S
C2063 C2054 1.390 . S
C2063 H2056 0.950 . S
C2063 C2060 1.387 . S
C2064 C2065 1.387 . S
C2064 H2068 0.950 . S
C2064 C2073 1.390 1_655 S
C2065 C2064 1.387 . S
C2065 C2067 1.387 . S
H2066 C2073 0.950 . S
C2067 C2065 1.387 . S
C2067 C2069 1.390 1_655 S
C2067 H2071 0.950 . S
H2068 C2064 0.950 . S
C2069 C2067 1.390 1_455 S
C2069 C2070 1.387 . S
C2069 H2072 0.950 . S
C2070 C2069 1.387 . S
C2070 C2073 1.387 . S
H2071 C2067 0.950 . S
H2072 C2069 0.950 . S
C2073 C2064 1.390 1_455 S
C2073 H2066 0.950 . S
C2073 C2070 1.387 . S
C2074 C2075 1.387 . S
C2074 H2078 0.950 . S
C2074 C2083 1.390 . S
C2075 C2074 1.387 . S
C2075 C2077 1.387 . S
H2076 C2083 0.950 . S
C2077 C2075 1.387 . S
C2077 C2079 1.390 . S
C2077 H2081 0.950 . S
H2078 C2074 0.950 . S
C2079 C2077 1.390 . S
C2079 C2080 1.387 . S
C2079 H2082 0.950 . S
C2080 C2079 1.387 . S
C2080 C2083 1.387 . S
H2081 C2077 0.950 . S
H2082 C2079 0.950 . S
C2083 C2074 1.390 . S
C2083 H2076 0.950 . S
C2083 C2080 1.387 . S
C2084 C2085 1.387 . S
C2084 H2088 0.950 . S
C2084 C2093 1.390 1_545 S
C2085 C2084 1.387 . S
C2085 C2087 1.387 . S
H2086 C2093 0.950 . S
C2087 C2085 1.387 . S
C2087 C2089 1.390 1_545 S
C2087 H2091 0.950 . S
H2088 C2084 0.950 . S
C2089 C2087 1.390 1_565 S
C2089 C2090 1.387 . S
C2089 H2092 0.950 . S
C2090 C2089 1.387 . S
C2090 C2093 1.387 . S
H2091 C2087 0.950 . S
H2092 C2089 0.950 . S
C2093 C2084 1.390 1_565 S
C2093 H2086 0.950 . S
C2093 C2090 1.387 . S
C2094 C2095 1.387 . S
C2094 H2098 0.950 . S
C2094 C2103 1.390 1_545 S
C2095 C2094 1.387 . S
C2095 C2097 1.387 . S
H2096 C2103 0.950 . S
C2097 C2095 1.387 . S
C2097 C2099 1.390 1_545 S
C2097 H2101 0.950 . S
H2098 C2094 0.950 . S
C2099 C2097 1.390 1_565 S
C2099 C2100 1.387 . S
C2099 H2102 0.950 . S
C2100 C2099 1.387 . S
C2100 C2103 1.387 . S
H2101 C2097 0.950 . S
H2102 C2099 0.950 . S
C2103 C2094 1.390 1_565 S
C2103 H2096 0.950 . S
C2103 C2100 1.387 . S
C2104 C2105 1.387 . S
C2104 H2108 0.950 . S
C2104 C2113 1.390 . S
C2105 C2104 1.387 . S
C2105 C2107 1.387 1_455 S
H2106 C2113 0.950 . S
C2107 C2105 1.387 1_655 S
C2107 C2109 1.390 . S
C2107 H2111 0.950 . S
H2108 C2104 0.950 . S
C2109 C2107 1.390 . S
C2109 C2110 1.387 . S
C2109 H2112 0.950 . S
C2110 C2109 1.387 . S
C2110 C2113 1.387 1_655 S
H2111 C2107 0.950 . S
H2112 C2109 0.950 . S
C2113 C2104 1.390 . S
C2113 H2106 0.950 . S
C2113 C2110 1.387 1_455 S
C2114 C2115 1.387 . S
C2114 H2118 0.950 . S
C2114 C2123 1.390 . S
C2115 C2114 1.387 . S
C2115 C2117 1.387 . S
H2116 C2123 0.950 . S
C2117 C2115 1.387 . S
C2117 C2119 1.390 . S
C2117 H2121 0.950 . S
H2118 C2114 0.950 . S
C2119 C2117 1.390 . S
C2119 C2120 1.387 . S
C2119 H2122 0.950 . S
C2120 C2119 1.387 . S
C2120 C2123 1.387 . S
H2121 C2117 0.950 . S
H2122 C2119 0.950 . S
C2123 C2114 1.390 . S
C2123 H2116 0.950 . S
C2123 C2120 1.387 . S
C2124 C2125 1.387 . S
C2124 H2128 0.950 . S
C2124 C2133 1.390 1_655 S
C2125 C2124 1.387 . S
C2125 C2127 1.387 . S
H2126 C2133 0.950 . S
C2127 C2125 1.387 . S
C2127 C2129 1.390 1_655 S
C2127 H2131 0.950 . S
H2128 C2124 0.950 . S
C2129 C2127 1.390 1_455 S
C2129 C2130 1.387 . S
C2129 H2132 0.950 . S
C2130 C2129 1.387 . S
C2130 C2133 1.387 . S
H2131 C2127 0.950 . S
H2132 C2129 0.950 . S
C2133 C2124 1.390 1_455 S
C2133 H2126 0.950 . S
C2133 C2130 1.387 . S
C2134 C2135 1.387 . S
C2134 H2138 0.950 . S
C2134 C2143 1.390 . S
C2135 C2134 1.387 . S
C2135 C2137 1.387 . S
H2136 C2143 0.950 . S
C2137 C2135 1.387 . S
C2137 C2139 1.390 . S
C2137 H2141 0.950 . S
H2138 C2134 0.950 . S
C2139 C2137 1.390 . S
C2139 C2140 1.387 . S
C2139 H2142 0.950 . S
C2140 C2139 1.387 . S
C2140 C2143 1.387 . S
H2141 C2137 0.950 . S
H2142 C2139 0.950 . S
C2143 C2134 1.390 . S
C2143 H2136 0.950 . S
C2143 C2140 1.387 . S
C2144 C2145 1.387 . S
C2144 H2148 0.950 . S
C2144 C2153 1.390 1_545 S
C2145 C2144 1.387 . S
C2145 C2147 1.387 . S
H2146 C2153 0.950 . S
C2147 C2145 1.387 . S
C2147 C2149 1.390 1_545 S
C2147 H2151 0.950 . S
H2148 C2144 0.950 . S
C2149 C2147 1.390 1_565 S
C2149 C2150 1.387 . S
C2149 H2152 0.950 . S
C2150 C2149 1.387 . S
C2150 C2153 1.387 . S
H2151 C2147 0.950 . S
H2152 C2149 0.950 . S
C2153 C2144 1.390 1_565 S
C2153 H2146 0.950 . S
C2153 C2150 1.387 . S
C2154 C2155 1.387 . S
C2154 H2158 0.950 . S
C2154 C2163 1.390 1_655 S
C2155 C2154 1.387 . S
C2155 C2157 1.387 . S
H2156 C2163 0.950 . S
C2157 C2155 1.387 . S
C2157 C2159 1.390 1_655 S
C2157 H2161 0.950 . S
H2158 C2154 0.950 . S
C2159 C2157 1.390 1_455 S
C2159 C2160 1.387 . S
C2159 H2162 0.950 . S
C2160 C2159 1.387 . S
C2160 C2163 1.387 . S
H2161 C2157 0.950 . S
H2162 C2159 0.950 . S
C2163 C2154 1.390 1_455 S
C2163 H2156 0.950 . S
C2163 C2160 1.387 . S
C2164 C2165 1.387 . S
C2164 H2168 0.950 . S
C2164 C2173 1.390 . S
C2165 C2164 1.387 . S
C2165 C2167 1.387 . S
H2166 C2173 0.950 . S
C2167 C2165 1.387 . S
C2167 C2169 1.390 . S
C2167 H2171 0.950 . S
H2168 C2164 0.950 . S
C2169 C2167 1.390 . S
C2169 C2170 1.387 . S
C2169 H2172 0.950 . S
C2170 C2169 1.387 . S
C2170 C2173 1.387 . S
H2171 C2167 0.950 . S
H2172 C2169 0.950 . S
C2173 C2164 1.390 . S
C2173 H2166 0.950 . S
C2173 C2170 1.387 . S
C2174 C2175 1.387 . S
C2174 H2178 0.950 . S
C2174 C2183 1.390 1_545 S
C2175 C2174 1.387 . S
C2175 C2177 1.387 . S
H2176 C2183 0.950 . S
C2177 C2175 1.387 . S
C2177 C2179 1.390 1_545 S
C2177 H2181 0.950 . S
H2178 C2174 0.950 . S
C2179 C2177 1.390 1_565 S
C2179 C2180 1.387 . S
C2179 H2182 0.950 . S
C2180 C2179 1.387 . S
C2180 C2183 1.387 . S
H2181 C2177 0.950 . S
H2182 C2179 0.950 . S
C2183 C2174 1.390 1_565 S
C2183 H2176 0.950 . S
C2183 C2180 1.387 . S
C2184 C2185 1.387 . S
C2184 H2188 0.950 . S
C2184 C2193 1.390 . S
C2185 C2184 1.387 . S
C2185 C2187 1.387 . S
H2186 C2193 0.950 . S
C2187 C2185 1.387 . S
C2187 C2189 1.390 . S
C2187 H2191 0.950 . S
H2188 C2184 0.950 . S
C2189 C2187 1.390 . S
C2189 C2190 1.387 . S
C2189 H2192 0.950 . S
C2190 C2189 1.387 . S
C2190 C2193 1.387 . S
H2191 C2187 0.950 . S
H2192 C2189 0.950 . S
C2193 C2184 1.390 . S
C2193 H2186 0.950 . S
C2193 C2190 1.387 . S
C2194 C2195 1.387 . S
C2194 H2198 0.950 . S
C2194 C2203 1.390 . S
C2195 C2194 1.387 . S
C2195 C2197 1.387 . S
H2196 C2203 0.950 . S
C2197 C2195 1.387 . S
C2197 C2199 1.390 . S
C2197 H2201 0.950 . S
H2198 C2194 0.950 . S
C2199 C2197 1.390 . S
C2199 C2200 1.387 . S
C2199 H2202 0.950 . S
C2200 C2199 1.387 . S
C2200 C2203 1.387 . S
H2201 C2197 0.950 . S
H2202 C2199 0.950 . S
C2203 C2194 1.390 . S
C2203 H2196 0.950 . S
C2203 C2200 1.387 . S
C2204 C2205 1.387 . S
C2204 H2208 0.950 . S
C2204 C2213 1.390 . S
C2205 C2204 1.387 . S
C2205 C2207 1.387 . S
H2206 C2213 0.950 . S
C2207 C2205 1.387 . S
C2207 C2209 1.390 . S
C2207 H2211 0.950 . S
H2208 C2204 0.950 . S
C2209 C2207 1.390 . S
C2209 C2210 1.387 . S
C2209 H2212 0.950 . S
C2210 C2209 1.387 . S
C2210 C2213 1.387 . S
H2211 C2207 0.950 . S
H2212 C2209 0.950 . S
C2213 C2204 1.390 . S
C2213 H2206 0.950 . S
C2213 C2210 1.387 . S
C2214 C2215 1.387 . S
C2214 H2218 0.950 . S
C2214 C2223 1.390 . S
C2215 C2214 1.387 . S
C2215 C2217 1.387 . S
H2216 C2223 0.950 . S
C2217 C2215 1.387 . S
C2217 C2219 1.390 . S
C2217 H2221 0.950 . S
H2218 C2214 0.950 . S
C2219 C2217 1.390 . S
C2219 C2220 1.387 . S
C2219 H2222 0.950 . S
C2220 C2219 1.387 . S
C2220 C2223 1.387 . S
H2221 C2217 0.950 . S
H2222 C2219 0.950 . S
C2223 C2214 1.390 . S
C2223 H2216 0.950 . S
C2223 C2220 1.387 . S
C2224 C2225 1.387 . S
C2224 H2228 0.950 . S
C2224 C2233 1.390 . S
C2225 C2224 1.387 . S
C2225 C2227 1.387 . S
H2226 C2233 0.950 . S
C2227 C2225 1.387 . S
C2227 C2229 1.390 . S
C2227 H2231 0.950 . S
H2228 C2224 0.950 . S
C2229 C2227 1.390 . S
C2229 C2230 1.387 . S
C2229 H2232 0.950 . S
C2230 C2229 1.387 . S
C2230 C2233 1.387 . S
H2231 C2227 0.950 . S
H2232 C2229 0.950 . S
C2233 C2224 1.390 . S
C2233 H2226 0.950 . S
C2233 C2230 1.387 . S
C2234 C2235 1.387 . S
C2234 H2238 0.950 . S
C2234 C2243 1.390 . S
C2235 C2234 1.387 . S
C2235 C2237 1.387 . S
H2236 C2243 0.950 . S
C2237 C2235 1.387 . S
C2237 C2239 1.390 . S
C2237 H2241 0.950 . S
H2238 C2234 0.950 . S
C2239 C2237 1.390 . S
C2239 C2240 1.387 . S
C2239 H2242 0.950 . S
C2240 C2239 1.387 . S
C2240 C2243 1.387 . S
H2241 C2237 0.950 . S
H2242 C2239 0.950 . S
C2243 C2234 1.390 . S
C2243 H2236 0.950 . S
C2243 C2240 1.387 . S
C2244 C2245 1.387 . S
C2244 H2248 0.950 . S
C2244 C2253 1.390 . S
C2245 C2244 1.387 . S
C2245 C2247 1.387 . S
H2246 C2253 0.950 . S
C2247 C2245 1.387 . S
C2247 C2249 1.390 . S
C2247 H2251 0.950 . S
H2248 C2244 0.950 . S
C2249 C2247 1.390 . S
C2249 C2250 1.387 . S
C2249 H2252 0.950 . S
C2250 C2249 1.387 . S
C2250 C2253 1.387 . S
H2251 C2247 0.950 . S
H2252 C2249 0.950 . S
C2253 C2244 1.390 . S
C2253 H2246 0.950 . S
C2253 C2250 1.387 . S
C2254 C2255 1.387 . S
C2254 H2258 0.950 . S
C2254 C2263 1.390 . S
C2255 C2254 1.387 . S
C2255 C2257 1.387 . S
H2256 C2263 0.950 . S
C2257 C2255 1.387 . S
C2257 C2259 1.390 . S
C2257 H2261 0.950 . S
H2258 C2254 0.950 . S
C2259 C2257 1.390 . S
C2259 C2260 1.387 . S
C2259 H2262 0.950 . S
C2260 C2259 1.387 . S
C2260 C2263 1.387 . S
H2261 C2257 0.950 . S
H2262 C2259 0.950 . S
C2263 C2254 1.390 . S
C2263 H2256 0.950 . S
C2263 C2260 1.387 . S
C2264 C2265 1.387 . S
C2264 H2268 0.950 . S
C2264 C2273 1.390 . S
C2265 C2264 1.387 . S
C2265 C2267 1.387 . S
H2266 C2273 0.950 . S
C2267 C2265 1.387 . S
C2267 C2269 1.390 . S
C2267 H2271 0.950 . S
H2268 C2264 0.950 . S
C2269 C2267 1.390 . S
C2269 C2270 1.387 . S
C2269 H2272 0.950 . S
C2270 C2269 1.387 . S
C2270 C2273 1.387 . S
H2271 C2267 0.950 . S
H2272 C2269 0.950 . S
C2273 C2264 1.390 . S
C2273 H2266 0.950 . S
C2273 C2270 1.387 . S
C2274 C2275 1.387 . S
C2274 H2278 0.950 . S
C2274 C2283 1.390 . S
C2275 C2274 1.387 . S
C2275 C2277 1.387 . S
H2276 C2283 0.950 . S
C2277 C2275 1.387 . S
C2277 C2279 1.390 . S
C2277 H2281 0.950 . S
H2278 C2274 0.950 . S
C2279 C2277 1.390 . S
C2279 C2280 1.387 . S
C2279 H2282 0.950 . S
C2280 C2279 1.387 . S
C2280 C2283 1.387 . S
H2281 C2277 0.950 . S
H2282 C2279 0.950 . S
C2283 C2274 1.390 . S
C2283 H2276 0.950 . S
C2283 C2280 1.387 . S
C2284 C2285 1.387 . S
C2284 H2288 0.950 . S
C2284 C2293 1.390 . S
C2285 C2284 1.387 . S
C2285 C2287 1.387 . S
H2286 C2293 0.950 . S
C2287 C2285 1.387 . S
C2287 C2289 1.390 . S
C2287 H2291 0.950 . S
H2288 C2284 0.950 . S
C2289 C2287 1.390 . S
C2289 C2290 1.387 . S
C2289 H2292 0.950 . S
C2290 C2289 1.387 . S
C2290 C2293 1.387 . S
H2291 C2287 0.950 . S
H2292 C2289 0.950 . S
C2293 C2284 1.390 . S
C2293 H2286 0.950 . S
C2293 C2290 1.387 . S
C2294 C2295 1.387 . S
C2294 H2298 0.950 . S
C2294 C2303 1.390 . S
C2295 C2294 1.387 . S
C2295 C2297 1.387 . S
H2296 C2303 0.950 . S
C2297 C2295 1.387 . S
C2297 C2299 1.390 . S
C2297 H2301 0.950 . S
H2298 C2294 0.950 . S
C2299 C2297 1.390 . S
C2299 C2300 1.387 . S
C2299 H2302 0.950 . S
C2300 C2299 1.387 . S
C2300 C2303 1.387 . S
H2301 C2297 0.950 . S
H2302 C2299 0.950 . S
C2303 C2294 1.390 . S
C2303 H2296 0.950 . S
C2303 C2300 1.387 . S
C1225 C4 1.303 . S
C1230 C76 1.279 1_545 S
C1235 C8 1.279 1_655 S
C1240 C38 1.302 . S
C1245 C72 1.302 . S
C1250 C42 1.279 . S
C1255 C106 1.303 . S
C1260 C144 1.282 1_455 S
C1265 C178 1.282 . S
C1270 C140 1.302 . S
C1275 C174 1.302 . S
C1280 C110 1.282 1_565 S
C1285 C217 1.302 . S
C1290 C289 1.282 1_565 S
C1295 C251 1.302 . S
C1300 C221 1.279 1_455 S
C1305 C285 1.302 . S
C1310 C255 1.279 . S
C1315 C319 1.302 . S
C1320 C357 1.279 1_655 S
C1325 C391 1.279 . S
C1330 C353 1.303 . S
C1335 C323 1.279 1_545 S
C1340 C387 1.303 . S
C1345 C484 1.282 . S
C1350 C412 1.301 . S
C1355 C446 1.303 . S
C1360 C416 1.280 . S
C1365 C450 1.279 . S
C1370 C480 1.302 . S
C1375 C514 1.303 . S
C1380 C552 1.279 . S
C1385 C586 1.282 . S
C1390 C548 1.301 . S
C1395 C518 1.282 . S
C1400 C582 1.302 . S
C1405 C625 1.302 . S
C1410 C697 1.282 . S
C1415 C659 1.301 . S
C1420 C629 1.280 . S
C1425 C663 1.282 . S
C1430 C693 1.302 . S
C1435 C765 1.282 . S
C1440 C727 1.302 . S
C1445 C761 1.301 . S
C1450 C799 1.282 . S
C1455 C731 1.282 . S
C1460 C795 1.302 . S
C1465 C820 1.302 . S
C1470 C892 1.282 . S
C1475 C854 1.303 . S
C1480 C824 1.279 . S
C1485 C888 1.303 . S
C1490 C858 1.282 . S
C1495 C922 1.302 . S
C1500 C960 1.279 . S
C1505 C956 1.302 . S
C1510 C994 1.282 . S
C1515 C990 1.302 . S
C1520 C926 1.282 . S
C1525 C1033 1.302 . S
C1530 C1105 1.282 . S
C1535 C1067 1.302 . S
C1540 C1037 1.282 . S
C1545 C1071 1.282 . S
C1550 C1101 1.302 . S
C1555 C1135 1.302 . S
C1560 C1173 1.279 . S
C1565 C1169 1.303 . S
C1570 C1207 1.279 . S
C1575 C1139 1.280 . S
C1580 C1203 1.301 . S
C1585 C17 1.018 . S
C1590 C684 1.032 . S
C1595 C616 1.032 . S
C1600 C51 1.018 . S
C1605 C85 1.018 . S
C1610 C650 1.032 . S
C1615 C119 1.020 . S
C1620 C1160 1.031 . S
C1625 C1194 1.031 . S
C1630 C153 1.021 . S
C1635 C187 1.018 . S
C1640 C1126 1.032 . S
C1645 C897 1.032 . S
C1650 C212 1.018 . S
C1655 C246 1.020 . S
C1660 C829 1.030 . S
C1665 C280 1.019 . S
C1670 C863 1.031 . S
C1675 C557 1.031 . S
C1680 C314 1.019 . S
C1685 C591 1.032 . S
C1690 C348 1.018 . S
C1695 C523 1.031 . S
C1700 C382 1.021 . S
C1705 C425 1.020 . S
C1710 C1092 1.030 . S
C1715 C459 1.017 . S
C1720 C1024 1.032 . S
C1725 C1058 1.031 . S
C1730 C493 1.018 . S
C1735 C344 1.031 . S
C1740 C527 1.020 . S
C1745 C378 1.031 . S
C1750 C561 1.020 . S
C1755 C310 1.030 . S
C1760 C595 1.020 . S
C1765 C81 1.030 . S
C1770 C620 1.021 . S
C1775 C654 1.018 . S
C1780 C13 1.032 . S
C1785 C688 1.018 . S
C1790 C47 1.032 . S
C1795 C965 1.032 . S
C1800 C722 1.017 . S
C1805 C999 1.031 . S
C1810 C756 1.021 . S
C1815 C790 1.020 . S
C1820 C931 1.031 . S
C1825 C276 1.030 . S
C1830 C833 1.020 . S
C1835 C208 1.032 . S
C1840 C867 1.018 . S
C1845 C242 1.031 . S
C1850 C901 1.018 . S
C1855 C935 1.018 . S
C1860 C752 1.032 . S
C1865 C786 1.032 . S
C1870 C969 1.018 . S
C1875 C1003 1.021 . S
C1880 C718 1.031 . S
C1885 C1028 1.020 . S
C1890 C489 1.030 . S
C1895 C1062 1.021 . S
C1900 C421 1.030 . S
C1905 C1096 1.020 . S
C1910 C455 1.030 . S
C1915 C1130 1.021 . S
C1920 C149 1.031 . S
C1925 C183 1.032 . S
C1930 C1164 1.018 . S
C1935 C115 1.030 . S
C1940 C1198 1.020 . S
C1945 C1015 1.520 . S
C1950 C29 1.520 . S
C1955 C947 1.520 . S
C1960 C63 1.520 . S
C1965 C97 1.520 . S
C1970 C981 1.521 . S
C1975 C471 1.523 . S
C1980 C131 1.523 . S
C1985 C165 1.520 . S
C1990 C505 1.521 . S
C1995 C199 1.523 . S
C2000 C437 1.523 . S
C2005 C204 1.520 . S
C2010 C782 1.520 . S
C2015 C238 1.523 . S
C2020 C714 1.523 . S
C2025 C272 1.522 . S
C2030 C748 1.521 . S
C2035 C1054 1.522 . S
C2040 C306 1.523 . S
C2045 C1088 1.523 . S
C2050 C340 1.523 . S
C2055 C1020 1.523 . S
C2060 C374 1.523 . S
C2065 C539 1.523 . S
C2070 C879 1.523 . S
C2075 C573 1.523 . S
C2080 C913 1.523 . S
C2085 C607 1.520 . S
C2090 C845 1.520 . S
C2095 C612 1.523 . S
C2100 C1190 1.523 . S
C2105 C1122 1.520 . S
C2110 C646 1.521 . S
C2115 C680 1.523 . S
C2120 C1156 1.523 . S
C2125 C136 2.192 . S
C2130 C0 2.192 . S
C2135 C170 2.190 . S
C2140 C34 2.190 . S
C2145 C102 2.192 . S
C2150 C68 2.192 . S
C2155 C233 2.192 . S
C2160 C369 2.192 . S
C2165 C403 2.192 . S
C2170 C267 2.191 . S
C2175 C301 2.192 . S
C2180 C335 2.192 . S
C2185 C544 2.190 . S
C2190 C408 2.190 . S
C2195 C578 2.190 . S
C2200 C442 2.191 . S
C2205 C510 2.192 . S
C2210 C476 2.192 . S
C2215 C777 2.192 . S
C2220 C641 2.192 . S
C2225 C675 2.190 . S
C2230 C811 2.191 . S
C2235 C709 2.192 . S
C2240 C743 2.192 . S
C2245 C816 2.192 . S
C2250 C952 2.191 . S
C2255 C986 2.192 . S
C2260 C850 2.191 . S
C2265 C884 2.192 . S
C2270 C918 2.192 . S
C2275 C1049 2.191 . S
C2280 C1185 2.191 . S
C2285 C1219 2.192 . S
C2290 C1083 2.191 . S
C2295 C1117 2.189 . S
C2300 C1151 2.189 . S
