# Generated by pormake.
# Topology srs-f, (5)-cn, num edge types: 1
# Building blocks:
#     Node 0, Type 0, BuildingBlock: XOMCOT_clean_sbu_0, # of connection points: 5
#     Node 1, Type 0, BuildingBlock: XOMCOT_clean_sbu_0, # of connection points: 5
#     Node 2, Type 0, BuildingBlock: XOMCOT_clean_sbu_0, # of connection points: 5
#     Node 3, Type 0, BuildingBlock: XOMCOT_clean_sbu_0, # of connection points: 5
#     Node 4, Type 0, BuildingBlock: XOMCOT_clean_sbu_0, # of connection points: 5
#     Node 5, Type 0, BuildingBlock: XOMCOT_clean_sbu_0, # of connection points: 5
#     Node 6, Type 0, BuildingBlock: XOMCOT_clean_sbu_0, # of connection points: 5
#     Node 7, Type 0, BuildingBlock: XOMCOT_clean_sbu_0, # of connection points: 5
#     Node 8, Type 0, BuildingBlock: XOMCOT_clean_sbu_0, # of connection points: 5
#     Node 9, Type 0, BuildingBlock: XOMCOT_clean_sbu_0, # of connection points: 5
#     Node 10, Type 0, BuildingBlock: XOMCOT_clean_sbu_0, # of connection points: 5
#     Node 11, Type 0, BuildingBlock: XOMCOT_clean_sbu_0, # of connection points: 5
#     Node 12, Type 0, BuildingBlock: XOMCOT_clean_sbu_0, # of connection points: 5
#     Node 13, Type 0, BuildingBlock: XOMCOT_clean_sbu_0, # of connection points: 5
#     Node 14, Type 0, BuildingBlock: XOMCOT_clean_sbu_0, # of connection points: 5
#     Node 15, Type 0, BuildingBlock: XOMCOT_clean_sbu_0, # of connection points: 5
#     Node 16, Type 0, BuildingBlock: XOMCOT_clean_sbu_0, # of connection points: 5
#     Node 17, Type 0, BuildingBlock: XOMCOT_clean_sbu_0, # of connection points: 5
#     Node 18, Type 0, BuildingBlock: XOMCOT_clean_sbu_0, # of connection points: 5
#     Node 19, Type 0, BuildingBlock: XOMCOT_clean_sbu_0, # of connection points: 5
#     Node 20, Type 0, BuildingBlock: XOMCOT_clean_sbu_0, # of connection points: 5
#     Node 21, Type 0, BuildingBlock: XOMCOT_clean_sbu_0, # of connection points: 5
#     Node 22, Type 0, BuildingBlock: XOMCOT_clean_sbu_0, # of connection points: 5
#     Node 23, Type 0, BuildingBlock: XOMCOT_clean_sbu_0, # of connection points: 5
#     Node 24, Type 0, BuildingBlock: XOMCOT_clean_sbu_0, # of connection points: 5
#     Node 25, Type 0, BuildingBlock: XOMCOT_clean_sbu_0, # of connection points: 5
#     Node 26, Type 0, BuildingBlock: XOMCOT_clean_sbu_0, # of connection points: 5
#     Node 27, Type 0, BuildingBlock: XOMCOT_clean_sbu_0, # of connection points: 5
#     Node 28, Type 0, BuildingBlock: XOMCOT_clean_sbu_0, # of connection points: 5
#     Node 29, Type 0, BuildingBlock: XOMCOT_clean_sbu_0, # of connection points: 5
#     Node 30, Type 0, BuildingBlock: XOMCOT_clean_sbu_0, # of connection points: 5
#     Node 31, Type 0, BuildingBlock: XOMCOT_clean_sbu_0, # of connection points: 5
#     Node 32, Type 0, BuildingBlock: XOMCOT_clean_sbu_0, # of connection points: 5
#     Node 33, Type 0, BuildingBlock: XOMCOT_clean_sbu_0, # of connection points: 5
#     Node 34, Type 0, BuildingBlock: XOMCOT_clean_sbu_0, # of connection points: 5
#     Node 35, Type 0, BuildingBlock: XOMCOT_clean_sbu_0, # of connection points: 5
#     Node 36, Type 0, BuildingBlock: XOMCOT_clean_sbu_0, # of connection points: 5
#     Node 37, Type 0, BuildingBlock: XOMCOT_clean_sbu_0, # of connection points: 5
#     Node 38, Type 0, BuildingBlock: XOMCOT_clean_sbu_0, # of connection points: 5
#     Node 39, Type 0, BuildingBlock: XOMCOT_clean_sbu_0, # of connection points: 5
#     Node 40, Type 0, BuildingBlock: XOMCOT_clean_sbu_0, # of connection points: 5
#     Node 41, Type 0, BuildingBlock: XOMCOT_clean_sbu_0, # of connection points: 5
#     Node 42, Type 0, BuildingBlock: XOMCOT_clean_sbu_0, # of connection points: 5
#     Node 43, Type 0, BuildingBlock: XOMCOT_clean_sbu_0, # of connection points: 5
#     Node 44, Type 0, BuildingBlock: XOMCOT_clean_sbu_0, # of connection points: 5
#     Node 45, Type 0, BuildingBlock: XOMCOT_clean_sbu_0, # of connection points: 5
#     Node 46, Type 0, BuildingBlock: XOMCOT_clean_sbu_0, # of connection points: 5
#     Node 47, Type 0, BuildingBlock: XOMCOT_clean_sbu_0, # of connection points: 5
#     Edge 48, Type (0, 0), BuildingBlock: AJUNOK_clean_linker_0, # of connection points: 2
#     Edge 49, Type (0, 0), BuildingBlock: AJUNOK_clean_linker_0, # of connection points: 2
#     Edge 50, Type (0, 0), BuildingBlock: AJUNOK_clean_linker_0, # of connection points: 2
#     Edge 51, Type (0, 0), BuildingBlock: AJUNOK_clean_linker_0, # of connection points: 2
#     Edge 52, Type (0, 0), BuildingBlock: AJUNOK_clean_linker_0, # of connection points: 2
#     Edge 53, Type (0, 0), BuildingBlock: AJUNOK_clean_linker_0, # of connection points: 2
#     Edge 54, Type (0, 0), BuildingBlock: AJUNOK_clean_linker_0, # of connection points: 2
#     Edge 55, Type (0, 0), BuildingBlock: AJUNOK_clean_linker_0, # of connection points: 2
#     Edge 56, Type (0, 0), BuildingBlock: AJUNOK_clean_linker_0, # of connection points: 2
#     Edge 57, Type (0, 0), BuildingBlock: AJUNOK_clean_linker_0, # of connection points: 2
#     Edge 58, Type (0, 0), BuildingBlock: AJUNOK_clean_linker_0, # of connection points: 2
#     Edge 59, Type (0, 0), BuildingBlock: AJUNOK_clean_linker_0, # of connection points: 2
#     Edge 60, Type (0, 0), BuildingBlock: AJUNOK_clean_linker_0, # of connection points: 2
#     Edge 61, Type (0, 0), BuildingBlock: AJUNOK_clean_linker_0, # of connection points: 2
#     Edge 62, Type (0, 0), BuildingBlock: AJUNOK_clean_linker_0, # of connection points: 2
#     Edge 63, Type (0, 0), BuildingBlock: AJUNOK_clean_linker_0, # of connection points: 2
#     Edge 64, Type (0, 0), BuildingBlock: AJUNOK_clean_linker_0, # of connection points: 2
#     Edge 65, Type (0, 0), BuildingBlock: AJUNOK_clean_linker_0, # of connection points: 2
#     Edge 66, Type (0, 0), BuildingBlock: AJUNOK_clean_linker_0, # of connection points: 2
#     Edge 67, Type (0, 0), BuildingBlock: AJUNOK_clean_linker_0, # of connection points: 2
#     Edge 68, Type (0, 0), BuildingBlock: AJUNOK_clean_linker_0, # of connection points: 2
#     Edge 69, Type (0, 0), BuildingBlock: AJUNOK_clean_linker_0, # of connection points: 2
#     Edge 70, Type (0, 0), BuildingBlock: AJUNOK_clean_linker_0, # of connection points: 2
#     Edge 71, Type (0, 0), BuildingBlock: AJUNOK_clean_linker_0, # of connection points: 2
#     Edge 72, Type (0, 0), BuildingBlock: AJUNOK_clean_linker_0, # of connection points: 2
#     Edge 73, Type (0, 0), BuildingBlock: AJUNOK_clean_linker_0, # of connection points: 2
#     Edge 74, Type (0, 0), BuildingBlock: AJUNOK_clean_linker_0, # of connection points: 2
#     Edge 75, Type (0, 0), BuildingBlock: AJUNOK_clean_linker_0, # of connection points: 2
#     Edge 76, Type (0, 0), BuildingBlock: AJUNOK_clean_linker_0, # of connection points: 2
#     Edge 77, Type (0, 0), BuildingBlock: AJUNOK_clean_linker_0, # of connection points: 2
#     Edge 78, Type (0, 0), BuildingBlock: AJUNOK_clean_linker_0, # of connection points: 2
#     Edge 79, Type (0, 0), BuildingBlock: AJUNOK_clean_linker_0, # of connection points: 2
#     Edge 80, Type (0, 0), BuildingBlock: AJUNOK_clean_linker_0, # of connection points: 2
#     Edge 81, Type (0, 0), BuildingBlock: AJUNOK_clean_linker_0, # of connection points: 2
#     Edge 82, Type (0, 0), BuildingBlock: AJUNOK_clean_linker_0, # of connection points: 2
#     Edge 83, Type (0, 0), BuildingBlock: AJUNOK_clean_linker_0, # of connection points: 2
#     Edge 84, Type (0, 0), BuildingBlock: AJUNOK_clean_linker_0, # of connection points: 2
#     Edge 85, Type (0, 0), BuildingBlock: AJUNOK_clean_linker_0, # of connection points: 2
#     Edge 86, Type (0, 0), BuildingBlock: AJUNOK_clean_linker_0, # of connection points: 2
#     Edge 87, Type (0, 0), BuildingBlock: AJUNOK_clean_linker_0, # of connection points: 2
#     Edge 88, Type (0, 0), BuildingBlock: AJUNOK_clean_linker_0, # of connection points: 2
#     Edge 89, Type (0, 0), BuildingBlock: AJUNOK_clean_linker_0, # of connection points: 2
#     Edge 90, Type (0, 0), BuildingBlock: AJUNOK_clean_linker_0, # of connection points: 2
#     Edge 91, Type (0, 0), BuildingBlock: AJUNOK_clean_linker_0, # of connection points: 2
#     Edge 92, Type (0, 0), BuildingBlock: AJUNOK_clean_linker_0, # of connection points: 2
#     Edge 93, Type (0, 0), BuildingBlock: AJUNOK_clean_linker_0, # of connection points: 2
#     Edge 94, Type (0, 0), BuildingBlock: AJUNOK_clean_linker_0, # of connection points: 2
#     Edge 95, Type (0, 0), BuildingBlock: AJUNOK_clean_linker_0, # of connection points: 2
#     Edge 96, Type (0, 0), BuildingBlock: AJUNOK_clean_linker_0, # of connection points: 2
#     Edge 97, Type (0, 0), BuildingBlock: AJUNOK_clean_linker_0, # of connection points: 2
#     Edge 98, Type (0, 0), BuildingBlock: AJUNOK_clean_linker_0, # of connection points: 2
#     Edge 99, Type (0, 0), BuildingBlock: AJUNOK_clean_linker_0, # of connection points: 2
#     Edge 100, Type (0, 0), BuildingBlock: AJUNOK_clean_linker_0, # of connection points: 2
#     Edge 101, Type (0, 0), BuildingBlock: AJUNOK_clean_linker_0, # of connection points: 2
#     Edge 102, Type (0, 0), BuildingBlock: AJUNOK_clean_linker_0, # of connection points: 2
#     Edge 103, Type (0, 0), BuildingBlock: AJUNOK_clean_linker_0, # of connection points: 2
#     Edge 104, Type (0, 0), BuildingBlock: AJUNOK_clean_linker_0, # of connection points: 2
#     Edge 105, Type (0, 0), BuildingBlock: AJUNOK_clean_linker_0, # of connection points: 2
#     Edge 106, Type (0, 0), BuildingBlock: AJUNOK_clean_linker_0, # of connection points: 2
#     Edge 107, Type (0, 0), BuildingBlock: AJUNOK_clean_linker_0, # of connection points: 2
#     Edge 108, Type (0, 0), BuildingBlock: AJUNOK_clean_linker_0, # of connection points: 2
#     Edge 109, Type (0, 0), BuildingBlock: AJUNOK_clean_linker_0, # of connection points: 2
#     Edge 110, Type (0, 0), BuildingBlock: AJUNOK_clean_linker_0, # of connection points: 2
#     Edge 111, Type (0, 0), BuildingBlock: AJUNOK_clean_linker_0, # of connection points: 2
#     Edge 112, Type (0, 0), BuildingBlock: AJUNOK_clean_linker_0, # of connection points: 2
#     Edge 113, Type (0, 0), BuildingBlock: AJUNOK_clean_linker_0, # of connection points: 2
#     Edge 114, Type (0, 0), BuildingBlock: AJUNOK_clean_linker_0, # of connection points: 2
#     Edge 115, Type (0, 0), BuildingBlock: AJUNOK_clean_linker_0, # of connection points: 2
#     Edge 116, Type (0, 0), BuildingBlock: AJUNOK_clean_linker_0, # of connection points: 2
#     Edge 117, Type (0, 0), BuildingBlock: AJUNOK_clean_linker_0, # of connection points: 2
#     Edge 118, Type (0, 0), BuildingBlock: AJUNOK_clean_linker_0, # of connection points: 2
#     Edge 119, Type (0, 0), BuildingBlock: AJUNOK_clean_linker_0, # of connection points: 2
#     Edge 120, Type (0, 0), BuildingBlock: AJUNOK_clean_linker_0, # of connection points: 2
#     Edge 121, Type (0, 0), BuildingBlock: AJUNOK_clean_linker_0, # of connection points: 2
#     Edge 122, Type (0, 0), BuildingBlock: AJUNOK_clean_linker_0, # of connection points: 2
#     Edge 123, Type (0, 0), BuildingBlock: AJUNOK_clean_linker_0, # of connection points: 2
#     Edge 124, Type (0, 0), BuildingBlock: AJUNOK_clean_linker_0, # of connection points: 2
#     Edge 125, Type (0, 0), BuildingBlock: AJUNOK_clean_linker_0, # of connection points: 2
#     Edge 126, Type (0, 0), BuildingBlock: AJUNOK_clean_linker_0, # of connection points: 2
#     Edge 127, Type (0, 0), BuildingBlock: AJUNOK_clean_linker_0, # of connection points: 2
#     Edge 128, Type (0, 0), BuildingBlock: AJUNOK_clean_linker_0, # of connection points: 2
#     Edge 129, Type (0, 0), BuildingBlock: AJUNOK_clean_linker_0, # of connection points: 2
#     Edge 130, Type (0, 0), BuildingBlock: AJUNOK_clean_linker_0, # of connection points: 2
#     Edge 131, Type (0, 0), BuildingBlock: AJUNOK_clean_linker_0, # of connection points: 2
#     Edge 132, Type (0, 0), BuildingBlock: AJUNOK_clean_linker_0, # of connection points: 2
#     Edge 133, Type (0, 0), BuildingBlock: AJUNOK_clean_linker_0, # of connection points: 2
#     Edge 134, Type (0, 0), BuildingBlock: AJUNOK_clean_linker_0, # of connection points: 2
#     Edge 135, Type (0, 0), BuildingBlock: AJUNOK_clean_linker_0, # of connection points: 2
#     Edge 136, Type (0, 0), BuildingBlock: AJUNOK_clean_linker_0, # of connection points: 2
#     Edge 137, Type (0, 0), BuildingBlock: AJUNOK_clean_linker_0, # of connection points: 2
#     Edge 138, Type (0, 0), BuildingBlock: AJUNOK_clean_linker_0, # of connection points: 2
#     Edge 139, Type (0, 0), BuildingBlock: AJUNOK_clean_linker_0, # of connection points: 2
#     Edge 140, Type (0, 0), BuildingBlock: AJUNOK_clean_linker_0, # of connection points: 2
#     Edge 141, Type (0, 0), BuildingBlock: AJUNOK_clean_linker_0, # of connection points: 2
#     Edge 142, Type (0, 0), BuildingBlock: AJUNOK_clean_linker_0, # of connection points: 2
#     Edge 143, Type (0, 0), BuildingBlock: AJUNOK_clean_linker_0, # of connection points: 2
#     Edge 144, Type (0, 0), BuildingBlock: AJUNOK_clean_linker_0, # of connection points: 2
#     Edge 145, Type (0, 0), BuildingBlock: AJUNOK_clean_linker_0, # of connection points: 2
#     Edge 146, Type (0, 0), BuildingBlock: AJUNOK_clean_linker_0, # of connection points: 2
#     Edge 147, Type (0, 0), BuildingBlock: AJUNOK_clean_linker_0, # of connection points: 2
#     Edge 148, Type (0, 0), BuildingBlock: AJUNOK_clean_linker_0, # of connection points: 2
#     Edge 149, Type (0, 0), BuildingBlock: AJUNOK_clean_linker_0, # of connection points: 2
#     Edge 150, Type (0, 0), BuildingBlock: AJUNOK_clean_linker_0, # of connection points: 2
#     Edge 151, Type (0, 0), BuildingBlock: AJUNOK_clean_linker_0, # of connection points: 2
#     Edge 152, Type (0, 0), BuildingBlock: AJUNOK_clean_linker_0, # of connection points: 2
#     Edge 153, Type (0, 0), BuildingBlock: AJUNOK_clean_linker_0, # of connection points: 2
#     Edge 154, Type (0, 0), BuildingBlock: AJUNOK_clean_linker_0, # of connection points: 2
#     Edge 155, Type (0, 0), BuildingBlock: AJUNOK_clean_linker_0, # of connection points: 2
#     Edge 156, Type (0, 0), BuildingBlock: AJUNOK_clean_linker_0, # of connection points: 2
#     Edge 157, Type (0, 0), BuildingBlock: AJUNOK_clean_linker_0, # of connection points: 2
#     Edge 158, Type (0, 0), BuildingBlock: AJUNOK_clean_linker_0, # of connection points: 2
#     Edge 159, Type (0, 0), BuildingBlock: AJUNOK_clean_linker_0, # of connection points: 2
#     Edge 160, Type (0, 0), BuildingBlock: AJUNOK_clean_linker_0, # of connection points: 2
#     Edge 161, Type (0, 0), BuildingBlock: AJUNOK_clean_linker_0, # of connection points: 2
#     Edge 162, Type (0, 0), BuildingBlock: AJUNOK_clean_linker_0, # of connection points: 2
#     Edge 163, Type (0, 0), BuildingBlock: AJUNOK_clean_linker_0, # of connection points: 2
#     Edge 164, Type (0, 0), BuildingBlock: AJUNOK_clean_linker_0, # of connection points: 2
#     Edge 165, Type (0, 0), BuildingBlock: AJUNOK_clean_linker_0, # of connection points: 2
#     Edge 166, Type (0, 0), BuildingBlock: AJUNOK_clean_linker_0, # of connection points: 2
#     Edge 167, Type (0, 0), BuildingBlock: AJUNOK_clean_linker_0, # of connection points: 2
# Relax obj value: 0.904
# Max RMSD: 0.263
# Mean RMSD: 0.263
data_MOF--net-srs-f--node1-XOMCOT_clean_sbu_0--edge1-AJUNOK_clean_linker_0
_symmetry_space_group_name_H-M    P1
_symmetry_Int_Tables_number       1
_symmetry_cell_setting            triclinic
loop_
_symmetry_equiv_pos_as_xyz
'x, y, z'
_cell_length_a     69.128978
_cell_length_b     69.12036
_cell_length_c     69.109719
_cell_angle_alpha  90.033972
_cell_angle_beta   89.954797
_cell_angle_gamma 90.043114
loop_
_atom_site_label
_atom_site_type_symbol
_atom_site_fract_x
_atom_site_fract_y
_atom_site_fract_z
_atom_type_partial_charge
Co0 Co 0.08376 0.46761 0.22649 0.0
C1 C 0.08387 0.42429 0.22594 0.0
C2 C 0.09187 0.43569 0.25357 0.0
C3 C 0.0908 0.41599 0.25509 0.0
N4 N 0.0875 0.44108 0.23527 0.0
N5 N 0.08571 0.40885 0.23776 0.0
H6 H 0.07816 0.42334 0.21141 0.0
H7 H 0.09426 0.4453 0.26561 0.0
C8 C 0.0631 0.48292 0.25985 0.0
O9 O 0.0506 0.48852 0.24676 0.0
N10 N 0.08002 0.49446 0.21836 0.0
C11 C 0.09136 0.50974 0.22272 0.0
C12 C 0.08172 0.52655 0.21796 0.0
C13 C 0.06373 0.50235 0.21091 0.0
N14 N 0.06421 0.52187 0.21068 0.0
C15 C 0.12032 0.47333 0.20952 0.0
C16 C 0.14166 0.45906 0.24006 0.0
C17 C 0.14931 0.45774 0.22124 0.0
C18 C 0.13898 0.46643 0.20615 0.0
C19 C 0.12287 0.46638 0.2428 0.0
N20 N 0.11178 0.47133 0.22723 0.0
H21 H 0.11196 0.47829 0.19729 0.0
H22 H 0.11675 0.46631 0.25714 0.0
H23 H 0.10509 0.50889 0.23014 0.0
H24 H 0.0508 0.49415 0.20789 0.0
O25 O 0.08221 0.45934 0.19975 0.0
O26 O 0.05713 0.46148 0.21932 0.0
O27 O 0.07913 0.47534 0.25444 0.0
C28 C 0.06364 0.458 0.20196 0.0
H29 H 0.09165 0.40772 0.26836 0.0
H30 H 0.08675 0.5411 0.22084 0.0
H31 H 0.14931 0.45294 0.25227 0.0
H32 H 0.14459 0.46633 0.19151 0.0
Co33 Co 0.96914 0.83352 0.4774 0.0
C34 C 0.00975 0.8352 0.46361 0.0
C35 C 0.00716 0.84469 0.49289 0.0
C36 C 0.02634 0.84174 0.48896 0.0
N37 N 0.99656 0.83999 0.47717 0.0
N38 N 0.02794 0.83505 0.47073 0.0
H39 H 0.0061 0.83029 0.44926 0.0
H40 H 0.00148 0.84793 0.50705 0.0
C41 C 0.9594 0.82672 0.51972 0.0
O42 O 0.94179 0.83341 0.51731 0.0
N43 N 0.94193 0.82645 0.47801 0.0
C44 C 0.92619 0.83665 0.4727 0.0
C45 C 0.91027 0.82457 0.4732 0.0
C46 C 0.9353 0.80841 0.4817 0.0
N47 N 0.91606 0.80681 0.47888 0.0
C48 C 0.95974 0.87082 0.46389 0.0
C49 C 0.97747 0.89022 0.49393 0.0
C50 C 0.97663 0.89904 0.47563 0.0
C51 C 0.96625 0.88969 0.46102 0.0
C52 C 0.97054 0.87122 0.49624 0.0
N53 N 0.9637 0.86111 0.48066 0.0
H54 H 0.95362 0.86336 0.45163 0.0
H55 H 0.97298 0.86404 0.50986 0.0
H56 H 0.92612 0.85156 0.46813 0.0
H57 H 0.94452 0.79654 0.48604 0.0
O58 O 0.96851 0.83253 0.44935 0.0
O59 O 0.97492 0.80755 0.46816 0.0
O60 O 0.97164 0.82758 0.50591 0.0
C61 C 0.97234 0.8142 0.45075 0.0
H62 H 0.03784 0.84186 0.49959 0.0
H63 H 0.89578 0.8284 0.46873 0.0
H64 H 0.98515 0.89708 0.50573 0.0
H65 H 0.96485 0.89619 0.44682 0.0
Co66 Co 0.60189 0.72019 0.72511 0.0
C67 C 0.5975 0.76121 0.71319 0.0
C68 C 0.59414 0.75764 0.7437 0.0
C69 C 0.59572 0.77695 0.73981 0.0
N70 N 0.59583 0.7476 0.72705 0.0
N71 N 0.59858 0.77931 0.72064 0.0
H72 H 0.59902 0.75782 0.69807 0.0
H73 H 0.59363 0.75154 0.75806 0.0
C74 C 0.60829 0.70723 0.76633 0.0
O75 O 0.59959 0.6907 0.76283 0.0
N76 N 0.60883 0.69299 0.72376 0.0
C77 C 0.59855 0.67722 0.71861 0.0
C78 C 0.61068 0.66132 0.71889 0.0
C79 C 0.6269 0.68641 0.72717 0.0
N80 N 0.6285 0.6672 0.7243 0.0
C81 C 0.56423 0.711 0.71265 0.0
C82 C 0.54633 0.73035 0.74265 0.0
C83 C 0.53716 0.72948 0.72457 0.0
C84 C 0.54565 0.71839 0.70998 0.0
C85 C 0.56497 0.72253 0.74477 0.0
N86 N 0.57443 0.71484 0.72917 0.0
H87 H 0.5713 0.70463 0.70027 0.0
H88 H 0.5726 0.72521 0.7581 0.0
H89 H 0.58346 0.67703 0.71467 0.0
H90 H 0.63876 0.6956 0.73168 0.0
O91 O 0.60158 0.72139 0.69711 0.0
O92 O 0.62749 0.72646 0.71509 0.0
O93 O 0.60887 0.72036 0.7534 0.0
C94 C 0.61994 0.72521 0.69789 0.0
H95 H 0.5972 0.7881 0.75071 0.0
H96 H 0.6068 0.64673 0.71476 0.0
H97 H 0.5401 0.73874 0.75433 0.0
H98 H 0.53892 0.71728 0.69587 0.0
Co99 Co 0.71351 0.3538 0.9764 0.0
C100 C 0.67138 0.35718 0.96881 0.0
C101 C 0.67715 0.33836 0.99253 0.0
C102 C 0.65773 0.34224 0.99236 0.0
N103 N 0.68595 0.34778 0.97776 0.0
N104 N 0.65422 0.35435 0.97767 0.0
H105 H 0.67342 0.36816 0.95789 0.0
H106 H 0.68427 0.33172 0.00463 0.0
C107 C 0.72521 0.35991 0.01841 0.0
O108 O 0.74296 0.35395 0.01521 0.0
N109 N 0.74081 0.36035 0.97569 0.0
C110 C 0.75589 0.35049 0.96822 0.0
C111 C 0.77209 0.36218 0.96882 0.0
C112 C 0.74805 0.37782 0.98061 0.0
N113 N 0.76711 0.37936 0.97668 0.0
C114 C 0.72102 0.31697 0.96032 0.0
C115 C 0.70822 0.29582 0.99161 0.0
C116 C 0.70653 0.28787 0.97295 0.0
C117 C 0.71469 0.29806 0.95753 0.0
C118 C 0.71514 0.3149 0.99381 0.0
N119 N 0.71901 0.32594 0.97785 0.0
H120 H 0.72555 0.32492 0.94771 0.0
H121 H 0.71483 0.3214 0.00801 0.0
H122 H 0.75522 0.33616 0.96209 0.0
H123 H 0.73939 0.38932 0.98678 0.0
O124 O 0.7125 0.35599 0.9485 0.0
O125 O 0.70788 0.38041 0.96847 0.0
O126 O 0.71238 0.35841 0.00523 0.0
C127 C 0.70932 0.37432 0.9507 0.0
H128 H 0.64766 0.33902 0.00394 0.0
H129 H 0.78616 0.35859 0.96299 0.0
H130 H 0.70251 0.2882 0.00406 0.0
H131 H 0.7144 0.29217 0.94299 0.0
Co132 Co 0.0852 0.72036 0.46158 0.0
C133 C 0.08461 0.76256 0.47008 0.0
C134 C 0.10086 0.75627 0.44463 0.0
C135 C 0.09823 0.77587 0.4456 0.0
N136 N 0.09225 0.74769 0.45999 0.0
N137 N 0.08756 0.77978 0.46133 0.0
H138 H 0.07443 0.76084 0.48181 0.0
H139 H 0.10596 0.74904 0.43183 0.0
C140 C 0.07883 0.70782 0.42024 0.0
O141 O 0.08627 0.69074 0.42392 0.0
N142 N 0.07755 0.69333 0.46262 0.0
C143 C 0.08705 0.67783 0.46961 0.0
C144 C 0.07486 0.662 0.46889 0.0
C145 C 0.05976 0.68672 0.45788 0.0
N146 N 0.05771 0.66764 0.46144 0.0
C147 C 0.12232 0.71164 0.47613 0.0
C148 C 0.14211 0.7255 0.44439 0.0
C149 C 0.1505 0.72723 0.4628 0.0
C150 C 0.14114 0.71851 0.47843 0.0
C151 C 0.12321 0.71807 0.44271 0.0
N152 N 0.11274 0.71384 0.45897 0.0
H153 H 0.11479 0.70692 0.48895 0.0
H154 H 0.1163 0.71852 0.42874 0.0
H155 H 0.10156 0.67793 0.47536 0.0
H156 H 0.04845 0.69581 0.45201 0.0
O157 O 0.08416 0.72151 0.48955 0.0
O158 O 0.05919 0.727 0.47049 0.0
O159 O 0.07953 0.72121 0.43293 0.0
C160 C 0.06587 0.72529 0.48802 0.0
H161 H 0.10091 0.78594 0.4339 0.0
H162 H 0.07814 0.64768 0.47426 0.0
H163 H 0.14913 0.73171 0.43183 0.0
H164 H 0.14739 0.71906 0.49279 0.0
Co165 Co 0.71217 0.83419 0.70895 0.0
C166 C 0.66936 0.83392 0.7148 0.0
C167 C 0.67746 0.84969 0.68953 0.0
C168 C 0.65773 0.8481 0.68977 0.0
N169 N 0.68497 0.84086 0.7053 0.0
N170 N 0.65266 0.83798 0.70553 0.0
H171 H 0.6701 0.82394 0.72679 0.0
H172 H 0.68551 0.85469 0.67718 0.0
C173 C 0.72775 0.82666 0.66846 0.0
O174 O 0.74554 0.83074 0.67365 0.0
N175 N 0.73929 0.82719 0.71215 0.0
C176 C 0.75479 0.83857 0.71558 0.0
C177 C 0.77106 0.82709 0.7168 0.0
C178 C 0.74648 0.809 0.71126 0.0
N179 N 0.76575 0.80847 0.71426 0.0
C180 C 0.7205 0.87041 0.72584 0.0
C181 C 0.70814 0.89234 0.69493 0.0
C182 C 0.70652 0.89998 0.71375 0.0
C183 C 0.7146 0.88941 0.72897 0.0
C184 C 0.71481 0.87325 0.69238 0.0
N185 N 0.71838 0.86186 0.70813 0.0
H186 H 0.72492 0.86203 0.73823 0.0
H187 H 0.7148 0.86707 0.67804 0.0
H188 H 0.75464 0.85413 0.71669 0.0
H189 H 0.73779 0.79632 0.70839 0.0
O190 O 0.70864 0.83199 0.73669 0.0
O191 O 0.70509 0.8078 0.71615 0.0
O192 O 0.71367 0.82974 0.68004 0.0
C193 C 0.70537 0.81371 0.73405 0.0
H194 H 0.64817 0.85143 0.67781 0.0
H195 H 0.7857 0.8322 0.71888 0.0
H196 H 0.70258 0.9002 0.68258 0.0
H197 H 0.71452 0.89505 0.7436 0.0
Co198 Co 0.60026 0.4723 0.95839 0.0
C199 C 0.5992 0.43211 0.97336 0.0
C200 C 0.59075 0.43349 0.94367 0.0
C201 C 0.59351 0.41448 0.9485 0.0
N202 N 0.59487 0.4447 0.95912 0.0
N203 N 0.59948 0.41365 0.96701 0.0
H204 H 0.60367 0.43632 0.98771 0.0
H205 H 0.58783 0.43861 0.92924 0.0
C206 C 0.608 0.48182 0.9161 0.0
O207 O 0.6013 0.49946 0.91825 0.0
N208 N 0.60615 0.49979 0.95743 0.0
C209 C 0.59488 0.51532 0.96093 0.0
C210 C 0.60624 0.53178 0.96012 0.0
C211 C 0.62406 0.50706 0.95452 0.0
N212 N 0.62457 0.52651 0.95599 0.0
C213 C 0.56254 0.4801 0.97171 0.0
C214 C 0.54426 0.46086 0.94189 0.0
C215 C 0.53538 0.46138 0.96017 0.0
C216 C 0.54412 0.47239 0.97471 0.0
C217 C 0.56284 0.46885 0.9395 0.0
N218 N 0.57249 0.47649 0.955 0.0
H219 H 0.56964 0.48691 0.98383 0.0
H220 H 0.57022 0.46659 0.92594 0.0
H221 H 0.57961 0.5149 0.96418 0.0
H222 H 0.63667 0.49814 0.95207 0.0
O223 O 0.60127 0.47342 0.98647 0.0
O224 O 0.62638 0.46756 0.96763 0.0
O225 O 0.60646 0.46956 0.92984 0.0
C226 C 0.61971 0.4701 0.98504 0.0
H227 H 0.59366 0.4025 0.93839 0.0
H228 H 0.60142 0.54647 0.96264 0.0
H229 H 0.53784 0.45269 0.93015 0.0
H230 H 0.53753 0.47354 0.9889 0.0
Co231 Co 0.97425 0.35345 0.21012 0.0
C232 C 0.01529 0.35035 0.22276 0.0
C233 C 0.01217 0.34612 0.19234 0.0
C234 C 0.03142 0.34786 0.19643 0.0
N235 N 0.00188 0.34822 0.20877 0.0
N236 N 0.03358 0.351 0.21561 0.0
H237 H 0.01161 0.35296 0.23768 0.0
H238 H 0.00628 0.34519 0.17792 0.0
C239 C 0.96247 0.35994 0.16849 0.0
O240 O 0.94595 0.351 0.17134 0.0
N241 N 0.94669 0.35917 0.21093 0.0
C242 C 0.93143 0.34707 0.21215 0.0
C243 C 0.91464 0.35786 0.21172 0.0
C244 C 0.93891 0.37707 0.20974 0.0
N245 N 0.91938 0.37677 0.21039 0.0
C246 C 0.96651 0.31504 0.22174 0.0
C247 C 0.98497 0.29843 0.19051 0.0
C248 C 0.98476 0.28851 0.20823 0.0
C249 C 0.97395 0.29632 0.22344 0.0
C250 C 0.9772 0.31711 0.18939 0.0
N251 N 0.96992 0.32589 0.20555 0.0
H252 H 0.96007 0.32155 0.23439 0.0
H253 H 0.97943 0.32517 0.17625 0.0
H254 H 0.93217 0.33149 0.21277 0.0
H255 H 0.94741 0.39015 0.20847 0.0
O256 O 0.97464 0.35297 0.2382 0.0
O257 O 0.97967 0.37908 0.22048 0.0
O258 O 0.97504 0.36081 0.18194 0.0
C259 C 0.97814 0.37142 0.2376 0.0
H260 H 0.04243 0.3492 0.18545 0.0
H261 H 0.90011 0.35207 0.21183 0.0
H262 H 0.9927 0.29258 0.17818 0.0
H263 H 0.97308 0.28899 0.23727 0.0
Co264 Co 0.22375 0.08168 0.46472 0.0
C265 C 0.21717 0.08141 0.42214 0.0
C266 C 0.24177 0.09843 0.42989 0.0
C267 C 0.24109 0.09726 0.41012 0.0
N268 N 0.22668 0.0886 0.43759 0.0
N269 N 0.2258 0.08629 0.40531 0.0
H270 H 0.20539 0.07117 0.42302 0.0
H271 H 0.25382 0.10433 0.43781 0.0
C272 C 0.26474 0.07428 0.47865 0.0
O273 O 0.26046 0.07989 0.4963 0.0
N274 N 0.22131 0.0743 0.4916 0.0
C275 C 0.21276 0.08366 0.50643 0.0
C276 C 0.21185 0.07123 0.52209 0.0
C277 C 0.2253 0.05644 0.49835 0.0
N278 N 0.21955 0.05407 0.51682 0.0
C279 C 0.20932 0.11951 0.47095 0.0
C280 C 0.24362 0.1383 0.4634 0.0
C281 C 0.22612 0.14761 0.45884 0.0
C282 C 0.2089 0.13863 0.46452 0.0
C283 C 0.24335 0.11905 0.46994 0.0
N284 N 0.22622 0.10923 0.47123 0.0
H285 H 0.19564 0.11247 0.47345 0.0
H286 H 0.25695 0.11155 0.47113 0.0
H287 H 0.20692 0.09813 0.50578 0.0
H288 H 0.2322 0.04535 0.48973 0.0
O289 O 0.19585 0.0806 0.46235 0.0
O290 O 0.21514 0.05565 0.45775 0.0
O291 O 0.25239 0.07599 0.46503 0.0
C292 C 0.19755 0.06228 0.45876 0.0
H293 H 0.25201 0.10251 0.40017 0.0
H294 H 0.20531 0.07432 0.53599 0.0
H295 H 0.25736 0.14507 0.46009 0.0
H296 H 0.19503 0.14542 0.46194 0.0
Co297 Co 0.35143 0.97545 0.71715 0.0
C298 C 0.35549 0.98156 0.6752 0.0
C299 C 0.33085 0.96387 0.68178 0.0
C300 C 0.33234 0.96545 0.66205 0.0
N301 N 0.34528 0.9741 0.68999 0.0
N302 N 0.34788 0.9765 0.65791 0.0
H303 H 0.36908 0.98912 0.67706 0.0
H304 H 0.32063 0.9549 0.68945 0.0
C305 C 0.359 0.01733 0.72623 0.0
O306 O 0.35055 0.01496 0.74309 0.0
N307 N 0.35814 0.9765 0.74441 0.0
C308 C 0.34778 0.97102 0.76 0.0
C309 C 0.3597 0.97116 0.77599 0.0
C310 C 0.37616 0.9799 0.7512 0.0
N311 N 0.37758 0.97678 0.77043 0.0
C312 C 0.31248 0.96603 0.72638 0.0
C313 C 0.29735 0.99649 0.70561 0.0
C314 C 0.28679 0.97915 0.70658 0.0
C315 C 0.29378 0.96453 0.71873 0.0
C316 C 0.31614 0.99725 0.71313 0.0
N317 N 0.32414 0.98139 0.72182 0.0
H318 H 0.31848 0.95334 0.7332 0.0
H319 H 0.3249 0.00954 0.70923 0.0
H320 H 0.33289 0.96638 0.75989 0.0
H321 H 0.38817 0.98407 0.74205 0.0
O322 O 0.35017 0.94746 0.7186 0.0
O323 O 0.37659 0.96425 0.71198 0.0
O324 O 0.35927 0.00353 0.71389 0.0
C325 C 0.36853 0.94744 0.71454 0.0
H326 H 0.32347 0.95794 0.65155 0.0
H327 H 0.35571 0.96633 0.79033 0.0
H328 H 0.2921 0.00858 0.69716 0.0
H329 H 0.28604 0.95099 0.72025 0.0
Co330 Co 0.46058 0.1017 0.9644 0.0
C331 C 0.47176 0.10367 0.92287 0.0
C332 C 0.44945 0.08287 0.9274 0.0
C333 C 0.45235 0.0847 0.9079 0.0
N334 N 0.4618 0.09461 0.93704 0.0
N335 N 0.4661 0.09813 0.90501 0.0
H336 H 0.48123 0.1158 0.9253 0.0
H337 H 0.43729 0.07538 0.93346 0.0
C338 C 0.41844 0.11117 0.97228 0.0
O339 O 0.42004 0.10481 0.99011 0.0
N340 N 0.45928 0.10927 0.99139 0.0
C341 C 0.46606 0.09977 0.00698 0.0
C342 C 0.46635 0.11237 0.02251 0.0
C343 C 0.45564 0.12744 0.99763 0.0
N344 N 0.46003 0.12985 0.01652 0.0
C345 C 0.47252 0.0633 0.97213 0.0
C346 C 0.43855 0.0458 0.961 0.0
C347 C 0.45611 0.03588 0.95802 0.0
C348 C 0.47293 0.04423 0.96554 0.0
C349 C 0.43884 0.06507 0.96769 0.0
N350 N 0.45612 0.07426 0.97064 0.0
H351 H 0.48612 0.06972 0.97616 0.0
H352 H 0.42552 0.07313 0.96731 0.0
H353 H 0.47153 0.08514 0.00691 0.0
H354 H 0.45036 0.13878 0.98825 0.0
O355 O 0.48856 0.10166 0.96643 0.0
O356 O 0.47116 0.12722 0.95855 0.0
O357 O 0.43233 0.10866 0.96029 0.0
C358 C 0.48812 0.11988 0.96215 0.0
H359 H 0.44332 0.07843 0.89673 0.0
H360 H 0.47188 0.1092 0.03681 0.0
H361 H 0.42498 0.03952 0.95635 0.0
H362 H 0.48677 0.03699 0.96438 0.0
Co363 Co 0.33162 0.20933 0.212 0.0
C364 C 0.33045 0.22355 0.17127 0.0
C365 C 0.35014 0.20002 0.17438 0.0
C366 C 0.34957 0.2051 0.15528 0.0
N367 N 0.33849 0.21186 0.1847 0.0
N368 N 0.33682 0.21963 0.15318 0.0
H369 H 0.31858 0.23324 0.17424 0.0
H370 H 0.35695 0.18706 0.17952 0.0
C371 C 0.32539 0.16662 0.21886 0.0
O372 O 0.33259 0.1684 0.23636 0.0
N373 N 0.32434 0.20681 0.23901 0.0
C374 C 0.3339 0.21314 0.25477 0.0
C375 C 0.32155 0.21248 0.27044 0.0
C376 C 0.30636 0.20242 0.24533 0.0
N377 N 0.30414 0.20598 0.26443 0.0
C378 C 0.36922 0.22274 0.22123 0.0
C379 C 0.38856 0.19142 0.20594 0.0
C380 C 0.39727 0.20975 0.20516 0.0
C381 C 0.38814 0.22505 0.21466 0.0
C382 C 0.36951 0.1897 0.21304 0.0
N383 N 0.35928 0.20592 0.21797 0.0
H384 H 0.36198 0.23541 0.22669 0.0
H385 H 0.36229 0.176 0.21124 0.0
H386 H 0.34841 0.21888 0.25484 0.0
H387 H 0.295 0.19724 0.2359 0.0
O388 O 0.33049 0.23711 0.21499 0.0
O389 O 0.30556 0.21897 0.20668 0.0
O390 O 0.32602 0.18094 0.20716 0.0
C391 C 0.31219 0.23605 0.21113 0.0
H392 H 0.35642 0.19723 0.14359 0.0
H393 H 0.32481 0.21751 0.28491 0.0
H394 H 0.39535 0.17911 0.19903 0.0
H395 H 0.39466 0.23931 0.21493 0.0
Co396 Co 0.22745 0.10007 0.21794 0.0
C397 C 0.21726 0.09804 0.25974 0.0
C398 C 0.24699 0.09133 0.25465 0.0
C399 C 0.24427 0.09319 0.27416 0.0
N400 N 0.23014 0.09476 0.24544 0.0
N401 N 0.22561 0.09779 0.27744 0.0
H402 H 0.20244 0.10226 0.25725 0.0
H403 H 0.26091 0.08948 0.24784 0.0
C404 C 0.26866 0.10635 0.20372 0.0
O405 O 0.26483 0.09837 0.1869 0.0
N406 N 0.22524 0.10616 0.19061 0.0
C407 C 0.21443 0.09796 0.17659 0.0
C408 C 0.2134 0.11056 0.16112 0.0
C409 C 0.23062 0.12348 0.18338 0.0
N410 N 0.22337 0.12676 0.16555 0.0
C411 C 0.21327 0.06249 0.21072 0.0
C412 C 0.244 0.04368 0.22779 0.0
C413 C 0.22564 0.03494 0.22819 0.0
C414 C 0.21062 0.04395 0.21816 0.0
C415 C 0.2461 0.06235 0.21987 0.0
N416 N 0.2303 0.07226 0.21328 0.0
H417 H 0.20059 0.06979 0.20542 0.0
H418 H 0.25986 0.06957 0.22137 0.0
H419 H 0.20678 0.08443 0.17769 0.0
H420 H 0.23924 0.13366 0.19151 0.0
O421 O 0.19953 0.10075 0.22013 0.0
O422 O 0.2184 0.12627 0.22357 0.0
O423 O 0.25605 0.10626 0.21721 0.0
C424 C 0.20094 0.11923 0.22308 0.0
H425 H 0.25582 0.09372 0.28469 0.0
H426 H 0.20492 0.10843 0.14814 0.0
H427 H 0.25611 0.03706 0.23518 0.0
H428 H 0.19631 0.03754 0.2178 0.0
Co429 Co 0.3338 0.97594 0.47034 0.0
C430 C 0.32949 0.98098 0.51205 0.0
C431 C 0.35478 0.96419 0.5056 0.0
C432 C 0.35315 0.96587 0.52537 0.0
N433 N 0.33996 0.97378 0.49736 0.0
N434 N 0.33723 0.97644 0.52937 0.0
H435 H 0.3157 0.98812 0.51006 0.0
H436 H 0.36554 0.9559 0.49789 0.0
C437 C 0.325 0.01781 0.46343 0.0
O438 O 0.33501 0.01687 0.4473 0.0
N439 N 0.3268 0.9781 0.44326 0.0
C440 C 0.33703 0.97446 0.42706 0.0
C441 C 0.32474 0.97566 0.41135 0.0
C442 C 0.30857 0.9815 0.43716 0.0
N443 N 0.30683 0.98009 0.41779 0.0
C444 C 0.37294 0.96908 0.46005 0.0
C445 C 0.38684 0.99819 0.48355 0.0
C446 C 0.39834 0.98173 0.48057 0.0
C447 C 0.3918 0.96783 0.46734 0.0
C448 C 0.36803 0.99881 0.47613 0.0
N449 N 0.3607 0.98348 0.46597 0.0
H450 H 0.36739 0.95674 0.45226 0.0
H451 H 0.35868 0.01013 0.48136 0.0
H452 H 0.35211 0.97055 0.42648 0.0
H453 H 0.29664 0.98453 0.44685 0.0
O454 O 0.33651 0.94813 0.46756 0.0
O455 O 0.30931 0.96322 0.47503 0.0
O456 O 0.32453 0.0033 0.47487 0.0
C457 C 0.3182 0.94699 0.47169 0.0
H458 H 0.36232 0.95893 0.53598 0.0
H459 H 0.32854 0.97248 0.3965 0.0
H460 H 0.39147 0.00946 0.49343 0.0
H461 H 0.40008 0.95482 0.4646 0.0
Co462 Co 0.45846 0.08291 0.72441 0.0
C463 C 0.46564 0.08032 0.7667 0.0
C464 C 0.44304 0.10027 0.76023 0.0
C465 C 0.44358 0.09775 0.77989 0.0
N466 N 0.45697 0.08941 0.75179 0.0
N467 N 0.4577 0.08509 0.78388 0.0
H468 H 0.47582 0.06857 0.76509 0.0
H469 H 0.43136 0.10742 0.75288 0.0
C470 C 0.41691 0.07653 0.71201 0.0
O471 O 0.42059 0.08311 0.69457 0.0
N472 N 0.4595 0.076 0.69725 0.0
C473 C 0.46679 0.08605 0.68222 0.0
C474 C 0.46677 0.07426 0.66607 0.0
C475 C 0.45534 0.05828 0.6901 0.0
N476 N 0.45955 0.05681 0.6711 0.0
C477 C 0.47382 0.12036 0.71818 0.0
C478 C 0.44041 0.14055 0.72606 0.0
C479 C 0.45835 0.14963 0.72943 0.0
C480 C 0.47508 0.13963 0.72395 0.0
C481 C 0.43984 0.12105 0.72017 0.0
N482 N 0.45658 0.11066 0.71851 0.0
H483 H 0.48719 0.11285 0.71551 0.0
H484 H 0.42598 0.11393 0.71967 0.0
H485 H 0.47244 0.1006 0.68297 0.0
H486 H 0.44961 0.04655 0.69874 0.0
O487 O 0.48644 0.0809 0.72553 0.0
O488 O 0.4665 0.05654 0.73048 0.0
O489 O 0.42966 0.07794 0.7253 0.0
C490 C 0.48426 0.06256 0.72876 0.0
H491 H 0.43269 0.10255 0.79008 0.0
H492 H 0.47254 0.07796 0.65199 0.0
H493 H 0.42701 0.14787 0.72956 0.0
H494 H 0.48932 0.14577 0.72606 0.0
Co495 Co 0.35355 0.21174 0.97288 0.0
C496 C 0.35406 0.21603 0.01589 0.0
C497 C 0.33867 0.19083 0.00678 0.0
C498 C 0.33984 0.19054 0.02655 0.0
N499 N 0.34755 0.20686 0.99995 0.0
N500 N 0.34957 0.20634 0.03226 0.0
H501 H 0.36385 0.22823 0.01562 0.0
H502 H 0.33363 0.17885 0.99817 0.0
C503 C 0.36221 0.172 0.95571 0.0
O504 O 0.35792 0.1778 0.93815 0.0
N505 N 0.35961 0.2163 0.94577 0.0
C506 C 0.34801 0.2223 0.93126 0.0
C507 C 0.35914 0.22527 0.91491 0.0
C508 C 0.37755 0.21577 0.93802 0.0
N509 N 0.37772 0.22138 0.91934 0.0
C510 C 0.3162 0.2277 0.96831 0.0
C511 C 0.29574 0.19414 0.97483 0.0
C512 C 0.28678 0.212 0.97895 0.0
C513 C 0.297 0.22887 0.97431 0.0
C514 C 0.3152 0.19366 0.96874 0.0
N515 N 0.32569 0.21038 0.96756 0.0
H516 H 0.32385 0.2411 0.96611 0.0
H517 H 0.32223 0.17981 0.96713 0.0
H518 H 0.33262 0.22467 0.93235 0.0
H519 H 0.39027 0.21117 0.94586 0.0
O520 O 0.35548 0.23941 0.97732 0.0
O521 O 0.38003 0.21933 0.97951 0.0
O522 O 0.35874 0.18294 0.97024 0.0
C523 C 0.3739 0.23713 0.97989 0.0
H524 H 0.33623 0.17839 0.03576 0.0
H525 H 0.35407 0.23036 0.901 0.0
H526 H 0.28827 0.18065 0.97763 0.0
H527 H 0.29104 0.24306 0.97711 0.0
Co528 Co 0.46637 0.22652 0.08205 0.0
C529 C 0.42543 0.2137 0.08563 0.0
C530 C 0.42901 0.24352 0.09284 0.0
C531 C 0.40966 0.23961 0.09194 0.0
N532 N 0.43901 0.22742 0.08834 0.0
N533 N 0.40723 0.22086 0.08702 0.0
H534 H 0.42877 0.19911 0.08123 0.0
H535 H 0.4351 0.25771 0.09505 0.0
C536 C 0.47781 0.2683 0.07438 0.0
O537 O 0.49526 0.26537 0.08125 0.0
N538 N 0.49363 0.22609 0.07543 0.0
C539 C 0.50928 0.22286 0.08658 0.0
C540 C 0.52557 0.22355 0.075 0.0
C541 C 0.50062 0.22864 0.05736 0.0
N542 N 0.52007 0.22728 0.05663 0.0
C543 C 0.47373 0.21357 0.12004 0.0
C544 C 0.45734 0.24547 0.13744 0.0
C545 C 0.4558 0.22741 0.14667 0.0
C546 C 0.4657 0.21175 0.13852 0.0
C547 C 0.46556 0.24663 0.1189 0.0
N548 N 0.47154 0.23024 0.10961 0.0
H549 H 0.47944 0.20072 0.11325 0.0
H550 H 0.46457 0.26018 0.11126 0.0
H551 H 0.50903 0.2201 0.10196 0.0
H552 H 0.49151 0.23092 0.04489 0.0
O553 O 0.46606 0.19837 0.08146 0.0
O554 O 0.46046 0.21705 0.05621 0.0
O555 O 0.46501 0.255 0.07544 0.0
C556 C 0.46247 0.19966 0.06305 0.0
H557 H 0.39856 0.25059 0.09244 0.0
H558 H 0.54032 0.22136 0.07976 0.0
H559 H 0.45062 0.25819 0.14365 0.0
H560 H 0.4654 0.19764 0.14533 0.0
Co561 Co 0.96604 0.45823 0.10205 0.0
C562 C 0.92468 0.46914 0.09808 0.0
C563 C 0.92991 0.4401 0.08916 0.0
C564 C 0.91044 0.44246 0.09143 0.0
N565 N 0.93907 0.45664 0.09397 0.0
N566 N 0.90699 0.46066 0.09758 0.0
H567 H 0.92721 0.48366 0.10315 0.0
H568 H 0.93672 0.42635 0.08651 0.0
C569 C 0.97767 0.41656 0.10881 0.0
O570 O 0.99516 0.41985 0.10211 0.0
N571 N 0.99268 0.45916 0.11093 0.0
C572 C 0.0087 0.46623 0.10234 0.0
C573 C 0.02371 0.46576 0.1155 0.0
C574 C 0.99823 0.45449 0.12909 0.0
N575 N 0.01707 0.45851 0.1324 0.0
C576 C 0.97688 0.47187 0.06531 0.0
C577 C 0.95941 0.44166 0.04595 0.0
C578 C 0.95911 0.46019 0.03768 0.0
C579 C 0.96949 0.47493 0.0468 0.0
C580 C 0.96725 0.4392 0.06456 0.0
N581 N 0.97344 0.45491 0.0749 0.0
H582 H 0.98258 0.48427 0.07288 0.0
H583 H 0.96559 0.42533 0.07149 0.0
H584 H 0.00955 0.47177 0.08778 0.0
H585 H 0.98853 0.4482 0.13963 0.0
O586 O 0.9651 0.48624 0.10249 0.0
O587 O 0.95817 0.46759 0.12745 0.0
O588 O 0.96487 0.4298 0.10825 0.0
C589 C 0.96026 0.485 0.12059 0.0
H590 H 0.90027 0.4306 0.0913 0.0
H591 H 0.03826 0.47097 0.11298 0.0
H592 H 0.95177 0.42978 0.03915 0.0
H593 H 0.96989 0.48936 0.0407 0.0
Co594 Co 0.97717 0.71573 0.35415 0.0
C595 C 0.95993 0.67663 0.3492 0.0
C596 C 0.99057 0.67638 0.34507 0.0
C597 C 0.98401 0.65773 0.34482 0.0
N598 N 0.97554 0.68832 0.34823 0.0
N599 N 0.96471 0.65767 0.34802 0.0
H600 H 0.94551 0.68192 0.35157 0.0
H601 H 0.00557 0.68062 0.34432 0.0
C602 C 0.01945 0.7234 0.36277 0.0
O603 O 0.01822 0.74043 0.35442 0.0
N604 N 0.97884 0.74295 0.36058 0.0
C605 C 0.97183 0.75837 0.35095 0.0
C606 C 0.97134 0.77399 0.36342 0.0
C607 C 0.98257 0.74945 0.37862 0.0
N608 N 0.9778 0.76823 0.38092 0.0
C609 C 0.96756 0.72369 0.31521 0.0
C610 C 0.99833 0.70304 0.30046 0.0
C611 C 0.98105 0.70374 0.28986 0.0
C612 C 0.96614 0.71557 0.29672 0.0
C613 C 0.99927 0.71175 0.31877 0.0
N614 N 0.98316 0.71998 0.3268 0.0
H615 H 0.95483 0.73057 0.32103 0.0
H616 H 0.01201 0.70917 0.32734 0.0
H617 H 0.96623 0.75815 0.33639 0.0
H618 H 0.98792 0.74021 0.39005 0.0
O619 O 0.94923 0.71815 0.35292 0.0
O620 O 0.96563 0.71121 0.37942 0.0
O621 O 0.005 0.71187 0.36245 0.0
C622 C 0.94896 0.71451 0.37136 0.0
H623 H 0.99332 0.64515 0.3446 0.0
H624 H 0.96543 0.78813 0.3602 0.0
H625 H 0.01035 0.6943 0.29548 0.0
H626 H 0.95258 0.71664 0.28896 0.0
Co627 Co 0.71844 0.72577 0.60239 0.0
C628 C 0.76012 0.73014 0.60758 0.0
C629 C 0.75385 0.71171 0.5834 0.0
C630 C 0.77359 0.71276 0.58556 0.0
N631 N 0.74553 0.7227 0.59718 0.0
N632 N 0.77747 0.72441 0.60074 0.0
H633 H 0.75798 0.73834 0.62075 0.0
H634 H 0.74618 0.70287 0.57305 0.0
C635 C 0.71219 0.76818 0.6099 0.0
O636 O 0.69612 0.76727 0.5998 0.0
N637 N 0.69119 0.72869 0.60828 0.0
C638 C 0.67548 0.72343 0.59799 0.0
C639 C 0.65946 0.72441 0.60989 0.0
C640 C 0.68446 0.73285 0.62614 0.0
N641 N 0.66517 0.73028 0.62763 0.0
C642 C 0.70986 0.71748 0.563 0.0
C643 C 0.7336 0.74636 0.54898 0.0
C644 C 0.73103 0.72958 0.53783 0.0
C645 C 0.71768 0.71581 0.54434 0.0
C646 C 0.72565 0.74741 0.56758 0.0
N647 N 0.71527 0.73228 0.57503 0.0
H648 H 0.70197 0.70525 0.56863 0.0
H649 H 0.73049 0.75906 0.57674 0.0
H650 H 0.67557 0.71816 0.58332 0.0
H651 H 0.69374 0.73682 0.63811 0.0
O652 O 0.7152 0.69789 0.60084 0.0
O653 O 0.722 0.71412 0.62757 0.0
O654 O 0.72331 0.75344 0.61079 0.0
C655 C 0.71877 0.69754 0.61931 0.0
H656 H 0.78422 0.70476 0.57729 0.0
H657 H 0.645 0.71977 0.60608 0.0
H658 H 0.74342 0.75762 0.54424 0.0
H659 H 0.71511 0.70269 0.53614 0.0
Co660 Co 0.21006 0.97033 0.35387 0.0
C661 C 0.21856 0.01261 0.35356 0.0
C662 C 0.19193 0.0062 0.33933 0.0
C663 C 0.19408 0.0259 0.33993 0.0
N664 N 0.2074 0.99771 0.34771 0.0
N665 N 0.21073 0.02996 0.34913 0.0
H666 H 0.2311 0.01102 0.36267 0.0
H667 H 0.17893 0.99894 0.33473 0.0
C668 C 0.16902 0.95651 0.36169 0.0
O669 O 0.17309 0.9391 0.35531 0.0
N670 N 0.21233 0.94299 0.36037 0.0
C671 C 0.21374 0.9275 0.3486 0.0
C672 C 0.2148 0.911 0.3598 0.0
C673 C 0.21266 0.93562 0.37849 0.0
N674 N 0.21437 0.91615 0.37867 0.0
C675 C 0.22426 0.96307 0.31622 0.0
C676 C 0.19154 0.97486 0.29689 0.0
C677 C 0.20964 0.97706 0.28771 0.0
C678 C 0.22589 0.96962 0.29721 0.0
C679 C 0.19062 0.96824 0.31613 0.0
N680 N 0.20724 0.96468 0.32618 0.0
H681 H 0.23734 0.95872 0.3235 0.0
H682 H 0.17682 0.9683 0.32342 0.0
H683 H 0.21352 0.9279 0.33298 0.0
H684 H 0.21175 0.94438 0.39141 0.0
O685 O 0.23797 0.97252 0.35437 0.0
O686 O 0.21919 0.9768 0.37983 0.0
O687 O 0.18144 0.97012 0.36008 0.0
C688 C 0.23663 0.97599 0.37274 0.0
H689 H 0.18331 0.0364 0.3356 0.0
H690 H 0.21525 0.89638 0.35427 0.0
H691 H 0.17841 0.9797 0.28988 0.0
H692 H 0.2402 0.97068 0.29096 0.0
Co693 Co 0.22263 0.95815 0.58301 0.0
C694 C 0.26327 0.97271 0.58149 0.0
C695 C 0.26048 0.94916 0.60121 0.0
C696 C 0.27957 0.95428 0.6003 0.0
N697 N 0.24996 0.96097 0.58974 0.0
N698 N 0.28147 0.96887 0.58757 0.0
H699 H 0.26013 0.98238 0.56967 0.0
H700 H 0.25547 0.93621 0.60816 0.0
C701 C 0.21623 0.91552 0.57604 0.0
O702 O 0.19859 0.91684 0.58299 0.0
N703 N 0.1956 0.95517 0.57576 0.0
C704 C 0.17955 0.95718 0.58665 0.0
C705 C 0.16357 0.95553 0.57481 0.0
C706 C 0.1891 0.95232 0.55752 0.0
N707 N 0.16961 0.95251 0.55646 0.0
C708 C 0.21264 0.97118 0.62058 0.0
C709 C 0.22854 0.94025 0.64001 0.0
C710 C 0.22842 0.95851 0.64891 0.0
C711 C 0.21861 0.97354 0.63969 0.0
C712 C 0.22192 0.93843 0.62082 0.0
N713 N 0.2167 0.95456 0.61063 0.0
H714 H 0.20685 0.98365 0.61325 0.0
H715 H 0.22422 0.92484 0.61351 0.0
H716 H 0.17928 0.96006 0.602 0.0
H717 H 0.19853 0.95101 0.54511 0.0
O718 O 0.21952 0.98601 0.58196 0.0
O719 O 0.22778 0.9678 0.55705 0.0
O720 O 0.22778 0.92991 0.57729 0.0
C721 C 0.22342 0.9849 0.56365 0.0
H722 H 0.29135 0.94649 0.60703 0.0
H723 H 0.14864 0.95688 0.57934 0.0
H724 H 0.2358 0.92816 0.64681 0.0
H725 H 0.21777 0.98774 0.64629 0.0
Co726 Co 0.97235 0.46903 0.33375 0.0
C727 C 0.97273 0.51094 0.32989 0.0
C728 C 0.95316 0.50236 0.35239 0.0
C729 C 0.95184 0.52214 0.35008 0.0
N730 N 0.96627 0.4955 0.33966 0.0
N731 N 0.9643 0.52736 0.33602 0.0
H732 H 0.98213 0.51001 0.31742 0.0
H733 H 0.94442 0.49353 0.36191 0.0
C734 C 0.0153 0.46763 0.32589 0.0
O735 O 0.01638 0.45107 0.33514 0.0
N736 N 0.97828 0.44236 0.32716 0.0
C737 C 0.9782 0.42631 0.33823 0.0
C738 C 0.98095 0.4104 0.32643 0.0
C739 C 0.98124 0.43597 0.30891 0.0
N740 N 0.98286 0.41655 0.30799 0.0
C741 C 0.96471 0.45836 0.37258 0.0
C742 C 0.99046 0.48483 0.38786 0.0
C743 C 0.97425 0.47951 0.39878 0.0
C744 C 0.96192 0.46525 0.39144 0.0
C745 C 0.99259 0.47779 0.36896 0.0
N746 N 0.97894 0.46584 0.36102 0.0
H747 H 0.95372 0.44907 0.36649 0.0
H748 H 0.00357 0.48436 0.36004 0.0
H749 H 0.97584 0.4259 0.35365 0.0
H750 H 0.98115 0.44533 0.29638 0.0
O751 O 0.94496 0.46266 0.33487 0.0
O752 O 0.96057 0.47241 0.30868 0.0
O753 O 0.99939 0.47706 0.32572 0.0
C754 C 0.94435 0.46718 0.31661 0.0
H755 H 0.94184 0.53176 0.35734 0.0
H756 H 0.981 0.39543 0.33101 0.0
H757 H 1.00017 0.49601 0.39302 0.0
H758 H 0.94917 0.46089 0.39944 0.0
Co759 Co 0.70913 0.71448 0.83131 0.0
C760 C 0.70616 0.67218 0.82844 0.0
C761 C 0.72397 0.68081 0.85234 0.0
C762 C 0.72431 0.66098 0.85107 0.0
N763 N 0.71253 0.68775 0.8382 0.0
N764 N 0.71315 0.65559 0.83601 0.0
H765 H 0.69816 0.67309 0.81501 0.0
H766 H 0.73251 0.68956 0.86208 0.0
C767 C 0.6668 0.72023 0.82485 0.0
O768 O 0.66818 0.73667 0.83431 0.0
N769 N 0.70594 0.74134 0.82364 0.0
C770 C 0.70973 0.75788 0.83329 0.0
C771 C 0.70827 0.77318 0.82056 0.0
C772 C 0.70208 0.74691 0.80531 0.0
N773 N 0.70371 0.76623 0.80289 0.0
C774 C 0.71719 0.72655 0.86984 0.0
C775 C 0.69009 0.70198 0.88591 0.0
C776 C 0.70644 0.70698 0.89677 0.0
C777 C 0.71934 0.72052 0.88906 0.0
C778 C 0.68834 0.70849 0.86681 0.0
N779 N 0.70268 0.71933 0.85845 0.0
H780 H 0.72899 0.73453 0.86344 0.0
H781 H 0.67716 0.70201 0.85808 0.0
H782 H 0.71386 0.75899 0.84827 0.0
H783 H 0.69844 0.73684 0.7939 0.0
O784 O 0.73692 0.7181 0.83264 0.0
O785 O 0.72086 0.70942 0.80635 0.0
O786 O 0.68145 0.70903 0.82359 0.0
C787 C 0.73738 0.71336 0.81444 0.0
H788 H 0.73333 0.65137 0.85952 0.0
H789 H 0.71124 0.7882 0.82389 0.0
H790 H 0.67998 0.69128 0.89131 0.0
H791 H 0.73232 0.72445 0.89691 0.0
Co792 Co 0.58081 0.96158 0.72736 0.0
C793 C 0.58174 0.9192 0.71958 0.0
C794 C 0.59814 0.92676 0.74463 0.0
C795 C 0.597 0.907 0.74367 0.0
N796 N 0.58855 0.93458 0.72949 0.0
N797 N 0.58658 0.90226 0.72799 0.0
H798 H 0.57129 0.92016 0.708 0.0
H799 H 0.60338 0.93454 0.75706 0.0
C800 C 0.5742 0.97467 0.76862 0.0
O801 O 0.58077 0.99203 0.76457 0.0
N802 N 0.57265 0.98837 0.72569 0.0
C803 C 0.58157 0.00345 0.71716 0.0
C804 C 0.56906 0.01902 0.71711 0.0
C805 C 0.55488 0.99492 0.73054 0.0
N806 N 0.55221 0.01358 0.7254 0.0
C807 C 0.61806 0.96968 0.71235 0.0
C808 C 0.63809 0.96133 0.7457 0.0
C809 C 0.6473 0.95839 0.72776 0.0
C810 C 0.63743 0.96419 0.71109 0.0
C811 C 0.61853 0.96686 0.74628 0.0
N812 N 0.60824 0.96875 0.72951 0.0
H813 H 0.61057 0.97246 0.69898 0.0
H814 H 0.61135 0.96697 0.76011 0.0
H815 H 0.59583 0.00311 0.7108 0.0
H816 H 0.54416 0.98605 0.73771 0.0
O817 O 0.5794 0.95979 0.69944 0.0
O818 O 0.55489 0.95409 0.71902 0.0
O819 O 0.57541 0.96115 0.75609 0.0
C820 C 0.5612 0.9557 0.70134 0.0
H821 H 0.60098 0.89706 0.75509 0.0
H822 H 0.57191 0.03305 0.71078 0.0
H823 H 0.64534 0.95763 0.75908 0.0
H824 H 0.64375 0.96246 0.69686 0.0
Co825 Co 0.47494 0.33444 0.97504 0.0
C826 C 0.51706 0.33484 0.96621 0.0
C827 C 0.51048 0.35121 0.99153 0.0
C828 C 0.53015 0.34924 0.99035 0.0
N829 N 0.50205 0.34218 0.97635 0.0
N830 N 0.53427 0.33875 0.97455 0.0
H831 H 0.51558 0.32451 0.95458 0.0
H832 H 0.50317 0.35632 0.00429 0.0
C833 C 0.46332 0.3276 0.01656 0.0
O834 O 0.44631 0.33537 0.01324 0.0
N835 N 0.44815 0.32599 0.97426 0.0
C836 C 0.43305 0.33401 0.96501 0.0
C837 C 0.41768 0.32127 0.96571 0.0
C838 C 0.4418 0.30846 0.98025 0.0
N839 N 0.42317 0.3051 0.97526 0.0
C840 C 0.46574 0.37196 0.96147 0.0
C841 C 0.47683 0.39139 0.99439 0.0
C842 C 0.47874 0.40082 0.97642 0.0
C843 C 0.47163 0.39121 0.96007 0.0
C844 C 0.47095 0.3719 0.99508 0.0
N845 N 0.46774 0.36182 0.97835 0.0
H846 H 0.46186 0.36477 0.94821 0.0
H847 H 0.47161 0.36456 0.0088 0.0
H848 H 0.43328 0.34772 0.95755 0.0
H849 H 0.45089 0.29847 0.98808 0.0
O850 O 0.47544 0.33417 0.94707 0.0
O851 O 0.48227 0.30889 0.96531 0.0
O852 O 0.47643 0.32813 0.00355 0.0
C853 C 0.47988 0.31602 0.94802 0.0
H854 H 0.54032 0.35252 0.00181 0.0
H855 H 0.40376 0.32351 0.95893 0.0
H856 H 0.48145 0.39842 0.00761 0.0
H857 H 0.47252 0.3976 0.94581 0.0
Co858 Co 0.10468 0.21883 0.22864 0.0
C859 C 0.09941 0.26016 0.21781 0.0
C860 C 0.09519 0.25544 0.24805 0.0
C861 C 0.0955 0.27492 0.24479 0.0
N862 N 0.09811 0.24605 0.23121 0.0
N863 N 0.09855 0.27808 0.22576 0.0
H864 H 0.10249 0.25742 0.20276 0.0
H865 H 0.09455 0.24888 0.26219 0.0
C866 C 0.11084 0.20504 0.26972 0.0
O867 O 0.10323 0.18809 0.2657 0.0
N868 N 0.11192 0.19174 0.22661 0.0
C869 C 0.10164 0.17623 0.22074 0.0
C870 C 0.11372 0.16034 0.22034 0.0
C871 C 0.13 0.185 0.22975 0.0
N872 N 0.13154 0.16591 0.22606 0.0
C873 C 0.06726 0.21001 0.21522 0.0
C874 C 0.04902 0.22788 0.24592 0.0
C875 C 0.04018 0.22809 0.22768 0.0
C876 C 0.04876 0.21764 0.21267 0.0
C877 C 0.06752 0.21973 0.24793 0.0
N878 N 0.07723 0.21298 0.23204 0.0
H879 H 0.0745 0.20428 0.20262 0.0
H880 H 0.07491 0.2216 0.26153 0.0
H881 H 0.08659 0.17625 0.21669 0.0
H882 H 0.14189 0.19397 0.23459 0.0
O883 O 0.10503 0.22077 0.20066 0.0
O884 O 0.13036 0.22571 0.21944 0.0
O885 O 0.11104 0.21842 0.25705 0.0
C886 C 0.12335 0.22468 0.202 0.0
H887 H 0.09604 0.28562 0.25617 0.0
H888 H 0.10979 0.14597 0.21551 0.0
H889 H 0.04273 0.23578 0.25791 0.0
H890 H 0.0423 0.21742 0.19839 0.0
Co891 Co 0.22169 0.85051 0.47536 0.0
C892 C 0.1805 0.84956 0.46305 0.0
C893 C 0.1839 0.842 0.49284 0.0
C894 C 0.16459 0.84423 0.48916 0.0
N895 N 0.19402 0.84571 0.47656 0.0
N896 N 0.16241 0.84955 0.47054 0.0
H897 H 0.18385 0.8535 0.44833 0.0
H898 H 0.18998 0.83963 0.50701 0.0
C899 C 0.23371 0.85822 0.51692 0.0
O900 O 0.2506 0.85002 0.51403 0.0
N901 N 0.24916 0.85589 0.47452 0.0
C902 C 0.26361 0.84604 0.46589 0.0
C903 C 0.27974 0.85785 0.46498 0.0
C904 C 0.25668 0.87341 0.47866 0.0
N905 N 0.27525 0.87511 0.47298 0.0
C906 C 0.22739 0.81178 0.46349 0.0
C907 C 0.21092 0.79584 0.49611 0.0
C908 C 0.20931 0.78588 0.47845 0.0
C909 C 0.21918 0.79333 0.46244 0.0
C910 C 0.21944 0.81427 0.49656 0.0
N911 N 0.22561 0.82283 0.47983 0.0
H912 H 0.23287 0.81796 0.45026 0.0
H913 H 0.21861 0.8224 0.50984 0.0
H914 H 0.26232 0.83184 0.45951 0.0
H915 H 0.24829 0.88506 0.48493 0.0
O916 O 0.22144 0.8502 0.4473 0.0
O917 O 0.21703 0.87635 0.46508 0.0
O918 O 0.2208 0.85791 0.50371 0.0
C919 C 0.21884 0.86878 0.44792 0.0
H920 H 0.15329 0.84426 0.50001 0.0
H921 H 0.29318 0.85444 0.45771 0.0
H922 H 0.20409 0.79024 0.50906 0.0
H923 H 0.21871 0.78598 0.44859 0.0
Co924 Co 0.58403 0.21845 0.95957 0.0
C925 C 0.58636 0.26035 0.96983 0.0
C926 C 0.59388 0.25485 0.94037 0.0
C927 C 0.59197 0.27435 0.94274 0.0
N928 N 0.59001 0.24586 0.95725 0.0
N929 N 0.58694 0.27799 0.96124 0.0
H930 H 0.58177 0.25798 0.98456 0.0
H931 H 0.59584 0.24788 0.92655 0.0
C932 C 0.57583 0.20618 0.91812 0.0
O933 O 0.58503 0.18968 0.92 0.0
N934 N 0.57746 0.19116 0.96107 0.0
C935 C 0.58855 0.17554 0.96476 0.0
C936 C 0.57689 0.15924 0.96459 0.0
C937 C 0.55939 0.18413 0.95872 0.0
N938 N 0.55862 0.16476 0.96059 0.0
C939 C 0.62218 0.21078 0.97161 0.0
C940 C 0.63947 0.22625 0.93923 0.0
C941 C 0.64924 0.22759 0.95706 0.0
C942 C 0.64086 0.21834 0.97304 0.0
C943 C 0.6206 0.21871 0.93853 0.0
N944 N 0.61149 0.21308 0.95514 0.0
H945 H 0.61556 0.20533 0.98465 0.0
H946 H 0.61273 0.2197 0.92512 0.0
H947 H 0.60392 0.17577 0.96746 0.0
H948 H 0.54686 0.1931 0.95636 0.0
O949 O 0.58462 0.21963 0.98762 0.0
O950 O 0.5586 0.22476 0.96983 0.0
O951 O 0.57611 0.21877 0.93158 0.0
C952 C 0.56622 0.22331 0.98695 0.0
H953 H 0.59173 0.28454 0.9309 0.0
H954 H 0.58149 0.14451 0.96721 0.0
H955 H 0.64562 0.23254 0.92626 0.0
H956 H 0.64762 0.21875 0.98715 0.0
Co957 Co 0.21135 0.33129 0.2108 0.0
C958 C 0.16883 0.33171 0.21839 0.0
C959 C 0.17639 0.34794 0.19322 0.0
C960 C 0.15664 0.34692 0.19424 0.0
N961 N 0.18422 0.33846 0.20843 0.0
N962 N 0.1519 0.33662 0.20999 0.0
H963 H 0.16981 0.32134 0.23005 0.0
H964 H 0.18415 0.35308 0.18073 0.0
C965 C 0.22475 0.32338 0.16973 0.0
O966 O 0.24236 0.32918 0.17388 0.0
N967 N 0.23837 0.32391 0.21268 0.0
C968 C 0.25387 0.33492 0.21704 0.0
C969 C 0.27004 0.32324 0.21747 0.0
C970 C 0.24533 0.30576 0.21062 0.0
N971 N 0.26459 0.30487 0.21361 0.0
C972 C 0.21845 0.36911 0.22489 0.0
C973 C 0.21043 0.38817 0.19087 0.0
C974 C 0.20723 0.39787 0.20851 0.0
C975 C 0.21281 0.38846 0.22554 0.0
C976 C 0.21617 0.36864 0.19091 0.0
N977 N 0.21789 0.35882 0.20799 0.0
H978 H 0.22122 0.36201 0.23847 0.0
H979 H 0.21664 0.36107 0.17729 0.0
H980 H 0.25362 0.35031 0.2197 0.0
H981 H 0.23642 0.29334 0.20723 0.0
O982 O 0.20973 0.33043 0.23878 0.0
O983 O 0.20421 0.3054 0.21982 0.0
O984 O 0.21115 0.32526 0.18214 0.0
C985 C 0.20591 0.31214 0.23733 0.0
H986 H 0.14669 0.35091 0.18282 0.0
H987 H 0.28469 0.32804 0.22019 0.0
H988 H 0.20691 0.39505 0.17725 0.0
H989 H 0.21087 0.39514 0.23957 0.0
Co990 Co 0.10266 0.96062 0.4611 0.0
C991 C 0.10422 0.91847 0.46937 0.0
C992 C 0.08534 0.92477 0.44582 0.0
C993 C 0.08821 0.90516 0.44638 0.0
N994 N 0.09551 0.93332 0.4602 0.0
N995 N 0.10038 0.90125 0.46097 0.0
H996 H 0.11559 0.92023 0.47994 0.0
H997 H 0.07877 0.93207 0.43377 0.0
C998 C 0.10958 0.97188 0.41923 0.0
O999 O 0.10345 0.98956 0.42251 0.0
N1000 N 0.11012 0.98766 0.4616 0.0
C1001 C 0.10026 0.0029 0.4687 0.0
C1002 C 0.11205 0.01899 0.46804 0.0
C1003 C 0.1278 0.99465 0.45698 0.0
N1004 N 0.12934 0.0138 0.46055 0.0
C1005 C 0.06516 0.9681 0.47578 0.0
C1006 C 0.04527 0.95955 0.44238 0.0
C1007 C 0.03594 0.9568 0.4603 0.0
C1008 C 0.0458 0.96265 0.47698 0.0
C1009 C 0.06488 0.96504 0.44186 0.0
N1010 N 0.07508 0.96707 0.45867 0.0
H1011 H 0.07253 0.97108 0.48916 0.0
H1012 H 0.07217 0.965 0.42807 0.0
H1013 H 0.0858 0.00235 0.4746 0.0
H1014 H 0.13937 0.98581 0.45122 0.0
O1015 O 0.10413 0.96025 0.48906 0.0
O1016 O 0.12877 0.95401 0.46977 0.0
O1017 O 0.10806 0.95894 0.43235 0.0
C1018 C 0.12235 0.95625 0.48735 0.0
H1019 H 0.08437 0.89508 0.435 0.0
H1020 H 0.10841 0.0332 0.47351 0.0
H1021 H 0.03806 0.9558 0.42898 0.0
H1022 H 0.03948 0.96103 0.49121 0.0
Co1023 Co 0.46799 0.85224 0.70992 0.0
C1024 C 0.50954 0.84974 0.72116 0.0
C1025 C 0.50486 0.8418 0.6917 0.0
C1026 C 0.52432 0.84326 0.6947 0.0
N1027 N 0.49543 0.84634 0.70815 0.0
N1028 N 0.52746 0.84858 0.71323 0.0
H1029 H 0.50671 0.85437 0.73578 0.0
H1030 H 0.49825 0.83926 0.67782 0.0
C1031 C 0.45579 0.86087 0.66845 0.0
O1032 O 0.43834 0.85399 0.67151 0.0
N1033 N 0.44071 0.8585 0.71131 0.0
C1034 C 0.42588 0.84803 0.71845 0.0
C1035 C 0.40967 0.85966 0.71929 0.0
C1036 C 0.43332 0.87626 0.70799 0.0
N1037 N 0.4144 0.87742 0.71267 0.0
C1038 C 0.46128 0.81382 0.72201 0.0
C1039 C 0.4766 0.7973 0.68912 0.0
C1040 C 0.47858 0.78754 0.70686 0.0
C1041 C 0.4692 0.79528 0.72303 0.0
C1042 C 0.46834 0.81585 0.68873 0.0
N1043 N 0.46292 0.82471 0.70556 0.0
H1044 H 0.45615 0.82019 0.7353 0.0
H1045 H 0.46882 0.82383 0.67534 0.0
H1046 H 0.42679 0.8333 0.72352 0.0
H1047 H 0.44184 0.88825 0.70262 0.0
O1048 O 0.46878 0.85192 0.73799 0.0
O1049 O 0.47392 0.87787 0.72011 0.0
O1050 O 0.46872 0.85963 0.68158 0.0
C1051 C 0.47232 0.87035 0.73728 0.0
H1052 H 0.53487 0.84276 0.6832 0.0
H1053 H 0.39582 0.85558 0.72535 0.0
H1054 H 0.48292 0.79143 0.67603 0.0
H1055 H 0.46988 0.7881 0.73694 0.0
Co1056 Co 0.72378 0.587 0.964 0.0
C1057 C 0.73031 0.58408 0.92201 0.0
C1058 C 0.71349 0.60914 0.92921 0.0
C1059 C 0.71508 0.60811 0.90944 0.0
N1060 N 0.72311 0.59411 0.93705 0.0
N1061 N 0.72561 0.59233 0.90494 0.0
H1062 H 0.73719 0.57009 0.92345 0.0
H1063 H 0.70482 0.61941 0.93716 0.0
C1064 C 0.76514 0.57778 0.97349 0.0
O1065 O 0.76311 0.58724 0.98986 0.0
N1066 N 0.7242 0.57949 0.99104 0.0
C1067 C 0.71885 0.58957 0.00686 0.0
C1068 C 0.71925 0.57742 0.02263 0.0
C1069 C 0.72778 0.5614 0.99747 0.0
N1070 N 0.72499 0.55971 0.01673 0.0
C1071 C 0.71598 0.6259 0.97483 0.0
C1072 C 0.74655 0.64047 0.9537 0.0
C1073 C 0.7299 0.65185 0.95594 0.0
C1074 C 0.71525 0.64499 0.96814 0.0
C1075 C 0.74677 0.62148 0.96074 0.0
N1076 N 0.73079 0.61384 0.9696 0.0
H1077 H 0.70302 0.62011 0.98133 0.0
H1078 H 0.75845 0.61229 0.95605 0.0
H1079 H 0.7143 0.60445 0.00716 0.0
H1080 H 0.73204 0.54961 0.98807 0.0
O1081 O 0.69576 0.58919 0.96522 0.0
O1082 O 0.71177 0.56252 0.9577 0.0
O1083 O 0.75149 0.57797 0.96099 0.0
C1084 C 0.69522 0.57105 0.96022 0.0
H1085 H 0.70766 0.61725 0.89912 0.0
H1086 H 0.71464 0.5812 0.03711 0.0
H1087 H 0.75829 0.64531 0.9445 0.0
H1088 H 0.70205 0.65319 0.97016 0.0
Co1089 Co 0.85239 0.4723 0.21484 0.0
C1090 C 0.85395 0.46438 0.17231 0.0
C1091 C 0.83853 0.49032 0.17885 0.0
C1092 C 0.84008 0.48883 0.15918 0.0
N1093 N 0.84701 0.47486 0.18728 0.0
N1094 N 0.84994 0.47264 0.15506 0.0
H1095 H 0.86375 0.45231 0.17385 0.0
H1096 H 0.83378 0.50322 0.18614 0.0
C1097 C 0.86163 0.5132 0.22825 0.0
O1098 O 0.85373 0.51017 0.24525 0.0
N1099 N 0.85787 0.47014 0.24235 0.0
C1100 C 0.84564 0.46772 0.25739 0.0
C1101 C 0.85632 0.46657 0.27426 0.0
C1102 C 0.87568 0.47026 0.25028 0.0
N1103 N 0.87522 0.46813 0.26966 0.0
C1104 C 0.81377 0.46003 0.22025 0.0
C1105 C 0.79693 0.49432 0.20908 0.0
C1106 C 0.78706 0.47687 0.20543 0.0
C1107 C 0.795 0.45983 0.21287 0.0
C1108 C 0.81577 0.49383 0.21675 0.0
N1109 N 0.82474 0.47649 0.21976 0.0
H1110 H 0.82007 0.44636 0.22428 0.0
H1111 H 0.82382 0.50718 0.21754 0.0
H1112 H 0.83006 0.46702 0.25641 0.0
H1113 H 0.88887 0.47156 0.24201 0.0
O1114 O 0.85197 0.44426 0.21326 0.0
O1115 O 0.8781 0.4621 0.20918 0.0
O1116 O 0.86027 0.50055 0.21484 0.0
C1117 C 0.87051 0.44493 0.21049 0.0
H1118 H 0.83687 0.50021 0.14891 0.0
H1119 H 0.85055 0.46515 0.28874 0.0
H1120 H 0.7909 0.50802 0.20445 0.0
H1121 H 0.78773 0.44606 0.21111 0.0
Co1122 Co 0.95997 0.60411 0.46271 0.0
C1123 C 0.95361 0.61162 0.42158 0.0
C1124 C 0.96236 0.5822 0.42553 0.0
C1125 C 0.95855 0.58505 0.4062 0.0
N1126 N 0.95877 0.59879 0.43523 0.0
N1127 N 0.95271 0.60348 0.40385 0.0
H1128 H 0.9506 0.62666 0.42467 0.0
H1129 H 0.96763 0.56895 0.43176 0.0
C1130 C 0.91737 0.61025 0.45166 0.0
O1131 O 0.91865 0.59885 0.43652 0.0
N1132 N 0.96112 0.61022 0.49 0.0
C1133 C 0.96968 0.6007 0.50469 0.0
C1134 C 0.96939 0.61241 0.52088 0.0
C1135 C 0.95582 0.62748 0.49744 0.0
N1136 N 0.96068 0.62926 0.51626 0.0
C1137 C 0.97192 0.56561 0.4706 0.0
C1138 C 0.93861 0.54792 0.45773 0.0
C1139 C 0.95612 0.53757 0.45678 0.0
C1140 C 0.97256 0.54625 0.46486 0.0
C1141 C 0.93863 0.56737 0.46366 0.0
N1142 N 0.95561 0.57652 0.46802 0.0
H1143 H 0.98539 0.5723 0.4747 0.0
H1144 H 0.92526 0.57524 0.46304 0.0
H1145 H 0.97657 0.58675 0.50368 0.0
H1146 H 0.94923 0.63887 0.48896 0.0
O1147 O 0.98797 0.60361 0.46126 0.0
O1148 O 0.97029 0.62984 0.45739 0.0
O1149 O 0.93149 0.61168 0.46361 0.0
C1150 C 0.98742 0.6221 0.45819 0.0
H1151 H 0.96023 0.5745 0.39474 0.0
H1152 H 0.97616 0.60919 0.53462 0.0
H1153 H 0.92531 0.54158 0.45239 0.0
H1154 H 0.9865 0.53914 0.46456 0.0
Co1155 Co 0.83325 0.71321 0.716 0.0
C1156 C 0.82954 0.72496 0.67474 0.0
C1157 C 0.85174 0.70383 0.67837 0.0
C1158 C 0.85007 0.70777 0.65903 0.0
N1159 N 0.83904 0.7148 0.68843 0.0
N1160 N 0.83593 0.72091 0.65672 0.0
H1161 H 0.81688 0.73365 0.67754 0.0
H1162 H 0.86041 0.69227 0.68404 0.0
C1163 C 0.82584 0.67092 0.72469 0.0
O1164 O 0.83324 0.67308 0.74206 0.0
N1165 N 0.82722 0.7118 0.74332 0.0
C1166 C 0.83718 0.71955 0.75817 0.0
C1167 C 0.82547 0.71968 0.77436 0.0
C1168 C 0.80964 0.70745 0.75064 0.0
N1169 N 0.80812 0.71207 0.76957 0.0
C1170 C 0.87153 0.72677 0.72153 0.0
C1171 C 0.89014 0.69286 0.71219 0.0
C1172 C 0.89978 0.71054 0.70891 0.0
C1173 C 0.89064 0.72746 0.7152 0.0
C1174 C 0.87076 0.69286 0.71851 0.0
N1175 N 0.8611 0.70995 0.72093 0.0
H1176 H 0.86469 0.74037 0.72476 0.0
H1177 H 0.86309 0.6793 0.71846 0.0
H1178 H 0.85137 0.72602 0.75706 0.0
H1179 H 0.79788 0.70184 0.74196 0.0
O1180 O 0.83212 0.74112 0.71799 0.0
O1181 O 0.80698 0.72262 0.7114 0.0
O1182 O 0.82729 0.68462 0.7123 0.0
C1183 C 0.81371 0.73988 0.71478 0.0
H1184 H 0.85737 0.70015 0.64745 0.0
H1185 H 0.82902 0.72627 0.78811 0.0
H1186 H 0.8968 0.6793 0.70806 0.0
H1187 H 0.89724 0.74152 0.71325 0.0
Co1188 Co 0.72576 0.60324 0.71927 0.0
C1189 C 0.71673 0.60421 0.76156 0.0
C1190 C 0.74234 0.58803 0.7555 0.0
C1191 C 0.73991 0.58866 0.77513 0.0
N1192 N 0.72765 0.59753 0.7468 0.0
N1193 N 0.72396 0.59911 0.779 0.0
H1194 H 0.70491 0.61425 0.7598 0.0
H1195 H 0.75514 0.58262 0.74849 0.0
C1196 C 0.76711 0.61276 0.70687 0.0
O1197 O 0.76377 0.60738 0.68896 0.0
N1198 N 0.72409 0.60917 0.69191 0.0
C1199 C 0.71668 0.59835 0.67747 0.0
C1200 C 0.71508 0.60972 0.66113 0.0
C1201 C 0.72675 0.6269 0.68419 0.0
N1202 N 0.72144 0.62769 0.66541 0.0
C1203 C 0.7127 0.56478 0.7141 0.0
C1204 C 0.74697 0.54744 0.72449 0.0
C1205 C 0.72945 0.53787 0.72863 0.0
C1206 C 0.71239 0.54605 0.72154 0.0
C1207 C 0.74661 0.56628 0.71678 0.0
N1208 N 0.72934 0.57552 0.71415 0.0
H1209 H 0.69901 0.57126 0.71051 0.0
H1210 H 0.76004 0.57417 0.71579 0.0
H1211 H 0.71179 0.58358 0.67884 0.0
H1212 H 0.73206 0.63916 0.69237 0.0
O1213 O 0.69777 0.60336 0.7206 0.0
O1214 O 0.71603 0.62919 0.72481 0.0
O1215 O 0.75433 0.61002 0.71998 0.0
C1216 C 0.69873 0.62183 0.72364 0.0
H1217 H 0.75017 0.58347 0.78575 0.0
H1218 H 0.70863 0.60535 0.64756 0.0
H1219 H 0.76066 0.54124 0.72889 0.0
H1220 H 0.69854 0.53902 0.72371 0.0
Co1221 Co 0.83075 0.4769 0.97737 0.0
C1222 C 0.8258 0.48608 0.01812 0.0
C1223 C 0.85192 0.46992 0.01407 0.0
C1224 C 0.85032 0.47472 0.03336 0.0
N1225 N 0.83656 0.47726 0.0046 0.0
N1226 N 0.83386 0.48496 0.0359 0.0
H1227 H 0.81176 0.49219 0.01498 0.0
H1228 H 0.86332 0.46145 0.00757 0.0
C1229 C 0.82424 0.51818 0.96611 0.0
O1230 O 0.83449 0.51513 0.95039 0.0
N1231 N 0.82403 0.47684 0.95011 0.0
C1232 C 0.83453 0.47249 0.93423 0.0
C1233 C 0.82273 0.474 0.91818 0.0
C1234 C 0.80612 0.48089 0.94346 0.0
N1235 N 0.8049 0.47935 0.92407 0.0
C1236 C 0.8692 0.46673 0.96739 0.0
C1237 C 0.88599 0.49734 0.9867 0.0
C1238 C 0.89669 0.48018 0.98446 0.0
C1239 C 0.88844 0.46528 0.97343 0.0
C1240 C 0.86665 0.49809 0.98067 0.0
N1241 N 0.85806 0.48229 0.9724 0.0
H1242 H 0.86263 0.45404 0.96109 0.0
H1243 H 0.85808 0.5103 0.98525 0.0
H1244 H 0.84955 0.46836 0.93403 0.0
H1245 H 0.79417 0.48501 0.95271 0.0
O1246 O 0.83186 0.44888 0.97728 0.0
O1247 O 0.80547 0.466 0.98287 0.0
O1248 O 0.82304 0.50507 0.97907 0.0
C1249 C 0.81342 0.44907 0.98092 0.0
H1250 H 0.86017 0.47034 0.0447 0.0
H1251 H 0.82684 0.47079 0.90341 0.0
H1252 H 0.89185 0.50939 0.99483 0.0
H1253 H 0.89583 0.45163 0.97144 0.0
Co1254 Co 0.9647 0.5803 0.21722 0.0
C1255 C 0.96419 0.57393 0.25922 0.0
C1256 C 0.9843 0.59628 0.25141 0.0
C1257 C 0.98454 0.59426 0.27122 0.0
N1258 N 0.97156 0.58347 0.244 0.0
N1259 N 0.9717 0.5804 0.27601 0.0
H1260 H 0.95406 0.56204 0.25803 0.0
H1261 H 0.99285 0.60633 0.24299 0.0
C1262 C 0.92176 0.57169 0.21762 0.0
O1263 O 0.91885 0.58528 0.20468 0.0
N1264 N 0.95815 0.57648 0.19019 0.0
C1265 C 0.96674 0.58456 0.17464 0.0
C1266 C 0.96508 0.5721 0.15914 0.0
C1267 C 0.95128 0.55936 0.18372 0.0
N1268 N 0.9557 0.55599 0.16497 0.0
C1269 C 0.96806 0.62083 0.2102 0.0
C1270 C 0.94452 0.6306 0.24099 0.0
C1271 C 0.95865 0.64378 0.23492 0.0
C1272 C 0.96962 0.63927 0.21852 0.0
C1273 C 0.94321 0.61245 0.23211 0.0
N1274 N 0.95592 0.60717 0.21784 0.0
H1275 H 0.97873 0.61684 0.19959 0.0
H1276 H 0.93413 0.60181 0.23901 0.0
H1277 H 0.97577 0.59726 0.17487 0.0
H1278 H 0.94476 0.54889 0.19323 0.0
O1279 O 0.99169 0.58443 0.21035 0.0
O1280 O 0.97831 0.55591 0.21642 0.0
O1281 O 0.9386 0.56929 0.2249 0.0
C1282 C 0.99363 0.56576 0.21179 0.0
H1283 H 0.99361 0.6021 0.28131 0.0
H1284 H 0.97213 0.57393 0.14528 0.0
H1285 H 0.93589 0.63353 0.25374 0.0
H1286 H 0.98087 0.649 0.21357 0.0
Co1287 Co 0.85123 0.7105 0.46882 0.0
C1288 C 0.8508 0.71676 0.51158 0.0
C1289 C 0.83719 0.69023 0.50363 0.0
C1290 C 0.8387 0.69073 0.52336 0.0
N1291 N 0.84467 0.70663 0.49603 0.0
N1292 N 0.84753 0.70728 0.52836 0.0
H1293 H 0.85985 0.72948 0.51074 0.0
H1294 H 0.83336 0.67741 0.49566 0.0
C1295 C 0.85802 0.67017 0.45328 0.0
O1296 O 0.84945 0.67466 0.43693 0.0
N1297 N 0.8584 0.71372 0.44186 0.0
C1298 C 0.84878 0.72204 0.42708 0.0
C1299 C 0.86091 0.72288 0.41122 0.0
C1300 C 0.87615 0.70969 0.43476 0.0
N1301 N 0.87812 0.71506 0.41611 0.0
C1302 C 0.81373 0.72466 0.46106 0.0
C1303 C 0.79483 0.69217 0.47438 0.0
C1304 C 0.78604 0.71033 0.47662 0.0
C1305 C 0.79493 0.72635 0.46816 0.0
C1306 C 0.81358 0.69105 0.46647 0.0
N1307 N 0.82367 0.70761 0.46252 0.0
H1308 H 0.821 0.73781 0.45689 0.0
H1309 H 0.82073 0.6772 0.46628 0.0
H1310 H 0.83426 0.72769 0.42772 0.0
H1311 H 0.88754 0.70315 0.44327 0.0
O1312 O 0.8515 0.73833 0.47208 0.0
O1313 O 0.87706 0.71962 0.47579 0.0
O1314 O 0.85782 0.68211 0.46736 0.0
C1315 C 0.86989 0.73703 0.47546 0.0
H1316 H 0.83644 0.67855 0.53295 0.0
H1317 H 0.85756 0.72959 0.39749 0.0
H1318 H 0.78825 0.67934 0.48052 0.0
H1319 H 0.78848 0.74059 0.46935 0.0
Co1320 Co 0.96455 0.72543 0.58235 0.0
C1321 C 0.9234 0.71298 0.58413 0.0
C1322 C 0.92695 0.7426 0.5922 0.0
C1323 C 0.90762 0.73903 0.58996 0.0
N1324 N 0.93702 0.72637 0.58812 0.0
N1325 N 0.90532 0.72048 0.58443 0.0
H1326 H 0.92662 0.69852 0.57923 0.0
H1327 H 0.93305 0.75677 0.59455 0.0
C1328 C 0.9761 0.76732 0.57661 0.0
O1329 O 0.99299 0.76422 0.58471 0.0
N1330 N 0.9919 0.72505 0.5759 0.0
C1331 C 0.00729 0.719 0.58622 0.0
C1332 C 0.02346 0.71955 0.5745 0.0
C1333 C 0.99898 0.72921 0.55815 0.0
N1334 N 0.01819 0.72601 0.55684 0.0
C1335 C 0.97304 0.71196 0.61995 0.0
C1336 C 0.95594 0.74247 0.63916 0.0
C1337 C 0.95665 0.7243 0.64823 0.0
C1338 C 0.9666 0.70939 0.6389 0.0
C1339 C 0.96272 0.74446 0.62005 0.0
N1340 N 0.96944 0.72873 0.61009 0.0
H1341 H 0.97889 0.6995 0.61262 0.0
H1342 H 0.9604 0.75804 0.61276 0.0
H1343 H 0.00696 0.714 0.60099 0.0
H1344 H 0.99013 0.73426 0.54628 0.0
O1345 O 0.96421 0.69744 0.58179 0.0
O1346 O 0.9591 0.7159 0.55629 0.0
O1347 O 0.96339 0.75394 0.57615 0.0
C1348 C 0.96088 0.69853 0.56336 0.0
H1349 H 0.89655 0.75008 0.5897 0.0
H1350 H 0.03778 0.71468 0.57847 0.0
H1351 H 0.94855 0.75448 0.64599 0.0
H1352 H 0.96783 0.69525 0.64555 0.0
Co1353 Co 0.46195 0.96129 0.6041 0.0
C1354 C 0.42081 0.97399 0.605 0.0
C1355 C 0.42466 0.95011 0.58584 0.0
C1356 C 0.40535 0.95448 0.58653 0.0
N1357 N 0.4346 0.96257 0.59717 0.0
N1358 N 0.40284 0.9693 0.59889 0.0
H1359 H 0.42346 0.98408 0.61659 0.0
H1360 H 0.43031 0.93727 0.57914 0.0
C1361 C 0.47087 0.91901 0.60947 0.0
O1362 O 0.48778 0.92158 0.60117 0.0
N1363 N 0.48892 0.95991 0.61156 0.0
C1364 C 0.50427 0.96878 0.6035 0.0
C1365 C 0.51965 0.96759 0.61615 0.0
C1366 C 0.49516 0.95354 0.62894 0.0
N1367 N 0.51387 0.95814 0.63228 0.0
C1368 C 0.47134 0.97515 0.56666 0.0
C1369 C 0.45738 0.94348 0.54686 0.0
C1370 C 0.45677 0.96171 0.53801 0.0
C1371 C 0.46547 0.97726 0.54749 0.0
C1372 C 0.4638 0.94194 0.56611 0.0
N1373 N 0.46823 0.95824 0.57647 0.0
H1374 H 0.47607 0.988 0.5741 0.0
H1375 H 0.46199 0.92821 0.57324 0.0
H1376 H 0.50415 0.9766 0.59 0.0
H1377 H 0.48584 0.94605 0.639 0.0
O1378 O 0.46339 0.98923 0.60537 0.0
O1379 O 0.45627 0.97053 0.63023 0.0
O1380 O 0.45848 0.93272 0.60955 0.0
C1381 C 0.45943 0.9879 0.62365 0.0
H1382 H 0.39389 0.94602 0.58001 0.0
H1383 H 0.53367 0.97422 0.61404 0.0
H1384 H 0.45088 0.93104 0.53987 0.0
H1385 H 0.46556 0.99153 0.54099 0.0
Co1386 Co 0.47339 0.21826 0.85367 0.0
C1387 C 0.47396 0.17639 0.8588 0.0
C1388 C 0.45505 0.1843 0.8355 0.0
C1389 C 0.45484 0.16447 0.83734 0.0
N1390 N 0.46711 0.19163 0.84895 0.0
N1391 N 0.46685 0.15959 0.85192 0.0
H1392 H 0.48311 0.17767 0.87145 0.0
H1393 H 0.44668 0.19277 0.82538 0.0
C1394 C 0.51657 0.21866 0.85973 0.0
O1395 O 0.51852 0.23337 0.84788 0.0
N1396 N 0.47985 0.2451 0.85914 0.0
C1397 C 0.47925 0.26095 0.84776 0.0
C1398 C 0.4822 0.27714 0.85916 0.0
C1399 C 0.48342 0.25193 0.87712 0.0
N1400 N 0.48491 0.27134 0.87759 0.0
C1401 C 0.46561 0.22802 0.81457 0.0
C1402 C 0.49096 0.20113 0.79936 0.0
C1403 C 0.47505 0.20693 0.78828 0.0
C1404 C 0.46288 0.2213 0.79566 0.0
C1405 C 0.49299 0.20794 0.81836 0.0
N1406 N 0.47966 0.22033 0.82618 0.0
H1407 H 0.45476 0.23748 0.82062 0.0
H1408 H 0.50361 0.20097 0.82738 0.0
H1409 H 0.47616 0.26106 0.83248 0.0
H1410 H 0.48344 0.24303 0.88994 0.0
O1411 O 0.44598 0.22469 0.85264 0.0
O1412 O 0.46199 0.21629 0.87906 0.0
O1413 O 0.50021 0.21037 0.86181 0.0
C1414 C 0.44576 0.22146 0.87118 0.0
H1415 H 0.44602 0.15447 0.82911 0.0
H1416 H 0.48164 0.29204 0.85441 0.0
H1417 H 0.5005 0.18981 0.7942 0.0
H1418 H 0.45034 0.22601 0.78754 0.0
Co1419 Co 0.21989 0.22478 0.10217 0.0
C1420 C 0.2615 0.23103 0.10521 0.0
C1421 C 0.25489 0.21316 0.08072 0.0
C1422 C 0.27463 0.21516 0.0819 0.0
N1423 N 0.24676 0.22324 0.09529 0.0
N1424 N 0.27875 0.22636 0.09737 0.0
H1425 H 0.25964 0.23856 0.11883 0.0
H1426 H 0.24715 0.20416 0.07057 0.0
C1427 C 0.21141 0.26681 0.10885 0.0
O1428 O 0.19496 0.26468 0.09958 0.0
N1429 N 0.19292 0.22627 0.10993 0.0
C1430 C 0.17696 0.21903 0.1014 0.0
C1431 C 0.16189 0.21965 0.11448 0.0
C1432 C 0.18723 0.23125 0.12798 0.0
N1433 N 0.16842 0.22712 0.13133 0.0
C1434 C 0.20874 0.21436 0.06406 0.0
C1435 C 0.23023 0.24327 0.04676 0.0
C1436 C 0.22713 0.22598 0.03661 0.0
C1437 C 0.2151 0.21201 0.04497 0.0
C1438 C 0.2237 0.24502 0.06593 0.0
N1439 N 0.21444 0.22995 0.07487 0.0
H1440 H 0.20193 0.20209 0.07086 0.0
H1441 H 0.22885 0.25719 0.07422 0.0
H1442 H 0.17627 0.21279 0.08714 0.0
H1443 H 0.19702 0.23735 0.13853 0.0
O1444 O 0.21824 0.19672 0.10182 0.0
O1445 O 0.22581 0.2143 0.12741 0.0
O1446 O 0.22358 0.25292 0.10926 0.0
C1447 C 0.22283 0.19725 0.12006 0.0
H1448 H 0.28518 0.20785 0.07292 0.0
H1449 H 0.1475 0.21396 0.11208 0.0
H1450 H 0.23958 0.25438 0.04084 0.0
H1451 H 0.21235 0.19846 0.03759 0.0
Co1452 Co 0.71118 0.47624 0.85572 0.0
C1453 C 0.72228 0.51804 0.85459 0.0
C1454 C 0.69688 0.51239 0.83798 0.0
C1455 C 0.70036 0.53186 0.83756 0.0
N1456 N 0.71081 0.50348 0.84838 0.0
N1457 N 0.71612 0.53553 0.84837 0.0
H1458 H 0.73365 0.51627 0.86513 0.0
H1459 H 0.68383 0.50579 0.83265 0.0
C1460 C 0.66923 0.46492 0.86072 0.0
O1461 O 0.67286 0.44757 0.85388 0.0
N1462 N 0.71125 0.44918 0.86343 0.0
C1463 C 0.71709 0.43351 0.85338 0.0
C1464 C 0.71617 0.41755 0.86529 0.0
C1465 C 0.70695 0.44247 0.88133 0.0
N1466 N 0.70972 0.4232 0.88284 0.0
C1467 C 0.72712 0.4668 0.81923 0.0
C1468 C 0.69648 0.48048 0.79775 0.0
C1469 C 0.71524 0.48154 0.78998 0.0
C1470 C 0.73026 0.4728 0.80025 0.0
C1471 C 0.6939 0.47383 0.81686 0.0
N1472 N 0.70963 0.4696 0.82808 0.0
H1473 H 0.73949 0.46195 0.82736 0.0
H1474 H 0.67969 0.47485 0.82324 0.0
H1475 H 0.72212 0.43351 0.8386 0.0
H1476 H 0.70199 0.45157 0.89307 0.0
O1477 O 0.73906 0.47668 0.85785 0.0
O1478 O 0.7191 0.48294 0.88202 0.0
O1479 O 0.6823 0.47798 0.86019 0.0
C1480 C 0.73683 0.4808 0.876 0.0
H1481 H 0.69078 0.54267 0.83154 0.0
H1482 H 0.72068 0.40305 0.86149 0.0
H1483 H 0.68431 0.48657 0.79001 0.0
H1484 H 0.74482 0.47253 0.79443 0.0
Co1485 Co 0.71936 0.46253 0.0808 0.0
C1486 C 0.75893 0.47819 0.0871 0.0
C1487 C 0.75822 0.44732 0.08926 0.0
C1488 C 0.77703 0.45334 0.09047 0.0
N1489 N 0.7468 0.46287 0.08679 0.0
N1490 N 0.77769 0.4728 0.0886 0.0
H1491 H 0.75414 0.49288 0.08546 0.0
H1492 H 0.75353 0.43242 0.08905 0.0
C1493 C 0.70899 0.42053 0.07441 0.0
O1494 O 0.69221 0.4233 0.08289 0.0
N1495 N 0.69204 0.46216 0.07425 0.0
C1496 C 0.67667 0.46883 0.08424 0.0
C1497 C 0.66096 0.4697 0.07195 0.0
C1498 C 0.68536 0.45889 0.05618 0.0
N1499 N 0.66656 0.46375 0.0542 0.0
C1500 C 0.71068 0.4746 0.11884 0.0
C1501 C 0.73034 0.4446 0.13631 0.0
C1502 C 0.72916 0.46247 0.14584 0.0
C1503 C 0.71798 0.47707 0.1375 0.0
C1504 C 0.72271 0.44269 0.11756 0.0
N1505 N 0.71465 0.45827 0.10838 0.0
H1506 H 0.70417 0.48701 0.11202 0.0
H1507 H 0.72581 0.42959 0.10969 0.0
H1508 H 0.67681 0.47365 0.09907 0.0
H1509 H 0.6944 0.45358 0.04456 0.0
O1510 O 0.71862 0.49052 0.08082 0.0
O1511 O 0.72479 0.4726 0.05506 0.0
O1512 O 0.72149 0.43414 0.07396 0.0
C1513 C 0.72257 0.48976 0.06247 0.0
H1514 H 0.78937 0.44372 0.09056 0.0
H1515 H 0.64681 0.47538 0.07553 0.0
H1516 H 0.73885 0.43293 0.14237 0.0
H1517 H 0.71661 0.49103 0.14451 0.0
Co1518 Co 0.47439 0.96845 0.83515 0.0
C1519 C 0.4608 0.00914 0.83893 0.0
C1520 C 0.49046 0.00605 0.84689 0.0
C1521 C 0.48637 0.02534 0.84561 0.0
N1522 N 0.47456 0.99572 0.84222 0.0
N1523 N 0.46779 0.02739 0.84008 0.0
H1524 H 0.44645 0.00576 0.83386 0.0
H1525 H 0.50477 1.00027 0.84903 0.0
C1526 C 0.51648 0.95845 0.82758 0.0
O1527 O 0.51401 0.94087 0.83433 0.0
N1528 N 0.47471 0.94134 0.82753 0.0
C1529 C 0.47243 0.92518 0.83821 0.0
C1530 C 0.47327 0.90932 0.82606 0.0
C1531 C 0.47699 0.93502 0.80915 0.0
N1532 N 0.4762 0.91555 0.80778 0.0
C1533 C 0.46151 0.95824 0.8724 0.0
C1534 C 0.49097 0.97746 0.89126 0.0
C1535 C 0.47258 0.97673 0.89989 0.0
C1536 C 0.45829 0.96556 0.89096 0.0
C1537 C 0.49359 0.96974 0.87259 0.0
N1538 N 0.47817 0.96243 0.86257 0.0
H1539 H 0.4495 0.95148 0.86506 0.0
H1540 H 0.50724 0.9721 0.86541 0.0
H1541 H 0.4703 0.92472 0.85367 0.0
H1542 H 0.47864 0.94458 0.7969 0.0
O1543 O 0.44635 0.96802 0.83486 0.0
O1544 O 0.46453 0.97493 0.80952 0.0
O1545 O 0.5028 0.97079 0.82861 0.0
C1546 C 0.44728 0.97239 0.81662 0.0
H1547 H 0.49715 0.03668 0.84587 0.0
H1548 H 0.47176 0.89434 0.83038 0.0
H1549 H 0.50256 0.98564 0.89792 0.0
H1550 H 0.44405 0.9642 0.89739 0.0
Co1551 Co 0.21025 0.21121 0.33354 0.0
C1552 C 0.22058 0.16938 0.33283 0.0
C1553 C 0.19604 0.17479 0.3507 0.0
C1554 C 0.19792 0.1552 0.34858 0.0
N1555 N 0.21031 0.18392 0.34086 0.0
N1556 N 0.2132 0.15182 0.33713 0.0
H1557 H 0.2315 0.17138 0.32183 0.0
H1558 H 0.18327 0.18149 0.35655 0.0
C1559 C 0.16794 0.22103 0.32853 0.0
O1560 O 0.1708 0.23879 0.33466 0.0
N1561 N 0.20953 0.23828 0.32573 0.0
C1562 C 0.21218 0.25437 0.33642 0.0
C1563 C 0.21049 0.27029 0.32451 0.0
C1564 C 0.2063 0.24471 0.30752 0.0
N1565 N 0.20678 0.26422 0.30629 0.0
C1566 C 0.22581 0.22098 0.37008 0.0
C1567 C 0.19508 0.20693 0.3913 0.0
C1568 C 0.21377 0.20599 0.3992 0.0
C1569 C 0.22882 0.21497 0.38909 0.0
C1570 C 0.19265 0.21354 0.3722 0.0
N1571 N 0.20846 0.21787 0.36111 0.0
H1572 H 0.23815 0.22606 0.362 0.0
H1573 H 0.1785 0.2124 0.36574 0.0
H1574 H 0.2151 0.25472 0.35176 0.0
H1575 H 0.20414 0.2352 0.29532 0.0
O1576 O 0.23821 0.21145 0.33118 0.0
O1577 O 0.21821 0.20456 0.30728 0.0
O1578 O 0.18158 0.20866 0.32922 0.0
C1579 C 0.23593 0.20729 0.31303 0.0
H1580 H 0.18709 0.14454 0.35245 0.0
H1581 H 0.21192 0.28523 0.32899 0.0
H1582 H 0.18288 0.2007 0.39891 0.0
H1583 H 0.24332 0.21541 0.39504 0.0
C1584 C 0.17753 0.41619 0.19884 0.0
C1585 C 0.19478 0.41558 0.20965 0.0
C1586 C 0.16344 0.43037 0.20223 0.0
C1587 C 0.16583 0.44459 0.21666 0.0
H1588 H 0.17429 0.40494 0.18842 0.0
H1589 H 0.15007 0.42956 0.1941 0.0
S1590 S 0.20939 0.45125 0.24718 0.0
N1591 N 0.21435 0.43194 0.23397 0.0
N1592 N 0.18754 0.45832 0.24059 0.0
C1593 C 0.18335 0.44481 0.22695 0.0
C1594 C 0.19788 0.43043 0.22336 0.0
C1595 C 0.00307 0.91307 0.45544 0.0
C1596 C 0.98959 0.9155 0.47054 0.0
C1597 C 0.01708 0.92716 0.45138 0.0
C1598 C 0.0182 0.94445 0.46213 0.0
H1599 H 0.00342 0.89969 0.44728 0.0
H1600 H 0.02784 0.92387 0.44047 0.0
S1601 S 0.98427 0.95907 0.50127 0.0
N1602 N 0.977 0.93714 0.49511 0.0
N1603 N 0.00287 0.9641 0.4871 0.0
C1604 C 0.00396 0.94758 0.47649 0.0
C1605 C 0.98983 0.93301 0.48081 0.0
C1606 C 0.50258 0.74133 0.72561 0.0
C1607 C 0.5218 0.74355 0.71937 0.0
C1608 C 0.48836 0.75512 0.72077 0.0
C1609 C 0.4929 0.77157 0.70952 0.0
H1610 H 0.49858 0.72897 0.73437 0.0
H1611 H 0.47378 0.75307 0.72613 0.0
S1612 S 0.54171 0.78453 0.69104 0.0
N1613 N 0.54487 0.7636 0.7021 0.0
N1614 N 0.51847 0.78956 0.69328 0.0
C1615 C 0.51218 0.77383 0.70329 0.0
C1616 C 0.52653 0.75984 0.70817 0.0
C1617 C 0.66459 0.25989 0.95116 0.0
C1618 C 0.66569 0.24149 0.95985 0.0
C1619 C 0.67804 0.27445 0.95539 0.0
C1620 C 0.6932 0.27145 0.96863 0.0
H1621 H 0.65273 0.26346 0.94157 0.0
H1622 H 0.67618 0.28846 0.94861 0.0
S1623 S 0.70383 0.22566 0.99429 0.0
N1624 N 0.68428 0.22075 0.98143 0.0
N1625 N 0.70923 0.24851 0.98974 0.0
C1626 C 0.69484 0.25312 0.9772 0.0
C1627 C 0.68122 0.23808 0.97271 0.0
C1628 C 0.19942 0.75301 0.46551 0.0
C1629 C 0.19478 0.77013 0.47568 0.0
C1630 C 0.18517 0.73903 0.46118 0.0
C1631 C 0.16582 0.74179 0.46679 0.0
H1632 H 0.21415 0.75049 0.46078 0.0
H1633 H 0.18929 0.72603 0.45346 0.0
S1634 S 0.14563 0.78486 0.49165 0.0
N1635 N 0.169 0.78946 0.48983 0.0
N1636 N 0.14251 0.76329 0.48187 0.0
C1637 C 0.16096 0.75892 0.47663 0.0
C1638 C 0.17535 0.77304 0.48104 0.0
C1639 C 0.66535 0.92835 0.73659 0.0
C1640 C 0.66479 0.94573 0.726 0.0
C1641 C 0.67929 0.91415 0.73284 0.0
C1642 C 0.69339 0.91655 0.7183 0.0
H1643 H 0.65423 0.92511 0.74716 0.0
H1644 H 0.67841 0.90072 0.74088 0.0
S1645 S 0.69993 0.96026 0.68795 0.0
N1646 N 0.68088 0.96529 0.7015 0.0
N1647 N 0.70693 0.93831 0.69428 0.0
C1648 C 0.6936 0.93413 0.7081 0.0
C1649 C 0.6794 0.94877 0.71202 0.0
C1650 C 0.52261 0.43394 0.97992 0.0
C1651 C 0.51946 0.44773 0.96528 0.0
C1652 C 0.50886 0.41962 0.98415 0.0
C1653 C 0.49116 0.41852 0.97408 0.0
H1654 H 0.53625 0.43369 0.98763 0.0
H1655 H 0.51265 0.40872 0.99474 0.0
S1656 S 0.47481 0.45305 0.93622 0.0
N1657 N 0.49685 0.46047 0.94174 0.0
N1658 N 0.4705 0.4341 0.95015 0.0
C1659 C 0.4874 0.43297 0.96011 0.0
C1660 C 0.50164 0.44739 0.95558 0.0
C1661 C 0.00584 0.24057 0.22615 0.0
C1662 C 0.02573 0.24313 0.22278 0.0
C1663 C 0.99244 0.25507 0.22098 0.0
C1664 C 0.99854 0.2724 0.21208 0.0
H1665 H 1.00065 0.22737 0.23281 0.0
H1666 H 0.97723 0.25275 0.224 0.0
S1667 S 0.04937 0.28643 0.20171 0.0
N1668 N 0.05098 0.26447 0.21095 0.0
N1669 N 0.02606 0.29159 0.20136 0.0
C1670 C 0.01848 0.27506 0.20888 0.0
C1671 C 0.03199 0.26045 0.2142 0.0
C1672 C 0.21222 0.17967 0.44789 0.0
C1673 C 0.2253 0.16424 0.44503 0.0
C1674 C 0.20878 0.19352 0.4333 0.0
C1675 C 0.21838 0.19249 0.41538 0.0
H1676 H 0.20417 0.18073 0.46129 0.0
H1677 H 0.19833 0.20489 0.43593 0.0
S1678 S 0.25273 0.1542 0.39989 0.0
N1679 N 0.24708 0.14843 0.42235 0.0
N1680 N 0.24079 0.17433 0.39526 0.0
C1681 C 0.23157 0.17726 0.41242 0.0
C1682 C 0.23503 0.16321 0.42715 0.0
C1683 C 0.2403 0.95911 0.68364 0.0
C1684 C 0.2429 0.96356 0.66396 0.0
C1685 C 0.25422 0.96463 0.69755 0.0
C1686 C 0.27114 0.97483 0.69222 0.0
H1687 H 0.22745 0.95142 0.68828 0.0
H1688 H 0.25176 0.96086 0.71256 0.0
S1689 S 0.28509 0.9884 0.64202 0.0
N1690 N 0.26376 0.97795 0.6397 0.0
N1691 N 0.28995 0.98787 0.66538 0.0
C1692 C 0.27384 0.97903 0.67243 0.0
C1693 C 0.25974 0.9735 0.65845 0.0
C1694 C 0.47077 0.00371 0.94821 0.0
C1695 C 0.45785 0.01908 0.94436 0.0
C1696 C 0.47537 0.98977 0.93401 0.0
C1697 C 0.46705 0.99056 0.91548 0.0
H1698 H 0.47783 0.00276 0.96217 0.0
H1699 H 0.48567 0.97848 0.93745 0.0
S1700 S 0.43328 0.02807 0.89739 0.0
N1701 N 0.43744 0.03431 0.92006 0.0
N1702 N 0.44573 0.00803 0.8938 0.0
C1703 C 0.45392 0.00556 0.91151 0.0
C1704 C 0.44935 0.01978 0.92583 0.0
C1705 C 0.44597 0.21284 0.17891 0.0
C1706 C 0.44136 0.22401 0.16243 0.0
C1707 C 0.43178 0.20806 0.19283 0.0
C1708 C 0.41254 0.21427 0.19068 0.0
H1709 H 0.46061 0.20768 0.18098 0.0
H1710 H 0.43587 0.19954 0.20532 0.0
S1711 S 0.39241 0.24185 0.14931 0.0
N1712 N 0.41565 0.23971 0.14425 0.0
N1713 N 0.38936 0.23106 0.17039 0.0
C1714 C 0.40772 0.22514 0.17419 0.0
C1715 C 0.42202 0.22994 0.16009 0.0
C1716 C 0.20654 0.02187 0.25595 0.0
C1717 C 0.22097 0.01891 0.24186 0.0
C1718 C 0.2023 0.00781 0.26994 0.0
C1719 C 0.21216 0.98999 0.27045 0.0
H1720 H 0.19891 0.03555 0.25662 0.0
H1721 H 0.19181 0.01141 0.28102 0.0
S1722 S 0.24964 0.97417 0.2352 0.0
N1723 N 0.24422 0.99641 0.22834 0.0
N1724 N 0.23588 0.96955 0.25421 0.0
C1725 C 0.22605 0.98649 0.25582 0.0
C1726 C 0.23056 1.00102 0.24169 0.0
C1727 C 0.41083 0.97927 0.51436 0.0
C1728 C 0.41429 0.97706 0.49438 0.0
C1729 C 0.42463 0.97388 0.52812 0.0
C1730 C 0.4425 0.96596 0.52259 0.0
H1731 H 0.39713 0.98487 0.5195 0.0
H1732 H 0.4213 0.97594 0.54332 0.0
S1733 S 0.45908 0.95713 0.47242 0.0
N1734 N 0.43717 0.96635 0.46983 0.0
N1735 N 0.46317 0.95618 0.49596 0.0
C1736 C 0.44629 0.96352 0.50279 0.0
C1737 C 0.43215 0.96904 0.48863 0.0
C1738 C 0.44924 0.16832 0.75919 0.0
C1739 C 0.46008 0.16728 0.74193 0.0
C1740 C 0.45355 0.182 0.77359 0.0
C1741 C 0.46896 0.19511 0.7714 0.0
H1742 H 0.43814 0.15769 0.76225 0.0
H1743 H 0.44545 0.1816 0.78701 0.0
S1744 S 0.49997 0.20062 0.72808 0.0
N1745 N 0.48536 0.18249 0.72261 0.0
N1746 N 0.49389 0.20758 0.75014 0.0
C1747 C 0.47921 0.19507 0.7539 0.0
C1748 C 0.47464 0.18135 0.73905 0.0
C1749 C 0.25251 0.20509 0.02149 0.0
C1750 C 0.2397 0.22082 0.01983 0.0
C1751 C 0.26677 0.20149 0.00744 0.0
C1752 C 0.26873 0.21337 0.99098 0.0
H1753 H 0.25226 0.1961 0.03432 0.0
H1754 H 0.27708 0.19004 0.0102 0.0
S1755 S 0.23642 0.25443 0.97827 0.0
N1756 N 0.22848 0.24715 0.99962 0.0
N1757 N 0.2546 0.23996 0.97268 0.0
C1758 C 0.25497 0.22828 0.98848 0.0
C1759 C 0.24068 0.23214 0.00302 0.0
C1760 C 0.92844 0.47674 0.02922 0.0
C1761 C 0.94426 0.46552 0.02313 0.0
C1762 C 0.91366 0.48193 0.01641 0.0
C1763 C 0.91409 0.47632 0.9968 0.0
H1764 H 0.92726 0.48118 0.04422 0.0
H1765 H 0.90143 0.48984 0.0222 0.0
S1766 S 0.95323 0.44781 0.97338 0.0
N1767 N 0.96001 0.44939 0.99626 0.0
N1768 N 0.9325 0.4596 0.97178 0.0
C1769 C 0.93016 0.46542 0.99041 0.0
C1770 C 0.94516 0.45992 0.00365 0.0
C1771 C 0.97258 0.65498 0.2662 0.0
C1772 C 0.96475 0.6597 0.24803 0.0
C1773 C 0.97864 0.66938 0.27913 0.0
C1774 C 0.97693 0.68914 0.27453 0.0
H1775 H 0.97398 0.63996 0.27048 0.0
H1776 H 0.98411 0.665 0.29315 0.0
S1777 S 0.95782 0.70914 0.22858 0.0
N1778 N 0.95619 0.68544 0.22576 0.0
N1779 N 0.96709 0.71266 0.25035 0.0
C1780 C 0.9693 0.69408 0.25631 0.0
C1781 C 0.9634 0.67933 0.24297 0.0
C1782 C 0.73836 0.71783 0.50378 0.0
C1783 C 0.74483 0.72475 0.52188 0.0
C1784 C 0.75159 0.71265 0.48906 0.0
C1785 C 0.77166 0.71386 0.49219 0.0
H1786 H 0.72301 0.71666 0.50091 0.0
H1787 H 0.74614 0.70791 0.47515 0.0
S1788 S 0.79612 0.72941 0.53729 0.0
N1789 N 0.77283 0.73141 0.54217 0.0
N1790 N 0.79735 0.72159 0.51476 0.0
C1791 C 0.77824 0.72024 0.5103 0.0
C1792 C 0.76493 0.72569 0.52508 0.0
C1793 C 0.95418 0.50653 0.41143 0.0
C1794 C 0.96788 0.49199 0.41506 0.0
C1795 C 0.94951 0.52037 0.42552 0.0
C1796 C 0.95826 0.52019 0.44395 0.0
H1797 H 0.94766 0.50777 0.39723 0.0
H1798 H 0.93981 0.53197 0.42145 0.0
S1799 S 0.99326 0.4833 0.46136 0.0
N1800 N 0.98906 0.47711 0.43865 0.0
N1801 N 0.97984 0.50263 0.46557 0.0
C1802 C 0.97117 0.5049 0.4481 0.0
C1803 C 0.9761 0.49095 0.43356 0.0
C1804 C 0.72744 0.66325 0.92187 0.0
C1805 C 0.72554 0.66747 0.94172 0.0
C1806 C 0.72117 0.67622 0.9077 0.0
C1807 C 0.71288 0.69409 0.91265 0.0
H1808 H 0.73319 0.64944 0.91718 0.0
H1809 H 0.72261 0.67209 0.89268 0.0
S1810 S 0.70518 0.71267 0.96232 0.0
N1811 N 0.715 0.6911 0.96558 0.0
N1812 N 0.70355 0.71576 0.93865 0.0
C1813 C 0.71122 0.69883 0.93234 0.0
C1814 C 0.71742 0.68543 0.94692 0.0
C1815 C 0.75482 0.4632 0.19476 0.0
C1816 C 0.77073 0.47557 0.19129 0.0
C1817 C 0.74112 0.45913 0.18021 0.0
C1818 C 0.74278 0.46741 0.16172 0.0
H1819 H 0.75323 0.4562 0.20869 0.0
H1820 H 0.72933 0.44928 0.18334 0.0
S1821 S 0.78207 0.49969 0.14459 0.0
N1822 N 0.78751 0.49532 0.16743 0.0
N1823 N 0.76165 0.48801 0.14046 0.0
C1824 C 0.75839 0.47994 0.15811 0.0
C1825 C 0.77235 0.48398 0.17279 0.0
C1826 C 0.91678 0.70128 0.67823 0.0
C1827 C 0.91688 0.71196 0.69561 0.0
C1828 C 0.93016 0.705 0.66344 0.0
C1829 C 0.94416 0.7197 0.6652 0.0
H1830 H 0.90557 0.69067 0.67549 0.0
H1831 H 0.92894 0.69687 0.65008 0.0
S1832 S 0.95256 0.75012 0.70851 0.0
N1833 N 0.93387 0.73644 0.71447 0.0
N1834 N 0.95851 0.74385 0.68621 0.0
C1835 C 0.94509 0.72992 0.68272 0.0
C1836 C 0.93163 0.72593 0.69801 0.0
C1837 C 0.71136 0.49283 0.75532 0.0
C1838 C 0.72001 0.49478 0.77363 0.0
C1839 C 0.71541 0.50609 0.74033 0.0
C1840 C 0.72816 0.52184 0.74314 0.0
H1841 H 0.70128 0.48114 0.75265 0.0
H1842 H 0.70811 0.50429 0.72659 0.0
S1843 S 0.75316 0.53414 0.7891 0.0
N1844 N 0.74117 0.51408 0.79401 0.0
N1845 N 0.74858 0.53891 0.76616 0.0
C1846 C 0.7369 0.5238 0.76143 0.0
C1847 C 0.73283 0.51034 0.77658 0.0
C1848 C 0.0447 0.45978 0.30582 0.0
C1849 C 0.03119 0.47357 0.31247 0.0
C1850 C 0.05682 0.46361 0.28989 0.0
C1851 C 0.0559 0.48139 0.28002 0.0
H1852 H 0.04495 0.44538 0.312 0.0
H1853 H 0.06564 0.45197 0.28428 0.0
S1854 S 0.02589 0.52367 0.29379 0.0
N1855 N 0.01998 0.50681 0.30965 0.0
N1856 N 0.04234 0.51375 0.27957 0.0
C1857 C 0.04378 0.49585 0.28759 0.0
C1858 C 0.03155 0.49203 0.30384 0.0
C1859 C 0.95332 0.79082 0.56094 0.0
C1860 C 0.97247 0.78516 0.56506 0.0
C1861 C 0.94926 0.80534 0.54731 0.0
C1862 C 0.96417 0.81461 0.53694 0.0
H1863 H 0.94129 0.78344 0.56777 0.0
H1864 H 0.93426 0.80846 0.54406 0.0
S1865 S 0.01688 0.80636 0.54352 0.0
N1866 N 0.00655 0.79108 0.5587 0.0
N1867 N 0.99898 0.81811 0.53299 0.0
C1868 C 0.98342 0.80984 0.54172 0.0
C1869 C 0.98756 0.79521 0.55579 0.0
C1870 C 0.63968 0.73189 0.80404 0.0
C1871 C 0.64954 0.71634 0.81268 0.0
C1872 C 0.62554 0.72875 0.78983 0.0
C1873 C 0.62039 0.70992 0.78392 0.0
H1874 H 0.64369 0.74666 0.80743 0.0
H1875 H 0.61911 0.74123 0.7829 0.0
S1876 S 0.64004 0.66428 0.80405 0.0
N1877 N 0.65198 0.68143 0.81564 0.0
N1878 N 0.62507 0.67548 0.78924 0.0
C1879 C 0.62918 0.69423 0.79344 0.0
C1880 C 0.64386 0.69745 0.80769 0.0
C1881 C 0.73184 0.39733 0.05824 0.0
C1882 C 0.71272 0.40264 0.06291 0.0
C1883 C 0.7358 0.38243 0.04494 0.0
C1884 C 0.72079 0.37238 0.0355 0.0
H1885 H 0.74392 0.40521 0.06438 0.0
H1886 H 0.75076 0.37959 0.04122 0.0
S1887 S 0.66815 0.37961 0.04364 0.0
N1888 N 0.67859 0.39567 0.05792 0.0
N1889 N 0.68597 0.3679 0.0329 0.0
C1890 C 0.7016 0.37686 0.0408 0.0
C1891 C 0.69758 0.3919 0.05449 0.0
C1892 C 0.04862 0.73337 0.38206 0.0
C1893 C 0.03661 0.71851 0.37492 0.0
C1894 C 0.06296 0.72962 0.39597 0.0
C1895 C 0.06619 0.7108 0.40306 0.0
H1896 H 0.0463 0.74822 0.37764 0.0
H1897 H 0.07116 0.7417 0.4017 0.0
S1898 S 0.03973 0.66648 0.38814 0.0
N1899 N 0.02972 0.68398 0.37536 0.0
N1900 N 0.05679 0.67695 0.40116 0.0
C1901 C 0.05503 0.69564 0.3953 0.0
C1902 C 0.04021 0.69949 0.38135 0.0
C1903 C 0.73901 0.80248 0.64375 0.0
C1904 C 0.7242 0.8145 0.65096 0.0
C1905 C 0.73517 0.78812 0.62984 0.0
C1906 C 0.71643 0.78534 0.62231 0.0
H1907 H 0.75349 0.80338 0.64965 0.0
H1908 H 0.74691 0.77871 0.62543 0.0
S1909 S 0.67295 0.81432 0.63493 0.0
N1910 N 0.69033 0.82358 0.64842 0.0
N1911 N 0.68317 0.79687 0.62221 0.0
C1912 C 0.70174 0.79804 0.62855 0.0
C1913 C 0.70561 0.81251 0.64288 0.0
C1914 C 0.64582 0.48793 0.87647 0.0
C1915 C 0.65122 0.46876 0.87206 0.0
C1916 C 0.6309 0.49202 0.88971 0.0
C1917 C 0.62089 0.47711 0.89938 0.0
H1918 H 0.65366 0.49996 0.87016 0.0
H1919 H 0.62798 0.50702 0.89319 0.0
S1920 S 0.62827 0.42439 0.89197 0.0
N1921 N 0.64431 0.43467 0.87755 0.0
N1922 N 0.61656 0.44235 0.90249 0.0
C1923 C 0.62549 0.45788 0.8944 0.0
C1924 C 0.64053 0.45371 0.88074 0.0
C1925 C 0.9888 0.38994 0.13071 0.0
C1926 C 0.97362 0.39915 0.1208 0.0
C1927 C 0.98506 0.37641 0.14539 0.0
C1928 C 0.96599 0.3713 0.15057 0.0
H1929 H 0.00368 0.39409 0.12801 0.0
H1930 H 0.99723 0.37051 0.15328 0.0
S1931 S 0.92114 0.38949 0.12742 0.0
N1932 N 0.93879 0.40084 0.11601 0.0
N1933 N 0.93181 0.37534 0.14341 0.0
C1934 C 0.95073 0.37934 0.13982 0.0
C1935 C 0.95453 0.39328 0.12501 0.0
C1936 C 0.30539 0.03813 0.4863 0.0
C1937 C 0.3121 0.0346 0.46736 0.0
C1938 C 0.29102 0.05202 0.49004 0.0
C1939 C 0.28253 0.06273 0.47494 0.0
H1940 H 0.31084 0.02964 0.49829 0.0
H1941 H 0.28579 0.05355 0.50474 0.0
S1942 S 0.29582 0.06005 0.42293 0.0
N1943 N 0.30992 0.04393 0.43348 0.0
N1944 N 0.28285 0.06978 0.44047 0.0
C1945 C 0.28974 0.06 0.45607 0.0
C1946 C 0.30453 0.04603 0.45229 0.0
C1947 C 0.38225 0.04244 0.73792 0.0
C1948 C 0.3711 0.03474 0.72275 0.0
C1949 C 0.39622 0.0568 0.73449 0.0
C1950 C 0.39949 0.06424 0.71575 0.0
H1951 H 0.38095 0.03658 0.75241 0.0
H1952 H 0.40507 0.06148 0.74655 0.0
S1953 S 0.37131 0.05143 0.67183 0.0
N1954 N 0.36246 0.03717 0.68884 0.0
N1955 N 0.38835 0.06448 0.68234 0.0
C1956 C 0.38732 0.05768 0.70075 0.0
C1957 C 0.37327 0.04283 0.70424 0.0
C1958 C 0.37645 0.14661 0.97759 0.0
C1959 C 0.37407 0.15412 0.95877 0.0
C1960 C 0.38995 0.13191 0.98156 0.0
C1961 C 0.40189 0.12412 0.96695 0.0
H1962 H 0.3683 0.15261 0.98956 0.0
H1963 H 0.39163 0.12731 0.99644 0.0
S1964 S 0.40036 0.13741 0.91487 0.0
N1965 N 0.38399 0.15151 0.92506 0.0
N1966 N 0.40931 0.12409 0.93253 0.0
C1967 C 0.39897 0.13077 0.94788 0.0
C1968 C 0.3851 0.14566 0.9438 0.0
C1969 C 0.29359 0.12202 0.22488 0.0
C1970 C 0.28589 0.11907 0.20625 0.0
C1971 C 0.30732 0.13657 0.22852 0.0
C1972 C 0.31372 0.14912 0.21376 0.0
H1973 H 0.28843 0.11344 0.23694 0.0
H1974 H 0.31215 0.13862 0.24328 0.0
S1975 S 0.29889 0.1468 0.16212 0.0
N1976 N 0.28651 0.12924 0.1726 0.0
N1977 N 0.31209 0.1567 0.1794 0.0
C1978 C 0.3068 0.14574 0.19485 0.0
C1979 C 0.29298 0.13071 0.19111 0.0
C1980 C 0.489 0.29585 0.05346 0.0
C1981 C 0.47369 0.28576 0.06238 0.0
C1982 C 0.48549 0.31011 0.0394 0.0
C1983 C 0.46653 0.31512 0.03385 0.0
H1984 H 0.50386 0.292 0.05655 0.0
H1985 H 0.49779 0.31677 0.03231 0.0
S1986 S 0.42128 0.29429 0.05405 0.0
N1987 N 0.43876 0.2828 0.06552 0.0
N1988 N 0.4322 0.30963 0.03936 0.0
C1989 C 0.45107 0.30596 0.04347 0.0
C1990 C 0.45465 0.29128 0.05762 0.0
C1991 C 0.14627 0.9791 0.37887 0.0
C1992 C 0.15125 0.96004 0.37353 0.0
C1993 C 0.13179 0.98285 0.39266 0.0
C1994 C 0.12176 0.9677 0.4019 0.0
H1995 H 0.15415 0.99129 0.37294 0.0
H1996 H 0.12927 0.99773 0.3969 0.0
S1997 S 0.12726 0.91532 0.39134 0.0
N1998 N 0.14338 0.9259 0.37723 0.0
N1999 N 0.11638 0.93297 0.4032 0.0
C2000 C 0.12569 0.94865 0.39582 0.0
C2001 C 0.14034 0.94482 0.38163 0.0
C2002 C 0.20697 0.88713 0.55534 0.0
C2003 C 0.22161 0.89869 0.56359 0.0
C2004 C 0.21115 0.87342 0.54092 0.0
C2005 C 0.2302 0.87038 0.53436 0.0
H2006 H 0.19196 0.88935 0.55927 0.0
H2007 H 0.19925 0.86555 0.53442 0.0
S2008 S 0.27405 0.89577 0.55219 0.0
N2009 N 0.25616 0.90534 0.56481 0.0
N2010 N 0.264 0.87942 0.53795 0.0
C2011 C 0.24512 0.88106 0.54321 0.0
C2012 C 0.24084 0.89524 0.55772 0.0
C2013 C 0.55812 0.95208 0.79213 0.0
C2014 C 0.56232 0.97119 0.78631 0.0
C2015 C 0.54423 0.94814 0.80647 0.0
C2016 C 0.53374 0.96312 0.81545 0.0
H2017 H 0.56507 0.93997 0.785 0.0
H2018 H 0.54095 0.93316 0.80969 0.0
S2019 S 0.54043 0.01577 0.80683 0.0
N2020 N 0.55583 0.00533 0.79185 0.0
N2021 N 0.52972 0.99795 0.81857 0.0
C2022 C 0.53856 0.98233 0.81054 0.0
C2023 C 0.55285 0.98636 0.79608 0.0
C2024 C 0.13951 0.23114 0.30852 0.0
C2025 C 0.1504 0.21621 0.31701 0.0
C2026 C 0.12577 0.22722 0.29412 0.0
C2027 C 0.12213 0.20819 0.28775 0.0
H2028 H 0.14247 0.24612 0.31206 0.0
H2029 H 0.1186 0.23934 0.28728 0.0
S2030 S 0.14492 0.16362 0.30712 0.0
N2031 N 0.15516 0.18138 0.31939 0.0
N2032 N 0.12931 0.17407 0.29238 0.0
C2033 C 0.13181 0.19298 0.29717 0.0
C2034 C 0.14594 0.19698 0.31176 0.0
C2035 C 0.55118 0.21119 0.86889 0.0
C2036 C 0.53179 0.21453 0.87423 0.0
C2037 C 0.56551 0.2078 0.88306 0.0
C2038 C 0.56097 0.20859 0.9029 0.0
H2039 H 0.55521 0.21102 0.85375 0.0
H2040 H 0.58026 0.20512 0.8785 0.0
S2041 S 0.51249 0.21747 0.92425 0.0
N2042 N 0.50887 0.21783 0.90067 0.0
N2043 N 0.53587 0.21358 0.927 0.0
C2044 C 0.54171 0.21229 0.90827 0.0
C2045 C 0.5271 0.21472 0.894 0.0
C2046 C 0.23666 0.30215 0.14272 0.0
C2047 C 0.22117 0.31169 0.15194 0.0
C2048 C 0.23343 0.28837 0.12811 0.0
C2049 C 0.21459 0.28375 0.12184 0.0
H2050 H 0.25138 0.30455 0.14751 0.0
H2051 H 0.24579 0.28079 0.12214 0.0
S2052 S 0.16909 0.30578 0.14011 0.0
N2053 N 0.18631 0.31639 0.1528 0.0
N2054 N 0.18026 0.29074 0.12529 0.0
C2055 C 0.19904 0.29398 0.13016 0.0
C2056 C 0.20231 0.30785 0.14521 0.0
C2057 C 0.44462 0.88253 0.64144 0.0
C2058 C 0.45985 0.87301 0.65104 0.0
C2059 C 0.44826 0.89671 0.62728 0.0
C2060 C 0.46728 0.90172 0.62187 0.0
H2061 H 0.42975 0.87983 0.64561 0.0
H2062 H 0.43607 0.90427 0.62101 0.0
S2063 S 0.51229 0.87978 0.6413 0.0
N2064 N 0.4947 0.86873 0.65308 0.0
N2065 N 0.50152 0.89502 0.62644 0.0
C2066 C 0.4826 0.89148 0.63052 0.0
C2067 C 0.4789 0.87725 0.64511 0.0
C2068 C 0.80673 0.54358 0.98531 0.0
C2069 C 0.81113 0.53514 0.96731 0.0
C2070 C 0.7926 0.55812 0.98697 0.0
C2071 C 0.78193 0.56448 0.97078 0.0
H2072 H 0.814 0.53862 0.99828 0.0
H2073 H 0.78945 0.56379 1.00125 0.0
S2074 S 0.78774 0.54655 0.92046 0.0
N2075 N 0.8038 0.53417 0.93299 0.0
N2076 N 0.77707 0.56114 0.93607 0.0
C2077 C 0.78646 0.55632 0.95264 0.0
C2078 C 0.80108 0.54176 0.95093 0.0
C2079 C 0.88657 0.56204 0.22081 0.0
C2080 C 0.90637 0.55708 0.22157 0.0
C2081 C 0.87197 0.54796 0.22341 0.0
C2082 C 0.8767 0.52837 0.22623 0.0
H2083 H 0.88235 0.5769 0.21822 0.0
H2084 H 0.85694 0.55234 0.22281 0.0
S2085 S 0.92605 0.50759 0.22858 0.0
N2086 N 0.92965 0.53098 0.22548 0.0
N2087 N 0.90236 0.5047 0.2291 0.0
C2088 C 0.89633 0.52325 0.22679 0.0
C2089 C 0.91112 0.53754 0.2248 0.0
C2090 C 0.88825 0.6268 0.43755 0.0
C2091 C 0.90032 0.62338 0.45363 0.0
C2092 C 0.87393 0.64123 0.43791 0.0
C2093 C 0.87091 0.65283 0.4544 0.0
H2094 H 0.89043 0.61891 0.42418 0.0
H2095 H 0.86572 0.64379 0.42482 0.0
S2096 S 0.89694 0.64804 0.50128 0.0
N2097 N 0.90702 0.63161 0.48717 0.0
N2098 N 0.88014 0.65852 0.48798 0.0
C2099 C 0.88209 0.64873 0.47101 0.0
C2100 C 0.89676 0.63411 0.47059 0.0
C2101 C 0.80757 0.64991 0.70104 0.0
C2102 C 0.81327 0.65381 0.72025 0.0
C2103 C 0.79355 0.63576 0.69674 0.0
C2104 C 0.78436 0.62503 0.71146 0.0
H2105 H 0.81355 0.65831 0.68922 0.0
H2106 H 0.7892 0.63394 0.68179 0.0
S2107 S 0.79497 0.6284 0.76403 0.0
N2108 N 0.80937 0.64464 0.75405 0.0
N2109 N 0.78302 0.61836 0.74596 0.0
C2110 C 0.79054 0.62813 0.73064 0.0
C2111 C 0.80497 0.64239 0.73502 0.0
C2112 C 0.04662 0.37231 0.24124 0.0
C2113 C 0.04977 0.36089 0.22456 0.0
C2114 C 0.05934 0.38708 0.24631 0.0
C2115 C 0.07572 0.39098 0.23506 0.0
H2116 H 0.03356 0.37119 0.2497 0.0
H2117 H 0.0555 0.39655 0.25821 0.0
S2118 S 0.09454 0.36162 0.19458 0.0
N2119 N 0.07382 0.35121 0.20043 0.0
N2120 N 0.09692 0.38024 0.20938 0.0
C2121 C 0.08048 0.37841 0.21998 0.0
C2122 C 0.06778 0.36292 0.21502 0.0
C2123 C 0.07739 0.81314 0.46859 0.0
C2124 C 0.07328 0.79468 0.46135 0.0
C2125 C 0.06266 0.82701 0.47011 0.0
C2126 C 0.04351 0.82272 0.46447 0.0
H2127 H 0.09179 0.81654 0.47372 0.0
H2128 H 0.06601 0.84087 0.47662 0.0
S2129 S 0.02657 0.77642 0.44263 0.0
N2130 N 0.04985 0.77317 0.44665 0.0
N2131 N 0.02194 0.7986 0.4501 0.0
C2132 C 0.03973 0.80448 0.45606 0.0
C2133 C 0.05471 0.7906 0.4544 0.0
C2134 C 0.62143 0.82818 0.71927 0.0
C2135 C 0.63639 0.8253 0.706 0.0
C2136 C 0.60736 0.81386 0.72209 0.0
C2137 C 0.60848 0.79584 0.71245 0.0
H2138 H 0.62105 0.84121 0.72797 0.0
H2139 H 0.59636 0.81638 0.73294 0.0
S2140 S 0.64435 0.78305 0.67418 0.0
N2141 N 0.65057 0.80493 0.68135 0.0
N2142 N 0.62507 0.77745 0.68707 0.0
C2143 C 0.6227 0.79369 0.69787 0.0
C2144 C 0.63658 0.80852 0.69472 0.0
C2145 C 0.60687 0.37899 0.9698 0.0
C2146 C 0.61145 0.39833 0.97437 0.0
C2147 C 0.62066 0.36427 0.97172 0.0
C2148 C 0.63932 0.36859 0.97819 0.0
H2149 H 0.59289 0.37553 0.96366 0.0
H2150 H 0.61712 0.34967 0.96731 0.0
S2151 S 0.65801 0.41584 0.99505 0.0
N2152 N 0.63575 0.42032 0.98773 0.0
N2153 N 0.66116 0.39242 0.99176 0.0
C2154 C 0.64361 0.38736 0.98445 0.0
C2155 C 0.62975 0.40234 0.98247 0.0
C2156 C 0.20414 0.07316 0.38066 0.0
C2157 C 0.22299 0.07615 0.38747 0.0
C2158 C 0.20035 0.05926 0.36649 0.0
C2159 C 0.21534 0.04779 0.35878 0.0
H2160 H 0.19214 0.08069 0.38735 0.0
H2161 H 0.1854 0.05637 0.36291 0.0
S2162 S 0.26764 0.05234 0.36951 0.0
N2163 N 0.25711 0.06813 0.38402 0.0
N2164 N 0.25001 0.04251 0.35674 0.0
C2165 C 0.23447 0.05206 0.36407 0.0
C2166 C 0.23831 0.06609 0.37864 0.0
C2167 C 0.37203 0.95867 0.61321 0.0
C2168 C 0.38537 0.97358 0.60937 0.0
C2169 C 0.35851 0.96043 0.62809 0.0
C2170 C 0.35787 0.97711 0.6397 0.0
H2171 H 0.37314 0.94482 0.60602 0.0
H2172 H 0.34977 0.94791 0.63159 0.0
S2173 S 0.38576 0.02221 0.63187 0.0
N2174 N 0.39416 0.00707 0.61541 0.0
N2175 N 0.36888 0.01022 0.64387 0.0
C2176 C 0.36945 0.99296 0.6345 0.0
C2177 C 0.38312 0.99125 0.61917 0.0
C2178 C 0.45147 0.13008 0.86416 0.0
C2179 C 0.46822 0.14122 0.86142 0.0
C2180 C 0.45129 0.11477 0.87731 0.0
C2181 C 0.46791 0.11004 0.88809 0.0
H2182 H 0.43799 0.1342 0.85734 0.0
H2183 H 0.4376 0.10771 0.88015 0.0
S2184 S 0.51655 0.1318 0.88255 0.0
N2185 N 0.50264 0.14443 0.8678 0.0
N2186 N 0.5023 0.11547 0.89265 0.0
C2187 C 0.48522 0.11981 0.88399 0.0
C2188 C 0.48539 0.13544 0.8706 0.0
C2189 C 0.32321 0.2092 0.12201 0.0
C2190 C 0.32638 0.22396 0.13572 0.0
C2191 C 0.30874 0.21088 0.10809 0.0
C2192 C 0.29689 0.22735 0.10738 0.0
H2193 H 0.33063 0.19548 0.12303 0.0
H2194 H 0.30571 0.19845 0.09907 0.0
S2195 S 0.30274 0.27205 0.1364 0.0
N2196 N 0.31922 0.25709 0.14508 0.0
N2197 N 0.2917 0.26017 0.11884 0.0
C2198 C 0.30142 0.24311 0.11939 0.0
C2199 C 0.31626 0.24144 0.13357 0.0
C2200 C 0.20635 0.12414 0.29166 0.0
C2201 C 0.21886 0.10824 0.29418 0.0
C2202 C 0.20388 0.13779 0.30626 0.0
C2203 C 0.21378 0.13608 0.32383 0.0
H2204 H 0.19955 0.12706 0.2779 0.0
H2205 H 0.195 0.1504 0.30348 0.0
S2206 S 0.24507 0.0958 0.33935 0.0
N2207 N 0.2387 0.09012 0.31702 0.0
N2208 N 0.23438 0.1166 0.34427 0.0
C2209 C 0.22491 0.11965 0.32735 0.0
C2210 C 0.22731 0.10548 0.31256 0.0
C2211 C 0.32695 0.96112 0.55966 0.0
C2212 C 0.32716 0.97738 0.54751 0.0
C2213 C 0.31304 0.95923 0.57416 0.0
C2214 C 0.29886 0.97357 0.57708 0.0
H2215 H 0.33635 0.94893 0.55681 0.0
H2216 H 0.31243 0.94559 0.5818 0.0
S2217 S 0.29699 0.02136 0.55282 0.0
N2218 N 0.31484 0.0098 0.5419 0.0
N2219 N 0.28869 0.00638 0.56951 0.0
C2220 C 0.30058 0.99099 0.56672 0.0
C2221 C 0.31472 0.99285 0.55184 0.0
C2222 C 0.45003 0.04007 0.81199 0.0
C2223 C 0.46079 0.04357 0.82898 0.0
C2224 C 0.44831 0.05417 0.79775 0.0
C2225 C 0.45716 0.07225 0.79997 0.0
H2226 H 0.44425 0.02591 0.80872 0.0
H2227 H 0.44093 0.05063 0.78438 0.0
S2228 S 0.48335 0.09031 0.8428 0.0
N2229 N 0.47752 0.06781 0.84841 0.0
N2230 N 0.47456 0.0942 0.82093 0.0
C2231 C 0.46625 0.07676 0.81741 0.0
C2232 C 0.46792 0.06244 0.83213 0.0
C2233 C 0.37866 0.19593 0.04883 0.0
C2234 C 0.36155 0.20669 0.04899 0.0
C2235 C 0.39282 0.19898 0.06278 0.0
C2236 C 0.39038 0.21306 0.07739 0.0
H2237 H 0.38164 0.18612 0.03696 0.0
H2238 H 0.40631 0.19137 0.06081 0.0
S2239 S 0.34526 0.24082 0.08668 0.0
N2240 N 0.34099 0.2291 0.06629 0.0
N2241 N 0.36715 0.23421 0.09363 0.0
C2242 C 0.37202 0.22191 0.07909 0.0
C2243 C 0.35774 0.21901 0.06451 0.0
C2244 C 0.87921 0.48263 0.13843 0.0
C2245 C 0.86249 0.47127 0.13878 0.0
C2246 C 0.89293 0.48037 0.12389 0.0
C2247 C 0.89046 0.46654 0.10903 0.0
H2248 H 0.88206 0.49273 0.15009 0.0
H2249 H 0.90603 0.48873 0.12535 0.0
S2250 S 0.84673 0.43587 0.10204 0.0
N2251 N 0.84263 0.44751 0.12252 0.0
N2252 N 0.86785 0.44377 0.09409 0.0
C2253 C 0.87265 0.45642 0.10834 0.0
C2254 C 0.85885 0.45856 0.12354 0.0
C2255 C 0.9626 0.6228 0.35476 0.0
C2256 C 0.95444 0.64144 0.35642 0.0
C2257 C 0.96049 0.60921 0.36959 0.0
C2258 C 0.94937 0.61358 0.38601 0.0
H2259 H 0.97265 0.61953 0.34319 0.0
H2260 H 0.96919 0.59621 0.36906 0.0
S2261 S 0.91628 0.65527 0.39194 0.0
N2262 N 0.92877 0.66012 0.37217 0.0
N2263 N 0.92417 0.63403 0.3994 0.0
C2264 C 0.93754 0.63004 0.38553 0.0
C2265 C 0.94005 0.6441 0.37072 0.0
C2266 C 0.82179 0.70845 0.62663 0.0
C2267 C 0.82504 0.72402 0.63934 0.0
C2268 C 0.80719 0.70929 0.61274 0.0
C2269 C 0.79539 0.72574 0.61108 0.0
H2270 H 0.82937 0.69489 0.62846 0.0
H2271 H 0.80413 0.69639 0.60441 0.0
S2272 S 0.80114 0.77192 0.63772 0.0
N2273 N 0.81766 0.75747 0.64714 0.0
N2274 N 0.79014 0.75913 0.62078 0.0
C2275 C 0.79989 0.74213 0.62222 0.0
C2276 C 0.81475 0.74126 0.63642 0.0
C2277 C 0.98333 0.55277 0.3206 0.0
C2278 C 0.96515 0.54515 0.32556 0.0
C2279 C 0.98524 0.56596 0.30538 0.0
C2280 C 0.96903 0.57159 0.29455 0.0
H2281 H 0.99625 0.54727 0.32752 0.0
H2282 H 0.99961 0.57035 0.30095 0.0
S2283 S 0.91804 0.55794 0.30364 0.0
N2284 N 0.93048 0.54585 0.32006 0.0
N2285 N 0.93407 0.57071 0.29133 0.0
C2286 C 0.95062 0.56548 0.30054 0.0
C2287 C 0.94866 0.55223 0.31615 0.0
C2288 C 0.73558 0.61534 0.80843 0.0
C2289 C 0.72006 0.60899 0.79687 0.0
C2290 C 0.73284 0.6294 0.82264 0.0
C2291 C 0.71455 0.63766 0.82569 0.0
H2292 H 0.75024 0.61078 0.80542 0.0
H2293 H 0.74545 0.63507 0.83 0.0
S2294 S 0.66858 0.62225 0.80298 0.0
N2295 N 0.68527 0.60902 0.79216 0.0
N2296 N 0.68017 0.63602 0.81875 0.0
C2297 C 0.69861 0.62995 0.81579 0.0
C2298 C 0.70137 0.61544 0.80142 0.0
C2299 C 0.54303 0.87199 0.73532 0.0
C2300 C 0.54469 0.85809 0.72042 0.0
C2301 C 0.55756 0.88554 0.73859 0.0
C2302 C 0.57429 0.88574 0.7272 0.0
H2303 H 0.52992 0.87367 0.74363 0.0
H2304 H 0.55516 0.89687 0.74916 0.0
S2305 S 0.58845 0.85012 0.69002 0.0
N2306 N 0.56684 0.84296 0.69729 0.0
N2307 N 0.59351 0.86971 0.70277 0.0
C2308 C 0.57727 0.871 0.71376 0.0
C2309 C 0.56265 0.85676 0.71064 0.0
C2310 C 0.56243 0.29371 0.98191 0.0
C2311 C 0.57712 0.29524 0.96781 0.0
C2312 C 0.54917 0.3086 0.98478 0.0
C2313 C 0.55005 0.32553 0.97371 0.0
H2314 H 0.56008 0.2805 0.9899 0.0
H2315 H 0.53738 0.30644 0.99489 0.0
S2316 S 0.58726 0.33876 0.93779 0.0
N2317 N 0.59354 0.31693 0.94518 0.0
N2318 N 0.56745 0.34436 0.94994 0.0
C2319 C 0.56531 0.32813 0.9608 0.0
C2320 C 0.57921 0.31314 0.95809 0.0
C2321 C 0.13462 0.30796 0.19933 0.0
C2322 C 0.13522 0.32456 0.21089 0.0
C2323 C 0.12093 0.29358 0.20269 0.0
C2324 C 0.10734 0.29533 0.21784 0.0
H2325 H 0.14579 0.30548 0.1886 0.0
H2326 H 0.1224 0.28041 0.19442 0.0
S2327 S 0.09986 0.33915 0.24815 0.0
N2328 N 0.1195 0.34398 0.2354 0.0
N2329 N 0.09248 0.31757 0.24098 0.0
C2330 C 0.1062 0.31329 0.22757 0.0
C2331 C 0.12059 0.32772 0.22442 0.0
C2332 C 0.12727 0.8555 0.47085 0.0
C2333 C 0.14581 0.86 0.4635 0.0
C2334 C 0.11187 0.8686 0.4692 0.0
C2335 C 0.11458 0.88633 0.45986 0.0
H2336 H 0.12503 0.84235 0.47905 0.0
H2337 H 0.09816 0.86535 0.47607 0.0
S2338 S 0.15868 0.90418 0.43549 0.0
N2339 N 0.16495 0.88309 0.44471 0.0
N2340 N 0.13569 0.90696 0.4411 0.0
C2341 C 0.13227 0.89022 0.45084 0.0
C2342 C 0.14799 0.8772 0.45271 0.0
C2343 C 0.70715 0.57984 0.87751 0.0
C2344 C 0.725 0.58222 0.88686 0.0
C2345 C 0.70475 0.56571 0.86332 0.0
C2346 C 0.72017 0.55354 0.85795 0.0
H2347 H 0.6945 0.58765 0.88245 0.0
H2348 H 0.69026 0.5632 0.85797 0.0
S2349 S 0.77103 0.55814 0.87399 0.0
N2350 N 0.75917 0.57423 0.88716 0.0
N2351 N 0.75477 0.54779 0.85987 0.0
C2352 C 0.73863 0.55753 0.8654 0.0
C2353 C 0.74102 0.57182 0.88006 0.0
C2354 C 0.81289 0.47459 0.08412 0.0
C2355 C 0.79459 0.48325 0.0819 0.0
C2356 C 0.82724 0.47694 0.07005 0.0
C2357 C 0.82401 0.48886 0.0539 0.0
H2358 H 0.81515 0.46392 0.0953 0.0
H2359 H 0.83983 0.46772 0.0708 0.0
S2360 S 0.78399 0.5241 0.04847 0.0
N2361 N 0.77762 0.51048 0.06702 0.0
N2362 N 0.80532 0.51595 0.04153 0.0
C2363 C 0.8081 0.50149 0.05455 0.0
C2364 C 0.79316 0.49857 0.06847 0.0
C2365 C 0.89295 0.70235 0.55642 0.0
C2366 C 0.88928 0.71359 0.57304 0.0
C2367 C 0.87884 0.69976 0.54232 0.0
C2368 C 0.86059 0.70829 0.54426 0.0
H2369 H 0.90719 0.69663 0.55339 0.0
H2370 H 0.88245 0.69183 0.52928 0.0
S2371 S 0.84225 0.73608 0.58604 0.0
N2372 N 0.86488 0.7309 0.59176 0.0
N2373 N 0.83847 0.72635 0.56452 0.0
C2374 C 0.85605 0.71825 0.56123 0.0
C2375 C 0.87038 0.72077 0.57584 0.0
C2376 C 0.04786 0.45276 0.14962 0.0
C2377 C 0.02786 0.45643 0.15025 0.0
C2378 C 0.05906 0.45227 0.16652 0.0
C2379 C 0.05079 0.45542 0.18488 0.0
H2380 H 0.05502 0.45051 0.13587 0.0
H2381 H 0.07449 0.44995 0.16506 0.0
S2382 S 0.99888 0.46454 0.19489 0.0
N2383 N 1.00009 0.46261 0.1711 0.0
N2384 N 0.02114 0.46129 0.20282 0.0
C2385 C 0.03067 0.45828 0.18589 0.0
C2386 C 0.01922 0.45888 0.16862 0.0
C2387 C 0.97884 0.81046 0.41536 0.0
C2388 C 0.97437 0.80192 0.4333 0.0
C2389 C 0.98028 0.79931 0.39845 0.0
C2390 C 0.97717 0.7792 0.39874 0.0
H2391 H 0.9813 0.82591 0.41436 0.0
H2392 H 0.98384 0.8065 0.385 0.0
S2393 S 0.96369 0.75009 0.44196 0.0
N2394 N 0.96634 0.77229 0.45035 0.0
N2395 N 0.96835 0.7514 0.41857 0.0
C2396 C 0.97255 0.7705 0.41664 0.0
C2397 C 0.97133 0.78185 0.4339 0.0
C2398 C 0.65144 0.72396 0.68009 0.0
C2399 C 0.63151 0.7279 0.68004 0.0
C2400 C 0.66239 0.72508 0.66301 0.0
C2401 C 0.65388 0.73043 0.64526 0.0
H2402 H 0.65853 0.71936 0.69328 0.0
H2403 H 0.67753 0.72115 0.66367 0.0
S2404 S 0.60271 0.74482 0.63805 0.0
N2405 N 0.60396 0.73881 0.66113 0.0
N2406 N 0.62468 0.74157 0.62923 0.0
C2407 C 0.63412 0.73521 0.64524 0.0
C2408 C 0.62291 0.7338 0.66257 0.0
C2409 C 0.71269 0.40691 0.93491 0.0
C2410 C 0.70744 0.38727 0.93369 0.0
C2411 C 0.71292 0.41875 0.91834 0.0
C2412 C 0.70783 0.41138 0.9 0.0
H2413 H 0.71735 0.41298 0.94859 0.0
H2414 H 0.71779 0.43357 0.91978 0.0
S2415 S 0.69006 0.36179 0.88972 0.0
N2416 N 0.69517 0.36156 0.91305 0.0
N2417 N 0.69525 0.38384 0.88216 0.0
C2418 C 0.70159 0.39206 0.89885 0.0
C2419 C 0.70148 0.38001 0.91563 0.0
C2420 C 0.02212 0.72293 0.52129 0.0
C2421 C 0.03 0.7273 0.5396 0.0
C2422 C 0.03363 0.72298 0.50452 0.0
C2423 C 0.05349 0.72727 0.50544 0.0
H2424 H 0.00706 0.71883 0.51998 0.0
H2425 H 0.02707 0.71896 0.49086 0.0
S2426 S 0.08065 0.74217 0.5493 0.0
N2427 N 0.0585 0.73797 0.55719 0.0
N2428 N 0.0802 0.73763 0.52585 0.0
C2429 C 0.06139 0.73236 0.5235 0.0
C2430 C 0.04965 0.73246 0.54053 0.0
C2431 C 0.69622 0.79647 0.78534 0.0
C2432 C 0.70262 0.77715 0.78505 0.0
C2433 C 0.6965 0.80793 0.7686 0.0
C2434 C 0.703 0.80051 0.75078 0.0
H2435 H 0.69117 0.80288 0.79871 0.0
H2436 H 0.69185 0.82286 0.76969 0.0
S2437 S 0.72187 0.75106 0.74209 0.0
N2438 N 0.71622 0.7513 0.7653 0.0
N2439 N 0.71604 0.77266 0.73378 0.0
C2440 C 0.70898 0.78109 0.75008 0.0
C2441 C 0.70897 0.76946 0.76722 0.0
C2442 C 0.63518 0.46179 0.03712 0.0
C2443 C 0.65533 0.46472 0.03656 0.0
C2444 C 0.6238 0.46356 0.02041 0.0
C2445 C 0.63212 0.46821 0.00241 0.0
H2446 H 0.62815 0.45806 0.05061 0.0
H2447 H 0.60836 0.46113 0.0216 0.0
S2448 S 0.68392 0.47855 0.9931 0.0
N2449 N 0.6829 0.47355 0.01644 0.0
N2450 N 0.66158 0.47626 0.98504 0.0
C2451 C 0.6522 0.47114 0.00156 0.0
C2452 C 0.66379 0.46954 0.01861 0.0
C2453 C 0.97132 0.37665 0.2727 0.0
C2454 C 0.98042 0.38289 0.25559 0.0
C2455 C 0.97259 0.38745 0.28985 0.0
C2456 C 0.98315 0.40485 0.29064 0.0
H2457 H 0.96272 0.36354 0.27275 0.0
H2458 H 0.96474 0.38241 0.30244 0.0
S2459 S 0.01199 0.42602 0.25052 0.0
N2460 N 0.00174 0.40669 0.24088 0.0
N2461 N 0.00452 0.42675 0.27323 0.0
C2462 C 0.99301 0.41083 0.27381 0.0
C2463 C 0.99155 0.39991 0.25628 0.0
C2464 C 0.18159 0.02971 0.46086 0.0
C2465 C 0.18025 0.04965 0.45702 0.0
C2466 C 0.16497 0.01799 0.46162 0.0
C2467 C 0.14639 0.02575 0.45841 0.0
H2468 H 0.1955 0.02323 0.464 0.0
H2469 H 0.16665 0.00289 0.46538 0.0
S2470 S 0.1354 0.07649 0.44481 0.0
N2471 N 0.15905 0.07625 0.44812 0.0
N2472 N 0.12799 0.05418 0.44906 0.0
C2473 C 0.14501 0.04546 0.45355 0.0
C2474 C 0.16188 0.0574 0.45295 0.0
C2475 C 0.41114 0.91291 0.71602 0.0
C2476 C 0.40261 0.89469 0.71265 0.0
C2477 C 0.40003 0.92987 0.71635 0.0
C2478 C 0.3799 0.92931 0.71352 0.0
H2479 H 0.4265 0.91409 0.71879 0.0
H2480 H 0.40726 0.94349 0.71923 0.0
S2481 S 0.35062 0.88562 0.70273 0.0
N2482 N 0.37289 0.87738 0.70524 0.0
N2483 N 0.35194 0.90919 0.7064 0.0
C2484 C 0.37117 0.91128 0.70995 0.0
C2485 C 0.38252 0.894 0.7094 0.0
C2486 C 0.53879 0.13783 0.97334 0.0
C2487 C 0.54141 0.15293 0.95996 0.0
C2488 C 0.5215 0.12716 0.97386 0.0
C2489 C 0.50613 0.13138 0.9612 0.0
H2490 H 0.55 0.13455 0.98376 0.0
H2491 H 0.52001 0.11577 0.98453 0.0
S2492 S 0.50678 0.16739 0.92158 0.0
N2493 N 0.52805 0.16985 0.9322 0.0
N2494 N 0.49522 0.15052 0.9339 0.0
C2495 C 0.50872 0.14608 0.94747 0.0
C2496 C 0.52646 0.15665 0.94665 0.0
C2497 C 0.27227 0.27237 0.20041 0.0
C2498 C 0.27653 0.2877 0.21322 0.0
C2499 C 0.28364 0.25551 0.19992 0.0
C2500 C 0.29979 0.25347 0.21208 0.0
H2501 H 0.2602 0.27353 0.1905 0.0
H2502 H 0.27999 0.24419 0.18971 0.0
S2503 S 0.31592 0.28824 0.24969 0.0
N2504 N 0.2971 0.29879 0.2395 0.0
N2505 N 0.31872 0.26751 0.23817 0.0
C2506 C 0.304 0.26848 0.22517 0.0
C2507 C 0.29233 0.28549 0.22583 0.0
C2508 C 0.16695 0.16248 0.22136 0.0
C2509 C 0.14897 0.15437 0.22663 0.0
C2510 C 0.18387 0.1512 0.22083 0.0
C2511 C 0.18342 0.1314 0.22546 0.0
H2512 H 0.16786 0.1775 0.21704 0.0
H2513 H 0.19725 0.15792 0.21616 0.0
S2514 S 0.14061 0.10385 0.24266 0.0
N2515 N 0.13225 0.12582 0.23845 0.0
N2516 N 0.16382 0.10457 0.2371 0.0
C2517 C 0.1657 0.12331 0.23144 0.0
C2518 C 0.14854 0.1348 0.2321 0.0
C2519 C 0.28751 0.9281 0.47018 0.0
C2520 C 0.30774 0.92828 0.47213 0.0
C2521 C 0.27711 0.91071 0.47038 0.0
C2522 C 0.28646 0.89276 0.47273 0.0
H2523 H 0.27961 0.94148 0.4682 0.0
H2524 H 0.2616 0.91138 0.46837 0.0
S2525 S 0.33917 0.88542 0.47951 0.0
N2526 N 0.33679 0.90906 0.47695 0.0
N2527 N 0.31712 0.87636 0.47778 0.0
C2528 C 0.30669 0.89274 0.47485 0.0
C2529 C 0.31735 0.91049 0.47447 0.0
C2530 C 0.53644 0.04534 0.73011 0.0
C2531 C 0.5349 0.02521 0.72745 0.0
C2532 C 0.51998 0.05717 0.73108 0.0
C2533 C 0.50122 0.04938 0.72953 0.0
H2534 H 0.55053 0.05207 0.73136 0.0
H2535 H 0.52203 0.07261 0.73283 0.0
S2536 S 0.489 0.99766 0.72221 0.0
N2537 N 0.51287 0.99806 0.72299 0.0
N2538 N 0.48201 0.02026 0.72531 0.0
C2539 C 0.49938 0.02925 0.72727 0.0
C2540 C 0.51618 0.01718 0.72611 0.0
C2541 C 0.37928 0.27292 0.97985 0.0
C2542 C 0.38708 0.25417 0.98122 0.0
C2543 C 0.39115 0.28932 0.97854 0.0
C2544 C 0.41148 0.28786 0.97842 0.0
H2545 H 0.36376 0.27502 0.9793 0.0
H2546 H 0.38423 0.3033 0.9774 0.0
S2547 S 0.43932 0.24203 0.98372 0.0
N2548 N 0.41646 0.23511 0.98405 0.0
N2549 N 0.43888 0.26577 0.98108 0.0
C2550 C 0.41955 0.26918 0.98064 0.0
C2551 C 0.40734 0.25242 0.98213 0.0
C2552 C 0.45677 0.16409 0.05893 0.0
C2553 C 0.461 0.18219 0.05062 0.0
C2554 C 0.45617 0.14719 0.04765 0.0
C2555 C 0.45991 0.14764 0.02762 0.0
H2556 H 0.45389 0.16295 0.07429 0.0
H2557 H 0.45274 0.13362 0.05468 0.0
S2558 S 0.47315 0.19132 0.99913 0.0
N2559 N 0.46956 0.19954 0.02127 0.0
N2560 N 0.46907 0.16781 1.0002 0.0
C2561 C 0.4643 0.16569 0.01916 0.0
C2562 C 0.46468 0.18294 0.03062 0.0
C2563 C 0.95605 0.52082 0.12332 0.0
C2564 C 0.95724 0.50266 0.13244 0.0
C2565 C 0.95473 0.53797 0.13407 0.0
C2566 C 0.95477 0.53783 0.15444 0.0
H2567 H 0.95637 0.52186 0.10768 0.0
H2568 H 0.954 0.55154 0.1263 0.0
S2569 S 0.95692 0.4937 0.18531 0.0
N2570 N 0.95744 0.48533 0.16296 0.0
N2571 N 0.95573 0.51743 0.18328 0.0
C2572 C 0.95542 0.51961 0.16376 0.0
C2573 C 0.9565 0.50209 0.15273 0.0
C2574 C 0.93099 0.7162 0.40275 0.0
C2575 C 0.93065 0.71395 0.38253 0.0
C2576 C 0.91382 0.71648 0.41358 0.0
C2577 C 0.89562 0.71428 0.40467 0.0
H2578 H 0.9446 0.71814 0.41025 0.0
H2579 H 0.91482 0.71883 0.42904 0.0
S2580 S 0.88703 0.70555 0.3524 0.0
N2581 N 0.9107 0.70816 0.35414 0.0
N2582 N 0.87852 0.7081 0.37458 0.0
C2583 C 0.89514 0.71137 0.38453 0.0
C2584 C 0.91262 0.71132 0.37346 0.0
C2585 C 0.7164 0.6799 0.65072 0.0
C2586 C 0.71915 0.67931 0.63057 0.0
C2587 C 0.71703 0.66301 0.6619 0.0
C2588 C 0.72064 0.64482 0.65345 0.0
H2589 H 0.71354 0.69353 0.65794 0.0
H2590 H 0.71445 0.66423 0.6773 0.0
S2591 S 0.72994 0.63559 0.60135 0.0
N2592 N 0.72607 0.65913 0.6026 0.0
N2593 N 0.72777 0.62742 0.62369 0.0
C2594 C 0.72355 0.64404 0.63329 0.0
C2595 C 0.7227 0.66126 0.62185 0.0
C2596 C 0.27168 0.97361 0.41489 0.0
C2597 C 0.28907 0.98064 0.40679 0.0
C2598 C 0.25452 0.97285 0.40405 0.0
C2599 C 0.25416 0.97891 0.38465 0.0
H2600 H 0.27147 0.96805 0.42953 0.0
H2601 H 0.24166 0.96678 0.41066 0.0
S2602 S 0.29487 1.00101 0.35749 0.0
N2603 N 0.30415 0.99573 0.37885 0.0
N2604 N 0.2721 0.99383 0.35833 0.0
C2605 C 0.27118 0.98667 0.37662 0.0
C2606 C 0.28858 0.98763 0.38771 0.0
C2607 C 0.22441 0.03757 0.54814 0.0
C2608 C 0.2206 0.03659 0.52819 0.0
C2609 C 0.22553 0.02075 0.55945 0.0
C2610 C 0.22297 0.00229 0.55119 0.0
H2611 H 0.22671 0.05145 0.55503 0.0
H2612 H 0.2285 0.02222 0.57477 0.0
S2613 S 0.21085 0.99185 0.49999 0.0
N2614 N 0.2129 0.01563 0.50095 0.0
N2615 N 0.21548 0.98406 0.52209 0.0
C2616 C 0.21902 1.00108 0.5313 0.0
C2617 C 0.2177 0.01821 0.51983 0.0
C2618 C 0.92484 0.4791 0.28887 0.0
C2619 C 0.92613 0.46736 0.30541 0.0
C2620 C 0.90801 0.47958 0.27768 0.0
C2621 C 0.89181 0.46817 0.28235 0.0
H2622 H 0.9369 0.48815 0.28456 0.0
H2623 H 0.90767 0.48905 0.26526 0.0
S2624 S 0.88795 0.43455 0.32402 0.0
N2625 N 0.90979 0.44405 0.32607 0.0
N2626 N 0.87825 0.44452 0.3046 0.0
C2627 C 0.89282 0.45644 0.29896 0.0
C2628 C 0.90996 0.45612 0.31056 0.0
C2629 C 0.77249 0.71466 0.77225 0.0
C2630 C 0.79065 0.71187 0.78109 0.0
C2631 C 0.75537 0.71493 0.78313 0.0
C2632 C 0.7557 0.71268 0.80334 0.0
H2633 H 0.77147 0.71702 0.75681 0.0
H2634 H 0.7418 0.71727 0.77566 0.0
S2635 S 0.79914 0.70354 0.83345 0.0
N2636 N 0.80766 0.70561 0.81122 0.0
N2637 N 0.77553 0.70671 0.83174 0.0
C2638 C 0.77366 0.70972 0.8124 0.0
C2639 C 0.79111 0.70919 0.80127 0.0
C2640 C 0.55685 0.95425 0.6655 0.0
C2641 C 0.54851 0.95397 0.68408 0.0
C2642 C 0.54541 0.95489 0.64879 0.0
C2643 C 0.52508 0.95548 0.64982 0.0
H2644 H 0.57242 0.95435 0.66378 0.0
H2645 H 0.55265 0.95521 0.6349 0.0
S2646 S 0.49601 0.95362 0.69516 0.0
N2647 N 0.51866 0.95294 0.70262 0.0
N2648 N 0.49708 0.9549 0.67135 0.0
C2649 C 0.5165 0.95449 0.66838 0.0
C2650 C 0.52822 0.95357 0.68544 0.0
C2651 C 0.47203 0.29866 0.8966 0.0
C2652 C 0.48501 0.28313 0.89482 0.0
C2653 C 0.47058 0.30918 0.91389 0.0
C2654 C 0.48194 0.30447 0.93012 0.0
H2655 H 0.46254 0.30236 0.88471 0.0
H2656 H 0.46018 0.32087 0.91468 0.0
S2657 S 0.52014 0.26702 0.93203 0.0
N2658 N 0.51085 0.26487 0.91008 0.0
N2659 N 0.50781 0.28443 0.94277 0.0
C2660 C 0.49534 0.28934 0.9284 0.0
C2661 C 0.49696 0.27873 0.9107 0.0
C2662 C 0.12663 0.22967 0.1663 0.0
C2663 C 0.13549 0.22714 0.18444 0.0
C2664 C 0.13755 0.2303 0.1492 0.0
C2665 C 0.15782 0.22823 0.14942 0.0
H2666 H 0.11105 0.23095 0.16523 0.0
H2667 H 0.12999 0.23219 0.13563 0.0
S2668 S 0.18804 0.22162 0.19349 0.0
N2669 N 0.16574 0.22324 0.20181 0.0
N2670 N 0.18629 0.2237 0.16976 0.0
C2671 C 0.16692 0.22613 0.16761 0.0
C2672 C 0.15575 0.22575 0.18506 0.0
C2673 C 0.20908 0.89892 0.43033 0.0
C2674 C 0.21785 0.88061 0.43003 0.0
C2675 C 0.20766 0.91018 0.41348 0.0
C2676 C 0.21547 0.90387 0.39568 0.0
H2677 H 0.20299 0.90452 0.44364 0.0
H2678 H 0.20022 0.92389 0.4145 0.0
S2679 S 0.2421 0.85779 0.38789 0.0
N2680 N 0.23541 0.85699 0.4108 0.0
N2681 N 0.2338 0.87851 0.37946 0.0
C2682 C 0.22484 0.88575 0.39539 0.0
C2683 C 0.22583 0.87408 0.41247 0.0
C2684 C 0.55998 0.21517 0.02154 0.0
C2685 C 0.55466 0.22544 0.00483 0.0
C2686 C 0.54885 0.21615 0.03848 0.0
C2687 C 0.53209 0.22766 0.03948 0.0
H2688 H 0.57257 0.20584 0.02137 0.0
H2689 H 0.55313 0.20737 0.05071 0.0
S2690 S 0.51363 0.25965 1.00038 0.0
N2691 N 0.53245 0.24863 0.99063 0.0
N2692 N 0.51202 0.25129 0.02271 0.0
C2693 C 0.52713 0.23874 0.02306 0.0
C2694 C 0.53828 0.23742 0.00568 0.0
C2695 C 0.21508 0.30545 0.27154 0.0
C2696 C 0.20501 0.2997 0.25483 0.0
C2697 C 0.21543 0.29388 0.28818 0.0
C2698 C 0.2055 0.2761 0.28902 0.0
H2699 H 0.22323 0.31885 0.27166 0.0
H2700 H 0.22396 0.29879 0.30035 0.0
S2701 S 0.17516 0.25541 0.24964 0.0
N2702 N 0.18403 0.27555 0.2403 0.0
N2703 N 0.18392 0.25409 0.27184 0.0
C2704 C 0.19484 0.27042 0.27252 0.0
C2705 C 0.19478 0.28213 0.25539 0.0
C2706 C 0.12935 0.96431 0.52176 0.0
C2707 C 0.13482 0.95461 0.50472 0.0
C2708 C 0.14065 0.96335 0.53854 0.0
C2709 C 0.15784 0.95248 0.53913 0.0
H2710 H 0.11635 0.97305 0.52208 0.0
H2711 H 0.13604 0.97158 0.55104 0.0
S2712 S 0.17754 0.92274 0.49882 0.0
N2713 N 0.15802 0.93296 0.48961 0.0
N2714 N 0.17902 0.93058 0.52137 0.0
C2715 C 0.16326 0.94227 0.52227 0.0
C2716 C 0.15182 0.94348 0.50503 0.0
C2717 C 0.46512 0.88709 0.78908 0.0
C2718 C 0.47636 0.90404 0.79026 0.0
C2719 C 0.46415 0.87622 0.77196 0.0
C2720 C 0.47421 0.88195 0.75522 0.0
H2721 H 0.45658 0.8824 0.80135 0.0
H2722 H 0.45507 0.86344 0.77173 0.0
S2723 S 0.50758 0.92378 0.75112 0.0
N2724 N 0.49933 0.92492 0.77353 0.0
N2725 N 0.49689 0.90484 0.74118 0.0
C2726 C 0.48587 0.89858 0.75623 0.0
C2727 C 0.4871 0.90953 0.77377 0.0
C2728 C 0.66051 0.56544 0.96904 0.0
C2729 C 0.67675 0.56045 0.95784 0.0
C2730 C 0.6433 0.55464 0.96798 0.0
C2731 C 0.64164 0.5386 0.95551 0.0
H2732 H 0.66131 0.57735 0.9792 0.0
H2733 H 0.63146 0.5585 0.97747 0.0
S2734 S 0.67901 0.52166 0.92077 0.0
N2735 N 0.68951 0.53964 0.93252 0.0
N2736 N 0.65705 0.51983 0.93 0.0
C2737 C 0.65748 0.53416 0.94346 0.0
C2738 C 0.67505 0.54496 0.94476 0.0
C2739 C 0.90027 0.42692 0.20005 0.0
C2740 C 0.88242 0.42709 0.20982 0.0
C2741 C 0.91204 0.41034 0.19998 0.0
C2742 C 0.90658 0.39336 0.20992 0.0
H2743 H 0.90515 0.43966 0.19234 0.0
H2744 H 0.92553 0.41085 0.19203 0.0
S2745 S 0.86184 0.38703 0.23904 0.0
N2746 N 0.8601 0.40913 0.2302 0.0
N2747 N 0.88244 0.37833 0.23067 0.0
C2748 C 0.88881 0.39348 0.21989 0.0
C2749 C 0.87671 0.41025 0.21971 0.0
C2750 C 0.0049 0.65375 0.46146 0.0
C2751 C 0.00541 0.63383 0.45726 0.0
C2752 C 0.02198 0.66474 0.4625 0.0
C2753 C 0.04026 0.65627 0.45931 0.0
H2754 H 0.99126 0.6608 0.46459 0.0
H2755 H 0.02088 0.67986 0.46641 0.0
S2756 S 0.04928 0.60521 0.44544 0.0
N2757 N 0.02561 0.60642 0.44843 0.0
N2758 N 0.05757 0.62714 0.45 0.0
C2759 C 0.04088 0.63655 0.45435 0.0
C2760 C 0.02351 0.62533 0.4534 0.0
C2761 C 0.77335 0.77527 0.70294 0.0
C2762 C 0.77786 0.79142 0.71459 0.0
C2763 C 0.7848 0.75848 0.70322 0.0
C2764 C 0.80132 0.75732 0.715 0.0
H2765 H 0.76101 0.77568 0.69332 0.0
H2766 H 0.78092 0.7465 0.69388 0.0
S2767 S 0.81843 0.79461 0.74962 0.0
N2768 N 0.7992 0.80436 0.73939 0.0
N2769 N 0.82101 0.77316 0.73943 0.0
C2770 C 0.80585 0.77318 0.7269 0.0
C2771 C 0.79408 0.79015 0.72681 0.0
C2772 C 0.68102 0.65316 0.71965 0.0
C2773 C 0.68096 0.63366 0.72539 0.0
C2774 C 0.66388 0.66408 0.71954 0.0
C2775 C 0.64607 0.65592 0.72527 0.0
H2776 H 0.69426 0.65987 0.7146 0.0
H2777 H 0.6645 0.67886 0.71441 0.0
S2778 S 0.63875 0.60623 0.74411 0.0
N2779 N 0.66196 0.60711 0.73851 0.0
N2780 N 0.6299 0.62772 0.73864 0.0
C2781 C 0.64601 0.63667 0.73178 0.0
C2782 C 0.66341 0.62553 0.73178 0.0
C2783 C 0.77056 0.41501 0.97643 0.0
C2784 C 0.7789 0.39655 0.97866 0.0
C2785 C 0.78174 0.4319 0.97772 0.0
C2786 C 0.80177 0.43104 0.98117 0.0
H2787 H 0.75532 0.41645 0.97315 0.0
H2788 H 0.77469 0.4457 0.97545 0.0
S2789 S 0.83043 0.38651 0.98985 0.0
N2790 N 0.80823 0.37859 0.98594 0.0
N2791 N 0.82934 0.41029 0.98788 0.0
C2792 C 0.81027 0.41274 0.98384 0.0
C2793 C 0.79883 0.39552 0.98269 0.0
C2794 C 0.02853 0.56205 0.21996 0.0
C2795 C 0.01242 0.5561 0.20913 0.0
C2796 C 0.04578 0.55134 0.2197 0.0
C2797 C 0.04764 0.53447 0.20832 0.0
H2798 H 0.02744 0.57446 0.22949 0.0
H2799 H 0.05734 0.55581 0.22924 0.0
S2800 S 0.01048 0.51524 0.17451 0.0
N2801 N 0.99981 0.53376 0.1852 0.0
N2802 N 0.0325 0.51421 0.18373 0.0
C2803 C 0.03197 0.52933 0.19629 0.0
C2804 C 0.01429 0.53998 0.19696 0.0
C2805 C 0.90173 0.75435 0.47357 0.0
C2806 C 0.88192 0.75461 0.47821 0.0
C2807 C 0.91287 0.77137 0.47418 0.0
C2808 C 0.90466 0.78926 0.47956 0.0
H2809 H 0.90853 0.74108 0.46876 0.0
H2810 H 0.92788 0.77059 0.4698 0.0
S2811 S 0.85402 0.79708 0.49556 0.0
N2812 N 0.85493 0.77389 0.48991 0.0
N2813 N 0.87593 0.80566 0.49144 0.0
C2814 C 0.88507 0.78948 0.48504 0.0
C2815 C 0.8737 0.77222 0.48429 0.0
C2816 C 0.96202 0.66495 0.51971 0.0
C2817 C 0.95934 0.64651 0.52802 0.0
C2818 C 0.96197 0.68179 0.53113 0.0
C2819 C 0.95929 0.68083 0.55128 0.0
H2820 H 0.96479 0.66634 0.50436 0.0
H2821 H 0.96462 0.69559 0.52418 0.0
S2822 S 0.94929 0.63634 0.57973 0.0
N2823 N 0.95217 0.62855 0.55733 0.0
N2824 N 0.95231 0.66002 0.57882 0.0
C2825 C 0.9559 0.66255 0.55964 0.0
C2826 C 0.95589 0.64545 0.54802 0.0
C2827 C 0.46238 0.00448 0.65581 0.0
C2828 C 0.45808 0.00541 0.63595 0.0
C2829 C 0.46258 0.02128 0.66728 0.0
C2830 C 0.45838 0.03959 0.65932 0.0
H2831 H 0.46619 0.99079 0.6624 0.0
H2832 H 0.46657 0.02 0.68237 0.0
S2833 S 0.44356 0.04931 0.60871 0.0
N2834 N 0.44786 0.02583 0.60921 0.0
N2835 N 0.44795 0.05723 0.63082 0.0
C2836 C 0.4533 0.04053 0.63967 0.0
C2837 C 0.4532 0.02349 0.62798 0.0
C2838 C 0.39348 0.21707 0.88746 0.0
C2839 C 0.39441 0.22302 0.90693 0.0
C2840 C 0.41004 0.21723 0.87563 0.0
C2841 C 0.42803 0.22324 0.88295 0.0
H2842 H 0.38001 0.21167 0.88156 0.0
H2843 H 0.40889 0.21195 0.86091 0.0
S2844 S 0.43742 0.24344 0.93171 0.0
N2845 N 0.41427 0.23751 0.93209 0.0
N2846 N 0.44538 0.23735 0.91004 0.0
C2847 C 0.42894 0.23009 0.90205 0.0
C2848 C 0.41212 0.23009 0.91401 0.0
C2849 C 0.22259 0.1611 0.12315 0.0
C2850 C 0.2239 0.17941 0.13198 0.0
C2851 C 0.22275 0.14404 0.13417 0.0
C2852 C 0.22408 0.14456 0.1545 0.0
H2853 H 0.22138 0.15989 0.10757 0.0
H2854 H 0.22182 0.13032 0.12669 0.0
S2855 S 0.22745 0.18899 0.18473 0.0
N2856 N 0.22675 0.19707 0.16229 0.0
N2857 N 0.22616 0.16524 0.183 0.0
C2858 C 0.22539 0.16284 0.16351 0.0
C2859 C 0.22551 0.18019 0.15225 0.0
C2860 C 0.76958 0.47533 0.91963 0.0
C2861 C 0.78768 0.48146 0.91246 0.0
C2862 C 0.75289 0.47599 0.90806 0.0
C2863 C 0.75377 0.48267 0.88889 0.0
H2864 H 0.76844 0.46932 0.93405 0.0
H2865 H 0.73942 0.47044 0.91388 0.0
S2866 S 0.7968 0.50329 0.86431 0.0
N2867 N 0.80483 0.49666 0.8858 0.0
N2868 N 0.77363 0.49745 0.86392 0.0
C2869 C 0.77152 0.4897 0.88187 0.0
C2870 C 0.78844 0.48919 0.89368 0.0
C2871 C 0.72163 0.52412 0.01965 0.0
C2872 C 0.72584 0.54219 0.02814 0.0
C2873 C 0.72117 0.50712 0.03074 0.0
C2874 C 0.72452 0.50759 0.05078 0.0
H2875 H 0.71812 0.52311 0.00443 0.0
H2876 H 0.71762 0.49361 0.02365 0.0
S2877 S 0.73887 0.55058 0.07957 0.0
N2878 N 0.73577 0.55897 0.05744 0.0
N2879 N 0.73385 0.52727 0.07841 0.0
C2880 C 0.72936 0.5254 0.05935 0.0
C2881 C 0.73026 0.54263 0.04801 0.0
C2882 C 0.41303 0.97212 0.77361 0.0
C2883 C 0.39504 0.97695 0.78198 0.0
C2884 C 0.42997 0.97115 0.78479 0.0
C2885 C 0.42955 0.97473 0.80481 0.0
H2886 H 0.41397 0.96852 0.7584 0.0
H2887 H 0.44338 0.96699 0.77781 0.0
S2888 S 0.38681 0.99022 0.83339 0.0
N2889 N 0.3784 0.98723 0.81123 0.0
N2890 N 0.41001 0.98472 0.83231 0.0
C2891 C 0.41183 0.9801 0.81327 0.0
C2892 C 0.39465 0.98137 0.80186 0.0
C2893 C 0.28763 0.20081 0.29572 0.0
C2894 C 0.2866 0.2051 0.27584 0.0
C2895 C 0.2711 0.20118 0.3075 0.0
C2896 C 0.25279 0.20565 0.29986 0.0
H2897 H 0.30139 0.19727 0.30228 0.0
H2898 H 0.27272 0.19802 0.32276 0.0
S2899 S 0.24208 0.2188 0.24897 0.0
N2900 N 0.26561 0.21472 0.24922 0.0
N2901 N 0.23452 0.21473 0.27127 0.0
C2902 C 0.2514 0.20966 0.27998 0.0
C2903 C 0.26829 0.20955 0.26799 0.0
loop_
_geom_bond_atom_site_label_1
_geom_bond_atom_site_label_2
_geom_bond_distance
_geom_bond_site_symmetry_2
_ccdc_geom_bond_type
Co0 N4 2.148 . S
Co0 N10 2.128 . S
Co0 N20 2.194 . S
Co0 O25 2.351 . S
Co0 O26 2.155 . S
Co0 O27 2.096 . S
C1 N4 1.301 . S
C1 N5 1.328 . S
C1 H6 0.930 . S
C2 C3 1.333 . S
C2 N4 1.317 . S
C2 H7 0.930 . S
C3 C2 1.333 . S
C3 N5 1.350 . S
C3 H29 0.931 . S
N4 Co0 2.148 . S
N4 C1 1.301 . S
N4 C2 1.317 . S
N5 C1 1.328 . S
N5 C3 1.350 . S
H6 C1 0.930 . S
H7 C2 0.930 . S
C8 O9 1.224 . S
C8 O27 1.247 . S
O9 C8 1.224 . S
N10 Co0 2.128 . S
N10 C11 1.355 . S
N10 C13 1.311 . S
C11 N10 1.355 . S
C11 C12 1.363 . S
C11 H23 0.929 . S
C12 C11 1.363 . S
C12 N14 1.375 . S
C12 H30 0.931 . S
C13 N10 1.311 . S
C13 N14 1.347 . S
C13 H24 0.929 . S
N14 C12 1.375 . S
N14 C13 1.347 . S
C15 C18 1.365 . S
C15 N20 1.328 . S
C15 H21 0.929 . S
C16 C17 1.362 . S
C16 C19 1.378 . S
C16 H31 0.929 . S
C17 C16 1.362 . S
C17 C18 1.366 . S
C18 C15 1.365 . S
C18 C17 1.366 . S
C18 H32 0.930 . S
C19 C16 1.378 . S
C19 N20 1.315 . S
C19 H22 0.930 . S
N20 Co0 2.194 . S
N20 C15 1.328 . S
N20 C19 1.315 . S
H21 C15 0.929 . S
H22 C19 0.930 . S
H23 C11 0.929 . S
H24 C13 0.929 . S
O25 Co0 2.351 . S
O25 C28 1.244 . S
O26 Co0 2.155 . S
O26 C28 1.240 . S
O27 Co0 2.096 . S
O27 C8 1.247 . S
C28 O25 1.244 . S
C28 O26 1.240 . S
H29 C3 0.931 . S
H30 C12 0.931 . S
H31 C16 0.929 . S
H32 C18 0.930 . S
Co33 N37 2.148 . S
Co33 N43 2.128 . S
Co33 N53 2.194 . S
Co33 O58 2.351 . S
Co33 O59 2.155 . S
Co33 O60 2.096 . S
C34 N37 1.301 1_455 S
C34 N38 1.328 . S
C34 H39 0.930 . S
C35 C36 1.333 . S
C35 N37 1.317 1_455 S
C35 H40 0.930 1_455 S
C36 C35 1.333 . S
C36 N38 1.350 . S
C36 H62 0.931 . S
N37 Co33 2.148 . S
N37 C34 1.301 1_655 S
N37 C35 1.317 1_655 S
N38 C34 1.328 . S
N38 C36 1.350 . S
H39 C34 0.930 . S
H40 C35 0.930 1_655 S
C41 O42 1.224 . S
C41 O60 1.247 . S
O42 C41 1.224 . S
N43 Co33 2.128 . S
N43 C44 1.355 . S
N43 C46 1.311 . S
C44 N43 1.355 . S
C44 C45 1.363 . S
C44 H56 0.929 . S
C45 C44 1.363 . S
C45 N47 1.375 . S
C45 H63 0.931 . S
C46 N43 1.311 . S
C46 N47 1.347 . S
C46 H57 0.929 . S
N47 C45 1.375 . S
N47 C46 1.347 . S
C48 C51 1.365 . S
C48 N53 1.328 . S
C48 H54 0.929 . S
C49 C50 1.362 . S
C49 C52 1.378 . S
C49 H64 0.929 . S
C50 C49 1.362 . S
C50 C51 1.366 . S
C51 C48 1.365 . S
C51 C50 1.366 . S
C51 H65 0.930 . S
C52 C49 1.378 . S
C52 N53 1.315 . S
C52 H55 0.930 . S
N53 Co33 2.194 . S
N53 C48 1.328 . S
N53 C52 1.315 . S
H54 C48 0.929 . S
H55 C52 0.930 . S
H56 C44 0.929 . S
H57 C46 0.929 . S
O58 Co33 2.351 . S
O58 C61 1.244 . S
O59 Co33 2.155 . S
O59 C61 1.240 . S
O60 Co33 2.096 . S
O60 C41 1.247 . S
C61 O58 1.244 . S
C61 O59 1.240 . S
H62 C36 0.931 . S
H63 C45 0.931 . S
H64 C49 0.929 . S
H65 C51 0.930 . S
Co66 N70 2.148 . S
Co66 N76 2.128 . S
Co66 N86 2.194 . S
Co66 O91 2.351 . S
Co66 O92 2.155 . S
Co66 O93 2.096 . S
C67 N70 1.301 . S
C67 N71 1.328 . S
C67 H72 0.930 . S
C68 C69 1.333 . S
C68 N70 1.317 . S
C68 H73 0.930 . S
C69 C68 1.333 . S
C69 N71 1.350 . S
C69 H95 0.931 . S
N70 Co66 2.148 . S
N70 C67 1.301 . S
N70 C68 1.317 . S
N71 C67 1.328 . S
N71 C69 1.350 . S
H72 C67 0.930 . S
H73 C68 0.930 . S
C74 O75 1.224 . S
C74 O93 1.247 . S
O75 C74 1.224 . S
N76 Co66 2.128 . S
N76 C77 1.355 . S
N76 C79 1.311 . S
C77 N76 1.355 . S
C77 C78 1.363 . S
C77 H89 0.929 . S
C78 C77 1.363 . S
C78 N80 1.375 . S
C78 H96 0.931 . S
C79 N76 1.311 . S
C79 N80 1.347 . S
C79 H90 0.929 . S
N80 C78 1.375 . S
N80 C79 1.347 . S
C81 C84 1.365 . S
C81 N86 1.328 . S
C81 H87 0.929 . S
C82 C83 1.362 . S
C82 C85 1.378 . S
C82 H97 0.929 . S
C83 C82 1.362 . S
C83 C84 1.366 . S
C84 C81 1.365 . S
C84 C83 1.366 . S
C84 H98 0.930 . S
C85 C82 1.378 . S
C85 N86 1.315 . S
C85 H88 0.930 . S
N86 Co66 2.194 . S
N86 C81 1.328 . S
N86 C85 1.315 . S
H87 C81 0.929 . S
H88 C85 0.930 . S
H89 C77 0.929 . S
H90 C79 0.929 . S
O91 Co66 2.351 . S
O91 C94 1.244 . S
O92 Co66 2.155 . S
O92 C94 1.240 . S
O93 Co66 2.096 . S
O93 C74 1.247 . S
C94 O91 1.244 . S
C94 O92 1.240 . S
H95 C69 0.931 . S
H96 C78 0.931 . S
H97 C82 0.929 . S
H98 C84 0.930 . S
Co99 N103 2.148 . S
Co99 N109 2.128 . S
Co99 N119 2.194 . S
Co99 O124 2.351 . S
Co99 O125 2.155 . S
Co99 O126 2.096 . S
C100 N103 1.301 . S
C100 N104 1.328 . S
C100 H105 0.930 . S
C101 C102 1.333 . S
C101 N103 1.317 . S
C101 H106 0.930 . S
C102 C101 1.333 . S
C102 N104 1.350 . S
C102 H128 0.931 . S
N103 Co99 2.148 . S
N103 C100 1.301 . S
N103 C101 1.317 . S
N104 C100 1.328 . S
N104 C102 1.350 . S
H105 C100 0.930 . S
H106 C101 0.930 . S
C107 O108 1.227 . S
C107 O126 1.221 1_554 S
O108 C107 1.227 . S
N109 Co99 2.128 . S
N109 C110 1.355 . S
N109 C112 1.311 . S
C110 N109 1.355 . S
C110 C111 1.363 . S
C110 H122 0.929 . S
C111 C110 1.363 . S
C111 N113 1.375 . S
C111 H129 0.931 . S
C112 N109 1.311 . S
C112 N113 1.347 . S
C112 H123 0.929 . S
N113 C111 1.375 . S
N113 C112 1.347 . S
C114 C117 1.365 . S
C114 N119 1.328 . S
C114 H120 0.929 . S
C115 C116 1.362 . S
C115 C118 1.378 . S
C115 H130 0.929 . S
C116 C115 1.362 . S
C116 C117 1.366 . S
C117 C114 1.365 . S
C117 C116 1.366 . S
C117 H131 0.930 . S
C118 C115 1.378 . S
C118 N119 1.315 . S
C118 H121 0.930 . S
N119 Co99 2.194 . S
N119 C114 1.328 . S
N119 C118 1.315 . S
H120 C114 0.929 . S
H121 C118 0.930 . S
H122 C110 0.929 . S
H123 C112 0.929 . S
O124 Co99 2.351 . S
O124 C127 1.244 . S
O125 Co99 2.155 . S
O125 C127 1.240 . S
O126 Co99 2.096 . S
O126 C107 1.221 1_556 S
C127 O124 1.244 . S
C127 O125 1.240 . S
H128 C102 0.931 . S
H129 C111 0.931 . S
H130 C115 0.929 . S
H131 C117 0.930 . S
Co132 N136 2.148 . S
Co132 N142 2.128 . S
Co132 N152 2.194 . S
Co132 O157 2.351 . S
Co132 O158 2.155 . S
Co132 O159 2.096 . S
C133 N136 1.301 . S
C133 N137 1.328 . S
C133 H138 0.930 . S
C134 C135 1.333 . S
C134 N136 1.317 . S
C134 H139 0.930 . S
C135 C134 1.333 . S
C135 N137 1.350 . S
C135 H161 0.931 . S
N136 Co132 2.148 . S
N136 C133 1.301 . S
N136 C134 1.317 . S
N137 C133 1.328 . S
N137 C135 1.350 . S
H138 C133 0.930 . S
H139 C134 0.930 . S
C140 O141 1.224 . S
C140 O159 1.247 . S
O141 C140 1.224 . S
N142 Co132 2.128 . S
N142 C143 1.355 . S
N142 C145 1.311 . S
C143 N142 1.355 . S
C143 C144 1.363 . S
C143 H155 0.929 . S
C144 C143 1.363 . S
C144 N146 1.375 . S
C144 H162 0.931 . S
C145 N142 1.311 . S
C145 N146 1.347 . S
C145 H156 0.929 . S
N146 C144 1.375 . S
N146 C145 1.347 . S
C147 C150 1.365 . S
C147 N152 1.328 . S
C147 H153 0.929 . S
C148 C149 1.362 . S
C148 C151 1.378 . S
C148 H163 0.929 . S
C149 C148 1.362 . S
C149 C150 1.366 . S
C150 C147 1.365 . S
C150 C149 1.366 . S
C150 H164 0.930 . S
C151 C148 1.378 . S
C151 N152 1.315 . S
C151 H154 0.930 . S
N152 Co132 2.194 . S
N152 C147 1.328 . S
N152 C151 1.315 . S
H153 C147 0.929 . S
H154 C151 0.930 . S
H155 C143 0.929 . S
H156 C145 0.929 . S
O157 Co132 2.351 . S
O157 C160 1.244 . S
O158 Co132 2.155 . S
O158 C160 1.240 . S
O159 Co132 2.096 . S
O159 C140 1.247 . S
C160 O157 1.244 . S
C160 O158 1.240 . S
H161 C135 0.931 . S
H162 C144 0.931 . S
H163 C148 0.929 . S
H164 C150 0.930 . S
Co165 N169 2.148 . S
Co165 N175 2.128 . S
Co165 N185 2.194 . S
Co165 O190 2.351 . S
Co165 O191 2.155 . S
Co165 O192 2.096 . S
C166 N169 1.301 . S
C166 N170 1.328 . S
C166 H171 0.930 . S
C167 C168 1.333 . S
C167 N169 1.317 . S
C167 H172 0.930 . S
C168 C167 1.333 . S
C168 N170 1.350 . S
C168 H194 0.931 . S
N169 Co165 2.148 . S
N169 C166 1.301 . S
N169 C167 1.317 . S
N170 C166 1.328 . S
N170 C168 1.350 . S
H171 C166 0.930 . S
H172 C167 0.930 . S
C173 O174 1.224 . S
C173 O192 1.247 . S
O174 C173 1.224 . S
N175 Co165 2.128 . S
N175 C176 1.355 . S
N175 C178 1.311 . S
C176 N175 1.355 . S
C176 C177 1.363 . S
C176 H188 0.929 . S
C177 C176 1.363 . S
C177 N179 1.375 . S
C177 H195 0.931 . S
C178 N175 1.311 . S
C178 N179 1.347 . S
C178 H189 0.929 . S
N179 C177 1.375 . S
N179 C178 1.347 . S
C180 C183 1.365 . S
C180 N185 1.328 . S
C180 H186 0.929 . S
C181 C182 1.362 . S
C181 C184 1.378 . S
C181 H196 0.929 . S
C182 C181 1.362 . S
C182 C183 1.366 . S
C183 C180 1.365 . S
C183 C182 1.366 . S
C183 H197 0.930 . S
C184 C181 1.378 . S
C184 N185 1.315 . S
C184 H187 0.930 . S
N185 Co165 2.194 . S
N185 C180 1.328 . S
N185 C184 1.315 . S
H186 C180 0.929 . S
H187 C184 0.930 . S
H188 C176 0.929 . S
H189 C178 0.929 . S
O190 Co165 2.351 . S
O190 C193 1.244 . S
O191 Co165 2.155 . S
O191 C193 1.240 . S
O192 Co165 2.096 . S
O192 C173 1.247 . S
C193 O190 1.244 . S
C193 O191 1.240 . S
H194 C168 0.931 . S
H195 C177 0.931 . S
H196 C181 0.929 . S
H197 C183 0.930 . S
Co198 N202 2.148 . S
Co198 N208 2.128 . S
Co198 N218 2.194 . S
Co198 O223 2.351 1_556 S
Co198 O224 2.155 . S
Co198 O225 2.096 . S
C199 N202 1.301 . S
C199 N203 1.328 . S
C199 H204 0.930 . S
C200 C201 1.333 . S
C200 N202 1.317 . S
C200 H205 0.930 . S
C201 C200 1.333 . S
C201 N203 1.350 . S
C201 H227 0.931 . S
N202 Co198 2.148 . S
N202 C199 1.301 . S
N202 C200 1.317 . S
N203 C199 1.328 . S
N203 C201 1.350 . S
H204 C199 0.930 . S
H205 C200 0.930 . S
C206 O207 1.224 . S
C206 O225 1.247 . S
O207 C206 1.224 . S
N208 Co198 2.128 . S
N208 C209 1.355 . S
N208 C211 1.311 . S
C209 N208 1.355 . S
C209 C210 1.363 . S
C209 H221 0.929 . S
C210 C209 1.363 . S
C210 N212 1.375 . S
C210 H228 0.931 . S
C211 N208 1.311 . S
C211 N212 1.347 . S
C211 H222 0.929 . S
N212 C210 1.375 . S
N212 C211 1.347 . S
C213 C216 1.365 . S
C213 N218 1.328 . S
C213 H219 0.929 . S
C214 C215 1.362 . S
C214 C217 1.378 . S
C214 H229 0.929 . S
C215 C214 1.362 . S
C215 C216 1.366 . S
C216 C213 1.365 . S
C216 C215 1.366 . S
C216 H230 0.930 . S
C217 C214 1.378 . S
C217 N218 1.315 . S
C217 H220 0.930 . S
N218 Co198 2.194 . S
N218 C213 1.328 . S
N218 C217 1.315 . S
H219 C213 0.929 . S
H220 C217 0.930 . S
H221 C209 0.929 . S
H222 C211 0.929 . S
O223 Co198 2.351 1_554 S
O223 C226 1.244 . S
O224 Co198 2.155 . S
O224 C226 1.240 1_556 S
O225 Co198 2.096 . S
O225 C206 1.247 . S
C226 O223 1.244 . S
C226 O224 1.240 1_554 S
H227 C201 0.931 . S
H228 C210 0.931 . S
H229 C214 0.929 . S
H230 C216 0.930 . S
Co231 N235 2.148 . S
Co231 N241 2.128 . S
Co231 N251 2.194 . S
Co231 O256 2.351 . S
Co231 O257 2.155 . S
Co231 O258 2.096 . S
C232 N235 1.301 1_455 S
C232 N236 1.328 . S
C232 H237 0.930 . S
C233 C234 1.333 . S
C233 N235 1.317 1_455 S
C233 H238 0.930 1_455 S
C234 C233 1.333 . S
C234 N236 1.350 . S
C234 H260 0.931 . S
N235 Co231 2.148 . S
N235 C232 1.301 1_655 S
N235 C233 1.317 1_655 S
N236 C232 1.328 . S
N236 C234 1.350 . S
H237 C232 0.930 . S
H238 C233 0.930 1_655 S
C239 O240 1.224 . S
C239 O258 1.247 . S
O240 C239 1.224 . S
N241 Co231 2.128 . S
N241 C242 1.355 . S
N241 C244 1.311 . S
C242 N241 1.355 . S
C242 C243 1.363 . S
C242 H254 0.929 . S
C243 C242 1.363 . S
C243 N245 1.375 . S
C243 H261 0.931 . S
C244 N241 1.311 . S
C244 N245 1.347 . S
C244 H255 0.929 . S
N245 C243 1.375 . S
N245 C244 1.347 . S
C246 C249 1.365 . S
C246 N251 1.328 . S
C246 H252 0.929 . S
C247 C248 1.362 . S
C247 C250 1.378 . S
C247 H262 0.929 . S
C248 C247 1.362 . S
C248 C249 1.366 . S
C249 C246 1.365 . S
C249 C248 1.366 . S
C249 H263 0.930 . S
C250 C247 1.378 . S
C250 N251 1.315 . S
C250 H253 0.930 . S
N251 Co231 2.194 . S
N251 C246 1.328 . S
N251 C250 1.315 . S
H252 C246 0.929 . S
H253 C250 0.930 . S
H254 C242 0.929 . S
H255 C244 0.929 . S
O256 Co231 2.351 . S
O256 C259 1.244 . S
O257 Co231 2.155 . S
O257 C259 1.240 . S
O258 Co231 2.096 . S
O258 C239 1.247 . S
C259 O256 1.244 . S
C259 O257 1.240 . S
H260 C234 0.931 . S
H261 C243 0.931 . S
H262 C247 0.929 . S
H263 C249 0.930 . S
Co264 N268 2.148 . S
Co264 N274 2.128 . S
Co264 N284 2.194 . S
Co264 O289 2.351 . S
Co264 O290 2.155 . S
Co264 O291 2.096 . S
C265 N268 1.301 . S
C265 N269 1.328 . S
C265 H270 0.930 . S
C266 C267 1.333 . S
C266 N268 1.317 . S
C266 H271 0.930 . S
C267 C266 1.333 . S
C267 N269 1.350 . S
C267 H293 0.931 . S
N268 Co264 2.148 . S
N268 C265 1.301 . S
N268 C266 1.317 . S
N269 C265 1.328 . S
N269 C267 1.350 . S
H270 C265 0.930 . S
H271 C266 0.930 . S
C272 O273 1.224 . S
C272 O291 1.247 . S
O273 C272 1.224 . S
N274 Co264 2.128 . S
N274 C275 1.355 . S
N274 C277 1.311 . S
C275 N274 1.355 . S
C275 C276 1.363 . S
C275 H287 0.929 . S
C276 C275 1.363 . S
C276 N278 1.375 . S
C276 H294 0.931 . S
C277 N274 1.311 . S
C277 N278 1.347 . S
C277 H288 0.929 . S
N278 C276 1.375 . S
N278 C277 1.347 . S
C279 C282 1.365 . S
C279 N284 1.328 . S
C279 H285 0.929 . S
C280 C281 1.362 . S
C280 C283 1.378 . S
C280 H295 0.929 . S
C281 C280 1.362 . S
C281 C282 1.366 . S
C282 C279 1.365 . S
C282 C281 1.366 . S
C282 H296 0.930 . S
C283 C280 1.378 . S
C283 N284 1.315 . S
C283 H286 0.930 . S
N284 Co264 2.194 . S
N284 C279 1.328 . S
N284 C283 1.315 . S
H285 C279 0.929 . S
H286 C283 0.930 . S
H287 C275 0.929 . S
H288 C277 0.929 . S
O289 Co264 2.351 . S
O289 C292 1.244 . S
O290 Co264 2.155 . S
O290 C292 1.240 . S
O291 Co264 2.096 . S
O291 C272 1.247 . S
C292 O289 1.244 . S
C292 O290 1.240 . S
H293 C267 0.931 . S
H294 C276 0.931 . S
H295 C280 0.929 . S
H296 C282 0.930 . S
Co297 N301 2.148 . S
Co297 N307 2.128 . S
Co297 N317 2.194 . S
Co297 O322 2.351 . S
Co297 O323 2.155 . S
Co297 O324 2.096 . S
C298 N301 1.301 . S
C298 N302 1.328 . S
C298 H303 0.930 . S
C299 C300 1.333 . S
C299 N301 1.317 . S
C299 H304 0.930 . S
C300 C299 1.333 . S
C300 N302 1.350 . S
C300 H326 0.931 . S
N301 Co297 2.148 . S
N301 C298 1.301 . S
N301 C299 1.317 . S
N302 C298 1.328 . S
N302 C300 1.350 . S
H303 C298 0.930 . S
H304 C299 0.930 . S
C305 O306 1.227 . S
C305 O324 1.221 1_545 S
O306 C305 1.227 . S
N307 Co297 2.128 . S
N307 C308 1.355 . S
N307 C310 1.311 . S
C308 N307 1.355 . S
C308 C309 1.363 . S
C308 H320 0.929 . S
C309 C308 1.363 . S
C309 N311 1.375 . S
C309 H327 0.931 . S
C310 N307 1.311 . S
C310 N311 1.347 . S
C310 H321 0.929 . S
N311 C309 1.375 . S
N311 C310 1.347 . S
C312 C315 1.365 . S
C312 N317 1.328 . S
C312 H318 0.929 . S
C313 C314 1.362 . S
C313 C316 1.378 . S
C313 H328 0.929 . S
C314 C313 1.362 . S
C314 C315 1.366 . S
C315 C312 1.365 . S
C315 C314 1.366 . S
C315 H329 0.930 . S
C316 C313 1.378 . S
C316 N317 1.315 . S
C316 H319 0.930 . S
N317 Co297 2.194 . S
N317 C312 1.328 . S
N317 C316 1.315 . S
H318 C312 0.929 . S
H319 C316 0.930 . S
H320 C308 0.929 . S
H321 C310 0.929 . S
O322 Co297 2.351 . S
O322 C325 1.244 . S
O323 Co297 2.155 . S
O323 C325 1.240 . S
O324 Co297 2.096 . S
O324 C305 1.221 1_565 S
C325 O322 1.244 . S
C325 O323 1.240 . S
H326 C300 0.931 . S
H327 C309 0.931 . S
H328 C313 0.929 . S
H329 C315 0.930 . S
Co330 N334 2.148 . S
Co330 N340 2.128 . S
Co330 N350 2.194 . S
Co330 O355 2.351 . S
Co330 O356 2.155 . S
Co330 O357 2.096 . S
C331 N334 1.301 . S
C331 N335 1.328 . S
C331 H336 0.930 . S
C332 C333 1.333 . S
C332 N334 1.317 . S
C332 H337 0.930 . S
C333 C332 1.333 . S
C333 N335 1.350 . S
C333 H359 0.931 . S
N334 Co330 2.148 . S
N334 C331 1.301 . S
N334 C332 1.317 . S
N335 C331 1.328 . S
N335 C333 1.350 . S
H336 C331 0.930 . S
H337 C332 0.930 . S
C338 O339 1.224 . S
C338 O357 1.247 . S
O339 C338 1.224 . S
N340 Co330 2.128 . S
N340 C341 1.351 1_556 S
N340 C343 1.311 1_556 S
C341 N340 1.351 1_554 S
C341 C342 1.377 . S
C341 H353 0.920 1_554 S
C342 C341 1.377 . S
C342 N344 1.375 . S
C342 H360 0.931 . S
C343 N340 1.311 1_554 S
C343 N344 1.347 . S
C343 H354 0.929 . S
N344 C342 1.375 . S
N344 C343 1.347 . S
C345 C348 1.365 . S
C345 N350 1.328 . S
C345 H351 0.929 . S
C346 C347 1.362 . S
C346 C349 1.378 . S
C346 H361 0.929 . S
C347 C346 1.362 . S
C347 C348 1.366 . S
C348 C345 1.365 . S
C348 C347 1.366 . S
C348 H362 0.930 . S
C349 C346 1.378 . S
C349 N350 1.315 . S
C349 H352 0.930 . S
N350 Co330 2.194 . S
N350 C345 1.328 . S
N350 C349 1.315 . S
H351 C345 0.929 . S
H352 C349 0.930 . S
H353 C341 0.920 1_556 S
H354 C343 0.929 . S
O355 Co330 2.351 . S
O355 C358 1.244 . S
O356 Co330 2.155 . S
O356 C358 1.240 . S
O357 Co330 2.096 . S
O357 C338 1.247 . S
C358 O355 1.244 . S
C358 O356 1.240 . S
H359 C333 0.931 . S
H360 C342 0.931 . S
H361 C346 0.929 . S
H362 C348 0.930 . S
Co363 N367 2.148 . S
Co363 N373 2.128 . S
Co363 N383 2.194 . S
Co363 O388 2.351 . S
Co363 O389 2.155 . S
Co363 O390 2.096 . S
C364 N367 1.301 . S
C364 N368 1.328 . S
C364 H369 0.930 . S
C365 C366 1.333 . S
C365 N367 1.317 . S
C365 H370 0.930 . S
C366 C365 1.333 . S
C366 N368 1.350 . S
C366 H392 0.931 . S
N367 Co363 2.148 . S
N367 C364 1.301 . S
N367 C365 1.317 . S
N368 C364 1.328 . S
N368 C366 1.350 . S
H369 C364 0.930 . S
H370 C365 0.930 . S
C371 O372 1.224 . S
C371 O390 1.247 . S
O372 C371 1.224 . S
N373 Co363 2.128 . S
N373 C374 1.355 . S
N373 C376 1.311 . S
C374 N373 1.355 . S
C374 C375 1.363 . S
C374 H386 0.929 . S
C375 C374 1.363 . S
C375 N377 1.375 . S
C375 H393 0.931 . S
C376 N373 1.311 . S
C376 N377 1.347 . S
C376 H387 0.929 . S
N377 C375 1.375 . S
N377 C376 1.347 . S
C378 C381 1.365 . S
C378 N383 1.328 . S
C378 H384 0.929 . S
C379 C380 1.362 . S
C379 C382 1.378 . S
C379 H394 0.929 . S
C380 C379 1.362 . S
C380 C381 1.366 . S
C381 C378 1.365 . S
C381 C380 1.366 . S
C381 H395 0.930 . S
C382 C379 1.378 . S
C382 N383 1.315 . S
C382 H385 0.930 . S
N383 Co363 2.194 . S
N383 C378 1.328 . S
N383 C382 1.315 . S
H384 C378 0.929 . S
H385 C382 0.930 . S
H386 C374 0.929 . S
H387 C376 0.929 . S
O388 Co363 2.351 . S
O388 C391 1.244 . S
O389 Co363 2.155 . S
O389 C391 1.240 . S
O390 Co363 2.096 . S
O390 C371 1.247 . S
C391 O388 1.244 . S
C391 O389 1.240 . S
H392 C366 0.931 . S
H393 C375 0.931 . S
H394 C379 0.929 . S
H395 C381 0.930 . S
Co396 N400 2.148 . S
Co396 N406 2.128 . S
Co396 N416 2.194 . S
Co396 O421 2.351 . S
Co396 O422 2.155 . S
Co396 O423 2.096 . S
C397 N400 1.301 . S
C397 N401 1.328 . S
C397 H402 0.930 . S
C398 C399 1.333 . S
C398 N400 1.317 . S
C398 H403 0.930 . S
C399 C398 1.333 . S
C399 N401 1.350 . S
C399 H425 0.931 . S
N400 Co396 2.148 . S
N400 C397 1.301 . S
N400 C398 1.317 . S
N401 C397 1.328 . S
N401 C399 1.350 . S
H402 C397 0.930 . S
H403 C398 0.930 . S
C404 O405 1.224 . S
C404 O423 1.247 . S
O405 C404 1.224 . S
N406 Co396 2.128 . S
N406 C407 1.355 . S
N406 C409 1.311 . S
C407 N406 1.355 . S
C407 C408 1.363 . S
C407 H419 0.929 . S
C408 C407 1.363 . S
C408 N410 1.375 . S
C408 H426 0.931 . S
C409 N406 1.311 . S
C409 N410 1.347 . S
C409 H420 0.929 . S
N410 C408 1.375 . S
N410 C409 1.347 . S
C411 C414 1.365 . S
C411 N416 1.328 . S
C411 H417 0.929 . S
C412 C413 1.362 . S
C412 C415 1.378 . S
C412 H427 0.929 . S
C413 C412 1.362 . S
C413 C414 1.366 . S
C414 C411 1.365 . S
C414 C413 1.366 . S
C414 H428 0.930 . S
C415 C412 1.378 . S
C415 N416 1.315 . S
C415 H418 0.930 . S
N416 Co396 2.194 . S
N416 C411 1.328 . S
N416 C415 1.315 . S
H417 C411 0.929 . S
H418 C415 0.930 . S
H419 C407 0.929 . S
H420 C409 0.929 . S
O421 Co396 2.351 . S
O421 C424 1.244 . S
O422 Co396 2.155 . S
O422 C424 1.240 . S
O423 Co396 2.096 . S
O423 C404 1.247 . S
C424 O421 1.244 . S
C424 O422 1.240 . S
H425 C399 0.931 . S
H426 C408 0.931 . S
H427 C412 0.929 . S
H428 C414 0.930 . S
Co429 N433 2.148 . S
Co429 N439 2.128 . S
Co429 N449 2.194 . S
Co429 O454 2.351 . S
Co429 O455 2.155 . S
Co429 O456 2.096 . S
C430 N433 1.301 . S
C430 N434 1.328 . S
C430 H435 0.930 . S
C431 C432 1.333 . S
C431 N433 1.317 . S
C431 H436 0.930 . S
C432 C431 1.333 . S
C432 N434 1.350 . S
C432 H458 0.931 . S
N433 Co429 2.148 . S
N433 C430 1.301 . S
N433 C431 1.317 . S
N434 C430 1.328 . S
N434 C432 1.350 . S
H435 C430 0.930 . S
H436 C431 0.930 . S
C437 O438 1.228 . S
C437 O456 1.213 1_545 S
O438 C437 1.228 . S
N439 Co429 2.128 . S
N439 C440 1.355 . S
N439 C442 1.311 . S
C440 N439 1.355 . S
C440 C441 1.363 . S
C440 H452 0.929 . S
C441 C440 1.363 . S
C441 N443 1.375 . S
C441 H459 0.931 . S
C442 N439 1.311 . S
C442 N443 1.347 . S
C442 H453 0.929 . S
N443 C441 1.375 . S
N443 C442 1.347 . S
C444 C447 1.365 . S
C444 N449 1.328 . S
C444 H450 0.929 . S
C445 C446 1.362 . S
C445 C448 1.378 . S
C445 H460 0.929 . S
C446 C445 1.362 . S
C446 C447 1.366 . S
C447 C444 1.365 . S
C447 C446 1.366 . S
C447 H461 0.930 . S
C448 C445 1.378 . S
C448 N449 1.315 . S
C448 H451 0.930 . S
N449 Co429 2.194 . S
N449 C444 1.328 . S
N449 C448 1.315 . S
H450 C444 0.929 . S
H451 C448 0.930 . S
H452 C440 0.929 . S
H453 C442 0.929 . S
O454 Co429 2.351 . S
O454 C457 1.244 . S
O455 Co429 2.155 . S
O455 C457 1.240 . S
O456 Co429 2.096 . S
O456 C437 1.213 1_565 S
C457 O454 1.244 . S
C457 O455 1.240 . S
H458 C432 0.931 . S
H459 C441 0.931 . S
H460 C445 0.929 . S
H461 C447 0.930 . S
Co462 N466 2.148 . S
Co462 N472 2.128 . S
Co462 N482 2.194 . S
Co462 O487 2.351 . S
Co462 O488 2.155 . S
Co462 O489 2.096 . S
C463 N466 1.301 . S
C463 N467 1.328 . S
C463 H468 0.930 . S
C464 C465 1.333 . S
C464 N466 1.317 . S
C464 H469 0.930 . S
C465 C464 1.333 . S
C465 N467 1.350 . S
C465 H491 0.931 . S
N466 Co462 2.148 . S
N466 C463 1.301 . S
N466 C464 1.317 . S
N467 C463 1.328 . S
N467 C465 1.350 . S
H468 C463 0.930 . S
H469 C464 0.930 . S
C470 O471 1.224 . S
C470 O489 1.247 . S
O471 C470 1.224 . S
N472 Co462 2.128 . S
N472 C473 1.355 . S
N472 C475 1.311 . S
C473 N472 1.355 . S
C473 C474 1.363 . S
C473 H485 0.929 . S
C474 C473 1.363 . S
C474 N476 1.375 . S
C474 H492 0.931 . S
C475 N472 1.311 . S
C475 N476 1.347 . S
C475 H486 0.929 . S
N476 C474 1.375 . S
N476 C475 1.347 . S
C477 C480 1.365 . S
C477 N482 1.328 . S
C477 H483 0.929 . S
C478 C479 1.362 . S
C478 C481 1.378 . S
C478 H493 0.929 . S
C479 C478 1.362 . S
C479 C480 1.366 . S
C480 C477 1.365 . S
C480 C479 1.366 . S
C480 H494 0.930 . S
C481 C478 1.378 . S
C481 N482 1.315 . S
C481 H484 0.930 . S
N482 Co462 2.194 . S
N482 C477 1.328 . S
N482 C481 1.315 . S
H483 C477 0.929 . S
H484 C481 0.930 . S
H485 C473 0.929 . S
H486 C475 0.929 . S
O487 Co462 2.351 . S
O487 C490 1.244 . S
O488 Co462 2.155 . S
O488 C490 1.240 . S
O489 Co462 2.096 . S
O489 C470 1.247 . S
C490 O487 1.244 . S
C490 O488 1.240 . S
H491 C465 0.931 . S
H492 C474 0.931 . S
H493 C478 0.929 . S
H494 C480 0.930 . S
Co495 N499 2.148 . S
Co495 N505 2.128 . S
Co495 N515 2.194 . S
Co495 O520 2.351 . S
Co495 O521 2.155 . S
Co495 O522 2.096 . S
C496 N499 1.301 1_554 S
C496 N500 1.328 . S
C496 H501 0.930 . S
C497 C498 1.333 . S
C497 N499 1.317 1_554 S
C497 H502 0.930 1_554 S
C498 C497 1.333 . S
C498 N500 1.350 . S
C498 H524 0.931 . S
N499 Co495 2.148 . S
N499 C496 1.301 1_556 S
N499 C497 1.317 1_556 S
N500 C496 1.328 . S
N500 C498 1.350 . S
H501 C496 0.930 . S
H502 C497 0.930 1_556 S
C503 O504 1.224 . S
C503 O522 1.247 . S
O504 C503 1.224 . S
N505 Co495 2.128 . S
N505 C506 1.355 . S
N505 C508 1.311 . S
C506 N505 1.355 . S
C506 C507 1.363 . S
C506 H518 0.929 . S
C507 C506 1.363 . S
C507 N509 1.375 . S
C507 H525 0.931 . S
C508 N505 1.311 . S
C508 N509 1.347 . S
C508 H519 0.929 . S
N509 C507 1.375 . S
N509 C508 1.347 . S
C510 C513 1.365 . S
C510 N515 1.328 . S
C510 H516 0.929 . S
C511 C512 1.362 . S
C511 C514 1.378 . S
C511 H526 0.929 . S
C512 C511 1.362 . S
C512 C513 1.366 . S
C513 C510 1.365 . S
C513 C512 1.366 . S
C513 H527 0.930 . S
C514 C511 1.378 . S
C514 N515 1.315 . S
C514 H517 0.930 . S
N515 Co495 2.194 . S
N515 C510 1.328 . S
N515 C514 1.315 . S
H516 C510 0.929 . S
H517 C514 0.930 . S
H518 C506 0.929 . S
H519 C508 0.929 . S
O520 Co495 2.351 . S
O520 C523 1.244 . S
O521 Co495 2.155 . S
O521 C523 1.240 . S
O522 Co495 2.096 . S
O522 C503 1.247 . S
C523 O520 1.244 . S
C523 O521 1.240 . S
H524 C498 0.931 . S
H525 C507 0.931 . S
H526 C511 0.929 . S
H527 C513 0.930 . S
Co528 N532 2.148 . S
Co528 N538 2.128 . S
Co528 N548 2.194 . S
Co528 O553 2.351 . S
Co528 O554 2.155 . S
Co528 O555 2.096 . S
C529 N532 1.301 . S
C529 N533 1.328 . S
C529 H534 0.930 . S
C530 C531 1.333 . S
C530 N532 1.317 . S
C530 H535 0.930 . S
C531 C530 1.333 . S
C531 N533 1.350 . S
C531 H557 0.931 . S
N532 Co528 2.148 . S
N532 C529 1.301 . S
N532 C530 1.317 . S
N533 C529 1.328 . S
N533 C531 1.350 . S
H534 C529 0.930 . S
H535 C530 0.930 . S
C536 O537 1.224 . S
C536 O555 1.247 . S
O537 C536 1.224 . S
N538 Co528 2.128 . S
N538 C539 1.355 . S
N538 C541 1.311 . S
C539 N538 1.355 . S
C539 C540 1.363 . S
C539 H551 0.929 . S
C540 C539 1.363 . S
C540 N542 1.375 . S
C540 H558 0.931 . S
C541 N538 1.311 . S
C541 N542 1.347 . S
C541 H552 0.929 . S
N542 C540 1.375 . S
N542 C541 1.347 . S
C543 C546 1.365 . S
C543 N548 1.328 . S
C543 H549 0.929 . S
C544 C545 1.362 . S
C544 C547 1.378 . S
C544 H559 0.929 . S
C545 C544 1.362 . S
C545 C546 1.366 . S
C546 C543 1.365 . S
C546 C545 1.366 . S
C546 H560 0.930 . S
C547 C544 1.378 . S
C547 N548 1.315 . S
C547 H550 0.930 . S
N548 Co528 2.194 . S
N548 C543 1.328 . S
N548 C547 1.315 . S
H549 C543 0.929 . S
H550 C547 0.930 . S
H551 C539 0.929 . S
H552 C541 0.929 . S
O553 Co528 2.351 . S
O553 C556 1.244 . S
O554 Co528 2.155 . S
O554 C556 1.240 . S
O555 Co528 2.096 . S
O555 C536 1.247 . S
C556 O553 1.244 . S
C556 O554 1.240 . S
H557 C531 0.931 . S
H558 C540 0.931 . S
H559 C544 0.929 . S
H560 C546 0.930 . S
Co561 N565 2.148 . S
Co561 N571 2.128 . S
Co561 N581 2.194 . S
Co561 O586 2.351 . S
Co561 O587 2.155 . S
Co561 O588 2.096 . S
C562 N565 1.301 . S
C562 N566 1.328 . S
C562 H567 0.930 . S
C563 C564 1.333 . S
C563 N565 1.317 . S
C563 H568 0.930 . S
C564 C563 1.333 . S
C564 N566 1.350 . S
C564 H590 0.931 . S
N565 Co561 2.148 . S
N565 C562 1.301 . S
N565 C563 1.317 . S
N566 C562 1.328 . S
N566 C564 1.350 . S
H567 C562 0.930 . S
H568 C563 0.930 . S
C569 O570 1.224 . S
C569 O588 1.247 . S
O570 C569 1.224 . S
N571 Co561 2.128 . S
N571 C572 1.351 1_655 S
N571 C574 1.311 1_655 S
C572 N571 1.351 1_455 S
C572 C573 1.377 . S
C572 H584 0.920 1_455 S
C573 C572 1.377 . S
C573 N575 1.375 . S
C573 H591 0.931 . S
C574 N571 1.311 1_455 S
C574 N575 1.347 . S
C574 H585 0.929 . S
N575 C573 1.375 . S
N575 C574 1.347 . S
C576 C579 1.365 . S
C576 N581 1.328 . S
C576 H582 0.929 . S
C577 C578 1.362 . S
C577 C580 1.378 . S
C577 H592 0.929 . S
C578 C577 1.362 . S
C578 C579 1.366 . S
C579 C576 1.365 . S
C579 C578 1.366 . S
C579 H593 0.930 . S
C580 C577 1.378 . S
C580 N581 1.315 . S
C580 H583 0.930 . S
N581 Co561 2.194 . S
N581 C576 1.328 . S
N581 C580 1.315 . S
H582 C576 0.929 . S
H583 C580 0.930 . S
H584 C572 0.920 1_655 S
H585 C574 0.929 . S
O586 Co561 2.351 . S
O586 C589 1.244 . S
O587 Co561 2.155 . S
O587 C589 1.240 . S
O588 Co561 2.096 . S
O588 C569 1.247 . S
C589 O586 1.244 . S
C589 O587 1.240 . S
H590 C564 0.931 . S
H591 C573 0.931 . S
H592 C577 0.929 . S
H593 C579 0.930 . S
Co594 N598 2.148 . S
Co594 N604 2.128 . S
Co594 N614 2.194 . S
Co594 O619 2.351 . S
Co594 O620 2.155 . S
Co594 O621 2.096 . S
C595 N598 1.301 . S
C595 N599 1.328 . S
C595 H600 0.930 . S
C596 C597 1.333 . S
C596 N598 1.317 . S
C596 H601 0.930 . S
C597 C596 1.333 . S
C597 N599 1.350 . S
C597 H623 0.931 . S
N598 Co594 2.148 . S
N598 C595 1.301 . S
N598 C596 1.317 . S
N599 C595 1.328 . S
N599 C597 1.350 . S
H600 C595 0.930 . S
H601 C596 0.930 . S
C602 O603 1.227 . S
C602 O621 1.221 1_455 S
O603 C602 1.227 . S
N604 Co594 2.128 . S
N604 C605 1.355 . S
N604 C607 1.311 . S
C605 N604 1.355 . S
C605 C606 1.363 . S
C605 H617 0.929 . S
C606 C605 1.363 . S
C606 N608 1.375 . S
C606 H624 0.931 . S
C607 N604 1.311 . S
C607 N608 1.347 . S
C607 H618 0.929 . S
N608 C606 1.375 . S
N608 C607 1.347 . S
C609 C612 1.365 . S
C609 N614 1.328 . S
C609 H615 0.929 . S
C610 C611 1.362 . S
C610 C613 1.378 . S
C610 H625 0.929 . S
C611 C610 1.362 . S
C611 C612 1.366 . S
C612 C609 1.365 . S
C612 C611 1.366 . S
C612 H626 0.930 . S
C613 C610 1.378 . S
C613 N614 1.315 . S
C613 H616 0.930 . S
N614 Co594 2.194 . S
N614 C609 1.328 . S
N614 C613 1.315 . S
H615 C609 0.929 . S
H616 C613 0.930 . S
H617 C605 0.929 . S
H618 C607 0.929 . S
O619 Co594 2.351 . S
O619 C622 1.244 . S
O620 Co594 2.155 . S
O620 C622 1.240 . S
O621 Co594 2.096 . S
O621 C602 1.221 1_655 S
C622 O619 1.244 . S
C622 O620 1.240 . S
H623 C597 0.931 . S
H624 C606 0.931 . S
H625 C610 0.929 . S
H626 C612 0.930 . S
Co627 N631 2.148 . S
Co627 N637 2.128 . S
Co627 N647 2.194 . S
Co627 O652 2.351 . S
Co627 O653 2.155 . S
Co627 O654 2.096 . S
C628 N631 1.301 . S
C628 N632 1.328 . S
C628 H633 0.930 . S
C629 C630 1.333 . S
C629 N631 1.317 . S
C629 H634 0.930 . S
C630 C629 1.333 . S
C630 N632 1.350 . S
C630 H656 0.931 . S
N631 Co627 2.148 . S
N631 C628 1.301 . S
N631 C629 1.317 . S
N632 C628 1.328 . S
N632 C630 1.350 . S
H633 C628 0.930 . S
H634 C629 0.930 . S
C635 O636 1.224 . S
C635 O654 1.247 . S
O636 C635 1.224 . S
N637 Co627 2.128 . S
N637 C638 1.355 . S
N637 C640 1.311 . S
C638 N637 1.355 . S
C638 C639 1.363 . S
C638 H650 0.929 . S
C639 C638 1.363 . S
C639 N641 1.375 . S
C639 H657 0.931 . S
C640 N637 1.311 . S
C640 N641 1.347 . S
C640 H651 0.929 . S
N641 C639 1.375 . S
N641 C640 1.347 . S
C642 C645 1.365 . S
C642 N647 1.328 . S
C642 H648 0.929 . S
C643 C644 1.362 . S
C643 C646 1.378 . S
C643 H658 0.929 . S
C644 C643 1.362 . S
C644 C645 1.366 . S
C645 C642 1.365 . S
C645 C644 1.366 . S
C645 H659 0.930 . S
C646 C643 1.378 . S
C646 N647 1.315 . S
C646 H649 0.930 . S
N647 Co627 2.194 . S
N647 C642 1.328 . S
N647 C646 1.315 . S
H648 C642 0.929 . S
H649 C646 0.930 . S
H650 C638 0.929 . S
H651 C640 0.929 . S
O652 Co627 2.351 . S
O652 C655 1.244 . S
O653 Co627 2.155 . S
O653 C655 1.240 . S
O654 Co627 2.096 . S
O654 C635 1.247 . S
C655 O652 1.244 . S
C655 O653 1.240 . S
H656 C630 0.931 . S
H657 C639 0.931 . S
H658 C643 0.929 . S
H659 C645 0.930 . S
Co660 N664 2.148 . S
Co660 N670 2.128 . S
Co660 N680 2.194 . S
Co660 O685 2.351 . S
Co660 O686 2.155 . S
Co660 O687 2.096 . S
C661 N664 1.301 1_545 S
C661 N665 1.328 . S
C661 H666 0.930 . S
C662 C663 1.333 . S
C662 N664 1.317 1_545 S
C662 H667 0.930 1_545 S
C663 C662 1.333 . S
C663 N665 1.350 . S
C663 H689 0.931 . S
N664 Co660 2.148 . S
N664 C661 1.301 1_565 S
N664 C662 1.317 1_565 S
N665 C661 1.328 . S
N665 C663 1.350 . S
H666 C661 0.930 . S
H667 C662 0.930 1_565 S
C668 O669 1.224 . S
C668 O687 1.247 . S
O669 C668 1.224 . S
N670 Co660 2.128 . S
N670 C671 1.355 . S
N670 C673 1.311 . S
C671 N670 1.355 . S
C671 C672 1.363 . S
C671 H683 0.929 . S
C672 C671 1.363 . S
C672 N674 1.375 . S
C672 H690 0.931 . S
C673 N670 1.311 . S
C673 N674 1.347 . S
C673 H684 0.929 . S
N674 C672 1.375 . S
N674 C673 1.347 . S
C675 C678 1.365 . S
C675 N680 1.328 . S
C675 H681 0.929 . S
C676 C677 1.362 . S
C676 C679 1.378 . S
C676 H691 0.929 . S
C677 C676 1.362 . S
C677 C678 1.366 . S
C678 C675 1.365 . S
C678 C677 1.366 . S
C678 H692 0.930 . S
C679 C676 1.378 . S
C679 N680 1.315 . S
C679 H682 0.930 . S
N680 Co660 2.194 . S
N680 C675 1.328 . S
N680 C679 1.315 . S
H681 C675 0.929 . S
H682 C679 0.930 . S
H683 C671 0.929 . S
H684 C673 0.929 . S
O685 Co660 2.351 . S
O685 C688 1.244 . S
O686 Co660 2.155 . S
O686 C688 1.240 . S
O687 Co660 2.096 . S
O687 C668 1.247 . S
C688 O685 1.244 . S
C688 O686 1.240 . S
H689 C663 0.931 . S
H690 C672 0.931 . S
H691 C676 0.929 . S
H692 C678 0.930 . S
Co693 N697 2.148 . S
Co693 N703 2.128 . S
Co693 N713 2.194 . S
Co693 O718 2.351 1_565 S
Co693 O719 2.155 . S
Co693 O720 2.096 . S
C694 N697 1.301 . S
C694 N698 1.328 . S
C694 H699 0.930 . S
C695 C696 1.333 . S
C695 N697 1.317 . S
C695 H700 0.930 . S
C696 C695 1.333 . S
C696 N698 1.350 . S
C696 H722 0.931 . S
N697 Co693 2.148 . S
N697 C694 1.301 . S
N697 C695 1.317 . S
N698 C694 1.328 . S
N698 C696 1.350 . S
H699 C694 0.930 . S
H700 C695 0.930 . S
C701 O702 1.224 . S
C701 O720 1.247 . S
O702 C701 1.224 . S
N703 Co693 2.128 . S
N703 C704 1.355 . S
N703 C706 1.311 . S
C704 N703 1.355 . S
C704 C705 1.363 . S
C704 H716 0.929 . S
C705 C704 1.363 . S
C705 N707 1.375 . S
C705 H723 0.931 . S
C706 N703 1.311 . S
C706 N707 1.347 . S
C706 H717 0.929 . S
N707 C705 1.375 . S
N707 C706 1.347 . S
C708 C711 1.365 . S
C708 N713 1.328 . S
C708 H714 0.929 . S
C709 C710 1.362 . S
C709 C712 1.378 . S
C709 H724 0.929 . S
C710 C709 1.362 . S
C710 C711 1.366 . S
C711 C708 1.365 . S
C711 C710 1.366 . S
C711 H725 0.930 . S
C712 C709 1.378 . S
C712 N713 1.315 . S
C712 H715 0.930 . S
N713 Co693 2.194 . S
N713 C708 1.328 . S
N713 C712 1.315 . S
H714 C708 0.929 . S
H715 C712 0.930 . S
H716 C704 0.929 . S
H717 C706 0.929 . S
O718 Co693 2.351 1_545 S
O718 C721 1.244 . S
O719 Co693 2.155 . S
O719 C721 1.240 1_565 S
O720 Co693 2.096 . S
O720 C701 1.247 . S
C721 O718 1.244 . S
C721 O719 1.240 1_545 S
H722 C696 0.931 . S
H723 C705 0.931 . S
H724 C709 0.929 . S
H725 C711 0.930 . S
Co726 N730 2.148 . S
Co726 N736 2.128 . S
Co726 N746 2.194 . S
Co726 O751 2.351 . S
Co726 O752 2.155 . S
Co726 O753 2.096 . S
C727 N730 1.301 . S
C727 N731 1.328 . S
C727 H732 0.930 . S
C728 C729 1.333 . S
C728 N730 1.317 . S
C728 H733 0.930 . S
C729 C728 1.333 . S
C729 N731 1.350 . S
C729 H755 0.931 . S
N730 Co726 2.148 . S
N730 C727 1.301 . S
N730 C728 1.317 . S
N731 C727 1.328 . S
N731 C729 1.350 . S
H732 C727 0.930 . S
H733 C728 0.930 . S
C734 O735 1.228 . S
C734 O753 1.213 1_455 S
O735 C734 1.228 . S
N736 Co726 2.128 . S
N736 C737 1.355 . S
N736 C739 1.311 . S
C737 N736 1.355 . S
C737 C738 1.363 . S
C737 H749 0.929 . S
C738 C737 1.363 . S
C738 N740 1.375 . S
C738 H756 0.931 . S
C739 N736 1.311 . S
C739 N740 1.347 . S
C739 H750 0.929 . S
N740 C738 1.375 . S
N740 C739 1.347 . S
C741 C744 1.365 . S
C741 N746 1.328 . S
C741 H747 0.929 . S
C742 C743 1.362 . S
C742 C745 1.378 . S
C742 H757 0.929 . S
C743 C742 1.362 . S
C743 C744 1.366 . S
C744 C741 1.365 . S
C744 C743 1.366 . S
C744 H758 0.930 . S
C745 C742 1.378 . S
C745 N746 1.315 . S
C745 H748 0.930 . S
N746 Co726 2.194 . S
N746 C741 1.328 . S
N746 C745 1.315 . S
H747 C741 0.929 . S
H748 C745 0.930 . S
H749 C737 0.929 . S
H750 C739 0.929 . S
O751 Co726 2.351 . S
O751 C754 1.244 . S
O752 Co726 2.155 . S
O752 C754 1.240 . S
O753 Co726 2.096 . S
O753 C734 1.213 1_655 S
C754 O751 1.244 . S
C754 O752 1.240 . S
H755 C729 0.931 . S
H756 C738 0.931 . S
H757 C742 0.929 . S
H758 C744 0.930 . S
Co759 N763 2.148 . S
Co759 N769 2.128 . S
Co759 N779 2.194 . S
Co759 O784 2.351 . S
Co759 O785 2.155 . S
Co759 O786 2.096 . S
C760 N763 1.301 . S
C760 N764 1.328 . S
C760 H765 0.930 . S
C761 C762 1.333 . S
C761 N763 1.317 . S
C761 H766 0.930 . S
C762 C761 1.333 . S
C762 N764 1.350 . S
C762 H788 0.931 . S
N763 Co759 2.148 . S
N763 C760 1.301 . S
N763 C761 1.317 . S
N764 C760 1.328 . S
N764 C762 1.350 . S
H765 C760 0.930 . S
H766 C761 0.930 . S
C767 O768 1.224 . S
C767 O786 1.247 . S
O768 C767 1.224 . S
N769 Co759 2.128 . S
N769 C770 1.355 . S
N769 C772 1.311 . S
C770 N769 1.355 . S
C770 C771 1.363 . S
C770 H782 0.929 . S
C771 C770 1.363 . S
C771 N773 1.375 . S
C771 H789 0.931 . S
C772 N769 1.311 . S
C772 N773 1.347 . S
C772 H783 0.929 . S
N773 C771 1.375 . S
N773 C772 1.347 . S
C774 C777 1.365 . S
C774 N779 1.328 . S
C774 H780 0.929 . S
C775 C776 1.362 . S
C775 C778 1.378 . S
C775 H790 0.929 . S
C776 C775 1.362 . S
C776 C777 1.366 . S
C777 C774 1.365 . S
C777 C776 1.366 . S
C777 H791 0.930 . S
C778 C775 1.378 . S
C778 N779 1.315 . S
C778 H781 0.930 . S
N779 Co759 2.194 . S
N779 C774 1.328 . S
N779 C778 1.315 . S
H780 C774 0.929 . S
H781 C778 0.930 . S
H782 C770 0.929 . S
H783 C772 0.929 . S
O784 Co759 2.351 . S
O784 C787 1.244 . S
O785 Co759 2.155 . S
O785 C787 1.240 . S
O786 Co759 2.096 . S
O786 C767 1.247 . S
C787 O784 1.244 . S
C787 O785 1.240 . S
H788 C762 0.931 . S
H789 C771 0.931 . S
H790 C775 0.929 . S
H791 C777 0.930 . S
Co792 N796 2.148 . S
Co792 N802 2.128 . S
Co792 N812 2.194 . S
Co792 O817 2.351 . S
Co792 O818 2.155 . S
Co792 O819 2.096 . S
C793 N796 1.301 . S
C793 N797 1.328 . S
C793 H798 0.930 . S
C794 C795 1.333 . S
C794 N796 1.317 . S
C794 H799 0.930 . S
C795 C794 1.333 . S
C795 N797 1.350 . S
C795 H821 0.931 . S
N796 Co792 2.148 . S
N796 C793 1.301 . S
N796 C794 1.317 . S
N797 C793 1.328 . S
N797 C795 1.350 . S
H798 C793 0.930 . S
H799 C794 0.930 . S
C800 O801 1.224 . S
C800 O819 1.247 . S
O801 C800 1.224 . S
N802 Co792 2.128 . S
N802 C803 1.352 1_565 S
N802 C805 1.311 1_565 S
C803 N802 1.352 1_545 S
C803 C804 1.372 . S
C803 H815 0.924 1_545 S
C804 C803 1.372 . S
C804 N806 1.375 . S
C804 H822 0.931 . S
C805 N802 1.311 1_545 S
C805 N806 1.347 . S
C805 H816 0.929 . S
N806 C804 1.375 . S
N806 C805 1.347 . S
C807 C810 1.365 . S
C807 N812 1.328 . S
C807 H813 0.929 . S
C808 C809 1.362 . S
C808 C811 1.378 . S
C808 H823 0.929 . S
C809 C808 1.362 . S
C809 C810 1.366 . S
C810 C807 1.365 . S
C810 C809 1.366 . S
C810 H824 0.930 . S
C811 C808 1.378 . S
C811 N812 1.315 . S
C811 H814 0.930 . S
N812 Co792 2.194 . S
N812 C807 1.328 . S
N812 C811 1.315 . S
H813 C807 0.929 . S
H814 C811 0.930 . S
H815 C803 0.924 1_565 S
H816 C805 0.929 . S
O817 Co792 2.351 . S
O817 C820 1.244 . S
O818 Co792 2.155 . S
O818 C820 1.240 . S
O819 Co792 2.096 . S
O819 C800 1.247 . S
C820 O817 1.244 . S
C820 O818 1.240 . S
H821 C795 0.931 . S
H822 C804 0.931 . S
H823 C808 0.929 . S
H824 C810 0.930 . S
Co825 N829 2.148 . S
Co825 N835 2.128 . S
Co825 N845 2.194 . S
Co825 O850 2.351 . S
Co825 O851 2.155 . S
Co825 O852 2.096 . S
C826 N829 1.301 . S
C826 N830 1.328 . S
C826 H831 0.930 . S
C827 C828 1.333 . S
C827 N829 1.317 . S
C827 H832 0.930 . S
C828 C827 1.333 . S
C828 N830 1.350 . S
C828 H854 0.931 . S
N829 Co825 2.148 . S
N829 C826 1.301 . S
N829 C827 1.317 . S
N830 C826 1.328 . S
N830 C828 1.350 . S
H831 C826 0.930 . S
H832 C827 0.930 . S
C833 O834 1.228 . S
C833 O852 1.213 1_554 S
O834 C833 1.228 . S
N835 Co825 2.128 . S
N835 C836 1.355 . S
N835 C838 1.311 . S
C836 N835 1.355 . S
C836 C837 1.363 . S
C836 H848 0.929 . S
C837 C836 1.363 . S
C837 N839 1.375 . S
C837 H855 0.931 . S
C838 N835 1.311 . S
C838 N839 1.347 . S
C838 H849 0.929 . S
N839 C837 1.375 . S
N839 C838 1.347 . S
C840 C843 1.365 . S
C840 N845 1.328 . S
C840 H846 0.929 . S
C841 C842 1.362 . S
C841 C844 1.378 . S
C841 H856 0.929 . S
C842 C841 1.362 . S
C842 C843 1.366 . S
C843 C840 1.365 . S
C843 C842 1.366 . S
C843 H857 0.930 . S
C844 C841 1.378 . S
C844 N845 1.315 . S
C844 H847 0.930 . S
N845 Co825 2.194 . S
N845 C840 1.328 . S
N845 C844 1.315 . S
H846 C840 0.929 . S
H847 C844 0.930 . S
H848 C836 0.929 . S
H849 C838 0.929 . S
O850 Co825 2.351 . S
O850 C853 1.244 . S
O851 Co825 2.155 . S
O851 C853 1.240 . S
O852 Co825 2.096 . S
O852 C833 1.213 1_556 S
C853 O850 1.244 . S
C853 O851 1.240 . S
H854 C828 0.931 . S
H855 C837 0.931 . S
H856 C841 0.929 . S
H857 C843 0.930 . S
Co858 N862 2.148 . S
Co858 N868 2.128 . S
Co858 N878 2.194 . S
Co858 O883 2.351 . S
Co858 O884 2.155 . S
Co858 O885 2.096 . S
C859 N862 1.301 . S
C859 N863 1.328 . S
C859 H864 0.930 . S
C860 C861 1.333 . S
C860 N862 1.317 . S
C860 H865 0.930 . S
C861 C860 1.333 . S
C861 N863 1.350 . S
C861 H887 0.931 . S
N862 Co858 2.148 . S
N862 C859 1.301 . S
N862 C860 1.317 . S
N863 C859 1.328 . S
N863 C861 1.350 . S
H864 C859 0.930 . S
H865 C860 0.930 . S
C866 O867 1.224 . S
C866 O885 1.247 . S
O867 C866 1.224 . S
N868 Co858 2.128 . S
N868 C869 1.355 . S
N868 C871 1.311 . S
C869 N868 1.355 . S
C869 C870 1.363 . S
C869 H881 0.929 . S
C870 C869 1.363 . S
C870 N872 1.375 . S
C870 H888 0.931 . S
C871 N868 1.311 . S
C871 N872 1.347 . S
C871 H882 0.929 . S
N872 C870 1.375 . S
N872 C871 1.347 . S
C873 C876 1.365 . S
C873 N878 1.328 . S
C873 H879 0.929 . S
C874 C875 1.362 . S
C874 C877 1.378 . S
C874 H889 0.929 . S
C875 C874 1.362 . S
C875 C876 1.366 . S
C876 C873 1.365 . S
C876 C875 1.366 . S
C876 H890 0.930 . S
C877 C874 1.378 . S
C877 N878 1.315 . S
C877 H880 0.930 . S
N878 Co858 2.194 . S
N878 C873 1.328 . S
N878 C877 1.315 . S
H879 C873 0.929 . S
H880 C877 0.930 . S
H881 C869 0.929 . S
H882 C871 0.929 . S
O883 Co858 2.351 . S
O883 C886 1.244 . S
O884 Co858 2.155 . S
O884 C886 1.240 . S
O885 Co858 2.096 . S
O885 C866 1.247 . S
C886 O883 1.244 . S
C886 O884 1.240 . S
H887 C861 0.931 . S
H888 C870 0.931 . S
H889 C874 0.929 . S
H890 C876 0.930 . S
Co891 N895 2.148 . S
Co891 N901 2.128 . S
Co891 N911 2.194 . S
Co891 O916 2.351 . S
Co891 O917 2.155 . S
Co891 O918 2.096 . S
C892 N895 1.301 . S
C892 N896 1.328 . S
C892 H897 0.930 . S
C893 C894 1.333 . S
C893 N895 1.317 . S
C893 H898 0.930 . S
C894 C893 1.333 . S
C894 N896 1.350 . S
C894 H920 0.931 . S
N895 Co891 2.148 . S
N895 C892 1.301 . S
N895 C893 1.317 . S
N896 C892 1.328 . S
N896 C894 1.350 . S
H897 C892 0.930 . S
H898 C893 0.930 . S
C899 O900 1.224 . S
C899 O918 1.247 . S
O900 C899 1.224 . S
N901 Co891 2.128 . S
N901 C902 1.355 . S
N901 C904 1.311 . S
C902 N901 1.355 . S
C902 C903 1.363 . S
C902 H914 0.929 . S
C903 C902 1.363 . S
C903 N905 1.375 . S
C903 H921 0.931 . S
C904 N901 1.311 . S
C904 N905 1.347 . S
C904 H915 0.929 . S
N905 C903 1.375 . S
N905 C904 1.347 . S
C906 C909 1.365 . S
C906 N911 1.328 . S
C906 H912 0.929 . S
C907 C908 1.362 . S
C907 C910 1.378 . S
C907 H922 0.929 . S
C908 C907 1.362 . S
C908 C909 1.366 . S
C909 C906 1.365 . S
C909 C908 1.366 . S
C909 H923 0.930 . S
C910 C907 1.378 . S
C910 N911 1.315 . S
C910 H913 0.930 . S
N911 Co891 2.194 . S
N911 C906 1.328 . S
N911 C910 1.315 . S
H912 C906 0.929 . S
H913 C910 0.930 . S
H914 C902 0.929 . S
H915 C904 0.929 . S
O916 Co891 2.351 . S
O916 C919 1.244 . S
O917 Co891 2.155 . S
O917 C919 1.240 . S
O918 Co891 2.096 . S
O918 C899 1.247 . S
C919 O916 1.244 . S
C919 O917 1.240 . S
H920 C894 0.931 . S
H921 C903 0.931 . S
H922 C907 0.929 . S
H923 C909 0.930 . S
Co924 N928 2.148 . S
Co924 N934 2.128 . S
Co924 N944 2.194 . S
Co924 O949 2.351 1_556 S
Co924 O950 2.155 . S
Co924 O951 2.096 . S
C925 N928 1.301 . S
C925 N929 1.328 . S
C925 H930 0.930 . S
C926 C927 1.333 . S
C926 N928 1.317 . S
C926 H931 0.930 . S
C927 C926 1.333 . S
C927 N929 1.350 . S
C927 H953 0.931 . S
N928 Co924 2.148 . S
N928 C925 1.301 . S
N928 C926 1.317 . S
N929 C925 1.328 . S
N929 C927 1.350 . S
H930 C925 0.930 . S
H931 C926 0.930 . S
C932 O933 1.224 . S
C932 O951 1.247 . S
O933 C932 1.224 . S
N934 Co924 2.128 . S
N934 C935 1.355 . S
N934 C937 1.311 . S
C935 N934 1.355 . S
C935 C936 1.363 . S
C935 H947 0.929 . S
C936 C935 1.363 . S
C936 N938 1.375 . S
C936 H954 0.931 . S
C937 N934 1.311 . S
C937 N938 1.347 . S
C937 H948 0.929 . S
N938 C936 1.375 . S
N938 C937 1.347 . S
C939 C942 1.365 . S
C939 N944 1.328 . S
C939 H945 0.929 . S
C940 C941 1.362 . S
C940 C943 1.378 . S
C940 H955 0.929 . S
C941 C940 1.362 . S
C941 C942 1.366 . S
C942 C939 1.365 . S
C942 C941 1.366 . S
C942 H956 0.930 . S
C943 C940 1.378 . S
C943 N944 1.315 . S
C943 H946 0.930 . S
N944 Co924 2.194 . S
N944 C939 1.328 . S
N944 C943 1.315 . S
H945 C939 0.929 . S
H946 C943 0.930 . S
H947 C935 0.929 . S
H948 C937 0.929 . S
O949 Co924 2.351 1_554 S
O949 C952 1.244 . S
O950 Co924 2.155 . S
O950 C952 1.240 1_556 S
O951 Co924 2.096 . S
O951 C932 1.247 . S
C952 O949 1.244 . S
C952 O950 1.240 1_554 S
H953 C927 0.931 . S
H954 C936 0.931 . S
H955 C940 0.929 . S
H956 C942 0.930 . S
Co957 N961 2.148 . S
Co957 N967 2.128 . S
Co957 N977 2.194 . S
Co957 O982 2.351 . S
Co957 O983 2.155 . S
Co957 O984 2.096 . S
C958 N961 1.301 . S
C958 N962 1.328 . S
C958 H963 0.930 . S
C959 C960 1.333 . S
C959 N961 1.317 . S
C959 H964 0.930 . S
C960 C959 1.333 . S
C960 N962 1.350 . S
C960 H986 0.931 . S
N961 Co957 2.148 . S
N961 C958 1.301 . S
N961 C959 1.317 . S
N962 C958 1.328 . S
N962 C960 1.350 . S
H963 C958 0.930 . S
H964 C959 0.930 . S
C965 O966 1.224 . S
C965 O984 1.247 . S
O966 C965 1.224 . S
N967 Co957 2.128 . S
N967 C968 1.355 . S
N967 C970 1.311 . S
C968 N967 1.355 . S
C968 C969 1.363 . S
C968 H980 0.929 . S
C969 C968 1.363 . S
C969 N971 1.375 . S
C969 H987 0.931 . S
C970 N967 1.311 . S
C970 N971 1.347 . S
C970 H981 0.929 . S
N971 C969 1.375 . S
N971 C970 1.347 . S
C972 C975 1.365 . S
C972 N977 1.328 . S
C972 H978 0.929 . S
C973 C974 1.362 . S
C973 C976 1.378 . S
C973 H988 0.929 . S
C974 C973 1.362 . S
C974 C975 1.366 . S
C975 C972 1.365 . S
C975 C974 1.366 . S
C975 H989 0.930 . S
C976 C973 1.378 . S
C976 N977 1.315 . S
C976 H979 0.930 . S
N977 Co957 2.194 . S
N977 C972 1.328 . S
N977 C976 1.315 . S
H978 C972 0.929 . S
H979 C976 0.930 . S
H980 C968 0.929 . S
H981 C970 0.929 . S
O982 Co957 2.351 . S
O982 C985 1.244 . S
O983 Co957 2.155 . S
O983 C985 1.240 . S
O984 Co957 2.096 . S
O984 C965 1.247 . S
C985 O982 1.244 . S
C985 O983 1.240 . S
H986 C960 0.931 . S
H987 C969 0.931 . S
H988 C973 0.929 . S
H989 C975 0.930 . S
Co990 N994 2.148 . S
Co990 N1000 2.128 . S
Co990 N1010 2.194 . S
Co990 O1015 2.351 . S
Co990 O1016 2.155 . S
Co990 O1017 2.096 . S
C991 N994 1.301 . S
C991 N995 1.328 . S
C991 H996 0.930 . S
C992 C993 1.333 . S
C992 N994 1.317 . S
C992 H997 0.930 . S
C993 C992 1.333 . S
C993 N995 1.350 . S
C993 H1019 0.931 . S
N994 Co990 2.148 . S
N994 C991 1.301 . S
N994 C992 1.317 . S
N995 C991 1.328 . S
N995 C993 1.350 . S
H996 C991 0.930 . S
H997 C992 0.930 . S
C998 O999 1.224 . S
C998 O1017 1.247 . S
O999 C998 1.224 . S
N1000 Co990 2.128 . S
N1000 C1001 1.351 1_565 S
N1000 C1003 1.311 1_565 S
C1001 N1000 1.351 1_545 S
C1001 C1002 1.377 . S
C1001 H1013 0.920 1_545 S
C1002 C1001 1.377 . S
C1002 N1004 1.375 . S
C1002 H1020 0.931 . S
C1003 N1000 1.311 1_545 S
C1003 N1004 1.347 . S
C1003 H1014 0.929 . S
N1004 C1002 1.375 . S
N1004 C1003 1.347 . S
C1005 C1008 1.365 . S
C1005 N1010 1.328 . S
C1005 H1011 0.929 . S
C1006 C1007 1.362 . S
C1006 C1009 1.378 . S
C1006 H1021 0.929 . S
C1007 C1006 1.362 . S
C1007 C1008 1.366 . S
C1008 C1005 1.365 . S
C1008 C1007 1.366 . S
C1008 H1022 0.930 . S
C1009 C1006 1.378 . S
C1009 N1010 1.315 . S
C1009 H1012 0.930 . S
N1010 Co990 2.194 . S
N1010 C1005 1.328 . S
N1010 C1009 1.315 . S
H1011 C1005 0.929 . S
H1012 C1009 0.930 . S
H1013 C1001 0.920 1_565 S
H1014 C1003 0.929 . S
O1015 Co990 2.351 . S
O1015 C1018 1.244 . S
O1016 Co990 2.155 . S
O1016 C1018 1.240 . S
O1017 Co990 2.096 . S
O1017 C998 1.247 . S
C1018 O1015 1.244 . S
C1018 O1016 1.240 . S
H1019 C993 0.931 . S
H1020 C1002 0.931 . S
H1021 C1006 0.929 . S
H1022 C1008 0.930 . S
Co1023 N1027 2.148 . S
Co1023 N1033 2.128 . S
Co1023 N1043 2.194 . S
Co1023 O1048 2.351 . S
Co1023 O1049 2.155 . S
Co1023 O1050 2.096 . S
C1024 N1027 1.301 . S
C1024 N1028 1.328 . S
C1024 H1029 0.930 . S
C1025 C1026 1.333 . S
C1025 N1027 1.317 . S
C1025 H1030 0.930 . S
C1026 C1025 1.333 . S
C1026 N1028 1.350 . S
C1026 H1052 0.931 . S
N1027 Co1023 2.148 . S
N1027 C1024 1.301 . S
N1027 C1025 1.317 . S
N1028 C1024 1.328 . S
N1028 C1026 1.350 . S
H1029 C1024 0.930 . S
H1030 C1025 0.930 . S
C1031 O1032 1.224 . S
C1031 O1050 1.247 . S
O1032 C1031 1.224 . S
N1033 Co1023 2.128 . S
N1033 C1034 1.355 . S
N1033 C1036 1.311 . S
C1034 N1033 1.355 . S
C1034 C1035 1.363 . S
C1034 H1046 0.929 . S
C1035 C1034 1.363 . S
C1035 N1037 1.375 . S
C1035 H1053 0.931 . S
C1036 N1033 1.311 . S
C1036 N1037 1.347 . S
C1036 H1047 0.929 . S
N1037 C1035 1.375 . S
N1037 C1036 1.347 . S
C1038 C1041 1.365 . S
C1038 N1043 1.328 . S
C1038 H1044 0.929 . S
C1039 C1040 1.362 . S
C1039 C1042 1.378 . S
C1039 H1054 0.929 . S
C1040 C1039 1.362 . S
C1040 C1041 1.366 . S
C1041 C1038 1.365 . S
C1041 C1040 1.366 . S
C1041 H1055 0.930 . S
C1042 C1039 1.378 . S
C1042 N1043 1.315 . S
C1042 H1045 0.930 . S
N1043 Co1023 2.194 . S
N1043 C1038 1.328 . S
N1043 C1042 1.315 . S
H1044 C1038 0.929 . S
H1045 C1042 0.930 . S
H1046 C1034 0.929 . S
H1047 C1036 0.929 . S
O1048 Co1023 2.351 . S
O1048 C1051 1.244 . S
O1049 Co1023 2.155 . S
O1049 C1051 1.240 . S
O1050 Co1023 2.096 . S
O1050 C1031 1.247 . S
C1051 O1048 1.244 . S
C1051 O1049 1.240 . S
H1052 C1026 0.931 . S
H1053 C1035 0.931 . S
H1054 C1039 0.929 . S
H1055 C1041 0.930 . S
Co1056 N1060 2.148 . S
Co1056 N1066 2.128 . S
Co1056 N1076 2.194 . S
Co1056 O1081 2.351 . S
Co1056 O1082 2.155 . S
Co1056 O1083 2.096 . S
C1057 N1060 1.301 . S
C1057 N1061 1.328 . S
C1057 H1062 0.930 . S
C1058 C1059 1.333 . S
C1058 N1060 1.317 . S
C1058 H1063 0.930 . S
C1059 C1058 1.333 . S
C1059 N1061 1.350 . S
C1059 H1085 0.931 . S
N1060 Co1056 2.148 . S
N1060 C1057 1.301 . S
N1060 C1058 1.317 . S
N1061 C1057 1.328 . S
N1061 C1059 1.350 . S
H1062 C1057 0.930 . S
H1063 C1058 0.930 . S
C1064 O1065 1.224 . S
C1064 O1083 1.247 . S
O1065 C1064 1.224 . S
N1066 Co1056 2.128 . S
N1066 C1067 1.352 1_556 S
N1066 C1069 1.311 1_556 S
C1067 N1066 1.352 1_554 S
C1067 C1068 1.372 . S
C1067 H1079 0.924 1_554 S
C1068 C1067 1.372 . S
C1068 N1070 1.375 . S
C1068 H1086 0.931 . S
C1069 N1066 1.311 1_554 S
C1069 N1070 1.347 . S
C1069 H1080 0.929 . S
N1070 C1068 1.375 . S
N1070 C1069 1.347 . S
C1071 C1074 1.365 . S
C1071 N1076 1.328 . S
C1071 H1077 0.929 . S
C1072 C1073 1.362 . S
C1072 C1075 1.378 . S
C1072 H1087 0.929 . S
C1073 C1072 1.362 . S
C1073 C1074 1.366 . S
C1074 C1071 1.365 . S
C1074 C1073 1.366 . S
C1074 H1088 0.930 . S
C1075 C1072 1.378 . S
C1075 N1076 1.315 . S
C1075 H1078 0.930 . S
N1076 Co1056 2.194 . S
N1076 C1071 1.328 . S
N1076 C1075 1.315 . S
H1077 C1071 0.929 . S
H1078 C1075 0.930 . S
H1079 C1067 0.924 1_556 S
H1080 C1069 0.929 . S
O1081 Co1056 2.351 . S
O1081 C1084 1.244 . S
O1082 Co1056 2.155 . S
O1082 C1084 1.240 . S
O1083 Co1056 2.096 . S
O1083 C1064 1.247 . S
C1084 O1081 1.244 . S
C1084 O1082 1.240 . S
H1085 C1059 0.931 . S
H1086 C1068 0.931 . S
H1087 C1072 0.929 . S
H1088 C1074 0.930 . S
Co1089 N1093 2.148 . S
Co1089 N1099 2.128 . S
Co1089 N1109 2.194 . S
Co1089 O1114 2.351 . S
Co1089 O1115 2.155 . S
Co1089 O1116 2.096 . S
C1090 N1093 1.301 . S
C1090 N1094 1.328 . S
C1090 H1095 0.930 . S
C1091 C1092 1.333 . S
C1091 N1093 1.317 . S
C1091 H1096 0.930 . S
C1092 C1091 1.333 . S
C1092 N1094 1.350 . S
C1092 H1118 0.931 . S
N1093 Co1089 2.148 . S
N1093 C1090 1.301 . S
N1093 C1091 1.317 . S
N1094 C1090 1.328 . S
N1094 C1092 1.350 . S
H1095 C1090 0.930 . S
H1096 C1091 0.930 . S
C1097 O1098 1.224 . S
C1097 O1116 1.247 . S
O1098 C1097 1.224 . S
N1099 Co1089 2.128 . S
N1099 C1100 1.355 . S
N1099 C1102 1.311 . S
C1100 N1099 1.355 . S
C1100 C1101 1.363 . S
C1100 H1112 0.929 . S
C1101 C1100 1.363 . S
C1101 N1103 1.375 . S
C1101 H1119 0.931 . S
C1102 N1099 1.311 . S
C1102 N1103 1.347 . S
C1102 H1113 0.929 . S
N1103 C1101 1.375 . S
N1103 C1102 1.347 . S
C1104 C1107 1.365 . S
C1104 N1109 1.328 . S
C1104 H1110 0.929 . S
C1105 C1106 1.362 . S
C1105 C1108 1.378 . S
C1105 H1120 0.929 . S
C1106 C1105 1.362 . S
C1106 C1107 1.366 . S
C1107 C1104 1.365 . S
C1107 C1106 1.366 . S
C1107 H1121 0.930 . S
C1108 C1105 1.378 . S
C1108 N1109 1.315 . S
C1108 H1111 0.930 . S
N1109 Co1089 2.194 . S
N1109 C1104 1.328 . S
N1109 C1108 1.315 . S
H1110 C1104 0.929 . S
H1111 C1108 0.930 . S
H1112 C1100 0.929 . S
H1113 C1102 0.929 . S
O1114 Co1089 2.351 . S
O1114 C1117 1.244 . S
O1115 Co1089 2.155 . S
O1115 C1117 1.240 . S
O1116 Co1089 2.096 . S
O1116 C1097 1.247 . S
C1117 O1114 1.244 . S
C1117 O1115 1.240 . S
H1118 C1092 0.931 . S
H1119 C1101 0.931 . S
H1120 C1105 0.929 . S
H1121 C1107 0.930 . S
Co1122 N1126 2.148 . S
Co1122 N1132 2.128 . S
Co1122 N1142 2.194 . S
Co1122 O1147 2.351 1_655 S
Co1122 O1148 2.155 . S
Co1122 O1149 2.096 . S
C1123 N1126 1.301 . S
C1123 N1127 1.328 . S
C1123 H1128 0.930 . S
C1124 C1125 1.333 . S
C1124 N1126 1.317 . S
C1124 H1129 0.930 . S
C1125 C1124 1.333 . S
C1125 N1127 1.350 . S
C1125 H1151 0.931 . S
N1126 Co1122 2.148 . S
N1126 C1123 1.301 . S
N1126 C1124 1.317 . S
N1127 C1123 1.328 . S
N1127 C1125 1.350 . S
H1128 C1123 0.930 . S
H1129 C1124 0.930 . S
C1130 O1131 1.224 . S
C1130 O1149 1.247 . S
O1131 C1130 1.224 . S
N1132 Co1122 2.128 . S
N1132 C1133 1.355 . S
N1132 C1135 1.311 . S
C1133 N1132 1.355 . S
C1133 C1134 1.363 . S
C1133 H1145 0.929 . S
C1134 C1133 1.363 . S
C1134 N1136 1.375 . S
C1134 H1152 0.931 . S
C1135 N1132 1.311 . S
C1135 N1136 1.347 . S
C1135 H1146 0.929 . S
N1136 C1134 1.375 . S
N1136 C1135 1.347 . S
C1137 C1140 1.365 . S
C1137 N1142 1.328 . S
C1137 H1143 0.929 . S
C1138 C1139 1.362 . S
C1138 C1141 1.378 . S
C1138 H1153 0.929 . S
C1139 C1138 1.362 . S
C1139 C1140 1.366 . S
C1140 C1137 1.365 . S
C1140 C1139 1.366 . S
C1140 H1154 0.930 . S
C1141 C1138 1.378 . S
C1141 N1142 1.315 . S
C1141 H1144 0.930 . S
N1142 Co1122 2.194 . S
N1142 C1137 1.328 . S
N1142 C1141 1.315 . S
H1143 C1137 0.929 . S
H1144 C1141 0.930 . S
H1145 C1133 0.929 . S
H1146 C1135 0.929 . S
O1147 Co1122 2.351 1_455 S
O1147 C1150 1.244 . S
O1148 Co1122 2.155 . S
O1148 C1150 1.240 1_655 S
O1149 Co1122 2.096 . S
O1149 C1130 1.247 . S
C1150 O1147 1.244 . S
C1150 O1148 1.240 1_455 S
H1151 C1125 0.931 . S
H1152 C1134 0.931 . S
H1153 C1138 0.929 . S
H1154 C1140 0.930 . S
Co1155 N1159 2.148 . S
Co1155 N1165 2.128 . S
Co1155 N1175 2.194 . S
Co1155 O1180 2.351 . S
Co1155 O1181 2.155 . S
Co1155 O1182 2.096 . S
C1156 N1159 1.301 . S
C1156 N1160 1.328 . S
C1156 H1161 0.930 . S
C1157 C1158 1.333 . S
C1157 N1159 1.317 . S
C1157 H1162 0.930 . S
C1158 C1157 1.333 . S
C1158 N1160 1.350 . S
C1158 H1184 0.931 . S
N1159 Co1155 2.148 . S
N1159 C1156 1.301 . S
N1159 C1157 1.317 . S
N1160 C1156 1.328 . S
N1160 C1158 1.350 . S
H1161 C1156 0.930 . S
H1162 C1157 0.930 . S
C1163 O1164 1.224 . S
C1163 O1182 1.247 . S
O1164 C1163 1.224 . S
N1165 Co1155 2.128 . S
N1165 C1166 1.355 . S
N1165 C1168 1.311 . S
C1166 N1165 1.355 . S
C1166 C1167 1.363 . S
C1166 H1178 0.929 . S
C1167 C1166 1.363 . S
C1167 N1169 1.375 . S
C1167 H1185 0.931 . S
C1168 N1165 1.311 . S
C1168 N1169 1.347 . S
C1168 H1179 0.929 . S
N1169 C1167 1.375 . S
N1169 C1168 1.347 . S
C1170 C1173 1.365 . S
C1170 N1175 1.328 . S
C1170 H1176 0.929 . S
C1171 C1172 1.362 . S
C1171 C1174 1.378 . S
C1171 H1186 0.929 . S
C1172 C1171 1.362 . S
C1172 C1173 1.366 . S
C1173 C1170 1.365 . S
C1173 C1172 1.366 . S
C1173 H1187 0.930 . S
C1174 C1171 1.378 . S
C1174 N1175 1.315 . S
C1174 H1177 0.930 . S
N1175 Co1155 2.194 . S
N1175 C1170 1.328 . S
N1175 C1174 1.315 . S
H1176 C1170 0.929 . S
H1177 C1174 0.930 . S
H1178 C1166 0.929 . S
H1179 C1168 0.929 . S
O1180 Co1155 2.351 . S
O1180 C1183 1.244 . S
O1181 Co1155 2.155 . S
O1181 C1183 1.240 . S
O1182 Co1155 2.096 . S
O1182 C1163 1.247 . S
C1183 O1180 1.244 . S
C1183 O1181 1.240 . S
H1184 C1158 0.931 . S
H1185 C1167 0.931 . S
H1186 C1171 0.929 . S
H1187 C1173 0.930 . S
Co1188 N1192 2.148 . S
Co1188 N1198 2.128 . S
Co1188 N1208 2.194 . S
Co1188 O1213 2.351 . S
Co1188 O1214 2.155 . S
Co1188 O1215 2.096 . S
C1189 N1192 1.301 . S
C1189 N1193 1.328 . S
C1189 H1194 0.930 . S
C1190 C1191 1.333 . S
C1190 N1192 1.317 . S
C1190 H1195 0.930 . S
C1191 C1190 1.333 . S
C1191 N1193 1.350 . S
C1191 H1217 0.931 . S
N1192 Co1188 2.148 . S
N1192 C1189 1.301 . S
N1192 C1190 1.317 . S
N1193 C1189 1.328 . S
N1193 C1191 1.350 . S
H1194 C1189 0.930 . S
H1195 C1190 0.930 . S
C1196 O1197 1.224 . S
C1196 O1215 1.247 . S
O1197 C1196 1.224 . S
N1198 Co1188 2.128 . S
N1198 C1199 1.355 . S
N1198 C1201 1.311 . S
C1199 N1198 1.355 . S
C1199 C1200 1.363 . S
C1199 H1211 0.929 . S
C1200 C1199 1.363 . S
C1200 N1202 1.375 . S
C1200 H1218 0.931 . S
C1201 N1198 1.311 . S
C1201 N1202 1.347 . S
C1201 H1212 0.929 . S
N1202 C1200 1.375 . S
N1202 C1201 1.347 . S
C1203 C1206 1.365 . S
C1203 N1208 1.328 . S
C1203 H1209 0.929 . S
C1204 C1205 1.362 . S
C1204 C1207 1.378 . S
C1204 H1219 0.929 . S
C1205 C1204 1.362 . S
C1205 C1206 1.366 . S
C1206 C1203 1.365 . S
C1206 C1205 1.366 . S
C1206 H1220 0.930 . S
C1207 C1204 1.378 . S
C1207 N1208 1.315 . S
C1207 H1210 0.930 . S
N1208 Co1188 2.194 . S
N1208 C1203 1.328 . S
N1208 C1207 1.315 . S
H1209 C1203 0.929 . S
H1210 C1207 0.930 . S
H1211 C1199 0.929 . S
H1212 C1201 0.929 . S
O1213 Co1188 2.351 . S
O1213 C1216 1.244 . S
O1214 Co1188 2.155 . S
O1214 C1216 1.240 . S
O1215 Co1188 2.096 . S
O1215 C1196 1.247 . S
C1216 O1213 1.244 . S
C1216 O1214 1.240 . S
H1217 C1191 0.931 . S
H1218 C1200 0.931 . S
H1219 C1204 0.929 . S
H1220 C1206 0.930 . S
Co1221 N1225 2.148 . S
Co1221 N1231 2.128 . S
Co1221 N1241 2.194 . S
Co1221 O1246 2.351 . S
Co1221 O1247 2.155 . S
Co1221 O1248 2.096 . S
C1222 N1225 1.301 1_554 S
C1222 N1226 1.328 . S
C1222 H1227 0.930 . S
C1223 C1224 1.333 . S
C1223 N1225 1.317 1_554 S
C1223 H1228 0.930 1_554 S
C1224 C1223 1.333 . S
C1224 N1226 1.350 . S
C1224 H1250 0.931 . S
N1225 Co1221 2.148 . S
N1225 C1222 1.301 1_556 S
N1225 C1223 1.317 1_556 S
N1226 C1222 1.328 . S
N1226 C1224 1.350 . S
H1227 C1222 0.930 . S
H1228 C1223 0.930 1_556 S
C1229 O1230 1.224 . S
C1229 O1248 1.247 . S
O1230 C1229 1.224 . S
N1231 Co1221 2.128 . S
N1231 C1232 1.355 . S
N1231 C1234 1.311 . S
C1232 N1231 1.355 . S
C1232 C1233 1.363 . S
C1232 H1244 0.929 . S
C1233 C1232 1.363 . S
C1233 N1235 1.375 . S
C1233 H1251 0.931 . S
C1234 N1231 1.311 . S
C1234 N1235 1.347 . S
C1234 H1245 0.929 . S
N1235 C1233 1.375 . S
N1235 C1234 1.347 . S
C1236 C1239 1.365 . S
C1236 N1241 1.328 . S
C1236 H1242 0.929 . S
C1237 C1238 1.362 . S
C1237 C1240 1.378 . S
C1237 H1252 0.929 . S
C1238 C1237 1.362 . S
C1238 C1239 1.366 . S
C1239 C1236 1.365 . S
C1239 C1238 1.366 . S
C1239 H1253 0.930 . S
C1240 C1237 1.378 . S
C1240 N1241 1.315 . S
C1240 H1243 0.930 . S
N1241 Co1221 2.194 . S
N1241 C1236 1.328 . S
N1241 C1240 1.315 . S
H1242 C1236 0.929 . S
H1243 C1240 0.930 . S
H1244 C1232 0.929 . S
H1245 C1234 0.929 . S
O1246 Co1221 2.351 . S
O1246 C1249 1.244 . S
O1247 Co1221 2.155 . S
O1247 C1249 1.240 . S
O1248 Co1221 2.096 . S
O1248 C1229 1.247 . S
C1249 O1246 1.244 . S
C1249 O1247 1.240 . S
H1250 C1224 0.931 . S
H1251 C1233 0.931 . S
H1252 C1237 0.929 . S
H1253 C1239 0.930 . S
Co1254 N1258 2.148 . S
Co1254 N1264 2.128 . S
Co1254 N1274 2.194 . S
Co1254 O1279 2.351 1_655 S
Co1254 O1280 2.155 . S
Co1254 O1281 2.096 . S
C1255 N1258 1.301 . S
C1255 N1259 1.328 . S
C1255 H1260 0.930 . S
C1256 C1257 1.333 . S
C1256 N1258 1.317 . S
C1256 H1261 0.930 . S
C1257 C1256 1.333 . S
C1257 N1259 1.350 . S
C1257 H1283 0.931 . S
N1258 Co1254 2.148 . S
N1258 C1255 1.301 . S
N1258 C1256 1.317 . S
N1259 C1255 1.328 . S
N1259 C1257 1.350 . S
H1260 C1255 0.930 . S
H1261 C1256 0.930 . S
C1262 O1263 1.224 . S
C1262 O1281 1.247 . S
O1263 C1262 1.224 . S
N1264 Co1254 2.128 . S
N1264 C1265 1.355 . S
N1264 C1267 1.311 . S
C1265 N1264 1.355 . S
C1265 C1266 1.363 . S
C1265 H1277 0.929 . S
C1266 C1265 1.363 . S
C1266 N1268 1.375 . S
C1266 H1284 0.931 . S
C1267 N1264 1.311 . S
C1267 N1268 1.347 . S
C1267 H1278 0.929 . S
N1268 C1266 1.375 . S
N1268 C1267 1.347 . S
C1269 C1272 1.365 . S
C1269 N1274 1.328 . S
C1269 H1275 0.929 . S
C1270 C1271 1.362 . S
C1270 C1273 1.378 . S
C1270 H1285 0.929 . S
C1271 C1270 1.362 . S
C1271 C1272 1.366 . S
C1272 C1269 1.365 . S
C1272 C1271 1.366 . S
C1272 H1286 0.930 . S
C1273 C1270 1.378 . S
C1273 N1274 1.315 . S
C1273 H1276 0.930 . S
N1274 Co1254 2.194 . S
N1274 C1269 1.328 . S
N1274 C1273 1.315 . S
H1275 C1269 0.929 . S
H1276 C1273 0.930 . S
H1277 C1265 0.929 . S
H1278 C1267 0.929 . S
O1279 Co1254 2.351 1_455 S
O1279 C1282 1.244 . S
O1280 Co1254 2.155 . S
O1280 C1282 1.240 1_655 S
O1281 Co1254 2.096 . S
O1281 C1262 1.247 . S
C1282 O1279 1.244 . S
C1282 O1280 1.240 1_455 S
H1283 C1257 0.931 . S
H1284 C1266 0.931 . S
H1285 C1270 0.929 . S
H1286 C1272 0.930 . S
Co1287 N1291 2.148 . S
Co1287 N1297 2.128 . S
Co1287 N1307 2.194 . S
Co1287 O1312 2.351 . S
Co1287 O1313 2.155 . S
Co1287 O1314 2.096 . S
C1288 N1291 1.301 . S
C1288 N1292 1.328 . S
C1288 H1293 0.930 . S
C1289 C1290 1.333 . S
C1289 N1291 1.317 . S
C1289 H1294 0.930 . S
C1290 C1289 1.333 . S
C1290 N1292 1.350 . S
C1290 H1316 0.931 . S
N1291 Co1287 2.148 . S
N1291 C1288 1.301 . S
N1291 C1289 1.317 . S
N1292 C1288 1.328 . S
N1292 C1290 1.350 . S
H1293 C1288 0.930 . S
H1294 C1289 0.930 . S
C1295 O1296 1.224 . S
C1295 O1314 1.247 . S
O1296 C1295 1.224 . S
N1297 Co1287 2.128 . S
N1297 C1298 1.355 . S
N1297 C1300 1.311 . S
C1298 N1297 1.355 . S
C1298 C1299 1.363 . S
C1298 H1310 0.929 . S
C1299 C1298 1.363 . S
C1299 N1301 1.375 . S
C1299 H1317 0.931 . S
C1300 N1297 1.311 . S
C1300 N1301 1.347 . S
C1300 H1311 0.929 . S
N1301 C1299 1.375 . S
N1301 C1300 1.347 . S
C1302 C1305 1.365 . S
C1302 N1307 1.328 . S
C1302 H1308 0.929 . S
C1303 C1304 1.362 . S
C1303 C1306 1.378 . S
C1303 H1318 0.929 . S
C1304 C1303 1.362 . S
C1304 C1305 1.366 . S
C1305 C1302 1.365 . S
C1305 C1304 1.366 . S
C1305 H1319 0.930 . S
C1306 C1303 1.378 . S
C1306 N1307 1.315 . S
C1306 H1309 0.930 . S
N1307 Co1287 2.194 . S
N1307 C1302 1.328 . S
N1307 C1306 1.315 . S
H1308 C1302 0.929 . S
H1309 C1306 0.930 . S
H1310 C1298 0.929 . S
H1311 C1300 0.929 . S
O1312 Co1287 2.351 . S
O1312 C1315 1.244 . S
O1313 Co1287 2.155 . S
O1313 C1315 1.240 . S
O1314 Co1287 2.096 . S
O1314 C1295 1.247 . S
C1315 O1312 1.244 . S
C1315 O1313 1.240 . S
H1316 C1290 0.931 . S
H1317 C1299 0.931 . S
H1318 C1303 0.929 . S
H1319 C1305 0.930 . S
Co1320 N1324 2.148 . S
Co1320 N1330 2.128 . S
Co1320 N1340 2.194 . S
Co1320 O1345 2.351 . S
Co1320 O1346 2.155 . S
Co1320 O1347 2.096 . S
C1321 N1324 1.301 . S
C1321 N1325 1.328 . S
C1321 H1326 0.930 . S
C1322 C1323 1.333 . S
C1322 N1324 1.317 . S
C1322 H1327 0.930 . S
C1323 C1322 1.333 . S
C1323 N1325 1.350 . S
C1323 H1349 0.931 . S
N1324 Co1320 2.148 . S
N1324 C1321 1.301 . S
N1324 C1322 1.317 . S
N1325 C1321 1.328 . S
N1325 C1323 1.350 . S
H1326 C1321 0.930 . S
H1327 C1322 0.930 . S
C1328 O1329 1.224 . S
C1328 O1347 1.247 . S
O1329 C1328 1.224 . S
N1330 Co1320 2.128 . S
N1330 C1331 1.352 1_655 S
N1330 C1333 1.311 1_655 S
C1331 N1330 1.352 1_455 S
C1331 C1332 1.372 . S
C1331 H1343 0.924 1_455 S
C1332 C1331 1.372 . S
C1332 N1334 1.375 . S
C1332 H1350 0.931 . S
C1333 N1330 1.311 1_455 S
C1333 N1334 1.347 . S
C1333 H1344 0.929 . S
N1334 C1332 1.375 . S
N1334 C1333 1.347 . S
C1335 C1338 1.365 . S
C1335 N1340 1.328 . S
C1335 H1341 0.929 . S
C1336 C1337 1.362 . S
C1336 C1339 1.378 . S
C1336 H1351 0.929 . S
C1337 C1336 1.362 . S
C1337 C1338 1.366 . S
C1338 C1335 1.365 . S
C1338 C1337 1.366 . S
C1338 H1352 0.930 . S
C1339 C1336 1.378 . S
C1339 N1340 1.315 . S
C1339 H1342 0.930 . S
N1340 Co1320 2.194 . S
N1340 C1335 1.328 . S
N1340 C1339 1.315 . S
H1341 C1335 0.929 . S
H1342 C1339 0.930 . S
H1343 C1331 0.924 1_655 S
H1344 C1333 0.929 . S
O1345 Co1320 2.351 . S
O1345 C1348 1.244 . S
O1346 Co1320 2.155 . S
O1346 C1348 1.240 . S
O1347 Co1320 2.096 . S
O1347 C1328 1.247 . S
C1348 O1345 1.244 . S
C1348 O1346 1.240 . S
H1349 C1323 0.931 . S
H1350 C1332 0.931 . S
H1351 C1336 0.929 . S
H1352 C1338 0.930 . S
Co1353 N1357 2.148 . S
Co1353 N1363 2.128 . S
Co1353 N1373 2.194 . S
Co1353 O1378 2.351 1_565 S
Co1353 O1379 2.155 . S
Co1353 O1380 2.096 . S
C1354 N1357 1.301 . S
C1354 N1358 1.328 . S
C1354 H1359 0.930 . S
C1355 C1356 1.333 . S
C1355 N1357 1.317 . S
C1355 H1360 0.930 . S
C1356 C1355 1.333 . S
C1356 N1358 1.350 . S
C1356 H1382 0.931 . S
N1357 Co1353 2.148 . S
N1357 C1354 1.301 . S
N1357 C1355 1.317 . S
N1358 C1354 1.328 . S
N1358 C1356 1.350 . S
H1359 C1354 0.930 . S
H1360 C1355 0.930 . S
C1361 O1362 1.224 . S
C1361 O1380 1.247 . S
O1362 C1361 1.224 . S
N1363 Co1353 2.128 . S
N1363 C1364 1.355 . S
N1363 C1366 1.311 . S
C1364 N1363 1.355 . S
C1364 C1365 1.363 . S
C1364 H1376 0.929 . S
C1365 C1364 1.363 . S
C1365 N1367 1.375 . S
C1365 H1383 0.931 . S
C1366 N1363 1.311 . S
C1366 N1367 1.347 . S
C1366 H1377 0.929 . S
N1367 C1365 1.375 . S
N1367 C1366 1.347 . S
C1368 C1371 1.365 . S
C1368 N1373 1.328 . S
C1368 H1374 0.929 . S
C1369 C1370 1.362 . S
C1369 C1372 1.378 . S
C1369 H1384 0.929 . S
C1370 C1369 1.362 . S
C1370 C1371 1.366 . S
C1371 C1368 1.365 . S
C1371 C1370 1.366 . S
C1371 H1385 0.930 . S
C1372 C1369 1.378 . S
C1372 N1373 1.315 . S
C1372 H1375 0.930 . S
N1373 Co1353 2.194 . S
N1373 C1368 1.328 . S
N1373 C1372 1.315 . S
H1374 C1368 0.929 . S
H1375 C1372 0.930 . S
H1376 C1364 0.929 . S
H1377 C1366 0.929 . S
O1378 Co1353 2.351 1_545 S
O1378 C1381 1.244 . S
O1379 Co1353 2.155 . S
O1379 C1381 1.240 1_565 S
O1380 Co1353 2.096 . S
O1380 C1361 1.247 . S
C1381 O1378 1.244 . S
C1381 O1379 1.240 1_545 S
H1382 C1356 0.931 . S
H1383 C1365 0.931 . S
H1384 C1369 0.929 . S
H1385 C1371 0.930 . S
Co1386 N1390 2.148 . S
Co1386 N1396 2.128 . S
Co1386 N1406 2.194 . S
Co1386 O1411 2.351 . S
Co1386 O1412 2.155 . S
Co1386 O1413 2.096 . S
C1387 N1390 1.301 . S
C1387 N1391 1.328 . S
C1387 H1392 0.930 . S
C1388 C1389 1.333 . S
C1388 N1390 1.317 . S
C1388 H1393 0.930 . S
C1389 C1388 1.333 . S
C1389 N1391 1.350 . S
C1389 H1415 0.931 . S
N1390 Co1386 2.148 . S
N1390 C1387 1.301 . S
N1390 C1388 1.317 . S
N1391 C1387 1.328 . S
N1391 C1389 1.350 . S
H1392 C1387 0.930 . S
H1393 C1388 0.930 . S
C1394 O1395 1.224 . S
C1394 O1413 1.247 . S
O1395 C1394 1.224 . S
N1396 Co1386 2.128 . S
N1396 C1397 1.355 . S
N1396 C1399 1.311 . S
C1397 N1396 1.355 . S
C1397 C1398 1.363 . S
C1397 H1409 0.929 . S
C1398 C1397 1.363 . S
C1398 N1400 1.375 . S
C1398 H1416 0.931 . S
C1399 N1396 1.311 . S
C1399 N1400 1.347 . S
C1399 H1410 0.929 . S
N1400 C1398 1.375 . S
N1400 C1399 1.347 . S
C1401 C1404 1.365 . S
C1401 N1406 1.328 . S
C1401 H1407 0.929 . S
C1402 C1403 1.362 . S
C1402 C1405 1.378 . S
C1402 H1417 0.929 . S
C1403 C1402 1.362 . S
C1403 C1404 1.366 . S
C1404 C1401 1.365 . S
C1404 C1403 1.366 . S
C1404 H1418 0.930 . S
C1405 C1402 1.378 . S
C1405 N1406 1.315 . S
C1405 H1408 0.930 . S
N1406 Co1386 2.194 . S
N1406 C1401 1.328 . S
N1406 C1405 1.315 . S
H1407 C1401 0.929 . S
H1408 C1405 0.930 . S
H1409 C1397 0.929 . S
H1410 C1399 0.929 . S
O1411 Co1386 2.351 . S
O1411 C1414 1.244 . S
O1412 Co1386 2.155 . S
O1412 C1414 1.240 . S
O1413 Co1386 2.096 . S
O1413 C1394 1.247 . S
C1414 O1411 1.244 . S
C1414 O1412 1.240 . S
H1415 C1389 0.931 . S
H1416 C1398 0.931 . S
H1417 C1402 0.929 . S
H1418 C1404 0.930 . S
Co1419 N1423 2.148 . S
Co1419 N1429 2.128 . S
Co1419 N1439 2.194 . S
Co1419 O1444 2.351 . S
Co1419 O1445 2.155 . S
Co1419 O1446 2.096 . S
C1420 N1423 1.301 . S
C1420 N1424 1.328 . S
C1420 H1425 0.930 . S
C1421 C1422 1.333 . S
C1421 N1423 1.317 . S
C1421 H1426 0.930 . S
C1422 C1421 1.333 . S
C1422 N1424 1.350 . S
C1422 H1448 0.931 . S
N1423 Co1419 2.148 . S
N1423 C1420 1.301 . S
N1423 C1421 1.317 . S
N1424 C1420 1.328 . S
N1424 C1422 1.350 . S
H1425 C1420 0.930 . S
H1426 C1421 0.930 . S
C1427 O1428 1.224 . S
C1427 O1446 1.247 . S
O1428 C1427 1.224 . S
N1429 Co1419 2.128 . S
N1429 C1430 1.355 . S
N1429 C1432 1.311 . S
C1430 N1429 1.355 . S
C1430 C1431 1.363 . S
C1430 H1442 0.929 . S
C1431 C1430 1.363 . S
C1431 N1433 1.375 . S
C1431 H1449 0.931 . S
C1432 N1429 1.311 . S
C1432 N1433 1.347 . S
C1432 H1443 0.929 . S
N1433 C1431 1.375 . S
N1433 C1432 1.347 . S
C1434 C1437 1.365 . S
C1434 N1439 1.328 . S
C1434 H1440 0.929 . S
C1435 C1436 1.362 . S
C1435 C1438 1.378 . S
C1435 H1450 0.929 . S
C1436 C1435 1.362 . S
C1436 C1437 1.366 . S
C1437 C1434 1.365 . S
C1437 C1436 1.366 . S
C1437 H1451 0.930 . S
C1438 C1435 1.378 . S
C1438 N1439 1.315 . S
C1438 H1441 0.930 . S
N1439 Co1419 2.194 . S
N1439 C1434 1.328 . S
N1439 C1438 1.315 . S
H1440 C1434 0.929 . S
H1441 C1438 0.930 . S
H1442 C1430 0.929 . S
H1443 C1432 0.929 . S
O1444 Co1419 2.351 . S
O1444 C1447 1.244 . S
O1445 Co1419 2.155 . S
O1445 C1447 1.240 . S
O1446 Co1419 2.096 . S
O1446 C1427 1.247 . S
C1447 O1444 1.244 . S
C1447 O1445 1.240 . S
H1448 C1422 0.931 . S
H1449 C1431 0.931 . S
H1450 C1435 0.929 . S
H1451 C1437 0.930 . S
Co1452 N1456 2.148 . S
Co1452 N1462 2.128 . S
Co1452 N1472 2.194 . S
Co1452 O1477 2.351 . S
Co1452 O1478 2.155 . S
Co1452 O1479 2.096 . S
C1453 N1456 1.301 . S
C1453 N1457 1.328 . S
C1453 H1458 0.930 . S
C1454 C1455 1.333 . S
C1454 N1456 1.317 . S
C1454 H1459 0.930 . S
C1455 C1454 1.333 . S
C1455 N1457 1.350 . S
C1455 H1481 0.931 . S
N1456 Co1452 2.148 . S
N1456 C1453 1.301 . S
N1456 C1454 1.317 . S
N1457 C1453 1.328 . S
N1457 C1455 1.350 . S
H1458 C1453 0.930 . S
H1459 C1454 0.930 . S
C1460 O1461 1.224 . S
C1460 O1479 1.247 . S
O1461 C1460 1.224 . S
N1462 Co1452 2.128 . S
N1462 C1463 1.355 . S
N1462 C1465 1.311 . S
C1463 N1462 1.355 . S
C1463 C1464 1.363 . S
C1463 H1475 0.929 . S
C1464 C1463 1.363 . S
C1464 N1466 1.375 . S
C1464 H1482 0.931 . S
C1465 N1462 1.311 . S
C1465 N1466 1.347 . S
C1465 H1476 0.929 . S
N1466 C1464 1.375 . S
N1466 C1465 1.347 . S
C1467 C1470 1.365 . S
C1467 N1472 1.328 . S
C1467 H1473 0.929 . S
C1468 C1469 1.362 . S
C1468 C1471 1.378 . S
C1468 H1483 0.929 . S
C1469 C1468 1.362 . S
C1469 C1470 1.366 . S
C1470 C1467 1.365 . S
C1470 C1469 1.366 . S
C1470 H1484 0.930 . S
C1471 C1468 1.378 . S
C1471 N1472 1.315 . S
C1471 H1474 0.930 . S
N1472 Co1452 2.194 . S
N1472 C1467 1.328 . S
N1472 C1471 1.315 . S
H1473 C1467 0.929 . S
H1474 C1471 0.930 . S
H1475 C1463 0.929 . S
H1476 C1465 0.929 . S
O1477 Co1452 2.351 . S
O1477 C1480 1.244 . S
O1478 Co1452 2.155 . S
O1478 C1480 1.240 . S
O1479 Co1452 2.096 . S
O1479 C1460 1.247 . S
C1480 O1477 1.244 . S
C1480 O1478 1.240 . S
H1481 C1455 0.931 . S
H1482 C1464 0.931 . S
H1483 C1468 0.929 . S
H1484 C1470 0.930 . S
Co1485 N1489 2.148 . S
Co1485 N1495 2.128 . S
Co1485 N1505 2.194 . S
Co1485 O1510 2.351 . S
Co1485 O1511 2.155 . S
Co1485 O1512 2.096 . S
C1486 N1489 1.301 . S
C1486 N1490 1.328 . S
C1486 H1491 0.930 . S
C1487 C1488 1.333 . S
C1487 N1489 1.317 . S
C1487 H1492 0.930 . S
C1488 C1487 1.333 . S
C1488 N1490 1.350 . S
C1488 H1514 0.931 . S
N1489 Co1485 2.148 . S
N1489 C1486 1.301 . S
N1489 C1487 1.317 . S
N1490 C1486 1.328 . S
N1490 C1488 1.350 . S
H1491 C1486 0.930 . S
H1492 C1487 0.930 . S
C1493 O1494 1.224 . S
C1493 O1512 1.247 . S
O1494 C1493 1.224 . S
N1495 Co1485 2.128 . S
N1495 C1496 1.355 . S
N1495 C1498 1.311 . S
C1496 N1495 1.355 . S
C1496 C1497 1.363 . S
C1496 H1508 0.929 . S
C1497 C1496 1.363 . S
C1497 N1499 1.375 . S
C1497 H1515 0.931 . S
C1498 N1495 1.311 . S
C1498 N1499 1.347 . S
C1498 H1509 0.929 . S
N1499 C1497 1.375 . S
N1499 C1498 1.347 . S
C1500 C1503 1.365 . S
C1500 N1505 1.328 . S
C1500 H1506 0.929 . S
C1501 C1502 1.362 . S
C1501 C1504 1.378 . S
C1501 H1516 0.929 . S
C1502 C1501 1.362 . S
C1502 C1503 1.366 . S
C1503 C1500 1.365 . S
C1503 C1502 1.366 . S
C1503 H1517 0.930 . S
C1504 C1501 1.378 . S
C1504 N1505 1.315 . S
C1504 H1507 0.930 . S
N1505 Co1485 2.194 . S
N1505 C1500 1.328 . S
N1505 C1504 1.315 . S
H1506 C1500 0.929 . S
H1507 C1504 0.930 . S
H1508 C1496 0.929 . S
H1509 C1498 0.929 . S
O1510 Co1485 2.351 . S
O1510 C1513 1.244 . S
O1511 Co1485 2.155 . S
O1511 C1513 1.240 . S
O1512 Co1485 2.096 . S
O1512 C1493 1.247 . S
C1513 O1510 1.244 . S
C1513 O1511 1.240 . S
H1514 C1488 0.931 . S
H1515 C1497 0.931 . S
H1516 C1501 0.929 . S
H1517 C1503 0.930 . S
Co1518 N1522 2.148 . S
Co1518 N1528 2.128 . S
Co1518 N1538 2.194 . S
Co1518 O1543 2.351 . S
Co1518 O1544 2.155 . S
Co1518 O1545 2.096 . S
C1519 N1522 1.301 1_545 S
C1519 N1523 1.328 . S
C1519 H1524 0.930 . S
C1520 C1521 1.333 . S
C1520 N1522 1.317 1_545 S
C1520 H1525 0.930 1_545 S
C1521 C1520 1.333 . S
C1521 N1523 1.350 . S
C1521 H1547 0.931 . S
N1522 Co1518 2.148 . S
N1522 C1519 1.301 1_565 S
N1522 C1520 1.317 1_565 S
N1523 C1519 1.328 . S
N1523 C1521 1.350 . S
H1524 C1519 0.930 . S
H1525 C1520 0.930 1_565 S
C1526 O1527 1.224 . S
C1526 O1545 1.247 . S
O1527 C1526 1.224 . S
N1528 Co1518 2.128 . S
N1528 C1529 1.355 . S
N1528 C1531 1.311 . S
C1529 N1528 1.355 . S
C1529 C1530 1.363 . S
C1529 H1541 0.929 . S
C1530 C1529 1.363 . S
C1530 N1532 1.375 . S
C1530 H1548 0.931 . S
C1531 N1528 1.311 . S
C1531 N1532 1.347 . S
C1531 H1542 0.929 . S
N1532 C1530 1.375 . S
N1532 C1531 1.347 . S
C1533 C1536 1.365 . S
C1533 N1538 1.328 . S
C1533 H1539 0.929 . S
C1534 C1535 1.362 . S
C1534 C1537 1.378 . S
C1534 H1549 0.929 . S
C1535 C1534 1.362 . S
C1535 C1536 1.366 . S
C1536 C1533 1.365 . S
C1536 C1535 1.366 . S
C1536 H1550 0.930 . S
C1537 C1534 1.378 . S
C1537 N1538 1.315 . S
C1537 H1540 0.930 . S
N1538 Co1518 2.194 . S
N1538 C1533 1.328 . S
N1538 C1537 1.315 . S
H1539 C1533 0.929 . S
H1540 C1537 0.930 . S
H1541 C1529 0.929 . S
H1542 C1531 0.929 . S
O1543 Co1518 2.351 . S
O1543 C1546 1.244 . S
O1544 Co1518 2.155 . S
O1544 C1546 1.240 . S
O1545 Co1518 2.096 . S
O1545 C1526 1.247 . S
C1546 O1543 1.244 . S
C1546 O1544 1.240 . S
H1547 C1521 0.931 . S
H1548 C1530 0.931 . S
H1549 C1534 0.929 . S
H1550 C1536 0.930 . S
Co1551 N1555 2.148 . S
Co1551 N1561 2.128 . S
Co1551 N1571 2.194 . S
Co1551 O1576 2.351 . S
Co1551 O1577 2.155 . S
Co1551 O1578 2.096 . S
C1552 N1555 1.301 . S
C1552 N1556 1.328 . S
C1552 H1557 0.930 . S
C1553 C1554 1.333 . S
C1553 N1555 1.317 . S
C1553 H1558 0.930 . S
C1554 C1553 1.333 . S
C1554 N1556 1.350 . S
C1554 H1580 0.931 . S
N1555 Co1551 2.148 . S
N1555 C1552 1.301 . S
N1555 C1553 1.317 . S
N1556 C1552 1.328 . S
N1556 C1554 1.350 . S
H1557 C1552 0.930 . S
H1558 C1553 0.930 . S
C1559 O1560 1.224 . S
C1559 O1578 1.247 . S
O1560 C1559 1.224 . S
N1561 Co1551 2.128 . S
N1561 C1562 1.355 . S
N1561 C1564 1.311 . S
C1562 N1561 1.355 . S
C1562 C1563 1.363 . S
C1562 H1574 0.929 . S
C1563 C1562 1.363 . S
C1563 N1565 1.375 . S
C1563 H1581 0.931 . S
C1564 N1561 1.311 . S
C1564 N1565 1.347 . S
C1564 H1575 0.929 . S
N1565 C1563 1.375 . S
N1565 C1564 1.347 . S
C1566 C1569 1.365 . S
C1566 N1571 1.328 . S
C1566 H1572 0.929 . S
C1567 C1568 1.362 . S
C1567 C1570 1.378 . S
C1567 H1582 0.929 . S
C1568 C1567 1.362 . S
C1568 C1569 1.366 . S
C1569 C1566 1.365 . S
C1569 C1568 1.366 . S
C1569 H1583 0.930 . S
C1570 C1567 1.378 . S
C1570 N1571 1.315 . S
C1570 H1573 0.930 . S
N1571 Co1551 2.194 . S
N1571 C1566 1.328 . S
N1571 C1570 1.315 . S
H1572 C1566 0.929 . S
H1573 C1570 0.930 . S
H1574 C1562 0.929 . S
H1575 C1564 0.929 . S
O1576 Co1551 2.351 . S
O1576 C1579 1.244 . S
O1577 Co1551 2.155 . S
O1577 C1579 1.240 . S
O1578 Co1551 2.096 . S
O1578 C1559 1.247 . S
C1579 O1576 1.244 . S
C1579 O1577 1.240 . S
H1580 C1554 0.931 . S
H1581 C1563 0.931 . S
H1582 C1567 0.929 . S
H1583 C1569 0.930 . S
C1584 C1585 1.369 . S
C1584 C1586 1.419 . S
C1584 H1588 0.930 . S
C1585 C1584 1.369 . S
C1585 C1594 1.429 . S
C1586 C1584 1.419 . S
C1586 C1587 1.363 . S
C1586 H1589 0.929 . S
C1587 C1586 1.363 . S
C1587 C1593 1.428 . S
H1588 C1584 0.930 . S
H1589 C1586 0.929 . S
S1590 N1591 1.613 . S
S1590 N1592 1.610 . S
N1591 S1590 1.613 . S
N1591 C1594 1.350 . S
N1592 S1590 1.610 . S
N1592 C1593 1.351 . S
C1593 C1587 1.428 . S
C1593 N1592 1.351 . S
C1593 C1594 1.434 . S
C1594 C1585 1.429 . S
C1594 N1591 1.350 . S
C1594 C1593 1.434 . S
C1595 C1596 1.369 1_455 S
C1595 C1597 1.419 . S
C1595 H1599 0.930 . S
C1596 C1595 1.369 1_655 S
C1596 C1605 1.429 . S
C1597 C1595 1.419 . S
C1597 C1598 1.363 . S
C1597 H1600 0.929 . S
C1598 C1597 1.363 . S
C1598 C1604 1.428 . S
H1599 C1595 0.930 . S
H1600 C1597 0.929 . S
S1601 N1602 1.613 . S
S1601 N1603 1.610 . S
N1602 S1601 1.613 . S
N1602 C1605 1.350 . S
N1603 S1601 1.610 . S
N1603 C1604 1.351 1_655 S
C1604 C1598 1.428 . S
C1604 N1603 1.351 1_455 S
C1604 C1605 1.434 1_455 S
C1605 C1596 1.429 . S
C1605 N1602 1.350 . S
C1605 C1604 1.434 1_655 S
C1606 C1607 1.369 . S
C1606 C1608 1.419 . S
C1606 H1610 0.930 . S
C1607 C1606 1.369 . S
C1607 C1616 1.429 . S
C1608 C1606 1.419 . S
C1608 C1609 1.363 . S
C1608 H1611 0.929 . S
C1609 C1608 1.363 . S
C1609 C1615 1.428 . S
H1610 C1606 0.930 . S
H1611 C1608 0.929 . S
S1612 N1613 1.613 . S
S1612 N1614 1.610 . S
N1613 S1612 1.613 . S
N1613 C1616 1.350 . S
N1614 S1612 1.610 . S
N1614 C1615 1.351 . S
C1615 C1609 1.428 . S
C1615 N1614 1.351 . S
C1615 C1616 1.434 . S
C1616 C1607 1.429 . S
C1616 N1613 1.350 . S
C1616 C1615 1.434 . S
C1617 C1618 1.369 . S
C1617 C1619 1.419 . S
C1617 H1621 0.930 . S
C1618 C1617 1.369 . S
C1618 C1627 1.429 . S
C1619 C1617 1.419 . S
C1619 C1620 1.363 . S
C1619 H1622 0.929 . S
C1620 C1619 1.363 . S
C1620 C1626 1.428 . S
H1621 C1617 0.930 . S
H1622 C1619 0.929 . S
S1623 N1624 1.613 . S
S1623 N1625 1.610 . S
N1624 S1623 1.613 . S
N1624 C1627 1.350 . S
N1625 S1623 1.610 . S
N1625 C1626 1.351 . S
C1626 C1620 1.428 . S
C1626 N1625 1.351 . S
C1626 C1627 1.434 . S
C1627 C1618 1.429 . S
C1627 N1624 1.350 . S
C1627 C1626 1.434 . S
C1628 C1629 1.369 . S
C1628 C1630 1.419 . S
C1628 H1632 0.930 . S
C1629 C1628 1.369 . S
C1629 C1638 1.429 . S
C1630 C1628 1.419 . S
C1630 C1631 1.363 . S
C1630 H1633 0.929 . S
C1631 C1630 1.363 . S
C1631 C1637 1.428 . S
H1632 C1628 0.930 . S
H1633 C1630 0.929 . S
S1634 N1635 1.613 . S
S1634 N1636 1.610 . S
N1635 S1634 1.613 . S
N1635 C1638 1.350 . S
N1636 S1634 1.610 . S
N1636 C1637 1.351 . S
C1637 C1631 1.428 . S
C1637 N1636 1.351 . S
C1637 C1638 1.434 . S
C1638 C1629 1.429 . S
C1638 N1635 1.350 . S
C1638 C1637 1.434 . S
C1639 C1640 1.369 . S
C1639 C1641 1.419 . S
C1639 H1643 0.930 . S
C1640 C1639 1.369 . S
C1640 C1649 1.429 . S
C1641 C1639 1.419 . S
C1641 C1642 1.363 . S
C1641 H1644 0.929 . S
C1642 C1641 1.363 . S
C1642 C1648 1.428 . S
H1643 C1639 0.930 . S
H1644 C1641 0.929 . S
S1645 N1646 1.613 . S
S1645 N1647 1.610 . S
N1646 S1645 1.613 . S
N1646 C1649 1.350 . S
N1647 S1645 1.610 . S
N1647 C1648 1.351 . S
C1648 C1642 1.428 . S
C1648 N1647 1.351 . S
C1648 C1649 1.434 . S
C1649 C1640 1.429 . S
C1649 N1646 1.350 . S
C1649 C1648 1.434 . S
C1650 C1651 1.369 . S
C1650 C1652 1.419 . S
C1650 H1654 0.930 . S
C1651 C1650 1.369 . S
C1651 C1660 1.429 . S
C1652 C1650 1.419 . S
C1652 C1653 1.363 . S
C1652 H1655 0.929 . S
C1653 C1652 1.363 . S
C1653 C1659 1.428 . S
H1654 C1650 0.930 . S
H1655 C1652 0.929 . S
S1656 N1657 1.613 . S
S1656 N1658 1.610 . S
N1657 S1656 1.613 . S
N1657 C1660 1.350 . S
N1658 S1656 1.610 . S
N1658 C1659 1.351 . S
C1659 C1653 1.428 . S
C1659 N1658 1.351 . S
C1659 C1660 1.434 . S
C1660 C1651 1.429 . S
C1660 N1657 1.350 . S
C1660 C1659 1.434 . S
C1661 C1662 1.369 . S
C1661 C1663 1.419 1_455 S
C1661 H1665 0.930 . S
C1662 C1661 1.369 . S
C1662 C1671 1.429 . S
C1663 C1661 1.419 1_655 S
C1663 C1664 1.363 . S
C1663 H1666 0.929 . S
C1664 C1663 1.363 . S
C1664 C1670 1.428 1_655 S
H1665 C1661 0.930 . S
H1666 C1663 0.929 . S
S1667 N1668 1.613 . S
S1667 N1669 1.610 . S
N1668 S1667 1.613 . S
N1668 C1671 1.350 . S
N1669 S1667 1.610 . S
N1669 C1670 1.351 . S
C1670 C1664 1.428 1_455 S
C1670 N1669 1.351 . S
C1670 C1671 1.434 . S
C1671 C1662 1.429 . S
C1671 N1668 1.350 . S
C1671 C1670 1.434 . S
C1672 C1673 1.369 . S
C1672 C1674 1.419 . S
C1672 H1676 0.930 . S
C1673 C1672 1.369 . S
C1673 C1682 1.429 . S
C1674 C1672 1.419 . S
C1674 C1675 1.363 . S
C1674 H1677 0.929 . S
C1675 C1674 1.363 . S
C1675 C1681 1.428 . S
H1676 C1672 0.930 . S
H1677 C1674 0.929 . S
S1678 N1679 1.613 . S
S1678 N1680 1.610 . S
N1679 S1678 1.613 . S
N1679 C1682 1.350 . S
N1680 S1678 1.610 . S
N1680 C1681 1.351 . S
C1681 C1675 1.428 . S
C1681 N1680 1.351 . S
C1681 C1682 1.434 . S
C1682 C1673 1.429 . S
C1682 N1679 1.350 . S
C1682 C1681 1.434 . S
C1683 C1684 1.369 . S
C1683 C1685 1.419 . S
C1683 H1687 0.930 . S
C1684 C1683 1.369 . S
C1684 C1693 1.429 . S
C1685 C1683 1.419 . S
C1685 C1686 1.363 . S
C1685 H1688 0.929 . S
C1686 C1685 1.363 . S
C1686 C1692 1.428 . S
H1687 C1683 0.930 . S
H1688 C1685 0.929 . S
S1689 N1690 1.613 1_545 S
S1689 N1691 1.610 1_545 S
N1690 S1689 1.613 1_565 S
N1690 C1693 1.350 . S
N1691 S1689 1.610 1_565 S
N1691 C1692 1.351 . S
C1692 C1686 1.428 . S
C1692 N1691 1.351 . S
C1692 C1693 1.434 . S
C1693 C1684 1.429 . S
C1693 N1690 1.350 . S
C1693 C1692 1.434 . S
C1694 C1695 1.369 . S
C1694 C1696 1.419 1_545 S
C1694 H1698 0.930 . S
C1695 C1694 1.369 . S
C1695 C1704 1.429 . S
C1696 C1694 1.419 1_565 S
C1696 C1697 1.363 . S
C1696 H1699 0.929 . S
C1697 C1696 1.363 . S
C1697 C1703 1.428 1_565 S
H1698 C1694 0.930 . S
H1699 C1696 0.929 . S
S1700 N1701 1.613 . S
S1700 N1702 1.610 . S
N1701 S1700 1.613 . S
N1701 C1704 1.350 . S
N1702 S1700 1.610 . S
N1702 C1703 1.351 . S
C1703 C1697 1.428 1_545 S
C1703 N1702 1.351 . S
C1703 C1704 1.434 . S
C1704 C1695 1.429 . S
C1704 N1701 1.350 . S
C1704 C1703 1.434 . S
C1705 C1706 1.369 . S
C1705 C1707 1.419 . S
C1705 H1709 0.930 . S
C1706 C1705 1.369 . S
C1706 C1715 1.429 . S
C1707 C1705 1.419 . S
C1707 C1708 1.363 . S
C1707 H1710 0.929 . S
C1708 C1707 1.363 . S
C1708 C1714 1.428 . S
H1709 C1705 0.930 . S
H1710 C1707 0.929 . S
S1711 N1712 1.613 . S
S1711 N1713 1.610 . S
N1712 S1711 1.613 . S
N1712 C1715 1.350 . S
N1713 S1711 1.610 . S
N1713 C1714 1.351 . S
C1714 C1708 1.428 . S
C1714 N1713 1.351 . S
C1714 C1715 1.434 . S
C1715 C1706 1.429 . S
C1715 N1712 1.350 . S
C1715 C1714 1.434 . S
C1716 C1717 1.369 . S
C1716 C1718 1.419 . S
C1716 H1720 0.930 . S
C1717 C1716 1.369 . S
C1717 C1726 1.429 . S
C1718 C1716 1.419 . S
C1718 C1719 1.363 1_545 S
C1718 H1721 0.929 . S
C1719 C1718 1.363 1_565 S
C1719 C1725 1.428 . S
H1720 C1716 0.930 . S
H1721 C1718 0.929 . S
S1722 N1723 1.613 . S
S1722 N1724 1.610 . S
N1723 S1722 1.613 . S
N1723 C1726 1.350 1_565 S
N1724 S1722 1.610 . S
N1724 C1725 1.351 . S
C1725 C1719 1.428 . S
C1725 N1724 1.351 . S
C1725 C1726 1.434 1_565 S
C1726 C1717 1.429 . S
C1726 N1723 1.350 1_545 S
C1726 C1725 1.434 1_545 S
C1727 C1728 1.369 . S
C1727 C1729 1.419 . S
C1727 H1731 0.930 . S
C1728 C1727 1.369 . S
C1728 C1737 1.429 . S
C1729 C1727 1.419 . S
C1729 C1730 1.363 . S
C1729 H1732 0.929 . S
C1730 C1729 1.363 . S
C1730 C1736 1.428 . S
H1731 C1727 0.930 . S
H1732 C1729 0.929 . S
S1733 N1734 1.613 . S
S1733 N1735 1.610 . S
N1734 S1733 1.613 . S
N1734 C1737 1.350 . S
N1735 S1733 1.610 . S
N1735 C1736 1.351 . S
C1736 C1730 1.428 . S
C1736 N1735 1.351 . S
C1736 C1737 1.434 . S
C1737 C1728 1.429 . S
C1737 N1734 1.350 . S
C1737 C1736 1.434 . S
C1738 C1739 1.369 . S
C1738 C1740 1.419 . S
C1738 H1742 0.930 . S
C1739 C1738 1.369 . S
C1739 C1748 1.429 . S
C1740 C1738 1.419 . S
C1740 C1741 1.363 . S
C1740 H1743 0.929 . S
C1741 C1740 1.363 . S
C1741 C1747 1.428 . S
H1742 C1738 0.930 . S
H1743 C1740 0.929 . S
S1744 N1745 1.613 . S
S1744 N1746 1.610 . S
N1745 S1744 1.613 . S
N1745 C1748 1.350 . S
N1746 S1744 1.610 . S
N1746 C1747 1.351 . S
C1747 C1741 1.428 . S
C1747 N1746 1.351 . S
C1747 C1748 1.434 . S
C1748 C1739 1.429 . S
C1748 N1745 1.350 . S
C1748 C1747 1.434 . S
C1749 C1750 1.369 . S
C1749 C1751 1.419 . S
C1749 H1753 0.930 . S
C1750 C1749 1.369 . S
C1750 C1759 1.429 . S
C1751 C1749 1.419 . S
C1751 C1752 1.363 1_554 S
C1751 H1754 0.929 1_554 S
C1752 C1751 1.363 1_556 S
C1752 C1758 1.428 1_556 S
H1753 C1749 0.930 . S
H1754 C1751 0.929 1_556 S
S1755 N1756 1.613 . S
S1755 N1757 1.610 1_554 S
N1756 S1755 1.613 . S
N1756 C1759 1.350 . S
N1757 S1755 1.610 1_556 S
N1757 C1758 1.351 1_556 S
C1758 C1752 1.428 1_554 S
C1758 N1757 1.351 1_554 S
C1758 C1759 1.434 . S
C1759 C1750 1.429 . S
C1759 N1756 1.350 . S
C1759 C1758 1.434 . S
C1760 C1761 1.369 . S
C1760 C1762 1.419 . S
C1760 H1764 0.930 . S
C1761 C1760 1.369 . S
C1761 C1770 1.429 . S
C1762 C1760 1.419 . S
C1762 C1763 1.363 1_554 S
C1762 H1765 0.933 . S
C1763 C1762 1.363 1_556 S
C1763 C1769 1.440 . S
H1764 C1760 0.930 . S
H1765 C1762 0.933 . S
S1766 N1767 1.613 . S
S1766 N1768 1.610 1_554 S
N1767 S1766 1.613 . S
N1767 C1770 1.350 . S
N1768 S1766 1.610 1_556 S
N1768 C1769 1.371 . S
C1769 C1763 1.440 . S
C1769 N1768 1.371 . S
C1769 C1770 1.403 1_556 S
C1770 C1761 1.429 . S
C1770 N1767 1.350 . S
C1770 C1769 1.403 1_554 S
C1771 C1772 1.369 . S
C1771 C1773 1.419 . S
C1771 H1775 0.930 . S
C1772 C1771 1.369 . S
C1772 C1781 1.429 . S
C1773 C1771 1.419 . S
C1773 C1774 1.363 . S
C1773 H1776 0.929 . S
C1774 C1773 1.363 . S
C1774 C1780 1.428 . S
H1775 C1771 0.930 . S
H1776 C1773 0.929 . S
S1777 N1778 1.613 1_455 S
S1777 N1779 1.610 1_455 S
N1778 S1777 1.613 1_655 S
N1778 C1781 1.350 . S
N1779 S1777 1.610 1_655 S
N1779 C1780 1.351 . S
C1780 C1774 1.428 . S
C1780 N1779 1.351 . S
C1780 C1781 1.434 . S
C1781 C1772 1.429 . S
C1781 N1778 1.350 . S
C1781 C1780 1.434 . S
C1782 C1783 1.369 . S
C1782 C1784 1.419 . S
C1782 H1786 0.930 . S
C1783 C1782 1.369 . S
C1783 C1792 1.429 . S
C1784 C1782 1.419 . S
C1784 C1785 1.363 . S
C1784 H1787 0.929 . S
C1785 C1784 1.363 . S
C1785 C1791 1.428 . S
H1786 C1782 0.930 . S
H1787 C1784 0.929 . S
S1788 N1789 1.613 . S
S1788 N1790 1.610 . S
N1789 S1788 1.613 . S
N1789 C1792 1.350 . S
N1790 S1788 1.610 . S
N1790 C1791 1.351 . S
C1791 C1785 1.428 . S
C1791 N1790 1.351 . S
C1791 C1792 1.434 . S
C1792 C1783 1.429 . S
C1792 N1789 1.350 . S
C1792 C1791 1.434 . S
C1793 C1794 1.369 . S
C1793 C1795 1.419 . S
C1793 H1797 0.930 . S
C1794 C1793 1.369 . S
C1794 C1803 1.429 . S
C1795 C1793 1.419 . S
C1795 C1796 1.363 . S
C1795 H1798 0.929 . S
C1796 C1795 1.363 . S
C1796 C1802 1.428 . S
H1797 C1793 0.930 . S
H1798 C1795 0.929 . S
S1799 N1800 1.606 1_455 S
S1799 N1801 1.597 1_455 S
N1800 S1799 1.606 1_655 S
N1800 C1803 1.360 . S
N1801 S1799 1.597 1_655 S
N1801 C1802 1.371 . S
C1802 C1796 1.428 . S
C1802 N1801 1.371 . S
C1802 C1803 1.434 . S
C1803 C1794 1.429 . S
C1803 N1800 1.360 . S
C1803 C1802 1.434 . S
C1804 C1805 1.369 . S
C1804 C1806 1.419 . S
C1804 H1808 0.930 . S
C1805 C1804 1.369 . S
C1805 C1814 1.429 . S
C1806 C1804 1.419 . S
C1806 C1807 1.363 . S
C1806 H1809 0.929 . S
C1807 C1806 1.363 . S
C1807 C1813 1.428 . S
H1808 C1804 0.930 . S
H1809 C1806 0.929 . S
S1810 N1811 1.613 . S
S1810 N1812 1.610 . S
N1811 S1810 1.613 . S
N1811 C1814 1.350 . S
N1812 S1810 1.610 . S
N1812 C1813 1.351 . S
C1813 C1807 1.428 . S
C1813 N1812 1.351 . S
C1813 C1814 1.434 . S
C1814 C1805 1.429 . S
C1814 N1811 1.350 . S
C1814 C1813 1.434 . S
C1815 C1816 1.369 . S
C1815 C1817 1.419 . S
C1815 H1819 0.930 . S
C1816 C1815 1.369 . S
C1816 C1825 1.429 . S
C1817 C1815 1.419 . S
C1817 C1818 1.363 . S
C1817 H1820 0.929 . S
C1818 C1817 1.363 . S
C1818 C1824 1.428 . S
H1819 C1815 0.930 . S
H1820 C1817 0.929 . S
S1821 N1822 1.613 . S
S1821 N1823 1.610 . S
N1822 S1821 1.613 . S
N1822 C1825 1.350 . S
N1823 S1821 1.610 . S
N1823 C1824 1.351 . S
C1824 C1818 1.428 . S
C1824 N1823 1.351 . S
C1824 C1825 1.434 . S
C1825 C1816 1.429 . S
C1825 N1822 1.350 . S
C1825 C1824 1.434 . S
C1826 C1827 1.369 . S
C1826 C1828 1.419 . S
C1826 H1830 0.930 . S
C1827 C1826 1.369 . S
C1827 C1836 1.429 . S
C1828 C1826 1.419 . S
C1828 C1829 1.363 . S
C1828 H1831 0.929 . S
C1829 C1828 1.363 . S
C1829 C1835 1.428 . S
H1830 C1826 0.930 . S
H1831 C1828 0.929 . S
S1832 N1833 1.613 . S
S1832 N1834 1.610 . S
N1833 S1832 1.613 . S
N1833 C1836 1.350 . S
N1834 S1832 1.610 . S
N1834 C1835 1.351 . S
C1835 C1829 1.428 . S
C1835 N1834 1.351 . S
C1835 C1836 1.434 . S
C1836 C1827 1.429 . S
C1836 N1833 1.350 . S
C1836 C1835 1.434 . S
C1837 C1838 1.369 . S
C1837 C1839 1.419 . S
C1837 H1841 0.930 . S
C1838 C1837 1.369 . S
C1838 C1847 1.429 . S
C1839 C1837 1.419 . S
C1839 C1840 1.363 . S
C1839 H1842 0.929 . S
C1840 C1839 1.363 . S
C1840 C1846 1.428 . S
H1841 C1837 0.930 . S
H1842 C1839 0.929 . S
S1843 N1844 1.613 . S
S1843 N1845 1.610 . S
N1844 S1843 1.613 . S
N1844 C1847 1.350 . S
N1845 S1843 1.610 . S
N1845 C1846 1.351 . S
C1846 C1840 1.428 . S
C1846 N1845 1.351 . S
C1846 C1847 1.434 . S
C1847 C1838 1.429 . S
C1847 N1844 1.350 . S
C1847 C1846 1.434 . S
C1848 C1849 1.369 . S
C1848 C1850 1.419 . S
C1848 H1852 0.930 . S
C1849 C1848 1.369 . S
C1849 C1858 1.429 . S
C1850 C1848 1.419 . S
C1850 C1851 1.363 . S
C1850 H1853 0.929 . S
C1851 C1850 1.363 . S
C1851 C1857 1.428 . S
H1852 C1848 0.930 . S
H1853 C1850 0.929 . S
S1854 N1855 1.613 . S
S1854 N1856 1.610 . S
N1855 S1854 1.613 . S
N1855 C1858 1.350 . S
N1856 S1854 1.610 . S
N1856 C1857 1.351 . S
C1857 C1851 1.428 . S
C1857 N1856 1.351 . S
C1857 C1858 1.434 . S
C1858 C1849 1.429 . S
C1858 N1855 1.350 . S
C1858 C1857 1.434 . S
C1859 C1860 1.369 . S
C1859 C1861 1.419 . S
C1859 H1863 0.930 . S
C1860 C1859 1.369 . S
C1860 C1869 1.429 . S
C1861 C1859 1.419 . S
C1861 C1862 1.363 . S
C1861 H1864 0.929 . S
C1862 C1861 1.363 . S
C1862 C1868 1.428 . S
H1863 C1859 0.930 . S
H1864 C1861 0.929 . S
S1865 N1866 1.613 . S
S1865 N1867 1.610 . S
N1866 S1865 1.613 . S
N1866 C1869 1.350 . S
N1867 S1865 1.610 . S
N1867 C1868 1.351 . S
C1868 C1862 1.428 . S
C1868 N1867 1.351 . S
C1868 C1869 1.434 . S
C1869 C1860 1.429 . S
C1869 N1866 1.350 . S
C1869 C1868 1.434 . S
C1870 C1871 1.369 . S
C1870 C1872 1.419 . S
C1870 H1874 0.930 . S
C1871 C1870 1.369 . S
C1871 C1880 1.429 . S
C1872 C1870 1.419 . S
C1872 C1873 1.363 . S
C1872 H1875 0.929 . S
C1873 C1872 1.363 . S
C1873 C1879 1.428 . S
H1874 C1870 0.930 . S
H1875 C1872 0.929 . S
S1876 N1877 1.613 . S
S1876 N1878 1.610 . S
N1877 S1876 1.613 . S
N1877 C1880 1.350 . S
N1878 S1876 1.610 . S
N1878 C1879 1.351 . S
C1879 C1873 1.428 . S
C1879 N1878 1.351 . S
C1879 C1880 1.434 . S
C1880 C1871 1.429 . S
C1880 N1877 1.350 . S
C1880 C1879 1.434 . S
C1881 C1882 1.369 . S
C1881 C1883 1.419 . S
C1881 H1885 0.930 . S
C1882 C1881 1.369 . S
C1882 C1891 1.429 . S
C1883 C1881 1.419 . S
C1883 C1884 1.363 . S
C1883 H1886 0.929 . S
C1884 C1883 1.363 . S
C1884 C1890 1.428 . S
H1885 C1881 0.930 . S
H1886 C1883 0.929 . S
S1887 N1888 1.613 . S
S1887 N1889 1.610 . S
N1888 S1887 1.613 . S
N1888 C1891 1.350 . S
N1889 S1887 1.610 . S
N1889 C1890 1.351 . S
C1890 C1884 1.428 . S
C1890 N1889 1.351 . S
C1890 C1891 1.434 . S
C1891 C1882 1.429 . S
C1891 N1888 1.350 . S
C1891 C1890 1.434 . S
C1892 C1893 1.369 . S
C1892 C1894 1.419 . S
C1892 H1896 0.930 . S
C1893 C1892 1.369 . S
C1893 C1902 1.429 . S
C1894 C1892 1.419 . S
C1894 C1895 1.363 . S
C1894 H1897 0.929 . S
C1895 C1894 1.363 . S
C1895 C1901 1.428 . S
H1896 C1892 0.930 . S
H1897 C1894 0.929 . S
S1898 N1899 1.613 . S
S1898 N1900 1.610 . S
N1899 S1898 1.613 . S
N1899 C1902 1.350 . S
N1900 S1898 1.610 . S
N1900 C1901 1.351 . S
C1901 C1895 1.428 . S
C1901 N1900 1.351 . S
C1901 C1902 1.434 . S
C1902 C1893 1.429 . S
C1902 N1899 1.350 . S
C1902 C1901 1.434 . S
C1903 C1904 1.369 . S
C1903 C1905 1.419 . S
C1903 H1907 0.930 . S
C1904 C1903 1.369 . S
C1904 C1913 1.429 . S
C1905 C1903 1.419 . S
C1905 C1906 1.363 . S
C1905 H1908 0.929 . S
C1906 C1905 1.363 . S
C1906 C1912 1.428 . S
H1907 C1903 0.930 . S
H1908 C1905 0.929 . S
S1909 N1910 1.613 . S
S1909 N1911 1.610 . S
N1910 S1909 1.613 . S
N1910 C1913 1.350 . S
N1911 S1909 1.610 . S
N1911 C1912 1.351 . S
C1912 C1906 1.428 . S
C1912 N1911 1.351 . S
C1912 C1913 1.434 . S
C1913 C1904 1.429 . S
C1913 N1910 1.350 . S
C1913 C1912 1.434 . S
C1914 C1915 1.369 . S
C1914 C1916 1.419 . S
C1914 H1918 0.930 . S
C1915 C1914 1.369 . S
C1915 C1924 1.429 . S
C1916 C1914 1.419 . S
C1916 C1917 1.363 . S
C1916 H1919 0.929 . S
C1917 C1916 1.363 . S
C1917 C1923 1.428 . S
H1918 C1914 0.930 . S
H1919 C1916 0.929 . S
S1920 N1921 1.613 . S
S1920 N1922 1.610 . S
N1921 S1920 1.613 . S
N1921 C1924 1.350 . S
N1922 S1920 1.610 . S
N1922 C1923 1.351 . S
C1923 C1917 1.428 . S
C1923 N1922 1.351 . S
C1923 C1924 1.434 . S
C1924 C1915 1.429 . S
C1924 N1921 1.350 . S
C1924 C1923 1.434 . S
C1925 C1926 1.369 . S
C1925 C1927 1.419 . S
C1925 H1929 0.930 . S
C1926 C1925 1.369 . S
C1926 C1935 1.429 . S
C1927 C1925 1.419 . S
C1927 C1928 1.363 . S
C1927 H1930 0.929 . S
C1928 C1927 1.363 . S
C1928 C1934 1.428 . S
H1929 C1925 0.930 . S
H1930 C1927 0.929 . S
S1931 N1932 1.613 . S
S1931 N1933 1.610 . S
N1932 S1931 1.613 . S
N1932 C1935 1.350 . S
N1933 S1931 1.610 . S
N1933 C1934 1.351 . S
C1934 C1928 1.428 . S
C1934 N1933 1.351 . S
C1934 C1935 1.434 . S
C1935 C1926 1.429 . S
C1935 N1932 1.350 . S
C1935 C1934 1.434 . S
C1936 C1937 1.369 . S
C1936 C1938 1.419 . S
C1936 H1940 0.930 . S
C1937 C1936 1.369 . S
C1937 C1946 1.429 . S
C1938 C1936 1.419 . S
C1938 C1939 1.363 . S
C1938 H1941 0.929 . S
C1939 C1938 1.363 . S
C1939 C1945 1.428 . S
H1940 C1936 0.930 . S
H1941 C1938 0.929 . S
S1942 N1943 1.613 . S
S1942 N1944 1.610 . S
N1943 S1942 1.613 . S
N1943 C1946 1.350 . S
N1944 S1942 1.610 . S
N1944 C1945 1.351 . S
C1945 C1939 1.428 . S
C1945 N1944 1.351 . S
C1945 C1946 1.434 . S
C1946 C1937 1.429 . S
C1946 N1943 1.350 . S
C1946 C1945 1.434 . S
C1947 C1948 1.369 . S
C1947 C1949 1.419 . S
C1947 H1951 0.930 . S
C1948 C1947 1.369 . S
C1948 C1957 1.429 . S
C1949 C1947 1.419 . S
C1949 C1950 1.363 . S
C1949 H1952 0.929 . S
C1950 C1949 1.363 . S
C1950 C1956 1.428 . S
H1951 C1947 0.930 . S
H1952 C1949 0.929 . S
S1953 N1954 1.613 . S
S1953 N1955 1.610 . S
N1954 S1953 1.613 . S
N1954 C1957 1.350 . S
N1955 S1953 1.610 . S
N1955 C1956 1.351 . S
C1956 C1950 1.428 . S
C1956 N1955 1.351 . S
C1956 C1957 1.434 . S
C1957 C1948 1.429 . S
C1957 N1954 1.350 . S
C1957 C1956 1.434 . S
C1958 C1959 1.369 . S
C1958 C1960 1.419 . S
C1958 H1962 0.930 . S
C1959 C1958 1.369 . S
C1959 C1968 1.429 . S
C1960 C1958 1.419 . S
C1960 C1961 1.363 . S
C1960 H1963 0.929 . S
C1961 C1960 1.363 . S
C1961 C1967 1.428 . S
H1962 C1958 0.930 . S
H1963 C1960 0.929 . S
S1964 N1965 1.613 . S
S1964 N1966 1.610 . S
N1965 S1964 1.613 . S
N1965 C1968 1.350 . S
N1966 S1964 1.610 . S
N1966 C1967 1.351 . S
C1967 C1961 1.428 . S
C1967 N1966 1.351 . S
C1967 C1968 1.434 . S
C1968 C1959 1.429 . S
C1968 N1965 1.350 . S
C1968 C1967 1.434 . S
C1969 C1970 1.369 . S
C1969 C1971 1.419 . S
C1969 H1973 0.930 . S
C1970 C1969 1.369 . S
C1970 C1979 1.429 . S
C1971 C1969 1.419 . S
C1971 C1972 1.363 . S
C1971 H1974 0.929 . S
C1972 C1971 1.363 . S
C1972 C1978 1.428 . S
H1973 C1969 0.930 . S
H1974 C1971 0.929 . S
S1975 N1976 1.613 . S
S1975 N1977 1.610 . S
N1976 S1975 1.613 . S
N1976 C1979 1.350 . S
N1977 S1975 1.610 . S
N1977 C1978 1.351 . S
C1978 C1972 1.428 . S
C1978 N1977 1.351 . S
C1978 C1979 1.434 . S
C1979 C1970 1.429 . S
C1979 N1976 1.350 . S
C1979 C1978 1.434 . S
C1980 C1981 1.369 . S
C1980 C1982 1.419 . S
C1980 H1984 0.930 . S
C1981 C1980 1.369 . S
C1981 C1990 1.429 . S
C1982 C1980 1.419 . S
C1982 C1983 1.363 . S
C1982 H1985 0.929 . S
C1983 C1982 1.363 . S
C1983 C1989 1.428 . S
H1984 C1980 0.930 . S
H1985 C1982 0.929 . S
S1986 N1987 1.613 . S
S1986 N1988 1.610 . S
N1987 S1986 1.613 . S
N1987 C1990 1.350 . S
N1988 S1986 1.610 . S
N1988 C1989 1.351 . S
C1989 C1983 1.428 . S
C1989 N1988 1.351 . S
C1989 C1990 1.434 . S
C1990 C1981 1.429 . S
C1990 N1987 1.350 . S
C1990 C1989 1.434 . S
C1991 C1992 1.369 . S
C1991 C1993 1.419 . S
C1991 H1995 0.930 . S
C1992 C1991 1.369 . S
C1992 C2001 1.429 . S
C1993 C1991 1.419 . S
C1993 C1994 1.363 . S
C1993 H1996 0.929 . S
C1994 C1993 1.363 . S
C1994 C2000 1.428 . S
H1995 C1991 0.930 . S
H1996 C1993 0.929 . S
S1997 N1998 1.613 . S
S1997 N1999 1.610 . S
N1998 S1997 1.613 . S
N1998 C2001 1.350 . S
N1999 S1997 1.610 . S
N1999 C2000 1.351 . S
C2000 C1994 1.428 . S
C2000 N1999 1.351 . S
C2000 C2001 1.434 . S
C2001 C1992 1.429 . S
C2001 N1998 1.350 . S
C2001 C2000 1.434 . S
C2002 C2003 1.369 . S
C2002 C2004 1.419 . S
C2002 H2006 0.930 . S
C2003 C2002 1.369 . S
C2003 C2012 1.429 . S
C2004 C2002 1.419 . S
C2004 C2005 1.363 . S
C2004 H2007 0.929 . S
C2005 C2004 1.363 . S
C2005 C2011 1.428 . S
H2006 C2002 0.930 . S
H2007 C2004 0.929 . S
S2008 N2009 1.613 . S
S2008 N2010 1.610 . S
N2009 S2008 1.613 . S
N2009 C2012 1.350 . S
N2010 S2008 1.610 . S
N2010 C2011 1.351 . S
C2011 C2005 1.428 . S
C2011 N2010 1.351 . S
C2011 C2012 1.434 . S
C2012 C2003 1.429 . S
C2012 N2009 1.350 . S
C2012 C2011 1.434 . S
C2013 C2014 1.369 . S
C2013 C2015 1.419 . S
C2013 H2017 0.930 . S
C2014 C2013 1.369 . S
C2014 C2023 1.429 . S
C2015 C2013 1.419 . S
C2015 C2016 1.363 . S
C2015 H2018 0.929 . S
C2016 C2015 1.363 . S
C2016 C2022 1.428 . S
H2017 C2013 0.930 . S
H2018 C2015 0.929 . S
S2019 N2020 1.626 . S
S2019 N2021 1.610 1_545 S
N2020 S2019 1.626 . S
N2020 C2023 1.310 1_545 S
N2021 S2019 1.610 1_565 S
N2021 C2022 1.351 . S
C2022 C2016 1.428 . S
C2022 N2021 1.351 . S
C2022 C2023 1.434 . S
C2023 C2014 1.429 . S
C2023 N2020 1.310 1_565 S
C2023 C2022 1.434 . S
C2024 C2025 1.369 . S
C2024 C2026 1.419 . S
C2024 H2028 0.930 . S
C2025 C2024 1.369 . S
C2025 C2034 1.429 . S
C2026 C2024 1.419 . S
C2026 C2027 1.363 . S
C2026 H2029 0.929 . S
C2027 C2026 1.363 . S
C2027 C2033 1.428 . S
H2028 C2024 0.930 . S
H2029 C2026 0.929 . S
S2030 N2031 1.613 . S
S2030 N2032 1.610 . S
N2031 S2030 1.613 . S
N2031 C2034 1.350 . S
N2032 S2030 1.610 . S
N2032 C2033 1.351 . S
C2033 C2027 1.428 . S
C2033 N2032 1.351 . S
C2033 C2034 1.434 . S
C2034 C2025 1.429 . S
C2034 N2031 1.350 . S
C2034 C2033 1.434 . S
C2035 C2036 1.369 . S
C2035 C2037 1.419 . S
C2035 H2039 0.930 . S
C2036 C2035 1.369 . S
C2036 C2045 1.429 . S
C2037 C2035 1.419 . S
C2037 C2038 1.363 . S
C2037 H2040 0.929 . S
C2038 C2037 1.363 . S
C2038 C2044 1.428 . S
H2039 C2035 0.930 . S
H2040 C2037 0.929 . S
S2041 N2042 1.613 . S
S2041 N2043 1.610 . S
N2042 S2041 1.613 . S
N2042 C2045 1.350 . S
N2043 S2041 1.610 . S
N2043 C2044 1.351 . S
C2044 C2038 1.428 . S
C2044 N2043 1.351 . S
C2044 C2045 1.434 . S
C2045 C2036 1.429 . S
C2045 N2042 1.350 . S
C2045 C2044 1.434 . S
C2046 C2047 1.369 . S
C2046 C2048 1.419 . S
C2046 H2050 0.930 . S
C2047 C2046 1.369 . S
C2047 C2056 1.429 . S
C2048 C2046 1.419 . S
C2048 C2049 1.363 . S
C2048 H2051 0.929 . S
C2049 C2048 1.363 . S
C2049 C2055 1.428 . S
H2050 C2046 0.930 . S
H2051 C2048 0.929 . S
S2052 N2053 1.613 . S
S2052 N2054 1.610 . S
N2053 S2052 1.613 . S
N2053 C2056 1.350 . S
N2054 S2052 1.610 . S
N2054 C2055 1.351 . S
C2055 C2049 1.428 . S
C2055 N2054 1.351 . S
C2055 C2056 1.434 . S
C2056 C2047 1.429 . S
C2056 N2053 1.350 . S
C2056 C2055 1.434 . S
C2057 C2058 1.369 . S
C2057 C2059 1.419 . S
C2057 H2061 0.930 . S
C2058 C2057 1.369 . S
C2058 C2067 1.429 . S
C2059 C2057 1.419 . S
C2059 C2060 1.363 . S
C2059 H2062 0.929 . S
C2060 C2059 1.363 . S
C2060 C2066 1.428 . S
H2061 C2057 0.930 . S
H2062 C2059 0.929 . S
S2063 N2064 1.613 . S
S2063 N2065 1.610 . S
N2064 S2063 1.613 . S
N2064 C2067 1.350 . S
N2065 S2063 1.610 . S
N2065 C2066 1.351 . S
C2066 C2060 1.428 . S
C2066 N2065 1.351 . S
C2066 C2067 1.434 . S
C2067 C2058 1.429 . S
C2067 N2064 1.350 . S
C2067 C2066 1.434 . S
C2068 C2069 1.369 . S
C2068 C2070 1.419 . S
C2068 H2072 0.930 . S
C2069 C2068 1.369 . S
C2069 C2078 1.429 . S
C2070 C2068 1.419 . S
C2070 C2071 1.363 . S
C2070 H2073 0.929 . S
C2071 C2070 1.363 . S
C2071 C2077 1.428 . S
H2072 C2068 0.930 . S
H2073 C2070 0.929 . S
S2074 N2075 1.613 . S
S2074 N2076 1.610 . S
N2075 S2074 1.613 . S
N2075 C2078 1.350 . S
N2076 S2074 1.610 . S
N2076 C2077 1.351 . S
C2077 C2071 1.428 . S
C2077 N2076 1.351 . S
C2077 C2078 1.434 . S
C2078 C2069 1.429 . S
C2078 N2075 1.350 . S
C2078 C2077 1.434 . S
C2079 C2080 1.369 . S
C2079 C2081 1.419 . S
C2079 H2083 0.930 . S
C2080 C2079 1.369 . S
C2080 C2089 1.429 . S
C2081 C2079 1.419 . S
C2081 C2082 1.363 . S
C2081 H2084 0.929 . S
C2082 C2081 1.363 . S
C2082 C2088 1.428 . S
H2083 C2079 0.930 . S
H2084 C2081 0.929 . S
S2085 N2086 1.613 . S
S2085 N2087 1.610 . S
N2086 S2085 1.613 . S
N2086 C2089 1.350 . S
N2087 S2085 1.610 . S
N2087 C2088 1.351 . S
C2088 C2082 1.428 . S
C2088 N2087 1.351 . S
C2088 C2089 1.434 . S
C2089 C2080 1.429 . S
C2089 N2086 1.350 . S
C2089 C2088 1.434 . S
C2090 C2091 1.369 . S
C2090 C2092 1.419 . S
C2090 H2094 0.930 . S
C2091 C2090 1.369 . S
C2091 C2100 1.429 . S
C2092 C2090 1.419 . S
C2092 C2093 1.363 . S
C2092 H2095 0.929 . S
C2093 C2092 1.363 . S
C2093 C2099 1.428 . S
H2094 C2090 0.930 . S
H2095 C2092 0.929 . S
S2096 N2097 1.613 . S
S2096 N2098 1.610 . S
N2097 S2096 1.613 . S
N2097 C2100 1.350 . S
N2098 S2096 1.610 . S
N2098 C2099 1.351 . S
C2099 C2093 1.428 . S
C2099 N2098 1.351 . S
C2099 C2100 1.434 . S
C2100 C2091 1.429 . S
C2100 N2097 1.350 . S
C2100 C2099 1.434 . S
C2101 C2102 1.369 . S
C2101 C2103 1.419 . S
C2101 H2105 0.930 . S
C2102 C2101 1.369 . S
C2102 C2111 1.429 . S
C2103 C2101 1.419 . S
C2103 C2104 1.363 . S
C2103 H2106 0.929 . S
C2104 C2103 1.363 . S
C2104 C2110 1.428 . S
H2105 C2101 0.930 . S
H2106 C2103 0.929 . S
S2107 N2108 1.613 . S
S2107 N2109 1.610 . S
N2108 S2107 1.613 . S
N2108 C2111 1.350 . S
N2109 S2107 1.610 . S
N2109 C2110 1.351 . S
C2110 C2104 1.428 . S
C2110 N2109 1.351 . S
C2110 C2111 1.434 . S
C2111 C2102 1.429 . S
C2111 N2108 1.350 . S
C2111 C2110 1.434 . S
C2112 C2113 1.369 . S
C2112 C2114 1.419 . S
C2112 H2116 0.930 . S
C2113 C2112 1.369 . S
C2113 C2122 1.429 . S
C2114 C2112 1.419 . S
C2114 C2115 1.363 . S
C2114 H2117 0.929 . S
C2115 C2114 1.363 . S
C2115 C2121 1.428 . S
H2116 C2112 0.930 . S
H2117 C2114 0.929 . S
S2118 N2119 1.613 . S
S2118 N2120 1.610 . S
N2119 S2118 1.613 . S
N2119 C2122 1.350 . S
N2120 S2118 1.610 . S
N2120 C2121 1.351 . S
C2121 C2115 1.428 . S
C2121 N2120 1.351 . S
C2121 C2122 1.434 . S
C2122 C2113 1.429 . S
C2122 N2119 1.350 . S
C2122 C2121 1.434 . S
C2123 C2124 1.369 . S
C2123 C2125 1.419 . S
C2123 H2127 0.930 . S
C2124 C2123 1.369 . S
C2124 C2133 1.429 . S
C2125 C2123 1.419 . S
C2125 C2126 1.363 . S
C2125 H2128 0.929 . S
C2126 C2125 1.363 . S
C2126 C2132 1.428 . S
H2127 C2123 0.930 . S
H2128 C2125 0.929 . S
S2129 N2130 1.613 . S
S2129 N2131 1.610 . S
N2130 S2129 1.613 . S
N2130 C2133 1.350 . S
N2131 S2129 1.610 . S
N2131 C2132 1.351 . S
C2132 C2126 1.428 . S
C2132 N2131 1.351 . S
C2132 C2133 1.434 . S
C2133 C2124 1.429 . S
C2133 N2130 1.350 . S
C2133 C2132 1.434 . S
C2134 C2135 1.369 . S
C2134 C2136 1.419 . S
C2134 H2138 0.930 . S
C2135 C2134 1.369 . S
C2135 C2144 1.429 . S
C2136 C2134 1.419 . S
C2136 C2137 1.363 . S
C2136 H2139 0.929 . S
C2137 C2136 1.363 . S
C2137 C2143 1.428 . S
H2138 C2134 0.930 . S
H2139 C2136 0.929 . S
S2140 N2141 1.613 . S
S2140 N2142 1.610 . S
N2141 S2140 1.613 . S
N2141 C2144 1.350 . S
N2142 S2140 1.610 . S
N2142 C2143 1.351 . S
C2143 C2137 1.428 . S
C2143 N2142 1.351 . S
C2143 C2144 1.434 . S
C2144 C2135 1.429 . S
C2144 N2141 1.350 . S
C2144 C2143 1.434 . S
C2145 C2146 1.369 . S
C2145 C2147 1.419 . S
C2145 H2149 0.930 . S
C2146 C2145 1.369 . S
C2146 C2155 1.429 . S
C2147 C2145 1.419 . S
C2147 C2148 1.363 . S
C2147 H2150 0.929 . S
C2148 C2147 1.363 . S
C2148 C2154 1.428 . S
H2149 C2145 0.930 . S
H2150 C2147 0.929 . S
S2151 N2152 1.613 . S
S2151 N2153 1.610 1_554 S
N2152 S2151 1.613 . S
N2152 C2155 1.350 1_554 S
N2153 S2151 1.610 1_556 S
N2153 C2154 1.351 . S
C2154 C2148 1.428 . S
C2154 N2153 1.351 . S
C2154 C2155 1.434 . S
C2155 C2146 1.429 . S
C2155 N2152 1.350 1_556 S
C2155 C2154 1.434 . S
C2156 C2157 1.369 . S
C2156 C2158 1.419 . S
C2156 H2160 0.930 . S
C2157 C2156 1.369 . S
C2157 C2166 1.429 . S
C2158 C2156 1.419 . S
C2158 C2159 1.363 . S
C2158 H2161 0.929 . S
C2159 C2158 1.363 . S
C2159 C2165 1.428 . S
H2160 C2156 0.930 . S
H2161 C2158 0.929 . S
S2162 N2163 1.613 . S
S2162 N2164 1.610 . S
N2163 S2162 1.613 . S
N2163 C2166 1.350 . S
N2164 S2162 1.610 . S
N2164 C2165 1.351 . S
C2165 C2159 1.428 . S
C2165 N2164 1.351 . S
C2165 C2166 1.434 . S
C2166 C2157 1.429 . S
C2166 N2163 1.350 . S
C2166 C2165 1.434 . S
C2167 C2168 1.369 . S
C2167 C2169 1.419 . S
C2167 H2171 0.930 . S
C2168 C2167 1.369 . S
C2168 C2177 1.429 . S
C2169 C2167 1.419 . S
C2169 C2170 1.363 . S
C2169 H2172 0.929 . S
C2170 C2169 1.363 . S
C2170 C2176 1.428 . S
H2171 C2167 0.930 . S
H2172 C2169 0.929 . S
S2173 N2174 1.613 . S
S2173 N2175 1.610 1_545 S
N2174 S2173 1.613 . S
N2174 C2177 1.350 1_545 S
N2175 S2173 1.610 1_565 S
N2175 C2176 1.351 . S
C2176 C2170 1.428 . S
C2176 N2175 1.351 . S
C2176 C2177 1.434 . S
C2177 C2168 1.429 . S
C2177 N2174 1.350 1_565 S
C2177 C2176 1.434 . S
C2178 C2179 1.369 . S
C2178 C2180 1.419 . S
C2178 H2182 0.930 . S
C2179 C2178 1.369 . S
C2179 C2188 1.429 . S
C2180 C2178 1.419 . S
C2180 C2181 1.363 . S
C2180 H2183 0.929 . S
C2181 C2180 1.363 . S
C2181 C2187 1.428 . S
H2182 C2178 0.930 . S
H2183 C2180 0.929 . S
S2184 N2185 1.613 . S
S2184 N2186 1.610 . S
N2185 S2184 1.613 . S
N2185 C2188 1.350 . S
N2186 S2184 1.610 . S
N2186 C2187 1.351 . S
C2187 C2181 1.428 . S
C2187 N2186 1.351 . S
C2187 C2188 1.434 . S
C2188 C2179 1.429 . S
C2188 N2185 1.350 . S
C2188 C2187 1.434 . S
C2189 C2190 1.369 . S
C2189 C2191 1.419 . S
C2189 H2193 0.930 . S
C2190 C2189 1.369 . S
C2190 C2199 1.429 . S
C2191 C2189 1.419 . S
C2191 C2192 1.363 . S
C2191 H2194 0.929 . S
C2192 C2191 1.363 . S
C2192 C2198 1.428 . S
H2193 C2189 0.930 . S
H2194 C2191 0.929 . S
S2195 N2196 1.613 . S
S2195 N2197 1.610 . S
N2196 S2195 1.613 . S
N2196 C2199 1.350 . S
N2197 S2195 1.610 . S
N2197 C2198 1.351 . S
C2198 C2192 1.428 . S
C2198 N2197 1.351 . S
C2198 C2199 1.434 . S
C2199 C2190 1.429 . S
C2199 N2196 1.350 . S
C2199 C2198 1.434 . S
C2200 C2201 1.369 . S
C2200 C2202 1.419 . S
C2200 H2204 0.930 . S
C2201 C2200 1.369 . S
C2201 C2210 1.429 . S
C2202 C2200 1.419 . S
C2202 C2203 1.363 . S
C2202 H2205 0.929 . S
C2203 C2202 1.363 . S
C2203 C2209 1.428 . S
H2204 C2200 0.930 . S
H2205 C2202 0.929 . S
S2206 N2207 1.613 . S
S2206 N2208 1.610 . S
N2207 S2206 1.613 . S
N2207 C2210 1.350 . S
N2208 S2206 1.610 . S
N2208 C2209 1.351 . S
C2209 C2203 1.428 . S
C2209 N2208 1.351 . S
C2209 C2210 1.434 . S
C2210 C2201 1.429 . S
C2210 N2207 1.350 . S
C2210 C2209 1.434 . S
C2211 C2212 1.369 . S
C2211 C2213 1.419 . S
C2211 H2215 0.930 . S
C2212 C2211 1.369 . S
C2212 C2221 1.429 . S
C2213 C2211 1.419 . S
C2213 C2214 1.363 . S
C2213 H2216 0.929 . S
C2214 C2213 1.363 . S
C2214 C2220 1.428 . S
H2215 C2211 0.930 . S
H2216 C2213 0.929 . S
S2217 N2218 1.613 . S
S2217 N2219 1.610 . S
N2218 S2217 1.613 . S
N2218 C2221 1.350 . S
N2219 S2217 1.610 . S
N2219 C2220 1.351 . S
C2220 C2214 1.428 . S
C2220 N2219 1.351 . S
C2220 C2221 1.434 . S
C2221 C2212 1.429 . S
C2221 N2218 1.350 . S
C2221 C2220 1.434 . S
C2222 C2223 1.369 . S
C2222 C2224 1.419 . S
C2222 H2226 0.930 . S
C2223 C2222 1.369 . S
C2223 C2232 1.429 . S
C2224 C2222 1.419 . S
C2224 C2225 1.363 . S
C2224 H2227 0.929 . S
C2225 C2224 1.363 . S
C2225 C2231 1.428 . S
H2226 C2222 0.930 . S
H2227 C2224 0.929 . S
S2228 N2229 1.613 . S
S2228 N2230 1.610 . S
N2229 S2228 1.613 . S
N2229 C2232 1.350 . S
N2230 S2228 1.610 . S
N2230 C2231 1.351 . S
C2231 C2225 1.428 . S
C2231 N2230 1.351 . S
C2231 C2232 1.434 . S
C2232 C2223 1.429 . S
C2232 N2229 1.350 . S
C2232 C2231 1.434 . S
C2233 C2234 1.369 . S
C2233 C2235 1.419 . S
C2233 H2237 0.930 . S
C2234 C2233 1.369 . S
C2234 C2243 1.429 . S
C2235 C2233 1.419 . S
C2235 C2236 1.363 . S
C2235 H2238 0.929 . S
C2236 C2235 1.363 . S
C2236 C2242 1.428 . S
H2237 C2233 0.930 . S
H2238 C2235 0.929 . S
S2239 N2240 1.613 . S
S2239 N2241 1.610 . S
N2240 S2239 1.613 . S
N2240 C2243 1.350 . S
N2241 S2239 1.610 . S
N2241 C2242 1.351 . S
C2242 C2236 1.428 . S
C2242 N2241 1.351 . S
C2242 C2243 1.434 . S
C2243 C2234 1.429 . S
C2243 N2240 1.350 . S
C2243 C2242 1.434 . S
C2244 C2245 1.369 . S
C2244 C2246 1.419 . S
C2244 H2248 0.930 . S
C2245 C2244 1.369 . S
C2245 C2254 1.429 . S
C2246 C2244 1.419 . S
C2246 C2247 1.363 . S
C2246 H2249 0.929 . S
C2247 C2246 1.363 . S
C2247 C2253 1.428 . S
H2248 C2244 0.930 . S
H2249 C2246 0.929 . S
S2250 N2251 1.613 . S
S2250 N2252 1.610 . S
N2251 S2250 1.613 . S
N2251 C2254 1.350 . S
N2252 S2250 1.610 . S
N2252 C2253 1.351 . S
C2253 C2247 1.428 . S
C2253 N2252 1.351 . S
C2253 C2254 1.434 . S
C2254 C2245 1.429 . S
C2254 N2251 1.350 . S
C2254 C2253 1.434 . S
C2255 C2256 1.369 . S
C2255 C2257 1.419 . S
C2255 H2259 0.930 . S
C2256 C2255 1.369 . S
C2256 C2265 1.429 . S
C2257 C2255 1.419 . S
C2257 C2258 1.363 . S
C2257 H2260 0.929 . S
C2258 C2257 1.363 . S
C2258 C2264 1.428 . S
H2259 C2255 0.930 . S
H2260 C2257 0.929 . S
S2261 N2262 1.613 . S
S2261 N2263 1.610 . S
N2262 S2261 1.613 . S
N2262 C2265 1.350 . S
N2263 S2261 1.610 . S
N2263 C2264 1.351 . S
C2264 C2258 1.428 . S
C2264 N2263 1.351 . S
C2264 C2265 1.434 . S
C2265 C2256 1.429 . S
C2265 N2262 1.350 . S
C2265 C2264 1.434 . S
C2266 C2267 1.369 . S
C2266 C2268 1.419 . S
C2266 H2270 0.930 . S
C2267 C2266 1.369 . S
C2267 C2276 1.429 . S
C2268 C2266 1.419 . S
C2268 C2269 1.363 . S
C2268 H2271 0.929 . S
C2269 C2268 1.363 . S
C2269 C2275 1.428 . S
H2270 C2266 0.930 . S
H2271 C2268 0.929 . S
S2272 N2273 1.613 . S
S2272 N2274 1.610 . S
N2273 S2272 1.613 . S
N2273 C2276 1.350 . S
N2274 S2272 1.610 . S
N2274 C2275 1.351 . S
C2275 C2269 1.428 . S
C2275 N2274 1.351 . S
C2275 C2276 1.434 . S
C2276 C2267 1.429 . S
C2276 N2273 1.350 . S
C2276 C2275 1.434 . S
C2277 C2278 1.369 . S
C2277 C2279 1.419 . S
C2277 H2281 0.930 . S
C2278 C2277 1.369 . S
C2278 C2287 1.429 . S
C2279 C2277 1.419 . S
C2279 C2280 1.363 . S
C2279 H2282 0.929 . S
C2280 C2279 1.363 . S
C2280 C2286 1.428 . S
H2281 C2277 0.930 . S
H2282 C2279 0.929 . S
S2283 N2284 1.613 . S
S2283 N2285 1.610 . S
N2284 S2283 1.613 . S
N2284 C2287 1.350 . S
N2285 S2283 1.610 . S
N2285 C2286 1.351 . S
C2286 C2280 1.428 . S
C2286 N2285 1.351 . S
C2286 C2287 1.434 . S
C2287 C2278 1.429 . S
C2287 N2284 1.350 . S
C2287 C2286 1.434 . S
C2288 C2289 1.369 . S
C2288 C2290 1.419 . S
C2288 H2292 0.930 . S
C2289 C2288 1.369 . S
C2289 C2298 1.429 . S
C2290 C2288 1.419 . S
C2290 C2291 1.363 . S
C2290 H2293 0.929 . S
C2291 C2290 1.363 . S
C2291 C2297 1.428 . S
H2292 C2288 0.930 . S
H2293 C2290 0.929 . S
S2294 N2295 1.613 . S
S2294 N2296 1.610 . S
N2295 S2294 1.613 . S
N2295 C2298 1.350 . S
N2296 S2294 1.610 . S
N2296 C2297 1.351 . S
C2297 C2291 1.428 . S
C2297 N2296 1.351 . S
C2297 C2298 1.434 . S
C2298 C2289 1.429 . S
C2298 N2295 1.350 . S
C2298 C2297 1.434 . S
C2299 C2300 1.369 . S
C2299 C2301 1.419 . S
C2299 H2303 0.930 . S
C2300 C2299 1.369 . S
C2300 C2309 1.429 . S
C2301 C2299 1.419 . S
C2301 C2302 1.363 . S
C2301 H2304 0.929 . S
C2302 C2301 1.363 . S
C2302 C2308 1.428 . S
H2303 C2299 0.930 . S
H2304 C2301 0.929 . S
S2305 N2306 1.613 . S
S2305 N2307 1.610 . S
N2306 S2305 1.613 . S
N2306 C2309 1.350 . S
N2307 S2305 1.610 . S
N2307 C2308 1.351 . S
C2308 C2302 1.428 . S
C2308 N2307 1.351 . S
C2308 C2309 1.434 . S
C2309 C2300 1.429 . S
C2309 N2306 1.350 . S
C2309 C2308 1.434 . S
C2310 C2311 1.369 . S
C2310 C2312 1.419 . S
C2310 H2314 0.930 . S
C2311 C2310 1.369 . S
C2311 C2320 1.429 . S
C2312 C2310 1.419 . S
C2312 C2313 1.363 . S
C2312 H2315 0.929 . S
C2313 C2312 1.363 . S
C2313 C2319 1.428 . S
H2314 C2310 0.930 . S
H2315 C2312 0.929 . S
S2316 N2317 1.613 . S
S2316 N2318 1.610 . S
N2317 S2316 1.613 . S
N2317 C2320 1.350 . S
N2318 S2316 1.610 . S
N2318 C2319 1.351 . S
C2319 C2313 1.428 . S
C2319 N2318 1.351 . S
C2319 C2320 1.434 . S
C2320 C2311 1.429 . S
C2320 N2317 1.350 . S
C2320 C2319 1.434 . S
C2321 C2322 1.369 . S
C2321 C2323 1.419 . S
C2321 H2325 0.930 . S
C2322 C2321 1.369 . S
C2322 C2331 1.429 . S
C2323 C2321 1.419 . S
C2323 C2324 1.363 . S
C2323 H2326 0.929 . S
C2324 C2323 1.363 . S
C2324 C2330 1.428 . S
H2325 C2321 0.930 . S
H2326 C2323 0.929 . S
S2327 N2328 1.613 . S
S2327 N2329 1.610 . S
N2328 S2327 1.613 . S
N2328 C2331 1.350 . S
N2329 S2327 1.610 . S
N2329 C2330 1.351 . S
C2330 C2324 1.428 . S
C2330 N2329 1.351 . S
C2330 C2331 1.434 . S
C2331 C2322 1.429 . S
C2331 N2328 1.350 . S
C2331 C2330 1.434 . S
C2332 C2333 1.369 . S
C2332 C2334 1.419 . S
C2332 H2336 0.930 . S
C2333 C2332 1.369 . S
C2333 C2342 1.429 . S
C2334 C2332 1.419 . S
C2334 C2335 1.363 . S
C2334 H2337 0.929 . S
C2335 C2334 1.363 . S
C2335 C2341 1.428 . S
H2336 C2332 0.930 . S
H2337 C2334 0.929 . S
S2338 N2339 1.613 . S
S2338 N2340 1.610 . S
N2339 S2338 1.613 . S
N2339 C2342 1.350 . S
N2340 S2338 1.610 . S
N2340 C2341 1.351 . S
C2341 C2335 1.428 . S
C2341 N2340 1.351 . S
C2341 C2342 1.434 . S
C2342 C2333 1.429 . S
C2342 N2339 1.350 . S
C2342 C2341 1.434 . S
C2343 C2344 1.369 . S
C2343 C2345 1.419 . S
C2343 H2347 0.930 . S
C2344 C2343 1.369 . S
C2344 C2353 1.429 . S
C2345 C2343 1.419 . S
C2345 C2346 1.363 . S
C2345 H2348 0.929 . S
C2346 C2345 1.363 . S
C2346 C2352 1.428 . S
H2347 C2343 0.930 . S
H2348 C2345 0.929 . S
S2349 N2350 1.613 . S
S2349 N2351 1.610 . S
N2350 S2349 1.613 . S
N2350 C2353 1.350 . S
N2351 S2349 1.610 . S
N2351 C2352 1.351 . S
C2352 C2346 1.428 . S
C2352 N2351 1.351 . S
C2352 C2353 1.434 . S
C2353 C2344 1.429 . S
C2353 N2350 1.350 . S
C2353 C2352 1.434 . S
C2354 C2355 1.369 . S
C2354 C2356 1.419 . S
C2354 H2358 0.930 . S
C2355 C2354 1.369 . S
C2355 C2364 1.429 . S
C2356 C2354 1.419 . S
C2356 C2357 1.363 . S
C2356 H2359 0.929 . S
C2357 C2356 1.363 . S
C2357 C2363 1.428 . S
H2358 C2354 0.930 . S
H2359 C2356 0.929 . S
S2360 N2361 1.613 . S
S2360 N2362 1.610 . S
N2361 S2360 1.613 . S
N2361 C2364 1.350 . S
N2362 S2360 1.610 . S
N2362 C2363 1.351 . S
C2363 C2357 1.428 . S
C2363 N2362 1.351 . S
C2363 C2364 1.434 . S
C2364 C2355 1.429 . S
C2364 N2361 1.350 . S
C2364 C2363 1.434 . S
C2365 C2366 1.369 . S
C2365 C2367 1.419 . S
C2365 H2369 0.930 . S
C2366 C2365 1.369 . S
C2366 C2375 1.429 . S
C2367 C2365 1.419 . S
C2367 C2368 1.363 . S
C2367 H2370 0.929 . S
C2368 C2367 1.363 . S
C2368 C2374 1.428 . S
H2369 C2365 0.930 . S
H2370 C2367 0.929 . S
S2371 N2372 1.613 . S
S2371 N2373 1.610 . S
N2372 S2371 1.613 . S
N2372 C2375 1.350 . S
N2373 S2371 1.610 . S
N2373 C2374 1.351 . S
C2374 C2368 1.428 . S
C2374 N2373 1.351 . S
C2374 C2375 1.434 . S
C2375 C2366 1.429 . S
C2375 N2372 1.350 . S
C2375 C2374 1.434 . S
C2376 C2377 1.369 . S
C2376 C2378 1.419 . S
C2376 H2380 0.930 . S
C2377 C2376 1.369 . S
C2377 C2386 1.429 . S
C2378 C2376 1.419 . S
C2378 C2379 1.363 . S
C2378 H2381 0.929 . S
C2379 C2378 1.363 . S
C2379 C2385 1.428 . S
H2380 C2376 0.930 . S
H2381 C2378 0.929 . S
S2382 N2383 1.613 1_655 S
S2382 N2384 1.610 1_655 S
N2383 S2382 1.613 1_455 S
N2383 C2386 1.350 . S
N2384 S2382 1.610 1_455 S
N2384 C2385 1.351 . S
C2385 C2379 1.428 . S
C2385 N2384 1.351 . S
C2385 C2386 1.434 . S
C2386 C2377 1.429 . S
C2386 N2383 1.350 . S
C2386 C2385 1.434 . S
C2387 C2388 1.369 . S
C2387 C2389 1.419 . S
C2387 H2391 0.930 . S
C2388 C2387 1.369 . S
C2388 C2397 1.429 . S
C2389 C2387 1.419 . S
C2389 C2390 1.363 . S
C2389 H2392 0.929 . S
C2390 C2389 1.363 . S
C2390 C2396 1.428 . S
H2391 C2387 0.930 . S
H2392 C2389 0.929 . S
S2393 N2394 1.613 . S
S2393 N2395 1.610 . S
N2394 S2393 1.613 . S
N2394 C2397 1.350 . S
N2395 S2393 1.610 . S
N2395 C2396 1.351 . S
C2396 C2390 1.428 . S
C2396 N2395 1.351 . S
C2396 C2397 1.434 . S
C2397 C2388 1.429 . S
C2397 N2394 1.350 . S
C2397 C2396 1.434 . S
C2398 C2399 1.369 . S
C2398 C2400 1.419 . S
C2398 H2402 0.930 . S
C2399 C2398 1.369 . S
C2399 C2408 1.429 . S
C2400 C2398 1.419 . S
C2400 C2401 1.363 . S
C2400 H2403 0.929 . S
C2401 C2400 1.363 . S
C2401 C2407 1.428 . S
H2402 C2398 0.930 . S
H2403 C2400 0.929 . S
S2404 N2405 1.613 . S
S2404 N2406 1.610 . S
N2405 S2404 1.613 . S
N2405 C2408 1.350 . S
N2406 S2404 1.610 . S
N2406 C2407 1.351 . S
C2407 C2401 1.428 . S
C2407 N2406 1.351 . S
C2407 C2408 1.434 . S
C2408 C2399 1.429 . S
C2408 N2405 1.350 . S
C2408 C2407 1.434 . S
C2409 C2410 1.369 . S
C2409 C2411 1.419 . S
C2409 H2413 0.930 . S
C2410 C2409 1.369 . S
C2410 C2419 1.429 . S
C2411 C2409 1.419 . S
C2411 C2412 1.363 . S
C2411 H2414 0.929 . S
C2412 C2411 1.363 . S
C2412 C2418 1.428 . S
H2413 C2409 0.930 . S
H2414 C2411 0.929 . S
S2415 N2416 1.613 . S
S2415 N2417 1.610 . S
N2416 S2415 1.613 . S
N2416 C2419 1.350 . S
N2417 S2415 1.610 . S
N2417 C2418 1.351 . S
C2418 C2412 1.428 . S
C2418 N2417 1.351 . S
C2418 C2419 1.434 . S
C2419 C2410 1.429 . S
C2419 N2416 1.350 . S
C2419 C2418 1.434 . S
C2420 C2421 1.369 . S
C2420 C2422 1.419 . S
C2420 H2424 0.930 . S
C2421 C2420 1.369 . S
C2421 C2430 1.429 . S
C2422 C2420 1.419 . S
C2422 C2423 1.363 . S
C2422 H2425 0.929 . S
C2423 C2422 1.363 . S
C2423 C2429 1.428 . S
H2424 C2420 0.930 . S
H2425 C2422 0.929 . S
S2426 N2427 1.613 . S
S2426 N2428 1.610 . S
N2427 S2426 1.613 . S
N2427 C2430 1.350 . S
N2428 S2426 1.610 . S
N2428 C2429 1.351 . S
C2429 C2423 1.428 . S
C2429 N2428 1.351 . S
C2429 C2430 1.434 . S
C2430 C2421 1.429 . S
C2430 N2427 1.350 . S
C2430 C2429 1.434 . S
C2431 C2432 1.369 . S
C2431 C2433 1.419 . S
C2431 H2435 0.930 . S
C2432 C2431 1.369 . S
C2432 C2441 1.429 . S
C2433 C2431 1.419 . S
C2433 C2434 1.363 . S
C2433 H2436 0.929 . S
C2434 C2433 1.363 . S
C2434 C2440 1.428 . S
H2435 C2431 0.930 . S
H2436 C2433 0.929 . S
S2437 N2438 1.613 . S
S2437 N2439 1.610 . S
N2438 S2437 1.613 . S
N2438 C2441 1.350 . S
N2439 S2437 1.610 . S
N2439 C2440 1.351 . S
C2440 C2434 1.428 . S
C2440 N2439 1.351 . S
C2440 C2441 1.434 . S
C2441 C2432 1.429 . S
C2441 N2438 1.350 . S
C2441 C2440 1.434 . S
C2442 C2443 1.369 . S
C2442 C2444 1.419 . S
C2442 H2446 0.930 . S
C2443 C2442 1.369 . S
C2443 C2452 1.429 . S
C2444 C2442 1.419 . S
C2444 C2445 1.363 . S
C2444 H2447 0.929 . S
C2445 C2444 1.363 . S
C2445 C2451 1.428 . S
H2446 C2442 0.930 . S
H2447 C2444 0.929 . S
S2448 N2449 1.613 . S
S2448 N2450 1.610 . S
N2449 S2448 1.613 . S
N2449 C2452 1.350 . S
N2450 S2448 1.610 . S
N2450 C2451 1.351 . S
C2451 C2445 1.428 . S
C2451 N2450 1.351 . S
C2451 C2452 1.434 . S
C2452 C2443 1.429 . S
C2452 N2449 1.350 . S
C2452 C2451 1.434 . S
C2453 C2454 1.369 . S
C2453 C2455 1.419 . S
C2453 H2457 0.930 . S
C2454 C2453 1.369 . S
C2454 C2463 1.429 . S
C2455 C2453 1.419 . S
C2455 C2456 1.363 . S
C2455 H2458 0.929 . S
C2456 C2455 1.363 . S
C2456 C2462 1.428 . S
H2457 C2453 0.930 . S
H2458 C2455 0.929 . S
S2459 N2460 1.613 1_455 S
S2459 N2461 1.610 1_455 S
N2460 S2459 1.613 1_655 S
N2460 C2463 1.350 . S
N2461 S2459 1.610 1_655 S
N2461 C2462 1.351 . S
C2462 C2456 1.428 . S
C2462 N2461 1.351 . S
C2462 C2463 1.434 . S
C2463 C2454 1.429 . S
C2463 N2460 1.350 . S
C2463 C2462 1.434 . S
C2464 C2465 1.369 . S
C2464 C2466 1.419 . S
C2464 H2468 0.930 . S
C2465 C2464 1.369 . S
C2465 C2474 1.429 . S
C2466 C2464 1.419 . S
C2466 C2467 1.363 . S
C2466 H2469 0.929 . S
C2467 C2466 1.363 . S
C2467 C2473 1.428 . S
H2468 C2464 0.930 . S
H2469 C2466 0.929 . S
S2470 N2471 1.613 . S
S2470 N2472 1.610 . S
N2471 S2470 1.613 . S
N2471 C2474 1.350 . S
N2472 S2470 1.610 . S
N2472 C2473 1.351 . S
C2473 C2467 1.428 . S
C2473 N2472 1.351 . S
C2473 C2474 1.434 . S
C2474 C2465 1.429 . S
C2474 N2471 1.350 . S
C2474 C2473 1.434 . S
C2475 C2476 1.369 . S
C2475 C2477 1.419 . S
C2475 H2479 0.930 . S
C2476 C2475 1.369 . S
C2476 C2485 1.429 . S
C2477 C2475 1.419 . S
C2477 C2478 1.363 . S
C2477 H2480 0.929 . S
C2478 C2477 1.363 . S
C2478 C2484 1.428 . S
H2479 C2475 0.930 . S
H2480 C2477 0.929 . S
S2481 N2482 1.613 . S
S2481 N2483 1.610 . S
N2482 S2481 1.613 . S
N2482 C2485 1.350 . S
N2483 S2481 1.610 . S
N2483 C2484 1.351 . S
C2484 C2478 1.428 . S
C2484 N2483 1.351 . S
C2484 C2485 1.434 . S
C2485 C2476 1.429 . S
C2485 N2482 1.350 . S
C2485 C2484 1.434 . S
C2486 C2487 1.369 . S
C2486 C2488 1.419 . S
C2486 H2490 0.930 . S
C2487 C2486 1.369 . S
C2487 C2496 1.429 . S
C2488 C2486 1.419 . S
C2488 C2489 1.363 . S
C2488 H2491 0.929 . S
C2489 C2488 1.363 . S
C2489 C2495 1.428 . S
H2490 C2486 0.930 . S
H2491 C2488 0.929 . S
S2492 N2493 1.613 . S
S2492 N2494 1.610 . S
N2493 S2492 1.613 . S
N2493 C2496 1.350 . S
N2494 S2492 1.610 . S
N2494 C2495 1.351 . S
C2495 C2489 1.428 . S
C2495 N2494 1.351 . S
C2495 C2496 1.434 . S
C2496 C2487 1.429 . S
C2496 N2493 1.350 . S
C2496 C2495 1.434 . S
C2497 C2498 1.369 . S
C2497 C2499 1.419 . S
C2497 H2501 0.930 . S
C2498 C2497 1.369 . S
C2498 C2507 1.429 . S
C2499 C2497 1.419 . S
C2499 C2500 1.363 . S
C2499 H2502 0.929 . S
C2500 C2499 1.363 . S
C2500 C2506 1.428 . S
H2501 C2497 0.930 . S
H2502 C2499 0.929 . S
S2503 N2504 1.613 . S
S2503 N2505 1.610 . S
N2504 S2503 1.613 . S
N2504 C2507 1.350 . S
N2505 S2503 1.610 . S
N2505 C2506 1.351 . S
C2506 C2500 1.428 . S
C2506 N2505 1.351 . S
C2506 C2507 1.434 . S
C2507 C2498 1.429 . S
C2507 N2504 1.350 . S
C2507 C2506 1.434 . S
C2508 C2509 1.369 . S
C2508 C2510 1.419 . S
C2508 H2512 0.930 . S
C2509 C2508 1.369 . S
C2509 C2518 1.429 . S
C2510 C2508 1.419 . S
C2510 C2511 1.363 . S
C2510 H2513 0.929 . S
C2511 C2510 1.363 . S
C2511 C2517 1.428 . S
H2512 C2508 0.930 . S
H2513 C2510 0.929 . S
S2514 N2515 1.613 . S
S2514 N2516 1.610 . S
N2515 S2514 1.613 . S
N2515 C2518 1.350 . S
N2516 S2514 1.610 . S
N2516 C2517 1.351 . S
C2517 C2511 1.428 . S
C2517 N2516 1.351 . S
C2517 C2518 1.434 . S
C2518 C2509 1.429 . S
C2518 N2515 1.350 . S
C2518 C2517 1.434 . S
C2519 C2520 1.369 . S
C2519 C2521 1.419 . S
C2519 H2523 0.930 . S
C2520 C2519 1.369 . S
C2520 C2529 1.429 . S
C2521 C2519 1.419 . S
C2521 C2522 1.363 . S
C2521 H2524 0.929 . S
C2522 C2521 1.363 . S
C2522 C2528 1.428 . S
H2523 C2519 0.930 . S
H2524 C2521 0.929 . S
S2525 N2526 1.613 . S
S2525 N2527 1.610 . S
N2526 S2525 1.613 . S
N2526 C2529 1.350 . S
N2527 S2525 1.610 . S
N2527 C2528 1.351 . S
C2528 C2522 1.428 . S
C2528 N2527 1.351 . S
C2528 C2529 1.434 . S
C2529 C2520 1.429 . S
C2529 N2526 1.350 . S
C2529 C2528 1.434 . S
C2530 C2531 1.369 . S
C2530 C2532 1.419 . S
C2530 H2534 0.930 . S
C2531 C2530 1.369 . S
C2531 C2540 1.429 . S
C2532 C2530 1.419 . S
C2532 C2533 1.363 . S
C2532 H2535 0.929 . S
C2533 C2532 1.363 . S
C2533 C2539 1.428 . S
H2534 C2530 0.930 . S
H2535 C2532 0.929 . S
S2536 N2537 1.613 1_565 S
S2536 N2538 1.610 1_565 S
N2537 S2536 1.613 1_545 S
N2537 C2540 1.350 . S
N2538 S2536 1.610 1_545 S
N2538 C2539 1.351 . S
C2539 C2533 1.428 . S
C2539 N2538 1.351 . S
C2539 C2540 1.434 . S
C2540 C2531 1.429 . S
C2540 N2537 1.350 . S
C2540 C2539 1.434 . S
C2541 C2542 1.369 . S
C2541 C2543 1.419 . S
C2541 H2545 0.930 . S
C2542 C2541 1.369 . S
C2542 C2551 1.429 . S
C2543 C2541 1.419 . S
C2543 C2544 1.363 . S
C2543 H2546 0.929 . S
C2544 C2543 1.363 . S
C2544 C2550 1.428 . S
H2545 C2541 0.930 . S
H2546 C2543 0.929 . S
S2547 N2548 1.613 . S
S2547 N2549 1.610 . S
N2548 S2547 1.613 . S
N2548 C2551 1.350 . S
N2549 S2547 1.610 . S
N2549 C2550 1.351 . S
C2550 C2544 1.428 . S
C2550 N2549 1.351 . S
C2550 C2551 1.434 . S
C2551 C2542 1.429 . S
C2551 N2548 1.350 . S
C2551 C2550 1.434 . S
C2552 C2553 1.369 . S
C2552 C2554 1.419 . S
C2552 H2556 0.930 . S
C2553 C2552 1.369 . S
C2553 C2562 1.429 . S
C2554 C2552 1.419 . S
C2554 C2555 1.363 . S
C2554 H2557 0.929 . S
C2555 C2554 1.363 . S
C2555 C2561 1.428 . S
H2556 C2552 0.930 . S
H2557 C2554 0.929 . S
S2558 N2559 1.613 1_556 S
S2558 N2560 1.610 1_556 S
N2559 S2558 1.613 1_554 S
N2559 C2562 1.350 . S
N2560 S2558 1.610 1_554 S
N2560 C2561 1.351 . S
C2561 C2555 1.428 . S
C2561 N2560 1.351 . S
C2561 C2562 1.434 . S
C2562 C2553 1.429 . S
C2562 N2559 1.350 . S
C2562 C2561 1.434 . S
C2563 C2564 1.369 . S
C2563 C2565 1.419 . S
C2563 H2567 0.930 . S
C2564 C2563 1.369 . S
C2564 C2573 1.429 . S
C2565 C2563 1.419 . S
C2565 C2566 1.363 . S
C2565 H2568 0.929 . S
C2566 C2565 1.363 . S
C2566 C2572 1.428 . S
H2567 C2563 0.930 . S
H2568 C2565 0.929 . S
S2569 N2570 1.613 . S
S2569 N2571 1.610 . S
N2570 S2569 1.613 . S
N2570 C2573 1.350 . S
N2571 S2569 1.610 . S
N2571 C2572 1.351 . S
C2572 C2566 1.428 . S
C2572 N2571 1.351 . S
C2572 C2573 1.434 . S
C2573 C2564 1.429 . S
C2573 N2570 1.350 . S
C2573 C2572 1.434 . S
C2574 C2575 1.369 . S
C2574 C2576 1.419 . S
C2574 H2578 0.930 . S
C2575 C2574 1.369 . S
C2575 C2584 1.429 . S
C2576 C2574 1.419 . S
C2576 C2577 1.363 . S
C2576 H2579 0.929 . S
C2577 C2576 1.363 . S
C2577 C2583 1.428 . S
H2578 C2574 0.930 . S
H2579 C2576 0.929 . S
S2580 N2581 1.613 . S
S2580 N2582 1.610 . S
N2581 S2580 1.613 . S
N2581 C2584 1.350 . S
N2582 S2580 1.610 . S
N2582 C2583 1.351 . S
C2583 C2577 1.428 . S
C2583 N2582 1.351 . S
C2583 C2584 1.434 . S
C2584 C2575 1.429 . S
C2584 N2581 1.350 . S
C2584 C2583 1.434 . S
C2585 C2586 1.369 . S
C2585 C2587 1.419 . S
C2585 H2589 0.930 . S
C2586 C2585 1.369 . S
C2586 C2595 1.429 . S
C2587 C2585 1.419 . S
C2587 C2588 1.363 . S
C2587 H2590 0.929 . S
C2588 C2587 1.363 . S
C2588 C2594 1.428 . S
H2589 C2585 0.930 . S
H2590 C2587 0.929 . S
S2591 N2592 1.613 . S
S2591 N2593 1.610 . S
N2592 S2591 1.613 . S
N2592 C2595 1.350 . S
N2593 S2591 1.610 . S
N2593 C2594 1.351 . S
C2594 C2588 1.428 . S
C2594 N2593 1.351 . S
C2594 C2595 1.434 . S
C2595 C2586 1.429 . S
C2595 N2592 1.350 . S
C2595 C2594 1.434 . S
C2596 C2597 1.369 . S
C2596 C2598 1.419 . S
C2596 H2600 0.930 . S
C2597 C2596 1.369 . S
C2597 C2606 1.429 . S
C2598 C2596 1.419 . S
C2598 C2599 1.363 . S
C2598 H2601 0.929 . S
C2599 C2598 1.363 . S
C2599 C2605 1.428 . S
H2600 C2596 0.930 . S
H2601 C2598 0.929 . S
S2602 N2603 1.613 . S
S2602 N2604 1.627 . S
N2603 S2602 1.613 . S
N2603 C2606 1.350 1_545 S
N2604 S2602 1.627 . S
N2604 C2605 1.331 1_545 S
C2605 C2599 1.428 . S
C2605 N2604 1.331 1_565 S
C2605 C2606 1.434 . S
C2606 C2597 1.429 . S
C2606 N2603 1.350 1_565 S
C2606 C2605 1.434 . S
C2607 C2608 1.369 . S
C2607 C2609 1.419 . S
C2607 H2611 0.930 . S
C2608 C2607 1.369 . S
C2608 C2617 1.429 . S
C2609 C2607 1.419 . S
C2609 C2610 1.363 . S
C2609 H2612 0.929 . S
C2610 C2609 1.363 . S
C2610 C2616 1.428 . S
H2611 C2607 0.930 . S
H2612 C2609 0.929 . S
S2613 N2614 1.613 . S
S2613 N2615 1.610 . S
N2614 S2613 1.613 . S
N2614 C2617 1.350 . S
N2615 S2613 1.610 . S
N2615 C2616 1.351 . S
C2616 C2610 1.428 . S
C2616 N2615 1.351 . S
C2616 C2617 1.434 . S
C2617 C2608 1.429 . S
C2617 N2614 1.350 . S
C2617 C2616 1.434 . S
C2618 C2619 1.369 . S
C2618 C2620 1.419 . S
C2618 H2622 0.930 . S
C2619 C2618 1.369 . S
C2619 C2628 1.429 . S
C2620 C2618 1.419 . S
C2620 C2621 1.363 . S
C2620 H2623 0.929 . S
C2621 C2620 1.363 . S
C2621 C2627 1.428 . S
H2622 C2618 0.930 . S
H2623 C2620 0.929 . S
S2624 N2625 1.613 . S
S2624 N2626 1.610 . S
N2625 S2624 1.613 . S
N2625 C2628 1.350 . S
N2626 S2624 1.610 . S
N2626 C2627 1.351 . S
C2627 C2621 1.428 . S
C2627 N2626 1.351 . S
C2627 C2628 1.434 . S
C2628 C2619 1.429 . S
C2628 N2625 1.350 . S
C2628 C2627 1.434 . S
C2629 C2630 1.369 . S
C2629 C2631 1.419 . S
C2629 H2633 0.930 . S
C2630 C2629 1.369 . S
C2630 C2639 1.429 . S
C2631 C2629 1.419 . S
C2631 C2632 1.363 . S
C2631 H2634 0.929 . S
C2632 C2631 1.363 . S
C2632 C2638 1.428 . S
H2633 C2629 0.930 . S
H2634 C2631 0.929 . S
S2635 N2636 1.613 . S
S2635 N2637 1.610 . S
N2636 S2635 1.613 . S
N2636 C2639 1.350 . S
N2637 S2635 1.610 . S
N2637 C2638 1.351 . S
C2638 C2632 1.428 . S
C2638 N2637 1.351 . S
C2638 C2639 1.434 . S
C2639 C2630 1.429 . S
C2639 N2636 1.350 . S
C2639 C2638 1.434 . S
C2640 C2641 1.369 . S
C2640 C2642 1.419 . S
C2640 H2644 0.930 . S
C2641 C2640 1.369 . S
C2641 C2650 1.429 . S
C2642 C2640 1.419 . S
C2642 C2643 1.363 . S
C2642 H2645 0.929 . S
C2643 C2642 1.363 . S
C2643 C2649 1.428 . S
H2644 C2640 0.930 . S
H2645 C2642 0.929 . S
S2646 N2647 1.613 . S
S2646 N2648 1.610 . S
N2647 S2646 1.613 . S
N2647 C2650 1.350 . S
N2648 S2646 1.610 . S
N2648 C2649 1.351 . S
C2649 C2643 1.428 . S
C2649 N2648 1.351 . S
C2649 C2650 1.434 . S
C2650 C2641 1.429 . S
C2650 N2647 1.350 . S
C2650 C2649 1.434 . S
C2651 C2652 1.369 . S
C2651 C2653 1.419 . S
C2651 H2655 0.930 . S
C2652 C2651 1.369 . S
C2652 C2661 1.429 . S
C2653 C2651 1.419 . S
C2653 C2654 1.363 . S
C2653 H2656 0.929 . S
C2654 C2653 1.363 . S
C2654 C2660 1.428 . S
H2655 C2651 0.930 . S
H2656 C2653 0.929 . S
S2657 N2658 1.613 . S
S2657 N2659 1.610 . S
N2658 S2657 1.613 . S
N2658 C2661 1.350 . S
N2659 S2657 1.610 . S
N2659 C2660 1.351 . S
C2660 C2654 1.428 . S
C2660 N2659 1.351 . S
C2660 C2661 1.434 . S
C2661 C2652 1.429 . S
C2661 N2658 1.350 . S
C2661 C2660 1.434 . S
C2662 C2663 1.369 . S
C2662 C2664 1.419 . S
C2662 H2666 0.930 . S
C2663 C2662 1.369 . S
C2663 C2672 1.429 . S
C2664 C2662 1.419 . S
C2664 C2665 1.363 . S
C2664 H2667 0.929 . S
C2665 C2664 1.363 . S
C2665 C2671 1.428 . S
H2666 C2662 0.930 . S
H2667 C2664 0.929 . S
S2668 N2669 1.613 . S
S2668 N2670 1.610 . S
N2669 S2668 1.613 . S
N2669 C2672 1.350 . S
N2670 S2668 1.610 . S
N2670 C2671 1.351 . S
C2671 C2665 1.428 . S
C2671 N2670 1.351 . S
C2671 C2672 1.434 . S
C2672 C2663 1.429 . S
C2672 N2669 1.350 . S
C2672 C2671 1.434 . S
C2673 C2674 1.369 . S
C2673 C2675 1.419 . S
C2673 H2677 0.930 . S
C2674 C2673 1.369 . S
C2674 C2683 1.429 . S
C2675 C2673 1.419 . S
C2675 C2676 1.363 . S
C2675 H2678 0.929 . S
C2676 C2675 1.363 . S
C2676 C2682 1.428 . S
H2677 C2673 0.930 . S
H2678 C2675 0.929 . S
S2679 N2680 1.613 . S
S2679 N2681 1.610 . S
N2680 S2679 1.613 . S
N2680 C2683 1.350 . S
N2681 S2679 1.610 . S
N2681 C2682 1.351 . S
C2682 C2676 1.428 . S
C2682 N2681 1.351 . S
C2682 C2683 1.434 . S
C2683 C2674 1.429 . S
C2683 N2680 1.350 . S
C2683 C2682 1.434 . S
C2684 C2685 1.369 . S
C2684 C2686 1.419 . S
C2684 H2688 0.930 . S
C2685 C2684 1.369 . S
C2685 C2694 1.429 . S
C2686 C2684 1.419 . S
C2686 C2687 1.363 . S
C2686 H2689 0.929 . S
C2687 C2686 1.363 . S
C2687 C2693 1.428 . S
H2688 C2684 0.930 . S
H2689 C2686 0.929 . S
S2690 N2691 1.613 . S
S2690 N2692 1.610 . S
N2691 S2690 1.613 . S
N2691 C2694 1.350 . S
N2692 S2690 1.610 . S
N2692 C2693 1.351 . S
C2693 C2687 1.428 . S
C2693 N2692 1.351 . S
C2693 C2694 1.434 . S
C2694 C2685 1.429 . S
C2694 N2691 1.350 . S
C2694 C2693 1.434 . S
C2695 C2696 1.369 . S
C2695 C2697 1.419 . S
C2695 H2699 0.930 . S
C2696 C2695 1.369 . S
C2696 C2705 1.429 . S
C2697 C2695 1.419 . S
C2697 C2698 1.363 . S
C2697 H2700 0.929 . S
C2698 C2697 1.363 . S
C2698 C2704 1.428 . S
H2699 C2695 0.930 . S
H2700 C2697 0.929 . S
S2701 N2702 1.613 . S
S2701 N2703 1.610 . S
N2702 S2701 1.613 . S
N2702 C2705 1.350 . S
N2703 S2701 1.610 . S
N2703 C2704 1.351 . S
C2704 C2698 1.428 . S
C2704 N2703 1.351 . S
C2704 C2705 1.434 . S
C2705 C2696 1.429 . S
C2705 N2702 1.350 . S
C2705 C2704 1.434 . S
C2706 C2707 1.369 . S
C2706 C2708 1.419 . S
C2706 H2710 0.930 . S
C2707 C2706 1.369 . S
C2707 C2716 1.429 . S
C2708 C2706 1.419 . S
C2708 C2709 1.363 . S
C2708 H2711 0.929 . S
C2709 C2708 1.363 . S
C2709 C2715 1.428 . S
H2710 C2706 0.930 . S
H2711 C2708 0.929 . S
S2712 N2713 1.613 . S
S2712 N2714 1.610 . S
N2713 S2712 1.613 . S
N2713 C2716 1.350 . S
N2714 S2712 1.610 . S
N2714 C2715 1.351 . S
C2715 C2709 1.428 . S
C2715 N2714 1.351 . S
C2715 C2716 1.434 . S
C2716 C2707 1.429 . S
C2716 N2713 1.350 . S
C2716 C2715 1.434 . S
C2717 C2718 1.369 . S
C2717 C2719 1.419 . S
C2717 H2721 0.930 . S
C2718 C2717 1.369 . S
C2718 C2727 1.429 . S
C2719 C2717 1.419 . S
C2719 C2720 1.363 . S
C2719 H2722 0.929 . S
C2720 C2719 1.363 . S
C2720 C2726 1.428 . S
H2721 C2717 0.930 . S
H2722 C2719 0.929 . S
S2723 N2724 1.613 . S
S2723 N2725 1.610 . S
N2724 S2723 1.613 . S
N2724 C2727 1.350 . S
N2725 S2723 1.610 . S
N2725 C2726 1.351 . S
C2726 C2720 1.428 . S
C2726 N2725 1.351 . S
C2726 C2727 1.434 . S
C2727 C2718 1.429 . S
C2727 N2724 1.350 . S
C2727 C2726 1.434 . S
C2728 C2729 1.369 . S
C2728 C2730 1.419 . S
C2728 H2732 0.930 . S
C2729 C2728 1.369 . S
C2729 C2738 1.429 . S
C2730 C2728 1.419 . S
C2730 C2731 1.363 . S
C2730 H2733 0.929 . S
C2731 C2730 1.363 . S
C2731 C2737 1.428 . S
H2732 C2728 0.930 . S
H2733 C2730 0.929 . S
S2734 N2735 1.613 . S
S2734 N2736 1.610 . S
N2735 S2734 1.613 . S
N2735 C2738 1.350 . S
N2736 S2734 1.610 . S
N2736 C2737 1.351 . S
C2737 C2731 1.428 . S
C2737 N2736 1.351 . S
C2737 C2738 1.434 . S
C2738 C2729 1.429 . S
C2738 N2735 1.350 . S
C2738 C2737 1.434 . S
C2739 C2740 1.369 . S
C2739 C2741 1.419 . S
C2739 H2743 0.930 . S
C2740 C2739 1.369 . S
C2740 C2749 1.429 . S
C2741 C2739 1.419 . S
C2741 C2742 1.363 . S
C2741 H2744 0.929 . S
C2742 C2741 1.363 . S
C2742 C2748 1.428 . S
H2743 C2739 0.930 . S
H2744 C2741 0.929 . S
S2745 N2746 1.613 . S
S2745 N2747 1.610 . S
N2746 S2745 1.613 . S
N2746 C2749 1.350 . S
N2747 S2745 1.610 . S
N2747 C2748 1.351 . S
C2748 C2742 1.428 . S
C2748 N2747 1.351 . S
C2748 C2749 1.434 . S
C2749 C2740 1.429 . S
C2749 N2746 1.350 . S
C2749 C2748 1.434 . S
C2750 C2751 1.369 . S
C2750 C2752 1.419 . S
C2750 H2754 0.930 . S
C2751 C2750 1.369 . S
C2751 C2760 1.429 . S
C2752 C2750 1.419 . S
C2752 C2753 1.363 . S
C2752 H2755 0.929 . S
C2753 C2752 1.363 . S
C2753 C2759 1.428 . S
H2754 C2750 0.930 . S
H2755 C2752 0.929 . S
S2756 N2757 1.613 . S
S2756 N2758 1.610 . S
N2757 S2756 1.613 . S
N2757 C2760 1.350 . S
N2758 S2756 1.610 . S
N2758 C2759 1.351 . S
C2759 C2753 1.428 . S
C2759 N2758 1.351 . S
C2759 C2760 1.434 . S
C2760 C2751 1.429 . S
C2760 N2757 1.350 . S
C2760 C2759 1.434 . S
C2761 C2762 1.369 . S
C2761 C2763 1.419 . S
C2761 H2765 0.930 . S
C2762 C2761 1.369 . S
C2762 C2771 1.429 . S
C2763 C2761 1.419 . S
C2763 C2764 1.363 . S
C2763 H2766 0.929 . S
C2764 C2763 1.363 . S
C2764 C2770 1.428 . S
H2765 C2761 0.930 . S
H2766 C2763 0.929 . S
S2767 N2768 1.613 . S
S2767 N2769 1.610 . S
N2768 S2767 1.613 . S
N2768 C2771 1.350 . S
N2769 S2767 1.610 . S
N2769 C2770 1.351 . S
C2770 C2764 1.428 . S
C2770 N2769 1.351 . S
C2770 C2771 1.434 . S
C2771 C2762 1.429 . S
C2771 N2768 1.350 . S
C2771 C2770 1.434 . S
C2772 C2773 1.369 . S
C2772 C2774 1.419 . S
C2772 H2776 0.930 . S
C2773 C2772 1.369 . S
C2773 C2782 1.429 . S
C2774 C2772 1.419 . S
C2774 C2775 1.363 . S
C2774 H2777 0.929 . S
C2775 C2774 1.363 . S
C2775 C2781 1.428 . S
H2776 C2772 0.930 . S
H2777 C2774 0.929 . S
S2778 N2779 1.613 . S
S2778 N2780 1.610 . S
N2779 S2778 1.613 . S
N2779 C2782 1.350 . S
N2780 S2778 1.610 . S
N2780 C2781 1.351 . S
C2781 C2775 1.428 . S
C2781 N2780 1.351 . S
C2781 C2782 1.434 . S
C2782 C2773 1.429 . S
C2782 N2779 1.350 . S
C2782 C2781 1.434 . S
C2783 C2784 1.369 . S
C2783 C2785 1.419 . S
C2783 H2787 0.930 . S
C2784 C2783 1.369 . S
C2784 C2793 1.429 . S
C2785 C2783 1.419 . S
C2785 C2786 1.363 . S
C2785 H2788 0.929 . S
C2786 C2785 1.363 . S
C2786 C2792 1.428 . S
H2787 C2783 0.930 . S
H2788 C2785 0.929 . S
S2789 N2790 1.613 . S
S2789 N2791 1.610 . S
N2790 S2789 1.613 . S
N2790 C2793 1.350 . S
N2791 S2789 1.610 . S
N2791 C2792 1.351 . S
C2792 C2786 1.428 . S
C2792 N2791 1.351 . S
C2792 C2793 1.434 . S
C2793 C2784 1.429 . S
C2793 N2790 1.350 . S
C2793 C2792 1.434 . S
C2794 C2795 1.369 . S
C2794 C2796 1.419 . S
C2794 H2798 0.930 . S
C2795 C2794 1.369 . S
C2795 C2804 1.429 . S
C2796 C2794 1.419 . S
C2796 C2797 1.363 . S
C2796 H2799 0.929 . S
C2797 C2796 1.363 . S
C2797 C2803 1.428 . S
H2798 C2794 0.930 . S
H2799 C2796 0.929 . S
S2800 N2801 1.613 . S
S2800 N2802 1.610 . S
N2801 S2800 1.613 . S
N2801 C2804 1.350 . S
N2802 S2800 1.610 . S
N2802 C2803 1.351 . S
C2803 C2797 1.428 . S
C2803 N2802 1.351 . S
C2803 C2804 1.434 . S
C2804 C2795 1.429 . S
C2804 N2801 1.350 . S
C2804 C2803 1.434 . S
C2805 C2806 1.369 . S
C2805 C2807 1.419 . S
C2805 H2809 0.930 . S
C2806 C2805 1.369 . S
C2806 C2815 1.429 . S
C2807 C2805 1.419 . S
C2807 C2808 1.363 . S
C2807 H2810 0.929 . S
C2808 C2807 1.363 . S
C2808 C2814 1.428 . S
H2809 C2805 0.930 . S
H2810 C2807 0.929 . S
S2811 N2812 1.613 . S
S2811 N2813 1.610 . S
N2812 S2811 1.613 . S
N2812 C2815 1.350 . S
N2813 S2811 1.610 . S
N2813 C2814 1.351 . S
C2814 C2808 1.428 . S
C2814 N2813 1.351 . S
C2814 C2815 1.434 . S
C2815 C2806 1.429 . S
C2815 N2812 1.350 . S
C2815 C2814 1.434 . S
C2816 C2817 1.369 . S
C2816 C2818 1.419 . S
C2816 H2820 0.930 . S
C2817 C2816 1.369 . S
C2817 C2826 1.429 . S
C2818 C2816 1.419 . S
C2818 C2819 1.363 . S
C2818 H2821 0.929 . S
C2819 C2818 1.363 . S
C2819 C2825 1.428 . S
H2820 C2816 0.930 . S
H2821 C2818 0.929 . S
S2822 N2823 1.613 . S
S2822 N2824 1.610 . S
N2823 S2822 1.613 . S
N2823 C2826 1.350 . S
N2824 S2822 1.610 . S
N2824 C2825 1.351 . S
C2825 C2819 1.428 . S
C2825 N2824 1.351 . S
C2825 C2826 1.434 . S
C2826 C2817 1.429 . S
C2826 N2823 1.350 . S
C2826 C2825 1.434 . S
C2827 C2828 1.369 . S
C2827 C2829 1.419 . S
C2827 H2831 0.930 . S
C2828 C2827 1.369 . S
C2828 C2837 1.429 . S
C2829 C2827 1.419 . S
C2829 C2830 1.363 . S
C2829 H2832 0.929 . S
C2830 C2829 1.363 . S
C2830 C2836 1.428 . S
H2831 C2827 0.930 . S
H2832 C2829 0.929 . S
S2833 N2834 1.613 . S
S2833 N2835 1.610 . S
N2834 S2833 1.613 . S
N2834 C2837 1.350 . S
N2835 S2833 1.610 . S
N2835 C2836 1.351 . S
C2836 C2830 1.428 . S
C2836 N2835 1.351 . S
C2836 C2837 1.434 . S
C2837 C2828 1.429 . S
C2837 N2834 1.350 . S
C2837 C2836 1.434 . S
C2838 C2839 1.369 . S
C2838 C2840 1.419 . S
C2838 H2842 0.930 . S
C2839 C2838 1.369 . S
C2839 C2848 1.429 . S
C2840 C2838 1.419 . S
C2840 C2841 1.363 . S
C2840 H2843 0.929 . S
C2841 C2840 1.363 . S
C2841 C2847 1.428 . S
H2842 C2838 0.930 . S
H2843 C2840 0.929 . S
S2844 N2845 1.613 . S
S2844 N2846 1.610 . S
N2845 S2844 1.613 . S
N2845 C2848 1.350 . S
N2846 S2844 1.610 . S
N2846 C2847 1.351 . S
C2847 C2841 1.428 . S
C2847 N2846 1.351 . S
C2847 C2848 1.434 . S
C2848 C2839 1.429 . S
C2848 N2845 1.350 . S
C2848 C2847 1.434 . S
C2849 C2850 1.369 . S
C2849 C2851 1.419 . S
C2849 H2853 0.930 . S
C2850 C2849 1.369 . S
C2850 C2859 1.429 . S
C2851 C2849 1.419 . S
C2851 C2852 1.363 . S
C2851 H2854 0.929 . S
C2852 C2851 1.363 . S
C2852 C2858 1.428 . S
H2853 C2849 0.930 . S
H2854 C2851 0.929 . S
S2855 N2856 1.613 . S
S2855 N2857 1.610 . S
N2856 S2855 1.613 . S
N2856 C2859 1.350 . S
N2857 S2855 1.610 . S
N2857 C2858 1.351 . S
C2858 C2852 1.428 . S
C2858 N2857 1.351 . S
C2858 C2859 1.434 . S
C2859 C2850 1.429 . S
C2859 N2856 1.350 . S
C2859 C2858 1.434 . S
C2860 C2861 1.369 . S
C2860 C2862 1.419 . S
C2860 H2864 0.930 . S
C2861 C2860 1.369 . S
C2861 C2870 1.429 . S
C2862 C2860 1.419 . S
C2862 C2863 1.363 . S
C2862 H2865 0.929 . S
C2863 C2862 1.363 . S
C2863 C2869 1.428 . S
H2864 C2860 0.930 . S
H2865 C2862 0.929 . S
S2866 N2867 1.613 . S
S2866 N2868 1.610 . S
N2867 S2866 1.613 . S
N2867 C2870 1.350 . S
N2868 S2866 1.610 . S
N2868 C2869 1.351 . S
C2869 C2863 1.428 . S
C2869 N2868 1.351 . S
C2869 C2870 1.434 . S
C2870 C2861 1.429 . S
C2870 N2867 1.350 . S
C2870 C2869 1.434 . S
C2871 C2872 1.369 . S
C2871 C2873 1.419 . S
C2871 H2875 0.930 . S
C2872 C2871 1.369 . S
C2872 C2881 1.429 . S
C2873 C2871 1.419 . S
C2873 C2874 1.363 . S
C2873 H2876 0.929 . S
C2874 C2873 1.363 . S
C2874 C2880 1.428 . S
H2875 C2871 0.930 . S
H2876 C2873 0.929 . S
S2877 N2878 1.613 . S
S2877 N2879 1.610 . S
N2878 S2877 1.613 . S
N2878 C2881 1.350 . S
N2879 S2877 1.610 . S
N2879 C2880 1.351 . S
C2880 C2874 1.428 . S
C2880 N2879 1.351 . S
C2880 C2881 1.434 . S
C2881 C2872 1.429 . S
C2881 N2878 1.350 . S
C2881 C2880 1.434 . S
C2882 C2883 1.369 . S
C2882 C2884 1.419 . S
C2882 H2886 0.930 . S
C2883 C2882 1.369 . S
C2883 C2892 1.429 . S
C2884 C2882 1.419 . S
C2884 C2885 1.363 . S
C2884 H2887 0.929 . S
C2885 C2884 1.363 . S
C2885 C2891 1.428 . S
H2886 C2882 0.930 . S
H2887 C2884 0.929 . S
S2888 N2889 1.613 . S
S2888 N2890 1.610 . S
N2889 S2888 1.613 . S
N2889 C2892 1.350 . S
N2890 S2888 1.610 . S
N2890 C2891 1.351 . S
C2891 C2885 1.428 . S
C2891 N2890 1.351 . S
C2891 C2892 1.434 . S
C2892 C2883 1.429 . S
C2892 N2889 1.350 . S
C2892 C2891 1.434 . S
C2893 C2894 1.369 . S
C2893 C2895 1.419 . S
C2893 H2897 0.930 . S
C2894 C2893 1.369 . S
C2894 C2903 1.429 . S
C2895 C2893 1.419 . S
C2895 C2896 1.363 . S
C2895 H2898 0.929 . S
C2896 C2895 1.363 . S
C2896 C2902 1.428 . S
H2897 C2893 0.930 . S
H2898 C2895 0.929 . S
S2899 N2900 1.613 . S
S2899 N2901 1.610 . S
N2900 S2899 1.613 . S
N2900 C2903 1.350 . S
N2901 S2899 1.610 . S
N2901 C2902 1.351 . S
C2902 C2896 1.428 . S
C2902 N2901 1.351 . S
C2902 C2903 1.434 . S
C2903 C2894 1.429 . S
C2903 N2900 1.350 . S
C2903 C2902 1.434 . S
C1585 C974 1.258 . S
C1587 C17 1.257 . S
C1596 C50 1.259 . S
C1598 C1007 1.258 . S
C1607 C83 1.249 . S
C1609 C1040 1.249 . S
C1618 C941 1.258 . S
C1620 C116 1.257 . S
C1629 C908 1.247 . S
C1631 C149 1.248 . S
C1640 C809 1.255 . S
C1642 C182 1.256 . S
C1651 C215 1.259 . S
C1653 C842 1.257 . S
C1662 C875 1.247 . S
C1664 C248 1.249 . S
C1673 C281 1.253 . S
C1675 C1568 1.252 . S
C1684 C710 1.247 . S
C1686 C314 1.249 . S
C1695 C347 1.249 . S
C1697 C1535 1.250 . S
C1706 C545 1.247 . S
C1708 C380 1.248 . S
C1717 C413 1.259 . S
C1719 C677 1.257 . S
C1728 C446 1.258 . S
C1730 C1370 1.257 . S
C1739 C479 1.258 . S
C1741 C1403 1.257 . S
C1750 C1436 1.256 . S
C1752 C512 1.254 . S
C1761 C578 1.257 . S
C1763 C1238 1.255 . S
C1772 C1271 1.254 . S
C1774 C611 1.254 . S
C1783 C644 1.250 . S
C1785 C1304 1.250 . S
C1794 C743 1.257 . S
C1796 C1139 1.255 . S
C1805 C1073 1.257 . S
C1807 C776 1.257 . S
C1816 C1106 1.249 . S
C1818 C1502 1.249 . S
C1827 C1172 1.256 . S
C1829 C1337 1.256 . S
C1838 C1469 1.247 . S
C1840 C1205 1.249 . S
C1849 C734 1.717 . S
C1851 C8 1.693 . S
C1860 C1328 1.694 . S
C1862 C41 1.691 . S
C1871 C767 1.690 . S
C1873 C74 1.694 . S
C1882 C1493 1.695 . S
C1884 C107 1.711 . S
C1893 C602 1.710 . S
C1895 C140 1.694 . S
C1904 C173 1.691 . S
C1906 C635 1.694 . S
C1915 C1460 1.695 . S
C1917 C206 1.688 . S
C1926 C569 1.687 . S
C1928 C239 1.694 . S
C1937 C437 1.722 . S
C1939 C272 1.693 . S
C1948 C305 1.711 . S
C1950 C470 1.694 . S
C1959 C503 1.695 . S
C1961 C338 1.689 . S
C1970 C404 1.695 . S
C1972 C371 1.689 . S
C1981 C536 1.687 . S
C1983 C833 1.722 . S
C1992 C668 1.695 . S
C1994 C998 1.688 . S
C2003 C701 1.693 . S
C2005 C899 1.688 . S
C2014 C800 1.695 . S
C2016 C1526 1.688 . S
C2025 C1559 1.688 . S
C2027 C866 1.694 . S
C2036 C1394 1.688 . S
C2038 C932 1.691 . S
C2047 C965 1.687 . S
C2049 C1427 1.694 . S
C2058 C1031 1.691 . S
C2060 C1361 1.693 . S
C2069 C1229 1.693 . S
C2071 C1064 1.688 . S
C2080 C1262 1.692 . S
C2082 C1097 1.688 . S
C2091 C1130 1.693 . S
C2093 C1295 1.688 . S
C2102 C1163 1.695 . S
C2104 C1196 1.688 . S
C2113 N236 0.690 . S
C2115 N5 0.713 . S
C2124 N137 0.685 . S
C2126 N38 0.705 . S
C2135 N170 0.686 . S
C2137 N71 0.698 . S
C2146 N203 0.708 . S
C2148 N104 0.689 . S
C2157 N269 0.716 . S
C2159 N665 0.709 . S
C2168 N1358 0.708 . S
C2170 N302 0.689 . S
C2179 N1391 0.695 . S
C2181 N335 0.715 . S
C2190 N368 0.696 . S
C2192 N1424 0.690 . S
C2201 N401 0.690 . S
C2203 N1556 0.713 . S
C2212 N434 0.685 . S
C2214 N698 0.704 . S
C2223 N1523 0.719 . S
C2225 N467 0.700 . S
C2234 N500 0.709 . S
C2236 N533 0.689 . S
C2245 N1094 0.718 . S
C2247 N566 0.696 . S
C2256 N599 0.686 . S
C2258 N1127 0.699 . S
C2267 N1160 0.697 . S
C2269 N632 0.690 . S
C2278 N731 0.695 . S
C2280 N1259 0.690 . S
C2289 N1193 0.696 . S
C2291 N764 0.690 . S
C2300 N1028 0.686 . S
C2302 N797 0.709 . S
C2311 N929 0.710 . S
C2313 N830 0.714 . S
C2322 N962 0.720 . S
C2324 N863 0.701 . S
C2333 N896 0.685 . S
C2335 N995 0.701 . S
C2344 N1061 0.685 . S
C2346 N1457 0.703 . S
C2355 N1490 0.708 . S
C2357 N1226 0.689 . S
C2366 N1325 0.709 . S
C2368 N1292 0.714 . S
C2377 N575 1.662 . S
C2379 C28 2.095 . S
C2388 C61 2.095 . S
C2390 N608 1.664 . S
C2399 C94 2.093 . S
C2401 N641 1.675 . S
C2410 C127 2.092 . S
C2412 N1466 1.674 . S
C2421 N1334 1.676 . S
C2423 C160 2.093 . S
C2432 N773 1.668 . S
C2434 C193 2.094 . S
C2443 N1499 1.665 . S
C2445 C226 2.094 . S
C2454 C259 2.094 . S
C2456 N740 1.671 . S
C2465 C292 2.093 . S
C2467 N1004 1.673 . S
C2476 N1037 1.677 . S
C2478 C325 2.092 . S
C2487 N938 1.665 . S
C2489 C358 2.095 . S
C2498 N971 1.673 . S
C2500 C391 2.093 . S
C2509 N872 1.676 . S
C2511 C424 2.093 . S
C2520 C457 2.093 . S
C2522 N905 1.676 . S
C2531 N806 1.663 . S
C2533 C490 2.095 . S
C2542 C523 2.095 . S
C2544 N839 1.667 . S
C2553 C556 2.095 . S
C2555 N344 1.666 . S
C2564 C589 2.095 . S
C2566 N1268 1.664 . S
C2575 C622 2.092 . S
C2577 N1301 1.672 . S
C2586 C655 2.093 . S
C2588 N1202 1.676 . S
C2597 N443 1.674 . S
C2599 C688 2.094 . S
C2608 N278 1.663 . S
C2610 C721 2.095 . S
C2619 C754 2.094 . S
C2621 N1103 1.667 . S
C2630 N1169 1.677 . S
C2632 C787 2.093 . S
C2641 C820 2.095 . S
C2643 N1367 1.666 . S
C2652 N1400 1.664 . S
C2654 C853 2.095 . S
C2663 C886 2.094 . S
C2665 N1433 1.668 . S
C2674 C919 2.094 . S
C2676 N674 1.665 . S
C2685 C952 2.094 . S
C2687 N542 1.669 . S
C2696 C985 2.094 . S
C2698 N1565 1.670 . S
C2707 C1018 2.094 . S
C2709 N707 1.672 . S
C2718 N1532 1.666 . S
C2720 C1051 2.095 . S
C2729 C1084 2.093 . S
C2731 N212 1.676 . S
C2740 C1117 2.093 . S
C2742 N245 1.671 . S
C2751 C1150 2.092 . S
C2753 N146 1.676 . S
C2762 N179 1.667 . S
C2764 C1183 2.094 . S
C2773 C1216 2.093 . S
C2775 N80 1.673 . S
C2784 N113 1.677 . S
C2786 C1249 2.093 . S
C2795 C1282 2.095 . S
C2797 N14 1.664 . S
C2806 C1315 2.094 . S
C2808 N47 1.673 . S
C2817 N1136 1.677 . S
C2819 C1348 2.093 . S
C2828 C1381 2.092 . S
C2830 N476 1.675 . S
C2839 N509 1.664 . S
C2841 C1414 2.094 . S
C2850 C1447 2.095 . S
C2852 N410 1.665 . S
C2861 N1235 1.678 . S
C2863 C1480 2.093 . S
C2872 N1070 1.677 . S
C2874 C1513 2.093 . S
C2883 N311 1.678 . S
C2885 C1546 2.093 . S
C2894 N377 1.664 . S
C2896 C1579 2.095 . S
