# Generated by pormake.
# Topology wkf, (6)-cn, num edge types: 1
# Building blocks:
#     Node 0, Type 0, BuildingBlock: KUMJIN_clean_sbu_1, # of connection points: 6
#     Node 1, Type 0, BuildingBlock: KUMJIN_clean_sbu_1, # of connection points: 6
#     Node 2, Type 0, BuildingBlock: KUMJIN_clean_sbu_1, # of connection points: 6
#     Node 3, Type 0, BuildingBlock: KUMJIN_clean_sbu_1, # of connection points: 6
#     Node 4, Type 0, BuildingBlock: KUMJIN_clean_sbu_1, # of connection points: 6
#     Node 5, Type 0, BuildingBlock: KUMJIN_clean_sbu_1, # of connection points: 6
#     Node 6, Type 0, BuildingBlock: KUMJIN_clean_sbu_1, # of connection points: 6
#     Node 7, Type 0, BuildingBlock: KUMJIN_clean_sbu_1, # of connection points: 6
#     Node 8, Type 0, BuildingBlock: KUMJIN_clean_sbu_1, # of connection points: 6
#     Node 9, Type 0, BuildingBlock: KUMJIN_clean_sbu_1, # of connection points: 6
#     Node 10, Type 0, BuildingBlock: KUMJIN_clean_sbu_1, # of connection points: 6
#     Node 11, Type 0, BuildingBlock: KUMJIN_clean_sbu_1, # of connection points: 6
#     Edge 12, Type (0, 0), BuildingBlock: EZIPEK_clean_linker_0, # of connection points: 2
#     Edge 13, Type (0, 0), BuildingBlock: EZIPEK_clean_linker_0, # of connection points: 2
#     Edge 14, Type (0, 0), BuildingBlock: EZIPEK_clean_linker_0, # of connection points: 2
#     Edge 15, Type (0, 0), BuildingBlock: EZIPEK_clean_linker_0, # of connection points: 2
#     Edge 16, Type (0, 0), BuildingBlock: EZIPEK_clean_linker_0, # of connection points: 2
#     Edge 17, Type (0, 0), BuildingBlock: EZIPEK_clean_linker_0, # of connection points: 2
#     Edge 18, Type (0, 0), BuildingBlock: EZIPEK_clean_linker_0, # of connection points: 2
#     Edge 19, Type (0, 0), BuildingBlock: EZIPEK_clean_linker_0, # of connection points: 2
#     Edge 20, Type (0, 0), BuildingBlock: EZIPEK_clean_linker_0, # of connection points: 2
#     Edge 21, Type (0, 0), BuildingBlock: EZIPEK_clean_linker_0, # of connection points: 2
#     Edge 22, Type (0, 0), BuildingBlock: EZIPEK_clean_linker_0, # of connection points: 2
#     Edge 23, Type (0, 0), BuildingBlock: EZIPEK_clean_linker_0, # of connection points: 2
#     Edge 24, Type (0, 0), BuildingBlock: EZIPEK_clean_linker_0, # of connection points: 2
#     Edge 25, Type (0, 0), BuildingBlock: EZIPEK_clean_linker_0, # of connection points: 2
#     Edge 26, Type (0, 0), BuildingBlock: EZIPEK_clean_linker_0, # of connection points: 2
#     Edge 27, Type (0, 0), BuildingBlock: EZIPEK_clean_linker_0, # of connection points: 2
#     Edge 28, Type (0, 0), BuildingBlock: EZIPEK_clean_linker_0, # of connection points: 2
#     Edge 29, Type (0, 0), BuildingBlock: EZIPEK_clean_linker_0, # of connection points: 2
#     Edge 30, Type (0, 0), BuildingBlock: EZIPEK_clean_linker_0, # of connection points: 2
#     Edge 31, Type (0, 0), BuildingBlock: EZIPEK_clean_linker_0, # of connection points: 2
#     Edge 32, Type (0, 0), BuildingBlock: EZIPEK_clean_linker_0, # of connection points: 2
#     Edge 33, Type (0, 0), BuildingBlock: EZIPEK_clean_linker_0, # of connection points: 2
#     Edge 34, Type (0, 0), BuildingBlock: EZIPEK_clean_linker_0, # of connection points: 2
#     Edge 35, Type (0, 0), BuildingBlock: EZIPEK_clean_linker_0, # of connection points: 2
#     Edge 36, Type (0, 0), BuildingBlock: EZIPEK_clean_linker_0, # of connection points: 2
#     Edge 37, Type (0, 0), BuildingBlock: EZIPEK_clean_linker_0, # of connection points: 2
#     Edge 38, Type (0, 0), BuildingBlock: EZIPEK_clean_linker_0, # of connection points: 2
#     Edge 39, Type (0, 0), BuildingBlock: EZIPEK_clean_linker_0, # of connection points: 2
#     Edge 40, Type (0, 0), BuildingBlock: EZIPEK_clean_linker_0, # of connection points: 2
#     Edge 41, Type (0, 0), BuildingBlock: EZIPEK_clean_linker_0, # of connection points: 2
#     Edge 42, Type (0, 0), BuildingBlock: EZIPEK_clean_linker_0, # of connection points: 2
#     Edge 43, Type (0, 0), BuildingBlock: EZIPEK_clean_linker_0, # of connection points: 2
#     Edge 44, Type (0, 0), BuildingBlock: EZIPEK_clean_linker_0, # of connection points: 2
#     Edge 45, Type (0, 0), BuildingBlock: EZIPEK_clean_linker_0, # of connection points: 2
#     Edge 46, Type (0, 0), BuildingBlock: EZIPEK_clean_linker_0, # of connection points: 2
#     Edge 47, Type (0, 0), BuildingBlock: EZIPEK_clean_linker_0, # of connection points: 2
# Relax obj value: 0.329
# Max RMSD: 0.291
# Mean RMSD: 0.280
data_MOF--net-wkf--node1-KUMJIN_clean_sbu_1--edge1-EZIPEK_clean_linker_0
_symmetry_space_group_name_H-M    P1
_symmetry_Int_Tables_number       1
_symmetry_cell_setting            triclinic
loop_
_symmetry_equiv_pos_as_xyz
'x, y, z'
_cell_length_a     23.085977
_cell_length_b     23.175834
_cell_length_c     70.095107
_cell_angle_alpha  89.961786
_cell_angle_beta   89.922382
_cell_angle_gamma 119.52167
loop_
_atom_site_label
_atom_site_type_symbol
_atom_site_fract_x
_atom_site_fract_y
_atom_site_fract_z
_atom_type_partial_charge
Eu0 Eu 0.41735 0.90349 0.3531 0.0
C1 C 0.68995 0.94965 0.35046 0.0
N2 N 0.66573 0.93614 0.36847 0.0
C3 C 0.75148 0.91204 0.37767 0.0
C4 C 0.74743 0.94645 0.34541 0.0
C5 C 0.69309 0.91358 0.38176 0.0
C6 C 0.77974 0.93025 0.35953 0.0
C7 C 0.67381 0.96843 0.31748 0.0
C8 C 0.65426 0.96187 0.33684 0.0
C9 C 0.73263 0.96822 0.31244 0.0
C10 C 0.76971 0.95773 0.32642 0.0
Eu11 Eu 0.57988 0.95962 0.37618 0.0
N12 N 0.59708 0.96077 0.34226 0.0
C13 C 0.63201 0.97163 0.30366 0.0
C14 C 0.55395 0.95802 0.32855 0.0
C15 C 0.57092 0.96453 0.3092 0.0
H16 H 0.67138 0.89929 0.39582 0.0
H17 H 0.53626 0.96283 0.29854 0.0
H18 H 0.44544 0.98472 0.31042 0.0
H19 H 0.21742 0.85215 0.4045 0.0
H20 H 0.5051 0.94741 0.33223 0.0
H21 H 0.64482 0.97604 0.28864 0.0
H22 H 0.29724 0.82879 0.38783 0.0
H23 H 0.77486 0.89737 0.38855 0.0
H24 H 0.74867 0.97393 0.29768 0.0
H25 H 0.814 0.95584 0.32229 0.0
H26 H 0.42054 0.06698 0.29577 0.0
H27 H 0.82555 0.93018 0.35647 0.0
H28 H 0.20273 0.946 0.39441 0.0
N29 N 0.39691 0.98085 0.33666 0.0
C30 C 0.35531 0.99738 0.34606 0.0
C31 C 0.40264 0.04839 0.30998 0.0
C32 C 0.3397 1.04394 0.33808 0.0
C33 C 0.41645 1.00174 0.31828 0.0
C34 C 0.36545 0.07072 0.3201 0.0
N35 N 0.33105 0.91155 0.36891 0.0
C36 C 0.29239 0.87065 0.38332 0.0
C37 C 0.27514 0.97572 0.37157 0.0
C38 C 0.32175 0.96205 0.36252 0.0
C39 C 0.23876 0.93674 0.38711 0.0
C40 C 0.24671 0.88346 0.39281 0.0
H41 H 0.35411 0.10617 0.31349 0.0
H42 H 0.28295 0.09447 0.34171 0.0
H43 H 0.22868 1.0372 0.37124 0.0
O44 O 0.31554 0.82617 0.34574 0.0
O45 O 0.42727 0.95857 0.38241 0.0
O46 O 0.53956 1.02222 0.38779 0.0
O47 O 0.38775 0.86513 0.32338 0.0
O48 O 0.39623 0.82976 0.37743 0.0
O49 O 0.49134 0.88406 0.39564 0.0
O50 O 0.67972 1.02959 0.38595 0.0
O51 O 0.54554 0.85062 0.37026 0.0
O52 O 0.47035 0.83409 0.34667 0.0
O53 O 0.60839 0.95889 0.40585 0.0
O54 O 0.59209 0.05975 0.36275 0.0
O55 O 0.49041 1.02323 0.34834 0.0
C56 C 0.47872 1.0078 0.39152 0.0
C57 C 0.27111 0.82323 0.31433 0.0
C58 C 0.18734 0.77648 0.28782 0.0
C59 C 0.16922 0.82467 0.29191 0.0
C60 C 0.24621 0.86621 0.31831 0.0
C61 C 0.19768 0.86828 0.30705 0.0
C62 C 0.23984 0.77645 0.299 0.0
C63 C 0.42783 0.83695 0.39366 0.0
C64 C 0.32496 0.82517 0.32741 0.0
C65 C 0.29559 0.05922 0.34764 0.0
C66 C 0.26404 1.0259 0.36441 0.0
C67 C 0.51045 0.81451 0.35572 0.0
C68 C 0.68179 0.06548 0.41769 0.0
C69 C 0.73883 0.18302 0.42471 0.0
C70 C 0.73017 0.16898 0.44431 0.0
C71 C 0.67451 0.05153 0.43733 0.0
C72 C 0.70992 0.13131 0.41153 0.0
C73 C 0.69659 0.10317 0.45056 0.0
C74 C 0.55093 0.0743 0.35294 0.0
C75 C 0.66569 1.01231 0.4038 0.0
H76 H 0.13051 0.82681 0.28372 0.0
H77 H 0.26258 0.8973 0.33059 0.0
H78 H 0.18068 0.90306 0.31045 0.0
H79 H 0.25497 0.73994 0.29609 0.0
H80 H 0.75229 0.20862 0.45469 0.0
H81 H 0.65251 1.00088 0.4424 0.0
H82 H 0.71691 0.14313 0.39643 0.0
H83 H 0.69086 0.09224 0.46569 0.0
Eu84 Eu 0.55703 0.39929 0.51936 0.0
C85 C 0.76063 0.69038 0.52341 0.0
N86 N 0.75596 0.65944 0.54019 0.0
C87 C 0.85969 0.75088 0.55047 0.0
C88 C 0.81445 0.75426 0.51969 0.0
C89 C 0.80584 0.68717 0.55336 0.0
C90 C 0.86319 0.78525 0.53374 0.0
C91 C 0.7264 0.68054 0.49047 0.0
C92 C 0.71656 0.65414 0.50911 0.0
C93 C 0.77612 0.74635 0.48708 0.0
C94 C 0.82011 0.78326 0.5017 0.0
Eu95 Eu 0.65684 0.55837 0.54563 0.0
N96 N 0.6719 0.58945 0.51271 0.0
C97 C 0.69016 0.63836 0.47552 0.0
C98 C 0.64156 0.54719 0.49788 0.0
C99 C 0.64942 0.57093 0.47916 0.0
H100 H 0.80306 0.66078 0.56635 0.0
H101 H 0.62435 0.53718 0.4675 0.0
H102 H 0.52117 0.43885 0.47566 0.0
H103 H 0.38385 0.1844 0.56249 0.0
H104 H 0.61165 0.49509 0.50034 0.0
H105 H 0.69665 0.65644 0.46097 0.0
H106 H 0.49332 0.26389 0.54905 0.0
H107 H 0.89839 0.7734 0.56112 0.0
H108 H 0.78355 0.76775 0.47292 0.0
H109 H 0.86057 0.83265 0.49864 0.0
H110 H 0.42225 0.42621 0.45842 0.0
H111 H 0.90524 0.83436 0.53144 0.0
H112 H 0.28263 0.18537 0.55156 0.0
N113 N 0.46685 0.38972 0.5007 0.0
C114 C 0.40532 0.35 0.50836 0.0
C115 C 0.41697 0.40551 0.47258 0.0
C116 C 0.34771 0.34212 0.49907 0.0
C117 C 0.47284 0.41249 0.48234 0.0
C118 C 0.35448 0.37235 0.48128 0.0
N119 N 0.45487 0.31173 0.53117 0.0
C120 C 0.44955 0.265 0.54414 0.0
C121 C 0.33571 0.26519 0.53134 0.0
C122 C 0.39935 0.31074 0.52419 0.0
C123 C 0.33064 0.22092 0.5457 0.0
C124 C 0.38762 0.21994 0.55184 0.0
H125 H 0.31131 0.36714 0.47368 0.0
H126 H 0.2404 0.29482 0.50027 0.0
H127 H 0.22972 0.22864 0.52875 0.0
O128 O 0.53688 0.29918 0.51141 0.0
O129 O 0.51353 0.39599 0.5496 0.0
O130 O 0.54928 0.50547 0.55518 0.0
O131 O 0.57554 0.37447 0.49005 0.0
O132 O 0.59461 0.37324 0.54671 0.0
O133 O 0.66475 0.47317 0.56118 0.0
O134 O 0.67155 0.6465 0.5609 0.0
O135 O 0.7393 0.53667 0.53551 0.0
O136 O 0.67901 0.45063 0.51455 0.0
O137 O 0.67954 0.56976 0.57604 0.0
O138 O 0.56781 0.56948 0.53293 0.0
O139 O 0.51196 0.4749 0.51488 0.0
C140 C 0.50863 0.44307 0.55887 0.0
C141 C 0.50177 0.26124 0.47933 0.0
C142 C 0.46926 0.1825 0.45182 0.0
C143 C 0.40251 0.16355 0.45549 0.0
C144 C 0.43375 0.23757 0.48249 0.0
C145 C 0.38511 0.1907 0.47061 0.0
C146 C 0.51962 0.23259 0.46377 0.0
C147 C 0.63512 0.40724 0.56086 0.0
C148 C 0.55133 0.31121 0.49336 0.0
C149 C 0.28489 0.30061 0.50709 0.0
C150 C 0.27889 0.26262 0.52326 0.0
C151 C 0.73892 0.49613 0.52215 0.0
C152 C 0.62064 0.6157 0.5914 0.0
C153 C 0.54682 0.65564 0.60215 0.0
C154 C 0.534 0.61913 0.61907 0.0
C155 C 0.60924 0.58054 0.60862 0.0
C156 C 0.58527 0.64902 0.58781 0.0
C157 C 0.56417 0.58032 0.62206 0.0
C158 C 0.51694 0.53229 0.52131 0.0
C159 C 0.67132 0.62108 0.57753 0.0
H160 H 0.36319 0.12584 0.44685 0.0
H161 H 0.41743 0.25367 0.4946 0.0
H162 H 0.33312 0.17398 0.47348 0.0
H163 H 0.57145 0.24759 0.4613 0.0
H164 H 0.50521 0.62466 0.63041 0.0
H165 H 0.63643 0.55501 0.61194 0.0
H166 H 0.59479 0.67805 0.57486 0.0
H167 H 0.5561 0.55359 0.63535 0.0
Eu168 Eu 0.20253 0.53418 0.6853 0.0
C169 C 0.10706 0.73329 0.68378 0.0
N170 N 0.12929 0.73208 0.70156 0.0
C171 C 0.13106 0.83442 0.70887 0.0
C172 C 0.09266 0.78346 0.67814 0.0
C173 C 0.14514 0.78408 0.71369 0.0
C174 C 0.10307 0.83322 0.69119 0.0
C175 C 0.09244 0.69448 0.65122 0.0
C176 C 0.10698 0.68942 0.67055 0.0
C177 C 0.07231 0.74032 0.64589 0.0
C178 C 0.07244 0.78485 0.65936 0.0
Eu179 Eu 0.14272 0.63924 0.70982 0.0
N180 N 0.12956 0.64784 0.67609 0.0
C181 C 0.10307 0.65678 0.6376 0.0
C182 C 0.1443 0.61491 0.66254 0.0
C183 C 0.1311 0.61838 0.64323 0.0
H184 H 0.16917 0.78784 0.72714 0.0
H185 H 0.14256 0.59136 0.6327 0.0
H186 H 0.11932 0.4809 0.64284 0.0
H187 H 0.25707 0.38163 0.73423 0.0
H188 H 0.16636 0.58588 0.66643 0.0
H189 H 0.09315 0.65965 0.62263 0.0
H190 H 0.28167 0.48431 0.71732 0.0
H191 H 0.14259 0.87457 0.71874 0.0
H192 H 1.06003 0.7441 0.6312 0.0
H193 H 1.06021 0.82232 0.65488 0.0
H194 H 1.03043 0.3759 0.62933 0.0
H195 H 0.09305 0.87279 0.68738 0.0
H196 H 0.15552 0.27653 0.72641 0.0
N197 N 0.12133 0.43746 0.66945 0.0
C198 C 0.1026 0.37983 0.67913 0.0
C199 C 1.04964 0.37655 0.64345 0.0
C200 C 1.05162 0.31903 0.67201 0.0
C201 C 0.10014 0.43577 0.65108 0.0
C202 C 1.02361 0.31839 0.65425 0.0
N203 N 0.19364 0.43849 0.70037 0.0
C204 C 0.23729 0.43888 0.71367 0.0
C205 C 0.12412 0.3205 0.70432 0.0
C206 C 0.1396 0.38042 0.695 0.0
C207 C 0.16592 0.32156 0.71893 0.0
C208 C 0.22344 0.38073 0.72334 0.0
H209 H 0.98445 0.27263 0.64829 0.0
H210 H 0.993 0.21358 0.67724 0.0
H211 H 1.05565 0.21475 0.70555 0.0
O212 O 0.28015 0.50997 0.67735 0.0
O213 O 0.16176 0.49724 0.71616 0.0
O214 O 0.08787 0.53479 0.72106 0.0
O215 O 0.24056 0.54461 0.65546 0.0
O216 O 0.2757 0.58382 0.70952 0.0
O217 O 0.23256 0.63984 0.72581 0.0
O218 O 0.0716 0.64801 0.72888 0.0
O219 O 0.24358 0.71934 0.69811 0.0
O220 O 0.27491 0.65552 0.68008 0.0
O221 O 0.17459 0.6884 0.73712 0.0
O222 O 1.04172 0.54709 0.6985 0.0
O223 O 0.08229 0.49054 0.68095 0.0
C224 C 0.10958 0.49394 0.72516 0.0
C225 C 0.28117 0.46957 0.64596 0.0
C226 C 0.32895 0.43264 0.6198 0.0
C227 C 0.28047 0.36698 0.62374 0.0
C228 C 0.23611 0.40252 0.64956 0.0
C229 C 0.2349 0.35219 0.63847 0.0
C230 C 0.32896 0.48469 0.63093 0.0
C231 C 0.27827 0.62084 0.72406 0.0
C232 C 0.2806 0.52119 0.65913 0.0
C233 C 1.03309 0.26032 0.6822 0.0
C234 C 0.06904 0.26103 0.69833 0.0
C235 C 0.28654 0.71644 0.68625 0.0
C236 C 0.09585 0.6419 0.76189 0.0
C237 C 1.01161 0.58729 0.7864 0.0
C238 C 1.05932 0.58851 0.79892 0.0
C239 C 0.14405 0.64568 0.7749 0.0
C240 C 1.02973 0.61258 0.76783 0.0
C241 C 0.12573 0.61849 0.79318 0.0
C242 C 1.02919 0.49536 0.68714 0.0
C243 C 0.1149 0.67245 0.74275 0.0
H244 H 0.27885 0.32649 0.61558 0.0
H245 H 0.20261 0.3883 0.6614 0.0
H246 H 0.19906 0.30099 0.64159 0.0
H247 H 0.36622 0.53571 0.6282 0.0
H248 H 1.04571 0.56929 0.81329 0.0
H249 H 0.19589 0.66953 0.77102 0.0
H250 H 0.99252 0.61245 0.75836 0.0
H251 H 0.16328 0.62139 0.80298 0.0
Eu252 Eu 0.7197 0.18968 0.85234 0.0
C253 C 0.44231 0.13434 0.84508 0.0
N254 N 0.46375 0.14883 0.86332 0.0
C255 C 0.37579 0.17211 0.87059 0.0
C256 C 0.38519 0.13641 0.83894 0.0
C257 C 0.433 0.16989 0.87594 0.0
C258 C 0.35105 0.15408 0.85209 0.0
C259 C 0.46325 0.11349 0.81272 0.0
C260 C 0.48077 0.12281 0.83224 0.0
C261 C 0.4043 0.1115 0.80669 0.0
C262 C 0.36533 0.12302 0.81979 0.0
Eu263 Eu 0.55306 0.13234 0.8724 0.0
N264 N 0.53897 0.12811 0.83846 0.0
C265 C 0.50755 0.11071 0.79967 0.0
C266 C 0.58477 0.13221 0.82545 0.0
C267 C 0.56945 0.12216 0.806 0.0
H268 H 0.45188 0.18375 0.89028 0.0
H269 H 0.60576 0.12456 0.79581 0.0
H270 H 0.69374 0.1151 0.80895 0.0
H271 H 0.91169 0.23143 0.90559 0.0
H272 H 0.63377 0.14533 0.82991 0.0
H273 H 0.4961 0.10361 0.78459 0.0
H274 H 0.82992 0.25311 0.8901 0.0
H275 H 0.35073 0.18746 0.88076 0.0
H276 H 0.38997 0.10396 0.79179 0.0
H277 H 0.32127 0.12379 0.81484 0.0
H278 H 0.73525 0.05226 0.7907 0.0
H279 H 0.30661 0.15551 0.84793 0.0
H280 H 0.94173 0.15246 0.89148 0.0
N281 N 0.74719 0.12019 0.8342 0.0
C282 C 0.7938 0.10796 0.84234 0.0
C283 C 0.75146 0.06693 0.80525 0.0
C284 C 0.81981 0.07325 0.8321 0.0
C285 C 0.72774 0.10222 0.81567 0.0
C286 C 0.79763 0.0524 0.81348 0.0
N287 N 0.80553 0.18024 0.8682 0.0
C288 C 0.83953 0.21618 0.88393 0.0
C289 C 0.87261 0.1269 0.86797 0.0
C290 C 0.82177 0.13669 0.86 0.0
C291 C 0.90322 0.15951 0.88488 0.0
C292 C 0.88692 0.20464 0.8928 0.0
H293 H 0.81771 1.02712 0.80508 0.0
H294 H 0.8921 1.03924 0.83228 0.0
H295 H 0.93452 0.08176 0.86406 0.0
O296 O 0.82073 0.27196 0.8473 0.0
O297 O 0.70498 0.13181 0.88145 0.0
O298 O 0.59238 0.0717 0.88581 0.0
O299 O 0.75465 0.23373 0.8234 0.0
O300 O 0.73771 0.25562 0.87809 0.0
O301 O 0.63492 0.21379 0.8922 0.0
O302 O 0.45454 0.05797 0.88242 0.0
O303 O 0.58632 0.24143 0.86666 0.0
O304 O 0.66614 0.25785 0.84444 0.0
O305 O 0.52316 0.13265 0.90187 0.0
O306 O 0.54673 1.03523 0.85803 0.0
O307 O 0.65272 0.07119 0.84664 0.0
C308 C 0.65175 0.08369 0.89034 0.0
C309 C 0.87379 0.28035 0.81695 0.0
C310 C 0.955 0.32539 0.78989 0.0
C311 C 0.98609 0.29111 0.79711 0.0
C312 C 0.91102 0.25206 0.82405 0.0
C313 C 0.96469 0.25544 0.81404 0.0
C314 C 0.89719 0.31868 0.79971 0.0
C315 C 0.70066 0.25448 0.8925 0.0
C316 C 0.81575 0.27443 0.82879 0.0
C317 C 0.87022 0.06394 0.84016 0.0
C318 C 0.89503 0.08888 0.85823 0.0
C319 C 0.62454 0.27755 0.85255 0.0
C320 C 0.46496 1.02282 0.91329 0.0
C321 C 0.4083 0.90658 0.9222 0.0
C322 C 0.45195 0.9203 0.93756 0.0
C323 C 0.50868 1.03658 0.92879 0.0
C324 C 0.4165 0.95744 0.90984 0.0
C325 C 0.50281 0.98529 0.94063 0.0
C326 C 0.59057 1.02079 0.84959 0.0
C327 C 0.46998 0.07504 0.90023 0.0
H328 H 1.02946 0.2946 0.79002 0.0
H329 H 0.90044 0.22893 0.8378 0.0
H330 H 0.99145 0.23199 0.81982 0.0
H331 H 0.87201 0.34421 0.79435 0.0
H332 H 0.44505 0.88153 0.94747 0.0
H333 H 0.54707 0.08663 0.93186 0.0
H334 H 0.38168 0.94626 0.89818 0.0
H335 H 0.53646 0.99629 0.95253 0.0
Eu336 Eu 0.57335 0.69137 0.02005 0.0
C337 C 0.34334 0.42803 0.01939 0.0
N338 N 0.35342 0.45719 0.03673 0.0
C339 C 0.24173 0.38038 0.04607 0.0
C340 C 0.28148 0.37296 0.01473 0.0
C341 C 0.30342 0.43556 0.04991 0.0
C342 C 0.23121 0.34822 0.02853 0.0
C343 C 0.38178 0.43151 0.98706 0.0
C344 C 0.39381 0.45613 1.00594 0.0
C345 C 0.32141 0.37449 0.98258 0.0
C346 C 0.27142 0.34505 0.99643 0.0
Eu347 Eu 0.46478 0.53128 0.0444 0.0
N348 N 0.45095 0.51239 1.01066 0.0
C349 C 0.42833 0.46797 0.97293 0.0
C350 C 0.49174 0.55157 0.99647 0.0
C351 C 0.4821 0.52962 0.97754 0.0
H352 H 0.31213 0.45946 0.06367 0.0
H353 H 0.51548 0.56086 0.96644 0.0
H354 H 0.62313 0.65677 0.97739 0.0
H355 H 0.7228 0.91576 0.06271 0.0
H356 H 0.52922 0.60098 0.99933 0.0
H357 H 0.42059 0.45143 0.95823 0.0
H358 H 0.61932 0.82619 0.04933 0.0
H359 H 0.20305 0.36201 0.05682 0.0
H360 H 0.31175 0.35458 0.96823 0.0
H361 H 0.22427 0.30232 0.99265 0.0
H362 H 0.72853 0.67744 0.96248 0.0
H363 H 0.18419 0.30467 0.02572 0.0
H364 H 0.83125 0.92821 0.05302 0.0
N365 N 0.66954 0.7103 1.00275 0.0
C366 C 0.72808 0.7535 1.01138 0.0
C367 C 0.729 0.69842 0.9763 0.0
C368 C 0.78943 0.76745 1.00306 0.0
C369 C 0.66948 0.68705 0.98475 0.0
C370 C 0.78906 0.73718 0.98575 0.0
N371 N 0.66772 0.78434 0.03303 0.0
C372 C 0.66588 0.82922 0.04534 0.0
C373 C 0.78779 0.84418 0.03381 0.0
C374 C 0.72721 0.79229 0.02666 0.0
C375 C 0.78579 0.88774 0.04729 0.0
C376 C 0.72468 0.88093 0.05279 0.0
H377 H 0.83514 0.74672 0.97898 0.0
H378 H 0.89655 0.82618 1.00514 0.0
H379 H 0.89533 0.89226 0.03222 0.0
O380 O 0.59051 0.79044 1.01188 0.0
O381 O 0.63169 0.66897 0.04432 0.0
O382 O 0.54935 0.59747 0.06412 0.0
O383 O 0.56317 0.7175 0.98997 0.0
O384 O 0.53326 0.71386 0.04777 0.0
O385 O 0.46652 0.61449 0.06351 0.0
O386 O 0.43734 0.42858 0.0498 0.0
O387 O 0.39057 0.56746 0.03723 0.0
O388 O 0.45149 0.6398 1.01331 0.0
O389 O 0.42894 0.48539 0.07257 0.0
O390 O 0.55731 0.52118 0.03254 0.0
O391 O 0.61941 0.61747 0.01555 0.0
C392 C 0.61285 0.63286 0.06034 0.0
C393 C 0.63109 0.83441 0.98039 0.0
C394 C 0.66388 0.92036 0.95457 0.0
C395 C 0.73051 0.93767 0.95767 0.0
C396 C 0.69913 0.85836 0.98332 0.0
C397 C 0.74781 0.90772 0.972 0.0
C398 C 0.61338 0.86732 0.96596 0.0
C399 C 0.49548 0.68036 0.06256 0.0
C400 C 0.58138 0.77967 0.99358 0.0
C401 C 0.84929 0.81525 1.01132 0.0
C402 C 0.84851 0.85334 0.02666 0.0
C403 C 0.39136 0.60209 0.02223 0.0
C404 C 0.44724 0.39656 0.08108 0.0
C405 C 0.49582 0.32579 0.08626 0.0
C406 C 0.48917 0.32974 0.10604 0.0
C407 C 0.44018 0.40004 0.10089 0.0
C408 C 0.4771 0.36105 0.07398 0.0
C409 C 0.46206 0.36749 0.11331 0.0
C410 C 0.61103 0.55864 0.02161 0.0
C411 C 0.42301 0.42883 0.06768 0.0
H412 H 0.76994 0.9762 0.94921 0.0
H413 H 0.71567 0.84049 0.99478 0.0
H414 H 0.79979 0.92379 0.97461 0.0
H415 H 0.56151 0.85258 0.96374 0.0
H416 H 0.50317 0.3023 0.11573 0.0
H417 H 0.41768 0.42763 0.10673 0.0
H418 H 0.48277 0.3575 0.05873 0.0
H419 H 0.45652 0.37021 0.12857 0.0
Eu420 Eu 0.93518 0.55401 0.1859 0.0
C421 C 1.01529 0.34311 0.18972 0.0
N422 N 0.99812 0.35373 0.2073 0.0
C423 C 0.99017 0.25203 0.21846 0.0
C424 C 1.02313 0.28748 0.18598 0.0
C425 C 0.98184 0.30719 0.22134 0.0
C426 C 1.01263 0.24304 0.20083 0.0
C427 C 1.02914 0.37069 0.15615 0.0
C428 C 1.01872 0.38447 0.17509 0.0
C429 C 1.04086 0.31775 0.15248 0.0
C430 C 1.03804 0.27627 0.16739 0.0
Eu431 Eu 0.99538 0.45378 0.21214 0.0
N432 N 1.00543 0.43413 0.17912 0.0
C433 C 1.02399 0.40828 0.14136 0.0
C434 C 0.99607 0.4676 0.16457 0.0
C435 C 1.00577 0.45587 0.14557 0.0
H436 H 0.96289 0.31253 0.2349 0.0
H437 H 0.99836 0.48288 0.13412 0.0
H438 H 1.01761 0.58869 0.14347 0.0
H439 H 0.87149 0.71707 0.22681 0.0
H440 H 0.97968 0.50226 0.16751 0.0
H441 H 1.03098 0.39893 0.12662 0.0
H442 H 0.85514 0.60975 0.21545 0.0
H443 H 0.97876 0.21624 0.22979 0.0
H444 H 1.04964 0.30698 0.13806 0.0
H445 H 1.04472 0.23411 0.16428 0.0
H446 H 0.09381 0.68758 0.12469 0.0
H447 H 1.01843 0.19991 0.19856 0.0
H448 H 0.96216 0.82132 0.21342 0.0
N449 N 1.00988 0.64388 0.16649 0.0
C450 C 1.02224 0.70468 0.17266 0.0
C451 C 0.07489 0.69315 0.13829 0.0
C452 C 0.06709 0.76265 0.16264 0.0
C453 C 1.03129 0.63718 0.14885 0.0
C454 C 0.09477 0.7562 0.14554 0.0
N455 N 0.93711 0.65222 0.19615 0.0
C456 C 0.89496 0.65459 0.20947 0.0
C457 C 0.99622 0.77154 0.19403 0.0
C458 C 0.98585 0.70897 0.18803 0.0
C459 C 0.95555 0.77421 0.20843 0.0
C460 C 0.90413 0.71549 0.21597 0.0
H461 H 0.12907 0.7995 0.1374 0.0
H462 H 0.11547 0.86994 0.16205 0.0
H463 H 1.05424 0.87778 0.18968 0.0
O464 O 0.86992 0.58709 0.17183 0.0
O465 O 0.96918 0.59394 0.21678 0.0
O466 O 1.04661 0.56132 0.22128 0.0
O467 O 0.87807 0.50544 0.16021 0.0
O468 O 0.86678 0.51178 0.21212 0.0
O469 O 0.90292 0.44756 0.2273 0.0
O470 O 0.07115 0.44579 0.22899 0.0
O471 O 0.89188 0.37189 0.20183 0.0
O472 O 0.86331 0.43333 0.18198 0.0
O473 O 0.97826 0.42615 0.24204 0.0
O474 O 0.09476 0.54244 0.19923 0.0
O475 O 1.05555 0.60043 0.18182 0.0
C476 C 1.0216 0.59901 0.22597 0.0
C477 C 0.85223 0.56774 0.13745 0.0
C478 C 0.80203 0.60271 0.1114 0.0
C479 C 0.84269 0.59323 0.09832 0.0
C480 C 0.88999 0.55773 0.12341 0.0
C481 C 0.88624 0.57157 0.10426 0.0
C482 C 0.80821 0.59123 0.13127 0.0
C483 C 0.86063 0.47058 0.22611 0.0
C484 C 0.8536 0.54529 0.15772 0.0
C485 C 0.08016 0.82495 0.16936 0.0
C486 C 1.0451 0.82938 0.18506 0.0
C487 C 0.8499 0.37325 0.18917 0.0
C488 C 0.07462 0.48444 0.26079 0.0
C489 C 0.17803 0.55398 0.27768 0.0
C490 C 0.14376 0.57007 0.29125 0.0
C491 C 1.04012 0.49859 0.27495 0.0
C492 C 0.14365 0.51287 0.26225 0.0
C493 C 0.0747 0.54168 0.28995 0.0
C494 C 0.10786 0.59441 0.188 0.0
C495 C 1.03887 0.43836 0.24497 0.0
H496 H 0.8395 0.60114 0.0832 0.0
H497 H 0.92132 0.53687 0.12703 0.0
H498 H 0.91591 0.5633 0.0938 0.0
H499 H 0.77694 0.59749 0.14164 0.0
H500 H 0.16968 0.60071 0.30342 0.0
H501 H 0.98643 0.47614 0.27455 0.0
H502 H 0.17053 0.49971 0.25202 0.0
H503 H 1.04761 0.55166 0.30086 0.0
Eu504 Eu 0.2004 0.69114 0.50159 0.0
C505 C 0.12333 0.40084 0.50452 0.0
N506 N 0.13935 0.42341 0.48639 0.0
C507 C 0.1446 0.32579 0.47773 0.0
C508 C 0.11464 0.33824 0.50982 0.0
C509 C 0.15378 0.38856 0.47329 0.0
C510 C 0.12315 0.29971 0.49595 0.0
C511 C 0.11255 0.42403 0.53754 0.0
C512 C 0.12176 0.443 0.51812 0.0
C513 C 0.0999 0.36034 0.54275 0.0
C514 C 0.10073 0.31738 0.52889 0.0
Eu515 Eu 0.14106 0.52426 0.47891 0.0
N516 N 0.13559 0.50476 0.51261 0.0
C517 C 0.11981 0.47073 0.55126 0.0
C518 C 0.14694 0.55141 0.52613 0.0
C519 C 0.1388 0.53517 0.54555 0.0
H520 H 0.17172 0.40843 0.45925 0.0
H521 H 0.14813 0.57249 0.55619 0.0
H522 H 0.12917 0.65614 0.54601 0.0
H523 H 0.22352 0.8874 0.45302 0.0
H524 H 0.16371 0.60159 0.5221 0.0
H525 H 0.11394 0.45844 0.56631 0.0
H526 H 0.25803 0.81206 0.46739 0.0
H527 H 0.15446 0.29776 0.46714 0.0
H528 H 0.09195 0.34479 0.55756 0.0
H529 H 0.09332 0.26927 0.53318 0.0
H530 H 1.04471 0.67096 0.56359 0.0
H531 H 0.11643 0.2512 0.49942 0.0
H532 H 0.12685 0.89281 0.46611 0.0
N533 N 0.12269 0.70405 0.52086 0.0
C534 C 0.10006 0.74324 0.51306 0.0
C535 C 1.05916 0.69071 0.54931 0.0
C536 C 1.05208 0.75334 0.52271 0.0
C537 C 0.10689 0.68228 0.53933 0.0
C538 C 1.03039 0.72494 0.54077 0.0
N539 N 0.17987 0.77291 0.48799 0.0
C540 C 0.21575 0.8139 0.47326 0.0
C541 C 0.10781 0.82066 0.48836 0.0
C542 C 0.12831 0.77725 0.49602 0.0
C543 C 0.14139 0.85916 0.47242 0.0
C544 C 0.19622 0.85653 0.46504 0.0
H545 H 0.9935 0.73152 0.54858 0.0
H546 H 0.99137 0.80059 0.52148 0.0
H547 H 1.03957 0.859 0.49141 0.0
O548 O 0.27842 0.79407 0.50695 0.0
O549 O 0.15096 0.68132 0.4714 0.0
O550 O 0.08244 0.57002 0.46771 0.0
O551 O 0.24703 0.72567 0.53022 0.0
O552 O 0.26541 0.71122 0.4753 0.0
O553 O 0.22809 0.60937 0.46142 0.0
O554 O 1.06435 0.43814 0.46347 0.0
O555 O 0.2457 0.54963 0.48836 0.0
O556 O 0.27317 0.64172 0.5071 0.0
O557 O 0.15811 0.50455 0.44979 0.0
O558 O 1.0432 0.51602 0.49281 0.0
O559 O 0.08256 0.61791 0.50716 0.0
C560 C 0.10025 0.63044 0.46263 0.0
C561 C 0.2864 0.84217 0.53801 0.0
C562 C 0.33406 0.92679 0.56419 0.0
C563 C 0.28586 0.94503 0.55995 0.0
C564 C 0.24309 0.86669 0.53393 0.0
C565 C 0.24174 0.91601 0.5449 0.0
C566 C 0.33345 0.87374 0.55324 0.0
C567 C 0.26944 0.6746 0.46154 0.0
C568 C 0.28413 0.78781 0.52524 0.0
C569 C 1.02898 0.79332 0.51442 0.0
C570 C 1.0565 0.82661 0.49727 0.0
C571 C 0.28741 0.59441 0.50047 0.0
C572 C 1.06137 0.46899 0.43124 0.0
C573 C 0.95967 0.43164 0.41298 0.0
C574 C 0.99196 0.48608 0.4007 0.0
C575 C 0.09381 0.52353 0.41875 0.0
C576 C 0.99422 0.42379 0.42828 0.0
C577 C 1.05918 0.53165 0.40357 0.0
C578 C 1.03085 0.55789 0.50298 0.0
C579 C 0.09658 0.45861 0.44732 0.0
H580 H 0.2833 0.98339 0.56812 0.0
H581 H 0.21083 0.84901 0.52186 0.0
H582 H 0.20666 0.93271 0.54149 0.0
H583 H 0.36946 0.85799 0.55638 0.0
H584 H 0.96606 0.49164 0.38858 0.0
H585 H 0.14585 0.55978 0.4206 0.0
H586 H 0.96907 0.38067 0.43749 0.0
H587 H 0.08494 0.57266 0.39378 0.0
Eu588 Eu 0.55712 0.17725 0.66873 0.0
C589 C 0.7764 0.10988 0.66847 0.0
N590 N 0.76525 0.12376 0.65053 0.0
C591 C 0.86985 0.13599 0.6402 0.0
C592 C 0.83432 0.1066 0.67289 0.0
C593 C 0.81251 0.14025 0.63666 0.0
C594 C 0.87997 0.1174 0.65829 0.0
C595 C 0.74548 0.09561 0.70184 0.0
C596 C 0.73205 0.10358 0.68265 0.0
C597 C 0.80161 0.08959 0.70625 0.0
C598 C 0.84579 0.09472 0.69178 0.0
Eu599 Eu 0.66084 0.11613 0.64459 0.0
N600 N 0.67874 0.11052 0.67789 0.0
C601 C 0.7036 0.09663 0.71609 0.0
C602 C 0.64075 0.11577 0.69188 0.0
C603 C 0.65175 0.10812 0.71109 0.0
H604 H 0.8055 0.15529 0.62267 0.0
H605 H 0.62071 0.11188 0.72205 0.0
H606 H 0.50728 0.07709 0.70873 0.0
H607 H 0.41237 0.26097 0.62639 0.0
H608 H 0.60289 0.12712 0.68827 0.0
H609 H 0.71239 0.09116 0.73099 0.0
H610 H 0.51485 0.26783 0.63873 0.0
H611 H 0.90616 0.14706 0.629 0.0
H612 H 0.81227 0.08281 0.72087 0.0
H613 H 0.88982 0.09171 0.69543 0.0
H614 H 0.40184 1.00008 0.72467 0.0
H615 H 0.92421 0.11366 0.66096 0.0
H616 H 0.30308 0.17538 0.6385 0.0
N617 N 0.46099 0.10211 0.68642 0.0
C618 C 0.40305 0.09682 0.67972 0.0
C619 C 0.40143 1.02659 0.712 0.0
C620 C 0.34154 0.0523 0.68836 0.0
C621 C 0.46112 0.07099 0.70309 0.0
C622 C 0.34132 1.01619 0.70439 0.0
N623 N 0.46458 0.18434 0.65733 0.0
C624 C 0.4678 0.22917 0.64404 0.0
C625 C 0.34493 0.13348 0.65811 0.0
C626 C 0.40481 0.13796 0.66475 0.0
C627 C 0.348 0.17744 0.64393 0.0
C628 C 0.40965 0.22591 0.63705 0.0
H629 H 0.29506 0.98153 0.71133 0.0
H630 H 0.23461 1.01149 0.68743 0.0
H631 H 0.23754 0.08208 0.66095 0.0
O632 O 0.5287 0.24735 0.68177 0.0
O633 O 0.50883 0.12771 0.63934 0.0
O634 O 0.55721 0.06417 0.63258 0.0
O635 O 0.59329 0.2211 0.69705 0.0
O636 O 0.60134 0.24314 0.64226 0.0
O637 O 0.66095 0.20083 0.62684 0.0
O638 O 0.67574 1.03915 0.63142 0.0
O639 O 0.74138 0.22179 0.65302 0.0
O640 O 0.67901 0.24918 0.67291 0.0
O641 O 0.68676 0.12216 0.61447 0.0
O642 O 0.57316 1.01873 0.65881 0.0
O643 O 0.50827 0.05827 0.67172 0.0
C644 C 0.51079 0.07953 0.62937 0.0
C645 C 0.5252 0.25077 0.71662 0.0
C646 C 0.48474 0.30068 0.74134 0.0
C647 C 0.47017 0.2465 0.75323 0.0
C648 C 0.51409 0.20102 0.72995 0.0
C649 C 0.48464 0.19747 0.74759 0.0
C650 C 0.51026 0.30138 0.72253 0.0
C651 C 0.63583 0.24144 0.62738 0.0
C652 C 0.5595 0.25289 0.69786 0.0
C653 C 0.28216 0.04622 0.68113 0.0
C654 C 0.28384 0.08648 0.66605 0.0
C655 C 0.73982 0.26328 0.66571 0.0
C656 C 0.62705 1.01616 0.60052 0.0
C657 C 0.55497 0.90295 0.58993 0.0
C658 C 0.53835 0.92623 0.57353 0.0
C659 C 0.61079 1.03933 0.58392 0.0
C660 C 0.59552 0.94802 0.60388 0.0
C661 C 0.56496 0.99446 0.57083 0.0
C662 C 0.5171 1.00629 0.66799 0.0
C663 C 0.67722 0.06194 0.61425 0.0
H664 H 0.45105 0.24411 0.76751 0.0
H665 H 0.5305 0.16568 0.72718 0.0
H666 H 0.47578 0.15782 0.75737 0.0
H667 H 0.52239 0.34297 0.71314 0.0
H668 H 0.50797 0.89214 0.56248 0.0
H669 H 0.63428 0.09182 0.58087 0.0
H670 H 0.60814 0.92931 0.61648 0.0
H671 H 0.55287 1.01269 0.55808 0.0
Eu672 Eu 0.42333 0.5433 0.83357 0.0
C673 C 0.68648 0.77533 0.83548 0.0
N674 N 0.6614 0.76092 0.81756 0.0
C675 C 0.73443 0.87244 0.80751 0.0
C676 C 0.73761 0.83954 0.84008 0.0
C677 C 0.68375 0.80825 0.80363 0.0
C678 C 0.76201 0.88775 0.82575 0.0
C679 C 0.68185 0.74177 0.86845 0.0
C680 C 0.65897 0.7265 0.84942 0.0
C681 C 0.73456 0.80506 0.87293 0.0
C682 C 0.76237 0.85385 0.85877 0.0
Eu683 Eu 0.58853 0.64875 0.81108 0.0
N684 N 0.60683 0.66607 0.84471 0.0
C685 C 0.64892 0.69418 0.88262 0.0
C686 C 0.57237 0.6217 0.8588 0.0
C687 C 0.59304 0.63442 0.87781 0.0
H688 H 0.66296 0.79605 0.78944 0.0
H689 H 0.56551 0.59807 0.88875 0.0
H690 H 0.44828 0.45364 0.86803 0.0
H691 H 0.19708 0.46158 0.78985 0.0
H692 H 0.52878 0.57666 0.8557 0.0
H693 H 0.66458 0.70411 0.89738 0.0
H694 H 0.29329 0.54319 0.80774 0.0
H695 H 0.75275 0.90964 0.79638 0.0
H696 H 0.75279 0.81738 0.88742 0.0
H697 H 0.80195 0.90295 0.86251 0.0
H698 H 0.39951 0.33685 0.87793 0.0
H699 H 0.80198 0.93681 0.82867 0.0
H700 H 0.15814 0.34262 0.79329 0.0
N701 N 0.38027 0.43328 0.84516 0.0
C702 C 0.32556 0.3864 0.83587 0.0
C703 C 0.37849 0.35001 0.86602 0.0
C704 C 0.29747 0.31867 0.8408 0.0
C705 C 0.40519 0.41618 0.86056 0.0
C706 C 0.32482 0.30099 0.85598 0.0
N707 N 0.318 0.47214 0.81909 0.0
C708 C 0.28079 0.49192 0.80859 0.0
C709 C 0.23613 0.35761 0.81311 0.0
C710 C 0.29448 0.40608 0.82229 0.0
C711 C 0.20261 0.37826 0.80073 0.0
C712 C 0.22436 0.44555 0.79878 0.0
H713 H 0.30348 0.24985 0.86045 0.0
H714 H 0.22025 0.21855 0.83437 0.0
H715 H 0.16709 0.25256 0.80995 0.0
O716 O 0.33135 0.52246 0.84924 0.0
O717 O 0.43884 0.48386 0.80865 0.0
O718 O 0.53561 0.55734 0.79317 0.0
O719 O 0.42496 0.56587 0.86423 0.0
O720 O 0.40726 0.59338 0.80734 0.0
O721 O 0.50579 0.64071 0.79039 0.0
O722 O 0.69192 0.67586 0.80625 0.0
O723 O 0.55108 0.72315 0.81556 0.0
O724 O 0.47568 0.66552 0.83915 0.0
O725 O 0.63316 0.67712 0.78269 0.0
O726 O 0.59823 0.56096 0.82569 0.0
O727 O 0.49148 0.49043 0.83553 0.0
C728 C 0.48365 0.49834 0.79472 0.0
C729 C 0.32499 0.50251 0.88361 0.0
C730 C 0.23456 0.46185 0.90833 0.0
C731 C 0.26586 0.43137 0.91779 0.0
C732 C 0.3561 0.47535 0.89481 0.0
C733 C 0.32592 0.43845 0.91118 0.0
C734 C 0.26376 0.49649 0.89077 0.0
C735 C 0.44098 0.62046 0.7915 0.0
C736 C 0.36041 0.54217 0.8658 0.0
C737 C 0.24158 0.27074 0.83096 0.0
C738 C 0.21133 0.29011 0.81705 0.0
C739 C 0.51574 0.72469 0.83009 0.0
C740 C 0.71158 0.64252 0.77625 0.0
C741 C 0.78132 0.59175 0.77363 0.0
C742 C 0.77043 0.58515 0.75386 0.0
C743 C 0.70076 0.63582 0.75645 0.0
C744 C 0.74884 0.61688 0.78482 0.0
C745 C 0.72908 0.60596 0.74538 0.0
C746 C 0.55382 0.50161 0.83276 0.0
C747 C 0.68837 0.67998 0.78786 0.0
H748 H 0.24582 0.40538 0.93113 0.0
H749 H 0.40528 0.48423 0.89135 0.0
H750 H 0.35087 0.4174 0.91932 0.0
H751 H 0.24108 0.52137 0.88339 0.0
H752 H 0.79542 0.56585 0.74499 0.0
H753 H 0.67157 0.6547 0.74951 0.0
H754 H 0.75792 0.62173 0.80006 0.0
H755 H 0.72102 0.60124 0.73012 0.0
Eu756 Eu 0.92649 0.39683 1.00054 0.0
C757 C 0.99686 0.68086 1.00793 0.0
N758 N 0.98043 0.66145 0.98958 0.0
C759 C 0.97254 0.75939 0.98326 0.0
C760 C 1.00457 0.74189 0.01448 0.0
C761 C 0.96412 0.69791 0.97759 0.0
C762 C 0.99466 0.78234 1.00165 0.0
C763 C 1.01008 0.65241 0.04018 0.0
C764 C 1.0 0.63692 0.02051 0.0
C765 C 1.02168 0.71455 0.04661 0.0
C766 C 1.01918 0.7594 0.03374 0.0
Eu767 Eu 0.98299 0.56417 0.97968 0.0
N768 N 0.98728 0.5768 1.01381 0.0
C769 C 1.00519 0.60395 0.05292 0.0
C770 C 0.9784 0.52851 0.02648 0.0
C771 C 0.98768 0.54116 0.04607 0.0
H772 H 0.94522 0.68059 0.96347 0.0
H773 H 0.98062 0.50229 0.05593 0.0
H774 H 1.00621 0.42305 0.04303 0.0
H775 H 0.87786 0.20531 0.94664 0.0
H776 H 0.96326 0.47991 0.02162 0.0
H777 H 1.01209 0.61363 0.06811 0.0
H778 H 0.85784 0.28693 0.96285 0.0
H779 H 0.96172 0.78891 0.97345 0.0
H780 H 1.03025 0.72743 0.06159 0.0
H781 H 1.02591 0.80631 0.03897 0.0
H782 H 0.07021 0.38049 0.06034 0.0
H783 H 1.00138 0.83005 1.00605 0.0
H784 H 0.95869 0.1756 0.95953 0.0
N785 N 0.99793 0.36941 0.01759 0.0
C786 C 1.00953 0.32332 1.00893 0.0
C787 C 1.05427 0.36481 0.04584 0.0
C788 C 1.04595 0.29775 0.01848 0.0
C789 C 1.01805 0.38879 0.03599 0.0
C790 C 0.06803 0.319 0.03707 0.0
N791 N 0.93288 0.31069 0.9841 0.0
C792 C 0.89533 0.27718 0.96856 0.0
C793 C 0.98688 0.24428 0.98316 0.0
C794 C 0.97759 0.29455 0.99164 0.0
C795 C 0.9521 0.21368 0.96651 0.0
C796 C 0.90585 0.22985 0.95929 0.0
H797 H 0.0932 0.29806 0.04512 0.0
H798 H 0.08119 0.22667 0.01717 0.0
H799 H 1.03414 0.18395 0.98582 0.0
O800 O 0.84784 0.29572 1.00751 0.0
O801 O 0.99183 0.41308 0.97261 0.0
O802 O 1.04301 0.52443 0.96564 0.0
O803 O 0.88588 0.36703 0.03013 0.0
O804 O 0.85673 0.3784 0.97559 0.0
O805 O 0.90537 0.47902 0.96024 0.0
O806 O 1.0576 0.65349 0.96501 0.0
O807 O 0.87583 0.53372 0.98699 0.0
O808 O 0.85398 0.44655 1.00707 0.0
O809 O 0.96164 0.59041 0.95192 0.0
O810 O 0.0809 0.57271 0.99402 0.0
O811 O 1.04488 0.46804 1.00634 0.0
C812 C 1.03734 0.46625 0.96292 0.0
C813 C 0.84263 0.25051 0.039 0.0
C814 C 0.79977 0.17442 0.06727 0.0
C815 C 0.83827 0.14613 0.06141 0.0
C816 C 0.87498 0.21555 0.03329 0.0
C817 C 0.87483 0.16604 0.04457 0.0
C818 C 0.80299 0.22823 0.05613 0.0
C819 C 0.86196 0.4144 0.9605 0.0
C820 C 0.84614 0.30471 0.02587 0.0
C821 C 1.05503 0.24812 1.00987 0.0
C822 C 1.02726 0.22293 0.99207 0.0
C823 C 0.83688 0.49123 0.9999 0.0
C824 C 1.05398 0.63506 0.93133 0.0
C825 C 0.15378 0.68065 0.91192 0.0
C826 C 0.11581 0.64872 0.89576 0.0
C827 C 1.01581 0.60278 0.9151 0.0
C828 C 0.12301 0.66999 0.92979 0.0
C829 C 1.04696 0.60806 0.89753 0.0
C830 C 0.09535 0.52978 1.00295 0.0
C831 C 1.02237 0.63793 0.94933 0.0
H832 H 0.83714 0.10557 0.06943 0.0
H833 H 0.89876 0.22447 0.01964 0.0
H834 H 0.90143 0.14108 0.03982 0.0
H835 H 0.77345 0.25066 0.06035 0.0
H836 H 0.13876 0.65797 0.88178 0.0
H837 H 0.96199 0.57519 0.91582 0.0
H838 H 0.15286 0.69611 0.94211 0.0
H839 H 1.01725 0.58387 0.88506 0.0
Eu840 Eu 0.57957 0.9185 0.17057 0.0
C841 C 0.37148 1.00405 0.16975 0.0
N842 N 0.37484 0.98144 0.15222 0.0
C843 C 0.26953 0.97282 0.14413 0.0
C844 C 0.31883 1.01577 0.17478 0.0
C845 C 0.32223 0.96136 0.13994 0.0
C846 C 0.2688 1.00201 0.16142 0.0
C847 C 0.40738 1.02007 0.2026 0.0
C848 C 0.41523 1.00623 0.18342 0.0
C849 C 0.35941 1.03824 0.2073 0.0
C850 C 0.31511 1.03613 0.19337 0.0
Eu851 Eu 0.47177 0.97321 0.14495 0.0
N852 N 0.45927 0.98592 0.17845 0.0
C853 C 0.44415 1.01014 0.2167 0.0
C854 C 0.49097 0.97136 0.19243 0.0
C855 C 0.48418 0.98327 0.21166 0.0
H856 H 0.31998 0.93608 0.12684 0.0
H857 H 0.50925 0.97119 0.22266 0.0
H858 H 0.61374 0.99326 0.21457 0.0
H859 H 0.75782 0.8812 0.12783 0.0
H860 H 0.521 0.94996 0.18888 0.0
H861 H 0.43883 1.01911 0.2316 0.0
H862 H 0.64777 0.84839 0.14172 0.0
H863 H 0.22904 0.95822 0.13411 0.0
H864 H 0.35359 0.05011 0.22188 0.0
H865 H 0.27578 0.04645 0.19739 0.0
H866 H 0.71082 0.08193 0.23132 0.0
H867 H 0.22736 1.00986 0.16477 0.0
H868 H 0.85672 0.98458 0.13836 0.0
N869 N 0.66813 0.99923 0.18943 0.0
C870 C 0.72991 1.02239 0.18166 0.0
C871 C 0.71665 0.06644 0.21723 0.0
C872 C 0.78659 0.07357 0.19065 0.0
C873 C 0.6617 1.01624 0.20772 0.0
C874 C 0.77887 0.09706 0.20833 0.0
N875 N 0.68307 0.93461 0.15908 0.0
C876 C 0.69027 0.89419 0.14623 0.0
C877 C 0.80154 1.00917 0.15869 0.0
C878 C 0.73745 0.9894 0.16601 0.0
C879 C 0.80834 0.97089 0.14435 0.0
C880 C 0.75269 0.91239 0.13841 0.0
H881 H 0.82129 0.13614 0.21571 0.0
H882 H 0.89331 0.13681 0.18888 0.0
H883 H 0.90653 0.08129 0.16076 0.0
O884 O 0.6049 0.84229 0.17897 0.0
O885 O 0.62724 0.97049 0.14146 0.0
O886 O 0.57559 1.03039 0.1331 0.0
O887 O 0.56076 0.87582 0.19993 0.0
O888 O 0.5452 0.85438 0.14375 0.0
O889 O 0.47492 0.88527 0.12911 0.0
O890 O 0.45715 1.04094 0.12628 0.0
O891 O 0.39241 0.87514 0.15765 0.0
O892 O 0.45756 0.84117 0.17354 0.0
O893 O 0.42592 0.94034 0.1172 0.0
O894 O 0.5637 0.07454 0.15609 0.0
O895 O 0.61886 1.03627 0.17524 0.0
C896 C 0.62344 1.01632 0.13086 0.0
C897 C 0.63588 0.83795 0.21136 0.0
C898 C 0.66595 0.78797 0.23846 0.0
C899 C 0.7324 0.83803 0.23636 0.0
C900 C 0.70361 0.88496 0.20967 0.0
C901 C 0.75088 0.88582 0.22215 0.0
C902 C 0.617 0.78846 0.22595 0.0
C903 C 0.50565 0.84935 0.12953 0.0
C904 C 0.58768 0.83852 0.19683 0.0
C905 C 0.84962 0.09654 0.18242 0.0
C906 C 0.85709 0.06465 0.16643 0.0
C907 C 0.39568 0.82969 0.16811 0.0
C908 C 0.46856 1.02219 0.09322 0.0
C909 C 0.52623 0.11222 0.07052 0.0
C910 C 0.52761 0.06794 0.0572 0.0
C911 C 0.46636 0.97734 0.0793 0.0
C912 C 0.49827 0.08935 0.08861 0.0
C913 C 0.4967 1.00039 0.06152 0.0
C914 C 0.61451 0.08803 0.16803 0.0
C915 C 0.43691 0.9989 0.11206 0.0
H916 H 0.7707 0.83913 0.24553 0.0
H917 H 0.72089 0.92032 0.1983 0.0
H918 H 0.80272 0.92305 0.22048 0.0
H919 H 0.56548 0.74997 0.22726 0.0
H920 H 0.54949 0.08507 0.04322 0.0
H921 H 0.44222 0.92463 0.08222 0.0
H922 H 0.49651 0.12379 0.09877 0.0
H923 H 0.49579 0.96571 0.05103 0.0
Eu924 Eu 0.71153 0.54754 0.33352 0.0
C925 C 0.43319 0.33295 0.33746 0.0
N926 N 0.45684 0.34009 0.31945 0.0
C927 C 0.36423 0.23508 0.31076 0.0
C928 C 0.37257 0.27699 0.34275 0.0
C929 C 0.42588 0.29008 0.30647 0.0
C930 C 0.33646 0.22961 0.32882 0.0
C931 C 0.45275 0.36961 0.37025 0.0
C932 C 0.47204 0.37963 0.35085 0.0
C933 C 0.39117 0.31539 0.37554 0.0
C934 C 0.35078 0.26947 0.36176 0.0
Eu935 Eu 0.54672 0.44518 0.31119 0.0
N936 N 0.53136 0.43135 0.34517 0.0
C937 C 0.49715 0.41262 0.38385 0.0
C938 C 0.57655 0.46952 0.35866 0.0
C939 C 0.56008 0.46171 0.37805 0.0
H940 H 0.44692 0.2943 0.29242 0.0
H941 H 0.59633 0.49313 0.38852 0.0
H942 H 0.69345 0.61084 0.37545 0.0
H943 H 0.90699 0.67565 0.27939 0.0
H944 H 0.62616 0.50446 0.35476 0.0
H945 H 0.48457 0.40638 0.39889 0.0
H946 H 0.82596 0.57937 0.2976 0.0
H947 H 0.3378 0.19751 0.30006 0.0
H948 H 0.37524 0.30749 0.39032 0.0
H949 H 0.30411 0.22701 0.36607 0.0
H950 H 0.73012 0.72123 0.38947 0.0
H951 H 0.28782 0.18817 0.33197 0.0
H952 H 0.93013 0.78808 0.28827 0.0
N953 N 0.74029 0.64929 0.34865 0.0
C954 C 0.78326 0.7043 0.33853 0.0
C955 C 0.74452 0.71708 0.37505 0.0
C956 C 0.8052 0.76822 0.34607 0.0
C957 C 0.72402 0.6548 0.3671 0.0
C958 C 0.78442 0.77392 0.3644 0.0
N959 N 0.79798 0.63524 0.31594 0.0
C960 C 0.83342 0.62748 0.30144 0.0
C961 C 0.86053 0.75388 0.31191 0.0
C962 C 0.81238 0.69714 0.32174 0.0
C963 C 0.89301 0.74563 0.29615 0.0
C964 C 0.88022 0.68228 0.29111 0.0
H965 H 0.80188 0.82197 0.37086 0.0
H966 H 0.86831 0.87367 0.34129 0.0
H967 H 0.9142 0.8612 0.31119 0.0
O968 O 0.74407 0.54202 0.36322 0.0
O969 O 0.7003 0.59405 0.30476 0.0
O970 O 0.58779 0.54804 0.29989 0.0
O971 O 0.81262 0.56683 0.34006 0.0
O972 O 0.72676 0.48933 0.30959 0.0
O973 O 0.63361 0.45729 0.29109 0.0
O974 O 0.44806 0.42029 0.30119 0.0
O975 O 0.57776 0.36751 0.31788 0.0
O976 O 0.65906 0.42616 0.34003 0.0
O977 O 0.51798 0.41565 0.28153 0.0
O978 O 0.5367 0.53383 0.32481 0.0
O979 O 0.63872 0.59575 0.33932 0.0
C980 C 0.6486 0.59355 0.29614 0.0
C981 C 0.86274 0.61339 0.37041 0.0
C982 C 0.94784 0.6517 0.39656 0.0
C983 C 0.96966 0.71723 0.39078 0.0
C984 C 0.89256 0.67965 0.36441 0.0
C985 C 0.9433 0.7308 0.37471 0.0
C986 C 0.89239 0.5992 0.38651 0.0
C987 C 0.696 0.46948 0.29309 0.0
C988 C 0.8058 0.56082 0.35855 0.0
C989 C 0.85079 0.82434 0.33575 0.0
C990 C 0.87756 0.81721 0.31862 0.0
C991 C 0.61614 0.36663 0.33167 0.0
C992 C 0.44863 0.45525 0.26945 0.0
C993 C 0.39617 0.52143 0.26277 0.0
C994 C 0.40105 0.513 0.24313 0.0
C995 C 0.45235 0.4458 0.24981 0.0
C996 C 0.42555 0.49771 0.2757 0.0
C997 C 0.43086 0.47672 0.23668 0.0
C998 C 0.57819 0.58807 0.33477 0.0
C999 C 0.46204 0.4159 0.2834 0.0
H1000 H 1.00974 0.75833 0.3983 0.0
H1001 H 0.87839 0.69238 0.35128 0.0
H1002 H 0.96363 0.78151 0.36987 0.0
H1003 H 0.87363 0.54825 0.39092 0.0
H1004 H 0.3785 0.53106 0.23292 0.0
H1005 H 0.47081 0.41379 0.24466 0.0
H1006 H 0.4215 0.50489 0.29083 0.0
H1007 H 0.4336 0.46918 0.22154 0.0
C1008 C 1.03545 0.63849 0.26072 0.0
C1009 C 1.05834 0.65034 0.24151 0.0
C1010 C 0.16867 0.73843 0.253 0.0
C1011 C 0.14634 0.72658 0.27229 0.0
N1012 N 1.05391 0.67259 0.29408 0.0
N1013 N 0.13906 0.72563 0.21927 0.0
C1014 C 0.0782 0.67872 0.27595 0.0
C1015 C 0.12293 0.70437 0.23767 0.0
N1016 N 0.97285 0.58776 0.26445 0.0
N1017 N 0.23394 0.78259 0.24927 0.0
H1018 H 0.10549 0.70354 0.20808 0.0
H1019 H 0.18239 0.76852 0.21533 0.0
H1020 H 0.2682 0.80842 0.26003 0.0
H1021 H 0.25534 0.78978 0.23578 0.0
H1022 H 0.95432 0.57079 0.27808 0.0
H1023 H 0.93975 0.5607 0.25363 0.0
H1024 H 1.00359 0.64585 0.29755 0.0
H1025 H 0.08431 0.69648 0.30576 0.0
C1026 C 0.46551 0.14983 0.41677 0.0
C1027 C 0.48144 0.14415 0.43611 0.0
C1028 C 0.49357 0.04777 0.42629 0.0
C1029 C 0.47187 0.04986 0.40727 0.0
N1030 N 0.44245 0.10902 0.38445 0.0
N1031 N 0.49975 0.07925 0.45965 0.0
C1032 C 0.45869 0.10216 0.40268 0.0
C1033 C 0.49291 0.09099 0.4409 0.0
N1034 N 0.4567 0.20124 0.41116 0.0
N1035 N 0.51681 1.00535 0.43048 0.0
H1036 H 0.50194 0.11042 0.47068 0.0
H1037 H 0.49818 1.03604 0.46451 0.0
H1038 H 0.51591 0.97112 0.42078 0.0
H1039 H 0.53957 1.00576 0.44331 0.0
H1040 H 0.46273 0.23967 0.42016 0.0
H1041 H 0.46273 0.23967 0.42016 0.0
H1042 H 0.43248 0.14656 0.38034 0.0
H1043 H 0.43997 0.07772 0.37348 0.0
C1044 C 0.42826 0.42339 0.6081 0.0
C1045 C 0.37891 0.44184 0.60428 0.0
C1046 C 0.40241 0.44177 0.56972 0.0
C1047 C 0.45502 0.42847 0.57375 0.0
N1048 N 0.49756 0.37983 0.59575 0.0
N1049 N 0.32004 0.47044 0.58129 0.0
C1050 C 0.46239 0.41195 0.59271 0.0
C1051 C 0.36626 0.45138 0.58498 0.0
N1052 N 0.44348 0.41804 0.62661 0.0
N1053 N 0.38344 0.43935 0.55119 0.0
H1054 H 0.29326 0.47794 0.59207 0.0
H1055 H 0.31111 0.48303 0.56781 0.0
H1056 H 0.40709 0.4291 0.54011 0.0
H1057 H 0.34126 0.44116 0.54689 0.0
H1058 H 0.48321 0.41129 0.63055 0.0
H1059 H 0.42008 0.42665 0.63814 0.0
H1060 H 0.50054 0.36047 0.60888 0.0
H1061 H 0.51759 0.36601 0.58447 0.0
C1062 C 1.01333 0.38632 0.73836 0.0
C1063 C 0.07419 0.44625 0.74158 0.0
C1064 C 1.05218 0.43061 0.77644 0.0
C1065 C 0.99014 0.37182 0.77316 0.0
N1066 N 0.90902 0.2964 0.75101 0.0
N1067 N 0.15571 0.52135 0.76358 0.0
C1068 C 0.97018 0.35049 0.75408 0.0
C1069 C 0.09465 0.46703 0.76066 0.0
N1070 N 0.9981 0.36247 0.72018 0.0
N1071 N 0.06984 0.45155 0.79484 0.0
H1072 H 0.18825 0.54645 0.75242 0.0
H1073 H 0.17627 0.54073 0.77678 0.0
H1074 H 1.03834 0.42847 0.80642 0.0
H1075 H 0.11422 0.49252 0.79893 0.0
H1076 H 0.95866 0.31624 0.71657 0.0
H1077 H 1.0279 0.38812 0.70859 0.0
H1078 H 0.88774 0.28054 0.73762 0.0
H1079 H 0.87702 0.26945 0.76215 0.0
C1080 C 0.61146 0.96975 0.90737 0.0
C1081 C 0.65501 1.0408 0.90679 0.0
C1082 C 0.68568 1.03104 0.94025 0.0
C1083 C 0.65197 0.96031 0.93919 0.0
N1084 N 0.59205 0.86356 0.91964 0.0
N1085 N 0.73618 0.13734 0.92392 0.0
C1086 C 0.61747 0.93019 0.92217 0.0
C1087 C 0.69329 0.07067 0.92356 0.0
N1088 N 0.56217 0.93866 0.89422 0.0
N1089 N 0.70833 0.06055 0.95758 0.0
H1090 H 0.74033 0.16914 0.91291 0.0
H1091 H 0.77018 0.16102 0.93483 0.0
H1092 H 0.70138 1.03322 0.97005 0.0
H1093 H 0.72717 0.11099 0.96002 0.0
H1094 H 0.52571 0.88906 0.89518 0.0
H1095 H 0.55376 0.96186 0.88291 0.0
H1096 H 0.57241 0.83962 0.90675 0.0
H1097 H 0.59551 0.83274 0.92985 0.0
C1098 C 0.68369 0.56942 0.1015 0.0
C1099 C 0.7511 0.61944 0.10288 0.0
C1100 C 0.72693 0.68547 0.07916 0.0
C1101 C 0.66201 0.63076 0.07534 0.0
N1102 N 0.58723 0.51384 0.0829 0.0
N1103 N 0.83793 0.72608 0.09244 0.0
C1104 C 0.64231 0.5723 0.08689 0.0
C1105 C 0.77263 0.67781 0.09157 0.0
N1106 N 0.65953 0.51441 0.11288 0.0
N1107 N 0.74432 0.74629 0.07192 0.0
H1108 H 0.87085 0.72509 0.10246 0.0
H1109 H 0.86003 0.76504 0.08271 0.0
H1110 H 0.71184 0.75462 0.06384 0.0
H1111 H 0.78731 0.78959 0.07575 0.0
H1112 H 0.61012 0.47631 0.11233 0.0
H1113 H 0.68755 0.50764 0.12334 0.0
H1114 H 0.55979 0.50442 0.07044 0.0
H1115 H 0.55979 0.50442 0.07044 0.0
C1116 C 0.44921 0.07178 0.59763 0.0
C1117 C 0.46098 1.03945 0.61332 0.0
C1118 C 0.38458 0.93195 0.59719 0.0
C1119 C 0.3824 0.96465 0.58042 0.0
N1120 N 0.427 0.06879 0.56365 0.0
N1121 N 0.44934 0.93341 0.62393 0.0
C1122 C 0.41887 1.03553 0.58041 0.0
C1123 C 0.43176 0.9682 0.61186 0.0
N1124 N 0.46696 0.1372 0.59882 0.0
N1125 N 0.33967 0.86631 0.59977 0.0
H1126 H 0.48276 0.95424 0.6349 0.0
H1127 H 0.4348 0.88354 0.62186 0.0
H1128 H 0.30368 0.83788 0.58969 0.0
H1129 H 0.3342 0.84202 0.61274 0.0
H1130 H 0.45296 0.16084 0.58866 0.0
H1131 H 0.49145 0.16693 0.61046 0.0
H1132 H 0.45829 0.11979 0.56226 0.0
H1133 H 0.40841 1.04438 0.55071 0.0
C1134 C 0.42102 0.35287 0.75749 0.0
C1135 C 0.48234 0.35877 0.75082 0.0
C1136 C 0.54121 0.44923 0.77381 0.0
C1137 C 0.48073 0.44706 0.78013 0.0
N1138 N 0.36402 0.40422 0.77355 0.0
N1139 N 0.60207 0.4228 0.75087 0.0
C1140 C 0.42073 0.40071 0.77072 0.0
C1141 C 0.54222 0.41124 0.75806 0.0
N1142 N 0.36265 0.30064 0.75134 0.0
N1143 N 0.59982 0.48371 0.78326 0.0
H1144 H 0.60706 0.39613 0.73969 0.0
H1145 H 0.64711 0.46235 0.75542 0.0
H1146 H 0.6059 0.50792 0.79613 0.0
H1147 H 0.6059 0.50792 0.79613 0.0
H1148 H 0.31647 0.28809 0.75723 0.0
H1149 H 0.3612 0.26793 0.74087 0.0
H1150 H 0.32039 0.37624 0.76587 0.0
H1151 H 0.36236 0.43984 0.78222 0.0
C1152 C 0.1549 0.51819 0.9468 0.0
C1153 C 0.08681 0.46449 0.94811 0.0
C1154 C 0.11416 0.41113 0.92115 0.0
C1155 C 0.17997 0.46613 0.91954 0.0
N1156 N 0.25984 0.57583 0.92963 0.0
N1157 N 1.00029 0.36838 0.93223 0.0
C1158 C 0.19867 0.52064 0.9319 0.0
C1159 C 0.06632 0.41315 0.93412 0.0
N1160 N 0.18087 0.56625 0.96043 0.0
N1161 N 0.09738 0.35597 0.91043 0.0
H1162 H 0.96365 0.36979 0.94052 0.0
H1163 H 0.98114 0.33462 0.92105 0.0
H1164 H 0.12938 0.35424 0.9002 0.0
H1165 H 1.05371 0.31107 0.91248 0.0
H1166 H 0.23171 0.59676 0.96265 0.0
H1167 H 0.15364 0.57374 0.97066 0.0
H1168 H 0.27333 0.62141 0.93593 0.0
H1169 H 0.29583 0.57848 0.92014 0.0
C1170 C 0.73463 0.11155 0.11838 0.0
C1171 C 0.6722 0.05395 0.11467 0.0
C1172 C 0.69115 0.07961 0.0799 0.0
C1173 C 0.75168 0.13911 0.08373 0.0
N1174 N 0.82923 0.21432 0.10662 0.0
N1175 N 0.59391 0.97997 0.09166 0.0
C1176 C 0.77289 0.15552 0.10302 0.0
C1177 C 0.65143 1.03745 0.09531 0.0
N1178 N 0.75795 0.12344 0.13666 0.0
N1179 N 0.67119 0.06429 0.06133 0.0
H1180 H 0.56068 0.95167 0.10233 0.0
H1181 H 0.58013 0.95765 0.07835 0.0
H1182 H 0.69719 0.09525 0.04992 0.0
H1183 H 0.62837 1.02227 0.05686 0.0
H1184 H 0.80533 0.16026 0.14057 0.0
H1185 H 0.73037 0.09361 0.14804 0.0
H1186 H 0.84595 0.23314 0.1202 0.0
H1187 H 0.85739 0.24702 0.09575 0.0
C1188 C 0.63509 0.62414 0.26189 0.0
C1189 C 0.65563 0.64446 0.28114 0.0
C1190 C 0.66384 0.75269 0.27301 0.0
C1191 C 0.65225 0.73498 0.25335 0.0
N1192 N 0.63799 0.65644 0.2288 0.0
N1193 N 0.6899 0.73022 0.30483 0.0
C1194 C 0.64061 0.67129 0.24776 0.0
C1195 C 0.67057 0.70966 0.28656 0.0
N1196 N 0.60867 0.55906 0.25697 0.0
N1197 N 0.6661 0.81005 0.27882 0.0
H1198 H 0.68927 0.69844 0.31538 0.0
H1199 H 0.70933 0.77906 0.30935 0.0
H1200 H 0.65984 0.8414 0.26939 0.0
H1201 H 0.66794 0.82371 0.29305 0.0
H1202 H 0.58669 0.54022 0.24381 0.0
H1203 H 0.60549 0.52296 0.26637 0.0
H1204 H 0.63892 0.61464 0.22374 0.0
H1205 H 0.64049 0.68849 0.21799 0.0
C1206 C 0.989 0.60097 0.44525 0.0
C1207 C 1.06085 0.63817 0.44595 0.0
C1208 C 1.05658 0.67118 0.41234 0.0
C1209 C 0.98568 0.64212 0.41307 0.0
N1210 N 0.88836 0.59576 0.43308 0.0
N1211 N 0.16187 0.71316 0.4291 0.0
C1212 C 0.95328 0.612 0.43034 0.0
C1213 C 0.09411 0.67541 0.42926 0.0
N1214 N 0.95307 0.55258 0.45826 0.0
N1215 N 0.0881 0.69166 0.39511 0.0
H1216 H 0.19196 0.71417 0.44022 0.0
H1217 H 0.18846 0.74679 0.41831 0.0
H1218 H 1.06239 0.68557 0.38238 0.0
H1219 H 0.13834 0.70728 0.393 0.0
H1220 H 0.97341 0.54051 0.46958 0.0
H1221 H 0.90222 0.51983 0.45679 0.0
H1222 H 0.86464 0.58076 0.44628 0.0
H1223 H 0.86035 0.60365 0.42282 0.0
C1224 C 0.55661 0.66599 0.3592 0.0
C1225 C 0.55718 0.64423 0.33998 0.0
C1226 C 0.52648 0.7336 0.33054 0.0
C1227 C 0.52164 0.75236 0.34985 0.0
N1228 N 0.52026 0.71987 0.38268 0.0
N1229 N 0.52446 0.65256 0.30779 0.0
C1230 C 0.53417 0.71407 0.36406 0.0
C1231 C 0.53644 0.67663 0.32594 0.0
N1232 N 0.57607 0.63903 0.37339 0.0
N1233 N 0.5254 0.77259 0.31612 0.0
H1234 H 0.53145 0.61365 0.30346 0.0
H1235 H 0.50175 0.6671 0.29748 0.0
H1236 H 0.51951 0.81371 0.31852 0.0
H1237 H 0.53696 0.76815 0.30202 0.0
H1238 H 0.5879 0.65847 0.38712 0.0
H1239 H 0.58382 0.59897 0.37108 0.0
H1240 H 0.51978 0.68907 0.39356 0.0
H1241 H 0.50153 0.75027 0.38712 0.0
C1242 C 0.83411 0.46029 0.51804 0.0
C1243 C 0.81141 0.50766 0.5153 0.0
C1244 C 0.92994 0.58473 0.50306 0.0
C1245 C 0.95484 0.54027 0.50772 0.0
N1246 N 0.92558 0.43515 0.52199 0.0
N1247 N 0.84556 0.61876 0.50527 0.0
C1248 C 0.90489 0.47773 0.51569 0.0
C1249 C 0.86233 0.57081 0.50805 0.0
N1250 N 0.78735 0.39713 0.52268 0.0
N1251 N 0.96908 0.63896 0.49213 0.0
H1252 H 0.7962 0.60738 0.50512 0.0
H1253 H 0.88011 0.66886 0.50355 0.0
H1254 H 1.01582 0.64956 0.48726 0.0
H1255 H 0.95278 0.66934 0.48599 0.0
H1256 H 0.79656 0.35749 0.52318 0.0
H1257 H 0.73735 0.3835 0.52423 0.0
H1258 H 0.89567 0.39229 0.52976 0.0
H1259 H 0.97498 0.44593 0.52092 0.0
C1260 C 0.38948 0.90562 0.6672 0.0
C1261 C 0.45847 0.93042 0.67248 0.0
C1262 C 0.41614 0.81292 0.68605 0.0
C1263 C 0.34845 0.78753 0.67969 0.0
N1264 N 0.27767 0.81256 0.66066 0.0
N1265 N 0.53453 0.89877 0.68596 0.0
C1266 C 0.33772 0.8354 0.66947 0.0
C1267 C 0.4704 0.88089 0.68145 0.0
N1268 N 0.37213 0.94918 0.65961 0.0
N1269 N 0.42854 0.77274 0.69753 0.0
H1270 H 0.57353 0.94734 0.68472 0.0
H1271 H 0.54974 0.86512 0.69004 0.0
H1272 H 0.39193 0.72441 0.70075 0.0
H1273 H 0.47291 0.78826 0.70488 0.0
H1274 H 0.3231 0.93916 0.65838 0.0
H1275 H 0.40669 0.99686 0.65533 0.0
H1276 H 0.26673 0.84029 0.65113 0.0
H1277 H 0.24101 0.76288 0.66124 0.0
C1278 C 0.54374 0.38028 0.82845 0.0
C1279 C 0.57428 0.44485 0.83751 0.0
C1280 C 0.63892 0.40007 0.85652 0.0
C1281 C 0.61454 0.33932 0.84575 0.0
N1282 N 0.55123 0.28286 0.81809 0.0
N1283 N 0.66101 0.51496 0.8593 0.0
C1284 C 0.56935 0.33339 0.83076 0.0
C1285 C 0.6252 0.45406 0.8511 0.0
N1286 N 0.4877 0.36138 0.81793 0.0
N1287 N 0.67383 0.40588 0.87275 0.0
H1288 H 0.65099 0.55349 0.85677 0.0
H1289 H 0.70346 0.52857 0.86746 0.0
H1290 H 0.68431 0.36907 0.87716 0.0
H1291 H 0.68703 0.44393 0.88261 0.0
H1292 H 0.45878 0.31362 0.81256 0.0
H1293 H 0.46591 0.39103 0.81646 0.0
H1294 H 0.52388 0.2778 0.80578 0.0
H1295 H 0.57076 0.25087 0.81883 0.0
C1296 C 0.21622 0.60653 0.01963 0.0
C1297 C 0.17254 0.55025 1.00792 0.0
C1298 C 0.27768 0.54127 1.00184 0.0
C1299 C 0.31918 0.59165 0.01529 0.0
N1300 N 0.32079 0.67044 0.03767 0.0
N1301 N 0.16743 0.45762 0.99073 0.0
C1302 C 0.28573 0.62331 0.02431 0.0
C1303 C 0.20527 0.51585 1.00011 0.0
N1304 N 0.19128 0.64489 0.02653 0.0
N1305 N 0.30851 0.52027 0.98936 0.0
H1306 H 0.1168 0.43833 0.98831 0.0
H1307 H 0.18541 0.42603 0.98673 0.0
H1308 H 0.36021 0.54211 0.98903 0.0
H1309 H 0.28437 0.48896 0.9779 0.0
H1310 H 0.22016 0.69043 0.03316 0.0
H1311 H 0.14171 0.63262 0.02465 0.0
H1312 H 0.29972 0.69047 0.04679 0.0
H1313 H 0.37122 0.68737 0.04013 0.0
C1314 C 0.76581 0.2808 0.16399 0.0
C1315 C 0.78492 0.30278 0.18339 0.0
C1316 C 0.68866 0.18711 0.19256 0.0
C1317 C 0.67132 0.16411 0.17319 0.0
N1318 N 0.68639 0.2032 0.14068 0.0
N1319 N 0.76012 0.26948 0.21625 0.0
C1320 C 0.70801 0.2154 0.1591 0.0
C1321 C 0.7448 0.2533 0.19752 0.0
N1322 N 0.80603 0.32087 0.14978 0.0
N1323 N 0.64641 0.14778 0.20654 0.0
H1324 H 0.79144 0.3179 0.22075 0.0
H1325 H 0.74353 0.23494 0.22729 0.0
H1326 H 0.60439 0.10245 0.20358 0.0
H1327 H 0.64872 0.16197 0.22071 0.0
H1328 H 0.80224 0.30624 0.13559 0.0
H1329 H 0.8474 0.36704 0.15244 0.0
H1330 H 0.70334 0.2394 0.13009 0.0
H1331 H 0.64742 0.15797 0.13621 0.0
C1332 C 0.38829 0.57221 0.49199 0.0
C1333 C 0.35235 0.58796 0.50615 0.0
C1334 C 0.4298 0.57611 0.53016 0.0
C1335 C 0.4613 0.55409 0.51615 0.0
N1336 N 0.4815 0.55543 0.48264 0.0
N1337 N 0.33895 0.59694 0.53976 0.0
C1338 C 0.4423 0.55795 0.49682 0.0
C1339 C 0.37426 0.58856 0.52544 0.0
N1340 N 0.37125 0.57138 0.47331 0.0
N1341 N 0.45398 0.58739 0.54834 0.0
H1342 H 0.29939 0.60547 0.53719 0.0
H1343 H 0.34524 0.59075 0.55416 0.0
H1344 H 0.48953 0.57565 0.55304 0.0
H1345 H 0.44213 0.6125 0.55855 0.0
H1346 H 0.38381 0.54867 0.46252 0.0
H1347 H 0.34299 0.59239 0.46861 0.0
H1348 H 0.47819 0.56567 0.46836 0.0
H1349 H 0.52243 0.54944 0.48546 0.0
C1350 C 0.86211 0.36581 0.65743 0.0
C1351 C 0.81128 0.32768 0.67154 0.0
C1352 C 0.90012 0.40356 0.6958 0.0
C1353 C 0.95263 0.43836 0.6818 0.0
N1354 N 0.97172 0.45888 0.6483 0.0
N1355 N 0.79248 0.30821 0.70518 0.0
C1356 C 0.92991 0.41987 0.6624 0.0
C1357 C 0.83354 0.34705 0.69092 0.0
N1358 N 0.84554 0.35051 0.6387 0.0
N1359 N 0.91249 0.4256 0.71418 0.0
H1360 H 0.74544 0.26796 0.70255 0.0
H1361 H 0.80703 0.31188 0.71937 0.0
H1362 H 0.95861 0.46313 0.7187 0.0
H1363 H 0.87585 0.41029 0.72466 0.0
H1364 H 0.88002 0.36512 0.62764 0.0
H1365 H 0.79653 0.32134 0.63416 0.0
H1366 H 0.95898 0.45592 0.63398 0.0
H1367 H 1.01852 0.49886 0.6512 0.0
C1368 C 0.59895 0.9083 0.85375 0.0
C1369 C 0.57031 0.94413 0.8444 0.0
C1370 C 0.50801 0.83714 0.82472 0.0
C1371 C 0.5279 0.79802 0.8363 0.0
N1372 N 0.58459 0.80193 0.86525 0.0
N1373 N 0.48783 0.93159 0.8214 0.0
C1374 C 0.57105 0.83575 0.85176 0.0
C1375 C 0.52149 0.90457 0.8302 0.0
N1376 N 0.65463 0.94352 0.86451 0.0
N1377 N 0.47824 0.81132 0.80768 0.0
H1378 H 0.49774 0.97983 0.82417 0.0
H1379 H 0.44711 0.90451 0.81252 0.0
H1380 H 0.47044 0.76554 0.80289 0.0
H1381 H 0.46798 0.83803 0.79758 0.0
H1382 H 0.68218 0.92291 0.8701 0.0
H1383 H 0.67622 0.99455 0.86646 0.0
H1384 H 0.61207 0.8241 0.87749 0.0
H1385 H 0.56188 0.75033 0.86505 0.0
C1386 C 0.68085 0.52554 0.99686 0.0
C1387 C 0.66595 0.53543 0.0162 0.0
C1388 C 0.76064 0.51151 0.02531 0.0
C1389 C 0.77329 0.49896 1.00612 0.0
N1390 N 0.7332 0.4847 0.97391 0.0
N1391 N 0.68979 0.52434 0.04883 0.0
C1392 C 0.72995 0.50403 0.9921 0.0
C1393 C 0.70549 0.52404 0.03023 0.0
N1394 N 0.64708 0.53614 0.98261 0.0
N1395 N 0.80394 0.51516 0.03911 0.0
H1396 H 0.65304 0.53515 0.05249 0.0
H1397 H 0.70839 0.50882 0.06004 0.0
H1398 H 0.84267 0.50543 0.03637 0.0
H1399 H 0.80483 0.53264 0.05284 0.0
H1400 H 0.65987 0.53976 0.96825 0.0
H1401 H 0.60794 0.54508 0.98537 0.0
H1402 H 0.69983 0.47915 0.96316 0.0
H1403 H 0.76574 0.46774 0.96995 0.0
C1404 C 0.26942 0.73442 0.15976 0.0
C1405 C 0.3243 0.76424 0.17333 0.0
C1406 C 0.23795 0.6805 0.19696 0.0
C1407 C 0.18444 0.6506 0.18308 0.0
N1408 N 0.16679 0.63665 0.14946 0.0
N1409 N 0.35603 0.7538 0.20526 0.0
C1410 C 0.20546 0.67486 0.1641 0.0
C1411 C 0.30675 0.73301 0.19194 0.0
N1412 N 0.27672 0.76217 0.14212 0.0
N1413 N 0.22299 0.66042 0.21548 0.0
H1414 H 0.40333 0.7941 0.2031 0.0
H1415 H 0.35182 0.72892 0.21799 0.0
H1416 H 0.17643 0.6231 0.21983 0.0
H1417 H 0.25468 0.68377 0.22688 0.0
H1418 H 0.23639 0.74992 0.1331 0.0
H1419 H 0.32143 0.799 0.13657 0.0
H1420 H 0.18166 0.64544 0.13522 0.0
H1421 H 0.12368 0.59143 0.1518 0.0
C1422 C 0.5912 0.24219 0.32333 0.0
C1423 C 0.6065 0.2938 0.33747 0.0
C1424 C 0.59178 0.20373 0.36162 0.0
C1425 C 0.57184 0.15106 0.34764 0.0
N1426 N 0.56879 0.13026 0.31417 0.0
N1427 N 0.6061 0.31204 0.3712 0.0
C1428 C 0.5751 0.17355 0.32829 0.0
C1429 C 0.60322 0.27098 0.35684 0.0
N1430 N 0.59177 0.25845 0.30458 0.0
N1431 N 0.60248 0.19086 0.37987 0.0
H1432 H 0.61331 0.35943 0.36873 0.0
H1433 H 0.59479 0.29694 0.38536 0.0
H1434 H 0.59444 0.14467 0.38421 0.0
H1435 H 0.62508 0.22732 0.39026 0.0
H1436 H 0.56924 0.22392 0.29373 0.0
H1437 H 0.61385 0.30715 0.29973 0.0
H1438 H 0.57765 0.14232 0.29978 0.0
H1439 H 0.55997 0.08252 0.31704 0.0
C1440 C 0.35921 0.78219 0.44521 0.0
C1441 C 0.31841 0.71169 0.44455 0.0
C1442 C 0.35758 0.72125 0.41039 0.0
C1443 C 0.38846 0.79208 0.41084 0.0
N1444 N 0.38934 0.88244 0.42787 0.0
N1445 N 0.28879 0.61376 0.42558 0.0
C1446 C 0.38115 0.82027 0.42803 0.0
C1447 C 0.32031 0.68114 0.4268 0.0
N1448 N 0.3816 0.81395 0.46223 0.0
N1449 N 0.36533 0.69197 0.39443 0.0
H1450 H 0.27811 0.58353 0.4375 0.0
H1451 H 0.27617 0.58802 0.41272 0.0
H1452 H 0.3889 0.71867 0.38215 0.0
H1453 H 0.35181 0.64209 0.39356 0.0
H1454 H 0.41371 0.86503 0.46308 0.0
H1455 H 0.37746 0.78856 0.4749 0.0
H1456 H 0.37917 0.90314 0.43975 0.0
H1457 H 0.39696 0.90858 0.41523 0.0
C1458 C 0.6508 0.3899 0.59734 0.0
C1459 C 0.64357 0.36797 0.57784 0.0
C1460 C 0.63195 0.26184 0.59079 0.0
C1461 C 0.64427 0.2863 0.60997 0.0
N1462 N 0.6867 0.38379 0.62956 0.0
N1463 N 0.6473 0.28699 0.55692 0.0
C1464 C 0.66049 0.35348 0.61255 0.0
C1465 C 0.64014 0.30514 0.5749 0.0
N1466 N 0.64279 0.44254 0.60197 0.0
N1467 N 0.60907 0.1961 0.58749 0.0
H1468 H 0.65649 0.31735 0.54508 0.0
H1469 H 0.65231 0.24552 0.55409 0.0
H1470 H 0.60008 0.16197 0.5983 0.0
H1471 H 0.59154 0.17403 0.57424 0.0
H1472 H 0.64116 0.45624 0.61603 0.0
H1473 H 0.62626 0.46486 0.59225 0.0
H1474 H 0.7059 0.43448 0.63171 0.0
H1475 H 0.69663 0.36003 0.64069 0.0
C1476 C 0.36093 0.65539 0.77485 0.0
C1477 C 0.40351 0.62662 0.77377 0.0
C1478 C 0.3779 0.61148 0.73872 0.0
C1479 C 0.32987 0.63332 0.74031 0.0
N1480 N 0.31284 0.71278 0.75779 0.0
N1481 N 0.44121 0.56648 0.75387 0.0
C1482 C 0.33114 0.66513 0.75786 0.0
C1483 C 0.40916 0.60241 0.75543 0.0
N1484 N 0.34723 0.67304 0.79213 0.0
N1485 N 0.40037 0.60671 0.72107 0.0
H1486 H 0.46502 0.5584 0.76521 0.0
H1487 H 0.43832 0.53899 0.7418 0.0
H1488 H 0.38803 0.62292 0.70868 0.0
H1489 H 0.43969 0.59743 0.71893 0.0
H1490 H 0.3101 0.68577 0.79396 0.0
H1491 H 0.36898 0.6704 0.80484 0.0
H1492 H 0.31925 0.74306 0.76949 0.0
H1493 H 0.30194 0.72953 0.74524 0.0
C1494 C 0.71599 0.28105 0.92941 0.0
C1495 C 0.73727 0.29987 0.91003 0.0
C1496 C 0.84216 0.39354 0.92366 0.0
C1497 C 0.81759 0.37879 0.94283 0.0
N1498 N 0.71931 0.31712 0.96217 0.0
N1499 N 0.81588 0.39004 0.89005 0.0
C1500 C 0.75095 0.32528 0.94509 0.0
C1501 C 0.79881 0.36088 0.90762 0.0
N1502 N 0.66495 0.21908 0.93337 0.0
N1503 N 0.90812 0.43616 0.9204 0.0
H1504 H 0.7854 0.37144 0.87813 0.0
H1505 H 0.85646 0.43725 0.88788 0.0
H1506 H 0.94272 0.45946 0.9312 0.0
H1507 H 0.92988 0.44256 0.90696 0.0
H1508 H 0.65218 0.2007 0.94723 0.0
H1509 H 0.64135 0.18297 0.92302 0.0
H1510 H 0.66898 0.28316 0.96414 0.0
H1511 H 0.7408 0.34961 0.97358 0.0
C1512 C 0.43873 0.74957 0.10622 0.0
C1513 C 0.50046 0.80451 0.11235 0.0
C1514 C 0.55619 0.76797 0.08867 0.0
C1515 C 0.49494 0.72038 0.08029 0.0
N1516 N 0.37542 0.6674 0.08166 0.0
N1517 N 0.61816 0.87048 0.10558 0.0
C1518 C 0.43542 0.71171 0.08927 0.0
C1519 C 0.55888 0.81464 0.10247 0.0
N1520 N 0.38377 0.7305 0.11733 0.0
N1521 N 0.61275 0.76598 0.08459 0.0
H1522 H 0.62356 0.90629 0.11526 0.0
H1523 H 0.66018 0.88442 0.09711 0.0
H1524 H 0.61262 0.73146 0.07528 0.0
H1525 H 0.65732 0.79323 0.09199 0.0
H1526 H 0.3383 0.68796 0.11489 0.0
H1527 H 0.38635 0.75362 0.13028 0.0
H1528 H 0.33053 0.6637 0.08597 0.0
H1529 H 0.37116 0.63703 0.07017 0.0
C1530 C 0.7662 0.42381 0.27618 0.0
C1531 C 0.73507 0.46397 0.27578 0.0
C1532 C 0.76696 0.48571 0.24159 0.0
C1533 C 0.80908 0.45697 0.2425 0.0
N1534 N 0.83887 0.38807 0.2616 0.0
N1535 N 0.73202 0.55267 0.25883 0.0
C1536 C 0.80594 0.4231 0.26011 0.0
C1537 C 0.74247 0.49996 0.25865 0.0
N1538 N 0.75575 0.38392 0.29164 0.0
N1539 N 0.74606 0.49613 0.2244 0.0
H1540 H 0.72288 0.57008 0.27146 0.0
H1541 H 0.7421 0.58385 0.24705 0.0
H1542 H 0.75354 0.47732 0.21169 0.0
H1543 H 0.71269 0.51411 0.22329 0.0
H1544 H 0.76945 0.34736 0.29219 0.0
H1545 H 0.72903 0.38414 0.3036 0.0
H1546 H 0.85128 0.37533 0.27461 0.0
H1547 H 0.85064 0.36856 0.24984 0.0
C1548 C 0.83668 0.36975 0.418 0.0
C1549 C 0.89352 0.37542 0.40862 0.0
C1550 C 0.84652 0.25638 0.4082 0.0
C1551 C 0.78915 0.24939 0.41787 0.0
N1552 N 0.7216 0.29737 0.42739 0.0
N1553 N 0.94083 0.32635 0.38822 0.0
C1554 C 0.78132 0.30556 0.42121 0.0
C1555 C 0.89327 0.31911 0.40109 0.0
N1556 N 0.83735 0.42549 0.42452 0.0
N1557 N 0.86002 0.20518 0.40741 0.0
H1558 H 0.97653 0.37285 0.38315 0.0
H1559 H 0.94014 0.28636 0.38121 0.0
H1560 H 0.83105 0.15966 0.41412 0.0
H1561 H 0.90448 0.2105 0.40201 0.0
H1562 H 0.80074 0.42477 0.43337 0.0
H1563 H 0.87648 0.47269 0.42133 0.0
H1564 H 0.71154 0.33633 0.42871 0.0
H1565 H 0.68028 0.25063 0.42967 0.0
C1566 C 0.48399 0.7778 0.59351 0.0
C1567 C 0.54685 0.83564 0.59087 0.0
C1568 C 0.60344 0.77678 0.60114 0.0
C1569 C 0.54215 0.71673 0.60142 0.0
N1570 N 0.42395 0.65728 0.59578 0.0
N1571 N 0.6649 0.8819 0.58537 0.0
C1572 C 0.48196 0.71615 0.59702 0.0
C1573 C 0.60611 0.83225 0.59243 0.0
N1574 N 0.42713 0.78197 0.59301 0.0
N1575 N 0.65928 0.78058 0.60908 0.0
H1576 H 0.66806 0.92239 0.57793 0.0
H1577 H 0.70842 0.87873 0.58502 0.0
H1578 H 0.65875 0.74084 0.61625 0.0
H1579 H 0.70394 0.82513 0.61031 0.0
H1580 H 0.38052 0.74277 0.59669 0.0
H1581 H 0.4275 0.82607 0.58984 0.0
H1582 H 0.37962 0.65331 0.59082 0.0
H1583 H 0.4215 0.61196 0.59869 0.0
C1584 C 0.88902 0.63566 0.7914 0.0
C1585 C 0.8338 0.58155 0.78237 0.0
C1586 C 0.88959 0.51581 0.78447 0.0
C1587 C 0.94468 0.57082 0.79287 0.0
N1588 N 0.98401 0.66891 0.81202 0.0
N1589 N 0.7725 0.46365 0.77653 0.0
C1590 C 0.93873 0.62495 0.79946 0.0
C1591 C 0.83081 0.51905 0.78106 0.0
N1592 N 0.89801 0.69853 0.79061 0.0
N1593 N 0.89577 0.46312 0.77851 0.0
H1594 H 0.72832 0.46487 0.77475 0.0
H1595 H 0.76683 0.41618 0.77658 0.0
H1596 H 0.93847 0.46004 0.78145 0.0
H1597 H 0.86035 0.42489 0.77014 0.0
H1598 H 0.94093 0.73983 0.79558 0.0
H1599 H 0.86703 0.71111 0.78304 0.0
H1600 H 0.97927 0.70741 0.81812 0.0
H1601 H 1.0216 0.66194 0.81788 0.0
C1602 C 0.28665 0.84847 0.92397 0.0
C1603 C 0.34483 0.84403 0.92087 0.0
C1604 C 0.27799 0.73216 0.90775 0.0
C1605 C 0.22078 0.73892 0.91038 0.0
N1606 N 0.17376 0.8108 0.91415 0.0
N1607 N 0.39868 0.78322 0.91051 0.0
C1608 C 0.22645 0.79984 0.91618 0.0
C1609 C 0.34151 0.7863 0.91279 0.0
N1610 N 0.28892 0.89862 0.93481 0.0
N1611 N 0.27105 0.67464 0.90032 0.0
H1612 H 0.44436 0.82021 0.91559 0.0
H1613 H 0.40138 0.74407 0.90419 0.0
H1614 H 0.22483 0.6349 0.8966 0.0
H1615 H 0.31029 0.66598 0.89749 0.0
H1616 H 0.2465 0.90053 0.93892 0.0
H1617 H 0.33241 0.93436 0.94139 0.0
H1618 H 0.17705 0.85662 0.9167 0.0
H1619 H 0.12896 0.77604 0.90792 0.0
C1620 C 0.58983 0.23317 0.07601 0.0
C1621 C 0.54097 0.17968 0.06527 0.0
C1622 C 0.46756 0.22613 0.06632 0.0
C1623 C 0.51441 0.27859 0.07796 0.0
N1624 N 0.62778 0.3432 0.08897 0.0
N1625 N 0.45114 0.14328 0.04284 0.0
C1626 C 0.57855 0.28616 0.08112 0.0
C1627 C 0.4868 0.18358 0.05755 0.0
N1628 N 0.64411 0.23016 0.08236 0.0
N1629 N 0.40315 0.21317 0.06492 0.0
H1630 H 0.46493 0.11172 0.03616 0.0
H1631 H 0.41329 0.14728 0.03594 0.0
H1632 H 0.38451 0.23931 0.07243 0.0
H1633 H 0.36621 0.17151 0.05798 0.0
H1634 H 0.67817 0.26345 0.09211 0.0
H1635 H 0.65303 0.19202 0.07812 0.0
H1636 H 0.67676 0.35316 0.09035 0.0
H1637 H 0.62065 0.3829 0.09263 0.0
C1638 C 0.29238 0.49228 0.28101 0.0
C1639 C 0.34742 0.53986 0.27016 0.0
C1640 C 0.29975 0.61353 0.27049 0.0
C1641 C 0.24564 0.56525 0.28125 0.0
N1642 N 0.20535 0.47414 0.30332 0.0
N1643 N 0.41233 0.65242 0.25883 0.0
C1644 C 0.24844 0.51091 0.28916 0.0
C1645 C 0.35437 0.60318 0.26637 0.0
N1646 N 0.27785 0.42753 0.28199 0.0
N1647 N 0.29701 0.66719 0.26361 0.0
H1648 H 0.45297 0.64574 0.25587 0.0
H1649 H 0.42195 0.70095 0.25701 0.0
H1650 H 0.25778 0.67564 0.26705 0.0
H1651 H 0.33198 0.70155 0.25422 0.0
H1652 H 0.23469 0.3905 0.2884 0.0
H1653 H 0.30374 0.40873 0.27441 0.0
H1654 H 0.20851 0.43621 0.31041 0.0
H1655 H 0.17165 0.48667 0.30931 0.0
loop_
_geom_bond_atom_site_label_1
_geom_bond_atom_site_label_2
_geom_bond_distance
_geom_bond_site_symmetry_2
_ccdc_geom_bond_type
Eu0 N29 2.600 1_565 S
Eu0 N35 2.562 . S
Eu0 O44 2.462 . S
Eu0 O45 2.373 1_565 S
Eu0 O47 2.432 . S
Eu0 O48 2.291 . S
Eu0 O52 2.335 . S
Eu0 O55 2.372 1_565 S
Eu0 C64 2.787 . S
C1 N2 1.365 . S
C1 C4 1.405 . S
C1 C8 1.448 . S
N2 C1 1.365 . S
N2 C5 1.319 . S
N2 Eu11 2.600 1_565 S
C3 C5 1.397 . S
C3 C6 1.367 . S
C3 H23 0.931 . S
C4 C1 1.405 . S
C4 C6 1.403 . S
C4 C10 1.439 . S
C5 N2 1.319 . S
C5 C3 1.397 . S
C5 H16 0.930 . S
C6 C3 1.367 . S
C6 C4 1.403 . S
C6 H27 0.929 . S
C7 C8 1.430 . S
C7 C9 1.387 . S
C7 C13 1.404 1_565 S
C8 C1 1.448 . S
C8 C7 1.430 . S
C8 N12 1.351 1_565 S
C9 C7 1.387 . S
C9 C10 1.374 . S
C9 H24 0.931 . S
C10 C4 1.439 . S
C10 C9 1.374 . S
C10 H25 0.931 . S
Eu11 N2 2.600 1_545 S
Eu11 N12 2.562 . S
Eu11 O46 2.335 . S
Eu11 O49 2.372 1_545 S
Eu11 O50 2.462 . S
Eu11 O51 2.373 1_545 S
Eu11 O53 2.432 . S
Eu11 O54 2.291 . S
Eu11 C75 2.787 . S
N12 C8 1.351 1_545 S
N12 Eu11 2.562 . S
N12 C14 1.325 . S
C13 C7 1.404 1_545 S
C13 C15 1.366 . S
C13 H21 0.930 . S
C14 N12 1.325 . S
C14 C15 1.416 . S
C14 H20 0.929 . S
C15 C13 1.366 . S
C15 C14 1.416 . S
C15 H17 0.930 . S
H16 C5 0.930 . S
H17 C15 0.930 . S
H18 C33 0.930 . S
H19 C40 0.930 . S
H20 C14 0.929 . S
H21 C13 0.930 . S
H22 C36 0.929 . S
H23 C3 0.931 . S
H24 C9 0.931 . S
H25 C10 0.931 . S
H26 C31 0.931 . S
H27 C6 0.929 . S
H28 C39 0.930 . S
N29 Eu0 2.600 1_545 S
N29 C30 1.365 . S
N29 C33 1.319 . S
C30 N29 1.365 . S
C30 C32 1.405 . S
C30 C38 1.448 . S
C31 H26 0.931 . S
C31 C33 1.397 . S
C31 C34 1.367 . S
C32 C30 1.405 . S
C32 C34 1.403 . S
C32 C65 1.439 . S
C33 H18 0.930 . S
C33 N29 1.319 . S
C33 C31 1.397 . S
C34 C31 1.367 . S
C34 C32 1.403 . S
C34 H41 0.929 . S
N35 Eu0 2.562 . S
N35 C36 1.325 . S
N35 C38 1.351 1_565 S
C36 H22 0.929 . S
C36 N35 1.325 . S
C36 C40 1.416 . S
C37 C38 1.430 . S
C37 C39 1.404 1_545 S
C37 C66 1.387 . S
C38 C30 1.448 . S
C38 N35 1.351 1_545 S
C38 C37 1.430 . S
C39 H28 0.930 . S
C39 C37 1.404 1_565 S
C39 C40 1.366 . S
C40 H19 0.930 . S
C40 C36 1.416 . S
C40 C39 1.366 . S
H41 C34 0.929 . S
H42 C65 0.931 . S
H43 C66 0.931 . S
O44 Eu0 2.462 . S
O44 C64 1.252 . S
O45 Eu0 2.373 1_545 S
O45 C56 1.249 . S
O46 Eu11 2.335 . S
O46 C56 1.264 . S
O47 Eu0 2.432 . S
O47 C64 1.268 . S
O48 Eu0 2.291 . S
O48 C63 1.255 . S
O49 Eu11 2.372 1_565 S
O49 C63 1.257 . S
O50 Eu11 2.462 . S
O50 C75 1.252 . S
O51 Eu11 2.373 1_565 S
O51 C67 1.249 . S
O52 Eu0 2.335 . S
O52 C67 1.264 . S
O53 Eu11 2.432 . S
O53 C75 1.268 . S
O54 Eu11 2.291 . S
O54 C74 1.255 . S
O55 Eu0 2.372 1_545 S
O55 C74 1.257 . S
C56 O45 1.249 . S
C56 O46 1.264 . S
C57 C60 1.382 . S
C57 C62 1.390 . S
C57 C64 1.506 . S
C58 C59 1.398 . S
C58 C62 1.392 . S
C59 C58 1.398 . S
C59 C61 1.372 . S
C59 H76 0.931 . S
C60 C57 1.382 . S
C60 C61 1.390 . S
C60 H77 0.931 . S
C61 C59 1.372 . S
C61 C60 1.390 . S
C61 H78 0.929 . S
C62 C57 1.390 . S
C62 C58 1.392 . S
C62 H79 0.930 . S
C63 O48 1.255 . S
C63 O49 1.257 . S
C64 Eu0 2.787 . S
C64 O44 1.252 . S
C64 O47 1.268 . S
C64 C57 1.506 . S
C65 C32 1.439 . S
C65 H42 0.931 . S
C65 C66 1.374 . S
C66 C37 1.387 . S
C66 H43 0.931 . S
C66 C65 1.374 . S
C67 O51 1.249 . S
C67 O52 1.264 . S
C68 C71 1.382 . S
C68 C72 1.390 . S
C68 C75 1.506 . S
C69 C70 1.398 . S
C69 C72 1.392 . S
C70 C69 1.398 . S
C70 C73 1.372 . S
C70 H80 0.931 . S
C71 C68 1.382 . S
C71 C73 1.390 . S
C71 H81 0.931 . S
C72 C68 1.390 . S
C72 C69 1.392 . S
C72 H82 0.930 . S
C73 C70 1.372 . S
C73 C71 1.390 . S
C73 H83 0.929 . S
C74 O54 1.255 . S
C74 O55 1.257 . S
C75 Eu11 2.787 . S
C75 O50 1.252 . S
C75 O53 1.268 . S
C75 C68 1.506 . S
H76 C59 0.931 . S
H77 C60 0.931 . S
H78 C61 0.929 . S
H79 C62 0.930 . S
H80 C70 0.931 . S
H81 C71 0.931 . S
H82 C72 0.930 . S
H83 C73 0.929 . S
Eu84 N113 2.600 . S
Eu84 N119 2.562 . S
Eu84 O128 2.462 . S
Eu84 O129 2.373 . S
Eu84 O131 2.432 . S
Eu84 O132 2.291 . S
Eu84 O136 2.335 . S
Eu84 O139 2.372 . S
Eu84 C148 2.787 . S
C85 N86 1.365 . S
C85 C88 1.405 . S
C85 C92 1.448 . S
N86 C85 1.365 . S
N86 C89 1.319 . S
N86 Eu95 2.600 . S
C87 C89 1.397 . S
C87 C90 1.367 . S
C87 H107 0.931 . S
C88 C85 1.405 . S
C88 C90 1.403 . S
C88 C94 1.439 . S
C89 N86 1.319 . S
C89 C87 1.397 . S
C89 H100 0.930 . S
C90 C87 1.367 . S
C90 C88 1.403 . S
C90 H111 0.929 . S
C91 C92 1.430 . S
C91 C93 1.387 . S
C91 C97 1.404 . S
C92 C85 1.448 . S
C92 C91 1.430 . S
C92 N96 1.351 . S
C93 C91 1.387 . S
C93 C94 1.374 . S
C93 H108 0.931 . S
C94 C88 1.439 . S
C94 C93 1.374 . S
C94 H109 0.931 . S
Eu95 N86 2.600 . S
Eu95 N96 2.562 . S
Eu95 O130 2.335 . S
Eu95 O133 2.372 . S
Eu95 O134 2.462 . S
Eu95 O135 2.373 . S
Eu95 O137 2.432 . S
Eu95 O138 2.291 . S
Eu95 C159 2.787 . S
N96 C92 1.351 . S
N96 Eu95 2.562 . S
N96 C98 1.325 . S
C97 C91 1.404 . S
C97 C99 1.366 . S
C97 H105 0.930 . S
C98 N96 1.325 . S
C98 C99 1.416 . S
C98 H104 0.929 . S
C99 C97 1.366 . S
C99 C98 1.416 . S
C99 H101 0.930 . S
H100 C89 0.930 . S
H101 C99 0.930 . S
H102 C117 0.930 . S
H103 C124 0.930 . S
H104 C98 0.929 . S
H105 C97 0.930 . S
H106 C120 0.929 . S
H107 C87 0.931 . S
H108 C93 0.931 . S
H109 C94 0.931 . S
H110 C115 0.931 . S
H111 C90 0.929 . S
H112 C123 0.930 . S
N113 Eu84 2.600 . S
N113 C114 1.365 . S
N113 C117 1.319 . S
C114 N113 1.365 . S
C114 C116 1.405 . S
C114 C122 1.448 . S
C115 H110 0.931 . S
C115 C117 1.397 . S
C115 C118 1.367 . S
C116 C114 1.405 . S
C116 C118 1.403 . S
C116 C149 1.439 . S
C117 H102 0.930 . S
C117 N113 1.319 . S
C117 C115 1.397 . S
C118 C115 1.367 . S
C118 C116 1.403 . S
C118 H125 0.929 . S
N119 Eu84 2.562 . S
N119 C120 1.325 . S
N119 C122 1.351 . S
C120 H106 0.929 . S
C120 N119 1.325 . S
C120 C124 1.416 . S
C121 C122 1.430 . S
C121 C123 1.404 . S
C121 C150 1.387 . S
C122 C114 1.448 . S
C122 N119 1.351 . S
C122 C121 1.430 . S
C123 H112 0.930 . S
C123 C121 1.404 . S
C123 C124 1.366 . S
C124 H103 0.930 . S
C124 C120 1.416 . S
C124 C123 1.366 . S
H125 C118 0.929 . S
H126 C149 0.931 . S
H127 C150 0.931 . S
O128 Eu84 2.462 . S
O128 C148 1.252 . S
O129 Eu84 2.373 . S
O129 C140 1.249 . S
O130 Eu95 2.335 . S
O130 C140 1.264 . S
O131 Eu84 2.432 . S
O131 C148 1.268 . S
O132 Eu84 2.291 . S
O132 C147 1.255 . S
O133 Eu95 2.372 . S
O133 C147 1.257 . S
O134 Eu95 2.462 . S
O134 C159 1.252 . S
O135 Eu95 2.373 . S
O135 C151 1.249 . S
O136 Eu84 2.335 . S
O136 C151 1.264 . S
O137 Eu95 2.432 . S
O137 C159 1.268 . S
O138 Eu95 2.291 . S
O138 C158 1.255 . S
O139 Eu84 2.372 . S
O139 C158 1.257 . S
C140 O129 1.249 . S
C140 O130 1.264 . S
C141 C144 1.382 . S
C141 C146 1.390 . S
C141 C148 1.506 . S
C142 C143 1.398 . S
C142 C146 1.392 . S
C143 C142 1.398 . S
C143 C145 1.372 . S
C143 H160 0.931 . S
C144 C141 1.382 . S
C144 C145 1.390 . S
C144 H161 0.931 . S
C145 C143 1.372 . S
C145 C144 1.390 . S
C145 H162 0.929 . S
C146 C141 1.390 . S
C146 C142 1.392 . S
C146 H163 0.930 . S
C147 O132 1.255 . S
C147 O133 1.257 . S
C148 Eu84 2.787 . S
C148 O128 1.252 . S
C148 O131 1.268 . S
C148 C141 1.506 . S
C149 C116 1.439 . S
C149 H126 0.931 . S
C149 C150 1.374 . S
C150 C121 1.387 . S
C150 H127 0.931 . S
C150 C149 1.374 . S
C151 O135 1.249 . S
C151 O136 1.264 . S
C152 C155 1.382 . S
C152 C156 1.390 . S
C152 C159 1.506 . S
C153 C154 1.398 . S
C153 C156 1.392 . S
C154 C153 1.398 . S
C154 C157 1.372 . S
C154 H164 0.931 . S
C155 C152 1.382 . S
C155 C157 1.390 . S
C155 H165 0.931 . S
C156 C152 1.390 . S
C156 C153 1.392 . S
C156 H166 0.930 . S
C157 C154 1.372 . S
C157 C155 1.390 . S
C157 H167 0.929 . S
C158 O138 1.255 . S
C158 O139 1.257 . S
C159 Eu95 2.787 . S
C159 O134 1.252 . S
C159 O137 1.268 . S
C159 C152 1.506 . S
H160 C143 0.931 . S
H161 C144 0.931 . S
H162 C145 0.929 . S
H163 C146 0.930 . S
H164 C154 0.931 . S
H165 C155 0.931 . S
H166 C156 0.930 . S
H167 C157 0.929 . S
Eu168 N197 2.600 1_455 S
Eu168 N203 2.562 . S
Eu168 O212 2.462 . S
Eu168 O213 2.373 1_455 S
Eu168 O215 2.432 . S
Eu168 O216 2.291 . S
Eu168 O220 2.335 . S
Eu168 O223 2.372 1_455 S
Eu168 C232 2.787 . S
C169 N170 1.365 . S
C169 C172 1.405 . S
C169 C176 1.448 . S
N170 C169 1.365 . S
N170 C173 1.319 . S
N170 Eu179 2.600 1_455 S
C171 C173 1.397 . S
C171 C174 1.367 . S
C171 H191 0.931 . S
C172 C169 1.405 . S
C172 C174 1.403 . S
C172 C178 1.439 . S
C173 N170 1.319 . S
C173 C171 1.397 . S
C173 H184 0.930 . S
C174 C171 1.367 . S
C174 C172 1.403 . S
C174 H195 0.929 . S
C175 C176 1.430 . S
C175 C177 1.387 . S
C175 C181 1.404 1_455 S
C176 C169 1.448 . S
C176 C175 1.430 . S
C176 N180 1.351 1_455 S
C177 C175 1.387 . S
C177 C178 1.374 . S
C177 H192 0.931 . S
C178 C172 1.439 . S
C178 C177 1.374 . S
C178 H193 0.931 . S
Eu179 N170 2.600 1_655 S
Eu179 N180 2.562 . S
Eu179 O214 2.335 . S
Eu179 O217 2.372 1_655 S
Eu179 O218 2.462 . S
Eu179 O219 2.373 1_655 S
Eu179 O221 2.432 . S
Eu179 O222 2.291 . S
Eu179 C243 2.787 . S
N180 C176 1.351 1_655 S
N180 Eu179 2.562 . S
N180 C182 1.325 . S
C181 C175 1.404 1_655 S
C181 C183 1.366 . S
C181 H189 0.930 . S
C182 N180 1.325 . S
C182 C183 1.416 . S
C182 H188 0.929 . S
C183 C181 1.366 . S
C183 C182 1.416 . S
C183 H185 0.930 . S
H184 C173 0.930 . S
H185 C183 0.930 . S
H186 C201 0.930 . S
H187 C208 0.930 . S
H188 C182 0.929 . S
H189 C181 0.930 . S
H190 C204 0.929 . S
H191 C171 0.931 . S
H192 C177 0.931 . S
H193 C178 0.931 . S
H194 C199 0.931 . S
H195 C174 0.929 . S
H196 C207 0.930 . S
N197 Eu168 2.600 1_655 S
N197 C198 1.365 . S
N197 C201 1.319 . S
C198 N197 1.365 . S
C198 C200 1.405 . S
C198 C206 1.448 . S
C199 H194 0.931 . S
C199 C201 1.397 . S
C199 C202 1.367 . S
C200 C198 1.405 . S
C200 C202 1.403 . S
C200 C233 1.439 . S
C201 H186 0.930 . S
C201 N197 1.319 . S
C201 C199 1.397 . S
C202 C199 1.367 . S
C202 C200 1.403 . S
C202 H209 0.929 . S
N203 Eu168 2.562 . S
N203 C204 1.325 . S
N203 C206 1.351 1_455 S
C204 H190 0.929 . S
C204 N203 1.325 . S
C204 C208 1.416 . S
C205 C206 1.430 . S
C205 C207 1.404 1_655 S
C205 C234 1.387 . S
C206 C198 1.448 . S
C206 N203 1.351 1_655 S
C206 C205 1.430 . S
C207 H196 0.930 . S
C207 C205 1.404 1_455 S
C207 C208 1.366 . S
C208 H187 0.930 . S
C208 C204 1.416 . S
C208 C207 1.366 . S
H209 C202 0.929 . S
H210 C233 0.931 . S
H211 C234 0.931 . S
O212 Eu168 2.462 . S
O212 C232 1.252 . S
O213 Eu168 2.373 1_655 S
O213 C224 1.249 . S
O214 Eu179 2.335 . S
O214 C224 1.264 . S
O215 Eu168 2.432 . S
O215 C232 1.268 . S
O216 Eu168 2.291 . S
O216 C231 1.255 . S
O217 Eu179 2.372 1_455 S
O217 C231 1.257 . S
O218 Eu179 2.462 . S
O218 C243 1.252 . S
O219 Eu179 2.373 1_455 S
O219 C235 1.249 . S
O220 Eu168 2.335 . S
O220 C235 1.264 . S
O221 Eu179 2.432 . S
O221 C243 1.268 . S
O222 Eu179 2.291 . S
O222 C242 1.255 . S
O223 Eu168 2.372 1_655 S
O223 C242 1.257 . S
C224 O213 1.249 . S
C224 O214 1.264 . S
C225 C228 1.382 . S
C225 C230 1.390 . S
C225 C232 1.506 . S
C226 C227 1.398 . S
C226 C230 1.392 . S
C227 C226 1.398 . S
C227 C229 1.372 . S
C227 H244 0.931 . S
C228 C225 1.382 . S
C228 C229 1.390 . S
C228 H245 0.931 . S
C229 C227 1.372 . S
C229 C228 1.390 . S
C229 H246 0.929 . S
C230 C225 1.390 . S
C230 C226 1.392 . S
C230 H247 0.930 . S
C231 O216 1.255 . S
C231 O217 1.257 . S
C232 Eu168 2.787 . S
C232 O212 1.252 . S
C232 O215 1.268 . S
C232 C225 1.506 . S
C233 C200 1.439 . S
C233 H210 0.931 . S
C233 C234 1.374 . S
C234 C205 1.387 . S
C234 H211 0.931 . S
C234 C233 1.374 . S
C235 O219 1.249 . S
C235 O220 1.264 . S
C236 C239 1.382 . S
C236 C240 1.390 . S
C236 C243 1.506 . S
C237 C238 1.398 . S
C237 C240 1.392 . S
C238 C237 1.398 . S
C238 C241 1.372 . S
C238 H248 0.931 . S
C239 C236 1.382 . S
C239 C241 1.390 . S
C239 H249 0.931 . S
C240 C236 1.390 . S
C240 C237 1.392 . S
C240 H250 0.930 . S
C241 C238 1.372 . S
C241 C239 1.390 . S
C241 H251 0.929 . S
C242 O222 1.255 . S
C242 O223 1.257 . S
C243 Eu179 2.787 . S
C243 O218 1.252 . S
C243 O221 1.268 . S
C243 C236 1.506 . S
H244 C227 0.931 . S
H245 C228 0.931 . S
H246 C229 0.929 . S
H247 C230 0.930 . S
H248 C238 0.931 . S
H249 C239 0.931 . S
H250 C240 0.930 . S
H251 C241 0.929 . S
Eu252 N281 2.600 1_545 S
Eu252 N287 2.562 . S
Eu252 O296 2.462 . S
Eu252 O297 2.373 1_545 S
Eu252 O299 2.432 . S
Eu252 O300 2.291 . S
Eu252 O304 2.335 . S
Eu252 O307 2.372 1_545 S
Eu252 C316 2.787 . S
C253 N254 1.365 . S
C253 C256 1.405 . S
C253 C260 1.448 . S
N254 C253 1.365 . S
N254 C257 1.319 . S
N254 Eu263 2.600 1_545 S
C255 C257 1.397 . S
C255 C258 1.367 . S
C255 H275 0.931 . S
C256 C253 1.405 . S
C256 C258 1.403 . S
C256 C262 1.439 . S
C257 N254 1.319 . S
C257 C255 1.397 . S
C257 H268 0.930 . S
C258 C255 1.367 . S
C258 C256 1.403 . S
C258 H279 0.929 . S
C259 C260 1.430 . S
C259 C261 1.387 . S
C259 C265 1.404 1_545 S
C260 C253 1.448 . S
C260 C259 1.430 . S
C260 N264 1.351 1_545 S
C261 C259 1.387 . S
C261 C262 1.374 . S
C261 H276 0.931 . S
C262 C256 1.439 . S
C262 C261 1.374 . S
C262 H277 0.931 . S
Eu263 N254 2.600 1_565 S
Eu263 N264 2.562 . S
Eu263 O298 2.335 . S
Eu263 O301 2.372 1_565 S
Eu263 O302 2.462 . S
Eu263 O303 2.373 1_565 S
Eu263 O305 2.432 . S
Eu263 O306 2.291 . S
Eu263 C327 2.787 . S
N264 C260 1.351 1_565 S
N264 Eu263 2.562 . S
N264 C266 1.325 . S
C265 C259 1.404 1_565 S
C265 C267 1.366 . S
C265 H273 0.930 . S
C266 N264 1.325 . S
C266 C267 1.416 . S
C266 H272 0.929 . S
C267 C265 1.366 . S
C267 C266 1.416 . S
C267 H269 0.930 . S
H268 C257 0.930 . S
H269 C267 0.930 . S
H270 C285 0.930 . S
H271 C292 0.930 . S
H272 C266 0.929 . S
H273 C265 0.930 . S
H274 C288 0.929 . S
H275 C255 0.931 . S
H276 C261 0.931 . S
H277 C262 0.931 . S
H278 C283 0.931 . S
H279 C258 0.929 . S
H280 C291 0.930 . S
N281 Eu252 2.600 1_565 S
N281 C282 1.365 . S
N281 C285 1.319 . S
C282 N281 1.365 . S
C282 C284 1.405 . S
C282 C290 1.448 . S
C283 H278 0.931 . S
C283 C285 1.397 . S
C283 C286 1.367 . S
C284 C282 1.405 . S
C284 C286 1.403 . S
C284 C317 1.439 . S
C285 H270 0.930 . S
C285 N281 1.319 . S
C285 C283 1.397 . S
C286 C283 1.367 . S
C286 C284 1.403 . S
C286 H293 0.929 . S
N287 Eu252 2.562 . S
N287 C288 1.325 . S
N287 C290 1.351 1_545 S
C288 H274 0.929 . S
C288 N287 1.325 . S
C288 C292 1.416 . S
C289 C290 1.430 . S
C289 C291 1.404 1_565 S
C289 C318 1.387 . S
C290 C282 1.448 . S
C290 N287 1.351 1_565 S
C290 C289 1.430 . S
C291 H280 0.930 . S
C291 C289 1.404 1_545 S
C291 C292 1.366 . S
C292 H271 0.930 . S
C292 C288 1.416 . S
C292 C291 1.366 . S
H293 C286 0.929 . S
H294 C317 0.931 . S
H295 C318 0.931 . S
O296 Eu252 2.462 . S
O296 C316 1.252 . S
O297 Eu252 2.373 1_565 S
O297 C308 1.249 . S
O298 Eu263 2.335 . S
O298 C308 1.264 . S
O299 Eu252 2.432 . S
O299 C316 1.268 . S
O300 Eu252 2.291 . S
O300 C315 1.255 . S
O301 Eu263 2.372 1_545 S
O301 C315 1.257 . S
O302 Eu263 2.462 . S
O302 C327 1.252 . S
O303 Eu263 2.373 1_545 S
O303 C319 1.249 . S
O304 Eu252 2.335 . S
O304 C319 1.264 . S
O305 Eu263 2.432 . S
O305 C327 1.268 . S
O306 Eu263 2.291 . S
O306 C326 1.255 . S
O307 Eu252 2.372 1_565 S
O307 C326 1.257 . S
C308 O297 1.249 . S
C308 O298 1.264 . S
C309 C312 1.382 . S
C309 C314 1.390 . S
C309 C316 1.506 . S
C310 C311 1.398 . S
C310 C314 1.392 . S
C311 C310 1.398 . S
C311 C313 1.372 . S
C311 H328 0.931 . S
C312 C309 1.382 . S
C312 C313 1.390 . S
C312 H329 0.931 . S
C313 C311 1.372 . S
C313 C312 1.390 . S
C313 H330 0.929 . S
C314 C309 1.390 . S
C314 C310 1.392 . S
C314 H331 0.930 . S
C315 O300 1.255 . S
C315 O301 1.257 . S
C316 Eu252 2.787 . S
C316 O296 1.252 . S
C316 O299 1.268 . S
C316 C309 1.506 . S
C317 C284 1.439 . S
C317 H294 0.931 . S
C317 C318 1.374 . S
C318 C289 1.387 . S
C318 H295 0.931 . S
C318 C317 1.374 . S
C319 O303 1.249 . S
C319 O304 1.264 . S
C320 C323 1.382 . S
C320 C324 1.390 . S
C320 C327 1.506 . S
C321 C322 1.398 . S
C321 C324 1.392 . S
C322 C321 1.398 . S
C322 C325 1.372 . S
C322 H332 0.931 . S
C323 C320 1.382 . S
C323 C325 1.390 . S
C323 H333 0.931 . S
C324 C320 1.390 . S
C324 C321 1.392 . S
C324 H334 0.930 . S
C325 C322 1.372 . S
C325 C323 1.390 . S
C325 H335 0.929 . S
C326 O306 1.255 . S
C326 O307 1.257 . S
C327 Eu263 2.787 . S
C327 O302 1.252 . S
C327 O305 1.268 . S
C327 C320 1.506 . S
H328 C311 0.931 . S
H329 C312 0.931 . S
H330 C313 0.929 . S
H331 C314 0.930 . S
H332 C322 0.931 . S
H333 C323 0.931 . S
H334 C324 0.930 . S
H335 C325 0.929 . S
Eu336 N365 2.600 1_554 S
Eu336 N371 2.562 . S
Eu336 O380 2.474 . S
Eu336 O381 2.373 . S
Eu336 O383 2.432 1_554 S
Eu336 O384 2.291 . S
Eu336 O388 2.335 . S
Eu336 O391 2.372 1_554 S
Eu336 C400 2.787 1_554 S
C337 N338 1.365 . S
C337 C340 1.405 . S
C337 C344 1.448 . S
N338 C337 1.365 . S
N338 C341 1.319 . S
N338 Eu347 2.600 . S
C339 C341 1.397 . S
C339 C342 1.367 . S
C339 H359 0.931 . S
C340 C337 1.405 . S
C340 C342 1.403 . S
C340 C346 1.439 . S
C341 N338 1.319 . S
C341 C339 1.397 . S
C341 H352 0.930 . S
C342 C339 1.367 . S
C342 C340 1.403 . S
C342 H363 0.929 . S
C343 C344 1.430 . S
C343 C345 1.387 . S
C343 C349 1.404 . S
C344 C337 1.448 . S
C344 C343 1.430 . S
C344 N348 1.351 . S
C345 C343 1.387 . S
C345 C346 1.374 . S
C345 H360 0.931 . S
C346 C340 1.439 . S
C346 C345 1.374 . S
C346 H361 0.931 . S
Eu347 N338 2.600 . S
Eu347 N348 2.562 . S
Eu347 O382 2.335 . S
Eu347 O385 2.372 . S
Eu347 O386 2.462 . S
Eu347 O387 2.373 . S
Eu347 O389 2.432 . S
Eu347 O390 2.291 . S
Eu347 C411 2.787 . S
N348 C344 1.351 . S
N348 Eu347 2.562 . S
N348 C350 1.325 . S
C349 C343 1.404 . S
C349 C351 1.366 . S
C349 H357 0.930 . S
C350 N348 1.325 . S
C350 C351 1.416 . S
C350 H356 0.929 . S
C351 C349 1.366 . S
C351 C350 1.416 . S
C351 H353 0.930 . S
H352 C341 0.930 . S
H353 C351 0.930 . S
H354 C369 0.930 . S
H355 C376 0.930 . S
H356 C350 0.929 . S
H357 C349 0.930 . S
H358 C372 0.929 . S
H359 C339 0.931 . S
H360 C345 0.931 . S
H361 C346 0.931 . S
H362 C367 0.931 . S
H363 C342 0.929 . S
H364 C375 0.930 . S
N365 Eu336 2.600 1_556 S
N365 C366 1.365 1_556 S
N365 C369 1.319 . S
C366 N365 1.365 1_554 S
C366 C368 1.414 . S
C366 C374 1.448 . S
C367 H362 0.931 . S
C367 C369 1.397 . S
C367 C370 1.367 . S
C368 C366 1.414 . S
C368 C370 1.380 1_554 S
C368 C401 1.455 . S
C369 H354 0.930 . S
C369 N365 1.319 . S
C369 C367 1.397 . S
C370 C367 1.367 . S
C370 C368 1.380 1_556 S
C370 H377 0.929 . S
N371 Eu336 2.562 . S
N371 C372 1.325 . S
N371 C374 1.351 . S
C372 H358 0.929 . S
C372 N371 1.325 . S
C372 C376 1.416 . S
C373 C374 1.430 . S
C373 C375 1.404 . S
C373 C402 1.387 . S
C374 C366 1.448 . S
C374 N371 1.351 . S
C374 C373 1.430 . S
C375 H364 0.930 . S
C375 C373 1.404 . S
C375 C376 1.366 . S
C376 H355 0.930 . S
C376 C372 1.416 . S
C376 C375 1.366 . S
H377 C370 0.929 . S
H378 C401 0.931 . S
H379 C402 0.931 . S
O380 Eu336 2.474 . S
O380 C400 1.213 1_554 S
O381 Eu336 2.373 . S
O381 C392 1.249 . S
O382 Eu347 2.335 . S
O382 C392 1.264 . S
O383 Eu336 2.432 1_556 S
O383 C400 1.268 . S
O384 Eu336 2.291 . S
O384 C399 1.255 . S
O385 Eu347 2.372 . S
O385 C399 1.257 . S
O386 Eu347 2.462 . S
O386 C411 1.252 . S
O387 Eu347 2.373 . S
O387 C403 1.249 . S
O388 Eu336 2.335 . S
O388 C403 1.264 . S
O389 Eu347 2.432 . S
O389 C411 1.268 . S
O390 Eu347 2.291 . S
O390 C410 1.255 . S
O391 Eu336 2.372 1_556 S
O391 C410 1.257 1_556 S
C392 O381 1.249 . S
C392 O382 1.264 . S
C393 C396 1.382 . S
C393 C398 1.390 . S
C393 C400 1.506 . S
C394 C395 1.398 . S
C394 C398 1.392 . S
C395 C394 1.398 . S
C395 C397 1.372 . S
C395 H412 0.931 . S
C396 C393 1.382 . S
C396 C397 1.390 . S
C396 H413 0.931 . S
C397 C395 1.372 . S
C397 C396 1.390 . S
C397 H414 0.929 . S
C398 C393 1.390 . S
C398 C394 1.392 . S
C398 H415 0.930 . S
C399 O384 1.255 . S
C399 O385 1.257 . S
C400 Eu336 2.787 1_556 S
C400 O380 1.213 1_556 S
C400 O383 1.268 . S
C400 C393 1.506 . S
C401 C368 1.455 . S
C401 H378 0.931 . S
C401 C402 1.374 . S
C402 C373 1.387 . S
C402 H379 0.931 . S
C402 C401 1.374 . S
C403 O387 1.249 . S
C403 O388 1.264 . S
C404 C407 1.382 . S
C404 C408 1.390 . S
C404 C411 1.506 . S
C405 C406 1.398 . S
C405 C408 1.392 . S
C406 C405 1.398 . S
C406 C409 1.372 . S
C406 H416 0.931 . S
C407 C404 1.382 . S
C407 C409 1.390 . S
C407 H417 0.931 . S
C408 C404 1.390 . S
C408 C405 1.392 . S
C408 H418 0.930 . S
C409 C406 1.372 . S
C409 C407 1.390 . S
C409 H419 0.929 . S
C410 O390 1.255 . S
C410 O391 1.257 1_554 S
C411 Eu347 2.787 . S
C411 O386 1.252 . S
C411 O389 1.268 . S
C411 C404 1.506 . S
H412 C395 0.931 . S
H413 C396 0.931 . S
H414 C397 0.929 . S
H415 C398 0.930 . S
H416 C406 0.931 . S
H417 C407 0.931 . S
H418 C408 0.930 . S
H419 C409 0.929 . S
Eu420 N449 2.600 1_655 S
Eu420 N455 2.562 . S
Eu420 O464 2.462 . S
Eu420 O465 2.373 1_655 S
Eu420 O467 2.432 . S
Eu420 O468 2.291 . S
Eu420 O472 2.335 . S
Eu420 O475 2.372 1_655 S
Eu420 C484 2.787 . S
C421 N422 1.365 . S
C421 C424 1.405 . S
C421 C428 1.448 . S
N422 C421 1.365 . S
N422 C425 1.319 . S
N422 Eu431 2.600 1_655 S
C423 C425 1.397 . S
C423 C426 1.367 . S
C423 H443 0.931 . S
C424 C421 1.405 . S
C424 C426 1.403 . S
C424 C430 1.439 . S
C425 N422 1.319 . S
C425 C423 1.397 . S
C425 H436 0.930 . S
C426 C423 1.367 . S
C426 C424 1.403 . S
C426 H447 0.929 . S
C427 C428 1.430 . S
C427 C429 1.387 . S
C427 C433 1.404 1_655 S
C428 C421 1.448 . S
C428 C427 1.430 . S
C428 N432 1.351 1_655 S
C429 C427 1.387 . S
C429 C430 1.374 . S
C429 H444 0.931 . S
C430 C424 1.439 . S
C430 C429 1.374 . S
C430 H445 0.931 . S
Eu431 N422 2.600 1_455 S
Eu431 N432 2.562 . S
Eu431 O466 2.335 . S
Eu431 O469 2.372 1_455 S
Eu431 O470 2.462 . S
Eu431 O471 2.373 1_455 S
Eu431 O473 2.432 . S
Eu431 O474 2.291 . S
Eu431 C495 2.787 . S
N432 C428 1.351 1_455 S
N432 Eu431 2.562 . S
N432 C434 1.325 . S
C433 C427 1.404 1_455 S
C433 C435 1.366 . S
C433 H441 0.930 . S
C434 N432 1.325 . S
C434 C435 1.416 . S
C434 H440 0.929 . S
C435 C433 1.366 . S
C435 C434 1.416 . S
C435 H437 0.930 . S
H436 C425 0.930 . S
H437 C435 0.930 . S
H438 C453 0.930 . S
H439 C460 0.930 . S
H440 C434 0.929 . S
H441 C433 0.930 . S
H442 C456 0.929 . S
H443 C423 0.931 . S
H444 C429 0.931 . S
H445 C430 0.931 . S
H446 C451 0.931 . S
H447 C426 0.929 . S
H448 C459 0.930 . S
N449 Eu420 2.600 1_455 S
N449 C450 1.365 . S
N449 C453 1.319 . S
C450 N449 1.365 . S
C450 C452 1.405 . S
C450 C458 1.448 . S
C451 H446 0.931 . S
C451 C453 1.397 . S
C451 C454 1.367 . S
C452 C450 1.405 . S
C452 C454 1.403 . S
C452 C485 1.439 . S
C453 H438 0.930 . S
C453 N449 1.319 . S
C453 C451 1.397 . S
C454 C451 1.367 . S
C454 C452 1.403 . S
C454 H461 0.929 . S
N455 Eu420 2.562 . S
N455 C456 1.325 . S
N455 C458 1.351 1_655 S
C456 H442 0.929 . S
C456 N455 1.325 . S
C456 C460 1.416 . S
C457 C458 1.430 . S
C457 C459 1.404 1_455 S
C457 C486 1.387 . S
C458 C450 1.448 . S
C458 N455 1.351 1_455 S
C458 C457 1.430 . S
C459 H448 0.930 . S
C459 C457 1.404 1_655 S
C459 C460 1.366 . S
C460 H439 0.930 . S
C460 C456 1.416 . S
C460 C459 1.366 . S
H461 C454 0.929 . S
H462 C485 0.931 . S
H463 C486 0.931 . S
O464 Eu420 2.462 . S
O464 C484 1.252 . S
O465 Eu420 2.373 1_455 S
O465 C476 1.249 . S
O466 Eu431 2.335 . S
O466 C476 1.264 . S
O467 Eu420 2.432 . S
O467 C484 1.268 . S
O468 Eu420 2.291 . S
O468 C483 1.255 . S
O469 Eu431 2.372 1_655 S
O469 C483 1.257 . S
O470 Eu431 2.462 . S
O470 C495 1.252 . S
O471 Eu431 2.373 1_655 S
O471 C487 1.249 . S
O472 Eu420 2.335 . S
O472 C487 1.264 . S
O473 Eu431 2.432 . S
O473 C495 1.268 . S
O474 Eu431 2.291 . S
O474 C494 1.255 . S
O475 Eu420 2.372 1_455 S
O475 C494 1.257 . S
C476 O465 1.249 . S
C476 O466 1.264 . S
C477 C480 1.382 . S
C477 C482 1.390 . S
C477 C484 1.506 . S
C478 C479 1.398 . S
C478 C482 1.392 . S
C479 C478 1.398 . S
C479 C481 1.372 . S
C479 H496 0.931 . S
C480 C477 1.382 . S
C480 C481 1.390 . S
C480 H497 0.931 . S
C481 C479 1.372 . S
C481 C480 1.390 . S
C481 H498 0.929 . S
C482 C477 1.390 . S
C482 C478 1.392 . S
C482 H499 0.930 . S
C483 O468 1.255 . S
C483 O469 1.257 . S
C484 Eu420 2.787 . S
C484 O464 1.252 . S
C484 O467 1.268 . S
C484 C477 1.506 . S
C485 C452 1.439 . S
C485 H462 0.931 . S
C485 C486 1.374 . S
C486 C457 1.387 . S
C486 H463 0.931 . S
C486 C485 1.374 . S
C487 O471 1.249 . S
C487 O472 1.264 . S
C488 C491 1.382 . S
C488 C492 1.390 . S
C488 C495 1.506 . S
C489 C490 1.398 . S
C489 C492 1.392 . S
C490 C489 1.398 . S
C490 C493 1.372 . S
C490 H500 0.931 . S
C491 C488 1.382 . S
C491 C493 1.390 . S
C491 H501 0.931 . S
C492 C488 1.390 . S
C492 C489 1.392 . S
C492 H502 0.930 . S
C493 C490 1.372 . S
C493 C491 1.390 . S
C493 H503 0.929 . S
C494 O474 1.255 . S
C494 O475 1.257 . S
C495 Eu431 2.787 . S
C495 O470 1.252 . S
C495 O473 1.268 . S
C495 C488 1.506 . S
H496 C479 0.931 . S
H497 C480 0.931 . S
H498 C481 0.929 . S
H499 C482 0.930 . S
H500 C490 0.931 . S
H501 C491 0.931 . S
H502 C492 0.930 . S
H503 C493 0.929 . S
Eu504 N533 2.600 1_455 S
Eu504 N539 2.562 . S
Eu504 O548 2.462 . S
Eu504 O549 2.373 1_455 S
Eu504 O551 2.432 . S
Eu504 O552 2.291 . S
Eu504 O556 2.335 . S
Eu504 O559 2.372 1_455 S
Eu504 C568 2.787 . S
C505 N506 1.365 . S
C505 C508 1.405 . S
C505 C512 1.448 . S
N506 C505 1.365 . S
N506 C509 1.319 . S
N506 Eu515 2.600 1_455 S
C507 C509 1.397 . S
C507 C510 1.367 . S
C507 H527 0.931 . S
C508 C505 1.405 . S
C508 C510 1.403 . S
C508 C514 1.439 . S
C509 N506 1.319 . S
C509 C507 1.397 . S
C509 H520 0.930 . S
C510 C507 1.367 . S
C510 C508 1.403 . S
C510 H531 0.929 . S
C511 C512 1.430 . S
C511 C513 1.387 . S
C511 C517 1.404 1_455 S
C512 C505 1.448 . S
C512 C511 1.430 . S
C512 N516 1.351 1_455 S
C513 C511 1.387 . S
C513 C514 1.374 . S
C513 H528 0.931 . S
C514 C508 1.439 . S
C514 C513 1.374 . S
C514 H529 0.931 . S
Eu515 N506 2.600 1_655 S
Eu515 N516 2.562 . S
Eu515 O550 2.335 . S
Eu515 O553 2.372 1_655 S
Eu515 O554 2.462 . S
Eu515 O555 2.373 1_655 S
Eu515 O557 2.432 . S
Eu515 O558 2.291 . S
Eu515 C579 2.787 . S
N516 C512 1.351 1_655 S
N516 Eu515 2.562 . S
N516 C518 1.325 . S
C517 C511 1.404 1_655 S
C517 C519 1.366 . S
C517 H525 0.930 . S
C518 N516 1.325 . S
C518 C519 1.416 . S
C518 H524 0.929 . S
C519 C517 1.366 . S
C519 C518 1.416 . S
C519 H521 0.930 . S
H520 C509 0.930 . S
H521 C519 0.930 . S
H522 C537 0.930 . S
H523 C544 0.930 . S
H524 C518 0.929 . S
H525 C517 0.930 . S
H526 C540 0.929 . S
H527 C507 0.931 . S
H528 C513 0.931 . S
H529 C514 0.931 . S
H530 C535 0.931 . S
H531 C510 0.929 . S
H532 C543 0.930 . S
N533 Eu504 2.600 1_655 S
N533 C534 1.365 . S
N533 C537 1.319 . S
C534 N533 1.365 . S
C534 C536 1.405 . S
C534 C542 1.448 . S
C535 H530 0.931 . S
C535 C537 1.397 . S
C535 C538 1.367 . S
C536 C534 1.405 . S
C536 C538 1.403 . S
C536 C569 1.439 . S
C537 H522 0.930 . S
C537 N533 1.319 . S
C537 C535 1.397 . S
C538 C535 1.367 . S
C538 C536 1.403 . S
C538 H545 0.929 . S
N539 Eu504 2.562 . S
N539 C540 1.325 . S
N539 C542 1.351 1_455 S
C540 H526 0.929 . S
C540 N539 1.325 . S
C540 C544 1.416 . S
C541 C542 1.430 . S
C541 C543 1.404 1_655 S
C541 C570 1.387 . S
C542 C534 1.448 . S
C542 N539 1.351 1_655 S
C542 C541 1.430 . S
C543 H532 0.930 . S
C543 C541 1.404 1_455 S
C543 C544 1.366 . S
C544 H523 0.930 . S
C544 C540 1.416 . S
C544 C543 1.366 . S
H545 C538 0.929 . S
H546 C569 0.931 . S
H547 C570 0.931 . S
O548 Eu504 2.462 . S
O548 C568 1.252 . S
O549 Eu504 2.373 1_655 S
O549 C560 1.249 . S
O550 Eu515 2.335 . S
O550 C560 1.264 . S
O551 Eu504 2.432 . S
O551 C568 1.268 . S
O552 Eu504 2.291 . S
O552 C567 1.255 . S
O553 Eu515 2.372 1_455 S
O553 C567 1.257 . S
O554 Eu515 2.462 . S
O554 C579 1.252 . S
O555 Eu515 2.373 1_455 S
O555 C571 1.249 . S
O556 Eu504 2.335 . S
O556 C571 1.264 . S
O557 Eu515 2.432 . S
O557 C579 1.268 . S
O558 Eu515 2.291 . S
O558 C578 1.255 . S
O559 Eu504 2.372 1_655 S
O559 C578 1.257 . S
C560 O549 1.249 . S
C560 O550 1.264 . S
C561 C564 1.382 . S
C561 C566 1.390 . S
C561 C568 1.506 . S
C562 C563 1.398 . S
C562 C566 1.392 . S
C563 C562 1.398 . S
C563 C565 1.372 . S
C563 H580 0.931 . S
C564 C561 1.382 . S
C564 C565 1.390 . S
C564 H581 0.931 . S
C565 C563 1.372 . S
C565 C564 1.390 . S
C565 H582 0.929 . S
C566 C561 1.390 . S
C566 C562 1.392 . S
C566 H583 0.930 . S
C567 O552 1.255 . S
C567 O553 1.257 . S
C568 Eu504 2.787 . S
C568 O548 1.252 . S
C568 O551 1.268 . S
C568 C561 1.506 . S
C569 C536 1.439 . S
C569 H546 0.931 . S
C569 C570 1.374 . S
C570 C541 1.387 . S
C570 H547 0.931 . S
C570 C569 1.374 . S
C571 O555 1.249 . S
C571 O556 1.264 . S
C572 C575 1.382 . S
C572 C576 1.390 . S
C572 C579 1.506 . S
C573 C574 1.398 . S
C573 C576 1.392 . S
C574 C573 1.398 . S
C574 C577 1.372 . S
C574 H584 0.931 . S
C575 C572 1.382 . S
C575 C577 1.390 . S
C575 H585 0.931 . S
C576 C572 1.390 . S
C576 C573 1.392 . S
C576 H586 0.930 . S
C577 C574 1.372 . S
C577 C575 1.390 . S
C577 H587 0.929 . S
C578 O558 1.255 . S
C578 O559 1.257 . S
C579 Eu515 2.787 . S
C579 O554 1.252 . S
C579 O557 1.268 . S
C579 C572 1.506 . S
H580 C563 0.931 . S
H581 C564 0.931 . S
H582 C565 0.929 . S
H583 C566 0.930 . S
H584 C574 0.931 . S
H585 C575 0.931 . S
H586 C576 0.930 . S
H587 C577 0.929 . S
Eu588 N617 2.600 1_545 S
Eu588 N623 2.562 . S
Eu588 O632 2.462 . S
Eu588 O633 2.373 1_545 S
Eu588 O635 2.432 . S
Eu588 O636 2.291 . S
Eu588 O640 2.335 . S
Eu588 O643 2.372 1_545 S
Eu588 C652 2.787 . S
C589 N590 1.365 . S
C589 C592 1.405 . S
C589 C596 1.448 . S
N590 C589 1.365 . S
N590 C593 1.319 . S
N590 Eu599 2.600 1_545 S
C591 C593 1.397 . S
C591 C594 1.367 . S
C591 H611 0.931 . S
C592 C589 1.405 . S
C592 C594 1.403 . S
C592 C598 1.439 . S
C593 N590 1.319 . S
C593 C591 1.397 . S
C593 H604 0.930 . S
C594 C591 1.367 . S
C594 C592 1.403 . S
C594 H615 0.929 . S
C595 C596 1.430 . S
C595 C597 1.387 . S
C595 C601 1.404 1_545 S
C596 C589 1.448 . S
C596 C595 1.430 . S
C596 N600 1.351 1_545 S
C597 C595 1.387 . S
C597 C598 1.374 . S
C597 H612 0.931 . S
C598 C592 1.439 . S
C598 C597 1.374 . S
C598 H613 0.931 . S
Eu599 N590 2.600 1_565 S
Eu599 N600 2.562 . S
Eu599 O634 2.335 . S
Eu599 O637 2.372 1_565 S
Eu599 O638 2.462 . S
Eu599 O639 2.373 1_565 S
Eu599 O641 2.432 . S
Eu599 O642 2.291 . S
Eu599 C663 2.787 . S
N600 C596 1.351 1_565 S
N600 Eu599 2.562 . S
N600 C602 1.325 . S
C601 C595 1.404 1_565 S
C601 C603 1.366 . S
C601 H609 0.930 . S
C602 N600 1.325 . S
C602 C603 1.416 . S
C602 H608 0.929 . S
C603 C601 1.366 . S
C603 C602 1.416 . S
C603 H605 0.930 . S
H604 C593 0.930 . S
H605 C603 0.930 . S
H606 C621 0.930 . S
H607 C628 0.930 . S
H608 C602 0.929 . S
H609 C601 0.930 . S
H610 C624 0.929 . S
H611 C591 0.931 . S
H612 C597 0.931 . S
H613 C598 0.931 . S
H614 C619 0.931 . S
H615 C594 0.929 . S
H616 C627 0.930 . S
N617 Eu588 2.600 1_565 S
N617 C618 1.365 . S
N617 C621 1.319 . S
C618 N617 1.365 . S
C618 C620 1.405 . S
C618 C626 1.448 . S
C619 H614 0.931 . S
C619 C621 1.397 . S
C619 C622 1.367 . S
C620 C618 1.405 . S
C620 C622 1.403 . S
C620 C653 1.439 . S
C621 H606 0.930 . S
C621 N617 1.319 . S
C621 C619 1.397 . S
C622 C619 1.367 . S
C622 C620 1.403 . S
C622 H629 0.929 . S
N623 Eu588 2.562 . S
N623 C624 1.325 . S
N623 C626 1.351 1_545 S
C624 H610 0.929 . S
C624 N623 1.325 . S
C624 C628 1.416 . S
C625 C626 1.430 . S
C625 C627 1.404 1_565 S
C625 C654 1.387 . S
C626 C618 1.448 . S
C626 N623 1.351 1_565 S
C626 C625 1.430 . S
C627 H616 0.930 . S
C627 C625 1.404 1_545 S
C627 C628 1.366 . S
C628 H607 0.930 . S
C628 C624 1.416 . S
C628 C627 1.366 . S
H629 C622 0.929 . S
H630 C653 0.931 . S
H631 C654 0.931 . S
O632 Eu588 2.462 . S
O632 C652 1.252 . S
O633 Eu588 2.373 1_565 S
O633 C644 1.249 . S
O634 Eu599 2.335 . S
O634 C644 1.264 . S
O635 Eu588 2.432 . S
O635 C652 1.268 . S
O636 Eu588 2.291 . S
O636 C651 1.255 . S
O637 Eu599 2.372 1_545 S
O637 C651 1.257 . S
O638 Eu599 2.462 . S
O638 C663 1.252 . S
O639 Eu599 2.373 1_545 S
O639 C655 1.249 . S
O640 Eu588 2.335 . S
O640 C655 1.264 . S
O641 Eu599 2.432 . S
O641 C663 1.268 . S
O642 Eu599 2.291 . S
O642 C662 1.255 . S
O643 Eu588 2.372 1_565 S
O643 C662 1.257 . S
C644 O633 1.249 . S
C644 O634 1.264 . S
C645 C648 1.382 . S
C645 C650 1.390 . S
C645 C652 1.506 . S
C646 C647 1.398 . S
C646 C650 1.392 . S
C647 C646 1.398 . S
C647 C649 1.372 . S
C647 H664 0.931 . S
C648 C645 1.382 . S
C648 C649 1.390 . S
C648 H665 0.931 . S
C649 C647 1.372 . S
C649 C648 1.390 . S
C649 H666 0.929 . S
C650 C645 1.390 . S
C650 C646 1.392 . S
C650 H667 0.930 . S
C651 O636 1.255 . S
C651 O637 1.257 . S
C652 Eu588 2.787 . S
C652 O632 1.252 . S
C652 O635 1.268 . S
C652 C645 1.506 . S
C653 C620 1.439 . S
C653 H630 0.931 . S
C653 C654 1.374 . S
C654 C625 1.387 . S
C654 H631 0.931 . S
C654 C653 1.374 . S
C655 O639 1.249 . S
C655 O640 1.264 . S
C656 C659 1.382 . S
C656 C660 1.390 . S
C656 C663 1.506 . S
C657 C658 1.398 . S
C657 C660 1.392 . S
C658 C657 1.398 . S
C658 C661 1.372 . S
C658 H668 0.931 . S
C659 C656 1.382 . S
C659 C661 1.390 . S
C659 H669 0.931 . S
C660 C656 1.390 . S
C660 C657 1.392 . S
C660 H670 0.930 . S
C661 C658 1.372 . S
C661 C659 1.390 . S
C661 H671 0.929 . S
C662 O642 1.255 . S
C662 O643 1.257 . S
C663 Eu599 2.787 . S
C663 O638 1.252 . S
C663 O641 1.268 . S
C663 C656 1.506 . S
H664 C647 0.931 . S
H665 C648 0.931 . S
H666 C649 0.929 . S
H667 C650 0.930 . S
H668 C658 0.931 . S
H669 C659 0.931 . S
H670 C660 0.930 . S
H671 C661 0.929 . S
Eu672 N701 2.600 . S
Eu672 N707 2.562 . S
Eu672 O716 2.462 . S
Eu672 O717 2.373 . S
Eu672 O719 2.432 . S
Eu672 O720 2.291 . S
Eu672 O724 2.335 . S
Eu672 O727 2.372 . S
Eu672 C736 2.787 . S
C673 N674 1.365 . S
C673 C676 1.405 . S
C673 C680 1.448 . S
N674 C673 1.365 . S
N674 C677 1.319 . S
N674 Eu683 2.600 . S
C675 C677 1.397 . S
C675 C678 1.367 . S
C675 H695 0.931 . S
C676 C673 1.405 . S
C676 C678 1.403 . S
C676 C682 1.439 . S
C677 N674 1.319 . S
C677 C675 1.397 . S
C677 H688 0.930 . S
C678 C675 1.367 . S
C678 C676 1.403 . S
C678 H699 0.929 . S
C679 C680 1.430 . S
C679 C681 1.387 . S
C679 C685 1.404 . S
C680 C673 1.448 . S
C680 C679 1.430 . S
C680 N684 1.351 . S
C681 C679 1.387 . S
C681 C682 1.374 . S
C681 H696 0.931 . S
C682 C676 1.439 . S
C682 C681 1.374 . S
C682 H697 0.931 . S
Eu683 N674 2.600 . S
Eu683 N684 2.562 . S
Eu683 O718 2.335 . S
Eu683 O721 2.372 . S
Eu683 O722 2.462 . S
Eu683 O723 2.373 . S
Eu683 O725 2.432 . S
Eu683 O726 2.291 . S
Eu683 C747 2.787 . S
N684 C680 1.351 . S
N684 Eu683 2.562 . S
N684 C686 1.325 . S
C685 C679 1.404 . S
C685 C687 1.366 . S
C685 H693 0.930 . S
C686 N684 1.325 . S
C686 C687 1.416 . S
C686 H692 0.929 . S
C687 C685 1.366 . S
C687 C686 1.416 . S
C687 H689 0.930 . S
H688 C677 0.930 . S
H689 C687 0.930 . S
H690 C705 0.930 . S
H691 C712 0.930 . S
H692 C686 0.929 . S
H693 C685 0.930 . S
H694 C708 0.929 . S
H695 C675 0.931 . S
H696 C681 0.931 . S
H697 C682 0.931 . S
H698 C703 0.931 . S
H699 C678 0.929 . S
H700 C711 0.930 . S
N701 Eu672 2.600 . S
N701 C702 1.365 . S
N701 C705 1.319 . S
C702 N701 1.365 . S
C702 C704 1.405 . S
C702 C710 1.448 . S
C703 H698 0.931 . S
C703 C705 1.397 . S
C703 C706 1.367 . S
C704 C702 1.405 . S
C704 C706 1.403 . S
C704 C737 1.439 . S
C705 H690 0.930 . S
C705 N701 1.319 . S
C705 C703 1.397 . S
C706 C703 1.367 . S
C706 C704 1.403 . S
C706 H713 0.929 . S
N707 Eu672 2.562 . S
N707 C708 1.325 . S
N707 C710 1.351 . S
C708 H694 0.929 . S
C708 N707 1.325 . S
C708 C712 1.416 . S
C709 C710 1.430 . S
C709 C711 1.404 . S
C709 C738 1.387 . S
C710 C702 1.448 . S
C710 N707 1.351 . S
C710 C709 1.430 . S
C711 H700 0.930 . S
C711 C709 1.404 . S
C711 C712 1.366 . S
C712 H691 0.930 . S
C712 C708 1.416 . S
C712 C711 1.366 . S
H713 C706 0.929 . S
H714 C737 0.931 . S
H715 C738 0.931 . S
O716 Eu672 2.462 . S
O716 C736 1.252 . S
O717 Eu672 2.373 . S
O717 C728 1.249 . S
O718 Eu683 2.335 . S
O718 C728 1.264 . S
O719 Eu672 2.432 . S
O719 C736 1.268 . S
O720 Eu672 2.291 . S
O720 C735 1.255 . S
O721 Eu683 2.372 . S
O721 C735 1.257 . S
O722 Eu683 2.462 . S
O722 C747 1.252 . S
O723 Eu683 2.373 . S
O723 C739 1.249 . S
O724 Eu672 2.335 . S
O724 C739 1.264 . S
O725 Eu683 2.432 . S
O725 C747 1.268 . S
O726 Eu683 2.291 . S
O726 C746 1.255 . S
O727 Eu672 2.372 . S
O727 C746 1.257 . S
C728 O717 1.249 . S
C728 O718 1.264 . S
C729 C732 1.382 . S
C729 C734 1.390 . S
C729 C736 1.506 . S
C730 C731 1.398 . S
C730 C734 1.392 . S
C731 C730 1.398 . S
C731 C733 1.372 . S
C731 H748 0.931 . S
C732 C729 1.382 . S
C732 C733 1.390 . S
C732 H749 0.931 . S
C733 C731 1.372 . S
C733 C732 1.390 . S
C733 H750 0.929 . S
C734 C729 1.390 . S
C734 C730 1.392 . S
C734 H751 0.930 . S
C735 O720 1.255 . S
C735 O721 1.257 . S
C736 Eu672 2.787 . S
C736 O716 1.252 . S
C736 O719 1.268 . S
C736 C729 1.506 . S
C737 C704 1.439 . S
C737 H714 0.931 . S
C737 C738 1.374 . S
C738 C709 1.387 . S
C738 H715 0.931 . S
C738 C737 1.374 . S
C739 O723 1.249 . S
C739 O724 1.264 . S
C740 C743 1.382 . S
C740 C744 1.390 . S
C740 C747 1.506 . S
C741 C742 1.398 . S
C741 C744 1.392 . S
C742 C741 1.398 . S
C742 C745 1.372 . S
C742 H752 0.931 . S
C743 C740 1.382 . S
C743 C745 1.390 . S
C743 H753 0.931 . S
C744 C740 1.390 . S
C744 C741 1.392 . S
C744 H754 0.930 . S
C745 C742 1.372 . S
C745 C743 1.390 . S
C745 H755 0.929 . S
C746 O726 1.255 . S
C746 O727 1.257 . S
C747 Eu683 2.787 . S
C747 O722 1.252 . S
C747 O725 1.268 . S
C747 C740 1.506 . S
H748 C731 0.931 . S
H749 C732 0.931 . S
H750 C733 0.929 . S
H751 C734 0.930 . S
H752 C742 0.931 . S
H753 C743 0.931 . S
H754 C744 0.930 . S
H755 C745 0.929 . S
Eu756 N785 2.600 1_656 S
Eu756 N791 2.562 . S
Eu756 O800 2.460 1_556 S
Eu756 O801 2.373 1_655 S
Eu756 O803 2.432 1_556 S
Eu756 O804 2.291 . S
Eu756 O808 2.352 . S
Eu756 O811 2.372 1_656 S
Eu756 C820 2.787 1_556 S
C757 N758 1.365 . S
C757 C760 1.405 . S
C757 C764 1.448 . S
N758 C757 1.365 . S
N758 C761 1.319 . S
N758 Eu767 2.600 1_655 S
C759 C761 1.397 . S
C759 C762 1.367 . S
C759 H779 0.931 . S
C760 C757 1.405 . S
C760 C762 1.403 . S
C760 C766 1.439 . S
C761 N758 1.319 . S
C761 C759 1.397 . S
C761 H772 0.930 . S
C762 C759 1.367 . S
C762 C760 1.403 . S
C762 H783 0.929 . S
C763 C764 1.430 . S
C763 C765 1.387 . S
C763 C769 1.404 1_655 S
C764 C757 1.448 . S
C764 C763 1.430 . S
C764 N768 1.351 1_655 S
C765 C763 1.387 . S
C765 C766 1.374 . S
C765 H780 0.931 . S
C766 C760 1.439 . S
C766 C765 1.374 . S
C766 H781 0.931 . S
Eu767 N758 2.600 1_455 S
Eu767 N768 2.562 . S
Eu767 O802 2.335 . S
Eu767 O805 2.372 1_455 S
Eu767 O806 2.462 . S
Eu767 O807 2.373 1_455 S
Eu767 O809 2.432 . S
Eu767 O810 2.291 . S
Eu767 C831 2.787 . S
N768 C764 1.351 1_455 S
N768 Eu767 2.562 . S
N768 C770 1.325 . S
C769 C763 1.404 1_455 S
C769 C771 1.366 . S
C769 H777 0.930 . S
C770 N768 1.325 . S
C770 C771 1.416 . S
C770 H776 0.929 . S
C771 C769 1.366 . S
C771 C770 1.416 . S
C771 H773 0.930 . S
H772 C761 0.930 . S
H773 C771 0.930 . S
H774 C789 0.930 . S
H775 C796 0.930 . S
H776 C770 0.929 . S
H777 C769 0.930 . S
H778 C792 0.929 . S
H779 C759 0.931 . S
H780 C765 0.931 . S
H781 C766 0.931 . S
H782 C787 0.931 . S
H783 C762 0.929 . S
H784 C795 0.930 . S
N785 Eu756 2.600 1_454 S
N785 C786 1.365 1_554 S
N785 C789 1.319 . S
C786 N785 1.365 1_556 S
C786 C788 1.416 . S
C786 C794 1.448 . S
C787 H782 0.931 . S
C787 C789 1.397 . S
C787 C790 1.367 . S
C788 C786 1.416 . S
C788 C790 1.374 1_556 S
C788 C821 1.459 . S
C789 H774 0.930 . S
C789 N785 1.319 . S
C789 C787 1.397 . S
C790 C787 1.367 . S
C790 C788 1.374 1_554 S
C790 H797 0.929 . S
N791 Eu756 2.562 . S
N791 C792 1.325 . S
N791 C794 1.351 1_655 S
C792 H778 0.929 . S
C792 N791 1.325 . S
C792 C796 1.416 . S
C793 C794 1.430 . S
C793 C795 1.404 1_455 S
C793 C822 1.387 . S
C794 C786 1.448 . S
C794 N791 1.351 1_455 S
C794 C793 1.430 . S
C795 H784 0.930 . S
C795 C793 1.404 1_655 S
C795 C796 1.366 . S
C796 H775 0.930 . S
C796 C792 1.416 . S
C796 C795 1.366 . S
H797 C790 0.929 . S
H798 C821 0.931 . S
H799 C822 0.931 . S
O800 Eu756 2.460 1_554 S
O800 C820 1.258 . S
O801 Eu756 2.373 1_455 S
O801 C812 1.249 . S
O802 Eu767 2.335 . S
O802 C812 1.264 . S
O803 Eu756 2.432 1_554 S
O803 C820 1.268 . S
O804 Eu756 2.291 . S
O804 C819 1.255 . S
O805 Eu767 2.372 1_655 S
O805 C819 1.257 . S
O806 Eu767 2.462 . S
O806 C831 1.252 . S
O807 Eu767 2.373 1_655 S
O807 C823 1.249 . S
O808 Eu756 2.352 . S
O808 C823 1.282 . S
O809 Eu767 2.432 . S
O809 C831 1.268 . S
O810 Eu767 2.291 . S
O810 C830 1.255 . S
O811 Eu756 2.372 1_454 S
O811 C830 1.257 1_554 S
C812 O801 1.249 . S
C812 O802 1.264 . S
C813 C816 1.382 . S
C813 C818 1.390 . S
C813 C820 1.506 . S
C814 C815 1.398 . S
C814 C818 1.392 . S
C815 C814 1.398 . S
C815 C817 1.372 . S
C815 H832 0.931 . S
C816 C813 1.382 . S
C816 C817 1.390 . S
C816 H833 0.931 . S
C817 C815 1.372 . S
C817 C816 1.390 . S
C817 H834 0.929 . S
C818 C813 1.390 . S
C818 C814 1.392 . S
C818 H835 0.930 . S
C819 O804 1.255 . S
C819 O805 1.257 . S
C820 Eu756 2.787 1_554 S
C820 O800 1.258 . S
C820 O803 1.268 . S
C820 C813 1.506 . S
C821 C788 1.459 . S
C821 H798 0.931 . S
C821 C822 1.374 . S
C822 C793 1.387 . S
C822 H799 0.931 . S
C822 C821 1.374 . S
C823 O807 1.249 . S
C823 O808 1.282 . S
C824 C827 1.382 . S
C824 C828 1.390 . S
C824 C831 1.506 . S
C825 C826 1.398 . S
C825 C828 1.392 . S
C826 C825 1.398 . S
C826 C829 1.372 . S
C826 H836 0.931 . S
C827 C824 1.382 . S
C827 C829 1.390 . S
C827 H837 0.931 . S
C828 C824 1.390 . S
C828 C825 1.392 . S
C828 H838 0.930 . S
C829 C826 1.372 . S
C829 C827 1.390 . S
C829 H839 0.929 . S
C830 O810 1.255 . S
C830 O811 1.257 1_556 S
C831 Eu767 2.787 . S
C831 O806 1.252 . S
C831 O809 1.268 . S
C831 C824 1.506 . S
H832 C815 0.931 . S
H833 C816 0.931 . S
H834 C817 0.929 . S
H835 C818 0.930 . S
H836 C826 0.931 . S
H837 C827 0.931 . S
H838 C828 0.930 . S
H839 C829 0.929 . S
Eu840 N869 2.600 1_565 S
Eu840 N875 2.562 . S
Eu840 O884 2.462 . S
Eu840 O885 2.373 1_565 S
Eu840 O887 2.432 . S
Eu840 O888 2.291 . S
Eu840 O892 2.335 . S
Eu840 O895 2.372 1_565 S
Eu840 C904 2.787 . S
C841 N842 1.365 . S
C841 C844 1.405 . S
C841 C848 1.448 . S
N842 C841 1.365 . S
N842 C845 1.319 . S
N842 Eu851 2.600 1_565 S
C843 C845 1.397 . S
C843 C846 1.367 . S
C843 H863 0.931 . S
C844 C841 1.405 . S
C844 C846 1.403 . S
C844 C850 1.439 . S
C845 N842 1.319 . S
C845 C843 1.397 . S
C845 H856 0.930 . S
C846 C843 1.367 . S
C846 C844 1.403 . S
C846 H867 0.929 . S
C847 C848 1.430 . S
C847 C849 1.387 . S
C847 C853 1.404 1_565 S
C848 C841 1.448 . S
C848 C847 1.430 . S
C848 N852 1.351 1_565 S
C849 C847 1.387 . S
C849 C850 1.374 . S
C849 H864 0.931 . S
C850 C844 1.439 . S
C850 C849 1.374 . S
C850 H865 0.931 . S
Eu851 N842 2.600 1_545 S
Eu851 N852 2.562 . S
Eu851 O886 2.335 . S
Eu851 O889 2.372 1_545 S
Eu851 O890 2.462 . S
Eu851 O891 2.373 1_545 S
Eu851 O893 2.432 . S
Eu851 O894 2.291 . S
Eu851 C915 2.787 . S
N852 C848 1.351 1_545 S
N852 Eu851 2.562 . S
N852 C854 1.325 . S
C853 C847 1.404 1_545 S
C853 C855 1.366 . S
C853 H861 0.930 . S
C854 N852 1.325 . S
C854 C855 1.416 . S
C854 H860 0.929 . S
C855 C853 1.366 . S
C855 C854 1.416 . S
C855 H857 0.930 . S
H856 C845 0.930 . S
H857 C855 0.930 . S
H858 C873 0.930 . S
H859 C880 0.930 . S
H860 C854 0.929 . S
H861 C853 0.930 . S
H862 C876 0.929 . S
H863 C843 0.931 . S
H864 C849 0.931 . S
H865 C850 0.931 . S
H866 C871 0.931 . S
H867 C846 0.929 . S
H868 C879 0.930 . S
N869 Eu840 2.600 1_545 S
N869 C870 1.365 . S
N869 C873 1.319 . S
C870 N869 1.365 . S
C870 C872 1.405 . S
C870 C878 1.448 . S
C871 H866 0.931 . S
C871 C873 1.397 . S
C871 C874 1.367 . S
C872 C870 1.405 . S
C872 C874 1.403 . S
C872 C905 1.439 . S
C873 H858 0.930 . S
C873 N869 1.319 . S
C873 C871 1.397 . S
C874 C871 1.367 . S
C874 C872 1.403 . S
C874 H881 0.929 . S
N875 Eu840 2.562 . S
N875 C876 1.325 . S
N875 C878 1.351 1_565 S
C876 H862 0.929 . S
C876 N875 1.325 . S
C876 C880 1.416 . S
C877 C878 1.430 . S
C877 C879 1.404 1_545 S
C877 C906 1.387 . S
C878 C870 1.448 . S
C878 N875 1.351 1_545 S
C878 C877 1.430 . S
C879 H868 0.930 . S
C879 C877 1.404 1_565 S
C879 C880 1.366 . S
C880 H859 0.930 . S
C880 C876 1.416 . S
C880 C879 1.366 . S
H881 C874 0.929 . S
H882 C905 0.931 . S
H883 C906 0.931 . S
O884 Eu840 2.462 . S
O884 C904 1.252 . S
O885 Eu840 2.373 1_545 S
O885 C896 1.249 . S
O886 Eu851 2.335 . S
O886 C896 1.264 . S
O887 Eu840 2.432 . S
O887 C904 1.268 . S
O888 Eu840 2.291 . S
O888 C903 1.255 . S
O889 Eu851 2.372 1_565 S
O889 C903 1.257 . S
O890 Eu851 2.462 . S
O890 C915 1.252 . S
O891 Eu851 2.373 1_565 S
O891 C907 1.249 . S
O892 Eu840 2.335 . S
O892 C907 1.264 . S
O893 Eu851 2.432 . S
O893 C915 1.268 . S
O894 Eu851 2.291 . S
O894 C914 1.255 . S
O895 Eu840 2.372 1_545 S
O895 C914 1.257 . S
C896 O885 1.249 . S
C896 O886 1.264 . S
C897 C900 1.382 . S
C897 C902 1.390 . S
C897 C904 1.506 . S
C898 C899 1.398 . S
C898 C902 1.392 . S
C899 C898 1.398 . S
C899 C901 1.372 . S
C899 H916 0.931 . S
C900 C897 1.382 . S
C900 C901 1.390 . S
C900 H917 0.931 . S
C901 C899 1.372 . S
C901 C900 1.390 . S
C901 H918 0.929 . S
C902 C897 1.390 . S
C902 C898 1.392 . S
C902 H919 0.930 . S
C903 O888 1.255 . S
C903 O889 1.257 . S
C904 Eu840 2.787 . S
C904 O884 1.252 . S
C904 O887 1.268 . S
C904 C897 1.506 . S
C905 C872 1.439 . S
C905 H882 0.931 . S
C905 C906 1.374 . S
C906 C877 1.387 . S
C906 H883 0.931 . S
C906 C905 1.374 . S
C907 O891 1.249 . S
C907 O892 1.264 . S
C908 C911 1.382 . S
C908 C912 1.390 . S
C908 C915 1.506 . S
C909 C910 1.398 . S
C909 C912 1.392 . S
C910 C909 1.398 . S
C910 C913 1.372 . S
C910 H920 0.931 . S
C911 C908 1.382 . S
C911 C913 1.390 . S
C911 H921 0.931 . S
C912 C908 1.390 . S
C912 C909 1.392 . S
C912 H922 0.930 . S
C913 C910 1.372 . S
C913 C911 1.390 . S
C913 H923 0.929 . S
C914 O894 1.255 . S
C914 O895 1.257 . S
C915 Eu851 2.787 . S
C915 O890 1.252 . S
C915 O893 1.268 . S
C915 C908 1.506 . S
H916 C899 0.931 . S
H917 C900 0.931 . S
H918 C901 0.929 . S
H919 C902 0.930 . S
H920 C910 0.931 . S
H921 C911 0.931 . S
H922 C912 0.930 . S
H923 C913 0.929 . S
Eu924 N953 2.600 . S
Eu924 N959 2.562 . S
Eu924 O968 2.462 . S
Eu924 O969 2.373 . S
Eu924 O971 2.432 . S
Eu924 O972 2.291 . S
Eu924 O976 2.335 . S
Eu924 O979 2.372 . S
Eu924 C988 2.787 . S
C925 N926 1.365 . S
C925 C928 1.405 . S
C925 C932 1.448 . S
N926 C925 1.365 . S
N926 C929 1.319 . S
N926 Eu935 2.600 . S
C927 C929 1.397 . S
C927 C930 1.367 . S
C927 H947 0.931 . S
C928 C925 1.405 . S
C928 C930 1.403 . S
C928 C934 1.439 . S
C929 N926 1.319 . S
C929 C927 1.397 . S
C929 H940 0.930 . S
C930 C927 1.367 . S
C930 C928 1.403 . S
C930 H951 0.929 . S
C931 C932 1.430 . S
C931 C933 1.387 . S
C931 C937 1.404 . S
C932 C925 1.448 . S
C932 C931 1.430 . S
C932 N936 1.351 . S
C933 C931 1.387 . S
C933 C934 1.374 . S
C933 H948 0.931 . S
C934 C928 1.439 . S
C934 C933 1.374 . S
C934 H949 0.931 . S
Eu935 N926 2.600 . S
Eu935 N936 2.562 . S
Eu935 O970 2.335 . S
Eu935 O973 2.372 . S
Eu935 O974 2.462 . S
Eu935 O975 2.373 . S
Eu935 O977 2.432 . S
Eu935 O978 2.291 . S
Eu935 C999 2.787 . S
N936 C932 1.351 . S
N936 Eu935 2.562 . S
N936 C938 1.325 . S
C937 C931 1.404 . S
C937 C939 1.366 . S
C937 H945 0.930 . S
C938 N936 1.325 . S
C938 C939 1.416 . S
C938 H944 0.929 . S
C939 C937 1.366 . S
C939 C938 1.416 . S
C939 H941 0.930 . S
H940 C929 0.930 . S
H941 C939 0.930 . S
H942 C957 0.930 . S
H943 C964 0.930 . S
H944 C938 0.929 . S
H945 C937 0.930 . S
H946 C960 0.929 . S
H947 C927 0.931 . S
H948 C933 0.931 . S
H949 C934 0.931 . S
H950 C955 0.931 . S
H951 C930 0.929 . S
H952 C963 0.930 . S
N953 Eu924 2.600 . S
N953 C954 1.365 . S
N953 C957 1.319 . S
C954 N953 1.365 . S
C954 C956 1.405 . S
C954 C962 1.448 . S
C955 H950 0.931 . S
C955 C957 1.397 . S
C955 C958 1.367 . S
C956 C954 1.405 . S
C956 C958 1.403 . S
C956 C989 1.439 . S
C957 H942 0.930 . S
C957 N953 1.319 . S
C957 C955 1.397 . S
C958 C955 1.367 . S
C958 C956 1.403 . S
C958 H965 0.929 . S
N959 Eu924 2.562 . S
N959 C960 1.325 . S
N959 C962 1.351 . S
C960 H946 0.929 . S
C960 N959 1.325 . S
C960 C964 1.416 . S
C961 C962 1.430 . S
C961 C963 1.404 . S
C961 C990 1.387 . S
C962 C954 1.448 . S
C962 N959 1.351 . S
C962 C961 1.430 . S
C963 H952 0.930 . S
C963 C961 1.404 . S
C963 C964 1.366 . S
C964 H943 0.930 . S
C964 C960 1.416 . S
C964 C963 1.366 . S
H965 C958 0.929 . S
H966 C989 0.931 . S
H967 C990 0.931 . S
O968 Eu924 2.462 . S
O968 C988 1.252 . S
O969 Eu924 2.373 . S
O969 C980 1.249 . S
O970 Eu935 2.335 . S
O970 C980 1.264 . S
O971 Eu924 2.432 . S
O971 C988 1.268 . S
O972 Eu924 2.291 . S
O972 C987 1.255 . S
O973 Eu935 2.372 . S
O973 C987 1.257 . S
O974 Eu935 2.462 . S
O974 C999 1.252 . S
O975 Eu935 2.373 . S
O975 C991 1.249 . S
O976 Eu924 2.335 . S
O976 C991 1.264 . S
O977 Eu935 2.432 . S
O977 C999 1.268 . S
O978 Eu935 2.291 . S
O978 C998 1.255 . S
O979 Eu924 2.372 . S
O979 C998 1.257 . S
C980 O969 1.249 . S
C980 O970 1.264 . S
C981 C984 1.382 . S
C981 C986 1.390 . S
C981 C988 1.506 . S
C982 C983 1.398 . S
C982 C986 1.392 . S
C983 C982 1.398 . S
C983 C985 1.372 . S
C983 H1000 0.931 . S
C984 C981 1.382 . S
C984 C985 1.390 . S
C984 H1001 0.931 . S
C985 C983 1.372 . S
C985 C984 1.390 . S
C985 H1002 0.929 . S
C986 C981 1.390 . S
C986 C982 1.392 . S
C986 H1003 0.930 . S
C987 O972 1.255 . S
C987 O973 1.257 . S
C988 Eu924 2.787 . S
C988 O968 1.252 . S
C988 O971 1.268 . S
C988 C981 1.506 . S
C989 C956 1.439 . S
C989 H966 0.931 . S
C989 C990 1.374 . S
C990 C961 1.387 . S
C990 H967 0.931 . S
C990 C989 1.374 . S
C991 O975 1.249 . S
C991 O976 1.264 . S
C992 C995 1.382 . S
C992 C996 1.390 . S
C992 C999 1.506 . S
C993 C994 1.398 . S
C993 C996 1.392 . S
C994 C993 1.398 . S
C994 C997 1.372 . S
C994 H1004 0.931 . S
C995 C992 1.382 . S
C995 C997 1.390 . S
C995 H1005 0.931 . S
C996 C992 1.390 . S
C996 C993 1.392 . S
C996 H1006 0.930 . S
C997 C994 1.372 . S
C997 C995 1.390 . S
C997 H1007 0.929 . S
C998 O978 1.255 . S
C998 O979 1.257 . S
C999 Eu935 2.787 . S
C999 O974 1.252 . S
C999 O977 1.268 . S
C999 C992 1.506 . S
H1000 C983 0.931 . S
H1001 C984 0.931 . S
H1002 C985 0.929 . S
H1003 C986 0.930 . S
H1004 C994 0.931 . S
H1005 C995 0.931 . S
H1006 C996 0.930 . S
H1007 C997 0.929 . S
C1008 C1009 1.363 . S
C1008 C1014 1.379 . S
C1008 N1016 1.356 . S
C1009 C1008 1.363 . S
C1009 C1015 1.363 . S
C1010 C1011 1.363 . S
C1010 C1015 1.379 . S
C1010 N1017 1.356 . S
C1011 C1010 1.363 . S
C1011 C1014 1.363 . S
N1012 C1014 1.356 . S
N1012 H1024 0.984 1_455 S
N1012 H1025 0.985 . S
N1013 C1015 1.356 . S
N1013 H1018 0.984 . S
N1013 H1019 0.985 . S
C1014 C1008 1.379 . S
C1014 C1011 1.363 . S
C1014 N1012 1.356 . S
C1015 C1009 1.363 . S
C1015 C1010 1.379 . S
C1015 N1013 1.356 . S
N1016 C1008 1.356 . S
N1016 H1022 0.984 1_455 S
N1016 H1023 0.984 . S
N1017 C1010 1.356 . S
N1017 H1020 0.984 . S
N1017 H1021 0.985 . S
H1018 N1013 0.984 . S
H1019 N1013 0.985 . S
H1020 N1017 0.984 . S
H1021 N1017 0.985 . S
H1022 N1016 0.984 1_655 S
H1023 N1016 0.984 . S
H1024 N1012 0.984 1_655 S
H1025 N1012 0.985 . S
C1026 C1027 1.363 . S
C1026 C1032 1.379 . S
C1026 N1034 1.356 . S
C1027 C1026 1.363 . S
C1027 C1033 1.363 . S
C1028 C1029 1.363 . S
C1028 C1033 1.379 . S
C1028 N1035 1.356 . S
C1029 C1028 1.363 . S
C1029 C1032 1.363 . S
N1030 C1032 1.356 . S
N1030 H1042 0.984 . S
N1030 H1043 0.985 . S
N1031 C1033 1.356 1_565 S
N1031 H1036 0.984 1_565 S
N1031 H1037 0.985 . S
C1032 C1026 1.379 . S
C1032 C1029 1.363 . S
C1032 N1030 1.356 . S
C1033 C1027 1.363 . S
C1033 C1028 1.379 . S
C1033 N1031 1.356 1_545 S
N1034 C1026 1.356 . S
N1034 H1040 0.984 . S
N1034 H1041 0.984 . S
N1035 C1028 1.356 . S
N1035 H1038 0.984 . S
N1035 H1039 0.985 1_545 S
H1036 N1031 0.984 1_545 S
H1037 N1031 0.985 . S
H1038 N1035 0.984 . S
H1039 N1035 0.985 1_565 S
H1040 N1034 0.984 . S
H1041 N1034 0.984 . S
H1042 N1030 0.984 . S
H1043 N1030 0.985 . S
C1044 C1045 1.363 . S
C1044 C1050 1.379 . S
C1044 N1052 1.356 . S
C1045 C1044 1.363 . S
C1045 C1051 1.363 . S
C1046 C1047 1.363 . S
C1046 C1051 1.379 . S
C1046 N1053 1.356 . S
C1047 C1046 1.363 . S
C1047 C1050 1.363 . S
N1048 C1050 1.356 . S
N1048 H1060 0.984 . S
N1048 H1061 0.985 . S
N1049 C1051 1.356 . S
N1049 H1054 0.984 . S
N1049 H1055 0.985 . S
C1050 C1044 1.379 . S
C1050 C1047 1.363 . S
C1050 N1048 1.356 . S
C1051 C1045 1.363 . S
C1051 C1046 1.379 . S
C1051 N1049 1.356 . S
N1052 C1044 1.356 . S
N1052 H1058 0.984 . S
N1052 H1059 0.984 . S
N1053 C1046 1.356 . S
N1053 H1056 0.984 . S
N1053 H1057 0.985 . S
H1054 N1049 0.984 . S
H1055 N1049 0.985 . S
H1056 N1053 0.984 . S
H1057 N1053 0.985 . S
H1058 N1052 0.984 . S
H1059 N1052 0.984 . S
H1060 N1048 0.984 . S
H1061 N1048 0.985 . S
C1062 C1063 1.363 . S
C1062 C1068 1.379 . S
C1062 N1070 1.356 . S
C1063 C1062 1.363 . S
C1063 C1069 1.363 . S
C1064 C1065 1.363 . S
C1064 C1069 1.379 . S
C1064 N1071 1.356 . S
C1065 C1064 1.363 . S
C1065 C1068 1.363 . S
N1066 C1068 1.356 . S
N1066 H1078 0.984 . S
N1066 H1079 0.985 . S
N1067 C1069 1.356 . S
N1067 H1072 0.984 . S
N1067 H1073 0.985 1_655 S
C1068 C1062 1.379 . S
C1068 C1065 1.363 . S
C1068 N1066 1.356 . S
C1069 C1063 1.363 . S
C1069 C1064 1.379 . S
C1069 N1067 1.356 . S
N1070 C1062 1.356 . S
N1070 H1076 0.984 . S
N1070 H1077 0.984 . S
N1071 C1064 1.356 . S
N1071 H1074 0.984 . S
N1071 H1075 0.985 1_655 S
H1072 N1067 0.984 . S
H1073 N1067 0.985 1_455 S
H1074 N1071 0.984 . S
H1075 N1071 0.985 1_455 S
H1076 N1070 0.984 . S
H1077 N1070 0.984 . S
H1078 N1066 0.984 . S
H1079 N1066 0.985 . S
C1080 C1081 1.363 . S
C1080 C1086 1.379 . S
C1080 N1088 1.356 . S
C1081 C1080 1.363 . S
C1081 C1087 1.363 . S
C1082 C1083 1.363 . S
C1082 C1087 1.379 . S
C1082 N1089 1.356 1_565 S
C1083 C1082 1.363 . S
C1083 C1086 1.363 . S
N1084 C1086 1.356 . S
N1084 H1096 0.984 . S
N1084 H1097 0.985 . S
N1085 C1087 1.356 1_545 S
N1085 H1090 0.984 1_545 S
N1085 H1091 0.985 . S
C1086 C1080 1.379 . S
C1086 C1083 1.363 . S
C1086 N1084 1.356 . S
C1087 C1081 1.363 . S
C1087 C1082 1.379 . S
C1087 N1085 1.356 1_565 S
N1088 C1080 1.356 . S
N1088 H1094 0.984 . S
N1088 H1095 0.984 . S
N1089 C1082 1.356 1_545 S
N1089 H1092 0.984 . S
N1089 H1093 0.985 . S
H1090 N1085 0.984 1_565 S
H1091 N1085 0.985 . S
H1092 N1089 0.984 . S
H1093 N1089 0.985 . S
H1094 N1088 0.984 . S
H1095 N1088 0.984 . S
H1096 N1084 0.984 . S
H1097 N1084 0.985 . S
C1098 C1099 1.363 . S
C1098 C1104 1.379 . S
C1098 N1106 1.356 . S
C1099 C1098 1.363 . S
C1099 C1105 1.363 . S
C1100 C1101 1.363 . S
C1100 C1105 1.379 . S
C1100 N1107 1.356 . S
C1101 C1100 1.363 . S
C1101 C1104 1.363 . S
N1102 C1104 1.356 . S
N1102 H1114 0.984 . S
N1102 H1115 0.985 . S
N1103 C1105 1.356 . S
N1103 H1108 0.984 . S
N1103 H1109 0.985 . S
C1104 C1098 1.379 . S
C1104 C1101 1.363 . S
C1104 N1102 1.356 . S
C1105 C1099 1.363 . S
C1105 C1100 1.379 . S
C1105 N1103 1.356 . S
N1106 C1098 1.356 . S
N1106 H1112 0.984 . S
N1106 H1113 0.984 . S
N1107 C1100 1.356 . S
N1107 H1110 0.984 . S
N1107 H1111 0.985 . S
H1108 N1103 0.984 . S
H1109 N1103 0.985 . S
H1110 N1107 0.984 . S
H1111 N1107 0.985 . S
H1112 N1106 0.984 . S
H1113 N1106 0.984 . S
H1114 N1102 0.984 . S
H1115 N1102 0.985 . S
C1116 C1117 1.363 . S
C1116 C1122 1.379 . S
C1116 N1124 1.356 . S
C1117 C1116 1.363 . S
C1117 C1123 1.363 . S
C1118 C1119 1.363 . S
C1118 C1123 1.379 . S
C1118 N1125 1.356 . S
C1119 C1118 1.363 . S
C1119 C1122 1.363 . S
N1120 C1122 1.356 . S
N1120 H1132 0.984 1_565 S
N1120 H1133 0.985 . S
N1121 C1123 1.356 . S
N1121 H1126 0.984 . S
N1121 H1127 0.985 . S
C1122 C1116 1.379 . S
C1122 C1119 1.363 . S
C1122 N1120 1.356 . S
C1123 C1117 1.363 . S
C1123 C1118 1.379 . S
C1123 N1121 1.356 . S
N1124 C1116 1.356 . S
N1124 H1130 0.984 1_565 S
N1124 H1131 0.984 . S
N1125 C1118 1.356 . S
N1125 H1128 0.984 . S
N1125 H1129 0.985 . S
H1126 N1121 0.984 . S
H1127 N1121 0.985 . S
H1128 N1125 0.984 . S
H1129 N1125 0.985 . S
H1130 N1124 0.984 1_545 S
H1131 N1124 0.984 . S
H1132 N1120 0.984 1_545 S
H1133 N1120 0.985 . S
C1134 C1135 1.363 . S
C1134 C1140 1.379 . S
C1134 N1142 1.356 . S
C1135 C1134 1.363 . S
C1135 C1141 1.363 . S
C1136 C1137 1.363 . S
C1136 C1141 1.379 . S
C1136 N1143 1.356 . S
C1137 C1136 1.363 . S
C1137 C1140 1.363 . S
N1138 C1140 1.356 . S
N1138 H1150 0.984 . S
N1138 H1151 0.985 . S
N1139 C1141 1.356 . S
N1139 H1144 0.984 . S
N1139 H1145 0.985 . S
C1140 C1134 1.379 . S
C1140 C1137 1.363 . S
C1140 N1138 1.356 . S
C1141 C1135 1.363 . S
C1141 C1136 1.379 . S
C1141 N1139 1.356 . S
N1142 C1134 1.356 . S
N1142 H1148 0.984 . S
N1142 H1149 0.984 . S
N1143 C1136 1.356 . S
N1143 H1146 0.984 . S
N1143 H1147 0.985 . S
H1144 N1139 0.984 . S
H1145 N1139 0.985 . S
H1146 N1143 0.984 . S
H1147 N1143 0.985 . S
H1148 N1142 0.984 . S
H1149 N1142 0.984 . S
H1150 N1138 0.984 . S
H1151 N1138 0.985 . S
C1152 C1153 1.363 . S
C1152 C1158 1.379 . S
C1152 N1160 1.356 . S
C1153 C1152 1.363 . S
C1153 C1159 1.363 . S
C1154 C1155 1.363 . S
C1154 C1159 1.379 . S
C1154 N1161 1.356 . S
C1155 C1154 1.363 . S
C1155 C1158 1.363 . S
N1156 C1158 1.356 . S
N1156 H1168 0.984 . S
N1156 H1169 0.985 . S
N1157 C1159 1.356 . S
N1157 H1162 0.984 . S
N1157 H1163 0.985 1_455 S
C1158 C1152 1.379 . S
C1158 C1155 1.363 . S
C1158 N1156 1.356 . S
C1159 C1153 1.363 . S
C1159 C1154 1.379 . S
C1159 N1157 1.356 . S
N1160 C1152 1.356 . S
N1160 H1166 0.984 . S
N1160 H1167 0.984 . S
N1161 C1154 1.356 . S
N1161 H1164 0.984 . S
N1161 H1165 0.985 1_455 S
H1162 N1157 0.984 . S
H1163 N1157 0.985 1_655 S
H1164 N1161 0.984 . S
H1165 N1161 0.985 1_655 S
H1166 N1160 0.984 . S
H1167 N1160 0.984 . S
H1168 N1156 0.984 . S
H1169 N1156 0.985 . S
C1170 C1171 1.363 . S
C1170 C1176 1.379 . S
C1170 N1178 1.356 . S
C1171 C1170 1.363 . S
C1171 C1177 1.363 . S
C1172 C1173 1.363 . S
C1172 C1177 1.379 . S
C1172 N1179 1.356 . S
C1173 C1172 1.363 . S
C1173 C1176 1.363 . S
N1174 C1176 1.356 . S
N1174 H1186 0.984 . S
N1174 H1187 0.985 . S
N1175 C1177 1.356 . S
N1175 H1180 0.984 . S
N1175 H1181 0.985 1_545 S
C1176 C1170 1.379 . S
C1176 C1173 1.363 . S
C1176 N1174 1.356 . S
C1177 C1171 1.363 . S
C1177 C1172 1.379 . S
C1177 N1175 1.356 . S
N1178 C1170 1.356 . S
N1178 H1184 0.984 . S
N1178 H1185 0.984 . S
N1179 C1172 1.356 . S
N1179 H1182 0.984 . S
N1179 H1183 0.963 1_545 S
H1180 N1175 0.984 . S
H1181 N1175 0.985 1_565 S
H1182 N1179 0.984 . S
H1183 N1179 0.963 1_565 S
H1184 N1178 0.984 . S
H1185 N1178 0.984 . S
H1186 N1174 0.984 . S
H1187 N1174 0.985 . S
C1188 C1189 1.363 . S
C1188 C1194 1.379 . S
C1188 N1196 1.356 . S
C1189 C1188 1.363 . S
C1189 C1195 1.363 . S
C1190 C1191 1.363 . S
C1190 C1195 1.379 . S
C1190 N1197 1.356 . S
C1191 C1190 1.363 . S
C1191 C1194 1.363 . S
N1192 C1194 1.356 . S
N1192 H1204 0.984 . S
N1192 H1205 0.985 . S
N1193 C1195 1.356 . S
N1193 H1198 0.984 . S
N1193 H1199 0.985 . S
C1194 C1188 1.379 . S
C1194 C1191 1.363 . S
C1194 N1192 1.356 . S
C1195 C1189 1.363 . S
C1195 C1190 1.379 . S
C1195 N1193 1.356 . S
N1196 C1188 1.356 . S
N1196 H1202 0.984 . S
N1196 H1203 0.984 . S
N1197 C1190 1.356 . S
N1197 H1200 0.984 . S
N1197 H1201 0.985 . S
H1198 N1193 0.984 . S
H1199 N1193 0.985 . S
H1200 N1197 0.984 . S
H1201 N1197 0.985 . S
H1202 N1196 0.984 . S
H1203 N1196 0.984 . S
H1204 N1192 0.984 . S
H1205 N1192 0.985 . S
C1206 C1207 1.363 . S
C1206 C1212 1.379 . S
C1206 N1214 1.356 . S
C1207 C1206 1.363 . S
C1207 C1213 1.363 . S
C1208 C1209 1.363 . S
C1208 C1213 1.379 . S
C1208 N1215 1.356 . S
C1209 C1208 1.363 . S
C1209 C1212 1.363 . S
N1210 C1212 1.356 . S
N1210 H1222 0.984 . S
N1210 H1223 0.985 . S
N1211 C1213 1.356 . S
N1211 H1216 0.984 . S
N1211 H1217 0.985 . S
C1212 C1206 1.379 . S
C1212 C1209 1.363 . S
C1212 N1210 1.356 . S
C1213 C1207 1.363 . S
C1213 C1208 1.379 . S
C1213 N1211 1.356 . S
N1214 C1206 1.356 . S
N1214 H1220 0.984 . S
N1214 H1221 0.984 . S
N1215 C1208 1.356 . S
N1215 H1218 0.984 . S
N1215 H1219 0.985 . S
H1216 N1211 0.984 . S
H1217 N1211 0.985 . S
H1218 N1215 0.984 . S
H1219 N1215 0.985 . S
H1220 N1214 0.984 . S
H1221 N1214 0.984 . S
H1222 N1210 0.984 . S
H1223 N1210 0.985 . S
C1224 C1225 1.363 . S
C1224 C1230 1.379 . S
C1224 N1232 1.356 . S
C1225 C1224 1.363 . S
C1225 C1231 1.363 . S
C1226 C1227 1.363 . S
C1226 C1231 1.379 . S
C1226 N1233 1.356 . S
C1227 C1226 1.363 . S
C1227 C1230 1.363 . S
N1228 C1230 1.356 . S
N1228 H1240 0.984 . S
N1228 H1241 0.985 . S
N1229 C1231 1.356 . S
N1229 H1234 0.984 . S
N1229 H1235 0.985 . S
C1230 C1224 1.379 . S
C1230 C1227 1.363 . S
C1230 N1228 1.356 . S
C1231 C1225 1.363 . S
C1231 C1226 1.379 . S
C1231 N1229 1.356 . S
N1232 C1224 1.356 . S
N1232 H1238 0.984 . S
N1232 H1239 0.984 . S
N1233 C1226 1.356 . S
N1233 H1236 0.984 . S
N1233 H1237 0.985 . S
H1234 N1229 0.984 . S
H1235 N1229 0.985 . S
H1236 N1233 0.984 . S
H1237 N1233 0.985 . S
H1238 N1232 0.984 . S
H1239 N1232 0.984 . S
H1240 N1228 0.984 . S
H1241 N1228 0.985 . S
C1242 C1243 1.363 . S
C1242 C1248 1.379 . S
C1242 N1250 1.356 . S
C1243 C1242 1.363 . S
C1243 C1249 1.363 . S
C1244 C1245 1.363 . S
C1244 C1249 1.379 . S
C1244 N1251 1.356 . S
C1245 C1244 1.363 . S
C1245 C1248 1.363 . S
N1246 C1248 1.356 . S
N1246 H1258 0.984 . S
N1246 H1259 0.985 . S
N1247 C1249 1.356 . S
N1247 H1252 0.984 . S
N1247 H1253 0.985 . S
C1248 C1242 1.379 . S
C1248 C1245 1.363 . S
C1248 N1246 1.356 . S
C1249 C1243 1.363 . S
C1249 C1244 1.379 . S
C1249 N1247 1.356 . S
N1250 C1242 1.356 . S
N1250 H1256 0.984 . S
N1250 H1257 0.984 . S
N1251 C1244 1.356 . S
N1251 H1254 0.984 . S
N1251 H1255 0.985 . S
H1252 N1247 0.984 . S
H1253 N1247 0.985 . S
H1254 N1251 0.984 . S
H1255 N1251 0.985 . S
H1256 N1250 0.984 . S
H1257 N1250 0.984 . S
H1258 N1246 0.984 . S
H1259 N1246 0.985 . S
C1260 C1261 1.363 . S
C1260 C1266 1.379 . S
C1260 N1268 1.356 . S
C1261 C1260 1.363 . S
C1261 C1267 1.363 . S
C1262 C1263 1.363 . S
C1262 C1267 1.379 . S
C1262 N1269 1.356 . S
C1263 C1262 1.363 . S
C1263 C1266 1.363 . S
N1264 C1266 1.356 . S
N1264 H1276 0.984 . S
N1264 H1277 0.985 . S
N1265 C1267 1.356 . S
N1265 H1270 0.984 . S
N1265 H1271 0.985 . S
C1266 C1260 1.379 . S
C1266 C1263 1.363 . S
C1266 N1264 1.356 . S
C1267 C1261 1.363 . S
C1267 C1262 1.379 . S
C1267 N1265 1.356 . S
N1268 C1260 1.356 . S
N1268 H1274 0.984 . S
N1268 H1275 0.984 . S
N1269 C1262 1.356 . S
N1269 H1272 0.984 . S
N1269 H1273 0.985 . S
H1270 N1265 0.984 . S
H1271 N1265 0.985 . S
H1272 N1269 0.984 . S
H1273 N1269 0.985 . S
H1274 N1268 0.984 . S
H1275 N1268 0.984 . S
H1276 N1264 0.984 . S
H1277 N1264 0.985 . S
C1278 C1279 1.363 . S
C1278 C1284 1.379 . S
C1278 N1286 1.356 . S
C1279 C1278 1.363 . S
C1279 C1285 1.363 . S
C1280 C1281 1.363 . S
C1280 C1285 1.379 . S
C1280 N1287 1.356 . S
C1281 C1280 1.363 . S
C1281 C1284 1.363 . S
N1282 C1284 1.356 . S
N1282 H1294 0.984 . S
N1282 H1295 0.985 . S
N1283 C1285 1.356 . S
N1283 H1288 0.984 . S
N1283 H1289 0.985 . S
C1284 C1278 1.379 . S
C1284 C1281 1.363 . S
C1284 N1282 1.356 . S
C1285 C1279 1.363 . S
C1285 C1280 1.379 . S
C1285 N1283 1.356 . S
N1286 C1278 1.356 . S
N1286 H1292 0.984 . S
N1286 H1293 0.984 . S
N1287 C1280 1.356 . S
N1287 H1290 0.984 . S
N1287 H1291 0.985 . S
H1288 N1283 0.984 . S
H1289 N1283 0.985 . S
H1290 N1287 0.984 . S
H1291 N1287 0.985 . S
H1292 N1286 0.984 . S
H1293 N1286 0.984 . S
H1294 N1282 0.984 . S
H1295 N1282 0.985 . S
C1296 C1297 1.363 1_554 S
C1296 C1302 1.379 . S
C1296 N1304 1.356 . S
C1297 C1296 1.363 1_556 S
C1297 C1303 1.363 . S
C1298 C1299 1.363 . S
C1298 C1303 1.379 . S
C1298 N1305 1.356 . S
C1299 C1298 1.363 . S
C1299 C1302 1.363 1_556 S
N1300 C1302 1.356 . S
N1300 H1312 0.984 . S
N1300 H1313 0.985 . S
N1301 C1303 1.356 . S
N1301 H1306 0.984 . S
N1301 H1307 0.985 . S
C1302 C1296 1.379 . S
C1302 C1299 1.363 1_554 S
C1302 N1300 1.356 . S
C1303 C1297 1.363 . S
C1303 C1298 1.379 . S
C1303 N1301 1.356 . S
N1304 C1296 1.356 . S
N1304 H1310 0.984 . S
N1304 H1311 0.984 . S
N1305 C1298 1.356 . S
N1305 H1308 0.984 . S
N1305 H1309 0.985 . S
H1306 N1301 0.984 . S
H1307 N1301 0.985 . S
H1308 N1305 0.984 . S
H1309 N1305 0.985 . S
H1310 N1304 0.984 . S
H1311 N1304 0.984 . S
H1312 N1300 0.984 . S
H1313 N1300 0.985 . S
C1314 C1315 1.363 . S
C1314 C1320 1.379 . S
C1314 N1322 1.356 . S
C1315 C1314 1.363 . S
C1315 C1321 1.363 . S
C1316 C1317 1.363 . S
C1316 C1321 1.379 . S
C1316 N1323 1.356 . S
C1317 C1316 1.363 . S
C1317 C1320 1.363 . S
N1318 C1320 1.356 . S
N1318 H1330 0.984 . S
N1318 H1331 0.985 . S
N1319 C1321 1.356 . S
N1319 H1324 0.984 . S
N1319 H1325 0.985 . S
C1320 C1314 1.379 . S
C1320 C1317 1.363 . S
C1320 N1318 1.356 . S
C1321 C1315 1.363 . S
C1321 C1316 1.379 . S
C1321 N1319 1.356 . S
N1322 C1314 1.356 . S
N1322 H1328 0.984 . S
N1322 H1329 0.984 . S
N1323 C1316 1.356 . S
N1323 H1326 0.984 . S
N1323 H1327 0.985 . S
H1324 N1319 0.984 . S
H1325 N1319 0.985 . S
H1326 N1323 0.984 . S
H1327 N1323 0.985 . S
H1328 N1322 0.984 . S
H1329 N1322 0.984 . S
H1330 N1318 0.984 . S
H1331 N1318 0.985 . S
C1332 C1333 1.363 . S
C1332 C1338 1.379 . S
C1332 N1340 1.356 . S
C1333 C1332 1.363 . S
C1333 C1339 1.363 . S
C1334 C1335 1.363 . S
C1334 C1339 1.379 . S
C1334 N1341 1.356 . S
C1335 C1334 1.363 . S
C1335 C1338 1.363 . S
N1336 C1338 1.356 . S
N1336 H1348 0.984 . S
N1336 H1349 0.985 . S
N1337 C1339 1.356 . S
N1337 H1342 0.984 . S
N1337 H1343 0.985 . S
C1338 C1332 1.379 . S
C1338 C1335 1.363 . S
C1338 N1336 1.356 . S
C1339 C1333 1.363 . S
C1339 C1334 1.379 . S
C1339 N1337 1.356 . S
N1340 C1332 1.356 . S
N1340 H1346 0.984 . S
N1340 H1347 0.984 . S
N1341 C1334 1.356 . S
N1341 H1344 0.984 . S
N1341 H1345 0.985 . S
H1342 N1337 0.984 . S
H1343 N1337 0.985 . S
H1344 N1341 0.984 . S
H1345 N1341 0.985 . S
H1346 N1340 0.984 . S
H1347 N1340 0.984 . S
H1348 N1336 0.984 . S
H1349 N1336 0.985 . S
C1350 C1351 1.363 . S
C1350 C1356 1.379 . S
C1350 N1358 1.356 . S
C1351 C1350 1.363 . S
C1351 C1357 1.363 . S
C1352 C1353 1.363 . S
C1352 C1357 1.379 . S
C1352 N1359 1.356 . S
C1353 C1352 1.363 . S
C1353 C1356 1.363 . S
N1354 C1356 1.356 . S
N1354 H1366 0.984 . S
N1354 H1367 0.985 . S
N1355 C1357 1.356 . S
N1355 H1360 0.984 . S
N1355 H1361 0.985 . S
C1356 C1350 1.379 . S
C1356 C1353 1.363 . S
C1356 N1354 1.356 . S
C1357 C1351 1.363 . S
C1357 C1352 1.379 . S
C1357 N1355 1.356 . S
N1358 C1350 1.356 . S
N1358 H1364 0.984 . S
N1358 H1365 0.984 . S
N1359 C1352 1.356 . S
N1359 H1362 0.984 . S
N1359 H1363 0.985 . S
H1360 N1355 0.984 . S
H1361 N1355 0.985 . S
H1362 N1359 0.984 . S
H1363 N1359 0.985 . S
H1364 N1358 0.984 . S
H1365 N1358 0.984 . S
H1366 N1354 0.984 . S
H1367 N1354 0.985 . S
C1368 C1369 1.363 . S
C1368 C1374 1.379 . S
C1368 N1376 1.356 . S
C1369 C1368 1.363 . S
C1369 C1375 1.363 . S
C1370 C1371 1.363 . S
C1370 C1375 1.379 . S
C1370 N1377 1.356 . S
C1371 C1370 1.363 . S
C1371 C1374 1.363 . S
N1372 C1374 1.356 . S
N1372 H1384 0.984 . S
N1372 H1385 0.985 . S
N1373 C1375 1.356 . S
N1373 H1378 0.984 . S
N1373 H1379 0.985 . S
C1374 C1368 1.379 . S
C1374 C1371 1.363 . S
C1374 N1372 1.356 . S
C1375 C1369 1.363 . S
C1375 C1370 1.379 . S
C1375 N1373 1.356 . S
N1376 C1368 1.356 . S
N1376 H1382 0.984 . S
N1376 H1383 0.984 . S
N1377 C1370 1.356 . S
N1377 H1380 0.984 . S
N1377 H1381 0.985 . S
H1378 N1373 0.984 . S
H1379 N1373 0.985 . S
H1380 N1377 0.984 . S
H1381 N1377 0.985 . S
H1382 N1376 0.984 . S
H1383 N1376 0.984 . S
H1384 N1372 0.984 . S
H1385 N1372 0.985 . S
C1386 C1387 1.363 1_556 S
C1386 C1392 1.379 . S
C1386 N1394 1.356 . S
C1387 C1386 1.363 1_554 S
C1387 C1393 1.363 . S
C1388 C1389 1.363 . S
C1388 C1393 1.379 . S
C1388 N1395 1.356 . S
C1389 C1388 1.363 . S
C1389 C1392 1.363 1_554 S
N1390 C1392 1.356 . S
N1390 H1402 0.984 . S
N1390 H1403 0.985 . S
N1391 C1393 1.356 . S
N1391 H1396 0.984 . S
N1391 H1397 0.985 . S
C1392 C1386 1.379 . S
C1392 C1389 1.363 1_556 S
C1392 N1390 1.356 . S
C1393 C1387 1.363 . S
C1393 C1388 1.379 . S
C1393 N1391 1.356 . S
N1394 C1386 1.356 . S
N1394 H1400 0.984 . S
N1394 H1401 0.984 . S
N1395 C1388 1.356 . S
N1395 H1398 0.984 . S
N1395 H1399 0.985 . S
H1396 N1391 0.984 . S
H1397 N1391 0.985 . S
H1398 N1395 0.984 . S
H1399 N1395 0.985 . S
H1400 N1394 0.984 . S
H1401 N1394 0.984 . S
H1402 N1390 0.984 . S
H1403 N1390 0.985 . S
C1404 C1405 1.363 . S
C1404 C1410 1.379 . S
C1404 N1412 1.356 . S
C1405 C1404 1.363 . S
C1405 C1411 1.363 . S
C1406 C1407 1.363 . S
C1406 C1411 1.379 . S
C1406 N1413 1.356 . S
C1407 C1406 1.363 . S
C1407 C1410 1.363 . S
N1408 C1410 1.356 . S
N1408 H1420 0.984 . S
N1408 H1421 0.985 . S
N1409 C1411 1.356 . S
N1409 H1414 0.984 . S
N1409 H1415 0.985 . S
C1410 C1404 1.379 . S
C1410 C1407 1.363 . S
C1410 N1408 1.356 . S
C1411 C1405 1.363 . S
C1411 C1406 1.379 . S
C1411 N1409 1.356 . S
N1412 C1404 1.356 . S
N1412 H1418 0.984 . S
N1412 H1419 0.984 . S
N1413 C1406 1.356 . S
N1413 H1416 0.984 . S
N1413 H1417 0.985 . S
H1414 N1409 0.984 . S
H1415 N1409 0.985 . S
H1416 N1413 0.984 . S
H1417 N1413 0.985 . S
H1418 N1412 0.984 . S
H1419 N1412 0.984 . S
H1420 N1408 0.984 . S
H1421 N1408 0.985 . S
C1422 C1423 1.363 . S
C1422 C1428 1.379 . S
C1422 N1430 1.356 . S
C1423 C1422 1.363 . S
C1423 C1429 1.363 . S
C1424 C1425 1.363 . S
C1424 C1429 1.379 . S
C1424 N1431 1.356 . S
C1425 C1424 1.363 . S
C1425 C1428 1.363 . S
N1426 C1428 1.356 . S
N1426 H1438 0.984 . S
N1426 H1439 0.985 . S
N1427 C1429 1.356 . S
N1427 H1432 0.984 . S
N1427 H1433 0.985 . S
C1428 C1422 1.379 . S
C1428 C1425 1.363 . S
C1428 N1426 1.356 . S
C1429 C1423 1.363 . S
C1429 C1424 1.379 . S
C1429 N1427 1.356 . S
N1430 C1422 1.356 . S
N1430 H1436 0.984 . S
N1430 H1437 0.984 . S
N1431 C1424 1.356 . S
N1431 H1434 0.984 . S
N1431 H1435 0.985 . S
H1432 N1427 0.984 . S
H1433 N1427 0.985 . S
H1434 N1431 0.984 . S
H1435 N1431 0.985 . S
H1436 N1430 0.984 . S
H1437 N1430 0.984 . S
H1438 N1426 0.984 . S
H1439 N1426 0.985 . S
C1440 C1441 1.363 . S
C1440 C1446 1.379 . S
C1440 N1448 1.356 . S
C1441 C1440 1.363 . S
C1441 C1447 1.363 . S
C1442 C1443 1.363 . S
C1442 C1447 1.379 . S
C1442 N1449 1.356 . S
C1443 C1442 1.363 . S
C1443 C1446 1.363 . S
N1444 C1446 1.356 . S
N1444 H1456 0.984 . S
N1444 H1457 0.985 . S
N1445 C1447 1.356 . S
N1445 H1450 0.984 . S
N1445 H1451 0.985 . S
C1446 C1440 1.379 . S
C1446 C1443 1.363 . S
C1446 N1444 1.356 . S
C1447 C1441 1.363 . S
C1447 C1442 1.379 . S
C1447 N1445 1.356 . S
N1448 C1440 1.356 . S
N1448 H1454 0.984 . S
N1448 H1455 0.984 . S
N1449 C1442 1.356 . S
N1449 H1452 0.984 . S
N1449 H1453 0.985 . S
H1450 N1445 0.984 . S
H1451 N1445 0.985 . S
H1452 N1449 0.984 . S
H1453 N1449 0.985 . S
H1454 N1448 0.984 . S
H1455 N1448 0.984 . S
H1456 N1444 0.984 . S
H1457 N1444 0.985 . S
C1458 C1459 1.363 . S
C1458 C1464 1.379 . S
C1458 N1466 1.356 . S
C1459 C1458 1.363 . S
C1459 C1465 1.363 . S
C1460 C1461 1.363 . S
C1460 C1465 1.379 . S
C1460 N1467 1.356 . S
C1461 C1460 1.363 . S
C1461 C1464 1.363 . S
N1462 C1464 1.356 . S
N1462 H1474 0.984 . S
N1462 H1475 0.985 . S
N1463 C1465 1.356 . S
N1463 H1468 0.984 . S
N1463 H1469 0.985 . S
C1464 C1458 1.379 . S
C1464 C1461 1.363 . S
C1464 N1462 1.356 . S
C1465 C1459 1.363 . S
C1465 C1460 1.379 . S
C1465 N1463 1.356 . S
N1466 C1458 1.356 . S
N1466 H1472 0.984 . S
N1466 H1473 0.984 . S
N1467 C1460 1.356 . S
N1467 H1470 0.984 . S
N1467 H1471 0.985 . S
H1468 N1463 0.984 . S
H1469 N1463 0.985 . S
H1470 N1467 0.984 . S
H1471 N1467 0.985 . S
H1472 N1466 0.984 . S
H1473 N1466 0.984 . S
H1474 N1462 0.984 . S
H1475 N1462 0.985 . S
C1476 C1477 1.363 . S
C1476 C1482 1.379 . S
C1476 N1484 1.356 . S
C1477 C1476 1.363 . S
C1477 C1483 1.363 . S
C1478 C1479 1.363 . S
C1478 C1483 1.379 . S
C1478 N1485 1.356 . S
C1479 C1478 1.363 . S
C1479 C1482 1.363 . S
N1480 C1482 1.356 . S
N1480 H1492 0.984 . S
N1480 H1493 0.985 . S
N1481 C1483 1.356 . S
N1481 H1486 0.984 . S
N1481 H1487 0.985 . S
C1482 C1476 1.379 . S
C1482 C1479 1.363 . S
C1482 N1480 1.356 . S
C1483 C1477 1.363 . S
C1483 C1478 1.379 . S
C1483 N1481 1.356 . S
N1484 C1476 1.356 . S
N1484 H1490 0.984 . S
N1484 H1491 0.984 . S
N1485 C1478 1.356 . S
N1485 H1488 0.984 . S
N1485 H1489 0.985 . S
H1486 N1481 0.984 . S
H1487 N1481 0.985 . S
H1488 N1485 0.984 . S
H1489 N1485 0.985 . S
H1490 N1484 0.984 . S
H1491 N1484 0.984 . S
H1492 N1480 0.984 . S
H1493 N1480 0.985 . S
C1494 C1495 1.363 . S
C1494 C1500 1.379 . S
C1494 N1502 1.356 . S
C1495 C1494 1.363 . S
C1495 C1501 1.363 . S
C1496 C1497 1.363 . S
C1496 C1501 1.379 . S
C1496 N1503 1.356 . S
C1497 C1496 1.363 . S
C1497 C1500 1.363 . S
N1498 C1500 1.356 . S
N1498 H1510 0.984 . S
N1498 H1511 0.985 . S
N1499 C1501 1.356 . S
N1499 H1504 0.984 . S
N1499 H1505 0.985 . S
C1500 C1494 1.379 . S
C1500 C1497 1.363 . S
C1500 N1498 1.356 . S
C1501 C1495 1.363 . S
C1501 C1496 1.379 . S
C1501 N1499 1.356 . S
N1502 C1494 1.356 . S
N1502 H1508 0.984 . S
N1502 H1509 0.984 . S
N1503 C1496 1.356 . S
N1503 H1506 0.984 . S
N1503 H1507 0.985 . S
H1504 N1499 0.984 . S
H1505 N1499 0.985 . S
H1506 N1503 0.984 . S
H1507 N1503 0.985 . S
H1508 N1502 0.984 . S
H1509 N1502 0.984 . S
H1510 N1498 0.984 . S
H1511 N1498 0.985 . S
C1512 C1513 1.363 . S
C1512 C1518 1.379 . S
C1512 N1520 1.356 . S
C1513 C1512 1.363 . S
C1513 C1519 1.363 . S
C1514 C1515 1.363 . S
C1514 C1519 1.379 . S
C1514 N1521 1.356 . S
C1515 C1514 1.363 . S
C1515 C1518 1.363 . S
N1516 C1518 1.356 . S
N1516 H1528 0.984 . S
N1516 H1529 0.985 . S
N1517 C1519 1.356 . S
N1517 H1522 0.984 . S
N1517 H1523 0.985 . S
C1518 C1512 1.379 . S
C1518 C1515 1.363 . S
C1518 N1516 1.356 . S
C1519 C1513 1.363 . S
C1519 C1514 1.379 . S
C1519 N1517 1.356 . S
N1520 C1512 1.356 . S
N1520 H1526 0.984 . S
N1520 H1527 0.984 . S
N1521 C1514 1.356 . S
N1521 H1524 0.984 . S
N1521 H1525 0.985 . S
H1522 N1517 0.984 . S
H1523 N1517 0.985 . S
H1524 N1521 0.984 . S
H1525 N1521 0.985 . S
H1526 N1520 0.984 . S
H1527 N1520 0.984 . S
H1528 N1516 0.984 . S
H1529 N1516 0.985 . S
C1530 C1531 1.363 . S
C1530 C1536 1.379 . S
C1530 N1538 1.356 . S
C1531 C1530 1.363 . S
C1531 C1537 1.363 . S
C1532 C1533 1.363 . S
C1532 C1537 1.379 . S
C1532 N1539 1.356 . S
C1533 C1532 1.363 . S
C1533 C1536 1.363 . S
N1534 C1536 1.356 . S
N1534 H1546 0.984 . S
N1534 H1547 0.985 . S
N1535 C1537 1.356 . S
N1535 H1540 0.984 . S
N1535 H1541 0.985 . S
C1536 C1530 1.379 . S
C1536 C1533 1.363 . S
C1536 N1534 1.356 . S
C1537 C1531 1.363 . S
C1537 C1532 1.379 . S
C1537 N1535 1.356 . S
N1538 C1530 1.356 . S
N1538 H1544 0.984 . S
N1538 H1545 0.984 . S
N1539 C1532 1.356 . S
N1539 H1542 0.984 . S
N1539 H1543 0.985 . S
H1540 N1535 0.984 . S
H1541 N1535 0.985 . S
H1542 N1539 0.984 . S
H1543 N1539 0.985 . S
H1544 N1538 0.984 . S
H1545 N1538 0.984 . S
H1546 N1534 0.984 . S
H1547 N1534 0.985 . S
C1548 C1549 1.363 . S
C1548 C1554 1.379 . S
C1548 N1556 1.356 . S
C1549 C1548 1.363 . S
C1549 C1555 1.363 . S
C1550 C1551 1.363 . S
C1550 C1555 1.379 . S
C1550 N1557 1.356 . S
C1551 C1550 1.363 . S
C1551 C1554 1.363 . S
N1552 C1554 1.356 . S
N1552 H1564 0.984 . S
N1552 H1565 0.985 . S
N1553 C1555 1.356 . S
N1553 H1558 0.984 . S
N1553 H1559 0.985 . S
C1554 C1548 1.379 . S
C1554 C1551 1.363 . S
C1554 N1552 1.356 . S
C1555 C1549 1.363 . S
C1555 C1550 1.379 . S
C1555 N1553 1.356 . S
N1556 C1548 1.356 . S
N1556 H1562 0.984 . S
N1556 H1563 0.984 . S
N1557 C1550 1.356 . S
N1557 H1560 0.984 . S
N1557 H1561 0.985 . S
H1558 N1553 0.984 . S
H1559 N1553 0.985 . S
H1560 N1557 0.984 . S
H1561 N1557 0.985 . S
H1562 N1556 0.984 . S
H1563 N1556 0.984 . S
H1564 N1552 0.984 . S
H1565 N1552 0.985 . S
C1566 C1567 1.363 . S
C1566 C1572 1.379 . S
C1566 N1574 1.356 . S
C1567 C1566 1.363 . S
C1567 C1573 1.363 . S
C1568 C1569 1.363 . S
C1568 C1573 1.379 . S
C1568 N1575 1.356 . S
C1569 C1568 1.363 . S
C1569 C1572 1.363 . S
N1570 C1572 1.356 . S
N1570 H1582 0.984 . S
N1570 H1583 0.985 . S
N1571 C1573 1.356 . S
N1571 H1576 0.984 . S
N1571 H1577 0.985 . S
C1572 C1566 1.379 . S
C1572 C1569 1.363 . S
C1572 N1570 1.356 . S
C1573 C1567 1.363 . S
C1573 C1568 1.379 . S
C1573 N1571 1.356 . S
N1574 C1566 1.356 . S
N1574 H1580 0.984 . S
N1574 H1581 0.984 . S
N1575 C1568 1.356 . S
N1575 H1578 0.984 . S
N1575 H1579 0.985 . S
H1576 N1571 0.984 . S
H1577 N1571 0.985 . S
H1578 N1575 0.984 . S
H1579 N1575 0.985 . S
H1580 N1574 0.984 . S
H1581 N1574 0.984 . S
H1582 N1570 0.984 . S
H1583 N1570 0.985 . S
C1584 C1585 1.363 . S
C1584 C1590 1.379 . S
C1584 N1592 1.356 . S
C1585 C1584 1.363 . S
C1585 C1591 1.363 . S
C1586 C1587 1.363 . S
C1586 C1591 1.379 . S
C1586 N1593 1.356 . S
C1587 C1586 1.363 . S
C1587 C1590 1.363 . S
N1588 C1590 1.356 . S
N1588 H1600 0.984 . S
N1588 H1601 0.985 . S
N1589 C1591 1.356 . S
N1589 H1594 0.984 . S
N1589 H1595 0.985 . S
C1590 C1584 1.379 . S
C1590 C1587 1.363 . S
C1590 N1588 1.356 . S
C1591 C1585 1.363 . S
C1591 C1586 1.379 . S
C1591 N1589 1.356 . S
N1592 C1584 1.356 . S
N1592 H1598 0.984 . S
N1592 H1599 0.984 . S
N1593 C1586 1.356 . S
N1593 H1596 0.984 . S
N1593 H1597 0.985 . S
H1594 N1589 0.984 . S
H1595 N1589 0.985 . S
H1596 N1593 0.984 . S
H1597 N1593 0.985 . S
H1598 N1592 0.984 . S
H1599 N1592 0.984 . S
H1600 N1588 0.984 . S
H1601 N1588 0.985 . S
C1602 C1603 1.363 . S
C1602 C1608 1.379 . S
C1602 N1610 1.356 . S
C1603 C1602 1.363 . S
C1603 C1609 1.363 . S
C1604 C1605 1.363 . S
C1604 C1609 1.379 . S
C1604 N1611 1.356 . S
C1605 C1604 1.363 . S
C1605 C1608 1.363 . S
N1606 C1608 1.356 . S
N1606 H1618 0.984 . S
N1606 H1619 0.985 . S
N1607 C1609 1.356 . S
N1607 H1612 0.984 . S
N1607 H1613 0.985 . S
C1608 C1602 1.379 . S
C1608 C1605 1.363 . S
C1608 N1606 1.356 . S
C1609 C1603 1.363 . S
C1609 C1604 1.379 . S
C1609 N1607 1.356 . S
N1610 C1602 1.356 . S
N1610 H1616 0.984 . S
N1610 H1617 0.984 . S
N1611 C1604 1.356 . S
N1611 H1614 0.984 . S
N1611 H1615 0.985 . S
H1612 N1607 0.984 . S
H1613 N1607 0.985 . S
H1614 N1611 0.984 . S
H1615 N1611 0.985 . S
H1616 N1610 0.984 . S
H1617 N1610 0.984 . S
H1618 N1606 0.984 . S
H1619 N1606 0.985 . S
C1620 C1621 1.363 . S
C1620 C1626 1.379 . S
C1620 N1628 1.356 . S
C1621 C1620 1.363 . S
C1621 C1627 1.363 . S
C1622 C1623 1.363 . S
C1622 C1627 1.379 . S
C1622 N1629 1.356 . S
C1623 C1622 1.363 . S
C1623 C1626 1.363 . S
N1624 C1626 1.356 . S
N1624 H1636 0.984 . S
N1624 H1637 0.985 . S
N1625 C1627 1.356 . S
N1625 H1630 0.984 . S
N1625 H1631 0.985 . S
C1626 C1620 1.379 . S
C1626 C1623 1.363 . S
C1626 N1624 1.356 . S
C1627 C1621 1.363 . S
C1627 C1622 1.379 . S
C1627 N1625 1.356 . S
N1628 C1620 1.356 . S
N1628 H1634 0.984 . S
N1628 H1635 0.984 . S
N1629 C1622 1.356 . S
N1629 H1632 0.984 . S
N1629 H1633 0.985 . S
H1630 N1625 0.984 . S
H1631 N1625 0.985 . S
H1632 N1629 0.984 . S
H1633 N1629 0.985 . S
H1634 N1628 0.984 . S
H1635 N1628 0.984 . S
H1636 N1624 0.984 . S
H1637 N1624 0.985 . S
C1638 C1639 1.363 . S
C1638 C1644 1.379 . S
C1638 N1646 1.356 . S
C1639 C1638 1.363 . S
C1639 C1645 1.363 . S
C1640 C1641 1.363 . S
C1640 C1645 1.379 . S
C1640 N1647 1.356 . S
C1641 C1640 1.363 . S
C1641 C1644 1.363 . S
N1642 C1644 1.356 . S
N1642 H1654 0.984 . S
N1642 H1655 0.985 . S
N1643 C1645 1.356 . S
N1643 H1648 0.984 . S
N1643 H1649 0.985 . S
C1644 C1638 1.379 . S
C1644 C1641 1.363 . S
C1644 N1642 1.356 . S
C1645 C1639 1.363 . S
C1645 C1640 1.379 . S
C1645 N1643 1.356 . S
N1646 C1638 1.356 . S
N1646 H1652 0.984 . S
N1646 H1653 0.984 . S
N1647 C1640 1.356 . S
N1647 H1650 0.984 . S
N1647 H1651 0.985 . S
H1648 N1643 0.984 . S
H1649 N1643 0.985 . S
H1650 N1647 0.984 . S
H1651 N1647 0.985 . S
H1652 N1646 0.984 . S
H1653 N1646 0.984 . S
H1654 N1642 0.984 . S
H1655 N1642 0.985 . S
C1009 C476 1.735 . S
C1011 C58 1.252 . S
C1027 C142 1.425 . S
C1029 C56 2.048 . S
C1045 C226 1.370 . S
C1047 C140 1.867 . S
C1063 C224 1.735 . S
C1065 C310 1.252 . S
C1081 C308 2.049 . S
C1083 C394 1.424 . S
C1099 C478 1.370 . S
C1101 C392 1.867 . S
C1117 C644 1.735 . S
C1119 C562 1.252 . S
C1135 C646 1.370 . S
C1137 C728 1.867 . S
C1153 C812 2.049 . S
C1155 C730 1.424 . S
C1171 C896 1.735 . S
C1173 C814 1.252 . S
C1189 C980 1.867 . S
C1191 C898 1.371 . S
C1207 C560 2.049 . S
C1209 C982 1.424 . S
C1225 C998 3.699 . S
C1227 C67 3.603 . S
C1243 C151 3.013 . S
C1245 C578 3.105 . S
C1261 C662 3.426 . S
C1263 C235 3.315 . S
C1279 C746 3.699 . S
C1281 C319 3.603 . S
C1297 C830 3.107 . S
C1299 C403 3.011 1_556 S
C1315 C487 3.316 . S
C1317 C914 3.424 . S
C1333 C571 3.600 . S
C1335 C158 3.701 . S
C1351 C655 3.316 . S
C1353 C242 3.424 . S
C1369 C326 3.107 . S
C1371 C739 3.010 . S
C1387 C410 3.699 . S
C1389 C823 3.603 1_554 S
C1405 C907 3.316 . S
C1407 C494 3.424 . S
C1423 C991 3.013 . S
C1425 C74 3.105 . S
C1441 C567 2.833 . S
C1443 C63 2.835 . S
C1459 C147 1.956 . S
C1461 C651 1.988 . S
C1477 C735 1.955 . S
C1479 C231 1.988 . S
C1495 C315 2.833 . S
C1497 C819 2.835 . S
C1513 C903 1.986 . S
C1515 C399 1.957 . S
C1531 C987 1.955 . S
C1533 C483 1.988 . S
C1549 C573 0.555 . S
C1551 C69 0.554 . S
C1567 C657 0.538 . S
C1569 C153 0.527 . S
C1585 C741 0.529 . S
C1587 C237 0.536 . S
C1603 C321 0.555 . S
C1605 C825 0.554 . S
C1621 C909 0.538 . S
C1623 C405 0.527 . S
C1639 C993 0.529 . S
C1641 C489 0.536 . S
