# Generated by pormake.
# Topology gme, (4)-cn, num edge types: 1
# Building blocks:
#     Node 0, Type 0, BuildingBlock: CEKHIL_clean_sbu_0, # of connection points: 4
#     Node 1, Type 0, BuildingBlock: CEKHIL_clean_sbu_0, # of connection points: 4
#     Node 2, Type 0, BuildingBlock: CEKHIL_clean_sbu_0, # of connection points: 4
#     Node 3, Type 0, BuildingBlock: CEKHIL_clean_sbu_0, # of connection points: 4
#     Node 4, Type 0, BuildingBlock: CEKHIL_clean_sbu_0, # of connection points: 4
#     Node 5, Type 0, BuildingBlock: CEKHIL_clean_sbu_0, # of connection points: 4
#     Node 6, Type 0, BuildingBlock: CEKHIL_clean_sbu_0, # of connection points: 4
#     Node 7, Type 0, BuildingBlock: CEKHIL_clean_sbu_0, # of connection points: 4
#     Node 8, Type 0, BuildingBlock: CEKHIL_clean_sbu_0, # of connection points: 4
#     Node 9, Type 0, BuildingBlock: CEKHIL_clean_sbu_0, # of connection points: 4
#     Node 10, Type 0, BuildingBlock: CEKHIL_clean_sbu_0, # of connection points: 4
#     Node 11, Type 0, BuildingBlock: CEKHIL_clean_sbu_0, # of connection points: 4
#     Node 12, Type 0, BuildingBlock: CEKHIL_clean_sbu_0, # of connection points: 4
#     Node 13, Type 0, BuildingBlock: CEKHIL_clean_sbu_0, # of connection points: 4
#     Node 14, Type 0, BuildingBlock: CEKHIL_clean_sbu_0, # of connection points: 4
#     Node 15, Type 0, BuildingBlock: CEKHIL_clean_sbu_0, # of connection points: 4
#     Node 16, Type 0, BuildingBlock: CEKHIL_clean_sbu_0, # of connection points: 4
#     Node 17, Type 0, BuildingBlock: CEKHIL_clean_sbu_0, # of connection points: 4
#     Node 18, Type 0, BuildingBlock: CEKHIL_clean_sbu_0, # of connection points: 4
#     Node 19, Type 0, BuildingBlock: CEKHIL_clean_sbu_0, # of connection points: 4
#     Node 20, Type 0, BuildingBlock: CEKHIL_clean_sbu_0, # of connection points: 4
#     Node 21, Type 0, BuildingBlock: CEKHIL_clean_sbu_0, # of connection points: 4
#     Node 22, Type 0, BuildingBlock: CEKHIL_clean_sbu_0, # of connection points: 4
#     Node 23, Type 0, BuildingBlock: CEKHIL_clean_sbu_0, # of connection points: 4
#     Edge 24, Type (0, 0), BuildingBlock: CIFDUS_clean_linker_0, # of connection points: 2
#     Edge 25, Type (0, 0), BuildingBlock: CIFDUS_clean_linker_0, # of connection points: 2
#     Edge 26, Type (0, 0), BuildingBlock: CIFDUS_clean_linker_0, # of connection points: 2
#     Edge 27, Type (0, 0), BuildingBlock: CIFDUS_clean_linker_0, # of connection points: 2
#     Edge 28, Type (0, 0), BuildingBlock: CIFDUS_clean_linker_0, # of connection points: 2
#     Edge 29, Type (0, 0), BuildingBlock: CIFDUS_clean_linker_0, # of connection points: 2
#     Edge 30, Type (0, 0), BuildingBlock: CIFDUS_clean_linker_0, # of connection points: 2
#     Edge 31, Type (0, 0), BuildingBlock: CIFDUS_clean_linker_0, # of connection points: 2
#     Edge 32, Type (0, 0), BuildingBlock: CIFDUS_clean_linker_0, # of connection points: 2
#     Edge 33, Type (0, 0), BuildingBlock: CIFDUS_clean_linker_0, # of connection points: 2
#     Edge 34, Type (0, 0), BuildingBlock: CIFDUS_clean_linker_0, # of connection points: 2
#     Edge 35, Type (0, 0), BuildingBlock: CIFDUS_clean_linker_0, # of connection points: 2
#     Edge 36, Type (0, 0), BuildingBlock: CIFDUS_clean_linker_0, # of connection points: 2
#     Edge 37, Type (0, 0), BuildingBlock: CIFDUS_clean_linker_0, # of connection points: 2
#     Edge 38, Type (0, 0), BuildingBlock: CIFDUS_clean_linker_0, # of connection points: 2
#     Edge 39, Type (0, 0), BuildingBlock: CIFDUS_clean_linker_0, # of connection points: 2
#     Edge 40, Type (0, 0), BuildingBlock: CIFDUS_clean_linker_0, # of connection points: 2
#     Edge 41, Type (0, 0), BuildingBlock: CIFDUS_clean_linker_0, # of connection points: 2
#     Edge 42, Type (0, 0), BuildingBlock: CIFDUS_clean_linker_0, # of connection points: 2
#     Edge 43, Type (0, 0), BuildingBlock: CIFDUS_clean_linker_0, # of connection points: 2
#     Edge 44, Type (0, 0), BuildingBlock: CIFDUS_clean_linker_0, # of connection points: 2
#     Edge 45, Type (0, 0), BuildingBlock: CIFDUS_clean_linker_0, # of connection points: 2
#     Edge 46, Type (0, 0), BuildingBlock: CIFDUS_clean_linker_0, # of connection points: 2
#     Edge 47, Type (0, 0), BuildingBlock: CIFDUS_clean_linker_0, # of connection points: 2
#     Edge 48, Type (0, 0), BuildingBlock: CIFDUS_clean_linker_0, # of connection points: 2
#     Edge 49, Type (0, 0), BuildingBlock: CIFDUS_clean_linker_0, # of connection points: 2
#     Edge 50, Type (0, 0), BuildingBlock: CIFDUS_clean_linker_0, # of connection points: 2
#     Edge 51, Type (0, 0), BuildingBlock: CIFDUS_clean_linker_0, # of connection points: 2
#     Edge 52, Type (0, 0), BuildingBlock: CIFDUS_clean_linker_0, # of connection points: 2
#     Edge 53, Type (0, 0), BuildingBlock: CIFDUS_clean_linker_0, # of connection points: 2
#     Edge 54, Type (0, 0), BuildingBlock: CIFDUS_clean_linker_0, # of connection points: 2
#     Edge 55, Type (0, 0), BuildingBlock: CIFDUS_clean_linker_0, # of connection points: 2
#     Edge 56, Type (0, 0), BuildingBlock: CIFDUS_clean_linker_0, # of connection points: 2
#     Edge 57, Type (0, 0), BuildingBlock: CIFDUS_clean_linker_0, # of connection points: 2
#     Edge 58, Type (0, 0), BuildingBlock: CIFDUS_clean_linker_0, # of connection points: 2
#     Edge 59, Type (0, 0), BuildingBlock: CIFDUS_clean_linker_0, # of connection points: 2
#     Edge 60, Type (0, 0), BuildingBlock: CIFDUS_clean_linker_0, # of connection points: 2
#     Edge 61, Type (0, 0), BuildingBlock: CIFDUS_clean_linker_0, # of connection points: 2
#     Edge 62, Type (0, 0), BuildingBlock: CIFDUS_clean_linker_0, # of connection points: 2
#     Edge 63, Type (0, 0), BuildingBlock: CIFDUS_clean_linker_0, # of connection points: 2
#     Edge 64, Type (0, 0), BuildingBlock: CIFDUS_clean_linker_0, # of connection points: 2
#     Edge 65, Type (0, 0), BuildingBlock: CIFDUS_clean_linker_0, # of connection points: 2
#     Edge 66, Type (0, 0), BuildingBlock: CIFDUS_clean_linker_0, # of connection points: 2
#     Edge 67, Type (0, 0), BuildingBlock: CIFDUS_clean_linker_0, # of connection points: 2
#     Edge 68, Type (0, 0), BuildingBlock: CIFDUS_clean_linker_0, # of connection points: 2
#     Edge 69, Type (0, 0), BuildingBlock: CIFDUS_clean_linker_0, # of connection points: 2
#     Edge 70, Type (0, 0), BuildingBlock: CIFDUS_clean_linker_0, # of connection points: 2
#     Edge 71, Type (0, 0), BuildingBlock: CIFDUS_clean_linker_0, # of connection points: 2
# Relax obj value: 0.072
# Max RMSD: 0.095
# Mean RMSD: 0.095
data_MOF--net-gme--node1-CEKHIL_clean_sbu_0--edge1-CIFDUS_clean_linker_0
_symmetry_space_group_name_H-M    P1
_symmetry_Int_Tables_number       1
_symmetry_cell_setting            triclinic
loop_
_symmetry_equiv_pos_as_xyz
'x, y, z'
_cell_length_a     47.164687
_cell_length_b     47.152266
_cell_length_c     49.581449
_cell_angle_alpha  90.000212
_cell_angle_beta   90.000706
_cell_angle_gamma 119.94126
loop_
_atom_site_label
_atom_site_type_symbol
_atom_site_fract_x
_atom_site_fract_y
_atom_site_fract_z
_atom_type_partial_charge
Co0 Co 0.40045 0.07039 0.12473 0.0
O1 O 0.40987 0.07873 0.08696 0.0
O2 O 0.37606 0.03006 0.10413 0.0
C3 C 0.39357 0.11383 0.1315 0.0
O4 O 0.38478 0.05382 0.16339 0.0
Co5 Co 0.44623 0.12283 0.16666 0.0
O6 O 0.40729 0.09862 0.18988 0.0
C7 C 0.46549 0.07758 0.14204 0.0
C8 C 0.38983 0.04794 0.08283 0.0
C9 C 0.38695 0.06842 0.18602 0.0
O10 O 0.43832 0.06221 0.12905 0.0
O11 O 0.47348 0.10279 0.15676 0.0
O12 O 0.36945 0.08664 0.12234 0.0
O13 O 0.42098 0.11439 0.13422 0.0
Co14 Co 0.32177 0.39007 0.62246 0.0
O15 O 0.32983 0.39845 0.58436 0.0
O16 O 0.33697 0.36212 0.60697 0.0
C17 C 0.273 0.38856 0.62215 0.0
O18 O 0.31472 0.37404 0.66187 0.0
Co19 Co 0.31393 0.43939 0.65953 0.0
O20 O 0.29445 0.40157 0.68438 0.0
C21 C 0.37996 0.45312 0.64285 0.0
C22 C 0.33816 0.3761 0.584 0.0
C23 C 0.30116 0.3786 0.6828 0.0
O24 O 0.36832 0.42535 0.6307 0.0
O25 O 0.36233 0.46338 0.65409 0.0
O26 O 0.27444 0.36264 0.61549 0.0
O27 O 0.30076 0.41436 0.62668 0.0
Co28 Co 0.91809 0.32188 0.1193 0.0
O29 O 0.90862 0.31714 0.08143 0.0
O30 O 0.95855 0.34138 0.09861 0.0
C31 C 0.88119 0.27013 0.13033 0.0
O32 O 0.93577 0.329 0.15813 0.0
Co33 Co 0.86174 0.31273 0.15807 0.0
O34 O 0.89226 0.31352 0.18577 0.0
C35 C 0.89335 0.36942 0.12195 0.0
C36 C 0.93986 0.33211 0.07727 0.0
C37 C 0.92228 0.32254 0.18173 0.0
O38 O 0.91777 0.36467 0.11894 0.0
O39 O 0.86705 0.34928 0.13425 0.0
O40 O 0.90958 0.27665 0.12103 0.0
O41 O 0.87533 0.29402 0.12983 0.0
Co42 Co 0.61773 0.94825 0.62951 0.0
O43 O 0.61164 0.9446 0.59122 0.0
O44 O 0.64222 0.99126 0.61265 0.0
C45 C 0.62678 0.90567 0.63324 0.0
O46 O 0.62988 0.95973 0.6694 0.0
Co47 Co 0.56727 0.88904 0.66402 0.0
O48 O 0.5981 0.91379 0.69347 0.0
C49 C 0.54783 0.93179 0.63642 0.0
C50 C 0.63065 0.97595 0.58986 0.0
C51 C 0.62125 0.94338 0.69171 0.0
O52 O 0.57803 0.95364 0.6332 0.0
O53 O 0.53852 0.903 0.64538 0.0
O54 O 0.65061 0.93447 0.62674 0.0
O55 O 0.59843 0.90333 0.63488 0.0
Co56 Co 0.67012 0.61455 0.11902 0.0
O57 O 0.66557 0.60489 0.08103 0.0
O58 O 0.64333 0.63026 0.10217 0.0
C59 C 0.72471 0.6339 0.11948 0.0
O60 O 0.67031 0.62922 0.15812 0.0
Co61 Co 0.69726 0.58213 0.15837 0.0
O62 O 0.70504 0.61928 0.18184 0.0
C63 C 0.6275 0.54585 0.14091 0.0
C64 C 0.64856 0.61953 0.07957 0.0
C65 C 0.68711 0.63228 0.17958 0.0
O66 O 0.63039 0.57051 0.12735 0.0
O67 O 0.65145 0.54559 0.15288 0.0
O68 O 0.71358 0.653 0.11223 0.0
O69 O 0.70289 0.60409 0.12455 0.0
Co70 Co 0.05667 0.67534 0.61028 0.0
O71 O 0.05901 0.6706 0.57199 0.0
O72 O 0.01316 0.6553 0.59455 0.0
C73 C 0.09838 0.72759 0.61204 0.0
O74 O 0.04571 0.67831 0.65001 0.0
Co75 Co 0.11623 0.68882 0.64633 0.0
O76 O 0.09404 0.70353 0.67191 0.0
C77 C 0.07119 0.6215 0.62729 0.0
C78 C 0.02757 0.65826 0.57145 0.0
C79 C 0.06346 0.6933 0.67076 0.0
O80 O 0.05235 0.63072 0.61628 0.0
O81 O 0.09823 0.64116 0.63894 0.0
O82 O 0.06924 0.72147 0.60536 0.0
O83 O 0.10174 0.70223 0.61496 0.0
Co84 Co 0.93304 0.60806 0.3803 0.0
O85 O 0.92901 0.60635 0.41899 0.0
O86 O 0.97576 0.63364 0.39682 0.0
C87 C 0.89077 0.61671 0.37258 0.0
O88 O 0.94616 0.61602 0.34033 0.0
Co89 Co 0.87532 0.55639 0.34512 0.0
O90 O 0.90064 0.58649 0.31537 0.0
C91 C 0.91518 0.53738 0.37819 0.0
C92 C 0.96055 0.62485 0.41989 0.0
C93 C 0.93077 0.60808 0.31759 0.0
O94 O 0.93742 0.56756 0.38109 0.0
O95 O 0.88745 0.52834 0.36707 0.0
O96 O 0.91932 0.64128 0.37876 0.0
O97 O 0.88851 0.58841 0.37346 0.0
Co98 Co 0.32535 0.92886 0.90028 0.0
O99 O 0.3228 0.92066 0.9383 0.0
O100 O 0.34939 0.96995 0.92014 0.0
C101 C 0.27154 0.89499 0.8928 0.0
O102 O 0.33157 0.94515 0.86096 0.0
Co103 Co 0.30659 0.86971 0.86168 0.0
O104 O 0.30408 0.89988 0.83526 0.0
C105 C 0.37044 0.90112 0.88974 0.0
C106 C 0.34012 0.95192 0.94187 0.0
C107 C 0.31912 0.93085 0.83822 0.0
O108 O 0.36582 0.92444 0.89794 0.0
O109 O 0.34866 0.87599 0.87702 0.0
O110 O 0.28167 0.92463 0.90115 0.0
O111 O 0.29351 0.88643 0.89163 0.0
Co112 Co 0.3935 0.32767 0.39557 0.0
O113 O 0.3965 0.32811 0.43443 0.0
O114 O 0.37419 0.35191 0.41113 0.0
C115 C 0.37633 0.27355 0.39172 0.0
O116 O 0.38481 0.33139 0.35534 0.0
Co117 Co 0.43437 0.30734 0.3593 0.0
O118 O 0.40292 0.30329 0.33101 0.0
C119 C 0.46621 0.37131 0.38771 0.0
C120 C 0.3815 0.34485 0.43457 0.0
C121 C 0.38693 0.31839 0.33305 0.0
O122 O 0.43825 0.36859 0.39344 0.0
O123 O 0.46922 0.34844 0.37657 0.0
O124 O 0.35526 0.28289 0.39717 0.0
O125 O 0.40628 0.29664 0.39025 0.0
Co126 Co 0.0575 0.38516 0.89441 0.0
O127 O 0.06579 0.39395 0.93215 0.0
O128 O 0.01643 0.36491 0.91447 0.0
C129 C 0.09645 0.3713 0.88878 0.0
O130 O 0.0411 0.37112 0.85546 0.0
Co131 Co 0.1136 0.42695 0.85384 0.0
O132 O 0.08653 0.38929 0.83007 0.0
C133 C 0.07408 0.45373 0.87742 0.0
C134 C 0.03455 0.37697 0.93595 0.0
C135 C 0.0557 0.37177 0.83318 0.0
O136 O 0.05559 0.42672 0.88986 0.0
O137 O 0.09893 0.45892 0.86325 0.0
O138 O 0.06762 0.34965 0.89736 0.0
O139 O 0.10119 0.40051 0.8859 0.0
Co140 Co 0.67668 0.05739 0.3952 0.0
O141 O 0.6732 0.06466 0.433 0.0
O142 O 0.65216 0.01594 0.4138 0.0
C143 C 0.73081 0.09419 0.39265 0.0
O144 O 0.6763 0.04047 0.35692 0.0
Co145 Co 0.69875 0.11339 0.35315 0.0
O146 O 0.70803 0.08404 0.33097 0.0
C147 C 0.62974 0.078 0.3724 0.0
C148 C 0.65742 0.03312 0.4357 0.0
C149 C 0.69212 0.05326 0.33489 0.0
O150 O 0.63511 0.05861 0.3871 0.0
O151 O 0.65211 0.10177 0.35881 0.0
O152 O 0.72108 0.06479 0.40142 0.0
O153 O 0.70794 0.1008 0.3875 0.0
Co154 Co 0.61415 0.67271 0.88635 0.0
O155 O 0.60468 0.66853 0.92445 0.0
O156 O 0.63496 0.6512 0.90413 0.0
C157 C 0.6264 0.72548 0.88317 0.0
O158 O 0.62969 0.67357 0.84743 0.0
Co159 Co 0.57342 0.68922 0.8461 0.0
O160 O 0.61122 0.70065 0.82222 0.0
C161 C 0.54726 0.62123 0.86562 0.0
C162 C 0.62235 0.65461 0.92642 0.0
C163 C 0.62925 0.68791 0.82537 0.0
O164 O 0.5734 0.62906 0.87927 0.0
O165 O 0.54237 0.64177 0.85248 0.0
O166 O 0.64847 0.71876 0.89162 0.0
O167 O 0.59777 0.70063 0.87923 0.0
Co168 Co 0.60363 0.92001 0.90329 0.0
O169 O 0.59503 0.90884 0.94078 0.0
O170 O 0.61509 0.95892 0.92461 0.0
C171 C 0.62879 0.89057 0.89654 0.0
O172 O 0.61625 0.94004 0.86527 0.0
Co173 Co 0.57345 0.86456 0.86008 0.0
O174 O 0.60724 0.89906 0.83686 0.0
C175 C 0.5319 0.88659 0.88743 0.0
C176 C 0.60613 0.9396 0.94553 0.0
C177 C 0.61917 0.92939 0.84201 0.0
O178 O 0.55726 0.911 0.89815 0.0
O179 O 0.53331 0.86435 0.87362 0.0
O180 O 0.64525 0.9199 0.90648 0.0
O181 O 0.59802 0.87969 0.893 0.0
Co182 Co 0.6784 0.61593 0.39186 0.0
O183 O 0.67878 0.60826 0.42973 0.0
O184 O 0.65852 0.63727 0.4117 0.0
C185 C 0.73091 0.62923 0.38487 0.0
O186 O 0.67605 0.62974 0.35299 0.0
Co187 Co 0.68939 0.57022 0.35304 0.0
O188 O 0.69548 0.60419 0.32652 0.0
C189 C 0.62708 0.54492 0.38225 0.0
C190 C 0.66509 0.62586 0.43333 0.0
C191 C 0.68617 0.62507 0.33009 0.0
O192 O 0.63442 0.57433 0.3885 0.0
O193 O 0.64712 0.53804 0.37057 0.0
O194 O 0.72423 0.65117 0.39369 0.0
O195 O 0.70623 0.59997 0.38315 0.0
Co196 Co 0.06828 0.676 0.88106 0.0
O197 O 0.07676 0.67353 0.91872 0.0
O198 O 0.02777 0.65725 0.90158 0.0
C199 C 0.10986 0.72782 0.87584 0.0
O200 O 0.05074 0.6758 0.843 0.0
Co201 Co 0.12125 0.68921 0.83739 0.0
O202 O 0.09453 0.70258 0.81593 0.0
C203 C 0.07984 0.62226 0.85966 0.0
C204 C 0.04574 0.6616 0.92284 0.0
C205 C 0.06404 0.69 0.82049 0.0
O206 O 0.06319 0.63129 0.87438 0.0
O207 O 0.10421 0.64186 0.84504 0.0
O208 O 0.08207 0.72265 0.8855 0.0
O209 O 0.11206 0.70209 0.87151 0.0
Co210 Co 0.3951 0.06778 0.39762 0.0
O211 O 0.40005 0.06878 0.43631 0.0
O212 O 0.36815 0.02435 0.41263 0.0
C213 C 0.38949 0.11274 0.39493 0.0
O214 O 0.38238 0.0577 0.35756 0.0
Co215 Co 0.44519 0.12569 0.36193 0.0
O216 O 0.4095 0.10552 0.33511 0.0
C217 C 0.46248 0.07769 0.38322 0.0
C218 C 0.37919 0.03764 0.43612 0.0
C219 C 0.38737 0.07552 0.33636 0.0
O220 O 0.4335 0.05979 0.39307 0.0
O221 O 0.47198 0.10528 0.37171 0.0
O222 O 0.36441 0.0846 0.40119 0.0
O223 O 0.41687 0.11305 0.39296 0.0
Co224 Co 0.32063 0.39422 0.89414 0.0
O225 O 0.32073 0.4034 0.93188 0.0
O226 O 0.33614 0.36974 0.9152 0.0
C227 C 0.27049 0.38722 0.88633 0.0
O228 O 0.32224 0.37863 0.85555 0.0
Co229 Co 0.31535 0.44063 0.85206 0.0
O230 O 0.30084 0.40179 0.82874 0.0
C231 C 0.37899 0.45961 0.87795 0.0
C232 C 0.33142 0.38335 0.93633 0.0
C233 C 0.31015 0.38102 0.8328 0.0
O234 O 0.36677 0.43217 0.8906 0.0
O235 O 0.3623 0.46788 0.86283 0.0
O236 O 0.27345 0.36313 0.89579 0.0
O237 O 0.29731 0.41475 0.88408 0.0
Co238 Co 0.92566 0.31945 0.39574 0.0
O239 O 0.92253 0.31692 0.43456 0.0
O240 O 0.96889 0.3425 0.41168 0.0
C241 C 0.88899 0.26616 0.38788 0.0
O242 O 0.93839 0.3267 0.35567 0.0
Co243 Co 0.86394 0.30382 0.36124 0.0
O244 O 0.89237 0.30669 0.33067 0.0
C245 C 0.8976 0.36452 0.39324 0.0
C246 C 0.95422 0.33438 0.43498 0.0
C247 C 0.92322 0.31904 0.33284 0.0
O248 O 0.92256 0.36069 0.39653 0.0
O249 O 0.87074 0.34283 0.38253 0.0
O250 O 0.91901 0.27459 0.394 0.0
O251 O 0.88203 0.28921 0.38911 0.0
Co252 Co 0.0574 0.38895 0.62271 0.0
O253 O 0.058 0.39707 0.58462 0.0
O254 O 0.01318 0.36641 0.60826 0.0
C255 C 0.09885 0.37779 0.62099 0.0
O256 O 0.0477 0.37386 0.66231 0.0
Co257 Co 0.11878 0.43132 0.65833 0.0
O258 O 0.09637 0.39371 0.6832 0.0
C259 C 0.07481 0.45684 0.64281 0.0
C260 C 0.02653 0.37804 0.58487 0.0
C261 C 0.06548 0.37482 0.68248 0.0
O262 O 0.05461 0.42973 0.63104 0.0
O263 O 0.10188 0.46232 0.65336 0.0
O264 O 0.06918 0.3551 0.61536 0.0
O265 O 0.10256 0.40633 0.62564 0.0
Co266 Co 0.67613 0.05458 0.12845 0.0
O267 O 0.66927 0.06302 0.09191 0.0
O268 O 0.6529 0.01368 0.10835 0.0
C269 C 0.7291 0.09422 0.12958 0.0
O270 O 0.68061 0.03792 0.16575 0.0
Co271 Co 0.6964 0.11034 0.17115 0.0
O272 O 0.71074 0.08324 0.19074 0.0
C273 C 0.62711 0.07019 0.15453 0.0
C274 C 0.65524 0.03184 0.08768 0.0
C275 C 0.69784 0.05255 0.18685 0.0
O276 O 0.63356 0.05184 0.13951 0.0
O277 O 0.64882 0.09518 0.16739 0.0
O278 O 0.72116 0.0658 0.11947 0.0
O279 O 0.70499 0.09822 0.1364 0.0
Co280 Co 0.60308 0.67998 0.61659 0.0
O281 O 0.59225 0.67838 0.57904 0.0
O282 O 0.62953 0.66749 0.59517 0.0
C283 C 0.6059 0.72837 0.62477 0.0
O284 O 0.62172 0.68094 0.65429 0.0
Co285 Co 0.55564 0.68021 0.66017 0.0
O286 O 0.59475 0.69599 0.68327 0.0
C287 C 0.54081 0.61816 0.63368 0.0
C288 C 0.61424 0.67021 0.57431 0.0
C289 C 0.61814 0.69084 0.67765 0.0
O290 O 0.56808 0.63248 0.62072 0.0
O291 O 0.53093 0.63309 0.64927 0.0
O292 O 0.63084 0.72757 0.61452 0.0
O293 O 0.57966 0.70034 0.62755 0.0
Co294 Co 0.92546 0.61207 0.10463 0.0
O295 O 0.91776 0.6056 0.06655 0.0
O296 O 0.9667 0.63495 0.0849 0.0
C297 C 0.88483 0.62302 0.11309 0.0
O298 O 0.94118 0.62446 0.14382 0.0
Co299 Co 0.86883 0.56306 0.14252 0.0
O300 O 0.89682 0.59494 0.17028 0.0
C301 C 0.9078 0.54139 0.11181 0.0
C302 C 0.94901 0.62359 0.06314 0.0
C303 C 0.92656 0.61716 0.16696 0.0
O304 O 0.92952 0.5713 0.10679 0.0
O305 O 0.88027 0.5331 0.12294 0.0
O306 O 0.91279 0.64617 0.10417 0.0
O307 O 0.88174 0.59434 0.11366 0.0
Co308 Co 0.32251 0.93152 0.62354 0.0
O309 O 0.32403 0.9301 0.58471 0.0
O310 O 0.34023 0.97519 0.60859 0.0
C311 C 0.27151 0.88795 0.62769 0.0
O312 O 0.32311 0.94205 0.66392 0.0
Co313 Co 0.3148 0.87222 0.65759 0.0
O314 O 0.30891 0.89609 0.68786 0.0
C315 C 0.37506 0.91377 0.62705 0.0
C316 C 0.33631 0.96158 0.58499 0.0
C317 C 0.31569 0.92579 0.68626 0.0
O318 O 0.36771 0.9366 0.62534 0.0
O319 O 0.35546 0.8852 0.6363 0.0
O320 O 0.27526 0.91659 0.6221 0.0
O321 O 0.29802 0.88656 0.62838 0.0
Co322 Co 0.39023 0.32462 0.11978 0.0
O323 O 0.39861 0.32542 0.08194 0.0
O324 O 0.3686 0.34442 0.09995 0.0
C325 C 0.37762 0.27214 0.12533 0.0
O326 O 0.37614 0.32574 0.15904 0.0
Co327 Co 0.43529 0.31205 0.15843 0.0
O328 O 0.40027 0.30381 0.1844 0.0
C329 C 0.45961 0.37752 0.13431 0.0
C330 C 0.3806 0.33859 0.07829 0.0
C331 C 0.38013 0.31414 0.18152 0.0
O332 O 0.4313 0.36875 0.12409 0.0
O333 O 0.46638 0.35793 0.14689 0.0
O334 O 0.35545 0.27871 0.11695 0.0
O335 O 0.40665 0.29699 0.12768 0.0
H336 H 0.3886 0.03021 0.30312 0.0
H337 H 0.34671 0.09247 0.31283 0.0
H338 H 0.33383 0.08795 0.26482 0.0
H339 H 0.34814 0.07865 0.21946 0.0
H340 H 0.39313 0.01939 0.20881 0.0
H341 H 0.39028 0.00936 0.25746 0.0
C342 C 0.37514 0.04132 0.29486 0.0
C343 C 0.36851 0.0616 0.31138 0.0
C344 C 0.36898 0.03964 0.26687 0.0
C345 C 0.35178 0.07656 0.30045 0.0
C346 C 0.34474 0.07427 0.27294 0.0
C347 C 0.35564 0.06208 0.22771 0.0
C348 C 0.37086 0.04983 0.21069 0.0
C349 C 0.35512 0.05762 0.25576 0.0
C350 C 0.38095 0.02876 0.2215 0.0
C351 C 0.37986 0.02354 0.24943 0.0
H352 H 0.34708 0.37802 0.71546 0.0
H353 H 0.24336 0.33948 0.70691 0.0
H354 H 0.23558 0.32772 0.75513 0.0
H355 H 0.26014 0.34251 0.80015 0.0
H356 H 0.36419 0.38484 0.80956 0.0
H357 H 0.37013 0.38019 0.76094 0.0
C358 C 0.32266 0.36545 0.72402 0.0
C359 C 0.29576 0.35948 0.70773 0.0
C360 C 0.3186 0.36014 0.75212 0.0
C361 C 0.2643 0.34397 0.71907 0.0
C362 C 0.25992 0.33763 0.74672 0.0
C363 C 0.28385 0.34904 0.79167 0.0
C364 C 0.31168 0.36402 0.80831 0.0
C365 C 0.28713 0.34758 0.76361 0.0
C366 C 0.34238 0.37286 0.79719 0.0
C367 C 0.34581 0.37074 0.76927 0.0
H368 H 0.95485 0.37202 0.21723 0.0
H369 H 0.92598 0.27144 0.20138 0.0
H370 H 0.93022 0.26223 0.24933 0.0
H371 H 0.92812 0.27943 0.29598 0.0
H372 H 0.95661 0.37988 0.31201 0.0
H373 H 0.9673 0.39291 0.264 0.0
C374 C 0.95141 0.34868 0.22416 0.0
C375 C 0.94036 0.32249 0.20589 0.0
C376 C 0.95302 0.34338 0.25195 0.0
C377 C 0.93508 0.29207 0.21509 0.0
C378 C 0.93694 0.28666 0.24259 0.0
C379 C 0.93825 0.30446 0.28903 0.0
C380 C 0.94168 0.32872 0.30734 0.0
C381 C 0.94386 0.31159 0.26132 0.0
C382 C 0.95423 0.36097 0.29822 0.0
C383 C 0.95994 0.36831 0.27072 0.0
H384 H 0.60672 0.97547 0.72956 0.0
H385 H 0.67246 0.93963 0.71124 0.0
H386 H 0.6843 0.93931 0.75917 0.0
H387 H 0.6644 0.93536 0.80566 0.0
H388 H 0.59757 0.96977 0.82432 0.0
H389 H 0.59831 0.98551 0.77717 0.0
C390 C 0.62501 0.96939 0.73606 0.0
C391 C 0.63892 0.95779 0.71701 0.0
C392 C 0.63088 0.96832 0.76381 0.0
C393 C 0.66193 0.94913 0.72558 0.0
C394 C 0.6683 0.94848 0.75303 0.0
C395 C 0.65132 0.94782 0.79959 0.0
C396 C 0.6308 0.95123 0.81829 0.0
C397 C 0.6513 0.95602 0.77233 0.0
C398 C 0.61374 0.96716 0.8103 0.0
C399 C 0.61379 0.9757 0.78322 0.0
H400 H 0.63757 0.61595 0.29568 0.0
H401 H 0.74107 0.67536 0.31002 0.0
H402 H 0.75038 0.69017 0.26237 0.0
H403 H 0.7306 0.67394 0.21597 0.0
H404 H 0.62735 0.61342 0.20103 0.0
H405 H 0.61614 0.612 0.24932 0.0
C406 C 0.66185 0.63358 0.28854 0.0
C407 C 0.68862 0.64472 0.30622 0.0
C408 C 0.6671 0.64113 0.26082 0.0
C409 C 0.72011 0.6669 0.29675 0.0
C410 C 0.72548 0.67497 0.26942 0.0
C411 C 0.70555 0.66184 0.22323 0.0
C412 C 0.67988 0.64359 0.20509 0.0
C413 C 0.69943 0.66051 0.25108 0.0
C414 C 0.6475 0.62784 0.21461 0.0
C415 C 0.64113 0.62661 0.24232 0.0
H416 H 0.02097 0.64608 0.70489 0.0
H417 H 0.07654 0.75041 0.69316 0.0
H418 H 0.07384 0.75934 0.74132 0.0
H419 H 0.06921 0.73713 0.78683 0.0
H420 H 0.01633 0.63292 0.79931 0.0
H421 H 0.00352 0.62407 0.75114 0.0
C422 C 0.03086 0.67069 0.71277 0.0
C423 C 0.04893 0.6976 0.69563 0.0
C424 C 0.03033 0.67558 0.7408 0.0
C425 C 0.06232 0.72942 0.70604 0.0
C426 C 0.06114 0.7345 0.73364 0.0
C427 C 0.05339 0.71259 0.77916 0.0
C428 C 0.04388 0.68572 0.79643 0.0
C429 C 0.04717 0.70777 0.75134 0.0
C430 C 0.02366 0.65399 0.78638 0.0
C431 C 0.01682 0.64893 0.75872 0.0
H432 H 0.9658 0.60496 0.19879 0.0
H433 H 0.92118 0.665 0.1916 0.0
H434 H 0.92502 0.67375 0.24032 0.0
H435 H 0.9277 0.65218 0.28493 0.0
H436 H 0.97061 0.59065 0.29246 0.0
H437 H 0.98149 0.59496 0.2439 0.0
C438 C 0.95874 0.62149 0.20781 0.0
C439 C 0.94349 0.63457 0.19172 0.0
C440 C 0.95992 0.62535 0.23605 0.0
C441 C 0.93351 0.65519 0.20361 0.0
C442 C 0.93519 0.65971 0.23154 0.0
C443 C 0.9409 0.64112 0.27605 0.0
C444 C 0.94849 0.62125 0.29207 0.0
C445 C 0.94639 0.64319 0.24804 0.0
C446 C 0.96499 0.60642 0.28045 0.0
C447 C 0.97083 0.60858 0.25263 0.0
H448 H 0.27476 0.92906 0.80317 0.0
H449 H 0.37838 0.97136 0.81567 0.0
H450 H 0.38791 0.98037 0.76705 0.0
H451 H 0.36491 0.96315 0.721 0.0
H452 H 0.2609 0.91867 0.70922 0.0
H453 H 0.25323 0.92415 0.75728 0.0
C454 C 0.29954 0.94181 0.79531 0.0
C455 C 0.32584 0.94958 0.81288 0.0
C456 C 0.30461 0.94584 0.7673 0.0
C457 C 0.35782 0.96562 0.80255 0.0
C458 C 0.36318 0.97022 0.77467 0.0
C459 C 0.34084 0.9562 0.72885 0.0
C460 C 0.31348 0.94076 0.71169 0.0
C461 C 0.33657 0.95859 0.75676 0.0
C462 C 0.28227 0.93102 0.72206 0.0
C463 C 0.27787 0.93382 0.7496 0.0
H464 H 0.34327 0.2741 0.29814 0.0
H465 H 0.40686 0.37753 0.30994 0.0
H466 H 0.40372 0.38729 0.26178 0.0
H467 H 0.39348 0.36431 0.2155 0.0
H468 H 0.33038 0.2607 0.20422 0.0
H469 H 0.32148 0.25309 0.2528 0.0
C470 C 0.3552 0.29889 0.29029 0.0
C471 C 0.37531 0.32506 0.30743 0.0
C472 C 0.3535 0.30419 0.26254 0.0
C473 C 0.39098 0.35707 0.29713 0.0
C474 C 0.38945 0.36259 0.26951 0.0
C475 C 0.37625 0.34043 0.22362 0.0
C476 C 0.36239 0.31311 0.20632 0.0
C477 C 0.37221 0.33612 0.25181 0.0
C478 C 0.34084 0.28212 0.21712 0.0
C479 C 0.33625 0.27769 0.24498 0.0
H480 H 0.02184 0.37933 0.71559 0.0
H481 H 0.07833 0.33108 0.70606 0.0
H482 H 0.07186 0.31705 0.75388 0.0
H483 H 0.06289 0.33143 0.79927 0.0
H484 H 0.01011 0.38322 0.8099 0.0
H485 H 0.00134 0.38213 0.76113 0.0
C486 C 0.03127 0.36436 0.72382 0.0
C487 C 0.05053 0.3562 0.70742 0.0
C488 C 0.02862 0.3576 0.75175 0.0
C489 C 0.0633 0.33744 0.71834 0.0
C490 C 0.05988 0.32971 0.74575 0.0
C491 C 0.04798 0.34091 0.79096 0.0
C492 C 0.03723 0.35743 0.80805 0.0
C493 C 0.04439 0.34145 0.76287 0.0
C494 C 0.01828 0.37002 0.79717 0.0
C495 C 0.01381 0.36993 0.76917 0.0
H496 H 0.73761 0.05338 0.30177 0.0
H497 H 0.63362 0.0098 0.31294 0.0
H498 H 0.62459 0.99597 0.26497 0.0
H499 H 0.64794 0.01102 0.21901 0.0
H500 H 0.7522 0.05669 0.20836 0.0
H501 H 0.75953 0.05361 0.25674 0.0
C502 C 0.71292 0.03936 0.29389 0.0
C503 C 0.68635 0.03286 0.31068 0.0
C504 C 0.70804 0.03222 0.26618 0.0
C505 C 0.65443 0.01486 0.30038 0.0
C506 C 0.6493 0.00735 0.27283 0.0
C507 C 0.67199 0.01835 0.22715 0.0
C508 C 0.69954 0.03422 0.21025 0.0
C509 C 0.6761 0.01789 0.25528 0.0
C510 C 0.73067 0.04421 0.22102 0.0
C511 C 0.73491 0.043 0.24878 0.0
H512 H 0.6183 0.64411 0.70919 0.0
H513 H 0.66484 0.74832 0.69762 0.0
H514 H 0.68172 0.75749 0.74483 0.0
H515 H 0.66865 0.73527 0.79076 0.0
H516 H 0.61922 0.63107 0.80313 0.0
H517 H 0.61893 0.62226 0.75449 0.0
C518 C 0.63377 0.66877 0.71673 0.0
C519 C 0.64046 0.69555 0.70009 0.0
C520 C 0.64216 0.67375 0.74429 0.0
C521 C 0.6598 0.72743 0.71008 0.0
C522 C 0.66902 0.73263 0.73719 0.0
C523 C 0.65949 0.71076 0.78283 0.0
C524 C 0.64373 0.68385 0.80034 0.0
C525 C 0.6583 0.70595 0.7548 0.0
C526 C 0.63169 0.65216 0.79001 0.0
C527 C 0.63101 0.64712 0.76211 0.0
H528 H 0.34432 0.12567 0.11786 0.0
H529 H 0.43736 0.16761 0.15891 0.0
H530 H 0.43835 0.21936 0.16355 0.0
H531 H 0.41649 0.25454 0.15121 0.0
H532 H 0.32452 0.21463 0.10899 0.0
H533 H 0.3191 0.16014 0.10989 0.0
C534 C 0.36446 0.14601 0.12821 0.0
C535 C 0.39093 0.14298 0.13766 0.0
C536 C 0.36523 0.17612 0.13039 0.0
C537 C 0.41686 0.16942 0.15114 0.0
C538 C 0.41751 0.19908 0.15381 0.0
C539 C 0.39503 0.23386 0.14251 0.0
C540 C 0.37123 0.23857 0.12967 0.0
C541 C 0.3924 0.203 0.14273 0.0
C542 C 0.34328 0.21152 0.11886 0.0
C543 C 0.34027 0.18044 0.11926 0.0
H544 H 0.15985 0.42061 0.63738 0.0
H545 H 0.10113 0.32246 0.60684 0.0
H546 H 0.1497 0.31602 0.60559 0.0
H547 H 0.20996 0.34004 0.61102 0.0
H548 H 0.26686 0.43896 0.64098 0.0
H549 H 0.21789 0.44316 0.64472 0.0
C550 C 0.1575 0.39766 0.6306 0.0
C551 C 0.127 0.37214 0.62205 0.0
C552 C 0.18533 0.39432 0.62974 0.0
C553 C 0.12442 0.34253 0.61349 0.0
C554 C 0.1522 0.33889 0.6127 0.0
C555 C 0.21149 0.36236 0.61853 0.0
C556 C 0.24213 0.38917 0.62557 0.0
C557 C 0.18296 0.36486 0.62044 0.0
C558 C 0.24373 0.41794 0.63531 0.0
C559 C 0.21569 0.42046 0.63746 0.0
H560 H 0.87132 0.21143 0.11222 0.0
H561 H 0.8342 0.25585 0.16747 0.0
H562 H 0.78549 0.20306 0.17537 0.0
H563 H 0.75008 0.14701 0.16123 0.0
H564 H 0.78405 0.10188 0.10389 0.0
H565 H 0.83769 0.15204 0.10239 0.0
C566 C 0.85288 0.20923 0.12648 0.0
C567 C 0.85595 0.23737 0.13899 0.0
C568 C 0.82428 0.17886 0.13021 0.0
C569 C 0.83203 0.2345 0.15736 0.0
C570 C 0.80418 0.20437 0.16185 0.0
C571 C 0.76933 0.14788 0.14871 0.0
C572 C 0.76305 0.12115 0.1323 0.0
C573 C 0.79946 0.17679 0.1475 0.0
C574 C 0.78837 0.12237 0.11656 0.0
C575 C 0.81892 0.15107 0.1156 0.0
H576 H 0.65693 0.79062 0.61941 0.0
H577 H 0.55655 0.73514 0.64607 0.0
H578 H 0.55539 0.78561 0.6536 0.0
H579 H 0.58106 0.84491 0.64884 0.0
H580 H 0.681 0.90102 0.62147 0.0
H581 H 0.68433 0.85095 0.61838 0.0
C582 C 0.63494 0.78964 0.62713 0.0
C583 C 0.60675 0.75919 0.63185 0.0
C584 C 0.63432 0.81883 0.63121 0.0
C585 C 0.5785 0.75826 0.64205 0.0
C586 C 0.57778 0.78711 0.64635 0.0
C587 C 0.60372 0.84627 0.6425 0.0
C588 C 0.63062 0.87652 0.6351 0.0
C589 C 0.60528 0.81744 0.64042 0.0
C590 C 0.6599 0.87795 0.62718 0.0
C591 C 0.66176 0.84932 0.62529 0.0
H592 H 0.7515 0.60679 0.15008 0.0
H593 H 0.77621 0.68314 0.09154 0.0
H594 H 0.83131 0.69022 0.08701 0.0
H595 H 0.86898 0.66819 0.09491 0.0
H596 H 0.84023 0.58891 0.1515 0.0
H597 H 0.79038 0.58967 0.16182 0.0
C598 C 0.76906 0.62539 0.13664 0.0
C599 C 0.75974 0.64403 0.12085 0.0
C600 C 0.79992 0.62852 0.13363 0.0
C601 C 0.78292 0.66844 0.10387 0.0
C602 C 0.81427 0.67226 0.10113 0.0
C603 C 0.85206 0.65166 0.1099 0.0
C604 C 0.85806 0.62825 0.1222 0.0
C605 C 0.8226 0.6515 0.11516 0.0
C606 C 0.836 0.60685 0.14151 0.0
C607 C 0.80743 0.60724 0.14744 0.0
H608 H 0.21073 0.87585 0.61169 0.0
H609 H 0.26079 0.83233 0.65213 0.0
H610 H 0.21098 0.77952 0.65245 0.0
H611 H 0.15511 0.74441 0.63735 0.0
H612 H 0.10342 0.78586 0.59673 0.0
H613 H 0.15173 0.84065 0.60044 0.0
C614 C 0.21045 0.8549 0.62101 0.0
C615 C 0.23954 0.85797 0.63158 0.0
C616 C 0.18156 0.82411 0.62076 0.0
C617 C 0.23888 0.83063 0.64356 0.0
C618 C 0.21038 0.80031 0.64373 0.0
C619 C 0.15424 0.76542 0.6295 0.0
C620 C 0.12596 0.76107 0.61647 0.0
C621 C 0.18192 0.79657 0.63168 0.0
C622 C 0.12507 0.78862 0.60673 0.0
C623 C 0.1527 0.81991 0.60881 0.0
H624 H 0.87875 0.66568 0.38725 0.0
H625 H 0.83704 0.57342 0.34507 0.0
H626 H 0.78452 0.57114 0.34253 0.0
H627 H 0.74867 0.5914 0.3573 0.0
H628 H 0.78851 0.68275 0.40043 0.0
H629 H 0.84346 0.6896 0.39734 0.0
C630 C 0.85833 0.64554 0.37698 0.0
C631 C 0.86164 0.61955 0.3667 0.0
C632 C 0.82772 0.64398 0.37608 0.0
C633 C 0.83501 0.59352 0.35347 0.0
C634 C 0.80489 0.59213 0.35203 0.0
C635 C 0.76944 0.61303 0.36572 0.0
C636 C 0.76455 0.63624 0.37944 0.0
C637 C 0.80067 0.61657 0.36412 0.0
C638 C 0.7917 0.66442 0.38989 0.0
C639 C 0.82309 0.66828 0.38822 0.0
H640 H 0.12383 0.78639 0.89845 0.0
H641 H 0.15936 0.74245 0.84113 0.0
H642 H 0.21135 0.7929 0.83829 0.0
H643 H 0.24949 0.84582 0.8573 0.0
H644 H 0.21667 0.89098 0.9155 0.0
H645 H 0.16079 0.84412 0.91254 0.0
C646 C 0.14273 0.78825 0.88489 0.0
C647 C 0.13797 0.76056 0.87041 0.0
C648 C 0.17319 0.81739 0.88378 0.0
C649 C 0.16255 0.7632 0.85284 0.0
C650 C 0.19239 0.79208 0.85119 0.0
C651 C 0.22998 0.84572 0.86894 0.0
C652 C 0.23708 0.87134 0.88689 0.0
C653 C 0.19842 0.81874 0.86742 0.0
C654 C 0.21161 0.87131 0.90157 0.0
C655 C 0.17978 0.84444 0.90002 0.0
H656 H 0.3407 0.12651 0.40777 0.0
H657 H 0.43404 0.1658 0.36745 0.0
H658 H 0.43503 0.21682 0.35945 0.0
H659 H 0.41311 0.25246 0.36775 0.0
H660 H 0.32209 0.21742 0.41044 0.0
H661 H 0.31605 0.16252 0.41318 0.0
C662 C 0.36097 0.14616 0.39696 0.0
C663 C 0.38737 0.14227 0.38841 0.0
C664 C 0.36189 0.17628 0.39293 0.0
C665 C 0.4135 0.16797 0.37445 0.0
C666 C 0.41414 0.19732 0.36981 0.0
C667 C 0.39166 0.23279 0.37738 0.0
C668 C 0.36829 0.23907 0.38914 0.0
C669 C 0.38899 0.20202 0.37956 0.0
C670 C 0.34044 0.21315 0.4012 0.0
C671 C 0.33717 0.18188 0.40297 0.0
H672 H 0.20935 0.33812 0.89969 0.0
H673 H 0.2608 0.43019 0.85725 0.0
H674 H 0.20998 0.43072 0.85104 0.0
H675 H 0.1528 0.409 0.86254 0.0
H676 H 0.10049 0.31836 0.90655 0.0
H677 H 0.14957 0.31292 0.90687 0.0
C678 C 0.20923 0.35794 0.88869 0.0
C679 C 0.23881 0.3843 0.87931 0.0
C680 C 0.17986 0.35849 0.88566 0.0
C681 C 0.23842 0.40982 0.86499 0.0
C682 C 0.20936 0.41018 0.86142 0.0
C683 C 0.15196 0.38779 0.87188 0.0
C684 C 0.12337 0.36441 0.88488 0.0
C685 C 0.18023 0.38526 0.87246 0.0
C686 C 0.1224 0.33678 0.89653 0.0
C687 C 0.15048 0.33378 0.89685 0.0
H688 H 0.7557 0.14487 0.3583 0.0
H689 H 0.7836 0.10055 0.42113 0.0
H690 H 0.83863 0.14897 0.42237 0.0
H691 H 0.87555 0.20758 0.41015 0.0
H692 H 0.84471 0.25061 0.34826 0.0
H693 H 0.79455 0.19899 0.34163 0.0
C694 C 0.77399 0.14552 0.37194 0.0
C695 C 0.76556 0.11955 0.38989 0.0
C696 C 0.80511 0.17339 0.37274 0.0
C697 C 0.7896 0.12042 0.40716 0.0
C698 C 0.82097 0.14818 0.40797 0.0
C699 C 0.85824 0.20521 0.39469 0.0
C700 C 0.86366 0.23292 0.37986 0.0
C701 C 0.82863 0.17537 0.39151 0.0
C702 C 0.84098 0.22976 0.36007 0.0
C703 C 0.81216 0.20023 0.35632 0.0
H704 H 0.66754 0.78261 0.90952 0.0
H705 H 0.59869 0.74287 0.84371 0.0
H706 H 0.59939 0.79412 0.8385 0.0
H707 H 0.6112 0.84602 0.85756 0.0
H708 H 0.67607 0.88621 0.92555 0.0
H709 H 0.68596 0.83972 0.92475 0.0
C710 C 0.65345 0.78563 0.89364 0.0
C711 C 0.63286 0.75882 0.87719 0.0
C712 C 0.65292 0.81519 0.89139 0.0
C713 C 0.61453 0.76287 0.85679 0.0
C714 C 0.61483 0.79227 0.85379 0.0
C715 C 0.62815 0.84503 0.87179 0.0
C716 C 0.6425 0.86902 0.89179 0.0
C717 C 0.63267 0.81795 0.87174 0.0
C718 C 0.66476 0.86785 0.90992 0.0
C719 C 0.6701 0.8411 0.90964 0.0
H720 H 0.37568 0.01614 0.95782 0.0
H721 H 0.32096 0.91756 0.98867 0.0
H722 H 0.33098 0.93807 0.03468 0.0
H723 H 0.35493 0.98402 0.06669 0.0
H724 H 0.41036 0.08262 0.03612 0.0
H725 H 0.40041 0.06218 0.98997 0.0
C726 C 0.36606 -0.0008 0.97462 0.0
C727 C 0.3476 0.96539 0.96966 0.0
C728 C 0.37195 0.01115 1.0013 0.0
C729 C 0.3353 0.94376 0.99175 0.0
C730 C 0.34095 0.95543 0.0182 0.0
C731 C 0.36478 0.00099 0.04993 0.0
C732 C 0.3833 0.03475 0.05495 0.0
C733 C 0.35916 0.98908 0.02327 0.0
C734 C 0.39602 0.05643 0.03293 0.0
C735 C 0.39035 0.0448 1.00643 0.0
H736 H 0.38588 0.32534 0.48533 0.0
H737 H 0.35661 0.38574 0.44171 0.0
H738 H 0.3411 0.40093 0.48407 0.0
H739 H 0.33546 0.39675 0.5334 0.0
H740 H 0.36323 0.3352 0.57704 0.0
H741 H 0.3797 0.32073 0.53475 0.0
C742 C 0.37622 0.34193 0.48507 0.0
C743 C 0.37254 0.35448 0.46032 0.0
C744 C 0.36702 0.35028 0.50951 0.0
C745 C 0.35973 0.37574 0.46041 0.0
C746 C 0.35085 0.38443 0.48465 0.0
C747 C 0.34517 0.38021 0.53372 0.0
C748 C 0.34818 0.36714 0.55843 0.0
C749 C 0.35433 0.37181 0.5093 0.0
C750 C 0.36064 0.3456 0.55836 0.0
C751 C 0.37009 0.33734 0.53416 0.0
H752 H 0.97049 0.34301 0.95224 0.0
H753 H 0.06928 0.39904 0.98238 0.0
H754 H 0.04917 0.39017 0.0285 0.0
H755 H 0.00358 0.3663 0.06077 0.0
H756 H 0.90469 0.31069 0.03086 0.0
H757 H 0.92472 0.31956 0.98461 0.0
C758 C 0.98755 0.3533 0.9689 0.0
C759 C 0.02129 0.37162 0.96375 0.0
C760 C 0.97584 0.34816 0.99562 0.0
C761 C 0.04311 0.38481 0.98564 0.0
C762 C 0.03168 0.37975 0.01214 0.0
C763 C 0.98646 0.35613 0.04413 0.0
C764 C 0.95275 0.33787 0.04935 0.0
C765 C 0.9981 0.36142 0.01742 0.0
C766 C 0.93084 0.32491 0.0275 0.0
C767 C 0.94224 0.32994 1.00095 0.0
H768 H 0.67471 0.06351 0.48452 0.0
H769 H 0.6191 0.96828 0.44758 0.0
H770 H 0.6057 0.94268 0.49211 0.0
H771 H 0.61084 0.94712 0.54112 0.0
H772 H 0.66739 0.0418 0.57867 0.0
H773 H 0.67948 0.06796 0.53413 0.0
C774 C 0.65945 0.03716 0.48621 0.0
C775 C 0.64783 0.0178 0.46272 0.0
C776 C 0.65221 0.02256 0.51191 0.0
C777 C 0.62832 0.98371 0.46529 0.0
C778 C 0.6207 0.96907 0.49074 0.0
C779 C 0.62579 0.97353 0.53968 0.0
C780 C 0.63824 0.99251 0.56325 0.0
C781 C 0.63271 0.98823 0.51413 0.0
C782 C 0.65757 0.02664 0.56088 0.0
C783 C 0.66444 0.04157 0.53542 0.0
H784 H 0.6631 0.6056 0.03013 0.0
H785 H 0.61107 0.64782 0.06926 0.0
H786 H 0.59746 0.66134 0.02522 0.0
H787 H 0.60225 0.66309 0.97571 0.0
H788 H 0.65573 0.62224 0.93686 0.0
H789 H 0.66687 0.60626 0.98077 0.0
C790 C 0.64853 0.61752 0.02908 0.0
C791 C 0.63809 0.62566 0.05302 0.0
C792 C 0.64124 0.62564 1.00374 0.0
C793 C 0.61939 0.64125 0.0512 0.0
C794 C 0.61167 0.64905 0.02601 0.0
C795 C 0.61623 0.65055 0.9768 0.0
C796 C 0.6282 0.64393 0.95297 0.0
C797 C 0.62278 0.64168 1.00216 0.0
C798 C 0.64629 0.6277 0.95483 0.0
C799 C 0.65266 0.61855 0.97995 0.0
H800 H 0.05393 0.67102 0.52133 0.0
H801 H 0.96125 0.62581 0.56302 0.0
H802 H 0.93242 0.61183 0.5197 0.0
H803 H 0.93371 0.61234 0.47006 0.0
H804 H 0.0266 0.65855 0.42862 0.0
H805 H 0.05525 0.67244 0.47191 0.0
C806 C 0.0274 0.658 0.521 0.0
C807 C 0.00974 0.6493 0.54541 0.0
C808 C 0.01108 0.65036 0.49608 0.0
C809 C 0.9754 0.63272 0.54456 0.0
C810 C 0.95894 0.62475 0.51979 0.0
C811 C 0.96024 0.62551 0.47047 0.0
C812 C 0.978 0.63435 0.44609 0.0
C813 C 0.97654 0.63346 0.49544 0.0
C814 C 0.01234 0.65149 0.44703 0.0
C815 C 0.02873 0.65937 0.47179 0.0
H816 H 0.62916 0.00231 0.96307 0.0
H817 H 0.59218 0.90349 0.99146 0.0
H818 H 0.60266 0.92269 0.03796 0.0
H819 H 0.62514 0.968 0.07078 0.0
H820 H 0.66156 0.0667 0.04225 0.0
H821 H 0.64839 0.04711 0.99604 0.0
C822 C 0.62315 0.98498 0.97945 0.0
C823 C 0.61011 0.95159 0.97369 0.0
C824 C 0.62928 0.99616 1.0063 0.0
C825 C 0.60235 0.92941 0.99522 0.0
C826 C 0.60839 0.94034 0.02191 0.0
C827 C 0.62993 0.98514 0.05447 0.0
C828 C 0.64451 0.01875 0.06006 0.0
C829 C 0.62229 0.97373 0.02771 0.0
C830 C 0.65045 0.04065 0.03863 0.0
C831 C 0.64297 0.02951 0.01208 0.0
H832 H 0.62918 0.65414 0.44923 0.0
H833 H 0.6865 0.61295 0.47992 0.0
H834 H 0.67658 0.62351 0.52595 0.0
H835 H 0.65134 0.64398 0.55792 0.0
H836 H 0.59258 0.68373 0.5278 0.0
H837 H 0.60334 0.67427 0.48149 0.0
C838 C 0.6395 0.64755 0.46601 0.0
C839 C 0.65851 0.63277 0.46106 0.0
C840 C 0.63345 0.65341 0.49268 0.0
C841 C 0.67163 0.62425 0.48307 0.0
C842 C 0.66604 0.63032 0.50949 0.0
C843 C 0.64097 0.65064 0.54122 0.0
C844 C 0.62125 0.66454 0.54634 0.0
C845 C 0.64695 0.64481 0.51458 0.0
C846 C 0.60782 0.67288 0.52445 0.0
C847 C 0.61397 0.66752 0.49791 0.0
H848 H 0.01288 0.64761 0.04776 0.0
H849 H 0.91587 0.61347 0.01619 0.0
H850 H 0.93672 0.62154 0.97027 0.0
H851 H 0.98241 0.63809 0.93864 0.0
H852 H 0.07938 0.67126 0.96983 0.0
H853 H 0.0587 0.66359 0.0159 0.0
C854 C 0.9964 0.64212 0.03081 0.0
C855 C 0.96289 0.63002 0.03549 0.0
C856 C 0.00849 0.64643 1.00421 0.0
C857 C 0.9418 0.62276 0.01325 0.0
C858 C 0.95367 0.62734 0.98689 0.0
C859 C -0.00102 0.64349 0.95551 0.0
C860 C 0.03236 0.65519 0.95069 0.0
C861 C 0.98694 0.63903 0.98208 0.0
C862 C 0.0535 0.66213 0.97286 0.0
C863 C 0.04173 0.65785 0.9993 0.0
H864 H 0.32427 0.93804 0.5337 0.0
H865 H 0.37014 0.02819 0.57903 0.0
H866 H 0.38762 0.05953 0.53701 0.0
H867 H 0.39045 0.0613 0.48741 0.0
H868 H 0.34335 0.97116 0.4421 0.0
H869 H 0.32582 0.93985 0.48411 0.0
C870 C 0.33806 0.96456 0.53442 0.0
C871 C 0.34597 0.98074 0.55954 0.0
C872 C 0.34788 0.98242 0.51017 0.0
C873 C 0.36369 0.01511 0.56003 0.0
C874 C 0.37375 0.03305 0.53599 0.0
C875 C 0.37639 0.03479 0.4867 0.0
C876 C 0.36838 0.0186 0.4616 0.0
C877 C 0.36611 0.01696 0.51095 0.0
C878 C 0.34989 0.98425 0.4611 0.0
C879 C 0.33986 0.96633 0.48513 0.0
H880 H 0.34715 0.36944 0.06178 0.0
H881 H 0.39867 0.3217 0.03182 0.0
H882 H 0.38756 0.33036 0.98565 0.0
H883 H 0.36343 0.35163 0.95318 0.0
H884 H 0.31312 0.40071 0.98265 0.0
H885 H 0.32341 0.39137 0.02908 0.0
C886 C 0.35595 0.36101 0.04513 0.0
C887 C 0.37373 0.34499 0.05041 0.0
C888 C 0.34965 0.36624 0.01831 0.0
C889 C 0.38498 0.33422 0.02851 0.0
C890 C 0.37861 0.33909 1.00196 0.0
C891 C 0.35465 0.36017 0.96976 0.0
C892 C 0.33754 0.37679 0.96437 0.0
C893 C 0.36097 0.35505 0.99655 0.0
C894 C 0.32648 0.38788 0.98616 0.0
C895 C 0.33233 0.38256 0.0128 0.0
H896 H 0.05069 0.39313 0.53403 0.0
H897 H 0.96005 0.34082 0.57816 0.0
H898 H 0.92972 0.3227 0.53564 0.0
H899 H 0.92918 0.32097 0.48592 0.0
H900 H 0.0202 0.37261 0.44215 0.0
H901 H 0.05018 0.39157 0.48462 0.0
C902 C 0.02426 0.37793 0.53441 0.0
C903 C 0.00765 0.36845 0.5593 0.0
C904 C 0.00709 0.36729 0.50994 0.0
C905 C 0.97343 0.34856 0.55933 0.0
C906 C 0.9561 0.33812 0.53501 0.0
C907 C 0.95559 0.33634 0.48565 0.0
C908 C 0.97242 0.34529 0.46082 0.0
C909 C 0.9727 0.34717 0.51019 0.0
C910 C 0.00663 0.36527 0.46091 0.0
C911 C 0.02379 0.37619 0.4852 0.0
H912 H 0.50159 0.07578 0.18271 0.0
H913 H 0.48227 0.05353 0.09814 0.0
H914 H 0.52897 0.04412 0.09509 0.0
H915 H 0.57995 0.05031 0.1156 0.0
H916 H 0.59872 0.07482 0.20004 0.0
H917 H 0.54725 0.0747 0.20421 0.0
C918 C 0.50737 0.06843 0.16368 0.0
C919 C 0.48917 0.06595 0.14058 0.0
C920 C 0.53422 0.06361 0.1621 0.0
C921 C 0.49623 0.05573 0.11615 0.0
C922 C 0.52299 0.05055 0.1144 0.0
C923 C 0.57223 0.05477 0.13498 0.0
C924 C 0.59314 0.06303 0.15741 0.0
C925 C 0.54286 0.05555 0.13709 0.0
C926 C 0.58311 0.06888 0.18245 0.0
C927 C 0.55377 0.06888 0.18485 0.0
H928 H 0.51142 0.57415 0.67302 0.0
H929 H 0.52035 0.58356 0.58663 0.0
H930 H 0.47323 0.52818 0.58136 0.0
H931 H 0.42347 0.48192 0.60185 0.0
H932 H 0.41477 0.47482 0.68843 0.0
H933 H 0.46828 0.52385 0.69328 0.0
C934 C 0.50352 0.56363 0.65307 0.0
C935 C 0.51875 0.58276 0.63025 0.0
C936 C 0.47637 0.53221 0.65031 0.0
C937 C 0.50878 0.56907 0.60446 0.0
C938 C 0.48174 0.53755 0.60147 0.0
C939 C 0.43404 0.4905 0.62167 0.0
C940 C 0.41545 0.47508 0.64479 0.0
C941 C 0.46444 0.51949 0.62429 0.0
C942 C 0.42889 0.48647 0.67044 0.0
C943 C 0.45929 0.51462 0.67321 0.0
H944 H 0.94563 0.43197 0.12159 0.0
H945 H 0.84411 0.37363 0.09878 0.0
H946 H 0.84164 0.42287 0.08889 0.0
H947 H 0.86529 0.48162 0.09365 0.0
H948 H 0.96561 0.54141 0.11858 0.0
H949 H 0.97198 0.49278 0.12017 0.0
C950 C 0.9233 0.43021 0.11384 0.0
C951 C 0.89492 0.39935 0.11134 0.0
C952 C 0.92176 0.45885 0.10886 0.0
C953 C 0.86607 0.39721 0.1013 0.0
C954 C 0.86462 0.42532 0.09563 0.0
C955 C 0.88876 0.48407 0.09888 0.0
C956 C 0.91477 0.51475 0.10638 0.0
C957 C 0.89185 0.45614 0.10043 0.0
C958 C 0.94523 0.51789 0.11273 0.0
C959 C 0.94875 0.49007 0.11389 0.0
H960 H 0.43514 0.96541 0.63991 0.0
H961 H 0.38692 0.8743 0.59607 0.0
H962 H 0.43847 0.87461 0.59157 0.0
H963 H 0.49439 0.89532 0.60702 0.0
H964 H 0.54376 0.98541 0.65183 0.0
H965 H 0.49494 0.99136 0.6489 0.0
C966 C 0.43632 0.94631 0.62865 0.0
C967 C 0.40742 0.91967 0.61859 0.0
C968 C 0.46605 0.94615 0.62681 0.0
C969 C 0.40896 0.89485 0.60417 0.0
C970 C 0.43834 0.89491 0.6017 0.0
C971 C 0.4946 0.9166 0.61562 0.0
C972 C 0.5221 0.93961 0.62996 0.0
C973 C 0.4666 0.91955 0.61406 0.0
C974 C 0.5226 0.96737 0.64075 0.0
C975 C 0.49467 0.97063 0.63921 0.0
H976 H 0.57412 0.5204 0.10675 0.0
H977 H 0.60797 0.50482 0.18333 0.0
H978 H 0.558 0.45285 0.18862 0.0
H979 H 0.5071 0.40986 0.17045 0.0
H980 H 0.47113 0.42255 0.09413 0.0
H981 H 0.51917 0.4777 0.08992 0.0
C982 C 0.57026 0.50573 0.12467 0.0
C983 C 0.59506 0.51622 0.14434 0.0
C984 C 0.54124 0.47528 0.12759 0.0
C985 C 0.58966 0.49705 0.16757 0.0
C986 C 0.56102 0.46731 0.17072 0.0
C987 C 0.50965 0.4247 0.15289 0.0
C988 C 0.486 0.41203 0.13243 0.0
C989 C 0.5371 0.45586 0.15061 0.0
C990 C 0.4892 0.43181 0.11011 0.0
C991 C 0.5167 0.46323 0.10767 0.0
H992 H 0.04794 0.47955 0.60513 0.0
H993 H 0.08529 0.49441 0.68647 0.0
H994 H 0.08383 0.5451 0.68969 0.0
H995 H 0.07895 0.58854 0.66783 0.0
H996 H 0.04259 0.57628 0.5865 0.0
H997 H 0.03625 0.52124 0.58482 0.0
C998 C 0.05497 0.49358 0.62369 0.0
C999 C 0.06712 0.48351 0.64542 0.0
C1000 C 0.0547 0.52338 0.62527 0.0
C1001 C 0.07628 0.50191 0.66937 0.0
C1002 C 0.07552 0.53094 0.67123 0.0
C1003 C 0.06922 0.57363 0.64984 0.0
C1004 C 0.06173 0.5865 0.62719 0.0
C1005 C 0.06595 0.54246 0.64903 0.0
C1006 C 0.04859 0.56681 0.60417 0.0
C1007 C 0.04516 0.53546 0.60319 0.0
H1008 H 0.87193 0.48124 0.40172 0.0
H1009 H 0.97201 0.53491 0.37469 0.0
H1010 H 0.97747 0.48621 0.38135 0.0
H1011 H 0.95039 0.42598 0.38797 0.0
H1012 H 0.84937 0.3733 0.41321 0.0
H1013 H 0.84777 0.42408 0.41468 0.0
C1014 C 0.89512 0.4824 0.39773 0.0
C1015 C 0.92132 0.5112 0.38727 0.0
C1016 C 0.89778 0.4544 0.40117 0.0
C1017 C 0.95146 0.5128 0.38266 0.0
C1018 C 0.95448 0.48493 0.3863 0.0
C1019 C 0.9284 0.42589 0.39451 0.0
C1020 C 0.89987 0.39599 0.40009 0.0
C1021 C 0.92735 0.45522 0.39456 0.0
C1022 C 0.87145 0.39603 0.40846 0.0
C1023 C 0.87048 0.42501 0.40925 0.0
H1024 H 0.51748 0.93409 0.90266 0.0
H1025 H 0.47275 0.83275 0.87828 0.0
H1026 H 0.41922 0.8282 0.87847 0.0
H1027 H 0.38531 0.85314 0.88282 0.0
H1028 H 0.4283 0.95446 0.9064 0.0
H1029 H 0.48212 0.95864 0.90957 0.0
C1030 C 0.49597 0.91095 0.89768 0.0
C1031 C 0.49934 0.88394 0.89018 0.0
C1032 C 0.46491 0.90845 0.89756 0.0
C1033 C 0.47112 0.85412 0.8838 0.0
C1034 C 0.44037 0.8514 0.88393 0.0
C1035 C 0.40635 0.87621 0.88876 0.0
C1036 C 0.40272 0.90352 0.89406 0.0
C1037 C 0.43706 0.87851 0.89029 0.0
C1038 C 0.43033 0.93302 0.9021 0.0
C1039 C 0.46115 0.93546 0.90384 0.0
H1040 H 0.4781 0.43483 0.38725 0.0
H1041 H 0.52387 0.37644 0.40114 0.0
H1042 H 0.57731 0.42547 0.40312 0.0
H1043 H 0.61174 0.48388 0.39586 0.0
H1044 H 0.56828 0.54408 0.38177 0.0
H1045 H 0.51337 0.49567 0.38522 0.0
C1046 C 0.49974 0.43302 0.39125 0.0
C1047 C 0.49705 0.40198 0.39358 0.0
C1048 C 0.53086 0.46158 0.39199 0.0
C1049 C 0.52531 0.39997 0.39879 0.0
C1050 C 0.55594 0.428 0.39993 0.0
C1051 C 0.59024 0.48648 0.39378 0.0
C1052 C 0.59397 0.51731 0.38811 0.0
C1053 C 0.5591 0.45875 0.39566 0.0
C1054 C 0.56596 0.52049 0.38604 0.0
C1055 C 0.53461 0.4928 0.38788 0.0
H1056 H 0.07542 0.49043 0.836 0.0
H1057 H 0.05522 0.47614 0.92115 0.0
H1058 H 0.05081 0.52595 0.92301 0.0
H1059 H 0.05974 0.5773 0.90081 0.0
H1060 H 0.08043 0.58978 0.81546 0.0
H1061 H 0.07697 0.53667 0.81313 0.0
C1062 C 0.06966 0.49805 0.85491 0.0
C1063 C 0.06623 0.48025 0.87847 0.0
C1064 C 0.06732 0.52643 0.85574 0.0
C1065 C 0.05811 0.48976 0.90277 0.0
C1066 C 0.05574 0.51825 0.90383 0.0
C1067 C 0.06269 0.56791 0.88169 0.0
C1068 C 0.07087 0.58755 0.85843 0.0
C1069 C 0.06127 0.53735 0.88053 0.0
C1070 C 0.07466 0.57526 0.8337 0.0
C1071 C 0.07273 0.54493 0.83233 0.0
H1072 H 0.57946 0.05337 0.40972 0.0
H1073 H 0.60443 0.09037 0.32834 0.0
H1074 H 0.55249 0.08881 0.32359 0.0
H1075 H 0.50322 0.08327 0.3437 0.0
H1076 H 0.47691 0.0485 0.42523 0.0
H1077 H 0.52555 0.04212 0.42867 0.0
C1078 C 0.5732 0.06059 0.39089 0.0
C1079 C 0.59611 0.07259 0.3696 0.0
C1080 C 0.54312 0.06017 0.38834 0.0
C1081 C 0.58761 0.08173 0.34524 0.0
C1082 C 0.55783 0.08075 0.34242 0.0
C1083 C 0.50784 0.07378 0.36211 0.0
C1084 C 0.48685 0.0667 0.38426 0.0
C1085 C 0.53593 0.071 0.36405 0.0
C1086 C 0.49277 0.05401 0.40787 0.0
C1087 C 0.52073 0.0507 0.40989 0.0
H1088 H 0.51856 0.57634 0.90621 0.0
H1089 H 0.51757 0.58969 0.82021 0.0
H1090 H 0.46692 0.53761 0.81612 0.0
H1091 H 0.41904 0.49315 0.83752 0.0
H1092 H 0.41729 0.47892 0.92342 0.0
H1093 H 0.47297 0.52614 0.92718 0.0
C1094 C 0.50759 0.56725 0.88659 0.0
C1095 C 0.52134 0.5868 0.86356 0.0
C1096 C 0.47779 0.53749 0.88446 0.0
C1097 C 0.50704 0.57507 0.8382 0.0
C1098 C 0.47808 0.5454 0.83584 0.0
C1099 C 0.43113 0.5001 0.857 0.0
C1100 C 0.41419 0.48321 0.8802 0.0
C1101 C 0.4626 0.52719 0.85893 0.0
C1102 C 0.43005 0.49184 0.90531 0.0
C1103 C 0.46173 0.51889 0.90744 0.0
loop_
_geom_bond_atom_site_label_1
_geom_bond_atom_site_label_2
_geom_bond_distance
_geom_bond_site_symmetry_2
_ccdc_geom_bond_type
Co0 O1 2.216 . S
Co0 O2 2.091 . S
Co0 O4 2.004 . S
Co0 O10 2.021 . S
Co0 O12 2.137 . S
Co0 O13 2.244 . S
O1 Co0 2.216 . S
O1 C8 1.247 . S
O2 Co0 2.091 . S
O2 C8 1.261 . S
C3 O12 1.247 . S
C3 O13 1.272 . S
O4 Co0 2.004 . S
O4 C9 1.259 . S
Co5 O6 2.061 . S
Co5 O11 2.052 . S
Co5 O13 2.135 . S
O6 Co5 2.061 . S
O6 C9 1.235 . S
C7 O10 1.238 . S
C7 O11 1.241 . S
C8 O1 1.247 . S
C8 O2 1.261 . S
C9 O4 1.259 . S
C9 O6 1.235 . S
O10 Co0 2.021 . S
O10 C7 1.238 . S
O11 Co5 2.052 . S
O11 C7 1.241 . S
O12 Co0 2.137 . S
O12 C3 1.247 . S
O13 Co0 2.244 . S
O13 C3 1.272 . S
O13 Co5 2.135 . S
Co14 O15 2.216 . S
Co14 O16 2.091 . S
Co14 O18 2.004 . S
Co14 O24 2.021 . S
Co14 O26 2.137 . S
Co14 O27 2.244 . S
O15 Co14 2.216 . S
O15 C22 1.247 . S
O16 Co14 2.091 . S
O16 C22 1.261 . S
C17 O26 1.247 . S
C17 O27 1.272 . S
O18 Co14 2.004 . S
O18 C23 1.259 . S
Co19 O20 2.061 . S
Co19 O25 2.052 . S
Co19 O27 2.135 . S
O20 Co19 2.061 . S
O20 C23 1.235 . S
C21 O24 1.238 . S
C21 O25 1.241 . S
C22 O15 1.247 . S
C22 O16 1.261 . S
C23 O18 1.259 . S
C23 O20 1.235 . S
O24 Co14 2.021 . S
O24 C21 1.238 . S
O25 Co19 2.052 . S
O25 C21 1.241 . S
O26 Co14 2.137 . S
O26 C17 1.247 . S
O27 Co14 2.244 . S
O27 C17 1.272 . S
O27 Co19 2.135 . S
Co28 O29 2.216 . S
Co28 O30 2.091 . S
Co28 O32 2.004 . S
Co28 O38 2.021 . S
Co28 O40 2.137 . S
Co28 O41 2.244 . S
O29 Co28 2.216 . S
O29 C36 1.247 . S
O30 Co28 2.091 . S
O30 C36 1.261 . S
C31 O40 1.247 . S
C31 O41 1.272 . S
O32 Co28 2.004 . S
O32 C37 1.259 . S
Co33 O34 2.061 . S
Co33 O39 2.052 . S
Co33 O41 2.135 . S
O34 Co33 2.061 . S
O34 C37 1.235 . S
C35 O38 1.238 . S
C35 O39 1.241 . S
C36 O29 1.247 . S
C36 O30 1.261 . S
C37 O32 1.259 . S
C37 O34 1.235 . S
O38 Co28 2.021 . S
O38 C35 1.238 . S
O39 Co33 2.052 . S
O39 C35 1.241 . S
O40 Co28 2.137 . S
O40 C31 1.247 . S
O41 Co28 2.244 . S
O41 C31 1.272 . S
O41 Co33 2.135 . S
Co42 O43 2.216 . S
Co42 O44 2.091 . S
Co42 O46 2.004 . S
Co42 O52 2.021 . S
Co42 O54 2.137 . S
Co42 O55 2.244 . S
O43 Co42 2.216 . S
O43 C50 1.247 . S
O44 Co42 2.091 . S
O44 C50 1.261 . S
C45 O54 1.247 . S
C45 O55 1.272 . S
O46 Co42 2.004 . S
O46 C51 1.259 . S
Co47 O48 2.061 . S
Co47 O53 2.052 . S
Co47 O55 2.135 . S
O48 Co47 2.061 . S
O48 C51 1.235 . S
C49 O52 1.238 . S
C49 O53 1.241 . S
C50 O43 1.247 . S
C50 O44 1.261 . S
C51 O46 1.259 . S
C51 O48 1.235 . S
O52 Co42 2.021 . S
O52 C49 1.238 . S
O53 Co47 2.052 . S
O53 C49 1.241 . S
O54 Co42 2.137 . S
O54 C45 1.247 . S
O55 Co42 2.244 . S
O55 C45 1.272 . S
O55 Co47 2.135 . S
Co56 O57 2.216 . S
Co56 O58 2.091 . S
Co56 O60 2.004 . S
Co56 O66 2.021 . S
Co56 O68 2.137 . S
Co56 O69 2.244 . S
O57 Co56 2.216 . S
O57 C64 1.247 . S
O58 Co56 2.091 . S
O58 C64 1.261 . S
C59 O68 1.247 . S
C59 O69 1.272 . S
O60 Co56 2.004 . S
O60 C65 1.259 . S
Co61 O62 2.061 . S
Co61 O67 2.052 . S
Co61 O69 2.135 . S
O62 Co61 2.061 . S
O62 C65 1.235 . S
C63 O66 1.238 . S
C63 O67 1.241 . S
C64 O57 1.247 . S
C64 O58 1.261 . S
C65 O60 1.259 . S
C65 O62 1.235 . S
O66 Co56 2.021 . S
O66 C63 1.238 . S
O67 Co61 2.052 . S
O67 C63 1.241 . S
O68 Co56 2.137 . S
O68 C59 1.247 . S
O69 Co56 2.244 . S
O69 C59 1.272 . S
O69 Co61 2.135 . S
Co70 O71 2.216 . S
Co70 O72 2.091 . S
Co70 O74 2.004 . S
Co70 O80 2.021 . S
Co70 O82 2.137 . S
Co70 O83 2.244 . S
O71 Co70 2.216 . S
O71 C78 1.247 . S
O72 Co70 2.091 . S
O72 C78 1.261 . S
C73 O82 1.247 . S
C73 O83 1.272 . S
O74 Co70 2.004 . S
O74 C79 1.259 . S
Co75 O76 2.061 . S
Co75 O81 2.052 . S
Co75 O83 2.135 . S
O76 Co75 2.061 . S
O76 C79 1.235 . S
C77 O80 1.238 . S
C77 O81 1.241 . S
C78 O71 1.247 . S
C78 O72 1.261 . S
C79 O74 1.259 . S
C79 O76 1.235 . S
O80 Co70 2.021 . S
O80 C77 1.238 . S
O81 Co75 2.052 . S
O81 C77 1.241 . S
O82 Co70 2.137 . S
O82 C73 1.247 . S
O83 Co70 2.244 . S
O83 C73 1.272 . S
O83 Co75 2.135 . S
Co84 O85 2.216 . S
Co84 O86 2.091 . S
Co84 O88 2.004 . S
Co84 O94 2.021 . S
Co84 O96 2.137 . S
Co84 O97 2.244 . S
O85 Co84 2.216 . S
O85 C92 1.247 . S
O86 Co84 2.091 . S
O86 C92 1.261 . S
C87 O96 1.247 . S
C87 O97 1.272 . S
O88 Co84 2.004 . S
O88 C93 1.259 . S
Co89 O90 2.061 . S
Co89 O95 2.052 . S
Co89 O97 2.135 . S
O90 Co89 2.061 . S
O90 C93 1.235 . S
C91 O94 1.238 . S
C91 O95 1.241 . S
C92 O85 1.247 . S
C92 O86 1.261 . S
C93 O88 1.259 . S
C93 O90 1.235 . S
O94 Co84 2.021 . S
O94 C91 1.238 . S
O95 Co89 2.052 . S
O95 C91 1.241 . S
O96 Co84 2.137 . S
O96 C87 1.247 . S
O97 Co84 2.244 . S
O97 C87 1.272 . S
O97 Co89 2.135 . S
Co98 O99 2.216 . S
Co98 O100 2.091 . S
Co98 O102 2.004 . S
Co98 O108 2.021 . S
Co98 O110 2.137 . S
Co98 O111 2.244 . S
O99 Co98 2.216 . S
O99 C106 1.247 . S
O100 Co98 2.091 . S
O100 C106 1.261 . S
C101 O110 1.247 . S
C101 O111 1.272 . S
O102 Co98 2.004 . S
O102 C107 1.259 . S
Co103 O104 2.061 . S
Co103 O109 2.052 . S
Co103 O111 2.135 . S
O104 Co103 2.061 . S
O104 C107 1.235 . S
C105 O108 1.238 . S
C105 O109 1.241 . S
C106 O99 1.247 . S
C106 O100 1.261 . S
C107 O102 1.259 . S
C107 O104 1.235 . S
O108 Co98 2.021 . S
O108 C105 1.238 . S
O109 Co103 2.052 . S
O109 C105 1.241 . S
O110 Co98 2.137 . S
O110 C101 1.247 . S
O111 Co98 2.244 . S
O111 C101 1.272 . S
O111 Co103 2.135 . S
Co112 O113 2.216 . S
Co112 O114 2.091 . S
Co112 O116 2.004 . S
Co112 O122 2.021 . S
Co112 O124 2.137 . S
Co112 O125 2.244 . S
O113 Co112 2.216 . S
O113 C120 1.247 . S
O114 Co112 2.091 . S
O114 C120 1.261 . S
C115 O124 1.247 . S
C115 O125 1.272 . S
O116 Co112 2.004 . S
O116 C121 1.259 . S
Co117 O118 2.061 . S
Co117 O123 2.052 . S
Co117 O125 2.135 . S
O118 Co117 2.061 . S
O118 C121 1.235 . S
C119 O122 1.238 . S
C119 O123 1.241 . S
C120 O113 1.247 . S
C120 O114 1.261 . S
C121 O116 1.259 . S
C121 O118 1.235 . S
O122 Co112 2.021 . S
O122 C119 1.238 . S
O123 Co117 2.052 . S
O123 C119 1.241 . S
O124 Co112 2.137 . S
O124 C115 1.247 . S
O125 Co112 2.244 . S
O125 C115 1.272 . S
O125 Co117 2.135 . S
Co126 O127 2.216 . S
Co126 O128 2.091 . S
Co126 O130 2.004 . S
Co126 O136 2.021 . S
Co126 O138 2.137 . S
Co126 O139 2.244 . S
O127 Co126 2.216 . S
O127 C134 1.247 . S
O128 Co126 2.091 . S
O128 C134 1.261 . S
C129 O138 1.247 . S
C129 O139 1.272 . S
O130 Co126 2.004 . S
O130 C135 1.259 . S
Co131 O132 2.061 . S
Co131 O137 2.052 . S
Co131 O139 2.135 . S
O132 Co131 2.061 . S
O132 C135 1.235 . S
C133 O136 1.238 . S
C133 O137 1.241 . S
C134 O127 1.247 . S
C134 O128 1.261 . S
C135 O130 1.259 . S
C135 O132 1.235 . S
O136 Co126 2.021 . S
O136 C133 1.238 . S
O137 Co131 2.052 . S
O137 C133 1.241 . S
O138 Co126 2.137 . S
O138 C129 1.247 . S
O139 Co126 2.244 . S
O139 C129 1.272 . S
O139 Co131 2.135 . S
Co140 O141 2.216 . S
Co140 O142 2.091 . S
Co140 O144 2.004 . S
Co140 O150 2.021 . S
Co140 O152 2.137 . S
Co140 O153 2.244 . S
O141 Co140 2.216 . S
O141 C148 1.247 . S
O142 Co140 2.091 . S
O142 C148 1.261 . S
C143 O152 1.247 . S
C143 O153 1.272 . S
O144 Co140 2.004 . S
O144 C149 1.259 . S
Co145 O146 2.061 . S
Co145 O151 2.052 . S
Co145 O153 2.135 . S
O146 Co145 2.061 . S
O146 C149 1.235 . S
C147 O150 1.238 . S
C147 O151 1.241 . S
C148 O141 1.247 . S
C148 O142 1.261 . S
C149 O144 1.259 . S
C149 O146 1.235 . S
O150 Co140 2.021 . S
O150 C147 1.238 . S
O151 Co145 2.052 . S
O151 C147 1.241 . S
O152 Co140 2.137 . S
O152 C143 1.247 . S
O153 Co140 2.244 . S
O153 C143 1.272 . S
O153 Co145 2.135 . S
Co154 O155 2.216 . S
Co154 O156 2.091 . S
Co154 O158 2.004 . S
Co154 O164 2.021 . S
Co154 O166 2.137 . S
Co154 O167 2.244 . S
O155 Co154 2.216 . S
O155 C162 1.247 . S
O156 Co154 2.091 . S
O156 C162 1.261 . S
C157 O166 1.247 . S
C157 O167 1.272 . S
O158 Co154 2.004 . S
O158 C163 1.259 . S
Co159 O160 2.061 . S
Co159 O165 2.052 . S
Co159 O167 2.135 . S
O160 Co159 2.061 . S
O160 C163 1.235 . S
C161 O164 1.238 . S
C161 O165 1.241 . S
C162 O155 1.247 . S
C162 O156 1.261 . S
C163 O158 1.259 . S
C163 O160 1.235 . S
O164 Co154 2.021 . S
O164 C161 1.238 . S
O165 Co159 2.052 . S
O165 C161 1.241 . S
O166 Co154 2.137 . S
O166 C157 1.247 . S
O167 Co154 2.244 . S
O167 C157 1.272 . S
O167 Co159 2.135 . S
Co168 O169 2.216 . S
Co168 O170 2.091 . S
Co168 O172 2.004 . S
Co168 O178 2.021 . S
Co168 O180 2.137 . S
Co168 O181 2.244 . S
O169 Co168 2.216 . S
O169 C176 1.247 . S
O170 Co168 2.091 . S
O170 C176 1.261 . S
C171 O180 1.247 . S
C171 O181 1.272 . S
O172 Co168 2.004 . S
O172 C177 1.259 . S
Co173 O174 2.061 . S
Co173 O179 2.052 . S
Co173 O181 2.135 . S
O174 Co173 2.061 . S
O174 C177 1.235 . S
C175 O178 1.238 . S
C175 O179 1.241 . S
C176 O169 1.247 . S
C176 O170 1.261 . S
C177 O172 1.259 . S
C177 O174 1.235 . S
O178 Co168 2.021 . S
O178 C175 1.238 . S
O179 Co173 2.052 . S
O179 C175 1.241 . S
O180 Co168 2.137 . S
O180 C171 1.247 . S
O181 Co168 2.244 . S
O181 C171 1.272 . S
O181 Co173 2.135 . S
Co182 O183 2.216 . S
Co182 O184 2.091 . S
Co182 O186 2.004 . S
Co182 O192 2.021 . S
Co182 O194 2.137 . S
Co182 O195 2.244 . S
O183 Co182 2.216 . S
O183 C190 1.247 . S
O184 Co182 2.091 . S
O184 C190 1.261 . S
C185 O194 1.247 . S
C185 O195 1.272 . S
O186 Co182 2.004 . S
O186 C191 1.259 . S
Co187 O188 2.061 . S
Co187 O193 2.052 . S
Co187 O195 2.135 . S
O188 Co187 2.061 . S
O188 C191 1.235 . S
C189 O192 1.238 . S
C189 O193 1.241 . S
C190 O183 1.247 . S
C190 O184 1.261 . S
C191 O186 1.259 . S
C191 O188 1.235 . S
O192 Co182 2.021 . S
O192 C189 1.238 . S
O193 Co187 2.052 . S
O193 C189 1.241 . S
O194 Co182 2.137 . S
O194 C185 1.247 . S
O195 Co182 2.244 . S
O195 C185 1.272 . S
O195 Co187 2.135 . S
Co196 O197 2.216 . S
Co196 O198 2.091 . S
Co196 O200 2.004 . S
Co196 O206 2.021 . S
Co196 O208 2.137 . S
Co196 O209 2.244 . S
O197 Co196 2.216 . S
O197 C204 1.247 . S
O198 Co196 2.091 . S
O198 C204 1.261 . S
C199 O208 1.247 . S
C199 O209 1.272 . S
O200 Co196 2.004 . S
O200 C205 1.259 . S
Co201 O202 2.061 . S
Co201 O207 2.052 . S
Co201 O209 2.135 . S
O202 Co201 2.061 . S
O202 C205 1.235 . S
C203 O206 1.238 . S
C203 O207 1.241 . S
C204 O197 1.247 . S
C204 O198 1.261 . S
C205 O200 1.259 . S
C205 O202 1.235 . S
O206 Co196 2.021 . S
O206 C203 1.238 . S
O207 Co201 2.052 . S
O207 C203 1.241 . S
O208 Co196 2.137 . S
O208 C199 1.247 . S
O209 Co196 2.244 . S
O209 C199 1.272 . S
O209 Co201 2.135 . S
Co210 O211 2.216 . S
Co210 O212 2.091 . S
Co210 O214 2.004 . S
Co210 O220 2.021 . S
Co210 O222 2.137 . S
Co210 O223 2.244 . S
O211 Co210 2.216 . S
O211 C218 1.247 . S
O212 Co210 2.091 . S
O212 C218 1.261 . S
C213 O222 1.247 . S
C213 O223 1.272 . S
O214 Co210 2.004 . S
O214 C219 1.259 . S
Co215 O216 2.061 . S
Co215 O221 2.052 . S
Co215 O223 2.135 . S
O216 Co215 2.061 . S
O216 C219 1.235 . S
C217 O220 1.238 . S
C217 O221 1.241 . S
C218 O211 1.247 . S
C218 O212 1.261 . S
C219 O214 1.259 . S
C219 O216 1.235 . S
O220 Co210 2.021 . S
O220 C217 1.238 . S
O221 Co215 2.052 . S
O221 C217 1.241 . S
O222 Co210 2.137 . S
O222 C213 1.247 . S
O223 Co210 2.244 . S
O223 C213 1.272 . S
O223 Co215 2.135 . S
Co224 O225 2.216 . S
Co224 O226 2.091 . S
Co224 O228 2.004 . S
Co224 O234 2.021 . S
Co224 O236 2.137 . S
Co224 O237 2.244 . S
O225 Co224 2.216 . S
O225 C232 1.247 . S
O226 Co224 2.091 . S
O226 C232 1.261 . S
C227 O236 1.247 . S
C227 O237 1.272 . S
O228 Co224 2.004 . S
O228 C233 1.259 . S
Co229 O230 2.061 . S
Co229 O235 2.052 . S
Co229 O237 2.135 . S
O230 Co229 2.061 . S
O230 C233 1.235 . S
C231 O234 1.238 . S
C231 O235 1.241 . S
C232 O225 1.247 . S
C232 O226 1.261 . S
C233 O228 1.259 . S
C233 O230 1.235 . S
O234 Co224 2.021 . S
O234 C231 1.238 . S
O235 Co229 2.052 . S
O235 C231 1.241 . S
O236 Co224 2.137 . S
O236 C227 1.247 . S
O237 Co224 2.244 . S
O237 C227 1.272 . S
O237 Co229 2.135 . S
Co238 O239 2.216 . S
Co238 O240 2.091 . S
Co238 O242 2.004 . S
Co238 O248 2.021 . S
Co238 O250 2.137 . S
Co238 O251 2.244 . S
O239 Co238 2.216 . S
O239 C246 1.247 . S
O240 Co238 2.091 . S
O240 C246 1.261 . S
C241 O250 1.247 . S
C241 O251 1.272 . S
O242 Co238 2.004 . S
O242 C247 1.259 . S
Co243 O244 2.061 . S
Co243 O249 2.052 . S
Co243 O251 2.135 . S
O244 Co243 2.061 . S
O244 C247 1.235 . S
C245 O248 1.238 . S
C245 O249 1.241 . S
C246 O239 1.247 . S
C246 O240 1.261 . S
C247 O242 1.259 . S
C247 O244 1.235 . S
O248 Co238 2.021 . S
O248 C245 1.238 . S
O249 Co243 2.052 . S
O249 C245 1.241 . S
O250 Co238 2.137 . S
O250 C241 1.247 . S
O251 Co238 2.244 . S
O251 C241 1.272 . S
O251 Co243 2.135 . S
Co252 O253 2.216 . S
Co252 O254 2.091 . S
Co252 O256 2.004 . S
Co252 O262 2.021 . S
Co252 O264 2.137 . S
Co252 O265 2.244 . S
O253 Co252 2.216 . S
O253 C260 1.247 . S
O254 Co252 2.091 . S
O254 C260 1.261 . S
C255 O264 1.247 . S
C255 O265 1.272 . S
O256 Co252 2.004 . S
O256 C261 1.259 . S
Co257 O258 2.061 . S
Co257 O263 2.052 . S
Co257 O265 2.135 . S
O258 Co257 2.061 . S
O258 C261 1.235 . S
C259 O262 1.238 . S
C259 O263 1.241 . S
C260 O253 1.247 . S
C260 O254 1.261 . S
C261 O256 1.259 . S
C261 O258 1.235 . S
O262 Co252 2.021 . S
O262 C259 1.238 . S
O263 Co257 2.052 . S
O263 C259 1.241 . S
O264 Co252 2.137 . S
O264 C255 1.247 . S
O265 Co252 2.244 . S
O265 C255 1.272 . S
O265 Co257 2.135 . S
Co266 O267 2.216 . S
Co266 O268 2.091 . S
Co266 O270 2.004 . S
Co266 O276 2.021 . S
Co266 O278 2.137 . S
Co266 O279 2.244 . S
O267 Co266 2.216 . S
O267 C274 1.247 . S
O268 Co266 2.091 . S
O268 C274 1.261 . S
C269 O278 1.247 . S
C269 O279 1.272 . S
O270 Co266 2.004 . S
O270 C275 1.259 . S
Co271 O272 2.061 . S
Co271 O277 2.052 . S
Co271 O279 2.135 . S
O272 Co271 2.061 . S
O272 C275 1.235 . S
C273 O276 1.238 . S
C273 O277 1.241 . S
C274 O267 1.247 . S
C274 O268 1.261 . S
C275 O270 1.259 . S
C275 O272 1.235 . S
O276 Co266 2.021 . S
O276 C273 1.238 . S
O277 Co271 2.052 . S
O277 C273 1.241 . S
O278 Co266 2.137 . S
O278 C269 1.247 . S
O279 Co266 2.244 . S
O279 C269 1.272 . S
O279 Co271 2.135 . S
Co280 O281 2.216 . S
Co280 O282 2.091 . S
Co280 O284 2.004 . S
Co280 O290 2.021 . S
Co280 O292 2.137 . S
Co280 O293 2.244 . S
O281 Co280 2.216 . S
O281 C288 1.247 . S
O282 Co280 2.091 . S
O282 C288 1.261 . S
C283 O292 1.247 . S
C283 O293 1.272 . S
O284 Co280 2.004 . S
O284 C289 1.259 . S
Co285 O286 2.061 . S
Co285 O291 2.052 . S
Co285 O293 2.135 . S
O286 Co285 2.061 . S
O286 C289 1.235 . S
C287 O290 1.238 . S
C287 O291 1.241 . S
C288 O281 1.247 . S
C288 O282 1.261 . S
C289 O284 1.259 . S
C289 O286 1.235 . S
O290 Co280 2.021 . S
O290 C287 1.238 . S
O291 Co285 2.052 . S
O291 C287 1.241 . S
O292 Co280 2.137 . S
O292 C283 1.247 . S
O293 Co280 2.244 . S
O293 C283 1.272 . S
O293 Co285 2.135 . S
Co294 O295 2.216 . S
Co294 O296 2.091 . S
Co294 O298 2.004 . S
Co294 O304 2.021 . S
Co294 O306 2.137 . S
Co294 O307 2.244 . S
O295 Co294 2.216 . S
O295 C302 1.247 . S
O296 Co294 2.091 . S
O296 C302 1.261 . S
C297 O306 1.247 . S
C297 O307 1.272 . S
O298 Co294 2.004 . S
O298 C303 1.259 . S
Co299 O300 2.061 . S
Co299 O305 2.052 . S
Co299 O307 2.135 . S
O300 Co299 2.061 . S
O300 C303 1.235 . S
C301 O304 1.238 . S
C301 O305 1.241 . S
C302 O295 1.247 . S
C302 O296 1.261 . S
C303 O298 1.259 . S
C303 O300 1.235 . S
O304 Co294 2.021 . S
O304 C301 1.238 . S
O305 Co299 2.052 . S
O305 C301 1.241 . S
O306 Co294 2.137 . S
O306 C297 1.247 . S
O307 Co294 2.244 . S
O307 C297 1.272 . S
O307 Co299 2.135 . S
Co308 O309 2.216 . S
Co308 O310 2.091 . S
Co308 O312 2.004 . S
Co308 O318 2.021 . S
Co308 O320 2.137 . S
Co308 O321 2.244 . S
O309 Co308 2.216 . S
O309 C316 1.247 . S
O310 Co308 2.091 . S
O310 C316 1.261 . S
C311 O320 1.247 . S
C311 O321 1.272 . S
O312 Co308 2.004 . S
O312 C317 1.259 . S
Co313 O314 2.061 . S
Co313 O319 2.052 . S
Co313 O321 2.135 . S
O314 Co313 2.061 . S
O314 C317 1.235 . S
C315 O318 1.238 . S
C315 O319 1.241 . S
C316 O309 1.247 . S
C316 O310 1.261 . S
C317 O312 1.259 . S
C317 O314 1.235 . S
O318 Co308 2.021 . S
O318 C315 1.238 . S
O319 Co313 2.052 . S
O319 C315 1.241 . S
O320 Co308 2.137 . S
O320 C311 1.247 . S
O321 Co308 2.244 . S
O321 C311 1.272 . S
O321 Co313 2.135 . S
Co322 O323 2.216 . S
Co322 O324 2.091 . S
Co322 O326 2.004 . S
Co322 O332 2.021 . S
Co322 O334 2.137 . S
Co322 O335 2.244 . S
O323 Co322 2.216 . S
O323 C330 1.247 . S
O324 Co322 2.091 . S
O324 C330 1.261 . S
C325 O334 1.247 . S
C325 O335 1.272 . S
O326 Co322 2.004 . S
O326 C331 1.259 . S
Co327 O328 2.061 . S
Co327 O333 2.052 . S
Co327 O335 2.135 . S
O328 Co327 2.061 . S
O328 C331 1.235 . S
C329 O332 1.238 . S
C329 O333 1.241 . S
C330 O323 1.247 . S
C330 O324 1.261 . S
C331 O326 1.259 . S
C331 O328 1.235 . S
O332 Co322 2.021 . S
O332 C329 1.238 . S
O333 Co327 2.052 . S
O333 C329 1.241 . S
O334 Co322 2.137 . S
O334 C325 1.247 . S
O335 Co322 2.244 . S
O335 C325 1.272 . S
O335 Co327 2.135 . S
H336 C342 0.930 . S
H337 C345 0.930 . S
H338 C346 0.930 . S
H339 C347 0.930 . S
H340 C350 0.930 . S
H341 C351 0.930 . S
C342 H336 0.930 . S
C342 C343 1.355 . S
C342 C344 1.415 . S
C343 C342 1.355 . S
C343 C345 1.419 . S
C344 C342 1.415 . S
C344 C349 1.425 . S
C344 C351 1.409 . S
C345 H337 0.930 . S
C345 C343 1.419 . S
C345 C346 1.362 . S
C346 H338 0.930 . S
C346 C345 1.362 . S
C346 C349 1.409 . S
C347 H339 0.930 . S
C347 C348 1.355 . S
C347 C349 1.415 . S
C348 C347 1.355 . S
C348 C350 1.419 . S
C349 C344 1.425 . S
C349 C346 1.409 . S
C349 C347 1.415 . S
C350 H340 0.930 . S
C350 C348 1.419 . S
C350 C351 1.362 . S
C351 H341 0.930 . S
C351 C344 1.409 . S
C351 C350 1.362 . S
H352 C358 0.930 . S
H353 C361 0.930 . S
H354 C362 0.930 . S
H355 C363 0.930 . S
H356 C366 0.930 . S
H357 C367 0.930 . S
C358 H352 0.930 . S
C358 C359 1.355 . S
C358 C360 1.415 . S
C359 C358 1.355 . S
C359 C361 1.419 . S
C360 C358 1.415 . S
C360 C365 1.425 . S
C360 C367 1.409 . S
C361 H353 0.930 . S
C361 C359 1.419 . S
C361 C362 1.362 . S
C362 H354 0.930 . S
C362 C361 1.362 . S
C362 C365 1.409 . S
C363 H355 0.930 . S
C363 C364 1.355 . S
C363 C365 1.415 . S
C364 C363 1.355 . S
C364 C366 1.419 . S
C365 C360 1.425 . S
C365 C362 1.409 . S
C365 C363 1.415 . S
C366 H356 0.930 . S
C366 C364 1.419 . S
C366 C367 1.362 . S
C367 H357 0.930 . S
C367 C360 1.409 . S
C367 C366 1.362 . S
H368 C374 0.930 . S
H369 C377 0.930 . S
H370 C378 0.930 . S
H371 C379 0.930 . S
H372 C382 0.930 . S
H373 C383 0.930 . S
C374 H368 0.930 . S
C374 C375 1.355 . S
C374 C376 1.415 . S
C375 C374 1.355 . S
C375 C377 1.419 . S
C376 C374 1.415 . S
C376 C381 1.425 . S
C376 C383 1.409 . S
C377 H369 0.930 . S
C377 C375 1.419 . S
C377 C378 1.362 . S
C378 H370 0.930 . S
C378 C377 1.362 . S
C378 C381 1.409 . S
C379 H371 0.930 . S
C379 C380 1.355 . S
C379 C381 1.415 . S
C380 C379 1.355 . S
C380 C382 1.419 . S
C381 C376 1.425 . S
C381 C378 1.409 . S
C381 C379 1.415 . S
C382 H372 0.930 . S
C382 C380 1.419 . S
C382 C383 1.362 . S
C383 H373 0.930 . S
C383 C376 1.409 . S
C383 C382 1.362 . S
H384 C390 0.930 1_545 S
H385 C393 0.930 . S
H386 C394 0.930 . S
H387 C395 0.930 . S
H388 C398 0.929 1_545 S
H389 C399 0.930 . S
C390 H384 0.930 1_565 S
C390 C391 1.355 . S
C390 C392 1.415 . S
C391 C390 1.355 . S
C391 C393 1.419 . S
C392 C390 1.415 . S
C392 C397 1.425 . S
C392 C399 1.409 1_565 S
C393 H385 0.930 . S
C393 C391 1.419 . S
C393 C394 1.362 . S
C394 H386 0.930 . S
C394 C393 1.362 . S
C394 C397 1.409 . S
C395 H387 0.930 . S
C395 C396 1.355 . S
C395 C397 1.415 . S
C396 C395 1.355 . S
C396 C398 1.420 . S
C397 C392 1.425 . S
C397 C394 1.409 . S
C397 C395 1.415 . S
C398 H388 0.929 1_565 S
C398 C396 1.420 . S
C398 C399 1.362 1_565 S
C399 H389 0.930 . S
C399 C392 1.409 1_545 S
C399 C398 1.362 1_545 S
H400 C406 0.930 . S
H401 C409 0.930 . S
H402 C410 0.930 . S
H403 C411 0.930 . S
H404 C414 0.930 . S
H405 C415 0.930 . S
C406 H400 0.930 . S
C406 C407 1.355 . S
C406 C408 1.415 . S
C407 C406 1.355 . S
C407 C409 1.419 . S
C408 C406 1.415 . S
C408 C413 1.425 . S
C408 C415 1.409 . S
C409 H401 0.930 . S
C409 C407 1.419 . S
C409 C410 1.362 . S
C410 H402 0.930 . S
C410 C409 1.362 . S
C410 C413 1.409 . S
C411 H403 0.930 . S
C411 C412 1.355 . S
C411 C413 1.415 . S
C412 C411 1.355 . S
C412 C414 1.419 . S
C413 C408 1.425 . S
C413 C410 1.409 . S
C413 C411 1.415 . S
C414 H404 0.930 . S
C414 C412 1.419 . S
C414 C415 1.362 . S
C415 H405 0.930 . S
C415 C408 1.409 . S
C415 C414 1.362 . S
H416 C422 0.930 . S
H417 C425 0.930 . S
H418 C426 0.930 . S
H419 C427 0.930 . S
H420 C430 0.930 . S
H421 C431 0.930 . S
C422 H416 0.930 . S
C422 C423 1.355 . S
C422 C424 1.415 . S
C423 C422 1.355 . S
C423 C425 1.419 . S
C424 C422 1.415 . S
C424 C429 1.425 . S
C424 C431 1.409 . S
C425 H417 0.930 . S
C425 C423 1.419 . S
C425 C426 1.362 . S
C426 H418 0.930 . S
C426 C425 1.362 . S
C426 C429 1.409 . S
C427 H419 0.930 . S
C427 C428 1.355 . S
C427 C429 1.415 . S
C428 C427 1.355 . S
C428 C430 1.419 . S
C429 C424 1.425 . S
C429 C426 1.409 . S
C429 C427 1.415 . S
C430 H420 0.930 . S
C430 C428 1.419 . S
C430 C431 1.362 . S
C431 H421 0.930 . S
C431 C424 1.409 . S
C431 C430 1.362 . S
H432 C438 0.930 . S
H433 C441 0.930 1_455 S
H434 C442 0.930 1_455 S
H435 C443 0.930 . S
H436 C446 0.930 . S
H437 C447 0.930 . S
C438 H432 0.930 . S
C438 C439 1.355 . S
C438 C440 1.415 . S
C439 C438 1.355 . S
C439 C441 1.419 . S
C440 C438 1.415 . S
C440 C445 1.425 . S
C440 C447 1.409 . S
C441 H433 0.930 1_655 S
C441 C439 1.419 . S
C441 C442 1.362 . S
C442 H434 0.930 1_655 S
C442 C441 1.362 . S
C442 C445 1.409 . S
C443 H435 0.930 . S
C443 C444 1.355 . S
C443 C445 1.415 . S
C444 C443 1.355 . S
C444 C446 1.419 . S
C445 C440 1.425 . S
C445 C442 1.409 . S
C445 C443 1.415 . S
C446 H436 0.930 . S
C446 C444 1.419 . S
C446 C447 1.362 . S
C447 H437 0.930 . S
C447 C440 1.409 . S
C447 C446 1.362 . S
H448 C454 0.930 . S
H449 C457 0.930 1_545 S
H450 C458 0.932 1_545 S
H451 C459 0.930 1_545 S
H452 C462 0.930 . S
H453 C463 0.930 . S
C454 H448 0.930 . S
C454 C455 1.355 . S
C454 C456 1.415 . S
C455 C454 1.355 . S
C455 C457 1.419 . S
C456 C454 1.415 . S
C456 C461 1.425 . S
C456 C463 1.409 . S
C457 H449 0.930 1_565 S
C457 C455 1.419 . S
C457 C458 1.362 . S
C458 H450 0.932 1_565 S
C458 C457 1.362 . S
C458 C461 1.408 . S
C459 H451 0.930 1_565 S
C459 C460 1.355 . S
C459 C461 1.415 . S
C460 C459 1.355 . S
C460 C462 1.419 . S
C461 C456 1.425 . S
C461 C458 1.408 . S
C461 C459 1.415 . S
C462 H452 0.930 . S
C462 C460 1.419 . S
C462 C463 1.362 . S
C463 H453 0.930 . S
C463 C456 1.409 . S
C463 C462 1.362 . S
H464 C470 0.930 . S
H465 C473 0.930 . S
H466 C474 0.930 . S
H467 C475 0.930 . S
H468 C478 0.930 . S
H469 C479 0.930 . S
C470 H464 0.930 . S
C470 C471 1.355 . S
C470 C472 1.415 . S
C471 C470 1.355 . S
C471 C473 1.419 . S
C472 C470 1.415 . S
C472 C477 1.425 . S
C472 C479 1.409 . S
C473 H465 0.930 . S
C473 C471 1.419 . S
C473 C474 1.362 . S
C474 H466 0.930 . S
C474 C473 1.362 . S
C474 C477 1.409 . S
C475 H467 0.930 . S
C475 C476 1.355 . S
C475 C477 1.415 . S
C476 C475 1.355 . S
C476 C478 1.419 . S
C477 C472 1.425 . S
C477 C474 1.409 . S
C477 C475 1.415 . S
C478 H468 0.930 . S
C478 C476 1.419 . S
C478 C479 1.362 . S
C479 H469 0.930 . S
C479 C472 1.409 . S
C479 C478 1.362 . S
H480 C486 0.930 1_655 S
H481 C489 0.930 . S
H482 C490 0.930 . S
H483 C491 0.930 . S
H484 C494 0.917 1_655 S
H485 C495 0.930 . S
C486 H480 0.930 1_455 S
C486 C487 1.355 . S
C486 C488 1.415 . S
C487 C486 1.355 . S
C487 C489 1.419 . S
C488 C486 1.415 . S
C488 C493 1.425 . S
C488 C495 1.409 1_455 S
C489 H481 0.930 . S
C489 C487 1.419 . S
C489 C490 1.362 . S
C490 H482 0.930 . S
C490 C489 1.362 . S
C490 C493 1.409 . S
C491 H483 0.930 . S
C491 C492 1.355 . S
C491 C493 1.415 . S
C492 C491 1.355 . S
C492 C494 1.435 . S
C493 C488 1.425 . S
C493 C490 1.409 . S
C493 C491 1.415 . S
C494 H484 0.917 1_455 S
C494 C492 1.435 . S
C494 C495 1.359 1_455 S
C495 H485 0.930 . S
C495 C488 1.409 1_655 S
C495 C494 1.359 1_655 S
H496 C502 0.930 . S
H497 C505 0.930 . S
H498 C506 0.930 . S
H499 C507 0.930 . S
H500 C510 0.930 . S
H501 C511 0.930 . S
C502 H496 0.930 . S
C502 C503 1.355 . S
C502 C504 1.415 . S
C503 C502 1.355 . S
C503 C505 1.419 . S
C504 C502 1.415 . S
C504 C509 1.425 . S
C504 C511 1.409 . S
C505 H497 0.930 . S
C505 C503 1.419 . S
C505 C506 1.362 . S
C506 H498 0.930 . S
C506 C505 1.362 . S
C506 C509 1.409 . S
C507 H499 0.930 . S
C507 C508 1.355 . S
C507 C509 1.415 . S
C508 C507 1.355 . S
C508 C510 1.419 . S
C509 C504 1.425 . S
C509 C506 1.409 . S
C509 C507 1.415 . S
C510 H500 0.930 . S
C510 C508 1.419 . S
C510 C511 1.362 . S
C511 H501 0.930 . S
C511 C504 1.409 . S
C511 C510 1.362 . S
H512 C518 0.930 . S
H513 C521 0.930 . S
H514 C522 0.930 . S
H515 C523 0.930 . S
H516 C526 0.930 . S
H517 C527 0.930 . S
C518 H512 0.930 . S
C518 C519 1.355 . S
C518 C520 1.415 . S
C519 C518 1.355 . S
C519 C521 1.419 . S
C520 C518 1.415 . S
C520 C525 1.425 . S
C520 C527 1.409 . S
C521 H513 0.930 . S
C521 C519 1.419 . S
C521 C522 1.362 . S
C522 H514 0.930 . S
C522 C521 1.362 . S
C522 C525 1.409 . S
C523 H515 0.930 . S
C523 C524 1.355 . S
C523 C525 1.415 . S
C524 C523 1.355 . S
C524 C526 1.419 . S
C525 C520 1.425 . S
C525 C522 1.409 . S
C525 C523 1.415 . S
C526 H516 0.930 . S
C526 C524 1.419 . S
C526 C527 1.362 . S
C527 H517 0.930 . S
C527 C520 1.409 . S
C527 C526 1.362 . S
H528 C534 0.930 . S
H529 C537 0.930 . S
H530 C538 0.930 . S
H531 C539 0.930 . S
H532 C542 0.930 . S
H533 C543 0.930 . S
C534 H528 0.930 . S
C534 C535 1.355 . S
C534 C536 1.415 . S
C535 C534 1.355 . S
C535 C537 1.419 . S
C536 C534 1.415 . S
C536 C541 1.425 . S
C536 C543 1.409 . S
C537 H529 0.930 . S
C537 C535 1.419 . S
C537 C538 1.362 . S
C538 H530 0.930 . S
C538 C537 1.362 . S
C538 C541 1.409 . S
C539 H531 0.930 . S
C539 C540 1.355 . S
C539 C541 1.415 . S
C540 C539 1.355 . S
C540 C542 1.419 . S
C541 C536 1.425 . S
C541 C538 1.409 . S
C541 C539 1.415 . S
C542 H532 0.930 . S
C542 C540 1.419 . S
C542 C543 1.362 . S
C543 H533 0.930 . S
C543 C536 1.409 . S
C543 C542 1.362 . S
H544 C550 0.930 . S
H545 C553 0.930 . S
H546 C554 0.930 . S
H547 C555 0.930 . S
H548 C558 0.930 . S
H549 C559 0.930 . S
C550 H544 0.930 . S
C550 C551 1.355 . S
C550 C552 1.415 . S
C551 C550 1.355 . S
C551 C553 1.419 . S
C552 C550 1.415 . S
C552 C557 1.425 . S
C552 C559 1.409 . S
C553 H545 0.930 . S
C553 C551 1.419 . S
C553 C554 1.362 . S
C554 H546 0.930 . S
C554 C553 1.362 . S
C554 C557 1.409 . S
C555 H547 0.930 . S
C555 C556 1.355 . S
C555 C557 1.415 . S
C556 C555 1.355 . S
C556 C558 1.419 . S
C557 C552 1.425 . S
C557 C554 1.409 . S
C557 C555 1.415 . S
C558 H548 0.930 . S
C558 C556 1.419 . S
C558 C559 1.362 . S
C559 H549 0.930 . S
C559 C552 1.409 . S
C559 C558 1.362 . S
H560 C566 0.930 . S
H561 C569 0.930 . S
H562 C570 0.930 . S
H563 C571 0.930 . S
H564 C574 0.930 . S
H565 C575 0.930 . S
C566 H560 0.930 . S
C566 C567 1.355 . S
C566 C568 1.415 . S
C567 C566 1.355 . S
C567 C569 1.419 . S
C568 C566 1.415 . S
C568 C573 1.425 . S
C568 C575 1.409 . S
C569 H561 0.930 . S
C569 C567 1.419 . S
C569 C570 1.362 . S
C570 H562 0.930 . S
C570 C569 1.362 . S
C570 C573 1.409 . S
C571 H563 0.930 . S
C571 C572 1.355 . S
C571 C573 1.415 . S
C572 C571 1.355 . S
C572 C574 1.419 . S
C573 C568 1.425 . S
C573 C570 1.409 . S
C573 C571 1.415 . S
C574 H564 0.930 . S
C574 C572 1.419 . S
C574 C575 1.362 . S
C575 H565 0.930 . S
C575 C568 1.409 . S
C575 C574 1.362 . S
H576 C582 0.930 . S
H577 C585 0.930 . S
H578 C586 0.930 . S
H579 C587 0.930 . S
H580 C590 0.930 . S
H581 C591 0.930 . S
C582 H576 0.930 . S
C582 C583 1.355 . S
C582 C584 1.415 . S
C583 C582 1.355 . S
C583 C585 1.419 . S
C584 C582 1.415 . S
C584 C589 1.425 . S
C584 C591 1.409 . S
C585 H577 0.930 . S
C585 C583 1.419 . S
C585 C586 1.362 . S
C586 H578 0.930 . S
C586 C585 1.362 . S
C586 C589 1.409 . S
C587 H579 0.930 . S
C587 C588 1.355 . S
C587 C589 1.415 . S
C588 C587 1.355 . S
C588 C590 1.419 . S
C589 C584 1.425 . S
C589 C586 1.409 . S
C589 C587 1.415 . S
C590 H580 0.930 . S
C590 C588 1.419 . S
C590 C591 1.362 . S
C591 H581 0.930 . S
C591 C584 1.409 . S
C591 C590 1.362 . S
H592 C598 0.930 . S
H593 C601 0.930 . S
H594 C602 0.930 . S
H595 C603 0.930 . S
H596 C606 0.930 . S
H597 C607 0.930 . S
C598 H592 0.930 . S
C598 C599 1.355 . S
C598 C600 1.415 . S
C599 C598 1.355 . S
C599 C601 1.419 . S
C600 C598 1.415 . S
C600 C605 1.425 . S
C600 C607 1.409 . S
C601 H593 0.930 . S
C601 C599 1.419 . S
C601 C602 1.362 . S
C602 H594 0.930 . S
C602 C601 1.362 . S
C602 C605 1.409 . S
C603 H595 0.930 . S
C603 C604 1.355 . S
C603 C605 1.415 . S
C604 C603 1.355 . S
C604 C606 1.419 . S
C605 C600 1.425 . S
C605 C602 1.409 . S
C605 C603 1.415 . S
C606 H596 0.930 . S
C606 C604 1.419 . S
C606 C607 1.362 . S
C607 H597 0.930 . S
C607 C600 1.409 . S
C607 C606 1.362 . S
H608 C614 0.930 . S
H609 C617 0.930 . S
H610 C618 0.930 . S
H611 C619 0.930 . S
H612 C622 0.930 . S
H613 C623 0.930 . S
C614 H608 0.930 . S
C614 C615 1.355 . S
C614 C616 1.415 . S
C615 C614 1.355 . S
C615 C617 1.419 . S
C616 C614 1.415 . S
C616 C621 1.425 . S
C616 C623 1.409 . S
C617 H609 0.930 . S
C617 C615 1.419 . S
C617 C618 1.362 . S
C618 H610 0.930 . S
C618 C617 1.362 . S
C618 C621 1.409 . S
C619 H611 0.930 . S
C619 C620 1.355 . S
C619 C621 1.415 . S
C620 C619 1.355 . S
C620 C622 1.419 . S
C621 C616 1.425 . S
C621 C618 1.409 . S
C621 C619 1.415 . S
C622 H612 0.930 . S
C622 C620 1.419 . S
C622 C623 1.362 . S
C623 H613 0.930 . S
C623 C616 1.409 . S
C623 C622 1.362 . S
H624 C630 0.930 . S
H625 C633 0.930 . S
H626 C634 0.930 . S
H627 C635 0.930 . S
H628 C638 0.930 . S
H629 C639 0.930 . S
C630 H624 0.930 . S
C630 C631 1.355 . S
C630 C632 1.415 . S
C631 C630 1.355 . S
C631 C633 1.419 . S
C632 C630 1.415 . S
C632 C637 1.425 . S
C632 C639 1.409 . S
C633 H625 0.930 . S
C633 C631 1.419 . S
C633 C634 1.362 . S
C634 H626 0.930 . S
C634 C633 1.362 . S
C634 C637 1.409 . S
C635 H627 0.930 . S
C635 C636 1.355 . S
C635 C637 1.415 . S
C636 C635 1.355 . S
C636 C638 1.419 . S
C637 C632 1.425 . S
C637 C634 1.409 . S
C637 C635 1.415 . S
C638 H628 0.930 . S
C638 C636 1.419 . S
C638 C639 1.362 . S
C639 H629 0.930 . S
C639 C632 1.409 . S
C639 C638 1.362 . S
H640 C646 0.930 . S
H641 C649 0.930 . S
H642 C650 0.930 . S
H643 C651 0.930 . S
H644 C654 0.930 . S
H645 C655 0.930 . S
C646 H640 0.930 . S
C646 C647 1.355 . S
C646 C648 1.415 . S
C647 C646 1.355 . S
C647 C649 1.419 . S
C648 C646 1.415 . S
C648 C653 1.425 . S
C648 C655 1.409 . S
C649 H641 0.930 . S
C649 C647 1.419 . S
C649 C650 1.362 . S
C650 H642 0.930 . S
C650 C649 1.362 . S
C650 C653 1.409 . S
C651 H643 0.930 . S
C651 C652 1.355 . S
C651 C653 1.415 . S
C652 C651 1.355 . S
C652 C654 1.419 . S
C653 C648 1.425 . S
C653 C650 1.409 . S
C653 C651 1.415 . S
C654 H644 0.930 . S
C654 C652 1.419 . S
C654 C655 1.362 . S
C655 H645 0.930 . S
C655 C648 1.409 . S
C655 C654 1.362 . S
H656 C662 0.930 . S
H657 C665 0.930 . S
H658 C666 0.930 . S
H659 C667 0.930 . S
H660 C670 0.930 . S
H661 C671 0.930 . S
C662 H656 0.930 . S
C662 C663 1.355 . S
C662 C664 1.415 . S
C663 C662 1.355 . S
C663 C665 1.419 . S
C664 C662 1.415 . S
C664 C669 1.425 . S
C664 C671 1.409 . S
C665 H657 0.930 . S
C665 C663 1.419 . S
C665 C666 1.362 . S
C666 H658 0.930 . S
C666 C665 1.362 . S
C666 C669 1.409 . S
C667 H659 0.930 . S
C667 C668 1.355 . S
C667 C669 1.415 . S
C668 C667 1.355 . S
C668 C670 1.419 . S
C669 C664 1.425 . S
C669 C666 1.409 . S
C669 C667 1.415 . S
C670 H660 0.930 . S
C670 C668 1.419 . S
C670 C671 1.362 . S
C671 H661 0.930 . S
C671 C664 1.409 . S
C671 C670 1.362 . S
H672 C678 0.930 . S
H673 C681 0.930 . S
H674 C682 0.930 . S
H675 C683 0.930 . S
H676 C686 0.930 . S
H677 C687 0.930 . S
C678 H672 0.930 . S
C678 C679 1.355 . S
C678 C680 1.415 . S
C679 C678 1.355 . S
C679 C681 1.419 . S
C680 C678 1.415 . S
C680 C685 1.425 . S
C680 C687 1.409 . S
C681 H673 0.930 . S
C681 C679 1.419 . S
C681 C682 1.362 . S
C682 H674 0.930 . S
C682 C681 1.362 . S
C682 C685 1.409 . S
C683 H675 0.930 . S
C683 C684 1.355 . S
C683 C685 1.415 . S
C684 C683 1.355 . S
C684 C686 1.419 . S
C685 C680 1.425 . S
C685 C682 1.409 . S
C685 C683 1.415 . S
C686 H676 0.930 . S
C686 C684 1.419 . S
C686 C687 1.362 . S
C687 H677 0.930 . S
C687 C680 1.409 . S
C687 C686 1.362 . S
H688 C694 0.930 . S
H689 C697 0.930 . S
H690 C698 0.930 . S
H691 C699 0.930 . S
H692 C702 0.930 . S
H693 C703 0.930 . S
C694 H688 0.930 . S
C694 C695 1.355 . S
C694 C696 1.415 . S
C695 C694 1.355 . S
C695 C697 1.419 . S
C696 C694 1.415 . S
C696 C701 1.425 . S
C696 C703 1.409 . S
C697 H689 0.930 . S
C697 C695 1.419 . S
C697 C698 1.362 . S
C698 H690 0.930 . S
C698 C697 1.362 . S
C698 C701 1.409 . S
C699 H691 0.930 . S
C699 C700 1.355 . S
C699 C701 1.415 . S
C700 C699 1.355 . S
C700 C702 1.419 . S
C701 C696 1.425 . S
C701 C698 1.409 . S
C701 C699 1.415 . S
C702 H692 0.930 . S
C702 C700 1.419 . S
C702 C703 1.362 . S
C703 H693 0.930 . S
C703 C696 1.409 . S
C703 C702 1.362 . S
H704 C710 0.930 . S
H705 C713 0.930 . S
H706 C714 0.930 . S
H707 C715 0.930 . S
H708 C718 0.930 . S
H709 C719 0.930 . S
C710 H704 0.930 . S
C710 C711 1.355 . S
C710 C712 1.415 . S
C711 C710 1.355 . S
C711 C713 1.419 . S
C712 C710 1.415 . S
C712 C717 1.425 . S
C712 C719 1.409 . S
C713 H705 0.930 . S
C713 C711 1.419 . S
C713 C714 1.362 . S
C714 H706 0.930 . S
C714 C713 1.362 . S
C714 C717 1.409 . S
C715 H707 0.930 . S
C715 C716 1.355 . S
C715 C717 1.415 . S
C716 C715 1.355 . S
C716 C718 1.419 . S
C717 C712 1.425 . S
C717 C714 1.409 . S
C717 C715 1.415 . S
C718 H708 0.930 . S
C718 C716 1.419 . S
C718 C719 1.362 . S
C719 H709 0.930 . S
C719 C712 1.409 . S
C719 C718 1.362 . S
H720 C726 0.930 . S
H721 C729 0.930 . S
H722 C730 0.930 . S
H723 C731 0.930 . S
H724 C734 0.930 . S
H725 C735 0.930 . S
C726 H720 0.930 . S
C726 C727 1.355 1_545 S
C726 C728 1.415 . S
C727 C726 1.355 1_565 S
C727 C729 1.419 . S
C728 C726 1.415 . S
C728 C733 1.425 1_546 S
C728 C735 1.409 1_556 S
C729 H721 0.930 . S
C729 C727 1.419 . S
C729 C730 1.362 . S
C730 H722 0.930 . S
C730 C729 1.362 . S
C730 C733 1.409 1_556 S
C731 H723 0.930 . S
C731 C732 1.355 1_565 S
C731 C733 1.415 . S
C732 C731 1.355 1_545 S
C732 C734 1.419 . S
C733 C728 1.425 1_564 S
C733 C730 1.409 1_554 S
C733 C731 1.415 . S
C734 H724 0.930 . S
C734 C732 1.419 . S
C734 C735 1.362 . S
C735 H725 0.930 . S
C735 C728 1.409 1_554 S
C735 C734 1.362 . S
H736 C742 0.930 . S
H737 C745 0.930 . S
H738 C746 0.930 . S
H739 C747 0.930 . S
H740 C750 0.930 . S
H741 C751 0.930 . S
C742 H736 0.930 . S
C742 C743 1.355 . S
C742 C744 1.415 . S
C743 C742 1.355 . S
C743 C745 1.419 . S
C744 C742 1.415 . S
C744 C749 1.425 . S
C744 C751 1.409 . S
C745 H737 0.930 . S
C745 C743 1.419 . S
C745 C746 1.362 . S
C746 H738 0.930 . S
C746 C745 1.362 . S
C746 C749 1.409 . S
C747 H739 0.930 . S
C747 C748 1.355 . S
C747 C749 1.415 . S
C748 C747 1.355 . S
C748 C750 1.419 . S
C749 C744 1.425 . S
C749 C746 1.409 . S
C749 C747 1.415 . S
C750 H740 0.930 . S
C750 C748 1.419 . S
C750 C751 1.362 . S
C751 H741 0.930 . S
C751 C744 1.409 . S
C751 C750 1.362 . S
H752 C758 0.930 . S
H753 C761 0.930 . S
H754 C762 0.936 . S
H755 C763 0.930 . S
H756 C766 0.930 . S
H757 C767 0.936 . S
C758 H752 0.930 . S
C758 C759 1.355 1_655 S
C758 C760 1.415 . S
C759 C758 1.355 1_455 S
C759 C761 1.419 . S
C760 C758 1.415 . S
C760 C765 1.425 1_656 S
C760 C767 1.409 1_556 S
C761 H753 0.930 . S
C761 C759 1.419 . S
C761 C762 1.362 . S
C762 H754 0.936 . S
C762 C761 1.362 . S
C762 C765 1.409 1_556 S
C763 H755 0.930 . S
C763 C764 1.355 1_455 S
C763 C765 1.415 . S
C764 C763 1.355 1_655 S
C764 C766 1.419 . S
C765 C760 1.425 1_454 S
C765 C762 1.409 1_554 S
C765 C763 1.415 . S
C766 H756 0.930 . S
C766 C764 1.419 . S
C766 C767 1.362 . S
C767 H757 0.936 . S
C767 C760 1.409 1_554 S
C767 C766 1.362 . S
H768 C774 0.930 . S
H769 C777 0.930 . S
H770 C778 0.930 . S
H771 C779 0.930 . S
H772 C782 0.930 . S
H773 C783 0.930 . S
C774 H768 0.930 . S
C774 C775 1.355 . S
C774 C776 1.415 . S
C775 C774 1.355 . S
C775 C777 1.419 1_545 S
C776 C774 1.415 . S
C776 C781 1.425 1_545 S
C776 C783 1.409 . S
C777 H769 0.930 . S
C777 C775 1.419 1_565 S
C777 C778 1.362 . S
C778 H770 0.930 . S
C778 C777 1.362 . S
C778 C781 1.409 . S
C779 H771 0.930 . S
C779 C780 1.355 . S
C779 C781 1.415 . S
C780 C779 1.355 . S
C780 C782 1.419 1_565 S
C781 C776 1.425 1_565 S
C781 C778 1.409 . S
C781 C779 1.415 . S
C782 H772 0.930 . S
C782 C780 1.419 1_545 S
C782 C783 1.362 . S
C783 H773 0.930 . S
C783 C776 1.409 . S
C783 C782 1.362 . S
H784 C790 0.930 . S
H785 C793 0.930 . S
H786 C794 0.930 . S
H787 C795 0.930 . S
H788 C798 0.930 . S
H789 C799 0.930 . S
C790 H784 0.930 . S
C790 C791 1.355 . S
C790 C792 1.415 . S
C791 C790 1.355 . S
C791 C793 1.419 . S
C792 C790 1.415 . S
C792 C797 1.425 1_554 S
C792 C799 1.409 1_554 S
C793 H785 0.930 . S
C793 C791 1.419 . S
C793 C794 1.362 . S
C794 H786 0.930 . S
C794 C793 1.362 . S
C794 C797 1.409 1_554 S
C795 H787 0.930 . S
C795 C796 1.355 . S
C795 C797 1.415 . S
C796 C795 1.355 . S
C796 C798 1.419 . S
C797 C792 1.425 1_556 S
C797 C794 1.409 1_556 S
C797 C795 1.415 . S
C798 H788 0.930 . S
C798 C796 1.419 . S
C798 C799 1.362 . S
C799 H789 0.930 . S
C799 C792 1.409 1_556 S
C799 C798 1.362 . S
H800 C806 0.930 . S
H801 C809 0.930 . S
H802 C810 0.930 . S
H803 C811 0.930 . S
H804 C814 0.930 . S
H805 C815 0.930 . S
C806 H800 0.930 . S
C806 C807 1.355 . S
C806 C808 1.415 . S
C807 C806 1.355 . S
C807 C809 1.419 1_455 S
C808 C806 1.415 . S
C808 C813 1.425 1_455 S
C808 C815 1.409 . S
C809 H801 0.930 . S
C809 C807 1.419 1_655 S
C809 C810 1.362 . S
C810 H802 0.930 . S
C810 C809 1.362 . S
C810 C813 1.409 . S
C811 H803 0.930 . S
C811 C812 1.355 . S
C811 C813 1.415 . S
C812 C811 1.355 . S
C812 C814 1.419 1_655 S
C813 C808 1.425 1_655 S
C813 C810 1.409 . S
C813 C811 1.415 . S
C814 H804 0.930 . S
C814 C812 1.419 1_455 S
C814 C815 1.362 . S
C815 H805 0.930 . S
C815 C808 1.409 . S
C815 C814 1.362 . S
H816 C822 0.930 . S
H817 C825 0.930 . S
H818 C826 0.930 . S
H819 C827 0.930 . S
H820 C830 0.930 . S
H821 C831 0.930 . S
C822 H816 0.930 . S
C822 C823 1.355 1_545 S
C822 C824 1.415 . S
C823 C822 1.355 1_565 S
C823 C825 1.419 . S
C824 C822 1.415 . S
C824 C829 1.425 1_546 S
C824 C831 1.409 1_556 S
C825 H817 0.930 . S
C825 C823 1.419 . S
C825 C826 1.362 . S
C826 H818 0.930 . S
C826 C825 1.362 . S
C826 C829 1.409 1_556 S
C827 H819 0.930 . S
C827 C828 1.355 1_565 S
C827 C829 1.415 . S
C828 C827 1.355 1_545 S
C828 C830 1.419 . S
C829 C824 1.425 1_564 S
C829 C826 1.409 1_554 S
C829 C827 1.415 . S
C830 H820 0.930 . S
C830 C828 1.419 . S
C830 C831 1.362 . S
C831 H821 0.930 . S
C831 C824 1.409 1_554 S
C831 C830 1.362 . S
H832 C838 0.930 . S
H833 C841 0.930 . S
H834 C842 0.930 . S
H835 C843 0.930 . S
H836 C846 0.930 . S
H837 C847 0.930 . S
C838 H832 0.930 . S
C838 C839 1.355 . S
C838 C840 1.415 . S
C839 C838 1.355 . S
C839 C841 1.419 . S
C840 C838 1.415 . S
C840 C845 1.425 . S
C840 C847 1.409 . S
C841 H833 0.930 . S
C841 C839 1.419 . S
C841 C842 1.362 . S
C842 H834 0.930 . S
C842 C841 1.362 . S
C842 C845 1.409 . S
C843 H835 0.930 . S
C843 C844 1.355 . S
C843 C845 1.415 . S
C844 C843 1.355 . S
C844 C846 1.419 . S
C845 C840 1.425 . S
C845 C842 1.409 . S
C845 C843 1.415 . S
C846 H836 0.930 . S
C846 C844 1.419 . S
C846 C847 1.362 . S
C847 H837 0.930 . S
C847 C840 1.409 . S
C847 C846 1.362 . S
H848 C854 0.930 . S
H849 C857 0.930 . S
H850 C858 0.919 1_556 S
H851 C859 0.930 . S
H852 C862 0.930 . S
H853 C863 0.919 1_554 S
C854 H848 0.930 . S
C854 C855 1.355 1_455 S
C854 C856 1.415 . S
C855 C854 1.355 1_655 S
C855 C857 1.419 . S
C856 C854 1.415 . S
C856 C861 1.425 1_454 S
C856 C863 1.409 1_554 S
C857 H849 0.930 . S
C857 C855 1.419 . S
C857 C858 1.362 . S
C858 H850 0.919 1_554 S
C858 C857 1.362 . S
C858 C861 1.409 1_554 S
C859 H851 0.930 . S
C859 C860 1.355 1_655 S
C859 C861 1.415 . S
C860 C859 1.355 1_455 S
C860 C862 1.419 . S
C861 C856 1.425 1_656 S
C861 C858 1.409 1_556 S
C861 C859 1.415 . S
C862 H852 0.930 . S
C862 C860 1.419 . S
C862 C863 1.362 . S
C863 H853 0.919 1_556 S
C863 C856 1.409 1_556 S
C863 C862 1.362 . S
H864 C870 0.930 . S
H865 C873 0.930 . S
H866 C874 0.930 . S
H867 C875 0.930 . S
H868 C878 0.930 . S
H869 C879 0.930 . S
C870 H864 0.930 . S
C870 C871 1.355 . S
C870 C872 1.415 . S
C871 C870 1.355 . S
C871 C873 1.419 1_565 S
C872 C870 1.415 . S
C872 C877 1.425 1_565 S
C872 C879 1.409 . S
C873 H865 0.930 . S
C873 C871 1.419 1_545 S
C873 C874 1.362 . S
C874 H866 0.930 . S
C874 C873 1.362 . S
C874 C877 1.409 . S
C875 H867 0.930 . S
C875 C876 1.355 . S
C875 C877 1.415 . S
C876 C875 1.355 . S
C876 C878 1.419 1_545 S
C877 C872 1.425 1_545 S
C877 C874 1.409 . S
C877 C875 1.415 . S
C878 H868 0.930 . S
C878 C876 1.419 1_565 S
C878 C879 1.362 . S
C879 H869 0.930 . S
C879 C872 1.409 . S
C879 C878 1.362 . S
H880 C886 0.930 . S
H881 C889 0.930 . S
H882 C890 0.951 . S
H883 C891 0.930 . S
H884 C894 0.930 . S
H885 C895 0.951 . S
C886 H880 0.930 . S
C886 C887 1.355 . S
C886 C888 1.415 . S
C887 C886 1.355 . S
C887 C889 1.419 . S
C888 C886 1.415 . S
C888 C893 1.425 1_554 S
C888 C895 1.409 1_554 S
C889 H881 0.930 . S
C889 C887 1.419 . S
C889 C890 1.362 . S
C890 H882 0.951 . S
C890 C889 1.362 . S
C890 C893 1.409 1_554 S
C891 H883 0.930 . S
C891 C892 1.355 . S
C891 C893 1.415 . S
C892 C891 1.355 . S
C892 C894 1.419 . S
C893 C888 1.425 1_556 S
C893 C890 1.409 1_556 S
C893 C891 1.415 . S
C894 H884 0.930 . S
C894 C892 1.419 . S
C894 C895 1.362 . S
C895 H885 0.951 . S
C895 C888 1.409 1_556 S
C895 C894 1.362 . S
H896 C902 0.930 . S
H897 C905 0.930 . S
H898 C906 0.930 . S
H899 C907 0.930 . S
H900 C910 0.930 . S
H901 C911 0.930 . S
C902 H896 0.930 . S
C902 C903 1.355 . S
C902 C904 1.415 . S
C903 C902 1.355 . S
C903 C905 1.419 . S
C904 C902 1.415 . S
C904 C909 1.425 1_455 S
C904 C911 1.409 . S
C905 H897 0.930 . S
C905 C903 1.419 . S
C905 C906 1.362 1_455 S
C906 H898 0.930 . S
C906 C905 1.362 1_655 S
C906 C909 1.409 . S
C907 H899 0.930 . S
C907 C908 1.355 . S
C907 C909 1.415 . S
C908 C907 1.355 . S
C908 C910 1.419 . S
C909 C904 1.425 1_655 S
C909 C906 1.409 . S
C909 C907 1.415 . S
C910 H900 0.930 . S
C910 C908 1.419 . S
C910 C911 1.362 1_655 S
C911 H901 0.930 . S
C911 C904 1.409 . S
C911 C910 1.362 1_455 S
H912 C918 0.930 . S
H913 C921 0.930 . S
H914 C922 0.930 . S
H915 C923 0.930 . S
H916 C926 0.930 . S
H917 C927 0.930 . S
C918 H912 0.930 . S
C918 C919 1.355 . S
C918 C920 1.415 . S
C919 C918 1.355 . S
C919 C921 1.419 . S
C920 C918 1.415 . S
C920 C925 1.425 . S
C920 C927 1.409 . S
C921 H913 0.930 . S
C921 C919 1.419 . S
C921 C922 1.362 . S
C922 H914 0.930 . S
C922 C921 1.362 . S
C922 C925 1.409 . S
C923 H915 0.930 . S
C923 C924 1.355 . S
C923 C925 1.415 . S
C924 C923 1.355 . S
C924 C926 1.419 . S
C925 C920 1.425 . S
C925 C922 1.409 . S
C925 C923 1.415 . S
C926 H916 0.930 . S
C926 C924 1.419 . S
C926 C927 1.362 . S
C927 H917 0.930 . S
C927 C920 1.409 . S
C927 C926 1.362 . S
H928 C934 0.930 . S
H929 C937 0.930 . S
H930 C938 0.930 . S
H931 C939 0.930 . S
H932 C942 0.930 . S
H933 C943 0.930 . S
C934 H928 0.930 . S
C934 C935 1.355 . S
C934 C936 1.415 . S
C935 C934 1.355 . S
C935 C937 1.419 . S
C936 C934 1.415 . S
C936 C941 1.425 . S
C936 C943 1.409 . S
C937 H929 0.930 . S
C937 C935 1.419 . S
C937 C938 1.362 . S
C938 H930 0.930 . S
C938 C937 1.362 . S
C938 C941 1.409 . S
C939 H931 0.930 . S
C939 C940 1.355 . S
C939 C941 1.415 . S
C940 C939 1.355 . S
C940 C942 1.419 . S
C941 C936 1.425 . S
C941 C938 1.409 . S
C941 C939 1.415 . S
C942 H932 0.930 . S
C942 C940 1.419 . S
C942 C943 1.362 . S
C943 H933 0.930 . S
C943 C936 1.409 . S
C943 C942 1.362 . S
H944 C950 0.930 . S
H945 C953 0.930 . S
H946 C954 0.930 . S
H947 C955 0.930 . S
H948 C958 0.930 . S
H949 C959 0.930 1_455 S
C950 H944 0.930 . S
C950 C951 1.355 . S
C950 C952 1.415 . S
C951 C950 1.355 . S
C951 C953 1.419 . S
C952 C950 1.415 . S
C952 C957 1.425 . S
C952 C959 1.409 . S
C953 H945 0.930 . S
C953 C951 1.419 . S
C953 C954 1.362 . S
C954 H946 0.930 . S
C954 C953 1.362 . S
C954 C957 1.409 . S
C955 H947 0.930 . S
C955 C956 1.355 . S
C955 C957 1.415 . S
C956 C955 1.355 . S
C956 C958 1.419 . S
C957 C952 1.425 . S
C957 C954 1.409 . S
C957 C955 1.415 . S
C958 H948 0.930 . S
C958 C956 1.419 . S
C958 C959 1.362 . S
C959 H949 0.930 1_655 S
C959 C952 1.409 . S
C959 C958 1.362 . S
H960 C966 0.930 . S
H961 C969 0.930 . S
H962 C970 0.930 . S
H963 C971 0.930 . S
H964 C974 0.930 . S
H965 C975 0.930 . S
C966 H960 0.930 . S
C966 C967 1.355 . S
C966 C968 1.415 . S
C967 C966 1.355 . S
C967 C969 1.419 . S
C968 C966 1.415 . S
C968 C973 1.425 . S
C968 C975 1.409 . S
C969 H961 0.930 . S
C969 C967 1.419 . S
C969 C970 1.362 . S
C970 H962 0.930 . S
C970 C969 1.362 . S
C970 C973 1.409 . S
C971 H963 0.930 . S
C971 C972 1.355 . S
C971 C973 1.415 . S
C972 C971 1.355 . S
C972 C974 1.419 . S
C973 C968 1.425 . S
C973 C970 1.409 . S
C973 C971 1.415 . S
C974 H964 0.930 . S
C974 C972 1.419 . S
C974 C975 1.362 . S
C975 H965 0.930 . S
C975 C968 1.409 . S
C975 C974 1.362 . S
H976 C982 0.930 . S
H977 C985 0.930 . S
H978 C986 0.930 . S
H979 C987 0.930 . S
H980 C990 0.930 . S
H981 C991 0.930 . S
C982 H976 0.930 . S
C982 C983 1.355 . S
C982 C984 1.415 . S
C983 C982 1.355 . S
C983 C985 1.419 . S
C984 C982 1.415 . S
C984 C989 1.425 . S
C984 C991 1.409 . S
C985 H977 0.930 . S
C985 C983 1.419 . S
C985 C986 1.362 . S
C986 H978 0.930 . S
C986 C985 1.362 . S
C986 C989 1.409 . S
C987 H979 0.930 . S
C987 C988 1.355 . S
C987 C989 1.415 . S
C988 C987 1.355 . S
C988 C990 1.419 . S
C989 C984 1.425 . S
C989 C986 1.409 . S
C989 C987 1.415 . S
C990 H980 0.930 . S
C990 C988 1.419 . S
C990 C991 1.362 . S
C991 H981 0.930 . S
C991 C984 1.409 . S
C991 C990 1.362 . S
H992 C998 0.930 . S
H993 C1001 0.930 . S
H994 C1002 0.930 . S
H995 C1003 0.930 . S
H996 C1006 0.930 . S
H997 C1007 0.930 . S
C998 H992 0.930 . S
C998 C999 1.355 . S
C998 C1000 1.415 . S
C999 C998 1.355 . S
C999 C1001 1.419 . S
C1000 C998 1.415 . S
C1000 C1005 1.425 . S
C1000 C1007 1.409 . S
C1001 H993 0.930 . S
C1001 C999 1.419 . S
C1001 C1002 1.362 . S
C1002 H994 0.930 . S
C1002 C1001 1.362 . S
C1002 C1005 1.409 . S
C1003 H995 0.930 . S
C1003 C1004 1.355 . S
C1003 C1005 1.415 . S
C1004 C1003 1.355 . S
C1004 C1006 1.419 . S
C1005 C1000 1.425 . S
C1005 C1002 1.409 . S
C1005 C1003 1.415 . S
C1006 H996 0.930 . S
C1006 C1004 1.419 . S
C1006 C1007 1.362 . S
C1007 H997 0.930 . S
C1007 C1000 1.409 . S
C1007 C1006 1.362 . S
H1008 C1014 0.930 . S
H1009 C1017 0.930 . S
H1010 C1018 0.930 . S
H1011 C1019 0.930 . S
H1012 C1022 0.930 . S
H1013 C1023 0.930 . S
C1014 H1008 0.930 . S
C1014 C1015 1.355 . S
C1014 C1016 1.415 . S
C1015 C1014 1.355 . S
C1015 C1017 1.419 . S
C1016 C1014 1.415 . S
C1016 C1021 1.425 . S
C1016 C1023 1.409 . S
C1017 H1009 0.930 . S
C1017 C1015 1.419 . S
C1017 C1018 1.362 . S
C1018 H1010 0.930 . S
C1018 C1017 1.362 . S
C1018 C1021 1.409 . S
C1019 H1011 0.930 . S
C1019 C1020 1.355 . S
C1019 C1021 1.415 . S
C1020 C1019 1.355 . S
C1020 C1022 1.419 . S
C1021 C1016 1.425 . S
C1021 C1018 1.409 . S
C1021 C1019 1.415 . S
C1022 H1012 0.930 . S
C1022 C1020 1.419 . S
C1022 C1023 1.362 . S
C1023 H1013 0.930 . S
C1023 C1016 1.409 . S
C1023 C1022 1.362 . S
H1024 C1030 0.930 . S
H1025 C1033 0.930 . S
H1026 C1034 0.930 . S
H1027 C1035 0.930 . S
H1028 C1038 0.930 . S
H1029 C1039 0.930 . S
C1030 H1024 0.930 . S
C1030 C1031 1.355 . S
C1030 C1032 1.415 . S
C1031 C1030 1.355 . S
C1031 C1033 1.419 . S
C1032 C1030 1.415 . S
C1032 C1037 1.425 . S
C1032 C1039 1.409 . S
C1033 H1025 0.930 . S
C1033 C1031 1.419 . S
C1033 C1034 1.362 . S
C1034 H1026 0.930 . S
C1034 C1033 1.362 . S
C1034 C1037 1.409 . S
C1035 H1027 0.930 . S
C1035 C1036 1.355 . S
C1035 C1037 1.415 . S
C1036 C1035 1.355 . S
C1036 C1038 1.419 . S
C1037 C1032 1.425 . S
C1037 C1034 1.409 . S
C1037 C1035 1.415 . S
C1038 H1028 0.930 . S
C1038 C1036 1.419 . S
C1038 C1039 1.362 . S
C1039 H1029 0.930 . S
C1039 C1032 1.409 . S
C1039 C1038 1.362 . S
H1040 C1046 0.930 . S
H1041 C1049 0.930 . S
H1042 C1050 0.930 . S
H1043 C1051 0.930 . S
H1044 C1054 0.930 . S
H1045 C1055 0.930 . S
C1046 H1040 0.930 . S
C1046 C1047 1.355 . S
C1046 C1048 1.415 . S
C1047 C1046 1.355 . S
C1047 C1049 1.419 . S
C1048 C1046 1.415 . S
C1048 C1053 1.425 . S
C1048 C1055 1.409 . S
C1049 H1041 0.930 . S
C1049 C1047 1.419 . S
C1049 C1050 1.362 . S
C1050 H1042 0.930 . S
C1050 C1049 1.362 . S
C1050 C1053 1.409 . S
C1051 H1043 0.930 . S
C1051 C1052 1.355 . S
C1051 C1053 1.415 . S
C1052 C1051 1.355 . S
C1052 C1054 1.419 . S
C1053 C1048 1.425 . S
C1053 C1050 1.409 . S
C1053 C1051 1.415 . S
C1054 H1044 0.930 . S
C1054 C1052 1.419 . S
C1054 C1055 1.362 . S
C1055 H1045 0.930 . S
C1055 C1048 1.409 . S
C1055 C1054 1.362 . S
H1056 C1062 0.930 . S
H1057 C1065 0.930 . S
H1058 C1066 0.930 . S
H1059 C1067 0.930 . S
H1060 C1070 0.930 . S
H1061 C1071 0.930 . S
C1062 H1056 0.930 . S
C1062 C1063 1.355 . S
C1062 C1064 1.415 . S
C1063 C1062 1.355 . S
C1063 C1065 1.419 . S
C1064 C1062 1.415 . S
C1064 C1069 1.425 . S
C1064 C1071 1.409 . S
C1065 H1057 0.930 . S
C1065 C1063 1.419 . S
C1065 C1066 1.362 . S
C1066 H1058 0.930 . S
C1066 C1065 1.362 . S
C1066 C1069 1.409 . S
C1067 H1059 0.930 . S
C1067 C1068 1.355 . S
C1067 C1069 1.415 . S
C1068 C1067 1.355 . S
C1068 C1070 1.419 . S
C1069 C1064 1.425 . S
C1069 C1066 1.409 . S
C1069 C1067 1.415 . S
C1070 H1060 0.930 . S
C1070 C1068 1.419 . S
C1070 C1071 1.362 . S
C1071 H1061 0.930 . S
C1071 C1064 1.409 . S
C1071 C1070 1.362 . S
H1072 C1078 0.930 . S
H1073 C1081 0.930 . S
H1074 C1082 0.930 . S
H1075 C1083 0.930 . S
H1076 C1086 0.930 . S
H1077 C1087 0.930 . S
C1078 H1072 0.930 . S
C1078 C1079 1.355 . S
C1078 C1080 1.415 . S
C1079 C1078 1.355 . S
C1079 C1081 1.419 . S
C1080 C1078 1.415 . S
C1080 C1085 1.425 . S
C1080 C1087 1.409 . S
C1081 H1073 0.930 . S
C1081 C1079 1.419 . S
C1081 C1082 1.362 . S
C1082 H1074 0.930 . S
C1082 C1081 1.362 . S
C1082 C1085 1.409 . S
C1083 H1075 0.930 . S
C1083 C1084 1.355 . S
C1083 C1085 1.415 . S
C1084 C1083 1.355 . S
C1084 C1086 1.419 . S
C1085 C1080 1.425 . S
C1085 C1082 1.409 . S
C1085 C1083 1.415 . S
C1086 H1076 0.930 . S
C1086 C1084 1.419 . S
C1086 C1087 1.362 . S
C1087 H1077 0.930 . S
C1087 C1080 1.409 . S
C1087 C1086 1.362 . S
H1088 C1094 0.930 . S
H1089 C1097 0.930 . S
H1090 C1098 0.930 . S
H1091 C1099 0.930 . S
H1092 C1102 0.930 . S
H1093 C1103 0.930 . S
C1094 H1088 0.930 . S
C1094 C1095 1.355 . S
C1094 C1096 1.415 . S
C1095 C1094 1.355 . S
C1095 C1097 1.419 . S
C1096 C1094 1.415 . S
C1096 C1101 1.425 . S
C1096 C1103 1.409 . S
C1097 H1089 0.930 . S
C1097 C1095 1.419 . S
C1097 C1098 1.362 . S
C1098 H1090 0.930 . S
C1098 C1097 1.362 . S
C1098 C1101 1.409 . S
C1099 H1091 0.930 . S
C1099 C1100 1.355 . S
C1099 C1101 1.415 . S
C1100 C1099 1.355 . S
C1100 C1102 1.419 . S
C1101 C1096 1.425 . S
C1101 C1098 1.409 . S
C1101 C1099 1.415 . S
C1102 H1092 0.930 . S
C1102 C1100 1.419 . S
C1102 C1103 1.362 . S
C1103 H1093 0.930 . S
C1103 C1096 1.409 . S
C1103 C1102 1.362 . S
C343 C219 1.305 . S
C348 C9 1.277 . S
C359 C23 1.255 . S
C364 C233 1.326 . S
C375 C37 1.323 . S
C380 C247 1.258 . S
C391 C51 1.260 . S
C396 C177 1.321 . S
C407 C191 1.251 . S
C412 C65 1.330 . S
C423 C79 1.315 . S
C428 C205 1.267 . S
C439 C303 1.326 . S
C444 C93 1.255 . S
C455 C107 1.300 . S
C460 C317 1.282 . S
C471 C121 1.302 . S
C476 C331 1.280 . S
C487 C261 1.251 . S
C492 C135 1.330 . S
C503 C149 1.266 . S
C508 C275 1.316 . S
C519 C289 1.255 . S
C524 C163 1.326 . S
C535 C3 1.578 . S
C540 C325 1.574 . S
C551 C255 1.578 . S
C556 C17 1.574 . S
C567 C31 1.578 . S
C572 C269 1.573 . S
C583 C283 1.573 . S
C588 C45 1.578 . S
C599 C59 1.573 . S
C604 C297 1.579 . S
C615 C311 1.574 . S
C620 C73 1.578 . S
C631 C87 1.578 . S
C636 C185 1.574 . S
C647 C199 1.575 . S
C652 C101 1.576 . S
C663 C213 1.578 . S
C668 C115 1.574 . S
C679 C227 1.573 . S
C684 C129 1.579 . S
C695 C143 1.578 . S
C700 C241 1.573 . S
C711 C157 1.574 . S
C716 C171 1.577 . S
C727 C106 1.311 . S
C732 C8 1.328 . S
C743 C120 1.353 . S
C748 C22 1.355 . S
C759 C134 1.308 . S
C764 C36 1.305 . S
C775 C148 1.356 . S
C780 C50 1.351 . S
C791 C64 1.331 . S
C796 C162 1.348 . S
C807 C78 1.352 . S
C812 C92 1.356 . S
C823 C176 1.305 . S
C828 C274 1.311 . S
C839 C190 1.313 . S
C844 C288 1.305 . S
C855 C302 1.309 . S
C860 C204 1.305 . S
C871 C316 1.348 . S
C876 C218 1.356 . S
C887 C330 1.305 . S
C892 C232 1.310 . S
C903 C260 1.318 . S
C908 C246 1.336 . S
C919 C7 1.581 . S
C924 C273 1.528 . S
C935 C287 1.581 . S
C940 C21 1.527 . S
C951 C35 1.540 . S
C956 C301 1.569 . S
C967 C315 1.560 . S
C972 C49 1.549 . S
C983 C63 1.547 . S
C988 C329 1.562 . S
C999 C259 1.528 . S
C1004 C77 1.581 . S
C1015 C91 1.563 . S
C1020 C245 1.546 . S
C1031 C175 1.534 . S
C1036 C105 1.575 . S
C1047 C119 1.540 . S
C1052 C189 1.569 . S
C1063 C133 1.572 . S
C1068 C203 1.537 . S
C1079 C147 1.564 . S
C1084 C217 1.545 . S
C1095 C161 1.531 . S
C1100 C231 1.578 . S
