# Generated by pormake.
# Topology wjr, (5)-cn, num edge types: 1
# Building blocks:
#     Node 0, Type 0, BuildingBlock: XOMCOT_clean_sbu_0, # of connection points: 5
#     Node 1, Type 0, BuildingBlock: XOMCOT_clean_sbu_0, # of connection points: 5
#     Node 2, Type 0, BuildingBlock: XOMCOT_clean_sbu_0, # of connection points: 5
#     Node 3, Type 0, BuildingBlock: XOMCOT_clean_sbu_0, # of connection points: 5
#     Node 4, Type 0, BuildingBlock: XOMCOT_clean_sbu_0, # of connection points: 5
#     Node 5, Type 0, BuildingBlock: XOMCOT_clean_sbu_0, # of connection points: 5
#     Node 6, Type 0, BuildingBlock: XOMCOT_clean_sbu_0, # of connection points: 5
#     Node 7, Type 0, BuildingBlock: XOMCOT_clean_sbu_0, # of connection points: 5
#     Node 8, Type 0, BuildingBlock: XOMCOT_clean_sbu_0, # of connection points: 5
#     Node 9, Type 0, BuildingBlock: XOMCOT_clean_sbu_0, # of connection points: 5
#     Node 10, Type 0, BuildingBlock: XOMCOT_clean_sbu_0, # of connection points: 5
#     Node 11, Type 0, BuildingBlock: XOMCOT_clean_sbu_0, # of connection points: 5
#     Node 12, Type 0, BuildingBlock: XOMCOT_clean_sbu_0, # of connection points: 5
#     Node 13, Type 0, BuildingBlock: XOMCOT_clean_sbu_0, # of connection points: 5
#     Node 14, Type 0, BuildingBlock: XOMCOT_clean_sbu_0, # of connection points: 5
#     Node 15, Type 0, BuildingBlock: XOMCOT_clean_sbu_0, # of connection points: 5
#     Node 16, Type 0, BuildingBlock: XOMCOT_clean_sbu_0, # of connection points: 5
#     Node 17, Type 0, BuildingBlock: XOMCOT_clean_sbu_0, # of connection points: 5
#     Node 18, Type 0, BuildingBlock: XOMCOT_clean_sbu_0, # of connection points: 5
#     Node 19, Type 0, BuildingBlock: XOMCOT_clean_sbu_0, # of connection points: 5
#     Node 20, Type 0, BuildingBlock: XOMCOT_clean_sbu_0, # of connection points: 5
#     Node 21, Type 0, BuildingBlock: XOMCOT_clean_sbu_0, # of connection points: 5
#     Node 22, Type 0, BuildingBlock: XOMCOT_clean_sbu_0, # of connection points: 5
#     Node 23, Type 0, BuildingBlock: XOMCOT_clean_sbu_0, # of connection points: 5
#     Edge 24, Type (0, 0), BuildingBlock: ZUJKAS_clean_linker_0, # of connection points: 2
#     Edge 25, Type (0, 0), BuildingBlock: ZUJKAS_clean_linker_0, # of connection points: 2
#     Edge 26, Type (0, 0), BuildingBlock: ZUJKAS_clean_linker_0, # of connection points: 2
#     Edge 27, Type (0, 0), BuildingBlock: ZUJKAS_clean_linker_0, # of connection points: 2
#     Edge 28, Type (0, 0), BuildingBlock: ZUJKAS_clean_linker_0, # of connection points: 2
#     Edge 29, Type (0, 0), BuildingBlock: ZUJKAS_clean_linker_0, # of connection points: 2
#     Edge 30, Type (0, 0), BuildingBlock: ZUJKAS_clean_linker_0, # of connection points: 2
#     Edge 31, Type (0, 0), BuildingBlock: ZUJKAS_clean_linker_0, # of connection points: 2
#     Edge 32, Type (0, 0), BuildingBlock: ZUJKAS_clean_linker_0, # of connection points: 2
#     Edge 33, Type (0, 0), BuildingBlock: ZUJKAS_clean_linker_0, # of connection points: 2
#     Edge 34, Type (0, 0), BuildingBlock: ZUJKAS_clean_linker_0, # of connection points: 2
#     Edge 35, Type (0, 0), BuildingBlock: ZUJKAS_clean_linker_0, # of connection points: 2
#     Edge 36, Type (0, 0), BuildingBlock: ZUJKAS_clean_linker_0, # of connection points: 2
#     Edge 37, Type (0, 0), BuildingBlock: ZUJKAS_clean_linker_0, # of connection points: 2
#     Edge 38, Type (0, 0), BuildingBlock: ZUJKAS_clean_linker_0, # of connection points: 2
#     Edge 39, Type (0, 0), BuildingBlock: ZUJKAS_clean_linker_0, # of connection points: 2
#     Edge 40, Type (0, 0), BuildingBlock: ZUJKAS_clean_linker_0, # of connection points: 2
#     Edge 41, Type (0, 0), BuildingBlock: ZUJKAS_clean_linker_0, # of connection points: 2
#     Edge 42, Type (0, 0), BuildingBlock: ZUJKAS_clean_linker_0, # of connection points: 2
#     Edge 43, Type (0, 0), BuildingBlock: ZUJKAS_clean_linker_0, # of connection points: 2
#     Edge 44, Type (0, 0), BuildingBlock: ZUJKAS_clean_linker_0, # of connection points: 2
#     Edge 45, Type (0, 0), BuildingBlock: ZUJKAS_clean_linker_0, # of connection points: 2
#     Edge 46, Type (0, 0), BuildingBlock: ZUJKAS_clean_linker_0, # of connection points: 2
#     Edge 47, Type (0, 0), BuildingBlock: ZUJKAS_clean_linker_0, # of connection points: 2
#     Edge 48, Type (0, 0), BuildingBlock: ZUJKAS_clean_linker_0, # of connection points: 2
#     Edge 49, Type (0, 0), BuildingBlock: ZUJKAS_clean_linker_0, # of connection points: 2
#     Edge 50, Type (0, 0), BuildingBlock: ZUJKAS_clean_linker_0, # of connection points: 2
#     Edge 51, Type (0, 0), BuildingBlock: ZUJKAS_clean_linker_0, # of connection points: 2
#     Edge 52, Type (0, 0), BuildingBlock: ZUJKAS_clean_linker_0, # of connection points: 2
#     Edge 53, Type (0, 0), BuildingBlock: ZUJKAS_clean_linker_0, # of connection points: 2
#     Edge 54, Type (0, 0), BuildingBlock: ZUJKAS_clean_linker_0, # of connection points: 2
#     Edge 55, Type (0, 0), BuildingBlock: ZUJKAS_clean_linker_0, # of connection points: 2
#     Edge 56, Type (0, 0), BuildingBlock: ZUJKAS_clean_linker_0, # of connection points: 2
#     Edge 57, Type (0, 0), BuildingBlock: ZUJKAS_clean_linker_0, # of connection points: 2
#     Edge 58, Type (0, 0), BuildingBlock: ZUJKAS_clean_linker_0, # of connection points: 2
#     Edge 59, Type (0, 0), BuildingBlock: ZUJKAS_clean_linker_0, # of connection points: 2
#     Edge 60, Type (0, 0), BuildingBlock: ZUJKAS_clean_linker_0, # of connection points: 2
#     Edge 61, Type (0, 0), BuildingBlock: ZUJKAS_clean_linker_0, # of connection points: 2
#     Edge 62, Type (0, 0), BuildingBlock: ZUJKAS_clean_linker_0, # of connection points: 2
#     Edge 63, Type (0, 0), BuildingBlock: ZUJKAS_clean_linker_0, # of connection points: 2
#     Edge 64, Type (0, 0), BuildingBlock: ZUJKAS_clean_linker_0, # of connection points: 2
#     Edge 65, Type (0, 0), BuildingBlock: ZUJKAS_clean_linker_0, # of connection points: 2
#     Edge 66, Type (0, 0), BuildingBlock: ZUJKAS_clean_linker_0, # of connection points: 2
#     Edge 67, Type (0, 0), BuildingBlock: ZUJKAS_clean_linker_0, # of connection points: 2
#     Edge 68, Type (0, 0), BuildingBlock: ZUJKAS_clean_linker_0, # of connection points: 2
#     Edge 69, Type (0, 0), BuildingBlock: ZUJKAS_clean_linker_0, # of connection points: 2
#     Edge 70, Type (0, 0), BuildingBlock: ZUJKAS_clean_linker_0, # of connection points: 2
#     Edge 71, Type (0, 0), BuildingBlock: ZUJKAS_clean_linker_0, # of connection points: 2
#     Edge 72, Type (0, 0), BuildingBlock: ZUJKAS_clean_linker_0, # of connection points: 2
#     Edge 73, Type (0, 0), BuildingBlock: ZUJKAS_clean_linker_0, # of connection points: 2
#     Edge 74, Type (0, 0), BuildingBlock: ZUJKAS_clean_linker_0, # of connection points: 2
#     Edge 75, Type (0, 0), BuildingBlock: ZUJKAS_clean_linker_0, # of connection points: 2
#     Edge 76, Type (0, 0), BuildingBlock: ZUJKAS_clean_linker_0, # of connection points: 2
#     Edge 77, Type (0, 0), BuildingBlock: ZUJKAS_clean_linker_0, # of connection points: 2
#     Edge 78, Type (0, 0), BuildingBlock: ZUJKAS_clean_linker_0, # of connection points: 2
#     Edge 79, Type (0, 0), BuildingBlock: ZUJKAS_clean_linker_0, # of connection points: 2
#     Edge 80, Type (0, 0), BuildingBlock: ZUJKAS_clean_linker_0, # of connection points: 2
#     Edge 81, Type (0, 0), BuildingBlock: ZUJKAS_clean_linker_0, # of connection points: 2
#     Edge 82, Type (0, 0), BuildingBlock: ZUJKAS_clean_linker_0, # of connection points: 2
#     Edge 83, Type (0, 0), BuildingBlock: ZUJKAS_clean_linker_0, # of connection points: 2
# Relax obj value: 0.394
# Max RMSD: 0.197
# Mean RMSD: 0.197
data_MOF--net-wjr--node1-XOMCOT_clean_sbu_0--edge1-ZUJKAS_clean_linker_0
_symmetry_space_group_name_H-M    P1
_symmetry_Int_Tables_number       1
_symmetry_cell_setting            triclinic
loop_
_symmetry_equiv_pos_as_xyz
'x, y, z'
_cell_length_a     81.668857
_cell_length_b     81.628763
_cell_length_c     64.476915
_cell_angle_alpha  90.001681
_cell_angle_beta   89.994924
_cell_angle_gamma 120.04812
loop_
_atom_site_label
_atom_site_type_symbol
_atom_site_fract_x
_atom_site_fract_y
_atom_site_fract_z
_atom_type_partial_charge
Co0 Co 0.45375 0.10346 0.18265 0.0
C1 C 0.44498 0.13244 0.19915 0.0
C2 C 0.43248 0.10687 0.21697 0.0
C3 C 0.42913 0.11972 0.22697 0.0
N4 N 0.44198 0.11459 0.19921 0.0
N5 N 0.43707 0.13583 0.21582 0.0
H6 H 0.45362 0.14309 0.18796 0.0
H7 H 0.42923 0.0932 0.22298 0.0
C8 C 0.41328 0.07281 0.18707 0.0
O9 O 0.40793 0.08497 0.18175 0.0
N10 N 0.4657 0.09229 0.16696 0.0
C11 C 0.47712 0.09985 0.1504 0.0
C12 C 0.48268 0.08736 0.14374 0.0
C13 C 0.46461 0.07551 0.17037 0.0
N14 N 0.47482 0.0721 0.15633 0.0
C15 C 0.45263 0.12586 0.14883 0.0
C16 C 0.43052 0.09559 0.12317 0.0
C17 C 0.43937 0.11389 0.11481 0.0
C18 C 0.45006 0.12919 0.1281 0.0
C19 C 0.43347 0.09287 0.14389 0.0
N20 N 0.44447 0.10787 0.15655 0.0
H21 H 0.46258 0.13769 0.15802 0.0
H22 H 0.42817 0.07854 0.14908 0.0
H23 H 0.48114 0.11349 0.14368 0.0
H24 H 0.4564 0.06596 0.18274 0.0
O25 O 0.47801 0.12672 0.18459 0.0
O26 O 0.46683 0.10297 0.20714 0.0
O27 O 0.43077 0.07767 0.1866 0.0
C28 C 0.48037 0.11959 0.20165 0.0
H29 H 0.42256 0.1178 0.24204 0.0
H30 H 0.49206 0.0895 0.13087 0.0
H31 H 0.42221 0.08332 0.11347 0.0
H32 H 0.4576 0.14353 0.1222 0.0
Co33 Co 0.35077 0.45903 0.18209 0.0
C34 C 0.31215 0.44888 0.19726 0.0
C35 C 0.32625 0.43856 0.21678 0.0
C36 C 0.30942 0.43425 0.22594 0.0
N37 N 0.32781 0.44729 0.19851 0.0
N38 N 0.3006 0.44079 0.21371 0.0
H39 H 0.30953 0.45645 0.18523 0.0
H40 H 0.33707 0.43627 0.2235 0.0
C41 C 0.34157 0.41891 0.18811 0.0
O42 O 0.32396 0.41315 0.18285 0.0
N43 N 0.37397 0.47094 0.16656 0.0
C44 C 0.37803 0.4823 0.14993 0.0
C45 C 0.39628 0.48813 0.1438 0.0
C46 C 0.38968 0.47005 0.17046 0.0
N47 N 0.40357 0.48039 0.15674 0.0
C48 C 0.32734 0.45652 0.14747 0.0
C49 C 0.33591 0.43377 0.12345 0.0
C50 C 0.32617 0.44195 0.11429 0.0
C51 C 0.32141 0.45304 0.12675 0.0
C52 C 0.3416 0.43763 0.14412 0.0
N53 N 0.33731 0.44886 0.15601 0.0
H54 H 0.32528 0.46669 0.15602 0.0
H55 H 0.35083 0.43278 0.14986 0.0
H56 H 0.36839 0.48609 0.1428 0.0
H57 H 0.391 0.4623 0.18336 0.0
O58 O 0.35131 0.48312 0.183 0.0
O59 O 0.36417 0.47294 0.20629 0.0
O60 O 0.35403 0.43646 0.18716 0.0
C61 C 0.36095 0.48621 0.2001 0.0
H62 H 0.30459 0.42783 0.24105 0.0
H63 H 0.40353 0.4972 0.13072 0.0
H64 H 0.34002 0.42522 0.11442 0.0
H65 H 0.31438 0.4601 0.12017 0.0
Co66 Co 0.88823 0.35295 0.17916 0.0
C67 C 0.85885 0.31499 0.19515 0.0
C68 C 0.88434 0.32773 0.21311 0.0
C69 C 0.87147 0.3113 0.22273 0.0
N70 N 0.87671 0.32987 0.19546 0.0
N71 N 0.85542 0.30332 0.2115 0.0
H72 H 0.84824 0.31314 0.18398 0.0
H73 H 0.89801 0.338 0.21924 0.0
C74 C 0.9187 0.34284 0.18349 0.0
O75 O 0.90651 0.32532 0.1782 0.0
N76 N 0.8999 0.37631 0.16386 0.0
C77 C 0.89322 0.38054 0.14681 0.0
C78 C 0.90577 0.39898 0.14128 0.0
C79 C 0.91615 0.39212 0.16867 0.0
N80 N 0.92012 0.40621 0.1551 0.0
C81 C 0.86611 0.3294 0.14511 0.0
C82 C 0.89655 0.33697 0.12001 0.0
C83 C 0.87828 0.32675 0.11168 0.0
C84 C 0.86292 0.32273 0.12466 0.0
C85 C 0.89911 0.34339 0.14046 0.0
N86 N 0.88402 0.33944 0.15293 0.0
H87 H 0.85421 0.32762 0.15408 0.0
H88 H 0.91339 0.35279 0.14562 0.0
H89 H 0.88009 0.37097 0.13908 0.0
H90 H 0.92489 0.39323 0.18182 0.0
O91 O 0.86515 0.35427 0.18087 0.0
O92 O 0.88863 0.36644 0.20368 0.0
O93 O 0.91385 0.35548 0.18331 0.0
C94 C 0.87223 0.36378 0.19795 0.0
H95 H 0.87335 0.30627 0.23758 0.0
H96 H 0.90425 0.40661 0.12839 0.0
H97 H 0.9089 0.3411 0.11043 0.0
H98 H 0.84855 0.3151 0.11886 0.0
Co99 Co 0.53071 0.88768 0.18337 0.0
C100 C 0.54064 0.86052 0.20327 0.0
C101 C 0.55069 0.88646 0.22009 0.0
C102 C 0.5552 0.87493 0.23116 0.0
N103 N 0.54188 0.87764 0.20238 0.0
N104 N 0.54884 0.85862 0.22061 0.0
H105 H 0.53359 0.84948 0.19194 0.0
H106 H 0.55317 0.90022 0.22491 0.0
C107 C 0.57169 0.91678 0.18581 0.0
O108 O 0.57578 0.90329 0.18287 0.0
N109 N 0.51949 0.89811 0.16536 0.0
C110 C 0.50853 0.89007 0.14857 0.0
C111 C 0.50236 0.90195 0.14135 0.0
C112 C 0.5197 0.91452 0.16831 0.0
N113 N 0.50932 0.91723 0.15389 0.0
C114 C 0.52951 0.86101 0.15354 0.0
C115 C 0.55326 0.88754 0.12499 0.0
C116 C 0.54345 0.86843 0.11921 0.0
C117 C 0.53177 0.85505 0.13397 0.0
C118 C 0.55058 0.89291 0.1447 0.0
N119 N 0.53892 0.87973 0.15885 0.0
H120 H 0.51904 0.85062 0.1638 0.0
H121 H 0.55673 0.90782 0.14778 0.0
H122 H 0.50489 0.87636 0.14234 0.0
H123 H 0.52708 0.92411 0.18099 0.0
O124 O 0.50599 0.86545 0.18755 0.0
O125 O 0.51832 0.89154 0.20662 0.0
O126 O 0.55455 0.91309 0.18466 0.0
C127 C 0.50417 0.8747 0.203 0.0
H128 H 0.56189 0.87799 0.24626 0.0
H129 H 0.49289 0.89921 0.1284 0.0
H130 H 0.56187 0.89847 0.1139 0.0
H131 H 0.52373 0.84014 0.13013 0.0
Co132 Co 0.6449 0.53478 0.18128 0.0
C133 C 0.68362 0.54601 0.1969 0.0
C134 C 0.66942 0.55702 0.21521 0.0
C135 C 0.68624 0.56176 0.22467 0.0
N136 N 0.66792 0.54758 0.19748 0.0
N137 N 0.69513 0.55478 0.21321 0.0
H138 H 0.68622 0.5379 0.18553 0.0
H139 H 0.65851 0.55941 0.22148 0.0
C140 C 0.65261 0.57466 0.1856 0.0
O141 O 0.6703 0.581 0.18019 0.0
N142 N 0.62162 0.52184 0.16597 0.0
C143 C 0.61784 0.51025 0.14961 0.0
C144 C 0.59931 0.50342 0.14381 0.0
C145 C 0.60549 0.52187 0.17005 0.0
N146 N 0.59159 0.51075 0.15669 0.0
C147 C 0.66868 0.5374 0.14688 0.0
C148 C 0.65931 0.55913 0.12216 0.0
C149 C 0.66974 0.55151 0.11341 0.0
C150 C 0.67483 0.54088 0.12621 0.0
C151 C 0.65331 0.55517 0.1427 0.0
N152 N 0.6581 0.54456 0.15499 0.0
H153 H 0.67119 0.52769 0.15578 0.0
H154 H 0.64359 0.55953 0.14807 0.0
H155 H 0.62782 0.50692 0.14249 0.0
H156 H 0.60389 0.52951 0.18287 0.0
O157 O 0.64514 0.5111 0.18311 0.0
O158 O 0.63191 0.52136 0.20586 0.0
O159 O 0.64076 0.55691 0.18543 0.0
C160 C 0.6355 0.50822 0.20019 0.0
H161 H 0.69096 0.56871 0.23955 0.0
H162 H 0.59216 0.49389 0.13102 0.0
H163 H 0.65499 0.56741 0.11294 0.0
H164 H 0.68242 0.53426 0.12 0.0
Co165 Co 0.11052 0.6469 0.18045 0.0
C166 C 0.13851 0.68599 0.19482 0.0
C167 C 0.11281 0.67318 0.21241 0.0
C168 C 0.12514 0.69014 0.22144 0.0
N169 N 0.12088 0.67072 0.19531 0.0
N170 N 0.14133 0.69818 0.21046 0.0
H171 H 0.14944 0.68768 0.18419 0.0
H172 H 0.09933 0.66274 0.21879 0.0
C173 C 0.07782 0.6539 0.18383 0.0
O174 O 0.0887 0.67128 0.17709 0.0
N175 N 0.10013 0.62289 0.16652 0.0
C176 C 0.10765 0.61866 0.15021 0.0
C177 C 0.09566 0.60007 0.14479 0.0
C178 C 0.08391 0.60692 0.17102 0.0
N179 N 0.08078 0.59275 0.15791 0.0
C180 C 0.13051 0.66979 0.14499 0.0
C181 C 0.09879 0.65734 0.1203 0.0
C182 C 0.11665 0.66824 0.11123 0.0
C183 C 0.13265 0.67492 0.12399 0.0
C184 C 0.09728 0.65251 0.14122 0.0
N185 N 0.11298 0.65873 0.15344 0.0
H186 H 0.14302 0.67349 0.15393 0.0
H187 H 0.08344 0.6425 0.14706 0.0
H188 H 0.12086 0.62843 0.14276 0.0
H189 H 0.07448 0.6058 0.18343 0.0
O190 O 0.1347 0.64771 0.18207 0.0
O191 O 0.1119 0.63534 0.20576 0.0
O192 O 0.08418 0.64246 0.18485 0.0
C193 C 0.12857 0.63898 0.19975 0.0
H194 H 0.12286 0.69547 0.23589 0.0
H195 H 0.09783 0.59248 0.13232 0.0
H196 H 0.08603 0.65177 0.11106 0.0
H197 H 0.14675 0.68295 0.11753 0.0
Co198 Co 0.88887 0.53588 0.32421 0.0
C199 C 0.86125 0.54688 0.30843 0.0
C200 C 0.88647 0.55788 0.29012 0.0
C201 C 0.87433 0.56247 0.28055 0.0
N202 N 0.87857 0.54855 0.30792 0.0
N203 N 0.85845 0.5555 0.29201 0.0
H204 H 0.85054 0.5388 0.31981 0.0
H205 H 0.89977 0.56026 0.28385 0.0
C206 C 0.92089 0.57577 0.31957 0.0
O207 O 0.90952 0.58203 0.32518 0.0
N208 N 0.8993 0.52307 0.33961 0.0
C209 C 0.89167 0.51178 0.35625 0.0
C210 C 0.90376 0.5056 0.36261 0.0
C211 C 0.91569 0.52348 0.33586 0.0
N212 N 0.91882 0.51296 0.34974 0.0
C213 C 0.86772 0.53867 0.35848 0.0
C214 C 0.89881 0.56048 0.38323 0.0
C215 C 0.88073 0.55298 0.3919 0.0
C216 C 0.86503 0.54229 0.37908 0.0
C217 C 0.90088 0.55643 0.36272 0.0
N218 N 0.88548 0.54577 0.35043 0.0
H219 H 0.85552 0.52892 0.34961 0.0
H220 H 0.91497 0.56078 0.35736 0.0
H221 H 0.87828 0.50831 0.36325 0.0
H222 H 0.92523 0.5315 0.32339 0.0
O223 O 0.86494 0.51218 0.32253 0.0
O224 O 0.88837 0.52238 0.29967 0.0
O225 O 0.91511 0.55805 0.3199 0.0
C226 C 0.87159 0.50935 0.30536 0.0
H227 H 0.87651 0.56928 0.26559 0.0
H228 H 0.90151 0.49622 0.37551 0.0
H229 H 0.91139 0.56876 0.39249 0.0
H230 H 0.85079 0.53574 0.38525 0.0
Co231 Co 0.34894 0.89126 0.33196 0.0
C232 C 0.31194 0.86275 0.31288 0.0
C233 C 0.32596 0.88912 0.29652 0.0
C234 C 0.3102 0.87684 0.28549 0.0
N235 N 0.32689 0.88055 0.31402 0.0
N236 N 0.3014 0.86024 0.29572 0.0
H237 H 0.30923 0.85159 0.32365 0.0
H238 H 0.33663 0.90308 0.2915 0.0
C239 C 0.33806 0.92113 0.3287 0.0
O240 O 0.3205 0.90828 0.33301 0.0
N241 N 0.37142 0.90228 0.34879 0.0
C242 C 0.37497 0.8949 0.36573 0.0
C243 C 0.39337 0.90692 0.37186 0.0
C244 C 0.38759 0.91844 0.34468 0.0
N245 N 0.40127 0.92164 0.35852 0.0
C246 C 0.32391 0.86656 0.36355 0.0
C247 C 0.32968 0.89489 0.3911 0.0
C248 C 0.31972 0.87604 0.3979 0.0
C249 C 0.31648 0.86176 0.38361 0.0
C250 C 0.3368 0.89906 0.37091 0.0
N251 N 0.33389 0.885 0.35729 0.0
H252 H 0.32289 0.85544 0.35368 0.0
H253 H 0.34601 0.91373 0.36694 0.0
H254 H 0.36505 0.88153 0.3728 0.0
H255 H 0.38931 0.9275 0.33163 0.0
O256 O 0.35073 0.86853 0.32893 0.0
O257 O 0.36399 0.89351 0.30813 0.0
O258 O 0.35112 0.91687 0.32938 0.0
C259 C 0.36119 0.8768 0.31273 0.0
H260 H 0.3062 0.87956 0.27043 0.0
H261 H 0.40057 0.90465 0.38467 0.0
H262 H 0.33319 0.90648 0.4017 0.0
H263 H 0.30901 0.84701 0.38813 0.0
Co264 Co 0.46252 0.35194 0.32624 0.0
C265 C 0.45216 0.31359 0.30992 0.0
C266 C 0.4399 0.32717 0.29263 0.0
C267 C 0.43558 0.31061 0.28278 0.0
N268 N 0.44987 0.32887 0.30999 0.0
N269 N 0.44334 0.3021 0.2936 0.0
H270 H 0.46086 0.31131 0.32076 0.0
H271 H 0.43691 0.33782 0.28681 0.0
C272 C 0.42226 0.34306 0.32337 0.0
O273 O 0.41664 0.3255 0.32874 0.0
N274 N 0.47529 0.37527 0.34149 0.0
C275 C 0.48664 0.3792 0.35812 0.0
C276 C 0.49305 0.39768 0.36392 0.0
C277 C 0.47509 0.39128 0.33719 0.0
N278 N 0.4858 0.40521 0.35069 0.0
C279 C 0.46097 0.32801 0.3599 0.0
C280 C 0.43965 0.33679 0.38607 0.0
C281 C 0.44731 0.32605 0.39389 0.0
C282 C 0.45784 0.3214 0.38037 0.0
C283 C 0.44313 0.34311 0.36557 0.0
N284 N 0.45352 0.33858 0.35258 0.0
H285 H 0.47056 0.32575 0.3505 0.0
H286 H 0.43864 0.3529 0.36076 0.0
H287 H 0.49008 0.36937 0.3654 0.0
H288 H 0.46717 0.39264 0.32451 0.0
O289 O 0.48644 0.35233 0.32365 0.0
O290 O 0.47526 0.36509 0.30141 0.0
O291 O 0.43987 0.35537 0.323 0.0
C292 C 0.4887 0.36177 0.30656 0.0
H293 H 0.42837 0.30587 0.26804 0.0
H294 H 0.50259 0.4051 0.37662 0.0
H295 H 0.43208 0.3414 0.39606 0.0
H296 H 0.46426 0.31335 0.38576 0.0
Co297 Co 0.1069 0.46167 0.3224 0.0
C298 C 0.13486 0.45195 0.30431 0.0
C299 C 0.10981 0.44235 0.28597 0.0
C300 C 0.12185 0.4381 0.27559 0.0
N301 N 0.1177 0.45063 0.30422 0.0
N302 N 0.13761 0.44418 0.28709 0.0
H303 H 0.14541 0.45891 0.31617 0.0
H304 H 0.09643 0.44018 0.28021 0.0
C305 C 0.07669 0.42125 0.31698 0.0
O306 O 0.08928 0.41613 0.321 0.0
N307 N 0.09588 0.47283 0.33961 0.0
C308 C 0.10325 0.48328 0.35688 0.0
C309 C 0.09104 0.48911 0.36383 0.0
C310 C 0.07955 0.47261 0.3361 0.0
N311 N 0.07621 0.48244 0.35068 0.0
C312 C 0.13022 0.45973 0.35464 0.0
C313 C 0.1007 0.43599 0.38036 0.0
C314 C 0.1192 0.44446 0.3881 0.0
C315 C 0.13411 0.45613 0.37474 0.0
C316 C 0.09744 0.43994 0.36022 0.0
N317 N 0.11208 0.45162 0.34747 0.0
H318 H 0.14177 0.47024 0.34551 0.0
H319 H 0.08297 0.43481 0.35567 0.0
H320 H 0.11666 0.48663 0.36374 0.0
H321 H 0.07035 0.46543 0.32308 0.0
O322 O 0.12997 0.48613 0.32067 0.0
O323 O 0.10565 0.47557 0.29904 0.0
O324 O 0.08117 0.43861 0.31847 0.0
C325 C 0.1223 0.48911 0.30443 0.0
H326 H 0.1196 0.4319 0.26027 0.0
H327 H 0.09317 0.49801 0.37717 0.0
H328 H 0.08866 0.42747 0.39026 0.0
H329 H 0.14864 0.46317 0.38005 0.0
Co330 Co 0.6433 0.10597 0.3215 0.0
C331 C 0.67985 0.13563 0.30268 0.0
C332 C 0.66476 0.11086 0.28378 0.0
C333 C 0.6805 0.12375 0.2731 0.0
N334 N 0.66449 0.11808 0.30252 0.0
N335 N 0.68996 0.13933 0.28495 0.0
H336 H 0.68336 0.14573 0.31505 0.0
H337 H 0.65383 0.09733 0.27797 0.0
C338 C 0.6557 0.0776 0.31404 0.0
O339 O 0.67337 0.09097 0.31681 0.0
N340 N 0.62173 0.09368 0.33963 0.0
C341 C 0.61885 0.10049 0.35744 0.0
C342 C 0.60116 0.08771 0.36487 0.0
C343 C 0.6058 0.07706 0.33628 0.0
N344 N 0.59296 0.07305 0.3515 0.0
C345 C 0.66819 0.13035 0.35332 0.0
C346 C 0.6668 0.10186 0.37771 0.0
C347 C 0.67494 0.12017 0.386 0.0
C348 C 0.67604 0.13462 0.37325 0.0
C349 C 0.65886 0.09814 0.35791 0.0
N350 N 0.6596 0.11227 0.34584 0.0
H351 H 0.66765 0.14137 0.34466 0.0
H352 H 0.65081 0.08355 0.35318 0.0
H353 H 0.62872 0.11398 0.3643 0.0
H354 H 0.60361 0.06824 0.32285 0.0
O355 O 0.64004 0.12798 0.32044 0.0
O356 O 0.62691 0.1035 0.29894 0.0
O357 O 0.64225 0.08105 0.31696 0.0
C358 C 0.62912 0.11977 0.30453 0.0
H359 H 0.68418 0.12214 0.2574 0.0
H360 H 0.59458 0.08942 0.37864 0.0
H361 H 0.66564 0.09019 0.38684 0.0
H362 H 0.68169 0.14889 0.37907 0.0
Co363 Co 0.53179 0.64427 0.32398 0.0
C364 C 0.54316 0.6835 0.30979 0.0
C365 C 0.55294 0.66919 0.28984 0.0
C366 C 0.55795 0.6864 0.28118 0.0
N367 N 0.54408 0.66749 0.30805 0.0
N368 N 0.55175 0.69535 0.29369 0.0
H369 H 0.53579 0.68623 0.32195 0.0
H370 H 0.55493 0.65825 0.28286 0.0
C371 C 0.5718 0.65285 0.31845 0.0
O372 O 0.57788 0.67045 0.3241 0.0
N373 N 0.5194 0.62081 0.33904 0.0
C374 C 0.50822 0.61674 0.35582 0.0
C375 C 0.50242 0.59845 0.36183 0.0
C376 C 0.52016 0.60507 0.3349 0.0
N377 N 0.50997 0.59114 0.34866 0.0
C378 C 0.53401 0.66726 0.35886 0.0
C379 C 0.55663 0.65857 0.38292 0.0
C380 C 0.54848 0.66838 0.39206 0.0
C381 C 0.53743 0.67315 0.37958 0.0
C382 C 0.55279 0.65289 0.36225 0.0
N383 N 0.54168 0.6573 0.35033 0.0
H384 H 0.52392 0.6694 0.35027 0.0
H385 H 0.55761 0.64364 0.3565 0.0
H386 H 0.50465 0.62643 0.36323 0.0
H387 H 0.52783 0.60383 0.32189 0.0
O388 O 0.50791 0.6441 0.32286 0.0
O389 O 0.51818 0.63144 0.29938 0.0
O390 O 0.55415 0.64068 0.31907 0.0
C391 C 0.50503 0.63484 0.30553 0.0
H392 H 0.56465 0.69145 0.26624 0.0
H393 H 0.49358 0.59127 0.37507 0.0
H394 H 0.56517 0.65446 0.39196 0.0
H395 H 0.53036 0.68018 0.38612 0.0
Co396 Co 0.54877 0.8927 0.83335 0.0
C397 C 0.55486 0.86537 0.80913 0.0
C398 C 0.58038 0.88708 0.82318 0.0
C399 C 0.58454 0.87511 0.81229 0.0
N400 N 0.56182 0.88098 0.82111 0.0
N401 N 0.56847 0.8615 0.80344 0.0
H402 H 0.54012 0.85676 0.80498 0.0
H403 H 0.59018 0.89935 0.83208 0.0
C404 C 0.57272 0.92539 0.8088 0.0
O405 O 0.58325 0.92848 0.82537 0.0
N406 N 0.53578 0.90443 0.84583 0.0
C407 C 0.51974 0.89545 0.85702 0.0
C408 C 0.51405 0.90819 0.86209 0.0
C409 C 0.5397 0.9225 0.84425 0.0
N410 N 0.52657 0.92519 0.85399 0.0
C411 C 0.53643 0.86281 0.86405 0.0
C412 C 0.56053 0.88713 0.89421 0.0
C413 C 0.54789 0.86823 0.89957 0.0
C414 C 0.53586 0.85592 0.88411 0.0
C415 C 0.56057 0.89339 0.87412 0.0
N416 N 0.54843 0.88141 0.85959 0.0
H417 H 0.52704 0.85334 0.85229 0.0
H418 H 0.56996 0.90808 0.87015 0.0
H419 H 0.51239 0.88053 0.86074 0.0
H420 H 0.55175 0.9334 0.836 0.0
O421 O 0.5236 0.87181 0.82315 0.0
O422 O 0.54039 0.89645 0.80522 0.0
O423 O 0.55617 0.91034 0.80821 0.0
C424 C 0.52473 0.88061 0.80653 0.0
H425 H 0.59836 0.87642 0.8109 0.0
H426 H 0.50127 0.90498 0.87039 0.0
H427 H 0.56986 0.89723 0.90563 0.0
H428 H 0.52604 0.84119 0.88752 0.0
Co429 Co 0.63998 0.53527 0.82555 0.0
C430 C 0.67774 0.5443 0.80876 0.0
C431 C 0.66432 0.55647 0.79103 0.0
C432 C 0.6805 0.55998 0.7809 0.0
N433 N 0.66277 0.54711 0.80883 0.0
N434 N 0.6889 0.55226 0.79199 0.0
H435 H 0.67992 0.53575 0.81992 0.0
H436 H 0.65374 0.5595 0.78507 0.0
C437 C 0.6491 0.57548 0.82064 0.0
O438 O 0.66673 0.58116 0.82576 0.0
N439 N 0.61685 0.52333 0.84123 0.0
C440 C 0.61263 0.51201 0.85792 0.0
C441 C 0.59433 0.50634 0.86388 0.0
C442 C 0.60124 0.52434 0.83714 0.0
N443 N 0.58724 0.51416 0.85079 0.0
C444 C 0.66428 0.538 0.85936 0.0
C445 C 0.65615 0.56063 0.88414 0.0
C446 C 0.6666 0.5529 0.89265 0.0
C447 C 0.67101 0.54178 0.87979 0.0
C448 C 0.64956 0.55635 0.8638 0.0
N449 N 0.65376 0.54532 0.85148 0.0
H450 H 0.66634 0.52799 0.8505 0.0
H451 H 0.63993 0.56091 0.8586 0.0
H452 H 0.62216 0.50817 0.86521 0.0
H453 H 0.60008 0.53207 0.82414 0.0
O454 O 0.63967 0.51135 0.82428 0.0
O455 O 0.62631 0.52134 0.80144 0.0
O456 O 0.63669 0.5579 0.82103 0.0
C457 C 0.62988 0.50821 0.8073 0.0
H458 H 0.68499 0.56649 0.76578 0.0
H459 H 0.58692 0.49732 0.87694 0.0
H460 H 0.65234 0.56928 0.8934 0.0
H461 H 0.67854 0.53503 0.88581 0.0
Co462 Co 0.1141 0.64661 0.8186 0.0
C463 C 0.145 0.68452 0.80549 0.0
C464 C 0.11822 0.67894 0.7937 0.0
C465 C 0.13201 0.69549 0.7851 0.0
N466 N 0.1262 0.67204 0.80682 0.0
N467 N 0.14887 0.69891 0.79237 0.0
H468 H 0.15578 0.68238 0.81259 0.0
H469 H 0.10364 0.67192 0.78905 0.0
C470 C 0.07886 0.65072 0.81608 0.0
O471 O 0.08551 0.66515 0.82889 0.0
N472 N 0.10227 0.62127 0.82969 0.0
C473 C 0.10896 0.61524 0.84522 0.0
C474 C 0.09642 0.59637 0.84867 0.0
C475 C 0.08588 0.60605 0.82375 0.0
N476 N 0.0819 0.5906 0.83518 0.0
C477 C 0.13109 0.66904 0.85506 0.0
C478 C 0.09896 0.65161 0.87946 0.0
C479 C 0.11618 0.66462 0.88874 0.0
C480 C 0.13232 0.67366 0.87613 0.0
C481 C 0.09837 0.64736 0.8584 0.0
N482 N 0.11429 0.65604 0.84641 0.0
H483 H 0.1439 0.67515 0.84604 0.0
H484 H 0.0852 0.6364 0.85193 0.0
H485 H 0.12192 0.62406 0.85364 0.0
H486 H 0.07716 0.60628 0.81125 0.0
O487 O 0.1381 0.64698 0.81901 0.0
O488 O 0.11782 0.63749 0.79269 0.0
O489 O 0.08838 0.64268 0.81164 0.0
C490 C 0.13361 0.63999 0.80033 0.0
H491 H 0.12984 0.70384 0.77356 0.0
H492 H 0.0977 0.58772 0.86055 0.0
H493 H 0.08608 0.64431 0.8885 0.0
H494 H 0.14602 0.68346 0.88265 0.0
Co495 Co 0.4681 0.10954 0.82572 0.0
C496 C 0.45734 0.13714 0.80965 0.0
C497 C 0.44412 0.11091 0.79304 0.0
C498 C 0.43993 0.12321 0.78313 0.0
N499 N 0.45461 0.11938 0.81005 0.0
N500 N 0.44832 0.13975 0.7935 0.0
H501 H 0.46667 0.1483 0.81999 0.0
H502 H 0.44086 0.09716 0.7873 0.0
C503 C 0.42829 0.07728 0.82366 0.0
O504 O 0.42251 0.08889 0.82985 0.0
N505 N 0.48183 0.09972 0.84046 0.0
C506 C 0.49424 0.10824 0.85601 0.0
C507 C 0.50153 0.09691 0.86166 0.0
C508 C 0.48177 0.08347 0.8367 0.0
N509 N 0.49369 0.08134 0.84949 0.0
C510 C 0.46523 0.13081 0.85999 0.0
C511 C 0.44562 0.09994 0.88579 0.0
C512 C 0.45214 0.11808 0.89391 0.0
C513 C 0.46176 0.13365 0.8806 0.0
C514 C 0.44947 0.09775 0.86525 0.0
N515 N 0.45892 0.11301 0.8524 0.0
H516 H 0.47418 0.14303 0.8507 0.0
H517 H 0.44586 0.08374 0.86019 0.0
H518 H 0.49789 0.12184 0.86259 0.0
H519 H 0.47316 0.07347 0.82485 0.0
O520 O 0.49136 0.13374 0.82313 0.0
O521 O 0.48102 0.11003 0.80068 0.0
O522 O 0.44598 0.08305 0.82237 0.0
C523 C 0.49399 0.12705 0.80587 0.0
H524 H 0.43252 0.12064 0.76851 0.0
H525 H 0.51211 0.10014 0.8735 0.0
H526 H 0.43823 0.08748 0.89546 0.0
H527 H 0.46758 0.14796 0.88636 0.0
Co528 Co 0.34723 0.4663 0.82308 0.0
C529 C 0.30832 0.4559 0.80953 0.0
C530 C 0.31924 0.44078 0.79284 0.0
C531 C 0.30222 0.4365 0.78428 0.0
N532 N 0.32294 0.45252 0.80913 0.0
N533 N 0.29537 0.44607 0.7947 0.0
H534 H 0.30774 0.46627 0.8194 0.0
H535 H 0.32892 0.43687 0.78623 0.0
C536 C 0.34384 0.42779 0.81729 0.0
O537 O 0.32757 0.41905 0.82711 0.0
N538 N 0.37159 0.48023 0.83629 0.0
C539 C 0.37602 0.49191 0.85268 0.0
C540 C 0.39467 0.49856 0.85775 0.0
C541 C 0.3875 0.47998 0.83147 0.0
N542 N 0.40185 0.491 0.84444 0.0
C543 C 0.32389 0.45932 0.85915 0.0
C544 C 0.33964 0.44208 0.88211 0.0
C545 C 0.32715 0.44668 0.89197 0.0
C546 C 0.31891 0.45503 0.88004 0.0
C547 C 0.34431 0.44672 0.86128 0.0
N548 N 0.33645 0.45519 0.84996 0.0
H549 H 0.31868 0.46723 0.85089 0.0
H550 H 0.35523 0.44456 0.85468 0.0
H551 H 0.36625 0.49507 0.86061 0.0
H552 H 0.38854 0.47194 0.81872 0.0
O553 O 0.34515 0.489 0.82422 0.0
O554 O 0.35754 0.48085 0.7983 0.0
O555 O 0.35299 0.44579 0.81568 0.0
C556 C 0.35352 0.49306 0.80619 0.0
H557 H 0.29615 0.42828 0.77033 0.0
H558 H 0.40219 0.50783 0.87061 0.0
H559 H 0.34638 0.43563 0.89062 0.0
H560 H 0.30962 0.45934 0.88706 0.0
Co561 Co 0.88517 0.3516 0.82052 0.0
C562 C 0.85587 0.31246 0.80723 0.0
C563 C 0.88111 0.32438 0.78888 0.0
C564 C 0.8683 0.30733 0.78039 0.0
N565 N 0.87366 0.32745 0.80612 0.0
N566 N 0.8524 0.29984 0.79186 0.0
H567 H 0.84531 0.3112 0.81813 0.0
H568 H 0.89456 0.33443 0.7821 0.0
C569 C 0.9166 0.34273 0.81679 0.0
O570 O 0.90518 0.32552 0.82366 0.0
N571 N 0.89687 0.37597 0.83383 0.0
C572 C 0.89036 0.3813 0.85015 0.0
C573 C 0.90297 0.40007 0.85432 0.0
C574 C 0.91313 0.39142 0.82816 0.0
N575 N 0.91728 0.4064 0.84048 0.0
C576 C 0.86497 0.32953 0.85618 0.0
C577 C 0.89649 0.33964 0.88049 0.0
C578 C 0.87853 0.32887 0.88943 0.0
C579 C 0.86263 0.32365 0.87689 0.0
C580 C 0.89819 0.34529 0.85978 0.0
N581 N 0.88256 0.33998 0.84769 0.0
H582 H 0.85258 0.32666 0.84744 0.0
H583 H 0.91216 0.35497 0.85395 0.0
H584 H 0.8774 0.37218 0.85842 0.0
H585 H 0.92152 0.39172 0.81503 0.0
O586 O 0.86154 0.35182 0.81939 0.0
O587 O 0.88378 0.36303 0.79504 0.0
O588 O 0.91099 0.35477 0.81576 0.0
C589 C 0.86743 0.36007 0.80146 0.0
H590 H 0.87007 0.30154 0.76601 0.0
H591 H 0.90176 0.40829 0.86677 0.0
H592 H 0.90918 0.34462 0.88974 0.0
H593 H 0.84847 0.31558 0.88318 0.0
Co594 Co 0.1018 0.46004 0.67526 0.0
C595 C 0.13078 0.45248 0.6945 0.0
C596 C 0.10468 0.4403 0.71132 0.0
C597 C 0.11727 0.4374 0.72249 0.0
N598 N 0.1129 0.44932 0.69348 0.0
N599 N 0.13371 0.44511 0.71197 0.0
H600 H 0.14173 0.46076 0.68345 0.0
H601 H 0.09077 0.43702 0.7165 0.0
C602 C 0.07195 0.41935 0.68009 0.0
O603 O 0.0847 0.4145 0.67591 0.0
N604 N 0.09039 0.47086 0.65812 0.0
C605 C 0.09784 0.48214 0.64145 0.0
C606 C 0.08511 0.48736 0.63459 0.0
C607 C 0.07345 0.46941 0.6613 0.0
N608 N 0.06979 0.47931 0.64711 0.0
C609 C 0.12558 0.45839 0.64346 0.0
C610 C 0.09655 0.43494 0.61707 0.0
C611 C 0.11521 0.44341 0.6098 0.0
C612 C 0.12985 0.45494 0.62349 0.0
C613 C 0.0929 0.43875 0.63713 0.0
N614 N 0.10731 0.45027 0.6502 0.0
H615 H 0.13697 0.46878 0.65282 0.0
H616 H 0.07836 0.43357 0.64142 0.0
H617 H 0.11159 0.48639 0.63489 0.0
H618 H 0.06428 0.46174 0.67416 0.0
O619 O 0.12463 0.48462 0.67699 0.0
O620 O 0.10031 0.47384 0.69864 0.0
O621 O 0.07627 0.43669 0.67903 0.0
C622 C 0.11693 0.48749 0.69325 0.0
H623 H 0.11488 0.43122 0.73782 0.0
H624 H 0.08699 0.49636 0.62142 0.0
H625 H 0.08472 0.42649 0.60689 0.0
H626 H 0.14448 0.46197 0.61853 0.0
Co627 Co 0.63979 0.11754 0.67016 0.0
C628 C 0.67752 0.14168 0.68957 0.0
C629 C 0.66221 0.1143 0.70358 0.0
C630 C 0.67827 0.12509 0.71501 0.0
N631 N 0.66191 0.12448 0.68724 0.0
N632 N 0.68786 0.14236 0.70627 0.0
H633 H 0.68063 0.15385 0.68023 0.0
H634 H 0.65081 0.10046 0.70793 0.0
C635 C 0.64253 0.08212 0.67076 0.0
O636 O 0.66061 0.09215 0.66619 0.0
N637 N 0.61749 0.11064 0.65397 0.0
C638 C 0.61572 0.12031 0.63803 0.0
C639 C 0.59742 0.11033 0.63074 0.0
C640 C 0.60037 0.09515 0.65639 0.0
N641 N 0.58784 0.09456 0.64236 0.0
C642 C 0.66711 0.13917 0.63826 0.0
C643 C 0.65442 0.10958 0.61035 0.0
C644 C 0.6681 0.1277 0.60385 0.0
C645 C 0.67477 0.14258 0.6182 0.0
C646 C 0.64725 0.10678 0.63044 0.0
N647 N 0.65369 0.12139 0.6443 0.0
H648 H 0.67105 0.15109 0.64832 0.0
H649 H 0.63553 0.09301 0.63425 0.0
H650 H 0.62695 0.13363 0.63212 0.0
H651 H 0.59727 0.08443 0.66803 0.0
O652 O 0.6428 0.14257 0.67426 0.0
O653 O 0.62664 0.11764 0.69464 0.0
O654 O 0.63248 0.09006 0.67183 0.0
C655 C 0.63229 0.13527 0.69071 0.0
H656 H 0.68182 0.12097 0.72954 0.0
H657 H 0.59158 0.11447 0.61806 0.0
H658 H 0.6487 0.09772 0.5997 0.0
H659 H 0.68493 0.15691 0.61358 0.0
Co660 Co 0.52774 0.64326 0.68242 0.0
C661 C 0.5401 0.68337 0.6952 0.0
C662 C 0.54844 0.66854 0.71627 0.0
C663 C 0.55435 0.68619 0.7242 0.0
N664 N 0.53992 0.66683 0.69784 0.0
N665 N 0.54912 0.6955 0.71099 0.0
H666 H 0.53348 0.68644 0.68251 0.0
H667 H 0.54984 0.65744 0.72373 0.0
C668 C 0.56789 0.65257 0.68801 0.0
O669 O 0.57356 0.67003 0.68214 0.0
N670 N 0.51554 0.61941 0.66801 0.0
C671 C 0.50438 0.61478 0.65113 0.0
C672 C 0.49901 0.59646 0.64559 0.0
C673 C 0.51665 0.60393 0.67271 0.0
N674 N 0.50673 0.5897 0.65921 0.0
C675 C 0.52992 0.66566 0.64699 0.0
C676 C 0.55259 0.65669 0.62341 0.0
C677 C 0.54462 0.66655 0.61401 0.0
C678 C 0.53349 0.67142 0.62623 0.0
C679 C 0.54861 0.65116 0.64412 0.0
N680 N 0.53753 0.65576 0.65581 0.0
H681 H 0.51985 0.66796 0.65544 0.0
H682 H 0.55339 0.64195 0.65013 0.0
H683 H 0.50054 0.62411 0.64334 0.0
H684 H 0.52483 0.60325 0.68554 0.0
O685 O 0.50381 0.64295 0.68309 0.0
O686 O 0.51411 0.63087 0.70723 0.0
O687 O 0.55033 0.6401 0.6877 0.0
C688 C 0.50094 0.63409 0.70069 0.0
H689 H 0.5612 0.69145 0.73904 0.0
H690 H 0.48999 0.58868 0.63267 0.0
H691 H 0.56116 0.65248 0.61457 0.0
H692 H 0.52655 0.6785 0.61949 0.0
Co693 Co 0.87968 0.52838 0.6803 0.0
C694 C 0.85211 0.53945 0.69583 0.0
C695 C 0.87711 0.55034 0.71446 0.0
C696 C 0.86484 0.55481 0.72391 0.0
N697 N 0.86945 0.54119 0.69651 0.0
N698 N 0.84909 0.5479 0.71226 0.0
H699 H 0.84147 0.53128 0.6844 0.0
H700 H 0.89018 0.55245 0.7211 0.0
C701 C 0.91353 0.56705 0.68792 0.0
O702 O 0.90435 0.57533 0.68098 0.0
N703 N 0.88998 0.51543 0.66489 0.0
C704 C 0.88248 0.50456 0.64795 0.0
C705 C 0.89439 0.49817 0.64158 0.0
C706 C 0.9062 0.51547 0.66873 0.0
N707 N 0.90931 0.50509 0.65464 0.0
C708 C 0.86162 0.53487 0.64546 0.0
C709 C 0.89436 0.55597 0.62282 0.0
C710 C 0.87691 0.55007 0.61313 0.0
C711 C 0.86039 0.53974 0.62492 0.0
C712 C 0.89495 0.55063 0.64322 0.0
N713 N 0.87874 0.54031 0.65445 0.0
H714 H 0.84871 0.52544 0.65348 0.0
H715 H 0.90847 0.5537 0.64936 0.0
H716 H 0.86937 0.50166 0.64064 0.0
H717 H 0.9154 0.5228 0.68169 0.0
O718 O 0.85504 0.50544 0.67947 0.0
O719 O 0.87671 0.51304 0.70406 0.0
O720 O 0.90604 0.54908 0.68715 0.0
C721 C 0.86019 0.50096 0.69671 0.0
H722 H 0.86678 0.56135 0.739 0.0
H723 H 0.89238 0.48942 0.62813 0.0
H724 H 0.90753 0.56398 0.61443 0.0
H725 H 0.84656 0.53437 0.61799 0.0
Co726 Co 0.36122 0.89416 0.68062 0.0
C727 C 0.328 0.86193 0.70202 0.0
C728 C 0.34519 0.88539 0.722 0.0
C729 C 0.3313 0.87131 0.73375 0.0
N730 N 0.34312 0.87964 0.70208 0.0
N731 N 0.32055 0.85656 0.72123 0.0
H732 H 0.32285 0.8529 0.68855 0.0
H733 H 0.35627 0.89892 0.72763 0.0
C734 C 0.34419 0.91735 0.69459 0.0
O735 O 0.32738 0.90205 0.6946 0.0
N736 N 0.37976 0.90891 0.65995 0.0
C737 C 0.38248 0.90311 0.64138 0.0
C738 C 0.39799 0.918 0.6321 0.0
C739 C 0.39356 0.92705 0.66185 0.0
N740 N 0.40496 0.933 0.64505 0.0
C741 C 0.33595 0.86793 0.65034 0.0
C742 C 0.33005 0.89399 0.62927 0.0
C743 C 0.32524 0.87684 0.61947 0.0
C744 C 0.3275 0.86336 0.63068 0.0
C745 C 0.33872 0.89812 0.64868 0.0
N746 N 0.34198 0.88535 0.65891 0.0
H747 H 0.33922 0.85806 0.65776 0.0
H748 H 0.34441 0.91237 0.65426 0.0
H749 H 0.37411 0.88895 0.63524 0.0
H750 H 0.39533 0.93558 0.67542 0.0
O751 O 0.36872 0.87497 0.67892 0.0
O752 O 0.38119 0.89976 0.69994 0.0
O753 O 0.35855 0.91673 0.68775 0.0
C754 C 0.38095 0.88461 0.6934 0.0
H755 H 0.32926 0.8719 0.75027 0.0
H756 H 0.40407 0.91757 0.61733 0.0
H757 H 0.32838 0.90478 0.62138 0.0
H758 H 0.32427 0.85001 0.6237 0.0
Co759 Co 0.46991 0.35457 0.68422 0.0
C760 C 0.45922 0.31586 0.69937 0.0
C761 C 0.44592 0.32846 0.71651 0.0
C762 C 0.44149 0.31165 0.7258 0.0
N763 N 0.4566 0.33096 0.69954 0.0
N764 N 0.44991 0.30374 0.71508 0.0
H765 H 0.46864 0.31426 0.68894 0.0
H766 H 0.44274 0.33881 0.72278 0.0
C767 C 0.43052 0.34895 0.68881 0.0
O768 O 0.42264 0.33181 0.68097 0.0
N769 N 0.48328 0.37837 0.6698 0.0
C770 C 0.4944 0.38243 0.65294 0.0
C771 C 0.50064 0.40093 0.64731 0.0
C772 C 0.48309 0.39435 0.6744 0.0
N773 N 0.49352 0.40836 0.66085 0.0
C774 C 0.46597 0.3307 0.6496 0.0
C775 C 0.44585 0.34198 0.62471 0.0
C776 C 0.45214 0.33029 0.61618 0.0
C777 C 0.46204 0.32438 0.62908 0.0
C778 C 0.45006 0.34794 0.64532 0.0
N779 N 0.45987 0.34218 0.65764 0.0
H780 H 0.47508 0.32739 0.65849 0.0
H781 H 0.44656 0.35829 0.65083 0.0
H782 H 0.49755 0.37258 0.64519 0.0
H783 H 0.47513 0.39555 0.68715 0.0
O784 O 0.49323 0.35359 0.68545 0.0
O785 O 0.48346 0.36657 0.70902 0.0
O786 O 0.44847 0.35946 0.68936 0.0
C787 C 0.49632 0.36274 0.70293 0.0
H788 H 0.43389 0.30639 0.74025 0.0
H789 H 0.50978 0.40834 0.63432 0.0
H790 H 0.43876 0.34748 0.61522 0.0
H791 H 0.46735 0.31551 0.62317 0.0
H792 H 0.48087 0.05704 0.12179 0.0
H793 H 0.48531 0.02958 0.1199 0.0
H794 H 0.47877 0.02291 0.18628 0.0
H795 H 0.47415 0.05023 0.18823 0.0
H796 H 0.51268 0.02462 0.13762 0.0
H797 H 0.4423 0.96987 0.16634 0.0
H798 H 0.44721 0.99312 0.15848 0.0
H799 H 0.45412 0.98949 0.1838 0.0
C800 C 0.48038 0.04971 0.13597 0.0
C801 C 0.47709 0.05574 0.15516 0.0
C802 C 0.48283 0.03399 0.13486 0.0
C803 C 0.48204 0.02401 0.15289 0.0
C804 C 0.47891 0.03008 0.17209 0.0
H805 H 0.50725 0.93722 0.18624 0.0
H806 H 0.50057 0.96324 0.18475 0.0
C807 C 0.47631 0.04572 0.1732 0.0
C808 C 0.4853 0.00774 0.15175 0.0
H809 H 0.46622 0.96117 0.16484 0.0
C810 C 0.50244 0.0107 0.14336 0.0
C811 C 0.47188 0.98958 0.1592 0.0
C812 C 0.45277 0.98524 0.16727 0.0
C813 C 0.50676 0.9961 0.14281 0.0
C814 C 0.49356 0.97813 0.15076 0.0
C815 C 0.47631 0.97505 0.15885 0.0
C816 C 0.49766 0.96246 0.15139 0.0
C817 C 0.5256 6e-05 0.13428 0.0
C818 C 0.4981 0.95341 0.13309 0.0
C819 C 0.50191 0.93853 0.13388 0.0
C820 C 0.50543 0.93257 0.15298 0.0
C821 C 0.50492 0.94169 0.17127 0.0
C822 C 0.50097 0.95645 0.17047 0.0
H823 H 0.53533 0.0154 0.13151 0.0
H824 H 0.53249 0.99479 0.14513 0.0
H825 H 0.52335 0.99246 0.11935 0.0
H826 H 0.49543 0.95782 0.11823 0.0
H827 H 0.50232 0.93183 0.11956 0.0
H828 H 0.57922 0.53385 0.17109 0.0
H829 H 0.54669 0.52766 0.17115 0.0
H830 H 0.52803 0.47376 0.14164 0.0
H831 H 0.56049 0.4797 0.14174 0.0
H832 H 0.51397 0.49592 0.12329 0.0
H833 H 0.50324 0.48934 0.20863 0.0
H834 H 0.52404 0.51055 0.20026 0.0
H835 H 0.52226 0.48796 0.196 0.0
C836 C 0.56819 0.52058 0.16484 0.0
C837 C 0.57246 0.50723 0.15651 0.0
C838 C 0.54962 0.51708 0.16487 0.0
C839 C 0.53498 0.50015 0.15665 0.0
C840 C 0.53917 0.48689 0.14809 0.0
H841 H 0.41445 0.45618 0.17146 0.0
H842 H 0.44633 0.46058 0.17092 0.0
C843 C 0.55774 0.49036 0.14807 0.0
C844 C 0.51532 0.49643 0.15665 0.0
H845 H 0.47948 0.49058 0.1886 0.0
C846 C 0.50637 0.49467 0.13755 0.0
C847 C 0.50545 0.4946 0.1753 0.0
C848 C 0.51413 0.49553 0.19624 0.0
C849 C 0.48785 0.49151 0.13659 0.0
C850 C 0.47821 0.49031 0.15524 0.0
C851 C 0.48702 0.49167 0.17435 0.0
C852 C 0.45893 0.48763 0.15528 0.0
C853 C 0.47869 0.48929 0.11567 0.0
C854 C 0.45556 0.5015 0.14685 0.0
C855 C 0.43739 0.4991 0.14724 0.0
C856 C 0.42228 0.48281 0.15618 0.0
C857 C 0.42578 0.46899 0.16469 0.0
C858 C 0.44396 0.47142 0.1643 0.0
H859 H 0.48606 0.48591 0.10336 0.0
H860 H 0.4636 0.47796 0.11605 0.0
H861 H 0.47928 0.50275 0.11142 0.0
H862 H 0.46704 0.51431 0.14021 0.0
H863 H 0.43527 0.51016 0.14088 0.0
H864 H 0.05989 0.57263 0.19091 0.0
H865 H 0.03262 0.54049 0.19053 0.0
H866 H 0.03788 0.53811 0.12418 0.0
H867 H 0.06524 0.57012 0.12451 0.0
H868 H -0.00121 0.52676 0.1708 0.0
H869 H 0.03583 0.48974 0.14253 0.0
H870 H 0.04835 0.51386 0.1517 0.0
H871 H 0.03883 0.50862 0.12582 0.0
C872 C 0.05521 0.56525 0.17625 0.0
C873 C 0.06477 0.57384 0.15775 0.0
C874 C 0.03969 0.54689 0.17606 0.0
C875 C 0.03345 0.53679 0.15738 0.0
C876 C 0.04279 0.54544 0.13885 0.0
H877 H 0.93746 0.42889 0.12216 0.0
H878 H 0.96487 0.46101 0.12295 0.0
C879 C 0.05839 0.56374 0.13905 0.0
C880 C 0.01683 0.51742 0.15721 0.0
H881 H 0.00216 0.47179 0.14314 0.0
C882 C -0.00045 0.51472 0.16488 0.0
C883 C 0.01788 0.50174 0.1495 0.0
C884 C 0.03626 0.50356 0.14211 0.0
C885 C 0.98321 0.49678 0.1647 0.0
C886 C 0.98425 0.48122 0.15673 0.0
C887 C 0.00148 0.48386 0.14912 0.0
C888 C 0.96758 0.46199 0.15635 0.0
C889 C 0.96486 0.4946 0.17271 0.0
C890 C 0.96021 0.45198 0.17488 0.0
C891 C 0.94464 0.43366 0.17447 0.0
C892 C 0.93614 0.4251 0.15552 0.0
C893 C 0.94358 0.43522 0.13699 0.0
C894 C 0.95926 0.45348 0.1374 0.0
H895 H 0.96567 0.50849 0.17494 0.0
H896 H 0.9531 0.48592 0.16184 0.0
H897 H 0.96143 0.48716 0.18786 0.0
H898 H 0.96659 0.45831 0.18963 0.0
H899 H 0.9391 0.4263 0.189 0.0
H900 H 0.06043 0.48773 0.38508 0.0
H901 H 0.0337 0.49345 0.38642 0.0
H902 H 0.02963 0.49017 0.31972 0.0
H903 H 0.05645 0.4847 0.31823 0.0
H904 H 0.02993 0.52309 0.34014 0.0
H905 H 0.977 0.45284 0.37225 0.0
H906 H -0.00039 0.46525 0.38501 0.0
H907 H -0.00184 0.45668 0.35907 0.0
C908 C 0.05388 0.48832 0.37071 0.0
C909 C 0.06047 0.48568 0.35155 0.0
C910 C 0.03856 0.49144 0.37152 0.0
C911 C 0.02966 0.49204 0.35317 0.0
C912 C 0.03629 0.48962 0.33403 0.0
H913 H 0.94011 0.51316 0.31749 0.0
H914 H 0.96751 0.5087 0.31903 0.0
C915 C 0.05151 0.48637 0.33322 0.0
C916 C 0.01357 0.49547 0.35385 0.0
H917 H 0.96699 0.47506 0.36708 0.0
C918 C 0.01615 0.51263 0.34604 0.0
C919 C 0.99574 0.48181 0.36169 0.0
C920 C 0.99229 0.46303 0.36989 0.0
C921 C 0.00128 0.51654 0.34591 0.0
C922 C 0.98327 0.50269 0.3533 0.0
C923 C 0.9808 0.48562 0.36138 0.0
C924 C 0.96671 0.50545 0.3524 0.0
C925 C 0.00507 0.53558 0.33815 0.0
C926 C 0.95683 0.50452 0.37057 0.0
C927 C 0.94107 0.50692 0.3697 0.0
C928 C 0.93491 0.51026 0.35063 0.0
C929 C 0.94473 0.51098 0.33244 0.0
C930 C 0.96041 0.50847 0.3333 0.0
H931 H 0.02036 0.54633 0.33899 0.0
H932 H 0.00065 0.53427 0.32168 0.0
H933 H 0.997 0.54075 0.34722 0.0
H934 H 0.96143 0.50211 0.38545 0.0
H935 H 0.93389 0.50645 0.38398 0.0
H936 H 0.42454 0.9371 0.39156 0.0
H937 H 0.45739 0.96312 0.39104 0.0
H938 H 0.45469 0.96655 0.32449 0.0
H939 H 0.42193 0.94071 0.32492 0.0
H940 H 0.48842 0.96549 0.37146 0.0
H941 H 0.47435 0.02102 0.34181 0.0
H942 H 0.45582 0.9986 0.35152 0.0
H943 H 0.46473 0.00041 0.32559 0.0
C944 C 0.43097 0.9434 0.37684 0.0
C945 C 0.42058 0.93697 0.35831 0.0
C946 C 0.4497 0.95829 0.37656 0.0
C947 C 0.45836 0.967 0.35777 0.0
C948 C 0.44812 0.96039 0.33923 0.0
H949 H 0.57017 0.05339 0.31936 0.0
H950 H 0.53762 0.02699 0.32141 0.0
C951 C 0.42939 0.94561 0.3395 0.0
C952 C 0.47825 0.98267 0.35745 0.0
H953 H 0.50654 0.02851 0.34208 0.0
C954 C 0.49238 0.97931 0.36519 0.0
C955 C 0.48336 0.00071 0.34927 0.0
C956 C 0.46876 0.0055 0.34176 0.0
C957 C 0.51154 0.99338 0.36451 0.0
C958 C 0.51664 0.01127 0.35603 0.0
C959 C 0.50254 0.0147 0.34844 0.0
C960 C 0.53655 0.02671 0.35494 0.0
C961 C 0.52626 0.98893 0.37244 0.0
C962 C 0.54665 0.03527 0.37312 0.0
C963 C 0.56523 0.05034 0.37199 0.0
C964 C 0.57404 0.05709 0.35266 0.0
C965 C 0.56389 0.04835 0.33448 0.0
C966 C 0.54527 0.03336 0.33562 0.0
H967 H 0.52041 0.97348 0.37458 0.0
H968 H 0.53845 0.99438 0.36161 0.0
H969 H 0.53161 0.99597 0.38765 0.0
H970 H 0.54006 0.03046 0.38817 0.0
H971 H 0.57273 0.05669 0.38625 0.0
H972 H 0.48641 0.42565 0.31741 0.0
H973 H 0.49129 0.45774 0.31752 0.0
H974 H 0.49687 0.45975 0.38414 0.0
H975 H 0.49219 0.4277 0.38408 0.0
H976 H 0.47026 0.47081 0.33594 0.0
H977 H 0.54347 0.50859 0.36687 0.0
H978 H 0.53237 0.48449 0.35768 0.0
H979 H 0.5271 0.48958 0.38316 0.0
C980 C 0.48865 0.43292 0.33208 0.0
C981 C 0.48896 0.4242 0.35074 0.0
C982 C 0.49151 0.45127 0.33211 0.0
C983 C 0.49471 0.46122 0.3508 0.0
C984 C 0.49489 0.4525 0.3695 0.0
H985 H 0.48165 0.55973 0.36704 0.0
H986 H 0.47804 0.52822 0.36803 0.0
C987 C 0.49218 0.43419 0.36945 0.0
C988 C 0.49723 0.48047 0.3507 0.0
H989 H 0.52763 0.52629 0.36451 0.0
C990 C 0.48283 0.48296 0.34212 0.0
C991 C 0.51374 0.49631 0.35856 0.0
C992 C 0.53014 0.4947 0.3669 0.0
C993 C 0.48441 0.50086 0.34133 0.0
C994 C 0.50064 0.5166 0.34982 0.0
C995 C 0.51512 0.51415 0.35822 0.0
C996 C 0.50305 0.53581 0.34973 0.0
C997 C 0.46887 0.5028 0.33101 0.0
C998 C 0.51866 0.55067 0.3397 0.0
C999 C 0.52097 0.56881 0.33943 0.0
C1000 C 0.5077 0.57245 0.34918 0.0
C1001 C 0.49221 0.55753 0.35946 0.0
C1002 C 0.48998 0.53942 0.35983 0.0
H1003 H 0.46028 0.49075 0.32043 0.0
H1004 H 0.45929 0.50301 0.34307 0.0
H1005 H 0.47476 0.51616 0.322 0.0
H1006 H 0.529 0.5482 0.33196 0.0
H1007 H 0.53327 0.57997 0.33172 0.0
H1008 H 0.48902 0.05721 0.81801 0.0
H1009 H 0.49538 0.03099 0.81893 0.0
H1010 H 0.51382 0.0443 0.88244 0.0
H1011 H 0.50719 0.07033 0.88186 0.0
H1012 H 0.53861 0.03828 0.85534 0.0
H1013 H 0.46354 0.98052 0.85135 0.0
H1014 H 0.47079 0.99856 0.8318 0.0
H1015 H 0.47027 0.00447 0.85852 0.0
C1016 C 0.4942 0.05447 0.83227 0.0
C1017 C 0.4975 0.06589 0.8499 0.0
C1018 C 0.49789 0.0395 0.83273 0.0
C1019 C 0.5049 0.03565 0.85081 0.0
C1020 C 0.50841 0.04709 0.86834 0.0
H1021 H 0.5088 0.93493 0.88278 0.0
H1022 H 0.50448 0.96245 0.88209 0.0
C1023 C 0.50468 0.06202 0.86793 0.0
C1024 C 0.50864 0.01971 0.85145 0.0
H1025 H 0.4869 0.97154 0.84936 0.0
C1026 C 0.52734 0.02368 0.85403 0.0
C1027 C 0.49384 0.00072 0.84994 0.0
C1028 C 0.47344 0.9957 0.84791 0.0
C1029 C 0.53166 0.00908 0.85493 0.0
C1030 C 0.5169 0.9901 0.85305 0.0
C1031 C 0.49819 0.98614 0.85067 0.0
C1032 C 0.52046 0.97404 0.85386 0.0
C1033 C 0.55191 0.01401 0.85822 0.0
C1034 C 0.53092 0.97151 0.83821 0.0
C1035 C 0.53331 0.95571 0.83847 0.0
C1036 C 0.5252 0.94212 0.85436 0.0
C1037 C 0.515 0.94494 0.87017 0.0
C1038 C 0.51259 0.9607 0.86987 0.0
H1039 H 0.56086 0.02877 0.86382 0.0
H1040 H 0.55274 0.00421 0.86957 0.0
H1041 H 0.55786 0.01257 0.8433 0.0
H1042 H 0.53683 0.9815 0.82552 0.0
H1043 H 0.54099 0.95386 0.82588 0.0
H1044 H 0.43373 0.52105 0.85958 0.0
H1045 H 0.46541 0.52495 0.86069 0.0
H1046 H 0.44443 0.47079 0.8309 0.0
H1047 H 0.41267 0.46664 0.82994 0.0
H1048 H 0.47668 0.50096 0.87995 0.0
H1049 H 0.49024 0.50726 0.79506 0.0
H1050 H 0.47161 0.50995 0.80669 0.0
H1051 H 0.46852 0.48676 0.80291 0.0
C1052 C 0.43581 0.50992 0.85334 0.0
C1053 C 0.42064 0.49355 0.84461 0.0
C1054 C 0.45394 0.51221 0.85391 0.0
C1055 C 0.45727 0.49826 0.84566 0.0
C1056 C 0.4422 0.48188 0.83699 0.0
H1057 H 0.55506 0.48466 0.86632 0.0
H1058 H 0.52336 0.48083 0.86582 0.0
C1059 C 0.42406 0.47956 0.83641 0.0
C1060 C 0.47645 0.50067 0.84656 0.0
H1061 H 0.51272 0.50502 0.81633 0.0
C1062 C 0.4846 0.50187 0.86607 0.0
C1063 C 0.48675 0.50203 0.82839 0.0
C1064 C 0.47895 0.50161 0.80705 0.0
C1065 C 0.50277 0.5042 0.8679 0.0
C1066 C 0.51289 0.50513 0.84973 0.0
C1067 C 0.50482 0.50414 0.83022 0.0
C1068 C 0.53209 0.50757 0.85058 0.0
C1069 C 0.51112 0.50598 0.88922 0.0
C1070 C 0.5474 0.52376 0.84196 0.0
C1071 C 0.5655 0.526 0.84224 0.0
C1072 C 0.56862 0.51202 0.85103 0.0
C1073 C 0.55321 0.49582 0.85971 0.0
C1074 C 0.53509 0.49359 0.85942 0.0
H1075 H 0.50346 0.50936 0.90117 0.0
H1076 H 0.51016 0.49236 0.8935 0.0
H1077 H 0.52627 0.51714 0.88945 0.0
H1078 H 0.54535 0.53471 0.83507 0.0
H1079 H 0.57706 0.53878 0.83571 0.0
H1080 H 0.95139 0.41629 0.82333 0.0
H1081 H 0.97908 0.44798 0.82136 0.0
H1082 H 0.94833 0.47082 0.85278 0.0
H1083 H 0.92042 0.43923 0.85455 0.0
H1084 H 0.9824 0.48171 0.80303 0.0
H1085 H 0.99717 0.48885 0.88773 0.0
H1086 H 0.98189 0.46633 0.87552 0.0
H1087 H 0.97344 0.48246 0.88053 0.0
C1088 C 0.95039 0.42803 0.82964 0.0
C1089 C 0.93363 0.42513 0.83917 0.0
C1090 C 0.96628 0.44613 0.82858 0.0
C1091 C 0.96579 0.46167 0.83712 0.0
C1092 C 0.94907 0.45894 0.8464 0.0
H1093 H 0.04713 0.58151 0.82058 0.0
H1094 H 0.01884 0.55009 0.81993 0.0
C1095 C 0.93315 0.44084 0.84745 0.0
C1096 C 0.98283 0.48073 0.83638 0.0
H1097 H 0.01592 0.51579 0.867 0.0
C1098 C 0.98975 0.4892 0.81699 0.0
C1099 C 0.99244 0.49031 0.85463 0.0
C1100 C 0.98601 0.48152 0.87581 0.0
C1101 C 0.006 0.50716 0.81538 0.0
C1102 C 0.01541 0.51688 0.83366 0.0
C1103 C 0.00857 0.50832 0.85303 0.0
C1104 C 0.03267 0.53579 0.83308 0.0
C1105 C 0.01318 0.51545 0.79416 0.0
C1106 C 0.04977 0.53816 0.84082 0.0
C1107 C 0.06596 0.55606 0.84115 0.0
C1108 C 0.06536 0.57201 0.83391 0.0
C1109 C 0.0482 0.56953 0.82599 0.0
C1110 C 0.032 0.55158 0.82563 0.0
H1111 H 0.00686 0.50457 0.78177 0.0
H1112 H 0.00942 0.52652 0.79098 0.0
H1113 H 0.02882 0.52218 0.7934 0.0
H1114 H 0.05056 0.52612 0.84663 0.0
H1115 H 0.07896 0.55736 0.84707 0.0
H1116 H 0.91048 0.47539 0.63737 0.0
H1117 H 0.9378 0.47078 0.6354 0.0
H1118 H 0.97185 0.52364 0.66737 0.0
H1119 H 0.9447 0.52849 0.66924 0.0
H1120 H 0.97355 0.49449 0.61701 0.0
H1121 H 0.9792 0.48512 0.70155 0.0
H1122 H 0.95837 0.48358 0.68992 0.0
H1123 H 0.9789 0.50629 0.69465 0.0
C1124 C 0.92379 0.4861 0.64387 0.0
C1125 C 0.92535 0.50227 0.65356 0.0
C1126 C 0.93936 0.4834 0.6428 0.0
C1127 C 0.95674 0.49675 0.65148 0.0
C1128 C 0.95844 0.51299 0.66096 0.0
H1129 H 0.06744 0.5089 0.63139 0.0
H1130 H 0.03965 0.51283 0.63141 0.0
C1131 C 0.94289 0.51571 0.66204 0.0
C1132 C 0.97315 0.49377 0.6504 0.0
H1133 H 0.0041 0.48764 0.68037 0.0
C1134 C 0.98023 0.49294 0.63084 0.0
C1135 C 0.98165 0.49157 0.66848 0.0
C1136 C 0.97407 0.4915 0.68985 0.0
C1137 C 0.99583 0.49023 0.62888 0.0
C1138 C 0.00463 0.48853 0.64698 0.0
C1139 C 0.99738 0.4891 0.66653 0.0
C1140 C 0.02125 0.48587 0.64605 0.0
C1141 C 0.00256 0.4889 0.60749 0.0
C1142 C 0.02013 0.4695 0.65446 0.0
C1143 C 0.03597 0.46723 0.65449 0.0
C1144 C 0.05327 0.48134 0.6462 0.0
C1145 C 0.05428 0.49766 0.6376 0.0
C1146 C 0.03842 0.49993 0.63761 0.0
H1147 H 0.99164 0.48587 0.59549 0.0
H1148 H 0.01531 0.50258 0.60355 0.0
H1149 H 0.00646 0.47768 0.60688 0.0
H1150 H 0.00699 0.45849 0.66105 0.0
H1151 H 0.03462 0.45438 0.66095 0.0
H1152 H 0.56441 0.07253 0.67282 0.0
H1153 H 0.53173 0.04687 0.66897 0.0
H1154 H 0.5342 0.05803 0.60335 0.0
H1155 H 0.5671 0.08359 0.60701 0.0
H1156 H 0.49958 0.04918 0.65062 0.0
H1157 H 0.51783 0.00037 0.60944 0.0
H1158 H 0.53499 0.02015 0.6246 0.0
H1159 H 0.52777 0.02416 0.59975 0.0
C1160 C 0.55806 0.06946 0.65755 0.0
C1161 C 0.56837 0.07998 0.64019 0.0
C1162 C 0.53937 0.05492 0.65541 0.0
C1163 C 0.5307 0.05054 0.63587 0.0
C1164 C 0.54077 0.06117 0.61852 0.0
H1165 H 0.42086 0.95042 0.60868 0.0
H1166 H 0.45047 0.98045 0.60421 0.0
C1167 C 0.55948 0.07582 0.62067 0.0
C1168 C 0.51119 0.03456 0.6338 0.0
H1169 H 0.48585 0.98872 0.61753 0.0
C1170 C 0.49649 0.03601 0.6432 0.0
C1171 C 0.5073 0.01752 0.62397 0.0
C1172 C 0.52275 0.01527 0.61392 0.0
C1173 C 0.47796 0.02061 0.64349 0.0
C1174 C 0.47423 0.00325 0.63456 0.0
C1175 C 0.48879 0.00206 0.62439 0.0
C1176 C 0.45575 0.98574 0.63709 0.0
C1177 C 0.46261 0.02303 0.65351 0.0
C1178 C 0.44905 0.97874 0.65703 0.0
C1179 C 0.43225 0.96162 0.65962 0.0
C1180 C 0.42187 0.95105 0.6423 0.0
C1181 C 0.4286 0.95814 0.62231 0.0
C1182 C 0.44543 0.97533 0.61973 0.0
H1183 H 0.4662 0.03808 0.65333 0.0
H1184 H 0.44882 0.01436 0.64559 0.0
H1185 H 0.46104 0.01845 0.66995 0.0
H1186 H 0.45708 0.98628 0.67062 0.0
H1187 H 0.42773 0.95641 0.67521 0.0
H1188 H 0.49872 0.43023 0.62713 0.0
H1189 H 0.50171 0.46164 0.62662 0.0
H1190 H 0.49629 0.46011 0.6932 0.0
H1191 H 0.49348 0.42882 0.69386 0.0
H1192 H 0.47345 0.47053 0.64456 0.0
H1193 H 0.54536 0.51187 0.67896 0.0
H1194 H 0.53702 0.48913 0.66672 0.0
H1195 H 0.52896 0.49045 0.69223 0.0
C1196 C 0.49841 0.43669 0.64167 0.0
C1197 C 0.49589 0.42707 0.66054 0.0
C1198 C 0.50001 0.45455 0.64134 0.0
C1199 C 0.49936 0.46319 0.65988 0.0
C1200 C 0.49699 0.45372 0.67875 0.0
H1201 H 0.50781 0.57002 0.69246 0.0
H1202 H 0.5055 0.53896 0.69226 0.0
C1203 C 0.49525 0.4358 0.67908 0.0
C1204 C 0.50055 0.48185 0.65947 0.0
H1205 H 0.5284 0.52799 0.67383 0.0
C1206 C 0.48547 0.48315 0.65085 0.0
C1207 C 0.51621 0.49816 0.66783 0.0
C1208 C 0.53291 0.49749 0.67685 0.0
C1209 C 0.48548 0.50035 0.65073 0.0
C1210 C 0.50124 0.51675 0.65896 0.0
C1211 C 0.51634 0.51541 0.66752 0.0
C1212 C 0.50233 0.53543 0.65896 0.0
C1213 C 0.46839 0.50065 0.64231 0.0
C1214 C 0.50149 0.54383 0.6403 0.0
C1215 C 0.50272 0.56153 0.6404 0.0
C1216 C 0.5051 0.57129 0.65913 0.0
C1217 C 0.50615 0.56293 0.67777 0.0
C1218 C 0.50477 0.54517 0.67768 0.0
H1219 H 0.45566 0.48629 0.64222 0.0
H1220 H 0.46521 0.51019 0.65157 0.0
H1221 H 0.47122 0.50588 0.62609 0.0
H1222 H 0.50012 0.53681 0.62562 0.0
H1223 H 0.50222 0.56776 0.62577 0.0
H1224 H 0.4712 0.29383 0.30093 0.0
H1225 H 0.47287 0.26662 0.28745 0.0
H1226 H 0.4185 0.24568 0.25821 0.0
H1227 H 0.41665 0.27264 0.27173 0.0
H1228 H 0.44771 0.22729 0.29271 0.0
H1229 H 0.45339 0.24879 0.21026 0.0
H1230 H 0.45733 0.26482 0.23146 0.0
H1231 H 0.43364 0.24797 0.22349 0.0
C1232 C 0.4595 0.28331 0.29187 0.0
C1233 C 0.44386 0.28546 0.28722 0.0
C1234 C 0.46054 0.26786 0.28406 0.0
C1235 C 0.44601 0.25443 0.27146 0.0
C1236 C 0.43009 0.25618 0.26745 0.0
H1237 H 0.41224 0.14049 0.23907 0.0
H1238 H 0.41621 0.17022 0.25259 0.0
C1239 C 0.42904 0.27157 0.27521 0.0
C1240 C 0.44724 0.23839 0.26257 0.0
H1241 H 0.44594 0.21692 0.21668 0.0
C1242 C 0.44753 0.2251 0.2761 0.0
C1243 C 0.44732 0.23578 0.24089 0.0
C1244 C 0.44809 0.25019 0.22566 0.0
C1245 C 0.44703 0.20876 0.26849 0.0
C1246 C 0.44594 0.20558 0.24683 0.0
C1247 C 0.44653 0.2193 0.23329 0.0
C1248 C 0.44341 0.18775 0.23802 0.0
C1249 C 0.44755 0.19497 0.28369 0.0
C1250 C 0.45705 0.18787 0.2247 0.0
C1251 C 0.45479 0.17087 0.2169 0.0
C1252 C 0.43879 0.15352 0.22225 0.0
C1253 C 0.42487 0.15359 0.23501 0.0
C1254 C 0.42714 0.17054 0.24277 0.0
H1255 H 0.45367 0.20183 0.29882 0.0
H1256 H 0.43291 0.18327 0.28653 0.0
H1257 H 0.45594 0.18877 0.27747 0.0
H1258 H 0.46964 0.20107 0.22073 0.0
H1259 H 0.46584 0.1713 0.20726 0.0
H1260 H 0.27079 0.41405 0.23498 0.0
H1261 H 0.24306 0.41545 0.2467 0.0
H1262 H 0.26419 0.46941 0.21629 0.0
H1263 H 0.29197 0.468 0.20442 0.0
H1264 H 0.24349 0.44278 0.27218 0.0
H1265 H 0.20925 0.43983 0.19672 0.0
H1266 H 0.22755 0.43371 0.19931 0.0
H1267 H 0.23361 0.45812 0.19862 0.0
C1268 C 0.26945 0.42614 0.23068 0.0
C1269 C 0.28353 0.44092 0.21881 0.0
C1270 C 0.25362 0.42692 0.23735 0.0
C1271 C 0.25153 0.44247 0.23226 0.0
C1272 C 0.26537 0.45711 0.22006 0.0
H1273 H 0.17398 0.47002 0.29642 0.0
H1274 H 0.20242 0.47034 0.28372 0.0
C1275 C 0.28121 0.45629 0.21327 0.0
C1276 C 0.23529 0.44364 0.24063 0.0
H1277 H 0.19592 0.4454 0.22663 0.0
C1278 C 0.23308 0.44337 0.26225 0.0
C1279 C 0.22171 0.44429 0.22759 0.0
C1280 C 0.22299 0.44384 0.20427 0.0
C1281 C 0.21754 0.44359 0.27121 0.0
C1282 C 0.20409 0.44445 0.25818 0.0
C1283 C 0.20636 0.44485 0.23657 0.0
C1284 C 0.18707 0.44412 0.26658 0.0
C1285 C 0.21539 0.44233 0.2945 0.0
C1286 C 0.16908 0.42938 0.26102 0.0
C1287 C 0.15289 0.42921 0.26818 0.0
C1288 C 0.15437 0.44381 0.281 0.0
C1289 C 0.17241 0.45844 0.28683 0.0
C1290 C 0.18865 0.45865 0.27957 0.0
H1291 H 0.22433 0.43723 0.30183 0.0
H1292 H 0.21979 0.45659 0.30083 0.0
H1293 H 0.20043 0.43269 0.299 0.0
H1294 H 0.16757 0.41801 0.25106 0.0
H1295 H 0.13918 0.41766 0.26363 0.0
H1296 H 0.81988 0.2967 0.20389 0.0
H1297 H 0.79024 0.27002 0.21677 0.0
H1298 H 0.82152 0.24641 0.24551 0.0
H1299 H 0.85108 0.27296 0.23273 0.0
H1300 H 0.77401 0.23132 0.21061 0.0
H1301 H 0.79053 0.24923 0.29369 0.0
H1302 H 0.8037 0.2656 0.27313 0.0
H1303 H 0.80872 0.24725 0.28027 0.0
C1304 C 0.8204 0.28571 0.21274 0.0
C1305 C 0.83782 0.287 0.21747 0.0
C1306 C 0.80349 0.27056 0.22021 0.0
C1307 C 0.80376 0.25651 0.23252 0.0
C1308 C 0.82105 0.2574 0.23656 0.0
H1309 H 0.71777 0.14301 0.25943 0.0
H1310 H 0.7446 0.17243 0.2468 0.0
C1311 C 0.83791 0.27253 0.22919 0.0
C1312 C 0.786 0.24073 0.241 0.0
H1313 H 0.76506 0.21805 0.28615 0.0
C1314 C 0.77194 0.22851 0.22713 0.0
C1315 C 0.7832 0.23732 0.26259 0.0
C1316 C 0.79725 0.25066 0.2783 0.0
C1317 C 0.7555 0.21246 0.23423 0.0
C1318 C 0.75328 0.20838 0.25573 0.0
C1319 C 0.76693 0.22107 0.26966 0.0
C1320 C 0.73727 0.19065 0.26394 0.0
C1321 C 0.74069 0.19999 0.21864 0.0
C1322 C 0.7247 0.19114 0.27845 0.0
C1323 C 0.70939 0.1743 0.28581 0.0
C1324 C 0.70645 0.15672 0.27879 0.0
C1325 C 0.71944 0.15633 0.26478 0.0
C1326 C 0.73474 0.17312 0.25751 0.0
H1327 H 0.74169 0.20786 0.2042 0.0
H1328 H 0.74287 0.18803 0.21444 0.0
H1329 H 0.72621 0.19407 0.22513 0.0
H1330 H 0.72653 0.20456 0.28374 0.0
H1331 H 0.69956 0.17505 0.29649 0.0
H1332 H 0.5758 0.85819 0.24443 0.0
H1333 H 0.57629 0.83035 0.25756 0.0
H1334 H 0.52386 0.79405 0.22579 0.0
H1335 H 0.5233 0.82187 0.21258 0.0
H1336 H 0.54962 0.80163 0.28246 0.0
H1337 H 0.55814 0.77363 0.20718 0.0
H1338 H 0.56202 0.79732 0.21 0.0
H1339 H 0.53836 0.77752 0.20819 0.0
C1340 C 0.56438 0.84428 0.24024 0.0
C1341 C 0.54953 0.84221 0.22744 0.0
C1342 C 0.5647 0.82841 0.24771 0.0
C1343 C 0.55021 0.81018 0.24248 0.0
C1344 C 0.53537 0.80802 0.22967 0.0
H1345 H 0.5254 0.70502 0.30344 0.0
H1346 H 0.52514 0.73358 0.29229 0.0
C1347 C 0.53508 0.82391 0.2221 0.0
C1348 C 0.55049 0.79348 0.25088 0.0
H1349 H 0.55233 0.75419 0.23671 0.0
C1350 C 0.55024 0.79124 0.27249 0.0
C1351 C 0.55149 0.78012 0.2378 0.0
C1352 C 0.5527 0.78229 0.21451 0.0
C1353 C 0.55087 0.77589 0.2814 0.0
C1354 C 0.55145 0.76232 0.2683 0.0
C1355 C 0.55178 0.7646 0.24669 0.0
C1356 C 0.55216 0.74579 0.27656 0.0
C1357 C 0.55132 0.77456 0.30471 0.0
C1358 C 0.5674 0.74323 0.27139 0.0
C1359 C 0.56752 0.72694 0.27764 0.0
C1360 C 0.55239 0.7129 0.28915 0.0
C1361 C 0.53738 0.71574 0.29485 0.0
C1362 C 0.53721 0.73202 0.28848 0.0
H1363 H 0.55561 0.78836 0.31228 0.0
H1364 H 0.53697 0.76414 0.31038 0.0
H1365 H 0.56122 0.7697 0.30962 0.0
H1366 H 0.57908 0.75371 0.26223 0.0
H1367 H 0.57935 0.7252 0.27324 0.0
H1368 H 0.72453 0.58195 0.23462 0.0
H1369 H 0.752 0.58078 0.2477 0.0
H1370 H 0.73169 0.52643 0.21852 0.0
H1371 H 0.70407 0.5275 0.20541 0.0
H1372 H 0.75059 0.55277 0.27426 0.0
H1373 H 0.78748 0.55717 0.20016 0.0
H1374 H 0.76925 0.56345 0.20208 0.0
H1375 H 0.763 0.53901 0.20137 0.0
C1376 C 0.72597 0.56979 0.23091 0.0
C1377 C 0.71214 0.5548 0.21904 0.0
C1378 C 0.74166 0.56916 0.23835 0.0
C1379 C 0.74388 0.55356 0.23401 0.0
C1380 C 0.73035 0.53873 0.22177 0.0
H1381 H 0.82226 0.52816 0.3 0.0
H1382 H 0.79348 0.52684 0.2868 0.0
C1383 C 0.71462 0.53938 0.21425 0.0
C1384 C 0.76001 0.55263 0.24309 0.0
H1385 H 0.80058 0.55257 0.23076 0.0
C1386 C 0.76151 0.55266 0.26479 0.0
C1387 C 0.77422 0.5526 0.23063 0.0
C1388 C 0.77358 0.55321 0.20726 0.0
C1389 C 0.77701 0.55285 0.27439 0.0
C1390 C 0.79119 0.55276 0.26193 0.0
C1391 C 0.78959 0.55254 0.24024 0.0
C1392 C 0.80832 0.55383 0.27101 0.0
C1393 C 0.77839 0.55372 0.29775 0.0
C1394 C 0.82611 0.56943 0.26651 0.0
C1395 C 0.84248 0.57021 0.27402 0.0
C1396 C 0.84141 0.55537 0.28609 0.0
C1397 C 0.82353 0.53993 0.291 0.0
C1398 C 0.80709 0.53913 0.28343 0.0
H1399 H 0.76846 0.55771 0.3048 0.0
H1400 H 0.77484 0.5396 0.30383 0.0
H1401 H 0.793 0.56406 0.30279 0.0
H1402 H 0.82731 0.58094 0.25702 0.0
H1403 H 0.85605 0.58237 0.2702 0.0
H1404 H 0.27318 0.85741 0.27147 0.0
H1405 H 0.24716 0.82862 0.25658 0.0
H1406 H 0.26703 0.79523 0.28798 0.0
H1407 H 0.2933 0.82409 0.30283 0.0
H1408 H 0.25042 0.802 0.23084 0.0
H1409 H 0.21022 0.76973 0.30347 0.0
H1410 H 0.22817 0.7944 0.30177 0.0
H1411 H 0.23486 0.77659 0.30372 0.0
C1412 C 0.27204 0.84396 0.27521 0.0
C1413 C 0.28533 0.84305 0.2883 0.0
C1414 C 0.25715 0.82753 0.26672 0.0
C1415 C 0.25517 0.80983 0.27124 0.0
C1416 C 0.26821 0.80876 0.28453 0.0
H1417 H 0.17734 0.70544 0.20462 0.0
H1418 H 0.20625 0.73252 0.21833 0.0
C1419 C 0.28316 0.82525 0.29306 0.0
C1420 C 0.23955 0.79263 0.26164 0.0
H1421 H 0.19807 0.75234 0.27259 0.0
C1422 C 0.23901 0.79104 0.23993 0.0
C1423 C 0.2247 0.7785 0.27361 0.0
C1424 C 0.22433 0.77984 0.29693 0.0
C1425 C 0.22381 0.77578 0.22982 0.0
C1426 C 0.20891 0.76172 0.24178 0.0
C1427 C 0.2096 0.76315 0.2635 0.0
C1428 C 0.19184 0.74599 0.23212 0.0
C1429 C 0.22346 0.77513 0.20643 0.0
C1430 C 0.17426 0.74472 0.23522 0.0
C1431 C 0.15782 0.72938 0.2274 0.0
C1432 C 0.15859 0.71491 0.21641 0.0
C1433 C 0.17631 0.71647 0.21277 0.0
C1434 C 0.19282 0.73189 0.22065 0.0
H1435 H 0.23428 0.78876 0.19949 0.0
H1436 H 0.22635 0.76389 0.20111 0.0
H1437 H 0.20931 0.77163 0.20051 0.0
H1438 H 0.17324 0.75553 0.24395 0.0
H1439 H 0.14441 0.72868 0.2302 0.0
H1440 H 0.58977 0.84461 0.8048 0.0
H1441 H 0.58522 0.81734 0.78458 0.0
H1442 H 0.53705 0.81495 0.75416 0.0
H1443 H 0.54181 0.84259 0.77394 0.0
H1444 H 0.55167 0.78138 0.78534 0.0
H1445 H 0.56887 0.81185 0.70574 0.0
H1446 H 0.57608 0.82645 0.72875 0.0
H1447 H 0.55197 0.8153 0.72014 0.0
C1448 C 0.57842 0.83853 0.79357 0.0
C1449 C 0.56616 0.84579 0.79102 0.0
C1450 C 0.57577 0.82288 0.7821 0.0
C1451 C 0.56092 0.81428 0.76775 0.0
C1452 C 0.54877 0.82157 0.76495 0.0
H1453 H 0.52457 0.70753 0.70091 0.0
H1454 H 0.5264 0.73712 0.71253 0.0
C1455 C 0.55138 0.83722 0.77645 0.0
C1456 C 0.5576 0.79697 0.75675 0.0
H1457 H 0.559 0.77935 0.70911 0.0
C1458 C 0.55318 0.78091 0.76866 0.0
C1459 C 0.55942 0.7964 0.73498 0.0
C1460 C 0.56447 0.81343 0.72158 0.0
C1461 C 0.5509 0.76437 0.75945 0.0
C1462 C 0.55335 0.76398 0.73779 0.0
C1463 C 0.55716 0.77979 0.72572 0.0
C1464 C 0.55335 0.74765 0.72795 0.0
C1465 C 0.54615 0.74747 0.77296 0.0
C1466 C 0.56821 0.74426 0.73217 0.0
C1467 C 0.5672 0.72752 0.72561 0.0
C1468 C 0.55133 0.71388 0.71465 0.0
C1469 C 0.53699 0.71785 0.70925 0.0
C1470 C 0.53798 0.73467 0.71591 0.0
H1471 H 0.54066 0.74854 0.78837 0.0
H1472 H 0.53547 0.73417 0.76533 0.0
H1473 H 0.55912 0.74655 0.77548 0.0
H1474 H 0.58026 0.75425 0.74127 0.0
H1475 H 0.57859 0.72496 0.72965 0.0
H1476 H 0.84615 0.57433 0.73432 0.0
H1477 H 0.81719 0.5722 0.7478 0.0
H1478 H 0.78401 0.51836 0.71732 0.0
H1479 H 0.81304 0.52035 0.70384 0.0
H1480 H 0.76953 0.54339 0.71323 0.0
H1481 H 0.78565 0.53606 0.79509 0.0
H1482 H 0.8045 0.55619 0.78223 0.0
H1483 H 0.79777 0.53272 0.77349 0.0
C1484 C 0.83269 0.56203 0.7305 0.0
C1485 C 0.83188 0.54743 0.71821 0.0
C1486 C 0.81618 0.56081 0.73824 0.0
C1487 C 0.79855 0.54492 0.73394 0.0
C1488 C 0.79755 0.53066 0.72094 0.0
H1489 H 0.69574 0.52351 0.79985 0.0
H1490 H 0.72167 0.51997 0.78572 0.0
C1491 C 0.81411 0.53188 0.71313 0.0
C1492 C 0.78124 0.54334 0.74312 0.0
H1493 H 0.76116 0.54352 0.78949 0.0
C1494 C 0.76757 0.54321 0.72989 0.0
C1495 C 0.7786 0.54276 0.76486 0.0
C1496 C 0.79231 0.54174 0.77976 0.0
C1497 C 0.75171 0.54343 0.73786 0.0
C1498 C 0.74969 0.54407 0.7596 0.0
C1499 C 0.76289 0.54327 0.77283 0.0
C1500 C 0.73444 0.54643 0.76884 0.0
C1501 C 0.73731 0.54312 0.72296 0.0
C1502 C 0.73347 0.56275 0.76456 0.0
C1503 C 0.71882 0.56486 0.77269 0.0
C1504 C 0.70491 0.55073 0.78535 0.0
C1505 C 0.70632 0.5347 0.79029 0.0
C1506 C 0.72102 0.53259 0.78211 0.0
H1507 H 0.73795 0.53722 0.70765 0.0
H1508 H 0.72275 0.53463 0.72925 0.0
H1509 H 0.74026 0.55781 0.72045 0.0
H1510 H 0.744 0.57383 0.75481 0.0
H1511 H 0.71829 0.57751 0.76895 0.0
H1512 H 0.2892 0.83384 0.6987 0.0
H1513 H 0.26088 0.80517 0.71096 0.0
H1514 H 0.28771 0.81046 0.77014 0.0
H1515 H 0.31587 0.83901 0.75805 0.0
H1516 H 0.25543 0.77053 0.72725 0.0
H1517 H 0.239 0.81036 0.78554 0.0
H1518 H 0.25593 0.82192 0.76496 0.0
H1519 H 0.26238 0.81364 0.78766 0.0
C1520 C 0.2891 0.82873 0.71422 0.0
C1521 C 0.3046 0.83881 0.72754 0.0
C1522 C 0.27293 0.81242 0.72122 0.0
C1523 C 0.27208 0.80598 0.74161 0.0
C1524 C 0.2879 0.81549 0.75454 0.0
H1525 H 0.18157 0.71574 0.81425 0.0
H1526 H 0.21258 0.74087 0.80204 0.0
C1527 C 0.30397 0.8318 0.74762 0.0
C1528 C 0.25451 0.78964 0.74961 0.0
H1529 H 0.22018 0.77697 0.78642 0.0
C1530 C 0.24769 0.77191 0.74016 0.0
C1531 C 0.24449 0.79153 0.76649 0.0
C1532 C 0.25069 0.81041 0.77666 0.0
C1533 C 0.23114 0.75595 0.74727 0.0
C1534 C 0.22111 0.75789 0.76407 0.0
C1535 C 0.22802 0.77555 0.77365 0.0
C1536 C 0.20278 0.74204 0.77119 0.0
C1537 C 0.22459 0.73711 0.73687 0.0
C1538 C 0.1871 0.73456 0.75793 0.0
C1539 C 0.16948 0.72035 0.76486 0.0
C1540 C 0.16718 0.71337 0.78523 0.0
C1541 C 0.18297 0.72077 0.79846 0.0
C1542 C 0.20063 0.73511 0.79153 0.0
H1543 H 0.23623 0.73692 0.72815 0.0
H1544 H 0.21887 0.72545 0.74843 0.0
H1545 H 0.21314 0.73434 0.72572 0.0
H1546 H 0.18842 0.73993 0.74229 0.0
H1547 H 0.15769 0.71477 0.75418 0.0
H1548 H 0.42232 0.14326 0.77107 0.0
H1549 H 0.42519 0.17239 0.75709 0.0
H1550 H 0.4796 0.20486 0.78656 0.0
H1551 H 0.47699 0.17571 0.80039 0.0
H1552 H 0.4547 0.21968 0.7916 0.0
H1553 H 0.46124 0.20386 0.70931 0.0
H1554 H 0.44123 0.18515 0.72252 0.0
H1555 H 0.46477 0.19165 0.73068 0.0
C1556 C 0.43495 0.15657 0.77449 0.0
C1557 C 0.44948 0.15712 0.7867 0.0
C1558 C 0.43658 0.17319 0.76648 0.0
C1559 C 0.45277 0.19068 0.77047 0.0
C1560 C 0.46705 0.19143 0.7832 0.0
H1561 H 0.47846 0.29633 0.70815 0.0
H1562 H 0.48053 0.26927 0.72135 0.0
C1563 C 0.46546 0.17477 0.79122 0.0
C1564 C 0.45457 0.20818 0.76152 0.0
H1565 H 0.45519 0.22919 0.71551 0.0
C1566 C 0.45499 0.22187 0.77498 0.0
C1567 C 0.45522 0.21108 0.73983 0.0
C1568 C 0.45578 0.19726 0.72471 0.0
C1569 C 0.45525 0.23807 0.76728 0.0
C1570 C 0.45488 0.24046 0.74559 0.0
C1571 C 0.45527 0.22718 0.73213 0.0
C1572 C 0.45332 0.2563 0.73668 0.0
C1573 C 0.4558 0.25244 0.78241 0.0
C1574 C 0.43709 0.25757 0.74041 0.0
C1575 C 0.4358 0.27286 0.73277 0.0
C1576 C 0.45069 0.28717 0.72121 0.0
C1577 C 0.46667 0.28549 0.71684 0.0
C1578 C 0.46794 0.27012 0.72449 0.0
H1579 H 0.46096 0.2511 0.79791 0.0
H1580 H 0.46504 0.26707 0.7766 0.0
H1581 H 0.4413 0.25017 0.78433 0.0
H1582 H 0.42547 0.24678 0.74938 0.0
H1583 H 0.42316 0.27354 0.73604 0.0
H1584 H 0.13747 0.42107 0.73761 0.0
H1585 H 0.16672 0.42503 0.75243 0.0
H1586 H 0.19888 0.47683 0.71797 0.0
H1587 H 0.16954 0.47313 0.70324 0.0
H1588 H 0.21327 0.45141 0.71631 0.0
H1589 H 0.19929 0.46449 0.79703 0.0
H1590 H 0.18008 0.44365 0.7856 0.0
H1591 H 0.18678 0.46653 0.77498 0.0
C1592 C 0.15073 0.43339 0.73329 0.0
C1593 C 0.15115 0.44687 0.7194 0.0
C1594 C 0.16742 0.43564 0.7418 0.0
C1595 C 0.18486 0.45143 0.73663 0.0
C1596 C 0.18548 0.46464 0.72227 0.0
H1597 H 0.29046 0.47648 0.79924 0.0
H1598 H 0.26424 0.47971 0.78543 0.0
C1599 C 0.16873 0.46241 0.71375 0.0
C1600 C 0.20242 0.45373 0.74593 0.0
H1601 H 0.22357 0.45648 0.79249 0.0
C1602 C 0.21568 0.45278 0.73293 0.0
C1603 C 0.2056 0.45577 0.76759 0.0
C1604 C 0.19228 0.45786 0.78212 0.0
C1605 C 0.2316 0.45284 0.74115 0.0
C1606 C 0.23414 0.45368 0.7629 0.0
C1607 C 0.22142 0.45562 0.77583 0.0
C1608 C 0.24935 0.45149 0.77247 0.0
C1609 C 0.24543 0.45171 0.72654 0.0
C1610 C 0.24922 0.43434 0.77035 0.0
C1611 C 0.264 0.4324 0.77835 0.0
C1612 C 0.27921 0.44756 0.78864 0.0
C1613 C 0.2789 0.46449 0.79153 0.0
C1614 C 0.26402 0.46642 0.78353 0.0
H1615 H 0.24425 0.45613 0.71057 0.0
H1616 H 0.2602 0.46074 0.73204 0.0
H1617 H 0.24243 0.43687 0.72585 0.0
H1618 H 0.23776 0.42253 0.76226 0.0
H1619 H 0.26367 0.41908 0.77624 0.0
H1620 H 0.69807 0.17944 0.70167 0.0
H1621 H 0.7253 0.20674 0.71739 0.0
H1622 H 0.74183 0.16968 0.74649 0.0
H1623 H 0.71483 0.14231 0.73059 0.0
H1624 H 0.74114 0.19753 0.77353 0.0
H1625 H 0.78162 0.22839 0.70073 0.0
H1626 H 0.75747 0.2232 0.70069 0.0
H1627 H 0.7625 0.2042 0.70237 0.0
C1628 C 0.70763 0.17707 0.71112 0.0
C1629 C 0.70427 0.15864 0.71479 0.0
C1630 C 0.72314 0.1927 0.72018 0.0
C1631 C 0.73559 0.19019 0.733 0.0
C1632 C 0.73232 0.17188 0.73669 0.0
H1633 H 0.84826 0.26857 0.77292 0.0
H1634 H 0.8189 0.24182 0.76003 0.0
C1635 C 0.71687 0.15626 0.72762 0.0
C1636 C 0.75203 0.20662 0.74268 0.0
H1637 H 0.79448 0.2457 0.73155 0.0
C1638 C 0.7528 0.20813 0.7644 0.0
C1639 C 0.7672 0.22029 0.73066 0.0
C1640 C 0.76734 0.21896 0.70732 0.0
C1641 C 0.76846 0.22298 0.77445 0.0
C1642 C 0.78361 0.23666 0.76241 0.0
C1643 C 0.78276 0.2352 0.7407 0.0
C1644 C 0.80096 0.25213 0.77194 0.0
C1645 C 0.76895 0.22366 0.79783 0.0
C1646 C 0.80054 0.26663 0.7832 0.0
C1647 C 0.81736 0.282 0.79057 0.0
C1648 C 0.83483 0.28312 0.78662 0.0
C1649 C 0.83505 0.26822 0.77594 0.0
C1650 C 0.8183 0.25292 0.76863 0.0
H1651 H 0.75787 0.21018 0.80481 0.0
H1652 H 0.783 0.22671 0.80366 0.0
H1653 H 0.76655 0.2352 0.80318 0.0
H1654 H 0.7873 0.26639 0.78567 0.0
H1655 H 0.81676 0.29337 0.79852 0.0
H1656 H 0.37912 0.0634 0.20463 0.0
H1657 H 0.36078 0.03724 0.22872 0.0
H1658 H 0.39949 0.01655 0.21905 0.0
H1659 H 0.41788 0.04256 0.19502 0.0
H1660 H 0.35871 0.98769 0.22114 0.0
H1661 H 0.38528 0.03875 0.28702 0.0
H1662 H 0.37429 0.04377 0.26565 0.0
H1663 H 0.39643 0.04457 0.26183 0.0
C1664 C 0.38346 0.05301 0.20722 0.0
C1665 C 0.40004 0.05512 0.19803 0.0
C1666 C 0.37304 0.03817 0.22111 0.0
C1667 C 0.37897 0.02518 0.22586 0.0
C1668 C 0.39475 0.02651 0.21563 0.0
H1669 H 0.37263 0.95233 0.32211 0.0
H1670 H 0.38006 0.97846 0.29834 0.0
C1671 C 0.40523 0.04138 0.20191 0.0
C1672 C 0.36976 0.01101 0.24256 0.0
H1673 H 0.3671 0.00645 0.29532 0.0
C1674 C 0.36023 0.99174 0.23735 0.0
C1675 C 0.37203 0.01643 0.26368 0.0
C1676 C 0.38264 0.03698 0.27004 0.0
C1677 C 0.35325 0.9777 0.25277 0.0
C1678 C 0.35583 0.98313 0.2739 0.0
C1679 C 0.36499 0.00239 0.2791 0.0
C1680 C 0.35088 0.96901 0.29065 0.0
C1681 C 0.34395 0.95718 0.24641 0.0
C1682 C 0.33197 0.95553 0.29486 0.0
C1683 C 0.32765 0.94061 0.30859 0.0
C1684 C 0.34222 0.93892 0.31816 0.0
C1685 C 0.3611 0.95319 0.31492 0.0
C1686 C 0.36537 0.96812 0.30133 0.0
H1687 H 0.34532 0.95549 0.22951 0.0
H1688 H 0.35027 0.9499 0.25501 0.0
H1689 H 0.32868 0.95001 0.25033 0.0
H1690 H 0.3206 0.95611 0.28689 0.0
H1691 H 0.31298 0.92984 0.3107 0.0
H1692 H 0.37665 0.42344 0.19398 0.0
H1693 H 0.38522 0.40522 0.21723 0.0
H1694 H 0.32633 0.3677 0.23124 0.0
H1695 H 0.31755 0.3857 0.20778 0.0
H1696 H 0.35525 0.38928 0.26675 0.0
H1697 H 0.37338 0.34719 0.2133 0.0
H1698 H 0.38146 0.37142 0.2062 0.0
H1699 H 0.35659 0.35463 0.20652 0.0
C1700 C 0.36548 0.41105 0.20163 0.0
C1701 C 0.34642 0.40599 0.19904 0.0
C1702 C 0.3704 0.40067 0.21489 0.0
C1703 C 0.35639 0.38516 0.22589 0.0
C1704 C 0.33731 0.3796 0.22278 0.0
H1705 H 0.38704 0.31893 0.30774 0.0
H1706 H 0.36776 0.32735 0.28596 0.0
C1707 C 0.33233 0.38983 0.20928 0.0
C1708 C 0.36193 0.37595 0.24194 0.0
H1709 H 0.38287 0.34915 0.24844 0.0
C1710 C 0.36103 0.38026 0.26283 0.0
C1711 C 0.36937 0.36418 0.23671 0.0
C1712 C 0.37021 0.35891 0.21448 0.0
C1713 C 0.36818 0.37374 0.27861 0.0
C1714 C 0.37645 0.36269 0.27328 0.0
C1715 C 0.37653 0.35765 0.25247 0.0
C1716 C 0.38654 0.35756 0.28874 0.0
C1717 C 0.36719 0.37902 0.3008 0.0
C1718 C 0.40327 0.37177 0.2978 0.0
C1719 C 0.41433 0.36703 0.31014 0.0
C1720 C 0.40884 0.34796 0.31368 0.0
C1721 C 0.39157 0.33374 0.30545 0.0
C1722 C 0.38059 0.33851 0.29292 0.0
H1723 H 0.35614 0.38302 0.30292 0.0
H1724 H 0.36421 0.36716 0.31146 0.0
H1725 H 0.38102 0.39135 0.30523 0.0
H1726 H 0.40824 0.38655 0.29453 0.0
H1727 H 0.42757 0.37831 0.31623 0.0
H1728 H 0.06688 0.38712 0.29903 0.0
H1729 H 0.03964 0.36831 0.27643 0.0
H1730 H 0.01886 0.40663 0.28849 0.0
H1731 H 0.04597 0.42551 0.31105 0.0
H1732 H 0.99033 0.36537 0.28771 0.0
H1733 H 0.03771 0.39221 0.2187 0.0
H1734 H 0.0442 0.38178 0.23942 0.0
H1735 H 0.04464 0.4037 0.24367 0.0
C1736 C 0.05629 0.3913 0.29726 0.0
C1737 C 0.05865 0.4079 0.30671 0.0
C1738 C 0.04081 0.38061 0.28424 0.0
C1739 C 0.02743 0.38627 0.28061 0.0
C1740 C 0.0291 0.4021 0.29106 0.0
H1741 H 0.94921 0.37781 0.19015 0.0
H1742 H 0.97631 0.3858 0.21257 0.0
C1743 C 0.0446 0.41286 0.30393 0.0
C1744 C 0.01245 0.37669 0.26481 0.0
H1745 H 0.00508 0.37352 0.21245 0.0
C1746 C 0.99351 0.36683 0.27125 0.0
C1747 C 0.01674 0.37888 0.24338 0.0
C1748 C 0.03689 0.38979 0.23572 0.0
C1749 C 0.97868 0.35946 0.25677 0.0
C1750 C 0.98296 0.362 0.23534 0.0
C1751 C 0.00191 0.37146 0.22889 0.0
C1752 C 0.96796 0.35675 0.2196 0.0
C1753 C 0.95851 0.34979 0.26444 0.0
C1754 C 0.9547 0.33772 0.21552 0.0
C1755 C 0.93922 0.33308 0.20255 0.0
C1756 C 0.93675 0.34742 0.19364 0.0
C1757 C 0.95067 0.36644 0.19686 0.0
C1758 C 0.96617 0.37104 0.20966 0.0
H1759 H 0.95766 0.351 0.28152 0.0
H1760 H 0.95063 0.35596 0.25683 0.0
H1761 H 0.95137 0.33455 0.26033 0.0
H1762 H 0.95597 0.32651 0.22294 0.0
H1763 H 0.92871 0.31831 0.20044 0.0
H1764 H 0.60643 0.92633 0.20181 0.0
H1765 H 0.62688 0.95426 0.22279 0.0
H1766 H 0.58945 0.97628 0.21175 0.0
H1767 H 0.56901 0.94855 0.19072 0.0
H1768 H 0.6297 0.00406 0.21075 0.0
H1769 H 0.60691 0.95843 0.28124 0.0
H1770 H 0.61682 0.95163 0.26029 0.0
H1771 H 0.59452 0.9506 0.25686 0.0
C1772 C 0.60279 0.93732 0.20342 0.0
C1773 C 0.58599 0.93513 0.19477 0.0
C1774 C 0.61443 0.9532 0.21554 0.0
C1775 C 0.60947 0.96712 0.21908 0.0
C1776 C 0.59345 0.96562 0.20927 0.0
H1777 H 0.6212 0.04568 0.31043 0.0
H1778 H 0.61291 0.01836 0.28828 0.0
C1779 C 0.58178 0.94975 0.19726 0.0
C1780 C 0.61993 0.98251 0.23426 0.0
H1781 H 0.62599 0.99118 0.28634 0.0
C1782 C 0.62921 0.00129 0.22726 0.0
C1783 C 0.61901 0.97875 0.25579 0.0
C1784 C 0.6087 0.9588 0.26414 0.0
C1785 C 0.63716 0.01649 0.24129 0.0
C1786 C 0.63588 0.01274 0.26283 0.0
C1787 C 0.62708 0.99395 0.2698 0.0
C1788 C 0.64162 0.02805 0.2783 0.0
C1789 C 0.646 0.03644 0.23304 0.0
C1790 C 0.66062 0.04218 0.28064 0.0
C1791 C 0.66545 0.05782 0.29341 0.0
C1792 C 0.6513 0.05958 0.30392 0.0
C1793 C 0.63242 0.04481 0.30246 0.0
C1794 C 0.62765 0.02918 0.28982 0.0
H1795 H 0.64344 0.03678 0.21616 0.0
H1796 H 0.64033 0.04444 0.24138 0.0
H1797 H 0.66151 0.04382 0.23566 0.0
H1798 H 0.67162 0.04141 0.27206 0.0
H1799 H 0.68011 0.06896 0.29418 0.0
H1800 H 0.60784 0.67652 0.30429 0.0
H1801 H 0.62631 0.66812 0.28104 0.0
H1802 H 0.58292 0.60941 0.2844 0.0
H1803 H 0.56441 0.61752 0.30759 0.0
H1804 H 0.63354 0.63036 0.28711 0.0
H1805 H 0.59365 0.63557 0.21975 0.0
H1806 H 0.59863 0.6502 0.24255 0.0
H1807 H 0.58113 0.62558 0.24366 0.0
C1808 C 0.60243 0.66176 0.30048 0.0
C1809 C 0.58459 0.6477 0.30768 0.0
C1810 C 0.61298 0.65703 0.28715 0.0
C1811 C 0.60584 0.6382 0.28096 0.0
C1812 C 0.58858 0.62403 0.28901 0.0
H1813 H 0.61692 0.56672 0.19546 0.0
H1814 H 0.60793 0.58539 0.21717 0.0
C1815 C 0.57804 0.62871 0.30226 0.0
C1816 C 0.61552 0.63324 0.26492 0.0
H1817 H 0.61273 0.62188 0.21362 0.0
C1818 C 0.62932 0.62881 0.27096 0.0
C1819 C 0.6098 0.6312 0.24396 0.0
C1820 C 0.59504 0.63593 0.23691 0.0
C1821 C 0.637 0.62153 0.25662 0.0
C1822 C 0.63083 0.61891 0.23572 0.0
C1823 C 0.61751 0.62402 0.2296 0.0
C1824 C 0.63643 0.60894 0.22058 0.0
C1825 C 0.65084 0.61572 0.26418 0.0
C1826 C 0.65538 0.61632 0.21462 0.0
C1827 C 0.6606 0.60564 0.20215 0.0
C1828 C 0.64693 0.58743 0.19547 0.0
C1829 C 0.62783 0.58062 0.20047 0.0
C1830 C 0.62265 0.59129 0.21287 0.0
H1831 H 0.65158 0.61562 0.28138 0.0
H1832 H 0.64689 0.60141 0.25832 0.0
H1833 H 0.66517 0.62584 0.2582 0.0
H1834 H 0.66618 0.63009 0.2201 0.0
H1835 H 0.67543 0.61131 0.19854 0.0
H1836 H 0.93375 0.61197 0.30559 0.0
H1837 H 0.9604 0.63007 0.28193 0.0
H1838 H 0.97486 0.58608 0.28483 0.0
H1839 H 0.94846 0.56795 0.30844 0.0
H1840 H 0.00493 0.63753 0.28652 0.0
H1841 H 0.95863 0.59545 0.22083 0.0
H1842 H 0.94934 0.60047 0.24391 0.0
H1843 H 0.95694 0.58334 0.24481 0.0
C1844 C 0.94288 0.60636 0.30161 0.0
C1845 C 0.93889 0.58844 0.30877 0.0
C1846 C 0.95804 0.6167 0.28805 0.0
C1847 C 0.96938 0.60926 0.28157 0.0
C1848 C 0.96615 0.59196 0.28965 0.0
H1849 H 0.05061 0.61851 0.19544 0.0
H1850 H 0.02338 0.61004 0.21769 0.0
C1851 C 0.95106 0.58164 0.30315 0.0
C1852 C 0.98369 0.6186 0.26512 0.0
H1853 H 0.99134 0.61431 0.21389 0.0
C1854 C 0.00197 0.63278 0.27054 0.0
C1855 C 0.97964 0.61221 0.24439 0.0
C1856 C 0.96007 0.59709 0.23795 0.0
C1857 C 0.01665 0.64017 0.25583 0.0
C1858 C 0.01276 0.6333 0.23519 0.0
C1859 C 0.99425 0.61962 0.22967 0.0
C1860 C 0.02805 0.63852 0.21979 0.0
C1861 C 0.03641 0.65445 0.26274 0.0
C1862 C 0.0393 0.65725 0.21292 0.0
C1863 C 0.05495 0.66217 0.20011 0.0
C1864 C 0.05955 0.64841 0.19402 0.0
C1865 C 0.04756 0.62949 0.19997 0.0
C1866 C 0.03196 0.6246 0.21268 0.0
H1867 H 0.03757 0.65586 0.2799 0.0
H1868 H 0.04675 0.65042 0.25707 0.0
H1869 H 0.04038 0.6685 0.2561 0.0
H1870 H 0.03629 0.66814 0.21793 0.0
H1871 H 0.06389 0.67687 0.19579 0.0
H1872 H 0.55632 0.92261 0.77079 0.0
H1873 H 0.56734 0.94672 0.74345 0.0
H1874 H 0.61557 0.98387 0.78094 0.0
H1875 H 0.6046 0.96007 0.80832 0.0
H1876 H 0.59479 0.00038 0.76527 0.0
H1877 H 0.61335 0.96487 0.70352 0.0
H1878 H 0.59018 0.95124 0.71478 0.0
H1879 H 0.61072 0.95774 0.73041 0.0
C1880 C 0.56927 0.93589 0.77318 0.0
C1881 C 0.5795 0.93945 0.79178 0.0
C1882 C 0.57564 0.94958 0.75747 0.0
C1883 C 0.59237 0.96699 0.76011 0.0
C1884 C 0.60267 0.97048 0.77857 0.0
H1885 H 0.66119 0.06345 0.68231 0.0
H1886 H 0.64798 0.03374 0.70183 0.0
C1887 C 0.59636 0.95684 0.79421 0.0
C1888 C 0.5987 0.98212 0.74429 0.0
H1889 H 0.61601 0.99435 0.69498 0.0
C1890 C 0.59936 -0.00096 0.74987 0.0
C1891 C 0.6048 0.98034 0.72431 0.0
C1892 C 0.60491 0.96264 0.71783 0.0
C1893 C 0.60599 0.01429 0.73604 0.0
C1894 C 0.6119 0.01248 0.71596 0.0
C1895 C 0.6113 0.99558 0.71033 0.0
C1896 C 0.61922 0.02837 0.70102 0.0
C1897 C 0.60702 0.0324 0.74316 0.0
C1898 C 0.60727 0.03467 0.69337 0.0
C1899 C 0.61475 0.0516 0.68228 0.0
C1900 C 0.63433 0.06251 0.67859 0.0
C1901 C 0.64607 0.0554 0.68491 0.0
C1902 C 0.63855 0.03844 0.69607 0.0
H1903 H 0.6056 0.0328 0.76027 0.0
H1904 H 0.6206 0.04489 0.73837 0.0
H1905 H 0.59535 0.03362 0.73589 0.0
H1906 H 0.59227 0.02693 0.69682 0.0
H1907 H 0.60527 0.05656 0.67744 0.0
H1908 H 0.67297 0.60926 0.80193 0.0
H1909 H 0.66401 0.62791 0.77975 0.0
H1910 H 0.60521 0.58987 0.79377 0.0
H1911 H 0.61398 0.57106 0.81576 0.0
H1912 H 0.63746 0.6093 0.74425 0.0
H1913 H 0.61384 0.64534 0.79979 0.0
H1914 H 0.6302 0.63745 0.80687 0.0
H1915 H 0.60536 0.6207 0.80487 0.0
C1916 C 0.65817 0.60516 0.80073 0.0
C1917 C 0.64416 0.58869 0.81057 0.0
C1918 C 0.65309 0.61577 0.78797 0.0
C1919 C 0.63398 0.61028 0.78523 0.0
C1920 C 0.62005 0.59442 0.79588 0.0
H1921 H 0.56317 0.61752 0.69484 0.0
H1922 H 0.58253 0.60948 0.71682 0.0
C1923 C 0.62508 0.58368 0.8084 0.0
C1924 C 0.62831 0.61984 0.76972 0.0
H1925 H 0.60469 0.64421 0.76445 0.0
C1926 C 0.63057 0.61721 0.74862 0.0
C1927 C 0.61941 0.63017 0.77553 0.0
C1928 C 0.61714 0.63376 0.79799 0.0
C1929 C 0.6233 0.62389 0.73314 0.0
C1930 C 0.61358 0.63341 0.73898 0.0
C1931 C 0.61214 0.63685 0.76005 0.0
C1932 C 0.60343 0.63854 0.72364 0.0
C1933 C 0.62565 0.62035 0.71068 0.0
C1934 C 0.60897 0.65755 0.71998 0.0
C1935 C 0.59803 0.66222 0.70725 0.0
C1936 C 0.58119 0.64789 0.69833 0.0
C1937 C 0.57607 0.62887 0.70148 0.0
C1938 C 0.58713 0.62425 0.71398 0.0
H1939 H 0.63707 0.61688 0.70855 0.0
H1940 H 0.61223 0.60823 0.70492 0.0
H1941 H 0.62888 0.6329 0.70105 0.0
H1942 H 0.62147 0.66876 0.72743 0.0
H1943 H 0.60224 0.67699 0.70527 0.0
H1944 H 0.07629 0.64476 0.77485 0.0
H1945 H 0.04908 0.63515 0.75253 0.0
H1946 H 0.0161 0.63437 0.80529 0.0
H1947 H 0.0442 0.64571 0.82758 0.0
H1948 H 0.01937 0.60392 0.75297 0.0
H1949 H -0.00213 0.65772 0.76433 0.0
H1950 H 0.02009 0.66099 0.77383 0.0
H1951 H -0.00139 0.64702 0.78832 0.0
C1952 C 0.06337 0.64299 0.78166 0.0
C1953 C 0.06232 0.64603 0.80293 0.0
C1954 C 0.04776 0.63741 0.76887 0.0
C1955 C 0.03044 0.63407 0.77709 0.0
C1956 C 0.02938 0.63732 0.79839 0.0
H1957 H 0.92661 0.55342 0.71797 0.0
H1958 H 0.95463 0.5707 0.73931 0.0
C1959 C 0.04535 0.64361 0.81117 0.0
C1960 C 0.01341 0.62548 0.7635 0.0
H1961 H 0.97543 0.62901 0.74732 0.0
C1962 C 0.00994 0.60962 0.75163 0.0
C1963 C 0.00112 0.63294 0.76143 0.0
C1964 C 0.00471 0.65072 0.77249 0.0
C1965 C 0.99466 0.60101 0.73789 0.0
C1966 C 0.98171 0.60771 0.73677 0.0
C1967 C 0.98523 0.62373 0.74836 0.0
C1968 C 0.96411 0.5977 0.72428 0.0
C1969 C 0.99288 0.58504 0.72444 0.0
C1970 C 0.95949 0.60729 0.70935 0.0
C1971 C 0.94304 0.59745 0.69735 0.0
C1972 C 0.93116 0.57785 0.69997 0.0
C1973 C 0.93571 0.56843 0.71517 0.0
C1974 C 0.9518 0.57829 0.72739 0.0
H1975 H 0.0069 0.58635 0.72159 0.0
H1976 H 0.98397 0.57137 0.7325 0.0
H1977 H 0.98633 0.58465 0.70922 0.0
H1978 H 0.9687 0.62232 0.70682 0.0
H1979 H 0.93974 0.60508 0.6859 0.0
H1980 H 0.39148 0.06441 0.81253 0.0
H1981 H 0.37082 0.03583 0.7926 0.0
H1982 H 0.4138 0.0199 0.79381 0.0
H1983 H 0.43452 0.04835 0.81369 0.0
H1984 H 0.38123 0.0284 0.75296 0.0
H1985 H 0.36466 0.97037 0.80859 0.0
H1986 H 0.37289 0.99444 0.81675 0.0
H1987 H 0.38939 0.9877 0.8073 0.0
C1988 C 0.39637 0.0546 0.80898 0.0
C1989 C 0.41466 0.05867 0.81467 0.0
C1990 C 0.38456 0.03833 0.79752 0.0
C1991 C 0.39073 0.02571 0.79187 0.0
C1992 C 0.40865 0.02931 0.79829 0.0
H1993 H 0.3752 0.95267 0.69248 0.0
H1994 H 0.38305 0.97939 0.71541 0.0
C1995 C 0.42051 0.04563 0.80958 0.0
C1996 C 0.37935 0.00973 0.77763 0.0
H1997 H 0.36027 0.962 0.77251 0.0
C1998 C 0.37633 0.01383 0.75732 0.0
C1999 C 0.37282 0.99075 0.78341 0.0
C2000 C 0.37493 0.98548 0.80526 0.0
C2001 C 0.36792 -0.00047 0.74229 0.0
C2002 C 0.36252 0.98072 0.74772 0.0
C2003 C 0.36453 0.97647 0.76834 0.0
C2004 C 0.35643 0.96556 0.73197 0.0
C2005 C 0.36527 0.00472 0.72059 0.0
C2006 C 0.33874 0.94898 0.7335 0.0
C2007 C 0.33416 0.93366 0.72031 0.0
C2008 C 0.34735 0.93458 0.70564 0.0
C2009 C 0.36472 0.95152 0.70359 0.0
C2010 C 0.3692 0.96685 0.71664 0.0
H2011 H 0.36481 0.0181 0.72041 0.0
H2012 H 0.37735 0.00681 0.71082 0.0
H2013 H 0.35205 0.9933 0.71354 0.0
H2014 H 0.32874 0.94769 0.74533 0.0
H2015 H 0.32073 0.92076 0.72239 0.0
H2016 H 0.34206 0.39386 0.82577 0.0
H2017 H 0.35485 0.3779 0.80421 0.0
H2018 H 0.37068 0.421 0.75734 0.0
H2019 H 0.35938 0.43749 0.77921 0.0
H2020 H 0.34845 0.36242 0.7667 0.0
H2021 H 0.42027 0.42485 0.76676 0.0
H2022 H 0.40173 0.42347 0.78308 0.0
H2023 H 0.40375 0.43105 0.75644 0.0
C2024 C 0.34839 0.39988 0.8109 0.0
C2025 C 0.35014 0.41709 0.80434 0.0
C2026 C 0.3556 0.39076 0.79857 0.0
C2027 C 0.36428 0.39859 0.77941 0.0
C2028 C 0.36479 0.41509 0.77239 0.0
H2029 H 0.39422 0.34208 0.68239 0.0
H2030 H 0.37682 0.35304 0.70417 0.0
C2031 C 0.35821 0.42445 0.78489 0.0
C2032 C 0.37337 0.39008 0.76684 0.0
H2033 H 0.41398 0.40174 0.74059 0.0
C2034 C 0.36287 0.3709 0.76118 0.0
C2035 C 0.39231 0.40106 0.75993 0.0
C2036 C 0.4052 0.42117 0.76708 0.0
C2037 C 0.37071 0.36252 0.74851 0.0
C2038 C 0.38927 0.37386 0.74059 0.0
C2039 C 0.3997 0.393 0.7464 0.0
C2040 C 0.39892 0.36626 0.72737 0.0
C2041 C 0.35917 0.34156 0.74426 0.0
C2042 C 0.41729 0.37049 0.73268 0.0
C2043 C 0.42744 0.36511 0.71983 0.0
C2044 C 0.41932 0.35478 0.7016 0.0
C2045 C 0.40075 0.35 0.69641 0.0
C2046 C 0.39074 0.35604 0.709 0.0
H2047 H 0.34817 0.33415 0.75634 0.0
H2048 H 0.35185 0.33927 0.72914 0.0
H2049 H 0.36825 0.33503 0.7436 0.0
H2050 H 0.42395 0.37821 0.74676 0.0
H2051 H 0.44167 0.36886 0.7244 0.0
H2052 H 0.04071 0.42279 0.68564 0.0
H2053 H 0.01402 0.40402 0.70874 0.0
H2054 H 0.03615 0.36699 0.72184 0.0
H2055 H 0.06298 0.3857 0.69869 0.0
H2056 H 0.98612 0.36247 0.71119 0.0
H2057 H 0.03493 0.39265 0.77871 0.0
H2058 H 0.04108 0.40331 0.75328 0.0
H2059 H 0.0413 0.38181 0.75832 0.0
C2060 C 0.03971 0.41042 0.69307 0.0
C2061 C 0.05404 0.40582 0.69046 0.0
C2062 C 0.02445 0.39971 0.70626 0.0
C2063 C 0.02331 0.38432 0.71718 0.0
C2064 C 0.03692 0.37895 0.71365 0.0
H2065 H 0.9272 0.31814 0.80137 0.0
H2066 H 0.95404 0.32595 0.7783 0.0
C2067 C 0.05216 0.38958 0.70031 0.0
C2068 C 0.00872 0.37505 0.73345 0.0
H2069 H 0.0025 0.37381 0.78595 0.0
C2070 C 0.98966 0.36462 0.72755 0.0
C2071 C 0.01348 0.37813 0.75474 0.0
C2072 C 0.03378 0.38966 0.7618 0.0
C2073 C 0.97516 0.35756 0.74243 0.0
C2074 C 0.97991 0.36103 0.7637 0.0
C2075 C -0.00102 0.37105 0.76962 0.0
C2076 C 0.96521 0.35618 0.77972 0.0
C2077 C 0.95482 0.34723 0.73533 0.0
C2078 C 0.96312 0.37066 0.78872 0.0
C2079 C 0.94786 0.36628 0.80182 0.0
C2080 C 0.93449 0.34732 0.80629 0.0
C2081 C 0.9373 0.33288 0.7983 0.0
C2082 C 0.95253 0.33729 0.78501 0.0
H2083 H 0.95354 0.3475 0.7182 0.0
H2084 H 0.94797 0.33225 0.74043 0.0
H2085 H 0.94694 0.35361 0.74249 0.0
H2086 H 0.97282 0.38533 0.78486 0.0
H2087 H 0.94612 0.37772 0.8078 0.0
H2088 H 0.48328 0.12035 0.24337 0.0
H2089 H 0.51191 0.12997 0.26372 0.0
H2090 H 0.54526 0.14797 0.20764 0.0
H2091 H 0.51664 0.13929 0.18742 0.0
H2092 H 0.52985 0.1119 0.25945 0.0
H2093 H 0.58171 0.18748 0.24653 0.0
H2094 H 0.55702 0.17729 0.23989 0.0
H2095 H 0.57308 0.17516 0.22243 0.0
C2096 C 0.49685 0.127 0.23553 0.0
C2097 C 0.49787 0.12907 0.21391 0.0
C2098 C 0.51319 0.13249 0.24714 0.0
C2099 C 0.53082 0.13974 0.23728 0.0
C2100 C 0.53197 0.14286 0.21573 0.0
H2101 H 0.61357 0.11055 0.26623 0.0
H2102 H 0.59163 0.11904 0.25059 0.0
C2103 C 0.5156 0.13779 0.20414 0.0
C2104 C 0.547 0.14071 0.24888 0.0
H2105 H 0.59457 0.16776 0.25776 0.0
C2106 C 0.54388 0.12431 0.25939 0.0
C2107 C 0.56538 0.15685 0.24889 0.0
C2108 C 0.56945 0.17524 0.239 0.0
C2109 C 0.55864 0.12333 0.26917 0.0
C2110 C 0.57717 0.139 0.26806 0.0
C2111 C 0.58033 0.15572 0.25835 0.0
C2112 C 0.59332 0.13735 0.27572 0.0
C2113 C 0.55438 0.1053 0.2802 0.0
C2114 C 0.6021 0.14551 0.29466 0.0
C2115 C 0.61478 0.14073 0.30365 0.0
C2116 C 0.61861 0.12763 0.29384 0.0
C2117 C 0.6107 0.12051 0.27426 0.0
C2118 C 0.59824 0.1254 0.26525 0.0
H2119 H 0.53908 0.09636 0.28378 0.0
H2120 H 0.55858 0.09699 0.27012 0.0
H2121 H 0.56252 0.10846 0.29489 0.0
H2122 H 0.59838 0.15472 0.30296 0.0
H2123 H 0.6207 0.14641 0.31876 0.0
H2124 H 0.46927 0.61516 0.32092 0.0
H2125 H 0.44063 0.59463 0.30081 0.0
H2126 H 0.47213 0.61642 0.244 0.0
H2127 H 0.50091 0.63605 0.26408 0.0
H2128 H 0.41824 0.59585 0.26896 0.0
H2129 H 0.45894 0.56174 0.24283 0.0
H2130 H 0.46752 0.57958 0.26276 0.0
H2131 H 0.46963 0.58623 0.23585 0.0
C2132 C 0.46986 0.61593 0.30414 0.0
C2133 C 0.48719 0.62693 0.29395 0.0
C2134 C 0.45354 0.60421 0.29266 0.0
C2135 C 0.4544 0.60363 0.27092 0.0
C2136 C 0.47129 0.61628 0.26077 0.0
H2137 H 0.36976 0.52112 0.18505 0.0
H2138 H 0.39001 0.55175 0.20214 0.0
C2139 C 0.48767 0.62755 0.27221 0.0
C2140 C 0.43866 0.58807 0.25919 0.0
H2141 H 0.42816 0.5492 0.22982 0.0
C2142 C 0.42042 0.58575 0.26023 0.0
C2143 C 0.44148 0.57469 0.24808 0.0
C2144 C 0.46038 0.57552 0.24743 0.0
C2145 C 0.40493 0.57032 0.2505 0.0
C2146 C 0.40788 0.55709 0.23949 0.0
C2147 C 0.4261 0.55959 0.23813 0.0
C2148 C 0.39221 0.5394 0.23093 0.0
C2149 C 0.38542 0.56778 0.25254 0.0
C2150 C 0.38647 0.52247 0.24169 0.0
C2151 C 0.37519 0.50512 0.23198 0.0
C2152 C 0.36939 0.50438 0.21133 0.0
C2153 C 0.37396 0.52132 0.20103 0.0
C2154 C 0.38547 0.53879 0.21075 0.0
H2155 H 0.38549 0.57957 0.26123 0.0
H2156 H 0.37932 0.56683 0.2369 0.0
H2157 H 0.37605 0.55427 0.26071 0.0
H2158 H 0.39169 0.52271 0.25721 0.0
H2159 H 0.37177 0.49227 0.24033 0.0
H2160 H 0.86964 0.50626 0.26368 0.0
H2161 H 0.85977 0.47756 0.24335 0.0
H2162 H 0.84294 0.4444 0.29958 0.0
H2163 H 0.85194 0.47312 0.31984 0.0
H2164 H 0.87839 0.45987 0.24756 0.0
H2165 H 0.80291 0.40769 0.26093 0.0
H2166 H 0.81304 0.43242 0.26742 0.0
H2167 H 0.81558 0.41657 0.28481 0.0
C2168 C 0.86315 0.49272 0.27157 0.0
C2169 C 0.86153 0.49179 0.29325 0.0
C2170 C 0.85753 0.47633 0.25997 0.0
C2171 C 0.85058 0.45875 0.26987 0.0
C2172 C 0.84783 0.45767 0.29148 0.0
H2173 H 0.87868 0.37545 0.23794 0.0
H2174 H 0.86942 0.39621 0.25514 0.0
C2175 C 0.85305 0.47408 0.30308 0.0
C2176 C 0.84962 0.44261 0.25815 0.0
H2177 H 0.82246 0.39515 0.24847 0.0
C2178 C 0.86598 0.44584 0.24748 0.0
C2179 C 0.8335 0.42422 0.25802 0.0
C2180 C 0.81521 0.42005 0.26824 0.0
C2181 C 0.86688 0.43119 0.23728 0.0
C2182 C 0.85115 0.41268 0.23805 0.0
C2183 C 0.83453 0.40939 0.24809 0.0
C2184 C 0.85262 0.39668 0.22948 0.0
C2185 C 0.88488 0.43553 0.22614 0.0
C2186 C 0.84555 0.38947 0.20968 0.0
C2187 C 0.85078 0.37748 0.19978 0.0
C2188 C 0.86328 0.3728 0.20956 0.0
C2189 C 0.86916 0.37897 0.22996 0.0
C2190 C 0.86382 0.39075 0.23986 0.0
H2191 H 0.89429 0.45096 0.2236 0.0
H2192 H 0.8927 0.43029 0.23555 0.0
H2193 H 0.88164 0.42824 0.21089 0.0
H2194 H 0.83699 0.39405 0.20141 0.0
H2195 H 0.84609 0.37295 0.18402 0.0
H2196 H 0.35994 0.84285 0.31909 0.0
H2197 H 0.37808 0.83091 0.30037 0.0
H2198 H 0.40179 0.88019 0.26088 0.0
H2199 H 0.38356 0.89185 0.27896 0.0
H2200 H 0.3924 0.84757 0.23929 0.0
H2201 H 0.43477 0.8541 0.30982 0.0
H2202 H 0.40958 0.8387 0.31123 0.0
H2203 H 0.41922 0.86379 0.30884 0.0
C2204 C 0.36886 0.85097 0.30624 0.0
C2205 C 0.37049 0.86838 0.30063 0.0
C2206 C 0.37926 0.84419 0.29564 0.0
C2207 C 0.39149 0.85481 0.27942 0.0
C2208 C 0.39244 0.87175 0.27332 0.0
H2209 H 0.4971 0.89225 0.23453 0.0
H2210 H 0.46763 0.8814 0.25329 0.0
C2211 C 0.38206 0.87845 0.28377 0.0
C2212 C 0.40447 0.84943 0.26944 0.0
H2213 H 0.44616 0.85037 0.27804 0.0
C2214 C 0.40394 0.84769 0.24775 0.0
C2215 C 0.41947 0.84958 0.2806 0.0
C2216 C 0.42098 0.85173 0.30389 0.0
C2217 C 0.41884 0.84784 0.23675 0.0
C2218 C 0.43446 0.8493 0.24785 0.0
C2219 C 0.43416 0.84928 0.26962 0.0
C2220 C 0.45258 0.85449 0.23736 0.0
C2221 C 0.41849 0.84808 0.21335 0.0
C2222 C 0.45405 0.84281 0.22236 0.0
C2223 C 0.47098 0.84911 0.21136 0.0
C2224 C 0.48665 0.8671 0.21538 0.0
C2225 C 0.48529 0.87836 0.23098 0.0
C2226 C 0.46844 0.87213 0.24181 0.0
H2227 H 0.40649 0.84941 0.20724 0.0
H2228 H 0.43188 0.86002 0.20724 0.0
H2229 H 0.41712 0.83473 0.20729 0.0
H2230 H 0.44206 0.82901 0.21892 0.0
H2231 H 0.47169 0.84008 0.19951 0.0
H2232 H 0.62484 0.47283 0.1853 0.0
H2233 H 0.60351 0.44272 0.20274 0.0
H2234 H 0.6056 0.47313 0.25826 0.0
H2235 H 0.62653 0.50309 0.24094 0.0
H2236 H 0.60235 0.42487 0.24745 0.0
H2237 H 0.55009 0.44784 0.23039 0.0
H2238 H 0.57235 0.45734 0.21682 0.0
H2239 H 0.57164 0.46522 0.24264 0.0
C2240 C 0.62127 0.473 0.20145 0.0
C2241 C 0.6271 0.49023 0.21173 0.0
C2242 C 0.60912 0.45582 0.21138 0.0
C2243 C 0.60294 0.4558 0.2317 0.0
C2244 C 0.61023 0.47291 0.24256 0.0
H2245 H 0.52501 0.37593 0.32015 0.0
H2246 H 0.55383 0.3959 0.30015 0.0
C2247 C 0.62212 0.49 0.23262 0.0
C2248 C 0.58648 0.43871 0.24035 0.0
H2249 H 0.54014 0.42157 0.25251 0.0
C2250 C 0.58865 0.42395 0.24841 0.0
C2251 C 0.56864 0.43753 0.2413 0.0
C2252 C 0.56539 0.45273 0.2322 0.0
C2253 C 0.5734 0.40817 0.25801 0.0
C2254 C 0.55575 0.40742 0.25977 0.0
C2255 C 0.55362 0.42205 0.25117 0.0
C2256 C 0.53924 0.39213 0.27093 0.0
C2257 C 0.5763 0.39247 0.26605 0.0
C2258 C 0.52147 0.38309 0.26118 0.0
C2259 C 0.50507 0.37216 0.27267 0.0
C2260 C 0.50611 0.36975 0.29408 0.0
C2261 C 0.52391 0.37744 0.3036 0.0
C2262 C 0.54038 0.38876 0.29213 0.0
H2263 H 0.58808 0.39212 0.25782 0.0
H2264 H 0.58002 0.3949 0.28276 0.0
H2265 H 0.56327 0.37847 0.26436 0.0
H2266 H 0.52021 0.38543 0.24486 0.0
H2267 H 0.49148 0.36628 0.26498 0.0
H2268 H 0.13202 0.63927 0.24141 0.0
H2269 H 0.14127 0.62 0.26185 0.0
H2270 H 0.15514 0.60102 0.20552 0.0
H2271 H 0.14686 0.62116 0.18516 0.0
H2272 H 0.12094 0.58386 0.25881 0.0
H2273 H 0.19467 0.60217 0.24298 0.0
H2274 H 0.18584 0.61787 0.23647 0.0
H2275 H 0.18175 0.59872 0.21937 0.0
C2276 C 0.13783 0.63159 0.23351 0.0
C2277 C 0.13878 0.63164 0.2118 0.0
C2278 C 0.14308 0.62056 0.24517 0.0
C2279 C 0.14892 0.609 0.23529 0.0
C2280 C 0.15113 0.6101 0.2136 0.0
H2281 H 0.11342 0.49574 0.26605 0.0
H2282 H 0.12355 0.52638 0.2499 0.0
C2283 C 0.14632 0.62155 0.20194 0.0
C2284 C 0.14907 0.59344 0.24714 0.0
H2285 H 0.17357 0.57014 0.25526 0.0
C2286 C 0.13268 0.58119 0.25835 0.0
C2287 C 0.16431 0.5898 0.24659 0.0
C2288 C 0.1827 0.60297 0.23587 0.0
C2289 C 0.13079 0.56511 0.26829 0.0
C2290 C 0.1455 0.56085 0.26668 0.0
C2291 C 0.16225 0.57339 0.25625 0.0
C2292 C 0.14274 0.54266 0.2746 0.0
C2293 C 0.11277 0.55242 0.28 0.0
C2294 C 0.15079 0.54171 0.29347 0.0
C2295 C 0.14505 0.52412 0.30277 0.0
C2296 C 0.1311 0.50737 0.29333 0.0
C2297 C 0.12405 0.50841 0.2738 0.0
C2298 C 0.12987 0.52588 0.26449 0.0
H2299 H 0.1047 0.55971 0.28361 0.0
H2300 H 0.10363 0.53979 0.2704 0.0
H2301 H 0.11588 0.54746 0.29472 0.0
H2302 H 0.16069 0.55456 0.30151 0.0
H2303 H 0.15069 0.52371 0.31785 0.0
H2304 H 0.52299 0.90057 0.77377 0.0
H2305 H 0.49577 0.89269 0.75175 0.0
H2306 H 0.46393 0.83898 0.78296 0.0
H2307 H 0.49119 0.84706 0.80549 0.0
H2308 H 0.47325 0.86374 0.72472 0.0
H2309 H 0.43252 0.86402 0.79392 0.0
H2310 H 0.45749 0.87219 0.79511 0.0
H2311 H 0.44067 0.84727 0.79431 0.0
C2312 C 0.51033 0.88695 0.77574 0.0
C2313 C 0.50915 0.87451 0.79146 0.0
C2314 C 0.49476 0.88244 0.76311 0.0
C2315 C 0.47771 0.86538 0.76592 0.0
C2316 C 0.47684 0.85238 0.78079 0.0
H2317 H 0.38301 0.85244 0.68569 0.0
H2318 H 0.40454 0.84339 0.70222 0.0
C2319 C 0.49242 0.85698 0.79357 0.0
C2320 C 0.46063 0.8623 0.75448 0.0
H2321 H 0.41898 0.86186 0.76142 0.0
C2322 C 0.46118 0.86295 0.73269 0.0
C2323 C 0.44496 0.86137 0.76496 0.0
C2324 C 0.44382 0.8613 0.78835 0.0
C2325 C 0.44699 0.86376 0.72117 0.0
C2326 C 0.43179 0.86368 0.73174 0.0
C2327 C 0.43065 0.86184 0.75341 0.0
C2328 C 0.4187 0.86859 0.72121 0.0
C2329 C 0.44898 0.86599 0.69793 0.0
C2330 C 0.41949 0.88561 0.72651 0.0
C2331 C 0.40729 0.89072 0.71727 0.0
C2332 C 0.39396 0.8789 0.70247 0.0
C2333 C 0.39319 0.86184 0.697 0.0
C2334 C 0.40548 0.85669 0.70636 0.0
H2335 H 0.46263 0.86776 0.69233 0.0
H2336 H 0.4373 0.85328 0.69039 0.0
H2337 H 0.4479 0.87844 0.69294 0.0
H2338 H 0.42962 0.89503 0.73787 0.0
H2339 H 0.40833 0.90397 0.72183 0.0
H2340 H 0.52984 0.36523 0.69083 0.0
H2341 H 0.56043 0.38267 0.70882 0.0
H2342 H 0.53321 0.39495 0.75898 0.0
H2343 H 0.50302 0.37728 0.74166 0.0
H2344 H 0.57812 0.41861 0.71547 0.0
H2345 H 0.56892 0.38659 0.79213 0.0
H2346 H 0.55275 0.37409 0.77116 0.0
H2347 H 0.54889 0.38952 0.78803 0.0
C2348 C 0.53038 0.37114 0.70603 0.0
C2349 C 0.51409 0.37001 0.71479 0.0
C2350 C 0.54784 0.38111 0.71627 0.0
C2351 C 0.54916 0.3899 0.73547 0.0
C2352 C 0.53262 0.38784 0.74458 0.0
H2353 H 0.60661 0.49758 0.77393 0.0
H2354 H 0.59252 0.46772 0.75542 0.0
C2355 C 0.51531 0.37791 0.73446 0.0
C2356 C 0.56774 0.40385 0.74453 0.0
H2357 H 0.58701 0.42213 0.79175 0.0
C2358 C 0.58043 0.41906 0.73208 0.0
C2359 C 0.57136 0.40434 0.76607 0.0
C2360 C 0.55981 0.38758 0.77998 0.0
C2361 C 0.59503 0.43566 0.74094 0.0
C2362 C 0.59651 0.4373 0.76281 0.0
C2363 C 0.58551 0.4212 0.77501 0.0
C2364 C 0.60679 0.45604 0.7732 0.0
C2365 C 0.60804 0.45163 0.72679 0.0
C2366 C 0.61912 0.45933 0.78992 0.0
C2367 C 0.62699 0.47645 0.80091 0.0
C2368 C 0.62257 0.49045 0.79537 0.0
C2369 C 0.61045 0.48717 0.7785 0.0
C2370 C 0.60253 0.47013 0.76769 0.0
H2371 H 0.61085 0.446 0.71236 0.0
H2372 H 0.60112 0.45981 0.72218 0.0
H2373 H 0.62175 0.46133 0.7344 0.0
H2374 H 0.62242 0.44858 0.79464 0.0
H2375 H 0.63629 0.47859 0.81387 0.0
H2376 H 0.10562 0.49512 0.7298 0.0
H2377 H 0.11772 0.52587 0.74651 0.0
H2378 H 0.16043 0.55187 0.69915 0.0
H2379 H 0.14842 0.52093 0.68224 0.0
H2380 H 0.17074 0.56457 0.74624 0.0
H2381 H 0.10914 0.56621 0.71197 0.0
H2382 H 0.10376 0.54449 0.72474 0.0
H2383 H 0.11802 0.55157 0.70169 0.0
C2384 C 0.11777 0.50729 0.72307 0.0
C2385 C 0.12594 0.50567 0.70456 0.0
C2386 C 0.12471 0.52483 0.73269 0.0
C2387 C 0.13987 0.54107 0.72398 0.0
C2388 C 0.14875 0.53942 0.70611 0.0
H2389 H 0.14195 0.64389 0.75944 0.0
H2390 H 0.15016 0.62388 0.73888 0.0
C2391 C 0.14184 0.52179 0.69646 0.0
C2392 C 0.14475 0.55982 0.73236 0.0
H2393 H 0.12576 0.58827 0.73865 0.0
C2394 C 0.16114 0.57001 0.74437 0.0
C2395 C 0.13232 0.56694 0.72958 0.0
C2396 C 0.11488 0.55686 0.71616 0.0
C2397 C 0.16493 0.58682 0.75455 0.0
C2398 C 0.1518 0.59328 0.75285 0.0
C2399 C 0.1359 0.58343 0.74 0.0
C2400 C 0.15306 0.60918 0.76534 0.0
C2401 C 0.18283 0.59734 0.7671 0.0
C2402 C 0.15314 0.60846 0.78714 0.0
C2403 C 0.14896 0.62032 0.79893 0.0
C2404 C 0.1442 0.63266 0.78901 0.0
C2405 C 0.14566 0.63449 0.76737 0.0
C2406 C 0.15028 0.62302 0.75565 0.0
H2407 H 0.19415 0.59498 0.76084 0.0
H2408 H 0.18805 0.61279 0.76737 0.0
H2409 H 0.17997 0.59199 0.78328 0.0
H2410 H 0.15477 0.59766 0.79503 0.0
H2411 H 0.14757 0.61845 0.8156 0.0
H2412 H 0.52483 0.16234 0.8129 0.0
H2413 H 0.55418 0.17815 0.79247 0.0
H2414 H 0.53122 0.13086 0.75012 0.0
H2415 H 0.50206 0.11545 0.76988 0.0
H2416 H 0.57869 0.16684 0.78657 0.0
H2417 H 0.55429 0.17297 0.70937 0.0
H2418 H 0.53974 0.16843 0.73214 0.0
H2419 H 0.53934 0.14915 0.71796 0.0
C2420 C 0.52597 0.15556 0.79898 0.0
C2421 C 0.51114 0.13765 0.793 0.0
C2422 C 0.54271 0.1646 0.78731 0.0
C2423 C 0.54479 0.15593 0.76944 0.0
C2424 C 0.52979 0.13822 0.76336 0.0
H2425 H 0.61703 0.1252 0.72895 0.0
H2426 H 0.60105 0.1383 0.74862 0.0
C2427 C 0.51315 0.12927 0.77488 0.0
C2428 C 0.56318 0.16382 0.75839 0.0
H2429 H 0.5801 0.16511 0.70973 0.0
C2430 C 0.5792 0.1671 0.76976 0.0
C2431 C 0.56431 0.16497 0.73648 0.0
C2432 C 0.54851 0.16392 0.72337 0.0
C2433 C 0.59531 0.16895 0.75976 0.0
C2434 C 0.5951 0.16685 0.73795 0.0
C2435 C 0.58015 0.16618 0.7265 0.0
C2436 C 0.60784 0.16141 0.72736 0.0
C2437 C 0.61196 0.17206 0.7728 0.0
C2438 C 0.61697 0.16986 0.70859 0.0
C2439 C 0.62603 0.16212 0.69701 0.0
C2440 C 0.62582 0.14569 0.70395 0.0
C2441 C 0.61743 0.13785 0.72314 0.0
C2442 C 0.60847 0.14553 0.73461 0.0
H2443 H 0.61394 0.18159 0.78604 0.0
H2444 H 0.60915 0.15833 0.77939 0.0
H2445 H 0.62524 0.17827 0.76362 0.0
H2446 H 0.61648 0.18199 0.70254 0.0
H2447 H 0.63232 0.16838 0.68221 0.0
H2448 H 0.36766 0.52738 0.82501 0.0
H2449 H 0.38857 0.55815 0.80871 0.0
H2450 H 0.37739 0.53123 0.7488 0.0
H2451 H 0.35695 0.50049 0.76502 0.0
H2452 H 0.41971 0.55536 0.78236 0.0
H2453 H 0.38191 0.58709 0.74219 0.0
H2454 H 0.37292 0.5732 0.76563 0.0
H2455 H 0.37166 0.56173 0.7415 0.0
C2456 C 0.36901 0.52819 0.80828 0.0
C2457 C 0.36081 0.51164 0.79623 0.0
C2458 C 0.38095 0.54574 0.799 0.0
C2459 C 0.38437 0.54692 0.77756 0.0
C2460 C 0.37469 0.53062 0.76532 0.0
H2461 H 0.46511 0.6145 0.68552 0.0
H2462 H 0.43615 0.59596 0.7059 0.0
C2463 C 0.36309 0.51308 0.7746 0.0
C2464 C 0.40098 0.56366 0.76867 0.0
H2465 H 0.4145 0.59997 0.73427 0.0
C2466 C 0.4187 0.56539 0.77215 0.0
C2467 C 0.39938 0.57628 0.75502 0.0
C2468 C 0.38048 0.57466 0.75082 0.0
C2469 C 0.43485 0.57893 0.76165 0.0
C2470 C 0.43341 0.59176 0.74796 0.0
C2471 C 0.41567 0.59032 0.7449 0.0
C2472 C 0.44995 0.60574 0.73569 0.0
C2473 C 0.45299 0.57845 0.7644 0.0
C2474 C 0.4671 0.61815 0.74557 0.0
C2475 C 0.48366 0.62821 0.73399 0.0
C2476 C 0.48317 0.62671 0.71231 0.0
C2477 C 0.46574 0.6159 0.70225 0.0
C2478 C 0.44923 0.60533 0.71389 0.0
H2479 H 0.45032 0.56463 0.77061 0.0
H2480 H 0.46072 0.58109 0.7495 0.0
H2481 H 0.46224 0.58955 0.77564 0.0
H2482 H 0.46789 0.61924 0.76232 0.0
H2483 H 0.49698 0.63665 0.74201 0.0
H2484 H 0.83981 0.4668 0.67755 0.0
H2485 H 0.83022 0.43586 0.69331 0.0
H2486 H 0.8471 0.46224 0.7534 0.0
H2487 H 0.85715 0.49313 0.73772 0.0
H2488 H 0.86529 0.43914 0.72022 0.0
H2489 H 0.79459 0.40539 0.75812 0.0
H2490 H 0.79973 0.41942 0.73475 0.0
H2491 H 0.80929 0.43081 0.75909 0.0
C2492 C 0.84068 0.46582 0.69423 0.0
C2493 C 0.84924 0.48225 0.70647 0.0
C2494 C 0.83522 0.44818 0.70319 0.0
C2495 C 0.83784 0.44682 0.72451 0.0
C2496 C 0.84472 0.463 0.73698 0.0
H2497 H 0.85004 0.37872 0.81606 0.0
H2498 H 0.83954 0.39698 0.79536 0.0
C2499 C 0.85052 0.48062 0.72801 0.0
C2500 C 0.83774 0.42998 0.73299 0.0
H2501 H 0.81444 0.39273 0.76615 0.0
C2502 C 0.85404 0.42872 0.72995 0.0
C2503 C 0.82321 0.41684 0.746 0.0
C2504 C 0.80561 0.418 0.74974 0.0
C2505 C 0.85666 0.41513 0.74031 0.0
C2506 C 0.8421 0.40181 0.7534 0.0
C2507 C 0.82549 0.40277 0.75596 0.0
C2508 C 0.8447 0.38789 0.76571 0.0
C2509 C 0.87555 0.41609 0.73812 0.0
C2510 C 0.85011 0.37593 0.75598 0.0
C2511 C 0.85666 0.36603 0.76776 0.0
C2512 C 0.85706 0.36725 0.78947 0.0
C2513 C 0.84977 0.37756 0.79931 0.0
C2514 C 0.84378 0.38797 0.78748 0.0
H2515 H 0.88668 0.43011 0.7323 0.0
H2516 H 0.88036 0.41337 0.75317 0.0
H2517 H 0.87423 0.40526 0.7268 0.0
H2518 H 0.85031 0.37511 0.73923 0.0
H2519 H 0.86204 0.35796 0.7599 0.0
H2520 H 0.44383 0.0933 0.08438 0.0
H2521 H 0.44575 0.09861 0.04703 0.0
H2522 H 0.43781 0.14651 0.05588 0.0
H2523 H 0.43561 0.14114 0.0936 0.0
H2524 H 0.41499 0.11811 0.02189 0.0
H2525 H 0.49237 0.14566 0.01883 0.0
H2526 H 0.47917 0.12417 0.03343 0.0
H2527 H 0.48028 0.14555 0.04235 0.0
C2528 C 0.44215 0.10479 0.07844 0.0
C2529 C 0.43943 0.11673 0.092 0.0
C2530 C 0.44345 0.1079 0.05709 0.0
C2531 C 0.44209 0.12304 0.04875 0.0
C2532 C 0.43897 0.1348 0.06207 0.0
H2533 H 0.44357 0.14297 0.9133 0.0
H2534 H 0.44132 0.147 0.95079 0.0
C2535 C 0.43778 0.13175 0.08358 0.0
C2536 C 0.44428 0.12647 0.02609 0.0
H2537 H 0.47569 0.13586 0.98673 0.0
C2538 C 0.42831 0.12235 0.01413 0.0
C2539 C 0.4617 0.13202 0.01612 0.0
C2540 C 0.47943 0.13728 0.02831 0.0
C2541 C 0.42907 0.12252 0.99232 0.0
C2542 C 0.44632 0.12719 0.98235 0.0
C2543 C 0.46247 0.13222 0.99439 0.0
C2544 C 0.44755 0.12512 0.95962 0.0
C2545 C 0.41122 0.11667 0.98012 0.0
C2546 C 0.45216 0.11179 0.95219 0.0
C2547 C 0.45359 0.10957 0.93095 0.0
C2548 C 0.45044 0.12065 0.91653 0.0
C2549 C 0.44605 0.1342 0.92399 0.0
C2550 C 0.4446 0.13641 0.94537 0.0
H2551 H 0.39847 0.11055 0.9902 0.0
H2552 H 0.41235 0.12922 0.97211 0.0
H2553 H 0.40926 0.10609 0.9681 0.0
H2554 H 0.45464 0.10303 0.9629 0.0
H2555 H 0.45745 0.09932 0.92583 0.0
H2556 H 0.29466 0.43642 0.09274 0.0
H2557 H 0.29078 0.4361 0.05487 0.0
H2558 H 0.34699 0.44487 0.04659 0.0
H2559 H 0.35107 0.44546 0.0841 0.0
H2560 H 0.3374 0.47073 0.02417 0.0
H2561 H 0.28588 0.39411 0.01214 0.0
H2562 H 0.28132 0.40651 0.0324 0.0
H2563 H 0.30095 0.40258 0.03475 0.0
C2564 C 0.30613 0.43819 0.08281 0.0
C2565 C 0.32309 0.44076 0.09145 0.0
C2566 C 0.30386 0.43789 0.06122 0.0
C2567 C 0.31854 0.44028 0.04798 0.0
C2568 C 0.33543 0.44284 0.05656 0.0
H2569 H 0.35356 0.45329 0.92181 0.0
H2570 H 0.34953 0.45132 0.95931 0.0
C2571 C 0.33768 0.44303 0.07802 0.0
C2572 C 0.31691 0.44099 0.02515 0.0
H2573 H 0.2973 0.41326 0.98234 0.0
C2574 C 0.3285 0.45821 0.01502 0.0
C2575 C 0.30517 0.42467 0.0133 0.0
C2576 C 0.29263 0.40583 0.02356 0.0
C2577 C 0.32903 0.45948 0.9933 0.0
C2578 C 0.318 0.44297 0.98138 0.0
C2579 C 0.30582 0.42587 0.99151 0.0
C2580 C 0.31989 0.44304 0.95846 0.0
C2581 C 0.34149 0.4785 0.98334 0.0
C2582 C 0.30437 0.43831 0.94545 0.0
C2583 C 0.30655 0.43914 0.92383 0.0
C2584 C 0.32428 0.44455 0.91487 0.0
C2585 C 0.33964 0.4488 0.92806 0.0
C2586 C 0.33743 0.44794 0.94957 0.0
H2587 H 0.34424 0.49028 0.99403 0.0
H2588 H 0.35532 0.47983 0.97933 0.0
H2589 H 0.33501 0.4801 0.96889 0.0
H2590 H 0.29066 0.43431 0.952 0.0
H2591 H 0.29439 0.43558 0.91415 0.0
H2592 H 0.8535 0.32922 0.08493 0.0
H2593 H 0.85166 0.3252 0.04732 0.0
H2594 H 0.89561 0.31065 0.04935 0.0
H2595 H 0.89741 0.31441 0.08709 0.0
H2596 H 0.90265 0.3395 0.02133 0.0
H2597 H 0.83043 0.27837 0.00992 0.0
H2598 H 0.83127 0.29679 0.02591 0.0
H2599 H 0.84238 0.2838 0.03468 0.0
C2600 C 0.86242 0.32464 0.07751 0.0
C2601 C 0.87559 0.32211 0.08911 0.0
C2602 C 0.86136 0.32237 0.05595 0.0
C2603 C 0.87336 0.31743 0.04552 0.0
C2604 C 0.88618 0.31441 0.05708 0.0
H2605 H 0.89872 0.3174 0.91339 0.0
H2606 H 0.89722 0.31316 0.95108 0.0
C2607 C 0.88723 0.31665 0.07865 0.0
C2608 C 0.87365 0.31701 0.02249 0.0
H2609 H 0.84607 0.29645 0.9798 0.0
C2610 C 0.89035 0.32994 0.01223 0.0
C2611 C 0.85755 0.30462 0.01066 0.0
C2612 C 0.83943 0.28998 0.02082 0.0
C2613 C 0.89125 0.33122 0.9905 0.0
C2614 C 0.8751 0.31894 0.97864 0.0
C2615 C 0.85845 0.30584 0.98889 0.0
C2616 C 0.87506 0.32 0.95562 0.0
C2617 C 0.90928 0.34622 0.98047 0.0
C2618 C 0.86259 0.3245 0.94554 0.0
C2619 C 0.86334 0.32682 0.924 0.0
C2620 C 0.87655 0.32464 0.91207 0.0
C2621 C 0.88858 0.31947 0.92215 0.0
C2622 C 0.88776 0.31708 0.9437 0.0
H2623 H 0.91852 0.35738 0.99169 0.0
H2624 H 0.91728 0.33957 0.97437 0.0
H2625 H 0.90617 0.35302 0.96731 0.0
H2626 H 0.85265 0.32679 0.95442 0.0
H2627 H 0.85402 0.33102 0.9168 0.0
H2628 H 0.57376 0.88185 0.09267 0.0
H2629 H 0.57303 0.87616 0.05527 0.0
H2630 H 0.51308 0.83691 0.05864 0.0
H2631 H 0.51353 0.84286 0.09582 0.0
H2632 H 0.55935 0.84159 0.03048 0.0
H2633 H 0.51886 0.87892 0.01784 0.0
H2634 H 0.531 0.88066 0.04184 0.0
H2635 H 0.50886 0.85976 0.03616 0.0
C2636 C 0.56044 0.8719 0.08547 0.0
C2637 C 0.54369 0.86293 0.09724 0.0
C2638 C 0.56008 0.86858 0.06415 0.0
C2639 C 0.54296 0.85631 0.05419 0.0
C2640 C 0.5264 0.84658 0.06602 0.0
H2641 H 0.51601 0.84551 0.92219 0.0
H2642 H 0.51394 0.83905 0.95945 0.0
C2643 C 0.52674 0.84987 0.08733 0.0
C2644 C 0.54221 0.85478 0.03127 0.0
H2645 H 0.52573 0.86649 0.98842 0.0
C2646 C 0.55193 0.84693 0.02124 0.0
C2647 C 0.53248 0.86174 0.0193 0.0
C2648 C 0.52231 0.87089 0.02924 0.0
C2649 C 0.5522 0.84587 0.99948 0.0
C2650 C 0.54283 0.85324 0.9875 0.0
C2651 C 0.53282 0.86075 0.9976 0.0
C2652 C 0.5442 0.85456 0.96452 0.0
C2653 C 0.56242 0.83679 0.98957 0.0
C2654 C 0.5619 0.86513 0.9549 0.0
C2655 C 0.56313 0.86869 0.9336 0.0
C2656 C 0.54667 0.86197 0.92148 0.0
C2657 C 0.52897 0.85073 0.931 0.0
C2658 C 0.52776 0.84712 0.95233 0.0
H2659 H 0.56325 0.82655 1.00025 0.0
H2660 H 0.55535 0.82932 0.97502 0.0
H2661 H 0.5771 0.84791 0.98578 0.0
H2662 H 0.57477 0.87135 0.964 0.0
H2663 H 0.57699 0.87723 0.92673 0.0
H2664 H 0.6459 0.54889 0.0823 0.0
H2665 H 0.65174 0.55187 0.0451 0.0
H2666 H 0.70752 0.56004 0.05523 0.0
H2667 H 0.70191 0.5574 0.09288 0.0
H2668 H 0.68234 0.58395 0.02378 0.0
H2669 H 0.68231 0.51635 0.01132 0.0
H2670 H 0.67208 0.52042 0.03421 0.0
H2671 H 0.69728 0.5321 0.03136 0.0
C2672 C 0.65955 0.55159 0.07675 0.0
C2673 C 0.67354 0.55317 0.09067 0.0
C2674 C 0.66279 0.55314 0.05542 0.0
C2675 C 0.68002 0.55612 0.0474 0.0
C2676 C 0.69404 0.55755 0.06112 0.0
H2677 H 0.69889 0.55773 0.91197 0.0
H2678 H 0.7055 0.56028 0.94938 0.0
C2679 C 0.69081 0.55604 0.0826 0.0
C2680 C 0.68302 0.55793 0.02464 0.0
H2681 H 0.68359 0.53371 0.98168 0.0
C2682 C 0.68292 0.57312 0.01458 0.0
C2683 C 0.68389 0.54386 0.0127 0.0
C2684 C 0.68382 0.52716 0.02281 0.0
C2685 C 0.68287 0.57421 0.99287 0.0
C2686 C 0.68257 0.55954 0.9809 0.0
C2687 C 0.68376 0.5449 0.99092 0.0
C2688 C 0.67897 0.55817 0.95824 0.0
C2689 C 0.68266 0.59083 0.98291 0.0
C2690 C 0.66176 0.5558 0.9509 0.0
C2691 C 0.65789 0.55421 0.92969 0.0
C2692 C 0.67117 0.55496 0.91523 0.0
C2693 C 0.68835 0.55709 0.92265 0.0
C2694 C 0.69219 0.55861 0.94399 0.0
H2695 H 0.6887 0.60331 0.9934 0.0
H2696 H 0.69075 0.59491 0.96814 0.0
H2697 H 0.66783 0.58691 0.97944 0.0
H2698 H 0.65115 0.55492 0.96165 0.0
H2699 H 0.64427 0.55199 0.92469 0.0
H2700 H 0.13719 0.69781 0.91047 0.0
H2701 H 0.14055 0.70187 0.94824 0.0
H2702 H 0.10142 0.64229 0.95649 0.0
H2703 H 0.09846 0.63797 0.91901 0.0
H2704 H 0.11312 0.69391 0.97923 0.0
H2705 H 0.14743 0.65074 0.99012 0.0
H2706 H 0.14531 0.6593 0.96501 0.0
H2707 H 0.12563 0.63846 0.97597 0.0
C2708 C 0.12939 0.68555 0.92034 0.0
C2709 C 0.11757 0.66755 0.91165 0.0
C2710 C 0.13126 0.68793 0.94191 0.0
C2711 C 0.12148 0.67233 0.95516 0.0
C2712 C 0.10937 0.65447 0.94656 0.0
H2713 H 0.09715 0.64168 0.08162 0.0
H2714 H 0.10009 0.64518 0.04403 0.0
C2715 C 0.10749 0.65208 0.92508 0.0
C2716 C 0.12373 0.67453 0.97803 0.0
H2717 H 0.13464 0.65695 0.02059 0.0
C2718 C 0.1181 0.68608 0.98829 0.0
C2719 C 0.13039 0.66441 0.98981 0.0
C2720 C 0.13772 0.65268 0.97966 0.0
C2721 C 0.11796 0.68694 0.01009 0.0
C2722 C 0.12376 0.67611 0.02183 0.0
C2723 C 0.1301 0.66517 0.01154 0.0
C2724 C 0.12194 0.67465 0.04473 0.0
C2725 C 0.11081 0.69872 0.02045 0.0
C2726 C 0.13334 0.69009 0.05765 0.0
C2727 C 0.13166 0.68815 0.07929 0.0
C2728 C 0.11846 0.67077 0.08831 0.0
C2729 C 0.10715 0.65538 0.07523 0.0
C2730 C 0.10891 0.6573 0.05372 0.0
H2731 H 0.10447 0.70425 0.00919 0.0
H2732 H 0.10005 0.69022 0.03238 0.0
H2733 H 0.12272 0.71091 0.02841 0.0
H2734 H 0.14366 0.70354 0.051 0.0
H2735 H 0.14058 0.70025 0.08895 0.0
H2736 H 0.90159 0.55021 0.42333 0.0
H2737 H 0.89817 0.55285 0.4605 0.0
H2738 H 0.85114 0.56178 0.44951 0.0
H2739 H 0.85459 0.55933 0.41195 0.0
H2740 H 0.90014 0.5837 0.48271 0.0
H2741 H 0.83031 0.51794 0.49205 0.0
H2742 H 0.84471 0.52245 0.46917 0.0
H2743 H 0.83187 0.53474 0.47297 0.0
C2744 C 0.89065 0.55299 0.42871 0.0
C2745 C 0.87848 0.55475 0.41458 0.0
C2746 C 0.88864 0.55437 0.45001 0.0
C2747 C 0.87434 0.55739 0.4578 0.0
C2748 C 0.86211 0.55918 0.44384 0.0
H2749 H 0.85238 0.5582 0.5921 0.0
H2750 H 0.85058 0.56188 0.5545 0.0
C2751 C 0.86411 0.55779 0.4224 0.0
C2752 C 0.87261 0.55875 0.48057 0.0
H2753 H 0.84535 0.53477 0.52236 0.0
C2754 C 0.88805 0.57314 0.49136 0.0
C2755 C 0.85678 0.54502 0.49183 0.0
C2756 C 0.83998 0.52906 0.48102 0.0
C2757 C 0.88839 0.57379 0.51311 0.0
C2758 C 0.87301 0.55951 0.52439 0.0
C2759 C 0.85713 0.54567 0.51364 0.0
C2760 C 0.87404 0.55765 0.54718 0.0
C2761 C 0.90541 0.58954 0.52386 0.0
C2762 C 0.88761 0.55377 0.55544 0.0
C2763 C 0.88858 0.5515 0.57676 0.0
C2764 C 0.87599 0.55309 0.59043 0.0
C2765 C 0.86226 0.55685 0.58207 0.0
C2766 C 0.86126 0.55903 0.56061 0.0
H2767 H 0.91311 0.60207 0.51361 0.0
H2768 H 0.90125 0.59396 0.53828 0.0
H2769 H 0.9153 0.58448 0.52811 0.0
H2770 H 0.89731 0.55218 0.54531 0.0
H2771 H 0.89895 0.54804 0.58246 0.0
H2772 H 0.30679 0.89298 0.42513 0.0
H2773 H 0.30375 0.88906 0.46282 0.0
H2774 H 0.31813 0.84503 0.45914 0.0
H2775 H 0.322 0.84936 0.42166 0.0
H2776 H 0.2823 0.8583 0.49005 0.0
H2777 H 0.35948 0.88492 0.49643 0.0
H2778 H 0.34867 0.88673 0.4728 0.0
H2779 H 0.34684 0.8646 0.48 0.0
C2780 C 0.30924 0.8824 0.43231 0.0
C2781 C 0.31487 0.87166 0.4203 0.0
C2782 C 0.30735 0.88008 0.45385 0.0
C2783 C 0.31104 0.86698 0.46382 0.0
C2784 C 0.3155 0.85543 0.45179 0.0
H2785 H 0.29968 0.84439 0.59859 0.0
H2786 H 0.29459 0.84032 0.56094 0.0
C2787 C 0.31749 0.85779 0.43028 0.0
C2788 C 0.31166 0.86648 0.48682 0.0
H2789 H 0.34189 0.87554 0.5274 0.0
C2790 C 0.29528 0.86195 0.49826 0.0
C2791 C 0.32868 0.87147 0.49748 0.0
C2792 C 0.34698 0.87738 0.48611 0.0
C2793 C 0.29552 0.8624 0.5201 0.0
C2794 C 0.31254 0.86734 0.5307 0.0
C2795 C 0.32882 0.87163 0.51923 0.0
C2796 C 0.31436 0.86962 0.55359 0.0
C2797 C 0.27779 0.85824 0.53164 0.0
C2798 C 0.32723 0.88734 0.56192 0.0
C2799 C 0.3303 0.88965 0.58325 0.0
C2800 C 0.32054 0.87428 0.59691 0.0
C2801 C 0.30743 0.85652 0.58856 0.0
C2802 C 0.30438 0.85421 0.56706 0.0
H2803 H 0.26696 0.85821 0.52118 0.0
H2804 H 0.27163 0.84409 0.53901 0.0
H2805 H 0.28106 0.86882 0.54411 0.0
H2806 H 0.3352 0.89939 0.55181 0.0
H2807 H 0.34088 0.90343 0.58893 0.0
H2808 H 0.47503 0.32775 0.41926 0.0
H2809 H 0.47415 0.32423 0.45691 0.0
H2810 H 0.41641 0.31229 0.45769 0.0
H2811 H 0.41692 0.31508 0.4199 0.0
H2812 H 0.46853 0.34693 0.48381 0.0
H2813 H 0.41389 0.27185 0.49667 0.0
H2814 H 0.42479 0.2807 0.4717 0.0
H2815 H 0.40618 0.28464 0.48057 0.0
C2816 C 0.46194 0.3238 0.42732 0.0
C2817 C 0.44602 0.32166 0.41648 0.0
C2818 C 0.46152 0.32195 0.4489 0.0
C2819 C 0.44517 0.31783 0.46014 0.0
C2820 C 0.42907 0.31513 0.44935 0.0
H2821 H 0.42156 0.32139 0.59111 0.0
H2822 H 0.41965 0.31756 0.55332 0.0
C2823 C 0.42946 0.31694 0.42775 0.0
C2824 C 0.44559 0.3181 0.48319 0.0
H2825 H 0.42408 0.29185 0.52646 0.0
C2826 C 0.45891 0.33483 0.49312 0.0
C2827 C 0.43291 0.30235 0.49533 0.0
C2828 C 0.41874 0.2838 0.48556 0.0
C2829 C 0.45976 0.33635 0.51482 0.0
C2830 C 0.44714 0.32061 0.52698 0.0
C2831 C 0.43376 0.30388 0.5171 0.0
C2832 C 0.44772 0.32141 0.54998 0.0
C2833 C 0.47389 0.35498 0.52454 0.0
C2834 C 0.46393 0.32436 0.56067 0.0
C2835 C 0.46512 0.32667 0.5822 0.0
C2836 C 0.45005 0.32596 0.59355 0.0
C2837 C 0.43351 0.32226 0.58284 0.0
C2838 C 0.43235 0.31995 0.56127 0.0
H2839 H 0.47917 0.36683 0.51324 0.0
H2840 H 0.46756 0.35837 0.53795 0.0
H2841 H 0.4862 0.35402 0.53025 0.0
H2842 H 0.47586 0.32528 0.55229 0.0
H2843 H 0.47816 0.32971 0.58983 0.0
H2844 H 0.10116 0.41323 0.41338 0.0
H2845 H 0.10333 0.41223 0.4512 0.0
H2846 H 0.1471 0.47092 0.45154 0.0
H2847 H 0.14455 0.4723 0.41396 0.0
H2848 H 0.13319 0.42039 0.47934 0.0
H2849 H 0.1058 0.47002 0.48846 0.0
H2850 H 0.10478 0.45862 0.46414 0.0
H2851 H 0.12652 0.47886 0.47247 0.0
C2852 C 0.1113 0.42592 0.42149 0.0
C2853 C 0.12253 0.4429 0.41057 0.0
C2854 C 0.1126 0.42528 0.44309 0.0
C2855 C 0.12511 0.44159 0.45421 0.0
C2856 C 0.13711 0.45824 0.4433 0.0
H2857 H 0.14073 0.47154 0.58447 0.0
H2858 H 0.14467 0.47024 0.54711 0.0
C2859 C 0.13578 0.45893 0.42173 0.0
C2860 C 0.12485 0.44152 0.47724 0.0
H2861 H 0.1159 0.46164 0.51894 0.0
C2862 C 0.12941 0.42939 0.48803 0.0
C2863 C 0.11977 0.45318 0.48854 0.0
C2864 C 0.11376 0.46579 0.47786 0.0
C2865 C 0.12939 0.4289 0.50985 0.0
C2866 C 0.12444 0.44066 0.52111 0.0
C2867 C 0.11984 0.45273 0.51029 0.0
C2868 C 0.1236 0.44061 0.54413 0.0
C2869 C 0.135 0.41607 0.52068 0.0
C2870 C 0.1106 0.42431 0.55497 0.0
C2871 C 0.10839 0.42497 0.57644 0.0
C2872 C 0.11909 0.44197 0.58748 0.0
C2873 C 0.13249 0.45812 0.57661 0.0
C2874 C 0.13467 0.45745 0.55518 0.0
H2875 H 0.14303 0.41178 0.51023 0.0
H2876 H 0.14376 0.42307 0.53459 0.0
H2877 H 0.12206 0.40306 0.52582 0.0
H2878 H 0.10166 0.41125 0.54673 0.0
H2879 H 0.09802 0.41225 0.58432 0.0
H2880 H 0.70442 0.15178 0.40439 0.0
H2881 H 0.71093 0.15788 0.44162 0.0
H2882 H 0.66377 0.10264 0.45546 0.0
H2883 H 0.65676 0.09664 0.41872 0.0
H2884 H 0.6844 0.15688 0.47203 0.0
H2885 H 0.70771 0.10543 0.49043 0.0
H2886 H 0.70801 0.11376 0.46437 0.0
H2887 H 0.68632 0.09537 0.47543 0.0
C2888 C 0.69547 0.1409 0.41535 0.0
C2889 C 0.68016 0.12362 0.40841 0.0
C2890 C 0.69929 0.14438 0.4366 0.0
C2891 C 0.68805 0.13057 0.45126 0.0
C2892 C 0.67293 0.1133 0.4444 0.0
H2893 H 0.64504 0.11541 0.57018 0.0
H2894 H 0.65397 0.11968 0.53359 0.0
C2895 C 0.66901 0.10987 0.42328 0.0
C2896 C 0.69092 0.13441 0.47383 0.0
H2897 H 0.69578 0.11547 0.51906 0.0
C2898 C 0.68738 0.14818 0.48231 0.0
C2899 C 0.69489 0.1231 0.48721 0.0
C2900 C 0.69963 0.1087 0.47891 0.0
C2901 C 0.68632 0.14993 0.50388 0.0
C2902 C 0.68892 0.13767 0.51717 0.0
C2903 C 0.69376 0.12483 0.50877 0.0
C2904 C 0.68403 0.13615 0.53944 0.0
C2905 C 0.68147 0.16418 0.51238 0.0
C2906 C 0.69805 0.14409 0.55481 0.0
C2907 C 0.69297 0.14174 0.57585 0.0
C2908 C 0.67383 0.13113 0.58171 0.0
C2909 C 0.65991 0.12341 0.56616 0.0
C2910 C 0.66496 0.12593 0.54527 0.0
H2911 H 0.68315 0.17479 0.50052 0.0
H2912 H 0.66655 0.15671 0.51776 0.0
H2913 H 0.69057 0.17165 0.52594 0.0
H2914 H 0.71286 0.15198 0.55053 0.0
H2915 H 0.70397 0.14781 0.58752 0.0
H2916 H 0.55012 0.69812 0.59259 0.0
H2917 H 0.55096 0.70231 0.55476 0.0
H2918 H 0.5436 0.64663 0.54626 0.0
H2919 H 0.54231 0.64215 0.5837 0.0
H2920 H 0.57577 0.69952 0.524 0.0
H2921 H 0.50024 0.646 0.51226 0.0
H2922 H 0.50975 0.65638 0.53727 0.0
H2923 H 0.51289 0.63751 0.52745 0.0
C2924 C 0.54865 0.68678 0.58263 0.0
C2925 C 0.54621 0.66983 0.5912 0.0
C2926 C 0.54921 0.68923 0.56106 0.0
C2927 C 0.54711 0.67468 0.54775 0.0
C2928 C 0.54502 0.65794 0.55626 0.0
H2929 H 0.54581 0.64391 0.42245 0.0
H2930 H 0.54623 0.6481 0.45989 0.0
C2931 C 0.54451 0.6555 0.57771 0.0
C2932 C 0.54692 0.67668 0.52491 0.0
H2933 H 0.51999 0.65518 0.48216 0.0
C2934 C 0.5635 0.69007 0.5148 0.0
C2935 C 0.53085 0.66439 0.513 0.0
C2936 C 0.51236 0.65038 0.52303 0.0
C2937 C 0.56476 0.69074 0.49301 0.0
C2938 C 0.54895 0.6778 0.48116 0.0
C2939 C 0.53213 0.665 0.4913 0.0
C2940 C 0.54989 0.6762 0.45834 0.0
C2941 C 0.58321 0.70458 0.48283 0.0
C2942 C 0.55187 0.69068 0.44499 0.0
C2943 C 0.55175 0.68837 0.42343 0.0
C2944 C 0.5497 0.67157 0.41489 0.0
C2945 C 0.54785 0.6572 0.42841 0.0
C2946 C 0.54792 0.6595 0.44986 0.0
H2947 H 0.59489 0.71169 0.49425 0.0
H2948 H 0.58726 0.69727 0.47112 0.0
H2949 H 0.58151 0.7156 0.47465 0.0
H2950 H 0.55315 0.70359 0.45124 0.0
H2951 H 0.55321 0.6997 0.41344 0.0
loop_
_geom_bond_atom_site_label_1
_geom_bond_atom_site_label_2
_geom_bond_distance
_geom_bond_site_symmetry_2
_ccdc_geom_bond_type
Co0 N4 2.148 . S
Co0 N10 2.128 . S
Co0 N20 2.194 . S
Co0 O25 2.351 . S
Co0 O26 2.155 . S
Co0 O27 2.096 . S
C1 N4 1.301 . S
C1 N5 1.328 . S
C1 H6 0.930 . S
C2 C3 1.333 . S
C2 N4 1.317 . S
C2 H7 0.930 . S
C3 C2 1.333 . S
C3 N5 1.350 . S
C3 H29 0.931 . S
N4 Co0 2.148 . S
N4 C1 1.301 . S
N4 C2 1.317 . S
N5 C1 1.328 . S
N5 C3 1.350 . S
H6 C1 0.930 . S
H7 C2 0.930 . S
C8 O9 1.224 . S
C8 O27 1.247 . S
O9 C8 1.224 . S
N10 Co0 2.128 . S
N10 C11 1.355 . S
N10 C13 1.311 . S
C11 N10 1.355 . S
C11 C12 1.363 . S
C11 H23 0.929 . S
C12 C11 1.363 . S
C12 N14 1.375 . S
C12 H30 0.931 . S
C13 N10 1.311 . S
C13 N14 1.347 . S
C13 H24 0.929 . S
N14 C12 1.375 . S
N14 C13 1.347 . S
C15 C18 1.365 . S
C15 N20 1.328 . S
C15 H21 0.929 . S
C16 C17 1.362 . S
C16 C19 1.378 . S
C16 H31 0.929 . S
C17 C16 1.362 . S
C17 C18 1.366 . S
C18 C15 1.365 . S
C18 C17 1.366 . S
C18 H32 0.930 . S
C19 C16 1.378 . S
C19 N20 1.315 . S
C19 H22 0.930 . S
N20 Co0 2.194 . S
N20 C15 1.328 . S
N20 C19 1.315 . S
H21 C15 0.929 . S
H22 C19 0.930 . S
H23 C11 0.929 . S
H24 C13 0.929 . S
O25 Co0 2.351 . S
O25 C28 1.244 . S
O26 Co0 2.155 . S
O26 C28 1.240 . S
O27 Co0 2.096 . S
O27 C8 1.247 . S
C28 O25 1.244 . S
C28 O26 1.240 . S
H29 C3 0.931 . S
H30 C12 0.931 . S
H31 C16 0.929 . S
H32 C18 0.930 . S
Co33 N37 2.148 . S
Co33 N43 2.128 . S
Co33 N53 2.194 . S
Co33 O58 2.351 . S
Co33 O59 2.155 . S
Co33 O60 2.096 . S
C34 N37 1.301 . S
C34 N38 1.328 . S
C34 H39 0.930 . S
C35 C36 1.333 . S
C35 N37 1.317 . S
C35 H40 0.930 . S
C36 C35 1.333 . S
C36 N38 1.350 . S
C36 H62 0.931 . S
N37 Co33 2.148 . S
N37 C34 1.301 . S
N37 C35 1.317 . S
N38 C34 1.328 . S
N38 C36 1.350 . S
H39 C34 0.930 . S
H40 C35 0.930 . S
C41 O42 1.224 . S
C41 O60 1.247 . S
O42 C41 1.224 . S
N43 Co33 2.128 . S
N43 C44 1.355 . S
N43 C46 1.311 . S
C44 N43 1.355 . S
C44 C45 1.363 . S
C44 H56 0.929 . S
C45 C44 1.363 . S
C45 N47 1.375 . S
C45 H63 0.931 . S
C46 N43 1.311 . S
C46 N47 1.347 . S
C46 H57 0.929 . S
N47 C45 1.375 . S
N47 C46 1.347 . S
C48 C51 1.365 . S
C48 N53 1.328 . S
C48 H54 0.929 . S
C49 C50 1.362 . S
C49 C52 1.378 . S
C49 H64 0.929 . S
C50 C49 1.362 . S
C50 C51 1.366 . S
C51 C48 1.365 . S
C51 C50 1.366 . S
C51 H65 0.930 . S
C52 C49 1.378 . S
C52 N53 1.315 . S
C52 H55 0.930 . S
N53 Co33 2.194 . S
N53 C48 1.328 . S
N53 C52 1.315 . S
H54 C48 0.929 . S
H55 C52 0.930 . S
H56 C44 0.929 . S
H57 C46 0.929 . S
O58 Co33 2.351 . S
O58 C61 1.244 . S
O59 Co33 2.155 . S
O59 C61 1.240 . S
O60 Co33 2.096 . S
O60 C41 1.247 . S
C61 O58 1.244 . S
C61 O59 1.240 . S
H62 C36 0.931 . S
H63 C45 0.931 . S
H64 C49 0.929 . S
H65 C51 0.930 . S
Co66 N70 2.148 . S
Co66 N76 2.128 . S
Co66 N86 2.194 . S
Co66 O91 2.351 . S
Co66 O92 2.155 . S
Co66 O93 2.096 . S
C67 N70 1.301 . S
C67 N71 1.328 . S
C67 H72 0.930 . S
C68 C69 1.333 . S
C68 N70 1.317 . S
C68 H73 0.930 . S
C69 C68 1.333 . S
C69 N71 1.350 . S
C69 H95 0.931 . S
N70 Co66 2.148 . S
N70 C67 1.301 . S
N70 C68 1.317 . S
N71 C67 1.328 . S
N71 C69 1.350 . S
H72 C67 0.930 . S
H73 C68 0.930 . S
C74 O75 1.224 . S
C74 O93 1.247 . S
O75 C74 1.224 . S
N76 Co66 2.128 . S
N76 C77 1.355 . S
N76 C79 1.311 . S
C77 N76 1.355 . S
C77 C78 1.363 . S
C77 H89 0.929 . S
C78 C77 1.363 . S
C78 N80 1.375 . S
C78 H96 0.931 . S
C79 N76 1.311 . S
C79 N80 1.347 . S
C79 H90 0.929 . S
N80 C78 1.375 . S
N80 C79 1.347 . S
C81 C84 1.365 . S
C81 N86 1.328 . S
C81 H87 0.929 . S
C82 C83 1.362 . S
C82 C85 1.378 . S
C82 H97 0.929 . S
C83 C82 1.362 . S
C83 C84 1.366 . S
C84 C81 1.365 . S
C84 C83 1.366 . S
C84 H98 0.930 . S
C85 C82 1.378 . S
C85 N86 1.315 . S
C85 H88 0.930 . S
N86 Co66 2.194 . S
N86 C81 1.328 . S
N86 C85 1.315 . S
H87 C81 0.929 . S
H88 C85 0.930 . S
H89 C77 0.929 . S
H90 C79 0.929 . S
O91 Co66 2.351 . S
O91 C94 1.244 . S
O92 Co66 2.155 . S
O92 C94 1.240 . S
O93 Co66 2.096 . S
O93 C74 1.247 . S
C94 O91 1.244 . S
C94 O92 1.240 . S
H95 C69 0.931 . S
H96 C78 0.931 . S
H97 C82 0.929 . S
H98 C84 0.930 . S
Co99 N103 2.148 . S
Co99 N109 2.128 . S
Co99 N119 2.194 . S
Co99 O124 2.351 . S
Co99 O125 2.155 . S
Co99 O126 2.096 . S
C100 N103 1.301 . S
C100 N104 1.328 . S
C100 H105 0.930 . S
C101 C102 1.333 . S
C101 N103 1.317 . S
C101 H106 0.930 . S
C102 C101 1.333 . S
C102 N104 1.350 . S
C102 H128 0.931 . S
N103 Co99 2.148 . S
N103 C100 1.301 . S
N103 C101 1.317 . S
N104 C100 1.328 . S
N104 C102 1.350 . S
H105 C100 0.930 . S
H106 C101 0.930 . S
C107 O108 1.224 . S
C107 O126 1.247 . S
O108 C107 1.224 . S
N109 Co99 2.128 . S
N109 C110 1.355 . S
N109 C112 1.311 . S
C110 N109 1.355 . S
C110 C111 1.363 . S
C110 H122 0.929 . S
C111 C110 1.363 . S
C111 N113 1.375 . S
C111 H129 0.931 . S
C112 N109 1.311 . S
C112 N113 1.347 . S
C112 H123 0.929 . S
N113 C111 1.375 . S
N113 C112 1.347 . S
C114 C117 1.365 . S
C114 N119 1.328 . S
C114 H120 0.929 . S
C115 C116 1.362 . S
C115 C118 1.378 . S
C115 H130 0.929 . S
C116 C115 1.362 . S
C116 C117 1.366 . S
C117 C114 1.365 . S
C117 C116 1.366 . S
C117 H131 0.930 . S
C118 C115 1.378 . S
C118 N119 1.315 . S
C118 H121 0.930 . S
N119 Co99 2.194 . S
N119 C114 1.328 . S
N119 C118 1.315 . S
H120 C114 0.929 . S
H121 C118 0.930 . S
H122 C110 0.929 . S
H123 C112 0.929 . S
O124 Co99 2.351 . S
O124 C127 1.244 . S
O125 Co99 2.155 . S
O125 C127 1.240 . S
O126 Co99 2.096 . S
O126 C107 1.247 . S
C127 O124 1.244 . S
C127 O125 1.240 . S
H128 C102 0.931 . S
H129 C111 0.931 . S
H130 C115 0.929 . S
H131 C117 0.930 . S
Co132 N136 2.148 . S
Co132 N142 2.128 . S
Co132 N152 2.194 . S
Co132 O157 2.351 . S
Co132 O158 2.155 . S
Co132 O159 2.096 . S
C133 N136 1.301 . S
C133 N137 1.328 . S
C133 H138 0.930 . S
C134 C135 1.333 . S
C134 N136 1.317 . S
C134 H139 0.930 . S
C135 C134 1.333 . S
C135 N137 1.350 . S
C135 H161 0.931 . S
N136 Co132 2.148 . S
N136 C133 1.301 . S
N136 C134 1.317 . S
N137 C133 1.328 . S
N137 C135 1.350 . S
H138 C133 0.930 . S
H139 C134 0.930 . S
C140 O141 1.224 . S
C140 O159 1.247 . S
O141 C140 1.224 . S
N142 Co132 2.128 . S
N142 C143 1.355 . S
N142 C145 1.311 . S
C143 N142 1.355 . S
C143 C144 1.363 . S
C143 H155 0.929 . S
C144 C143 1.363 . S
C144 N146 1.375 . S
C144 H162 0.931 . S
C145 N142 1.311 . S
C145 N146 1.347 . S
C145 H156 0.929 . S
N146 C144 1.375 . S
N146 C145 1.347 . S
C147 C150 1.365 . S
C147 N152 1.328 . S
C147 H153 0.929 . S
C148 C149 1.362 . S
C148 C151 1.378 . S
C148 H163 0.929 . S
C149 C148 1.362 . S
C149 C150 1.366 . S
C150 C147 1.365 . S
C150 C149 1.366 . S
C150 H164 0.930 . S
C151 C148 1.378 . S
C151 N152 1.315 . S
C151 H154 0.930 . S
N152 Co132 2.194 . S
N152 C147 1.328 . S
N152 C151 1.315 . S
H153 C147 0.929 . S
H154 C151 0.930 . S
H155 C143 0.929 . S
H156 C145 0.929 . S
O157 Co132 2.351 . S
O157 C160 1.244 . S
O158 Co132 2.155 . S
O158 C160 1.240 . S
O159 Co132 2.096 . S
O159 C140 1.247 . S
C160 O157 1.244 . S
C160 O158 1.240 . S
H161 C135 0.931 . S
H162 C144 0.931 . S
H163 C148 0.929 . S
H164 C150 0.930 . S
Co165 N169 2.148 . S
Co165 N175 2.128 . S
Co165 N185 2.194 . S
Co165 O190 2.351 . S
Co165 O191 2.155 . S
Co165 O192 2.096 . S
C166 N169 1.301 . S
C166 N170 1.328 . S
C166 H171 0.930 . S
C167 C168 1.333 . S
C167 N169 1.317 . S
C167 H172 0.930 . S
C168 C167 1.333 . S
C168 N170 1.350 . S
C168 H194 0.931 . S
N169 Co165 2.148 . S
N169 C166 1.301 . S
N169 C167 1.317 . S
N170 C166 1.328 . S
N170 C168 1.350 . S
H171 C166 0.930 . S
H172 C167 0.930 . S
C173 O174 1.224 . S
C173 O192 1.247 . S
O174 C173 1.224 . S
N175 Co165 2.128 . S
N175 C176 1.355 . S
N175 C178 1.311 . S
C176 N175 1.355 . S
C176 C177 1.363 . S
C176 H188 0.929 . S
C177 C176 1.363 . S
C177 N179 1.375 . S
C177 H195 0.931 . S
C178 N175 1.311 . S
C178 N179 1.347 . S
C178 H189 0.929 . S
N179 C177 1.375 . S
N179 C178 1.347 . S
C180 C183 1.365 . S
C180 N185 1.328 . S
C180 H186 0.929 . S
C181 C182 1.362 . S
C181 C184 1.378 . S
C181 H196 0.929 . S
C182 C181 1.362 . S
C182 C183 1.366 . S
C183 C180 1.365 . S
C183 C182 1.366 . S
C183 H197 0.930 . S
C184 C181 1.378 . S
C184 N185 1.315 . S
C184 H187 0.930 . S
N185 Co165 2.194 . S
N185 C180 1.328 . S
N185 C184 1.315 . S
H186 C180 0.929 . S
H187 C184 0.930 . S
H188 C176 0.929 . S
H189 C178 0.929 . S
O190 Co165 2.351 . S
O190 C193 1.244 . S
O191 Co165 2.155 . S
O191 C193 1.240 . S
O192 Co165 2.096 . S
O192 C173 1.247 . S
C193 O190 1.244 . S
C193 O191 1.240 . S
H194 C168 0.931 . S
H195 C177 0.931 . S
H196 C181 0.929 . S
H197 C183 0.930 . S
Co198 N202 2.148 . S
Co198 N208 2.128 . S
Co198 N218 2.194 . S
Co198 O223 2.351 . S
Co198 O224 2.155 . S
Co198 O225 2.096 . S
C199 N202 1.301 . S
C199 N203 1.328 . S
C199 H204 0.930 . S
C200 C201 1.333 . S
C200 N202 1.317 . S
C200 H205 0.930 . S
C201 C200 1.333 . S
C201 N203 1.350 . S
C201 H227 0.931 . S
N202 Co198 2.148 . S
N202 C199 1.301 . S
N202 C200 1.317 . S
N203 C199 1.328 . S
N203 C201 1.350 . S
H204 C199 0.930 . S
H205 C200 0.930 . S
C206 O207 1.224 . S
C206 O225 1.247 . S
O207 C206 1.224 . S
N208 Co198 2.128 . S
N208 C209 1.355 . S
N208 C211 1.311 . S
C209 N208 1.355 . S
C209 C210 1.363 . S
C209 H221 0.929 . S
C210 C209 1.363 . S
C210 N212 1.375 . S
C210 H228 0.931 . S
C211 N208 1.311 . S
C211 N212 1.347 . S
C211 H222 0.929 . S
N212 C210 1.375 . S
N212 C211 1.347 . S
C213 C216 1.365 . S
C213 N218 1.328 . S
C213 H219 0.929 . S
C214 C215 1.362 . S
C214 C217 1.378 . S
C214 H229 0.929 . S
C215 C214 1.362 . S
C215 C216 1.366 . S
C216 C213 1.365 . S
C216 C215 1.366 . S
C216 H230 0.930 . S
C217 C214 1.378 . S
C217 N218 1.315 . S
C217 H220 0.930 . S
N218 Co198 2.194 . S
N218 C213 1.328 . S
N218 C217 1.315 . S
H219 C213 0.929 . S
H220 C217 0.930 . S
H221 C209 0.929 . S
H222 C211 0.929 . S
O223 Co198 2.351 . S
O223 C226 1.244 . S
O224 Co198 2.155 . S
O224 C226 1.240 . S
O225 Co198 2.096 . S
O225 C206 1.247 . S
C226 O223 1.244 . S
C226 O224 1.240 . S
H227 C201 0.931 . S
H228 C210 0.931 . S
H229 C214 0.929 . S
H230 C216 0.930 . S
Co231 N235 2.148 . S
Co231 N241 2.128 . S
Co231 N251 2.194 . S
Co231 O256 2.351 . S
Co231 O257 2.155 . S
Co231 O258 2.096 . S
C232 N235 1.301 . S
C232 N236 1.328 . S
C232 H237 0.930 . S
C233 C234 1.333 . S
C233 N235 1.317 . S
C233 H238 0.930 . S
C234 C233 1.333 . S
C234 N236 1.350 . S
C234 H260 0.931 . S
N235 Co231 2.148 . S
N235 C232 1.301 . S
N235 C233 1.317 . S
N236 C232 1.328 . S
N236 C234 1.350 . S
H237 C232 0.930 . S
H238 C233 0.930 . S
C239 O240 1.224 . S
C239 O258 1.247 . S
O240 C239 1.224 . S
N241 Co231 2.128 . S
N241 C242 1.355 . S
N241 C244 1.311 . S
C242 N241 1.355 . S
C242 C243 1.363 . S
C242 H254 0.929 . S
C243 C242 1.363 . S
C243 N245 1.375 . S
C243 H261 0.931 . S
C244 N241 1.311 . S
C244 N245 1.347 . S
C244 H255 0.929 . S
N245 C243 1.375 . S
N245 C244 1.347 . S
C246 C249 1.365 . S
C246 N251 1.328 . S
C246 H252 0.929 . S
C247 C248 1.362 . S
C247 C250 1.378 . S
C247 H262 0.929 . S
C248 C247 1.362 . S
C248 C249 1.366 . S
C249 C246 1.365 . S
C249 C248 1.366 . S
C249 H263 0.930 . S
C250 C247 1.378 . S
C250 N251 1.315 . S
C250 H253 0.930 . S
N251 Co231 2.194 . S
N251 C246 1.328 . S
N251 C250 1.315 . S
H252 C246 0.929 . S
H253 C250 0.930 . S
H254 C242 0.929 . S
H255 C244 0.929 . S
O256 Co231 2.351 . S
O256 C259 1.244 . S
O257 Co231 2.155 . S
O257 C259 1.240 . S
O258 Co231 2.096 . S
O258 C239 1.247 . S
C259 O256 1.244 . S
C259 O257 1.240 . S
H260 C234 0.931 . S
H261 C243 0.931 . S
H262 C247 0.929 . S
H263 C249 0.930 . S
Co264 N268 2.148 . S
Co264 N274 2.128 . S
Co264 N284 2.194 . S
Co264 O289 2.351 . S
Co264 O290 2.155 . S
Co264 O291 2.096 . S
C265 N268 1.301 . S
C265 N269 1.328 . S
C265 H270 0.930 . S
C266 C267 1.333 . S
C266 N268 1.317 . S
C266 H271 0.930 . S
C267 C266 1.333 . S
C267 N269 1.350 . S
C267 H293 0.931 . S
N268 Co264 2.148 . S
N268 C265 1.301 . S
N268 C266 1.317 . S
N269 C265 1.328 . S
N269 C267 1.350 . S
H270 C265 0.930 . S
H271 C266 0.930 . S
C272 O273 1.224 . S
C272 O291 1.247 . S
O273 C272 1.224 . S
N274 Co264 2.128 . S
N274 C275 1.355 . S
N274 C277 1.311 . S
C275 N274 1.355 . S
C275 C276 1.363 . S
C275 H287 0.929 . S
C276 C275 1.363 . S
C276 N278 1.375 . S
C276 H294 0.931 . S
C277 N274 1.311 . S
C277 N278 1.347 . S
C277 H288 0.929 . S
N278 C276 1.375 . S
N278 C277 1.347 . S
C279 C282 1.365 . S
C279 N284 1.328 . S
C279 H285 0.929 . S
C280 C281 1.362 . S
C280 C283 1.378 . S
C280 H295 0.929 . S
C281 C280 1.362 . S
C281 C282 1.366 . S
C282 C279 1.365 . S
C282 C281 1.366 . S
C282 H296 0.930 . S
C283 C280 1.378 . S
C283 N284 1.315 . S
C283 H286 0.930 . S
N284 Co264 2.194 . S
N284 C279 1.328 . S
N284 C283 1.315 . S
H285 C279 0.929 . S
H286 C283 0.930 . S
H287 C275 0.929 . S
H288 C277 0.929 . S
O289 Co264 2.351 . S
O289 C292 1.244 . S
O290 Co264 2.155 . S
O290 C292 1.240 . S
O291 Co264 2.096 . S
O291 C272 1.247 . S
C292 O289 1.244 . S
C292 O290 1.240 . S
H293 C267 0.931 . S
H294 C276 0.931 . S
H295 C280 0.929 . S
H296 C282 0.930 . S
Co297 N301 2.148 . S
Co297 N307 2.128 . S
Co297 N317 2.194 . S
Co297 O322 2.351 . S
Co297 O323 2.155 . S
Co297 O324 2.096 . S
C298 N301 1.301 . S
C298 N302 1.328 . S
C298 H303 0.930 . S
C299 C300 1.333 . S
C299 N301 1.317 . S
C299 H304 0.930 . S
C300 C299 1.333 . S
C300 N302 1.350 . S
C300 H326 0.931 . S
N301 Co297 2.148 . S
N301 C298 1.301 . S
N301 C299 1.317 . S
N302 C298 1.328 . S
N302 C300 1.350 . S
H303 C298 0.930 . S
H304 C299 0.930 . S
C305 O306 1.224 . S
C305 O324 1.247 . S
O306 C305 1.224 . S
N307 Co297 2.128 . S
N307 C308 1.355 . S
N307 C310 1.311 . S
C308 N307 1.355 . S
C308 C309 1.363 . S
C308 H320 0.929 . S
C309 C308 1.363 . S
C309 N311 1.375 . S
C309 H327 0.931 . S
C310 N307 1.311 . S
C310 N311 1.347 . S
C310 H321 0.929 . S
N311 C309 1.375 . S
N311 C310 1.347 . S
C312 C315 1.365 . S
C312 N317 1.328 . S
C312 H318 0.929 . S
C313 C314 1.362 . S
C313 C316 1.378 . S
C313 H328 0.929 . S
C314 C313 1.362 . S
C314 C315 1.366 . S
C315 C312 1.365 . S
C315 C314 1.366 . S
C315 H329 0.930 . S
C316 C313 1.378 . S
C316 N317 1.315 . S
C316 H319 0.930 . S
N317 Co297 2.194 . S
N317 C312 1.328 . S
N317 C316 1.315 . S
H318 C312 0.929 . S
H319 C316 0.930 . S
H320 C308 0.929 . S
H321 C310 0.929 . S
O322 Co297 2.351 . S
O322 C325 1.244 . S
O323 Co297 2.155 . S
O323 C325 1.240 . S
O324 Co297 2.096 . S
O324 C305 1.247 . S
C325 O322 1.244 . S
C325 O323 1.240 . S
H326 C300 0.931 . S
H327 C309 0.931 . S
H328 C313 0.929 . S
H329 C315 0.930 . S
Co330 N334 2.148 . S
Co330 N340 2.128 . S
Co330 N350 2.194 . S
Co330 O355 2.351 . S
Co330 O356 2.155 . S
Co330 O357 2.096 . S
C331 N334 1.301 . S
C331 N335 1.328 . S
C331 H336 0.930 . S
C332 C333 1.333 . S
C332 N334 1.317 . S
C332 H337 0.930 . S
C333 C332 1.333 . S
C333 N335 1.350 . S
C333 H359 0.931 . S
N334 Co330 2.148 . S
N334 C331 1.301 . S
N334 C332 1.317 . S
N335 C331 1.328 . S
N335 C333 1.350 . S
H336 C331 0.930 . S
H337 C332 0.930 . S
C338 O339 1.224 . S
C338 O357 1.247 . S
O339 C338 1.224 . S
N340 Co330 2.128 . S
N340 C341 1.355 . S
N340 C343 1.311 . S
C341 N340 1.355 . S
C341 C342 1.363 . S
C341 H353 0.929 . S
C342 C341 1.363 . S
C342 N344 1.375 . S
C342 H360 0.931 . S
C343 N340 1.311 . S
C343 N344 1.347 . S
C343 H354 0.929 . S
N344 C342 1.375 . S
N344 C343 1.347 . S
C345 C348 1.365 . S
C345 N350 1.328 . S
C345 H351 0.929 . S
C346 C347 1.362 . S
C346 C349 1.378 . S
C346 H361 0.929 . S
C347 C346 1.362 . S
C347 C348 1.366 . S
C348 C345 1.365 . S
C348 C347 1.366 . S
C348 H362 0.930 . S
C349 C346 1.378 . S
C349 N350 1.315 . S
C349 H352 0.930 . S
N350 Co330 2.194 . S
N350 C345 1.328 . S
N350 C349 1.315 . S
H351 C345 0.929 . S
H352 C349 0.930 . S
H353 C341 0.929 . S
H354 C343 0.929 . S
O355 Co330 2.351 . S
O355 C358 1.244 . S
O356 Co330 2.155 . S
O356 C358 1.240 . S
O357 Co330 2.096 . S
O357 C338 1.247 . S
C358 O355 1.244 . S
C358 O356 1.240 . S
H359 C333 0.931 . S
H360 C342 0.931 . S
H361 C346 0.929 . S
H362 C348 0.930 . S
Co363 N367 2.148 . S
Co363 N373 2.128 . S
Co363 N383 2.194 . S
Co363 O388 2.351 . S
Co363 O389 2.155 . S
Co363 O390 2.096 . S
C364 N367 1.301 . S
C364 N368 1.328 . S
C364 H369 0.930 . S
C365 C366 1.333 . S
C365 N367 1.317 . S
C365 H370 0.930 . S
C366 C365 1.333 . S
C366 N368 1.350 . S
C366 H392 0.931 . S
N367 Co363 2.148 . S
N367 C364 1.301 . S
N367 C365 1.317 . S
N368 C364 1.328 . S
N368 C366 1.350 . S
H369 C364 0.930 . S
H370 C365 0.930 . S
C371 O372 1.224 . S
C371 O390 1.247 . S
O372 C371 1.224 . S
N373 Co363 2.128 . S
N373 C374 1.355 . S
N373 C376 1.311 . S
C374 N373 1.355 . S
C374 C375 1.363 . S
C374 H386 0.929 . S
C375 C374 1.363 . S
C375 N377 1.375 . S
C375 H393 0.931 . S
C376 N373 1.311 . S
C376 N377 1.347 . S
C376 H387 0.929 . S
N377 C375 1.375 . S
N377 C376 1.347 . S
C378 C381 1.365 . S
C378 N383 1.328 . S
C378 H384 0.929 . S
C379 C380 1.362 . S
C379 C382 1.378 . S
C379 H394 0.929 . S
C380 C379 1.362 . S
C380 C381 1.366 . S
C381 C378 1.365 . S
C381 C380 1.366 . S
C381 H395 0.930 . S
C382 C379 1.378 . S
C382 N383 1.315 . S
C382 H385 0.930 . S
N383 Co363 2.194 . S
N383 C378 1.328 . S
N383 C382 1.315 . S
H384 C378 0.929 . S
H385 C382 0.930 . S
H386 C374 0.929 . S
H387 C376 0.929 . S
O388 Co363 2.351 . S
O388 C391 1.244 . S
O389 Co363 2.155 . S
O389 C391 1.240 . S
O390 Co363 2.096 . S
O390 C371 1.247 . S
C391 O388 1.244 . S
C391 O389 1.240 . S
H392 C366 0.931 . S
H393 C375 0.931 . S
H394 C379 0.929 . S
H395 C381 0.930 . S
Co396 N400 2.148 . S
Co396 N406 2.128 . S
Co396 N416 2.194 . S
Co396 O421 2.351 . S
Co396 O422 2.155 . S
Co396 O423 2.096 . S
C397 N400 1.301 . S
C397 N401 1.328 . S
C397 H402 0.930 . S
C398 C399 1.333 . S
C398 N400 1.317 . S
C398 H403 0.930 . S
C399 C398 1.333 . S
C399 N401 1.350 . S
C399 H425 0.931 . S
N400 Co396 2.148 . S
N400 C397 1.301 . S
N400 C398 1.317 . S
N401 C397 1.328 . S
N401 C399 1.350 . S
H402 C397 0.930 . S
H403 C398 0.930 . S
C404 O405 1.224 . S
C404 O423 1.247 . S
O405 C404 1.224 . S
N406 Co396 2.128 . S
N406 C407 1.355 . S
N406 C409 1.311 . S
C407 N406 1.355 . S
C407 C408 1.363 . S
C407 H419 0.929 . S
C408 C407 1.363 . S
C408 N410 1.375 . S
C408 H426 0.931 . S
C409 N406 1.311 . S
C409 N410 1.347 . S
C409 H420 0.929 . S
N410 C408 1.375 . S
N410 C409 1.347 . S
C411 C414 1.365 . S
C411 N416 1.328 . S
C411 H417 0.929 . S
C412 C413 1.362 . S
C412 C415 1.378 . S
C412 H427 0.929 . S
C413 C412 1.362 . S
C413 C414 1.366 . S
C414 C411 1.365 . S
C414 C413 1.366 . S
C414 H428 0.930 . S
C415 C412 1.378 . S
C415 N416 1.315 . S
C415 H418 0.930 . S
N416 Co396 2.194 . S
N416 C411 1.328 . S
N416 C415 1.315 . S
H417 C411 0.929 . S
H418 C415 0.930 . S
H419 C407 0.929 . S
H420 C409 0.929 . S
O421 Co396 2.351 . S
O421 C424 1.244 . S
O422 Co396 2.155 . S
O422 C424 1.240 . S
O423 Co396 2.096 . S
O423 C404 1.247 . S
C424 O421 1.244 . S
C424 O422 1.240 . S
H425 C399 0.931 . S
H426 C408 0.931 . S
H427 C412 0.929 . S
H428 C414 0.930 . S
Co429 N433 2.148 . S
Co429 N439 2.128 . S
Co429 N449 2.194 . S
Co429 O454 2.351 . S
Co429 O455 2.155 . S
Co429 O456 2.096 . S
C430 N433 1.301 . S
C430 N434 1.328 . S
C430 H435 0.930 . S
C431 C432 1.333 . S
C431 N433 1.317 . S
C431 H436 0.930 . S
C432 C431 1.333 . S
C432 N434 1.350 . S
C432 H458 0.931 . S
N433 Co429 2.148 . S
N433 C430 1.301 . S
N433 C431 1.317 . S
N434 C430 1.328 . S
N434 C432 1.350 . S
H435 C430 0.930 . S
H436 C431 0.930 . S
C437 O438 1.224 . S
C437 O456 1.247 . S
O438 C437 1.224 . S
N439 Co429 2.128 . S
N439 C440 1.355 . S
N439 C442 1.311 . S
C440 N439 1.355 . S
C440 C441 1.363 . S
C440 H452 0.929 . S
C441 C440 1.363 . S
C441 N443 1.375 . S
C441 H459 0.931 . S
C442 N439 1.311 . S
C442 N443 1.347 . S
C442 H453 0.929 . S
N443 C441 1.375 . S
N443 C442 1.347 . S
C444 C447 1.365 . S
C444 N449 1.328 . S
C444 H450 0.929 . S
C445 C446 1.362 . S
C445 C448 1.378 . S
C445 H460 0.929 . S
C446 C445 1.362 . S
C446 C447 1.366 . S
C447 C444 1.365 . S
C447 C446 1.366 . S
C447 H461 0.930 . S
C448 C445 1.378 . S
C448 N449 1.315 . S
C448 H451 0.930 . S
N449 Co429 2.194 . S
N449 C444 1.328 . S
N449 C448 1.315 . S
H450 C444 0.929 . S
H451 C448 0.930 . S
H452 C440 0.929 . S
H453 C442 0.929 . S
O454 Co429 2.351 . S
O454 C457 1.244 . S
O455 Co429 2.155 . S
O455 C457 1.240 . S
O456 Co429 2.096 . S
O456 C437 1.247 . S
C457 O454 1.244 . S
C457 O455 1.240 . S
H458 C432 0.931 . S
H459 C441 0.931 . S
H460 C445 0.929 . S
H461 C447 0.930 . S
Co462 N466 2.148 . S
Co462 N472 2.128 . S
Co462 N482 2.194 . S
Co462 O487 2.351 . S
Co462 O488 2.155 . S
Co462 O489 2.096 . S
C463 N466 1.301 . S
C463 N467 1.328 . S
C463 H468 0.930 . S
C464 C465 1.333 . S
C464 N466 1.317 . S
C464 H469 0.930 . S
C465 C464 1.333 . S
C465 N467 1.350 . S
C465 H491 0.931 . S
N466 Co462 2.148 . S
N466 C463 1.301 . S
N466 C464 1.317 . S
N467 C463 1.328 . S
N467 C465 1.350 . S
H468 C463 0.930 . S
H469 C464 0.930 . S
C470 O471 1.224 . S
C470 O489 1.247 . S
O471 C470 1.224 . S
N472 Co462 2.128 . S
N472 C473 1.355 . S
N472 C475 1.311 . S
C473 N472 1.355 . S
C473 C474 1.363 . S
C473 H485 0.929 . S
C474 C473 1.363 . S
C474 N476 1.375 . S
C474 H492 0.931 . S
C475 N472 1.311 . S
C475 N476 1.347 . S
C475 H486 0.929 . S
N476 C474 1.375 . S
N476 C475 1.347 . S
C477 C480 1.365 . S
C477 N482 1.328 . S
C477 H483 0.929 . S
C478 C479 1.362 . S
C478 C481 1.378 . S
C478 H493 0.929 . S
C479 C478 1.362 . S
C479 C480 1.366 . S
C480 C477 1.365 . S
C480 C479 1.366 . S
C480 H494 0.930 . S
C481 C478 1.378 . S
C481 N482 1.315 . S
C481 H484 0.930 . S
N482 Co462 2.194 . S
N482 C477 1.328 . S
N482 C481 1.315 . S
H483 C477 0.929 . S
H484 C481 0.930 . S
H485 C473 0.929 . S
H486 C475 0.929 . S
O487 Co462 2.351 . S
O487 C490 1.244 . S
O488 Co462 2.155 . S
O488 C490 1.240 . S
O489 Co462 2.096 . S
O489 C470 1.247 . S
C490 O487 1.244 . S
C490 O488 1.240 . S
H491 C465 0.931 . S
H492 C474 0.931 . S
H493 C478 0.929 . S
H494 C480 0.930 . S
Co495 N499 2.148 . S
Co495 N505 2.128 . S
Co495 N515 2.194 . S
Co495 O520 2.351 . S
Co495 O521 2.155 . S
Co495 O522 2.096 . S
C496 N499 1.301 . S
C496 N500 1.328 . S
C496 H501 0.930 . S
C497 C498 1.333 . S
C497 N499 1.317 . S
C497 H502 0.930 . S
C498 C497 1.333 . S
C498 N500 1.350 . S
C498 H524 0.931 . S
N499 Co495 2.148 . S
N499 C496 1.301 . S
N499 C497 1.317 . S
N500 C496 1.328 . S
N500 C498 1.350 . S
H501 C496 0.930 . S
H502 C497 0.930 . S
C503 O504 1.224 . S
C503 O522 1.247 . S
O504 C503 1.224 . S
N505 Co495 2.128 . S
N505 C506 1.355 . S
N505 C508 1.311 . S
C506 N505 1.355 . S
C506 C507 1.363 . S
C506 H518 0.929 . S
C507 C506 1.363 . S
C507 N509 1.375 . S
C507 H525 0.931 . S
C508 N505 1.311 . S
C508 N509 1.347 . S
C508 H519 0.929 . S
N509 C507 1.375 . S
N509 C508 1.347 . S
C510 C513 1.365 . S
C510 N515 1.328 . S
C510 H516 0.929 . S
C511 C512 1.362 . S
C511 C514 1.378 . S
C511 H526 0.929 . S
C512 C511 1.362 . S
C512 C513 1.366 . S
C513 C510 1.365 . S
C513 C512 1.366 . S
C513 H527 0.930 . S
C514 C511 1.378 . S
C514 N515 1.315 . S
C514 H517 0.930 . S
N515 Co495 2.194 . S
N515 C510 1.328 . S
N515 C514 1.315 . S
H516 C510 0.929 . S
H517 C514 0.930 . S
H518 C506 0.929 . S
H519 C508 0.929 . S
O520 Co495 2.351 . S
O520 C523 1.244 . S
O521 Co495 2.155 . S
O521 C523 1.240 . S
O522 Co495 2.096 . S
O522 C503 1.247 . S
C523 O520 1.244 . S
C523 O521 1.240 . S
H524 C498 0.931 . S
H525 C507 0.931 . S
H526 C511 0.929 . S
H527 C513 0.930 . S
Co528 N532 2.148 . S
Co528 N538 2.128 . S
Co528 N548 2.194 . S
Co528 O553 2.351 . S
Co528 O554 2.155 . S
Co528 O555 2.096 . S
C529 N532 1.301 . S
C529 N533 1.328 . S
C529 H534 0.930 . S
C530 C531 1.333 . S
C530 N532 1.317 . S
C530 H535 0.930 . S
C531 C530 1.333 . S
C531 N533 1.350 . S
C531 H557 0.931 . S
N532 Co528 2.148 . S
N532 C529 1.301 . S
N532 C530 1.317 . S
N533 C529 1.328 . S
N533 C531 1.350 . S
H534 C529 0.930 . S
H535 C530 0.930 . S
C536 O537 1.224 . S
C536 O555 1.247 . S
O537 C536 1.224 . S
N538 Co528 2.128 . S
N538 C539 1.355 . S
N538 C541 1.311 . S
C539 N538 1.355 . S
C539 C540 1.363 . S
C539 H551 0.929 . S
C540 C539 1.363 . S
C540 N542 1.375 . S
C540 H558 0.931 . S
C541 N538 1.311 . S
C541 N542 1.347 . S
C541 H552 0.929 . S
N542 C540 1.375 . S
N542 C541 1.347 . S
C543 C546 1.365 . S
C543 N548 1.328 . S
C543 H549 0.929 . S
C544 C545 1.362 . S
C544 C547 1.378 . S
C544 H559 0.929 . S
C545 C544 1.362 . S
C545 C546 1.366 . S
C546 C543 1.365 . S
C546 C545 1.366 . S
C546 H560 0.930 . S
C547 C544 1.378 . S
C547 N548 1.315 . S
C547 H550 0.930 . S
N548 Co528 2.194 . S
N548 C543 1.328 . S
N548 C547 1.315 . S
H549 C543 0.929 . S
H550 C547 0.930 . S
H551 C539 0.929 . S
H552 C541 0.929 . S
O553 Co528 2.351 . S
O553 C556 1.244 . S
O554 Co528 2.155 . S
O554 C556 1.240 . S
O555 Co528 2.096 . S
O555 C536 1.247 . S
C556 O553 1.244 . S
C556 O554 1.240 . S
H557 C531 0.931 . S
H558 C540 0.931 . S
H559 C544 0.929 . S
H560 C546 0.930 . S
Co561 N565 2.148 . S
Co561 N571 2.128 . S
Co561 N581 2.194 . S
Co561 O586 2.351 . S
Co561 O587 2.155 . S
Co561 O588 2.096 . S
C562 N565 1.301 . S
C562 N566 1.328 . S
C562 H567 0.930 . S
C563 C564 1.333 . S
C563 N565 1.317 . S
C563 H568 0.930 . S
C564 C563 1.333 . S
C564 N566 1.350 . S
C564 H590 0.931 . S
N565 Co561 2.148 . S
N565 C562 1.301 . S
N565 C563 1.317 . S
N566 C562 1.328 . S
N566 C564 1.350 . S
H567 C562 0.930 . S
H568 C563 0.930 . S
C569 O570 1.224 . S
C569 O588 1.247 . S
O570 C569 1.224 . S
N571 Co561 2.128 . S
N571 C572 1.355 . S
N571 C574 1.311 . S
C572 N571 1.355 . S
C572 C573 1.363 . S
C572 H584 0.929 . S
C573 C572 1.363 . S
C573 N575 1.375 . S
C573 H591 0.931 . S
C574 N571 1.311 . S
C574 N575 1.347 . S
C574 H585 0.929 . S
N575 C573 1.375 . S
N575 C574 1.347 . S
C576 C579 1.365 . S
C576 N581 1.328 . S
C576 H582 0.929 . S
C577 C578 1.362 . S
C577 C580 1.378 . S
C577 H592 0.929 . S
C578 C577 1.362 . S
C578 C579 1.366 . S
C579 C576 1.365 . S
C579 C578 1.366 . S
C579 H593 0.930 . S
C580 C577 1.378 . S
C580 N581 1.315 . S
C580 H583 0.930 . S
N581 Co561 2.194 . S
N581 C576 1.328 . S
N581 C580 1.315 . S
H582 C576 0.929 . S
H583 C580 0.930 . S
H584 C572 0.929 . S
H585 C574 0.929 . S
O586 Co561 2.351 . S
O586 C589 1.244 . S
O587 Co561 2.155 . S
O587 C589 1.240 . S
O588 Co561 2.096 . S
O588 C569 1.247 . S
C589 O586 1.244 . S
C589 O587 1.240 . S
H590 C564 0.931 . S
H591 C573 0.931 . S
H592 C577 0.929 . S
H593 C579 0.930 . S
Co594 N598 2.148 . S
Co594 N604 2.128 . S
Co594 N614 2.194 . S
Co594 O619 2.351 . S
Co594 O620 2.155 . S
Co594 O621 2.096 . S
C595 N598 1.301 . S
C595 N599 1.328 . S
C595 H600 0.930 . S
C596 C597 1.333 . S
C596 N598 1.317 . S
C596 H601 0.930 . S
C597 C596 1.333 . S
C597 N599 1.350 . S
C597 H623 0.931 . S
N598 Co594 2.148 . S
N598 C595 1.301 . S
N598 C596 1.317 . S
N599 C595 1.328 . S
N599 C597 1.350 . S
H600 C595 0.930 . S
H601 C596 0.930 . S
C602 O603 1.224 . S
C602 O621 1.247 . S
O603 C602 1.224 . S
N604 Co594 2.128 . S
N604 C605 1.355 . S
N604 C607 1.311 . S
C605 N604 1.355 . S
C605 C606 1.363 . S
C605 H617 0.929 . S
C606 C605 1.363 . S
C606 N608 1.375 . S
C606 H624 0.931 . S
C607 N604 1.311 . S
C607 N608 1.347 . S
C607 H618 0.929 . S
N608 C606 1.375 . S
N608 C607 1.347 . S
C609 C612 1.365 . S
C609 N614 1.328 . S
C609 H615 0.929 . S
C610 C611 1.362 . S
C610 C613 1.378 . S
C610 H625 0.929 . S
C611 C610 1.362 . S
C611 C612 1.366 . S
C612 C609 1.365 . S
C612 C611 1.366 . S
C612 H626 0.930 . S
C613 C610 1.378 . S
C613 N614 1.315 . S
C613 H616 0.930 . S
N614 Co594 2.194 . S
N614 C609 1.328 . S
N614 C613 1.315 . S
H615 C609 0.929 . S
H616 C613 0.930 . S
H617 C605 0.929 . S
H618 C607 0.929 . S
O619 Co594 2.351 . S
O619 C622 1.244 . S
O620 Co594 2.155 . S
O620 C622 1.240 . S
O621 Co594 2.096 . S
O621 C602 1.247 . S
C622 O619 1.244 . S
C622 O620 1.240 . S
H623 C597 0.931 . S
H624 C606 0.931 . S
H625 C610 0.929 . S
H626 C612 0.930 . S
Co627 N631 2.148 . S
Co627 N637 2.128 . S
Co627 N647 2.194 . S
Co627 O652 2.351 . S
Co627 O653 2.155 . S
Co627 O654 2.096 . S
C628 N631 1.301 . S
C628 N632 1.328 . S
C628 H633 0.930 . S
C629 C630 1.333 . S
C629 N631 1.317 . S
C629 H634 0.930 . S
C630 C629 1.333 . S
C630 N632 1.350 . S
C630 H656 0.931 . S
N631 Co627 2.148 . S
N631 C628 1.301 . S
N631 C629 1.317 . S
N632 C628 1.328 . S
N632 C630 1.350 . S
H633 C628 0.930 . S
H634 C629 0.930 . S
C635 O636 1.224 . S
C635 O654 1.247 . S
O636 C635 1.224 . S
N637 Co627 2.128 . S
N637 C638 1.355 . S
N637 C640 1.311 . S
C638 N637 1.355 . S
C638 C639 1.363 . S
C638 H650 0.929 . S
C639 C638 1.363 . S
C639 N641 1.375 . S
C639 H657 0.931 . S
C640 N637 1.311 . S
C640 N641 1.347 . S
C640 H651 0.929 . S
N641 C639 1.375 . S
N641 C640 1.347 . S
C642 C645 1.365 . S
C642 N647 1.328 . S
C642 H648 0.929 . S
C643 C644 1.362 . S
C643 C646 1.378 . S
C643 H658 0.929 . S
C644 C643 1.362 . S
C644 C645 1.366 . S
C645 C642 1.365 . S
C645 C644 1.366 . S
C645 H659 0.930 . S
C646 C643 1.378 . S
C646 N647 1.315 . S
C646 H649 0.930 . S
N647 Co627 2.194 . S
N647 C642 1.328 . S
N647 C646 1.315 . S
H648 C642 0.929 . S
H649 C646 0.930 . S
H650 C638 0.929 . S
H651 C640 0.929 . S
O652 Co627 2.351 . S
O652 C655 1.244 . S
O653 Co627 2.155 . S
O653 C655 1.240 . S
O654 Co627 2.096 . S
O654 C635 1.247 . S
C655 O652 1.244 . S
C655 O653 1.240 . S
H656 C630 0.931 . S
H657 C639 0.931 . S
H658 C643 0.929 . S
H659 C645 0.930 . S
Co660 N664 2.148 . S
Co660 N670 2.128 . S
Co660 N680 2.194 . S
Co660 O685 2.351 . S
Co660 O686 2.155 . S
Co660 O687 2.096 . S
C661 N664 1.301 . S
C661 N665 1.328 . S
C661 H666 0.930 . S
C662 C663 1.333 . S
C662 N664 1.317 . S
C662 H667 0.930 . S
C663 C662 1.333 . S
C663 N665 1.350 . S
C663 H689 0.931 . S
N664 Co660 2.148 . S
N664 C661 1.301 . S
N664 C662 1.317 . S
N665 C661 1.328 . S
N665 C663 1.350 . S
H666 C661 0.930 . S
H667 C662 0.930 . S
C668 O669 1.224 . S
C668 O687 1.247 . S
O669 C668 1.224 . S
N670 Co660 2.128 . S
N670 C671 1.355 . S
N670 C673 1.311 . S
C671 N670 1.355 . S
C671 C672 1.363 . S
C671 H683 0.929 . S
C672 C671 1.363 . S
C672 N674 1.375 . S
C672 H690 0.931 . S
C673 N670 1.311 . S
C673 N674 1.347 . S
C673 H684 0.929 . S
N674 C672 1.375 . S
N674 C673 1.347 . S
C675 C678 1.365 . S
C675 N680 1.328 . S
C675 H681 0.929 . S
C676 C677 1.362 . S
C676 C679 1.378 . S
C676 H691 0.929 . S
C677 C676 1.362 . S
C677 C678 1.366 . S
C678 C675 1.365 . S
C678 C677 1.366 . S
C678 H692 0.930 . S
C679 C676 1.378 . S
C679 N680 1.315 . S
C679 H682 0.930 . S
N680 Co660 2.194 . S
N680 C675 1.328 . S
N680 C679 1.315 . S
H681 C675 0.929 . S
H682 C679 0.930 . S
H683 C671 0.929 . S
H684 C673 0.929 . S
O685 Co660 2.351 . S
O685 C688 1.244 . S
O686 Co660 2.155 . S
O686 C688 1.240 . S
O687 Co660 2.096 . S
O687 C668 1.247 . S
C688 O685 1.244 . S
C688 O686 1.240 . S
H689 C663 0.931 . S
H690 C672 0.931 . S
H691 C676 0.929 . S
H692 C678 0.930 . S
Co693 N697 2.148 . S
Co693 N703 2.128 . S
Co693 N713 2.194 . S
Co693 O718 2.351 . S
Co693 O719 2.155 . S
Co693 O720 2.096 . S
C694 N697 1.301 . S
C694 N698 1.328 . S
C694 H699 0.930 . S
C695 C696 1.333 . S
C695 N697 1.317 . S
C695 H700 0.930 . S
C696 C695 1.333 . S
C696 N698 1.350 . S
C696 H722 0.931 . S
N697 Co693 2.148 . S
N697 C694 1.301 . S
N697 C695 1.317 . S
N698 C694 1.328 . S
N698 C696 1.350 . S
H699 C694 0.930 . S
H700 C695 0.930 . S
C701 O702 1.224 . S
C701 O720 1.247 . S
O702 C701 1.224 . S
N703 Co693 2.128 . S
N703 C704 1.355 . S
N703 C706 1.311 . S
C704 N703 1.355 . S
C704 C705 1.363 . S
C704 H716 0.929 . S
C705 C704 1.363 . S
C705 N707 1.375 . S
C705 H723 0.931 . S
C706 N703 1.311 . S
C706 N707 1.347 . S
C706 H717 0.929 . S
N707 C705 1.375 . S
N707 C706 1.347 . S
C708 C711 1.365 . S
C708 N713 1.328 . S
C708 H714 0.929 . S
C709 C710 1.362 . S
C709 C712 1.378 . S
C709 H724 0.929 . S
C710 C709 1.362 . S
C710 C711 1.366 . S
C711 C708 1.365 . S
C711 C710 1.366 . S
C711 H725 0.930 . S
C712 C709 1.378 . S
C712 N713 1.315 . S
C712 H715 0.930 . S
N713 Co693 2.194 . S
N713 C708 1.328 . S
N713 C712 1.315 . S
H714 C708 0.929 . S
H715 C712 0.930 . S
H716 C704 0.929 . S
H717 C706 0.929 . S
O718 Co693 2.351 . S
O718 C721 1.244 . S
O719 Co693 2.155 . S
O719 C721 1.240 . S
O720 Co693 2.096 . S
O720 C701 1.247 . S
C721 O718 1.244 . S
C721 O719 1.240 . S
H722 C696 0.931 . S
H723 C705 0.931 . S
H724 C709 0.929 . S
H725 C711 0.930 . S
Co726 N730 2.148 . S
Co726 N736 2.128 . S
Co726 N746 2.194 . S
Co726 O751 2.351 . S
Co726 O752 2.155 . S
Co726 O753 2.096 . S
C727 N730 1.301 . S
C727 N731 1.328 . S
C727 H732 0.930 . S
C728 C729 1.333 . S
C728 N730 1.317 . S
C728 H733 0.930 . S
C729 C728 1.333 . S
C729 N731 1.350 . S
C729 H755 0.931 . S
N730 Co726 2.148 . S
N730 C727 1.301 . S
N730 C728 1.317 . S
N731 C727 1.328 . S
N731 C729 1.350 . S
H732 C727 0.930 . S
H733 C728 0.930 . S
C734 O735 1.224 . S
C734 O753 1.247 . S
O735 C734 1.224 . S
N736 Co726 2.128 . S
N736 C737 1.355 . S
N736 C739 1.311 . S
C737 N736 1.355 . S
C737 C738 1.363 . S
C737 H749 0.929 . S
C738 C737 1.363 . S
C738 N740 1.375 . S
C738 H756 0.931 . S
C739 N736 1.311 . S
C739 N740 1.347 . S
C739 H750 0.929 . S
N740 C738 1.375 . S
N740 C739 1.347 . S
C741 C744 1.365 . S
C741 N746 1.328 . S
C741 H747 0.929 . S
C742 C743 1.362 . S
C742 C745 1.378 . S
C742 H757 0.929 . S
C743 C742 1.362 . S
C743 C744 1.366 . S
C744 C741 1.365 . S
C744 C743 1.366 . S
C744 H758 0.930 . S
C745 C742 1.378 . S
C745 N746 1.315 . S
C745 H748 0.930 . S
N746 Co726 2.194 . S
N746 C741 1.328 . S
N746 C745 1.315 . S
H747 C741 0.929 . S
H748 C745 0.930 . S
H749 C737 0.929 . S
H750 C739 0.929 . S
O751 Co726 2.351 . S
O751 C754 1.244 . S
O752 Co726 2.155 . S
O752 C754 1.240 . S
O753 Co726 2.096 . S
O753 C734 1.247 . S
C754 O751 1.244 . S
C754 O752 1.240 . S
H755 C729 0.931 . S
H756 C738 0.931 . S
H757 C742 0.929 . S
H758 C744 0.930 . S
Co759 N763 2.148 . S
Co759 N769 2.128 . S
Co759 N779 2.194 . S
Co759 O784 2.351 . S
Co759 O785 2.155 . S
Co759 O786 2.096 . S
C760 N763 1.301 . S
C760 N764 1.328 . S
C760 H765 0.930 . S
C761 C762 1.333 . S
C761 N763 1.317 . S
C761 H766 0.930 . S
C762 C761 1.333 . S
C762 N764 1.350 . S
C762 H788 0.931 . S
N763 Co759 2.148 . S
N763 C760 1.301 . S
N763 C761 1.317 . S
N764 C760 1.328 . S
N764 C762 1.350 . S
H765 C760 0.930 . S
H766 C761 0.930 . S
C767 O768 1.224 . S
C767 O786 1.247 . S
O768 C767 1.224 . S
N769 Co759 2.128 . S
N769 C770 1.355 . S
N769 C772 1.311 . S
C770 N769 1.355 . S
C770 C771 1.363 . S
C770 H782 0.929 . S
C771 C770 1.363 . S
C771 N773 1.375 . S
C771 H789 0.931 . S
C772 N769 1.311 . S
C772 N773 1.347 . S
C772 H783 0.929 . S
N773 C771 1.375 . S
N773 C772 1.347 . S
C774 C777 1.365 . S
C774 N779 1.328 . S
C774 H780 0.929 . S
C775 C776 1.362 . S
C775 C778 1.378 . S
C775 H790 0.929 . S
C776 C775 1.362 . S
C776 C777 1.366 . S
C777 C774 1.365 . S
C777 C776 1.366 . S
C777 H791 0.930 . S
C778 C775 1.378 . S
C778 N779 1.315 . S
C778 H781 0.930 . S
N779 Co759 2.194 . S
N779 C774 1.328 . S
N779 C778 1.315 . S
H780 C774 0.929 . S
H781 C778 0.930 . S
H782 C770 0.929 . S
H783 C772 0.929 . S
O784 Co759 2.351 . S
O784 C787 1.244 . S
O785 Co759 2.155 . S
O785 C787 1.240 . S
O786 Co759 2.096 . S
O786 C767 1.247 . S
C787 O784 1.244 . S
C787 O785 1.240 . S
H788 C762 0.931 . S
H789 C771 0.931 . S
H790 C775 0.929 . S
H791 C777 0.930 . S
H792 C800 0.929 . S
H793 C802 0.930 . S
H794 C804 0.930 . S
H795 C807 0.929 . S
H796 C810 0.930 . S
H797 C812 0.960 . S
H798 C812 0.960 . S
H799 C812 0.960 . S
C800 H792 0.929 . S
C800 C801 1.377 . S
C800 C802 1.384 . S
C801 C800 1.377 . S
C801 C807 1.390 . S
C802 H793 0.930 . S
C802 C800 1.384 . S
C802 C803 1.372 . S
C803 C802 1.372 . S
C803 C804 1.400 . S
C803 C808 1.490 . S
C804 H794 0.930 . S
C804 C803 1.400 . S
C804 C807 1.386 . S
H805 C821 0.930 . S
H806 C822 0.931 . S
C807 H795 0.929 . S
C807 C801 1.390 . S
C807 C804 1.386 . S
C808 C803 1.490 . S
C808 C810 1.395 . S
C808 C811 1.403 1_545 S
H809 C815 0.930 . S
C810 H796 0.930 . S
C810 C808 1.395 . S
C810 C813 1.403 . S
C811 C808 1.403 1_565 S
C811 C812 1.524 . S
C811 C815 1.400 . S
C812 H797 0.960 . S
C812 H798 0.960 . S
C812 H799 0.960 . S
C812 C811 1.524 . S
C813 C810 1.403 . S
C813 C814 1.392 1_545 S
C813 C817 1.495 . S
C814 C813 1.392 1_565 S
C814 C815 1.385 . S
C814 C816 1.478 . S
C815 H809 0.930 . S
C815 C811 1.400 . S
C815 C814 1.385 . S
C816 C814 1.478 . S
C816 C818 1.381 . S
C816 C822 1.383 . S
C817 C813 1.495 . S
C817 H823 0.959 . S
C817 H824 0.961 . S
C817 H825 0.960 . S
C818 C816 1.381 . S
C818 C819 1.394 . S
C818 H826 0.930 . S
C819 C818 1.394 . S
C819 C820 1.383 . S
C819 H827 0.929 . S
C820 C819 1.383 . S
C820 C821 1.377 . S
C821 H805 0.930 . S
C821 C820 1.377 . S
C821 C822 1.379 . S
C822 H806 0.931 . S
C822 C816 1.383 . S
C822 C821 1.379 . S
H823 C817 0.959 . S
H824 C817 0.961 . S
H825 C817 0.960 . S
H826 C818 0.930 . S
H827 C819 0.929 . S
H828 C836 0.929 . S
H829 C838 0.930 . S
H830 C840 0.930 . S
H831 C843 0.929 . S
H832 C846 0.930 . S
H833 C848 0.960 . S
H834 C848 0.960 . S
H835 C848 0.960 . S
C836 H828 0.929 . S
C836 C837 1.377 . S
C836 C838 1.384 . S
C837 C836 1.377 . S
C837 C843 1.390 . S
C838 H829 0.930 . S
C838 C836 1.384 . S
C838 C839 1.372 . S
C839 C838 1.372 . S
C839 C840 1.400 . S
C839 C844 1.490 . S
C840 H830 0.930 . S
C840 C839 1.400 . S
C840 C843 1.386 . S
H841 C857 0.930 . S
H842 C858 0.931 . S
C843 H831 0.929 . S
C843 C837 1.390 . S
C843 C840 1.386 . S
C844 C839 1.490 . S
C844 C846 1.395 . S
C844 C847 1.403 . S
H845 C851 0.930 . S
C846 H832 0.930 . S
C846 C844 1.395 . S
C846 C849 1.403 . S
C847 C844 1.403 . S
C847 C848 1.524 . S
C847 C851 1.400 . S
C848 H833 0.960 . S
C848 H834 0.960 . S
C848 H835 0.960 . S
C848 C847 1.524 . S
C849 C846 1.403 . S
C849 C850 1.392 . S
C849 C853 1.495 . S
C850 C849 1.392 . S
C850 C851 1.385 . S
C850 C852 1.478 . S
C851 H845 0.930 . S
C851 C847 1.400 . S
C851 C850 1.385 . S
C852 C850 1.478 . S
C852 C854 1.381 . S
C852 C858 1.383 . S
C853 C849 1.495 . S
C853 H859 0.959 . S
C853 H860 0.961 . S
C853 H861 0.960 . S
C854 C852 1.381 . S
C854 C855 1.394 . S
C854 H862 0.930 . S
C855 C854 1.394 . S
C855 C856 1.383 . S
C855 H863 0.929 . S
C856 C855 1.383 . S
C856 C857 1.377 . S
C857 H841 0.930 . S
C857 C856 1.377 . S
C857 C858 1.379 . S
C858 H842 0.931 . S
C858 C852 1.383 . S
C858 C857 1.379 . S
H859 C853 0.959 . S
H860 C853 0.961 . S
H861 C853 0.960 . S
H862 C854 0.930 . S
H863 C855 0.929 . S
H864 C872 0.929 . S
H865 C874 0.930 . S
H866 C876 0.930 . S
H867 C879 0.929 . S
H868 C882 0.930 . S
H869 C884 0.960 . S
H870 C884 0.960 . S
H871 C884 0.960 . S
C872 H864 0.929 . S
C872 C873 1.377 . S
C872 C874 1.384 . S
C873 C872 1.377 . S
C873 C879 1.390 . S
C874 H865 0.930 . S
C874 C872 1.384 . S
C874 C875 1.372 . S
C875 C874 1.372 . S
C875 C876 1.400 . S
C875 C880 1.490 . S
C876 H866 0.930 . S
C876 C875 1.400 . S
C876 C879 1.386 . S
H877 C893 0.930 . S
H878 C894 0.931 . S
C879 H867 0.929 . S
C879 C873 1.390 . S
C879 C876 1.386 . S
C880 C875 1.490 . S
C880 C882 1.395 1_455 S
C880 C883 1.403 . S
H881 C887 0.966 . S
C882 H868 0.930 . S
C882 C880 1.395 1_655 S
C882 C885 1.403 . S
C883 C880 1.403 . S
C883 C884 1.524 . S
C883 C887 1.425 . S
C884 H869 0.960 . S
C884 H870 0.960 . S
C884 H871 0.960 . S
C884 C883 1.524 . S
C885 C882 1.403 . S
C885 C886 1.392 . S
C885 C889 1.495 . S
C886 C885 1.392 . S
C886 C887 1.328 1_655 S
C886 C888 1.478 . S
C887 H881 0.966 . S
C887 C883 1.425 . S
C887 C886 1.328 1_455 S
C888 C886 1.478 . S
C888 C890 1.381 . S
C888 C894 1.383 . S
C889 C885 1.495 . S
C889 H895 0.959 . S
C889 H896 0.961 . S
C889 H897 0.960 . S
C890 C888 1.381 . S
C890 C891 1.394 . S
C890 H898 0.930 . S
C891 C890 1.394 . S
C891 C892 1.383 . S
C891 H899 0.929 . S
C892 C891 1.383 . S
C892 C893 1.377 . S
C893 H877 0.930 . S
C893 C892 1.377 . S
C893 C894 1.379 . S
C894 H878 0.931 . S
C894 C888 1.383 . S
C894 C893 1.379 . S
H895 C889 0.959 . S
H896 C889 0.961 . S
H897 C889 0.960 . S
H898 C890 0.930 . S
H899 C891 0.929 . S
H900 C908 0.929 . S
H901 C910 0.930 . S
H902 C912 0.930 . S
H903 C915 0.929 . S
H904 C918 0.930 . S
H905 C920 0.960 . S
H906 C920 0.960 . S
H907 C920 0.960 . S
C908 H900 0.929 . S
C908 C909 1.377 . S
C908 C910 1.384 . S
C909 C908 1.377 . S
C909 C915 1.390 . S
C910 H901 0.930 . S
C910 C908 1.384 . S
C910 C911 1.372 . S
C911 C910 1.372 . S
C911 C912 1.400 . S
C911 C916 1.490 . S
C912 H902 0.930 . S
C912 C911 1.400 . S
C912 C915 1.386 . S
H913 C929 0.930 . S
H914 C930 0.931 . S
C915 H903 0.929 . S
C915 C909 1.390 . S
C915 C912 1.386 . S
C916 C911 1.490 . S
C916 C918 1.395 . S
C916 C919 1.403 1_455 S
H917 C923 0.930 . S
C918 H904 0.930 . S
C918 C916 1.395 . S
C918 C921 1.403 . S
C919 C916 1.403 1_655 S
C919 C920 1.524 . S
C919 C923 1.400 . S
C920 H905 0.960 . S
C920 H906 0.960 . S
C920 H907 0.960 . S
C920 C919 1.524 . S
C921 C918 1.403 . S
C921 C922 1.392 1_455 S
C921 C925 1.495 . S
C922 C921 1.392 1_655 S
C922 C923 1.385 . S
C922 C924 1.478 . S
C923 H917 0.930 . S
C923 C919 1.400 . S
C923 C922 1.385 . S
C924 C922 1.478 . S
C924 C926 1.381 . S
C924 C930 1.383 . S
C925 C921 1.495 . S
C925 H931 0.959 . S
C925 H932 0.961 . S
C925 H933 0.960 . S
C926 C924 1.381 . S
C926 C927 1.394 . S
C926 H934 0.930 . S
C927 C926 1.394 . S
C927 C928 1.383 . S
C927 H935 0.929 . S
C928 C927 1.383 . S
C928 C929 1.377 . S
C929 H913 0.930 . S
C929 C928 1.377 . S
C929 C930 1.379 . S
C930 H914 0.931 . S
C930 C924 1.383 . S
C930 C929 1.379 . S
H931 C925 0.959 . S
H932 C925 0.961 . S
H933 C925 0.960 . S
H934 C926 0.930 . S
H935 C927 0.929 . S
H936 C944 0.929 . S
H937 C946 0.930 . S
H938 C948 0.930 . S
H939 C951 0.929 . S
H940 C954 0.930 . S
H941 C956 0.960 . S
H942 C956 0.960 . S
H943 C956 0.960 . S
C944 H936 0.929 . S
C944 C945 1.377 . S
C944 C946 1.384 . S
C945 C944 1.377 . S
C945 C951 1.390 . S
C946 H937 0.930 . S
C946 C944 1.384 . S
C946 C947 1.372 . S
C947 C946 1.372 . S
C947 C948 1.400 . S
C947 C952 1.490 . S
C948 H938 0.930 . S
C948 C947 1.400 . S
C948 C951 1.386 . S
H949 C965 0.930 . S
H950 C966 0.931 . S
C951 H939 0.929 . S
C951 C945 1.390 . S
C951 C948 1.386 . S
C952 C947 1.490 . S
C952 C954 1.395 . S
C952 C955 1.403 1_565 S
H953 C959 0.930 . S
C954 H940 0.930 . S
C954 C952 1.395 . S
C954 C957 1.403 . S
C955 C952 1.403 1_545 S
C955 C956 1.524 . S
C955 C959 1.400 . S
C956 H941 0.960 . S
C956 H942 0.960 . S
C956 H943 0.960 . S
C956 C955 1.524 . S
C957 C954 1.403 . S
C957 C958 1.392 1_565 S
C957 C961 1.495 . S
C958 C957 1.392 1_545 S
C958 C959 1.385 . S
C958 C960 1.478 . S
C959 H953 0.930 . S
C959 C955 1.400 . S
C959 C958 1.385 . S
C960 C958 1.478 . S
C960 C962 1.381 . S
C960 C966 1.383 . S
C961 C957 1.495 . S
C961 H967 0.959 . S
C961 H968 0.961 . S
C961 H969 0.960 . S
C962 C960 1.381 . S
C962 C963 1.394 . S
C962 H970 0.930 . S
C963 C962 1.394 . S
C963 C964 1.383 . S
C963 H971 0.929 . S
C964 C963 1.383 . S
C964 C965 1.377 . S
C965 H949 0.930 . S
C965 C964 1.377 . S
C965 C966 1.379 . S
C966 H950 0.931 . S
C966 C960 1.383 . S
C966 C965 1.379 . S
H967 C961 0.959 . S
H968 C961 0.961 . S
H969 C961 0.960 . S
H970 C962 0.930 . S
H971 C963 0.929 . S
H972 C980 0.929 . S
H973 C982 0.930 . S
H974 C984 0.930 . S
H975 C987 0.929 . S
H976 C990 0.930 . S
H977 C992 0.960 . S
H978 C992 0.960 . S
H979 C992 0.960 . S
C980 H972 0.929 . S
C980 C981 1.377 . S
C980 C982 1.384 . S
C981 C980 1.377 . S
C981 C987 1.390 . S
C982 H973 0.930 . S
C982 C980 1.384 . S
C982 C983 1.372 . S
C983 C982 1.372 . S
C983 C984 1.400 . S
C983 C988 1.490 . S
C984 H974 0.930 . S
C984 C983 1.400 . S
C984 C987 1.386 . S
H985 C1001 0.930 . S
H986 C1002 0.931 . S
C987 H975 0.929 . S
C987 C981 1.390 . S
C987 C984 1.386 . S
C988 C983 1.490 . S
C988 C990 1.395 . S
C988 C991 1.403 . S
H989 C995 0.930 . S
C990 H976 0.930 . S
C990 C988 1.395 . S
C990 C993 1.403 . S
C991 C988 1.403 . S
C991 C992 1.524 . S
C991 C995 1.400 . S
C992 H977 0.960 . S
C992 H978 0.960 . S
C992 H979 0.960 . S
C992 C991 1.524 . S
C993 C990 1.403 . S
C993 C994 1.392 . S
C993 C997 1.495 . S
C994 C993 1.392 . S
C994 C995 1.385 . S
C994 C996 1.478 . S
C995 H989 0.930 . S
C995 C991 1.400 . S
C995 C994 1.385 . S
C996 C994 1.478 . S
C996 C998 1.381 . S
C996 C1002 1.383 . S
C997 C993 1.495 . S
C997 H1003 0.959 . S
C997 H1004 0.961 . S
C997 H1005 0.960 . S
C998 C996 1.381 . S
C998 C999 1.394 . S
C998 H1006 0.930 . S
C999 C998 1.394 . S
C999 C1000 1.383 . S
C999 H1007 0.929 . S
C1000 C999 1.383 . S
C1000 C1001 1.377 . S
C1001 H985 0.930 . S
C1001 C1000 1.377 . S
C1001 C1002 1.379 . S
C1002 H986 0.931 . S
C1002 C996 1.383 . S
C1002 C1001 1.379 . S
H1003 C997 0.959 . S
H1004 C997 0.961 . S
H1005 C997 0.960 . S
H1006 C998 0.930 . S
H1007 C999 0.929 . S
H1008 C1016 0.929 . S
H1009 C1018 0.930 . S
H1010 C1020 0.930 . S
H1011 C1023 0.929 . S
H1012 C1026 0.930 . S
H1013 C1028 0.960 . S
H1014 C1028 0.960 . S
H1015 C1028 0.988 . S
C1016 H1008 0.929 . S
C1016 C1017 1.377 . S
C1016 C1018 1.384 . S
C1017 C1016 1.377 . S
C1017 C1023 1.390 . S
C1018 H1009 0.930 . S
C1018 C1016 1.384 . S
C1018 C1019 1.372 . S
C1019 C1018 1.372 . S
C1019 C1020 1.400 . S
C1019 C1024 1.490 . S
C1020 H1010 0.930 . S
C1020 C1019 1.400 . S
C1020 C1023 1.386 . S
H1021 C1037 0.930 . S
H1022 C1038 0.931 . S
C1023 H1011 0.929 . S
C1023 C1017 1.390 . S
C1023 C1020 1.386 . S
C1024 C1019 1.490 . S
C1024 C1026 1.395 . S
C1024 C1027 1.403 1_545 S
H1025 C1031 0.930 . S
C1026 H1012 0.930 . S
C1026 C1024 1.395 . S
C1026 C1029 1.403 . S
C1027 C1024 1.403 1_565 S
C1027 C1028 1.524 . S
C1027 C1031 1.400 . S
C1028 H1013 0.960 . S
C1028 H1014 0.960 . S
C1028 H1015 0.988 . S
C1028 C1027 1.524 . S
C1029 C1026 1.403 . S
C1029 C1030 1.392 1_545 S
C1029 C1033 1.495 . S
C1030 C1029 1.392 1_565 S
C1030 C1031 1.385 . S
C1030 C1032 1.478 . S
C1031 H1025 0.930 . S
C1031 C1027 1.400 . S
C1031 C1030 1.385 . S
C1032 C1030 1.478 . S
C1032 C1034 1.381 . S
C1032 C1038 1.383 . S
C1033 C1029 1.495 . S
C1033 H1039 0.959 . S
C1033 H1040 0.961 . S
C1033 H1041 0.960 . S
C1034 C1032 1.381 . S
C1034 C1035 1.394 . S
C1034 H1042 0.930 . S
C1035 C1034 1.394 . S
C1035 C1036 1.383 . S
C1035 H1043 0.929 . S
C1036 C1035 1.383 . S
C1036 C1037 1.377 . S
C1037 H1021 0.930 . S
C1037 C1036 1.377 . S
C1037 C1038 1.379 . S
C1038 H1022 0.931 . S
C1038 C1032 1.383 . S
C1038 C1037 1.379 . S
H1039 C1033 0.959 . S
H1040 C1033 0.961 . S
H1041 C1033 0.960 . S
H1042 C1034 0.930 . S
H1043 C1035 0.929 . S
H1044 C1052 0.929 . S
H1045 C1054 0.930 . S
H1046 C1056 0.930 . S
H1047 C1059 0.929 . S
H1048 C1062 0.930 . S
H1049 C1064 0.960 . S
H1050 C1064 0.960 . S
H1051 C1064 0.960 . S
C1052 H1044 0.929 . S
C1052 C1053 1.377 . S
C1052 C1054 1.384 . S
C1053 C1052 1.377 . S
C1053 C1059 1.390 . S
C1054 H1045 0.930 . S
C1054 C1052 1.384 . S
C1054 C1055 1.372 . S
C1055 C1054 1.372 . S
C1055 C1056 1.400 . S
C1055 C1060 1.490 . S
C1056 H1046 0.930 . S
C1056 C1055 1.400 . S
C1056 C1059 1.386 . S
H1057 C1073 0.930 . S
H1058 C1074 0.931 . S
C1059 H1047 0.929 . S
C1059 C1053 1.390 . S
C1059 C1056 1.386 . S
C1060 C1055 1.490 . S
C1060 C1062 1.395 . S
C1060 C1063 1.403 . S
H1061 C1067 0.930 . S
C1062 H1048 0.930 . S
C1062 C1060 1.395 . S
C1062 C1065 1.403 . S
C1063 C1060 1.403 . S
C1063 C1064 1.524 . S
C1063 C1067 1.400 . S
C1064 H1049 0.960 . S
C1064 H1050 0.960 . S
C1064 H1051 0.960 . S
C1064 C1063 1.524 . S
C1065 C1062 1.403 . S
C1065 C1066 1.392 . S
C1065 C1069 1.495 . S
C1066 C1065 1.392 . S
C1066 C1067 1.385 . S
C1066 C1068 1.478 . S
C1067 H1061 0.930 . S
C1067 C1063 1.400 . S
C1067 C1066 1.385 . S
C1068 C1066 1.478 . S
C1068 C1070 1.381 . S
C1068 C1074 1.383 . S
C1069 C1065 1.495 . S
C1069 H1075 0.959 . S
C1069 H1076 0.961 . S
C1069 H1077 0.960 . S
C1070 C1068 1.381 . S
C1070 C1071 1.394 . S
C1070 H1078 0.930 . S
C1071 C1070 1.394 . S
C1071 C1072 1.383 . S
C1071 H1079 0.929 . S
C1072 C1071 1.383 . S
C1072 C1073 1.377 . S
C1073 H1057 0.930 . S
C1073 C1072 1.377 . S
C1073 C1074 1.379 . S
C1074 H1058 0.931 . S
C1074 C1068 1.383 . S
C1074 C1073 1.379 . S
H1075 C1069 0.959 . S
H1076 C1069 0.961 . S
H1077 C1069 0.960 . S
H1078 C1070 0.930 . S
H1079 C1071 0.929 . S
H1080 C1088 0.929 . S
H1081 C1090 0.930 . S
H1082 C1092 0.930 . S
H1083 C1095 0.929 . S
H1084 C1098 0.930 . S
H1085 C1100 0.960 . S
H1086 C1100 0.960 . S
H1087 C1100 0.960 . S
C1088 H1080 0.929 . S
C1088 C1089 1.377 . S
C1088 C1090 1.384 . S
C1089 C1088 1.377 . S
C1089 C1095 1.390 . S
C1090 H1081 0.930 . S
C1090 C1088 1.384 . S
C1090 C1091 1.372 . S
C1091 C1090 1.372 . S
C1091 C1092 1.400 . S
C1091 C1096 1.490 . S
C1092 H1082 0.930 . S
C1092 C1091 1.400 . S
C1092 C1095 1.386 . S
H1093 C1109 0.930 . S
H1094 C1110 0.931 . S
C1095 H1083 0.929 . S
C1095 C1089 1.390 . S
C1095 C1092 1.386 . S
C1096 C1091 1.490 . S
C1096 C1098 1.395 . S
C1096 C1099 1.403 . S
H1097 C1103 0.930 . S
C1098 H1084 0.930 . S
C1098 C1096 1.395 . S
C1098 C1101 1.403 1_655 S
C1099 C1096 1.403 . S
C1099 C1100 1.524 . S
C1099 C1103 1.400 1_655 S
C1100 H1085 0.960 . S
C1100 H1086 0.960 . S
C1100 H1087 0.960 . S
C1100 C1099 1.524 . S
C1101 C1098 1.403 1_455 S
C1101 C1102 1.392 . S
C1101 C1105 1.495 . S
C1102 C1101 1.392 . S
C1102 C1103 1.385 . S
C1102 C1104 1.478 . S
C1103 H1097 0.930 . S
C1103 C1099 1.400 1_455 S
C1103 C1102 1.385 . S
C1104 C1102 1.478 . S
C1104 C1106 1.381 . S
C1104 C1110 1.383 . S
C1105 C1101 1.495 . S
C1105 H1111 0.959 . S
C1105 H1112 0.961 . S
C1105 H1113 0.960 . S
C1106 C1104 1.381 . S
C1106 C1107 1.394 . S
C1106 H1114 0.930 . S
C1107 C1106 1.394 . S
C1107 C1108 1.383 . S
C1107 H1115 0.929 . S
C1108 C1107 1.383 . S
C1108 C1109 1.377 . S
C1109 H1093 0.930 . S
C1109 C1108 1.377 . S
C1109 C1110 1.379 . S
C1110 H1094 0.931 . S
C1110 C1104 1.383 . S
C1110 C1109 1.379 . S
H1111 C1105 0.959 . S
H1112 C1105 0.961 . S
H1113 C1105 0.960 . S
H1114 C1106 0.930 . S
H1115 C1107 0.929 . S
H1116 C1124 0.929 . S
H1117 C1126 0.930 . S
H1118 C1128 0.930 . S
H1119 C1131 0.929 . S
H1120 C1134 0.930 . S
H1121 C1136 0.960 . S
H1122 C1136 0.960 . S
H1123 C1136 0.960 . S
C1124 H1116 0.929 . S
C1124 C1125 1.377 . S
C1124 C1126 1.384 . S
C1125 C1124 1.377 . S
C1125 C1131 1.390 . S
C1126 H1117 0.930 . S
C1126 C1124 1.384 . S
C1126 C1127 1.372 . S
C1127 C1126 1.372 . S
C1127 C1128 1.400 . S
C1127 C1132 1.490 . S
C1128 H1118 0.930 . S
C1128 C1127 1.400 . S
C1128 C1131 1.386 . S
H1129 C1145 0.930 . S
H1130 C1146 0.931 . S
C1131 H1119 0.929 . S
C1131 C1125 1.390 . S
C1131 C1128 1.386 . S
C1132 C1127 1.490 . S
C1132 C1134 1.395 . S
C1132 C1135 1.403 . S
H1133 C1139 0.930 . S
C1134 H1120 0.930 . S
C1134 C1132 1.395 . S
C1134 C1137 1.403 1_655 S
C1135 C1132 1.403 . S
C1135 C1136 1.524 . S
C1135 C1139 1.400 1_655 S
C1136 H1121 0.960 . S
C1136 H1122 0.960 . S
C1136 H1123 0.960 . S
C1136 C1135 1.524 . S
C1137 C1134 1.403 1_455 S
C1137 C1138 1.392 . S
C1137 C1141 1.495 . S
C1138 C1137 1.392 . S
C1138 C1139 1.385 . S
C1138 C1140 1.478 . S
C1139 H1133 0.930 . S
C1139 C1135 1.400 1_455 S
C1139 C1138 1.385 . S
C1140 C1138 1.478 . S
C1140 C1142 1.381 . S
C1140 C1146 1.383 . S
C1141 C1137 1.495 . S
C1141 H1147 0.959 . S
C1141 H1148 0.961 . S
C1141 H1149 0.960 . S
C1142 C1140 1.381 . S
C1142 C1143 1.394 . S
C1142 H1150 0.930 . S
C1143 C1142 1.394 . S
C1143 C1144 1.383 . S
C1143 H1151 0.929 . S
C1144 C1143 1.383 . S
C1144 C1145 1.377 . S
C1145 H1129 0.930 . S
C1145 C1144 1.377 . S
C1145 C1146 1.379 . S
C1146 H1130 0.931 . S
C1146 C1140 1.383 . S
C1146 C1145 1.379 . S
H1147 C1141 0.959 . S
H1148 C1141 0.961 . S
H1149 C1141 0.960 . S
H1150 C1142 0.930 . S
H1151 C1143 0.929 . S
H1152 C1160 0.929 . S
H1153 C1162 0.930 . S
H1154 C1164 0.930 . S
H1155 C1167 0.929 . S
H1156 C1170 0.930 . S
H1157 C1172 0.960 1_565 S
H1158 C1172 0.945 1_565 S
H1159 C1172 0.960 . S
C1160 H1152 0.929 . S
C1160 C1161 1.377 . S
C1160 C1162 1.384 . S
C1161 C1160 1.377 . S
C1161 C1167 1.390 . S
C1162 H1153 0.930 . S
C1162 C1160 1.384 . S
C1162 C1163 1.372 . S
C1163 C1162 1.372 . S
C1163 C1164 1.400 . S
C1163 C1168 1.490 . S
C1164 H1154 0.930 . S
C1164 C1163 1.400 . S
C1164 C1167 1.386 . S
H1165 C1181 0.930 . S
H1166 C1182 0.931 . S
C1167 H1155 0.929 . S
C1167 C1161 1.390 . S
C1167 C1164 1.386 . S
C1168 C1163 1.490 . S
C1168 C1170 1.395 . S
C1168 C1171 1.403 . S
H1169 C1175 0.930 . S
C1170 H1156 0.930 . S
C1170 C1168 1.395 . S
C1170 C1173 1.403 1_545 S
C1171 C1168 1.403 . S
C1171 C1172 1.524 . S
C1171 C1175 1.400 1_545 S
C1172 H1157 0.960 1_545 S
C1172 H1158 0.945 1_545 S
C1172 H1159 0.960 . S
C1172 C1171 1.524 . S
C1173 C1170 1.403 1_565 S
C1173 C1174 1.392 . S
C1173 C1177 1.495 . S
C1174 C1173 1.392 . S
C1174 C1175 1.385 . S
C1174 C1176 1.478 . S
C1175 H1169 0.930 . S
C1175 C1171 1.400 1_565 S
C1175 C1174 1.385 . S
C1176 C1174 1.478 . S
C1176 C1178 1.381 . S
C1176 C1182 1.383 . S
C1177 C1173 1.495 . S
C1177 H1183 0.959 1_565 S
C1177 H1184 0.996 . S
C1177 H1185 0.960 . S
C1178 C1176 1.381 . S
C1178 C1179 1.394 . S
C1178 H1186 0.930 . S
C1179 C1178 1.394 . S
C1179 C1180 1.383 . S
C1179 H1187 0.929 . S
C1180 C1179 1.383 . S
C1180 C1181 1.377 . S
C1181 H1165 0.930 . S
C1181 C1180 1.377 . S
C1181 C1182 1.379 . S
C1182 H1166 0.931 . S
C1182 C1176 1.383 . S
C1182 C1181 1.379 . S
H1183 C1177 0.959 1_545 S
H1184 C1177 0.996 . S
H1185 C1177 0.960 . S
H1186 C1178 0.930 . S
H1187 C1179 0.929 . S
H1188 C1196 0.929 . S
H1189 C1198 0.930 . S
H1190 C1200 0.930 . S
H1191 C1203 0.929 . S
H1192 C1206 0.930 . S
H1193 C1208 0.960 . S
H1194 C1208 0.960 . S
H1195 C1208 0.960 . S
C1196 H1188 0.929 . S
C1196 C1197 1.377 . S
C1196 C1198 1.384 . S
C1197 C1196 1.377 . S
C1197 C1203 1.390 . S
C1198 H1189 0.930 . S
C1198 C1196 1.384 . S
C1198 C1199 1.372 . S
C1199 C1198 1.372 . S
C1199 C1200 1.400 . S
C1199 C1204 1.490 . S
C1200 H1190 0.930 . S
C1200 C1199 1.400 . S
C1200 C1203 1.386 . S
H1201 C1217 0.930 . S
H1202 C1218 0.931 . S
C1203 H1191 0.929 . S
C1203 C1197 1.390 . S
C1203 C1200 1.386 . S
C1204 C1199 1.490 . S
C1204 C1206 1.395 . S
C1204 C1207 1.403 . S
H1205 C1211 0.930 . S
C1206 H1192 0.930 . S
C1206 C1204 1.395 . S
C1206 C1209 1.403 . S
C1207 C1204 1.403 . S
C1207 C1208 1.524 . S
C1207 C1211 1.400 . S
C1208 H1193 0.960 . S
C1208 H1194 0.960 . S
C1208 H1195 0.960 . S
C1208 C1207 1.524 . S
C1209 C1206 1.403 . S
C1209 C1210 1.392 . S
C1209 C1213 1.495 . S
C1210 C1209 1.392 . S
C1210 C1211 1.385 . S
C1210 C1212 1.478 . S
C1211 H1205 0.930 . S
C1211 C1207 1.400 . S
C1211 C1210 1.385 . S
C1212 C1210 1.478 . S
C1212 C1214 1.381 . S
C1212 C1218 1.383 . S
C1213 C1209 1.495 . S
C1213 H1219 0.959 . S
C1213 H1220 0.961 . S
C1213 H1221 0.960 . S
C1214 C1212 1.381 . S
C1214 C1215 1.394 . S
C1214 H1222 0.930 . S
C1215 C1214 1.394 . S
C1215 C1216 1.383 . S
C1215 H1223 0.929 . S
C1216 C1215 1.383 . S
C1216 C1217 1.377 . S
C1217 H1201 0.930 . S
C1217 C1216 1.377 . S
C1217 C1218 1.379 . S
C1218 H1202 0.931 . S
C1218 C1212 1.383 . S
C1218 C1217 1.379 . S
H1219 C1213 0.959 . S
H1220 C1213 0.961 . S
H1221 C1213 0.960 . S
H1222 C1214 0.930 . S
H1223 C1215 0.929 . S
H1224 C1232 0.929 . S
H1225 C1234 0.930 . S
H1226 C1236 0.930 . S
H1227 C1239 0.929 . S
H1228 C1242 0.930 . S
H1229 C1244 0.960 . S
H1230 C1244 0.960 . S
H1231 C1244 0.960 . S
C1232 H1224 0.929 . S
C1232 C1233 1.377 . S
C1232 C1234 1.384 . S
C1233 C1232 1.377 . S
C1233 C1239 1.390 . S
C1234 H1225 0.930 . S
C1234 C1232 1.384 . S
C1234 C1235 1.372 . S
C1235 C1234 1.372 . S
C1235 C1236 1.400 . S
C1235 C1240 1.490 . S
C1236 H1226 0.930 . S
C1236 C1235 1.400 . S
C1236 C1239 1.386 . S
H1237 C1253 0.930 . S
H1238 C1254 0.931 . S
C1239 H1227 0.929 . S
C1239 C1233 1.390 . S
C1239 C1236 1.386 . S
C1240 C1235 1.490 . S
C1240 C1242 1.395 . S
C1240 C1243 1.403 . S
H1241 C1247 0.930 . S
C1242 H1228 0.930 . S
C1242 C1240 1.395 . S
C1242 C1245 1.403 . S
C1243 C1240 1.403 . S
C1243 C1244 1.524 . S
C1243 C1247 1.400 . S
C1244 H1229 0.960 . S
C1244 H1230 0.960 . S
C1244 H1231 0.960 . S
C1244 C1243 1.524 . S
C1245 C1242 1.403 . S
C1245 C1246 1.392 . S
C1245 C1249 1.495 . S
C1246 C1245 1.392 . S
C1246 C1247 1.385 . S
C1246 C1248 1.478 . S
C1247 H1241 0.930 . S
C1247 C1243 1.400 . S
C1247 C1246 1.385 . S
C1248 C1246 1.478 . S
C1248 C1250 1.381 . S
C1248 C1254 1.383 . S
C1249 C1245 1.495 . S
C1249 H1255 0.959 . S
C1249 H1256 0.961 . S
C1249 H1257 0.960 . S
C1250 C1248 1.381 . S
C1250 C1251 1.394 . S
C1250 H1258 0.930 . S
C1251 C1250 1.394 . S
C1251 C1252 1.383 . S
C1251 H1259 0.929 . S
C1252 C1251 1.383 . S
C1252 C1253 1.377 . S
C1253 H1237 0.930 . S
C1253 C1252 1.377 . S
C1253 C1254 1.379 . S
C1254 H1238 0.931 . S
C1254 C1248 1.383 . S
C1254 C1253 1.379 . S
H1255 C1249 0.959 . S
H1256 C1249 0.961 . S
H1257 C1249 0.960 . S
H1258 C1250 0.930 . S
H1259 C1251 0.929 . S
H1260 C1268 0.929 . S
H1261 C1270 0.930 . S
H1262 C1272 0.930 . S
H1263 C1275 0.929 . S
H1264 C1278 0.930 . S
H1265 C1280 0.960 . S
H1266 C1280 0.960 . S
H1267 C1280 0.960 . S
C1268 H1260 0.929 . S
C1268 C1269 1.377 . S
C1268 C1270 1.384 . S
C1269 C1268 1.377 . S
C1269 C1275 1.390 . S
C1270 H1261 0.930 . S
C1270 C1268 1.384 . S
C1270 C1271 1.372 . S
C1271 C1270 1.372 . S
C1271 C1272 1.400 . S
C1271 C1276 1.490 . S
C1272 H1262 0.930 . S
C1272 C1271 1.400 . S
C1272 C1275 1.386 . S
H1273 C1289 0.930 . S
H1274 C1290 0.931 . S
C1275 H1263 0.929 . S
C1275 C1269 1.390 . S
C1275 C1272 1.386 . S
C1276 C1271 1.490 . S
C1276 C1278 1.395 . S
C1276 C1279 1.403 . S
H1277 C1283 0.930 . S
C1278 H1264 0.930 . S
C1278 C1276 1.395 . S
C1278 C1281 1.403 . S
C1279 C1276 1.403 . S
C1279 C1280 1.524 . S
C1279 C1283 1.400 . S
C1280 H1265 0.960 . S
C1280 H1266 0.960 . S
C1280 H1267 0.960 . S
C1280 C1279 1.524 . S
C1281 C1278 1.403 . S
C1281 C1282 1.392 . S
C1281 C1285 1.495 . S
C1282 C1281 1.392 . S
C1282 C1283 1.385 . S
C1282 C1284 1.478 . S
C1283 H1277 0.930 . S
C1283 C1279 1.400 . S
C1283 C1282 1.385 . S
C1284 C1282 1.478 . S
C1284 C1286 1.381 . S
C1284 C1290 1.383 . S
C1285 C1281 1.495 . S
C1285 H1291 0.959 . S
C1285 H1292 0.961 . S
C1285 H1293 0.960 . S
C1286 C1284 1.381 . S
C1286 C1287 1.394 . S
C1286 H1294 0.930 . S
C1287 C1286 1.394 . S
C1287 C1288 1.383 . S
C1287 H1295 0.929 . S
C1288 C1287 1.383 . S
C1288 C1289 1.377 . S
C1289 H1273 0.930 . S
C1289 C1288 1.377 . S
C1289 C1290 1.379 . S
C1290 H1274 0.931 . S
C1290 C1284 1.383 . S
C1290 C1289 1.379 . S
H1291 C1285 0.959 . S
H1292 C1285 0.961 . S
H1293 C1285 0.960 . S
H1294 C1286 0.930 . S
H1295 C1287 0.929 . S
H1296 C1304 0.929 . S
H1297 C1306 0.930 . S
H1298 C1308 0.930 . S
H1299 C1311 0.929 . S
H1300 C1314 0.930 . S
H1301 C1316 0.960 . S
H1302 C1316 0.960 . S
H1303 C1316 0.960 . S
C1304 H1296 0.929 . S
C1304 C1305 1.377 . S
C1304 C1306 1.384 . S
C1305 C1304 1.377 . S
C1305 C1311 1.390 . S
C1306 H1297 0.930 . S
C1306 C1304 1.384 . S
C1306 C1307 1.372 . S
C1307 C1306 1.372 . S
C1307 C1308 1.400 . S
C1307 C1312 1.490 . S
C1308 H1298 0.930 . S
C1308 C1307 1.400 . S
C1308 C1311 1.386 . S
H1309 C1325 0.930 . S
H1310 C1326 0.931 . S
C1311 H1299 0.929 . S
C1311 C1305 1.390 . S
C1311 C1308 1.386 . S
C1312 C1307 1.490 . S
C1312 C1314 1.395 . S
C1312 C1315 1.403 . S
H1313 C1319 0.930 . S
C1314 H1300 0.930 . S
C1314 C1312 1.395 . S
C1314 C1317 1.403 . S
C1315 C1312 1.403 . S
C1315 C1316 1.524 . S
C1315 C1319 1.400 . S
C1316 H1301 0.960 . S
C1316 H1302 0.960 . S
C1316 H1303 0.960 . S
C1316 C1315 1.524 . S
C1317 C1314 1.403 . S
C1317 C1318 1.392 . S
C1317 C1321 1.495 . S
C1318 C1317 1.392 . S
C1318 C1319 1.385 . S
C1318 C1320 1.478 . S
C1319 H1313 0.930 . S
C1319 C1315 1.400 . S
C1319 C1318 1.385 . S
C1320 C1318 1.478 . S
C1320 C1322 1.381 . S
C1320 C1326 1.383 . S
C1321 C1317 1.495 . S
C1321 H1327 0.959 . S
C1321 H1328 0.961 . S
C1321 H1329 0.960 . S
C1322 C1320 1.381 . S
C1322 C1323 1.394 . S
C1322 H1330 0.930 . S
C1323 C1322 1.394 . S
C1323 C1324 1.383 . S
C1323 H1331 0.929 . S
C1324 C1323 1.383 . S
C1324 C1325 1.377 . S
C1325 H1309 0.930 . S
C1325 C1324 1.377 . S
C1325 C1326 1.379 . S
C1326 H1310 0.931 . S
C1326 C1320 1.383 . S
C1326 C1325 1.379 . S
H1327 C1321 0.959 . S
H1328 C1321 0.961 . S
H1329 C1321 0.960 . S
H1330 C1322 0.930 . S
H1331 C1323 0.929 . S
H1332 C1340 0.929 . S
H1333 C1342 0.930 . S
H1334 C1344 0.930 . S
H1335 C1347 0.929 . S
H1336 C1350 0.930 . S
H1337 C1352 0.960 . S
H1338 C1352 0.960 . S
H1339 C1352 0.960 . S
C1340 H1332 0.929 . S
C1340 C1341 1.377 . S
C1340 C1342 1.384 . S
C1341 C1340 1.377 . S
C1341 C1347 1.390 . S
C1342 H1333 0.930 . S
C1342 C1340 1.384 . S
C1342 C1343 1.372 . S
C1343 C1342 1.372 . S
C1343 C1344 1.400 . S
C1343 C1348 1.490 . S
C1344 H1334 0.930 . S
C1344 C1343 1.400 . S
C1344 C1347 1.386 . S
H1345 C1361 0.930 . S
H1346 C1362 0.931 . S
C1347 H1335 0.929 . S
C1347 C1341 1.390 . S
C1347 C1344 1.386 . S
C1348 C1343 1.490 . S
C1348 C1350 1.395 . S
C1348 C1351 1.403 . S
H1349 C1355 0.930 . S
C1350 H1336 0.930 . S
C1350 C1348 1.395 . S
C1350 C1353 1.403 . S
C1351 C1348 1.403 . S
C1351 C1352 1.524 . S
C1351 C1355 1.400 . S
C1352 H1337 0.960 . S
C1352 H1338 0.960 . S
C1352 H1339 0.960 . S
C1352 C1351 1.524 . S
C1353 C1350 1.403 . S
C1353 C1354 1.392 . S
C1353 C1357 1.495 . S
C1354 C1353 1.392 . S
C1354 C1355 1.385 . S
C1354 C1356 1.478 . S
C1355 H1349 0.930 . S
C1355 C1351 1.400 . S
C1355 C1354 1.385 . S
C1356 C1354 1.478 . S
C1356 C1358 1.381 . S
C1356 C1362 1.383 . S
C1357 C1353 1.495 . S
C1357 H1363 0.959 . S
C1357 H1364 0.961 . S
C1357 H1365 0.960 . S
C1358 C1356 1.381 . S
C1358 C1359 1.394 . S
C1358 H1366 0.930 . S
C1359 C1358 1.394 . S
C1359 C1360 1.383 . S
C1359 H1367 0.929 . S
C1360 C1359 1.383 . S
C1360 C1361 1.377 . S
C1361 H1345 0.930 . S
C1361 C1360 1.377 . S
C1361 C1362 1.379 . S
C1362 H1346 0.931 . S
C1362 C1356 1.383 . S
C1362 C1361 1.379 . S
H1363 C1357 0.959 . S
H1364 C1357 0.961 . S
H1365 C1357 0.960 . S
H1366 C1358 0.930 . S
H1367 C1359 0.929 . S
H1368 C1376 0.929 . S
H1369 C1378 0.930 . S
H1370 C1380 0.930 . S
H1371 C1383 0.929 . S
H1372 C1386 0.930 . S
H1373 C1388 0.960 . S
H1374 C1388 0.960 . S
H1375 C1388 0.960 . S
C1376 H1368 0.929 . S
C1376 C1377 1.377 . S
C1376 C1378 1.384 . S
C1377 C1376 1.377 . S
C1377 C1383 1.390 . S
C1378 H1369 0.930 . S
C1378 C1376 1.384 . S
C1378 C1379 1.372 . S
C1379 C1378 1.372 . S
C1379 C1380 1.400 . S
C1379 C1384 1.490 . S
C1380 H1370 0.930 . S
C1380 C1379 1.400 . S
C1380 C1383 1.386 . S
H1381 C1397 0.930 . S
H1382 C1398 0.931 . S
C1383 H1371 0.929 . S
C1383 C1377 1.390 . S
C1383 C1380 1.386 . S
C1384 C1379 1.490 . S
C1384 C1386 1.395 . S
C1384 C1387 1.403 . S
H1385 C1391 0.930 . S
C1386 H1372 0.930 . S
C1386 C1384 1.395 . S
C1386 C1389 1.403 . S
C1387 C1384 1.403 . S
C1387 C1388 1.524 . S
C1387 C1391 1.400 . S
C1388 H1373 0.960 . S
C1388 H1374 0.960 . S
C1388 H1375 0.960 . S
C1388 C1387 1.524 . S
C1389 C1386 1.403 . S
C1389 C1390 1.392 . S
C1389 C1393 1.495 . S
C1390 C1389 1.392 . S
C1390 C1391 1.385 . S
C1390 C1392 1.478 . S
C1391 H1385 0.930 . S
C1391 C1387 1.400 . S
C1391 C1390 1.385 . S
C1392 C1390 1.478 . S
C1392 C1394 1.381 . S
C1392 C1398 1.383 . S
C1393 C1389 1.495 . S
C1393 H1399 0.959 . S
C1393 H1400 0.961 . S
C1393 H1401 0.960 . S
C1394 C1392 1.381 . S
C1394 C1395 1.394 . S
C1394 H1402 0.930 . S
C1395 C1394 1.394 . S
C1395 C1396 1.383 . S
C1395 H1403 0.929 . S
C1396 C1395 1.383 . S
C1396 C1397 1.377 . S
C1397 H1381 0.930 . S
C1397 C1396 1.377 . S
C1397 C1398 1.379 . S
C1398 H1382 0.931 . S
C1398 C1392 1.383 . S
C1398 C1397 1.379 . S
H1399 C1393 0.959 . S
H1400 C1393 0.961 . S
H1401 C1393 0.960 . S
H1402 C1394 0.930 . S
H1403 C1395 0.929 . S
H1404 C1412 0.929 . S
H1405 C1414 0.930 . S
H1406 C1416 0.930 . S
H1407 C1419 0.929 . S
H1408 C1422 0.930 . S
H1409 C1424 0.960 . S
H1410 C1424 0.960 . S
H1411 C1424 0.960 . S
C1412 H1404 0.929 . S
C1412 C1413 1.377 . S
C1412 C1414 1.384 . S
C1413 C1412 1.377 . S
C1413 C1419 1.390 . S
C1414 H1405 0.930 . S
C1414 C1412 1.384 . S
C1414 C1415 1.372 . S
C1415 C1414 1.372 . S
C1415 C1416 1.400 . S
C1415 C1420 1.490 . S
C1416 H1406 0.930 . S
C1416 C1415 1.400 . S
C1416 C1419 1.386 . S
H1417 C1433 0.930 . S
H1418 C1434 0.931 . S
C1419 H1407 0.929 . S
C1419 C1413 1.390 . S
C1419 C1416 1.386 . S
C1420 C1415 1.490 . S
C1420 C1422 1.395 . S
C1420 C1423 1.403 . S
H1421 C1427 0.930 . S
C1422 H1408 0.930 . S
C1422 C1420 1.395 . S
C1422 C1425 1.403 . S
C1423 C1420 1.403 . S
C1423 C1424 1.524 . S
C1423 C1427 1.400 . S
C1424 H1409 0.960 . S
C1424 H1410 0.960 . S
C1424 H1411 0.960 . S
C1424 C1423 1.524 . S
C1425 C1422 1.403 . S
C1425 C1426 1.392 . S
C1425 C1429 1.495 . S
C1426 C1425 1.392 . S
C1426 C1427 1.385 . S
C1426 C1428 1.478 . S
C1427 H1421 0.930 . S
C1427 C1423 1.400 . S
C1427 C1426 1.385 . S
C1428 C1426 1.478 . S
C1428 C1430 1.381 . S
C1428 C1434 1.383 . S
C1429 C1425 1.495 . S
C1429 H1435 0.959 . S
C1429 H1436 0.961 . S
C1429 H1437 0.960 . S
C1430 C1428 1.381 . S
C1430 C1431 1.394 . S
C1430 H1438 0.930 . S
C1431 C1430 1.394 . S
C1431 C1432 1.383 . S
C1431 H1439 0.929 . S
C1432 C1431 1.383 . S
C1432 C1433 1.377 . S
C1433 H1417 0.930 . S
C1433 C1432 1.377 . S
C1433 C1434 1.379 . S
C1434 H1418 0.931 . S
C1434 C1428 1.383 . S
C1434 C1433 1.379 . S
H1435 C1429 0.959 . S
H1436 C1429 0.961 . S
H1437 C1429 0.960 . S
H1438 C1430 0.930 . S
H1439 C1431 0.929 . S
H1440 C1448 0.929 . S
H1441 C1450 0.930 . S
H1442 C1452 0.930 . S
H1443 C1455 0.929 . S
H1444 C1458 0.930 . S
H1445 C1460 0.960 . S
H1446 C1460 0.960 . S
H1447 C1460 0.960 . S
C1448 H1440 0.929 . S
C1448 C1449 1.377 . S
C1448 C1450 1.384 . S
C1449 C1448 1.377 . S
C1449 C1455 1.390 . S
C1450 H1441 0.930 . S
C1450 C1448 1.384 . S
C1450 C1451 1.372 . S
C1451 C1450 1.372 . S
C1451 C1452 1.400 . S
C1451 C1456 1.490 . S
C1452 H1442 0.930 . S
C1452 C1451 1.400 . S
C1452 C1455 1.386 . S
H1453 C1469 0.930 . S
H1454 C1470 0.931 . S
C1455 H1443 0.929 . S
C1455 C1449 1.390 . S
C1455 C1452 1.386 . S
C1456 C1451 1.490 . S
C1456 C1458 1.395 . S
C1456 C1459 1.403 . S
H1457 C1463 0.930 . S
C1458 H1444 0.930 . S
C1458 C1456 1.395 . S
C1458 C1461 1.403 . S
C1459 C1456 1.403 . S
C1459 C1460 1.524 . S
C1459 C1463 1.400 . S
C1460 H1445 0.960 . S
C1460 H1446 0.960 . S
C1460 H1447 0.960 . S
C1460 C1459 1.524 . S
C1461 C1458 1.403 . S
C1461 C1462 1.392 . S
C1461 C1465 1.495 . S
C1462 C1461 1.392 . S
C1462 C1463 1.385 . S
C1462 C1464 1.478 . S
C1463 H1457 0.930 . S
C1463 C1459 1.400 . S
C1463 C1462 1.385 . S
C1464 C1462 1.478 . S
C1464 C1466 1.381 . S
C1464 C1470 1.383 . S
C1465 C1461 1.495 . S
C1465 H1471 0.959 . S
C1465 H1472 0.961 . S
C1465 H1473 0.960 . S
C1466 C1464 1.381 . S
C1466 C1467 1.394 . S
C1466 H1474 0.930 . S
C1467 C1466 1.394 . S
C1467 C1468 1.383 . S
C1467 H1475 0.929 . S
C1468 C1467 1.383 . S
C1468 C1469 1.377 . S
C1469 H1453 0.930 . S
C1469 C1468 1.377 . S
C1469 C1470 1.379 . S
C1470 H1454 0.931 . S
C1470 C1464 1.383 . S
C1470 C1469 1.379 . S
H1471 C1465 0.959 . S
H1472 C1465 0.961 . S
H1473 C1465 0.960 . S
H1474 C1466 0.930 . S
H1475 C1467 0.929 . S
H1476 C1484 0.929 . S
H1477 C1486 0.930 . S
H1478 C1488 0.930 . S
H1479 C1491 0.929 . S
H1480 C1494 0.930 . S
H1481 C1496 0.960 . S
H1482 C1496 0.960 . S
H1483 C1496 0.960 . S
C1484 H1476 0.929 . S
C1484 C1485 1.377 . S
C1484 C1486 1.384 . S
C1485 C1484 1.377 . S
C1485 C1491 1.390 . S
C1486 H1477 0.930 . S
C1486 C1484 1.384 . S
C1486 C1487 1.372 . S
C1487 C1486 1.372 . S
C1487 C1488 1.400 . S
C1487 C1492 1.490 . S
C1488 H1478 0.930 . S
C1488 C1487 1.400 . S
C1488 C1491 1.386 . S
H1489 C1505 0.930 . S
H1490 C1506 0.931 . S
C1491 H1479 0.929 . S
C1491 C1485 1.390 . S
C1491 C1488 1.386 . S
C1492 C1487 1.490 . S
C1492 C1494 1.395 . S
C1492 C1495 1.403 . S
H1493 C1499 0.930 . S
C1494 H1480 0.930 . S
C1494 C1492 1.395 . S
C1494 C1497 1.403 . S
C1495 C1492 1.403 . S
C1495 C1496 1.524 . S
C1495 C1499 1.400 . S
C1496 H1481 0.960 . S
C1496 H1482 0.960 . S
C1496 H1483 0.960 . S
C1496 C1495 1.524 . S
C1497 C1494 1.403 . S
C1497 C1498 1.392 . S
C1497 C1501 1.495 . S
C1498 C1497 1.392 . S
C1498 C1499 1.385 . S
C1498 C1500 1.478 . S
C1499 H1493 0.930 . S
C1499 C1495 1.400 . S
C1499 C1498 1.385 . S
C1500 C1498 1.478 . S
C1500 C1502 1.381 . S
C1500 C1506 1.383 . S
C1501 C1497 1.495 . S
C1501 H1507 0.959 . S
C1501 H1508 0.961 . S
C1501 H1509 0.960 . S
C1502 C1500 1.381 . S
C1502 C1503 1.394 . S
C1502 H1510 0.930 . S
C1503 C1502 1.394 . S
C1503 C1504 1.383 . S
C1503 H1511 0.929 . S
C1504 C1503 1.383 . S
C1504 C1505 1.377 . S
C1505 H1489 0.930 . S
C1505 C1504 1.377 . S
C1505 C1506 1.379 . S
C1506 H1490 0.931 . S
C1506 C1500 1.383 . S
C1506 C1505 1.379 . S
H1507 C1501 0.959 . S
H1508 C1501 0.961 . S
H1509 C1501 0.960 . S
H1510 C1502 0.930 . S
H1511 C1503 0.929 . S
H1512 C1520 0.929 . S
H1513 C1522 0.930 . S
H1514 C1524 0.930 . S
H1515 C1527 0.929 . S
H1516 C1530 0.930 . S
H1517 C1532 0.960 . S
H1518 C1532 0.960 . S
H1519 C1532 0.960 . S
C1520 H1512 0.929 . S
C1520 C1521 1.377 . S
C1520 C1522 1.384 . S
C1521 C1520 1.377 . S
C1521 C1527 1.390 . S
C1522 H1513 0.930 . S
C1522 C1520 1.384 . S
C1522 C1523 1.372 . S
C1523 C1522 1.372 . S
C1523 C1524 1.400 . S
C1523 C1528 1.490 . S
C1524 H1514 0.930 . S
C1524 C1523 1.400 . S
C1524 C1527 1.386 . S
H1525 C1541 0.930 . S
H1526 C1542 0.931 . S
C1527 H1515 0.929 . S
C1527 C1521 1.390 . S
C1527 C1524 1.386 . S
C1528 C1523 1.490 . S
C1528 C1530 1.395 . S
C1528 C1531 1.403 . S
H1529 C1535 0.930 . S
C1530 H1516 0.930 . S
C1530 C1528 1.395 . S
C1530 C1533 1.403 . S
C1531 C1528 1.403 . S
C1531 C1532 1.524 . S
C1531 C1535 1.400 . S
C1532 H1517 0.960 . S
C1532 H1518 0.960 . S
C1532 H1519 0.960 . S
C1532 C1531 1.524 . S
C1533 C1530 1.403 . S
C1533 C1534 1.392 . S
C1533 C1537 1.495 . S
C1534 C1533 1.392 . S
C1534 C1535 1.385 . S
C1534 C1536 1.478 . S
C1535 H1529 0.930 . S
C1535 C1531 1.400 . S
C1535 C1534 1.385 . S
C1536 C1534 1.478 . S
C1536 C1538 1.381 . S
C1536 C1542 1.383 . S
C1537 C1533 1.495 . S
C1537 H1543 0.959 . S
C1537 H1544 0.961 . S
C1537 H1545 0.960 . S
C1538 C1536 1.381 . S
C1538 C1539 1.394 . S
C1538 H1546 0.930 . S
C1539 C1538 1.394 . S
C1539 C1540 1.383 . S
C1539 H1547 0.929 . S
C1540 C1539 1.383 . S
C1540 C1541 1.377 . S
C1541 H1525 0.930 . S
C1541 C1540 1.377 . S
C1541 C1542 1.379 . S
C1542 H1526 0.931 . S
C1542 C1536 1.383 . S
C1542 C1541 1.379 . S
H1543 C1537 0.959 . S
H1544 C1537 0.961 . S
H1545 C1537 0.960 . S
H1546 C1538 0.930 . S
H1547 C1539 0.929 . S
H1548 C1556 0.929 . S
H1549 C1558 0.930 . S
H1550 C1560 0.930 . S
H1551 C1563 0.929 . S
H1552 C1566 0.930 . S
H1553 C1568 0.960 . S
H1554 C1568 0.960 . S
H1555 C1568 0.960 . S
C1556 H1548 0.929 . S
C1556 C1557 1.377 . S
C1556 C1558 1.384 . S
C1557 C1556 1.377 . S
C1557 C1563 1.390 . S
C1558 H1549 0.930 . S
C1558 C1556 1.384 . S
C1558 C1559 1.372 . S
C1559 C1558 1.372 . S
C1559 C1560 1.400 . S
C1559 C1564 1.490 . S
C1560 H1550 0.930 . S
C1560 C1559 1.400 . S
C1560 C1563 1.386 . S
H1561 C1577 0.930 . S
H1562 C1578 0.931 . S
C1563 H1551 0.929 . S
C1563 C1557 1.390 . S
C1563 C1560 1.386 . S
C1564 C1559 1.490 . S
C1564 C1566 1.395 . S
C1564 C1567 1.403 . S
H1565 C1571 0.930 . S
C1566 H1552 0.930 . S
C1566 C1564 1.395 . S
C1566 C1569 1.403 . S
C1567 C1564 1.403 . S
C1567 C1568 1.524 . S
C1567 C1571 1.400 . S
C1568 H1553 0.960 . S
C1568 H1554 0.960 . S
C1568 H1555 0.960 . S
C1568 C1567 1.524 . S
C1569 C1566 1.403 . S
C1569 C1570 1.392 . S
C1569 C1573 1.495 . S
C1570 C1569 1.392 . S
C1570 C1571 1.385 . S
C1570 C1572 1.478 . S
C1571 H1565 0.930 . S
C1571 C1567 1.400 . S
C1571 C1570 1.385 . S
C1572 C1570 1.478 . S
C1572 C1574 1.381 . S
C1572 C1578 1.383 . S
C1573 C1569 1.495 . S
C1573 H1579 0.959 . S
C1573 H1580 0.961 . S
C1573 H1581 0.960 . S
C1574 C1572 1.381 . S
C1574 C1575 1.394 . S
C1574 H1582 0.930 . S
C1575 C1574 1.394 . S
C1575 C1576 1.383 . S
C1575 H1583 0.929 . S
C1576 C1575 1.383 . S
C1576 C1577 1.377 . S
C1577 H1561 0.930 . S
C1577 C1576 1.377 . S
C1577 C1578 1.379 . S
C1578 H1562 0.931 . S
C1578 C1572 1.383 . S
C1578 C1577 1.379 . S
H1579 C1573 0.959 . S
H1580 C1573 0.961 . S
H1581 C1573 0.960 . S
H1582 C1574 0.930 . S
H1583 C1575 0.929 . S
H1584 C1592 0.929 . S
H1585 C1594 0.930 . S
H1586 C1596 0.930 . S
H1587 C1599 0.929 . S
H1588 C1602 0.930 . S
H1589 C1604 0.960 . S
H1590 C1604 0.960 . S
H1591 C1604 0.960 . S
C1592 H1584 0.929 . S
C1592 C1593 1.377 . S
C1592 C1594 1.384 . S
C1593 C1592 1.377 . S
C1593 C1599 1.390 . S
C1594 H1585 0.930 . S
C1594 C1592 1.384 . S
C1594 C1595 1.372 . S
C1595 C1594 1.372 . S
C1595 C1596 1.400 . S
C1595 C1600 1.490 . S
C1596 H1586 0.930 . S
C1596 C1595 1.400 . S
C1596 C1599 1.386 . S
H1597 C1613 0.930 . S
H1598 C1614 0.931 . S
C1599 H1587 0.929 . S
C1599 C1593 1.390 . S
C1599 C1596 1.386 . S
C1600 C1595 1.490 . S
C1600 C1602 1.395 . S
C1600 C1603 1.403 . S
H1601 C1607 0.930 . S
C1602 H1588 0.930 . S
C1602 C1600 1.395 . S
C1602 C1605 1.403 . S
C1603 C1600 1.403 . S
C1603 C1604 1.524 . S
C1603 C1607 1.400 . S
C1604 H1589 0.960 . S
C1604 H1590 0.960 . S
C1604 H1591 0.960 . S
C1604 C1603 1.524 . S
C1605 C1602 1.403 . S
C1605 C1606 1.392 . S
C1605 C1609 1.495 . S
C1606 C1605 1.392 . S
C1606 C1607 1.385 . S
C1606 C1608 1.478 . S
C1607 H1601 0.930 . S
C1607 C1603 1.400 . S
C1607 C1606 1.385 . S
C1608 C1606 1.478 . S
C1608 C1610 1.381 . S
C1608 C1614 1.383 . S
C1609 C1605 1.495 . S
C1609 H1615 0.959 . S
C1609 H1616 0.961 . S
C1609 H1617 0.960 . S
C1610 C1608 1.381 . S
C1610 C1611 1.394 . S
C1610 H1618 0.930 . S
C1611 C1610 1.394 . S
C1611 C1612 1.383 . S
C1611 H1619 0.929 . S
C1612 C1611 1.383 . S
C1612 C1613 1.377 . S
C1613 H1597 0.930 . S
C1613 C1612 1.377 . S
C1613 C1614 1.379 . S
C1614 H1598 0.931 . S
C1614 C1608 1.383 . S
C1614 C1613 1.379 . S
H1615 C1609 0.959 . S
H1616 C1609 0.961 . S
H1617 C1609 0.960 . S
H1618 C1610 0.930 . S
H1619 C1611 0.929 . S
H1620 C1628 0.929 . S
H1621 C1630 0.930 . S
H1622 C1632 0.930 . S
H1623 C1635 0.929 . S
H1624 C1638 0.930 . S
H1625 C1640 0.960 . S
H1626 C1640 0.960 . S
H1627 C1640 0.960 . S
C1628 H1620 0.929 . S
C1628 C1629 1.377 . S
C1628 C1630 1.384 . S
C1629 C1628 1.377 . S
C1629 C1635 1.390 . S
C1630 H1621 0.930 . S
C1630 C1628 1.384 . S
C1630 C1631 1.372 . S
C1631 C1630 1.372 . S
C1631 C1632 1.400 . S
C1631 C1636 1.490 . S
C1632 H1622 0.930 . S
C1632 C1631 1.400 . S
C1632 C1635 1.386 . S
H1633 C1649 0.930 . S
H1634 C1650 0.931 . S
C1635 H1623 0.929 . S
C1635 C1629 1.390 . S
C1635 C1632 1.386 . S
C1636 C1631 1.490 . S
C1636 C1638 1.395 . S
C1636 C1639 1.403 . S
H1637 C1643 0.930 . S
C1638 H1624 0.930 . S
C1638 C1636 1.395 . S
C1638 C1641 1.403 . S
C1639 C1636 1.403 . S
C1639 C1640 1.524 . S
C1639 C1643 1.400 . S
C1640 H1625 0.960 . S
C1640 H1626 0.960 . S
C1640 H1627 0.960 . S
C1640 C1639 1.524 . S
C1641 C1638 1.403 . S
C1641 C1642 1.392 . S
C1641 C1645 1.495 . S
C1642 C1641 1.392 . S
C1642 C1643 1.385 . S
C1642 C1644 1.478 . S
C1643 H1637 0.930 . S
C1643 C1639 1.400 . S
C1643 C1642 1.385 . S
C1644 C1642 1.478 . S
C1644 C1646 1.381 . S
C1644 C1650 1.383 . S
C1645 C1641 1.495 . S
C1645 H1651 0.959 . S
C1645 H1652 0.961 . S
C1645 H1653 0.960 . S
C1646 C1644 1.381 . S
C1646 C1647 1.394 . S
C1646 H1654 0.930 . S
C1647 C1646 1.394 . S
C1647 C1648 1.383 . S
C1647 H1655 0.929 . S
C1648 C1647 1.383 . S
C1648 C1649 1.377 . S
C1649 H1633 0.930 . S
C1649 C1648 1.377 . S
C1649 C1650 1.379 . S
C1650 H1634 0.931 . S
C1650 C1644 1.383 . S
C1650 C1649 1.379 . S
H1651 C1645 0.959 . S
H1652 C1645 0.961 . S
H1653 C1645 0.960 . S
H1654 C1646 0.930 . S
H1655 C1647 0.929 . S
H1656 C1664 0.929 . S
H1657 C1666 0.930 . S
H1658 C1668 0.930 . S
H1659 C1671 0.929 . S
H1660 C1674 0.930 . S
H1661 C1676 0.960 . S
H1662 C1676 0.960 . S
H1663 C1676 0.960 . S
C1664 H1656 0.929 . S
C1664 C1665 1.377 . S
C1664 C1666 1.384 . S
C1665 C1664 1.377 . S
C1665 C1671 1.390 . S
C1666 H1657 0.930 . S
C1666 C1664 1.384 . S
C1666 C1667 1.372 . S
C1667 C1666 1.372 . S
C1667 C1668 1.400 . S
C1667 C1672 1.490 . S
C1668 H1658 0.930 . S
C1668 C1667 1.400 . S
C1668 C1671 1.386 . S
H1669 C1685 0.930 . S
H1670 C1686 0.931 . S
C1671 H1659 0.929 . S
C1671 C1665 1.390 . S
C1671 C1668 1.386 . S
C1672 C1667 1.490 . S
C1672 C1674 1.395 . S
C1672 C1675 1.403 . S
H1673 C1679 0.930 . S
C1674 H1660 0.930 . S
C1674 C1672 1.395 . S
C1674 C1677 1.403 1_545 S
C1675 C1672 1.403 . S
C1675 C1676 1.524 . S
C1675 C1679 1.400 1_545 S
C1676 H1661 0.960 . S
C1676 H1662 0.960 . S
C1676 H1663 0.960 . S
C1676 C1675 1.524 . S
C1677 C1674 1.403 1_565 S
C1677 C1678 1.392 . S
C1677 C1681 1.495 . S
C1678 C1677 1.392 . S
C1678 C1679 1.385 . S
C1678 C1680 1.478 . S
C1679 H1673 0.930 . S
C1679 C1675 1.400 1_565 S
C1679 C1678 1.385 . S
C1680 C1678 1.478 . S
C1680 C1682 1.381 . S
C1680 C1686 1.383 . S
C1681 C1677 1.495 . S
C1681 H1687 0.959 . S
C1681 H1688 0.961 . S
C1681 H1689 0.960 . S
C1682 C1680 1.381 . S
C1682 C1683 1.394 . S
C1682 H1690 0.930 . S
C1683 C1682 1.394 . S
C1683 C1684 1.383 . S
C1683 H1691 0.929 . S
C1684 C1683 1.383 . S
C1684 C1685 1.377 . S
C1685 H1669 0.930 . S
C1685 C1684 1.377 . S
C1685 C1686 1.379 . S
C1686 H1670 0.931 . S
C1686 C1680 1.383 . S
C1686 C1685 1.379 . S
H1687 C1681 0.959 . S
H1688 C1681 0.961 . S
H1689 C1681 0.960 . S
H1690 C1682 0.930 . S
H1691 C1683 0.929 . S
H1692 C1700 0.929 . S
H1693 C1702 0.930 . S
H1694 C1704 0.930 . S
H1695 C1707 0.929 . S
H1696 C1710 0.930 . S
H1697 C1712 0.960 . S
H1698 C1712 0.960 . S
H1699 C1712 0.960 . S
C1700 H1692 0.929 . S
C1700 C1701 1.377 . S
C1700 C1702 1.384 . S
C1701 C1700 1.377 . S
C1701 C1707 1.390 . S
C1702 H1693 0.930 . S
C1702 C1700 1.384 . S
C1702 C1703 1.372 . S
C1703 C1702 1.372 . S
C1703 C1704 1.400 . S
C1703 C1708 1.490 . S
C1704 H1694 0.930 . S
C1704 C1703 1.400 . S
C1704 C1707 1.386 . S
H1705 C1721 0.930 . S
H1706 C1722 0.931 . S
C1707 H1695 0.929 . S
C1707 C1701 1.390 . S
C1707 C1704 1.386 . S
C1708 C1703 1.490 . S
C1708 C1710 1.395 . S
C1708 C1711 1.403 . S
H1709 C1715 0.930 . S
C1710 H1696 0.930 . S
C1710 C1708 1.395 . S
C1710 C1713 1.403 . S
C1711 C1708 1.403 . S
C1711 C1712 1.524 . S
C1711 C1715 1.400 . S
C1712 H1697 0.960 . S
C1712 H1698 0.960 . S
C1712 H1699 0.960 . S
C1712 C1711 1.524 . S
C1713 C1710 1.403 . S
C1713 C1714 1.392 . S
C1713 C1717 1.495 . S
C1714 C1713 1.392 . S
C1714 C1715 1.385 . S
C1714 C1716 1.478 . S
C1715 H1709 0.930 . S
C1715 C1711 1.400 . S
C1715 C1714 1.385 . S
C1716 C1714 1.478 . S
C1716 C1718 1.381 . S
C1716 C1722 1.383 . S
C1717 C1713 1.495 . S
C1717 H1723 0.959 . S
C1717 H1724 0.961 . S
C1717 H1725 0.960 . S
C1718 C1716 1.381 . S
C1718 C1719 1.394 . S
C1718 H1726 0.930 . S
C1719 C1718 1.394 . S
C1719 C1720 1.383 . S
C1719 H1727 0.929 . S
C1720 C1719 1.383 . S
C1720 C1721 1.377 . S
C1721 H1705 0.930 . S
C1721 C1720 1.377 . S
C1721 C1722 1.379 . S
C1722 H1706 0.931 . S
C1722 C1716 1.383 . S
C1722 C1721 1.379 . S
H1723 C1717 0.959 . S
H1724 C1717 0.961 . S
H1725 C1717 0.960 . S
H1726 C1718 0.930 . S
H1727 C1719 0.929 . S
H1728 C1736 0.929 . S
H1729 C1738 0.930 . S
H1730 C1740 0.930 . S
H1731 C1743 0.929 . S
H1732 C1746 0.931 . S
H1733 C1748 0.960 . S
H1734 C1748 0.960 . S
H1735 C1748 0.960 . S
C1736 H1728 0.929 . S
C1736 C1737 1.377 . S
C1736 C1738 1.384 . S
C1737 C1736 1.377 . S
C1737 C1743 1.390 . S
C1738 H1729 0.930 . S
C1738 C1736 1.384 . S
C1738 C1739 1.372 . S
C1739 C1738 1.372 . S
C1739 C1740 1.400 . S
C1739 C1744 1.490 . S
C1740 H1730 0.930 . S
C1740 C1739 1.400 . S
C1740 C1743 1.386 . S
H1741 C1757 0.930 . S
H1742 C1758 0.931 . S
C1743 H1731 0.929 . S
C1743 C1737 1.390 . S
C1743 C1740 1.386 . S
C1744 C1739 1.490 . S
C1744 C1746 1.395 1_455 S
C1744 C1747 1.403 . S
H1745 C1751 0.930 . S
C1746 H1732 0.931 . S
C1746 C1744 1.395 1_655 S
C1746 C1749 1.403 . S
C1747 C1744 1.403 . S
C1747 C1748 1.524 . S
C1747 C1751 1.400 1_455 S
C1748 H1733 0.960 . S
C1748 H1734 0.960 . S
C1748 H1735 0.960 . S
C1748 C1747 1.524 . S
C1749 C1746 1.403 . S
C1749 C1750 1.392 . S
C1749 C1753 1.495 . S
C1750 C1749 1.392 . S
C1750 C1751 1.385 . S
C1750 C1752 1.478 . S
C1751 H1745 0.930 . S
C1751 C1747 1.400 1_655 S
C1751 C1750 1.385 . S
C1752 C1750 1.478 . S
C1752 C1754 1.381 . S
C1752 C1758 1.383 . S
C1753 C1749 1.495 . S
C1753 H1759 0.959 . S
C1753 H1760 0.961 . S
C1753 H1761 0.960 . S
C1754 C1752 1.381 . S
C1754 C1755 1.394 . S
C1754 H1762 0.930 . S
C1755 C1754 1.394 . S
C1755 C1756 1.383 . S
C1755 H1763 0.929 . S
C1756 C1755 1.383 . S
C1756 C1757 1.377 . S
C1757 H1741 0.930 . S
C1757 C1756 1.377 . S
C1757 C1758 1.379 . S
C1758 H1742 0.931 . S
C1758 C1752 1.383 . S
C1758 C1757 1.379 . S
H1759 C1753 0.959 . S
H1760 C1753 0.961 . S
H1761 C1753 0.960 . S
H1762 C1754 0.930 . S
H1763 C1755 0.929 . S
H1764 C1772 0.929 . S
H1765 C1774 0.930 . S
H1766 C1776 0.930 . S
H1767 C1779 0.929 . S
H1768 C1782 0.930 . S
H1769 C1784 0.960 . S
H1770 C1784 0.960 . S
H1771 C1784 0.960 . S
C1772 H1764 0.929 . S
C1772 C1773 1.377 . S
C1772 C1774 1.384 . S
C1773 C1772 1.377 . S
C1773 C1779 1.390 . S
C1774 H1765 0.930 . S
C1774 C1772 1.384 . S
C1774 C1775 1.372 . S
C1775 C1774 1.372 . S
C1775 C1776 1.400 . S
C1775 C1780 1.490 . S
C1776 H1766 0.930 . S
C1776 C1775 1.400 . S
C1776 C1779 1.386 . S
H1777 C1793 0.930 . S
H1778 C1794 0.931 . S
C1779 H1767 0.929 . S
C1779 C1773 1.390 . S
C1779 C1776 1.386 . S
C1780 C1775 1.490 . S
C1780 C1782 1.395 . S
C1780 C1783 1.403 . S
H1781 C1787 0.930 . S
C1782 H1768 0.930 . S
C1782 C1780 1.395 . S
C1782 C1785 1.403 1_565 S
C1783 C1780 1.403 . S
C1783 C1784 1.524 . S
C1783 C1787 1.400 1_565 S
C1784 H1769 0.960 . S
C1784 H1770 0.960 . S
C1784 H1771 0.960 . S
C1784 C1783 1.524 . S
C1785 C1782 1.403 1_545 S
C1785 C1786 1.392 . S
C1785 C1789 1.495 . S
C1786 C1785 1.392 . S
C1786 C1787 1.385 . S
C1786 C1788 1.478 . S
C1787 H1781 0.930 . S
C1787 C1783 1.400 1_545 S
C1787 C1786 1.385 . S
C1788 C1786 1.478 . S
C1788 C1790 1.381 . S
C1788 C1794 1.383 . S
C1789 C1785 1.495 . S
C1789 H1795 0.959 . S
C1789 H1796 0.961 . S
C1789 H1797 0.960 . S
C1790 C1788 1.381 . S
C1790 C1791 1.394 . S
C1790 H1798 0.930 . S
C1791 C1790 1.394 . S
C1791 C1792 1.383 . S
C1791 H1799 0.929 . S
C1792 C1791 1.383 . S
C1792 C1793 1.377 . S
C1793 H1777 0.930 . S
C1793 C1792 1.377 . S
C1793 C1794 1.379 . S
C1794 H1778 0.931 . S
C1794 C1788 1.383 . S
C1794 C1793 1.379 . S
H1795 C1789 0.959 . S
H1796 C1789 0.961 . S
H1797 C1789 0.960 . S
H1798 C1790 0.930 . S
H1799 C1791 0.929 . S
H1800 C1808 0.929 . S
H1801 C1810 0.930 . S
H1802 C1812 0.930 . S
H1803 C1815 0.929 . S
H1804 C1818 0.930 . S
H1805 C1820 0.960 . S
H1806 C1820 0.960 . S
H1807 C1820 0.960 . S
C1808 H1800 0.929 . S
C1808 C1809 1.377 . S
C1808 C1810 1.384 . S
C1809 C1808 1.377 . S
C1809 C1815 1.390 . S
C1810 H1801 0.930 . S
C1810 C1808 1.384 . S
C1810 C1811 1.372 . S
C1811 C1810 1.372 . S
C1811 C1812 1.400 . S
C1811 C1816 1.490 . S
C1812 H1802 0.930 . S
C1812 C1811 1.400 . S
C1812 C1815 1.386 . S
H1813 C1829 0.930 . S
H1814 C1830 0.931 . S
C1815 H1803 0.929 . S
C1815 C1809 1.390 . S
C1815 C1812 1.386 . S
C1816 C1811 1.490 . S
C1816 C1818 1.395 . S
C1816 C1819 1.403 . S
H1817 C1823 0.930 . S
C1818 H1804 0.930 . S
C1818 C1816 1.395 . S
C1818 C1821 1.403 . S
C1819 C1816 1.403 . S
C1819 C1820 1.524 . S
C1819 C1823 1.400 . S
C1820 H1805 0.960 . S
C1820 H1806 0.960 . S
C1820 H1807 0.960 . S
C1820 C1819 1.524 . S
C1821 C1818 1.403 . S
C1821 C1822 1.392 . S
C1821 C1825 1.495 . S
C1822 C1821 1.392 . S
C1822 C1823 1.385 . S
C1822 C1824 1.478 . S
C1823 H1817 0.930 . S
C1823 C1819 1.400 . S
C1823 C1822 1.385 . S
C1824 C1822 1.478 . S
C1824 C1826 1.381 . S
C1824 C1830 1.383 . S
C1825 C1821 1.495 . S
C1825 H1831 0.959 . S
C1825 H1832 0.961 . S
C1825 H1833 0.960 . S
C1826 C1824 1.381 . S
C1826 C1827 1.394 . S
C1826 H1834 0.930 . S
C1827 C1826 1.394 . S
C1827 C1828 1.383 . S
C1827 H1835 0.929 . S
C1828 C1827 1.383 . S
C1828 C1829 1.377 . S
C1829 H1813 0.930 . S
C1829 C1828 1.377 . S
C1829 C1830 1.379 . S
C1830 H1814 0.931 . S
C1830 C1824 1.383 . S
C1830 C1829 1.379 . S
H1831 C1825 0.959 . S
H1832 C1825 0.961 . S
H1833 C1825 0.960 . S
H1834 C1826 0.930 . S
H1835 C1827 0.929 . S
H1836 C1844 0.929 . S
H1837 C1846 0.930 . S
H1838 C1848 0.930 . S
H1839 C1851 0.929 . S
H1840 C1854 0.934 . S
H1841 C1856 0.960 . S
H1842 C1856 0.960 . S
H1843 C1856 0.960 . S
C1844 H1836 0.929 . S
C1844 C1845 1.377 . S
C1844 C1846 1.384 . S
C1845 C1844 1.377 . S
C1845 C1851 1.390 . S
C1846 H1837 0.930 . S
C1846 C1844 1.384 . S
C1846 C1847 1.372 . S
C1847 C1846 1.372 . S
C1847 C1848 1.400 . S
C1847 C1852 1.490 . S
C1848 H1838 0.930 . S
C1848 C1847 1.400 . S
C1848 C1851 1.386 . S
H1849 C1865 0.930 . S
H1850 C1866 0.931 . S
C1851 H1839 0.929 . S
C1851 C1845 1.390 . S
C1851 C1848 1.386 . S
C1852 C1847 1.490 . S
C1852 C1854 1.395 1_655 S
C1852 C1855 1.403 . S
H1853 C1859 0.930 . S
C1854 H1840 0.934 . S
C1854 C1852 1.395 1_455 S
C1854 C1857 1.403 . S
C1855 C1852 1.403 . S
C1855 C1856 1.524 . S
C1855 C1859 1.400 1_655 S
C1856 H1841 0.960 . S
C1856 H1842 0.960 . S
C1856 H1843 0.960 . S
C1856 C1855 1.524 . S
C1857 C1854 1.403 . S
C1857 C1858 1.392 . S
C1857 C1861 1.495 . S
C1858 C1857 1.392 . S
C1858 C1859 1.385 . S
C1858 C1860 1.478 . S
C1859 H1853 0.930 . S
C1859 C1855 1.400 1_455 S
C1859 C1858 1.385 . S
C1860 C1858 1.478 . S
C1860 C1862 1.381 . S
C1860 C1866 1.383 . S
C1861 C1857 1.495 . S
C1861 H1867 0.959 . S
C1861 H1868 0.961 . S
C1861 H1869 0.960 . S
C1862 C1860 1.381 . S
C1862 C1863 1.394 . S
C1862 H1870 0.930 . S
C1863 C1862 1.394 . S
C1863 C1864 1.383 . S
C1863 H1871 0.929 . S
C1864 C1863 1.383 . S
C1864 C1865 1.377 . S
C1865 H1849 0.930 . S
C1865 C1864 1.377 . S
C1865 C1866 1.379 . S
C1866 H1850 0.931 . S
C1866 C1860 1.383 . S
C1866 C1865 1.379 . S
H1867 C1861 0.959 . S
H1868 C1861 0.961 . S
H1869 C1861 0.960 . S
H1870 C1862 0.930 . S
H1871 C1863 0.929 . S
H1872 C1880 0.929 . S
H1873 C1882 0.930 . S
H1874 C1884 0.930 . S
H1875 C1887 0.929 . S
H1876 C1890 0.935 . S
H1877 C1892 0.960 . S
H1878 C1892 0.960 . S
H1879 C1892 0.960 . S
C1880 H1872 0.929 . S
C1880 C1881 1.377 . S
C1880 C1882 1.384 . S
C1881 C1880 1.377 . S
C1881 C1887 1.390 . S
C1882 H1873 0.930 . S
C1882 C1880 1.384 . S
C1882 C1883 1.372 . S
C1883 C1882 1.372 . S
C1883 C1884 1.400 . S
C1883 C1888 1.490 . S
C1884 H1874 0.930 . S
C1884 C1883 1.400 . S
C1884 C1887 1.386 . S
H1885 C1901 0.930 . S
H1886 C1902 0.931 . S
C1887 H1875 0.929 . S
C1887 C1881 1.390 . S
C1887 C1884 1.386 . S
C1888 C1883 1.490 . S
C1888 C1890 1.359 1_565 S
C1888 C1891 1.403 . S
H1889 C1895 0.930 . S
C1890 H1876 0.935 . S
C1890 C1888 1.359 1_545 S
C1890 C1893 1.436 . S
C1891 C1888 1.403 . S
C1891 C1892 1.524 . S
C1891 C1895 1.400 1_565 S
C1892 H1877 0.960 . S
C1892 H1878 0.960 . S
C1892 H1879 0.960 . S
C1892 C1891 1.524 . S
C1893 C1890 1.436 . S
C1893 C1894 1.392 . S
C1893 C1897 1.495 . S
C1894 C1893 1.392 . S
C1894 C1895 1.385 . S
C1894 C1896 1.478 . S
C1895 H1889 0.930 . S
C1895 C1891 1.400 1_545 S
C1895 C1894 1.385 . S
C1896 C1894 1.478 . S
C1896 C1898 1.381 . S
C1896 C1902 1.383 . S
C1897 C1893 1.495 . S
C1897 H1903 0.959 . S
C1897 H1904 0.961 . S
C1897 H1905 0.960 . S
C1898 C1896 1.381 . S
C1898 C1899 1.394 . S
C1898 H1906 0.930 . S
C1899 C1898 1.394 . S
C1899 C1900 1.383 . S
C1899 H1907 0.929 . S
C1900 C1899 1.383 . S
C1900 C1901 1.377 . S
C1901 H1885 0.930 . S
C1901 C1900 1.377 . S
C1901 C1902 1.379 . S
C1902 H1886 0.931 . S
C1902 C1896 1.383 . S
C1902 C1901 1.379 . S
H1903 C1897 0.959 . S
H1904 C1897 0.961 . S
H1905 C1897 0.960 . S
H1906 C1898 0.930 . S
H1907 C1899 0.929 . S
H1908 C1916 0.929 . S
H1909 C1918 0.930 . S
H1910 C1920 0.930 . S
H1911 C1923 0.929 . S
H1912 C1926 0.930 . S
H1913 C1928 0.960 . S
H1914 C1928 0.960 . S
H1915 C1928 0.960 . S
C1916 H1908 0.929 . S
C1916 C1917 1.377 . S
C1916 C1918 1.384 . S
C1917 C1916 1.377 . S
C1917 C1923 1.390 . S
C1918 H1909 0.930 . S
C1918 C1916 1.384 . S
C1918 C1919 1.372 . S
C1919 C1918 1.372 . S
C1919 C1920 1.400 . S
C1919 C1924 1.490 . S
C1920 H1910 0.930 . S
C1920 C1919 1.400 . S
C1920 C1923 1.386 . S
H1921 C1937 0.930 . S
H1922 C1938 0.931 . S
C1923 H1911 0.929 . S
C1923 C1917 1.390 . S
C1923 C1920 1.386 . S
C1924 C1919 1.490 . S
C1924 C1926 1.395 . S
C1924 C1927 1.403 . S
H1925 C1931 0.930 . S
C1926 H1912 0.930 . S
C1926 C1924 1.395 . S
C1926 C1929 1.403 . S
C1927 C1924 1.403 . S
C1927 C1928 1.524 . S
C1927 C1931 1.400 . S
C1928 H1913 0.960 . S
C1928 H1914 0.960 . S
C1928 H1915 0.960 . S
C1928 C1927 1.524 . S
C1929 C1926 1.403 . S
C1929 C1930 1.392 . S
C1929 C1933 1.495 . S
C1930 C1929 1.392 . S
C1930 C1931 1.385 . S
C1930 C1932 1.478 . S
C1931 H1925 0.930 . S
C1931 C1927 1.400 . S
C1931 C1930 1.385 . S
C1932 C1930 1.478 . S
C1932 C1934 1.381 . S
C1932 C1938 1.383 . S
C1933 C1929 1.495 . S
C1933 H1939 0.959 . S
C1933 H1940 0.961 . S
C1933 H1941 0.960 . S
C1934 C1932 1.381 . S
C1934 C1935 1.394 . S
C1934 H1942 0.930 . S
C1935 C1934 1.394 . S
C1935 C1936 1.383 . S
C1935 H1943 0.929 . S
C1936 C1935 1.383 . S
C1936 C1937 1.377 . S
C1937 H1921 0.930 . S
C1937 C1936 1.377 . S
C1937 C1938 1.379 . S
C1938 H1922 0.931 . S
C1938 C1932 1.383 . S
C1938 C1937 1.379 . S
H1939 C1933 0.959 . S
H1940 C1933 0.961 . S
H1941 C1933 0.960 . S
H1942 C1934 0.930 . S
H1943 C1935 0.929 . S
H1944 C1952 0.929 . S
H1945 C1954 0.930 . S
H1946 C1956 0.930 . S
H1947 C1959 0.929 . S
H1948 C1962 0.930 . S
H1949 C1964 0.960 1_655 S
H1950 C1964 0.960 . S
H1951 C1964 0.960 . S
C1952 H1944 0.929 . S
C1952 C1953 1.377 . S
C1952 C1954 1.384 . S
C1953 C1952 1.377 . S
C1953 C1959 1.390 . S
C1954 H1945 0.930 . S
C1954 C1952 1.384 . S
C1954 C1955 1.372 . S
C1955 C1954 1.372 . S
C1955 C1956 1.400 . S
C1955 C1960 1.490 . S
C1956 H1946 0.930 . S
C1956 C1955 1.400 . S
C1956 C1959 1.386 . S
H1957 C1973 0.930 . S
H1958 C1974 0.931 . S
C1959 H1947 0.929 . S
C1959 C1953 1.390 . S
C1959 C1956 1.386 . S
C1960 C1955 1.490 . S
C1960 C1962 1.395 . S
C1960 C1963 1.403 . S
H1961 C1967 0.930 . S
C1962 H1948 0.930 . S
C1962 C1960 1.395 . S
C1962 C1965 1.403 1_455 S
C1963 C1960 1.403 . S
C1963 C1964 1.524 . S
C1963 C1967 1.400 1_455 S
C1964 H1949 0.960 1_455 S
C1964 H1950 0.960 . S
C1964 H1951 0.960 . S
C1964 C1963 1.524 . S
C1965 C1962 1.403 1_655 S
C1965 C1966 1.392 . S
C1965 C1969 1.495 . S
C1966 C1965 1.392 . S
C1966 C1967 1.385 . S
C1966 C1968 1.478 . S
C1967 H1961 0.930 . S
C1967 C1963 1.400 1_655 S
C1967 C1966 1.385 . S
C1968 C1966 1.478 . S
C1968 C1970 1.381 . S
C1968 C1974 1.383 . S
C1969 C1965 1.495 . S
C1969 H1975 0.959 1_655 S
C1969 H1976 0.961 . S
C1969 H1977 0.960 . S
C1970 C1968 1.381 . S
C1970 C1971 1.394 . S
C1970 H1978 0.930 . S
C1971 C1970 1.394 . S
C1971 C1972 1.383 . S
C1971 H1979 0.929 . S
C1972 C1971 1.383 . S
C1972 C1973 1.377 . S
C1973 H1957 0.930 . S
C1973 C1972 1.377 . S
C1973 C1974 1.379 . S
C1974 H1958 0.931 . S
C1974 C1968 1.383 . S
C1974 C1973 1.379 . S
H1975 C1969 0.959 1_455 S
H1976 C1969 0.961 . S
H1977 C1969 0.960 . S
H1978 C1970 0.930 . S
H1979 C1971 0.929 . S
H1980 C1988 0.929 . S
H1981 C1990 0.930 . S
H1982 C1992 0.930 . S
H1983 C1995 0.929 . S
H1984 C1998 0.930 . S
H1985 C2000 0.960 1_565 S
H1986 C2000 0.960 . S
H1987 C2000 0.960 . S
C1988 H1980 0.929 . S
C1988 C1989 1.377 . S
C1988 C1990 1.384 . S
C1989 C1988 1.377 . S
C1989 C1995 1.390 . S
C1990 H1981 0.930 . S
C1990 C1988 1.384 . S
C1990 C1991 1.372 . S
C1991 C1990 1.372 . S
C1991 C1992 1.400 . S
C1991 C1996 1.490 . S
C1992 H1982 0.930 . S
C1992 C1991 1.400 . S
C1992 C1995 1.386 . S
H1993 C2009 0.930 . S
H1994 C2010 0.931 . S
C1995 H1983 0.929 . S
C1995 C1989 1.390 . S
C1995 C1992 1.386 . S
C1996 C1991 1.490 . S
C1996 C1998 1.395 . S
C1996 C1999 1.403 . S
H1997 C2003 0.930 . S
C1998 H1984 0.930 . S
C1998 C1996 1.395 . S
C1998 C2001 1.403 1_545 S
C1999 C1996 1.403 . S
C1999 C2000 1.524 . S
C1999 C2003 1.400 1_545 S
C2000 H1985 0.960 1_545 S
C2000 H1986 0.960 . S
C2000 H1987 0.960 . S
C2000 C1999 1.524 . S
C2001 C1998 1.403 1_565 S
C2001 C2002 1.392 . S
C2001 C2005 1.495 . S
C2002 C2001 1.392 . S
C2002 C2003 1.385 . S
C2002 C2004 1.478 . S
C2003 H1997 0.930 . S
C2003 C1999 1.400 1_565 S
C2003 C2002 1.385 . S
C2004 C2002 1.478 . S
C2004 C2006 1.381 . S
C2004 C2010 1.383 . S
C2005 C2001 1.495 . S
C2005 H2011 0.959 1_565 S
C2005 H2012 0.961 . S
C2005 H2013 0.960 . S
C2006 C2004 1.381 . S
C2006 C2007 1.394 . S
C2006 H2014 0.930 . S
C2007 C2006 1.394 . S
C2007 C2008 1.383 . S
C2007 H2015 0.929 . S
C2008 C2007 1.383 . S
C2008 C2009 1.377 . S
C2009 H1993 0.930 . S
C2009 C2008 1.377 . S
C2009 C2010 1.379 . S
C2010 H1994 0.931 . S
C2010 C2004 1.383 . S
C2010 C2009 1.379 . S
H2011 C2005 0.959 1_545 S
H2012 C2005 0.961 . S
H2013 C2005 0.960 . S
H2014 C2006 0.930 . S
H2015 C2007 0.929 . S
H2016 C2024 0.929 . S
H2017 C2026 0.930 . S
H2018 C2028 0.930 . S
H2019 C2031 0.929 . S
H2020 C2034 0.930 . S
H2021 C2036 0.960 . S
H2022 C2036 0.960 . S
H2023 C2036 0.960 . S
C2024 H2016 0.929 . S
C2024 C2025 1.377 . S
C2024 C2026 1.384 . S
C2025 C2024 1.377 . S
C2025 C2031 1.390 . S
C2026 H2017 0.930 . S
C2026 C2024 1.384 . S
C2026 C2027 1.372 . S
C2027 C2026 1.372 . S
C2027 C2028 1.400 . S
C2027 C2032 1.490 . S
C2028 H2018 0.930 . S
C2028 C2027 1.400 . S
C2028 C2031 1.386 . S
H2029 C2045 0.930 . S
H2030 C2046 0.931 . S
C2031 H2019 0.929 . S
C2031 C2025 1.390 . S
C2031 C2028 1.386 . S
C2032 C2027 1.490 . S
C2032 C2034 1.395 . S
C2032 C2035 1.403 . S
H2033 C2039 0.930 . S
C2034 H2020 0.930 . S
C2034 C2032 1.395 . S
C2034 C2037 1.403 . S
C2035 C2032 1.403 . S
C2035 C2036 1.524 . S
C2035 C2039 1.400 . S
C2036 H2021 0.960 . S
C2036 H2022 0.960 . S
C2036 H2023 0.960 . S
C2036 C2035 1.524 . S
C2037 C2034 1.403 . S
C2037 C2038 1.392 . S
C2037 C2041 1.495 . S
C2038 C2037 1.392 . S
C2038 C2039 1.385 . S
C2038 C2040 1.478 . S
C2039 H2033 0.930 . S
C2039 C2035 1.400 . S
C2039 C2038 1.385 . S
C2040 C2038 1.478 . S
C2040 C2042 1.381 . S
C2040 C2046 1.383 . S
C2041 C2037 1.495 . S
C2041 H2047 0.959 . S
C2041 H2048 0.961 . S
C2041 H2049 0.960 . S
C2042 C2040 1.381 . S
C2042 C2043 1.394 . S
C2042 H2050 0.930 . S
C2043 C2042 1.394 . S
C2043 C2044 1.383 . S
C2043 H2051 0.929 . S
C2044 C2043 1.383 . S
C2044 C2045 1.377 . S
C2045 H2029 0.930 . S
C2045 C2044 1.377 . S
C2045 C2046 1.379 . S
C2046 H2030 0.931 . S
C2046 C2040 1.383 . S
C2046 C2045 1.379 . S
H2047 C2041 0.959 . S
H2048 C2041 0.961 . S
H2049 C2041 0.960 . S
H2050 C2042 0.930 . S
H2051 C2043 0.929 . S
H2052 C2060 0.929 . S
H2053 C2062 0.930 . S
H2054 C2064 0.930 . S
H2055 C2067 0.929 . S
H2056 C2070 0.936 1_455 S
H2057 C2072 0.960 . S
H2058 C2072 0.960 . S
H2059 C2072 0.960 . S
C2060 H2052 0.929 . S
C2060 C2061 1.377 . S
C2060 C2062 1.384 . S
C2061 C2060 1.377 . S
C2061 C2067 1.390 . S
C2062 H2053 0.930 . S
C2062 C2060 1.384 . S
C2062 C2063 1.372 . S
C2063 C2062 1.372 . S
C2063 C2064 1.400 . S
C2063 C2068 1.490 . S
C2064 H2054 0.930 . S
C2064 C2063 1.400 . S
C2064 C2067 1.386 . S
H2065 C2081 0.930 . S
H2066 C2082 0.931 . S
C2067 H2055 0.929 . S
C2067 C2061 1.390 . S
C2067 C2064 1.386 . S
C2068 C2063 1.490 . S
C2068 C2070 1.385 1_455 S
C2068 C2071 1.403 . S
H2069 C2075 0.930 . S
C2070 H2056 0.936 1_655 S
C2070 C2068 1.385 1_655 S
C2070 C2073 1.412 . S
C2071 C2068 1.403 . S
C2071 C2072 1.524 . S
C2071 C2075 1.400 1_455 S
C2072 H2057 0.960 . S
C2072 H2058 0.960 . S
C2072 H2059 0.960 . S
C2072 C2071 1.524 . S
C2073 C2070 1.412 . S
C2073 C2074 1.392 . S
C2073 C2077 1.495 . S
C2074 C2073 1.392 . S
C2074 C2075 1.385 . S
C2074 C2076 1.478 . S
C2075 H2069 0.930 . S
C2075 C2071 1.400 1_655 S
C2075 C2074 1.385 . S
C2076 C2074 1.478 . S
C2076 C2078 1.381 . S
C2076 C2082 1.383 . S
C2077 C2073 1.495 . S
C2077 H2083 0.959 . S
C2077 H2084 0.961 . S
C2077 H2085 0.960 . S
C2078 C2076 1.381 . S
C2078 C2079 1.394 . S
C2078 H2086 0.930 . S
C2079 C2078 1.394 . S
C2079 C2080 1.383 . S
C2079 H2087 0.929 . S
C2080 C2079 1.383 . S
C2080 C2081 1.377 . S
C2081 H2065 0.930 . S
C2081 C2080 1.377 . S
C2081 C2082 1.379 . S
C2082 H2066 0.931 . S
C2082 C2076 1.383 . S
C2082 C2081 1.379 . S
H2083 C2077 0.959 . S
H2084 C2077 0.961 . S
H2085 C2077 0.960 . S
H2086 C2078 0.930 . S
H2087 C2079 0.929 . S
H2088 C2096 0.929 . S
H2089 C2098 0.930 . S
H2090 C2100 0.930 . S
H2091 C2103 0.929 . S
H2092 C2106 0.930 . S
H2093 C2108 0.960 . S
H2094 C2108 0.960 . S
H2095 C2108 0.960 . S
C2096 H2088 0.929 . S
C2096 C2097 1.377 . S
C2096 C2098 1.384 . S
C2097 C2096 1.377 . S
C2097 C2103 1.390 . S
C2098 H2089 0.930 . S
C2098 C2096 1.384 . S
C2098 C2099 1.372 . S
C2099 C2098 1.372 . S
C2099 C2100 1.400 . S
C2099 C2104 1.490 . S
C2100 H2090 0.930 . S
C2100 C2099 1.400 . S
C2100 C2103 1.386 . S
H2101 C2117 0.930 . S
H2102 C2118 0.931 . S
C2103 H2091 0.929 . S
C2103 C2097 1.390 . S
C2103 C2100 1.386 . S
C2104 C2099 1.490 . S
C2104 C2106 1.395 . S
C2104 C2107 1.403 . S
H2105 C2111 0.930 . S
C2106 H2092 0.930 . S
C2106 C2104 1.395 . S
C2106 C2109 1.403 . S
C2107 C2104 1.403 . S
C2107 C2108 1.524 . S
C2107 C2111 1.400 . S
C2108 H2093 0.960 . S
C2108 H2094 0.960 . S
C2108 H2095 0.960 . S
C2108 C2107 1.524 . S
C2109 C2106 1.403 . S
C2109 C2110 1.392 . S
C2109 C2113 1.495 . S
C2110 C2109 1.392 . S
C2110 C2111 1.385 . S
C2110 C2112 1.478 . S
C2111 H2105 0.930 . S
C2111 C2107 1.400 . S
C2111 C2110 1.385 . S
C2112 C2110 1.478 . S
C2112 C2114 1.381 . S
C2112 C2118 1.383 . S
C2113 C2109 1.495 . S
C2113 H2119 0.959 . S
C2113 H2120 0.961 . S
C2113 H2121 0.960 . S
C2114 C2112 1.381 . S
C2114 C2115 1.394 . S
C2114 H2122 0.930 . S
C2115 C2114 1.394 . S
C2115 C2116 1.383 . S
C2115 H2123 0.929 . S
C2116 C2115 1.383 . S
C2116 C2117 1.377 . S
C2117 H2101 0.930 . S
C2117 C2116 1.377 . S
C2117 C2118 1.379 . S
C2118 H2102 0.931 . S
C2118 C2112 1.383 . S
C2118 C2117 1.379 . S
H2119 C2113 0.959 . S
H2120 C2113 0.961 . S
H2121 C2113 0.960 . S
H2122 C2114 0.930 . S
H2123 C2115 0.929 . S
H2124 C2132 0.929 . S
H2125 C2134 0.930 . S
H2126 C2136 0.930 . S
H2127 C2139 0.929 . S
H2128 C2142 0.930 . S
H2129 C2144 0.960 . S
H2130 C2144 0.960 . S
H2131 C2144 0.960 . S
C2132 H2124 0.929 . S
C2132 C2133 1.377 . S
C2132 C2134 1.384 . S
C2133 C2132 1.377 . S
C2133 C2139 1.390 . S
C2134 H2125 0.930 . S
C2134 C2132 1.384 . S
C2134 C2135 1.372 . S
C2135 C2134 1.372 . S
C2135 C2136 1.400 . S
C2135 C2140 1.490 . S
C2136 H2126 0.930 . S
C2136 C2135 1.400 . S
C2136 C2139 1.386 . S
H2137 C2153 0.930 . S
H2138 C2154 0.931 . S
C2139 H2127 0.929 . S
C2139 C2133 1.390 . S
C2139 C2136 1.386 . S
C2140 C2135 1.490 . S
C2140 C2142 1.395 . S
C2140 C2143 1.403 . S
H2141 C2147 0.930 . S
C2142 H2128 0.930 . S
C2142 C2140 1.395 . S
C2142 C2145 1.403 . S
C2143 C2140 1.403 . S
C2143 C2144 1.524 . S
C2143 C2147 1.400 . S
C2144 H2129 0.960 . S
C2144 H2130 0.960 . S
C2144 H2131 0.960 . S
C2144 C2143 1.524 . S
C2145 C2142 1.403 . S
C2145 C2146 1.392 . S
C2145 C2149 1.495 . S
C2146 C2145 1.392 . S
C2146 C2147 1.385 . S
C2146 C2148 1.478 . S
C2147 H2141 0.930 . S
C2147 C2143 1.400 . S
C2147 C2146 1.385 . S
C2148 C2146 1.478 . S
C2148 C2150 1.381 . S
C2148 C2154 1.383 . S
C2149 C2145 1.495 . S
C2149 H2155 0.959 . S
C2149 H2156 0.961 . S
C2149 H2157 0.960 . S
C2150 C2148 1.381 . S
C2150 C2151 1.394 . S
C2150 H2158 0.930 . S
C2151 C2150 1.394 . S
C2151 C2152 1.383 . S
C2151 H2159 0.929 . S
C2152 C2151 1.383 . S
C2152 C2153 1.377 . S
C2153 H2137 0.930 . S
C2153 C2152 1.377 . S
C2153 C2154 1.379 . S
C2154 H2138 0.931 . S
C2154 C2148 1.383 . S
C2154 C2153 1.379 . S
H2155 C2149 0.959 . S
H2156 C2149 0.961 . S
H2157 C2149 0.960 . S
H2158 C2150 0.930 . S
H2159 C2151 0.929 . S
H2160 C2168 0.929 . S
H2161 C2170 0.930 . S
H2162 C2172 0.930 . S
H2163 C2175 0.929 . S
H2164 C2178 0.930 . S
H2165 C2180 0.960 . S
H2166 C2180 0.960 . S
H2167 C2180 0.960 . S
C2168 H2160 0.929 . S
C2168 C2169 1.377 . S
C2168 C2170 1.384 . S
C2169 C2168 1.377 . S
C2169 C2175 1.390 . S
C2170 H2161 0.930 . S
C2170 C2168 1.384 . S
C2170 C2171 1.372 . S
C2171 C2170 1.372 . S
C2171 C2172 1.400 . S
C2171 C2176 1.490 . S
C2172 H2162 0.930 . S
C2172 C2171 1.400 . S
C2172 C2175 1.386 . S
H2173 C2189 0.930 . S
H2174 C2190 0.931 . S
C2175 H2163 0.929 . S
C2175 C2169 1.390 . S
C2175 C2172 1.386 . S
C2176 C2171 1.490 . S
C2176 C2178 1.395 . S
C2176 C2179 1.403 . S
H2177 C2183 0.930 . S
C2178 H2164 0.930 . S
C2178 C2176 1.395 . S
C2178 C2181 1.403 . S
C2179 C2176 1.403 . S
C2179 C2180 1.524 . S
C2179 C2183 1.400 . S
C2180 H2165 0.960 . S
C2180 H2166 0.960 . S
C2180 H2167 0.960 . S
C2180 C2179 1.524 . S
C2181 C2178 1.403 . S
C2181 C2182 1.392 . S
C2181 C2185 1.495 . S
C2182 C2181 1.392 . S
C2182 C2183 1.385 . S
C2182 C2184 1.478 . S
C2183 H2177 0.930 . S
C2183 C2179 1.400 . S
C2183 C2182 1.385 . S
C2184 C2182 1.478 . S
C2184 C2186 1.381 . S
C2184 C2190 1.383 . S
C2185 C2181 1.495 . S
C2185 H2191 0.959 . S
C2185 H2192 0.961 . S
C2185 H2193 0.960 . S
C2186 C2184 1.381 . S
C2186 C2187 1.394 . S
C2186 H2194 0.930 . S
C2187 C2186 1.394 . S
C2187 C2188 1.383 . S
C2187 H2195 0.929 . S
C2188 C2187 1.383 . S
C2188 C2189 1.377 . S
C2189 H2173 0.930 . S
C2189 C2188 1.377 . S
C2189 C2190 1.379 . S
C2190 H2174 0.931 . S
C2190 C2184 1.383 . S
C2190 C2189 1.379 . S
H2191 C2185 0.959 . S
H2192 C2185 0.961 . S
H2193 C2185 0.960 . S
H2194 C2186 0.930 . S
H2195 C2187 0.929 . S
H2196 C2204 0.929 . S
H2197 C2206 0.930 . S
H2198 C2208 0.930 . S
H2199 C2211 0.929 . S
H2200 C2214 0.930 . S
H2201 C2216 0.960 . S
H2202 C2216 0.960 . S
H2203 C2216 0.960 . S
C2204 H2196 0.929 . S
C2204 C2205 1.377 . S
C2204 C2206 1.384 . S
C2205 C2204 1.377 . S
C2205 C2211 1.390 . S
C2206 H2197 0.930 . S
C2206 C2204 1.384 . S
C2206 C2207 1.372 . S
C2207 C2206 1.372 . S
C2207 C2208 1.400 . S
C2207 C2212 1.490 . S
C2208 H2198 0.930 . S
C2208 C2207 1.400 . S
C2208 C2211 1.386 . S
H2209 C2225 0.930 . S
H2210 C2226 0.931 . S
C2211 H2199 0.929 . S
C2211 C2205 1.390 . S
C2211 C2208 1.386 . S
C2212 C2207 1.490 . S
C2212 C2214 1.395 . S
C2212 C2215 1.403 . S
H2213 C2219 0.930 . S
C2214 H2200 0.930 . S
C2214 C2212 1.395 . S
C2214 C2217 1.403 . S
C2215 C2212 1.403 . S
C2215 C2216 1.524 . S
C2215 C2219 1.400 . S
C2216 H2201 0.960 . S
C2216 H2202 0.960 . S
C2216 H2203 0.960 . S
C2216 C2215 1.524 . S
C2217 C2214 1.403 . S
C2217 C2218 1.392 . S
C2217 C2221 1.495 . S
C2218 C2217 1.392 . S
C2218 C2219 1.385 . S
C2218 C2220 1.478 . S
C2219 H2213 0.930 . S
C2219 C2215 1.400 . S
C2219 C2218 1.385 . S
C2220 C2218 1.478 . S
C2220 C2222 1.381 . S
C2220 C2226 1.383 . S
C2221 C2217 1.495 . S
C2221 H2227 0.959 . S
C2221 H2228 0.961 . S
C2221 H2229 0.960 . S
C2222 C2220 1.381 . S
C2222 C2223 1.394 . S
C2222 H2230 0.930 . S
C2223 C2222 1.394 . S
C2223 C2224 1.383 . S
C2223 H2231 0.929 . S
C2224 C2223 1.383 . S
C2224 C2225 1.377 . S
C2225 H2209 0.930 . S
C2225 C2224 1.377 . S
C2225 C2226 1.379 . S
C2226 H2210 0.931 . S
C2226 C2220 1.383 . S
C2226 C2225 1.379 . S
H2227 C2221 0.959 . S
H2228 C2221 0.961 . S
H2229 C2221 0.960 . S
H2230 C2222 0.930 . S
H2231 C2223 0.929 . S
H2232 C2240 0.929 . S
H2233 C2242 0.930 . S
H2234 C2244 0.930 . S
H2235 C2247 0.929 . S
H2236 C2250 0.930 . S
H2237 C2252 0.960 . S
H2238 C2252 0.960 . S
H2239 C2252 0.960 . S
C2240 H2232 0.929 . S
C2240 C2241 1.377 . S
C2240 C2242 1.384 . S
C2241 C2240 1.377 . S
C2241 C2247 1.390 . S
C2242 H2233 0.930 . S
C2242 C2240 1.384 . S
C2242 C2243 1.372 . S
C2243 C2242 1.372 . S
C2243 C2244 1.400 . S
C2243 C2248 1.490 . S
C2244 H2234 0.930 . S
C2244 C2243 1.400 . S
C2244 C2247 1.386 . S
H2245 C2261 0.930 . S
H2246 C2262 0.931 . S
C2247 H2235 0.929 . S
C2247 C2241 1.390 . S
C2247 C2244 1.386 . S
C2248 C2243 1.490 . S
C2248 C2250 1.395 . S
C2248 C2251 1.403 . S
H2249 C2255 0.930 . S
C2250 H2236 0.930 . S
C2250 C2248 1.395 . S
C2250 C2253 1.403 . S
C2251 C2248 1.403 . S
C2251 C2252 1.524 . S
C2251 C2255 1.400 . S
C2252 H2237 0.960 . S
C2252 H2238 0.960 . S
C2252 H2239 0.960 . S
C2252 C2251 1.524 . S
C2253 C2250 1.403 . S
C2253 C2254 1.392 . S
C2253 C2257 1.495 . S
C2254 C2253 1.392 . S
C2254 C2255 1.385 . S
C2254 C2256 1.478 . S
C2255 H2249 0.930 . S
C2255 C2251 1.400 . S
C2255 C2254 1.385 . S
C2256 C2254 1.478 . S
C2256 C2258 1.381 . S
C2256 C2262 1.383 . S
C2257 C2253 1.495 . S
C2257 H2263 0.959 . S
C2257 H2264 0.961 . S
C2257 H2265 0.960 . S
C2258 C2256 1.381 . S
C2258 C2259 1.394 . S
C2258 H2266 0.930 . S
C2259 C2258 1.394 . S
C2259 C2260 1.383 . S
C2259 H2267 0.929 . S
C2260 C2259 1.383 . S
C2260 C2261 1.377 . S
C2261 H2245 0.930 . S
C2261 C2260 1.377 . S
C2261 C2262 1.379 . S
C2262 H2246 0.931 . S
C2262 C2256 1.383 . S
C2262 C2261 1.379 . S
H2263 C2257 0.959 . S
H2264 C2257 0.961 . S
H2265 C2257 0.960 . S
H2266 C2258 0.930 . S
H2267 C2259 0.929 . S
H2268 C2276 0.929 . S
H2269 C2278 0.930 . S
H2270 C2280 0.930 . S
H2271 C2283 0.929 . S
H2272 C2286 0.930 . S
H2273 C2288 0.960 . S
H2274 C2288 0.960 . S
H2275 C2288 0.960 . S
C2276 H2268 0.929 . S
C2276 C2277 1.377 . S
C2276 C2278 1.384 . S
C2277 C2276 1.377 . S
C2277 C2283 1.390 . S
C2278 H2269 0.930 . S
C2278 C2276 1.384 . S
C2278 C2279 1.372 . S
C2279 C2278 1.372 . S
C2279 C2280 1.400 . S
C2279 C2284 1.490 . S
C2280 H2270 0.930 . S
C2280 C2279 1.400 . S
C2280 C2283 1.386 . S
H2281 C2297 0.930 . S
H2282 C2298 0.931 . S
C2283 H2271 0.929 . S
C2283 C2277 1.390 . S
C2283 C2280 1.386 . S
C2284 C2279 1.490 . S
C2284 C2286 1.395 . S
C2284 C2287 1.403 . S
H2285 C2291 0.930 . S
C2286 H2272 0.930 . S
C2286 C2284 1.395 . S
C2286 C2289 1.403 . S
C2287 C2284 1.403 . S
C2287 C2288 1.524 . S
C2287 C2291 1.400 . S
C2288 H2273 0.960 . S
C2288 H2274 0.960 . S
C2288 H2275 0.960 . S
C2288 C2287 1.524 . S
C2289 C2286 1.403 . S
C2289 C2290 1.392 . S
C2289 C2293 1.495 . S
C2290 C2289 1.392 . S
C2290 C2291 1.385 . S
C2290 C2292 1.478 . S
C2291 H2285 0.930 . S
C2291 C2287 1.400 . S
C2291 C2290 1.385 . S
C2292 C2290 1.478 . S
C2292 C2294 1.381 . S
C2292 C2298 1.383 . S
C2293 C2289 1.495 . S
C2293 H2299 0.959 . S
C2293 H2300 0.961 . S
C2293 H2301 0.960 . S
C2294 C2292 1.381 . S
C2294 C2295 1.394 . S
C2294 H2302 0.930 . S
C2295 C2294 1.394 . S
C2295 C2296 1.383 . S
C2295 H2303 0.929 . S
C2296 C2295 1.383 . S
C2296 C2297 1.377 . S
C2297 H2281 0.930 . S
C2297 C2296 1.377 . S
C2297 C2298 1.379 . S
C2298 H2282 0.931 . S
C2298 C2292 1.383 . S
C2298 C2297 1.379 . S
H2299 C2293 0.959 . S
H2300 C2293 0.961 . S
H2301 C2293 0.960 . S
H2302 C2294 0.930 . S
H2303 C2295 0.929 . S
H2304 C2312 0.929 . S
H2305 C2314 0.930 . S
H2306 C2316 0.930 . S
H2307 C2319 0.929 . S
H2308 C2322 0.930 . S
H2309 C2324 0.960 . S
H2310 C2324 0.960 . S
H2311 C2324 0.960 . S
C2312 H2304 0.929 . S
C2312 C2313 1.377 . S
C2312 C2314 1.384 . S
C2313 C2312 1.377 . S
C2313 C2319 1.390 . S
C2314 H2305 0.930 . S
C2314 C2312 1.384 . S
C2314 C2315 1.372 . S
C2315 C2314 1.372 . S
C2315 C2316 1.400 . S
C2315 C2320 1.490 . S
C2316 H2306 0.930 . S
C2316 C2315 1.400 . S
C2316 C2319 1.386 . S
H2317 C2333 0.930 . S
H2318 C2334 0.931 . S
C2319 H2307 0.929 . S
C2319 C2313 1.390 . S
C2319 C2316 1.386 . S
C2320 C2315 1.490 . S
C2320 C2322 1.395 . S
C2320 C2323 1.403 . S
H2321 C2327 0.930 . S
C2322 H2308 0.930 . S
C2322 C2320 1.395 . S
C2322 C2325 1.403 . S
C2323 C2320 1.403 . S
C2323 C2324 1.524 . S
C2323 C2327 1.400 . S
C2324 H2309 0.960 . S
C2324 H2310 0.960 . S
C2324 H2311 0.960 . S
C2324 C2323 1.524 . S
C2325 C2322 1.403 . S
C2325 C2326 1.392 . S
C2325 C2329 1.495 . S
C2326 C2325 1.392 . S
C2326 C2327 1.385 . S
C2326 C2328 1.478 . S
C2327 H2321 0.930 . S
C2327 C2323 1.400 . S
C2327 C2326 1.385 . S
C2328 C2326 1.478 . S
C2328 C2330 1.381 . S
C2328 C2334 1.383 . S
C2329 C2325 1.495 . S
C2329 H2335 0.959 . S
C2329 H2336 0.961 . S
C2329 H2337 0.960 . S
C2330 C2328 1.381 . S
C2330 C2331 1.394 . S
C2330 H2338 0.930 . S
C2331 C2330 1.394 . S
C2331 C2332 1.383 . S
C2331 H2339 0.929 . S
C2332 C2331 1.383 . S
C2332 C2333 1.377 . S
C2333 H2317 0.930 . S
C2333 C2332 1.377 . S
C2333 C2334 1.379 . S
C2334 H2318 0.931 . S
C2334 C2328 1.383 . S
C2334 C2333 1.379 . S
H2335 C2329 0.959 . S
H2336 C2329 0.961 . S
H2337 C2329 0.960 . S
H2338 C2330 0.930 . S
H2339 C2331 0.929 . S
H2340 C2348 0.929 . S
H2341 C2350 0.930 . S
H2342 C2352 0.930 . S
H2343 C2355 0.929 . S
H2344 C2358 0.930 . S
H2345 C2360 0.960 . S
H2346 C2360 0.960 . S
H2347 C2360 0.960 . S
C2348 H2340 0.929 . S
C2348 C2349 1.377 . S
C2348 C2350 1.384 . S
C2349 C2348 1.377 . S
C2349 C2355 1.390 . S
C2350 H2341 0.930 . S
C2350 C2348 1.384 . S
C2350 C2351 1.372 . S
C2351 C2350 1.372 . S
C2351 C2352 1.400 . S
C2351 C2356 1.490 . S
C2352 H2342 0.930 . S
C2352 C2351 1.400 . S
C2352 C2355 1.386 . S
H2353 C2369 0.930 . S
H2354 C2370 0.931 . S
C2355 H2343 0.929 . S
C2355 C2349 1.390 . S
C2355 C2352 1.386 . S
C2356 C2351 1.490 . S
C2356 C2358 1.395 . S
C2356 C2359 1.403 . S
H2357 C2363 0.930 . S
C2358 H2344 0.930 . S
C2358 C2356 1.395 . S
C2358 C2361 1.403 . S
C2359 C2356 1.403 . S
C2359 C2360 1.524 . S
C2359 C2363 1.400 . S
C2360 H2345 0.960 . S
C2360 H2346 0.960 . S
C2360 H2347 0.960 . S
C2360 C2359 1.524 . S
C2361 C2358 1.403 . S
C2361 C2362 1.392 . S
C2361 C2365 1.495 . S
C2362 C2361 1.392 . S
C2362 C2363 1.385 . S
C2362 C2364 1.478 . S
C2363 H2357 0.930 . S
C2363 C2359 1.400 . S
C2363 C2362 1.385 . S
C2364 C2362 1.478 . S
C2364 C2366 1.381 . S
C2364 C2370 1.383 . S
C2365 C2361 1.495 . S
C2365 H2371 0.959 . S
C2365 H2372 0.961 . S
C2365 H2373 0.960 . S
C2366 C2364 1.381 . S
C2366 C2367 1.394 . S
C2366 H2374 0.930 . S
C2367 C2366 1.394 . S
C2367 C2368 1.383 . S
C2367 H2375 0.929 . S
C2368 C2367 1.383 . S
C2368 C2369 1.377 . S
C2369 H2353 0.930 . S
C2369 C2368 1.377 . S
C2369 C2370 1.379 . S
C2370 H2354 0.931 . S
C2370 C2364 1.383 . S
C2370 C2369 1.379 . S
H2371 C2365 0.959 . S
H2372 C2365 0.961 . S
H2373 C2365 0.960 . S
H2374 C2366 0.930 . S
H2375 C2367 0.929 . S
H2376 C2384 0.929 . S
H2377 C2386 0.930 . S
H2378 C2388 0.930 . S
H2379 C2391 0.929 . S
H2380 C2394 0.930 . S
H2381 C2396 0.960 . S
H2382 C2396 0.960 . S
H2383 C2396 0.960 . S
C2384 H2376 0.929 . S
C2384 C2385 1.377 . S
C2384 C2386 1.384 . S
C2385 C2384 1.377 . S
C2385 C2391 1.390 . S
C2386 H2377 0.930 . S
C2386 C2384 1.384 . S
C2386 C2387 1.372 . S
C2387 C2386 1.372 . S
C2387 C2388 1.400 . S
C2387 C2392 1.490 . S
C2388 H2378 0.930 . S
C2388 C2387 1.400 . S
C2388 C2391 1.386 . S
H2389 C2405 0.930 . S
H2390 C2406 0.931 . S
C2391 H2379 0.929 . S
C2391 C2385 1.390 . S
C2391 C2388 1.386 . S
C2392 C2387 1.490 . S
C2392 C2394 1.395 . S
C2392 C2395 1.403 . S
H2393 C2399 0.930 . S
C2394 H2380 0.930 . S
C2394 C2392 1.395 . S
C2394 C2397 1.403 . S
C2395 C2392 1.403 . S
C2395 C2396 1.524 . S
C2395 C2399 1.400 . S
C2396 H2381 0.960 . S
C2396 H2382 0.960 . S
C2396 H2383 0.960 . S
C2396 C2395 1.524 . S
C2397 C2394 1.403 . S
C2397 C2398 1.392 . S
C2397 C2401 1.495 . S
C2398 C2397 1.392 . S
C2398 C2399 1.385 . S
C2398 C2400 1.478 . S
C2399 H2393 0.930 . S
C2399 C2395 1.400 . S
C2399 C2398 1.385 . S
C2400 C2398 1.478 . S
C2400 C2402 1.381 . S
C2400 C2406 1.383 . S
C2401 C2397 1.495 . S
C2401 H2407 0.959 . S
C2401 H2408 0.961 . S
C2401 H2409 0.960 . S
C2402 C2400 1.381 . S
C2402 C2403 1.394 . S
C2402 H2410 0.930 . S
C2403 C2402 1.394 . S
C2403 C2404 1.383 . S
C2403 H2411 0.929 . S
C2404 C2403 1.383 . S
C2404 C2405 1.377 . S
C2405 H2389 0.930 . S
C2405 C2404 1.377 . S
C2405 C2406 1.379 . S
C2406 H2390 0.931 . S
C2406 C2400 1.383 . S
C2406 C2405 1.379 . S
H2407 C2401 0.959 . S
H2408 C2401 0.961 . S
H2409 C2401 0.960 . S
H2410 C2402 0.930 . S
H2411 C2403 0.929 . S
H2412 C2420 0.929 . S
H2413 C2422 0.930 . S
H2414 C2424 0.930 . S
H2415 C2427 0.929 . S
H2416 C2430 0.930 . S
H2417 C2432 0.960 . S
H2418 C2432 0.960 . S
H2419 C2432 0.960 . S
C2420 H2412 0.929 . S
C2420 C2421 1.377 . S
C2420 C2422 1.384 . S
C2421 C2420 1.377 . S
C2421 C2427 1.390 . S
C2422 H2413 0.930 . S
C2422 C2420 1.384 . S
C2422 C2423 1.372 . S
C2423 C2422 1.372 . S
C2423 C2424 1.400 . S
C2423 C2428 1.490 . S
C2424 H2414 0.930 . S
C2424 C2423 1.400 . S
C2424 C2427 1.386 . S
H2425 C2441 0.930 . S
H2426 C2442 0.931 . S
C2427 H2415 0.929 . S
C2427 C2421 1.390 . S
C2427 C2424 1.386 . S
C2428 C2423 1.490 . S
C2428 C2430 1.395 . S
C2428 C2431 1.403 . S
H2429 C2435 0.930 . S
C2430 H2416 0.930 . S
C2430 C2428 1.395 . S
C2430 C2433 1.403 . S
C2431 C2428 1.403 . S
C2431 C2432 1.524 . S
C2431 C2435 1.400 . S
C2432 H2417 0.960 . S
C2432 H2418 0.960 . S
C2432 H2419 0.960 . S
C2432 C2431 1.524 . S
C2433 C2430 1.403 . S
C2433 C2434 1.392 . S
C2433 C2437 1.495 . S
C2434 C2433 1.392 . S
C2434 C2435 1.385 . S
C2434 C2436 1.478 . S
C2435 H2429 0.930 . S
C2435 C2431 1.400 . S
C2435 C2434 1.385 . S
C2436 C2434 1.478 . S
C2436 C2438 1.381 . S
C2436 C2442 1.383 . S
C2437 C2433 1.495 . S
C2437 H2443 0.959 . S
C2437 H2444 0.961 . S
C2437 H2445 0.960 . S
C2438 C2436 1.381 . S
C2438 C2439 1.394 . S
C2438 H2446 0.930 . S
C2439 C2438 1.394 . S
C2439 C2440 1.383 . S
C2439 H2447 0.929 . S
C2440 C2439 1.383 . S
C2440 C2441 1.377 . S
C2441 H2425 0.930 . S
C2441 C2440 1.377 . S
C2441 C2442 1.379 . S
C2442 H2426 0.931 . S
C2442 C2436 1.383 . S
C2442 C2441 1.379 . S
H2443 C2437 0.959 . S
H2444 C2437 0.961 . S
H2445 C2437 0.960 . S
H2446 C2438 0.930 . S
H2447 C2439 0.929 . S
H2448 C2456 0.929 . S
H2449 C2458 0.930 . S
H2450 C2460 0.930 . S
H2451 C2463 0.929 . S
H2452 C2466 0.930 . S
H2453 C2468 0.960 . S
H2454 C2468 0.960 . S
H2455 C2468 0.960 . S
C2456 H2448 0.929 . S
C2456 C2457 1.377 . S
C2456 C2458 1.384 . S
C2457 C2456 1.377 . S
C2457 C2463 1.390 . S
C2458 H2449 0.930 . S
C2458 C2456 1.384 . S
C2458 C2459 1.372 . S
C2459 C2458 1.372 . S
C2459 C2460 1.400 . S
C2459 C2464 1.490 . S
C2460 H2450 0.930 . S
C2460 C2459 1.400 . S
C2460 C2463 1.386 . S
H2461 C2477 0.930 . S
H2462 C2478 0.931 . S
C2463 H2451 0.929 . S
C2463 C2457 1.390 . S
C2463 C2460 1.386 . S
C2464 C2459 1.490 . S
C2464 C2466 1.395 . S
C2464 C2467 1.403 . S
H2465 C2471 0.930 . S
C2466 H2452 0.930 . S
C2466 C2464 1.395 . S
C2466 C2469 1.403 . S
C2467 C2464 1.403 . S
C2467 C2468 1.524 . S
C2467 C2471 1.400 . S
C2468 H2453 0.960 . S
C2468 H2454 0.960 . S
C2468 H2455 0.960 . S
C2468 C2467 1.524 . S
C2469 C2466 1.403 . S
C2469 C2470 1.392 . S
C2469 C2473 1.495 . S
C2470 C2469 1.392 . S
C2470 C2471 1.385 . S
C2470 C2472 1.478 . S
C2471 H2465 0.930 . S
C2471 C2467 1.400 . S
C2471 C2470 1.385 . S
C2472 C2470 1.478 . S
C2472 C2474 1.381 . S
C2472 C2478 1.383 . S
C2473 C2469 1.495 . S
C2473 H2479 0.959 . S
C2473 H2480 0.961 . S
C2473 H2481 0.960 . S
C2474 C2472 1.381 . S
C2474 C2475 1.394 . S
C2474 H2482 0.930 . S
C2475 C2474 1.394 . S
C2475 C2476 1.383 . S
C2475 H2483 0.929 . S
C2476 C2475 1.383 . S
C2476 C2477 1.377 . S
C2477 H2461 0.930 . S
C2477 C2476 1.377 . S
C2477 C2478 1.379 . S
C2478 H2462 0.931 . S
C2478 C2472 1.383 . S
C2478 C2477 1.379 . S
H2479 C2473 0.959 . S
H2480 C2473 0.961 . S
H2481 C2473 0.960 . S
H2482 C2474 0.930 . S
H2483 C2475 0.929 . S
H2484 C2492 0.929 . S
H2485 C2494 0.930 . S
H2486 C2496 0.930 . S
H2487 C2499 0.929 . S
H2488 C2502 0.930 . S
H2489 C2504 0.960 . S
H2490 C2504 0.960 . S
H2491 C2504 0.960 . S
C2492 H2484 0.929 . S
C2492 C2493 1.377 . S
C2492 C2494 1.384 . S
C2493 C2492 1.377 . S
C2493 C2499 1.390 . S
C2494 H2485 0.930 . S
C2494 C2492 1.384 . S
C2494 C2495 1.372 . S
C2495 C2494 1.372 . S
C2495 C2496 1.400 . S
C2495 C2500 1.490 . S
C2496 H2486 0.930 . S
C2496 C2495 1.400 . S
C2496 C2499 1.386 . S
H2497 C2513 0.930 . S
H2498 C2514 0.931 . S
C2499 H2487 0.929 . S
C2499 C2493 1.390 . S
C2499 C2496 1.386 . S
C2500 C2495 1.490 . S
C2500 C2502 1.395 . S
C2500 C2503 1.403 . S
H2501 C2507 0.930 . S
C2502 H2488 0.930 . S
C2502 C2500 1.395 . S
C2502 C2505 1.403 . S
C2503 C2500 1.403 . S
C2503 C2504 1.524 . S
C2503 C2507 1.400 . S
C2504 H2489 0.960 . S
C2504 H2490 0.960 . S
C2504 H2491 0.960 . S
C2504 C2503 1.524 . S
C2505 C2502 1.403 . S
C2505 C2506 1.392 . S
C2505 C2509 1.495 . S
C2506 C2505 1.392 . S
C2506 C2507 1.385 . S
C2506 C2508 1.478 . S
C2507 H2501 0.930 . S
C2507 C2503 1.400 . S
C2507 C2506 1.385 . S
C2508 C2506 1.478 . S
C2508 C2510 1.381 . S
C2508 C2514 1.383 . S
C2509 C2505 1.495 . S
C2509 H2515 0.959 . S
C2509 H2516 0.961 . S
C2509 H2517 0.960 . S
C2510 C2508 1.381 . S
C2510 C2511 1.394 . S
C2510 H2518 0.930 . S
C2511 C2510 1.394 . S
C2511 C2512 1.383 . S
C2511 H2519 0.929 . S
C2512 C2511 1.383 . S
C2512 C2513 1.377 . S
C2513 H2497 0.930 . S
C2513 C2512 1.377 . S
C2513 C2514 1.379 . S
C2514 H2498 0.931 . S
C2514 C2508 1.383 . S
C2514 C2513 1.379 . S
H2515 C2509 0.959 . S
H2516 C2509 0.961 . S
H2517 C2509 0.960 . S
H2518 C2510 0.930 . S
H2519 C2511 0.929 . S
H2520 C2528 0.929 . S
H2521 C2530 0.930 . S
H2522 C2532 0.930 . S
H2523 C2535 0.929 . S
H2524 C2538 0.930 . S
H2525 C2540 0.960 . S
H2526 C2540 0.960 . S
H2527 C2540 0.960 . S
C2528 H2520 0.929 . S
C2528 C2529 1.377 . S
C2528 C2530 1.384 . S
C2529 C2528 1.377 . S
C2529 C2535 1.390 . S
C2530 H2521 0.930 . S
C2530 C2528 1.384 . S
C2530 C2531 1.372 . S
C2531 C2530 1.372 . S
C2531 C2532 1.400 . S
C2531 C2536 1.490 . S
C2532 H2522 0.930 . S
C2532 C2531 1.400 . S
C2532 C2535 1.386 . S
H2533 C2549 0.930 . S
H2534 C2550 0.931 . S
C2535 H2523 0.929 . S
C2535 C2529 1.390 . S
C2535 C2532 1.386 . S
C2536 C2531 1.490 . S
C2536 C2538 1.395 . S
C2536 C2539 1.403 . S
H2537 C2543 0.930 . S
C2538 H2524 0.930 . S
C2538 C2536 1.395 . S
C2538 C2541 1.403 1_554 S
C2539 C2536 1.403 . S
C2539 C2540 1.524 . S
C2539 C2543 1.400 1_554 S
C2540 H2525 0.960 . S
C2540 H2526 0.960 . S
C2540 H2527 0.960 . S
C2540 C2539 1.524 . S
C2541 C2538 1.403 1_556 S
C2541 C2542 1.392 . S
C2541 C2545 1.495 . S
C2542 C2541 1.392 . S
C2542 C2543 1.385 . S
C2542 C2544 1.478 . S
C2543 H2537 0.930 . S
C2543 C2539 1.400 1_556 S
C2543 C2542 1.385 . S
C2544 C2542 1.478 . S
C2544 C2546 1.381 . S
C2544 C2550 1.383 . S
C2545 C2541 1.495 . S
C2545 H2551 0.959 . S
C2545 H2552 0.961 . S
C2545 H2553 0.960 . S
C2546 C2544 1.381 . S
C2546 C2547 1.394 . S
C2546 H2554 0.930 . S
C2547 C2546 1.394 . S
C2547 C2548 1.383 . S
C2547 H2555 0.929 . S
C2548 C2547 1.383 . S
C2548 C2549 1.377 . S
C2549 H2533 0.930 . S
C2549 C2548 1.377 . S
C2549 C2550 1.379 . S
C2550 H2534 0.931 . S
C2550 C2544 1.383 . S
C2550 C2549 1.379 . S
H2551 C2545 0.959 . S
H2552 C2545 0.961 . S
H2553 C2545 0.960 . S
H2554 C2546 0.930 . S
H2555 C2547 0.929 . S
H2556 C2564 0.929 . S
H2557 C2566 0.930 . S
H2558 C2568 0.930 . S
H2559 C2571 0.929 . S
H2560 C2574 0.930 . S
H2561 C2576 0.960 . S
H2562 C2576 0.960 . S
H2563 C2576 0.960 . S
C2564 H2556 0.929 . S
C2564 C2565 1.377 . S
C2564 C2566 1.384 . S
C2565 C2564 1.377 . S
C2565 C2571 1.390 . S
C2566 H2557 0.930 . S
C2566 C2564 1.384 . S
C2566 C2567 1.372 . S
C2567 C2566 1.372 . S
C2567 C2568 1.400 . S
C2567 C2572 1.490 . S
C2568 H2558 0.930 . S
C2568 C2567 1.400 . S
C2568 C2571 1.386 . S
H2569 C2585 0.930 . S
H2570 C2586 0.931 . S
C2571 H2559 0.929 . S
C2571 C2565 1.390 . S
C2571 C2568 1.386 . S
C2572 C2567 1.490 . S
C2572 C2574 1.395 . S
C2572 C2575 1.403 . S
H2573 C2579 0.930 . S
C2574 H2560 0.930 . S
C2574 C2572 1.395 . S
C2574 C2577 1.403 1_554 S
C2575 C2572 1.403 . S
C2575 C2576 1.524 . S
C2575 C2579 1.400 1_554 S
C2576 H2561 0.960 . S
C2576 H2562 0.960 . S
C2576 H2563 0.960 . S
C2576 C2575 1.524 . S
C2577 C2574 1.403 1_556 S
C2577 C2578 1.392 . S
C2577 C2581 1.495 . S
C2578 C2577 1.392 . S
C2578 C2579 1.385 . S
C2578 C2580 1.478 . S
C2579 H2573 0.930 . S
C2579 C2575 1.400 1_556 S
C2579 C2578 1.385 . S
C2580 C2578 1.478 . S
C2580 C2582 1.381 . S
C2580 C2586 1.383 . S
C2581 C2577 1.495 . S
C2581 H2587 0.959 . S
C2581 H2588 0.961 . S
C2581 H2589 0.960 . S
C2582 C2580 1.381 . S
C2582 C2583 1.394 . S
C2582 H2590 0.930 . S
C2583 C2582 1.394 . S
C2583 C2584 1.383 . S
C2583 H2591 0.929 . S
C2584 C2583 1.383 . S
C2584 C2585 1.377 . S
C2585 H2569 0.930 . S
C2585 C2584 1.377 . S
C2585 C2586 1.379 . S
C2586 H2570 0.931 . S
C2586 C2580 1.383 . S
C2586 C2585 1.379 . S
H2587 C2581 0.959 . S
H2588 C2581 0.961 . S
H2589 C2581 0.960 . S
H2590 C2582 0.930 . S
H2591 C2583 0.929 . S
H2592 C2600 0.929 . S
H2593 C2602 0.930 . S
H2594 C2604 0.930 . S
H2595 C2607 0.929 . S
H2596 C2610 0.930 . S
H2597 C2612 0.960 . S
H2598 C2612 0.960 . S
H2599 C2612 0.960 . S
C2600 H2592 0.929 . S
C2600 C2601 1.377 . S
C2600 C2602 1.384 . S
C2601 C2600 1.377 . S
C2601 C2607 1.390 . S
C2602 H2593 0.930 . S
C2602 C2600 1.384 . S
C2602 C2603 1.372 . S
C2603 C2602 1.372 . S
C2603 C2604 1.400 . S
C2603 C2608 1.490 . S
C2604 H2594 0.930 . S
C2604 C2603 1.400 . S
C2604 C2607 1.386 . S
H2605 C2621 0.930 . S
H2606 C2622 0.931 . S
C2607 H2595 0.929 . S
C2607 C2601 1.390 . S
C2607 C2604 1.386 . S
C2608 C2603 1.490 . S
C2608 C2610 1.395 . S
C2608 C2611 1.403 . S
H2609 C2615 0.930 . S
C2610 H2596 0.930 . S
C2610 C2608 1.395 . S
C2610 C2613 1.403 1_554 S
C2611 C2608 1.403 . S
C2611 C2612 1.524 . S
C2611 C2615 1.400 1_554 S
C2612 H2597 0.960 . S
C2612 H2598 0.960 . S
C2612 H2599 0.960 . S
C2612 C2611 1.524 . S
C2613 C2610 1.403 1_556 S
C2613 C2614 1.392 . S
C2613 C2617 1.495 . S
C2614 C2613 1.392 . S
C2614 C2615 1.385 . S
C2614 C2616 1.478 . S
C2615 H2609 0.930 . S
C2615 C2611 1.400 1_556 S
C2615 C2614 1.385 . S
C2616 C2614 1.478 . S
C2616 C2618 1.381 . S
C2616 C2622 1.383 . S
C2617 C2613 1.495 . S
C2617 H2623 0.959 . S
C2617 H2624 0.961 . S
C2617 H2625 0.960 . S
C2618 C2616 1.381 . S
C2618 C2619 1.394 . S
C2618 H2626 0.930 . S
C2619 C2618 1.394 . S
C2619 C2620 1.383 . S
C2619 H2627 0.929 . S
C2620 C2619 1.383 . S
C2620 C2621 1.377 . S
C2621 H2605 0.930 . S
C2621 C2620 1.377 . S
C2621 C2622 1.379 . S
C2622 H2606 0.931 . S
C2622 C2616 1.383 . S
C2622 C2621 1.379 . S
H2623 C2617 0.959 . S
H2624 C2617 0.961 . S
H2625 C2617 0.960 . S
H2626 C2618 0.930 . S
H2627 C2619 0.929 . S
H2628 C2636 0.929 . S
H2629 C2638 0.930 . S
H2630 C2640 0.930 . S
H2631 C2643 0.929 . S
H2632 C2646 0.930 . S
H2633 C2648 0.960 . S
H2634 C2648 0.960 . S
H2635 C2648 0.960 . S
C2636 H2628 0.929 . S
C2636 C2637 1.377 . S
C2636 C2638 1.384 . S
C2637 C2636 1.377 . S
C2637 C2643 1.390 . S
C2638 H2629 0.930 . S
C2638 C2636 1.384 . S
C2638 C2639 1.372 . S
C2639 C2638 1.372 . S
C2639 C2640 1.400 . S
C2639 C2644 1.490 . S
C2640 H2630 0.930 . S
C2640 C2639 1.400 . S
C2640 C2643 1.386 . S
H2641 C2657 0.930 . S
H2642 C2658 0.931 . S
C2643 H2631 0.929 . S
C2643 C2637 1.390 . S
C2643 C2640 1.386 . S
C2644 C2639 1.490 . S
C2644 C2646 1.395 . S
C2644 C2647 1.403 . S
H2645 C2651 0.930 . S
C2646 H2632 0.930 . S
C2646 C2644 1.395 . S
C2646 C2649 1.403 1_554 S
C2647 C2644 1.403 . S
C2647 C2648 1.524 . S
C2647 C2651 1.400 1_554 S
C2648 H2633 0.960 . S
C2648 H2634 0.960 . S
C2648 H2635 0.960 . S
C2648 C2647 1.524 . S
C2649 C2646 1.403 1_556 S
C2649 C2650 1.392 . S
C2649 C2653 1.495 . S
C2650 C2649 1.392 . S
C2650 C2651 1.385 . S
C2650 C2652 1.478 . S
C2651 H2645 0.930 . S
C2651 C2647 1.400 1_556 S
C2651 C2650 1.385 . S
C2652 C2650 1.478 . S
C2652 C2654 1.381 . S
C2652 C2658 1.383 . S
C2653 C2649 1.495 . S
C2653 H2659 0.959 . S
C2653 H2660 0.961 . S
C2653 H2661 0.960 . S
C2654 C2652 1.381 . S
C2654 C2655 1.394 . S
C2654 H2662 0.930 . S
C2655 C2654 1.394 . S
C2655 C2656 1.383 . S
C2655 H2663 0.929 . S
C2656 C2655 1.383 . S
C2656 C2657 1.377 . S
C2657 H2641 0.930 . S
C2657 C2656 1.377 . S
C2657 C2658 1.379 . S
C2658 H2642 0.931 . S
C2658 C2652 1.383 . S
C2658 C2657 1.379 . S
H2659 C2653 0.959 . S
H2660 C2653 0.961 . S
H2661 C2653 0.960 . S
H2662 C2654 0.930 . S
H2663 C2655 0.929 . S
H2664 C2672 0.929 . S
H2665 C2674 0.930 . S
H2666 C2676 0.930 . S
H2667 C2679 0.929 . S
H2668 C2682 0.930 . S
H2669 C2684 0.960 . S
H2670 C2684 0.960 . S
H2671 C2684 0.960 . S
C2672 H2664 0.929 . S
C2672 C2673 1.377 . S
C2672 C2674 1.384 . S
C2673 C2672 1.377 . S
C2673 C2679 1.390 . S
C2674 H2665 0.930 . S
C2674 C2672 1.384 . S
C2674 C2675 1.372 . S
C2675 C2674 1.372 . S
C2675 C2676 1.400 . S
C2675 C2680 1.490 . S
C2676 H2666 0.930 . S
C2676 C2675 1.400 . S
C2676 C2679 1.386 . S
H2677 C2693 0.930 . S
H2678 C2694 0.931 . S
C2679 H2667 0.929 . S
C2679 C2673 1.390 . S
C2679 C2676 1.386 . S
C2680 C2675 1.490 . S
C2680 C2682 1.395 . S
C2680 C2683 1.403 . S
H2681 C2687 0.930 . S
C2682 H2668 0.930 . S
C2682 C2680 1.395 . S
C2682 C2685 1.403 1_554 S
C2683 C2680 1.403 . S
C2683 C2684 1.524 . S
C2683 C2687 1.400 1_554 S
C2684 H2669 0.960 . S
C2684 H2670 0.960 . S
C2684 H2671 0.960 . S
C2684 C2683 1.524 . S
C2685 C2682 1.403 1_556 S
C2685 C2686 1.392 . S
C2685 C2689 1.495 . S
C2686 C2685 1.392 . S
C2686 C2687 1.385 . S
C2686 C2688 1.478 . S
C2687 H2681 0.930 . S
C2687 C2683 1.400 1_556 S
C2687 C2686 1.385 . S
C2688 C2686 1.478 . S
C2688 C2690 1.381 . S
C2688 C2694 1.383 . S
C2689 C2685 1.495 . S
C2689 H2695 0.959 . S
C2689 H2696 0.961 . S
C2689 H2697 0.960 . S
C2690 C2688 1.381 . S
C2690 C2691 1.394 . S
C2690 H2698 0.930 . S
C2691 C2690 1.394 . S
C2691 C2692 1.383 . S
C2691 H2699 0.929 . S
C2692 C2691 1.383 . S
C2692 C2693 1.377 . S
C2693 H2677 0.930 . S
C2693 C2692 1.377 . S
C2693 C2694 1.379 . S
C2694 H2678 0.931 . S
C2694 C2688 1.383 . S
C2694 C2693 1.379 . S
H2695 C2689 0.959 . S
H2696 C2689 0.961 . S
H2697 C2689 0.960 . S
H2698 C2690 0.930 . S
H2699 C2691 0.929 . S
H2700 C2708 0.929 . S
H2701 C2710 0.930 . S
H2702 C2712 0.930 . S
H2703 C2715 0.929 . S
H2704 C2718 0.930 . S
H2705 C2720 0.960 . S
H2706 C2720 0.960 . S
H2707 C2720 0.960 . S
C2708 H2700 0.929 . S
C2708 C2709 1.377 . S
C2708 C2710 1.384 . S
C2709 C2708 1.377 . S
C2709 C2715 1.390 . S
C2710 H2701 0.930 . S
C2710 C2708 1.384 . S
C2710 C2711 1.372 . S
C2711 C2710 1.372 . S
C2711 C2712 1.400 . S
C2711 C2716 1.490 . S
C2712 H2702 0.930 . S
C2712 C2711 1.400 . S
C2712 C2715 1.386 . S
H2713 C2729 0.930 . S
H2714 C2730 0.931 . S
C2715 H2703 0.929 . S
C2715 C2709 1.390 . S
C2715 C2712 1.386 . S
C2716 C2711 1.490 . S
C2716 C2718 1.395 . S
C2716 C2719 1.403 . S
H2717 C2723 0.930 . S
C2718 H2704 0.930 . S
C2718 C2716 1.395 . S
C2718 C2721 1.403 1_556 S
C2719 C2716 1.403 . S
C2719 C2720 1.524 . S
C2719 C2723 1.400 1_556 S
C2720 H2705 0.960 . S
C2720 H2706 0.960 . S
C2720 H2707 0.960 . S
C2720 C2719 1.524 . S
C2721 C2718 1.403 1_554 S
C2721 C2722 1.392 . S
C2721 C2725 1.495 . S
C2722 C2721 1.392 . S
C2722 C2723 1.385 . S
C2722 C2724 1.478 . S
C2723 H2717 0.930 . S
C2723 C2719 1.400 1_554 S
C2723 C2722 1.385 . S
C2724 C2722 1.478 . S
C2724 C2726 1.381 . S
C2724 C2730 1.383 . S
C2725 C2721 1.495 . S
C2725 H2731 0.959 . S
C2725 H2732 0.961 . S
C2725 H2733 0.960 . S
C2726 C2724 1.381 . S
C2726 C2727 1.394 . S
C2726 H2734 0.930 . S
C2727 C2726 1.394 . S
C2727 C2728 1.383 . S
C2727 H2735 0.929 . S
C2728 C2727 1.383 . S
C2728 C2729 1.377 . S
C2729 H2713 0.930 . S
C2729 C2728 1.377 . S
C2729 C2730 1.379 . S
C2730 H2714 0.931 . S
C2730 C2724 1.383 . S
C2730 C2729 1.379 . S
H2731 C2725 0.959 . S
H2732 C2725 0.961 . S
H2733 C2725 0.960 . S
H2734 C2726 0.930 . S
H2735 C2727 0.929 . S
H2736 C2744 0.929 . S
H2737 C2746 0.930 . S
H2738 C2748 0.930 . S
H2739 C2751 0.929 . S
H2740 C2754 0.930 . S
H2741 C2756 0.960 . S
H2742 C2756 0.960 . S
H2743 C2756 0.960 . S
C2744 H2736 0.929 . S
C2744 C2745 1.377 . S
C2744 C2746 1.384 . S
C2745 C2744 1.377 . S
C2745 C2751 1.390 . S
C2746 H2737 0.930 . S
C2746 C2744 1.384 . S
C2746 C2747 1.372 . S
C2747 C2746 1.372 . S
C2747 C2748 1.400 . S
C2747 C2752 1.490 . S
C2748 H2738 0.930 . S
C2748 C2747 1.400 . S
C2748 C2751 1.386 . S
H2749 C2765 0.930 . S
H2750 C2766 0.931 . S
C2751 H2739 0.929 . S
C2751 C2745 1.390 . S
C2751 C2748 1.386 . S
C2752 C2747 1.490 . S
C2752 C2754 1.395 . S
C2752 C2755 1.403 . S
H2753 C2759 0.930 . S
C2754 H2740 0.930 . S
C2754 C2752 1.395 . S
C2754 C2757 1.403 . S
C2755 C2752 1.403 . S
C2755 C2756 1.524 . S
C2755 C2759 1.400 . S
C2756 H2741 0.960 . S
C2756 H2742 0.960 . S
C2756 H2743 0.960 . S
C2756 C2755 1.524 . S
C2757 C2754 1.403 . S
C2757 C2758 1.392 . S
C2757 C2761 1.495 . S
C2758 C2757 1.392 . S
C2758 C2759 1.385 . S
C2758 C2760 1.478 . S
C2759 H2753 0.930 . S
C2759 C2755 1.400 . S
C2759 C2758 1.385 . S
C2760 C2758 1.478 . S
C2760 C2762 1.381 . S
C2760 C2766 1.383 . S
C2761 C2757 1.495 . S
C2761 H2767 0.959 . S
C2761 H2768 0.961 . S
C2761 H2769 0.960 . S
C2762 C2760 1.381 . S
C2762 C2763 1.394 . S
C2762 H2770 0.930 . S
C2763 C2762 1.394 . S
C2763 C2764 1.383 . S
C2763 H2771 0.929 . S
C2764 C2763 1.383 . S
C2764 C2765 1.377 . S
C2765 H2749 0.930 . S
C2765 C2764 1.377 . S
C2765 C2766 1.379 . S
C2766 H2750 0.931 . S
C2766 C2760 1.383 . S
C2766 C2765 1.379 . S
H2767 C2761 0.959 . S
H2768 C2761 0.961 . S
H2769 C2761 0.960 . S
H2770 C2762 0.930 . S
H2771 C2763 0.929 . S
H2772 C2780 0.929 . S
H2773 C2782 0.930 . S
H2774 C2784 0.930 . S
H2775 C2787 0.929 . S
H2776 C2790 0.930 . S
H2777 C2792 0.960 . S
H2778 C2792 0.960 . S
H2779 C2792 0.960 . S
C2780 H2772 0.929 . S
C2780 C2781 1.377 . S
C2780 C2782 1.384 . S
C2781 C2780 1.377 . S
C2781 C2787 1.390 . S
C2782 H2773 0.930 . S
C2782 C2780 1.384 . S
C2782 C2783 1.372 . S
C2783 C2782 1.372 . S
C2783 C2784 1.400 . S
C2783 C2788 1.490 . S
C2784 H2774 0.930 . S
C2784 C2783 1.400 . S
C2784 C2787 1.386 . S
H2785 C2801 0.930 . S
H2786 C2802 0.931 . S
C2787 H2775 0.929 . S
C2787 C2781 1.390 . S
C2787 C2784 1.386 . S
C2788 C2783 1.490 . S
C2788 C2790 1.395 . S
C2788 C2791 1.403 . S
H2789 C2795 0.930 . S
C2790 H2776 0.930 . S
C2790 C2788 1.395 . S
C2790 C2793 1.403 . S
C2791 C2788 1.403 . S
C2791 C2792 1.524 . S
C2791 C2795 1.400 . S
C2792 H2777 0.960 . S
C2792 H2778 0.960 . S
C2792 H2779 0.960 . S
C2792 C2791 1.524 . S
C2793 C2790 1.403 . S
C2793 C2794 1.392 . S
C2793 C2797 1.495 . S
C2794 C2793 1.392 . S
C2794 C2795 1.385 . S
C2794 C2796 1.478 . S
C2795 H2789 0.930 . S
C2795 C2791 1.400 . S
C2795 C2794 1.385 . S
C2796 C2794 1.478 . S
C2796 C2798 1.381 . S
C2796 C2802 1.383 . S
C2797 C2793 1.495 . S
C2797 H2803 0.959 . S
C2797 H2804 0.961 . S
C2797 H2805 0.960 . S
C2798 C2796 1.381 . S
C2798 C2799 1.394 . S
C2798 H2806 0.930 . S
C2799 C2798 1.394 . S
C2799 C2800 1.383 . S
C2799 H2807 0.929 . S
C2800 C2799 1.383 . S
C2800 C2801 1.377 . S
C2801 H2785 0.930 . S
C2801 C2800 1.377 . S
C2801 C2802 1.379 . S
C2802 H2786 0.931 . S
C2802 C2796 1.383 . S
C2802 C2801 1.379 . S
H2803 C2797 0.959 . S
H2804 C2797 0.961 . S
H2805 C2797 0.960 . S
H2806 C2798 0.930 . S
H2807 C2799 0.929 . S
H2808 C2816 0.929 . S
H2809 C2818 0.930 . S
H2810 C2820 0.930 . S
H2811 C2823 0.929 . S
H2812 C2826 0.930 . S
H2813 C2828 0.960 . S
H2814 C2828 0.960 . S
H2815 C2828 0.960 . S
C2816 H2808 0.929 . S
C2816 C2817 1.377 . S
C2816 C2818 1.384 . S
C2817 C2816 1.377 . S
C2817 C2823 1.390 . S
C2818 H2809 0.930 . S
C2818 C2816 1.384 . S
C2818 C2819 1.372 . S
C2819 C2818 1.372 . S
C2819 C2820 1.400 . S
C2819 C2824 1.490 . S
C2820 H2810 0.930 . S
C2820 C2819 1.400 . S
C2820 C2823 1.386 . S
H2821 C2837 0.930 . S
H2822 C2838 0.931 . S
C2823 H2811 0.929 . S
C2823 C2817 1.390 . S
C2823 C2820 1.386 . S
C2824 C2819 1.490 . S
C2824 C2826 1.395 . S
C2824 C2827 1.403 . S
H2825 C2831 0.930 . S
C2826 H2812 0.930 . S
C2826 C2824 1.395 . S
C2826 C2829 1.403 . S
C2827 C2824 1.403 . S
C2827 C2828 1.524 . S
C2827 C2831 1.400 . S
C2828 H2813 0.960 . S
C2828 H2814 0.960 . S
C2828 H2815 0.960 . S
C2828 C2827 1.524 . S
C2829 C2826 1.403 . S
C2829 C2830 1.392 . S
C2829 C2833 1.495 . S
C2830 C2829 1.392 . S
C2830 C2831 1.385 . S
C2830 C2832 1.478 . S
C2831 H2825 0.930 . S
C2831 C2827 1.400 . S
C2831 C2830 1.385 . S
C2832 C2830 1.478 . S
C2832 C2834 1.381 . S
C2832 C2838 1.383 . S
C2833 C2829 1.495 . S
C2833 H2839 0.959 . S
C2833 H2840 0.961 . S
C2833 H2841 0.960 . S
C2834 C2832 1.381 . S
C2834 C2835 1.394 . S
C2834 H2842 0.930 . S
C2835 C2834 1.394 . S
C2835 C2836 1.383 . S
C2835 H2843 0.929 . S
C2836 C2835 1.383 . S
C2836 C2837 1.377 . S
C2837 H2821 0.930 . S
C2837 C2836 1.377 . S
C2837 C2838 1.379 . S
C2838 H2822 0.931 . S
C2838 C2832 1.383 . S
C2838 C2837 1.379 . S
H2839 C2833 0.959 . S
H2840 C2833 0.961 . S
H2841 C2833 0.960 . S
H2842 C2834 0.930 . S
H2843 C2835 0.929 . S
H2844 C2852 0.929 . S
H2845 C2854 0.930 . S
H2846 C2856 0.930 . S
H2847 C2859 0.929 . S
H2848 C2862 0.930 . S
H2849 C2864 0.960 . S
H2850 C2864 0.960 . S
H2851 C2864 0.960 . S
C2852 H2844 0.929 . S
C2852 C2853 1.377 . S
C2852 C2854 1.384 . S
C2853 C2852 1.377 . S
C2853 C2859 1.390 . S
C2854 H2845 0.930 . S
C2854 C2852 1.384 . S
C2854 C2855 1.372 . S
C2855 C2854 1.372 . S
C2855 C2856 1.400 . S
C2855 C2860 1.490 . S
C2856 H2846 0.930 . S
C2856 C2855 1.400 . S
C2856 C2859 1.386 . S
H2857 C2873 0.930 . S
H2858 C2874 0.931 . S
C2859 H2847 0.929 . S
C2859 C2853 1.390 . S
C2859 C2856 1.386 . S
C2860 C2855 1.490 . S
C2860 C2862 1.395 . S
C2860 C2863 1.403 . S
H2861 C2867 0.930 . S
C2862 H2848 0.930 . S
C2862 C2860 1.395 . S
C2862 C2865 1.403 . S
C2863 C2860 1.403 . S
C2863 C2864 1.524 . S
C2863 C2867 1.400 . S
C2864 H2849 0.960 . S
C2864 H2850 0.960 . S
C2864 H2851 0.960 . S
C2864 C2863 1.524 . S
C2865 C2862 1.403 . S
C2865 C2866 1.392 . S
C2865 C2869 1.495 . S
C2866 C2865 1.392 . S
C2866 C2867 1.385 . S
C2866 C2868 1.478 . S
C2867 H2861 0.930 . S
C2867 C2863 1.400 . S
C2867 C2866 1.385 . S
C2868 C2866 1.478 . S
C2868 C2870 1.381 . S
C2868 C2874 1.383 . S
C2869 C2865 1.495 . S
C2869 H2875 0.959 . S
C2869 H2876 0.961 . S
C2869 H2877 0.960 . S
C2870 C2868 1.381 . S
C2870 C2871 1.394 . S
C2870 H2878 0.930 . S
C2871 C2870 1.394 . S
C2871 C2872 1.383 . S
C2871 H2879 0.929 . S
C2872 C2871 1.383 . S
C2872 C2873 1.377 . S
C2873 H2857 0.930 . S
C2873 C2872 1.377 . S
C2873 C2874 1.379 . S
C2874 H2858 0.931 . S
C2874 C2868 1.383 . S
C2874 C2873 1.379 . S
H2875 C2869 0.959 . S
H2876 C2869 0.961 . S
H2877 C2869 0.960 . S
H2878 C2870 0.930 . S
H2879 C2871 0.929 . S
H2880 C2888 0.929 . S
H2881 C2890 0.930 . S
H2882 C2892 0.930 . S
H2883 C2895 0.929 . S
H2884 C2898 0.930 . S
H2885 C2900 0.960 . S
H2886 C2900 0.960 . S
H2887 C2900 0.960 . S
C2888 H2880 0.929 . S
C2888 C2889 1.377 . S
C2888 C2890 1.384 . S
C2889 C2888 1.377 . S
C2889 C2895 1.390 . S
C2890 H2881 0.930 . S
C2890 C2888 1.384 . S
C2890 C2891 1.372 . S
C2891 C2890 1.372 . S
C2891 C2892 1.400 . S
C2891 C2896 1.490 . S
C2892 H2882 0.930 . S
C2892 C2891 1.400 . S
C2892 C2895 1.386 . S
H2893 C2909 0.930 . S
H2894 C2910 0.931 . S
C2895 H2883 0.929 . S
C2895 C2889 1.390 . S
C2895 C2892 1.386 . S
C2896 C2891 1.490 . S
C2896 C2898 1.395 . S
C2896 C2899 1.403 . S
H2897 C2903 0.930 . S
C2898 H2884 0.930 . S
C2898 C2896 1.395 . S
C2898 C2901 1.403 . S
C2899 C2896 1.403 . S
C2899 C2900 1.524 . S
C2899 C2903 1.400 . S
C2900 H2885 0.960 . S
C2900 H2886 0.960 . S
C2900 H2887 0.960 . S
C2900 C2899 1.524 . S
C2901 C2898 1.403 . S
C2901 C2902 1.392 . S
C2901 C2905 1.495 . S
C2902 C2901 1.392 . S
C2902 C2903 1.385 . S
C2902 C2904 1.478 . S
C2903 H2897 0.930 . S
C2903 C2899 1.400 . S
C2903 C2902 1.385 . S
C2904 C2902 1.478 . S
C2904 C2906 1.381 . S
C2904 C2910 1.383 . S
C2905 C2901 1.495 . S
C2905 H2911 0.959 . S
C2905 H2912 0.961 . S
C2905 H2913 0.960 . S
C2906 C2904 1.381 . S
C2906 C2907 1.394 . S
C2906 H2914 0.930 . S
C2907 C2906 1.394 . S
C2907 C2908 1.383 . S
C2907 H2915 0.929 . S
C2908 C2907 1.383 . S
C2908 C2909 1.377 . S
C2909 H2893 0.930 . S
C2909 C2908 1.377 . S
C2909 C2910 1.379 . S
C2910 H2894 0.931 . S
C2910 C2904 1.383 . S
C2910 C2909 1.379 . S
H2911 C2905 0.959 . S
H2912 C2905 0.961 . S
H2913 C2905 0.960 . S
H2914 C2906 0.930 . S
H2915 C2907 0.929 . S
H2916 C2924 0.929 . S
H2917 C2926 0.930 . S
H2918 C2928 0.930 . S
H2919 C2931 0.929 . S
H2920 C2934 0.930 . S
H2921 C2936 0.960 . S
H2922 C2936 0.960 . S
H2923 C2936 0.960 . S
C2924 H2916 0.929 . S
C2924 C2925 1.377 . S
C2924 C2926 1.384 . S
C2925 C2924 1.377 . S
C2925 C2931 1.390 . S
C2926 H2917 0.930 . S
C2926 C2924 1.384 . S
C2926 C2927 1.372 . S
C2927 C2926 1.372 . S
C2927 C2928 1.400 . S
C2927 C2932 1.490 . S
C2928 H2918 0.930 . S
C2928 C2927 1.400 . S
C2928 C2931 1.386 . S
H2929 C2945 0.930 . S
H2930 C2946 0.931 . S
C2931 H2919 0.929 . S
C2931 C2925 1.390 . S
C2931 C2928 1.386 . S
C2932 C2927 1.490 . S
C2932 C2934 1.395 . S
C2932 C2935 1.403 . S
H2933 C2939 0.930 . S
C2934 H2920 0.930 . S
C2934 C2932 1.395 . S
C2934 C2937 1.403 . S
C2935 C2932 1.403 . S
C2935 C2936 1.524 . S
C2935 C2939 1.400 . S
C2936 H2921 0.960 . S
C2936 H2922 0.960 . S
C2936 H2923 0.960 . S
C2936 C2935 1.524 . S
C2937 C2934 1.403 . S
C2937 C2938 1.392 . S
C2937 C2941 1.495 . S
C2938 C2937 1.392 . S
C2938 C2939 1.385 . S
C2938 C2940 1.478 . S
C2939 H2933 0.930 . S
C2939 C2935 1.400 . S
C2939 C2938 1.385 . S
C2940 C2938 1.478 . S
C2940 C2942 1.381 . S
C2940 C2946 1.383 . S
C2941 C2937 1.495 . S
C2941 H2947 0.959 . S
C2941 H2948 0.961 . S
C2941 H2949 0.960 . S
C2942 C2940 1.381 . S
C2942 C2943 1.394 . S
C2942 H2950 0.930 . S
C2943 C2942 1.394 . S
C2943 C2944 1.383 . S
C2943 H2951 0.929 . S
C2944 C2943 1.383 . S
C2944 C2945 1.377 . S
C2945 H2929 0.930 . S
C2945 C2944 1.377 . S
C2945 C2946 1.379 . S
C2946 H2930 0.931 . S
C2946 C2940 1.383 . S
C2946 C2945 1.379 . S
H2947 C2941 0.959 . S
H2948 C2941 0.961 . S
H2949 C2941 0.960 . S
H2950 C2942 0.930 . S
H2951 C2943 0.929 . S
C801 N14 0.575 . S
C820 N113 0.626 . S
C837 N146 0.570 . S
C856 N47 0.529 . S
C873 N179 0.558 . S
C892 N80 0.506 . S
C909 N311 0.569 . S
C928 N212 0.623 . S
C945 N245 0.575 . S
C964 N344 0.627 . S
C981 N278 0.554 . S
C1000 N377 0.535 . S
C1017 N509 0.576 . S
C1036 N410 0.622 . S
C1053 N542 0.557 . S
C1072 N443 0.592 . S
C1089 N575 0.578 . S
C1108 N476 0.567 . S
C1125 N707 0.554 . S
C1144 N608 0.561 . S
C1161 N641 0.579 . S
C1180 N740 0.596 . S
C1197 N773 0.554 . S
C1216 N674 0.537 . S
C1233 N269 1.384 . S
C1252 N5 1.376 . S
C1269 N38 1.389 . S
C1288 N302 1.403 . S
C1305 N71 1.386 . S
C1324 N335 1.369 . S
C1341 N104 1.392 . S
C1360 N368 1.380 . S
C1377 N137 1.391 . S
C1396 N203 1.392 . S
C1413 N236 1.389 . S
C1432 N170 1.402 . S
C1449 N401 1.383 . S
C1468 N665 1.365 . S
C1485 N698 1.382 . S
C1504 N434 1.358 . S
C1521 N731 1.388 . S
C1540 N467 1.388 . S
C1557 N500 1.382 . S
C1576 N764 1.358 . S
C1593 N599 1.382 . S
C1612 N533 1.358 . S
C1629 N632 1.393 . S
C1648 N566 1.411 . S
C1665 C8 1.269 . S
C1684 C239 1.288 . S
C1701 C41 1.270 . S
C1720 C272 1.237 . S
C1737 C305 1.274 . S
C1756 C74 1.261 . S
C1773 C107 1.265 . S
C1792 C338 1.294 . S
C1809 C371 1.266 . S
C1828 C140 1.294 . S
C1845 C206 1.274 . S
C1864 C173 1.264 . S
C1881 C404 1.264 . S
C1900 C635 1.261 . S
C1917 C437 1.274 . S
C1936 C668 1.254 . S
C1953 C470 1.273 . S
C1972 C701 1.238 . S
C1989 C503 1.268 . S
C2008 C734 1.291 . S
C2025 C536 1.264 . S
C2044 C767 1.294 . S
C2061 C602 1.264 . S
C2080 C569 1.259 . S
C2097 C28 0.472 . S
C2116 C358 0.418 . S
C2133 C391 0.431 . S
C2152 C61 0.517 . S
C2169 C226 0.452 . S
C2188 C94 0.363 . S
C2205 C259 0.471 . S
C2224 C127 0.455 . S
C2241 C160 0.431 . S
C2260 C292 0.503 . S
C2277 C193 0.472 . S
C2296 C325 0.404 . S
C2313 C424 0.433 . S
C2332 C754 0.470 . S
C2349 C787 0.472 . S
C2368 C457 0.423 . S
C2385 C622 0.431 . S
C2404 C490 0.528 . S
C2421 C523 0.472 . S
C2440 C655 0.405 . S
C2457 C556 0.471 . S
C2476 C688 0.377 . S
C2493 C721 0.472 . S
C2512 C589 0.411 . S
C2529 C17 1.356 . S
C2548 C512 1.362 . S
C2565 C50 1.360 . S
C2584 C545 1.348 . S
C2601 C83 1.359 . S
C2620 C578 1.345 . S
C2637 C116 1.358 . S
C2656 C413 1.365 . S
C2673 C149 1.358 . S
C2692 C446 1.349 . S
C2709 C479 1.360 . S
C2728 C182 1.355 . S
C2745 C215 1.357 . S
C2764 C710 1.348 . S
C2781 C248 1.357 . S
C2800 C743 1.365 . S
C2817 C281 1.360 . S
C2836 C776 1.346 . S
C2853 C314 1.357 . S
C2872 C611 1.365 . S
C2889 C347 1.360 . S
C2908 C644 1.360 . S
C2925 C677 1.360 . S
C2944 C380 1.358 . S
