# Generated by pormake.
# Topology yfx, (5)-cn, num edge types: 1
# Building blocks:
#     Node 0, Type 0, BuildingBlock: XOMCOT_clean_sbu_1, # of connection points: 5
#     Node 1, Type 0, BuildingBlock: XOMCOT_clean_sbu_1, # of connection points: 5
#     Node 2, Type 0, BuildingBlock: XOMCOT_clean_sbu_1, # of connection points: 5
#     Node 3, Type 0, BuildingBlock: XOMCOT_clean_sbu_1, # of connection points: 5
#     Node 4, Type 0, BuildingBlock: XOMCOT_clean_sbu_1, # of connection points: 5
#     Node 5, Type 0, BuildingBlock: XOMCOT_clean_sbu_1, # of connection points: 5
#     Node 6, Type 0, BuildingBlock: XOMCOT_clean_sbu_1, # of connection points: 5
#     Node 7, Type 0, BuildingBlock: XOMCOT_clean_sbu_1, # of connection points: 5
#     Edge 8, Type (0, 0), BuildingBlock: KIFKEQ_clean_linker_1, # of connection points: 2
#     Edge 9, Type (0, 0), BuildingBlock: KIFKEQ_clean_linker_1, # of connection points: 2
#     Edge 10, Type (0, 0), BuildingBlock: KIFKEQ_clean_linker_1, # of connection points: 2
#     Edge 11, Type (0, 0), BuildingBlock: KIFKEQ_clean_linker_1, # of connection points: 2
#     Edge 12, Type (0, 0), BuildingBlock: KIFKEQ_clean_linker_1, # of connection points: 2
#     Edge 13, Type (0, 0), BuildingBlock: KIFKEQ_clean_linker_1, # of connection points: 2
#     Edge 14, Type (0, 0), BuildingBlock: KIFKEQ_clean_linker_1, # of connection points: 2
#     Edge 15, Type (0, 0), BuildingBlock: KIFKEQ_clean_linker_1, # of connection points: 2
#     Edge 16, Type (0, 0), BuildingBlock: KIFKEQ_clean_linker_1, # of connection points: 2
#     Edge 17, Type (0, 0), BuildingBlock: KIFKEQ_clean_linker_1, # of connection points: 2
#     Edge 18, Type (0, 0), BuildingBlock: KIFKEQ_clean_linker_1, # of connection points: 2
#     Edge 19, Type (0, 0), BuildingBlock: KIFKEQ_clean_linker_1, # of connection points: 2
#     Edge 20, Type (0, 0), BuildingBlock: KIFKEQ_clean_linker_1, # of connection points: 2
#     Edge 21, Type (0, 0), BuildingBlock: KIFKEQ_clean_linker_1, # of connection points: 2
#     Edge 22, Type (0, 0), BuildingBlock: KIFKEQ_clean_linker_1, # of connection points: 2
#     Edge 23, Type (0, 0), BuildingBlock: KIFKEQ_clean_linker_1, # of connection points: 2
#     Edge 24, Type (0, 0), BuildingBlock: KIFKEQ_clean_linker_1, # of connection points: 2
#     Edge 25, Type (0, 0), BuildingBlock: KIFKEQ_clean_linker_1, # of connection points: 2
#     Edge 26, Type (0, 0), BuildingBlock: KIFKEQ_clean_linker_1, # of connection points: 2
#     Edge 27, Type (0, 0), BuildingBlock: KIFKEQ_clean_linker_1, # of connection points: 2
# Relax obj value: 0.117
# Max RMSD: 0.118
# Mean RMSD: 0.118
data_MOF--net-yfx--node1-XOMCOT_clean_sbu_1--edge1-KIFKEQ_clean_linker_1
_symmetry_space_group_name_H-M    P1
_symmetry_Int_Tables_number       1
_symmetry_cell_setting            triclinic
loop_
_symmetry_equiv_pos_as_xyz
'x, y, z'
_cell_length_a     36.440501
_cell_length_b     36.456285
_cell_length_c     28.19281
_cell_angle_alpha  89.919843
_cell_angle_beta   89.907197
_cell_angle_gamma 90.045781
loop_
_atom_site_label
_atom_site_type_symbol
_atom_site_fract_x
_atom_site_fract_y
_atom_site_fract_z
_atom_type_partial_charge
C0 C 0.29111 0.40584 0.98537 0.0
C1 C 0.32726 0.39529 0.98925 0.0
N2 N 0.32916 0.36747 1.02064 0.0
N3 N 0.27041 0.38493 1.01442 0.0
C4 C 0.2944 0.36183 0.03543 0.0
H5 H 0.2805 0.42697 0.96223 0.0
Co6 Co 0.21976 0.38803 1.02092 0.0
C7 C 0.20303 0.33825 0.10309 0.0
O8 O 0.17261 0.32616 0.08374 0.0
N9 N 0.16738 0.39203 0.02701 0.0
C10 C 0.10705 0.38478 1.01624 0.0
C11 C 0.14115 0.36968 1.00905 0.0
C12 C 0.14787 0.42026 0.04575 0.0
N13 N 0.11129 0.41691 0.03893 0.0
O14 O 0.22682 0.43291 0.05423 0.0
H15 H 0.14602 0.34411 0.99084 0.0
H16 H 0.16005 0.44342 0.06354 0.0
O17 O 0.22289 0.36152 0.08097 0.0
C18 C 0.22442 0.46096 0.02743 0.0
O19 O 0.21225 0.45665 0.98393 0.0
N20 N 0.21559 0.34583 0.98345 0.0
C21 C 0.22555 0.29573 0.90966 0.0
C22 C 0.23327 0.28579 0.95682 0.0
C23 C 0.22802 0.31132 0.99344 0.0
C24 C 0.20719 0.3555 0.93806 0.0
C25 C 0.21133 0.33076 0.90083 0.0
H26 H 0.23645 0.30407 0.02889 0.0
H27 H 0.19897 0.38341 0.93047 0.0
H28 H 0.28663 0.34096 0.06082 0.0
H29 H 0.35014 0.40632 0.96926 0.0
H30 H 0.08133 0.37371 1.00351 0.0
H31 H 0.24463 0.25909 0.96503 0.0
H32 H 0.20579 0.33992 0.86498 0.0
C33 C 0.61775 0.29043 0.98319 0.0
C34 C 0.62837 0.32656 0.98727 0.0
N35 N 0.65432 0.3287 1.02113 0.0
N36 N 0.63673 0.26999 1.01456 0.0
C37 C 0.65876 0.29413 0.03712 0.0
H38 H 0.59796 0.27965 0.95831 0.0
Co39 Co 0.63311 0.21938 1.02202 0.0
C40 C 0.6814 0.20491 0.10721 0.0
O41 O 0.69559 0.17477 0.08968 0.0
N42 N 0.62871 0.16718 0.02906 0.0
C43 C 0.63847 0.10674 1.02393 0.0
C44 C 0.65349 0.14098 1.01738 0.0
C45 C 0.59877 0.14756 0.04266 0.0
N46 N 0.60387 0.11096 0.03945 0.0
O47 O 0.58745 0.22702 0.05364 0.0
H48 H 0.68085 0.14604 1.00406 0.0
H49 H 0.57327 0.1595 0.05436 0.0
O50 O 0.6581 0.22323 0.08312 0.0
C51 C 0.56018 0.22593 0.02546 0.0
O52 O 0.56553 0.21466 0.98172 0.0
N53 N 0.67617 0.21446 0.98621 0.0
C54 C 0.72725 0.2242 0.91324 0.0
C55 C 0.7361 0.23341 0.9603 0.0
C56 C 0.7101 0.22825 0.99651 0.0
C57 C 0.66774 0.20407 0.94113 0.0
C58 C 0.69297 0.20819 0.90432 0.0
H59 H 0.71637 0.23791 0.03173 0.0
H60 H 0.64027 0.19465 0.93322 0.0
H61 H 0.67814 0.28661 0.0644 0.0
H62 H 0.61875 0.34922 0.9658 0.0
H63 H 0.65148 0.0808 1.01586 0.0
H64 H 0.76223 0.24598 0.96869 0.0
H65 H 0.68457 0.20137 0.86857 0.0
C66 C 0.73065 0.61168 0.98798 0.0
C67 C 0.69435 0.62189 0.99136 0.0
N68 N 0.69181 0.6494 1.02304 0.0
N69 N 0.75081 0.63247 1.01765 0.0
C70 C 0.72632 0.65512 0.03852 0.0
H71 H 0.74174 0.59101 0.96454 0.0
Co72 Co 0.8016 0.63061 0.02463 0.0
C73 C 0.81457 0.6832 0.10596 0.0
O74 O 0.84371 0.69837 0.08684 0.0
N75 N 0.854 0.62812 0.0312 0.0
C76 C 0.91386 0.64004 1.02346 0.0
C77 C 0.87902 0.65369 1.01807 0.0
C78 C 0.87497 0.59916 0.04483 0.0
N79 N 0.91136 0.6055 0.03991 0.0
O80 O 0.79539 0.58616 0.05942 0.0
H81 H 0.87273 0.68064 1.00434 0.0
H82 H 0.86404 0.57315 0.05635 0.0
O83 O 0.79734 0.65799 0.08387 0.0
C84 C 0.79702 0.55817 0.03248 0.0
O85 O 0.8083 0.56258 0.98852 0.0
N86 N 0.80516 0.67205 0.98562 0.0
C87 C 0.79195 0.71748 0.90771 0.0
C88 C 0.78357 0.72934 0.95395 0.0
C89 C 0.79028 0.706 0.99272 0.0
C90 C 0.81564 0.6613 0.94141 0.0
C91 C 0.80984 0.68373 0.90219 0.0
H92 H 0.78071 0.71404 0.02742 0.0
H93 H 0.82633 0.63392 0.9362 0.0
H94 H 0.73358 0.67599 0.06403 0.0
H95 H 0.67186 0.61098 0.97067 0.0
H96 H 0.93905 0.65438 1.015 0.0
H97 H 0.76946 0.75508 0.95978 0.0
H98 H 0.81739 0.67369 0.86737 0.0
C99 C 0.40422 0.72866 0.98039 0.0
C100 C 0.39368 0.69251 0.98456 0.0
N101 N 0.36807 0.6902 1.01894 0.0
N102 N 0.38549 0.74893 1.01219 0.0
C103 C 0.36378 0.72467 0.03522 0.0
H104 H 0.42367 0.73961 0.95507 0.0
Co105 Co 0.38902 0.79954 1.01898 0.0
C106 C 0.33749 0.81467 0.10022 0.0
O107 O 0.32279 0.84313 0.07903 0.0
N108 N 0.39347 0.85182 0.02536 0.0
C109 C 0.38427 0.91229 1.01906 0.0
C110 C 0.36926 0.87812 1.01213 0.0
C111 C 0.42305 0.87133 0.04026 0.0
N112 N 0.41829 0.90795 0.03639 0.0
O113 O 0.43399 0.79197 0.05205 0.0
H114 H 0.34235 0.87321 0.99744 0.0
H115 H 0.44808 0.85929 0.05341 0.0
O116 O 0.36264 0.79637 0.07938 0.0
C117 C 0.46171 0.7928 0.02447 0.0
O118 O 0.45713 0.80401 0.98054 0.0
N119 N 0.34663 0.80424 0.98173 0.0
C120 C 0.29681 0.79396 0.90765 0.0
C121 C 0.28757 0.784 0.95435 0.0
C122 C 0.31292 0.78941 0.99107 0.0
C123 C 0.35547 0.81515 0.93689 0.0
C124 C 0.3308 0.81086 0.89954 0.0
H125 H 0.30639 0.77903 0.02592 0.0
H126 H 0.38284 0.82523 0.92958 0.0
H127 H 0.34463 0.73205 0.06293 0.0
H128 H 0.40301 0.66997 0.96269 0.0
H129 H 0.37169 0.93827 1.01002 0.0
H130 H 0.26168 0.77063 0.96204 0.0
H131 H 0.33943 0.81825 0.864 0.0
C132 C 0.78977 0.90321 0.48511 0.0
C133 C 0.82601 0.89314 0.48967 0.0
N134 N 0.82826 0.86726 0.52369 0.0
N135 N 0.76936 0.88395 0.51632 0.0
C136 C 0.79362 0.86232 0.53935 0.0
H137 H 0.77889 0.92281 0.46001 0.0
Co138 Co 0.71866 0.88716 0.52272 0.0
C139 C 0.70265 0.83673 0.60468 0.0
O140 O 0.67374 0.82258 0.58392 0.0
N141 N 0.66628 0.8913 0.52871 0.0
C142 C 0.60582 0.88224 0.52135 0.0
C143 C 0.64006 0.86735 0.51442 0.0
C144 C 0.64665 0.92057 0.54435 0.0
N145 N 0.61007 0.91591 0.53978 0.0
O146 O 0.72577 0.93233 0.55533 0.0
H147 H 0.64508 0.84068 0.49911 0.0
H148 H 0.65858 0.94531 0.55851 0.0
O149 O 0.72161 0.86118 0.58333 0.0
C150 C 0.7244 0.95984 0.5275 0.0
O151 O 0.71313 0.95482 0.48372 0.0
N152 N 0.71441 0.8446 0.48588 0.0
C153 C 0.72509 0.79445 0.41228 0.0
C154 C 0.73434 0.78528 0.45923 0.0
C155 C 0.72875 0.81081 0.49572 0.0
C156 C 0.70428 0.85341 0.44079 0.0
C157 C 0.70878 0.8286 0.40368 0.0
H158 H 0.73853 0.80433 0.53084 0.0
H159 H 0.6946 0.88084 0.43316 0.0
H160 H 0.78614 0.84288 0.56669 0.0
H161 H 0.84868 0.90302 0.46833 0.0
H162 H 0.5799 0.86988 0.51158 0.0
H163 H 0.74727 0.75927 0.4673 0.0
H164 H 0.70198 0.83722 0.36797 0.0
C165 C 0.11622 0.78897 0.47928 0.0
C166 C 0.12635 0.82528 0.48279 0.0
N167 N 0.15119 0.82831 0.51791 0.0
N168 N 0.13442 0.76931 0.51221 0.0
C169 C 0.15545 0.79409 0.53519 0.0
H170 H 0.09735 0.77751 0.45371 0.0
Co171 Co 0.13098 0.71879 0.52086 0.0
C172 C 0.18477 0.70644 0.60099 0.0
O173 O 0.2011 0.67864 0.58039 0.0
N174 N 0.12668 0.66672 0.52925 0.0
C175 C 0.13659 0.60624 0.52597 0.0
C176 C 0.15169 0.6404 0.51896 0.0
C177 C 0.09655 0.64728 0.54247 0.0
N178 N 0.10173 0.61065 0.54039 0.0
O179 O 0.08673 0.72701 0.55547 0.0
H180 H 0.17905 0.6453 0.50557 0.0
H181 H 0.0708 0.65936 0.55295 0.0
O182 O 0.15849 0.72296 0.58007 0.0
C183 C 0.05873 0.72656 0.52846 0.0
O184 O 0.06277 0.7155 0.48441 0.0
N185 N 0.17242 0.71325 0.48203 0.0
C186 C 0.21783 0.72444 0.40336 0.0
C187 C 0.22917 0.73528 0.44892 0.0
C188 C 0.20587 0.72957 0.488 0.0
C189 C 0.1622 0.70046 0.43865 0.0
C190 C 0.18467 0.70518 0.39912 0.0
H191 H 0.21335 0.74124 0.5218 0.0
H192 H 0.1351 0.68887 0.43405 0.0
H193 H 0.17411 0.78728 0.56359 0.0
H194 H 0.11723 0.84743 0.46011 0.0
H195 H 0.14971 0.58021 0.51873 0.0
H196 H 0.25435 0.75059 0.45378 0.0
H197 H 0.17501 0.69579 0.36491 0.0
C198 C 0.22923 0.11418 0.48252 0.0
C199 C 0.19302 0.12478 0.48533 0.0
N200 N 0.19038 0.15179 0.5177 0.0
N201 N 0.24921 0.13421 0.51324 0.0
C202 C 0.22473 0.15687 0.53413 0.0
H203 H 0.24038 0.09363 0.45895 0.0
Co204 Co 0.29973 0.13085 0.52187 0.0
C205 C 0.3129 0.18294 0.60348 0.0
O206 O 0.34246 0.19751 0.58464 0.0
N207 N 0.35185 0.12668 0.53014 0.0
C208 C 0.41239 0.13626 0.52542 0.0
C209 C 0.37824 0.15122 0.51807 0.0
C210 C 0.37125 0.09698 0.54481 0.0
N211 N 0.40791 0.10195 0.54183 0.0
O212 O 0.29147 0.08652 0.55617 0.0
H213 H 0.37337 0.17823 0.50358 0.0
H214 H 0.35915 0.07165 0.55695 0.0
O215 O 0.29524 0.15814 0.58117 0.0
C216 C 0.29285 0.0585 0.52929 0.0
O217 O 0.30498 0.06255 0.48566 0.0
N218 N 0.30528 0.17232 0.48328 0.0
C219 C 0.2932 0.21775 0.40507 0.0
C220 C 0.28439 0.2297 0.45114 0.0
C221 C 0.29053 0.20636 0.49004 0.0
C222 C 0.31635 0.16153 0.43932 0.0
C223 C 0.31107 0.18395 0.39994 0.0
H224 H 0.28041 0.21441 0.52449 0.0
H225 H 0.32684 0.13405 0.43431 0.0
H226 H 0.23184 0.17714 0.56049 0.0
H227 H 0.17065 0.11439 0.46399 0.0
H228 H 0.43846 0.14901 0.51708 0.0
H229 H 0.27027 0.25547 0.45665 0.0
H230 H 0.31888 0.17383 0.36525 0.0
C231 C 0.90279 0.22927 0.48233 0.0
C232 C 0.89228 0.19308 0.48595 0.0
N233 N 0.86574 0.19064 0.51911 0.0
N234 N 0.88315 0.24944 0.51332 0.0
C235 C 0.86084 0.22509 0.53519 0.0
H236 H 0.92297 0.24028 0.45802 0.0
Co237 Co 0.88646 0.29997 0.52112 0.0
C238 C 0.83852 0.31418 0.60668 0.0
O239 O 0.82501 0.3448 0.58959 0.0
N240 N 0.89061 0.35215 0.52844 0.0
C241 C 0.88112 0.41259 0.52268 0.0
C242 C 0.86616 0.37839 0.51582 0.0
C243 C 0.92024 0.37169 0.54306 0.0
N244 N 0.91534 0.40831 0.53941 0.0
O245 O 0.93213 0.29235 0.55252 0.0
H246 H 0.83908 0.3734 0.50166 0.0
H247 H 0.94541 0.35968 0.55577 0.0
O248 O 0.86144 0.2956 0.58228 0.0
C249 C 0.95952 0.29403 0.52446 0.0
O250 O 0.95433 0.30598 0.48098 0.0
N251 N 0.84338 0.30486 0.48553 0.0
C252 C 0.79222 0.29501 0.41296 0.0
C253 C 0.78335 0.28606 0.46016 0.0
C254 C 0.80939 0.29129 0.49617 0.0
C255 C 0.85184 0.31497 0.44029 0.0
C256 C 0.82656 0.31082 0.40366 0.0
H257 H 0.80307 0.28186 0.53154 0.0
H258 H 0.87935 0.32424 0.43213 0.0
H259 H 0.84095 0.23237 0.56204 0.0
H260 H 0.9024 0.17057 0.46462 0.0
H261 H 0.86838 0.43855 0.51396 0.0
H262 H 0.75717 0.27364 0.46881 0.0
H263 H 0.83495 0.31744 0.36778 0.0
H264 H 0.494 0.20713 0.98929 0.0
H265 H 0.54549 0.28005 0.08973 0.0
H266 H 0.43629 0.24014 0.9983 0.0
H267 H 0.48749 0.31346 0.09859 0.0
H268 H 0.33121 0.2951 0.04202 0.0
H269 H 0.38584 0.2577 0.05527 0.0
H270 H 0.45405 0.35375 0.03839 0.0
H271 H 0.39933 0.39122 0.02564 0.0
C272 C 0.49268 0.22973 1.01415 0.0
C273 C 0.52415 0.24114 0.0387 0.0
C274 C 0.45961 0.24854 1.01945 0.0
C275 C 0.45749 0.27951 0.0489 0.0
C276 C 0.48849 0.2898 0.07542 0.0
C277 C 0.52152 0.27054 0.07068 0.0
C278 C 0.3578 0.30835 0.04212 0.0
C279 C 0.36105 0.34607 0.0325 0.0
C280 C 0.38906 0.2869 0.04945 0.0
C281 C 0.42416 0.30281 0.04784 0.0
C282 C 0.42732 0.3408 0.04032 0.0
C283 C 0.39608 0.36217 0.03246 0.0
H284 H 0.63133 0.39921 1.02194 0.0
H285 H 0.72516 0.33031 0.04986 0.0
H286 H 0.66863 0.45365 0.03748 0.0
H287 H 0.7623 0.38463 0.06594 0.0
H288 H 0.81806 0.49116 1.00172 0.0
H289 H 0.78416 0.43384 1.00974 0.0
H290 H 0.70548 0.48762 0.1008 0.0
H291 H 0.73983 0.54522 0.09299 0.0
C292 C 0.65979 0.39573 0.03188 0.0
C293 C 0.67535 0.36054 0.03435 0.0
C294 C 0.68102 0.42681 0.04135 0.0
C295 C 0.71836 0.42333 0.05299 0.0
C296 C 0.73361 0.3881 0.05699 0.0
C297 C 0.71228 0.35701 0.04801 0.0
C298 C 0.79412 0.49045 0.02456 0.0
C299 C 0.7815 0.52251 0.0467 0.0
C300 C 0.77476 0.45763 0.02926 0.0
C301 C 0.74203 0.45636 0.0556 0.0
C302 C 0.73052 0.48795 0.08003 0.0
C303 C 0.75033 0.52075 0.07597 0.0
H304 H 0.68957 0.72149 0.04581 0.0
H305 H 0.62135 0.62599 0.02515 0.0
H306 H 0.63494 0.75894 0.05832 0.0
H307 H 0.56657 0.66361 0.03707 0.0
H308 H 0.47461 0.73744 0.08774 0.0
H309 H 0.53208 0.70321 0.09721 0.0
H310 H 0.58591 0.77782 1.00038 0.0
H311 H 0.52873 0.81162 0.99073 0.0
C312 C 0.66295 0.70835 0.04479 0.0
C313 C 0.65973 0.6708 0.03424 0.0
C314 C 0.63168 0.72985 0.05169 0.0
C315 C 0.59653 0.7142 0.04864 0.0
C316 C 0.59333 0.67635 0.04011 0.0
C317 C 0.62462 0.65491 0.03272 0.0
C318 C 0.49904 0.74705 0.06963 0.0
C319 C 0.49733 0.77707 0.03843 0.0
C320 C 0.53177 0.7273 0.07468 0.0
C321 C 0.56336 0.73774 0.04929 0.0
C322 C 0.56211 0.76927 1.02066 0.0
C323 C 0.52936 0.78856 1.01501 0.0
H324 H 0.28102 0.47378 0.08862 0.0
H325 H 0.20436 0.5281 0.99547 0.0
H326 H 0.31538 0.53125 0.09702 0.0
H327 H 0.23834 0.58533 1.0041 0.0
H328 H 0.29697 0.68869 0.04667 0.0
H329 H 0.25939 0.63433 0.06147 0.0
H330 H 0.35325 0.56525 0.0342 0.0
H331 H 0.39092 0.6197 1.0198 0.0
C332 C 0.27089 0.49826 0.0712 0.0
C333 C 0.24016 0.49659 0.04127 0.0
C334 C 0.2907 0.53099 0.07566 0.0
C335 C 0.27965 0.56263 0.05094 0.0
C336 C 0.24737 0.56147 1.02382 0.0
C337 C 0.22798 0.5287 1.01875 0.0
C338 C 0.30975 0.66194 0.04484 0.0
C339 C 0.34685 0.65838 0.03183 0.0
C340 C 0.2882 0.63086 0.05306 0.0
C341 C 0.30341 0.59561 0.049 0.0
C342 C 0.34089 0.5921 0.03808 0.0
C343 C 0.36234 0.62318 0.02931 0.0
H344 H 0.04622 0.78261 0.59066 0.0
H345 H 0.99148 0.70608 0.49789 0.0
H346 H 0.98847 0.81634 0.60075 0.0
H347 H 0.93405 0.73932 0.5082 0.0
H348 H 0.83057 0.79626 0.55174 0.0
H349 H 0.88537 0.75945 0.56638 0.0
H350 H 0.9534 0.85422 0.53922 0.0
H351 H 0.89851 0.89115 0.52508 0.0
C352 C 0.02159 0.77236 0.57372 0.0
C353 C 0.02318 0.74188 0.5434 0.0
C354 C 0.98871 0.7918 0.57913 0.0
C355 C 0.95686 0.78056 0.55503 0.0
C356 C 0.95803 0.74849 0.52751 0.0
C357 C 0.99092 0.72953 0.52147 0.0
C358 C 0.85717 0.80943 0.54994 0.0
C359 C 0.8603 0.84654 0.53691 0.0
C360 C 0.88852 0.7883 0.55809 0.0
C361 C 0.92362 0.80396 0.55389 0.0
C362 C 0.92669 0.8415 0.54318 0.0
C363 C 0.89534 0.86253 0.53452 0.0
H364 H 0.31458 0.99109 0.50099 0.0
H365 H 0.23392 0.04652 0.58719 0.0
H366 H 0.28052 0.93384 0.50907 0.0
H367 H 0.19936 0.98901 0.59495 0.0
H368 H 0.12788 0.8987 0.51485 0.0
H369 H 0.16444 0.95366 0.53041 0.0
H370 H 0.25732 0.88577 0.56659 0.0
H371 H 0.22098 0.83094 0.55052 0.0
C372 C 0.29002 0.99071 0.52271 0.0
C373 C 0.27681 0.02308 0.54345 0.0
C374 C 0.27057 0.95795 0.52745 0.0
C375 C 0.23717 0.95708 0.55236 0.0
C376 C 0.22495 0.98904 0.57534 0.0
C377 C 0.24485 0.02178 0.57129 0.0
C378 C 0.156 0.89558 0.52649 0.0
C379 C 0.17161 0.86055 0.53112 0.0
C380 C 0.17678 0.92697 0.53596 0.0
C381 C 0.2137 0.92392 0.54976 0.0
C382 C 0.22894 0.88888 0.55594 0.0
C383 C 0.20806 0.85751 0.54696 0.0
H384 H 0.12004 0.12823 0.51951 0.0
H385 H 0.18812 0.22364 0.54147 0.0
H386 H 0.0652 0.16556 0.53252 0.0
H387 H 0.13338 0.26087 0.55488 0.0
H388 H 0.02599 0.31346 0.48934 0.0
H389 H 0.08352 0.27997 0.49743 0.0
H390 H 0.03139 0.2044 0.59456 0.0
H391 H 0.97361 0.2383 0.58671 0.0
C392 C 0.12324 0.15708 0.52756 0.0
C393 C 0.1583 0.17305 0.52919 0.0
C394 C 0.09194 0.17835 0.53555 0.0
C395 C 0.09508 0.2161 0.54477 0.0
C396 C 0.13019 0.23185 0.54777 0.0
C397 C 0.16149 0.21049 0.54034 0.0
C398 C 0.02707 0.29024 0.51334 0.0
C399 C 0.99543 0.27838 0.53732 0.0
C400 C 0.06002 0.27114 0.5181 0.0
C401 C 0.06182 0.23945 0.54637 0.0
C402 C 0.03063 0.22863 0.5723 0.0
C403 C 0.99773 0.24818 0.56815 0.0
H404 H 0.88936 0.1204 0.52125 0.0
H405 H 0.79418 0.18847 0.54464 0.0
H406 H 0.85212 0.06562 0.53543 0.0
H407 H 0.75703 0.13379 0.55923 0.0
H408 H 0.70431 0.02634 0.49357 0.0
H409 H 0.73757 0.084 0.50196 0.0
H410 H 0.81362 0.0318 0.59801 0.0
H411 H 0.77993 0.97388 0.58985 0.0
C412 C 0.86059 0.12361 0.5299 0.0
C413 C 0.84464 0.15864 0.53154 0.0
C414 C 0.83938 0.09235 0.53857 0.0
C415 C 0.80171 0.09551 0.54849 0.0
C416 C 0.786 0.13059 0.5516 0.0
C417 C 0.8073 0.16186 0.54348 0.0
C418 C 0.72755 0.02745 0.51745 0.0
C419 C 0.73965 0.99575 0.54097 0.0
C420 C 0.74652 0.06046 0.52239 0.0
C421 C 0.77832 0.06227 0.55037 0.0
C422 C 0.7893 0.03103 0.57599 0.0
C423 C 0.76988 0.99806 0.57167 0.0
H424 H 0.29479 0.29213 0.38616 0.0
H425 H 0.26093 0.18829 0.32701 0.0
H426 H 0.27217 0.32353 0.31479 0.0
H427 H 0.23938 0.2192 0.25609 0.0
H428 H 0.16885 0.28667 0.15804 0.0
H429 H 0.18987 0.26023 0.23251 0.0
H430 H 0.2864 0.32891 0.22791 0.0
H431 H 0.26514 0.35585 0.15337 0.0
C432 C 0.28263 0.27605 0.358 0.0
C433 C 0.28006 0.23768 0.36212 0.0
C434 C 0.2699 0.29395 0.31703 0.0
C435 C 0.25387 0.27387 0.27975 0.0
C436 C 0.25117 0.23559 0.28424 0.0
C437 C 0.26402 0.2178 0.32476 0.0
C438 C 0.19449 0.29631 0.17288 0.0
C439 C 0.21538 0.32323 0.14943 0.0
C440 C 0.20662 0.28103 0.21556 0.0
C441 C 0.23996 0.29225 0.23606 0.0
C442 C 0.26047 0.31985 0.21329 0.0
C443 C 0.24837 0.3351 0.17039 0.0
H444 H 0.66399 0.27004 0.15062 0.0
H445 H 0.72627 0.17044 0.1709 0.0
H446 H 0.6855 0.29271 0.2272 0.0
H447 H 0.74772 0.19316 0.24723 0.0
H448 H 0.75687 0.22965 0.39968 0.0
H449 H 0.726 0.20824 0.328 0.0
H450 H 0.74421 0.31372 0.26214 0.0
H451 H 0.7745 0.33531 0.33412 0.0
C452 C 0.6822 0.25292 0.17137 0.0
C453 C 0.69355 0.21846 0.15437 0.0
C454 C 0.69457 0.26598 0.21526 0.0
C455 C 0.71826 0.24473 0.24344 0.0
C456 C 0.72909 0.21004 0.22676 0.0
C457 C 0.717 0.19712 0.18276 0.0
C458 C 0.75344 0.24858 0.37037 0.0
C459 C 0.76821 0.28418 0.3726 0.0
C460 C 0.73617 0.23615 0.32905 0.0
C461 C 0.73299 0.25912 0.28911 0.0
C462 C 0.74604 0.29535 0.29227 0.0
C463 C 0.76356 0.30767 0.33344 0.0
H464 H 0.84828 0.73054 0.16723 0.0
H465 H 0.75035 0.66482 0.15121 0.0
H466 H 0.82584 0.75253 0.24357 0.0
H467 H 0.72794 0.68695 0.22771 0.0
H468 H 0.68447 0.77621 0.33408 0.0
H469 H 0.70592 0.7462 0.26171 0.0
H470 H 0.81244 0.73037 0.32537 0.0
H471 H 0.79111 0.76081 0.3975 0.0
C472 C 0.82201 0.72068 0.17999 0.0
C473 C 0.80108 0.69602 0.15287 0.0
C474 C 0.80927 0.73309 0.22398 0.0
C475 C 0.77514 0.72142 0.24183 0.0
C476 C 0.75423 0.69665 0.21482 0.0
C477 C 0.76715 0.68392 0.171 0.0
C478 C 0.71231 0.76586 0.33282 0.0
C479 C 0.73609 0.77095 0.37151 0.0
C480 C 0.72456 0.74851 0.29144 0.0
C481 C 0.761 0.73619 0.2876 0.0
C482 C 0.78434 0.73996 0.327 0.0
C483 C 0.77198 0.75699 0.36855 0.0
H484 H 0.35901 0.7553 0.15373 0.0
H485 H 0.28265 0.84593 0.1524 0.0
H486 H 0.33217 0.73353 0.22827 0.0
H487 H 0.25635 0.82448 0.22675 0.0
H488 H 0.18779 0.75142 0.32215 0.0
H489 H 0.21857 0.7726 0.2509 0.0
H490 H 0.32371 0.74906 0.31442 0.0
H491 H 0.29252 0.72663 0.38613 0.0
C492 C 0.33672 0.77074 0.16944 0.0
C493 C 0.32281 0.80224 0.14677 0.0
C494 C 0.32149 0.75835 0.21231 0.0
C495 C 0.29191 0.77708 0.23332 0.0
C496 C 0.27869 0.80903 0.21117 0.0
C497 C 0.29392 0.82144 0.16854 0.0
C498 C 0.21747 0.75016 0.3209 0.0
C499 C 0.23764 0.73685 0.35982 0.0
C500 C 0.23517 0.76284 0.28015 0.0
C501 C 0.27364 0.76278 0.27697 0.0
C502 C 0.29401 0.74928 0.31565 0.0
C503 C 0.27619 0.73668 0.35682 0.0
H504 H 0.66843 0.78531 0.65965 0.0
H505 H 0.76375 0.85587 0.65626 0.0
H506 H 0.6889 0.75956 0.73467 0.0
H507 H 0.7846 0.82946 0.73135 0.0
H508 H 0.79316 0.79196 0.88921 0.0
H509 H 0.77051 0.82345 0.8179 0.0
H510 H 0.73816 0.71911 0.75879 0.0
H511 H 0.75956 0.68817 0.82967 0.0
C512 C 0.69377 0.7954 0.67488 0.0
C513 C 0.71457 0.82246 0.65159 0.0
C514 C 0.7056 0.7805 0.71791 0.0
C515 C 0.7386 0.79217 0.73887 0.0
C516 C 0.75894 0.82002 0.71635 0.0
C517 C 0.74709 0.83498 0.67314 0.0
C518 C 0.78103 0.77591 0.86099 0.0
C519 C 0.77857 0.73752 0.86497 0.0
C520 C 0.76831 0.79387 0.82004 0.0
C521 C 0.75242 0.77381 0.78264 0.0
C522 C 0.7498 0.73552 0.78703 0.0
C523 C 0.76259 0.71769 0.82754 0.0
H524 H 0.16458 0.76891 0.64873 0.0
H525 H 0.2344 0.67354 0.65994 0.0
H526 H 0.18739 0.79086 0.72509 0.0
H527 H 0.25688 0.69542 0.73626 0.0
H528 H 0.27767 0.83525 0.83023 0.0
H529 H 0.2475 0.81423 0.75771 0.0
H530 H 0.23438 0.70649 0.81922 0.0
H531 H 0.26475 0.72742 0.89153 0.0
C532 C 0.18472 0.75257 0.66743 0.0
C533 C 0.19779 0.71952 0.64797 0.0
C534 C 0.19781 0.76522 0.71116 0.0
C535 C 0.22386 0.74484 0.7368 0.0
C536 C 0.23649 0.71154 0.71768 0.0
C537 C 0.22376 0.69913 0.67373 0.0
C538 C 0.26786 0.80723 0.82846 0.0
C539 C 0.27359 0.78301 0.86662 0.0
C540 C 0.25046 0.79523 0.78703 0.0
C541 C 0.23881 0.75861 0.78258 0.0
C542 C 0.24338 0.73476 0.82138 0.0
C543 C 0.26039 0.74687 0.86301 0.0
H544 H 0.34785 0.2286 0.66569 0.0
H545 H 0.24778 0.1665 0.64782 0.0
H546 H 0.32574 0.25076 0.74212 0.0
H547 H 0.22567 0.18885 0.72438 0.0
H548 H 0.18492 0.27957 0.83081 0.0
H549 H 0.20571 0.24898 0.75852 0.0
H550 H 0.31084 0.22826 0.82367 0.0
H551 H 0.29012 0.25919 0.89581 0.0
C552 C 0.32117 0.21958 0.67805 0.0
C553 C 0.29956 0.19589 0.65039 0.0
C554 C 0.30862 0.23207 0.72209 0.0
C555 C 0.27399 0.22148 0.73943 0.0
C556 C 0.25238 0.19769 0.7119 0.0
C557 C 0.26511 0.18484 0.66804 0.0
C558 C 0.21227 0.26798 0.8299 0.0
C559 C 0.23589 0.27185 0.869 0.0
C560 C 0.22414 0.25033 0.78857 0.0
C561 C 0.26005 0.23648 0.78518 0.0
C562 C 0.28316 0.23903 0.82498 0.0
C563 C 0.27115 0.25634 0.86651 0.0
H564 H 0.76291 0.28941 0.89942 0.0
H565 H 0.74461 0.18386 0.83432 0.0
H566 H 0.7938 0.31066 0.82751 0.0
H567 H 0.77481 0.20533 0.76205 0.0
H568 H 0.85483 0.24847 0.64954 0.0
H569 H 0.83319 0.2258 0.72623 0.0
H570 H 0.77252 0.32619 0.74714 0.0
H571 H 0.79419 0.34894 0.67079 0.0
C572 C 0.76617 0.27047 0.87016 0.0
C573 C 0.75121 0.23495 0.87262 0.0
C574 C 0.78345 0.28281 0.82868 0.0
C575 C 0.78642 0.25986 0.78877 0.0
C576 C 0.77316 0.2237 0.79213 0.0
C577 C 0.75566 0.21145 0.83348 0.0
C578 C 0.83695 0.26577 0.67052 0.0
C579 C 0.82613 0.30051 0.65379 0.0
C580 C 0.82448 0.2527 0.71447 0.0
C581 C 0.80119 0.27419 0.74296 0.0
C582 C 0.79084 0.30912 0.72648 0.0
C583 C 0.80306 0.32206 0.68244 0.0
H584 H 0.91267 0.54481 0.09637 0.0
H585 H 0.97757 0.60645 0.99562 0.0
H586 H 0.9617 0.4994 0.10232 0.0
H587 H 0.02621 0.56137 1.00154 0.0
H588 H 0.12037 0.49077 0.04651 0.0
H589 H 0.07261 0.53696 0.05321 0.0
H590 H 0.99011 0.45183 0.0546 0.0
H591 H 0.03808 0.40543 0.04998 0.0
C592 C 0.93729 0.54874 0.07547 0.0
C593 C 0.94101 0.57946 0.04554 0.0
C594 C 0.96544 0.52267 0.07889 0.0
C595 C 0.99802 0.5267 0.0525 0.0
C596 C 1.00188 0.55767 1.02313 0.0
C597 C 0.97383 0.58364 1.01972 0.0
C598 C 0.09218 0.48172 0.04931 0.0
C599 C 0.08321 0.44419 0.04742 0.0
C600 C 0.06466 0.50834 0.05254 0.0
C601 C 0.0274 0.49822 0.05388 0.0
C602 C 0.01848 0.46068 0.05389 0.0
C603 C 0.04602 0.43402 0.05071 0.0
H604 H 0.53103 0.11542 1.02163 0.0
H605 H 0.61542 0.04163 0.0704 0.0
H606 H 0.48624 0.06599 0.02539 0.0
H607 H 0.57045 0.99215 0.07584 0.0
H608 H 0.49162 0.90317 1.02212 0.0
H609 H 0.5364 0.95255 0.0273 0.0
H610 H 0.45093 0.02676 0.07312 0.0
H611 H 0.40605 0.97737 0.06624 0.0
C612 C 0.53984 0.08876 0.03416 0.0
C613 C 0.5768 0.08241 0.04562 0.0
C614 C 0.5141 0.06031 0.03645 0.0
C615 C 0.52455 0.02479 0.05081 0.0
C616 C 0.56141 0.01883 0.06366 0.0
C617 C 0.58722 0.04721 0.06079 0.0
C618 C 0.48253 0.9299 0.03394 0.0
C619 C 0.44526 0.9364 0.04363 0.0
C620 C 0.50825 0.95833 0.03704 0.0
C621 C 0.49746 0.99394 0.05046 0.0
C622 C 0.46027 1.00002 0.06166 0.0
C623 C 0.4345 0.97168 0.05797 0.0
H624 H 0.47703 0.11329 0.5735 0.0
H625 H 0.40316 0.02916 0.52422 0.0
H626 H 0.52624 0.06815 0.57955 0.0
H627 H 0.45233 0.98422 0.52842 0.0
H628 H 0.54034 0.90363 0.56879 0.0
H629 H 0.49107 0.94861 0.5758 0.0
H630 H 0.56609 0.03412 0.53164 0.0
H631 H 0.61531 0.98925 0.5265 0.0
C632 C 0.47138 0.0851 0.56393 0.0
C633 C 0.43624 0.0748 0.54845 0.0
C634 C 0.49961 0.05919 0.56712 0.0
C635 C 0.49355 0.02235 0.55421 0.0
C636 C 0.45808 0.01203 0.53955 0.0
C637 C 0.42977 0.03786 0.537 0.0
C638 C 0.54622 0.93212 0.56096 0.0
C639 C 0.58167 0.94289 0.54712 0.0
C640 C 0.51796 0.95795 0.56471 0.0
C641 C 0.5243 0.99519 0.55399 0.0
C642 C 0.56009 1.00595 0.54104 0.0
C643 C 0.58843 0.98018 0.53795 0.0
H644 H 0.02907 0.61506 0.52116 0.0
H645 H 0.11279 0.54157 0.57263 0.0
H646 H 0.98407 0.56585 0.52536 0.0
H647 H 0.06759 0.49231 0.57832 0.0
H648 H 0.98866 0.40322 0.52495 0.0
H649 H 0.03361 0.45246 0.52951 0.0
H650 H 0.94843 0.52737 0.57426 0.0
H651 H 0.90336 0.47807 0.56823 0.0
C652 C 0.03769 0.58854 0.53434 0.0
C653 C 0.07454 0.58221 0.5465 0.0
C654 C 0.01183 0.56022 0.53686 0.0
C655 C 0.02203 0.52486 0.55209 0.0
C656 C 0.05876 0.51889 0.56552 0.0
C657 C 0.0847 0.54714 0.56248 0.0
C658 C 0.97965 0.43007 0.53644 0.0
C659 C 0.94241 0.43676 0.54613 0.0
C660 C 1.00547 0.45841 0.53916 0.0
C661 C 0.99481 0.49415 0.55211 0.0
C662 C 0.95765 0.50048 0.5632 0.0
C663 C 0.93178 0.4722 0.55998 0.0
loop_
_geom_bond_atom_site_label_1
_geom_bond_atom_site_label_2
_geom_bond_distance
_geom_bond_site_symmetry_2
_ccdc_geom_bond_type
C0 C1 1.351 . S
C0 N3 1.368 1_556 S
C0 H5 0.931 . S
C1 C0 1.351 . S
C1 N2 1.373 1_556 S
C1 H29 0.930 . S
N2 C1 1.373 1_554 S
N2 C4 1.340 . S
N3 C0 1.368 1_554 S
N3 C4 1.321 . S
N3 Co6 2.135 . S
C4 N2 1.340 . S
C4 N3 1.321 . S
C4 H28 0.930 . S
H5 C0 0.931 . S
Co6 N3 2.135 . S
Co6 N9 2.121 . S
Co6 O14 2.055 . S
Co6 O17 2.039 . S
Co6 N20 2.140 1_554 S
C7 O8 1.227 . S
C7 O17 1.265 . S
O8 C7 1.227 . S
N9 Co6 2.121 . S
N9 C11 1.375 . S
N9 C12 1.313 . S
C10 C11 1.338 . S
C10 N13 1.377 . S
C10 H30 0.930 . S
C11 N9 1.375 . S
C11 C10 1.338 . S
C11 H15 0.931 . S
C12 N9 1.313 . S
C12 N13 1.344 . S
C12 H16 0.930 . S
N13 C10 1.377 . S
N13 C12 1.344 . S
O14 Co6 2.055 . S
O14 C18 1.245 1_554 S
H15 C11 0.931 . S
H16 C12 0.930 . S
O17 Co6 2.039 . S
O17 C7 1.265 . S
C18 O14 1.245 1_556 S
C18 O19 1.234 . S
O19 C18 1.234 . S
N20 Co6 2.140 1_556 S
N20 C23 1.346 . S
N20 C24 1.345 . S
C21 C22 1.387 . S
C21 C25 1.391 . S
C22 C21 1.387 . S
C22 C23 1.369 . S
C22 H31 0.929 . S
C23 N20 1.346 . S
C23 C22 1.369 . S
C23 H26 0.928 . S
C24 N20 1.345 . S
C24 C25 1.371 . S
C24 H27 0.931 . S
C25 C21 1.391 . S
C25 C24 1.371 . S
C25 H32 0.930 . S
H26 C23 0.928 . S
H27 C24 0.931 . S
H28 C4 0.930 . S
H29 C1 0.930 . S
H30 C10 0.930 . S
H31 C22 0.929 . S
H32 C25 0.930 . S
C33 C34 1.351 . S
C33 N36 1.368 1_556 S
C33 H38 0.931 . S
C34 C33 1.351 . S
C34 N35 1.373 1_556 S
C34 H62 0.930 . S
N35 C34 1.373 1_554 S
N35 C37 1.340 . S
N36 C33 1.368 1_554 S
N36 C37 1.321 . S
N36 Co39 2.135 . S
C37 N35 1.340 . S
C37 N36 1.321 . S
C37 H61 0.930 . S
H38 C33 0.931 . S
Co39 N36 2.135 . S
Co39 N42 2.121 . S
Co39 O47 2.055 . S
Co39 O50 2.039 . S
Co39 N53 2.140 1_554 S
C40 O41 1.227 . S
C40 O50 1.265 . S
O41 C40 1.227 . S
N42 Co39 2.121 . S
N42 C44 1.375 . S
N42 C45 1.313 . S
C43 C44 1.338 . S
C43 N46 1.377 . S
C43 H63 0.930 . S
C44 N42 1.375 . S
C44 C43 1.338 . S
C44 H48 0.931 . S
C45 N42 1.313 . S
C45 N46 1.344 . S
C45 H49 0.930 . S
N46 C43 1.377 . S
N46 C45 1.344 . S
O47 Co39 2.055 . S
O47 C51 1.245 1_554 S
H48 C44 0.931 . S
H49 C45 0.930 . S
O50 Co39 2.039 . S
O50 C40 1.265 . S
C51 O47 1.245 1_556 S
C51 O52 1.234 . S
O52 C51 1.234 . S
N53 Co39 2.140 1_556 S
N53 C56 1.346 . S
N53 C57 1.345 . S
C54 C55 1.387 . S
C54 C58 1.391 . S
C55 C54 1.387 . S
C55 C56 1.369 . S
C55 H64 0.929 . S
C56 N53 1.346 . S
C56 C55 1.369 . S
C56 H59 0.928 . S
C57 N53 1.345 . S
C57 C58 1.371 . S
C57 H60 0.931 . S
C58 C54 1.391 . S
C58 C57 1.371 . S
C58 H65 0.930 . S
H59 C56 0.928 . S
H60 C57 0.931 . S
H61 C37 0.930 . S
H62 C34 0.930 . S
H63 C43 0.930 . S
H64 C55 0.929 . S
H65 C58 0.930 . S
C66 C67 1.351 . S
C66 N69 1.368 1_556 S
C66 H71 0.931 . S
C67 C66 1.351 . S
C67 N68 1.373 1_556 S
C67 H95 0.930 . S
N68 C67 1.373 1_554 S
N68 C70 1.340 . S
N69 C66 1.368 1_554 S
N69 C70 1.321 . S
N69 Co72 2.135 . S
C70 N68 1.340 . S
C70 N69 1.321 . S
C70 H94 0.930 . S
H71 C66 0.931 . S
Co72 N69 2.135 . S
Co72 N75 2.121 . S
Co72 O80 2.055 . S
Co72 O83 2.039 . S
Co72 N86 2.140 1_554 S
C73 O74 1.227 . S
C73 O83 1.265 . S
O74 C73 1.227 . S
N75 Co72 2.121 . S
N75 C77 1.375 . S
N75 C78 1.313 . S
C76 C77 1.338 . S
C76 N79 1.377 . S
C76 H96 0.930 . S
C77 N75 1.375 . S
C77 C76 1.338 . S
C77 H81 0.931 . S
C78 N75 1.313 . S
C78 N79 1.344 . S
C78 H82 0.930 . S
N79 C76 1.377 . S
N79 C78 1.344 . S
O80 Co72 2.055 . S
O80 C84 1.245 1_554 S
H81 C77 0.931 . S
H82 C78 0.930 . S
O83 Co72 2.039 . S
O83 C73 1.265 . S
C84 O80 1.245 1_556 S
C84 O85 1.234 . S
O85 C84 1.234 . S
N86 Co72 2.140 1_556 S
N86 C89 1.346 . S
N86 C90 1.345 . S
C87 C88 1.387 . S
C87 C91 1.391 . S
C88 C87 1.387 . S
C88 C89 1.369 . S
C88 H97 0.929 . S
C89 N86 1.346 . S
C89 C88 1.369 . S
C89 H92 0.928 . S
C90 N86 1.345 . S
C90 C91 1.371 . S
C90 H93 0.931 . S
C91 C87 1.391 . S
C91 C90 1.371 . S
C91 H98 0.930 . S
H92 C89 0.928 . S
H93 C90 0.931 . S
H94 C70 0.930 . S
H95 C67 0.930 . S
H96 C76 0.930 . S
H97 C88 0.929 . S
H98 C91 0.930 . S
C99 C100 1.351 . S
C99 N102 1.368 1_556 S
C99 H104 0.931 . S
C100 C99 1.351 . S
C100 N101 1.373 1_556 S
C100 H128 0.930 . S
N101 C100 1.373 1_554 S
N101 C103 1.340 . S
N102 C99 1.368 1_554 S
N102 C103 1.321 . S
N102 Co105 2.135 . S
C103 N101 1.340 . S
C103 N102 1.321 . S
C103 H127 0.930 . S
H104 C99 0.931 . S
Co105 N102 2.135 . S
Co105 N108 2.121 . S
Co105 O113 2.055 . S
Co105 O116 2.039 . S
Co105 N119 2.140 1_554 S
C106 O107 1.227 . S
C106 O116 1.265 . S
O107 C106 1.227 . S
N108 Co105 2.121 . S
N108 C110 1.375 . S
N108 C111 1.313 . S
C109 C110 1.338 . S
C109 N112 1.377 . S
C109 H129 0.930 . S
C110 N108 1.375 . S
C110 C109 1.338 . S
C110 H114 0.931 . S
C111 N108 1.313 . S
C111 N112 1.344 . S
C111 H115 0.930 . S
N112 C109 1.377 . S
N112 C111 1.344 . S
O113 Co105 2.055 . S
O113 C117 1.245 1_554 S
H114 C110 0.931 . S
H115 C111 0.930 . S
O116 Co105 2.039 . S
O116 C106 1.265 . S
C117 O113 1.245 1_556 S
C117 O118 1.234 . S
O118 C117 1.234 . S
N119 Co105 2.140 1_556 S
N119 C122 1.346 . S
N119 C123 1.345 . S
C120 C121 1.387 . S
C120 C124 1.391 . S
C121 C120 1.387 . S
C121 C122 1.369 . S
C121 H130 0.929 . S
C122 N119 1.346 . S
C122 C121 1.369 . S
C122 H125 0.928 . S
C123 N119 1.345 . S
C123 C124 1.371 . S
C123 H126 0.931 . S
C124 C120 1.391 . S
C124 C123 1.371 . S
C124 H131 0.930 . S
H125 C122 0.928 . S
H126 C123 0.931 . S
H127 C103 0.930 . S
H128 C100 0.930 . S
H129 C109 0.930 . S
H130 C121 0.929 . S
H131 C124 0.930 . S
C132 C133 1.351 . S
C132 N135 1.368 . S
C132 H137 0.931 . S
C133 C132 1.351 . S
C133 N134 1.373 . S
C133 H161 0.930 . S
N134 C133 1.373 . S
N134 C136 1.340 . S
N135 C132 1.368 . S
N135 C136 1.321 . S
N135 Co138 2.135 . S
C136 N134 1.340 . S
C136 N135 1.321 . S
C136 H160 0.930 . S
H137 C132 0.931 . S
Co138 N135 2.135 . S
Co138 N141 2.121 . S
Co138 O146 2.055 . S
Co138 O149 2.039 . S
Co138 N152 2.140 . S
C139 O140 1.227 . S
C139 O149 1.265 . S
O140 C139 1.227 . S
N141 Co138 2.121 . S
N141 C143 1.375 . S
N141 C144 1.313 . S
C142 C143 1.338 . S
C142 N145 1.377 . S
C142 H162 0.930 . S
C143 N141 1.375 . S
C143 C142 1.338 . S
C143 H147 0.931 . S
C144 N141 1.313 . S
C144 N145 1.344 . S
C144 H148 0.930 . S
N145 C142 1.377 . S
N145 C144 1.344 . S
O146 Co138 2.055 . S
O146 C150 1.253 . S
H147 C143 0.931 . S
H148 C144 0.930 . S
O149 Co138 2.039 . S
O149 C139 1.265 . S
C150 O146 1.253 . S
C150 O151 1.227 . S
O151 C150 1.227 . S
N152 Co138 2.140 . S
N152 C155 1.346 . S
N152 C156 1.345 . S
C153 C154 1.387 . S
C153 C157 1.391 . S
C154 C153 1.387 . S
C154 C155 1.369 . S
C154 H163 0.929 . S
C155 N152 1.346 . S
C155 C154 1.369 . S
C155 H158 0.928 . S
C156 N152 1.345 . S
C156 C157 1.371 . S
C156 H159 0.931 . S
C157 C153 1.391 . S
C157 C156 1.371 . S
C157 H164 0.930 . S
H158 C155 0.928 . S
H159 C156 0.931 . S
H160 C136 0.930 . S
H161 C133 0.930 . S
H162 C142 0.930 . S
H163 C154 0.929 . S
H164 C157 0.930 . S
C165 C166 1.351 . S
C165 N168 1.368 . S
C165 H170 0.931 . S
C166 C165 1.351 . S
C166 N167 1.373 . S
C166 H194 0.930 . S
N167 C166 1.373 . S
N167 C169 1.340 . S
N168 C165 1.368 . S
N168 C169 1.321 . S
N168 Co171 2.135 . S
C169 N167 1.340 . S
C169 N168 1.321 . S
C169 H193 0.930 . S
H170 C165 0.931 . S
Co171 N168 2.135 . S
Co171 N174 2.121 . S
Co171 O179 2.055 . S
Co171 O182 2.039 . S
Co171 N185 2.140 . S
C172 O173 1.227 . S
C172 O182 1.265 . S
O173 C172 1.227 . S
N174 Co171 2.121 . S
N174 C176 1.375 . S
N174 C177 1.313 . S
C175 C176 1.338 . S
C175 N178 1.377 . S
C175 H195 0.930 . S
C176 N174 1.375 . S
C176 C175 1.338 . S
C176 H180 0.931 . S
C177 N174 1.313 . S
C177 N178 1.344 . S
C177 H181 0.930 . S
N178 C175 1.377 . S
N178 C177 1.344 . S
O179 Co171 2.055 . S
O179 C183 1.253 . S
H180 C176 0.931 . S
H181 C177 0.930 . S
O182 Co171 2.039 . S
O182 C172 1.265 . S
C183 O179 1.253 . S
C183 O184 1.227 . S
O184 C183 1.227 . S
N185 Co171 2.140 . S
N185 C188 1.346 . S
N185 C189 1.345 . S
C186 C187 1.387 . S
C186 C190 1.391 . S
C187 C186 1.387 . S
C187 C188 1.369 . S
C187 H196 0.929 . S
C188 N185 1.346 . S
C188 C187 1.369 . S
C188 H191 0.928 . S
C189 N185 1.345 . S
C189 C190 1.371 . S
C189 H192 0.931 . S
C190 C186 1.391 . S
C190 C189 1.371 . S
C190 H197 0.930 . S
H191 C188 0.928 . S
H192 C189 0.931 . S
H193 C169 0.930 . S
H194 C166 0.930 . S
H195 C175 0.930 . S
H196 C187 0.929 . S
H197 C190 0.930 . S
C198 C199 1.351 . S
C198 N201 1.368 . S
C198 H203 0.931 . S
C199 C198 1.351 . S
C199 N200 1.373 . S
C199 H227 0.930 . S
N200 C199 1.373 . S
N200 C202 1.340 . S
N201 C198 1.368 . S
N201 C202 1.321 . S
N201 Co204 2.135 . S
C202 N200 1.340 . S
C202 N201 1.321 . S
C202 H226 0.930 . S
H203 C198 0.931 . S
Co204 N201 2.135 . S
Co204 N207 2.121 . S
Co204 O212 2.055 . S
Co204 O215 2.039 . S
Co204 N218 2.140 . S
C205 O206 1.227 . S
C205 O215 1.265 . S
O206 C205 1.227 . S
N207 Co204 2.121 . S
N207 C209 1.375 . S
N207 C210 1.313 . S
C208 C209 1.338 . S
C208 N211 1.377 . S
C208 H228 0.930 . S
C209 N207 1.375 . S
C209 C208 1.338 . S
C209 H213 0.931 . S
C210 N207 1.313 . S
C210 N211 1.344 . S
C210 H214 0.930 . S
N211 C208 1.377 . S
N211 C210 1.344 . S
O212 Co204 2.055 . S
O212 C216 1.253 . S
H213 C209 0.931 . S
H214 C210 0.930 . S
O215 Co204 2.039 . S
O215 C205 1.265 . S
C216 O212 1.253 . S
C216 O217 1.227 . S
O217 C216 1.227 . S
N218 Co204 2.140 . S
N218 C221 1.346 . S
N218 C222 1.345 . S
C219 C220 1.387 . S
C219 C223 1.391 . S
C220 C219 1.387 . S
C220 C221 1.369 . S
C220 H229 0.929 . S
C221 N218 1.346 . S
C221 C220 1.369 . S
C221 H224 0.928 . S
C222 N218 1.345 . S
C222 C223 1.371 . S
C222 H225 0.931 . S
C223 C219 1.391 . S
C223 C222 1.371 . S
C223 H230 0.930 . S
H224 C221 0.928 . S
H225 C222 0.931 . S
H226 C202 0.930 . S
H227 C199 0.930 . S
H228 C208 0.930 . S
H229 C220 0.929 . S
H230 C223 0.930 . S
C231 C232 1.351 . S
C231 N234 1.368 . S
C231 H236 0.931 . S
C232 C231 1.351 . S
C232 N233 1.373 . S
C232 H260 0.930 . S
N233 C232 1.373 . S
N233 C235 1.340 . S
N234 C231 1.368 . S
N234 C235 1.321 . S
N234 Co237 2.135 . S
C235 N233 1.340 . S
C235 N234 1.321 . S
C235 H259 0.930 . S
H236 C231 0.931 . S
Co237 N234 2.135 . S
Co237 N240 2.121 . S
Co237 O245 2.055 . S
Co237 O248 2.039 . S
Co237 N251 2.140 . S
C238 O239 1.227 . S
C238 O248 1.265 . S
O239 C238 1.227 . S
N240 Co237 2.121 . S
N240 C242 1.375 . S
N240 C243 1.313 . S
C241 C242 1.338 . S
C241 N244 1.377 . S
C241 H261 0.930 . S
C242 N240 1.375 . S
C242 C241 1.338 . S
C242 H246 0.931 . S
C243 N240 1.313 . S
C243 N244 1.344 . S
C243 H247 0.930 . S
N244 C241 1.377 . S
N244 C243 1.344 . S
O245 Co237 2.055 . S
O245 C249 1.253 . S
H246 C242 0.931 . S
H247 C243 0.930 . S
O248 Co237 2.039 . S
O248 C238 1.265 . S
C249 O245 1.253 . S
C249 O250 1.227 . S
O250 C249 1.227 . S
N251 Co237 2.140 . S
N251 C254 1.346 . S
N251 C255 1.345 . S
C252 C253 1.387 . S
C252 C256 1.391 . S
C253 C252 1.387 . S
C253 C254 1.369 . S
C253 H262 0.929 . S
C254 N251 1.346 . S
C254 C253 1.369 . S
C254 H257 0.928 . S
C255 N251 1.345 . S
C255 C256 1.371 . S
C255 H258 0.931 . S
C256 C252 1.391 . S
C256 C255 1.371 . S
C256 H263 0.930 . S
H257 C254 0.928 . S
H258 C255 0.931 . S
H259 C235 0.930 . S
H260 C232 0.930 . S
H261 C241 0.930 . S
H262 C253 0.929 . S
H263 C256 0.930 . S
H264 C272 0.950 . S
H265 C277 0.950 . S
H266 C274 0.950 . S
H267 C276 0.950 . S
H268 C278 0.950 . S
H269 C280 0.950 . S
H270 C282 0.950 . S
H271 C283 0.950 . S
C272 H264 0.950 . S
C272 C273 1.386 . S
C272 C274 1.391 . S
C273 C272 1.386 . S
C273 C277 1.393 1_556 S
C274 H266 0.950 . S
C274 C272 1.391 . S
C274 C275 1.400 1_556 S
C275 C274 1.400 1_554 S
C275 C276 1.398 . S
C275 C281 1.491 . S
C276 H267 0.950 . S
C276 C275 1.398 . S
C276 C277 1.391 . S
C277 H265 0.950 . S
C277 C273 1.393 1_554 S
C277 C276 1.391 . S
C278 H268 0.950 . S
C278 C279 1.386 . S
C278 C280 1.391 . S
C279 C278 1.386 . S
C279 C283 1.393 1_554 S
C280 H269 0.950 . S
C280 C278 1.391 . S
C280 C281 1.400 . S
C281 C275 1.491 . S
C281 C280 1.400 . S
C281 C282 1.398 1_554 S
C282 H270 0.950 . S
C282 C281 1.398 1_556 S
C282 C283 1.391 . S
C283 H271 0.950 . S
C283 C279 1.393 1_556 S
C283 C282 1.391 . S
H284 C292 0.950 . S
H285 C297 0.950 . S
H286 C294 0.950 . S
H287 C296 0.950 . S
H288 C298 0.950 . S
H289 C300 0.950 . S
H290 C302 0.950 . S
H291 C303 0.950 . S
C292 H284 0.950 . S
C292 C293 1.386 . S
C292 C294 1.391 . S
C293 C292 1.386 . S
C293 C297 1.393 . S
C294 H286 0.950 . S
C294 C292 1.391 . S
C294 C295 1.400 . S
C295 C294 1.400 . S
C295 C296 1.398 . S
C295 C301 1.491 . S
C296 H287 0.950 . S
C296 C295 1.398 . S
C296 C297 1.391 . S
C297 H285 0.950 . S
C297 C293 1.393 . S
C297 C296 1.391 . S
C298 H288 0.950 . S
C298 C299 1.386 . S
C298 C300 1.391 . S
C299 C298 1.386 . S
C299 C303 1.393 1_556 S
C300 H289 0.950 . S
C300 C298 1.391 . S
C300 C301 1.400 1_556 S
C301 C295 1.491 . S
C301 C300 1.400 1_554 S
C301 C302 1.398 . S
C302 H290 0.950 . S
C302 C301 1.398 . S
C302 C303 1.391 . S
C303 H291 0.950 . S
C303 C299 1.393 1_554 S
C303 C302 1.391 . S
H304 C312 0.950 . S
H305 C317 0.950 . S
H306 C314 0.950 . S
H307 C316 0.950 . S
H308 C318 0.950 . S
H309 C320 0.950 . S
H310 C322 0.950 . S
H311 C323 0.950 . S
C312 H304 0.950 . S
C312 C313 1.386 1_556 S
C312 C314 1.391 . S
C313 C312 1.386 1_554 S
C313 C317 1.393 . S
C314 H306 0.950 . S
C314 C312 1.391 . S
C314 C315 1.400 1_556 S
C315 C314 1.400 1_554 S
C315 C316 1.398 . S
C315 C321 1.491 . S
C316 H307 0.950 . S
C316 C315 1.398 . S
C316 C317 1.391 . S
C317 H305 0.950 . S
C317 C313 1.393 . S
C317 C316 1.391 . S
C318 H308 0.950 . S
C318 C319 1.386 1_554 S
C318 C320 1.391 . S
C319 C318 1.386 1_556 S
C319 C323 1.392 . S
C320 H309 0.950 . S
C320 C318 1.391 . S
C320 C321 1.400 . S
C321 C315 1.491 . S
C321 C320 1.400 . S
C321 C322 1.398 1_554 S
C322 H310 0.950 . S
C322 C321 1.398 1_556 S
C322 C323 1.391 . S
C323 H311 0.950 . S
C323 C319 1.392 . S
C323 C322 1.391 . S
H324 C332 0.950 . S
H325 C337 0.950 . S
H326 C334 0.950 . S
H327 C336 0.950 . S
H328 C338 0.952 . S
H329 C340 0.950 1_556 S
H330 C342 0.950 . S
H331 C343 0.950 . S
C332 H324 0.950 . S
C332 C333 1.386 1_554 S
C332 C334 1.391 . S
C333 C332 1.386 1_556 S
C333 C337 1.393 . S
C334 H326 0.950 . S
C334 C332 1.391 . S
C334 C335 1.400 . S
C335 C334 1.400 . S
C335 C336 1.398 1_554 S
C335 C341 1.491 . S
C336 H327 0.950 . S
C336 C335 1.398 1_556 S
C336 C337 1.391 . S
C337 H325 0.950 . S
C337 C333 1.393 . S
C337 C336 1.391 . S
C338 H328 0.952 . S
C338 C339 1.386 . S
C338 C340 1.391 . S
C339 C338 1.386 . S
C339 C343 1.393 . S
C340 H329 0.950 1_554 S
C340 C338 1.391 . S
C340 C341 1.400 . S
C341 C335 1.491 . S
C341 C340 1.400 . S
C341 C342 1.398 . S
C342 H330 0.950 . S
C342 C341 1.398 . S
C342 C343 1.391 . S
C343 H331 0.950 . S
C343 C339 1.393 . S
C343 C342 1.391 . S
H344 C352 0.950 . S
H345 C357 0.950 . S
H346 C354 0.950 . S
H347 C356 0.950 . S
H348 C358 0.950 . S
H349 C360 0.950 . S
H350 C362 0.950 . S
H351 C363 0.950 . S
C352 H344 0.950 . S
C352 C353 1.386 . S
C352 C354 1.391 1_455 S
C353 C352 1.386 . S
C353 C357 1.393 . S
C354 H346 0.950 . S
C354 C352 1.391 1_655 S
C354 C355 1.400 . S
C355 C354 1.400 . S
C355 C356 1.398 . S
C355 C361 1.491 . S
C356 H347 0.950 . S
C356 C355 1.398 . S
C356 C357 1.391 1_655 S
C357 H345 0.950 . S
C357 C353 1.393 . S
C357 C356 1.391 1_455 S
C358 H348 0.950 . S
C358 C359 1.386 . S
C358 C360 1.391 . S
C359 C358 1.386 . S
C359 C363 1.393 . S
C360 H349 0.950 . S
C360 C358 1.391 . S
C360 C361 1.400 . S
C361 C355 1.491 . S
C361 C360 1.400 . S
C361 C362 1.398 . S
C362 H350 0.950 . S
C362 C361 1.398 . S
C362 C363 1.391 . S
C363 H351 0.950 . S
C363 C359 1.393 . S
C363 C362 1.391 . S
H364 C372 0.950 . S
H365 C377 0.950 . S
H366 C374 0.950 . S
H367 C376 0.950 . S
H368 C378 0.950 . S
H369 C380 0.950 . S
H370 C382 0.950 . S
H371 C383 0.950 . S
C372 H364 0.950 . S
C372 C373 1.386 . S
C372 C374 1.391 1_545 S
C373 C372 1.386 . S
C373 C377 1.393 . S
C374 H366 0.950 . S
C374 C372 1.391 1_565 S
C374 C375 1.400 . S
C375 C374 1.400 . S
C375 C376 1.398 . S
C375 C381 1.491 . S
C376 H367 0.950 . S
C376 C375 1.398 . S
C376 C377 1.391 1_565 S
C377 H365 0.950 . S
C377 C373 1.393 . S
C377 C376 1.391 1_545 S
C378 H368 0.950 . S
C378 C379 1.386 . S
C378 C380 1.391 . S
C379 C378 1.386 . S
C379 C383 1.393 . S
C380 H369 0.950 . S
C380 C378 1.391 . S
C380 C381 1.400 . S
C381 C375 1.491 . S
C381 C380 1.400 . S
C381 C382 1.398 . S
C382 H370 0.950 . S
C382 C381 1.398 . S
C382 C383 1.391 . S
C383 H371 0.950 . S
C383 C379 1.393 . S
C383 C382 1.391 . S
H384 C392 0.950 . S
H385 C397 0.950 . S
H386 C394 0.950 . S
H387 C396 0.950 . S
H388 C398 0.950 . S
H389 C400 0.950 . S
H390 C402 0.950 . S
H391 C403 0.950 . S
C392 H384 0.950 . S
C392 C393 1.386 . S
C392 C394 1.391 . S
C393 C392 1.386 . S
C393 C397 1.393 . S
C394 H386 0.950 . S
C394 C392 1.391 . S
C394 C395 1.400 . S
C395 C394 1.400 . S
C395 C396 1.398 . S
C395 C401 1.491 . S
C396 H387 0.950 . S
C396 C395 1.398 . S
C396 C397 1.391 . S
C397 H385 0.950 . S
C397 C393 1.393 . S
C397 C396 1.391 . S
C398 H388 0.950 . S
C398 C399 1.386 . S
C398 C400 1.391 1_655 S
C399 C398 1.386 . S
C399 C403 1.393 . S
C400 H389 0.950 . S
C400 C398 1.391 1_455 S
C400 C401 1.400 . S
C401 C395 1.491 . S
C401 C400 1.400 . S
C401 C402 1.398 . S
C402 H390 0.950 . S
C402 C401 1.398 . S
C402 C403 1.391 1_455 S
C403 H391 0.950 . S
C403 C399 1.393 . S
C403 C402 1.391 1_655 S
H404 C412 0.950 . S
H405 C417 0.950 . S
H406 C414 0.950 . S
H407 C416 0.950 . S
H408 C418 0.950 . S
H409 C420 0.950 . S
H410 C422 0.950 . S
H411 C423 0.950 . S
C412 H404 0.950 . S
C412 C413 1.386 . S
C412 C414 1.391 . S
C413 C412 1.386 . S
C413 C417 1.393 . S
C414 H406 0.950 . S
C414 C412 1.391 . S
C414 C415 1.400 . S
C415 C414 1.400 . S
C415 C416 1.398 . S
C415 C421 1.491 . S
C416 H407 0.950 . S
C416 C415 1.398 . S
C416 C417 1.391 . S
C417 H405 0.950 . S
C417 C413 1.393 . S
C417 C416 1.391 . S
C418 H408 0.950 . S
C418 C419 1.386 . S
C418 C420 1.391 1_565 S
C419 C418 1.386 . S
C419 C423 1.393 . S
C420 H409 0.950 . S
C420 C418 1.391 1_545 S
C420 C421 1.400 . S
C421 C415 1.491 . S
C421 C420 1.400 . S
C421 C422 1.398 . S
C422 H410 0.950 . S
C422 C421 1.398 . S
C422 C423 1.391 1_545 S
C423 H411 0.950 . S
C423 C419 1.393 . S
C423 C422 1.391 1_565 S
H424 C432 0.950 . S
H425 C437 0.950 . S
H426 C434 0.950 . S
H427 C436 0.950 . S
H428 C438 0.950 . S
H429 C440 0.950 . S
H430 C442 0.950 . S
H431 C443 0.950 . S
C432 H424 0.950 . S
C432 C433 1.386 . S
C432 C434 1.391 . S
C433 C432 1.386 . S
C433 C437 1.393 . S
C434 H426 0.950 . S
C434 C432 1.391 . S
C434 C435 1.400 . S
C435 C434 1.400 . S
C435 C436 1.398 . S
C435 C441 1.491 . S
C436 H427 0.950 . S
C436 C435 1.398 . S
C436 C437 1.391 . S
C437 H425 0.950 . S
C437 C433 1.393 . S
C437 C436 1.391 . S
C438 H428 0.950 . S
C438 C439 1.386 . S
C438 C440 1.391 . S
C439 C438 1.386 . S
C439 C443 1.393 . S
C440 H429 0.950 . S
C440 C438 1.391 . S
C440 C441 1.400 . S
C441 C435 1.491 . S
C441 C440 1.400 . S
C441 C442 1.398 . S
C442 H430 0.950 . S
C442 C441 1.398 . S
C442 C443 1.391 . S
C443 H431 0.950 . S
C443 C439 1.393 . S
C443 C442 1.391 . S
H444 C452 0.950 . S
H445 C457 0.950 . S
H446 C454 0.950 . S
H447 C456 0.950 . S
H448 C458 0.950 . S
H449 C460 0.950 . S
H450 C462 0.950 . S
H451 C463 0.950 . S
C452 H444 0.950 . S
C452 C453 1.386 . S
C452 C454 1.391 . S
C453 C452 1.386 . S
C453 C457 1.393 . S
C454 H446 0.950 . S
C454 C452 1.391 . S
C454 C455 1.400 . S
C455 C454 1.400 . S
C455 C456 1.398 . S
C455 C461 1.491 . S
C456 H447 0.950 . S
C456 C455 1.398 . S
C456 C457 1.391 . S
C457 H445 0.950 . S
C457 C453 1.393 . S
C457 C456 1.391 . S
C458 H448 0.950 . S
C458 C459 1.386 . S
C458 C460 1.391 . S
C459 C458 1.386 . S
C459 C463 1.393 . S
C460 H449 0.950 . S
C460 C458 1.391 . S
C460 C461 1.400 . S
C461 C455 1.491 . S
C461 C460 1.400 . S
C461 C462 1.398 . S
C462 H450 0.950 . S
C462 C461 1.398 . S
C462 C463 1.391 . S
C463 H451 0.950 . S
C463 C459 1.393 . S
C463 C462 1.391 . S
H464 C472 0.950 . S
H465 C477 0.950 . S
H466 C474 0.950 . S
H467 C476 0.950 . S
H468 C478 0.950 . S
H469 C480 0.950 . S
H470 C482 0.950 . S
H471 C483 0.950 . S
C472 H464 0.950 . S
C472 C473 1.386 . S
C472 C474 1.391 . S
C473 C472 1.386 . S
C473 C477 1.393 . S
C474 H466 0.950 . S
C474 C472 1.391 . S
C474 C475 1.400 . S
C475 C474 1.400 . S
C475 C476 1.398 . S
C475 C481 1.491 . S
C476 H467 0.950 . S
C476 C475 1.398 . S
C476 C477 1.391 . S
C477 H465 0.950 . S
C477 C473 1.393 . S
C477 C476 1.391 . S
C478 H468 0.950 . S
C478 C479 1.386 . S
C478 C480 1.391 . S
C479 C478 1.386 . S
C479 C483 1.393 . S
C480 H469 0.950 . S
C480 C478 1.391 . S
C480 C481 1.400 . S
C481 C475 1.491 . S
C481 C480 1.400 . S
C481 C482 1.398 . S
C482 H470 0.950 . S
C482 C481 1.398 . S
C482 C483 1.391 . S
C483 H471 0.950 . S
C483 C479 1.393 . S
C483 C482 1.391 . S
H484 C492 0.950 . S
H485 C497 0.950 . S
H486 C494 0.950 . S
H487 C496 0.950 . S
H488 C498 0.950 . S
H489 C500 0.950 . S
H490 C502 0.950 . S
H491 C503 0.950 . S
C492 H484 0.950 . S
C492 C493 1.386 . S
C492 C494 1.391 . S
C493 C492 1.386 . S
C493 C497 1.393 . S
C494 H486 0.950 . S
C494 C492 1.391 . S
C494 C495 1.400 . S
C495 C494 1.400 . S
C495 C496 1.398 . S
C495 C501 1.491 . S
C496 H487 0.950 . S
C496 C495 1.398 . S
C496 C497 1.391 . S
C497 H485 0.950 . S
C497 C493 1.393 . S
C497 C496 1.391 . S
C498 H488 0.950 . S
C498 C499 1.386 . S
C498 C500 1.391 . S
C499 C498 1.386 . S
C499 C503 1.393 . S
C500 H489 0.950 . S
C500 C498 1.391 . S
C500 C501 1.400 . S
C501 C495 1.491 . S
C501 C500 1.400 . S
C501 C502 1.398 . S
C502 H490 0.950 . S
C502 C501 1.398 . S
C502 C503 1.391 . S
C503 H491 0.950 . S
C503 C499 1.393 . S
C503 C502 1.391 . S
H504 C512 0.950 . S
H505 C517 0.950 . S
H506 C514 0.950 . S
H507 C516 0.950 . S
H508 C518 0.950 . S
H509 C520 0.950 . S
H510 C522 0.950 . S
H511 C523 0.950 . S
C512 H504 0.950 . S
C512 C513 1.386 . S
C512 C514 1.391 . S
C513 C512 1.386 . S
C513 C517 1.393 . S
C514 H506 0.950 . S
C514 C512 1.391 . S
C514 C515 1.400 . S
C515 C514 1.400 . S
C515 C516 1.398 . S
C515 C521 1.491 . S
C516 H507 0.950 . S
C516 C515 1.398 . S
C516 C517 1.391 . S
C517 H505 0.950 . S
C517 C513 1.393 . S
C517 C516 1.391 . S
C518 H508 0.950 . S
C518 C519 1.386 . S
C518 C520 1.391 . S
C519 C518 1.386 . S
C519 C523 1.393 . S
C520 H509 0.950 . S
C520 C518 1.391 . S
C520 C521 1.400 . S
C521 C515 1.491 . S
C521 C520 1.400 . S
C521 C522 1.398 . S
C522 H510 0.950 . S
C522 C521 1.398 . S
C522 C523 1.391 . S
C523 H511 0.950 . S
C523 C519 1.393 . S
C523 C522 1.391 . S
H524 C532 0.950 . S
H525 C537 0.950 . S
H526 C534 0.950 . S
H527 C536 0.950 . S
H528 C538 0.950 . S
H529 C540 0.950 . S
H530 C542 0.950 . S
H531 C543 0.950 . S
C532 H524 0.950 . S
C532 C533 1.386 . S
C532 C534 1.391 . S
C533 C532 1.386 . S
C533 C537 1.393 . S
C534 H526 0.950 . S
C534 C532 1.391 . S
C534 C535 1.400 . S
C535 C534 1.400 . S
C535 C536 1.398 . S
C535 C541 1.491 . S
C536 H527 0.950 . S
C536 C535 1.398 . S
C536 C537 1.391 . S
C537 H525 0.950 . S
C537 C533 1.393 . S
C537 C536 1.391 . S
C538 H528 0.950 . S
C538 C539 1.386 . S
C538 C540 1.391 . S
C539 C538 1.386 . S
C539 C543 1.393 . S
C540 H529 0.950 . S
C540 C538 1.391 . S
C540 C541 1.400 . S
C541 C535 1.491 . S
C541 C540 1.400 . S
C541 C542 1.398 . S
C542 H530 0.950 . S
C542 C541 1.398 . S
C542 C543 1.391 . S
C543 H531 0.950 . S
C543 C539 1.393 . S
C543 C542 1.391 . S
H544 C552 0.950 . S
H545 C557 0.950 . S
H546 C554 0.950 . S
H547 C556 0.950 . S
H548 C558 0.950 . S
H549 C560 0.950 . S
H550 C562 0.950 . S
H551 C563 0.950 . S
C552 H544 0.950 . S
C552 C553 1.386 . S
C552 C554 1.391 . S
C553 C552 1.386 . S
C553 C557 1.393 . S
C554 H546 0.950 . S
C554 C552 1.391 . S
C554 C555 1.400 . S
C555 C554 1.400 . S
C555 C556 1.398 . S
C555 C561 1.491 . S
C556 H547 0.950 . S
C556 C555 1.398 . S
C556 C557 1.391 . S
C557 H545 0.950 . S
C557 C553 1.393 . S
C557 C556 1.391 . S
C558 H548 0.950 . S
C558 C559 1.386 . S
C558 C560 1.391 . S
C559 C558 1.386 . S
C559 C563 1.393 . S
C560 H549 0.950 . S
C560 C558 1.391 . S
C560 C561 1.400 . S
C561 C555 1.491 . S
C561 C560 1.400 . S
C561 C562 1.398 . S
C562 H550 0.950 . S
C562 C561 1.398 . S
C562 C563 1.391 . S
C563 H551 0.950 . S
C563 C559 1.393 . S
C563 C562 1.391 . S
H564 C572 0.950 . S
H565 C577 0.950 . S
H566 C574 0.950 . S
H567 C576 0.950 . S
H568 C578 0.950 . S
H569 C580 0.950 . S
H570 C582 0.950 . S
H571 C583 0.950 . S
C572 H564 0.950 . S
C572 C573 1.386 . S
C572 C574 1.391 . S
C573 C572 1.386 . S
C573 C577 1.393 . S
C574 H566 0.950 . S
C574 C572 1.391 . S
C574 C575 1.400 . S
C575 C574 1.400 . S
C575 C576 1.398 . S
C575 C581 1.491 . S
C576 H567 0.950 . S
C576 C575 1.398 . S
C576 C577 1.391 . S
C577 H565 0.950 . S
C577 C573 1.393 . S
C577 C576 1.391 . S
C578 H568 0.950 . S
C578 C579 1.386 . S
C578 C580 1.391 . S
C579 C578 1.386 . S
C579 C583 1.393 . S
C580 H569 0.950 . S
C580 C578 1.391 . S
C580 C581 1.400 . S
C581 C575 1.491 . S
C581 C580 1.400 . S
C581 C582 1.398 . S
C582 H570 0.950 . S
C582 C581 1.398 . S
C582 C583 1.391 . S
C583 H571 0.950 . S
C583 C579 1.393 . S
C583 C582 1.391 . S
H584 C592 0.950 . S
H585 C597 0.950 . S
H586 C594 0.950 . S
H587 C596 0.950 1_455 S
H588 C598 0.950 . S
H589 C600 0.950 . S
H590 C602 0.950 1_655 S
H591 C603 0.950 . S
C592 H584 0.950 . S
C592 C593 1.386 . S
C592 C594 1.391 . S
C593 C592 1.386 . S
C593 C597 1.393 . S
C594 H586 0.950 . S
C594 C592 1.391 . S
C594 C595 1.400 . S
C595 C594 1.400 . S
C595 C596 1.398 . S
C595 C601 1.491 1_655 S
C596 H587 0.950 1_655 S
C596 C595 1.398 . S
C596 C597 1.391 . S
C597 H585 0.950 . S
C597 C593 1.393 . S
C597 C596 1.391 . S
C598 H588 0.950 . S
C598 C599 1.386 . S
C598 C600 1.391 . S
C599 C598 1.386 . S
C599 C603 1.393 . S
C600 H589 0.950 . S
C600 C598 1.391 . S
C600 C601 1.400 . S
C601 C595 1.491 1_455 S
C601 C600 1.400 . S
C601 C602 1.398 . S
C602 H590 0.950 1_455 S
C602 C601 1.398 . S
C602 C603 1.391 . S
C603 H591 0.950 . S
C603 C599 1.393 . S
C603 C602 1.391 . S
H604 C612 0.950 . S
H605 C617 0.950 . S
H606 C614 0.950 . S
H607 C616 0.950 . S
H608 C618 0.950 . S
H609 C620 0.950 . S
H610 C622 0.950 . S
H611 C623 0.950 . S
C612 H604 0.950 . S
C612 C613 1.386 1_556 S
C612 C614 1.391 . S
C613 C612 1.386 1_554 S
C613 C617 1.393 . S
C614 H606 0.950 . S
C614 C612 1.391 . S
C614 C615 1.400 1_556 S
C615 C614 1.400 1_554 S
C615 C616 1.398 . S
C615 C621 1.491 1_545 S
C616 H607 0.950 . S
C616 C615 1.398 . S
C616 C617 1.391 . S
C617 H605 0.950 . S
C617 C613 1.393 . S
C617 C616 1.391 . S
C618 H608 0.950 . S
C618 C619 1.386 . S
C618 C620 1.391 . S
C619 C618 1.386 . S
C619 C623 1.393 1_554 S
C620 H609 0.950 . S
C620 C618 1.391 . S
C620 C621 1.400 . S
C621 C615 1.491 1_565 S
C621 C620 1.400 . S
C621 C622 1.398 1_554 S
C622 H610 0.950 . S
C622 C621 1.398 1_556 S
C622 C623 1.391 . S
C623 H611 0.950 . S
C623 C619 1.393 1_556 S
C623 C622 1.391 . S
H624 C632 0.950 . S
H625 C637 0.950 . S
H626 C634 0.950 . S
H627 C636 0.950 1_565 S
H628 C638 0.950 . S
H629 C640 0.950 . S
H630 C642 0.950 1_545 S
H631 C643 0.950 . S
C632 H624 0.950 . S
C632 C633 1.386 . S
C632 C634 1.391 . S
C633 C632 1.386 . S
C633 C637 1.393 . S
C634 H626 0.950 . S
C634 C632 1.391 . S
C634 C635 1.400 . S
C635 C634 1.400 . S
C635 C636 1.398 . S
C635 C641 1.491 1_545 S
C636 H627 0.950 1_545 S
C636 C635 1.398 . S
C636 C637 1.391 . S
C637 H625 0.950 . S
C637 C633 1.393 . S
C637 C636 1.391 . S
C638 H628 0.950 . S
C638 C639 1.386 . S
C638 C640 1.391 . S
C639 C638 1.386 . S
C639 C643 1.393 . S
C640 H629 0.950 . S
C640 C638 1.391 . S
C640 C641 1.400 . S
C641 C635 1.491 1_565 S
C641 C640 1.400 . S
C641 C642 1.398 . S
C642 H630 0.950 1_565 S
C642 C641 1.398 . S
C642 C643 1.391 . S
C643 H631 0.950 . S
C643 C639 1.393 . S
C643 C642 1.391 . S
H644 C652 0.950 . S
H645 C657 0.950 . S
H646 C654 0.950 1_655 S
H647 C656 0.950 . S
H648 C658 0.950 . S
H649 C660 0.950 1_455 S
H650 C662 0.950 . S
H651 C663 0.950 . S
C652 H644 0.950 . S
C652 C653 1.386 . S
C652 C654 1.391 . S
C653 C652 1.386 . S
C653 C657 1.393 . S
C654 H646 0.950 1_455 S
C654 C652 1.391 . S
C654 C655 1.400 . S
C655 C654 1.400 . S
C655 C656 1.398 . S
C655 C661 1.491 1_455 S
C656 H647 0.950 . S
C656 C655 1.398 . S
C656 C657 1.391 . S
C657 H645 0.950 . S
C657 C653 1.393 . S
C657 C656 1.391 . S
C658 H648 0.950 . S
C658 C659 1.386 . S
C658 C660 1.391 . S
C659 C658 1.386 . S
C659 C663 1.393 . S
C660 H649 0.950 1_655 S
C660 C658 1.391 . S
C660 C661 1.400 . S
C661 C655 1.491 1_655 S
C661 C660 1.400 . S
C661 C662 1.398 . S
C662 H650 0.950 . S
C662 C661 1.398 . S
C662 C663 1.391 . S
C663 H651 0.950 . S
C663 C659 1.393 . S
C663 C662 1.391 . S
C273 C51 0.741 . S
C279 N2 0.728 . S
C293 N35 0.754 . S
C299 C84 0.737 . S
C313 N68 0.712 . S
C319 C117 0.738 . S
C333 C18 0.737 . S
C339 N101 0.752 . S
C353 C183 0.733 . S
C359 N134 0.758 . S
C373 C216 0.726 . S
C379 N167 0.745 . S
C393 N200 0.753 . S
C399 C249 0.736 . S
C413 N233 0.757 . S
C419 C150 0.734 . S
C433 C219 1.523 . S
C439 C7 1.510 . S
C453 C40 1.510 . S
C459 C252 1.519 . S
C473 C73 1.494 . S
C479 C153 1.506 . S
C493 C106 1.511 . S
C499 C186 1.520 . S
C513 C139 1.491 . S
C519 C87 1.506 . S
C533 C172 1.505 . S
C539 C120 1.521 . S
C553 C205 1.492 . S
C559 C21 1.507 . S
C573 C54 1.515 . S
C579 C238 1.504 . S
C593 N79 2.223 . S
C599 N13 2.217 . S
C613 N46 2.219 . S
C619 N112 2.216 . S
C633 N211 2.221 . S
C639 N145 2.224 . S
C653 N178 2.220 . S
C659 N244 2.216 . S
