# Generated by pormake.
# Topology xfe, (7)-cn, num edge types: 1
# Building blocks:
#     Node 0, Type 0, BuildingBlock: NUHQUE_clean_sbu_2, # of connection points: 7
#     Node 1, Type 0, BuildingBlock: NUHQUE_clean_sbu_2, # of connection points: 7
#     Node 2, Type 0, BuildingBlock: NUHQUE_clean_sbu_2, # of connection points: 7
#     Node 3, Type 0, BuildingBlock: NUHQUE_clean_sbu_2, # of connection points: 7
#     Node 4, Type 0, BuildingBlock: NUHQUE_clean_sbu_2, # of connection points: 7
#     Node 5, Type 0, BuildingBlock: NUHQUE_clean_sbu_2, # of connection points: 7
#     Node 6, Type 0, BuildingBlock: NUHQUE_clean_sbu_2, # of connection points: 7
#     Node 7, Type 0, BuildingBlock: NUHQUE_clean_sbu_2, # of connection points: 7
#     Node 8, Type 0, BuildingBlock: NUHQUE_clean_sbu_2, # of connection points: 7
#     Node 9, Type 0, BuildingBlock: NUHQUE_clean_sbu_2, # of connection points: 7
#     Node 10, Type 0, BuildingBlock: NUHQUE_clean_sbu_2, # of connection points: 7
#     Node 11, Type 0, BuildingBlock: NUHQUE_clean_sbu_2, # of connection points: 7
#     Node 12, Type 0, BuildingBlock: NUHQUE_clean_sbu_2, # of connection points: 7
#     Node 13, Type 0, BuildingBlock: NUHQUE_clean_sbu_2, # of connection points: 7
#     Node 14, Type 0, BuildingBlock: NUHQUE_clean_sbu_2, # of connection points: 7
#     Node 15, Type 0, BuildingBlock: NUHQUE_clean_sbu_2, # of connection points: 7
#     Edge 16, Type (0, 0), BuildingBlock: AJUNOK_clean_linker_0, # of connection points: 2
#     Edge 17, Type (0, 0), BuildingBlock: AJUNOK_clean_linker_0, # of connection points: 2
#     Edge 18, Type (0, 0), BuildingBlock: AJUNOK_clean_linker_0, # of connection points: 2
#     Edge 19, Type (0, 0), BuildingBlock: AJUNOK_clean_linker_0, # of connection points: 2
#     Edge 20, Type (0, 0), BuildingBlock: AJUNOK_clean_linker_0, # of connection points: 2
#     Edge 21, Type (0, 0), BuildingBlock: AJUNOK_clean_linker_0, # of connection points: 2
#     Edge 22, Type (0, 0), BuildingBlock: AJUNOK_clean_linker_0, # of connection points: 2
#     Edge 23, Type (0, 0), BuildingBlock: AJUNOK_clean_linker_0, # of connection points: 2
#     Edge 24, Type (0, 0), BuildingBlock: AJUNOK_clean_linker_0, # of connection points: 2
#     Edge 25, Type (0, 0), BuildingBlock: AJUNOK_clean_linker_0, # of connection points: 2
#     Edge 26, Type (0, 0), BuildingBlock: AJUNOK_clean_linker_0, # of connection points: 2
#     Edge 27, Type (0, 0), BuildingBlock: AJUNOK_clean_linker_0, # of connection points: 2
#     Edge 28, Type (0, 0), BuildingBlock: AJUNOK_clean_linker_0, # of connection points: 2
#     Edge 29, Type (0, 0), BuildingBlock: AJUNOK_clean_linker_0, # of connection points: 2
#     Edge 30, Type (0, 0), BuildingBlock: AJUNOK_clean_linker_0, # of connection points: 2
#     Edge 31, Type (0, 0), BuildingBlock: AJUNOK_clean_linker_0, # of connection points: 2
#     Edge 32, Type (0, 0), BuildingBlock: AJUNOK_clean_linker_0, # of connection points: 2
#     Edge 33, Type (0, 0), BuildingBlock: AJUNOK_clean_linker_0, # of connection points: 2
#     Edge 34, Type (0, 0), BuildingBlock: AJUNOK_clean_linker_0, # of connection points: 2
#     Edge 35, Type (0, 0), BuildingBlock: AJUNOK_clean_linker_0, # of connection points: 2
#     Edge 36, Type (0, 0), BuildingBlock: AJUNOK_clean_linker_0, # of connection points: 2
#     Edge 37, Type (0, 0), BuildingBlock: AJUNOK_clean_linker_0, # of connection points: 2
#     Edge 38, Type (0, 0), BuildingBlock: AJUNOK_clean_linker_0, # of connection points: 2
#     Edge 39, Type (0, 0), BuildingBlock: AJUNOK_clean_linker_0, # of connection points: 2
#     Edge 40, Type (0, 0), BuildingBlock: AJUNOK_clean_linker_0, # of connection points: 2
#     Edge 41, Type (0, 0), BuildingBlock: AJUNOK_clean_linker_0, # of connection points: 2
#     Edge 42, Type (0, 0), BuildingBlock: AJUNOK_clean_linker_0, # of connection points: 2
#     Edge 43, Type (0, 0), BuildingBlock: AJUNOK_clean_linker_0, # of connection points: 2
#     Edge 44, Type (0, 0), BuildingBlock: AJUNOK_clean_linker_0, # of connection points: 2
#     Edge 45, Type (0, 0), BuildingBlock: AJUNOK_clean_linker_0, # of connection points: 2
#     Edge 46, Type (0, 0), BuildingBlock: AJUNOK_clean_linker_0, # of connection points: 2
#     Edge 47, Type (0, 0), BuildingBlock: AJUNOK_clean_linker_0, # of connection points: 2
#     Edge 48, Type (0, 0), BuildingBlock: AJUNOK_clean_linker_0, # of connection points: 2
#     Edge 49, Type (0, 0), BuildingBlock: AJUNOK_clean_linker_0, # of connection points: 2
#     Edge 50, Type (0, 0), BuildingBlock: AJUNOK_clean_linker_0, # of connection points: 2
#     Edge 51, Type (0, 0), BuildingBlock: AJUNOK_clean_linker_0, # of connection points: 2
#     Edge 52, Type (0, 0), BuildingBlock: AJUNOK_clean_linker_0, # of connection points: 2
#     Edge 53, Type (0, 0), BuildingBlock: AJUNOK_clean_linker_0, # of connection points: 2
#     Edge 54, Type (0, 0), BuildingBlock: AJUNOK_clean_linker_0, # of connection points: 2
#     Edge 55, Type (0, 0), BuildingBlock: AJUNOK_clean_linker_0, # of connection points: 2
#     Edge 56, Type (0, 0), BuildingBlock: AJUNOK_clean_linker_0, # of connection points: 2
#     Edge 57, Type (0, 0), BuildingBlock: AJUNOK_clean_linker_0, # of connection points: 2
#     Edge 58, Type (0, 0), BuildingBlock: AJUNOK_clean_linker_0, # of connection points: 2
#     Edge 59, Type (0, 0), BuildingBlock: AJUNOK_clean_linker_0, # of connection points: 2
#     Edge 60, Type (0, 0), BuildingBlock: AJUNOK_clean_linker_0, # of connection points: 2
#     Edge 61, Type (0, 0), BuildingBlock: AJUNOK_clean_linker_0, # of connection points: 2
#     Edge 62, Type (0, 0), BuildingBlock: AJUNOK_clean_linker_0, # of connection points: 2
#     Edge 63, Type (0, 0), BuildingBlock: AJUNOK_clean_linker_0, # of connection points: 2
#     Edge 64, Type (0, 0), BuildingBlock: AJUNOK_clean_linker_0, # of connection points: 2
#     Edge 65, Type (0, 0), BuildingBlock: AJUNOK_clean_linker_0, # of connection points: 2
#     Edge 66, Type (0, 0), BuildingBlock: AJUNOK_clean_linker_0, # of connection points: 2
#     Edge 67, Type (0, 0), BuildingBlock: AJUNOK_clean_linker_0, # of connection points: 2
#     Edge 68, Type (0, 0), BuildingBlock: AJUNOK_clean_linker_0, # of connection points: 2
#     Edge 69, Type (0, 0), BuildingBlock: AJUNOK_clean_linker_0, # of connection points: 2
#     Edge 70, Type (0, 0), BuildingBlock: AJUNOK_clean_linker_0, # of connection points: 2
#     Edge 71, Type (0, 0), BuildingBlock: AJUNOK_clean_linker_0, # of connection points: 2
# Relax obj value: 0.238
# Max RMSD: 0.242
# Mean RMSD: 0.242
data_MOF--net-xfe--node1-NUHQUE_clean_sbu_2--edge1-AJUNOK_clean_linker_0
_symmetry_space_group_name_H-M    P1
_symmetry_Int_Tables_number       1
_symmetry_cell_setting            triclinic
loop_
_symmetry_equiv_pos_as_xyz
'x, y, z'
_cell_length_a     29.603551
_cell_length_b     29.483393
_cell_length_c     41.775405
_cell_angle_alpha  90.069863
_cell_angle_beta   90.20252
_cell_angle_gamma 89.705357
loop_
_atom_site_label
_atom_site_type_symbol
_atom_site_fract_x
_atom_site_fract_y
_atom_site_fract_z
_atom_type_partial_charge
O0 O 0.07336 0.13142 0.04484 0.0
Tb1 Tb 1.01742 0.12203 0.07879 0.0
Eu2 Eu 1.02062 0.1055 0.16739 0.0
C3 C 0.11135 0.15166 0.05321 0.0
O4 O 0.11994 0.15816 0.08371 0.0
C5 C 0.04462 0.20111 0.13192 0.0
O6 O 0.98454 0.10493 0.21433 0.0
C7 C 0.09269 0.05905 0.17979 0.0
C8 C 0.94541 0.08478 0.21682 0.0
O9 O 0.91744 0.0859 0.19245 0.0
C10 C 0.96952 0.04372 0.11518 0.0
C11 C 0.12369 1.02035 0.18482 0.0
C12 C 0.15431 1.01374 0.16017 0.0
C13 C 0.18553 0.97902 0.16145 0.0
C14 C 0.18882 0.9514 0.18812 0.0
C15 C 0.16093 0.95845 0.21465 0.0
C16 C 0.12704 0.99296 0.21289 0.0
O17 O 1.03651 0.18523 0.10285 0.0
O18 O 1.03951 0.17809 0.15868 0.0
O19 O 0.98323 0.12689 0.03271 0.0
O20 O 0.94821 0.14719 0.07487 0.0
C21 C 0.94547 0.14286 0.04388 0.0
O22 O 0.96497 0.06939 0.14066 0.0
O23 O 1.00238 0.05178 0.09444 0.0
O24 O 0.06605 0.07381 0.20254 0.0
O25 O 0.07887 0.06871 0.15043 0.0
H26 H 0.15315 1.03485 0.13886 0.0
H27 H 0.21251 0.92319 0.18767 0.0
H28 H 0.10458 0.9988 0.23289 0.0
O29 O 0.24202 0.7933 0.30491 0.0
Tb30 Tb 0.25032 0.73029 0.33278 0.0
Eu31 Eu 0.27018 0.73826 0.41673 0.0
C32 C 0.20689 0.82054 0.30911 0.0
O33 O 0.18099 0.81497 0.334 0.0
C34 C 0.17274 0.75477 0.3854 0.0
O35 O 0.26743 0.71025 0.46636 0.0
C36 C 0.32592 0.80342 0.42429 0.0
C37 C 0.28242 0.66916 0.47167 0.0
O38 O 0.27883 0.63905 0.44863 0.0
C39 C 0.32864 0.68033 0.36789 0.0
C40 C 0.35701 0.84125 0.42801 0.0
C41 C 0.34859 0.87959 0.40955 0.0
C42 C 0.37942 0.91507 0.40869 0.0
C43 C 0.41612 0.91392 0.43027 0.0
C44 C 0.42302 0.87759 0.45142 0.0
C45 C 0.39336 0.84047 0.4499 0.0
O46 O 0.18712 0.73245 0.35994 0.0
O47 O 0.19967 0.7652 0.40929 0.0
O48 O 0.2507 0.69972 0.28517 0.0
O49 O 0.22313 0.66272 0.32408 0.0
C50 C 0.23182 0.66193 0.29368 0.0
O51 O 0.30309 0.67723 0.39341 0.0
O52 O 0.31992 0.71202 0.34643 0.0
O53 O 0.31124 0.77989 0.4486 0.0
O54 O 0.31044 0.79161 0.3958 0.0
H55 H 0.31765 0.8811 0.39583 0.0
H56 H 0.44002 0.94143 0.43084 0.0
H57 H 0.39854 0.81141 0.46538 0.0
O58 O 0.58389 0.95971 0.54488 0.0
Tb59 Tb 0.63977 0.96636 0.57937 0.0
Eu60 Eu 0.63702 0.98085 0.66514 0.0
C61 C 0.54807 0.93456 0.55093 0.0
O62 O 0.53923 0.92376 0.58072 0.0
C63 C 0.61147 0.88595 0.63102 0.0
O64 O 0.66795 0.97923 0.71402 0.0
C65 C 0.56985 1.03419 0.67526 0.0
C66 C 0.70822 0.99614 0.71814 0.0
O67 O 0.73795 0.99047 0.69537 0.0
C68 C 0.69072 1.04212 0.61532 0.0
C69 C 0.53079 0.06397 0.68036 0.0
C70 C 0.49398 0.05802 0.66011 0.0
C71 C 0.4574 0.08717 0.66226 0.0
C72 C 0.45232 0.11439 0.68919 0.0
C73 C 0.48991 0.12503 0.70853 0.0
C74 C 0.52981 0.09861 0.70394 0.0
O75 O 0.62063 0.90358 0.60286 0.0
O76 O 0.61547 0.90839 0.65815 0.0
O77 O 0.6728 0.95782 0.53348 0.0
O78 O 0.70817 0.93874 0.57597 0.0
C79 C 0.70994 0.94056 0.54486 0.0
O80 O 0.69531 1.014 0.63953 0.0
O81 O 0.65741 1.03577 0.59459 0.0
O82 O 0.59552 1.01975 0.69874 0.0
O83 O 0.58085 1.01992 0.6463 0.0
H84 H 0.49653 1.03555 0.63958 0.0
H85 H 0.42061 0.13242 0.6915 0.0
H86 H 0.56041 0.10523 0.71719 0.0
O87 O 0.41735 0.29861 0.79619 0.0
Tb88 Tb 0.41045 0.35611 0.82914 0.0
Eu89 Eu 0.38888 0.34478 0.91543 0.0
C90 C 0.44504 0.26467 0.80277 0.0
O91 O 0.4591 0.25934 0.83226 0.0
C92 C 0.48787 0.32946 0.88289 0.0
O93 O 0.3881 0.37809 0.96316 0.0
C94 C 0.34732 0.27036 0.92824 0.0
C95 C 0.36842 0.41758 0.96626 0.0
O96 O 0.37063 0.44697 0.94275 0.0
C97 C 0.32606 0.39899 0.86423 0.0
C98 C 0.30659 0.24252 0.93177 0.0
C99 C 0.30436 0.20708 0.91014 0.0
C100 C 0.26568 0.18156 0.90684 0.0
C101 C 0.2307 0.18713 0.92922 0.0
C102 C 0.23564 0.21642 0.95546 0.0
C103 C 0.27338 0.24605 0.95615 0.0
O104 O 0.47414 0.34055 0.85383 0.0
O105 O 0.46249 0.32958 0.90864 0.0
O106 O 0.41743 0.3876 0.78238 0.0
O107 O 0.43429 0.4254 0.82418 0.0
C108 C 0.43211 0.4262 0.79306 0.0
O109 O 0.34662 0.39961 0.8921 0.0
O110 O 0.33937 0.37137 0.84105 0.0
O111 O 0.35847 0.2995 0.95049 0.0
O112 O 0.35907 0.2824 0.89893 0.0
H113 H 0.33369 0.19953 0.89564 0.0
H114 H 0.20044 0.16676 0.92741 0.0
H115 H 0.27733 0.27016 0.97552 0.0
O116 O 0.08071 0.95252 0.90604 0.0
Tb117 Tb 1.01431 0.95863 0.88226 0.0
Eu118 Eu 1.02415 0.98489 0.79739 0.0
C119 C 0.10123 0.91261 0.90734 0.0
O120 O 0.08322 0.87841 0.89203 0.0
C121 C 1.03992 0.88508 0.82772 0.0
O122 O 0.98722 0.9817 0.75071 0.0
C123 C 0.09651 1.02862 0.78491 0.0
C124 C 0.94724 1.00069 0.74891 0.0
O125 O 0.92095 0.99935 0.77409 0.0
C126 C 0.97011 0.04543 0.85011 0.0
C127 C 0.12687 0.06689 0.78109 0.0
C128 C 0.16566 0.06452 0.79982 0.0
C129 C 0.19532 0.10051 0.80107 0.0
C130 C 0.18704 0.13842 0.78161 0.0
C131 C 0.15185 0.13911 0.75922 0.0
C132 C 0.1206 0.10306 0.75927 0.0
O133 O 1.01662 0.89618 0.85346 0.0
O134 O 0.04783 0.9134 0.80432 0.0
O135 O 0.98714 0.94913 0.93062 0.0
O136 O 0.94537 0.93674 0.89016 0.0
C137 C 0.94697 0.93694 0.9212 0.0
O138 O 0.9703 1.02718 0.82151 0.0
O139 O 0.99658 1.03028 0.87333 0.0
O140 O 0.06662 1.01913 0.76271 0.0
O141 O 0.08558 1.01602 0.81419 0.0
H142 H 0.17192 1.03476 0.81447 0.0
H143 H 0.20871 0.16764 0.78322 0.0
H144 H 0.09242 0.10304 0.74266 0.0
O145 O 0.4184 0.78592 0.17026 0.0
Tb146 Tb 0.4111 0.73028 0.13538 0.0
Eu147 Eu 0.38898 0.7354 0.04914 0.0
C148 C 0.4447 0.82122 0.16477 0.0
O149 O 0.4582 0.8288 0.13541 0.0
C150 C 0.48683 0.76016 0.08212 0.0
O151 O 0.38922 0.6999 0.00145 0.0
C152 C 0.33373 0.80079 0.03712 0.0
C153 C 0.36925 0.66058 -0.0016 0.0
O154 O 0.36989 0.63277 0.02282 0.0
C155 C 0.32918 0.68407 0.10103 0.0
C156 C 0.3021 0.83825 0.03027 0.0
C157 C 0.29423 0.86942 0.05466 0.0
C158 C 0.26674 0.90701 0.04935 0.0
C159 C 0.24771 0.91435 0.0192 0.0
C160 C 0.25134 0.88176 -0.00494 0.0
C161 C 0.27964 0.84356 0.00042 0.0
O162 O 0.4746 0.74559 0.11067 0.0
O163 O 0.46002 0.76157 0.05682 0.0
O164 O 0.4232 0.69612 0.18086 0.0
O165 O 0.43003 0.65882 0.13738 0.0
C166 C 0.4329 0.65692 0.16843 0.0
O167 O 0.35543 0.67806 0.07604 0.0
O168 O 0.33973 0.71582 0.12234 0.0
O169 O 0.35291 0.77721 0.01428 0.0
O170 O 0.34506 0.78917 0.06662 0.0
H171 H 0.30791 0.86329 0.07838 0.0
H172 H 0.22543 0.94331 0.01589 0.0
H173 H 0.28343 0.81803 0.98194 0.0
O174 O 0.58062 0.13021 0.41525 0.0
Tb175 Tb 0.6386 0.12171 0.38325 0.0
Eu176 Eu 0.63192 0.10232 0.29827 0.0
C177 C 0.54186 0.14685 0.40474 0.0
O178 O 0.53463 0.1495 0.3738 0.0
C179 C 0.61185 0.20038 0.33072 0.0
O180 O 0.66182 0.10209 0.2495 0.0
C181 C 0.559 0.05674 0.29005 0.0
C182 C 0.70376 0.08914 0.24612 0.0
O183 O 0.73175 0.09541 0.27016 0.0
C184 C 0.68505 1.03991 0.34819 0.0
C185 C 0.52856 1.01784 0.28765 0.0
C186 C 0.49007 1.02166 0.30644 0.0
C187 C 0.45826 0.98749 0.30705 0.0
C188 C 0.46548 0.94866 0.28811 0.0
C189 C 0.50086 0.94563 0.26603 0.0
C190 C 0.53339 0.98083 0.26606 0.0
O191 O 0.61859 0.18509 0.35998 0.0
O192 O 0.61706 0.17645 0.3044 0.0
O193 O 0.67021 0.13116 0.42975 0.0
O194 O 0.70877 0.14298 0.38737 0.0
C195 C 0.70923 0.14299 0.41852 0.0
O196 O 0.68846 0.0634 0.32173 0.0
O197 O 0.65456 0.05076 0.37014 0.0
O198 O 0.58632 0.06628 0.26644 0.0
O199 O 0.57203 0.07143 0.3185 0.0
H200 H 0.48489 0.05202 0.32067 0.0
H201 H 0.44232 0.92084 0.28973 0.0
H202 H 0.56144 0.97971 0.24949 0.0
O203 O 0.23916 0.29843 0.66937 0.0
Tb204 Tb 0.25022 0.35279 0.63434 0.0
Eu205 Eu 0.26775 0.34769 0.5472 0.0
C206 C 0.21651 0.26133 0.66204 0.0
O207 O 0.211 0.25065 0.63177 0.0
C208 C 0.17154 0.32623 0.58092 0.0
O209 O 0.27067 0.38175 0.49968 0.0
C210 C 0.31155 0.27302 0.53636 0.0
C211 C 0.28712 0.42263 0.49701 0.0
O212 O 0.28271 0.45133 0.5208 0.0
C213 C 0.33015 0.39924 0.59828 0.0
C214 C 0.35358 0.24657 0.53126 0.0
C215 C 0.36567 0.21736 0.55609 0.0
C216 C 0.40036 0.18621 0.55221 0.0
C217 C 0.42396 0.18359 0.52359 0.0
C218 C 0.41414 0.21293 0.4984 0.0
C219 C 0.37804 0.24457 0.50185 0.0
O220 O 0.18869 0.33091 0.60994 0.0
O221 O 0.19386 0.33462 0.55439 0.0
O222 O 0.2504 0.3894 0.67934 0.0
O223 O 0.21856 0.41961 0.63853 0.0
C224 C 0.22797 0.42429 0.66883 0.0
O225 O 0.30653 0.4035 0.57187 0.0
O226 O 0.32035 0.36726 0.61938 0.0
O227 O 0.29633 0.29923 0.5134 0.0
O228 O 0.30187 0.28769 0.56549 0.0
H229 H 0.34772 0.21837 0.5787 0.0
H230 H 0.45088 0.15866 0.52111 0.0
H231 H 0.36894 0.26656 0.48209 0.0
O232 O 0.91732 0.29141 0.6667 0.0
Tb233 Tb 0.91 0.23183 0.63504 0.0
Eu234 Eu 0.8871 0.24178 0.54915 0.0
C235 C 0.95086 0.32097 0.66413 0.0
O236 O 0.97582 0.32087 0.63834 0.0
C237 C 0.98718 0.2543 0.58038 0.0
O238 O 0.88078 0.2086 0.50139 0.0
C239 C 0.84688 0.31841 0.53975 0.0
C240 C 0.86494 0.16742 0.49886 0.0
O241 O 0.87033 0.13891 0.52266 0.0
C242 C 0.82537 0.18798 0.60064 0.0
C243 C 0.80633 0.3469 0.53628 0.0
C244 C 0.80486 0.38422 0.55662 0.0
C245 C 0.76793 0.41344 0.55671 0.0
C246 C 0.73144 0.40402 0.53625 0.0
C247 C 0.73426 0.37067 0.51245 0.0
C248 C 0.7726 0.34171 0.51235 0.0
O249 O 0.97243 0.24472 0.60931 0.0
O250 O 0.96173 0.25348 0.55449 0.0
O251 O 0.92043 0.19963 0.6815 0.0
O252 O 0.93245 0.16166 0.639 0.0
C253 C 0.93283 0.16047 0.67012 0.0
O254 O 0.84467 0.18761 0.57243 0.0
O255 O 0.83887 0.21588 0.62363 0.0
O256 O 0.85849 0.29129 0.51628 0.0
O257 O 0.85758 0.30335 0.56861 0.0
H258 H 0.83346 0.39061 0.57219 0.0
H259 H 0.70107 0.42423 0.53776 0.0
H260 H 0.77634 0.31621 0.49391 0.0
O261 O 0.73978 0.80179 0.16826 0.0
Tb262 Tb 0.7497 0.85733 0.1345 0.0
Eu263 Eu 0.77019 0.85195 0.05076 0.0
C264 C 0.71684 0.7656 0.15971 0.0
O265 O 0.70937 0.75852 0.12918 0.0
C266 C 0.67276 0.82644 0.08247 0.0
O267 O 0.76694 0.88975 0.00411 0.0
C268 C 0.83427 0.79385 0.03956 0.0
C269 C 0.78834 0.92849 0.00168 0.0
O270 O 0.78673 0.95702 0.02576 0.0
C271 C 0.82865 0.90403 0.10069 0.0
C272 C 0.85243 0.74851 0.03188 0.0
C273 C 0.84817 0.71302 0.05381 0.0
C274 C 0.87267 0.67309 0.04917 0.0
C275 C 0.89268 0.66468 0.01964 0.0
C276 C 0.90448 0.70136 8e-05 0.0
C277 C 0.8827 0.74347 0.00588 0.0
O278 O 0.68484 0.8434 0.1105 0.0
O279 O 0.70046 0.82203 0.05792 0.0
O280 O 0.75 0.89449 0.17933 0.0
O281 O 0.72317 0.92617 0.13731 0.0
C282 C 0.73158 0.931 0.16769 0.0
O283 O 0.79954 0.91146 0.07764 0.0
O284 O 0.82044 0.87061 0.12079 0.0
O285 O 0.81247 0.81558 0.01688 0.0
O286 O 0.81925 0.80268 0.06864 0.0
H287 H 0.8321 0.71892 0.07675 0.0
H288 H 0.90847 0.63181 0.01611 0.0
H289 H 0.89135 0.77319 -0.00788 0.0
O290 O 0.74039 0.28805 0.79399 0.0
Tb291 Tb 0.74706 0.23128 0.82777 0.0
Eu292 Eu 0.76804 0.23527 0.91381 0.0
C293 C 0.71296 0.32261 0.79967 0.0
O294 O 0.69759 0.32848 0.82878 0.0
C295 C 0.67145 0.26084 0.88146 0.0
O296 O 0.76745 0.20037 0.96156 0.0
C297 C 0.82411 0.29956 0.92435 0.0
C298 C 0.78643 0.16033 0.96433 0.0
O299 O 0.78475 0.13257 0.93983 0.0
C300 C 0.82578 0.18239 0.86256 0.0
C301 C 0.85629 0.33596 0.93061 0.0
C302 C 0.85206 0.37559 0.91263 0.0
C303 C 0.88461 0.4096 0.91487 0.0
C304 C 0.92151 0.40271 0.93558 0.0
C305 C 0.92326 0.36627 0.95669 0.0
C306 C 0.89035 0.33224 0.95427 0.0
O307 O 0.68365 0.24617 0.85287 0.0
O308 O 0.69784 0.26229 0.90682 0.0
O309 O 0.73738 0.19841 0.78151 0.0
O310 O 0.72612 0.16072 0.82416 0.0
C311 C 0.7255 0.1594 0.79304 0.0
O312 O 0.79793 0.17658 0.88648 0.0
O313 O 0.8176 0.21549 0.84189 0.0
O314 O 0.80767 0.27487 0.94753 0.0
O315 O 0.81012 0.28955 0.89515 0.0
H316 H 0.82358 0.37919 0.8965 0.0
H317 H 0.94965 0.42586 0.93589 0.0
H318 H 0.89179 0.30305 0.96998 0.0
O319 O 0.91369 0.79731 0.29276 0.0
Tb320 Tb 0.90816 0.85269 0.32758 0.0
Eu321 Eu 0.8881 0.84858 0.41339 0.0
C322 C 0.92603 0.7561 0.30135 0.0
O323 O 0.92685 0.74547 0.33185 0.0
C324 C 0.98497 0.82105 0.38103 0.0
O325 O 0.8882 0.88075 0.46207 0.0
C326 C 0.83156 0.78381 0.42325 0.0
C327 C 0.86736 0.91956 0.46607 0.0
O328 O 0.86812 0.94909 0.44266 0.0
C329 C 0.8298 0.90289 0.36193 0.0
C330 C 0.79876 0.74734 0.42986 0.0
C331 C 0.79326 0.71355 0.4067 0.0
C332 C 0.76295 0.67831 0.41167 0.0
C333 C 0.73896 0.67576 0.4402 0.0
C334 C 0.74076 0.71054 0.46281 0.0
C335 C 0.77183 0.74634 0.45809 0.0
O336 O 0.9695 0.829 0.35185 0.0
O337 O 0.96107 0.82695 0.40737 0.0
O338 O 0.92024 0.8861 0.28204 0.0
O339 O 0.93141 0.92271 0.3254 0.0
C340 C 0.93292 0.92444 0.29428 0.0
O341 O 0.85633 0.90767 0.38699 0.0
O342 O 0.83804 0.86967 0.3413 0.0
O343 O 0.8489 0.80798 0.44649 0.0
O344 O 0.84629 0.79363 0.39424 0.0
H345 H 0.81114 0.71567 0.38414 0.0
H346 H 0.71568 0.64785 0.44364 0.0
H347 H 0.77396 0.77355 0.47547 0.0
O348 O 0.57208 0.63067 0.5455 0.0
Tb349 Tb 0.51596 0.6181 0.5786 0.0
Eu350 Eu 0.51756 0.60409 0.66345 0.0
C351 C 0.6102 0.64876 0.55592 0.0
O352 O 0.61754 0.65031 0.58689 0.0
C353 C 0.54458 0.69861 0.63004 0.0
O354 O 0.48266 0.60629 0.71083 0.0
C355 C 0.58106 0.54622 0.6738 0.0
C356 C 0.44412 0.58517 0.71357 0.0
O357 O 0.41576 0.58631 0.6894 0.0
C358 C 0.4666 0.54254 0.61347 0.0
C359 C 0.62193 0.51883 0.67843 0.0
C360 C 0.65962 0.52844 0.6598 0.0
C361 C 0.69634 0.49862 0.65897 0.0
C362 C 0.69721 0.4623 0.68096 0.0
C363 C 0.66113 0.45366 0.70166 0.0
C364 C 0.62278 0.48198 0.69995 0.0
O365 O 0.53447 0.68148 0.60181 0.0
O366 O 0.54165 0.67563 0.65693 0.0
O367 O 0.47397 0.61846 0.53591 0.0
O368 O 0.44917 0.64948 0.57884 0.0
C369 C 0.44038 0.64008 0.54906 0.0
O370 O 0.45976 0.57227 0.63633 0.0
O371 O 0.50147 0.54833 0.59428 0.0
O372 O 0.55781 0.56363 0.69748 0.0
O373 O 0.57108 0.56185 0.64502 0.0
H374 H 0.65922 0.55882 0.64541 0.0
H375 H 0.72583 0.43954 0.68188 0.0
H376 H 0.59372 0.47514 0.71487 0.0
O377 O 0.08664 0.45323 0.04256 0.0
Tb378 Tb 0.14019 0.46379 0.07826 0.0
Eu379 Eu 0.13402 0.48198 0.16537 0.0
C380 C 0.04675 0.43701 0.05056 0.0
O381 O 1.03419 0.43912 0.08064 0.0
C382 C 0.1142 0.38621 0.13118 0.0
O383 O 0.17026 0.48643 0.21218 0.0
C384 C 0.05659 0.51901 0.17895 0.0
C385 C 0.21076 0.50396 0.21283 0.0
O386 O 0.23652 0.49881 0.18756 0.0
C387 C 0.18191 0.54989 0.11346 0.0
C388 C 1.03196 0.56296 0.18104 0.0
C389 C 1.00714 0.5758 0.15402 0.0
C390 C 0.9803 0.61427 0.1546 0.0
C391 C 0.97806 0.6416 0.1815 0.0
C392 C 1.00078 0.6295 0.20941 0.0
C393 C 1.02803 0.58958 0.20954 0.0
O394 O 0.11024 0.40607 0.10306 0.0
O395 O 0.13064 0.40647 0.15682 0.0
O396 O 0.17582 0.45474 0.03338 0.0
O397 O 0.20739 0.43272 0.07675 0.0
C398 C 0.21119 0.43526 0.04569 0.0
O399 O 0.1832 0.52939 0.14138 0.0
O400 O 0.15547 0.53551 0.08978 0.0
O401 O 0.08711 0.50969 0.2008 0.0
O402 O 0.0678 0.50443 0.15009 0.0
H403 H 1.00774 0.55547 0.13235 0.0
H404 H 0.95641 0.67148 0.18115 0.0
H405 H 0.0447 0.57895 0.23142 0.0
O406 O 0.57324 0.45063 0.41877 0.0
Tb407 Tb 0.51695 0.45953 0.38492 0.0
Eu408 Eu 0.52447 0.48458 0.29958 0.0
C409 C 0.60913 0.42573 0.41199 0.0
O410 O 0.61657 0.41421 0.38213 0.0
C411 C 0.54846 0.38689 0.33156 0.0
O412 O 0.48794 0.47863 0.25247 0.0
C413 C 0.57989 0.54943 0.28662 0.0
C414 C 0.44851 0.49839 0.24825 0.0
O415 O 0.41971 0.49888 0.27201 0.0
C416 C 0.46925 0.53972 0.35103 0.0
C417 C 0.6245 0.56838 0.27972 0.0
C418 C 0.66052 0.56019 0.30053 0.0
C419 C 0.69829 0.58822 0.29965 0.0
C420 C 0.70409 0.61808 0.27406 0.0
C421 C 0.66835 0.62733 0.25271 0.0
C422 C 0.62818 0.60219 0.256 0.0
O423 O 0.52583 0.39676 0.35776 0.0
O424 O 0.55798 0.41668 0.30907 0.0
O425 O 0.48489 0.44813 0.431 0.0
O426 O 0.44571 0.44284 0.3882 0.0
C427 C 0.44526 0.43969 0.41918 0.0
O428 O 0.46439 0.51362 0.3258 0.0
O429 O 0.50181 0.53045 0.37188 0.0
O430 O 0.56082 0.52444 0.2645 0.0
O431 O 0.57006 0.5372 0.31618 0.0
H432 H 0.65605 0.53775 0.32083 0.0
H433 H 0.73451 0.63833 0.27351 0.0
H434 H 0.59864 0.61073 0.24186 0.0
O435 O 0.08264 0.62945 0.91716 0.0
Tb436 Tb 0.13905 0.62308 0.88345 0.0
Eu437 Eu 0.13376 0.60419 0.79744 0.0
C438 C 0.04518 0.65102 0.90891 0.0
O439 O 1.03661 0.65738 0.87846 0.0
C440 C 0.11392 0.70169 0.82947 0.0
O441 O 0.16428 0.60137 0.74897 0.0
C442 C 0.05762 0.56342 0.78758 0.0
C443 C 0.20493 0.58457 0.7462 0.0
O444 O 0.23342 0.59005 0.77003 0.0
C445 C 0.1858 0.54095 0.84881 0.0
C446 C 1.02897 0.52254 0.78767 0.0
C447 C 0.99662 0.52184 0.81172 0.0
C448 C 0.97043 0.48385 0.81651 0.0
C449 C 0.97615 0.44633 0.79633 0.0
C450 C 0.99817 0.45062 0.76685 0.0
C451 C 1.02777 0.48836 0.76342 0.0
O452 O 0.1152 0.6846 0.85871 0.0
O453 O 0.12499 0.67931 0.80336 0.0
O454 O 0.1723 0.6325 0.9296 0.0
O455 O 0.20837 0.64759 0.88695 0.0
C456 C 0.21052 0.64631 0.9181 0.0
O457 O 0.18889 0.56439 0.82225 0.0
O458 O 0.15482 0.55183 0.87043 0.0
O459 O 0.08758 0.56897 0.76496 0.0
O460 O 0.07007 0.58022 0.81562 0.0
H461 H 0.99161 0.55164 0.82647 0.0
H462 H 0.96013 0.41467 0.80263 0.0
H463 H 0.04804 0.49209 0.74208 0.0
C464 C 0.04529 0.28093 0.11197 0.0
C465 C 0.06128 0.2485 0.13393 0.0
C466 C 0.06214 0.32525 0.11181 0.0
C467 C 0.09602 0.33923 0.13348 0.0
H468 H 1.0195 0.27198 0.09464 0.0
H469 H 0.0484 0.34869 0.09433 0.0
S470 S 0.15263 0.26598 0.19369 0.0
N471 N 0.11499 0.23245 0.17665 0.0
N472 N 0.1466 0.31601 0.17639 0.0
C473 C 0.11257 0.30706 0.15547 0.0
C474 C 0.0953 0.26169 0.15565 0.0
C475 C 0.06091 0.81303 0.40934 0.0
C476 C 1.03215 0.80268 0.38336 0.0
C477 C 0.10608 0.79704 0.41042 0.0
C478 C 0.12399 0.7693 0.38587 0.0
H479 H 0.04883 0.83457 0.42854 0.0
H480 H 0.1272 0.80703 0.43041 0.0
S481 S 0.06186 0.72998 0.31381 0.0
N482 N 1.025 0.76182 0.3331 0.0
N483 N 0.10805 0.73103 0.33559 0.0
C484 C 0.095 0.75805 0.3603 0.0
C485 C 0.04973 0.77488 0.35892 0.0
C486 C 0.58709 0.81417 0.6596 0.0
C487 C 0.59459 0.83812 0.63091 0.0
C488 C 0.57093 0.76921 0.65935 0.0
C489 C 0.56119 0.74648 0.63041 0.0
H490 H 0.59389 0.83011 0.68246 0.0
H491 H 0.56601 0.75225 0.68204 0.0
S492 S 0.5743 0.79414 0.54832 0.0
N493 N 0.59053 0.83502 0.57254 0.0
N494 N 0.56022 0.75213 0.57211 0.0
C495 C 0.56835 0.77028 0.60155 0.0
C496 C 0.58496 0.81558 0.60179 0.0
C497 C 0.5714 0.34154 0.88437 0.0
C498 C 0.53448 0.3119 0.88584 0.0
C499 C 0.61595 0.32474 0.88426 0.0
C500 C 0.62477 0.2778 0.8847 0.0
H501 H 0.56576 0.37781 0.88294 0.0
H502 H 0.64362 0.34855 0.8829 0.0
S503 S 0.53997 0.18621 0.88852 0.0
N504 N 0.50972 0.23349 0.88868 0.0
N505 N 0.59334 0.2021 0.88661 0.0
C506 C 0.58822 0.24792 0.88617 0.0
C507 C 0.54302 0.26496 0.88721 0.0
C508 C 0.05217 0.75776 0.83899 0.0
C509 C 0.09492 0.74805 0.82615 0.0
C510 C 1.03415 0.80185 0.83884 0.0
C511 C 0.05783 0.83798 0.82503 0.0
H512 H 1.03232 0.73082 0.84895 0.0
H513 H 1.00141 0.80768 0.84962 0.0
S514 S 0.17133 0.83026 0.78757 0.0
N515 N 0.16047 0.77778 0.79889 0.0
N516 N 0.12673 0.86087 0.79785 0.0
C517 C 0.10027 0.82848 0.81113 0.0
C518 C 0.11874 0.78345 0.81173 0.0
C519 C 0.57093 0.74738 0.08288 0.0
C520 C 0.53396 0.77714 0.07908 0.0
C521 C 0.61579 0.76336 0.08248 0.0
C522 C 0.62538 0.8099 0.07936 0.0
H523 H 0.56512 0.71148 0.08637 0.0
H524 H 0.64315 0.73921 0.08543 0.0
S525 S 0.54059 0.90215 0.07097 0.0
N526 N 0.51001 0.85547 0.07267 0.0
N527 N 0.59391 0.88563 0.07367 0.0
C528 C 0.58867 0.84003 0.07608 0.0
C529 C 0.5431 0.82364 0.07552 0.0
C530 C 0.53489 0.30324 0.3346 0.0
C531 C 0.56441 0.33939 0.32812 0.0
C532 C 0.55023 0.25805 0.33432 0.0
C533 C 0.59569 0.24757 0.3279 0.0
H534 H 0.49979 0.30999 0.34025 0.0
H535 H 0.52659 0.23122 0.33974 0.0
S536 S 0.68739 0.32957 0.31325 0.0
N537 N 0.64168 0.3615 0.31709 0.0
N538 N 0.67049 0.27656 0.31717 0.0
C539 C 0.62557 0.28318 0.32185 0.0
C540 C 0.60991 0.32914 0.32176 0.0
C541 C 0.10329 0.29376 0.60731 0.0
C542 C 0.12454 0.30806 0.57898 0.0
C543 C 0.06008 0.27507 0.607 0.0
C544 C 1.035 0.2703 0.57844 0.0
H545 H 0.12011 0.2966 0.63029 0.0
H546 H 0.04623 0.26485 0.62982 0.0
S547 S 0.07512 0.30132 0.49723 0.0
N548 N 0.1176 0.31468 0.52109 0.0
N549 N 1.0353 0.28094 0.52068 0.0
C550 C 0.05573 0.28417 0.54975 0.0
C551 C 0.10053 0.3027 0.54999 0.0
C552 C 0.1571 0.21076 0.97842 0.0
C553 C 0.20439 0.20915 -0.01692 0.0
C554 C 0.12703 0.19174 0.00084 0.0
C555 C 0.14307 0.17031 0.02885 0.0
H556 H 0.14338 0.2252 0.95659 0.0
H557 H 0.09105 0.19369 -0.00385 0.0
S558 S 0.26322 0.155 0.05169 0.0
N559 N 0.26525 0.18314 0.01756 0.0
N560 N 0.20909 0.14819 0.05961 0.0
C561 C 0.18999 0.16934 0.03402 0.0
C562 C 0.22051 0.18856 0.01125 0.0
C563 C 0.21509 0.91958 0.25161 0.0
C564 C 0.16967 0.92812 0.2427 0.0
C565 C 0.227 0.88309 0.27142 0.0
C566 C 0.19418 0.85605 0.2856 0.0
H567 H 0.24208 0.93969 0.24155 0.0
H568 H 0.26205 0.8754 0.27528 0.0
S569 S 0.07121 0.8604 0.26878 0.0
N570 N 0.09208 0.90272 0.24763 0.0
N571 N 0.11452 0.8374 0.28786 0.0
C572 C 0.14866 0.8642 0.27748 0.0
C573 C 0.13641 0.89984 0.25575 0.0
C574 C 0.44923 0.87687 0.50858 0.0
C575 C 0.45958 0.88162 0.47597 0.0
C576 C 0.47859 0.8932 0.53242 0.0
C577 C 0.51926 0.91549 0.5247 0.0
H578 H 0.41695 0.8631 0.51573 0.0
H579 H 0.4683 0.88981 0.55715 0.0
S580 S 0.56652 0.92652 0.44274 0.0
N581 N 0.51713 0.90193 0.43728 0.0
N582 N 0.57138 0.93447 0.48176 0.0
C583 C 0.53176 0.91678 0.49217 0.0
C584 C 0.50225 0.89923 0.46797 0.0
C585 C 0.44043 0.23186 0.74741 0.0
C586 C 0.46161 0.23333 0.77738 0.0
C587 C 0.4532 0.19963 0.72447 0.0
C588 C 0.48582 0.16527 0.73099 0.0
H589 H 0.41321 0.25522 0.7417 0.0
H590 H 0.43618 0.20162 0.70157 0.0
S591 S 0.56368 0.16754 0.80113 0.0
N592 N 0.52686 0.20844 0.80829 0.0
N593 N 0.5477 0.14447 0.76695 0.0
C594 C 0.51117 0.17042 0.75944 0.0
C595 C 0.49945 0.20489 0.78226 0.0
C596 C 0.21178 0.92899 0.95326 0.0
C597 C 0.21908 0.8861 0.96761 0.0
C598 C 0.17362 0.93789 0.93401 0.0
C599 C 0.14173 0.90389 0.92771 0.0
H600 H 0.23478 0.95661 0.95823 0.0
H601 H 0.16901 0.97159 0.92419 0.0
S602 S 0.14425 0.78617 0.95953 0.0
N603 N 0.19041 0.80967 0.97418 0.0
N604 N 0.11974 0.82572 0.93752 0.0
C605 C 0.14925 0.86057 0.94113 0.0
C606 C 0.18774 0.85172 0.96097 0.0
C607 C 0.50054 0.92078 0.20829 0.0
C608 C 0.4977 0.90906 0.24086 0.0
C609 C 0.48384 0.89192 0.18413 0.0
C610 C 0.4626 0.85038 0.19135 0.0
H611 H 0.51319 0.95376 0.20143 0.0
H612 H 0.48616 0.90323 0.15953 0.0
S613 S 0.45429 0.79961 0.27247 0.0
N614 N 0.47971 0.8486 0.27845 0.0
N615 N 0.44454 0.79675 0.23357 0.0
C616 C 0.46213 0.83684 0.22366 0.0
C617 C 0.48087 0.86536 0.24814 0.0
C618 C 0.4896 0.21656 0.47233 0.0
C619 C 0.44302 0.20708 0.46954 0.0
C620 C 0.52158 0.19665 0.45164 0.0
C621 C 0.50817 0.16679 0.4271 0.0
H622 H 0.50165 0.23721 0.49205 0.0
H623 H 0.55703 0.20432 0.4551 0.0
S624 S 0.39137 0.12953 0.41004 0.0
N625 N 0.38589 0.16471 0.44064 0.0
N626 N 0.44566 0.12882 0.40115 0.0
C627 C 0.46186 0.15822 0.42339 0.0
C628 C 0.42939 0.17797 0.44469 0.0
C629 C 0.15935 0.16052 0.70185 0.0
C630 C 0.15416 0.17444 0.73378 0.0
C631 C 0.17869 0.1893 0.67895 0.0
C632 C 0.19435 0.23297 0.68706 0.0
H633 H 0.15171 0.12594 0.69502 0.0
H634 H 0.18328 0.17622 0.65494 0.0
S635 S 0.18051 0.28852 0.76643 0.0
N636 N 0.15909 0.2374 0.77125 0.0
N637 N 0.19758 0.29072 0.72883 0.0
C638 C 0.18609 0.24861 0.71843 0.0
C639 C 0.16517 0.21968 0.74149 0.0
C640 C 0.90976 0.94064 0.97478 0.0
C641 C 0.90719 0.93085 0.9419 0.0
C642 C 0.87089 0.94023 -0.00614 0.0
C643 C 0.8283 0.92962 0.98074 0.0
H644 H 0.94172 0.94971 -0.0143 0.0
H645 H 0.87428 0.94804 0.01912 0.0
S646 S 0.80427 0.89844 0.89656 0.0
N647 N 0.8591 0.9082 0.8974 0.0
N648 N 0.78633 0.90666 0.93352 0.0
C649 C 0.82566 0.91795 0.94829 0.0
C650 C 0.86508 0.91881 0.92879 0.0
C651 C 0.94441 0.12302 0.72289 0.0
C652 C 0.93999 0.11947 0.68948 0.0
C653 C 0.94646 0.08409 0.74198 0.0
C654 C 0.94389 1.04061 0.72823 0.0
H655 H 0.94576 0.15597 0.73436 0.0
H656 H 0.95007 0.08795 0.76764 0.0
S657 S 0.93338 1.01317 0.64222 0.0
N658 N 0.9344 0.06913 0.64349 0.0
N659 N 0.93821 0.996 0.67971 0.0
C660 C 0.94089 1.03659 0.69499 0.0
C661 C 0.93896 0.07612 0.67549 0.0
C662 C 0.78892 0.12661 0.43241 0.0
C663 C 0.74896 0.15099 0.43837 0.0
C664 C 0.82665 0.13157 0.4524 0.0
C665 C 0.8255 0.16195 0.47817 0.0
H666 H 0.79058 0.10273 0.41271 0.0
H667 H 0.85684 0.11181 0.44763 0.0
S668 S 0.72799 0.23244 0.50416 0.0
N669 N 0.70949 0.20503 0.47225 0.0
N670 N 0.78106 0.21609 0.50917 0.0
C671 C 0.78564 0.18665 0.48429 0.0
C672 C 0.74703 0.18068 0.46448 0.0
C673 C 0.7549 0.98331 0.21066 0.0
C674 C 0.72481 0.97272 0.18584 0.0
C675 C 0.74942 1.02283 0.22863 0.0
C676 C 0.71306 0.05267 0.2228 0.0
H677 H 0.78286 0.96081 0.21633 0.0
H678 H 0.77291 1.02886 0.24809 0.0
S679 S 0.62396 1.03824 0.16063 0.0
N680 N 0.65758 0.9939 0.15599 0.0
N681 N 0.64598 0.0681 0.19027 0.0
C682 C 0.68273 1.04228 0.19771 0.0
C683 C 0.68892 1.00226 0.17909 0.0
C684 C 0.86931 0.15507 0.97172 0.0
C685 C 0.82605 0.15717 -0.01452 0.0
C686 C 0.90803 0.15178 -0.00911 0.0
C687 C 0.90468 0.15055 0.02442 0.0
H688 H 0.87321 0.15597 0.94593 0.0
H689 H 0.9407 0.14968 0.97934 0.0
S690 S 0.79939 0.15631 0.07195 0.0
N691 N 0.78208 0.15947 0.03435 0.0
N692 N 0.85501 0.15249 0.07057 0.0
C693 C 0.86176 0.15386 0.03844 0.0
C694 C 0.82231 0.15745 0.01889 0.0
C695 C 0.72231 1.03594 0.76961 0.0
C696 C 0.71075 1.03787 0.73713 0.0
C697 C 0.72559 0.0757 0.7878 0.0
C698 C 0.71778 0.11843 0.7739 0.0
H699 H 0.72936 1.0036 0.7809 0.0
H700 H 0.73559 0.07302 0.8127 0.0
S701 S 0.68105 0.14086 0.6904 0.0
N702 N 0.68706 0.08518 0.69235 0.0
N703 N 0.69459 0.16021 0.72631 0.0
C704 C 0.70472 0.12072 0.74159 0.0
C705 C 0.7008 0.08022 0.72323 0.0
C706 C 0.83134 0.92364 0.51995 0.0
C707 C 0.82728 0.91935 0.48664 0.0
C708 C 0.79274 0.92818 0.53911 0.0
C709 C 0.74935 0.92885 0.52531 0.0
H710 H 0.8644 0.92511 0.53107 0.0
H711 H 0.79699 0.93326 0.56463 0.0
S712 S 0.72102 0.908 0.44004 0.0
N713 N 0.77679 0.90735 0.44143 0.0
N714 N 0.70433 0.91806 0.47706 0.0
C715 C 0.74489 0.92112 0.4923 0.0
C716 C 0.78399 0.91575 0.47302 0.0
C717 C 0.91894 0.04452 0.2654 0.0
C718 C 0.94438 0.04456 0.23722 0.0
C719 C 0.91703 1.00563 0.28455 0.0
C720 C 0.93967 0.96565 0.27555 0.0
H721 H 0.90022 0.07452 0.27251 0.0
H722 H 0.89639 1.00632 0.30591 0.0
S723 S 1.01039 0.94862 0.20347 0.0
N724 N 0.99317 1.00191 0.2012 0.0
N725 N 0.98797 0.92812 0.23659 0.0
C726 C 0.96507 0.9652 0.24728 0.0
C727 C 0.96786 1.005 0.22822 0.0
C728 C 0.66094 0.70137 0.4807 0.0
C729 C 0.70674 0.70804 0.4891 0.0
C730 C 0.6299 0.68259 0.5023 0.0
C731 C 0.64303 0.67048 0.53356 0.0
H732 H 0.64983 0.7077 0.45635 0.0
H733 H 0.59566 0.67661 0.49414 0.0
S734 S 0.75681 0.68793 0.56918 0.0
N735 N 0.76219 0.70548 0.53184 0.0
N736 N 0.70375 0.67193 0.57293 0.0
C737 C 0.68764 0.68077 0.5431 0.0
C738 C 0.71944 0.6993 0.52086 0.0
C739 C 0.65822 0.4243 0.75806 0.0
C740 C 0.6659 0.41595 0.72541 0.0
C741 C 0.67306 0.39357 0.78161 0.0
C742 C 0.6967 0.35341 0.7736 0.0
H743 H 0.64285 0.45594 0.76563 0.0
H744 H 0.66716 0.40227 0.80644 0.0
S745 S 0.71688 0.3114 0.69093 0.0
N746 N 0.69139 0.36082 0.68593 0.0
N747 N 0.72141 0.30432 0.73004 0.0
C748 C 0.70169 0.34313 0.74085 0.0
C749 C 0.6856 0.37396 0.71687 0.0
C750 C 0.97205 0.40384 0.03489 0.0
C751 C 1.01738 0.41292 0.02693 0.0
C752 C 0.94257 0.3827 0.01319 0.0
C753 C 0.95728 0.36925 -0.01728 0.0
H754 H 0.95847 0.41497 0.05764 0.0
H755 H 0.90714 0.38019 0.01935 0.0
S756 S 0.07384 0.37821 0.95128 0.0
N757 N 0.07664 0.40165 -0.01279 0.0
N758 N 1.02097 0.36171 0.9467 0.0
C759 C 1.00326 0.37467 0.97529 0.0
C760 C 1.0333 0.39672 -0.0028 0.0
C761 C 0.98501 0.7336 0.26096 0.0
C762 C 0.94506 0.72365 0.27771 0.0
C763 C 1.00663 0.70055 0.24183 0.0
C764 C 0.98826 0.65684 0.23796 0.0
H765 H 1.00011 0.76687 0.26313 0.0
H766 H 1.03662 0.70996 0.22865 0.0
S767 S 0.87652 0.62049 0.26745 0.0
N768 N 0.88383 0.67073 0.28415 0.0
N769 N 0.92287 0.60969 0.24697 0.0
C770 C 0.9468 0.64795 0.25294 0.0
C771 C 0.92546 0.68113 0.2729 0.0
C772 C 0.6843 0.39524 0.43056 0.0
C773 C 0.63935 0.40755 0.43774 0.0
C774 C 0.71403 0.37869 0.45428 0.0
C775 C 0.6998 0.37275 0.48608 0.0
H776 H 0.69726 0.40018 0.40661 0.0
H777 H 0.74913 0.37327 0.44805 0.0
S778 S 0.58313 0.39117 0.51626 0.0
N779 N 0.58077 0.40769 0.47851 0.0
N780 N 0.63552 0.3736 0.52225 0.0
C781 C 0.65372 0.38086 0.49286 0.0
C782 C 0.6239 0.39926 0.46905 0.0
C783 C 1.01677 0.40568 0.71599 0.0
C784 C 0.9859 0.41764 0.74022 0.0
C785 C 1.0051 0.37464 0.69154 0.0
C786 C 0.96232 0.35345 0.69043 0.0
H787 H 0.05039 0.41996 0.71594 0.0
H788 H 1.03021 0.36678 0.67354 0.0
S789 S 0.86768 0.37372 0.74636 0.0
N790 N 0.90809 0.40769 0.75883 0.0
N791 N 0.88922 0.3464 0.71554 0.0
C792 C 0.93137 0.36448 0.71442 0.0
C793 C 0.9423 0.39732 0.73846 0.0
C794 C 0.97945 0.66482 -0.01366 0.0
C795 C 0.94414 0.69539 0.97793 0.0
C796 C 1.01271 0.65148 0.9644 0.0
C797 C 1.0132 0.6692 0.93332 0.0
H798 H 0.98103 0.64983 0.00996 0.0
H799 H 1.03728 0.62609 0.97161 0.0
S800 S 0.94091 0.76368 0.90335 0.0
N801 N 0.91951 0.75125 0.93866 0.0
N802 N 0.98375 0.72841 0.89841 0.0
C803 C 0.98248 0.70458 0.92615 0.0
C804 C 0.9478 0.71744 0.94825 0.0
C805 C 0.69812 0.70479 0.23876 0.0
C806 C 0.67275 0.66625 0.22978 0.0
C807 C 0.71133 0.73739 0.2163 0.0
C808 C 0.69861 0.73366 0.184 0.0
H809 H 0.70927 0.7093 0.26327 0.0
H810 H 0.73271 0.76493 0.22425 0.0
S811 S 0.61856 0.64937 0.15027 0.0
N812 N 0.62695 0.63251 0.1875 0.0
N813 N 0.64937 0.69539 0.14597 0.0
C814 C 0.66804 0.69907 0.17561 0.0
C815 C 0.65541 0.66517 0.19834 0.0
C816 C 0.36408 0.39838 0.4815 0.0
C817 C 0.32653 0.42707 0.47638 0.0
C818 C 0.40302 0.40262 0.46291 0.0
C819 C 0.40461 0.4347 0.43823 0.0
H820 H 0.36358 0.37311 0.50034 0.0
H821 H 0.4317 0.38057 0.46761 0.0
S822 S 0.31659 0.51876 0.41652 0.0
N823 N 0.29437 0.48972 0.44635 0.0
N824 N 0.36703 0.49633 0.41024 0.0
C825 C 0.3675 0.46336 0.43293 0.0
C826 C 0.32845 0.45993 0.4524 0.0
C827 C 0.46946 0.57735 0.23435 0.0
C828 C 0.44685 0.53704 0.22611 0.0
C829 C 0.46559 0.61618 0.21521 0.0
C830 C 0.43976 0.61539 0.18698 0.0
H831 H 0.48904 0.57929 0.25625 0.0
H832 H 0.48256 0.64698 0.22261 0.0
S833 S 0.37173 0.51978 0.15623 0.0
N834 N 0.3959 0.4997 0.18906 0.0
N835 N 0.39003 0.57229 0.15231 0.0
C836 C 0.41752 0.57535 0.17834 0.0
C837 C 0.42054 0.53622 0.19822 0.0
C838 C 0.24781 0.66243 0.97042 0.0
C839 C 0.2515 0.65346 0.93749 0.0
C840 C 0.28643 0.66556 -0.01025 0.0
C841 C 0.32983 0.65885 0.97691 0.0
H842 H 0.21493 0.66687 0.98135 0.0
H843 H 0.28231 0.67327 0.01491 0.0
S844 S 0.35741 0.63502 0.89224 0.0
N845 N 0.30175 0.63879 0.89281 0.0
N846 N 0.37439 0.64422 0.92941 0.0
C847 C 0.33402 0.65094 0.94402 0.0
C848 C 0.29473 0.6482 0.92423 0.0
C849 C 0.17921 0.48547 0.69112 0.0
C850 C 0.22204 0.46595 0.68719 0.0
C851 C 0.17393 0.52501 0.70941 0.0
C852 C 0.21153 0.54639 0.72381 0.0
H853 H 0.14968 0.46948 0.68077 0.0
H854 H 0.14005 0.53807 0.71289 0.0
S855 S 0.33018 0.50809 0.71922 0.0
N856 N 0.30211 0.46982 0.69852 0.0
N857 N 0.29259 0.54517 0.73198 0.0
C858 C 0.25436 0.5271 0.71943 0.0
C859 C 0.25951 0.48653 0.70139 0.0
C860 C 0.33621 0.61853 0.50024 0.0
C861 C 0.31714 0.66206 0.49682 0.0
C862 C 0.37574 0.61173 0.51793 0.0
C863 C 0.39705 0.64799 0.53333 0.0
H864 H 0.32193 0.58971 0.48776 0.0
H865 H 0.39037 0.57798 0.51891 0.0
S866 S 0.3603 0.76802 0.5346 0.0
N867 N 0.32198 0.74198 0.51246 0.0
N868 N 0.39621 0.72818 0.54612 0.0
C869 C 0.37744 0.69118 0.53199 0.0
C870 C 0.33733 0.69848 0.51366 0.0
C871 C 0.19043 0.59242 0.27734 0.0
C872 C 0.22704 0.62179 0.27327 0.0
C873 C 0.18625 0.55331 0.25849 0.0
C874 C 0.21908 0.5419 0.23535 0.0
H875 H 0.16446 0.60015 0.29477 0.0
H876 H 0.15662 0.53244 0.26175 0.0
S877 S 0.32265 0.60747 0.21739 0.0
N878 N 0.29721 0.6369 0.24571 0.0
N879 N 0.29022 0.56312 0.21055 0.0
C880 C 0.25643 0.57078 0.23183 0.0
C881 C 0.26016 0.61087 0.25068 0.0
C882 C 0.26313 0.38797 0.01284 0.0
C883 C 0.25318 0.4292 0.02797 0.0
C884 C 0.30167 0.38385 -0.00636 0.0
C885 C 0.33071 0.42105 -0.0112 0.0
H886 H 0.24068 0.35927 0.01529 0.0
H887 H 0.30764 0.35194 0.98163 0.0
S888 S 0.31681 0.53634 0.02169 0.0
N889 N 0.27381 0.50761 0.03622 0.0
N890 N 0.34568 0.50017 -0.00047 0.0
C891 C 0.32034 0.46231 0.00338 0.0
C892 C 0.28164 0.46628 0.02316 0.0
C893 C 0.43618 0.50209 0.72061 0.0
C894 C 0.44389 0.54499 0.73428 0.0
C895 C 0.43373 0.46331 0.73973 0.0
C896 C 0.44015 0.46615 0.773 0.0
H897 H 0.43058 0.49865 0.69505 0.0
H898 H 0.42557 0.43124 0.72846 0.0
S899 S 0.47048 0.56892 0.81924 0.0
N900 N 0.46411 0.58715 0.7821 0.0
N901 N 0.4605 0.51391 0.81818 0.0
C902 C 0.45153 0.50817 0.78653 0.0
C903 C 0.4535 0.54773 0.76707 0.0
C904 C 0.20155 0.93603 0.07902 0.0
C905 C 0.24873 0.93186 0.07678 0.0
C906 C 0.18177 0.95345 0.10626 0.0
C907 C 0.20847 0.96644 0.13231 0.0
H908 H 0.17941 0.92366 0.06027 0.0
H909 H 0.14519 0.95477 0.10755 0.0
S910 S 0.33288 0.96379 0.13875 0.0
N911 N 0.3218 0.94353 0.10266 0.0
N912 N 0.28341 0.97606 0.15486 0.0
C913 C 0.25547 0.96357 0.13057 0.0
C914 C 0.27596 0.94613 0.10251 0.0
C915 C 0.42623 1.00797 0.36065 0.0
C916 C 0.41992 0.98981 0.32979 0.0
C917 C 0.403 0.98981 0.38656 0.0
C918 C 0.37803 0.94962 0.38264 0.0
H919 H 0.4527 1.03201 0.3659 0.0
H920 H 0.41067 1.00296 0.41015 0.0
S921 S 0.33409 0.90827 0.30431 0.0
N922 N 0.36784 0.95025 0.29509 0.0
N923 N 0.33524 0.90446 0.34362 0.0
C924 C 0.36371 0.93878 0.35118 0.0
C925 C 0.38235 0.96229 0.32479 0.0
C926 C 0.38428 0.13045 0.59519 0.0
C927 C 0.41488 0.15883 0.57924 0.0
C928 C 0.39828 0.10524 0.62176 0.0
C929 C 0.44305 0.10793 0.63237 0.0
H930 H 0.34949 0.12816 0.58722 0.0
H931 H 0.37414 0.08436 0.63434 0.0
S932 S 0.53406 0.18134 0.60052 0.0
N933 N 0.49004 0.19124 0.57722 0.0
N934 N 0.51704 0.14304 0.62652 0.0
C935 C 0.47364 0.13668 0.61667 0.0
C936 C 0.45931 0.16246 0.59017 0.0
C937 C 0.23578 0.11026 0.88381 0.0
C938 C 0.26183 0.14946 0.87986 0.0
C939 C 0.21895 0.08755 0.85727 0.0
C940 C 0.23032 0.10202 0.82623 0.0
H941 H 0.22437 0.09977 0.90725 0.0
H942 H 0.19269 0.06293 0.86149 0.0
S943 S 0.31605 0.18595 0.80347 0.0
N944 N 0.30791 0.19356 0.84216 0.0
N945 N 0.28515 0.14165 0.79382 0.0
C946 C 0.2667 0.13154 0.82273 0.0
C947 C 0.27993 0.1585 0.84913 0.0
C948 C 0.89783 0.07493 0.874 0.0
C949 C 0.93686 0.08295 0.85587 0.0
C950 C 0.86253 0.10716 0.87558 0.0
C951 C 0.86436 0.14909 0.85912 0.0
H952 H 0.89383 0.04282 0.88625 0.0
H953 H 0.83304 0.09853 0.88951 0.0
S954 S 0.96093 0.18736 0.80972 0.0
N955 N 0.97625 0.13626 0.82198 0.0
N956 N 0.91031 0.19692 0.82499 0.0
C957 C 0.90365 0.15764 0.8412 0.0
C958 C 0.93965 0.12464 0.8396 0.0
C959 C 0.75123 0.15033 0.58593 0.0
C960 C 0.78917 0.1535 0.60643 0.0
C961 C 0.71937 0.11478 0.58876 0.0
C962 C 0.72478 0.07993 0.61163 0.0
H963 H 0.74613 0.17561 0.5675 0.0
H964 H 0.69053 0.11453 0.57275 0.0
S965 S 0.82209 0.06902 0.66793 0.0
N966 N 0.83166 0.117 0.64888 0.0
N967 N 0.77464 0.0493 0.65279 0.0
C968 C 0.76382 0.08202 0.63126 0.0
C969 C 0.7952 0.11886 0.62906 0.0
C970 C 0.78331 0.96984 0.38147 0.0
C971 C 0.79106 0.93615 0.35783 0.0
C972 C 0.7473 1.00124 0.37936 0.0
C973 C 0.71809 1.00182 0.35283 0.0
H974 H 0.8055 0.9725 0.40195 0.0
H975 H 0.74355 1.0265 0.39804 0.0
S976 S 0.72429 0.92444 0.28282 0.0
N977 N 0.76596 0.90704 0.30628 0.0
N978 N 0.70026 0.9676 0.30152 0.0
C979 C 0.72591 0.96952 0.32851 0.0
C980 C 0.76179 0.93651 0.33111 0.0
C981 C 0.94439 0.96351 0.09953 0.0
C982 C 0.93391 1.00797 0.10984 0.0
C983 C 0.91082 0.92921 0.09796 0.0
C984 C 0.86541 0.93807 0.10639 0.0
H985 H 0.97884 0.95492 0.09324 0.0
H986 H 0.92031 0.89574 0.08954 0.0
S987 S 0.81953 0.04898 0.13308 0.0
N988 N 0.87381 0.05865 0.12744 0.0
N989 N 0.81187 0.99497 0.12424 0.0
C990 C 0.85456 0.98236 0.11617 0.0
C991 C 0.88842 1.01697 0.11799 0.0
C992 C 0.76975 0.47431 0.63555 0.0
C993 C 0.72943 0.49937 0.63207 0.0
C994 C 0.78569 0.44814 0.61022 0.0
C995 C 0.76568 0.45177 0.57969 0.0
H996 H 0.78471 0.46883 0.65892 0.0
H997 H 0.81037 0.42223 0.61592 0.0
S998 S 0.68439 0.53996 0.55348 0.0
N999 N 0.68361 0.5418 0.59296 0.0
N1000 N 0.72312 0.5018 0.54437 0.0
C1001 C 0.73678 0.48876 0.57411 0.0
C1002 C 0.7164 0.51118 0.60048 0.0
C1003 C 0.87112 0.44052 0.86035 0.0
C1004 C 0.88498 0.44823 0.89212 0.0
C1005 C 0.89556 0.45897 0.83531 0.0
C1006 C 0.93554 0.48291 0.84155 0.0
H1007 H 0.84606 0.41545 0.85417 0.0
H1008 H 0.88633 0.4495 0.81117 0.0
S1009 S 0.96661 0.53424 0.91988 0.0
N1010 N 0.92252 0.502 0.92746 0.0
N1011 N 0.97644 0.5283 0.88121 0.0
C1012 C 0.94243 0.49991 0.87268 0.0
C1013 C 0.91414 0.48489 0.89778 0.0
C1014 C 0.91197 0.60653 0.12106 0.0
C1015 C 0.95413 0.62667 0.12674 0.0
C1016 C 0.88461 0.62169 0.09587 0.0
C1017 C 0.89921 0.65731 0.07645 0.0
H1018 H 0.90003 0.57958 0.13644 0.0
H1019 H 0.85221 0.60584 0.09162 0.0
S1020 S 1.00767 0.71987 0.08217 0.0
N1021 N 1.01001 0.68209 0.11125 0.0
N1022 N 0.95824 0.71232 0.06459 0.0
C1023 C 0.94155 0.67748 0.08222 0.0
C1024 C 0.96931 0.66156 0.10727 0.0
C1025 C 0.68656 0.62574 0.35094 0.0
C1026 C 0.7166 0.60297 0.33046 0.0
C1027 C 0.70221 0.64895 0.37751 0.0
C1028 C 0.74846 0.64991 0.38481 0.0
H1029 H 0.65079 0.62774 0.34541 0.0
H1030 H 0.67797 0.66782 0.39174 0.0
S1031 S 0.84017 0.59196 0.34075 0.0
N1032 N 0.79407 0.58049 0.31983 0.0
N1033 N 0.82395 0.62407 0.37106 0.0
C1034 C 0.77887 0.62622 0.36522 0.0
C1035 C 0.76279 0.60265 0.33771 0.0
C1036 C 0.37966 0.63132 0.33313 0.0
C1037 C 0.36709 0.64727 0.36367 0.0
C1038 C 0.41308 0.59726 0.32937 0.0
C1039 C 0.43626 0.57821 0.35587 0.0
H1040 H 0.36256 0.64415 0.312 0.0
H1041 H 0.42062 0.58559 0.30537 0.0
S1042 S 0.41833 0.61052 0.44071 0.0
N1043 N 0.38204 0.64253 0.42077 0.0
N1044 N 0.44503 0.57976 0.41362 0.0
C1045 C 0.42504 0.59505 0.38637 0.0
C1046 C 0.39047 0.62907 0.39025 0.0
C1047 C 0.23983 0.59316 0.08104 0.0
C1048 C 0.21424 0.58885 0.10906 0.0
C1049 C 0.27658 0.6235 0.0791 0.0
C1050 C 0.28838 0.65322 0.10444 0.0
H1051 H 0.23203 0.57203 0.0607 0.0
H1052 H 0.29606 0.62335 0.05733 0.0
S1053 S 0.22456 0.66288 0.18059 0.0
N1054 N 0.19959 0.62077 0.16153 0.0
N1055 N 0.26597 0.67998 0.15714 0.0
C1056 C 0.26063 0.65159 0.13183 0.0
C1057 C 0.22431 0.61922 0.13423 0.0
C1058 C 0.28391 0.45809 0.83168 0.0
C1059 C 0.28736 0.43157 0.85953 0.0
C1060 C 0.25094 0.49264 0.82872 0.0
C1061 C 0.21923 0.50232 0.85326 0.0
H1062 H 0.30788 0.45325 0.81242 0.0
H1063 H 0.25088 0.5123 0.80685 0.0
S1064 S 0.21307 0.44085 0.93074 0.0
N1065 N 0.25579 0.41648 0.91196 0.0
N1066 N 0.19368 0.48056 0.90632 0.0
C1067 C 0.22201 0.47534 0.88107 0.0
C1068 C 0.25599 0.44039 0.88418 0.0
C1069 C 0.41121 0.42679 0.59593 0.0
C1070 C 0.3657 0.43419 0.6046 0.0
C1071 C 0.44375 0.46194 0.59778 0.0
C1072 C 0.43202 0.50589 0.60846 0.0
H1073 H 0.42158 0.39378 0.58716 0.0
H1074 H 0.47836 0.45444 0.59125 0.0
S1075 S 0.31619 0.54435 0.62989 0.0
N1076 N 0.31015 0.48998 0.62141 0.0
N1077 N 0.37037 0.55526 0.62508 0.0
C1078 C 0.38626 0.51378 0.61622 0.0
C1079 C 0.3534 0.47827 0.61419 0.0
loop_
_geom_bond_atom_site_label_1
_geom_bond_atom_site_label_2
_geom_bond_distance
_geom_bond_site_symmetry_2
_ccdc_geom_bond_type
O0 Tb1 2.292 1_455 S
O0 C3 1.255 . S
Tb1 O0 2.292 1_655 S
Tb1 O17 2.326 . S
Tb1 O19 2.500 . S
Tb1 O20 2.473 . S
Tb1 O23 2.324 1_545 S
Eu2 O6 2.292 . S
Eu2 C7 2.852 1_645 S
Eu2 O18 2.324 1_655 S
Eu2 O22 2.326 . S
Eu2 O24 2.500 1_645 S
Eu2 O25 2.473 1_655 S
C3 O0 1.255 . S
C3 O4 1.247 . S
O4 C3 1.247 . S
C5 O17 1.242 1_455 S
C5 O18 1.258 . S
O6 Eu2 2.292 . S
O6 C8 1.255 . S
C7 Eu2 2.852 1_465 S
C7 C11 1.503 . S
C7 O24 1.273 . S
C7 O25 1.257 1_565 S
C8 O6 1.255 . S
C8 O9 1.247 . S
O9 C8 1.247 . S
C10 O22 1.242 1_565 S
C10 O23 1.258 . S
C11 C7 1.503 . S
C11 C12 1.379 . S
C11 C16 1.392 . S
C12 C11 1.379 . S
C12 C13 1.404 . S
C12 H26 0.929 . S
C13 C12 1.404 . S
C13 C14 1.389 . S
C14 C13 1.389 . S
C14 C15 1.399 . S
C14 H27 0.931 . S
C15 C14 1.399 . S
C15 C16 1.390 . S
C16 C11 1.392 . S
C16 C15 1.390 . S
C16 H28 0.929 . S
O17 Tb1 2.326 . S
O17 C5 1.242 1_655 S
O18 Eu2 2.324 1_455 S
O18 C5 1.258 . S
O19 Tb1 2.500 . S
O19 C21 1.273 . S
O20 Tb1 2.473 . S
O20 C21 1.257 . S
C21 O19 1.273 . S
C21 O20 1.257 . S
O22 Eu2 2.326 . S
O22 C10 1.242 1_545 S
O23 Tb1 2.324 1_565 S
O23 C10 1.258 . S
O24 Eu2 2.500 1_465 S
O24 C7 1.273 . S
O25 Eu2 2.473 1_455 S
O25 C7 1.257 1_545 S
H26 C12 0.929 . S
H27 C14 0.931 . S
H28 C16 0.929 . S
O29 Tb30 2.292 . S
O29 C32 1.255 . S
Tb30 O29 2.292 . S
Tb30 O46 2.326 . S
Tb30 O48 2.500 . S
Tb30 O49 2.473 . S
Tb30 O52 2.324 . S
Eu31 O35 2.292 . S
Eu31 C36 2.852 . S
Eu31 O47 2.324 . S
Eu31 O51 2.326 . S
Eu31 O53 2.500 . S
Eu31 O54 2.473 . S
C32 O29 1.255 . S
C32 O33 1.247 . S
O33 C32 1.247 . S
C34 O46 1.242 . S
C34 O47 1.258 . S
O35 Eu31 2.292 . S
O35 C37 1.255 . S
C36 Eu31 2.852 . S
C36 C40 1.503 . S
C36 O53 1.273 . S
C36 O54 1.257 . S
C37 O35 1.255 . S
C37 O38 1.247 . S
O38 C37 1.247 . S
C39 O51 1.242 . S
C39 O52 1.258 . S
C40 C36 1.503 . S
C40 C41 1.379 . S
C40 C45 1.392 . S
C41 C40 1.379 . S
C41 C42 1.404 . S
C41 H55 0.929 . S
C42 C41 1.404 . S
C42 C43 1.389 . S
C43 C42 1.389 . S
C43 C44 1.399 . S
C43 H56 0.931 . S
C44 C43 1.399 . S
C44 C45 1.390 . S
C45 C40 1.392 . S
C45 C44 1.390 . S
C45 H57 0.929 . S
O46 Tb30 2.326 . S
O46 C34 1.242 . S
O47 Eu31 2.324 . S
O47 C34 1.258 . S
O48 Tb30 2.500 . S
O48 C50 1.273 . S
O49 Tb30 2.473 . S
O49 C50 1.257 . S
C50 O48 1.273 . S
C50 O49 1.257 . S
O51 Eu31 2.326 . S
O51 C39 1.242 . S
O52 Tb30 2.324 . S
O52 C39 1.258 . S
O53 Eu31 2.500 . S
O53 C36 1.273 . S
O54 Eu31 2.473 . S
O54 C36 1.257 . S
H55 C41 0.929 . S
H56 C43 0.931 . S
H57 C45 0.929 . S
O58 Tb59 2.292 . S
O58 C61 1.255 . S
Tb59 O58 2.292 . S
Tb59 O75 2.326 . S
Tb59 O77 2.500 . S
Tb59 O78 2.473 . S
Tb59 O81 2.324 1_565 S
Eu60 O64 2.292 . S
Eu60 C65 2.852 1_565 S
Eu60 O76 2.324 . S
Eu60 O80 2.326 . S
Eu60 O82 2.500 1_565 S
Eu60 O83 2.473 . S
C61 O58 1.255 . S
C61 O62 1.247 . S
O62 C61 1.247 . S
C63 O75 1.242 . S
C63 O76 1.258 . S
O64 Eu60 2.292 . S
O64 C66 1.255 . S
C65 Eu60 2.852 1_545 S
C65 C69 1.503 . S
C65 O82 1.273 . S
C65 O83 1.257 1_545 S
C66 O64 1.255 . S
C66 O67 1.247 . S
O67 C66 1.247 . S
C68 O80 1.242 1_545 S
C68 O81 1.258 . S
C69 C65 1.503 . S
C69 C70 1.379 . S
C69 C74 1.392 . S
C70 C69 1.379 . S
C70 C71 1.404 . S
C70 H84 0.929 . S
C71 C70 1.404 . S
C71 C72 1.389 . S
C72 C71 1.389 . S
C72 C73 1.399 . S
C72 H85 0.931 . S
C73 C72 1.399 . S
C73 C74 1.390 . S
C74 C69 1.392 . S
C74 C73 1.390 . S
C74 H86 0.929 . S
O75 Tb59 2.326 . S
O75 C63 1.242 . S
O76 Eu60 2.324 . S
O76 C63 1.258 . S
O77 Tb59 2.500 . S
O77 C79 1.273 . S
O78 Tb59 2.473 . S
O78 C79 1.257 . S
C79 O77 1.273 . S
C79 O78 1.257 . S
O80 Eu60 2.326 . S
O80 C68 1.242 1_565 S
O81 Tb59 2.324 1_545 S
O81 C68 1.258 . S
O82 Eu60 2.500 1_545 S
O82 C65 1.273 . S
O83 Eu60 2.473 . S
O83 C65 1.257 1_565 S
H84 C70 0.929 . S
H85 C72 0.931 . S
H86 C74 0.929 . S
O87 Tb88 2.292 . S
O87 C90 1.255 . S
Tb88 O87 2.292 . S
Tb88 O104 2.326 . S
Tb88 O106 2.500 . S
Tb88 O107 2.473 . S
Tb88 O110 2.324 . S
Eu89 O93 2.292 . S
Eu89 C94 2.852 . S
Eu89 O105 2.324 . S
Eu89 O109 2.326 . S
Eu89 O111 2.500 . S
Eu89 O112 2.473 . S
C90 O87 1.255 . S
C90 O91 1.247 . S
O91 C90 1.247 . S
C92 O104 1.242 . S
C92 O105 1.258 . S
O93 Eu89 2.292 . S
O93 C95 1.255 . S
C94 Eu89 2.852 . S
C94 C98 1.503 . S
C94 O111 1.273 . S
C94 O112 1.257 . S
C95 O93 1.255 . S
C95 O96 1.247 . S
O96 C95 1.247 . S
C97 O109 1.242 . S
C97 O110 1.258 . S
C98 C94 1.503 . S
C98 C99 1.379 . S
C98 C103 1.392 . S
C99 C98 1.379 . S
C99 C100 1.404 . S
C99 H113 0.929 . S
C100 C99 1.404 . S
C100 C101 1.389 . S
C101 C100 1.389 . S
C101 C102 1.399 . S
C101 H114 0.931 . S
C102 C101 1.399 . S
C102 C103 1.390 . S
C103 C98 1.392 . S
C103 C102 1.390 . S
C103 H115 0.929 . S
O104 Tb88 2.326 . S
O104 C92 1.242 . S
O105 Eu89 2.324 . S
O105 C92 1.258 . S
O106 Tb88 2.500 . S
O106 C108 1.273 . S
O107 Tb88 2.473 . S
O107 C108 1.257 . S
C108 O106 1.273 . S
C108 O107 1.257 . S
O109 Eu89 2.326 . S
O109 C97 1.242 . S
O110 Tb88 2.324 . S
O110 C97 1.258 . S
O111 Eu89 2.500 . S
O111 C94 1.273 . S
O112 Eu89 2.473 . S
O112 C94 1.257 . S
H113 C99 0.929 . S
H114 C101 0.931 . S
H115 C103 0.929 . S
O116 Tb117 2.292 1_455 S
O116 C119 1.255 . S
Tb117 O116 2.292 1_655 S
Tb117 O133 2.326 . S
Tb117 O135 2.500 . S
Tb117 O136 2.473 . S
Tb117 O139 2.324 1_565 S
Eu118 O122 2.292 . S
Eu118 C123 2.852 1_665 S
Eu118 O134 2.324 1_655 S
Eu118 O138 2.326 . S
Eu118 O140 2.500 1_665 S
Eu118 O141 2.473 1_655 S
C119 O116 1.255 . S
C119 O120 1.247 . S
O120 C119 1.247 . S
C121 O133 1.242 1_455 S
C121 O134 1.258 . S
O122 Eu118 2.292 . S
O122 C124 1.255 . S
C123 Eu118 2.852 1_445 S
C123 C127 1.503 . S
C123 O140 1.273 . S
C123 O141 1.257 1_545 S
C124 O122 1.255 . S
C124 O125 1.247 . S
O125 C124 1.247 . S
C126 O138 1.242 1_545 S
C126 O139 1.258 . S
C127 C123 1.503 . S
C127 C128 1.379 . S
C127 C132 1.392 . S
C128 C127 1.379 . S
C128 C129 1.404 . S
C128 H142 0.929 . S
C129 C128 1.404 . S
C129 C130 1.389 . S
C130 C129 1.389 . S
C130 C131 1.399 . S
C130 H143 0.931 . S
C131 C130 1.399 . S
C131 C132 1.390 . S
C132 C127 1.392 . S
C132 C131 1.390 . S
C132 H144 0.929 . S
O133 Tb117 2.326 . S
O133 C121 1.242 1_655 S
O134 Eu118 2.324 1_455 S
O134 C121 1.258 . S
O135 Tb117 2.500 . S
O135 C137 1.273 . S
O136 Tb117 2.473 . S
O136 C137 1.257 . S
C137 O135 1.273 . S
C137 O136 1.257 . S
O138 Eu118 2.326 . S
O138 C126 1.242 1_565 S
O139 Tb117 2.324 1_545 S
O139 C126 1.258 . S
O140 Eu118 2.500 1_445 S
O140 C123 1.273 . S
O141 Eu118 2.473 1_455 S
O141 C123 1.257 1_565 S
H142 C128 0.929 . S
H143 C130 0.931 . S
H144 C132 0.929 . S
O145 Tb146 2.292 . S
O145 C148 1.255 . S
Tb146 O145 2.292 . S
Tb146 O162 2.326 . S
Tb146 O164 2.500 . S
Tb146 O165 2.473 . S
Tb146 O168 2.324 . S
Eu147 O151 2.292 . S
Eu147 C152 2.852 . S
Eu147 O163 2.324 . S
Eu147 O167 2.326 . S
Eu147 O169 2.500 . S
Eu147 O170 2.473 . S
C148 O145 1.255 . S
C148 O149 1.247 . S
O149 C148 1.247 . S
C150 O162 1.242 . S
C150 O163 1.258 . S
O151 Eu147 2.292 . S
O151 C153 1.255 . S
C152 Eu147 2.852 . S
C152 C156 1.503 . S
C152 O169 1.273 . S
C152 O170 1.257 . S
C153 O151 1.255 . S
C153 O154 1.247 . S
O154 C153 1.247 . S
C155 O167 1.242 . S
C155 O168 1.258 . S
C156 C152 1.503 . S
C156 C157 1.379 . S
C156 C161 1.392 . S
C157 C156 1.379 . S
C157 C158 1.404 . S
C157 H171 0.929 . S
C158 C157 1.404 . S
C158 C159 1.389 . S
C159 C158 1.389 . S
C159 C160 1.399 . S
C159 H172 0.931 . S
C160 C159 1.399 . S
C160 C161 1.390 . S
C161 C156 1.392 . S
C161 C160 1.390 . S
C161 H173 0.929 . S
O162 Tb146 2.326 . S
O162 C150 1.242 . S
O163 Eu147 2.324 . S
O163 C150 1.258 . S
O164 Tb146 2.500 . S
O164 C166 1.273 . S
O165 Tb146 2.473 . S
O165 C166 1.257 . S
C166 O164 1.273 . S
C166 O165 1.257 . S
O167 Eu147 2.326 . S
O167 C155 1.242 . S
O168 Tb146 2.324 . S
O168 C155 1.258 . S
O169 Eu147 2.500 . S
O169 C152 1.273 . S
O170 Eu147 2.473 . S
O170 C152 1.257 . S
H171 C157 0.929 . S
H172 C159 0.931 . S
H173 C161 0.929 . S
O174 Tb175 2.292 . S
O174 C177 1.255 . S
Tb175 O174 2.292 . S
Tb175 O191 2.326 . S
Tb175 O193 2.500 . S
Tb175 O194 2.473 . S
Tb175 O197 2.324 1_545 S
Eu176 O180 2.292 . S
Eu176 C181 2.852 1_545 S
Eu176 O192 2.324 . S
Eu176 O196 2.326 . S
Eu176 O198 2.500 1_545 S
Eu176 O199 2.473 . S
C177 O174 1.255 . S
C177 O178 1.247 . S
O178 C177 1.247 . S
C179 O191 1.242 . S
C179 O192 1.258 . S
O180 Eu176 2.292 . S
O180 C182 1.255 . S
C181 Eu176 2.852 1_565 S
C181 C185 1.503 . S
C181 O198 1.273 . S
C181 O199 1.257 1_565 S
C182 O180 1.255 . S
C182 O183 1.247 . S
O183 C182 1.247 . S
C184 O196 1.242 1_565 S
C184 O197 1.258 . S
C185 C181 1.503 . S
C185 C186 1.379 . S
C185 C190 1.392 . S
C186 C185 1.379 . S
C186 C187 1.404 . S
C186 H200 0.929 . S
C187 C186 1.404 . S
C187 C188 1.389 . S
C188 C187 1.389 . S
C188 C189 1.399 . S
C188 H201 0.931 . S
C189 C188 1.399 . S
C189 C190 1.390 . S
C190 C185 1.392 . S
C190 C189 1.390 . S
C190 H202 0.929 . S
O191 Tb175 2.326 . S
O191 C179 1.242 . S
O192 Eu176 2.324 . S
O192 C179 1.258 . S
O193 Tb175 2.500 . S
O193 C195 1.273 . S
O194 Tb175 2.473 . S
O194 C195 1.257 . S
C195 O193 1.273 . S
C195 O194 1.257 . S
O196 Eu176 2.326 . S
O196 C184 1.242 1_545 S
O197 Tb175 2.324 1_565 S
O197 C184 1.258 . S
O198 Eu176 2.500 1_565 S
O198 C181 1.273 . S
O199 Eu176 2.473 . S
O199 C181 1.257 1_545 S
H200 C186 0.929 . S
H201 C188 0.931 . S
H202 C190 0.929 . S
O203 Tb204 2.292 . S
O203 C206 1.255 . S
Tb204 O203 2.292 . S
Tb204 O220 2.326 . S
Tb204 O222 2.500 . S
Tb204 O223 2.473 . S
Tb204 O226 2.324 . S
Eu205 O209 2.292 . S
Eu205 C210 2.852 . S
Eu205 O221 2.324 . S
Eu205 O225 2.326 . S
Eu205 O227 2.500 . S
Eu205 O228 2.473 . S
C206 O203 1.255 . S
C206 O207 1.247 . S
O207 C206 1.247 . S
C208 O220 1.242 . S
C208 O221 1.258 . S
O209 Eu205 2.292 . S
O209 C211 1.255 . S
C210 Eu205 2.852 . S
C210 C214 1.503 . S
C210 O227 1.273 . S
C210 O228 1.257 . S
C211 O209 1.255 . S
C211 O212 1.247 . S
O212 C211 1.247 . S
C213 O225 1.242 . S
C213 O226 1.258 . S
C214 C210 1.503 . S
C214 C215 1.379 . S
C214 C219 1.392 . S
C215 C214 1.379 . S
C215 C216 1.404 . S
C215 H229 0.929 . S
C216 C215 1.404 . S
C216 C217 1.389 . S
C217 C216 1.389 . S
C217 C218 1.399 . S
C217 H230 0.931 . S
C218 C217 1.399 . S
C218 C219 1.390 . S
C219 C214 1.392 . S
C219 C218 1.390 . S
C219 H231 0.929 . S
O220 Tb204 2.326 . S
O220 C208 1.242 . S
O221 Eu205 2.324 . S
O221 C208 1.258 . S
O222 Tb204 2.500 . S
O222 C224 1.273 . S
O223 Tb204 2.473 . S
O223 C224 1.257 . S
C224 O222 1.273 . S
C224 O223 1.257 . S
O225 Eu205 2.326 . S
O225 C213 1.242 . S
O226 Tb204 2.324 . S
O226 C213 1.258 . S
O227 Eu205 2.500 . S
O227 C210 1.273 . S
O228 Eu205 2.473 . S
O228 C210 1.257 . S
H229 C215 0.929 . S
H230 C217 0.931 . S
H231 C219 0.929 . S
O232 Tb233 2.292 . S
O232 C235 1.255 . S
Tb233 O232 2.292 . S
Tb233 O249 2.326 . S
Tb233 O251 2.500 . S
Tb233 O252 2.473 . S
Tb233 O255 2.324 . S
Eu234 O238 2.292 . S
Eu234 C239 2.852 . S
Eu234 O250 2.324 . S
Eu234 O254 2.326 . S
Eu234 O256 2.500 . S
Eu234 O257 2.473 . S
C235 O232 1.255 . S
C235 O236 1.247 . S
O236 C235 1.247 . S
C237 O249 1.242 . S
C237 O250 1.258 . S
O238 Eu234 2.292 . S
O238 C240 1.255 . S
C239 Eu234 2.852 . S
C239 C243 1.503 . S
C239 O256 1.273 . S
C239 O257 1.257 . S
C240 O238 1.255 . S
C240 O241 1.247 . S
O241 C240 1.247 . S
C242 O254 1.242 . S
C242 O255 1.258 . S
C243 C239 1.503 . S
C243 C244 1.379 . S
C243 C248 1.392 . S
C244 C243 1.379 . S
C244 C245 1.404 . S
C244 H258 0.929 . S
C245 C244 1.404 . S
C245 C246 1.389 . S
C246 C245 1.389 . S
C246 C247 1.399 . S
C246 H259 0.931 . S
C247 C246 1.399 . S
C247 C248 1.390 . S
C248 C243 1.392 . S
C248 C247 1.390 . S
C248 H260 0.929 . S
O249 Tb233 2.326 . S
O249 C237 1.242 . S
O250 Eu234 2.324 . S
O250 C237 1.258 . S
O251 Tb233 2.500 . S
O251 C253 1.273 . S
O252 Tb233 2.473 . S
O252 C253 1.257 . S
C253 O251 1.273 . S
C253 O252 1.257 . S
O254 Eu234 2.326 . S
O254 C242 1.242 . S
O255 Tb233 2.324 . S
O255 C242 1.258 . S
O256 Eu234 2.500 . S
O256 C239 1.273 . S
O257 Eu234 2.473 . S
O257 C239 1.257 . S
H258 C244 0.929 . S
H259 C246 0.931 . S
H260 C248 0.929 . S
O261 Tb262 2.292 . S
O261 C264 1.255 . S
Tb262 O261 2.292 . S
Tb262 O278 2.326 . S
Tb262 O280 2.500 . S
Tb262 O281 2.473 . S
Tb262 O284 2.324 . S
Eu263 O267 2.292 . S
Eu263 C268 2.852 . S
Eu263 O279 2.324 . S
Eu263 O283 2.326 . S
Eu263 O285 2.500 . S
Eu263 O286 2.473 . S
C264 O261 1.255 . S
C264 O265 1.247 . S
O265 C264 1.247 . S
C266 O278 1.242 . S
C266 O279 1.258 . S
O267 Eu263 2.292 . S
O267 C269 1.255 . S
C268 Eu263 2.852 . S
C268 C272 1.503 . S
C268 O285 1.273 . S
C268 O286 1.257 . S
C269 O267 1.255 . S
C269 O270 1.247 . S
O270 C269 1.247 . S
C271 O283 1.242 . S
C271 O284 1.258 . S
C272 C268 1.503 . S
C272 C273 1.379 . S
C272 C277 1.392 . S
C273 C272 1.379 . S
C273 C274 1.404 . S
C273 H287 0.929 . S
C274 C273 1.404 . S
C274 C275 1.389 . S
C275 C274 1.389 . S
C275 C276 1.399 . S
C275 H288 0.931 . S
C276 C275 1.399 . S
C276 C277 1.390 . S
C277 C272 1.392 . S
C277 C276 1.390 . S
C277 H289 0.929 . S
O278 Tb262 2.326 . S
O278 C266 1.242 . S
O279 Eu263 2.324 . S
O279 C266 1.258 . S
O280 Tb262 2.500 . S
O280 C282 1.273 . S
O281 Tb262 2.473 . S
O281 C282 1.257 . S
C282 O280 1.273 . S
C282 O281 1.257 . S
O283 Eu263 2.326 . S
O283 C271 1.242 . S
O284 Tb262 2.324 . S
O284 C271 1.258 . S
O285 Eu263 2.500 . S
O285 C268 1.273 . S
O286 Eu263 2.473 . S
O286 C268 1.257 . S
H287 C273 0.929 . S
H288 C275 0.931 . S
H289 C277 0.929 . S
O290 Tb291 2.292 . S
O290 C293 1.255 . S
Tb291 O290 2.292 . S
Tb291 O307 2.326 . S
Tb291 O309 2.500 . S
Tb291 O310 2.473 . S
Tb291 O313 2.324 . S
Eu292 O296 2.292 . S
Eu292 C297 2.852 . S
Eu292 O308 2.324 . S
Eu292 O312 2.326 . S
Eu292 O314 2.500 . S
Eu292 O315 2.473 . S
C293 O290 1.255 . S
C293 O294 1.247 . S
O294 C293 1.247 . S
C295 O307 1.242 . S
C295 O308 1.258 . S
O296 Eu292 2.292 . S
O296 C298 1.255 . S
C297 Eu292 2.852 . S
C297 C301 1.503 . S
C297 O314 1.273 . S
C297 O315 1.257 . S
C298 O296 1.255 . S
C298 O299 1.247 . S
O299 C298 1.247 . S
C300 O312 1.242 . S
C300 O313 1.258 . S
C301 C297 1.503 . S
C301 C302 1.379 . S
C301 C306 1.392 . S
C302 C301 1.379 . S
C302 C303 1.404 . S
C302 H316 0.929 . S
C303 C302 1.404 . S
C303 C304 1.389 . S
C304 C303 1.389 . S
C304 C305 1.399 . S
C304 H317 0.931 . S
C305 C304 1.399 . S
C305 C306 1.390 . S
C306 C301 1.392 . S
C306 C305 1.390 . S
C306 H318 0.929 . S
O307 Tb291 2.326 . S
O307 C295 1.242 . S
O308 Eu292 2.324 . S
O308 C295 1.258 . S
O309 Tb291 2.500 . S
O309 C311 1.273 . S
O310 Tb291 2.473 . S
O310 C311 1.257 . S
C311 O309 1.273 . S
C311 O310 1.257 . S
O312 Eu292 2.326 . S
O312 C300 1.242 . S
O313 Tb291 2.324 . S
O313 C300 1.258 . S
O314 Eu292 2.500 . S
O314 C297 1.273 . S
O315 Eu292 2.473 . S
O315 C297 1.257 . S
H316 C302 0.929 . S
H317 C304 0.931 . S
H318 C306 0.929 . S
O319 Tb320 2.292 . S
O319 C322 1.255 . S
Tb320 O319 2.292 . S
Tb320 O336 2.326 . S
Tb320 O338 2.500 . S
Tb320 O339 2.473 . S
Tb320 O342 2.324 . S
Eu321 O325 2.292 . S
Eu321 C326 2.852 . S
Eu321 O337 2.324 . S
Eu321 O341 2.326 . S
Eu321 O343 2.500 . S
Eu321 O344 2.473 . S
C322 O319 1.255 . S
C322 O323 1.247 . S
O323 C322 1.247 . S
C324 O336 1.242 . S
C324 O337 1.258 . S
O325 Eu321 2.292 . S
O325 C327 1.255 . S
C326 Eu321 2.852 . S
C326 C330 1.503 . S
C326 O343 1.273 . S
C326 O344 1.257 . S
C327 O325 1.255 . S
C327 O328 1.247 . S
O328 C327 1.247 . S
C329 O341 1.242 . S
C329 O342 1.258 . S
C330 C326 1.503 . S
C330 C331 1.379 . S
C330 C335 1.392 . S
C331 C330 1.379 . S
C331 C332 1.404 . S
C331 H345 0.929 . S
C332 C331 1.404 . S
C332 C333 1.389 . S
C333 C332 1.389 . S
C333 C334 1.399 . S
C333 H346 0.931 . S
C334 C333 1.399 . S
C334 C335 1.390 . S
C335 C330 1.392 . S
C335 C334 1.390 . S
C335 H347 0.929 . S
O336 Tb320 2.326 . S
O336 C324 1.242 . S
O337 Eu321 2.324 . S
O337 C324 1.258 . S
O338 Tb320 2.500 . S
O338 C340 1.273 . S
O339 Tb320 2.473 . S
O339 C340 1.257 . S
C340 O338 1.273 . S
C340 O339 1.257 . S
O341 Eu321 2.326 . S
O341 C329 1.242 . S
O342 Tb320 2.324 . S
O342 C329 1.258 . S
O343 Eu321 2.500 . S
O343 C326 1.273 . S
O344 Eu321 2.473 . S
O344 C326 1.257 . S
H345 C331 0.929 . S
H346 C333 0.931 . S
H347 C335 0.929 . S
O348 Tb349 2.292 . S
O348 C351 1.255 . S
Tb349 O348 2.292 . S
Tb349 O365 2.326 . S
Tb349 O367 2.500 . S
Tb349 O368 2.473 . S
Tb349 O371 2.324 . S
Eu350 O354 2.292 . S
Eu350 C355 2.852 . S
Eu350 O366 2.324 . S
Eu350 O370 2.326 . S
Eu350 O372 2.500 . S
Eu350 O373 2.473 . S
C351 O348 1.255 . S
C351 O352 1.247 . S
O352 C351 1.247 . S
C353 O365 1.242 . S
C353 O366 1.258 . S
O354 Eu350 2.292 . S
O354 C356 1.255 . S
C355 Eu350 2.852 . S
C355 C359 1.503 . S
C355 O372 1.273 . S
C355 O373 1.257 . S
C356 O354 1.255 . S
C356 O357 1.247 . S
O357 C356 1.247 . S
C358 O370 1.242 . S
C358 O371 1.258 . S
C359 C355 1.503 . S
C359 C360 1.379 . S
C359 C364 1.392 . S
C360 C359 1.379 . S
C360 C361 1.404 . S
C360 H374 0.929 . S
C361 C360 1.404 . S
C361 C362 1.389 . S
C362 C361 1.389 . S
C362 C363 1.399 . S
C362 H375 0.931 . S
C363 C362 1.399 . S
C363 C364 1.390 . S
C364 C359 1.392 . S
C364 C363 1.390 . S
C364 H376 0.929 . S
O365 Tb349 2.326 . S
O365 C353 1.242 . S
O366 Eu350 2.324 . S
O366 C353 1.258 . S
O367 Tb349 2.500 . S
O367 C369 1.273 . S
O368 Tb349 2.473 . S
O368 C369 1.257 . S
C369 O367 1.273 . S
C369 O368 1.257 . S
O370 Eu350 2.326 . S
O370 C358 1.242 . S
O371 Tb349 2.324 . S
O371 C358 1.258 . S
O372 Eu350 2.500 . S
O372 C355 1.273 . S
O373 Eu350 2.473 . S
O373 C355 1.257 . S
H374 C360 0.929 . S
H375 C362 0.931 . S
H376 C364 0.929 . S
O377 Tb378 2.292 . S
O377 C380 1.255 . S
Tb378 O377 2.292 . S
Tb378 O394 2.326 . S
Tb378 O396 2.500 . S
Tb378 O397 2.473 . S
Tb378 O400 2.324 . S
Eu379 O383 2.292 . S
Eu379 C384 2.852 . S
Eu379 O395 2.324 . S
Eu379 O399 2.326 . S
Eu379 O401 2.500 . S
Eu379 O402 2.473 . S
C380 O377 1.255 . S
C380 O381 1.247 1_455 S
O381 C380 1.247 1_655 S
C382 O394 1.242 . S
C382 O395 1.258 . S
O383 Eu379 2.292 . S
O383 C385 1.255 . S
C384 Eu379 2.852 . S
C384 C388 1.503 1_455 S
C384 O401 1.273 . S
C384 O402 1.257 . S
C385 O383 1.255 . S
C385 O386 1.247 . S
O386 C385 1.247 . S
C387 O399 1.242 . S
C387 O400 1.258 . S
C388 C384 1.503 1_655 S
C388 C389 1.379 . S
C388 C393 1.392 . S
C389 C388 1.379 . S
C389 C390 1.404 . S
C389 H403 0.929 . S
C390 C389 1.404 . S
C390 C391 1.389 . S
C391 C390 1.389 . S
C391 C392 1.399 . S
C391 H404 0.931 . S
C392 C391 1.399 . S
C392 C393 1.401 . S
C393 C388 1.392 . S
C393 C392 1.401 . S
C393 H405 0.916 1_655 S
O394 Tb378 2.326 . S
O394 C382 1.242 . S
O395 Eu379 2.324 . S
O395 C382 1.258 . S
O396 Tb378 2.500 . S
O396 C398 1.273 . S
O397 Tb378 2.473 . S
O397 C398 1.257 . S
C398 O396 1.273 . S
C398 O397 1.257 . S
O399 Eu379 2.326 . S
O399 C387 1.242 . S
O400 Tb378 2.324 . S
O400 C387 1.258 . S
O401 Eu379 2.500 . S
O401 C384 1.273 . S
O402 Eu379 2.473 . S
O402 C384 1.257 . S
H403 C389 0.929 . S
H404 C391 0.931 . S
H405 C393 0.916 1_455 S
O406 Tb407 2.292 . S
O406 C409 1.255 . S
Tb407 O406 2.292 . S
Tb407 O423 2.326 . S
Tb407 O425 2.500 . S
Tb407 O426 2.473 . S
Tb407 O429 2.324 . S
Eu408 O412 2.292 . S
Eu408 C413 2.852 . S
Eu408 O424 2.324 . S
Eu408 O428 2.326 . S
Eu408 O430 2.500 . S
Eu408 O431 2.473 . S
C409 O406 1.255 . S
C409 O410 1.247 . S
O410 C409 1.247 . S
C411 O423 1.242 . S
C411 O424 1.258 . S
O412 Eu408 2.292 . S
O412 C414 1.255 . S
C413 Eu408 2.852 . S
C413 C417 1.503 . S
C413 O430 1.273 . S
C413 O431 1.257 . S
C414 O412 1.255 . S
C414 O415 1.247 . S
O415 C414 1.247 . S
C416 O428 1.242 . S
C416 O429 1.258 . S
C417 C413 1.503 . S
C417 C418 1.379 . S
C417 C422 1.392 . S
C418 C417 1.379 . S
C418 C419 1.404 . S
C418 H432 0.929 . S
C419 C418 1.404 . S
C419 C420 1.389 . S
C420 C419 1.389 . S
C420 C421 1.399 . S
C420 H433 0.931 . S
C421 C420 1.399 . S
C421 C422 1.390 . S
C422 C417 1.392 . S
C422 C421 1.390 . S
C422 H434 0.929 . S
O423 Tb407 2.326 . S
O423 C411 1.242 . S
O424 Eu408 2.324 . S
O424 C411 1.258 . S
O425 Tb407 2.500 . S
O425 C427 1.273 . S
O426 Tb407 2.473 . S
O426 C427 1.257 . S
C427 O425 1.273 . S
C427 O426 1.257 . S
O428 Eu408 2.326 . S
O428 C416 1.242 . S
O429 Tb407 2.324 . S
O429 C416 1.258 . S
O430 Eu408 2.500 . S
O430 C413 1.273 . S
O431 Eu408 2.473 . S
O431 C413 1.257 . S
H432 C418 0.929 . S
H433 C420 0.931 . S
H434 C422 0.929 . S
O435 Tb436 2.292 . S
O435 C438 1.255 . S
Tb436 O435 2.292 . S
Tb436 O452 2.326 . S
Tb436 O454 2.500 . S
Tb436 O455 2.473 . S
Tb436 O458 2.324 . S
Eu437 O441 2.292 . S
Eu437 C442 2.852 . S
Eu437 O453 2.324 . S
Eu437 O457 2.326 . S
Eu437 O459 2.500 . S
Eu437 O460 2.473 . S
C438 O435 1.255 . S
C438 O439 1.247 1_455 S
O439 C438 1.247 1_655 S
C440 O452 1.242 . S
C440 O453 1.258 . S
O441 Eu437 2.292 . S
O441 C443 1.255 . S
C442 Eu437 2.852 . S
C442 C446 1.503 1_455 S
C442 O459 1.273 . S
C442 O460 1.257 . S
C443 O441 1.255 . S
C443 O444 1.247 . S
O444 C443 1.247 . S
C445 O457 1.242 . S
C445 O458 1.258 . S
C446 C442 1.503 1_655 S
C446 C447 1.379 . S
C446 C451 1.392 . S
C447 C446 1.379 . S
C447 C448 1.404 . S
C447 H461 0.929 . S
C448 C447 1.404 . S
C448 C449 1.389 . S
C449 C448 1.389 . S
C449 C450 1.399 . S
C449 H462 0.931 . S
C450 C449 1.399 . S
C450 C451 1.401 . S
C451 C446 1.392 . S
C451 C450 1.401 . S
C451 H463 0.916 1_655 S
O452 Tb436 2.326 . S
O452 C440 1.242 . S
O453 Eu437 2.324 . S
O453 C440 1.258 . S
O454 Tb436 2.500 . S
O454 C456 1.273 . S
O455 Tb436 2.473 . S
O455 C456 1.257 . S
C456 O454 1.273 . S
C456 O455 1.257 . S
O457 Eu437 2.326 . S
O457 C445 1.242 . S
O458 Tb436 2.324 . S
O458 C445 1.258 . S
O459 Eu437 2.500 . S
O459 C442 1.273 . S
O460 Eu437 2.473 . S
O460 C442 1.257 . S
H461 C447 0.929 . S
H462 C449 0.931 . S
H463 C451 0.916 1_455 S
C464 C465 1.369 . S
C464 C466 1.419 . S
C464 H468 0.930 1_455 S
C465 C464 1.369 . S
C465 C474 1.429 . S
C466 C464 1.419 . S
C466 C467 1.363 . S
C466 H469 0.929 1_455 S
C467 C466 1.363 . S
C467 C473 1.428 . S
H468 C464 0.930 1_655 S
H469 C466 0.929 1_655 S
S470 N471 1.613 . S
S470 N472 1.610 . S
N471 S470 1.613 . S
N471 C474 1.350 . S
N472 S470 1.610 . S
N472 C473 1.351 . S
C473 C467 1.428 . S
C473 N472 1.351 . S
C473 C474 1.434 . S
C474 C465 1.429 . S
C474 N471 1.350 . S
C474 C473 1.434 . S
C475 C476 1.369 1_455 S
C475 C477 1.419 . S
C475 H479 0.930 . S
C476 C475 1.369 1_655 S
C476 C485 1.429 1_655 S
C477 C475 1.419 . S
C477 C478 1.363 . S
C477 H480 0.929 . S
C478 C477 1.363 . S
C478 C484 1.428 . S
H479 C475 0.930 . S
H480 C477 0.929 . S
S481 N482 1.613 1_455 S
S481 N483 1.610 . S
N482 S481 1.613 1_655 S
N482 C485 1.350 1_655 S
N483 S481 1.610 . S
N483 C484 1.351 . S
C484 C478 1.428 . S
C484 N483 1.351 . S
C484 C485 1.434 . S
C485 C476 1.429 1_455 S
C485 N482 1.350 1_455 S
C485 C484 1.434 . S
C486 C487 1.369 . S
C486 C488 1.419 . S
C486 H490 0.930 . S
C487 C486 1.369 . S
C487 C496 1.429 . S
C488 C486 1.419 . S
C488 C489 1.363 . S
C488 H491 0.929 . S
C489 C488 1.363 . S
C489 C495 1.428 . S
H490 C486 0.930 . S
H491 C488 0.929 . S
S492 N493 1.613 . S
S492 N494 1.610 . S
N493 S492 1.613 . S
N493 C496 1.350 . S
N494 S492 1.610 . S
N494 C495 1.351 . S
C495 C489 1.428 . S
C495 N494 1.351 . S
C495 C496 1.434 . S
C496 C487 1.429 . S
C496 N493 1.350 . S
C496 C495 1.434 . S
C497 C498 1.369 . S
C497 C499 1.419 . S
C497 H501 0.930 . S
C498 C497 1.369 . S
C498 C507 1.429 . S
C499 C497 1.419 . S
C499 C500 1.363 . S
C499 H502 0.929 . S
C500 C499 1.363 . S
C500 C506 1.428 . S
H501 C497 0.930 . S
H502 C499 0.929 . S
S503 N504 1.613 . S
S503 N505 1.610 . S
N504 S503 1.613 . S
N504 C507 1.350 . S
N505 S503 1.610 . S
N505 C506 1.351 . S
C506 C500 1.428 . S
C506 N505 1.351 . S
C506 C507 1.434 . S
C507 C498 1.429 . S
C507 N504 1.350 . S
C507 C506 1.434 . S
C508 C509 1.369 . S
C508 C510 1.419 . S
C508 H512 0.930 1_455 S
C509 C508 1.369 . S
C509 C518 1.429 . S
C510 C508 1.419 . S
C510 C511 1.363 . S
C510 H513 0.929 1_455 S
C511 C510 1.363 . S
C511 C517 1.428 . S
H512 C508 0.930 1_655 S
H513 C510 0.929 1_655 S
S514 N515 1.613 . S
S514 N516 1.610 . S
N515 S514 1.613 . S
N515 C518 1.350 . S
N516 S514 1.610 . S
N516 C517 1.351 . S
C517 C511 1.428 . S
C517 N516 1.351 . S
C517 C518 1.434 . S
C518 C509 1.429 . S
C518 N515 1.350 . S
C518 C517 1.434 . S
C519 C520 1.369 . S
C519 C521 1.419 . S
C519 H523 0.930 . S
C520 C519 1.369 . S
C520 C529 1.429 . S
C521 C519 1.419 . S
C521 C522 1.363 . S
C521 H524 0.929 . S
C522 C521 1.363 . S
C522 C528 1.428 . S
H523 C519 0.930 . S
H524 C521 0.929 . S
S525 N526 1.613 . S
S525 N527 1.610 . S
N526 S525 1.613 . S
N526 C529 1.350 . S
N527 S525 1.610 . S
N527 C528 1.351 . S
C528 C522 1.428 . S
C528 N527 1.351 . S
C528 C529 1.434 . S
C529 C520 1.429 . S
C529 N526 1.350 . S
C529 C528 1.434 . S
C530 C531 1.369 . S
C530 C532 1.419 . S
C530 H534 0.930 . S
C531 C530 1.369 . S
C531 C540 1.429 . S
C532 C530 1.419 . S
C532 C533 1.363 . S
C532 H535 0.929 . S
C533 C532 1.363 . S
C533 C539 1.428 . S
H534 C530 0.930 . S
H535 C532 0.929 . S
S536 N537 1.613 . S
S536 N538 1.610 . S
N537 S536 1.613 . S
N537 C540 1.350 . S
N538 S536 1.610 . S
N538 C539 1.351 . S
C539 C533 1.428 . S
C539 N538 1.351 . S
C539 C540 1.434 . S
C540 C531 1.429 . S
C540 N537 1.350 . S
C540 C539 1.434 . S
C541 C542 1.369 . S
C541 C543 1.419 . S
C541 H545 0.930 . S
C542 C541 1.369 . S
C542 C551 1.429 . S
C543 C541 1.419 . S
C543 C544 1.363 1_455 S
C543 H546 0.929 . S
C544 C543 1.363 1_655 S
C544 C550 1.428 1_655 S
H545 C541 0.930 . S
H546 C543 0.929 . S
S547 N548 1.613 . S
S547 N549 1.610 1_455 S
N548 S547 1.613 . S
N548 C551 1.350 . S
N549 S547 1.610 1_655 S
N549 C550 1.351 1_655 S
C550 C544 1.428 1_455 S
C550 N549 1.351 1_455 S
C550 C551 1.434 . S
C551 C542 1.429 . S
C551 N548 1.350 . S
C551 C550 1.434 . S
C552 C553 1.369 . S
C552 C554 1.419 . S
C552 H556 0.930 . S
C553 C552 1.369 . S
C553 C562 1.429 1_556 S
C554 C552 1.419 . S
C554 C555 1.363 1_556 S
C554 H557 0.929 . S
C555 C554 1.363 1_554 S
C555 C561 1.428 . S
H556 C552 0.930 . S
H557 C554 0.929 . S
S558 N559 1.613 . S
S558 N560 1.610 . S
N559 S558 1.613 . S
N559 C562 1.350 . S
N560 S558 1.610 . S
N560 C561 1.351 . S
C561 C555 1.428 . S
C561 N560 1.351 . S
C561 C562 1.434 . S
C562 C553 1.429 1_554 S
C562 N559 1.350 . S
C562 C561 1.434 . S
C563 C564 1.369 . S
C563 C565 1.419 . S
C563 H567 0.930 . S
C564 C563 1.369 . S
C564 C573 1.429 . S
C565 C563 1.419 . S
C565 C566 1.363 . S
C565 H568 0.929 . S
C566 C565 1.363 . S
C566 C572 1.428 . S
H567 C563 0.930 . S
H568 C565 0.929 . S
S569 N570 1.613 . S
S569 N571 1.610 . S
N570 S569 1.613 . S
N570 C573 1.350 . S
N571 S569 1.610 . S
N571 C572 1.351 . S
C572 C566 1.428 . S
C572 N571 1.351 . S
C572 C573 1.434 . S
C573 C564 1.429 . S
C573 N570 1.350 . S
C573 C572 1.434 . S
C574 C575 1.369 . S
C574 C576 1.419 . S
C574 H578 0.930 . S
C575 C574 1.369 . S
C575 C584 1.429 . S
C576 C574 1.419 . S
C576 C577 1.363 . S
C576 H579 0.929 . S
C577 C576 1.363 . S
C577 C583 1.428 . S
H578 C574 0.930 . S
H579 C576 0.929 . S
S580 N581 1.613 . S
S580 N582 1.610 . S
N581 S580 1.613 . S
N581 C584 1.350 . S
N582 S580 1.610 . S
N582 C583 1.351 . S
C583 C577 1.428 . S
C583 N582 1.351 . S
C583 C584 1.434 . S
C584 C575 1.429 . S
C584 N581 1.350 . S
C584 C583 1.434 . S
C585 C586 1.369 . S
C585 C587 1.419 . S
C585 H589 0.930 . S
C586 C585 1.369 . S
C586 C595 1.429 . S
C587 C585 1.419 . S
C587 C588 1.363 . S
C587 H590 0.929 . S
C588 C587 1.363 . S
C588 C594 1.428 . S
H589 C585 0.930 . S
H590 C587 0.929 . S
S591 N592 1.613 . S
S591 N593 1.610 . S
N592 S591 1.613 . S
N592 C595 1.350 . S
N593 S591 1.610 . S
N593 C594 1.351 . S
C594 C588 1.428 . S
C594 N593 1.351 . S
C594 C595 1.434 . S
C595 C586 1.429 . S
C595 N592 1.350 . S
C595 C594 1.434 . S
C596 C597 1.369 . S
C596 C598 1.419 1_554 S
C596 H600 0.930 . S
C597 C596 1.369 . S
C597 C606 1.429 1_554 S
C598 C596 1.419 1_556 S
C598 C599 1.363 . S
C598 H601 0.929 . S
C599 C598 1.363 . S
C599 C605 1.428 . S
H600 C596 0.930 . S
H601 C598 0.929 . S
S602 N603 1.613 . S
S602 N604 1.610 . S
N603 S602 1.613 . S
N603 C606 1.350 . S
N604 S602 1.610 . S
N604 C605 1.351 . S
C605 C599 1.428 . S
C605 N604 1.351 . S
C605 C606 1.434 . S
C606 C597 1.429 1_556 S
C606 N603 1.350 . S
C606 C605 1.434 . S
C607 C608 1.369 . S
C607 C609 1.419 . S
C607 H611 0.930 . S
C608 C607 1.369 . S
C608 C617 1.429 . S
C609 C607 1.419 . S
C609 C610 1.363 . S
C609 H612 0.929 . S
C610 C609 1.363 . S
C610 C616 1.428 . S
H611 C607 0.930 . S
H612 C609 0.929 . S
S613 N614 1.613 . S
S613 N615 1.610 . S
N614 S613 1.613 . S
N614 C617 1.350 . S
N615 S613 1.610 . S
N615 C616 1.351 . S
C616 C610 1.428 . S
C616 N615 1.351 . S
C616 C617 1.434 . S
C617 C608 1.429 . S
C617 N614 1.350 . S
C617 C616 1.434 . S
C618 C619 1.369 . S
C618 C620 1.419 . S
C618 H622 0.930 . S
C619 C618 1.369 . S
C619 C628 1.429 . S
C620 C618 1.419 . S
C620 C621 1.363 . S
C620 H623 0.929 . S
C621 C620 1.363 . S
C621 C627 1.428 . S
H622 C618 0.930 . S
H623 C620 0.929 . S
S624 N625 1.613 . S
S624 N626 1.610 . S
N625 S624 1.613 . S
N625 C628 1.350 . S
N626 S624 1.610 . S
N626 C627 1.351 . S
C627 C621 1.428 . S
C627 N626 1.351 . S
C627 C628 1.434 . S
C628 C619 1.429 . S
C628 N625 1.350 . S
C628 C627 1.434 . S
C629 C630 1.369 . S
C629 C631 1.419 . S
C629 H633 0.930 . S
C630 C629 1.369 . S
C630 C639 1.429 . S
C631 C629 1.419 . S
C631 C632 1.363 . S
C631 H634 0.929 . S
C632 C631 1.363 . S
C632 C638 1.428 . S
H633 C629 0.930 . S
H634 C631 0.929 . S
S635 N636 1.613 . S
S635 N637 1.610 . S
N636 S635 1.613 . S
N636 C639 1.350 . S
N637 S635 1.610 . S
N637 C638 1.351 . S
C638 C632 1.428 . S
C638 N637 1.351 . S
C638 C639 1.434 . S
C639 C630 1.429 . S
C639 N636 1.350 . S
C639 C638 1.434 . S
C640 C641 1.369 . S
C640 C642 1.419 1_556 S
C640 H644 0.930 . S
C641 C640 1.369 . S
C641 C650 1.429 . S
C642 C640 1.419 1_554 S
C642 C643 1.363 . S
C642 H645 0.929 . S
C643 C642 1.363 . S
C643 C649 1.428 1_554 S
H644 C640 0.930 . S
H645 C642 0.929 . S
S646 N647 1.613 . S
S646 N648 1.610 . S
N647 S646 1.613 . S
N647 C650 1.350 . S
N648 S646 1.610 . S
N648 C649 1.351 . S
C649 C643 1.428 1_556 S
C649 N648 1.351 . S
C649 C650 1.434 . S
C650 C641 1.429 . S
C650 N647 1.350 . S
C650 C649 1.434 . S
C651 C652 1.369 . S
C651 C653 1.419 . S
C651 H655 0.930 . S
C652 C651 1.369 . S
C652 C661 1.429 . S
C653 C651 1.419 . S
C653 C654 1.363 . S
C653 H656 0.929 . S
C654 C653 1.363 . S
C654 C660 1.428 . S
H655 C651 0.930 . S
H656 C653 0.929 . S
S657 N658 1.613 1_565 S
S657 N659 1.610 . S
N658 S657 1.613 1_545 S
N658 C661 1.350 . S
N659 S657 1.610 . S
N659 C660 1.351 1_565 S
C660 C654 1.428 . S
C660 N659 1.351 1_545 S
C660 C661 1.434 . S
C661 C652 1.429 . S
C661 N658 1.350 . S
C661 C660 1.434 . S
C662 C663 1.369 . S
C662 C664 1.419 . S
C662 H666 0.930 . S
C663 C662 1.369 . S
C663 C672 1.429 . S
C664 C662 1.419 . S
C664 C665 1.363 . S
C664 H667 0.929 . S
C665 C664 1.363 . S
C665 C671 1.428 . S
H666 C662 0.930 . S
H667 C664 0.929 . S
S668 N669 1.613 . S
S668 N670 1.610 . S
N669 S668 1.613 . S
N669 C672 1.350 . S
N670 S668 1.610 . S
N670 C671 1.351 . S
C671 C665 1.428 . S
C671 N670 1.351 . S
C671 C672 1.434 . S
C672 C663 1.429 . S
C672 N669 1.350 . S
C672 C671 1.434 . S
C673 C674 1.369 . S
C673 C675 1.419 . S
C673 H677 0.930 . S
C674 C673 1.369 . S
C674 C683 1.429 . S
C675 C673 1.419 . S
C675 C676 1.363 . S
C675 H678 0.929 . S
C676 C675 1.363 . S
C676 C682 1.428 . S
H677 C673 0.930 . S
H678 C675 0.929 . S
S679 N680 1.613 1_545 S
S679 N681 1.610 . S
N680 S679 1.613 1_565 S
N680 C683 1.350 . S
N681 S679 1.610 . S
N681 C682 1.351 1_545 S
C682 C676 1.428 . S
C682 N681 1.351 1_565 S
C682 C683 1.434 . S
C683 C674 1.429 . S
C683 N680 1.350 . S
C683 C682 1.434 . S
C684 C685 1.369 . S
C684 C686 1.419 1_556 S
C684 H688 0.930 . S
C685 C684 1.369 . S
C685 C694 1.429 1_556 S
C686 C684 1.419 1_554 S
C686 C687 1.363 . S
C686 H689 0.929 . S
C687 C686 1.363 . S
C687 C693 1.428 . S
H688 C684 0.930 . S
H689 C686 0.929 . S
S690 N691 1.613 . S
S690 N692 1.610 . S
N691 S690 1.613 . S
N691 C694 1.350 . S
N692 S690 1.610 . S
N692 C693 1.351 . S
C693 C687 1.428 . S
C693 N692 1.351 . S
C693 C694 1.434 . S
C694 C685 1.429 1_554 S
C694 N691 1.350 . S
C694 C693 1.434 . S
C695 C696 1.369 . S
C695 C697 1.419 . S
C695 H699 0.930 1_545 S
C696 C695 1.369 . S
C696 C705 1.429 . S
C697 C695 1.419 . S
C697 C698 1.363 . S
C697 H700 0.929 . S
C698 C697 1.363 . S
C698 C704 1.428 . S
H699 C695 0.930 1_565 S
H700 C697 0.929 . S
S701 N702 1.613 . S
S701 N703 1.610 . S
N702 S701 1.613 . S
N702 C705 1.350 . S
N703 S701 1.610 . S
N703 C704 1.351 . S
C704 C698 1.428 . S
C704 N703 1.351 . S
C704 C705 1.434 . S
C705 C696 1.429 . S
C705 N702 1.350 . S
C705 C704 1.434 . S
C706 C707 1.369 . S
C706 C708 1.419 . S
C706 H710 0.930 . S
C707 C706 1.369 . S
C707 C716 1.429 . S
C708 C706 1.419 . S
C708 C709 1.363 . S
C708 H711 0.929 . S
C709 C708 1.363 . S
C709 C715 1.428 . S
H710 C706 0.930 . S
H711 C708 0.929 . S
S712 N713 1.613 . S
S712 N714 1.610 . S
N713 S712 1.613 . S
N713 C716 1.350 . S
N714 S712 1.610 . S
N714 C715 1.351 . S
C715 C709 1.428 . S
C715 N714 1.351 . S
C715 C716 1.434 . S
C716 C707 1.429 . S
C716 N713 1.350 . S
C716 C715 1.434 . S
C717 C718 1.369 . S
C717 C719 1.419 . S
C717 H721 0.930 . S
C718 C717 1.369 . S
C718 C727 1.429 . S
C719 C717 1.419 . S
C719 C720 1.363 . S
C719 H722 0.929 . S
C720 C719 1.363 . S
C720 C726 1.428 . S
H721 C717 0.930 . S
H722 C719 0.929 . S
S723 N724 1.613 . S
S723 N725 1.610 . S
N724 S723 1.613 . S
N724 C727 1.350 . S
N725 S723 1.610 . S
N725 C726 1.351 . S
C726 C720 1.428 . S
C726 N725 1.351 . S
C726 C727 1.434 . S
C727 C718 1.429 . S
C727 N724 1.350 . S
C727 C726 1.434 . S
C728 C729 1.369 . S
C728 C730 1.419 . S
C728 H732 0.930 . S
C729 C728 1.369 . S
C729 C738 1.429 . S
C730 C728 1.419 . S
C730 C731 1.363 . S
C730 H733 0.929 . S
C731 C730 1.363 . S
C731 C737 1.428 . S
H732 C728 0.930 . S
H733 C730 0.929 . S
S734 N735 1.613 . S
S734 N736 1.610 . S
N735 S734 1.613 . S
N735 C738 1.350 . S
N736 S734 1.610 . S
N736 C737 1.351 . S
C737 C731 1.428 . S
C737 N736 1.351 . S
C737 C738 1.434 . S
C738 C729 1.429 . S
C738 N735 1.350 . S
C738 C737 1.434 . S
C739 C740 1.369 . S
C739 C741 1.419 . S
C739 H743 0.930 . S
C740 C739 1.369 . S
C740 C749 1.429 . S
C741 C739 1.419 . S
C741 C742 1.363 . S
C741 H744 0.929 . S
C742 C741 1.363 . S
C742 C748 1.428 . S
H743 C739 0.930 . S
H744 C741 0.929 . S
S745 N746 1.613 . S
S745 N747 1.610 . S
N746 S745 1.613 . S
N746 C749 1.350 . S
N747 S745 1.610 . S
N747 C748 1.351 . S
C748 C742 1.428 . S
C748 N747 1.351 . S
C748 C749 1.434 . S
C749 C740 1.429 . S
C749 N746 1.350 . S
C749 C748 1.434 . S
C750 C751 1.369 . S
C750 C752 1.419 . S
C750 H754 0.930 . S
C751 C750 1.369 . S
C751 C760 1.429 1_554 S
C752 C750 1.419 . S
C752 C753 1.363 1_554 S
C752 H755 0.929 . S
C753 C752 1.363 1_556 S
C753 C759 1.428 . S
H754 C750 0.930 . S
H755 C752 0.929 . S
S756 N757 1.613 . S
S756 N758 1.610 1_455 S
N757 S756 1.613 . S
N757 C760 1.350 1_455 S
N758 S756 1.610 1_655 S
N758 C759 1.351 . S
C759 C753 1.428 . S
C759 N758 1.351 . S
C759 C760 1.434 . S
C760 C751 1.429 1_556 S
C760 N757 1.350 1_655 S
C760 C759 1.434 . S
C761 C762 1.369 . S
C761 C763 1.419 . S
C761 H765 0.930 . S
C762 C761 1.369 . S
C762 C771 1.429 . S
C763 C761 1.419 . S
C763 C764 1.363 . S
C763 H766 0.929 1_655 S
C764 C763 1.363 . S
C764 C770 1.428 . S
H765 C761 0.930 . S
H766 C763 0.929 1_455 S
S767 N768 1.613 . S
S767 N769 1.610 . S
N768 S767 1.613 . S
N768 C771 1.350 . S
N769 S767 1.610 . S
N769 C770 1.351 . S
C770 C764 1.428 . S
C770 N769 1.351 . S
C770 C771 1.434 . S
C771 C762 1.429 . S
C771 N768 1.350 . S
C771 C770 1.434 . S
C772 C773 1.369 . S
C772 C774 1.419 . S
C772 H776 0.930 . S
C773 C772 1.369 . S
C773 C782 1.429 . S
C774 C772 1.419 . S
C774 C775 1.363 . S
C774 H777 0.929 . S
C775 C774 1.363 . S
C775 C781 1.428 . S
H776 C772 0.930 . S
H777 C774 0.929 . S
S778 N779 1.613 . S
S778 N780 1.610 . S
N779 S778 1.613 . S
N779 C782 1.350 . S
N780 S778 1.610 . S
N780 C781 1.351 . S
C781 C775 1.428 . S
C781 N780 1.351 . S
C781 C782 1.434 . S
C782 C773 1.429 . S
C782 N779 1.350 . S
C782 C781 1.434 . S
C783 C784 1.369 . S
C783 C785 1.419 . S
C783 H787 0.930 1_655 S
C784 C783 1.369 . S
C784 C793 1.429 . S
C785 C783 1.419 . S
C785 C786 1.363 . S
C785 H788 0.929 . S
C786 C785 1.363 . S
C786 C792 1.428 . S
H787 C783 0.930 1_455 S
H788 C785 0.929 . S
S789 N790 1.613 . S
S789 N791 1.610 . S
N790 S789 1.613 . S
N790 C793 1.350 . S
N791 S789 1.610 . S
N791 C792 1.351 . S
C792 C786 1.428 . S
C792 N791 1.351 . S
C792 C793 1.434 . S
C793 C784 1.429 . S
C793 N790 1.350 . S
C793 C792 1.434 . S
C794 C795 1.369 . S
C794 C796 1.419 . S
C794 H798 0.930 . S
C795 C794 1.369 . S
C795 C804 1.429 1_554 S
C796 C794 1.419 . S
C796 C797 1.363 1_554 S
C796 H799 0.929 . S
C797 C796 1.363 1_556 S
C797 C803 1.428 . S
H798 C794 0.930 . S
H799 C796 0.929 . S
S800 N801 1.613 . S
S800 N802 1.610 . S
N801 S800 1.613 . S
N801 C804 1.350 . S
N802 S800 1.610 . S
N802 C803 1.351 . S
C803 C797 1.428 . S
C803 N802 1.351 . S
C803 C804 1.434 . S
C804 C795 1.429 1_556 S
C804 N801 1.350 . S
C804 C803 1.434 . S
C805 C806 1.369 . S
C805 C807 1.419 . S
C805 H809 0.930 . S
C806 C805 1.369 . S
C806 C815 1.429 . S
C807 C805 1.419 . S
C807 C808 1.363 . S
C807 H810 0.929 . S
C808 C807 1.363 . S
C808 C814 1.428 . S
H809 C805 0.930 . S
H810 C807 0.929 . S
S811 N812 1.613 . S
S811 N813 1.610 . S
N812 S811 1.613 . S
N812 C815 1.350 . S
N813 S811 1.610 . S
N813 C814 1.351 . S
C814 C808 1.428 . S
C814 N813 1.351 . S
C814 C815 1.434 . S
C815 C806 1.429 . S
C815 N812 1.350 . S
C815 C814 1.434 . S
C816 C817 1.369 . S
C816 C818 1.419 . S
C816 H820 0.930 . S
C817 C816 1.369 . S
C817 C826 1.429 . S
C818 C816 1.419 . S
C818 C819 1.363 . S
C818 H821 0.929 . S
C819 C818 1.363 . S
C819 C825 1.428 . S
H820 C816 0.930 . S
H821 C818 0.929 . S
S822 N823 1.613 . S
S822 N824 1.610 . S
N823 S822 1.613 . S
N823 C826 1.350 . S
N824 S822 1.610 . S
N824 C825 1.351 . S
C825 C819 1.428 . S
C825 N824 1.351 . S
C825 C826 1.434 . S
C826 C817 1.429 . S
C826 N823 1.350 . S
C826 C825 1.434 . S
C827 C828 1.369 . S
C827 C829 1.419 . S
C827 H831 0.930 . S
C828 C827 1.369 . S
C828 C837 1.429 . S
C829 C827 1.419 . S
C829 C830 1.363 . S
C829 H832 0.929 . S
C830 C829 1.363 . S
C830 C836 1.428 . S
H831 C827 0.930 . S
H832 C829 0.929 . S
S833 N834 1.613 . S
S833 N835 1.610 . S
N834 S833 1.613 . S
N834 C837 1.350 . S
N835 S833 1.610 . S
N835 C836 1.351 . S
C836 C830 1.428 . S
C836 N835 1.351 . S
C836 C837 1.434 . S
C837 C828 1.429 . S
C837 N834 1.350 . S
C837 C836 1.434 . S
C838 C839 1.369 . S
C838 C840 1.419 1_556 S
C838 H842 0.930 . S
C839 C838 1.369 . S
C839 C848 1.429 . S
C840 C838 1.419 1_554 S
C840 C841 1.363 . S
C840 H843 0.929 . S
C841 C840 1.363 . S
C841 C847 1.428 1_554 S
H842 C838 0.930 . S
H843 C840 0.929 . S
S844 N845 1.613 . S
S844 N846 1.610 . S
N845 S844 1.613 . S
N845 C848 1.350 . S
N846 S844 1.610 . S
N846 C847 1.351 . S
C847 C841 1.428 1_556 S
C847 N846 1.351 . S
C847 C848 1.434 . S
C848 C839 1.429 . S
C848 N845 1.350 . S
C848 C847 1.434 . S
C849 C850 1.369 . S
C849 C851 1.419 . S
C849 H853 0.930 . S
C850 C849 1.369 . S
C850 C859 1.429 . S
C851 C849 1.419 . S
C851 C852 1.363 . S
C851 H854 0.929 . S
C852 C851 1.363 . S
C852 C858 1.428 . S
H853 C849 0.930 . S
H854 C851 0.929 . S
S855 N856 1.613 . S
S855 N857 1.610 . S
N856 S855 1.613 . S
N856 C859 1.350 . S
N857 S855 1.610 . S
N857 C858 1.351 . S
C858 C852 1.428 . S
C858 N857 1.351 . S
C858 C859 1.434 . S
C859 C850 1.429 . S
C859 N856 1.350 . S
C859 C858 1.434 . S
C860 C861 1.369 . S
C860 C862 1.419 . S
C860 H864 0.930 . S
C861 C860 1.369 . S
C861 C870 1.429 . S
C862 C860 1.419 . S
C862 C863 1.363 . S
C862 H865 0.929 . S
C863 C862 1.363 . S
C863 C869 1.428 . S
H864 C860 0.930 . S
H865 C862 0.929 . S
S866 N867 1.613 . S
S866 N868 1.610 . S
N867 S866 1.613 . S
N867 C870 1.350 . S
N868 S866 1.610 . S
N868 C869 1.351 . S
C869 C863 1.428 . S
C869 N868 1.351 . S
C869 C870 1.434 . S
C870 C861 1.429 . S
C870 N867 1.350 . S
C870 C869 1.434 . S
C871 C872 1.369 . S
C871 C873 1.419 . S
C871 H875 0.930 . S
C872 C871 1.369 . S
C872 C881 1.429 . S
C873 C871 1.419 . S
C873 C874 1.363 . S
C873 H876 0.929 . S
C874 C873 1.363 . S
C874 C880 1.428 . S
H875 C871 0.930 . S
H876 C873 0.929 . S
S877 N878 1.613 . S
S877 N879 1.610 . S
N878 S877 1.613 . S
N878 C881 1.350 . S
N879 S877 1.610 . S
N879 C880 1.351 . S
C880 C874 1.428 . S
C880 N879 1.351 . S
C880 C881 1.434 . S
C881 C872 1.429 . S
C881 N878 1.350 . S
C881 C880 1.434 . S
C882 C883 1.369 . S
C882 C884 1.420 . S
C882 H886 0.930 . S
C883 C882 1.369 . S
C883 C892 1.429 . S
C884 C882 1.420 . S
C884 C885 1.363 1_554 S
C884 H887 0.928 1_554 S
C885 C884 1.363 1_556 S
C885 C891 1.428 1_556 S
H886 C882 0.930 . S
H887 C884 0.928 1_556 S
S888 N889 1.613 . S
S888 N890 1.610 . S
N889 S888 1.613 . S
N889 C892 1.350 . S
N890 S888 1.610 . S
N890 C891 1.351 . S
C891 C885 1.428 1_554 S
C891 N890 1.351 . S
C891 C892 1.434 . S
C892 C883 1.429 . S
C892 N889 1.350 . S
C892 C891 1.434 . S
C893 C894 1.369 . S
C893 C895 1.419 . S
C893 H897 0.930 . S
C894 C893 1.369 . S
C894 C903 1.429 . S
C895 C893 1.419 . S
C895 C896 1.363 . S
C895 H898 0.929 . S
C896 C895 1.363 . S
C896 C902 1.428 . S
H897 C893 0.930 . S
H898 C895 0.929 . S
S899 N900 1.613 . S
S899 N901 1.610 . S
N900 S899 1.613 . S
N900 C903 1.350 . S
N901 S899 1.610 . S
N901 C902 1.351 . S
C902 C896 1.428 . S
C902 N901 1.351 . S
C902 C903 1.434 . S
C903 C894 1.429 . S
C903 N900 1.350 . S
C903 C902 1.434 . S
C904 C905 1.369 . S
C904 C906 1.419 . S
C904 H908 0.930 . S
C905 C904 1.369 . S
C905 C914 1.429 . S
C906 C904 1.419 . S
C906 C907 1.363 . S
C906 H909 0.929 . S
C907 C906 1.363 . S
C907 C913 1.428 . S
H908 C904 0.930 . S
H909 C906 0.929 . S
S910 N911 1.613 . S
S910 N912 1.610 . S
N911 S910 1.613 . S
N911 C914 1.350 . S
N912 S910 1.610 . S
N912 C913 1.351 . S
C913 C907 1.428 . S
C913 N912 1.351 . S
C913 C914 1.434 . S
C914 C905 1.429 . S
C914 N911 1.350 . S
C914 C913 1.434 . S
C915 C916 1.369 . S
C915 C917 1.419 . S
C915 H919 0.930 . S
C916 C915 1.369 . S
C916 C925 1.429 . S
C917 C915 1.419 . S
C917 C918 1.363 . S
C917 H920 0.929 . S
C918 C917 1.363 . S
C918 C924 1.428 . S
H919 C915 0.930 . S
H920 C917 0.929 . S
S921 N922 1.613 . S
S921 N923 1.610 . S
N922 S921 1.613 . S
N922 C925 1.350 . S
N923 S921 1.610 . S
N923 C924 1.351 . S
C924 C918 1.428 . S
C924 N923 1.351 . S
C924 C925 1.434 . S
C925 C916 1.429 . S
C925 N922 1.350 . S
C925 C924 1.434 . S
C926 C927 1.369 . S
C926 C928 1.419 . S
C926 H930 0.930 . S
C927 C926 1.369 . S
C927 C936 1.429 . S
C928 C926 1.419 . S
C928 C929 1.363 . S
C928 H931 0.929 . S
C929 C928 1.363 . S
C929 C935 1.428 . S
H930 C926 0.930 . S
H931 C928 0.929 . S
S932 N933 1.613 . S
S932 N934 1.610 . S
N933 S932 1.613 . S
N933 C936 1.350 . S
N934 S932 1.610 . S
N934 C935 1.351 . S
C935 C929 1.428 . S
C935 N934 1.351 . S
C935 C936 1.434 . S
C936 C927 1.429 . S
C936 N933 1.350 . S
C936 C935 1.434 . S
C937 C938 1.369 . S
C937 C939 1.419 . S
C937 H941 0.930 . S
C938 C937 1.369 . S
C938 C947 1.429 . S
C939 C937 1.419 . S
C939 C940 1.363 . S
C939 H942 0.929 . S
C940 C939 1.363 . S
C940 C946 1.428 . S
H941 C937 0.930 . S
H942 C939 0.929 . S
S943 N944 1.613 . S
S943 N945 1.610 . S
N944 S943 1.613 . S
N944 C947 1.350 . S
N945 S943 1.610 . S
N945 C946 1.351 . S
C946 C940 1.428 . S
C946 N945 1.351 . S
C946 C947 1.434 . S
C947 C938 1.429 . S
C947 N944 1.350 . S
C947 C946 1.434 . S
C948 C949 1.369 . S
C948 C950 1.419 . S
C948 H952 0.930 . S
C949 C948 1.369 . S
C949 C958 1.429 . S
C950 C948 1.419 . S
C950 C951 1.363 . S
C950 H953 0.929 . S
C951 C950 1.363 . S
C951 C957 1.428 . S
H952 C948 0.930 . S
H953 C950 0.929 . S
S954 N955 1.613 . S
S954 N956 1.610 . S
N955 S954 1.613 . S
N955 C958 1.350 . S
N956 S954 1.610 . S
N956 C957 1.351 . S
C957 C951 1.428 . S
C957 N956 1.351 . S
C957 C958 1.434 . S
C958 C949 1.429 . S
C958 N955 1.350 . S
C958 C957 1.434 . S
C959 C960 1.369 . S
C959 C961 1.419 . S
C959 H963 0.930 . S
C960 C959 1.369 . S
C960 C969 1.429 . S
C961 C959 1.419 . S
C961 C962 1.363 . S
C961 H964 0.929 . S
C962 C961 1.363 . S
C962 C968 1.428 . S
H963 C959 0.930 . S
H964 C961 0.929 . S
S965 N966 1.613 . S
S965 N967 1.610 . S
N966 S965 1.613 . S
N966 C969 1.350 . S
N967 S965 1.610 . S
N967 C968 1.351 . S
C968 C962 1.428 . S
C968 N967 1.351 . S
C968 C969 1.434 . S
C969 C960 1.429 . S
C969 N966 1.350 . S
C969 C968 1.434 . S
C970 C971 1.369 . S
C970 C972 1.419 . S
C970 H974 0.930 . S
C971 C970 1.369 . S
C971 C980 1.429 . S
C972 C970 1.419 . S
C972 C973 1.363 . S
C972 H975 0.929 . S
C973 C972 1.363 . S
C973 C979 1.428 . S
H974 C970 0.930 . S
H975 C972 0.929 . S
S976 N977 1.613 . S
S976 N978 1.610 . S
N977 S976 1.613 . S
N977 C980 1.350 . S
N978 S976 1.610 . S
N978 C979 1.351 . S
C979 C973 1.428 . S
C979 N978 1.351 . S
C979 C980 1.434 . S
C980 C971 1.429 . S
C980 N977 1.350 . S
C980 C979 1.434 . S
C981 C982 1.369 . S
C981 C983 1.419 . S
C981 H985 0.930 . S
C982 C981 1.369 . S
C982 C991 1.429 . S
C983 C981 1.419 . S
C983 C984 1.363 . S
C983 H986 0.929 . S
C984 C983 1.363 . S
C984 C990 1.428 . S
H985 C981 0.930 . S
H986 C983 0.929 . S
S987 N988 1.613 . S
S987 N989 1.610 . S
N988 S987 1.613 . S
N988 C991 1.350 . S
N989 S987 1.610 . S
N989 C990 1.351 . S
C990 C984 1.428 . S
C990 N989 1.351 . S
C990 C991 1.434 . S
C991 C982 1.429 . S
C991 N988 1.350 . S
C991 C990 1.434 . S
C992 C993 1.369 . S
C992 C994 1.419 . S
C992 H996 0.930 . S
C993 C992 1.369 . S
C993 C1002 1.429 . S
C994 C992 1.419 . S
C994 C995 1.363 . S
C994 H997 0.929 . S
C995 C994 1.363 . S
C995 C1001 1.428 . S
H996 C992 0.930 . S
H997 C994 0.929 . S
S998 N999 1.613 . S
S998 N1000 1.610 . S
N999 S998 1.613 . S
N999 C1002 1.350 . S
N1000 S998 1.610 . S
N1000 C1001 1.351 . S
C1001 C995 1.428 . S
C1001 N1000 1.351 . S
C1001 C1002 1.434 . S
C1002 C993 1.429 . S
C1002 N999 1.350 . S
C1002 C1001 1.434 . S
C1003 C1004 1.369 . S
C1003 C1005 1.419 . S
C1003 H1007 0.930 . S
C1004 C1003 1.369 . S
C1004 C1013 1.429 . S
C1005 C1003 1.419 . S
C1005 C1006 1.363 . S
C1005 H1008 0.929 . S
C1006 C1005 1.363 . S
C1006 C1012 1.428 . S
H1007 C1003 0.930 . S
H1008 C1005 0.929 . S
S1009 N1010 1.613 . S
S1009 N1011 1.610 . S
N1010 S1009 1.613 . S
N1010 C1013 1.350 . S
N1011 S1009 1.610 . S
N1011 C1012 1.351 . S
C1012 C1006 1.428 . S
C1012 N1011 1.351 . S
C1012 C1013 1.434 . S
C1013 C1004 1.429 . S
C1013 N1010 1.350 . S
C1013 C1012 1.434 . S
C1014 C1015 1.369 . S
C1014 C1016 1.419 . S
C1014 H1018 0.930 . S
C1015 C1014 1.369 . S
C1015 C1024 1.429 . S
C1016 C1014 1.419 . S
C1016 C1017 1.363 . S
C1016 H1019 0.929 . S
C1017 C1016 1.363 . S
C1017 C1023 1.428 . S
H1018 C1014 0.930 . S
H1019 C1016 0.929 . S
S1020 N1021 1.613 . S
S1020 N1022 1.610 . S
N1021 S1020 1.613 . S
N1021 C1024 1.350 . S
N1022 S1020 1.610 . S
N1022 C1023 1.351 . S
C1023 C1017 1.428 . S
C1023 N1022 1.351 . S
C1023 C1024 1.434 . S
C1024 C1015 1.429 . S
C1024 N1021 1.350 . S
C1024 C1023 1.434 . S
C1025 C1026 1.369 . S
C1025 C1027 1.419 . S
C1025 H1029 0.930 . S
C1026 C1025 1.369 . S
C1026 C1035 1.429 . S
C1027 C1025 1.419 . S
C1027 C1028 1.363 . S
C1027 H1030 0.929 . S
C1028 C1027 1.363 . S
C1028 C1034 1.428 . S
H1029 C1025 0.930 . S
H1030 C1027 0.929 . S
S1031 N1032 1.613 . S
S1031 N1033 1.610 . S
N1032 S1031 1.613 . S
N1032 C1035 1.350 . S
N1033 S1031 1.610 . S
N1033 C1034 1.351 . S
C1034 C1028 1.428 . S
C1034 N1033 1.351 . S
C1034 C1035 1.434 . S
C1035 C1026 1.429 . S
C1035 N1032 1.350 . S
C1035 C1034 1.434 . S
C1036 C1037 1.369 . S
C1036 C1038 1.419 . S
C1036 H1040 0.930 . S
C1037 C1036 1.369 . S
C1037 C1046 1.429 . S
C1038 C1036 1.419 . S
C1038 C1039 1.363 . S
C1038 H1041 0.929 . S
C1039 C1038 1.363 . S
C1039 C1045 1.428 . S
H1040 C1036 0.930 . S
H1041 C1038 0.929 . S
S1042 N1043 1.613 . S
S1042 N1044 1.610 . S
N1043 S1042 1.613 . S
N1043 C1046 1.350 . S
N1044 S1042 1.610 . S
N1044 C1045 1.351 . S
C1045 C1039 1.428 . S
C1045 N1044 1.351 . S
C1045 C1046 1.434 . S
C1046 C1037 1.429 . S
C1046 N1043 1.350 . S
C1046 C1045 1.434 . S
C1047 C1048 1.369 . S
C1047 C1049 1.419 . S
C1047 H1051 0.930 . S
C1048 C1047 1.369 . S
C1048 C1057 1.429 . S
C1049 C1047 1.419 . S
C1049 C1050 1.363 . S
C1049 H1052 0.929 . S
C1050 C1049 1.363 . S
C1050 C1056 1.428 . S
H1051 C1047 0.930 . S
H1052 C1049 0.929 . S
S1053 N1054 1.613 . S
S1053 N1055 1.610 . S
N1054 S1053 1.613 . S
N1054 C1057 1.350 . S
N1055 S1053 1.610 . S
N1055 C1056 1.351 . S
C1056 C1050 1.428 . S
C1056 N1055 1.351 . S
C1056 C1057 1.434 . S
C1057 C1048 1.429 . S
C1057 N1054 1.350 . S
C1057 C1056 1.434 . S
C1058 C1059 1.369 . S
C1058 C1060 1.419 . S
C1058 H1062 0.930 . S
C1059 C1058 1.369 . S
C1059 C1068 1.429 . S
C1060 C1058 1.419 . S
C1060 C1061 1.363 . S
C1060 H1063 0.929 . S
C1061 C1060 1.363 . S
C1061 C1067 1.428 . S
H1062 C1058 0.930 . S
H1063 C1060 0.929 . S
S1064 N1065 1.613 . S
S1064 N1066 1.610 . S
N1065 S1064 1.613 . S
N1065 C1068 1.350 . S
N1066 S1064 1.610 . S
N1066 C1067 1.351 . S
C1067 C1061 1.428 . S
C1067 N1066 1.351 . S
C1067 C1068 1.434 . S
C1068 C1059 1.429 . S
C1068 N1065 1.350 . S
C1068 C1067 1.434 . S
C1069 C1070 1.369 . S
C1069 C1071 1.419 . S
C1069 H1073 0.930 . S
C1070 C1069 1.369 . S
C1070 C1079 1.429 . S
C1071 C1069 1.419 . S
C1071 C1072 1.363 . S
C1071 H1074 0.929 . S
C1072 C1071 1.363 . S
C1072 C1078 1.428 . S
H1073 C1069 0.930 . S
H1074 C1071 0.929 . S
S1075 N1076 1.613 . S
S1075 N1077 1.610 . S
N1076 S1075 1.613 . S
N1076 C1079 1.350 . S
N1077 S1075 1.610 . S
N1077 C1078 1.351 . S
C1078 C1072 1.428 . S
C1078 N1077 1.351 . S
C1078 C1079 1.434 . S
C1079 C1070 1.429 . S
C1079 N1076 1.350 . S
C1079 C1078 1.434 . S
C465 C5 2.781 . S
C467 C382 2.780 . S
C476 C324 2.783 . S
C478 C34 2.781 . S
C487 C63 2.783 . S
C489 C353 2.782 . S
C498 C92 2.782 . S
C500 C295 2.781 . S
C509 C440 2.780 . S
C511 C121 2.782 . S
C520 C150 2.782 . S
C522 C266 2.780 . S
C531 C411 2.782 . S
C533 C179 2.780 . S
C542 C208 2.780 . S
C544 C237 2.781 . S
C553 C102 1.392 . S
C555 C3 1.448 . S
C564 C15 1.401 . S
C566 C32 1.451 . S
C575 C44 1.398 . S
C577 C61 1.451 . S
C586 C90 1.451 . S
C588 C73 1.400 . S
C597 C160 1.401 . S
C599 C119 1.451 . S
C608 C189 1.397 . S
C610 C148 1.451 . S
C619 C218 1.392 . S
C621 C177 1.448 . S
C630 C131 1.400 . S
C632 C206 1.451 . S
C641 C137 1.447 . S
C643 C269 1.743 . S
C652 C253 1.441 . S
C654 C124 1.745 1_545 S
C663 C195 1.450 . S
C665 C240 1.739 . S
C674 C282 1.451 . S
C676 C182 1.741 1_565 S
C685 C298 1.741 . S
C687 C21 1.448 . S
C696 C66 1.743 1_545 S
C698 C311 1.439 . S
C707 C327 1.745 . S
C709 C79 1.437 . S
C718 C8 1.740 1_565 S
C720 C340 1.443 . S
C729 C334 1.394 . S
C731 C351 1.448 . S
C740 C363 1.397 . S
C742 C293 1.451 . S
C751 C380 1.452 1_655 S
C753 C305 1.399 . S
C762 C322 1.447 . S
C764 C392 1.394 . S
C773 C409 1.450 . S
C775 C247 1.396 . S
C784 C450 1.395 . S
C786 C235 1.450 . S
C795 C276 1.398 . S
C797 C438 1.450 1_655 S
C806 C421 1.398 . S
C808 C264 1.450 . S
C817 C211 1.744 . S
C819 C427 1.443 . S
C828 C414 1.744 . S
C830 C166 1.444 . S
C839 C456 1.443 . S
C841 C153 1.744 . S
C850 C224 1.435 . S
C852 C443 1.746 . S
C861 C37 1.738 . S
C863 C369 1.449 . S
C872 C50 1.434 . S
C874 C385 1.745 . S
C883 C398 1.435 . S
C885 C95 1.746 . S
C894 C356 1.740 . S
C896 C108 1.449 . S
C905 C158 1.091 . S
C907 C13 1.084 . S
C916 C187 1.083 . S
C918 C42 1.089 . S
C927 C216 1.078 . S
C929 C71 1.084 . S
C938 C100 1.084 . S
C940 C129 1.080 . S
C949 C126 1.903 . S
C951 C300 1.902 . S
C960 C242 1.898 . S
C962 C68 1.899 . S
C971 C329 1.898 . S
C973 C184 1.901 . S
C982 C10 1.899 . S
C984 C271 1.898 . S
C993 C361 1.084 . S
C995 C245 1.080 . S
C1004 C303 1.087 . S
C1006 C448 1.091 . S
C1015 C390 1.078 . S
C1017 C274 1.080 . S
C1026 C419 1.091 . S
C1028 C332 1.091 . S
C1037 C39 1.902 . S
C1039 C416 1.899 . S
C1048 C387 1.903 . S
C1050 C155 1.901 . S
C1059 C97 1.903 . S
C1061 C445 1.901 . S
C1070 C213 1.898 . S
C1072 C358 1.899 . S
