# Generated by pormake.
# Topology ubt, (5)-cn, num edge types: 1
# Building blocks:
#     Node 0, Type 0, BuildingBlock: XOMCOT_clean_sbu_0, # of connection points: 5
#     Node 1, Type 0, BuildingBlock: XOMCOT_clean_sbu_0, # of connection points: 5
#     Node 2, Type 0, BuildingBlock: XOMCOT_clean_sbu_0, # of connection points: 5
#     Node 3, Type 0, BuildingBlock: XOMCOT_clean_sbu_0, # of connection points: 5
#     Node 4, Type 0, BuildingBlock: XOMCOT_clean_sbu_0, # of connection points: 5
#     Node 5, Type 0, BuildingBlock: XOMCOT_clean_sbu_0, # of connection points: 5
#     Node 6, Type 0, BuildingBlock: XOMCOT_clean_sbu_0, # of connection points: 5
#     Node 7, Type 0, BuildingBlock: XOMCOT_clean_sbu_0, # of connection points: 5
#     Node 8, Type 0, BuildingBlock: XOMCOT_clean_sbu_0, # of connection points: 5
#     Node 9, Type 0, BuildingBlock: XOMCOT_clean_sbu_0, # of connection points: 5
#     Node 10, Type 0, BuildingBlock: XOMCOT_clean_sbu_0, # of connection points: 5
#     Node 11, Type 0, BuildingBlock: XOMCOT_clean_sbu_0, # of connection points: 5
#     Node 12, Type 0, BuildingBlock: XOMCOT_clean_sbu_0, # of connection points: 5
#     Node 13, Type 0, BuildingBlock: XOMCOT_clean_sbu_0, # of connection points: 5
#     Node 14, Type 0, BuildingBlock: XOMCOT_clean_sbu_0, # of connection points: 5
#     Node 15, Type 0, BuildingBlock: XOMCOT_clean_sbu_0, # of connection points: 5
#     Node 16, Type 0, BuildingBlock: XOMCOT_clean_sbu_0, # of connection points: 5
#     Node 17, Type 0, BuildingBlock: XOMCOT_clean_sbu_0, # of connection points: 5
#     Node 18, Type 0, BuildingBlock: XOMCOT_clean_sbu_0, # of connection points: 5
#     Node 19, Type 0, BuildingBlock: XOMCOT_clean_sbu_0, # of connection points: 5
#     Node 20, Type 0, BuildingBlock: XOMCOT_clean_sbu_0, # of connection points: 5
#     Node 21, Type 0, BuildingBlock: XOMCOT_clean_sbu_0, # of connection points: 5
#     Node 22, Type 0, BuildingBlock: XOMCOT_clean_sbu_0, # of connection points: 5
#     Node 23, Type 0, BuildingBlock: XOMCOT_clean_sbu_0, # of connection points: 5
#     Node 24, Type 0, BuildingBlock: XOMCOT_clean_sbu_0, # of connection points: 5
#     Node 25, Type 0, BuildingBlock: XOMCOT_clean_sbu_0, # of connection points: 5
#     Node 26, Type 0, BuildingBlock: XOMCOT_clean_sbu_0, # of connection points: 5
#     Node 27, Type 0, BuildingBlock: XOMCOT_clean_sbu_0, # of connection points: 5
#     Node 28, Type 0, BuildingBlock: XOMCOT_clean_sbu_0, # of connection points: 5
#     Node 29, Type 0, BuildingBlock: XOMCOT_clean_sbu_0, # of connection points: 5
#     Node 30, Type 0, BuildingBlock: XOMCOT_clean_sbu_0, # of connection points: 5
#     Node 31, Type 0, BuildingBlock: XOMCOT_clean_sbu_0, # of connection points: 5
#     Node 32, Type 0, BuildingBlock: XOMCOT_clean_sbu_0, # of connection points: 5
#     Node 33, Type 0, BuildingBlock: XOMCOT_clean_sbu_0, # of connection points: 5
#     Node 34, Type 0, BuildingBlock: XOMCOT_clean_sbu_0, # of connection points: 5
#     Node 35, Type 0, BuildingBlock: XOMCOT_clean_sbu_0, # of connection points: 5
#     Node 36, Type 0, BuildingBlock: XOMCOT_clean_sbu_0, # of connection points: 5
#     Node 37, Type 0, BuildingBlock: XOMCOT_clean_sbu_0, # of connection points: 5
#     Node 38, Type 0, BuildingBlock: XOMCOT_clean_sbu_0, # of connection points: 5
#     Node 39, Type 0, BuildingBlock: XOMCOT_clean_sbu_0, # of connection points: 5
#     Node 40, Type 0, BuildingBlock: XOMCOT_clean_sbu_0, # of connection points: 5
#     Node 41, Type 0, BuildingBlock: XOMCOT_clean_sbu_0, # of connection points: 5
#     Node 42, Type 0, BuildingBlock: XOMCOT_clean_sbu_0, # of connection points: 5
#     Node 43, Type 0, BuildingBlock: XOMCOT_clean_sbu_0, # of connection points: 5
#     Node 44, Type 0, BuildingBlock: XOMCOT_clean_sbu_0, # of connection points: 5
#     Node 45, Type 0, BuildingBlock: XOMCOT_clean_sbu_0, # of connection points: 5
#     Node 46, Type 0, BuildingBlock: XOMCOT_clean_sbu_0, # of connection points: 5
#     Node 47, Type 0, BuildingBlock: XOMCOT_clean_sbu_0, # of connection points: 5
#     Edge 48, Type (0, 0), BuildingBlock: CIFDUS_clean_linker_0, # of connection points: 2
#     Edge 49, Type (0, 0), BuildingBlock: CIFDUS_clean_linker_0, # of connection points: 2
#     Edge 50, Type (0, 0), BuildingBlock: CIFDUS_clean_linker_0, # of connection points: 2
#     Edge 51, Type (0, 0), BuildingBlock: CIFDUS_clean_linker_0, # of connection points: 2
#     Edge 52, Type (0, 0), BuildingBlock: CIFDUS_clean_linker_0, # of connection points: 2
#     Edge 53, Type (0, 0), BuildingBlock: CIFDUS_clean_linker_0, # of connection points: 2
#     Edge 54, Type (0, 0), BuildingBlock: CIFDUS_clean_linker_0, # of connection points: 2
#     Edge 55, Type (0, 0), BuildingBlock: CIFDUS_clean_linker_0, # of connection points: 2
#     Edge 56, Type (0, 0), BuildingBlock: CIFDUS_clean_linker_0, # of connection points: 2
#     Edge 57, Type (0, 0), BuildingBlock: CIFDUS_clean_linker_0, # of connection points: 2
#     Edge 58, Type (0, 0), BuildingBlock: CIFDUS_clean_linker_0, # of connection points: 2
#     Edge 59, Type (0, 0), BuildingBlock: CIFDUS_clean_linker_0, # of connection points: 2
#     Edge 60, Type (0, 0), BuildingBlock: CIFDUS_clean_linker_0, # of connection points: 2
#     Edge 61, Type (0, 0), BuildingBlock: CIFDUS_clean_linker_0, # of connection points: 2
#     Edge 62, Type (0, 0), BuildingBlock: CIFDUS_clean_linker_0, # of connection points: 2
#     Edge 63, Type (0, 0), BuildingBlock: CIFDUS_clean_linker_0, # of connection points: 2
#     Edge 64, Type (0, 0), BuildingBlock: CIFDUS_clean_linker_0, # of connection points: 2
#     Edge 65, Type (0, 0), BuildingBlock: CIFDUS_clean_linker_0, # of connection points: 2
#     Edge 66, Type (0, 0), BuildingBlock: CIFDUS_clean_linker_0, # of connection points: 2
#     Edge 67, Type (0, 0), BuildingBlock: CIFDUS_clean_linker_0, # of connection points: 2
#     Edge 68, Type (0, 0), BuildingBlock: CIFDUS_clean_linker_0, # of connection points: 2
#     Edge 69, Type (0, 0), BuildingBlock: CIFDUS_clean_linker_0, # of connection points: 2
#     Edge 70, Type (0, 0), BuildingBlock: CIFDUS_clean_linker_0, # of connection points: 2
#     Edge 71, Type (0, 0), BuildingBlock: CIFDUS_clean_linker_0, # of connection points: 2
#     Edge 72, Type (0, 0), BuildingBlock: CIFDUS_clean_linker_0, # of connection points: 2
#     Edge 73, Type (0, 0), BuildingBlock: CIFDUS_clean_linker_0, # of connection points: 2
#     Edge 74, Type (0, 0), BuildingBlock: CIFDUS_clean_linker_0, # of connection points: 2
#     Edge 75, Type (0, 0), BuildingBlock: CIFDUS_clean_linker_0, # of connection points: 2
#     Edge 76, Type (0, 0), BuildingBlock: CIFDUS_clean_linker_0, # of connection points: 2
#     Edge 77, Type (0, 0), BuildingBlock: CIFDUS_clean_linker_0, # of connection points: 2
#     Edge 78, Type (0, 0), BuildingBlock: CIFDUS_clean_linker_0, # of connection points: 2
#     Edge 79, Type (0, 0), BuildingBlock: CIFDUS_clean_linker_0, # of connection points: 2
#     Edge 80, Type (0, 0), BuildingBlock: CIFDUS_clean_linker_0, # of connection points: 2
#     Edge 81, Type (0, 0), BuildingBlock: CIFDUS_clean_linker_0, # of connection points: 2
#     Edge 82, Type (0, 0), BuildingBlock: CIFDUS_clean_linker_0, # of connection points: 2
#     Edge 83, Type (0, 0), BuildingBlock: CIFDUS_clean_linker_0, # of connection points: 2
#     Edge 84, Type (0, 0), BuildingBlock: CIFDUS_clean_linker_0, # of connection points: 2
#     Edge 85, Type (0, 0), BuildingBlock: CIFDUS_clean_linker_0, # of connection points: 2
#     Edge 86, Type (0, 0), BuildingBlock: CIFDUS_clean_linker_0, # of connection points: 2
#     Edge 87, Type (0, 0), BuildingBlock: CIFDUS_clean_linker_0, # of connection points: 2
#     Edge 88, Type (0, 0), BuildingBlock: CIFDUS_clean_linker_0, # of connection points: 2
#     Edge 89, Type (0, 0), BuildingBlock: CIFDUS_clean_linker_0, # of connection points: 2
#     Edge 90, Type (0, 0), BuildingBlock: CIFDUS_clean_linker_0, # of connection points: 2
#     Edge 91, Type (0, 0), BuildingBlock: CIFDUS_clean_linker_0, # of connection points: 2
#     Edge 92, Type (0, 0), BuildingBlock: CIFDUS_clean_linker_0, # of connection points: 2
#     Edge 93, Type (0, 0), BuildingBlock: CIFDUS_clean_linker_0, # of connection points: 2
#     Edge 94, Type (0, 0), BuildingBlock: CIFDUS_clean_linker_0, # of connection points: 2
#     Edge 95, Type (0, 0), BuildingBlock: CIFDUS_clean_linker_0, # of connection points: 2
#     Edge 96, Type (0, 0), BuildingBlock: CIFDUS_clean_linker_0, # of connection points: 2
#     Edge 97, Type (0, 0), BuildingBlock: CIFDUS_clean_linker_0, # of connection points: 2
#     Edge 98, Type (0, 0), BuildingBlock: CIFDUS_clean_linker_0, # of connection points: 2
#     Edge 99, Type (0, 0), BuildingBlock: CIFDUS_clean_linker_0, # of connection points: 2
#     Edge 100, Type (0, 0), BuildingBlock: CIFDUS_clean_linker_0, # of connection points: 2
#     Edge 101, Type (0, 0), BuildingBlock: CIFDUS_clean_linker_0, # of connection points: 2
#     Edge 102, Type (0, 0), BuildingBlock: CIFDUS_clean_linker_0, # of connection points: 2
#     Edge 103, Type (0, 0), BuildingBlock: CIFDUS_clean_linker_0, # of connection points: 2
#     Edge 104, Type (0, 0), BuildingBlock: CIFDUS_clean_linker_0, # of connection points: 2
#     Edge 105, Type (0, 0), BuildingBlock: CIFDUS_clean_linker_0, # of connection points: 2
#     Edge 106, Type (0, 0), BuildingBlock: CIFDUS_clean_linker_0, # of connection points: 2
#     Edge 107, Type (0, 0), BuildingBlock: CIFDUS_clean_linker_0, # of connection points: 2
#     Edge 108, Type (0, 0), BuildingBlock: CIFDUS_clean_linker_0, # of connection points: 2
#     Edge 109, Type (0, 0), BuildingBlock: CIFDUS_clean_linker_0, # of connection points: 2
#     Edge 110, Type (0, 0), BuildingBlock: CIFDUS_clean_linker_0, # of connection points: 2
#     Edge 111, Type (0, 0), BuildingBlock: CIFDUS_clean_linker_0, # of connection points: 2
#     Edge 112, Type (0, 0), BuildingBlock: CIFDUS_clean_linker_0, # of connection points: 2
#     Edge 113, Type (0, 0), BuildingBlock: CIFDUS_clean_linker_0, # of connection points: 2
#     Edge 114, Type (0, 0), BuildingBlock: CIFDUS_clean_linker_0, # of connection points: 2
#     Edge 115, Type (0, 0), BuildingBlock: CIFDUS_clean_linker_0, # of connection points: 2
#     Edge 116, Type (0, 0), BuildingBlock: CIFDUS_clean_linker_0, # of connection points: 2
#     Edge 117, Type (0, 0), BuildingBlock: CIFDUS_clean_linker_0, # of connection points: 2
#     Edge 118, Type (0, 0), BuildingBlock: CIFDUS_clean_linker_0, # of connection points: 2
#     Edge 119, Type (0, 0), BuildingBlock: CIFDUS_clean_linker_0, # of connection points: 2
#     Edge 120, Type (0, 0), BuildingBlock: CIFDUS_clean_linker_0, # of connection points: 2
#     Edge 121, Type (0, 0), BuildingBlock: CIFDUS_clean_linker_0, # of connection points: 2
#     Edge 122, Type (0, 0), BuildingBlock: CIFDUS_clean_linker_0, # of connection points: 2
#     Edge 123, Type (0, 0), BuildingBlock: CIFDUS_clean_linker_0, # of connection points: 2
#     Edge 124, Type (0, 0), BuildingBlock: CIFDUS_clean_linker_0, # of connection points: 2
#     Edge 125, Type (0, 0), BuildingBlock: CIFDUS_clean_linker_0, # of connection points: 2
#     Edge 126, Type (0, 0), BuildingBlock: CIFDUS_clean_linker_0, # of connection points: 2
#     Edge 127, Type (0, 0), BuildingBlock: CIFDUS_clean_linker_0, # of connection points: 2
#     Edge 128, Type (0, 0), BuildingBlock: CIFDUS_clean_linker_0, # of connection points: 2
#     Edge 129, Type (0, 0), BuildingBlock: CIFDUS_clean_linker_0, # of connection points: 2
#     Edge 130, Type (0, 0), BuildingBlock: CIFDUS_clean_linker_0, # of connection points: 2
#     Edge 131, Type (0, 0), BuildingBlock: CIFDUS_clean_linker_0, # of connection points: 2
#     Edge 132, Type (0, 0), BuildingBlock: CIFDUS_clean_linker_0, # of connection points: 2
#     Edge 133, Type (0, 0), BuildingBlock: CIFDUS_clean_linker_0, # of connection points: 2
#     Edge 134, Type (0, 0), BuildingBlock: CIFDUS_clean_linker_0, # of connection points: 2
#     Edge 135, Type (0, 0), BuildingBlock: CIFDUS_clean_linker_0, # of connection points: 2
#     Edge 136, Type (0, 0), BuildingBlock: CIFDUS_clean_linker_0, # of connection points: 2
#     Edge 137, Type (0, 0), BuildingBlock: CIFDUS_clean_linker_0, # of connection points: 2
#     Edge 138, Type (0, 0), BuildingBlock: CIFDUS_clean_linker_0, # of connection points: 2
#     Edge 139, Type (0, 0), BuildingBlock: CIFDUS_clean_linker_0, # of connection points: 2
#     Edge 140, Type (0, 0), BuildingBlock: CIFDUS_clean_linker_0, # of connection points: 2
#     Edge 141, Type (0, 0), BuildingBlock: CIFDUS_clean_linker_0, # of connection points: 2
#     Edge 142, Type (0, 0), BuildingBlock: CIFDUS_clean_linker_0, # of connection points: 2
#     Edge 143, Type (0, 0), BuildingBlock: CIFDUS_clean_linker_0, # of connection points: 2
#     Edge 144, Type (0, 0), BuildingBlock: CIFDUS_clean_linker_0, # of connection points: 2
#     Edge 145, Type (0, 0), BuildingBlock: CIFDUS_clean_linker_0, # of connection points: 2
#     Edge 146, Type (0, 0), BuildingBlock: CIFDUS_clean_linker_0, # of connection points: 2
#     Edge 147, Type (0, 0), BuildingBlock: CIFDUS_clean_linker_0, # of connection points: 2
#     Edge 148, Type (0, 0), BuildingBlock: CIFDUS_clean_linker_0, # of connection points: 2
#     Edge 149, Type (0, 0), BuildingBlock: CIFDUS_clean_linker_0, # of connection points: 2
#     Edge 150, Type (0, 0), BuildingBlock: CIFDUS_clean_linker_0, # of connection points: 2
#     Edge 151, Type (0, 0), BuildingBlock: CIFDUS_clean_linker_0, # of connection points: 2
#     Edge 152, Type (0, 0), BuildingBlock: CIFDUS_clean_linker_0, # of connection points: 2
#     Edge 153, Type (0, 0), BuildingBlock: CIFDUS_clean_linker_0, # of connection points: 2
#     Edge 154, Type (0, 0), BuildingBlock: CIFDUS_clean_linker_0, # of connection points: 2
#     Edge 155, Type (0, 0), BuildingBlock: CIFDUS_clean_linker_0, # of connection points: 2
#     Edge 156, Type (0, 0), BuildingBlock: CIFDUS_clean_linker_0, # of connection points: 2
#     Edge 157, Type (0, 0), BuildingBlock: CIFDUS_clean_linker_0, # of connection points: 2
#     Edge 158, Type (0, 0), BuildingBlock: CIFDUS_clean_linker_0, # of connection points: 2
#     Edge 159, Type (0, 0), BuildingBlock: CIFDUS_clean_linker_0, # of connection points: 2
#     Edge 160, Type (0, 0), BuildingBlock: CIFDUS_clean_linker_0, # of connection points: 2
#     Edge 161, Type (0, 0), BuildingBlock: CIFDUS_clean_linker_0, # of connection points: 2
#     Edge 162, Type (0, 0), BuildingBlock: CIFDUS_clean_linker_0, # of connection points: 2
#     Edge 163, Type (0, 0), BuildingBlock: CIFDUS_clean_linker_0, # of connection points: 2
#     Edge 164, Type (0, 0), BuildingBlock: CIFDUS_clean_linker_0, # of connection points: 2
#     Edge 165, Type (0, 0), BuildingBlock: CIFDUS_clean_linker_0, # of connection points: 2
#     Edge 166, Type (0, 0), BuildingBlock: CIFDUS_clean_linker_0, # of connection points: 2
#     Edge 167, Type (0, 0), BuildingBlock: CIFDUS_clean_linker_0, # of connection points: 2
# Relax obj value: 0.235
# Max RMSD: 0.207
# Mean RMSD: 0.203
data_MOF--net-ubt--node1-XOMCOT_clean_sbu_0--edge1-CIFDUS_clean_linker_0
_symmetry_space_group_name_H-M    P1
_symmetry_Int_Tables_number       1
_symmetry_cell_setting            triclinic
loop_
_symmetry_equiv_pos_as_xyz
'x, y, z'
_cell_length_a     64.07137
_cell_length_b     63.846588
_cell_length_c     64.561007
_cell_angle_alpha  89.933262
_cell_angle_beta   90.005593
_cell_angle_gamma 89.937627
loop_
_atom_site_label
_atom_site_type_symbol
_atom_site_fract_x
_atom_site_fract_y
_atom_site_fract_z
_atom_type_partial_charge
Co0 Co 0.00319 0.15165 0.16667 0.0
C1 C 0.97246 0.15885 0.13341 0.0
C2 C 0.97322 0.18559 0.15333 0.0
C3 C 0.95903 0.18927 0.13781 0.0
N4 N 0.98166 0.16633 0.15075 0.0
N5 N 0.95847 0.17239 0.12532 0.0
H6 H 0.97583 0.14369 0.1268 0.0
H7 H 0.97757 0.19696 0.16484 0.0
C8 C 0.02707 0.17923 0.13777 0.0
O9 O 0.01523 0.1948 0.14393 0.0
N10 N 0.02444 0.13659 0.18165 0.0
C11 C 0.02669 0.13492 0.20231 0.0
C12 C 0.04266 0.12103 0.20634 0.0
C13 C 0.03887 0.12372 0.17338 0.0
N14 N 0.05026 0.11393 0.18812 0.0
C15 C 0.99152 0.18097 0.19774 0.0
C16 C 0.02949 0.20106 0.20161 0.0
C17 C 0.01262 0.20766 0.21387 0.0
C18 C 0.99355 0.19723 0.21193 0.0
C19 C 0.02667 0.18481 0.18728 0.0
N20 N 0.00757 0.17559 0.18488 0.0
H21 H 0.97667 0.17308 0.19664 0.0
H22 H 0.03992 0.17941 0.17842 0.0
H23 H 0.01707 0.14285 0.21363 0.0
H24 H 0.0403 0.12091 0.15691 0.0
O25 O 0.98198 0.13793 0.18291 0.0
O26 O 0.99487 0.12548 0.15362 0.0
O27 O 0.02491 0.16107 0.14588 0.0
C28 C 0.98181 0.12334 0.16896 0.0
H29 H 0.95025 0.20359 0.13564 0.0
H30 H 0.04806 0.11636 0.22155 0.0
H31 H 0.04465 0.20839 0.20305 0.0
H32 H 0.98034 0.20137 0.22156 0.0
Co33 Co 0.84506 0.00678 0.16166 0.0
C34 C 0.87613 0.03866 0.17473 0.0
C35 C 0.86769 0.01841 0.19984 0.0
C36 C 0.88348 0.03146 0.2064 0.0
N37 N 0.8628 0.02313 0.18003 0.0
N38 N 0.88885 0.04402 0.1905 0.0
H39 H 0.87712 0.04559 0.15949 0.0
H40 H 0.86105 0.00562 0.20863 0.0
C41 C 0.8645 0.96308 0.16276 0.0
O42 O 0.84834 0.95465 0.15351 0.0
N43 N 0.82838 0.99061 0.14251 0.0
C44 C 0.80781 0.9863 0.14267 0.0
C45 C 0.80306 0.97517 0.12492 0.0
C46 C 0.83557 0.98305 0.12436 0.0
N47 N 0.82063 0.97312 0.1135 0.0
C48 C 0.81849 0.01554 0.19522 0.0
C49 C 0.80549 0.97537 0.20441 0.0
C50 C 0.7954 0.99239 0.21378 0.0
C51 C 0.80262 0.01259 0.20957 0.0
C52 C 0.82147 0.97904 0.18999 0.0
N53 N 0.82734 0.99903 0.18506 0.0
H54 H 0.82324 0.03138 0.1917 0.0
H55 H 0.82802 0.96582 0.18216 0.0
H56 H 0.797 0.99091 0.1547 0.0
H57 H 0.8518 0.98386 0.11978 0.0
O58 O 0.82937 0.03098 0.15404 0.0
O59 O 0.85776 0.02035 0.13754 0.0
O60 O 0.86515 0.98275 0.16654 0.0
C61 C 0.84236 0.03374 0.13898 0.0
H62 H 0.89119 0.03095 0.22131 0.0
H63 H 0.78788 0.96904 0.12081 0.0
H64 H 0.80034 0.95949 0.20735 0.0
H65 H 0.79558 0.02616 0.21685 0.0
Co66 Co 0.99325 0.84224 0.15326 0.0
C67 C 0.95519 0.86127 0.17161 0.0
C68 C 0.98214 0.86713 0.19026 0.0
C69 C 0.96592 0.87915 0.19762 0.0
N70 N 0.97555 0.85606 0.17368 0.0
N71 N 0.94906 0.87559 0.18569 0.0
H72 H 0.94538 0.85632 0.15895 0.0
H73 H 0.99801 0.86797 0.19573 0.0
C74 C 0.03683 0.85632 0.16228 0.0
O75 O 0.04385 0.83768 0.15723 0.0
N76 N 0.01083 0.82928 0.13238 0.0
C77 C 0.01413 0.80888 0.12802 0.0
C78 C 0.02778 0.80753 0.1116 0.0
C79 C 0.022 0.83996 0.11811 0.0
N80 N 0.03278 0.8271 0.10546 0.0
C81 C 0.98972 0.80145 0.17173 0.0
C82 C 0.01522 0.80838 0.2055 0.0
C83 C 0.00592 0.7887 0.20318 0.0
C84 C 0.99299 0.78533 0.18603 0.0
C85 C 0.01173 0.82398 0.19071 0.0
N86 N 0.99956 0.82033 0.17366 0.0
H87 H 0.97923 0.79857 0.15898 0.0
H88 H 0.0186 0.83904 0.19355 0.0
H89 H 0.00725 0.79573 0.13591 0.0
H90 H 0.02282 0.85689 0.11757 0.0
O91 O 0.96927 0.82965 0.14022 0.0
O92 O 0.98242 0.86061 0.13187 0.0
O93 O 0.0173 0.86034 0.1623 0.0
C94 C 0.96861 0.84611 0.12833 0.0
H95 H 0.96691 0.89073 0.20981 0.0
H96 H 0.03352 0.79321 0.10468 0.0
H97 H 0.02509 0.81174 0.21871 0.0
H98 H 0.98502 0.77053 0.18395 0.0
Co99 Co 0.15905 0.99427 0.15858 0.0
C100 C 0.13016 0.95819 0.16282 0.0
C101 C 0.14503 0.96435 0.19184 0.0
C102 C 0.13215 0.94731 0.19426 0.0
N103 N 0.14378 0.97139 0.17205 0.0
N104 N 0.12306 0.94345 0.17594 0.0
H105 H 0.12536 0.95909 0.1468 0.0
H106 H 0.15443 0.97101 0.20403 0.0
C107 C 0.12935 0.01757 0.18691 0.0
O108 O 0.13409 0.00499 0.20225 0.0
N109 N 0.17385 0.01666 0.14501 0.0
C110 C 0.19427 0.0174 0.14008 0.0
C111 C 0.1978 0.03517 0.12837 0.0
C112 C 0.16525 0.03384 0.13639 0.0
N113 N 0.17952 0.04544 0.12619 0.0
C114 C 0.19008 0.9802 0.18669 0.0
C115 C 0.1909 0.01501 0.21206 0.0
C116 C 0.20241 0.99716 0.21779 0.0
C117 C 0.20243 0.97992 0.20439 0.0
C118 C 0.17879 0.01468 0.19398 0.0
N119 N 0.17751 0.99689 0.18232 0.0
H120 H 0.18972 0.96638 0.17708 0.0
H121 H 0.17018 0.02855 0.1896 0.0
H122 H 0.20565 0.0056 0.14424 0.0
H123 H 0.14873 0.03733 0.13678 0.0
O124 O 0.1751 0.974 0.14319 0.0
O125 O 0.14536 0.98799 0.1325 0.0
O126 O 0.13822 0.01553 0.1693 0.0
C127 C 0.1607 0.97503 0.12908 0.0
H128 H 0.12999 0.93816 0.20823 0.0
H129 H 0.21257 0.04009 0.12186 0.0
H130 H 0.19085 0.02892 0.22164 0.0
H131 H 0.21176 0.96615 0.20764 0.0
Co132 Co 0.99881 0.85431 0.85009 0.0
C133 C 0.03993 0.87391 0.83982 0.0
C134 C 0.01638 0.8811 0.81737 0.0
C135 C 0.03399 0.89231 0.81257 0.0
N136 N 0.01997 0.8695 0.8345 0.0
N137 N 0.04872 0.88794 0.8268 0.0
H138 H 0.04756 0.86818 0.85362 0.0
H139 H 0.00161 0.88257 0.80952 0.0
C140 C 0.95814 0.87492 0.83827 0.0
O141 O 0.94898 0.85654 0.83755 0.0
N142 N 0.97739 0.83983 0.86587 0.0
C143 C 0.96919 0.82053 0.86325 0.0
C144 C 0.9532 0.81781 0.87726 0.0
C145 C 0.96649 0.84835 0.88167 0.0
N146 N 0.95161 0.83529 0.8888 0.0
C147 C 0.00384 0.81705 0.82623 0.0
C148 C 0.98331 0.82935 0.79068 0.0
C149 C 0.99274 0.80953 0.79127 0.0
C150 C 0.00302 0.80348 0.80939 0.0
C151 C 0.98418 0.84244 0.80814 0.0
N152 N 0.99428 0.83622 0.82583 0.0
H153 H 0.012 0.81169 0.83982 0.0
H154 H 0.97707 0.85764 0.80695 0.0
H155 H 0.97379 0.80927 0.85172 0.0
H156 H 0.96869 0.86421 0.88715 0.0
O157 O 0.0198 0.8376 0.86384 0.0
O158 O 0.00802 0.86789 0.87552 0.0
O159 O 0.97775 0.87627 0.8416 0.0
C160 C 0.02008 0.8517 0.87827 0.0
H161 H 0.03548 0.90355 0.8001 0.0
H162 H 0.94326 0.80417 0.87864 0.0
H163 H 0.97527 0.83467 0.77687 0.0
H164 H 0.01079 0.78844 0.81045 0.0
Co165 Co 0.16298 0.0091 0.85075 0.0
C166 C 0.13723 0.04724 0.84221 0.0
C167 C 0.13347 0.02369 0.81888 0.0
C168 C 0.11944 0.03962 0.81503 0.0
N169 N 0.14446 0.0283 0.83612 0.0
N170 N 0.12191 0.05436 0.82973 0.0
H171 H 0.14216 0.05539 0.85601 0.0
H172 H 0.13496 0.00934 0.81013 0.0
C173 C 0.14397 0.96561 0.84299 0.0
O174 O 0.16066 0.95561 0.8494 0.0
N175 N 0.1811 0.99008 0.8658 0.0
C176 C 0.20136 0.98548 0.86236 0.0
C177 C 0.20715 0.96947 0.87553 0.0
C178 C 0.17535 0.97797 0.88194 0.0
N179 N 0.19072 0.96478 0.88772 0.0
C180 C 0.18859 0.02476 0.8185 0.0
C181 C 0.20018 0.98695 0.80113 0.0
C182 C 0.21018 0.00529 0.7944 0.0
C183 C 0.20353 0.02445 0.80279 0.0
C184 C 0.18499 0.98801 0.81668 0.0
N185 N 0.17999 0.00666 0.82579 0.0
H186 H 0.18435 0.0396 0.82535 0.0
H187 H 0.17843 0.97361 0.82211 0.0
H188 H 0.21105 0.99256 0.85059 0.0
H189 H 0.15954 0.97723 0.88784 0.0
O190 O 0.17764 0.032 0.86357 0.0
O191 O 0.14967 0.01645 0.8767 0.0
O192 O 0.14348 0.98565 0.84208 0.0
C193 C 0.1642 0.03061 0.87861 0.0
H194 H 0.10802 0.04016 0.80268 0.0
H195 H 0.22192 0.96123 0.8755 0.0
H196 H 0.20473 0.97176 0.79523 0.0
H197 H 0.21017 0.03915 0.79765 0.0
Co198 Co 0.99816 0.16643 0.85739 0.0
C199 C 0.97007 0.13125 0.84927 0.0
C200 C 0.96327 0.15703 0.82897 0.0
C201 C 0.94843 0.14169 0.82606 0.0
N202 N 0.97686 0.15038 0.84345 0.0
N203 N 0.95261 0.12553 0.83895 0.0
H204 H 0.97733 0.12213 0.86143 0.0
H205 H 0.96343 0.17236 0.82184 0.0
C206 C 0.03812 0.14445 0.84772 0.0
O207 O 0.04671 0.16301 0.84558 0.0
N208 N 0.01935 0.18189 0.87257 0.0
C209 C 0.02299 0.20268 0.87332 0.0
C210 C 0.03847 0.20648 0.88754 0.0
C211 C 0.0322 0.17351 0.88702 0.0
N212 N 0.04437 0.18812 0.89607 0.0
C213 C 0.99895 0.20096 0.82934 0.0
C214 C 0.01642 0.18112 0.79557 0.0
C215 C 0.01093 0.20234 0.79397 0.0
C216 C 0.00207 0.21215 0.81116 0.0
C217 C 0.01283 0.17032 0.81424 0.0
N218 N 0.00502 0.18053 0.83123 0.0
H219 H 0.99097 0.20888 0.84171 0.0
H220 H 0.01572 0.15368 0.81467 0.0
H221 H 0.01476 0.21463 0.86488 0.0
H222 H 0.03277 0.15695 0.89059 0.0
O223 O 0.97731 0.18583 0.86661 0.0
O224 O 0.98669 0.15751 0.88402 0.0
O225 O 0.0187 0.14288 0.85215 0.0
C226 C 0.975 0.17424 0.88287 0.0
H227 H 0.93489 0.14296 0.81611 0.0
H228 H 0.04458 0.22173 0.8916 0.0
H229 H 0.02267 0.17281 0.78234 0.0
H230 H 0.99725 0.22841 0.81051 0.0
Co231 Co 0.84018 0.01217 0.84734 0.0
C232 C 0.83031 0.04872 0.87535 0.0
C233 C 0.80516 0.02682 0.87193 0.0
C234 C 0.79899 0.04205 0.8855 0.0
N235 N 0.82465 0.03104 0.86523 0.0
N236 N 0.81473 0.05583 0.8877 0.0
H237 H 0.84547 0.05603 0.8741 0.0
H238 H 0.7962 0.01313 0.86775 0.0
C239 C 0.83374 0.96974 0.86949 0.0
O240 O 0.83886 0.95836 0.85336 0.0
N241 N 0.85553 0.99295 0.82974 0.0
C242 C 0.85209 0.98926 0.80947 0.0
C243 C 0.86499 0.97326 0.80313 0.0
C244 C 0.87131 0.98 0.83515 0.0
N245 N 0.87694 0.96737 0.81932 0.0
C246 C 0.80591 0.02497 0.82294 0.0
C247 C 0.78877 0.98631 0.81432 0.0
C248 C 0.78021 0.00419 0.8049 0.0
C249 C 0.78875 0.02373 0.8098 0.0
C250 C 0.80595 0.98828 0.82762 0.0
N251 N 0.81458 0.00743 0.83153 0.0
H252 H 0.81243 0.04022 0.82616 0.0
H253 H 0.81261 0.97428 0.83384 0.0
H254 H 0.84052 0.99715 0.80008 0.0
H255 H 0.87737 0.9787 0.85076 0.0
O256 O 0.85047 0.03485 0.8307 0.0
O257 O 0.86665 0.02254 0.85844 0.0
O258 O 0.83373 0.98976 0.86872 0.0
C259 C 0.86647 0.03573 0.84295 0.0
H260 H 0.78437 0.04239 0.89388 0.0
H261 H 0.86516 0.96605 0.78796 0.0
H262 H 0.78279 0.97085 0.81086 0.0
H263 H 0.78239 0.03804 0.80335 0.0
Co264 Co 0.1549 0.1594 0.00564 0.0
C265 C 0.16532 0.13079 0.97042 0.0
C266 C 0.19227 0.13972 0.98799 0.0
C267 C 0.19848 0.12602 0.9728 0.0
N268 N 0.17153 0.14304 0.98635 0.0
N269 N 0.18151 0.12037 0.96185 0.0
H270 H 0.14935 0.12918 0.96528 0.0
H271 H 0.20221 0.14627 0.99986 0.0
C272 C 0.16429 0.1403 0.04798 0.0
O273 O 0.15757 0.15706 0.05764 0.0
N274 N 0.13806 0.17519 0.02505 0.0
C275 C 0.13939 0.1955 0.03052 0.0
C276 C 0.12463 0.19943 0.04564 0.0
C277 C 0.12208 0.16732 0.03621 0.0
N278 N 0.11395 0.18158 0.04936 0.0
C279 C 0.18328 0.18939 0.99067 0.0
C280 C 0.20584 0.19733 0.0262 0.0
C281 C 0.21028 0.20874 0.00813 0.0
C282 C 0.19892 0.20439 0.99022 0.0
C283 C 0.18965 0.18244 0.02607 0.0
N284 N 0.17835 0.17884 0.00844 0.0
H285 H 0.17528 0.18605 0.97636 0.0
H286 H 0.18639 0.17415 0.04013 0.0
H287 H 0.15055 0.20658 0.02439 0.0
H288 H 0.1172 0.15112 0.03536 0.0
O289 O 0.1413 0.17403 0.98354 0.0
O290 O 0.12957 0.14448 0.99696 0.0
O291 O 0.16514 0.13963 0.02816 0.0
C292 C 0.12711 0.15966 0.98359 0.0
H293 H 0.21411 0.12001 0.9705 0.0
H294 H 0.12255 0.21406 0.05382 0.0
H295 H 0.21448 0.20018 0.04033 0.0
H296 H 0.20225 0.21242 0.9758 0.0
Co297 Co 0.15096 0.8473 0.00093 0.0
C298 C 0.16192 0.87522 0.03652 0.0
C299 C 0.18795 0.86931 0.01649 0.0
C300 C 0.19415 0.88315 0.03153 0.0
N301 N 0.16784 0.86393 0.01978 0.0
N302 N 0.17776 0.88693 0.04402 0.0
H303 H 0.14631 0.87536 0.04289 0.0
H304 H 0.19732 0.86425 0.0035 0.0
C305 C 0.15425 0.87163 0.96011 0.0
O306 O 0.14712 0.85608 0.94891 0.0
N307 N 0.13386 0.8312 0.98205 0.0
C308 C 0.13604 0.81095 0.97674 0.0
C309 C 0.12013 0.80569 0.96341 0.0
C310 C 0.11615 0.83768 0.9727 0.0
N311 N 0.10761 0.82256 0.96071 0.0
C312 C 0.18519 0.82071 0.00938 0.0
C313 C 0.19865 0.81364 0.96936 0.0
C314 C 0.20811 0.80265 0.98567 0.0
C315 C 0.2014 0.80665 0.0059 0.0
C316 C 0.18258 0.82794 0.97358 0.0
N317 N 0.17572 0.83105 0.9934 0.0
H318 H 0.17993 0.8231 0.02511 0.0
H319 H 0.17527 0.83559 0.96075 0.0
H320 H 0.14831 0.80066 0.98213 0.0
H321 H 0.11005 0.85337 0.97442 0.0
O322 O 0.14186 0.82931 0.0229 0.0
O323 O 0.12543 0.8583 0.01343 0.0
O324 O 0.1565 0.86998 0.97972 0.0
C325 C 0.12614 0.84183 0.02545 0.0
H326 H 0.20925 0.89066 0.0326 0.0
H327 H 0.11834 0.79061 0.95605 0.0
H328 H 0.20342 0.81098 0.95348 0.0
H329 H 0.20809 0.79835 0.01897 0.0
Co330 Co 0.84826 0.16439 0.01132 0.0
C331 C 0.84095 0.12812 0.03798 0.0
C332 C 0.81215 0.14476 0.0346 0.0
C333 C 0.80891 0.12786 0.0475 0.0
N334 N 0.8325 0.14526 0.02899 0.0
N335 N 0.82709 0.11748 0.04951 0.0
H336 H 0.85712 0.12354 0.03654 0.0
H337 H 0.80008 0.15533 0.02948 0.0
C338 C 0.82853 0.13549 0.98079 0.0
O339 O 0.81037 0.1393 0.98943 0.0
N340 N 0.86496 0.18169 0.99357 0.0
C341 C 0.86616 0.20262 0.99121 0.0
C342 C 0.88263 0.20691 0.97792 0.0
C343 C 0.88051 0.17366 0.98215 0.0
N344 N 0.89168 0.18857 0.97255 0.0
C345 C 0.81437 0.19123 0.02036 0.0
C346 C 0.80169 0.19975 0.98033 0.0
C347 C 0.79228 0.2104 0.99688 0.0
C348 C 0.79862 0.20579 0.01703 0.0
C349 C 0.81754 0.18502 0.98438 0.0
N350 N 0.82346 0.1807 0.00431 0.0
H351 H 0.81941 0.18851 0.03609 0.0
H352 H 0.82567 0.17788 0.97153 0.0
H353 H 0.8562 0.21387 0.9989 0.0
H354 H 0.88376 0.15705 0.98117 0.0
O355 O 0.85628 0.18075 0.03489 0.0
O356 O 0.87421 0.15365 0.02316 0.0
O357 O 0.84497 0.14434 0.98757 0.0
C358 C 0.87231 0.16856 0.03682 0.0
H359 H 0.79431 0.12347 0.05473 0.0
H360 H 0.88791 0.22226 0.97311 0.0
H361 H 0.79759 0.20352 0.96448 0.0
H362 H 0.792 0.21406 0.03013 0.0
Co363 Co 0.83577 0.85972 0.00279 0.0
C364 C 0.86685 0.85123 0.03677 0.0
C365 C 0.86683 0.82803 0.0127 0.0
C366 C 0.88116 0.82218 0.02736 0.0
N367 N 0.85757 0.84604 0.01867 0.0
N368 N 0.88117 0.83675 0.04239 0.0
H369 H 0.86316 0.86498 0.04582 0.0
H370 H 0.86323 0.81957 0.99864 0.0
C371 C 0.85129 0.8561 0.958 0.0
O372 O 0.8327 0.85997 0.95041 0.0
N373 N 0.81452 0.87375 0.98652 0.0
C374 C 0.7948 0.8678 0.98224 0.0
C375 C 0.78696 0.88091 0.96708 0.0
C376 C 0.81784 0.89109 0.97505 0.0
N377 N 0.80159 0.8954 0.96249 0.0
C378 C 0.81774 0.82274 0.01812 0.0
C379 C 0.80554 0.80421 0.98155 0.0
C380 C 0.80021 0.79458 0.00041 0.0
C381 C 0.80701 0.80388 0.01879 0.0
C382 C 0.81675 0.82305 0.98156 0.0
N383 N 0.82231 0.8324 0.99977 0.0
H384 H 0.82244 0.82968 0.03263 0.0
H385 H 0.81999 0.8302 0.96697 0.0
H386 H 0.78709 0.85422 0.98867 0.0
H387 H 0.83288 0.89875 0.974 0.0
O388 O 0.82086 0.86754 0.02719 0.0
O389 O 0.84505 0.8873 0.01258 0.0
O390 O 0.85454 0.85577 0.97759 0.0
C391 C 0.83105 0.885 0.02715 0.0
H392 H 0.89104 0.80842 0.02695 0.0
H393 H 0.77221 0.87912 0.95911 0.0
H394 H 0.80049 0.79768 0.96692 0.0
H395 H 0.8039 0.79678 0.03371 0.0
Co396 Co 0.99883 0.65696 0.6644 0.0
C397 C 0.96587 0.66065 0.63209 0.0
C398 C 0.97916 0.69044 0.63969 0.0
C399 C 0.96548 0.69311 0.62343 0.0
N400 N 0.97929 0.67008 0.64529 0.0
N401 N 0.95725 0.6743 0.6186 0.0
H402 H 0.96274 0.64405 0.63183 0.0
H403 H 0.98908 0.7024 0.64626 0.0
C404 C 0.04178 0.66824 0.64753 0.0
O405 O 0.05117 0.66178 0.66443 0.0
N406 N 0.01835 0.64333 0.68304 0.0
C407 C 0.02114 0.64639 0.70351 0.0
C408 C 0.03549 0.63195 0.71069 0.0
C409 C 0.03047 0.6267 0.67825 0.0
N410 N 0.04142 0.61967 0.69471 0.0
C411 C 0.9793 0.68636 0.69092 0.0
C412 C 0.01346 0.71116 0.69981 0.0
C413 C 0.99456 0.71497 0.71009 0.0
C414 C 0.97729 0.70256 0.70523 0.0
C415 C 0.01492 0.69447 0.68574 0.0
N416 N 0.99803 0.68202 0.68175 0.0
H417 H 0.96573 0.67701 0.68741 0.0
H418 H 0.02978 0.69136 0.67873 0.0
H419 H 0.01312 0.65802 0.71272 0.0
H420 H 0.03125 0.61995 0.66292 0.0
O421 O 0.97672 0.64182 0.67788 0.0
O422 O 0.99443 0.63018 0.65074 0.0
O423 O 0.02187 0.66827 0.64609 0.0
C424 C 0.97987 0.62699 0.66452 0.0
H425 H 0.96263 0.70759 0.61517 0.0
H426 H 0.04116 0.6307 0.72643 0.0
H427 H 0.02719 0.7204 0.70328 0.0
H428 H 0.96236 0.70517 0.71268 0.0
Co429 Co 0.8504 0.50044 0.65158 0.0
C430 C 0.88196 0.53284 0.66341 0.0
C431 C 0.87532 0.51129 0.68806 0.0
C432 C 0.89031 0.52506 0.69479 0.0
N433 N 0.86978 0.51633 0.6685 0.0
N434 N 0.8945 0.53849 0.67925 0.0
H435 H 0.88188 0.54059 0.64852 0.0
H436 H 0.86914 0.49819 0.69675 0.0
C437 C 0.86623 0.45525 0.65641 0.0
O438 O 0.84926 0.44704 0.64848 0.0
N439 N 0.8316 0.48443 0.63438 0.0
C440 C 0.81065 0.48335 0.63541 0.0
C441 C 0.80368 0.47081 0.61949 0.0
C442 C 0.83698 0.47344 0.61736 0.0
N443 N 0.82031 0.4644 0.60825 0.0
C444 C 0.82618 0.51481 0.68519 0.0
C445 C 0.81205 0.47683 0.70013 0.0
C446 C 0.80581 0.49533 0.71007 0.0
C447 C 0.81307 0.51446 0.70235 0.0
C448 C 0.82556 0.47786 0.68305 0.0
N449 N 0.83252 0.49674 0.67581 0.0
H450 H 0.83146 0.5298 0.67946 0.0
H451 H 0.82984 0.46354 0.67554 0.0
H452 H 0.80109 0.49113 0.64687 0.0
H453 H 0.85299 0.47128 0.61249 0.0
O454 O 0.83735 0.52546 0.64149 0.0
O455 O 0.86437 0.51012 0.62642 0.0
O456 O 0.86816 0.47509 0.65844 0.0
C457 C 0.85055 0.5252 0.62628 0.0
H458 H 0.89797 0.52488 0.70973 0.0
H459 H 0.78757 0.46672 0.61651 0.0
H460 H 0.80664 0.46172 0.70556 0.0
H461 H 0.80834 0.52915 0.7093 0.0
Co462 Co 0.99966 0.33457 0.64658 0.0
C463 C 0.96046 0.35531 0.66059 0.0
C464 C 0.98502 0.35852 0.68284 0.0
C465 C 0.96836 0.37061 0.68912 0.0
N466 N 0.98021 0.3491 0.66475 0.0
N467 N 0.95299 0.36858 0.67503 0.0
H468 H 0.95202 0.35151 0.64664 0.0
H469 H 1.00003 0.35773 0.69042 0.0
C470 C 0.04228 0.35245 0.65736 0.0
O471 O 0.05175 0.33483 0.65267 0.0
N472 N 0.01891 0.32045 0.62821 0.0
C473 C 0.02152 0.29974 0.62492 0.0
C474 C 0.03625 0.29704 0.60954 0.0
C475 C 0.03151 0.32999 0.61442 0.0
N476 N 0.04258 0.31611 0.60319 0.0
C477 C 0.99175 0.29597 0.66743 0.0
C478 C 0.01819 0.30115 0.70078 0.0
C479 C 0.00527 0.2835 0.70005 0.0
C480 C 0.99213 0.28092 0.68303 0.0
C481 C 0.01716 0.31612 0.68486 0.0
N482 N 0.00405 0.31346 0.6683 0.0
H483 H 0.98117 0.29343 0.65474 0.0
H484 H 0.02631 0.33009 0.68661 0.0
H485 H 0.0134 0.28738 0.63297 0.0
H486 H 0.03288 0.34683 0.61297 0.0
O487 O 0.97698 0.32132 0.63214 0.0
O488 O 0.99062 0.35179 0.62325 0.0
O489 O 0.02239 0.3539 0.65689 0.0
C490 C 0.97709 0.33709 0.61946 0.0
H491 H 0.96794 0.38082 0.70249 0.0
H492 H 0.0423 0.28226 0.60393 0.0
H493 H 0.02823 0.30386 0.71401 0.0
H494 H 0.98183 0.26751 0.68199 0.0
Co495 Co 0.15526 0.50091 0.65341 0.0
C496 C 0.12648 0.46412 0.65575 0.0
C497 C 0.13382 0.47539 0.68607 0.0
C498 C 0.12104 0.45824 0.68806 0.0
N499 N 0.13724 0.47935 0.66575 0.0
N500 N 0.11658 0.45112 0.669 0.0
H501 H 0.12592 0.46228 0.63912 0.0
H502 H 0.14074 0.48364 0.69891 0.0
C503 C 0.12517 0.52895 0.67719 0.0
O504 O 0.1295 0.51938 0.69464 0.0
N505 N 0.17288 0.52197 0.64096 0.0
C506 C 0.19382 0.52328 0.64227 0.0
C507 C 0.20035 0.54033 0.63093 0.0
C508 C 0.16694 0.53789 0.62852 0.0
N509 N 0.18345 0.54941 0.62226 0.0
C510 C 0.18072 0.48659 0.68657 0.0
C511 C 0.18764 0.52503 0.70498 0.0
C512 C 0.19773 0.50724 0.71301 0.0
C513 C 0.19401 0.48783 0.7036 0.0
C514 C 0.17432 0.52306 0.68791 0.0
N515 N 0.17072 0.50393 0.67916 0.0
H516 H 0.17854 0.4716 0.67911 0.0
H517 H 0.16743 0.53701 0.68129 0.0
H518 H 0.20365 0.51255 0.65085 0.0
H519 H 0.1509 0.54104 0.62428 0.0
O520 O 0.17241 0.4795 0.64095 0.0
O521 O 0.14484 0.49421 0.62608 0.0
O522 O 0.13423 0.52355 0.66037 0.0
C523 C 0.1604 0.4811 0.62478 0.0
H524 H 0.11618 0.45097 0.70243 0.0
H525 H 0.21632 0.54547 0.62891 0.0
H526 H 0.19023 0.54037 0.71163 0.0
H527 H 0.2019 0.47379 0.70887 0.0
Co528 Co 0.00697 0.35163 0.3494 0.0
C529 C 0.0431 0.38036 0.34377 0.0
C530 C 0.03139 0.37092 0.31424 0.0
C531 C 0.04798 0.38428 0.31112 0.0
N532 N 0.02816 0.36838 0.33484 0.0
N533 N 0.05529 0.39 0.32975 0.0
H534 H 0.04531 0.38223 0.36024 0.0
H535 H 0.02309 0.36301 0.30203 0.0
C536 C 0.97781 0.37576 0.32126 0.0
O537 O 0.98631 0.36695 0.30499 0.0
N538 N 0.98606 0.33596 0.36436 0.0
C539 C 0.98572 0.31529 0.36841 0.0
C540 C 0.96922 0.31122 0.38153 0.0
C541 C 0.97 0.34421 0.37513 0.0
N542 N 0.95936 0.32945 0.38581 0.0
C543 C 0.02212 0.32387 0.31844 0.0
C544 C 0.98402 0.31042 0.30358 0.0
C545 C 0.00237 0.30209 0.29485 0.0
C546 C 0.02158 0.30914 0.30256 0.0
C547 C 0.98529 0.32553 0.31924 0.0
N548 N 0.00422 0.33258 0.32601 0.0
H549 H 0.03709 0.32852 0.32463 0.0
H550 H 0.97105 0.33152 0.32602 0.0
H551 H 0.99703 0.3041 0.36273 0.0
H552 H 0.96654 0.36079 0.37541 0.0
O553 O 0.02847 0.33626 0.36354 0.0
O554 O 0.01404 0.36556 0.3752 0.0
O555 O 0.98432 0.3714 0.33948 0.0
C556 C 0.0274 0.35035 0.37799 0.0
H557 H 0.0547 0.38874 0.29638 0.0
H558 H 0.96538 0.29609 0.38805 0.0
H559 H 0.96877 0.30506 0.2987 0.0
H560 H 0.03623 0.30343 0.2964 0.0
Co561 Co 0.1702 0.51182 0.34959 0.0
C562 C 0.14665 0.55092 0.34007 0.0
C563 C 0.14303 0.52787 0.3163 0.0
C564 C 0.1297 0.54432 0.31215 0.0
N565 N 0.15364 0.53192 0.3339 0.0
N566 N 0.132 0.55875 0.32718 0.0
H567 H 0.15092 0.55841 0.35442 0.0
H568 H 0.14384 0.5134 0.30769 0.0
C569 C 0.14873 0.47004 0.34347 0.0
O570 O 0.16659 0.46014 0.34554 0.0
N571 N 0.18629 0.49188 0.36565 0.0
C572 C 0.20667 0.48701 0.36399 0.0
C573 C 0.21136 0.47189 0.37849 0.0
C574 C 0.17908 0.48029 0.38162 0.0
N575 N 0.19393 0.46748 0.38942 0.0
C576 C 0.20425 0.51682 0.32121 0.0
C577 C 0.19423 0.48531 0.29381 0.0
C578 C 0.21314 0.49604 0.29111 0.0
C579 C 0.21775 0.51234 0.30485 0.0
C580 C 0.18102 0.49045 0.31031 0.0
N581 N 0.18648 0.50542 0.32448 0.0
H582 H 0.20861 0.52932 0.3315 0.0
H583 H 0.16636 0.48244 0.3111 0.0
H584 H 0.21747 0.49376 0.35305 0.0
H585 H 0.16294 0.48043 0.38654 0.0
O586 O 0.1876 0.53376 0.36049 0.0
O587 O 0.15866 0.52259 0.37546 0.0
O588 O 0.14797 0.49008 0.34356 0.0
C589 C 0.17485 0.53492 0.37604 0.0
H590 H 0.1186 0.54519 0.29954 0.0
H591 H 0.22648 0.46464 0.38065 0.0
H592 H 0.18968 0.47286 0.28339 0.0
H593 H 0.23168 0.52174 0.303 0.0
Co594 Co 0.00229 0.6638 0.35589 0.0
C595 C 0.97051 0.63192 0.34606 0.0
C596 C 0.98754 0.64101 0.31898 0.0
C597 C 0.97485 0.62432 0.31396 0.0
N598 N 0.98469 0.64587 0.33913 0.0
N599 N 0.9644 0.61855 0.33115 0.0
H600 H 0.96522 0.63083 0.36189 0.0
H601 H 0.99899 0.64817 0.30892 0.0
C602 C 0.04616 0.64561 0.35061 0.0
O603 O 0.0548 0.66207 0.3592 0.0
N604 N 0.01979 0.68111 0.37315 0.0
C605 C 0.02379 0.70181 0.37216 0.0
C606 C 0.03571 0.70726 0.38918 0.0
C607 C 0.02858 0.67449 0.39093 0.0
N608 N 0.03856 0.68998 0.40094 0.0
C609 C 0.98886 0.69247 0.32526 0.0
C610 C 0.02697 0.70103 0.30711 0.0
C611 C 0.00925 0.71206 0.30061 0.0
C612 C 0.99002 0.70751 0.30968 0.0
C613 C 0.0252 0.68626 0.32309 0.0
N614 N 0.00631 0.68233 0.33217 0.0
H615 H 0.9738 0.68907 0.33194 0.0
H616 H 0.03912 0.67858 0.32829 0.0
H617 H 0.01826 0.71226 0.36016 0.0
H618 H 0.02834 0.65833 0.396 0.0
O619 O 0.9784 0.67781 0.36751 0.0
O620 O 0.99287 0.64939 0.38089 0.0
O621 O 0.02638 0.64475 0.34784 0.0
C622 C 0.97855 0.66389 0.38213 0.0
H623 H 0.97434 0.61627 0.29922 0.0
H624 H 0.04163 0.72272 0.39271 0.0
H625 H 0.0421 0.70427 0.30035 0.0
H626 H 0.97598 0.71564 0.30483 0.0
Co627 Co 0.8498 0.50994 0.33926 0.0
C628 C 0.84213 0.53918 0.37346 0.0
C629 C 0.82327 0.54703 0.34705 0.0
C630 C 0.81984 0.56172 0.3623 0.0
N631 N 0.83707 0.5328 0.3542 0.0
N632 N 0.83182 0.55681 0.3788 0.0
H633 H 0.85342 0.53128 0.3832 0.0
H634 H 0.81665 0.54714 0.33165 0.0
C635 C 0.83594 0.47155 0.36155 0.0
O636 O 0.83136 0.46336 0.34345 0.0
N637 N 0.86357 0.48699 0.3249 0.0
C638 C 0.8649 0.48272 0.30449 0.0
C639 C 0.87905 0.46679 0.30162 0.0
C640 C 0.87729 0.4738 0.33399 0.0
N641 N 0.88693 0.46111 0.3202 0.0
C642 C 0.8226 0.51106 0.30444 0.0
C643 C 0.78603 0.50036 0.3244 0.0
C644 C 0.78533 0.50596 0.30338 0.0
C645 C 0.80399 0.51113 0.29345 0.0
C646 C 0.80521 0.50055 0.33496 0.0
N647 N 0.82338 0.50527 0.32478 0.0
H648 H 0.83622 0.51686 0.29659 0.0
H649 H 0.8052 0.49791 0.35147 0.0
H650 H 0.85726 0.49103 0.29216 0.0
H651 H 0.88047 0.47403 0.35043 0.0
O652 O 0.86168 0.52963 0.32008 0.0
O653 O 0.87693 0.51908 0.34907 0.0
O654 O 0.84262 0.49037 0.36275 0.0
C655 C 0.87755 0.5307 0.33247 0.0
H656 H 0.80996 0.57542 0.36105 0.0
H657 H 0.88381 0.46071 0.28673 0.0
H658 H 0.77184 0.49674 0.33277 0.0
H659 H 0.80423 0.51565 0.27727 0.0
Co660 Co 0.15491 0.66713 0.50473 0.0
C661 C 0.16245 0.63226 0.47596 0.0
C662 C 0.17947 0.6598 0.46698 0.0
C663 C 0.18276 0.64449 0.45236 0.0
N664 N 0.16694 0.652 0.48184 0.0
N665 N 0.172 0.62722 0.45799 0.0
H666 H 0.15205 0.62202 0.48444 0.0
H667 H 0.18527 0.67569 0.4665 0.0
C668 C 0.16967 0.64192 0.54082 0.0
O669 O 0.17705 0.65941 0.54863 0.0
N670 N 0.14165 0.68213 0.52761 0.0
C671 C 0.13496 0.70226 0.52795 0.0
C672 C 0.12289 0.70547 0.5453 0.0
C673 C 0.13257 0.6733 0.54438 0.0
N674 N 0.1216 0.68723 0.55563 0.0
C675 C 0.18379 0.70047 0.51042 0.0
C676 C 0.21972 0.67648 0.5118 0.0
C677 C 0.22137 0.69838 0.51201 0.0
C678 C 0.20305 0.71031 0.51136 0.0
C679 C 0.19992 0.66717 0.51101 0.0
N680 N 0.18219 0.6792 0.5106 0.0
H681 H 0.17026 0.71012 0.50827 0.0
H682 H 0.19886 0.65031 0.50996 0.0
H683 H 0.13725 0.71364 0.51578 0.0
H684 H 0.13248 0.6567 0.5476 0.0
O685 O 0.14553 0.68816 0.48564 0.0
O686 O 0.12731 0.66004 0.49462 0.0
O687 O 0.16025 0.64213 0.52333 0.0
C688 C 0.12861 0.67719 0.48365 0.0
H689 H 0.19165 0.64626 0.43821 0.0
H690 H 0.11509 0.71987 0.54963 0.0
H691 H 0.23353 0.6667 0.51197 0.0
H692 H 0.20359 0.72726 0.51061 0.0
Co693 Co 0.16162 0.35735 0.49903 0.0
C694 C 0.13003 0.34691 0.46659 0.0
C695 C 0.13784 0.32053 0.48569 0.0
C696 C 0.12262 0.3145 0.47196 0.0
N697 N 0.14278 0.34077 0.48216 0.0
N698 N 0.11768 0.33111 0.46005 0.0
H699 H 0.12947 0.36258 0.46026 0.0
H700 H 0.14432 0.31091 0.49789 0.0
C701 C 0.14331 0.35428 0.5427 0.0
O702 O 0.16034 0.3615 0.55138 0.0
N703 N 0.18018 0.37414 0.51585 0.0
C704 C 0.20073 0.37141 0.51933 0.0
C705 C 0.20744 0.38683 0.53268 0.0
C706 C 0.17497 0.39175 0.52615 0.0
N707 N 0.19112 0.39945 0.53722 0.0
C708 C 0.18857 0.32432 0.48665 0.0
C709 C 0.19522 0.30634 0.52499 0.0
C710 C 0.2059 0.29823 0.50779 0.0
C711 C 0.2022 0.30737 0.48838 0.0
C712 C 0.18179 0.32346 0.5226 0.0
N713 N 0.17877 0.33245 0.50363 0.0
H714 H 0.18597 0.33106 0.47153 0.0
H715 H 0.1743 0.32946 0.53616 0.0
H716 H 0.21013 0.3589 0.51297 0.0
H717 H 0.15916 0.39765 0.52686 0.0
O718 O 0.17595 0.36778 0.47496 0.0
O719 O 0.14853 0.38309 0.48937 0.0
O720 O 0.14234 0.35097 0.52317 0.0
C721 C 0.16298 0.38342 0.47514 0.0
H722 H 0.1152 0.29929 0.4713 0.0
H723 H 0.22305 0.38826 0.53891 0.0
H724 H 0.1973 0.29963 0.54027 0.0
H725 H 0.2102 0.30191 0.47464 0.0
Co726 Co 0.8468 0.6606 0.50527 0.0
C727 C 0.83897 0.62801 0.53718 0.0
C728 C 0.81049 0.64405 0.53013 0.0
C729 C 0.80652 0.62939 0.54518 0.0
N730 N 0.83098 0.64345 0.52508 0.0
N731 N 0.82445 0.61938 0.54971 0.0
H732 H 0.85518 0.62334 0.53719 0.0
H733 H 0.7987 0.65377 0.5231 0.0
C734 C 0.82461 0.63048 0.47786 0.0
O735 O 0.8075 0.63574 0.48772 0.0
N736 N 0.86304 0.67691 0.48602 0.0
C737 C 0.86375 0.69793 0.48459 0.0
C738 C 0.878 0.70326 0.46954 0.0
C739 C 0.87699 0.66969 0.47212 0.0
N740 N 0.88633 0.6855 0.46174 0.0
C741 C 0.81316 0.68895 0.51227 0.0
C742 C 0.80053 0.69343 0.47155 0.0
C743 C 0.79022 0.70478 0.48705 0.0
C744 C 0.79678 0.70247 0.50758 0.0
C745 C 0.81665 0.67959 0.47702 0.0
N746 N 0.82227 0.67691 0.49731 0.0
H747 H 0.81834 0.68785 0.52816 0.0
H748 H 0.82498 0.67149 0.46488 0.0
H749 H 0.8547 0.70861 0.494 0.0
H750 H 0.88017 0.65323 0.46966 0.0
O751 O 0.85583 0.67854 0.52733 0.0
O752 O 0.87282 0.65015 0.51717 0.0
O753 O 0.84202 0.63884 0.4829 0.0
C754 C 0.87178 0.66627 0.52956 0.0
H755 H 0.79144 0.62616 0.55204 0.0
H756 H 0.88222 0.71902 0.46501 0.0
H757 H 0.79619 0.69527 0.45543 0.0
H758 H 0.78956 0.71144 0.5199 0.0
Co759 Co 0.84182 0.35289 0.49775 0.0
C760 C 0.87384 0.34294 0.5302 0.0
C761 C 0.85863 0.31517 0.51942 0.0
C762 C 0.87271 0.30956 0.53433 0.0
N763 N 0.85902 0.33619 0.51675 0.0
N764 N 0.8822 0.32697 0.54121 0.0
H765 H 0.87817 0.35915 0.53233 0.0
H766 H 0.84869 0.30423 0.51143 0.0
C767 C 0.86577 0.32619 0.46711 0.0
O768 O 0.85785 0.30922 0.47538 0.0
N769 N 0.82517 0.36945 0.47892 0.0
C770 C 0.8042 0.37115 0.47863 0.0
C771 C 0.79855 0.38377 0.46223 0.0
C772 C 0.83206 0.38139 0.4631 0.0
N773 N 0.81608 0.39021 0.45261 0.0
C774 C 0.81258 0.32312 0.51216 0.0
C775 C 0.80024 0.30707 0.4744 0.0
C776 C 0.79113 0.29924 0.49265 0.0
C777 C 0.79739 0.30763 0.51163 0.0
C778 C 0.81568 0.32259 0.47565 0.0
N779 N 0.8222 0.32983 0.49448 0.0
H780 H 0.81698 0.32951 0.52701 0.0
H781 H 0.82222 0.32895 0.46155 0.0
H782 H 0.79375 0.3635 0.48939 0.0
H783 H 0.84836 0.38323 0.45907 0.0
O784 O 0.82785 0.36593 0.52067 0.0
O785 O 0.8565 0.3783 0.50591 0.0
O786 O 0.86048 0.34428 0.47381 0.0
C787 C 0.84193 0.38048 0.51989 0.0
H788 H 0.87575 0.29378 0.5397 0.0
H789 H 0.78281 0.38798 0.45774 0.0
H790 H 0.79549 0.30128 0.45937 0.0
H791 H 0.79029 0.30258 0.52602 0.0
Co792 Co 0.49844 0.1557 0.65916 0.0
C793 C 0.46614 0.1674 0.62768 0.0
C794 C 0.48477 0.19345 0.63753 0.0
C795 C 0.47122 0.20035 0.62258 0.0
N796 N 0.4814 0.17287 0.64105 0.0
N797 N 0.45961 0.18397 0.61638 0.0
H798 H 0.46012 0.1517 0.62589 0.0
H799 H 0.4968 0.20273 0.64482 0.0
C800 C 0.54266 0.16354 0.64237 0.0
O801 O 0.55197 0.15555 0.65866 0.0
N802 N 0.51571 0.13873 0.67715 0.0
C803 C 0.51691 0.13985 0.69796 0.0
C804 C 0.53075 0.1249 0.70483 0.0
C805 C 0.5281 0.12254 0.67173 0.0
N806 N 0.53794 0.11417 0.68831 0.0
C807 C 0.48217 0.18581 0.68628 0.0
C808 C 0.51893 0.20428 0.69898 0.0
C809 C 0.50001 0.21034 0.70814 0.0
C810 C 0.4815 0.20113 0.70144 0.0
C811 C 0.51894 0.18851 0.6839 0.0
N812 N 0.50066 0.17931 0.67796 0.0
H813 H 0.4676 0.17906 0.6812 0.0
H814 H 0.5336 0.18347 0.67759 0.0
H815 H 0.50842 0.15083 0.70753 0.0
H816 H 0.53025 0.11739 0.65591 0.0
O817 O 0.47444 0.14334 0.67187 0.0
O818 O 0.49014 0.13043 0.64416 0.0
O819 O 0.52278 0.16489 0.64139 0.0
C820 C 0.47529 0.12882 0.65795 0.0
H821 H 0.47057 0.21599 0.6161 0.0
H822 H 0.53558 0.12253 0.72073 0.0
H823 H 0.53353 0.21125 0.70383 0.0
H824 H 0.46657 0.20579 0.70783 0.0
Co825 Co 0.34293 0.00671 0.6496 0.0
C826 C 0.37002 0.04254 0.6612 0.0
C827 C 0.36097 0.02446 0.68768 0.0
C828 C 0.37539 0.03912 0.69386 0.0
N829 N 0.35728 0.02677 0.66721 0.0
N830 N 0.38118 0.05032 0.67714 0.0
H831 H 0.37189 0.04778 0.64539 0.0
H832 H 0.35473 0.01208 0.69728 0.0
C833 C 0.36694 0.96585 0.6568 0.0
O834 O 0.35217 0.95458 0.64823 0.0
N835 N 0.32984 0.98666 0.63138 0.0
C836 C 0.31045 0.97855 0.63132 0.0
C837 C 0.309 0.96459 0.61501 0.0
C838 C 0.33948 0.97833 0.61478 0.0
N839 N 0.32742 0.96436 0.60474 0.0
C840 C 0.31328 0.016 0.68047 0.0
C841 C 0.3064 0.97638 0.69615 0.0
C842 C 0.29515 0.99332 0.70435 0.0
C843 C 0.29884 0.0133 0.69631 0.0
C844 C 0.3211 0.97984 0.68037 0.0
N845 N 0.32436 0.99953 0.67263 0.0
H846 H 0.31574 0.03164 0.67458 0.0
H847 H 0.32924 0.96658 0.67428 0.0
H848 H 0.29835 0.98222 0.64241 0.0
H849 H 0.35542 0.982 0.61069 0.0
O850 O 0.32534 0.02799 0.63815 0.0
O851 O 0.35605 0.01933 0.62511 0.0
O852 O 0.36525 0.9858 0.65825 0.0
C853 C 0.33926 0.03091 0.62394 0.0
H854 H 0.3821 0.04051 0.70919 0.0
H855 H 0.29563 0.9549 0.61149 0.0
H856 H 0.30393 0.96065 0.70194 0.0
H857 H 0.29032 0.0268 0.70197 0.0
Co858 Co 0.50021 0.84756 0.6634 0.0
C859 C 0.46497 0.8717 0.6813 0.0
C860 C 0.49403 0.8851 0.6904 0.0
C861 C 0.47832 0.89871 0.69571 0.0
N862 N 0.48582 0.86795 0.68123 0.0
N863 N 0.46001 0.89053 0.68953 0.0
H864 H 0.4537 0.86189 0.67357 0.0
H865 H 0.51026 0.8891 0.69135 0.0
C866 C 0.53974 0.86427 0.68349 0.0
O867 O 0.53353 0.85837 0.70199 0.0
N868 N 0.5141 0.82833 0.64499 0.0
C869 C 0.51047 0.80776 0.64205 0.0
C870 C 0.52359 0.80071 0.62659 0.0
C871 C 0.52887 0.83361 0.63117 0.0
N872 N 0.53504 0.81707 0.61976 0.0
C873 C 0.48828 0.82349 0.699 0.0
C874 C 0.52556 0.80194 0.70321 0.0
C875 C 0.50884 0.79664 0.71619 0.0
C876 C 0.49006 0.80782 0.71406 0.0
C877 C 0.52312 0.81766 0.68835 0.0
N878 N 0.50469 0.82832 0.68642 0.0
H879 H 0.47344 0.83124 0.69692 0.0
H880 H 0.53604 0.82105 0.67813 0.0
H881 H 0.49906 0.79863 0.65047 0.0
H882 H 0.53496 0.84932 0.62953 0.0
O883 O 0.47388 0.83676 0.65374 0.0
O884 O 0.49102 0.8633 0.63947 0.0
O885 O 0.52792 0.86189 0.66773 0.0
C886 C 0.47493 0.85085 0.63916 0.0
H887 H 0.48053 0.91422 0.70206 0.0
H888 H 0.52435 0.78491 0.62057 0.0
H889 H 0.5404 0.79388 0.70435 0.0
H890 H 0.47656 0.80398 0.7234 0.0
Co891 Co 0.65571 1.0004 0.65183 0.0
C892 C 0.63389 0.96518 0.67402 0.0
C893 C 0.61343 0.99042 0.66594 0.0
C894 C 0.60177 0.97498 0.67498 0.0
N895 N 0.6338 0.98487 0.66613 0.0
N896 N 0.61465 0.95924 0.68014 0.0
H897 H 0.64713 0.95471 0.67378 0.0
H898 H 0.60706 0.00408 0.65834 0.0
C899 C 0.63146 0.03374 0.67319 0.0
O900 O 0.63448 0.02302 0.69033 0.0
N901 N 0.67659 0.01588 0.63672 0.0
C902 C 0.69743 0.0132 0.63695 0.0
C903 C 0.70622 0.0273 0.6233 0.0
C904 C 0.67293 0.03128 0.62294 0.0
N905 N 0.69078 0.03868 0.61449 0.0
C906 C 0.67894 0.98738 0.68762 0.0
C907 C 0.69231 0.02677 0.69923 0.0
C908 C 0.69957 0.00929 0.71029 0.0
C909 C 0.69257 0.98941 0.70434 0.0
C910 C 0.67869 0.02402 0.68254 0.0
N911 N 0.67178 0.00452 0.67715 0.0
H912 H 0.67516 0.97187 0.68242 0.0
H913 H 0.67421 0.03757 0.67353 0.0
H914 H 0.70561 0.00179 0.64633 0.0
H915 H 0.65741 0.03653 0.61885 0.0
O916 O 0.66841 0.97463 0.64304 0.0
O917 O 0.64356 0.99143 0.62579 0.0
O918 O 0.63944 0.02728 0.65616 0.0
C919 C 0.65621 0.97544 0.62699 0.0
H920 H 0.58491 0.97453 0.67611 0.0
H921 H 0.72273 0.02906 0.62024 0.0
H922 H 0.69741 0.04244 0.70313 0.0
H923 H 0.69838 0.97539 0.71186 0.0
Co924 Co 0.50345 0.8373 0.34555 0.0
C925 C 0.53977 0.86498 0.33465 0.0
C926 C 0.51552 0.86499 0.31173 0.0
C927 C 0.53094 0.87838 0.30533 0.0
N928 N 0.52104 0.85641 0.33002 0.0
N929 N 0.54619 0.87839 0.31971 0.0
H930 H 0.5485 0.86169 0.34861 0.0
H931 H 0.501 0.862 0.30372 0.0
C932 C 0.46051 0.85901 0.3444 0.0
O933 O 0.45038 0.84252 0.35114 0.0
N934 N 0.48584 0.81823 0.36108 0.0
C935 C 0.48164 0.79805 0.35664 0.0
C936 C 0.46707 0.79077 0.37054 0.0
C937 C 0.47496 0.82245 0.37849 0.0
N938 N 0.46269 0.80623 0.38409 0.0
C939 C 0.5139 0.81421 0.30975 0.0
C940 C 0.47399 0.80664 0.29542 0.0
C941 C 0.49095 0.79715 0.28541 0.0
C942 C 0.51114 0.80147 0.29251 0.0
C943 C 0.47747 0.81948 0.3126 0.0
N944 N 0.49722 0.82269 0.31987 0.0
H945 H 0.52955 0.8169 0.31535 0.0
H946 H 0.46418 0.82583 0.32046 0.0
H947 H 0.48805 0.78942 0.34371 0.0
H948 H 0.4744 0.8378 0.38559 0.0
O949 O 0.52698 0.82061 0.35378 0.0
O950 O 0.51468 0.84764 0.37154 0.0
O951 O 0.48022 0.8585 0.34126 0.0
C952 C 0.52806 0.83227 0.3702 0.0
H953 H 0.53059 0.88794 0.29148 0.0
H954 H 0.45952 0.77561 0.37013 0.0
H955 H 0.45814 0.80377 0.29033 0.0
H956 H 0.52469 0.7943 0.28541 0.0
Co957 Co 0.66226 0.99455 0.35648 0.0
C958 C 0.62817 0.02476 0.34678 0.0
C959 C 0.64352 0.01525 0.31892 0.0
C960 C 0.62854 0.02984 0.31396 0.0
N961 N 0.64353 0.01205 0.33964 0.0
N962 N 0.61894 0.03592 0.33151 0.0
H963 H 0.62372 0.02592 0.36287 0.0
H964 H 0.65357 0.00766 0.30782 0.0
C965 C 0.63596 0.96231 0.33506 0.0
O966 O 0.64085 0.9707 0.31716 0.0
N967 N 0.68044 0.9776 0.3734 0.0
C968 C 0.70113 0.98005 0.37599 0.0
C969 C 0.70803 0.96533 0.39 0.0
C970 C 0.67497 0.96157 0.38581 0.0
N971 N 0.69156 0.95368 0.3962 0.0
C972 C 0.69044 0.00481 0.32399 0.0
C973 C 0.70022 0.96425 0.31242 0.0
C974 C 0.71008 0.98101 0.30236 0.0
C975 C 0.70509 0.00148 0.30842 0.0
C976 C 0.6854 0.96831 0.32784 0.0
N977 N 0.68019 0.98843 0.33296 0.0
H978 H 0.68715 0.02068 0.32878 0.0
H979 H 0.67851 0.95528 0.33604 0.0
H980 H 0.71047 0.99191 0.36841 0.0
H981 H 0.65914 0.95591 0.38714 0.0
O982 O 0.67634 0.01931 0.36613 0.0
O983 O 0.64901 0.00465 0.38145 0.0
O984 O 0.64372 0.96953 0.35179 0.0
C985 C 0.66295 0.01949 0.38127 0.0
H986 H 0.6254 0.03587 0.2986 0.0
H987 H 0.72389 0.96376 0.39553 0.0
H988 H 0.70397 0.9482 0.30846 0.0
H989 H 0.71283 0.01485 0.30151 0.0
Co990 Co 0.50366 0.15321 0.34634 0.0
C991 C 0.47009 0.12204 0.33869 0.0
C992 C 0.47704 0.13888 0.31085 0.0
C993 C 0.46116 0.12509 0.30681 0.0
N994 N 0.48276 0.13713 0.33094 0.0
N995 N 0.45664 0.11461 0.32436 0.0
H996 H 0.47026 0.11689 0.35463 0.0
H997 H 0.48411 0.14894 0.29941 0.0
C998 C 0.52915 0.12203 0.32263 0.0
O999 O 0.51872 0.12731 0.30595 0.0
N1000 N 0.52397 0.16882 0.36193 0.0
C1001 C 0.52572 0.18981 0.36272 0.0
C1002 C 0.54119 0.19481 0.37661 0.0
C1003 C 0.53812 0.16129 0.3755 0.0
N1004 N 0.54895 0.17689 0.38465 0.0
C1005 C 0.49507 0.18402 0.31551 0.0
C1006 C 0.53445 0.18591 0.29813 0.0
C1007 C 0.51886 0.19946 0.29076 0.0
C1008 C 0.499 0.19838 0.29972 0.0
C1009 C 0.5299 0.17183 0.31422 0.0
N1010 N 0.51018 0.17051 0.32222 0.0
H1011 H 0.47963 0.18354 0.32219 0.0
H1012 H 0.54239 0.16246 0.32058 0.0
H1013 H 0.51615 0.20071 0.35409 0.0
H1014 H 0.54034 0.14478 0.37863 0.0
O1015 O 0.48185 0.17049 0.35773 0.0
O1016 O 0.49355 0.14128 0.37215 0.0
O1017 O 0.52567 0.13144 0.33975 0.0
C1018 C 0.48078 0.15716 0.37289 0.0
H1019 H 0.45367 0.12289 0.29195 0.0
H1020 H 0.54595 0.21049 0.38087 0.0
H1021 H 0.55016 0.18663 0.29198 0.0
H1022 H 0.48647 0.20849 0.29449 0.0
Co1023 Co 0.34594 0.004 0.35221 0.0
C1024 C 0.33363 0.04502 0.37088 0.0
C1025 C 0.31352 0.02002 0.38039 0.0
C1026 C 0.30794 0.03774 0.39101 0.0
N1027 N 0.3297 0.02444 0.36773 0.0
N1028 N 0.32072 0.05339 0.38519 0.0
H1029 H 0.34648 0.05349 0.36404 0.0
H1030 H 0.30687 0.00471 0.3829 0.0
C1031 C 0.33115 0.96269 0.36996 0.0
O1032 O 0.32887 0.95497 0.35124 0.0
N1033 N 0.36244 0.98333 0.33742 0.0
C1034 C 0.36735 0.982 0.31711 0.0
C1035 C 0.38064 0.96523 0.31424 0.0
C1036 C 0.37336 0.9678 0.34659 0.0
N1037 N 0.38416 0.95629 0.33281 0.0
C1038 C 0.32399 0.00966 0.31444 0.0
C1039 C 0.28579 0.99371 0.32614 0.0
C1040 C 0.28764 0.00379 0.30692 0.0
C1041 C 0.30717 0.01134 0.30102 0.0
C1042 C 0.30321 0.99235 0.33929 0.0
N1043 N 0.32216 1.00034 0.33342 0.0
H1044 H 0.33833 0.01682 0.30955 0.0
H1045 H 0.30098 0.98557 0.35437 0.0
H1046 H 0.36219 0.9925 0.3051 0.0
H1047 H 0.37363 0.9651 0.36314 0.0
O1048 O 0.35964 0.02594 0.33713 0.0
O1049 O 0.37139 0.01277 0.36654 0.0
O1050 O 0.33679 0.98171 0.37249 0.0
C1051 C 0.37399 0.02585 0.35124 0.0
H1052 H 0.29609 0.03873 0.40293 0.0
H1053 H 0.38701 0.95988 0.29965 0.0
H1054 H 0.27087 0.9877 0.33132 0.0
H1055 H 0.30943 0.01894 0.28617 0.0
Co1056 Co 0.65531 0.15587 0.49988 0.0
C1057 C 0.66581 0.12396 0.46786 0.0
C1058 C 0.69328 0.14015 0.47773 0.0
C1059 C 0.6989 0.12583 0.46293 0.0
N1060 N 0.67241 0.13922 0.48083 0.0
N1061 N 0.68162 0.1157 0.45669 0.0
H1062 H 0.64975 0.11908 0.4663 0.0
H1063 H 0.7041 0.1502 0.48577 0.0
C1064 C 0.68049 0.12907 0.52999 0.0
O1065 O 0.69817 0.13379 0.52091 0.0
N1066 N 0.63831 0.17173 0.5189 0.0
C1067 C 0.63384 0.19237 0.51887 0.0
C1068 C 0.62162 0.19674 0.53602 0.0
C1069 C 0.62875 0.16386 0.53574 0.0
N1070 N 0.61871 0.17876 0.54661 0.0
C1071 C 0.68464 0.18604 0.4871 0.0
C1072 C 0.7013 0.19591 0.52529 0.0
C1073 C 0.70865 0.20648 0.50755 0.0
C1074 C 0.70013 0.20111 0.48832 0.0
C1075 C 0.68583 0.18045 0.5233 0.0
N1076 N 0.6781 0.17539 0.50425 0.0
H1077 H 0.67834 0.18233 0.47204 0.0
H1078 H 0.6798 0.17288 0.53703 0.0
H1079 H 0.63935 0.20346 0.50743 0.0
H1080 H 0.62894 0.14748 0.53992 0.0
O1081 O 0.64277 0.1703 0.47693 0.0
O1082 O 0.63028 0.14118 0.49079 0.0
O1083 O 0.66329 0.13685 0.52361 0.0
C1084 C 0.62853 0.1559 0.47685 0.0
H1085 H 0.7146 0.12287 0.45746 0.0
H1086 H 0.61583 0.21197 0.54065 0.0
H1087 H 0.70711 0.19981 0.54055 0.0
H1088 H 0.7055 0.20829 0.47409 0.0
Co1089 Co 0.6471 0.83843 0.51022 0.0
C1090 C 0.65882 0.86952 0.54222 0.0
C1091 C 0.68543 0.85105 0.53395 0.0
C1092 C 0.69143 0.86546 0.5486 0.0
N1093 N 0.66482 0.85337 0.53001 0.0
N1094 N 0.67467 0.87706 0.55378 0.0
H1095 H 0.64314 0.87571 0.54282 0.0
H1096 H 0.69585 0.84023 0.52636 0.0
C1097 C 0.67271 0.866 0.482 0.0
O1098 O 0.69017 0.85916 0.4902 0.0
N1099 N 0.62923 0.82459 0.49062 0.0
C1100 C 0.62597 0.80395 0.48787 0.0
C1101 C 0.6112 0.80148 0.4725 0.0
C1102 C 0.61635 0.83437 0.47728 0.0
N1103 N 0.60515 0.82066 0.46599 0.0
C1104 C 0.67544 0.80572 0.51953 0.0
C1105 C 0.68973 0.79823 0.47981 0.0
C1106 C 0.69626 0.78502 0.49598 0.0
C1107 C 0.68913 0.78921 0.51606 0.0
C1108 C 0.6759 0.81478 0.484 0.0
N1109 N 0.66921 0.81853 0.50377 0.0
H1110 H 0.66982 0.80833 0.53509 0.0
H1111 H 0.66997 0.82403 0.47127 0.0
H1112 H 0.63364 0.79163 0.49652 0.0
H1113 H 0.61525 0.85123 0.47588 0.0
O1114 O 0.63424 0.82289 0.53242 0.0
O1115 O 0.62288 0.85336 0.52037 0.0
O1116 O 0.65517 0.85874 0.4879 0.0
C1117 C 0.6205 0.83783 0.53326 0.0
H1118 H 0.70707 0.86756 0.55456 0.0
H1119 H 0.60508 0.78676 0.46685 0.0
H1120 H 0.69461 0.79532 0.46401 0.0
H1121 H 0.69396 0.77966 0.52909 0.0
Co1122 Co 0.35502 0.16801 0.50041 0.0
C1123 C 0.34657 0.1321 0.52715 0.0
C1124 C 0.32864 0.15877 0.53689 0.0
C1125 C 0.32573 0.14279 0.55097 0.0
N1126 N 0.34161 0.15194 0.52192 0.0
N1127 N 0.33719 0.12614 0.54489 0.0
H1128 H 0.35752 0.12253 0.51858 0.0
H1129 H 0.3226 0.17453 0.53814 0.0
C1130 C 0.33998 0.14899 0.46076 0.0
O1131 O 0.33972 0.16758 0.45204 0.0
N1132 N 0.36944 0.18345 0.47878 0.0
C1133 C 0.36974 0.20415 0.47453 0.0
C1134 C 0.38342 0.2077 0.45849 0.0
C1135 C 0.38333 0.17486 0.46553 0.0
N1136 N 0.39194 0.18927 0.45282 0.0
C1137 C 0.33009 0.20482 0.50538 0.0
C1138 C 0.29298 0.18875 0.49061 0.0
C1139 C 0.29342 0.20951 0.49771 0.0
C1140 C 0.31235 0.21744 0.50519 0.0
C1141 C 0.31123 0.17664 0.49098 0.0
N1142 N 0.32975 0.18497 0.49755 0.0
H1143 H 0.34412 0.21111 0.51216 0.0
H1144 H 0.31008 0.16035 0.48679 0.0
H1145 H 0.36122 0.21619 0.48251 0.0
H1146 H 0.38683 0.15828 0.46511 0.0
O1147 O 0.36901 0.18427 0.52123 0.0
O1148 O 0.38123 0.15482 0.50768 0.0
O1149 O 0.34522 0.14679 0.47972 0.0
C1150 C 0.38347 0.16999 0.52094 0.0
H1151 H 0.31689 0.14378 0.56522 0.0
H1152 H 0.38717 0.22283 0.4519 0.0
H1153 H 0.27854 0.1817 0.48541 0.0
H1154 H 0.31355 0.23333 0.51091 0.0
Co1155 Co 0.3509 0.84582 0.50343 0.0
C1156 C 0.37796 0.84485 0.54165 0.0
C1157 C 0.38114 0.81765 0.52233 0.0
C1158 C 0.39362 0.81503 0.53938 0.0
N1159 N 0.37103 0.83615 0.52382 0.0
N1160 N 0.39163 0.8321 0.5514 0.0
H1161 H 0.37298 0.85986 0.54762 0.0
H1162 H 0.37927 0.8066 0.50978 0.0
C1163 C 0.37144 0.83414 0.46228 0.0
O1164 O 0.35384 0.83548 0.452 0.0
N1165 N 0.33135 0.85577 0.48266 0.0
C1166 C 0.31127 0.85026 0.4796 0.0
C1167 C 0.30341 0.8618 0.46325 0.0
C1168 C 0.33507 0.87125 0.4689 0.0
N1169 N 0.31844 0.87497 0.45662 0.0
C1170 C 0.33227 0.81206 0.52403 0.0
C1171 C 0.31888 0.78885 0.49058 0.0
C1172 C 0.31214 0.78332 0.51056 0.0
C1173 C 0.32002 0.79453 0.5274 0.0
C1174 C 0.33191 0.80635 0.48789 0.0
N1175 N 0.33774 0.81824 0.50452 0.0
H1176 H 0.33675 0.82128 0.53732 0.0
H1177 H 0.33583 0.81096 0.47243 0.0
H1178 H 0.30283 0.83879 0.48864 0.0
H1179 H 0.34997 0.8791 0.46741 0.0
O1180 O 0.33348 0.85835 0.52409 0.0
O1181 O 0.3595 0.87472 0.50816 0.0
O1182 O 0.37218 0.8375 0.48178 0.0
C1183 C 0.34399 0.87543 0.52129 0.0
H1184 H 0.40355 0.8017 0.54269 0.0
H1185 H 0.28781 0.86079 0.4569 0.0
H1186 H 0.31313 0.78061 0.47708 0.0
H1187 H 0.31579 0.79051 0.54316 0.0
Co1188 Co 0.49775 0.64992 0.15507 0.0
C1189 C 0.46217 0.6589 0.12627 0.0
C1190 C 0.48273 0.6851 0.13014 0.0
C1191 C 0.4671 0.69083 0.11672 0.0
N1192 N 0.47954 0.66518 0.13637 0.0
N1193 N 0.45428 0.67433 0.1143 0.0
H1194 H 0.45531 0.6435 0.12753 0.0
H1195 H 0.49569 0.69481 0.13492 0.0
C1196 C 0.54138 0.65819 0.13746 0.0
O1197 O 0.5509 0.64994 0.15349 0.0
N1198 N 0.51596 0.63461 0.17364 0.0
C1199 C 0.51793 0.63707 0.19428 0.0
C1200 C 0.53173 0.62228 0.20164 0.0
C1201 C 0.52778 0.61779 0.1689 0.0
N1202 N 0.53806 0.61031 0.1856 0.0
C1203 C 0.48118 0.68276 0.17943 0.0
C1204 C 0.51825 0.70228 0.18954 0.0
C1205 C 0.49943 0.71076 0.19687 0.0
C1206 C 0.48072 0.70078 0.19153 0.0
C1207 C 0.51798 0.68433 0.17719 0.0
N1208 N 0.49957 0.67483 0.17224 0.0
H1209 H 0.46659 0.67529 0.17544 0.0
H1210 H 0.53261 0.67791 0.1722 0.0
H1211 H 0.50988 0.64873 0.20343 0.0
H1212 H 0.52916 0.61147 0.15341 0.0
O1213 O 0.47448 0.63695 0.16875 0.0
O1214 O 0.49075 0.62377 0.14137 0.0
O1215 O 0.52148 0.65938 0.13666 0.0
C1216 C 0.47627 0.6218 0.15545 0.0
H1217 H 0.46556 0.70577 0.10893 0.0
H1218 H 0.53704 0.62078 0.21748 0.0
H1219 H 0.53313 0.70914 0.19365 0.0
H1220 H 0.46577 0.70689 0.19651 0.0
Co1221 Co 0.34735 0.49592 0.14794 0.0
C1222 C 0.3804 0.52468 0.16188 0.0
C1223 C 0.3514 0.53065 0.17749 0.0
C1224 C 0.36568 0.54539 0.18369 0.0
N1225 N 0.36069 0.51757 0.16397 0.0
N1226 N 0.38388 0.54171 0.17381 0.0
H1227 H 0.3917 0.5179 0.15138 0.0
H1228 H 0.33513 0.53016 0.18187 0.0
C1229 C 0.36847 0.45615 0.16036 0.0
O1230 O 0.34985 0.44759 0.16133 0.0
N1231 N 0.33424 0.47437 0.13114 0.0
C1232 C 0.31387 0.46921 0.12957 0.0
C1233 C 0.31186 0.45294 0.11585 0.0
C1234 C 0.34419 0.4616 0.11765 0.0
N1235 N 0.3309 0.44814 0.10844 0.0
C1236 C 0.30969 0.49581 0.1716 0.0
C1237 C 0.32544 0.47934 0.20788 0.0
C1238 C 0.30433 0.48535 0.20721 0.0
C1239 C 0.29667 0.49381 0.18871 0.0
C1240 C 0.33809 0.48179 0.19027 0.0
N1241 N 0.32996 0.48917 0.17205 0.0
H1242 H 0.30343 0.50362 0.15818 0.0
H1243 H 0.35454 0.47856 0.19171 0.0
H1244 H 0.30105 0.47651 0.13747 0.0
H1245 H 0.36091 0.46168 0.11518 0.0
O1246 O 0.3295 0.51671 0.13563 0.0
O1247 O 0.36012 0.50711 0.12293 0.0
O1248 O 0.37027 0.47563 0.15609 0.0
C1249 C 0.34358 0.5189 0.12138 0.0
H1250 H 0.36254 0.55852 0.19382 0.0
H1251 H 0.29746 0.44518 0.11161 0.0
H1252 H 0.3323 0.4732 0.22196 0.0
H1253 H 0.2809 0.49983 0.1876 0.0
Co1254 Co 0.50593 0.33964 0.15212 0.0
C1255 C 0.47293 0.36844 0.16721 0.0
C1256 C 0.47374 0.33997 0.18483 0.0
C1257 C 0.45642 0.3512 0.1906 0.0
N1258 N 0.48427 0.35077 0.17021 0.0
N1259 N 0.45566 0.36895 0.17929 0.0
H1260 H 0.47618 0.37973 0.15512 0.0
H1261 H 0.47728 0.32424 0.1899 0.0
C1262 C 0.54547 0.35995 0.16578 0.0
O1263 O 0.5547 0.34163 0.16425 0.0
N1264 N 0.52698 0.32875 0.13296 0.0
C1265 C 0.52766 0.30953 0.1242 0.0
C1266 C 0.54241 0.3094 0.10869 0.0
C1267 C 0.54088 0.3402 0.1219 0.0
N1268 N 0.55077 0.32866 0.10737 0.0
C1269 C 0.51005 0.29914 0.17161 0.0
C1270 C 0.5239 0.31351 0.20953 0.0
C1271 C 0.51979 0.29209 0.20722 0.0
C1272 C 0.51307 0.28492 0.18784 0.0
C1273 C 0.5208 0.32719 0.19288 0.0
N1274 N 0.51422 0.31999 0.17401 0.0
H1275 H 0.50291 0.29348 0.15763 0.0
H1276 H 0.52236 0.34375 0.19575 0.0
H1277 H 0.51739 0.29668 0.12769 0.0
H1278 H 0.54318 0.35687 0.12383 0.0
O1279 O 0.48483 0.32305 0.13833 0.0
O1280 O 0.49447 0.35518 0.12931 0.0
O1281 O 0.52592 0.36178 0.16225 0.0
C1282 C 0.48268 0.33899 0.1259 0.0
H1283 H 0.4446 0.346 0.20141 0.0
H1284 H 0.54653 0.29623 0.09896 0.0
H1285 H 0.52877 0.31982 0.22433 0.0
H1286 H 0.50891 0.26865 0.18556 0.0
Co1287 Co 0.66431 0.50267 0.15161 0.0
C1288 C 0.63509 0.46652 0.15631 0.0
C1289 C 0.64454 0.47792 0.18601 0.0
C1290 C 0.63105 0.46152 0.189 0.0
N1291 N 0.64704 0.4814 0.16543 0.0
N1292 N 0.62526 0.45437 0.17034 0.0
H1293 H 0.63345 0.46446 0.13978 0.0
H1294 H 0.65188 0.48652 0.19839 0.0
C1295 C 0.6314 0.52926 0.17225 0.0
O1296 O 0.63553 0.52027 0.19003 0.0
N1297 N 0.68127 0.52344 0.13771 0.0
C1298 C 0.70194 0.52621 0.14017 0.0
C1299 C 0.70861 0.54112 0.1263 0.0
C1300 C 0.67564 0.53651 0.1222 0.0
N1301 N 0.69213 0.54754 0.11484 0.0
C1302 C 0.69011 0.49297 0.18608 0.0
C1303 C 0.6913 0.53241 0.2036 0.0
C1304 C 0.70223 0.51597 0.21324 0.0
C1305 C 0.70162 0.4961 0.20408 0.0
C1306 C 0.67989 0.52857 0.18549 0.0
N1307 N 0.6788 0.50883 0.1774 0.0
H1308 H 0.68993 0.47753 0.17924 0.0
H1309 H 0.67219 0.54149 0.17781 0.0
H1310 H 0.7116 0.51767 0.15101 0.0
H1311 H 0.65999 0.53727 0.11597 0.0
O1312 O 0.68289 0.48116 0.14162 0.0
O1313 O 0.65499 0.49273 0.12479 0.0
O1314 O 0.64191 0.52456 0.15607 0.0
C1315 C 0.67112 0.48029 0.12525 0.0
H1316 H 0.6263 0.45494 0.20372 0.0
H1317 H 0.72449 0.54663 0.12475 0.0
H1318 H 0.69166 0.54812 0.2099 0.0
H1319 H 0.71042 0.48311 0.21044 0.0
Co1320 Co 0.50538 0.35952 0.83597 0.0
C1321 C 0.53823 0.38996 0.82224 0.0
C1322 C 0.52024 0.37868 0.7967 0.0
C1323 C 0.5348 0.39236 0.78922 0.0
N1324 N 0.52228 0.37695 0.81748 0.0
N1325 N 0.54621 0.39943 0.80523 0.0
H1326 H 0.54412 0.39229 0.83774 0.0
H1327 H 0.50958 0.37002 0.78713 0.0
C1328 C 0.4694 0.37942 0.81198 0.0
O1329 O 0.47392 0.36859 0.79537 0.0
N1330 N 0.48834 0.34271 0.8542 0.0
C1331 C 0.49095 0.32233 0.85892 0.0
C1332 C 0.47548 0.31646 0.87255 0.0
C1333 C 0.47153 0.34904 0.86508 0.0
N1334 N 0.46326 0.33327 0.8764 0.0
C1335 C 0.51936 0.33229 0.80475 0.0
C1336 C 0.48169 0.31422 0.79427 0.0
C1337 C 0.49981 0.30866 0.78335 0.0
C1338 C 0.51882 0.31757 0.78905 0.0
C1339 C 0.48291 0.32942 0.80989 0.0
N1340 N 0.50148 0.33908 0.81407 0.0
H1341 H 0.53431 0.33869 0.80919 0.0
H1342 H 0.46897 0.33372 0.81831 0.0
H1343 H 0.50327 0.31247 0.85289 0.0
H1344 H 0.46546 0.36485 0.86462 0.0
O1345 O 0.52988 0.34663 0.84736 0.0
O1346 O 0.51513 0.37523 0.86008 0.0
O1347 O 0.48001 0.37721 0.82866 0.0
C1348 C 0.52968 0.36094 0.86158 0.0
H1349 H 0.5367 0.3968 0.77315 0.0
H1350 H 0.4737 0.3011 0.87942 0.0
H1351 H 0.4668 0.30712 0.79062 0.0
H1352 H 0.53327 0.31297 0.78159 0.0
Co1353 Co 0.65834 0.52024 0.83697 0.0
C1354 C 0.62574 0.54935 0.8225 0.0
C1355 C 0.64509 0.54073 0.79693 0.0
C1356 C 0.62943 0.55371 0.78982 0.0
N1357 N 0.64285 0.538 0.81757 0.0
N1358 N 0.61722 0.55913 0.80597 0.0
H1359 H 0.61953 0.5504 0.83796 0.0
H1360 H 0.65657 0.53319 0.78725 0.0
C1361 C 0.63103 0.48931 0.81481 0.0
O1362 O 0.63708 0.49637 0.79669 0.0
N1363 N 0.67268 0.5027 0.85657 0.0
C1364 C 0.69315 0.50205 0.86115 0.0
C1365 C 0.69594 0.48841 0.87753 0.0
C1366 C 0.66329 0.48981 0.87016 0.0
N1367 N 0.67708 0.48082 0.88319 0.0
C1368 C 0.69104 0.52658 0.80772 0.0
C1369 C 0.69685 0.48501 0.79711 0.0
C1370 C 0.70985 0.50025 0.78826 0.0
C1371 C 0.70679 0.52126 0.79378 0.0
C1372 C 0.68131 0.49102 0.81114 0.0
N1373 N 0.67812 0.51167 0.81575 0.0
H1374 H 0.689 0.54283 0.81193 0.0
H1375 H 0.67222 0.479 0.81871 0.0
H1376 H 0.70509 0.51113 0.85342 0.0
H1377 H 0.64661 0.48719 0.87051 0.0
O1378 O 0.67306 0.54436 0.84748 0.0
O1379 O 0.64314 0.53208 0.85979 0.0
O1380 O 0.6387 0.49664 0.83146 0.0
C1381 C 0.65806 0.54579 0.86101 0.0
H1382 H 0.62696 0.55823 0.77385 0.0
H1383 H 0.71064 0.48479 0.88497 0.0
H1384 H 0.69906 0.46855 0.79369 0.0
H1385 H 0.71642 0.53356 0.7873 0.0
Co1386 Co 0.48861 0.65566 0.85384 0.0
C1387 C 0.45426 0.6257 0.84496 0.0
C1388 C 0.4636 0.6414 0.81716 0.0
C1389 C 0.44776 0.62769 0.81243 0.0
N1390 N 0.46765 0.64041 0.83769 0.0
N1391 N 0.44188 0.61784 0.82994 0.0
H1392 H 0.45327 0.62091 0.86097 0.0
H1393 H 0.47156 0.65119 0.80605 0.0
C1394 C 0.51677 0.62945 0.82669 0.0
O1395 O 0.50854 0.63751 0.80987 0.0
N1396 N 0.50935 0.66983 0.87029 0.0
C1397 C 0.51116 0.69048 0.87402 0.0
C1398 C 0.52684 0.69336 0.88838 0.0
C1399 C 0.52363 0.66042 0.88248 0.0
N1400 N 0.53459 0.67441 0.89375 0.0
C1401 C 0.47688 0.68728 0.8254 0.0
C1402 C 0.51618 0.69705 0.81062 0.0
C1403 C 0.49908 0.70938 0.80454 0.0
C1404 C 0.47925 0.70412 0.81193 0.0
C1405 C 0.51314 0.6803 0.82441 0.0
N1406 N 0.49356 0.67539 0.83134 0.0
H1407 H 0.46149 0.68389 0.83135 0.0
H1408 H 0.52656 0.6718 0.8301 0.0
H1409 H 0.50141 0.7025 0.86722 0.0
H1410 H 0.52566 0.64361 0.88329 0.0
O1411 O 0.46712 0.67147 0.86738 0.0
O1412 O 0.47967 0.64121 0.8788 0.0
O1413 O 0.51069 0.63528 0.84461 0.0
C1414 C 0.46692 0.65694 0.88144 0.0
H1415 H 0.4413 0.62499 0.79718 0.0
H1416 H 0.53161 0.70821 0.89491 0.0
H1417 H 0.53181 0.70088 0.8055 0.0
H1418 H 0.46562 0.71316 0.80755 0.0
Co1419 Co 0.33681 0.50042 0.85219 0.0
C1420 C 0.32151 0.53367 0.88098 0.0
C1421 C 0.30141 0.50686 0.88024 0.0
C1422 C 0.29339 0.52108 0.89413 0.0
N1423 N 0.31908 0.51471 0.87203 0.0
N1424 N 0.30608 0.53792 0.89462 0.0
H1425 H 0.33421 0.54423 0.87762 0.0
H1426 H 0.29489 0.49169 0.87654 0.0
C1427 C 0.33551 0.45419 0.86447 0.0
O1428 O 0.3428 0.44861 0.84631 0.0
N1429 N 0.35494 0.48626 0.83269 0.0
C1430 C 0.35311 0.48426 0.812 0.0
C1431 C 0.36992 0.47281 0.80481 0.0
C1432 C 0.37321 0.47698 0.83761 0.0
N1433 N 0.38245 0.46813 0.82101 0.0
C1434 C 0.30263 0.51474 0.82847 0.0
C1435 C 0.28842 0.47687 0.81354 0.0
C1436 C 0.27864 0.49538 0.80684 0.0
C1437 C 0.28577 0.51444 0.81486 0.0
C1438 C 0.30519 0.47786 0.82743 0.0
N1439 N 0.3124 0.49669 0.83445 0.0
H1440 H 0.30795 0.52968 0.83425 0.0
H1441 H 0.3125 0.46348 0.83183 0.0
H1442 H 0.34045 0.49048 0.80277 0.0
H1443 H 0.37883 0.47553 0.85335 0.0
O1444 O 0.3461 0.52653 0.84051 0.0
O1445 O 0.36165 0.51031 0.86662 0.0
O1446 O 0.33163 0.47348 0.8685 0.0
C1447 C 0.3615 0.52593 0.85356 0.0
H1448 H 0.2796 0.51887 0.90356 0.0
H1449 H 0.37258 0.46817 0.78891 0.0
H1450 H 0.28359 0.46176 0.80768 0.0
H1451 H 0.27843 0.52913 0.81065 0.0
Co1452 Co 0.65519 0.66372 0.99714 0.0
C1453 C 0.66469 0.63689 0.96066 0.0
C1454 C 0.69284 0.64831 0.97437 0.0
C1455 C 0.69806 0.63641 0.95748 0.0
N1456 N 0.67183 0.6488 0.97644 0.0
N1457 N 0.68034 0.6293 0.94883 0.0
H1458 H 0.64838 0.63403 0.95758 0.0
H1459 H 0.704 0.65599 0.9843 0.0
C1460 C 0.67801 0.63233 0.0248 0.0
O1461 O 0.69618 0.63797 0.01733 0.0
N1462 N 0.63875 0.67814 0.01765 0.0
C1463 C 0.6343 0.69874 0.01898 0.0
C1464 C 0.62216 0.70198 0.0364 0.0
C1465 C 0.62937 0.66918 0.03403 0.0
N1466 N 0.61938 0.68333 0.04581 0.0
C1467 C 0.68688 0.69308 0.98908 0.0
C1468 C 0.70298 0.69644 0.02864 0.0
C1469 C 0.712 0.70808 0.01247 0.0
C1470 C 0.70351 0.70645 0.99261 0.0
C1471 C 0.68624 0.68294 0.02435 0.0
N1472 N 0.67898 0.68089 0.00457 0.0
H1473 H 0.68066 0.69206 0.97357 0.0
H1474 H 0.67904 0.67434 0.03688 0.0
H1475 H 0.63964 0.71055 0.00819 0.0
H1476 H 0.62956 0.65258 0.03722 0.0
O1477 O 0.64415 0.68191 0.97601 0.0
O1478 O 0.62953 0.6521 0.98573 0.0
O1479 O 0.66127 0.64109 0.01839 0.0
C1480 C 0.62893 0.66871 0.97395 0.0
H1481 H 0.71373 0.63304 0.95219 0.0
H1482 H 0.61624 0.71683 0.04196 0.0
H1483 H 0.7088 0.69772 0.04433 0.0
H1484 H 0.70945 0.71572 0.97984 0.0
Co1485 Co 0.66194 0.35933 0.98485 0.0
C1486 C 0.62872 0.34919 0.95496 0.0
C1487 C 0.65682 0.33202 0.94848 0.0
C1488 C 0.6424 0.32759 0.93335 0.0
N1489 N 0.64817 0.34538 0.96213 0.0
N1490 N 0.62477 0.33845 0.93736 0.0
H1491 H 0.6179 0.35994 0.96223 0.0
H1492 H 0.67275 0.32647 0.94896 0.0
C1493 C 0.63948 0.34661 0.0233 0.0
O1494 O 0.65772 0.3457 0.03253 0.0
N1495 N 0.67533 0.37425 0.00755 0.0
C1496 C 0.69426 0.37164 0.01634 0.0
C1497 C 0.6963 0.3856 0.03239 0.0
C1498 C 0.66634 0.39001 0.0183 0.0
N1499 N 0.67872 0.39721 0.0337 0.0
C1500 C 0.69835 0.33387 0.98381 0.0
C1501 C 0.68115 0.29675 0.99744 0.0
C1502 C 0.70228 0.29701 0.99147 0.0
C1503 C 0.71058 0.31594 0.98432 0.0
C1504 C 0.66919 0.31524 0.99637 0.0
N1505 N 0.67803 0.33374 0.99021 0.0
H1506 H 0.70549 0.34796 0.978 0.0
H1507 H 0.65274 0.31437 0.99982 0.0
H1508 H 0.70586 0.36026 0.0121 0.0
H1509 H 0.65084 0.39578 0.01495 0.0
O1510 O 0.681 0.37195 0.96567 0.0
O1511 O 0.65089 0.38606 0.97483 0.0
O1512 O 0.63828 0.35079 0.00393 0.0
C1513 C 0.66799 0.38734 0.96394 0.0
H1514 H 0.64503 0.31783 0.9199 0.0
H1515 H 0.70964 0.38656 0.04259 0.0
H1516 H 0.67385 0.28243 0.00274 0.0
H1517 H 0.72644 0.31697 0.9786 0.0
Co1518 Co 0.34015 0.65659 0.00679 0.0
C1519 C 0.32931 0.62175 0.03507 0.0
C1520 C 0.30173 0.63872 0.02685 0.0
C1521 C 0.29626 0.62271 0.04006 0.0
N1522 N 0.32259 0.63827 0.02374 0.0
N1523 N 0.31367 0.61208 0.04527 0.0
H1524 H 0.34544 0.61704 0.03629 0.0
H1525 H 0.2909 0.64962 0.0199 0.0
C1526 C 0.31697 0.63191 0.97437 0.0
O1527 O 0.29901 0.63719 0.98262 0.0
N1528 N 0.35792 0.67404 0.99013 0.0
C1529 C 0.36092 0.69485 0.99158 0.0
C1530 C 0.37589 0.70058 0.97733 0.0
C1531 C 0.37113 0.66731 0.97539 0.0
N1532 N 0.38231 0.6832 0.96725 0.0
C1533 C 0.30966 0.68632 0.01875 0.0
C1534 C 0.29919 0.7001 0.97946 0.0
C1535 C 0.29165 0.7111 0.99674 0.0
C1536 C 0.2966 0.7036 0.01654 0.0
C1537 C 0.31222 0.68268 0.98238 0.0
N1538 N 0.31733 0.67605 0.00188 0.0
H1539 H 0.3141 0.68144 0.03417 0.0
H1540 H 0.31922 0.67535 0.96899 0.0
H1541 H 0.35297 0.70505 0.00238 0.0
H1542 H 0.3725 0.65109 0.97075 0.0
O1543 O 0.35127 0.66954 0.03137 0.0
O1544 O 0.36477 0.64164 0.01589 0.0
O1545 O 0.33401 0.63907 0.9817 0.0
C1546 C 0.3658 0.65533 0.0308 0.0
H1547 H 0.28061 0.61914 0.04527 0.0
H1548 H 0.38189 0.71623 0.9749 0.0
H1549 H 0.29598 0.70555 0.96389 0.0
H1550 H 0.29088 0.71137 0.03033 0.0
Co1551 Co 0.35616 0.34042 0.99662 0.0
C1552 C 0.38336 0.32427 0.03068 0.0
C1553 C 0.39835 0.32225 0.00118 0.0
C1554 C 0.41269 0.31741 0.01615 0.0
N1555 N 0.37962 0.32617 0.01007 0.0
N1556 N 0.40326 0.31869 0.03465 0.0
H1557 H 0.37249 0.3289 0.04266 0.0
H1558 H 0.40251 0.32522 0.98531 0.0
C1559 C 0.3734 0.31768 0.95958 0.0
O1560 O 0.36926 0.29984 0.96886 0.0
N1561 N 0.33405 0.3557 0.98294 0.0
C1562 C 0.31454 0.35995 0.98957 0.0
C1563 C 0.3057 0.37452 0.97628 0.0
C1564 C 0.33682 0.36763 0.96597 0.0
N1565 N 0.3198 0.37916 0.96145 0.0
C1566 C 0.33801 0.3034 0.01369 0.0
C1567 C 0.31262 0.29364 0.98052 0.0
C1568 C 0.31098 0.28182 0.99881 0.0
C1569 C 0.32416 0.2867 0.01536 0.0
C1570 C 0.32704 0.3101 0.97936 0.0
N1571 N 0.33956 0.31483 0.99587 0.0
H1572 H 0.34666 0.30776 0.02726 0.0
H1573 H 0.3278 0.31937 0.96535 0.0
H1574 H 0.30757 0.35358 0.00347 0.0
H1575 H 0.3515 0.36883 0.95777 0.0
O1576 O 0.34621 0.3502 0.02278 0.0
O1577 O 0.36921 0.36713 0.00332 0.0
O1578 O 0.36914 0.33501 0.96857 0.0
C1579 C 0.358 0.36651 0.02022 0.0
H1580 H 0.42931 0.31535 0.01381 0.0
H1581 H 0.29033 0.38143 0.97763 0.0
H1582 H 0.30262 0.2904 0.96738 0.0
H1583 H 0.32299 0.27838 0.02995 0.0
H1584 H 0.02931 0.26937 0.28816 0.0
H1585 H 0.9737 0.29847 0.26338 0.0
H1586 H 0.97221 0.27209 0.23619 0.0
H1587 H 0.98659 0.24069 0.21938 0.0
H1588 H 0.04322 0.21289 0.24285 0.0
H1589 H 0.04491 0.23947 0.27012 0.0
C1590 C 0.01704 0.27029 0.27665 0.0
C1591 C 0.00159 0.28602 0.27804 0.0
C1592 C 0.01658 0.25541 0.26065 0.0
C1593 C 0.98558 0.28641 0.26311 0.0
C1594 C 0.98482 0.27142 0.24737 0.0
C1595 C 0.99933 0.24052 0.23045 0.0
C1596 C 0.01473 0.22483 0.22919 0.0
C1597 C 1.00019 0.25583 0.24603 0.0
C1598 C 0.03129 0.22491 0.24343 0.0
C1599 C 0.03216 0.24 0.25909 0.0
H1600 H 0.78963 0.96567 0.24652 0.0
H1601 H 0.75881 0.01317 0.21003 0.0
H1602 H 0.7289 0.01246 0.2333 0.0
H1603 H 0.71272 0.0006 0.26541 0.0
H1604 H 0.74319 0.95375 0.30286 0.0
H1605 H 0.77175 0.95155 0.27767 0.0
C1606 C 0.77621 0.97559 0.24357 0.0
C1607 C 0.77655 0.98971 0.22682 0.0
C1608 C 0.75904 0.97527 0.2572 0.0
C1609 C 0.75906 0.00248 0.22309 0.0
C1610 C 0.74193 0.00206 0.23633 0.0
C1611 C 0.72557 0.98983 0.268 0.0
C1612 C 0.72601 0.97755 0.28604 0.0
C1613 C 0.74198 0.98892 0.25369 0.0
C1614 C 0.74251 0.96334 0.28903 0.0
C1615 C 0.7589 0.96219 0.27471 0.0
H1616 H 0.01695 0.70816 0.25948 0.0
H1617 H 0.00375 0.75345 0.30711 0.0
H1618 H 0.00265 0.7815 0.28124 0.0
H1619 H 0.00347 0.79275 0.24492 0.0
H1620 H 0.01483 0.74734 0.19683 0.0
H1621 H 0.01848 0.71967 0.22289 0.0
C1622 C 0.01413 0.72425 0.26409 0.0
C1623 C 0.0106 0.72892 0.28503 0.0
C1624 C 0.01297 0.74017 0.24905 0.0
C1625 C 0.00661 0.74967 0.29099 0.0
C1626 C 0.00591 0.76564 0.27623 0.0
C1627 C 0.00701 0.77684 0.24017 0.0
C1628 C 0.00892 0.77208 0.21901 0.0
C1629 C 0.00879 0.76103 0.25519 0.0
C1630 C 0.01314 0.75134 0.21305 0.0
C1631 C 0.0153 0.73555 0.22793 0.0
H1632 H 0.25814 0.97531 0.29548 0.0
H1633 H 0.2768 0.0396 0.28674 0.0
H1634 H 0.251 0.04379 0.25928 0.0
H1635 H 0.22579 0.02814 0.23531 0.0
H1636 H 0.20645 0.96405 0.24438 0.0
H1637 H 0.22977 0.96088 0.27406 0.0
C1638 C 0.25622 0.99033 0.28785 0.0
C1639 C 0.26959 0.00698 0.29286 0.0
C1640 C 0.24144 0.99261 0.2719 0.0
C1641 C 0.26696 0.02639 0.28283 0.0
C1642 C 0.2522 0.02883 0.26714 0.0
C1643 C 0.22634 0.01361 0.24402 0.0
C1644 C 0.21468 0.99627 0.23733 0.0
C1645 C 0.23977 0.01187 0.26113 0.0
C1646 C 0.21569 0.97752 0.24882 0.0
C1647 C 0.22893 0.9757 0.26589 0.0
H1648 H 0.9828 0.76836 0.79139 0.0
H1649 H 0.00216 0.81828 0.75076 0.0
H1650 H 0.00492 0.79345 0.7219 0.0
H1651 H 0.00294 0.75697 0.70856 0.0
H1652 H 0.98243 0.70773 0.7495 0.0
H1653 H 0.97927 0.73272 0.77794 0.0
C1654 C 0.98757 0.7738 0.77619 0.0
C1655 C 0.99238 0.79508 0.77323 0.0
C1656 C 0.98911 0.75949 0.75978 0.0
C1657 C 0.99825 0.80199 0.75339 0.0
C1658 C 0.99998 0.78777 0.73694 0.0
C1659 C 0.99785 0.75182 0.72375 0.0
C1660 C 0.99302 0.73057 0.72702 0.0
C1661 C 0.99568 0.76641 0.74 0.0
C1662 C 0.98618 0.72403 0.74666 0.0
C1663 C 0.98437 0.7383 0.76291 0.0
H1664 H 0.29113 0.01607 0.73941 0.0
H1665 H 0.26335 0.96471 0.70611 0.0
H1666 H 0.23461 0.96351 0.73119 0.0
H1667 H 0.21623 0.97886 0.76123 0.0
H1668 H 0.24524 0.02961 0.7948 0.0
H1669 H 0.27427 0.02958 0.77063 0.0
C1670 C 0.27882 0.00453 0.73772 0.0
C1671 C 0.27925 0.99061 0.72088 0.0
C1672 C 0.26235 0.00408 0.75202 0.0
C1673 C 0.26341 0.97552 0.71903 0.0
C1674 C 0.2469 0.97496 0.73326 0.0
C1675 C 0.22899 0.98976 0.76344 0.0
C1676 C 0.22817 0.00451 0.77969 0.0
C1677 C 0.24602 0.98943 0.74963 0.0
C1678 C 0.24495 0.01852 0.78213 0.0
C1679 C 0.26176 0.01839 0.76842 0.0
H1680 H 0.03563 0.25838 0.71672 0.0
H1681 H 0.97083 0.27566 0.72257 0.0
H1682 H 0.96657 0.25103 0.7512 0.0
H1683 H 0.98123 0.22519 0.77494 0.0
H1684 H 0.04572 0.20683 0.76955 0.0
H1685 H 0.05011 0.23078 0.74002 0.0
C1686 C 0.02067 0.25672 0.7244 0.0
C1687 C 0.00357 0.26885 0.71774 0.0
C1688 C 0.01823 0.24219 0.74069 0.0
C1689 C 0.98416 0.26647 0.72752 0.0
C1690 C 0.98171 0.25238 0.74383 0.0
C1691 C 0.99623 0.22637 0.76722 0.0
C1692 C 0.01317 0.21443 0.77445 0.0
C1693 C 0.99861 0.24021 0.75055 0.0
C1694 C 0.03243 0.21582 0.76415 0.0
C1695 C 0.03497 0.22964 0.74743 0.0
H1696 H 0.77647 0.02597 0.76898 0.0
H1697 H 0.74567 0.97873 0.80575 0.0
H1698 H 0.71776 0.97644 0.77997 0.0
H1699 H 0.70208 0.98807 0.74701 0.0
H1700 H 0.73341 0.03525 0.71052 0.0
H1701 H 0.76073 0.03789 0.73662 0.0
C1702 C 0.76352 0.01536 0.77155 0.0
C1703 C 0.76314 0.00263 0.78937 0.0
C1704 C 0.7475 0.01427 0.75681 0.0
C1705 C 0.74647 0.98859 0.79211 0.0
C1706 C 0.73043 0.98737 0.77744 0.0
C1707 C 0.71492 0.99888 0.74474 0.0
C1708 C 0.71558 0.01151 0.72683 0.0
C1709 C 0.73081 1.00013 0.75971 0.0
C1710 C 0.73224 0.02561 0.72428 0.0
C1711 C 0.748 0.027 0.73912 0.0
H1712 H 0.25118 0.20565 0.01952 0.0
H1713 H 0.20581 0.24852 0.99421 0.0
H1714 H 0.23301 0.27462 0.98835 0.0
H1715 H 0.26983 0.28499 0.98954 0.0
H1716 H 0.31552 0.24242 0.01476 0.0
H1717 H 0.28822 0.21647 0.02143 0.0
C1718 C 0.24729 0.22085 0.01304 0.0
C1719 C 0.22657 0.2252 0.00732 0.0
C1720 C 0.26311 0.23571 0.00941 0.0
C1721 C 0.2217 0.24483 0.99868 0.0
C1722 C 0.23724 0.25972 0.99525 0.0
C1723 C 0.27383 0.26992 0.99625 0.0
C1724 C 0.29466 0.26554 0.00146 0.0
C1725 C 0.25804 0.25522 0.00026 0.0
C1726 C 0.29956 0.24613 0.01059 0.0
C1727 C 0.28396 0.23132 0.01445 0.0
H1728 H 0.24472 0.7973 0.00588 0.0
H1729 H 0.20691 0.77082 0.95733 0.0
H1730 H 0.23041 0.7406 0.95517 0.0
H1731 H 0.25976 0.72003 0.96978 0.0
H1732 H 0.29705 0.74703 0.0186 0.0
H1733 H 0.27562 0.77853 0.0181 0.0
C1734 C 0.24175 0.78499 0.9947 0.0
C1735 C 0.22403 0.78617 0.98194 0.0
C1736 C 0.25507 0.76758 0.99381 0.0
C1737 C 0.22052 0.77031 0.96727 0.0
C1738 C 0.23385 0.75294 0.96616 0.0
C1739 C 0.26335 0.73294 0.98008 0.0
C1740 C 0.27969 0.73096 0.99453 0.0
C1741 C 0.25089 0.75114 0.97974 0.0
C1742 C 0.2842 0.74789 0.00773 0.0
C1743 C 0.27204 0.76599 0.00738 0.0
H1744 H 0.75091 0.21009 0.98618 0.0
H1745 H 0.80206 0.25081 0.00203 0.0
H1746 H 0.77851 0.28087 0.00296 0.0
H1747 H 0.74352 0.29519 0.00107 0.0
H1748 H 0.69185 0.25578 0.9833 0.0
H1749 H 0.71523 0.22541 0.98222 0.0
C1750 C 0.75683 0.22566 0.98937 0.0
C1751 C 0.77816 0.22842 0.99376 0.0
C1752 C 0.74306 0.24293 0.99009 0.0
C1753 C 0.78572 0.2485 0.99834 0.0
C1754 C 0.77224 0.2656 0.99907 0.0
C1755 C 0.73729 0.28009 0.99656 0.0
C1756 C 0.71588 0.27797 0.99207 0.0
C1757 C 0.75089 0.26295 0.99524 0.0
C1758 C 0.70817 0.25797 0.98705 0.0
C1759 C 0.7216 0.2406 0.98619 0.0
H1760 H 0.74683 0.71233 0.98914 0.0
H1761 H 0.71594 0.7373 0.0431 0.0
H1762 H 0.74135 0.76585 0.04466 0.0
H1763 H 0.76966 0.78561 0.02835 0.0
H1764 H 0.80052 0.76077 0.97418 0.0
H1765 H 0.77718 0.73055 0.97458 0.0
C1766 C 0.74581 0.72393 0.00136 0.0
C1767 C 0.72945 0.72288 0.01587 0.0
C1768 C 0.7601 0.74052 0.00181 0.0
C1769 C 0.72847 0.73773 0.03184 0.0
C1770 C 0.74284 0.75417 0.03258 0.0
C1771 C 0.77165 0.7734 0.01686 0.0
C1772 C 0.78682 0.77557 0.00118 0.0
C1773 C 0.75834 0.756 0.0173 0.0
C1774 C 0.78877 0.75974 0.98619 0.0
C1775 C 0.77555 0.74236 0.98652 0.0
H1776 H 0.74972 0.51448 0.78774 0.0
H1777 H 0.70775 0.47294 0.75563 0.0
H1778 H 0.73459 0.46595 0.72953 0.0
H1779 H 0.769 0.47423 0.71418 0.0
H1780 H 0.81031 0.5165 0.74626 0.0
H1781 H 0.78474 0.52066 0.77397 0.0
C1782 C 0.74645 0.50389 0.77503 0.0
C1783 C 0.72668 0.49447 0.77348 0.0
C1784 C 0.76182 0.50015 0.76001 0.0
C1785 C 0.72285 0.48038 0.75719 0.0
C1786 C 0.73815 0.47646 0.74221 0.0
C1787 C 0.77252 0.48401 0.72744 0.0
C1788 C 0.79142 0.4952 0.72809 0.0
C1789 C 0.75758 0.48658 0.74324 0.0
C1790 C 0.79574 0.50795 0.7453 0.0
C1791 C 0.78114 0.51034 0.76114 0.0
H1792 H 0.20249 0.48095 0.74599 0.0
H1793 H 0.22771 0.53712 0.71847 0.0
H1794 H 0.25459 0.53855 0.74522 0.0
H1795 H 0.27201 0.5229 0.77523 0.0
H1796 H 0.24675 0.46691 0.80314 0.0
H1797 H 0.21921 0.466 0.77699 0.0
C1798 C 0.21388 0.49349 0.74584 0.0
C1799 C 0.21307 0.5089 0.73022 0.0
C1800 C 0.22946 0.4941 0.76115 0.0
C1801 C 0.22778 0.52522 0.73044 0.0
C1802 C 0.24328 0.52594 0.74563 0.0
C1803 C 0.26031 0.51066 0.77585 0.0
C1804 C 0.26153 0.49499 0.7912 0.0
C1805 C 0.24438 0.51036 0.76093 0.0
C1806 C 0.24643 0.47901 0.79138 0.0
C1807 C 0.23057 0.47856 0.7765 0.0
H1808 H 0.26267 0.47652 0.20866 0.0
H1809 H 0.31481 0.4927 0.24789 0.0
H1810 H 0.29139 0.49564 0.27754 0.0
H1811 H 0.25583 0.49636 0.29175 0.0
H1812 H 0.20346 0.48381 0.25148 0.0
H1813 H 0.22728 0.47682 0.2229 0.0
C1814 C 0.26898 0.4808 0.22366 0.0
C1815 C 0.29055 0.48458 0.22586 0.0
C1816 C 0.25532 0.48327 0.24049 0.0
C1817 C 0.29839 0.48948 0.24563 0.0
C1818 C 0.28494 0.4914 0.2626 0.0
C1819 C 0.24955 0.49226 0.27669 0.0
C1820 C 0.22776 0.49078 0.27387 0.0
C1821 C 0.26333 0.48882 0.26009 0.0
C1822 C 0.22008 0.48487 0.25431 0.0
C1823 C 0.23371 0.48101 0.23785 0.0
H1824 H 0.77249 0.53711 0.27788 0.0
H1825 H 0.75383 0.47703 0.30213 0.0
H1826 H 0.7245 0.47608 0.27777 0.0
H1827 H 0.70697 0.49042 0.24686 0.0
H1828 H 0.72758 0.54941 0.22133 0.0
H1829 H 0.75316 0.55283 0.24908 0.0
C1830 C 0.76189 0.52387 0.27793 0.0
C1831 C 0.76552 0.50697 0.2915 0.0
C1832 C 0.74551 0.5232 0.26357 0.0
C1833 C 0.75138 0.49019 0.29181 0.0
C1834 C 0.73473 0.48958 0.27777 0.0
C1835 C 0.717 0.50408 0.24742 0.0
C1836 C 0.71551 0.5195 0.23183 0.0
C1837 C 0.73209 0.50568 0.26312 0.0
C1838 C 0.72826 0.53735 0.23312 0.0
C1839 C 0.74304 0.53924 0.2489 0.0
H1840 H 0.23235 0.73164 0.53503 0.0
H1841 H 0.25595 0.68981 0.48821 0.0
H1842 H 0.28701 0.71189 0.48405 0.0
H1843 H 0.30591 0.74501 0.49188 0.0
H1844 H 0.27956 0.78746 0.53697 0.0
H1845 H 0.25113 0.7634 0.54341 0.0
C1846 C 0.24435 0.72728 0.52397 0.0
C1847 C 0.24178 0.7093 0.5118 0.0
C1848 C 0.26161 0.74034 0.52119 0.0
C1849 C 0.25764 0.70357 0.49785 0.0
C1850 C 0.27526 0.71632 0.49531 0.0
C1851 C 0.29393 0.74893 0.50309 0.0
C1852 C 0.29512 0.76793 0.5141 0.0
C1853 C 0.27716 0.73508 0.50653 0.0
C1854 C 0.27944 0.77276 0.52862 0.0
C1855 C 0.26302 0.75906 0.53226 0.0
H1856 H 0.2809 0.23713 0.52735 0.0
H1857 H 0.26301 0.212 0.46792 0.0
H1858 H 0.23332 0.23604 0.4666 0.0
H1859 H 0.21381 0.26571 0.48131 0.0
H1860 H 0.23363 0.29239 0.53953 0.0
H1861 H 0.26108 0.26615 0.54233 0.0
C1862 C 0.27061 0.23697 0.51402 0.0
C1863 C 0.27439 0.22292 0.49764 0.0
C1864 C 0.25388 0.25114 0.51314 0.0
C1865 C 0.26046 0.22255 0.4808 0.0
C1866 C 0.24356 0.2364 0.47997 0.0
C1867 C 0.22417 0.26587 0.49458 0.0
C1868 C 0.2216 0.28115 0.51013 0.0
C1869 C 0.24034 0.25102 0.49588 0.0
C1870 C 0.23495 0.28073 0.52743 0.0
C1871 C 0.25083 0.26582 0.52898 0.0
H1872 H 0.73152 0.78247 0.47195 0.0
H1873 H 0.69168 0.74589 0.51193 0.0
H1874 H 0.71652 0.71704 0.5111 0.0
H1875 H 0.75115 0.70359 0.50217 0.0
H1876 H 0.79121 0.73918 0.46184 0.0
H1877 H 0.76463 0.76682 0.45924 0.0
C1878 C 0.72812 0.76802 0.48011 0.0
C1879 C 0.71 0.76656 0.4924 0.0
C1880 C 0.74256 0.75135 0.47958 0.0
C1881 C 0.70578 0.74767 0.50283 0.0
C1882 C 0.71993 0.7311 0.5023 0.0
C1883 C 0.75384 0.71726 0.49252 0.0
C1884 C 0.77303 0.71952 0.48232 0.0
C1885 C 0.73863 0.73301 0.49127 0.0
C1886 C 0.77644 0.73715 0.46975 0.0
C1887 C 0.76132 0.75298 0.46841 0.0
H1888 H 0.78782 0.26485 0.51727 0.0
H1889 H 0.75701 0.29762 0.46739 0.0
H1890 H 0.72821 0.27256 0.46863 0.0
H1891 H 0.71151 0.2421 0.48439 0.0
H1892 H 0.74307 0.20793 0.53298 0.0
H1893 H 0.7714 0.23354 0.53248 0.0
C1894 C 0.77478 0.26649 0.50668 0.0
C1895 C 0.77453 0.28306 0.49224 0.0
C1896 C 0.75827 0.25207 0.50753 0.0
C1897 C 0.75769 0.28486 0.47845 0.0
C1898 C 0.74113 0.27067 0.4793 0.0
C1899 C 0.72469 0.23999 0.49472 0.0
C1900 C 0.72516 0.22289 0.50858 0.0
C1901 C 0.74124 0.25429 0.49383 0.0
C1902 C 0.7421 0.22098 0.52229 0.0
C1903 C 0.75845 0.2355 0.52185 0.0
H1904 H 0.51516 0.24978 0.70677 0.0
H1905 H 0.48207 0.20638 0.74596 0.0
H1906 H 0.47766 0.23349 0.77234 0.0
H1907 H 0.4835 0.26957 0.78432 0.0
H1908 H 0.51637 0.31302 0.74496 0.0
H1909 H 0.52034 0.28604 0.71843 0.0
C1910 C 0.50722 0.2463 0.72122 0.0
C1911 C 0.49909 0.22624 0.72461 0.0
C1912 C 0.50445 0.26202 0.7361 0.0
C1913 C 0.48849 0.22183 0.74316 0.0
C1914 C 0.48589 0.2373 0.75816 0.0
C1915 C 0.49119 0.27314 0.76977 0.0
C1916 C 0.49959 0.29313 0.76648 0.0
C1917 C 0.49369 0.25749 0.75475 0.0
C1918 C 0.50983 0.29762 0.74774 0.0
C1919 C 0.51219 0.28222 0.73264 0.0
H1920 H 0.49363 0.79469 0.75557 0.0
H1921 H 0.52812 0.75873 0.71052 0.0
H1922 H 0.5298 0.72918 0.73448 0.0
H1923 H 0.51952 0.71262 0.76758 0.0
H1924 H 0.48389 0.74837 0.81184 0.0
H1925 H 0.4845 0.77876 0.78888 0.0
C1926 C 0.50145 0.78037 0.75094 0.0
C1927 C 0.51066 0.77899 0.73122 0.0
C1928 C 0.5021 0.7633 0.76468 0.0
C1929 C 0.52107 0.76039 0.72568 0.0
C1930 C 0.52194 0.74339 0.73933 0.0
C1931 C 0.51217 0.72717 0.77225 0.0
C1932 C 0.50156 0.72822 0.79128 0.0
C1933 C 0.5123 0.74456 0.7588 0.0
C1934 C 0.49195 0.74712 0.79714 0.0
C1935 C 0.4923 0.76451 0.78404 0.0
H1936 H 0.51264 0.7931 0.24942 0.0
H1937 H 0.46243 0.76556 0.28466 0.0
H1938 H 0.46008 0.73685 0.25986 0.0
H1939 H 0.47427 0.71811 0.23003 0.0
H1940 H 0.52432 0.7456 0.19442 0.0
H1941 H 0.52519 0.77549 0.21795 0.0
C1942 C 0.50111 0.78085 0.25158 0.0
C1943 C 0.48779 0.7814 0.26888 0.0
C1944 C 0.50008 0.76422 0.23745 0.0
C1945 C 0.47272 0.76562 0.27135 0.0
C1946 C 0.47151 0.74909 0.25729 0.0
C1947 C 0.48512 0.7308 0.22712 0.0
C1948 C 0.4993 0.72949 0.21052 0.0
C1949 C 0.48538 0.74803 0.24053 0.0
C1950 C 0.51349 0.74596 0.20729 0.0
C1951 C 0.5139 0.76316 0.22064 0.0
H1952 H 0.50813 0.24057 0.28998 0.0
H1953 H 0.53891 0.19293 0.25387 0.0
H1954 H 0.54281 0.2176 0.22501 0.0
H1955 H 0.53558 0.25227 0.20937 0.0
H1956 H 0.50459 0.29956 0.24591 0.0
H1957 H 0.50274 0.27554 0.27523 0.0
C1958 C 0.51572 0.2356 0.27579 0.0
C1959 C 0.52303 0.21489 0.27398 0.0
C1960 C 0.51783 0.24982 0.25932 0.0
C1961 C 0.5332 0.2088 0.25567 0.0
C1962 C 0.53532 0.22287 0.23913 0.0
C1963 C 0.5285 0.25731 0.22379 0.0
C1964 C 0.52026 0.27772 0.22541 0.0
C1965 C 0.5274 0.24334 0.24066 0.0
C1966 C 0.51131 0.28407 0.24428 0.0
C1967 C 0.5101 0.27028 0.26104 0.0
H1968 H 0.11906 0.04945 0.16051 0.0
H1969 H 0.1054 0.02439 0.22117 0.0
H1970 H 0.08005 0.05223 0.22701 0.0
H1971 H 0.06114 0.08314 0.21471 0.0
H1972 H 0.075 0.10877 0.1544 0.0
H1973 H 0.10074 0.08115 0.14858 0.0
C1974 C 0.11055 0.05006 0.17501 0.0
C1975 C 0.11415 0.03476 0.19034 0.0
C1976 C 0.09596 0.06618 0.17833 0.0
C1977 C 0.10301 0.03591 0.20908 0.0
C1978 C 0.08846 0.05184 0.21245 0.0
C1979 C 0.06995 0.0829 0.2004 0.0
C1980 C 0.06604 0.09806 0.18503 0.0
C1981 C 0.08477 0.06702 0.19718 0.0
C1982 C 0.07743 0.09718 0.16641 0.0
C1983 C 0.09224 0.08143 0.1631 0.0
H1984 H 0.91417 0.05228 0.15814 0.0
H1985 H 0.90188 0.06874 0.22172 0.0
H1986 H 0.93035 0.09423 0.2209 0.0
H1987 H 0.95794 0.11252 0.20181 0.0
H1988 H 0.97079 0.09587 0.13833 0.0
H1989 H 0.94292 0.06965 0.13938 0.0
C1990 C 0.91766 0.06156 0.17175 0.0
C1991 C 0.90581 0.0588 0.18993 0.0
C1992 C 0.93417 0.07604 0.17118 0.0
C1993 C 0.91082 0.07057 0.2076 0.0
C1994 C 0.92704 0.08516 0.2071 0.0
C1995 C 0.95474 0.10307 0.18822 0.0
C1996 C 0.96637 0.10617 0.16999 0.0
C1997 C 0.93874 0.08809 0.18896 0.0
C1998 C 0.96212 0.09372 0.15258 0.0
C1999 C 0.94612 0.07881 0.15314 0.0
H2000 H 0.86597 0.92059 0.16156 0.0
H2001 H 0.90174 0.97476 0.18 0.0
H2002 H 0.9305 0.95207 0.19072 0.0
H2003 H 0.94626 0.91706 0.19276 0.0
H2004 H 0.9107 0.86305 0.17394 0.0
H2005 H 0.88091 0.88552 0.1656 0.0
C2006 C 0.88003 0.92748 0.16795 0.0
C2007 C 0.88176 0.94937 0.16976 0.0
C2008 C 0.89649 0.91437 0.17408 0.0
C2009 C 0.90002 0.95797 0.1783 0.0
C2010 C 0.91647 0.94501 0.18447 0.0
C2011 C 0.93183 0.91015 0.18733 0.0
C2012 C 0.93065 0.88841 0.18399 0.0
C2013 C 0.91495 0.92321 0.18224 0.0
C2014 C 0.91196 0.87976 0.17653 0.0
C2015 C 0.89499 0.89259 0.17172 0.0
H2016 H 0.08966 0.93131 0.19749 0.0
H2017 H 0.12617 0.91778 0.14318 0.0
H2018 H 0.1032 0.88831 0.1347 0.0
H2019 H 0.07231 0.86684 0.14264 0.0
H2020 H 0.03377 0.88269 0.19503 0.0
H2021 H 0.05788 0.91078 0.2046 0.0
C2022 C 0.0925 0.92176 0.18389 0.0
C2023 C 0.10947 0.92641 0.171 0.0
C2024 C 0.07891 0.90535 0.17887 0.0
C2025 C 0.11306 0.91434 0.1532 0.0
C2026 C 0.10001 0.89754 0.14843 0.0
C2027 C 0.06938 0.8764 0.15622 0.0
C2028 C 0.05156 0.87275 0.16828 0.0
C2029 C 0.08287 0.89293 0.16114 0.0
C2030 C 0.04749 0.88536 0.18559 0.0
C2031 C 0.06124 0.90136 0.19105 0.0
H2032 H 0.05706 0.92797 0.81681 0.0
H2033 H 0.08414 0.87239 0.84372 0.0
H2034 H 0.1166 0.89141 0.85041 0.0
H2035 H 0.13672 0.92416 0.84958 0.0
H2036 H 0.10894 0.9799 0.82339 0.0
H2037 H 0.07735 0.96034 0.81516 0.0
C2038 C 0.07017 0.91989 0.8238 0.0
C2039 C 0.06823 0.89875 0.82966 0.0
C2040 C 0.08862 0.93096 0.82776 0.0
C2041 C 0.08522 0.88868 0.83918 0.0
C2042 C 0.10378 0.89953 0.84296 0.0
C2043 C 0.12383 0.93201 0.84191 0.0
C2044 C 0.12524 0.95348 0.83709 0.0
C2045 C 0.10557 0.92074 0.83747 0.0
C2046 C 0.1083 0.96341 0.82731 0.0
C2047 C 0.09021 0.95224 0.82259 0.0
H2048 H 0.08023 0.14092 0.84976 0.0
H2049 H 0.02448 0.10539 0.83694 0.0
H2050 H 0.04567 0.07445 0.82923 0.0
H2051 H 0.08021 0.05744 0.82621 0.0
H2052 H 0.1356 0.09243 0.84114 0.0
H2053 H 0.11448 0.1237 0.84789 0.0
C2054 C 0.07271 0.12641 0.84524 0.0
C2055 C 0.05082 0.12548 0.84381 0.0
C2056 C 0.08497 0.10863 0.84115 0.0
C2057 C 0.0413 0.10649 0.83822 0.0
C2058 C 0.05341 0.08882 0.83372 0.0
C2059 C 0.08758 0.07201 0.83074 0.0
C2060 C 0.1094 0.0728 0.83297 0.0
C2061 C 0.07526 0.08972 0.83508 0.0
C2062 C 0.11882 0.09156 0.83931 0.0
C2063 C 0.10676 0.10939 0.84316 0.0
H2064 H 0.92617 0.10754 0.81192 0.0
H2065 H 0.94964 0.10232 0.87432 0.0
H2066 H 0.92605 0.07303 0.88094 0.0
H2067 H 0.89699 0.04997 0.8695 0.0
H2068 H 0.87319 0.05679 0.8073 0.0
H2069 H 0.89838 0.08431 0.80028 0.0
C2070 C 0.92611 0.10009 0.82701 0.0
C2071 C 0.93966 0.10732 0.84256 0.0
C2072 C 0.91227 0.08348 0.83083 0.0
C2073 C 0.93959 0.09707 0.86191 0.0
C2074 C 0.92595 0.08035 0.86579 0.0
C2075 C 0.8975 0.05737 0.85439 0.0
C2076 C 0.88312 0.05136 0.83902 0.0
C2077 C 0.912 0.07355 0.85043 0.0
C2078 C 0.88393 0.06118 0.81951 0.0
C2079 C 0.89837 0.07695 0.81543 0.0
H2080 H 0.91423 0.96382 0.8382 0.0
H2081 H 0.86851 0.92953 0.80307 0.0
H2082 H 0.88956 0.89769 0.80579 0.0
H2083 H 0.92076 0.87937 0.8187 0.0
H2084 H 0.96766 0.91406 0.85209 0.0
H2085 H 0.94655 0.94586 0.84949 0.0
C2086 C 0.909 0.94934 0.83115 0.0
C2087 C 0.88991 0.94897 0.82045 0.0
C2088 C 0.9214 0.93116 0.83247 0.0
C2089 C 0.88327 0.93021 0.81119 0.0
C2090 C 0.89525 0.91199 0.81284 0.0
C2091 C 0.92636 0.89391 0.82536 0.0
C2092 C 0.94569 0.89431 0.83565 0.0
C2093 C 0.91431 0.91225 0.82349 0.0
C2094 C 0.95286 0.91333 0.84401 0.0
C2095 C 0.94076 0.93152 0.8426 0.0
H2096 H 0.19603 0.05622 0.08937 0.0
H2097 H 0.15384 0.07685 0.13715 0.0
H2098 H 0.14608 0.10865 0.11742 0.0
H2099 H 0.15069 0.13013 0.08629 0.0
H2100 H 0.19098 0.10863 0.03718 0.0
H2101 H 0.20019 0.07763 0.05767 0.0
C2102 C 0.18532 0.06783 0.09547 0.0
C2103 C 0.1756 0.06435 0.1147 0.0
C2104 C 0.18058 0.08583 0.08379 0.0
C2105 C 0.16142 0.07924 0.12234 0.0
C2106 C 0.15703 0.0974 0.11109 0.0
C2107 C 0.16163 0.11875 0.08014 0.0
C2108 C 0.17029 0.12174 0.06034 0.0
C2109 C 0.16644 0.1008 0.09176 0.0
C2110 C 0.18413 0.10666 0.0524 0.0
C2111 C 0.1894 0.08897 0.06411 0.0
H2112 H 0.90929 0.14825 0.04428 0.0
H2113 H 0.86793 0.19568 0.06863 0.0
H2114 H 0.89095 0.20099 0.09799 0.0
H2115 H 0.9222 0.19194 0.1172 0.0
H2116 H 0.96481 0.14564 0.09302 0.0
H2117 H 0.9418 0.13993 0.06343 0.0
C2118 C 0.90539 0.15974 0.05601 0.0
C2119 C 0.88692 0.17151 0.05424 0.0
C2120 C 0.91883 0.16287 0.07299 0.0
C2121 C 0.88206 0.1864 0.06954 0.0
C2122 C 0.8952 0.18947 0.08641 0.0
C2123 C 0.92671 0.18081 0.10537 0.0
C2124 C 0.94528 0.1693 0.10746 0.0
C2125 C 0.91358 0.17779 0.0883 0.0
C2126 C 0.9505 0.15459 0.09205 0.0
C2127 C 0.93739 0.15137 0.07501 0.0
H2128 H 0.85079 0.92259 0.0352 0.0
H2129 H 0.8 0.883 0.05528 0.0
H2130 H 0.79147 0.90737 0.08268 0.0
H2131 H 0.79913 0.93888 0.10232 0.0
H2132 H 0.84966 0.97906 0.0834 0.0
H2133 H 0.85749 0.95569 0.0544 0.0
C2134 C 0.83784 0.91941 0.04553 0.0
C2135 C 0.82622 0.90088 0.04319 0.0
C2136 C 0.83291 0.93359 0.06159 0.0
C2137 C 0.8094 0.89702 0.05672 0.0
C2138 C 0.8044 0.91099 0.07246 0.0
C2139 C 0.8116 0.94277 0.09166 0.0
C2140 C 0.82379 0.96066 0.09512 0.0
C2141 C 0.81613 0.9292 0.07518 0.0
C2142 C 0.84016 0.96523 0.08126 0.0
C2143 C 0.84463 0.95188 0.06463 0.0
H2144 H 0.0915 0.86479 0.0365 0.0
H2145 H 0.12474 0.80742 0.0498 0.0
H2146 H 0.09872 0.7978 0.07535 0.0
H2147 H 0.06674 0.80537 0.09419 0.0
H2148 H 0.03288 0.86239 0.08191 0.0
H2149 H 0.05891 0.87251 0.05596 0.0
C2150 C 0.093 0.85022 0.04502 0.0
C2151 C 0.11006 0.83688 0.04117 0.0
C2152 C 0.07788 0.84468 0.05993 0.0
C2153 C 0.11181 0.81805 0.05239 0.0
C2154 C 0.09691 0.81246 0.06705 0.0
C2155 C 0.06488 0.81988 0.08567 0.0
C2156 C 0.04781 0.83299 0.08987 0.0
C2157 C 0.07988 0.82559 0.07091 0.0
C2158 C 0.04595 0.85204 0.07903 0.0
C2159 C 0.06079 0.8578 0.06414 0.0
H2160 H 0.17457 0.87524 0.92364 0.0
H2161 H 0.14886 0.91153 0.97378 0.0
H2162 H 0.15852 0.94405 0.95599 0.0
H2163 H 0.17313 0.96208 0.92528 0.0
H2164 H 0.20117 0.92562 0.87662 0.0
H2165 H 0.19207 0.89319 0.89472 0.0
C2166 C 0.17111 0.8903 0.93061 0.0
C2167 C 0.16076 0.89112 0.94976 0.0
C2168 C 0.17727 0.90883 0.92062 0.0
C2169 C 0.15674 0.91063 0.95895 0.0
C2170 C 0.16225 0.92917 0.94881 0.0
C2171 C 0.17745 0.94698 0.91891 0.0
C2172 C 0.18783 0.9461 0.89978 0.0
C2173 C 0.17238 0.92846 0.92955 0.0
C2174 C 0.19344 0.92657 0.8915 0.0
C2175 C 0.18807 0.90807 0.90174 0.0
H2176 H 0.12202 0.18917 0.95448 0.0
H2177 H 0.09319 0.13324 0.9787 0.0
H2178 H 0.06474 0.13691 0.95332 0.0
H2179 H 0.048 0.15674 0.92444 0.0
H2180 H 0.0784 0.21228 0.90102 0.0
H2181 H 0.10625 0.20807 0.92613 0.0
C2182 C 0.10955 0.17769 0.95433 0.0
C2183 C 0.1097 0.16097 0.96853 0.0
C2184 C 0.09347 0.17992 0.93987 0.0
C2185 C 0.09342 0.14627 0.96795 0.0
C2186 C 0.07718 0.14839 0.95345 0.0
C2187 C 0.0608 0.16781 0.92477 0.0
C2188 C 0.06091 0.18498 0.91094 0.0
C2189 C 0.07702 0.16523 0.93933 0.0
C2190 C 0.07759 0.19923 0.9117 0.0
C2191 C 0.09365 0.19676 0.92598 0.0
H2192 H 0.84779 0.07112 0.90892 0.0
H2193 H 0.78174 0.07935 0.89891 0.0
H2194 H 0.7802 0.10496 0.92681 0.0
H2195 H 0.79706 0.12341 0.95544 0.0
H2196 H 0.86329 0.11628 0.96523 0.0
H2197 H 0.86536 0.09203 0.93601 0.0
C2198 C 0.83318 0.07883 0.9126 0.0
C2199 C 0.81485 0.0731 0.90205 0.0
C2200 C 0.83238 0.09357 0.92879 0.0
C2201 C 0.79599 0.08317 0.90708 0.0
C2202 C 0.79509 0.09785 0.92302 0.0
C2203 C 0.81195 0.11656 0.95119 0.0
C2204 C 0.82991 0.12142 0.96266 0.0
C2205 C 0.81307 0.10281 0.93428 0.0
C2206 C 0.84918 0.1127 0.95671 0.0
C2207 C 0.85039 0.09883 0.93999 0.0
H2208 H 0.91093 0.82654 0.88607 0.0
H2209 H 0.95717 0.85485 0.9254 0.0
H2210 H 0.93026 0.86311 0.95123 0.0
H2211 H 0.8932 0.86263 0.96223 0.0
H2212 H 0.84696 0.83659 0.92108 0.0
H2213 H 0.87412 0.82696 0.89642 0.0
C2214 C 0.91506 0.83434 0.9004 0.0
C2215 C 0.93591 0.83992 0.90403 0.0
C2216 C 0.89948 0.83947 0.91479 0.0
C2217 C 0.94114 0.85045 0.92239 0.0
C2218 C 0.92579 0.85512 0.93711 0.0
C2219 C 0.88916 0.85477 0.94789 0.0
C2220 C 0.86814 0.85029 0.94348 0.0
C2221 C 0.90486 0.84976 0.93345 0.0
C2222 C 0.86303 0.84032 0.92476 0.0
C2223 C 0.87855 0.83476 0.91066 0.0
H2224 H 0.05379 0.15093 0.12019 0.0
H2225 H 0.03585 0.21613 0.1183 0.0
H2226 H 0.06101 0.22258 0.09075 0.0
H2227 H 0.08786 0.20975 0.06674 0.0
H2228 H 0.10621 0.14475 0.06893 0.0
H2229 H 0.08104 0.13822 0.09646 0.0
C2230 C 0.05541 0.16656 0.1138 0.0
C2231 C 0.04289 0.18298 0.12138 0.0
C2232 C 0.06991 0.17022 0.09782 0.0
C2233 C 0.04523 0.20314 0.11284 0.0
C2234 C 0.05963 0.20688 0.09702 0.0
C2235 C 0.08644 0.19419 0.07331 0.0
C2236 C 0.09883 0.17778 0.06555 0.0
C2237 C 0.07202 0.19054 0.08934 0.0
C2238 C 0.09661 0.15764 0.07419 0.0
C2239 C 0.08231 0.1539 0.09012 0.0
H2240 H 0.03757 0.81623 0.89292 0.0
H2241 H 0.03512 0.88291 0.90316 0.0
H2242 H 0.06167 0.87973 0.93032 0.0
H2243 H 0.0869 0.8582 0.94945 0.0
H2244 H 0.08781 0.79112 0.93999 0.0
H2245 H 0.0606 0.79441 0.91416 0.0
C2246 C 0.04276 0.83006 0.9012 0.0
C2247 C 0.03456 0.84979 0.89597 0.0
C2248 C 0.05787 0.82809 0.91681 0.0
C2249 C 0.0412 0.86754 0.90696 0.0
C2250 C 0.05644 0.86572 0.92241 0.0
C2251 C 0.08112 0.84417 0.94206 0.0
C2252 C 0.09 0.82444 0.94669 0.0
C2253 C 0.06509 0.84608 0.92727 0.0
C2254 C 0.0819 0.80662 0.93666 0.0
C2255 C 0.06614 0.80843 0.92185 0.0
H2256 H 0.15119 0.09223 0.95408 0.0
H2257 H 0.21079 0.11465 0.93254 0.0
H2258 H 0.21086 0.08845 0.90499 0.0
H2259 H 0.19405 0.05924 0.88711 0.0
H2260 H 0.13473 0.03602 0.90881 0.0
H2261 H 0.13446 0.06241 0.93629 0.0
C2262 C 0.16405 0.09146 0.94321 0.0
C2263 C 0.18094 0.10537 0.94525 0.0
C2264 C 0.16409 0.07615 0.92757 0.0
C2265 C 0.19771 0.10401 0.93132 0.0
C2266 C 0.19773 0.08907 0.91557 0.0
C2267 C 0.18108 0.05989 0.89788 0.0
C2268 C 0.16444 0.0457 0.89594 0.0
C2269 C 0.18105 0.07502 0.9136 0.0
C2270 C 0.14778 0.04672 0.91005 0.0
C2271 C 0.14757 0.06185 0.9257 0.0
H2272 H 0.9665 0.15469 0.91964 0.0
H2273 H 0.94885 0.20761 0.88179 0.0
H2274 H 0.9225 0.21772 0.90694 0.0
H2275 H 0.90301 0.21065 0.93892 0.0
H2276 H 0.92044 0.15793 0.97692 0.0
H2277 H 0.94821 0.14876 0.95271 0.0
C2278 C 0.95692 0.16845 0.91697 0.0
C2279 C 0.95957 0.18024 0.89881 0.0
C2280 C 0.94166 0.17426 0.93155 0.0
C2281 C 0.94711 0.19814 0.89561 0.0
C2282 C 0.932 0.204 0.91 0.0
C2283 C 0.91313 0.19739 0.94202 0.0
C2284 C 0.90952 0.18488 0.95951 0.0
C2285 C 0.92898 0.19209 0.92794 0.0
C2286 C 0.92266 0.1676 0.96331 0.0
C2287 C 0.93858 0.16236 0.94951 0.0
H2288 H 0.81762 0.93408 0.9594 0.0
H2289 H 0.78925 0.88455 0.92405 0.0
H2290 H 0.79661 0.90332 0.89185 0.0
H2291 H 0.81328 0.9328 0.87361 0.0
H2292 H 0.83999 0.9834 0.90893 0.0
H2293 H 0.83124 0.96533 0.94124 0.0
C2294 C 0.81279 0.92766 0.94462 0.0
C2295 C 0.80286 0.90804 0.94406 0.0
C2296 C 0.81704 0.93859 0.92618 0.0
C2297 C 0.79661 0.89977 0.92488 0.0
C2298 C 0.80104 0.9104 0.90646 0.0
C2299 C 0.81714 0.93985 0.88841 0.0
C2300 C 0.82753 0.95922 0.88893 0.0
C2301 C 0.8116 0.92962 0.9069 0.0
C2302 C 0.83207 0.96843 0.90817 0.0
C2303 C 0.82708 0.95811 0.92663 0.0
H2304 H 0.94073 0.81693 0.11624 0.0
H2305 H 0.95964 0.88075 0.1049 0.0
H2306 H 0.93256 0.88426 0.07833 0.0
H2307 H 0.90449 0.86837 0.05707 0.0
H2308 H 0.8874 0.80404 0.06755 0.0
H2309 H 0.91256 0.80153 0.09594 0.0
C2310 C 0.9389 0.83165 0.10802 0.0
C2311 C 0.95221 0.84851 0.11244 0.0
C2312 C 0.92354 0.83344 0.09268 0.0
C2313 C 0.94965 0.86748 0.10165 0.0
C2314 C 0.93414 0.86951 0.08652 0.0
C2315 C 0.90613 0.854 0.06589 0.0
C2316 C 0.89419 0.83642 0.06045 0.0
C2317 C 0.9211 0.85253 0.08177 0.0
C2318 C 0.89655 0.81769 0.0716 0.0
C2319 C 0.91092 0.81626 0.08772 0.0
H2320 H 0.14614 0.91286 0.05426 0.0
H2321 H 0.20859 0.89444 0.07119 0.0
H2322 H 0.20906 0.92071 0.09867 0.0
H2323 H 0.19183 0.94883 0.11779 0.0
H2324 H 0.12955 0.96806 0.10087 0.0
H2325 H 0.12891 0.9417 0.07335 0.0
C2326 C 0.15972 0.9145 0.06414 0.0
C2327 C 0.17729 0.90171 0.06082 0.0
C2328 C 0.15997 0.9299 0.07973 0.0
C2329 C 0.19495 0.90421 0.07345 0.0
C2330 C 0.19522 0.9192 0.08913 0.0
C2331 C 0.17814 0.94736 0.10801 0.0
C2332 C 0.16079 0.96042 0.11133 0.0
C2333 C 0.17787 0.93219 0.09234 0.0
C2334 C 0.14318 0.9583 0.09852 0.0
C2335 C 0.14276 0.94314 0.08287 0.0
H2336 H 0.85963 0.04008 0.10054 0.0
H2337 H 0.81673 0.06663 0.14497 0.0
H2338 H 0.80749 0.09421 0.12081 0.0
H2339 H 0.81109 0.11085 0.08708 0.0
H2340 H 0.85408 0.08567 0.04231 0.0
H2341 H 0.86374 0.05756 0.0664 0.0
C2342 C 0.84845 0.05205 0.10492 0.0
C2343 C 0.83886 0.05123 0.12447 0.0
C2344 C 0.84304 0.06802 0.09083 0.0
C2345 C 0.82429 0.06678 0.12996 0.0
C2346 C 0.81891 0.08259 0.11615 0.0
C2347 C 0.82234 0.09903 0.08253 0.0
C2348 C 0.83171 0.10016 0.06298 0.0
C2349 C 0.828 0.08324 0.0965 0.0
C2350 C 0.84668 0.08506 0.05737 0.0
C2351 C 0.85221 0.06904 0.07113 0.0
H2352 H 0.10233 0.54387 0.70963 0.0
H2353 H 0.11425 0.55407 0.64456 0.0
H2354 H 0.08952 0.58317 0.64435 0.0
H2355 H 0.0646 0.60577 0.66259 0.0
H2356 H 0.05218 0.59528 0.72746 0.0
H2357 H 0.07727 0.56647 0.72784 0.0
C2358 C 0.09955 0.55244 0.69538 0.0
C2359 C 0.11016 0.54669 0.67713 0.0
C2360 C 0.08527 0.56918 0.69534 0.0
C2361 C 0.10631 0.55804 0.65884 0.0
C2362 C 0.09216 0.57473 0.6587 0.0
C2363 C 0.06717 0.59706 0.67677 0.0
C2364 C 0.05637 0.6027 0.69495 0.0
C2365 C 0.08152 0.5804 0.67684 0.0
C2366 C 0.06035 0.59147 0.71328 0.0
C2367 C 0.07463 0.57489 0.71348 0.0
H2368 H 0.95506 0.61346 0.69539 0.0
H2369 H 0.97382 0.59916 0.63283 0.0
H2370 H 0.9485 0.57041 0.63164 0.0
H2371 H 0.92024 0.55 0.64831 0.0
H2372 H 0.90263 0.5641 0.71118 0.0
H2373 H 0.92825 0.59239 0.71238 0.0
C2374 C 0.95369 0.60398 0.68152 0.0
C2375 C 0.9662 0.60842 0.6642 0.0
C2376 C 0.93922 0.58757 0.681 0.0
C2377 C 0.96441 0.59593 0.6464 0.0
C2378 C 0.94986 0.5796 0.64568 0.0
C2379 C 0.92201 0.5594 0.66218 0.0
C2380 C 0.90955 0.55515 0.67961 0.0
C2381 C 0.93702 0.57543 0.66283 0.0
C2382 C 0.91215 0.5671 0.69765 0.0
C2383 C 0.92675 0.58326 0.69832 0.0
H2384 H 0.94823 0.40901 0.68583 0.0
H2385 H 0.91605 0.35626 0.65922 0.0
H2386 H 0.88573 0.37836 0.65184 0.0
H2387 H 0.86931 0.41307 0.6511 0.0
H2388 H 0.90203 0.46614 0.67681 0.0
H2389 H 0.93114 0.44349 0.68651 0.0
C2390 C 0.93441 0.40228 0.67882 0.0
C2391 C 0.93433 0.38103 0.67311 0.0
C2392 C 0.91723 0.41518 0.67427 0.0
C2393 C 0.91647 0.37261 0.66365 0.0
C2394 C 0.89917 0.38524 0.65942 0.0
C2395 C 0.88273 0.4197 0.65895 0.0
C2396 C 0.88348 0.44132 0.66309 0.0
C2397 C 0.89953 0.40663 0.66432 0.0
C2398 C 0.90105 0.44959 0.67328 0.0
C2399 C 0.91772 0.43664 0.67888 0.0
H2400 H 0.08149 0.43781 0.6873 0.0
H2401 H 0.1262 0.42236 0.63991 0.0
H2402 H 0.1079 0.3894 0.63302 0.0
H2403 H 0.07901 0.365 0.6406 0.0
H2404 H 0.03265 0.38208 0.68594 0.0
H2405 H 0.05183 0.41421 0.69382 0.0
C2406 C 0.08715 0.42717 0.67548 0.0
C2407 C 0.10513 0.43238 0.66415 0.0
C2408 C 0.07634 0.4085 0.6714 0.0
C2409 C 0.11226 0.41869 0.64867 0.0
C2410 C 0.10188 0.39982 0.64484 0.0
C2411 C 0.07325 0.37571 0.65231 0.0
C2412 C 0.0546 0.37114 0.66286 0.0
C2413 C 0.08393 0.39453 0.65616 0.0
C2414 C 0.04703 0.38528 0.67771 0.0
C2415 C 0.05795 0.40365 0.68217 0.0
H2416 H 0.06465 0.42774 0.31407 0.0
H2417 H 0.08652 0.37952 0.35537 0.0
H2418 H 0.11792 0.39996 0.36299 0.0
H2419 H 0.13908 0.4316 0.35785 0.0
H2420 H 0.11592 0.48139 0.31895 0.0
H2421 H 0.08504 0.46049 0.31044 0.0
C2422 C 0.07641 0.42182 0.32465 0.0
C2423 C 0.07356 0.40221 0.33406 0.0
C2424 C 0.09407 0.43396 0.3294 0.0
C2425 C 0.08856 0.39464 0.34803 0.0
C2426 C 0.10645 0.40628 0.35234 0.0
C2427 C 0.12725 0.43782 0.34749 0.0
C2428 C 0.12976 0.45786 0.3389 0.0
C2429 C 0.10937 0.42596 0.34312 0.0
C2430 C 0.11424 0.46597 0.32577 0.0
C2431 C 0.09665 0.45402 0.32085 0.0
H2432 H 0.09121 0.56383 0.31791 0.0
H2433 H 0.14427 0.59476 0.34521 0.0
H2434 H 0.12241 0.62473 0.3544 0.0
H2435 H 0.08806 0.64148 0.35591 0.0
H2436 H 0.03463 0.61037 0.32925 0.0
H2437 H 0.05683 0.58121 0.31845 0.0
C2438 C 0.09804 0.57728 0.32555 0.0
C2439 C 0.11936 0.57708 0.33086 0.0
C2440 C 0.08529 0.59436 0.33102 0.0
C2441 C 0.12789 0.59448 0.34111 0.0
C2442 C 0.1154 0.61162 0.34634 0.0
C2443 C 0.08123 0.62839 0.34764 0.0
C2444 C 0.05966 0.62815 0.34346 0.0
C2445 C 0.09404 0.61161 0.34161 0.0
C2446 C 0.05115 0.61098 0.33276 0.0
C2447 C 0.06385 0.59429 0.32655 0.0
H2448 H 0.93867 0.60171 0.30288 0.0
H2449 H 0.96051 0.59487 0.3657 0.0
H2450 H 0.93641 0.56593 0.37132 0.0
H2451 H 0.90771 0.54376 0.359 0.0
H2452 H 0.88539 0.551 0.29634 0.0
H2453 H 0.91127 0.57822 0.28993 0.0
C2454 C 0.93829 0.59369 0.31768 0.0
C2455 C 0.95111 0.60062 0.33389 0.0
C2456 C 0.92431 0.57709 0.32085 0.0
C2457 C 0.95043 0.59017 0.35309 0.0
C2458 C 0.93676 0.57351 0.35629 0.0
C2459 C 0.90873 0.55111 0.34388 0.0
C2460 C 0.89466 0.54547 0.32822 0.0
C2461 C 0.9234 0.56704 0.34039 0.0
C2462 C 0.89602 0.55519 0.30871 0.0
C2463 C 0.91079 0.57078 0.30502 0.0
H2464 H 0.96072 0.40271 0.34942 0.0
H2465 H 0.9547 0.38121 0.28631 0.0
H2466 H 0.92554 0.40503 0.2808 0.0
H2467 H 0.9021 0.43205 0.29354 0.0
H2468 H 0.90908 0.45527 0.35604 0.0
H2469 H 0.93711 0.4304 0.36212 0.0
C2470 C 0.95299 0.40322 0.33448 0.0
C2471 C 0.95998 0.39022 0.3183 0.0
C2472 C 0.93631 0.41721 0.33127 0.0
C2473 C 0.9498 0.39112 0.29902 0.0
C2474 C 0.93305 0.40472 0.29584 0.0
C2475 C 0.90975 0.43199 0.30847 0.0
C2476 C 0.90328 0.44589 0.32415 0.0
C2477 C 0.92627 0.41793 0.3118 0.0
C2478 C 0.91338 0.4449 0.34354 0.0
C2479 C 0.92961 0.43066 0.34708 0.0
H2480 H 0.19402 0.63415 0.5743 0.0
H2481 H 0.14665 0.60617 0.53575 0.0
H2482 H 0.14631 0.5751 0.55797 0.0
H2483 H 0.15924 0.55603 0.58878 0.0
H2484 H 0.20751 0.58367 0.62628 0.0
H2485 H 0.20773 0.61475 0.60411 0.0
C2486 C 0.18364 0.62125 0.57072 0.0
C2487 C 0.17032 0.62253 0.55344 0.0
C2488 C 0.18364 0.6034 0.58344 0.0
C2489 C 0.15711 0.60557 0.54892 0.0
C2490 C 0.15684 0.58783 0.56167 0.0
C2491 C 0.16968 0.56895 0.59209 0.0
C2492 C 0.18327 0.56766 0.60916 0.0
C2493 C 0.16995 0.58662 0.57905 0.0
C2494 C 0.19701 0.58431 0.61315 0.0
C2495 C 0.1971 0.60207 0.60052 0.0
H2496 H 0.90183 0.64017 0.54541 0.0
H2497 H 0.87685 0.70281 0.55003 0.0
H2498 H 0.90121 0.71089 0.57776 0.0
H2499 H 0.92892 0.7001 0.60146 0.0
H2500 H 0.95418 0.6376 0.59748 0.0
H2501 H 0.93034 0.6295 0.56911 0.0
C2502 C 0.90187 0.6556 0.55241 0.0
C2503 C 0.88754 0.67083 0.54566 0.0
C2504 C 0.91585 0.66015 0.56865 0.0
C2505 C 0.88765 0.69073 0.55498 0.0
C2506 C 0.90159 0.69541 0.57087 0.0
C2507 C 0.92937 0.68478 0.59427 0.0
C2508 C 0.9433 0.66952 0.6017 0.0
C2509 C 0.91566 0.68023 0.57793 0.0
C2510 C 0.94341 0.6496 0.59235 0.0
C2511 C 0.92987 0.64497 0.57598 0.0
H2512 H 0.85038 0.45887 0.5791 0.0
H2513 H 0.79099 0.43496 0.60017 0.0
H2514 H 0.79239 0.40753 0.57419 0.0
H2515 H 0.81093 0.38925 0.54671 0.0
H2516 H 0.8707 0.41189 0.52566 0.0
H2517 H 0.86882 0.44075 0.55068 0.0
C2518 C 0.83777 0.44764 0.5781 0.0
C2519 C 0.82061 0.4491 0.59176 0.0
C2520 C 0.83881 0.43156 0.56324 0.0
C2521 C 0.80426 0.43455 0.58983 0.0
C2522 C 0.80512 0.41867 0.57505 0.0
C2523 C 0.82359 0.40048 0.54753 0.0
C2524 C 0.841 0.39836 0.53443 0.0
C2525 C 0.82239 0.41689 0.56187 0.0
C2526 C 0.85715 0.41316 0.53562 0.0
C2527 C 0.85607 0.42964 0.54992 0.0
H2528 H 0.11272 0.32549 0.53589 0.0
H2529 H 0.13332 0.37259 0.5792 0.0
H2530 H 0.1033 0.36543 0.60135 0.0
H2531 H 0.07154 0.34554 0.60869 0.0
H2532 H 0.05181 0.29679 0.56711 0.0
H2533 H 0.08117 0.30471 0.54392 0.0
C2534 C 0.11055 0.33418 0.55016 0.0
C2535 C 0.12514 0.34956 0.55592 0.0
C2536 C 0.09348 0.32967 0.56308 0.0
C2537 C 0.12235 0.36059 0.57453 0.0
C2538 C 0.10517 0.35656 0.58716 0.0
C2539 C 0.07362 0.33682 0.59445 0.0
C2540 C 0.05953 0.3208 0.58941 0.0
C2541 C 0.09069 0.34113 0.58161 0.0
C2542 C 0.06254 0.3092 0.5712 0.0
C2543 C 0.07926 0.31375 0.55799 0.0
H2544 H 0.19271 0.38751 0.44581 0.0
H2545 H 0.13857 0.41856 0.47106 0.0
H2546 H 0.14359 0.44775 0.44686 0.0
H2547 H 0.16379 0.4645 0.41881 0.0
H2548 H 0.21756 0.43251 0.3937 0.0
H2549 H 0.21245 0.40386 0.41792 0.0
C2550 C 0.18192 0.40061 0.44602 0.0
C2551 C 0.16526 0.40084 0.46018 0.0
C2552 C 0.18498 0.41729 0.43223 0.0
C2553 C 0.1515 0.41799 0.46026 0.0
C2554 C 0.1544 0.43469 0.44647 0.0
C2555 C 0.17433 0.45124 0.41852 0.0
C2556 C 0.19112 0.45087 0.4044 0.0
C2557 C 0.17115 0.43453 0.43241 0.0
C2558 C 0.20474 0.43356 0.40454 0.0
C2559 C 0.20173 0.417 0.4183 0.0
H2560 H 0.07284 0.71197 0.41115 0.0
H2561 H 0.03255 0.66217 0.43197 0.0
H2562 H 0.05657 0.65413 0.4602 0.0
H2563 H 0.09041 0.65955 0.4774 0.0
H2564 H 0.13039 0.70975 0.45665 0.0
H2565 H 0.10505 0.71945 0.43023 0.0
C2566 C 0.06912 0.69967 0.42212 0.0
C2567 C 0.05112 0.6875 0.41926 0.0
C2568 C 0.08305 0.69505 0.43826 0.0
C2569 C 0.04656 0.67148 0.43356 0.0
C2570 C 0.06026 0.6669 0.44975 0.0
C2571 C 0.09347 0.6727 0.46719 0.0
C2572 C 0.11232 0.68374 0.46885 0.0
C2573 C 0.07881 0.67824 0.45195 0.0
C2574 C 0.11602 0.70088 0.45564 0.0
C2575 C 0.10155 0.70647 0.44048 0.0
H2576 H 0.85572 0.60876 0.45811 0.0
H2577 H 0.78951 0.62132 0.45624 0.0
H2578 H 0.78595 0.59959 0.42554 0.0
H2579 H 0.80148 0.5773 0.39882 0.0
H2580 H 0.86718 0.56322 0.40085 0.0
H2581 H 0.87111 0.58498 0.43188 0.0
C2582 C 0.84054 0.60669 0.45097 0.0
C2583 C 0.82294 0.61671 0.45948 0.0
C2584 C 0.83849 0.59384 0.43335 0.0
C2585 C 0.80333 0.61375 0.45012 0.0
C2586 C 0.80125 0.60135 0.4325 0.0
C2587 C 0.81664 0.57906 0.40607 0.0
C2588 C 0.834 0.56879 0.39756 0.0
C2589 C 0.81869 0.59138 0.42394 0.0
C2590 C 0.85354 0.57087 0.40725 0.0
C2591 C 0.8558 0.5834 0.42491 0.0
H2592 H 0.89142 0.35639 0.45113 0.0
H2593 H 0.87536 0.29101 0.44522 0.0
H2594 H 0.90233 0.28648 0.41901 0.0
H2595 H 0.93118 0.30065 0.3985 0.0
H2596 H 0.94842 0.36562 0.40539 0.0
H2597 H 0.92016 0.37072 0.43007 0.0
C2598 C 0.89372 0.34119 0.444 0.0
C2599 C 0.88138 0.32407 0.45024 0.0
C2600 C 0.90951 0.33857 0.42905 0.0
C2601 C 0.88466 0.30447 0.44085 0.0
C2602 C 0.90011 0.30183 0.42582 0.0
C2603 C 0.92892 0.31591 0.40546 0.0
C2604 C 0.94213 0.33264 0.39998 0.0
C2605 C 0.9128 0.3187 0.41997 0.0
C2606 C 0.93851 0.35242 0.40898 0.0
C2607 C 0.92236 0.35536 0.42328 0.0
H2608 H 0.08359 0.7021 0.56547 0.0
H2609 H 0.13337 0.66223 0.58699 0.0
H2610 H 0.11338 0.6537 0.61817 0.0
H2611 H 0.0814 0.65682 0.63871 0.0
H2612 H 0.03042 0.69472 0.6162 0.0
H2613 H 0.0512 0.70495 0.58603 0.0
C2614 C 0.09005 0.69173 0.57714 0.0
C2615 C 0.10989 0.68285 0.5741 0.0
C2616 C 0.07826 0.68656 0.59475 0.0
C2617 C 0.11806 0.66913 0.58906 0.0
C2618 C 0.10668 0.66431 0.60685 0.0
C2619 C 0.07491 0.66748 0.6273 0.0
C2620 C 0.05449 0.67513 0.62973 0.0
C2621 C 0.08672 0.67283 0.60979 0.0
C2622 C 0.04613 0.68864 0.61465 0.0
C2623 C 0.058 0.69449 0.59742 0.0
H2624 H 0.05265 0.31839 0.3889 0.0
H2625 H 0.03589 0.3815 0.40598 0.0
H2626 H 0.06293 0.38138 0.43285 0.0
H2627 H 0.0919 0.36332 0.451 0.0
H2628 H 0.10784 0.30009 0.43372 0.0
H2629 H 0.08058 0.30026 0.40731 0.0
C2630 C 0.05481 0.33211 0.39856 0.0
C2631 C 0.04231 0.34994 0.39545 0.0
C2632 C 0.07034 0.33192 0.41384 0.0
C2633 C 0.04525 0.36754 0.40816 0.0
C2634 C 0.06078 0.36751 0.42343 0.0
C2635 C 0.08946 0.34969 0.44131 0.0
C2636 C 0.10189 0.33173 0.44422 0.0
C2637 C 0.07356 0.34983 0.42628 0.0
C2638 C 0.09836 0.31401 0.43183 0.0
C2639 C 0.08282 0.31412 0.41673 0.0
H2640 H 0.20083 0.61025 0.43306 0.0
H2641 H 0.1384 0.60139 0.45628 0.0
H2642 H 0.13405 0.57075 0.43394 0.0
H2643 H 0.14733 0.5479 0.40586 0.0
H2644 H 0.20967 0.55792 0.38251 0.0
H2645 H 0.21466 0.58664 0.40671 0.0
C2646 C 0.18627 0.60162 0.43322 0.0
C2647 C 0.16993 0.60821 0.44616 0.0
C2648 C 0.18382 0.58424 0.42021 0.0
C2649 C 0.15129 0.59658 0.44654 0.0
C2650 C 0.14875 0.57914 0.43366 0.0
C2651 C 0.16206 0.55623 0.40628 0.0
C2652 C 0.17804 0.55086 0.39231 0.0
C2653 C 0.16481 0.573 0.42018 0.0
C2654 C 0.19705 0.56182 0.39298 0.0
C2655 C 0.19994 0.57828 0.40682 0.0
H2656 H 0.91546 0.6551 0.45711 0.0
H2657 H 0.89236 0.71251 0.43018 0.0
H2658 H 0.91906 0.71082 0.4034 0.0
H2659 H 0.94883 0.69329 0.38762 0.0
H2660 H 0.97251 0.63581 0.41388 0.0
H2661 H 0.94561 0.63718 0.4409 0.0
C2662 C 0.91617 0.66712 0.44527 0.0
C2663 C 0.90194 0.68396 0.44572 0.0
C2664 C 0.93166 0.66605 0.42984 0.0
C2665 C 0.90327 0.69956 0.4304 0.0
C2666 C 0.91848 0.69855 0.415 0.0
C2667 C 0.94816 0.68101 0.39924 0.0
C2668 C 0.96265 0.66447 0.39875 0.0
C2669 C 0.93277 0.68193 0.41462 0.0
C2670 C 0.96155 0.64874 0.41394 0.0
C2671 C 0.94616 0.64951 0.42936 0.0
H2672 H 0.8418 0.42279 0.44667 0.0
H2673 H 0.79282 0.38687 0.41814 0.0
H2674 H 0.79469 0.40886 0.38706 0.0
H2675 H 0.81044 0.43827 0.36801 0.0
H2676 H 0.85772 0.47587 0.39753 0.0
H2677 H 0.85633 0.45346 0.42825 0.0
C2678 C 0.83165 0.41984 0.43356 0.0
C2679 C 0.81731 0.40325 0.43449 0.0
C2680 C 0.83246 0.43289 0.41602 0.0
C2681 C 0.80392 0.39964 0.41766 0.0
C2682 C 0.80502 0.41216 0.39993 0.0
C2683 C 0.8204 0.44155 0.38119 0.0
C2684 C 0.83421 0.45863 0.38049 0.0
C2685 C 0.81923 0.42884 0.39894 0.0
C2686 C 0.84687 0.46287 0.39776 0.0
C2687 C 0.84616 0.45001 0.41528 0.0
H2688 H 0.91485 0.35368 0.5449 0.0
H2689 H 0.88345 0.30207 0.57472 0.0
H2690 H 0.91028 0.30071 0.60128 0.0
H2691 H 0.94292 0.3132 0.61551 0.0
H2692 H 0.97492 0.36525 0.58718 0.0
H2693 H 0.94759 0.36752 0.56056 0.0
C2694 C 0.91384 0.34235 0.55736 0.0
C2695 C 0.89734 0.32779 0.55767 0.0
C2696 C 0.92946 0.34163 0.57272 0.0
C2697 C 0.89621 0.31312 0.57388 0.0
C2698 C 0.9115 0.31238 0.58913 0.0
C2699 C 0.94403 0.32503 0.60348 0.0
C2700 C 0.96102 0.33888 0.60315 0.0
C2701 C 0.92831 0.32633 0.58853 0.0
C2702 C 0.96202 0.35432 0.58766 0.0
C2703 C 0.94639 0.35563 0.57248 0.0
H2704 H 0.19226 0.454 0.61792 0.0
H2705 H 0.13674 0.47949 0.58961 0.0
H2706 H 0.14232 0.45752 0.5591 0.0
H2707 H 0.16229 0.43024 0.54109 0.0
H2708 H 0.21704 0.40391 0.57027 0.0
H2709 H 0.21276 0.42752 0.59946 0.0
C2710 C 0.18139 0.4548 0.60506 0.0
C2711 C 0.16404 0.46826 0.60609 0.0
C2712 C 0.18465 0.4421 0.58762 0.0
C2713 C 0.15019 0.4692 0.58924 0.0
C2714 C 0.15338 0.45665 0.57178 0.0
C2715 C 0.17328 0.42957 0.55382 0.0
C2716 C 0.18989 0.41507 0.55338 0.0
C2717 C 0.17045 0.44289 0.5709 0.0
C2718 C 0.20422 0.41492 0.56991 0.0
C2719 C 0.20167 0.42832 0.5868 0.0
H2720 H 0.85342 0.58826 0.55034 0.0
H2721 H 0.80229 0.61506 0.58492 0.0
H2722 H 0.80622 0.58835 0.61145 0.0
H2723 H 0.82361 0.55746 0.6248 0.0
H2724 H 0.87494 0.52978 0.59131 0.0
H2725 H 0.87169 0.55695 0.56448 0.0
C2726 C 0.84327 0.58832 0.56376 0.0
C2727 C 0.82742 0.6036 0.56548 0.0
C2728 C 0.84566 0.57281 0.57915 0.0
C2729 C 0.81431 0.60332 0.58293 0.0
C2730 C 0.81664 0.58811 0.59822 0.0
C2731 C 0.83418 0.55729 0.61167 0.0
C2732 C 0.84948 0.54158 0.61004 0.0
C2733 C 0.83215 0.57276 0.59643 0.0
C2734 C 0.86302 0.54171 0.59292 0.0
C2735 C 0.86114 0.55722 0.57759 0.0
H2736 H 0.56555 0.10583 0.65776 0.0
H2737 H 0.54681 0.08709 0.71923 0.0
H2738 H 0.57503 0.06147 0.72037 0.0
H2739 H 0.60458 0.04406 0.70388 0.0
H2740 H 0.62301 0.06164 0.64195 0.0
H2741 H 0.59533 0.0881 0.64103 0.0
C2742 C 0.56748 0.09596 0.67129 0.0
C2743 C 0.55403 0.09837 0.68839 0.0
C2744 C 0.58375 0.08117 0.67182 0.0
C2745 C 0.55703 0.08571 0.70596 0.0
C2746 C 0.57314 0.07102 0.7066 0.0
C2747 C 0.60271 0.05378 0.69021 0.0
C2748 C 0.6159 0.0509 0.67303 0.0
C2749 C 0.58661 0.06865 0.68966 0.0
C2750 C 0.61308 0.06354 0.6554 0.0
C2751 C 0.59722 0.07863 0.65484 0.0
H2752 H 0.40829 0.05708 0.64567 0.0
H2753 H 0.39104 0.07805 0.70682 0.0
H2754 H 0.41921 0.10373 0.70628 0.0
H2755 H 0.4483 0.12027 0.68858 0.0
H2756 H 0.46644 0.09989 0.62749 0.0
H2757 H 0.4383 0.07374 0.62782 0.0
C2758 C 0.41059 0.06744 0.65876 0.0
C2759 C 0.39753 0.06576 0.67627 0.0
C2760 C 0.42698 0.0821 0.65838 0.0
C2761 C 0.40096 0.07897 0.69328 0.0
C2762 C 0.41702 0.09367 0.69294 0.0
C2763 C 0.44617 0.11012 0.67528 0.0
C2764 C 0.45939 0.11205 0.65798 0.0
C2765 C 0.43009 0.09533 0.67561 0.0
C2766 C 0.4565 0.09865 0.641 0.0
C2767 C 0.44038 0.08379 0.64118 0.0
H2768 H 0.45444 0.93258 0.68686 0.0
H2769 H 0.42139 0.87369 0.68526 0.0
H2770 H 0.38946 0.89196 0.67525 0.0
H2771 H 0.3715 0.92434 0.665 0.0
H2772 H 0.40437 0.98327 0.66759 0.0
H2773 H 0.4358 0.96521 0.67953 0.0
C2774 C 0.44024 0.92367 0.68482 0.0
C2775 C 0.44053 0.90164 0.68665 0.0
C2776 C 0.42191 0.93428 0.67907 0.0
C2777 C 0.42181 0.89056 0.68363 0.0
C2778 C 0.4035 0.90101 0.67793 0.0
C2779 C 0.38552 0.93327 0.66822 0.0
C2780 C 0.38565 0.95511 0.66515 0.0
C2781 C 0.40349 0.92281 0.67519 0.0
C2782 C 0.40386 0.96645 0.66972 0.0
C2783 C 0.42185 0.95612 0.67654 0.0
H2784 H 0.55939 0.88745 0.71295 0.0
H2785 H 0.5625 0.87013 0.64844 0.0
H2786 H 0.5899 0.89596 0.6426 0.0
H2787 H 0.60866 0.92731 0.65458 0.0
H2788 H 0.60317 0.94677 0.71799 0.0
H2789 H 0.58147 0.91611 0.72583 0.0
C2790 C 0.56642 0.889 0.69774 0.0
C2791 C 0.55873 0.87714 0.68109 0.0
C2792 C 0.58174 0.90435 0.69435 0.0
C2793 C 0.56793 0.87934 0.66144 0.0
C2794 C 0.58362 0.89409 0.65808 0.0
C2795 C 0.60332 0.92421 0.67023 0.0
C2796 C 0.6076 0.93881 0.68583 0.0
C2797 C 0.59006 0.90721 0.67423 0.0
C2798 C 0.60023 0.93533 0.70597 0.0
C2799 C 0.58767 0.918 0.71032 0.0
H2800 H 0.56675 0.89425 0.35272 0.0
H2801 H 0.56704 0.89189 0.28595 0.0
H2802 H 0.59559 0.91704 0.28486 0.0
H2803 H 0.61896 0.94131 0.30266 0.0
H2804 H 0.61906 0.94383 0.36948 0.0
H2805 H 0.59214 0.9168 0.37075 0.0
C2806 C 0.57331 0.89896 0.33797 0.0
C2807 C 0.56457 0.89139 0.31944 0.0
C2808 C 0.58973 0.91356 0.33744 0.0
C2809 C 0.57318 0.89779 0.30042 0.0
C2810 C 0.58957 0.91212 0.29978 0.0
C2811 C 0.61321 0.93588 0.31753 0.0
C2812 C 0.62089 0.94476 0.33592 0.0
C2813 C 0.59768 0.92042 0.31816 0.0
C2814 C 0.61337 0.93736 0.35505 0.0
C2815 C 0.59793 0.9219 0.3558 0.0
H2816 H 0.59188 0.04871 0.30205 0.0
H2817 H 0.60986 0.05925 0.36561 0.0
H2818 H 0.58347 0.08664 0.36868 0.0
H2819 H 0.55562 0.10822 0.35305 0.0
H2820 H 0.53869 0.09805 0.28909 0.0
H2821 H 0.56457 0.07026 0.28642 0.0
C2822 C 0.59021 0.05707 0.31654 0.0
C2823 C 0.60294 0.0518 0.33354 0.0
C2824 C 0.57521 0.07304 0.31813 0.0
C2825 C 0.60016 0.06266 0.35231 0.0
C2826 C 0.58514 0.07849 0.35405 0.0
C2827 C 0.5576 0.09993 0.33853 0.0
C2828 C 0.54519 0.10531 0.3213 0.0
C2829 C 0.57261 0.08388 0.33703 0.0
C2830 C 0.54801 0.09436 0.30261 0.0
C2831 C 0.56281 0.07839 0.30105 0.0
H2832 H 0.45413 0.08388 0.35348 0.0
H2833 H 0.42117 0.11179 0.30198 0.0
H2834 H 0.39316 0.08662 0.30593 0.0
H2835 H 0.37789 0.05697 0.3236 0.0
H2836 H 0.40917 0.02874 0.37581 0.0
H2837 H 0.43788 0.05402 0.3722 0.0
C2838 C 0.44076 0.08456 0.34324 0.0
C2839 C 0.43999 0.09966 0.32726 0.0
C2840 C 0.42439 0.07004 0.34574 0.0
C2841 C 0.42254 0.10014 0.31407 0.0
C2842 C 0.40636 0.08582 0.31642 0.0
C2843 C 0.39097 0.05623 0.33425 0.0
C2844 C 0.39146 0.04092 0.34989 0.0
C2845 C 0.40718 0.0707 0.3321 0.0
C2846 C 0.40846 0.04037 0.36361 0.0
C2847 C 0.42486 0.05481 0.36152 0.0
H2848 H 0.42354 0.87101 0.36079 0.0
H2849 H 0.4713 0.89053 0.31783 0.0
H2850 H 0.45155 0.92238 0.31 0.0
H2851 H 0.42054 0.94475 0.31546 0.0
H2852 H 0.37397 0.92593 0.35985 0.0
H2853 H 0.39338 0.89377 0.36712 0.0
C2854 C 0.42958 0.8822 0.34966 0.0
C2855 C 0.44875 0.87837 0.33979 0.0
C2856 C 0.41836 0.90062 0.34555 0.0
C2857 C 0.45657 0.89315 0.32564 0.0
C2858 C 0.44527 0.91134 0.32113 0.0
C2859 C 0.4147 0.93351 0.32664 0.0
C2860 C 0.3959 0.93759 0.33709 0.0
C2861 C 0.42614 0.91523 0.33098 0.0
C2862 C 0.38852 0.92314 0.35178 0.0
C2863 C 0.39955 0.90474 0.35586 0.0
H2864 H 0.66301 0.06936 0.60588 0.0
H2865 H 0.72309 0.04478 0.58782 0.0
H2866 H 0.72587 0.07145 0.56089 0.0
H2867 H 0.71049 0.10087 0.54131 0.0
H2868 H 0.64965 0.124 0.55863 0.0
H2869 H 0.64786 0.09868 0.58675 0.0
C2870 C 0.67666 0.06963 0.59599 0.0
C2871 C 0.69273 0.05487 0.59893 0.0
C2872 C 0.67801 0.08478 0.58026 0.0
C2873 C 0.71051 0.05596 0.58615 0.0
C2874 C 0.71208 0.07117 0.57061 0.0
C2875 C 0.69692 0.10047 0.55134 0.0
C2876 C 0.68019 0.11432 0.54775 0.0
C2877 C 0.69584 0.08556 0.5674 0.0
C2878 C 0.66268 0.11347 0.56085 0.0
C2879 C 0.66164 0.09898 0.577 0.0
H2880 H 0.45302 0.15376 0.58815 0.0
H2881 H 0.43271 0.21501 0.60765 0.0
H2882 H 0.40799 0.21656 0.57889 0.0
H2883 H 0.39197 0.2004 0.54861 0.0
H2884 H 0.41207 0.13913 0.52863 0.0
H2885 H 0.4373 0.13773 0.55707 0.0
C2886 C 0.443 0.1673 0.58615 0.0
C2887 C 0.44452 0.18421 0.59997 0.0
C2888 C 0.42902 0.16816 0.56943 0.0
C2889 C 0.4318 0.20189 0.59708 0.0
C2890 C 0.4177 0.20277 0.58068 0.0
C2891 C 0.40198 0.18679 0.55036 0.0
C2892 C 0.4002 0.16992 0.53657 0.0
C2893 C 0.41623 0.18603 0.56676 0.0
C2894 C 0.41327 0.1524 0.53901 0.0
C2895 C 0.42758 0.15152 0.55533 0.0
H2896 H 0.36956 0.90298 0.54094 0.0
H2897 H 0.30499 0.88929 0.52822 0.0
H2898 H 0.29392 0.91696 0.55192 0.0
H2899 H 0.30254 0.94299 0.57835 0.0
H2900 H 0.36723 0.95434 0.59347 0.0
H2901 H 0.37818 0.93008 0.56676 0.0
C2902 C 0.35312 0.90645 0.54308 0.0
C2903 C 0.33809 0.89432 0.53288 0.0
C2904 C 0.34684 0.92186 0.55736 0.0
C2905 C 0.3168 0.89856 0.53599 0.0
C2906 C 0.31046 0.91428 0.54958 0.0
C2907 C 0.31902 0.94019 0.57587 0.0
C2908 C 0.33387 0.95067 0.58808 0.0
C2909 C 0.32533 0.92567 0.56078 0.0
C2910 C 0.35525 0.94692 0.58428 0.0
C2911 C 0.36164 0.93283 0.56901 0.0
H2912 H 0.60888 0.805 0.5572 0.0
H2913 H 0.59312 0.86912 0.54277 0.0
H2914 H 0.56474 0.86811 0.56807 0.0
H2915 H 0.54482 0.84915 0.59454 0.0
H2916 H 0.56053 0.78509 0.60901 0.0
H2917 H 0.58837 0.78579 0.58311 0.0
C2918 C 0.59924 0.81876 0.5596 0.0
C2919 C 0.60313 0.83714 0.54823 0.0
C2920 C 0.58292 0.81802 0.57406 0.0
C2921 C 0.59041 0.85478 0.55135 0.0
C2922 C 0.57421 0.85422 0.56581 0.0
C2923 C 0.55442 0.83539 0.59213 0.0
C2924 C 0.55072 0.81714 0.60379 0.0
C2925 C 0.57041 0.83596 0.57731 0.0
C2926 C 0.56297 0.79926 0.60013 0.0
C2927 C 0.57896 0.79971 0.58543 0.0
H2928 H 0.70637 0.8813 0.46087 0.0
H2929 H 0.63949 0.88762 0.46664 0.0
H2930 H 0.63948 0.91522 0.44063 0.0
H2931 H 0.65831 0.93809 0.41697 0.0
H2932 H 0.72497 0.93102 0.40968 0.0
H2933 H 0.72515 0.90347 0.43578 0.0
C2934 C 0.6918 0.88871 0.45642 0.0
C2935 C 0.673 0.8824 0.46578 0.0
C2936 C 0.69183 0.90456 0.44127 0.0
C2937 C 0.65423 0.8921 0.45971 0.0
C2938 C 0.65418 0.90794 0.44484 0.0
C2939 C 0.6729 0.93043 0.42077 0.0
C2940 C 0.69159 0.93688 0.41126 0.0
C2941 C 0.67288 0.91434 0.43557 0.0
C2942 C 0.71033 0.92678 0.41686 0.0
C2943 C 0.71046 0.91086 0.43175 0.0
H2944 H 0.62322 0.18482 0.44696 0.0
H2945 H 0.59658 0.12771 0.47094 0.0
H2946 H 0.56959 0.1288 0.44396 0.0
H2947 H 0.55344 0.14652 0.41369 0.0
H2948 H 0.58107 0.20344 0.39029 0.0
H2949 H 0.60782 0.2019 0.417 0.0
C2950 C 0.61153 0.17257 0.44636 0.0
C2951 C 0.61187 0.15623 0.46098 0.0
C2952 C 0.59623 0.1733 0.4309 0.0
C2953 C 0.5966 0.1405 0.4599 0.0
C2954 C 0.58121 0.14111 0.44446 0.0
C2955 C 0.56544 0.15844 0.41434 0.0
C2956 C 0.56516 0.17516 0.40005 0.0
C2957 C 0.58088 0.15747 0.42986 0.0
C2958 C 0.58071 0.19062 0.40126 0.0
C2959 C 0.59608 0.1897 0.41648 0.0
H2960 H 0.34135 0.14322 0.41898 0.0
H2961 H 0.32454 0.11278 0.47634 0.0
H2962 H 0.31575 0.08088 0.45763 0.0
H2963 H 0.31472 0.06105 0.42551 0.0
H2964 H 0.33299 0.09009 0.36804 0.0
H2965 H 0.33947 0.12318 0.38623 0.0
C2966 C 0.33555 0.12965 0.42729 0.0
C2967 C 0.33361 0.13031 0.44898 0.0
C2968 C 0.33093 0.11113 0.41646 0.0
C2969 C 0.3263 0.11259 0.45965 0.0
C2970 C 0.32124 0.09435 0.44898 0.0
C2971 C 0.31971 0.07471 0.41687 0.0
C2972 C 0.32318 0.07323 0.39545 0.0
C2973 C 0.32374 0.09338 0.42745 0.0
C2974 C 0.33025 0.09092 0.38457 0.0
C2975 C 0.33392 0.10979 0.39495 0.0
H2976 H 0.37528 0.81157 0.42702 0.0
H2977 H 0.41119 0.84552 0.47239 0.0
H2978 H 0.4431 0.83924 0.45249 0.0
H2979 H 0.46051 0.82541 0.42111 0.0
H2980 H 0.42453 0.79016 0.37685 0.0
H2981 H 0.39304 0.79536 0.39744 0.0
C2982 C 0.39012 0.81754 0.43256 0.0
C2983 C 0.39087 0.82919 0.45098 0.0
C2984 C 0.4084 0.81355 0.42126 0.0
C2985 C 0.41023 0.83652 0.45821 0.0
C2986 C 0.42846 0.83298 0.44682 0.0
C2987 C 0.44578 0.81873 0.41618 0.0
C2988 C 0.44484 0.8074 0.39756 0.0
C2989 C 0.4277 0.8217 0.42819 0.0
C2990 C 0.42571 0.79869 0.39129 0.0
C2991 C 0.40765 0.80182 0.40295 0.0
H2992 H 0.58223 0.19591 0.55849 0.0
H2993 H 0.63161 0.15467 0.57827 0.0
H2994 H 0.61302 0.14737 0.61053 0.0
H2995 H 0.58193 0.15132 0.63231 0.0
H2996 H 0.53133 0.19084 0.61176 0.0
H2997 H 0.55113 0.20035 0.58077 0.0
C2998 C 0.58893 0.18555 0.57003 0.0
C2999 C 0.60817 0.17577 0.56606 0.0
C3000 C 0.5779 0.18107 0.58836 0.0
C3001 C 0.61668 0.16216 0.58096 0.0
C3002 C 0.6061 0.15804 0.5994 0.0
C3003 C 0.57534 0.16221 0.62118 0.0
C3004 C 0.55523 0.17039 0.62436 0.0
C3005 C 0.58658 0.16719 0.60316 0.0
C3006 C 0.54678 0.18426 0.60964 0.0
C3007 C 0.55808 0.18972 0.59191 0.0
H3008 H 0.53649 0.85487 0.40514 0.0
H3009 H 0.55458 0.79916 0.37179 0.0
H3010 H 0.57974 0.79044 0.39869 0.0
H3011 H 0.59676 0.79849 0.4317 0.0
H3012 H 0.57941 0.85427 0.46505 0.0
H3013 H 0.55398 0.86316 0.43819 0.0
C3014 C 0.54597 0.84086 0.40377 0.0
C3015 C 0.54362 0.82771 0.3865 0.0
C3016 C 0.56057 0.83592 0.41931 0.0
C3017 C 0.55607 0.80961 0.38491 0.0
C3018 C 0.57047 0.80455 0.40031 0.0
C3019 C 0.58727 0.81247 0.43315 0.0
C3020 C 0.58993 0.82565 0.45033 0.0
C3021 C 0.57281 0.81754 0.4176 0.0
C3022 C 0.57779 0.84396 0.45186 0.0
C3023 C 0.56319 0.84901 0.43655 0.0
H3024 H 0.65371 0.08413 0.45459 0.0
H3025 H 0.70699 0.1111 0.42362 0.0
H3026 H 0.70593 0.08349 0.39765 0.0
H3027 H 0.69009 0.05173 0.38377 0.0
H3028 H 0.63654 0.02461 0.41416 0.0
H3029 H 0.63734 0.0524 0.44023 0.0
C3030 C 0.66494 0.08407 0.44204 0.0
C3031 C 0.68046 0.09961 0.44113 0.0
C3032 C 0.66421 0.06814 0.42708 0.0
C3033 C 0.69509 0.09915 0.4249 0.0
C3034 C 0.69443 0.08344 0.40996 0.0
C3035 C 0.67858 0.05187 0.3961 0.0
C3036 C 0.66333 0.03613 0.39709 0.0
C3037 C 0.67913 0.06782 0.41095 0.0
C3038 C 0.6485 0.03655 0.41311 0.0
C3039 C 0.64893 0.05243 0.428 0.0
H3040 H 0.45211 0.188 0.37632 0.0
H3041 H 0.47481 0.13249 0.40718 0.0
H3042 H 0.44905 0.13743 0.43479 0.0
H3043 H 0.42029 0.15787 0.45024 0.0
H3044 H 0.39757 0.21294 0.41855 0.0
H3045 H 0.42331 0.20789 0.39128 0.0
C3046 C 0.45147 0.17696 0.38909 0.0
C3047 C 0.46539 0.15993 0.38973 0.0
C3048 C 0.43666 0.17986 0.40479 0.0
C3049 C 0.46429 0.14575 0.40635 0.0
C3050 C 0.44956 0.14857 0.42212 0.0
C3051 C 0.42082 0.16865 0.43728 0.0
C3052 C 0.40702 0.18584 0.43657 0.0
C3053 C 0.43565 0.16558 0.4215 0.0
C3054 C 0.40818 0.19979 0.41974 0.0
C3055 C 0.42283 0.19685 0.40404 0.0
H3056 H 0.3355 0.91325 0.45464 0.0
H3057 H 0.29934 0.86869 0.41985 0.0
H3058 H 0.2997 0.89204 0.38968 0.0
H3059 H 0.31152 0.92476 0.37284 0.0
H3060 H 0.34646 0.9698 0.4086 0.0
H3061 H 0.34538 0.94672 0.43864 0.0
C3062 C 0.3277 0.90872 0.44043 0.0
C3063 C 0.31753 0.88927 0.43938 0.0
C3064 C 0.3278 0.9223 0.4233 0.0
C3065 C 0.30716 0.88366 0.42102 0.0
C3066 C 0.30747 0.89695 0.40376 0.0
C3067 C 0.3188 0.92954 0.38724 0.0
C3068 C 0.32913 0.94896 0.38839 0.0
C3069 C 0.31791 0.91626 0.40466 0.0
C3070 C 0.33834 0.95499 0.40724 0.0
C3071 C 0.33781 0.94176 0.42446 0.0
H3072 H 0.41707 0.86398 0.56089 0.0
H3073 H 0.39069 0.80674 0.58429 0.0
H3074 H 0.41313 0.80853 0.61493 0.0
H3075 H 0.4425 0.8245 0.63314 0.0
H3076 H 0.47103 0.8805 0.60873 0.0
H3077 H 0.44561 0.88124 0.58044 0.0
C3078 C 0.41603 0.85227 0.57302 0.0
C3079 C 0.40229 0.83534 0.57063 0.0
C3080 C 0.42957 0.85303 0.59016 0.0
C3081 C 0.40118 0.8199 0.58606 0.0
C3082 C 0.41405 0.82089 0.60344 0.0
C3083 C 0.44305 0.83699 0.62175 0.0
C3084 C 0.45871 0.85232 0.62294 0.0
C3085 C 0.42869 0.83707 0.60536 0.0
C3086 C 0.4592 0.86841 0.60807 0.0
C3087 C 0.44466 0.86886 0.5919 0.0
H3088 H 0.64848 0.91035 0.55367 0.0
H3089 H 0.69903 0.88165 0.58762 0.0
H3090 H 0.69782 0.90979 0.61307 0.0
H3091 H 0.68229 0.94218 0.62592 0.0
H3092 H 0.63157 0.97118 0.5925 0.0
H3093 H 0.63279 0.9431 0.56668 0.0
C3094 C 0.6591 0.91015 0.56672 0.0
C3095 C 0.67384 0.89386 0.56869 0.0
C3096 C 0.65827 0.92639 0.5814 0.0
C3097 C 0.68773 0.89409 0.58554 0.0
C3098 C 0.68696 0.91012 0.60019 0.0
C3099 C 0.67147 0.94241 0.613 0.0
C3100 C 0.65684 0.95875 0.61114 0.0
C3101 C 0.6723 0.92631 0.59827 0.0
C3102 C 0.643 0.95879 0.59427 0.0
C3103 C 0.64368 0.94274 0.57952 0.0
H3104 H 0.30924 0.10596 0.56822 0.0
H3105 H 0.37309 0.1037 0.54756 0.0
H3106 H 0.37951 0.07289 0.56931 0.0
H3107 H 0.36723 0.04772 0.5961 0.0
H3108 H 0.30301 0.05094 0.61622 0.0
H3109 H 0.29655 0.08004 0.59294 0.0
C3110 C 0.32453 0.09867 0.56848 0.0
C3111 C 0.34064 0.10712 0.55642 0.0
C3112 C 0.32809 0.08111 0.58104 0.0
C3113 C 0.36035 0.09736 0.5566 0.0
C3114 C 0.36406 0.07982 0.56914 0.0
C3115 C 0.35181 0.05468 0.59517 0.0
C3116 C 0.33573 0.04725 0.60805 0.0
C3117 C 0.3481 0.07168 0.58167 0.0
C3118 C 0.31579 0.05643 0.60667 0.0
C3119 C 0.31201 0.07313 0.59333 0.0
H3120 H 0.56409 0.59947 0.15456 0.0
H3121 H 0.54758 0.58484 0.21771 0.0
H3122 H 0.57524 0.55856 0.21915 0.0
H3123 H 0.60419 0.53999 0.20264 0.0
H3124 H 0.6207 0.55423 0.13933 0.0
H3125 H 0.59278 0.58031 0.13772 0.0
C3126 C 0.56634 0.59032 0.16853 0.0
C3127 C 0.55374 0.59411 0.18601 0.0
C3128 C 0.5823 0.57524 0.16924 0.0
C3129 C 0.55717 0.58239 0.20413 0.0
C3130 C 0.57294 0.56732 0.20494 0.0
C3131 C 0.60175 0.5488 0.18847 0.0
C3132 C 0.61459 0.54517 0.17115 0.0
C3133 C 0.58567 0.5637 0.18763 0.0
C3134 C 0.61107 0.55668 0.1529 0.0
C3135 C 0.5951 0.5716 0.15196 0.0
H3136 H 0.41168 0.54834 0.14288 0.0
H3137 H 0.39708 0.56501 0.20599 0.0
H3138 H 0.42519 0.59068 0.20604 0.0
H3139 H 0.45228 0.60995 0.18759 0.0
H3140 H 0.46767 0.59356 0.12464 0.0
H3141 H 0.44109 0.56593 0.12516 0.0
C3142 C 0.4149 0.5573 0.15675 0.0
C3143 C 0.4021 0.55493 0.17434 0.0
C3144 C 0.43113 0.57214 0.15666 0.0
C3145 C 0.40642 0.56682 0.19214 0.0
C3146 C 0.42253 0.58145 0.19221 0.0
C3147 C 0.44991 0.60026 0.17401 0.0
C3148 C 0.46174 0.60389 0.15604 0.0
C3149 C 0.43468 0.58454 0.17443 0.0
C3150 C 0.45871 0.59104 0.13866 0.0
C3151 C 0.44348 0.57531 0.13894 0.0
H3152 H 0.45594 0.41005 0.1686 0.0
H3153 H 0.41508 0.35906 0.18531 0.0
H3154 H 0.38486 0.38171 0.18158 0.0
H3155 H 0.36965 0.41557 0.17281 0.0
H3156 H 0.40969 0.46712 0.15588 0.0
H3157 H 0.44043 0.44475 0.16039 0.0
C3158 C 0.44042 0.40395 0.17141 0.0
C3159 C 0.43793 0.38287 0.17743 0.0
C3160 C 0.42287 0.41715 0.16915 0.0
C3161 C 0.41764 0.37525 0.1811 0.0
C3162 C 0.40025 0.38818 0.1788 0.0
C3163 C 0.38508 0.422 0.17015 0.0
C3164 C 0.38729 0.44301 0.16396 0.0
C3165 C 0.40265 0.4091 0.17278 0.0
C3166 C 0.40748 0.45101 0.16067 0.0
C3167 C 0.42509 0.4382 0.16321 0.0
H3168 H 0.58793 0.44643 0.18703 0.0
H3169 H 0.63432 0.42205 0.1453 0.0
H3170 H 0.61412 0.38967 0.1412 0.0
H3171 H 0.58363 0.36817 0.15033 0.0
H3172 H 0.53513 0.39416 0.18872 0.0
H3173 H 0.55584 0.42604 0.19376 0.0
C3174 C 0.59343 0.434 0.17698 0.0
C3175 C 0.6125 0.43635 0.16653 0.0
C3176 C 0.5815 0.41577 0.17438 0.0
C3177 C 0.61957 0.42043 0.15334 0.0
C3178 C 0.60813 0.40195 0.15114 0.0
C3179 C 0.57764 0.38084 0.15976 0.0
C3180 C 0.55807 0.37886 0.16933 0.0
C3181 C 0.58917 0.3994 0.16173 0.0
C3182 C 0.55026 0.39541 0.18133 0.0
C3183 C 0.56205 0.41359 0.18415 0.0
H3184 H 0.56047 0.42427 0.83591 0.0
H3185 H 0.57046 0.4079 0.77179 0.0
H3186 H 0.5974 0.43453 0.76894 0.0
H3187 H 0.61779 0.46302 0.78442 0.0
H3188 H 0.60891 0.47812 0.849 0.0
H3189 H 0.58219 0.45121 0.85192 0.0
C3190 C 0.5687 0.42627 0.82139 0.0
C3191 C 0.56315 0.41422 0.80406 0.0
C3192 C 0.58443 0.44144 0.81989 0.0
C3193 C 0.57397 0.41725 0.7853 0.0
C3194 C 0.58953 0.43241 0.78365 0.0
C3195 C 0.60999 0.46041 0.79911 0.0
C3196 C 0.61523 0.47263 0.81638 0.0
C3197 C 0.59474 0.44475 0.80078 0.0
C3198 C 0.60517 0.46892 0.83541 0.0
C3199 C 0.58985 0.45354 0.83713 0.0
H3200 H 0.58756 0.56197 0.83584 0.0
H3201 H 0.60479 0.58633 0.77575 0.0
H3202 H 0.57438 0.6093 0.77622 0.0
H3203 H 0.54367 0.62372 0.79444 0.0
H3204 H 0.52869 0.60101 0.85566 0.0
H3205 H 0.5578 0.57646 0.8541 0.0
C3206 C 0.58505 0.57242 0.82288 0.0
C3207 C 0.59883 0.57235 0.80586 0.0
C3208 C 0.56788 0.58603 0.82349 0.0
C3209 C 0.59455 0.58577 0.78905 0.0
C3210 C 0.57717 0.59907 0.78934 0.0
C3211 C 0.54672 0.61328 0.80736 0.0
C3212 C 0.53402 0.61415 0.82512 0.0
C3213 C 0.56382 0.59946 0.80656 0.0
C3214 C 0.53827 0.6007 0.84184 0.0
C3215 C 0.55491 0.58663 0.84095 0.0
H3216 H 0.4392 0.58689 0.85861 0.0
H3217 H 0.40725 0.61439 0.80635 0.0
H3218 H 0.37948 0.58859 0.8095 0.0
H3219 H 0.36437 0.55818 0.82667 0.0
H3220 H 0.39577 0.53002 0.87887 0.0
H3221 H 0.42351 0.55637 0.87639 0.0
C3222 C 0.42607 0.58736 0.84804 0.0
C3223 C 0.42542 0.60257 0.83218 0.0
C3224 C 0.41004 0.57241 0.84996 0.0
C3225 C 0.40839 0.60272 0.81846 0.0
C3226 C 0.3924 0.58804 0.82034 0.0
C3227 C 0.37722 0.5578 0.83761 0.0
C3228 C 0.37799 0.54216 0.85295 0.0
C3229 C 0.3931 0.57279 0.83596 0.0
C3230 C 0.3948 0.54192 0.86693 0.0
C3231 C 0.41067 0.55695 0.86548 0.0
H3232 H 0.39104 0.43672 0.79437 0.0
H3233 H 0.41427 0.46831 0.84871 0.0
H3234 H 0.44288 0.44319 0.85127 0.0
H3235 H 0.46116 0.41185 0.83831 0.0
H3236 H 0.43837 0.38114 0.78325 0.0
H3237 H 0.40989 0.40634 0.78072 0.0
C3238 C 0.40252 0.43835 0.80658 0.0
C3239 C 0.40037 0.45438 0.82136 0.0
C3240 C 0.419 0.42388 0.80794 0.0
C3241 C 0.41531 0.45597 0.83727 0.0
C3242 C 0.43174 0.44163 0.83873 0.0
C3243 C 0.44991 0.41064 0.82581 0.0
C3244 C 0.45189 0.39457 0.81104 0.0
C3245 C 0.43364 0.42538 0.82426 0.0
C3246 C 0.43728 0.39335 0.79483 0.0
C3247 C 0.42096 0.40778 0.79334 0.0
H3248 H 0.65964 0.56957 0.09873 0.0
H3249 H 0.7258 0.55862 0.09173 0.0
H3250 H 0.7272 0.58387 0.06364 0.0
H3251 H 0.70993 0.60927 0.04093 0.0
H3252 H 0.64358 0.61941 0.04665 0.0
H3253 H 0.64203 0.59422 0.07503 0.0
C3254 C 0.67434 0.57253 0.09098 0.0
C3255 C 0.6926 0.56221 0.0977 0.0
C3256 C 0.67506 0.587 0.07448 0.0
C3257 C 0.71151 0.56652 0.0874 0.0
C3258 C 0.71234 0.58091 0.07113 0.0
C3259 C 0.6951 0.60599 0.04833 0.0
C3260 C 0.67695 0.61645 0.04166 0.0
C3261 C 0.69425 0.59132 0.06458 0.0
C3262 C 0.65787 0.61179 0.05145 0.0
C3263 C 0.65694 0.59732 0.06773 0.0
H3264 H 0.44232 0.6417 0.09092 0.0
H3265 H 0.42633 0.70502 0.10764 0.0
H3266 H 0.3968 0.70441 0.08365 0.0
H3267 H 0.37634 0.6863 0.05719 0.0
H3268 H 0.39311 0.62351 0.03899 0.0
H3269 H 0.42153 0.62336 0.06435 0.0
C3270 C 0.43217 0.65521 0.08942 0.0
C3271 C 0.43637 0.67337 0.10097 0.0
C3272 C 0.41551 0.65486 0.0753 0.0
C3273 C 0.4234 0.69096 0.09874 0.0
C3274 C 0.40654 0.69059 0.08509 0.0
C3275 C 0.38614 0.67254 0.05885 0.0
C3276 C 0.38268 0.65494 0.04629 0.0
C3277 C 0.40258 0.67271 0.07316 0.0
C3278 C 0.39557 0.63728 0.04846 0.0
C3279 C 0.41178 0.63717 0.06296 0.0
H3280 H 0.35819 0.44785 0.07649 0.0
H3281 H 0.31448 0.40972 0.11044 0.0
H3282 H 0.32031 0.38066 0.08671 0.0
H3283 H 0.33611 0.36678 0.05562 0.0
H3284 H 0.37879 0.40439 0.01975 0.0
H3285 H 0.37532 0.43298 0.04501 0.0
C3286 C 0.35019 0.43306 0.07869 0.0
C3287 C 0.33579 0.43089 0.09503 0.0
C3288 C 0.35336 0.41646 0.06466 0.0
C3289 C 0.32537 0.41177 0.09778 0.0
C3290 C 0.32875 0.39517 0.08427 0.0
C3291 C 0.3448 0.38117 0.05328 0.0
C3292 C 0.35761 0.38351 0.03576 0.0
C3293 C 0.34242 0.39746 0.06751 0.0
C3294 C 0.36879 0.40223 0.03311 0.0
C3295 C 0.36676 0.41857 0.04752 0.0
H3296 H 0.5555 0.31899 0.067 0.0
H3297 H 0.58347 0.35283 0.11746 0.0
H3298 H 0.61351 0.36165 0.09575 0.0
H3299 H 0.63254 0.35828 0.06283 0.0
H3300 H 0.60375 0.3266 0.01133 0.0
H3301 H 0.57327 0.31834 0.03286 0.0
C3302 C 0.56817 0.32837 0.07312 0.0
C3303 C 0.56742 0.33518 0.09384 0.0
C3304 C 0.58523 0.33362 0.06037 0.0
C3305 C 0.58372 0.34758 0.10156 0.0
C3306 C 0.60092 0.35248 0.08918 0.0
C3307 C 0.61954 0.3496 0.05634 0.0
C3308 C 0.62044 0.34278 0.03566 0.0
C3309 C 0.60196 0.34537 0.06865 0.0
C3310 C 0.60338 0.33194 0.02725 0.0
C3311 C 0.58601 0.32718 0.03957 0.0
H3312 H 0.64232 0.41921 0.95109 0.0
H3313 H 0.70494 0.39486 0.9452 0.0
H3314 H 0.71349 0.42208 0.92032 0.0
H3315 H 0.70296 0.45167 0.89889 0.0
H3316 H 0.64064 0.47666 0.90436 0.0
H3317 H 0.63222 0.45033 0.93047 0.0
C3318 C 0.65785 0.42002 0.94446 0.0
C3319 C 0.67289 0.40496 0.94992 0.0
C3320 C 0.66272 0.43572 0.92991 0.0
C3321 C 0.69297 0.40616 0.94118 0.0
C3322 C 0.69794 0.42174 0.92693 0.0
C3323 C 0.68763 0.45159 0.90598 0.0
C3324 C 0.67247 0.46606 0.8995 0.0
C3325 C 0.68289 0.43645 0.921 0.0
C3326 C 0.65255 0.46548 0.90873 0.0
C3327 C 0.64773 0.45049 0.92379 0.0
H3328 H 0.59712 0.64258 0.96228 0.0
H3329 H 0.62336 0.70377 0.95088 0.0
H3330 H 0.59659 0.71088 0.9251 0.0
H3331 H 0.56593 0.69983 0.90545 0.0
H3332 H 0.53915 0.63891 0.91659 0.0
H3333 H 0.56597 0.63154 0.94246 0.0
C3334 C 0.59691 0.65747 0.95419 0.0
C3335 C 0.61222 0.6726 0.95856 0.0
C3336 C 0.58143 0.6615 0.93919 0.0
C3337 C 0.6118 0.6918 0.94785 0.0
C3338 C 0.59648 0.69592 0.93306 0.0
C3339 C 0.56582 0.68502 0.91365 0.0
C3340 C 0.55049 0.67 0.90901 0.0
C3341 C 0.58122 0.68091 0.92859 0.0
C3342 C 0.55088 0.6507 0.91959 0.0
C3343 C 0.56616 0.6465 0.93453 0.0
H3344 H 0.33724 0.56326 0.90743 0.0
H3345 H 0.27077 0.55341 0.91209 0.0
H3346 H 0.26802 0.58242 0.9365 0.0
H3347 H 0.28477 0.60959 0.95776 0.0
H3348 H 0.35127 0.61936 0.95262 0.0
H3349 H 0.35357 0.5917 0.9268 0.0
C3350 C 0.32207 0.56762 0.91345 0.0
C3351 C 0.30427 0.55598 0.90796 0.0
C3352 C 0.32058 0.58436 0.92744 0.0
C3353 C 0.28481 0.5618 0.91627 0.0
C3354 C 0.28319 0.57849 0.93017 0.0
C3355 C 0.29973 0.60583 0.95084 0.0
C3356 C 0.31782 0.61648 0.95728 0.0
C3357 C 0.30102 0.58971 0.93607 0.0
C3358 C 0.33708 0.61137 0.9481 0.0
C3359 C 0.33844 0.59551 0.93332 0.0
H3360 H 0.43831 0.30128 0.88809 0.0
H3361 H 0.44818 0.36763 0.89615 0.0
H3362 H 0.41958 0.36905 0.92099 0.0
H3363 H 0.39353 0.35104 0.94239 0.0
H3364 H 0.38473 0.28436 0.93556 0.0
H3365 H 0.41112 0.28353 0.9083 0.0
C3366 C 0.43431 0.31604 0.89532 0.0
C3367 C 0.4456 0.33427 0.8903 0.0
C3368 C 0.41801 0.3167 0.90988 0.0
C3369 C 0.43976 0.35336 0.89953 0.0
C3370 C 0.42344 0.35417 0.91386 0.0
C3371 C 0.39716 0.33635 0.93477 0.0
C3372 C 0.38723 0.31776 0.94116 0.0
C3373 C 0.41267 0.33589 0.91939 0.0
C3374 C 0.39219 0.29889 0.93107 0.0
C3375 C 0.40734 0.29839 0.9155 0.0
H3376 H 0.58145 0.64874 0.12809 0.0
H3377 H 0.52917 0.68613 0.10771 0.0
H3378 H 0.54951 0.69879 0.07821 0.0
H3379 H 0.58175 0.6978 0.05717 0.0
H3380 H 0.6328 0.65848 0.07652 0.0
H3381 H 0.61351 0.64811 0.10756 0.0
C3382 C 0.57456 0.65981 0.11731 0.0
C3383 C 0.55387 0.66648 0.12008 0.0
C3384 C 0.58616 0.66665 0.10018 0.0
C3385 C 0.54507 0.68066 0.10584 0.0
C3386 C 0.55669 0.68794 0.089 0.0
C3387 C 0.58864 0.68723 0.06841 0.0
C3388 C 0.60857 0.67892 0.06476 0.0
C3389 C 0.57718 0.68088 0.08589 0.0
C3390 C 0.61739 0.66495 0.07913 0.0
C3391 C 0.60639 0.65904 0.09681 0.0
H3392 H 0.59842 0.37132 0.9315 0.0
H3393 H 0.60965 0.30705 0.91412 0.0
H3394 H 0.58074 0.30844 0.8897 0.0
H3395 H 0.55352 0.32806 0.87212 0.0
H3396 H 0.5412 0.39228 0.88871 0.0
H3397 H 0.56912 0.39074 0.91483 0.0
C3398 C 0.59431 0.35756 0.92257 0.0
C3399 C 0.60636 0.33913 0.92448 0.0
C3400 C 0.57758 0.35851 0.90838 0.0
C3401 C 0.60091 0.32149 0.91269 0.0
C3402 C 0.58433 0.32226 0.89876 0.0
C3403 C 0.55687 0.34178 0.88144 0.0
C3404 C 0.54545 0.36033 0.87834 0.0
C3405 C 0.57281 0.34074 0.89625 0.0
C3406 C 0.54981 0.37782 0.89079 0.0
C3407 C 0.56579 0.37694 0.90567 0.0
H3408 H 0.68781 0.57504 0.86835 0.0
H3409 H 0.62883 0.55173 0.891 0.0
H3410 H 0.63024 0.57611 0.92001 0.0
H3411 H 0.64905 0.60267 0.93985 0.0
H3412 H 0.70779 0.62637 0.91706 0.0
H3413 H 0.70575 0.60298 0.88732 0.0
C3414 C 0.6752 0.57541 0.87956 0.0
C3415 C 0.65831 0.56157 0.87761 0.0
C3416 C 0.67615 0.58936 0.89628 0.0
C3417 C 0.64206 0.56221 0.89221 0.0
C3418 C 0.64285 0.57612 0.90882 0.0
C3419 C 0.66126 0.60298 0.92825 0.0
C3420 C 0.67861 0.61617 0.9308 0.0
C3421 C 0.65994 0.58958 0.91113 0.0
C3422 C 0.69444 0.6161 0.91571 0.0
C3423 C 0.69323 0.60283 0.89861 0.0
H3424 H 0.40717 0.65015 0.95882 0.0
H3425 H 0.39229 0.71311 0.93938 0.0
H3426 H 0.41771 0.71054 0.91137 0.0
H3427 H 0.4433 0.69021 0.89191 0.0
H3428 H 0.45834 0.62712 0.91081 0.0
H3429 H 0.43348 0.62985 0.93954 0.0
C3430 C 0.40938 0.66325 0.94836 0.0
C3431 C 0.39777 0.68178 0.95113 0.0
C3432 C 0.42397 0.66161 0.93223 0.0
C3433 C 0.40115 0.69877 0.93771 0.0
C3434 C 0.41559 0.69726 0.92162 0.0
C3435 C 0.44117 0.67702 0.90231 0.0
C3436 C 0.45255 0.65845 0.89921 0.0
C3437 C 0.42696 0.67873 0.91868 0.0
C3438 C 0.44974 0.64158 0.9129 0.0
C3439 C 0.43553 0.64314 0.92928 0.0
H3440 H 0.31447 0.45676 0.90156 0.0
H3441 H 0.35004 0.41433 0.86317 0.0
H3442 H 0.34721 0.38716 0.88932 0.0
H3443 H 0.3361 0.37563 0.92359 0.0
H3444 H 0.30031 0.41693 0.96251 0.0
H3445 H 0.30138 0.44415 0.93561 0.0
C3446 C 0.32151 0.44154 0.89892 0.0
C3447 C 0.33255 0.43771 0.88042 0.0
C3448 C 0.31973 0.42573 0.9141 0.0
C3449 C 0.34143 0.41781 0.87719 0.0
C3450 C 0.33987 0.40219 0.89217 0.0
C3451 C 0.32849 0.39058 0.92613 0.0
C3452 C 0.31832 0.39437 0.94501 0.0
C3453 C 0.32927 0.40604 0.91073 0.0
C3454 C 0.30815 0.41364 0.94802 0.0
C3455 C 0.30891 0.42924 0.93272 0.0
H3456 H 0.45038 0.31205 0.11929 0.0
H3457 H 0.48214 0.36555 0.09319 0.0
H3458 H 0.45931 0.36461 0.06305 0.0
H3459 H 0.43161 0.34754 0.0432 0.0
H3460 H 0.39893 0.29477 0.06878 0.0
H3461 H 0.42059 0.29648 0.10028 0.0
C3462 C 0.45221 0.32351 0.10701 0.0
C3463 C 0.46802 0.33871 0.10833 0.0
C3464 C 0.43887 0.323 0.08973 0.0
C3465 C 0.47011 0.35366 0.09249 0.0
C3466 C 0.45709 0.35314 0.07524 0.0
C3467 C 0.42923 0.33659 0.05584 0.0
C3468 C 0.41404 0.32096 0.0539 0.0
C3469 C 0.44163 0.33775 0.0736 0.0
C3470 C 0.41066 0.30688 0.07021 0.0
C3471 C 0.42307 0.30783 0.08804 0.0
H3472 H 0.70575 0.41608 0.06007 0.0
H3473 H 0.64077 0.41495 0.04209 0.0
H3474 H 0.63291 0.44142 0.06797 0.0
H3475 H 0.64421 0.46427 0.09671 0.0
H3476 H 0.70864 0.46306 0.1161 0.0
H3477 H 0.71683 0.43789 0.08886 0.0
C3478 C 0.68979 0.42132 0.06178 0.0
C3479 C 0.67398 0.41324 0.04889 0.0
C3480 C 0.68521 0.4362 0.0771 0.0
C3481 C 0.65346 0.42083 0.05142 0.0
C3482 C 0.64886 0.43597 0.0664 0.0
C3483 C 0.66005 0.45856 0.09484 0.0
C3484 C 0.67582 0.46553 0.10832 0.0
C3485 C 0.66459 0.44371 0.0794 0.0
C3486 C 0.69622 0.45786 0.10594 0.0
C3487 C 0.70093 0.44349 0.09036 0.0
H3488 H 0.31112 0.54545 0.11654 0.0
H3489 H 0.36979 0.52752 0.08888 0.0
H3490 H 0.3652 0.55438 0.06212 0.0
H3491 H 0.34476 0.58329 0.04717 0.0
H3492 H 0.28686 0.60186 0.07615 0.0
H3493 H 0.29073 0.57398 0.10157 0.0
C3494 C 0.32291 0.54733 0.10463 0.0
C3495 C 0.3408 0.53453 0.10471 0.0
C3496 C 0.32025 0.56283 0.08948 0.0
C3497 C 0.35589 0.53719 0.08916 0.0
C3498 C 0.35327 0.55254 0.07388 0.0
C3499 C 0.33304 0.58142 0.05911 0.0
C3500 C 0.31556 0.59486 0.05969 0.0
C3501 C 0.33557 0.56555 0.074 0.0
C3502 C 0.30034 0.59172 0.07508 0.0
C3503 C 0.30262 0.57584 0.08977 0.0
loop_
_geom_bond_atom_site_label_1
_geom_bond_atom_site_label_2
_geom_bond_distance
_geom_bond_site_symmetry_2
_ccdc_geom_bond_type
Co0 N4 2.122 1_455 S
Co0 N10 2.157 . S
Co0 N20 2.191 1_455 S
Co0 O25 2.318 1_455 S
Co0 O26 2.136 1_455 S
Co0 O27 2.122 . S
C1 N4 1.301 . S
C1 N5 1.328 . S
C1 H6 0.930 . S
C2 C3 1.333 . S
C2 N4 1.317 . S
C2 H7 0.930 . S
C3 C2 1.333 . S
C3 N5 1.350 . S
C3 H29 0.931 . S
N4 Co0 2.122 1_655 S
N4 C1 1.301 . S
N4 C2 1.317 . S
N5 C1 1.328 . S
N5 C3 1.350 . S
H6 C1 0.930 . S
H7 C2 0.930 . S
C8 O9 1.224 . S
C8 O27 1.247 . S
O9 C8 1.224 . S
N10 Co0 2.157 . S
N10 C11 1.355 . S
N10 C13 1.311 . S
C11 N10 1.355 . S
C11 C12 1.363 . S
C11 H23 0.929 . S
C12 C11 1.363 . S
C12 N14 1.375 . S
C12 H30 0.931 . S
C13 N10 1.311 . S
C13 N14 1.347 . S
C13 H24 0.929 . S
N14 C12 1.375 . S
N14 C13 1.347 . S
C15 C18 1.365 . S
C15 N20 1.357 . S
C15 H21 0.929 . S
C16 C17 1.362 . S
C16 C19 1.378 . S
C16 H31 0.929 . S
C17 C16 1.362 . S
C17 C18 1.366 1_455 S
C18 C15 1.365 . S
C18 C17 1.366 1_655 S
C18 H32 0.930 . S
C19 C16 1.378 . S
C19 N20 1.287 1_455 S
C19 H22 0.930 . S
N20 Co0 2.191 1_655 S
N20 C15 1.357 . S
N20 C19 1.287 1_655 S
H21 C15 0.929 . S
H22 C19 0.930 . S
H23 C11 0.929 . S
H24 C13 0.929 . S
O25 Co0 2.318 1_655 S
O25 C28 1.244 . S
O26 Co0 2.136 1_655 S
O26 C28 1.240 . S
O27 Co0 2.122 . S
O27 C8 1.247 . S
C28 O25 1.244 . S
C28 O26 1.240 . S
H29 C3 0.931 . S
H30 C12 0.931 . S
H31 C16 0.929 . S
H32 C18 0.930 . S
Co33 N37 2.148 . S
Co33 N43 2.128 1_545 S
Co33 N53 2.194 . S
Co33 O58 2.351 . S
Co33 O59 2.155 . S
Co33 O60 2.096 1_545 S
C34 N37 1.301 . S
C34 N38 1.328 . S
C34 H39 0.930 . S
C35 C36 1.333 . S
C35 N37 1.317 . S
C35 H40 0.930 . S
C36 C35 1.333 . S
C36 N38 1.350 . S
C36 H62 0.931 . S
N37 Co33 2.148 . S
N37 C34 1.301 . S
N37 C35 1.317 . S
N38 C34 1.328 . S
N38 C36 1.350 . S
H39 C34 0.930 . S
H40 C35 0.930 . S
C41 O42 1.224 . S
C41 O60 1.247 . S
O42 C41 1.224 . S
N43 Co33 2.128 1_565 S
N43 C44 1.355 . S
N43 C46 1.311 . S
C44 N43 1.355 . S
C44 C45 1.363 . S
C44 H56 0.929 . S
C45 C44 1.363 . S
C45 N47 1.375 . S
C45 H63 0.931 . S
C46 N43 1.311 . S
C46 N47 1.347 . S
C46 H57 0.929 . S
N47 C45 1.375 . S
N47 C46 1.347 . S
C48 C51 1.365 . S
C48 N53 1.328 . S
C48 H54 0.929 . S
C49 C50 1.362 1_565 S
C49 C52 1.378 . S
C49 H64 0.929 . S
C50 C49 1.362 1_545 S
C50 C51 1.366 . S
C51 C48 1.365 . S
C51 C50 1.366 . S
C51 H65 0.930 . S
C52 C49 1.378 . S
C52 N53 1.315 1_565 S
C52 H55 0.930 . S
N53 Co33 2.194 . S
N53 C48 1.328 . S
N53 C52 1.315 1_545 S
H54 C48 0.929 . S
H55 C52 0.930 . S
H56 C44 0.929 . S
H57 C46 0.929 . S
O58 Co33 2.351 . S
O58 C61 1.244 . S
O59 Co33 2.155 . S
O59 C61 1.240 . S
O60 Co33 2.096 1_565 S
O60 C41 1.247 . S
C61 O58 1.244 . S
C61 O59 1.240 . S
H62 C36 0.931 . S
H63 C45 0.931 . S
H64 C49 0.929 . S
H65 C51 0.930 . S
Co66 N70 2.148 . S
Co66 N76 2.128 1_655 S
Co66 N86 2.194 . S
Co66 O91 2.351 . S
Co66 O92 2.155 . S
Co66 O93 2.096 1_655 S
C67 N70 1.301 . S
C67 N71 1.328 . S
C67 H72 0.930 . S
C68 C69 1.333 . S
C68 N70 1.317 . S
C68 H73 0.930 . S
C69 C68 1.333 . S
C69 N71 1.350 . S
C69 H95 0.931 . S
N70 Co66 2.148 . S
N70 C67 1.301 . S
N70 C68 1.317 . S
N71 C67 1.328 . S
N71 C69 1.350 . S
H72 C67 0.930 . S
H73 C68 0.930 . S
C74 O75 1.224 . S
C74 O93 1.247 . S
O75 C74 1.224 . S
N76 Co66 2.128 1_455 S
N76 C77 1.355 . S
N76 C79 1.311 . S
C77 N76 1.355 . S
C77 C78 1.363 . S
C77 H89 0.929 . S
C78 C77 1.363 . S
C78 N80 1.375 . S
C78 H96 0.931 . S
C79 N76 1.311 . S
C79 N80 1.347 . S
C79 H90 0.929 . S
N80 C78 1.375 . S
N80 C79 1.347 . S
C81 C84 1.365 . S
C81 N86 1.328 . S
C81 H87 0.929 . S
C82 C83 1.362 1_455 S
C82 C85 1.378 . S
C82 H97 0.929 . S
C83 C82 1.362 1_655 S
C83 C84 1.366 . S
C84 C81 1.365 . S
C84 C83 1.366 . S
C84 H98 0.930 . S
C85 C82 1.378 . S
C85 N86 1.315 1_455 S
C85 H88 0.930 . S
N86 Co66 2.194 . S
N86 C81 1.328 . S
N86 C85 1.315 1_655 S
H87 C81 0.929 . S
H88 C85 0.930 . S
H89 C77 0.929 . S
H90 C79 0.929 . S
O91 Co66 2.351 . S
O91 C94 1.244 . S
O92 Co66 2.155 . S
O92 C94 1.240 . S
O93 Co66 2.096 1_455 S
O93 C74 1.247 . S
C94 O91 1.244 . S
C94 O92 1.240 . S
H95 C69 0.931 . S
H96 C78 0.931 . S
H97 C82 0.929 . S
H98 C84 0.930 . S
Co99 N103 2.166 . S
Co99 N109 2.109 1_565 S
Co99 N119 2.195 . S
Co99 O124 2.374 . S
Co99 O125 2.168 . S
Co99 O126 2.077 1_565 S
C100 N103 1.301 . S
C100 N104 1.328 . S
C100 H105 0.930 . S
C101 C102 1.333 . S
C101 N103 1.317 . S
C101 H106 0.930 . S
C102 C101 1.333 . S
C102 N104 1.350 . S
C102 H128 0.931 . S
N103 Co99 2.166 . S
N103 C100 1.301 . S
N103 C101 1.317 . S
N104 C100 1.328 . S
N104 C102 1.350 . S
H105 C100 0.930 . S
H106 C101 0.930 . S
C107 O108 1.224 . S
C107 O126 1.247 . S
O108 C107 1.224 . S
N109 Co99 2.109 1_545 S
N109 C110 1.355 . S
N109 C112 1.311 . S
C110 N109 1.355 . S
C110 C111 1.363 . S
C110 H122 0.929 . S
C111 C110 1.363 . S
C111 N113 1.375 . S
C111 H129 0.931 . S
C112 N109 1.311 . S
C112 N113 1.347 . S
C112 H123 0.929 . S
N113 C111 1.375 . S
N113 C112 1.347 . S
C114 C117 1.365 . S
C114 N119 1.328 . S
C114 H120 0.929 . S
C115 C116 1.342 1_545 S
C115 C118 1.378 . S
C115 H130 0.929 . S
C116 C115 1.342 1_565 S
C116 C117 1.389 . S
C117 C114 1.365 . S
C117 C116 1.389 . S
C117 H131 0.930 . S
C118 C115 1.378 . S
C118 N119 1.315 1_545 S
C118 H121 0.930 . S
N119 Co99 2.195 . S
N119 C114 1.328 . S
N119 C118 1.315 1_565 S
H120 C114 0.929 . S
H121 C118 0.930 . S
H122 C110 0.929 . S
H123 C112 0.929 . S
O124 Co99 2.374 . S
O124 C127 1.244 . S
O125 Co99 2.168 . S
O125 C127 1.240 . S
O126 Co99 2.077 1_545 S
O126 C107 1.247 . S
C127 O124 1.244 . S
C127 O125 1.240 . S
H128 C102 0.931 . S
H129 C111 0.931 . S
H130 C115 0.929 . S
H131 C117 0.930 . S
Co132 N136 2.148 . S
Co132 N142 2.128 1_455 S
Co132 N152 2.194 . S
Co132 O157 2.351 . S
Co132 O158 2.155 . S
Co132 O159 2.096 1_455 S
C133 N136 1.301 . S
C133 N137 1.328 . S
C133 H138 0.930 . S
C134 C135 1.333 . S
C134 N136 1.317 . S
C134 H139 0.930 . S
C135 C134 1.333 . S
C135 N137 1.350 . S
C135 H161 0.931 . S
N136 Co132 2.148 . S
N136 C133 1.301 . S
N136 C134 1.317 . S
N137 C133 1.328 . S
N137 C135 1.350 . S
H138 C133 0.930 . S
H139 C134 0.930 . S
C140 O141 1.224 . S
C140 O159 1.247 . S
O141 C140 1.224 . S
N142 Co132 2.128 1_655 S
N142 C143 1.355 . S
N142 C145 1.311 . S
C143 N142 1.355 . S
C143 C144 1.363 . S
C143 H155 0.929 . S
C144 C143 1.363 . S
C144 N146 1.375 . S
C144 H162 0.931 . S
C145 N142 1.311 . S
C145 N146 1.347 . S
C145 H156 0.929 . S
N146 C144 1.375 . S
N146 C145 1.347 . S
C147 C150 1.365 . S
C147 N152 1.328 . S
C147 H153 0.929 . S
C148 C149 1.362 1_655 S
C148 C151 1.378 . S
C148 H163 0.929 . S
C149 C148 1.362 1_455 S
C149 C150 1.366 . S
C150 C147 1.365 . S
C150 C149 1.366 . S
C150 H164 0.930 . S
C151 C148 1.378 . S
C151 N152 1.315 1_655 S
C151 H154 0.930 . S
N152 Co132 2.194 . S
N152 C147 1.328 . S
N152 C151 1.315 1_455 S
H153 C147 0.929 . S
H154 C151 0.930 . S
H155 C143 0.929 . S
H156 C145 0.929 . S
O157 Co132 2.351 . S
O157 C160 1.244 . S
O158 Co132 2.155 . S
O158 C160 1.240 . S
O159 Co132 2.096 1_655 S
O159 C140 1.247 . S
C160 O157 1.244 . S
C160 O158 1.240 . S
H161 C135 0.931 . S
H162 C144 0.931 . S
H163 C148 0.929 . S
H164 C150 0.930 . S
Co165 N169 2.148 . S
Co165 N175 2.128 1_545 S
Co165 N185 2.194 . S
Co165 O190 2.351 . S
Co165 O191 2.155 . S
Co165 O192 2.096 1_545 S
C166 N169 1.301 . S
C166 N170 1.328 . S
C166 H171 0.930 . S
C167 C168 1.333 . S
C167 N169 1.317 . S
C167 H172 0.930 . S
C168 C167 1.333 . S
C168 N170 1.350 . S
C168 H194 0.931 . S
N169 Co165 2.148 . S
N169 C166 1.301 . S
N169 C167 1.317 . S
N170 C166 1.328 . S
N170 C168 1.350 . S
H171 C166 0.930 . S
H172 C167 0.930 . S
C173 O174 1.224 . S
C173 O192 1.247 . S
O174 C173 1.224 . S
N175 Co165 2.128 1_565 S
N175 C176 1.355 . S
N175 C178 1.311 . S
C176 N175 1.355 . S
C176 C177 1.363 . S
C176 H188 0.929 . S
C177 C176 1.363 . S
C177 N179 1.375 . S
C177 H195 0.931 . S
C178 N175 1.311 . S
C178 N179 1.347 . S
C178 H189 0.929 . S
N179 C177 1.375 . S
N179 C178 1.347 . S
C180 C183 1.365 . S
C180 N185 1.328 . S
C180 H186 0.929 . S
C181 C182 1.362 1_565 S
C181 C184 1.378 . S
C181 H196 0.929 . S
C182 C181 1.362 1_545 S
C182 C183 1.366 . S
C183 C180 1.365 . S
C183 C182 1.366 . S
C183 H197 0.930 . S
C184 C181 1.378 . S
C184 N185 1.315 1_565 S
C184 H187 0.930 . S
N185 Co165 2.194 . S
N185 C180 1.328 . S
N185 C184 1.315 1_545 S
H186 C180 0.929 . S
H187 C184 0.930 . S
H188 C176 0.929 . S
H189 C178 0.929 . S
O190 Co165 2.351 . S
O190 C193 1.244 . S
O191 Co165 2.155 . S
O191 C193 1.240 . S
O192 Co165 2.096 1_565 S
O192 C173 1.247 . S
C193 O190 1.244 . S
C193 O191 1.240 . S
H194 C168 0.931 . S
H195 C177 0.931 . S
H196 C181 0.929 . S
H197 C183 0.930 . S
Co198 N202 2.122 1_455 S
Co198 N208 2.156 . S
Co198 N218 2.191 1_455 S
Co198 O223 2.319 1_455 S
Co198 O224 2.136 1_455 S
Co198 O225 2.121 . S
C199 N202 1.301 . S
C199 N203 1.328 . S
C199 H204 0.930 . S
C200 C201 1.333 . S
C200 N202 1.317 . S
C200 H205 0.930 . S
C201 C200 1.333 . S
C201 N203 1.350 . S
C201 H227 0.931 . S
N202 Co198 2.122 1_655 S
N202 C199 1.301 . S
N202 C200 1.317 . S
N203 C199 1.328 . S
N203 C201 1.350 . S
H204 C199 0.930 . S
H205 C200 0.930 . S
C206 O207 1.224 . S
C206 O225 1.247 . S
O207 C206 1.224 . S
N208 Co198 2.156 . S
N208 C209 1.355 . S
N208 C211 1.311 . S
C209 N208 1.355 . S
C209 C210 1.363 . S
C209 H221 0.929 . S
C210 C209 1.363 . S
C210 N212 1.375 . S
C210 H228 0.931 . S
C211 N208 1.311 . S
C211 N212 1.347 . S
C211 H222 0.929 . S
N212 C210 1.375 . S
N212 C211 1.347 . S
C213 C216 1.365 . S
C213 N218 1.362 . S
C213 H219 0.929 . S
C214 C215 1.396 . S
C214 C217 1.378 . S
C214 H229 0.929 . S
C215 C214 1.396 . S
C215 C216 1.330 1_455 S
C216 C213 1.365 . S
C216 C215 1.330 1_655 S
C216 H230 0.930 . S
C217 C214 1.378 . S
C217 N218 1.282 1_455 S
C217 H220 0.930 . S
N218 Co198 2.191 1_655 S
N218 C213 1.362 . S
N218 C217 1.282 1_655 S
H219 C213 0.929 . S
H220 C217 0.930 . S
H221 C209 0.929 . S
H222 C211 0.929 . S
O223 Co198 2.319 1_655 S
O223 C226 1.244 . S
O224 Co198 2.136 1_655 S
O224 C226 1.240 . S
O225 Co198 2.121 . S
O225 C206 1.247 . S
C226 O223 1.244 . S
C226 O224 1.240 . S
H227 C201 0.931 . S
H228 C210 0.931 . S
H229 C214 0.929 . S
H230 C216 0.930 . S
Co231 N235 2.148 . S
Co231 N241 2.128 1_545 S
Co231 N251 2.194 . S
Co231 O256 2.351 . S
Co231 O257 2.155 . S
Co231 O258 2.096 1_545 S
C232 N235 1.301 . S
C232 N236 1.328 . S
C232 H237 0.930 . S
C233 C234 1.333 . S
C233 N235 1.317 . S
C233 H238 0.930 . S
C234 C233 1.333 . S
C234 N236 1.350 . S
C234 H260 0.931 . S
N235 Co231 2.148 . S
N235 C232 1.301 . S
N235 C233 1.317 . S
N236 C232 1.328 . S
N236 C234 1.350 . S
H237 C232 0.930 . S
H238 C233 0.930 . S
C239 O240 1.224 . S
C239 O258 1.247 . S
O240 C239 1.224 . S
N241 Co231 2.128 1_565 S
N241 C242 1.355 . S
N241 C244 1.311 . S
C242 N241 1.355 . S
C242 C243 1.363 . S
C242 H254 0.929 . S
C243 C242 1.363 . S
C243 N245 1.375 . S
C243 H261 0.931 . S
C244 N241 1.311 . S
C244 N245 1.347 . S
C244 H255 0.929 . S
N245 C243 1.375 . S
N245 C244 1.347 . S
C246 C249 1.365 . S
C246 N251 1.328 . S
C246 H252 0.929 . S
C247 C248 1.362 1_565 S
C247 C250 1.378 . S
C247 H262 0.929 . S
C248 C247 1.362 1_545 S
C248 C249 1.366 . S
C249 C246 1.365 . S
C249 C248 1.366 . S
C249 H263 0.930 . S
C250 C247 1.378 . S
C250 N251 1.315 1_565 S
C250 H253 0.930 . S
N251 Co231 2.194 . S
N251 C246 1.328 . S
N251 C250 1.315 1_545 S
H252 C246 0.929 . S
H253 C250 0.930 . S
H254 C242 0.929 . S
H255 C244 0.929 . S
O256 Co231 2.351 . S
O256 C259 1.244 . S
O257 Co231 2.155 . S
O257 C259 1.240 . S
O258 Co231 2.096 1_565 S
O258 C239 1.247 . S
C259 O256 1.244 . S
C259 O257 1.240 . S
H260 C234 0.931 . S
H261 C243 0.931 . S
H262 C247 0.929 . S
H263 C249 0.930 . S
Co264 N268 2.148 1_554 S
Co264 N274 2.128 . S
Co264 N284 2.193 1_554 S
Co264 O289 2.351 1_554 S
Co264 O290 2.155 1_554 S
Co264 O291 2.096 . S
C265 N268 1.301 . S
C265 N269 1.328 . S
C265 H270 0.930 . S
C266 C267 1.333 . S
C266 N268 1.317 . S
C266 H271 0.930 . S
C267 C266 1.333 . S
C267 N269 1.350 . S
C267 H293 0.931 . S
N268 Co264 2.148 1_556 S
N268 C265 1.301 . S
N268 C266 1.317 . S
N269 C265 1.328 . S
N269 C267 1.350 . S
H270 C265 0.930 . S
H271 C266 0.930 . S
C272 O273 1.224 . S
C272 O291 1.247 . S
O273 C272 1.224 . S
N274 Co264 2.128 . S
N274 C275 1.355 . S
N274 C277 1.311 . S
C275 N274 1.355 . S
C275 C276 1.363 . S
C275 H287 0.929 . S
C276 C275 1.363 . S
C276 N278 1.375 . S
C276 H294 0.931 . S
C277 N274 1.311 . S
C277 N278 1.347 . S
C277 H288 0.929 . S
N278 C276 1.375 . S
N278 C277 1.347 . S
C279 C282 1.365 . S
C279 N284 1.330 . S
C279 H285 0.929 . S
C280 C281 1.362 . S
C280 C283 1.378 . S
C280 H295 0.929 . S
C281 C280 1.362 . S
C281 C282 1.366 1_554 S
C282 C279 1.365 . S
C282 C281 1.366 1_556 S
C282 H296 0.930 . S
C283 C280 1.378 . S
C283 N284 1.314 1_554 S
C283 H286 0.930 . S
N284 Co264 2.193 1_556 S
N284 C279 1.330 . S
N284 C283 1.314 1_556 S
H285 C279 0.929 . S
H286 C283 0.930 . S
H287 C275 0.929 . S
H288 C277 0.929 . S
O289 Co264 2.351 1_556 S
O289 C292 1.244 . S
O290 Co264 2.155 1_556 S
O290 C292 1.240 . S
O291 Co264 2.096 . S
O291 C272 1.247 . S
C292 O289 1.244 . S
C292 O290 1.240 . S
H293 C267 0.931 . S
H294 C276 0.931 . S
H295 C280 0.929 . S
H296 C282 0.930 . S
Co297 N301 2.148 . S
Co297 N307 2.128 1_554 S
Co297 N317 2.194 . S
Co297 O322 2.351 . S
Co297 O323 2.155 . S
Co297 O324 2.096 1_554 S
C298 N301 1.301 . S
C298 N302 1.328 . S
C298 H303 0.930 . S
C299 C300 1.333 . S
C299 N301 1.317 . S
C299 H304 0.930 . S
C300 C299 1.333 . S
C300 N302 1.350 . S
C300 H326 0.931 . S
N301 Co297 2.148 . S
N301 C298 1.301 . S
N301 C299 1.317 . S
N302 C298 1.328 . S
N302 C300 1.350 . S
H303 C298 0.930 . S
H304 C299 0.930 . S
C305 O306 1.224 . S
C305 O324 1.247 . S
O306 C305 1.224 . S
N307 Co297 2.128 1_556 S
N307 C308 1.355 . S
N307 C310 1.311 . S
C308 N307 1.355 . S
C308 C309 1.363 . S
C308 H320 0.929 . S
C309 C308 1.363 . S
C309 N311 1.375 . S
C309 H327 0.931 . S
C310 N307 1.311 . S
C310 N311 1.347 . S
C310 H321 0.929 . S
N311 C309 1.375 . S
N311 C310 1.347 . S
C312 C315 1.365 . S
C312 N317 1.328 . S
C312 H318 0.929 . S
C313 C314 1.362 1_556 S
C313 C316 1.378 . S
C313 H328 0.929 . S
C314 C313 1.362 1_554 S
C314 C315 1.366 . S
C315 C312 1.365 . S
C315 C314 1.366 . S
C315 H329 0.930 . S
C316 C313 1.378 . S
C316 N317 1.315 1_556 S
C316 H319 0.930 . S
N317 Co297 2.194 . S
N317 C312 1.328 . S
N317 C316 1.315 1_554 S
H318 C312 0.929 . S
H319 C316 0.930 . S
H320 C308 0.929 . S
H321 C310 0.929 . S
O322 Co297 2.351 . S
O322 C325 1.244 . S
O323 Co297 2.155 . S
O323 C325 1.240 . S
O324 Co297 2.096 1_556 S
O324 C305 1.247 . S
C325 O322 1.244 . S
C325 O323 1.240 . S
H326 C300 0.931 . S
H327 C309 0.931 . S
H328 C313 0.929 . S
H329 C315 0.930 . S
Co330 N334 2.148 . S
Co330 N340 2.128 1_554 S
Co330 N350 2.194 . S
Co330 O355 2.351 . S
Co330 O356 2.155 . S
Co330 O357 2.096 1_554 S
C331 N334 1.301 . S
C331 N335 1.328 . S
C331 H336 0.930 . S
C332 C333 1.333 . S
C332 N334 1.317 . S
C332 H337 0.930 . S
C333 C332 1.333 . S
C333 N335 1.350 . S
C333 H359 0.931 . S
N334 Co330 2.148 . S
N334 C331 1.301 . S
N334 C332 1.317 . S
N335 C331 1.328 . S
N335 C333 1.350 . S
H336 C331 0.930 . S
H337 C332 0.930 . S
C338 O339 1.224 . S
C338 O357 1.247 . S
O339 C338 1.224 . S
N340 Co330 2.128 1_556 S
N340 C341 1.355 . S
N340 C343 1.311 . S
C341 N340 1.355 . S
C341 C342 1.363 . S
C341 H353 0.929 . S
C342 C341 1.363 . S
C342 N344 1.375 . S
C342 H360 0.931 . S
C343 N340 1.311 . S
C343 N344 1.347 . S
C343 H354 0.929 . S
N344 C342 1.375 . S
N344 C343 1.347 . S
C345 C348 1.365 . S
C345 N350 1.328 . S
C345 H351 0.929 . S
C346 C347 1.362 1_556 S
C346 C349 1.378 . S
C346 H361 0.929 . S
C347 C346 1.362 1_554 S
C347 C348 1.366 . S
C348 C345 1.365 . S
C348 C347 1.366 . S
C348 H362 0.930 . S
C349 C346 1.378 . S
C349 N350 1.315 1_556 S
C349 H352 0.930 . S
N350 Co330 2.194 . S
N350 C345 1.328 . S
N350 C349 1.315 1_554 S
H351 C345 0.929 . S
H352 C349 0.930 . S
H353 C341 0.929 . S
H354 C343 0.929 . S
O355 Co330 2.351 . S
O355 C358 1.244 . S
O356 Co330 2.155 . S
O356 C358 1.240 . S
O357 Co330 2.096 1_556 S
O357 C338 1.247 . S
C358 O355 1.244 . S
C358 O356 1.240 . S
H359 C333 0.931 . S
H360 C342 0.931 . S
H361 C346 0.929 . S
H362 C348 0.930 . S
Co363 N367 2.148 . S
Co363 N373 2.128 1_554 S
Co363 N383 2.194 . S
Co363 O388 2.351 . S
Co363 O389 2.155 . S
Co363 O390 2.096 1_554 S
C364 N367 1.301 . S
C364 N368 1.328 . S
C364 H369 0.930 . S
C365 C366 1.333 . S
C365 N367 1.317 . S
C365 H370 0.930 . S
C366 C365 1.333 . S
C366 N368 1.350 . S
C366 H392 0.931 . S
N367 Co363 2.148 . S
N367 C364 1.301 . S
N367 C365 1.317 . S
N368 C364 1.328 . S
N368 C366 1.350 . S
H369 C364 0.930 . S
H370 C365 0.930 . S
C371 O372 1.224 . S
C371 O390 1.247 . S
O372 C371 1.224 . S
N373 Co363 2.128 1_556 S
N373 C374 1.355 . S
N373 C376 1.311 . S
C374 N373 1.355 . S
C374 C375 1.363 . S
C374 H386 0.929 . S
C375 C374 1.363 . S
C375 N377 1.375 . S
C375 H393 0.931 . S
C376 N373 1.311 . S
C376 N377 1.347 . S
C376 H387 0.929 . S
N377 C375 1.375 . S
N377 C376 1.347 . S
C378 C381 1.365 . S
C378 N383 1.328 . S
C378 H384 0.929 . S
C379 C380 1.362 1_556 S
C379 C382 1.378 . S
C379 H394 0.929 . S
C380 C379 1.362 1_554 S
C380 C381 1.366 . S
C381 C378 1.365 . S
C381 C380 1.366 . S
C381 H395 0.930 . S
C382 C379 1.378 . S
C382 N383 1.315 1_556 S
C382 H385 0.930 . S
N383 Co363 2.194 . S
N383 C378 1.328 . S
N383 C382 1.315 1_554 S
H384 C378 0.929 . S
H385 C382 0.930 . S
H386 C374 0.929 . S
H387 C376 0.929 . S
O388 Co363 2.351 . S
O388 C391 1.244 . S
O389 Co363 2.155 . S
O389 C391 1.240 . S
O390 Co363 2.096 1_556 S
O390 C371 1.247 . S
C391 O388 1.244 . S
C391 O389 1.240 . S
H392 C366 0.931 . S
H393 C375 0.931 . S
H394 C379 0.929 . S
H395 C381 0.930 . S
Co396 N400 2.128 1_455 S
Co396 N406 2.150 . S
Co396 N416 2.191 1_455 S
Co396 O421 2.326 1_455 S
Co396 O422 2.140 1_455 S
Co396 O423 2.116 . S
C397 N400 1.301 . S
C397 N401 1.328 . S
C397 H402 0.930 . S
C398 C399 1.333 . S
C398 N400 1.317 . S
C398 H403 0.930 . S
C399 C398 1.333 . S
C399 N401 1.350 . S
C399 H425 0.931 . S
N400 Co396 2.128 1_655 S
N400 C397 1.301 . S
N400 C398 1.317 . S
N401 C397 1.328 . S
N401 C399 1.350 . S
H402 C397 0.930 . S
H403 C398 0.930 . S
C404 O405 1.224 . S
C404 O423 1.247 . S
O405 C404 1.224 . S
N406 Co396 2.150 . S
N406 C407 1.355 . S
N406 C409 1.311 . S
C407 N406 1.355 . S
C407 C408 1.363 . S
C407 H419 0.929 . S
C408 C407 1.363 . S
C408 N410 1.375 . S
C408 H426 0.931 . S
C409 N406 1.311 . S
C409 N410 1.347 . S
C409 H420 0.929 . S
N410 C408 1.375 . S
N410 C409 1.347 . S
C411 C414 1.365 . S
C411 N416 1.367 . S
C411 H417 0.929 . S
C412 C413 1.394 . S
C412 C415 1.378 . S
C412 H427 0.929 . S
C413 C412 1.394 . S
C413 C414 1.333 1_455 S
C414 C411 1.365 . S
C414 C413 1.333 1_655 S
C414 H428 0.930 . S
C415 C412 1.378 . S
C415 N416 1.277 1_455 S
C415 H418 0.930 . S
N416 Co396 2.191 1_655 S
N416 C411 1.367 . S
N416 C415 1.277 1_655 S
H417 C411 0.929 . S
H418 C415 0.930 . S
H419 C407 0.929 . S
H420 C409 0.929 . S
O421 Co396 2.326 1_655 S
O421 C424 1.244 . S
O422 Co396 2.140 1_655 S
O422 C424 1.240 . S
O423 Co396 2.116 . S
O423 C404 1.247 . S
C424 O421 1.244 . S
C424 O422 1.240 . S
H425 C399 0.931 . S
H426 C408 0.931 . S
H427 C412 0.929 . S
H428 C414 0.930 . S
Co429 N433 2.148 . S
Co429 N439 2.128 . S
Co429 N449 2.194 . S
Co429 O454 2.351 . S
Co429 O455 2.155 . S
Co429 O456 2.096 . S
C430 N433 1.301 . S
C430 N434 1.328 . S
C430 H435 0.930 . S
C431 C432 1.333 . S
C431 N433 1.317 . S
C431 H436 0.930 . S
C432 C431 1.333 . S
C432 N434 1.350 . S
C432 H458 0.931 . S
N433 Co429 2.148 . S
N433 C430 1.301 . S
N433 C431 1.317 . S
N434 C430 1.328 . S
N434 C432 1.350 . S
H435 C430 0.930 . S
H436 C431 0.930 . S
C437 O438 1.224 . S
C437 O456 1.247 . S
O438 C437 1.224 . S
N439 Co429 2.128 . S
N439 C440 1.355 . S
N439 C442 1.311 . S
C440 N439 1.355 . S
C440 C441 1.363 . S
C440 H452 0.929 . S
C441 C440 1.363 . S
C441 N443 1.375 . S
C441 H459 0.931 . S
C442 N439 1.311 . S
C442 N443 1.347 . S
C442 H453 0.929 . S
N443 C441 1.375 . S
N443 C442 1.347 . S
C444 C447 1.365 . S
C444 N449 1.328 . S
C444 H450 0.929 . S
C445 C446 1.362 . S
C445 C448 1.378 . S
C445 H460 0.929 . S
C446 C445 1.362 . S
C446 C447 1.366 . S
C447 C444 1.365 . S
C447 C446 1.366 . S
C447 H461 0.930 . S
C448 C445 1.378 . S
C448 N449 1.315 . S
C448 H451 0.930 . S
N449 Co429 2.194 . S
N449 C444 1.328 . S
N449 C448 1.315 . S
H450 C444 0.929 . S
H451 C448 0.930 . S
H452 C440 0.929 . S
H453 C442 0.929 . S
O454 Co429 2.351 . S
O454 C457 1.244 . S
O455 Co429 2.155 . S
O455 C457 1.240 . S
O456 Co429 2.096 . S
O456 C437 1.247 . S
C457 O454 1.244 . S
C457 O455 1.240 . S
H458 C432 0.931 . S
H459 C441 0.931 . S
H460 C445 0.929 . S
H461 C447 0.930 . S
Co462 N466 2.158 . S
Co462 N472 2.118 1_655 S
Co462 N482 2.194 . S
Co462 O487 2.363 . S
Co462 O488 2.162 . S
Co462 O489 2.086 1_655 S
C463 N466 1.301 . S
C463 N467 1.328 . S
C463 H468 0.930 . S
C464 C465 1.333 . S
C464 N466 1.317 . S
C464 H469 0.930 . S
C465 C464 1.333 . S
C465 N467 1.350 . S
C465 H491 0.931 . S
N466 Co462 2.158 . S
N466 C463 1.301 . S
N466 C464 1.317 . S
N467 C463 1.328 . S
N467 C465 1.350 . S
H468 C463 0.930 . S
H469 C464 0.930 . S
C470 O471 1.224 . S
C470 O489 1.247 . S
O471 C470 1.224 . S
N472 Co462 2.118 1_455 S
N472 C473 1.355 . S
N472 C475 1.311 . S
C473 N472 1.355 . S
C473 C474 1.363 . S
C473 H485 0.929 . S
C474 C473 1.363 . S
C474 N476 1.375 . S
C474 H492 0.931 . S
C475 N472 1.311 . S
C475 N476 1.347 . S
C475 H486 0.929 . S
N476 C474 1.375 . S
N476 C475 1.347 . S
C477 C480 1.365 . S
C477 N482 1.328 . S
C477 H483 0.929 . S
C478 C479 1.350 1_455 S
C478 C481 1.378 . S
C478 H493 0.929 . S
C479 C478 1.350 1_655 S
C479 C480 1.379 . S
C480 C477 1.365 . S
C480 C479 1.379 . S
C480 H494 0.930 . S
C481 C478 1.378 . S
C481 N482 1.315 1_455 S
C481 H484 0.930 . S
N482 Co462 2.194 . S
N482 C477 1.328 . S
N482 C481 1.315 1_655 S
H483 C477 0.929 . S
H484 C481 0.930 . S
H485 C473 0.929 . S
H486 C475 0.929 . S
O487 Co462 2.363 . S
O487 C490 1.244 . S
O488 Co462 2.162 . S
O488 C490 1.240 . S
O489 Co462 2.086 1_455 S
O489 C470 1.247 . S
C490 O487 1.244 . S
C490 O488 1.240 . S
H491 C465 0.931 . S
H492 C474 0.931 . S
H493 C478 0.929 . S
H494 C480 0.930 . S
Co495 N499 2.148 . S
Co495 N505 2.128 . S
Co495 N515 2.194 . S
Co495 O520 2.351 . S
Co495 O521 2.155 . S
Co495 O522 2.096 . S
C496 N499 1.301 . S
C496 N500 1.328 . S
C496 H501 0.930 . S
C497 C498 1.333 . S
C497 N499 1.317 . S
C497 H502 0.930 . S
C498 C497 1.333 . S
C498 N500 1.350 . S
C498 H524 0.931 . S
N499 Co495 2.148 . S
N499 C496 1.301 . S
N499 C497 1.317 . S
N500 C496 1.328 . S
N500 C498 1.350 . S
H501 C496 0.930 . S
H502 C497 0.930 . S
C503 O504 1.224 . S
C503 O522 1.247 . S
O504 C503 1.224 . S
N505 Co495 2.128 . S
N505 C506 1.355 . S
N505 C508 1.311 . S
C506 N505 1.355 . S
C506 C507 1.363 . S
C506 H518 0.929 . S
C507 C506 1.363 . S
C507 N509 1.375 . S
C507 H525 0.931 . S
C508 N505 1.311 . S
C508 N509 1.347 . S
C508 H519 0.929 . S
N509 C507 1.375 . S
N509 C508 1.347 . S
C510 C513 1.365 . S
C510 N515 1.328 . S
C510 H516 0.929 . S
C511 C512 1.362 . S
C511 C514 1.378 . S
C511 H526 0.929 . S
C512 C511 1.362 . S
C512 C513 1.366 . S
C513 C510 1.365 . S
C513 C512 1.366 . S
C513 H527 0.930 . S
C514 C511 1.378 . S
C514 N515 1.315 . S
C514 H517 0.930 . S
N515 Co495 2.194 . S
N515 C510 1.328 . S
N515 C514 1.315 . S
H516 C510 0.929 . S
H517 C514 0.930 . S
H518 C506 0.929 . S
H519 C508 0.929 . S
O520 Co495 2.351 . S
O520 C523 1.244 . S
O521 Co495 2.155 . S
O521 C523 1.240 . S
O522 Co495 2.096 . S
O522 C503 1.247 . S
C523 O520 1.244 . S
C523 O521 1.240 . S
H524 C498 0.931 . S
H525 C507 0.931 . S
H526 C511 0.929 . S
H527 C513 0.930 . S
Co528 N532 2.148 . S
Co528 N538 2.128 1_455 S
Co528 N548 2.194 . S
Co528 O553 2.351 . S
Co528 O554 2.155 . S
Co528 O555 2.096 1_455 S
C529 N532 1.301 . S
C529 N533 1.328 . S
C529 H534 0.930 . S
C530 C531 1.333 . S
C530 N532 1.317 . S
C530 H535 0.930 . S
C531 C530 1.333 . S
C531 N533 1.350 . S
C531 H557 0.931 . S
N532 Co528 2.148 . S
N532 C529 1.301 . S
N532 C530 1.317 . S
N533 C529 1.328 . S
N533 C531 1.350 . S
H534 C529 0.930 . S
H535 C530 0.930 . S
C536 O537 1.224 . S
C536 O555 1.247 . S
O537 C536 1.224 . S
N538 Co528 2.128 1_655 S
N538 C539 1.355 . S
N538 C541 1.311 . S
C539 N538 1.355 . S
C539 C540 1.363 . S
C539 H551 0.929 . S
C540 C539 1.363 . S
C540 N542 1.375 . S
C540 H558 0.931 . S
C541 N538 1.311 . S
C541 N542 1.347 . S
C541 H552 0.929 . S
N542 C540 1.375 . S
N542 C541 1.347 . S
C543 C546 1.365 . S
C543 N548 1.328 . S
C543 H549 0.929 . S
C544 C545 1.362 1_655 S
C544 C547 1.378 . S
C544 H559 0.929 . S
C545 C544 1.362 1_455 S
C545 C546 1.366 . S
C546 C543 1.365 . S
C546 C545 1.366 . S
C546 H560 0.930 . S
C547 C544 1.378 . S
C547 N548 1.315 1_655 S
C547 H550 0.930 . S
N548 Co528 2.194 . S
N548 C543 1.328 . S
N548 C547 1.315 1_455 S
H549 C543 0.929 . S
H550 C547 0.930 . S
H551 C539 0.929 . S
H552 C541 0.929 . S
O553 Co528 2.351 . S
O553 C556 1.244 . S
O554 Co528 2.155 . S
O554 C556 1.240 . S
O555 Co528 2.096 1_655 S
O555 C536 1.247 . S
C556 O553 1.244 . S
C556 O554 1.240 . S
H557 C531 0.931 . S
H558 C540 0.931 . S
H559 C544 0.929 . S
H560 C546 0.930 . S
Co561 N565 2.148 . S
Co561 N571 2.128 . S
Co561 N581 2.194 . S
Co561 O586 2.351 . S
Co561 O587 2.155 . S
Co561 O588 2.096 . S
C562 N565 1.301 . S
C562 N566 1.328 . S
C562 H567 0.930 . S
C563 C564 1.333 . S
C563 N565 1.317 . S
C563 H568 0.930 . S
C564 C563 1.333 . S
C564 N566 1.350 . S
C564 H590 0.931 . S
N565 Co561 2.148 . S
N565 C562 1.301 . S
N565 C563 1.317 . S
N566 C562 1.328 . S
N566 C564 1.350 . S
H567 C562 0.930 . S
H568 C563 0.930 . S
C569 O570 1.224 . S
C569 O588 1.247 . S
O570 C569 1.224 . S
N571 Co561 2.128 . S
N571 C572 1.355 . S
N571 C574 1.311 . S
C572 N571 1.355 . S
C572 C573 1.363 . S
C572 H584 0.929 . S
C573 C572 1.363 . S
C573 N575 1.375 . S
C573 H591 0.931 . S
C574 N571 1.311 . S
C574 N575 1.347 . S
C574 H585 0.929 . S
N575 C573 1.375 . S
N575 C574 1.347 . S
C576 C579 1.365 . S
C576 N581 1.328 . S
C576 H582 0.929 . S
C577 C578 1.362 . S
C577 C580 1.378 . S
C577 H592 0.929 . S
C578 C577 1.362 . S
C578 C579 1.366 . S
C579 C576 1.365 . S
C579 C578 1.366 . S
C579 H593 0.930 . S
C580 C577 1.378 . S
C580 N581 1.315 . S
C580 H583 0.930 . S
N581 Co561 2.194 . S
N581 C576 1.328 . S
N581 C580 1.315 . S
H582 C576 0.929 . S
H583 C580 0.930 . S
H584 C572 0.929 . S
H585 C574 0.929 . S
O586 Co561 2.351 . S
O586 C589 1.244 . S
O587 Co561 2.155 . S
O587 C589 1.240 . S
O588 Co561 2.096 . S
O588 C569 1.247 . S
C589 O586 1.244 . S
C589 O587 1.240 . S
H590 C564 0.931 . S
H591 C573 0.931 . S
H592 C577 0.929 . S
H593 C579 0.930 . S
Co594 N598 2.117 1_455 S
Co594 N604 2.162 . S
Co594 N614 2.191 1_455 S
Co594 O619 2.312 1_455 S
Co594 O620 2.132 1_455 S
Co594 O621 2.127 . S
C595 N598 1.301 . S
C595 N599 1.328 . S
C595 H600 0.930 . S
C596 C597 1.333 . S
C596 N598 1.317 . S
C596 H601 0.930 . S
C597 C596 1.333 . S
C597 N599 1.350 . S
C597 H623 0.931 . S
N598 Co594 2.117 1_655 S
N598 C595 1.301 . S
N598 C596 1.317 . S
N599 C595 1.328 . S
N599 C597 1.350 . S
H600 C595 0.930 . S
H601 C596 0.930 . S
C602 O603 1.224 . S
C602 O621 1.247 . S
O603 C602 1.224 . S
N604 Co594 2.162 . S
N604 C605 1.355 . S
N604 C607 1.311 . S
C605 N604 1.355 . S
C605 C606 1.363 . S
C605 H617 0.929 . S
C606 C605 1.363 . S
C606 N608 1.375 . S
C606 H624 0.931 . S
C607 N604 1.311 . S
C607 N608 1.347 . S
C607 H618 0.929 . S
N608 C606 1.375 . S
N608 C607 1.347 . S
C609 C612 1.365 . S
C609 N614 1.359 . S
C609 H615 0.929 . S
C610 C611 1.396 . S
C610 C613 1.378 . S
C610 H625 0.929 . S
C611 C610 1.396 . S
C611 C612 1.330 1_455 S
C612 C609 1.365 . S
C612 C611 1.330 1_655 S
C612 H626 0.930 . S
C613 C610 1.378 . S
C613 N614 1.285 1_455 S
C613 H616 0.930 . S
N614 Co594 2.191 1_655 S
N614 C609 1.359 . S
N614 C613 1.285 1_655 S
H615 C609 0.929 . S
H616 C613 0.930 . S
H617 C605 0.929 . S
H618 C607 0.929 . S
O619 Co594 2.312 1_655 S
O619 C622 1.244 . S
O620 Co594 2.132 1_655 S
O620 C622 1.240 . S
O621 Co594 2.127 . S
O621 C602 1.247 . S
C622 O619 1.244 . S
C622 O620 1.240 . S
H623 C597 0.931 . S
H624 C606 0.931 . S
H625 C610 0.929 . S
H626 C612 0.930 . S
Co627 N631 2.148 . S
Co627 N637 2.128 . S
Co627 N647 2.194 . S
Co627 O652 2.351 . S
Co627 O653 2.155 . S
Co627 O654 2.096 . S
C628 N631 1.301 . S
C628 N632 1.328 . S
C628 H633 0.930 . S
C629 C630 1.333 . S
C629 N631 1.317 . S
C629 H634 0.930 . S
C630 C629 1.333 . S
C630 N632 1.350 . S
C630 H656 0.931 . S
N631 Co627 2.148 . S
N631 C628 1.301 . S
N631 C629 1.317 . S
N632 C628 1.328 . S
N632 C630 1.350 . S
H633 C628 0.930 . S
H634 C629 0.930 . S
C635 O636 1.224 . S
C635 O654 1.247 . S
O636 C635 1.224 . S
N637 Co627 2.128 . S
N637 C638 1.355 . S
N637 C640 1.311 . S
C638 N637 1.355 . S
C638 C639 1.363 . S
C638 H650 0.929 . S
C639 C638 1.363 . S
C639 N641 1.375 . S
C639 H657 0.931 . S
C640 N637 1.311 . S
C640 N641 1.347 . S
C640 H651 0.929 . S
N641 C639 1.375 . S
N641 C640 1.347 . S
C642 C645 1.365 . S
C642 N647 1.328 . S
C642 H648 0.929 . S
C643 C644 1.362 . S
C643 C646 1.378 . S
C643 H658 0.929 . S
C644 C643 1.362 . S
C644 C645 1.366 . S
C645 C642 1.365 . S
C645 C644 1.366 . S
C645 H659 0.930 . S
C646 C643 1.378 . S
C646 N647 1.315 . S
C646 H649 0.930 . S
N647 Co627 2.194 . S
N647 C642 1.328 . S
N647 C646 1.315 . S
H648 C642 0.929 . S
H649 C646 0.930 . S
H650 C638 0.929 . S
H651 C640 0.929 . S
O652 Co627 2.351 . S
O652 C655 1.244 . S
O653 Co627 2.155 . S
O653 C655 1.240 . S
O654 Co627 2.096 . S
O654 C635 1.247 . S
C655 O652 1.244 . S
C655 O653 1.240 . S
H656 C630 0.931 . S
H657 C639 0.931 . S
H658 C643 0.929 . S
H659 C645 0.930 . S
Co660 N664 2.148 . S
Co660 N670 2.128 . S
Co660 N680 2.194 . S
Co660 O685 2.351 . S
Co660 O686 2.155 . S
Co660 O687 2.096 . S
C661 N664 1.301 . S
C661 N665 1.328 . S
C661 H666 0.930 . S
C662 C663 1.333 . S
C662 N664 1.317 . S
C662 H667 0.930 . S
C663 C662 1.333 . S
C663 N665 1.350 . S
C663 H689 0.931 . S
N664 Co660 2.148 . S
N664 C661 1.301 . S
N664 C662 1.317 . S
N665 C661 1.328 . S
N665 C663 1.350 . S
H666 C661 0.930 . S
H667 C662 0.930 . S
C668 O669 1.224 . S
C668 O687 1.247 . S
O669 C668 1.224 . S
N670 Co660 2.128 . S
N670 C671 1.355 . S
N670 C673 1.311 . S
C671 N670 1.355 . S
C671 C672 1.363 . S
C671 H683 0.929 . S
C672 C671 1.363 . S
C672 N674 1.375 . S
C672 H690 0.931 . S
C673 N670 1.311 . S
C673 N674 1.347 . S
C673 H684 0.929 . S
N674 C672 1.375 . S
N674 C673 1.347 . S
C675 C678 1.365 . S
C675 N680 1.328 . S
C675 H681 0.929 . S
C676 C677 1.362 . S
C676 C679 1.378 . S
C676 H691 0.929 . S
C677 C676 1.362 . S
C677 C678 1.366 . S
C678 C675 1.365 . S
C678 C677 1.366 . S
C678 H692 0.930 . S
C679 C676 1.378 . S
C679 N680 1.315 . S
C679 H682 0.930 . S
N680 Co660 2.194 . S
N680 C675 1.328 . S
N680 C679 1.315 . S
H681 C675 0.929 . S
H682 C679 0.930 . S
H683 C671 0.929 . S
H684 C673 0.929 . S
O685 Co660 2.351 . S
O685 C688 1.244 . S
O686 Co660 2.155 . S
O686 C688 1.240 . S
O687 Co660 2.096 . S
O687 C668 1.247 . S
C688 O685 1.244 . S
C688 O686 1.240 . S
H689 C663 0.931 . S
H690 C672 0.931 . S
H691 C676 0.929 . S
H692 C678 0.930 . S
Co693 N697 2.148 . S
Co693 N703 2.128 . S
Co693 N713 2.194 . S
Co693 O718 2.351 . S
Co693 O719 2.155 . S
Co693 O720 2.096 . S
C694 N697 1.301 . S
C694 N698 1.328 . S
C694 H699 0.930 . S
C695 C696 1.333 . S
C695 N697 1.317 . S
C695 H700 0.930 . S
C696 C695 1.333 . S
C696 N698 1.350 . S
C696 H722 0.931 . S
N697 Co693 2.148 . S
N697 C694 1.301 . S
N697 C695 1.317 . S
N698 C694 1.328 . S
N698 C696 1.350 . S
H699 C694 0.930 . S
H700 C695 0.930 . S
C701 O702 1.224 . S
C701 O720 1.247 . S
O702 C701 1.224 . S
N703 Co693 2.128 . S
N703 C704 1.355 . S
N703 C706 1.311 . S
C704 N703 1.355 . S
C704 C705 1.363 . S
C704 H716 0.929 . S
C705 C704 1.363 . S
C705 N707 1.375 . S
C705 H723 0.931 . S
C706 N703 1.311 . S
C706 N707 1.347 . S
C706 H717 0.929 . S
N707 C705 1.375 . S
N707 C706 1.347 . S
C708 C711 1.365 . S
C708 N713 1.328 . S
C708 H714 0.929 . S
C709 C710 1.362 . S
C709 C712 1.378 . S
C709 H724 0.929 . S
C710 C709 1.362 . S
C710 C711 1.366 . S
C711 C708 1.365 . S
C711 C710 1.366 . S
C711 H725 0.930 . S
C712 C709 1.378 . S
C712 N713 1.315 . S
C712 H715 0.930 . S
N713 Co693 2.194 . S
N713 C708 1.328 . S
N713 C712 1.315 . S
H714 C708 0.929 . S
H715 C712 0.930 . S
H716 C704 0.929 . S
H717 C706 0.929 . S
O718 Co693 2.351 . S
O718 C721 1.244 . S
O719 Co693 2.155 . S
O719 C721 1.240 . S
O720 Co693 2.096 . S
O720 C701 1.247 . S
C721 O718 1.244 . S
C721 O719 1.240 . S
H722 C696 0.931 . S
H723 C705 0.931 . S
H724 C709 0.929 . S
H725 C711 0.930 . S
Co726 N730 2.148 . S
Co726 N736 2.128 . S
Co726 N746 2.194 . S
Co726 O751 2.351 . S
Co726 O752 2.155 . S
Co726 O753 2.096 . S
C727 N730 1.301 . S
C727 N731 1.328 . S
C727 H732 0.930 . S
C728 C729 1.333 . S
C728 N730 1.317 . S
C728 H733 0.930 . S
C729 C728 1.333 . S
C729 N731 1.350 . S
C729 H755 0.931 . S
N730 Co726 2.148 . S
N730 C727 1.301 . S
N730 C728 1.317 . S
N731 C727 1.328 . S
N731 C729 1.350 . S
H732 C727 0.930 . S
H733 C728 0.930 . S
C734 O735 1.224 . S
C734 O753 1.247 . S
O735 C734 1.224 . S
N736 Co726 2.128 . S
N736 C737 1.355 . S
N736 C739 1.311 . S
C737 N736 1.355 . S
C737 C738 1.363 . S
C737 H749 0.929 . S
C738 C737 1.363 . S
C738 N740 1.375 . S
C738 H756 0.931 . S
C739 N736 1.311 . S
C739 N740 1.347 . S
C739 H750 0.929 . S
N740 C738 1.375 . S
N740 C739 1.347 . S
C741 C744 1.365 . S
C741 N746 1.328 . S
C741 H747 0.929 . S
C742 C743 1.362 . S
C742 C745 1.378 . S
C742 H757 0.929 . S
C743 C742 1.362 . S
C743 C744 1.366 . S
C744 C741 1.365 . S
C744 C743 1.366 . S
C744 H758 0.930 . S
C745 C742 1.378 . S
C745 N746 1.315 . S
C745 H748 0.930 . S
N746 Co726 2.194 . S
N746 C741 1.328 . S
N746 C745 1.315 . S
H747 C741 0.929 . S
H748 C745 0.930 . S
H749 C737 0.929 . S
H750 C739 0.929 . S
O751 Co726 2.351 . S
O751 C754 1.244 . S
O752 Co726 2.155 . S
O752 C754 1.240 . S
O753 Co726 2.096 . S
O753 C734 1.247 . S
C754 O751 1.244 . S
C754 O752 1.240 . S
H755 C729 0.931 . S
H756 C738 0.931 . S
H757 C742 0.929 . S
H758 C744 0.930 . S
Co759 N763 2.148 . S
Co759 N769 2.128 . S
Co759 N779 2.194 . S
Co759 O784 2.351 . S
Co759 O785 2.155 . S
Co759 O786 2.096 . S
C760 N763 1.301 . S
C760 N764 1.328 . S
C760 H765 0.930 . S
C761 C762 1.333 . S
C761 N763 1.317 . S
C761 H766 0.930 . S
C762 C761 1.333 . S
C762 N764 1.350 . S
C762 H788 0.931 . S
N763 Co759 2.148 . S
N763 C760 1.301 . S
N763 C761 1.317 . S
N764 C760 1.328 . S
N764 C762 1.350 . S
H765 C760 0.930 . S
H766 C761 0.930 . S
C767 O768 1.224 . S
C767 O786 1.247 . S
O768 C767 1.224 . S
N769 Co759 2.128 . S
N769 C770 1.355 . S
N769 C772 1.311 . S
C770 N769 1.355 . S
C770 C771 1.363 . S
C770 H782 0.929 . S
C771 C770 1.363 . S
C771 N773 1.375 . S
C771 H789 0.931 . S
C772 N769 1.311 . S
C772 N773 1.347 . S
C772 H783 0.929 . S
N773 C771 1.375 . S
N773 C772 1.347 . S
C774 C777 1.365 . S
C774 N779 1.328 . S
C774 H780 0.929 . S
C775 C776 1.362 . S
C775 C778 1.378 . S
C775 H790 0.929 . S
C776 C775 1.362 . S
C776 C777 1.366 . S
C777 C774 1.365 . S
C777 C776 1.366 . S
C777 H791 0.930 . S
C778 C775 1.378 . S
C778 N779 1.315 . S
C778 H781 0.930 . S
N779 Co759 2.194 . S
N779 C774 1.328 . S
N779 C778 1.315 . S
H780 C774 0.929 . S
H781 C778 0.930 . S
H782 C770 0.929 . S
H783 C772 0.929 . S
O784 Co759 2.351 . S
O784 C787 1.244 . S
O785 Co759 2.155 . S
O785 C787 1.240 . S
O786 Co759 2.096 . S
O786 C767 1.247 . S
C787 O784 1.244 . S
C787 O785 1.240 . S
H788 C762 0.931 . S
H789 C771 0.931 . S
H790 C775 0.929 . S
H791 C777 0.930 . S
Co792 N796 2.148 . S
Co792 N802 2.128 . S
Co792 N812 2.194 . S
Co792 O817 2.351 . S
Co792 O818 2.155 . S
Co792 O819 2.096 . S
C793 N796 1.301 . S
C793 N797 1.328 . S
C793 H798 0.930 . S
C794 C795 1.333 . S
C794 N796 1.317 . S
C794 H799 0.930 . S
C795 C794 1.333 . S
C795 N797 1.350 . S
C795 H821 0.931 . S
N796 Co792 2.148 . S
N796 C793 1.301 . S
N796 C794 1.317 . S
N797 C793 1.328 . S
N797 C795 1.350 . S
H798 C793 0.930 . S
H799 C794 0.930 . S
C800 O801 1.224 . S
C800 O819 1.247 . S
O801 C800 1.224 . S
N802 Co792 2.128 . S
N802 C803 1.355 . S
N802 C805 1.311 . S
C803 N802 1.355 . S
C803 C804 1.363 . S
C803 H815 0.929 . S
C804 C803 1.363 . S
C804 N806 1.375 . S
C804 H822 0.931 . S
C805 N802 1.311 . S
C805 N806 1.347 . S
C805 H816 0.929 . S
N806 C804 1.375 . S
N806 C805 1.347 . S
C807 C810 1.365 . S
C807 N812 1.328 . S
C807 H813 0.929 . S
C808 C809 1.362 . S
C808 C811 1.378 . S
C808 H823 0.929 . S
C809 C808 1.362 . S
C809 C810 1.366 . S
C810 C807 1.365 . S
C810 C809 1.366 . S
C810 H824 0.930 . S
C811 C808 1.378 . S
C811 N812 1.315 . S
C811 H814 0.930 . S
N812 Co792 2.194 . S
N812 C807 1.328 . S
N812 C811 1.315 . S
H813 C807 0.929 . S
H814 C811 0.930 . S
H815 C803 0.929 . S
H816 C805 0.929 . S
O817 Co792 2.351 . S
O817 C820 1.244 . S
O818 Co792 2.155 . S
O818 C820 1.240 . S
O819 Co792 2.096 . S
O819 C800 1.247 . S
C820 O817 1.244 . S
C820 O818 1.240 . S
H821 C795 0.931 . S
H822 C804 0.931 . S
H823 C808 0.929 . S
H824 C810 0.930 . S
Co825 N829 2.148 . S
Co825 N835 2.128 1_545 S
Co825 N845 2.194 . S
Co825 O850 2.351 . S
Co825 O851 2.155 . S
Co825 O852 2.096 1_545 S
C826 N829 1.301 . S
C826 N830 1.328 . S
C826 H831 0.930 . S
C827 C828 1.333 . S
C827 N829 1.317 . S
C827 H832 0.930 . S
C828 C827 1.333 . S
C828 N830 1.350 . S
C828 H854 0.931 . S
N829 Co825 2.148 . S
N829 C826 1.301 . S
N829 C827 1.317 . S
N830 C826 1.328 . S
N830 C828 1.350 . S
H831 C826 0.930 . S
H832 C827 0.930 . S
C833 O834 1.224 . S
C833 O852 1.247 . S
O834 C833 1.224 . S
N835 Co825 2.128 1_565 S
N835 C836 1.355 . S
N835 C838 1.311 . S
C836 N835 1.355 . S
C836 C837 1.363 . S
C836 H848 0.929 . S
C837 C836 1.363 . S
C837 N839 1.375 . S
C837 H855 0.931 . S
C838 N835 1.311 . S
C838 N839 1.347 . S
C838 H849 0.929 . S
N839 C837 1.375 . S
N839 C838 1.347 . S
C840 C843 1.365 . S
C840 N845 1.328 . S
C840 H846 0.929 . S
C841 C842 1.362 1_565 S
C841 C844 1.378 . S
C841 H856 0.929 . S
C842 C841 1.362 1_545 S
C842 C843 1.366 . S
C843 C840 1.365 . S
C843 C842 1.366 . S
C843 H857 0.930 . S
C844 C841 1.378 . S
C844 N845 1.315 1_565 S
C844 H847 0.930 . S
N845 Co825 2.194 . S
N845 C840 1.328 . S
N845 C844 1.315 1_545 S
H846 C840 0.929 . S
H847 C844 0.930 . S
H848 C836 0.929 . S
H849 C838 0.929 . S
O850 Co825 2.351 . S
O850 C853 1.244 . S
O851 Co825 2.155 . S
O851 C853 1.240 . S
O852 Co825 2.096 1_565 S
O852 C833 1.247 . S
C853 O850 1.244 . S
C853 O851 1.240 . S
H854 C828 0.931 . S
H855 C837 0.931 . S
H856 C841 0.929 . S
H857 C843 0.930 . S
Co858 N862 2.148 . S
Co858 N868 2.128 . S
Co858 N878 2.194 . S
Co858 O883 2.351 . S
Co858 O884 2.155 . S
Co858 O885 2.096 . S
C859 N862 1.301 . S
C859 N863 1.328 . S
C859 H864 0.930 . S
C860 C861 1.333 . S
C860 N862 1.317 . S
C860 H865 0.930 . S
C861 C860 1.333 . S
C861 N863 1.350 . S
C861 H887 0.931 . S
N862 Co858 2.148 . S
N862 C859 1.301 . S
N862 C860 1.317 . S
N863 C859 1.328 . S
N863 C861 1.350 . S
H864 C859 0.930 . S
H865 C860 0.930 . S
C866 O867 1.224 . S
C866 O885 1.247 . S
O867 C866 1.224 . S
N868 Co858 2.128 . S
N868 C869 1.355 . S
N868 C871 1.311 . S
C869 N868 1.355 . S
C869 C870 1.363 . S
C869 H881 0.929 . S
C870 C869 1.363 . S
C870 N872 1.375 . S
C870 H888 0.931 . S
C871 N868 1.311 . S
C871 N872 1.347 . S
C871 H882 0.929 . S
N872 C870 1.375 . S
N872 C871 1.347 . S
C873 C876 1.365 . S
C873 N878 1.328 . S
C873 H879 0.929 . S
C874 C875 1.362 . S
C874 C877 1.378 . S
C874 H889 0.929 . S
C875 C874 1.362 . S
C875 C876 1.366 . S
C876 C873 1.365 . S
C876 C875 1.366 . S
C876 H890 0.930 . S
C877 C874 1.378 . S
C877 N878 1.315 . S
C877 H880 0.930 . S
N878 Co858 2.194 . S
N878 C873 1.328 . S
N878 C877 1.315 . S
H879 C873 0.929 . S
H880 C877 0.930 . S
H881 C869 0.929 . S
H882 C871 0.929 . S
O883 Co858 2.351 . S
O883 C886 1.244 . S
O884 Co858 2.155 . S
O884 C886 1.240 . S
O885 Co858 2.096 . S
O885 C866 1.247 . S
C886 O883 1.244 . S
C886 O884 1.240 . S
H887 C861 0.931 . S
H888 C870 0.931 . S
H889 C874 0.929 . S
H890 C876 0.930 . S
Co891 N895 2.166 . S
Co891 N901 2.109 1_565 S
Co891 N911 2.195 . S
Co891 O916 2.374 . S
Co891 O917 2.168 . S
Co891 O918 2.078 1_565 S
C892 N895 1.301 . S
C892 N896 1.328 . S
C892 H897 0.930 . S
C893 C894 1.333 . S
C893 N895 1.317 . S
C893 H898 0.930 . S
C894 C893 1.333 . S
C894 N896 1.350 . S
C894 H920 0.931 . S
N895 Co891 2.166 . S
N895 C892 1.301 . S
N895 C893 1.317 . S
N896 C892 1.328 . S
N896 C894 1.350 . S
H897 C892 0.930 . S
H898 C893 0.930 . S
C899 O900 1.224 . S
C899 O918 1.247 . S
O900 C899 1.224 . S
N901 Co891 2.109 1_545 S
N901 C902 1.355 . S
N901 C904 1.311 . S
C902 N901 1.355 . S
C902 C903 1.363 . S
C902 H914 0.929 . S
C903 C902 1.363 . S
C903 N905 1.375 . S
C903 H921 0.931 . S
C904 N901 1.311 . S
C904 N905 1.347 . S
C904 H915 0.929 . S
N905 C903 1.375 . S
N905 C904 1.347 . S
C906 C909 1.365 . S
C906 N911 1.328 . S
C906 H912 0.929 . S
C907 C908 1.342 1_545 S
C907 C910 1.378 . S
C907 H922 0.929 . S
C908 C907 1.342 1_565 S
C908 C909 1.389 . S
C909 C906 1.365 . S
C909 C908 1.389 . S
C909 H923 0.930 . S
C910 C907 1.378 . S
C910 N911 1.315 1_545 S
C910 H913 0.930 . S
N911 Co891 2.195 . S
N911 C906 1.328 . S
N911 C910 1.315 1_565 S
H912 C906 0.929 . S
H913 C910 0.930 . S
H914 C902 0.929 . S
H915 C904 0.929 . S
O916 Co891 2.374 . S
O916 C919 1.244 . S
O917 Co891 2.168 . S
O917 C919 1.240 . S
O918 Co891 2.078 1_545 S
O918 C899 1.247 . S
C919 O916 1.244 . S
C919 O917 1.240 . S
H920 C894 0.931 . S
H921 C903 0.931 . S
H922 C907 0.929 . S
H923 C909 0.930 . S
Co924 N928 2.148 . S
Co924 N934 2.128 . S
Co924 N944 2.194 . S
Co924 O949 2.351 . S
Co924 O950 2.155 . S
Co924 O951 2.096 . S
C925 N928 1.301 . S
C925 N929 1.328 . S
C925 H930 0.930 . S
C926 C927 1.333 . S
C926 N928 1.317 . S
C926 H931 0.930 . S
C927 C926 1.333 . S
C927 N929 1.350 . S
C927 H953 0.931 . S
N928 Co924 2.148 . S
N928 C925 1.301 . S
N928 C926 1.317 . S
N929 C925 1.328 . S
N929 C927 1.350 . S
H930 C925 0.930 . S
H931 C926 0.930 . S
C932 O933 1.224 . S
C932 O951 1.247 . S
O933 C932 1.224 . S
N934 Co924 2.128 . S
N934 C935 1.355 . S
N934 C937 1.311 . S
C935 N934 1.355 . S
C935 C936 1.363 . S
C935 H947 0.929 . S
C936 C935 1.363 . S
C936 N938 1.375 . S
C936 H954 0.931 . S
C937 N934 1.311 . S
C937 N938 1.347 . S
C937 H948 0.929 . S
N938 C936 1.375 . S
N938 C937 1.347 . S
C939 C942 1.365 . S
C939 N944 1.328 . S
C939 H945 0.929 . S
C940 C941 1.362 . S
C940 C943 1.378 . S
C940 H955 0.929 . S
C941 C940 1.362 . S
C941 C942 1.366 . S
C942 C939 1.365 . S
C942 C941 1.366 . S
C942 H956 0.930 . S
C943 C940 1.378 . S
C943 N944 1.315 . S
C943 H946 0.930 . S
N944 Co924 2.194 . S
N944 C939 1.328 . S
N944 C943 1.315 . S
H945 C939 0.929 . S
H946 C943 0.930 . S
H947 C935 0.929 . S
H948 C937 0.929 . S
O949 Co924 2.351 . S
O949 C952 1.244 . S
O950 Co924 2.155 . S
O950 C952 1.240 . S
O951 Co924 2.096 . S
O951 C932 1.247 . S
C952 O949 1.244 . S
C952 O950 1.240 . S
H953 C927 0.931 . S
H954 C936 0.931 . S
H955 C940 0.929 . S
H956 C942 0.930 . S
Co957 N961 2.148 . S
Co957 N967 2.128 1_545 S
Co957 N977 2.194 . S
Co957 O982 2.351 . S
Co957 O983 2.155 . S
Co957 O984 2.096 1_545 S
C958 N961 1.301 . S
C958 N962 1.328 . S
C958 H963 0.930 . S
C959 C960 1.333 . S
C959 N961 1.317 . S
C959 H964 0.930 . S
C960 C959 1.333 . S
C960 N962 1.350 . S
C960 H986 0.931 . S
N961 Co957 2.148 . S
N961 C958 1.301 . S
N961 C959 1.317 . S
N962 C958 1.328 . S
N962 C960 1.350 . S
H963 C958 0.930 . S
H964 C959 0.930 . S
C965 O966 1.224 . S
C965 O984 1.247 . S
O966 C965 1.224 . S
N967 Co957 2.128 1_565 S
N967 C968 1.355 . S
N967 C970 1.311 . S
C968 N967 1.355 . S
C968 C969 1.363 . S
C968 H980 0.929 . S
C969 C968 1.363 . S
C969 N971 1.375 . S
C969 H987 0.931 . S
C970 N967 1.311 . S
C970 N971 1.347 . S
C970 H981 0.929 . S
N971 C969 1.375 . S
N971 C970 1.347 . S
C972 C975 1.365 . S
C972 N977 1.328 . S
C972 H978 0.929 . S
C973 C974 1.362 1_565 S
C973 C976 1.378 . S
C973 H988 0.929 . S
C974 C973 1.362 1_545 S
C974 C975 1.366 . S
C975 C972 1.365 . S
C975 C974 1.366 . S
C975 H989 0.930 . S
C976 C973 1.378 . S
C976 N977 1.315 1_565 S
C976 H979 0.930 . S
N977 Co957 2.194 . S
N977 C972 1.328 . S
N977 C976 1.315 1_545 S
H978 C972 0.929 . S
H979 C976 0.930 . S
H980 C968 0.929 . S
H981 C970 0.929 . S
O982 Co957 2.351 . S
O982 C985 1.244 . S
O983 Co957 2.155 . S
O983 C985 1.240 . S
O984 Co957 2.096 1_565 S
O984 C965 1.247 . S
C985 O982 1.244 . S
C985 O983 1.240 . S
H986 C960 0.931 . S
H987 C969 0.931 . S
H988 C973 0.929 . S
H989 C975 0.930 . S
Co990 N994 2.148 . S
Co990 N1000 2.128 . S
Co990 N1010 2.194 . S
Co990 O1015 2.351 . S
Co990 O1016 2.155 . S
Co990 O1017 2.096 . S
C991 N994 1.301 . S
C991 N995 1.328 . S
C991 H996 0.930 . S
C992 C993 1.333 . S
C992 N994 1.317 . S
C992 H997 0.930 . S
C993 C992 1.333 . S
C993 N995 1.350 . S
C993 H1019 0.931 . S
N994 Co990 2.148 . S
N994 C991 1.301 . S
N994 C992 1.317 . S
N995 C991 1.328 . S
N995 C993 1.350 . S
H996 C991 0.930 . S
H997 C992 0.930 . S
C998 O999 1.224 . S
C998 O1017 1.247 . S
O999 C998 1.224 . S
N1000 Co990 2.128 . S
N1000 C1001 1.355 . S
N1000 C1003 1.311 . S
C1001 N1000 1.355 . S
C1001 C1002 1.363 . S
C1001 H1013 0.929 . S
C1002 C1001 1.363 . S
C1002 N1004 1.375 . S
C1002 H1020 0.931 . S
C1003 N1000 1.311 . S
C1003 N1004 1.347 . S
C1003 H1014 0.929 . S
N1004 C1002 1.375 . S
N1004 C1003 1.347 . S
C1005 C1008 1.365 . S
C1005 N1010 1.328 . S
C1005 H1011 0.929 . S
C1006 C1007 1.362 . S
C1006 C1009 1.378 . S
C1006 H1021 0.929 . S
C1007 C1006 1.362 . S
C1007 C1008 1.366 . S
C1008 C1005 1.365 . S
C1008 C1007 1.366 . S
C1008 H1022 0.930 . S
C1009 C1006 1.378 . S
C1009 N1010 1.315 . S
C1009 H1012 0.930 . S
N1010 Co990 2.194 . S
N1010 C1005 1.328 . S
N1010 C1009 1.315 . S
H1011 C1005 0.929 . S
H1012 C1009 0.930 . S
H1013 C1001 0.929 . S
H1014 C1003 0.929 . S
O1015 Co990 2.351 . S
O1015 C1018 1.244 . S
O1016 Co990 2.155 . S
O1016 C1018 1.240 . S
O1017 Co990 2.096 . S
O1017 C998 1.247 . S
C1018 O1015 1.244 . S
C1018 O1016 1.240 . S
H1019 C993 0.931 . S
H1020 C1002 0.931 . S
H1021 C1006 0.929 . S
H1022 C1008 0.930 . S
Co1023 N1027 2.148 . S
Co1023 N1033 2.128 1_545 S
Co1023 N1043 2.194 . S
Co1023 O1048 2.351 . S
Co1023 O1049 2.155 . S
Co1023 O1050 2.096 1_545 S
C1024 N1027 1.301 . S
C1024 N1028 1.328 . S
C1024 H1029 0.930 . S
C1025 C1026 1.333 . S
C1025 N1027 1.317 . S
C1025 H1030 0.930 . S
C1026 C1025 1.333 . S
C1026 N1028 1.350 . S
C1026 H1052 0.931 . S
N1027 Co1023 2.148 . S
N1027 C1024 1.301 . S
N1027 C1025 1.317 . S
N1028 C1024 1.328 . S
N1028 C1026 1.350 . S
H1029 C1024 0.930 . S
H1030 C1025 0.930 . S
C1031 O1032 1.224 . S
C1031 O1050 1.247 . S
O1032 C1031 1.224 . S
N1033 Co1023 2.128 1_565 S
N1033 C1034 1.355 . S
N1033 C1036 1.311 . S
C1034 N1033 1.355 . S
C1034 C1035 1.363 . S
C1034 H1046 0.929 . S
C1035 C1034 1.363 . S
C1035 N1037 1.375 . S
C1035 H1053 0.931 . S
C1036 N1033 1.311 . S
C1036 N1037 1.347 . S
C1036 H1047 0.929 . S
N1037 C1035 1.375 . S
N1037 C1036 1.347 . S
C1038 C1041 1.365 . S
C1038 N1043 1.328 . S
C1038 H1044 0.929 . S
C1039 C1040 1.362 1_565 S
C1039 C1042 1.378 . S
C1039 H1054 0.929 . S
C1040 C1039 1.362 1_545 S
C1040 C1041 1.366 . S
C1041 C1038 1.365 . S
C1041 C1040 1.366 . S
C1041 H1055 0.930 . S
C1042 C1039 1.378 . S
C1042 N1043 1.315 1_565 S
C1042 H1045 0.930 . S
N1043 Co1023 2.194 . S
N1043 C1038 1.328 . S
N1043 C1042 1.315 1_545 S
H1044 C1038 0.929 . S
H1045 C1042 0.930 . S
H1046 C1034 0.929 . S
H1047 C1036 0.929 . S
O1048 Co1023 2.351 . S
O1048 C1051 1.244 . S
O1049 Co1023 2.155 . S
O1049 C1051 1.240 . S
O1050 Co1023 2.096 1_565 S
O1050 C1031 1.247 . S
C1051 O1048 1.244 . S
C1051 O1049 1.240 . S
H1052 C1026 0.931 . S
H1053 C1035 0.931 . S
H1054 C1039 0.929 . S
H1055 C1041 0.930 . S
Co1056 N1060 2.148 . S
Co1056 N1066 2.128 . S
Co1056 N1076 2.194 . S
Co1056 O1081 2.351 . S
Co1056 O1082 2.155 . S
Co1056 O1083 2.096 . S
C1057 N1060 1.301 . S
C1057 N1061 1.328 . S
C1057 H1062 0.930 . S
C1058 C1059 1.333 . S
C1058 N1060 1.317 . S
C1058 H1063 0.930 . S
C1059 C1058 1.333 . S
C1059 N1061 1.350 . S
C1059 H1085 0.931 . S
N1060 Co1056 2.148 . S
N1060 C1057 1.301 . S
N1060 C1058 1.317 . S
N1061 C1057 1.328 . S
N1061 C1059 1.350 . S
H1062 C1057 0.930 . S
H1063 C1058 0.930 . S
C1064 O1065 1.224 . S
C1064 O1083 1.247 . S
O1065 C1064 1.224 . S
N1066 Co1056 2.128 . S
N1066 C1067 1.355 . S
N1066 C1069 1.311 . S
C1067 N1066 1.355 . S
C1067 C1068 1.363 . S
C1067 H1079 0.929 . S
C1068 C1067 1.363 . S
C1068 N1070 1.375 . S
C1068 H1086 0.931 . S
C1069 N1066 1.311 . S
C1069 N1070 1.347 . S
C1069 H1080 0.929 . S
N1070 C1068 1.375 . S
N1070 C1069 1.347 . S
C1071 C1074 1.365 . S
C1071 N1076 1.328 . S
C1071 H1077 0.929 . S
C1072 C1073 1.362 . S
C1072 C1075 1.378 . S
C1072 H1087 0.929 . S
C1073 C1072 1.362 . S
C1073 C1074 1.366 . S
C1074 C1071 1.365 . S
C1074 C1073 1.366 . S
C1074 H1088 0.930 . S
C1075 C1072 1.378 . S
C1075 N1076 1.315 . S
C1075 H1078 0.930 . S
N1076 Co1056 2.194 . S
N1076 C1071 1.328 . S
N1076 C1075 1.315 . S
H1077 C1071 0.929 . S
H1078 C1075 0.930 . S
H1079 C1067 0.929 . S
H1080 C1069 0.929 . S
O1081 Co1056 2.351 . S
O1081 C1084 1.244 . S
O1082 Co1056 2.155 . S
O1082 C1084 1.240 . S
O1083 Co1056 2.096 . S
O1083 C1064 1.247 . S
C1084 O1081 1.244 . S
C1084 O1082 1.240 . S
H1085 C1059 0.931 . S
H1086 C1068 0.931 . S
H1087 C1072 0.929 . S
H1088 C1074 0.930 . S
Co1089 N1093 2.148 . S
Co1089 N1099 2.128 . S
Co1089 N1109 2.194 . S
Co1089 O1114 2.351 . S
Co1089 O1115 2.155 . S
Co1089 O1116 2.096 . S
C1090 N1093 1.301 . S
C1090 N1094 1.328 . S
C1090 H1095 0.930 . S
C1091 C1092 1.333 . S
C1091 N1093 1.317 . S
C1091 H1096 0.930 . S
C1092 C1091 1.333 . S
C1092 N1094 1.350 . S
C1092 H1118 0.931 . S
N1093 Co1089 2.148 . S
N1093 C1090 1.301 . S
N1093 C1091 1.317 . S
N1094 C1090 1.328 . S
N1094 C1092 1.350 . S
H1095 C1090 0.930 . S
H1096 C1091 0.930 . S
C1097 O1098 1.224 . S
C1097 O1116 1.247 . S
O1098 C1097 1.224 . S
N1099 Co1089 2.128 . S
N1099 C1100 1.355 . S
N1099 C1102 1.311 . S
C1100 N1099 1.355 . S
C1100 C1101 1.363 . S
C1100 H1112 0.929 . S
C1101 C1100 1.363 . S
C1101 N1103 1.375 . S
C1101 H1119 0.931 . S
C1102 N1099 1.311 . S
C1102 N1103 1.347 . S
C1102 H1113 0.929 . S
N1103 C1101 1.375 . S
N1103 C1102 1.347 . S
C1104 C1107 1.365 . S
C1104 N1109 1.328 . S
C1104 H1110 0.929 . S
C1105 C1106 1.362 . S
C1105 C1108 1.378 . S
C1105 H1120 0.929 . S
C1106 C1105 1.362 . S
C1106 C1107 1.366 . S
C1107 C1104 1.365 . S
C1107 C1106 1.366 . S
C1107 H1121 0.930 . S
C1108 C1105 1.378 . S
C1108 N1109 1.315 . S
C1108 H1111 0.930 . S
N1109 Co1089 2.194 . S
N1109 C1104 1.328 . S
N1109 C1108 1.315 . S
H1110 C1104 0.929 . S
H1111 C1108 0.930 . S
H1112 C1100 0.929 . S
H1113 C1102 0.929 . S
O1114 Co1089 2.351 . S
O1114 C1117 1.244 . S
O1115 Co1089 2.155 . S
O1115 C1117 1.240 . S
O1116 Co1089 2.096 . S
O1116 C1097 1.247 . S
C1117 O1114 1.244 . S
C1117 O1115 1.240 . S
H1118 C1092 0.931 . S
H1119 C1101 0.931 . S
H1120 C1105 0.929 . S
H1121 C1107 0.930 . S
Co1122 N1126 2.148 . S
Co1122 N1132 2.128 . S
Co1122 N1142 2.194 . S
Co1122 O1147 2.351 . S
Co1122 O1148 2.155 . S
Co1122 O1149 2.096 . S
C1123 N1126 1.301 . S
C1123 N1127 1.328 . S
C1123 H1128 0.930 . S
C1124 C1125 1.333 . S
C1124 N1126 1.317 . S
C1124 H1129 0.930 . S
C1125 C1124 1.333 . S
C1125 N1127 1.350 . S
C1125 H1151 0.931 . S
N1126 Co1122 2.148 . S
N1126 C1123 1.301 . S
N1126 C1124 1.317 . S
N1127 C1123 1.328 . S
N1127 C1125 1.350 . S
H1128 C1123 0.930 . S
H1129 C1124 0.930 . S
C1130 O1131 1.224 . S
C1130 O1149 1.247 . S
O1131 C1130 1.224 . S
N1132 Co1122 2.128 . S
N1132 C1133 1.355 . S
N1132 C1135 1.311 . S
C1133 N1132 1.355 . S
C1133 C1134 1.363 . S
C1133 H1145 0.929 . S
C1134 C1133 1.363 . S
C1134 N1136 1.375 . S
C1134 H1152 0.931 . S
C1135 N1132 1.311 . S
C1135 N1136 1.347 . S
C1135 H1146 0.929 . S
N1136 C1134 1.375 . S
N1136 C1135 1.347 . S
C1137 C1140 1.365 . S
C1137 N1142 1.328 . S
C1137 H1143 0.929 . S
C1138 C1139 1.362 . S
C1138 C1141 1.378 . S
C1138 H1153 0.929 . S
C1139 C1138 1.362 . S
C1139 C1140 1.366 . S
C1140 C1137 1.365 . S
C1140 C1139 1.366 . S
C1140 H1154 0.930 . S
C1141 C1138 1.378 . S
C1141 N1142 1.315 . S
C1141 H1144 0.930 . S
N1142 Co1122 2.194 . S
N1142 C1137 1.328 . S
N1142 C1141 1.315 . S
H1143 C1137 0.929 . S
H1144 C1141 0.930 . S
H1145 C1133 0.929 . S
H1146 C1135 0.929 . S
O1147 Co1122 2.351 . S
O1147 C1150 1.244 . S
O1148 Co1122 2.155 . S
O1148 C1150 1.240 . S
O1149 Co1122 2.096 . S
O1149 C1130 1.247 . S
C1150 O1147 1.244 . S
C1150 O1148 1.240 . S
H1151 C1125 0.931 . S
H1152 C1134 0.931 . S
H1153 C1138 0.929 . S
H1154 C1140 0.930 . S
Co1155 N1159 2.148 . S
Co1155 N1165 2.128 . S
Co1155 N1175 2.194 . S
Co1155 O1180 2.351 . S
Co1155 O1181 2.155 . S
Co1155 O1182 2.096 . S
C1156 N1159 1.301 . S
C1156 N1160 1.328 . S
C1156 H1161 0.930 . S
C1157 C1158 1.333 . S
C1157 N1159 1.317 . S
C1157 H1162 0.930 . S
C1158 C1157 1.333 . S
C1158 N1160 1.350 . S
C1158 H1184 0.931 . S
N1159 Co1155 2.148 . S
N1159 C1156 1.301 . S
N1159 C1157 1.317 . S
N1160 C1156 1.328 . S
N1160 C1158 1.350 . S
H1161 C1156 0.930 . S
H1162 C1157 0.930 . S
C1163 O1164 1.224 . S
C1163 O1182 1.247 . S
O1164 C1163 1.224 . S
N1165 Co1155 2.128 . S
N1165 C1166 1.355 . S
N1165 C1168 1.311 . S
C1166 N1165 1.355 . S
C1166 C1167 1.363 . S
C1166 H1178 0.929 . S
C1167 C1166 1.363 . S
C1167 N1169 1.375 . S
C1167 H1185 0.931 . S
C1168 N1165 1.311 . S
C1168 N1169 1.347 . S
C1168 H1179 0.929 . S
N1169 C1167 1.375 . S
N1169 C1168 1.347 . S
C1170 C1173 1.365 . S
C1170 N1175 1.328 . S
C1170 H1176 0.929 . S
C1171 C1172 1.362 . S
C1171 C1174 1.378 . S
C1171 H1186 0.929 . S
C1172 C1171 1.362 . S
C1172 C1173 1.366 . S
C1173 C1170 1.365 . S
C1173 C1172 1.366 . S
C1173 H1187 0.930 . S
C1174 C1171 1.378 . S
C1174 N1175 1.315 . S
C1174 H1177 0.930 . S
N1175 Co1155 2.194 . S
N1175 C1170 1.328 . S
N1175 C1174 1.315 . S
H1176 C1170 0.929 . S
H1177 C1174 0.930 . S
H1178 C1166 0.929 . S
H1179 C1168 0.929 . S
O1180 Co1155 2.351 . S
O1180 C1183 1.244 . S
O1181 Co1155 2.155 . S
O1181 C1183 1.240 . S
O1182 Co1155 2.096 . S
O1182 C1163 1.247 . S
C1183 O1180 1.244 . S
C1183 O1181 1.240 . S
H1184 C1158 0.931 . S
H1185 C1167 0.931 . S
H1186 C1171 0.929 . S
H1187 C1173 0.930 . S
Co1188 N1192 2.148 . S
Co1188 N1198 2.128 . S
Co1188 N1208 2.194 . S
Co1188 O1213 2.351 . S
Co1188 O1214 2.155 . S
Co1188 O1215 2.096 . S
C1189 N1192 1.301 . S
C1189 N1193 1.328 . S
C1189 H1194 0.930 . S
C1190 C1191 1.333 . S
C1190 N1192 1.317 . S
C1190 H1195 0.930 . S
C1191 C1190 1.333 . S
C1191 N1193 1.350 . S
C1191 H1217 0.931 . S
N1192 Co1188 2.148 . S
N1192 C1189 1.301 . S
N1192 C1190 1.317 . S
N1193 C1189 1.328 . S
N1193 C1191 1.350 . S
H1194 C1189 0.930 . S
H1195 C1190 0.930 . S
C1196 O1197 1.224 . S
C1196 O1215 1.247 . S
O1197 C1196 1.224 . S
N1198 Co1188 2.128 . S
N1198 C1199 1.355 . S
N1198 C1201 1.311 . S
C1199 N1198 1.355 . S
C1199 C1200 1.363 . S
C1199 H1211 0.929 . S
C1200 C1199 1.363 . S
C1200 N1202 1.375 . S
C1200 H1218 0.931 . S
C1201 N1198 1.311 . S
C1201 N1202 1.347 . S
C1201 H1212 0.929 . S
N1202 C1200 1.375 . S
N1202 C1201 1.347 . S
C1203 C1206 1.365 . S
C1203 N1208 1.328 . S
C1203 H1209 0.929 . S
C1204 C1205 1.362 . S
C1204 C1207 1.378 . S
C1204 H1219 0.929 . S
C1205 C1204 1.362 . S
C1205 C1206 1.366 . S
C1206 C1203 1.365 . S
C1206 C1205 1.366 . S
C1206 H1220 0.930 . S
C1207 C1204 1.378 . S
C1207 N1208 1.315 . S
C1207 H1210 0.930 . S
N1208 Co1188 2.194 . S
N1208 C1203 1.328 . S
N1208 C1207 1.315 . S
H1209 C1203 0.929 . S
H1210 C1207 0.930 . S
H1211 C1199 0.929 . S
H1212 C1201 0.929 . S
O1213 Co1188 2.351 . S
O1213 C1216 1.244 . S
O1214 Co1188 2.155 . S
O1214 C1216 1.240 . S
O1215 Co1188 2.096 . S
O1215 C1196 1.247 . S
C1216 O1213 1.244 . S
C1216 O1214 1.240 . S
H1217 C1191 0.931 . S
H1218 C1200 0.931 . S
H1219 C1204 0.929 . S
H1220 C1206 0.930 . S
Co1221 N1225 2.148 . S
Co1221 N1231 2.128 . S
Co1221 N1241 2.194 . S
Co1221 O1246 2.351 . S
Co1221 O1247 2.155 . S
Co1221 O1248 2.096 . S
C1222 N1225 1.301 . S
C1222 N1226 1.328 . S
C1222 H1227 0.930 . S
C1223 C1224 1.333 . S
C1223 N1225 1.317 . S
C1223 H1228 0.930 . S
C1224 C1223 1.333 . S
C1224 N1226 1.350 . S
C1224 H1250 0.931 . S
N1225 Co1221 2.148 . S
N1225 C1222 1.301 . S
N1225 C1223 1.317 . S
N1226 C1222 1.328 . S
N1226 C1224 1.350 . S
H1227 C1222 0.930 . S
H1228 C1223 0.930 . S
C1229 O1230 1.224 . S
C1229 O1248 1.247 . S
O1230 C1229 1.224 . S
N1231 Co1221 2.128 . S
N1231 C1232 1.355 . S
N1231 C1234 1.311 . S
C1232 N1231 1.355 . S
C1232 C1233 1.363 . S
C1232 H1244 0.929 . S
C1233 C1232 1.363 . S
C1233 N1235 1.375 . S
C1233 H1251 0.931 . S
C1234 N1231 1.311 . S
C1234 N1235 1.347 . S
C1234 H1245 0.929 . S
N1235 C1233 1.375 . S
N1235 C1234 1.347 . S
C1236 C1239 1.365 . S
C1236 N1241 1.328 . S
C1236 H1242 0.929 . S
C1237 C1238 1.362 . S
C1237 C1240 1.378 . S
C1237 H1252 0.929 . S
C1238 C1237 1.362 . S
C1238 C1239 1.366 . S
C1239 C1236 1.365 . S
C1239 C1238 1.366 . S
C1239 H1253 0.930 . S
C1240 C1237 1.378 . S
C1240 N1241 1.315 . S
C1240 H1243 0.930 . S
N1241 Co1221 2.194 . S
N1241 C1236 1.328 . S
N1241 C1240 1.315 . S
H1242 C1236 0.929 . S
H1243 C1240 0.930 . S
H1244 C1232 0.929 . S
H1245 C1234 0.929 . S
O1246 Co1221 2.351 . S
O1246 C1249 1.244 . S
O1247 Co1221 2.155 . S
O1247 C1249 1.240 . S
O1248 Co1221 2.096 . S
O1248 C1229 1.247 . S
C1249 O1246 1.244 . S
C1249 O1247 1.240 . S
H1250 C1224 0.931 . S
H1251 C1233 0.931 . S
H1252 C1237 0.929 . S
H1253 C1239 0.930 . S
Co1254 N1258 2.148 . S
Co1254 N1264 2.128 . S
Co1254 N1274 2.194 . S
Co1254 O1279 2.351 . S
Co1254 O1280 2.155 . S
Co1254 O1281 2.096 . S
C1255 N1258 1.301 . S
C1255 N1259 1.328 . S
C1255 H1260 0.930 . S
C1256 C1257 1.333 . S
C1256 N1258 1.317 . S
C1256 H1261 0.930 . S
C1257 C1256 1.333 . S
C1257 N1259 1.350 . S
C1257 H1283 0.931 . S
N1258 Co1254 2.148 . S
N1258 C1255 1.301 . S
N1258 C1256 1.317 . S
N1259 C1255 1.328 . S
N1259 C1257 1.350 . S
H1260 C1255 0.930 . S
H1261 C1256 0.930 . S
C1262 O1263 1.224 . S
C1262 O1281 1.247 . S
O1263 C1262 1.224 . S
N1264 Co1254 2.128 . S
N1264 C1265 1.355 . S
N1264 C1267 1.311 . S
C1265 N1264 1.355 . S
C1265 C1266 1.363 . S
C1265 H1277 0.929 . S
C1266 C1265 1.363 . S
C1266 N1268 1.375 . S
C1266 H1284 0.931 . S
C1267 N1264 1.311 . S
C1267 N1268 1.347 . S
C1267 H1278 0.929 . S
N1268 C1266 1.375 . S
N1268 C1267 1.347 . S
C1269 C1272 1.365 . S
C1269 N1274 1.328 . S
C1269 H1275 0.929 . S
C1270 C1271 1.362 . S
C1270 C1273 1.378 . S
C1270 H1285 0.929 . S
C1271 C1270 1.362 . S
C1271 C1272 1.366 . S
C1272 C1269 1.365 . S
C1272 C1271 1.366 . S
C1272 H1286 0.930 . S
C1273 C1270 1.378 . S
C1273 N1274 1.315 . S
C1273 H1276 0.930 . S
N1274 Co1254 2.194 . S
N1274 C1269 1.328 . S
N1274 C1273 1.315 . S
H1275 C1269 0.929 . S
H1276 C1273 0.930 . S
H1277 C1265 0.929 . S
H1278 C1267 0.929 . S
O1279 Co1254 2.351 . S
O1279 C1282 1.244 . S
O1280 Co1254 2.155 . S
O1280 C1282 1.240 . S
O1281 Co1254 2.096 . S
O1281 C1262 1.247 . S
C1282 O1279 1.244 . S
C1282 O1280 1.240 . S
H1283 C1257 0.931 . S
H1284 C1266 0.931 . S
H1285 C1270 0.929 . S
H1286 C1272 0.930 . S
Co1287 N1291 2.148 . S
Co1287 N1297 2.128 . S
Co1287 N1307 2.194 . S
Co1287 O1312 2.351 . S
Co1287 O1313 2.155 . S
Co1287 O1314 2.096 . S
C1288 N1291 1.301 . S
C1288 N1292 1.328 . S
C1288 H1293 0.930 . S
C1289 C1290 1.333 . S
C1289 N1291 1.317 . S
C1289 H1294 0.930 . S
C1290 C1289 1.333 . S
C1290 N1292 1.350 . S
C1290 H1316 0.931 . S
N1291 Co1287 2.148 . S
N1291 C1288 1.301 . S
N1291 C1289 1.317 . S
N1292 C1288 1.328 . S
N1292 C1290 1.350 . S
H1293 C1288 0.930 . S
H1294 C1289 0.930 . S
C1295 O1296 1.224 . S
C1295 O1314 1.247 . S
O1296 C1295 1.224 . S
N1297 Co1287 2.128 . S
N1297 C1298 1.355 . S
N1297 C1300 1.311 . S
C1298 N1297 1.355 . S
C1298 C1299 1.363 . S
C1298 H1310 0.929 . S
C1299 C1298 1.363 . S
C1299 N1301 1.375 . S
C1299 H1317 0.931 . S
C1300 N1297 1.311 . S
C1300 N1301 1.347 . S
C1300 H1311 0.929 . S
N1301 C1299 1.375 . S
N1301 C1300 1.347 . S
C1302 C1305 1.365 . S
C1302 N1307 1.328 . S
C1302 H1308 0.929 . S
C1303 C1304 1.362 . S
C1303 C1306 1.378 . S
C1303 H1318 0.929 . S
C1304 C1303 1.362 . S
C1304 C1305 1.366 . S
C1305 C1302 1.365 . S
C1305 C1304 1.366 . S
C1305 H1319 0.930 . S
C1306 C1303 1.378 . S
C1306 N1307 1.315 . S
C1306 H1309 0.930 . S
N1307 Co1287 2.194 . S
N1307 C1302 1.328 . S
N1307 C1306 1.315 . S
H1308 C1302 0.929 . S
H1309 C1306 0.930 . S
H1310 C1298 0.929 . S
H1311 C1300 0.929 . S
O1312 Co1287 2.351 . S
O1312 C1315 1.244 . S
O1313 Co1287 2.155 . S
O1313 C1315 1.240 . S
O1314 Co1287 2.096 . S
O1314 C1295 1.247 . S
C1315 O1312 1.244 . S
C1315 O1313 1.240 . S
H1316 C1290 0.931 . S
H1317 C1299 0.931 . S
H1318 C1303 0.929 . S
H1319 C1305 0.930 . S
Co1320 N1324 2.148 . S
Co1320 N1330 2.128 . S
Co1320 N1340 2.194 . S
Co1320 O1345 2.351 . S
Co1320 O1346 2.155 . S
Co1320 O1347 2.096 . S
C1321 N1324 1.301 . S
C1321 N1325 1.328 . S
C1321 H1326 0.930 . S
C1322 C1323 1.333 . S
C1322 N1324 1.317 . S
C1322 H1327 0.930 . S
C1323 C1322 1.333 . S
C1323 N1325 1.350 . S
C1323 H1349 0.931 . S
N1324 Co1320 2.148 . S
N1324 C1321 1.301 . S
N1324 C1322 1.317 . S
N1325 C1321 1.328 . S
N1325 C1323 1.350 . S
H1326 C1321 0.930 . S
H1327 C1322 0.930 . S
C1328 O1329 1.224 . S
C1328 O1347 1.247 . S
O1329 C1328 1.224 . S
N1330 Co1320 2.128 . S
N1330 C1331 1.355 . S
N1330 C1333 1.311 . S
C1331 N1330 1.355 . S
C1331 C1332 1.363 . S
C1331 H1343 0.929 . S
C1332 C1331 1.363 . S
C1332 N1334 1.375 . S
C1332 H1350 0.931 . S
C1333 N1330 1.311 . S
C1333 N1334 1.347 . S
C1333 H1344 0.929 . S
N1334 C1332 1.375 . S
N1334 C1333 1.347 . S
C1335 C1338 1.365 . S
C1335 N1340 1.328 . S
C1335 H1341 0.929 . S
C1336 C1337 1.362 . S
C1336 C1339 1.378 . S
C1336 H1351 0.929 . S
C1337 C1336 1.362 . S
C1337 C1338 1.366 . S
C1338 C1335 1.365 . S
C1338 C1337 1.366 . S
C1338 H1352 0.930 . S
C1339 C1336 1.378 . S
C1339 N1340 1.315 . S
C1339 H1342 0.930 . S
N1340 Co1320 2.194 . S
N1340 C1335 1.328 . S
N1340 C1339 1.315 . S
H1341 C1335 0.929 . S
H1342 C1339 0.930 . S
H1343 C1331 0.929 . S
H1344 C1333 0.929 . S
O1345 Co1320 2.351 . S
O1345 C1348 1.244 . S
O1346 Co1320 2.155 . S
O1346 C1348 1.240 . S
O1347 Co1320 2.096 . S
O1347 C1328 1.247 . S
C1348 O1345 1.244 . S
C1348 O1346 1.240 . S
H1349 C1323 0.931 . S
H1350 C1332 0.931 . S
H1351 C1336 0.929 . S
H1352 C1338 0.930 . S
Co1353 N1357 2.148 . S
Co1353 N1363 2.128 . S
Co1353 N1373 2.194 . S
Co1353 O1378 2.351 . S
Co1353 O1379 2.155 . S
Co1353 O1380 2.096 . S
C1354 N1357 1.301 . S
C1354 N1358 1.328 . S
C1354 H1359 0.930 . S
C1355 C1356 1.333 . S
C1355 N1357 1.317 . S
C1355 H1360 0.930 . S
C1356 C1355 1.333 . S
C1356 N1358 1.350 . S
C1356 H1382 0.931 . S
N1357 Co1353 2.148 . S
N1357 C1354 1.301 . S
N1357 C1355 1.317 . S
N1358 C1354 1.328 . S
N1358 C1356 1.350 . S
H1359 C1354 0.930 . S
H1360 C1355 0.930 . S
C1361 O1362 1.224 . S
C1361 O1380 1.247 . S
O1362 C1361 1.224 . S
N1363 Co1353 2.128 . S
N1363 C1364 1.355 . S
N1363 C1366 1.311 . S
C1364 N1363 1.355 . S
C1364 C1365 1.363 . S
C1364 H1376 0.929 . S
C1365 C1364 1.363 . S
C1365 N1367 1.375 . S
C1365 H1383 0.931 . S
C1366 N1363 1.311 . S
C1366 N1367 1.347 . S
C1366 H1377 0.929 . S
N1367 C1365 1.375 . S
N1367 C1366 1.347 . S
C1368 C1371 1.365 . S
C1368 N1373 1.328 . S
C1368 H1374 0.929 . S
C1369 C1370 1.362 . S
C1369 C1372 1.378 . S
C1369 H1384 0.929 . S
C1370 C1369 1.362 . S
C1370 C1371 1.366 . S
C1371 C1368 1.365 . S
C1371 C1370 1.366 . S
C1371 H1385 0.930 . S
C1372 C1369 1.378 . S
C1372 N1373 1.315 . S
C1372 H1375 0.930 . S
N1373 Co1353 2.194 . S
N1373 C1368 1.328 . S
N1373 C1372 1.315 . S
H1374 C1368 0.929 . S
H1375 C1372 0.930 . S
H1376 C1364 0.929 . S
H1377 C1366 0.929 . S
O1378 Co1353 2.351 . S
O1378 C1381 1.244 . S
O1379 Co1353 2.155 . S
O1379 C1381 1.240 . S
O1380 Co1353 2.096 . S
O1380 C1361 1.247 . S
C1381 O1378 1.244 . S
C1381 O1379 1.240 . S
H1382 C1356 0.931 . S
H1383 C1365 0.931 . S
H1384 C1369 0.929 . S
H1385 C1371 0.930 . S
Co1386 N1390 2.148 . S
Co1386 N1396 2.128 . S
Co1386 N1406 2.194 . S
Co1386 O1411 2.351 . S
Co1386 O1412 2.155 . S
Co1386 O1413 2.096 . S
C1387 N1390 1.301 . S
C1387 N1391 1.328 . S
C1387 H1392 0.930 . S
C1388 C1389 1.333 . S
C1388 N1390 1.317 . S
C1388 H1393 0.930 . S
C1389 C1388 1.333 . S
C1389 N1391 1.350 . S
C1389 H1415 0.931 . S
N1390 Co1386 2.148 . S
N1390 C1387 1.301 . S
N1390 C1388 1.317 . S
N1391 C1387 1.328 . S
N1391 C1389 1.350 . S
H1392 C1387 0.930 . S
H1393 C1388 0.930 . S
C1394 O1395 1.224 . S
C1394 O1413 1.247 . S
O1395 C1394 1.224 . S
N1396 Co1386 2.128 . S
N1396 C1397 1.355 . S
N1396 C1399 1.311 . S
C1397 N1396 1.355 . S
C1397 C1398 1.363 . S
C1397 H1409 0.929 . S
C1398 C1397 1.363 . S
C1398 N1400 1.375 . S
C1398 H1416 0.931 . S
C1399 N1396 1.311 . S
C1399 N1400 1.347 . S
C1399 H1410 0.929 . S
N1400 C1398 1.375 . S
N1400 C1399 1.347 . S
C1401 C1404 1.365 . S
C1401 N1406 1.328 . S
C1401 H1407 0.929 . S
C1402 C1403 1.362 . S
C1402 C1405 1.378 . S
C1402 H1417 0.929 . S
C1403 C1402 1.362 . S
C1403 C1404 1.366 . S
C1404 C1401 1.365 . S
C1404 C1403 1.366 . S
C1404 H1418 0.930 . S
C1405 C1402 1.378 . S
C1405 N1406 1.315 . S
C1405 H1408 0.930 . S
N1406 Co1386 2.194 . S
N1406 C1401 1.328 . S
N1406 C1405 1.315 . S
H1407 C1401 0.929 . S
H1408 C1405 0.930 . S
H1409 C1397 0.929 . S
H1410 C1399 0.929 . S
O1411 Co1386 2.351 . S
O1411 C1414 1.244 . S
O1412 Co1386 2.155 . S
O1412 C1414 1.240 . S
O1413 Co1386 2.096 . S
O1413 C1394 1.247 . S
C1414 O1411 1.244 . S
C1414 O1412 1.240 . S
H1415 C1389 0.931 . S
H1416 C1398 0.931 . S
H1417 C1402 0.929 . S
H1418 C1404 0.930 . S
Co1419 N1423 2.148 . S
Co1419 N1429 2.128 . S
Co1419 N1439 2.194 . S
Co1419 O1444 2.351 . S
Co1419 O1445 2.155 . S
Co1419 O1446 2.096 . S
C1420 N1423 1.301 . S
C1420 N1424 1.328 . S
C1420 H1425 0.930 . S
C1421 C1422 1.333 . S
C1421 N1423 1.317 . S
C1421 H1426 0.930 . S
C1422 C1421 1.333 . S
C1422 N1424 1.350 . S
C1422 H1448 0.931 . S
N1423 Co1419 2.148 . S
N1423 C1420 1.301 . S
N1423 C1421 1.317 . S
N1424 C1420 1.328 . S
N1424 C1422 1.350 . S
H1425 C1420 0.930 . S
H1426 C1421 0.930 . S
C1427 O1428 1.224 . S
C1427 O1446 1.247 . S
O1428 C1427 1.224 . S
N1429 Co1419 2.128 . S
N1429 C1430 1.355 . S
N1429 C1432 1.311 . S
C1430 N1429 1.355 . S
C1430 C1431 1.363 . S
C1430 H1442 0.929 . S
C1431 C1430 1.363 . S
C1431 N1433 1.375 . S
C1431 H1449 0.931 . S
C1432 N1429 1.311 . S
C1432 N1433 1.347 . S
C1432 H1443 0.929 . S
N1433 C1431 1.375 . S
N1433 C1432 1.347 . S
C1434 C1437 1.365 . S
C1434 N1439 1.328 . S
C1434 H1440 0.929 . S
C1435 C1436 1.362 . S
C1435 C1438 1.378 . S
C1435 H1450 0.929 . S
C1436 C1435 1.362 . S
C1436 C1437 1.366 . S
C1437 C1434 1.365 . S
C1437 C1436 1.366 . S
C1437 H1451 0.930 . S
C1438 C1435 1.378 . S
C1438 N1439 1.315 . S
C1438 H1441 0.930 . S
N1439 Co1419 2.194 . S
N1439 C1434 1.328 . S
N1439 C1438 1.315 . S
H1440 C1434 0.929 . S
H1441 C1438 0.930 . S
H1442 C1430 0.929 . S
H1443 C1432 0.929 . S
O1444 Co1419 2.351 . S
O1444 C1447 1.244 . S
O1445 Co1419 2.155 . S
O1445 C1447 1.240 . S
O1446 Co1419 2.096 . S
O1446 C1427 1.247 . S
C1447 O1444 1.244 . S
C1447 O1445 1.240 . S
H1448 C1422 0.931 . S
H1449 C1431 0.931 . S
H1450 C1435 0.929 . S
H1451 C1437 0.930 . S
Co1452 N1456 2.148 1_554 S
Co1452 N1462 2.128 . S
Co1452 N1472 2.193 . S
Co1452 O1477 2.351 1_554 S
Co1452 O1478 2.155 1_554 S
Co1452 O1479 2.096 . S
C1453 N1456 1.301 . S
C1453 N1457 1.328 . S
C1453 H1458 0.930 . S
C1454 C1455 1.333 . S
C1454 N1456 1.317 . S
C1454 H1459 0.930 . S
C1455 C1454 1.333 . S
C1455 N1457 1.350 . S
C1455 H1481 0.931 . S
N1456 Co1452 2.148 1_556 S
N1456 C1453 1.301 . S
N1456 C1454 1.317 . S
N1457 C1453 1.328 . S
N1457 C1455 1.350 . S
H1458 C1453 0.930 . S
H1459 C1454 0.930 . S
C1460 O1461 1.224 . S
C1460 O1479 1.247 . S
O1461 C1460 1.224 . S
N1462 Co1452 2.128 . S
N1462 C1463 1.355 . S
N1462 C1465 1.311 . S
C1463 N1462 1.355 . S
C1463 C1464 1.363 . S
C1463 H1475 0.929 . S
C1464 C1463 1.363 . S
C1464 N1466 1.375 . S
C1464 H1482 0.931 . S
C1465 N1462 1.311 . S
C1465 N1466 1.347 . S
C1465 H1476 0.929 . S
N1466 C1464 1.375 . S
N1466 C1465 1.347 . S
C1467 C1470 1.365 . S
C1467 N1472 1.330 1_556 S
C1467 H1473 0.929 . S
C1468 C1469 1.362 . S
C1468 C1471 1.378 . S
C1468 H1483 0.929 . S
C1469 C1468 1.362 . S
C1469 C1470 1.366 1_554 S
C1470 C1467 1.365 . S
C1470 C1469 1.366 1_556 S
C1470 H1484 0.930 . S
C1471 C1468 1.378 . S
C1471 N1472 1.313 . S
C1471 H1474 0.930 . S
N1472 Co1452 2.193 . S
N1472 C1467 1.330 1_554 S
N1472 C1471 1.313 . S
H1473 C1467 0.929 . S
H1474 C1471 0.930 . S
H1475 C1463 0.929 . S
H1476 C1465 0.929 . S
O1477 Co1452 2.351 1_556 S
O1477 C1480 1.244 . S
O1478 Co1452 2.155 1_556 S
O1478 C1480 1.240 . S
O1479 Co1452 2.096 . S
O1479 C1460 1.247 . S
C1480 O1477 1.244 . S
C1480 O1478 1.240 . S
H1481 C1455 0.931 . S
H1482 C1464 0.931 . S
H1483 C1468 0.929 . S
H1484 C1470 0.930 . S
Co1485 N1489 2.119 1_554 S
Co1485 N1495 2.160 . S
Co1485 N1505 2.191 1_554 S
Co1485 O1510 2.316 1_554 S
Co1485 O1511 2.134 1_554 S
Co1485 O1512 2.124 . S
C1486 N1489 1.301 . S
C1486 N1490 1.328 . S
C1486 H1491 0.930 . S
C1487 C1488 1.333 . S
C1487 N1489 1.317 . S
C1487 H1492 0.930 . S
C1488 C1487 1.333 . S
C1488 N1490 1.350 . S
C1488 H1514 0.931 . S
N1489 Co1485 2.119 1_556 S
N1489 C1486 1.301 . S
N1489 C1487 1.317 . S
N1490 C1486 1.328 . S
N1490 C1488 1.350 . S
H1491 C1486 0.930 . S
H1492 C1487 0.930 . S
C1493 O1494 1.224 . S
C1493 O1512 1.247 . S
O1494 C1493 1.224 . S
N1495 Co1485 2.160 . S
N1495 C1496 1.355 . S
N1495 C1498 1.311 . S
C1496 N1495 1.355 . S
C1496 C1497 1.363 . S
C1496 H1508 0.929 . S
C1497 C1496 1.363 . S
C1497 N1499 1.375 . S
C1497 H1515 0.931 . S
C1498 N1495 1.311 . S
C1498 N1499 1.347 . S
C1498 H1509 0.929 . S
N1499 C1497 1.375 . S
N1499 C1498 1.347 . S
C1500 C1503 1.365 . S
C1500 N1505 1.360 . S
C1500 H1506 0.929 . S
C1501 C1502 1.398 . S
C1501 C1504 1.378 . S
C1501 H1516 0.929 . S
C1502 C1501 1.398 . S
C1502 C1503 1.328 1_554 S
C1503 C1500 1.365 . S
C1503 C1502 1.328 1_556 S
C1503 H1517 0.930 . S
C1504 C1501 1.378 . S
C1504 N1505 1.284 1_554 S
C1504 H1507 0.930 . S
N1505 Co1485 2.191 1_556 S
N1505 C1500 1.360 . S
N1505 C1504 1.284 1_556 S
H1506 C1500 0.929 . S
H1507 C1504 0.930 . S
H1508 C1496 0.929 . S
H1509 C1498 0.929 . S
O1510 Co1485 2.316 1_556 S
O1510 C1513 1.244 . S
O1511 Co1485 2.134 1_556 S
O1511 C1513 1.240 . S
O1512 Co1485 2.124 . S
O1512 C1493 1.247 . S
C1513 O1510 1.244 . S
C1513 O1511 1.240 . S
H1514 C1488 0.931 . S
H1515 C1497 0.931 . S
H1516 C1501 0.929 . S
H1517 C1503 0.930 . S
Co1518 N1522 2.148 . S
Co1518 N1528 2.128 1_554 S
Co1518 N1538 2.194 . S
Co1518 O1543 2.351 . S
Co1518 O1544 2.155 . S
Co1518 O1545 2.096 1_554 S
C1519 N1522 1.301 . S
C1519 N1523 1.328 . S
C1519 H1524 0.930 . S
C1520 C1521 1.333 . S
C1520 N1522 1.317 . S
C1520 H1525 0.930 . S
C1521 C1520 1.333 . S
C1521 N1523 1.350 . S
C1521 H1547 0.931 . S
N1522 Co1518 2.148 . S
N1522 C1519 1.301 . S
N1522 C1520 1.317 . S
N1523 C1519 1.328 . S
N1523 C1521 1.350 . S
H1524 C1519 0.930 . S
H1525 C1520 0.930 . S
C1526 O1527 1.224 . S
C1526 O1545 1.247 . S
O1527 C1526 1.224 . S
N1528 Co1518 2.128 1_556 S
N1528 C1529 1.355 . S
N1528 C1531 1.311 . S
C1529 N1528 1.355 . S
C1529 C1530 1.363 . S
C1529 H1541 0.929 . S
C1530 C1529 1.363 . S
C1530 N1532 1.375 . S
C1530 H1548 0.931 . S
C1531 N1528 1.311 . S
C1531 N1532 1.347 . S
C1531 H1542 0.929 . S
N1532 C1530 1.375 . S
N1532 C1531 1.347 . S
C1533 C1536 1.365 . S
C1533 N1538 1.328 . S
C1533 H1539 0.929 . S
C1534 C1535 1.362 1_556 S
C1534 C1537 1.378 . S
C1534 H1549 0.929 . S
C1535 C1534 1.362 1_554 S
C1535 C1536 1.366 . S
C1536 C1533 1.365 . S
C1536 C1535 1.366 . S
C1536 H1550 0.930 . S
C1537 C1534 1.378 . S
C1537 N1538 1.315 1_556 S
C1537 H1540 0.930 . S
N1538 Co1518 2.194 . S
N1538 C1533 1.328 . S
N1538 C1537 1.315 1_554 S
H1539 C1533 0.929 . S
H1540 C1537 0.930 . S
H1541 C1529 0.929 . S
H1542 C1531 0.929 . S
O1543 Co1518 2.351 . S
O1543 C1546 1.244 . S
O1544 Co1518 2.155 . S
O1544 C1546 1.240 . S
O1545 Co1518 2.096 1_556 S
O1545 C1526 1.247 . S
C1546 O1543 1.244 . S
C1546 O1544 1.240 . S
H1547 C1521 0.931 . S
H1548 C1530 0.931 . S
H1549 C1534 0.929 . S
H1550 C1536 0.930 . S
Co1551 N1555 2.148 . S
Co1551 N1561 2.128 1_554 S
Co1551 N1571 2.194 . S
Co1551 O1576 2.351 . S
Co1551 O1577 2.155 . S
Co1551 O1578 2.096 1_554 S
C1552 N1555 1.301 . S
C1552 N1556 1.328 . S
C1552 H1557 0.930 . S
C1553 C1554 1.333 . S
C1553 N1555 1.317 . S
C1553 H1558 0.930 . S
C1554 C1553 1.333 . S
C1554 N1556 1.350 . S
C1554 H1580 0.931 . S
N1555 Co1551 2.148 . S
N1555 C1552 1.301 . S
N1555 C1553 1.317 . S
N1556 C1552 1.328 . S
N1556 C1554 1.350 . S
H1557 C1552 0.930 . S
H1558 C1553 0.930 . S
C1559 O1560 1.224 . S
C1559 O1578 1.247 . S
O1560 C1559 1.224 . S
N1561 Co1551 2.128 1_556 S
N1561 C1562 1.355 . S
N1561 C1564 1.311 . S
C1562 N1561 1.355 . S
C1562 C1563 1.363 . S
C1562 H1574 0.929 . S
C1563 C1562 1.363 . S
C1563 N1565 1.375 . S
C1563 H1581 0.931 . S
C1564 N1561 1.311 . S
C1564 N1565 1.347 . S
C1564 H1575 0.929 . S
N1565 C1563 1.375 . S
N1565 C1564 1.347 . S
C1566 C1569 1.365 . S
C1566 N1571 1.328 . S
C1566 H1572 0.929 . S
C1567 C1568 1.362 1_556 S
C1567 C1570 1.378 . S
C1567 H1582 0.929 . S
C1568 C1567 1.362 1_554 S
C1568 C1569 1.366 . S
C1569 C1566 1.365 . S
C1569 C1568 1.366 . S
C1569 H1583 0.930 . S
C1570 C1567 1.378 . S
C1570 N1571 1.315 1_556 S
C1570 H1573 0.930 . S
N1571 Co1551 2.194 . S
N1571 C1566 1.328 . S
N1571 C1570 1.315 1_554 S
H1572 C1566 0.929 . S
H1573 C1570 0.930 . S
H1574 C1562 0.929 . S
H1575 C1564 0.929 . S
O1576 Co1551 2.351 . S
O1576 C1579 1.244 . S
O1577 Co1551 2.155 . S
O1577 C1579 1.240 . S
O1578 Co1551 2.096 1_556 S
O1578 C1559 1.247 . S
C1579 O1576 1.244 . S
C1579 O1577 1.240 . S
H1580 C1554 0.931 . S
H1581 C1563 0.931 . S
H1582 C1567 0.929 . S
H1583 C1569 0.930 . S
H1584 C1590 0.930 . S
H1585 C1593 0.930 . S
H1586 C1594 0.930 . S
H1587 C1595 0.930 . S
H1588 C1598 0.930 . S
H1589 C1599 0.930 . S
C1590 H1584 0.930 . S
C1590 C1591 1.355 . S
C1590 C1592 1.415 . S
C1591 C1590 1.355 . S
C1591 C1593 1.419 1_455 S
C1592 C1590 1.415 . S
C1592 C1597 1.425 1_455 S
C1592 C1599 1.409 . S
C1593 H1585 0.930 . S
C1593 C1591 1.419 1_655 S
C1593 C1594 1.362 . S
C1594 H1586 0.930 . S
C1594 C1593 1.362 . S
C1594 C1597 1.409 . S
C1595 H1587 0.930 . S
C1595 C1596 1.355 1_655 S
C1595 C1597 1.415 . S
C1596 C1595 1.355 1_455 S
C1596 C1598 1.419 . S
C1597 C1592 1.425 1_655 S
C1597 C1594 1.409 . S
C1597 C1595 1.415 . S
C1598 H1588 0.930 . S
C1598 C1596 1.419 . S
C1598 C1599 1.362 . S
C1599 H1589 0.930 . S
C1599 C1592 1.409 . S
C1599 C1598 1.362 . S
H1600 C1606 0.927 1_565 S
H1601 C1609 0.930 . S
H1602 C1610 0.930 . S
H1603 C1611 0.930 . S
H1604 C1614 0.931 . S
H1605 C1615 0.929 . S
C1606 H1600 0.927 1_545 S
C1606 C1607 1.356 . S
C1606 C1608 1.416 . S
C1607 C1606 1.356 . S
C1607 C1609 1.419 . S
C1608 C1606 1.416 . S
C1608 C1613 1.425 . S
C1608 C1615 1.411 . S
C1609 H1601 0.930 . S
C1609 C1607 1.419 . S
C1609 C1610 1.362 . S
C1610 H1602 0.930 . S
C1610 C1609 1.362 . S
C1610 C1613 1.409 . S
C1611 H1603 0.930 . S
C1611 C1612 1.355 . S
C1611 C1613 1.415 . S
C1612 C1611 1.355 . S
C1612 C1614 1.419 . S
C1613 C1608 1.425 . S
C1613 C1610 1.409 . S
C1613 C1611 1.415 . S
C1614 H1604 0.931 . S
C1614 C1612 1.419 . S
C1614 C1615 1.364 . S
C1615 H1605 0.929 . S
C1615 C1608 1.411 . S
C1615 C1614 1.364 . S
H1616 C1622 0.930 . S
H1617 C1625 0.930 . S
H1618 C1626 0.930 . S
H1619 C1627 0.930 . S
H1620 C1630 0.930 . S
H1621 C1631 0.930 . S
C1622 H1616 0.930 . S
C1622 C1623 1.381 . S
C1622 C1624 1.415 . S
C1623 C1622 1.381 . S
C1623 C1625 1.386 1_455 S
C1624 C1622 1.415 . S
C1624 C1629 1.425 1_455 S
C1624 C1631 1.409 . S
C1625 H1617 0.930 . S
C1625 C1623 1.386 1_655 S
C1625 C1626 1.362 . S
C1626 H1618 0.930 . S
C1626 C1625 1.362 . S
C1626 C1629 1.409 . S
C1627 H1619 0.930 . S
C1627 C1628 1.339 1_655 S
C1627 C1629 1.415 . S
C1628 C1627 1.339 1_455 S
C1628 C1630 1.440 . S
C1629 C1624 1.425 1_655 S
C1629 C1626 1.409 . S
C1629 C1627 1.415 . S
C1630 H1620 0.930 . S
C1630 C1628 1.440 . S
C1630 C1631 1.362 . S
C1631 H1621 0.930 . S
C1631 C1624 1.409 . S
C1631 C1630 1.362 . S
H1632 C1638 0.930 . S
H1633 C1641 0.930 . S
H1634 C1642 0.930 . S
H1635 C1643 0.930 . S
H1636 C1646 0.930 . S
H1637 C1647 0.930 . S
C1638 H1632 0.930 . S
C1638 C1639 1.355 1_565 S
C1638 C1640 1.415 . S
C1639 C1638 1.355 1_545 S
C1639 C1641 1.419 . S
C1640 C1638 1.415 . S
C1640 C1645 1.425 1_565 S
C1640 C1647 1.409 . S
C1641 H1633 0.930 . S
C1641 C1639 1.419 . S
C1641 C1642 1.362 . S
C1642 H1634 0.930 . S
C1642 C1641 1.362 . S
C1642 C1645 1.409 . S
C1643 H1635 0.930 . S
C1643 C1644 1.355 1_545 S
C1643 C1645 1.415 . S
C1644 C1643 1.355 1_565 S
C1644 C1646 1.419 . S
C1645 C1640 1.425 1_545 S
C1645 C1642 1.409 . S
C1645 C1643 1.415 . S
C1646 H1636 0.930 . S
C1646 C1644 1.419 . S
C1646 C1647 1.362 . S
C1647 H1637 0.930 . S
C1647 C1640 1.409 . S
C1647 C1646 1.362 . S
H1648 C1654 0.930 . S
H1649 C1657 0.930 . S
H1650 C1658 0.930 . S
H1651 C1659 0.930 . S
H1652 C1662 0.930 . S
H1653 C1663 0.930 . S
C1654 H1648 0.930 . S
C1654 C1655 1.355 1_655 S
C1654 C1656 1.415 . S
C1655 C1654 1.355 1_455 S
C1655 C1657 1.419 . S
C1656 C1654 1.415 . S
C1656 C1661 1.425 1_655 S
C1656 C1663 1.409 . S
C1657 H1649 0.930 . S
C1657 C1655 1.419 . S
C1657 C1658 1.362 . S
C1658 H1650 0.930 . S
C1658 C1657 1.362 . S
C1658 C1661 1.409 . S
C1659 H1651 0.930 . S
C1659 C1660 1.354 1_455 S
C1659 C1661 1.415 . S
C1660 C1659 1.354 1_655 S
C1660 C1662 1.420 . S
C1661 C1656 1.425 1_455 S
C1661 C1658 1.409 . S
C1661 C1659 1.415 . S
C1662 H1652 0.930 . S
C1662 C1660 1.420 . S
C1662 C1663 1.362 . S
C1663 H1653 0.930 . S
C1663 C1656 1.409 . S
C1663 C1662 1.362 . S
H1664 C1670 0.930 . S
H1665 C1673 0.930 . S
H1666 C1674 0.930 . S
H1667 C1675 0.930 . S
H1668 C1678 0.930 . S
H1669 C1679 0.930 . S
C1670 H1664 0.930 . S
C1670 C1671 1.367 . S
C1670 C1672 1.415 . S
C1671 C1670 1.367 . S
C1671 C1673 1.405 1_545 S
C1672 C1670 1.415 . S
C1672 C1677 1.425 1_545 S
C1672 C1679 1.409 . S
C1673 H1665 0.930 . S
C1673 C1671 1.405 1_565 S
C1673 C1674 1.362 . S
C1674 H1666 0.930 . S
C1674 C1673 1.362 . S
C1674 C1677 1.409 . S
C1675 H1667 0.930 . S
C1675 C1676 1.355 1_565 S
C1675 C1677 1.415 . S
C1676 C1675 1.355 1_545 S
C1676 C1678 1.419 . S
C1677 C1672 1.425 1_565 S
C1677 C1674 1.409 . S
C1677 C1675 1.415 . S
C1678 H1668 0.930 . S
C1678 C1676 1.419 . S
C1678 C1679 1.362 . S
C1679 H1669 0.930 . S
C1679 C1672 1.409 . S
C1679 C1678 1.362 . S
H1680 C1686 0.930 . S
H1681 C1689 0.930 . S
H1682 C1690 0.930 . S
H1683 C1691 0.930 . S
H1684 C1694 0.930 . S
H1685 C1695 0.930 . S
C1686 H1680 0.930 . S
C1686 C1687 1.355 1_455 S
C1686 C1688 1.415 . S
C1687 C1686 1.355 1_655 S
C1687 C1689 1.419 . S
C1688 C1686 1.415 . S
C1688 C1693 1.425 1_455 S
C1688 C1695 1.409 . S
C1689 H1681 0.930 . S
C1689 C1687 1.419 . S
C1689 C1690 1.362 . S
C1690 H1682 0.930 . S
C1690 C1689 1.362 . S
C1690 C1693 1.409 . S
C1691 H1683 0.930 . S
C1691 C1692 1.355 1_655 S
C1691 C1693 1.415 . S
C1692 C1691 1.355 1_455 S
C1692 C1694 1.419 . S
C1693 C1688 1.425 1_655 S
C1693 C1690 1.409 . S
C1693 C1691 1.415 . S
C1694 H1684 0.930 . S
C1694 C1692 1.419 . S
C1694 C1695 1.362 . S
C1695 H1685 0.930 . S
C1695 C1688 1.409 . S
C1695 C1694 1.362 . S
H1696 C1702 0.928 1_565 S
H1697 C1705 0.930 . S
H1698 C1706 0.930 . S
H1699 C1707 0.930 . S
H1700 C1710 0.930 . S
H1701 C1711 0.930 . S
C1702 H1696 0.928 1_545 S
C1702 C1703 1.356 . S
C1702 C1704 1.414 1_545 S
C1703 C1702 1.356 . S
C1703 C1705 1.419 . S
C1704 C1702 1.414 1_565 S
C1704 C1709 1.423 1_565 S
C1704 C1711 1.412 . S
C1705 H1697 0.930 . S
C1705 C1703 1.419 . S
C1705 C1706 1.362 . S
C1706 H1698 0.930 . S
C1706 C1705 1.362 . S
C1706 C1709 1.409 . S
C1707 H1699 0.930 . S
C1707 C1708 1.351 1_545 S
C1707 C1709 1.415 . S
C1708 C1707 1.351 1_565 S
C1708 C1710 1.424 . S
C1709 C1704 1.423 1_545 S
C1709 C1706 1.409 . S
C1709 C1707 1.415 . S
C1710 H1700 0.930 . S
C1710 C1708 1.424 . S
C1710 C1711 1.362 . S
C1711 H1701 0.930 . S
C1711 C1704 1.412 . S
C1711 C1710 1.362 . S
H1712 C1718 0.930 . S
H1713 C1721 0.930 . S
H1714 C1722 0.930 . S
H1715 C1723 0.930 . S
H1716 C1726 0.930 . S
H1717 C1727 0.930 . S
C1718 H1712 0.930 . S
C1718 C1719 1.355 . S
C1718 C1720 1.415 . S
C1719 C1718 1.355 . S
C1719 C1721 1.419 1_554 S
C1720 C1718 1.415 . S
C1720 C1725 1.425 1_554 S
C1720 C1727 1.409 . S
C1721 H1713 0.930 . S
C1721 C1719 1.419 1_556 S
C1721 C1722 1.362 . S
C1722 H1714 0.930 . S
C1722 C1721 1.362 . S
C1722 C1725 1.409 . S
C1723 H1715 0.930 . S
C1723 C1724 1.355 1_556 S
C1723 C1725 1.415 . S
C1724 C1723 1.355 1_554 S
C1724 C1726 1.419 . S
C1725 C1720 1.425 1_556 S
C1725 C1722 1.409 . S
C1725 C1723 1.415 . S
C1726 H1716 0.930 . S
C1726 C1724 1.419 . S
C1726 C1727 1.362 . S
C1727 H1717 0.930 . S
C1727 C1720 1.409 . S
C1727 C1726 1.362 . S
H1728 C1734 0.930 . S
H1729 C1737 0.930 . S
H1730 C1738 0.930 . S
H1731 C1739 0.930 . S
H1732 C1742 0.930 . S
H1733 C1743 0.930 . S
C1734 H1728 0.930 . S
C1734 C1735 1.360 . S
C1734 C1736 1.415 . S
C1735 C1734 1.360 . S
C1735 C1737 1.412 1_554 S
C1736 C1734 1.415 . S
C1736 C1741 1.425 1_554 S
C1736 C1743 1.409 . S
C1737 H1729 0.930 . S
C1737 C1735 1.412 1_556 S
C1737 C1738 1.362 . S
C1738 H1730 0.930 . S
C1738 C1737 1.362 . S
C1738 C1741 1.409 . S
C1739 H1731 0.930 . S
C1739 C1740 1.355 1_556 S
C1739 C1741 1.415 . S
C1740 C1739 1.355 1_554 S
C1740 C1742 1.419 . S
C1741 C1736 1.425 1_556 S
C1741 C1738 1.409 . S
C1741 C1739 1.415 . S
C1742 H1732 0.930 . S
C1742 C1740 1.419 . S
C1742 C1743 1.362 . S
C1743 H1733 0.930 . S
C1743 C1736 1.409 . S
C1743 C1742 1.362 . S
H1744 C1750 0.930 . S
H1745 C1753 0.930 . S
H1746 C1754 0.930 . S
H1747 C1755 0.930 . S
H1748 C1758 0.930 . S
H1749 C1759 0.930 . S
C1750 H1744 0.930 . S
C1750 C1751 1.355 1_556 S
C1750 C1752 1.415 . S
C1751 C1750 1.355 1_554 S
C1751 C1753 1.419 . S
C1752 C1750 1.415 . S
C1752 C1757 1.425 1_556 S
C1752 C1759 1.409 . S
C1753 H1745 0.930 . S
C1753 C1751 1.419 . S
C1753 C1754 1.362 . S
C1754 H1746 0.930 . S
C1754 C1753 1.362 . S
C1754 C1757 1.409 . S
C1755 H1747 0.930 . S
C1755 C1756 1.355 . S
C1755 C1757 1.415 . S
C1756 C1755 1.355 . S
C1756 C1758 1.419 1_554 S
C1757 C1752 1.425 1_554 S
C1757 C1754 1.409 . S
C1757 C1755 1.415 . S
C1758 H1748 0.930 . S
C1758 C1756 1.419 1_556 S
C1758 C1759 1.362 . S
C1759 H1749 0.930 . S
C1759 C1752 1.409 . S
C1759 C1758 1.362 . S
H1760 C1766 0.930 . S
H1761 C1769 0.930 . S
H1762 C1770 0.930 . S
H1763 C1771 0.930 . S
H1764 C1774 0.930 . S
H1765 C1775 0.930 . S
C1766 H1760 0.930 . S
C1766 C1767 1.355 . S
C1766 C1768 1.415 . S
C1767 C1766 1.355 . S
C1767 C1769 1.419 1_554 S
C1768 C1766 1.415 . S
C1768 C1773 1.418 1_554 S
C1768 C1775 1.409 . S
C1769 H1761 0.930 . S
C1769 C1767 1.419 1_556 S
C1769 C1770 1.362 . S
C1770 H1762 0.930 . S
C1770 C1769 1.362 . S
C1770 C1773 1.413 . S
C1771 H1763 0.930 . S
C1771 C1772 1.355 . S
C1771 C1773 1.419 . S
C1772 C1771 1.355 . S
C1772 C1774 1.419 1_556 S
C1773 C1768 1.418 1_556 S
C1773 C1770 1.413 . S
C1773 C1771 1.419 . S
C1774 H1764 0.930 . S
C1774 C1772 1.419 1_554 S
C1774 C1775 1.362 . S
C1775 H1765 0.930 . S
C1775 C1768 1.409 . S
C1775 C1774 1.362 . S
H1776 C1782 0.930 . S
H1777 C1785 0.930 . S
H1778 C1786 0.930 . S
H1779 C1787 0.930 . S
H1780 C1790 0.930 . S
H1781 C1791 0.930 . S
C1782 H1776 0.930 . S
C1782 C1783 1.355 . S
C1782 C1784 1.415 . S
C1783 C1782 1.355 . S
C1783 C1785 1.419 . S
C1784 C1782 1.415 . S
C1784 C1789 1.425 . S
C1784 C1791 1.409 . S
C1785 H1777 0.930 . S
C1785 C1783 1.419 . S
C1785 C1786 1.362 . S
C1786 H1778 0.930 . S
C1786 C1785 1.362 . S
C1786 C1789 1.409 . S
C1787 H1779 0.930 . S
C1787 C1788 1.355 . S
C1787 C1789 1.415 . S
C1788 C1787 1.355 . S
C1788 C1790 1.419 . S
C1789 C1784 1.425 . S
C1789 C1786 1.409 . S
C1789 C1787 1.415 . S
C1790 H1780 0.930 . S
C1790 C1788 1.419 . S
C1790 C1791 1.362 . S
C1791 H1781 0.930 . S
C1791 C1784 1.409 . S
C1791 C1790 1.362 . S
H1792 C1798 0.930 . S
H1793 C1801 0.930 . S
H1794 C1802 0.930 . S
H1795 C1803 0.930 . S
H1796 C1806 0.930 . S
H1797 C1807 0.930 . S
C1798 H1792 0.930 . S
C1798 C1799 1.355 . S
C1798 C1800 1.415 . S
C1799 C1798 1.355 . S
C1799 C1801 1.419 . S
C1800 C1798 1.415 . S
C1800 C1805 1.425 . S
C1800 C1807 1.409 . S
C1801 H1793 0.930 . S
C1801 C1799 1.419 . S
C1801 C1802 1.362 . S
C1802 H1794 0.930 . S
C1802 C1801 1.362 . S
C1802 C1805 1.409 . S
C1803 H1795 0.930 . S
C1803 C1804 1.355 . S
C1803 C1805 1.415 . S
C1804 C1803 1.355 . S
C1804 C1806 1.419 . S
C1805 C1800 1.425 . S
C1805 C1802 1.409 . S
C1805 C1803 1.415 . S
C1806 H1796 0.930 . S
C1806 C1804 1.419 . S
C1806 C1807 1.362 . S
C1807 H1797 0.930 . S
C1807 C1800 1.409 . S
C1807 C1806 1.362 . S
H1808 C1814 0.930 . S
H1809 C1817 0.930 . S
H1810 C1818 0.930 . S
H1811 C1819 0.930 . S
H1812 C1822 0.930 . S
H1813 C1823 0.930 . S
C1814 H1808 0.930 . S
C1814 C1815 1.355 . S
C1814 C1816 1.415 . S
C1815 C1814 1.355 . S
C1815 C1817 1.419 . S
C1816 C1814 1.415 . S
C1816 C1821 1.425 . S
C1816 C1823 1.409 . S
C1817 H1809 0.930 . S
C1817 C1815 1.419 . S
C1817 C1818 1.362 . S
C1818 H1810 0.930 . S
C1818 C1817 1.362 . S
C1818 C1821 1.409 . S
C1819 H1811 0.930 . S
C1819 C1820 1.355 . S
C1819 C1821 1.415 . S
C1820 C1819 1.355 . S
C1820 C1822 1.419 . S
C1821 C1816 1.425 . S
C1821 C1818 1.409 . S
C1821 C1819 1.415 . S
C1822 H1812 0.930 . S
C1822 C1820 1.419 . S
C1822 C1823 1.362 . S
C1823 H1813 0.930 . S
C1823 C1816 1.409 . S
C1823 C1822 1.362 . S
H1824 C1830 0.930 . S
H1825 C1833 0.930 . S
H1826 C1834 0.930 . S
H1827 C1835 0.930 . S
H1828 C1838 0.930 . S
H1829 C1839 0.930 . S
C1830 H1824 0.930 . S
C1830 C1831 1.355 . S
C1830 C1832 1.415 . S
C1831 C1830 1.355 . S
C1831 C1833 1.419 . S
C1832 C1830 1.415 . S
C1832 C1837 1.425 . S
C1832 C1839 1.409 . S
C1833 H1825 0.930 . S
C1833 C1831 1.419 . S
C1833 C1834 1.362 . S
C1834 H1826 0.930 . S
C1834 C1833 1.362 . S
C1834 C1837 1.409 . S
C1835 H1827 0.930 . S
C1835 C1836 1.355 . S
C1835 C1837 1.415 . S
C1836 C1835 1.355 . S
C1836 C1838 1.419 . S
C1837 C1832 1.425 . S
C1837 C1834 1.409 . S
C1837 C1835 1.415 . S
C1838 H1828 0.930 . S
C1838 C1836 1.419 . S
C1838 C1839 1.362 . S
C1839 H1829 0.930 . S
C1839 C1832 1.409 . S
C1839 C1838 1.362 . S
H1840 C1846 0.930 . S
H1841 C1849 0.930 . S
H1842 C1850 0.930 . S
H1843 C1851 0.930 . S
H1844 C1854 0.930 . S
H1845 C1855 0.930 . S
C1846 H1840 0.930 . S
C1846 C1847 1.355 . S
C1846 C1848 1.415 . S
C1847 C1846 1.355 . S
C1847 C1849 1.419 . S
C1848 C1846 1.415 . S
C1848 C1853 1.425 . S
C1848 C1855 1.409 . S
C1849 H1841 0.930 . S
C1849 C1847 1.419 . S
C1849 C1850 1.362 . S
C1850 H1842 0.930 . S
C1850 C1849 1.362 . S
C1850 C1853 1.409 . S
C1851 H1843 0.930 . S
C1851 C1852 1.355 . S
C1851 C1853 1.415 . S
C1852 C1851 1.355 . S
C1852 C1854 1.419 . S
C1853 C1848 1.425 . S
C1853 C1850 1.409 . S
C1853 C1851 1.415 . S
C1854 H1844 0.930 . S
C1854 C1852 1.419 . S
C1854 C1855 1.362 . S
C1855 H1845 0.930 . S
C1855 C1848 1.409 . S
C1855 C1854 1.362 . S
H1856 C1862 0.930 . S
H1857 C1865 0.930 . S
H1858 C1866 0.930 . S
H1859 C1867 0.930 . S
H1860 C1870 0.930 . S
H1861 C1871 0.930 . S
C1862 H1856 0.930 . S
C1862 C1863 1.355 . S
C1862 C1864 1.415 . S
C1863 C1862 1.355 . S
C1863 C1865 1.419 . S
C1864 C1862 1.415 . S
C1864 C1869 1.425 . S
C1864 C1871 1.409 . S
C1865 H1857 0.930 . S
C1865 C1863 1.419 . S
C1865 C1866 1.362 . S
C1866 H1858 0.930 . S
C1866 C1865 1.362 . S
C1866 C1869 1.409 . S
C1867 H1859 0.930 . S
C1867 C1868 1.355 . S
C1867 C1869 1.415 . S
C1868 C1867 1.355 . S
C1868 C1870 1.419 . S
C1869 C1864 1.425 . S
C1869 C1866 1.409 . S
C1869 C1867 1.415 . S
C1870 H1860 0.930 . S
C1870 C1868 1.419 . S
C1870 C1871 1.362 . S
C1871 H1861 0.930 . S
C1871 C1864 1.409 . S
C1871 C1870 1.362 . S
H1872 C1878 0.930 . S
H1873 C1881 0.930 . S
H1874 C1882 0.930 . S
H1875 C1883 0.930 . S
H1876 C1886 0.930 . S
H1877 C1887 0.930 . S
C1878 H1872 0.930 . S
C1878 C1879 1.355 . S
C1878 C1880 1.415 . S
C1879 C1878 1.355 . S
C1879 C1881 1.419 . S
C1880 C1878 1.415 . S
C1880 C1885 1.425 . S
C1880 C1887 1.409 . S
C1881 H1873 0.930 . S
C1881 C1879 1.419 . S
C1881 C1882 1.362 . S
C1882 H1874 0.930 . S
C1882 C1881 1.362 . S
C1882 C1885 1.409 . S
C1883 H1875 0.930 . S
C1883 C1884 1.355 . S
C1883 C1885 1.415 . S
C1884 C1883 1.355 . S
C1884 C1886 1.419 . S
C1885 C1880 1.425 . S
C1885 C1882 1.409 . S
C1885 C1883 1.415 . S
C1886 H1876 0.930 . S
C1886 C1884 1.419 . S
C1886 C1887 1.362 . S
C1887 H1877 0.930 . S
C1887 C1880 1.409 . S
C1887 C1886 1.362 . S
H1888 C1894 0.930 . S
H1889 C1897 0.930 . S
H1890 C1898 0.930 . S
H1891 C1899 0.930 . S
H1892 C1902 0.930 . S
H1893 C1903 0.930 . S
C1894 H1888 0.930 . S
C1894 C1895 1.355 . S
C1894 C1896 1.415 . S
C1895 C1894 1.355 . S
C1895 C1897 1.419 . S
C1896 C1894 1.415 . S
C1896 C1901 1.425 . S
C1896 C1903 1.409 . S
C1897 H1889 0.930 . S
C1897 C1895 1.419 . S
C1897 C1898 1.362 . S
C1898 H1890 0.930 . S
C1898 C1897 1.362 . S
C1898 C1901 1.409 . S
C1899 H1891 0.930 . S
C1899 C1900 1.355 . S
C1899 C1901 1.415 . S
C1900 C1899 1.355 . S
C1900 C1902 1.419 . S
C1901 C1896 1.425 . S
C1901 C1898 1.409 . S
C1901 C1899 1.415 . S
C1902 H1892 0.930 . S
C1902 C1900 1.419 . S
C1902 C1903 1.362 . S
C1903 H1893 0.930 . S
C1903 C1896 1.409 . S
C1903 C1902 1.362 . S
H1904 C1910 0.930 . S
H1905 C1913 0.930 . S
H1906 C1914 0.930 . S
H1907 C1915 0.930 . S
H1908 C1918 0.930 . S
H1909 C1919 0.930 . S
C1910 H1904 0.930 . S
C1910 C1911 1.355 . S
C1910 C1912 1.415 . S
C1911 C1910 1.355 . S
C1911 C1913 1.419 . S
C1912 C1910 1.415 . S
C1912 C1917 1.425 . S
C1912 C1919 1.409 . S
C1913 H1905 0.930 . S
C1913 C1911 1.419 . S
C1913 C1914 1.362 . S
C1914 H1906 0.930 . S
C1914 C1913 1.362 . S
C1914 C1917 1.409 . S
C1915 H1907 0.930 . S
C1915 C1916 1.355 . S
C1915 C1917 1.415 . S
C1916 C1915 1.355 . S
C1916 C1918 1.419 . S
C1917 C1912 1.425 . S
C1917 C1914 1.409 . S
C1917 C1915 1.415 . S
C1918 H1908 0.930 . S
C1918 C1916 1.419 . S
C1918 C1919 1.362 . S
C1919 H1909 0.930 . S
C1919 C1912 1.409 . S
C1919 C1918 1.362 . S
H1920 C1926 0.930 . S
H1921 C1929 0.930 . S
H1922 C1930 0.930 . S
H1923 C1931 0.930 . S
H1924 C1934 0.930 . S
H1925 C1935 0.930 . S
C1926 H1920 0.930 . S
C1926 C1927 1.355 . S
C1926 C1928 1.415 . S
C1927 C1926 1.355 . S
C1927 C1929 1.419 . S
C1928 C1926 1.415 . S
C1928 C1933 1.425 . S
C1928 C1935 1.409 . S
C1929 H1921 0.930 . S
C1929 C1927 1.419 . S
C1929 C1930 1.362 . S
C1930 H1922 0.930 . S
C1930 C1929 1.362 . S
C1930 C1933 1.409 . S
C1931 H1923 0.930 . S
C1931 C1932 1.355 . S
C1931 C1933 1.415 . S
C1932 C1931 1.355 . S
C1932 C1934 1.419 . S
C1933 C1928 1.425 . S
C1933 C1930 1.409 . S
C1933 C1931 1.415 . S
C1934 H1924 0.930 . S
C1934 C1932 1.419 . S
C1934 C1935 1.362 . S
C1935 H1925 0.930 . S
C1935 C1928 1.409 . S
C1935 C1934 1.362 . S
H1936 C1942 0.930 . S
H1937 C1945 0.930 . S
H1938 C1946 0.930 . S
H1939 C1947 0.930 . S
H1940 C1950 0.930 . S
H1941 C1951 0.930 . S
C1942 H1936 0.930 . S
C1942 C1943 1.355 . S
C1942 C1944 1.415 . S
C1943 C1942 1.355 . S
C1943 C1945 1.419 . S
C1944 C1942 1.415 . S
C1944 C1949 1.425 . S
C1944 C1951 1.409 . S
C1945 H1937 0.930 . S
C1945 C1943 1.419 . S
C1945 C1946 1.362 . S
C1946 H1938 0.930 . S
C1946 C1945 1.362 . S
C1946 C1949 1.409 . S
C1947 H1939 0.930 . S
C1947 C1948 1.355 . S
C1947 C1949 1.415 . S
C1948 C1947 1.355 . S
C1948 C1950 1.419 . S
C1949 C1944 1.425 . S
C1949 C1946 1.409 . S
C1949 C1947 1.415 . S
C1950 H1940 0.930 . S
C1950 C1948 1.419 . S
C1950 C1951 1.362 . S
C1951 H1941 0.930 . S
C1951 C1944 1.409 . S
C1951 C1950 1.362 . S
H1952 C1958 0.930 . S
H1953 C1961 0.930 . S
H1954 C1962 0.930 . S
H1955 C1963 0.930 . S
H1956 C1966 0.930 . S
H1957 C1967 0.930 . S
C1958 H1952 0.930 . S
C1958 C1959 1.355 . S
C1958 C1960 1.415 . S
C1959 C1958 1.355 . S
C1959 C1961 1.419 . S
C1960 C1958 1.415 . S
C1960 C1965 1.425 . S
C1960 C1967 1.409 . S
C1961 H1953 0.930 . S
C1961 C1959 1.419 . S
C1961 C1962 1.362 . S
C1962 H1954 0.930 . S
C1962 C1961 1.362 . S
C1962 C1965 1.409 . S
C1963 H1955 0.930 . S
C1963 C1964 1.355 . S
C1963 C1965 1.415 . S
C1964 C1963 1.355 . S
C1964 C1966 1.419 . S
C1965 C1960 1.425 . S
C1965 C1962 1.409 . S
C1965 C1963 1.415 . S
C1966 H1956 0.930 . S
C1966 C1964 1.419 . S
C1966 C1967 1.362 . S
C1967 H1957 0.930 . S
C1967 C1960 1.409 . S
C1967 C1966 1.362 . S
H1968 C1974 0.930 . S
H1969 C1977 0.930 . S
H1970 C1978 0.930 . S
H1971 C1979 0.930 . S
H1972 C1982 0.930 . S
H1973 C1983 0.930 . S
C1974 H1968 0.930 . S
C1974 C1975 1.355 . S
C1974 C1976 1.415 . S
C1975 C1974 1.355 . S
C1975 C1977 1.419 . S
C1976 C1974 1.415 . S
C1976 C1981 1.425 . S
C1976 C1983 1.409 . S
C1977 H1969 0.930 . S
C1977 C1975 1.419 . S
C1977 C1978 1.362 . S
C1978 H1970 0.930 . S
C1978 C1977 1.362 . S
C1978 C1981 1.409 . S
C1979 H1971 0.930 . S
C1979 C1980 1.355 . S
C1979 C1981 1.415 . S
C1980 C1979 1.355 . S
C1980 C1982 1.419 . S
C1981 C1976 1.425 . S
C1981 C1978 1.409 . S
C1981 C1979 1.415 . S
C1982 H1972 0.930 . S
C1982 C1980 1.419 . S
C1982 C1983 1.362 . S
C1983 H1973 0.930 . S
C1983 C1976 1.409 . S
C1983 C1982 1.362 . S
H1984 C1990 0.930 . S
H1985 C1993 0.930 . S
H1986 C1994 0.930 . S
H1987 C1995 0.930 . S
H1988 C1998 0.930 . S
H1989 C1999 0.930 . S
C1990 H1984 0.930 . S
C1990 C1991 1.355 . S
C1990 C1992 1.415 . S
C1991 C1990 1.355 . S
C1991 C1993 1.419 . S
C1992 C1990 1.415 . S
C1992 C1997 1.425 . S
C1992 C1999 1.409 . S
C1993 H1985 0.930 . S
C1993 C1991 1.419 . S
C1993 C1994 1.362 . S
C1994 H1986 0.930 . S
C1994 C1993 1.362 . S
C1994 C1997 1.409 . S
C1995 H1987 0.930 . S
C1995 C1996 1.355 . S
C1995 C1997 1.415 . S
C1996 C1995 1.355 . S
C1996 C1998 1.419 . S
C1997 C1992 1.425 . S
C1997 C1994 1.409 . S
C1997 C1995 1.415 . S
C1998 H1988 0.930 . S
C1998 C1996 1.419 . S
C1998 C1999 1.362 . S
C1999 H1989 0.930 . S
C1999 C1992 1.409 . S
C1999 C1998 1.362 . S
H2000 C2006 0.930 . S
H2001 C2009 0.930 . S
H2002 C2010 0.930 . S
H2003 C2011 0.930 . S
H2004 C2014 0.930 . S
H2005 C2015 0.930 . S
C2006 H2000 0.930 . S
C2006 C2007 1.355 . S
C2006 C2008 1.415 . S
C2007 C2006 1.355 . S
C2007 C2009 1.419 . S
C2008 C2006 1.415 . S
C2008 C2013 1.425 . S
C2008 C2015 1.409 . S
C2009 H2001 0.930 . S
C2009 C2007 1.419 . S
C2009 C2010 1.362 . S
C2010 H2002 0.930 . S
C2010 C2009 1.362 . S
C2010 C2013 1.409 . S
C2011 H2003 0.930 . S
C2011 C2012 1.355 . S
C2011 C2013 1.415 . S
C2012 C2011 1.355 . S
C2012 C2014 1.419 . S
C2013 C2008 1.425 . S
C2013 C2010 1.409 . S
C2013 C2011 1.415 . S
C2014 H2004 0.930 . S
C2014 C2012 1.419 . S
C2014 C2015 1.362 . S
C2015 H2005 0.930 . S
C2015 C2008 1.409 . S
C2015 C2014 1.362 . S
H2016 C2022 0.930 . S
H2017 C2025 0.930 . S
H2018 C2026 0.930 . S
H2019 C2027 0.930 . S
H2020 C2030 0.930 . S
H2021 C2031 0.930 . S
C2022 H2016 0.930 . S
C2022 C2023 1.355 . S
C2022 C2024 1.415 . S
C2023 C2022 1.355 . S
C2023 C2025 1.419 . S
C2024 C2022 1.415 . S
C2024 C2029 1.425 . S
C2024 C2031 1.409 . S
C2025 H2017 0.930 . S
C2025 C2023 1.419 . S
C2025 C2026 1.362 . S
C2026 H2018 0.930 . S
C2026 C2025 1.362 . S
C2026 C2029 1.409 . S
C2027 H2019 0.930 . S
C2027 C2028 1.355 . S
C2027 C2029 1.415 . S
C2028 C2027 1.355 . S
C2028 C2030 1.419 . S
C2029 C2024 1.425 . S
C2029 C2026 1.409 . S
C2029 C2027 1.415 . S
C2030 H2020 0.930 . S
C2030 C2028 1.419 . S
C2030 C2031 1.362 . S
C2031 H2021 0.930 . S
C2031 C2024 1.409 . S
C2031 C2030 1.362 . S
H2032 C2038 0.930 . S
H2033 C2041 0.930 . S
H2034 C2042 0.930 . S
H2035 C2043 0.930 . S
H2036 C2046 0.930 . S
H2037 C2047 0.930 . S
C2038 H2032 0.930 . S
C2038 C2039 1.355 . S
C2038 C2040 1.415 . S
C2039 C2038 1.355 . S
C2039 C2041 1.419 . S
C2040 C2038 1.415 . S
C2040 C2045 1.425 . S
C2040 C2047 1.409 . S
C2041 H2033 0.930 . S
C2041 C2039 1.419 . S
C2041 C2042 1.362 . S
C2042 H2034 0.930 . S
C2042 C2041 1.362 . S
C2042 C2045 1.409 . S
C2043 H2035 0.930 . S
C2043 C2044 1.355 . S
C2043 C2045 1.415 . S
C2044 C2043 1.355 . S
C2044 C2046 1.419 . S
C2045 C2040 1.425 . S
C2045 C2042 1.409 . S
C2045 C2043 1.415 . S
C2046 H2036 0.930 . S
C2046 C2044 1.419 . S
C2046 C2047 1.362 . S
C2047 H2037 0.930 . S
C2047 C2040 1.409 . S
C2047 C2046 1.362 . S
H2048 C2054 0.930 . S
H2049 C2057 0.930 . S
H2050 C2058 0.930 . S
H2051 C2059 0.930 . S
H2052 C2062 0.930 . S
H2053 C2063 0.930 . S
C2054 H2048 0.930 . S
C2054 C2055 1.355 . S
C2054 C2056 1.415 . S
C2055 C2054 1.355 . S
C2055 C2057 1.419 . S
C2056 C2054 1.415 . S
C2056 C2061 1.425 . S
C2056 C2063 1.409 . S
C2057 H2049 0.930 . S
C2057 C2055 1.419 . S
C2057 C2058 1.362 . S
C2058 H2050 0.930 . S
C2058 C2057 1.362 . S
C2058 C2061 1.409 . S
C2059 H2051 0.930 . S
C2059 C2060 1.355 . S
C2059 C2061 1.415 . S
C2060 C2059 1.355 . S
C2060 C2062 1.419 . S
C2061 C2056 1.425 . S
C2061 C2058 1.409 . S
C2061 C2059 1.415 . S
C2062 H2052 0.930 . S
C2062 C2060 1.419 . S
C2062 C2063 1.362 . S
C2063 H2053 0.930 . S
C2063 C2056 1.409 . S
C2063 C2062 1.362 . S
H2064 C2070 0.930 . S
H2065 C2073 0.930 . S
H2066 C2074 0.930 . S
H2067 C2075 0.930 . S
H2068 C2078 0.930 . S
H2069 C2079 0.930 . S
C2070 H2064 0.930 . S
C2070 C2071 1.355 . S
C2070 C2072 1.415 . S
C2071 C2070 1.355 . S
C2071 C2073 1.419 . S
C2072 C2070 1.415 . S
C2072 C2077 1.425 . S
C2072 C2079 1.409 . S
C2073 H2065 0.930 . S
C2073 C2071 1.419 . S
C2073 C2074 1.362 . S
C2074 H2066 0.930 . S
C2074 C2073 1.362 . S
C2074 C2077 1.409 . S
C2075 H2067 0.930 . S
C2075 C2076 1.355 . S
C2075 C2077 1.415 . S
C2076 C2075 1.355 . S
C2076 C2078 1.419 . S
C2077 C2072 1.425 . S
C2077 C2074 1.409 . S
C2077 C2075 1.415 . S
C2078 H2068 0.930 . S
C2078 C2076 1.419 . S
C2078 C2079 1.362 . S
C2079 H2069 0.930 . S
C2079 C2072 1.409 . S
C2079 C2078 1.362 . S
H2080 C2086 0.930 . S
H2081 C2089 0.930 . S
H2082 C2090 0.930 . S
H2083 C2091 0.930 . S
H2084 C2094 0.930 . S
H2085 C2095 0.930 . S
C2086 H2080 0.930 . S
C2086 C2087 1.355 . S
C2086 C2088 1.415 . S
C2087 C2086 1.355 . S
C2087 C2089 1.419 . S
C2088 C2086 1.415 . S
C2088 C2093 1.425 . S
C2088 C2095 1.409 . S
C2089 H2081 0.930 . S
C2089 C2087 1.419 . S
C2089 C2090 1.362 . S
C2090 H2082 0.930 . S
C2090 C2089 1.362 . S
C2090 C2093 1.409 . S
C2091 H2083 0.930 . S
C2091 C2092 1.355 . S
C2091 C2093 1.415 . S
C2092 C2091 1.355 . S
C2092 C2094 1.419 . S
C2093 C2088 1.425 . S
C2093 C2090 1.409 . S
C2093 C2091 1.415 . S
C2094 H2084 0.930 . S
C2094 C2092 1.419 . S
C2094 C2095 1.362 . S
C2095 H2085 0.930 . S
C2095 C2088 1.409 . S
C2095 C2094 1.362 . S
H2096 C2102 0.930 . S
H2097 C2105 0.930 . S
H2098 C2106 0.930 . S
H2099 C2107 0.930 . S
H2100 C2110 0.930 . S
H2101 C2111 0.930 . S
C2102 H2096 0.930 . S
C2102 C2103 1.355 . S
C2102 C2104 1.415 . S
C2103 C2102 1.355 . S
C2103 C2105 1.419 . S
C2104 C2102 1.415 . S
C2104 C2109 1.425 . S
C2104 C2111 1.409 . S
C2105 H2097 0.930 . S
C2105 C2103 1.419 . S
C2105 C2106 1.362 . S
C2106 H2098 0.930 . S
C2106 C2105 1.362 . S
C2106 C2109 1.409 . S
C2107 H2099 0.930 . S
C2107 C2108 1.355 . S
C2107 C2109 1.415 . S
C2108 C2107 1.355 . S
C2108 C2110 1.419 . S
C2109 C2104 1.425 . S
C2109 C2106 1.409 . S
C2109 C2107 1.415 . S
C2110 H2100 0.930 . S
C2110 C2108 1.419 . S
C2110 C2111 1.362 . S
C2111 H2101 0.930 . S
C2111 C2104 1.409 . S
C2111 C2110 1.362 . S
H2112 C2118 0.930 . S
H2113 C2121 0.930 . S
H2114 C2122 0.930 . S
H2115 C2123 0.930 . S
H2116 C2126 0.930 . S
H2117 C2127 0.930 . S
C2118 H2112 0.930 . S
C2118 C2119 1.355 . S
C2118 C2120 1.415 . S
C2119 C2118 1.355 . S
C2119 C2121 1.419 . S
C2120 C2118 1.415 . S
C2120 C2125 1.425 . S
C2120 C2127 1.409 . S
C2121 H2113 0.930 . S
C2121 C2119 1.419 . S
C2121 C2122 1.362 . S
C2122 H2114 0.930 . S
C2122 C2121 1.362 . S
C2122 C2125 1.409 . S
C2123 H2115 0.930 . S
C2123 C2124 1.355 . S
C2123 C2125 1.415 . S
C2124 C2123 1.355 . S
C2124 C2126 1.419 . S
C2125 C2120 1.425 . S
C2125 C2122 1.409 . S
C2125 C2123 1.415 . S
C2126 H2116 0.930 . S
C2126 C2124 1.419 . S
C2126 C2127 1.362 . S
C2127 H2117 0.930 . S
C2127 C2120 1.409 . S
C2127 C2126 1.362 . S
H2128 C2134 0.930 . S
H2129 C2137 0.930 . S
H2130 C2138 0.930 . S
H2131 C2139 0.930 . S
H2132 C2142 0.930 . S
H2133 C2143 0.930 . S
C2134 H2128 0.930 . S
C2134 C2135 1.355 . S
C2134 C2136 1.415 . S
C2135 C2134 1.355 . S
C2135 C2137 1.419 . S
C2136 C2134 1.415 . S
C2136 C2141 1.425 . S
C2136 C2143 1.409 . S
C2137 H2129 0.930 . S
C2137 C2135 1.419 . S
C2137 C2138 1.362 . S
C2138 H2130 0.930 . S
C2138 C2137 1.362 . S
C2138 C2141 1.409 . S
C2139 H2131 0.930 . S
C2139 C2140 1.355 . S
C2139 C2141 1.415 . S
C2140 C2139 1.355 . S
C2140 C2142 1.419 . S
C2141 C2136 1.425 . S
C2141 C2138 1.409 . S
C2141 C2139 1.415 . S
C2142 H2132 0.930 . S
C2142 C2140 1.419 . S
C2142 C2143 1.362 . S
C2143 H2133 0.930 . S
C2143 C2136 1.409 . S
C2143 C2142 1.362 . S
H2144 C2150 0.930 . S
H2145 C2153 0.930 . S
H2146 C2154 0.930 . S
H2147 C2155 0.930 . S
H2148 C2158 0.930 . S
H2149 C2159 0.930 . S
C2150 H2144 0.930 . S
C2150 C2151 1.355 . S
C2150 C2152 1.415 . S
C2151 C2150 1.355 . S
C2151 C2153 1.419 . S
C2152 C2150 1.415 . S
C2152 C2157 1.425 . S
C2152 C2159 1.409 . S
C2153 H2145 0.930 . S
C2153 C2151 1.419 . S
C2153 C2154 1.362 . S
C2154 H2146 0.930 . S
C2154 C2153 1.362 . S
C2154 C2157 1.409 . S
C2155 H2147 0.930 . S
C2155 C2156 1.355 . S
C2155 C2157 1.415 . S
C2156 C2155 1.355 . S
C2156 C2158 1.419 . S
C2157 C2152 1.425 . S
C2157 C2154 1.409 . S
C2157 C2155 1.415 . S
C2158 H2148 0.930 . S
C2158 C2156 1.419 . S
C2158 C2159 1.362 . S
C2159 H2149 0.930 . S
C2159 C2152 1.409 . S
C2159 C2158 1.362 . S
H2160 C2166 0.930 . S
H2161 C2169 0.930 . S
H2162 C2170 0.930 . S
H2163 C2171 0.930 . S
H2164 C2174 0.930 . S
H2165 C2175 0.930 . S
C2166 H2160 0.930 . S
C2166 C2167 1.355 . S
C2166 C2168 1.415 . S
C2167 C2166 1.355 . S
C2167 C2169 1.419 . S
C2168 C2166 1.415 . S
C2168 C2173 1.425 . S
C2168 C2175 1.409 . S
C2169 H2161 0.930 . S
C2169 C2167 1.419 . S
C2169 C2170 1.362 . S
C2170 H2162 0.930 . S
C2170 C2169 1.362 . S
C2170 C2173 1.409 . S
C2171 H2163 0.930 . S
C2171 C2172 1.355 . S
C2171 C2173 1.415 . S
C2172 C2171 1.355 . S
C2172 C2174 1.419 . S
C2173 C2168 1.425 . S
C2173 C2170 1.409 . S
C2173 C2171 1.415 . S
C2174 H2164 0.930 . S
C2174 C2172 1.419 . S
C2174 C2175 1.362 . S
C2175 H2165 0.930 . S
C2175 C2168 1.409 . S
C2175 C2174 1.362 . S
H2176 C2182 0.930 . S
H2177 C2185 0.930 . S
H2178 C2186 0.930 . S
H2179 C2187 0.930 . S
H2180 C2190 0.930 . S
H2181 C2191 0.930 . S
C2182 H2176 0.930 . S
C2182 C2183 1.355 . S
C2182 C2184 1.415 . S
C2183 C2182 1.355 . S
C2183 C2185 1.419 . S
C2184 C2182 1.415 . S
C2184 C2189 1.425 . S
C2184 C2191 1.409 . S
C2185 H2177 0.930 . S
C2185 C2183 1.419 . S
C2185 C2186 1.362 . S
C2186 H2178 0.930 . S
C2186 C2185 1.362 . S
C2186 C2189 1.409 . S
C2187 H2179 0.930 . S
C2187 C2188 1.355 . S
C2187 C2189 1.415 . S
C2188 C2187 1.355 . S
C2188 C2190 1.419 . S
C2189 C2184 1.425 . S
C2189 C2186 1.409 . S
C2189 C2187 1.415 . S
C2190 H2180 0.930 . S
C2190 C2188 1.419 . S
C2190 C2191 1.362 . S
C2191 H2181 0.930 . S
C2191 C2184 1.409 . S
C2191 C2190 1.362 . S
H2192 C2198 0.930 . S
H2193 C2201 0.930 . S
H2194 C2202 0.930 . S
H2195 C2203 0.930 . S
H2196 C2206 0.930 . S
H2197 C2207 0.930 . S
C2198 H2192 0.930 . S
C2198 C2199 1.355 . S
C2198 C2200 1.415 . S
C2199 C2198 1.355 . S
C2199 C2201 1.419 . S
C2200 C2198 1.415 . S
C2200 C2205 1.425 . S
C2200 C2207 1.409 . S
C2201 H2193 0.930 . S
C2201 C2199 1.419 . S
C2201 C2202 1.362 . S
C2202 H2194 0.930 . S
C2202 C2201 1.362 . S
C2202 C2205 1.409 . S
C2203 H2195 0.930 . S
C2203 C2204 1.355 . S
C2203 C2205 1.415 . S
C2204 C2203 1.355 . S
C2204 C2206 1.419 . S
C2205 C2200 1.425 . S
C2205 C2202 1.409 . S
C2205 C2203 1.415 . S
C2206 H2196 0.930 . S
C2206 C2204 1.419 . S
C2206 C2207 1.362 . S
C2207 H2197 0.930 . S
C2207 C2200 1.409 . S
C2207 C2206 1.362 . S
H2208 C2214 0.930 . S
H2209 C2217 0.930 . S
H2210 C2218 0.930 . S
H2211 C2219 0.930 . S
H2212 C2222 0.930 . S
H2213 C2223 0.930 . S
C2214 H2208 0.930 . S
C2214 C2215 1.355 . S
C2214 C2216 1.415 . S
C2215 C2214 1.355 . S
C2215 C2217 1.419 . S
C2216 C2214 1.415 . S
C2216 C2221 1.425 . S
C2216 C2223 1.409 . S
C2217 H2209 0.930 . S
C2217 C2215 1.419 . S
C2217 C2218 1.362 . S
C2218 H2210 0.930 . S
C2218 C2217 1.362 . S
C2218 C2221 1.409 . S
C2219 H2211 0.930 . S
C2219 C2220 1.355 . S
C2219 C2221 1.415 . S
C2220 C2219 1.355 . S
C2220 C2222 1.419 . S
C2221 C2216 1.425 . S
C2221 C2218 1.409 . S
C2221 C2219 1.415 . S
C2222 H2212 0.930 . S
C2222 C2220 1.419 . S
C2222 C2223 1.362 . S
C2223 H2213 0.930 . S
C2223 C2216 1.409 . S
C2223 C2222 1.362 . S
H2224 C2230 0.930 . S
H2225 C2233 0.930 . S
H2226 C2234 0.930 . S
H2227 C2235 0.930 . S
H2228 C2238 0.930 . S
H2229 C2239 0.930 . S
C2230 H2224 0.930 . S
C2230 C2231 1.355 . S
C2230 C2232 1.415 . S
C2231 C2230 1.355 . S
C2231 C2233 1.419 . S
C2232 C2230 1.415 . S
C2232 C2237 1.425 . S
C2232 C2239 1.409 . S
C2233 H2225 0.930 . S
C2233 C2231 1.419 . S
C2233 C2234 1.362 . S
C2234 H2226 0.930 . S
C2234 C2233 1.362 . S
C2234 C2237 1.409 . S
C2235 H2227 0.930 . S
C2235 C2236 1.355 . S
C2235 C2237 1.415 . S
C2236 C2235 1.355 . S
C2236 C2238 1.419 . S
C2237 C2232 1.425 . S
C2237 C2234 1.409 . S
C2237 C2235 1.415 . S
C2238 H2228 0.930 . S
C2238 C2236 1.419 . S
C2238 C2239 1.362 . S
C2239 H2229 0.930 . S
C2239 C2232 1.409 . S
C2239 C2238 1.362 . S
H2240 C2246 0.930 . S
H2241 C2249 0.930 . S
H2242 C2250 0.930 . S
H2243 C2251 0.930 . S
H2244 C2254 0.930 . S
H2245 C2255 0.930 . S
C2246 H2240 0.930 . S
C2246 C2247 1.355 . S
C2246 C2248 1.415 . S
C2247 C2246 1.355 . S
C2247 C2249 1.419 . S
C2248 C2246 1.415 . S
C2248 C2253 1.425 . S
C2248 C2255 1.409 . S
C2249 H2241 0.930 . S
C2249 C2247 1.419 . S
C2249 C2250 1.362 . S
C2250 H2242 0.930 . S
C2250 C2249 1.362 . S
C2250 C2253 1.409 . S
C2251 H2243 0.930 . S
C2251 C2252 1.355 . S
C2251 C2253 1.415 . S
C2252 C2251 1.355 . S
C2252 C2254 1.419 . S
C2253 C2248 1.425 . S
C2253 C2250 1.409 . S
C2253 C2251 1.415 . S
C2254 H2244 0.930 . S
C2254 C2252 1.419 . S
C2254 C2255 1.362 . S
C2255 H2245 0.930 . S
C2255 C2248 1.409 . S
C2255 C2254 1.362 . S
H2256 C2262 0.930 . S
H2257 C2265 0.930 . S
H2258 C2266 0.930 . S
H2259 C2267 0.930 . S
H2260 C2270 0.930 . S
H2261 C2271 0.930 . S
C2262 H2256 0.930 . S
C2262 C2263 1.355 . S
C2262 C2264 1.415 . S
C2263 C2262 1.355 . S
C2263 C2265 1.419 . S
C2264 C2262 1.415 . S
C2264 C2269 1.425 . S
C2264 C2271 1.409 . S
C2265 H2257 0.930 . S
C2265 C2263 1.419 . S
C2265 C2266 1.362 . S
C2266 H2258 0.930 . S
C2266 C2265 1.362 . S
C2266 C2269 1.409 . S
C2267 H2259 0.930 . S
C2267 C2268 1.355 . S
C2267 C2269 1.415 . S
C2268 C2267 1.355 . S
C2268 C2270 1.419 . S
C2269 C2264 1.425 . S
C2269 C2266 1.409 . S
C2269 C2267 1.415 . S
C2270 H2260 0.930 . S
C2270 C2268 1.419 . S
C2270 C2271 1.362 . S
C2271 H2261 0.930 . S
C2271 C2264 1.409 . S
C2271 C2270 1.362 . S
H2272 C2278 0.930 . S
H2273 C2281 0.930 . S
H2274 C2282 0.930 . S
H2275 C2283 0.930 . S
H2276 C2286 0.930 . S
H2277 C2287 0.930 . S
C2278 H2272 0.930 . S
C2278 C2279 1.355 . S
C2278 C2280 1.415 . S
C2279 C2278 1.355 . S
C2279 C2281 1.419 . S
C2280 C2278 1.415 . S
C2280 C2285 1.425 . S
C2280 C2287 1.409 . S
C2281 H2273 0.930 . S
C2281 C2279 1.419 . S
C2281 C2282 1.362 . S
C2282 H2274 0.930 . S
C2282 C2281 1.362 . S
C2282 C2285 1.409 . S
C2283 H2275 0.930 . S
C2283 C2284 1.355 . S
C2283 C2285 1.415 . S
C2284 C2283 1.355 . S
C2284 C2286 1.419 . S
C2285 C2280 1.425 . S
C2285 C2282 1.409 . S
C2285 C2283 1.415 . S
C2286 H2276 0.930 . S
C2286 C2284 1.419 . S
C2286 C2287 1.362 . S
C2287 H2277 0.930 . S
C2287 C2280 1.409 . S
C2287 C2286 1.362 . S
H2288 C2294 0.930 . S
H2289 C2297 0.930 . S
H2290 C2298 0.930 . S
H2291 C2299 0.930 . S
H2292 C2302 0.930 . S
H2293 C2303 0.930 . S
C2294 H2288 0.930 . S
C2294 C2295 1.355 . S
C2294 C2296 1.415 . S
C2295 C2294 1.355 . S
C2295 C2297 1.419 . S
C2296 C2294 1.415 . S
C2296 C2301 1.425 . S
C2296 C2303 1.409 . S
C2297 H2289 0.930 . S
C2297 C2295 1.419 . S
C2297 C2298 1.362 . S
C2298 H2290 0.930 . S
C2298 C2297 1.362 . S
C2298 C2301 1.409 . S
C2299 H2291 0.930 . S
C2299 C2300 1.355 . S
C2299 C2301 1.415 . S
C2300 C2299 1.355 . S
C2300 C2302 1.419 . S
C2301 C2296 1.425 . S
C2301 C2298 1.409 . S
C2301 C2299 1.415 . S
C2302 H2292 0.930 . S
C2302 C2300 1.419 . S
C2302 C2303 1.362 . S
C2303 H2293 0.930 . S
C2303 C2296 1.409 . S
C2303 C2302 1.362 . S
H2304 C2310 0.930 . S
H2305 C2313 0.930 . S
H2306 C2314 0.930 . S
H2307 C2315 0.930 . S
H2308 C2318 0.930 . S
H2309 C2319 0.930 . S
C2310 H2304 0.930 . S
C2310 C2311 1.355 . S
C2310 C2312 1.415 . S
C2311 C2310 1.355 . S
C2311 C2313 1.419 . S
C2312 C2310 1.415 . S
C2312 C2317 1.425 . S
C2312 C2319 1.409 . S
C2313 H2305 0.930 . S
C2313 C2311 1.419 . S
C2313 C2314 1.362 . S
C2314 H2306 0.930 . S
C2314 C2313 1.362 . S
C2314 C2317 1.409 . S
C2315 H2307 0.930 . S
C2315 C2316 1.355 . S
C2315 C2317 1.415 . S
C2316 C2315 1.355 . S
C2316 C2318 1.419 . S
C2317 C2312 1.425 . S
C2317 C2314 1.409 . S
C2317 C2315 1.415 . S
C2318 H2308 0.930 . S
C2318 C2316 1.419 . S
C2318 C2319 1.362 . S
C2319 H2309 0.930 . S
C2319 C2312 1.409 . S
C2319 C2318 1.362 . S
H2320 C2326 0.930 . S
H2321 C2329 0.930 . S
H2322 C2330 0.930 . S
H2323 C2331 0.930 . S
H2324 C2334 0.930 . S
H2325 C2335 0.930 . S
C2326 H2320 0.930 . S
C2326 C2327 1.355 . S
C2326 C2328 1.415 . S
C2327 C2326 1.355 . S
C2327 C2329 1.419 . S
C2328 C2326 1.415 . S
C2328 C2333 1.425 . S
C2328 C2335 1.409 . S
C2329 H2321 0.930 . S
C2329 C2327 1.419 . S
C2329 C2330 1.362 . S
C2330 H2322 0.930 . S
C2330 C2329 1.362 . S
C2330 C2333 1.409 . S
C2331 H2323 0.930 . S
C2331 C2332 1.355 . S
C2331 C2333 1.415 . S
C2332 C2331 1.355 . S
C2332 C2334 1.419 . S
C2333 C2328 1.425 . S
C2333 C2330 1.409 . S
C2333 C2331 1.415 . S
C2334 H2324 0.930 . S
C2334 C2332 1.419 . S
C2334 C2335 1.362 . S
C2335 H2325 0.930 . S
C2335 C2328 1.409 . S
C2335 C2334 1.362 . S
H2336 C2342 0.930 . S
H2337 C2345 0.930 . S
H2338 C2346 0.930 . S
H2339 C2347 0.930 . S
H2340 C2350 0.930 . S
H2341 C2351 0.930 . S
C2342 H2336 0.930 . S
C2342 C2343 1.355 . S
C2342 C2344 1.415 . S
C2343 C2342 1.355 . S
C2343 C2345 1.419 . S
C2344 C2342 1.415 . S
C2344 C2349 1.425 . S
C2344 C2351 1.409 . S
C2345 H2337 0.930 . S
C2345 C2343 1.419 . S
C2345 C2346 1.362 . S
C2346 H2338 0.930 . S
C2346 C2345 1.362 . S
C2346 C2349 1.409 . S
C2347 H2339 0.930 . S
C2347 C2348 1.355 . S
C2347 C2349 1.415 . S
C2348 C2347 1.355 . S
C2348 C2350 1.419 . S
C2349 C2344 1.425 . S
C2349 C2346 1.409 . S
C2349 C2347 1.415 . S
C2350 H2340 0.930 . S
C2350 C2348 1.419 . S
C2350 C2351 1.362 . S
C2351 H2341 0.930 . S
C2351 C2344 1.409 . S
C2351 C2350 1.362 . S
H2352 C2358 0.930 . S
H2353 C2361 0.930 . S
H2354 C2362 0.930 . S
H2355 C2363 0.930 . S
H2356 C2366 0.930 . S
H2357 C2367 0.930 . S
C2358 H2352 0.930 . S
C2358 C2359 1.355 . S
C2358 C2360 1.415 . S
C2359 C2358 1.355 . S
C2359 C2361 1.419 . S
C2360 C2358 1.415 . S
C2360 C2365 1.425 . S
C2360 C2367 1.409 . S
C2361 H2353 0.930 . S
C2361 C2359 1.419 . S
C2361 C2362 1.362 . S
C2362 H2354 0.930 . S
C2362 C2361 1.362 . S
C2362 C2365 1.409 . S
C2363 H2355 0.930 . S
C2363 C2364 1.355 . S
C2363 C2365 1.415 . S
C2364 C2363 1.355 . S
C2364 C2366 1.419 . S
C2365 C2360 1.425 . S
C2365 C2362 1.409 . S
C2365 C2363 1.415 . S
C2366 H2356 0.930 . S
C2366 C2364 1.419 . S
C2366 C2367 1.362 . S
C2367 H2357 0.930 . S
C2367 C2360 1.409 . S
C2367 C2366 1.362 . S
H2368 C2374 0.930 . S
H2369 C2377 0.930 . S
H2370 C2378 0.930 . S
H2371 C2379 0.930 . S
H2372 C2382 0.930 . S
H2373 C2383 0.930 . S
C2374 H2368 0.930 . S
C2374 C2375 1.355 . S
C2374 C2376 1.415 . S
C2375 C2374 1.355 . S
C2375 C2377 1.419 . S
C2376 C2374 1.415 . S
C2376 C2381 1.425 . S
C2376 C2383 1.409 . S
C2377 H2369 0.930 . S
C2377 C2375 1.419 . S
C2377 C2378 1.362 . S
C2378 H2370 0.930 . S
C2378 C2377 1.362 . S
C2378 C2381 1.409 . S
C2379 H2371 0.930 . S
C2379 C2380 1.355 . S
C2379 C2381 1.415 . S
C2380 C2379 1.355 . S
C2380 C2382 1.419 . S
C2381 C2376 1.425 . S
C2381 C2378 1.409 . S
C2381 C2379 1.415 . S
C2382 H2372 0.930 . S
C2382 C2380 1.419 . S
C2382 C2383 1.362 . S
C2383 H2373 0.930 . S
C2383 C2376 1.409 . S
C2383 C2382 1.362 . S
H2384 C2390 0.930 . S
H2385 C2393 0.930 . S
H2386 C2394 0.930 . S
H2387 C2395 0.930 . S
H2388 C2398 0.930 . S
H2389 C2399 0.930 . S
C2390 H2384 0.930 . S
C2390 C2391 1.355 . S
C2390 C2392 1.415 . S
C2391 C2390 1.355 . S
C2391 C2393 1.419 . S
C2392 C2390 1.415 . S
C2392 C2397 1.425 . S
C2392 C2399 1.409 . S
C2393 H2385 0.930 . S
C2393 C2391 1.419 . S
C2393 C2394 1.362 . S
C2394 H2386 0.930 . S
C2394 C2393 1.362 . S
C2394 C2397 1.409 . S
C2395 H2387 0.930 . S
C2395 C2396 1.355 . S
C2395 C2397 1.415 . S
C2396 C2395 1.355 . S
C2396 C2398 1.419 . S
C2397 C2392 1.425 . S
C2397 C2394 1.409 . S
C2397 C2395 1.415 . S
C2398 H2388 0.930 . S
C2398 C2396 1.419 . S
C2398 C2399 1.362 . S
C2399 H2389 0.930 . S
C2399 C2392 1.409 . S
C2399 C2398 1.362 . S
H2400 C2406 0.930 . S
H2401 C2409 0.930 . S
H2402 C2410 0.930 . S
H2403 C2411 0.930 . S
H2404 C2414 0.930 . S
H2405 C2415 0.930 . S
C2406 H2400 0.930 . S
C2406 C2407 1.355 . S
C2406 C2408 1.415 . S
C2407 C2406 1.355 . S
C2407 C2409 1.419 . S
C2408 C2406 1.415 . S
C2408 C2413 1.425 . S
C2408 C2415 1.409 . S
C2409 H2401 0.930 . S
C2409 C2407 1.419 . S
C2409 C2410 1.362 . S
C2410 H2402 0.930 . S
C2410 C2409 1.362 . S
C2410 C2413 1.409 . S
C2411 H2403 0.930 . S
C2411 C2412 1.355 . S
C2411 C2413 1.415 . S
C2412 C2411 1.355 . S
C2412 C2414 1.419 . S
C2413 C2408 1.425 . S
C2413 C2410 1.409 . S
C2413 C2411 1.415 . S
C2414 H2404 0.930 . S
C2414 C2412 1.419 . S
C2414 C2415 1.362 . S
C2415 H2405 0.930 . S
C2415 C2408 1.409 . S
C2415 C2414 1.362 . S
H2416 C2422 0.930 . S
H2417 C2425 0.930 . S
H2418 C2426 0.930 . S
H2419 C2427 0.930 . S
H2420 C2430 0.930 . S
H2421 C2431 0.930 . S
C2422 H2416 0.930 . S
C2422 C2423 1.355 . S
C2422 C2424 1.415 . S
C2423 C2422 1.355 . S
C2423 C2425 1.419 . S
C2424 C2422 1.415 . S
C2424 C2429 1.425 . S
C2424 C2431 1.409 . S
C2425 H2417 0.930 . S
C2425 C2423 1.419 . S
C2425 C2426 1.362 . S
C2426 H2418 0.930 . S
C2426 C2425 1.362 . S
C2426 C2429 1.409 . S
C2427 H2419 0.930 . S
C2427 C2428 1.355 . S
C2427 C2429 1.415 . S
C2428 C2427 1.355 . S
C2428 C2430 1.419 . S
C2429 C2424 1.425 . S
C2429 C2426 1.409 . S
C2429 C2427 1.415 . S
C2430 H2420 0.930 . S
C2430 C2428 1.419 . S
C2430 C2431 1.362 . S
C2431 H2421 0.930 . S
C2431 C2424 1.409 . S
C2431 C2430 1.362 . S
H2432 C2438 0.930 . S
H2433 C2441 0.930 . S
H2434 C2442 0.930 . S
H2435 C2443 0.930 . S
H2436 C2446 0.930 . S
H2437 C2447 0.930 . S
C2438 H2432 0.930 . S
C2438 C2439 1.355 . S
C2438 C2440 1.415 . S
C2439 C2438 1.355 . S
C2439 C2441 1.419 . S
C2440 C2438 1.415 . S
C2440 C2445 1.425 . S
C2440 C2447 1.409 . S
C2441 H2433 0.930 . S
C2441 C2439 1.419 . S
C2441 C2442 1.362 . S
C2442 H2434 0.930 . S
C2442 C2441 1.362 . S
C2442 C2445 1.409 . S
C2443 H2435 0.930 . S
C2443 C2444 1.355 . S
C2443 C2445 1.415 . S
C2444 C2443 1.355 . S
C2444 C2446 1.419 . S
C2445 C2440 1.425 . S
C2445 C2442 1.409 . S
C2445 C2443 1.415 . S
C2446 H2436 0.930 . S
C2446 C2444 1.419 . S
C2446 C2447 1.362 . S
C2447 H2437 0.930 . S
C2447 C2440 1.409 . S
C2447 C2446 1.362 . S
H2448 C2454 0.930 . S
H2449 C2457 0.930 . S
H2450 C2458 0.930 . S
H2451 C2459 0.930 . S
H2452 C2462 0.930 . S
H2453 C2463 0.930 . S
C2454 H2448 0.930 . S
C2454 C2455 1.355 . S
C2454 C2456 1.415 . S
C2455 C2454 1.355 . S
C2455 C2457 1.419 . S
C2456 C2454 1.415 . S
C2456 C2461 1.425 . S
C2456 C2463 1.409 . S
C2457 H2449 0.930 . S
C2457 C2455 1.419 . S
C2457 C2458 1.362 . S
C2458 H2450 0.930 . S
C2458 C2457 1.362 . S
C2458 C2461 1.409 . S
C2459 H2451 0.930 . S
C2459 C2460 1.355 . S
C2459 C2461 1.415 . S
C2460 C2459 1.355 . S
C2460 C2462 1.419 . S
C2461 C2456 1.425 . S
C2461 C2458 1.409 . S
C2461 C2459 1.415 . S
C2462 H2452 0.930 . S
C2462 C2460 1.419 . S
C2462 C2463 1.362 . S
C2463 H2453 0.930 . S
C2463 C2456 1.409 . S
C2463 C2462 1.362 . S
H2464 C2470 0.930 . S
H2465 C2473 0.930 . S
H2466 C2474 0.930 . S
H2467 C2475 0.930 . S
H2468 C2478 0.930 . S
H2469 C2479 0.930 . S
C2470 H2464 0.930 . S
C2470 C2471 1.355 . S
C2470 C2472 1.415 . S
C2471 C2470 1.355 . S
C2471 C2473 1.419 . S
C2472 C2470 1.415 . S
C2472 C2477 1.425 . S
C2472 C2479 1.409 . S
C2473 H2465 0.930 . S
C2473 C2471 1.419 . S
C2473 C2474 1.362 . S
C2474 H2466 0.930 . S
C2474 C2473 1.362 . S
C2474 C2477 1.409 . S
C2475 H2467 0.930 . S
C2475 C2476 1.355 . S
C2475 C2477 1.415 . S
C2476 C2475 1.355 . S
C2476 C2478 1.419 . S
C2477 C2472 1.425 . S
C2477 C2474 1.409 . S
C2477 C2475 1.415 . S
C2478 H2468 0.930 . S
C2478 C2476 1.419 . S
C2478 C2479 1.362 . S
C2479 H2469 0.930 . S
C2479 C2472 1.409 . S
C2479 C2478 1.362 . S
H2480 C2486 0.930 . S
H2481 C2489 0.930 . S
H2482 C2490 0.930 . S
H2483 C2491 0.930 . S
H2484 C2494 0.930 . S
H2485 C2495 0.930 . S
C2486 H2480 0.930 . S
C2486 C2487 1.355 . S
C2486 C2488 1.415 . S
C2487 C2486 1.355 . S
C2487 C2489 1.419 . S
C2488 C2486 1.415 . S
C2488 C2493 1.425 . S
C2488 C2495 1.409 . S
C2489 H2481 0.930 . S
C2489 C2487 1.419 . S
C2489 C2490 1.362 . S
C2490 H2482 0.930 . S
C2490 C2489 1.362 . S
C2490 C2493 1.409 . S
C2491 H2483 0.930 . S
C2491 C2492 1.355 . S
C2491 C2493 1.415 . S
C2492 C2491 1.355 . S
C2492 C2494 1.419 . S
C2493 C2488 1.425 . S
C2493 C2490 1.409 . S
C2493 C2491 1.415 . S
C2494 H2484 0.930 . S
C2494 C2492 1.419 . S
C2494 C2495 1.362 . S
C2495 H2485 0.930 . S
C2495 C2488 1.409 . S
C2495 C2494 1.362 . S
H2496 C2502 0.930 . S
H2497 C2505 0.930 . S
H2498 C2506 0.930 . S
H2499 C2507 0.930 . S
H2500 C2510 0.930 . S
H2501 C2511 0.930 . S
C2502 H2496 0.930 . S
C2502 C2503 1.355 . S
C2502 C2504 1.415 . S
C2503 C2502 1.355 . S
C2503 C2505 1.419 . S
C2504 C2502 1.415 . S
C2504 C2509 1.425 . S
C2504 C2511 1.409 . S
C2505 H2497 0.930 . S
C2505 C2503 1.419 . S
C2505 C2506 1.362 . S
C2506 H2498 0.930 . S
C2506 C2505 1.362 . S
C2506 C2509 1.409 . S
C2507 H2499 0.930 . S
C2507 C2508 1.355 . S
C2507 C2509 1.415 . S
C2508 C2507 1.355 . S
C2508 C2510 1.419 . S
C2509 C2504 1.425 . S
C2509 C2506 1.409 . S
C2509 C2507 1.415 . S
C2510 H2500 0.930 . S
C2510 C2508 1.419 . S
C2510 C2511 1.362 . S
C2511 H2501 0.930 . S
C2511 C2504 1.409 . S
C2511 C2510 1.362 . S
H2512 C2518 0.930 . S
H2513 C2521 0.930 . S
H2514 C2522 0.930 . S
H2515 C2523 0.930 . S
H2516 C2526 0.930 . S
H2517 C2527 0.930 . S
C2518 H2512 0.930 . S
C2518 C2519 1.355 . S
C2518 C2520 1.415 . S
C2519 C2518 1.355 . S
C2519 C2521 1.419 . S
C2520 C2518 1.415 . S
C2520 C2525 1.425 . S
C2520 C2527 1.409 . S
C2521 H2513 0.930 . S
C2521 C2519 1.419 . S
C2521 C2522 1.362 . S
C2522 H2514 0.930 . S
C2522 C2521 1.362 . S
C2522 C2525 1.409 . S
C2523 H2515 0.930 . S
C2523 C2524 1.355 . S
C2523 C2525 1.415 . S
C2524 C2523 1.355 . S
C2524 C2526 1.419 . S
C2525 C2520 1.425 . S
C2525 C2522 1.409 . S
C2525 C2523 1.415 . S
C2526 H2516 0.930 . S
C2526 C2524 1.419 . S
C2526 C2527 1.362 . S
C2527 H2517 0.930 . S
C2527 C2520 1.409 . S
C2527 C2526 1.362 . S
H2528 C2534 0.930 . S
H2529 C2537 0.930 . S
H2530 C2538 0.930 . S
H2531 C2539 0.930 . S
H2532 C2542 0.930 . S
H2533 C2543 0.930 . S
C2534 H2528 0.930 . S
C2534 C2535 1.355 . S
C2534 C2536 1.415 . S
C2535 C2534 1.355 . S
C2535 C2537 1.419 . S
C2536 C2534 1.415 . S
C2536 C2541 1.425 . S
C2536 C2543 1.409 . S
C2537 H2529 0.930 . S
C2537 C2535 1.419 . S
C2537 C2538 1.362 . S
C2538 H2530 0.930 . S
C2538 C2537 1.362 . S
C2538 C2541 1.409 . S
C2539 H2531 0.930 . S
C2539 C2540 1.355 . S
C2539 C2541 1.415 . S
C2540 C2539 1.355 . S
C2540 C2542 1.419 . S
C2541 C2536 1.425 . S
C2541 C2538 1.409 . S
C2541 C2539 1.415 . S
C2542 H2532 0.930 . S
C2542 C2540 1.419 . S
C2542 C2543 1.362 . S
C2543 H2533 0.930 . S
C2543 C2536 1.409 . S
C2543 C2542 1.362 . S
H2544 C2550 0.930 . S
H2545 C2553 0.930 . S
H2546 C2554 0.930 . S
H2547 C2555 0.930 . S
H2548 C2558 0.930 . S
H2549 C2559 0.930 . S
C2550 H2544 0.930 . S
C2550 C2551 1.355 . S
C2550 C2552 1.415 . S
C2551 C2550 1.355 . S
C2551 C2553 1.419 . S
C2552 C2550 1.415 . S
C2552 C2557 1.425 . S
C2552 C2559 1.409 . S
C2553 H2545 0.930 . S
C2553 C2551 1.419 . S
C2553 C2554 1.362 . S
C2554 H2546 0.930 . S
C2554 C2553 1.362 . S
C2554 C2557 1.409 . S
C2555 H2547 0.930 . S
C2555 C2556 1.355 . S
C2555 C2557 1.415 . S
C2556 C2555 1.355 . S
C2556 C2558 1.419 . S
C2557 C2552 1.425 . S
C2557 C2554 1.409 . S
C2557 C2555 1.415 . S
C2558 H2548 0.930 . S
C2558 C2556 1.419 . S
C2558 C2559 1.362 . S
C2559 H2549 0.930 . S
C2559 C2552 1.409 . S
C2559 C2558 1.362 . S
H2560 C2566 0.930 . S
H2561 C2569 0.930 . S
H2562 C2570 0.930 . S
H2563 C2571 0.930 . S
H2564 C2574 0.930 . S
H2565 C2575 0.930 . S
C2566 H2560 0.930 . S
C2566 C2567 1.355 . S
C2566 C2568 1.415 . S
C2567 C2566 1.355 . S
C2567 C2569 1.419 . S
C2568 C2566 1.415 . S
C2568 C2573 1.425 . S
C2568 C2575 1.409 . S
C2569 H2561 0.930 . S
C2569 C2567 1.419 . S
C2569 C2570 1.362 . S
C2570 H2562 0.930 . S
C2570 C2569 1.362 . S
C2570 C2573 1.409 . S
C2571 H2563 0.930 . S
C2571 C2572 1.355 . S
C2571 C2573 1.415 . S
C2572 C2571 1.355 . S
C2572 C2574 1.419 . S
C2573 C2568 1.425 . S
C2573 C2570 1.409 . S
C2573 C2571 1.415 . S
C2574 H2564 0.930 . S
C2574 C2572 1.419 . S
C2574 C2575 1.362 . S
C2575 H2565 0.930 . S
C2575 C2568 1.409 . S
C2575 C2574 1.362 . S
H2576 C2582 0.930 . S
H2577 C2585 0.930 . S
H2578 C2586 0.930 . S
H2579 C2587 0.930 . S
H2580 C2590 0.930 . S
H2581 C2591 0.930 . S
C2582 H2576 0.930 . S
C2582 C2583 1.355 . S
C2582 C2584 1.415 . S
C2583 C2582 1.355 . S
C2583 C2585 1.419 . S
C2584 C2582 1.415 . S
C2584 C2589 1.425 . S
C2584 C2591 1.409 . S
C2585 H2577 0.930 . S
C2585 C2583 1.419 . S
C2585 C2586 1.362 . S
C2586 H2578 0.930 . S
C2586 C2585 1.362 . S
C2586 C2589 1.409 . S
C2587 H2579 0.930 . S
C2587 C2588 1.355 . S
C2587 C2589 1.415 . S
C2588 C2587 1.355 . S
C2588 C2590 1.419 . S
C2589 C2584 1.425 . S
C2589 C2586 1.409 . S
C2589 C2587 1.415 . S
C2590 H2580 0.930 . S
C2590 C2588 1.419 . S
C2590 C2591 1.362 . S
C2591 H2581 0.930 . S
C2591 C2584 1.409 . S
C2591 C2590 1.362 . S
H2592 C2598 0.930 . S
H2593 C2601 0.930 . S
H2594 C2602 0.930 . S
H2595 C2603 0.930 . S
H2596 C2606 0.930 . S
H2597 C2607 0.930 . S
C2598 H2592 0.930 . S
C2598 C2599 1.355 . S
C2598 C2600 1.415 . S
C2599 C2598 1.355 . S
C2599 C2601 1.419 . S
C2600 C2598 1.415 . S
C2600 C2605 1.425 . S
C2600 C2607 1.409 . S
C2601 H2593 0.930 . S
C2601 C2599 1.419 . S
C2601 C2602 1.362 . S
C2602 H2594 0.930 . S
C2602 C2601 1.362 . S
C2602 C2605 1.409 . S
C2603 H2595 0.930 . S
C2603 C2604 1.355 . S
C2603 C2605 1.415 . S
C2604 C2603 1.355 . S
C2604 C2606 1.419 . S
C2605 C2600 1.425 . S
C2605 C2602 1.409 . S
C2605 C2603 1.415 . S
C2606 H2596 0.930 . S
C2606 C2604 1.419 . S
C2606 C2607 1.362 . S
C2607 H2597 0.930 . S
C2607 C2600 1.409 . S
C2607 C2606 1.362 . S
H2608 C2614 0.930 . S
H2609 C2617 0.930 . S
H2610 C2618 0.930 . S
H2611 C2619 0.930 . S
H2612 C2622 0.930 . S
H2613 C2623 0.930 . S
C2614 H2608 0.930 . S
C2614 C2615 1.355 . S
C2614 C2616 1.415 . S
C2615 C2614 1.355 . S
C2615 C2617 1.419 . S
C2616 C2614 1.415 . S
C2616 C2621 1.425 . S
C2616 C2623 1.409 . S
C2617 H2609 0.930 . S
C2617 C2615 1.419 . S
C2617 C2618 1.362 . S
C2618 H2610 0.930 . S
C2618 C2617 1.362 . S
C2618 C2621 1.409 . S
C2619 H2611 0.930 . S
C2619 C2620 1.355 . S
C2619 C2621 1.415 . S
C2620 C2619 1.355 . S
C2620 C2622 1.419 . S
C2621 C2616 1.425 . S
C2621 C2618 1.409 . S
C2621 C2619 1.415 . S
C2622 H2612 0.930 . S
C2622 C2620 1.419 . S
C2622 C2623 1.362 . S
C2623 H2613 0.930 . S
C2623 C2616 1.409 . S
C2623 C2622 1.362 . S
H2624 C2630 0.930 . S
H2625 C2633 0.930 . S
H2626 C2634 0.930 . S
H2627 C2635 0.930 . S
H2628 C2638 0.930 . S
H2629 C2639 0.930 . S
C2630 H2624 0.930 . S
C2630 C2631 1.355 . S
C2630 C2632 1.415 . S
C2631 C2630 1.355 . S
C2631 C2633 1.419 . S
C2632 C2630 1.415 . S
C2632 C2637 1.425 . S
C2632 C2639 1.409 . S
C2633 H2625 0.930 . S
C2633 C2631 1.419 . S
C2633 C2634 1.362 . S
C2634 H2626 0.930 . S
C2634 C2633 1.362 . S
C2634 C2637 1.409 . S
C2635 H2627 0.930 . S
C2635 C2636 1.355 . S
C2635 C2637 1.415 . S
C2636 C2635 1.355 . S
C2636 C2638 1.419 . S
C2637 C2632 1.425 . S
C2637 C2634 1.409 . S
C2637 C2635 1.415 . S
C2638 H2628 0.930 . S
C2638 C2636 1.419 . S
C2638 C2639 1.362 . S
C2639 H2629 0.930 . S
C2639 C2632 1.409 . S
C2639 C2638 1.362 . S
H2640 C2646 0.930 . S
H2641 C2649 0.930 . S
H2642 C2650 0.930 . S
H2643 C2651 0.930 . S
H2644 C2654 0.930 . S
H2645 C2655 0.930 . S
C2646 H2640 0.930 . S
C2646 C2647 1.355 . S
C2646 C2648 1.415 . S
C2647 C2646 1.355 . S
C2647 C2649 1.419 . S
C2648 C2646 1.415 . S
C2648 C2653 1.425 . S
C2648 C2655 1.409 . S
C2649 H2641 0.930 . S
C2649 C2647 1.419 . S
C2649 C2650 1.362 . S
C2650 H2642 0.930 . S
C2650 C2649 1.362 . S
C2650 C2653 1.409 . S
C2651 H2643 0.930 . S
C2651 C2652 1.355 . S
C2651 C2653 1.415 . S
C2652 C2651 1.355 . S
C2652 C2654 1.419 . S
C2653 C2648 1.425 . S
C2653 C2650 1.409 . S
C2653 C2651 1.415 . S
C2654 H2644 0.930 . S
C2654 C2652 1.419 . S
C2654 C2655 1.362 . S
C2655 H2645 0.930 . S
C2655 C2648 1.409 . S
C2655 C2654 1.362 . S
H2656 C2662 0.930 . S
H2657 C2665 0.930 . S
H2658 C2666 0.930 . S
H2659 C2667 0.930 . S
H2660 C2670 0.930 . S
H2661 C2671 0.930 . S
C2662 H2656 0.930 . S
C2662 C2663 1.355 . S
C2662 C2664 1.415 . S
C2663 C2662 1.355 . S
C2663 C2665 1.419 . S
C2664 C2662 1.415 . S
C2664 C2669 1.425 . S
C2664 C2671 1.409 . S
C2665 H2657 0.930 . S
C2665 C2663 1.419 . S
C2665 C2666 1.362 . S
C2666 H2658 0.930 . S
C2666 C2665 1.362 . S
C2666 C2669 1.409 . S
C2667 H2659 0.930 . S
C2667 C2668 1.355 . S
C2667 C2669 1.415 . S
C2668 C2667 1.355 . S
C2668 C2670 1.419 . S
C2669 C2664 1.425 . S
C2669 C2666 1.409 . S
C2669 C2667 1.415 . S
C2670 H2660 0.930 . S
C2670 C2668 1.419 . S
C2670 C2671 1.362 . S
C2671 H2661 0.930 . S
C2671 C2664 1.409 . S
C2671 C2670 1.362 . S
H2672 C2678 0.930 . S
H2673 C2681 0.930 . S
H2674 C2682 0.930 . S
H2675 C2683 0.930 . S
H2676 C2686 0.930 . S
H2677 C2687 0.930 . S
C2678 H2672 0.930 . S
C2678 C2679 1.355 . S
C2678 C2680 1.415 . S
C2679 C2678 1.355 . S
C2679 C2681 1.419 . S
C2680 C2678 1.415 . S
C2680 C2685 1.425 . S
C2680 C2687 1.409 . S
C2681 H2673 0.930 . S
C2681 C2679 1.419 . S
C2681 C2682 1.362 . S
C2682 H2674 0.930 . S
C2682 C2681 1.362 . S
C2682 C2685 1.409 . S
C2683 H2675 0.930 . S
C2683 C2684 1.355 . S
C2683 C2685 1.415 . S
C2684 C2683 1.355 . S
C2684 C2686 1.419 . S
C2685 C2680 1.425 . S
C2685 C2682 1.409 . S
C2685 C2683 1.415 . S
C2686 H2676 0.930 . S
C2686 C2684 1.419 . S
C2686 C2687 1.362 . S
C2687 H2677 0.930 . S
C2687 C2680 1.409 . S
C2687 C2686 1.362 . S
H2688 C2694 0.930 . S
H2689 C2697 0.930 . S
H2690 C2698 0.930 . S
H2691 C2699 0.930 . S
H2692 C2702 0.930 . S
H2693 C2703 0.930 . S
C2694 H2688 0.930 . S
C2694 C2695 1.355 . S
C2694 C2696 1.415 . S
C2695 C2694 1.355 . S
C2695 C2697 1.419 . S
C2696 C2694 1.415 . S
C2696 C2701 1.425 . S
C2696 C2703 1.409 . S
C2697 H2689 0.930 . S
C2697 C2695 1.419 . S
C2697 C2698 1.362 . S
C2698 H2690 0.930 . S
C2698 C2697 1.362 . S
C2698 C2701 1.409 . S
C2699 H2691 0.930 . S
C2699 C2700 1.355 . S
C2699 C2701 1.415 . S
C2700 C2699 1.355 . S
C2700 C2702 1.419 . S
C2701 C2696 1.425 . S
C2701 C2698 1.409 . S
C2701 C2699 1.415 . S
C2702 H2692 0.930 . S
C2702 C2700 1.419 . S
C2702 C2703 1.362 . S
C2703 H2693 0.930 . S
C2703 C2696 1.409 . S
C2703 C2702 1.362 . S
H2704 C2710 0.930 . S
H2705 C2713 0.930 . S
H2706 C2714 0.930 . S
H2707 C2715 0.930 . S
H2708 C2718 0.930 . S
H2709 C2719 0.930 . S
C2710 H2704 0.930 . S
C2710 C2711 1.355 . S
C2710 C2712 1.415 . S
C2711 C2710 1.355 . S
C2711 C2713 1.419 . S
C2712 C2710 1.415 . S
C2712 C2717 1.425 . S
C2712 C2719 1.409 . S
C2713 H2705 0.930 . S
C2713 C2711 1.419 . S
C2713 C2714 1.362 . S
C2714 H2706 0.930 . S
C2714 C2713 1.362 . S
C2714 C2717 1.409 . S
C2715 H2707 0.930 . S
C2715 C2716 1.355 . S
C2715 C2717 1.415 . S
C2716 C2715 1.355 . S
C2716 C2718 1.419 . S
C2717 C2712 1.425 . S
C2717 C2714 1.409 . S
C2717 C2715 1.415 . S
C2718 H2708 0.930 . S
C2718 C2716 1.419 . S
C2718 C2719 1.362 . S
C2719 H2709 0.930 . S
C2719 C2712 1.409 . S
C2719 C2718 1.362 . S
H2720 C2726 0.930 . S
H2721 C2729 0.930 . S
H2722 C2730 0.930 . S
H2723 C2731 0.930 . S
H2724 C2734 0.930 . S
H2725 C2735 0.930 . S
C2726 H2720 0.930 . S
C2726 C2727 1.355 . S
C2726 C2728 1.415 . S
C2727 C2726 1.355 . S
C2727 C2729 1.419 . S
C2728 C2726 1.415 . S
C2728 C2733 1.425 . S
C2728 C2735 1.409 . S
C2729 H2721 0.930 . S
C2729 C2727 1.419 . S
C2729 C2730 1.362 . S
C2730 H2722 0.930 . S
C2730 C2729 1.362 . S
C2730 C2733 1.409 . S
C2731 H2723 0.930 . S
C2731 C2732 1.355 . S
C2731 C2733 1.415 . S
C2732 C2731 1.355 . S
C2732 C2734 1.419 . S
C2733 C2728 1.425 . S
C2733 C2730 1.409 . S
C2733 C2731 1.415 . S
C2734 H2724 0.930 . S
C2734 C2732 1.419 . S
C2734 C2735 1.362 . S
C2735 H2725 0.930 . S
C2735 C2728 1.409 . S
C2735 C2734 1.362 . S
H2736 C2742 0.930 . S
H2737 C2745 0.930 . S
H2738 C2746 0.930 . S
H2739 C2747 0.930 . S
H2740 C2750 0.930 . S
H2741 C2751 0.930 . S
C2742 H2736 0.930 . S
C2742 C2743 1.355 . S
C2742 C2744 1.415 . S
C2743 C2742 1.355 . S
C2743 C2745 1.419 . S
C2744 C2742 1.415 . S
C2744 C2749 1.425 . S
C2744 C2751 1.409 . S
C2745 H2737 0.930 . S
C2745 C2743 1.419 . S
C2745 C2746 1.362 . S
C2746 H2738 0.930 . S
C2746 C2745 1.362 . S
C2746 C2749 1.409 . S
C2747 H2739 0.930 . S
C2747 C2748 1.355 . S
C2747 C2749 1.415 . S
C2748 C2747 1.355 . S
C2748 C2750 1.419 . S
C2749 C2744 1.425 . S
C2749 C2746 1.409 . S
C2749 C2747 1.415 . S
C2750 H2740 0.930 . S
C2750 C2748 1.419 . S
C2750 C2751 1.362 . S
C2751 H2741 0.930 . S
C2751 C2744 1.409 . S
C2751 C2750 1.362 . S
H2752 C2758 0.930 . S
H2753 C2761 0.930 . S
H2754 C2762 0.930 . S
H2755 C2763 0.930 . S
H2756 C2766 0.930 . S
H2757 C2767 0.930 . S
C2758 H2752 0.930 . S
C2758 C2759 1.355 . S
C2758 C2760 1.415 . S
C2759 C2758 1.355 . S
C2759 C2761 1.419 . S
C2760 C2758 1.415 . S
C2760 C2765 1.425 . S
C2760 C2767 1.409 . S
C2761 H2753 0.930 . S
C2761 C2759 1.419 . S
C2761 C2762 1.362 . S
C2762 H2754 0.930 . S
C2762 C2761 1.362 . S
C2762 C2765 1.409 . S
C2763 H2755 0.930 . S
C2763 C2764 1.355 . S
C2763 C2765 1.415 . S
C2764 C2763 1.355 . S
C2764 C2766 1.419 . S
C2765 C2760 1.425 . S
C2765 C2762 1.409 . S
C2765 C2763 1.415 . S
C2766 H2756 0.930 . S
C2766 C2764 1.419 . S
C2766 C2767 1.362 . S
C2767 H2757 0.930 . S
C2767 C2760 1.409 . S
C2767 C2766 1.362 . S
H2768 C2774 0.930 . S
H2769 C2777 0.930 . S
H2770 C2778 0.930 . S
H2771 C2779 0.930 . S
H2772 C2782 0.930 . S
H2773 C2783 0.930 . S
C2774 H2768 0.930 . S
C2774 C2775 1.355 . S
C2774 C2776 1.415 . S
C2775 C2774 1.355 . S
C2775 C2777 1.419 . S
C2776 C2774 1.415 . S
C2776 C2781 1.425 . S
C2776 C2783 1.409 . S
C2777 H2769 0.930 . S
C2777 C2775 1.419 . S
C2777 C2778 1.362 . S
C2778 H2770 0.930 . S
C2778 C2777 1.362 . S
C2778 C2781 1.409 . S
C2779 H2771 0.930 . S
C2779 C2780 1.355 . S
C2779 C2781 1.415 . S
C2780 C2779 1.355 . S
C2780 C2782 1.419 . S
C2781 C2776 1.425 . S
C2781 C2778 1.409 . S
C2781 C2779 1.415 . S
C2782 H2772 0.930 . S
C2782 C2780 1.419 . S
C2782 C2783 1.362 . S
C2783 H2773 0.930 . S
C2783 C2776 1.409 . S
C2783 C2782 1.362 . S
H2784 C2790 0.930 . S
H2785 C2793 0.930 . S
H2786 C2794 0.930 . S
H2787 C2795 0.930 . S
H2788 C2798 0.930 . S
H2789 C2799 0.930 . S
C2790 H2784 0.930 . S
C2790 C2791 1.355 . S
C2790 C2792 1.415 . S
C2791 C2790 1.355 . S
C2791 C2793 1.419 . S
C2792 C2790 1.415 . S
C2792 C2797 1.425 . S
C2792 C2799 1.409 . S
C2793 H2785 0.930 . S
C2793 C2791 1.419 . S
C2793 C2794 1.362 . S
C2794 H2786 0.930 . S
C2794 C2793 1.362 . S
C2794 C2797 1.409 . S
C2795 H2787 0.930 . S
C2795 C2796 1.355 . S
C2795 C2797 1.415 . S
C2796 C2795 1.355 . S
C2796 C2798 1.419 . S
C2797 C2792 1.425 . S
C2797 C2794 1.409 . S
C2797 C2795 1.415 . S
C2798 H2788 0.930 . S
C2798 C2796 1.419 . S
C2798 C2799 1.362 . S
C2799 H2789 0.930 . S
C2799 C2792 1.409 . S
C2799 C2798 1.362 . S
H2800 C2806 0.930 . S
H2801 C2809 0.930 . S
H2802 C2810 0.930 . S
H2803 C2811 0.930 . S
H2804 C2814 0.930 . S
H2805 C2815 0.930 . S
C2806 H2800 0.930 . S
C2806 C2807 1.355 . S
C2806 C2808 1.415 . S
C2807 C2806 1.355 . S
C2807 C2809 1.419 . S
C2808 C2806 1.415 . S
C2808 C2813 1.425 . S
C2808 C2815 1.409 . S
C2809 H2801 0.930 . S
C2809 C2807 1.419 . S
C2809 C2810 1.362 . S
C2810 H2802 0.930 . S
C2810 C2809 1.362 . S
C2810 C2813 1.409 . S
C2811 H2803 0.930 . S
C2811 C2812 1.355 . S
C2811 C2813 1.415 . S
C2812 C2811 1.355 . S
C2812 C2814 1.419 . S
C2813 C2808 1.425 . S
C2813 C2810 1.409 . S
C2813 C2811 1.415 . S
C2814 H2804 0.930 . S
C2814 C2812 1.419 . S
C2814 C2815 1.362 . S
C2815 H2805 0.930 . S
C2815 C2808 1.409 . S
C2815 C2814 1.362 . S
H2816 C2822 0.930 . S
H2817 C2825 0.930 . S
H2818 C2826 0.930 . S
H2819 C2827 0.930 . S
H2820 C2830 0.930 . S
H2821 C2831 0.930 . S
C2822 H2816 0.930 . S
C2822 C2823 1.355 . S
C2822 C2824 1.415 . S
C2823 C2822 1.355 . S
C2823 C2825 1.419 . S
C2824 C2822 1.415 . S
C2824 C2829 1.425 . S
C2824 C2831 1.409 . S
C2825 H2817 0.930 . S
C2825 C2823 1.419 . S
C2825 C2826 1.362 . S
C2826 H2818 0.930 . S
C2826 C2825 1.362 . S
C2826 C2829 1.409 . S
C2827 H2819 0.930 . S
C2827 C2828 1.355 . S
C2827 C2829 1.415 . S
C2828 C2827 1.355 . S
C2828 C2830 1.419 . S
C2829 C2824 1.425 . S
C2829 C2826 1.409 . S
C2829 C2827 1.415 . S
C2830 H2820 0.930 . S
C2830 C2828 1.419 . S
C2830 C2831 1.362 . S
C2831 H2821 0.930 . S
C2831 C2824 1.409 . S
C2831 C2830 1.362 . S
H2832 C2838 0.930 . S
H2833 C2841 0.930 . S
H2834 C2842 0.930 . S
H2835 C2843 0.930 . S
H2836 C2846 0.930 . S
H2837 C2847 0.930 . S
C2838 H2832 0.930 . S
C2838 C2839 1.355 . S
C2838 C2840 1.415 . S
C2839 C2838 1.355 . S
C2839 C2841 1.419 . S
C2840 C2838 1.415 . S
C2840 C2845 1.425 . S
C2840 C2847 1.409 . S
C2841 H2833 0.930 . S
C2841 C2839 1.419 . S
C2841 C2842 1.362 . S
C2842 H2834 0.930 . S
C2842 C2841 1.362 . S
C2842 C2845 1.409 . S
C2843 H2835 0.930 . S
C2843 C2844 1.355 . S
C2843 C2845 1.415 . S
C2844 C2843 1.355 . S
C2844 C2846 1.419 . S
C2845 C2840 1.425 . S
C2845 C2842 1.409 . S
C2845 C2843 1.415 . S
C2846 H2836 0.930 . S
C2846 C2844 1.419 . S
C2846 C2847 1.362 . S
C2847 H2837 0.930 . S
C2847 C2840 1.409 . S
C2847 C2846 1.362 . S
H2848 C2854 0.930 . S
H2849 C2857 0.930 . S
H2850 C2858 0.930 . S
H2851 C2859 0.930 . S
H2852 C2862 0.930 . S
H2853 C2863 0.930 . S
C2854 H2848 0.930 . S
C2854 C2855 1.355 . S
C2854 C2856 1.415 . S
C2855 C2854 1.355 . S
C2855 C2857 1.419 . S
C2856 C2854 1.415 . S
C2856 C2861 1.425 . S
C2856 C2863 1.409 . S
C2857 H2849 0.930 . S
C2857 C2855 1.419 . S
C2857 C2858 1.362 . S
C2858 H2850 0.930 . S
C2858 C2857 1.362 . S
C2858 C2861 1.409 . S
C2859 H2851 0.930 . S
C2859 C2860 1.355 . S
C2859 C2861 1.415 . S
C2860 C2859 1.355 . S
C2860 C2862 1.419 . S
C2861 C2856 1.425 . S
C2861 C2858 1.409 . S
C2861 C2859 1.415 . S
C2862 H2852 0.930 . S
C2862 C2860 1.419 . S
C2862 C2863 1.362 . S
C2863 H2853 0.930 . S
C2863 C2856 1.409 . S
C2863 C2862 1.362 . S
H2864 C2870 0.930 . S
H2865 C2873 0.930 . S
H2866 C2874 0.930 . S
H2867 C2875 0.930 . S
H2868 C2878 0.930 . S
H2869 C2879 0.930 . S
C2870 H2864 0.930 . S
C2870 C2871 1.355 . S
C2870 C2872 1.415 . S
C2871 C2870 1.355 . S
C2871 C2873 1.419 . S
C2872 C2870 1.415 . S
C2872 C2877 1.425 . S
C2872 C2879 1.409 . S
C2873 H2865 0.930 . S
C2873 C2871 1.419 . S
C2873 C2874 1.362 . S
C2874 H2866 0.930 . S
C2874 C2873 1.362 . S
C2874 C2877 1.409 . S
C2875 H2867 0.930 . S
C2875 C2876 1.355 . S
C2875 C2877 1.415 . S
C2876 C2875 1.355 . S
C2876 C2878 1.419 . S
C2877 C2872 1.425 . S
C2877 C2874 1.409 . S
C2877 C2875 1.415 . S
C2878 H2868 0.930 . S
C2878 C2876 1.419 . S
C2878 C2879 1.362 . S
C2879 H2869 0.930 . S
C2879 C2872 1.409 . S
C2879 C2878 1.362 . S
H2880 C2886 0.930 . S
H2881 C2889 0.930 . S
H2882 C2890 0.930 . S
H2883 C2891 0.930 . S
H2884 C2894 0.930 . S
H2885 C2895 0.930 . S
C2886 H2880 0.930 . S
C2886 C2887 1.355 . S
C2886 C2888 1.415 . S
C2887 C2886 1.355 . S
C2887 C2889 1.419 . S
C2888 C2886 1.415 . S
C2888 C2893 1.425 . S
C2888 C2895 1.409 . S
C2889 H2881 0.930 . S
C2889 C2887 1.419 . S
C2889 C2890 1.362 . S
C2890 H2882 0.930 . S
C2890 C2889 1.362 . S
C2890 C2893 1.409 . S
C2891 H2883 0.930 . S
C2891 C2892 1.355 . S
C2891 C2893 1.415 . S
C2892 C2891 1.355 . S
C2892 C2894 1.419 . S
C2893 C2888 1.425 . S
C2893 C2890 1.409 . S
C2893 C2891 1.415 . S
C2894 H2884 0.930 . S
C2894 C2892 1.419 . S
C2894 C2895 1.362 . S
C2895 H2885 0.930 . S
C2895 C2888 1.409 . S
C2895 C2894 1.362 . S
H2896 C2902 0.930 . S
H2897 C2905 0.930 . S
H2898 C2906 0.930 . S
H2899 C2907 0.930 . S
H2900 C2910 0.930 . S
H2901 C2911 0.930 . S
C2902 H2896 0.930 . S
C2902 C2903 1.355 . S
C2902 C2904 1.415 . S
C2903 C2902 1.355 . S
C2903 C2905 1.419 . S
C2904 C2902 1.415 . S
C2904 C2909 1.425 . S
C2904 C2911 1.409 . S
C2905 H2897 0.930 . S
C2905 C2903 1.419 . S
C2905 C2906 1.362 . S
C2906 H2898 0.930 . S
C2906 C2905 1.362 . S
C2906 C2909 1.409 . S
C2907 H2899 0.930 . S
C2907 C2908 1.355 . S
C2907 C2909 1.415 . S
C2908 C2907 1.355 . S
C2908 C2910 1.419 . S
C2909 C2904 1.425 . S
C2909 C2906 1.409 . S
C2909 C2907 1.415 . S
C2910 H2900 0.930 . S
C2910 C2908 1.419 . S
C2910 C2911 1.362 . S
C2911 H2901 0.930 . S
C2911 C2904 1.409 . S
C2911 C2910 1.362 . S
H2912 C2918 0.930 . S
H2913 C2921 0.930 . S
H2914 C2922 0.930 . S
H2915 C2923 0.930 . S
H2916 C2926 0.930 . S
H2917 C2927 0.930 . S
C2918 H2912 0.930 . S
C2918 C2919 1.355 . S
C2918 C2920 1.415 . S
C2919 C2918 1.355 . S
C2919 C2921 1.419 . S
C2920 C2918 1.415 . S
C2920 C2925 1.425 . S
C2920 C2927 1.409 . S
C2921 H2913 0.930 . S
C2921 C2919 1.419 . S
C2921 C2922 1.362 . S
C2922 H2914 0.930 . S
C2922 C2921 1.362 . S
C2922 C2925 1.409 . S
C2923 H2915 0.930 . S
C2923 C2924 1.355 . S
C2923 C2925 1.415 . S
C2924 C2923 1.355 . S
C2924 C2926 1.419 . S
C2925 C2920 1.425 . S
C2925 C2922 1.409 . S
C2925 C2923 1.415 . S
C2926 H2916 0.930 . S
C2926 C2924 1.419 . S
C2926 C2927 1.362 . S
C2927 H2917 0.930 . S
C2927 C2920 1.409 . S
C2927 C2926 1.362 . S
H2928 C2934 0.930 . S
H2929 C2937 0.930 . S
H2930 C2938 0.930 . S
H2931 C2939 0.930 . S
H2932 C2942 0.930 . S
H2933 C2943 0.930 . S
C2934 H2928 0.930 . S
C2934 C2935 1.355 . S
C2934 C2936 1.415 . S
C2935 C2934 1.355 . S
C2935 C2937 1.419 . S
C2936 C2934 1.415 . S
C2936 C2941 1.425 . S
C2936 C2943 1.409 . S
C2937 H2929 0.930 . S
C2937 C2935 1.419 . S
C2937 C2938 1.362 . S
C2938 H2930 0.930 . S
C2938 C2937 1.362 . S
C2938 C2941 1.409 . S
C2939 H2931 0.930 . S
C2939 C2940 1.355 . S
C2939 C2941 1.415 . S
C2940 C2939 1.355 . S
C2940 C2942 1.419 . S
C2941 C2936 1.425 . S
C2941 C2938 1.409 . S
C2941 C2939 1.415 . S
C2942 H2932 0.930 . S
C2942 C2940 1.419 . S
C2942 C2943 1.362 . S
C2943 H2933 0.930 . S
C2943 C2936 1.409 . S
C2943 C2942 1.362 . S
H2944 C2950 0.930 . S
H2945 C2953 0.930 . S
H2946 C2954 0.930 . S
H2947 C2955 0.930 . S
H2948 C2958 0.930 . S
H2949 C2959 0.930 . S
C2950 H2944 0.930 . S
C2950 C2951 1.355 . S
C2950 C2952 1.415 . S
C2951 C2950 1.355 . S
C2951 C2953 1.419 . S
C2952 C2950 1.415 . S
C2952 C2957 1.425 . S
C2952 C2959 1.409 . S
C2953 H2945 0.930 . S
C2953 C2951 1.419 . S
C2953 C2954 1.362 . S
C2954 H2946 0.930 . S
C2954 C2953 1.362 . S
C2954 C2957 1.409 . S
C2955 H2947 0.930 . S
C2955 C2956 1.355 . S
C2955 C2957 1.415 . S
C2956 C2955 1.355 . S
C2956 C2958 1.419 . S
C2957 C2952 1.425 . S
C2957 C2954 1.409 . S
C2957 C2955 1.415 . S
C2958 H2948 0.930 . S
C2958 C2956 1.419 . S
C2958 C2959 1.362 . S
C2959 H2949 0.930 . S
C2959 C2952 1.409 . S
C2959 C2958 1.362 . S
H2960 C2966 0.930 . S
H2961 C2969 0.930 . S
H2962 C2970 0.930 . S
H2963 C2971 0.930 . S
H2964 C2974 0.930 . S
H2965 C2975 0.930 . S
C2966 H2960 0.930 . S
C2966 C2967 1.355 . S
C2966 C2968 1.415 . S
C2967 C2966 1.355 . S
C2967 C2969 1.419 . S
C2968 C2966 1.415 . S
C2968 C2973 1.425 . S
C2968 C2975 1.409 . S
C2969 H2961 0.930 . S
C2969 C2967 1.419 . S
C2969 C2970 1.362 . S
C2970 H2962 0.930 . S
C2970 C2969 1.362 . S
C2970 C2973 1.409 . S
C2971 H2963 0.930 . S
C2971 C2972 1.355 . S
C2971 C2973 1.415 . S
C2972 C2971 1.355 . S
C2972 C2974 1.419 . S
C2973 C2968 1.425 . S
C2973 C2970 1.409 . S
C2973 C2971 1.415 . S
C2974 H2964 0.930 . S
C2974 C2972 1.419 . S
C2974 C2975 1.362 . S
C2975 H2965 0.930 . S
C2975 C2968 1.409 . S
C2975 C2974 1.362 . S
H2976 C2982 0.930 . S
H2977 C2985 0.930 . S
H2978 C2986 0.930 . S
H2979 C2987 0.930 . S
H2980 C2990 0.930 . S
H2981 C2991 0.930 . S
C2982 H2976 0.930 . S
C2982 C2983 1.355 . S
C2982 C2984 1.415 . S
C2983 C2982 1.355 . S
C2983 C2985 1.419 . S
C2984 C2982 1.415 . S
C2984 C2989 1.425 . S
C2984 C2991 1.409 . S
C2985 H2977 0.930 . S
C2985 C2983 1.419 . S
C2985 C2986 1.362 . S
C2986 H2978 0.930 . S
C2986 C2985 1.362 . S
C2986 C2989 1.409 . S
C2987 H2979 0.930 . S
C2987 C2988 1.355 . S
C2987 C2989 1.415 . S
C2988 C2987 1.355 . S
C2988 C2990 1.419 . S
C2989 C2984 1.425 . S
C2989 C2986 1.409 . S
C2989 C2987 1.415 . S
C2990 H2980 0.930 . S
C2990 C2988 1.419 . S
C2990 C2991 1.362 . S
C2991 H2981 0.930 . S
C2991 C2984 1.409 . S
C2991 C2990 1.362 . S
H2992 C2998 0.930 . S
H2993 C3001 0.930 . S
H2994 C3002 0.930 . S
H2995 C3003 0.930 . S
H2996 C3006 0.930 . S
H2997 C3007 0.930 . S
C2998 H2992 0.930 . S
C2998 C2999 1.355 . S
C2998 C3000 1.415 . S
C2999 C2998 1.355 . S
C2999 C3001 1.419 . S
C3000 C2998 1.415 . S
C3000 C3005 1.425 . S
C3000 C3007 1.409 . S
C3001 H2993 0.930 . S
C3001 C2999 1.419 . S
C3001 C3002 1.362 . S
C3002 H2994 0.930 . S
C3002 C3001 1.362 . S
C3002 C3005 1.409 . S
C3003 H2995 0.930 . S
C3003 C3004 1.355 . S
C3003 C3005 1.415 . S
C3004 C3003 1.355 . S
C3004 C3006 1.419 . S
C3005 C3000 1.425 . S
C3005 C3002 1.409 . S
C3005 C3003 1.415 . S
C3006 H2996 0.930 . S
C3006 C3004 1.419 . S
C3006 C3007 1.362 . S
C3007 H2997 0.930 . S
C3007 C3000 1.409 . S
C3007 C3006 1.362 . S
H3008 C3014 0.930 . S
H3009 C3017 0.930 . S
H3010 C3018 0.930 . S
H3011 C3019 0.930 . S
H3012 C3022 0.930 . S
H3013 C3023 0.930 . S
C3014 H3008 0.930 . S
C3014 C3015 1.355 . S
C3014 C3016 1.415 . S
C3015 C3014 1.355 . S
C3015 C3017 1.419 . S
C3016 C3014 1.415 . S
C3016 C3021 1.425 . S
C3016 C3023 1.409 . S
C3017 H3009 0.930 . S
C3017 C3015 1.419 . S
C3017 C3018 1.362 . S
C3018 H3010 0.930 . S
C3018 C3017 1.362 . S
C3018 C3021 1.409 . S
C3019 H3011 0.930 . S
C3019 C3020 1.355 . S
C3019 C3021 1.415 . S
C3020 C3019 1.355 . S
C3020 C3022 1.419 . S
C3021 C3016 1.425 . S
C3021 C3018 1.409 . S
C3021 C3019 1.415 . S
C3022 H3012 0.930 . S
C3022 C3020 1.419 . S
C3022 C3023 1.362 . S
C3023 H3013 0.930 . S
C3023 C3016 1.409 . S
C3023 C3022 1.362 . S
H3024 C3030 0.930 . S
H3025 C3033 0.930 . S
H3026 C3034 0.930 . S
H3027 C3035 0.930 . S
H3028 C3038 0.930 . S
H3029 C3039 0.930 . S
C3030 H3024 0.930 . S
C3030 C3031 1.355 . S
C3030 C3032 1.415 . S
C3031 C3030 1.355 . S
C3031 C3033 1.419 . S
C3032 C3030 1.415 . S
C3032 C3037 1.425 . S
C3032 C3039 1.409 . S
C3033 H3025 0.930 . S
C3033 C3031 1.419 . S
C3033 C3034 1.362 . S
C3034 H3026 0.930 . S
C3034 C3033 1.362 . S
C3034 C3037 1.409 . S
C3035 H3027 0.930 . S
C3035 C3036 1.355 . S
C3035 C3037 1.415 . S
C3036 C3035 1.355 . S
C3036 C3038 1.419 . S
C3037 C3032 1.425 . S
C3037 C3034 1.409 . S
C3037 C3035 1.415 . S
C3038 H3028 0.930 . S
C3038 C3036 1.419 . S
C3038 C3039 1.362 . S
C3039 H3029 0.930 . S
C3039 C3032 1.409 . S
C3039 C3038 1.362 . S
H3040 C3046 0.930 . S
H3041 C3049 0.930 . S
H3042 C3050 0.930 . S
H3043 C3051 0.930 . S
H3044 C3054 0.930 . S
H3045 C3055 0.930 . S
C3046 H3040 0.930 . S
C3046 C3047 1.355 . S
C3046 C3048 1.415 . S
C3047 C3046 1.355 . S
C3047 C3049 1.419 . S
C3048 C3046 1.415 . S
C3048 C3053 1.425 . S
C3048 C3055 1.409 . S
C3049 H3041 0.930 . S
C3049 C3047 1.419 . S
C3049 C3050 1.362 . S
C3050 H3042 0.930 . S
C3050 C3049 1.362 . S
C3050 C3053 1.409 . S
C3051 H3043 0.930 . S
C3051 C3052 1.355 . S
C3051 C3053 1.415 . S
C3052 C3051 1.355 . S
C3052 C3054 1.419 . S
C3053 C3048 1.425 . S
C3053 C3050 1.409 . S
C3053 C3051 1.415 . S
C3054 H3044 0.930 . S
C3054 C3052 1.419 . S
C3054 C3055 1.362 . S
C3055 H3045 0.930 . S
C3055 C3048 1.409 . S
C3055 C3054 1.362 . S
H3056 C3062 0.930 . S
H3057 C3065 0.930 . S
H3058 C3066 0.930 . S
H3059 C3067 0.930 . S
H3060 C3070 0.930 . S
H3061 C3071 0.930 . S
C3062 H3056 0.930 . S
C3062 C3063 1.355 . S
C3062 C3064 1.415 . S
C3063 C3062 1.355 . S
C3063 C3065 1.419 . S
C3064 C3062 1.415 . S
C3064 C3069 1.425 . S
C3064 C3071 1.409 . S
C3065 H3057 0.930 . S
C3065 C3063 1.419 . S
C3065 C3066 1.362 . S
C3066 H3058 0.930 . S
C3066 C3065 1.362 . S
C3066 C3069 1.409 . S
C3067 H3059 0.930 . S
C3067 C3068 1.355 . S
C3067 C3069 1.415 . S
C3068 C3067 1.355 . S
C3068 C3070 1.419 . S
C3069 C3064 1.425 . S
C3069 C3066 1.409 . S
C3069 C3067 1.415 . S
C3070 H3060 0.930 . S
C3070 C3068 1.419 . S
C3070 C3071 1.362 . S
C3071 H3061 0.930 . S
C3071 C3064 1.409 . S
C3071 C3070 1.362 . S
H3072 C3078 0.930 . S
H3073 C3081 0.930 . S
H3074 C3082 0.930 . S
H3075 C3083 0.930 . S
H3076 C3086 0.930 . S
H3077 C3087 0.930 . S
C3078 H3072 0.930 . S
C3078 C3079 1.355 . S
C3078 C3080 1.415 . S
C3079 C3078 1.355 . S
C3079 C3081 1.419 . S
C3080 C3078 1.415 . S
C3080 C3085 1.425 . S
C3080 C3087 1.409 . S
C3081 H3073 0.930 . S
C3081 C3079 1.419 . S
C3081 C3082 1.362 . S
C3082 H3074 0.930 . S
C3082 C3081 1.362 . S
C3082 C3085 1.409 . S
C3083 H3075 0.930 . S
C3083 C3084 1.355 . S
C3083 C3085 1.415 . S
C3084 C3083 1.355 . S
C3084 C3086 1.419 . S
C3085 C3080 1.425 . S
C3085 C3082 1.409 . S
C3085 C3083 1.415 . S
C3086 H3076 0.930 . S
C3086 C3084 1.419 . S
C3086 C3087 1.362 . S
C3087 H3077 0.930 . S
C3087 C3080 1.409 . S
C3087 C3086 1.362 . S
H3088 C3094 0.930 . S
H3089 C3097 0.930 . S
H3090 C3098 0.930 . S
H3091 C3099 0.930 . S
H3092 C3102 0.930 . S
H3093 C3103 0.930 . S
C3094 H3088 0.930 . S
C3094 C3095 1.355 . S
C3094 C3096 1.415 . S
C3095 C3094 1.355 . S
C3095 C3097 1.419 . S
C3096 C3094 1.415 . S
C3096 C3101 1.425 . S
C3096 C3103 1.409 . S
C3097 H3089 0.930 . S
C3097 C3095 1.419 . S
C3097 C3098 1.362 . S
C3098 H3090 0.930 . S
C3098 C3097 1.362 . S
C3098 C3101 1.409 . S
C3099 H3091 0.930 . S
C3099 C3100 1.355 . S
C3099 C3101 1.415 . S
C3100 C3099 1.355 . S
C3100 C3102 1.419 . S
C3101 C3096 1.425 . S
C3101 C3098 1.409 . S
C3101 C3099 1.415 . S
C3102 H3092 0.930 . S
C3102 C3100 1.419 . S
C3102 C3103 1.362 . S
C3103 H3093 0.930 . S
C3103 C3096 1.409 . S
C3103 C3102 1.362 . S
H3104 C3110 0.930 . S
H3105 C3113 0.930 . S
H3106 C3114 0.930 . S
H3107 C3115 0.930 . S
H3108 C3118 0.930 . S
H3109 C3119 0.930 . S
C3110 H3104 0.930 . S
C3110 C3111 1.355 . S
C3110 C3112 1.415 . S
C3111 C3110 1.355 . S
C3111 C3113 1.419 . S
C3112 C3110 1.415 . S
C3112 C3117 1.425 . S
C3112 C3119 1.409 . S
C3113 H3105 0.930 . S
C3113 C3111 1.419 . S
C3113 C3114 1.362 . S
C3114 H3106 0.930 . S
C3114 C3113 1.362 . S
C3114 C3117 1.409 . S
C3115 H3107 0.930 . S
C3115 C3116 1.355 . S
C3115 C3117 1.415 . S
C3116 C3115 1.355 . S
C3116 C3118 1.419 . S
C3117 C3112 1.425 . S
C3117 C3114 1.409 . S
C3117 C3115 1.415 . S
C3118 H3108 0.930 . S
C3118 C3116 1.419 . S
C3118 C3119 1.362 . S
C3119 H3109 0.930 . S
C3119 C3112 1.409 . S
C3119 C3118 1.362 . S
H3120 C3126 0.930 . S
H3121 C3129 0.930 . S
H3122 C3130 0.930 . S
H3123 C3131 0.930 . S
H3124 C3134 0.930 . S
H3125 C3135 0.930 . S
C3126 H3120 0.930 . S
C3126 C3127 1.355 . S
C3126 C3128 1.415 . S
C3127 C3126 1.355 . S
C3127 C3129 1.419 . S
C3128 C3126 1.415 . S
C3128 C3133 1.425 . S
C3128 C3135 1.409 . S
C3129 H3121 0.930 . S
C3129 C3127 1.419 . S
C3129 C3130 1.362 . S
C3130 H3122 0.930 . S
C3130 C3129 1.362 . S
C3130 C3133 1.409 . S
C3131 H3123 0.930 . S
C3131 C3132 1.355 . S
C3131 C3133 1.415 . S
C3132 C3131 1.355 . S
C3132 C3134 1.419 . S
C3133 C3128 1.425 . S
C3133 C3130 1.409 . S
C3133 C3131 1.415 . S
C3134 H3124 0.930 . S
C3134 C3132 1.419 . S
C3134 C3135 1.362 . S
C3135 H3125 0.930 . S
C3135 C3128 1.409 . S
C3135 C3134 1.362 . S
H3136 C3142 0.930 . S
H3137 C3145 0.930 . S
H3138 C3146 0.930 . S
H3139 C3147 0.930 . S
H3140 C3150 0.930 . S
H3141 C3151 0.930 . S
C3142 H3136 0.930 . S
C3142 C3143 1.355 . S
C3142 C3144 1.415 . S
C3143 C3142 1.355 . S
C3143 C3145 1.419 . S
C3144 C3142 1.415 . S
C3144 C3149 1.425 . S
C3144 C3151 1.409 . S
C3145 H3137 0.930 . S
C3145 C3143 1.419 . S
C3145 C3146 1.362 . S
C3146 H3138 0.930 . S
C3146 C3145 1.362 . S
C3146 C3149 1.409 . S
C3147 H3139 0.930 . S
C3147 C3148 1.355 . S
C3147 C3149 1.415 . S
C3148 C3147 1.355 . S
C3148 C3150 1.419 . S
C3149 C3144 1.425 . S
C3149 C3146 1.409 . S
C3149 C3147 1.415 . S
C3150 H3140 0.930 . S
C3150 C3148 1.419 . S
C3150 C3151 1.362 . S
C3151 H3141 0.930 . S
C3151 C3144 1.409 . S
C3151 C3150 1.362 . S
H3152 C3158 0.930 . S
H3153 C3161 0.930 . S
H3154 C3162 0.930 . S
H3155 C3163 0.930 . S
H3156 C3166 0.930 . S
H3157 C3167 0.930 . S
C3158 H3152 0.930 . S
C3158 C3159 1.355 . S
C3158 C3160 1.415 . S
C3159 C3158 1.355 . S
C3159 C3161 1.419 . S
C3160 C3158 1.415 . S
C3160 C3165 1.425 . S
C3160 C3167 1.409 . S
C3161 H3153 0.930 . S
C3161 C3159 1.419 . S
C3161 C3162 1.362 . S
C3162 H3154 0.930 . S
C3162 C3161 1.362 . S
C3162 C3165 1.409 . S
C3163 H3155 0.930 . S
C3163 C3164 1.355 . S
C3163 C3165 1.415 . S
C3164 C3163 1.355 . S
C3164 C3166 1.419 . S
C3165 C3160 1.425 . S
C3165 C3162 1.409 . S
C3165 C3163 1.415 . S
C3166 H3156 0.930 . S
C3166 C3164 1.419 . S
C3166 C3167 1.362 . S
C3167 H3157 0.930 . S
C3167 C3160 1.409 . S
C3167 C3166 1.362 . S
H3168 C3174 0.930 . S
H3169 C3177 0.930 . S
H3170 C3178 0.930 . S
H3171 C3179 0.930 . S
H3172 C3182 0.930 . S
H3173 C3183 0.930 . S
C3174 H3168 0.930 . S
C3174 C3175 1.355 . S
C3174 C3176 1.415 . S
C3175 C3174 1.355 . S
C3175 C3177 1.419 . S
C3176 C3174 1.415 . S
C3176 C3181 1.425 . S
C3176 C3183 1.409 . S
C3177 H3169 0.930 . S
C3177 C3175 1.419 . S
C3177 C3178 1.362 . S
C3178 H3170 0.930 . S
C3178 C3177 1.362 . S
C3178 C3181 1.409 . S
C3179 H3171 0.930 . S
C3179 C3180 1.355 . S
C3179 C3181 1.415 . S
C3180 C3179 1.355 . S
C3180 C3182 1.419 . S
C3181 C3176 1.425 . S
C3181 C3178 1.409 . S
C3181 C3179 1.415 . S
C3182 H3172 0.930 . S
C3182 C3180 1.419 . S
C3182 C3183 1.362 . S
C3183 H3173 0.930 . S
C3183 C3176 1.409 . S
C3183 C3182 1.362 . S
H3184 C3190 0.930 . S
H3185 C3193 0.930 . S
H3186 C3194 0.930 . S
H3187 C3195 0.930 . S
H3188 C3198 0.930 . S
H3189 C3199 0.930 . S
C3190 H3184 0.930 . S
C3190 C3191 1.355 . S
C3190 C3192 1.415 . S
C3191 C3190 1.355 . S
C3191 C3193 1.419 . S
C3192 C3190 1.415 . S
C3192 C3197 1.425 . S
C3192 C3199 1.409 . S
C3193 H3185 0.930 . S
C3193 C3191 1.419 . S
C3193 C3194 1.362 . S
C3194 H3186 0.930 . S
C3194 C3193 1.362 . S
C3194 C3197 1.409 . S
C3195 H3187 0.930 . S
C3195 C3196 1.355 . S
C3195 C3197 1.415 . S
C3196 C3195 1.355 . S
C3196 C3198 1.419 . S
C3197 C3192 1.425 . S
C3197 C3194 1.409 . S
C3197 C3195 1.415 . S
C3198 H3188 0.930 . S
C3198 C3196 1.419 . S
C3198 C3199 1.362 . S
C3199 H3189 0.930 . S
C3199 C3192 1.409 . S
C3199 C3198 1.362 . S
H3200 C3206 0.930 . S
H3201 C3209 0.930 . S
H3202 C3210 0.930 . S
H3203 C3211 0.930 . S
H3204 C3214 0.930 . S
H3205 C3215 0.930 . S
C3206 H3200 0.930 . S
C3206 C3207 1.355 . S
C3206 C3208 1.415 . S
C3207 C3206 1.355 . S
C3207 C3209 1.419 . S
C3208 C3206 1.415 . S
C3208 C3213 1.425 . S
C3208 C3215 1.409 . S
C3209 H3201 0.930 . S
C3209 C3207 1.419 . S
C3209 C3210 1.362 . S
C3210 H3202 0.930 . S
C3210 C3209 1.362 . S
C3210 C3213 1.409 . S
C3211 H3203 0.930 . S
C3211 C3212 1.355 . S
C3211 C3213 1.415 . S
C3212 C3211 1.355 . S
C3212 C3214 1.419 . S
C3213 C3208 1.425 . S
C3213 C3210 1.409 . S
C3213 C3211 1.415 . S
C3214 H3204 0.930 . S
C3214 C3212 1.419 . S
C3214 C3215 1.362 . S
C3215 H3205 0.930 . S
C3215 C3208 1.409 . S
C3215 C3214 1.362 . S
H3216 C3222 0.930 . S
H3217 C3225 0.930 . S
H3218 C3226 0.930 . S
H3219 C3227 0.930 . S
H3220 C3230 0.930 . S
H3221 C3231 0.930 . S
C3222 H3216 0.930 . S
C3222 C3223 1.355 . S
C3222 C3224 1.415 . S
C3223 C3222 1.355 . S
C3223 C3225 1.419 . S
C3224 C3222 1.415 . S
C3224 C3229 1.425 . S
C3224 C3231 1.409 . S
C3225 H3217 0.930 . S
C3225 C3223 1.419 . S
C3225 C3226 1.362 . S
C3226 H3218 0.930 . S
C3226 C3225 1.362 . S
C3226 C3229 1.409 . S
C3227 H3219 0.930 . S
C3227 C3228 1.355 . S
C3227 C3229 1.415 . S
C3228 C3227 1.355 . S
C3228 C3230 1.419 . S
C3229 C3224 1.425 . S
C3229 C3226 1.409 . S
C3229 C3227 1.415 . S
C3230 H3220 0.930 . S
C3230 C3228 1.419 . S
C3230 C3231 1.362 . S
C3231 H3221 0.930 . S
C3231 C3224 1.409 . S
C3231 C3230 1.362 . S
H3232 C3238 0.930 . S
H3233 C3241 0.930 . S
H3234 C3242 0.930 . S
H3235 C3243 0.930 . S
H3236 C3246 0.930 . S
H3237 C3247 0.930 . S
C3238 H3232 0.930 . S
C3238 C3239 1.355 . S
C3238 C3240 1.415 . S
C3239 C3238 1.355 . S
C3239 C3241 1.419 . S
C3240 C3238 1.415 . S
C3240 C3245 1.425 . S
C3240 C3247 1.409 . S
C3241 H3233 0.930 . S
C3241 C3239 1.419 . S
C3241 C3242 1.362 . S
C3242 H3234 0.930 . S
C3242 C3241 1.362 . S
C3242 C3245 1.409 . S
C3243 H3235 0.930 . S
C3243 C3244 1.355 . S
C3243 C3245 1.415 . S
C3244 C3243 1.355 . S
C3244 C3246 1.419 . S
C3245 C3240 1.425 . S
C3245 C3242 1.409 . S
C3245 C3243 1.415 . S
C3246 H3236 0.930 . S
C3246 C3244 1.419 . S
C3246 C3247 1.362 . S
C3247 H3237 0.930 . S
C3247 C3240 1.409 . S
C3247 C3246 1.362 . S
H3248 C3254 0.930 . S
H3249 C3257 0.930 . S
H3250 C3258 0.930 . S
H3251 C3259 0.930 . S
H3252 C3262 0.930 . S
H3253 C3263 0.930 . S
C3254 H3248 0.930 . S
C3254 C3255 1.355 . S
C3254 C3256 1.415 . S
C3255 C3254 1.355 . S
C3255 C3257 1.419 . S
C3256 C3254 1.415 . S
C3256 C3261 1.425 . S
C3256 C3263 1.409 . S
C3257 H3249 0.930 . S
C3257 C3255 1.419 . S
C3257 C3258 1.362 . S
C3258 H3250 0.930 . S
C3258 C3257 1.362 . S
C3258 C3261 1.409 . S
C3259 H3251 0.930 . S
C3259 C3260 1.355 . S
C3259 C3261 1.415 . S
C3260 C3259 1.355 . S
C3260 C3262 1.419 . S
C3261 C3256 1.425 . S
C3261 C3258 1.409 . S
C3261 C3259 1.415 . S
C3262 H3252 0.930 . S
C3262 C3260 1.419 . S
C3262 C3263 1.362 . S
C3263 H3253 0.930 . S
C3263 C3256 1.409 . S
C3263 C3262 1.362 . S
H3264 C3270 0.930 . S
H3265 C3273 0.930 . S
H3266 C3274 0.930 . S
H3267 C3275 0.930 . S
H3268 C3278 0.930 . S
H3269 C3279 0.930 . S
C3270 H3264 0.930 . S
C3270 C3271 1.355 . S
C3270 C3272 1.415 . S
C3271 C3270 1.355 . S
C3271 C3273 1.419 . S
C3272 C3270 1.415 . S
C3272 C3277 1.425 . S
C3272 C3279 1.409 . S
C3273 H3265 0.930 . S
C3273 C3271 1.419 . S
C3273 C3274 1.362 . S
C3274 H3266 0.930 . S
C3274 C3273 1.362 . S
C3274 C3277 1.409 . S
C3275 H3267 0.930 . S
C3275 C3276 1.355 . S
C3275 C3277 1.415 . S
C3276 C3275 1.355 . S
C3276 C3278 1.419 . S
C3277 C3272 1.425 . S
C3277 C3274 1.409 . S
C3277 C3275 1.415 . S
C3278 H3268 0.930 . S
C3278 C3276 1.419 . S
C3278 C3279 1.362 . S
C3279 H3269 0.930 . S
C3279 C3272 1.409 . S
C3279 C3278 1.362 . S
H3280 C3286 0.930 . S
H3281 C3289 0.930 . S
H3282 C3290 0.930 . S
H3283 C3291 0.930 . S
H3284 C3294 0.930 . S
H3285 C3295 0.930 . S
C3286 H3280 0.930 . S
C3286 C3287 1.355 . S
C3286 C3288 1.415 . S
C3287 C3286 1.355 . S
C3287 C3289 1.419 . S
C3288 C3286 1.415 . S
C3288 C3293 1.425 . S
C3288 C3295 1.409 . S
C3289 H3281 0.930 . S
C3289 C3287 1.419 . S
C3289 C3290 1.362 . S
C3290 H3282 0.930 . S
C3290 C3289 1.362 . S
C3290 C3293 1.409 . S
C3291 H3283 0.930 . S
C3291 C3292 1.355 . S
C3291 C3293 1.415 . S
C3292 C3291 1.355 . S
C3292 C3294 1.419 . S
C3293 C3288 1.425 . S
C3293 C3290 1.409 . S
C3293 C3291 1.415 . S
C3294 H3284 0.930 . S
C3294 C3292 1.419 . S
C3294 C3295 1.362 . S
C3295 H3285 0.930 . S
C3295 C3288 1.409 . S
C3295 C3294 1.362 . S
H3296 C3302 0.930 . S
H3297 C3305 0.930 . S
H3298 C3306 0.930 . S
H3299 C3307 0.930 . S
H3300 C3310 0.930 . S
H3301 C3311 0.930 . S
C3302 H3296 0.930 . S
C3302 C3303 1.355 . S
C3302 C3304 1.415 . S
C3303 C3302 1.355 . S
C3303 C3305 1.419 . S
C3304 C3302 1.415 . S
C3304 C3309 1.425 . S
C3304 C3311 1.409 . S
C3305 H3297 0.930 . S
C3305 C3303 1.419 . S
C3305 C3306 1.362 . S
C3306 H3298 0.930 . S
C3306 C3305 1.362 . S
C3306 C3309 1.409 . S
C3307 H3299 0.930 . S
C3307 C3308 1.355 . S
C3307 C3309 1.415 . S
C3308 C3307 1.355 . S
C3308 C3310 1.419 . S
C3309 C3304 1.425 . S
C3309 C3306 1.409 . S
C3309 C3307 1.415 . S
C3310 H3300 0.930 . S
C3310 C3308 1.419 . S
C3310 C3311 1.362 . S
C3311 H3301 0.930 . S
C3311 C3304 1.409 . S
C3311 C3310 1.362 . S
H3312 C3318 0.930 . S
H3313 C3321 0.930 . S
H3314 C3322 0.930 . S
H3315 C3323 0.930 . S
H3316 C3326 0.930 . S
H3317 C3327 0.930 . S
C3318 H3312 0.930 . S
C3318 C3319 1.355 . S
C3318 C3320 1.415 . S
C3319 C3318 1.355 . S
C3319 C3321 1.419 . S
C3320 C3318 1.415 . S
C3320 C3325 1.425 . S
C3320 C3327 1.409 . S
C3321 H3313 0.930 . S
C3321 C3319 1.419 . S
C3321 C3322 1.362 . S
C3322 H3314 0.930 . S
C3322 C3321 1.362 . S
C3322 C3325 1.409 . S
C3323 H3315 0.930 . S
C3323 C3324 1.355 . S
C3323 C3325 1.415 . S
C3324 C3323 1.355 . S
C3324 C3326 1.419 . S
C3325 C3320 1.425 . S
C3325 C3322 1.409 . S
C3325 C3323 1.415 . S
C3326 H3316 0.930 . S
C3326 C3324 1.419 . S
C3326 C3327 1.362 . S
C3327 H3317 0.930 . S
C3327 C3320 1.409 . S
C3327 C3326 1.362 . S
H3328 C3334 0.930 . S
H3329 C3337 0.930 . S
H3330 C3338 0.930 . S
H3331 C3339 0.930 . S
H3332 C3342 0.930 . S
H3333 C3343 0.930 . S
C3334 H3328 0.930 . S
C3334 C3335 1.355 . S
C3334 C3336 1.415 . S
C3335 C3334 1.355 . S
C3335 C3337 1.419 . S
C3336 C3334 1.415 . S
C3336 C3341 1.425 . S
C3336 C3343 1.409 . S
C3337 H3329 0.930 . S
C3337 C3335 1.419 . S
C3337 C3338 1.362 . S
C3338 H3330 0.930 . S
C3338 C3337 1.362 . S
C3338 C3341 1.409 . S
C3339 H3331 0.930 . S
C3339 C3340 1.355 . S
C3339 C3341 1.415 . S
C3340 C3339 1.355 . S
C3340 C3342 1.419 . S
C3341 C3336 1.425 . S
C3341 C3338 1.409 . S
C3341 C3339 1.415 . S
C3342 H3332 0.930 . S
C3342 C3340 1.419 . S
C3342 C3343 1.362 . S
C3343 H3333 0.930 . S
C3343 C3336 1.409 . S
C3343 C3342 1.362 . S
H3344 C3350 0.930 . S
H3345 C3353 0.930 . S
H3346 C3354 0.930 . S
H3347 C3355 0.930 . S
H3348 C3358 0.930 . S
H3349 C3359 0.930 . S
C3350 H3344 0.930 . S
C3350 C3351 1.355 . S
C3350 C3352 1.415 . S
C3351 C3350 1.355 . S
C3351 C3353 1.419 . S
C3352 C3350 1.415 . S
C3352 C3357 1.425 . S
C3352 C3359 1.409 . S
C3353 H3345 0.930 . S
C3353 C3351 1.419 . S
C3353 C3354 1.362 . S
C3354 H3346 0.930 . S
C3354 C3353 1.362 . S
C3354 C3357 1.409 . S
C3355 H3347 0.930 . S
C3355 C3356 1.355 . S
C3355 C3357 1.415 . S
C3356 C3355 1.355 . S
C3356 C3358 1.419 . S
C3357 C3352 1.425 . S
C3357 C3354 1.409 . S
C3357 C3355 1.415 . S
C3358 H3348 0.930 . S
C3358 C3356 1.419 . S
C3358 C3359 1.362 . S
C3359 H3349 0.930 . S
C3359 C3352 1.409 . S
C3359 C3358 1.362 . S
H3360 C3366 0.930 . S
H3361 C3369 0.930 . S
H3362 C3370 0.930 . S
H3363 C3371 0.930 . S
H3364 C3374 0.930 . S
H3365 C3375 0.930 . S
C3366 H3360 0.930 . S
C3366 C3367 1.355 . S
C3366 C3368 1.415 . S
C3367 C3366 1.355 . S
C3367 C3369 1.419 . S
C3368 C3366 1.415 . S
C3368 C3373 1.425 . S
C3368 C3375 1.409 . S
C3369 H3361 0.930 . S
C3369 C3367 1.419 . S
C3369 C3370 1.362 . S
C3370 H3362 0.930 . S
C3370 C3369 1.362 . S
C3370 C3373 1.409 . S
C3371 H3363 0.930 . S
C3371 C3372 1.355 . S
C3371 C3373 1.415 . S
C3372 C3371 1.355 . S
C3372 C3374 1.419 . S
C3373 C3368 1.425 . S
C3373 C3370 1.409 . S
C3373 C3371 1.415 . S
C3374 H3364 0.930 . S
C3374 C3372 1.419 . S
C3374 C3375 1.362 . S
C3375 H3365 0.930 . S
C3375 C3368 1.409 . S
C3375 C3374 1.362 . S
H3376 C3382 0.930 . S
H3377 C3385 0.930 . S
H3378 C3386 0.930 . S
H3379 C3387 0.930 . S
H3380 C3390 0.930 . S
H3381 C3391 0.930 . S
C3382 H3376 0.930 . S
C3382 C3383 1.355 . S
C3382 C3384 1.415 . S
C3383 C3382 1.355 . S
C3383 C3385 1.419 . S
C3384 C3382 1.415 . S
C3384 C3389 1.425 . S
C3384 C3391 1.409 . S
C3385 H3377 0.930 . S
C3385 C3383 1.419 . S
C3385 C3386 1.362 . S
C3386 H3378 0.930 . S
C3386 C3385 1.362 . S
C3386 C3389 1.409 . S
C3387 H3379 0.930 . S
C3387 C3388 1.355 . S
C3387 C3389 1.415 . S
C3388 C3387 1.355 . S
C3388 C3390 1.419 . S
C3389 C3384 1.425 . S
C3389 C3386 1.409 . S
C3389 C3387 1.415 . S
C3390 H3380 0.930 . S
C3390 C3388 1.419 . S
C3390 C3391 1.362 . S
C3391 H3381 0.930 . S
C3391 C3384 1.409 . S
C3391 C3390 1.362 . S
H3392 C3398 0.930 . S
H3393 C3401 0.930 . S
H3394 C3402 0.930 . S
H3395 C3403 0.930 . S
H3396 C3406 0.930 . S
H3397 C3407 0.930 . S
C3398 H3392 0.930 . S
C3398 C3399 1.355 . S
C3398 C3400 1.415 . S
C3399 C3398 1.355 . S
C3399 C3401 1.419 . S
C3400 C3398 1.415 . S
C3400 C3405 1.425 . S
C3400 C3407 1.409 . S
C3401 H3393 0.930 . S
C3401 C3399 1.419 . S
C3401 C3402 1.362 . S
C3402 H3394 0.930 . S
C3402 C3401 1.362 . S
C3402 C3405 1.409 . S
C3403 H3395 0.930 . S
C3403 C3404 1.355 . S
C3403 C3405 1.415 . S
C3404 C3403 1.355 . S
C3404 C3406 1.419 . S
C3405 C3400 1.425 . S
C3405 C3402 1.409 . S
C3405 C3403 1.415 . S
C3406 H3396 0.930 . S
C3406 C3404 1.419 . S
C3406 C3407 1.362 . S
C3407 H3397 0.930 . S
C3407 C3400 1.409 . S
C3407 C3406 1.362 . S
H3408 C3414 0.930 . S
H3409 C3417 0.930 . S
H3410 C3418 0.930 . S
H3411 C3419 0.930 . S
H3412 C3422 0.930 . S
H3413 C3423 0.930 . S
C3414 H3408 0.930 . S
C3414 C3415 1.355 . S
C3414 C3416 1.415 . S
C3415 C3414 1.355 . S
C3415 C3417 1.419 . S
C3416 C3414 1.415 . S
C3416 C3421 1.425 . S
C3416 C3423 1.409 . S
C3417 H3409 0.930 . S
C3417 C3415 1.419 . S
C3417 C3418 1.362 . S
C3418 H3410 0.930 . S
C3418 C3417 1.362 . S
C3418 C3421 1.409 . S
C3419 H3411 0.930 . S
C3419 C3420 1.355 . S
C3419 C3421 1.415 . S
C3420 C3419 1.355 . S
C3420 C3422 1.419 . S
C3421 C3416 1.425 . S
C3421 C3418 1.409 . S
C3421 C3419 1.415 . S
C3422 H3412 0.930 . S
C3422 C3420 1.419 . S
C3422 C3423 1.362 . S
C3423 H3413 0.930 . S
C3423 C3416 1.409 . S
C3423 C3422 1.362 . S
H3424 C3430 0.930 . S
H3425 C3433 0.930 . S
H3426 C3434 0.930 . S
H3427 C3435 0.930 . S
H3428 C3438 0.930 . S
H3429 C3439 0.930 . S
C3430 H3424 0.930 . S
C3430 C3431 1.355 . S
C3430 C3432 1.415 . S
C3431 C3430 1.355 . S
C3431 C3433 1.419 . S
C3432 C3430 1.415 . S
C3432 C3437 1.425 . S
C3432 C3439 1.409 . S
C3433 H3425 0.930 . S
C3433 C3431 1.419 . S
C3433 C3434 1.362 . S
C3434 H3426 0.930 . S
C3434 C3433 1.362 . S
C3434 C3437 1.409 . S
C3435 H3427 0.930 . S
C3435 C3436 1.355 . S
C3435 C3437 1.415 . S
C3436 C3435 1.355 . S
C3436 C3438 1.419 . S
C3437 C3432 1.425 . S
C3437 C3434 1.409 . S
C3437 C3435 1.415 . S
C3438 H3428 0.930 . S
C3438 C3436 1.419 . S
C3438 C3439 1.362 . S
C3439 H3429 0.930 . S
C3439 C3432 1.409 . S
C3439 C3438 1.362 . S
H3440 C3446 0.930 . S
H3441 C3449 0.930 . S
H3442 C3450 0.930 . S
H3443 C3451 0.930 . S
H3444 C3454 0.930 . S
H3445 C3455 0.930 . S
C3446 H3440 0.930 . S
C3446 C3447 1.355 . S
C3446 C3448 1.415 . S
C3447 C3446 1.355 . S
C3447 C3449 1.419 . S
C3448 C3446 1.415 . S
C3448 C3453 1.425 . S
C3448 C3455 1.409 . S
C3449 H3441 0.930 . S
C3449 C3447 1.419 . S
C3449 C3450 1.362 . S
C3450 H3442 0.930 . S
C3450 C3449 1.362 . S
C3450 C3453 1.409 . S
C3451 H3443 0.930 . S
C3451 C3452 1.355 . S
C3451 C3453 1.415 . S
C3452 C3451 1.355 . S
C3452 C3454 1.419 . S
C3453 C3448 1.425 . S
C3453 C3450 1.409 . S
C3453 C3451 1.415 . S
C3454 H3444 0.930 . S
C3454 C3452 1.419 . S
C3454 C3455 1.362 . S
C3455 H3445 0.930 . S
C3455 C3448 1.409 . S
C3455 C3454 1.362 . S
H3456 C3462 0.930 . S
H3457 C3465 0.930 . S
H3458 C3466 0.930 . S
H3459 C3467 0.930 . S
H3460 C3470 0.930 . S
H3461 C3471 0.930 . S
C3462 H3456 0.930 . S
C3462 C3463 1.355 . S
C3462 C3464 1.415 . S
C3463 C3462 1.355 . S
C3463 C3465 1.419 . S
C3464 C3462 1.415 . S
C3464 C3469 1.425 . S
C3464 C3471 1.409 . S
C3465 H3457 0.930 . S
C3465 C3463 1.419 . S
C3465 C3466 1.362 . S
C3466 H3458 0.930 . S
C3466 C3465 1.362 . S
C3466 C3469 1.409 . S
C3467 H3459 0.930 . S
C3467 C3468 1.355 . S
C3467 C3469 1.415 . S
C3468 C3467 1.355 . S
C3468 C3470 1.419 . S
C3469 C3464 1.425 . S
C3469 C3466 1.409 . S
C3469 C3467 1.415 . S
C3470 H3460 0.930 . S
C3470 C3468 1.419 . S
C3470 C3471 1.362 . S
C3471 H3461 0.930 . S
C3471 C3464 1.409 . S
C3471 C3470 1.362 . S
H3472 C3478 0.930 . S
H3473 C3481 0.930 . S
H3474 C3482 0.930 . S
H3475 C3483 0.930 . S
H3476 C3486 0.930 . S
H3477 C3487 0.930 . S
C3478 H3472 0.930 . S
C3478 C3479 1.355 . S
C3478 C3480 1.415 . S
C3479 C3478 1.355 . S
C3479 C3481 1.419 . S
C3480 C3478 1.415 . S
C3480 C3485 1.425 . S
C3480 C3487 1.409 . S
C3481 H3473 0.930 . S
C3481 C3479 1.419 . S
C3481 C3482 1.362 . S
C3482 H3474 0.930 . S
C3482 C3481 1.362 . S
C3482 C3485 1.409 . S
C3483 H3475 0.930 . S
C3483 C3484 1.355 . S
C3483 C3485 1.415 . S
C3484 C3483 1.355 . S
C3484 C3486 1.419 . S
C3485 C3480 1.425 . S
C3485 C3482 1.409 . S
C3485 C3483 1.415 . S
C3486 H3476 0.930 . S
C3486 C3484 1.419 . S
C3486 C3487 1.362 . S
C3487 H3477 0.930 . S
C3487 C3480 1.409 . S
C3487 C3486 1.362 . S
H3488 C3494 0.930 . S
H3489 C3497 0.930 . S
H3490 C3498 0.930 . S
H3491 C3499 0.930 . S
H3492 C3502 0.930 . S
H3493 C3503 0.930 . S
C3494 H3488 0.930 . S
C3494 C3495 1.355 . S
C3494 C3496 1.415 . S
C3495 C3494 1.355 . S
C3495 C3497 1.419 . S
C3496 C3494 1.415 . S
C3496 C3501 1.425 . S
C3496 C3503 1.409 . S
C3497 H3489 0.930 . S
C3497 C3495 1.419 . S
C3497 C3498 1.362 . S
C3498 H3490 0.930 . S
C3498 C3497 1.362 . S
C3498 C3501 1.409 . S
C3499 H3491 0.930 . S
C3499 C3500 1.355 . S
C3499 C3501 1.415 . S
C3500 C3499 1.355 . S
C3500 C3502 1.419 . S
C3501 C3496 1.425 . S
C3501 C3498 1.409 . S
C3501 C3499 1.415 . S
C3502 H3492 0.930 . S
C3502 C3500 1.419 . S
C3502 C3503 1.362 . S
C3503 H3493 0.930 . S
C3503 C3496 1.409 . S
C3503 C3502 1.362 . S
C1591 C545 0.977 . S
C1596 C17 0.983 . S
C1607 C50 0.997 . S
C1612 C974 0.993 . S
C1623 C611 0.980 . S
C1628 C83 0.985 1_455 S
C1639 C1040 0.967 . S
C1644 C116 0.962 . S
C1655 C149 0.954 . S
C1660 C413 0.956 1_655 S
C1671 C842 1.005 . S
C1676 C182 0.985 . S
C1687 C479 0.975 . S
C1692 C215 1.002 . S
C1703 C248 0.962 . S
C1708 C908 0.970 . S
C1719 C281 0.954 . S
C1724 C1568 0.945 . S
C1735 C314 0.967 . S
C1740 C1535 0.949 . S
C1751 C347 0.962 . S
C1756 C1502 0.956 . S
C1767 C1469 0.938 . S
C1772 C380 0.929 1_556 S
C1783 C1370 0.997 . S
C1788 C446 0.986 . S
C1799 C512 0.994 . S
C1804 C1436 0.985 . S
C1815 C1238 0.995 . S
C1820 C578 0.989 . S
C1831 C644 0.988 . S
C1836 C1304 0.995 . S
C1847 C677 0.917 . S
C1852 C1172 0.922 . S
C1863 C1139 0.966 . S
C1868 C710 0.966 . S
C1879 C1106 0.957 . S
C1884 C743 0.961 . S
C1895 C776 0.962 . S
C1900 C1073 0.954 . S
C1911 C809 0.977 . S
C1916 C1337 0.967 . S
C1927 C875 0.989 . S
C1932 C1403 0.979 . S
C1943 C941 0.976 . S
C1948 C1205 0.972 . S
C1959 C1007 0.968 . S
C1964 C1271 0.983 . S
C1975 C107 1.680 . S
C1980 N14 1.601 . S
C1991 N38 1.572 . S
C1996 C28 1.748 . S
C2007 C41 1.747 . S
C2012 N71 1.584 . S
C2023 N104 1.576 . S
C2028 C74 1.739 . S
C2039 N137 1.541 . S
C2044 C173 1.703 . S
C2055 C206 1.722 . S
C2060 N170 1.518 . S
C2071 N203 1.493 . S
C2076 C259 1.693 . S
C2087 N245 1.655 . S
C2092 C140 1.696 . S
C2103 N113 1.647 . S
C2108 C272 1.689 . S
C2119 C358 1.722 . S
C2124 N5 1.480 . S
C2135 C391 1.717 . S
C2140 N47 1.615 . S
C2151 C325 1.687 . S
C2156 N80 1.585 . S
C2167 C305 1.729 . S
C2172 N179 1.679 . S
C2183 C292 1.732 . S
C2188 N212 1.680 . S
C2199 N236 1.475 . S
C2204 C338 1.699 . S
C2215 N146 1.597 . S
C2220 C371 1.664 . S
C2231 C8 1.658 . S
C2236 N278 1.580 . S
C2247 C160 1.678 . S
C2252 N311 1.590 . S
C2263 N269 1.505 . S
C2268 C193 1.678 . S
C2279 C226 1.699 . S
C2284 N344 1.595 . S
C2295 N377 1.662 . S
C2300 C239 1.706 . S
C2311 C94 1.663 . S
C2316 N368 1.493 . S
C2327 N302 1.433 . S
C2332 C127 1.677 . S
C2343 C61 1.689 . S
C2348 N335 1.442 . S
C2359 C503 1.675 . S
C2364 N410 1.602 . S
C2375 C424 1.718 . S
C2380 N434 1.490 . S
C2391 N467 1.589 . S
C2396 C437 1.762 . S
C2407 N500 1.549 . S
C2412 C470 1.719 . S
C2423 N533 1.580 . S
C2428 C569 1.743 . S
C2439 N566 1.575 . S
C2444 C602 1.741 . S
C2455 N599 1.433 . S
C2460 C655 1.676 . S
C2471 C536 1.690 . S
C2476 N641 1.609 . S
C2487 C668 1.687 . S
C2492 N509 1.632 . S
C2503 C754 1.692 . S
C2508 N401 1.446 . S
C2519 N443 1.637 . S
C2524 C787 1.737 . S
C2535 C701 1.726 . S
C2540 N476 1.669 . S
C2551 C721 1.729 . S
C2556 N575 1.672 . S
C2567 N608 1.607 . S
C2572 C688 1.706 . S
C2583 C734 1.720 . S
C2588 N632 1.496 . S
C2599 C767 1.676 . S
C2604 N542 1.595 . S
C2615 N674 1.646 . S
C2620 C404 1.687 . S
C2631 C556 1.689 . S
C2636 N698 1.476 . S
C2647 N665 1.449 . S
C2652 C589 1.642 . S
C2663 N740 1.663 . S
C2668 C622 1.714 . S
C2679 N773 1.649 . S
C2684 C635 1.706 . S
C2695 N764 1.434 . S
C2700 C490 1.669 . S
C2711 C523 1.693 . S
C2716 N707 1.626 . S
C2727 N731 1.545 . S
C2732 C457 1.720 . S
C2743 N806 1.605 . S
C2748 C899 1.684 . S
C2759 N830 1.567 . S
C2764 C820 1.745 . S
C2775 N863 1.584 . S
C2780 C833 1.750 . S
C2791 C866 1.736 . S
C2796 N896 1.539 . S
C2807 N929 1.481 . S
C2812 C965 1.689 . S
C2823 N962 1.470 . S
C2828 C998 1.710 . S
C2839 N995 1.536 . S
C2844 C1051 1.705 . S
C2855 C932 1.662 . S
C2860 N1037 1.596 . S
C2871 N905 1.578 . S
C2876 C1064 1.658 . S
C2887 N797 1.474 . S
C2892 C1150 1.720 . S
C2903 C1183 1.727 . S
C2908 N839 1.655 . S
C2919 C1117 1.711 . S
C2924 N872 1.632 . S
C2935 C1097 1.742 . S
C2940 N971 1.682 . S
C2951 C1084 1.732 . S
C2956 N1004 1.680 . S
C2967 C1130 1.701 . S
C2972 N1028 1.499 . S
C2983 C1163 1.694 . S
C2988 N938 1.651 . S
C2999 N1070 1.618 . S
C3004 C800 1.672 . S
C3015 C952 1.660 . S
C3020 N1103 1.567 . S
C3031 N1061 1.495 . S
C3036 C985 1.676 . S
C3047 C1018 1.712 . S
C3052 N1136 1.649 . S
C3063 N1169 1.636 . S
C3068 C1031 1.685 . S
C3079 N1160 1.494 . S
C3084 C886 1.658 . S
C3095 N1094 1.502 . S
C3100 C919 1.694 . S
C3111 N1127 1.431 . S
C3116 C853 1.688 . S
C3127 N1202 1.583 . S
C3132 C1295 1.663 . S
C3143 N1226 1.542 . S
C3148 C1216 1.739 . S
C3159 N1259 1.575 . S
C3164 C1229 1.758 . S
C3175 N1292 1.564 . S
C3180 C1262 1.721 . S
C3191 N1325 1.486 . S
C3196 C1361 1.712 . S
C3207 N1358 1.573 . S
C3212 C1394 1.744 . S
C3223 N1391 1.454 . S
C3228 C1447 1.687 . S
C3239 N1433 1.618 . S
C3244 C1328 1.687 . S
C3255 N1301 1.588 . S
C3260 C1460 1.665 . S
C3271 N1193 1.485 . S
C3276 C1546 1.694 . S
C3287 N1235 1.689 . S
C3292 C1579 1.747 . S
C3303 N1268 1.681 . S
C3308 C1493 1.725 . S
C3319 C1513 1.709 . S
C3324 N1367 1.607 . S
C3335 C1480 1.706 . S
C3340 N1400 1.606 . S
C3351 N1424 1.480 . S
C3356 C1526 1.713 . S
C3367 N1334 1.596 . S
C3372 C1559 1.671 . S
C3383 C1196 1.677 . S
C3388 N1466 1.631 . S
C3399 N1490 1.440 . S
C3404 C1348 1.680 . S
C3415 C1381 1.657 . S
C3420 N1457 1.500 . S
C3431 N1532 1.594 . S
C3436 C1414 1.695 . S
C3447 C1427 1.707 . S
C3452 N1565 1.650 . S
C3463 C1282 1.674 . S
C3468 N1556 1.450 . S
C3479 N1499 1.626 . S
C3484 C1315 1.682 . S
C3495 C1249 1.711 . S
C3500 N1523 1.488 . S
