# Generated by pormake.
# Topology dmp, (4)-cn, num edge types: 1
# Building blocks:
#     Node 0, Type 0, BuildingBlock: ESEHIV_clean_sbu_0, # of connection points: 4
#     Node 1, Type 0, BuildingBlock: ESEHIV_clean_sbu_0, # of connection points: 4
#     Node 2, Type 0, BuildingBlock: ESEHIV_clean_sbu_0, # of connection points: 4
#     Node 3, Type 0, BuildingBlock: ESEHIV_clean_sbu_0, # of connection points: 4
#     Edge 4, Type (0, 0), BuildingBlock: FUNLAD_clean_linker_0, # of connection points: 2
#     Edge 5, Type (0, 0), BuildingBlock: FUNLAD_clean_linker_0, # of connection points: 2
#     Edge 6, Type (0, 0), BuildingBlock: FUNLAD_clean_linker_0, # of connection points: 2
#     Edge 7, Type (0, 0), BuildingBlock: FUNLAD_clean_linker_0, # of connection points: 2
#     Edge 8, Type (0, 0), BuildingBlock: FUNLAD_clean_linker_0, # of connection points: 2
#     Edge 9, Type (0, 0), BuildingBlock: FUNLAD_clean_linker_0, # of connection points: 2
#     Edge 10, Type (0, 0), BuildingBlock: FUNLAD_clean_linker_0, # of connection points: 2
#     Edge 11, Type (0, 0), BuildingBlock: FUNLAD_clean_linker_0, # of connection points: 2
# Relax obj value: 0.000
# Max RMSD: 0.011
# Mean RMSD: 0.011
data_MOF--net-dmp--node1-ESEHIV_clean_sbu_0--edge1-FUNLAD_clean_linker_0
_symmetry_space_group_name_H-M    P1
_symmetry_Int_Tables_number       1
_symmetry_cell_setting            triclinic
loop_
_symmetry_equiv_pos_as_xyz
'x, y, z'
_cell_length_a     45.016867
_cell_length_b     28.413609
_cell_length_c     6.6694261
_cell_angle_alpha  90.08391
_cell_angle_beta   89.839164
_cell_angle_gamma 98.50596
loop_
_atom_site_label
_atom_site_type_symbol
_atom_site_fract_x
_atom_site_fract_y
_atom_site_fract_z
_atom_type_partial_charge
Cu0 Cu 0.14339 0.27547 0.24001 0.0
N1 N 0.16935 0.24843 0.06864 0.0
N2 N 0.19825 0.19439 0.97199 0.0
C3 C 0.17825 0.20617 0.10797 0.0
C4 C 0.20188 0.23098 0.84024 0.0
C5 C 0.18411 0.26433 0.90096 0.0
O6 O 0.11235 0.22218 0.30868 0.0
C7 C 0.18434 0.34594 0.38949 0.0
O8 O 0.18431 0.35537 0.19679 0.0
H9 H 0.17013 0.18466 0.236 0.0
H10 H 0.18265 0.2982 0.83152 0.0
N11 N 0.1232 0.32334 0.13475 0.0
N12 N 0.09558 0.38271 0.15381 0.0
C13 C 0.10936 0.35123 0.2562 0.0
C14 C 0.11818 0.33772 0.94711 0.0
C15 C 0.10086 0.37415 0.95863 0.0
C16 C 0.09544 0.20894 0.15927 0.0
O17 O 0.10022 0.23217 0.98947 0.0
H18 H 0.10903 0.34775 0.41785 0.0
H19 H 0.1262 0.32256 0.81205 0.0
O20 O 0.16789 0.30846 0.4539 0.0
H21 H 0.21695 0.23429 0.71269 0.0
H22 H 0.09293 0.39297 0.83371 0.0
Cu23 Cu 0.38815 0.76773 0.22668 0.0
N24 N 0.3599 0.78821 0.05314 0.0
N25 N 0.32949 0.83757 0.93429 0.0
C26 C 0.34942 0.82991 0.07754 0.0
C27 C 0.32742 0.79873 0.81462 0.0
C28 C 0.3461 0.7683 0.88907 0.0
O29 O 0.41659 0.82584 0.27494 0.0
C30 C 0.35063 0.69457 0.39136 0.0
O31 O 0.35224 0.68176 0.2029 0.0
H32 H 0.35684 0.85451 0.19746 0.0
H33 H 0.34936 0.73412 0.82943 0.0
N34 N 0.41102 0.72234 0.12746 0.0
N35 N 0.44048 0.66543 0.15077 0.0
C36 C 0.42522 0.69556 0.25107 0.0
C37 C 0.41745 0.70876 0.94073 0.0
C38 C 0.43585 0.67386 0.95487 0.0
C39 C 0.42771 0.84254 0.10847 0.0
O40 O 0.42036 0.81793 0.9445 0.0
H41 H 0.42454 0.69865 0.41276 0.0
H42 H 0.40943 0.72315 0.80443 0.0
O43 O 0.36493 0.73473 0.44692 0.0
H44 H 0.31318 0.79235 0.68409 0.0
H45 H 0.44482 0.6558 0.83103 0.0
Cu46 Cu 0.88585 0.76415 0.77071 0.0
N47 N 0.86168 0.79425 0.94421 0.0
N48 N 0.83689 0.85211 0.05642 0.0
C49 C 0.85576 0.83889 0.91588 0.0
C50 C 0.83074 0.81387 0.17831 0.0
C51 C 0.84608 0.77832 0.10852 0.0
O52 O 0.91922 0.8143 0.7073 0.0
C53 C 0.83416 0.71773 0.57482 0.0
O54 O 0.82018 0.73281 0.72963 0.0
H55 H 0.86458 0.86068 0.7902 0.0
H56 H 0.8453 0.74294 0.16854 0.0
N57 N 0.90257 0.71286 0.87667 0.0
N58 N 0.92768 0.65045 0.85924 0.0
C59 C 0.91485 0.6829 0.75594 0.0
C60 C 0.90754 0.69878 0.06474 0.0
C61 C 0.92327 0.66042 0.05427 0.0
C62 C 0.93679 0.82518 0.85572 0.0
O63 O 0.93174 0.80101 0.02296 0.0
H64 H 0.9153 0.68616 0.59419 0.0
H65 H 0.90109 0.71601 0.19939 0.0
O66 O 0.86199 0.7334 0.54886 0.0
H67 H 0.81615 0.8115 0.30826 0.0
H68 H 0.93113 0.64175 0.17995 0.0
Cu69 Cu 0.65139 0.28441 0.76473 0.0
N70 N 0.682 0.26438 0.9202 0.0
N71 N 0.71234 0.21408 0.03141 0.0
C72 C 0.68663 0.21867 0.9341 0.0
C73 C 0.72446 0.25904 0.08006 0.0
C74 C 0.70573 0.28993 0.01075 0.0
O75 O 0.61958 0.22939 0.75268 0.0
C76 C 0.69677 0.32072 0.48337 0.0
O77 O 0.71433 0.29419 0.5719 0.0
H78 H 0.67214 0.18956 0.86372 0.0
H79 H 0.70994 0.32836 0.01528 0.0
N80 N 0.634 0.33534 0.86931 0.0
N81 N 0.60818 0.39703 0.85198 0.0
C82 C 0.62182 0.36533 0.74868 0.0
C83 C 0.62789 0.34843 0.05723 0.0
C84 C 0.61186 0.38641 0.04691 0.0
C85 C 0.61045 0.21491 0.92676 0.0
O86 O 0.62205 0.23888 0.08355 0.0
H87 H 0.62187 0.36247 0.58687 0.0
H88 H 0.63387 0.3309 0.19173 0.0
O89 O 0.66851 0.31206 0.51405 0.0
H90 H 0.74564 0.26915 0.15612 0.0
H91 H 0.60327 0.40432 0.17275 0.0
C92 C 0.31087 0.90824 0.08139 0.0
C93 C 0.31399 0.87868 0.91522 0.0
C94 C 0.29647 0.9485 0.06345 0.0
C95 C 0.28434 0.96032 0.87867 0.0
C96 C 0.28759 0.93092 0.71236 0.0
C97 C 0.30208 0.89062 0.73026 0.0
C98 C 0.26905 1.00345 0.85184 0.0
C99 C 0.25796 0.02692 0.00529 0.0
C100 C 0.24264 0.0702 0.98641 0.0
C101 C 0.22978 0.08691 0.15991 0.0
C102 C 0.21545 0.12732 0.15482 0.0
C103 C 0.21339 0.15264 0.97538 0.0
H104 H 0.25074 0.08485 0.66888 0.0
C105 C 0.22643 0.1363 0.80109 0.0
C106 C 0.24089 0.09566 0.80622 0.0
H107 H 0.22529 0.15465 0.65996 0.0
H108 H 0.31945 0.90035 0.22684 0.0
H109 H 0.29549 0.97047 0.195 0.0
H110 H 0.27884 0.93911 0.56738 0.0
H111 H 0.30432 0.8693 0.59809 0.0
H112 H 0.26621 1.01501 0.69917 0.0
H113 H 0.25936 1.01318 0.15601 0.0
H114 H 0.23085 0.06863 0.30163 0.0
H115 H 0.20635 0.13891 0.29346 0.0
C116 C 0.19512 0.42942 0.50321 0.0
C117 C 0.20071 0.38235 0.52258 0.0
C118 C 0.2154 0.46736 0.5779 0.0
C119 C 0.24203 0.45913 0.67351 0.0
C120 C 0.24645 0.41158 0.7053 0.0
C121 C 0.22596 0.37348 0.63067 0.0
C122 C 0.2675 0.49848 0.71039 0.0
C123 C 0.26481 0.54534 0.70678 0.0
C124 C 0.29039 0.58492 0.67599 0.0
C125 C 0.28446 0.63227 0.6801 0.0
C126 C 0.30551 0.6697 0.60659 0.0
C127 C 0.33305 0.66053 0.52901 0.0
H128 H 0.3249 0.5412 0.60357 0.0
C129 C 0.34001 0.61405 0.53906 0.0
C130 C 0.31907 0.57667 0.61222 0.0
H131 H 0.36095 0.60602 0.47656 0.0
H132 H 0.17598 0.43714 0.41765 0.0
H133 H 0.21101 0.50294 0.54554 0.0
H134 H 0.26676 0.40395 0.77706 0.0
H135 H 0.23112 0.33756 0.64358 0.0
H136 H 0.28958 0.48798 0.72518 0.0
H137 H 0.24252 0.55552 0.70985 0.0
H138 H 0.26263 0.63997 0.72724 0.0
H139 H 0.29925 0.70495 0.5952 0.0
C140 C 0.75616 0.17118 0.08247 0.0
C141 C 0.72499 0.17049 0.06037 0.0
C142 C 0.76836 0.12866 0.10061 0.0
C143 C 0.74968 0.08419 0.09669 0.0
C144 C 0.71852 0.08373 0.08022 0.0
C145 C 0.70636 0.12612 0.06172 0.0
C146 C 0.76142 0.03759 0.11184 0.0
C147 C 0.79011 0.03166 0.0717 0.0
C148 C 0.80155 0.98468 0.07483 0.0
C149 C 0.82878 0.98097 0.97666 0.0
C150 C 0.8404 0.93792 0.97249 0.0
C151 C 0.82522 0.89703 0.06734 0.0
H152 H 0.76602 0.94533 0.25628 0.0
C153 C 0.79827 0.90088 0.16977 0.0
C154 C 0.7866 0.94408 0.17388 0.0
H155 H 0.78587 0.87034 0.24463 0.0
H156 H 0.77127 0.20453 0.08208 0.0
H157 H 0.7924 0.13107 0.11891 0.0
H158 H 0.70342 0.05028 0.0793 0.0
H159 H 0.68224 0.12401 0.04909 0.0
H160 H 0.7451 1.00659 0.14617 0.0
H161 H 0.80586 0.06213 0.02276 0.0
H162 H 0.8411 1.01154 0.90096 0.0
H163 H 0.86149 0.93695 0.89557 0.0
C164 C 0.78821 0.66099 0.48459 0.0
C165 C 0.81938 0.67497 0.46538 0.0
C166 C 0.77467 0.61582 0.42254 0.0
C167 C 0.79198 0.5833 0.33801 0.0
C168 C 0.82287 0.59855 0.30713 0.0
C169 C 0.83642 0.64384 0.36954 0.0
C170 C 0.77963 0.53193 0.30415 0.0
C171 C 0.74998 0.51433 0.30293 0.0
C172 C 0.7372 0.46252 0.31432 0.0
C173 C 0.70575 0.44995 0.31854 0.0
C174 C 0.69247 0.40326 0.36069 0.0
C175 C 0.71028 0.36763 0.39927 0.0
H176 H 0.77921 0.43332 0.33807 0.0
C177 C 0.74166 0.37934 0.38198 0.0
C178 C 0.75499 0.42609 0.34049 0.0
H179 H 0.75612 0.35278 0.40948 0.0
H180 H 0.7744 0.68407 0.55799 0.0
H181 H 0.75099 0.60599 0.45312 0.0
H182 H 0.8369 0.57449 0.24315 0.0
H183 H 0.86052 0.65313 0.35451 0.0
H184 H 0.79604 0.50783 0.28983 0.0
H185 H 0.73379 0.53905 0.30419 0.0
H186 H 0.69129 0.47685 0.2985 0.0
H187 H 0.66826 0.39586 0.3737 0.0
C188 C 0.07732 0.12341 0.2472 0.0
C189 C 0.07206 0.16657 0.16208 0.0
C190 C 0.0577 0.08121 0.2073 0.0
C191 C 0.03238 0.0818 0.08323 0.0
C192 C 0.02622 0.12562 0.01092 0.0
C193 C 0.04599 0.16736 0.04768 0.0
C194 C 1.01197 0.03789 0.02323 0.0
C195 C 0.02098 0.99494 0.00359 0.0
C196 C 1.0005 0.95126 0.94166 0.0
C197 C 1.00603 0.90724 0.01562 0.0
C198 C 0.98611 0.86581 0.97599 0.0
C199 C 0.96052 0.86713 0.85715 0.0
H200 H 0.9713 0.98547 0.74805 0.0
C201 C 0.95595 0.91051 0.77074 0.0
C202 C 0.97572 0.95236 0.81336 0.0
H203 H 0.93627 0.91255 0.67988 0.0
H204 H 0.0974 0.12183 0.33463 0.0
H205 H 0.06264 0.04826 0.27124 0.0
H206 H 1.00673 0.12733 0.91773 0.0
H207 H 0.04141 0.2002 0.9802 0.0
H208 H 0.989 0.04177 0.98572 0.0
H209 H 0.04391 0.99091 0.04143 0.0
H210 H 0.02513 0.90515 0.11205 0.0
H211 H 0.99017 0.8328 0.04458 0.0
C212 C 0.57298 0.14564 0.80329 0.0
C213 C 0.58898 0.17062 0.96055 0.0
C214 C 0.55292 0.10381 0.8425 0.0
C215 C 0.5486 0.08618 0.04013 0.0
C216 C 0.56497 0.11096 0.19548 0.0
C217 C 0.58467 0.15265 0.15683 0.0
C218 C 0.52824 0.0414 0.09141 0.0
C219 C 0.50452 1.02301 0.97912 0.0
C220 C 0.48466 0.9774 0.02482 0.0
C221 C 0.46845 0.95387 0.86593 0.0
C222 C 0.44999 0.91065 0.89638 0.0
C223 C 0.44674 0.88966 0.08779 0.0
H224 H 0.49252 0.97479 0.34646 0.0
C225 C 0.46214 0.91367 0.24972 0.0
C226 C 0.48107 0.95715 0.21856 0.0
H227 H 0.45995 0.89857 0.39895 0.0
H228 H 0.57594 0.15837 0.65058 0.0
H229 H 0.54141 0.08507 0.71723 0.0
H230 H 0.56243 0.09811 0.34835 0.0
H231 H 0.59677 0.17057 0.28209 0.0
H232 H 0.53296 1.0235 0.22882 0.0
H233 H 0.49978 0.04122 0.84246 0.0
H234 H 0.4704 0.96864 0.71592 0.0
H235 H 0.43817 0.89364 0.7681 0.0
C236 C 0.96837 0.60013 0.87668 0.0
C237 C 0.94409 0.615 0.77457 0.0
C238 C 0.98557 0.56851 0.78595 0.0
C239 C 0.97885 0.55104 0.59043 0.0
C240 C 0.95384 0.56459 0.49261 0.0
C241 C 0.93674 0.59607 0.58314 0.0
C242 C 0.99666 0.51804 0.48403 0.0
C243 C 0.02527 0.51318 0.52996 0.0
C244 C 0.04321 0.48032 0.4237 0.0
C245 C 0.06851 0.46759 0.52079 0.0
C246 C 0.08591 0.43658 0.43012 0.0
C247 C 0.07857 0.41727 0.23937 0.0
H248 H 1.01782 0.47239 0.14503 0.0
C249 C 0.05393 0.4312 0.13808 0.0
C250 C 0.03642 0.46237 0.22896 0.0
H251 H 0.04781 0.41727 0.99032 0.0
H252 H 0.97453 0.61375 0.02482 0.0
H253 H 1.00391 0.55781 0.87048 0.0
H254 H 0.94769 0.55125 0.3438 0.0
H255 H 0.91764 0.60561 0.50304 0.0
H256 H 0.98567 0.49773 0.36016 0.0
H257 H 0.03626 0.53359 0.65362 0.0
H258 H 0.07472 0.4813 0.66895 0.0
H259 H 0.10531 0.42783 0.50928 0.0
C260 C 0.48276 0.61803 0.13741 0.0
C261 C 0.45785 0.63163 0.23806 0.0
C262 C 0.50029 0.587 0.22811 0.0
C263 C 0.49329 0.56882 0.42229 0.0
C264 C 0.46785 0.58141 0.51925 0.0
C265 C 0.4504 0.61225 0.42866 0.0
C266 C 0.5111 0.53578 0.52793 0.0
C267 C 0.53955 0.53006 0.47971 0.0
C268 C 0.55718 0.49673 0.58504 0.0
C269 C 0.58217 0.483 0.48642 0.0
C270 C 0.59917 0.45137 0.57601 0.0
C271 C 0.59173 0.43237 0.76737 0.0
H272 H 0.53199 0.48987 0.86545 0.0
C273 C 0.5674 0.44732 0.86998 0.0
C274 C 0.55033 0.47912 0.78024 0.0
H275 H 0.56113 0.4337 0.018 0.0
H276 H 0.48901 0.63198 0.98983 0.0
H277 H 0.51903 0.57721 0.14416 0.0
H278 H 0.46148 0.56756 0.66704 0.0
H279 H 0.43082 0.62065 0.50761 0.0
H280 H 0.5001 0.5158 0.65277 0.0
H281 H 0.55057 0.54991 0.35464 0.0
H282 H 0.58842 0.49639 0.33777 0.0
H283 H 0.61828 0.44182 0.49516 0.0
loop_
_geom_bond_atom_site_label_1
_geom_bond_atom_site_label_2
_geom_bond_distance
_geom_bond_site_symmetry_2
_ccdc_geom_bond_type
Cu0 N1 1.999 . S
Cu0 O6 1.974 . S
Cu0 N11 1.985 . S
Cu0 O20 1.959 . S
N1 Cu0 1.999 . S
N1 C3 1.263 . S
N1 C5 1.389 . S
N2 C3 1.358 . S
N2 C4 1.400 . S
C3 N1 1.263 . S
C3 N2 1.358 . S
C3 H9 0.930 . S
C4 N2 1.400 . S
C4 C5 1.351 . S
C4 H21 0.930 . S
C5 N1 1.389 . S
C5 C4 1.351 . S
C5 H10 0.930 . S
O6 Cu0 1.974 . S
O6 C16 1.282 . S
C7 O8 1.261 . S
C7 O20 1.251 . S
O8 C7 1.261 . S
H9 C3 0.930 . S
H10 C5 0.930 . S
N11 Cu0 1.985 . S
N11 C13 1.335 . S
N11 C14 1.390 . S
N12 C13 1.345 . S
N12 C15 1.336 . S
C13 N11 1.335 . S
C13 N12 1.345 . S
C13 H18 0.930 . S
C14 N11 1.390 . S
C14 C15 1.346 . S
C14 H19 0.930 . S
C15 N12 1.336 . S
C15 C14 1.346 . S
C15 H22 0.929 . S
C16 O6 1.282 . S
C16 O17 1.216 1_554 S
O17 C16 1.216 1_556 S
H18 C13 0.930 . S
H19 C14 0.930 . S
O20 Cu0 1.959 . S
O20 C7 1.251 . S
H21 C4 0.930 . S
H22 C15 0.929 . S
Cu23 N24 1.999 . S
Cu23 O29 1.974 . S
Cu23 N34 1.985 . S
Cu23 O43 1.959 . S
N24 Cu23 1.999 . S
N24 C26 1.263 . S
N24 C28 1.389 . S
N25 C26 1.358 . S
N25 C27 1.400 . S
C26 N24 1.263 . S
C26 N25 1.358 . S
C26 H32 0.930 . S
C27 N25 1.400 . S
C27 C28 1.351 . S
C27 H44 0.930 . S
C28 N24 1.389 . S
C28 C27 1.351 . S
C28 H33 0.930 . S
O29 Cu23 1.974 . S
O29 C39 1.282 . S
C30 O31 1.261 . S
C30 O43 1.251 . S
O31 C30 1.261 . S
H32 C26 0.930 . S
H33 C28 0.930 . S
N34 Cu23 1.985 . S
N34 C36 1.335 . S
N34 C37 1.390 . S
N35 C36 1.345 . S
N35 C38 1.336 . S
C36 N34 1.335 . S
C36 N35 1.345 . S
C36 H41 0.930 . S
C37 N34 1.390 . S
C37 C38 1.346 . S
C37 H42 0.930 . S
C38 N35 1.336 . S
C38 C37 1.346 . S
C38 H45 0.929 . S
C39 O29 1.282 . S
C39 O40 1.216 1_554 S
O40 C39 1.216 1_556 S
H41 C36 0.930 . S
H42 C37 0.930 . S
O43 Cu23 1.959 . S
O43 C30 1.251 . S
H44 C27 0.930 . S
H45 C38 0.929 . S
Cu46 N47 1.999 . S
Cu46 O52 1.974 . S
Cu46 N57 1.985 . S
Cu46 O66 1.959 . S
N47 Cu46 1.999 . S
N47 C49 1.263 . S
N47 C51 1.389 . S
N48 C49 1.358 . S
N48 C50 1.400 . S
C49 N47 1.263 . S
C49 N48 1.358 . S
C49 H55 0.930 . S
C50 N48 1.400 . S
C50 C51 1.351 . S
C50 H67 0.930 . S
C51 N47 1.389 . S
C51 C50 1.351 . S
C51 H56 0.930 . S
O52 Cu46 1.974 . S
O52 C62 1.282 . S
C53 O54 1.261 . S
C53 O66 1.251 . S
O54 C53 1.261 . S
H55 C49 0.930 . S
H56 C51 0.930 . S
N57 Cu46 1.985 . S
N57 C59 1.335 . S
N57 C60 1.390 . S
N58 C59 1.345 . S
N58 C61 1.336 . S
C59 N57 1.335 . S
C59 N58 1.345 . S
C59 H64 0.930 . S
C60 N57 1.390 . S
C60 C61 1.346 . S
C60 H65 0.930 . S
C61 N58 1.336 . S
C61 C60 1.346 . S
C61 H68 0.929 . S
C62 O52 1.282 . S
C62 O63 1.216 1_556 S
O63 C62 1.216 1_554 S
H64 C59 0.930 . S
H65 C60 0.930 . S
O66 Cu46 1.959 . S
O66 C53 1.251 . S
H67 C50 0.930 . S
H68 C61 0.929 . S
Cu69 N70 1.999 . S
Cu69 O75 1.974 . S
Cu69 N80 1.985 . S
Cu69 O89 1.959 . S
N70 Cu69 1.999 . S
N70 C72 1.263 . S
N70 C74 1.389 . S
N71 C72 1.358 . S
N71 C73 1.400 . S
C72 N70 1.263 . S
C72 N71 1.358 . S
C72 H78 0.930 . S
C73 N71 1.400 . S
C73 C74 1.351 . S
C73 H90 0.930 . S
C74 N70 1.389 . S
C74 C73 1.351 . S
C74 H79 0.930 . S
O75 Cu69 1.974 . S
O75 C85 1.282 . S
C76 O77 1.261 . S
C76 O89 1.251 . S
O77 C76 1.261 . S
H78 C72 0.930 . S
H79 C74 0.930 . S
N80 Cu69 1.985 . S
N80 C82 1.335 . S
N80 C83 1.390 . S
N81 C82 1.345 . S
N81 C84 1.336 . S
C82 N80 1.335 . S
C82 N81 1.345 . S
C82 H87 0.930 . S
C83 N80 1.390 . S
C83 C84 1.346 . S
C83 H88 0.930 . S
C84 N81 1.336 . S
C84 C83 1.346 . S
C84 H91 0.929 . S
C85 O75 1.282 . S
C85 O86 1.216 1_556 S
O86 C85 1.216 1_554 S
H87 C82 0.930 . S
H88 C83 0.930 . S
O89 Cu69 1.959 . S
O89 C76 1.251 . S
H90 C73 0.930 . S
H91 C84 0.929 . S
C92 C93 1.386 . S
C92 C94 1.383 . S
C92 H108 0.951 . S
C93 C92 1.386 . S
C93 C97 1.383 . S
C94 C92 1.383 . S
C94 C95 1.402 . S
C94 H109 0.951 . S
C95 C94 1.402 . S
C95 C96 1.375 . S
C95 C98 1.481 . S
C96 C95 1.375 . S
C96 C97 1.367 . S
C96 H110 0.951 1_554 S
C97 C93 1.383 . S
C97 C96 1.367 . S
C97 H111 0.950 1_554 S
C98 C95 1.481 . S
C98 C99 1.297 1_565 S
C98 H112 0.947 1_565 S
C99 C98 1.297 1_545 S
C99 C100 1.479 . S
C99 H113 0.950 . S
C100 C99 1.479 . S
C100 C101 1.375 . S
C100 C106 1.404 . S
C101 C100 1.375 . S
C101 C102 1.369 . S
C101 H114 0.950 . S
C102 C101 1.369 . S
C102 C103 1.392 . S
C102 H115 0.951 . S
C103 C102 1.392 . S
C103 C105 1.384 . S
H104 C106 0.949 1_556 S
C105 C103 1.384 . S
C105 C106 1.385 . S
C105 H107 0.950 1_554 S
C106 C100 1.404 . S
C106 H104 0.949 1_554 S
C106 C105 1.385 . S
H107 C105 0.950 1_556 S
H108 C92 0.951 . S
H109 C94 0.951 . S
H110 C96 0.951 1_556 S
H111 C97 0.950 1_556 S
H112 C98 0.947 1_545 S
H113 C99 0.950 . S
H114 C101 0.950 . S
H115 C102 0.951 . S
C116 C117 1.386 . S
C116 C118 1.383 . S
C116 H132 0.951 . S
C117 C116 1.386 . S
C117 C121 1.383 . S
C118 C116 1.383 . S
C118 C119 1.402 . S
C118 H133 0.951 . S
C119 C118 1.402 . S
C119 C120 1.375 . S
C119 C122 1.481 . S
C120 C119 1.375 . S
C120 C121 1.367 . S
C120 H134 0.951 . S
C121 C117 1.383 . S
C121 C120 1.367 . S
C121 H135 0.950 . S
C122 C119 1.481 . S
C122 C123 1.297 . S
C122 H136 0.950 . S
C123 C122 1.297 . S
C123 C124 1.479 . S
C123 H137 0.950 . S
C124 C123 1.479 . S
C124 C125 1.375 . S
C124 C130 1.404 . S
C125 C124 1.375 . S
C125 C126 1.369 . S
C125 H138 0.950 . S
C126 C125 1.369 . S
C126 C127 1.392 . S
C126 H139 0.951 . S
C127 C126 1.392 . S
C127 C129 1.384 . S
H128 C130 0.949 . S
C129 C127 1.384 . S
C129 C130 1.385 . S
C129 H131 0.950 . S
C130 C124 1.404 . S
C130 H128 0.949 . S
C130 C129 1.385 . S
H131 C129 0.950 . S
H132 C116 0.951 . S
H133 C118 0.951 . S
H134 C120 0.951 . S
H135 C121 0.950 . S
H136 C122 0.950 . S
H137 C123 0.950 . S
H138 C125 0.950 . S
H139 C126 0.951 . S
C140 C141 1.386 . S
C140 C142 1.383 . S
C140 H156 0.954 . S
C141 C140 1.386 . S
C141 C145 1.383 . S
C142 C140 1.383 . S
C142 C143 1.402 . S
C142 H157 0.951 . S
C143 C142 1.402 . S
C143 C144 1.375 . S
C143 C146 1.481 1_545 S
C144 C143 1.375 . S
C144 C145 1.367 . S
C144 H158 0.951 . S
C145 C141 1.383 . S
C145 C144 1.367 . S
C145 H159 0.950 . S
C146 C143 1.481 1_565 S
C146 C147 1.297 . S
C146 H160 0.950 . S
C147 C146 1.297 . S
C147 C148 1.479 . S
C147 H161 0.950 . S
C148 C147 1.479 . S
C148 C149 1.375 . S
C148 C154 1.404 . S
C149 C148 1.375 . S
C149 C150 1.369 . S
C149 H162 0.950 1_556 S
C150 C149 1.369 . S
C150 C151 1.392 . S
C150 H163 0.951 1_556 S
C151 C150 1.392 . S
C151 C153 1.384 . S
H152 C154 0.949 . S
C153 C151 1.384 . S
C153 C154 1.385 . S
C153 H155 0.950 . S
C154 C148 1.404 . S
C154 H152 0.949 . S
C154 C153 1.385 . S
H155 C153 0.950 . S
H156 C140 0.954 . S
H157 C142 0.951 . S
H158 C144 0.951 . S
H159 C145 0.950 . S
H160 C146 0.950 . S
H161 C147 0.950 . S
H162 C149 0.950 1_554 S
H163 C150 0.951 1_554 S
C164 C165 1.386 . S
C164 C166 1.383 . S
C164 H180 0.951 . S
C165 C164 1.386 . S
C165 C169 1.383 . S
C166 C164 1.383 . S
C166 C167 1.402 . S
C166 H181 0.951 . S
C167 C166 1.402 . S
C167 C168 1.375 . S
C167 C170 1.481 . S
C168 C167 1.375 . S
C168 C169 1.367 . S
C168 H182 0.951 . S
C169 C165 1.383 . S
C169 C168 1.367 . S
C169 H183 0.950 . S
C170 C167 1.481 . S
C170 C171 1.297 . S
C170 H184 0.950 . S
C171 C170 1.297 . S
C171 C172 1.479 . S
C171 H185 0.950 . S
C172 C171 1.479 . S
C172 C173 1.375 . S
C172 C178 1.404 . S
C173 C172 1.375 . S
C173 C174 1.369 . S
C173 H186 0.950 . S
C174 C173 1.369 . S
C174 C175 1.392 . S
C174 H187 0.951 . S
C175 C174 1.392 . S
C175 C177 1.384 . S
H176 C178 0.949 . S
C177 C175 1.384 . S
C177 C178 1.385 . S
C177 H179 0.950 . S
C178 C172 1.404 . S
C178 H176 0.949 . S
C178 C177 1.385 . S
H179 C177 0.950 . S
H180 C164 0.951 . S
H181 C166 0.951 . S
H182 C168 0.951 . S
H183 C169 0.950 . S
H184 C170 0.950 . S
H185 C171 0.950 . S
H186 C173 0.950 . S
H187 C174 0.951 . S
C188 C189 1.386 . S
C188 C190 1.383 . S
C188 H204 0.951 . S
C189 C188 1.386 . S
C189 C193 1.383 . S
C190 C188 1.383 . S
C190 C191 1.402 . S
C190 H205 0.951 . S
C191 C190 1.402 . S
C191 C192 1.375 1_554 S
C191 C194 1.481 1_455 S
C192 C191 1.375 1_556 S
C192 C193 1.367 1_556 S
C192 H206 0.951 . S
C193 C189 1.383 . S
C193 C192 1.367 1_554 S
C193 H207 0.950 1_554 S
C194 C191 1.481 1_655 S
C194 C195 1.297 1_545 S
C194 H208 0.950 1_554 S
C195 C194 1.297 1_565 S
C195 C196 1.479 . S
C195 H209 0.950 1_655 S
C196 C195 1.479 . S
C196 C197 1.375 . S
C196 C202 1.404 1_554 S
C197 C196 1.375 . S
C197 C198 1.369 . S
C197 H210 0.950 . S
C198 C197 1.369 . S
C198 C199 1.392 1_554 S
C198 H211 0.951 . S
C199 C198 1.392 1_556 S
C199 C201 1.384 . S
H200 C202 0.949 . S
C201 C199 1.384 . S
C201 C202 1.385 . S
C201 H203 0.950 . S
C202 C196 1.404 1_556 S
C202 H200 0.949 . S
C202 C201 1.385 . S
H203 C201 0.950 . S
H204 C188 0.951 . S
H205 C190 0.951 . S
H206 C192 0.951 . S
H207 C193 0.950 1_556 S
H208 C194 0.950 1_556 S
H209 C195 0.950 1_455 S
H210 C197 0.950 . S
H211 C198 0.951 . S
C212 C213 1.386 . S
C212 C214 1.383 . S
C212 H228 0.951 . S
C213 C212 1.386 . S
C213 C217 1.383 1_556 S
C214 C212 1.383 . S
C214 C215 1.402 . S
C214 H229 0.951 . S
C215 C214 1.402 . S
C215 C216 1.375 1_556 S
C215 C218 1.481 1_556 S
C216 C215 1.375 1_554 S
C216 C217 1.367 . S
C216 H230 0.951 . S
C217 C213 1.383 1_554 S
C217 C216 1.367 . S
C217 H231 0.950 . S
C218 C215 1.481 1_554 S
C218 C219 1.297 1_544 S
C218 H232 0.950 . S
C219 C218 1.297 1_566 S
C219 C220 1.479 1_556 S
C219 H233 0.950 . S
C220 C219 1.479 1_554 S
C220 C221 1.375 1_554 S
C220 C226 1.404 . S
C221 C220 1.375 1_556 S
C221 C222 1.369 . S
C221 H234 0.950 . S
C222 C221 1.369 . S
C222 C223 1.392 1_556 S
C222 H235 0.951 . S
C223 C222 1.392 1_554 S
C223 C225 1.384 . S
H224 C226 0.949 . S
C225 C223 1.384 . S
C225 C226 1.385 . S
C225 H227 0.950 . S
C226 C220 1.404 . S
C226 H224 0.949 . S
C226 C225 1.385 . S
H227 C225 0.950 . S
H228 C212 0.951 . S
H229 C214 0.951 . S
H230 C216 0.951 . S
H231 C217 0.950 . S
H232 C218 0.950 . S
H233 C219 0.950 . S
H234 C221 0.950 . S
H235 C222 0.951 . S
C236 C237 1.386 . S
C236 C238 1.383 . S
C236 H252 0.951 . S
C237 C236 1.386 . S
C237 C241 1.383 . S
C238 C236 1.383 . S
C238 C239 1.402 . S
C238 H253 0.951 . S
C239 C238 1.402 . S
C239 C240 1.375 . S
C239 C242 1.481 . S
C240 C239 1.375 . S
C240 C241 1.367 . S
C240 H254 0.951 . S
C241 C237 1.383 . S
C241 C240 1.367 . S
C241 H255 0.950 . S
C242 C239 1.481 . S
C242 C243 1.297 . S
C242 H256 0.950 . S
C243 C242 1.297 . S
C243 C244 1.479 1_655 S
C243 H257 0.950 . S
C244 C243 1.479 1_455 S
C244 C245 1.375 . S
C244 C250 1.404 . S
C245 C244 1.375 . S
C245 C246 1.369 . S
C245 H258 0.950 . S
C246 C245 1.369 . S
C246 C247 1.392 . S
C246 H259 0.951 . S
C247 C246 1.392 . S
C247 C249 1.384 . S
H248 C250 0.949 . S
C249 C247 1.384 . S
C249 C250 1.385 . S
C249 H251 0.950 . S
C250 C244 1.404 . S
C250 H248 0.949 . S
C250 C249 1.385 . S
H251 C249 0.950 . S
H252 C236 0.951 . S
H253 C238 0.951 . S
H254 C240 0.951 . S
H255 C241 0.950 . S
H256 C242 0.950 . S
H257 C243 0.950 . S
H258 C245 0.950 . S
H259 C246 0.951 . S
C260 C261 1.386 . S
C260 C262 1.383 . S
C260 H276 0.951 . S
C261 C260 1.386 . S
C261 C265 1.383 . S
C262 C260 1.383 . S
C262 C263 1.402 . S
C262 H277 0.951 . S
C263 C262 1.402 . S
C263 C264 1.375 . S
C263 C266 1.481 . S
C264 C263 1.375 . S
C264 C265 1.367 . S
C264 H278 0.951 . S
C265 C261 1.383 . S
C265 C264 1.367 . S
C265 H279 0.950 . S
C266 C263 1.481 . S
C266 C267 1.297 . S
C266 H280 0.950 . S
C267 C266 1.297 . S
C267 C268 1.479 . S
C267 H281 0.950 . S
C268 C267 1.479 . S
C268 C269 1.375 . S
C268 C274 1.404 . S
C269 C268 1.375 . S
C269 C270 1.369 . S
C269 H282 0.950 . S
C270 C269 1.369 . S
C270 C271 1.392 . S
C270 H283 0.951 . S
C271 C270 1.392 . S
C271 C273 1.384 . S
H272 C274 0.949 . S
C273 C271 1.384 . S
C273 C274 1.385 . S
C273 H275 0.950 . S
C274 C268 1.404 . S
C274 H272 0.949 . S
C274 C273 1.385 . S
H275 C273 0.950 . S
H276 C260 0.951 . S
H277 C262 0.951 . S
H278 C264 0.951 . S
H279 C265 0.950 . S
H280 C266 0.950 . S
H281 C267 0.950 . S
H282 C269 0.950 . S
H283 C270 0.951 . S
C93 N25 1.474 . S
C103 N2 1.413 . S
C117 C7 1.487 . S
C127 C30 1.481 . S
C141 N71 1.450 . S
C151 N48 1.435 . S
C165 C53 1.491 . S
C175 C76 1.487 . S
C189 C16 1.473 . S
C199 C62 1.458 . S
C213 C85 1.474 . S
C223 C39 1.456 . S
C237 N58 1.485 . S
C247 N12 1.425 . S
C261 N35 1.465 . S
C271 N81 1.489 . S
