# Generated by pormake.
# Topology tzs, (4)-cn, num edge types: 1
# Building blocks:
#     Node 0, Type 0, BuildingBlock: QUQFOY_clean_sbu_3, # of connection points: 4
#     Node 1, Type 0, BuildingBlock: QUQFOY_clean_sbu_3, # of connection points: 4
#     Node 2, Type 0, BuildingBlock: QUQFOY_clean_sbu_3, # of connection points: 4
#     Node 3, Type 0, BuildingBlock: QUQFOY_clean_sbu_3, # of connection points: 4
#     Node 4, Type 0, BuildingBlock: QUQFOY_clean_sbu_3, # of connection points: 4
#     Node 5, Type 0, BuildingBlock: QUQFOY_clean_sbu_3, # of connection points: 4
#     Node 6, Type 0, BuildingBlock: QUQFOY_clean_sbu_3, # of connection points: 4
#     Node 7, Type 0, BuildingBlock: QUQFOY_clean_sbu_3, # of connection points: 4
#     Node 8, Type 0, BuildingBlock: QUQFOY_clean_sbu_3, # of connection points: 4
#     Node 9, Type 0, BuildingBlock: QUQFOY_clean_sbu_3, # of connection points: 4
#     Node 10, Type 0, BuildingBlock: QUQFOY_clean_sbu_3, # of connection points: 4
#     Node 11, Type 0, BuildingBlock: QUQFOY_clean_sbu_3, # of connection points: 4
#     Node 12, Type 0, BuildingBlock: QUQFOY_clean_sbu_3, # of connection points: 4
#     Node 13, Type 0, BuildingBlock: QUQFOY_clean_sbu_3, # of connection points: 4
#     Node 14, Type 0, BuildingBlock: QUQFOY_clean_sbu_3, # of connection points: 4
#     Node 15, Type 0, BuildingBlock: QUQFOY_clean_sbu_3, # of connection points: 4
#     Edge 16, Type (0, 0), BuildingBlock: MIFKUJ_clean_linker_0, # of connection points: 2
#     Edge 17, Type (0, 0), BuildingBlock: MIFKUJ_clean_linker_0, # of connection points: 2
#     Edge 18, Type (0, 0), BuildingBlock: MIFKUJ_clean_linker_0, # of connection points: 2
#     Edge 19, Type (0, 0), BuildingBlock: MIFKUJ_clean_linker_0, # of connection points: 2
#     Edge 20, Type (0, 0), BuildingBlock: MIFKUJ_clean_linker_0, # of connection points: 2
#     Edge 21, Type (0, 0), BuildingBlock: MIFKUJ_clean_linker_0, # of connection points: 2
#     Edge 22, Type (0, 0), BuildingBlock: MIFKUJ_clean_linker_0, # of connection points: 2
#     Edge 23, Type (0, 0), BuildingBlock: MIFKUJ_clean_linker_0, # of connection points: 2
#     Edge 24, Type (0, 0), BuildingBlock: MIFKUJ_clean_linker_0, # of connection points: 2
#     Edge 25, Type (0, 0), BuildingBlock: MIFKUJ_clean_linker_0, # of connection points: 2
#     Edge 26, Type (0, 0), BuildingBlock: MIFKUJ_clean_linker_0, # of connection points: 2
#     Edge 27, Type (0, 0), BuildingBlock: MIFKUJ_clean_linker_0, # of connection points: 2
#     Edge 28, Type (0, 0), BuildingBlock: MIFKUJ_clean_linker_0, # of connection points: 2
#     Edge 29, Type (0, 0), BuildingBlock: MIFKUJ_clean_linker_0, # of connection points: 2
#     Edge 30, Type (0, 0), BuildingBlock: MIFKUJ_clean_linker_0, # of connection points: 2
#     Edge 31, Type (0, 0), BuildingBlock: MIFKUJ_clean_linker_0, # of connection points: 2
#     Edge 32, Type (0, 0), BuildingBlock: MIFKUJ_clean_linker_0, # of connection points: 2
#     Edge 33, Type (0, 0), BuildingBlock: MIFKUJ_clean_linker_0, # of connection points: 2
#     Edge 34, Type (0, 0), BuildingBlock: MIFKUJ_clean_linker_0, # of connection points: 2
#     Edge 35, Type (0, 0), BuildingBlock: MIFKUJ_clean_linker_0, # of connection points: 2
#     Edge 36, Type (0, 0), BuildingBlock: MIFKUJ_clean_linker_0, # of connection points: 2
#     Edge 37, Type (0, 0), BuildingBlock: MIFKUJ_clean_linker_0, # of connection points: 2
#     Edge 38, Type (0, 0), BuildingBlock: MIFKUJ_clean_linker_0, # of connection points: 2
#     Edge 39, Type (0, 0), BuildingBlock: MIFKUJ_clean_linker_0, # of connection points: 2
#     Edge 40, Type (0, 0), BuildingBlock: MIFKUJ_clean_linker_0, # of connection points: 2
#     Edge 41, Type (0, 0), BuildingBlock: MIFKUJ_clean_linker_0, # of connection points: 2
#     Edge 42, Type (0, 0), BuildingBlock: MIFKUJ_clean_linker_0, # of connection points: 2
#     Edge 43, Type (0, 0), BuildingBlock: MIFKUJ_clean_linker_0, # of connection points: 2
#     Edge 44, Type (0, 0), BuildingBlock: MIFKUJ_clean_linker_0, # of connection points: 2
#     Edge 45, Type (0, 0), BuildingBlock: MIFKUJ_clean_linker_0, # of connection points: 2
#     Edge 46, Type (0, 0), BuildingBlock: MIFKUJ_clean_linker_0, # of connection points: 2
#     Edge 47, Type (0, 0), BuildingBlock: MIFKUJ_clean_linker_0, # of connection points: 2
# Relax obj value: 0.119
# Max RMSD: 0.119
# Mean RMSD: 0.119
data_MOF--net-tzs--node1-QUQFOY_clean_sbu_3--edge1-MIFKUJ_clean_linker_0
_symmetry_space_group_name_H-M    P1
_symmetry_Int_Tables_number       1
_symmetry_cell_setting            triclinic
loop_
_symmetry_equiv_pos_as_xyz
'x, y, z'
_cell_length_a     64.96835
_cell_length_b     65.144253
_cell_length_c     53.19202
_cell_angle_alpha  90.098898
_cell_angle_beta   89.960298
_cell_angle_gamma 90.232183
loop_
_atom_site_label
_atom_site_type_symbol
_atom_site_fract_x
_atom_site_fract_y
_atom_site_fract_z
_atom_type_partial_charge
C0 C 0.08247 0.3431 0.18039 0.0
O1 O 0.08021 0.35264 0.15979 0.0
Cd2 Cd 0.10778 0.36462 0.13469 0.0
O3 O 0.10042 0.33905 0.18878 0.0
Cd4 Cd 0.13671 0.34403 0.17349 0.0
C5 C 0.13222 0.39576 0.17743 0.0
O6 O 0.12795 0.33403 0.13121 0.0
O7 O 0.15825 0.34711 0.13485 0.0
O8 O 0.14395 0.31059 0.19238 0.0
C9 C 0.14542 0.33719 0.12157 0.0
O10 O 0.12158 0.39446 0.1574 0.0
C11 C 0.16182 0.3154 0.20006 0.0
O12 O 0.13908 0.37962 0.18788 0.0
O13 O 0.16753 0.33383 0.19658 0.0
C14 C 0.63356 0.07889 0.16737 0.0
O15 O 0.62436 0.07716 0.14642 0.0
Cd16 Cd 0.61396 0.10534 0.1215 0.0
O17 O 0.63825 0.09656 0.17618 0.0
Cd18 Cd 0.63524 0.13303 0.16146 0.0
C19 C 0.58317 0.1303 0.16394 0.0
O20 O 0.64534 0.12477 0.11911 0.0
O21 O 0.63319 0.15524 0.12349 0.0
O22 O 0.66886 0.13981 0.18064 0.0
C23 C 0.64278 0.14243 0.10993 0.0
O24 O 0.58421 0.11983 0.14375 0.0
C25 C 0.66393 0.15718 0.18961 0.0
O26 O 0.59952 0.13642 0.17481 0.0
O27 O 0.64541 0.16276 0.18655 0.0
C28 C 0.89358 0.63504 0.17594 0.0
O29 O 0.89656 0.62561 0.15536 0.0
Cd30 Cd 0.87005 0.61298 0.12913 0.0
O31 O 0.87535 0.63871 0.18374 0.0
Cd32 Cd 0.83935 0.6335 0.16759 0.0
C33 C 0.84474 0.58177 0.17126 0.0
O34 O 0.84948 0.64323 0.12587 0.0
O35 O 0.81861 0.63134 0.12818 0.0
O36 O 0.83204 0.66699 0.18627 0.0
C37 C 0.83229 0.64048 0.11535 0.0
O38 O 0.8564 0.58334 0.15212 0.0
C39 C 0.81425 0.6622 0.19425 0.0
O40 O 0.83673 0.59766 0.18111 0.0
O41 O 0.80851 0.64375 0.19085 0.0
C42 C 0.34967 0.8907 0.17261 0.0
O43 O 0.36176 0.89178 0.15388 0.0
Cd44 Cd 0.37197 0.86395 0.12792 0.0
O45 O 0.34229 0.87347 0.1798 0.0
Cd46 Cd 0.34602 0.83683 0.16613 0.0
C47 C 0.39853 0.83713 0.1721 0.0
O48 O 0.34004 0.8461 0.12279 0.0
O49 O 0.34541 0.81392 0.12866 0.0
O50 O 0.31154 0.83174 0.18393 0.0
C51 C 0.34041 0.82818 0.11376 0.0
O52 O 0.39911 0.84769 0.15203 0.0
C53 C 0.31539 0.81413 0.19294 0.0
O54 O 0.38136 0.83176 0.18165 0.0
O55 O 0.3337 0.80768 0.19058 0.0
C56 C 0.08368 0.6438 0.30379 0.0
O57 O 0.08318 0.6352 0.32518 0.0
Cd58 Cd 0.11268 0.62373 0.3469 0.0
O59 O 0.1008 0.64734 0.29273 0.0
Cd60 Cd 0.13821 0.64319 0.30353 0.0
C61 C 0.13343 0.59146 0.30247 0.0
O62 O 0.13342 0.65417 0.34622 0.0
O63 O 0.16275 0.64004 0.33948 0.0
O64 O 0.14459 0.67644 0.28359 0.0
C65 C 0.1514 0.65058 0.35392 0.0
O66 O 0.12457 0.5933 0.32372 0.0
C67 C 0.16119 0.67107 0.27288 0.0
O68 O 0.13928 0.6073 0.29044 0.0
O69 O 0.16649 0.65245 0.2754 0.0
C70 C 0.33866 0.08388 0.29423 0.0
O71 O 0.34864 0.08368 0.31473 0.0
Cd72 Cd 0.35836 0.11309 0.33794 0.0
O73 O 0.33312 0.10084 0.28435 0.0
Cd74 Cd 0.33744 0.138 0.29626 0.0
C75 C 0.38949 0.1349 0.29369 0.0
O76 O 0.32713 0.13259 0.33915 0.0
O77 O 0.34163 0.16184 0.33275 0.0
O78 O 0.30367 0.14521 0.2779 0.0
C79 C 0.33086 0.1505 0.34699 0.0
O80 O 0.38832 0.12651 0.31523 0.0
C81 C 0.30914 0.16191 0.26754 0.0
O82 O 0.37319 0.13974 0.28188 0.0
O83 O 0.32802 0.16678 0.2693 0.0
C84 C 0.889 0.3349 0.30245 0.0
O85 O 0.88902 0.34338 0.32396 0.0
Cd86 Cd 0.85916 0.35532 0.34459 0.0
O87 O 0.87212 0.33145 0.29081 0.0
Cd88 Cd 0.83438 0.33536 0.30035 0.0
C89 C 0.83951 0.38701 0.29871 0.0
O90 O 0.83788 0.32523 0.34352 0.0
O91 O 0.80886 0.33931 0.335 0.0
O92 O 0.82865 0.30173 0.28102 0.0
C93 C 0.81971 0.32917 0.35034 0.0
O94 O 0.84842 0.38534 0.31993 0.0
C95 C 0.81225 0.30679 0.2697 0.0
O96 O 0.83328 0.37113 0.28698 0.0
O97 O 0.80681 0.32543 0.27153 0.0
C98 C 0.63775 0.89008 0.30207 0.0
O99 O 0.62874 0.89155 0.3232 0.0
Cd100 Cd 0.61875 0.86413 0.34958 0.0
O101 O 0.64271 0.87258 0.29302 0.0
Cd102 Cd 0.64076 0.83586 0.30782 0.0
C103 C 0.58822 0.83723 0.30824 0.0
O104 O 0.65036 0.84573 0.34954 0.0
O105 O 0.64284 0.81377 0.3463 0.0
O106 O 0.67375 0.82957 0.28676 0.0
C107 C 0.64969 0.82832 0.35978 0.0
O108 O 0.58942 0.84865 0.32762 0.0
C109 C 0.66848 0.81221 0.27789 0.0
O110 O 0.60442 0.83085 0.29732 0.0
O111 O 0.6501 0.80645 0.28197 0.0
C112 C 0.84031 0.58561 0.79883 0.0
O113 O 0.84957 0.58488 0.8198 0.0
Cd114 Cd 0.86178 0.61417 0.84174 0.0
O115 O 0.83621 0.60278 0.78845 0.0
Cd116 Cd 0.84016 0.6398 0.80028 0.0
C117 C 0.89182 0.63599 0.79572 0.0
O118 O 0.8314 0.63463 0.8437 0.0
O119 O 0.84543 0.66392 0.83613 0.0
O120 O 0.80573 0.64576 0.78353 0.0
C121 C 0.83559 0.65253 0.85128 0.0
O122 O 0.89109 0.62737 0.81718 0.0
C123 C 0.81027 0.66257 0.77283 0.0
O124 O 0.87534 0.64118 0.78455 0.0
O125 O 0.82901 0.66816 0.77367 0.0
C126 C 0.38935 0.84336 0.79594 0.0
O127 O 0.39069 0.85357 0.81625 0.0
Cd128 Cd 0.36229 0.86471 0.84073 0.0
O129 O 0.37187 0.83785 0.78721 0.0
Cd130 Cd 0.33506 0.84052 0.80062 0.0
C131 C 0.33708 0.89259 0.79569 0.0
O132 O 0.34352 0.83332 0.84364 0.0
O133 O 0.31174 0.84099 0.83806 0.0
O134 O 0.33031 0.80641 0.78211 0.0
C135 C 0.32567 0.83466 0.85277 0.0
O136 O 0.34704 0.89257 0.81629 0.0
C137 C 0.31274 0.81028 0.77284 0.0
O138 O 0.33157 0.87577 0.78547 0.0
O139 O 0.30612 0.82847 0.77546 0.0
C140 C 0.13781 0.38876 0.80382 0.0
O141 O 0.12713 0.38856 0.82382 0.0
Cd142 Cd 0.11836 0.35893 0.84742 0.0
O143 O 0.14481 0.37209 0.79454 0.0
Cd144 Cd 0.14307 0.33499 0.80664 0.0
C145 C 0.09086 0.33416 0.80204 0.0
O146 O 0.15082 0.34178 0.8501 0.0
O147 O 0.14071 0.31088 0.84286 0.0
O148 O 0.17753 0.33005 0.78875 0.0
C149 C 0.14875 0.32363 0.858 0.0
O150 O 0.09039 0.34257 0.82365 0.0
C151 C 0.17309 0.31312 0.77814 0.0
O152 O 0.10797 0.33084 0.79115 0.0
O153 O 0.15456 0.30705 0.77982 0.0
C154 C 0.58712 0.14129 0.79114 0.0
O155 O 0.58575 0.132 0.81204 0.0
Cd156 Cd 0.6145 0.12078 0.83589 0.0
O157 O 0.60467 0.14574 0.78178 0.0
Cd158 Cd 0.6414 0.14202 0.79473 0.0
C159 C 0.63755 0.09028 0.79162 0.0
O160 O 0.63543 0.15102 0.83813 0.0
O161 O 0.66509 0.1377 0.83092 0.0
O162 O 0.64813 0.17577 0.77629 0.0
C163 C 0.65329 0.14705 0.84605 0.0
O164 O 0.6286 0.09121 0.81289 0.0
C165 C 0.66509 0.17067 0.76622 0.0
O166 O 0.64277 0.1066 0.78013 0.0
O167 O 0.67044 0.15204 0.76844 0.0
C168 C 0.85197 0.39426 0.67296 0.0
O169 O 0.86313 0.39582 0.65344 0.0
Cd170 Cd 0.87254 0.36792 0.62701 0.0
O171 O 0.84523 0.3768 0.68018 0.0
Cd172 Cd 0.84773 0.34079 0.66448 0.0
C173 C 0.89993 0.33983 0.66901 0.0
O174 O 0.83981 0.35137 0.62231 0.0
O175 O 0.84797 0.31951 0.62544 0.0
O176 O 0.81337 0.33513 0.68208 0.0
C177 C 0.84049 0.33384 0.61224 0.0
O178 O 0.90043 0.3498 0.64847 0.0
C179 C 0.81738 0.31748 0.69086 0.0
O180 O 0.88285 0.33571 0.67956 0.0
O181 O 0.83573 0.31119 0.68837 0.0
C182 C 0.58391 0.84308 0.67313 0.0
O183 O 0.58449 0.85211 0.652 0.0
Cd184 Cd 0.61492 0.86084 0.62973 0.0
O185 O 0.60049 0.83781 0.68427 0.0
Cd186 Cd 0.63817 0.83989 0.67449 0.0
C187 C 0.6372 0.89196 0.67394 0.0
O188 O 0.63316 0.8291 0.63177 0.0
O189 O 0.66368 0.84025 0.63937 0.0
O190 O 0.64275 0.80689 0.69567 0.0
C191 C 0.65156 0.83097 0.62451 0.0
O192 O 0.62943 0.89058 0.65204 0.0
C193 C 0.65963 0.81189 0.70608 0.0
O194 O 0.6408 0.8759 0.68675 0.0
O195 O 0.66569 0.83027 0.70305 0.0
C196 C 0.1364 0.57881 0.67061 0.0
O197 O 0.12606 0.57837 0.65036 0.0
Cd198 Cd 0.11685 0.60764 0.62625 0.0
O199 O 0.14258 0.59585 0.67984 0.0
Cd200 Cd 0.13961 0.63272 0.66775 0.0
C201 C 0.08731 0.63154 0.67024 0.0
O202 O 0.14843 0.62664 0.62425 0.0
O203 O 0.13749 0.6571 0.63208 0.0
O204 O 0.17364 0.63889 0.68614 0.0
C205 C 0.14604 0.64487 0.61679 0.0
O206 O 0.0878 0.62317 0.6486 0.0
C207 C 0.16861 0.65552 0.69696 0.0
O208 O 0.10392 0.63541 0.68201 0.0
O209 O 0.14989 0.66083 0.69529 0.0
C210 C 0.3952 0.13346 0.66324 0.0
O211 O 0.39562 0.12326 0.64287 0.0
Cd212 Cd 0.36609 0.11309 0.6195 0.0
O213 O 0.37815 0.13921 0.67284 0.0
Cd214 Cd 0.34105 0.13656 0.66094 0.0
C215 C 0.3418 0.08441 0.66429 0.0
O216 O 0.34796 0.14492 0.61765 0.0
O217 O 0.31675 0.13553 0.62478 0.0
O218 O 0.33641 0.17036 0.68039 0.0
C219 C 0.32973 0.14329 0.60971 0.0
O220 O 0.35043 0.08447 0.6428 0.0
C221 C 0.3193 0.16589 0.69059 0.0
O222 O 0.33784 0.10119 0.67552 0.0
O223 O 0.31289 0.14758 0.68789 0.0
H224 H 0.26765 0.15599 0.26232 0.0
H225 H 0.24204 0.18149 0.24999 0.0
H226 H 0.29046 0.22555 0.2362 0.0
H227 H 0.31615 0.2002 0.24857 0.0
H228 H 0.2604 0.24073 0.26694 0.0
H229 H 0.26417 0.20494 0.18785 0.0
H230 H 0.26301 0.17462 0.16006 0.0
H231 H 0.20055 0.16276 0.18232 0.0
H232 H 0.20143 0.19286 0.21052 0.0
H233 H 0.20293 0.31962 0.20912 0.0
H234 H 0.22717 0.29282 0.22084 0.0
H235 H 0.17722 0.24914 0.22596 0.0
H236 H 0.15292 0.27582 0.21337 0.0
H237 H 0.20737 0.23302 0.20053 0.0
H238 H 0.20282 0.26838 0.27912 0.0
H239 H 0.20349 0.29813 0.30784 0.0
H240 H 0.26652 0.31003 0.28819 0.0
H241 H 0.26616 0.28051 0.25909 0.0
C242 C 0.27287 0.17099 0.25622 0.0
C243 C 0.29392 0.1761 0.25649 0.0
C244 C 0.25822 0.18554 0.24917 0.0
C245 C 0.26436 0.20542 0.24221 0.0
C246 C 0.28541 0.21031 0.24159 0.0
C247 C 0.30006 0.19577 0.24854 0.0
C248 C 0.24884 0.2215 0.23711 0.0
C249 C 0.24896 0.2392 0.25219 0.0
C250 C 0.23351 0.21912 0.21847 0.0
C251 C 0.23294 0.20104 0.20149 0.0
C252 C 0.25025 0.19577 0.18698 0.0
C253 C 0.24962 0.17864 0.17112 0.0
C254 C 0.23173 0.16674 0.16948 0.0
C255 C 0.2144 0.17198 0.18364 0.0
C256 C 0.21495 0.18908 0.19955 0.0
C257 C 0.19704 0.30439 0.21311 0.0
C258 C 0.176 0.29984 0.21036 0.0
C259 C 0.21094 0.28907 0.21989 0.0
C260 C 0.20403 0.26896 0.22452 0.0
C261 C 0.18292 0.26452 0.22245 0.0
C262 C 0.16904 0.2798 0.21538 0.0
C263 C 0.21896 0.2524 0.23026 0.0
C264 C 0.21874 0.23457 0.21535 0.0
C265 C 0.23411 0.25457 0.24922 0.0
C266 C 0.2344 0.27233 0.26675 0.0
C267 C 0.21678 0.27743 0.28078 0.0
C268 C 0.21711 0.29424 0.29715 0.0
C269 C 0.23502 0.30599 0.29979 0.0
C270 C 0.25265 0.30093 0.2861 0.0
C271 C 0.2524 0.28414 0.26969 0.0
H272 H 0.23525 0.319 0.31248 0.0
H273 H 0.23128 0.15349 0.15719 0.0
H274 H 0.77349 0.31216 0.25122 0.0
H275 H 0.74952 0.28551 0.23716 0.0
H276 H 0.79656 0.2397 0.24683 0.0
H277 H 0.82069 0.26628 0.26107 0.0
H278 H 0.77204 0.23442 0.20263 0.0
H279 H 0.76398 0.24461 0.29176 0.0
H280 H 0.75865 0.26524 0.3301 0.0
H281 H 0.70022 0.28548 0.302 0.0
H282 H 0.70535 0.26521 0.26329 0.0
H283 H 0.70432 0.14901 0.19999 0.0
H284 H 0.73069 0.17332 0.21415 0.0
H285 H 0.68509 0.22122 0.21788 0.0
H286 H 0.65861 0.19691 0.20443 0.0
H287 H 0.71025 0.2244 0.25625 0.0
H288 H 0.71808 0.21598 0.16696 0.0
H289 H 0.72304 0.19664 0.12754 0.0
H290 H 0.78112 0.17443 0.15444 0.0
H291 H 0.77636 0.19343 0.19418 0.0
C292 C 0.77888 0.29648 0.24994 0.0
C293 C 0.79893 0.29129 0.25744 0.0
C294 C 0.76513 0.28127 0.24201 0.0
C295 C 0.77123 0.26064 0.24133 0.0
C296 C 0.79158 0.25555 0.24733 0.0
C297 C 0.80532 0.27074 0.25548 0.0
C298 C 0.75596 0.24432 0.23586 0.0
C299 C 0.75866 0.232 0.2145 0.0
C300 C 0.73836 0.2415 0.25115 0.0
C301 C 0.73514 0.25354 0.27452 0.0
C302 C 0.75007 0.25359 0.29366 0.0
C303 C 0.74707 0.2652 0.31548 0.0
C304 C 0.72913 0.2767 0.31846 0.0
C305 C 0.71412 0.27658 0.29966 0.0
C306 C 0.71706 0.26502 0.27778 0.0
C307 C 0.69987 0.16465 0.20416 0.0
C308 C 0.67941 0.17107 0.20095 0.0
C309 C 0.71498 0.17857 0.21207 0.0
C310 C 0.70995 0.1992 0.21657 0.0
C311 C 0.68936 0.2054 0.21442 0.0
C312 C 0.67423 0.19148 0.20672 0.0
C313 C 0.72613 0.21453 0.2228 0.0
C314 C 0.72364 0.2267 0.24437 0.0
C315 C 0.74383 0.21732 0.20755 0.0
C316 C 0.74676 0.20594 0.18365 0.0
C317 C 0.73183 0.20685 0.16454 0.0
C318 C 0.73462 0.19597 0.14213 0.0
C319 C 0.75236 0.18426 0.13852 0.0
C320 C 0.76737 0.18347 0.15728 0.0
C321 C 0.76464 0.1943 0.17975 0.0
H322 H 0.75449 0.17585 0.12115 0.0
H323 H 0.72684 0.28568 0.33536 0.0
H324 H 0.82272 0.70254 0.20421 0.0
H325 H 0.79857 0.72902 0.21785 0.0
H326 H 0.75004 0.68375 0.22188 0.0
H327 H 0.77406 0.65718 0.20812 0.0
H328 H 0.73853 0.71795 0.19565 0.0
H329 H 0.77095 0.7028 0.27486 0.0
H330 H 0.80028 0.69839 0.30371 0.0
H331 H 0.81818 0.76119 0.29216 0.0
H332 H 0.78909 0.7659 0.26295 0.0
H333 H 0.66217 0.77291 0.26189 0.0
H334 H 0.68778 0.74887 0.24613 0.0
H335 H 0.7343 0.79624 0.24986 0.0
H336 H 0.70877 0.82033 0.26633 0.0
H337 H 0.74799 0.76234 0.27066 0.0
H338 H 0.71529 0.77835 0.19291 0.0
H339 H 0.68637 0.78321 0.16356 0.0
H340 H 0.66962 0.7197 0.17121 0.0
H341 H 0.69828 0.71451 0.20089 0.0
C342 C 0.80697 0.69816 0.20831 0.0
C343 C 0.80029 0.67776 0.20509 0.0
C344 C 0.7932 0.71331 0.21612 0.0
C345 C 0.77253 0.70833 0.22091 0.0
C346 C 0.76593 0.68791 0.21822 0.0
C347 C 0.7797 0.67274 0.21049 0.0
C348 C 0.75758 0.72453 0.2278 0.0
C349 C 0.74043 0.72751 0.21222 0.0
C350 C 0.7605 0.73744 0.24892 0.0
C351 C 0.77797 0.73464 0.26652 0.0
C352 C 0.78124 0.71562 0.2783 0.0
C353 C 0.7978 0.71308 0.29475 0.0
C354 C 0.81112 0.72948 0.29971 0.0
C355 C 0.80787 0.74849 0.28827 0.0
C356 C 0.79133 0.75111 0.27179 0.0
C357 C 0.67778 0.77833 0.25902 0.0
C358 C 0.68344 0.79853 0.26537 0.0
C359 C 0.69241 0.76456 0.24991 0.0
C360 C 0.71295 0.77077 0.2466 0.0
C361 C 0.71854 0.79111 0.25228 0.0
C362 C 0.70392 0.80488 0.26157 0.0
C363 C 0.72875 0.75568 0.23864 0.0
C364 C 0.7461 0.7529 0.25399 0.0
C365 C 0.72608 0.74304 0.2172 0.0
C366 C 0.70884 0.74608 0.1993 0.0
C367 C 0.70535 0.76545 0.18849 0.0
C368 C 0.68901 0.76826 0.17176 0.0
C369 C 0.67614 0.75179 0.16556 0.0
C370 C 0.6796 0.73245 0.17604 0.0
C371 C 0.6959 0.72956 0.19279 0.0
H372 H 0.6635 0.75399 0.15261 0.0
H373 H 0.82393 0.72748 0.31245 0.0
H374 H 0.27538 0.82441 0.20299 0.0
H375 H 0.24747 0.80128 0.21588 0.0
H376 H 0.29023 0.75088 0.21879 0.0
H377 H 0.31819 0.77384 0.20612 0.0
H378 H 0.25478 0.74251 0.19045 0.0
H379 H 0.2732 0.77012 0.27171 0.0
H380 H 0.27955 0.79778 0.30247 0.0
H381 H 0.21734 0.81863 0.29391 0.0
H382 H 0.2107 0.79124 0.26281 0.0
H383 H 0.19955 0.66468 0.25362 0.0
H384 H 0.22369 0.69046 0.23809 0.0
H385 H 0.17776 0.73746 0.24808 0.0
H386 H 0.15364 0.71173 0.26429 0.0
H387 H 0.21274 0.74954 0.26784 0.0
H388 H 0.19306 0.72136 0.18882 0.0
H389 H 0.18607 0.69437 0.15739 0.0
H390 H 0.24931 0.67561 0.16013 0.0
H391 H 0.25663 0.70231 0.19186 0.0
C392 C 0.27888 0.80846 0.20673 0.0
C393 C 0.29898 0.80094 0.20352 0.0
C394 C 0.26294 0.79529 0.21407 0.0
C395 C 0.26682 0.77438 0.21819 0.0
C396 C 0.28694 0.76695 0.21559 0.0
C397 C 0.3029 0.78013 0.20849 0.0
C398 C 0.24983 0.76001 0.22427 0.0
C399 C 0.24569 0.74388 0.20749 0.0
C400 C 0.23756 0.76232 0.24602 0.0
C401 C 0.24153 0.77879 0.26472 0.0
C402 C 0.26093 0.78073 0.27621 0.0
C403 C 0.26457 0.79633 0.29374 0.0
C404 C 0.24888 0.81 0.30008 0.0
C405 C 0.22949 0.80806 0.28895 0.0
C406 C 0.22578 0.79249 0.27138 0.0
C407 C 0.19445 0.68044 0.25213 0.0
C408 C 0.17469 0.68617 0.26021 0.0
C409 C 0.20826 0.69518 0.24316 0.0
C410 C 0.20251 0.7159 0.24174 0.0
C411 C 0.18255 0.72157 0.24904 0.0
C412 C 0.16875 0.70683 0.25818 0.0
C413 C 0.21779 0.73174 0.23418 0.0
C414 C 0.22164 0.7482 0.25065 0.0
C415 C 0.22968 0.72985 0.21199 0.0
C416 C 0.22535 0.71375 0.19289 0.0
C417 C 0.20545 0.71138 0.18287 0.0
C418 C 0.20143 0.69615 0.16497 0.0
C419 C 0.21723 0.68326 0.15681 0.0
C420 C 0.23709 0.6856 0.16649 0.0
C421 C 0.24119 0.7008 0.18441 0.0
H422 H 0.21409 0.67148 0.14294 0.0
H423 H 0.25172 0.82206 0.31367 0.0
H424 H 0.69927 0.8169 0.72165 0.0
H425 H 0.72329 0.79 0.73395 0.0
H426 H 0.67457 0.74502 0.72971 0.0
H427 H 0.65035 0.77185 0.71704 0.0
H428 H 0.70369 0.7408 0.77224 0.0
H429 H 0.70181 0.74749 0.68185 0.0
H430 H 0.70316 0.76696 0.64217 0.0
H431 H 0.76441 0.78746 0.65968 0.0
H432 H 0.76328 0.76837 0.6997 0.0
H433 H 0.76912 0.65447 0.76832 0.0
H434 H 0.74201 0.67861 0.7568 0.0
H435 H 0.78777 0.72553 0.74343 0.0
H436 H 0.81497 0.70137 0.75436 0.0
H437 H 0.75849 0.72766 0.70918 0.0
H438 H 0.76108 0.7231 0.7991 0.0
H439 H 0.76058 0.7057 0.84024 0.0
H440 H 0.69952 0.68326 0.82552 0.0
H441 H 0.69977 0.70032 0.78412 0.0
C442 C 0.69351 0.80138 0.72384 0.0
C443 C 0.67294 0.79645 0.71816 0.0
C444 C 0.70729 0.78603 0.73079 0.0
C445 C 0.7007 0.76556 0.73239 0.0
C446 C 0.67989 0.76077 0.72849 0.0
C447 C 0.66611 0.7761 0.72124 0.0
C448 C 0.71595 0.74906 0.73605 0.0
C449 C 0.7155 0.73765 0.75834 0.0
C450 C 0.73157 0.74539 0.71808 0.0
C451 C 0.73238 0.75666 0.69388 0.0
C452 C 0.7155 0.75629 0.67734 0.0
C453 C 0.71624 0.76723 0.65477 0.0
C454 C 0.73384 0.77848 0.64844 0.0
C455 C 0.75077 0.77876 0.66463 0.0
C456 C 0.7501 0.76787 0.68725 0.0
C457 C 0.77343 0.66983 0.76253 0.0
C458 C 0.79417 0.67607 0.76242 0.0
C459 C 0.75791 0.68365 0.75613 0.0
C460 C 0.76284 0.704 0.74979 0.0
C461 C 0.7836 0.70993 0.7484 0.0
C462 C 0.79914 0.6961 0.75464 0.0
C463 C 0.74642 0.71935 0.74553 0.0
C464 C 0.74663 0.73061 0.72307 0.0
C465 C 0.73074 0.72305 0.76352 0.0
C466 C 0.73054 0.71279 0.7884 0.0
C467 C 0.74761 0.71432 0.80455 0.0
C468 C 0.74736 0.70454 0.82793 0.0
C469 C 0.73005 0.69333 0.83546 0.0
C470 C 0.71293 0.69192 0.81964 0.0
C471 C 0.71311 0.70165 0.79623 0.0
H472 H 0.72988 0.68579 0.85357 0.0
H473 H 0.73438 0.78695 0.63096 0.0
H474 H 0.16265 0.69388 0.7161 0.0
H475 H 0.18901 0.71856 0.72898 0.0
H476 H 0.23611 0.67324 0.7164 0.0
H477 H 0.20978 0.64835 0.70335 0.0
H478 H 0.24203 0.69785 0.76057 0.0
H479 H 0.22878 0.70575 0.67212 0.0
H480 H 0.20671 0.71028 0.63485 0.0
H481 H 0.18483 0.76755 0.66446 0.0
H482 H 0.20654 0.7632 0.7021 0.0
H483 H 0.3235 0.77063 0.7621 0.0
H484 H 0.30076 0.74283 0.74812 0.0
H485 H 0.2498 0.78508 0.74562 0.0
H486 H 0.27253 0.81298 0.75876 0.0
H487 H 0.2476 0.76016 0.70737 0.0
H488 H 0.2583 0.75214 0.7964 0.0
H489 H 0.27885 0.74797 0.83501 0.0
H490 H 0.30398 0.69179 0.80613 0.0
H491 H 0.28376 0.69578 0.76719 0.0
C492 C 0.17857 0.68901 0.71647 0.0
C493 C 0.18416 0.66921 0.70851 0.0
C494 C 0.19361 0.70317 0.72374 0.0
C495 C 0.21448 0.69778 0.72325 0.0
C496 C 0.22005 0.67767 0.71679 0.0
C497 C 0.20501 0.66351 0.70933 0.0
C498 C 0.23046 0.71356 0.728 0.0
C499 C 0.24351 0.71134 0.74877 0.0
C500 C 0.23205 0.73129 0.71279 0.0
C501 C 0.21916 0.73405 0.69003 0.0
C502 C 0.21915 0.71923 0.67077 0.0
C503 C 0.20672 0.72178 0.64957 0.0
C504 C 0.19434 0.73917 0.64732 0.0
C505 C 0.19441 0.75408 0.66624 0.0
C506 C 0.20679 0.75159 0.6875 0.0
C507 C 0.30751 0.77403 0.75822 0.0
C508 C 0.29977 0.79397 0.76166 0.0
C509 C 0.2945 0.75811 0.75042 0.0
C510 C 0.27347 0.76177 0.74633 0.0
C511 C 0.26594 0.78185 0.74874 0.0
C512 C 0.27897 0.7978 0.75627 0.0
C513 C 0.25908 0.74471 0.74027 0.0
C514 C 0.2463 0.74664 0.71915 0.0
C515 C 0.25761 0.72684 0.75534 0.0
C516 C 0.2697 0.72437 0.77877 0.0
C517 C 0.26833 0.73897 0.79821 0.0
C518 C 0.27989 0.73663 0.82016 0.0
C519 C 0.29276 0.71966 0.82299 0.0
C520 C 0.29404 0.70495 0.8039 0.0
C521 C 0.28252 0.70724 0.78189 0.0
H522 H 0.3017 0.71787 0.84 0.0
H523 H 0.18473 0.74111 0.63089 0.0
H524 H 0.21384 0.32226 0.77058 0.0
H525 H 0.24083 0.29884 0.75605 0.0
H526 H 0.19549 0.25105 0.74566 0.0
H527 H 0.16849 0.27427 0.75994 0.0
H528 H 0.22926 0.23918 0.77486 0.0
H529 H 0.2155 0.27324 0.69591 0.0
H530 H 0.21222 0.30328 0.66808 0.0
H531 H 0.27539 0.31935 0.68185 0.0
H532 H 0.27896 0.28954 0.71005 0.0
H533 H 0.27985 0.16179 0.70721 0.0
H534 H 0.25745 0.18854 0.72358 0.0
H535 H 0.30733 0.23234 0.71899 0.0
H536 H 0.32974 0.20565 0.70172 0.0
H537 H 0.27405 0.24845 0.70014 0.0
H538 H 0.28925 0.21384 0.7765 0.0
H539 H 0.2933 0.18445 0.8052 0.0
H540 H 0.22891 0.17043 0.79835 0.0
H541 H 0.22452 0.19957 0.76933 0.0
C542 C 0.20959 0.30686 0.76482 0.0
C543 C 0.18905 0.30009 0.76647 0.0
C544 C 0.22501 0.29352 0.75655 0.0
C545 C 0.22012 0.27322 0.7499 0.0
C546 C 0.19956 0.26664 0.75083 0.0
C547 C 0.18415 0.27998 0.75887 0.0
C548 C 0.23645 0.25843 0.74317 0.0
C549 C 0.23896 0.24107 0.7584 0.0
C550 C 0.24957 0.26139 0.72228 0.0
C551 C 0.24743 0.2793 0.70532 0.0
C552 C 0.22864 0.28329 0.69319 0.0
C553 C 0.22674 0.30025 0.67731 0.0
C554 C 0.24357 0.31325 0.67326 0.0
C555 C 0.26235 0.30929 0.68504 0.0
C556 C 0.26433 0.29236 0.70096 0.0
C557 C 0.28617 0.17703 0.71 0.0
C558 C 0.30658 0.1816 0.70321 0.0
C559 C 0.27334 0.19233 0.71947 0.0
C560 C 0.28075 0.21243 0.72283 0.0
C561 C 0.30128 0.21694 0.71659 0.0
C562 C 0.31409 0.20166 0.70684 0.0
C563 C 0.26665 0.22886 0.73155 0.0
C564 C 0.26456 0.24659 0.71678 0.0
C565 C 0.25404 0.22636 0.75307 0.0
C566 C 0.25659 0.20882 0.77058 0.0
C567 C 0.27598 0.20441 0.78097 0.0
C568 C 0.27833 0.1878 0.79732 0.0
C569 C 0.26138 0.17556 0.80356 0.0
C570 C 0.24203 0.17993 0.7935 0.0
C571 C 0.23959 0.1965 0.77712 0.0
H572 H 0.26323 0.16271 0.81622 0.0
H573 H 0.24207 0.32637 0.66095 0.0
H574 H 0.70509 0.16555 0.75227 0.0
H575 H 0.72941 0.19212 0.73901 0.0
H576 H 0.68101 0.23717 0.74112 0.0
H577 H 0.65651 0.21068 0.75476 0.0
H578 H 0.7094 0.23962 0.69794 0.0
H579 H 0.7091 0.23698 0.78848 0.0
H580 H 0.71095 0.2196 0.82955 0.0
H581 H 0.77172 0.19816 0.81209 0.0
H582 H 0.7701 0.21516 0.77071 0.0
H583 H 0.77635 0.32589 0.69571 0.0
H584 H 0.74902 0.30224 0.70873 0.0
H585 H 0.79417 0.25512 0.72206 0.0
H586 H 0.82157 0.27872 0.70945 0.0
H587 H 0.76568 0.25514 0.75823 0.0
H588 H 0.7664 0.25567 0.66803 0.0
H589 H 0.76525 0.27126 0.62583 0.0
H590 H 0.70492 0.29488 0.64115 0.0
H591 H 0.70582 0.27965 0.68359 0.0
C592 C 0.69951 0.18103 0.74953 0.0
C593 C 0.67892 0.18607 0.75471 0.0
C594 C 0.71344 0.19618 0.74203 0.0
C595 C 0.70699 0.21658 0.73938 0.0
C596 C 0.68622 0.22149 0.74314 0.0
C597 C 0.6723 0.20636 0.75095 0.0
C598 C 0.72228 0.23289 0.73424 0.0
C599 C 0.72153 0.2433 0.71123 0.0
C600 C 0.7383 0.23726 0.75144 0.0
C601 C 0.73939 0.22717 0.7764 0.0
C602 C 0.72279 0.22841 0.7933 0.0
C603 C 0.7238 0.21866 0.81666 0.0
C604 C 0.74142 0.20774 0.8234 0.0
C605 C 0.75807 0.2066 0.80682 0.0
C606 C 0.75712 0.21631 0.78343 0.0
C607 C 0.78048 0.31058 0.70173 0.0
C608 C 0.80111 0.30413 0.70143 0.0
C609 C 0.76484 0.29705 0.709 0.0
C610 C 0.76954 0.27682 0.71595 0.0
C611 C 0.7902 0.27064 0.71668 0.0
C612 C 0.80584 0.28415 0.70945 0.0
C613 C 0.75298 0.26186 0.72177 0.0
C614 C 0.75348 0.25165 0.74495 0.0
C615 C 0.73686 0.25753 0.70459 0.0
C616 C 0.73628 0.26672 0.67909 0.0
C617 C 0.75296 0.26434 0.66248 0.0
C618 C 0.75234 0.27308 0.63851 0.0
C619 C 0.73505 0.28411 0.63085 0.0
C620 C 0.71832 0.28637 0.64713 0.0
C621 C 0.71887 0.27767 0.67114 0.0
H622 H 0.7346 0.29085 0.61227 0.0
H623 H 0.74218 0.2002 0.84149 0.0
H624 H 0.13425 0.2911 0.88559 0.0
H625 H 0.13773 0.28628 0.93117 0.0
H626 H 0.17597 0.34045 0.93557 0.0
H627 H 0.17251 0.3454 0.89033 0.0
H628 H 0.18893 0.30864 0.96794 0.0
H629 H 0.12682 0.34584 0.94455 0.0
H630 H 0.09391 0.34958 0.92195 0.0
H631 H 0.07044 0.29542 0.95809 0.0
H632 H 0.10336 0.29122 0.98064 0.0
H633 H 0.17439 0.35251 0.08906 0.0
H634 H 0.17863 0.34355 0.0446 0.0
H635 H 0.1308 0.29769 0.05155 0.0
H636 H 0.12594 0.30721 0.09548 0.0
H637 H 0.12318 0.3197 0.01338 0.0
H638 H 0.18321 0.28534 0.04231 0.0
H639 H 0.21607 0.28121 0.06486 0.0
H640 H 0.24366 0.32817 0.01924 0.0
H641 H 0.21087 0.3328 -0.00336 0.0
C642 C 0.1437 0.30172 0.89625 0.0
C643 C 0.15285 0.31879 0.88457 0.0
C644 C 0.14569 0.29895 0.92221 0.0
C645 C 0.15699 0.31311 0.93666 0.0
C646 C 0.16724 0.32934 0.92472 0.0
C647 C 0.16509 0.33224 0.89892 0.0
C648 C 0.1562 0.3127 0.96441 0.0
C649 C 0.17461 0.31102 0.97801 0.0
C650 C 0.13743 0.31543 0.97738 0.0
C651 C 0.1176 0.31807 0.96402 0.0
C652 C 0.11469 0.33465 0.94752 0.0
C653 C 0.09603 0.33687 0.93475 0.0
C654 C 0.08011 0.32271 0.93852 0.0
C655 C 0.0828 0.30635 0.95514 0.0
C656 C 0.10145 0.30404 0.96792 0.0
C657 C 0.16498 0.34037 0.0811 0.0
C658 C 0.1497 0.33071 0.09555 0.0
C659 C 0.1675 0.33514 0.05576 0.0
C660 C 0.15512 0.31981 0.04474 0.0
C661 C 0.14046 0.3096 0.05957 0.0
C662 C 0.13769 0.31508 0.08466 0.0
C663 C 0.156 0.31573 0.0173 0.0
C664 C 0.13755 0.31678 0.00362 0.0
C665 C 0.17474 0.31226 0.00438 0.0
C666 C 0.19452 0.30952 0.0179 0.0
C667 C 0.19624 0.2949 0.03721 0.0
C668 C 0.21486 0.29245 0.04998 0.0
C669 C 0.23193 0.30445 0.04352 0.0
C670 C 0.23042 0.31889 0.02423 0.0
C671 C 0.21182 0.32142 0.01141 0.0
H672 H 0.24633 0.30252 0.05343 0.0
H673 H 0.06568 0.32445 0.92862 0.0
H674 H 0.63427 0.17259 0.87886 0.0
H675 H 0.64 0.17543 0.92405 0.0
H676 H 0.68964 0.13183 0.91883 0.0
H677 H 0.68407 0.12902 0.8733 0.0
H678 H 0.6591 0.12116 0.9531 0.0
H679 H 0.70101 0.17938 0.9347 0.0
H680 H 0.70985 0.21246 0.91494 0.0
H681 H 0.65952 0.24137 0.95332 0.0
H682 H 0.65016 0.20839 0.97303 0.0
H683 H 0.67223 0.12289 0.08318 0.0
H684 H 0.6808 0.1274 0.03888 0.0
H685 H 0.63586 0.1758 0.03329 0.0
H686 H 0.62778 0.17186 0.07812 0.0
H687 H 0.66888 0.18414 0.00444 0.0
H688 H 0.6237 0.12636 0.01715 0.0
H689 H 0.61269 0.09353 0.03597 0.0
H690 H 0.66677 0.06417 0.00686 0.0
H691 H 0.67825 0.09692 -0.01185 0.0
C692 C 0.64664 0.16385 0.88725 0.0
C693 C 0.65861 0.15043 0.87266 0.0
C694 C 0.64999 0.16562 0.91303 0.0
C695 C 0.66531 0.15393 0.9247 0.0
C696 C 0.67781 0.14106 0.91006 0.0
C697 C 0.67463 0.13947 0.88413 0.0
C698 C 0.66642 0.15341 0.95243 0.0
C699 C 0.66177 0.13482 0.96437 0.0
C700 C 0.66918 0.17143 0.96696 0.0
C701 C 0.67479 0.19134 0.95522 0.0
C702 C 0.69171 0.19275 0.93878 0.0
C703 C 0.69684 0.21149 0.92761 0.0
C704 C 0.68523 0.229 0.93284 0.0
C705 C 0.66849 0.2278 0.94929 0.0
C706 C 0.66329 0.20908 0.96049 0.0
C707 C 0.66434 0.13466 0.07258 0.0
C708 C 0.6491 0.14681 0.08389 0.0
C709 C 0.66925 0.13722 0.04729 0.0
C710 C 0.65863 0.15159 0.03267 0.0
C711 C 0.64418 0.16454 0.04424 0.0
C712 C 0.63951 0.16223 0.06976 0.0
C713 C 0.66141 0.1519 0.00504 0.0
C714 C 0.66663 0.17043 -0.00684 0.0
C715 C 0.65888 0.13387 -0.00959 0.0
C716 C 0.65194 0.11413 0.0015 0.0
C717 C 0.63331 0.11293 0.01492 0.0
C718 C 0.62698 0.09434 0.02554 0.0
C719 C 0.63906 0.07679 0.02268 0.0
C720 C 0.65746 0.07778 0.00911 0.0
C721 C 0.66388 0.09636 -0.00152 0.0
H722 H 0.63413 0.0624 0.03092 0.0
H723 H 0.68922 0.2435 0.92417 0.0
H724 H 0.80668 0.6365 0.88216 0.0
H725 H 0.80313 0.64188 0.92734 0.0
H726 H 0.85271 0.68611 0.9255 0.0
H727 H 0.85618 0.68095 0.87991 0.0
H728 H 0.8585 0.65312 0.95879 0.0
H729 H 0.80701 0.70278 0.94024 0.0
H730 H 0.7759 0.71618 0.91958 0.0
H731 H 0.73929 0.66939 0.95489 0.0
H732 H 0.77023 0.65548 0.97546 0.0
H733 H 0.85576 0.66699 0.08859 0.0
H734 H 0.8532 0.67521 0.04407 0.0
H735 H 0.79998 0.63573 0.03747 0.0
H736 H 0.80214 0.62781 0.08254 0.0
H737 H 0.79618 0.67024 0.0085 0.0
H738 H 0.84656 0.61784 0.02192 0.0
H739 H 0.87708 0.60201 0.04129 0.0
H740 H 0.91501 0.65129 0.01398 0.0
H741 H 0.88463 0.66758 -0.00526 0.0
C742 C 0.81657 0.64767 0.89129 0.0
C743 C 0.83183 0.65819 0.87767 0.0
C744 C 0.81442 0.65083 0.91705 0.0
C745 C 0.8276 0.66444 0.92967 0.0
C746 C 0.84233 0.67562 0.91597 0.0
C747 C 0.84429 0.67269 0.89002 0.0
C748 C 0.82758 0.66482 0.95742 0.0
C749 C 0.84507 0.65738 0.96973 0.0
C750 C 0.80971 0.66958 0.97145 0.0
C751 C 0.791 0.67799 0.95927 0.0
C752 C 0.79236 0.69524 0.94346 0.0
C753 C 0.77474 0.70295 0.93178 0.0
C754 C 0.75564 0.69362 0.93588 0.0
C755 C 0.7541 0.67659 0.95172 0.0
C756 C 0.77168 0.66881 0.96342 0.0
C757 C 0.84339 0.66016 0.07774 0.0
C758 C 0.82933 0.64648 0.0889 0.0
C759 C 0.84194 0.66491 0.05231 0.0
C760 C 0.82666 0.65577 0.0374 0.0
C761 C 0.81194 0.64288 0.04869 0.0
C762 C 0.81323 0.6383 0.07435 0.0
C763 C 0.82712 0.65854 0.0098 0.0
C764 C 0.80972 0.66637 -0.00244 0.0
C765 C 0.84497 0.65383 -0.00434 0.0
C766 C 0.86328 0.64405 0.00714 0.0
C767 C 0.86138 0.62539 0.02022 0.0
C768 C 0.87865 0.61632 0.03115 0.0
C769 C 0.89796 0.62567 0.02894 0.0
C770 C 0.90004 0.64409 0.01572 0.0
C771 C 0.8828 0.65324 0.00479 0.0
H772 H 0.91132 0.61862 0.0374 0.0
H773 H 0.74202 0.69961 0.92682 0.0
H774 H 0.3396 0.85614 0.07621 0.0
H775 H 0.32939 0.85089 0.03272 0.0
H776 H 0.31751 0.78684 0.04795 0.0
H777 H 0.32864 0.79193 0.09165 0.0
H778 H 0.33563 0.7895 0.00568 0.0
H779 H 0.27702 0.82151 0.03797 0.0
H780 H 0.25623 0.84619 0.06219 0.0
H781 H 0.27801 0.89541 0.01552 0.0
H782 H 0.29918 0.8711 -0.00876 0.0
H783 H 0.2886 0.83036 0.87725 0.0
H784 H 0.28329 0.82176 0.92178 0.0
H785 H 0.34911 0.82047 0.93275 0.0
H786 H 0.35443 0.82832 0.88867 0.0
H787 H 0.29225 0.84115 0.9626 0.0
H788 H 0.36441 0.78773 0.97443 0.0
H789 H 0.38176 0.76044 0.95038 0.0
H790 H 0.3261 0.7486 0.90929 0.0
H791 H 0.30829 0.77559 0.93334 0.0
C792 C 0.3348 0.84093 0.07034 0.0
C793 C 0.33484 0.82445 0.08729 0.0
C794 C 0.32874 0.83797 0.04551 0.0
C795 C 0.32207 0.81859 0.03719 0.0
C796 C 0.32238 0.80198 0.05401 0.0
C797 C 0.3288 0.80487 0.0789 0.0
C798 C 0.31602 0.8158 0.01051 0.0
C799 C 0.32593 0.80061 -0.00371 0.0
C800 C 0.30254 0.82966 -0.00163 0.0
C801 C 0.28973 0.84444 0.01279 0.0
C802 C 0.27746 0.83761 0.03294 0.0
C803 C 0.2656 0.85154 0.04668 0.0
C804 C 0.2658 0.87236 0.0404 0.0
C805 C 0.27785 0.87928 0.02034 0.0
C806 C 0.28975 0.86542 0.00654 0.0
C807 C 0.30187 0.8281 0.88922 0.0
C808 C 0.32191 0.82992 0.87949 0.0
C809 C 0.29884 0.82315 0.91459 0.0
C810 C 0.3158 0.81998 0.93048 0.0
C811 C 0.33576 0.82214 0.92073 0.0
C812 C 0.33879 0.82685 0.89552 0.0
C813 C 0.31313 0.81587 0.9577 0.0
C814 C 0.30148 0.82968 0.97204 0.0
C815 C 0.32441 0.80027 0.96999 0.0
C816 C 0.33501 0.78377 0.9557 0.0
C817 C 0.3558 0.77921 0.96042 0.0
C818 C 0.36574 0.76381 0.94674 0.0
C819 C 0.35505 0.75281 0.9283 0.0
C820 C 0.33438 0.75716 0.92354 0.0
C821 C 0.32436 0.77253 0.93718 0.0
H822 H 0.36278 0.74091 0.91771 0.0
H823 H 0.25662 0.88312 0.05107 0.0
H824 H 0.1358 0.68016 0.59181 0.0
H825 H 0.142 0.68788 0.5473 0.0
H826 H 0.17414 0.63047 0.5388 0.0
H827 H 0.16807 0.62268 0.58302 0.0
H828 H 0.19261 0.66255 0.51188 0.0
H829 H 0.12497 0.63197 0.52498 0.0
H830 H 0.0904 0.6303 0.54407 0.0
H831 H 0.07624 0.68973 0.51403 0.0
H832 H 0.11087 0.69185 0.49504 0.0
H833 H 0.17817 0.63049 0.38504 0.0
H834 H 0.18247 0.63627 0.43027 0.0
H835 H 0.14217 0.68871 0.42611 0.0
H836 H 0.13718 0.68241 0.38131 0.0
H837 H 0.12912 0.66457 0.46024 0.0
H838 H 0.19491 0.69288 0.44099 0.0
H839 H 0.2294 0.69452 0.42173 0.0
H840 H 0.24745 0.64067 0.46245 0.0
H841 H 0.21296 0.63852 0.4817 0.0
C842 C 0.14441 0.66933 0.5805 0.0
C843 C 0.15118 0.65068 0.59075 0.0
C844 C 0.14797 0.67378 0.55516 0.0
C845 C 0.15841 0.65966 0.53981 0.0
C846 C 0.16611 0.64157 0.55036 0.0
C847 C 0.16246 0.63707 0.57557 0.0
C848 C 0.15948 0.66251 0.51229 0.0
C849 C 0.17879 0.66301 0.50046 0.0
C850 C 0.14141 0.66351 0.4976 0.0
C851 C 0.12057 0.66218 0.50888 0.0
C852 C 0.11454 0.64474 0.52262 0.0
C853 C 0.09493 0.6437 0.53339 0.0
C854 C 0.08115 0.65993 0.53033 0.0
C855 C 0.08694 0.6772 0.51643 0.0
C856 C 0.10656 0.67833 0.50566 0.0
C857 C 0.17062 0.64349 0.39375 0.0
C858 C 0.15716 0.65587 0.37988 0.0
C859 C 0.17316 0.64687 0.41956 0.0
C860 C 0.16265 0.66297 0.43162 0.0
C861 C 0.15032 0.67613 0.41728 0.0
C862 C 0.14748 0.67252 0.39171 0.0
C863 C 0.16235 0.66455 0.45944 0.0
C864 C 0.14308 0.66467 0.47143 0.0
C865 C 0.18049 0.66422 0.47417 0.0
C866 C 0.20128 0.66546 0.46266 0.0
C867 C 0.20618 0.68129 0.4457 0.0
C868 C 0.22574 0.68233 0.4348 0.0
C869 C 0.24059 0.66769 0.44082 0.0
C870 C 0.23592 0.652 0.45779 0.0
C871 C 0.21638 0.65088 0.46873 0.0
H872 H 0.25573 0.66853 0.43237 0.0
H873 H 0.06598 0.65909 0.53868 0.0
H874 H 0.29369 0.13611 0.58412 0.0
H875 H 0.28697 0.14298 0.53951 0.0
H876 H 0.34767 0.16936 0.53187 0.0
H877 H 0.35441 0.16274 0.57613 0.0
H878 H 0.31876 0.19094 0.50504 0.0
H879 H 0.33972 0.11982 0.51763 0.0
H880 H 0.33609 0.08526 0.53605 0.0
H881 H 0.27558 0.07963 0.50428 0.0
H882 H 0.27878 0.11429 0.48593 0.0
H883 H 0.35253 0.17465 0.37979 0.0
H884 H 0.34568 0.1789 0.42476 0.0
H885 H 0.28929 0.14413 0.41683 0.0
H886 H 0.29679 0.1389 0.37232 0.0
H887 H 0.30957 0.1288 0.4522 0.0
H888 H 0.29108 0.19764 0.4328 0.0
H889 H 0.29482 0.23207 0.41414 0.0
H890 H 0.34939 0.24267 0.45784 0.0
H891 H 0.34615 0.20819 0.47652 0.0
C892 C 0.30547 0.14358 0.57296 0.0
C893 C 0.32467 0.14863 0.58349 0.0
C894 C 0.30161 0.14752 0.54754 0.0
C895 C 0.3169 0.15655 0.53241 0.0
C896 C 0.33566 0.16245 0.54324 0.0
C897 C 0.33954 0.15847 0.5685 0.0
C898 C 0.31438 0.15817 0.50486 0.0
C899 C 0.3167 0.17741 0.49336 0.0
C900 C 0.31123 0.14056 0.48979 0.0
C901 C 0.30938 0.1197 0.50069 0.0
C902 C 0.32559 0.11126 0.51474 0.0
C903 C 0.32362 0.09165 0.52514 0.0
C904 C 0.30559 0.08028 0.52141 0.0
C905 C 0.28952 0.08847 0.5072 0.0
C906 C 0.2914 0.10809 0.4968 0.0
C907 C 0.3385 0.16831 0.38764 0.0
C908 C 0.32527 0.1563 0.37281 0.0
C909 C 0.33448 0.17085 0.4133 0.0
C910 C 0.31687 0.16192 0.42425 0.0
C911 C 0.30302 0.15106 0.40891 0.0
C912 C 0.3073 0.14809 0.3835 0.0
C913 C 0.31417 0.16165 0.45198 0.0
C914 C 0.31103 0.14254 0.46362 0.0
C915 C 0.31646 0.17944 0.46707 0.0
C916 C 0.31843 0.20025 0.45595 0.0
C917 C 0.30396 0.20725 0.43831 0.0
C918 C 0.30597 0.22679 0.42775 0.0
C919 C 0.32234 0.23953 0.43477 0.0
C920 C 0.33671 0.23278 0.45241 0.0
C921 C 0.33477 0.21325 0.46303 0.0
H922 H 0.32388 0.25465 0.42656 0.0
H923 H 0.3041 0.06511 0.52947 0.0
H924 H 0.79233 0.35104 0.37876 0.0
H925 H 0.7879 0.34867 0.42451 0.0
H926 H 0.8285 0.29648 0.42633 0.0
H927 H 0.83327 0.29899 0.38086 0.0
H928 H 0.79431 0.29546 0.463 0.0
H929 H 0.85075 0.33835 0.43211 0.0
H930 H 0.86473 0.36626 0.4058 0.0
H931 H 0.82443 0.40932 0.44191 0.0
H932 H 0.80994 0.38152 0.46811 0.0
H933 H 0.84603 0.30036 0.5815 0.0
H934 H 0.83544 0.29701 0.53741 0.0
H935 H 0.8077 0.35705 0.54069 0.0
H936 H 0.81863 0.36069 0.58421 0.0
H937 H 0.83126 0.35446 0.5015 0.0
H938 H 0.77845 0.31292 0.53748 0.0
H939 H 0.76384 0.28521 0.56358 0.0
H940 H 0.79549 0.24024 0.51906 0.0
H941 H 0.81058 0.2677 0.49293 0.0
C942 C 0.7998 0.33872 0.38886 0.0
C943 C 0.81339 0.32539 0.37648 0.0
C944 C 0.79722 0.33734 0.4149 0.0
C945 C 0.80799 0.32247 0.42867 0.0
C946 C 0.82002 0.30799 0.41597 0.0
C947 C 0.82287 0.30956 0.39008 0.0
C948 C 0.80983 0.32417 0.45624 0.0
C949 C 0.80236 0.3083 0.47156 0.0
C950 C 0.82014 0.34108 0.46721 0.0
C951 C 0.8291 0.35784 0.45182 0.0
C952 C 0.84476 0.35374 0.43428 0.0
C953 C 0.85279 0.36953 0.41941 0.0
C954 C 0.84543 0.38954 0.42213 0.0
C955 C 0.83008 0.3938 0.43979 0.0
C956 C 0.82195 0.37804 0.45464 0.0
C957 C 0.83756 0.31275 0.5728 0.0
C958 C 0.83335 0.33086 0.58617 0.0
C959 C 0.83138 0.31077 0.5477 0.0
C960 C 0.82066 0.32676 0.53582 0.0
C961 C 0.816 0.34457 0.54945 0.0
C962 C 0.82231 0.34662 0.57432 0.0
C963 C 0.81567 0.32575 0.50867 0.0
C964 C 0.8228 0.34173 0.49326 0.0
C965 C 0.80492 0.309 0.49779 0.0
C966 C 0.7958 0.2924 0.51337 0.0
C967 C 0.78244 0.29713 0.53337 0.0
C968 C 0.77404 0.28147 0.54816 0.0
C969 C 0.77877 0.26099 0.54302 0.0
C970 C 0.79186 0.25612 0.52304 0.0
C971 C 0.80032 0.27173 0.50822 0.0
H972 H 0.77226 0.24888 0.55448 0.0
H973 H 0.85167 0.40175 0.41061 0.0
H974 H 0.68581 0.84275 0.59773 0.0
H975 H 0.69133 0.83807 0.55236 0.0
H976 H 0.63562 0.80206 0.54775 0.0
H977 H 0.62995 0.8067 0.59266 0.0
H978 H 0.69102 0.8025 0.51526 0.0
H979 H 0.60705 0.82673 0.50402 0.0
H980 H 0.58029 0.84531 0.52778 0.0
H981 H 0.62678 0.8822 0.5635 0.0
H982 H 0.65375 0.86409 0.53962 0.0
H983 H 0.65034 0.79297 0.38796 0.0
H984 H 0.65657 0.79032 0.43345 0.0
H985 H 0.6661 0.85579 0.43744 0.0
H986 H 0.6601 0.85859 0.39243 0.0
H987 H 0.6363 0.84088 0.4705 0.0
H988 H 0.70574 0.82715 0.44441 0.0
H989 H 0.73292 0.80879 0.42122 0.0
H990 H 0.71712 0.75289 0.45943 0.0
H991 H 0.68962 0.77086 0.48259 0.0
C992 C 0.67504 0.83344 0.58711 0.0
C993 C 0.65722 0.82548 0.59854 0.0
C994 C 0.67829 0.83066 0.5613 0.0
C995 C 0.66375 0.81989 0.54683 0.0
C996 C 0.64693 0.81049 0.55866 0.0
C997 C 0.64365 0.81331 0.58427 0.0
C998 C 0.66401 0.82129 0.51918 0.0
C999 C 0.67912 0.81087 0.50537 0.0
C1000 C 0.64854 0.83238 0.50647 0.0
C1001 C 0.6324 0.84392 0.52022 0.0
C1002 C 0.61153 0.8389 0.51683 0.0
C1003 C 0.59633 0.84933 0.53033 0.0
C1004 C 0.60183 0.86488 0.5472 0.0
C1005 C 0.62254 0.87011 0.55049 0.0
C1006 C 0.63778 0.85976 0.53698 0.0
C1007 C 0.65395 0.80673 0.39856 0.0
C1008 C 0.65454 0.826 0.38671 0.0
C1009 C 0.65761 0.80518 0.42443 0.0
C1010 C 0.6618 0.82288 0.43866 0.0
C1011 C 0.66289 0.84199 0.42672 0.0
C1012 C 0.65941 0.84353 0.401 0.0
C1013 C 0.66325 0.822 0.46632 0.0
C1014 C 0.64829 0.83249 0.48023 0.0
C1015 C 0.67896 0.81114 0.47894 0.0
C1016 C 0.69547 0.8003 0.46503 0.0
C1017 C 0.70792 0.81089 0.44768 0.0
C1018 C 0.72341 0.80057 0.43459 0.0
C1019 C 0.7267 0.77967 0.43879 0.0
C1020 C 0.71453 0.76907 0.45616 0.0
C1021 C 0.699 0.77932 0.46929 0.0
H1022 H 0.73871 0.77171 0.42864 0.0
H1023 H 0.59005 0.87289 0.55769 0.0
H1024 H 0.12053 0.55446 0.32131 0.0
H1025 H 0.12301 0.52073 0.30142 0.0
H1026 H 0.15419 0.5478 0.23794 0.0
H1027 H 0.15197 0.58159 0.25776 0.0
H1028 H 0.10641 0.50786 0.25817 0.0
H1029 H 0.18748 0.5124 0.21306 0.0
H1030 H 0.22125 0.52848 0.22138 0.0
H1031 H 0.20796 0.52976 0.30045 0.0
H1032 H 0.17424 0.51344 0.29265 0.0
H1033 H 0.11605 0.43274 0.16338 0.0
H1034 H 0.11873 0.46552 0.18551 0.0
H1035 H 0.15797 0.43774 0.24112 0.0
H1036 H 0.15544 0.40481 0.21908 0.0
H1037 H 0.17135 0.47661 0.22761 0.0
H1038 H 0.10893 0.44374 0.2546 0.0
H1039 H 0.07542 0.42646 0.24882 0.0
H1040 H 0.05191 0.47976 0.21131 0.0
H1041 H 0.0854 0.49726 0.21656 0.0
C1042 C 0.1281 0.55326 0.30322 0.0
C1043 C 0.13604 0.57079 0.29114 0.0
C1044 C 0.12944 0.53394 0.29184 0.0
C1045 C 0.13887 0.53171 0.26825 0.0
C1046 C 0.14708 0.54911 0.25629 0.0
C1047 C 0.14572 0.56844 0.26763 0.0
C1048 C 0.13935 0.51131 0.25572 0.0
C1049 C 0.12063 0.50105 0.25152 0.0
C1050 C 0.15791 0.50228 0.24728 0.0
C1051 C 0.17825 0.51188 0.25222 0.0
C1052 C 0.1918 0.51604 0.23223 0.0
C1053 C 0.21092 0.52521 0.23686 0.0
C1054 C 0.21672 0.5302 0.26142 0.0
C1055 C 0.20342 0.52596 0.28142 0.0
C1056 C 0.18429 0.51678 0.27691 0.0
C1057 C 0.12544 0.43359 0.18017 0.0
C1058 C 0.13541 0.41606 0.18954 0.0
C1059 C 0.1269 0.45235 0.19284 0.0
C1060 C 0.13835 0.45399 0.21512 0.0
C1061 C 0.14902 0.43678 0.22398 0.0
C1062 C 0.1475 0.41796 0.21139 0.0
C1063 C 0.1384 0.47342 0.22972 0.0
C1064 C 0.15717 0.48349 0.23427 0.0
C1065 C 0.11992 0.48217 0.23882 0.0
C1066 C 0.09973 0.47173 0.23577 0.0
C1067 C 0.09666 0.45172 0.24495 0.0
C1068 C 0.07767 0.44189 0.2418 0.0
C1069 C 0.06156 0.45199 0.22965 0.0
C1070 C 0.06441 0.47195 0.22069 0.0
C1071 C 0.08339 0.48183 0.22377 0.0
H1072 H 0.04687 0.44435 0.22723 0.0
H1073 H 0.23152 0.5373 0.26496 0.0
H1074 H 0.57477 0.15452 0.2048 0.0
H1075 H 0.54192 0.15801 0.22687 0.0
H1076 H 0.5129 0.11827 0.17241 0.0
H1077 H 0.54563 0.11465 0.1502 0.0
H1078 H 0.50291 0.17145 0.21341 0.0
H1079 H 0.48095 0.08548 0.20587 0.0
H1080 H 0.49807 0.05196 0.20092 0.0
H1081 H 0.55285 0.07629 0.23511 0.0
H1082 H 0.53591 0.10974 0.24084 0.0
H1083 H 0.39813 0.15267 0.24815 0.0
H1084 H 0.43146 0.15463 0.2269 0.0
H1085 H 0.46035 0.12536 0.29032 0.0
H1086 H 0.42712 0.12321 0.31166 0.0
H1087 H 0.4716 0.10749 0.24693 0.0
H1088 H 0.46783 0.17584 0.27966 0.0
H1089 H 0.45215 0.2097 0.2872 0.0
H1090 H 0.45134 0.22135 0.20778 0.0
H1091 H 0.46676 0.18741 0.19974 0.0
C1092 C 0.56136 0.14669 0.19733 0.0
C1093 C 0.56289 0.13416 0.17583 0.0
C1094 C 0.54258 0.14878 0.20993 0.0
C1095 C 0.52505 0.13823 0.20143 0.0
C1096 C 0.52631 0.12638 0.17942 0.0
C1097 C 0.54504 0.12438 0.16672 0.0
C1098 C 0.50578 0.13863 0.21637 0.0
C1099 C 0.496 0.15748 0.22068 0.0
C1100 C 0.49703 0.12043 0.22629 0.0
C1101 C 0.50722 0.10019 0.2235 0.0
C1102 C 0.49661 0.08363 0.21247 0.0
C1103 C 0.50628 0.06463 0.20955 0.0
C1104 C 0.52655 0.062 0.21767 0.0
C1105 C 0.53716 0.07833 0.22883 0.0
C1106 C 0.52753 0.09732 0.2319 0.0
C1107 C 0.41159 0.14683 0.25771 0.0
C1108 C 0.4099 0.13775 0.28162 0.0
C1109 C 0.43066 0.14802 0.24555 0.0
C1110 C 0.44841 0.14019 0.25705 0.0
C1111 C 0.44684 0.13145 0.28107 0.0
C1112 C 0.42782 0.13032 0.29328 0.0
C1113 C 0.46846 0.14029 0.24363 0.0
C1114 C 0.47841 0.12149 0.2396 0.0
C1115 C 0.4775 0.15857 0.23432 0.0
C1116 C 0.46827 0.179 0.23909 0.0
C1117 C 0.46415 0.18555 0.26379 0.0
C1118 C 0.45534 0.20477 0.26816 0.0
C1119 C 0.4507 0.21765 0.24798 0.0
C1120 C 0.45491 0.21135 0.22339 0.0
C1121 C 0.46371 0.19213 0.21892 0.0
H1122 H 0.44389 0.23253 0.2514 0.0
H1123 H 0.53402 0.0473 0.21534 0.0
H1124 H 0.81475 0.57015 0.20472 0.0
H1125 H 0.81113 0.53701 0.22591 0.0
H1126 H 0.86483 0.5147 0.18679 0.0
H1127 H 0.86791 0.54734 0.16477 0.0
H1128 H 0.83918 0.48555 0.18872 0.0
H1129 H 0.86558 0.53259 0.25014 0.0
H1130 H 0.86628 0.56404 0.27602 0.0
H1131 H 0.80848 0.54719 0.30948 0.0
H1132 H 0.80731 0.51575 0.28356 0.0
H1133 H 0.86083 0.42206 0.30998 0.0
H1134 H 0.85951 0.45499 0.28822 0.0
H1135 H 0.81155 0.43158 0.23979 0.0
H1136 H 0.81348 0.39828 0.26077 0.0
H1137 H 0.83356 0.4836 0.28169 0.0
H1138 H 0.81458 0.45241 0.18217 0.0
H1139 H 0.81994 0.4211 0.15684 0.0
H1140 H 0.87344 0.40648 0.20055 0.0
H1141 H 0.86855 0.43782 0.2259 0.0
C1142 C 0.82567 0.5581 0.2005 0.0
C1143 C 0.84165 0.56141 0.18312 0.0
C1144 C 0.82367 0.5392 0.21275 0.0
C1145 C 0.83793 0.5234 0.20835 0.0
C1146 C 0.8536 0.52657 0.19055 0.0
C1147 C 0.85537 0.5453 0.17797 0.0
C1148 C 0.83689 0.50371 0.22251 0.0
C1149 C 0.83788 0.48516 0.20905 0.0
C1150 C 0.8356 0.50307 0.2491 0.0
C1151 C 0.83625 0.52194 0.26472 0.0
C1152 C 0.85295 0.53567 0.26289 0.0
C1153 C 0.85344 0.55348 0.27758 0.0
C1154 C 0.8374 0.55764 0.29433 0.0
C1155 C 0.82087 0.54396 0.29647 0.0
C1156 C 0.82029 0.52614 0.28179 0.0
C1157 C 0.84992 0.42395 0.29477 0.0
C1158 C 0.8374 0.40749 0.28694 0.0
C1159 C 0.84915 0.44283 0.28236 0.0
C1160 C 0.83567 0.44575 0.26204 0.0
C1161 C 0.82246 0.4296 0.25497 0.0
C1162 C 0.8235 0.41059 0.26707 0.0
C1163 C 0.83593 0.46547 0.2479 0.0
C1164 C 0.83472 0.484 0.26135 0.0
C1165 C 0.83787 0.46613 0.22138 0.0
C1166 C 0.84105 0.44733 0.2061 0.0
C1167 C 0.82752 0.44254 0.18631 0.0
C1168 C 0.83047 0.42478 0.17196 0.0
C1169 C 0.84697 0.41177 0.17714 0.0
C1170 C 0.86062 0.41653 0.19662 0.0
C1171 C 0.85775 0.43427 0.211 0.0
H1172 H 0.84922 0.39803 0.16603 0.0
H1173 H 0.83782 0.57143 0.3057 0.0
H1174 H 0.57774 0.80574 0.27649 0.0
H1175 H 0.54474 0.8003 0.25529 0.0
H1176 H 0.52013 0.85381 0.29249 0.0
H1177 H 0.55263 0.85861 0.31466 0.0
H1178 H 0.49129 0.82776 0.28927 0.0
H1179 H 0.54065 0.85421 0.23005 0.0
H1180 H 0.57315 0.85471 0.20604 0.0
H1181 H 0.55786 0.79646 0.17292 0.0
H1182 H 0.52537 0.79551 0.19698 0.0
H1183 H 0.43585 0.85532 0.16482 0.0
H1184 H 0.46718 0.85068 0.18908 0.0
H1185 H 0.43725 0.80371 0.23326 0.0
H1186 H 0.40533 0.80903 0.20966 0.0
H1187 H 0.49309 0.8227 0.19625 0.0
H1188 H 0.45673 0.8033 0.29249 0.0
H1189 H 0.42453 0.80928 0.316 0.0
H1190 H 0.41414 0.86454 0.27406 0.0
H1191 H 0.44639 0.859 0.25053 0.0
C1192 C 0.56518 0.81616 0.28037 0.0
C1193 C 0.56782 0.83269 0.29711 0.0
C1194 C 0.54635 0.81311 0.26815 0.0
C1195 C 0.53002 0.8269 0.27182 0.0
C1196 C 0.53243 0.84293 0.28928 0.0
C1197 C 0.55108 0.84571 0.30192 0.0
C1198 C 0.51081 0.82544 0.25662 0.0
C1199 C 0.49171 0.82653 0.26894 0.0
C1200 C 0.51123 0.82414 0.23002 0.0
C1201 C 0.53072 0.82468 0.21553 0.0
C1202 C 0.5443 0.84145 0.21777 0.0
C1203 C 0.5627 0.84182 0.20414 0.0
C1204 C 0.5676 0.82559 0.18803 0.0
C1205 C 0.55407 0.80899 0.18545 0.0
C1206 C 0.53566 0.80853 0.19907 0.0
C1207 C 0.43591 0.84388 0.17958 0.0
C1208 C 0.41803 0.83264 0.18541 0.0
C1209 C 0.45391 0.8412 0.19344 0.0
C1210 C 0.4546 0.82703 0.21328 0.0
C1211 C 0.43702 0.81508 0.21843 0.0
C1212 C 0.41881 0.81804 0.20484 0.0
C1213 C 0.47357 0.82547 0.22885 0.0
C1214 C 0.49265 0.82367 0.21661 0.0
C1215 C 0.47315 0.82703 0.25542 0.0
C1216 C 0.45381 0.83058 0.26955 0.0
C1217 C 0.44758 0.81674 0.28834 0.0
C1218 C 0.42932 0.82005 0.30166 0.0
C1219 C 0.41725 0.83723 0.29645 0.0
C1220 C 0.42346 0.85119 0.27799 0.0
C1221 C 0.4417 0.84796 0.26465 0.0
H1222 H 0.40312 0.83976 0.30677 0.0
H1223 H 0.58185 0.82591 0.17749 0.0
H1224 H 0.82994 0.54961 0.82107 0.0
H1225 H 0.8253 0.51623 0.80088 0.0
H1226 H 0.83512 0.5441 0.72825 0.0
H1227 H 0.83873 0.5778 0.7484 0.0
H1228 H 0.80796 0.51443 0.72401 0.0
H1229 H 0.8749 0.52085 0.76211 0.0
H1230 H 0.89939 0.5273 0.79667 0.0
H1231 H 0.87328 0.47723 0.83849 0.0
H1232 H 0.84846 0.47064 0.80428 0.0
H1233 H 0.85551 0.43373 0.65681 0.0
H1234 H 0.84703 0.46501 0.67971 0.0
H1235 H 0.82749 0.42899 0.74342 0.0
H1236 H 0.83581 0.39737 0.72047 0.0
H1237 H 0.85579 0.46079 0.75469 0.0
H1238 H 0.79186 0.45205 0.71134 0.0
H1239 H 0.76963 0.44595 0.67452 0.0
H1240 H 0.79277 0.50084 0.6398 0.0
H1241 H 0.81539 0.50712 0.67626 0.0
C1242 C 0.83079 0.54864 0.80076 0.0
C1243 C 0.83497 0.56616 0.78626 0.0
C1244 C 0.8282 0.52957 0.78926 0.0
C1245 C 0.83044 0.52757 0.76313 0.0
C1246 C 0.83344 0.54527 0.74847 0.0
C1247 C 0.83555 0.56448 0.75996 0.0
C1248 C 0.83121 0.50695 0.75134 0.0
C1249 C 0.8185 0.50274 0.73062 0.0
C1250 C 0.84471 0.49155 0.76025 0.0
C1251 C 0.85969 0.4954 0.78077 0.0
C1252 C 0.8743 0.51131 0.77875 0.0
C1253 C 0.88825 0.51498 0.79826 0.0
C1254 C 0.88785 0.50272 0.8198 0.0
C1255 C 0.87354 0.48673 0.82182 0.0
C1256 C 0.85954 0.48302 0.80237 0.0
C1257 C 0.84933 0.4324 0.67566 0.0
C1258 C 0.84642 0.41307 0.68689 0.0
C1259 C 0.84435 0.4503 0.68862 0.0
C1260 C 0.83645 0.44925 0.7131 0.0
C1261 C 0.83345 0.43003 0.72444 0.0
C1262 C 0.83821 0.41204 0.71133 0.0
C1263 C 0.83273 0.46839 0.72727 0.0
C1264 C 0.84498 0.47235 0.74838 0.0
C1265 C 0.81911 0.48364 0.71841 0.0
C1266 C 0.80543 0.47998 0.69649 0.0
C1267 C 0.79234 0.46274 0.69578 0.0
C1268 C 0.77964 0.45926 0.67498 0.0
C1269 C 0.77981 0.47298 0.65482 0.0
C1270 C 0.79266 0.49023 0.65544 0.0
C1271 C 0.8054 0.49377 0.67618 0.0
H1272 H 0.76997 0.47026 0.63873 0.0
H1273 H 0.89866 0.50559 0.83489 0.0
H1274 H 0.57537 0.83364 0.72227 0.0
H1275 H 0.54136 0.82907 0.74136 0.0
H1276 H 0.51286 0.83781 0.6689 0.0
H1277 H 0.54661 0.84303 0.64995 0.0
H1278 H 0.49433 0.86023 0.70172 0.0
H1279 H 0.5147 0.78996 0.69849 0.0
H1280 H 0.53724 0.76013 0.70531 0.0
H1281 H 0.53377 0.76935 0.78514 0.0
H1282 H 0.51142 0.79941 0.7788 0.0
H1283 H 0.39391 0.83476 0.74585 0.0
H1284 H 0.42637 0.82984 0.72301 0.0
H1285 H 0.46009 0.83534 0.79252 0.0
H1286 H 0.42791 0.84057 0.81536 0.0
H1287 H 0.47445 0.80334 0.75883 0.0
H1288 H 0.45692 0.87577 0.76053 0.0
H1289 H 0.43382 0.90511 0.7532 0.0
H1290 H 0.4315 0.89048 0.6745 0.0
H1291 H 0.45438 0.86085 0.68146 0.0
C1292 C 0.56185 0.8344 0.71041 0.0
C1293 C 0.56365 0.83883 0.68466 0.0
C1294 C 0.54243 0.83168 0.72129 0.0
C1295 C 0.52454 0.83294 0.70651 0.0
C1296 C 0.52641 0.83684 0.6807 0.0
C1297 C 0.54574 0.83982 0.6699 0.0
C1298 C 0.50383 0.8315 0.71812 0.0
C1299 C 0.4899 0.84755 0.7138 0.0
C1300 C 0.4981 0.81516 0.73423 0.0
C1301 C 0.51152 0.79706 0.73814 0.0
C1302 C 0.51887 0.78573 0.71749 0.0
C1303 C 0.53159 0.76876 0.72128 0.0
C1304 C 0.53697 0.76288 0.74564 0.0
C1305 C 0.5296 0.77393 0.76628 0.0
C1306 C 0.51688 0.79092 0.7626 0.0
C1307 C 0.40823 0.83463 0.75627 0.0
C1308 C 0.40844 0.83826 0.78231 0.0
C1309 C 0.4267 0.83182 0.74323 0.0
C1310 C 0.44553 0.83231 0.75615 0.0
C1311 C 0.44568 0.83487 0.78229 0.0
C1312 C 0.4273 0.838 0.79524 0.0
C1313 C 0.46523 0.832 0.74234 0.0
C1314 C 0.47892 0.81576 0.74639 0.0
C1315 C 0.47073 0.84806 0.7258 0.0
C1316 C 0.45715 0.86596 0.72156 0.0
C1317 C 0.45134 0.87871 0.7417 0.0
C1318 C 0.43832 0.8954 0.73761 0.0
C1319 C 0.43114 0.89961 0.71342 0.0
C1320 C 0.43704 0.88717 0.69325 0.0
C1321 C 0.45004 0.87043 0.69725 0.0
H1322 H 0.42106 0.91255 0.71029 0.0
H1323 H 0.54683 0.74973 0.74853 0.0
H1324 H 0.15781 0.39593 0.75905 0.0
H1325 H 0.16164 0.42891 0.73734 0.0
H1326 H 0.13026 0.45931 0.79833 0.0
H1327 H 0.12623 0.42669 0.81996 0.0
H1328 H 0.11381 0.46892 0.75378 0.0
H1329 H 0.18117 0.4657 0.79055 0.0
H1330 H 0.2149 0.45018 0.79969 0.0
H1331 H 0.22943 0.4497 0.72093 0.0
H1332 H 0.19565 0.46496 0.71129 0.0
H1333 H 0.15816 0.57301 0.71429 0.0
H1334 H 0.16246 0.54077 0.73741 0.0
H1335 H 0.12858 0.50845 0.67988 0.0
H1336 H 0.12417 0.54035 0.65673 0.0
H1337 H 0.17895 0.50103 0.72453 0.0
H1338 H 0.09395 0.4781 0.71058 0.0
H1339 H 0.06035 0.49459 0.70328 0.0
H1340 H 0.08149 0.54904 0.74103 0.0
H1341 H 0.11508 0.53277 0.74887 0.0
C1342 C 0.15189 0.40967 0.76791 0.0
C1343 C 0.14156 0.40863 0.79113 0.0
C1344 C 0.15417 0.4285 0.75555 0.0
C1345 C 0.14624 0.44652 0.76628 0.0
C1346 C 0.13642 0.44556 0.7897 0.0
C1347 C 0.13414 0.42686 0.80203 0.0
C1348 C 0.14685 0.46624 0.75254 0.0
C1349 C 0.12807 0.47591 0.74741 0.0
C1350 C 0.16547 0.47543 0.74444 0.0
C1351 C 0.1858 0.46628 0.75019 0.0
C1352 C 0.19148 0.46212 0.77516 0.0
C1353 C 0.21063 0.4534 0.78044 0.0
C1354 C 0.22428 0.4489 0.7609 0.0
C1355 C 0.21883 0.45316 0.73604 0.0
C1356 C 0.1997 0.46187 0.73067 0.0
C1357 C 0.15181 0.559 0.70644 0.0
C1358 C 0.1406 0.5593 0.68382 0.0
C1359 C 0.1544 0.54061 0.71959 0.0
C1360 C 0.14569 0.52235 0.71039 0.0
C1361 C 0.13528 0.52246 0.68734 0.0
C1362 C 0.13274 0.54074 0.67418 0.0
C1363 C 0.14592 0.50346 0.72569 0.0
C1364 C 0.16476 0.49396 0.73098 0.0
C1365 C 0.12738 0.49447 0.73428 0.0
C1366 C 0.10709 0.50428 0.73008 0.0
C1367 C 0.09139 0.49356 0.71741 0.0
C1368 C 0.07235 0.50287 0.71317 0.0
C1369 C 0.06882 0.52287 0.72161 0.0
C1370 C 0.08428 0.53358 0.73441 0.0
C1371 C 0.10332 0.52432 0.73873 0.0
H1372 H 0.05408 0.53006 0.71828 0.0
H1373 H 0.23909 0.44216 0.76502 0.0
H1374 H 0.43293 0.13642 0.64148 0.0
H1375 H 0.46585 0.14292 0.66201 0.0
H1376 H 0.43504 0.14799 0.73366 0.0
H1377 H 0.4018 0.14234 0.71294 0.0
H1378 H 0.46512 0.17504 0.73132 0.0
H1379 H 0.45912 0.10298 0.71475 0.0
H1380 H 0.45329 0.07193 0.6891 0.0
H1381 H 0.50497 0.08769 0.6425 0.0
H1382 H 0.51093 0.119 0.66768 0.0
H1383 H 0.54821 0.14355 0.81 0.0
H1384 H 0.51623 0.14795 0.78659 0.0
H1385 H 0.55071 0.15395 0.71766 0.0
H1386 H 0.58294 0.14973 0.74102 0.0
H1387 H 0.5198 0.12332 0.71711 0.0
H1388 H 0.52705 0.19449 0.73861 0.0
H1389 H 0.53244 0.22388 0.76713 0.0
H1390 H 0.47789 0.20756 0.80821 0.0
H1391 H 0.47232 0.17787 0.78016 0.0
C1392 C 0.43314 0.13903 0.6616 0.0
C1393 C 0.41484 0.1386 0.67569 0.0
C1394 C 0.45197 0.1427 0.67332 0.0
C1395 C 0.45297 0.14545 0.69946 0.0
C1396 C 0.43464 0.14581 0.71347 0.0
C1397 C 0.41568 0.14252 0.70165 0.0
C1398 C 0.47321 0.14701 0.71219 0.0
C1399 C 0.47701 0.16363 0.7284 0.0
C1400 C 0.48885 0.13229 0.70809 0.0
C1401 C 0.48533 0.11345 0.69294 0.0
C1402 C 0.46914 0.09991 0.69891 0.0
C1403 C 0.46583 0.08225 0.68448 0.0
C1404 C 0.47872 0.07787 0.66414 0.0
C1405 C 0.49498 0.09112 0.65823 0.0
C1406 C 0.49834 0.10882 0.67259 0.0
C1407 C 0.54903 0.14608 0.7899 0.0
C1408 C 0.56807 0.14615 0.77729 0.0
C1409 C 0.53075 0.14873 0.7766 0.0
C1410 C 0.53117 0.15135 0.75046 0.0
C1411 C 0.55015 0.15202 0.73788 0.0
C1412 C 0.56851 0.14965 0.75123 0.0
C1413 C 0.5117 0.15132 0.73615 0.0
C1414 C 0.508 0.13486 0.71976 0.0
C1415 C 0.49608 0.16596 0.74051 0.0
C1416 C 0.49936 0.18384 0.75738 0.0
C1417 C 0.51629 0.19705 0.75385 0.0
C1418 C 0.51936 0.2138 0.76992 0.0
C1419 C 0.50554 0.21756 0.78951 0.0
C1420 C 0.48859 0.20462 0.79304 0.0
C1421 C 0.48545 0.18784 0.77704 0.0
H1422 H 0.50795 0.23053 0.80192 0.0
H1423 H 0.47613 0.06419 0.65298 0.0
H1424 H 0.63637 0.05226 0.81349 0.0
H1425 H 0.63972 0.01887 0.79267 0.0
H1426 H 0.64898 0.04914 0.72152 0.0
H1427 H 0.64596 0.08258 0.74217 0.0
H1428 H 0.61788 0.01779 0.7217 0.0
H1429 H 0.68847 0.02809 0.74636 0.0
H1430 H 0.71647 0.03547 0.77636 0.0
H1431 H 0.6995 0.98251 0.81974 0.0
H1432 H 0.67119 0.97498 0.79018 0.0
H1433 H 0.6385 0.92916 0.65012 0.0
H1434 H 0.64181 0.9631 0.66937 0.0
H1435 H 0.64643 0.93515 0.74263 0.0
H1436 H 0.64392 0.90117 0.72342 0.0
H1437 H 0.6715 0.9661 0.74077 0.0
H1438 H 0.60051 0.95618 0.71985 0.0
H1439 H 0.57082 0.9484 0.69253 0.0
H1440 H 0.58606 -0.00017 0.6456 0.0
H1441 H 0.61602 0.00776 0.67246 0.0
C1442 C 0.6393 0.05182 0.79345 0.0
C1443 C 0.64088 0.07008 0.77948 0.0
C1444 C 0.64127 0.03274 0.78162 0.0
C1445 C 0.64464 0.03159 0.75559 0.0
C1446 C 0.64641 0.04975 0.74163 0.0
C1447 C 0.64475 0.06883 0.7535 0.0
C1448 C 0.64538 0.01142 0.74275 0.0
C1449 C 0.62978 0.00658 0.72552 0.0
C1450 C 0.66053 -0.00337 0.74845 0.0
C1451 C 0.67759 0.00109 0.76619 0.0
C1452 C 0.69059 0.01812 0.76242 0.0
C1453 C 0.70654 0.02231 0.77932 0.0
C1454 C 0.70973 0.0095 0.79998 0.0
C1455 C 0.697 -0.00757 0.80374 0.0
C1456 C 0.68101 -0.01181 0.78691 0.0
C1457 C 0.6404 0.93023 0.67031 0.0
C1458 C 0.64079 0.91246 0.68525 0.0
C1459 C 0.64218 0.94966 0.68132 0.0
C1460 C 0.64392 0.95174 0.70753 0.0
C1461 C 0.64504 0.93398 0.72239 0.0
C1462 C 0.64356 0.91454 0.71136 0.0
C1463 C 0.64396 0.97236 0.71958 0.0
C1464 C 0.65964 0.9773 0.73676 0.0
C1465 C 0.62864 0.98715 0.7142 0.0
C1466 C 0.61063 0.98242 0.698 0.0
C1467 C 0.59762 0.96573 0.70359 0.0
C1468 C 0.58073 0.96131 0.68821 0.0
C1469 C 0.57659 0.97358 0.6673 0.0
C1470 C 0.58931 -0.00968 0.66177 0.0
C1471 C 0.60624 -0.0052 0.67707 0.0
H1472 H 0.5635 0.97013 0.65542 0.0
H1473 H 0.72209 0.01276 0.81304 0.0
H1474 H 0.89885 0.6446 0.74616 0.0
H1475 H 0.93203 0.64668 0.72456 0.0
H1476 H 0.96348 0.63614 0.79468 0.0
H1477 H 0.93032 0.63378 0.81647 0.0
H1478 H 0.98109 0.66823 0.76351 0.0
H1479 H 0.95852 0.59752 0.75861 0.0
H1480 H 0.93378 0.56987 0.74867 0.0
H1481 H 0.93346 0.58828 0.6712 0.0
H1482 H 0.95797 0.61626 0.68076 0.0
H1483 H 0.07977 0.63872 0.72002 0.0
H1484 H 0.04643 0.64239 0.74062 0.0
H1485 H 0.01602 0.63762 0.66872 0.0
H1486 H 0.04934 0.6331 0.6481 0.0
H1487 H -0.00297 0.61462 0.70012 0.0
H1488 H 0.02014 0.68424 0.70321 0.0
H1489 H 0.04401 0.71287 0.71206 0.0
H1490 H 0.04249 0.69838 0.79076 0.0
H1491 H 0.01881 0.66948 0.78234 0.0
C1492 C 0.91281 0.64292 0.75707 0.0
C1493 C 0.91193 0.63892 0.78304 0.0
C1494 C 0.93174 0.64407 0.74467 0.0
C1495 C 0.95015 0.64144 0.75802 0.0
C1496 C 0.94941 0.63821 0.78407 0.0
C1497 C 0.93046 0.63679 0.79646 0.0
C1498 C 0.97013 0.6411 0.7446 0.0
C1499 C 0.98473 0.65643 0.74981 0.0
C1500 C 0.97454 0.62601 0.72626 0.0
C1501 C 0.9599 0.60912 0.72046 0.0
C1502 C 0.95303 0.59579 0.7395 0.0
C1503 C 0.93908 0.58004 0.73392 0.0
C1504 C 0.932 0.57736 0.70933 0.0
C1505 C 0.93892 0.5904 0.69025 0.0
C1506 C 0.95285 0.60619 0.69573 0.0
C1507 C 0.066 0.63869 0.70854 0.0
C1508 C 0.06721 0.63562 0.6824 0.0
C1509 C 0.04692 0.64089 0.72035 0.0
C1510 C 0.02864 0.64056 0.70623 0.0
C1511 C 0.02987 0.63792 0.68005 0.0
C1512 C 0.04894 0.63539 0.66827 0.0
C1513 C 0.00824 0.64183 0.7189 0.0
C1514 C -0.00652 0.6266 0.71363 0.0
C1515 C 0.00363 0.65718 0.73695 0.0
C1516 C 0.01784 0.67458 0.74211 0.0
C1517 C 0.02501 0.68706 0.72238 0.0
C1518 C 0.03849 0.70335 0.72733 0.0
C1519 C 0.0448 0.70741 0.75195 0.0
C1520 C 0.03761 0.69521 0.77169 0.0
C1521 C 0.02414 0.67888 0.76685 0.0
H1522 H 0.05524 0.72003 0.75574 0.0
H1523 H 0.9212 0.56516 0.70505 0.0
H1524 H 0.33806 0.04618 0.64317 0.0
H1525 H 0.33382 0.01332 0.66515 0.0
H1526 H 0.33294 0.0451 0.73627 0.0
H1527 H 0.33663 0.07798 0.71455 0.0
H1528 H 0.36328 0.01037 0.72898 0.0
H1529 H 0.29109 0.02838 0.72141 0.0
H1530 H 0.26006 0.03813 0.69767 0.0
H1531 H 0.26443 0.98291 0.65383 0.0
H1532 H 0.29569 0.97297 0.67708 0.0
H1533 H 0.34257 0.93143 0.81411 0.0
H1534 H 0.34033 0.96371 0.79109 0.0
H1535 H 0.32196 0.93079 0.72428 0.0
H1536 H 0.32367 0.8984 0.74737 0.0
H1537 H 0.30128 0.96562 0.7274 0.0
H1538 H 0.37162 0.94656 0.73175 0.0
H1539 H 0.40404 0.93545 0.75147 0.0
H1540 H 0.40551 -0.00946 0.79589 0.0
H1541 H 0.37293 0.00186 0.77665 0.0
C1542 C 0.33672 0.04617 0.66347 0.0
C1543 C 0.33768 0.06467 0.67713 0.0
C1544 C 0.33427 0.02743 0.67595 0.0
C1545 C 0.33308 0.02687 0.70228 0.0
C1546 C 0.3338 0.04528 0.71593 0.0
C1547 C 0.33583 0.06403 0.70347 0.0
C1548 C 0.33217 0.00703 0.71571 0.0
C1549 C 0.34965 0.00069 0.72897 0.0
C1550 C 0.31467 -0.00589 0.71472 0.0
C1551 C 0.29587 6e-05 0.70078 0.0
C1552 C 0.28557 0.01842 0.70653 0.0
C1553 C 0.26791 0.02396 0.69321 0.0
C1554 C 0.26032 0.01118 0.6742 0.0
C1555 C 0.27035 -0.00719 0.66853 0.0
C1556 C 0.28803 0.98721 0.68179 0.0
C1557 C 0.33783 0.93104 0.79459 0.0
C1558 C 0.33349 0.91229 0.78253 0.0
C1559 C 0.33665 0.94951 0.78142 0.0
C1560 C 0.33141 0.94964 0.7558 0.0
C1561 C 0.32613 0.93106 0.744 0.0
C1562 C 0.32714 0.91255 0.75724 0.0
C1563 C 0.3323 0.96905 0.74121 0.0
C1564 C 0.31492 0.97528 0.72755 0.0
C1565 C 0.35012 0.98168 0.74129 0.0
C1566 C 0.36972 0.97496 0.75294 0.0
C1567 C 0.37877 0.95623 0.74587 0.0
C1568 C 0.39719 0.94991 0.75693 0.0
C1569 C 0.4068 0.96225 0.77498 0.0
C1570 C 0.39803 0.98098 0.78194 0.0
C1571 C 0.3796 0.98737 0.77094 0.0
H1572 H 0.42106 0.95733 0.78352 0.0
H1573 H 0.24664 0.01549 0.66391 0.0
H1574 H 0.0516 0.33472 0.82095 0.0
H1575 H 0.01938 0.33089 0.79753 0.0
H1576 H 0.05367 0.32027 0.72934 0.0
H1577 H 0.08593 0.32391 0.75255 0.0
H1578 H 0.02408 0.35137 0.72554 0.0
H1579 H 0.02867 0.28155 0.75444 0.0
H1580 H 0.03242 0.25441 0.78634 0.0
H1581 H 0.9776 0.27521 0.82344 0.0
H1582 H 0.97368 0.30267 0.79195 0.0
H1583 H 0.93806 0.33556 0.64788 0.0
H1584 H 0.97069 0.32978 0.66957 0.0
H1585 H 0.93862 0.32738 0.74062 0.0
H1586 H 0.90589 0.33209 0.71887 0.0
H1587 H 0.96799 0.3013 0.74214 0.0
H1588 H 0.96408 0.37206 0.71804 0.0
H1589 H 0.9598 0.40124 0.68905 0.0
H1590 H 0.01247 0.38153 0.64672 0.0
H1591 H 0.0169 0.35207 0.67529 0.0
C1592 C 0.0523 0.33129 0.80104 0.0
C1593 C 0.07136 0.3297 0.78861 0.0
C1594 C 0.03387 0.32904 0.78771 0.0
C1595 C 0.03418 0.32527 0.76172 0.0
C1596 C 0.05314 0.32316 0.7494 0.0
C1597 C 0.07155 0.32519 0.76273 0.0
C1598 C 0.01478 0.32499 0.74709 0.0
C1599 C 0.01193 0.3402 0.72883 0.0
C1600 C -0.00129 0.31086 0.75207 0.0
C1601 C 0.00099 0.29429 0.77095 0.0
C1602 C 0.01751 0.28045 0.76951 0.0
C1603 C 0.01965 0.26498 0.7875 0.0
C1604 C 0.00529 0.26311 0.80694 0.0
C1605 C 0.98872 0.27668 0.80839 0.0
C1606 C 0.98652 0.29219 0.79045 0.0
C1607 C 0.93796 0.33356 0.66809 0.0
C1608 C 0.91944 0.33445 0.68169 0.0
C1609 C 0.95663 0.33037 0.68051 0.0
C1610 C 0.95723 0.32867 0.70685 0.0
C1611 C 0.93863 0.32872 0.72032 0.0
C1612 C 0.91991 0.33146 0.70786 0.0
C1613 C 0.97721 0.32773 0.72047 0.0
C1614 C 0.98016 0.31237 0.73864 0.0
C1615 C -0.00673 0.34203 0.71581 0.0
C1616 C -0.00932 0.35975 0.69864 0.0
C1617 C 0.97466 0.37387 0.70244 0.0
C1618 C 0.97222 0.39047 0.6861 0.0
C1619 C 0.98582 0.3932 0.66601 0.0
C1620 C 0.00192 0.37937 0.66226 0.0
C1621 C 0.00441 0.36273 0.67853 0.0
H1622 H 0.98391 0.40606 0.65338 0.0
H1623 H 0.00697 0.25113 0.82084 0.0
H1624 H 0.35521 0.04678 0.30521 0.0
H1625 H 0.34946 0.01424 0.28413 0.0
H1626 H 0.30555 0.04286 0.23457 0.0
H1627 H 0.31186 0.07603 0.25522 0.0
H1628 H 0.31904 -0.01064 0.27796 0.0
H1629 H 0.30792 0.01868 0.17753 0.0
H1630 H 0.31586 0.04902 0.15143 0.0
H1631 H 0.36924 0.06167 0.19653 0.0
H1632 H 0.36171 0.0313 0.22269 0.0
H1633 H 0.31516 0.89869 0.20076 0.0
H1634 H 0.30567 0.93149 0.22027 0.0
H1635 H 0.36264 0.9583 0.19404 0.0
H1636 H 0.37167 0.9261 0.17379 0.0
H1637 H 0.33383 0.98422 0.18671 0.0
H1638 H 0.35416 0.94087 0.25678 0.0
H1639 H 0.35168 0.91043 0.28417 0.0
H1640 H 0.28909 0.9256 0.3021 0.0
H1641 H 0.29116 0.95602 0.27457 0.0
C1642 C 0.34424 0.04624 0.2899 0.0
C1643 C 0.33412 0.06406 0.28175 0.0
C1644 C 0.34085 0.02752 0.27795 0.0
C1645 C 0.32714 0.02606 0.25768 0.0
C1646 C 0.31641 0.04367 0.24997 0.0
C1647 C 0.32003 0.0626 0.26176 0.0
C1648 C 0.3254 0.00626 0.24399 0.0
C1649 C 0.32203 -0.01175 0.25793 0.0
C1650 C 0.32932 0.00473 0.21789 0.0
C1651 C 0.33408 0.02292 0.20222 0.0
C1652 C 0.32135 0.02795 0.18183 0.0
C1653 C 0.32578 0.04513 0.16703 0.0
C1654 C 0.34299 0.05731 0.17239 0.0
C1655 C 0.35586 0.05228 0.19247 0.0
C1656 C 0.35152 0.0351 0.20729 0.0
C1657 C 0.32563 0.91161 0.19929 0.0
C1658 C 0.34415 0.90986 0.18577 0.0
C1659 C 0.3202 0.93033 0.21041 0.0
C1660 C 0.33346 0.94739 0.20868 0.0
C1661 C 0.35203 0.94548 0.1954 0.0
C1662 C 0.35724 0.92699 0.18395 0.0
C1663 C 0.32857 0.96728 0.22094 0.0
C1664 C 0.33038 0.98531 0.20664 0.0
C1665 C 0.32398 0.96879 0.24688 0.0
C1666 C 0.32273 0.95053 0.26339 0.0
C1667 C 0.33983 0.93762 0.26643 0.0
C1668 C 0.33851 0.92039 0.28199 0.0
C1669 C 0.32022 0.91604 0.29479 0.0
C1670 C 0.30323 0.92895 0.29212 0.0
C1671 C 0.30447 0.94619 0.27655 0.0
H1672 H 0.31922 0.9027 0.30684 0.0
H1673 H 0.34638 0.07062 0.16093 0.0
H1674 H 0.92521 0.32825 0.32651 0.0
H1675 H 0.95909 0.32335 0.30778 0.0
H1676 H 0.93214 0.3254 0.2337 0.0
H1677 H 0.89792 0.32967 0.25246 0.0
H1678 H 0.96283 0.29799 0.23525 0.0
H1679 H 0.95363 0.36833 0.2606 0.0
H1680 H 0.94575 0.39643 0.29015 0.0
H1681 H -0.00412 0.37795 0.33745 0.0
H1682 H 0.00388 0.34955 0.30832 0.0
H1683 H 0.04348 0.33981 0.16236 0.0
H1684 H 0.0122 0.33176 0.18564 0.0
H1685 H 0.04772 0.32417 0.25345 0.0
H1686 H 0.07938 0.33216 0.2301 0.0
H1687 H 0.01461 0.35095 0.25842 0.0
H1688 H 0.02632 0.28305 0.22828 0.0
H1689 H 0.03404 0.25636 0.19678 0.0
H1690 H 0.97915 0.27178 0.15619 0.0
H1691 H 0.97124 0.29878 0.18724 0.0
C1692 C 0.92644 0.32744 0.30622 0.0
C1693 C 0.90897 0.32965 0.29091 0.0
C1694 C 0.94583 0.32465 0.29556 0.0
C1695 C 0.9482 0.3245 0.26935 0.0
C1696 C 0.93065 0.32558 0.25399 0.0
C1697 C 0.91113 0.32806 0.2647 0.0
C1698 C 0.96906 0.32463 0.25807 0.0
C1699 C 0.97412 0.30963 0.24017 0.0
C1700 C 0.98395 0.33957 0.26494 0.0
C1701 C 0.9792 0.35668 0.28244 0.0
C1702 C 0.96287 0.37016 0.2774 0.0
C1703 C 0.9584 0.38616 0.29406 0.0
C1704 C 0.97026 0.38894 0.3157 0.0
C1705 C 0.98667 0.37576 0.3207 0.0
C1706 C -0.00881 0.35971 0.30412 0.0
C1707 C 0.04472 0.33625 0.18218 0.0
C1708 C 0.06389 0.33676 0.19445 0.0
C1709 C 0.02683 0.33148 0.1954 0.0
C1710 C 0.02769 0.3272 0.22118 0.0
C1711 C 0.04681 0.32732 0.23349 0.0
C1712 C 0.06484 0.33187 0.22015 0.0
C1713 C 0.00832 0.32445 0.23542 0.0
C1714 C 0.00348 0.33906 0.25382 0.0
C1715 C -0.00639 0.30932 0.22874 0.0
C1716 C -0.00174 0.29305 0.21003 0.0
C1717 C 0.01597 0.28087 0.21254 0.0
C1718 C 0.02037 0.26566 0.19477 0.0
C1719 C 0.00711 0.2624 0.17447 0.0
C1720 C -0.01059 0.27432 0.17192 0.0
C1721 C 0.98495 0.28956 0.18962 0.0
H1722 H 0.01054 0.25062 0.16074 0.0
H1723 H 0.96678 0.40134 0.32857 0.0
H1724 H 0.64388 0.89512 0.25133 0.0
H1725 H 0.64781 0.92772 0.22877 0.0
H1726 H 0.64641 0.96053 0.29933 0.0
H1727 H 0.64184 0.92829 0.32172 0.0
H1728 H 0.62086 0.97715 0.26862 0.0
H1729 H 0.69109 0.95577 0.26311 0.0
H1730 H 0.71979 0.93243 0.2533 0.0
H1731 H 0.7028 0.93272 0.1753 0.0
H1732 H 0.67381 0.95586 0.1847 0.0
H1733 H 0.64352 0.07534 0.21728 0.0
H1734 H 0.64891 0.04349 0.24089 0.0
H1735 H 0.64026 0.00824 0.17297 0.0
H1736 H 0.63479 0.03981 0.14935 0.0
H1737 H 0.6727 -0.00623 0.20317 0.0
H1738 H 0.60122 0.01372 0.21024 0.0
H1739 H 0.57275 0.03715 0.22075 0.0
H1740 H 0.59317 0.03966 0.29746 0.0
H1741 H 0.62199 0.01653 0.28729 0.0
C1742 C 0.64467 0.90929 0.26197 0.0
C1743 C 0.64233 0.90919 0.28823 0.0
C1744 C 0.64701 0.92789 0.24911 0.0
C1745 C 0.64745 0.94659 0.26238 0.0
C1746 C 0.64596 0.94634 0.28867 0.0
C1747 C 0.64334 0.92788 0.30144 0.0
C1748 C 0.6479 0.96656 0.24901 0.0
C1749 C 0.63246 0.98088 0.25466 0.0
C1750 C 0.66273 0.9713 0.23038 0.0
C1751 C 0.68015 0.95739 0.22466 0.0
C1752 C 0.69336 0.95073 0.2439 0.0
C1753 C 0.70971 0.93756 0.2384 0.0
C1754 C 0.71308 0.93106 0.2137 0.0
C1755 C 0.70015 0.93775 0.19443 0.0
C1756 C 0.68378 0.95091 0.19983 0.0
C1757 C 0.643 0.06082 0.20736 0.0
C1758 C 0.63851 0.06006 0.18153 0.0
C1759 C 0.64606 0.04267 0.22084 0.0
C1760 C 0.64485 0.02357 0.20863 0.0
C1761 C 0.64128 0.02285 0.18269 0.0
C1762 C 0.63801 0.0409 0.16929 0.0
C1763 C 0.64581 0.00422 0.22304 0.0
C1764 C 0.66135 -0.00998 0.21743 0.0
C1765 C 0.63117 -0.00041 0.24187 0.0
C1766 C 0.6139 0.01359 0.24794 0.0
C1767 C 0.59976 0.01944 0.22929 0.0
C1768 C 0.58353 0.03263 0.2352 0.0
C1769 C 0.58117 0.03991 0.25975 0.0
C1770 C 0.59504 0.03403 0.27844 0.0
C1771 C 0.61132 0.02089 0.27262 0.0
H1772 H 0.56856 0.05005 0.26433 0.0
H1773 H 0.72575 0.92087 0.20949 0.0
H1774 H 0.04738 0.65176 0.32707 0.0
H1775 H 0.01389 0.65724 0.30762 0.0
H1776 H 0.04171 0.65303 0.2341 0.0
H1777 H 0.07556 0.6483 0.25358 0.0
H1778 H 0.01175 0.68098 0.23412 0.0
H1779 H 0.01882 0.61105 0.26245 0.0
H1780 H 0.02547 0.58375 0.29343 0.0
H1781 H 0.97506 0.60505 0.33861 0.0
H1782 H 0.96829 0.63266 0.30803 0.0
H1783 H 0.93312 0.63806 0.15964 0.0
H1784 H 0.96357 0.64677 0.18407 0.0
H1785 H 0.92589 0.65586 0.24992 0.0
H1786 H 0.89504 0.64712 0.22542 0.0
H1787 H 0.95854 0.62959 0.25763 0.0
H1788 H 0.94855 0.69651 0.22407 0.0
H1789 H 0.94205 0.72229 0.19118 0.0
H1790 H -0.00207 0.70516 0.15362 0.0
H1791 H 0.00463 0.67905 0.18608 0.0
C1792 C 0.04641 0.65223 0.30675 0.0
C1793 C 0.06401 0.64928 0.29179 0.0
C1794 C 0.02726 0.65535 0.29567 0.0
C1795 C 0.02522 0.65504 0.26943 0.0
C1796 C 0.04293 0.65322 0.25441 0.0
C1797 C 0.06223 0.65046 0.26552 0.0
C1798 C 0.00453 0.65512 0.25775 0.0
C1799 C 0.00014 0.66969 0.23913 0.0
C1800 C 0.9892 0.64068 0.26476 0.0
C1801 C -0.0068 0.62405 0.28311 0.0
C1802 C 0.00925 0.60999 0.27908 0.0
C1803 C 0.01303 0.59446 0.29656 0.0
C1804 C 0.00073 0.5927 0.31802 0.0
C1805 C 0.9846 0.60645 0.32201 0.0
C1806 C 0.98078 0.62204 0.30461 0.0
C1807 C 0.93121 0.64208 0.17927 0.0
C1808 C 0.91167 0.64175 0.19067 0.0
C1809 C 0.94864 0.64724 0.19314 0.0
C1810 C 0.94694 0.65216 0.21871 0.0
C1811 C 0.92745 0.65224 0.23013 0.0
C1812 C 0.90988 0.64725 0.21614 0.0
C1813 C 0.96585 0.65525 0.23373 0.0
C1814 C 0.96996 0.64117 0.25294 0.0
C1815 C 0.98095 0.66996 0.22702 0.0
C1816 C 0.97703 0.68572 0.20747 0.0
C1817 C 0.95938 0.69813 0.2087 0.0
C1818 C 0.95567 0.71282 0.19015 0.0
C1819 C 0.96955 0.71534 0.1703 0.0
C1820 C 0.98719 0.70319 0.169 0.0
C1821 C -0.00903 0.68846 0.1875 0.0
H1822 H 0.96664 0.72672 0.15595 0.0
H1823 H 0.00368 0.58066 0.33152 0.0
loop_
_geom_bond_atom_site_label_1
_geom_bond_atom_site_label_2
_geom_bond_distance
_geom_bond_site_symmetry_2
_ccdc_geom_bond_type
C0 O1 1.306 . S
C0 O3 1.160 . S
O1 C0 1.306 . S
O1 Cd2 2.228 . S
Cd2 O1 2.228 . S
Cd2 O6 2.273 . S
Cd2 O10 2.277 . S
O3 C0 1.160 . S
O3 Cd4 2.203 . S
Cd4 O3 2.203 . S
Cd4 O6 2.411 . S
Cd4 O7 2.333 . S
Cd4 O8 2.352 . S
Cd4 O12 2.277 . S
Cd4 O13 2.356 . S
C5 O10 1.209 . S
C5 O12 1.226 . S
O6 Cd2 2.273 . S
O6 Cd4 2.411 . S
O6 C9 1.320 . S
O7 Cd4 2.333 . S
O7 C9 1.214 . S
O8 Cd4 2.352 . S
O8 C11 1.258 . S
C9 O6 1.320 . S
C9 O7 1.214 . S
O10 Cd2 2.277 . S
O10 C5 1.209 . S
C11 O8 1.258 . S
C11 O13 1.282 . S
O12 Cd4 2.277 . S
O12 C5 1.226 . S
O13 Cd4 2.356 . S
O13 C11 1.282 . S
C14 O15 1.306 . S
C14 O17 1.160 . S
O15 C14 1.306 . S
O15 Cd16 2.228 . S
Cd16 O15 2.228 . S
Cd16 O20 2.273 . S
Cd16 O24 2.277 . S
O17 C14 1.160 . S
O17 Cd18 2.203 . S
Cd18 O17 2.203 . S
Cd18 O20 2.411 . S
Cd18 O21 2.333 . S
Cd18 O22 2.352 . S
Cd18 O26 2.277 . S
Cd18 O27 2.356 . S
C19 O24 1.209 . S
C19 O26 1.226 . S
O20 Cd16 2.273 . S
O20 Cd18 2.411 . S
O20 C23 1.320 . S
O21 Cd18 2.333 . S
O21 C23 1.214 . S
O22 Cd18 2.352 . S
O22 C25 1.258 . S
C23 O20 1.320 . S
C23 O21 1.214 . S
O24 Cd16 2.277 . S
O24 C19 1.209 . S
C25 O22 1.258 . S
C25 O27 1.282 . S
O26 Cd18 2.277 . S
O26 C19 1.226 . S
O27 Cd18 2.356 . S
O27 C25 1.282 . S
C28 O29 1.306 . S
C28 O31 1.160 . S
O29 C28 1.306 . S
O29 Cd30 2.228 . S
Cd30 O29 2.228 . S
Cd30 O34 2.273 . S
Cd30 O38 2.277 . S
O31 C28 1.160 . S
O31 Cd32 2.203 . S
Cd32 O31 2.203 . S
Cd32 O34 2.411 . S
Cd32 O35 2.333 . S
Cd32 O36 2.352 . S
Cd32 O40 2.277 . S
Cd32 O41 2.356 . S
C33 O38 1.209 . S
C33 O40 1.226 . S
O34 Cd30 2.273 . S
O34 Cd32 2.411 . S
O34 C37 1.320 . S
O35 Cd32 2.333 . S
O35 C37 1.214 . S
O36 Cd32 2.352 . S
O36 C39 1.258 . S
C37 O34 1.320 . S
C37 O35 1.214 . S
O38 Cd30 2.277 . S
O38 C33 1.209 . S
C39 O36 1.258 . S
C39 O41 1.282 . S
O40 Cd32 2.277 . S
O40 C33 1.226 . S
O41 Cd32 2.356 . S
O41 C39 1.282 . S
C42 O43 1.306 . S
C42 O45 1.160 . S
O43 C42 1.306 . S
O43 Cd44 2.228 . S
Cd44 O43 2.228 . S
Cd44 O48 2.273 . S
Cd44 O52 2.277 . S
O45 C42 1.160 . S
O45 Cd46 2.203 . S
Cd46 O45 2.203 . S
Cd46 O48 2.411 . S
Cd46 O49 2.333 . S
Cd46 O50 2.352 . S
Cd46 O54 2.277 . S
Cd46 O55 2.356 . S
C47 O52 1.209 . S
C47 O54 1.226 . S
O48 Cd44 2.273 . S
O48 Cd46 2.411 . S
O48 C51 1.320 . S
O49 Cd46 2.333 . S
O49 C51 1.214 . S
O50 Cd46 2.352 . S
O50 C53 1.258 . S
C51 O48 1.320 . S
C51 O49 1.214 . S
O52 Cd44 2.277 . S
O52 C47 1.209 . S
C53 O50 1.258 . S
C53 O55 1.282 . S
O54 Cd46 2.277 . S
O54 C47 1.226 . S
O55 Cd46 2.356 . S
O55 C53 1.282 . S
C56 O57 1.306 . S
C56 O59 1.160 . S
O57 C56 1.306 . S
O57 Cd58 2.228 . S
Cd58 O57 2.228 . S
Cd58 O62 2.273 . S
Cd58 O66 2.277 . S
O59 C56 1.160 . S
O59 Cd60 2.203 . S
Cd60 O59 2.203 . S
Cd60 O62 2.411 . S
Cd60 O63 2.333 . S
Cd60 O64 2.352 . S
Cd60 O68 2.277 . S
Cd60 O69 2.356 . S
C61 O66 1.209 . S
C61 O68 1.226 . S
O62 Cd58 2.273 . S
O62 Cd60 2.411 . S
O62 C65 1.320 . S
O63 Cd60 2.333 . S
O63 C65 1.214 . S
O64 Cd60 2.352 . S
O64 C67 1.258 . S
C65 O62 1.320 . S
C65 O63 1.214 . S
O66 Cd58 2.277 . S
O66 C61 1.209 . S
C67 O64 1.258 . S
C67 O69 1.282 . S
O68 Cd60 2.277 . S
O68 C61 1.226 . S
O69 Cd60 2.356 . S
O69 C67 1.282 . S
C70 O71 1.306 . S
C70 O73 1.160 . S
O71 C70 1.306 . S
O71 Cd72 2.228 . S
Cd72 O71 2.228 . S
Cd72 O76 2.273 . S
Cd72 O80 2.277 . S
O73 C70 1.160 . S
O73 Cd74 2.203 . S
Cd74 O73 2.203 . S
Cd74 O76 2.411 . S
Cd74 O77 2.333 . S
Cd74 O78 2.352 . S
Cd74 O82 2.277 . S
Cd74 O83 2.356 . S
C75 O80 1.209 . S
C75 O82 1.226 . S
O76 Cd72 2.273 . S
O76 Cd74 2.411 . S
O76 C79 1.320 . S
O77 Cd74 2.333 . S
O77 C79 1.214 . S
O78 Cd74 2.352 . S
O78 C81 1.258 . S
C79 O76 1.320 . S
C79 O77 1.214 . S
O80 Cd72 2.277 . S
O80 C75 1.209 . S
C81 O78 1.258 . S
C81 O83 1.282 . S
O82 Cd74 2.277 . S
O82 C75 1.226 . S
O83 Cd74 2.356 . S
O83 C81 1.282 . S
C84 O85 1.306 . S
C84 O87 1.160 . S
O85 C84 1.306 . S
O85 Cd86 2.228 . S
Cd86 O85 2.228 . S
Cd86 O90 2.273 . S
Cd86 O94 2.277 . S
O87 C84 1.160 . S
O87 Cd88 2.203 . S
Cd88 O87 2.203 . S
Cd88 O90 2.411 . S
Cd88 O91 2.333 . S
Cd88 O92 2.352 . S
Cd88 O96 2.277 . S
Cd88 O97 2.356 . S
C89 O94 1.209 . S
C89 O96 1.226 . S
O90 Cd86 2.273 . S
O90 Cd88 2.411 . S
O90 C93 1.320 . S
O91 Cd88 2.333 . S
O91 C93 1.214 . S
O92 Cd88 2.352 . S
O92 C95 1.258 . S
C93 O90 1.320 . S
C93 O91 1.214 . S
O94 Cd86 2.277 . S
O94 C89 1.209 . S
C95 O92 1.258 . S
C95 O97 1.282 . S
O96 Cd88 2.277 . S
O96 C89 1.226 . S
O97 Cd88 2.356 . S
O97 C95 1.282 . S
C98 O99 1.306 . S
C98 O101 1.160 . S
O99 C98 1.306 . S
O99 Cd100 2.228 . S
Cd100 O99 2.228 . S
Cd100 O104 2.273 . S
Cd100 O108 2.277 . S
O101 C98 1.160 . S
O101 Cd102 2.203 . S
Cd102 O101 2.203 . S
Cd102 O104 2.411 . S
Cd102 O105 2.333 . S
Cd102 O106 2.352 . S
Cd102 O110 2.277 . S
Cd102 O111 2.356 . S
C103 O108 1.209 . S
C103 O110 1.226 . S
O104 Cd100 2.273 . S
O104 Cd102 2.411 . S
O104 C107 1.320 . S
O105 Cd102 2.333 . S
O105 C107 1.214 . S
O106 Cd102 2.352 . S
O106 C109 1.258 . S
C107 O104 1.320 . S
C107 O105 1.214 . S
O108 Cd100 2.277 . S
O108 C103 1.209 . S
C109 O106 1.258 . S
C109 O111 1.282 . S
O110 Cd102 2.277 . S
O110 C103 1.226 . S
O111 Cd102 2.356 . S
O111 C109 1.282 . S
C112 O113 1.306 . S
C112 O115 1.160 . S
O113 C112 1.306 . S
O113 Cd114 2.228 . S
Cd114 O113 2.228 . S
Cd114 O118 2.273 . S
Cd114 O122 2.277 . S
O115 C112 1.160 . S
O115 Cd116 2.203 . S
Cd116 O115 2.203 . S
Cd116 O118 2.411 . S
Cd116 O119 2.333 . S
Cd116 O120 2.352 . S
Cd116 O124 2.277 . S
Cd116 O125 2.356 . S
C117 O122 1.209 . S
C117 O124 1.226 . S
O118 Cd114 2.273 . S
O118 Cd116 2.411 . S
O118 C121 1.320 . S
O119 Cd116 2.333 . S
O119 C121 1.214 . S
O120 Cd116 2.352 . S
O120 C123 1.258 . S
C121 O118 1.320 . S
C121 O119 1.214 . S
O122 Cd114 2.277 . S
O122 C117 1.209 . S
C123 O120 1.258 . S
C123 O125 1.282 . S
O124 Cd116 2.277 . S
O124 C117 1.226 . S
O125 Cd116 2.356 . S
O125 C123 1.282 . S
C126 O127 1.306 . S
C126 O129 1.160 . S
O127 C126 1.306 . S
O127 Cd128 2.228 . S
Cd128 O127 2.228 . S
Cd128 O132 2.273 . S
Cd128 O136 2.277 . S
O129 C126 1.160 . S
O129 Cd130 2.203 . S
Cd130 O129 2.203 . S
Cd130 O132 2.411 . S
Cd130 O133 2.333 . S
Cd130 O134 2.352 . S
Cd130 O138 2.277 . S
Cd130 O139 2.356 . S
C131 O136 1.209 . S
C131 O138 1.226 . S
O132 Cd128 2.273 . S
O132 Cd130 2.411 . S
O132 C135 1.320 . S
O133 Cd130 2.333 . S
O133 C135 1.214 . S
O134 Cd130 2.352 . S
O134 C137 1.258 . S
C135 O132 1.320 . S
C135 O133 1.214 . S
O136 Cd128 2.277 . S
O136 C131 1.209 . S
C137 O134 1.258 . S
C137 O139 1.282 . S
O138 Cd130 2.277 . S
O138 C131 1.226 . S
O139 Cd130 2.356 . S
O139 C137 1.282 . S
C140 O141 1.306 . S
C140 O143 1.160 . S
O141 C140 1.306 . S
O141 Cd142 2.228 . S
Cd142 O141 2.228 . S
Cd142 O146 2.273 . S
Cd142 O150 2.277 . S
O143 C140 1.160 . S
O143 Cd144 2.203 . S
Cd144 O143 2.203 . S
Cd144 O146 2.411 . S
Cd144 O147 2.333 . S
Cd144 O148 2.352 . S
Cd144 O152 2.277 . S
Cd144 O153 2.356 . S
C145 O150 1.209 . S
C145 O152 1.226 . S
O146 Cd142 2.273 . S
O146 Cd144 2.411 . S
O146 C149 1.320 . S
O147 Cd144 2.333 . S
O147 C149 1.214 . S
O148 Cd144 2.352 . S
O148 C151 1.258 . S
C149 O146 1.320 . S
C149 O147 1.214 . S
O150 Cd142 2.277 . S
O150 C145 1.209 . S
C151 O148 1.258 . S
C151 O153 1.282 . S
O152 Cd144 2.277 . S
O152 C145 1.226 . S
O153 Cd144 2.356 . S
O153 C151 1.282 . S
C154 O155 1.306 . S
C154 O157 1.160 . S
O155 C154 1.306 . S
O155 Cd156 2.228 . S
Cd156 O155 2.228 . S
Cd156 O160 2.273 . S
Cd156 O164 2.277 . S
O157 C154 1.160 . S
O157 Cd158 2.203 . S
Cd158 O157 2.203 . S
Cd158 O160 2.411 . S
Cd158 O161 2.333 . S
Cd158 O162 2.352 . S
Cd158 O166 2.277 . S
Cd158 O167 2.356 . S
C159 O164 1.209 . S
C159 O166 1.226 . S
O160 Cd156 2.273 . S
O160 Cd158 2.411 . S
O160 C163 1.320 . S
O161 Cd158 2.333 . S
O161 C163 1.214 . S
O162 Cd158 2.352 . S
O162 C165 1.258 . S
C163 O160 1.320 . S
C163 O161 1.214 . S
O164 Cd156 2.277 . S
O164 C159 1.209 . S
C165 O162 1.258 . S
C165 O167 1.282 . S
O166 Cd158 2.277 . S
O166 C159 1.226 . S
O167 Cd158 2.356 . S
O167 C165 1.282 . S
C168 O169 1.306 . S
C168 O171 1.160 . S
O169 C168 1.306 . S
O169 Cd170 2.228 . S
Cd170 O169 2.228 . S
Cd170 O174 2.273 . S
Cd170 O178 2.277 . S
O171 C168 1.160 . S
O171 Cd172 2.203 . S
Cd172 O171 2.203 . S
Cd172 O174 2.411 . S
Cd172 O175 2.333 . S
Cd172 O176 2.352 . S
Cd172 O180 2.277 . S
Cd172 O181 2.356 . S
C173 O178 1.209 . S
C173 O180 1.226 . S
O174 Cd170 2.273 . S
O174 Cd172 2.411 . S
O174 C177 1.320 . S
O175 Cd172 2.333 . S
O175 C177 1.214 . S
O176 Cd172 2.352 . S
O176 C179 1.258 . S
C177 O174 1.320 . S
C177 O175 1.214 . S
O178 Cd170 2.277 . S
O178 C173 1.209 . S
C179 O176 1.258 . S
C179 O181 1.282 . S
O180 Cd172 2.277 . S
O180 C173 1.226 . S
O181 Cd172 2.356 . S
O181 C179 1.282 . S
C182 O183 1.306 . S
C182 O185 1.160 . S
O183 C182 1.306 . S
O183 Cd184 2.228 . S
Cd184 O183 2.228 . S
Cd184 O188 2.273 . S
Cd184 O192 2.277 . S
O185 C182 1.160 . S
O185 Cd186 2.203 . S
Cd186 O185 2.203 . S
Cd186 O188 2.411 . S
Cd186 O189 2.333 . S
Cd186 O190 2.352 . S
Cd186 O194 2.277 . S
Cd186 O195 2.356 . S
C187 O192 1.209 . S
C187 O194 1.226 . S
O188 Cd184 2.273 . S
O188 Cd186 2.411 . S
O188 C191 1.320 . S
O189 Cd186 2.333 . S
O189 C191 1.214 . S
O190 Cd186 2.352 . S
O190 C193 1.258 . S
C191 O188 1.320 . S
C191 O189 1.214 . S
O192 Cd184 2.277 . S
O192 C187 1.209 . S
C193 O190 1.258 . S
C193 O195 1.282 . S
O194 Cd186 2.277 . S
O194 C187 1.226 . S
O195 Cd186 2.356 . S
O195 C193 1.282 . S
C196 O197 1.306 . S
C196 O199 1.160 . S
O197 C196 1.306 . S
O197 Cd198 2.228 . S
Cd198 O197 2.228 . S
Cd198 O202 2.273 . S
Cd198 O206 2.277 . S
O199 C196 1.160 . S
O199 Cd200 2.203 . S
Cd200 O199 2.203 . S
Cd200 O202 2.411 . S
Cd200 O203 2.333 . S
Cd200 O204 2.352 . S
Cd200 O208 2.277 . S
Cd200 O209 2.356 . S
C201 O206 1.209 . S
C201 O208 1.226 . S
O202 Cd198 2.273 . S
O202 Cd200 2.411 . S
O202 C205 1.320 . S
O203 Cd200 2.333 . S
O203 C205 1.214 . S
O204 Cd200 2.352 . S
O204 C207 1.258 . S
C205 O202 1.320 . S
C205 O203 1.214 . S
O206 Cd198 2.277 . S
O206 C201 1.209 . S
C207 O204 1.258 . S
C207 O209 1.282 . S
O208 Cd200 2.277 . S
O208 C201 1.226 . S
O209 Cd200 2.356 . S
O209 C207 1.282 . S
C210 O211 1.306 . S
C210 O213 1.160 . S
O211 C210 1.306 . S
O211 Cd212 2.228 . S
Cd212 O211 2.228 . S
Cd212 O216 2.273 . S
Cd212 O220 2.277 . S
O213 C210 1.160 . S
O213 Cd214 2.203 . S
Cd214 O213 2.203 . S
Cd214 O216 2.411 . S
Cd214 O217 2.333 . S
Cd214 O218 2.352 . S
Cd214 O222 2.277 . S
Cd214 O223 2.356 . S
C215 O220 1.209 . S
C215 O222 1.226 . S
O216 Cd212 2.273 . S
O216 Cd214 2.411 . S
O216 C219 1.320 . S
O217 Cd214 2.333 . S
O217 C219 1.214 . S
O218 Cd214 2.352 . S
O218 C221 1.258 . S
C219 O216 1.320 . S
C219 O217 1.214 . S
O220 Cd212 2.277 . S
O220 C215 1.209 . S
C221 O218 1.258 . S
C221 O223 1.282 . S
O222 Cd214 2.277 . S
O222 C215 1.226 . S
O223 Cd214 2.356 . S
O223 C221 1.282 . S
H224 C242 0.951 . S
H225 C244 0.951 . S
H226 C246 0.950 . S
H227 C247 0.950 . S
H228 C249 0.950 . S
H229 C252 0.950 . S
H230 C253 0.950 . S
H231 C255 0.950 . S
H232 C256 0.950 . S
H233 C257 0.951 . S
H234 C259 0.951 . S
H235 C261 0.950 . S
H236 C262 0.950 . S
H237 C264 0.950 . S
H238 C267 0.950 . S
H239 C268 0.950 . S
H240 C270 0.950 . S
H241 C271 0.950 . S
C242 H224 0.951 . S
C242 C243 1.366 . S
C242 C244 1.388 . S
C243 C242 1.366 . S
C243 C247 1.385 . S
C244 H225 0.951 . S
C244 C242 1.388 . S
C244 C245 1.366 . S
C245 C244 1.366 . S
C245 C246 1.414 . S
C245 C248 1.499 . S
C246 H226 0.950 . S
C246 C245 1.414 . S
C246 C247 1.374 . S
C247 H227 0.950 . S
C247 C243 1.385 . S
C247 C246 1.374 . S
C248 C245 1.499 . S
C248 C249 1.373 . S
C248 C250 1.389 . S
C249 H228 0.950 . S
C249 C248 1.373 . S
C249 C265 1.377 . S
C250 C248 1.389 . S
C250 C251 1.524 . S
C250 C264 1.377 . S
C251 C250 1.524 . S
C251 C252 1.397 . S
C251 C256 1.363 . S
C252 H229 0.950 . S
C252 C251 1.397 . S
C252 C253 1.334 . S
C253 H230 0.950 . S
C253 C252 1.334 . S
C253 C254 1.287 . S
C254 C253 1.287 . S
C254 C255 1.524 . S
C254 H273 0.913 . S
C255 H231 0.950 . S
C255 C254 1.524 . S
C255 C256 1.415 . S
C256 H232 0.950 . S
C256 C251 1.363 . S
C256 C255 1.415 . S
C257 H233 0.951 . S
C257 C258 1.366 . S
C257 C259 1.388 . S
C258 C257 1.366 . S
C258 C262 1.385 . S
C259 H234 0.951 . S
C259 C257 1.388 . S
C259 C260 1.366 . S
C260 C259 1.366 . S
C260 C261 1.414 . S
C260 C263 1.499 . S
C261 H235 0.950 . S
C261 C260 1.414 . S
C261 C262 1.374 . S
C262 H236 0.950 . S
C262 C258 1.385 . S
C262 C261 1.374 . S
C263 C260 1.499 . S
C263 C264 1.373 . S
C263 C265 1.389 . S
C264 H237 0.950 . S
C264 C250 1.377 . S
C264 C263 1.373 . S
C265 C249 1.377 . S
C265 C263 1.389 . S
C265 C266 1.524 . S
C266 C265 1.524 . S
C266 C267 1.397 . S
C266 C271 1.363 . S
C267 H238 0.950 . S
C267 C266 1.397 . S
C267 C268 1.334 . S
C268 H239 0.950 . S
C268 C267 1.334 . S
C268 C269 1.287 . S
C269 C268 1.287 . S
C269 C270 1.524 . S
C269 H272 0.999 . S
C270 H240 0.950 . S
C270 C269 1.524 . S
C270 C271 1.415 . S
C271 H241 0.950 . S
C271 C266 1.363 . S
C271 C270 1.415 . S
H272 C269 0.999 . S
H273 C254 0.913 . S
H274 C292 0.951 . S
H275 C294 0.951 . S
H276 C296 0.950 . S
H277 C297 0.950 . S
H278 C299 0.950 . S
H279 C302 0.950 . S
H280 C303 0.950 . S
H281 C305 0.950 . S
H282 C306 0.950 . S
H283 C307 0.951 . S
H284 C309 0.951 . S
H285 C311 0.950 . S
H286 C312 0.950 . S
H287 C314 0.950 . S
H288 C317 0.950 . S
H289 C318 0.950 . S
H290 C320 0.950 . S
H291 C321 0.950 . S
C292 H274 0.951 . S
C292 C293 1.366 . S
C292 C294 1.388 . S
C293 C292 1.366 . S
C293 C297 1.385 . S
C294 H275 0.951 . S
C294 C292 1.388 . S
C294 C295 1.366 . S
C295 C294 1.366 . S
C295 C296 1.414 . S
C295 C298 1.499 . S
C296 H276 0.950 . S
C296 C295 1.414 . S
C296 C297 1.374 . S
C297 H277 0.950 . S
C297 C293 1.385 . S
C297 C296 1.374 . S
C298 C295 1.499 . S
C298 C299 1.373 . S
C298 C300 1.389 . S
C299 H278 0.950 . S
C299 C298 1.373 . S
C299 C315 1.377 . S
C300 C298 1.389 . S
C300 C301 1.524 . S
C300 C314 1.377 . S
C301 C300 1.524 . S
C301 C302 1.397 . S
C301 C306 1.363 . S
C302 H279 0.950 . S
C302 C301 1.397 . S
C302 C303 1.334 . S
C303 H280 0.950 . S
C303 C302 1.334 . S
C303 C304 1.287 . S
C304 C303 1.287 . S
C304 C305 1.524 . S
C304 H323 0.913 . S
C305 H281 0.950 . S
C305 C304 1.524 . S
C305 C306 1.415 . S
C306 H282 0.950 . S
C306 C301 1.363 . S
C306 C305 1.415 . S
C307 H283 0.951 . S
C307 C308 1.366 . S
C307 C309 1.388 . S
C308 C307 1.366 . S
C308 C312 1.385 . S
C309 H284 0.951 . S
C309 C307 1.388 . S
C309 C310 1.366 . S
C310 C309 1.366 . S
C310 C311 1.414 . S
C310 C313 1.499 . S
C311 H285 0.950 . S
C311 C310 1.414 . S
C311 C312 1.374 . S
C312 H286 0.950 . S
C312 C308 1.385 . S
C312 C311 1.374 . S
C313 C310 1.499 . S
C313 C314 1.373 . S
C313 C315 1.389 . S
C314 H287 0.950 . S
C314 C300 1.377 . S
C314 C313 1.373 . S
C315 C299 1.377 . S
C315 C313 1.389 . S
C315 C316 1.524 . S
C316 C315 1.524 . S
C316 C317 1.397 . S
C316 C321 1.363 . S
C317 H288 0.950 . S
C317 C316 1.397 . S
C317 C318 1.334 . S
C318 H289 0.950 . S
C318 C317 1.334 . S
C318 C319 1.287 . S
C319 C318 1.287 . S
C319 C320 1.524 . S
C319 H322 0.999 . S
C320 H290 0.950 . S
C320 C319 1.524 . S
C320 C321 1.415 . S
C321 H291 0.950 . S
C321 C316 1.363 . S
C321 C320 1.415 . S
H322 C319 0.999 . S
H323 C304 0.913 . S
H324 C342 0.951 . S
H325 C344 0.951 . S
H326 C346 0.950 . S
H327 C347 0.950 . S
H328 C349 0.950 . S
H329 C352 0.950 . S
H330 C353 0.950 . S
H331 C355 0.950 . S
H332 C356 0.950 . S
H333 C357 0.951 . S
H334 C359 0.951 . S
H335 C361 0.950 . S
H336 C362 0.950 . S
H337 C364 0.950 . S
H338 C367 0.950 . S
H339 C368 0.950 . S
H340 C370 0.950 . S
H341 C371 0.950 . S
C342 H324 0.951 . S
C342 C343 1.366 . S
C342 C344 1.388 . S
C343 C342 1.366 . S
C343 C347 1.385 . S
C344 H325 0.951 . S
C344 C342 1.388 . S
C344 C345 1.366 . S
C345 C344 1.366 . S
C345 C346 1.414 . S
C345 C348 1.499 . S
C346 H326 0.950 . S
C346 C345 1.414 . S
C346 C347 1.374 . S
C347 H327 0.950 . S
C347 C343 1.385 . S
C347 C346 1.374 . S
C348 C345 1.499 . S
C348 C349 1.373 . S
C348 C350 1.389 . S
C349 H328 0.950 . S
C349 C348 1.373 . S
C349 C365 1.377 . S
C350 C348 1.389 . S
C350 C351 1.524 . S
C350 C364 1.377 . S
C351 C350 1.524 . S
C351 C352 1.397 . S
C351 C356 1.363 . S
C352 H329 0.950 . S
C352 C351 1.397 . S
C352 C353 1.334 . S
C353 H330 0.950 . S
C353 C352 1.334 . S
C353 C354 1.287 . S
C354 C353 1.287 . S
C354 C355 1.524 . S
C354 H373 0.913 . S
C355 H331 0.950 . S
C355 C354 1.524 . S
C355 C356 1.415 . S
C356 H332 0.950 . S
C356 C351 1.363 . S
C356 C355 1.415 . S
C357 H333 0.951 . S
C357 C358 1.366 . S
C357 C359 1.388 . S
C358 C357 1.366 . S
C358 C362 1.385 . S
C359 H334 0.951 . S
C359 C357 1.388 . S
C359 C360 1.366 . S
C360 C359 1.366 . S
C360 C361 1.414 . S
C360 C363 1.499 . S
C361 H335 0.950 . S
C361 C360 1.414 . S
C361 C362 1.374 . S
C362 H336 0.950 . S
C362 C358 1.385 . S
C362 C361 1.374 . S
C363 C360 1.499 . S
C363 C364 1.373 . S
C363 C365 1.389 . S
C364 H337 0.950 . S
C364 C350 1.377 . S
C364 C363 1.373 . S
C365 C349 1.377 . S
C365 C363 1.389 . S
C365 C366 1.524 . S
C366 C365 1.524 . S
C366 C367 1.397 . S
C366 C371 1.363 . S
C367 H338 0.950 . S
C367 C366 1.397 . S
C367 C368 1.334 . S
C368 H339 0.950 . S
C368 C367 1.334 . S
C368 C369 1.287 . S
C369 C368 1.287 . S
C369 C370 1.524 . S
C369 H372 0.999 . S
C370 H340 0.950 . S
C370 C369 1.524 . S
C370 C371 1.415 . S
C371 H341 0.950 . S
C371 C366 1.363 . S
C371 C370 1.415 . S
H372 C369 0.999 . S
H373 C354 0.913 . S
H374 C392 0.951 . S
H375 C394 0.951 . S
H376 C396 0.950 . S
H377 C397 0.950 . S
H378 C399 0.950 . S
H379 C402 0.950 . S
H380 C403 0.950 . S
H381 C405 0.950 . S
H382 C406 0.950 . S
H383 C407 0.951 . S
H384 C409 0.951 . S
H385 C411 0.950 . S
H386 C412 0.950 . S
H387 C414 0.950 . S
H388 C417 0.950 . S
H389 C418 0.950 . S
H390 C420 0.950 . S
H391 C421 0.950 . S
C392 H374 0.951 . S
C392 C393 1.366 . S
C392 C394 1.388 . S
C393 C392 1.366 . S
C393 C397 1.385 . S
C394 H375 0.951 . S
C394 C392 1.388 . S
C394 C395 1.366 . S
C395 C394 1.366 . S
C395 C396 1.414 . S
C395 C398 1.499 . S
C396 H376 0.950 . S
C396 C395 1.414 . S
C396 C397 1.374 . S
C397 H377 0.950 . S
C397 C393 1.385 . S
C397 C396 1.374 . S
C398 C395 1.499 . S
C398 C399 1.373 . S
C398 C400 1.389 . S
C399 H378 0.950 . S
C399 C398 1.373 . S
C399 C415 1.377 . S
C400 C398 1.389 . S
C400 C401 1.524 . S
C400 C414 1.377 . S
C401 C400 1.524 . S
C401 C402 1.397 . S
C401 C406 1.363 . S
C402 H379 0.950 . S
C402 C401 1.397 . S
C402 C403 1.334 . S
C403 H380 0.950 . S
C403 C402 1.334 . S
C403 C404 1.287 . S
C404 C403 1.287 . S
C404 C405 1.524 . S
C404 H423 0.913 . S
C405 H381 0.950 . S
C405 C404 1.524 . S
C405 C406 1.415 . S
C406 H382 0.950 . S
C406 C401 1.363 . S
C406 C405 1.415 . S
C407 H383 0.951 . S
C407 C408 1.366 . S
C407 C409 1.388 . S
C408 C407 1.366 . S
C408 C412 1.385 . S
C409 H384 0.951 . S
C409 C407 1.388 . S
C409 C410 1.366 . S
C410 C409 1.366 . S
C410 C411 1.414 . S
C410 C413 1.499 . S
C411 H385 0.950 . S
C411 C410 1.414 . S
C411 C412 1.374 . S
C412 H386 0.950 . S
C412 C408 1.385 . S
C412 C411 1.374 . S
C413 C410 1.499 . S
C413 C414 1.373 . S
C413 C415 1.389 . S
C414 H387 0.950 . S
C414 C400 1.377 . S
C414 C413 1.373 . S
C415 C399 1.377 . S
C415 C413 1.389 . S
C415 C416 1.524 . S
C416 C415 1.524 . S
C416 C417 1.397 . S
C416 C421 1.363 . S
C417 H388 0.950 . S
C417 C416 1.397 . S
C417 C418 1.334 . S
C418 H389 0.950 . S
C418 C417 1.334 . S
C418 C419 1.287 . S
C419 C418 1.287 . S
C419 C420 1.524 . S
C419 H422 0.999 . S
C420 H390 0.950 . S
C420 C419 1.524 . S
C420 C421 1.415 . S
C421 H391 0.950 . S
C421 C416 1.363 . S
C421 C420 1.415 . S
H422 C419 0.999 . S
H423 C404 0.913 . S
H424 C442 0.951 . S
H425 C444 0.951 . S
H426 C446 0.950 . S
H427 C447 0.950 . S
H428 C449 0.950 . S
H429 C452 0.950 . S
H430 C453 0.950 . S
H431 C455 0.950 . S
H432 C456 0.950 . S
H433 C457 0.951 . S
H434 C459 0.951 . S
H435 C461 0.950 . S
H436 C462 0.950 . S
H437 C464 0.950 . S
H438 C467 0.950 . S
H439 C468 0.950 . S
H440 C470 0.950 . S
H441 C471 0.950 . S
C442 H424 0.951 . S
C442 C443 1.366 . S
C442 C444 1.388 . S
C443 C442 1.366 . S
C443 C447 1.385 . S
C444 H425 0.951 . S
C444 C442 1.388 . S
C444 C445 1.366 . S
C445 C444 1.366 . S
C445 C446 1.414 . S
C445 C448 1.499 . S
C446 H426 0.950 . S
C446 C445 1.414 . S
C446 C447 1.374 . S
C447 H427 0.950 . S
C447 C443 1.385 . S
C447 C446 1.374 . S
C448 C445 1.499 . S
C448 C449 1.373 . S
C448 C450 1.389 . S
C449 H428 0.950 . S
C449 C448 1.373 . S
C449 C465 1.377 . S
C450 C448 1.389 . S
C450 C451 1.524 . S
C450 C464 1.377 . S
C451 C450 1.524 . S
C451 C452 1.397 . S
C451 C456 1.363 . S
C452 H429 0.950 . S
C452 C451 1.397 . S
C452 C453 1.334 . S
C453 H430 0.950 . S
C453 C452 1.334 . S
C453 C454 1.287 . S
C454 C453 1.287 . S
C454 C455 1.524 . S
C454 H473 0.913 . S
C455 H431 0.950 . S
C455 C454 1.524 . S
C455 C456 1.415 . S
C456 H432 0.950 . S
C456 C451 1.363 . S
C456 C455 1.415 . S
C457 H433 0.951 . S
C457 C458 1.366 . S
C457 C459 1.388 . S
C458 C457 1.366 . S
C458 C462 1.385 . S
C459 H434 0.951 . S
C459 C457 1.388 . S
C459 C460 1.366 . S
C460 C459 1.366 . S
C460 C461 1.414 . S
C460 C463 1.499 . S
C461 H435 0.950 . S
C461 C460 1.414 . S
C461 C462 1.374 . S
C462 H436 0.950 . S
C462 C458 1.385 . S
C462 C461 1.374 . S
C463 C460 1.499 . S
C463 C464 1.373 . S
C463 C465 1.389 . S
C464 H437 0.950 . S
C464 C450 1.377 . S
C464 C463 1.373 . S
C465 C449 1.377 . S
C465 C463 1.389 . S
C465 C466 1.524 . S
C466 C465 1.524 . S
C466 C467 1.397 . S
C466 C471 1.363 . S
C467 H438 0.950 . S
C467 C466 1.397 . S
C467 C468 1.334 . S
C468 H439 0.950 . S
C468 C467 1.334 . S
C468 C469 1.287 . S
C469 C468 1.287 . S
C469 C470 1.524 . S
C469 H472 0.999 . S
C470 H440 0.950 . S
C470 C469 1.524 . S
C470 C471 1.415 . S
C471 H441 0.950 . S
C471 C466 1.363 . S
C471 C470 1.415 . S
H472 C469 0.999 . S
H473 C454 0.913 . S
H474 C492 0.951 . S
H475 C494 0.951 . S
H476 C496 0.950 . S
H477 C497 0.950 . S
H478 C499 0.950 . S
H479 C502 0.950 . S
H480 C503 0.950 . S
H481 C505 0.950 . S
H482 C506 0.950 . S
H483 C507 0.951 . S
H484 C509 0.951 . S
H485 C511 0.950 . S
H486 C512 0.950 . S
H487 C514 0.950 . S
H488 C517 0.950 . S
H489 C518 0.950 . S
H490 C520 0.950 . S
H491 C521 0.950 . S
C492 H474 0.951 . S
C492 C493 1.366 . S
C492 C494 1.388 . S
C493 C492 1.366 . S
C493 C497 1.385 . S
C494 H475 0.951 . S
C494 C492 1.388 . S
C494 C495 1.366 . S
C495 C494 1.366 . S
C495 C496 1.414 . S
C495 C498 1.499 . S
C496 H476 0.950 . S
C496 C495 1.414 . S
C496 C497 1.374 . S
C497 H477 0.950 . S
C497 C493 1.385 . S
C497 C496 1.374 . S
C498 C495 1.499 . S
C498 C499 1.373 . S
C498 C500 1.389 . S
C499 H478 0.950 . S
C499 C498 1.373 . S
C499 C515 1.377 . S
C500 C498 1.389 . S
C500 C501 1.524 . S
C500 C514 1.377 . S
C501 C500 1.524 . S
C501 C502 1.397 . S
C501 C506 1.363 . S
C502 H479 0.950 . S
C502 C501 1.397 . S
C502 C503 1.334 . S
C503 H480 0.950 . S
C503 C502 1.334 . S
C503 C504 1.287 . S
C504 C503 1.287 . S
C504 C505 1.524 . S
C504 H523 0.913 . S
C505 H481 0.950 . S
C505 C504 1.524 . S
C505 C506 1.415 . S
C506 H482 0.950 . S
C506 C501 1.363 . S
C506 C505 1.415 . S
C507 H483 0.951 . S
C507 C508 1.366 . S
C507 C509 1.388 . S
C508 C507 1.366 . S
C508 C512 1.385 . S
C509 H484 0.951 . S
C509 C507 1.388 . S
C509 C510 1.366 . S
C510 C509 1.366 . S
C510 C511 1.414 . S
C510 C513 1.499 . S
C511 H485 0.950 . S
C511 C510 1.414 . S
C511 C512 1.374 . S
C512 H486 0.950 . S
C512 C508 1.385 . S
C512 C511 1.374 . S
C513 C510 1.499 . S
C513 C514 1.373 . S
C513 C515 1.389 . S
C514 H487 0.950 . S
C514 C500 1.377 . S
C514 C513 1.373 . S
C515 C499 1.377 . S
C515 C513 1.389 . S
C515 C516 1.524 . S
C516 C515 1.524 . S
C516 C517 1.397 . S
C516 C521 1.363 . S
C517 H488 0.950 . S
C517 C516 1.397 . S
C517 C518 1.334 . S
C518 H489 0.950 . S
C518 C517 1.334 . S
C518 C519 1.287 . S
C519 C518 1.287 . S
C519 C520 1.524 . S
C519 H522 0.999 . S
C520 H490 0.950 . S
C520 C519 1.524 . S
C520 C521 1.415 . S
C521 H491 0.950 . S
C521 C516 1.363 . S
C521 C520 1.415 . S
H522 C519 0.999 . S
H523 C504 0.913 . S
H524 C542 0.951 . S
H525 C544 0.951 . S
H526 C546 0.950 . S
H527 C547 0.950 . S
H528 C549 0.950 . S
H529 C552 0.950 . S
H530 C553 0.950 . S
H531 C555 0.950 . S
H532 C556 0.950 . S
H533 C557 0.951 . S
H534 C559 0.951 . S
H535 C561 0.950 . S
H536 C562 0.950 . S
H537 C564 0.950 . S
H538 C567 0.950 . S
H539 C568 0.950 . S
H540 C570 0.950 . S
H541 C571 0.950 . S
C542 H524 0.951 . S
C542 C543 1.366 . S
C542 C544 1.388 . S
C543 C542 1.366 . S
C543 C547 1.385 . S
C544 H525 0.951 . S
C544 C542 1.388 . S
C544 C545 1.366 . S
C545 C544 1.366 . S
C545 C546 1.414 . S
C545 C548 1.499 . S
C546 H526 0.950 . S
C546 C545 1.414 . S
C546 C547 1.374 . S
C547 H527 0.950 . S
C547 C543 1.385 . S
C547 C546 1.374 . S
C548 C545 1.499 . S
C548 C549 1.373 . S
C548 C550 1.389 . S
C549 H528 0.950 . S
C549 C548 1.373 . S
C549 C565 1.377 . S
C550 C548 1.389 . S
C550 C551 1.524 . S
C550 C564 1.377 . S
C551 C550 1.524 . S
C551 C552 1.397 . S
C551 C556 1.363 . S
C552 H529 0.950 . S
C552 C551 1.397 . S
C552 C553 1.334 . S
C553 H530 0.950 . S
C553 C552 1.334 . S
C553 C554 1.287 . S
C554 C553 1.287 . S
C554 C555 1.524 . S
C554 H573 0.913 . S
C555 H531 0.950 . S
C555 C554 1.524 . S
C555 C556 1.415 . S
C556 H532 0.950 . S
C556 C551 1.363 . S
C556 C555 1.415 . S
C557 H533 0.951 . S
C557 C558 1.366 . S
C557 C559 1.388 . S
C558 C557 1.366 . S
C558 C562 1.385 . S
C559 H534 0.951 . S
C559 C557 1.388 . S
C559 C560 1.366 . S
C560 C559 1.366 . S
C560 C561 1.414 . S
C560 C563 1.499 . S
C561 H535 0.950 . S
C561 C560 1.414 . S
C561 C562 1.374 . S
C562 H536 0.950 . S
C562 C558 1.385 . S
C562 C561 1.374 . S
C563 C560 1.499 . S
C563 C564 1.373 . S
C563 C565 1.389 . S
C564 H537 0.950 . S
C564 C550 1.377 . S
C564 C563 1.373 . S
C565 C549 1.377 . S
C565 C563 1.389 . S
C565 C566 1.524 . S
C566 C565 1.524 . S
C566 C567 1.397 . S
C566 C571 1.363 . S
C567 H538 0.950 . S
C567 C566 1.397 . S
C567 C568 1.334 . S
C568 H539 0.950 . S
C568 C567 1.334 . S
C568 C569 1.287 . S
C569 C568 1.287 . S
C569 C570 1.524 . S
C569 H572 0.999 . S
C570 H540 0.950 . S
C570 C569 1.524 . S
C570 C571 1.415 . S
C571 H541 0.950 . S
C571 C566 1.363 . S
C571 C570 1.415 . S
H572 C569 0.999 . S
H573 C554 0.913 . S
H574 C592 0.951 . S
H575 C594 0.951 . S
H576 C596 0.950 . S
H577 C597 0.950 . S
H578 C599 0.950 . S
H579 C602 0.950 . S
H580 C603 0.950 . S
H581 C605 0.950 . S
H582 C606 0.950 . S
H583 C607 0.951 . S
H584 C609 0.951 . S
H585 C611 0.950 . S
H586 C612 0.950 . S
H587 C614 0.950 . S
H588 C617 0.950 . S
H589 C618 0.950 . S
H590 C620 0.950 . S
H591 C621 0.950 . S
C592 H574 0.951 . S
C592 C593 1.366 . S
C592 C594 1.388 . S
C593 C592 1.366 . S
C593 C597 1.385 . S
C594 H575 0.951 . S
C594 C592 1.388 . S
C594 C595 1.366 . S
C595 C594 1.366 . S
C595 C596 1.414 . S
C595 C598 1.499 . S
C596 H576 0.950 . S
C596 C595 1.414 . S
C596 C597 1.374 . S
C597 H577 0.950 . S
C597 C593 1.385 . S
C597 C596 1.374 . S
C598 C595 1.499 . S
C598 C599 1.373 . S
C598 C600 1.389 . S
C599 H578 0.950 . S
C599 C598 1.373 . S
C599 C615 1.377 . S
C600 C598 1.389 . S
C600 C601 1.524 . S
C600 C614 1.377 . S
C601 C600 1.524 . S
C601 C602 1.397 . S
C601 C606 1.363 . S
C602 H579 0.950 . S
C602 C601 1.397 . S
C602 C603 1.334 . S
C603 H580 0.950 . S
C603 C602 1.334 . S
C603 C604 1.287 . S
C604 C603 1.287 . S
C604 C605 1.524 . S
C604 H623 0.913 . S
C605 H581 0.950 . S
C605 C604 1.524 . S
C605 C606 1.415 . S
C606 H582 0.950 . S
C606 C601 1.363 . S
C606 C605 1.415 . S
C607 H583 0.951 . S
C607 C608 1.366 . S
C607 C609 1.388 . S
C608 C607 1.366 . S
C608 C612 1.385 . S
C609 H584 0.951 . S
C609 C607 1.388 . S
C609 C610 1.366 . S
C610 C609 1.366 . S
C610 C611 1.414 . S
C610 C613 1.499 . S
C611 H585 0.950 . S
C611 C610 1.414 . S
C611 C612 1.374 . S
C612 H586 0.950 . S
C612 C608 1.385 . S
C612 C611 1.374 . S
C613 C610 1.499 . S
C613 C614 1.373 . S
C613 C615 1.389 . S
C614 H587 0.950 . S
C614 C600 1.377 . S
C614 C613 1.373 . S
C615 C599 1.377 . S
C615 C613 1.389 . S
C615 C616 1.524 . S
C616 C615 1.524 . S
C616 C617 1.397 . S
C616 C621 1.363 . S
C617 H588 0.950 . S
C617 C616 1.397 . S
C617 C618 1.334 . S
C618 H589 0.950 . S
C618 C617 1.334 . S
C618 C619 1.287 . S
C619 C618 1.287 . S
C619 C620 1.524 . S
C619 H622 0.999 . S
C620 H590 0.950 . S
C620 C619 1.524 . S
C620 C621 1.415 . S
C621 H591 0.950 . S
C621 C616 1.363 . S
C621 C620 1.415 . S
H622 C619 0.999 . S
H623 C604 0.913 . S
H624 C642 0.951 . S
H625 C644 0.951 . S
H626 C646 0.950 . S
H627 C647 0.950 . S
H628 C649 0.950 . S
H629 C652 0.950 . S
H630 C653 0.950 . S
H631 C655 0.950 . S
H632 C656 0.950 . S
H633 C657 0.951 . S
H634 C659 0.951 . S
H635 C661 0.950 . S
H636 C662 0.950 . S
H637 C664 0.950 . S
H638 C667 0.950 . S
H639 C668 0.950 . S
H640 C670 0.950 . S
H641 C671 0.950 . S
C642 H624 0.951 . S
C642 C643 1.366 . S
C642 C644 1.388 . S
C643 C642 1.366 . S
C643 C647 1.385 . S
C644 H625 0.951 . S
C644 C642 1.388 . S
C644 C645 1.366 . S
C645 C644 1.366 . S
C645 C646 1.414 . S
C645 C648 1.499 . S
C646 H626 0.950 . S
C646 C645 1.414 . S
C646 C647 1.374 . S
C647 H627 0.950 . S
C647 C643 1.385 . S
C647 C646 1.374 . S
C648 C645 1.499 . S
C648 C649 1.373 . S
C648 C650 1.389 . S
C649 H628 0.950 . S
C649 C648 1.373 . S
C649 C665 1.377 1_556 S
C650 C648 1.389 . S
C650 C651 1.524 . S
C650 C664 1.377 1_556 S
C651 C650 1.524 . S
C651 C652 1.397 . S
C651 C656 1.363 . S
C652 H629 0.950 . S
C652 C651 1.397 . S
C652 C653 1.334 . S
C653 H630 0.950 . S
C653 C652 1.334 . S
C653 C654 1.287 . S
C654 C653 1.287 . S
C654 C655 1.524 . S
C654 H673 0.913 . S
C655 H631 0.950 . S
C655 C654 1.524 . S
C655 C656 1.415 . S
C656 H632 0.950 . S
C656 C651 1.363 . S
C656 C655 1.415 . S
C657 H633 0.951 . S
C657 C658 1.366 . S
C657 C659 1.388 . S
C658 C657 1.366 . S
C658 C662 1.385 . S
C659 H634 0.951 . S
C659 C657 1.388 . S
C659 C660 1.366 . S
C660 C659 1.366 . S
C660 C661 1.414 . S
C660 C663 1.499 . S
C661 H635 0.950 . S
C661 C660 1.414 . S
C661 C662 1.374 . S
C662 H636 0.950 . S
C662 C658 1.385 . S
C662 C661 1.374 . S
C663 C660 1.499 . S
C663 C664 1.373 . S
C663 C665 1.389 . S
C664 H637 0.950 . S
C664 C650 1.377 1_554 S
C664 C663 1.373 . S
C665 C649 1.377 1_554 S
C665 C663 1.389 . S
C665 C666 1.524 . S
C666 C665 1.524 . S
C666 C667 1.397 . S
C666 C671 1.363 . S
C667 H638 0.950 . S
C667 C666 1.397 . S
C667 C668 1.334 . S
C668 H639 0.950 . S
C668 C667 1.334 . S
C668 C669 1.287 . S
C669 C668 1.287 . S
C669 C670 1.524 . S
C669 H672 0.999 . S
C670 H640 0.950 . S
C670 C669 1.524 . S
C670 C671 1.415 . S
C671 H641 0.950 . S
C671 C666 1.363 . S
C671 C670 1.415 . S
H672 C669 0.999 . S
H673 C654 0.913 . S
H674 C692 0.951 . S
H675 C694 0.951 . S
H676 C696 0.950 . S
H677 C697 0.950 . S
H678 C699 0.950 . S
H679 C702 0.950 . S
H680 C703 0.950 . S
H681 C705 0.950 . S
H682 C706 0.950 . S
H683 C707 0.951 . S
H684 C709 0.951 . S
H685 C711 0.950 . S
H686 C712 0.950 . S
H687 C714 0.950 . S
H688 C717 0.950 . S
H689 C718 0.950 . S
H690 C720 0.950 . S
H691 C721 0.950 . S
C692 H674 0.951 . S
C692 C693 1.366 . S
C692 C694 1.388 . S
C693 C692 1.366 . S
C693 C697 1.385 . S
C694 H675 0.951 . S
C694 C692 1.388 . S
C694 C695 1.366 . S
C695 C694 1.366 . S
C695 C696 1.414 . S
C695 C698 1.499 . S
C696 H676 0.950 . S
C696 C695 1.414 . S
C696 C697 1.374 . S
C697 H677 0.950 . S
C697 C693 1.385 . S
C697 C696 1.374 . S
C698 C695 1.499 . S
C698 C699 1.373 . S
C698 C700 1.389 . S
C699 H678 0.950 . S
C699 C698 1.373 . S
C699 C715 1.377 1_556 S
C700 C698 1.389 . S
C700 C701 1.524 . S
C700 C714 1.377 1_556 S
C701 C700 1.524 . S
C701 C702 1.397 . S
C701 C706 1.363 . S
C702 H679 0.950 . S
C702 C701 1.397 . S
C702 C703 1.334 . S
C703 H680 0.950 . S
C703 C702 1.334 . S
C703 C704 1.287 . S
C704 C703 1.287 . S
C704 C705 1.524 . S
C704 H723 0.913 . S
C705 H681 0.950 . S
C705 C704 1.524 . S
C705 C706 1.415 . S
C706 H682 0.950 . S
C706 C701 1.363 . S
C706 C705 1.415 . S
C707 H683 0.951 . S
C707 C708 1.366 . S
C707 C709 1.388 . S
C708 C707 1.366 . S
C708 C712 1.385 . S
C709 H684 0.951 . S
C709 C707 1.388 . S
C709 C710 1.366 . S
C710 C709 1.366 . S
C710 C711 1.414 . S
C710 C713 1.499 . S
C711 H685 0.950 . S
C711 C710 1.414 . S
C711 C712 1.374 . S
C712 H686 0.950 . S
C712 C708 1.385 . S
C712 C711 1.374 . S
C713 C710 1.499 . S
C713 C714 1.373 . S
C713 C715 1.389 . S
C714 H687 0.950 . S
C714 C700 1.377 1_554 S
C714 C713 1.373 . S
C715 C699 1.377 1_554 S
C715 C713 1.389 . S
C715 C716 1.524 . S
C716 C715 1.524 . S
C716 C717 1.397 . S
C716 C721 1.363 . S
C717 H688 0.950 . S
C717 C716 1.397 . S
C717 C718 1.334 . S
C718 H689 0.950 . S
C718 C717 1.334 . S
C718 C719 1.287 . S
C719 C718 1.287 . S
C719 C720 1.524 . S
C719 H722 0.999 . S
C720 H690 0.950 . S
C720 C719 1.524 . S
C720 C721 1.415 . S
C721 H691 0.950 . S
C721 C716 1.363 . S
C721 C720 1.415 . S
H722 C719 0.999 . S
H723 C704 0.913 . S
H724 C742 0.951 . S
H725 C744 0.951 . S
H726 C746 0.950 . S
H727 C747 0.950 . S
H728 C749 0.950 . S
H729 C752 0.950 . S
H730 C753 0.950 . S
H731 C755 0.950 . S
H732 C756 0.950 . S
H733 C757 0.951 . S
H734 C759 0.951 . S
H735 C761 0.950 . S
H736 C762 0.950 . S
H737 C764 0.950 . S
H738 C767 0.950 . S
H739 C768 0.950 . S
H740 C770 0.950 . S
H741 C771 0.950 . S
C742 H724 0.951 . S
C742 C743 1.366 . S
C742 C744 1.388 . S
C743 C742 1.366 . S
C743 C747 1.385 . S
C744 H725 0.951 . S
C744 C742 1.388 . S
C744 C745 1.366 . S
C745 C744 1.366 . S
C745 C746 1.414 . S
C745 C748 1.499 . S
C746 H726 0.950 . S
C746 C745 1.414 . S
C746 C747 1.374 . S
C747 H727 0.950 . S
C747 C743 1.385 . S
C747 C746 1.374 . S
C748 C745 1.499 . S
C748 C749 1.373 . S
C748 C750 1.389 . S
C749 H728 0.950 . S
C749 C748 1.373 . S
C749 C765 1.377 1_556 S
C750 C748 1.389 . S
C750 C751 1.524 . S
C750 C764 1.377 1_556 S
C751 C750 1.524 . S
C751 C752 1.397 . S
C751 C756 1.363 . S
C752 H729 0.950 . S
C752 C751 1.397 . S
C752 C753 1.334 . S
C753 H730 0.950 . S
C753 C752 1.334 . S
C753 C754 1.287 . S
C754 C753 1.287 . S
C754 C755 1.524 . S
C754 H773 0.913 . S
C755 H731 0.950 . S
C755 C754 1.524 . S
C755 C756 1.415 . S
C756 H732 0.950 . S
C756 C751 1.363 . S
C756 C755 1.415 . S
C757 H733 0.951 . S
C757 C758 1.366 . S
C757 C759 1.388 . S
C758 C757 1.366 . S
C758 C762 1.385 . S
C759 H734 0.951 . S
C759 C757 1.388 . S
C759 C760 1.366 . S
C760 C759 1.366 . S
C760 C761 1.414 . S
C760 C763 1.499 . S
C761 H735 0.950 . S
C761 C760 1.414 . S
C761 C762 1.374 . S
C762 H736 0.950 . S
C762 C758 1.385 . S
C762 C761 1.374 . S
C763 C760 1.499 . S
C763 C764 1.373 . S
C763 C765 1.389 . S
C764 H737 0.950 . S
C764 C750 1.377 1_554 S
C764 C763 1.373 . S
C765 C749 1.377 1_554 S
C765 C763 1.389 . S
C765 C766 1.524 . S
C766 C765 1.524 . S
C766 C767 1.397 . S
C766 C771 1.363 . S
C767 H738 0.950 . S
C767 C766 1.397 . S
C767 C768 1.334 . S
C768 H739 0.950 . S
C768 C767 1.334 . S
C768 C769 1.287 . S
C769 C768 1.287 . S
C769 C770 1.524 . S
C769 H772 0.999 . S
C770 H740 0.950 . S
C770 C769 1.524 . S
C770 C771 1.415 . S
C771 H741 0.950 . S
C771 C766 1.363 . S
C771 C770 1.415 . S
H772 C769 0.999 . S
H773 C754 0.913 . S
H774 C792 0.951 . S
H775 C794 0.951 . S
H776 C796 0.950 . S
H777 C797 0.950 . S
H778 C799 0.950 . S
H779 C802 0.950 . S
H780 C803 0.950 . S
H781 C805 0.950 . S
H782 C806 0.950 . S
H783 C807 0.951 . S
H784 C809 0.951 . S
H785 C811 0.950 . S
H786 C812 0.950 . S
H787 C814 0.950 . S
H788 C817 0.950 . S
H789 C818 0.950 . S
H790 C820 0.950 . S
H791 C821 0.950 . S
C792 H774 0.951 . S
C792 C793 1.366 . S
C792 C794 1.388 . S
C793 C792 1.366 . S
C793 C797 1.385 . S
C794 H775 0.951 . S
C794 C792 1.388 . S
C794 C795 1.366 . S
C795 C794 1.366 . S
C795 C796 1.414 . S
C795 C798 1.499 . S
C796 H776 0.950 . S
C796 C795 1.414 . S
C796 C797 1.374 . S
C797 H777 0.950 . S
C797 C793 1.385 . S
C797 C796 1.374 . S
C798 C795 1.499 . S
C798 C799 1.373 . S
C798 C800 1.389 . S
C799 H778 0.950 . S
C799 C798 1.373 . S
C799 C815 1.377 1_554 S
C800 C798 1.389 . S
C800 C801 1.524 . S
C800 C814 1.377 1_554 S
C801 C800 1.524 . S
C801 C802 1.397 . S
C801 C806 1.363 . S
C802 H779 0.950 . S
C802 C801 1.397 . S
C802 C803 1.334 . S
C803 H780 0.950 . S
C803 C802 1.334 . S
C803 C804 1.287 . S
C804 C803 1.287 . S
C804 C805 1.524 . S
C804 H823 0.913 . S
C805 H781 0.950 . S
C805 C804 1.524 . S
C805 C806 1.415 . S
C806 H782 0.950 . S
C806 C801 1.363 . S
C806 C805 1.415 . S
C807 H783 0.951 . S
C807 C808 1.366 . S
C807 C809 1.388 . S
C808 C807 1.366 . S
C808 C812 1.385 . S
C809 H784 0.951 . S
C809 C807 1.388 . S
C809 C810 1.366 . S
C810 C809 1.366 . S
C810 C811 1.414 . S
C810 C813 1.499 . S
C811 H785 0.950 . S
C811 C810 1.414 . S
C811 C812 1.374 . S
C812 H786 0.950 . S
C812 C808 1.385 . S
C812 C811 1.374 . S
C813 C810 1.499 . S
C813 C814 1.373 . S
C813 C815 1.389 . S
C814 H787 0.950 . S
C814 C800 1.377 1_556 S
C814 C813 1.373 . S
C815 C799 1.377 1_556 S
C815 C813 1.389 . S
C815 C816 1.524 . S
C816 C815 1.524 . S
C816 C817 1.397 . S
C816 C821 1.363 . S
C817 H788 0.950 . S
C817 C816 1.397 . S
C817 C818 1.334 . S
C818 H789 0.950 . S
C818 C817 1.334 . S
C818 C819 1.287 . S
C819 C818 1.287 . S
C819 C820 1.524 . S
C819 H822 0.999 . S
C820 H790 0.950 . S
C820 C819 1.524 . S
C820 C821 1.415 . S
C821 H791 0.950 . S
C821 C816 1.363 . S
C821 C820 1.415 . S
H822 C819 0.999 . S
H823 C804 0.913 . S
H824 C842 0.951 . S
H825 C844 0.951 . S
H826 C846 0.950 . S
H827 C847 0.950 . S
H828 C849 0.950 . S
H829 C852 0.950 . S
H830 C853 0.950 . S
H831 C855 0.950 . S
H832 C856 0.950 . S
H833 C857 0.951 . S
H834 C859 0.951 . S
H835 C861 0.950 . S
H836 C862 0.950 . S
H837 C864 0.950 . S
H838 C867 0.950 . S
H839 C868 0.950 . S
H840 C870 0.950 . S
H841 C871 0.950 . S
C842 H824 0.951 . S
C842 C843 1.366 . S
C842 C844 1.388 . S
C843 C842 1.366 . S
C843 C847 1.385 . S
C844 H825 0.951 . S
C844 C842 1.388 . S
C844 C845 1.366 . S
C845 C844 1.366 . S
C845 C846 1.414 . S
C845 C848 1.499 . S
C846 H826 0.950 . S
C846 C845 1.414 . S
C846 C847 1.374 . S
C847 H827 0.950 . S
C847 C843 1.385 . S
C847 C846 1.374 . S
C848 C845 1.499 . S
C848 C849 1.373 . S
C848 C850 1.389 . S
C849 H828 0.950 . S
C849 C848 1.373 . S
C849 C865 1.377 . S
C850 C848 1.389 . S
C850 C851 1.524 . S
C850 C864 1.377 . S
C851 C850 1.524 . S
C851 C852 1.397 . S
C851 C856 1.363 . S
C852 H829 0.950 . S
C852 C851 1.397 . S
C852 C853 1.334 . S
C853 H830 0.950 . S
C853 C852 1.334 . S
C853 C854 1.287 . S
C854 C853 1.287 . S
C854 C855 1.524 . S
C854 H873 0.913 . S
C855 H831 0.950 . S
C855 C854 1.524 . S
C855 C856 1.415 . S
C856 H832 0.950 . S
C856 C851 1.363 . S
C856 C855 1.415 . S
C857 H833 0.951 . S
C857 C858 1.366 . S
C857 C859 1.388 . S
C858 C857 1.366 . S
C858 C862 1.385 . S
C859 H834 0.951 . S
C859 C857 1.388 . S
C859 C860 1.366 . S
C860 C859 1.366 . S
C860 C861 1.414 . S
C860 C863 1.499 . S
C861 H835 0.950 . S
C861 C860 1.414 . S
C861 C862 1.374 . S
C862 H836 0.950 . S
C862 C858 1.385 . S
C862 C861 1.374 . S
C863 C860 1.499 . S
C863 C864 1.373 . S
C863 C865 1.389 . S
C864 H837 0.950 . S
C864 C850 1.377 . S
C864 C863 1.373 . S
C865 C849 1.377 . S
C865 C863 1.389 . S
C865 C866 1.524 . S
C866 C865 1.524 . S
C866 C867 1.397 . S
C866 C871 1.363 . S
C867 H838 0.950 . S
C867 C866 1.397 . S
C867 C868 1.334 . S
C868 H839 0.950 . S
C868 C867 1.334 . S
C868 C869 1.287 . S
C869 C868 1.287 . S
C869 C870 1.524 . S
C869 H872 0.999 . S
C870 H840 0.950 . S
C870 C869 1.524 . S
C870 C871 1.415 . S
C871 H841 0.950 . S
C871 C866 1.363 . S
C871 C870 1.415 . S
H872 C869 0.999 . S
H873 C854 0.913 . S
H874 C892 0.951 . S
H875 C894 0.951 . S
H876 C896 0.950 . S
H877 C897 0.950 . S
H878 C899 0.950 . S
H879 C902 0.950 . S
H880 C903 0.950 . S
H881 C905 0.950 . S
H882 C906 0.950 . S
H883 C907 0.951 . S
H884 C909 0.951 . S
H885 C911 0.950 . S
H886 C912 0.950 . S
H887 C914 0.950 . S
H888 C917 0.950 . S
H889 C918 0.950 . S
H890 C920 0.950 . S
H891 C921 0.950 . S
C892 H874 0.951 . S
C892 C893 1.366 . S
C892 C894 1.388 . S
C893 C892 1.366 . S
C893 C897 1.385 . S
C894 H875 0.951 . S
C894 C892 1.388 . S
C894 C895 1.366 . S
C895 C894 1.366 . S
C895 C896 1.414 . S
C895 C898 1.499 . S
C896 H876 0.950 . S
C896 C895 1.414 . S
C896 C897 1.374 . S
C897 H877 0.950 . S
C897 C893 1.385 . S
C897 C896 1.374 . S
C898 C895 1.499 . S
C898 C899 1.373 . S
C898 C900 1.389 . S
C899 H878 0.950 . S
C899 C898 1.373 . S
C899 C915 1.377 . S
C900 C898 1.389 . S
C900 C901 1.524 . S
C900 C914 1.377 . S
C901 C900 1.524 . S
C901 C902 1.397 . S
C901 C906 1.363 . S
C902 H879 0.950 . S
C902 C901 1.397 . S
C902 C903 1.334 . S
C903 H880 0.950 . S
C903 C902 1.334 . S
C903 C904 1.287 . S
C904 C903 1.287 . S
C904 C905 1.524 . S
C904 H923 0.913 . S
C905 H881 0.950 . S
C905 C904 1.524 . S
C905 C906 1.415 . S
C906 H882 0.950 . S
C906 C901 1.363 . S
C906 C905 1.415 . S
C907 H883 0.951 . S
C907 C908 1.366 . S
C907 C909 1.388 . S
C908 C907 1.366 . S
C908 C912 1.385 . S
C909 H884 0.951 . S
C909 C907 1.388 . S
C909 C910 1.366 . S
C910 C909 1.366 . S
C910 C911 1.414 . S
C910 C913 1.499 . S
C911 H885 0.950 . S
C911 C910 1.414 . S
C911 C912 1.374 . S
C912 H886 0.950 . S
C912 C908 1.385 . S
C912 C911 1.374 . S
C913 C910 1.499 . S
C913 C914 1.373 . S
C913 C915 1.389 . S
C914 H887 0.950 . S
C914 C900 1.377 . S
C914 C913 1.373 . S
C915 C899 1.377 . S
C915 C913 1.389 . S
C915 C916 1.524 . S
C916 C915 1.524 . S
C916 C917 1.397 . S
C916 C921 1.363 . S
C917 H888 0.950 . S
C917 C916 1.397 . S
C917 C918 1.334 . S
C918 H889 0.950 . S
C918 C917 1.334 . S
C918 C919 1.287 . S
C919 C918 1.287 . S
C919 C920 1.524 . S
C919 H922 0.999 . S
C920 H890 0.950 . S
C920 C919 1.524 . S
C920 C921 1.415 . S
C921 H891 0.950 . S
C921 C916 1.363 . S
C921 C920 1.415 . S
H922 C919 0.999 . S
H923 C904 0.913 . S
H924 C942 0.951 . S
H925 C944 0.951 . S
H926 C946 0.950 . S
H927 C947 0.950 . S
H928 C949 0.950 . S
H929 C952 0.950 . S
H930 C953 0.950 . S
H931 C955 0.950 . S
H932 C956 0.950 . S
H933 C957 0.951 . S
H934 C959 0.951 . S
H935 C961 0.950 . S
H936 C962 0.950 . S
H937 C964 0.950 . S
H938 C967 0.950 . S
H939 C968 0.950 . S
H940 C970 0.950 . S
H941 C971 0.950 . S
C942 H924 0.951 . S
C942 C943 1.366 . S
C942 C944 1.388 . S
C943 C942 1.366 . S
C943 C947 1.385 . S
C944 H925 0.951 . S
C944 C942 1.388 . S
C944 C945 1.366 . S
C945 C944 1.366 . S
C945 C946 1.414 . S
C945 C948 1.499 . S
C946 H926 0.950 . S
C946 C945 1.414 . S
C946 C947 1.374 . S
C947 H927 0.950 . S
C947 C943 1.385 . S
C947 C946 1.374 . S
C948 C945 1.499 . S
C948 C949 1.373 . S
C948 C950 1.389 . S
C949 H928 0.950 . S
C949 C948 1.373 . S
C949 C965 1.377 . S
C950 C948 1.389 . S
C950 C951 1.524 . S
C950 C964 1.377 . S
C951 C950 1.524 . S
C951 C952 1.397 . S
C951 C956 1.363 . S
C952 H929 0.950 . S
C952 C951 1.397 . S
C952 C953 1.334 . S
C953 H930 0.950 . S
C953 C952 1.334 . S
C953 C954 1.287 . S
C954 C953 1.287 . S
C954 C955 1.524 . S
C954 H973 0.913 . S
C955 H931 0.950 . S
C955 C954 1.524 . S
C955 C956 1.415 . S
C956 H932 0.950 . S
C956 C951 1.363 . S
C956 C955 1.415 . S
C957 H933 0.951 . S
C957 C958 1.366 . S
C957 C959 1.388 . S
C958 C957 1.366 . S
C958 C962 1.385 . S
C959 H934 0.951 . S
C959 C957 1.388 . S
C959 C960 1.366 . S
C960 C959 1.366 . S
C960 C961 1.414 . S
C960 C963 1.499 . S
C961 H935 0.950 . S
C961 C960 1.414 . S
C961 C962 1.374 . S
C962 H936 0.950 . S
C962 C958 1.385 . S
C962 C961 1.374 . S
C963 C960 1.499 . S
C963 C964 1.373 . S
C963 C965 1.389 . S
C964 H937 0.950 . S
C964 C950 1.377 . S
C964 C963 1.373 . S
C965 C949 1.377 . S
C965 C963 1.389 . S
C965 C966 1.524 . S
C966 C965 1.524 . S
C966 C967 1.397 . S
C966 C971 1.363 . S
C967 H938 0.950 . S
C967 C966 1.397 . S
C967 C968 1.334 . S
C968 H939 0.950 . S
C968 C967 1.334 . S
C968 C969 1.287 . S
C969 C968 1.287 . S
C969 C970 1.524 . S
C969 H972 0.999 . S
C970 H940 0.950 . S
C970 C969 1.524 . S
C970 C971 1.415 . S
C971 H941 0.950 . S
C971 C966 1.363 . S
C971 C970 1.415 . S
H972 C969 0.999 . S
H973 C954 0.913 . S
H974 C992 0.951 . S
H975 C994 0.951 . S
H976 C996 0.950 . S
H977 C997 0.950 . S
H978 C999 0.950 . S
H979 C1002 0.950 . S
H980 C1003 0.950 . S
H981 C1005 0.950 . S
H982 C1006 0.950 . S
H983 C1007 0.951 . S
H984 C1009 0.951 . S
H985 C1011 0.950 . S
H986 C1012 0.950 . S
H987 C1014 0.950 . S
H988 C1017 0.950 . S
H989 C1018 0.950 . S
H990 C1020 0.950 . S
H991 C1021 0.950 . S
C992 H974 0.951 . S
C992 C993 1.366 . S
C992 C994 1.388 . S
C993 C992 1.366 . S
C993 C997 1.385 . S
C994 H975 0.951 . S
C994 C992 1.388 . S
C994 C995 1.366 . S
C995 C994 1.366 . S
C995 C996 1.414 . S
C995 C998 1.499 . S
C996 H976 0.950 . S
C996 C995 1.414 . S
C996 C997 1.374 . S
C997 H977 0.950 . S
C997 C993 1.385 . S
C997 C996 1.374 . S
C998 C995 1.499 . S
C998 C999 1.373 . S
C998 C1000 1.389 . S
C999 H978 0.950 . S
C999 C998 1.373 . S
C999 C1015 1.377 . S
C1000 C998 1.389 . S
C1000 C1001 1.524 . S
C1000 C1014 1.377 . S
C1001 C1000 1.524 . S
C1001 C1002 1.397 . S
C1001 C1006 1.363 . S
C1002 H979 0.950 . S
C1002 C1001 1.397 . S
C1002 C1003 1.334 . S
C1003 H980 0.950 . S
C1003 C1002 1.334 . S
C1003 C1004 1.287 . S
C1004 C1003 1.287 . S
C1004 C1005 1.524 . S
C1004 H1023 0.913 . S
C1005 H981 0.950 . S
C1005 C1004 1.524 . S
C1005 C1006 1.415 . S
C1006 H982 0.950 . S
C1006 C1001 1.363 . S
C1006 C1005 1.415 . S
C1007 H983 0.951 . S
C1007 C1008 1.366 . S
C1007 C1009 1.388 . S
C1008 C1007 1.366 . S
C1008 C1012 1.385 . S
C1009 H984 0.951 . S
C1009 C1007 1.388 . S
C1009 C1010 1.366 . S
C1010 C1009 1.366 . S
C1010 C1011 1.414 . S
C1010 C1013 1.499 . S
C1011 H985 0.950 . S
C1011 C1010 1.414 . S
C1011 C1012 1.374 . S
C1012 H986 0.950 . S
C1012 C1008 1.385 . S
C1012 C1011 1.374 . S
C1013 C1010 1.499 . S
C1013 C1014 1.373 . S
C1013 C1015 1.389 . S
C1014 H987 0.950 . S
C1014 C1000 1.377 . S
C1014 C1013 1.373 . S
C1015 C999 1.377 . S
C1015 C1013 1.389 . S
C1015 C1016 1.524 . S
C1016 C1015 1.524 . S
C1016 C1017 1.397 . S
C1016 C1021 1.363 . S
C1017 H988 0.950 . S
C1017 C1016 1.397 . S
C1017 C1018 1.334 . S
C1018 H989 0.950 . S
C1018 C1017 1.334 . S
C1018 C1019 1.287 . S
C1019 C1018 1.287 . S
C1019 C1020 1.524 . S
C1019 H1022 0.999 . S
C1020 H990 0.950 . S
C1020 C1019 1.524 . S
C1020 C1021 1.415 . S
C1021 H991 0.950 . S
C1021 C1016 1.363 . S
C1021 C1020 1.415 . S
H1022 C1019 0.999 . S
H1023 C1004 0.913 . S
H1024 C1042 0.951 . S
H1025 C1044 0.951 . S
H1026 C1046 0.950 . S
H1027 C1047 0.950 . S
H1028 C1049 0.950 . S
H1029 C1052 0.950 . S
H1030 C1053 0.950 . S
H1031 C1055 0.950 . S
H1032 C1056 0.950 . S
H1033 C1057 0.951 . S
H1034 C1059 0.951 . S
H1035 C1061 0.950 . S
H1036 C1062 0.950 . S
H1037 C1064 0.950 . S
H1038 C1067 0.950 . S
H1039 C1068 0.950 . S
H1040 C1070 0.950 . S
H1041 C1071 0.950 . S
C1042 H1024 0.951 . S
C1042 C1043 1.366 . S
C1042 C1044 1.388 . S
C1043 C1042 1.366 . S
C1043 C1047 1.385 . S
C1044 H1025 0.951 . S
C1044 C1042 1.388 . S
C1044 C1045 1.366 . S
C1045 C1044 1.366 . S
C1045 C1046 1.414 . S
C1045 C1048 1.499 . S
C1046 H1026 0.950 . S
C1046 C1045 1.414 . S
C1046 C1047 1.374 . S
C1047 H1027 0.950 . S
C1047 C1043 1.385 . S
C1047 C1046 1.374 . S
C1048 C1045 1.499 . S
C1048 C1049 1.373 . S
C1048 C1050 1.389 . S
C1049 H1028 0.950 . S
C1049 C1048 1.373 . S
C1049 C1065 1.377 . S
C1050 C1048 1.389 . S
C1050 C1051 1.524 . S
C1050 C1064 1.377 . S
C1051 C1050 1.524 . S
C1051 C1052 1.397 . S
C1051 C1056 1.363 . S
C1052 H1029 0.950 . S
C1052 C1051 1.397 . S
C1052 C1053 1.334 . S
C1053 H1030 0.950 . S
C1053 C1052 1.334 . S
C1053 C1054 1.287 . S
C1054 C1053 1.287 . S
C1054 C1055 1.524 . S
C1054 H1073 0.913 . S
C1055 H1031 0.950 . S
C1055 C1054 1.524 . S
C1055 C1056 1.415 . S
C1056 H1032 0.950 . S
C1056 C1051 1.363 . S
C1056 C1055 1.415 . S
C1057 H1033 0.951 . S
C1057 C1058 1.366 . S
C1057 C1059 1.388 . S
C1058 C1057 1.366 . S
C1058 C1062 1.385 . S
C1059 H1034 0.951 . S
C1059 C1057 1.388 . S
C1059 C1060 1.366 . S
C1060 C1059 1.366 . S
C1060 C1061 1.414 . S
C1060 C1063 1.499 . S
C1061 H1035 0.950 . S
C1061 C1060 1.414 . S
C1061 C1062 1.374 . S
C1062 H1036 0.950 . S
C1062 C1058 1.385 . S
C1062 C1061 1.374 . S
C1063 C1060 1.499 . S
C1063 C1064 1.373 . S
C1063 C1065 1.389 . S
C1064 H1037 0.950 . S
C1064 C1050 1.377 . S
C1064 C1063 1.373 . S
C1065 C1049 1.377 . S
C1065 C1063 1.389 . S
C1065 C1066 1.524 . S
C1066 C1065 1.524 . S
C1066 C1067 1.397 . S
C1066 C1071 1.363 . S
C1067 H1038 0.950 . S
C1067 C1066 1.397 . S
C1067 C1068 1.334 . S
C1068 H1039 0.950 . S
C1068 C1067 1.334 . S
C1068 C1069 1.287 . S
C1069 C1068 1.287 . S
C1069 C1070 1.524 . S
C1069 H1072 0.999 . S
C1070 H1040 0.950 . S
C1070 C1069 1.524 . S
C1070 C1071 1.415 . S
C1071 H1041 0.950 . S
C1071 C1066 1.363 . S
C1071 C1070 1.415 . S
H1072 C1069 0.999 . S
H1073 C1054 0.913 . S
H1074 C1092 0.951 . S
H1075 C1094 0.951 . S
H1076 C1096 0.950 . S
H1077 C1097 0.950 . S
H1078 C1099 0.950 . S
H1079 C1102 0.950 . S
H1080 C1103 0.950 . S
H1081 C1105 0.950 . S
H1082 C1106 0.950 . S
H1083 C1107 0.951 . S
H1084 C1109 0.951 . S
H1085 C1111 0.950 . S
H1086 C1112 0.950 . S
H1087 C1114 0.950 . S
H1088 C1117 0.950 . S
H1089 C1118 0.950 . S
H1090 C1120 0.950 . S
H1091 C1121 0.950 . S
C1092 H1074 0.951 . S
C1092 C1093 1.366 . S
C1092 C1094 1.388 . S
C1093 C1092 1.366 . S
C1093 C1097 1.385 . S
C1094 H1075 0.951 . S
C1094 C1092 1.388 . S
C1094 C1095 1.366 . S
C1095 C1094 1.366 . S
C1095 C1096 1.414 . S
C1095 C1098 1.499 . S
C1096 H1076 0.950 . S
C1096 C1095 1.414 . S
C1096 C1097 1.374 . S
C1097 H1077 0.950 . S
C1097 C1093 1.385 . S
C1097 C1096 1.374 . S
C1098 C1095 1.499 . S
C1098 C1099 1.373 . S
C1098 C1100 1.389 . S
C1099 H1078 0.950 . S
C1099 C1098 1.373 . S
C1099 C1115 1.377 . S
C1100 C1098 1.389 . S
C1100 C1101 1.524 . S
C1100 C1114 1.377 . S
C1101 C1100 1.524 . S
C1101 C1102 1.397 . S
C1101 C1106 1.363 . S
C1102 H1079 0.950 . S
C1102 C1101 1.397 . S
C1102 C1103 1.334 . S
C1103 H1080 0.950 . S
C1103 C1102 1.334 . S
C1103 C1104 1.287 . S
C1104 C1103 1.287 . S
C1104 C1105 1.524 . S
C1104 H1123 0.913 . S
C1105 H1081 0.950 . S
C1105 C1104 1.524 . S
C1105 C1106 1.415 . S
C1106 H1082 0.950 . S
C1106 C1101 1.363 . S
C1106 C1105 1.415 . S
C1107 H1083 0.951 . S
C1107 C1108 1.366 . S
C1107 C1109 1.388 . S
C1108 C1107 1.366 . S
C1108 C1112 1.385 . S
C1109 H1084 0.951 . S
C1109 C1107 1.388 . S
C1109 C1110 1.366 . S
C1110 C1109 1.366 . S
C1110 C1111 1.414 . S
C1110 C1113 1.499 . S
C1111 H1085 0.950 . S
C1111 C1110 1.414 . S
C1111 C1112 1.374 . S
C1112 H1086 0.950 . S
C1112 C1108 1.385 . S
C1112 C1111 1.374 . S
C1113 C1110 1.499 . S
C1113 C1114 1.373 . S
C1113 C1115 1.389 . S
C1114 H1087 0.950 . S
C1114 C1100 1.377 . S
C1114 C1113 1.373 . S
C1115 C1099 1.377 . S
C1115 C1113 1.389 . S
C1115 C1116 1.524 . S
C1116 C1115 1.524 . S
C1116 C1117 1.397 . S
C1116 C1121 1.363 . S
C1117 H1088 0.950 . S
C1117 C1116 1.397 . S
C1117 C1118 1.334 . S
C1118 H1089 0.950 . S
C1118 C1117 1.334 . S
C1118 C1119 1.287 . S
C1119 C1118 1.287 . S
C1119 C1120 1.524 . S
C1119 H1122 0.999 . S
C1120 H1090 0.950 . S
C1120 C1119 1.524 . S
C1120 C1121 1.415 . S
C1121 H1091 0.950 . S
C1121 C1116 1.363 . S
C1121 C1120 1.415 . S
H1122 C1119 0.999 . S
H1123 C1104 0.913 . S
H1124 C1142 0.951 . S
H1125 C1144 0.951 . S
H1126 C1146 0.950 . S
H1127 C1147 0.950 . S
H1128 C1149 0.950 . S
H1129 C1152 0.950 . S
H1130 C1153 0.950 . S
H1131 C1155 0.950 . S
H1132 C1156 0.950 . S
H1133 C1157 0.951 . S
H1134 C1159 0.951 . S
H1135 C1161 0.950 . S
H1136 C1162 0.950 . S
H1137 C1164 0.950 . S
H1138 C1167 0.950 . S
H1139 C1168 0.950 . S
H1140 C1170 0.950 . S
H1141 C1171 0.950 . S
C1142 H1124 0.951 . S
C1142 C1143 1.366 . S
C1142 C1144 1.388 . S
C1143 C1142 1.366 . S
C1143 C1147 1.385 . S
C1144 H1125 0.951 . S
C1144 C1142 1.388 . S
C1144 C1145 1.366 . S
C1145 C1144 1.366 . S
C1145 C1146 1.414 . S
C1145 C1148 1.499 . S
C1146 H1126 0.950 . S
C1146 C1145 1.414 . S
C1146 C1147 1.374 . S
C1147 H1127 0.950 . S
C1147 C1143 1.385 . S
C1147 C1146 1.374 . S
C1148 C1145 1.499 . S
C1148 C1149 1.373 . S
C1148 C1150 1.389 . S
C1149 H1128 0.950 . S
C1149 C1148 1.373 . S
C1149 C1165 1.377 . S
C1150 C1148 1.389 . S
C1150 C1151 1.524 . S
C1150 C1164 1.377 . S
C1151 C1150 1.524 . S
C1151 C1152 1.397 . S
C1151 C1156 1.363 . S
C1152 H1129 0.950 . S
C1152 C1151 1.397 . S
C1152 C1153 1.334 . S
C1153 H1130 0.950 . S
C1153 C1152 1.334 . S
C1153 C1154 1.287 . S
C1154 C1153 1.287 . S
C1154 C1155 1.524 . S
C1154 H1173 0.913 . S
C1155 H1131 0.950 . S
C1155 C1154 1.524 . S
C1155 C1156 1.415 . S
C1156 H1132 0.950 . S
C1156 C1151 1.363 . S
C1156 C1155 1.415 . S
C1157 H1133 0.951 . S
C1157 C1158 1.366 . S
C1157 C1159 1.388 . S
C1158 C1157 1.366 . S
C1158 C1162 1.385 . S
C1159 H1134 0.951 . S
C1159 C1157 1.388 . S
C1159 C1160 1.366 . S
C1160 C1159 1.366 . S
C1160 C1161 1.414 . S
C1160 C1163 1.499 . S
C1161 H1135 0.950 . S
C1161 C1160 1.414 . S
C1161 C1162 1.374 . S
C1162 H1136 0.950 . S
C1162 C1158 1.385 . S
C1162 C1161 1.374 . S
C1163 C1160 1.499 . S
C1163 C1164 1.373 . S
C1163 C1165 1.389 . S
C1164 H1137 0.950 . S
C1164 C1150 1.377 . S
C1164 C1163 1.373 . S
C1165 C1149 1.377 . S
C1165 C1163 1.389 . S
C1165 C1166 1.524 . S
C1166 C1165 1.524 . S
C1166 C1167 1.397 . S
C1166 C1171 1.363 . S
C1167 H1138 0.950 . S
C1167 C1166 1.397 . S
C1167 C1168 1.334 . S
C1168 H1139 0.950 . S
C1168 C1167 1.334 . S
C1168 C1169 1.287 . S
C1169 C1168 1.287 . S
C1169 C1170 1.524 . S
C1169 H1172 0.999 . S
C1170 H1140 0.950 . S
C1170 C1169 1.524 . S
C1170 C1171 1.415 . S
C1171 H1141 0.950 . S
C1171 C1166 1.363 . S
C1171 C1170 1.415 . S
H1172 C1169 0.999 . S
H1173 C1154 0.913 . S
H1174 C1192 0.951 . S
H1175 C1194 0.951 . S
H1176 C1196 0.950 . S
H1177 C1197 0.950 . S
H1178 C1199 0.950 . S
H1179 C1202 0.950 . S
H1180 C1203 0.950 . S
H1181 C1205 0.950 . S
H1182 C1206 0.950 . S
H1183 C1207 0.951 . S
H1184 C1209 0.951 . S
H1185 C1211 0.950 . S
H1186 C1212 0.950 . S
H1187 C1214 0.950 . S
H1188 C1217 0.950 . S
H1189 C1218 0.950 . S
H1190 C1220 0.950 . S
H1191 C1221 0.950 . S
C1192 H1174 0.951 . S
C1192 C1193 1.366 . S
C1192 C1194 1.388 . S
C1193 C1192 1.366 . S
C1193 C1197 1.385 . S
C1194 H1175 0.951 . S
C1194 C1192 1.388 . S
C1194 C1195 1.366 . S
C1195 C1194 1.366 . S
C1195 C1196 1.414 . S
C1195 C1198 1.499 . S
C1196 H1176 0.950 . S
C1196 C1195 1.414 . S
C1196 C1197 1.374 . S
C1197 H1177 0.950 . S
C1197 C1193 1.385 . S
C1197 C1196 1.374 . S
C1198 C1195 1.499 . S
C1198 C1199 1.373 . S
C1198 C1200 1.389 . S
C1199 H1178 0.950 . S
C1199 C1198 1.373 . S
C1199 C1215 1.377 . S
C1200 C1198 1.389 . S
C1200 C1201 1.524 . S
C1200 C1214 1.377 . S
C1201 C1200 1.524 . S
C1201 C1202 1.397 . S
C1201 C1206 1.363 . S
C1202 H1179 0.950 . S
C1202 C1201 1.397 . S
C1202 C1203 1.334 . S
C1203 H1180 0.950 . S
C1203 C1202 1.334 . S
C1203 C1204 1.287 . S
C1204 C1203 1.287 . S
C1204 C1205 1.524 . S
C1204 H1223 0.913 . S
C1205 H1181 0.950 . S
C1205 C1204 1.524 . S
C1205 C1206 1.415 . S
C1206 H1182 0.950 . S
C1206 C1201 1.363 . S
C1206 C1205 1.415 . S
C1207 H1183 0.951 . S
C1207 C1208 1.366 . S
C1207 C1209 1.388 . S
C1208 C1207 1.366 . S
C1208 C1212 1.385 . S
C1209 H1184 0.951 . S
C1209 C1207 1.388 . S
C1209 C1210 1.366 . S
C1210 C1209 1.366 . S
C1210 C1211 1.414 . S
C1210 C1213 1.499 . S
C1211 H1185 0.950 . S
C1211 C1210 1.414 . S
C1211 C1212 1.374 . S
C1212 H1186 0.950 . S
C1212 C1208 1.385 . S
C1212 C1211 1.374 . S
C1213 C1210 1.499 . S
C1213 C1214 1.373 . S
C1213 C1215 1.389 . S
C1214 H1187 0.950 . S
C1214 C1200 1.377 . S
C1214 C1213 1.373 . S
C1215 C1199 1.377 . S
C1215 C1213 1.389 . S
C1215 C1216 1.524 . S
C1216 C1215 1.524 . S
C1216 C1217 1.397 . S
C1216 C1221 1.363 . S
C1217 H1188 0.950 . S
C1217 C1216 1.397 . S
C1217 C1218 1.334 . S
C1218 H1189 0.950 . S
C1218 C1217 1.334 . S
C1218 C1219 1.287 . S
C1219 C1218 1.287 . S
C1219 C1220 1.524 . S
C1219 H1222 0.999 . S
C1220 H1190 0.950 . S
C1220 C1219 1.524 . S
C1220 C1221 1.415 . S
C1221 H1191 0.950 . S
C1221 C1216 1.363 . S
C1221 C1220 1.415 . S
H1222 C1219 0.999 . S
H1223 C1204 0.913 . S
H1224 C1242 0.951 . S
H1225 C1244 0.951 . S
H1226 C1246 0.950 . S
H1227 C1247 0.950 . S
H1228 C1249 0.950 . S
H1229 C1252 0.950 . S
H1230 C1253 0.950 . S
H1231 C1255 0.950 . S
H1232 C1256 0.950 . S
H1233 C1257 0.951 . S
H1234 C1259 0.951 . S
H1235 C1261 0.950 . S
H1236 C1262 0.950 . S
H1237 C1264 0.950 . S
H1238 C1267 0.950 . S
H1239 C1268 0.950 . S
H1240 C1270 0.950 . S
H1241 C1271 0.950 . S
C1242 H1224 0.951 . S
C1242 C1243 1.366 . S
C1242 C1244 1.388 . S
C1243 C1242 1.366 . S
C1243 C1247 1.385 . S
C1244 H1225 0.951 . S
C1244 C1242 1.388 . S
C1244 C1245 1.366 . S
C1245 C1244 1.366 . S
C1245 C1246 1.414 . S
C1245 C1248 1.499 . S
C1246 H1226 0.950 . S
C1246 C1245 1.414 . S
C1246 C1247 1.374 . S
C1247 H1227 0.950 . S
C1247 C1243 1.385 . S
C1247 C1246 1.374 . S
C1248 C1245 1.499 . S
C1248 C1249 1.373 . S
C1248 C1250 1.389 . S
C1249 H1228 0.950 . S
C1249 C1248 1.373 . S
C1249 C1265 1.377 . S
C1250 C1248 1.389 . S
C1250 C1251 1.524 . S
C1250 C1264 1.377 . S
C1251 C1250 1.524 . S
C1251 C1252 1.397 . S
C1251 C1256 1.363 . S
C1252 H1229 0.950 . S
C1252 C1251 1.397 . S
C1252 C1253 1.334 . S
C1253 H1230 0.950 . S
C1253 C1252 1.334 . S
C1253 C1254 1.287 . S
C1254 C1253 1.287 . S
C1254 C1255 1.524 . S
C1254 H1273 0.913 . S
C1255 H1231 0.950 . S
C1255 C1254 1.524 . S
C1255 C1256 1.415 . S
C1256 H1232 0.950 . S
C1256 C1251 1.363 . S
C1256 C1255 1.415 . S
C1257 H1233 0.951 . S
C1257 C1258 1.366 . S
C1257 C1259 1.388 . S
C1258 C1257 1.366 . S
C1258 C1262 1.385 . S
C1259 H1234 0.951 . S
C1259 C1257 1.388 . S
C1259 C1260 1.366 . S
C1260 C1259 1.366 . S
C1260 C1261 1.414 . S
C1260 C1263 1.499 . S
C1261 H1235 0.950 . S
C1261 C1260 1.414 . S
C1261 C1262 1.374 . S
C1262 H1236 0.950 . S
C1262 C1258 1.385 . S
C1262 C1261 1.374 . S
C1263 C1260 1.499 . S
C1263 C1264 1.373 . S
C1263 C1265 1.389 . S
C1264 H1237 0.950 . S
C1264 C1250 1.377 . S
C1264 C1263 1.373 . S
C1265 C1249 1.377 . S
C1265 C1263 1.389 . S
C1265 C1266 1.524 . S
C1266 C1265 1.524 . S
C1266 C1267 1.397 . S
C1266 C1271 1.363 . S
C1267 H1238 0.950 . S
C1267 C1266 1.397 . S
C1267 C1268 1.334 . S
C1268 H1239 0.950 . S
C1268 C1267 1.334 . S
C1268 C1269 1.287 . S
C1269 C1268 1.287 . S
C1269 C1270 1.524 . S
C1269 H1272 0.999 . S
C1270 H1240 0.950 . S
C1270 C1269 1.524 . S
C1270 C1271 1.415 . S
C1271 H1241 0.950 . S
C1271 C1266 1.363 . S
C1271 C1270 1.415 . S
H1272 C1269 0.999 . S
H1273 C1254 0.913 . S
H1274 C1292 0.951 . S
H1275 C1294 0.951 . S
H1276 C1296 0.950 . S
H1277 C1297 0.950 . S
H1278 C1299 0.950 . S
H1279 C1302 0.950 . S
H1280 C1303 0.950 . S
H1281 C1305 0.950 . S
H1282 C1306 0.950 . S
H1283 C1307 0.951 . S
H1284 C1309 0.951 . S
H1285 C1311 0.950 . S
H1286 C1312 0.950 . S
H1287 C1314 0.950 . S
H1288 C1317 0.950 . S
H1289 C1318 0.950 . S
H1290 C1320 0.950 . S
H1291 C1321 0.950 . S
C1292 H1274 0.951 . S
C1292 C1293 1.366 . S
C1292 C1294 1.388 . S
C1293 C1292 1.366 . S
C1293 C1297 1.385 . S
C1294 H1275 0.951 . S
C1294 C1292 1.388 . S
C1294 C1295 1.366 . S
C1295 C1294 1.366 . S
C1295 C1296 1.414 . S
C1295 C1298 1.499 . S
C1296 H1276 0.950 . S
C1296 C1295 1.414 . S
C1296 C1297 1.374 . S
C1297 H1277 0.950 . S
C1297 C1293 1.385 . S
C1297 C1296 1.374 . S
C1298 C1295 1.499 . S
C1298 C1299 1.373 . S
C1298 C1300 1.389 . S
C1299 H1278 0.950 . S
C1299 C1298 1.373 . S
C1299 C1315 1.377 . S
C1300 C1298 1.389 . S
C1300 C1301 1.524 . S
C1300 C1314 1.377 . S
C1301 C1300 1.524 . S
C1301 C1302 1.397 . S
C1301 C1306 1.363 . S
C1302 H1279 0.950 . S
C1302 C1301 1.397 . S
C1302 C1303 1.334 . S
C1303 H1280 0.950 . S
C1303 C1302 1.334 . S
C1303 C1304 1.287 . S
C1304 C1303 1.287 . S
C1304 C1305 1.524 . S
C1304 H1323 0.913 . S
C1305 H1281 0.950 . S
C1305 C1304 1.524 . S
C1305 C1306 1.415 . S
C1306 H1282 0.950 . S
C1306 C1301 1.363 . S
C1306 C1305 1.415 . S
C1307 H1283 0.951 . S
C1307 C1308 1.366 . S
C1307 C1309 1.388 . S
C1308 C1307 1.366 . S
C1308 C1312 1.385 . S
C1309 H1284 0.951 . S
C1309 C1307 1.388 . S
C1309 C1310 1.366 . S
C1310 C1309 1.366 . S
C1310 C1311 1.414 . S
C1310 C1313 1.499 . S
C1311 H1285 0.950 . S
C1311 C1310 1.414 . S
C1311 C1312 1.374 . S
C1312 H1286 0.950 . S
C1312 C1308 1.385 . S
C1312 C1311 1.374 . S
C1313 C1310 1.499 . S
C1313 C1314 1.373 . S
C1313 C1315 1.389 . S
C1314 H1287 0.950 . S
C1314 C1300 1.377 . S
C1314 C1313 1.373 . S
C1315 C1299 1.377 . S
C1315 C1313 1.389 . S
C1315 C1316 1.524 . S
C1316 C1315 1.524 . S
C1316 C1317 1.397 . S
C1316 C1321 1.363 . S
C1317 H1288 0.950 . S
C1317 C1316 1.397 . S
C1317 C1318 1.334 . S
C1318 H1289 0.950 . S
C1318 C1317 1.334 . S
C1318 C1319 1.287 . S
C1319 C1318 1.287 . S
C1319 C1320 1.524 . S
C1319 H1322 0.999 . S
C1320 H1290 0.950 . S
C1320 C1319 1.524 . S
C1320 C1321 1.415 . S
C1321 H1291 0.950 . S
C1321 C1316 1.363 . S
C1321 C1320 1.415 . S
H1322 C1319 0.999 . S
H1323 C1304 0.913 . S
H1324 C1342 0.951 . S
H1325 C1344 0.951 . S
H1326 C1346 0.950 . S
H1327 C1347 0.950 . S
H1328 C1349 0.950 . S
H1329 C1352 0.950 . S
H1330 C1353 0.950 . S
H1331 C1355 0.950 . S
H1332 C1356 0.950 . S
H1333 C1357 0.951 . S
H1334 C1359 0.951 . S
H1335 C1361 0.950 . S
H1336 C1362 0.950 . S
H1337 C1364 0.950 . S
H1338 C1367 0.950 . S
H1339 C1368 0.950 . S
H1340 C1370 0.950 . S
H1341 C1371 0.950 . S
C1342 H1324 0.951 . S
C1342 C1343 1.366 . S
C1342 C1344 1.388 . S
C1343 C1342 1.366 . S
C1343 C1347 1.385 . S
C1344 H1325 0.951 . S
C1344 C1342 1.388 . S
C1344 C1345 1.366 . S
C1345 C1344 1.366 . S
C1345 C1346 1.414 . S
C1345 C1348 1.499 . S
C1346 H1326 0.950 . S
C1346 C1345 1.414 . S
C1346 C1347 1.374 . S
C1347 H1327 0.950 . S
C1347 C1343 1.385 . S
C1347 C1346 1.374 . S
C1348 C1345 1.499 . S
C1348 C1349 1.373 . S
C1348 C1350 1.389 . S
C1349 H1328 0.950 . S
C1349 C1348 1.373 . S
C1349 C1365 1.377 . S
C1350 C1348 1.389 . S
C1350 C1351 1.524 . S
C1350 C1364 1.377 . S
C1351 C1350 1.524 . S
C1351 C1352 1.397 . S
C1351 C1356 1.363 . S
C1352 H1329 0.950 . S
C1352 C1351 1.397 . S
C1352 C1353 1.334 . S
C1353 H1330 0.950 . S
C1353 C1352 1.334 . S
C1353 C1354 1.287 . S
C1354 C1353 1.287 . S
C1354 C1355 1.524 . S
C1354 H1373 0.913 . S
C1355 H1331 0.950 . S
C1355 C1354 1.524 . S
C1355 C1356 1.415 . S
C1356 H1332 0.950 . S
C1356 C1351 1.363 . S
C1356 C1355 1.415 . S
C1357 H1333 0.951 . S
C1357 C1358 1.366 . S
C1357 C1359 1.388 . S
C1358 C1357 1.366 . S
C1358 C1362 1.385 . S
C1359 H1334 0.951 . S
C1359 C1357 1.388 . S
C1359 C1360 1.366 . S
C1360 C1359 1.366 . S
C1360 C1361 1.414 . S
C1360 C1363 1.499 . S
C1361 H1335 0.950 . S
C1361 C1360 1.414 . S
C1361 C1362 1.374 . S
C1362 H1336 0.950 . S
C1362 C1358 1.385 . S
C1362 C1361 1.374 . S
C1363 C1360 1.499 . S
C1363 C1364 1.373 . S
C1363 C1365 1.389 . S
C1364 H1337 0.950 . S
C1364 C1350 1.377 . S
C1364 C1363 1.373 . S
C1365 C1349 1.377 . S
C1365 C1363 1.389 . S
C1365 C1366 1.524 . S
C1366 C1365 1.524 . S
C1366 C1367 1.397 . S
C1366 C1371 1.363 . S
C1367 H1338 0.950 . S
C1367 C1366 1.397 . S
C1367 C1368 1.334 . S
C1368 H1339 0.950 . S
C1368 C1367 1.334 . S
C1368 C1369 1.287 . S
C1369 C1368 1.287 . S
C1369 C1370 1.524 . S
C1369 H1372 0.999 . S
C1370 H1340 0.950 . S
C1370 C1369 1.524 . S
C1370 C1371 1.415 . S
C1371 H1341 0.950 . S
C1371 C1366 1.363 . S
C1371 C1370 1.415 . S
H1372 C1369 0.999 . S
H1373 C1354 0.913 . S
H1374 C1392 0.951 . S
H1375 C1394 0.951 . S
H1376 C1396 0.950 . S
H1377 C1397 0.950 . S
H1378 C1399 0.950 . S
H1379 C1402 0.950 . S
H1380 C1403 0.950 . S
H1381 C1405 0.950 . S
H1382 C1406 0.950 . S
H1383 C1407 0.951 . S
H1384 C1409 0.951 . S
H1385 C1411 0.950 . S
H1386 C1412 0.950 . S
H1387 C1414 0.950 . S
H1388 C1417 0.950 . S
H1389 C1418 0.950 . S
H1390 C1420 0.950 . S
H1391 C1421 0.950 . S
C1392 H1374 0.951 . S
C1392 C1393 1.366 . S
C1392 C1394 1.388 . S
C1393 C1392 1.366 . S
C1393 C1397 1.385 . S
C1394 H1375 0.951 . S
C1394 C1392 1.388 . S
C1394 C1395 1.366 . S
C1395 C1394 1.366 . S
C1395 C1396 1.414 . S
C1395 C1398 1.499 . S
C1396 H1376 0.950 . S
C1396 C1395 1.414 . S
C1396 C1397 1.374 . S
C1397 H1377 0.950 . S
C1397 C1393 1.385 . S
C1397 C1396 1.374 . S
C1398 C1395 1.499 . S
C1398 C1399 1.373 . S
C1398 C1400 1.389 . S
C1399 H1378 0.950 . S
C1399 C1398 1.373 . S
C1399 C1415 1.377 . S
C1400 C1398 1.389 . S
C1400 C1401 1.524 . S
C1400 C1414 1.377 . S
C1401 C1400 1.524 . S
C1401 C1402 1.397 . S
C1401 C1406 1.363 . S
C1402 H1379 0.950 . S
C1402 C1401 1.397 . S
C1402 C1403 1.334 . S
C1403 H1380 0.950 . S
C1403 C1402 1.334 . S
C1403 C1404 1.287 . S
C1404 C1403 1.287 . S
C1404 C1405 1.524 . S
C1404 H1423 0.913 . S
C1405 H1381 0.950 . S
C1405 C1404 1.524 . S
C1405 C1406 1.415 . S
C1406 H1382 0.950 . S
C1406 C1401 1.363 . S
C1406 C1405 1.415 . S
C1407 H1383 0.951 . S
C1407 C1408 1.366 . S
C1407 C1409 1.388 . S
C1408 C1407 1.366 . S
C1408 C1412 1.385 . S
C1409 H1384 0.951 . S
C1409 C1407 1.388 . S
C1409 C1410 1.366 . S
C1410 C1409 1.366 . S
C1410 C1411 1.414 . S
C1410 C1413 1.499 . S
C1411 H1385 0.950 . S
C1411 C1410 1.414 . S
C1411 C1412 1.374 . S
C1412 H1386 0.950 . S
C1412 C1408 1.385 . S
C1412 C1411 1.374 . S
C1413 C1410 1.499 . S
C1413 C1414 1.373 . S
C1413 C1415 1.389 . S
C1414 H1387 0.950 . S
C1414 C1400 1.377 . S
C1414 C1413 1.373 . S
C1415 C1399 1.377 . S
C1415 C1413 1.389 . S
C1415 C1416 1.524 . S
C1416 C1415 1.524 . S
C1416 C1417 1.397 . S
C1416 C1421 1.363 . S
C1417 H1388 0.950 . S
C1417 C1416 1.397 . S
C1417 C1418 1.334 . S
C1418 H1389 0.950 . S
C1418 C1417 1.334 . S
C1418 C1419 1.287 . S
C1419 C1418 1.287 . S
C1419 C1420 1.524 . S
C1419 H1422 0.999 . S
C1420 H1390 0.950 . S
C1420 C1419 1.524 . S
C1420 C1421 1.415 . S
C1421 H1391 0.950 . S
C1421 C1416 1.363 . S
C1421 C1420 1.415 . S
H1422 C1419 0.999 . S
H1423 C1404 0.913 . S
H1424 C1442 0.951 . S
H1425 C1444 0.951 . S
H1426 C1446 0.950 . S
H1427 C1447 0.950 . S
H1428 C1449 0.950 . S
H1429 C1452 0.950 . S
H1430 C1453 0.950 . S
H1431 C1455 0.973 . S
H1432 C1456 0.950 1_565 S
H1433 C1457 0.951 . S
H1434 C1459 0.951 . S
H1435 C1461 0.950 . S
H1436 C1462 0.950 . S
H1437 C1464 0.950 . S
H1438 C1467 0.950 . S
H1439 C1468 0.950 . S
H1440 C1470 0.973 . S
H1441 C1471 0.950 1_545 S
C1442 H1424 0.951 . S
C1442 C1443 1.366 . S
C1442 C1444 1.388 . S
C1443 C1442 1.366 . S
C1443 C1447 1.385 . S
C1444 H1425 0.951 . S
C1444 C1442 1.388 . S
C1444 C1445 1.366 . S
C1445 C1444 1.366 . S
C1445 C1446 1.414 . S
C1445 C1448 1.499 . S
C1446 H1426 0.950 . S
C1446 C1445 1.414 . S
C1446 C1447 1.374 . S
C1447 H1427 0.950 . S
C1447 C1443 1.385 . S
C1447 C1446 1.374 . S
C1448 C1445 1.499 . S
C1448 C1449 1.373 . S
C1448 C1450 1.389 . S
C1449 H1428 0.950 . S
C1449 C1448 1.373 . S
C1449 C1465 1.377 1_545 S
C1450 C1448 1.389 . S
C1450 C1451 1.524 . S
C1450 C1464 1.377 1_545 S
C1451 C1450 1.524 . S
C1451 C1452 1.397 . S
C1451 C1456 1.363 . S
C1452 H1429 0.950 . S
C1452 C1451 1.397 . S
C1452 C1453 1.334 . S
C1453 H1430 0.950 . S
C1453 C1452 1.334 . S
C1453 C1454 1.287 . S
C1454 C1453 1.287 . S
C1454 C1455 1.524 . S
C1454 H1473 0.913 . S
C1455 H1431 0.973 . S
C1455 C1454 1.524 . S
C1455 C1456 1.415 . S
C1456 H1432 0.950 1_545 S
C1456 C1451 1.363 . S
C1456 C1455 1.415 . S
C1457 H1433 0.951 . S
C1457 C1458 1.366 . S
C1457 C1459 1.388 . S
C1458 C1457 1.366 . S
C1458 C1462 1.385 . S
C1459 H1434 0.951 . S
C1459 C1457 1.388 . S
C1459 C1460 1.366 . S
C1460 C1459 1.366 . S
C1460 C1461 1.414 . S
C1460 C1463 1.499 . S
C1461 H1435 0.950 . S
C1461 C1460 1.414 . S
C1461 C1462 1.374 . S
C1462 H1436 0.950 . S
C1462 C1458 1.385 . S
C1462 C1461 1.374 . S
C1463 C1460 1.499 . S
C1463 C1464 1.373 . S
C1463 C1465 1.389 . S
C1464 H1437 0.950 . S
C1464 C1450 1.377 1_565 S
C1464 C1463 1.373 . S
C1465 C1449 1.377 1_565 S
C1465 C1463 1.389 . S
C1465 C1466 1.524 . S
C1466 C1465 1.524 . S
C1466 C1467 1.397 . S
C1466 C1471 1.363 . S
C1467 H1438 0.950 . S
C1467 C1466 1.397 . S
C1467 C1468 1.334 . S
C1468 H1439 0.950 . S
C1468 C1467 1.334 . S
C1468 C1469 1.287 . S
C1469 C1468 1.287 . S
C1469 C1470 1.524 . S
C1469 H1472 0.999 . S
C1470 H1440 0.973 . S
C1470 C1469 1.524 . S
C1470 C1471 1.415 . S
C1471 H1441 0.950 1_565 S
C1471 C1466 1.363 . S
C1471 C1470 1.415 . S
H1472 C1469 0.999 . S
H1473 C1454 0.913 . S
H1474 C1492 0.951 . S
H1475 C1494 0.951 . S
H1476 C1496 0.950 . S
H1477 C1497 0.950 . S
H1478 C1499 0.950 . S
H1479 C1502 0.950 . S
H1480 C1503 0.950 . S
H1481 C1505 0.950 . S
H1482 C1506 0.950 . S
H1483 C1507 0.951 . S
H1484 C1509 0.951 . S
H1485 C1511 0.950 . S
H1486 C1512 0.950 . S
H1487 C1514 0.950 . S
H1488 C1517 0.950 . S
H1489 C1518 0.950 . S
H1490 C1520 0.950 . S
H1491 C1521 0.950 . S
C1492 H1474 0.951 . S
C1492 C1493 1.366 . S
C1492 C1494 1.388 . S
C1493 C1492 1.366 . S
C1493 C1497 1.385 . S
C1494 H1475 0.951 . S
C1494 C1492 1.388 . S
C1494 C1495 1.366 . S
C1495 C1494 1.366 . S
C1495 C1496 1.414 . S
C1495 C1498 1.499 . S
C1496 H1476 0.950 . S
C1496 C1495 1.414 . S
C1496 C1497 1.374 . S
C1497 H1477 0.950 . S
C1497 C1493 1.385 . S
C1497 C1496 1.374 . S
C1498 C1495 1.499 . S
C1498 C1499 1.373 . S
C1498 C1500 1.389 . S
C1499 H1478 0.950 . S
C1499 C1498 1.373 . S
C1499 C1515 1.377 1_655 S
C1500 C1498 1.389 . S
C1500 C1501 1.524 . S
C1500 C1514 1.377 1_655 S
C1501 C1500 1.524 . S
C1501 C1502 1.397 . S
C1501 C1506 1.363 . S
C1502 H1479 0.950 . S
C1502 C1501 1.397 . S
C1502 C1503 1.334 . S
C1503 H1480 0.950 . S
C1503 C1502 1.334 . S
C1503 C1504 1.287 . S
C1504 C1503 1.287 . S
C1504 C1505 1.524 . S
C1504 H1523 0.913 . S
C1505 H1481 0.950 . S
C1505 C1504 1.524 . S
C1505 C1506 1.415 . S
C1506 H1482 0.950 . S
C1506 C1501 1.363 . S
C1506 C1505 1.415 . S
C1507 H1483 0.951 . S
C1507 C1508 1.366 . S
C1507 C1509 1.388 . S
C1508 C1507 1.366 . S
C1508 C1512 1.385 . S
C1509 H1484 0.951 . S
C1509 C1507 1.388 . S
C1509 C1510 1.366 . S
C1510 C1509 1.366 . S
C1510 C1511 1.414 . S
C1510 C1513 1.499 . S
C1511 H1485 0.950 . S
C1511 C1510 1.414 . S
C1511 C1512 1.374 . S
C1512 H1486 0.950 . S
C1512 C1508 1.385 . S
C1512 C1511 1.374 . S
C1513 C1510 1.499 . S
C1513 C1514 1.373 . S
C1513 C1515 1.389 . S
C1514 H1487 0.950 . S
C1514 C1500 1.377 1_455 S
C1514 C1513 1.373 . S
C1515 C1499 1.377 1_455 S
C1515 C1513 1.389 . S
C1515 C1516 1.524 . S
C1516 C1515 1.524 . S
C1516 C1517 1.397 . S
C1516 C1521 1.363 . S
C1517 H1488 0.950 . S
C1517 C1516 1.397 . S
C1517 C1518 1.334 . S
C1518 H1489 0.950 . S
C1518 C1517 1.334 . S
C1518 C1519 1.287 . S
C1519 C1518 1.287 . S
C1519 C1520 1.524 . S
C1519 H1522 0.999 . S
C1520 H1490 0.950 . S
C1520 C1519 1.524 . S
C1520 C1521 1.415 . S
C1521 H1491 0.950 . S
C1521 C1516 1.363 . S
C1521 C1520 1.415 . S
H1522 C1519 0.999 . S
H1523 C1504 0.913 . S
H1524 C1542 0.951 . S
H1525 C1544 0.951 . S
H1526 C1546 0.950 . S
H1527 C1547 0.950 . S
H1528 C1549 0.950 . S
H1529 C1552 0.950 . S
H1530 C1553 0.950 . S
H1531 C1555 0.950 . S
H1532 C1556 0.950 1_565 S
H1533 C1557 0.951 . S
H1534 C1559 0.951 . S
H1535 C1561 0.950 . S
H1536 C1562 0.950 . S
H1537 C1564 0.950 . S
H1538 C1567 0.950 . S
H1539 C1568 0.950 . S
H1540 C1570 0.950 . S
H1541 C1571 0.950 1_545 S
C1542 H1524 0.951 . S
C1542 C1543 1.366 . S
C1542 C1544 1.388 . S
C1543 C1542 1.366 . S
C1543 C1547 1.385 . S
C1544 H1525 0.951 . S
C1544 C1542 1.388 . S
C1544 C1545 1.366 . S
C1545 C1544 1.366 . S
C1545 C1546 1.414 . S
C1545 C1548 1.499 . S
C1546 H1526 0.950 . S
C1546 C1545 1.414 . S
C1546 C1547 1.374 . S
C1547 H1527 0.950 . S
C1547 C1543 1.385 . S
C1547 C1546 1.374 . S
C1548 C1545 1.499 . S
C1548 C1549 1.373 . S
C1548 C1550 1.389 . S
C1549 H1528 0.950 . S
C1549 C1548 1.373 . S
C1549 C1565 1.377 1_545 S
C1550 C1548 1.389 . S
C1550 C1551 1.524 . S
C1550 C1564 1.377 1_545 S
C1551 C1550 1.524 . S
C1551 C1552 1.397 . S
C1551 C1556 1.363 . S
C1552 H1529 0.950 . S
C1552 C1551 1.397 . S
C1552 C1553 1.334 . S
C1553 H1530 0.950 . S
C1553 C1552 1.334 . S
C1553 C1554 1.287 . S
C1554 C1553 1.287 . S
C1554 C1555 1.524 . S
C1554 H1573 0.913 . S
C1555 H1531 0.950 . S
C1555 C1554 1.524 . S
C1555 C1556 1.415 . S
C1556 H1532 0.950 1_545 S
C1556 C1551 1.363 . S
C1556 C1555 1.415 . S
C1557 H1533 0.951 . S
C1557 C1558 1.366 . S
C1557 C1559 1.388 . S
C1558 C1557 1.366 . S
C1558 C1562 1.385 . S
C1559 H1534 0.951 . S
C1559 C1557 1.388 . S
C1559 C1560 1.366 . S
C1560 C1559 1.366 . S
C1560 C1561 1.414 . S
C1560 C1563 1.499 . S
C1561 H1535 0.950 . S
C1561 C1560 1.414 . S
C1561 C1562 1.374 . S
C1562 H1536 0.950 . S
C1562 C1558 1.385 . S
C1562 C1561 1.374 . S
C1563 C1560 1.499 . S
C1563 C1564 1.373 . S
C1563 C1565 1.389 . S
C1564 H1537 0.950 . S
C1564 C1550 1.377 1_565 S
C1564 C1563 1.373 . S
C1565 C1549 1.377 1_565 S
C1565 C1563 1.389 . S
C1565 C1566 1.524 . S
C1566 C1565 1.524 . S
C1566 C1567 1.397 . S
C1566 C1571 1.363 . S
C1567 H1538 0.950 . S
C1567 C1566 1.397 . S
C1567 C1568 1.334 . S
C1568 H1539 0.950 . S
C1568 C1567 1.334 . S
C1568 C1569 1.287 . S
C1569 C1568 1.287 . S
C1569 C1570 1.524 . S
C1569 H1572 0.999 . S
C1570 H1540 0.950 . S
C1570 C1569 1.524 . S
C1570 C1571 1.415 . S
C1571 H1541 0.950 1_565 S
C1571 C1566 1.363 . S
C1571 C1570 1.415 . S
H1572 C1569 0.999 . S
H1573 C1554 0.913 . S
H1574 C1592 0.951 . S
H1575 C1594 0.951 . S
H1576 C1596 0.950 . S
H1577 C1597 0.950 . S
H1578 C1599 0.950 . S
H1579 C1602 0.950 . S
H1580 C1603 0.950 . S
H1581 C1605 0.950 . S
H1582 C1606 0.950 . S
H1583 C1607 0.951 . S
H1584 C1609 0.951 . S
H1585 C1611 0.950 . S
H1586 C1612 0.950 . S
H1587 C1614 0.950 . S
H1588 C1617 0.950 . S
H1589 C1618 0.950 . S
H1590 C1620 0.950 . S
H1591 C1621 0.950 . S
C1592 H1574 0.951 . S
C1592 C1593 1.366 . S
C1592 C1594 1.388 . S
C1593 C1592 1.366 . S
C1593 C1597 1.385 . S
C1594 H1575 0.951 . S
C1594 C1592 1.388 . S
C1594 C1595 1.366 . S
C1595 C1594 1.366 . S
C1595 C1596 1.414 . S
C1595 C1598 1.499 . S
C1596 H1576 0.950 . S
C1596 C1595 1.414 . S
C1596 C1597 1.374 . S
C1597 H1577 0.950 . S
C1597 C1593 1.385 . S
C1597 C1596 1.374 . S
C1598 C1595 1.499 . S
C1598 C1599 1.373 . S
C1598 C1600 1.389 . S
C1599 H1578 0.950 . S
C1599 C1598 1.373 . S
C1599 C1615 1.377 1_455 S
C1600 C1598 1.389 . S
C1600 C1601 1.524 . S
C1600 C1614 1.377 1_455 S
C1601 C1600 1.524 . S
C1601 C1602 1.397 . S
C1601 C1606 1.363 1_455 S
C1602 H1579 0.950 . S
C1602 C1601 1.397 . S
C1602 C1603 1.334 . S
C1603 H1580 0.950 . S
C1603 C1602 1.334 . S
C1603 C1604 1.287 . S
C1604 C1603 1.287 . S
C1604 C1605 1.524 1_455 S
C1604 H1623 0.913 . S
C1605 H1581 0.950 . S
C1605 C1604 1.524 1_655 S
C1605 C1606 1.415 . S
C1606 H1582 0.950 . S
C1606 C1601 1.363 1_655 S
C1606 C1605 1.415 . S
C1607 H1583 0.951 . S
C1607 C1608 1.366 . S
C1607 C1609 1.388 . S
C1608 C1607 1.366 . S
C1608 C1612 1.385 . S
C1609 H1584 0.951 . S
C1609 C1607 1.388 . S
C1609 C1610 1.366 . S
C1610 C1609 1.366 . S
C1610 C1611 1.414 . S
C1610 C1613 1.499 . S
C1611 H1585 0.950 . S
C1611 C1610 1.414 . S
C1611 C1612 1.374 . S
C1612 H1586 0.950 . S
C1612 C1608 1.385 . S
C1612 C1611 1.374 . S
C1613 C1610 1.499 . S
C1613 C1614 1.373 . S
C1613 C1615 1.389 . S
C1614 H1587 0.950 . S
C1614 C1600 1.377 1_655 S
C1614 C1613 1.373 . S
C1615 C1599 1.377 1_655 S
C1615 C1613 1.389 . S
C1615 C1616 1.524 . S
C1616 C1615 1.524 . S
C1616 C1617 1.397 . S
C1616 C1621 1.363 1_655 S
C1617 H1588 0.950 . S
C1617 C1616 1.397 . S
C1617 C1618 1.334 . S
C1618 H1589 0.950 . S
C1618 C1617 1.334 . S
C1618 C1619 1.287 . S
C1619 C1618 1.287 . S
C1619 C1620 1.524 1_655 S
C1619 H1622 0.999 . S
C1620 H1590 0.950 . S
C1620 C1619 1.524 1_455 S
C1620 C1621 1.415 . S
C1621 H1591 0.950 . S
C1621 C1616 1.363 1_455 S
C1621 C1620 1.415 . S
H1622 C1619 0.999 . S
H1623 C1604 0.913 . S
H1624 C1642 0.951 . S
H1625 C1644 0.951 . S
H1626 C1646 0.950 . S
H1627 C1647 0.950 . S
H1628 C1649 0.950 . S
H1629 C1652 0.950 . S
H1630 C1653 0.950 . S
H1631 C1655 0.950 . S
H1632 C1656 0.950 . S
H1633 C1657 0.951 . S
H1634 C1659 0.951 . S
H1635 C1661 0.950 . S
H1636 C1662 0.950 . S
H1637 C1664 0.950 . S
H1638 C1667 0.950 . S
H1639 C1668 0.950 . S
H1640 C1670 0.950 . S
H1641 C1671 0.950 . S
C1642 H1624 0.951 . S
C1642 C1643 1.366 . S
C1642 C1644 1.388 . S
C1643 C1642 1.366 . S
C1643 C1647 1.385 . S
C1644 H1625 0.951 . S
C1644 C1642 1.388 . S
C1644 C1645 1.366 . S
C1645 C1644 1.366 . S
C1645 C1646 1.414 . S
C1645 C1648 1.499 . S
C1646 H1626 0.950 . S
C1646 C1645 1.414 . S
C1646 C1647 1.374 . S
C1647 H1627 0.950 . S
C1647 C1643 1.385 . S
C1647 C1646 1.374 . S
C1648 C1645 1.499 . S
C1648 C1649 1.373 . S
C1648 C1650 1.389 . S
C1649 H1628 0.950 . S
C1649 C1648 1.373 . S
C1649 C1665 1.377 1_545 S
C1650 C1648 1.389 . S
C1650 C1651 1.524 . S
C1650 C1664 1.377 1_545 S
C1651 C1650 1.524 . S
C1651 C1652 1.397 . S
C1651 C1656 1.363 . S
C1652 H1629 0.950 . S
C1652 C1651 1.397 . S
C1652 C1653 1.334 . S
C1653 H1630 0.950 . S
C1653 C1652 1.334 . S
C1653 C1654 1.287 . S
C1654 C1653 1.287 . S
C1654 C1655 1.524 . S
C1654 H1673 0.913 . S
C1655 H1631 0.950 . S
C1655 C1654 1.524 . S
C1655 C1656 1.415 . S
C1656 H1632 0.950 . S
C1656 C1651 1.363 . S
C1656 C1655 1.415 . S
C1657 H1633 0.951 . S
C1657 C1658 1.366 . S
C1657 C1659 1.388 . S
C1658 C1657 1.366 . S
C1658 C1662 1.385 . S
C1659 H1634 0.951 . S
C1659 C1657 1.388 . S
C1659 C1660 1.366 . S
C1660 C1659 1.366 . S
C1660 C1661 1.414 . S
C1660 C1663 1.499 . S
C1661 H1635 0.950 . S
C1661 C1660 1.414 . S
C1661 C1662 1.374 . S
C1662 H1636 0.950 . S
C1662 C1658 1.385 . S
C1662 C1661 1.374 . S
C1663 C1660 1.499 . S
C1663 C1664 1.373 . S
C1663 C1665 1.389 . S
C1664 H1637 0.950 . S
C1664 C1650 1.377 1_565 S
C1664 C1663 1.373 . S
C1665 C1649 1.377 1_565 S
C1665 C1663 1.389 . S
C1665 C1666 1.524 . S
C1666 C1665 1.524 . S
C1666 C1667 1.397 . S
C1666 C1671 1.363 . S
C1667 H1638 0.950 . S
C1667 C1666 1.397 . S
C1667 C1668 1.334 . S
C1668 H1639 0.950 . S
C1668 C1667 1.334 . S
C1668 C1669 1.287 . S
C1669 C1668 1.287 . S
C1669 C1670 1.524 . S
C1669 H1672 0.999 . S
C1670 H1640 0.950 . S
C1670 C1669 1.524 . S
C1670 C1671 1.415 . S
C1671 H1641 0.950 . S
C1671 C1666 1.363 . S
C1671 C1670 1.415 . S
H1672 C1669 0.999 . S
H1673 C1654 0.913 . S
H1674 C1692 0.951 . S
H1675 C1694 0.951 . S
H1676 C1696 0.950 . S
H1677 C1697 0.950 . S
H1678 C1699 0.950 . S
H1679 C1702 0.950 . S
H1680 C1703 0.950 . S
H1681 C1705 0.950 1_455 S
H1682 C1706 0.944 1_455 S
H1683 C1707 0.951 . S
H1684 C1709 0.951 . S
H1685 C1711 0.950 . S
H1686 C1712 0.950 . S
H1687 C1714 0.950 . S
H1688 C1717 0.950 . S
H1689 C1718 0.950 . S
H1690 C1720 0.950 1_655 S
H1691 C1721 0.944 1_655 S
C1692 H1674 0.951 . S
C1692 C1693 1.366 . S
C1692 C1694 1.388 . S
C1693 C1692 1.366 . S
C1693 C1697 1.385 . S
C1694 H1675 0.951 . S
C1694 C1692 1.388 . S
C1694 C1695 1.366 . S
C1695 C1694 1.366 . S
C1695 C1696 1.414 . S
C1695 C1698 1.499 . S
C1696 H1676 0.950 . S
C1696 C1695 1.414 . S
C1696 C1697 1.374 . S
C1697 H1677 0.950 . S
C1697 C1693 1.385 . S
C1697 C1696 1.374 . S
C1698 C1695 1.499 . S
C1698 C1699 1.373 . S
C1698 C1700 1.389 . S
C1699 H1678 0.950 . S
C1699 C1698 1.373 . S
C1699 C1715 1.377 1_655 S
C1700 C1698 1.389 . S
C1700 C1701 1.524 . S
C1700 C1714 1.377 1_655 S
C1701 C1700 1.524 . S
C1701 C1702 1.397 . S
C1701 C1706 1.367 . S
C1702 H1679 0.950 . S
C1702 C1701 1.397 . S
C1702 C1703 1.334 . S
C1703 H1680 0.950 . S
C1703 C1702 1.334 . S
C1703 C1704 1.287 . S
C1704 C1703 1.287 . S
C1704 C1705 1.524 . S
C1704 H1723 0.913 . S
C1705 H1681 0.950 1_655 S
C1705 C1704 1.524 . S
C1705 C1706 1.417 . S
C1706 H1682 0.944 1_655 S
C1706 C1701 1.367 . S
C1706 C1705 1.417 . S
C1707 H1683 0.951 . S
C1707 C1708 1.366 . S
C1707 C1709 1.388 . S
C1708 C1707 1.366 . S
C1708 C1712 1.385 . S
C1709 H1684 0.951 . S
C1709 C1707 1.388 . S
C1709 C1710 1.366 . S
C1710 C1709 1.366 . S
C1710 C1711 1.414 . S
C1710 C1713 1.499 . S
C1711 H1685 0.950 . S
C1711 C1710 1.414 . S
C1711 C1712 1.374 . S
C1712 H1686 0.950 . S
C1712 C1708 1.385 . S
C1712 C1711 1.374 . S
C1713 C1710 1.499 . S
C1713 C1714 1.373 . S
C1713 C1715 1.389 . S
C1714 H1687 0.950 . S
C1714 C1700 1.377 1_455 S
C1714 C1713 1.373 . S
C1715 C1699 1.377 1_455 S
C1715 C1713 1.389 . S
C1715 C1716 1.524 . S
C1716 C1715 1.524 . S
C1716 C1717 1.397 . S
C1716 C1721 1.367 . S
C1717 H1688 0.950 . S
C1717 C1716 1.397 . S
C1717 C1718 1.334 . S
C1718 H1689 0.950 . S
C1718 C1717 1.334 . S
C1718 C1719 1.287 . S
C1719 C1718 1.287 . S
C1719 C1720 1.524 . S
C1719 H1722 0.999 . S
C1720 H1690 0.950 1_455 S
C1720 C1719 1.524 . S
C1720 C1721 1.417 . S
C1721 H1691 0.944 1_455 S
C1721 C1716 1.367 . S
C1721 C1720 1.417 . S
H1722 C1719 0.999 . S
H1723 C1704 0.913 . S
H1724 C1742 0.951 . S
H1725 C1744 0.951 . S
H1726 C1746 0.950 . S
H1727 C1747 0.950 . S
H1728 C1749 0.950 . S
H1729 C1752 0.950 . S
H1730 C1753 0.950 . S
H1731 C1755 0.950 . S
H1732 C1756 0.950 . S
H1733 C1757 0.951 . S
H1734 C1759 0.951 . S
H1735 C1761 0.950 . S
H1736 C1762 0.950 . S
H1737 C1764 0.950 . S
H1738 C1767 0.950 . S
H1739 C1768 0.950 . S
H1740 C1770 0.950 . S
H1741 C1771 0.950 . S
C1742 H1724 0.951 . S
C1742 C1743 1.366 . S
C1742 C1744 1.388 . S
C1743 C1742 1.366 . S
C1743 C1747 1.385 . S
C1744 H1725 0.951 . S
C1744 C1742 1.388 . S
C1744 C1745 1.366 . S
C1745 C1744 1.366 . S
C1745 C1746 1.414 . S
C1745 C1748 1.499 . S
C1746 H1726 0.950 . S
C1746 C1745 1.414 . S
C1746 C1747 1.374 . S
C1747 H1727 0.950 . S
C1747 C1743 1.385 . S
C1747 C1746 1.374 . S
C1748 C1745 1.499 . S
C1748 C1749 1.373 . S
C1748 C1750 1.389 . S
C1749 H1728 0.950 . S
C1749 C1748 1.373 . S
C1749 C1765 1.377 1_565 S
C1750 C1748 1.389 . S
C1750 C1751 1.524 . S
C1750 C1764 1.377 1_565 S
C1751 C1750 1.524 . S
C1751 C1752 1.397 . S
C1751 C1756 1.363 . S
C1752 H1729 0.950 . S
C1752 C1751 1.397 . S
C1752 C1753 1.334 . S
C1753 H1730 0.950 . S
C1753 C1752 1.334 . S
C1753 C1754 1.287 . S
C1754 C1753 1.287 . S
C1754 C1755 1.524 . S
C1754 H1773 0.913 . S
C1755 H1731 0.950 . S
C1755 C1754 1.524 . S
C1755 C1756 1.415 . S
C1756 H1732 0.950 . S
C1756 C1751 1.363 . S
C1756 C1755 1.415 . S
C1757 H1733 0.951 . S
C1757 C1758 1.366 . S
C1757 C1759 1.388 . S
C1758 C1757 1.366 . S
C1758 C1762 1.385 . S
C1759 H1734 0.951 . S
C1759 C1757 1.388 . S
C1759 C1760 1.366 . S
C1760 C1759 1.366 . S
C1760 C1761 1.414 . S
C1760 C1763 1.499 . S
C1761 H1735 0.950 . S
C1761 C1760 1.414 . S
C1761 C1762 1.374 . S
C1762 H1736 0.950 . S
C1762 C1758 1.385 . S
C1762 C1761 1.374 . S
C1763 C1760 1.499 . S
C1763 C1764 1.373 . S
C1763 C1765 1.389 . S
C1764 H1737 0.950 . S
C1764 C1750 1.377 1_545 S
C1764 C1763 1.373 . S
C1765 C1749 1.377 1_545 S
C1765 C1763 1.389 . S
C1765 C1766 1.524 . S
C1766 C1765 1.524 . S
C1766 C1767 1.397 . S
C1766 C1771 1.363 . S
C1767 H1738 0.950 . S
C1767 C1766 1.397 . S
C1767 C1768 1.334 . S
C1768 H1739 0.950 . S
C1768 C1767 1.334 . S
C1768 C1769 1.287 . S
C1769 C1768 1.287 . S
C1769 C1770 1.524 . S
C1769 H1772 0.999 . S
C1770 H1740 0.950 . S
C1770 C1769 1.524 . S
C1770 C1771 1.415 . S
C1771 H1741 0.950 . S
C1771 C1766 1.363 . S
C1771 C1770 1.415 . S
H1772 C1769 0.999 . S
H1773 C1754 0.913 . S
H1774 C1792 0.951 . S
H1775 C1794 0.951 . S
H1776 C1796 0.950 . S
H1777 C1797 0.950 . S
H1778 C1799 0.950 . S
H1779 C1802 0.950 . S
H1780 C1803 0.950 . S
H1781 C1805 0.947 . S
H1782 C1806 0.950 . S
H1783 C1807 0.951 . S
H1784 C1809 0.951 . S
H1785 C1811 0.950 . S
H1786 C1812 0.950 . S
H1787 C1814 0.950 . S
H1788 C1817 0.950 . S
H1789 C1818 0.950 . S
H1790 C1820 0.947 . S
H1791 C1821 0.950 . S
C1792 H1774 0.951 . S
C1792 C1793 1.366 . S
C1792 C1794 1.388 . S
C1793 C1792 1.366 . S
C1793 C1797 1.385 . S
C1794 H1775 0.951 . S
C1794 C1792 1.388 . S
C1794 C1795 1.366 . S
C1795 C1794 1.366 . S
C1795 C1796 1.414 . S
C1795 C1798 1.499 . S
C1796 H1776 0.950 . S
C1796 C1795 1.414 . S
C1796 C1797 1.374 . S
C1797 H1777 0.950 . S
C1797 C1793 1.385 . S
C1797 C1796 1.374 . S
C1798 C1795 1.499 . S
C1798 C1799 1.373 . S
C1798 C1800 1.389 . S
C1799 H1778 0.950 . S
C1799 C1798 1.373 . S
C1799 C1815 1.377 1_455 S
C1800 C1798 1.389 . S
C1800 C1801 1.524 . S
C1800 C1814 1.377 1_455 S
C1801 C1800 1.524 . S
C1801 C1802 1.397 . S
C1801 C1806 1.363 1_455 S
C1802 H1779 0.950 . S
C1802 C1801 1.397 . S
C1802 C1803 1.334 . S
C1803 H1780 0.950 . S
C1803 C1802 1.334 . S
C1803 C1804 1.287 . S
C1804 C1803 1.287 . S
C1804 C1805 1.527 1_455 S
C1804 H1823 0.913 . S
C1805 H1781 0.947 . S
C1805 C1804 1.527 1_655 S
C1805 C1806 1.414 . S
C1806 H1782 0.950 . S
C1806 C1801 1.363 1_655 S
C1806 C1805 1.414 . S
C1807 H1783 0.951 . S
C1807 C1808 1.366 . S
C1807 C1809 1.388 . S
C1808 C1807 1.366 . S
C1808 C1812 1.385 . S
C1809 H1784 0.951 . S
C1809 C1807 1.388 . S
C1809 C1810 1.366 . S
C1810 C1809 1.366 . S
C1810 C1811 1.414 . S
C1810 C1813 1.499 . S
C1811 H1785 0.950 . S
C1811 C1810 1.414 . S
C1811 C1812 1.374 . S
C1812 H1786 0.950 . S
C1812 C1808 1.385 . S
C1812 C1811 1.374 . S
C1813 C1810 1.499 . S
C1813 C1814 1.373 . S
C1813 C1815 1.389 . S
C1814 H1787 0.950 . S
C1814 C1800 1.377 1_655 S
C1814 C1813 1.373 . S
C1815 C1799 1.377 1_655 S
C1815 C1813 1.389 . S
C1815 C1816 1.524 . S
C1816 C1815 1.524 . S
C1816 C1817 1.397 . S
C1816 C1821 1.363 1_655 S
C1817 H1788 0.950 . S
C1817 C1816 1.397 . S
C1817 C1818 1.334 . S
C1818 H1789 0.950 . S
C1818 C1817 1.334 . S
C1818 C1819 1.287 . S
C1819 C1818 1.287 . S
C1819 C1820 1.527 1_655 S
C1819 H1822 0.999 . S
C1820 H1790 0.947 . S
C1820 C1819 1.527 1_455 S
C1820 C1821 1.414 . S
C1821 H1791 0.950 . S
C1821 C1816 1.363 1_455 S
C1821 C1820 1.414 . S
H1822 C1819 0.999 . S
H1823 C1804 0.913 . S
C243 C81 1.368 . S
C258 C11 1.369 . S
C293 C95 1.369 . S
C308 C25 1.369 . S
C343 C39 1.369 . S
C358 C109 1.369 . S
C393 C53 1.369 . S
C408 C67 1.369 . S
C443 C193 1.369 . S
C458 C123 1.369 . S
C493 C207 1.369 . S
C508 C137 1.368 . S
C543 C151 1.369 . S
C558 C221 1.369 . S
C593 C165 1.369 . S
C608 C179 1.369 . S
C643 C149 1.544 . S
C658 C9 1.544 . S
C693 C163 1.544 . S
C708 C23 1.544 . S
C743 C121 1.544 . S
C758 C37 1.544 . S
C793 C51 1.544 . S
C808 C135 1.544 . S
C843 C205 1.544 . S
C858 C65 1.544 . S
C893 C219 1.544 . S
C908 C79 1.544 . S
C943 C93 1.544 . S
C958 C177 1.544 . S
C993 C191 1.544 . S
C1008 C107 1.544 . S
C1043 C61 2.048 . S
C1058 C5 2.048 . S
C1093 C19 2.048 . S
C1108 C75 2.048 . S
C1143 C33 2.048 . S
C1158 C89 2.048 . S
C1193 C103 2.048 . S
C1208 C47 2.048 . S
C1243 C112 0.743 . S
C1258 C168 0.743 . S
C1293 C182 0.742 . S
C1308 C126 0.743 . S
C1343 C140 0.742 . S
C1358 C196 0.743 . S
C1393 C210 0.743 . S
C1408 C154 0.742 . S
C1443 C159 2.048 . S
C1458 C187 2.048 . S
C1493 C117 2.048 . S
C1508 C201 2.048 . S
C1543 C215 2.048 . S
C1558 C131 2.048 . S
C1593 C145 2.048 . S
C1608 C173 2.048 . S
C1643 C70 0.742 . S
C1658 C42 0.741 . S
C1693 C84 0.743 . S
C1708 C0 0.742 . S
C1743 C98 0.742 . S
C1758 C14 0.743 . S
C1793 C56 0.743 . S
C1808 C28 0.742 . S
