# Generated by pormake.
# Topology cbo, (4)-cn, num edge types: 1
# Building blocks:
#     Node 0, Type 0, BuildingBlock: NAHDIM_clean_sbu_0, # of connection points: 4
#     Node 1, Type 0, BuildingBlock: NAHDIM_clean_sbu_0, # of connection points: 4
#     Node 2, Type 0, BuildingBlock: NAHDIM_clean_sbu_0, # of connection points: 4
#     Node 3, Type 0, BuildingBlock: NAHDIM_clean_sbu_0, # of connection points: 4
#     Node 4, Type 0, BuildingBlock: NAHDIM_clean_sbu_0, # of connection points: 4
#     Node 5, Type 0, BuildingBlock: NAHDIM_clean_sbu_0, # of connection points: 4
#     Node 6, Type 0, BuildingBlock: NAHDIM_clean_sbu_0, # of connection points: 4
#     Node 7, Type 0, BuildingBlock: NAHDIM_clean_sbu_0, # of connection points: 4
#     Node 8, Type 0, BuildingBlock: NAHDIM_clean_sbu_0, # of connection points: 4
#     Node 9, Type 0, BuildingBlock: NAHDIM_clean_sbu_0, # of connection points: 4
#     Node 10, Type 0, BuildingBlock: NAHDIM_clean_sbu_0, # of connection points: 4
#     Node 11, Type 0, BuildingBlock: NAHDIM_clean_sbu_0, # of connection points: 4
#     Node 12, Type 0, BuildingBlock: NAHDIM_clean_sbu_0, # of connection points: 4
#     Node 13, Type 0, BuildingBlock: NAHDIM_clean_sbu_0, # of connection points: 4
#     Node 14, Type 0, BuildingBlock: NAHDIM_clean_sbu_0, # of connection points: 4
#     Node 15, Type 0, BuildingBlock: NAHDIM_clean_sbu_0, # of connection points: 4
#     Node 16, Type 0, BuildingBlock: NAHDIM_clean_sbu_0, # of connection points: 4
#     Node 17, Type 0, BuildingBlock: NAHDIM_clean_sbu_0, # of connection points: 4
#     Node 18, Type 0, BuildingBlock: NAHDIM_clean_sbu_0, # of connection points: 4
#     Node 19, Type 0, BuildingBlock: NAHDIM_clean_sbu_0, # of connection points: 4
#     Node 20, Type 0, BuildingBlock: NAHDIM_clean_sbu_0, # of connection points: 4
#     Node 21, Type 0, BuildingBlock: NAHDIM_clean_sbu_0, # of connection points: 4
#     Node 22, Type 0, BuildingBlock: NAHDIM_clean_sbu_0, # of connection points: 4
#     Node 23, Type 0, BuildingBlock: NAHDIM_clean_sbu_0, # of connection points: 4
#     Edge 24, Type (0, 0), BuildingBlock: EZIPEK_clean_linker_0, # of connection points: 2
#     Edge 25, Type (0, 0), BuildingBlock: EZIPEK_clean_linker_0, # of connection points: 2
#     Edge 26, Type (0, 0), BuildingBlock: EZIPEK_clean_linker_0, # of connection points: 2
#     Edge 27, Type (0, 0), BuildingBlock: EZIPEK_clean_linker_0, # of connection points: 2
#     Edge 28, Type (0, 0), BuildingBlock: EZIPEK_clean_linker_0, # of connection points: 2
#     Edge 29, Type (0, 0), BuildingBlock: EZIPEK_clean_linker_0, # of connection points: 2
#     Edge 30, Type (0, 0), BuildingBlock: EZIPEK_clean_linker_0, # of connection points: 2
#     Edge 31, Type (0, 0), BuildingBlock: EZIPEK_clean_linker_0, # of connection points: 2
#     Edge 32, Type (0, 0), BuildingBlock: EZIPEK_clean_linker_0, # of connection points: 2
#     Edge 33, Type (0, 0), BuildingBlock: EZIPEK_clean_linker_0, # of connection points: 2
#     Edge 34, Type (0, 0), BuildingBlock: EZIPEK_clean_linker_0, # of connection points: 2
#     Edge 35, Type (0, 0), BuildingBlock: EZIPEK_clean_linker_0, # of connection points: 2
#     Edge 36, Type (0, 0), BuildingBlock: EZIPEK_clean_linker_0, # of connection points: 2
#     Edge 37, Type (0, 0), BuildingBlock: EZIPEK_clean_linker_0, # of connection points: 2
#     Edge 38, Type (0, 0), BuildingBlock: EZIPEK_clean_linker_0, # of connection points: 2
#     Edge 39, Type (0, 0), BuildingBlock: EZIPEK_clean_linker_0, # of connection points: 2
#     Edge 40, Type (0, 0), BuildingBlock: EZIPEK_clean_linker_0, # of connection points: 2
#     Edge 41, Type (0, 0), BuildingBlock: EZIPEK_clean_linker_0, # of connection points: 2
#     Edge 42, Type (0, 0), BuildingBlock: EZIPEK_clean_linker_0, # of connection points: 2
#     Edge 43, Type (0, 0), BuildingBlock: EZIPEK_clean_linker_0, # of connection points: 2
#     Edge 44, Type (0, 0), BuildingBlock: EZIPEK_clean_linker_0, # of connection points: 2
#     Edge 45, Type (0, 0), BuildingBlock: EZIPEK_clean_linker_0, # of connection points: 2
#     Edge 46, Type (0, 0), BuildingBlock: EZIPEK_clean_linker_0, # of connection points: 2
#     Edge 47, Type (0, 0), BuildingBlock: EZIPEK_clean_linker_0, # of connection points: 2
#     Edge 48, Type (0, 0), BuildingBlock: EZIPEK_clean_linker_0, # of connection points: 2
#     Edge 49, Type (0, 0), BuildingBlock: EZIPEK_clean_linker_0, # of connection points: 2
#     Edge 50, Type (0, 0), BuildingBlock: EZIPEK_clean_linker_0, # of connection points: 2
#     Edge 51, Type (0, 0), BuildingBlock: EZIPEK_clean_linker_0, # of connection points: 2
#     Edge 52, Type (0, 0), BuildingBlock: EZIPEK_clean_linker_0, # of connection points: 2
#     Edge 53, Type (0, 0), BuildingBlock: EZIPEK_clean_linker_0, # of connection points: 2
#     Edge 54, Type (0, 0), BuildingBlock: EZIPEK_clean_linker_0, # of connection points: 2
#     Edge 55, Type (0, 0), BuildingBlock: EZIPEK_clean_linker_0, # of connection points: 2
#     Edge 56, Type (0, 0), BuildingBlock: EZIPEK_clean_linker_0, # of connection points: 2
#     Edge 57, Type (0, 0), BuildingBlock: EZIPEK_clean_linker_0, # of connection points: 2
#     Edge 58, Type (0, 0), BuildingBlock: EZIPEK_clean_linker_0, # of connection points: 2
#     Edge 59, Type (0, 0), BuildingBlock: EZIPEK_clean_linker_0, # of connection points: 2
#     Edge 60, Type (0, 0), BuildingBlock: EZIPEK_clean_linker_0, # of connection points: 2
#     Edge 61, Type (0, 0), BuildingBlock: EZIPEK_clean_linker_0, # of connection points: 2
#     Edge 62, Type (0, 0), BuildingBlock: EZIPEK_clean_linker_0, # of connection points: 2
#     Edge 63, Type (0, 0), BuildingBlock: EZIPEK_clean_linker_0, # of connection points: 2
#     Edge 64, Type (0, 0), BuildingBlock: EZIPEK_clean_linker_0, # of connection points: 2
#     Edge 65, Type (0, 0), BuildingBlock: EZIPEK_clean_linker_0, # of connection points: 2
#     Edge 66, Type (0, 0), BuildingBlock: EZIPEK_clean_linker_0, # of connection points: 2
#     Edge 67, Type (0, 0), BuildingBlock: EZIPEK_clean_linker_0, # of connection points: 2
#     Edge 68, Type (0, 0), BuildingBlock: EZIPEK_clean_linker_0, # of connection points: 2
#     Edge 69, Type (0, 0), BuildingBlock: EZIPEK_clean_linker_0, # of connection points: 2
#     Edge 70, Type (0, 0), BuildingBlock: EZIPEK_clean_linker_0, # of connection points: 2
#     Edge 71, Type (0, 0), BuildingBlock: EZIPEK_clean_linker_0, # of connection points: 2
# Relax obj value: 0.272
# Max RMSD: 0.283
# Mean RMSD: 0.265
data_MOF--net-cbo--node1-NAHDIM_clean_sbu_0--edge1-EZIPEK_clean_linker_0
_symmetry_space_group_name_H-M    P1
_symmetry_Int_Tables_number       1
_symmetry_cell_setting            triclinic
loop_
_symmetry_equiv_pos_as_xyz
'x, y, z'
_cell_length_a     38.381054
_cell_length_b     36.408952
_cell_length_c     37.43562
_cell_angle_alpha  90.031174
_cell_angle_beta   89.961382
_cell_angle_gamma 89.970962
loop_
_atom_site_label
_atom_site_type_symbol
_atom_site_fract_x
_atom_site_fract_y
_atom_site_fract_z
_atom_type_partial_charge
C0 C 0.97054 0.11435 0.29378 0.0
O1 O 0.97658 0.14892 0.30163 0.0
O2 O 0.04184 0.14946 0.22945 0.0
Zn3 Zn 0.04106 0.12022 0.27499 0.0
O4 O 0.05032 0.15167 0.31821 0.0
C5 C 0.08699 0.07006 0.24058 0.0
O6 O 0.06297 0.07219 0.21571 0.0
O7 O 0.99496 0.09463 0.28119 0.0
C8 C 0.07664 0.17272 0.31974 0.0
O9 O 0.09717 0.1759 0.29182 0.0
C10 C 0.03214 0.18223 0.22368 0.0
O11 O 0.01765 0.20162 0.24928 0.0
O12 O 0.08185 0.08578 0.27041 0.0
C13 C 0.54428 0.86504 0.79212 0.0
O14 O 0.54181 0.82923 0.78912 0.0
O15 O 0.46913 0.82692 0.73991 0.0
Zn16 Zn 0.47058 0.86006 0.78306 0.0
O17 O 0.45971 0.8327 0.82839 0.0
C18 C 0.4048 0.88614 0.75997 0.0
O19 O 0.40333 0.85204 0.74876 0.0
O20 O 0.51713 0.8848 0.78917 0.0
C21 C 0.43585 0.80863 0.82992 0.0
O22 O 0.41899 0.79919 0.80087 0.0
C23 C 0.47782 0.79349 0.73607 0.0
O24 O 0.49371 0.77598 0.76203 0.0
O25 O 0.43188 0.89744 0.77622 0.0
C26 C 0.46454 0.37199 0.67788 0.0
O27 O 0.46957 0.33685 0.67173 0.0
O28 O 0.53336 0.34097 0.75066 0.0
Zn29 Zn 0.53411 0.36529 0.70207 0.0
O30 O 0.54477 0.32991 0.66191 0.0
C31 C 0.5823 0.41605 0.73308 0.0
O32 O 0.56127 0.4122 0.7605 0.0
O33 O 0.48875 0.39083 0.69201 0.0
C34 C 0.57155 0.30938 0.66228 0.0
O35 O 0.5917 0.30875 0.69061 0.0
C36 C 0.5357 0.30694 0.75782 0.0
O37 O 0.53359 0.28264 0.732 0.0
O38 O 0.57434 0.40122 0.70345 0.0
C39 C -0.00496 0.62212 0.20294 0.0
O40 O 0.98617 0.65599 0.211 0.0
O41 O 0.92294 0.63936 0.26325 0.0
Zn42 Zn 0.92361 0.61315 0.21582 0.0
O43 O 0.90741 0.64589 0.17593 0.0
C44 C 0.859 0.57999 0.22624 0.0
O45 O 0.85057 0.61485 0.22407 0.0
O46 O 0.97216 0.59694 0.20398 0.0
C47 C 0.90029 0.63017 0.14657 0.0
O48 O 0.90368 0.59436 0.14396 0.0
C49 C 0.9065 0.6693 0.26774 0.0
O50 O 0.89218 0.68577 0.24023 0.0
O51 O 0.89045 0.5705 0.22091 0.0
C52 C 0.36013 0.05923 0.15611 0.0
O53 O 0.3575 0.04409 0.12436 0.0
O54 O 0.26788 0.08359 0.12045 0.0
Zn55 Zn 0.28758 0.04531 0.15403 0.0
O56 O 0.29657 -0.00335 0.13046 0.0
C57 C 0.2201 0.03502 0.17923 0.0
O58 O 0.21622 0.02919 0.14485 0.0
O59 O 0.33293 0.06289 0.1752 0.0
C60 C 0.2865 0.98716 0.09952 0.0
O61 O 0.26711 0.00946 0.08043 0.0
C62 C 0.28346 0.10691 0.10091 0.0
O63 O 0.31756 0.10637 0.09815 0.0
O64 O 0.25053 0.04007 0.19172 0.0
C65 C 0.16012 0.93081 0.66732 0.0
O66 O 0.16556 0.92842 0.63276 0.0
O67 O 0.24421 0.92457 0.63022 0.0
Zn68 Zn 0.22634 0.96402 0.66289 0.0
O69 O 0.21528 0.01043 0.63656 0.0
C70 C 0.27682 0.94094 0.70988 0.0
O71 O 0.2599 0.91057 0.70233 0.0
O72 O 0.18306 0.94551 0.68714 0.0
C73 C 0.23835 0.03365 0.62762 0.0
O74 O 0.27127 0.02725 0.6349 0.0
C75 C 0.24599 0.92261 0.59644 0.0
O76 O 0.23435 0.94958 0.57646 0.0
O77 O 0.26516 0.97133 0.69826 0.0
C78 C 0.82833 0.41996 0.78477 0.0
O79 O 0.80202 0.3971 0.7817 0.0
O80 O 0.76428 0.42411 0.85563 0.0
Zn81 Zn 0.77762 0.46467 0.82122 0.0
O82 O 0.78291 0.5152 0.84285 0.0
C83 C 0.70917 0.47012 0.79275 0.0
O84 O 0.70289 0.48142 0.82539 0.0
O85 O 0.82383 0.45087 0.79981 0.0
C86 C 0.76465 0.5316 0.8663 0.0
O87 O 0.73757 0.51524 0.88063 0.0
C88 C 0.75996 0.42281 0.88929 0.0
O89 O 0.76611 0.45199 0.90889 0.0
O90 O 0.74043 0.46414 0.78312 0.0
C91 C 0.61458 0.54369 0.33616 0.0
O92 O 0.61463 0.52241 0.36448 0.0
O93 O 0.69594 0.57186 0.38482 0.0
Zn94 Zn 0.68713 0.535 0.3459 0.0
O95 O 0.67933 0.48435 0.36623 0.0
C96 C 0.73999 0.51473 0.29056 0.0
O97 O 0.72409 0.48307 0.28667 0.0
O98 O 0.64334 0.55213 0.32147 0.0
C99 C 0.70269 0.46114 0.37441 0.0
O100 O 0.73572 0.46918 0.37012 0.0
C101 C 0.72413 0.5723 0.40255 0.0
O102 O 0.74714 0.54603 0.39796 0.0
O103 O 0.72863 0.53818 0.31286 0.0
C104 C 0.12815 0.28173 0.963 0.0
O105 O 0.15978 0.29237 0.97152 0.0
O106 O 0.17133 0.22956 0.03706 0.0
Zn107 Zn 0.13024 0.26519 0.03597 0.0
O108 O 0.14542 0.31713 0.04649 0.0
C109 C 0.09017 0.22201 0.08809 0.0
O110 O 0.10612 0.19342 0.07428 0.0
O111 O 0.10903 0.26695 0.98672 0.0
C112 C 0.16547 0.32673 0.0718 0.0
O113 O 0.1796 0.3019 0.09255 0.0
C114 C 0.18351 0.21737 0.06636 0.0
O115 O 0.16998 0.22834 0.09674 0.0
O116 O 0.09441 0.25348 0.07414 0.0
C117 C 0.64002 0.22747 0.02468 0.0
O118 O 0.67148 0.22063 0.01253 0.0
O119 O 0.66515 0.28747 0.94389 0.0
Zn120 Zn 0.6315 0.24539 0.95214 0.0
O121 O 0.65065 0.19573 0.93746 0.0
C122 C 0.59749 0.25458 0.88727 0.0
O123 O 0.62878 0.24394 0.87777 0.0
O124 O 0.61727 0.24073 0.00368 0.0
C125 C 0.67628 0.18937 0.91685 0.0
O126 O 0.69414 0.2167 0.90321 0.0
C127 C 0.69798 0.29028 0.9477 0.0
O128 O 0.71597 0.26266 0.96069 0.0
O129 O 0.59022 0.25703 0.92031 0.0
C130 C 0.84755 0.75894 0.54422 0.0
O131 O 0.81348 0.76025 0.54111 0.0
O132 O 0.8096 0.70087 0.47001 0.0
Zn133 Zn 0.84166 0.74443 0.47038 0.0
O134 O 0.81623 0.7912 0.458 0.0
C135 C 0.85956 0.72841 0.40123 0.0
O136 O 0.82551 0.73152 0.40017 0.0
O137 O 0.86606 0.75109 0.51716 0.0
C138 C 0.83512 0.81726 0.4464 0.0
O139 O 0.86903 0.81271 0.44469 0.0
C140 C 0.77666 0.70139 0.47264 0.0
O141 O 0.76052 0.73215 0.4806 0.0
O142 O 0.87534 0.7336 0.43061 0.0
C143 C 0.36321 0.72508 0.47328 0.0
O144 O 0.33094 0.73263 0.48242 0.0
O145 O 0.34552 0.78455 0.54781 0.0
Zn146 Zn 0.3716 0.73643 0.54696 0.0
O147 O 0.34166 0.69433 0.56386 0.0
C148 C 0.40359 0.74676 0.61284 0.0
O149 O 0.37038 0.74718 0.62127 0.0
O150 O 0.38694 0.72548 0.4969 0.0
C151 C 0.35712 0.66406 0.56963 0.0
O152 O 0.39083 0.66165 0.56399 0.0
C153 C 0.31509 0.78768 0.56082 0.0
O154 O 0.29867 0.75842 0.57248 0.0
O155 O 0.41235 0.7413 0.58054 0.0
C156 C 0.03044 0.8703 0.71868 0.0
O157 O 0.02881 0.84181 0.74008 0.0
O158 O 0.95239 0.82842 0.75672 0.0
Zn159 Zn 0.95519 0.86163 0.71372 0.0
O160 O 0.93929 0.83455 0.6699 0.0
C161 C 0.91177 0.90847 0.75463 0.0
O162 O 0.93244 0.89688 0.78019 0.0
O163 O 0.0027 0.88357 0.70542 0.0
C164 C 0.91527 0.81067 0.67219 0.0
O165 O 0.90196 0.80245 0.70346 0.0
C166 C 0.96184 0.79536 0.76138 0.0
O167 O 0.97934 0.77796 0.73639 0.0
O168 O 0.91892 0.90061 0.72238 0.0
C169 C 0.49821 0.1121 0.18931 0.0
O170 O 0.50598 0.14388 0.17475 0.0
O171 O 0.57309 0.14956 0.25337 0.0
Zn172 Zn 0.56926 0.11733 0.20997 0.0
O173 O 0.57992 0.14545 0.16504 0.0
C174 C 0.6144 0.06788 0.24627 0.0
O175 O 0.59428 0.077 0.27324 0.0
O176 O 0.52138 0.09486 0.20683 0.0
C177 C 0.60125 0.1721 0.16385 0.0
O178 O 0.61666 0.18335 0.19318 0.0
C179 C 0.55756 0.17951 0.2603 0.0
O180 O 0.53492 0.19323 0.23766 0.0
O181 O 0.60694 0.07917 0.2151 0.0
C182 C 0.48599 0.6148 0.29488 0.0
O183 O 0.48146 0.64908 0.30479 0.0
O184 O 0.41843 0.6635 0.23607 0.0
Zn185 Zn 0.41615 0.62574 0.27526 0.0
O186 O 0.40468 0.64761 0.32334 0.0
C187 C 0.34794 0.61089 0.25728 0.0
O188 O 0.34689 0.64545 0.26728 0.0
O189 O 0.46109 0.59774 0.2799 0.0
C190 C 0.39516 0.68056 0.32872 0.0
O191 O 0.39204 0.70335 0.30176 0.0
C192 C 0.436 0.69253 0.23075 0.0
O193 O 0.45978 0.70311 0.25375 0.0
O194 O 0.37646 0.59332 0.25991 0.0
C195 C 0.97042 0.38376 0.74792 0.0
O196 O 0.98207 0.37893 0.71525 0.0
O197 O 0.04947 0.33438 0.72717 0.0
Zn198 Zn 0.04174 0.36769 0.76944 0.0
O199 O 0.05824 0.34647 0.81672 0.0
C200 C 0.10304 0.40917 0.75732 0.0
O201 O 0.11678 0.3793 0.77088 0.0
O202 O 0.99101 0.3805 0.77428 0.0
C203 C 0.08103 0.32154 0.82136 0.0
O204 O 0.09634 0.30631 0.79371 0.0
C205 C 0.04909 0.29971 0.72347 0.0
O206 O 0.0402 0.27866 0.75045 0.0
O207 O 0.07007 0.4126 0.75649 0.0
C208 C 0.71034 0.04267 0.86973 0.0
O209 O 0.704 0.03512 0.83604 0.0
O210 O 0.7677 0.97406 0.82916 0.0
Zn211 Zn 0.73024 0.969 0.86659 0.0
O212 O 0.68503 0.95242 0.84433 0.0
C213 C 0.73076 0.9156 0.9268 0.0
O214 O 0.69861 0.92545 0.93407 0.0
O215 O 0.72244 0.01779 0.88997 0.0
C216 C 0.67798 0.91871 0.83946 0.0
O217 O 0.70099 0.89348 0.84781 0.0
C218 C 0.78332 0.94447 0.82099 0.0
O219 O 0.77234 0.91328 0.83447 0.0
O220 O 0.74745 0.93132 0.90182 0.0
C221 C 0.79142 0.95491 0.38573 0.0
O222 O 0.79805 0.95661 0.35135 0.0
O223 O 0.74138 0.02745 0.33568 0.0
Zn224 Zn 0.77902 0.02973 0.37285 0.0
O225 O 0.82636 0.03834 0.35147 0.0
C226 C 0.77556 0.08119 0.43454 0.0
O227 O 0.79611 0.05897 0.4524 0.0
O228 O 0.78095 0.98348 0.40199 0.0
C229 C 0.83246 0.0664 0.33235 0.0
O230 O 0.80698 0.08905 0.32443 0.0
C231 C 0.74263 0.01633 0.30357 0.0
O232 O 0.77145 0.00216 0.29058 0.0
O233 O 0.7666 0.07358 0.40276 0.0
C234 C 0.17892 0.47857 0.11315 0.0
O235 O 0.16986 0.48703 0.14598 0.0
O236 O 0.22718 0.5605 0.14721 0.0
Zn237 Zn 0.18775 0.55462 0.11215 0.0
O238 O 0.14092 0.56369 0.13474 0.0
C239 C 0.22696 0.59936 0.06561 0.0
O240 O 0.25168 0.57752 0.0773 0.0
O241 O 0.18838 0.50379 0.09186 0.0
C242 C 0.13483 0.5921 0.15338 0.0
O243 O 0.15972 0.61612 0.15906 0.0
C244 C 0.22642 0.55953 0.18111 0.0
O245 O 0.19721 0.55201 0.19782 0.0
O246 O 0.19556 0.59311 0.07442 0.0
C247 C 0.29414 0.53078 0.62245 0.0
O248 O 0.30607 0.51998 0.6536 0.0
O249 O 0.22419 0.4554 0.65713 0.0
Zn250 Zn 0.26492 0.45872 0.62335 0.0
O251 O 0.30836 0.44012 0.64752 0.0
C252 C 0.2494 0.39124 0.59155 0.0
O253 O 0.25265 0.38177 0.62522 0.0
O254 O 0.27401 0.50981 0.60483 0.0
C255 C 0.33397 0.43156 0.62767 0.0
O256 O 0.33123 0.43535 0.59289 0.0
C257 C 0.21048 0.47969 0.67705 0.0
O258 O 0.22271 0.51336 0.67723 0.0
O259 O 0.25409 0.42452 0.5826 0.0
C260 C 0.85261 0.70215 0.01845 0.0
O261 O 0.82045 0.69421 0.0093 0.0
O262 O 0.81844 0.7711 0.94694 0.0
Zn263 Zn 0.85245 0.72885 0.94789 0.0
O264 O 0.82912 0.68178 0.93316 0.0
C265 C 0.8836 0.75235 0.883 0.0
O266 O 0.85097 0.76046 0.87612 0.0
O267 O 0.87189 0.71977 -0.00317 0.0
C268 C 0.8088 0.67778 0.90669 0.0
O269 O 0.80023 0.7063 0.88714 0.0
C270 C 0.81257 0.79278 0.97287 0.0
O271 O 0.82816 0.78758 0.00367 0.0
O272 O 0.89157 0.73849 0.91303 0.0
C273 C 0.37976 0.75916 0.96476 0.0
O274 O 0.36623 0.72628 0.96847 0.0
O275 O 0.31978 0.73127 0.03501 0.0
Zn276 Zn 0.35361 0.77334 0.03696 0.0
O277 O 0.32757 0.81921 0.05029 0.0
C278 C 0.37582 0.75663 0.10643 0.0
O279 O 0.34223 0.76092 0.1117 0.0
O280 O 0.37795 0.78206 0.9903 0.0
C281 C 0.34461 0.84891 0.05342 0.0
O282 O 0.37836 0.84886 0.04752 0.0
C283 C 0.29533 0.72626 0.01271 0.0
O284 O 0.29001 0.74991 0.98681 0.0
O285 O 0.38835 0.76168 0.07541 0.0
C286 C 0.11007 0.23021 0.45949 0.0
O287 O 0.11028 0.2651 0.46837 0.0
O288 O 0.16929 0.25941 0.53323 0.0
Zn289 Zn 0.13683 0.21607 0.53183 0.0
O290 O 0.16016 0.17002 0.55027 0.0
C291 C 0.11235 0.23721 0.59723 0.0
O292 O 0.14606 0.23296 0.60151 0.0
O293 O 0.11939 0.20606 0.48204 0.0
C294 C 0.19009 0.16933 0.56477 0.0
O295 O 0.20828 0.19967 0.56784 0.0
C296 C 0.19637 0.26809 0.51571 0.0
O297 O 0.20776 0.24698 0.48976 0.0
O298 O 0.09901 0.23018 0.56687 0.0
C299 C 0.61063 0.24215 0.52854 0.0
O300 O 0.61416 0.20684 0.52235 0.0
O301 O 0.673 0.21049 0.46101 0.0
Zn302 Zn 0.64018 0.25323 0.45722 0.0
O303 O 0.66632 0.29792 0.44061 0.0
C304 C 0.61735 0.23417 0.38933 0.0
O305 O 0.65122 0.23659 0.38495 0.0
O306 O 0.61918 0.26535 0.50479 0.0
C307 C 0.64855 0.3243 0.42796 0.0
O308 O 0.61446 0.32163 0.42659 0.0
C309 C 0.70419 0.2133 0.4719 0.0
O310 O 0.71606 0.24513 0.48305 0.0
O311 O 0.60432 0.24065 0.41991 0.0
C312 C 0.08266 0.23576 0.15364 0.0
C313 C 0.0706 0.21787 0.12213 0.0
C314 C 0.02618 0.18546 0.15738 0.0
C315 C 0.0416 0.19916 0.18907 0.0
N316 N 0.08561 0.23557 0.21831 0.0
N317 N 0.03033 0.17671 0.09319 0.0
C318 C 0.06965 0.22443 0.18747 0.0
C319 C 0.04199 0.19317 0.12377 0.0
N320 N 0.10697 0.26314 0.15155 0.0
N321 N -0.00396 0.16556 0.15962 0.0
H322 H 0.03938 0.18391 0.06786 0.0
H323 H 0.01263 0.15508 0.09279 0.0
H324 H 0.98384 0.15993 0.18394 0.0
H325 H 0.98151 0.15722 0.13762 0.0
H326 H 0.11308 0.28038 0.17284 0.0
H327 H 0.11957 0.27075 0.12812 0.0
H328 H 0.10929 0.24948 0.21896 0.0
H329 H 0.07641 0.22894 0.24368 0.0
C330 C 0.4742 0.79117 0.66973 0.0
C331 C 0.4666 0.77441 0.70301 0.0
C332 C 0.428 0.731 0.6725 0.0
C333 C 0.4298 0.75285 0.64126 0.0
N334 N 0.45322 0.80579 0.61053 0.0
N335 N 0.43382 0.72931 0.7367 0.0
C336 C 0.45304 0.78312 0.63962 0.0
C337 C 0.44338 0.74404 0.70459 0.0
N338 N 0.50164 0.81492 0.6671 0.0
N339 N 0.41161 0.6977 0.67139 0.0
H340 H 0.44397 0.73784 0.76109 0.0
H341 H 0.41369 0.71033 0.73942 0.0
H342 H 0.40069 0.68719 0.64799 0.0
H343 H 0.41216 0.67901 0.69245 0.0
H344 H 0.51042 0.82556 0.64289 0.0
H345 H 0.51785 0.82084 0.68874 0.0
H346 H 0.46663 0.83065 0.60987 0.0
H347 H 0.43786 0.8014 0.588 0.0
C348 C 0.53161 0.26623 0.81235 0.0
C349 C 0.54803 0.29557 0.79378 0.0
C350 C 0.58713 0.30483 0.84455 0.0
C351 C 0.57525 0.27172 0.85981 0.0
N352 N 0.53715 0.21933 0.85823 0.0
N353 N 0.59759 0.33672 0.78944 0.0
C354 C 0.54748 0.25205 0.84391 0.0
C355 C 0.57721 0.31366 0.80927 0.0
N356 N 0.50065 0.25251 0.80033 0.0
N357 N 0.60842 0.32758 0.86362 0.0
H358 H 0.59394 0.34095 0.76221 0.0
H359 H 0.62084 0.34787 0.79889 0.0
H360 H 0.61598 0.32178 0.88981 0.0
H361 H 0.61523 0.35378 0.85485 0.0
H362 H 0.48598 0.23334 0.81446 0.0
H363 H 0.48804 0.26281 0.77777 0.0
H364 H 0.5198 0.20158 0.84561 0.0
H365 H 0.54751 0.20913 0.88203 0.0
C366 C 0.87906 0.66087 0.32806 0.0
C367 C 0.89911 0.6828 0.30427 0.0
C368 C 0.89694 0.73424 0.34657 0.0
C369 C 0.87756 0.71196 0.37037 0.0
N370 N 0.85744 0.65209 0.38827 0.0
N371 N 0.93335 0.73715 0.29355 0.0
C372 C 0.8711 0.67456 0.36255 0.0
C373 C 0.91 0.71857 0.31439 0.0
N374 N 0.86561 0.62802 0.317 0.0
N375 N 0.90158 0.77066 0.35406 0.0
H376 H 0.94355 0.72622 0.26999 0.0
H377 H 0.94487 0.76185 0.30105 0.0
H378 H 0.89326 0.78259 0.37793 0.0
H379 H 0.91187 0.78943 0.33594 0.0
H380 H 0.84726 0.61315 0.33151 0.0
H381 H 0.87043 0.61687 0.29193 0.0
H382 H 0.8554 0.62372 0.38544 0.0
H383 H 0.85122 0.66134 0.41389 0.0
C384 C 0.18057 0.08018 0.20895 0.0
C385 C 0.18883 0.04304 0.20101 0.0
C386 C 0.13273 0.02314 0.22599 0.0
C387 C 0.12298 0.06045 0.22997 0.0
N388 N 0.13559 0.12492 0.22186 0.0
N389 N 0.17325 0.97898 0.20046 0.0
C390 C 0.14653 0.08912 0.22104 0.0
C391 C 0.16509 0.0144 0.20932 0.0
N392 N 0.20505 0.1071 0.20437 0.0
N393 N 0.11118 -0.00377 0.23863 0.0
H394 H 0.19747 0.9715 0.19005 0.0
H395 H 0.1557 0.95726 0.20187 0.0
H396 H 0.08727 0.00198 0.2507 0.0
H397 H 0.11791 0.96856 0.23966 0.0
H398 H 0.20209 0.13379 0.2139 0.0
H399 H 0.22956 0.10245 0.19331 0.0
H400 H 0.14976 0.14668 0.2112 0.0
H401 H 0.11101 0.13292 0.23074 0.0
C402 C 0.34254 0.90136 0.77257 0.0
C403 C 0.37403 0.9099 0.75454 0.0
C404 C 0.3422 0.94791 0.71166 0.0
C405 C 0.3105 0.93816 0.72897 0.0
N406 N 0.28147 0.91597 0.78159 0.0
N407 N 0.40543 0.94896 0.71389 0.0
C408 C 0.31112 0.91843 0.7615 0.0
C409 C 0.37438 0.93616 0.72667 0.0
N410 N 0.34244 0.87561 0.79911 0.0
N411 N 0.34161 0.96563 0.67948 0.0
H412 H 0.42939 0.94009 0.72376 0.0
H413 H 0.40742 0.97071 0.69594 0.0
H414 H 0.31889 0.97511 0.66748 0.0
H415 H 0.36353 0.96895 0.66341 0.0
H416 H 0.3198 0.86495 0.81039 0.0
H417 H 0.36516 0.86328 0.80848 0.0
H418 H 0.28076 0.90457 0.80708 0.0
H419 H 0.25826 0.92877 0.77405 0.0
C420 C 0.65203 0.48336 0.76318 0.0
C421 C 0.67953 0.45832 0.77018 0.0
C422 C 0.64696 0.40964 0.73984 0.0
C423 C 0.61713 0.43269 0.73894 0.0
N424 N 0.59077 0.49177 0.7492 0.0
N425 N 0.7007 0.39561 0.77026 0.0
C426 C 0.61962 0.46979 0.75023 0.0
C427 C 0.67669 0.42104 0.75936 0.0
N428 N 0.65718 0.5201 0.76849 0.0
N429 N 0.64692 0.37655 0.72269 0.0
H430 H 0.72238 0.40189 0.78579 0.0
H431 H 0.69724 0.36743 0.767 0.0
H432 H 0.62565 0.3667 0.70852 0.0
H433 H 0.66924 0.36057 0.71947 0.0
H434 H 0.63932 0.54019 0.76099 0.0
H435 H 0.68084 0.53077 0.77749 0.0
H436 H 0.58957 0.51762 0.76103 0.0
H437 H 0.56736 0.48336 0.73762 0.0
C438 C 0.83491 0.539 0.27388 0.0
C439 C 0.83236 0.55356 0.23883 0.0
C440 C 0.77206 0.53137 0.23438 0.0
C441 C 0.7729 0.52269 0.27131 0.0
N442 N 0.80461 0.51753 0.32664 0.0
N443 N 0.80009 0.5622 0.18441 0.0
C444 C 0.80436 0.5258 0.29103 0.0
C445 C 0.80148 0.54881 0.21851 0.0
N446 N 0.86638 0.53809 0.29097 0.0
N447 N 0.74298 0.52347 0.21476 0.0
H448 H 0.82192 0.57283 0.17137 0.0
H449 H 0.77738 0.56393 0.16935 0.0
H450 H 0.72065 0.51184 0.22587 0.0
H451 H 0.7416 0.52599 0.18712 0.0
H452 H 0.87065 0.52429 0.31491 0.0
H453 H 0.88924 0.54855 0.28005 0.0
H454 H 0.82491 0.52426 0.34386 0.0
H455 H 0.78355 0.50538 0.33957 0.0
C456 C 0.26707 0.17372 0.09732 0.0
C457 C 0.26272 0.1371 0.085 0.0
C458 C 0.20863 0.15458 0.05453 0.0
C459 C 0.21296 0.19108 0.0671 0.0
N460 N 0.251 0.23773 0.09049 0.0
N461 N 0.23521 0.09496 0.04433 0.0
C462 C 0.24382 0.20138 0.08521 0.0
C463 C 0.23534 0.12832 0.06106 0.0
N464 N 0.29181 0.18178 0.12238 0.0
N465 N 0.17831 0.14447 0.03815 0.0
H466 H 0.2549 0.07558 0.04819 0.0
H467 H 0.21777 0.08797 0.02416 0.0
H468 H 0.15849 0.16301 0.0321 0.0
H469 H 0.17187 0.11731 0.03246 0.0
H470 H 0.29321 0.20698 0.13548 0.0
H471 H 0.30937 0.16252 0.13225 0.0
H472 H 0.27462 0.24722 0.10059 0.0
H473 H 0.23475 0.25856 0.08109 0.0
C474 C 0.71655 0.37133 0.88756 0.0
C475 C 0.74448 0.38914 0.90538 0.0
C476 C 0.74062 0.34321 0.95331 0.0
C477 C 0.7159 0.32315 0.93289 0.0
N478 N 0.68979 0.31304 0.87495 0.0
N479 N 0.78828 0.38676 0.95176 0.0
C480 C 0.7067 0.33566 0.89831 0.0
C481 C 0.75805 0.37366 0.93737 0.0
N482 N 0.69811 0.38897 0.8615 0.0
N483 N 0.74661 0.33424 0.98819 0.0
H484 H 0.80269 0.40788 0.94015 0.0
H485 H 0.80092 0.37408 0.97307 0.0
H486 H 0.73384 0.31276 0.0011 0.0
H487 H 0.76178 0.35033 0.00516 0.0
H488 H 0.67596 0.37775 0.84968 0.0
H489 H 0.70215 0.41642 0.85498 0.0
H490 H 0.6853 0.32013 0.84836 0.0
H491 H 0.68419 0.28573 0.88083 0.0
C492 C 0.75433 0.63676 0.47645 0.0
C493 C 0.75736 0.67011 0.45713 0.0
C494 C 0.73906 0.63912 0.40223 0.0
C495 C 0.73422 0.60614 0.42183 0.0
N496 N 0.73163 0.57446 0.47822 0.0
N497 N 0.74602 0.70513 0.40359 0.0
C498 C 0.74019 0.60521 0.45921 0.0
C499 C 0.74731 0.67198 0.42072 0.0
N500 N 0.76573 0.63513 0.51099 0.0
N501 N 0.73822 0.63861 0.36567 0.0
H502 H 0.75298 0.72984 0.41567 0.0
H503 H 0.73516 0.70861 0.37833 0.0
H504 H 0.73333 0.61499 0.35076 0.0
H505 H 0.74575 0.66078 0.34989 0.0
H506 H 0.7681 0.61077 0.52534 0.0
H507 H 0.77454 0.65821 0.52484 0.0
H508 H 0.73213 0.57316 0.50599 0.0
H509 H 0.72138 0.55093 0.46627 0.0
C510 C 0.3006 0.88652 0.5906 0.0
C511 C 0.26528 0.8914 0.58074 0.0
C512 C 0.26591 0.8318 0.55036 0.0
C513 C 0.29916 0.82447 0.56538 0.0
N514 N 0.34665 0.84339 0.60375 0.0
N515 N 0.21304 0.86827 0.55306 0.0
C516 C 0.31638 0.85158 0.58622 0.0
C517 C 0.24763 0.86413 0.5607 0.0
N518 N 0.31912 0.91553 0.60389 0.0
N519 N 0.2522 0.80828 0.52562 0.0
H520 H 0.19904 0.8919 0.5596 0.0
H521 H 0.19771 0.84743 0.54231 0.0
H522 H 0.26518 0.78466 0.51706 0.0
H523 H 0.22965 0.81389 0.51116 0.0
H524 H 0.34588 0.91467 0.60847 0.0
H525 H 0.30837 0.9417 0.60683 0.0
H526 H 0.35797 0.86071 0.62261 0.0
H527 H 0.35899 0.81798 0.60208 0.0
C528 C 0.90678 0.73613 0.82288 0.0
C529 C 0.91002 0.75704 0.85462 0.0
C530 C 0.95746 0.79234 0.82762 0.0
C531 C 0.94946 0.77643 0.79403 0.0
N532 N 0.91576 0.7334 0.75898 0.0
N533 N 0.93805 0.80533 0.888 0.0
C534 C 0.92446 0.74777 0.79151 0.0
C535 C 0.93575 0.78479 0.85751 0.0
N536 N 0.88688 0.70499 0.8229 0.0
N537 N 0.98593 0.81464 0.83071 0.0
H538 H 0.92295 0.80021 0.91061 0.0
H539 H 0.95337 0.82882 0.8902 0.0
H540 H 0.00242 0.82012 0.80918 0.0
H541 H -0.00492 0.82471 0.85499 0.0
H542 H 0.88614 0.68648 0.8017 0.0
H543 H 0.87367 0.6958 0.84558 0.0
H544 H 0.89445 0.7162 0.75499 0.0
H545 H 0.92851 0.74021 0.73536 0.0
C546 C 0.5591 0.17928 0.3268 0.0
C547 C 0.56558 0.19822 0.29439 0.0
C548 C 0.59637 0.24636 0.3274 0.0
C549 C 0.59525 0.2241 0.35847 0.0
N550 N 0.57737 0.16808 0.38773 0.0
N551 N 0.59168 0.24907 0.2629 0.0
C552 C 0.57658 0.19047 0.35843 0.0
C553 C 0.58406 0.23194 0.29444 0.0
N554 N 0.53602 0.1507 0.32722 0.0
N555 N 0.60889 0.28143 0.3296 0.0
H556 H 0.58271 0.23972 0.23825 0.0
H557 H 0.60875 0.27118 0.26087 0.0
H558 H 0.6177 0.29287 0.35352 0.0
H559 H 0.60745 0.30027 0.30874 0.0
H560 H 0.52762 0.13791 0.35055 0.0
H561 H 0.52262 0.14216 0.30442 0.0
H562 H 0.56784 0.14131 0.38771 0.0
H563 H 0.58983 0.17515 0.41148 0.0
C564 C 0.43234 0.69519 0.16459 0.0
C565 C 0.42897 0.71359 0.19775 0.0
C566 C 0.40033 0.76515 0.16767 0.0
C567 C 0.39803 0.74369 0.13614 0.0
N568 N 0.40947 0.68677 0.10496 0.0
N569 N 0.40893 0.76582 0.23179 0.0
C570 C 0.41392 0.70852 0.13441 0.0
C571 C 0.41329 0.74885 0.19952 0.0
N572 N 0.45333 0.66495 0.16209 0.0
N573 N 0.39046 0.80123 0.16693 0.0
H574 H 0.41888 0.75532 0.25558 0.0
H575 H 0.39375 0.78925 0.23534 0.0
H576 H 0.38125 0.81396 0.14382 0.0
H577 H 0.39449 0.81934 0.18806 0.0
H578 H 0.45949 0.65225 0.13796 0.0
H579 H 0.46745 0.65488 0.18381 0.0
H580 H 0.4169 0.65927 0.10404 0.0
H581 H 0.39587 0.69514 0.0823 0.0
C582 C 0.10608 0.28747 0.64148 0.0
C583 C 0.09223 0.25505 0.62622 0.0
C584 C 0.04615 0.25496 0.67168 0.0
C585 C 0.06373 0.28362 0.69015 0.0
N586 N 0.11613 0.32022 0.69628 0.0
N587 N 0.05118 0.20494 0.62914 0.0
C588 C 0.09521 0.29814 0.67601 0.0
C589 C 0.06265 0.23798 0.64178 0.0
N590 N 0.12937 0.30842 0.62282 0.0
N591 N 0.01335 0.24477 0.6818 0.0
H592 H 0.06252 0.19172 0.60733 0.0
H593 H 0.03217 0.18938 0.64201 0.0
H594 H 4e-05 0.25723 0.70286 0.0
H595 H -0.00188 0.22652 0.66714 0.0
H596 H 0.13782 0.33408 0.63167 0.0
H597 H 0.13701 0.30218 0.59675 0.0
H598 H 0.1407 0.32891 0.68793 0.0
H599 H 0.11113 0.32598 0.72304 0.0
C600 C 0.81402 0.91992 0.7679 0.0
C601 C 0.81423 0.94414 0.79741 0.0
C602 C 0.87665 0.95462 0.7884 0.0
C603 C 0.87757 0.92451 0.7644 0.0
N604 N 0.84671 0.87526 0.73425 0.0
N605 N 0.84619 0.98409 0.83726 0.0
C606 C 0.84609 0.90669 0.75424 0.0
C607 C 0.84552 0.96206 0.8077 0.0
N608 N 0.78302 0.90924 0.7533 0.0
N609 N 0.9056 0.97598 0.79271 0.0
H610 H 0.82409 0.99047 0.85218 0.0
H611 H 0.86914 0.99411 0.84844 0.0
H612 H 0.92863 0.97126 0.77856 0.0
H613 H 0.90567 0.0003 0.80738 0.0
H614 H 0.78125 0.8942 0.72968 0.0
H615 H 0.75911 0.91889 0.76277 0.0
H616 H 0.82471 0.85918 0.72971 0.0
H617 H 0.86945 0.86307 0.72496 0.0
C618 C 0.64929 0.01557 0.27071 0.0
C619 C 0.64847 0.05027 0.25355 0.0
C620 C 0.71212 0.05444 0.25803 0.0
C621 C 0.71203 0.02323 0.28057 0.0
N622 N 0.68145 0.97313 0.30837 0.0
N623 N 0.67877 0.10493 0.23373 0.0
C624 C 0.68088 0.00324 0.28658 0.0
C625 C 0.67985 0.07002 0.24724 0.0
N626 N 0.61992 0.99437 0.27139 0.0
N627 N 0.74301 0.06975 0.24767 0.0
H628 H 0.65585 0.11815 0.22622 0.0
H629 H 0.70033 0.12223 0.23274 0.0
H630 H 0.7671 0.0597 0.25596 0.0
H631 H 0.74492 0.09016 0.22829 0.0
H632 H 0.61939 0.96745 0.28071 0.0
H633 H 0.59656 0.00269 0.25963 0.0
H634 H 0.65914 0.95987 0.31748 0.0
H635 H 0.70455 0.96225 0.3186 0.0
C636 C 0.30607 0.61499 0.20674 0.0
C637 C 0.31824 0.59555 0.23705 0.0
C638 C 0.27216 0.54971 0.2286 0.0
C639 C 0.25748 0.57194 0.20129 0.0
N640 N 0.25619 0.63043 0.17067 0.0
N641 N 0.3105 0.54694 0.28006 0.0
C642 C 0.27326 0.60589 0.19205 0.0
C643 C 0.30072 0.56348 0.24889 0.0
N644 N 0.32634 0.6414 0.19115 0.0
N645 N 0.25977 0.51503 0.23428 0.0
H646 H 0.33133 0.5562 0.29551 0.0
H647 H 0.2963 0.52589 0.29201 0.0
H648 H 0.23929 0.5038 0.2196 0.0
H649 H 0.27176 0.49626 0.25129 0.0
H650 H 0.32002 0.65381 0.16692 0.0
H651 H 0.35128 0.64796 0.20019 0.0
H652 H 0.26526 0.65697 0.16593 0.0
H653 H 0.23108 0.62598 0.16109 0.0
C654 C 0.18072 0.46913 0.7362 0.0
C655 C 0.17936 0.46956 0.69831 0.0
C656 C 0.12477 0.43478 0.69927 0.0
C657 C 0.12589 0.43452 0.7372 0.0
N658 N 0.14993 0.45806 0.79193 0.0
N659 N 0.14582 0.46229 0.64443 0.0
C660 C 0.15226 0.45402 0.7557 0.0
C661 C 0.14988 0.45551 0.6801 0.0
N662 N 0.20999 0.48102 0.75346 0.0
N663 N 0.10133 0.41328 0.68139 0.0
H664 H 0.16361 0.47783 0.62973 0.0
H665 H 0.12326 0.45578 0.63033 0.0
H666 H 0.08234 0.39758 0.6941 0.0
H667 H 0.10243 0.4087 0.65394 0.0
H668 H 0.21426 0.47737 0.78069 0.0
H669 H 0.23123 0.4925 0.74018 0.0
H670 H 0.16649 0.47479 0.80676 0.0
H671 H 0.12933 0.44721 0.80676 0.0
C672 C 0.75439 0.81864 0.95633 0.0
C673 C 0.78925 0.8247 0.96739 0.0
C674 C 0.78025 0.89115 0.96266 0.0
C675 C 0.74777 0.88475 0.9458 0.0
N676 N 0.70446 0.84204 0.92408 0.0
N677 N 0.83693 0.86668 0.9779 0.0
C678 C 0.73465 0.84843 0.94241 0.0
C679 C 0.80252 0.86098 0.97025 0.0
N680 N 0.74004 0.78444 0.95963 0.0
N681 N 0.78961 0.92617 0.97164 0.0
H682 H 0.85443 0.84546 0.98309 0.0
H683 H 0.84888 0.8923 0.97618 0.0
H684 H 0.77356 0.94877 0.96676 0.0
H685 H 0.81142 0.93236 0.98704 0.0
H686 H 0.71373 0.77902 0.95534 0.0
H687 H 0.75374 0.76212 0.97004 0.0
H688 H 0.69608 0.81589 0.9168 0.0
H689 H 0.68879 0.86291 0.91389 0.0
C690 C 0.25604 0.63076 0.01436 0.0
C691 C 0.23676 0.63348 0.0466 0.0
C692 C 0.24622 0.70006 0.04745 0.0
C693 C 0.27055 0.69604 0.01933 0.0
N694 N 0.29814 0.65888 0.97434 0.0
N695 N 0.21411 0.67063 0.09502 0.0
C696 C 0.27492 0.66184 0.00187 0.0
C697 C 0.2313 0.66823 0.0631 0.0
N698 N 0.25586 0.5985 -0.00433 0.0
N699 N 0.23755 0.73444 0.05917 0.0
H700 H 0.2022 0.64837 0.10742 0.0
H701 H 0.21353 0.69432 0.11059 0.0
H702 H 0.2483 0.75822 0.04816 0.0
H703 H 0.21745 0.73961 0.07718 0.0
H704 H 0.26695 0.59535 0.97048 0.0
H705 H 0.24181 0.57555 0.00412 0.0
H706 H 0.30589 0.63398 0.9632 0.0
H707 H 0.31076 0.68162 0.96343 0.0
C708 C 0.20657 0.36505 0.54775 0.0
C709 C 0.23943 0.36311 0.56497 0.0
C710 C 0.24788 0.3003 0.54294 0.0
C711 C 0.2148 0.30214 0.52614 0.0
N712 N 0.16771 0.33892 0.50346 0.0
N713 N 0.2952 0.33351 0.57135 0.0
C714 C 0.19589 0.33556 0.5255 0.0
C715 C 0.26138 0.33218 0.55998 0.0
N716 N 0.18455 0.39377 0.5545 0.0
N717 N 0.26541 0.26766 0.54457 0.0
H718 H 0.30583 0.35664 0.58371 0.0
H719 H 0.31353 0.31325 0.56561 0.0
H720 H 0.25692 0.24395 0.53165 0.0
H721 H 0.28736 0.26348 0.56039 0.0
H722 H 0.15867 0.39434 0.54616 0.0
H723 H 0.19118 0.41594 0.57075 0.0
H724 H 0.15457 0.36359 0.49931 0.0
H725 H 0.15979 0.31778 0.48647 0.0
C726 C 0.72196 0.14952 0.48839 0.0
C727 C 0.72781 0.18153 0.4677 0.0
C728 C 0.77314 0.1495 0.43376 0.0
C729 C 0.76317 0.11611 0.45029 0.0
N730 N 0.72745 0.08328 0.4926 0.0
N731 N 0.75721 0.21201 0.41897 0.0
C732 C 0.73782 0.11586 0.4779 0.0
C733 C 0.75335 0.18177 0.44028 0.0
N734 N 0.70142 0.15154 0.51817 0.0
N735 N 0.80173 0.15026 0.41199 0.0
H736 H 0.74339 0.23635 0.42284 0.0
H737 H 0.77229 0.21221 0.39584 0.0
H738 H 0.81682 0.12699 0.40692 0.0
H739 H 0.81245 0.17435 0.40181 0.0
H740 H 0.69863 0.13012 0.53636 0.0
H741 H 0.68957 0.17592 0.52643 0.0
H742 H 0.70618 0.08075 0.50968 0.0
H743 H 0.73888 0.05818 0.48605 0.0
C744 C 0.06893 0.22536 0.40726 0.0
C745 C 0.10228 0.21882 0.42232 0.0
C746 C 0.11857 0.18162 0.37039 0.0
C747 C 0.08613 0.19011 0.35417 0.0
N748 N 0.03325 0.22589 0.35377 0.0
N749 N 0.16173 0.19881 0.41437 0.0
C750 C 0.06211 0.21376 0.37161 0.0
C751 C 0.12799 0.19941 0.40268 0.0
N752 N 0.04328 0.24111 0.42747 0.0
N753 N 0.13961 0.15501 0.35619 0.0
H754 H 0.16984 0.2122 0.43753 0.0
H755 H 0.18224 0.18834 0.39921 0.0
H756 H 0.13338 0.14025 0.3332 0.0
H757 H 0.16164 0.14496 0.36917 0.0
H758 H 0.01738 0.24277 0.41932 0.0
H759 H 0.04722 0.24992 0.45366 0.0
H760 H 0.01661 0.24606 0.36373 0.0
H761 H 0.02766 0.21827 0.32752 0.0
C762 C 0.38268 0.80471 0.91481 0.0
C763 C 0.39421 0.77106 0.92992 0.0
C764 C 0.43168 0.76063 0.87775 0.0
C765 C 0.42298 0.79609 0.86498 0.0
N766 N 0.39602 0.85515 0.87524 0.0
N767 N 0.43455 0.72009 0.92897 0.0
C768 C 0.4004 0.81921 0.88479 0.0
C769 C 0.41996 0.74968 0.91221 0.0
N770 N 0.35355 0.82182 0.92775 0.0
N771 N 0.45106 0.73745 0.85699 0.0
H772 H 0.4276 0.7119 0.95468 0.0
H773 H 0.45585 0.70575 0.91881 0.0
H774 H 0.46129 0.74519 0.83228 0.0
H775 H 0.45495 0.70985 0.86314 0.0
H776 H 0.34217 0.84448 0.91539 0.0
H777 H 0.33831 0.81103 0.94828 0.0
H778 H 0.38264 0.87406 0.89102 0.0
H779 H 0.40843 0.86699 0.85332 0.0
C780 C 0.62592 0.27756 0.58326 0.0
C781 C 0.60146 0.25562 0.56462 0.0
C782 C 0.55944 0.26383 0.61335 0.0
C783 C 0.58219 0.28979 0.62937 0.0
N784 N 0.6345 0.32662 0.62573 0.0
N785 N 0.54361 0.23033 0.55971 0.0
C786 C 0.61487 0.29794 0.61345 0.0
C787 C 0.56788 0.24914 0.57916 0.0
N788 N 0.66 0.27825 0.57258 0.0
N789 N 0.53029 0.25252 0.63122 0.0
H790 H 0.54897 0.2189 0.53475 0.0
H791 H 0.51751 0.22833 0.56707 0.0
H792 H 0.52347 0.26252 0.65639 0.0
H793 H 0.51457 0.23097 0.62259 0.0
H794 H 0.67966 0.29083 0.58735 0.0
H795 H 0.66929 0.26298 0.55098 0.0
H796 H 0.65669 0.33613 0.61264 0.0
H797 H 0.62681 0.34348 0.64681 0.0
C798 C 0.85992 0.67455 0.11581 0.0
C799 C 0.89 0.65185 0.11486 0.0
C800 C 0.8958 0.66233 0.05057 0.0
C801 C 0.86711 0.68694 0.05191 0.0
N802 N 0.82664 0.72267 0.08686 0.0
N803 N 0.94164 0.63187 0.08353 0.0
C804 C 0.85063 0.69498 0.08491 0.0
C805 C 0.90953 0.64815 0.08289 0.0
N806 N 0.83916 0.67518 0.14548 0.0
N807 N 0.90869 0.65064 0.01844 0.0
H808 H 0.95289 0.62164 0.10685 0.0
H809 H 0.95854 0.63193 0.06174 0.0
H810 H 0.89883 0.65923 0.99389 0.0
H811 H 0.92698 0.62962 0.0161 0.0
H812 H 0.81486 0.68792 0.14616 0.0
H813 H 0.84471 0.66034 0.16856 0.0
H814 H 0.81637 0.7323 0.11087 0.0
H815 H 0.8195 0.73844 0.06479 0.0
C816 C 0.42349 0.04713 0.16673 0.0
C817 C 0.39474 0.07155 0.16907 0.0
C818 C 0.43339 0.11905 0.19314 0.0
C819 C 0.46268 0.09679 0.18488 0.0
N820 N 0.48567 0.04123 0.15835 0.0
N821 N 0.37326 0.13308 0.1798 0.0
C822 C 0.45782 0.06109 0.17045 0.0
C823 C 0.39981 0.1081 0.1813 0.0
N824 N 0.41798 0.01037 0.16187 0.0
N825 N 0.4375 0.15018 0.21311 0.0
H826 H 0.3484 0.12672 0.17057 0.0
H827 H 0.3768 0.16102 0.1846 0.0
H828 H 0.46157 0.15847 0.22323 0.0
H829 H 0.4166 0.16551 0.22282 0.0
H830 H 0.43785 0.99091 0.16338 0.0
H831 H 0.39313 -0.0011 0.1603 0.0
H832 H 0.48301 0.01681 0.14408 0.0
H833 H 0.51125 0.05071 0.15934 0.0
C834 C 0.08825 0.86279 0.68836 0.0
C835 C 0.06462 0.88528 0.70769 0.0
C836 C 0.10345 0.93818 0.70016 0.0
C837 C 0.12805 0.91505 0.68295 0.0
N838 N 0.14743 0.85405 0.66748 0.0
N839 N 0.05227 0.94228 0.738 0.0
C840 C 0.12151 0.87693 0.67908 0.0
C841 C 0.07297 0.92241 0.71537 0.0
N842 N 0.07835 0.82855 0.67727 0.0
N843 N 0.10839 0.97537 0.70058 0.0
H844 H 0.02986 0.93152 0.7498 0.0
H845 H 0.05891 0.96819 0.7476 0.0
H846 H 0.13032 0.98802 0.68966 0.0
H847 H 0.0895 0.99396 0.7091 0.0
H848 H 0.093 0.81263 0.65968 0.0
H849 H 0.05402 0.81724 0.68295 0.0
H850 H 0.14536 0.82553 0.66774 0.0
H851 H 0.17231 0.86334 0.66083 0.0
C852 C 0.91757 0.42399 0.74087 0.0
C853 C 0.93308 0.3915 0.7545 0.0
C854 C 0.88002 0.37785 0.78839 0.0
C855 C 0.86368 0.40902 0.77296 0.0
N856 N 0.86413 0.4573 0.72889 0.0
N857 N 0.92652 0.3331 0.78417 0.0
C858 C 0.88164 0.43079 0.74748 0.0
C859 C 0.91351 0.36708 0.77614 0.0
N860 N 0.93745 0.44922 0.72311 0.0
N861 N 0.86446 0.35965 0.81608 0.0
H862 H 0.95071 0.32391 0.77508 0.0
H863 H 0.91194 0.31273 0.79674 0.0
H864 H 0.84027 0.36703 0.82654 0.0
H865 H 0.87698 0.33936 0.83092 0.0
H866 H 0.92846 0.47524 0.71615 0.0
H867 H 0.96391 0.44547 0.71794 0.0
H868 H 0.87489 0.47148 0.70739 0.0
H869 H 0.8377 0.46274 0.73272 0.0
C870 C 0.52888 0.59523 0.34126 0.0
C871 C 0.51839 0.59533 0.30494 0.0
C872 C 0.56955 0.55821 0.28928 0.0
C873 C 0.58185 0.56182 0.32487 0.0
N874 N 0.5771 0.59149 0.38246 0.0
N875 N 0.53137 0.58202 0.24318 0.0
C876 C 0.5626 0.58248 0.35027 0.0
C877 C 0.53939 0.57813 0.27854 0.0
N878 N 0.50616 0.60594 0.36743 0.0
N879 N 0.58592 0.53486 0.26612 0.0
H880 H 0.50974 0.59672 0.23424 0.0
H881 H 0.54776 0.57343 0.22262 0.0
H882 H 0.60791 0.51963 0.27311 0.0
H883 H 0.57598 0.52817 0.24107 0.0
H884 H 0.51139 0.60284 0.39457 0.0
H885 H 0.48063 0.61417 0.3622 0.0
H886 H 0.56546 0.60968 0.40036 0.0
H887 H 0.6024 0.58415 0.38968 0.0
C888 C 0.20183 0.38345 0.07802 0.0
C889 C 0.16896 0.36596 0.08095 0.0
C890 C 0.14216 0.42376 0.09996 0.0
C891 C 0.17558 0.44031 0.10058 0.0
N892 N 0.238 0.43531 0.0947 0.0
N893 N 0.10901 0.36728 0.1006 0.0
C894 C 0.20568 0.42007 0.09065 0.0
C895 C 0.13937 0.38552 0.09342 0.0
N896 N 0.22907 0.36536 0.06234 0.0
N897 N 0.11298 0.44484 0.10449 0.0
H898 H 0.10589 0.33911 0.09664 0.0
H899 H 0.08789 0.37937 0.11355 0.0
H900 H 0.11392 0.47312 0.10894 0.0
H901 H 0.0878 0.43502 0.10047 0.0
H902 H 0.25264 0.3779 0.05595 0.0
H903 H 0.22717 0.33843 0.05301 0.0
H904 H 0.26109 0.42061 0.09173 0.0
H905 H 0.24184 0.46209 0.10378 0.0
C906 C 0.72789 0.10226 0.89834 0.0
C907 C 0.70146 0.07928 0.88415 0.0
C908 C 0.65888 0.12897 0.88992 0.0
C909 C 0.68466 0.15115 0.90651 0.0
N910 N 0.74158 0.15634 0.93338 0.0
N911 N 0.64039 0.06752 0.87417 0.0
C912 C 0.71861 0.13706 0.91272 0.0
C913 C 0.66651 0.09168 0.88224 0.0
N914 N 0.76201 0.09158 0.89673 0.0
N915 N 0.62768 0.14386 0.87984 0.0
H916 H 0.64487 0.03974 0.86902 0.0
H917 H 0.61405 0.07413 0.87612 0.0
H918 H 0.62104 0.17122 0.88426 0.0
H919 H 0.60962 0.12999 0.86407 0.0
H920 H 0.7827 0.10893 0.90297 0.0
H921 H 0.76993 0.06635 0.88629 0.0
H922 H 0.76537 0.14573 0.9419 0.0
H923 H 0.7355 0.18163 0.94492 0.0
C924 C 0.82495 0.91961 0.43196 0.0
C925 C 0.79864 0.9205 0.40535 0.0
C926 C 0.79426 0.85339 0.40701 0.0
C927 C 0.81965 0.85257 0.43464 0.0
N928 N 0.85236 0.88521 0.47959 0.0
N929 N 0.75233 0.88977 0.37392 0.0
C930 C 0.83281 0.88583 0.44908 0.0
C931 C 0.78138 0.88782 0.39494 0.0
N932 N 0.84394 0.95045 0.43943 0.0
N933 N 0.78398 0.82161 0.39069 0.0
H934 H 0.74208 0.91464 0.36488 0.0
H935 H 0.73652 0.86723 0.3684 0.0
H936 H 0.79296 0.79576 0.39816 0.0
H937 H 0.76874 0.82104 0.36768 0.0
H938 H 0.86612 0.95023 0.45545 0.0
H939 H 0.8395 0.97578 0.4273 0.0
H940 H 0.85952 0.90882 0.49348 0.0
H941 H 0.85854 0.86098 0.493 0.0
C942 C 0.30133 0.59909 0.62551 0.0
C943 C 0.30683 0.56568 0.60684 0.0
C944 C 0.33884 0.59887 0.56027 0.0
C945 C 0.3375 0.63118 0.58141 0.0
N946 N 0.32096 0.66129 0.63637 0.0
N947 N 0.33524 0.53261 0.55894 0.0
C948 C 0.31942 0.63125 0.61452 0.0
C949 C 0.32653 0.56524 0.5747 0.0
N950 N 0.27817 0.60026 0.65325 0.0
N951 N 0.35111 0.6005 0.52601 0.0
H952 H 0.32723 0.50718 0.56866 0.0
H953 H 0.35302 0.53051 0.538 0.0
H954 H 0.36013 0.62472 0.51438 0.0
H955 H 0.3492 0.57874 0.50804 0.0
H956 H 0.27032 0.62456 0.66555 0.0
H957 H 0.26424 0.57728 0.66177 0.0
H958 H 0.31183 0.66134 0.66257 0.0
H959 H 0.33392 0.68538 0.62944 0.0
C960 C 0.86067 0.809 0.58786 0.0
C961 C 0.86447 0.77174 0.57739 0.0
C962 C 0.90397 0.76067 0.62774 0.0
C963 C 0.89815 0.79718 0.63948 0.0
N964 N 0.8668 0.85444 0.63468 0.0
N965 N 0.88544 0.71057 0.58937 0.0
C966 C 0.87533 0.8209 0.62065 0.0
C967 C 0.88503 0.7471 0.59784 0.0
N968 N 0.84433 0.83344 0.56573 0.0
N969 N 0.92825 0.73939 0.64463 0.0
H970 H 0.87184 0.69975 0.56766 0.0
H971 H 0.89692 0.69051 0.6053 0.0
H972 H 0.94221 0.74842 0.66687 0.0
H973 H 0.93647 0.71392 0.6352 0.0
H974 H 0.84449 0.86173 0.56983 0.0
H975 H 0.83299 0.82594 0.54152 0.0
H976 H 0.84707 0.87104 0.6245 0.0
H977 H 0.87752 0.8646 0.65828 0.0
C978 C 0.61753 0.23862 0.08694 0.0
C979 C 0.62975 0.21389 0.06043 0.0
C980 C 0.62744 0.16325 0.10337 0.0
C981 C 0.61188 0.18707 0.12877 0.0
N982 N 0.58755 0.24623 0.14359 0.0
N983 N 0.6391 0.15134 0.04099 0.0
C984 C 0.60574 0.22452 0.12032 0.0
C985 C 0.63274 0.17582 0.06796 0.0
N986 N 0.61827 0.27559 0.08067 0.0
N987 N 0.63843 0.12904 0.11339 0.0
H988 H 0.64209 0.15914 0.01436 0.0
H989 H 0.63784 0.12298 0.0444 0.0
H990 H 0.63586 0.11902 0.13936 0.0
H991 H 0.65328 0.11205 0.09694 0.0
H992 H 0.61325 0.29521 0.10026 0.0
H993 H 0.62669 0.28682 0.05653 0.0
H994 H 0.57899 0.2726 0.13735 0.0
H995 H 0.57852 0.23682 0.16822 0.0
C996 C 0.40555 0.7218 0.38137 0.0
C997 C 0.38655 0.69271 0.36538 0.0
C998 C 0.35474 0.68278 0.42128 0.0
C999 C 0.37136 0.71403 0.43618 0.0
N1000 N 0.408 0.7673 0.42857 0.0
N1001 N 0.33838 0.65012 0.36756 0.0
C1002 C 0.39555 0.73469 0.41573 0.0
C1003 C 0.35982 0.67445 0.38462 0.0
N1004 N 0.43404 0.73612 0.36442 0.0
N1005 N 0.33523 0.66012 0.44247 0.0
H1006 H 0.34083 0.64364 0.34055 0.0
H1007 H 0.31612 0.63905 0.37927 0.0
H1008 H 0.33109 0.66493 0.46959 0.0
H1009 H 0.32586 0.63473 0.43398 0.0
H1010 H 0.45114 0.75453 0.37648 0.0
H1011 H 0.44246 0.72719 0.33939 0.0
H1012 H 0.42272 0.78547 0.41329 0.0
H1013 H 0.40103 0.77785 0.45348 0.0
C1014 C 0.10302 0.26384 0.90333 0.0
C1015 C 0.11375 0.29157 0.92756 0.0
C1016 C 0.10497 0.33851 0.88155 0.0
C1017 C 0.09176 0.31122 0.85808 0.0
N1018 N 0.07183 0.24909 0.84885 0.0
N1019 N 0.11704 0.35592 0.94269 0.0
C1020 C 0.08898 0.27416 0.86958 0.0
C1021 C 0.1124 0.32911 0.91753 0.0
N1022 N 0.10744 0.22766 0.91196 0.0
N1023 N 0.11205 0.37304 0.86915 0.0
H1024 H 0.12171 0.35021 0.96957 0.0
H1025 H 0.1127 0.38369 0.93768 0.0
H1026 H 0.10773 0.38108 0.84281 0.0
H1027 H 0.12535 0.3927 0.88406 0.0
H1028 H 0.10381 0.20629 0.89385 0.0
H1029 H 0.11745 0.21906 0.93647 0.0
H1030 H 0.06579 0.22265 0.85744 0.0
H1031 H 0.06076 0.25571 0.82425 0.0
C1032 C 0.61362 0.91205 0.8485 0.0
C1033 C 0.64325 0.90763 0.82616 0.0
C1034 C 0.60663 0.88039 0.77939 0.0
C1035 C 0.57779 0.8816 0.80305 0.0
N1036 N 0.55433 0.89364 0.86173 0.0
N1037 N 0.6692 0.8859 0.77139 0.0
C1038 C 0.58128 0.89646 0.83793 0.0
C1039 C 0.64011 0.89127 0.79187 0.0
N1040 N 0.6164 0.9309 0.87999 0.0
N1041 N 0.60168 0.86995 0.74465 0.0
H1042 H 0.69377 0.8956 0.7786 0.0
H1043 H 0.66948 0.87023 0.74813 0.0
H1044 H 0.57746 0.86193 0.73469 0.0
H1045 H 0.62071 0.87194 0.72494 0.0
H1046 H 0.59501 0.93906 0.89517 0.0
H1047 H 0.63995 0.94069 0.89001 0.0
H1048 H 0.55657 0.8998 0.88878 0.0
H1049 H 0.53023 0.88224 0.85525 0.0
C1050 C 0.89363 0.08325 0.34925 0.0
C1051 C 0.86872 0.07556 0.3222 0.0
C1052 C 0.9113 0.09186 0.27593 0.0
C1053 C 0.93646 0.0981 0.30297 0.0
N1054 N 0.95439 0.09266 0.36438 0.0
N1055 N 0.85536 0.06541 0.26008 0.0
C1056 C 0.92846 0.09156 0.33935 0.0
C1057 C 0.878 0.07781 0.28556 0.0
N1058 N 0.88365 0.08451 0.38433 0.0
N1059 N 0.91887 0.10056 0.24125 0.0
H1060 H 0.83098 0.05452 0.26632 0.0
H1061 H 0.8618 0.06288 0.23318 0.0
H1062 H 0.9433 0.10998 0.23316 0.0
H1063 H 0.90041 0.10074 0.22089 0.0
H1064 H 0.89956 0.09434 0.40472 0.0
H1065 H 0.85847 0.07856 0.39297 0.0
H1066 H 0.95105 0.08424 0.39074 0.0
H1067 H 0.98022 0.09885 0.35807 0.0
C1068 C 0.0791 0.6275 0.14942 0.0
C1069 C 0.09905 0.59954 0.16609 0.0
C1070 C 0.0516 0.58794 0.20849 0.0
C1071 C 0.03073 0.61403 0.19019 0.0
N1072 N 0.02181 0.65327 0.13903 0.0
N1073 N 0.10289 0.54909 0.20769 0.0
C1074 C 0.04374 0.63251 0.15957 0.0
C1075 C 0.08481 0.57841 0.1944 0.0
N1076 N 0.09386 0.64923 0.12374 0.0
N1077 N 0.04041 0.57362 0.24026 0.0
H1078 H 0.12784 0.54206 0.19905 0.0
H1079 H 0.09222 0.5301 0.22537 0.0
H1080 H 0.01649 0.58036 0.25175 0.0
H1081 H 0.05601 0.55762 0.25684 0.0
H1082 H 0.08212 0.67295 0.11391 0.0
H1083 H 0.11891 0.64499 0.11373 0.0
H1084 H 0.0287 0.664 0.11424 0.0
H1085 H -0.00449 0.65703 0.14501 0.0
C1086 C 0.39853 0.43667 0.63522 0.0
C1087 C 0.36701 0.41813 0.64332 0.0
C1088 C 0.39935 0.3741 0.68003 0.0
C1089 C 0.43112 0.38934 0.66756 0.0
N1090 N 0.46097 0.43165 0.62828 0.0
N1091 N 0.33776 0.36573 0.66918 0.0
C1092 C 0.4308 0.41986 0.64396 0.0
C1093 C 0.36742 0.386 0.66477 0.0
N1094 N 0.39765 0.47083 0.62011 0.0
N1095 N 0.39958 0.34905 0.70721 0.0
H1096 H 0.3139 0.37306 0.65804 0.0
H1097 H 0.33753 0.33991 0.68116 0.0
H1098 H 0.42242 0.34035 0.71972 0.0
H1099 H 0.377 0.3398 0.71978 0.0
H1100 H 0.41973 0.48713 0.61689 0.0
H1101 H 0.37445 0.4845 0.61427 0.0
H1102 H 0.46153 0.45117 0.60795 0.0
H1103 H 0.48515 0.41953 0.63297 0.0
C1104 C 0.7611 0.63322 0.89083 0.0
C1105 C 0.797 0.64045 0.89659 0.0
C1106 C 0.81006 0.57517 0.88867 0.0
C1107 C 0.77508 0.56881 0.87818 0.0
N1108 N 0.71864 0.59358 0.86263 0.0
N1109 N 0.8567 0.61941 0.89246 0.0
C1110 C 0.75085 0.5983 0.87748 0.0
C1111 C 0.82183 0.61174 0.89317 0.0
N1112 N 0.73663 0.65908 0.89934 0.0
N1113 N 0.8318 0.54629 0.89563 0.0
H1114 H 0.86664 0.64601 0.89385 0.0
H1115 H 0.87555 0.59973 0.88645 0.0
H1116 H 0.8238 0.51896 0.89419 0.0
H1117 H 0.85652 0.54958 0.90668 0.0
H1118 H 0.70996 0.65377 0.89903 0.0
H1119 H 0.74295 0.68461 0.91018 0.0
H1120 H 0.70142 0.61523 0.85815 0.0
H1121 H 0.71039 0.56881 0.85153 0.0
C1122 C 0.32978 0.91467 0.041 0.0
C1123 C 0.32675 0.88347 0.06348 0.0
C1124 C 0.29028 0.91888 0.10476 0.0
C1125 C 0.29777 0.95122 0.08512 0.0
N1126 N 0.329 0.98099 0.03711 0.0
N1127 N 0.30822 0.85707 0.11959 0.0
C1128 C 0.31848 0.94945 0.05373 0.0
C1129 C 0.30786 0.88575 0.09603 0.0
N1130 N 0.34257 0.9109 0.0071 0.0
N1131 N 0.26579 0.91968 0.13129 0.0
H1132 H 0.3214 0.83256 0.11472 0.0
H1133 H 0.29817 0.85884 0.14539 0.0
H1134 H 0.25193 0.94338 0.13796 0.0
H1135 H 0.25674 0.89617 0.14414 0.0
H1136 H 0.34211 0.932 0.98832 0.0
H1137 H 0.35038 0.88568 -0.00348 0.0
H1138 H 0.34734 0.98134 0.01659 0.0
H1139 H 0.32187 0.00714 0.04578 0.0
C1140 C 0.24045 0.08035 0.57813 0.0
C1141 C 0.22751 0.06918 0.61197 0.0
C1142 C 0.18834 0.12229 0.61343 0.0
C1143 C 0.20309 0.13494 0.58093 0.0
N1144 N 0.24655 0.12937 0.53468 0.0
N1145 N 0.19542 0.08383 0.66561 0.0
C1146 C 0.23036 0.11508 0.5641 0.0
C1147 C 0.20313 0.09132 0.63067 0.0
N1148 N 0.26087 0.05699 0.5586 0.0
N1149 N 0.15999 0.13963 0.62779 0.0
H1150 H 0.2067 0.06218 0.67972 0.0
H1151 H 0.1807 0.10122 0.68176 0.0
H1152 H 0.14905 0.16326 0.61687 0.0
H1153 H 0.14563 0.12898 0.649 0.0
H1154 H 0.26798 0.06187 0.53218 0.0
H1155 H 0.26838 0.03111 0.56769 0.0
H1156 H 0.26914 0.11829 0.52365 0.0
H1157 H 0.2388 0.1539 0.52267 0.0
C1158 C 0.66013 0.39146 0.43568 0.0
C1159 C 0.66574 0.35854 0.41615 0.0
C1160 C 0.69744 0.39264 0.36993 0.0
C1161 C 0.6923 0.42541 0.38978 0.0
N1162 N 0.67548 0.45551 0.44445 0.0
N1163 N 0.69445 0.32612 0.36817 0.0
C1164 C 0.67552 0.42468 0.42352 0.0
C1165 C 0.68611 0.35859 0.38447 0.0
N1166 N 0.63985 0.39096 0.46574 0.0
N1167 N 0.71141 0.39434 0.33634 0.0
H1168 H 0.68525 0.30077 0.37692 0.0
H1169 H 0.71244 0.32389 0.34748 0.0
H1170 H 0.7204 0.41866 0.32493 0.0
H1171 H 0.71196 0.37226 0.31869 0.0
H1172 H 0.63098 0.41454 0.47859 0.0
H1173 H 0.63036 0.3668 0.47711 0.0
H1174 H 0.66686 0.45601 0.47081 0.0
H1175 H 0.68691 0.4802 0.43653 0.0
loop_
_geom_bond_atom_site_label_1
_geom_bond_atom_site_label_2
_geom_bond_distance
_geom_bond_site_symmetry_2
_ccdc_geom_bond_type
C0 O1 1.160 . S
C0 O7 1.185 . S
O1 C0 1.160 . S
O2 Zn3 1.899 . S
O2 C10 1.284 . S
Zn3 O2 1.899 . S
Zn3 O4 2.032 . S
Zn3 O7 2.086 . S
Zn3 O12 1.977 . S
O4 Zn3 2.032 . S
O4 C8 1.278 . S
C5 O6 1.203 . S
C5 O12 1.267 . S
O6 C5 1.203 . S
O7 C0 1.185 . S
O7 Zn3 2.086 . S
C8 O4 1.278 . S
C8 O9 1.211 . S
O9 C8 1.211 . S
C10 O2 1.284 . S
C10 O11 1.273 . S
O11 C10 1.273 . S
O12 Zn3 1.977 . S
O12 C5 1.267 . S
C13 O14 1.160 . S
C13 O20 1.185 . S
O14 C13 1.160 . S
O15 Zn16 1.899 . S
O15 C23 1.284 . S
Zn16 O15 1.899 . S
Zn16 O17 2.032 . S
Zn16 O20 2.086 . S
Zn16 O25 1.977 . S
O17 Zn16 2.032 . S
O17 C21 1.278 . S
C18 O19 1.203 . S
C18 O25 1.267 . S
O19 C18 1.203 . S
O20 C13 1.185 . S
O20 Zn16 2.086 . S
C21 O17 1.278 . S
C21 O22 1.211 . S
O22 C21 1.211 . S
C23 O15 1.284 . S
C23 O24 1.273 . S
O24 C23 1.273 . S
O25 Zn16 1.977 . S
O25 C18 1.267 . S
C26 O27 1.160 . S
C26 O33 1.185 . S
O27 C26 1.160 . S
O28 Zn29 1.899 . S
O28 C36 1.284 . S
Zn29 O28 1.899 . S
Zn29 O30 2.032 . S
Zn29 O33 2.086 . S
Zn29 O38 1.977 . S
O30 Zn29 2.032 . S
O30 C34 1.278 . S
C31 O32 1.203 . S
C31 O38 1.267 . S
O32 C31 1.203 . S
O33 C26 1.185 . S
O33 Zn29 2.086 . S
C34 O30 1.278 . S
C34 O35 1.211 . S
O35 C34 1.211 . S
C36 O28 1.284 . S
C36 O37 1.273 . S
O37 C36 1.273 . S
O38 Zn29 1.977 . S
O38 C31 1.267 . S
C39 O40 1.160 . S
C39 O46 1.185 . S
O40 C39 1.160 . S
O41 Zn42 1.899 . S
O41 C49 1.284 . S
Zn42 O41 1.899 . S
Zn42 O43 2.032 . S
Zn42 O46 2.086 . S
Zn42 O51 1.977 . S
O43 Zn42 2.032 . S
O43 C47 1.278 . S
C44 O45 1.203 . S
C44 O51 1.267 . S
O45 C44 1.203 . S
O46 C39 1.185 . S
O46 Zn42 2.086 . S
C47 O43 1.278 . S
C47 O48 1.211 . S
O48 C47 1.211 . S
C49 O41 1.284 . S
C49 O50 1.273 . S
O50 C49 1.273 . S
O51 Zn42 1.977 . S
O51 C44 1.267 . S
C52 O53 1.160 . S
C52 O59 1.185 . S
O53 C52 1.160 . S
O54 Zn55 1.899 . S
O54 C62 1.284 . S
Zn55 O54 1.899 . S
Zn55 O56 2.032 . S
Zn55 O59 2.086 . S
Zn55 O64 1.977 . S
O56 Zn55 2.032 . S
O56 C60 1.278 . S
C57 O58 1.203 . S
C57 O64 1.267 . S
O58 C57 1.203 . S
O59 C52 1.185 . S
O59 Zn55 2.086 . S
C60 O56 1.278 . S
C60 O61 1.211 . S
O61 C60 1.211 . S
C62 O54 1.284 . S
C62 O63 1.273 . S
O63 C62 1.273 . S
O64 Zn55 1.977 . S
O64 C57 1.267 . S
C65 O66 1.160 . S
C65 O72 1.185 . S
O66 C65 1.160 . S
O67 Zn68 1.899 . S
O67 C75 1.284 . S
Zn68 O67 1.899 . S
Zn68 O69 2.032 . S
Zn68 O72 2.086 . S
Zn68 O77 1.977 . S
O69 Zn68 2.032 . S
O69 C73 1.278 . S
C70 O71 1.203 . S
C70 O77 1.267 . S
O71 C70 1.203 . S
O72 C65 1.185 . S
O72 Zn68 2.086 . S
C73 O69 1.278 . S
C73 O74 1.211 . S
O74 C73 1.211 . S
C75 O67 1.284 . S
C75 O76 1.273 . S
O76 C75 1.273 . S
O77 Zn68 1.977 . S
O77 C70 1.267 . S
C78 O79 1.160 . S
C78 O85 1.185 . S
O79 C78 1.160 . S
O80 Zn81 1.899 . S
O80 C88 1.284 . S
Zn81 O80 1.899 . S
Zn81 O82 2.032 . S
Zn81 O85 2.086 . S
Zn81 O90 1.977 . S
O82 Zn81 2.032 . S
O82 C86 1.278 . S
C83 O84 1.203 . S
C83 O90 1.267 . S
O84 C83 1.203 . S
O85 C78 1.185 . S
O85 Zn81 2.086 . S
C86 O82 1.278 . S
C86 O87 1.211 . S
O87 C86 1.211 . S
C88 O80 1.284 . S
C88 O89 1.273 . S
O89 C88 1.273 . S
O90 Zn81 1.977 . S
O90 C83 1.267 . S
C91 O92 1.160 . S
C91 O98 1.185 . S
O92 C91 1.160 . S
O93 Zn94 1.899 . S
O93 C101 1.284 . S
Zn94 O93 1.899 . S
Zn94 O95 2.032 . S
Zn94 O98 2.086 . S
Zn94 O103 1.977 . S
O95 Zn94 2.032 . S
O95 C99 1.278 . S
C96 O97 1.203 . S
C96 O103 1.267 . S
O97 C96 1.203 . S
O98 C91 1.185 . S
O98 Zn94 2.086 . S
C99 O95 1.278 . S
C99 O100 1.211 . S
O100 C99 1.211 . S
C101 O93 1.284 . S
C101 O102 1.273 . S
O102 C101 1.273 . S
O103 Zn94 1.977 . S
O103 C96 1.267 . S
C104 O105 1.160 . S
C104 O111 1.185 . S
O105 C104 1.160 . S
O106 Zn107 1.899 . S
O106 C114 1.284 . S
Zn107 O106 1.899 . S
Zn107 O108 2.032 . S
Zn107 O111 2.086 . S
Zn107 O116 1.977 . S
O108 Zn107 2.032 . S
O108 C112 1.278 . S
C109 O110 1.203 . S
C109 O116 1.267 . S
O110 C109 1.203 . S
O111 C104 1.185 . S
O111 Zn107 2.086 . S
C112 O108 1.278 . S
C112 O113 1.211 . S
O113 C112 1.211 . S
C114 O106 1.284 . S
C114 O115 1.273 . S
O115 C114 1.273 . S
O116 Zn107 1.977 . S
O116 C109 1.267 . S
C117 O118 1.160 . S
C117 O124 1.185 . S
O118 C117 1.160 . S
O119 Zn120 1.899 . S
O119 C127 1.284 . S
Zn120 O119 1.899 . S
Zn120 O121 2.032 . S
Zn120 O124 2.086 . S
Zn120 O129 1.977 . S
O121 Zn120 2.032 . S
O121 C125 1.278 . S
C122 O123 1.203 . S
C122 O129 1.267 . S
O123 C122 1.203 . S
O124 C117 1.185 . S
O124 Zn120 2.086 . S
C125 O121 1.278 . S
C125 O126 1.211 . S
O126 C125 1.211 . S
C127 O119 1.284 . S
C127 O128 1.273 . S
O128 C127 1.273 . S
O129 Zn120 1.977 . S
O129 C122 1.267 . S
C130 O131 1.160 . S
C130 O137 1.185 . S
O131 C130 1.160 . S
O132 Zn133 1.899 . S
O132 C140 1.284 . S
Zn133 O132 1.899 . S
Zn133 O134 2.032 . S
Zn133 O137 2.086 . S
Zn133 O142 1.977 . S
O134 Zn133 2.032 . S
O134 C138 1.278 . S
C135 O136 1.203 . S
C135 O142 1.267 . S
O136 C135 1.203 . S
O137 C130 1.185 . S
O137 Zn133 2.086 . S
C138 O134 1.278 . S
C138 O139 1.211 . S
O139 C138 1.211 . S
C140 O132 1.284 . S
C140 O141 1.273 . S
O141 C140 1.273 . S
O142 Zn133 1.977 . S
O142 C135 1.267 . S
C143 O144 1.160 . S
C143 O150 1.185 . S
O144 C143 1.160 . S
O145 Zn146 1.899 . S
O145 C153 1.284 . S
Zn146 O145 1.899 . S
Zn146 O147 2.032 . S
Zn146 O150 2.086 . S
Zn146 O155 1.977 . S
O147 Zn146 2.032 . S
O147 C151 1.278 . S
C148 O149 1.203 . S
C148 O155 1.267 . S
O149 C148 1.203 . S
O150 C143 1.185 . S
O150 Zn146 2.086 . S
C151 O147 1.278 . S
C151 O152 1.211 . S
O152 C151 1.211 . S
C153 O145 1.284 . S
C153 O154 1.273 . S
O154 C153 1.273 . S
O155 Zn146 1.977 . S
O155 C148 1.267 . S
C156 O157 1.160 . S
C156 O163 1.185 . S
O157 C156 1.160 . S
O158 Zn159 1.899 . S
O158 C166 1.284 . S
Zn159 O158 1.899 . S
Zn159 O160 2.032 . S
Zn159 O163 2.086 . S
Zn159 O168 1.977 . S
O160 Zn159 2.032 . S
O160 C164 1.278 . S
C161 O162 1.203 . S
C161 O168 1.267 . S
O162 C161 1.203 . S
O163 C156 1.185 . S
O163 Zn159 2.086 . S
C164 O160 1.278 . S
C164 O165 1.211 . S
O165 C164 1.211 . S
C166 O158 1.284 . S
C166 O167 1.273 . S
O167 C166 1.273 . S
O168 Zn159 1.977 . S
O168 C161 1.267 . S
C169 O170 1.160 . S
C169 O176 1.185 . S
O170 C169 1.160 . S
O171 Zn172 1.899 . S
O171 C179 1.284 . S
Zn172 O171 1.899 . S
Zn172 O173 2.032 . S
Zn172 O176 2.086 . S
Zn172 O181 1.977 . S
O173 Zn172 2.032 . S
O173 C177 1.278 . S
C174 O175 1.203 . S
C174 O181 1.267 . S
O175 C174 1.203 . S
O176 C169 1.185 . S
O176 Zn172 2.086 . S
C177 O173 1.278 . S
C177 O178 1.211 . S
O178 C177 1.211 . S
C179 O171 1.284 . S
C179 O180 1.273 . S
O180 C179 1.273 . S
O181 Zn172 1.977 . S
O181 C174 1.267 . S
C182 O183 1.160 . S
C182 O189 1.185 . S
O183 C182 1.160 . S
O184 Zn185 1.899 . S
O184 C192 1.284 . S
Zn185 O184 1.899 . S
Zn185 O186 2.032 . S
Zn185 O189 2.086 . S
Zn185 O194 1.977 . S
O186 Zn185 2.032 . S
O186 C190 1.278 . S
C187 O188 1.203 . S
C187 O194 1.267 . S
O188 C187 1.203 . S
O189 C182 1.185 . S
O189 Zn185 2.086 . S
C190 O186 1.278 . S
C190 O191 1.211 . S
O191 C190 1.211 . S
C192 O184 1.284 . S
C192 O193 1.273 . S
O193 C192 1.273 . S
O194 Zn185 1.977 . S
O194 C187 1.267 . S
C195 O196 1.160 . S
C195 O202 1.185 . S
O196 C195 1.160 . S
O197 Zn198 1.899 . S
O197 C205 1.284 . S
Zn198 O197 1.899 . S
Zn198 O199 2.032 . S
Zn198 O202 2.086 . S
Zn198 O207 1.977 . S
O199 Zn198 2.032 . S
O199 C203 1.278 . S
C200 O201 1.203 . S
C200 O207 1.267 . S
O201 C200 1.203 . S
O202 C195 1.185 . S
O202 Zn198 2.086 . S
C203 O199 1.278 . S
C203 O204 1.211 . S
O204 C203 1.211 . S
C205 O197 1.284 . S
C205 O206 1.273 . S
O206 C205 1.273 . S
O207 Zn198 1.977 . S
O207 C200 1.267 . S
C208 O209 1.160 . S
C208 O215 1.185 . S
O209 C208 1.160 . S
O210 Zn211 1.899 . S
O210 C218 1.284 . S
Zn211 O210 1.899 . S
Zn211 O212 2.032 . S
Zn211 O215 2.086 . S
Zn211 O220 1.977 . S
O212 Zn211 2.032 . S
O212 C216 1.278 . S
C213 O214 1.203 . S
C213 O220 1.267 . S
O214 C213 1.203 . S
O215 C208 1.185 . S
O215 Zn211 2.086 . S
C216 O212 1.278 . S
C216 O217 1.211 . S
O217 C216 1.211 . S
C218 O210 1.284 . S
C218 O219 1.273 . S
O219 C218 1.273 . S
O220 Zn211 1.977 . S
O220 C213 1.267 . S
C221 O222 1.160 . S
C221 O228 1.185 . S
O222 C221 1.160 . S
O223 Zn224 1.899 . S
O223 C231 1.284 . S
Zn224 O223 1.899 . S
Zn224 O225 2.032 . S
Zn224 O228 2.086 . S
Zn224 O233 1.977 . S
O225 Zn224 2.032 . S
O225 C229 1.278 . S
C226 O227 1.203 . S
C226 O233 1.267 . S
O227 C226 1.203 . S
O228 C221 1.185 . S
O228 Zn224 2.086 . S
C229 O225 1.278 . S
C229 O230 1.211 . S
O230 C229 1.211 . S
C231 O223 1.284 . S
C231 O232 1.273 . S
O232 C231 1.273 . S
O233 Zn224 1.977 . S
O233 C226 1.267 . S
C234 O235 1.160 . S
C234 O241 1.185 . S
O235 C234 1.160 . S
O236 Zn237 1.899 . S
O236 C244 1.284 . S
Zn237 O236 1.899 . S
Zn237 O238 2.032 . S
Zn237 O241 2.086 . S
Zn237 O246 1.977 . S
O238 Zn237 2.032 . S
O238 C242 1.278 . S
C239 O240 1.203 . S
C239 O246 1.267 . S
O240 C239 1.203 . S
O241 C234 1.185 . S
O241 Zn237 2.086 . S
C242 O238 1.278 . S
C242 O243 1.211 . S
O243 C242 1.211 . S
C244 O236 1.284 . S
C244 O245 1.273 . S
O245 C244 1.273 . S
O246 Zn237 1.977 . S
O246 C239 1.267 . S
C247 O248 1.160 . S
C247 O254 1.185 . S
O248 C247 1.160 . S
O249 Zn250 1.899 . S
O249 C257 1.284 . S
Zn250 O249 1.899 . S
Zn250 O251 2.032 . S
Zn250 O254 2.086 . S
Zn250 O259 1.977 . S
O251 Zn250 2.032 . S
O251 C255 1.278 . S
C252 O253 1.203 . S
C252 O259 1.267 . S
O253 C252 1.203 . S
O254 C247 1.185 . S
O254 Zn250 2.086 . S
C255 O251 1.278 . S
C255 O256 1.211 . S
O256 C255 1.211 . S
C257 O249 1.284 . S
C257 O258 1.273 . S
O258 C257 1.273 . S
O259 Zn250 1.977 . S
O259 C252 1.267 . S
C260 O261 1.160 . S
C260 O267 1.185 . S
O261 C260 1.160 . S
O262 Zn263 1.899 . S
O262 C270 1.284 . S
Zn263 O262 1.899 . S
Zn263 O264 2.032 . S
Zn263 O267 2.086 . S
Zn263 O272 1.977 . S
O264 Zn263 2.032 . S
O264 C268 1.278 . S
C265 O266 1.203 . S
C265 O272 1.267 . S
O266 C265 1.203 . S
O267 C260 1.185 . S
O267 Zn263 2.086 . S
C268 O264 1.278 . S
C268 O269 1.211 . S
O269 C268 1.211 . S
C270 O262 1.284 . S
C270 O271 1.273 . S
O271 C270 1.273 . S
O272 Zn263 1.977 . S
O272 C265 1.267 . S
C273 O274 1.160 . S
C273 O280 1.185 . S
O274 C273 1.160 . S
O275 Zn276 1.899 . S
O275 C283 1.284 . S
Zn276 O275 1.899 . S
Zn276 O277 2.032 . S
Zn276 O280 2.086 . S
Zn276 O285 1.977 . S
O277 Zn276 2.032 . S
O277 C281 1.278 . S
C278 O279 1.203 . S
C278 O285 1.267 . S
O279 C278 1.203 . S
O280 C273 1.185 . S
O280 Zn276 2.086 . S
C281 O277 1.278 . S
C281 O282 1.211 . S
O282 C281 1.211 . S
C283 O275 1.284 . S
C283 O284 1.273 . S
O284 C283 1.273 . S
O285 Zn276 1.977 . S
O285 C278 1.267 . S
C286 O287 1.160 . S
C286 O293 1.185 . S
O287 C286 1.160 . S
O288 Zn289 1.899 . S
O288 C296 1.284 . S
Zn289 O288 1.899 . S
Zn289 O290 2.032 . S
Zn289 O293 2.086 . S
Zn289 O298 1.977 . S
O290 Zn289 2.032 . S
O290 C294 1.278 . S
C291 O292 1.203 . S
C291 O298 1.267 . S
O292 C291 1.203 . S
O293 C286 1.185 . S
O293 Zn289 2.086 . S
C294 O290 1.278 . S
C294 O295 1.211 . S
O295 C294 1.211 . S
C296 O288 1.284 . S
C296 O297 1.273 . S
O297 C296 1.273 . S
O298 Zn289 1.977 . S
O298 C291 1.267 . S
C299 O300 1.160 . S
C299 O306 1.185 . S
O300 C299 1.160 . S
O301 Zn302 1.899 . S
O301 C309 1.284 . S
Zn302 O301 1.899 . S
Zn302 O303 2.032 . S
Zn302 O306 2.086 . S
Zn302 O311 1.977 . S
O303 Zn302 2.032 . S
O303 C307 1.278 . S
C304 O305 1.203 . S
C304 O311 1.267 . S
O305 C304 1.203 . S
O306 C299 1.185 . S
O306 Zn302 2.086 . S
C307 O303 1.278 . S
C307 O308 1.211 . S
O308 C307 1.211 . S
C309 O301 1.284 . S
C309 O310 1.273 . S
O310 C309 1.273 . S
O311 Zn302 1.977 . S
O311 C304 1.267 . S
C312 C313 1.363 . S
C312 C318 1.379 . S
C312 N320 1.356 . S
C313 C312 1.363 . S
C313 C319 1.363 . S
C314 C315 1.363 . S
C314 C319 1.379 . S
C314 N321 1.356 . S
C315 C314 1.363 . S
C315 C318 1.363 . S
N316 C318 1.356 . S
N316 H328 0.984 . S
N316 H329 0.985 . S
N317 C319 1.356 . S
N317 H322 0.984 . S
N317 H323 0.985 . S
C318 C312 1.379 . S
C318 C315 1.363 . S
C318 N316 1.356 . S
C319 C313 1.363 . S
C319 C314 1.379 . S
C319 N317 1.356 . S
N320 C312 1.356 . S
N320 H326 0.984 . S
N320 H327 0.984 . S
N321 C314 1.356 . S
N321 H324 0.984 . S
N321 H325 0.985 . S
H322 N317 0.984 . S
H323 N317 0.985 . S
H324 N321 0.984 . S
H325 N321 0.985 . S
H326 N320 0.984 . S
H327 N320 0.984 . S
H328 N316 0.984 . S
H329 N316 0.985 . S
C330 C331 1.363 . S
C330 C336 1.379 . S
C330 N338 1.356 . S
C331 C330 1.363 . S
C331 C337 1.363 . S
C332 C333 1.363 . S
C332 C337 1.379 . S
C332 N339 1.356 . S
C333 C332 1.363 . S
C333 C336 1.363 . S
N334 C336 1.356 . S
N334 H346 0.984 . S
N334 H347 0.985 . S
N335 C337 1.356 . S
N335 H340 0.984 . S
N335 H341 0.985 . S
C336 C330 1.379 . S
C336 C333 1.363 . S
C336 N334 1.356 . S
C337 C331 1.363 . S
C337 C332 1.379 . S
C337 N335 1.356 . S
N338 C330 1.356 . S
N338 H344 0.984 . S
N338 H345 0.984 . S
N339 C332 1.356 . S
N339 H342 0.984 . S
N339 H343 0.985 . S
H340 N335 0.984 . S
H341 N335 0.985 . S
H342 N339 0.984 . S
H343 N339 0.985 . S
H344 N338 0.984 . S
H345 N338 0.984 . S
H346 N334 0.984 . S
H347 N334 0.985 . S
C348 C349 1.363 . S
C348 C354 1.379 . S
C348 N356 1.356 . S
C349 C348 1.363 . S
C349 C355 1.363 . S
C350 C351 1.363 . S
C350 C355 1.379 . S
C350 N357 1.356 . S
C351 C350 1.363 . S
C351 C354 1.363 . S
N352 C354 1.356 . S
N352 H364 0.984 . S
N352 H365 0.985 . S
N353 C355 1.356 . S
N353 H358 0.984 . S
N353 H359 0.985 . S
C354 C348 1.379 . S
C354 C351 1.363 . S
C354 N352 1.356 . S
C355 C349 1.363 . S
C355 C350 1.379 . S
C355 N353 1.356 . S
N356 C348 1.356 . S
N356 H362 0.984 . S
N356 H363 0.984 . S
N357 C350 1.356 . S
N357 H360 0.984 . S
N357 H361 0.985 . S
H358 N353 0.984 . S
H359 N353 0.985 . S
H360 N357 0.984 . S
H361 N357 0.985 . S
H362 N356 0.984 . S
H363 N356 0.984 . S
H364 N352 0.984 . S
H365 N352 0.985 . S
C366 C367 1.363 . S
C366 C372 1.379 . S
C366 N374 1.356 . S
C367 C366 1.363 . S
C367 C373 1.363 . S
C368 C369 1.363 . S
C368 C373 1.379 . S
C368 N375 1.356 . S
C369 C368 1.363 . S
C369 C372 1.363 . S
N370 C372 1.356 . S
N370 H382 0.984 . S
N370 H383 0.985 . S
N371 C373 1.356 . S
N371 H376 0.984 . S
N371 H377 0.985 . S
C372 C366 1.379 . S
C372 C369 1.363 . S
C372 N370 1.356 . S
C373 C367 1.363 . S
C373 C368 1.379 . S
C373 N371 1.356 . S
N374 C366 1.356 . S
N374 H380 0.984 . S
N374 H381 0.984 . S
N375 C368 1.356 . S
N375 H378 0.984 . S
N375 H379 0.985 . S
H376 N371 0.984 . S
H377 N371 0.985 . S
H378 N375 0.984 . S
H379 N375 0.985 . S
H380 N374 0.984 . S
H381 N374 0.984 . S
H382 N370 0.984 . S
H383 N370 0.985 . S
C384 C385 1.363 . S
C384 C390 1.379 . S
C384 N392 1.356 . S
C385 C384 1.363 . S
C385 C391 1.363 . S
C386 C387 1.363 . S
C386 C391 1.379 . S
C386 N393 1.356 . S
C387 C386 1.363 . S
C387 C390 1.363 . S
N388 C390 1.356 . S
N388 H400 0.984 . S
N388 H401 0.985 . S
N389 C391 1.356 . S
N389 H394 0.984 . S
N389 H395 0.985 . S
C390 C384 1.379 . S
C390 C387 1.363 . S
C390 N388 1.356 . S
C391 C385 1.363 . S
C391 C386 1.379 . S
C391 N389 1.356 . S
N392 C384 1.356 . S
N392 H398 0.984 . S
N392 H399 0.984 . S
N393 C386 1.356 . S
N393 H396 0.984 . S
N393 H397 0.985 . S
H394 N389 0.984 . S
H395 N389 0.985 . S
H396 N393 0.984 . S
H397 N393 0.985 . S
H398 N392 0.984 . S
H399 N392 0.984 . S
H400 N388 0.984 . S
H401 N388 0.985 . S
C402 C403 1.363 . S
C402 C408 1.379 . S
C402 N410 1.356 . S
C403 C402 1.363 . S
C403 C409 1.363 . S
C404 C405 1.363 . S
C404 C409 1.379 . S
C404 N411 1.356 . S
C405 C404 1.363 . S
C405 C408 1.363 . S
N406 C408 1.356 . S
N406 H418 0.984 . S
N406 H419 0.985 . S
N407 C409 1.356 . S
N407 H412 0.984 . S
N407 H413 0.985 . S
C408 C402 1.379 . S
C408 C405 1.363 . S
C408 N406 1.356 . S
C409 C403 1.363 . S
C409 C404 1.379 . S
C409 N407 1.356 . S
N410 C402 1.356 . S
N410 H416 0.984 . S
N410 H417 0.984 . S
N411 C404 1.356 . S
N411 H414 0.984 . S
N411 H415 0.985 . S
H412 N407 0.984 . S
H413 N407 0.985 . S
H414 N411 0.984 . S
H415 N411 0.985 . S
H416 N410 0.984 . S
H417 N410 0.984 . S
H418 N406 0.984 . S
H419 N406 0.985 . S
C420 C421 1.363 . S
C420 C426 1.379 . S
C420 N428 1.356 . S
C421 C420 1.363 . S
C421 C427 1.363 . S
C422 C423 1.363 . S
C422 C427 1.379 . S
C422 N429 1.356 . S
C423 C422 1.363 . S
C423 C426 1.363 . S
N424 C426 1.356 . S
N424 H436 0.984 . S
N424 H437 0.985 . S
N425 C427 1.356 . S
N425 H430 0.984 . S
N425 H431 0.985 . S
C426 C420 1.379 . S
C426 C423 1.363 . S
C426 N424 1.356 . S
C427 C421 1.363 . S
C427 C422 1.379 . S
C427 N425 1.356 . S
N428 C420 1.356 . S
N428 H434 0.984 . S
N428 H435 0.984 . S
N429 C422 1.356 . S
N429 H432 0.984 . S
N429 H433 0.985 . S
H430 N425 0.984 . S
H431 N425 0.985 . S
H432 N429 0.984 . S
H433 N429 0.985 . S
H434 N428 0.984 . S
H435 N428 0.984 . S
H436 N424 0.984 . S
H437 N424 0.985 . S
C438 C439 1.363 . S
C438 C444 1.379 . S
C438 N446 1.356 . S
C439 C438 1.363 . S
C439 C445 1.363 . S
C440 C441 1.363 . S
C440 C445 1.379 . S
C440 N447 1.356 . S
C441 C440 1.363 . S
C441 C444 1.363 . S
N442 C444 1.356 . S
N442 H454 0.984 . S
N442 H455 0.985 . S
N443 C445 1.356 . S
N443 H448 0.984 . S
N443 H449 0.985 . S
C444 C438 1.379 . S
C444 C441 1.363 . S
C444 N442 1.356 . S
C445 C439 1.363 . S
C445 C440 1.379 . S
C445 N443 1.356 . S
N446 C438 1.356 . S
N446 H452 0.984 . S
N446 H453 0.984 . S
N447 C440 1.356 . S
N447 H450 0.984 . S
N447 H451 0.985 . S
H448 N443 0.984 . S
H449 N443 0.985 . S
H450 N447 0.984 . S
H451 N447 0.985 . S
H452 N446 0.984 . S
H453 N446 0.984 . S
H454 N442 0.984 . S
H455 N442 0.985 . S
C456 C457 1.363 . S
C456 C462 1.379 . S
C456 N464 1.356 . S
C457 C456 1.363 . S
C457 C463 1.363 . S
C458 C459 1.363 . S
C458 C463 1.379 . S
C458 N465 1.356 . S
C459 C458 1.363 . S
C459 C462 1.363 . S
N460 C462 1.356 . S
N460 H472 0.984 . S
N460 H473 0.985 . S
N461 C463 1.356 . S
N461 H466 0.984 . S
N461 H467 0.985 . S
C462 C456 1.379 . S
C462 C459 1.363 . S
C462 N460 1.356 . S
C463 C457 1.363 . S
C463 C458 1.379 . S
C463 N461 1.356 . S
N464 C456 1.356 . S
N464 H470 0.984 . S
N464 H471 0.984 . S
N465 C458 1.356 . S
N465 H468 0.984 . S
N465 H469 0.985 . S
H466 N461 0.984 . S
H467 N461 0.985 . S
H468 N465 0.984 . S
H469 N465 0.985 . S
H470 N464 0.984 . S
H471 N464 0.984 . S
H472 N460 0.984 . S
H473 N460 0.985 . S
C474 C475 1.363 . S
C474 C480 1.379 . S
C474 N482 1.356 . S
C475 C474 1.363 . S
C475 C481 1.363 . S
C476 C477 1.363 . S
C476 C481 1.379 . S
C476 N483 1.356 . S
C477 C476 1.363 . S
C477 C480 1.363 . S
N478 C480 1.356 . S
N478 H490 0.984 . S
N478 H491 0.985 . S
N479 C481 1.356 . S
N479 H484 0.984 . S
N479 H485 0.985 . S
C480 C474 1.379 . S
C480 C477 1.363 . S
C480 N478 1.356 . S
C481 C475 1.363 . S
C481 C476 1.379 . S
C481 N479 1.356 . S
N482 C474 1.356 . S
N482 H488 0.984 . S
N482 H489 0.984 . S
N483 C476 1.356 . S
N483 H486 0.984 . S
N483 H487 0.985 . S
H484 N479 0.984 . S
H485 N479 0.985 . S
H486 N483 0.984 . S
H487 N483 0.985 . S
H488 N482 0.984 . S
H489 N482 0.984 . S
H490 N478 0.984 . S
H491 N478 0.985 . S
C492 C493 1.363 . S
C492 C498 1.379 . S
C492 N500 1.356 . S
C493 C492 1.363 . S
C493 C499 1.363 . S
C494 C495 1.363 . S
C494 C499 1.379 . S
C494 N501 1.356 . S
C495 C494 1.363 . S
C495 C498 1.363 . S
N496 C498 1.356 . S
N496 H508 0.984 . S
N496 H509 0.985 . S
N497 C499 1.356 . S
N497 H502 0.984 . S
N497 H503 0.985 . S
C498 C492 1.379 . S
C498 C495 1.363 . S
C498 N496 1.356 . S
C499 C493 1.363 . S
C499 C494 1.379 . S
C499 N497 1.356 . S
N500 C492 1.356 . S
N500 H506 0.984 . S
N500 H507 0.984 . S
N501 C494 1.356 . S
N501 H504 0.984 . S
N501 H505 0.985 . S
H502 N497 0.984 . S
H503 N497 0.985 . S
H504 N501 0.984 . S
H505 N501 0.985 . S
H506 N500 0.984 . S
H507 N500 0.984 . S
H508 N496 0.984 . S
H509 N496 0.985 . S
C510 C511 1.363 . S
C510 C516 1.379 . S
C510 N518 1.356 . S
C511 C510 1.363 . S
C511 C517 1.363 . S
C512 C513 1.363 . S
C512 C517 1.379 . S
C512 N519 1.356 . S
C513 C512 1.363 . S
C513 C516 1.363 . S
N514 C516 1.356 . S
N514 H526 0.984 . S
N514 H527 0.985 . S
N515 C517 1.356 . S
N515 H520 0.984 . S
N515 H521 0.985 . S
C516 C510 1.379 . S
C516 C513 1.363 . S
C516 N514 1.356 . S
C517 C511 1.363 . S
C517 C512 1.379 . S
C517 N515 1.356 . S
N518 C510 1.356 . S
N518 H524 0.984 . S
N518 H525 0.984 . S
N519 C512 1.356 . S
N519 H522 0.984 . S
N519 H523 0.985 . S
H520 N515 0.984 . S
H521 N515 0.985 . S
H522 N519 0.984 . S
H523 N519 0.985 . S
H524 N518 0.984 . S
H525 N518 0.984 . S
H526 N514 0.984 . S
H527 N514 0.985 . S
C528 C529 1.363 . S
C528 C534 1.379 . S
C528 N536 1.356 . S
C529 C528 1.363 . S
C529 C535 1.363 . S
C530 C531 1.363 . S
C530 C535 1.379 . S
C530 N537 1.356 . S
C531 C530 1.363 . S
C531 C534 1.363 . S
N532 C534 1.356 . S
N532 H544 0.984 . S
N532 H545 0.985 . S
N533 C535 1.356 . S
N533 H538 0.984 . S
N533 H539 0.985 . S
C534 C528 1.379 . S
C534 C531 1.363 . S
C534 N532 1.356 . S
C535 C529 1.363 . S
C535 C530 1.379 . S
C535 N533 1.356 . S
N536 C528 1.356 . S
N536 H542 0.984 . S
N536 H543 0.984 . S
N537 C530 1.356 . S
N537 H540 0.984 . S
N537 H541 0.985 . S
H538 N533 0.984 . S
H539 N533 0.985 . S
H540 N537 0.984 . S
H541 N537 0.985 . S
H542 N536 0.984 . S
H543 N536 0.984 . S
H544 N532 0.984 . S
H545 N532 0.985 . S
C546 C547 1.363 . S
C546 C552 1.379 . S
C546 N554 1.356 . S
C547 C546 1.363 . S
C547 C553 1.363 . S
C548 C549 1.363 . S
C548 C553 1.379 . S
C548 N555 1.356 . S
C549 C548 1.363 . S
C549 C552 1.363 . S
N550 C552 1.356 . S
N550 H562 0.984 . S
N550 H563 0.985 . S
N551 C553 1.356 . S
N551 H556 0.984 . S
N551 H557 0.985 . S
C552 C546 1.379 . S
C552 C549 1.363 . S
C552 N550 1.356 . S
C553 C547 1.363 . S
C553 C548 1.379 . S
C553 N551 1.356 . S
N554 C546 1.356 . S
N554 H560 0.984 . S
N554 H561 0.984 . S
N555 C548 1.356 . S
N555 H558 0.984 . S
N555 H559 0.985 . S
H556 N551 0.984 . S
H557 N551 0.985 . S
H558 N555 0.984 . S
H559 N555 0.985 . S
H560 N554 0.984 . S
H561 N554 0.984 . S
H562 N550 0.984 . S
H563 N550 0.985 . S
C564 C565 1.363 . S
C564 C570 1.379 . S
C564 N572 1.356 . S
C565 C564 1.363 . S
C565 C571 1.363 . S
C566 C567 1.363 . S
C566 C571 1.379 . S
C566 N573 1.356 . S
C567 C566 1.363 . S
C567 C570 1.363 . S
N568 C570 1.356 . S
N568 H580 0.984 . S
N568 H581 0.985 . S
N569 C571 1.356 . S
N569 H574 0.984 . S
N569 H575 0.985 . S
C570 C564 1.379 . S
C570 C567 1.363 . S
C570 N568 1.356 . S
C571 C565 1.363 . S
C571 C566 1.379 . S
C571 N569 1.356 . S
N572 C564 1.356 . S
N572 H578 0.984 . S
N572 H579 0.984 . S
N573 C566 1.356 . S
N573 H576 0.984 . S
N573 H577 0.985 . S
H574 N569 0.984 . S
H575 N569 0.985 . S
H576 N573 0.984 . S
H577 N573 0.985 . S
H578 N572 0.984 . S
H579 N572 0.984 . S
H580 N568 0.984 . S
H581 N568 0.985 . S
C582 C583 1.363 . S
C582 C588 1.379 . S
C582 N590 1.356 . S
C583 C582 1.363 . S
C583 C589 1.363 . S
C584 C585 1.363 . S
C584 C589 1.379 . S
C584 N591 1.356 . S
C585 C584 1.363 . S
C585 C588 1.363 . S
N586 C588 1.356 . S
N586 H598 0.984 . S
N586 H599 0.985 . S
N587 C589 1.356 . S
N587 H592 0.984 . S
N587 H593 0.985 . S
C588 C582 1.379 . S
C588 C585 1.363 . S
C588 N586 1.356 . S
C589 C583 1.363 . S
C589 C584 1.379 . S
C589 N587 1.356 . S
N590 C582 1.356 . S
N590 H596 0.984 . S
N590 H597 0.984 . S
N591 C584 1.356 . S
N591 H594 0.984 . S
N591 H595 0.985 . S
H592 N587 0.984 . S
H593 N587 0.985 . S
H594 N591 0.984 . S
H595 N591 0.985 . S
H596 N590 0.984 . S
H597 N590 0.984 . S
H598 N586 0.984 . S
H599 N586 0.985 . S
C600 C601 1.363 . S
C600 C606 1.379 . S
C600 N608 1.356 . S
C601 C600 1.363 . S
C601 C607 1.363 . S
C602 C603 1.363 . S
C602 C607 1.379 . S
C602 N609 1.356 . S
C603 C602 1.363 . S
C603 C606 1.363 . S
N604 C606 1.356 . S
N604 H616 0.984 . S
N604 H617 0.985 . S
N605 C607 1.356 . S
N605 H610 0.984 . S
N605 H611 0.985 . S
C606 C600 1.379 . S
C606 C603 1.363 . S
C606 N604 1.356 . S
C607 C601 1.363 . S
C607 C602 1.379 . S
C607 N605 1.356 . S
N608 C600 1.356 . S
N608 H614 0.984 . S
N608 H615 0.984 . S
N609 C602 1.356 . S
N609 H612 0.984 . S
N609 H613 0.985 . S
H610 N605 0.984 . S
H611 N605 0.985 . S
H612 N609 0.984 . S
H613 N609 0.985 . S
H614 N608 0.984 . S
H615 N608 0.984 . S
H616 N604 0.984 . S
H617 N604 0.985 . S
C618 C619 1.363 . S
C618 C624 1.379 . S
C618 N626 1.356 . S
C619 C618 1.363 . S
C619 C625 1.363 . S
C620 C621 1.363 . S
C620 C625 1.379 . S
C620 N627 1.356 . S
C621 C620 1.363 . S
C621 C624 1.363 . S
N622 C624 1.356 . S
N622 H634 0.984 . S
N622 H635 0.985 . S
N623 C625 1.356 . S
N623 H628 0.984 . S
N623 H629 0.985 . S
C624 C618 1.379 . S
C624 C621 1.363 . S
C624 N622 1.356 . S
C625 C619 1.363 . S
C625 C620 1.379 . S
C625 N623 1.356 . S
N626 C618 1.356 . S
N626 H632 0.984 . S
N626 H633 0.984 . S
N627 C620 1.356 . S
N627 H630 0.984 . S
N627 H631 0.985 . S
H628 N623 0.984 . S
H629 N623 0.985 . S
H630 N627 0.984 . S
H631 N627 0.985 . S
H632 N626 0.984 . S
H633 N626 0.984 . S
H634 N622 0.984 . S
H635 N622 0.985 . S
C636 C637 1.363 . S
C636 C642 1.379 . S
C636 N644 1.356 . S
C637 C636 1.363 . S
C637 C643 1.363 . S
C638 C639 1.363 . S
C638 C643 1.379 . S
C638 N645 1.356 . S
C639 C638 1.363 . S
C639 C642 1.363 . S
N640 C642 1.356 . S
N640 H652 0.984 . S
N640 H653 0.985 . S
N641 C643 1.356 . S
N641 H646 0.984 . S
N641 H647 0.985 . S
C642 C636 1.379 . S
C642 C639 1.363 . S
C642 N640 1.356 . S
C643 C637 1.363 . S
C643 C638 1.379 . S
C643 N641 1.356 . S
N644 C636 1.356 . S
N644 H650 0.984 . S
N644 H651 0.984 . S
N645 C638 1.356 . S
N645 H648 0.984 . S
N645 H649 0.985 . S
H646 N641 0.984 . S
H647 N641 0.985 . S
H648 N645 0.984 . S
H649 N645 0.985 . S
H650 N644 0.984 . S
H651 N644 0.984 . S
H652 N640 0.984 . S
H653 N640 0.985 . S
C654 C655 1.363 . S
C654 C660 1.379 . S
C654 N662 1.356 . S
C655 C654 1.363 . S
C655 C661 1.363 . S
C656 C657 1.363 . S
C656 C661 1.379 . S
C656 N663 1.356 . S
C657 C656 1.363 . S
C657 C660 1.363 . S
N658 C660 1.356 . S
N658 H670 0.984 . S
N658 H671 0.985 . S
N659 C661 1.356 . S
N659 H664 0.984 . S
N659 H665 0.985 . S
C660 C654 1.379 . S
C660 C657 1.363 . S
C660 N658 1.356 . S
C661 C655 1.363 . S
C661 C656 1.379 . S
C661 N659 1.356 . S
N662 C654 1.356 . S
N662 H668 0.984 . S
N662 H669 0.984 . S
N663 C656 1.356 . S
N663 H666 0.984 . S
N663 H667 0.985 . S
H664 N659 0.984 . S
H665 N659 0.985 . S
H666 N663 0.984 . S
H667 N663 0.985 . S
H668 N662 0.984 . S
H669 N662 0.984 . S
H670 N658 0.984 . S
H671 N658 0.985 . S
C672 C673 1.363 . S
C672 C678 1.379 . S
C672 N680 1.356 . S
C673 C672 1.363 . S
C673 C679 1.363 . S
C674 C675 1.363 . S
C674 C679 1.379 . S
C674 N681 1.356 . S
C675 C674 1.363 . S
C675 C678 1.363 . S
N676 C678 1.356 . S
N676 H688 0.984 . S
N676 H689 0.985 . S
N677 C679 1.356 . S
N677 H682 0.984 . S
N677 H683 0.985 . S
C678 C672 1.379 . S
C678 C675 1.363 . S
C678 N676 1.356 . S
C679 C673 1.363 . S
C679 C674 1.379 . S
C679 N677 1.356 . S
N680 C672 1.356 . S
N680 H686 0.984 . S
N680 H687 0.984 . S
N681 C674 1.356 . S
N681 H684 0.984 . S
N681 H685 0.985 . S
H682 N677 0.984 . S
H683 N677 0.985 . S
H684 N681 0.984 . S
H685 N681 0.985 . S
H686 N680 0.984 . S
H687 N680 0.984 . S
H688 N676 0.984 . S
H689 N676 0.985 . S
C690 C691 1.363 . S
C690 C696 1.379 . S
C690 N698 1.356 . S
C691 C690 1.363 . S
C691 C697 1.363 . S
C692 C693 1.363 . S
C692 C697 1.379 . S
C692 N699 1.356 . S
C693 C692 1.363 . S
C693 C696 1.363 . S
N694 C696 1.356 . S
N694 H706 0.984 . S
N694 H707 0.985 . S
N695 C697 1.356 . S
N695 H700 0.984 . S
N695 H701 0.985 . S
C696 C690 1.379 . S
C696 C693 1.363 . S
C696 N694 1.356 . S
C697 C691 1.363 . S
C697 C692 1.379 . S
C697 N695 1.356 . S
N698 C690 1.356 . S
N698 H704 0.984 . S
N698 H705 0.984 . S
N699 C692 1.356 . S
N699 H702 0.984 . S
N699 H703 0.985 . S
H700 N695 0.984 . S
H701 N695 0.985 . S
H702 N699 0.984 . S
H703 N699 0.985 . S
H704 N698 0.984 . S
H705 N698 0.984 . S
H706 N694 0.984 . S
H707 N694 0.985 . S
C708 C709 1.363 . S
C708 C714 1.379 . S
C708 N716 1.356 . S
C709 C708 1.363 . S
C709 C715 1.363 . S
C710 C711 1.363 . S
C710 C715 1.379 . S
C710 N717 1.356 . S
C711 C710 1.363 . S
C711 C714 1.363 . S
N712 C714 1.356 . S
N712 H724 0.984 . S
N712 H725 0.985 . S
N713 C715 1.356 . S
N713 H718 0.984 . S
N713 H719 0.985 . S
C714 C708 1.379 . S
C714 C711 1.363 . S
C714 N712 1.356 . S
C715 C709 1.363 . S
C715 C710 1.379 . S
C715 N713 1.356 . S
N716 C708 1.356 . S
N716 H722 0.984 . S
N716 H723 0.984 . S
N717 C710 1.356 . S
N717 H720 0.984 . S
N717 H721 0.985 . S
H718 N713 0.984 . S
H719 N713 0.985 . S
H720 N717 0.984 . S
H721 N717 0.985 . S
H722 N716 0.984 . S
H723 N716 0.984 . S
H724 N712 0.984 . S
H725 N712 0.985 . S
C726 C727 1.363 . S
C726 C732 1.379 . S
C726 N734 1.356 . S
C727 C726 1.363 . S
C727 C733 1.363 . S
C728 C729 1.363 . S
C728 C733 1.379 . S
C728 N735 1.356 . S
C729 C728 1.363 . S
C729 C732 1.363 . S
N730 C732 1.356 . S
N730 H742 0.984 . S
N730 H743 0.985 . S
N731 C733 1.356 . S
N731 H736 0.984 . S
N731 H737 0.985 . S
C732 C726 1.379 . S
C732 C729 1.363 . S
C732 N730 1.356 . S
C733 C727 1.363 . S
C733 C728 1.379 . S
C733 N731 1.356 . S
N734 C726 1.356 . S
N734 H740 0.984 . S
N734 H741 0.984 . S
N735 C728 1.356 . S
N735 H738 0.984 . S
N735 H739 0.985 . S
H736 N731 0.984 . S
H737 N731 0.985 . S
H738 N735 0.984 . S
H739 N735 0.985 . S
H740 N734 0.984 . S
H741 N734 0.984 . S
H742 N730 0.984 . S
H743 N730 0.985 . S
C744 C745 1.363 . S
C744 C750 1.379 . S
C744 N752 1.356 . S
C745 C744 1.363 . S
C745 C751 1.363 . S
C746 C747 1.363 . S
C746 C751 1.379 . S
C746 N753 1.356 . S
C747 C746 1.363 . S
C747 C750 1.363 . S
N748 C750 1.356 . S
N748 H760 0.984 . S
N748 H761 0.985 . S
N749 C751 1.356 . S
N749 H754 0.984 . S
N749 H755 0.985 . S
C750 C744 1.379 . S
C750 C747 1.363 . S
C750 N748 1.356 . S
C751 C745 1.363 . S
C751 C746 1.379 . S
C751 N749 1.356 . S
N752 C744 1.356 . S
N752 H758 0.984 . S
N752 H759 0.984 . S
N753 C746 1.356 . S
N753 H756 0.984 . S
N753 H757 0.985 . S
H754 N749 0.984 . S
H755 N749 0.985 . S
H756 N753 0.984 . S
H757 N753 0.985 . S
H758 N752 0.984 . S
H759 N752 0.984 . S
H760 N748 0.984 . S
H761 N748 0.985 . S
C762 C763 1.363 . S
C762 C768 1.379 . S
C762 N770 1.356 . S
C763 C762 1.363 . S
C763 C769 1.363 . S
C764 C765 1.363 . S
C764 C769 1.379 . S
C764 N771 1.356 . S
C765 C764 1.363 . S
C765 C768 1.363 . S
N766 C768 1.356 . S
N766 H778 0.984 . S
N766 H779 0.985 . S
N767 C769 1.356 . S
N767 H772 0.984 1_556 S
N767 H773 0.985 . S
C768 C762 1.379 . S
C768 C765 1.363 . S
C768 N766 1.356 . S
C769 C763 1.363 . S
C769 C764 1.379 . S
C769 N767 1.356 . S
N770 C762 1.356 . S
N770 H776 0.984 . S
N770 H777 0.980 1_556 S
N771 C764 1.356 . S
N771 H774 0.984 . S
N771 H775 0.985 . S
H772 N767 0.984 1_554 S
H773 N767 0.985 . S
H774 N771 0.984 . S
H775 N771 0.985 . S
H776 N770 0.984 . S
H777 N770 0.980 1_554 S
H778 N766 0.984 . S
H779 N766 0.985 . S
C780 C781 1.363 . S
C780 C786 1.379 . S
C780 N788 1.356 . S
C781 C780 1.363 . S
C781 C787 1.363 . S
C782 C783 1.363 . S
C782 C787 1.379 . S
C782 N789 1.356 . S
C783 C782 1.363 . S
C783 C786 1.363 . S
N784 C786 1.356 . S
N784 H796 0.984 . S
N784 H797 0.985 . S
N785 C787 1.356 . S
N785 H790 0.984 . S
N785 H791 0.985 . S
C786 C780 1.379 . S
C786 C783 1.363 . S
C786 N784 1.356 . S
C787 C781 1.363 . S
C787 C782 1.379 . S
C787 N785 1.356 . S
N788 C780 1.356 . S
N788 H794 0.984 . S
N788 H795 0.984 . S
N789 C782 1.356 . S
N789 H792 0.984 . S
N789 H793 0.985 . S
H790 N785 0.984 . S
H791 N785 0.985 . S
H792 N789 0.984 . S
H793 N789 0.985 . S
H794 N788 0.984 . S
H795 N788 0.984 . S
H796 N784 0.984 . S
H797 N784 0.985 . S
C798 C799 1.363 . S
C798 C804 1.379 . S
C798 N806 1.356 . S
C799 C798 1.363 . S
C799 C805 1.363 . S
C800 C801 1.363 . S
C800 C805 1.379 . S
C800 N807 1.356 . S
C801 C800 1.363 . S
C801 C804 1.363 . S
N802 C804 1.356 . S
N802 H814 0.984 . S
N802 H815 0.985 1_554 S
N803 C805 1.356 . S
N803 H808 0.984 . S
N803 H809 0.985 . S
C804 C798 1.379 . S
C804 C801 1.363 . S
C804 N802 1.356 . S
C805 C799 1.363 . S
C805 C800 1.379 . S
C805 N803 1.356 . S
N806 C798 1.356 . S
N806 H812 0.984 . S
N806 H813 0.984 . S
N807 C800 1.356 . S
N807 H810 0.984 1_554 S
N807 H811 0.985 . S
H808 N803 0.984 . S
H809 N803 0.985 . S
H810 N807 0.984 1_556 S
H811 N807 0.985 . S
H812 N806 0.984 . S
H813 N806 0.984 . S
H814 N802 0.984 . S
H815 N802 0.985 1_556 S
C816 C817 1.363 . S
C816 C822 1.379 . S
C816 N824 1.356 . S
C817 C816 1.363 . S
C817 C823 1.363 . S
C818 C819 1.363 . S
C818 C823 1.379 . S
C818 N825 1.356 . S
C819 C818 1.363 . S
C819 C822 1.363 . S
N820 C822 1.356 . S
N820 H832 0.984 . S
N820 H833 0.985 . S
N821 C823 1.356 . S
N821 H826 0.984 . S
N821 H827 0.985 . S
C822 C816 1.379 . S
C822 C819 1.363 . S
C822 N820 1.356 . S
C823 C817 1.363 . S
C823 C818 1.379 . S
C823 N821 1.356 . S
N824 C816 1.356 . S
N824 H830 0.984 . S
N824 H831 0.984 . S
N825 C818 1.356 . S
N825 H828 0.984 . S
N825 H829 0.985 . S
H826 N821 0.984 . S
H827 N821 0.985 . S
H828 N825 0.984 . S
H829 N825 0.985 . S
H830 N824 0.984 . S
H831 N824 0.984 . S
H832 N820 0.984 . S
H833 N820 0.985 . S
C834 C835 1.363 . S
C834 C840 1.379 . S
C834 N842 1.356 . S
C835 C834 1.363 . S
C835 C841 1.363 . S
C836 C837 1.363 . S
C836 C841 1.379 . S
C836 N843 1.356 . S
C837 C836 1.363 . S
C837 C840 1.363 . S
N838 C840 1.356 . S
N838 H850 0.984 . S
N838 H851 0.985 . S
N839 C841 1.356 1_655 S
N839 H844 0.984 . S
N839 H845 0.985 . S
C840 C834 1.379 . S
C840 C837 1.363 . S
C840 N838 1.356 . S
C841 C835 1.363 . S
C841 C836 1.379 . S
C841 N839 1.356 1_455 S
N842 C834 1.356 . S
N842 H848 0.984 . S
N842 H849 0.984 1_455 S
N843 C836 1.356 . S
N843 H846 0.984 . S
N843 H847 0.985 . S
H844 N839 0.984 . S
H845 N839 0.985 . S
H846 N843 0.984 . S
H847 N843 0.985 . S
H848 N842 0.984 . S
H849 N842 0.984 1_655 S
H850 N838 0.984 . S
H851 N838 0.985 . S
C852 C853 1.363 . S
C852 C858 1.379 . S
C852 N860 1.356 1_655 S
C853 C852 1.363 . S
C853 C859 1.363 . S
C854 C855 1.363 . S
C854 C859 1.379 . S
C854 N861 1.356 . S
C855 C854 1.363 . S
C855 C858 1.363 . S
N856 C858 1.356 . S
N856 H868 0.984 . S
N856 H869 0.985 . S
N857 C859 1.356 . S
N857 H862 0.984 1_655 S
N857 H863 0.985 . S
C858 C852 1.379 . S
C858 C855 1.363 . S
C858 N856 1.356 . S
C859 C853 1.363 . S
C859 C854 1.379 . S
C859 N857 1.356 . S
N860 C852 1.356 1_455 S
N860 H866 0.986 . S
N860 H867 0.984 . S
N861 C854 1.356 . S
N861 H864 0.984 . S
N861 H865 0.985 . S
H862 N857 0.984 1_455 S
H863 N857 0.985 . S
H864 N861 0.984 . S
H865 N861 0.985 . S
H866 N860 0.986 . S
H867 N860 0.984 . S
H868 N856 0.984 . S
H869 N856 0.985 . S
C870 C871 1.363 . S
C870 C876 1.379 . S
C870 N878 1.356 . S
C871 C870 1.363 . S
C871 C877 1.363 . S
C872 C873 1.363 . S
C872 C877 1.379 . S
C872 N879 1.356 . S
C873 C872 1.363 . S
C873 C876 1.363 . S
N874 C876 1.356 . S
N874 H886 0.984 . S
N874 H887 0.985 . S
N875 C877 1.356 . S
N875 H880 0.984 . S
N875 H881 0.985 . S
C876 C870 1.379 . S
C876 C873 1.363 . S
C876 N874 1.356 . S
C877 C871 1.363 . S
C877 C872 1.379 . S
C877 N875 1.356 . S
N878 C870 1.356 . S
N878 H884 0.984 . S
N878 H885 0.984 . S
N879 C872 1.356 . S
N879 H882 0.984 . S
N879 H883 0.985 . S
H880 N875 0.984 . S
H881 N875 0.985 . S
H882 N879 0.984 . S
H883 N879 0.985 . S
H884 N878 0.984 . S
H885 N878 0.984 . S
H886 N874 0.984 . S
H887 N874 0.985 . S
C888 C889 1.363 . S
C888 C894 1.379 . S
C888 N896 1.356 . S
C889 C888 1.363 . S
C889 C895 1.363 . S
C890 C891 1.363 . S
C890 C895 1.379 . S
C890 N897 1.356 . S
C891 C890 1.363 . S
C891 C894 1.363 . S
N892 C894 1.356 . S
N892 H904 0.984 . S
N892 H905 0.985 . S
N893 C895 1.356 . S
N893 H898 0.984 . S
N893 H899 0.985 . S
C894 C888 1.379 . S
C894 C891 1.363 . S
C894 N892 1.356 . S
C895 C889 1.363 . S
C895 C890 1.379 . S
C895 N893 1.356 . S
N896 C888 1.356 . S
N896 H902 0.984 . S
N896 H903 0.984 . S
N897 C890 1.356 . S
N897 H900 0.984 . S
N897 H901 0.985 . S
H898 N893 0.984 . S
H899 N893 0.985 . S
H900 N897 0.984 . S
H901 N897 0.985 . S
H902 N896 0.984 . S
H903 N896 0.984 . S
H904 N892 0.984 . S
H905 N892 0.985 . S
C906 C907 1.363 . S
C906 C912 1.379 . S
C906 N914 1.356 . S
C907 C906 1.363 . S
C907 C913 1.363 . S
C908 C909 1.363 . S
C908 C913 1.379 . S
C908 N915 1.356 . S
C909 C908 1.363 . S
C909 C912 1.363 . S
N910 C912 1.356 . S
N910 H922 0.984 . S
N910 H923 0.985 . S
N911 C913 1.356 . S
N911 H916 0.984 1_545 S
N911 H917 0.985 . S
C912 C906 1.379 . S
C912 C909 1.363 . S
C912 N910 1.356 . S
C913 C907 1.363 . S
C913 C908 1.379 . S
C913 N911 1.356 . S
N914 C906 1.356 . S
N914 H920 0.984 . S
N914 H921 0.984 1_545 S
N915 C908 1.356 . S
N915 H918 0.984 . S
N915 H919 0.985 . S
H916 N911 0.984 1_565 S
H917 N911 0.985 . S
H918 N915 0.984 . S
H919 N915 0.985 . S
H920 N914 0.984 . S
H921 N914 0.984 1_565 S
H922 N910 0.984 . S
H923 N910 0.985 . S
C924 C925 1.363 . S
C924 C930 1.379 . S
C924 N932 1.356 . S
C925 C924 1.363 . S
C925 C931 1.363 . S
C926 C927 1.363 . S
C926 C931 1.379 . S
C926 N933 1.356 . S
C927 C926 1.363 . S
C927 C930 1.363 . S
N928 C930 1.356 . S
N928 H940 0.984 . S
N928 H941 0.985 . S
N929 C931 1.356 . S
N929 H934 0.984 1_565 S
N929 H935 0.985 . S
C930 C924 1.379 . S
C930 C927 1.363 . S
C930 N928 1.356 . S
C931 C925 1.363 . S
C931 C926 1.379 . S
C931 N929 1.356 . S
N932 C924 1.356 . S
N932 H938 0.984 . S
N932 H939 0.984 1_565 S
N933 C926 1.356 . S
N933 H936 0.984 . S
N933 H937 0.985 . S
H934 N929 0.984 1_545 S
H935 N929 0.985 . S
H936 N933 0.984 . S
H937 N933 0.985 . S
H938 N932 0.984 . S
H939 N932 0.984 1_545 S
H940 N928 0.984 . S
H941 N928 0.985 . S
C942 C943 1.363 . S
C942 C948 1.379 . S
C942 N950 1.356 . S
C943 C942 1.363 . S
C943 C949 1.363 . S
C944 C945 1.363 . S
C944 C949 1.379 . S
C944 N951 1.356 . S
C945 C944 1.363 . S
C945 C948 1.363 . S
N946 C948 1.356 . S
N946 H958 0.984 . S
N946 H959 0.985 . S
N947 C949 1.356 . S
N947 H952 0.984 . S
N947 H953 0.985 . S
C948 C942 1.379 . S
C948 C945 1.363 . S
C948 N946 1.356 . S
C949 C943 1.363 . S
C949 C944 1.379 . S
C949 N947 1.356 . S
N950 C942 1.356 . S
N950 H956 0.984 . S
N950 H957 0.984 . S
N951 C944 1.356 . S
N951 H954 0.984 . S
N951 H955 0.985 . S
H952 N947 0.984 . S
H953 N947 0.985 . S
H954 N951 0.984 . S
H955 N951 0.985 . S
H956 N950 0.984 . S
H957 N950 0.984 . S
H958 N946 0.984 . S
H959 N946 0.985 . S
C960 C961 1.363 . S
C960 C966 1.379 . S
C960 N968 1.356 . S
C961 C960 1.363 . S
C961 C967 1.363 . S
C962 C963 1.363 . S
C962 C967 1.379 . S
C962 N969 1.356 . S
C963 C962 1.363 . S
C963 C966 1.363 . S
N964 C966 1.356 . S
N964 H976 0.984 . S
N964 H977 0.985 . S
N965 C967 1.356 . S
N965 H970 0.984 . S
N965 H971 0.985 . S
C966 C960 1.379 . S
C966 C963 1.363 . S
C966 N964 1.356 . S
C967 C961 1.363 . S
C967 C962 1.379 . S
C967 N965 1.356 . S
N968 C960 1.356 . S
N968 H974 0.984 . S
N968 H975 0.984 . S
N969 C962 1.356 . S
N969 H972 0.984 . S
N969 H973 0.985 . S
H970 N965 0.984 . S
H971 N965 0.985 . S
H972 N969 0.984 . S
H973 N969 0.985 . S
H974 N968 0.984 . S
H975 N968 0.984 . S
H976 N964 0.984 . S
H977 N964 0.985 . S
C978 C979 1.363 . S
C978 C984 1.379 . S
C978 N986 1.356 . S
C979 C978 1.363 . S
C979 C985 1.363 . S
C980 C981 1.363 . S
C980 C985 1.379 . S
C980 N987 1.356 . S
C981 C980 1.363 . S
C981 C984 1.363 . S
N982 C984 1.356 . S
N982 H994 0.984 . S
N982 H995 0.985 . S
N983 C985 1.356 . S
N983 H988 0.984 1_554 S
N983 H989 0.985 . S
C984 C978 1.379 . S
C984 C981 1.363 . S
C984 N982 1.356 . S
C985 C979 1.363 . S
C985 C980 1.379 . S
C985 N983 1.356 . S
N986 C978 1.356 . S
N986 H992 0.984 . S
N986 H993 0.984 1_554 S
N987 C980 1.356 . S
N987 H990 0.984 . S
N987 H991 0.985 . S
H988 N983 0.984 1_556 S
H989 N983 0.985 . S
H990 N987 0.984 . S
H991 N987 0.985 . S
H992 N986 0.984 . S
H993 N986 0.984 1_556 S
H994 N982 0.984 . S
H995 N982 0.985 . S
C996 C997 1.363 . S
C996 C1002 1.379 . S
C996 N1004 1.356 . S
C997 C996 1.363 . S
C997 C1003 1.363 . S
C998 C999 1.363 . S
C998 C1003 1.379 . S
C998 N1005 1.356 . S
C999 C998 1.363 . S
C999 C1002 1.363 . S
N1000 C1002 1.356 . S
N1000 H1012 0.984 . S
N1000 H1013 0.985 . S
N1001 C1003 1.356 . S
N1001 H1006 0.984 . S
N1001 H1007 0.985 . S
C1002 C996 1.379 . S
C1002 C999 1.363 . S
C1002 N1000 1.356 . S
C1003 C997 1.363 . S
C1003 C998 1.379 . S
C1003 N1001 1.356 . S
N1004 C996 1.356 . S
N1004 H1010 0.984 . S
N1004 H1011 0.984 . S
N1005 C998 1.356 . S
N1005 H1008 0.984 . S
N1005 H1009 0.985 . S
H1006 N1001 0.984 . S
H1007 N1001 0.985 . S
H1008 N1005 0.984 . S
H1009 N1005 0.985 . S
H1010 N1004 0.984 . S
H1011 N1004 0.984 . S
H1012 N1000 0.984 . S
H1013 N1000 0.985 . S
C1014 C1015 1.363 . S
C1014 C1020 1.379 . S
C1014 N1022 1.356 . S
C1015 C1014 1.363 . S
C1015 C1021 1.363 . S
C1016 C1017 1.363 . S
C1016 C1021 1.379 . S
C1016 N1023 1.356 . S
C1017 C1016 1.363 . S
C1017 C1020 1.363 . S
N1018 C1020 1.356 . S
N1018 H1030 0.984 . S
N1018 H1031 0.985 . S
N1019 C1021 1.356 . S
N1019 H1024 0.984 1_556 S
N1019 H1025 0.985 . S
C1020 C1014 1.379 . S
C1020 C1017 1.363 . S
C1020 N1018 1.356 . S
C1021 C1015 1.363 . S
C1021 C1016 1.379 . S
C1021 N1019 1.356 . S
N1022 C1014 1.356 . S
N1022 H1028 0.984 . S
N1022 H1029 0.984 1_556 S
N1023 C1016 1.356 . S
N1023 H1026 0.984 . S
N1023 H1027 0.985 . S
H1024 N1019 0.984 1_554 S
H1025 N1019 0.985 . S
H1026 N1023 0.984 . S
H1027 N1023 0.985 . S
H1028 N1022 0.984 . S
H1029 N1022 0.984 1_554 S
H1030 N1018 0.984 . S
H1031 N1018 0.985 . S
C1032 C1033 1.363 . S
C1032 C1038 1.379 . S
C1032 N1040 1.356 . S
C1033 C1032 1.363 . S
C1033 C1039 1.363 . S
C1034 C1035 1.363 . S
C1034 C1039 1.379 . S
C1034 N1041 1.356 . S
C1035 C1034 1.363 . S
C1035 C1038 1.363 . S
N1036 C1038 1.356 . S
N1036 H1048 0.984 . S
N1036 H1049 0.985 . S
N1037 C1039 1.356 . S
N1037 H1042 0.984 . S
N1037 H1043 0.985 . S
C1038 C1032 1.379 . S
C1038 C1035 1.363 . S
C1038 N1036 1.356 . S
C1039 C1033 1.363 . S
C1039 C1034 1.379 . S
C1039 N1037 1.356 . S
N1040 C1032 1.356 . S
N1040 H1046 0.984 . S
N1040 H1047 0.984 . S
N1041 C1034 1.356 . S
N1041 H1044 0.984 . S
N1041 H1045 0.985 . S
H1042 N1037 0.984 . S
H1043 N1037 0.985 . S
H1044 N1041 0.984 . S
H1045 N1041 0.985 . S
H1046 N1040 0.984 . S
H1047 N1040 0.984 . S
H1048 N1036 0.984 . S
H1049 N1036 0.985 . S
C1050 C1051 1.363 . S
C1050 C1056 1.379 . S
C1050 N1058 1.356 . S
C1051 C1050 1.363 . S
C1051 C1057 1.363 . S
C1052 C1053 1.363 . S
C1052 C1057 1.379 . S
C1052 N1059 1.356 . S
C1053 C1052 1.363 . S
C1053 C1056 1.363 . S
N1054 C1056 1.356 . S
N1054 H1066 0.984 . S
N1054 H1067 0.985 1_655 S
N1055 C1057 1.356 . S
N1055 H1060 0.984 . S
N1055 H1061 0.985 . S
C1056 C1050 1.379 . S
C1056 C1053 1.363 . S
C1056 N1054 1.356 . S
C1057 C1051 1.363 . S
C1057 C1052 1.379 . S
C1057 N1055 1.356 . S
N1058 C1050 1.356 . S
N1058 H1064 0.984 . S
N1058 H1065 0.984 . S
N1059 C1052 1.356 . S
N1059 H1062 0.984 1_655 S
N1059 H1063 0.985 . S
H1060 N1055 0.984 . S
H1061 N1055 0.985 . S
H1062 N1059 0.984 1_455 S
H1063 N1059 0.985 . S
H1064 N1058 0.984 . S
H1065 N1058 0.984 . S
H1066 N1054 0.984 . S
H1067 N1054 0.985 1_455 S
C1068 C1069 1.363 . S
C1068 C1074 1.379 . S
C1068 N1076 1.356 . S
C1069 C1068 1.363 . S
C1069 C1075 1.363 . S
C1070 C1071 1.363 . S
C1070 C1075 1.379 . S
C1070 N1077 1.327 1_455 S
C1071 C1070 1.363 . S
C1071 C1074 1.363 . S
N1072 C1074 1.356 . S
N1072 H1084 0.984 . S
N1072 H1085 0.985 1_455 S
N1073 C1075 1.356 . S
N1073 H1078 0.984 . S
N1073 H1079 0.985 . S
C1074 C1068 1.379 . S
C1074 C1071 1.363 . S
C1074 N1072 1.356 . S
C1075 C1069 1.363 . S
C1075 C1070 1.379 . S
C1075 N1073 1.356 . S
N1076 C1068 1.356 . S
N1076 H1082 0.984 . S
N1076 H1083 0.984 . S
N1077 C1070 1.327 1_655 S
N1077 H1080 1.013 . S
N1077 H1081 0.985 . S
H1078 N1073 0.984 . S
H1079 N1073 0.985 . S
H1080 N1077 1.013 . S
H1081 N1077 0.985 . S
H1082 N1076 0.984 . S
H1083 N1076 0.984 . S
H1084 N1072 0.984 . S
H1085 N1072 0.985 1_655 S
C1086 C1087 1.363 . S
C1086 C1092 1.379 . S
C1086 N1094 1.356 . S
C1087 C1086 1.363 . S
C1087 C1093 1.363 . S
C1088 C1089 1.363 . S
C1088 C1093 1.379 . S
C1088 N1095 1.356 . S
C1089 C1088 1.363 . S
C1089 C1092 1.363 . S
N1090 C1092 1.356 . S
N1090 H1102 0.984 . S
N1090 H1103 0.985 . S
N1091 C1093 1.356 . S
N1091 H1096 0.984 . S
N1091 H1097 0.985 . S
C1092 C1086 1.379 . S
C1092 C1089 1.363 . S
C1092 N1090 1.356 . S
C1093 C1087 1.363 . S
C1093 C1088 1.379 . S
C1093 N1091 1.356 . S
N1094 C1086 1.356 . S
N1094 H1100 0.984 . S
N1094 H1101 0.984 . S
N1095 C1088 1.356 . S
N1095 H1098 0.984 . S
N1095 H1099 0.985 . S
H1096 N1091 0.984 . S
H1097 N1091 0.985 . S
H1098 N1095 0.984 . S
H1099 N1095 0.985 . S
H1100 N1094 0.984 . S
H1101 N1094 0.984 . S
H1102 N1090 0.984 . S
H1103 N1090 0.985 . S
C1104 C1105 1.363 . S
C1104 C1110 1.379 . S
C1104 N1112 1.356 . S
C1105 C1104 1.363 . S
C1105 C1111 1.363 . S
C1106 C1107 1.363 . S
C1106 C1111 1.379 . S
C1106 N1113 1.356 . S
C1107 C1106 1.363 . S
C1107 C1110 1.363 . S
N1108 C1110 1.356 . S
N1108 H1120 0.984 . S
N1108 H1121 0.985 . S
N1109 C1111 1.356 . S
N1109 H1114 0.984 . S
N1109 H1115 0.985 . S
C1110 C1104 1.379 . S
C1110 C1107 1.363 . S
C1110 N1108 1.356 . S
C1111 C1105 1.363 . S
C1111 C1106 1.379 . S
C1111 N1109 1.356 . S
N1112 C1104 1.356 . S
N1112 H1118 0.984 . S
N1112 H1119 0.984 . S
N1113 C1106 1.356 . S
N1113 H1116 0.984 . S
N1113 H1117 0.985 . S
H1114 N1109 0.984 . S
H1115 N1109 0.985 . S
H1116 N1113 0.984 . S
H1117 N1113 0.985 . S
H1118 N1112 0.984 . S
H1119 N1112 0.984 . S
H1120 N1108 0.984 . S
H1121 N1108 0.985 . S
C1122 C1123 1.363 . S
C1122 C1128 1.379 . S
C1122 N1130 1.356 . S
C1123 C1122 1.363 . S
C1123 C1129 1.363 . S
C1124 C1125 1.363 . S
C1124 C1129 1.379 . S
C1124 N1131 1.356 . S
C1125 C1124 1.363 . S
C1125 C1128 1.363 . S
N1126 C1128 1.356 1_545 S
N1126 H1138 0.984 . S
N1126 H1139 0.985 . S
N1127 C1129 1.356 . S
N1127 H1132 0.984 . S
N1127 H1133 0.985 . S
C1128 C1122 1.379 . S
C1128 C1125 1.363 . S
C1128 N1126 1.356 1_565 S
C1129 C1123 1.363 . S
C1129 C1124 1.379 . S
C1129 N1127 1.356 . S
N1130 C1122 1.356 . S
N1130 H1136 0.984 . S
N1130 H1137 0.984 . S
N1131 C1124 1.356 . S
N1131 H1134 0.984 1_565 S
N1131 H1135 0.985 . S
H1132 N1127 0.984 . S
H1133 N1127 0.985 . S
H1134 N1131 0.984 1_545 S
H1135 N1131 0.985 . S
H1136 N1130 0.984 . S
H1137 N1130 0.984 . S
H1138 N1126 0.984 . S
H1139 N1126 0.985 . S
C1140 C1141 1.363 . S
C1140 C1146 1.379 . S
C1140 N1148 1.356 1_545 S
C1141 C1140 1.363 . S
C1141 C1147 1.363 . S
C1142 C1143 1.363 . S
C1142 C1147 1.379 . S
C1142 N1149 1.356 . S
C1143 C1142 1.363 . S
C1143 C1146 1.363 . S
N1144 C1146 1.356 . S
N1144 H1156 0.984 . S
N1144 H1157 0.985 . S
N1145 C1147 1.356 . S
N1145 H1150 0.984 1_545 S
N1145 H1151 0.985 . S
C1146 C1140 1.379 . S
C1146 C1143 1.363 . S
C1146 N1144 1.356 . S
C1147 C1141 1.363 . S
C1147 C1142 1.379 . S
C1147 N1145 1.356 . S
N1148 C1140 1.356 1_565 S
N1148 H1154 0.984 . S
N1148 H1155 0.984 . S
N1149 C1142 1.356 . S
N1149 H1152 0.984 . S
N1149 H1153 0.985 . S
H1150 N1145 0.984 1_565 S
H1151 N1145 0.985 . S
H1152 N1149 0.984 . S
H1153 N1149 0.985 . S
H1154 N1148 0.984 . S
H1155 N1148 0.984 . S
H1156 N1144 0.984 . S
H1157 N1144 0.985 . S
C1158 C1159 1.363 . S
C1158 C1164 1.379 . S
C1158 N1166 1.356 . S
C1159 C1158 1.363 . S
C1159 C1165 1.363 . S
C1160 C1161 1.363 . S
C1160 C1165 1.379 . S
C1160 N1167 1.356 . S
C1161 C1160 1.363 . S
C1161 C1164 1.363 . S
N1162 C1164 1.356 . S
N1162 H1174 0.984 . S
N1162 H1175 0.985 . S
N1163 C1165 1.356 . S
N1163 H1168 0.984 . S
N1163 H1169 0.985 . S
C1164 C1158 1.379 . S
C1164 C1161 1.363 . S
C1164 N1162 1.356 . S
C1165 C1159 1.363 . S
C1165 C1160 1.379 . S
C1165 N1163 1.356 . S
N1166 C1158 1.356 . S
N1166 H1172 0.984 . S
N1166 H1173 0.984 . S
N1167 C1160 1.356 . S
N1167 H1170 0.984 . S
N1167 H1171 0.985 . S
H1168 N1163 0.984 . S
H1169 N1163 0.985 . S
H1170 N1167 0.984 . S
H1171 N1167 0.985 . S
H1172 N1166 0.984 . S
H1173 N1166 0.984 . S
H1174 N1162 0.984 . S
H1175 N1162 0.985 . S
C313 C109 1.156 . S
C315 C10 1.217 . S
C331 C23 1.217 . S
C333 C148 1.156 . S
C349 C36 1.217 . S
C351 C122 1.156 . S
C367 C49 1.217 . S
C369 C135 1.156 . S
C385 C57 1.071 . S
C387 C5 1.111 . S
C403 C18 1.111 . S
C405 C70 1.071 . S
C421 C83 1.071 . S
C423 C31 1.111 . S
C439 C44 1.111 . S
C441 C96 1.071 . S
C457 C62 1.206 . S
C459 C114 1.185 . S
C475 C88 1.206 . S
C477 C127 1.185 . S
C493 C140 1.185 . S
C495 C101 1.206 . S
C511 C75 1.206 . S
C513 C153 1.185 . S
C529 C265 1.111 . S
C531 C166 1.178 . S
C547 C179 1.178 . S
C549 C304 1.111 . S
C565 C192 1.178 . S
C567 C278 1.111 . S
C583 C291 1.111 . S
C585 C205 1.178 . S
C601 C218 1.179 . S
C603 C161 1.109 . S
C619 C174 1.109 . S
C621 C231 1.179 . S
C637 C187 1.109 . S
C639 C244 1.179 . S
C655 C257 1.179 . S
C657 C200 1.109 . S
C673 C270 1.240 . S
C675 C213 1.172 . S
C691 C239 1.172 . S
C693 C283 1.240 . S
C709 C252 1.172 . S
C711 C296 1.240 . S
C727 C309 1.240 . S
C729 C226 1.172 . S
C745 C286 1.398 . S
C747 C8 1.350 . S
C763 C273 1.398 1_556 S
C765 C21 1.350 . S
C781 C299 1.398 . S
C783 C34 1.350 . S
C799 C47 1.350 . S
C801 C260 1.398 1_554 S
C817 C52 1.329 . S
C819 C169 1.363 . S
C835 C156 1.363 1_455 S
C837 C65 1.329 . S
C853 C195 1.363 1_655 S
C855 C78 1.329 . S
C871 C182 1.363 . S
C873 C91 1.329 . S
C889 C112 1.321 . S
C891 C234 1.343 . S
C907 C208 1.343 1_545 S
C909 C125 1.321 . S
C925 C221 1.343 1_565 S
C927 C138 1.321 . S
C943 C247 1.343 . S
C945 C151 1.321 . S
C961 C130 1.314 . S
C963 C164 1.293 . S
C979 C117 1.314 1_554 S
C981 C177 1.293 . S
C997 C190 1.293 . S
C999 C143 1.314 . S
C1015 C104 1.314 1_556 S
C1017 C203 1.293 . S
C1033 C216 1.331 . S
C1035 C13 1.344 . S
C1051 C229 1.331 . S
C1053 C0 1.344 1_655 S
C1069 C242 1.331 . S
C1071 C39 1.344 1_455 S
C1087 C255 1.331 . S
C1089 C26 1.344 . S
C1105 C268 1.319 . S
C1107 C86 1.354 . S
C1123 C281 1.319 . S
C1125 C60 1.354 1_565 S
C1141 C73 1.354 1_545 S
C1143 C294 1.319 . S
C1159 C307 1.319 . S
C1161 C99 1.354 . S
