# Generated by pormake.
# Topology uoj, (4)-cn, num edge types: 1
# Building blocks:
#     Node 0, Type 0, BuildingBlock: ESEHIV_clean_sbu_0, # of connection points: 4
#     Node 1, Type 0, BuildingBlock: ESEHIV_clean_sbu_0, # of connection points: 4
#     Node 2, Type 0, BuildingBlock: ESEHIV_clean_sbu_0, # of connection points: 4
#     Node 3, Type 0, BuildingBlock: ESEHIV_clean_sbu_0, # of connection points: 4
#     Node 4, Type 0, BuildingBlock: ESEHIV_clean_sbu_0, # of connection points: 4
#     Node 5, Type 0, BuildingBlock: ESEHIV_clean_sbu_0, # of connection points: 4
#     Node 6, Type 0, BuildingBlock: ESEHIV_clean_sbu_0, # of connection points: 4
#     Node 7, Type 0, BuildingBlock: ESEHIV_clean_sbu_0, # of connection points: 4
#     Edge 8, Type (0, 0), BuildingBlock: AJUNOK_clean_linker_0, # of connection points: 2
#     Edge 9, Type (0, 0), BuildingBlock: AJUNOK_clean_linker_0, # of connection points: 2
#     Edge 10, Type (0, 0), BuildingBlock: AJUNOK_clean_linker_0, # of connection points: 2
#     Edge 11, Type (0, 0), BuildingBlock: AJUNOK_clean_linker_0, # of connection points: 2
#     Edge 12, Type (0, 0), BuildingBlock: AJUNOK_clean_linker_0, # of connection points: 2
#     Edge 13, Type (0, 0), BuildingBlock: AJUNOK_clean_linker_0, # of connection points: 2
#     Edge 14, Type (0, 0), BuildingBlock: AJUNOK_clean_linker_0, # of connection points: 2
#     Edge 15, Type (0, 0), BuildingBlock: AJUNOK_clean_linker_0, # of connection points: 2
#     Edge 16, Type (0, 0), BuildingBlock: AJUNOK_clean_linker_0, # of connection points: 2
#     Edge 17, Type (0, 0), BuildingBlock: AJUNOK_clean_linker_0, # of connection points: 2
#     Edge 18, Type (0, 0), BuildingBlock: AJUNOK_clean_linker_0, # of connection points: 2
#     Edge 19, Type (0, 0), BuildingBlock: AJUNOK_clean_linker_0, # of connection points: 2
#     Edge 20, Type (0, 0), BuildingBlock: AJUNOK_clean_linker_0, # of connection points: 2
#     Edge 21, Type (0, 0), BuildingBlock: AJUNOK_clean_linker_0, # of connection points: 2
#     Edge 22, Type (0, 0), BuildingBlock: AJUNOK_clean_linker_0, # of connection points: 2
#     Edge 23, Type (0, 0), BuildingBlock: AJUNOK_clean_linker_0, # of connection points: 2
# Relax obj value: 0.039
# Max RMSD: 0.231
# Mean RMSD: 0.231
data_MOF--net-uoj--node1-ESEHIV_clean_sbu_0--edge1-AJUNOK_clean_linker_0
_symmetry_space_group_name_H-M    P1
_symmetry_Int_Tables_number       1
_symmetry_cell_setting            triclinic
loop_
_symmetry_equiv_pos_as_xyz
'x, y, z'
_cell_length_a     25.630458
_cell_length_b     25.570935
_cell_length_c     34.666929
_cell_angle_alpha  89.475785
_cell_angle_beta   89.493033
_cell_angle_gamma 91.277208
loop_
_atom_site_label
_atom_site_type_symbol
_atom_site_fract_x
_atom_site_fract_y
_atom_site_fract_z
_atom_type_partial_charge
Cu0 Cu 0.06628 0.3338 0.44827 0.0
N1 N 1.00989 0.28879 0.43727 0.0
N2 N 0.94104 0.23514 0.44863 0.0
C3 C 0.97941 0.26489 0.46428 0.0
C4 C 0.94812 0.24005 0.4101 0.0
C5 C 0.99046 0.27342 0.40317 0.0
O6 O 0.10657 0.30104 0.48859 0.0
C7 C 0.07166 0.43758 0.47391 0.0
O8 O 0.12087 0.42635 0.47913 0.0
H9 H 0.9861 0.26844 0.49489 0.0
H10 H 1.00594 0.28549 0.3753 0.0
N11 N 0.11453 0.34385 0.40772 0.0
N12 N 0.15809 0.36107 0.3526 0.0
C13 C 0.11047 0.35332 0.36936 0.0
C14 C 0.16593 0.34687 0.41506 0.0
C15 C 0.19269 0.35756 0.38149 0.0
C16 C 0.0978 0.297 0.52463 0.0
O17 O 0.05604 0.31804 0.5396 0.0
H18 H 0.07383 0.3546 0.35415 0.0
H19 H 0.18281 0.34292 0.44337 0.0
O20 O 0.04052 0.40167 0.4625 0.0
H21 H 0.9242 0.22118 0.38849 0.0
H22 H 0.23451 0.36352 0.3787 0.0
Cu23 Cu 0.31563 1.03236 0.62211 0.0
N24 N 0.27661 0.09217 0.62935 0.0
N25 N 0.22689 0.16028 0.61516 0.0
C26 C 0.253 0.11913 0.60123 0.0
C27 C 0.23381 0.1587 0.6537 0.0
C28 C 0.26477 0.11669 0.66237 0.0
O29 O 0.28239 0.99431 0.58025 0.0
C30 C 0.42117 1.02234 0.59776 0.0
O31 O 0.40803 0.97268 0.5943 0.0
H32 H 0.25401 0.10788 0.57121 0.0
H33 H 0.27747 0.10466 0.6907 0.0
N34 N 0.31464 0.99212 0.66746 0.0
N35 N 0.33994 0.94715 0.71946 0.0
C36 C 0.35554 0.97517 0.68796 0.0
C37 C 0.27186 0.97452 0.68666 0.0
C38 C 0.28729 0.94695 0.71878 0.0
C39 C 0.28276 0.94495 0.5761 0.0
O40 O 0.30928 0.91625 0.6003 0.0
H41 H 0.39579 0.98412 0.68031 0.0
H42 H 0.23219 0.98141 0.67786 0.0
O43 O 0.38684 0.05413 0.60896 0.0
H44 H 0.21794 0.18613 0.67405 0.0
H45 H 0.26177 0.92771 0.73981 0.0
Cu46 Cu 1.03035 0.75749 0.43209 0.0
N47 N 0.09424 0.7941 0.4345 0.0
N48 N 0.16171 0.83922 0.45905 0.0
C49 C 0.10974 0.82943 0.46094 0.0
C50 C 0.17954 0.80921 0.43023 0.0
C51 C 0.13782 0.78165 0.41504 0.0
O52 O 0.97716 0.79266 0.46176 0.0
C53 C 1.0072 0.65335 0.45922 0.0
O54 O 0.95797 0.66488 0.45436 0.0
H55 H 0.08435 0.84482 0.48293 0.0
H56 H 0.13958 0.75197 0.39306 0.0
N57 N 1.00796 0.75296 0.38093 0.0
N58 N 0.96878 0.72332 0.32759 0.0
C59 C 0.98529 0.71141 0.36355 0.0
C60 C 1.00645 0.7923 0.355 0.0
C61 C 0.98254 0.77415 0.32209 0.0
C62 C 0.9793 0.8001 0.49794 0.0
O63 O 1.01892 0.78239 0.51755 0.0
H64 H 0.98087 0.67339 0.37716 0.0
H65 H 1.02033 0.83185 0.36018 0.0
O66 O 0.04246 0.68782 0.45187 0.0
H67 H 0.22015 0.80562 0.42204 0.0
H68 H 0.9741 0.79718 0.29663 0.0
Cu69 Cu 0.74717 0.05402 0.60017 0.0
N70 N 0.77521 0.98767 0.59479 0.0
N71 N 0.82297 0.92095 0.57512 0.0
C72 C 0.82039 0.97344 0.57804 0.0
C73 C 0.77828 0.90143 0.59074 0.0
C74 C 0.74901 0.94268 0.60301 0.0
O75 O 0.78493 0.10505 0.56768 0.0
C76 C 0.64154 0.08322 0.58493 0.0
O77 O 0.65868 0.13184 0.58758 0.0
H78 H 0.84935 1.00084 0.56636 0.0
H79 H 0.71022 0.94028 0.61555 0.0
N80 N 0.7516 0.07426 0.65177 0.0
N81 N 0.73102 0.10786 0.70918 0.0
C82 C 0.71526 0.09905 0.67269 0.0
C83 C 0.79181 0.06724 0.67581 0.0
C84 C 0.77932 0.08806 0.71123 0.0
C85 C 0.7952 0.09786 0.53213 0.0
O86 O 0.77774 0.05492 0.51563 0.0
H87 H 0.67787 0.11033 0.66151 0.0
H88 H 0.82792 0.04882 0.66794 0.0
O89 O 0.67383 0.04634 0.58747 0.0
H90 H 0.76704 0.86038 0.59205 0.0
H91 H 0.80451 0.08992 0.73608 0.0
Cu92 Cu 0.51233 0.82469 0.94506 0.0
N93 N 0.57513 0.78993 0.95119 0.0
N94 N 0.63696 0.73952 0.97607 0.0
C95 C 0.58551 0.75016 0.9755 0.0
C96 C 0.65965 0.77396 0.951 0.0
C97 C 0.62144 0.80483 0.93569 0.0
O98 O 0.45845 0.79005 0.97682 0.0
C99 C 0.49311 0.93292 0.96141 0.0
O100 O 0.44326 0.9205 0.95875 0.0
H101 H 0.55618 0.73044 0.99332 0.0
H102 H 0.62728 0.83763 0.91608 0.0
N103 N 0.49279 0.82202 0.89319 0.0
N104 N 0.45965 0.84343 0.83578 0.0
C105 C 0.46626 0.85781 0.87287 0.0
C106 C 0.50301 0.78359 0.86817 0.0
C107 C 0.48252 0.79658 0.83279 0.0
C108 C 0.46166 0.78467 1.01328 0.0
O109 O 0.50118 0.80697 0.03115 0.0
H110 H 0.45237 0.89387 0.88487 0.0
H111 H 0.52364 0.7484 0.87531 0.0
O112 O 0.52659 0.89726 0.95818 0.0
H113 H 0.70117 0.7788 0.9458 0.0
H114 H 0.48322 0.7727 0.80718 0.0
Cu115 Cu 0.81482 0.53771 0.1163 0.0
N116 N 0.77285 0.47704 0.11677 0.0
N117 N 0.71869 0.41284 0.09748 0.0
C118 C 0.74301 0.45863 0.08787 0.0
C119 C 0.73438 0.40187 0.13369 0.0
C120 C 0.76769 0.44156 0.1455 0.0
O121 O 0.78582 0.58701 0.07964 0.0
C122 C 0.92035 0.55106 0.09135 0.0
O123 O 0.90974 0.6011 0.09043 0.0
H124 H 0.73921 0.47846 0.06035 0.0
H125 H 0.78749 0.44403 0.17287 0.0
N126 N 0.81675 0.56647 0.16587 0.0
N127 N 0.84481 0.60458 0.22008 0.0
C128 C 0.85771 0.58902 0.18408 0.0
C129 C 0.77669 0.56804 0.19111 0.0
C130 C 0.79368 0.59177 0.22436 0.0
C131 C 0.73879 0.60115 0.08372 0.0
O132 O 0.71153 0.58324 0.11345 0.0
H133 H 0.89628 0.59349 0.17139 0.0
H134 H 0.73769 0.55307 0.18566 0.0
O135 O 0.88463 0.51819 0.10118 0.0
H136 H 0.72387 0.36694 0.15009 0.0
H137 H 0.76975 0.60007 0.24934 0.0
Cu138 Cu 0.54829 0.2565 0.92417 0.0
N139 N 0.48825 0.29591 0.91861 0.0
N140 N 0.42115 0.34742 0.93188 0.0
C141 C 0.46388 0.32393 0.94581 0.0
C142 C 0.41842 0.33333 0.89452 0.0
C143 C 0.4599 0.30165 0.88643 0.0
O144 O 0.59376 0.29013 0.9616 0.0
C145 C 0.56103 0.15208 0.94989 0.0
O146 O 0.61039 0.16666 0.95189 0.0
H147 H 0.47723 0.32717 0.97523 0.0
H148 H 0.46852 0.2835 0.85911 0.0
N149 N 0.58374 0.25539 0.87687 0.0
N150 N 0.62644 0.22865 0.82433 0.0
C151 C 0.60176 0.21392 0.85747 0.0
C152 C 0.59722 0.29758 0.85528 0.0
C153 C 0.62335 0.28124 0.82284 0.0
C154 C 0.58528 0.28833 0.99781 0.0
O155 O 0.54507 0.26069 1.01104 0.0
H156 H 0.59615 0.17385 0.8672 0.0
H157 H 0.58873 0.33748 0.86279 0.0
O158 O 0.52791 0.18554 0.93937 0.0
H159 H 0.38785 0.34383 0.87474 0.0
H160 H 0.63956 0.30621 0.80014 0.0
Cu161 Cu 0.24247 0.49956 0.09908 0.0
N162 N 0.28229 0.56024 0.10869 0.0
N163 N 0.33041 0.63278 0.09627 0.0
C164 C 0.30795 0.58911 0.08157 0.0
C165 C 0.31903 0.63083 0.13438 0.0
C166 C 0.28904 0.58621 0.14191 0.0
O167 O 0.2774 0.46139 0.05861 0.0
C168 C 0.13614 0.48484 0.08163 0.0
O169 O 0.14803 0.43519 0.08358 0.0
H170 H 0.31041 0.57794 0.05163 0.0
H171 H 0.27268 0.57401 0.1695 0.0
N172 N 0.23871 0.4527 0.14096 0.0
N173 N 0.22048 0.41036 0.19649 0.0
C174 C 0.22044 0.457 0.17751 0.0
C175 C 0.24957 0.40187 0.13678 0.0
C176 C 0.23822 0.37577 0.17061 0.0
C177 C 0.27956 0.47132 1.02264 0.0
O178 O 0.25378 0.51095 1.00867 0.0
H179 H 0.207 0.49313 0.18977 0.0
H180 H 0.26312 0.38452 0.11029 0.0
O181 O 0.17226 0.51917 0.08574 0.0
H182 H 0.33065 0.6601 0.15517 0.0
H183 H 0.2412 0.33405 0.1753 0.0
C184 C 0.16085 0.42151 0.25272 0.0
C185 C 0.20482 0.39837 0.23581 0.0
C186 C 0.14423 0.40787 0.29049 0.0
C187 C 0.17137 0.37107 0.31261 0.0
H188 H 0.13894 0.44984 0.23652 0.0
H189 H 0.11083 0.42707 0.30281 0.0
S190 S 0.28855 0.29927 0.28171 0.0
N191 N 0.27536 0.33751 0.24464 0.0
N192 N 0.24312 0.31071 0.31437 0.0
C193 C 0.21489 0.34742 0.29578 0.0
C194 C 0.23189 0.36139 0.25775 0.0
C195 C 0.35599 0.92208 0.78731 0.0
C196 C 0.37192 0.92274 0.74832 0.0
C197 C 0.38533 0.89704 0.81575 0.0
C198 C 0.43143 0.871 0.80629 0.0
H199 H 0.32054 0.94123 0.79591 0.0
H200 H 0.37118 0.89703 0.84527 0.0
S201 S 0.49087 0.86214 0.70863 0.0
N202 N 0.43727 0.89556 0.70187 0.0
N203 N 0.49265 0.84902 0.75533 0.0
C204 C 0.44818 0.87187 0.7675 0.0
C205 C 0.41847 0.8977 0.73856 0.0
C206 C 0.94574 0.69765 0.26102 0.0
C207 C 0.93952 0.6906 0.30119 0.0
C208 C 0.91571 0.66857 0.23474 0.0
C209 C 0.87785 0.63149 0.24749 0.0
H210 H 0.97396 0.72611 0.24978 0.0
H211 H 0.92119 0.67622 0.20418 0.0
S212 S 0.84756 0.5961 0.34949 0.0
N213 N 0.8929 0.64272 0.35228 0.0
N214 N 0.83791 0.58714 0.30299 0.0
C215 C 0.8721 0.62305 0.28752 0.0
C216 C 0.9026 0.65271 0.3143 0.0
C217 C 0.6486 0.2094 0.75652 0.0
C218 C 0.65103 0.19606 0.79594 0.0
C219 C 0.674 0.17991 0.72841 0.0
C220 C 0.70343 0.13617 0.73857 0.0
H221 H 0.62679 0.243 0.74731 0.0
H222 H 0.67157 0.19218 0.69852 0.0
S223 S 0.72108 0.08368 0.83763 0.0
N224 N 0.6847 0.13552 0.84362 0.0
N225 N 0.73189 0.07971 0.79072 0.0
C226 C 0.70564 0.12188 0.77782 0.0
C227 C 0.67947 0.15179 0.80648 0.0
C228 C 0.14918 0.21528 0.60805 0.0
C229 C 0.19679 0.19713 0.5934 0.0
C230 C 0.11791 0.24864 0.58612 0.0
C231 C 0.1332 0.2652 0.54875 0.0
H232 H 0.13528 0.20235 0.63621 0.0
H233 H 0.08093 0.26041 0.59823 0.0
S234 S 0.25787 0.23376 0.49933 0.0
N235 N 0.26002 0.20194 0.54089 0.0
N236 N 0.20165 0.26394 0.49952 0.0
C237 C 0.18184 0.24881 0.53448 0.0
C238 C 0.21349 0.21495 0.55681 0.0
C239 C 0.26626 0.8702 0.53131 0.0
C240 C 0.25226 0.91972 0.54485 0.0
C241 C 0.23733 0.84479 0.50255 0.0
C242 C 0.19267 0.86744 0.48679 0.0
H243 H 0.29991 0.85084 0.54297 0.0
H244 H 0.24914 0.80647 0.49328 0.0
S245 S 0.13936 0.99638 0.51176 0.0
N246 N 0.19094 0.9908 0.53962 0.0
N247 N 0.13619 0.94225 0.48617 0.0
C248 C 0.17827 0.91688 0.49988 0.0
C249 C 0.20819 0.94326 0.52868 0.0
C250 C 0.91377 0.8926 0.56766 0.0
C251 C 0.86184 0.89176 0.55513 0.0
C252 C 0.95149 0.86208 0.54941 0.0
C253 C 0.93863 0.83082 0.51744 0.0
H254 H 0.92489 0.91628 0.59212 0.0
H255 H 0.9911 0.86357 0.56005 0.0
S256 S 0.80781 0.81676 0.47324 0.0
N257 N 0.79929 0.85783 0.50913 0.0
N258 N 0.87012 0.80162 0.47398 0.0
C259 C 0.88683 0.8305 0.50438 0.0
C260 C 0.84841 0.86066 0.52347 0.0
C261 C 0.85117 0.12103 0.47428 0.0
C262 C 0.83003 0.13532 0.51026 0.0
C263 C 0.88654 0.15414 0.45404 0.0
C264 C 0.90236 0.20294 0.46889 0.0
H265 H 0.84127 0.0834 0.4619 0.0
H266 H 0.90272 0.14078 0.42701 0.0
S267 S 0.85432 0.26173 0.55969 0.0
N268 N 0.82499 0.20364 0.55849 0.0
N269 N 0.89069 0.26587 0.5202 0.0
C270 C 0.88023 0.21856 0.50416 0.0
C271 C 0.8443 0.18482 0.52485 0.0
C272 C 0.40396 0.69722 0.09331 0.0
C273 C 0.36074 0.6727 0.07573 0.0
C274 C 0.43544 0.73425 0.07325 0.0
C275 C 0.42498 0.74852 0.03474 0.0
H276 H 0.41441 0.68664 0.1225 0.0
H277 H 0.46897 0.75088 0.0879 0.0
S278 S 0.31282 0.69993 0.97696 0.0
N279 N 0.30651 0.66859 1.01863 0.0
N280 N 0.36574 0.73744 0.98077 0.0
C281 C 0.38076 0.72551 1.01726 0.0
C282 C 0.34871 0.68782 0.03773 0.0
C283 C 0.66773 0.66184 0.06547 0.0
C284 C 0.71411 0.63661 0.05536 0.0
C285 C 0.64271 0.69491 0.0394 0.0
C286 C 0.66278 0.70404 1.00197 0.0
H287 H 0.6507 0.65646 0.09398 0.0
H288 H 0.60779 0.7142 0.04896 0.0
S289 S 0.78099 0.6445 0.96 0.0
N290 N 0.77807 0.6215 1.00464 0.0
N291 N 0.73039 0.68285 0.9554 0.0
C292 C 0.70871 0.67849 0.99121 0.0
C293 C 0.73449 0.64502 1.01792 0.0
C294 C 0.69498 0.37806 0.03351 0.0
C295 C 0.68502 0.38131 0.07336 0.0
C296 C 0.66295 0.34752 1.00954 0.0
C297 C 0.61935 0.31908 1.02435 0.0
H298 H 0.72823 0.39884 1.02079 0.0
H299 H 0.67254 0.34639 0.97907 0.0
S300 S 0.57482 0.31672 0.12669 0.0
N301 N 0.62742 0.35515 0.12645 0.0
N302 N 0.56743 0.29742 0.08172 0.0
C303 C 0.60882 0.32225 0.06424 0.0
C304 C 0.64156 0.35337 0.08863 0.0
C305 C 0.37254 0.36535 0.99184 0.0
C306 C 0.38472 0.37843 0.95331 0.0
C307 C 0.33783 0.39503 1.01352 0.0
C308 C 0.31388 0.43939 0.9977 0.0
H309 H 0.38973 0.33155 1.0053 0.0
H310 H 0.33004 0.38307 0.0431 0.0
S311 S 0.33427 0.49133 0.89818 0.0
N312 N 0.37119 0.4393 0.9003 0.0
N313 N 0.30565 0.49517 0.9409 0.0
C314 C 0.3256 0.45284 0.95904 0.0
C315 C 0.36102 0.42239 0.93691 0.0
C316 C 0.98721 0.55698 0.46162 0.0
C317 C 1.02231 0.59892 0.46833 0.0
C318 C 1.00286 0.50492 0.46514 0.0
C319 C 0.05418 0.49264 0.4757 0.0
H320 H 0.94793 0.56427 0.45198 0.0
H321 H 0.97485 0.47415 0.4582 0.0
S322 S 0.15903 0.58837 0.50162 0.0
N323 N 0.10918 0.62475 0.48973 0.0
N324 N 0.13853 0.5272 0.49653 0.0
C325 C 0.08873 0.53429 0.48471 0.0
C326 C 0.07284 0.58729 0.48095 0.0
C327 C 0.56782 1.01753 0.58136 0.0
C328 C 0.58459 0.07019 0.58428 0.0
C329 C 0.51497 1.00285 0.58475 0.0
C330 C 0.47634 0.04007 0.59133 0.0
H331 H 0.59584 0.98694 0.57726 0.0
H332 H 0.50463 0.96163 0.5831 0.0
S333 S 0.49875 0.18374 0.59841 0.0
N334 N 0.55761 0.16018 0.59201 0.0
N335 N 0.4583 0.13259 0.59839 0.0
C336 C 0.49221 0.09315 0.59296 0.0
C337 C 0.54622 0.10818 0.58939 0.0
C338 C 0.49134 0.08149 0.95362 0.0
C339 C 0.54439 0.09648 0.95666 0.0
C340 C 0.4749 1.02886 0.95672 0.0
C341 C 0.51078 0.9888 0.96288 0.0
H342 H 0.46216 0.11049 0.94792 0.0
H343 H 0.43383 1.01951 0.95306 0.0
S344 S 0.65374 1.00724 0.97622 0.0
N345 N 0.63243 0.06685 0.96866 0.0
N346 N 0.60165 0.96827 0.97448 0.0
C347 C 0.56372 1.00339 0.9675 0.0
C348 C 0.58047 0.05703 0.9644 0.0
C349 C 0.06834 0.55412 0.08241 0.0
C350 C 0.08072 0.50086 0.07962 0.0
C351 C 1.01641 0.57008 0.08483 0.0
C352 C 0.97459 0.53348 0.08471 0.0
H353 H 0.09901 0.58386 0.08384 0.0
H354 H 1.00922 0.6114 0.08808 0.0
S355 S 0.98529 0.38975 0.07359 0.0
N356 N 0.04629 0.41182 0.07367 0.0
N357 N 0.94892 0.44179 0.07834 0.0
C358 C 0.98623 0.48029 0.08019 0.0
C359 C 0.03915 0.46402 0.07759 0.0
loop_
_geom_bond_atom_site_label_1
_geom_bond_atom_site_label_2
_geom_bond_distance
_geom_bond_site_symmetry_2
_ccdc_geom_bond_type
Cu0 N1 1.999 1_455 S
Cu0 O6 1.974 . S
Cu0 N11 1.985 . S
Cu0 O20 1.961 . S
N1 Cu0 1.999 1_655 S
N1 C3 1.263 . S
N1 C5 1.389 . S
N2 C3 1.358 . S
N2 C4 1.400 . S
C3 N1 1.263 . S
C3 N2 1.358 . S
C3 H9 0.930 1_655 S
C4 N2 1.400 . S
C4 C5 1.351 . S
C4 H21 0.930 . S
C5 N1 1.389 . S
C5 C4 1.351 . S
C5 H10 0.930 . S
O6 Cu0 1.974 . S
O6 C16 1.282 . S
C7 O8 1.261 . S
C7 O20 1.252 . S
O8 C7 1.261 . S
H9 C3 0.930 1_455 S
H10 C5 0.930 . S
N11 Cu0 1.985 . S
N11 C13 1.335 . S
N11 C14 1.390 . S
N12 C13 1.345 . S
N12 C15 1.336 . S
C13 N11 1.335 . S
C13 N12 1.345 . S
C13 H18 0.930 . S
C14 N11 1.390 . S
C14 C15 1.346 . S
C14 H19 0.930 . S
C15 N12 1.336 . S
C15 C14 1.346 . S
C15 H22 0.929 . S
C16 O6 1.282 . S
C16 O17 1.216 . S
O17 C16 1.216 . S
H18 C13 0.930 . S
H19 C14 0.930 . S
O20 Cu0 1.961 . S
O20 C7 1.252 . S
H21 C4 0.930 . S
H22 C15 0.929 . S
Cu23 N24 1.999 1_565 S
Cu23 O29 1.974 . S
Cu23 N34 1.985 . S
Cu23 O43 1.961 . S
N24 Cu23 1.999 1_545 S
N24 C26 1.263 . S
N24 C28 1.389 . S
N25 C26 1.358 . S
N25 C27 1.400 . S
C26 N24 1.263 . S
C26 N25 1.358 . S
C26 H32 0.930 1_545 S
C27 N25 1.400 . S
C27 C28 1.351 . S
C27 H44 0.930 . S
C28 N24 1.389 . S
C28 C27 1.351 . S
C28 H33 0.930 . S
O29 Cu23 1.974 . S
O29 C39 1.282 . S
C30 O31 1.261 . S
C30 O43 1.252 . S
O31 C30 1.261 . S
H32 C26 0.930 1_565 S
H33 C28 0.930 . S
N34 Cu23 1.985 . S
N34 C36 1.335 . S
N34 C37 1.390 . S
N35 C36 1.345 . S
N35 C38 1.336 . S
C36 N34 1.335 . S
C36 N35 1.345 . S
C36 H41 0.930 . S
C37 N34 1.390 . S
C37 C38 1.346 . S
C37 H42 0.930 . S
C38 N35 1.336 . S
C38 C37 1.346 . S
C38 H45 0.929 . S
C39 O29 1.282 . S
C39 O40 1.216 . S
O40 C39 1.216 . S
H41 C36 0.930 . S
H42 C37 0.930 . S
O43 Cu23 1.961 . S
O43 C30 1.252 . S
H44 C27 0.930 . S
H45 C38 0.929 . S
Cu46 N47 1.999 1_655 S
Cu46 O52 1.974 . S
Cu46 N57 1.985 . S
Cu46 O66 1.961 . S
N47 Cu46 1.999 1_455 S
N47 C49 1.263 . S
N47 C51 1.389 . S
N48 C49 1.358 . S
N48 C50 1.400 . S
C49 N47 1.263 . S
C49 N48 1.358 . S
C49 H55 0.930 1_455 S
C50 N48 1.400 . S
C50 C51 1.351 . S
C50 H67 0.930 . S
C51 N47 1.389 . S
C51 C50 1.351 . S
C51 H56 0.930 . S
O52 Cu46 1.974 . S
O52 C62 1.282 . S
C53 O54 1.261 . S
C53 O66 1.252 . S
O54 C53 1.261 . S
H55 C49 0.930 1_655 S
H56 C51 0.930 . S
N57 Cu46 1.985 . S
N57 C59 1.335 . S
N57 C60 1.390 . S
N58 C59 1.345 . S
N58 C61 1.336 . S
C59 N57 1.335 . S
C59 N58 1.345 . S
C59 H64 0.930 . S
C60 N57 1.390 . S
C60 C61 1.346 . S
C60 H65 0.930 . S
C61 N58 1.336 . S
C61 C60 1.346 . S
C61 H68 0.929 . S
C62 O52 1.282 . S
C62 O63 1.216 . S
O63 C62 1.216 . S
H64 C59 0.930 . S
H65 C60 0.930 . S
O66 Cu46 1.961 . S
O66 C53 1.252 . S
H67 C50 0.930 . S
H68 C61 0.929 . S
Cu69 N70 1.999 1_545 S
Cu69 O75 1.974 . S
Cu69 N80 1.985 . S
Cu69 O89 1.961 . S
N70 Cu69 1.999 1_565 S
N70 C72 1.263 . S
N70 C74 1.389 . S
N71 C72 1.358 . S
N71 C73 1.400 . S
C72 N70 1.263 . S
C72 N71 1.358 . S
C72 H78 0.930 1_565 S
C73 N71 1.400 . S
C73 C74 1.351 . S
C73 H90 0.930 . S
C74 N70 1.389 . S
C74 C73 1.351 . S
C74 H79 0.930 . S
O75 Cu69 1.974 . S
O75 C85 1.282 . S
C76 O77 1.261 . S
C76 O89 1.252 . S
O77 C76 1.261 . S
H78 C72 0.930 1_545 S
H79 C74 0.930 . S
N80 Cu69 1.985 . S
N80 C82 1.335 . S
N80 C83 1.390 . S
N81 C82 1.345 . S
N81 C84 1.336 . S
C82 N80 1.335 . S
C82 N81 1.345 . S
C82 H87 0.930 . S
C83 N80 1.390 . S
C83 C84 1.346 . S
C83 H88 0.930 . S
C84 N81 1.336 . S
C84 C83 1.346 . S
C84 H91 0.929 . S
C85 O75 1.282 . S
C85 O86 1.216 . S
O86 C85 1.216 . S
H87 C82 0.930 . S
H88 C83 0.930 . S
O89 Cu69 1.961 . S
O89 C76 1.252 . S
H90 C73 0.930 . S
H91 C84 0.929 . S
Cu92 N93 1.999 . S
Cu92 O98 1.974 . S
Cu92 N103 1.985 . S
Cu92 O112 1.959 . S
N93 Cu92 1.999 . S
N93 C95 1.263 . S
N93 C97 1.389 . S
N94 C95 1.358 . S
N94 C96 1.400 . S
C95 N93 1.263 . S
C95 N94 1.358 . S
C95 H101 0.930 . S
C96 N94 1.400 . S
C96 C97 1.351 . S
C96 H113 0.930 . S
C97 N93 1.389 . S
C97 C96 1.351 . S
C97 H102 0.930 . S
O98 Cu92 1.974 . S
O98 C108 1.282 . S
C99 O100 1.261 . S
C99 O112 1.251 . S
O100 C99 1.261 . S
H101 C95 0.930 . S
H102 C97 0.930 . S
N103 Cu92 1.985 . S
N103 C105 1.335 . S
N103 C106 1.390 . S
N104 C105 1.345 . S
N104 C107 1.336 . S
C105 N103 1.335 . S
C105 N104 1.345 . S
C105 H110 0.930 . S
C106 N103 1.390 . S
C106 C107 1.346 . S
C106 H111 0.930 . S
C107 N104 1.336 . S
C107 C106 1.346 . S
C107 H114 0.929 . S
C108 O98 1.282 . S
C108 O109 1.216 . S
O109 C108 1.216 . S
H110 C105 0.930 . S
H111 C106 0.930 . S
O112 Cu92 1.959 . S
O112 C99 1.251 . S
H113 C96 0.930 . S
H114 C107 0.929 . S
Cu115 N116 1.999 . S
Cu115 O121 1.974 . S
Cu115 N126 1.985 . S
Cu115 O135 1.959 . S
N116 Cu115 1.999 . S
N116 C118 1.263 . S
N116 C120 1.389 . S
N117 C118 1.358 . S
N117 C119 1.400 . S
C118 N116 1.263 . S
C118 N117 1.358 . S
C118 H124 0.930 . S
C119 N117 1.400 . S
C119 C120 1.351 . S
C119 H136 0.930 . S
C120 N116 1.389 . S
C120 C119 1.351 . S
C120 H125 0.930 . S
O121 Cu115 1.974 . S
O121 C131 1.282 . S
C122 O123 1.261 . S
C122 O135 1.251 . S
O123 C122 1.261 . S
H124 C118 0.930 . S
H125 C120 0.930 . S
N126 Cu115 1.985 . S
N126 C128 1.335 . S
N126 C129 1.390 . S
N127 C128 1.345 . S
N127 C130 1.336 . S
C128 N126 1.335 . S
C128 N127 1.345 . S
C128 H133 0.930 . S
C129 N126 1.390 . S
C129 C130 1.346 . S
C129 H134 0.930 . S
C130 N127 1.336 . S
C130 C129 1.346 . S
C130 H137 0.929 . S
C131 O121 1.282 . S
C131 O132 1.216 . S
O132 C131 1.216 . S
H133 C128 0.930 . S
H134 C129 0.930 . S
O135 Cu115 1.959 . S
O135 C122 1.251 . S
H136 C119 0.930 . S
H137 C130 0.929 . S
Cu138 N139 1.999 . S
Cu138 O144 1.974 . S
Cu138 N149 1.985 . S
Cu138 O158 1.959 . S
N139 Cu138 1.999 . S
N139 C141 1.263 . S
N139 C143 1.389 . S
N140 C141 1.358 . S
N140 C142 1.400 . S
C141 N139 1.263 . S
C141 N140 1.358 . S
C141 H147 0.930 . S
C142 N140 1.400 . S
C142 C143 1.351 . S
C142 H159 0.930 . S
C143 N139 1.389 . S
C143 C142 1.351 . S
C143 H148 0.930 . S
O144 Cu138 1.974 . S
O144 C154 1.282 . S
C145 O146 1.261 . S
C145 O158 1.251 . S
O146 C145 1.261 . S
H147 C141 0.930 . S
H148 C143 0.930 . S
N149 Cu138 1.985 . S
N149 C151 1.335 . S
N149 C152 1.390 . S
N150 C151 1.345 . S
N150 C153 1.336 . S
C151 N149 1.335 . S
C151 N150 1.345 . S
C151 H156 0.930 . S
C152 N149 1.390 . S
C152 C153 1.346 . S
C152 H157 0.930 . S
C153 N150 1.336 . S
C153 C152 1.346 . S
C153 H160 0.929 . S
C154 O144 1.282 . S
C154 O155 1.216 . S
O155 C154 1.216 . S
H156 C151 0.930 . S
H157 C152 0.930 . S
O158 Cu138 1.959 . S
O158 C145 1.251 . S
H159 C142 0.930 . S
H160 C153 0.929 . S
Cu161 N162 1.999 . S
Cu161 O167 1.974 . S
Cu161 N172 1.985 . S
Cu161 O181 1.959 . S
N162 Cu161 1.999 . S
N162 C164 1.263 . S
N162 C166 1.389 . S
N163 C164 1.358 . S
N163 C165 1.400 . S
C164 N162 1.263 . S
C164 N163 1.358 . S
C164 H170 0.930 . S
C165 N163 1.400 . S
C165 C166 1.351 . S
C165 H182 0.930 . S
C166 N162 1.389 . S
C166 C165 1.351 . S
C166 H171 0.930 . S
O167 Cu161 1.974 . S
O167 C177 1.282 . S
C168 O169 1.261 . S
C168 O181 1.251 . S
O169 C168 1.261 . S
H170 C164 0.930 . S
H171 C166 0.930 . S
N172 Cu161 1.985 . S
N172 C174 1.335 . S
N172 C175 1.390 . S
N173 C174 1.345 . S
N173 C176 1.336 . S
C174 N172 1.335 . S
C174 N173 1.345 . S
C174 H179 0.930 . S
C175 N172 1.390 . S
C175 C176 1.346 . S
C175 H180 0.930 . S
C176 N173 1.336 . S
C176 C175 1.346 . S
C176 H183 0.929 . S
C177 O167 1.282 . S
C177 O178 1.216 . S
O178 C177 1.216 . S
H179 C174 0.930 . S
H180 C175 0.930 . S
O181 Cu161 1.959 . S
O181 C168 1.251 . S
H182 C165 0.930 . S
H183 C176 0.929 . S
C184 C185 1.369 . S
C184 C186 1.419 . S
C184 H188 0.930 . S
C185 C184 1.369 . S
C185 C194 1.429 . S
C186 C184 1.419 . S
C186 C187 1.363 . S
C186 H189 0.929 . S
C187 C186 1.363 . S
C187 C193 1.428 . S
H188 C184 0.930 . S
H189 C186 0.929 . S
S190 N191 1.613 . S
S190 N192 1.610 . S
N191 S190 1.613 . S
N191 C194 1.350 . S
N192 S190 1.610 . S
N192 C193 1.351 . S
C193 C187 1.428 . S
C193 N192 1.351 . S
C193 C194 1.434 . S
C194 C185 1.429 . S
C194 N191 1.350 . S
C194 C193 1.434 . S
C195 C196 1.369 . S
C195 C197 1.419 . S
C195 H199 0.930 . S
C196 C195 1.369 . S
C196 C205 1.429 . S
C197 C195 1.419 . S
C197 C198 1.363 . S
C197 H200 0.929 . S
C198 C197 1.363 . S
C198 C204 1.428 . S
H199 C195 0.930 . S
H200 C197 0.929 . S
S201 N202 1.613 . S
S201 N203 1.610 . S
N202 S201 1.613 . S
N202 C205 1.350 . S
N203 S201 1.610 . S
N203 C204 1.351 . S
C204 C198 1.428 . S
C204 N203 1.351 . S
C204 C205 1.434 . S
C205 C196 1.429 . S
C205 N202 1.350 . S
C205 C204 1.434 . S
C206 C207 1.369 . S
C206 C208 1.419 . S
C206 H210 0.930 . S
C207 C206 1.369 . S
C207 C216 1.429 . S
C208 C206 1.419 . S
C208 C209 1.363 . S
C208 H211 0.929 . S
C209 C208 1.363 . S
C209 C215 1.428 . S
H210 C206 0.930 . S
H211 C208 0.929 . S
S212 N213 1.613 . S
S212 N214 1.610 . S
N213 S212 1.613 . S
N213 C216 1.350 . S
N214 S212 1.610 . S
N214 C215 1.351 . S
C215 C209 1.428 . S
C215 N214 1.351 . S
C215 C216 1.434 . S
C216 C207 1.429 . S
C216 N213 1.350 . S
C216 C215 1.434 . S
C217 C218 1.369 . S
C217 C219 1.419 . S
C217 H221 0.930 . S
C218 C217 1.369 . S
C218 C227 1.429 . S
C219 C217 1.419 . S
C219 C220 1.363 . S
C219 H222 0.929 . S
C220 C219 1.363 . S
C220 C226 1.428 . S
H221 C217 0.930 . S
H222 C219 0.929 . S
S223 N224 1.613 . S
S223 N225 1.610 . S
N224 S223 1.613 . S
N224 C227 1.350 . S
N225 S223 1.610 . S
N225 C226 1.351 . S
C226 C220 1.428 . S
C226 N225 1.351 . S
C226 C227 1.434 . S
C227 C218 1.429 . S
C227 N224 1.350 . S
C227 C226 1.434 . S
C228 C229 1.369 . S
C228 C230 1.419 . S
C228 H232 0.930 . S
C229 C228 1.369 . S
C229 C238 1.429 . S
C230 C228 1.419 . S
C230 C231 1.363 . S
C230 H233 0.929 . S
C231 C230 1.363 . S
C231 C237 1.428 . S
H232 C228 0.930 . S
H233 C230 0.929 . S
S234 N235 1.613 . S
S234 N236 1.610 . S
N235 S234 1.613 . S
N235 C238 1.350 . S
N236 S234 1.610 . S
N236 C237 1.351 . S
C237 C231 1.428 . S
C237 N236 1.351 . S
C237 C238 1.434 . S
C238 C229 1.429 . S
C238 N235 1.350 . S
C238 C237 1.434 . S
C239 C240 1.369 . S
C239 C241 1.419 . S
C239 H243 0.930 . S
C240 C239 1.369 . S
C240 C249 1.429 . S
C241 C239 1.419 . S
C241 C242 1.363 . S
C241 H244 0.929 . S
C242 C241 1.363 . S
C242 C248 1.428 . S
H243 C239 0.930 . S
H244 C241 0.929 . S
S245 N246 1.613 . S
S245 N247 1.610 . S
N246 S245 1.613 . S
N246 C249 1.350 . S
N247 S245 1.610 . S
N247 C248 1.351 . S
C248 C242 1.428 . S
C248 N247 1.351 . S
C248 C249 1.434 . S
C249 C240 1.429 . S
C249 N246 1.350 . S
C249 C248 1.434 . S
C250 C251 1.369 . S
C250 C252 1.419 . S
C250 H254 0.930 . S
C251 C250 1.369 . S
C251 C260 1.429 . S
C252 C250 1.419 . S
C252 C253 1.363 . S
C252 H255 0.929 . S
C253 C252 1.363 . S
C253 C259 1.428 . S
H254 C250 0.930 . S
H255 C252 0.929 . S
S256 N257 1.613 . S
S256 N258 1.610 . S
N257 S256 1.613 . S
N257 C260 1.350 . S
N258 S256 1.610 . S
N258 C259 1.351 . S
C259 C253 1.428 . S
C259 N258 1.351 . S
C259 C260 1.434 . S
C260 C251 1.429 . S
C260 N257 1.350 . S
C260 C259 1.434 . S
C261 C262 1.369 . S
C261 C263 1.419 . S
C261 H265 0.930 . S
C262 C261 1.369 . S
C262 C271 1.429 . S
C263 C261 1.419 . S
C263 C264 1.363 . S
C263 H266 0.929 . S
C264 C263 1.363 . S
C264 C270 1.428 . S
H265 C261 0.930 . S
H266 C263 0.929 . S
S267 N268 1.613 . S
S267 N269 1.610 . S
N268 S267 1.613 . S
N268 C271 1.350 . S
N269 S267 1.610 . S
N269 C270 1.351 . S
C270 C264 1.428 . S
C270 N269 1.351 . S
C270 C271 1.434 . S
C271 C262 1.429 . S
C271 N268 1.350 . S
C271 C270 1.434 . S
C272 C273 1.369 1_554 S
C272 C274 1.419 1_554 S
C272 H276 0.930 . S
C273 C272 1.369 1_556 S
C273 C282 1.429 . S
C274 C272 1.419 1_556 S
C274 C275 1.363 . S
C274 H277 0.929 1_556 S
C275 C274 1.363 . S
C275 C281 1.428 . S
H276 C272 0.930 . S
H277 C274 0.929 1_554 S
S278 N279 1.613 . S
S278 N280 1.610 . S
N279 S278 1.613 . S
N279 C282 1.350 . S
N280 S278 1.610 . S
N280 C281 1.351 . S
C281 C275 1.428 . S
C281 N280 1.351 . S
C281 C282 1.434 . S
C282 C273 1.429 . S
C282 N279 1.350 . S
C282 C281 1.434 . S
C283 C284 1.369 . S
C283 C285 1.419 . S
C283 H287 0.930 . S
C284 C283 1.369 . S
C284 C293 1.429 . S
C285 C283 1.419 . S
C285 C286 1.363 . S
C285 H288 0.929 . S
C286 C285 1.363 . S
C286 C292 1.428 1_554 S
H287 C283 0.930 . S
H288 C285 0.929 . S
S289 N290 1.613 . S
S289 N291 1.610 . S
N290 S289 1.613 . S
N290 C293 1.350 1_556 S
N291 S289 1.610 . S
N291 C292 1.351 . S
C292 C286 1.428 1_556 S
C292 N291 1.351 . S
C292 C293 1.434 1_556 S
C293 C284 1.429 . S
C293 N290 1.350 1_554 S
C293 C292 1.434 1_554 S
C294 C295 1.369 . S
C294 C296 1.419 . S
C294 H298 0.930 . S
C295 C294 1.369 . S
C295 C304 1.429 1_556 S
C296 C294 1.419 . S
C296 C297 1.363 . S
C296 H299 0.929 . S
C297 C296 1.363 . S
C297 C303 1.428 . S
H298 C294 0.930 . S
H299 C296 0.929 . S
S300 N301 1.613 . S
S300 N302 1.610 . S
N301 S300 1.613 . S
N301 C304 1.350 . S
N302 S300 1.610 . S
N302 C303 1.351 1_554 S
C303 C297 1.428 . S
C303 N302 1.351 1_556 S
C303 C304 1.434 1_556 S
C304 C295 1.429 1_554 S
C304 N301 1.350 . S
C304 C303 1.434 1_554 S
C305 C306 1.369 . S
C305 C307 1.419 . S
C305 H309 0.930 . S
C306 C305 1.369 . S
C306 C315 1.429 1_554 S
C307 C305 1.419 . S
C307 C308 1.363 . S
C307 H310 0.929 . S
C308 C307 1.363 . S
C308 C314 1.428 . S
H309 C305 0.930 . S
H310 C307 0.929 . S
S311 N312 1.613 . S
S311 N313 1.610 . S
N312 S311 1.613 . S
N312 C315 1.350 . S
N313 S311 1.610 . S
N313 C314 1.351 1_556 S
C314 C308 1.428 . S
C314 N313 1.351 1_554 S
C314 C315 1.434 1_554 S
C315 C306 1.429 1_556 S
C315 N312 1.350 . S
C315 C314 1.434 1_556 S
C316 C317 1.382 . S
C316 C318 1.419 . S
C316 H320 0.930 . S
C317 C316 1.382 . S
C317 C326 1.415 1_655 S
C318 C316 1.419 . S
C318 C319 1.363 1_655 S
C318 H321 0.929 . S
C319 C318 1.363 1_455 S
C319 C325 1.428 . S
H320 C316 0.930 . S
H321 C318 0.929 . S
S322 N323 1.613 . S
S322 N324 1.610 . S
N323 S322 1.613 . S
N323 C326 1.350 . S
N324 S322 1.610 . S
N324 C325 1.351 . S
C325 C319 1.428 . S
C325 N324 1.351 . S
C325 C326 1.434 . S
C326 C317 1.415 1_455 S
C326 N323 1.350 . S
C326 C325 1.434 . S
C327 C328 1.369 1_565 S
C327 C329 1.419 . S
C327 H331 0.930 . S
C328 C327 1.369 1_545 S
C328 C337 1.429 . S
C329 C327 1.419 . S
C329 C330 1.377 . S
C329 H332 0.929 . S
C330 C329 1.377 . S
C330 C336 1.413 1_565 S
H331 C327 0.930 . S
H332 C329 0.929 . S
S333 N334 1.613 . S
S333 N335 1.610 . S
N334 S333 1.613 . S
N334 C337 1.350 . S
N335 S333 1.610 . S
N335 C336 1.351 . S
C336 C330 1.413 1_545 S
C336 N335 1.351 . S
C336 C337 1.434 . S
C337 C328 1.429 . S
C337 N334 1.350 . S
C337 C336 1.434 . S
C338 C339 1.369 . S
C338 C340 1.419 1_545 S
C338 H342 0.930 . S
C339 C338 1.369 . S
C339 C348 1.429 . S
C340 C338 1.419 1_565 S
C340 C341 1.363 . S
C340 H343 0.929 . S
C341 C340 1.363 . S
C341 C347 1.428 . S
H342 C338 0.930 . S
H343 C340 0.929 . S
S344 N345 1.606 1_564 S
S344 N346 1.617 1_554 S
N345 S344 1.606 1_546 S
N345 C348 1.350 . S
N346 S344 1.617 1_556 S
N346 C347 1.351 . S
C347 C341 1.428 . S
C347 N346 1.351 . S
C347 C348 1.434 1_565 S
C348 C339 1.429 . S
C348 N345 1.350 . S
C348 C347 1.434 1_545 S
C349 C350 1.369 . S
C349 C351 1.419 1_455 S
C349 H353 0.930 . S
C350 C349 1.369 . S
C350 C359 1.429 . S
C351 C349 1.419 1_655 S
C351 C352 1.363 . S
C351 H354 0.929 . S
C352 C351 1.363 . S
C352 C358 1.428 . S
H353 C349 0.930 . S
H354 C351 0.929 . S
S355 N356 1.613 1_656 S
S355 N357 1.610 1_556 S
N356 S355 1.613 1_454 S
N356 C359 1.350 . S
N357 S355 1.610 1_554 S
N357 C358 1.351 . S
C358 C352 1.428 . S
C358 N357 1.351 . S
C358 C359 1.434 1_655 S
C359 C350 1.429 . S
C359 N356 1.350 . S
C359 C358 1.434 1_455 S
C185 N173 1.829 . S
C187 N12 1.828 . S
C196 N35 1.832 . S
C198 N104 1.827 . S
C207 N58 1.834 . S
C209 N127 1.830 . S
C218 N150 1.834 . S
C220 N81 1.830 . S
C229 N25 1.609 . S
C231 C16 1.696 . S
C240 C39 1.702 . S
C242 N48 1.610 . S
C251 N71 1.603 . S
C253 C62 1.696 . S
C262 C85 1.694 . S
C264 N2 1.606 . S
C273 N163 1.614 1_556 S
C275 C108 1.700 . S
C284 C131 1.695 . S
C286 N94 1.604 1_554 S
C295 N117 1.603 1_556 S
C297 C154 1.696 . S
C306 N140 1.605 1_554 S
C308 C177 1.699 . S
C317 C53 1.810 . S
C319 C7 1.803 . S
C328 C76 1.803 . S
C330 C30 1.809 . S
C339 C145 1.801 . S
C341 C99 1.803 . S
C350 C168 1.802 . S
C352 C122 1.803 . S
