# Generated by pormake.
# Topology wiv, (6)-cn, num edge types: 1
# Building blocks:
#     Node 0, Type 0, BuildingBlock: CUKXOW_clean_sbu_0, # of connection points: 6
#     Node 1, Type 0, BuildingBlock: CUKXOW_clean_sbu_0, # of connection points: 6
#     Node 2, Type 0, BuildingBlock: CUKXOW_clean_sbu_0, # of connection points: 6
#     Node 3, Type 0, BuildingBlock: CUKXOW_clean_sbu_0, # of connection points: 6
#     Node 4, Type 0, BuildingBlock: CUKXOW_clean_sbu_0, # of connection points: 6
#     Node 5, Type 0, BuildingBlock: CUKXOW_clean_sbu_0, # of connection points: 6
#     Node 6, Type 0, BuildingBlock: CUKXOW_clean_sbu_0, # of connection points: 6
#     Node 7, Type 0, BuildingBlock: CUKXOW_clean_sbu_0, # of connection points: 6
#     Node 8, Type 0, BuildingBlock: CUKXOW_clean_sbu_0, # of connection points: 6
#     Node 9, Type 0, BuildingBlock: CUKXOW_clean_sbu_0, # of connection points: 6
#     Node 10, Type 0, BuildingBlock: CUKXOW_clean_sbu_0, # of connection points: 6
#     Node 11, Type 0, BuildingBlock: CUKXOW_clean_sbu_0, # of connection points: 6
#     Node 12, Type 0, BuildingBlock: CUKXOW_clean_sbu_0, # of connection points: 6
#     Node 13, Type 0, BuildingBlock: CUKXOW_clean_sbu_0, # of connection points: 6
#     Node 14, Type 0, BuildingBlock: CUKXOW_clean_sbu_0, # of connection points: 6
#     Node 15, Type 0, BuildingBlock: CUKXOW_clean_sbu_0, # of connection points: 6
#     Edge 16, Type (0, 0), BuildingBlock: UVAHIK_clean_linker_0, # of connection points: 2
#     Edge 17, Type (0, 0), BuildingBlock: UVAHIK_clean_linker_0, # of connection points: 2
#     Edge 18, Type (0, 0), BuildingBlock: UVAHIK_clean_linker_0, # of connection points: 2
#     Edge 19, Type (0, 0), BuildingBlock: UVAHIK_clean_linker_0, # of connection points: 2
#     Edge 20, Type (0, 0), BuildingBlock: UVAHIK_clean_linker_0, # of connection points: 2
#     Edge 21, Type (0, 0), BuildingBlock: UVAHIK_clean_linker_0, # of connection points: 2
#     Edge 22, Type (0, 0), BuildingBlock: UVAHIK_clean_linker_0, # of connection points: 2
#     Edge 23, Type (0, 0), BuildingBlock: UVAHIK_clean_linker_0, # of connection points: 2
#     Edge 24, Type (0, 0), BuildingBlock: UVAHIK_clean_linker_0, # of connection points: 2
#     Edge 25, Type (0, 0), BuildingBlock: UVAHIK_clean_linker_0, # of connection points: 2
#     Edge 26, Type (0, 0), BuildingBlock: UVAHIK_clean_linker_0, # of connection points: 2
#     Edge 27, Type (0, 0), BuildingBlock: UVAHIK_clean_linker_0, # of connection points: 2
#     Edge 28, Type (0, 0), BuildingBlock: UVAHIK_clean_linker_0, # of connection points: 2
#     Edge 29, Type (0, 0), BuildingBlock: UVAHIK_clean_linker_0, # of connection points: 2
#     Edge 30, Type (0, 0), BuildingBlock: UVAHIK_clean_linker_0, # of connection points: 2
#     Edge 31, Type (0, 0), BuildingBlock: UVAHIK_clean_linker_0, # of connection points: 2
#     Edge 32, Type (0, 0), BuildingBlock: UVAHIK_clean_linker_0, # of connection points: 2
#     Edge 33, Type (0, 0), BuildingBlock: UVAHIK_clean_linker_0, # of connection points: 2
#     Edge 34, Type (0, 0), BuildingBlock: UVAHIK_clean_linker_0, # of connection points: 2
#     Edge 35, Type (0, 0), BuildingBlock: UVAHIK_clean_linker_0, # of connection points: 2
#     Edge 36, Type (0, 0), BuildingBlock: UVAHIK_clean_linker_0, # of connection points: 2
#     Edge 37, Type (0, 0), BuildingBlock: UVAHIK_clean_linker_0, # of connection points: 2
#     Edge 38, Type (0, 0), BuildingBlock: UVAHIK_clean_linker_0, # of connection points: 2
#     Edge 39, Type (0, 0), BuildingBlock: UVAHIK_clean_linker_0, # of connection points: 2
#     Edge 40, Type (0, 0), BuildingBlock: UVAHIK_clean_linker_0, # of connection points: 2
#     Edge 41, Type (0, 0), BuildingBlock: UVAHIK_clean_linker_0, # of connection points: 2
#     Edge 42, Type (0, 0), BuildingBlock: UVAHIK_clean_linker_0, # of connection points: 2
#     Edge 43, Type (0, 0), BuildingBlock: UVAHIK_clean_linker_0, # of connection points: 2
#     Edge 44, Type (0, 0), BuildingBlock: UVAHIK_clean_linker_0, # of connection points: 2
#     Edge 45, Type (0, 0), BuildingBlock: UVAHIK_clean_linker_0, # of connection points: 2
#     Edge 46, Type (0, 0), BuildingBlock: UVAHIK_clean_linker_0, # of connection points: 2
#     Edge 47, Type (0, 0), BuildingBlock: UVAHIK_clean_linker_0, # of connection points: 2
#     Edge 48, Type (0, 0), BuildingBlock: UVAHIK_clean_linker_0, # of connection points: 2
#     Edge 49, Type (0, 0), BuildingBlock: UVAHIK_clean_linker_0, # of connection points: 2
#     Edge 50, Type (0, 0), BuildingBlock: UVAHIK_clean_linker_0, # of connection points: 2
#     Edge 51, Type (0, 0), BuildingBlock: UVAHIK_clean_linker_0, # of connection points: 2
#     Edge 52, Type (0, 0), BuildingBlock: UVAHIK_clean_linker_0, # of connection points: 2
#     Edge 53, Type (0, 0), BuildingBlock: UVAHIK_clean_linker_0, # of connection points: 2
#     Edge 54, Type (0, 0), BuildingBlock: UVAHIK_clean_linker_0, # of connection points: 2
#     Edge 55, Type (0, 0), BuildingBlock: UVAHIK_clean_linker_0, # of connection points: 2
#     Edge 56, Type (0, 0), BuildingBlock: UVAHIK_clean_linker_0, # of connection points: 2
#     Edge 57, Type (0, 0), BuildingBlock: UVAHIK_clean_linker_0, # of connection points: 2
#     Edge 58, Type (0, 0), BuildingBlock: UVAHIK_clean_linker_0, # of connection points: 2
#     Edge 59, Type (0, 0), BuildingBlock: UVAHIK_clean_linker_0, # of connection points: 2
#     Edge 60, Type (0, 0), BuildingBlock: UVAHIK_clean_linker_0, # of connection points: 2
#     Edge 61, Type (0, 0), BuildingBlock: UVAHIK_clean_linker_0, # of connection points: 2
#     Edge 62, Type (0, 0), BuildingBlock: UVAHIK_clean_linker_0, # of connection points: 2
#     Edge 63, Type (0, 0), BuildingBlock: UVAHIK_clean_linker_0, # of connection points: 2
# Relax obj value: 0.073
# Max RMSD: 0.156
# Mean RMSD: 0.156
data_MOF--net-wiv--node1-CUKXOW_clean_sbu_0--edge1-UVAHIK_clean_linker_0
_symmetry_space_group_name_H-M    P1
_symmetry_Int_Tables_number       1
_symmetry_cell_setting            triclinic
loop_
_symmetry_equiv_pos_as_xyz
'x, y, z'
_cell_length_a     81.942043
_cell_length_b     81.947113
_cell_length_c     18.840109
_cell_angle_alpha  90.031977
_cell_angle_beta   89.928395
_cell_angle_gamma 89.829467
loop_
_atom_site_label
_atom_site_type_symbol
_atom_site_fract_x
_atom_site_fract_y
_atom_site_fract_z
_atom_type_partial_charge
Tb0 Tb 0.38952 0.12306 0.17673 0.0
C1 C 0.37154 0.15652 0.1488 0.0
Tb2 Tb 0.35112 0.12363 0.13747 0.0
O3 O 0.39846 0.12317 0.06545 0.0
O4 O 0.37415 0.12348 0.08808 0.0
O5 O 0.38402 0.14902 0.18028 0.0
C6 C 0.32295 0.12429 0.06761 0.0
O7 O 0.35888 0.14877 0.12011 0.0
C8 C 0.35665 0.1233 0.27697 0.0
C9 C 0.36871 0.09025 0.17017 0.0
O10 O 0.32742 0.13473 0.1156 0.0
O11 O 0.33439 0.11345 0.05862 0.0
O12 O 0.34217 0.12339 0.24873 0.0
O13 O 0.36652 0.12327 0.22601 0.0
O14 O 0.35637 0.0976 0.13721 0.0
O15 O 0.38138 0.09818 0.19782 0.0
C16 C 0.41807 0.12148 0.24363 0.0
O17 O 0.4124 0.11058 0.20022 0.0
O18 O 0.40759 0.13335 0.24988 0.0
C19 C 0.38401 0.12339 0.03712 0.0
Tb20 Tb 0.12313 0.63698 0.9189 0.0
C21 C 0.0902 0.61854 0.89149 0.0
Tb22 Tb 0.12385 0.59957 0.88341 0.0
O23 O 0.12419 0.64632 0.80864 0.0
O24 O 0.12457 0.62187 0.82989 0.0
O25 O 0.09737 0.63076 0.92559 0.0
C26 C 0.12069 0.56945 0.83198 0.0
O27 O 0.09849 0.60621 0.86287 0.0
C28 C 0.12769 0.6075 1.01829 0.0
C29 C 0.15691 0.61858 0.89468 0.0
O30 O 0.11289 0.57532 0.88633 0.0
O31 O 0.13025 0.58059 0.80614 0.0
O32 O 0.13352 0.59436 0.98929 0.0
O33 O 0.1188 0.61466 0.97337 0.0
O34 O 0.14928 0.60576 0.86728 0.0
O35 O 0.14917 0.6312 0.92399 0.0
C36 C 0.12272 0.66511 0.98959 0.0
O37 O 0.13254 0.65299 1.00249 0.0
O38 O 0.11317 0.66135 0.93718 0.0
C39 C 0.12474 0.63193 0.77971 0.0
Tb40 Tb 0.59975 0.8647 0.18486 0.0
C41 C 0.6192 0.83185 0.17154 0.0
Tb42 Tb 0.63711 0.86585 0.14914 0.0
O43 O 0.59461 0.85507 0.07893 0.0
O44 O 0.61473 0.86999 0.09472 0.0
O45 O 0.6063 0.83927 0.19974 0.0
C46 C 0.66525 0.86637 0.07846 0.0
O47 O 0.63167 0.8398 0.14253 0.0
C48 C 0.63213 0.86403 0.28837 0.0
C49 C 0.6181 0.89856 0.17673 0.0
O50 O 0.65326 0.85643 0.06583 0.0
O51 O 0.66135 0.87599 0.13057 0.0
O52 O 0.64649 0.86478 0.25933 0.0
O53 O 0.62205 0.86417 0.23828 0.0
O54 O 0.63038 0.89151 0.14214 0.0
O55 O 0.606 0.89011 0.20589 0.0
C56 C 0.56957 0.86762 0.23622 0.0
O57 O 0.57534 0.87542 0.18181 0.0
O58 O 0.58084 0.85819 0.26221 0.0
C59 C 0.60764 0.86106 0.04984 0.0
Tb60 Tb 0.86586 0.35091 0.91709 0.0
C61 C 0.89901 0.36941 0.89497 0.0
Tb62 Tb 0.86633 0.38929 0.87772 0.0
O63 O 0.86474 0.34196 0.80599 0.0
O64 O 0.86614 0.36628 0.82837 0.0
O65 O 0.89123 0.35801 0.93203 0.0
C66 C 0.8681 0.41803 0.81215 0.0
O67 O 0.89129 0.38109 0.85913 0.0
C68 C 0.86585 0.3837 1.01738 0.0
C69 C 0.83261 0.37046 0.89477 0.0
O70 O 0.87932 0.41173 0.85236 0.0
O71 O 0.85585 0.40802 0.80803 0.0
O72 O 0.86524 0.39815 0.98909 0.0
O73 O 0.86668 0.37392 0.96629 0.0
O74 O 0.84042 0.38358 0.87054 0.0
O75 O 0.83999 0.35715 0.92003 0.0
C76 C 0.8663 0.32274 0.98739 0.0
O77 O 0.8554 0.33417 0.99539 0.0
O78 O 0.87692 0.32723 0.94009 0.0
C79 C 0.86537 0.35641 0.77756 0.0
Tb80 Tb 0.3892 0.36521 0.13612 0.0
C81 C 0.37016 0.33216 0.1481 0.0
Tb82 Tb 0.35175 0.36594 0.17154 0.0
O83 O 0.3945 0.35559 0.24189 0.0
O84 O 0.37407 0.37023 0.22621 0.0
O85 O 0.38297 0.33978 0.12057 0.0
C86 C 0.32348 0.3665 0.24141 0.0
O87 O 0.35752 0.3399 0.17722 0.0
C88 C 0.35689 0.36428 1.03237 0.0
C89 C 0.37028 0.39888 0.14469 0.0
O90 O 0.33554 0.3566 0.25468 0.0
O91 O 0.3274 0.37602 0.18913 0.0
O92 O 0.34248 0.36483 0.06114 0.0
O93 O 0.36691 0.36451 0.08268 0.0
O94 O 0.358 0.39169 0.1784 0.0
O95 O 0.38266 0.39062 0.1163 0.0
C96 C 0.41919 0.36797 0.08259 0.0
O97 O 0.41366 0.37582 0.13748 0.0
O98 O 0.4078 0.35861 0.05753 0.0
C99 C 0.38132 0.36135 0.27095 0.0
Tb100 Tb 0.36562 0.63766 0.89552 0.0
C101 C 0.39859 0.61974 0.93168 0.0
Tb102 Tb 0.36574 0.59936 0.93529 0.0
O103 O 0.36509 0.64683 1.00641 0.0
O104 O 0.36505 0.62242 0.98458 0.0
O105 O 0.39156 0.63171 0.89499 0.0
C106 C 0.36752 0.57064 1.00062 0.0
O107 O 0.39029 0.60756 0.96112 0.0
C108 C 0.36633 0.60487 0.79543 0.0
C109 C 0.33257 0.61736 0.90408 0.0
O110 O 0.37877 0.57694 0.9607 0.0
O111 O 0.35515 0.58061 1.00437 0.0
O112 O 0.36602 0.59043 0.82382 0.0
O113 O 0.36633 0.61469 0.84642 0.0
O114 O 0.33983 0.60499 0.93732 0.0
O115 O 0.34058 0.62985 0.87526 0.0
C116 C 0.36556 0.66557 0.82332 0.0
O117 O 0.35327 0.65972 0.85848 0.0
O118 O 0.37791 0.65568 0.82855 0.0
C119 C 0.36488 0.63239 0.03515 0.0
Tb120 Tb 0.60065 0.62319 0.13192 0.0
C121 C 0.61961 0.65629 0.14422 0.0
Tb122 Tb 0.63803 0.62254 0.16694 0.0
O123 O 0.59536 0.63294 0.23764 0.0
O124 O 0.61574 0.61824 0.22189 0.0
O125 O 0.60678 0.64871 0.11668 0.0
C126 C 0.66616 0.62233 0.23727 0.0
O127 O 0.63222 0.64851 0.17309 0.0
C128 C 0.63297 0.62411 1.02777 0.0
C129 C 0.6196 0.58953 0.14172 0.0
O130 O 0.65403 0.63217 0.2499 0.0
O131 O 0.66241 0.61264 0.18529 0.0
O132 O 0.64736 0.62358 0.05658 0.0
O133 O 0.62291 0.62388 0.07803 0.0
O134 O 0.63182 0.59685 0.17514 0.0
O135 O 0.60724 0.5977 0.1128 0.0
C136 C 0.57055 0.62007 0.08045 0.0
O137 O 0.57631 0.61244 0.13538 0.0
O138 O 0.58179 0.62942 0.05401 0.0
C139 C 0.60851 0.62715 0.26666 0.0
Tb140 Tb 0.62378 0.35143 0.88988 0.0
C141 C 0.59054 0.3691 0.92524 0.0
Tb142 Tb 0.62339 0.3898 0.92955 0.0
O143 O 0.62364 0.34244 1.00102 0.0
O144 O 0.62375 0.3668 0.9786 0.0
O145 O 0.59773 0.35683 0.89086 0.0
C146 C 0.62177 0.41841 0.99601 0.0
O147 O 0.59864 0.38163 0.95304 0.0
C148 C 0.62338 0.38428 0.78982 0.0
C149 C 0.65677 0.37184 0.8998 0.0
O150 O 0.61082 0.41262 0.95322 0.0
O151 O 0.63373 0.40801 1.00191 0.0
O152 O 0.62328 0.39873 0.81827 0.0
O153 O 0.6235 0.37443 0.84073 0.0
O154 O 0.64935 0.3843 0.93193 0.0
O155 O 0.64892 0.35919 0.87143 0.0
C156 C 0.62435 0.32324 0.81978 0.0
O157 O 0.63494 0.32779 0.86697 0.0
O158 O 0.61341 0.33461 0.81173 0.0
C159 C 0.62372 0.35692 1.02945 0.0
Tb160 Tb 0.88963 0.62302 0.68512 0.0
C161 C 0.8721 0.65675 0.65834 0.0
Tb162 Tb 0.85127 0.6241 0.64604 0.0
O163 O 0.89855 0.623 0.57378 0.0
O164 O 0.87426 0.62365 0.59648 0.0
O165 O 0.88444 0.64902 0.68985 0.0
C166 C 0.82322 0.62494 0.5753 0.0
O167 O 0.85934 0.6492 0.6294 0.0
C168 C 0.85676 0.62373 0.78548 0.0
C169 C 0.86844 0.59048 0.67937 0.0
O170 O 0.82766 0.63534 0.62351 0.0
O171 O 0.83462 0.61404 0.56665 0.0
O172 O 0.84229 0.62399 0.75721 0.0
O173 O 0.86665 0.62357 0.73459 0.0
O174 O 0.85616 0.59796 0.6464 0.0
O175 O 0.88117 0.5983 0.70692 0.0
C176 C 0.91831 0.62086 0.75056 0.0
O177 O 0.91205 0.60985 0.70928 0.0
O178 O 0.90831 0.63318 0.75566 0.0
C179 C 0.8841 0.62343 0.54548 0.0
Tb180 Tb 0.62225 0.13704 0.41776 0.0
C181 C 0.58898 0.11903 0.39166 0.0
Tb182 Tb 0.62235 0.09964 0.38162 0.0
O183 O 0.62358 0.14643 0.30757 0.0
O184 O 0.62341 0.12197 0.32844 0.0
O185 O 0.59645 0.13109 0.42559 0.0
C186 C 0.61916 0.06986 0.32661 0.0
O187 O 0.59701 0.10661 0.36228 0.0
C188 C 0.62621 0.1073 0.51683 0.0
C189 C 0.65574 0.11813 0.39495 0.0
O190 O 0.61111 0.07547 0.38083 0.0
O191 O 0.62898 0.08103 0.30319 0.0
O192 O 0.63165 0.09398 0.48778 0.0
O193 O 0.61758 0.11473 0.47179 0.0
O194 O 0.64796 0.10546 0.36705 0.0
O195 O 0.64816 0.13085 0.42418 0.0
C196 C 0.622 0.16525 0.48781 0.0
O197 O 0.61226 0.16138 0.43624 0.0
O198 O 0.63194 0.15319 0.50024 0.0
C199 C 0.62383 0.13206 0.27837 0.0
Tb200 Tb 0.09842 0.36467 0.68078 0.0
C201 C 0.1167 0.33147 0.65088 0.0
Tb202 Tb 0.13683 0.36463 0.64094 0.0
O203 O 0.0895 0.36472 0.56953 0.0
O204 O 0.1138 0.36475 0.59191 0.0
O205 O 0.10416 0.33877 0.68294 0.0
C206 C 0.16508 0.36422 0.57109 0.0
O207 O 0.1293 0.33942 0.62258 0.0
C208 C 0.13131 0.36458 0.78052 0.0
C209 C 0.11894 0.39768 0.67719 0.0
O210 O 0.16062 0.35371 0.6188 0.0
O211 O 0.15358 0.375 0.56233 0.0
O212 O 0.14579 0.36482 0.75209 0.0
O213 O 0.12144 0.36446 0.72966 0.0
O214 O 0.13127 0.39063 0.64264 0.0
O215 O 0.10642 0.38945 0.70454 0.0
C216 C 0.06981 0.36598 0.74761 0.0
O217 O 0.07545 0.37697 0.70461 0.0
O218 O 0.08036 0.35415 0.7535 0.0
C219 C 0.10395 0.36476 0.54103 0.0
Tb220 Tb 0.36439 0.85162 0.42221 0.0
C221 C 0.39752 0.86916 0.38574 0.0
Tb222 Tb 0.36479 0.88991 0.38246 0.0
O223 O 0.36394 0.84245 0.31133 0.0
O224 O 0.36407 0.86686 0.33318 0.0
O225 O 0.39039 0.85722 0.42211 0.0
C226 C 0.36638 0.91859 0.3168 0.0
O227 O 0.38933 0.8815 0.35669 0.0
C228 C 0.36524 0.88441 0.52233 0.0
C229 C 0.33145 0.87229 0.41295 0.0
O230 O 0.37768 0.91233 0.35665 0.0
O231 O 0.35408 0.9086 0.31329 0.0
O232 O 0.36514 0.89885 0.49391 0.0
O233 O 0.36511 0.87459 0.47136 0.0
O234 O 0.33887 0.88458 0.38013 0.0
O235 O 0.3393 0.85965 0.44172 0.0
C236 C 0.36439 0.82371 0.49444 0.0
O237 O 0.35221 0.82942 0.45804 0.0
O238 O 0.37659 0.83377 0.49048 0.0
C239 C 0.36388 0.8569 0.2826 0.0
Tb240 Tb 0.88938 0.8663 0.63206 0.0
C241 C 0.872 0.83246 0.65826 0.0
Tb242 Tb 0.85102 0.86507 0.67189 0.0
O243 O 0.89834 0.86618 0.74326 0.0
O244 O 0.87405 0.86522 0.72088 0.0
O245 O 0.88434 0.84027 0.62738 0.0
C246 C 0.82291 0.86414 0.74264 0.0
O247 O 0.85916 0.83993 0.68734 0.0
C248 C 0.85649 0.86595 0.53231 0.0
C249 C 0.86811 0.89884 0.64193 0.0
O250 O 0.82745 0.8538 0.69415 0.0
O251 O 0.83425 0.87501 0.75158 0.0
O252 O 0.84202 0.86551 0.5608 0.0
O253 O 0.86637 0.86603 0.58312 0.0
O254 O 0.85591 0.89114 0.67427 0.0
O255 O 0.88091 0.89122 0.61318 0.0
C256 C 0.9179 0.86766 0.56446 0.0
O257 O 0.91227 0.87863 0.60787 0.0
O258 O 0.90737 0.85589 0.55846 0.0
C259 C 0.8839 0.86552 0.77175 0.0
Tb260 Tb 0.86459 0.13702 0.39319 0.0
C261 C 0.89774 0.11914 0.42813 0.0
Tb262 Tb 0.86478 0.09864 0.4329 0.0
O263 O 0.86481 0.14602 0.50435 0.0
O264 O 0.86452 0.12167 0.48193 0.0
O265 O 0.8906 0.13142 0.39376 0.0
C266 C 0.8659 0.07005 0.49965 0.0
O267 O 0.88958 0.10666 0.45614 0.0
C268 C 0.86487 0.10413 0.29315 0.0
C269 C 0.8315 0.11678 0.40327 0.0
O270 O 0.87704 0.07569 0.45732 0.0
O271 O 0.85405 0.08059 0.50498 0.0
O272 O 0.86492 0.08969 0.32158 0.0
O273 O 0.86475 0.11399 0.34409 0.0
O274 O 0.83885 0.10429 0.43527 0.0
O275 O 0.8394 0.12941 0.37498 0.0
C276 C 0.86422 0.16515 0.32271 0.0
O277 O 0.85351 0.16065 0.36956 0.0
O278 O 0.87518 0.15376 0.31526 0.0
C279 C 0.86464 0.13156 0.53278 0.0
Tb280 Tb 0.09922 0.12262 0.6332 0.0
C281 C 0.11817 0.15577 0.64404 0.0
Tb282 Tb 0.13666 0.12209 0.66799 0.0
O283 O 0.09392 0.13245 0.73879 0.0
O284 O 0.11438 0.11785 0.72314 0.0
O285 O 0.10536 0.14808 0.61702 0.0
C286 C 0.16491 0.12178 0.73752 0.0
O287 O 0.13084 0.14811 0.67313 0.0
C288 C 0.13149 0.12344 0.52885 0.0
C289 C 0.11817 0.089 0.64393 0.0
O290 O 0.15284 0.13168 0.75048 0.0
O291 O 0.16103 0.1121 0.68569 0.0
O292 O 0.14591 0.12299 0.55743 0.0
O293 O 0.12148 0.12326 0.57929 0.0
O294 O 0.13043 0.09639 0.67686 0.0
O295 O 0.10577 0.0971 0.61498 0.0
C296 C 0.06923 0.11973 0.58017 0.0
O297 O 0.07475 0.11204 0.63544 0.0
O298 O 0.08063 0.12898 0.55443 0.0
C299 C 0.10713 0.12678 0.76778 0.0
Tb300 Tb 0.12316 0.85079 0.39592 0.0
C301 C 0.08932 0.868 0.42543 0.0
Tb302 Tb 0.12181 0.88916 0.43549 0.0
O303 O 0.12266 0.84181 0.50702 0.0
O304 O 0.12206 0.86615 0.4846 0.0
O305 O 0.09705 0.85575 0.39327 0.0
C306 C 0.11983 0.9177 0.50247 0.0
O307 O 0.09691 0.88075 0.45421 0.0
C308 C 0.1228 0.88367 0.29584 0.0
C309 C 0.15571 0.87168 0.41032 0.0
O310 O 0.10909 0.91195 0.45854 0.0
O311 O 0.13174 0.90729 0.50927 0.0
O312 O 0.12216 0.89811 0.32429 0.0
O313 O 0.12297 0.87381 0.34674 0.0
O314 O 0.14783 0.88404 0.44105 0.0
O315 O 0.14831 0.85887 0.38101 0.0
C316 C 0.12426 0.82268 0.32536 0.0
O317 O 0.13454 0.8272 0.37389 0.0
O318 O 0.11335 0.83403 0.31626 0.0
C319 C 0.12216 0.85627 0.53544 0.0
C320 C 0.35311 0.94222 0.25528 0.0
C321 C 0.36686 0.93526 0.28789 0.0
C322 C 0.35317 0.9587 0.23568 0.0
C323 C 0.37304 -0.00299 0.28606 0.0
H324 H 0.35522 0.0141 0.11053 0.0
C325 C 0.38165 0.06396 0.20782 0.0
C326 C 0.36825 0.07229 0.17839 0.0
C327 C 0.38121 0.04709 0.21713 0.0
C328 C 0.36007 0.00951 0.16012 0.0
H329 H 0.39169 0.93965 0.32229 0.0
H330 H 0.39186 0.96827 0.28759 0.0
H331 H 0.35503 0.98465 0.13217 0.0
H332 H 0.34393 0.06929 0.13469 0.0
H333 H 0.34311 0.03979 0.15202 0.0
H334 H 0.37796 0.02172 0.31466 0.0
C335 C 0.38094 0.96117 0.27827 0.0
C336 C 0.35998 0.99267 0.1724 0.0
C337 C 0.38088 0.94477 0.29773 0.0
C338 C 0.35447 0.06328 0.15755 0.0
C339 C 0.35402 0.04635 0.16709 0.0
C340 C 0.37308 0.01378 0.27395 0.0
C341 C 0.36696 0.96842 0.24865 0.0
C342 C 0.36663 0.98625 0.23523 0.0
C343 C 0.36734 0.0381 0.19757 0.0
C344 C 0.36676 0.02024 0.21059 0.0
H345 H 0.34215 0.9351 0.24718 0.0
H346 H 0.34221 0.96398 0.21312 0.0
H347 H 0.3779 0.99247 0.33574 0.0
H348 H 0.39254 0.07044 0.22385 0.0
H349 H 0.3918 0.04106 0.23951 0.0
C350 C 0.94198 0.63361 0.81338 0.0
C351 C 0.93498 0.6201 0.77933 0.0
C352 C 0.95846 0.63332 0.83284 0.0
C353 C -0.00324 0.61339 0.78024 0.0
H354 H 0.0139 0.63058 0.95674 0.0
C355 C 0.0641 0.60519 0.85485 0.0
C356 C 0.07219 0.6186 0.88492 0.0
C357 C 0.04718 0.60537 0.84661 0.0
C358 C 0.0093 0.62589 0.90691 0.0
H359 H 0.93933 0.59543 0.74222 0.0
H360 H 0.96795 0.59484 0.77672 0.0
H361 H 0.98443 0.63086 0.9357 0.0
H362 H 0.06877 0.64267 0.93091 0.0
H363 H 0.03923 0.64307 0.91546 0.0
H364 H 0.02147 0.60858 0.75074 0.0
C365 C 0.96088 0.60577 0.78726 0.0
C366 C 0.99244 0.62603 0.89496 0.0
C367 C 0.94447 0.60606 0.76791 0.0
C368 C 0.06293 0.63212 0.90759 0.0
C369 C 0.04598 0.63232 0.89911 0.0
C370 C 0.01355 0.61329 0.79203 0.0
C371 C 0.96817 0.61952 0.81835 0.0
C372 C 0.986 0.61966 0.83169 0.0
C373 C 0.03793 0.619 0.86791 0.0
C374 C 0.02003 0.61942 0.85567 0.0
H375 H 0.93488 0.64458 0.82271 0.0
H376 H 0.96377 0.64412 0.85653 0.0
H377 H 0.9922 0.60874 0.73024 0.0
H378 H 0.0708 0.59451 0.83737 0.0
H379 H 0.04133 0.59479 0.82358 0.0
C380 C 0.62997 0.92611 0.15051 0.0
C381 C 0.6178 0.91658 0.18272 0.0
C382 C 0.62977 0.9431 0.15719 0.0
C383 C 0.60278 0.97787 0.20508 0.0
H384 H 0.64356 2e-05 0.24395 0.0
C385 C 0.60622 0.04238 0.32586 0.0
C386 C 0.61806 0.05308 0.29914 0.0
C387 C 0.60575 0.02618 0.30303 0.0
C388 C 0.63211 0.99405 0.23208 0.0
H389 H 0.59579 0.9175 0.24693 0.0
H390 H 0.59562 0.94702 0.2595 0.0
H391 H 0.64367 0.97076 0.22061 0.0
H392 H 0.63848 0.05546 0.22673 0.0
H393 H 0.63775 0.02702 0.18707 0.0
H394 H 0.5912 0.00113 0.21855 0.0
C395 C 0.60518 0.94141 0.22804 0.0
C396 C 0.63216 0.97728 0.21864 0.0
C397 C 0.60535 0.92444 0.22125 0.0
C398 C 0.62924 0.04742 0.24818 0.0
C399 C 0.62886 0.03116 0.22578 0.0
C400 C 0.60272 -0.00539 0.2189 0.0
C401 C 0.61741 0.95094 0.19631 0.0
C402 C 0.61747 0.96895 0.20589 0.0
C403 C 0.6172 0.02034 0.25346 0.0
C404 C 0.61736 0.00284 0.2334 0.0
H405 H 0.63971 0.92047 0.12015 0.0
H406 H 0.63927 0.95009 0.13137 0.0
H407 H 0.59129 0.97189 0.19406 0.0
H408 H 0.59747 0.04647 0.36521 0.0
H409 H 0.59672 0.01809 0.32583 0.0
C410 C 0.92581 0.38174 0.86049 0.0
C411 C 0.91708 0.36899 0.89267 0.0
C412 C 0.94282 0.38123 0.85683 0.0
C413 C 0.97731 0.35266 0.85627 0.0
H414 H 0.00282 0.39189 0.88514 0.0
C415 C 0.04744 0.35326 0.81928 0.0
C416 C 0.0534 0.36645 0.77957 0.0
C417 C 0.03135 0.35339 0.84447 0.0
C418 C -0.00413 0.38084 0.87663 0.0
H419 H 0.91947 0.34573 0.94689 0.0
H420 H 0.94922 0.34486 0.94022 0.0
H421 H 0.97349 0.39243 0.90723 0.0
H422 H 0.04751 0.39027 0.73658 0.0
H423 H 0.01952 0.39046 0.77967 0.0
H424 H -0.0004 0.34119 0.82369 0.0
C425 C 0.94283 0.35521 0.9176 0.0
C426 C 0.97907 0.38115 0.88928 0.0
C427 C 0.9258 0.35576 0.92167 0.0
C428 C 0.04322 0.37994 0.76719 0.0
C429 C 0.02721 0.38009 0.79234 0.0
C430 C 0.99412 0.35236 0.84337 0.0
C431 C 0.95152 0.36793 0.88496 0.0
C432 C 0.96956 0.36716 0.87793 0.0
C433 C 0.021 0.36674 0.83054 0.0
C434 C 0.00353 0.36654 0.85203 0.0
H435 H 0.91952 0.39213 0.83766 0.0
H436 H 0.94915 0.39112 0.83048 0.0
H437 H 0.97029 0.34172 0.84644 0.0
H438 H 0.05508 0.34272 0.82962 0.0
H439 H 0.02698 0.34299 0.87436 0.0
C440 C 0.35653 0.42609 0.15984 0.0
C441 C 0.37018 0.41689 0.13821 0.0
C442 C 0.35627 0.44303 0.15115 0.0
C443 C 0.37552 0.47548 0.04479 0.0
H444 H 0.35703 0.50462 0.18614 0.0
C445 C 0.38236 0.54458 1.01982 0.0
C446 C 0.3682 0.55398 1.0296 0.0
C447 C 0.38266 0.52819 0.03954 0.0
C448 C 0.36211 0.4966 0.14604 0.0
H449 H 0.39446 0.41839 0.09241 0.0
H450 H 0.39407 0.44786 0.0783 0.0
H451 H 0.35748 0.47518 0.20803 0.0
H452 H 0.34348 0.55395 0.07043 0.0
H453 H 0.34395 0.52509 0.10492 0.0
H454 H 0.38017 0.49679 0.98283 0.0
C455 C 0.38343 0.44196 0.10064 0.0
C456 C 0.36236 0.47976 0.15847 0.0
C457 C 0.38367 0.42505 0.10906 0.0
C458 C 0.35454 0.54692 0.06236 0.0
C459 C 0.35484 0.53045 0.08221 0.0
C460 C 0.37532 0.49225 0.03254 0.0
C461 C 0.36966 0.45114 0.12078 0.0
C462 C 0.36916 0.46903 0.10808 0.0
C463 C 0.36879 0.52083 0.06937 0.0
C464 C 0.36873 0.50301 0.08315 0.0
H465 H 0.34591 0.42019 0.18241 0.0
H466 H 0.34541 0.44972 0.1666 0.0
H467 H 0.38049 0.46755 1.00411 0.0
H468 H 0.39311 0.54977 0.99517 0.0
H469 H 0.39369 0.52118 1.03029 0.0
C470 C 0.54271 0.60819 0.08827 0.0
C471 C 0.55348 0.61927 0.05645 0.0
C472 C 0.52621 0.60822 0.07019 0.0
C473 C 0.49641 0.62261 0.93607 0.0
H474 H 0.46592 0.61745 0.09201 0.0
C475 C 0.42627 0.63187 0.90879 0.0
C476 C 0.4165 0.62005 0.94219 0.0
C477 C 0.44317 0.63207 0.91973 0.0
C478 C 0.47427 0.61878 0.0478 0.0
H479 H 0.55568 0.63876 0.97944 0.0
H480 H 0.52668 0.63903 0.94845 0.0
H481 H 0.49509 0.61699 0.11543 0.0
H482 H 0.41691 0.59908 1.01275 0.0
H483 H 0.44621 0.59949 1.03153 0.0
H484 H 0.47542 0.62453 0.86865 0.0
C485 C 0.53101 0.63018 0.98676 0.0
C486 C 0.491 0.61846 0.06115 0.0
C487 C 0.54758 0.63008 1.00465 0.0
C488 C 0.424 0.60841 0.98631 0.0
C489 C 0.44082 0.60868 0.99745 0.0
C490 C 0.47961 0.623 0.92274 0.0
C491 C 0.52009 0.61943 1.02026 0.0
C492 C 0.50229 0.62019 1.00542 0.0
C493 C 0.45058 0.62055 0.96465 0.0
C494 C 0.46839 0.6209 0.97844 0.0
H495 H 0.54699 0.59965 0.128 0.0
H496 H 0.51821 0.59953 0.09583 0.0
H497 H 0.50478 0.62386 0.89189 0.0
H498 H 0.4209 0.64099 0.87435 0.0
H499 H 0.45039 0.64142 0.89409 0.0
C500 C 0.60663 0.56308 0.10605 0.0
C501 C 0.61973 0.57148 0.13716 0.0
C502 C 0.60688 0.54607 0.10102 0.0
C503 C 0.63511 0.51118 0.0964 0.0
H504 H 0.59588 0.48595 0.12955 0.0
C505 C 0.63443 0.44104 0.06599 0.0
C506 C 0.6212 0.43488 1.0272 0.0
C507 C 0.63428 0.45722 0.08984 0.0
C508 C 0.60692 0.49284 0.11982 0.0
H509 H 0.64333 0.56852 0.188 0.0
H510 H 0.64371 0.53886 0.17924 0.0
H511 H 0.59556 0.51535 0.15018 0.0
H512 H 0.59726 0.44047 0.98475 0.0
H513 H 0.59703 0.46864 1.02558 0.0
H514 H 0.64637 0.48876 0.06442 0.0
C515 C 0.63331 0.54546 0.15829 0.0
C516 C 0.60673 0.50967 0.13156 0.0
C517 C 0.63304 0.56247 0.16355 0.0
C518 C 0.60762 0.44493 1.01464 0.0
C519 C 0.60745 0.46104 0.03846 0.0
C520 C 0.63529 0.49435 0.08449 0.0
C521 C 0.62026 0.53708 0.12679 0.0
C522 C 0.62075 0.51906 0.11896 0.0
C523 C 0.62086 0.46747 0.07543 0.0
C524 C 0.62113 0.48503 0.09499 0.0
H525 H 0.59618 0.56962 0.08515 0.0
H526 H 0.59673 0.53998 0.07561 0.0
H527 H 0.64607 0.51811 0.08548 0.0
H528 H 0.64503 0.43349 0.07646 0.0
H529 H 0.64472 0.46176 0.11889 0.0
C530 C 0.44707 0.38 0.08535 0.0
C531 C 0.43608 0.36878 0.05602 0.0
C532 C 0.46332 0.38025 0.06301 0.0
C533 C 0.49499 0.35414 0.98567 0.0
H534 H 0.51764 0.39505 0.9558 0.0
C535 C 0.56298 0.35686 0.901 0.0
C536 C 0.57257 0.3688 0.93447 0.0
C537 C 0.54601 0.35683 0.90949 0.0
C538 C 0.51154 0.38352 0.96456 0.0
H539 H 0.43326 0.34919 0.97975 0.0
H540 H 0.46179 0.34956 0.94082 0.0
H541 H 0.48847 0.39525 0.98142 0.0
H542 H 0.57178 0.38998 1.00382 0.0
H543 H 0.5424 0.38972 1.0195 0.0
H544 H 0.51811 0.34242 0.97064 0.0
C545 C 0.45784 0.35812 0.98123 0.0
C546 C 0.49482 0.38364 0.97904 0.0
C547 C 0.44153 0.35796 1.0032 0.0
C548 C 0.56481 0.38064 0.9768 0.0
C549 C 0.5479 0.38058 0.98544 0.0
C550 C 0.51175 0.35401 0.97157 0.0
C551 C 0.46893 0.36921 1.01125 0.0
C552 C 0.48641 0.36898 0.99067 0.0
C553 C 0.53827 0.36872 0.95174 0.0
C554 C 0.52027 0.36872 0.96186 0.0
H555 H 0.44316 0.38845 0.12625 0.0
H556 H 0.47161 0.38882 0.08768 0.0
H557 H 0.48886 0.34265 0.99512 0.0
H558 H 0.56854 0.34759 0.86777 0.0
H559 H 0.53894 0.34761 0.88225 0.0
C560 C 0.85466 0.4417 0.75158 0.0
C561 C 0.86843 0.43483 0.78449 0.0
C562 C 0.85444 0.45829 0.73365 0.0
C563 C 0.87334 0.49675 0.78929 0.0
H564 H 0.85557 0.51446 0.61482 0.0
C565 C 0.88126 0.56414 0.71715 0.0
C566 C 0.86792 0.57249 0.68727 0.0
C567 C 0.88089 0.54725 0.72551 0.0
C568 C 0.86039 0.5097 0.66415 0.0
H569 H 0.89302 0.43955 0.82112 0.0
H570 H 0.89272 0.46836 0.7893 0.0
H571 H 0.85593 0.48489 0.63337 0.0
H572 H 0.84377 0.56949 0.64198 0.0
H573 H 0.84307 0.53991 0.6576 0.0
H574 H 0.8777 0.5214 0.82067 0.0
C575 C 0.88199 0.46109 0.77845 0.0
C576 C 0.86063 0.49278 0.67466 0.0
C577 C 0.88221 0.44457 0.79624 0.0
C578 C 0.85426 0.56346 0.66524 0.0
C579 C 0.85388 0.5465 0.6738 0.0
C580 C 0.87305 0.51359 0.77895 0.0
C581 C 0.86798 0.46823 0.74861 0.0
C582 C 0.86729 0.48614 0.73705 0.0
C583 C 0.86717 0.53822 0.70454 0.0
C584 C 0.86676 0.52028 0.71598 0.0
H585 H 0.84388 0.43442 0.74202 0.0
H586 H 0.84346 0.46346 0.71088 0.0
H587 H 0.87818 0.49204 0.8387 0.0
H588 H 0.89207 0.57063 0.73412 0.0
H589 H 0.89147 0.54123 0.74809 0.0
C590 C 0.56199 0.13264 0.41416 0.0
C591 C 0.57093 0.11932 0.38723 0.0
C592 C 0.54498 0.133 0.40914 0.0
C593 C 0.50908 0.10653 0.38181 0.0
H594 H 0.48824 0.14625 0.31568 0.0
C595 C 0.44464 0.10743 0.26251 0.0
C596 C 0.43449 0.12093 0.27527 0.0
C597 C 0.46069 0.10728 0.28696 0.0
C598 C 0.49381 0.13515 0.33548 0.0
H599 H 0.56892 0.09585 0.33445 0.0
H600 H 0.5393 0.09656 0.32534 0.0
H601 H 0.51756 0.14594 0.33737 0.0
H602 H 0.43288 0.14466 0.32547 0.0
H603 H 0.46105 0.14441 0.36893 0.0
H604 H 0.48538 0.09565 0.3788 0.0
C605 C 0.54544 0.10665 0.35102 0.0
C606 C 0.51062 0.13497 0.34776 0.0
C607 C 0.56245 0.10631 0.35579 0.0
C608 C 0.4405 0.13412 0.31482 0.0
C609 C 0.45663 0.134 0.33928 0.0
C610 C 0.49227 0.10672 0.36968 0.0
C611 C 0.53652 0.12002 0.37739 0.0
C612 C 0.51849 0.12057 0.36983 0.0
C613 C 0.46697 0.12066 0.32476 0.0
C614 C 0.48448 0.12094 0.34509 0.0
H615 H 0.56811 0.14286 0.43887 0.0
H616 H 0.53843 0.1434 0.43052 0.0
H617 H 0.51474 0.09534 0.4001 0.0
H618 H 0.44029 0.0971 0.23205 0.0
H619 H 0.46836 0.09692 0.27397 0.0
C620 C 0.10832 0.54181 0.83806 0.0
C621 C 0.11977 0.5524 0.80769 0.0
C622 C 0.10814 0.52533 0.81942 0.0
C623 C 0.12285 0.49548 0.68561 0.0
H624 H 0.11592 0.46479 0.8393 0.0
C625 C 0.13145 0.42529 0.6569 0.0
C626 C 0.11926 0.41558 0.68812 0.0
C627 C 0.13171 0.44217 0.66843 0.0
C628 C 0.11774 0.4732 0.79569 0.0
H629 H 0.13975 0.55432 0.73282 0.0
H630 H 0.13968 0.52537 0.70099 0.0
H631 H 0.1158 0.49391 0.86401 0.0
H632 H 0.0977 0.41611 0.75536 0.0
H633 H 0.09822 0.44538 0.77522 0.0
H634 H 0.12495 0.47458 0.61754 0.0
C635 C 0.13068 0.52981 0.7385 0.0
C636 C 0.11762 0.48991 0.80978 0.0
C637 C 0.13078 0.54636 0.75688 0.0
C638 C 0.10731 0.42315 0.73061 0.0
C639 C 0.10764 0.43994 0.74237 0.0
C640 C 0.12305 0.4787 0.67157 0.0
C641 C 0.11952 0.51905 0.77044 0.0
C642 C 0.12 0.50127 0.75486 0.0
C643 C 0.11988 0.44963 0.71181 0.0
C644 C 0.12033 0.46741 0.72642 0.0
H645 H 0.09961 0.54621 0.87699 0.0
H646 H 0.09914 0.51748 0.84384 0.0
H647 H 0.12459 0.5039 0.642 0.0
H648 H 0.14082 0.41988 0.62374 0.0
H649 H 0.14135 0.44933 0.64454 0.0
C650 C 0.5417 0.87957 0.22886 0.0
C651 C 0.55248 0.8684 0.26025 0.0
C652 C 0.52519 0.87958 0.247 0.0
C653 C 0.49536 0.86516 0.38079 0.0
H654 H 0.46492 0.87076 0.22514 0.0
C655 C 0.42513 0.85666 0.40833 0.0
C656 C 0.41544 0.86863 0.37515 0.0
C657 C 0.44203 0.85626 0.39732 0.0
C658 C 0.47326 0.8693 0.26928 0.0
H659 H 0.55468 0.84876 0.33657 0.0
H660 H 0.52567 0.84855 0.3677 0.0
H661 H 0.4941 0.87099 0.20158 0.0
H662 H 0.41602 0.88965 0.30491 0.0
H663 H 0.44531 0.8889 0.28601 0.0
H664 H 0.47434 0.86335 0.4483 0.0
C665 C 0.53 0.85745 0.32964 0.0
C666 C 0.48999 0.86949 0.25584 0.0
C667 C 0.54658 0.85752 0.31168 0.0
C668 C 0.42304 0.88021 0.33119 0.0
C669 C 0.43985 0.87974 0.31997 0.0
C670 C 0.47855 0.86491 0.39422 0.0
C671 C 0.51907 0.86831 0.29656 0.0
C672 C 0.50126 0.86762 0.31148 0.0
C673 C 0.44953 0.86773 0.35254 0.0
C674 C 0.46735 0.86717 0.33863 0.0
H675 H 0.54597 0.88818 0.18943 0.0
H676 H 0.51718 0.88835 0.2217 0.0
H677 H 0.50371 0.86379 0.4249 0.0
H678 H 0.41968 0.84758 0.44266 0.0
H679 H 0.44918 0.8468 0.42279 0.0
C680 C 0.88052 0.92561 0.60751 0.0
C681 C 0.86741 0.91688 0.63694 0.0
C682 C 0.87997 0.94261 0.60317 0.0
C683 C 0.85149 0.97724 0.59757 0.0
H684 H 0.89042 0.00249 0.63658 0.0
C685 C 0.85263 0.0475 0.56806 0.0
C686 C 0.86616 0.05357 0.53082 0.0
C687 C 0.8525 0.03131 0.59178 0.0
C688 C 0.87946 -0.00439 0.62525 0.0
H689 H 0.84342 0.91927 0.68503 0.0
H690 H 0.84251 0.94898 0.67728 0.0
H691 H 0.89062 0.97309 0.65646 0.0
H692 H 0.89031 0.0478 0.49098 0.0
H693 H 0.89008 0.01964 0.53174 0.0
H694 H 0.84045 -0.00029 0.5647 0.0
C695 C 0.85317 0.94261 0.65728 0.0
C696 C 0.87958 0.97877 0.63657 0.0
C697 C 0.85373 0.92558 0.66192 0.0
C698 C 0.87973 0.04342 0.51967 0.0
C699 C 0.87963 0.0273 0.54345 0.0
C700 C 0.85137 0.9941 0.58611 0.0
C701 C 0.8663 0.95131 0.62796 0.0
C702 C 0.8657 0.96936 0.6216 0.0
C703 C 0.86594 0.02097 0.5789 0.0
C704 C 0.86546 0.00342 0.59854 0.0
H705 H 0.89125 0.91935 0.5877 0.0
H706 H 0.89019 0.94893 0.57928 0.0
H707 H 0.84064 0.97031 0.58496 0.0
H708 H 0.84202 0.05512 0.57738 0.0
H709 H 0.84184 0.02684 0.61959 0.0
C710 C 0.04132 0.10778 0.5841 0.0
C711 C 0.05232 0.1189 0.55404 0.0
C712 C 0.02504 0.10755 0.56231 0.0
C713 C 0.99341 0.13368 0.48554 0.0
H714 H 0.97051 0.09286 0.45735 0.0
C715 C 0.92533 0.13121 0.40305 0.0
C716 C 0.9157 0.11935 0.43697 0.0
C717 C 0.94231 0.13116 0.4111 0.0
C718 C 0.97669 0.10437 0.46566 0.0
H719 H 0.05514 0.13832 0.47704 0.0
H720 H 0.02656 0.138 0.43909 0.0
H721 H -0.00029 0.09254 0.4819 0.0
H722 H 0.91644 0.09826 0.50669 0.0
H723 H 0.94583 0.09839 0.52163 0.0
H724 H 0.97032 0.14551 0.47114 0.0
C725 C 0.03052 0.12951 0.47962 0.0
C726 C 0.99342 0.10417 0.47951 0.0
C727 C 0.04686 0.12963 0.50103 0.0
C728 C 0.92344 0.10752 0.47933 0.0
C729 C 0.94035 0.10751 0.48754 0.0
C730 C 0.97663 0.13388 0.47207 0.0
C731 C 0.01943 0.11853 0.5104 0.0
C732 C 0.00192 0.11881 0.4905 0.0
C733 C 0.95002 0.11928 0.45337 0.0
C734 C 0.96803 0.1192 0.46296 0.0
H735 H 0.04524 0.0994 0.62516 0.0
H736 H 0.01674 0.09908 0.58753 0.0
H737 H -0.00039 0.14516 0.49452 0.0
H738 H 0.91979 0.14046 0.36979 0.0
H739 H 0.9494 0.14031 0.3835 0.0
C740 C 0.13232 0.94028 0.57322 0.0
C741 C 0.11919 0.93418 0.5336 0.0
C742 C 0.1322 0.95649 0.59679 0.0
C743 C 0.10504 0.99233 0.62448 0.0
H744 H 0.14446 0.01729 0.5916 0.0
C745 C 0.10517 0.06252 0.60893 0.0
C746 C 0.11826 0.07094 0.64006 0.0
C747 C 0.10536 0.04551 0.60452 0.0
C748 C 0.13342 0.01045 0.60215 0.0
H749 H 0.09545 0.93989 0.48945 0.0
H750 H 0.09526 0.9681 0.52991 0.0
H751 H 0.1446 0.98792 0.57122 0.0
H752 H 0.14178 0.06798 0.69161 0.0
H753 H 0.14204 0.0383 0.68397 0.0
H754 H 0.09376 0.01495 0.65385 0.0
C755 C 0.10558 0.96044 0.54358 0.0
C756 C 0.13352 0.99361 0.5906 0.0
C757 C 0.10573 0.9443 0.51999 0.0
C758 C 0.1315 0.06192 0.66711 0.0
C759 C 0.1317 0.0449 0.6625 0.0
C760 C 0.10494 0.00918 0.63591 0.0
C761 C 0.11891 0.96681 0.58131 0.0
C762 C 0.11925 0.98439 0.60053 0.0
C763 C 0.11865 0.03651 0.63098 0.0
C764 C 0.11906 0.01846 0.62379 0.0
H765 H 0.14284 0.93268 0.5845 0.0
H766 H 0.14257 0.96098 0.62645 0.0
H767 H 0.09392 0.98554 0.63375 0.0
H768 H 0.09478 0.06906 0.5875 0.0
H769 H 0.09522 0.03942 0.57904 0.0
C770 C 0.06251 0.85395 0.40446 0.0
C771 C 0.07127 0.86746 0.43013 0.0
C772 C 0.04547 0.8536 0.40869 0.0
C773 C 0.00948 0.88051 0.42975 0.0
H774 H 0.98806 0.84151 0.4991 0.0
C775 C 0.94464 0.88127 0.54551 0.0
C776 C 0.93439 0.86788 0.5333 0.0
C777 C 0.96079 0.88103 0.52201 0.0
C778 C 0.9938 0.85241 0.4784 0.0
H779 H 0.06886 0.89123 0.48029 0.0
H780 H 0.03928 0.89052 0.48804 0.0
H781 H 0.01749 0.84129 0.47943 0.0
H782 H 0.93272 0.84394 0.48508 0.0
H783 H 0.96105 0.84352 0.44338 0.0
H784 H 0.98587 0.89173 0.42994 0.0
C785 C 0.04557 0.88028 0.46386 0.0
C786 C 0.01068 0.85228 0.46726 0.0
C787 C 0.06257 0.88061 0.45991 0.0
C788 C 0.94041 0.85441 0.49523 0.0
C789 C 0.95663 0.85414 0.4718 0.0
C790 C 0.99263 0.88063 0.44078 0.0
C791 C 0.03681 0.86679 0.4383 0.0
C792 C 0.01874 0.86644 0.44415 0.0
C793 C 0.96706 0.86736 0.48581 0.0
C794 C 0.98464 0.86668 0.46657 0.0
H795 H 0.0688 0.84362 0.38106 0.0
H796 H 0.03906 0.84308 0.38811 0.0
H797 H 0.0153 0.89151 0.41055 0.0
H798 H 0.9403 0.89179 0.57489 0.0
H799 H 0.96853 0.89132 0.53454 0.0
C800 C 0.38614 0.18331 0.15482 0.0
C801 C 0.37158 0.17454 0.1459 0.0
C802 C 0.38605 0.20036 0.15324 0.0
C803 C 0.36038 0.23592 0.09969 0.0
H804 H 0.38958 0.25955 0.22451 0.0
C805 C 0.35552 0.30539 0.15445 0.0
C806 C 0.37014 0.31414 0.14695 0.0
C807 C 0.35562 0.28833 0.1532 0.0
C808 C 0.38143 0.25308 0.18916 0.0
H809 H 0.34548 0.17678 0.12916 0.0
H810 H 0.34522 0.20642 0.12894 0.0
H811 H 0.38987 0.22981 0.22476 0.0
H812 H 0.39636 0.31187 0.13321 0.0
H813 H 0.39651 0.28209 0.1324 0.0
H814 H 0.35165 0.25935 0.06592 0.0
C815 C 0.35681 0.20021 0.13495 0.0
C816 C 0.38165 0.23604 0.18888 0.0
C817 C 0.35694 0.18317 0.13546 0.0
C818 C 0.38487 0.30549 0.13876 0.0
C819 C 0.38499 0.28846 0.13871 0.0
C820 C 0.36 0.25297 0.10081 0.0
C821 C 0.37136 0.20904 0.1438 0.0
C822 C 0.37116 0.22722 0.14395 0.0
C823 C 0.37037 0.27973 0.14572 0.0
C824 C 0.37057 0.26168 0.14534 0.0
H825 H 0.39764 0.177 0.16241 0.0
H826 H 0.39755 0.20671 0.15885 0.0
H827 H 0.35235 0.2296 0.06339 0.0
H828 H 0.34397 0.31171 0.16067 0.0
H829 H 0.34419 0.28185 0.15908 0.0
C830 C 0.30575 0.60283 0.90815 0.0
C831 C 0.31457 0.61735 0.89933 0.0
C832 C 0.28871 0.60293 0.90524 0.0
C833 C 0.2533 0.62852 0.84879 0.0
H834 H 0.22934 0.59941 0.97297 0.0
C835 C 0.18365 0.63328 0.90076 0.0
C836 C 0.17494 0.61863 0.89335 0.0
C837 C 0.20071 0.63322 0.89979 0.0
C838 C 0.2359 0.60753 0.93776 0.0
H839 H 0.31245 0.6434 0.88109 0.0
H840 H 0.2828 0.6437 0.87862 0.0
H841 H 0.25907 0.59919 0.97495 0.0
H842 H 0.17728 0.59242 0.87986 0.0
H843 H 0.20707 0.59233 0.87962 0.0
H844 H 0.22995 0.63717 0.81353 0.0
C845 C 0.28897 0.63212 0.88562 0.0
C846 C 0.25294 0.60736 0.93848 0.0
C847 C 0.30601 0.63197 0.88742 0.0
C848 C 0.18363 0.60392 0.88535 0.0
C849 C 0.20067 0.60384 0.88561 0.0
C850 C 0.23624 0.62886 0.84894 0.0
C851 C 0.28007 0.6176 0.89459 0.0
C852 C 0.26189 0.6178 0.89377 0.0
C853 C 0.20936 0.61848 0.8927 0.0
C854 C 0.22741 0.61832 0.89319 0.0
H855 H 0.312 0.59133 0.91678 0.0
H856 H 0.28233 0.59145 0.91089 0.0
H857 H 0.25972 0.63653 0.81267 0.0
H858 H 0.1773 0.64481 0.90681 0.0
H859 H 0.20716 0.64466 0.90573 0.0
C860 C 0.63422 0.8053 0.16097 0.0
C861 C 0.61949 0.81382 0.17082 0.0
C862 C 0.6344 0.78825 0.15887 0.0
C863 C 0.60913 0.75191 0.20339 0.0
H864 H 0.63915 0.7299 0.07571 0.0
C865 C 0.60512 0.68317 0.13685 0.0
C866 C 0.61974 0.67433 0.14421 0.0
C867 C 0.60516 0.70021 0.13979 0.0
C868 C 0.63077 0.73591 0.11184 0.0
H869 H 0.59338 0.81117 0.18538 0.0
H870 H 0.59358 0.78155 0.17925 0.0
H871 H 0.63899 0.75963 0.08157 0.0
H872 H 0.64592 0.67641 0.15888 0.0
H873 H 0.64598 0.70622 0.16257 0.0
H874 H 0.60064 0.72808 0.23185 0.0
C875 C 0.6051 0.78793 0.17531 0.0
C876 C 0.63072 0.75294 0.11561 0.0
C877 C 0.60496 0.80496 0.17847 0.0
C878 C 0.63444 0.68288 0.15327 0.0
C879 C 0.63451 0.69992 0.15505 0.0
C880 C 0.60902 0.7349 0.19878 0.0
C881 C 0.61982 0.77933 0.16549 0.0
C882 C 0.61992 0.76118 0.16159 0.0
C883 C 0.61985 0.70872 0.14897 0.0
C884 C 0.61987 0.72675 0.15313 0.0
H885 H 0.64565 0.81179 0.15545 0.0
H886 H 0.64601 0.78208 0.15263 0.0
H887 H 0.60086 0.75776 0.24044 0.0
H888 H 0.59358 0.67694 0.1301 0.0
H889 H 0.59371 0.70674 0.1345 0.0
C890 C 0.8057 0.35605 0.89723 0.0
C891 C 0.81456 0.37068 0.89351 0.0
C892 C 0.78865 0.35625 0.89594 0.0
C893 C 0.75316 0.38289 0.85131 0.0
H894 H 0.72941 0.35126 0.96405 0.0
C895 C 0.68357 0.38648 0.90616 0.0
C896 C 0.67481 0.37195 0.89571 0.0
C897 C 0.70063 0.38646 0.90376 0.0
C898 C 0.7359 0.36009 0.93195 0.0
H899 H 0.81245 0.39702 0.88643 0.0
H900 H 0.78277 0.39743 0.8867 0.0
H901 H 0.75914 0.3511 0.96541 0.0
H902 H 0.67709 0.346 0.87464 0.0
H903 H 0.70688 0.34596 0.87165 0.0
H904 H 0.72976 0.39212 0.81975 0.0
C905 C 0.78894 0.38574 0.8885 0.0
C906 C 0.75295 0.35997 0.93238 0.0
C907 C 0.80599 0.38551 0.88877 0.0
C908 C 0.68346 0.35742 0.88267 0.0
C909 C 0.70051 0.35735 0.88136 0.0
C910 C 0.7361 0.38315 0.85173 0.0
C911 C 0.78002 0.3711 0.89197 0.0
C912 C 0.76183 0.37132 0.89182 0.0
C913 C 0.70925 0.37186 0.89198 0.0
C914 C 0.72732 0.3717 0.8918 0.0
H915 H 0.81192 0.3444 0.90021 0.0
H916 H 0.78225 0.34471 0.89725 0.0
H917 H 0.75953 0.39163 0.8184 0.0
H918 H 0.67727 0.3979 0.9161 0.0
H919 H 0.70709 0.39779 0.9125 0.0
C920 C 0.8873 0.6832 0.66411 0.0
C921 C 0.87253 0.67477 0.65559 0.0
C922 C 0.88762 0.70025 0.66266 0.0
C923 C 0.86263 0.73643 0.61054 0.0
H924 H 0.8926 0.75941 0.7342 0.0
C925 C 0.85801 0.80548 0.66885 0.0
C926 C 0.87247 0.81443 0.6598 0.0
C927 C 0.8583 0.78844 0.6676 0.0
C928 C 0.88425 0.75312 0.69911 0.0
H929 H 0.84647 0.67761 0.63969 0.0
H930 H 0.8469 0.70726 0.63981 0.0
H931 H 0.89243 0.72965 0.73353 0.0
H932 H 0.89864 0.81252 0.64382 0.0
H933 H 0.89916 0.78267 0.64327 0.0
H934 H 0.85412 0.76003 0.57818 0.0
C935 C 0.85836 0.70078 0.64535 0.0
C936 C 0.88419 0.73607 0.69833 0.0
C937 C 0.85808 0.68374 0.64568 0.0
C938 C 0.88728 0.80597 0.65071 0.0
C939 C 0.88761 0.78891 0.65069 0.0
C940 C 0.86252 0.75347 0.61222 0.0
C941 C 0.87313 0.70929 0.65378 0.0
C942 C 0.87337 0.72747 0.65401 0.0
C943 C 0.8731 0.78001 0.65848 0.0
C944 C 0.87333 0.76196 0.6565 0.0
H945 H 0.89867 0.67662 0.67125 0.0
H946 H 0.89928 0.70631 0.66792 0.0
H947 H 0.85436 0.7303 0.5746 0.0
H948 H 0.84639 0.81163 0.67565 0.0
H949 H 0.84697 0.78184 0.67423 0.0
C950 C 0.80483 0.1313 0.38784 0.0
C951 C 0.81348 0.1167 0.39908 0.0
C952 C 0.78778 0.13135 0.38619 0.0
C953 C 0.75185 0.1063 0.43795 0.0
H954 H 0.72879 0.13631 0.31418 0.0
C955 C 0.68236 0.10321 0.3858 0.0
C956 C 0.67379 0.11798 0.39393 0.0
C957 C 0.6994 0.10299 0.38601 0.0
C958 C 0.7351 0.12793 0.34926 0.0
H959 H 0.81105 0.09064 0.41565 0.0
H960 H 0.78138 0.0906 0.4101 0.0
H961 H 0.75855 0.13573 0.31323 0.0
H962 H 0.67637 0.14413 0.40772 0.0
H963 H 0.70622 0.14375 0.40658 0.0
H964 H 0.72826 0.09824 0.47223 0.0
C965 C 0.78769 0.10213 0.4048 0.0
C966 C 0.75215 0.12763 0.34906 0.0
C967 C 0.80473 0.10212 0.40753 0.0
C968 C 0.68262 0.13255 0.40155 0.0
C969 C 0.69968 0.13236 0.40054 0.0
C970 C 0.7348 0.10644 0.43727 0.0
C971 C 0.77896 0.11677 0.39466 0.0
C972 C 0.76077 0.11687 0.3937 0.0
C973 C 0.70822 0.11756 0.39315 0.0
C974 C 0.72628 0.11731 0.3932 0.0
H975 H 0.8112 0.14278 0.38182 0.0
H976 H 0.78154 0.14291 0.37963 0.0
H977 H 0.758 0.09807 0.4741 0.0
H978 H 0.6759 0.09176 0.38015 0.0
H979 H 0.70571 0.09144 0.37983 0.0
C980 C 0.13141 0.30489 0.63585 0.0
C981 C 0.11674 0.31345 0.64675 0.0
C982 C 0.13159 0.28785 0.63438 0.0
C983 C 0.10671 0.25185 0.68639 0.0
H984 H 0.13687 0.22878 0.56292 0.0
C985 C 0.10348 0.18247 0.63416 0.0
C986 C 0.11819 0.17381 0.64249 0.0
C987 C 0.10337 0.1995 0.63422 0.0
C988 C 0.12846 0.23509 0.59793 0.0
H989 H 0.09067 0.31087 0.66285 0.0
H990 H 0.09084 0.2812 0.6576 0.0
H991 H 0.13622 0.25854 0.56184 0.0
H992 H 0.14435 0.17623 0.65632 0.0
H993 H 0.14415 0.20608 0.65496 0.0
H994 H 0.09868 0.22827 0.72073 0.0
C995 C 0.10233 0.28758 0.65245 0.0
C996 C 0.12811 0.25214 0.59764 0.0
C997 C 0.1022 0.30462 0.655 0.0
C998 C 0.13282 0.18255 0.65002 0.0
C999 C 0.13273 0.19961 0.64889 0.0
C1000 C 0.10689 0.23481 0.68582 0.0
C1001 C 0.11705 0.27895 0.64272 0.0
C1002 C 0.11727 0.26077 0.64208 0.0
C1003 C 0.11799 0.20823 0.64147 0.0
C1004 C 0.1178 0.22628 0.64178 0.0
H1005 H 0.14286 0.31134 0.62998 0.0
H1006 H 0.1432 0.28168 0.62809 0.0
H1007 H 0.09843 0.25801 0.72244 0.0
H1008 H 0.09199 0.17609 0.62855 0.0
H1009 H 0.09186 0.20588 0.62797 0.0
C1010 C 0.30466 0.85807 0.42731 0.0
C1011 C 0.31343 0.87257 0.41688 0.0
C1012 C 0.28761 0.85821 0.4276 0.0
C1013 C 0.25211 0.88375 0.37275 0.0
H1014 H 0.22816 0.85364 0.49237 0.0
C1015 C 0.18215 0.88687 0.41838 0.0
C1016 C 0.17375 0.87208 0.40924 0.0
C1017 C 0.1992 0.88715 0.41885 0.0
C1018 C 0.23472 0.86205 0.45845 0.0
H1019 H 0.31121 0.89868 0.40072 0.0
H1020 H 0.28153 0.89906 0.4041 0.0
H1021 H 0.25789 0.854 0.497 0.0
H1022 H 0.17666 0.84598 0.39382 0.0
H1023 H 0.20646 0.84648 0.39606 0.0
H1024 H 0.22877 0.89206 0.33597 0.0
C1025 C 0.28775 0.88746 0.40965 0.0
C1026 C 0.25176 0.86222 0.46075 0.0
C1027 C 0.3048 0.88727 0.40822 0.0
C1028 C 0.18276 0.85759 0.40064 0.0
C1029 C 0.1998 0.85784 0.40236 0.0
C1030 C 0.23505 0.88374 0.37136 0.0
C1031 C 0.2789 0.8729 0.41861 0.0
C1032 C 0.26071 0.873 0.41757 0.0
C1033 C 0.20817 0.87261 0.41148 0.0
C1034 C 0.22622 0.87282 0.41383 0.0
H1035 H 0.31096 0.84652 0.43346 0.0
H1036 H 0.28128 0.84671 0.43334 0.0
H1037 H 0.25852 0.892 0.33767 0.0
H1038 H 0.17555 0.89825 0.42492 0.0
H1039 H 0.20539 0.89868 0.42628 0.0
C1040 C 0.1843 0.13344 0.82623 0.0
C1041 C 0.18082 0.12182 0.7737 0.0
C1042 C 0.19966 0.13374 0.85847 0.0
C1043 C 0.24231 0.12037 0.83008 0.0
H1044 H 0.24652 0.12837 1.03206 0.0
C1045 C 0.30325 0.11249 0.98069 0.0
C1046 C 0.30702 0.1244 1.03157 0.0
C1047 C 0.28789 0.11233 0.94846 0.0
C1048 C 0.24555 0.12629 0.97544 0.0
H1049 H 0.1904 0.10125 0.71438 0.0
H1050 H 0.2171 0.1016 0.77126 0.0
H1051 H 0.21947 0.12767 0.97831 0.0
H1052 H 0.29794 0.14559 0.08819 0.0
H1053 H 0.27115 0.14539 1.03166 0.0
H1054 H 0.26839 0.11891 0.82735 0.0
C1055 C 0.20814 0.11067 0.7868 0.0
C1056 C 0.23005 0.1259 0.94465 0.0
C1057 C 0.19282 0.11039 0.75456 0.0
C1058 C 0.2953 0.13624 0.04921 0.0
C1059 C 0.27994 0.13606 1.0172 0.0
C1060 C 0.2578 0.12072 0.86091 0.0
C1061 C 0.21179 0.12242 0.83875 0.0
C1062 C 0.22825 0.12292 0.87161 0.0
C1063 C 0.27603 0.12405 0.96676 0.0
C1064 C 0.25959 0.12369 0.93392 0.0
H1065 H 0.17523 0.1424 0.84178 0.0
H1066 H 0.20213 0.14305 0.89779 0.0
H1067 H 0.24137 0.11832 0.77344 0.0
H1068 H 0.3121 0.10321 0.9663 0.0
H1069 H 0.28519 0.10284 0.91025 0.0
C1070 C 0.11138 0.69303 1.00728 0.0
C1071 C 0.12271 0.68095 1.02644 0.0
C1072 C 0.11162 0.70829 0.04011 0.0
C1073 C 0.12652 0.72993 0.19939 0.0
H1074 H 0.11989 0.76843 0.08311 0.0
C1075 C 0.1364 0.79509 0.30679 0.0
C1076 C 0.12457 0.80679 0.28887 0.0
C1077 C 0.13638 0.77977 0.27428 0.0
C1078 C 0.1216 0.75779 0.11639 0.0
H1079 H 0.14307 0.67517 0.09525 0.0
H1080 H 0.14367 0.70198 0.15233 0.0
H1081 H 0.11942 0.74149 1.02825 0.0
H1082 H 0.10357 0.81186 0.22262 0.0
H1083 H 0.10349 0.78504 0.16571 0.0
H1084 H 0.12876 0.74628 0.28748 0.0
C1085 C 0.13446 0.69961 0.11249 0.0
C1086 C 0.12132 0.74235 0.08501 0.0
C1087 C 0.13419 0.6843 0.07965 0.0
C1088 C 0.11284 0.80303 0.23724 0.0
C1089 C 0.11285 0.78772 0.20451 0.0
C1090 C 0.12684 0.74538 0.23074 0.0
C1091 C 0.12325 0.71182 0.09271 0.0
C1092 C 0.12372 0.72823 0.12617 0.0
C1093 C 0.12456 0.77588 0.22304 0.0
C1094 C 0.12435 0.75948 0.1896 0.0
H1095 H 0.10234 0.69071 0.96659 0.0
H1096 H 0.10263 0.71731 1.02451 0.0
H1097 H 0.12818 0.7193 0.23276 0.0
H1098 H 0.1456 0.79772 0.34637 0.0
H1099 H 0.14569 0.77099 0.28897 0.0
C1100 C 0.68458 0.85478 0.9889 0.0
C1101 C 0.68113 0.86634 0.04181 0.0
C1102 C 0.69992 0.85444 0.95623 0.0
C1103 C 0.74258 0.86761 0.9835 0.0
H1104 H 0.74656 0.85984 0.78119 0.0
C1105 C 0.80326 0.8757 0.83083 0.0
C1106 C 0.80704 0.86391 0.7793 0.0
C1107 C 0.78795 0.87577 0.86372 0.0
C1108 C 0.74565 0.86185 0.83789 0.0
H1109 H 0.69074 0.88678 0.10139 0.0
H1110 H 0.7174 0.88639 0.04373 0.0
H1111 H 0.71958 0.86055 0.83593 0.0
H1112 H 0.79801 0.84284 0.72219 0.0
H1113 H 0.77131 0.84288 0.77986 0.0
H1114 H 0.76866 0.86899 0.98533 0.0
C1115 C 0.70843 0.87738 1.02822 0.0
C1116 C 0.7302 0.86225 0.86925 0.0
C1117 C 0.69313 0.87769 0.06089 0.0
C1118 C 0.79537 0.85209 0.76168 0.0
C1119 C 0.78006 0.85218 0.79434 0.0
C1120 C 0.75803 0.86724 0.9521 0.0
C1121 C 0.71205 0.86568 0.97586 0.0
C1122 C 0.72848 0.86516 0.94242 0.0
C1123 C 0.77614 0.86407 0.84544 0.0
C1124 C 0.75974 0.86437 0.87895 0.0
H1125 H 0.67552 0.84587 0.97339 0.0
H1126 H 0.70236 0.84517 0.91661 0.0
H1127 H 0.74171 0.86959 0.04022 0.0
H1128 H 0.81206 0.88496 0.84524 0.0
H1129 H 0.78525 0.88518 0.9024 0.0
C1130 C 0.85401 0.30292 0.07265 0.0
C1131 C 0.86635 0.30687 1.02393 0.0
C1132 C 0.85384 0.28761 0.10537 0.0
C1133 C 0.86931 0.24553 0.08324 0.0
H1134 H 0.85848 0.24142 0.28279 0.0
C1135 C 0.87659 0.18497 0.23763 0.0
C1136 C 0.86421 0.18102 0.28611 0.0
C1137 C 0.8768 0.20028 0.20488 0.0
C1138 C 0.86135 0.24235 0.22681 0.0
H1139 H 0.88828 0.29814 0.9718 0.0
H1140 H 0.8881 0.27148 1.02939 0.0
H1141 H 0.85902 0.26837 0.22804 0.0
H1142 H 0.84222 0.18975 0.33781 0.0
H1143 H 0.84246 0.21641 0.28022 0.0
H1144 H 0.87164 0.21951 0.08203 0.0
C1145 C 0.87843 0.28007 0.04164 0.0
C1146 C 0.86166 0.25779 0.19546 0.0
C1147 C 0.8786 0.29536 1.00902 0.0
C1148 C 0.85194 0.19252 0.30077 0.0
C1149 C 0.85215 0.20782 0.26815 0.0
C1150 C 0.869 0.23009 0.1146 0.0
C1151 C 0.86599 0.27597 0.08987 0.0
C1152 C 0.86565 0.25956 0.12331 0.0
C1153 C 0.86463 0.21191 0.22015 0.0
C1154 C 0.865 0.22832 0.18673 0.0
H1155 H 0.84441 0.3116 0.08492 0.0
H1156 H 0.844 0.28478 0.14174 0.0
H1157 H 0.87217 0.24646 1.02725 0.0
H1158 H 0.88621 0.17629 0.22556 0.0
H1159 H 0.88667 0.20311 0.16867 0.0
C1160 C 0.29559 0.378 0.25815 0.0
C1161 C 0.30755 0.36657 0.27764 0.0
C1162 C 0.28024 0.37782 0.29037 0.0
C1163 C 0.25814 0.36284 0.44859 0.0
H1164 H 0.2199 0.36986 0.33117 0.0
C1165 C 0.19282 0.35243 0.5528 0.0
C1166 C 0.18105 0.36422 0.53515 0.0
C1167 C 0.20821 0.35268 0.52092 0.0
C1168 C 0.23047 0.36805 0.36478 0.0
H1169 H 0.31303 0.3461 0.34634 0.0
H1170 H 0.28609 0.34562 0.40231 0.0
H1171 H 0.24697 0.37037 0.27734 0.0
H1172 H 0.17596 0.38538 0.46994 0.0
H1173 H 0.20293 0.38586 0.41405 0.0
H1174 H 0.2416 0.36043 0.53595 0.0
C1175 C 0.28861 0.35486 0.36273 0.0
C1176 C 0.24598 0.36835 0.33398 0.0
C1177 C 0.304 0.35507 0.33052 0.0
C1178 C 0.18483 0.37615 0.48436 0.0
C1179 C 0.20023 0.37637 0.45222 0.0
C1180 C 0.24262 0.36249 0.47934 0.0
C1181 C 0.27651 0.36617 0.34267 0.0
C1182 C 0.26001 0.36577 0.37553 0.0
C1183 C 0.21213 0.36469 0.47055 0.0
C1184 C 0.22861 0.3651 0.43778 0.0
H1185 H 0.29805 0.38705 0.2177 0.0
H1186 H 0.27131 0.38688 0.27454 0.0
H1187 H 0.26869 0.36105 0.48229 0.0
H1188 H 0.19019 0.34307 0.5917 0.0
H1189 H 0.21702 0.34338 0.5354 0.0
C1190 C 0.35096 0.68986 0.77524 0.0
C1191 C 0.36563 0.68135 0.7861 0.0
C1192 C 0.35102 0.7051 0.74208 0.0
C1193 C 0.37653 0.74067 0.71211 0.0
H1194 H 0.34667 0.75021 0.55806 0.0
C1195 C 0.37934 0.80118 0.55542 0.0
C1196 C 0.3646 0.80787 0.53114 0.0
C1197 C 0.37963 0.78573 0.58673 0.0
C1198 C 0.35491 0.74787 0.60178 0.0
H1199 H 0.39183 0.68189 0.77087 0.0
H1200 H 0.39198 0.70876 0.71385 0.0
H1201 H 0.34681 0.72313 0.6115 0.0
H1202 H 0.33855 0.80405 0.52219 0.0
H1203 H 0.33888 0.77738 0.57929 0.0
H1204 H 0.38434 0.76546 0.70424 0.0
C1205 C 0.38046 0.7036 0.73078 0.0
C1206 C 0.35504 0.73231 0.63201 0.0
C1207 C 0.38036 0.68824 0.76299 0.0
C1208 C 0.3501 0.79908 0.54009 0.0
C1209 C 0.35033 0.78373 0.57227 0.0
C1210 C 0.37625 0.7563 0.68259 0.0
C1211 C 0.36579 0.71217 0.72017 0.0
C1212 C 0.36586 0.72857 0.68737 0.0
C1213 C 0.36513 0.77675 0.59523 0.0
C1214 C 0.36544 0.76012 0.62699 0.0
H1215 H 0.33944 0.68478 0.79263 0.0
H1216 H 0.33956 0.71151 0.73491 0.0
H1217 H 0.38485 0.73813 0.75538 0.0
H1218 H 0.39071 0.80772 0.54873 0.0
H1219 H 0.39128 0.78069 0.60276 0.0
C1220 C 0.68524 0.63403 0.32697 0.0
C1221 C 0.68198 0.62245 0.27405 0.0
C1222 C 0.70052 0.63442 0.35991 0.0
C1223 C 0.74332 0.62141 0.33333 0.0
H1224 H 0.74691 0.62906 0.53581 0.0
C1225 C 0.80376 0.61332 0.48704 0.0
C1226 C 0.8074 0.62513 0.53851 0.0
C1227 C 0.78851 0.61323 0.45394 0.0
C1228 C 0.74611 0.62708 0.47907 0.0
H1229 H 0.69186 0.60202 0.21472 0.0
H1230 H 0.71842 0.60251 0.27284 0.0
H1231 H 0.72002 0.6283 0.4806 0.0
H1232 H 0.79817 0.64623 0.59534 0.0
H1233 H 0.77155 0.64616 0.53731 0.0
H1234 H 0.76941 0.6201 0.33195 0.0
C1235 C 0.70935 0.61149 0.28814 0.0
C1236 C 0.73071 0.62666 0.44744 0.0
C1237 C 0.69411 0.61113 0.2552 0.0
C1238 C 0.79564 0.63696 0.5559 0.0
C1239 C 0.78038 0.63685 0.52303 0.0
C1240 C 0.75871 0.6218 0.36499 0.0
C1241 C 0.71278 0.62321 0.34051 0.0
C1242 C 0.72914 0.62379 0.37422 0.0
C1243 C 0.77661 0.62494 0.47196 0.0
C1244 C 0.76027 0.62463 0.43821 0.0
H1245 H 0.67607 0.64291 0.3423 0.0
H1246 H 0.70282 0.64371 0.39956 0.0
H1247 H 0.74254 0.61945 0.27658 0.0
H1248 H 0.81264 0.60405 0.47282 0.0
H1249 H 0.78591 0.60381 0.41528 0.0
C1250 C 0.61043 0.19304 0.50631 0.0
C1251 C 0.62204 0.18114 0.52431 0.0
C1252 C 0.61069 0.20835 0.53879 0.0
C1253 C 0.6264 0.23037 0.69561 0.0
H1254 H 0.61841 0.26865 0.57955 0.0
C1255 C 0.63649 0.29571 0.79998 0.0
C1256 C 0.62444 0.30731 0.7836 0.0
C1257 C 0.63632 0.28036 0.76784 0.0
C1258 C 0.6205 0.25807 0.61278 0.0
H1259 H 0.64293 0.17571 0.59062 0.0
H1260 H 0.64356 0.20259 0.64699 0.0
H1261 H 0.61788 0.24164 0.52534 0.0
H1262 H 0.6029 0.31217 0.72045 0.0
H1263 H 0.60255 0.28526 0.66419 0.0
H1264 H 0.6291 0.24684 0.78298 0.0
C1265 C 0.63412 0.20005 0.60841 0.0
C1266 C 0.62018 0.24259 0.58178 0.0
C1267 C 0.63382 0.1847 0.57597 0.0
C1268 C 0.61234 0.30342 0.73385 0.0
C1269 C 0.61219 0.28806 0.70149 0.0
C1270 C 0.62676 0.24586 0.72657 0.0
C1271 C 0.62261 0.21209 0.58981 0.0
C1272 C 0.62309 0.22855 0.62286 0.0
C1273 C 0.62413 0.27632 0.71852 0.0
C1274 C 0.62379 0.25988 0.68551 0.0
H1275 H 0.60115 0.19056 0.46684 0.0
H1276 H 0.60147 0.21723 0.52415 0.0
H1277 H 0.62845 0.2198 0.72895 0.0
H1278 H 0.64599 0.29845 0.83806 0.0
H1279 H 0.64581 0.27167 0.78129 0.0
C1280 C 0.37601 0.12193 0.38131 0.0
C1281 C 0.3601 0.12331 0.3543 0.0
C1282 C 0.37874 0.12199 0.45502 0.0
C1283 C 0.35905 0.13392 0.62635 0.0
H1284 H 0.39067 0.10441 0.70963 0.0
C1285 C 0.3648 0.12518 0.93234 0.0
C1286 C 0.38063 0.12336 0.95971 0.0
C1287 C 0.36214 0.12512 0.85859 0.0
C1288 C 0.3819 0.11288 0.68735 0.0
H1289 H 0.3346 0.12568 0.38318 0.0
H1290 H 0.33928 0.12567 0.51063 0.0
H1291 H 0.38691 0.10476 0.58129 0.0
H1292 H 0.40609 0.1203 0.93134 0.0
H1293 H 0.40156 0.12042 0.80385 0.0
H1294 H 0.35406 0.14208 0.73231 0.0
C1295 C 0.34973 0.12479 0.47556 0.0
C1296 C 0.37977 0.11308 0.6135 0.0
C1297 C 0.34703 0.12469 0.40229 0.0
C1298 C 0.39371 0.12161 0.91198 0.0
C1299 C 0.39109 0.12156 0.83865 0.0
C1300 C 0.3612 0.13374 0.70018 0.0
C1301 C 0.36561 0.12349 0.5032 0.0
C1302 C 0.36828 0.12358 0.58187 0.0
C1303 C 0.37527 0.12326 0.81064 0.0
C1304 C 0.37266 0.12322 0.73187 0.0
H1305 H 0.3863 0.12076 0.34561 0.0
H1306 H 0.39116 0.12107 0.47424 0.0
H1307 H 0.35025 0.14236 0.60401 0.0
H1308 H 0.35452 0.12676 0.96776 0.0
H1309 H 0.34976 0.12636 0.83921 0.0
C1310 C 0.12053 0.64142 0.65558 0.0
C1311 C 0.12466 0.62871 0.70226 0.0
C1312 C 0.12069 0.639 0.58211 0.0
C1313 C 0.12191 0.60648 0.4424 0.0
H1314 H 0.13395 0.64286 0.32173 0.0
C1315 C 0.13528 0.59936 0.14177 0.0
C1316 C 0.12783 0.61066 0.09588 0.0
C1317 C 0.13482 0.60161 0.21538 0.0
C1318 C 0.13043 0.63263 0.35466 0.0
H1319 H 0.13234 0.60351 0.70857 0.0
H1320 H 0.13316 0.59927 0.57993 0.0
H1321 H 0.13374 0.64629 0.45014 0.0
H1322 H 0.1142 0.63332 0.09129 0.0
H1323 H 0.11381 0.63754 0.22033 0.0
H1324 H 0.11913 0.59273 0.34623 0.0
C1325 C 0.12934 0.61106 0.59996 0.0
C1326 C 0.13023 0.63458 0.42856 0.0
C1327 C 0.12894 0.61346 0.67386 0.0
C1328 C 0.12015 0.62447 0.12525 0.0
C1329 C 0.11993 0.62686 0.19909 0.0
C1330 C 0.12235 0.60447 0.36848 0.0
C1331 C 0.12528 0.62385 0.55284 0.0
C1332 C 0.12586 0.62157 0.47375 0.0
C1333 C 0.12711 0.61535 0.24506 0.0
C1334 C 0.12655 0.61754 0.32369 0.0
H1335 H 0.11705 0.6533 0.6759 0.0
H1336 H 0.11706 0.64906 0.54838 0.0
H1337 H 0.11821 0.59623 0.47477 0.0
H1338 H 0.1413 0.5886 0.12084 0.0
H1339 H 0.14063 0.59262 0.24917 0.0
C1340 C 0.64158 0.86818 0.41258 0.0
C1341 C 0.62892 0.86401 0.36585 0.0
C1342 C 0.63916 0.86797 0.48605 0.0
C1343 C 0.60663 0.86658 0.62573 0.0
H1344 H 0.64312 0.85475 0.74638 0.0
C1345 C 0.59959 0.85335 0.92639 0.0
C1346 C 0.6108 0.86088 0.97225 0.0
C1347 C 0.60185 0.85376 0.85277 0.0
C1348 C 0.63285 0.85821 0.71346 0.0
H1349 H 0.60381 0.8562 0.35948 0.0
H1350 H 0.59958 0.85529 0.48811 0.0
H1351 H 0.64658 0.85495 0.61796 0.0
H1352 H 0.63333 0.8746 0.97678 0.0
H1353 H 0.63757 0.87491 0.84775 0.0
H1354 H 0.59283 0.86932 0.7219 0.0
C1355 C 0.61133 0.85918 0.46812 0.0
C1356 C 0.63482 0.8584 0.63955 0.0
C1357 C 0.61372 0.85963 0.39423 0.0
C1358 C 0.62454 0.86859 0.94285 0.0
C1359 C 0.62695 0.86877 0.86902 0.0
C1360 C 0.60462 0.86615 0.69964 0.0
C1361 C 0.62406 0.8633 0.51528 0.0
C1362 C 0.62177 0.8627 0.59437 0.0
C1363 C 0.61552 0.86151 0.82307 0.0
C1364 C 0.61772 0.86203 0.74443 0.0
H1365 H 0.65342 0.87174 0.39229 0.0
H1366 H 0.64918 0.87164 0.51982 0.0
H1367 H 0.59634 0.87023 0.59337 0.0
H1368 H 0.58888 0.8473 0.94734 0.0
H1369 H 0.59293 0.84789 0.81901 0.0
C1370 C 0.86346 0.39331 0.1424 0.0
C1371 C 0.86526 0.38024 0.0947 0.0
C1372 C 0.86328 0.39068 0.21573 0.0
C1373 C 0.8748 0.36026 0.35412 0.0
H1374 H 0.84744 0.38745 0.47414 0.0
C1375 C 0.865 0.34667 0.65231 0.0
C1376 C 0.86518 0.35982 0.7002 0.0
C1377 C 0.86507 0.34933 0.579 0.0
C1378 C 0.85529 0.37987 0.44152 0.0
H1379 H 0.86852 0.35413 0.08671 0.0
H1380 H 0.86769 0.34931 0.21507 0.0
H1381 H 0.84687 0.39111 0.34577 0.0
H1382 H 0.86559 0.38614 0.70867 0.0
H1383 H 0.86551 0.3909 0.57985 0.0
H1384 H 0.88298 0.34887 0.45013 0.0
C1385 C 0.86661 0.36171 0.19582 0.0
C1386 C 0.85499 0.38196 0.36764 0.0
C1387 C 0.86688 0.3644 0.12208 0.0
C1388 C 0.86534 0.37578 0.67306 0.0
C1389 C 0.86527 0.37847 0.59931 0.0
C1390 C 0.875 0.3581 0.42795 0.0
C1391 C 0.86482 0.37484 0.24382 0.0
C1392 C 0.86478 0.37223 0.3227 0.0
C1393 C 0.86522 0.36525 0.55131 0.0
C1394 C 0.86526 0.36788 0.47271 0.0
H1395 H 0.86233 0.40571 0.12305 0.0
H1396 H 0.86224 0.40117 0.25038 0.0
H1397 H 0.88275 0.35272 0.32185 0.0
H1398 H 0.86485 0.33421 0.67152 0.0
H1399 H 0.86479 0.33886 0.5439 0.0
C1400 C 0.36436 0.36873 0.37812 0.0
C1401 C 0.37813 0.36107 0.34853 0.0
C1402 C 0.36197 0.36889 0.45197 0.0
C1403 C 0.37676 0.34922 0.62065 0.0
H1404 H 0.35656 0.38703 0.70819 0.0
C1405 C 0.37544 0.35986 0.92689 0.0
C1406 C 0.36019 0.36435 0.95496 0.0
C1407 C 0.37795 0.35953 0.85308 0.0
C1408 C 0.36217 0.37635 0.6845 0.0
H1409 H 0.40021 0.34762 0.37311 0.0
H1410 H 0.39645 0.34838 0.50093 0.0
H1411 H 0.35994 0.38614 0.57969 0.0
H1412 H 0.33568 0.37212 0.92801 0.0
H1413 H 0.34011 0.37183 0.79995 0.0
H1414 H 0.37929 0.33968 0.72616 0.0
C1415 C 0.38716 0.35387 0.46781 0.0
C1416 C 0.36402 0.37576 0.61055 0.0
C1417 C 0.3894 0.35354 0.39419 0.0
C1418 C 0.34759 0.36865 0.90797 0.0
C1419 C 0.35014 0.36856 0.83456 0.0
C1420 C 0.37511 0.34993 0.69467 0.0
C1421 C 0.37342 0.36157 0.49812 0.0
C1422 C 0.37129 0.36216 0.57728 0.0
C1423 C 0.36532 0.36392 0.80605 0.0
C1424 C 0.36773 0.36346 0.72751 0.0
H1425 H 0.35548 0.37468 0.3443 0.0
H1426 H 0.35109 0.3747 0.47272 0.0
H1427 H 0.38213 0.33837 0.5975 0.0
H1428 H 0.38529 0.35633 0.96178 0.0
H1429 H 0.3898 0.35594 0.83278 0.0
C1430 C 0.36562 0.61311 0.13984 0.0
C1431 C 0.3649 0.62904 0.11259 0.0
C1432 C 0.3657 0.61044 0.21361 0.0
C1433 C 0.35566 0.63091 0.38585 0.0
H1434 H 0.3834 0.59738 0.46657 0.0
C1435 C 0.36556 0.6243 0.69117 0.0
C1436 C 0.3662 0.60834 0.71809 0.0
C1437 C 0.36545 0.62705 0.61744 0.0
C1438 C 0.37544 0.6067 0.44502 0.0
H1439 H 0.3638 0.65464 0.14108 0.0
H1440 H 0.36412 0.65007 0.26862 0.0
H1441 H 0.38276 0.60123 0.33833 0.0
H1442 H 0.3671 0.58276 0.68905 0.0
H1443 H 0.36674 0.58747 0.56164 0.0
H1444 H 0.34835 0.63638 0.49259 0.0
C1445 C 0.36435 0.63956 0.23375 0.0
C1446 C 0.37505 0.60889 0.3712 0.0
C1447 C 0.36428 0.6422 0.1604 0.0
C1448 C 0.36668 0.59523 0.67001 0.0
C1449 C 0.36659 0.59794 0.59673 0.0
C1450 C 0.35605 0.62873 0.45969 0.0
C1451 C 0.36503 0.62366 0.26166 0.0
C1452 C 0.36517 0.62103 0.34044 0.0
C1453 C 0.36602 0.61388 0.56914 0.0
C1454 C 0.36592 0.61657 0.49042 0.0
H1455 H 0.36616 0.60275 0.10428 0.0
H1456 H 0.3661 0.59801 0.23295 0.0
H1457 H 0.34769 0.64023 0.3643 0.0
H1458 H 0.36513 0.63463 0.72695 0.0
H1459 H 0.36512 0.63951 0.59832 0.0
C1460 C 0.61451 0.62848 0.92221 0.0
C1461 C 0.62975 0.6241 0.95035 0.0
C1462 C 0.6121 0.62896 0.84836 0.0
C1463 C 0.63557 0.6299 0.67673 0.0
H1464 H 0.5937 0.61887 0.59467 0.0
C1465 C 0.62549 0.61979 0.37354 0.0
C1466 C 0.61166 0.62739 0.34421 0.0
C1467 C 0.62788 0.61962 0.44735 0.0
C1468 C 0.60545 0.62208 0.61684 0.0
H1469 H 0.6543 0.61642 0.92356 0.0
H1470 H 0.65004 0.61656 0.79606 0.0
H1471 H 0.59721 0.61791 0.72315 0.0
H1472 H 0.58954 0.6408 0.36921 0.0
H1473 H 0.59356 0.64025 0.49754 0.0
H1474 H 0.64386 0.63364 0.56987 0.0
C1475 C 0.64 0.6202 0.83 0.0
C1476 C 0.60746 0.62162 0.69073 0.0
C1477 C 0.64243 0.61997 0.90344 0.0
C1478 C 0.60033 0.63484 0.39012 0.0
C1479 C 0.60257 0.63445 0.46373 0.0
C1480 C 0.63361 0.63013 0.60285 0.0
C1481 C 0.62486 0.62488 0.80101 0.0
C1482 C 0.62256 0.62552 0.72197 0.0
C1483 C 0.61634 0.62679 0.49336 0.0
C1484 C 0.61852 0.62627 0.57198 0.0
H1485 H 0.60459 0.63191 0.9571 0.0
H1486 H 0.60033 0.63284 0.82854 0.0
H1487 H 0.6473 0.63338 0.69825 0.0
H1488 H 0.63437 0.61384 0.33957 0.0
H1489 H 0.63857 0.61355 0.46855 0.0
C1490 C 0.62506 0.36504 0.68496 0.0
C1491 C 0.62334 0.38089 0.71239 0.0
C1492 C 0.62502 0.36236 0.61119 0.0
C1493 C 0.61308 0.3822 0.43993 0.0
H1494 H 0.64236 0.35029 0.35668 0.0
C1495 C 0.62244 0.37626 0.13397 0.0
C1496 C 0.62369 0.36034 0.10681 0.0
C1497 C 0.62243 0.37898 0.20772 0.0
C1498 C 0.63398 0.35916 0.37899 0.0
H1499 H 0.62049 0.40636 0.68412 0.0
H1500 H 0.62066 0.4018 0.55661 0.0
H1501 H 0.642 0.3541 0.485 0.0
H1502 H 0.62578 0.33482 0.13543 0.0
H1503 H 0.62566 0.33948 0.26294 0.0
H1504 H 0.60511 0.38728 0.33382 0.0
C1505 C 0.62169 0.39133 0.59136 0.0
C1506 C 0.63374 0.36131 0.45284 0.0
C1507 C 0.62172 0.39397 0.66471 0.0
C1508 C 0.62488 0.34725 0.15467 0.0
C1509 C 0.62493 0.34994 0.22797 0.0
C1510 C 0.61334 0.38006 0.36607 0.0
C1511 C 0.62329 0.3755 0.56329 0.0
C1512 C 0.6233 0.37288 0.4845 0.0
C1513 C 0.62375 0.36583 0.25577 0.0
C1514 C 0.62377 0.36849 0.33447 0.0
H1515 H 0.62653 0.35476 0.72034 0.0
H1516 H 0.62618 0.34997 0.59177 0.0
H1517 H 0.60467 0.39105 0.46218 0.0
H1518 H 0.62141 0.38657 0.09837 0.0
H1519 H 0.62161 0.3914 0.22706 0.0
C1520 C 0.8761 0.62232 0.8898 0.0
C1521 C 0.8602 0.62372 0.86279 0.0
C1522 C 0.87883 0.62235 0.96351 0.0
C1523 C 0.85921 0.63434 0.13478 0.0
H1524 H 0.89055 0.60452 0.21797 0.0
C1525 C 0.86491 0.62554 0.44076 0.0
C1526 C 0.88071 0.62348 0.46809 0.0
C1527 C 0.86224 0.62553 0.36701 0.0
C1528 C 0.88187 0.61308 0.19573 0.0
H1529 H 0.8347 0.62615 0.89162 0.0
H1530 H 0.83937 0.62611 1.01909 0.0
H1531 H 0.88681 0.60494 0.08964 0.0
H1532 H 0.90612 0.62008 0.43966 0.0
H1533 H 0.90159 0.62032 0.3122 0.0
H1534 H 0.85429 0.64253 0.24075 0.0
C1535 C 0.84981 0.62522 0.98401 0.0
C1536 C 0.87974 0.61332 0.12188 0.0
C1537 C 0.84712 0.62512 0.91075 0.0
C1538 C 0.89376 0.62157 0.42033 0.0
C1539 C 0.89114 0.62158 0.34701 0.0
C1540 C 0.86135 0.63413 0.20861 0.0
C1541 C 0.86569 0.62387 1.01165 0.0
C1542 C 0.86836 0.62393 0.0903 0.0
C1543 C 0.87534 0.6235 0.31904 0.0
C1544 C 0.87273 0.6235 0.24027 0.0
H1545 H 0.8864 0.62116 0.85409 0.0
H1546 H 0.89124 0.6214 0.98277 0.0
H1547 H 0.85049 0.64285 0.11244 0.0
H1548 H 0.85466 0.62727 0.47618 0.0
H1549 H 0.84988 0.62695 0.34767 0.0
C1550 C 0.61946 0.12466 0.62358 0.0
C1551 C 0.62632 0.1104 0.59448 0.0
C1552 C 0.61928 0.1271 0.6974 0.0
C1553 C 0.61985 0.10485 0.86708 0.0
H1554 H 0.63471 0.14559 0.94843 0.0
C1555 C 0.62691 0.11337 0.17242 0.0
C1556 C 0.62382 0.12891 0.20079 0.0
C1557 C 0.62723 0.11095 0.09854 0.0
C1558 C 0.63022 0.13421 0.92694 0.0
H1559 H 0.63829 0.08752 0.61999 0.0
H1560 H 0.63763 0.09161 0.74834 0.0
H1561 H 0.63471 0.14207 0.82002 0.0
H1562 H 0.61834 0.15404 0.17418 0.0
H1563 H 0.61827 0.14982 0.04663 0.0
H1564 H 0.61494 0.09706 0.97341 0.0
C1565 C 0.63248 0.10095 0.71429 0.0
C1566 C 0.63031 0.13219 0.85305 0.0
C1567 C 0.63293 0.09865 0.64068 0.0
C1568 C 0.62087 0.14191 0.15396 0.0
C1569 C 0.62098 0.1395 0.08047 0.0
C1570 C 0.61953 0.10693 0.94098 0.0
C1571 C 0.62565 0.11518 0.74364 0.0
C1572 C 0.62518 0.11747 0.82221 0.0
C1573 C 0.6243 0.12401 0.0513 0.0
C1574 C 0.62474 0.12165 0.97222 0.0
H1575 H 0.61413 0.13385 0.58941 0.0
H1576 H 0.61385 0.13816 0.71842 0.0
H1577 H 0.61568 0.0934 0.8449 0.0
H1578 H 0.62937 0.10318 0.20714 0.0
H1579 H 0.63006 0.09888 0.07863 0.0
C1580 C 0.09423 0.36621 0.41594 0.0
C1581 C 0.10733 0.36475 0.46358 0.0
C1582 C 0.09684 0.36614 0.34257 0.0
C1583 C 0.12855 0.37282 0.20513 0.0
H1584 H 0.09795 0.35011 0.08339 0.0
C1585 C 0.14098 0.36364 0.90572 0.0
C1586 C 0.12788 0.36467 0.8579 0.0
C1587 C 0.13831 0.36372 0.97904 0.0
C1588 C 0.1065 0.35671 0.11636 0.0
H1589 H 0.13349 0.36177 0.47141 0.0
H1590 H 0.13821 0.36172 0.34271 0.0
H1591 H 0.09407 0.34975 0.2117 0.0
H1592 H 0.10164 0.36677 0.84954 0.0
H1593 H 0.09684 0.36703 0.97821 0.0
H1594 H 0.14096 0.37983 0.10988 0.0
C1595 C 0.12585 0.36314 0.36229 0.0
C1596 C 0.1043 0.35647 0.19021 0.0
C1597 C 0.12319 0.36317 0.43608 0.0
C1598 C 0.11196 0.36582 0.88511 0.0
C1599 C 0.10925 0.36592 0.95888 0.0
C1600 C 0.13074 0.37308 0.13129 0.0
C1601 C 0.11268 0.36458 0.31447 0.0
C1602 C 0.11529 0.36453 0.23572 0.0
C1603 C 0.12242 0.36491 1.00694 0.0
C1604 C 0.11977 0.36499 0.08573 0.0
H1605 H 0.08184 0.36748 0.43542 0.0
H1606 H 0.08642 0.36754 0.30782 0.0
H1607 H 0.13711 0.37939 0.23817 0.0
H1608 H 0.15341 0.36267 0.88644 0.0
H1609 H 0.14876 0.36261 1.01387 0.0
C1610 C 0.36484 0.87617 0.17792 0.0
C1611 C 0.36396 0.86025 0.20517 0.0
C1612 C 0.36495 0.87884 0.10416 0.0
C1613 C 0.35464 0.85856 0.93214 0.0
H1614 H 0.38272 0.8916 0.85085 0.0
C1615 C 0.36433 0.865 0.62663 0.0
C1616 C 0.36518 0.88095 0.59968 0.0
C1617 C 0.36427 0.86225 0.70035 0.0
C1618 C 0.37466 0.88241 0.87257 0.0
H1619 H 0.36263 0.83467 0.17668 0.0
H1620 H 0.363 0.83924 0.04914 0.0
H1621 H 0.38211 0.88775 0.97911 0.0
H1622 H 0.36648 0.9065 0.62866 0.0
H1623 H 0.3662 0.9018 0.75609 0.0
H1624 H 0.3472 0.85322 0.82557 0.0
C1625 C 0.36332 0.84974 0.08402 0.0
C1626 C 0.37429 0.88023 0.94639 0.0
C1627 C 0.36323 0.8471 0.15737 0.0
C1628 C 0.36591 0.89405 0.64773 0.0
C1629 C 0.36587 0.89133 0.72102 0.0
C1630 C 0.35501 0.86074 0.8583 0.0
C1631 C 0.36415 0.86564 0.05612 0.0
C1632 C 0.36429 0.86826 0.97735 0.0
C1633 C 0.36509 0.87541 0.74863 0.0
C1634 C 0.365 0.87272 0.82736 0.0
H1635 H 0.36547 0.88652 0.21349 0.0
H1636 H 0.36547 0.89127 0.08481 0.0
H1637 H 0.34658 0.84938 0.95385 0.0
H1638 H 0.36369 0.85469 0.59087 0.0
H1639 H 0.36378 0.84981 0.71948 0.0
C1640 C 0.87579 0.86758 0.42767 0.0
C1641 C 0.85991 0.866 0.45492 0.0
C1642 C 0.87851 0.86752 0.3539 0.0
C1643 C 0.85906 0.85515 0.18306 0.0
H1644 H 0.89005 0.88504 0.09882 0.0
C1645 C 0.86472 0.86348 0.87673 0.0
C1646 C 0.8805 0.86559 0.8492 0.0
C1647 C 0.86203 0.8636 0.95051 0.0
C1648 C 0.88147 0.87646 0.12135 0.0
H1649 H 0.83446 0.86327 0.42641 0.0
H1650 H 0.83912 0.86327 0.29888 0.0
H1651 H 0.88629 0.88479 0.22719 0.0
H1652 H 0.90586 0.86923 0.87733 0.0
H1653 H 0.9013 0.8692 1.00484 0.0
H1654 H 0.85427 0.84677 0.07734 0.0
C1655 C 0.84955 0.86431 0.3338 0.0
C1656 C 0.87933 0.87632 0.19524 0.0
C1657 C 0.84686 0.86443 0.40712 0.0
C1658 C 0.89352 0.86769 0.8968 0.0
C1659 C 0.89088 0.8678 0.97016 0.0
C1660 C 0.86122 0.85527 0.10919 0.0
C1661 C 0.8654 0.86581 0.30593 0.0
C1662 C 0.86807 0.86568 0.22721 0.0
C1663 C 0.8751 0.86582 0.99833 0.0
C1664 C 0.87247 0.86592 0.07715 0.0
H1665 H 0.88606 0.86891 0.46321 0.0
H1666 H 0.8909 0.8686 0.3345 0.0
H1667 H 0.85045 0.8466 0.20567 0.0
H1668 H 0.8545 0.86161 0.84144 0.0
H1669 H 0.84969 0.86213 0.96998 0.0
C1670 C 0.86643 0.09444 0.16794 0.0
C1671 C 0.8649 0.10753 0.21572 0.0
C1672 C 0.86638 0.09707 0.09459 0.0
C1673 C 0.87294 0.12883 0.9574 0.0
H1674 H 0.85035 0.09816 0.83553 0.0
C1675 C 0.86374 0.14125 0.65808 0.0
C1676 C 0.86477 0.12814 0.61015 0.0
C1677 C 0.86384 0.13858 0.73139 0.0
C1678 C 0.85692 0.10673 0.86853 0.0
H1679 H 0.86183 0.13367 0.22385 0.0
H1680 H 0.8618 0.13841 0.0952 0.0
H1681 H 0.85002 0.09425 0.96379 0.0
H1682 H 0.86689 0.10191 0.60159 0.0
H1683 H 0.86721 0.09712 0.73021 0.0
H1684 H 0.8799 0.14128 0.86223 0.0
C1685 C 0.86326 0.12606 0.11463 0.0
C1686 C 0.8567 0.10451 0.94236 0.0
C1687 C 0.86327 0.12339 0.1884 0.0
C1688 C 0.86595 0.11222 0.63725 0.0
C1689 C 0.86608 0.10952 0.711 0.0
C1690 C 0.87319 0.13103 0.88358 0.0
C1691 C 0.86477 0.1129 0.06666 0.0
C1692 C 0.86471 0.11552 0.98793 0.0
C1693 C 0.86506 0.12269 0.75918 0.0
C1694 C 0.86515 0.12004 0.83796 0.0
H1695 H 0.86774 0.08205 0.18727 0.0
H1696 H 0.86783 0.08665 0.05972 0.0
H1697 H 0.87948 0.13741 0.99049 0.0
H1698 H 0.86275 0.15367 0.63889 0.0
H1699 H 0.86273 0.14902 0.76631 0.0
C1700 C 0.12411 0.11947 0.8747 0.0
C1701 C 0.11031 0.12709 0.84532 0.0
C1702 C 0.12649 0.11928 0.94851 0.0
C1703 C 0.11164 0.13877 0.11767 0.0
H1704 H 0.13185 0.10089 0.20419 0.0
C1705 C 0.11295 0.1279 0.42364 0.0
C1706 C 0.12819 0.12337 0.45149 0.0
C1707 C 0.11045 0.12829 0.34987 0.0
C1708 C 0.12624 0.11159 0.18079 0.0
H1709 H 0.08821 0.14049 0.87023 0.0
H1710 H 0.09196 0.13969 0.99805 0.0
H1711 H 0.12849 0.10191 0.07576 0.0
H1712 H 0.15269 0.11558 0.42419 0.0
H1713 H 0.14827 0.11596 0.29617 0.0
H1714 H 0.10909 0.14822 0.22341 0.0
C1715 C 0.10127 0.13423 0.96477 0.0
C1716 C 0.1244 0.11225 0.10688 0.0
C1717 C 0.09903 0.13459 0.89116 0.0
C1718 C 0.14079 0.11908 0.40432 0.0
C1719 C 0.13824 0.11922 0.33093 0.0
C1720 C 0.11328 0.138 0.19166 0.0
C1721 C 0.11501 0.12653 0.99485 0.0
C1722 C 0.11713 0.12588 0.07398 0.0
C1723 C 0.12308 0.12391 0.30264 0.0
C1724 C 0.12068 0.12444 0.22413 0.0
H1725 H 0.133 0.11355 0.84073 0.0
H1726 H 0.13738 0.11348 0.96909 0.0
H1727 H 0.10626 0.14964 0.0948 0.0
H1728 H 0.10311 0.13144 0.45867 0.0
H1729 H 0.0986 0.13191 0.32975 0.0
C1730 C 0.12374 0.84664 0.66063 0.0
C1731 C 0.12215 0.8597 0.61282 0.0
C1732 C 0.12391 0.84933 0.73393 0.0
C1733 C 0.11205 0.87922 0.87258 0.0
H1734 H 0.14158 0.8539 0.99006 0.0
C1735 C 0.12084 0.89333 0.17078 0.0
C1736 C 0.12283 0.88028 0.2184 0.0
C1737 C 0.12075 0.89069 0.09743 0.0
C1738 C 0.13309 0.86093 0.95832 0.0
H1739 H 0.11926 0.88586 0.60448 0.0
H1740 H 0.11967 0.89071 0.73314 0.0
H1741 H 0.14168 0.85007 0.86173 0.0
H1742 H 0.12664 0.85423 0.2262 0.0
H1743 H 0.12616 0.84944 0.09765 0.0
H1744 H 0.10341 0.89003 0.96911 0.0
C1745 C 0.12072 0.87831 0.71377 0.0
C1746 C 0.13317 0.85876 0.88446 0.0
C1747 C 0.1206 0.87558 0.64003 0.0
C1748 C 0.12487 0.86448 0.19089 0.0
C1749 C 0.12476 0.8618 0.11712 0.0
C1750 C 0.11195 0.88137 0.94645 0.0
C1751 C 0.12245 0.86519 0.76177 0.0
C1752 C 0.12264 0.86786 0.84046 0.0
C1753 C 0.12263 0.8749 0.06929 0.0
C1754 C 0.12249 0.87227 0.9905 0.0
H1755 H 0.12488 0.83423 0.64136 0.0
H1756 H 0.12496 0.83889 0.76887 0.0
H1757 H 0.10358 0.88626 0.84076 0.0
H1758 H 0.11936 0.90569 0.19023 0.0
H1759 H 0.11941 0.90114 0.06272 0.0
loop_
_geom_bond_atom_site_label_1
_geom_bond_atom_site_label_2
_geom_bond_distance
_geom_bond_site_symmetry_2
_ccdc_geom_bond_type
Tb0 O3 2.453 1_554 S
Tb0 O4 2.596 . S
Tb0 O5 2.374 . S
Tb0 O13 2.343 . S
Tb0 O15 2.353 . S
Tb0 O17 2.427 . S
Tb0 O18 2.513 . S
C1 O5 1.251 . S
C1 O7 1.263 . S
Tb2 O4 2.343 . S
Tb2 O7 2.353 . S
Tb2 O10 2.427 . S
Tb2 O11 2.513 . S
Tb2 O12 2.453 . S
Tb2 O13 2.596 . S
Tb2 O14 2.374 . S
O3 Tb0 2.453 1_556 S
O3 C19 1.245 1_556 S
O4 Tb0 2.596 . S
O4 Tb2 2.343 . S
O4 C19 1.259 . S
O5 Tb0 2.374 . S
O5 C1 1.251 . S
C6 O10 1.275 . S
C6 O11 1.246 . S
O7 C1 1.263 . S
O7 Tb2 2.353 . S
C8 O12 1.245 . S
C8 O13 1.259 . S
C9 O14 1.250 . S
C9 O15 1.263 . S
O10 Tb2 2.427 . S
O10 C6 1.275 . S
O11 Tb2 2.513 . S
O11 C6 1.246 . S
O12 Tb2 2.453 . S
O12 C8 1.245 . S
O13 Tb0 2.343 . S
O13 Tb2 2.596 . S
O13 C8 1.259 . S
O14 Tb2 2.374 . S
O14 C9 1.250 . S
O15 Tb0 2.353 . S
O15 C9 1.263 . S
C16 O17 1.275 . S
C16 O18 1.246 . S
O17 Tb0 2.427 . S
O17 C16 1.275 . S
O18 Tb0 2.513 . S
O18 C16 1.246 . S
C19 O3 1.245 1_554 S
C19 O4 1.259 . S
Tb20 O23 2.453 . S
Tb20 O24 2.596 . S
Tb20 O25 2.374 . S
Tb20 O33 2.343 . S
Tb20 O35 2.353 . S
Tb20 O37 2.427 . S
Tb20 O38 2.513 . S
C21 O25 1.251 . S
C21 O27 1.263 . S
Tb22 O24 2.343 . S
Tb22 O27 2.353 . S
Tb22 O30 2.427 . S
Tb22 O31 2.513 . S
Tb22 O32 2.453 1_556 S
Tb22 O33 2.596 . S
Tb22 O34 2.374 . S
O23 Tb20 2.453 . S
O23 C39 1.245 . S
O24 Tb20 2.596 . S
O24 Tb22 2.343 . S
O24 C39 1.259 . S
O25 Tb20 2.374 . S
O25 C21 1.251 . S
C26 O30 1.275 . S
C26 O31 1.246 . S
O27 C21 1.263 . S
O27 Tb22 2.353 . S
C28 O32 1.245 1_556 S
C28 O33 1.259 . S
C29 O34 1.250 . S
C29 O35 1.263 . S
O30 Tb22 2.427 . S
O30 C26 1.275 . S
O31 Tb22 2.513 . S
O31 C26 1.246 . S
O32 Tb22 2.453 1_554 S
O32 C28 1.245 1_554 S
O33 Tb20 2.343 . S
O33 Tb22 2.596 . S
O33 C28 1.259 . S
O34 Tb22 2.374 . S
O34 C29 1.250 . S
O35 Tb20 2.353 . S
O35 C29 1.263 . S
C36 O37 1.275 . S
C36 O38 1.246 . S
O37 Tb20 2.427 . S
O37 C36 1.275 . S
O38 Tb20 2.513 . S
O38 C36 1.246 . S
C39 O23 1.245 . S
C39 O24 1.259 . S
Tb40 O43 2.453 1_554 S
Tb40 O44 2.596 . S
Tb40 O45 2.374 . S
Tb40 O53 2.343 . S
Tb40 O55 2.353 . S
Tb40 O57 2.427 . S
Tb40 O58 2.513 . S
C41 O45 1.251 . S
C41 O47 1.263 . S
Tb42 O44 2.343 . S
Tb42 O47 2.353 . S
Tb42 O50 2.427 . S
Tb42 O51 2.513 . S
Tb42 O52 2.453 . S
Tb42 O53 2.596 . S
Tb42 O54 2.374 . S
O43 Tb40 2.453 1_556 S
O43 C59 1.245 1_556 S
O44 Tb40 2.596 . S
O44 Tb42 2.343 . S
O44 C59 1.259 . S
O45 Tb40 2.374 . S
O45 C41 1.251 . S
C46 O50 1.275 . S
C46 O51 1.246 . S
O47 C41 1.263 . S
O47 Tb42 2.353 . S
C48 O52 1.245 . S
C48 O53 1.259 . S
C49 O54 1.250 . S
C49 O55 1.263 . S
O50 Tb42 2.427 . S
O50 C46 1.275 . S
O51 Tb42 2.513 . S
O51 C46 1.246 . S
O52 Tb42 2.453 . S
O52 C48 1.245 . S
O53 Tb40 2.343 . S
O53 Tb42 2.596 . S
O53 C48 1.259 . S
O54 Tb42 2.374 . S
O54 C49 1.250 . S
O55 Tb40 2.353 . S
O55 C49 1.263 . S
C56 O57 1.275 . S
C56 O58 1.246 . S
O57 Tb40 2.427 . S
O57 C56 1.275 . S
O58 Tb40 2.513 . S
O58 C56 1.246 . S
C59 O43 1.245 1_554 S
C59 O44 1.259 . S
Tb60 O63 2.453 . S
Tb60 O64 2.596 . S
Tb60 O65 2.374 . S
Tb60 O73 2.343 . S
Tb60 O75 2.353 . S
Tb60 O77 2.427 . S
Tb60 O78 2.513 . S
C61 O65 1.251 . S
C61 O67 1.263 . S
Tb62 O64 2.343 . S
Tb62 O67 2.353 . S
Tb62 O70 2.427 . S
Tb62 O71 2.513 . S
Tb62 O72 2.453 1_556 S
Tb62 O73 2.596 . S
Tb62 O74 2.374 . S
O63 Tb60 2.453 . S
O63 C79 1.245 . S
O64 Tb60 2.596 . S
O64 Tb62 2.343 . S
O64 C79 1.259 . S
O65 Tb60 2.374 . S
O65 C61 1.251 . S
C66 O70 1.275 . S
C66 O71 1.246 . S
O67 C61 1.263 . S
O67 Tb62 2.353 . S
C68 O72 1.245 1_556 S
C68 O73 1.259 . S
C69 O74 1.250 . S
C69 O75 1.263 . S
O70 Tb62 2.427 . S
O70 C66 1.275 . S
O71 Tb62 2.513 . S
O71 C66 1.246 . S
O72 Tb62 2.453 1_554 S
O72 C68 1.245 1_554 S
O73 Tb60 2.343 . S
O73 Tb62 2.596 . S
O73 C68 1.259 . S
O74 Tb62 2.374 . S
O74 C69 1.250 . S
O75 Tb60 2.353 . S
O75 C69 1.263 . S
C76 O77 1.275 . S
C76 O78 1.246 . S
O77 Tb60 2.427 . S
O77 C76 1.275 . S
O78 Tb60 2.513 . S
O78 C76 1.246 . S
C79 O63 1.245 . S
C79 O64 1.259 . S
Tb80 O83 2.453 . S
Tb80 O84 2.596 . S
Tb80 O85 2.374 . S
Tb80 O93 2.343 . S
Tb80 O95 2.353 . S
Tb80 O97 2.427 . S
Tb80 O98 2.513 . S
C81 O85 1.251 . S
C81 O87 1.263 . S
Tb82 O84 2.343 . S
Tb82 O87 2.353 . S
Tb82 O90 2.427 . S
Tb82 O91 2.513 . S
Tb82 O92 2.453 1_554 S
Tb82 O93 2.596 . S
Tb82 O94 2.374 . S
O83 Tb80 2.453 . S
O83 C99 1.245 . S
O84 Tb80 2.596 . S
O84 Tb82 2.343 . S
O84 C99 1.259 . S
O85 Tb80 2.374 . S
O85 C81 1.251 . S
C86 O90 1.275 . S
C86 O91 1.246 . S
O87 C81 1.263 . S
O87 Tb82 2.353 . S
C88 O92 1.245 . S
C88 O93 1.259 1_556 S
C89 O94 1.250 . S
C89 O95 1.263 . S
O90 Tb82 2.427 . S
O90 C86 1.275 . S
O91 Tb82 2.513 . S
O91 C86 1.246 . S
O92 Tb82 2.453 1_556 S
O92 C88 1.245 . S
O93 Tb80 2.343 . S
O93 Tb82 2.596 . S
O93 C88 1.259 1_554 S
O94 Tb82 2.374 . S
O94 C89 1.250 . S
O95 Tb80 2.353 . S
O95 C89 1.263 . S
C96 O97 1.275 . S
C96 O98 1.246 . S
O97 Tb80 2.427 . S
O97 C96 1.275 . S
O98 Tb80 2.513 . S
O98 C96 1.246 . S
C99 O83 1.245 . S
C99 O84 1.259 . S
Tb100 O103 2.453 1_556 S
Tb100 O104 2.596 . S
Tb100 O105 2.374 . S
Tb100 O113 2.343 . S
Tb100 O115 2.353 . S
Tb100 O117 2.427 . S
Tb100 O118 2.513 . S
C101 O105 1.251 . S
C101 O107 1.263 . S
Tb102 O104 2.343 . S
Tb102 O107 2.353 . S
Tb102 O110 2.427 . S
Tb102 O111 2.513 . S
Tb102 O112 2.453 . S
Tb102 O113 2.596 . S
Tb102 O114 2.374 . S
O103 Tb100 2.453 1_554 S
O103 C119 1.245 . S
O104 Tb100 2.596 . S
O104 Tb102 2.343 . S
O104 C119 1.259 1_556 S
O105 Tb100 2.374 . S
O105 C101 1.251 . S
C106 O110 1.275 . S
C106 O111 1.246 . S
O107 C101 1.263 . S
O107 Tb102 2.353 . S
C108 O112 1.245 . S
C108 O113 1.259 . S
C109 O114 1.250 . S
C109 O115 1.263 . S
O110 Tb102 2.427 . S
O110 C106 1.275 . S
O111 Tb102 2.513 . S
O111 C106 1.246 . S
O112 Tb102 2.453 . S
O112 C108 1.245 . S
O113 Tb100 2.343 . S
O113 Tb102 2.596 . S
O113 C108 1.259 . S
O114 Tb102 2.374 . S
O114 C109 1.250 . S
O115 Tb100 2.353 . S
O115 C109 1.263 . S
C116 O117 1.275 . S
C116 O118 1.246 . S
O117 Tb100 2.427 . S
O117 C116 1.275 . S
O118 Tb100 2.513 . S
O118 C116 1.246 . S
C119 O103 1.245 . S
C119 O104 1.259 1_554 S
Tb120 O123 2.453 . S
Tb120 O124 2.596 . S
Tb120 O125 2.374 . S
Tb120 O133 2.343 . S
Tb120 O135 2.353 . S
Tb120 O137 2.427 . S
Tb120 O138 2.513 . S
C121 O125 1.251 . S
C121 O127 1.263 . S
Tb122 O124 2.343 . S
Tb122 O127 2.353 . S
Tb122 O130 2.427 . S
Tb122 O131 2.513 . S
Tb122 O132 2.453 1_554 S
Tb122 O133 2.596 . S
Tb122 O134 2.374 . S
O123 Tb120 2.453 . S
O123 C139 1.245 . S
O124 Tb120 2.596 . S
O124 Tb122 2.343 . S
O124 C139 1.259 . S
O125 Tb120 2.374 . S
O125 C121 1.251 . S
C126 O130 1.275 . S
C126 O131 1.246 . S
O127 C121 1.263 . S
O127 Tb122 2.353 . S
C128 O132 1.245 . S
C128 O133 1.259 1_556 S
C129 O134 1.250 . S
C129 O135 1.263 . S
O130 Tb122 2.427 . S
O130 C126 1.275 . S
O131 Tb122 2.513 . S
O131 C126 1.246 . S
O132 Tb122 2.453 1_556 S
O132 C128 1.245 . S
O133 Tb120 2.343 . S
O133 Tb122 2.596 . S
O133 C128 1.259 1_554 S
O134 Tb122 2.374 . S
O134 C129 1.250 . S
O135 Tb120 2.353 . S
O135 C129 1.263 . S
C136 O137 1.275 . S
C136 O138 1.246 . S
O137 Tb120 2.427 . S
O137 C136 1.275 . S
O138 Tb120 2.513 . S
O138 C136 1.246 . S
C139 O123 1.245 . S
C139 O124 1.259 . S
Tb140 O143 2.453 1_556 S
Tb140 O144 2.596 . S
Tb140 O145 2.374 . S
Tb140 O153 2.343 . S
Tb140 O155 2.353 . S
Tb140 O157 2.427 . S
Tb140 O158 2.513 . S
C141 O145 1.251 . S
C141 O147 1.263 . S
Tb142 O144 2.343 . S
Tb142 O147 2.353 . S
Tb142 O150 2.427 . S
Tb142 O151 2.513 . S
Tb142 O152 2.453 . S
Tb142 O153 2.596 . S
Tb142 O154 2.374 . S
O143 Tb140 2.453 1_554 S
O143 C159 1.245 . S
O144 Tb140 2.596 . S
O144 Tb142 2.343 . S
O144 C159 1.259 1_556 S
O145 Tb140 2.374 . S
O145 C141 1.251 . S
C146 O150 1.275 . S
C146 O151 1.246 . S
O147 C141 1.263 . S
O147 Tb142 2.353 . S
C148 O152 1.245 . S
C148 O153 1.259 . S
C149 O154 1.250 . S
C149 O155 1.263 . S
O150 Tb142 2.427 . S
O150 C146 1.275 . S
O151 Tb142 2.513 . S
O151 C146 1.246 . S
O152 Tb142 2.453 . S
O152 C148 1.245 . S
O153 Tb140 2.343 . S
O153 Tb142 2.596 . S
O153 C148 1.259 . S
O154 Tb142 2.374 . S
O154 C149 1.250 . S
O155 Tb140 2.353 . S
O155 C149 1.263 . S
C156 O157 1.275 . S
C156 O158 1.246 . S
O157 Tb140 2.427 . S
O157 C156 1.275 . S
O158 Tb140 2.513 . S
O158 C156 1.246 . S
C159 O143 1.245 . S
C159 O144 1.259 1_554 S
Tb160 O163 2.453 . S
Tb160 O164 2.596 . S
Tb160 O165 2.374 . S
Tb160 O173 2.343 . S
Tb160 O175 2.353 . S
Tb160 O177 2.427 . S
Tb160 O178 2.513 . S
C161 O165 1.251 . S
C161 O167 1.263 . S
Tb162 O164 2.343 . S
Tb162 O167 2.353 . S
Tb162 O170 2.427 . S
Tb162 O171 2.513 . S
Tb162 O172 2.453 . S
Tb162 O173 2.596 . S
Tb162 O174 2.374 . S
O163 Tb160 2.453 . S
O163 C179 1.245 . S
O164 Tb160 2.596 . S
O164 Tb162 2.343 . S
O164 C179 1.259 . S
O165 Tb160 2.374 . S
O165 C161 1.251 . S
C166 O170 1.275 . S
C166 O171 1.246 . S
O167 C161 1.263 . S
O167 Tb162 2.353 . S
C168 O172 1.245 . S
C168 O173 1.259 . S
C169 O174 1.250 . S
C169 O175 1.263 . S
O170 Tb162 2.427 . S
O170 C166 1.275 . S
O171 Tb162 2.513 . S
O171 C166 1.246 . S
O172 Tb162 2.453 . S
O172 C168 1.245 . S
O173 Tb160 2.343 . S
O173 Tb162 2.596 . S
O173 C168 1.259 . S
O174 Tb162 2.374 . S
O174 C169 1.250 . S
O175 Tb160 2.353 . S
O175 C169 1.263 . S
C176 O177 1.275 . S
C176 O178 1.246 . S
O177 Tb160 2.427 . S
O177 C176 1.275 . S
O178 Tb160 2.513 . S
O178 C176 1.246 . S
C179 O163 1.245 . S
C179 O164 1.259 . S
Tb180 O183 2.453 . S
Tb180 O184 2.596 . S
Tb180 O185 2.374 . S
Tb180 O193 2.343 . S
Tb180 O195 2.353 . S
Tb180 O197 2.427 . S
Tb180 O198 2.513 . S
C181 O185 1.251 . S
C181 O187 1.263 . S
Tb182 O184 2.343 . S
Tb182 O187 2.353 . S
Tb182 O190 2.427 . S
Tb182 O191 2.513 . S
Tb182 O192 2.453 . S
Tb182 O193 2.596 . S
Tb182 O194 2.374 . S
O183 Tb180 2.453 . S
O183 C199 1.245 . S
O184 Tb180 2.596 . S
O184 Tb182 2.343 . S
O184 C199 1.259 . S
O185 Tb180 2.374 . S
O185 C181 1.251 . S
C186 O190 1.275 . S
C186 O191 1.246 . S
O187 C181 1.263 . S
O187 Tb182 2.353 . S
C188 O192 1.245 . S
C188 O193 1.259 . S
C189 O194 1.250 . S
C189 O195 1.263 . S
O190 Tb182 2.427 . S
O190 C186 1.275 . S
O191 Tb182 2.513 . S
O191 C186 1.246 . S
O192 Tb182 2.453 . S
O192 C188 1.245 . S
O193 Tb180 2.343 . S
O193 Tb182 2.596 . S
O193 C188 1.259 . S
O194 Tb182 2.374 . S
O194 C189 1.250 . S
O195 Tb180 2.353 . S
O195 C189 1.263 . S
C196 O197 1.275 . S
C196 O198 1.246 . S
O197 Tb180 2.427 . S
O197 C196 1.275 . S
O198 Tb180 2.513 . S
O198 C196 1.246 . S
C199 O183 1.245 . S
C199 O184 1.259 . S
Tb200 O203 2.453 . S
Tb200 O204 2.596 . S
Tb200 O205 2.374 . S
Tb200 O213 2.343 . S
Tb200 O215 2.353 . S
Tb200 O217 2.427 . S
Tb200 O218 2.513 . S
C201 O205 1.251 . S
C201 O207 1.263 . S
Tb202 O204 2.343 . S
Tb202 O207 2.353 . S
Tb202 O210 2.427 . S
Tb202 O211 2.513 . S
Tb202 O212 2.453 . S
Tb202 O213 2.596 . S
Tb202 O214 2.374 . S
O203 Tb200 2.453 . S
O203 C219 1.245 . S
O204 Tb200 2.596 . S
O204 Tb202 2.343 . S
O204 C219 1.259 . S
O205 Tb200 2.374 . S
O205 C201 1.251 . S
C206 O210 1.275 . S
C206 O211 1.246 . S
O207 C201 1.263 . S
O207 Tb202 2.353 . S
C208 O212 1.245 . S
C208 O213 1.259 . S
C209 O214 1.250 . S
C209 O215 1.263 . S
O210 Tb202 2.427 . S
O210 C206 1.275 . S
O211 Tb202 2.513 . S
O211 C206 1.246 . S
O212 Tb202 2.453 . S
O212 C208 1.245 . S
O213 Tb200 2.343 . S
O213 Tb202 2.596 . S
O213 C208 1.259 . S
O214 Tb202 2.374 . S
O214 C209 1.250 . S
O215 Tb200 2.353 . S
O215 C209 1.263 . S
C216 O217 1.275 . S
C216 O218 1.246 . S
O217 Tb200 2.427 . S
O217 C216 1.275 . S
O218 Tb200 2.513 . S
O218 C216 1.246 . S
C219 O203 1.245 . S
C219 O204 1.259 . S
Tb220 O223 2.453 . S
Tb220 O224 2.596 . S
Tb220 O225 2.374 . S
Tb220 O233 2.343 . S
Tb220 O235 2.353 . S
Tb220 O237 2.427 . S
Tb220 O238 2.513 . S
C221 O225 1.251 . S
C221 O227 1.263 . S
Tb222 O224 2.343 . S
Tb222 O227 2.353 . S
Tb222 O230 2.427 . S
Tb222 O231 2.513 . S
Tb222 O232 2.453 . S
Tb222 O233 2.596 . S
Tb222 O234 2.374 . S
O223 Tb220 2.453 . S
O223 C239 1.245 . S
O224 Tb220 2.596 . S
O224 Tb222 2.343 . S
O224 C239 1.259 . S
O225 Tb220 2.374 . S
O225 C221 1.251 . S
C226 O230 1.275 . S
C226 O231 1.246 . S
O227 C221 1.263 . S
O227 Tb222 2.353 . S
C228 O232 1.245 . S
C228 O233 1.259 . S
C229 O234 1.250 . S
C229 O235 1.263 . S
O230 Tb222 2.427 . S
O230 C226 1.275 . S
O231 Tb222 2.513 . S
O231 C226 1.246 . S
O232 Tb222 2.453 . S
O232 C228 1.245 . S
O233 Tb220 2.343 . S
O233 Tb222 2.596 . S
O233 C228 1.259 . S
O234 Tb222 2.374 . S
O234 C229 1.250 . S
O235 Tb220 2.353 . S
O235 C229 1.263 . S
C236 O237 1.275 . S
C236 O238 1.246 . S
O237 Tb220 2.427 . S
O237 C236 1.275 . S
O238 Tb220 2.513 . S
O238 C236 1.246 . S
C239 O223 1.245 . S
C239 O224 1.259 . S
Tb240 O243 2.453 . S
Tb240 O244 2.596 . S
Tb240 O245 2.374 . S
Tb240 O253 2.343 . S
Tb240 O255 2.353 . S
Tb240 O257 2.427 . S
Tb240 O258 2.513 . S
C241 O245 1.251 . S
C241 O247 1.263 . S
Tb242 O244 2.343 . S
Tb242 O247 2.353 . S
Tb242 O250 2.427 . S
Tb242 O251 2.513 . S
Tb242 O252 2.453 . S
Tb242 O253 2.596 . S
Tb242 O254 2.374 . S
O243 Tb240 2.453 . S
O243 C259 1.245 . S
O244 Tb240 2.596 . S
O244 Tb242 2.343 . S
O244 C259 1.259 . S
O245 Tb240 2.374 . S
O245 C241 1.251 . S
C246 O250 1.275 . S
C246 O251 1.246 . S
O247 C241 1.263 . S
O247 Tb242 2.353 . S
C248 O252 1.245 . S
C248 O253 1.259 . S
C249 O254 1.250 . S
C249 O255 1.263 . S
O250 Tb242 2.427 . S
O250 C246 1.275 . S
O251 Tb242 2.513 . S
O251 C246 1.246 . S
O252 Tb242 2.453 . S
O252 C248 1.245 . S
O253 Tb240 2.343 . S
O253 Tb242 2.596 . S
O253 C248 1.259 . S
O254 Tb242 2.374 . S
O254 C249 1.250 . S
O255 Tb240 2.353 . S
O255 C249 1.263 . S
C256 O257 1.275 . S
C256 O258 1.246 . S
O257 Tb240 2.427 . S
O257 C256 1.275 . S
O258 Tb240 2.513 . S
O258 C256 1.246 . S
C259 O243 1.245 . S
C259 O244 1.259 . S
Tb260 O263 2.453 . S
Tb260 O264 2.596 . S
Tb260 O265 2.374 . S
Tb260 O273 2.343 . S
Tb260 O275 2.353 . S
Tb260 O277 2.427 . S
Tb260 O278 2.513 . S
C261 O265 1.251 . S
C261 O267 1.263 . S
Tb262 O264 2.343 . S
Tb262 O267 2.353 . S
Tb262 O270 2.427 . S
Tb262 O271 2.513 . S
Tb262 O272 2.453 . S
Tb262 O273 2.596 . S
Tb262 O274 2.374 . S
O263 Tb260 2.453 . S
O263 C279 1.245 . S
O264 Tb260 2.596 . S
O264 Tb262 2.343 . S
O264 C279 1.259 . S
O265 Tb260 2.374 . S
O265 C261 1.251 . S
C266 O270 1.275 . S
C266 O271 1.246 . S
O267 C261 1.263 . S
O267 Tb262 2.353 . S
C268 O272 1.245 . S
C268 O273 1.259 . S
C269 O274 1.250 . S
C269 O275 1.263 . S
O270 Tb262 2.427 . S
O270 C266 1.275 . S
O271 Tb262 2.513 . S
O271 C266 1.246 . S
O272 Tb262 2.453 . S
O272 C268 1.245 . S
O273 Tb260 2.343 . S
O273 Tb262 2.596 . S
O273 C268 1.259 . S
O274 Tb262 2.374 . S
O274 C269 1.250 . S
O275 Tb260 2.353 . S
O275 C269 1.263 . S
C276 O277 1.275 . S
C276 O278 1.246 . S
O277 Tb260 2.427 . S
O277 C276 1.275 . S
O278 Tb260 2.513 . S
O278 C276 1.246 . S
C279 O263 1.245 . S
C279 O264 1.259 . S
Tb280 O283 2.453 . S
Tb280 O284 2.596 . S
Tb280 O285 2.374 . S
Tb280 O293 2.343 . S
Tb280 O295 2.353 . S
Tb280 O297 2.427 . S
Tb280 O298 2.513 . S
C281 O285 1.251 . S
C281 O287 1.263 . S
Tb282 O284 2.343 . S
Tb282 O287 2.353 . S
Tb282 O290 2.427 . S
Tb282 O291 2.513 . S
Tb282 O292 2.453 . S
Tb282 O293 2.596 . S
Tb282 O294 2.374 . S
O283 Tb280 2.453 . S
O283 C299 1.245 . S
O284 Tb280 2.596 . S
O284 Tb282 2.343 . S
O284 C299 1.259 . S
O285 Tb280 2.374 . S
O285 C281 1.251 . S
C286 O290 1.275 . S
C286 O291 1.246 . S
O287 C281 1.263 . S
O287 Tb282 2.353 . S
C288 O292 1.245 . S
C288 O293 1.259 . S
C289 O294 1.250 . S
C289 O295 1.263 . S
O290 Tb282 2.427 . S
O290 C286 1.275 . S
O291 Tb282 2.513 . S
O291 C286 1.246 . S
O292 Tb282 2.453 . S
O292 C288 1.245 . S
O293 Tb280 2.343 . S
O293 Tb282 2.596 . S
O293 C288 1.259 . S
O294 Tb282 2.374 . S
O294 C289 1.250 . S
O295 Tb280 2.353 . S
O295 C289 1.263 . S
C296 O297 1.275 . S
C296 O298 1.246 . S
O297 Tb280 2.427 . S
O297 C296 1.275 . S
O298 Tb280 2.513 . S
O298 C296 1.246 . S
C299 O283 1.245 . S
C299 O284 1.259 . S
Tb300 O303 2.453 . S
Tb300 O304 2.596 . S
Tb300 O305 2.374 . S
Tb300 O313 2.343 . S
Tb300 O315 2.353 . S
Tb300 O317 2.427 . S
Tb300 O318 2.513 . S
C301 O305 1.251 . S
C301 O307 1.263 . S
Tb302 O304 2.343 . S
Tb302 O307 2.353 . S
Tb302 O310 2.427 . S
Tb302 O311 2.513 . S
Tb302 O312 2.453 . S
Tb302 O313 2.596 . S
Tb302 O314 2.374 . S
O303 Tb300 2.453 . S
O303 C319 1.245 . S
O304 Tb300 2.596 . S
O304 Tb302 2.343 . S
O304 C319 1.259 . S
O305 Tb300 2.374 . S
O305 C301 1.251 . S
C306 O310 1.275 . S
C306 O311 1.246 . S
O307 C301 1.263 . S
O307 Tb302 2.353 . S
C308 O312 1.245 . S
C308 O313 1.259 . S
C309 O314 1.250 . S
C309 O315 1.263 . S
O310 Tb302 2.427 . S
O310 C306 1.275 . S
O311 Tb302 2.513 . S
O311 C306 1.246 . S
O312 Tb302 2.453 . S
O312 C308 1.245 . S
O313 Tb300 2.343 . S
O313 Tb302 2.596 . S
O313 C308 1.259 . S
O314 Tb302 2.374 . S
O314 C309 1.250 . S
O315 Tb300 2.353 . S
O315 C309 1.263 . S
C316 O317 1.275 . S
C316 O318 1.246 . S
O317 Tb300 2.427 . S
O317 C316 1.275 . S
O318 Tb300 2.513 . S
O318 C316 1.246 . S
C319 O303 1.245 . S
C319 O304 1.259 . S
C320 C321 1.349 . S
C320 C322 1.327 . S
C320 H345 0.950 . S
C321 C320 1.349 . S
C321 C337 1.349 . S
C322 C320 1.327 . S
C322 C341 1.429 . S
C322 H346 0.950 . S
C323 C340 1.574 1_565 S
C323 C342 1.368 . S
C323 H347 0.949 . S
H324 C328 0.949 . S
C325 C326 1.349 . S
C325 C327 1.327 . S
C325 H348 0.950 . S
C326 C325 1.349 . S
C326 C338 1.349 . S
C327 C325 1.327 . S
C327 C343 1.429 . S
C327 H349 0.950 . S
C328 H324 0.949 . S
C328 C336 1.574 1_545 S
C328 C344 1.368 . S
H329 C337 0.950 . S
H330 C335 0.950 . S
H331 C336 0.949 . S
H332 C338 0.950 . S
H333 C339 0.950 . S
H334 C340 0.949 . S
C335 H330 0.950 . S
C335 C337 1.327 . S
C335 C341 1.429 . S
C336 C328 1.574 1_565 S
C336 H331 0.949 . S
C336 C342 1.368 . S
C337 C321 1.349 . S
C337 H329 0.950 . S
C337 C335 1.327 . S
C338 C326 1.349 . S
C338 H332 0.950 . S
C338 C339 1.327 . S
C339 H333 0.950 . S
C339 C338 1.327 . S
C339 C343 1.429 . S
C340 C323 1.574 1_545 S
C340 H334 0.949 . S
C340 C344 1.368 . S
C341 C322 1.429 . S
C341 C335 1.429 . S
C341 C342 1.523 . S
C342 C323 1.368 . S
C342 C336 1.368 . S
C342 C341 1.523 . S
C343 C327 1.429 . S
C343 C339 1.429 . S
C343 C344 1.523 . S
C344 C328 1.368 . S
C344 C340 1.368 . S
C344 C343 1.523 . S
H345 C320 0.950 . S
H346 C322 0.950 . S
H347 C323 0.949 . S
H348 C325 0.950 . S
H349 C327 0.950 . S
C350 C351 1.349 . S
C350 C352 1.327 . S
C350 H375 0.950 . S
C351 C350 1.349 . S
C351 C367 1.349 . S
C352 C350 1.327 . S
C352 C371 1.429 . S
C352 H376 0.950 . S
C353 C370 1.535 1_655 S
C353 C372 1.386 . S
C353 H377 0.969 . S
H354 C358 0.949 . S
C355 C356 1.349 . S
C355 C357 1.327 . S
C355 H378 0.950 . S
C356 C355 1.349 . S
C356 C368 1.349 . S
C357 C355 1.327 . S
C357 C373 1.429 . S
C357 H379 0.950 . S
C358 H354 0.949 . S
C358 C366 1.574 1_455 S
C358 C374 1.368 . S
H359 C367 0.950 . S
H360 C365 0.950 . S
H361 C366 0.949 . S
H362 C368 0.950 . S
H363 C369 0.950 . S
H364 C370 0.949 . S
C365 H360 0.950 . S
C365 C367 1.327 . S
C365 C371 1.429 . S
C366 C358 1.574 1_655 S
C366 H361 0.949 . S
C366 C372 1.368 . S
C367 C351 1.349 . S
C367 H359 0.950 . S
C367 C365 1.327 . S
C368 C356 1.349 . S
C368 H362 0.950 . S
C368 C369 1.327 . S
C369 H363 0.950 . S
C369 C368 1.327 . S
C369 C373 1.429 . S
C370 C353 1.535 1_455 S
C370 H364 0.949 . S
C370 C374 1.368 . S
C371 C352 1.429 . S
C371 C365 1.429 . S
C371 C372 1.523 . S
C372 C353 1.386 . S
C372 C366 1.368 . S
C372 C371 1.523 . S
C373 C357 1.429 . S
C373 C369 1.429 . S
C373 C374 1.523 . S
C374 C358 1.368 . S
C374 C370 1.368 . S
C374 C373 1.523 . S
H375 C350 0.950 . S
H376 C352 0.950 . S
H377 C353 0.969 . S
H378 C355 0.950 . S
H379 C357 0.950 . S
C380 C381 1.349 . S
C380 C382 1.327 . S
C380 H405 0.950 . S
C381 C380 1.349 . S
C381 C397 1.349 . S
C382 C380 1.327 . S
C382 C401 1.429 . S
C382 H406 0.950 . S
C383 C400 1.574 1_565 S
C383 C402 1.368 . S
C383 H407 0.949 . S
H384 C388 0.939 1_545 S
C385 C386 1.349 . S
C385 C387 1.327 . S
C385 H408 0.950 . S
C386 C385 1.349 . S
C386 C398 1.349 . S
C387 C385 1.327 . S
C387 C403 1.429 . S
C387 H409 0.950 . S
C388 H384 0.939 1_565 S
C388 C396 1.598 . S
C388 C404 1.356 1_565 S
H389 C397 0.950 . S
H390 C395 0.950 . S
H391 C396 0.949 . S
H392 C398 0.950 . S
H393 C399 0.950 . S
H394 C400 0.949 . S
C395 H390 0.950 . S
C395 C397 1.327 . S
C395 C401 1.429 . S
C396 C388 1.598 . S
C396 H391 0.949 . S
C396 C402 1.368 . S
C397 C381 1.349 . S
C397 H389 0.950 . S
C397 C395 1.327 . S
C398 C386 1.349 . S
C398 H392 0.950 . S
C398 C399 1.327 . S
C399 H393 0.950 . S
C399 C398 1.327 . S
C399 C403 1.429 . S
C400 C383 1.574 1_545 S
C400 H394 0.949 . S
C400 C404 1.368 . S
C401 C382 1.429 . S
C401 C395 1.429 . S
C401 C402 1.523 . S
C402 C383 1.368 . S
C402 C396 1.368 . S
C402 C401 1.523 . S
C403 C387 1.429 . S
C403 C399 1.429 . S
C403 C404 1.523 . S
C404 C388 1.356 1_545 S
C404 C400 1.368 . S
C404 C403 1.523 . S
H405 C380 0.950 . S
H406 C382 0.950 . S
H407 C383 0.949 . S
H408 C385 0.950 . S
H409 C387 0.950 . S
C410 C411 1.349 . S
C410 C412 1.327 . S
C410 H435 0.950 . S
C411 C410 1.349 . S
C411 C427 1.349 . S
C412 C410 1.327 . S
C412 C431 1.429 . S
C412 H436 0.950 . S
C413 C430 1.555 1_655 S
C413 C432 1.368 . S
C413 H437 0.949 . S
H414 C418 0.949 . S
C415 C416 1.349 . S
C415 C417 1.327 . S
C415 H438 0.950 . S
C416 C415 1.349 . S
C416 C428 1.349 . S
C417 C415 1.327 . S
C417 C433 1.429 . S
C417 H439 0.950 . S
C418 H414 0.949 . S
C418 C426 1.574 1_455 S
C418 C434 1.368 . S
H419 C427 0.950 . S
H420 C425 0.950 . S
H421 C426 0.949 . S
H422 C428 0.950 . S
H423 C429 0.950 . S
H424 C430 0.958 . S
C425 H420 0.950 . S
C425 C427 1.327 . S
C425 C431 1.429 . S
C426 C418 1.574 1_655 S
C426 H421 0.949 . S
C426 C432 1.368 . S
C427 C411 1.349 . S
C427 H419 0.950 . S
C427 C425 1.327 . S
C428 C416 1.349 . S
C428 H422 0.950 . S
C428 C429 1.327 . S
C429 H423 0.950 . S
C429 C428 1.327 . S
C429 C433 1.429 . S
C430 C413 1.555 1_455 S
C430 H424 0.958 . S
C430 C434 1.377 . S
C431 C412 1.429 . S
C431 C425 1.429 . S
C431 C432 1.523 . S
C432 C413 1.368 . S
C432 C426 1.368 . S
C432 C431 1.523 . S
C433 C417 1.429 . S
C433 C429 1.429 . S
C433 C434 1.523 . S
C434 C418 1.368 . S
C434 C430 1.377 . S
C434 C433 1.523 . S
H435 C410 0.950 . S
H436 C412 0.950 . S
H437 C413 0.949 . S
H438 C415 0.950 . S
H439 C417 0.950 . S
C440 C441 1.349 . S
C440 C442 1.327 . S
C440 H465 0.950 . S
C441 C440 1.349 . S
C441 C457 1.349 . S
C442 C440 1.327 . S
C442 C461 1.429 . S
C442 H466 0.950 . S
C443 C460 1.574 . S
C443 C462 1.368 1_556 S
C443 H467 0.949 . S
H444 C448 0.949 . S
C445 C446 1.349 . S
C445 C447 1.327 . S
C445 H468 0.950 . S
C446 C445 1.349 . S
C446 C458 1.349 1_556 S
C447 C445 1.327 . S
C447 C463 1.429 1_556 S
C447 H469 0.950 . S
C448 H444 0.949 . S
C448 C456 1.574 . S
C448 C464 1.368 . S
H449 C457 0.950 1_556 S
H450 C455 0.950 1_556 S
H451 C456 0.949 . S
H452 C458 0.950 . S
H453 C459 0.950 . S
H454 C460 0.949 . S
C455 H450 0.950 1_554 S
C455 C457 1.327 . S
C455 C461 1.429 . S
C456 C448 1.574 . S
C456 H451 0.949 . S
C456 C462 1.368 . S
C457 C441 1.349 . S
C457 H449 0.950 1_554 S
C457 C455 1.327 . S
C458 C446 1.349 1_554 S
C458 H452 0.950 . S
C458 C459 1.327 . S
C459 H453 0.950 . S
C459 C458 1.327 . S
C459 C463 1.429 . S
C460 C443 1.574 . S
C460 H454 0.949 . S
C460 C464 1.368 1_556 S
C461 C442 1.429 . S
C461 C455 1.429 . S
C461 C462 1.523 . S
C462 C443 1.368 1_554 S
C462 C456 1.368 . S
C462 C461 1.523 . S
C463 C447 1.429 1_554 S
C463 C459 1.429 . S
C463 C464 1.523 . S
C464 C448 1.368 . S
C464 C460 1.368 1_554 S
C464 C463 1.523 . S
H465 C440 0.950 . S
H466 C442 0.950 . S
H467 C443 0.949 . S
H468 C445 0.950 . S
H469 C447 0.950 . S
C470 C471 1.349 . S
C470 C472 1.327 . S
C470 H495 0.950 . S
C471 C470 1.349 . S
C471 C487 1.349 1_554 S
C472 C470 1.327 . S
C472 C491 1.429 1_554 S
C472 H496 0.950 . S
C473 C490 1.574 . S
C473 C492 1.368 . S
C473 H497 0.949 . S
H474 C478 0.949 1_554 S
C475 C476 1.349 . S
C475 C477 1.327 . S
C475 H498 0.950 . S
C476 C475 1.349 . S
C476 C488 1.349 . S
C477 C475 1.327 . S
C477 C493 1.429 . S
C477 H499 0.950 . S
C478 H474 0.949 1_556 S
C478 C486 1.574 1_556 S
C478 C494 1.368 . S
H479 C487 0.950 . S
H480 C485 0.950 . S
H481 C486 0.949 . S
H482 C488 0.950 . S
H483 C489 0.950 1_554 S
H484 C490 0.949 . S
C485 H480 0.950 . S
C485 C487 1.327 . S
C485 C491 1.429 . S
C486 C478 1.574 1_554 S
C486 H481 0.949 . S
C486 C492 1.368 1_554 S
C487 C471 1.349 1_556 S
C487 H479 0.950 . S
C487 C485 1.327 . S
C488 C476 1.349 . S
C488 H482 0.950 . S
C488 C489 1.327 . S
C489 H483 0.950 1_556 S
C489 C488 1.327 . S
C489 C493 1.429 . S
C490 C473 1.574 . S
C490 H484 0.949 . S
C490 C494 1.368 . S
C491 C472 1.429 1_556 S
C491 C485 1.429 . S
C491 C492 1.523 . S
C492 C473 1.368 . S
C492 C486 1.368 1_556 S
C492 C491 1.523 . S
C493 C477 1.429 . S
C493 C489 1.429 . S
C493 C494 1.523 . S
C494 C478 1.368 . S
C494 C490 1.368 . S
C494 C493 1.523 . S
H495 C470 0.950 . S
H496 C472 0.950 . S
H497 C473 0.949 . S
H498 C475 0.950 . S
H499 C477 0.950 . S
C500 C501 1.349 . S
C500 C502 1.327 . S
C500 H525 0.950 . S
C501 C500 1.349 . S
C501 C517 1.349 . S
C502 C500 1.327 . S
C502 C521 1.429 . S
C502 H526 0.950 . S
C503 C520 1.574 . S
C503 C522 1.368 1_556 S
C503 H527 0.949 . S
H504 C508 0.949 . S
C505 C506 1.349 . S
C505 C507 1.327 . S
C505 H528 0.950 . S
C506 C505 1.349 . S
C506 C518 1.349 1_556 S
C507 C505 1.327 . S
C507 C523 1.429 1_556 S
C507 H529 0.950 . S
C508 H504 0.949 . S
C508 C516 1.574 . S
C508 C524 1.368 . S
H509 C517 0.950 1_556 S
H510 C515 0.950 1_556 S
H511 C516 0.949 . S
H512 C518 0.950 . S
H513 C519 0.950 . S
H514 C520 0.949 . S
C515 H510 0.950 1_554 S
C515 C517 1.327 . S
C515 C521 1.429 . S
C516 C508 1.574 . S
C516 H511 0.949 . S
C516 C522 1.368 . S
C517 C501 1.349 . S
C517 H509 0.950 1_554 S
C517 C515 1.327 . S
C518 C506 1.349 1_554 S
C518 H512 0.950 . S
C518 C519 1.327 . S
C519 H513 0.950 . S
C519 C518 1.327 . S
C519 C523 1.429 . S
C520 C503 1.574 . S
C520 H514 0.949 . S
C520 C524 1.368 1_556 S
C521 C502 1.429 . S
C521 C515 1.429 . S
C521 C522 1.523 . S
C522 C503 1.368 1_554 S
C522 C516 1.368 . S
C522 C521 1.523 . S
C523 C507 1.429 1_554 S
C523 C519 1.429 . S
C523 C524 1.523 . S
C524 C508 1.368 . S
C524 C520 1.368 1_554 S
C524 C523 1.523 . S
H525 C500 0.950 . S
H526 C502 0.950 . S
H527 C503 0.949 . S
H528 C505 0.950 . S
H529 C507 0.950 . S
C530 C531 1.349 1_556 S
C530 C532 1.327 . S
C530 H555 0.950 . S
C531 C530 1.349 1_554 S
C531 C547 1.349 . S
C532 C530 1.327 . S
C532 C551 1.429 . S
C532 H556 0.950 . S
C533 C550 1.574 . S
C533 C552 1.368 1_554 S
C533 H557 0.949 . S
H534 C538 0.949 . S
C535 C536 1.349 . S
C535 C537 1.327 . S
C535 H558 0.950 1_556 S
C536 C535 1.349 . S
C536 C548 1.349 . S
C537 C535 1.327 . S
C537 C553 1.429 . S
C537 H559 0.950 1_556 S
C538 H534 0.949 . S
C538 C546 1.574 . S
C538 C554 1.368 . S
H539 C547 0.950 . S
H540 C545 0.950 . S
H541 C546 0.949 . S
H542 C548 0.950 . S
H543 C549 0.950 . S
H544 C550 0.949 . S
C545 H540 0.950 . S
C545 C547 1.327 . S
C545 C551 1.429 1_554 S
C546 C538 1.574 . S
C546 H541 0.949 . S
C546 C552 1.368 . S
C547 C531 1.349 . S
C547 H539 0.950 . S
C547 C545 1.327 . S
C548 C536 1.349 . S
C548 H542 0.950 . S
C548 C549 1.327 . S
C549 H543 0.950 . S
C549 C548 1.327 . S
C549 C553 1.429 . S
C550 C533 1.574 . S
C550 H544 0.949 . S
C550 C554 1.368 1_554 S
C551 C532 1.429 . S
C551 C545 1.429 1_556 S
C551 C552 1.523 . S
C552 C533 1.368 1_556 S
C552 C546 1.368 . S
C552 C551 1.523 . S
C553 C537 1.429 . S
C553 C549 1.429 . S
C553 C554 1.523 . S
C554 C538 1.368 . S
C554 C550 1.368 1_556 S
C554 C553 1.523 . S
H555 C530 0.950 . S
H556 C532 0.950 . S
H557 C533 0.949 . S
H558 C535 0.950 1_554 S
H559 C537 0.950 1_554 S
C560 C561 1.349 . S
C560 C562 1.327 . S
C560 H585 0.950 . S
C561 C560 1.349 . S
C561 C577 1.349 . S
C562 C560 1.327 . S
C562 C581 1.429 . S
C562 H586 0.950 . S
C563 C580 1.574 . S
C563 C582 1.368 . S
C563 H587 0.949 . S
H564 C568 0.949 . S
C565 C566 1.349 . S
C565 C567 1.327 . S
C565 H588 0.950 . S
C566 C565 1.349 . S
C566 C578 1.349 . S
C567 C565 1.327 . S
C567 C583 1.429 . S
C567 H589 0.950 . S
C568 H564 0.949 . S
C568 C576 1.574 . S
C568 C584 1.368 . S
H569 C577 0.950 . S
H570 C575 0.950 . S
H571 C576 0.949 . S
H572 C578 0.950 . S
H573 C579 0.950 . S
H574 C580 0.949 . S
C575 H570 0.950 . S
C575 C577 1.327 . S
C575 C581 1.429 . S
C576 C568 1.574 . S
C576 H571 0.949 . S
C576 C582 1.368 . S
C577 C561 1.349 . S
C577 H569 0.950 . S
C577 C575 1.327 . S
C578 C566 1.349 . S
C578 H572 0.950 . S
C578 C579 1.327 . S
C579 H573 0.950 . S
C579 C578 1.327 . S
C579 C583 1.429 . S
C580 C563 1.574 . S
C580 H574 0.949 . S
C580 C584 1.368 . S
C581 C562 1.429 . S
C581 C575 1.429 . S
C581 C582 1.523 . S
C582 C563 1.368 . S
C582 C576 1.368 . S
C582 C581 1.523 . S
C583 C567 1.429 . S
C583 C579 1.429 . S
C583 C584 1.523 . S
C584 C568 1.368 . S
C584 C580 1.368 . S
C584 C583 1.523 . S
H585 C560 0.950 . S
H586 C562 0.950 . S
H587 C563 0.949 . S
H588 C565 0.950 . S
H589 C567 0.950 . S
C590 C591 1.349 . S
C590 C592 1.327 . S
C590 H615 0.950 . S
C591 C590 1.349 . S
C591 C607 1.349 . S
C592 C590 1.327 . S
C592 C611 1.429 . S
C592 H616 0.950 . S
C593 C610 1.574 . S
C593 C612 1.368 . S
C593 H617 0.949 . S
H594 C598 0.949 . S
C595 C596 1.349 . S
C595 C597 1.327 . S
C595 H618 0.950 . S
C596 C595 1.349 . S
C596 C608 1.349 . S
C597 C595 1.327 . S
C597 C613 1.429 . S
C597 H619 0.950 . S
C598 H594 0.949 . S
C598 C606 1.574 . S
C598 C614 1.368 . S
H599 C607 0.950 . S
H600 C605 0.950 . S
H601 C606 0.949 . S
H602 C608 0.950 . S
H603 C609 0.950 . S
H604 C610 0.949 . S
C605 H600 0.950 . S
C605 C607 1.327 . S
C605 C611 1.429 . S
C606 C598 1.574 . S
C606 H601 0.949 . S
C606 C612 1.368 . S
C607 C591 1.349 . S
C607 H599 0.950 . S
C607 C605 1.327 . S
C608 C596 1.349 . S
C608 H602 0.950 . S
C608 C609 1.327 . S
C609 H603 0.950 . S
C609 C608 1.327 . S
C609 C613 1.429 . S
C610 C593 1.574 . S
C610 H604 0.949 . S
C610 C614 1.368 . S
C611 C592 1.429 . S
C611 C605 1.429 . S
C611 C612 1.523 . S
C612 C593 1.368 . S
C612 C606 1.368 . S
C612 C611 1.523 . S
C613 C597 1.429 . S
C613 C609 1.429 . S
C613 C614 1.523 . S
C614 C598 1.368 . S
C614 C610 1.368 . S
C614 C613 1.523 . S
H615 C590 0.950 . S
H616 C592 0.950 . S
H617 C593 0.949 . S
H618 C595 0.950 . S
H619 C597 0.950 . S
C620 C621 1.349 . S
C620 C622 1.327 . S
C620 H645 0.950 . S
C621 C620 1.349 . S
C621 C637 1.349 . S
C622 C620 1.327 . S
C622 C641 1.429 . S
C622 H646 0.950 . S
C623 C640 1.574 . S
C623 C642 1.368 . S
C623 H647 0.949 . S
H624 C628 0.949 . S
C625 C626 1.349 . S
C625 C627 1.327 . S
C625 H648 0.950 . S
C626 C625 1.349 . S
C626 C638 1.349 . S
C627 C625 1.327 . S
C627 C643 1.429 . S
C627 H649 0.950 . S
C628 H624 0.949 . S
C628 C636 1.574 . S
C628 C644 1.368 . S
H629 C637 0.950 . S
H630 C635 0.950 . S
H631 C636 0.949 . S
H632 C638 0.950 . S
H633 C639 0.950 . S
H634 C640 0.949 . S
C635 H630 0.950 . S
C635 C637 1.327 . S
C635 C641 1.429 . S
C636 C628 1.574 . S
C636 H631 0.949 . S
C636 C642 1.368 . S
C637 C621 1.349 . S
C637 H629 0.950 . S
C637 C635 1.327 . S
C638 C626 1.349 . S
C638 H632 0.950 . S
C638 C639 1.327 . S
C639 H633 0.950 . S
C639 C638 1.327 . S
C639 C643 1.429 . S
C640 C623 1.574 . S
C640 H634 0.949 . S
C640 C644 1.368 . S
C641 C622 1.429 . S
C641 C635 1.429 . S
C641 C642 1.523 . S
C642 C623 1.368 . S
C642 C636 1.368 . S
C642 C641 1.523 . S
C643 C627 1.429 . S
C643 C639 1.429 . S
C643 C644 1.523 . S
C644 C628 1.368 . S
C644 C640 1.368 . S
C644 C643 1.523 . S
H645 C620 0.950 . S
H646 C622 0.950 . S
H647 C623 0.949 . S
H648 C625 0.950 . S
H649 C627 0.950 . S
C650 C651 1.349 . S
C650 C652 1.327 . S
C650 H675 0.950 . S
C651 C650 1.349 . S
C651 C667 1.349 . S
C652 C650 1.327 . S
C652 C671 1.429 . S
C652 H676 0.950 . S
C653 C670 1.574 . S
C653 C672 1.368 . S
C653 H677 0.949 . S
H654 C658 0.949 . S
C655 C656 1.349 . S
C655 C657 1.327 . S
C655 H678 0.950 . S
C656 C655 1.349 . S
C656 C668 1.349 . S
C657 C655 1.327 . S
C657 C673 1.429 . S
C657 H679 0.950 . S
C658 H654 0.949 . S
C658 C666 1.574 . S
C658 C674 1.368 . S
H659 C667 0.950 . S
H660 C665 0.950 . S
H661 C666 0.949 . S
H662 C668 0.950 . S
H663 C669 0.950 . S
H664 C670 0.949 . S
C665 H660 0.950 . S
C665 C667 1.327 . S
C665 C671 1.429 . S
C666 C658 1.574 . S
C666 H661 0.949 . S
C666 C672 1.368 . S
C667 C651 1.349 . S
C667 H659 0.950 . S
C667 C665 1.327 . S
C668 C656 1.349 . S
C668 H662 0.950 . S
C668 C669 1.327 . S
C669 H663 0.950 . S
C669 C668 1.327 . S
C669 C673 1.429 . S
C670 C653 1.574 . S
C670 H664 0.949 . S
C670 C674 1.368 . S
C671 C652 1.429 . S
C671 C665 1.429 . S
C671 C672 1.523 . S
C672 C653 1.368 . S
C672 C666 1.368 . S
C672 C671 1.523 . S
C673 C657 1.429 . S
C673 C669 1.429 . S
C673 C674 1.523 . S
C674 C658 1.368 . S
C674 C670 1.368 . S
C674 C673 1.523 . S
H675 C650 0.950 . S
H676 C652 0.950 . S
H677 C653 0.949 . S
H678 C655 0.950 . S
H679 C657 0.950 . S
C680 C681 1.349 . S
C680 C682 1.327 . S
C680 H705 0.950 . S
C681 C680 1.349 . S
C681 C697 1.349 . S
C682 C680 1.327 . S
C682 C701 1.429 . S
C682 H706 0.950 . S
C683 C700 1.587 . S
C683 C702 1.368 . S
C683 H707 0.949 . S
H684 C688 0.949 . S
C685 C686 1.349 . S
C685 C687 1.327 . S
C685 H708 0.950 . S
C686 C685 1.349 . S
C686 C698 1.349 . S
C687 C685 1.327 . S
C687 C703 1.429 . S
C687 H709 0.950 . S
C688 H684 0.949 . S
C688 C696 1.574 1_545 S
C688 C704 1.368 . S
H689 C697 0.950 . S
H690 C695 0.950 . S
H691 C696 0.949 . S
H692 C698 0.950 . S
H693 C699 0.950 . S
H694 C700 0.943 1_545 S
C695 H690 0.950 . S
C695 C697 1.327 . S
C695 C701 1.429 . S
C696 C688 1.574 1_565 S
C696 H691 0.949 . S
C696 C702 1.368 . S
C697 C681 1.349 . S
C697 H689 0.950 . S
C697 C695 1.327 . S
C698 C686 1.349 . S
C698 H692 0.950 . S
C698 C699 1.327 . S
C699 H693 0.950 . S
C699 C698 1.327 . S
C699 C703 1.429 . S
C700 C683 1.587 . S
C700 H694 0.943 1_565 S
C700 C704 1.362 1_565 S
C701 C682 1.429 . S
C701 C695 1.429 . S
C701 C702 1.523 . S
C702 C683 1.368 . S
C702 C696 1.368 . S
C702 C701 1.523 . S
C703 C687 1.429 . S
C703 C699 1.429 . S
C703 C704 1.523 . S
C704 C688 1.368 . S
C704 C700 1.362 1_545 S
C704 C703 1.523 . S
H705 C680 0.950 . S
H706 C682 0.950 . S
H707 C683 0.949 . S
H708 C685 0.950 . S
H709 C687 0.950 . S
C710 C711 1.349 . S
C710 C712 1.327 . S
C710 H735 0.950 . S
C711 C710 1.349 . S
C711 C727 1.349 . S
C712 C710 1.327 . S
C712 C731 1.429 . S
C712 H736 0.950 . S
C713 C730 1.574 1_455 S
C713 C732 1.368 . S
C713 H737 0.949 . S
H714 C718 0.949 . S
C715 C716 1.349 . S
C715 C717 1.327 . S
C715 H738 0.950 . S
C716 C715 1.349 . S
C716 C728 1.349 . S
C717 C715 1.327 . S
C717 C733 1.429 . S
C717 H739 0.950 . S
C718 H714 0.949 . S
C718 C726 1.574 1_655 S
C718 C734 1.368 . S
H719 C727 0.950 . S
H720 C725 0.950 . S
H721 C726 0.949 . S
H722 C728 0.950 . S
H723 C729 0.950 . S
H724 C730 0.949 . S
C725 H720 0.950 . S
C725 C727 1.327 . S
C725 C731 1.429 . S
C726 C718 1.574 1_455 S
C726 H721 0.949 . S
C726 C732 1.368 . S
C727 C711 1.349 . S
C727 H719 0.950 . S
C727 C725 1.327 . S
C728 C716 1.349 . S
C728 H722 0.950 . S
C728 C729 1.327 . S
C729 H723 0.950 . S
C729 C728 1.327 . S
C729 C733 1.429 . S
C730 C713 1.574 1_655 S
C730 H724 0.949 . S
C730 C734 1.368 . S
C731 C712 1.429 . S
C731 C725 1.429 . S
C731 C732 1.523 . S
C732 C713 1.368 . S
C732 C726 1.368 . S
C732 C731 1.523 . S
C733 C717 1.429 . S
C733 C729 1.429 . S
C733 C734 1.523 . S
C734 C718 1.368 . S
C734 C730 1.368 . S
C734 C733 1.523 . S
H735 C710 0.950 . S
H736 C712 0.950 . S
H737 C713 0.949 . S
H738 C715 0.950 . S
H739 C717 0.950 . S
C740 C741 1.349 . S
C740 C742 1.327 . S
C740 H765 0.950 . S
C741 C740 1.349 . S
C741 C757 1.349 . S
C742 C740 1.327 . S
C742 C761 1.429 . S
C742 H766 0.950 . S
C743 C760 1.574 1_565 S
C743 C762 1.368 . S
C743 H767 0.949 . S
H744 C748 0.949 . S
C745 C746 1.349 . S
C745 C747 1.327 . S
C745 H768 0.950 . S
C746 C745 1.349 . S
C746 C758 1.349 . S
C747 C745 1.327 . S
C747 C763 1.429 . S
C747 H769 0.950 . S
C748 H744 0.949 . S
C748 C756 1.502 1_545 S
C748 C764 1.368 . S
H749 C757 0.950 . S
H750 C755 0.950 . S
H751 C756 0.988 . S
H752 C758 0.950 . S
H753 C759 0.950 . S
H754 C760 0.949 . S
C755 H750 0.950 . S
C755 C757 1.327 . S
C755 C761 1.429 . S
C756 C748 1.502 1_565 S
C756 H751 0.988 . S
C756 C762 1.401 . S
C757 C741 1.349 . S
C757 H749 0.950 . S
C757 C755 1.327 . S
C758 C746 1.349 . S
C758 H752 0.950 . S
C758 C759 1.327 . S
C759 H753 0.950 . S
C759 C758 1.327 . S
C759 C763 1.429 . S
C760 C743 1.574 1_545 S
C760 H754 0.949 . S
C760 C764 1.368 . S
C761 C742 1.429 . S
C761 C755 1.429 . S
C761 C762 1.523 . S
C762 C743 1.368 . S
C762 C756 1.401 . S
C762 C761 1.523 . S
C763 C747 1.429 . S
C763 C759 1.429 . S
C763 C764 1.523 . S
C764 C748 1.368 . S
C764 C760 1.368 . S
C764 C763 1.523 . S
H765 C740 0.950 . S
H766 C742 0.950 . S
H767 C743 0.949 . S
H768 C745 0.950 . S
H769 C747 0.950 . S
C770 C771 1.349 . S
C770 C772 1.327 . S
C770 H795 0.950 . S
C771 C770 1.349 . S
C771 C787 1.349 . S
C772 C770 1.327 . S
C772 C791 1.429 . S
C772 H796 0.950 . S
C773 C790 1.574 1_455 S
C773 C792 1.368 . S
C773 H797 0.949 . S
H774 C778 0.960 . S
C775 C776 1.349 . S
C775 C777 1.327 . S
C775 H798 0.950 . S
C776 C775 1.349 . S
C776 C788 1.349 . S
C777 C775 1.327 . S
C777 C793 1.429 . S
C777 H799 0.950 . S
C778 H774 0.960 . S
C778 C786 1.552 1_655 S
C778 C794 1.379 . S
H779 C787 0.950 . S
H780 C785 0.950 . S
H781 C786 0.949 . S
H782 C788 0.950 . S
H783 C789 0.950 . S
H784 C790 0.949 . S
C785 H780 0.950 . S
C785 C787 1.327 . S
C785 C791 1.429 . S
C786 C778 1.552 1_455 S
C786 H781 0.949 . S
C786 C792 1.368 . S
C787 C771 1.349 . S
C787 H779 0.950 . S
C787 C785 1.327 . S
C788 C776 1.349 . S
C788 H782 0.950 . S
C788 C789 1.327 . S
C789 H783 0.950 . S
C789 C788 1.327 . S
C789 C793 1.429 . S
C790 C773 1.574 1_655 S
C790 H784 0.949 . S
C790 C794 1.368 . S
C791 C772 1.429 . S
C791 C785 1.429 . S
C791 C792 1.523 . S
C792 C773 1.368 . S
C792 C786 1.368 . S
C792 C791 1.523 . S
C793 C777 1.429 . S
C793 C789 1.429 . S
C793 C794 1.523 . S
C794 C778 1.379 . S
C794 C790 1.368 . S
C794 C793 1.523 . S
H795 C770 0.950 . S
H796 C772 0.950 . S
H797 C773 0.949 . S
H798 C775 0.950 . S
H799 C777 0.950 . S
C800 C801 1.349 . S
C800 C802 1.327 . S
C800 H825 0.950 . S
C801 C800 1.349 . S
C801 C817 1.349 . S
C802 C800 1.327 . S
C802 C821 1.429 . S
C802 H826 0.950 . S
C803 C820 1.574 . S
C803 C822 1.368 . S
C803 H827 0.949 . S
H804 C808 0.949 . S
C805 C806 1.349 . S
C805 C807 1.327 . S
C805 H828 0.950 . S
C806 C805 1.349 . S
C806 C818 1.349 . S
C807 C805 1.327 . S
C807 C823 1.429 . S
C807 H829 0.950 . S
C808 H804 0.949 . S
C808 C816 1.574 . S
C808 C824 1.368 . S
H809 C817 0.950 . S
H810 C815 0.950 . S
H811 C816 0.949 . S
H812 C818 0.950 . S
H813 C819 0.950 . S
H814 C820 0.949 . S
C815 H810 0.950 . S
C815 C817 1.327 . S
C815 C821 1.429 . S
C816 C808 1.574 . S
C816 H811 0.949 . S
C816 C822 1.368 . S
C817 C801 1.349 . S
C817 H809 0.950 . S
C817 C815 1.327 . S
C818 C806 1.349 . S
C818 H812 0.950 . S
C818 C819 1.327 . S
C819 H813 0.950 . S
C819 C818 1.327 . S
C819 C823 1.429 . S
C820 C803 1.574 . S
C820 H814 0.949 . S
C820 C824 1.368 . S
C821 C802 1.429 . S
C821 C815 1.429 . S
C821 C822 1.523 . S
C822 C803 1.368 . S
C822 C816 1.368 . S
C822 C821 1.523 . S
C823 C807 1.429 . S
C823 C819 1.429 . S
C823 C824 1.523 . S
C824 C808 1.368 . S
C824 C820 1.368 . S
C824 C823 1.523 . S
H825 C800 0.950 . S
H826 C802 0.950 . S
H827 C803 0.949 . S
H828 C805 0.950 . S
H829 C807 0.950 . S
C830 C831 1.349 . S
C830 C832 1.327 . S
C830 H855 0.950 . S
C831 C830 1.349 . S
C831 C847 1.349 . S
C832 C830 1.327 . S
C832 C851 1.429 . S
C832 H856 0.950 . S
C833 C850 1.574 . S
C833 C852 1.368 . S
C833 H857 0.949 . S
H834 C838 0.949 . S
C835 C836 1.349 . S
C835 C837 1.327 . S
C835 H858 0.950 . S
C836 C835 1.349 . S
C836 C848 1.349 . S
C837 C835 1.327 . S
C837 C853 1.429 . S
C837 H859 0.950 . S
C838 H834 0.949 . S
C838 C846 1.574 . S
C838 C854 1.368 . S
H839 C847 0.950 . S
H840 C845 0.950 . S
H841 C846 0.949 . S
H842 C848 0.950 . S
H843 C849 0.950 . S
H844 C850 0.949 . S
C845 H840 0.950 . S
C845 C847 1.327 . S
C845 C851 1.429 . S
C846 C838 1.574 . S
C846 H841 0.949 . S
C846 C852 1.368 . S
C847 C831 1.349 . S
C847 H839 0.950 . S
C847 C845 1.327 . S
C848 C836 1.349 . S
C848 H842 0.950 . S
C848 C849 1.327 . S
C849 H843 0.950 . S
C849 C848 1.327 . S
C849 C853 1.429 . S
C850 C833 1.574 . S
C850 H844 0.949 . S
C850 C854 1.368 . S
C851 C832 1.429 . S
C851 C845 1.429 . S
C851 C852 1.523 . S
C852 C833 1.368 . S
C852 C846 1.368 . S
C852 C851 1.523 . S
C853 C837 1.429 . S
C853 C849 1.429 . S
C853 C854 1.523 . S
C854 C838 1.368 . S
C854 C850 1.368 . S
C854 C853 1.523 . S
H855 C830 0.950 . S
H856 C832 0.950 . S
H857 C833 0.949 . S
H858 C835 0.950 . S
H859 C837 0.950 . S
C860 C861 1.349 . S
C860 C862 1.327 . S
C860 H885 0.950 . S
C861 C860 1.349 . S
C861 C877 1.349 . S
C862 C860 1.327 . S
C862 C881 1.429 . S
C862 H886 0.950 . S
C863 C880 1.574 . S
C863 C882 1.368 . S
C863 H887 0.949 . S
H864 C868 0.949 . S
C865 C866 1.349 . S
C865 C867 1.327 . S
C865 H888 0.950 . S
C866 C865 1.349 . S
C866 C878 1.349 . S
C867 C865 1.327 . S
C867 C883 1.429 . S
C867 H889 0.950 . S
C868 H864 0.949 . S
C868 C876 1.574 . S
C868 C884 1.368 . S
H869 C877 0.950 . S
H870 C875 0.950 . S
H871 C876 0.949 . S
H872 C878 0.950 . S
H873 C879 0.950 . S
H874 C880 0.949 . S
C875 H870 0.950 . S
C875 C877 1.327 . S
C875 C881 1.429 . S
C876 C868 1.574 . S
C876 H871 0.949 . S
C876 C882 1.368 . S
C877 C861 1.349 . S
C877 H869 0.950 . S
C877 C875 1.327 . S
C878 C866 1.349 . S
C878 H872 0.950 . S
C878 C879 1.327 . S
C879 H873 0.950 . S
C879 C878 1.327 . S
C879 C883 1.429 . S
C880 C863 1.574 . S
C880 H874 0.949 . S
C880 C884 1.368 . S
C881 C862 1.429 . S
C881 C875 1.429 . S
C881 C882 1.523 . S
C882 C863 1.368 . S
C882 C876 1.368 . S
C882 C881 1.523 . S
C883 C867 1.429 . S
C883 C879 1.429 . S
C883 C884 1.523 . S
C884 C868 1.368 . S
C884 C880 1.368 . S
C884 C883 1.523 . S
H885 C860 0.950 . S
H886 C862 0.950 . S
H887 C863 0.949 . S
H888 C865 0.950 . S
H889 C867 0.950 . S
C890 C891 1.349 . S
C890 C892 1.327 . S
C890 H915 0.950 . S
C891 C890 1.349 . S
C891 C907 1.349 . S
C892 C890 1.327 . S
C892 C911 1.429 . S
C892 H916 0.950 . S
C893 C910 1.574 . S
C893 C912 1.368 . S
C893 H917 0.949 . S
H894 C898 0.949 . S
C895 C896 1.349 . S
C895 C897 1.327 . S
C895 H918 0.950 . S
C896 C895 1.349 . S
C896 C908 1.349 . S
C897 C895 1.327 . S
C897 C913 1.429 . S
C897 H919 0.950 . S
C898 H894 0.949 . S
C898 C906 1.574 . S
C898 C914 1.368 . S
H899 C907 0.950 . S
H900 C905 0.950 . S
H901 C906 0.949 . S
H902 C908 0.950 . S
H903 C909 0.950 . S
H904 C910 0.949 . S
C905 H900 0.950 . S
C905 C907 1.327 . S
C905 C911 1.429 . S
C906 C898 1.574 . S
C906 H901 0.949 . S
C906 C912 1.368 . S
C907 C891 1.349 . S
C907 H899 0.950 . S
C907 C905 1.327 . S
C908 C896 1.349 . S
C908 H902 0.950 . S
C908 C909 1.327 . S
C909 H903 0.950 . S
C909 C908 1.327 . S
C909 C913 1.429 . S
C910 C893 1.574 . S
C910 H904 0.949 . S
C910 C914 1.368 . S
C911 C892 1.429 . S
C911 C905 1.429 . S
C911 C912 1.523 . S
C912 C893 1.368 . S
C912 C906 1.368 . S
C912 C911 1.523 . S
C913 C897 1.429 . S
C913 C909 1.429 . S
C913 C914 1.523 . S
C914 C898 1.368 . S
C914 C910 1.368 . S
C914 C913 1.523 . S
H915 C890 0.950 . S
H916 C892 0.950 . S
H917 C893 0.949 . S
H918 C895 0.950 . S
H919 C897 0.950 . S
C920 C921 1.349 . S
C920 C922 1.327 . S
C920 H945 0.950 . S
C921 C920 1.349 . S
C921 C937 1.349 . S
C922 C920 1.327 . S
C922 C941 1.429 . S
C922 H946 0.950 . S
C923 C940 1.574 . S
C923 C942 1.368 . S
C923 H947 0.949 . S
H924 C928 0.949 . S
C925 C926 1.349 . S
C925 C927 1.327 . S
C925 H948 0.950 . S
C926 C925 1.349 . S
C926 C938 1.349 . S
C927 C925 1.327 . S
C927 C943 1.429 . S
C927 H949 0.950 . S
C928 H924 0.949 . S
C928 C936 1.574 . S
C928 C944 1.368 . S
H929 C937 0.950 . S
H930 C935 0.950 . S
H931 C936 0.949 . S
H932 C938 0.950 . S
H933 C939 0.950 . S
H934 C940 0.949 . S
C935 H930 0.950 . S
C935 C937 1.327 . S
C935 C941 1.429 . S
C936 C928 1.574 . S
C936 H931 0.949 . S
C936 C942 1.368 . S
C937 C921 1.349 . S
C937 H929 0.950 . S
C937 C935 1.327 . S
C938 C926 1.349 . S
C938 H932 0.950 . S
C938 C939 1.327 . S
C939 H933 0.950 . S
C939 C938 1.327 . S
C939 C943 1.429 . S
C940 C923 1.574 . S
C940 H934 0.949 . S
C940 C944 1.368 . S
C941 C922 1.429 . S
C941 C935 1.429 . S
C941 C942 1.523 . S
C942 C923 1.368 . S
C942 C936 1.368 . S
C942 C941 1.523 . S
C943 C927 1.429 . S
C943 C939 1.429 . S
C943 C944 1.523 . S
C944 C928 1.368 . S
C944 C940 1.368 . S
C944 C943 1.523 . S
H945 C920 0.950 . S
H946 C922 0.950 . S
H947 C923 0.949 . S
H948 C925 0.950 . S
H949 C927 0.950 . S
C950 C951 1.349 . S
C950 C952 1.327 . S
C950 H975 0.950 . S
C951 C950 1.349 . S
C951 C967 1.349 . S
C952 C950 1.327 . S
C952 C971 1.429 . S
C952 H976 0.950 . S
C953 C970 1.574 . S
C953 C972 1.368 . S
C953 H977 0.949 . S
H954 C958 0.949 . S
C955 C956 1.349 . S
C955 C957 1.327 . S
C955 H978 0.950 . S
C956 C955 1.349 . S
C956 C968 1.349 . S
C957 C955 1.327 . S
C957 C973 1.429 . S
C957 H979 0.950 . S
C958 H954 0.949 . S
C958 C966 1.574 . S
C958 C974 1.368 . S
H959 C967 0.950 . S
H960 C965 0.950 . S
H961 C966 0.949 . S
H962 C968 0.950 . S
H963 C969 0.950 . S
H964 C970 0.949 . S
C965 H960 0.950 . S
C965 C967 1.327 . S
C965 C971 1.429 . S
C966 C958 1.574 . S
C966 H961 0.949 . S
C966 C972 1.368 . S
C967 C951 1.349 . S
C967 H959 0.950 . S
C967 C965 1.327 . S
C968 C956 1.349 . S
C968 H962 0.950 . S
C968 C969 1.327 . S
C969 H963 0.950 . S
C969 C968 1.327 . S
C969 C973 1.429 . S
C970 C953 1.574 . S
C970 H964 0.949 . S
C970 C974 1.368 . S
C971 C952 1.429 . S
C971 C965 1.429 . S
C971 C972 1.523 . S
C972 C953 1.368 . S
C972 C966 1.368 . S
C972 C971 1.523 . S
C973 C957 1.429 . S
C973 C969 1.429 . S
C973 C974 1.523 . S
C974 C958 1.368 . S
C974 C970 1.368 . S
C974 C973 1.523 . S
H975 C950 0.950 . S
H976 C952 0.950 . S
H977 C953 0.949 . S
H978 C955 0.950 . S
H979 C957 0.950 . S
C980 C981 1.349 . S
C980 C982 1.327 . S
C980 H1005 0.950 . S
C981 C980 1.349 . S
C981 C997 1.349 . S
C982 C980 1.327 . S
C982 C1001 1.429 . S
C982 H1006 0.950 . S
C983 C1000 1.574 . S
C983 C1002 1.368 . S
C983 H1007 0.949 . S
H984 C988 0.949 . S
C985 C986 1.349 . S
C985 C987 1.327 . S
C985 H1008 0.950 . S
C986 C985 1.349 . S
C986 C998 1.349 . S
C987 C985 1.327 . S
C987 C1003 1.429 . S
C987 H1009 0.950 . S
C988 H984 0.949 . S
C988 C996 1.574 . S
C988 C1004 1.368 . S
H989 C997 0.950 . S
H990 C995 0.950 . S
H991 C996 0.949 . S
H992 C998 0.950 . S
H993 C999 0.950 . S
H994 C1000 0.949 . S
C995 H990 0.950 . S
C995 C997 1.327 . S
C995 C1001 1.429 . S
C996 C988 1.574 . S
C996 H991 0.949 . S
C996 C1002 1.368 . S
C997 C981 1.349 . S
C997 H989 0.950 . S
C997 C995 1.327 . S
C998 C986 1.349 . S
C998 H992 0.950 . S
C998 C999 1.327 . S
C999 H993 0.950 . S
C999 C998 1.327 . S
C999 C1003 1.429 . S
C1000 C983 1.574 . S
C1000 H994 0.949 . S
C1000 C1004 1.368 . S
C1001 C982 1.429 . S
C1001 C995 1.429 . S
C1001 C1002 1.523 . S
C1002 C983 1.368 . S
C1002 C996 1.368 . S
C1002 C1001 1.523 . S
C1003 C987 1.429 . S
C1003 C999 1.429 . S
C1003 C1004 1.523 . S
C1004 C988 1.368 . S
C1004 C1000 1.368 . S
C1004 C1003 1.523 . S
H1005 C980 0.950 . S
H1006 C982 0.950 . S
H1007 C983 0.949 . S
H1008 C985 0.950 . S
H1009 C987 0.950 . S
C1010 C1011 1.349 . S
C1010 C1012 1.327 . S
C1010 H1035 0.950 . S
C1011 C1010 1.349 . S
C1011 C1027 1.349 . S
C1012 C1010 1.327 . S
C1012 C1031 1.429 . S
C1012 H1036 0.950 . S
C1013 C1030 1.574 . S
C1013 C1032 1.368 . S
C1013 H1037 0.949 . S
H1014 C1018 0.949 . S
C1015 C1016 1.349 . S
C1015 C1017 1.327 . S
C1015 H1038 0.950 . S
C1016 C1015 1.349 . S
C1016 C1028 1.349 . S
C1017 C1015 1.327 . S
C1017 C1033 1.429 . S
C1017 H1039 0.950 . S
C1018 H1014 0.949 . S
C1018 C1026 1.574 . S
C1018 C1034 1.368 . S
H1019 C1027 0.950 . S
H1020 C1025 0.950 . S
H1021 C1026 0.949 . S
H1022 C1028 0.950 . S
H1023 C1029 0.950 . S
H1024 C1030 0.949 . S
C1025 H1020 0.950 . S
C1025 C1027 1.327 . S
C1025 C1031 1.429 . S
C1026 C1018 1.574 . S
C1026 H1021 0.949 . S
C1026 C1032 1.368 . S
C1027 C1011 1.349 . S
C1027 H1019 0.950 . S
C1027 C1025 1.327 . S
C1028 C1016 1.349 . S
C1028 H1022 0.950 . S
C1028 C1029 1.327 . S
C1029 H1023 0.950 . S
C1029 C1028 1.327 . S
C1029 C1033 1.429 . S
C1030 C1013 1.574 . S
C1030 H1024 0.949 . S
C1030 C1034 1.368 . S
C1031 C1012 1.429 . S
C1031 C1025 1.429 . S
C1031 C1032 1.523 . S
C1032 C1013 1.368 . S
C1032 C1026 1.368 . S
C1032 C1031 1.523 . S
C1033 C1017 1.429 . S
C1033 C1029 1.429 . S
C1033 C1034 1.523 . S
C1034 C1018 1.368 . S
C1034 C1030 1.368 . S
C1034 C1033 1.523 . S
H1035 C1010 0.950 . S
H1036 C1012 0.950 . S
H1037 C1013 0.949 . S
H1038 C1015 0.950 . S
H1039 C1017 0.950 . S
C1040 C1041 1.349 . S
C1040 C1042 1.327 . S
C1040 H1065 0.950 . S
C1041 C1040 1.349 . S
C1041 C1057 1.349 . S
C1042 C1040 1.327 . S
C1042 C1061 1.429 . S
C1042 H1066 0.950 . S
C1043 C1060 1.574 . S
C1043 C1062 1.368 . S
C1043 H1067 0.949 . S
H1044 C1048 0.949 . S
C1045 C1046 1.349 . S
C1045 C1047 1.327 . S
C1045 H1068 0.950 . S
C1046 C1045 1.349 . S
C1046 C1058 1.349 1_556 S
C1047 C1045 1.327 . S
C1047 C1063 1.429 . S
C1047 H1069 0.950 . S
C1048 H1044 0.949 . S
C1048 C1056 1.574 . S
C1048 C1064 1.368 . S
H1049 C1057 0.950 . S
H1050 C1055 0.950 . S
H1051 C1056 0.949 . S
H1052 C1058 0.950 . S
H1053 C1059 0.950 . S
H1054 C1060 0.949 . S
C1055 H1050 0.950 . S
C1055 C1057 1.327 . S
C1055 C1061 1.429 . S
C1056 C1048 1.574 . S
C1056 H1051 0.949 . S
C1056 C1062 1.368 . S
C1057 C1041 1.349 . S
C1057 H1049 0.950 . S
C1057 C1055 1.327 . S
C1058 C1046 1.349 1_554 S
C1058 H1052 0.950 . S
C1058 C1059 1.327 1_554 S
C1059 H1053 0.950 . S
C1059 C1058 1.327 1_556 S
C1059 C1063 1.429 . S
C1060 C1043 1.574 . S
C1060 H1054 0.949 . S
C1060 C1064 1.368 . S
C1061 C1042 1.429 . S
C1061 C1055 1.429 . S
C1061 C1062 1.523 . S
C1062 C1043 1.368 . S
C1062 C1056 1.368 . S
C1062 C1061 1.523 . S
C1063 C1047 1.429 . S
C1063 C1059 1.429 . S
C1063 C1064 1.523 . S
C1064 C1048 1.368 . S
C1064 C1060 1.368 . S
C1064 C1063 1.523 . S
H1065 C1040 0.950 . S
H1066 C1042 0.950 . S
H1067 C1043 0.949 . S
H1068 C1045 0.950 . S
H1069 C1047 0.950 . S
C1070 C1071 1.349 1_556 S
C1070 C1072 1.327 1_556 S
C1070 H1095 0.950 . S
C1071 C1070 1.349 1_554 S
C1071 C1087 1.349 . S
C1072 C1070 1.327 1_554 S
C1072 C1091 1.429 . S
C1072 H1096 0.950 1_554 S
C1073 C1090 1.574 . S
C1073 C1092 1.368 . S
C1073 H1097 0.949 . S
H1074 C1078 0.949 . S
C1075 C1076 1.349 . S
C1075 C1077 1.327 . S
C1075 H1098 0.950 . S
C1076 C1075 1.349 . S
C1076 C1088 1.349 . S
C1077 C1075 1.327 . S
C1077 C1093 1.429 . S
C1077 H1099 0.950 . S
C1078 H1074 0.949 . S
C1078 C1086 1.574 . S
C1078 C1094 1.368 . S
H1079 C1087 0.950 . S
H1080 C1085 0.950 . S
H1081 C1086 0.949 . S
H1082 C1088 0.950 . S
H1083 C1089 0.950 . S
H1084 C1090 0.949 . S
C1085 H1080 0.950 . S
C1085 C1087 1.327 . S
C1085 C1091 1.429 . S
C1086 C1078 1.574 . S
C1086 H1081 0.949 . S
C1086 C1092 1.368 . S
C1087 C1071 1.349 . S
C1087 H1079 0.950 . S
C1087 C1085 1.327 . S
C1088 C1076 1.349 . S
C1088 H1082 0.950 . S
C1088 C1089 1.327 . S
C1089 H1083 0.950 . S
C1089 C1088 1.327 . S
C1089 C1093 1.429 . S
C1090 C1073 1.574 . S
C1090 H1084 0.949 . S
C1090 C1094 1.368 . S
C1091 C1072 1.429 . S
C1091 C1085 1.429 . S
C1091 C1092 1.523 . S
C1092 C1073 1.368 . S
C1092 C1086 1.368 . S
C1092 C1091 1.523 . S
C1093 C1077 1.429 . S
C1093 C1089 1.429 . S
C1093 C1094 1.523 . S
C1094 C1078 1.368 . S
C1094 C1090 1.368 . S
C1094 C1093 1.523 . S
H1095 C1070 0.950 . S
H1096 C1072 0.950 1_556 S
H1097 C1073 0.949 . S
H1098 C1075 0.950 . S
H1099 C1077 0.950 . S
C1100 C1101 1.349 . S
C1100 C1102 1.327 . S
C1100 H1125 0.950 . S
C1101 C1100 1.349 . S
C1101 C1117 1.349 1_556 S
C1102 C1100 1.327 . S
C1102 C1121 1.429 . S
C1102 H1126 0.950 . S
C1103 C1120 1.574 . S
C1103 C1122 1.368 . S
C1103 H1127 0.949 . S
H1104 C1108 0.949 . S
C1105 C1106 1.349 . S
C1105 C1107 1.327 . S
C1105 H1128 0.950 . S
C1106 C1105 1.349 . S
C1106 C1118 1.349 . S
C1107 C1105 1.327 . S
C1107 C1123 1.429 . S
C1107 H1129 0.950 . S
C1108 H1104 0.949 . S
C1108 C1116 1.574 . S
C1108 C1124 1.368 . S
H1109 C1117 0.950 . S
H1110 C1115 0.950 . S
H1111 C1116 0.949 . S
H1112 C1118 0.950 . S
H1113 C1119 0.950 . S
H1114 C1120 0.949 . S
C1115 H1110 0.950 . S
C1115 C1117 1.327 1_556 S
C1115 C1121 1.429 . S
C1116 C1108 1.574 . S
C1116 H1111 0.949 . S
C1116 C1122 1.368 . S
C1117 C1101 1.349 1_554 S
C1117 H1109 0.950 . S
C1117 C1115 1.327 1_554 S
C1118 C1106 1.349 . S
C1118 H1112 0.950 . S
C1118 C1119 1.327 . S
C1119 H1113 0.950 . S
C1119 C1118 1.327 . S
C1119 C1123 1.429 . S
C1120 C1103 1.574 . S
C1120 H1114 0.949 . S
C1120 C1124 1.368 . S
C1121 C1102 1.429 . S
C1121 C1115 1.429 . S
C1121 C1122 1.523 . S
C1122 C1103 1.368 . S
C1122 C1116 1.368 . S
C1122 C1121 1.523 . S
C1123 C1107 1.429 . S
C1123 C1119 1.429 . S
C1123 C1124 1.523 . S
C1124 C1108 1.368 . S
C1124 C1120 1.368 . S
C1124 C1123 1.523 . S
H1125 C1100 0.950 . S
H1126 C1102 0.950 . S
H1127 C1103 0.949 . S
H1128 C1105 0.950 . S
H1129 C1107 0.950 . S
C1130 C1131 1.349 . S
C1130 C1132 1.327 . S
C1130 H1155 0.950 . S
C1131 C1130 1.349 . S
C1131 C1147 1.349 1_554 S
C1132 C1130 1.327 . S
C1132 C1151 1.429 . S
C1132 H1156 0.950 . S
C1133 C1150 1.574 . S
C1133 C1152 1.368 . S
C1133 H1157 0.949 . S
H1134 C1138 0.949 . S
C1135 C1136 1.349 . S
C1135 C1137 1.327 . S
C1135 H1158 0.950 . S
C1136 C1135 1.349 . S
C1136 C1148 1.349 . S
C1137 C1135 1.327 . S
C1137 C1153 1.429 . S
C1137 H1159 0.950 . S
C1138 H1134 0.949 . S
C1138 C1146 1.574 . S
C1138 C1154 1.368 . S
H1139 C1147 0.950 . S
H1140 C1145 0.950 1_556 S
H1141 C1146 0.949 . S
H1142 C1148 0.950 . S
H1143 C1149 0.950 . S
H1144 C1150 0.949 . S
C1145 H1140 0.950 1_554 S
C1145 C1147 1.327 1_554 S
C1145 C1151 1.429 . S
C1146 C1138 1.574 . S
C1146 H1141 0.949 . S
C1146 C1152 1.368 . S
C1147 C1131 1.349 1_556 S
C1147 H1139 0.950 . S
C1147 C1145 1.327 1_556 S
C1148 C1136 1.349 . S
C1148 H1142 0.950 . S
C1148 C1149 1.327 . S
C1149 H1143 0.950 . S
C1149 C1148 1.327 . S
C1149 C1153 1.429 . S
C1150 C1133 1.574 . S
C1150 H1144 0.949 . S
C1150 C1154 1.368 . S
C1151 C1132 1.429 . S
C1151 C1145 1.429 . S
C1151 C1152 1.523 . S
C1152 C1133 1.368 . S
C1152 C1146 1.368 . S
C1152 C1151 1.523 . S
C1153 C1137 1.429 . S
C1153 C1149 1.429 . S
C1153 C1154 1.523 . S
C1154 C1138 1.368 . S
C1154 C1150 1.368 . S
C1154 C1153 1.523 . S
H1155 C1130 0.950 . S
H1156 C1132 0.950 . S
H1157 C1133 0.949 . S
H1158 C1135 0.950 . S
H1159 C1137 0.950 . S
C1160 C1161 1.349 . S
C1160 C1162 1.327 . S
C1160 H1185 0.950 . S
C1161 C1160 1.349 . S
C1161 C1177 1.349 . S
C1162 C1160 1.327 . S
C1162 C1181 1.429 . S
C1162 H1186 0.950 . S
C1163 C1180 1.574 . S
C1163 C1182 1.368 . S
C1163 H1187 0.949 . S
H1164 C1168 0.949 . S
C1165 C1166 1.349 . S
C1165 C1167 1.327 . S
C1165 H1188 0.950 . S
C1166 C1165 1.349 . S
C1166 C1178 1.349 . S
C1167 C1165 1.327 . S
C1167 C1183 1.429 . S
C1167 H1189 0.950 . S
C1168 H1164 0.949 . S
C1168 C1176 1.574 . S
C1168 C1184 1.368 . S
H1169 C1177 0.950 . S
H1170 C1175 0.950 . S
H1171 C1176 0.949 . S
H1172 C1178 0.950 . S
H1173 C1179 0.950 . S
H1174 C1180 0.949 . S
C1175 H1170 0.950 . S
C1175 C1177 1.327 . S
C1175 C1181 1.429 . S
C1176 C1168 1.574 . S
C1176 H1171 0.949 . S
C1176 C1182 1.368 . S
C1177 C1161 1.349 . S
C1177 H1169 0.950 . S
C1177 C1175 1.327 . S
C1178 C1166 1.349 . S
C1178 H1172 0.950 . S
C1178 C1179 1.327 . S
C1179 H1173 0.950 . S
C1179 C1178 1.327 . S
C1179 C1183 1.429 . S
C1180 C1163 1.574 . S
C1180 H1174 0.949 . S
C1180 C1184 1.368 . S
C1181 C1162 1.429 . S
C1181 C1175 1.429 . S
C1181 C1182 1.523 . S
C1182 C1163 1.368 . S
C1182 C1176 1.368 . S
C1182 C1181 1.523 . S
C1183 C1167 1.429 . S
C1183 C1179 1.429 . S
C1183 C1184 1.523 . S
C1184 C1168 1.368 . S
C1184 C1180 1.368 . S
C1184 C1183 1.523 . S
H1185 C1160 0.950 . S
H1186 C1162 0.950 . S
H1187 C1163 0.949 . S
H1188 C1165 0.950 . S
H1189 C1167 0.950 . S
C1190 C1191 1.349 . S
C1190 C1192 1.327 . S
C1190 H1215 0.950 . S
C1191 C1190 1.349 . S
C1191 C1207 1.349 . S
C1192 C1190 1.327 . S
C1192 C1211 1.429 . S
C1192 H1216 0.950 . S
C1193 C1210 1.574 . S
C1193 C1212 1.368 . S
C1193 H1217 0.949 . S
H1194 C1198 0.949 . S
C1195 C1196 1.349 . S
C1195 C1197 1.327 . S
C1195 H1218 0.950 . S
C1196 C1195 1.349 . S
C1196 C1208 1.349 . S
C1197 C1195 1.327 . S
C1197 C1213 1.429 . S
C1197 H1219 0.950 . S
C1198 H1194 0.949 . S
C1198 C1206 1.574 . S
C1198 C1214 1.368 . S
H1199 C1207 0.950 . S
H1200 C1205 0.950 . S
H1201 C1206 0.949 . S
H1202 C1208 0.950 . S
H1203 C1209 0.950 . S
H1204 C1210 0.949 . S
C1205 H1200 0.950 . S
C1205 C1207 1.327 . S
C1205 C1211 1.429 . S
C1206 C1198 1.574 . S
C1206 H1201 0.949 . S
C1206 C1212 1.368 . S
C1207 C1191 1.349 . S
C1207 H1199 0.950 . S
C1207 C1205 1.327 . S
C1208 C1196 1.349 . S
C1208 H1202 0.950 . S
C1208 C1209 1.327 . S
C1209 H1203 0.950 . S
C1209 C1208 1.327 . S
C1209 C1213 1.429 . S
C1210 C1193 1.574 . S
C1210 H1204 0.949 . S
C1210 C1214 1.368 . S
C1211 C1192 1.429 . S
C1211 C1205 1.429 . S
C1211 C1212 1.523 . S
C1212 C1193 1.368 . S
C1212 C1206 1.368 . S
C1212 C1211 1.523 . S
C1213 C1197 1.429 . S
C1213 C1209 1.429 . S
C1213 C1214 1.523 . S
C1214 C1198 1.368 . S
C1214 C1210 1.368 . S
C1214 C1213 1.523 . S
H1215 C1190 0.950 . S
H1216 C1192 0.950 . S
H1217 C1193 0.949 . S
H1218 C1195 0.950 . S
H1219 C1197 0.950 . S
C1220 C1221 1.349 . S
C1220 C1222 1.327 . S
C1220 H1245 0.950 . S
C1221 C1220 1.349 . S
C1221 C1237 1.349 . S
C1222 C1220 1.327 . S
C1222 C1241 1.429 . S
C1222 H1246 0.950 . S
C1223 C1240 1.574 . S
C1223 C1242 1.368 . S
C1223 H1247 0.949 . S
H1224 C1228 0.949 . S
C1225 C1226 1.349 . S
C1225 C1227 1.327 . S
C1225 H1248 0.950 . S
C1226 C1225 1.349 . S
C1226 C1238 1.349 . S
C1227 C1225 1.327 . S
C1227 C1243 1.429 . S
C1227 H1249 0.950 . S
C1228 H1224 0.949 . S
C1228 C1236 1.574 . S
C1228 C1244 1.368 . S
H1229 C1237 0.950 . S
H1230 C1235 0.950 . S
H1231 C1236 0.949 . S
H1232 C1238 0.950 . S
H1233 C1239 0.950 . S
H1234 C1240 0.949 . S
C1235 H1230 0.950 . S
C1235 C1237 1.327 . S
C1235 C1241 1.429 . S
C1236 C1228 1.574 . S
C1236 H1231 0.949 . S
C1236 C1242 1.368 . S
C1237 C1221 1.349 . S
C1237 H1229 0.950 . S
C1237 C1235 1.327 . S
C1238 C1226 1.349 . S
C1238 H1232 0.950 . S
C1238 C1239 1.327 . S
C1239 H1233 0.950 . S
C1239 C1238 1.327 . S
C1239 C1243 1.429 . S
C1240 C1223 1.574 . S
C1240 H1234 0.949 . S
C1240 C1244 1.368 . S
C1241 C1222 1.429 . S
C1241 C1235 1.429 . S
C1241 C1242 1.523 . S
C1242 C1223 1.368 . S
C1242 C1236 1.368 . S
C1242 C1241 1.523 . S
C1243 C1227 1.429 . S
C1243 C1239 1.429 . S
C1243 C1244 1.523 . S
C1244 C1228 1.368 . S
C1244 C1240 1.368 . S
C1244 C1243 1.523 . S
H1245 C1220 0.950 . S
H1246 C1222 0.950 . S
H1247 C1223 0.949 . S
H1248 C1225 0.950 . S
H1249 C1227 0.950 . S
C1250 C1251 1.349 . S
C1250 C1252 1.327 . S
C1250 H1275 0.950 . S
C1251 C1250 1.349 . S
C1251 C1267 1.349 . S
C1252 C1250 1.327 . S
C1252 C1271 1.429 . S
C1252 H1276 0.950 . S
C1253 C1270 1.574 . S
C1253 C1272 1.368 . S
C1253 H1277 0.949 . S
H1254 C1258 0.949 . S
C1255 C1256 1.349 . S
C1255 C1257 1.327 . S
C1255 H1278 0.950 . S
C1256 C1255 1.349 . S
C1256 C1268 1.349 . S
C1257 C1255 1.327 . S
C1257 C1273 1.429 . S
C1257 H1279 0.950 . S
C1258 H1254 0.949 . S
C1258 C1266 1.574 . S
C1258 C1274 1.368 . S
H1259 C1267 0.950 . S
H1260 C1265 0.950 . S
H1261 C1266 0.949 . S
H1262 C1268 0.950 . S
H1263 C1269 0.950 . S
H1264 C1270 0.949 . S
C1265 H1260 0.950 . S
C1265 C1267 1.327 . S
C1265 C1271 1.429 . S
C1266 C1258 1.574 . S
C1266 H1261 0.949 . S
C1266 C1272 1.368 . S
C1267 C1251 1.349 . S
C1267 H1259 0.950 . S
C1267 C1265 1.327 . S
C1268 C1256 1.349 . S
C1268 H1262 0.950 . S
C1268 C1269 1.327 . S
C1269 H1263 0.950 . S
C1269 C1268 1.327 . S
C1269 C1273 1.429 . S
C1270 C1253 1.574 . S
C1270 H1264 0.949 . S
C1270 C1274 1.368 . S
C1271 C1252 1.429 . S
C1271 C1265 1.429 . S
C1271 C1272 1.523 . S
C1272 C1253 1.368 . S
C1272 C1266 1.368 . S
C1272 C1271 1.523 . S
C1273 C1257 1.429 . S
C1273 C1269 1.429 . S
C1273 C1274 1.523 . S
C1274 C1258 1.368 . S
C1274 C1270 1.368 . S
C1274 C1273 1.523 . S
H1275 C1250 0.950 . S
H1276 C1252 0.950 . S
H1277 C1253 0.949 . S
H1278 C1255 0.950 . S
H1279 C1257 0.950 . S
C1280 C1281 1.349 . S
C1280 C1282 1.327 . S
C1280 H1305 0.950 . S
C1281 C1280 1.349 . S
C1281 C1297 1.349 . S
C1282 C1280 1.327 . S
C1282 C1301 1.429 . S
C1282 H1306 0.950 . S
C1283 C1300 1.574 . S
C1283 C1302 1.368 . S
C1283 H1307 0.949 . S
H1284 C1288 0.949 . S
C1285 C1286 1.349 . S
C1285 C1287 1.327 . S
C1285 H1308 0.950 . S
C1286 C1285 1.349 . S
C1286 C1298 1.349 . S
C1287 C1285 1.327 . S
C1287 C1303 1.429 . S
C1287 H1309 0.950 . S
C1288 H1284 0.949 . S
C1288 C1296 1.574 . S
C1288 C1304 1.368 . S
H1289 C1297 0.950 . S
H1290 C1295 0.950 . S
H1291 C1296 0.949 . S
H1292 C1298 0.950 . S
H1293 C1299 0.950 . S
H1294 C1300 0.949 . S
C1295 H1290 0.950 . S
C1295 C1297 1.327 . S
C1295 C1301 1.429 . S
C1296 C1288 1.574 . S
C1296 H1291 0.949 . S
C1296 C1302 1.368 . S
C1297 C1281 1.349 . S
C1297 H1289 0.950 . S
C1297 C1295 1.327 . S
C1298 C1286 1.349 . S
C1298 H1292 0.950 . S
C1298 C1299 1.327 . S
C1299 H1293 0.950 . S
C1299 C1298 1.327 . S
C1299 C1303 1.429 . S
C1300 C1283 1.574 . S
C1300 H1294 0.949 . S
C1300 C1304 1.368 . S
C1301 C1282 1.429 . S
C1301 C1295 1.429 . S
C1301 C1302 1.523 . S
C1302 C1283 1.368 . S
C1302 C1296 1.368 . S
C1302 C1301 1.523 . S
C1303 C1287 1.429 . S
C1303 C1299 1.429 . S
C1303 C1304 1.523 . S
C1304 C1288 1.368 . S
C1304 C1300 1.368 . S
C1304 C1303 1.523 . S
H1305 C1280 0.950 . S
H1306 C1282 0.950 . S
H1307 C1283 0.949 . S
H1308 C1285 0.950 . S
H1309 C1287 0.950 . S
C1310 C1311 1.349 . S
C1310 C1312 1.327 . S
C1310 H1335 0.950 . S
C1311 C1310 1.349 . S
C1311 C1327 1.349 . S
C1312 C1310 1.327 . S
C1312 C1331 1.429 . S
C1312 H1336 0.950 . S
C1313 C1330 1.574 . S
C1313 C1332 1.368 . S
C1313 H1337 0.949 . S
H1314 C1318 0.949 . S
C1315 C1316 1.349 . S
C1315 C1317 1.327 . S
C1315 H1338 0.950 . S
C1316 C1315 1.349 . S
C1316 C1328 1.349 . S
C1317 C1315 1.327 . S
C1317 C1333 1.429 . S
C1317 H1339 0.950 . S
C1318 H1314 0.949 . S
C1318 C1326 1.574 . S
C1318 C1334 1.368 . S
H1319 C1327 0.950 . S
H1320 C1325 0.950 . S
H1321 C1326 0.949 . S
H1322 C1328 0.950 . S
H1323 C1329 0.950 . S
H1324 C1330 0.949 . S
C1325 H1320 0.950 . S
C1325 C1327 1.327 . S
C1325 C1331 1.429 . S
C1326 C1318 1.574 . S
C1326 H1321 0.949 . S
C1326 C1332 1.368 . S
C1327 C1311 1.349 . S
C1327 H1319 0.950 . S
C1327 C1325 1.327 . S
C1328 C1316 1.349 . S
C1328 H1322 0.950 . S
C1328 C1329 1.327 . S
C1329 H1323 0.950 . S
C1329 C1328 1.327 . S
C1329 C1333 1.429 . S
C1330 C1313 1.574 . S
C1330 H1324 0.949 . S
C1330 C1334 1.368 . S
C1331 C1312 1.429 . S
C1331 C1325 1.429 . S
C1331 C1332 1.523 . S
C1332 C1313 1.368 . S
C1332 C1326 1.368 . S
C1332 C1331 1.523 . S
C1333 C1317 1.429 . S
C1333 C1329 1.429 . S
C1333 C1334 1.523 . S
C1334 C1318 1.368 . S
C1334 C1330 1.368 . S
C1334 C1333 1.523 . S
H1335 C1310 0.950 . S
H1336 C1312 0.950 . S
H1337 C1313 0.949 . S
H1338 C1315 0.950 . S
H1339 C1317 0.950 . S
C1340 C1341 1.349 . S
C1340 C1342 1.327 . S
C1340 H1365 0.950 . S
C1341 C1340 1.349 . S
C1341 C1357 1.349 . S
C1342 C1340 1.327 . S
C1342 C1361 1.429 . S
C1342 H1366 0.950 . S
C1343 C1360 1.574 . S
C1343 C1362 1.368 . S
C1343 H1367 0.949 . S
H1344 C1348 0.949 . S
C1345 C1346 1.349 . S
C1345 C1347 1.327 . S
C1345 H1368 0.950 . S
C1346 C1345 1.349 . S
C1346 C1358 1.349 . S
C1347 C1345 1.327 . S
C1347 C1363 1.429 . S
C1347 H1369 0.950 . S
C1348 H1344 0.949 . S
C1348 C1356 1.574 . S
C1348 C1364 1.368 . S
H1349 C1357 0.950 . S
H1350 C1355 0.950 . S
H1351 C1356 0.949 . S
H1352 C1358 0.950 . S
H1353 C1359 0.950 . S
H1354 C1360 0.949 . S
C1355 H1350 0.950 . S
C1355 C1357 1.327 . S
C1355 C1361 1.429 . S
C1356 C1348 1.574 . S
C1356 H1351 0.949 . S
C1356 C1362 1.368 . S
C1357 C1341 1.349 . S
C1357 H1349 0.950 . S
C1357 C1355 1.327 . S
C1358 C1346 1.349 . S
C1358 H1352 0.950 . S
C1358 C1359 1.327 . S
C1359 H1353 0.950 . S
C1359 C1358 1.327 . S
C1359 C1363 1.429 . S
C1360 C1343 1.574 . S
C1360 H1354 0.949 . S
C1360 C1364 1.368 . S
C1361 C1342 1.429 . S
C1361 C1355 1.429 . S
C1361 C1362 1.523 . S
C1362 C1343 1.368 . S
C1362 C1356 1.368 . S
C1362 C1361 1.523 . S
C1363 C1347 1.429 . S
C1363 C1359 1.429 . S
C1363 C1364 1.523 . S
C1364 C1348 1.368 . S
C1364 C1360 1.368 . S
C1364 C1363 1.523 . S
H1365 C1340 0.950 . S
H1366 C1342 0.950 . S
H1367 C1343 0.949 . S
H1368 C1345 0.950 . S
H1369 C1347 0.950 . S
C1370 C1371 1.349 . S
C1370 C1372 1.327 . S
C1370 H1395 0.950 . S
C1371 C1370 1.349 . S
C1371 C1387 1.349 . S
C1372 C1370 1.327 . S
C1372 C1391 1.429 . S
C1372 H1396 0.950 . S
C1373 C1390 1.574 . S
C1373 C1392 1.368 . S
C1373 H1397 0.949 . S
H1374 C1378 0.949 . S
C1375 C1376 1.349 . S
C1375 C1377 1.327 . S
C1375 H1398 0.950 . S
C1376 C1375 1.349 . S
C1376 C1388 1.349 . S
C1377 C1375 1.327 . S
C1377 C1393 1.429 . S
C1377 H1399 0.950 . S
C1378 H1374 0.949 . S
C1378 C1386 1.574 . S
C1378 C1394 1.368 . S
H1379 C1387 0.950 . S
H1380 C1385 0.950 . S
H1381 C1386 0.949 . S
H1382 C1388 0.950 . S
H1383 C1389 0.950 . S
H1384 C1390 0.949 . S
C1385 H1380 0.950 . S
C1385 C1387 1.327 . S
C1385 C1391 1.429 . S
C1386 C1378 1.574 . S
C1386 H1381 0.949 . S
C1386 C1392 1.368 . S
C1387 C1371 1.349 . S
C1387 H1379 0.950 . S
C1387 C1385 1.327 . S
C1388 C1376 1.349 . S
C1388 H1382 0.950 . S
C1388 C1389 1.327 . S
C1389 H1383 0.950 . S
C1389 C1388 1.327 . S
C1389 C1393 1.429 . S
C1390 C1373 1.574 . S
C1390 H1384 0.949 . S
C1390 C1394 1.368 . S
C1391 C1372 1.429 . S
C1391 C1385 1.429 . S
C1391 C1392 1.523 . S
C1392 C1373 1.368 . S
C1392 C1386 1.368 . S
C1392 C1391 1.523 . S
C1393 C1377 1.429 . S
C1393 C1389 1.429 . S
C1393 C1394 1.523 . S
C1394 C1378 1.368 . S
C1394 C1390 1.368 . S
C1394 C1393 1.523 . S
H1395 C1370 0.950 . S
H1396 C1372 0.950 . S
H1397 C1373 0.949 . S
H1398 C1375 0.950 . S
H1399 C1377 0.950 . S
C1400 C1401 1.349 . S
C1400 C1402 1.327 . S
C1400 H1425 0.950 . S
C1401 C1400 1.349 . S
C1401 C1417 1.349 . S
C1402 C1400 1.327 . S
C1402 C1421 1.429 . S
C1402 H1426 0.950 . S
C1403 C1420 1.574 . S
C1403 C1422 1.368 . S
C1403 H1427 0.949 . S
H1404 C1408 0.949 . S
C1405 C1406 1.349 . S
C1405 C1407 1.327 . S
C1405 H1428 0.950 . S
C1406 C1405 1.349 . S
C1406 C1418 1.349 . S
C1407 C1405 1.327 . S
C1407 C1423 1.429 . S
C1407 H1429 0.950 . S
C1408 H1404 0.949 . S
C1408 C1416 1.574 . S
C1408 C1424 1.368 . S
H1409 C1417 0.950 . S
H1410 C1415 0.950 . S
H1411 C1416 0.949 . S
H1412 C1418 0.950 . S
H1413 C1419 0.950 . S
H1414 C1420 0.949 . S
C1415 H1410 0.950 . S
C1415 C1417 1.327 . S
C1415 C1421 1.429 . S
C1416 C1408 1.574 . S
C1416 H1411 0.949 . S
C1416 C1422 1.368 . S
C1417 C1401 1.349 . S
C1417 H1409 0.950 . S
C1417 C1415 1.327 . S
C1418 C1406 1.349 . S
C1418 H1412 0.950 . S
C1418 C1419 1.327 . S
C1419 H1413 0.950 . S
C1419 C1418 1.327 . S
C1419 C1423 1.429 . S
C1420 C1403 1.574 . S
C1420 H1414 0.949 . S
C1420 C1424 1.368 . S
C1421 C1402 1.429 . S
C1421 C1415 1.429 . S
C1421 C1422 1.523 . S
C1422 C1403 1.368 . S
C1422 C1416 1.368 . S
C1422 C1421 1.523 . S
C1423 C1407 1.429 . S
C1423 C1419 1.429 . S
C1423 C1424 1.523 . S
C1424 C1408 1.368 . S
C1424 C1420 1.368 . S
C1424 C1423 1.523 . S
H1425 C1400 0.950 . S
H1426 C1402 0.950 . S
H1427 C1403 0.949 . S
H1428 C1405 0.950 . S
H1429 C1407 0.950 . S
C1430 C1431 1.349 . S
C1430 C1432 1.327 . S
C1430 H1455 0.950 . S
C1431 C1430 1.349 . S
C1431 C1447 1.349 . S
C1432 C1430 1.327 . S
C1432 C1451 1.429 . S
C1432 H1456 0.950 . S
C1433 C1450 1.574 . S
C1433 C1452 1.368 . S
C1433 H1457 0.949 . S
H1434 C1438 0.949 . S
C1435 C1436 1.349 . S
C1435 C1437 1.327 . S
C1435 H1458 0.950 . S
C1436 C1435 1.349 . S
C1436 C1448 1.349 . S
C1437 C1435 1.327 . S
C1437 C1453 1.429 . S
C1437 H1459 0.950 . S
C1438 H1434 0.949 . S
C1438 C1446 1.574 . S
C1438 C1454 1.368 . S
H1439 C1447 0.950 . S
H1440 C1445 0.950 . S
H1441 C1446 0.949 . S
H1442 C1448 0.950 . S
H1443 C1449 0.950 . S
H1444 C1450 0.949 . S
C1445 H1440 0.950 . S
C1445 C1447 1.327 . S
C1445 C1451 1.429 . S
C1446 C1438 1.574 . S
C1446 H1441 0.949 . S
C1446 C1452 1.368 . S
C1447 C1431 1.349 . S
C1447 H1439 0.950 . S
C1447 C1445 1.327 . S
C1448 C1436 1.349 . S
C1448 H1442 0.950 . S
C1448 C1449 1.327 . S
C1449 H1443 0.950 . S
C1449 C1448 1.327 . S
C1449 C1453 1.429 . S
C1450 C1433 1.574 . S
C1450 H1444 0.949 . S
C1450 C1454 1.368 . S
C1451 C1432 1.429 . S
C1451 C1445 1.429 . S
C1451 C1452 1.523 . S
C1452 C1433 1.368 . S
C1452 C1446 1.368 . S
C1452 C1451 1.523 . S
C1453 C1437 1.429 . S
C1453 C1449 1.429 . S
C1453 C1454 1.523 . S
C1454 C1438 1.368 . S
C1454 C1450 1.368 . S
C1454 C1453 1.523 . S
H1455 C1430 0.950 . S
H1456 C1432 0.950 . S
H1457 C1433 0.949 . S
H1458 C1435 0.950 . S
H1459 C1437 0.950 . S
C1460 C1461 1.349 . S
C1460 C1462 1.327 . S
C1460 H1485 0.950 . S
C1461 C1460 1.349 . S
C1461 C1477 1.349 . S
C1462 C1460 1.327 . S
C1462 C1481 1.429 . S
C1462 H1486 0.950 . S
C1463 C1480 1.574 . S
C1463 C1482 1.368 . S
C1463 H1487 0.949 . S
H1464 C1468 0.949 . S
C1465 C1466 1.349 . S
C1465 C1467 1.327 . S
C1465 H1488 0.950 . S
C1466 C1465 1.349 . S
C1466 C1478 1.349 . S
C1467 C1465 1.327 . S
C1467 C1483 1.429 . S
C1467 H1489 0.950 . S
C1468 H1464 0.949 . S
C1468 C1476 1.574 . S
C1468 C1484 1.368 . S
H1469 C1477 0.950 . S
H1470 C1475 0.950 . S
H1471 C1476 0.949 . S
H1472 C1478 0.950 . S
H1473 C1479 0.950 . S
H1474 C1480 0.949 . S
C1475 H1470 0.950 . S
C1475 C1477 1.327 . S
C1475 C1481 1.429 . S
C1476 C1468 1.574 . S
C1476 H1471 0.949 . S
C1476 C1482 1.368 . S
C1477 C1461 1.349 . S
C1477 H1469 0.950 . S
C1477 C1475 1.327 . S
C1478 C1466 1.349 . S
C1478 H1472 0.950 . S
C1478 C1479 1.327 . S
C1479 H1473 0.950 . S
C1479 C1478 1.327 . S
C1479 C1483 1.429 . S
C1480 C1463 1.574 . S
C1480 H1474 0.949 . S
C1480 C1484 1.368 . S
C1481 C1462 1.429 . S
C1481 C1475 1.429 . S
C1481 C1482 1.523 . S
C1482 C1463 1.368 . S
C1482 C1476 1.368 . S
C1482 C1481 1.523 . S
C1483 C1467 1.429 . S
C1483 C1479 1.429 . S
C1483 C1484 1.523 . S
C1484 C1468 1.368 . S
C1484 C1480 1.368 . S
C1484 C1483 1.523 . S
H1485 C1460 0.950 . S
H1486 C1462 0.950 . S
H1487 C1463 0.949 . S
H1488 C1465 0.950 . S
H1489 C1467 0.950 . S
C1490 C1491 1.349 . S
C1490 C1492 1.327 . S
C1490 H1515 0.950 . S
C1491 C1490 1.349 . S
C1491 C1507 1.349 . S
C1492 C1490 1.327 . S
C1492 C1511 1.429 . S
C1492 H1516 0.950 . S
C1493 C1510 1.574 . S
C1493 C1512 1.368 . S
C1493 H1517 0.949 . S
H1494 C1498 0.949 . S
C1495 C1496 1.349 . S
C1495 C1497 1.327 . S
C1495 H1518 0.950 . S
C1496 C1495 1.349 . S
C1496 C1508 1.349 . S
C1497 C1495 1.327 . S
C1497 C1513 1.429 . S
C1497 H1519 0.950 . S
C1498 H1494 0.949 . S
C1498 C1506 1.574 . S
C1498 C1514 1.368 . S
H1499 C1507 0.950 . S
H1500 C1505 0.950 . S
H1501 C1506 0.949 . S
H1502 C1508 0.950 . S
H1503 C1509 0.950 . S
H1504 C1510 0.949 . S
C1505 H1500 0.950 . S
C1505 C1507 1.327 . S
C1505 C1511 1.429 . S
C1506 C1498 1.574 . S
C1506 H1501 0.949 . S
C1506 C1512 1.368 . S
C1507 C1491 1.349 . S
C1507 H1499 0.950 . S
C1507 C1505 1.327 . S
C1508 C1496 1.349 . S
C1508 H1502 0.950 . S
C1508 C1509 1.327 . S
C1509 H1503 0.950 . S
C1509 C1508 1.327 . S
C1509 C1513 1.429 . S
C1510 C1493 1.574 . S
C1510 H1504 0.949 . S
C1510 C1514 1.368 . S
C1511 C1492 1.429 . S
C1511 C1505 1.429 . S
C1511 C1512 1.523 . S
C1512 C1493 1.368 . S
C1512 C1506 1.368 . S
C1512 C1511 1.523 . S
C1513 C1497 1.429 . S
C1513 C1509 1.429 . S
C1513 C1514 1.523 . S
C1514 C1498 1.368 . S
C1514 C1510 1.368 . S
C1514 C1513 1.523 . S
H1515 C1490 0.950 . S
H1516 C1492 0.950 . S
H1517 C1493 0.949 . S
H1518 C1495 0.950 . S
H1519 C1497 0.950 . S
C1520 C1521 1.349 . S
C1520 C1522 1.327 . S
C1520 H1545 0.950 . S
C1521 C1520 1.349 . S
C1521 C1537 1.349 . S
C1522 C1520 1.327 . S
C1522 C1541 1.429 . S
C1522 H1546 0.950 . S
C1523 C1540 1.574 . S
C1523 C1542 1.368 . S
C1523 H1547 0.949 . S
H1524 C1528 0.949 . S
C1525 C1526 1.349 . S
C1525 C1527 1.327 . S
C1525 H1548 0.950 . S
C1526 C1525 1.349 . S
C1526 C1538 1.349 . S
C1527 C1525 1.327 . S
C1527 C1543 1.429 . S
C1527 H1549 0.950 . S
C1528 H1524 0.949 . S
C1528 C1536 1.574 . S
C1528 C1544 1.368 . S
H1529 C1537 0.950 . S
H1530 C1535 0.950 . S
H1531 C1536 0.949 . S
H1532 C1538 0.950 . S
H1533 C1539 0.950 . S
H1534 C1540 0.949 . S
C1535 H1530 0.950 . S
C1535 C1537 1.327 . S
C1535 C1541 1.429 . S
C1536 C1528 1.574 . S
C1536 H1531 0.949 . S
C1536 C1542 1.368 . S
C1537 C1521 1.349 . S
C1537 H1529 0.950 . S
C1537 C1535 1.327 . S
C1538 C1526 1.349 . S
C1538 H1532 0.950 . S
C1538 C1539 1.327 . S
C1539 H1533 0.950 . S
C1539 C1538 1.327 . S
C1539 C1543 1.429 . S
C1540 C1523 1.574 . S
C1540 H1534 0.949 . S
C1540 C1544 1.368 . S
C1541 C1522 1.429 . S
C1541 C1535 1.429 . S
C1541 C1542 1.523 1_556 S
C1542 C1523 1.368 . S
C1542 C1536 1.368 . S
C1542 C1541 1.523 1_554 S
C1543 C1527 1.429 . S
C1543 C1539 1.429 . S
C1543 C1544 1.523 . S
C1544 C1528 1.368 . S
C1544 C1540 1.368 . S
C1544 C1543 1.523 . S
H1545 C1520 0.950 . S
H1546 C1522 0.950 . S
H1547 C1523 0.949 . S
H1548 C1525 0.950 . S
H1549 C1527 0.950 . S
C1550 C1551 1.349 . S
C1550 C1552 1.327 . S
C1550 H1575 0.950 . S
C1551 C1550 1.349 . S
C1551 C1567 1.349 . S
C1552 C1550 1.327 . S
C1552 C1571 1.429 . S
C1552 H1576 0.950 . S
C1553 C1570 1.574 . S
C1553 C1572 1.368 . S
C1553 H1577 0.949 . S
H1554 C1558 0.949 . S
C1555 C1556 1.349 . S
C1555 C1557 1.327 . S
C1555 H1578 0.950 . S
C1556 C1555 1.349 . S
C1556 C1568 1.349 . S
C1557 C1555 1.327 . S
C1557 C1573 1.429 . S
C1557 H1579 0.950 . S
C1558 H1554 0.949 . S
C1558 C1566 1.574 . S
C1558 C1574 1.368 . S
H1559 C1567 0.950 . S
H1560 C1565 0.950 . S
H1561 C1566 0.949 . S
H1562 C1568 0.950 . S
H1563 C1569 0.950 . S
H1564 C1570 0.949 . S
C1565 H1560 0.950 . S
C1565 C1567 1.327 . S
C1565 C1571 1.429 . S
C1566 C1558 1.574 . S
C1566 H1561 0.949 . S
C1566 C1572 1.368 . S
C1567 C1551 1.349 . S
C1567 H1559 0.950 . S
C1567 C1565 1.327 . S
C1568 C1556 1.349 . S
C1568 H1562 0.950 . S
C1568 C1569 1.327 . S
C1569 H1563 0.950 . S
C1569 C1568 1.327 . S
C1569 C1573 1.429 . S
C1570 C1553 1.574 . S
C1570 H1564 0.949 . S
C1570 C1574 1.368 . S
C1571 C1552 1.429 . S
C1571 C1565 1.429 . S
C1571 C1572 1.523 . S
C1572 C1553 1.368 . S
C1572 C1566 1.368 . S
C1572 C1571 1.523 . S
C1573 C1557 1.429 . S
C1573 C1569 1.429 . S
C1573 C1574 1.523 1_554 S
C1574 C1558 1.368 . S
C1574 C1570 1.368 . S
C1574 C1573 1.523 1_556 S
H1575 C1550 0.950 . S
H1576 C1552 0.950 . S
H1577 C1553 0.949 . S
H1578 C1555 0.950 . S
H1579 C1557 0.950 . S
C1580 C1581 1.349 . S
C1580 C1582 1.327 . S
C1580 H1605 0.950 . S
C1581 C1580 1.349 . S
C1581 C1597 1.349 . S
C1582 C1580 1.327 . S
C1582 C1601 1.429 . S
C1582 H1606 0.950 . S
C1583 C1600 1.574 . S
C1583 C1602 1.368 . S
C1583 H1607 0.949 . S
H1584 C1588 0.949 . S
C1585 C1586 1.349 . S
C1585 C1587 1.327 . S
C1585 H1608 0.950 . S
C1586 C1585 1.349 . S
C1586 C1598 1.349 . S
C1587 C1585 1.327 . S
C1587 C1603 1.429 . S
C1587 H1609 0.950 . S
C1588 H1584 0.949 . S
C1588 C1596 1.574 . S
C1588 C1604 1.368 . S
H1589 C1597 0.950 . S
H1590 C1595 0.950 . S
H1591 C1596 0.949 . S
H1592 C1598 0.950 . S
H1593 C1599 0.950 . S
H1594 C1600 0.949 . S
C1595 H1590 0.950 . S
C1595 C1597 1.327 . S
C1595 C1601 1.429 . S
C1596 C1588 1.574 . S
C1596 H1591 0.949 . S
C1596 C1602 1.368 . S
C1597 C1581 1.349 . S
C1597 H1589 0.950 . S
C1597 C1595 1.327 . S
C1598 C1586 1.349 . S
C1598 H1592 0.950 . S
C1598 C1599 1.327 . S
C1599 H1593 0.950 . S
C1599 C1598 1.327 . S
C1599 C1603 1.429 . S
C1600 C1583 1.574 . S
C1600 H1594 0.949 . S
C1600 C1604 1.368 . S
C1601 C1582 1.429 . S
C1601 C1595 1.429 . S
C1601 C1602 1.523 . S
C1602 C1583 1.368 . S
C1602 C1596 1.368 . S
C1602 C1601 1.523 . S
C1603 C1587 1.429 . S
C1603 C1599 1.429 . S
C1603 C1604 1.523 1_556 S
C1604 C1588 1.368 . S
C1604 C1600 1.368 . S
C1604 C1603 1.523 1_554 S
H1605 C1580 0.950 . S
H1606 C1582 0.950 . S
H1607 C1583 0.949 . S
H1608 C1585 0.950 . S
H1609 C1587 0.950 . S
C1610 C1611 1.349 . S
C1610 C1612 1.327 . S
C1610 H1635 0.950 . S
C1611 C1610 1.349 . S
C1611 C1627 1.349 . S
C1612 C1610 1.327 . S
C1612 C1631 1.429 . S
C1612 H1636 0.950 . S
C1613 C1630 1.574 . S
C1613 C1632 1.368 . S
C1613 H1637 0.949 . S
H1614 C1618 0.949 . S
C1615 C1616 1.349 . S
C1615 C1617 1.327 . S
C1615 H1638 0.950 . S
C1616 C1615 1.349 . S
C1616 C1628 1.349 . S
C1617 C1615 1.327 . S
C1617 C1633 1.429 . S
C1617 H1639 0.950 . S
C1618 H1614 0.949 . S
C1618 C1626 1.574 . S
C1618 C1634 1.368 . S
H1619 C1627 0.950 . S
H1620 C1625 0.950 . S
H1621 C1626 0.949 . S
H1622 C1628 0.950 . S
H1623 C1629 0.950 . S
H1624 C1630 0.949 . S
C1625 H1620 0.950 . S
C1625 C1627 1.327 . S
C1625 C1631 1.429 . S
C1626 C1618 1.574 . S
C1626 H1621 0.949 . S
C1626 C1632 1.368 . S
C1627 C1611 1.349 . S
C1627 H1619 0.950 . S
C1627 C1625 1.327 . S
C1628 C1616 1.349 . S
C1628 H1622 0.950 . S
C1628 C1629 1.327 . S
C1629 H1623 0.950 . S
C1629 C1628 1.327 . S
C1629 C1633 1.429 . S
C1630 C1613 1.574 . S
C1630 H1624 0.949 . S
C1630 C1634 1.368 . S
C1631 C1612 1.429 . S
C1631 C1625 1.429 . S
C1631 C1632 1.523 1_554 S
C1632 C1613 1.368 . S
C1632 C1626 1.368 . S
C1632 C1631 1.523 1_556 S
C1633 C1617 1.429 . S
C1633 C1629 1.429 . S
C1633 C1634 1.523 . S
C1634 C1618 1.368 . S
C1634 C1630 1.368 . S
C1634 C1633 1.523 . S
H1635 C1610 0.950 . S
H1636 C1612 0.950 . S
H1637 C1613 0.949 . S
H1638 C1615 0.950 . S
H1639 C1617 0.950 . S
C1640 C1641 1.349 . S
C1640 C1642 1.327 . S
C1640 H1665 0.950 . S
C1641 C1640 1.349 . S
C1641 C1657 1.349 . S
C1642 C1640 1.327 . S
C1642 C1661 1.429 . S
C1642 H1666 0.950 . S
C1643 C1660 1.574 . S
C1643 C1662 1.368 . S
C1643 H1667 0.949 . S
H1644 C1648 0.949 . S
C1645 C1646 1.349 . S
C1645 C1647 1.327 . S
C1645 H1668 0.950 . S
C1646 C1645 1.349 . S
C1646 C1658 1.349 . S
C1647 C1645 1.327 . S
C1647 C1663 1.429 . S
C1647 H1669 0.950 . S
C1648 H1644 0.949 . S
C1648 C1656 1.574 . S
C1648 C1664 1.368 . S
H1649 C1657 0.950 . S
H1650 C1655 0.950 . S
H1651 C1656 0.949 . S
H1652 C1658 0.950 . S
H1653 C1659 0.950 . S
H1654 C1660 0.949 . S
C1655 H1650 0.950 . S
C1655 C1657 1.327 . S
C1655 C1661 1.429 . S
C1656 C1648 1.574 . S
C1656 H1651 0.949 . S
C1656 C1662 1.368 . S
C1657 C1641 1.349 . S
C1657 H1649 0.950 . S
C1657 C1655 1.327 . S
C1658 C1646 1.349 . S
C1658 H1652 0.950 . S
C1658 C1659 1.327 . S
C1659 H1653 0.950 . S
C1659 C1658 1.327 . S
C1659 C1663 1.429 . S
C1660 C1643 1.574 . S
C1660 H1654 0.949 . S
C1660 C1664 1.368 . S
C1661 C1642 1.429 . S
C1661 C1655 1.429 . S
C1661 C1662 1.523 . S
C1662 C1643 1.368 . S
C1662 C1656 1.368 . S
C1662 C1661 1.523 . S
C1663 C1647 1.429 . S
C1663 C1659 1.429 . S
C1663 C1664 1.523 1_556 S
C1664 C1648 1.368 . S
C1664 C1660 1.368 . S
C1664 C1663 1.523 1_554 S
H1665 C1640 0.950 . S
H1666 C1642 0.950 . S
H1667 C1643 0.949 . S
H1668 C1645 0.950 . S
H1669 C1647 0.950 . S
C1670 C1671 1.349 . S
C1670 C1672 1.327 . S
C1670 H1695 0.950 . S
C1671 C1670 1.349 . S
C1671 C1687 1.349 . S
C1672 C1670 1.327 . S
C1672 C1691 1.429 . S
C1672 H1696 0.950 . S
C1673 C1690 1.574 . S
C1673 C1692 1.368 . S
C1673 H1697 0.949 . S
H1674 C1678 0.949 . S
C1675 C1676 1.349 . S
C1675 C1677 1.327 . S
C1675 H1698 0.950 . S
C1676 C1675 1.349 . S
C1676 C1688 1.349 . S
C1677 C1675 1.327 . S
C1677 C1693 1.429 . S
C1677 H1699 0.950 . S
C1678 H1674 0.949 . S
C1678 C1686 1.574 . S
C1678 C1694 1.368 . S
H1679 C1687 0.950 . S
H1680 C1685 0.950 . S
H1681 C1686 0.949 . S
H1682 C1688 0.950 . S
H1683 C1689 0.950 . S
H1684 C1690 0.949 . S
C1685 H1680 0.950 . S
C1685 C1687 1.327 . S
C1685 C1691 1.429 . S
C1686 C1678 1.574 . S
C1686 H1681 0.949 . S
C1686 C1692 1.368 . S
C1687 C1671 1.349 . S
C1687 H1679 0.950 . S
C1687 C1685 1.327 . S
C1688 C1676 1.349 . S
C1688 H1682 0.950 . S
C1688 C1689 1.327 . S
C1689 H1683 0.950 . S
C1689 C1688 1.327 . S
C1689 C1693 1.429 . S
C1690 C1673 1.574 . S
C1690 H1684 0.949 . S
C1690 C1694 1.368 . S
C1691 C1672 1.429 . S
C1691 C1685 1.429 . S
C1691 C1692 1.523 1_554 S
C1692 C1673 1.368 . S
C1692 C1686 1.368 . S
C1692 C1691 1.523 1_556 S
C1693 C1677 1.429 . S
C1693 C1689 1.429 . S
C1693 C1694 1.523 . S
C1694 C1678 1.368 . S
C1694 C1690 1.368 . S
C1694 C1693 1.523 . S
H1695 C1670 0.950 . S
H1696 C1672 0.950 . S
H1697 C1673 0.949 . S
H1698 C1675 0.950 . S
H1699 C1677 0.950 . S
C1700 C1701 1.349 . S
C1700 C1702 1.327 . S
C1700 H1725 0.950 . S
C1701 C1700 1.349 . S
C1701 C1717 1.349 . S
C1702 C1700 1.327 . S
C1702 C1721 1.429 . S
C1702 H1726 0.950 . S
C1703 C1720 1.574 . S
C1703 C1722 1.368 . S
C1703 H1727 0.949 . S
H1704 C1708 0.949 . S
C1705 C1706 1.349 . S
C1705 C1707 1.327 . S
C1705 H1728 0.950 . S
C1706 C1705 1.349 . S
C1706 C1718 1.349 . S
C1707 C1705 1.327 . S
C1707 C1723 1.429 . S
C1707 H1729 0.950 . S
C1708 H1704 0.949 . S
C1708 C1716 1.574 . S
C1708 C1724 1.368 . S
H1709 C1717 0.950 . S
H1710 C1715 0.950 . S
H1711 C1716 0.949 . S
H1712 C1718 0.950 . S
H1713 C1719 0.950 . S
H1714 C1720 0.949 . S
C1715 H1710 0.950 . S
C1715 C1717 1.327 . S
C1715 C1721 1.429 . S
C1716 C1708 1.574 . S
C1716 H1711 0.949 . S
C1716 C1722 1.368 . S
C1717 C1701 1.349 . S
C1717 H1709 0.950 . S
C1717 C1715 1.327 . S
C1718 C1706 1.349 . S
C1718 H1712 0.950 . S
C1718 C1719 1.327 . S
C1719 H1713 0.950 . S
C1719 C1718 1.327 . S
C1719 C1723 1.429 . S
C1720 C1703 1.574 . S
C1720 H1714 0.949 . S
C1720 C1724 1.368 . S
C1721 C1702 1.429 . S
C1721 C1715 1.429 . S
C1721 C1722 1.523 1_556 S
C1722 C1703 1.368 . S
C1722 C1716 1.368 . S
C1722 C1721 1.523 1_554 S
C1723 C1707 1.429 . S
C1723 C1719 1.429 . S
C1723 C1724 1.523 . S
C1724 C1708 1.368 . S
C1724 C1720 1.368 . S
C1724 C1723 1.523 . S
H1725 C1700 0.950 . S
H1726 C1702 0.950 . S
H1727 C1703 0.949 . S
H1728 C1705 0.950 . S
H1729 C1707 0.950 . S
C1730 C1731 1.349 . S
C1730 C1732 1.327 . S
C1730 H1755 0.950 . S
C1731 C1730 1.349 . S
C1731 C1747 1.349 . S
C1732 C1730 1.327 . S
C1732 C1751 1.429 . S
C1732 H1756 0.950 . S
C1733 C1750 1.574 . S
C1733 C1752 1.368 . S
C1733 H1757 0.949 . S
H1734 C1738 0.949 . S
C1735 C1736 1.349 . S
C1735 C1737 1.327 . S
C1735 H1758 0.950 . S
C1736 C1735 1.349 . S
C1736 C1748 1.349 . S
C1737 C1735 1.327 . S
C1737 C1753 1.429 . S
C1737 H1759 0.950 . S
C1738 H1734 0.949 . S
C1738 C1746 1.574 . S
C1738 C1754 1.368 . S
H1739 C1747 0.950 . S
H1740 C1745 0.950 . S
H1741 C1746 0.949 . S
H1742 C1748 0.950 . S
H1743 C1749 0.950 . S
H1744 C1750 0.949 . S
C1745 H1740 0.950 . S
C1745 C1747 1.327 . S
C1745 C1751 1.429 . S
C1746 C1738 1.574 . S
C1746 H1741 0.949 . S
C1746 C1752 1.368 . S
C1747 C1731 1.349 . S
C1747 H1739 0.950 . S
C1747 C1745 1.327 . S
C1748 C1736 1.349 . S
C1748 H1742 0.950 . S
C1748 C1749 1.327 . S
C1749 H1743 0.950 . S
C1749 C1748 1.327 . S
C1749 C1753 1.429 . S
C1750 C1733 1.574 . S
C1750 H1744 0.949 . S
C1750 C1754 1.368 . S
C1751 C1732 1.429 . S
C1751 C1745 1.429 . S
C1751 C1752 1.523 . S
C1752 C1733 1.368 . S
C1752 C1746 1.368 . S
C1752 C1751 1.523 . S
C1753 C1737 1.429 . S
C1753 C1749 1.429 . S
C1753 C1754 1.523 1_554 S
C1754 C1738 1.368 . S
C1754 C1750 1.368 . S
C1754 C1753 1.523 1_556 S
H1755 C1730 0.950 . S
H1756 C1732 0.950 . S
H1757 C1733 0.949 . S
H1758 C1735 0.950 . S
H1759 C1737 0.950 . S
C321 C226 1.551 . S
C326 C9 1.626 . S
C351 C176 1.551 . S
C356 C21 1.626 . S
C381 C49 1.626 . S
C386 C186 1.551 . S
C411 C61 1.626 . S
C416 C216 1.551 . S
C441 C89 1.626 . S
C446 C106 1.551 . S
C471 C136 1.551 . S
C476 C101 1.626 . S
C501 C129 1.626 . S
C506 C146 1.551 . S
C531 C96 1.551 . S
C536 C141 1.626 . S
C561 C66 1.551 . S
C566 C169 1.626 . S
C591 C181 1.626 . S
C596 C16 1.551 . S
C621 C26 1.551 . S
C626 C209 1.626 . S
C651 C56 1.551 . S
C656 C221 1.626 . S
C681 C249 1.626 . S
C686 C266 1.551 . S
C711 C296 1.551 . S
C716 C261 1.626 . S
C741 C306 1.551 . S
C746 C289 1.626 . S
C771 C301 1.626 . S
C776 C256 1.551 . S
C801 C1 1.514 . S
C806 C81 1.514 . S
C831 C109 1.514 . S
C836 C29 1.514 . S
C861 C41 1.514 . S
C866 C121 1.514 . S
C891 C69 1.514 . S
C896 C149 1.514 . S
C921 C161 1.514 . S
C926 C241 1.514 . S
C951 C269 1.514 . S
C956 C189 1.514 . S
C981 C201 1.514 . S
C986 C281 1.514 . S
C1011 C229 1.514 . S
C1016 C309 1.514 . S
C1041 C286 1.585 . S
C1046 C6 1.585 1_556 S
C1071 C36 1.585 1_554 S
C1076 C316 1.585 . S
C1101 C46 1.585 1_556 S
C1106 C246 1.585 . S
C1131 C76 1.585 1_554 S
C1136 C276 1.585 . S
C1161 C86 1.585 . S
C1166 C206 1.585 . S
C1191 C116 1.585 . S
C1196 C236 1.585 . S
C1221 C126 1.585 . S
C1226 C166 1.585 . S
C1251 C196 1.585 . S
C1256 C156 1.585 . S
C1281 C8 1.900 . S
C1286 C19 1.900 1_556 S
C1311 C39 1.900 . S
C1316 C28 1.900 1_554 S
C1341 C48 1.900 . S
C1346 C59 1.900 1_556 S
C1371 C68 1.900 1_554 S
C1376 C79 1.900 . S
C1401 C99 1.900 . S
C1406 C88 1.900 . S
C1431 C119 1.900 . S
C1436 C108 1.900 . S
C1461 C128 1.900 . S
C1466 C139 1.900 . S
C1491 C148 1.900 . S
C1496 C159 1.900 . S
C1521 C168 1.900 . S
C1526 C179 1.900 . S
C1551 C188 1.900 . S
C1556 C199 1.900 . S
C1581 C219 1.900 . S
C1586 C208 1.900 . S
C1611 C239 1.900 . S
C1616 C228 1.900 . S
C1641 C248 1.900 . S
C1646 C259 1.900 . S
C1671 C268 1.900 . S
C1676 C279 1.900 . S
C1701 C299 1.900 . S
C1706 C288 1.900 . S
C1731 C319 1.900 . S
C1736 C308 1.900 . S
