# Generated by pormake.
# Topology ume, (4)-cn, num edge types: 1
# Building blocks:
#     Node 0, Type 0, BuildingBlock: CEKHIL_clean_sbu_0, # of connection points: 4
#     Node 1, Type 0, BuildingBlock: CEKHIL_clean_sbu_0, # of connection points: 4
#     Node 2, Type 0, BuildingBlock: CEKHIL_clean_sbu_0, # of connection points: 4
#     Node 3, Type 0, BuildingBlock: CEKHIL_clean_sbu_0, # of connection points: 4
#     Node 4, Type 0, BuildingBlock: CEKHIL_clean_sbu_0, # of connection points: 4
#     Node 5, Type 0, BuildingBlock: CEKHIL_clean_sbu_0, # of connection points: 4
#     Node 6, Type 0, BuildingBlock: CEKHIL_clean_sbu_0, # of connection points: 4
#     Node 7, Type 0, BuildingBlock: CEKHIL_clean_sbu_0, # of connection points: 4
#     Node 8, Type 0, BuildingBlock: CEKHIL_clean_sbu_0, # of connection points: 4
#     Node 9, Type 0, BuildingBlock: CEKHIL_clean_sbu_0, # of connection points: 4
#     Node 10, Type 0, BuildingBlock: CEKHIL_clean_sbu_0, # of connection points: 4
#     Node 11, Type 0, BuildingBlock: CEKHIL_clean_sbu_0, # of connection points: 4
#     Node 12, Type 0, BuildingBlock: CEKHIL_clean_sbu_0, # of connection points: 4
#     Node 13, Type 0, BuildingBlock: CEKHIL_clean_sbu_0, # of connection points: 4
#     Node 14, Type 0, BuildingBlock: CEKHIL_clean_sbu_0, # of connection points: 4
#     Node 15, Type 0, BuildingBlock: CEKHIL_clean_sbu_0, # of connection points: 4
#     Edge 16, Type (0, 0), BuildingBlock: XIVTED_clean_linker_0, # of connection points: 2
#     Edge 17, Type (0, 0), BuildingBlock: XIVTED_clean_linker_0, # of connection points: 2
#     Edge 18, Type (0, 0), BuildingBlock: XIVTED_clean_linker_0, # of connection points: 2
#     Edge 19, Type (0, 0), BuildingBlock: XIVTED_clean_linker_0, # of connection points: 2
#     Edge 20, Type (0, 0), BuildingBlock: XIVTED_clean_linker_0, # of connection points: 2
#     Edge 21, Type (0, 0), BuildingBlock: XIVTED_clean_linker_0, # of connection points: 2
#     Edge 22, Type (0, 0), BuildingBlock: XIVTED_clean_linker_0, # of connection points: 2
#     Edge 23, Type (0, 0), BuildingBlock: XIVTED_clean_linker_0, # of connection points: 2
#     Edge 24, Type (0, 0), BuildingBlock: XIVTED_clean_linker_0, # of connection points: 2
#     Edge 25, Type (0, 0), BuildingBlock: XIVTED_clean_linker_0, # of connection points: 2
#     Edge 26, Type (0, 0), BuildingBlock: XIVTED_clean_linker_0, # of connection points: 2
#     Edge 27, Type (0, 0), BuildingBlock: XIVTED_clean_linker_0, # of connection points: 2
#     Edge 28, Type (0, 0), BuildingBlock: XIVTED_clean_linker_0, # of connection points: 2
#     Edge 29, Type (0, 0), BuildingBlock: XIVTED_clean_linker_0, # of connection points: 2
#     Edge 30, Type (0, 0), BuildingBlock: XIVTED_clean_linker_0, # of connection points: 2
#     Edge 31, Type (0, 0), BuildingBlock: XIVTED_clean_linker_0, # of connection points: 2
#     Edge 32, Type (0, 0), BuildingBlock: XIVTED_clean_linker_0, # of connection points: 2
#     Edge 33, Type (0, 0), BuildingBlock: XIVTED_clean_linker_0, # of connection points: 2
#     Edge 34, Type (0, 0), BuildingBlock: XIVTED_clean_linker_0, # of connection points: 2
#     Edge 35, Type (0, 0), BuildingBlock: XIVTED_clean_linker_0, # of connection points: 2
#     Edge 36, Type (0, 0), BuildingBlock: XIVTED_clean_linker_0, # of connection points: 2
#     Edge 37, Type (0, 0), BuildingBlock: XIVTED_clean_linker_0, # of connection points: 2
#     Edge 38, Type (0, 0), BuildingBlock: XIVTED_clean_linker_0, # of connection points: 2
#     Edge 39, Type (0, 0), BuildingBlock: XIVTED_clean_linker_0, # of connection points: 2
#     Edge 40, Type (0, 0), BuildingBlock: XIVTED_clean_linker_0, # of connection points: 2
#     Edge 41, Type (0, 0), BuildingBlock: XIVTED_clean_linker_0, # of connection points: 2
#     Edge 42, Type (0, 0), BuildingBlock: XIVTED_clean_linker_0, # of connection points: 2
#     Edge 43, Type (0, 0), BuildingBlock: XIVTED_clean_linker_0, # of connection points: 2
#     Edge 44, Type (0, 0), BuildingBlock: XIVTED_clean_linker_0, # of connection points: 2
#     Edge 45, Type (0, 0), BuildingBlock: XIVTED_clean_linker_0, # of connection points: 2
#     Edge 46, Type (0, 0), BuildingBlock: XIVTED_clean_linker_0, # of connection points: 2
#     Edge 47, Type (0, 0), BuildingBlock: XIVTED_clean_linker_0, # of connection points: 2
# Relax obj value: 0.096
# Max RMSD: 0.135
# Mean RMSD: 0.135
data_MOF--net-ume--node1-CEKHIL_clean_sbu_0--edge1-XIVTED_clean_linker_0
_symmetry_space_group_name_H-M    P1
_symmetry_Int_Tables_number       1
_symmetry_cell_setting            triclinic
loop_
_symmetry_equiv_pos_as_xyz
'x, y, z'
_cell_length_a     27.550353
_cell_length_b     27.570133
_cell_length_c     111.01439
_cell_angle_alpha  90.021217
_cell_angle_beta   90.12648
_cell_angle_gamma 90.031276
loop_
_atom_site_label
_atom_site_type_symbol
_atom_site_fract_x
_atom_site_fract_y
_atom_site_fract_z
_atom_type_partial_charge
Co0 Co 0.241 0.11437 0.29843 0.0
O1 O 0.17228 0.12537 0.29941 0.0
O2 O 0.20836 0.05609 0.304 0.0
C3 C 0.25166 0.14675 0.28014 0.0
O4 O 0.31138 0.09039 0.29804 0.0
Co5 Co 0.30921 0.2042 0.29757 0.0
O6 O 0.3594 0.15459 0.29407 0.0
C7 C 0.2651 0.17618 0.3205 0.0
C8 C 0.16826 0.08081 0.30297 0.0
C9 C 0.35326 0.10917 0.29566 0.0
O10 O 0.24922 0.13734 0.31545 0.0
O11 O 0.28644 0.21019 0.31472 0.0
O12 O 0.23592 0.10259 0.28125 0.0
O13 O 0.25486 0.17149 0.29001 0.0
Co14 Co 0.89481 0.73869 0.54964 0.0
O15 O 0.88596 0.66967 0.55032 0.0
O16 O 0.95404 0.70783 0.55515 0.0
C17 C 0.86185 0.74966 0.5314 0.0
O18 O 0.91703 0.80953 0.54962 0.0
Co19 Co 0.80401 0.80501 0.54917 0.0
O20 O 0.85212 0.85723 0.54621 0.0
C21 C 0.83239 0.75848 0.5718 0.0
C22 C 0.93053 0.66706 0.55403 0.0
C23 C 0.89768 0.85144 0.54766 0.0
O24 O 0.87161 0.74439 0.56666 0.0
O25 O 0.79816 0.78022 0.56616 0.0
O26 O 0.90659 0.73542 0.53245 0.0
O27 O 0.83713 0.75157 0.54129 0.0
Co28 Co 0.26037 0.39167 0.79926 0.0
O29 O 0.32912 0.38147 0.80076 0.0
O30 O 0.29168 0.45036 0.80501 0.0
C31 C 0.25188 0.35876 0.78093 0.0
O32 O 0.19001 0.4152 0.79836 0.0
Co33 Co 0.19234 0.30172 0.79787 0.0
O34 O 0.14196 0.3511 0.79426 0.0
C35 C 0.23422 0.32987 0.82111 0.0
C36 C 0.33218 0.42618 0.80429 0.0
C37 C 0.14819 0.39652 0.79584 0.0
O38 O 0.25047 0.36886 0.81622 0.0
O39 O 0.21372 0.29578 0.81514 0.0
O40 O 0.26713 0.4031 0.7821 0.0
O41 O 0.24773 0.33429 0.79081 0.0
Co42 Co 0.61076 0.76382 0.0506 0.0
O43 O 0.62026 0.83281 0.0507 0.0
O44 O 0.55298 0.79596 0.05661 0.0
C45 C 0.63982 0.75063 0.03208 0.0
O46 O 0.58828 0.69297 0.05133 0.0
Co47 Co 0.70146 0.69739 0.04953 0.0
O48 O 0.65268 0.64505 0.04755 0.0
C49 C 0.67799 0.74665 0.07212 0.0
C50 C 0.57662 0.83634 0.05495 0.0
C51 C 0.60742 0.65086 0.04946 0.0
O52 O 0.63767 0.76003 0.06734 0.0
O53 O 0.71094 0.72406 0.06626 0.0
O54 O 0.59538 0.76517 0.03354 0.0
O55 O 0.66651 0.74975 0.04169 0.0
Co56 Co 0.24346 0.39147 0.93268 0.0
O57 O 0.17444 0.38296 0.93321 0.0
O58 O 0.21124 0.44993 0.92707 0.0
C59 C 0.25968 0.36193 0.95094 0.0
O60 O 0.3144 0.41289 0.93143 0.0
Co61 Co 0.30866 0.29997 0.93305 0.0
O62 O 0.36143 0.34808 0.93545 0.0
C63 C 0.25761 0.3255 0.91081 0.0
C64 C 0.17082 0.42671 0.92905 0.0
C65 C 0.35619 0.39336 0.9335 0.0
O66 O 0.24439 0.36528 0.91584 0.0
O67 O 0.28074 0.29213 0.9164 0.0
O68 O 0.24566 0.40662 0.94971 0.0
O69 O 0.25779 0.33514 0.94139 0.0
Co70 Co 0.60046 0.73538 0.18237 0.0
O71 O 0.6091 0.66658 0.181 0.0
O72 O 0.54239 0.70583 0.17563 0.0
C73 C 0.62909 0.74227 0.20115 0.0
O74 O 0.57902 0.80633 0.18281 0.0
Co75 Co 0.69107 0.80125 0.18552 0.0
O76 O 0.64157 0.85075 0.18989 0.0
C77 C 0.66768 0.76203 0.16161 0.0
C78 C 0.56549 0.66479 0.17663 0.0
C79 C 0.59718 0.84639 0.18679 0.0
O80 O 0.62795 0.74476 0.16587 0.0
O81 O 0.70016 0.78257 0.16812 0.0
O82 O 0.5843 0.72947 0.19933 0.0
O83 O 0.65613 0.74559 0.19169 0.0
Co84 Co 0.26216 0.10772 0.43239 0.0
O85 O 0.33105 0.11783 0.43183 0.0
O86 O 0.29438 0.04934 0.42675 0.0
C87 C 0.25032 0.13927 0.45072 0.0
O88 O 0.1914 0.08471 0.4323 0.0
Co89 Co 0.19538 0.19832 0.43302 0.0
O90 O 0.14392 0.14951 0.43602 0.0
C91 C 0.24191 0.17105 0.41034 0.0
C92 C 0.3347 0.07356 0.42803 0.0
C93 C 0.14956 0.10404 0.43443 0.0
O94 O 0.25625 0.13173 0.41541 0.0
O95 O 0.22013 0.20499 0.41605 0.0
O96 O 0.2654 0.09492 0.44953 0.0
O97 O 0.24841 0.16462 0.44092 0.0
Co98 Co 0.89841 0.76878 0.68316 0.0
O99 O 0.88761 0.83736 0.68166 0.0
O100 O 0.95649 0.80027 0.67716 0.0
C101 C 0.86636 0.76063 0.7016 0.0
O102 O 0.92253 0.69869 0.6839 0.0
Co103 Co 0.80988 0.69909 0.68514 0.0
O104 O 0.86044 0.6516 0.69008 0.0
C105 C 0.8355 0.74072 0.66163 0.0
C106 C 0.932 0.84056 0.67789 0.0
C107 C 0.90515 0.65791 0.68761 0.0
O108 O 0.87436 0.75842 0.66631 0.0
O109 O 0.80264 0.71916 0.66778 0.0
O110 O 0.91068 0.7759 0.70035 0.0
O111 O 0.84167 0.75583 0.69176 0.0
Co112 Co 0.73507 0.60824 0.79917 0.0
O113 O 0.66619 0.61813 0.8003 0.0
O114 O 0.70367 0.54941 0.80475 0.0
C115 C 0.74485 0.64134 0.7809 0.0
O116 O 0.80557 0.58495 0.79861 0.0
Co117 Co 0.80286 0.69839 0.79821 0.0
O118 O 0.85359 0.64925 0.79476 0.0
C119 C 0.75884 0.67042 0.82117 0.0
C120 C 0.66312 0.57344 0.80386 0.0
C121 C 0.84743 0.60379 0.79626 0.0
O122 O 0.74354 0.63113 0.81621 0.0
O123 O 0.77965 0.70451 0.8153 0.0
O124 O 0.72962 0.59695 0.78194 0.0
O125 O 0.74812 0.66568 0.79082 0.0
Co126 Co 0.39447 0.23816 0.05056 0.0
O127 O 0.386 0.16911 0.05027 0.0
O128 O 0.45094 0.20647 0.05752 0.0
C129 C 0.37056 0.25108 0.03158 0.0
O130 O 0.41595 0.30931 0.05182 0.0
Co131 Co 0.30463 0.3047 0.04743 0.0
O132 O 0.35392 0.35651 0.04574 0.0
C133 C 0.32156 0.25691 0.07068 0.0
C134 C 0.42839 0.16589 0.05527 0.0
C135 C 0.39802 0.35107 0.04896 0.0
O136 O 0.36227 0.24069 0.06675 0.0
O137 O 0.2918 0.28144 0.06425 0.0
O138 O 0.415 0.2382 0.03383 0.0
O139 O 0.34111 0.25122 0.04062 0.0
Co140 Co 0.76493 0.8966 0.29798 0.0
O141 O 0.83398 0.88758 0.29819 0.0
O142 O 0.79694 0.95572 0.30331 0.0
C143 C 0.75138 0.86415 0.27983 0.0
O144 O 0.69395 0.91862 0.29835 0.0
Co145 Co 0.69893 0.80532 0.29768 0.0
O146 O 0.64686 0.85352 0.29458 0.0
C147 C 0.74624 0.83405 0.32022 0.0
C148 C 0.83745 0.93199 0.30191 0.0
C149 C 0.65222 0.89902 0.2962 0.0
O150 O 0.76081 0.8731 0.31505 0.0
O151 O 0.72425 0.7999 0.31462 0.0
O152 O 0.76558 0.90892 0.28077 0.0
O153 O 0.75146 0.83907 0.28967 0.0
Co154 Co 0.11106 0.26503 0.55003 0.0
O155 O 0.12118 0.33391 0.55064 0.0
O156 O 0.05394 0.29672 0.55646 0.0
C157 C 0.13899 0.25434 0.53127 0.0
O158 O 0.08738 0.19446 0.55021 0.0
Co159 Co 0.19965 0.19604 0.54758 0.0
O160 O 0.14929 0.1462 0.54464 0.0
C161 C 0.17861 0.24072 0.57101 0.0
C162 C 0.0776 0.33717 0.55495 0.0
C163 C 0.10472 0.15259 0.54725 0.0
O164 O 0.1393 0.25872 0.56666 0.0
O165 O 0.20914 0.21643 0.56478 0.0
O166 O 0.09476 0.26899 0.53301 0.0
O167 O 0.16605 0.25143 0.54078 0.0
Co168 Co 0.73713 0.8908 0.43227 0.0
O169 O 0.66838 0.88046 0.43115 0.0
O170 O 0.70527 0.94941 0.42664 0.0
C171 C 0.7469 0.85814 0.45059 0.0
O172 O 0.80778 0.91407 0.43277 0.0
Co173 Co 0.8044 0.80044 0.43328 0.0
O174 O 0.85536 0.84947 0.43667 0.0
C175 C 0.76126 0.82904 0.41021 0.0
C176 C 0.66492 0.92502 0.42755 0.0
C177 C 0.84958 0.89493 0.43509 0.0
O178 O 0.7453 0.86779 0.41526 0.0
O179 O 0.78245 0.79499 0.41603 0.0
O180 O 0.7319 0.90255 0.44946 0.0
O181 O 0.75012 0.83351 0.44071 0.0
Co182 Co 0.11221 0.2427 0.68084 0.0
O183 O 0.1247 0.17426 0.67961 0.0
O184 O 0.05557 0.20966 0.67449 0.0
C185 C 0.14212 0.2515 0.69951 0.0
O186 O 0.08574 0.31223 0.68132 0.0
Co187 Co 0.19666 0.31647 0.68374 0.0
O188 O 0.1439 0.35998 0.68924 0.0
C189 C 0.17593 0.27437 0.65987 0.0
C190 C 0.08067 0.1699 0.6756 0.0
C191 C 0.10019 0.35266 0.68597 0.0
O192 O 0.13859 0.25249 0.66417 0.0
O193 O 0.20492 0.30025 0.66621 0.0
O194 O 0.09815 0.2357 0.69791 0.0
O195 O 0.16769 0.25736 0.68987 0.0
Co196 Co 0.76775 0.60829 0.93323 0.0
O197 O 0.83653 0.61899 0.93262 0.0
O198 O 0.80024 0.55028 0.92752 0.0
C199 C 0.75596 0.63938 0.95162 0.0
O200 O 0.69727 0.58466 0.93313 0.0
Co201 Co 0.70011 0.69818 0.93404 0.0
O202 O 0.64906 0.64882 0.93693 0.0
C203 C 0.74518 0.67094 0.91117 0.0
C204 C 0.8404 0.57475 0.9288 0.0
C205 C 0.6552 0.60348 0.93523 0.0
O206 O 0.76118 0.63235 0.91628 0.0
O207 O 0.72287 0.7045 0.91689 0.0
O208 O 0.77139 0.59518 0.95036 0.0
O209 O 0.75364 0.66493 0.94185 0.0
Co210 Co 0.38923 0.26223 0.17995 0.0
O211 O 0.37536 0.33041 0.17866 0.0
O212 O 0.44471 0.2961 0.17333 0.0
C213 C 0.36079 0.25336 0.19872 0.0
O214 O 0.41707 0.19325 0.18044 0.0
Co215 Co 0.30641 0.18689 0.18326 0.0
O216 O 0.36044 0.14461 0.18866 0.0
C217 C 0.32422 0.22915 0.1593 0.0
C218 C 0.41895 0.33542 0.17445 0.0
C219 C 0.40374 0.15276 0.18523 0.0
O220 O 0.36171 0.25151 0.16341 0.0
O221 O 0.29617 0.20296 0.16578 0.0
O222 O 0.40436 0.26996 0.19698 0.0
O223 O 0.33474 0.24676 0.18916 0.0
H224 H 0.92434 0.88534 0.30319 0.0
H225 H 0.08157 0.12813 0.30426 0.0
H226 H 0.86084 0.02803 0.30563 0.0
H227 H 0.14418 0.98496 0.30638 0.0
H228 H 1.00075 0.09247 0.30579 0.0
H229 H 0.00477 0.92117 0.30533 0.0
C230 C 0.92729 0.9243 0.30424 0.0
C231 C 0.88576 0.95381 0.30413 0.0
C232 C 0.0321 0.06881 0.30603 0.0
C233 C 0.97817 0.9952 0.30652 0.0
C234 C 0.07834 0.08913 0.30514 0.0
C235 C 0.11974 0.0594 0.3051 0.0
C236 C 0.02699 0.01827 0.30676 0.0
C237 C 0.11329 0.00921 0.30635 0.0
C238 C 0.97333 0.94472 0.30549 0.0
C239 C 0.89187 0.00396 0.30563 0.0
N240 N 0.06776 0.99018 0.30701 0.0
N241 N 0.93728 0.02314 0.30665 0.0
H242 H 0.02665 0.64638 0.55825 0.0
H243 H 0.98245 0.35878 0.55993 0.0
H244 H 0.88553 0.57924 0.55543 0.0
H245 H 0.12325 0.42489 0.5554 0.0
H246 H 0.94665 0.4398 0.5618 0.0
H247 H 0.06298 0.56575 0.56065 0.0
C248 C 0.0033 0.61476 0.55824 0.0
C249 C 0.95311 0.61945 0.5565 0.0
C250 C 0.98544 0.4365 0.56049 0.0
C251 C 0.99424 0.52733 0.55926 0.0
C252 C 0.00587 0.39028 0.55946 0.0
C253 C 0.05577 0.38514 0.55737 0.0
C254 C 0.01521 0.47777 0.55948 0.0
C255 C 0.08449 0.4272 0.55687 0.0
C256 C 0.02402 0.56877 0.55958 0.0
C257 C 0.9245 0.57727 0.55661 0.0
N258 N 0.06378 0.47172 0.55784 0.0
N259 N 0.94547 0.53302 0.5579 0.0
H260 H 0.6417 0.47756 0.80812 0.0
H261 H 0.35378 0.52227 0.80819 0.0
H262 H 0.57525 0.61871 0.80495 0.0
H263 H 0.41994 0.38079 0.80571 0.0
H264 H 0.4348 0.55835 0.81006 0.0
H265 H 0.56077 0.44155 0.81025 0.0
C266 C 0.61016 0.501 0.80798 0.0
C267 C 0.61521 0.55113 0.80624 0.0
C268 C 0.43152 0.51936 0.8092 0.0
C269 C 0.5226 0.51029 0.80866 0.0
C270 C 0.38527 0.49877 0.80817 0.0
C271 C 0.38012 0.44852 0.80668 0.0
C272 C 0.47285 0.48944 0.80877 0.0
C273 C 0.42221 0.41977 0.80673 0.0
C274 C 0.56397 0.48045 0.80917 0.0
C275 C 0.57307 0.57981 0.80616 0.0
N276 N 0.46675 0.44063 0.80768 0.0
N277 N 0.52861 0.55899 0.80729 0.0
H278 H 0.38139 0.07919 0.05605 0.0
H279 H 0.62377 0.92306 0.05619 0.0
H280 H 0.52361 0.14276 0.06014 0.0
H281 H 0.48116 0.85956 0.05926 0.0
H282 H 0.58809 0.00348 0.05849 0.0
H283 H 0.41709 0.99872 0.05811 0.0
C284 C 0.42019 0.07621 0.05747 0.0
C285 C 0.4497 0.11774 0.0578 0.0
C286 C 0.56458 0.97201 0.05877 0.0
C287 C 0.49092 0.02542 0.06007 0.0
C288 C 0.58489 0.92602 0.05742 0.0
C289 C 0.55529 0.88454 0.05741 0.0
C290 C 0.51412 0.97677 0.05997 0.0
C291 C 0.50527 0.89057 0.05916 0.0
C292 C 0.44052 0.03018 0.05868 0.0
C293 C 0.4996 0.11169 0.05979 0.0
N294 N 0.48618 0.9359 0.06024 0.0
N295 N 0.51876 0.06631 0.0607 0.0
H296 H 0.08391 0.37997 0.92844 0.0
H297 H 0.92699 0.62221 0.92751 0.0
H298 H 0.14743 0.52231 0.92483 0.0
H299 H 0.86417 0.47913 0.92506 0.0
H300 H 0.00771 0.58666 0.92569 0.0
H301 H 0.00341 0.41562 0.92642 0.0
C302 C 0.08093 0.41881 0.92716 0.0
C303 C 0.12247 0.44832 0.92691 0.0
C304 C 0.97633 0.56301 0.92544 0.0
C305 C 0.03006 0.48948 0.92466 0.0
C306 C 0.93016 0.58326 0.9265 0.0
C307 C 0.88878 0.55349 0.92654 0.0
C308 C 0.98133 0.51251 0.92454 0.0
C309 C 0.89509 0.50337 0.92511 0.0
C310 C 0.03487 0.43911 0.92597 0.0
C311 C 0.11637 0.49828 0.92512 0.0
N312 N 0.94056 0.48439 0.9243 0.0
N313 N 0.07094 0.51739 0.92418 0.0
H314 H 0.37012 0.42158 0.17387 0.0
H315 H 0.61216 0.57905 0.17324 0.0
H316 H 0.51304 0.36043 0.16929 0.0
H317 H 0.46914 0.64271 0.17289 0.0
H318 H 0.57605 0.4993 0.17022 0.0
H319 H 0.40474 0.50279 0.17196 0.0
C320 C 0.40877 0.42522 0.17234 0.0
C321 C 0.43886 0.38416 0.17187 0.0
C322 C 0.55245 0.53064 0.17068 0.0
C323 C 0.47878 0.47717 0.16976 0.0
C324 C 0.57306 0.57627 0.17243 0.0
C325 C 0.54353 0.61754 0.17345 0.0
C326 C 0.50179 0.52594 0.1701 0.0
C327 C 0.49319 0.6118 0.1722 0.0
C328 C 0.42849 0.47165 0.17124 0.0
C329 C 0.48855 0.39106 0.16978 0.0
N330 N 0.47382 0.5667 0.17074 0.0
N331 N 0.50703 0.43669 0.16894 0.0
H332 H 0.42148 0.12069 0.42693 0.0
H333 H 0.57829 0.87799 0.42562 0.0
H334 H 0.35821 0.97798 0.42391 0.0
H335 H 0.64147 0.02113 0.42429 0.0
H336 H 0.49774 0.91386 0.4238 0.0
H337 H 0.502 0.08514 0.42482 0.0
C338 C 0.4245 0.08181 0.42575 0.0
C339 C 0.38303 0.05217 0.4257 0.0
C340 C 0.52915 0.93749 0.4238 0.0
C341 C 0.47547 0.01113 0.42334 0.0
C342 C 0.57524 0.91704 0.42485 0.0
C343 C 0.61669 0.94669 0.42522 0.0
C344 C 0.52424 0.98808 0.42321 0.0
C345 C 0.6105 0.99696 0.42409 0.0
C346 C 0.47058 0.06155 0.42452 0.0
C347 C 0.3892 0.00214 0.42404 0.0
N348 N 0.56508 0.01612 0.42326 0.0
N349 N 0.43462 0.98312 0.42304 0.0
H350 H 0.12831 0.08326 0.67456 0.0
H351 H 0.88504 0.92707 0.67561 0.0
H352 H 0.98536 0.14594 0.67144 0.0
H353 H 0.02779 0.86319 0.67385 0.0
H354 H 0.92107 0.00708 0.67282 0.0
H355 H 0.09255 0.00247 0.67298 0.0
C356 C 0.08938 0.08004 0.67343 0.0
C357 C 0.05969 0.12141 0.67324 0.0
C358 C 0.94457 0.97561 0.67293 0.0
C359 C 0.01842 0.02883 0.67154 0.0
C360 C 0.92402 0.92984 0.67455 0.0
C361 C 0.95353 0.8884 0.67508 0.0
C362 C 0.99514 0.9802 0.67195 0.0
C363 C 0.00373 0.89419 0.67355 0.0
C364 C 0.06899 0.03384 0.67252 0.0
C365 C 0.00957 0.11504 0.67167 0.0
N366 N 0.02302 0.93933 0.67218 0.0
N367 N 0.99045 0.06959 0.67101 0.0
H368 H 0.55742 0.86931 0.29491 0.0
H369 H 0.44774 0.13734 0.29258 0.0
H370 H 0.64544 0.99884 0.29656 0.0
H371 H 0.35948 0.00942 0.29762 0.0
H372 H 0.51996 0.08668 0.29245 0.0
H373 H 0.48474 0.91958 0.29441 0.0
C374 C 0.56162 0.90836 0.29515 0.0
C375 C 0.60793 0.92978 0.2958 0.0
C376 C 0.48485 0.06962 0.29358 0.0
C377 C 0.52422 0.98769 0.2952 0.0
C378 C 0.44335 0.09853 0.29363 0.0
C379 C 0.3971 0.07775 0.29515 0.0
C380 C 0.48047 0.01929 0.29501 0.0
C381 C 0.3942 0.02715 0.29645 0.0
C382 C 0.51991 0.93703 0.29489 0.0
C383 C 0.61067 0.98063 0.2961 0.0
N384 N 0.4353 0.99968 0.29634 0.0
N385 N 0.56943 0.00781 0.29577 0.0
H386 H 0.99751 0.85699 0.54802 0.0
H387 H 0.00516 0.14783 0.54995 0.0
H388 H 0.86905 0.9466 0.5468 0.0
H389 H 0.13145 0.05772 0.54449 0.0
H390 H 0.95455 0.0746 0.54997 0.0
H391 H 0.04737 0.93045 0.5479 0.0
C392 C 0.97974 0.892 0.54772 0.0
C393 C 0.92892 0.8954 0.5474 0.0
C394 C 0.99337 0.071 0.54875 0.0
C395 C 0.98586 0.97982 0.54731 0.0
C396 C 0.02228 0.11281 0.54875 0.0
C397 C 0.07271 0.10916 0.5472 0.0
C398 C 0.01507 0.02519 0.54728 0.0
C399 C 0.09278 0.06261 0.54568 0.0
C400 C 0.00825 0.93398 0.54763 0.0
C401 C 0.90805 0.94198 0.54701 0.0
N402 N 0.06399 0.02263 0.5458 0.0
N403 N 0.93654 0.98224 0.54701 0.0
H404 H 0.14329 0.4963 0.79715 0.0
H405 H 0.85233 0.50389 0.79686 0.0
H406 H 0.05318 0.36898 0.79323 0.0
H407 H 0.94254 0.63165 0.79431 0.0
H408 H 0.92558 0.45363 0.7963 0.0
H409 H 0.07006 0.54659 0.79685 0.0
C410 C 0.10825 0.47888 0.79619 0.0
C411 C 0.10462 0.42823 0.79523 0.0
C412 C 0.92924 0.49269 0.79582 0.0
C413 C 0.02052 0.48562 0.79495 0.0
C414 C 0.8874 0.52142 0.79616 0.0
C415 C 0.89105 0.57217 0.79564 0.0
C416 C 0.97516 0.51482 0.79505 0.0
C417 C 0.93768 0.59273 0.79472 0.0
C418 C 0.06641 0.50763 0.79601 0.0
C419 C 0.05802 0.40782 0.79399 0.0
N420 N 0.97776 0.56406 0.7945 0.0
N421 N 0.01794 0.4365 0.79394 0.0
H422 H 0.63694 0.55602 0.04932 0.0
H423 H 0.36906 0.44569 0.04704 0.0
H424 H 0.50746 0.64415 0.05034 0.0
H425 H 0.49728 0.35798 0.05217 0.0
H426 H 0.4193 0.51828 0.04755 0.0
H427 H 0.58665 0.48339 0.04966 0.0
C428 C 0.59788 0.56026 0.0496 0.0
C429 C 0.5765 0.60661 0.04976 0.0
C430 C 0.43651 0.48323 0.0486 0.0
C431 C 0.51849 0.52286 0.05015 0.0
C432 C 0.40784 0.44154 0.04828 0.0
C433 C 0.42888 0.39531 0.04953 0.0
C434 C 0.48687 0.47905 0.0501 0.0
C435 C 0.47937 0.39268 0.05117 0.0
C436 C 0.56918 0.51856 0.04983 0.0
C437 C 0.52564 0.60937 0.0502 0.0
N438 N 0.50664 0.43394 0.05135 0.0
N439 N 0.49841 0.5681 0.05033 0.0
H440 H 0.45096 0.36369 0.93473 0.0
H441 H 0.5603 0.63195 0.937 0.0
H442 H 0.36304 0.49306 0.93252 0.0
H443 H 0.64917 0.50374 0.9334 0.0
H444 H 0.48803 0.58131 0.93647 0.0
H445 H 0.52363 0.41404 0.93523 0.0
C446 C 0.4468 0.40272 0.93435 0.0
C447 C 0.40052 0.42408 0.93359 0.0
C448 C 0.52328 0.56418 0.93579 0.0
C449 C 0.48418 0.48209 0.93419 0.0
C450 C 0.5648 0.59308 0.93614 0.0
C451 C 0.61123 0.57219 0.93525 0.0
C452 C 0.52786 0.51377 0.93461 0.0
C453 C 0.61429 0.52154 0.93411 0.0
C454 C 0.48849 0.43145 0.93461 0.0
C455 C 0.39779 0.47489 0.93308 0.0
N456 N 0.57318 0.49408 0.93384 0.0
N457 N 0.43901 0.50213 0.93343 0.0
H458 H 0.53159 0.87645 0.16989 0.0
H459 H 0.42791 0.10069 0.2051 0.0
H460 H 0.5952 0.91714 0.20396 0.0
H461 H 0.4548 0.11085 0.16697 0.0
H462 H 0.47624 0.02572 0.20578 0.0
H463 H 0.48783 0.95425 0.16948 0.0
C464 C 0.53572 0.90146 0.17736 0.0
C465 C 0.56685 0.89051 0.18699 0.0
C466 C 0.47195 0.04473 0.19731 0.0
C467 C 0.51698 0.97877 0.1866 0.0
C468 C 0.44466 0.08738 0.19692 0.0
C469 C 0.43816 0.11204 0.186 0.0
C470 C 0.49118 0.02579 0.18661 0.0
C471 C 0.45978 0.09314 0.17559 0.0
C472 C 0.51126 0.94588 0.17705 0.0
C473 C 0.57153 0.92438 0.19637 0.0
N474 N 0.48477 0.05058 0.1761 0.0
N475 N 0.54647 0.96686 0.19601 0.0
H476 H 0.94412 0.8659 0.4376 0.0
H477 H 0.05489 0.1336 0.43586 0.0
H478 H 0.85646 0.99467 0.43339 0.0
H479 H 0.14266 0.0041 0.43379 0.0
H480 H 0.98221 0.08346 0.43627 0.0
H481 H 0.01678 0.91611 0.43759 0.0
C482 C 0.93996 0.9048 0.43672 0.0
C483 C 0.89374 0.92597 0.43549 0.0
C484 C 0.01731 0.06595 0.43572 0.0
C485 C 0.97757 0.98387 0.43546 0.0
C486 C 0.05905 0.09456 0.43551 0.0
C487 C 0.10531 0.07314 0.43479 0.0
C488 C 0.02147 0.01532 0.43528 0.0
C489 C 0.10794 0.02231 0.43433 0.0
C490 C 0.9817 0.93344 0.43667 0.0
C491 C 0.89114 0.97664 0.43435 0.0
N492 N 0.06662 0.99515 0.43461 0.0
N493 N 0.93244 0.00382 0.43438 0.0
H494 H 0.03545 0.38431 0.669 0.0
H495 H 0.92125 0.59826 0.70673 0.0
H496 H 0.09033 0.41629 0.70452 0.0
H497 H 0.95832 0.619 0.66939 0.0
H498 H 0.96732 0.52171 0.7067 0.0
H499 H 0.98857 0.46038 0.66953 0.0
C500 C 0.03681 0.40687 0.67698 0.0
C501 C 0.06658 0.39419 0.68674 0.0
C502 C 0.96551 0.54327 0.69856 0.0
C503 C 0.01327 0.48034 0.68743 0.0
C504 C 0.93954 0.58679 0.69858 0.0
C505 C 0.93683 0.61499 0.6881 0.0
C506 C 0.98718 0.52714 0.68785 0.0
C507 C 0.96041 0.59849 0.67769 0.0
C508 C 0.0106 0.45031 0.67722 0.0
C509 C 0.06775 0.42494 0.69682 0.0
N510 N 0.98413 0.55519 0.67777 0.0
N511 N 0.0412 0.46649 0.69695 0.0
H512 H 0.27115 0.25744 0.33496 0.0
H513 H 0.27589 0.10172 0.39505 0.0
H514 H 0.2506 0.10217 0.33622 0.0
H515 H 0.22429 0.24977 0.39555 0.0
H516 H 0.2826 0.10608 0.3733 0.0
H517 H 0.26731 0.25953 0.35712 0.0
C518 C 0.26577 0.22393 0.33987 0.0
C519 C 0.26112 0.17957 0.33374 0.0
C520 C 0.26983 0.13765 0.37817 0.0
C521 C 0.2576 0.18174 0.35886 0.0
C522 C 0.26614 0.13534 0.39062 0.0
C523 C 0.24896 0.17533 0.39718 0.0
C524 C 0.25672 0.18033 0.37214 0.0
C525 C 0.23728 0.21794 0.39084 0.0
C526 C 0.26347 0.22522 0.35246 0.0
C527 C 0.25409 0.13724 0.34052 0.0
N528 N 0.24135 0.21937 0.37862 0.0
N529 N 0.25295 0.13937 0.3527 0.0
H530 H 0.90058 0.71953 0.58674 0.0
H531 H 0.75235 0.73568 0.6478 0.0
H532 H 0.75592 0.78025 0.58697 0.0
H533 H 0.90814 0.75002 0.64536 0.0
H534 H 0.74772 0.73733 0.62563 0.0
H535 H 0.89783 0.71321 0.60851 0.0
C536 C 0.86803 0.73138 0.59133 0.0
C537 C 0.82862 0.75114 0.58497 0.0
C538 C 0.78272 0.74023 0.63003 0.0
C539 C 0.82547 0.74374 0.61003 0.0
C540 C 0.78544 0.73916 0.64262 0.0
C541 C 0.83069 0.74287 0.64841 0.0
C542 C 0.82563 0.7438 0.6233 0.0
C543 C 0.87246 0.74743 0.6413 0.0
C544 C 0.86664 0.72785 0.60379 0.0
C545 C 0.7873 0.76526 0.59151 0.0
N546 N 0.86891 0.74739 0.62914 0.0
N547 N 0.7868 0.76141 0.60374 0.0
H548 H 0.24168 0.40413 0.83704 0.0
H549 H 0.27865 0.24805 0.89591 0.0
H550 H 0.2318 0.24791 0.83532 0.0
H551 H 0.21564 0.39163 0.89582 0.0
H552 H 0.2703 0.24577 0.87387 0.0
H553 H 0.24332 0.39943 0.85889 0.0
C554 C 0.24016 0.36873 0.84126 0.0
C555 C 0.23666 0.32631 0.83435 0.0
C556 C 0.25794 0.27739 0.87877 0.0
C557 C 0.2385 0.32079 0.85942 0.0
C558 C 0.26271 0.27882 0.89131 0.0
C559 C 0.24841 0.32035 0.89774 0.0
C560 C 0.23949 0.31803 0.87269 0.0
C561 C 0.22773 0.35902 0.8913 0.0
C562 C 0.24069 0.36614 0.85375 0.0
C563 C 0.23435 0.28148 0.84034 0.0
N564 N 0.22447 0.35711 0.87914 0.0
N565 N 0.23569 0.27979 0.8526 0.0
H566 H 0.75209 0.71609 0.08716 0.0
H567 H 0.59585 0.76293 0.14501 0.0
H568 H 0.61813 0.79768 0.0869 0.0
H569 H 0.75207 0.76082 0.14824 0.0
H570 H 0.60361 0.76425 0.12324 0.0
H571 H 0.75442 0.72354 0.10924 0.0
C572 C 0.72357 0.73597 0.09168 0.0
C573 C 0.68435 0.75546 0.08516 0.0
C574 C 0.63627 0.76361 0.12869 0.0
C575 C 0.68673 0.76349 0.11022 0.0
C576 C 0.63189 0.7624 0.14112 0.0
C577 C 0.67341 0.76157 0.14843 0.0
C578 C 0.68247 0.76312 0.12345 0.0
C579 C 0.7192 0.76154 0.14288 0.0
C580 C 0.72503 0.74023 0.10425 0.0
C581 C 0.64861 0.78118 0.0915 0.0
N582 N 0.72262 0.76182 0.13064 0.0
N583 N 0.65035 0.78381 0.10366 0.0
H584 H 0.76539 0.75237 0.83533 0.0
H585 H 0.77724 0.60075 0.89587 0.0
H586 H 0.74407 0.59731 0.83719 0.0
H587 H 0.72497 0.74856 0.89621 0.0
H588 H 0.78035 0.60349 0.87406 0.0
H589 H 0.76307 0.75575 0.85747 0.0
C590 C 0.7601 0.71917 0.84037 0.0
C591 C 0.75498 0.67447 0.83441 0.0
C592 C 0.76823 0.63536 0.8789 0.0
C593 C 0.75317 0.67812 0.85954 0.0
C594 C 0.76666 0.63401 0.89139 0.0
C595 C 0.75039 0.67442 0.89794 0.0
C596 C 0.75397 0.67753 0.87282 0.0
C597 C 0.7374 0.71647 0.89153 0.0
C598 C 0.75867 0.7212 0.85295 0.0
C599 C 0.74802 0.63259 0.84137 0.0
N600 N 0.73949 0.71699 0.87927 0.0
N601 N 0.74778 0.63542 0.85354 0.0
H602 H 0.33379 0.30942 0.14534 0.0
H603 H 0.34101 0.17685 0.08419 0.0
H604 H 0.29168 0.15877 0.14397 0.0
H605 H 0.27797 0.31984 0.08617 0.0
H606 H 0.33131 0.16863 0.10606 0.0
H607 H 0.32216 0.31485 0.12348 0.0
C608 C 0.32178 0.27763 0.14042 0.0
C609 C 0.31376 0.23356 0.14637 0.0
C610 C 0.3189 0.2014 0.10165 0.0
C611 C 0.30138 0.23931 0.12153 0.0
C612 C 0.3246 0.2062 0.08923 0.0
C613 C 0.31035 0.24912 0.08346 0.0
C614 C 0.30036 0.24042 0.1083 0.0
C615 C 0.2892 0.28613 0.09033 0.0
C616 C 0.31487 0.28084 0.12802 0.0
C617 C 0.29805 0.1934 0.13965 0.0
N618 N 0.28577 0.28137 0.10248 0.0
N619 N 0.29325 0.19694 0.1275 0.0
H620 H 0.76921 0.90692 0.33579 0.0
H621 H 0.77615 0.74947 0.39558 0.0
H622 H 0.73646 0.75366 0.3348 0.0
H623 H 0.73842 0.90155 0.39456 0.0
H624 H 0.77407 0.74797 0.37343 0.0
H625 H 0.77295 0.90308 0.35763 0.0
C626 C 0.76321 0.87228 0.34014 0.0
C627 C 0.7522 0.83056 0.33343 0.0
C628 C 0.76604 0.78143 0.37814 0.0
C629 C 0.75643 0.82612 0.35852 0.0
C630 C 0.76728 0.78239 0.39074 0.0
C631 C 0.75755 0.82572 0.39695 0.0
C632 C 0.75596 0.82428 0.3718 0.0
C633 C 0.74614 0.86727 0.39021 0.0
C634 C 0.76504 0.87025 0.35263 0.0
C635 C 0.74471 0.78676 0.33963 0.0
N636 N 0.74609 0.86557 0.37802 0.0
N637 N 0.74703 0.78561 0.35188 0.0
H638 H 0.20829 0.34432 0.64445 0.0
H639 H 0.21853 0.17552 0.58662 0.0
H640 H 0.16381 0.19436 0.64586 0.0
H641 H 0.15859 0.3199 0.58479 0.0
H642 H 0.22533 0.18399 0.60861 0.0
H643 H 0.21659 0.33729 0.62246 0.0
C644 C 0.20102 0.30982 0.64014 0.0
C645 C 0.18505 0.26991 0.64688 0.0
C646 C 0.21131 0.21389 0.60331 0.0
C647 C 0.19546 0.26153 0.62203 0.0
C648 C 0.20763 0.20923 0.59083 0.0
C649 C 0.18768 0.24699 0.58397 0.0
C650 C 0.1962 0.25704 0.60884 0.0
C651 C 0.17376 0.28986 0.58983 0.0
C652 C 0.20558 0.30594 0.62766 0.0
C653 C 0.17579 0.22602 0.64091 0.0
N654 N 0.17842 0.29385 0.60196 0.0
N655 N 0.18134 0.22288 0.62879 0.0
H656 H 0.30825 0.22632 0.2754 0.0
H657 H 0.27959 0.20163 0.20422 0.0
H658 H 0.22866 0.11056 0.25815 0.0
H659 H 0.40165 0.27491 0.22054 0.0
H660 H 0.25149 0.1782 0.22422 0.0
H661 H 0.33434 0.2549 0.25548 0.0
C662 C 0.29607 0.20718 0.26743 0.0
C663 C 0.26643 0.16602 0.26837 0.0
C664 C 0.28442 0.19942 0.22342 0.0
C665 C 0.29557 0.19849 0.24575 0.0
C666 C 0.3004 0.21289 0.21202 0.0
C667 C 0.34313 0.23998 0.21075 0.0
C668 C 0.31099 0.2137 0.23361 0.0
C669 C 0.36866 0.25373 0.22116 0.0
C670 C 0.3111 0.22331 0.25611 0.0
C671 C 0.25174 0.14232 0.2578 0.0
N672 N 0.3521 0.24052 0.2322 0.0
N673 N 0.26632 0.15901 0.24692 0.0
H674 H 0.80082 0.77703 0.45533 0.0
H675 H 0.77926 0.8016 0.52678 0.0
H676 H 0.72442 0.89448 0.47264 0.0
H677 H 0.89793 0.7278 0.5093 0.0
H678 H 0.74795 0.82533 0.50694 0.0
H679 H 0.82623 0.74748 0.4752 0.0
C680 C 0.78916 0.79634 0.46331 0.0
C681 C 0.76079 0.83833 0.46239 0.0
C682 C 0.78076 0.80382 0.50749 0.0
C683 C 0.78916 0.80472 0.485 0.0
C684 C 0.7985 0.79019 0.51877 0.0
C685 C 0.8413 0.76299 0.51963 0.0
C686 C 0.80567 0.78939 0.49706 0.0
C687 C 0.86496 0.74912 0.50901 0.0
C688 C 0.80376 0.77962 0.47461 0.0
C689 C 0.74663 0.86212 0.47299 0.0
N690 N 0.84676 0.76238 0.49813 0.0
N691 N 0.7609 0.84491 0.48388 0.0
H692 H 0.22402 0.30283 0.70486 0.0
H693 H 0.19634 0.27865 0.77608 0.0
H694 H 0.10251 0.22986 0.72137 0.0
H695 H 0.27576 0.39455 0.75896 0.0
H696 H 0.17095 0.24957 0.75614 0.0
H697 H 0.25308 0.32618 0.72486 0.0
C698 C 0.20357 0.29159 0.7127 0.0
C699 C 0.16067 0.26468 0.7115 0.0
C700 C 0.19403 0.28128 0.7568 0.0
C701 C 0.19389 0.2908 0.73432 0.0
C702 C 0.20865 0.29772 0.76813 0.0
C703 C 0.23795 0.33912 0.76912 0.0
C704 C 0.20958 0.30605 0.74645 0.0
C705 C 0.25288 0.36264 0.75856 0.0
C706 C 0.2201 0.30501 0.72409 0.0
C707 C 0.13561 0.25094 0.72194 0.0
N708 N 0.23863 0.34568 0.74765 0.0
N709 N 0.15267 0.26408 0.73295 0.0
H710 H 0.77882 0.60188 0.9735 0.0
H711 H 0.59908 0.76967 0.01025 0.0
H712 H 0.6998 0.7188 0.95665 0.0
H713 H 0.72209 0.69942 0.02688 0.0
H714 H 0.62932 0.74506 0.99047 0.0
H715 H 0.75234 0.63094 -0.0068 0.0
C716 C 0.75594 0.63377 0.97396 0.0
C717 C 0.74138 0.65806 0.96347 0.0
C718 C 0.64978 0.7353 -0.00155 0.0
C719 C 0.71071 0.69107 0.98591 0.0
C720 C 0.63248 0.74905 0.00973 0.0
C721 C 0.65821 0.73644 0.02018 0.0
C722 C 0.6926 0.70806 -0.00233 0.0
C723 C 0.7013 0.70992 0.01902 0.0
C724 C 0.74106 0.6504 0.9852 0.0
C725 C 0.7119 0.69922 0.96455 0.0
N726 N 0.71701 0.6962 0.00795 0.0
N727 N 0.69709 0.71426 0.97561 0.0
H728 H 0.2825 0.23618 0.02116 0.0
H729 H 0.31349 0.41212 0.96716 0.0
H730 H 0.42348 0.29905 0.01473 0.0
H731 H 0.2494 0.27176 0.96062 0.0
H732 H 0.34328 0.38288 0.98673 0.0
H733 H 0.25744 0.2606 0.00077 0.0
C734 C 0.30799 0.25526 0.01545 0.0
C735 C 0.35501 0.26568 0.0195 0.0
C736 C 0.32286 0.3586 0.98095 0.0
C737 C 0.32654 0.29418 -0.00344 0.0
C738 C 0.30574 0.37518 0.96989 0.0
C739 C 0.27905 0.34412 0.9624 0.0
C740 C 0.3117 0.31132 0.98462 0.0
C741 C 0.27007 0.29654 0.9662 0.0
C742 C 0.29385 0.26877 0.00387 0.0
C743 C 0.38699 0.29023 0.01183 0.0
N744 N 0.28574 0.28166 0.97721 0.0
N745 N 0.37191 0.30438 0.00072 0.0
H746 H 0.69925 0.91277 0.263 0.0
H747 H 0.71837 0.72651 0.21086 0.0
H748 H 0.75972 0.77219 0.27109 0.0
H749 H 0.57945 0.79204 0.21823 0.0
H750 H 0.74734 0.75372 0.23075 0.0
H751 H 0.6672 0.88028 0.24397 0.0
C752 C 0.70591 0.87515 0.26071 0.0
C753 C 0.73207 0.84492 0.2685 0.0
C754 C 0.71049 0.76175 0.22798 0.0
C755 C 0.69674 0.80835 0.24688 0.0
C756 C 0.69411 0.74657 0.21669 0.0
C757 C 0.64656 0.757 0.21306 0.0
C758 C 0.6795 0.7889 0.23535 0.0
C759 C 0.61626 0.78303 0.22084 0.0
C760 C 0.68747 0.85673 0.24996 0.0
C761 C 0.73953 0.79638 0.26526 0.0
N762 N 0.63352 0.79887 0.23161 0.0
N763 N 0.72249 0.77959 0.25454 0.0
H764 H 0.273 0.10238 0.47265 0.0
H765 H 0.09674 0.27346 0.50955 0.0
H766 H 0.19466 0.21926 0.45559 0.0
H767 H 0.22058 0.20295 0.52574 0.0
H768 H 0.12542 0.24791 0.48966 0.0
H769 H 0.24731 0.13258 0.4923 0.0
C770 C 0.25041 0.13449 0.47306 0.0
C771 C 0.23587 0.15847 0.46252 0.0
C772 C 0.14637 0.23834 0.49758 0.0
C773 C 0.20609 0.19283 0.48491 0.0
C774 C 0.12998 0.25264 0.50891 0.0
C775 C 0.15636 0.24014 0.51927 0.0
C776 C 0.18891 0.21068 0.49668 0.0
C777 C 0.19922 0.21334 0.51797 0.0
C778 C 0.23597 0.15178 0.48426 0.0
C779 C 0.20675 0.19993 0.46353 0.0
N780 N 0.21399 0.19911 0.50686 0.0
N781 N 0.19237 0.21566 0.47457 0.0
H782 H 0.90437 0.78016 0.72379 0.0
H783 H 0.72451 0.60531 0.75865 0.0
H784 H 0.78438 0.70822 0.70622 0.0
H785 H 0.80015 0.72198 0.7766 0.0
H786 H 0.75235 0.63669 0.73927 0.0
H787 H 0.87283 0.75347 0.74331 0.0
C788 C 0.87135 0.75884 0.72405 0.0
C789 C 0.84694 0.74624 0.71341 0.0
C790 C 0.76259 0.65556 0.74745 0.0
C791 C 0.81114 0.71538 0.73559 0.0
C792 C 0.7469 0.63762 0.7585 0.0
C793 C 0.76011 0.66116 0.76921 0.0
C794 C 0.79236 0.69683 0.74714 0.0
C795 C 0.78908 0.70289 0.76853 0.0
C796 C 0.85333 0.74383 0.73517 0.0
C797 C 0.80428 0.71871 0.71422 0.0
N798 N 0.80466 0.71924 0.75765 0.0
N799 N 0.78792 0.7038 0.72514 0.0
loop_
_geom_bond_atom_site_label_1
_geom_bond_atom_site_label_2
_geom_bond_distance
_geom_bond_site_symmetry_2
_ccdc_geom_bond_type
Co0 O1 2.216 . S
Co0 O2 2.091 . S
Co0 O4 2.004 . S
Co0 O10 2.021 . S
Co0 O12 2.137 . S
Co0 O13 2.244 . S
O1 Co0 2.216 . S
O1 C8 1.247 . S
O2 Co0 2.091 . S
O2 C8 1.261 . S
C3 O12 1.247 . S
C3 O13 1.272 . S
O4 Co0 2.004 . S
O4 C9 1.259 . S
Co5 O6 2.061 . S
Co5 O11 2.052 . S
Co5 O13 2.135 . S
O6 Co5 2.061 . S
O6 C9 1.235 . S
C7 O10 1.238 . S
C7 O11 1.241 . S
C8 O1 1.247 . S
C8 O2 1.261 . S
C9 O4 1.259 . S
C9 O6 1.235 . S
O10 Co0 2.021 . S
O10 C7 1.238 . S
O11 Co5 2.052 . S
O11 C7 1.241 . S
O12 Co0 2.137 . S
O12 C3 1.247 . S
O13 Co0 2.244 . S
O13 C3 1.272 . S
O13 Co5 2.135 . S
Co14 O15 2.216 . S
Co14 O16 2.091 . S
Co14 O18 2.004 . S
Co14 O24 2.021 . S
Co14 O26 2.137 . S
Co14 O27 2.244 . S
O15 Co14 2.216 . S
O15 C22 1.247 . S
O16 Co14 2.091 . S
O16 C22 1.261 . S
C17 O26 1.247 . S
C17 O27 1.272 . S
O18 Co14 2.004 . S
O18 C23 1.259 . S
Co19 O20 2.061 . S
Co19 O25 2.052 . S
Co19 O27 2.135 . S
O20 Co19 2.061 . S
O20 C23 1.235 . S
C21 O24 1.238 . S
C21 O25 1.241 . S
C22 O15 1.247 . S
C22 O16 1.261 . S
C23 O18 1.259 . S
C23 O20 1.235 . S
O24 Co14 2.021 . S
O24 C21 1.238 . S
O25 Co19 2.052 . S
O25 C21 1.241 . S
O26 Co14 2.137 . S
O26 C17 1.247 . S
O27 Co14 2.244 . S
O27 C17 1.272 . S
O27 Co19 2.135 . S
Co28 O29 2.216 . S
Co28 O30 2.091 . S
Co28 O32 2.004 . S
Co28 O38 2.021 . S
Co28 O40 2.137 . S
Co28 O41 2.244 . S
O29 Co28 2.216 . S
O29 C36 1.247 . S
O30 Co28 2.091 . S
O30 C36 1.261 . S
C31 O40 1.247 . S
C31 O41 1.272 . S
O32 Co28 2.004 . S
O32 C37 1.259 . S
Co33 O34 2.061 . S
Co33 O39 2.052 . S
Co33 O41 2.135 . S
O34 Co33 2.061 . S
O34 C37 1.235 . S
C35 O38 1.238 . S
C35 O39 1.241 . S
C36 O29 1.247 . S
C36 O30 1.261 . S
C37 O32 1.259 . S
C37 O34 1.235 . S
O38 Co28 2.021 . S
O38 C35 1.238 . S
O39 Co33 2.052 . S
O39 C35 1.241 . S
O40 Co28 2.137 . S
O40 C31 1.247 . S
O41 Co28 2.244 . S
O41 C31 1.272 . S
O41 Co33 2.135 . S
Co42 O43 2.216 . S
Co42 O44 2.091 . S
Co42 O46 2.004 . S
Co42 O52 2.021 . S
Co42 O54 2.137 . S
Co42 O55 2.244 . S
O43 Co42 2.216 . S
O43 C50 1.247 . S
O44 Co42 2.091 . S
O44 C50 1.261 . S
C45 O54 1.247 . S
C45 O55 1.272 . S
O46 Co42 2.004 . S
O46 C51 1.259 . S
Co47 O48 2.061 . S
Co47 O53 2.052 . S
Co47 O55 2.135 . S
O48 Co47 2.061 . S
O48 C51 1.235 . S
C49 O52 1.238 . S
C49 O53 1.241 . S
C50 O43 1.247 . S
C50 O44 1.261 . S
C51 O46 1.259 . S
C51 O48 1.235 . S
O52 Co42 2.021 . S
O52 C49 1.238 . S
O53 Co47 2.052 . S
O53 C49 1.241 . S
O54 Co42 2.137 . S
O54 C45 1.247 . S
O55 Co42 2.244 . S
O55 C45 1.272 . S
O55 Co47 2.135 . S
Co56 O57 2.216 . S
Co56 O58 2.091 . S
Co56 O60 2.004 . S
Co56 O66 2.021 . S
Co56 O68 2.137 . S
Co56 O69 2.244 . S
O57 Co56 2.216 . S
O57 C64 1.247 . S
O58 Co56 2.091 . S
O58 C64 1.261 . S
C59 O68 1.247 . S
C59 O69 1.272 . S
O60 Co56 2.004 . S
O60 C65 1.259 . S
Co61 O62 2.061 . S
Co61 O67 2.052 . S
Co61 O69 2.135 . S
O62 Co61 2.061 . S
O62 C65 1.235 . S
C63 O66 1.238 . S
C63 O67 1.241 . S
C64 O57 1.247 . S
C64 O58 1.261 . S
C65 O60 1.259 . S
C65 O62 1.235 . S
O66 Co56 2.021 . S
O66 C63 1.238 . S
O67 Co61 2.052 . S
O67 C63 1.241 . S
O68 Co56 2.137 . S
O68 C59 1.247 . S
O69 Co56 2.244 . S
O69 C59 1.272 . S
O69 Co61 2.135 . S
Co70 O71 2.216 . S
Co70 O72 2.091 . S
Co70 O74 2.004 . S
Co70 O80 2.021 . S
Co70 O82 2.137 . S
Co70 O83 2.244 . S
O71 Co70 2.216 . S
O71 C78 1.247 . S
O72 Co70 2.091 . S
O72 C78 1.261 . S
C73 O82 1.247 . S
C73 O83 1.272 . S
O74 Co70 2.004 . S
O74 C79 1.259 . S
Co75 O76 2.061 . S
Co75 O81 2.052 . S
Co75 O83 2.135 . S
O76 Co75 2.061 . S
O76 C79 1.235 . S
C77 O80 1.238 . S
C77 O81 1.241 . S
C78 O71 1.247 . S
C78 O72 1.261 . S
C79 O74 1.259 . S
C79 O76 1.235 . S
O80 Co70 2.021 . S
O80 C77 1.238 . S
O81 Co75 2.052 . S
O81 C77 1.241 . S
O82 Co70 2.137 . S
O82 C73 1.247 . S
O83 Co70 2.244 . S
O83 C73 1.272 . S
O83 Co75 2.135 . S
Co84 O85 2.216 . S
Co84 O86 2.091 . S
Co84 O88 2.004 . S
Co84 O94 2.021 . S
Co84 O96 2.137 . S
Co84 O97 2.244 . S
O85 Co84 2.216 . S
O85 C92 1.247 . S
O86 Co84 2.091 . S
O86 C92 1.261 . S
C87 O96 1.247 . S
C87 O97 1.272 . S
O88 Co84 2.004 . S
O88 C93 1.259 . S
Co89 O90 2.061 . S
Co89 O95 2.052 . S
Co89 O97 2.135 . S
O90 Co89 2.061 . S
O90 C93 1.235 . S
C91 O94 1.238 . S
C91 O95 1.241 . S
C92 O85 1.247 . S
C92 O86 1.261 . S
C93 O88 1.259 . S
C93 O90 1.235 . S
O94 Co84 2.021 . S
O94 C91 1.238 . S
O95 Co89 2.052 . S
O95 C91 1.241 . S
O96 Co84 2.137 . S
O96 C87 1.247 . S
O97 Co84 2.244 . S
O97 C87 1.272 . S
O97 Co89 2.135 . S
Co98 O99 2.216 . S
Co98 O100 2.091 . S
Co98 O102 2.004 . S
Co98 O108 2.021 . S
Co98 O110 2.137 . S
Co98 O111 2.244 . S
O99 Co98 2.216 . S
O99 C106 1.247 . S
O100 Co98 2.091 . S
O100 C106 1.261 . S
C101 O110 1.247 . S
C101 O111 1.272 . S
O102 Co98 2.004 . S
O102 C107 1.259 . S
Co103 O104 2.061 . S
Co103 O109 2.052 . S
Co103 O111 2.135 . S
O104 Co103 2.061 . S
O104 C107 1.235 . S
C105 O108 1.238 . S
C105 O109 1.241 . S
C106 O99 1.247 . S
C106 O100 1.261 . S
C107 O102 1.259 . S
C107 O104 1.235 . S
O108 Co98 2.021 . S
O108 C105 1.238 . S
O109 Co103 2.052 . S
O109 C105 1.241 . S
O110 Co98 2.137 . S
O110 C101 1.247 . S
O111 Co98 2.244 . S
O111 C101 1.272 . S
O111 Co103 2.135 . S
Co112 O113 2.216 . S
Co112 O114 2.091 . S
Co112 O116 2.004 . S
Co112 O122 2.021 . S
Co112 O124 2.137 . S
Co112 O125 2.244 . S
O113 Co112 2.216 . S
O113 C120 1.247 . S
O114 Co112 2.091 . S
O114 C120 1.261 . S
C115 O124 1.247 . S
C115 O125 1.272 . S
O116 Co112 2.004 . S
O116 C121 1.259 . S
Co117 O118 2.061 . S
Co117 O123 2.052 . S
Co117 O125 2.135 . S
O118 Co117 2.061 . S
O118 C121 1.235 . S
C119 O122 1.238 . S
C119 O123 1.241 . S
C120 O113 1.247 . S
C120 O114 1.261 . S
C121 O116 1.259 . S
C121 O118 1.235 . S
O122 Co112 2.021 . S
O122 C119 1.238 . S
O123 Co117 2.052 . S
O123 C119 1.241 . S
O124 Co112 2.137 . S
O124 C115 1.247 . S
O125 Co112 2.244 . S
O125 C115 1.272 . S
O125 Co117 2.135 . S
Co126 O127 2.216 . S
Co126 O128 2.091 . S
Co126 O130 2.004 . S
Co126 O136 2.021 . S
Co126 O138 2.137 . S
Co126 O139 2.244 . S
O127 Co126 2.216 . S
O127 C134 1.247 . S
O128 Co126 2.091 . S
O128 C134 1.261 . S
C129 O138 1.247 . S
C129 O139 1.272 . S
O130 Co126 2.004 . S
O130 C135 1.259 . S
Co131 O132 2.061 . S
Co131 O137 2.052 . S
Co131 O139 2.135 . S
O132 Co131 2.061 . S
O132 C135 1.235 . S
C133 O136 1.238 . S
C133 O137 1.241 . S
C134 O127 1.247 . S
C134 O128 1.261 . S
C135 O130 1.259 . S
C135 O132 1.235 . S
O136 Co126 2.021 . S
O136 C133 1.238 . S
O137 Co131 2.052 . S
O137 C133 1.241 . S
O138 Co126 2.137 . S
O138 C129 1.247 . S
O139 Co126 2.244 . S
O139 C129 1.272 . S
O139 Co131 2.135 . S
Co140 O141 2.216 . S
Co140 O142 2.091 . S
Co140 O144 2.004 . S
Co140 O150 2.021 . S
Co140 O152 2.137 . S
Co140 O153 2.244 . S
O141 Co140 2.216 . S
O141 C148 1.247 . S
O142 Co140 2.091 . S
O142 C148 1.261 . S
C143 O152 1.247 . S
C143 O153 1.272 . S
O144 Co140 2.004 . S
O144 C149 1.259 . S
Co145 O146 2.061 . S
Co145 O151 2.052 . S
Co145 O153 2.135 . S
O146 Co145 2.061 . S
O146 C149 1.235 . S
C147 O150 1.238 . S
C147 O151 1.241 . S
C148 O141 1.247 . S
C148 O142 1.261 . S
C149 O144 1.259 . S
C149 O146 1.235 . S
O150 Co140 2.021 . S
O150 C147 1.238 . S
O151 Co145 2.052 . S
O151 C147 1.241 . S
O152 Co140 2.137 . S
O152 C143 1.247 . S
O153 Co140 2.244 . S
O153 C143 1.272 . S
O153 Co145 2.135 . S
Co154 O155 2.216 . S
Co154 O156 2.091 . S
Co154 O158 2.004 . S
Co154 O164 2.021 . S
Co154 O166 2.137 . S
Co154 O167 2.244 . S
O155 Co154 2.216 . S
O155 C162 1.247 . S
O156 Co154 2.091 . S
O156 C162 1.261 . S
C157 O166 1.247 . S
C157 O167 1.272 . S
O158 Co154 2.004 . S
O158 C163 1.259 . S
Co159 O160 2.061 . S
Co159 O165 2.052 . S
Co159 O167 2.135 . S
O160 Co159 2.061 . S
O160 C163 1.235 . S
C161 O164 1.238 . S
C161 O165 1.241 . S
C162 O155 1.247 . S
C162 O156 1.261 . S
C163 O158 1.259 . S
C163 O160 1.235 . S
O164 Co154 2.021 . S
O164 C161 1.238 . S
O165 Co159 2.052 . S
O165 C161 1.241 . S
O166 Co154 2.137 . S
O166 C157 1.247 . S
O167 Co154 2.244 . S
O167 C157 1.272 . S
O167 Co159 2.135 . S
Co168 O169 2.216 . S
Co168 O170 2.091 . S
Co168 O172 2.004 . S
Co168 O178 2.021 . S
Co168 O180 2.137 . S
Co168 O181 2.244 . S
O169 Co168 2.216 . S
O169 C176 1.247 . S
O170 Co168 2.091 . S
O170 C176 1.261 . S
C171 O180 1.247 . S
C171 O181 1.272 . S
O172 Co168 2.004 . S
O172 C177 1.259 . S
Co173 O174 2.061 . S
Co173 O179 2.052 . S
Co173 O181 2.135 . S
O174 Co173 2.061 . S
O174 C177 1.235 . S
C175 O178 1.238 . S
C175 O179 1.241 . S
C176 O169 1.247 . S
C176 O170 1.261 . S
C177 O172 1.259 . S
C177 O174 1.235 . S
O178 Co168 2.021 . S
O178 C175 1.238 . S
O179 Co173 2.052 . S
O179 C175 1.241 . S
O180 Co168 2.137 . S
O180 C171 1.247 . S
O181 Co168 2.244 . S
O181 C171 1.272 . S
O181 Co173 2.135 . S
Co182 O183 2.216 . S
Co182 O184 2.091 . S
Co182 O186 2.004 . S
Co182 O192 2.021 . S
Co182 O194 2.137 . S
Co182 O195 2.244 . S
O183 Co182 2.216 . S
O183 C190 1.247 . S
O184 Co182 2.091 . S
O184 C190 1.261 . S
C185 O194 1.247 . S
C185 O195 1.272 . S
O186 Co182 2.004 . S
O186 C191 1.259 . S
Co187 O188 2.061 . S
Co187 O193 2.052 . S
Co187 O195 2.135 . S
O188 Co187 2.061 . S
O188 C191 1.235 . S
C189 O192 1.238 . S
C189 O193 1.241 . S
C190 O183 1.247 . S
C190 O184 1.261 . S
C191 O186 1.259 . S
C191 O188 1.235 . S
O192 Co182 2.021 . S
O192 C189 1.238 . S
O193 Co187 2.052 . S
O193 C189 1.241 . S
O194 Co182 2.137 . S
O194 C185 1.247 . S
O195 Co182 2.244 . S
O195 C185 1.272 . S
O195 Co187 2.135 . S
Co196 O197 2.216 . S
Co196 O198 2.091 . S
Co196 O200 2.004 . S
Co196 O206 2.021 . S
Co196 O208 2.137 . S
Co196 O209 2.244 . S
O197 Co196 2.216 . S
O197 C204 1.247 . S
O198 Co196 2.091 . S
O198 C204 1.261 . S
C199 O208 1.247 . S
C199 O209 1.272 . S
O200 Co196 2.004 . S
O200 C205 1.259 . S
Co201 O202 2.061 . S
Co201 O207 2.052 . S
Co201 O209 2.135 . S
O202 Co201 2.061 . S
O202 C205 1.235 . S
C203 O206 1.238 . S
C203 O207 1.241 . S
C204 O197 1.247 . S
C204 O198 1.261 . S
C205 O200 1.259 . S
C205 O202 1.235 . S
O206 Co196 2.021 . S
O206 C203 1.238 . S
O207 Co201 2.052 . S
O207 C203 1.241 . S
O208 Co196 2.137 . S
O208 C199 1.247 . S
O209 Co196 2.244 . S
O209 C199 1.272 . S
O209 Co201 2.135 . S
Co210 O211 2.216 . S
Co210 O212 2.091 . S
Co210 O214 2.004 . S
Co210 O220 2.021 . S
Co210 O222 2.137 . S
Co210 O223 2.244 . S
O211 Co210 2.216 . S
O211 C218 1.247 . S
O212 Co210 2.091 . S
O212 C218 1.261 . S
C213 O222 1.247 . S
C213 O223 1.272 . S
O214 Co210 2.004 . S
O214 C219 1.259 . S
Co215 O216 2.061 . S
Co215 O221 2.052 . S
Co215 O223 2.135 . S
O216 Co215 2.061 . S
O216 C219 1.235 . S
C217 O220 1.238 . S
C217 O221 1.241 . S
C218 O211 1.247 . S
C218 O212 1.261 . S
C219 O214 1.259 . S
C219 O216 1.235 . S
O220 Co210 2.021 . S
O220 C217 1.238 . S
O221 Co215 2.052 . S
O221 C217 1.241 . S
O222 Co210 2.137 . S
O222 C213 1.247 . S
O223 Co210 2.244 . S
O223 C213 1.272 . S
O223 Co215 2.135 . S
H224 C230 0.930 . S
H225 C234 0.930 . S
H226 C239 0.929 . S
H227 C237 0.929 . S
H228 C232 0.929 . S
H229 C238 0.929 . S
C230 H224 0.930 . S
C230 C231 1.367 . S
C230 C238 1.378 . S
C231 C230 1.367 . S
C231 C239 1.433 . S
C232 H228 0.929 . S
C232 C234 1.378 . S
C232 C236 1.350 . S
C233 C236 1.463 1_665 S
C233 C238 1.350 . S
C233 N241 1.427 . S
C234 H225 0.930 . S
C234 C232 1.378 . S
C234 C235 1.367 . S
C235 C234 1.367 . S
C235 C237 1.433 . S
C236 C232 1.350 . S
C236 C233 1.463 1_445 S
C236 N240 1.427 . S
C237 H227 0.929 . S
C237 C235 1.433 . S
C237 N240 1.384 . S
C238 H229 0.929 . S
C238 C230 1.378 . S
C238 C233 1.350 . S
C239 H226 0.929 . S
C239 C231 1.433 . S
C239 N241 1.384 . S
N240 C236 1.427 . S
N240 C237 1.384 . S
N241 C233 1.427 . S
N241 C239 1.384 . S
H242 C248 0.929 1_455 S
H243 C252 0.929 1_655 S
H244 C257 0.929 . S
H245 C255 0.929 . S
H246 C250 0.929 . S
H247 C256 0.929 . S
C248 H242 0.929 1_655 S
C248 C249 1.367 . S
C248 C256 1.378 1_655 S
C249 C248 1.367 . S
C249 C257 1.433 . S
C250 H246 0.929 . S
C250 C252 1.378 1_655 S
C250 C254 1.350 1_655 S
C251 C254 1.463 1_655 S
C251 C256 1.350 1_655 S
C251 N259 1.427 . S
C252 H243 0.929 1_455 S
C252 C250 1.378 1_455 S
C252 C253 1.367 . S
C253 C252 1.367 . S
C253 C255 1.433 . S
C254 C250 1.350 1_455 S
C254 C251 1.463 1_455 S
C254 N258 1.427 . S
C255 H245 0.929 . S
C255 C253 1.433 . S
C255 N258 1.384 . S
C256 H247 0.929 . S
C256 C248 1.378 1_455 S
C256 C251 1.350 1_455 S
C257 H244 0.929 . S
C257 C249 1.433 . S
C257 N259 1.384 . S
N258 C254 1.427 . S
N258 C255 1.384 . S
N259 C251 1.427 . S
N259 C257 1.384 . S
H260 C266 0.930 . S
H261 C270 0.930 . S
H262 C275 0.929 . S
H263 C273 0.929 . S
H264 C268 0.929 . S
H265 C274 0.929 . S
C266 H260 0.930 . S
C266 C267 1.367 . S
C266 C274 1.378 . S
C267 C266 1.367 . S
C267 C275 1.433 . S
C268 H264 0.929 . S
C268 C270 1.378 . S
C268 C272 1.350 . S
C269 C272 1.463 . S
C269 C274 1.350 . S
C269 N277 1.427 . S
C270 H261 0.930 . S
C270 C268 1.378 . S
C270 C271 1.367 . S
C271 C270 1.367 . S
C271 C273 1.433 . S
C272 C268 1.350 . S
C272 C269 1.463 . S
C272 N276 1.427 . S
C273 H263 0.929 . S
C273 C271 1.433 . S
C273 N276 1.384 . S
C274 H265 0.929 . S
C274 C266 1.378 . S
C274 C269 1.350 . S
C275 H262 0.929 . S
C275 C267 1.433 . S
C275 N277 1.384 . S
N276 C272 1.427 . S
N276 C273 1.384 . S
N277 C269 1.427 . S
N277 C275 1.384 . S
H278 C284 0.930 . S
H279 C288 0.930 . S
H280 C293 0.929 . S
H281 C291 0.929 . S
H282 C286 0.929 . S
H283 C292 0.929 . S
C284 H278 0.930 . S
C284 C285 1.367 . S
C284 C292 1.378 . S
C285 C284 1.367 . S
C285 C293 1.433 . S
C286 H282 0.929 . S
C286 C288 1.378 . S
C286 C290 1.350 . S
C287 C290 1.463 1_545 S
C287 C292 1.350 . S
C287 N295 1.427 . S
C288 H279 0.930 . S
C288 C286 1.378 . S
C288 C289 1.367 . S
C289 C288 1.367 . S
C289 C291 1.433 . S
C290 C286 1.350 . S
C290 C287 1.463 1_565 S
C290 N294 1.427 . S
C291 H281 0.929 . S
C291 C289 1.433 . S
C291 N294 1.384 . S
C292 H283 0.929 . S
C292 C284 1.378 . S
C292 C287 1.350 . S
C293 H280 0.929 . S
C293 C285 1.433 . S
C293 N295 1.384 . S
N294 C290 1.427 . S
N294 C291 1.384 . S
N295 C287 1.427 . S
N295 C293 1.384 . S
H296 C302 0.930 . S
H297 C306 0.930 . S
H298 C311 0.929 . S
H299 C309 0.929 . S
H300 C304 0.929 . S
H301 C310 0.929 . S
C302 H296 0.930 . S
C302 C303 1.367 . S
C302 C310 1.378 . S
C303 C302 1.367 . S
C303 C311 1.433 . S
C304 H300 0.929 . S
C304 C306 1.378 . S
C304 C308 1.350 . S
C305 C308 1.463 1_455 S
C305 C310 1.350 . S
C305 N313 1.427 . S
C306 H297 0.930 . S
C306 C304 1.378 . S
C306 C307 1.367 . S
C307 C306 1.367 . S
C307 C309 1.433 . S
C308 C304 1.350 . S
C308 C305 1.463 1_655 S
C308 N312 1.427 . S
C309 H299 0.929 . S
C309 C307 1.433 . S
C309 N312 1.384 . S
C310 H301 0.929 . S
C310 C302 1.378 . S
C310 C305 1.350 . S
C311 H298 0.929 . S
C311 C303 1.433 . S
C311 N313 1.384 . S
N312 C308 1.427 . S
N312 C309 1.384 . S
N313 C305 1.427 . S
N313 C311 1.384 . S
H314 C320 0.930 . S
H315 C324 0.930 . S
H316 C329 0.929 . S
H317 C327 0.929 . S
H318 C322 0.929 . S
H319 C328 0.929 . S
C320 H314 0.930 . S
C320 C321 1.367 . S
C320 C328 1.378 . S
C321 C320 1.367 . S
C321 C329 1.433 . S
C322 H318 0.929 . S
C322 C324 1.378 . S
C322 C326 1.350 . S
C323 C326 1.463 . S
C323 C328 1.350 . S
C323 N331 1.427 . S
C324 H315 0.930 . S
C324 C322 1.378 . S
C324 C325 1.367 . S
C325 C324 1.367 . S
C325 C327 1.433 . S
C326 C322 1.350 . S
C326 C323 1.463 . S
C326 N330 1.427 . S
C327 H317 0.929 . S
C327 C325 1.433 . S
C327 N330 1.384 . S
C328 H319 0.929 . S
C328 C320 1.378 . S
C328 C323 1.350 . S
C329 H316 0.929 . S
C329 C321 1.433 . S
C329 N331 1.384 . S
N330 C326 1.427 . S
N330 C327 1.384 . S
N331 C323 1.427 . S
N331 C329 1.384 . S
H332 C338 0.930 . S
H333 C342 0.930 . S
H334 C347 0.930 1_565 S
H335 C345 0.930 1_545 S
H336 C340 0.929 . S
H337 C346 0.929 . S
C338 H332 0.930 . S
C338 C339 1.367 . S
C338 C346 1.378 . S
C339 C338 1.367 . S
C339 C347 1.433 . S
C340 H336 0.929 . S
C340 C342 1.378 . S
C340 C344 1.350 . S
C341 C344 1.463 1_545 S
C341 C346 1.350 . S
C341 N349 1.427 1_545 S
C342 H333 0.930 . S
C342 C340 1.378 . S
C342 C343 1.367 . S
C343 C342 1.367 . S
C343 C345 1.433 . S
C344 C340 1.350 . S
C344 C341 1.463 1_565 S
C344 N348 1.427 1_565 S
C345 H335 0.930 1_565 S
C345 C343 1.433 . S
C345 N348 1.384 1_565 S
C346 H337 0.929 . S
C346 C338 1.378 . S
C346 C341 1.350 . S
C347 H334 0.930 1_545 S
C347 C339 1.433 . S
C347 N349 1.384 1_545 S
N348 C344 1.427 1_545 S
N348 C345 1.384 1_545 S
N349 C341 1.427 1_565 S
N349 C347 1.384 1_565 S
H350 C356 0.930 . S
H351 C360 0.930 . S
H352 C365 0.929 . S
H353 C363 0.929 . S
H354 C358 0.929 . S
H355 C364 0.929 . S
C356 H350 0.930 . S
C356 C357 1.367 . S
C356 C364 1.378 . S
C357 C356 1.367 . S
C357 C365 1.433 . S
C358 H354 0.929 . S
C358 C360 1.378 . S
C358 C362 1.350 . S
C359 C362 1.463 1_445 S
C359 C364 1.350 . S
C359 N367 1.427 . S
C360 H351 0.930 . S
C360 C358 1.378 . S
C360 C361 1.367 . S
C361 C360 1.367 . S
C361 C363 1.433 . S
C362 C358 1.350 . S
C362 C359 1.463 1_665 S
C362 N366 1.427 . S
C363 H353 0.929 . S
C363 C361 1.433 . S
C363 N366 1.384 . S
C364 H355 0.929 . S
C364 C356 1.378 . S
C364 C359 1.350 . S
C365 H352 0.929 . S
C365 C357 1.433 . S
C365 N367 1.384 . S
N366 C362 1.427 . S
N366 C363 1.384 . S
N367 C359 1.427 . S
N367 C365 1.384 . S
H368 C374 0.930 . S
H369 C378 0.930 . S
H370 C383 0.929 . S
H371 C381 0.929 . S
H372 C376 0.929 . S
H373 C382 0.929 . S
C374 H368 0.930 . S
C374 C375 1.367 . S
C374 C382 1.378 . S
C375 C374 1.367 . S
C375 C383 1.433 . S
C376 H372 0.929 . S
C376 C378 1.378 . S
C376 C380 1.350 . S
C377 C380 1.463 1_565 S
C377 C382 1.350 . S
C377 N385 1.427 . S
C378 H369 0.930 . S
C378 C376 1.378 . S
C378 C379 1.367 . S
C379 C378 1.367 . S
C379 C381 1.433 . S
C380 C376 1.350 . S
C380 C377 1.463 1_545 S
C380 N384 1.427 . S
C381 H371 0.929 . S
C381 C379 1.433 . S
C381 N384 1.384 . S
C382 H373 0.929 . S
C382 C374 1.378 . S
C382 C377 1.350 . S
C383 H370 0.929 . S
C383 C375 1.433 . S
C383 N385 1.384 . S
N384 C380 1.427 . S
N384 C381 1.384 . S
N385 C377 1.427 . S
N385 C383 1.384 . S
H386 C392 0.930 . S
H387 C396 0.930 . S
H388 C401 0.929 . S
H389 C399 0.929 . S
H390 C394 0.942 . S
H391 C400 0.942 . S
C392 H386 0.930 . S
C392 C393 1.367 . S
C392 C400 1.369 1_655 S
C393 C392 1.367 . S
C393 C401 1.433 . S
C394 H390 0.942 . S
C394 C396 1.369 1_655 S
C394 C398 1.345 1_655 S
C395 C398 1.463 1_665 S
C395 C400 1.345 1_655 S
C395 N403 1.427 . S
C396 H387 0.930 . S
C396 C394 1.369 1_455 S
C396 C397 1.367 . S
C397 C396 1.367 . S
C397 C399 1.433 . S
C398 C394 1.345 1_455 S
C398 C395 1.463 1_445 S
C398 N402 1.427 . S
C399 H389 0.929 . S
C399 C397 1.433 . S
C399 N402 1.384 . S
C400 H391 0.942 . S
C400 C392 1.369 1_455 S
C400 C395 1.345 1_455 S
C401 H388 0.929 . S
C401 C393 1.433 . S
C401 N403 1.384 . S
N402 C398 1.427 . S
N402 C399 1.384 . S
N403 C395 1.427 . S
N403 C401 1.384 . S
H404 C410 0.930 . S
H405 C414 0.930 . S
H406 C419 0.929 . S
H407 C417 0.929 . S
H408 C412 0.929 . S
H409 C418 0.929 . S
C410 H404 0.930 . S
C410 C411 1.367 . S
C410 C418 1.378 . S
C411 C410 1.367 . S
C411 C419 1.433 . S
C412 H408 0.929 . S
C412 C414 1.378 . S
C412 C416 1.350 . S
C413 C416 1.463 1_455 S
C413 C418 1.350 . S
C413 N421 1.427 . S
C414 H405 0.930 . S
C414 C412 1.378 . S
C414 C415 1.367 . S
C415 C414 1.367 . S
C415 C417 1.433 . S
C416 C412 1.350 . S
C416 C413 1.463 1_655 S
C416 N420 1.427 . S
C417 H407 0.929 . S
C417 C415 1.433 . S
C417 N420 1.384 . S
C418 H409 0.929 . S
C418 C410 1.378 . S
C418 C413 1.350 . S
C419 H406 0.929 . S
C419 C411 1.433 . S
C419 N421 1.384 . S
N420 C416 1.427 . S
N420 C417 1.384 . S
N421 C413 1.427 . S
N421 C419 1.384 . S
H422 C428 0.930 . S
H423 C432 0.930 . S
H424 C437 0.929 . S
H425 C435 0.929 . S
H426 C430 0.929 . S
H427 C436 0.929 . S
C428 H422 0.930 . S
C428 C429 1.367 . S
C428 C436 1.378 . S
C429 C428 1.367 . S
C429 C437 1.433 . S
C430 H426 0.929 . S
C430 C432 1.378 . S
C430 C434 1.350 . S
C431 C434 1.463 . S
C431 C436 1.350 . S
C431 N439 1.427 . S
C432 H423 0.930 . S
C432 C430 1.378 . S
C432 C433 1.367 . S
C433 C432 1.367 . S
C433 C435 1.433 . S
C434 C430 1.350 . S
C434 C431 1.463 . S
C434 N438 1.427 . S
C435 H425 0.929 . S
C435 C433 1.433 . S
C435 N438 1.384 . S
C436 H427 0.929 . S
C436 C428 1.378 . S
C436 C431 1.350 . S
C437 H424 0.929 . S
C437 C429 1.433 . S
C437 N439 1.384 . S
N438 C434 1.427 . S
N438 C435 1.384 . S
N439 C431 1.427 . S
N439 C437 1.384 . S
H440 C446 0.930 . S
H441 C450 0.930 . S
H442 C455 0.929 . S
H443 C453 0.929 . S
H444 C448 0.929 . S
H445 C454 0.929 . S
C446 H440 0.930 . S
C446 C447 1.367 . S
C446 C454 1.378 . S
C447 C446 1.367 . S
C447 C455 1.433 . S
C448 H444 0.929 . S
C448 C450 1.378 . S
C448 C452 1.350 . S
C449 C452 1.463 . S
C449 C454 1.350 . S
C449 N457 1.427 . S
C450 H441 0.930 . S
C450 C448 1.378 . S
C450 C451 1.367 . S
C451 C450 1.367 . S
C451 C453 1.433 . S
C452 C448 1.350 . S
C452 C449 1.463 . S
C452 N456 1.427 . S
C453 H443 0.929 . S
C453 C451 1.433 . S
C453 N456 1.384 . S
C454 H445 0.929 . S
C454 C446 1.378 . S
C454 C449 1.350 . S
C455 H442 0.929 . S
C455 C447 1.433 . S
C455 N457 1.384 . S
N456 C452 1.427 . S
N456 C453 1.384 . S
N457 C449 1.427 . S
N457 C455 1.384 . S
H458 C464 0.930 . S
H459 C468 0.930 . S
H460 C473 0.929 . S
H461 C471 0.929 . S
H462 C466 0.929 . S
H463 C472 0.929 . S
C464 H458 0.930 . S
C464 C465 1.367 . S
C464 C472 1.378 . S
C465 C464 1.367 . S
C465 C473 1.433 . S
C466 H462 0.929 . S
C466 C468 1.378 . S
C466 C470 1.350 . S
C467 C470 1.463 1_565 S
C467 C472 1.350 . S
C467 N475 1.427 . S
C468 H459 0.930 . S
C468 C466 1.378 . S
C468 C469 1.367 . S
C469 C468 1.367 . S
C469 C471 1.433 . S
C470 C466 1.350 . S
C470 C467 1.463 1_545 S
C470 N474 1.427 . S
C471 H461 0.929 . S
C471 C469 1.433 . S
C471 N474 1.384 . S
C472 H463 0.929 . S
C472 C464 1.378 . S
C472 C467 1.350 . S
C473 H460 0.929 . S
C473 C465 1.433 . S
C473 N475 1.384 . S
N474 C470 1.427 . S
N474 C471 1.384 . S
N475 C467 1.427 . S
N475 C473 1.384 . S
H476 C482 0.930 . S
H477 C486 0.930 . S
H478 C491 0.929 . S
H479 C489 0.929 . S
H480 C484 0.929 1_655 S
H481 C490 0.929 1_455 S
C482 H476 0.930 . S
C482 C483 1.367 . S
C482 C490 1.378 . S
C483 C482 1.367 . S
C483 C491 1.433 . S
C484 H480 0.929 1_455 S
C484 C486 1.378 . S
C484 C488 1.350 . S
C485 C488 1.463 1_665 S
C485 C490 1.350 . S
C485 N493 1.427 1_565 S
C486 H477 0.930 . S
C486 C484 1.378 . S
C486 C487 1.367 . S
C487 C486 1.367 . S
C487 C489 1.433 . S
C488 C484 1.350 . S
C488 C485 1.463 1_445 S
C488 N492 1.427 1_545 S
C489 H479 0.929 . S
C489 C487 1.433 . S
C489 N492 1.384 1_545 S
C490 H481 0.929 1_655 S
C490 C482 1.378 . S
C490 C485 1.350 . S
C491 H478 0.929 . S
C491 C483 1.433 . S
C491 N493 1.384 1_565 S
N492 C488 1.427 1_565 S
N492 C489 1.384 1_565 S
N493 C485 1.427 1_545 S
N493 C491 1.384 1_545 S
H494 C500 0.930 . S
H495 C504 0.930 . S
H496 C509 0.929 . S
H497 C507 0.929 . S
H498 C502 0.929 . S
H499 C508 0.929 . S
C500 H494 0.930 . S
C500 C501 1.367 . S
C500 C508 1.378 . S
C501 C500 1.367 . S
C501 C509 1.433 . S
C502 H498 0.929 . S
C502 C504 1.378 . S
C502 C506 1.350 . S
C503 C506 1.463 1_455 S
C503 C508 1.350 . S
C503 N511 1.427 . S
C504 H495 0.930 . S
C504 C502 1.378 . S
C504 C505 1.367 . S
C505 C504 1.367 . S
C505 C507 1.433 . S
C506 C502 1.350 . S
C506 C503 1.463 1_655 S
C506 N510 1.427 . S
C507 H497 0.929 . S
C507 C505 1.433 . S
C507 N510 1.384 . S
C508 H499 0.929 . S
C508 C500 1.378 . S
C508 C503 1.350 . S
C509 H496 0.929 . S
C509 C501 1.433 . S
C509 N511 1.384 . S
N510 C506 1.427 . S
N510 C507 1.384 . S
N511 C503 1.427 . S
N511 C509 1.384 . S
H512 C518 0.930 . S
H513 C522 0.930 . S
H514 C527 0.929 . S
H515 C525 0.929 . S
H516 C520 0.929 . S
H517 C526 0.929 . S
C518 H512 0.930 . S
C518 C519 1.367 . S
C518 C526 1.378 . S
C519 C518 1.367 . S
C519 C527 1.433 . S
C520 H516 0.929 . S
C520 C522 1.378 . S
C520 C524 1.350 . S
C521 C524 1.463 . S
C521 C526 1.350 . S
C521 N529 1.427 . S
C522 H513 0.930 . S
C522 C520 1.378 . S
C522 C523 1.367 . S
C523 C522 1.367 . S
C523 C525 1.433 . S
C524 C520 1.350 . S
C524 C521 1.463 . S
C524 N528 1.427 . S
C525 H515 0.929 . S
C525 C523 1.433 . S
C525 N528 1.384 . S
C526 H517 0.929 . S
C526 C518 1.378 . S
C526 C521 1.350 . S
C527 H514 0.929 . S
C527 C519 1.433 . S
C527 N529 1.384 . S
N528 C524 1.427 . S
N528 C525 1.384 . S
N529 C521 1.427 . S
N529 C527 1.384 . S
H530 C536 0.930 . S
H531 C540 0.930 . S
H532 C545 0.929 . S
H533 C543 0.929 . S
H534 C538 0.929 . S
H535 C544 0.929 . S
C536 H530 0.930 . S
C536 C537 1.367 . S
C536 C544 1.378 . S
C537 C536 1.367 . S
C537 C545 1.433 . S
C538 H534 0.929 . S
C538 C540 1.378 . S
C538 C542 1.350 . S
C539 C542 1.463 . S
C539 C544 1.350 . S
C539 N547 1.427 . S
C540 H531 0.930 . S
C540 C538 1.378 . S
C540 C541 1.367 . S
C541 C540 1.367 . S
C541 C543 1.433 . S
C542 C538 1.350 . S
C542 C539 1.463 . S
C542 N546 1.427 . S
C543 H533 0.929 . S
C543 C541 1.433 . S
C543 N546 1.384 . S
C544 H535 0.929 . S
C544 C536 1.378 . S
C544 C539 1.350 . S
C545 H532 0.929 . S
C545 C537 1.433 . S
C545 N547 1.384 . S
N546 C542 1.427 . S
N546 C543 1.384 . S
N547 C539 1.427 . S
N547 C545 1.384 . S
H548 C554 0.930 . S
H549 C558 0.930 . S
H550 C563 0.929 . S
H551 C561 0.929 . S
H552 C556 0.929 . S
H553 C562 0.929 . S
C554 H548 0.930 . S
C554 C555 1.367 . S
C554 C562 1.378 . S
C555 C554 1.367 . S
C555 C563 1.433 . S
C556 H552 0.929 . S
C556 C558 1.378 . S
C556 C560 1.350 . S
C557 C560 1.463 . S
C557 C562 1.350 . S
C557 N565 1.427 . S
C558 H549 0.930 . S
C558 C556 1.378 . S
C558 C559 1.367 . S
C559 C558 1.367 . S
C559 C561 1.433 . S
C560 C556 1.350 . S
C560 C557 1.463 . S
C560 N564 1.427 . S
C561 H551 0.929 . S
C561 C559 1.433 . S
C561 N564 1.384 . S
C562 H553 0.929 . S
C562 C554 1.378 . S
C562 C557 1.350 . S
C563 H550 0.929 . S
C563 C555 1.433 . S
C563 N565 1.384 . S
N564 C560 1.427 . S
N564 C561 1.384 . S
N565 C557 1.427 . S
N565 C563 1.384 . S
H566 C572 0.930 . S
H567 C576 0.930 . S
H568 C581 0.929 . S
H569 C579 0.929 . S
H570 C574 0.929 . S
H571 C580 0.929 . S
C572 H566 0.930 . S
C572 C573 1.367 . S
C572 C580 1.378 . S
C573 C572 1.367 . S
C573 C581 1.433 . S
C574 H570 0.929 . S
C574 C576 1.378 . S
C574 C578 1.350 . S
C575 C578 1.463 . S
C575 C580 1.350 . S
C575 N583 1.427 . S
C576 H567 0.930 . S
C576 C574 1.378 . S
C576 C577 1.367 . S
C577 C576 1.367 . S
C577 C579 1.433 . S
C578 C574 1.350 . S
C578 C575 1.463 . S
C578 N582 1.427 . S
C579 H569 0.929 . S
C579 C577 1.433 . S
C579 N582 1.384 . S
C580 H571 0.929 . S
C580 C572 1.378 . S
C580 C575 1.350 . S
C581 H568 0.929 . S
C581 C573 1.433 . S
C581 N583 1.384 . S
N582 C578 1.427 . S
N582 C579 1.384 . S
N583 C575 1.427 . S
N583 C581 1.384 . S
H584 C590 0.930 . S
H585 C594 0.930 . S
H586 C599 0.929 . S
H587 C597 0.929 . S
H588 C592 0.929 . S
H589 C598 0.929 . S
C590 H584 0.930 . S
C590 C591 1.367 . S
C590 C598 1.378 . S
C591 C590 1.367 . S
C591 C599 1.433 . S
C592 H588 0.929 . S
C592 C594 1.378 . S
C592 C596 1.350 . S
C593 C596 1.463 . S
C593 C598 1.350 . S
C593 N601 1.427 . S
C594 H585 0.930 . S
C594 C592 1.378 . S
C594 C595 1.367 . S
C595 C594 1.367 . S
C595 C597 1.433 . S
C596 C592 1.350 . S
C596 C593 1.463 . S
C596 N600 1.427 . S
C597 H587 0.929 . S
C597 C595 1.433 . S
C597 N600 1.384 . S
C598 H589 0.929 . S
C598 C590 1.378 . S
C598 C593 1.350 . S
C599 H586 0.929 . S
C599 C591 1.433 . S
C599 N601 1.384 . S
N600 C596 1.427 . S
N600 C597 1.384 . S
N601 C593 1.427 . S
N601 C599 1.384 . S
H602 C608 0.930 . S
H603 C612 0.930 . S
H604 C617 0.929 . S
H605 C615 0.929 . S
H606 C610 0.929 . S
H607 C616 0.929 . S
C608 H602 0.930 . S
C608 C609 1.367 . S
C608 C616 1.378 . S
C609 C608 1.367 . S
C609 C617 1.433 . S
C610 H606 0.929 . S
C610 C612 1.378 . S
C610 C614 1.350 . S
C611 C614 1.463 . S
C611 C616 1.350 . S
C611 N619 1.427 . S
C612 H603 0.930 . S
C612 C610 1.378 . S
C612 C613 1.367 . S
C613 C612 1.367 . S
C613 C615 1.433 . S
C614 C610 1.350 . S
C614 C611 1.463 . S
C614 N618 1.427 . S
C615 H605 0.929 . S
C615 C613 1.433 . S
C615 N618 1.384 . S
C616 H607 0.929 . S
C616 C608 1.378 . S
C616 C611 1.350 . S
C617 H604 0.929 . S
C617 C609 1.433 . S
C617 N619 1.384 . S
N618 C614 1.427 . S
N618 C615 1.384 . S
N619 C611 1.427 . S
N619 C617 1.384 . S
H620 C626 0.930 . S
H621 C630 0.930 . S
H622 C635 0.929 . S
H623 C633 0.929 . S
H624 C628 0.929 . S
H625 C634 0.929 . S
C626 H620 0.930 . S
C626 C627 1.367 . S
C626 C634 1.378 . S
C627 C626 1.367 . S
C627 C635 1.433 . S
C628 H624 0.929 . S
C628 C630 1.378 . S
C628 C632 1.350 . S
C629 C632 1.463 . S
C629 C634 1.350 . S
C629 N637 1.427 . S
C630 H621 0.930 . S
C630 C628 1.378 . S
C630 C631 1.367 . S
C631 C630 1.367 . S
C631 C633 1.433 . S
C632 C628 1.350 . S
C632 C629 1.463 . S
C632 N636 1.427 . S
C633 H623 0.929 . S
C633 C631 1.433 . S
C633 N636 1.384 . S
C634 H625 0.929 . S
C634 C626 1.378 . S
C634 C629 1.350 . S
C635 H622 0.929 . S
C635 C627 1.433 . S
C635 N637 1.384 . S
N636 C632 1.427 . S
N636 C633 1.384 . S
N637 C629 1.427 . S
N637 C635 1.384 . S
H638 C644 0.930 . S
H639 C648 0.930 . S
H640 C653 0.929 . S
H641 C651 0.929 . S
H642 C646 0.929 . S
H643 C652 0.929 . S
C644 H638 0.930 . S
C644 C645 1.367 . S
C644 C652 1.378 . S
C645 C644 1.367 . S
C645 C653 1.433 . S
C646 H642 0.929 . S
C646 C648 1.378 . S
C646 C650 1.350 . S
C647 C650 1.463 . S
C647 C652 1.350 . S
C647 N655 1.427 . S
C648 H639 0.930 . S
C648 C646 1.378 . S
C648 C649 1.367 . S
C649 C648 1.367 . S
C649 C651 1.433 . S
C650 C646 1.350 . S
C650 C647 1.463 . S
C650 N654 1.427 . S
C651 H641 0.929 . S
C651 C649 1.433 . S
C651 N654 1.384 . S
C652 H643 0.929 . S
C652 C644 1.378 . S
C652 C647 1.350 . S
C653 H640 0.929 . S
C653 C645 1.433 . S
C653 N655 1.384 . S
N654 C650 1.427 . S
N654 C651 1.384 . S
N655 C647 1.427 . S
N655 C653 1.384 . S
H656 C662 0.930 . S
H657 C666 0.930 . S
H658 C671 0.929 . S
H659 C669 0.929 . S
H660 C664 0.929 . S
H661 C670 0.929 . S
C662 H656 0.930 . S
C662 C663 1.367 . S
C662 C670 1.378 . S
C663 C662 1.367 . S
C663 C671 1.433 . S
C664 H660 0.929 . S
C664 C666 1.378 . S
C664 C668 1.350 . S
C665 C668 1.463 . S
C665 C670 1.350 . S
C665 N673 1.427 . S
C666 H657 0.930 . S
C666 C664 1.378 . S
C666 C667 1.367 . S
C667 C666 1.367 . S
C667 C669 1.433 . S
C668 C664 1.350 . S
C668 C665 1.463 . S
C668 N672 1.427 . S
C669 H659 0.929 . S
C669 C667 1.433 . S
C669 N672 1.384 . S
C670 H661 0.929 . S
C670 C662 1.378 . S
C670 C665 1.350 . S
C671 H658 0.929 . S
C671 C663 1.433 . S
C671 N673 1.384 . S
N672 C668 1.427 . S
N672 C669 1.384 . S
N673 C665 1.427 . S
N673 C671 1.384 . S
H674 C680 0.930 . S
H675 C684 0.930 . S
H676 C689 0.929 . S
H677 C687 0.929 . S
H678 C682 0.929 . S
H679 C688 0.929 . S
C680 H674 0.930 . S
C680 C681 1.367 . S
C680 C688 1.378 . S
C681 C680 1.367 . S
C681 C689 1.433 . S
C682 H678 0.929 . S
C682 C684 1.378 . S
C682 C686 1.350 . S
C683 C686 1.463 . S
C683 C688 1.350 . S
C683 N691 1.427 . S
C684 H675 0.930 . S
C684 C682 1.378 . S
C684 C685 1.367 . S
C685 C684 1.367 . S
C685 C687 1.433 . S
C686 C682 1.350 . S
C686 C683 1.463 . S
C686 N690 1.427 . S
C687 H677 0.929 . S
C687 C685 1.433 . S
C687 N690 1.384 . S
C688 H679 0.929 . S
C688 C680 1.378 . S
C688 C683 1.350 . S
C689 H676 0.929 . S
C689 C681 1.433 . S
C689 N691 1.384 . S
N690 C686 1.427 . S
N690 C687 1.384 . S
N691 C683 1.427 . S
N691 C689 1.384 . S
H692 C698 0.930 . S
H693 C702 0.930 . S
H694 C707 0.929 . S
H695 C705 0.929 . S
H696 C700 0.929 . S
H697 C706 0.929 . S
C698 H692 0.930 . S
C698 C699 1.367 . S
C698 C706 1.378 . S
C699 C698 1.367 . S
C699 C707 1.433 . S
C700 H696 0.929 . S
C700 C702 1.378 . S
C700 C704 1.350 . S
C701 C704 1.463 . S
C701 C706 1.350 . S
C701 N709 1.427 . S
C702 H693 0.930 . S
C702 C700 1.378 . S
C702 C703 1.367 . S
C703 C702 1.367 . S
C703 C705 1.433 . S
C704 C700 1.350 . S
C704 C701 1.463 . S
C704 N708 1.427 . S
C705 H695 0.929 . S
C705 C703 1.433 . S
C705 N708 1.384 . S
C706 H697 0.929 . S
C706 C698 1.378 . S
C706 C701 1.350 . S
C707 H694 0.929 . S
C707 C699 1.433 . S
C707 N709 1.384 . S
N708 C704 1.427 . S
N708 C705 1.384 . S
N709 C701 1.427 . S
N709 C707 1.384 . S
H710 C716 0.930 . S
H711 C720 0.930 . S
H712 C725 0.929 . S
H713 C723 0.929 . S
H714 C718 0.929 . S
H715 C724 0.929 . S
C716 H710 0.930 . S
C716 C717 1.367 . S
C716 C724 1.378 . S
C717 C716 1.367 . S
C717 C725 1.433 . S
C718 H714 0.929 . S
C718 C720 1.378 . S
C718 C722 1.350 . S
C719 C722 1.463 1_556 S
C719 C724 1.350 . S
C719 N727 1.427 . S
C720 H711 0.930 . S
C720 C718 1.378 . S
C720 C721 1.367 . S
C721 C720 1.367 . S
C721 C723 1.433 . S
C722 C718 1.350 . S
C722 C719 1.463 1_554 S
C722 N726 1.427 . S
C723 H713 0.929 . S
C723 C721 1.433 . S
C723 N726 1.384 . S
C724 H715 0.929 . S
C724 C716 1.378 . S
C724 C719 1.350 . S
C725 H712 0.929 . S
C725 C717 1.433 . S
C725 N727 1.384 . S
N726 C722 1.427 . S
N726 C723 1.384 . S
N727 C719 1.427 . S
N727 C725 1.384 . S
H728 C734 0.930 . S
H729 C738 0.930 . S
H730 C743 0.929 . S
H731 C741 0.929 . S
H732 C736 0.929 . S
H733 C742 0.929 . S
C734 H728 0.930 . S
C734 C735 1.367 . S
C734 C742 1.378 . S
C735 C734 1.367 . S
C735 C743 1.433 . S
C736 H732 0.929 . S
C736 C738 1.378 . S
C736 C740 1.350 . S
C737 C740 1.463 1_554 S
C737 C742 1.350 . S
C737 N745 1.427 . S
C738 H729 0.930 . S
C738 C736 1.378 . S
C738 C739 1.367 . S
C739 C738 1.367 . S
C739 C741 1.433 . S
C740 C736 1.350 . S
C740 C737 1.463 1_556 S
C740 N744 1.427 . S
C741 H731 0.929 . S
C741 C739 1.433 . S
C741 N744 1.384 . S
C742 H733 0.929 . S
C742 C734 1.378 . S
C742 C737 1.350 . S
C743 H730 0.929 . S
C743 C735 1.433 . S
C743 N745 1.384 . S
N744 C740 1.427 . S
N744 C741 1.384 . S
N745 C737 1.427 . S
N745 C743 1.384 . S
H746 C752 0.930 . S
H747 C756 0.930 . S
H748 C761 0.929 . S
H749 C759 0.929 . S
H750 C754 0.929 . S
H751 C760 0.929 . S
C752 H746 0.930 . S
C752 C753 1.367 . S
C752 C760 1.378 . S
C753 C752 1.367 . S
C753 C761 1.433 . S
C754 H750 0.929 . S
C754 C756 1.378 . S
C754 C758 1.350 . S
C755 C758 1.463 . S
C755 C760 1.350 . S
C755 N763 1.427 . S
C756 H747 0.930 . S
C756 C754 1.378 . S
C756 C757 1.367 . S
C757 C756 1.367 . S
C757 C759 1.433 . S
C758 C754 1.350 . S
C758 C755 1.463 . S
C758 N762 1.427 . S
C759 H749 0.929 . S
C759 C757 1.433 . S
C759 N762 1.384 . S
C760 H751 0.929 . S
C760 C752 1.378 . S
C760 C755 1.350 . S
C761 H748 0.929 . S
C761 C753 1.433 . S
C761 N763 1.384 . S
N762 C758 1.427 . S
N762 C759 1.384 . S
N763 C755 1.427 . S
N763 C761 1.384 . S
H764 C770 0.930 . S
H765 C774 0.930 . S
H766 C779 0.929 . S
H767 C777 0.929 . S
H768 C772 0.929 . S
H769 C778 0.929 . S
C770 H764 0.930 . S
C770 C771 1.367 . S
C770 C778 1.378 . S
C771 C770 1.367 . S
C771 C779 1.433 . S
C772 H768 0.929 . S
C772 C774 1.378 . S
C772 C776 1.350 . S
C773 C776 1.463 . S
C773 C778 1.350 . S
C773 N781 1.427 . S
C774 H765 0.930 . S
C774 C772 1.378 . S
C774 C775 1.367 . S
C775 C774 1.367 . S
C775 C777 1.433 . S
C776 C772 1.350 . S
C776 C773 1.463 . S
C776 N780 1.427 . S
C777 H767 0.929 . S
C777 C775 1.433 . S
C777 N780 1.384 . S
C778 H769 0.929 . S
C778 C770 1.378 . S
C778 C773 1.350 . S
C779 H766 0.929 . S
C779 C771 1.433 . S
C779 N781 1.384 . S
N780 C776 1.427 . S
N780 C777 1.384 . S
N781 C773 1.427 . S
N781 C779 1.384 . S
H782 C788 0.930 . S
H783 C792 0.930 . S
H784 C797 0.929 . S
H785 C795 0.929 . S
H786 C790 0.929 . S
H787 C796 0.929 . S
C788 H782 0.930 . S
C788 C789 1.367 . S
C788 C796 1.378 . S
C789 C788 1.367 . S
C789 C797 1.433 . S
C790 H786 0.929 . S
C790 C792 1.378 . S
C790 C794 1.350 . S
C791 C794 1.463 . S
C791 C796 1.350 . S
C791 N799 1.427 . S
C792 H783 0.930 . S
C792 C790 1.378 . S
C792 C793 1.367 . S
C793 C792 1.367 . S
C793 C795 1.433 . S
C794 C790 1.350 . S
C794 C791 1.463 . S
C794 N798 1.427 . S
C795 H785 0.929 . S
C795 C793 1.433 . S
C795 N798 1.384 . S
C796 H787 0.929 . S
C796 C788 1.378 . S
C796 C791 1.350 . S
C797 H784 0.929 . S
C797 C789 1.433 . S
C797 N799 1.384 . S
N798 C794 1.427 . S
N798 C795 1.384 . S
N799 C791 1.427 . S
N799 C797 1.384 . S
C231 C148 1.595 . S
C235 C8 1.596 . S
C249 C22 1.591 . S
C253 C162 1.591 . S
C267 C120 1.593 . S
C271 C36 1.593 . S
C285 C134 1.594 . S
C289 C50 1.594 . S
C303 C64 1.595 . S
C307 C204 1.595 . S
C321 C218 1.596 . S
C325 C78 1.597 . S
C339 C92 1.597 . S
C343 C176 1.597 . S
C357 C190 1.594 . S
C361 C106 1.595 . S
C375 C149 1.484 . S
C379 C9 1.483 . S
C393 C23 1.487 . S
C397 C163 1.486 . S
C411 C37 1.487 . S
C415 C121 1.486 . S
C429 C51 1.483 . S
C433 C135 1.482 . S
C447 C65 1.483 . S
C451 C205 1.484 . S
C465 C79 1.485 . S
C469 C219 1.484 . S
C483 C177 1.482 . S
C487 C93 1.482 . S
C501 C191 1.485 . S
C505 C107 1.484 . S
C519 C7 1.276 . S
C523 C91 1.273 . S
C537 C21 1.276 . S
C541 C105 1.278 . S
C555 C35 1.269 . S
C559 C63 1.272 . S
C573 C49 1.269 . S
C577 C77 1.267 . S
C591 C119 1.275 . S
C595 C203 1.272 . S
C609 C217 1.278 . S
C613 C133 1.279 . S
C627 C147 1.267 . S
C631 C175 1.270 . S
C645 C189 1.266 . S
C649 C161 1.267 . S
C663 C3 1.232 . S
C667 C213 1.232 . S
C681 C171 1.235 . S
C685 C17 1.227 . S
C699 C185 1.230 . S
C703 C31 1.234 . S
C717 C199 1.219 . S
C721 C45 1.223 . S
C735 C129 1.232 . S
C739 C59 1.220 . S
C753 C143 1.219 . S
C757 C73 1.230 . S
C771 C87 1.222 . S
C775 C157 1.220 . S
C789 C101 1.228 . S
C793 C115 1.218 . S
