# Generated by pormake.
# Topology unp, (4)-cn, num edge types: 1
# Building blocks:
#     Node 0, Type 0, BuildingBlock: ICAMEG_clean_sbu_1, # of connection points: 4
#     Node 1, Type 0, BuildingBlock: ICAMEG_clean_sbu_1, # of connection points: 4
#     Node 2, Type 0, BuildingBlock: ICAMEG_clean_sbu_1, # of connection points: 4
#     Node 3, Type 0, BuildingBlock: ICAMEG_clean_sbu_1, # of connection points: 4
#     Node 4, Type 0, BuildingBlock: ICAMEG_clean_sbu_1, # of connection points: 4
#     Node 5, Type 0, BuildingBlock: ICAMEG_clean_sbu_1, # of connection points: 4
#     Node 6, Type 0, BuildingBlock: ICAMEG_clean_sbu_1, # of connection points: 4
#     Node 7, Type 0, BuildingBlock: ICAMEG_clean_sbu_1, # of connection points: 4
#     Node 8, Type 0, BuildingBlock: ICAMEG_clean_sbu_1, # of connection points: 4
#     Node 9, Type 0, BuildingBlock: ICAMEG_clean_sbu_1, # of connection points: 4
#     Node 10, Type 0, BuildingBlock: ICAMEG_clean_sbu_1, # of connection points: 4
#     Node 11, Type 0, BuildingBlock: ICAMEG_clean_sbu_1, # of connection points: 4
#     Node 12, Type 0, BuildingBlock: ICAMEG_clean_sbu_1, # of connection points: 4
#     Node 13, Type 0, BuildingBlock: ICAMEG_clean_sbu_1, # of connection points: 4
#     Node 14, Type 0, BuildingBlock: ICAMEG_clean_sbu_1, # of connection points: 4
#     Node 15, Type 0, BuildingBlock: ICAMEG_clean_sbu_1, # of connection points: 4
#     Node 16, Type 0, BuildingBlock: ICAMEG_clean_sbu_1, # of connection points: 4
#     Node 17, Type 0, BuildingBlock: ICAMEG_clean_sbu_1, # of connection points: 4
#     Edge 18, Type (0, 0), BuildingBlock: UVAHIK_clean_linker_0, # of connection points: 2
#     Edge 19, Type (0, 0), BuildingBlock: UVAHIK_clean_linker_0, # of connection points: 2
#     Edge 20, Type (0, 0), BuildingBlock: UVAHIK_clean_linker_0, # of connection points: 2
#     Edge 21, Type (0, 0), BuildingBlock: UVAHIK_clean_linker_0, # of connection points: 2
#     Edge 22, Type (0, 0), BuildingBlock: UVAHIK_clean_linker_0, # of connection points: 2
#     Edge 23, Type (0, 0), BuildingBlock: UVAHIK_clean_linker_0, # of connection points: 2
#     Edge 24, Type (0, 0), BuildingBlock: UVAHIK_clean_linker_0, # of connection points: 2
#     Edge 25, Type (0, 0), BuildingBlock: UVAHIK_clean_linker_0, # of connection points: 2
#     Edge 26, Type (0, 0), BuildingBlock: UVAHIK_clean_linker_0, # of connection points: 2
#     Edge 27, Type (0, 0), BuildingBlock: UVAHIK_clean_linker_0, # of connection points: 2
#     Edge 28, Type (0, 0), BuildingBlock: UVAHIK_clean_linker_0, # of connection points: 2
#     Edge 29, Type (0, 0), BuildingBlock: UVAHIK_clean_linker_0, # of connection points: 2
#     Edge 30, Type (0, 0), BuildingBlock: UVAHIK_clean_linker_0, # of connection points: 2
#     Edge 31, Type (0, 0), BuildingBlock: UVAHIK_clean_linker_0, # of connection points: 2
#     Edge 32, Type (0, 0), BuildingBlock: UVAHIK_clean_linker_0, # of connection points: 2
#     Edge 33, Type (0, 0), BuildingBlock: UVAHIK_clean_linker_0, # of connection points: 2
#     Edge 34, Type (0, 0), BuildingBlock: UVAHIK_clean_linker_0, # of connection points: 2
#     Edge 35, Type (0, 0), BuildingBlock: UVAHIK_clean_linker_0, # of connection points: 2
#     Edge 36, Type (0, 0), BuildingBlock: UVAHIK_clean_linker_0, # of connection points: 2
#     Edge 37, Type (0, 0), BuildingBlock: UVAHIK_clean_linker_0, # of connection points: 2
#     Edge 38, Type (0, 0), BuildingBlock: UVAHIK_clean_linker_0, # of connection points: 2
#     Edge 39, Type (0, 0), BuildingBlock: UVAHIK_clean_linker_0, # of connection points: 2
#     Edge 40, Type (0, 0), BuildingBlock: UVAHIK_clean_linker_0, # of connection points: 2
#     Edge 41, Type (0, 0), BuildingBlock: UVAHIK_clean_linker_0, # of connection points: 2
#     Edge 42, Type (0, 0), BuildingBlock: UVAHIK_clean_linker_0, # of connection points: 2
#     Edge 43, Type (0, 0), BuildingBlock: UVAHIK_clean_linker_0, # of connection points: 2
#     Edge 44, Type (0, 0), BuildingBlock: UVAHIK_clean_linker_0, # of connection points: 2
#     Edge 45, Type (0, 0), BuildingBlock: UVAHIK_clean_linker_0, # of connection points: 2
#     Edge 46, Type (0, 0), BuildingBlock: UVAHIK_clean_linker_0, # of connection points: 2
#     Edge 47, Type (0, 0), BuildingBlock: UVAHIK_clean_linker_0, # of connection points: 2
#     Edge 48, Type (0, 0), BuildingBlock: UVAHIK_clean_linker_0, # of connection points: 2
#     Edge 49, Type (0, 0), BuildingBlock: UVAHIK_clean_linker_0, # of connection points: 2
#     Edge 50, Type (0, 0), BuildingBlock: UVAHIK_clean_linker_0, # of connection points: 2
#     Edge 51, Type (0, 0), BuildingBlock: UVAHIK_clean_linker_0, # of connection points: 2
#     Edge 52, Type (0, 0), BuildingBlock: UVAHIK_clean_linker_0, # of connection points: 2
#     Edge 53, Type (0, 0), BuildingBlock: UVAHIK_clean_linker_0, # of connection points: 2
# Relax obj value: 0.387
# Max RMSD: 0.171
# Mean RMSD: 0.171
data_MOF--net-unp--node1-ICAMEG_clean_sbu_1--edge1-UVAHIK_clean_linker_0
_symmetry_space_group_name_H-M    P1
_symmetry_Int_Tables_number       1
_symmetry_cell_setting            triclinic
loop_
_symmetry_equiv_pos_as_xyz
'x, y, z'
_cell_length_a     65.370804
_cell_length_b     65.365935
_cell_length_c     80.603482
_cell_angle_alpha  89.992053
_cell_angle_beta   89.981688
_cell_angle_gamma 119.99166
loop_
_atom_site_label
_atom_site_type_symbol
_atom_site_fract_x
_atom_site_fract_y
_atom_site_fract_z
_atom_type_partial_charge
Co0 Co 0.14118 0.15229 0.10782 0.0
Co1 Co 0.16061 0.17362 0.14657 0.0
O2 O 0.16624 0.17435 0.12262 0.0
C3 C 0.17016 0.19696 0.08758 0.0
O4 O 0.18456 0.20804 0.09993 0.0
C5 C 0.20613 0.17468 0.14442 0.0
O6 O 0.1962 0.15731 0.13369 0.0
O7 O 0.15258 0.14003 0.14724 0.0
O8 O 0.12831 0.12717 0.12537 0.0
H9 H 0.11597 0.13864 0.19947 0.0
H10 H 0.19212 0.17384 0.09801 0.0
O11 O 0.15273 0.17611 0.08936 0.0
H12 H 0.15897 0.08788 0.09326 0.0
H13 H 0.10599 0.11296 0.05317 0.0
H14 H 0.08989 0.11884 0.11221 0.0
H15 H 0.13389 0.10409 0.1021 0.0
H16 H 0.13812 0.13969 0.0719 0.0
O17 O 0.1944 0.18351 0.15071 0.0
H18 H 0.12289 0.14039 0.16929 0.0
H19 H 0.18783 0.20462 0.17492 0.0
H20 H 0.0573 0.09182 0.09394 0.0
H21 H 0.21762 0.15843 0.08879 0.0
H22 H 0.06525 0.08872 0.06418 0.0
H23 H 0.20116 0.11511 0.08642 0.0
O24 O 0.12071 0.16454 0.11582 0.0
H25 H 0.2107 0.25894 0.13052 0.0
H26 H 0.13814 0.20065 0.15929 0.0
H27 H 0.14787 0.24224 0.15788 0.0
H28 H 0.18441 0.27173 0.14344 0.0
H29 H 0.20018 0.21712 0.13212 0.0
H30 H 0.18172 0.20346 0.20519 0.0
H31 H 0.14551 0.17035 0.21764 0.0
O32 O 0.1264 0.1636 0.1431 0.0
C33 C 0.13717 0.12342 0.13831 0.0
C34 C 0.13177 0.15321 0.19419 0.0
C35 C 0.16869 0.18957 0.1974 0.0
N36 N 0.15561 0.1727 0.17034 0.0
C37 C 0.13575 0.15433 0.1771 0.0
C38 C 0.17207 0.19011 0.18026 0.0
C39 C 0.14837 0.17099 0.20438 0.0
C40 C 0.18454 0.15507 0.09663 0.0
N41 N 0.16129 0.14003 0.10023 0.0
C42 C 0.1992 0.14638 0.09156 0.0
C43 C 0.18998 0.12208 0.09028 0.0
C44 C 0.16633 0.10681 0.09412 0.0
C45 C 0.1522 0.11613 0.09912 0.0
C46 C 0.10231 0.11414 0.06612 0.0
C47 C 0.09354 0.11757 0.0993 0.0
C48 C 0.12042 0.12931 0.07678 0.0
N49 N 0.11593 0.1308 0.09317 0.0
C50 C 0.07499 0.10224 0.089 0.0
C51 C 0.07946 0.10054 0.0723 0.0
C52 C 0.11412 0.16372 0.1308 0.0
C53 C 0.19472 0.24626 0.13684 0.0
C54 C 0.15397 0.21333 0.15287 0.0
C55 C 0.15944 0.23688 0.15217 0.0
C56 C 0.17996 0.25342 0.14408 0.0
N57 N 0.16853 0.20644 0.14571 0.0
C58 C 0.18869 0.22256 0.1378 0.0
Co59 Co 0.84411 0.98844 0.10731 0.0
Co60 Co 0.8195 0.98353 0.14526 0.0
O61 O 0.82087 0.99042 0.12149 0.0
C62 C 0.80129 0.97477 0.08557 0.0
O63 O 0.78897 0.97592 0.09801 0.0
C64 C 0.81862 0.02813 0.14414 0.0
O65 O 0.83719 0.03651 0.13442 0.0
O66 O 0.85299 0.00892 0.14753 0.0
O67 O 0.86749 0.99872 0.12597 0.0
H68 H 0.8498 0.96935 0.1988 0.0
H69 H 0.82387 0.01895 0.09765 0.0
O70 O 0.82211 0.9783 0.08777 0.0
H71 H 0.91017 0.07159 0.09743 0.0
H72 H 0.88843 0.99716 0.05418 0.0
H73 H 0.87667 0.96961 0.11218 0.0
H74 H 0.89292 0.02949 0.10438 0.0
H75 H 0.86017 0.00122 0.07219 0.0
O76 O 0.80924 0.0071 0.14966 0.0
H77 H 0.85066 0.977 0.16876 0.0
H78 H 0.78618 0.97763 0.17256 0.0
H79 H 0.90515 0.96533 0.09463 0.0
H80 H 0.84037 0.06075 0.09028 0.0
H81 H 0.91122 0.97918 0.06539 0.0
H82 H 0.88385 0.0875 0.0902 0.0
O83 O 0.83081 0.95501 0.11399 0.0
H84 H 0.73561 0.94992 0.1261 0.0
H85 H 0.79144 0.93306 0.15586 0.0
H86 H 0.75002 0.90147 0.15252 0.0
H87 H 0.72177 0.90982 0.13757 0.0
H88 H 0.77724 0.98094 0.12961 0.0
H89 H 0.78472 0.97019 0.20266 0.0
H90 H 0.81664 0.96589 0.21596 0.0
O91 O 0.82976 0.95955 0.14142 0.0
C92 C 0.87025 0.01052 0.13919 0.0
C93 C 0.83574 0.9711 0.19314 0.0
C94 C 0.79923 0.9716 0.19531 0.0
N95 N 0.81837 0.97751 0.1689 0.0
C96 C 0.8361 0.97536 0.17613 0.0
C97 C 0.80017 0.97585 0.17827 0.0
C98 C 0.81714 0.96919 0.20276 0.0
C99 C 0.84276 0.03018 0.09727 0.0
N100 N 0.85732 0.02147 0.10111 0.0
C101 C 0.85204 0.05399 0.09324 0.0
C102 C 0.87642 0.069 0.09324 0.0
C103 C 0.89119 0.06009 0.09729 0.0
C104 C 0.88128 0.03619 0.10123 0.0
C105 C 0.88595 0.99107 0.0669 0.0
C106 C 0.87921 0.97573 0.0995 0.0
C107 C 0.86991 0.99325 0.07715 0.0
N108 N 0.86677 0.9857 0.09326 0.0
C109 C 0.89537 0.97324 0.08961 0.0
C110 C 0.89874 0.98099 0.0732 0.0
C111 C 0.83049 0.94807 0.12882 0.0
C112 C 0.74775 0.94605 0.13263 0.0
C113 C 0.77932 0.93679 0.14921 0.0
C114 C 0.75585 0.91885 0.14742 0.0
C115 C 0.74 0.92356 0.13905 0.0
N116 N 0.7868 0.9588 0.14284 0.0
C117 C 0.77134 0.96356 0.13467 0.0
Co118 Co 0.00691 0.85152 0.10693 0.0
Co119 Co 0.0098 0.83237 0.14557 0.0
O120 O 0.00425 0.82653 0.12168 0.0
C121 C 0.02179 0.82221 0.08627 0.0
O122 O 0.0188 0.80788 0.0986 0.0
C123 C 0.96525 0.78687 0.14404 0.0
O124 O 0.95755 0.7967 0.13343 0.0
O125 O 0.98428 0.84043 0.14663 0.0
O126 O 0.99529 0.86463 0.12473 0.0
H127 H 0.02089 0.87752 0.19842 0.0
H128 H 0.97706 0.80051 0.09744 0.0
O129 O 0.01854 0.83973 0.08821 0.0
H130 H 0.9244 0.83396 0.09376 0.0
H131 H 0.00132 0.88636 0.05249 0.0
H132 H 0.02504 0.90289 0.11121 0.0
H133 H 0.96598 0.85898 0.10194 0.0
H134 H 0.99635 0.85434 0.07119 0.0
O135 O 0.986 0.79862 0.15001 0.0
H136 H 0.01491 0.87031 0.1683 0.0
H137 H 0.01436 0.80542 0.1738 0.0
H138 H 0.03019 0.93537 0.09297 0.0
H139 H 0.93584 0.77505 0.08888 0.0
H140 H 0.01827 0.92721 0.06337 0.0
H141 H 0.90906 0.79167 0.08705 0.0
O142 O 0.03988 0.87196 0.11446 0.0
H143 H 0.04454 0.78209 0.12887 0.0
H144 H 0.05963 0.85491 0.15762 0.0
H145 H 0.0914 0.84511 0.15573 0.0
H146 H 0.08394 0.80844 0.14129 0.0
H147 H 0.01331 0.79267 0.13095 0.0
H148 H 0.02012 0.81181 0.204 0.0
H149 H 0.02354 0.84814 0.21649 0.0
O150 O 0.03392 0.86656 0.14181 0.0
C151 C 0.98295 0.85584 0.13779 0.0
C152 C 0.01952 0.86166 0.19312 0.0
C153 C 0.01906 0.82477 0.19626 0.0
N154 N 0.01454 0.8376 0.16929 0.0
C155 C 0.0162 0.85753 0.17607 0.0
C156 C 0.01575 0.82123 0.17915 0.0
C157 C 0.02098 0.84516 0.20325 0.0
C158 C 0.96589 0.80815 0.09628 0.0
N159 N 0.97431 0.83146 0.09982 0.0
C160 C 0.94237 0.79351 0.09159 0.0
C161 C 0.92734 0.80282 0.09061 0.0
C162 C 0.93593 0.82653 0.09438 0.0
C163 C 0.95955 0.84063 0.099 0.0
C164 C 0.00656 0.89014 0.06537 0.0
C165 C 0.01974 0.89914 0.09837 0.0
C166 C 0.00386 0.87209 0.07601 0.0
N167 N 0.01034 0.87669 0.09232 0.0
C168 C 0.02273 0.91763 0.08809 0.0
C169 C 0.01607 0.91305 0.07148 0.0
C170 C 0.04601 0.87872 0.12937 0.0
C171 C 0.04802 0.79812 0.13518 0.0
C172 C 0.05629 0.83902 0.1512 0.0
C173 C 0.07433 0.83351 0.15023 0.0
C174 C 0.07012 0.81292 0.14214 0.0
N175 N 0.03466 0.82442 0.14432 0.0
C176 C 0.03039 0.80419 0.13641 0.0
Co177 Co 0.14976 0.14188 0.89579 0.0
Co178 Co 0.17295 0.16179 0.85758 0.0
O179 O 0.1724 0.16721 0.88143 0.0
C180 C 0.19319 0.17124 0.91706 0.0
O181 O 0.20483 0.1856 0.90481 0.0
C182 C 0.17332 0.20721 0.85842 0.0
O183 O 0.15411 0.19696 0.86754 0.0
O184 O 0.13934 0.15359 0.85602 0.0
O185 O 0.12569 0.1288 0.87757 0.0
H186 H 0.14091 0.11763 0.80413 0.0
H187 H 0.17008 0.19277 0.90524 0.0
O188 O 0.17251 0.15367 0.9149 0.0
H189 H 0.08376 0.15836 0.90778 0.0
H190 H 0.10767 0.10594 0.94956 0.0
H191 H 0.11713 0.09048 0.891 0.0
H192 H 0.10099 0.13373 0.90011 0.0
H193 H 0.1351 0.13838 0.93129 0.0
O194 O 0.18312 0.19568 0.85348 0.0
H195 H 0.14107 0.12422 0.83428 0.0
H196 H 0.20528 0.18947 0.8299 0.0
H197 H 0.08943 0.0576 0.90881 0.0
H198 H 0.15362 0.21785 0.91326 0.0
H199 H 0.08453 0.06521 0.93833 0.0
H200 H 0.11012 0.20075 0.91453 0.0
O201 O 0.1629 0.12186 0.88848 0.0
H202 H 0.25742 0.21194 0.87557 0.0
H203 H 0.20072 0.13959 0.84588 0.0
H204 H 0.24225 0.14944 0.84837 0.0
H205 H 0.27094 0.18588 0.86328 0.0
H206 H 0.21567 0.2013 0.87291 0.0
H207 H 0.20572 0.1837 0.79968 0.0
H208 H 0.17342 0.14751 0.78662 0.0
O209 O 0.16288 0.12755 0.86113 0.0
C210 C 0.1224 0.1379 0.86459 0.0
C211 C 0.15513 0.13343 0.80969 0.0
C212 C 0.19149 0.17052 0.80719 0.0
N213 N 0.17329 0.15707 0.83386 0.0
C214 C 0.15535 0.13721 0.82676 0.0
C215 C 0.19113 0.17371 0.82429 0.0
C216 C 0.17337 0.15021 0.79987 0.0
C217 C 0.15121 0.18493 0.90612 0.0
N218 N 0.13664 0.16156 0.9026 0.0
C219 C 0.14194 0.19935 0.91053 0.0
C220 C 0.11754 0.18976 0.91119 0.0
C221 C 0.10275 0.166 0.90742 0.0
C222 C 0.11265 0.15212 0.9031 0.0
C223 C 0.10964 0.1024 0.93672 0.0
C224 C 0.11508 0.094 0.90381 0.0
C225 C 0.12521 0.12069 0.92632 0.0
N226 N 0.12771 0.11638 0.91006 0.0
C227 C 0.09937 0.07528 0.91385 0.0
C228 C 0.09665 0.07956 0.93041 0.0
C229 C 0.16271 0.11532 0.87356 0.0
C230 C 0.24509 0.196 0.86906 0.0
C231 C 0.21304 0.15536 0.85252 0.0
C232 C 0.23656 0.16091 0.85382 0.0
C233 C 0.25266 0.18136 0.86217 0.0
N234 N 0.20574 0.16979 0.85934 0.0
C235 C 0.22143 0.1899 0.86751 0.0
Co236 Co 0.8454 0.00397 0.89337 0.0
Co237 Co 0.83237 0.0088 0.85319 0.0
O238 O 0.82363 0.00322 0.87657 0.0
C239 C 0.84074 0.03259 0.91994 0.0
O240 O 0.86359 0.04715 0.91865 0.0
C241 C 0.78711 0.96427 0.85323 0.0
O242 O 0.79652 0.95666 0.86426 0.0
O243 O 0.84074 0.98341 0.85346 0.0
O244 O 0.86037 0.99177 0.87755 0.0
H245 H 0.88401 0.02114 0.80367 0.0
H246 H 0.79397 0.97862 0.90049 0.0
O247 O 0.83041 0.01564 0.90966 0.0
H248 H 0.81815 0.91853 0.9057 0.0
H249 H 0.86809 0.99119 0.95065 0.0
H250 H 0.89676 0.02089 0.89423 0.0
H251 H 0.84744 0.95977 0.89894 0.0
H252 H 0.84054 0.98938 0.92904 0.0
O253 O 0.79917 0.98497 0.84719 0.0
H254 H 0.87318 0.01476 0.83331 0.0
H255 H 0.80869 0.0131 0.82288 0.0
H256 H 0.9249 0.02303 0.91545 0.0
H257 H 0.76419 0.93763 0.90756 0.0
H258 H 0.91062 0.00812 0.94391 0.0
H259 H 0.77619 0.90722 0.91012 0.0
O260 O 0.86873 0.03677 0.88659 0.0
H261 H 0.78074 0.04364 0.86554 0.0
H262 H 0.85604 0.05852 0.84091 0.0
H263 H 0.84609 0.09028 0.84099 0.0
H264 H 0.80817 0.0829 0.85332 0.0
H265 H 0.79149 0.01243 0.86533 0.0
H266 H 0.81871 0.01925 0.7931 0.0
H267 H 0.85666 0.02343 0.78334 0.0
O268 O 0.86582 0.03281 0.8589 0.0
C269 C 0.85435 0.98112 0.86364 0.0
C270 C 0.86746 0.01943 0.80777 0.0
C271 C 0.83079 0.01833 0.80184 0.0
N272 N 0.84044 0.01379 0.82982 0.0
C273 C 0.86127 0.01588 0.82455 0.0
C274 C 0.82519 0.01481 0.81871 0.0
C275 C 0.85209 0.02069 0.79637 0.0
C276 C 0.79942 0.96558 0.90183 0.0
N277 N 0.82247 0.97167 0.8994 0.0
C278 C 0.78244 0.94236 0.90574 0.0
C279 C 0.78917 0.9253 0.90714 0.0
C280 C 0.81271 0.93162 0.90464 0.0
C281 C 0.8292 0.95501 0.90076 0.0
C282 C 0.87454 0.99775 0.93829 0.0
C283 C 0.89039 0.01438 0.90658 0.0
C284 C 0.85902 0.99678 0.92601 0.0
N285 N 0.86703 0.0051 0.91038 0.0
C286 C 0.90642 0.01562 0.91855 0.0
C287 C 0.89839 0.00726 0.93451 0.0
C288 C 0.87692 0.04372 0.87201 0.0
C289 C 0.79729 0.04705 0.8601 0.0
C290 C 0.83955 0.0552 0.84637 0.0
C291 C 0.83399 0.07324 0.84634 0.0
C292 C 0.8127 0.06908 0.85325 0.0
N293 N 0.82429 0.0336 0.85304 0.0
C294 C 0.80344 0.02943 0.8599 0.0
Co295 Co 0.98911 0.84201 0.895 0.0
Co296 Co 0.98589 0.82003 0.85632 0.0
O297 O 0.9914 0.81953 0.8802 0.0
C298 C 0.97368 0.79767 0.91563 0.0
O299 O 0.97659 0.78625 0.90331 0.0
C300 C 0.02997 0.818 0.85759 0.0
O301 O 0.03836 0.83583 0.86799 0.0
O302 O 0.01183 0.85347 0.8553 0.0
O303 O 0.00103 0.8668 0.87724 0.0
H304 H 0.97558 0.85482 0.80356 0.0
H305 H 0.01842 0.82017 0.9043 0.0
O306 O 0.97719 0.81854 0.91369 0.0
H307 H 0.07197 0.90608 0.90826 0.0
H308 H 0.99534 0.88249 0.94952 0.0
H309 H 0.97163 0.8758 0.89082 0.0
H310 H 0.03047 0.8901 0.90009 0.0
H311 H -0.00018 0.85521 0.93075 0.0
O312 O 0.00915 0.8094 0.85184 0.0
H313 H 0.98153 0.85338 0.83366 0.0
H314 H 0.98066 0.78835 0.82804 0.0
H315 H 0.96699 0.90339 0.90912 0.0
H316 H 0.05957 0.83536 0.91283 0.0
H317 H 0.9789 0.90689 0.93872 0.0
H318 H 0.08679 0.87865 0.91481 0.0
O319 O 0.9562 0.82996 0.88748 0.0
H320 H 0.9497 0.73482 0.87297 0.0
H321 H 0.93603 0.79354 0.84426 0.0
H322 H 0.9037 0.75221 0.84614 0.0
H323 H 0.91045 0.72251 0.86055 0.0
H324 H 0.98149 0.77639 0.87091 0.0
H325 H 0.97492 0.78918 0.79785 0.0
H326 H 0.97222 0.82254 0.78544 0.0
O327 O 0.96224 0.83068 0.86013 0.0
C328 C 0.01327 0.87027 0.86414 0.0
C329 C 0.97664 0.84014 0.80883 0.0
C330 C 0.97629 0.80332 0.80562 0.0
N331 N 0.9812 0.82069 0.83262 0.0
C332 C 0.97993 0.8392 0.82587 0.0
C333 C 0.97959 0.80297 0.82272 0.0
C334 C 0.97478 0.82204 0.79867 0.0
C335 C 0.02979 0.83894 0.90551 0.0
N336 N 0.02165 0.85409 0.90209 0.0
C337 C 0.05326 0.84749 0.91019 0.0
C338 C 0.06854 0.87178 0.91125 0.0
C339 C 0.06024 0.88717 0.90758 0.0
C340 C 0.03667 0.87797 0.90297 0.0
C341 C 0.9901 0.88114 0.93665 0.0
C342 C 0.97693 0.87725 0.90365 0.0
C343 C 0.99252 0.86566 0.92597 0.0
N344 N 0.98606 0.86393 0.90967 0.0
C345 C 0.97423 0.89289 0.91397 0.0
C346 C 0.98089 0.89483 0.93058 0.0
C347 C 0.95019 0.83081 0.87257 0.0
C348 C 0.94654 0.7476 0.86667 0.0
C349 C 0.93906 0.78077 0.85067 0.0
C350 C 0.92071 0.75737 0.85163 0.0
C351 C 0.92451 0.7407 0.85971 0.0
N352 N 0.96061 0.7874 0.85755 0.0
C353 C 0.96448 0.77115 0.86545 0.0
Co354 Co 0.81321 0.47436 0.44218 0.0
Co355 Co 0.83062 0.50609 0.47778 0.0
O356 O 0.83738 0.50018 0.45529 0.0
C357 C 0.83362 0.51415 0.41782 0.0
O358 O 0.82957 0.52734 0.42807 0.0
C359 C 0.87518 0.50563 0.48168 0.0
O360 O 0.8648 0.48489 0.47442 0.0
O361 O 0.82142 0.47313 0.48415 0.0
O362 O 0.79833 0.45459 0.46235 0.0
H363 H 0.78277 0.48713 0.53014 0.0
H364 H 0.86381 0.49362 0.43395 0.0
O365 O 0.82766 0.49301 0.42162 0.0
H366 H 0.83262 0.40895 0.44516 0.0
H367 H 0.78289 0.4208 0.39239 0.0
H368 H 0.76146 0.44228 0.44562 0.0
H369 H 0.80649 0.42598 0.44652 0.0
H370 H 0.81333 0.45246 0.40972 0.0
O371 O 0.864 0.5167 0.48403 0.0
H372 H 0.79115 0.48029 0.50146 0.0
H373 H 0.85715 0.54413 0.50261 0.0
H374 H 0.73052 0.41046 0.42872 0.0
H375 H 0.89049 0.47721 0.43217 0.0
H376 H 0.74115 0.3995 0.40189 0.0
H377 H 0.87495 0.43461 0.4379 0.0
O378 O 0.79232 0.48813 0.4446 0.0
H379 H 0.88277 0.58455 0.45062 0.0
H380 H 0.80921 0.53678 0.48217 0.0
H381 H 0.82013 0.57718 0.47352 0.0
H382 H 0.85718 0.60138 0.45766 0.0
H383 H 0.87108 0.544 0.4594 0.0
H384 H 0.84959 0.55156 0.53136 0.0
H385 H 0.81212 0.52299 0.54528 0.0
O386 O 0.79693 0.49565 0.47188 0.0
C387 C 0.80602 0.45449 0.47685 0.0
C388 C 0.79913 0.49975 0.52419 0.0
C389 C 0.83664 0.5359 0.52488 0.0
N390 N 0.82449 0.51191 0.50033 0.0
C391 C 0.80393 0.49601 0.50794 0.0
C392 C 0.84084 0.53157 0.50862 0.0
C393 C 0.81561 0.51986 0.53268 0.0
C394 C 0.85685 0.47501 0.43626 0.0
N395 N 0.83361 0.46079 0.4403 0.0
C396 C 0.87207 0.46584 0.43531 0.0
C397 C 0.86335 0.44194 0.43854 0.0
C398 C 0.83961 0.42753 0.44262 0.0
C399 C 0.82491 0.43731 0.44342 0.0
C400 C 0.77804 0.4254 0.40406 0.0
C401 C 0.76627 0.43761 0.43399 0.0
C402 C 0.79519 0.44337 0.41391 0.0
N403 N 0.78921 0.4492 0.42871 0.0
C404 C 0.74865 0.41957 0.42446 0.0
C405 C 0.75463 0.41345 0.4094 0.0
C406 C 0.78521 0.49185 0.45842 0.0
C407 C 0.86662 0.57421 0.45756 0.0
C408 C 0.82532 0.54718 0.47522 0.0
C409 C 0.83144 0.57006 0.47039 0.0
C410 C 0.85224 0.58363 0.4615 0.0
N411 N 0.83956 0.53809 0.47135 0.0
C412 C 0.85995 0.55127 0.46261 0.0
Co413 Co 0.5112 0.32629 0.44395 0.0
Co414 Co 0.48911 0.32412 0.48234 0.0
O415 O 0.48903 0.32964 0.45843 0.0
C416 C 0.46785 0.31305 0.42268 0.0
O417 O 0.45678 0.31739 0.43453 0.0
C418 C 0.48787 0.36865 0.4807 0.0
O419 O 0.50575 0.37684 0.47034 0.0
O420 O 0.52277 0.34962 0.48333 0.0
O421 O 0.53552 0.33716 0.46199 0.0
H422 H 0.52277 0.313 0.53536 0.0
H423 H 0.4918 0.35773 0.43436 0.0
O424 O 0.48813 0.31526 0.42508 0.0
H425 H 0.57826 0.40786 0.43113 0.0
H426 H 0.55194 0.33055 0.3899 0.0
H427 H 0.54328 0.30683 0.44871 0.0
H428 H 0.56025 0.36608 0.43917 0.0
H429 H 0.52524 0.33652 0.4083 0.0
O430 O 0.47911 0.34789 0.48659 0.0
H431 H 0.52171 0.31891 0.50521 0.0
H432 H 0.45754 0.31983 0.51047 0.0
H433 H 0.57024 0.30068 0.43078 0.0
H434 H 0.50903 0.39918 0.42592 0.0
H435 H 0.57474 0.31258 0.40114 0.0
H436 H 0.55261 0.4247 0.42432 0.0
O437 O 0.4976 0.2932 0.4515 0.0
H438 H 0.40436 0.28941 0.46499 0.0
H439 H 0.46149 0.27447 0.49477 0.0
H440 H 0.4199 0.24277 0.49276 0.0
H441 H 0.391 0.25017 0.47781 0.0
H442 H 0.44617 0.32057 0.46721 0.0
H443 H 0.458 0.31415 0.54069 0.0
H444 H 0.49073 0.31057 0.55332 0.0
O445 O 0.49894 0.29976 0.47878 0.0
C446 C 0.53934 0.35019 0.47468 0.0
C447 C 0.50837 0.31445 0.53 0.0
C448 C 0.47203 0.31513 0.533 0.0
N449 N 0.48948 0.3195 0.50608 0.0
C450 C 0.50765 0.31774 0.51294 0.0
C451 C 0.47189 0.3184 0.51588 0.0
C452 C 0.4904 0.31312 0.54007 0.0
C453 C 0.51067 0.36832 0.43328 0.0
N454 N 0.52484 0.35906 0.43685 0.0
C455 C 0.52039 0.39198 0.42866 0.0
C456 C 0.54484 0.40631 0.42781 0.0
C457 C 0.55923 0.39688 0.43163 0.0
C458 C 0.54888 0.37314 0.43616 0.0
C459 C 0.55014 0.3253 0.4028 0.0
C460 C 0.54515 0.31213 0.43585 0.0
C461 C 0.53498 0.32856 0.41327 0.0
N462 N 0.5327 0.32208 0.4296 0.0
C463 C 0.56045 0.30857 0.42574 0.0
C464 C 0.56294 0.31523 0.40911 0.0
C465 C 0.49821 0.28715 0.46644 0.0
C466 C 0.41679 0.28597 0.47154 0.0
C467 C 0.44907 0.27778 0.48814 0.0
C468 C 0.42552 0.25979 0.4871 0.0
C469 C 0.40931 0.26395 0.47872 0.0
N470 N 0.45627 0.29934 0.48106 0.0
C471 C 0.44048 0.30355 0.47284 0.0
Co472 Co 0.66701 0.18536 0.4422 0.0
Co473 Co 0.67138 0.16476 0.47997 0.0
O474 O 0.66479 0.15978 0.45613 0.0
C475 C 0.6808 0.1566 0.42007 0.0
O476 O 0.67929 0.14267 0.4323 0.0
C477 C 0.62662 0.11931 0.47863 0.0
O478 O 0.61828 0.12947 0.46884 0.0
O479 O 0.64608 0.17301 0.48234 0.0
O480 O 0.65653 0.19807 0.46097 0.0
H481 H 0.68529 0.20833 0.53389 0.0
H482 H 0.63656 0.13479 0.43204 0.0
O483 O 0.67741 0.17394 0.42254 0.0
H484 H 0.58403 0.16859 0.43207 0.0
H485 H 0.65901 0.2221 0.38941 0.0
H486 H 0.68564 0.23662 0.44763 0.0
H487 H 0.62603 0.19323 0.43934 0.0
H488 H 0.65475 0.18941 0.40709 0.0
O489 O 0.64766 0.13093 0.48411 0.0
H490 H 0.67794 0.20212 0.5038 0.0
H491 H 0.67683 0.13672 0.50703 0.0
H492 H 0.69011 0.26974 0.43041 0.0
H493 H 0.59486 0.10972 0.42436 0.0
H494 H 0.67673 0.2626 0.40107 0.0
H495 H 0.56817 0.12652 0.4244 0.0
O496 O 0.70037 0.2054 0.44912 0.0
H497 H 0.70476 0.1145 0.46025 0.0
H498 H 0.72169 0.18663 0.49083 0.0
H499 H 0.75313 0.1766 0.48738 0.0
H500 H 0.74474 0.14028 0.47202 0.0
H501 H 0.67388 0.12531 0.46388 0.0
H502 H 0.68395 0.14211 0.53718 0.0
H503 H 0.68834 0.17818 0.55079 0.0
O504 O 0.69553 0.19896 0.47647 0.0
C505 C 0.64471 0.18894 0.47417 0.0
C506 C 0.68348 0.19257 0.5281 0.0
C507 C 0.68271 0.15539 0.52995 0.0
N508 N 0.67717 0.16919 0.50365 0.0
C509 C 0.67939 0.18899 0.51106 0.0
C510 C 0.67863 0.15241 0.51288 0.0
C511 C 0.68517 0.17564 0.53757 0.0
C512 C 0.62537 0.1425 0.43171 0.0
N513 N 0.63405 0.16569 0.43578 0.0
C514 C 0.60161 0.1281 0.42751 0.0
C515 C 0.58663 0.13751 0.42758 0.0
C516 C 0.59551 0.16109 0.43188 0.0
C517 C 0.61936 0.17497 0.43599 0.0
C518 C 0.66491 0.22544 0.40218 0.0
C519 C 0.67972 0.23331 0.43489 0.0
C520 C 0.66262 0.20701 0.41224 0.0
N521 N 0.66992 0.21106 0.42841 0.0
C522 C 0.68232 0.25217 0.42519 0.0
C523 C 0.67484 0.24815 0.40873 0.0
C524 C 0.70718 0.21152 0.46404 0.0
C525 C 0.70864 0.13039 0.46696 0.0
C526 C 0.71795 0.17091 0.484 0.0
C527 C 0.7358 0.16526 0.48215 0.0
C528 C 0.73107 0.14487 0.47355 0.0
N529 N 0.69599 0.15663 0.47746 0.0
C530 C 0.69122 0.13658 0.46906 0.0
Co531 Co 0.80372 0.47281 0.22205 0.0
Co532 Co 0.83655 0.49549 0.18739 0.0
O533 O 0.82976 0.49948 0.21048 0.0
C534 C 0.84189 0.49563 0.24779 0.0
O535 O 0.85833 0.50014 0.2367 0.0
C536 C 0.83685 0.5408 0.18687 0.0
O537 O 0.81669 0.53032 0.19491 0.0
O538 O 0.8038 0.48723 0.18126 0.0
O539 O 0.78568 0.45996 0.20088 0.0
H540 H 0.81858 0.45397 0.13237 0.0
H541 H 0.81967 0.52171 0.23321 0.0
O542 O 0.82019 0.48469 0.24373 0.0
H543 H 0.73478 0.48712 0.22109 0.0
H544 H 0.74657 0.43282 0.26912 0.0
H545 H 0.77482 0.42141 0.2151 0.0
H546 H 0.7543 0.46344 0.21781 0.0
H547 H 0.77813 0.46674 0.25404 0.0
O548 O 0.84725 0.52941 0.18302 0.0
H549 H 0.8112 0.459 0.1617 0.0
H550 H 0.8753 0.52469 0.16358 0.0
H551 H 0.74317 0.38705 0.2297 0.0
H552 H 0.80075 0.54594 0.23692 0.0
H553 H 0.72881 0.39262 0.25693 0.0
H554 H 0.75804 0.5287 0.23075 0.0
O555 O 0.8198 0.45433 0.21842 0.0
H556 H 0.9147 0.5452 0.21557 0.0
H557 H 0.86747 0.47473 0.18096 0.0
H558 H 0.90786 0.48507 0.18913 0.0
H559 H 0.9318 0.52058 0.20652 0.0
H560 H 0.87411 0.53406 0.20726 0.0
H561 H 0.88328 0.52051 0.13423 0.0
H562 H 0.85484 0.48489 0.11844 0.0
O563 O 0.82618 0.46115 0.19119 0.0
C564 C 0.78524 0.47037 0.18766 0.0
C565 C 0.83115 0.46953 0.13913 0.0
C566 C 0.86744 0.50689 0.14017 0.0
N567 N 0.84291 0.49199 0.16438 0.0
C568 C 0.8271 0.47243 0.15575 0.0
C569 C 0.86281 0.50919 0.15677 0.0
C570 C 0.85148 0.4869 0.13132 0.0
C571 C 0.80102 0.51401 0.23067 0.0
N572 N 0.78815 0.49121 0.22526 0.0
C573 C 0.79042 0.52784 0.23273 0.0
C574 C 0.76646 0.51816 0.22925 0.0
C575 C 0.75341 0.49485 0.22382 0.0
C576 C 0.76459 0.48155 0.22193 0.0
C577 C 0.75271 0.43016 0.25728 0.0
C578 C 0.76873 0.42403 0.22693 0.0
C579 C 0.77067 0.44929 0.24872 0.0
N580 N 0.77844 0.4461 0.23372 0.0
C581 C 0.75077 0.40448 0.23515 0.0
C582 C 0.74273 0.40761 0.25043 0.0
C583 C 0.82349 0.4486 0.20407 0.0
C584 C 0.90446 0.52971 0.20796 0.0
C585 C 0.8777 0.49012 0.18863 0.0
C586 C 0.9006 0.49593 0.19316 0.0
C587 C 0.91403 0.51587 0.2029 0.0
N588 N 0.86845 0.5038 0.19363 0.0
C589 C 0.8815 0.52337 0.20318 0.0
Co590 Co 0.51884 0.32662 0.22337 0.0
Co591 Co 0.4971 0.33812 0.1888 0.0
O592 O 0.49259 0.32649 0.21164 0.0
C593 C 0.49808 0.3436 0.24957 0.0
O594 O 0.49864 0.35979 0.23962 0.0
C595 C 0.45213 0.29291 0.18722 0.0
O596 O 0.46261 0.28308 0.19506 0.0
O597 O 0.50586 0.31408 0.18226 0.0
O598 O 0.53242 0.32226 0.20227 0.0
H599 H 0.54023 0.36452 0.13447 0.0
H600 H 0.46954 0.29334 0.23365 0.0
O601 O 0.50589 0.33024 0.24483 0.0
H602 H 0.50435 0.24337 0.22093 0.0
H603 H 0.55676 0.30783 0.27092 0.0
H604 H 0.57039 0.34857 0.21713 0.0
H605 H 0.52821 0.28668 0.21859 0.0
H606 H 0.52358 0.30644 0.25544 0.0
O607 O 0.46337 0.31488 0.18389 0.0
H608 H 0.53445 0.35081 0.16352 0.0
H609 H 0.46826 0.34822 0.16505 0.0
H610 H 0.60402 0.35032 0.23216 0.0
H611 H 0.44511 0.25006 0.23644 0.0
H612 H 0.59733 0.32983 0.25926 0.0
H613 H 0.46246 0.22476 0.22995 0.0
O614 O 0.53773 0.36134 0.22037 0.0
H615 H 0.44678 0.3649 0.21809 0.0
H616 H 0.51735 0.3899 0.18318 0.0
H617 H 0.50662 0.41941 0.19213 0.0
H618 H 0.47108 0.40695 0.20968 0.0
H619 H 0.45825 0.33601 0.20896 0.0
H620 H 0.4732 0.36167 0.13597 0.0
H621 H 0.50945 0.37003 0.12051 0.0
O622 O 0.53116 0.36208 0.19319 0.0
C623 C 0.52252 0.31208 0.18874 0.0
C624 C 0.52439 0.361 0.14109 0.0
C625 C 0.48675 0.35938 0.14192 0.0
N626 N 0.50115 0.34892 0.166 0.0
C627 C 0.52106 0.3533 0.15755 0.0
C628 C 0.48403 0.35171 0.15837 0.0
C629 C 0.5071 0.36407 0.13326 0.0
C630 C 0.47728 0.28246 0.23097 0.0
N631 N 0.50025 0.29255 0.2259 0.0
C632 C 0.46334 0.25796 0.23252 0.0
C633 C 0.47308 0.24377 0.22885 0.0
C634 C 0.49656 0.25419 0.22379 0.0
C635 C 0.50997 0.27874 0.22242 0.0
C636 C 0.55991 0.31684 0.25913 0.0
C637 C 0.56728 0.33959 0.2289 0.0
C638 C 0.54119 0.3162 0.25033 0.0
N639 N 0.54499 0.32743 0.23538 0.0
C640 C 0.58642 0.34065 0.23736 0.0
C641 C 0.58266 0.32917 0.25257 0.0
C642 C 0.54358 0.37139 0.2062 0.0
C643 C 0.46227 0.37054 0.21041 0.0
C644 C 0.50189 0.38435 0.19087 0.0
C645 C 0.49588 0.40113 0.19586 0.0
C646 C 0.47593 0.39413 0.2057 0.0
N647 N 0.48836 0.36123 0.19549 0.0
C648 C 0.46881 0.35424 0.20516 0.0
Co649 Co 0.65642 0.17219 0.22548 0.0
Co650 Co 0.65105 0.15269 0.18566 0.0
O651 O 0.65676 0.15035 0.20916 0.0
C652 C 0.62775 0.14023 0.25266 0.0
O653 O 0.6134 0.14873 0.25101 0.0
C654 C 0.69536 0.15135 0.18569 0.0
O655 O 0.70333 0.16844 0.19668 0.0
O656 O 0.6767 0.18637 0.18533 0.0
O657 O 0.66875 0.1987 0.20914 0.0
H658 H 0.63849 0.19044 0.13533 0.0
H659 H 0.68121 0.14579 0.23341 0.0
O660 O 0.64457 0.14618 0.24234 0.0
H661 H 0.74222 0.22993 0.237 0.0
H662 H 0.67026 0.21 0.28201 0.0
H663 H 0.64043 0.20741 0.22542 0.0
H664 H 0.70106 0.21828 0.23022 0.0
H665 H 0.67133 0.18311 0.26103 0.0
O666 O 0.67456 0.14283 0.17988 0.0
H667 H 0.64517 0.187 0.16507 0.0
H668 H 0.64612 0.1235 0.15589 0.0
H669 H 0.63905 0.23455 0.24601 0.0
H670 H 0.7221 0.1567 0.24051 0.0
H671 H 0.65402 0.23597 0.27456 0.0
H672 H 0.75297 0.19904 0.24226 0.0
O673 O 0.62365 0.16299 0.21871 0.0
H674 H 0.61571 0.06667 0.19971 0.0
H675 H 0.6012 0.12652 0.17367 0.0
H676 H 0.5692 0.08494 0.1745 0.0
H677 H 0.57639 0.05468 0.18755 0.0
H678 H 0.64716 0.1085 0.19873 0.0
H679 H 0.63967 0.12636 0.12603 0.0
H680 H 0.63569 0.15996 0.11559 0.0
O681 O 0.62733 0.16258 0.19104 0.0
C682 C 0.67914 0.20269 0.19515 0.0
C683 C 0.64012 0.17568 0.13974 0.0
C684 C 0.64082 0.13973 0.13451 0.0
N685 N 0.64584 0.15497 0.16222 0.0
C686 C 0.64385 0.1736 0.15657 0.0
C687 C 0.64453 0.13823 0.15143 0.0
C688 C 0.63858 0.15858 0.12867 0.0
C689 C 0.69445 0.16425 0.23439 0.0
N690 N 0.68866 0.18135 0.23151 0.0
C691 C 0.71762 0.17032 0.23832 0.0
C692 C 0.73494 0.19408 0.23926 0.0
C693 C 0.72892 0.21142 0.2363 0.0
C694 C 0.70558 0.2047 0.23241 0.0
C695 C 0.66366 0.20953 0.26962 0.0
C696 C 0.64694 0.20786 0.23781 0.0
C697 C 0.6642 0.19432 0.25769 0.0
N698 N 0.65582 0.19357 0.24201 0.0
C699 C 0.64614 0.2233 0.24942 0.0
C700 C 0.65454 0.22409 0.26543 0.0
C701 C 0.61659 0.16352 0.20402 0.0
C702 C 0.61238 0.07969 0.19396 0.0
C703 C 0.60443 0.11347 0.17944 0.0
C704 C 0.58626 0.08995 0.17983 0.0
C705 C 0.59031 0.07297 0.18715 0.0
N706 N 0.62606 0.1199 0.18609 0.0
C707 C 0.63014 0.10338 0.19333 0.0
Co708 Co 0.48217 0.8189 0.77295 0.0
Co709 Co 0.49464 0.8367 0.81319 0.0
O710 O 0.50362 0.84 0.78984 0.0
C711 C 0.48647 0.85215 0.74646 0.0
O712 O 0.46358 0.8436 0.74777 0.0
C713 C 0.54022 0.83806 0.81341 0.0
O714 O 0.53114 0.82105 0.80236 0.0
O715 O 0.4866 0.80304 0.81295 0.0
O716 O 0.46739 0.79164 0.78871 0.0
H717 H 0.44268 0.79695 0.86249 0.0
H718 H 0.53364 0.84562 0.76606 0.0
O719 O 0.49697 0.84564 0.75669 0.0
H720 H 0.51069 0.76167 0.76075 0.0
H721 H 0.46037 0.78363 0.71557 0.0
H722 H 0.43095 0.78396 0.77186 0.0
H723 H 0.48091 0.77303 0.76738 0.0
H724 H 0.48753 0.8095 0.73729 0.0
O725 O 0.52785 0.84641 0.81936 0.0
H726 H 0.45382 0.80154 0.8329 0.0
H727 H 0.51782 0.86474 0.84358 0.0
H728 H 0.40319 0.75782 0.75052 0.0
H729 H 0.56392 0.83502 0.75914 0.0
H730 H 0.41785 0.75754 0.72213 0.0
H731 H 0.55253 0.79277 0.75652 0.0
O732 O 0.45843 0.82789 0.7796 0.0
H733 H 0.54566 0.92327 0.80093 0.0
H734 H 0.47042 0.8623 0.82528 0.0
H735 H 0.47993 0.90388 0.82516 0.0
H736 H 0.51783 0.93471 0.81297 0.0
H737 H 0.53535 0.88145 0.80118 0.0
H738 H 0.50749 0.86073 0.8733 0.0
H739 H 0.46962 0.82669 0.88291 0.0
O740 O 0.46118 0.82696 0.80731 0.0
C741 C 0.47324 0.78708 0.80272 0.0
C742 C 0.45919 0.8119 0.85845 0.0
C743 C 0.49558 0.84768 0.86452 0.0
N744 N 0.48633 0.8335 0.83651 0.0
C745 C 0.46556 0.81463 0.84171 0.0
C746 C 0.50136 0.84983 0.84768 0.0
C747 C 0.47433 0.82858 0.8699 0.0
C748 C 0.52847 0.8272 0.7647 0.0
N749 N 0.50548 0.81 0.76702 0.0
C750 C 0.54572 0.8213 0.76088 0.0
C751 C 0.53933 0.7976 0.75945 0.0
C752 C 0.51587 0.78014 0.76183 0.0
C753 C 0.49909 0.7867 0.76564 0.0
C754 C 0.45376 0.78358 0.7279 0.0
C755 C 0.43749 0.78396 0.75954 0.0
C756 C 0.46906 0.7982 0.74025 0.0
N757 N 0.46084 0.79829 0.75584 0.0
C758 C 0.42168 0.7691 0.7475 0.0
C759 C 0.42991 0.76896 0.73158 0.0
C760 C 0.45014 0.82667 0.79414 0.0
C761 C 0.52912 0.91001 0.80631 0.0
C762 C 0.4869 0.8756 0.81988 0.0
C763 C 0.49221 0.89912 0.81989 0.0
C764 C 0.51348 0.91641 0.81306 0.0
N765 N 0.50238 0.86948 0.81331 0.0
C766 C 0.52322 0.88631 0.80653 0.0
Co767 Co 0.17382 0.65275 0.77347 0.0
Co768 Co 0.15419 0.6512 0.8127 0.0
O769 O 0.15227 0.65571 0.78883 0.0
C770 C 0.12835 0.63671 0.75417 0.0
O771 O 0.11775 0.64026 0.76674 0.0
C772 C 0.1521 0.69525 0.81108 0.0
O773 O 0.16926 0.70317 0.80014 0.0
O774 O 0.18767 0.67714 0.81261 0.0
O775 O 0.19966 0.66534 0.79046 0.0
H776 H 0.19209 0.64295 0.86456 0.0
H777 H 0.15156 0.68184 0.76456 0.0
O778 O 0.14924 0.64011 0.75553 0.0
H779 H 0.23716 0.73492 0.75781 0.0
H780 H 0.21088 0.65656 0.71787 0.0
H781 H 0.20782 0.6354 0.77689 0.0
H782 H 0.2216 0.69377 0.76676 0.0
H783 H 0.1848 0.6619 0.73731 0.0
O784 O 0.1439 0.6747 0.81726 0.0
H785 H 0.18881 0.6476 0.83447 0.0
H786 H 0.12435 0.64734 0.84186 0.0
H787 H 0.23423 0.62992 0.7579 0.0
H788 H 0.16631 0.7226 0.75526 0.0
H789 H 0.2359 0.64055 0.72814 0.0
H790 H 0.20945 0.74959 0.75186 0.0
O791 O 0.16219 0.62016 0.78156 0.0
H792 H 0.06807 0.61451 0.79861 0.0
H793 H 0.12838 0.60189 0.82591 0.0
H794 H 0.08695 0.56958 0.8254 0.0
H795 H 0.05645 0.5758 0.8117 0.0
H796 H 0.10976 0.64629 0.7993 0.0
H797 H 0.12703 0.64289 0.87204 0.0
H798 H 0.16104 0.64055 0.88356 0.0
O799 O 0.1645 0.6273 0.80881 0.0
C800 C 0.20391 0.67822 0.8033 0.0
C801 C 0.17715 0.64386 0.85968 0.0
C802 C 0.14065 0.64386 0.86388 0.0
N803 N 0.1563 0.64752 0.83641 0.0
C804 C 0.17516 0.64643 0.84265 0.0
C805 C 0.13925 0.64643 0.84679 0.0
C806 C 0.15973 0.64254 0.87034 0.0
C807 C 0.17024 0.69308 0.76273 0.0
N808 N 0.18553 0.685 0.76581 0.0
C809 C 0.17855 0.71635 0.75762 0.0
C810 C 0.20276 0.7315 0.75577 0.0
C811 C 0.2183 0.72328 0.75909 0.0
C812 C 0.20934 0.69991 0.76416 0.0
C813 C 0.21032 0.65188 0.73081 0.0
C814 C 0.20847 0.64014 0.76399 0.0
C815 C 0.19552 0.65479 0.74187 0.0
N816 N 0.1948 0.64903 0.75826 0.0
C817 C 0.22346 0.63697 0.75328 0.0
C818 C 0.22437 0.64291 0.73658 0.0
C819 C 0.16382 0.6147 0.79648 0.0
C820 C 0.0812 0.61158 0.80461 0.0
C821 C 0.11526 0.60469 0.8198 0.0
C822 C 0.0918 0.58635 0.81962 0.0
C823 C 0.0747 0.58986 0.81195 0.0
N824 N 0.1215 0.62594 0.81256 0.0
C825 C 0.10482 0.62952 0.80505 0.0
Co826 Co 0.33693 0.51635 0.77318 0.0
Co827 Co 0.33939 0.49426 0.81072 0.0
O828 O 0.33348 0.49012 0.78682 0.0
C829 C 0.35018 0.48722 0.75096 0.0
O830 O 0.3473 0.4724 0.76292 0.0
C831 C 0.2937 0.44968 0.80891 0.0
O832 O 0.28522 0.4611 0.80063 0.0
O833 O 0.31462 0.50326 0.81292 0.0
O834 O 0.32634 0.52904 0.79192 0.0
H835 H 0.35213 0.53577 0.86543 0.0
H836 H 0.30548 0.46613 0.76263 0.0
O837 O 0.3475 0.50497 0.75359 0.0
H838 H 0.25527 0.50254 0.76174 0.0
H839 H 0.3323 0.55555 0.72059 0.0
H840 H 0.35688 0.56767 0.77926 0.0
H841 H 0.29716 0.52597 0.76961 0.0
H842 H 0.32628 0.52193 0.73796 0.0
O843 O 0.31502 0.46033 0.81395 0.0
H844 H 0.34583 0.5309 0.83518 0.0
H845 H 0.34301 0.46462 0.83739 0.0
H846 H 0.3631 0.60172 0.76237 0.0
H847 H 0.26387 0.44224 0.7544 0.0
H848 H 0.35076 0.59579 0.7328 0.0
H849 H 0.23834 0.46037 0.75396 0.0
O850 O 0.37011 0.53529 0.78067 0.0
H851 H 0.37199 0.44341 0.79076 0.0
H852 H 0.38921 0.51485 0.82237 0.0
H853 H 0.4202 0.50415 0.81916 0.0
H854 H 0.41167 0.46817 0.80328 0.0
H855 H 0.34157 0.45487 0.79416 0.0
H856 H 0.34908 0.46866 0.86768 0.0
H857 H 0.3538 0.5045 0.88189 0.0
O858 O 0.36415 0.52851 0.80793 0.0
C859 C 0.3139 0.51962 0.80485 0.0
C860 C 0.3502 0.52012 0.85937 0.0
C861 C 0.34845 0.48244 0.86064 0.0
N862 N 0.34434 0.49764 0.83451 0.0
C863 C 0.34671 0.51731 0.84224 0.0
C864 C 0.34499 0.48024 0.84349 0.0
C865 C 0.35111 0.50256 0.8686 0.0
C866 C 0.29481 0.47441 0.76211 0.0
N867 N 0.3041 0.49767 0.7662 0.0
C868 C 0.2711 0.46067 0.75759 0.0
C869 C 0.25676 0.47082 0.75739 0.0
C870 C 0.26625 0.49447 0.76174 0.0
C871 C 0.29004 0.50767 0.76617 0.0
C872 C 0.33774 0.55836 0.73346 0.0
C873 C 0.35139 0.56489 0.76643 0.0
C874 C 0.33445 0.5394 0.74335 0.0
N875 N 0.34117 0.54279 0.75964 0.0
C876 C 0.35499 0.58427 0.75691 0.0
C877 C 0.34808 0.58093 0.74032 0.0
C878 C 0.37639 0.54116 0.79569 0.0
C879 C 0.37594 0.45914 0.79769 0.0
C880 C 0.38541 0.49928 0.81531 0.0
C881 C 0.40301 0.49325 0.8136 0.0
C882 C 0.3982 0.47305 0.80471 0.0
N883 N 0.36363 0.48557 0.80836 0.0
C884 C 0.35877 0.46571 0.79967 0.0
Co885 Co 0.48025 0.80879 0.55884 0.0
Co886 Co 0.50379 0.82766 0.5205 0.0
O887 O 0.50312 0.8337 0.54427 0.0
C888 C 0.52367 0.83824 0.58004 0.0
O889 O 0.53561 0.85183 0.56753 0.0
C890 C 0.50466 0.87317 0.5212 0.0
O891 O 0.4866 0.86339 0.5314 0.0
O892 O 0.47026 0.81955 0.51866 0.0
O893 O 0.45632 0.79538 0.54054 0.0
H894 H 0.47188 0.78197 0.46759 0.0
H895 H 0.50088 0.85976 0.56805 0.0
O896 O 0.50282 0.8209 0.57805 0.0
H897 H 0.41464 0.82629 0.56954 0.0
H898 H 0.43749 0.77433 0.61266 0.0
H899 H 0.44747 0.75733 0.55457 0.0
H900 H 0.43159 0.80122 0.56244 0.0
H901 H 0.46524 0.80625 0.59418 0.0
O902 O 0.51389 0.86136 0.51573 0.0
H903 H 0.47191 0.78947 0.49759 0.0
H904 H 0.53635 0.85438 0.49267 0.0
H905 H 0.41947 0.72495 0.5726 0.0
H906 H 0.48469 0.88527 0.57556 0.0
H907 H 0.4143 0.73335 0.60189 0.0
H908 H 0.44124 0.86864 0.57627 0.0
O909 O 0.49326 0.78843 0.55209 0.0
H910 H 0.58817 0.87828 0.53853 0.0
H911 H 0.53158 0.80504 0.50968 0.0
H912 H 0.57308 0.81492 0.51254 0.0
H913 H 0.60171 0.85181 0.52702 0.0
H914 H 0.54644 0.86761 0.53551 0.0
H915 H 0.53692 0.8477 0.46259 0.0
H916 H 0.50456 0.81121 0.44988 0.0
O917 O 0.49366 0.79353 0.52464 0.0
C918 C 0.45322 0.80415 0.5273 0.0
C919 C 0.48612 0.79789 0.47299 0.0
C920 C 0.52261 0.8348 0.47018 0.0
N921 N 0.50423 0.82221 0.49689 0.0
C922 C 0.48627 0.8022 0.48998 0.0
C923 C 0.52217 0.83851 0.48721 0.0
C924 C 0.50445 0.81432 0.46306 0.0
C925 C 0.48202 0.85214 0.56871 0.0
N926 N 0.46731 0.82881 0.56515 0.0
C927 C 0.47291 0.86679 0.57281 0.0
C928 C 0.44853 0.85747 0.57317 0.0
C929 C 0.43361 0.83372 0.56939 0.0
C930 C 0.44335 0.81961 0.56537 0.0
C931 C 0.43957 0.77045 0.59992 0.0
C932 C 0.44531 0.76118 0.56727 0.0
C933 C 0.45532 0.78844 0.5894 0.0
N934 N 0.45797 0.7837 0.57327 0.0
C935 C 0.42943 0.74275 0.57744 0.0
C936 C 0.42656 0.74746 0.59387 0.0
C937 C 0.49325 0.78156 0.5373 0.0
C938 C 0.57586 0.86215 0.5322 0.0
C939 C 0.54387 0.82102 0.51613 0.0
C940 C 0.56738 0.82657 0.51764 0.0
C941 C 0.58344 0.84728 0.52575 0.0
N942 N 0.53656 0.83568 0.52252 0.0
C943 C 0.55222 0.85603 0.53044 0.0
Co944 Co 0.18586 0.67539 0.5621 0.0
Co945 Co 0.16306 0.67746 0.52473 0.0
O946 O 0.15943 0.67186 0.54868 0.0
C947 C 0.15731 0.6893 0.58433 0.0
O948 O 0.14287 0.68705 0.57227 0.0
C949 C 0.11883 0.6318 0.52746 0.0
O950 O 0.13066 0.62391 0.53587 0.0
O951 O 0.17217 0.65279 0.52247 0.0
O952 O 0.19818 0.66449 0.5433 0.0
H953 H 0.20358 0.68987 0.46963 0.0
H954 H 0.13591 0.6444 0.5733 0.0
O955 O 0.17481 0.68619 0.58175 0.0
H956 H 0.17174 0.59366 0.57383 0.0
H957 H 0.22581 0.67113 0.6144 0.0
H958 H 0.23704 0.69511 0.5556 0.0
H959 H 0.19524 0.63543 0.56564 0.0
H960 H 0.19195 0.66507 0.59731 0.0
O961 O 0.12915 0.65286 0.5219 0.0
H962 H 0.19933 0.68391 0.49994 0.0
H963 H 0.13274 0.68046 0.49834 0.0
H964 H 0.27132 0.70139 0.57222 0.0
H965 H 0.11196 0.60292 0.58188 0.0
H966 H 0.26583 0.68934 0.60185 0.0
H967 H 0.12979 0.57713 0.58213 0.0
O968 O 0.20476 0.70847 0.55437 0.0
H969 H 0.11204 0.70978 0.54488 0.0
H970 H 0.18324 0.72714 0.51288 0.0
H971 H 0.17233 0.75799 0.51607 0.0
H972 H 0.13647 0.74938 0.53214 0.0
H973 H 0.12372 0.67952 0.54151 0.0
H974 H 0.13617 0.68618 0.46799 0.0
H975 H 0.17185 0.69104 0.45346 0.0
O976 O 0.19729 0.70238 0.52718 0.0
C977 C 0.18854 0.65198 0.53044 0.0
C978 C 0.188 0.68787 0.47583 0.0
C979 C 0.15015 0.68577 0.47491 0.0
N980 N 0.16595 0.68212 0.50091 0.0
C981 C 0.18553 0.68457 0.49299 0.0
C982 C 0.14829 0.6825 0.49208 0.0
C983 C 0.17017 0.6885 0.46676 0.0
C984 C 0.14406 0.63361 0.57373 0.0
N985 N 0.16719 0.64267 0.56933 0.0
C986 C 0.13029 0.60997 0.57845 0.0
C987 C 0.14028 0.59549 0.57855 0.0
C988 C 0.1638 0.60475 0.5739 0.0
C989 C 0.17703 0.62847 0.56928 0.0
C990 C 0.22842 0.67645 0.6015 0.0
C991 C 0.23446 0.68977 0.56846 0.0
C992 C 0.20933 0.67313 0.59177 0.0
N993 N 0.21248 0.67968 0.57544 0.0
C994 C 0.25396 0.69339 0.57782 0.0
C995 C 0.25087 0.68665 0.59445 0.0
C996 C 0.21024 0.71468 0.53928 0.0
C997 C 0.12773 0.71376 0.53786 0.0
C998 C 0.16774 0.72332 0.52003 0.0
C999 C 0.16159 0.74083 0.52172 0.0
C1000 C 0.14145 0.73598 0.53072 0.0
N1001 N 0.15422 0.70158 0.52711 0.0
C1002 C 0.13442 0.69668 0.5359 0.0
Co1003 Co 0.31674 0.50828 0.55982 0.0
Co1004 Co 0.31405 0.4866 0.52107 0.0
O1005 O 0.31935 0.48604 0.54497 0.0
C1006 C 0.30122 0.46371 0.58016 0.0
O1007 O 0.3043 0.45251 0.56777 0.0
C1008 C 0.35854 0.48556 0.52271 0.0
O1009 O 0.36628 0.50324 0.5332 0.0
O1010 O 0.33965 0.52015 0.52018 0.0
O1011 O 0.32877 0.53327 0.54219 0.0
H1012 H 0.30362 0.52122 0.46826 0.0
H1013 H 0.34612 0.48657 0.56927 0.0
O1014 O 0.30469 0.48459 0.57837 0.0
H1015 H 0.39931 0.5725 0.57364 0.0
H1016 H 0.32201 0.54802 0.6145 0.0
H1017 H 0.29911 0.54195 0.55566 0.0
H1018 H 0.35788 0.55642 0.56522 0.0
H1019 H 0.32692 0.52107 0.59567 0.0
O1020 O 0.33779 0.47654 0.51673 0.0
H1021 H 0.30929 0.51971 0.4984 0.0
H1022 H 0.30968 0.45532 0.49276 0.0
H1023 H 0.29403 0.56919 0.57403 0.0
H1024 H 0.38718 0.50186 0.57805 0.0
H1025 H 0.30553 0.57239 0.6037 0.0
H1026 H 0.41422 0.54516 0.58024 0.0
O1027 O 0.28391 0.49614 0.55212 0.0
H1028 H 0.27884 0.40137 0.53736 0.0
H1029 H 0.26431 0.45964 0.50883 0.0
H1030 H 0.23239 0.4181 0.5105 0.0
H1031 H 0.23957 0.38863 0.52482 0.0
H1032 H 0.31022 0.44313 0.53551 0.0
H1033 H 0.30422 0.45622 0.46254 0.0
H1034 H 0.30104 0.4893 0.45012 0.0
O1035 O 0.29002 0.49681 0.52478 0.0
C1036 C 0.34108 0.53686 0.52911 0.0
C1037 C 0.30489 0.50667 0.47354 0.0
C1038 C 0.30526 0.4702 0.47032 0.0
N1039 N 0.30956 0.48733 0.49734 0.0
C1040 C 0.30802 0.50569 0.4906 0.0
C1041 C 0.30839 0.46981 0.48743 0.0
C1042 C 0.30347 0.48877 0.46336 0.0
C1043 C 0.35741 0.50534 0.57057 0.0
N1044 N 0.34921 0.52044 0.56711 0.0
C1045 C 0.38083 0.51395 0.57539 0.0
C1046 C 0.39601 0.53825 0.57657 0.0
C1047 C 0.38766 0.55358 0.57287 0.0
C1048 C 0.36413 0.54433 0.56811 0.0
C1049 C 0.31694 0.5468 0.6016 0.0
C1050 C 0.30423 0.54326 0.56852 0.0
C1051 C 0.31961 0.53151 0.59088 0.0
N1052 N 0.31336 0.52995 0.57454 0.0
C1053 C 0.30128 0.55871 0.57888 0.0
C1054 C 0.30771 0.56047 0.59553 0.0
C1055 C 0.27793 0.49696 0.5372 0.0
C1056 C 0.27549 0.41404 0.5311 0.0
C1057 C 0.26753 0.44697 0.5152 0.0
C1058 C 0.2494 0.42345 0.51605 0.0
C1059 C 0.25345 0.40691 0.52407 0.0
N1060 N 0.28908 0.45383 0.52215 0.0
C1061 C 0.29319 0.43771 0.53 0.0
C1062 C 0.41728 0.28863 0.17166 0.0
C1063 C 0.42712 0.27875 0.18224 0.0
C1064 C 0.39351 0.27587 0.16731 0.0
C1065 C 0.34076 0.25255 0.16966 0.0
H1066 H 0.3082 0.18567 0.15932 0.0
C1067 C 0.24037 0.20032 0.16257 0.0
C1068 C 0.23106 0.18438 0.14926 0.0
C1069 C 0.26407 0.21029 0.16692 0.0
C1070 C 0.31712 0.20439 0.16207 0.0
H1071 H 0.41986 0.24753 0.19628 0.0
H1072 H 0.37798 0.22528 0.18889 0.0
H1073 H 0.35044 0.20612 0.16571 0.0
H1074 H 0.23919 0.166 0.13027 0.0
H1075 H 0.28092 0.18388 0.13771 0.0
H1076 H 0.30783 0.25114 0.16565 0.0
C1077 C 0.38883 0.24283 0.18381 0.0
C1078 C 0.34122 0.21602 0.16591 0.0
C1079 C 0.41276 0.2556 0.18811 0.0
C1080 C 0.24587 0.17824 0.14059 0.0
C1081 C 0.26972 0.18837 0.14491 0.0
C1082 C 0.3168 0.24099 0.16581 0.0
C1083 C 0.37891 0.25299 0.17353 0.0
C1084 C 0.3533 0.24027 0.16968 0.0
C1085 C 0.27912 0.20474 0.15799 0.0
C1086 C 0.30467 0.21678 0.16201 0.0
H1087 H 0.42791 0.30632 0.16674 0.0
H1088 H 0.38654 0.28401 0.15907 0.0
H1089 H 0.34945 0.27116 0.17274 0.0
H1090 H 0.22937 0.20521 0.16964 0.0
H1091 H 0.27064 0.22245 0.17728 0.0
C1092 C 0.81618 0.06508 0.14128 0.0
C1093 C 0.80798 0.04273 0.14848 0.0
C1094 C 0.80532 0.07831 0.14505 0.0
C1095 C 0.78632 0.10719 0.16232 0.0
H1096 H 0.7179 0.07297 0.16481 0.0
C1097 C 0.73151 0.14754 0.18835 0.0
C1098 C 0.71009 0.14129 0.18034 0.0
C1099 C 0.74468 0.13693 0.18375 0.0
C1100 C 0.737 0.08286 0.164 0.0
H1101 H 0.78241 0.01702 0.16563 0.0
H1102 H 0.76379 0.04013 0.1723 0.0
H1103 H 0.73862 0.05188 0.15805 0.0
H1104 H 0.68611 0.11972 0.16081 0.0
H1105 H 0.70917 0.10154 0.15269 0.0
H1106 H 0.78453 0.13829 0.16805 0.0
C1107 C 0.77828 0.04728 0.16352 0.0
C1108 C 0.74889 0.0707 0.16034 0.0
C1109 C 0.78905 0.03409 0.15975 0.0
C1110 C 0.70242 0.12475 0.16736 0.0
C1111 C 0.71559 0.11425 0.16274 0.0
C1112 C 0.77437 0.1194 0.166 0.0
C1113 C 0.78608 0.0694 0.15607 0.0
C1114 C 0.77367 0.08268 0.15956 0.0
C1115 C 0.73666 0.11993 0.17105 0.0
C1116 C 0.74957 0.10732 0.1669 0.0
H1117 H 0.83072 0.0722 0.13254 0.0
H1118 H 0.81161 0.09523 0.13903 0.0
H1119 H 0.80544 0.11687 0.1619 0.0
H1120 H 0.73786 0.16021 0.19842 0.0
H1121 H 0.76075 0.14152 0.19048 0.0
C1122 C 0.83932 0.58034 0.18848 0.0
C1123 C 0.84792 0.56598 0.18227 0.0
C1124 C 0.85063 0.60439 0.18447 0.0
C1125 C 0.87149 0.65226 0.16686 0.0
H1126 H 0.93997 0.68541 0.16612 0.0
C1127 C 0.92884 0.74717 0.14082 0.0
C1128 C 0.95006 0.76204 0.14916 0.0
C1129 C 0.91512 0.72343 0.1454 0.0
C1130 C 0.92086 0.67652 0.16644 0.0
H1131 H 0.87459 0.56537 0.16653 0.0
H1132 H 0.89391 0.60693 0.15938 0.0
H1133 H 0.91833 0.64381 0.1733 0.0
H1134 H 0.97306 0.76398 0.16927 0.0
H1135 H 0.94903 0.72289 0.1774 0.0
H1136 H 0.8742 0.68531 0.1603 0.0
C1137 C 0.87883 0.59986 0.16765 0.0
C1138 C 0.90843 0.65256 0.17034 0.0
C1139 C 0.86766 0.57598 0.17169 0.0
C1140 C 0.95696 0.75291 0.16244 0.0
C1141 C 0.94322 0.72932 0.16707 0.0
C1142 C 0.88398 0.67635 0.16298 0.0
C1143 C 0.87069 0.61443 0.17416 0.0
C1144 C 0.88362 0.6401 0.17048 0.0
C1145 C 0.92235 0.71419 0.15845 0.0
C1146 C 0.90881 0.68871 0.16271 0.0
H1147 H 0.82415 0.57312 0.19666 0.0
H1148 H 0.84405 0.61521 0.18977 0.0
H1149 H 0.85237 0.6431 0.16676 0.0
H1150 H 0.92308 0.75372 0.13053 0.0
H1151 H 0.89923 0.71217 0.13843 0.0
C1152 C 0.25395 0.41356 0.81258 0.0
C1153 C 0.27871 0.42428 0.81242 0.0
C1154 C 0.24 0.3896 0.81657 0.0
C1155 C 0.23987 0.334 0.81614 0.0
H1156 H 0.19749 0.31525 0.85392 0.0
C1157 C 0.2067 0.2444 0.84713 0.0
C1158 C 0.18353 0.2321 0.85331 0.0
C1159 C 0.21628 0.26754 0.84151 0.0
C1160 C 0.20888 0.32007 0.84314 0.0
H1161 H 0.30827 0.41837 0.8159 0.0
H1162 H 0.28389 0.37651 0.82242 0.0
H1163 H 0.21738 0.35629 0.84442 0.0
H1164 H 0.15226 0.23445 0.85864 0.0
H1165 H 0.16884 0.27489 0.84838 0.0
H1166 H 0.23145 0.29804 0.81463 0.0
C1167 C 0.27532 0.38665 0.81963 0.0
C1168 C 0.22027 0.34356 0.83776 0.0
C1169 C 0.28924 0.41059 0.81598 0.0
C1170 C 0.17021 0.24356 0.85398 0.0
C1171 C 0.17974 0.26673 0.84815 0.0
C1172 C 0.22827 0.31053 0.82135 0.0
C1173 C 0.25063 0.37599 0.82007 0.0
C1174 C 0.23628 0.35077 0.82447 0.0
C1175 C 0.20283 0.27891 0.84169 0.0
C1176 C 0.21314 0.30339 0.8352 0.0
H1177 H 0.24542 0.42375 0.80994 0.0
H1178 H 0.22096 0.38167 0.81683 0.0
H1179 H 0.25194 0.33916 0.80573 0.0
H1180 H 0.21752 0.23615 0.84664 0.0
H1181 H 0.23434 0.27656 0.83709 0.0
C1182 C 0.7477 0.92754 0.85617 0.0
C1183 C 0.76214 0.94937 0.84836 0.0
C1184 C 0.72376 0.91414 0.85214 0.0
C1185 C 0.67616 0.88425 0.83497 0.0
H1186 H 0.64212 0.91842 0.83036 0.0
C1187 C 0.58011 0.84182 0.81048 0.0
C1188 C 0.56522 0.84858 0.81834 0.0
C1189 C 0.60409 0.85291 0.81452 0.0
C1190 C 0.65132 0.90859 0.83174 0.0
H1191 H 0.76298 0.97392 0.82986 0.0
H1192 H 0.72135 0.95045 0.82275 0.0
H1193 H 0.68416 0.93997 0.83648 0.0
H1194 H 0.5636 0.8717 0.83699 0.0
H1195 H 0.60528 0.89081 0.84411 0.0
H1196 H 0.64307 0.85279 0.83048 0.0
C1197 C 0.72842 0.94387 0.83217 0.0
C1198 C 0.67547 0.92097 0.83504 0.0
C1199 C 0.7523 0.95726 0.83619 0.0
C1200 C 0.57463 0.8662 0.83061 0.0
C1201 C 0.59854 0.87724 0.83464 0.0
C1202 C 0.65193 0.87184 0.83163 0.0
C1203 C 0.71382 0.92233 0.84025 0.0
C1204 C 0.68817 0.90896 0.83667 0.0
C1205 C 0.6136 0.87097 0.82647 0.0
C1206 C 0.63927 0.8839 0.83003 0.0
H1207 H 0.75476 0.92101 0.86563 0.0
H1208 H 0.71289 0.8977 0.85867 0.0
H1209 H 0.68553 0.87455 0.83606 0.0
H1210 H 0.57338 0.82833 0.80095 0.0
H1211 H 0.61532 0.84784 0.80793 0.0
C1212 C 0.12485 0.70188 0.82899 0.0
C1213 C 0.14181 0.70986 0.81626 0.0
C1214 C 0.11435 0.71501 0.83366 0.0
C1215 C 0.08351 0.73698 0.83269 0.0
H1216 H 0.11834 0.80516 0.83731 0.0
C1217 C 0.0358 0.78962 0.84039 0.0
C1218 C 0.04442 0.80749 0.85248 0.0
C1219 C 0.04887 0.77904 0.83574 0.0
C1220 C 0.10844 0.7861 0.83616 0.0
H1221 H 0.16143 0.73819 0.79868 0.0
H1222 H 0.14275 0.76111 0.80676 0.0
H1223 H 0.13935 0.78418 0.83 0.0
H1224 H 0.07376 0.82859 0.86897 0.0
H1225 H 0.09657 0.80977 0.86095 0.0
H1226 H 0.05271 0.73868 0.8391 0.0
C1227 C 0.13781 0.74474 0.8132 0.0
C1228 C 0.12041 0.77414 0.83182 0.0
C1229 C 0.14841 0.73157 0.80852 0.0
C1230 C 0.06665 0.81486 0.85962 0.0
C1231 C 0.07976 0.80418 0.85497 0.0
C1232 C 0.07159 0.74888 0.837 0.0
C1233 C 0.12046 0.73642 0.82569 0.0
C1234 C 0.10804 0.74943 0.83009 0.0
C1235 C 0.07084 0.78597 0.84311 0.0
C1236 C 0.08388 0.77357 0.83874 0.0
H1237 H 0.11951 0.68535 0.83534 0.0
H1238 H 0.10137 0.70835 0.84354 0.0
H1239 H 0.07342 0.71796 0.83125 0.0
H1240 H 0.01885 0.78366 0.8345 0.0
H1241 H 0.04172 0.76536 0.82635 0.0
C1242 C 0.91119 0.5029 0.48834 0.0
C1243 C 0.89986 0.51632 0.48736 0.0
C1244 C 0.93439 0.51312 0.49418 0.0
C1245 C 0.9792 0.56519 0.51779 0.0
H1246 H 0.02394 0.5512 0.49637 0.0
C1247 C 0.07944 0.62657 0.52036 0.0
C1248 C 0.09332 0.61647 0.52454 0.0
C1249 C 0.05533 0.61228 0.51742 0.0
C1250 C 0.01151 0.55499 0.50259 0.0
H1251 H 0.90408 0.55107 0.49133 0.0
H1252 H 0.94457 0.569 0.50094 0.0
H1253 H 0.98251 0.53004 0.48785 0.0
H1254 H 0.09298 0.58355 0.52888 0.0
H1255 H 0.05062 0.55841 0.52327 0.0
H1256 H 0.00851 0.59095 0.53195 0.0
C1257 C 0.93543 0.55042 0.49775 0.0
C1258 C 0.9878 0.54287 0.49776 0.0
C1259 C 0.91224 0.54018 0.4921 0.0
C1260 C 0.08264 0.59177 0.52571 0.0
C1261 C 0.05852 0.57742 0.52247 0.0
C1262 C 0.0029 0.57749 0.52243 0.0
C1263 C 0.94675 0.537 0.499 0.0
C1264 C 0.97146 0.54818 0.50509 0.0
C1265 C 0.04471 0.58761 0.51836 0.0
C1266 C 0.01931 0.57278 0.51467 0.0
H1267 H 0.90204 0.48444 0.48482 0.0
H1268 H 0.94252 0.50223 0.49512 0.0
H1269 H 0.967 0.56929 0.52402 0.0
H1270 H 0.08717 0.64555 0.51942 0.0
H1271 H 0.04505 0.62051 0.51413 0.0
C1272 C 0.39578 0.48361 0.52531 0.0
C1273 C 0.37371 0.47581 0.51777 0.0
C1274 C 0.40963 0.47369 0.52085 0.0
C1275 C 0.44012 0.45721 0.50279 0.0
H1276 H 0.40693 0.38916 0.49735 0.0
C1277 C 0.48379 0.40469 0.4775 0.0
C1278 C 0.47714 0.38306 0.48538 0.0
C1279 C 0.4725 0.41745 0.48153 0.0
C1280 C 0.4165 0.40816 0.49893 0.0
H1281 H 0.34921 0.45203 0.49927 0.0
H1282 H 0.37339 0.43501 0.49143 0.0
H1283 H 0.38486 0.40881 0.50428 0.0
H1284 H 0.45412 0.35833 0.5041 0.0
H1285 H 0.4348 0.3806 0.51118 0.0
H1286 H 0.47188 0.45632 0.49774 0.0
C1287 C 0.37984 0.44845 0.50099 0.0
C1288 C 0.40381 0.41946 0.50271 0.0
C1289 C 0.36601 0.45829 0.50546 0.0
C1290 C 0.45951 0.37479 0.49764 0.0
C1291 C 0.44833 0.38751 0.50167 0.0
C1292 C 0.45286 0.44585 0.49898 0.0
C1293 C 0.40165 0.4558 0.50877 0.0
C1294 C 0.41544 0.44409 0.50468 0.0
C1295 C 0.4544 0.40876 0.49349 0.0
C1296 C 0.44116 0.42118 0.49711 0.0
H1297 H 0.40219 0.49709 0.53484 0.0
H1298 H 0.42628 0.47956 0.52716 0.0
H1299 H 0.44953 0.47625 0.50412 0.0
H1300 H 0.49733 0.41151 0.468 0.0
H1301 H 0.47746 0.43373 0.47497 0.0
C1302 C 0.62024 0.08439 0.49516 0.0
C1303 C 0.61194 0.0942 0.48326 0.0
C1304 C 0.60707 0.06054 0.49925 0.0
C1305 C 0.58463 0.00784 0.49674 0.0
H1306 H 0.51667 0.97477 0.50274 0.0
C1307 C 0.53208 0.90739 0.50362 0.0
C1308 C 0.51473 0.89805 0.51608 0.0
C1309 C 0.5424 0.93106 0.49907 0.0
C1310 C 0.53567 0.98383 0.50119 0.0
H1311 H 0.58305 0.08677 0.46653 0.0
H1312 H 0.56007 0.04477 0.47354 0.0
H1313 H 0.53767 0.01704 0.49632 0.0
H1314 H 0.49421 0.9061 0.53329 0.0
H1315 H 0.51264 0.94776 0.5255 0.0
H1316 H 0.58289 0.97501 0.50196 0.0
C1317 C 0.5767 0.05571 0.47982 0.0
C1318 C 0.54764 0.00794 0.49735 0.0
C1319 C 0.5899 0.0797 0.47575 0.0
C1320 C 0.50754 0.9128 0.52365 0.0
C1321 C 0.51799 0.9366 0.51913 0.0
C1322 C 0.57273 0.98386 0.50057 0.0
C1323 C 0.58533 0.04584 0.49146 0.0
C1324 C 0.57227 0.0202 0.49517 0.0
C1325 C 0.53576 0.94603 0.50694 0.0
C1326 C 0.54812 0.97156 0.50283 0.0
H1327 H 0.63702 0.09509 0.50133 0.0
H1328 H 0.61397 0.05358 0.50851 0.0
H1329 H 0.60357 0.01669 0.49492 0.0
H1330 H 0.53784 0.89645 0.4974 0.0
H1331 H 0.5557 0.93767 0.48941 0.0
C1332 C 0.07936 0.1503 0.14973 0.0
C1333 C 0.08948 0.15798 0.13393 0.0
C1334 C 0.05493 0.13946 0.15188 0.0
C1335 C 0.00243 0.10366 0.12681 0.0
H1336 H 0.9688 0.10004 0.16737 0.0
C1337 C 0.91298 0.0236 0.13918 0.0
C1338 C 0.8947 0.0277 0.14395 0.0
C1339 C 0.9364 0.04168 0.13994 0.0
C1340 C 0.97795 0.10103 0.15593 0.0
H1341 H 0.08216 0.16292 0.10844 0.0
H1342 H 0.03966 0.14462 0.1123 0.0
H1343 H 0.01019 0.13107 0.16417 0.0
H1344 H 0.88655 0.05339 0.15432 0.0
H1345 H 0.92784 0.0853 0.15559 0.0
H1346 H 0.97046 0.07378 0.11852 0.0
C1347 C 0.05052 0.1462 0.12292 0.0
C1348 C 0.00164 0.11869 0.15412 0.0
C1349 C 0.07492 0.15684 0.12072 0.0
C1350 C 0.90037 0.04975 0.15068 0.0
C1351 C 0.92395 0.06801 0.15134 0.0
C1352 C 0.97891 0.08615 0.12861 0.0
C1353 C 0.04015 0.13629 0.13831 0.0
C1354 C 0.01425 0.11993 0.13963 0.0
C1355 C 0.94207 0.06435 0.14533 0.0
C1356 C 0.96656 0.08424 0.14333 0.0
H1357 H 0.09005 0.15111 0.16025 0.0
H1358 H 0.04759 0.13203 0.16391 0.0
H1359 H 0.01159 0.10377 0.11558 0.0
H1360 H 0.9091 0.00669 0.13408 0.0
H1361 H 0.95005 0.03815 0.13566 0.0
C1362 C 0.84326 0.9258 0.14734 0.0
C1363 C 0.83611 0.92901 0.13156 0.0
C1364 C 0.85404 0.91213 0.14927 0.0
C1365 C 0.89027 0.89594 0.12399 0.0
H1366 H 0.89306 0.86505 0.16433 0.0
C1367 C 0.96977 0.88541 0.13655 0.0
C1368 C 0.96559 0.8632 0.14184 0.0
C1369 C 0.95175 0.89087 0.13697 0.0
C1370 C 0.89231 0.87343 0.15293 0.0
H1371 H 0.83203 0.918 0.10581 0.0
H1372 H 0.85011 0.89353 0.10927 0.0
H1373 H 0.86226 0.87565 0.16111 0.0
H1374 H 0.93977 0.82974 0.15262 0.0
H1375 H 0.90795 0.83927 0.15323 0.0
H1376 H 0.92008 0.89369 0.11573 0.0
C1377 C 0.84824 0.90234 0.12006 0.0
C1378 C 0.87478 0.87964 0.15112 0.0
C1379 C 0.8377 0.91624 0.11809 0.0
C1380 C 0.94347 0.84708 0.1486 0.0
C1381 C 0.92526 0.8525 0.14888 0.0
C1382 C 0.90763 0.8897 0.12578 0.0
C1383 C 0.85764 0.90112 0.13549 0.0
C1384 C 0.87385 0.89138 0.13673 0.0
C1385 C 0.92903 0.87414 0.14249 0.0
C1386 C 0.90926 0.87895 0.14042 0.0
H1387 H 0.84212 0.93519 0.15805 0.0
H1388 H 0.86107 0.91166 0.16134 0.0
H1389 H 0.89042 0.90526 0.11284 0.0
H1390 H 0.98674 0.89826 0.13143 0.0
H1391 H 0.95542 0.90798 0.13242 0.0
C1392 C 0.10797 0.08059 0.13642 0.0
C1393 C 0.1299 0.09865 0.14213 0.0
C1394 C 0.10264 0.05714 0.13682 0.0
C1395 C 0.10439 0.0143 0.12609 0.0
H1396 H 0.11701 0.98291 0.16212 0.0
C1397 C 0.07816 0.9178 0.11894 0.0
C1398 C 0.06488 0.90343 0.13227 0.0
C1399 C 0.09194 0.94224 0.12094 0.0
C1400 C 0.11344 0.99147 0.15194 0.0
H1401 H 0.16295 0.10631 0.15363 0.0
H1402 H 0.15365 0.06503 0.15422 0.0
H1403 H 0.12749 0.02431 0.16512 0.0
H1404 H 0.05763 0.90327 0.15859 0.0
H1405 H 0.08097 0.94575 0.16191 0.0
H1406 H 0.08934 0.98155 0.11316 0.0
C1407 C 0.14055 0.06908 0.14953 0.0
C1408 C 0.11957 0.0152 0.15362 0.0
C1409 C 0.14584 0.09267 0.14925 0.0
C1410 C 0.06742 0.9138 0.14799 0.0
C1411 C 0.08099 0.93826 0.14994 0.0
C1412 C 0.09822 0.9907 0.12442 0.0
C1413 C 0.11922 0.05121 0.14277 0.0
C1414 C 0.11456 0.02666 0.14084 0.0
C1415 C 0.09254 0.95286 0.13626 0.0
C1416 C 0.10225 0.97881 0.13742 0.0
H1417 H 0.09525 0.08466 0.13103 0.0
H1418 H 0.08576 0.0437 0.13197 0.0
H1419 H 0.1008 0.02277 0.11585 0.0
H1420 H 0.07692 0.91037 0.10672 0.0
H1421 H 0.10118 0.95293 0.11025 0.0
C1422 C 0.0259 0.91287 0.86505 0.0
C1423 C 0.03042 0.89498 0.85995 0.0
C1424 C 0.04368 0.93643 0.86457 0.0
C1425 C 0.0875 0.97952 0.87598 0.0
H1426 H 0.13229 0.01183 0.8405 0.0
C1427 C 0.15622 0.07635 0.8839 0.0
C1428 C 0.1573 0.09075 0.87059 0.0
C1429 C 0.14604 0.05198 0.88178 0.0
C1430 C 0.11994 0.003 0.85053 0.0
H1431 H 0.0566 0.88771 0.84938 0.0
H1432 H 0.08804 0.92927 0.84863 0.0
H1433 H 0.10211 0.97016 0.83724 0.0
H1434 H 0.15069 0.09107 0.84421 0.0
H1435 H 0.13238 0.04865 0.84066 0.0
H1436 H 0.10426 0.0122 0.88903 0.0
C1437 C 0.07062 0.92496 0.85291 0.0
C1438 C 0.10277 0.97914 0.84869 0.0
C1439 C 0.05264 0.90122 0.85327 0.0
C1440 C 0.14995 0.08051 0.85479 0.0
C1441 C 0.13955 0.0561 0.85271 0.0
C1442 C 0.10452 0.00323 0.87781 0.0
C1443 C 0.0665 0.94267 0.85916 0.0
C1444 C 0.08602 0.96736 0.86126 0.0
C1445 C 0.1365 0.04144 0.86635 0.0
C1446 C 0.12071 0.01543 0.86502 0.0
H1447 H 0.00884 0.90857 0.8701 0.0
H1448 H 0.03977 0.94975 0.86902 0.0
H1449 H 0.07517 0.97079 0.88605 0.0
H1450 H 0.16205 0.08369 0.89619 0.0
H1451 H 0.14457 0.04125 0.89244 0.0
C1452 C 0.07978 0.10792 0.86487 0.0
C1453 C 0.09777 0.1306 0.86037 0.0
C1454 C 0.05625 0.1023 0.86461 0.0
C1455 C 0.01281 0.10195 0.87655 0.0
H1456 H 0.98202 0.11913 0.84271 0.0
C1457 C 0.91576 0.07393 0.88421 0.0
C1458 C 0.90184 0.06276 0.87019 0.0
C1459 C 0.94027 0.08796 0.88274 0.0
C1460 C 0.9904 0.11424 0.85228 0.0
H1461 H 0.10528 0.1648 0.85116 0.0
H1462 H 0.06385 0.155 0.85083 0.0
H1463 H 0.02353 0.13029 0.83933 0.0
H1464 H 0.90262 0.05958 0.84338 0.0
H1465 H 0.94515 0.08327 0.84095 0.0
H1466 H 0.97976 0.08494 0.88915 0.0
C1467 C 0.06801 0.14153 0.85442 0.0
C1468 C 0.0142 0.12077 0.85038 0.0
C1469 C 0.09168 0.1471 0.85453 0.0
C1470 C 0.91277 0.06765 0.85451 0.0
C1471 C 0.93727 0.08146 0.85307 0.0
C1472 C 0.98912 0.09537 0.87841 0.0
C1473 C 0.05016 0.11933 0.86006 0.0
C1474 C 0.02547 0.11416 0.86232 0.0
C1475 C 0.95141 0.09094 0.86726 0.0
C1476 C 0.97744 0.10102 0.86617 0.0
H1477 H 0.084 0.09481 0.86932 0.0
H1478 H 0.04286 0.08481 0.86854 0.0
H1479 H 0.02112 0.09709 0.88619 0.0
H1480 H 0.90792 0.07086 0.89645 0.0
H1481 H 0.95059 0.09555 0.89388 0.0
C1482 C 0.92931 0.84517 0.85403 0.0
C1483 C 0.93148 0.83688 0.86967 0.0
C1484 C 0.91566 0.85596 0.85209 0.0
C1485 C 0.89629 0.88944 0.87781 0.0
H1486 H 0.86885 0.8949 0.83656 0.0
C1487 C 0.88406 0.96839 0.86692 0.0
C1488 C 0.86262 0.96436 0.86009 0.0
C1489 C 0.89015 0.95082 0.86653 0.0
C1490 C 0.87623 0.89339 0.84821 0.0
H1491 H 0.91881 0.83098 0.89507 0.0
H1492 H 0.8943 0.849 0.89153 0.0
H1493 H 0.88007 0.86456 0.83941 0.0
H1494 H 0.83125 0.93928 0.84673 0.0
H1495 H 0.84176 0.90816 0.84626 0.0
H1496 H 0.89222 0.91789 0.88674 0.0
C1497 C 0.90393 0.84804 0.88091 0.0
C1498 C 0.88283 0.87613 0.84981 0.0
C1499 C 0.91784 0.83752 0.88291 0.0
C1500 C 0.84798 0.94287 0.85197 0.0
C1501 C 0.85397 0.92506 0.85175 0.0
C1502 C 0.88957 0.90647 0.87625 0.0
C1503 C 0.90359 0.85843 0.86568 0.0
C1504 C 0.89341 0.87428 0.86453 0.0
C1505 C 0.87477 0.92862 0.85954 0.0
C1506 C 0.88006 0.90911 0.86131 0.0
H1507 H 0.93942 0.84481 0.84349 0.0
H1508 H 0.91595 0.86379 0.84019 0.0
H1509 H 0.90467 0.88888 0.88925 0.0
H1510 H 0.89578 0.98491 0.87311 0.0
H1511 H 0.90667 0.95442 0.87216 0.0
C1512 C 0.74583 0.48013 0.44566 0.0
C1513 C 0.76056 0.48701 0.45968 0.0
C1514 C 0.72144 0.47042 0.44747 0.0
C1515 C 0.67265 0.43153 0.45606 0.0
H1516 H 0.64088 0.44416 0.49189 0.0
C1517 C 0.5812 0.3605 0.47599 0.0
C1518 C 0.56415 0.36722 0.47845 0.0
C1519 C 0.60505 0.3775 0.47512 0.0
C1520 C 0.64946 0.44053 0.48174 0.0
H1521 H 0.7614 0.49134 0.48645 0.0
H1522 H 0.71908 0.47383 0.48959 0.0
H1523 H 0.68234 0.47239 0.48589 0.0
H1524 H 0.55849 0.3967 0.48278 0.0
H1525 H 0.60044 0.42672 0.48102 0.0
H1526 H 0.63991 0.39999 0.45168 0.0
C1527 C 0.72622 0.47603 0.47718 0.0
C1528 C 0.67326 0.45661 0.47837 0.0
C1529 C 0.7506 0.48596 0.47536 0.0
C1530 C 0.57142 0.39111 0.48114 0.0
C1531 C 0.59539 0.40826 0.48003 0.0
C1532 C 0.64896 0.41563 0.45936 0.0
C1533 C 0.71123 0.46718 0.46333 0.0
C1534 C 0.68526 0.45207 0.46566 0.0
C1535 C 0.61234 0.40165 0.47634 0.0
C1536 C 0.63721 0.4196 0.47248 0.0
H1537 H 0.75292 0.481 0.43337 0.0
H1538 H 0.71047 0.46442 0.43647 0.0
H1539 H 0.68127 0.42716 0.44634 0.0
H1540 H 0.57597 0.34214 0.47389 0.0
H1541 H 0.61771 0.37174 0.47278 0.0
C1542 C 0.50375 0.25407 0.45613 0.0
C1543 C 0.50313 0.26766 0.46942 0.0
C1544 C 0.51349 0.23949 0.45824 0.0
C1545 C 0.53898 0.21583 0.4893 0.0
H1546 H 0.58411 0.22872 0.45398 0.0
C1547 C 0.60555 0.18037 0.48548 0.0
C1548 C 0.62794 0.19661 0.47916 0.0
C1549 C 0.58773 0.18633 0.48621 0.0
C1550 C 0.57165 0.225 0.46398 0.0
H1551 H 0.50995 0.27461 0.49579 0.0
H1552 H 0.52747 0.24976 0.49932 0.0
H1553 H 0.55525 0.24137 0.45103 0.0
H1554 H 0.65001 0.23236 0.47015 0.0
H1555 H 0.6193 0.24291 0.47184 0.0
H1556 H 0.55642 0.20028 0.50248 0.0
C1557 C 0.52032 0.25018 0.48728 0.0
C1558 C 0.55479 0.23189 0.46217 0.0
C1559 C 0.51039 0.26461 0.48521 0.0
C1560 C 0.63282 0.21944 0.47492 0.0
C1561 C 0.61518 0.2254 0.47575 0.0
C1562 C 0.55597 0.20888 0.49111 0.0
C1563 C 0.52298 0.23833 0.47365 0.0
C1564 C 0.5385 0.22781 0.47491 0.0
C1565 C 0.59219 0.2086 0.48068 0.0
C1566 C 0.57284 0.21398 0.47862 0.0
H1567 H 0.49796 0.25569 0.44386 0.0
H1568 H 0.51471 0.23008 0.44757 0.0
H1569 H 0.52655 0.21226 0.49929 0.0
H1570 H 0.60132 0.16259 0.48869 0.0
H1571 H 0.57016 0.17308 0.49011 0.0
C1572 C 0.8146 0.42433 0.48836 0.0
C1573 C 0.79802 0.43114 0.48413 0.0
C1574 C 0.80771 0.40033 0.48922 0.0
C1575 C 0.78526 0.34596 0.49307 0.0
H1576 H 0.74575 0.31464 0.45489 0.0
C1577 C 0.73132 0.24478 0.48358 0.0
C1578 C 0.72642 0.23599 0.46724 0.0
C1579 C 0.7451 0.26901 0.48652 0.0
C1580 C 0.75711 0.32315 0.46545 0.0
H1581 H 0.76112 0.41877 0.47922 0.0
H1582 H 0.74889 0.37702 0.48146 0.0
H1583 H 0.75819 0.35566 0.46029 0.0
H1584 H 0.73458 0.24556 0.44131 0.0
H1585 H 0.75897 0.28774 0.44649 0.0
H1586 H 0.78407 0.31312 0.49813 0.0
C1587 C 0.76726 0.39001 0.48362 0.0
C1588 C 0.76387 0.34658 0.46874 0.0
C1589 C 0.77415 0.41386 0.48257 0.0
C1590 C 0.73765 0.25172 0.45403 0.0
C1591 C 0.75153 0.27594 0.45699 0.0
C1592 C 0.77837 0.3223 0.4898 0.0
C1593 C 0.78417 0.383 0.48596 0.0
C1594 C 0.77766 0.35815 0.48272 0.0
C1595 C 0.75441 0.28494 0.47321 0.0
C1596 C 0.76404 0.31061 0.47601 0.0
H1597 H 0.83318 0.43741 0.48931 0.0
H1598 H 0.82112 0.39542 0.49105 0.0
H1599 H 0.79604 0.35452 0.50387 0.0
H1600 H 0.72323 0.23317 0.4941 0.0
H1601 H 0.74697 0.27533 0.49916 0.0
C1602 C 0.718 0.2345 0.18432 0.0
C1603 C 0.69567 0.22757 0.19109 0.0
C1604 C 0.73551 0.25842 0.18414 0.0
C1605 C 0.76703 0.31249 0.18051 0.0
H1606 H 0.76619 0.34547 0.22027 0.0
C1607 C 0.81304 0.41378 0.18586 0.0
C1608 C 0.81897 0.42424 0.20168 0.0
C1609 C 0.8031 0.38938 0.18406 0.0
C1610 C 0.76714 0.33654 0.20923 0.0
H1611 H 0.67334 0.23996 0.20161 0.0
H1612 H 0.70334 0.28153 0.20065 0.0
H1613 H 0.73793 0.30391 0.21726 0.0
H1614 H 0.82184 0.41773 0.22771 0.0
H1615 H 0.80543 0.37532 0.2245 0.0
H1616 H 0.79661 0.34531 0.17264 0.0
C1617 C 0.70779 0.26866 0.19608 0.0
C1618 C 0.75054 0.31272 0.20735 0.0
C1619 C 0.69052 0.24489 0.19646 0.0
C1620 C 0.81708 0.41015 0.2154 0.0
C1621 C 0.80748 0.3858 0.21356 0.0
C1622 C 0.78386 0.33644 0.18245 0.0
C1623 C 0.73078 0.27564 0.1906 0.0
C1624 C 0.74983 0.30055 0.1928 0.0
C1625 C 0.7992 0.37497 0.19801 0.0
C1626 C 0.7838 0.34888 0.19671 0.0
H1627 H 0.72242 0.22138 0.18025 0.0
H1628 H 0.75305 0.26325 0.17982 0.0
H1629 H 0.76702 0.30356 0.1692 0.0
H1630 H 0.81438 0.4241 0.17499 0.0
H1631 H 0.79692 0.38175 0.1719 0.0
C1632 C 0.74408 0.44001 0.18162 0.0
C1633 C 0.76177 0.46384 0.18119 0.0
C1634 C 0.72037 0.43381 0.18178 0.0
C1635 C 0.67824 0.42929 0.19954 0.0
H1636 H 0.64463 0.45448 0.17515 0.0
C1637 C 0.58367 0.40023 0.21737 0.0
C1638 C 0.56787 0.39153 0.20395 0.0
C1639 C 0.60786 0.4148 0.21459 0.0
C1640 C 0.65385 0.44737 0.1821 0.0
H1641 H 0.76882 0.49981 0.1791 0.0
H1642 H 0.72711 0.48895 0.1795 0.0
H1643 H 0.68556 0.46669 0.1677 0.0
H1644 H 0.56483 0.39373 0.17724 0.0
H1645 H 0.60687 0.41854 0.17242 0.0
H1646 H 0.64672 0.40941 0.21358 0.0
C1647 C 0.73157 0.47507 0.17954 0.0
C1648 C 0.67725 0.4544 0.17785 0.0
C1649 C 0.75542 0.48128 0.17916 0.0
C1650 C 0.57651 0.39976 0.18788 0.0
C1651 C 0.6007 0.41419 0.18509 0.0
C1652 C 0.65502 0.42232 0.20378 0.0
C1653 C 0.71394 0.45136 0.1818 0.0
C1654 C 0.68946 0.44498 0.18632 0.0
C1655 C 0.61674 0.42089 0.19833 0.0
C1656 C 0.64238 0.43098 0.19498 0.0
H1657 H 0.74862 0.42629 0.18323 0.0
H1658 H 0.70712 0.41533 0.18307 0.0
H1659 H 0.68737 0.42218 0.2066 0.0
H1660 H 0.5776 0.39458 0.22994 0.0
H1661 H 0.61973 0.42021 0.22511 0.0
C1662 C 0.55294 0.30119 0.1831 0.0
C1663 C 0.52923 0.29537 0.18205 0.0
C1664 C 0.55891 0.28351 0.18295 0.0
C1665 C 0.56197 0.2442 0.19951 0.0
H1666 H 0.5379 0.18755 0.17276 0.0
C1667 C 0.58841 0.17571 0.21524 0.0
C1668 C 0.59759 0.16937 0.20167 0.0
C1669 C 0.5747 0.18635 0.21265 0.0
C1670 C 0.5447 0.20327 0.18036 0.0
H1671 H 0.49332 0.26688 0.17858 0.0
H1672 H 0.50376 0.23572 0.17837 0.0
H1673 H 0.52647 0.21712 0.16622 0.0
H1674 H 0.59731 0.16688 0.17477 0.0
H1675 H 0.57392 0.18575 0.17034 0.0
H1676 H 0.58076 0.23108 0.21334 0.0
C1677 C 0.51775 0.25397 0.17917 0.0
C1678 C 0.53809 0.22012 0.17664 0.0
C1679 C 0.51178 0.2718 0.17913 0.0
C1680 C 0.59085 0.17184 0.18554 0.0
C1681 C 0.57723 0.18254 0.18297 0.0
C1682 C 0.5685 0.22745 0.20324 0.0
C1683 C 0.54123 0.25963 0.182 0.0
C1684 C 0.54712 0.24101 0.18598 0.0
C1685 C 0.5699 0.19089 0.19646 0.0
C1686 C 0.56026 0.20693 0.19358 0.0
H1687 H 0.56667 0.31925 0.18541 0.0
H1688 H 0.57724 0.28843 0.18471 0.0
H1689 H 0.56876 0.25984 0.20721 0.0
H1690 H 0.59295 0.17377 0.22784 0.0
H1691 H 0.56882 0.19207 0.22333 0.0
C1692 C 0.24644 0.69078 0.80143 0.0
C1693 C 0.22883 0.69563 0.80664 0.0
C1694 C 0.27004 0.70853 0.80127 0.0
C1695 C 0.31373 0.7513 0.78933 0.0
H1696 H 0.34559 0.79862 0.8234 0.0
C1697 C 0.41149 0.81847 0.78183 0.0
C1698 C 0.42526 0.82093 0.79588 0.0
C1699 C 0.38701 0.80844 0.78325 0.0
C1700 C 0.33693 0.78553 0.81376 0.0
H1701 H 0.22206 0.72248 0.81655 0.0
H1702 H 0.2636 0.75387 0.81609 0.0
H1703 H 0.30392 0.76891 0.82685 0.0
H1704 H 0.42428 0.81682 0.82267 0.0
H1705 H 0.38182 0.79871 0.82502 0.0
H1706 H 0.34668 0.76678 0.77662 0.0
C1707 C 0.25911 0.73622 0.81229 0.0
C1708 C 0.31301 0.76863 0.81569 0.0
C1709 C 0.23538 0.71827 0.81263 0.0
C1710 C 0.41424 0.81496 0.81153 0.0
C1711 C 0.38978 0.80471 0.81291 0.0
C1712 C 0.33755 0.768 0.78745 0.0
C1713 C 0.27657 0.73168 0.80607 0.0
C1714 C 0.30134 0.75096 0.80368 0.0
C1715 C 0.37575 0.80042 0.79871 0.0
C1716 C 0.34963 0.78506 0.79978 0.0
H1717 H 0.24188 0.6734 0.79689 0.0
H1718 H 0.28312 0.70424 0.7969 0.0
H1719 H 0.30512 0.7383 0.77962 0.0
H1720 H 0.41941 0.82318 0.76961 0.0
H1721 H 0.37681 0.80601 0.77209 0.0
C1722 C 0.27466 0.5112 0.81596 0.0
C1723 C 0.29703 0.52734 0.80956 0.0
C1724 C 0.25681 0.51712 0.81656 0.0
C1725 C 0.2248 0.53924 0.8212 0.0
H1726 H 0.22386 0.57172 0.78117 0.0
C1727 C 0.17715 0.59306 0.8152 0.0
C1728 C 0.16969 0.59584 0.79941 0.0
C1729 C 0.1878 0.57929 0.81727 0.0
C1730 C 0.22348 0.56226 0.7923 0.0
H1731 H 0.319 0.56293 0.80022 0.0
H1732 H 0.28825 0.57344 0.80168 0.0
H1733 H 0.2531 0.55957 0.78417 0.0
H1734 H 0.16511 0.58411 0.7738 0.0
H1735 H 0.18314 0.55963 0.77751 0.0
H1736 H 0.19502 0.54206 0.82928 0.0
C1737 C 0.28416 0.556 0.80575 0.0
C1738 C 0.24056 0.55566 0.79415 0.0
C1739 C 0.30184 0.55006 0.80505 0.0
C1740 C 0.17099 0.58267 0.78609 0.0
C1741 C 0.18148 0.56875 0.78819 0.0
C1742 C 0.20759 0.54589 0.81935 0.0
C1743 C 0.2612 0.53928 0.81081 0.0
C1744 C 0.2418 0.5446 0.80875 0.0
C1745 C 0.19104 0.56783 0.80363 0.0
C1746 C 0.207 0.55783 0.80497 0.0
H1747 H 0.27047 0.4935 0.81939 0.0
H1748 H 0.23928 0.50392 0.82055 0.0
H1749 H 0.22527 0.53063 0.83255 0.0
H1750 H 0.17622 0.60274 0.82581 0.0
H1751 H 0.19498 0.57903 0.82933 0.0
C1752 C 0.44397 0.74455 0.7991 0.0
C1753 C 0.46496 0.76205 0.80639 0.0
C1754 C 0.43788 0.7209 0.79985 0.0
C1755 C 0.43905 0.67706 0.7914 0.0
H1756 H 0.44561 0.64484 0.82963 0.0
C1757 C 0.41026 0.57971 0.78611 0.0
C1758 C 0.39549 0.56562 0.79901 0.0
C1759 C 0.4244 0.6041 0.78817 0.0
C1760 C 0.44369 0.65361 0.81883 0.0
H1761 H 0.49549 0.76851 0.82093 0.0
H1762 H 0.48497 0.72689 0.82206 0.0
H1763 H 0.45696 0.68654 0.83176 0.0
H1764 H 0.3857 0.56583 0.82473 0.0
H1765 H 0.40961 0.60825 0.82812 0.0
H1766 H 0.42466 0.64423 0.77866 0.0
C1767 C 0.47312 0.73152 0.8159 0.0
C1768 C 0.45037 0.67753 0.82004 0.0
C1769 C 0.47912 0.75531 0.81529 0.0
C1770 C 0.39675 0.57615 0.81448 0.0
C1771 C 0.41063 0.60058 0.81647 0.0
C1772 C 0.43228 0.65325 0.79022 0.0
C1773 C 0.45281 0.71418 0.8077 0.0
C1774 C 0.44757 0.68935 0.80642 0.0
C1775 C 0.4238 0.61498 0.8031 0.0
C1776 C 0.43411 0.64105 0.80399 0.0
H1777 H 0.43257 0.74923 0.79232 0.0
H1778 H 0.42171 0.70792 0.79387 0.0
H1779 H 0.43721 0.68576 0.78053 0.0
H1780 H 0.40997 0.5721 0.77411 0.0
H1781 H 0.43491 0.61457 0.77777 0.0
C1782 C 0.48044 0.74632 0.51898 0.0
C1783 C 0.48772 0.75688 0.5347 0.0
C1784 C 0.46981 0.72186 0.51719 0.0
C1785 C 0.43419 0.66964 0.54281 0.0
H1786 H 0.43094 0.63577 0.50248 0.0
C1787 C 0.3545 0.57965 0.53058 0.0
C1788 C 0.35852 0.56157 0.52514 0.0
C1789 C 0.37258 0.60309 0.53017 0.0
C1790 C 0.43183 0.64495 0.51388 0.0
H1791 H 0.49216 0.75032 0.56046 0.0
H1792 H 0.47434 0.70776 0.55724 0.0
H1793 H 0.46171 0.6772 0.50551 0.0
H1794 H 0.38415 0.55385 0.51413 0.0
H1795 H 0.41609 0.59514 0.51354 0.0
H1796 H 0.40455 0.6376 0.55127 0.0
C1797 C 0.476 0.71828 0.5464 0.0
C1798 C 0.44934 0.66871 0.51558 0.0
C1799 C 0.48638 0.74272 0.54824 0.0
C1800 C 0.38056 0.56751 0.51827 0.0
C1801 C 0.39884 0.5911 0.518 0.0
C1802 C 0.41686 0.64602 0.54114 0.0
C1803 C 0.46648 0.70745 0.53104 0.0
C1804 C 0.4504 0.68146 0.52995 0.0
C1805 C 0.39521 0.60901 0.52451 0.0
C1806 C 0.41504 0.63357 0.52649 0.0
H1807 H 0.48139 0.75669 0.50822 0.0
H1808 H 0.46268 0.71421 0.50518 0.0
H1809 H 0.43414 0.67887 0.55396 0.0
H1810 H 0.33758 0.57557 0.53579 0.0
H1811 H 0.36901 0.61656 0.53481 0.0
C1812 C 0.24956 0.7476 0.54857 0.0
C1813 C 0.23458 0.73381 0.53565 0.0
C1814 C 0.27387 0.76137 0.54596 0.0
C1815 C 0.32178 0.78169 0.51403 0.0
H1816 H 0.35376 0.76853 0.54938 0.0
C1817 C 0.42295 0.81324 0.51606 0.0
C1818 C 0.42867 0.79694 0.52288 0.0
C1819 C 0.39942 0.8081 0.51571 0.0
C1820 C 0.34509 0.77228 0.53935 0.0
H1821 H 0.23313 0.72578 0.50938 0.0
H1822 H 0.27544 0.74916 0.50499 0.0
H1823 H 0.31283 0.75781 0.55286 0.0
H1824 H 0.41432 0.7618 0.53324 0.0
H1825 H 0.37343 0.7526 0.53218 0.0
H1826 H 0.35418 0.79526 0.5003 0.0
C1827 C 0.2685 0.74954 0.51711 0.0
C1828 C 0.32169 0.76653 0.54146 0.0
C1829 C 0.24416 0.73597 0.51968 0.0
C1830 C 0.41042 0.77477 0.52806 0.0
C1831 C 0.38703 0.7696 0.5276 0.0
C1832 C 0.34536 0.78746 0.51191 0.0
C1833 C 0.28374 0.76144 0.53043 0.0
C1834 C 0.30956 0.77077 0.52875 0.0
C1835 C 0.38137 0.78657 0.52211 0.0
C1836 C 0.35702 0.78225 0.52442 0.0
H1837 H 0.24273 0.74667 0.56096 0.0
H1838 H 0.28507 0.77089 0.55637 0.0
H1839 H 0.313 0.78535 0.50405 0.0
H1840 H 0.43675 0.83054 0.51211 0.0
H1841 H 0.39554 0.82148 0.51137 0.0
C1842 C 0.25684 0.51101 0.51857 0.0
C1843 C 0.25929 0.50314 0.5343 0.0
C1844 C 0.24362 0.52229 0.51663 0.0
C1845 C 0.22795 0.55865 0.54208 0.0
H1846 H 0.19741 0.56259 0.50191 0.0
C1847 C 0.21822 0.63885 0.53052 0.0
C1848 C 0.19584 0.63476 0.52575 0.0
C1849 C 0.22362 0.6208 0.52966 0.0
C1850 C 0.20573 0.56153 0.51325 0.0
H1851 H 0.24743 0.49838 0.55988 0.0
H1852 H 0.22387 0.51744 0.55639 0.0
H1853 H 0.20757 0.53138 0.50476 0.0
H1854 H 0.16206 0.60908 0.5153 0.0
H1855 H 0.17153 0.57726 0.51386 0.0
H1856 H 0.22617 0.5886 0.55063 0.0
C1857 C 0.23286 0.51566 0.54567 0.0
C1858 C 0.21165 0.54377 0.51486 0.0
C1859 C 0.24624 0.50458 0.54765 0.0
C1860 C 0.17952 0.61274 0.51895 0.0
C1861 C 0.1849 0.59452 0.51819 0.0
C1862 C 0.22205 0.57628 0.54048 0.0
C1863 C 0.23239 0.52572 0.53034 0.0
C1864 C 0.22318 0.54237 0.52921 0.0
C1865 C 0.20669 0.59817 0.52415 0.0
C1866 C 0.21138 0.57829 0.52592 0.0
H1867 H 0.26645 0.51001 0.50795 0.0
H1868 H 0.24369 0.52982 0.50465 0.0
H1869 H 0.23713 0.55843 0.5532 0.0
H1870 H 0.23123 0.65573 0.53565 0.0
H1871 H 0.24081 0.62435 0.5339 0.0
C1872 C 0.15932 0.1995 0.05848 0.0
C1873 C 0.17701 0.20531 0.0704 0.0
C1874 C 0.16466 0.20108 0.04161 0.0
C1875 C 0.21303 0.21992 0.01037 0.0
H1876 H 0.16558 0.16338 0.98816 0.0
C1877 C 0.21128 0.2018 0.93934 0.0
C1878 C 0.20087 0.17808 0.93437 0.0
C1879 C 0.21249 0.20753 0.9562 0.0
C1880 C 0.17922 0.17913 0.99418 0.0
H1881 H 0.21441 0.21885 0.07414 0.0
H1882 H 0.22374 0.22108 0.04459 0.0
H1883 H 0.15919 0.17079 0.01649 0.0
H1884 H 0.18578 0.14202 0.94299 0.0
H1885 H 0.18892 0.15201 0.97232 0.0
H1886 H 0.23332 0.22771 0.98793 0.0
C1887 C 0.20581 0.21574 0.04822 0.0
C1888 C 0.17531 0.18366 0.0104 0.0
C1889 C 0.2005 0.21454 0.06517 0.0
C1890 C 0.19375 0.16044 0.94651 0.0
C1891 C 0.19531 0.16617 0.9633 0.0
C1892 C 0.217 0.21531 0.99403 0.0
C1893 C 0.18772 0.20795 0.03629 0.0
C1894 C 0.19206 0.20413 0.01872 0.0
C1895 C 0.20353 0.18962 0.96832 0.0
C1896 C 0.20016 0.19475 0.98579 0.0
H1897 H 0.14108 0.1924 0.06222 0.0
H1898 H 0.15042 0.19564 0.03275 0.0
H1899 H 0.22629 0.23586 0.01642 0.0
H1900 H 0.21668 0.21572 0.9302 0.0
H1901 H 0.21891 0.22577 0.95962 0.0
C1902 C 0.80479 0.01316 0.93798 0.0
C1903 C 0.82844 0.03106 0.93575 0.0
C1904 C 0.79487 0.00746 0.95384 0.0
C1905 C 0.8035 0.02576 0.99807 0.0
H1906 H 0.77879 0.95901 0.00645 0.0
C1907 C 0.78127 0.98658 0.06428 0.0
C1908 C 0.79391 0.97507 0.06831 0.0
C1909 C 0.77909 0.99167 0.04771 0.0
C1910 C 0.78536 0.97762 0.00427 0.0
H1911 H 0.85936 0.05853 0.94829 0.0
H1912 H 0.84199 0.04864 0.97594 0.0
H1913 H 0.78722 0.97386 0.97807 0.0
H1914 H 0.81277 0.95847 0.05823 0.0
H1915 H 0.80839 0.9667 0.02937 0.0
H1916 H 0.80262 0.02959 0.02443 0.0
C1917 C 0.83116 0.03895 0.96542 0.0
C1918 C 0.79003 0.98613 0.98801 0.0
C1919 C 0.84115 0.04461 0.94954 0.0
C1920 C 0.80284 0.96727 0.05546 0.0
C1921 C 0.8003 0.97196 0.03894 0.0
C1922 C 0.79858 0.01719 0.01435 0.0
C1923 C 0.80829 0.01964 0.9678 0.0
C1924 C 0.79979 0.0104 0.98476 0.0
C1925 C 0.7891 0.98489 0.03492 0.0
C1926 C 0.79013 0.99314 0.01764 0.0
H1927 H 0.79437 0.00251 0.92762 0.0
H1928 H 0.77706 0.99276 0.95526 0.0
H1929 H 0.81088 0.04451 0.99593 0.0
H1930 H 0.77444 0.99304 0.07396 0.0
H1931 H 0.77029 0.00157 0.04492 0.0
C1932 C 0.96101 0.79599 0.94485 0.0
C1933 C 0.97232 0.78956 0.93287 0.0
C1934 C 0.96486 0.79441 0.9617 0.0
C1935 C 0.99322 0.7742 0.99285 0.0
H1936 H 0.00421 0.8314 0.0151 0.0
C1937 C 0.00912 0.79168 0.06397 0.0
C1938 C 0.02293 0.81531 0.06903 0.0
C1939 C 0.00478 0.78611 0.04707 0.0
C1940 C 0.00158 0.81546 0.00907 0.0
H1941 H 0.99526 0.77494 0.92903 0.0
H1942 H 0.00251 0.77268 0.95856 0.0
H1943 H 0.99054 0.82445 0.98674 0.0
H1944 H 0.04493 0.85129 0.06055 0.0
H1945 H 0.03841 0.84155 0.03117 0.0
H1946 H 0.00501 0.76569 0.01533 0.0
C1947 C 0.9903 0.77854 0.95497 0.0
C1948 C 0.99321 0.81121 0.99283 0.0
C1949 C 0.98611 0.77976 0.93804 0.0
C1950 C 0.03412 0.83295 0.05695 0.0
C1951 C 0.03013 0.82736 0.04014 0.0
C1952 C 0.00171 0.77851 0.00922 0.0
C1953 C 0.98057 0.7869 0.96695 0.0
C1954 C 0.98879 0.79051 0.9845 0.0
C1955 C 0.0144 0.80408 0.03501 0.0
C1956 C 0.00609 0.79929 0.01748 0.0
H1957 H 0.95022 0.80352 0.94116 0.0
H1958 H 0.95649 0.80031 0.9706 0.0
H1959 H 0.98998 0.75806 0.9868 0.0
H1960 H 6e-05 0.77778 0.07305 0.0
H1961 H 0.99257 0.76801 0.04357 0.0
C1962 C 0.82964 0.49782 0.27667 0.0
C1963 C 0.84794 0.50443 0.26506 0.0
C1964 C 0.83439 0.50682 0.29271 0.0
C1965 C 0.8795 0.53082 0.32469 0.0
H1966 H 0.83343 0.54349 0.3455 0.0
C1967 C 0.84445 0.54236 0.39378 0.0
C1968 C 0.84433 0.52292 0.40131 0.0
C1969 C 0.85182 0.54823 0.37726 0.0
C1970 C 0.84687 0.54064 0.33991 0.0
H1971 H 0.8858 0.52549 0.26138 0.0
H1972 H 0.89422 0.54117 0.28984 0.0
H1973 H 0.83298 0.53871 0.31559 0.0
H1974 H 0.85361 0.4956 0.39789 0.0
H1975 H 0.86596 0.50548 0.36935 0.0
H1976 H 0.89298 0.53213 0.34912 0.0
C1977 C 0.87612 0.52904 0.28629 0.0
C1978 C 0.84642 0.5376 0.32275 0.0
C1979 C 0.87132 0.52003 0.27005 0.0
C1980 C 0.85317 0.51051 0.3924 0.0
C1981 C 0.86059 0.5164 0.37603 0.0
C1982 C 0.88003 0.53398 0.34189 0.0
C1983 C 0.8576 0.52272 0.2977 0.0
C1984 C 0.86193 0.53147 0.31507 0.0
C1985 C 0.85938 0.53488 0.36806 0.0
C1986 C 0.86296 0.53776 0.34978 0.0
H1987 H 0.81144 0.48565 0.27342 0.0
H1988 H 0.81978 0.50101 0.30131 0.0
H1989 H 0.89177 0.52625 0.31913 0.0
H1990 H 0.83788 0.55235 0.40038 0.0
H1991 H 0.85089 0.56273 0.37152 0.0
C1992 C 0.4847 0.35722 0.27463 0.0
C1993 C 0.48876 0.34038 0.26671 0.0
C1994 C 0.47813 0.3545 0.29145 0.0
C1995 C 0.48805 0.32992 0.3285 0.0
H1996 H 0.43254 0.32647 0.34867 0.0
C1997 C 0.46494 0.29726 0.39435 0.0
C1998 C 0.46014 0.31099 0.4053 0.0
C1999 C 0.4642 0.30003 0.37727 0.0
C2000 C 0.44822 0.32763 0.3432 0.0
H2001 H 0.48731 0.30664 0.26993 0.0
H2002 H 0.47631 0.30226 0.29891 0.0
H2003 H 0.43998 0.33485 0.31877 0.0
H2004 H 0.44926 0.33724 0.4071 0.0
H2005 H 0.44833 0.34243 0.37702 0.0
H2006 H 0.49662 0.32289 0.35254 0.0
C2007 C 0.47847 0.31765 0.29228 0.0
C2008 C 0.45248 0.33249 0.32617 0.0
C2009 C 0.48487 0.32026 0.27565 0.0
C2010 C 0.45275 0.32623 0.39888 0.0
C2011 C 0.45233 0.32928 0.38167 0.0
C2012 C 0.48392 0.32523 0.34537 0.0
C2013 C 0.47564 0.33497 0.30047 0.0
C2014 C 0.47217 0.33308 0.31866 0.0
C2015 C 0.45916 0.31698 0.37074 0.0
C2016 C 0.46364 0.32336 0.35287 0.0
H2017 H 0.4874 0.37282 0.26803 0.0
H2018 H 0.47601 0.36808 0.29757 0.0
H2019 H 0.50357 0.33067 0.32303 0.0
H2020 H 0.47063 0.28536 0.39902 0.0
H2021 H 0.46887 0.28977 0.36916 0.0
C2022 C 0.66946 0.12551 0.39825 0.0
C2023 C 0.68086 0.14951 0.40269 0.0
C2024 C 0.66484 0.11882 0.38155 0.0
C2025 C 0.68036 0.14057 0.33851 0.0
H2026 H 0.6139 0.09901 0.32889 0.0
C2027 C 0.64724 0.12461 0.27149 0.0
C2028 C 0.62917 0.12999 0.26875 0.0
C2029 C 0.65255 0.12066 0.28754 0.0
C2030 C 0.63254 0.11045 0.33139 0.0
H2031 H 0.69768 0.1853 0.39319 0.0
H2032 H 0.69027 0.17369 0.36411 0.0
H2033 H 0.62771 0.10509 0.35766 0.0
H2034 H 0.6011 0.13317 0.28061 0.0
H2035 H 0.61031 0.12611 0.30861 0.0
H2036 H 0.68512 0.14677 0.31238 0.0
C2037 C 0.68474 0.16002 0.37347 0.0
C2038 C 0.64048 0.11378 0.34782 0.0
C2039 C 0.68897 0.16668 0.39012 0.0
C2040 C 0.61516 0.12916 0.28226 0.0
C2041 C 0.62042 0.12507 0.29833 0.0
C2042 C 0.67249 0.13706 0.32209 0.0
C2043 C 0.67197 0.13604 0.36903 0.0
C2044 C 0.66436 0.12939 0.35157 0.0
C2045 C 0.63981 0.12178 0.3012 0.0
C2046 C 0.64839 0.12245 0.31837 0.0
H2047 H 0.66277 0.1119 0.4077 0.0
H2048 H 0.65506 0.10022 0.37844 0.0
H2049 H 0.69886 0.15264 0.34104 0.0
H2050 H 0.65826 0.12487 0.26137 0.0
H2051 H 0.66734 0.11777 0.28934 0.0
C2052 C 0.54412 0.86976 0.60148 0.0
C2053 C 0.53158 0.84569 0.59725 0.0
C2054 C 0.54673 0.87671 0.61815 0.0
C2055 C 0.54164 0.85547 0.66132 0.0
H2056 H 0.51583 0.89623 0.67105 0.0
C2057 C 0.52233 0.86903 0.72829 0.0
C2058 C 0.49872 0.86328 0.73071 0.0
C2059 C 0.5322 0.8738 0.7124 0.0
C2060 C 0.5233 0.88503 0.66852 0.0
H2061 H 0.51339 0.81004 0.60704 0.0
H2062 H 0.5185 0.82209 0.63604 0.0
H2063 H 0.52378 0.89046 0.64227 0.0
H2064 H 0.46779 0.86035 0.71851 0.0
H2065 H 0.48505 0.86874 0.69082 0.0
H2066 H 0.54011 0.84906 0.68741 0.0
C2067 C 0.52619 0.83563 0.62657 0.0
C2068 C 0.52805 0.88189 0.65208 0.0
C2069 C 0.52322 0.82872 0.60996 0.0
C2070 C 0.48598 0.86462 0.71711 0.0
C2071 C 0.49591 0.86949 0.70121 0.0
C2072 C 0.53711 0.85877 0.67774 0.0
C2073 C 0.53726 0.85967 0.63083 0.0
C2074 C 0.53657 0.86649 0.64828 0.0
C2075 C 0.51877 0.8731 0.6986 0.0
C2076 C 0.52722 0.87303 0.68149 0.0
H2077 H 0.55051 0.88321 0.59192 0.0
H2078 H 0.55543 0.89535 0.62112 0.0
H2079 H 0.54828 0.84357 0.65875 0.0
H2080 H 0.53278 0.86843 0.7385 0.0
H2081 H 0.55 0.87694 0.71082 0.0
C2082 C 0.16808 0.69844 0.61406 0.0
C2083 C 0.15055 0.68953 0.60177 0.0
C2084 C 0.16199 0.69369 0.63077 0.0
C2085 C 0.11227 0.66797 0.66111 0.0
H2086 H 0.15361 0.65001 0.68321 0.0
C2087 C 0.1116 0.65064 0.73202 0.0
C2088 C 0.11958 0.6353 0.73715 0.0
C2089 C 0.11058 0.65497 0.7151 0.0
C2090 C 0.14159 0.65456 0.6772 0.0
H2091 H 0.11281 0.67002 0.59733 0.0
H2092 H 0.10212 0.66121 0.62658 0.0
H2093 H 0.1621 0.6645 0.65505 0.0
H2094 H 0.13037 0.61064 0.72884 0.0
H2095 H 0.12732 0.61708 0.6994 0.0
H2096 H 0.09146 0.65735 0.6834 0.0
C2097 C 0.12057 0.67219 0.62334 0.0
C2098 C 0.14678 0.66339 0.6611 0.0
C2099 C 0.12668 0.67727 0.60657 0.0
C2100 C 0.12419 0.62258 0.72517 0.0
C2101 C 0.12275 0.62654 0.70832 0.0
C2102 C 0.107 0.65899 0.67733 0.0
C2103 C 0.13824 0.6795 0.63556 0.0
C2104 C 0.13236 0.67043 0.65286 0.0
C2105 C 0.11729 0.6438 0.70309 0.0
C2106 C 0.12163 0.65216 0.68556 0.0
H2107 H 0.18661 0.70809 0.6107 0.0
H2108 H 0.17602 0.70023 0.63989 0.0
H2109 H 0.10079 0.67323 0.65512 0.0
H2110 H 0.10827 0.66092 0.74104 0.0
H2111 H 0.10633 0.66839 0.71154 0.0
C2112 C 0.31407 0.4461 0.60247 0.0
C2113 C 0.29983 0.4554 0.59733 0.0
C2114 C 0.31822 0.44483 0.6194 0.0
C2115 C 0.3197 0.47651 0.65748 0.0
H2116 H 0.33379 0.43226 0.6795 0.0
C2117 C 0.3611 0.49875 0.72152 0.0
C2118 C 0.35081 0.48083 0.7335 0.0
C2119 C 0.35689 0.49336 0.70469 0.0
C2120 C 0.32982 0.44471 0.67353 0.0
H2121 H 0.27693 0.46839 0.60564 0.0
H2122 H 0.28306 0.46498 0.63507 0.0
H2123 H 0.3187 0.42449 0.651 0.0
H2124 H 0.32931 0.44306 0.73729 0.0
H2125 H 0.32141 0.43362 0.7078 0.0
H2126 H 0.33007 0.49644 0.67988 0.0
C2127 C 0.29183 0.45956 0.62616 0.0
C2128 C 0.32131 0.44033 0.65718 0.0
C2129 C 0.28805 0.46124 0.60932 0.0
C2130 C 0.33764 0.4572 0.72828 0.0
C2131 C 0.33308 0.45181 0.71138 0.0
C2132 C 0.32806 0.48081 0.67372 0.0
C2133 C 0.30798 0.4526 0.6314 0.0
C2134 C 0.31609 0.45619 0.64898 0.0
C2135 C 0.34184 0.46997 0.69945 0.0
C2136 C 0.33342 0.46511 0.68195 0.0
H2137 H 0.3236 0.44177 0.59345 0.0
H2138 H 0.33078 0.43941 0.62297 0.0
H2139 H 0.31642 0.48944 0.65151 0.0
H2140 H 0.37145 0.5171 0.72522 0.0
H2141 H 0.36454 0.50772 0.69581 0.0
loop_
_geom_bond_atom_site_label_1
_geom_bond_atom_site_label_2
_geom_bond_distance
_geom_bond_site_symmetry_2
_ccdc_geom_bond_type
Co0 O2 2.143 . S
Co0 O8 2.074 . S
Co0 O11 2.093 . S
Co0 O24 2.097 . S
Co0 N41 2.151 . S
Co0 N49 2.214 . S
Co1 O2 2.160 . S
Co1 O7 2.058 . S
Co1 O17 2.057 . S
Co1 O32 2.037 . S
Co1 N36 2.145 . S
Co1 N57 2.257 . S
O2 Co0 2.143 . S
O2 Co1 2.160 . S
C3 O4 1.278 . S
C3 O11 1.224 . S
O4 C3 1.278 . S
C5 O6 1.245 . S
C5 O17 1.232 . S
O6 C5 1.245 . S
O7 Co1 2.058 . S
O7 C33 1.269 . S
O8 Co0 2.074 . S
O8 C33 1.257 . S
H9 C34 0.930 . S
H10 C40 0.930 . S
O11 Co0 2.093 . S
O11 C3 1.224 . S
H12 C44 0.929 . S
H13 C46 0.930 . S
H14 C47 0.930 . S
H15 C45 0.929 . S
H16 C48 0.928 . S
O17 Co1 2.057 . S
O17 C5 1.232 . S
H18 C37 0.929 . S
H19 C38 0.929 . S
H20 C50 0.931 . S
H21 C42 0.929 . S
H22 C51 0.930 . S
H23 C43 0.931 . S
O24 Co0 2.097 . S
O24 C52 1.214 . S
H25 C53 0.929 . S
H26 C54 0.929 . S
H27 C55 0.930 . S
H28 C56 0.929 . S
H29 C58 0.930 . S
H30 C35 0.930 . S
H31 C39 0.930 . S
O32 Co1 2.037 . S
O32 C52 1.234 . S
C33 O7 1.269 . S
C33 O8 1.257 . S
C34 H9 0.930 . S
C34 C37 1.388 . S
C34 C39 1.418 . S
C35 H30 0.930 . S
C35 C38 1.404 . S
C35 C39 1.353 . S
N36 Co1 2.145 . S
N36 C37 1.397 . S
N36 C38 1.334 . S
C37 H18 0.929 . S
C37 C34 1.388 . S
C37 N36 1.397 . S
C38 H19 0.929 . S
C38 C35 1.404 . S
C38 N36 1.334 . S
C39 H31 0.930 . S
C39 C34 1.418 . S
C39 C35 1.353 . S
C40 H10 0.930 . S
C40 N41 1.330 . S
C40 C42 1.446 . S
N41 Co0 2.151 . S
N41 C40 1.330 . S
N41 C45 1.418 . S
C42 H21 0.929 . S
C42 C40 1.446 . S
C42 C43 1.332 . S
C43 H23 0.931 . S
C43 C42 1.332 . S
C43 C44 1.267 . S
C44 H12 0.929 . S
C44 C43 1.267 . S
C44 C45 1.251 . S
C45 H15 0.929 . S
C45 N41 1.418 . S
C45 C44 1.251 . S
C46 H13 0.930 . S
C46 C48 1.406 . S
C46 C51 1.261 . S
C47 H14 0.930 . S
C47 N49 1.325 . S
C47 C50 1.357 . S
C48 H16 0.928 . S
C48 C46 1.406 . S
C48 N49 1.261 . S
N49 Co0 2.214 . S
N49 C47 1.325 . S
N49 C48 1.261 . S
C50 H20 0.931 . S
C50 C47 1.357 . S
C50 C51 1.312 . S
C51 H22 0.930 . S
C51 C46 1.261 . S
C51 C50 1.312 . S
C52 O24 1.214 . S
C52 O32 1.234 . S
C53 H25 0.929 . S
C53 C56 1.391 . S
C53 C58 1.391 . S
C54 H26 0.929 . S
C54 C55 1.390 . S
C54 N57 1.391 . S
C55 H27 0.930 . S
C55 C54 1.390 . S
C55 C56 1.392 . S
C56 H28 0.929 . S
C56 C53 1.391 . S
C56 C55 1.392 . S
N57 Co1 2.257 . S
N57 C54 1.391 . S
N57 C58 1.388 . S
C58 H29 0.930 . S
C58 C53 1.391 . S
C58 N57 1.388 . S
Co59 O61 2.143 . S
Co59 O67 2.074 . S
Co59 O70 2.093 1_545 S
Co59 O83 2.097 1_545 S
Co59 N100 2.151 . S
Co59 N108 2.214 . S
Co60 O61 2.160 1_565 S
Co60 O66 2.058 1_565 S
Co60 O76 2.057 1_565 S
Co60 O91 2.037 . S
Co60 N95 2.145 . S
Co60 N116 2.257 . S
O61 Co59 2.143 . S
O61 Co60 2.160 1_545 S
C62 O63 1.278 . S
C62 O70 1.224 . S
O63 C62 1.278 . S
C64 O65 1.245 . S
C64 O76 1.232 . S
O65 C64 1.245 . S
O66 Co60 2.058 1_545 S
O66 C92 1.269 . S
O67 Co59 2.074 . S
O67 C92 1.257 . S
H68 C93 0.930 . S
H69 C99 0.930 . S
O70 Co59 2.093 1_565 S
O70 C62 1.224 . S
H71 C103 0.929 . S
H72 C105 0.930 . S
H73 C106 0.931 . S
H74 C104 0.929 . S
H75 C107 0.928 . S
O76 Co60 2.057 1_545 S
O76 C64 1.232 . S
H77 C96 0.929 . S
H78 C97 0.929 . S
H79 C109 0.925 1_565 S
H80 C101 0.929 . S
H81 C110 0.930 . S
H82 C102 0.931 . S
O83 Co59 2.097 1_565 S
O83 C111 1.214 . S
H84 C112 0.929 . S
H85 C113 0.929 . S
H86 C114 0.930 . S
H87 C115 0.929 . S
H88 C117 0.930 . S
H89 C94 0.930 . S
H90 C98 0.930 . S
O91 Co60 2.037 . S
O91 C111 1.234 . S
C92 O66 1.269 . S
C92 O67 1.257 . S
C93 H68 0.930 . S
C93 C96 1.388 . S
C93 C98 1.418 . S
C94 H89 0.930 . S
C94 C97 1.404 . S
C94 C98 1.353 . S
N95 Co60 2.145 . S
N95 C96 1.397 . S
N95 C97 1.334 . S
C96 H77 0.929 . S
C96 C93 1.388 . S
C96 N95 1.397 . S
C97 H78 0.929 . S
C97 C94 1.404 . S
C97 N95 1.334 . S
C98 H90 0.930 . S
C98 C93 1.418 . S
C98 C94 1.353 . S
C99 H69 0.930 . S
C99 N100 1.330 . S
C99 C101 1.446 . S
N100 Co59 2.151 . S
N100 C99 1.330 . S
N100 C104 1.418 . S
C101 H80 0.929 . S
C101 C99 1.446 . S
C101 C102 1.332 . S
C102 H82 0.931 . S
C102 C101 1.332 . S
C102 C103 1.267 . S
C103 H71 0.929 . S
C103 C102 1.267 . S
C103 C104 1.251 . S
C104 H74 0.929 . S
C104 N100 1.418 . S
C104 C103 1.251 . S
C105 H72 0.930 . S
C105 C107 1.406 . S
C105 C110 1.261 . S
C106 H73 0.931 . S
C106 N108 1.322 1_565 S
C106 C109 1.364 1_565 S
C107 H75 0.928 . S
C107 C105 1.406 . S
C107 N108 1.261 . S
N108 Co59 2.214 . S
N108 C106 1.322 1_545 S
N108 C107 1.261 . S
C109 H79 0.925 1_545 S
C109 C106 1.364 1_545 S
C109 C110 1.314 . S
C110 H81 0.930 . S
C110 C105 1.261 . S
C110 C109 1.314 . S
C111 O83 1.214 . S
C111 O91 1.234 . S
C112 H84 0.929 . S
C112 C115 1.391 . S
C112 C117 1.391 . S
C113 H85 0.929 . S
C113 C114 1.390 . S
C113 N116 1.391 . S
C114 H86 0.930 . S
C114 C113 1.390 . S
C114 C115 1.392 . S
C115 H87 0.929 . S
C115 C112 1.391 . S
C115 C114 1.392 . S
N116 Co60 2.257 . S
N116 C113 1.391 . S
N116 C117 1.388 . S
C117 H88 0.930 . S
C117 C112 1.391 . S
C117 N116 1.388 . S
Co118 O120 2.143 . S
Co118 O126 2.074 . S
Co118 O129 2.093 1_655 S
Co118 O142 2.097 1_655 S
Co118 N159 2.151 . S
Co118 N167 2.214 . S
Co119 O120 2.160 . S
Co119 O125 2.058 . S
Co119 O135 2.057 . S
Co119 O150 2.037 1_655 S
Co119 N154 2.145 1_655 S
Co119 N175 2.257 1_655 S
O120 Co118 2.143 . S
O120 Co119 2.160 . S
C121 O122 1.278 . S
C121 O129 1.224 . S
O122 C121 1.278 . S
C123 O124 1.245 . S
C123 O135 1.232 . S
O124 C123 1.245 . S
O125 Co119 2.058 . S
O125 C151 1.269 . S
O126 Co118 2.074 . S
O126 C151 1.257 . S
H127 C152 0.930 . S
H128 C158 0.930 . S
O129 Co118 2.093 1_455 S
O129 C121 1.224 . S
H130 C162 0.929 . S
H131 C164 0.930 . S
H132 C165 0.938 . S
H133 C163 0.929 . S
H134 C166 0.928 . S
O135 Co119 2.057 . S
O135 C123 1.232 . S
H136 C155 0.929 . S
H137 C156 0.930 1_655 S
H138 C168 0.931 . S
H139 C160 0.929 . S
H140 C169 0.930 . S
H141 C161 0.931 . S
O142 Co118 2.097 1_455 S
O142 C170 1.214 . S
H143 C171 0.929 . S
H144 C172 0.929 . S
H145 C173 0.930 . S
H146 C174 0.929 . S
H147 C176 0.930 . S
H148 C153 0.930 . S
H149 C157 0.930 . S
O150 Co119 2.037 1_455 S
O150 C170 1.234 . S
C151 O125 1.269 . S
C151 O126 1.257 . S
C152 H127 0.930 . S
C152 C155 1.388 . S
C152 C157 1.418 . S
C153 H148 0.930 . S
C153 C156 1.404 . S
C153 C157 1.353 . S
N154 Co119 2.145 1_455 S
N154 C155 1.397 . S
N154 C156 1.334 . S
C155 H136 0.929 . S
C155 C152 1.388 . S
C155 N154 1.397 . S
C156 H137 0.930 1_455 S
C156 C153 1.404 . S
C156 N154 1.334 . S
C157 H149 0.930 . S
C157 C152 1.418 . S
C157 C153 1.353 . S
C158 H128 0.930 . S
C158 N159 1.330 . S
C158 C160 1.446 . S
N159 Co118 2.151 . S
N159 C158 1.330 . S
N159 C163 1.418 . S
C160 H139 0.929 . S
C160 C158 1.446 . S
C160 C161 1.332 . S
C161 H141 0.931 . S
C161 C160 1.332 . S
C161 C162 1.267 . S
C162 H130 0.929 . S
C162 C161 1.267 . S
C162 C163 1.251 . S
C163 H133 0.929 . S
C163 N159 1.418 . S
C163 C162 1.251 . S
C164 H131 0.930 . S
C164 C166 1.406 . S
C164 C169 1.261 . S
C165 H132 0.938 . S
C165 N167 1.325 . S
C165 C168 1.357 . S
C166 H134 0.928 . S
C166 C164 1.406 . S
C166 N167 1.261 . S
N167 Co118 2.214 . S
N167 C165 1.325 . S
N167 C166 1.261 . S
C168 H138 0.931 . S
C168 C165 1.357 . S
C168 C169 1.312 . S
C169 H140 0.930 . S
C169 C164 1.261 . S
C169 C168 1.312 . S
C170 O142 1.214 . S
C170 O150 1.234 . S
C171 H143 0.929 . S
C171 C174 1.391 . S
C171 C176 1.391 . S
C172 H144 0.929 . S
C172 C173 1.390 . S
C172 N175 1.391 . S
C173 H145 0.930 . S
C173 C172 1.390 . S
C173 C174 1.392 . S
C174 H146 0.929 . S
C174 C171 1.391 . S
C174 C173 1.392 . S
N175 Co119 2.257 1_455 S
N175 C172 1.391 . S
N175 C176 1.388 . S
C176 H147 0.930 . S
C176 C171 1.391 . S
C176 N175 1.388 . S
Co177 O179 2.143 . S
Co177 O185 2.074 . S
Co177 O188 2.093 . S
Co177 O201 2.097 . S
Co177 N218 2.151 . S
Co177 N226 2.214 . S
Co178 O179 2.160 . S
Co178 O184 2.058 . S
Co178 O194 2.057 . S
Co178 O209 2.037 . S
Co178 N213 2.145 . S
Co178 N234 2.257 . S
O179 Co177 2.143 . S
O179 Co178 2.160 . S
C180 O181 1.278 . S
C180 O188 1.224 . S
O181 C180 1.278 . S
C182 O183 1.245 . S
C182 O194 1.232 . S
O183 C182 1.245 . S
O184 Co178 2.058 . S
O184 C210 1.269 . S
O185 Co177 2.074 . S
O185 C210 1.257 . S
H186 C211 0.930 . S
H187 C217 0.930 . S
O188 Co177 2.093 . S
O188 C180 1.224 . S
H189 C221 0.929 . S
H190 C223 0.930 . S
H191 C224 0.930 . S
H192 C222 0.929 . S
H193 C225 0.928 . S
O194 Co178 2.057 . S
O194 C182 1.232 . S
H195 C214 0.929 . S
H196 C215 0.929 . S
H197 C227 0.931 . S
H198 C219 0.929 . S
H199 C228 0.930 . S
H200 C220 0.931 . S
O201 Co177 2.097 . S
O201 C229 1.214 . S
H202 C230 0.929 . S
H203 C231 0.929 . S
H204 C232 0.930 . S
H205 C233 0.929 . S
H206 C235 0.930 . S
H207 C212 0.930 . S
H208 C216 0.930 . S
O209 Co178 2.037 . S
O209 C229 1.234 . S
C210 O184 1.269 . S
C210 O185 1.257 . S
C211 H186 0.930 . S
C211 C214 1.388 . S
C211 C216 1.418 . S
C212 H207 0.930 . S
C212 C215 1.404 . S
C212 C216 1.353 . S
N213 Co178 2.145 . S
N213 C214 1.397 . S
N213 C215 1.334 . S
C214 H195 0.929 . S
C214 C211 1.388 . S
C214 N213 1.397 . S
C215 H196 0.929 . S
C215 C212 1.404 . S
C215 N213 1.334 . S
C216 H208 0.930 . S
C216 C211 1.418 . S
C216 C212 1.353 . S
C217 H187 0.930 . S
C217 N218 1.330 . S
C217 C219 1.446 . S
N218 Co177 2.151 . S
N218 C217 1.330 . S
N218 C222 1.418 . S
C219 H198 0.929 . S
C219 C217 1.446 . S
C219 C220 1.332 . S
C220 H200 0.931 . S
C220 C219 1.332 . S
C220 C221 1.267 . S
C221 H189 0.929 . S
C221 C220 1.267 . S
C221 C222 1.251 . S
C222 H192 0.929 . S
C222 N218 1.418 . S
C222 C221 1.251 . S
C223 H190 0.930 . S
C223 C225 1.406 . S
C223 C228 1.261 . S
C224 H191 0.930 . S
C224 N226 1.325 . S
C224 C227 1.357 . S
C225 H193 0.928 . S
C225 C223 1.406 . S
C225 N226 1.261 . S
N226 Co177 2.214 . S
N226 C224 1.325 . S
N226 C225 1.261 . S
C227 H197 0.931 . S
C227 C224 1.357 . S
C227 C228 1.312 . S
C228 H199 0.930 . S
C228 C223 1.261 . S
C228 C227 1.312 . S
C229 O201 1.214 . S
C229 O209 1.234 . S
C230 H202 0.929 . S
C230 C233 1.391 . S
C230 C235 1.391 . S
C231 H203 0.929 . S
C231 C232 1.390 . S
C231 N234 1.391 . S
C232 H204 0.930 . S
C232 C231 1.390 . S
C232 C233 1.392 . S
C233 H205 0.929 . S
C233 C230 1.391 . S
C233 C232 1.392 . S
N234 Co178 2.257 . S
N234 C231 1.391 . S
N234 C235 1.388 . S
C235 H206 0.930 . S
C235 C230 1.391 . S
C235 N234 1.388 . S
Co236 O238 2.143 . S
Co236 O244 2.074 . S
Co236 O247 2.093 1_565 S
Co236 O260 2.097 1_565 S
Co236 N277 2.151 . S
Co236 N285 2.214 . S
Co237 O238 2.160 . S
Co237 O243 2.058 . S
Co237 O253 2.057 . S
Co237 O268 2.037 1_565 S
Co237 N272 2.145 1_565 S
Co237 N293 2.257 1_565 S
O238 Co236 2.143 . S
O238 Co237 2.160 . S
C239 O240 1.278 . S
C239 O247 1.224 . S
O240 C239 1.278 . S
C241 O242 1.245 . S
C241 O253 1.232 . S
O242 C241 1.245 . S
O243 Co237 2.058 . S
O243 C269 1.269 . S
O244 Co236 2.074 . S
O244 C269 1.257 . S
H245 C270 0.930 . S
H246 C276 0.930 . S
O247 Co236 2.093 1_545 S
O247 C239 1.224 . S
H248 C280 0.929 . S
H249 C282 0.930 . S
H250 C283 0.938 . S
H251 C281 0.929 . S
H252 C284 0.928 . S
O253 Co237 2.057 . S
O253 C241 1.232 . S
H254 C273 0.929 . S
H255 C274 0.930 1_565 S
H256 C286 0.931 . S
H257 C278 0.929 . S
H258 C287 0.930 . S
H259 C279 0.931 . S
O260 Co236 2.097 1_545 S
O260 C288 1.214 . S
H261 C289 0.929 . S
H262 C290 0.929 . S
H263 C291 0.930 . S
H264 C292 0.929 . S
H265 C294 0.930 . S
H266 C271 0.930 . S
H267 C275 0.930 . S
O268 Co237 2.037 1_545 S
O268 C288 1.234 . S
C269 O243 1.269 . S
C269 O244 1.257 . S
C270 H245 0.930 . S
C270 C273 1.388 . S
C270 C275 1.418 . S
C271 H266 0.930 . S
C271 C274 1.404 . S
C271 C275 1.353 . S
N272 Co237 2.145 1_545 S
N272 C273 1.397 . S
N272 C274 1.334 . S
C273 H254 0.929 . S
C273 C270 1.388 . S
C273 N272 1.397 . S
C274 H255 0.930 1_545 S
C274 C271 1.404 . S
C274 N272 1.334 . S
C275 H267 0.930 . S
C275 C270 1.418 . S
C275 C271 1.353 . S
C276 H246 0.930 . S
C276 N277 1.330 . S
C276 C278 1.446 . S
N277 Co236 2.151 . S
N277 C276 1.330 . S
N277 C281 1.418 . S
C278 H257 0.929 . S
C278 C276 1.446 . S
C278 C279 1.332 . S
C279 H259 0.931 . S
C279 C278 1.332 . S
C279 C280 1.267 . S
C280 H248 0.929 . S
C280 C279 1.267 . S
C280 C281 1.251 . S
C281 H251 0.929 . S
C281 N277 1.418 . S
C281 C280 1.251 . S
C282 H249 0.930 . S
C282 C284 1.406 . S
C282 C287 1.261 . S
C283 H250 0.938 . S
C283 N285 1.325 . S
C283 C286 1.357 . S
C284 H252 0.928 . S
C284 C282 1.406 . S
C284 N285 1.261 . S
N285 Co236 2.214 . S
N285 C283 1.325 . S
N285 C284 1.261 . S
C286 H256 0.931 . S
C286 C283 1.357 . S
C286 C287 1.312 . S
C287 H258 0.930 . S
C287 C282 1.261 . S
C287 C286 1.312 . S
C288 O260 1.214 . S
C288 O268 1.234 . S
C289 H261 0.929 . S
C289 C292 1.391 . S
C289 C294 1.391 . S
C290 H262 0.929 . S
C290 C291 1.390 . S
C290 N293 1.391 . S
C291 H263 0.930 . S
C291 C290 1.390 . S
C291 C292 1.392 . S
C292 H264 0.929 . S
C292 C289 1.391 . S
C292 C291 1.392 . S
N293 Co237 2.257 1_545 S
N293 C290 1.391 . S
N293 C294 1.388 . S
C294 H265 0.930 . S
C294 C289 1.391 . S
C294 N293 1.388 . S
Co295 O297 2.143 . S
Co295 O303 2.074 . S
Co295 O306 2.093 1_455 S
Co295 O319 2.097 1_455 S
Co295 N336 2.151 . S
Co295 N344 2.214 . S
Co296 O297 2.160 1_655 S
Co296 O302 2.058 1_655 S
Co296 O312 2.057 1_655 S
Co296 O327 2.037 . S
Co296 N331 2.145 . S
Co296 N352 2.257 . S
O297 Co295 2.143 . S
O297 Co296 2.160 1_455 S
C298 O299 1.278 . S
C298 O306 1.224 . S
O299 C298 1.278 . S
C300 O301 1.245 . S
C300 O312 1.232 . S
O301 C300 1.245 . S
O302 Co296 2.058 1_455 S
O302 C328 1.269 . S
O303 Co295 2.074 . S
O303 C328 1.257 . S
H304 C329 0.930 . S
H305 C335 0.930 . S
O306 Co295 2.093 1_655 S
O306 C298 1.224 . S
H307 C339 0.929 . S
H308 C341 0.930 . S
H309 C342 0.931 . S
H310 C340 0.929 . S
H311 C343 0.928 . S
O312 Co296 2.057 1_455 S
O312 C300 1.232 . S
H313 C332 0.929 . S
H314 C333 0.929 . S
H315 C345 0.925 1_655 S
H316 C337 0.929 . S
H317 C346 0.930 . S
H318 C338 0.931 . S
O319 Co295 2.097 1_655 S
O319 C347 1.214 . S
H320 C348 0.929 . S
H321 C349 0.929 . S
H322 C350 0.930 . S
H323 C351 0.929 . S
H324 C353 0.930 . S
H325 C330 0.930 . S
H326 C334 0.930 . S
O327 Co296 2.037 . S
O327 C347 1.234 . S
C328 O302 1.269 . S
C328 O303 1.257 . S
C329 H304 0.930 . S
C329 C332 1.388 . S
C329 C334 1.418 . S
C330 H325 0.930 . S
C330 C333 1.404 . S
C330 C334 1.353 . S
N331 Co296 2.145 . S
N331 C332 1.397 . S
N331 C333 1.334 . S
C332 H313 0.929 . S
C332 C329 1.388 . S
C332 N331 1.397 . S
C333 H314 0.929 . S
C333 C330 1.404 . S
C333 N331 1.334 . S
C334 H326 0.930 . S
C334 C329 1.418 . S
C334 C330 1.353 . S
C335 H305 0.930 . S
C335 N336 1.330 . S
C335 C337 1.446 . S
N336 Co295 2.151 . S
N336 C335 1.330 . S
N336 C340 1.418 . S
C337 H316 0.929 . S
C337 C335 1.446 . S
C337 C338 1.332 . S
C338 H318 0.931 . S
C338 C337 1.332 . S
C338 C339 1.267 . S
C339 H307 0.929 . S
C339 C338 1.267 . S
C339 C340 1.251 . S
C340 H310 0.929 . S
C340 N336 1.418 . S
C340 C339 1.251 . S
C341 H308 0.930 . S
C341 C343 1.406 . S
C341 C346 1.261 . S
C342 H309 0.931 . S
C342 N344 1.322 1_655 S
C342 C345 1.364 1_655 S
C343 H311 0.928 . S
C343 C341 1.406 . S
C343 N344 1.261 . S
N344 Co295 2.214 . S
N344 C342 1.322 1_455 S
N344 C343 1.261 . S
C345 H315 0.925 1_455 S
C345 C342 1.364 1_455 S
C345 C346 1.314 . S
C346 H317 0.930 . S
C346 C341 1.261 . S
C346 C345 1.314 . S
C347 O319 1.214 . S
C347 O327 1.234 . S
C348 H320 0.929 . S
C348 C351 1.391 . S
C348 C353 1.391 . S
C349 H321 0.929 . S
C349 C350 1.390 . S
C349 N352 1.391 . S
C350 H322 0.930 . S
C350 C349 1.390 . S
C350 C351 1.392 . S
C351 H323 0.929 . S
C351 C348 1.391 . S
C351 C350 1.392 . S
N352 Co296 2.257 . S
N352 C349 1.391 . S
N352 C353 1.388 . S
C353 H324 0.930 . S
C353 C348 1.391 . S
C353 N352 1.388 . S
Co354 O356 2.143 . S
Co354 O362 2.074 . S
Co354 O365 2.093 . S
Co354 O378 2.097 . S
Co354 N395 2.151 . S
Co354 N403 2.214 . S
Co355 O356 2.160 . S
Co355 O361 2.058 . S
Co355 O371 2.057 . S
Co355 O386 2.037 . S
Co355 N390 2.145 . S
Co355 N411 2.257 . S
O356 Co354 2.143 . S
O356 Co355 2.160 . S
C357 O358 1.278 . S
C357 O365 1.224 . S
O358 C357 1.278 . S
C359 O360 1.245 . S
C359 O371 1.232 . S
O360 C359 1.245 . S
O361 Co355 2.058 . S
O361 C387 1.269 . S
O362 Co354 2.074 . S
O362 C387 1.257 . S
H363 C388 0.930 . S
H364 C394 0.930 . S
O365 Co354 2.093 . S
O365 C357 1.224 . S
H366 C398 0.929 . S
H367 C400 0.930 . S
H368 C401 0.930 . S
H369 C399 0.929 . S
H370 C402 0.928 . S
O371 Co355 2.057 . S
O371 C359 1.232 . S
H372 C391 0.929 . S
H373 C392 0.929 . S
H374 C404 0.931 . S
H375 C396 0.929 . S
H376 C405 0.930 . S
H377 C397 0.931 . S
O378 Co354 2.097 . S
O378 C406 1.214 . S
H379 C407 0.929 . S
H380 C408 0.929 . S
H381 C409 0.930 . S
H382 C410 0.929 . S
H383 C412 0.930 . S
H384 C389 0.930 . S
H385 C393 0.930 . S
O386 Co355 2.037 . S
O386 C406 1.234 . S
C387 O361 1.269 . S
C387 O362 1.257 . S
C388 H363 0.930 . S
C388 C391 1.388 . S
C388 C393 1.418 . S
C389 H384 0.930 . S
C389 C392 1.404 . S
C389 C393 1.353 . S
N390 Co355 2.145 . S
N390 C391 1.397 . S
N390 C392 1.334 . S
C391 H372 0.929 . S
C391 C388 1.388 . S
C391 N390 1.397 . S
C392 H373 0.929 . S
C392 C389 1.404 . S
C392 N390 1.334 . S
C393 H385 0.930 . S
C393 C388 1.418 . S
C393 C389 1.353 . S
C394 H364 0.930 . S
C394 N395 1.330 . S
C394 C396 1.446 . S
N395 Co354 2.151 . S
N395 C394 1.330 . S
N395 C399 1.418 . S
C396 H375 0.929 . S
C396 C394 1.446 . S
C396 C397 1.332 . S
C397 H377 0.931 . S
C397 C396 1.332 . S
C397 C398 1.267 . S
C398 H366 0.929 . S
C398 C397 1.267 . S
C398 C399 1.251 . S
C399 H369 0.929 . S
C399 N395 1.418 . S
C399 C398 1.251 . S
C400 H367 0.930 . S
C400 C402 1.406 . S
C400 C405 1.261 . S
C401 H368 0.930 . S
C401 N403 1.325 . S
C401 C404 1.357 . S
C402 H370 0.928 . S
C402 C400 1.406 . S
C402 N403 1.261 . S
N403 Co354 2.214 . S
N403 C401 1.325 . S
N403 C402 1.261 . S
C404 H374 0.931 . S
C404 C401 1.357 . S
C404 C405 1.312 . S
C405 H376 0.930 . S
C405 C400 1.261 . S
C405 C404 1.312 . S
C406 O378 1.214 . S
C406 O386 1.234 . S
C407 H379 0.929 . S
C407 C410 1.391 . S
C407 C412 1.391 . S
C408 H380 0.929 . S
C408 C409 1.390 . S
C408 N411 1.391 . S
C409 H381 0.930 . S
C409 C408 1.390 . S
C409 C410 1.392 . S
C410 H382 0.929 . S
C410 C407 1.391 . S
C410 C409 1.392 . S
N411 Co355 2.257 . S
N411 C408 1.391 . S
N411 C412 1.388 . S
C412 H383 0.930 . S
C412 C407 1.391 . S
C412 N411 1.388 . S
Co413 O415 2.143 . S
Co413 O421 2.074 . S
Co413 O424 2.093 . S
Co413 O437 2.097 . S
Co413 N454 2.151 . S
Co413 N462 2.214 . S
Co414 O415 2.160 . S
Co414 O420 2.058 . S
Co414 O430 2.057 . S
Co414 O445 2.037 . S
Co414 N449 2.145 . S
Co414 N470 2.257 . S
O415 Co413 2.143 . S
O415 Co414 2.160 . S
C416 O417 1.278 . S
C416 O424 1.224 . S
O417 C416 1.278 . S
C418 O419 1.245 . S
C418 O430 1.232 . S
O419 C418 1.245 . S
O420 Co414 2.058 . S
O420 C446 1.269 . S
O421 Co413 2.074 . S
O421 C446 1.257 . S
H422 C447 0.930 . S
H423 C453 0.930 . S
O424 Co413 2.093 . S
O424 C416 1.224 . S
H425 C457 0.929 . S
H426 C459 0.930 . S
H427 C460 0.930 . S
H428 C458 0.929 . S
H429 C461 0.928 . S
O430 Co414 2.057 . S
O430 C418 1.232 . S
H431 C450 0.929 . S
H432 C451 0.929 . S
H433 C463 0.931 . S
H434 C455 0.929 . S
H435 C464 0.930 . S
H436 C456 0.931 . S
O437 Co413 2.097 . S
O437 C465 1.214 . S
H438 C466 0.929 . S
H439 C467 0.929 . S
H440 C468 0.930 . S
H441 C469 0.929 . S
H442 C471 0.930 . S
H443 C448 0.930 . S
H444 C452 0.930 . S
O445 Co414 2.037 . S
O445 C465 1.234 . S
C446 O420 1.269 . S
C446 O421 1.257 . S
C447 H422 0.930 . S
C447 C450 1.388 . S
C447 C452 1.418 . S
C448 H443 0.930 . S
C448 C451 1.404 . S
C448 C452 1.353 . S
N449 Co414 2.145 . S
N449 C450 1.397 . S
N449 C451 1.334 . S
C450 H431 0.929 . S
C450 C447 1.388 . S
C450 N449 1.397 . S
C451 H432 0.929 . S
C451 C448 1.404 . S
C451 N449 1.334 . S
C452 H444 0.930 . S
C452 C447 1.418 . S
C452 C448 1.353 . S
C453 H423 0.930 . S
C453 N454 1.330 . S
C453 C455 1.446 . S
N454 Co413 2.151 . S
N454 C453 1.330 . S
N454 C458 1.418 . S
C455 H434 0.929 . S
C455 C453 1.446 . S
C455 C456 1.332 . S
C456 H436 0.931 . S
C456 C455 1.332 . S
C456 C457 1.267 . S
C457 H425 0.929 . S
C457 C456 1.267 . S
C457 C458 1.251 . S
C458 H428 0.929 . S
C458 N454 1.418 . S
C458 C457 1.251 . S
C459 H426 0.930 . S
C459 C461 1.406 . S
C459 C464 1.261 . S
C460 H427 0.930 . S
C460 N462 1.325 . S
C460 C463 1.357 . S
C461 H429 0.928 . S
C461 C459 1.406 . S
C461 N462 1.261 . S
N462 Co413 2.214 . S
N462 C460 1.325 . S
N462 C461 1.261 . S
C463 H433 0.931 . S
C463 C460 1.357 . S
C463 C464 1.312 . S
C464 H435 0.930 . S
C464 C459 1.261 . S
C464 C463 1.312 . S
C465 O437 1.214 . S
C465 O445 1.234 . S
C466 H438 0.929 . S
C466 C469 1.391 . S
C466 C471 1.391 . S
C467 H439 0.929 . S
C467 C468 1.390 . S
C467 N470 1.391 . S
C468 H440 0.930 . S
C468 C467 1.390 . S
C468 C469 1.392 . S
C469 H441 0.929 . S
C469 C466 1.391 . S
C469 C468 1.392 . S
N470 Co414 2.257 . S
N470 C467 1.391 . S
N470 C471 1.388 . S
C471 H442 0.930 . S
C471 C466 1.391 . S
C471 N470 1.388 . S
Co472 O474 2.143 . S
Co472 O480 2.074 . S
Co472 O483 2.093 . S
Co472 O496 2.097 . S
Co472 N513 2.151 . S
Co472 N521 2.214 . S
Co473 O474 2.160 . S
Co473 O479 2.058 . S
Co473 O489 2.057 . S
Co473 O504 2.037 . S
Co473 N508 2.145 . S
Co473 N529 2.257 . S
O474 Co472 2.143 . S
O474 Co473 2.160 . S
C475 O476 1.278 . S
C475 O483 1.224 . S
O476 C475 1.278 . S
C477 O478 1.245 . S
C477 O489 1.232 . S
O478 C477 1.245 . S
O479 Co473 2.058 . S
O479 C505 1.269 . S
O480 Co472 2.074 . S
O480 C505 1.257 . S
H481 C506 0.930 . S
H482 C512 0.930 . S
O483 Co472 2.093 . S
O483 C475 1.224 . S
H484 C516 0.929 . S
H485 C518 0.930 . S
H486 C519 0.930 . S
H487 C517 0.929 . S
H488 C520 0.928 . S
O489 Co473 2.057 . S
O489 C477 1.232 . S
H490 C509 0.929 . S
H491 C510 0.929 . S
H492 C522 0.931 . S
H493 C514 0.929 . S
H494 C523 0.930 . S
H495 C515 0.931 . S
O496 Co472 2.097 . S
O496 C524 1.214 . S
H497 C525 0.929 . S
H498 C526 0.929 . S
H499 C527 0.930 . S
H500 C528 0.929 . S
H501 C530 0.930 . S
H502 C507 0.930 . S
H503 C511 0.930 . S
O504 Co473 2.037 . S
O504 C524 1.234 . S
C505 O479 1.269 . S
C505 O480 1.257 . S
C506 H481 0.930 . S
C506 C509 1.388 . S
C506 C511 1.418 . S
C507 H502 0.930 . S
C507 C510 1.404 . S
C507 C511 1.353 . S
N508 Co473 2.145 . S
N508 C509 1.397 . S
N508 C510 1.334 . S
C509 H490 0.929 . S
C509 C506 1.388 . S
C509 N508 1.397 . S
C510 H491 0.929 . S
C510 C507 1.404 . S
C510 N508 1.334 . S
C511 H503 0.930 . S
C511 C506 1.418 . S
C511 C507 1.353 . S
C512 H482 0.930 . S
C512 N513 1.330 . S
C512 C514 1.446 . S
N513 Co472 2.151 . S
N513 C512 1.330 . S
N513 C517 1.418 . S
C514 H493 0.929 . S
C514 C512 1.446 . S
C514 C515 1.332 . S
C515 H495 0.931 . S
C515 C514 1.332 . S
C515 C516 1.267 . S
C516 H484 0.929 . S
C516 C515 1.267 . S
C516 C517 1.251 . S
C517 H487 0.929 . S
C517 N513 1.418 . S
C517 C516 1.251 . S
C518 H485 0.930 . S
C518 C520 1.406 . S
C518 C523 1.261 . S
C519 H486 0.930 . S
C519 N521 1.325 . S
C519 C522 1.357 . S
C520 H488 0.928 . S
C520 C518 1.406 . S
C520 N521 1.261 . S
N521 Co472 2.214 . S
N521 C519 1.325 . S
N521 C520 1.261 . S
C522 H492 0.931 . S
C522 C519 1.357 . S
C522 C523 1.312 . S
C523 H494 0.930 . S
C523 C518 1.261 . S
C523 C522 1.312 . S
C524 O496 1.214 . S
C524 O504 1.234 . S
C525 H497 0.929 . S
C525 C528 1.391 . S
C525 C530 1.391 . S
C526 H498 0.929 . S
C526 C527 1.390 . S
C526 N529 1.391 . S
C527 H499 0.930 . S
C527 C526 1.390 . S
C527 C528 1.392 . S
C528 H500 0.929 . S
C528 C525 1.391 . S
C528 C527 1.392 . S
N529 Co473 2.257 . S
N529 C526 1.391 . S
N529 C530 1.388 . S
C530 H501 0.930 . S
C530 C525 1.391 . S
C530 N529 1.388 . S
Co531 O533 2.143 . S
Co531 O539 2.074 . S
Co531 O542 2.093 . S
Co531 O555 2.097 . S
Co531 N572 2.151 . S
Co531 N580 2.214 . S
Co532 O533 2.160 . S
Co532 O538 2.058 . S
Co532 O548 2.057 . S
Co532 O563 2.037 . S
Co532 N567 2.145 . S
Co532 N588 2.257 . S
O533 Co531 2.143 . S
O533 Co532 2.160 . S
C534 O535 1.278 . S
C534 O542 1.224 . S
O535 C534 1.278 . S
C536 O537 1.245 . S
C536 O548 1.232 . S
O537 C536 1.245 . S
O538 Co532 2.058 . S
O538 C564 1.269 . S
O539 Co531 2.074 . S
O539 C564 1.257 . S
H540 C565 0.930 . S
H541 C571 0.930 . S
O542 Co531 2.093 . S
O542 C534 1.224 . S
H543 C575 0.929 . S
H544 C577 0.930 . S
H545 C578 0.930 . S
H546 C576 0.929 . S
H547 C579 0.928 . S
O548 Co532 2.057 . S
O548 C536 1.232 . S
H549 C568 0.929 . S
H550 C569 0.929 . S
H551 C581 0.931 . S
H552 C573 0.929 . S
H553 C582 0.930 . S
H554 C574 0.931 . S
O555 Co531 2.097 . S
O555 C583 1.214 . S
H556 C584 0.929 . S
H557 C585 0.929 . S
H558 C586 0.930 . S
H559 C587 0.929 . S
H560 C589 0.930 . S
H561 C566 0.930 . S
H562 C570 0.930 . S
O563 Co532 2.037 . S
O563 C583 1.234 . S
C564 O538 1.269 . S
C564 O539 1.257 . S
C565 H540 0.930 . S
C565 C568 1.388 . S
C565 C570 1.418 . S
C566 H561 0.930 . S
C566 C569 1.404 . S
C566 C570 1.353 . S
N567 Co532 2.145 . S
N567 C568 1.397 . S
N567 C569 1.334 . S
C568 H549 0.929 . S
C568 C565 1.388 . S
C568 N567 1.397 . S
C569 H550 0.929 . S
C569 C566 1.404 . S
C569 N567 1.334 . S
C570 H562 0.930 . S
C570 C565 1.418 . S
C570 C566 1.353 . S
C571 H541 0.930 . S
C571 N572 1.330 . S
C571 C573 1.446 . S
N572 Co531 2.151 . S
N572 C571 1.330 . S
N572 C576 1.418 . S
C573 H552 0.929 . S
C573 C571 1.446 . S
C573 C574 1.332 . S
C574 H554 0.931 . S
C574 C573 1.332 . S
C574 C575 1.267 . S
C575 H543 0.929 . S
C575 C574 1.267 . S
C575 C576 1.251 . S
C576 H546 0.929 . S
C576 N572 1.418 . S
C576 C575 1.251 . S
C577 H544 0.930 . S
C577 C579 1.406 . S
C577 C582 1.261 . S
C578 H545 0.930 . S
C578 N580 1.325 . S
C578 C581 1.357 . S
C579 H547 0.928 . S
C579 C577 1.406 . S
C579 N580 1.261 . S
N580 Co531 2.214 . S
N580 C578 1.325 . S
N580 C579 1.261 . S
C581 H551 0.931 . S
C581 C578 1.357 . S
C581 C582 1.312 . S
C582 H553 0.930 . S
C582 C577 1.261 . S
C582 C581 1.312 . S
C583 O555 1.214 . S
C583 O563 1.234 . S
C584 H556 0.929 . S
C584 C587 1.391 . S
C584 C589 1.391 . S
C585 H557 0.929 . S
C585 C586 1.390 . S
C585 N588 1.391 . S
C586 H558 0.930 . S
C586 C585 1.390 . S
C586 C587 1.392 . S
C587 H559 0.929 . S
C587 C584 1.391 . S
C587 C586 1.392 . S
N588 Co532 2.257 . S
N588 C585 1.391 . S
N588 C589 1.388 . S
C589 H560 0.930 . S
C589 C584 1.391 . S
C589 N588 1.388 . S
Co590 O592 2.143 . S
Co590 O598 2.074 . S
Co590 O601 2.093 . S
Co590 O614 2.097 . S
Co590 N631 2.151 . S
Co590 N639 2.214 . S
Co591 O592 2.160 . S
Co591 O597 2.058 . S
Co591 O607 2.057 . S
Co591 O622 2.037 . S
Co591 N626 2.145 . S
Co591 N647 2.257 . S
O592 Co590 2.143 . S
O592 Co591 2.160 . S
C593 O594 1.278 . S
C593 O601 1.224 . S
O594 C593 1.278 . S
C595 O596 1.245 . S
C595 O607 1.232 . S
O596 C595 1.245 . S
O597 Co591 2.058 . S
O597 C623 1.269 . S
O598 Co590 2.074 . S
O598 C623 1.257 . S
H599 C624 0.930 . S
H600 C630 0.930 . S
O601 Co590 2.093 . S
O601 C593 1.224 . S
H602 C634 0.929 . S
H603 C636 0.930 . S
H604 C637 0.930 . S
H605 C635 0.929 . S
H606 C638 0.928 . S
O607 Co591 2.057 . S
O607 C595 1.232 . S
H608 C627 0.929 . S
H609 C628 0.929 . S
H610 C640 0.931 . S
H611 C632 0.929 . S
H612 C641 0.930 . S
H613 C633 0.931 . S
O614 Co590 2.097 . S
O614 C642 1.214 . S
H615 C643 0.929 . S
H616 C644 0.929 . S
H617 C645 0.930 . S
H618 C646 0.929 . S
H619 C648 0.930 . S
H620 C625 0.930 . S
H621 C629 0.930 . S
O622 Co591 2.037 . S
O622 C642 1.234 . S
C623 O597 1.269 . S
C623 O598 1.257 . S
C624 H599 0.930 . S
C624 C627 1.388 . S
C624 C629 1.418 . S
C625 H620 0.930 . S
C625 C628 1.404 . S
C625 C629 1.353 . S
N626 Co591 2.145 . S
N626 C627 1.397 . S
N626 C628 1.334 . S
C627 H608 0.929 . S
C627 C624 1.388 . S
C627 N626 1.397 . S
C628 H609 0.929 . S
C628 C625 1.404 . S
C628 N626 1.334 . S
C629 H621 0.930 . S
C629 C624 1.418 . S
C629 C625 1.353 . S
C630 H600 0.930 . S
C630 N631 1.330 . S
C630 C632 1.446 . S
N631 Co590 2.151 . S
N631 C630 1.330 . S
N631 C635 1.418 . S
C632 H611 0.929 . S
C632 C630 1.446 . S
C632 C633 1.332 . S
C633 H613 0.931 . S
C633 C632 1.332 . S
C633 C634 1.267 . S
C634 H602 0.929 . S
C634 C633 1.267 . S
C634 C635 1.251 . S
C635 H605 0.929 . S
C635 N631 1.418 . S
C635 C634 1.251 . S
C636 H603 0.930 . S
C636 C638 1.406 . S
C636 C641 1.261 . S
C637 H604 0.930 . S
C637 N639 1.325 . S
C637 C640 1.357 . S
C638 H606 0.928 . S
C638 C636 1.406 . S
C638 N639 1.261 . S
N639 Co590 2.214 . S
N639 C637 1.325 . S
N639 C638 1.261 . S
C640 H610 0.931 . S
C640 C637 1.357 . S
C640 C641 1.312 . S
C641 H612 0.930 . S
C641 C636 1.261 . S
C641 C640 1.312 . S
C642 O614 1.214 . S
C642 O622 1.234 . S
C643 H615 0.929 . S
C643 C646 1.391 . S
C643 C648 1.391 . S
C644 H616 0.929 . S
C644 C645 1.390 . S
C644 N647 1.391 . S
C645 H617 0.930 . S
C645 C644 1.390 . S
C645 C646 1.392 . S
C646 H618 0.929 . S
C646 C643 1.391 . S
C646 C645 1.392 . S
N647 Co591 2.257 . S
N647 C644 1.391 . S
N647 C648 1.388 . S
C648 H619 0.930 . S
C648 C643 1.391 . S
C648 N647 1.388 . S
Co649 O651 2.143 . S
Co649 O657 2.074 . S
Co649 O660 2.093 . S
Co649 O673 2.097 . S
Co649 N690 2.151 . S
Co649 N698 2.214 . S
Co650 O651 2.160 . S
Co650 O656 2.058 . S
Co650 O666 2.057 . S
Co650 O681 2.037 . S
Co650 N685 2.145 . S
Co650 N706 2.257 . S
O651 Co649 2.143 . S
O651 Co650 2.160 . S
C652 O653 1.278 . S
C652 O660 1.224 . S
O653 C652 1.278 . S
C654 O655 1.245 . S
C654 O666 1.232 . S
O655 C654 1.245 . S
O656 Co650 2.058 . S
O656 C682 1.269 . S
O657 Co649 2.074 . S
O657 C682 1.257 . S
H658 C683 0.930 . S
H659 C689 0.930 . S
O660 Co649 2.093 . S
O660 C652 1.224 . S
H661 C693 0.929 . S
H662 C695 0.930 . S
H663 C696 0.930 . S
H664 C694 0.929 . S
H665 C697 0.928 . S
O666 Co650 2.057 . S
O666 C654 1.232 . S
H667 C686 0.929 . S
H668 C687 0.929 . S
H669 C699 0.931 . S
H670 C691 0.929 . S
H671 C700 0.930 . S
H672 C692 0.931 . S
O673 Co649 2.097 . S
O673 C701 1.214 . S
H674 C702 0.929 . S
H675 C703 0.929 . S
H676 C704 0.930 . S
H677 C705 0.929 . S
H678 C707 0.930 . S
H679 C684 0.930 . S
H680 C688 0.930 . S
O681 Co650 2.037 . S
O681 C701 1.234 . S
C682 O656 1.269 . S
C682 O657 1.257 . S
C683 H658 0.930 . S
C683 C686 1.388 . S
C683 C688 1.418 . S
C684 H679 0.930 . S
C684 C687 1.404 . S
C684 C688 1.353 . S
N685 Co650 2.145 . S
N685 C686 1.397 . S
N685 C687 1.334 . S
C686 H667 0.929 . S
C686 C683 1.388 . S
C686 N685 1.397 . S
C687 H668 0.929 . S
C687 C684 1.404 . S
C687 N685 1.334 . S
C688 H680 0.930 . S
C688 C683 1.418 . S
C688 C684 1.353 . S
C689 H659 0.930 . S
C689 N690 1.330 . S
C689 C691 1.446 . S
N690 Co649 2.151 . S
N690 C689 1.330 . S
N690 C694 1.418 . S
C691 H670 0.929 . S
C691 C689 1.446 . S
C691 C692 1.332 . S
C692 H672 0.931 . S
C692 C691 1.332 . S
C692 C693 1.267 . S
C693 H661 0.929 . S
C693 C692 1.267 . S
C693 C694 1.251 . S
C694 H664 0.929 . S
C694 N690 1.418 . S
C694 C693 1.251 . S
C695 H662 0.930 . S
C695 C697 1.406 . S
C695 C700 1.261 . S
C696 H663 0.930 . S
C696 N698 1.325 . S
C696 C699 1.357 . S
C697 H665 0.928 . S
C697 C695 1.406 . S
C697 N698 1.261 . S
N698 Co649 2.214 . S
N698 C696 1.325 . S
N698 C697 1.261 . S
C699 H669 0.931 . S
C699 C696 1.357 . S
C699 C700 1.312 . S
C700 H671 0.930 . S
C700 C695 1.261 . S
C700 C699 1.312 . S
C701 O673 1.214 . S
C701 O681 1.234 . S
C702 H674 0.929 . S
C702 C705 1.391 . S
C702 C707 1.391 . S
C703 H675 0.929 . S
C703 C704 1.390 . S
C703 N706 1.391 . S
C704 H676 0.930 . S
C704 C703 1.390 . S
C704 C705 1.392 . S
C705 H677 0.929 . S
C705 C702 1.391 . S
C705 C704 1.392 . S
N706 Co650 2.257 . S
N706 C703 1.391 . S
N706 C707 1.388 . S
C707 H678 0.930 . S
C707 C702 1.391 . S
C707 N706 1.388 . S
Co708 O710 2.143 . S
Co708 O716 2.074 . S
Co708 O719 2.093 . S
Co708 O732 2.097 . S
Co708 N749 2.151 . S
Co708 N757 2.214 . S
Co709 O710 2.160 . S
Co709 O715 2.058 . S
Co709 O725 2.057 . S
Co709 O740 2.037 . S
Co709 N744 2.145 . S
Co709 N765 2.257 . S
O710 Co708 2.143 . S
O710 Co709 2.160 . S
C711 O712 1.278 . S
C711 O719 1.224 . S
O712 C711 1.278 . S
C713 O714 1.245 . S
C713 O725 1.232 . S
O714 C713 1.245 . S
O715 Co709 2.058 . S
O715 C741 1.269 . S
O716 Co708 2.074 . S
O716 C741 1.257 . S
H717 C742 0.930 . S
H718 C748 0.930 . S
O719 Co708 2.093 . S
O719 C711 1.224 . S
H720 C752 0.929 . S
H721 C754 0.930 . S
H722 C755 0.930 . S
H723 C753 0.929 . S
H724 C756 0.928 . S
O725 Co709 2.057 . S
O725 C713 1.232 . S
H726 C745 0.929 . S
H727 C746 0.929 . S
H728 C758 0.931 . S
H729 C750 0.929 . S
H730 C759 0.930 . S
H731 C751 0.931 . S
O732 Co708 2.097 . S
O732 C760 1.214 . S
H733 C761 0.929 . S
H734 C762 0.929 . S
H735 C763 0.930 . S
H736 C764 0.929 . S
H737 C766 0.930 . S
H738 C743 0.930 . S
H739 C747 0.930 . S
O740 Co709 2.037 . S
O740 C760 1.234 . S
C741 O715 1.269 . S
C741 O716 1.257 . S
C742 H717 0.930 . S
C742 C745 1.388 . S
C742 C747 1.418 . S
C743 H738 0.930 . S
C743 C746 1.404 . S
C743 C747 1.353 . S
N744 Co709 2.145 . S
N744 C745 1.397 . S
N744 C746 1.334 . S
C745 H726 0.929 . S
C745 C742 1.388 . S
C745 N744 1.397 . S
C746 H727 0.929 . S
C746 C743 1.404 . S
C746 N744 1.334 . S
C747 H739 0.930 . S
C747 C742 1.418 . S
C747 C743 1.353 . S
C748 H718 0.930 . S
C748 N749 1.330 . S
C748 C750 1.446 . S
N749 Co708 2.151 . S
N749 C748 1.330 . S
N749 C753 1.418 . S
C750 H729 0.929 . S
C750 C748 1.446 . S
C750 C751 1.332 . S
C751 H731 0.931 . S
C751 C750 1.332 . S
C751 C752 1.267 . S
C752 H720 0.929 . S
C752 C751 1.267 . S
C752 C753 1.251 . S
C753 H723 0.929 . S
C753 N749 1.418 . S
C753 C752 1.251 . S
C754 H721 0.930 . S
C754 C756 1.406 . S
C754 C759 1.261 . S
C755 H722 0.930 . S
C755 N757 1.325 . S
C755 C758 1.357 . S
C756 H724 0.928 . S
C756 C754 1.406 . S
C756 N757 1.261 . S
N757 Co708 2.214 . S
N757 C755 1.325 . S
N757 C756 1.261 . S
C758 H728 0.931 . S
C758 C755 1.357 . S
C758 C759 1.312 . S
C759 H730 0.930 . S
C759 C754 1.261 . S
C759 C758 1.312 . S
C760 O732 1.214 . S
C760 O740 1.234 . S
C761 H733 0.929 . S
C761 C764 1.391 . S
C761 C766 1.391 . S
C762 H734 0.929 . S
C762 C763 1.390 . S
C762 N765 1.391 . S
C763 H735 0.930 . S
C763 C762 1.390 . S
C763 C764 1.392 . S
C764 H736 0.929 . S
C764 C761 1.391 . S
C764 C763 1.392 . S
N765 Co709 2.257 . S
N765 C762 1.391 . S
N765 C766 1.388 . S
C766 H737 0.930 . S
C766 C761 1.391 . S
C766 N765 1.388 . S
Co767 O769 2.143 . S
Co767 O775 2.074 . S
Co767 O778 2.093 . S
Co767 O791 2.097 . S
Co767 N808 2.151 . S
Co767 N816 2.214 . S
Co768 O769 2.160 . S
Co768 O774 2.058 . S
Co768 O784 2.057 . S
Co768 O799 2.037 . S
Co768 N803 2.145 . S
Co768 N824 2.257 . S
O769 Co767 2.143 . S
O769 Co768 2.160 . S
C770 O771 1.278 . S
C770 O778 1.224 . S
O771 C770 1.278 . S
C772 O773 1.245 . S
C772 O784 1.232 . S
O773 C772 1.245 . S
O774 Co768 2.058 . S
O774 C800 1.269 . S
O775 Co767 2.074 . S
O775 C800 1.257 . S
H776 C801 0.930 . S
H777 C807 0.930 . S
O778 Co767 2.093 . S
O778 C770 1.224 . S
H779 C811 0.929 . S
H780 C813 0.930 . S
H781 C814 0.930 . S
H782 C812 0.929 . S
H783 C815 0.928 . S
O784 Co768 2.057 . S
O784 C772 1.232 . S
H785 C804 0.929 . S
H786 C805 0.929 . S
H787 C817 0.931 . S
H788 C809 0.929 . S
H789 C818 0.930 . S
H790 C810 0.931 . S
O791 Co767 2.097 . S
O791 C819 1.214 . S
H792 C820 0.929 . S
H793 C821 0.929 . S
H794 C822 0.930 . S
H795 C823 0.929 . S
H796 C825 0.930 . S
H797 C802 0.930 . S
H798 C806 0.930 . S
O799 Co768 2.037 . S
O799 C819 1.234 . S
C800 O774 1.269 . S
C800 O775 1.257 . S
C801 H776 0.930 . S
C801 C804 1.388 . S
C801 C806 1.418 . S
C802 H797 0.930 . S
C802 C805 1.404 . S
C802 C806 1.353 . S
N803 Co768 2.145 . S
N803 C804 1.397 . S
N803 C805 1.334 . S
C804 H785 0.929 . S
C804 C801 1.388 . S
C804 N803 1.397 . S
C805 H786 0.929 . S
C805 C802 1.404 . S
C805 N803 1.334 . S
C806 H798 0.930 . S
C806 C801 1.418 . S
C806 C802 1.353 . S
C807 H777 0.930 . S
C807 N808 1.330 . S
C807 C809 1.446 . S
N808 Co767 2.151 . S
N808 C807 1.330 . S
N808 C812 1.418 . S
C809 H788 0.929 . S
C809 C807 1.446 . S
C809 C810 1.332 . S
C810 H790 0.931 . S
C810 C809 1.332 . S
C810 C811 1.267 . S
C811 H779 0.929 . S
C811 C810 1.267 . S
C811 C812 1.251 . S
C812 H782 0.929 . S
C812 N808 1.418 . S
C812 C811 1.251 . S
C813 H780 0.930 . S
C813 C815 1.406 . S
C813 C818 1.261 . S
C814 H781 0.930 . S
C814 N816 1.325 . S
C814 C817 1.357 . S
C815 H783 0.928 . S
C815 C813 1.406 . S
C815 N816 1.261 . S
N816 Co767 2.214 . S
N816 C814 1.325 . S
N816 C815 1.261 . S
C817 H787 0.931 . S
C817 C814 1.357 . S
C817 C818 1.312 . S
C818 H789 0.930 . S
C818 C813 1.261 . S
C818 C817 1.312 . S
C819 O791 1.214 . S
C819 O799 1.234 . S
C820 H792 0.929 . S
C820 C823 1.391 . S
C820 C825 1.391 . S
C821 H793 0.929 . S
C821 C822 1.390 . S
C821 N824 1.391 . S
C822 H794 0.930 . S
C822 C821 1.390 . S
C822 C823 1.392 . S
C823 H795 0.929 . S
C823 C820 1.391 . S
C823 C822 1.392 . S
N824 Co768 2.257 . S
N824 C821 1.391 . S
N824 C825 1.388 . S
C825 H796 0.930 . S
C825 C820 1.391 . S
C825 N824 1.388 . S
Co826 O828 2.143 . S
Co826 O834 2.074 . S
Co826 O837 2.093 . S
Co826 O850 2.097 . S
Co826 N867 2.151 . S
Co826 N875 2.214 . S
Co827 O828 2.160 . S
Co827 O833 2.058 . S
Co827 O843 2.057 . S
Co827 O858 2.037 . S
Co827 N862 2.145 . S
Co827 N883 2.257 . S
O828 Co826 2.143 . S
O828 Co827 2.160 . S
C829 O830 1.278 . S
C829 O837 1.224 . S
O830 C829 1.278 . S
C831 O832 1.245 . S
C831 O843 1.232 . S
O832 C831 1.245 . S
O833 Co827 2.058 . S
O833 C859 1.269 . S
O834 Co826 2.074 . S
O834 C859 1.257 . S
H835 C860 0.930 . S
H836 C866 0.930 . S
O837 Co826 2.093 . S
O837 C829 1.224 . S
H838 C870 0.929 . S
H839 C872 0.930 . S
H840 C873 0.930 . S
H841 C871 0.929 . S
H842 C874 0.928 . S
O843 Co827 2.057 . S
O843 C831 1.232 . S
H844 C863 0.929 . S
H845 C864 0.929 . S
H846 C876 0.931 . S
H847 C868 0.929 . S
H848 C877 0.930 . S
H849 C869 0.931 . S
O850 Co826 2.097 . S
O850 C878 1.214 . S
H851 C879 0.929 . S
H852 C880 0.929 . S
H853 C881 0.930 . S
H854 C882 0.929 . S
H855 C884 0.930 . S
H856 C861 0.930 . S
H857 C865 0.930 . S
O858 Co827 2.037 . S
O858 C878 1.234 . S
C859 O833 1.269 . S
C859 O834 1.257 . S
C860 H835 0.930 . S
C860 C863 1.388 . S
C860 C865 1.418 . S
C861 H856 0.930 . S
C861 C864 1.404 . S
C861 C865 1.353 . S
N862 Co827 2.145 . S
N862 C863 1.397 . S
N862 C864 1.334 . S
C863 H844 0.929 . S
C863 C860 1.388 . S
C863 N862 1.397 . S
C864 H845 0.929 . S
C864 C861 1.404 . S
C864 N862 1.334 . S
C865 H857 0.930 . S
C865 C860 1.418 . S
C865 C861 1.353 . S
C866 H836 0.930 . S
C866 N867 1.330 . S
C866 C868 1.446 . S
N867 Co826 2.151 . S
N867 C866 1.330 . S
N867 C871 1.418 . S
C868 H847 0.929 . S
C868 C866 1.446 . S
C868 C869 1.332 . S
C869 H849 0.931 . S
C869 C868 1.332 . S
C869 C870 1.267 . S
C870 H838 0.929 . S
C870 C869 1.267 . S
C870 C871 1.251 . S
C871 H841 0.929 . S
C871 N867 1.418 . S
C871 C870 1.251 . S
C872 H839 0.930 . S
C872 C874 1.406 . S
C872 C877 1.261 . S
C873 H840 0.930 . S
C873 N875 1.325 . S
C873 C876 1.357 . S
C874 H842 0.928 . S
C874 C872 1.406 . S
C874 N875 1.261 . S
N875 Co826 2.214 . S
N875 C873 1.325 . S
N875 C874 1.261 . S
C876 H846 0.931 . S
C876 C873 1.357 . S
C876 C877 1.312 . S
C877 H848 0.930 . S
C877 C872 1.261 . S
C877 C876 1.312 . S
C878 O850 1.214 . S
C878 O858 1.234 . S
C879 H851 0.929 . S
C879 C882 1.391 . S
C879 C884 1.391 . S
C880 H852 0.929 . S
C880 C881 1.390 . S
C880 N883 1.391 . S
C881 H853 0.930 . S
C881 C880 1.390 . S
C881 C882 1.392 . S
C882 H854 0.929 . S
C882 C879 1.391 . S
C882 C881 1.392 . S
N883 Co827 2.257 . S
N883 C880 1.391 . S
N883 C884 1.388 . S
C884 H855 0.930 . S
C884 C879 1.391 . S
C884 N883 1.388 . S
Co885 O887 2.143 . S
Co885 O893 2.074 . S
Co885 O896 2.093 . S
Co885 O909 2.097 . S
Co885 N926 2.151 . S
Co885 N934 2.214 . S
Co886 O887 2.160 . S
Co886 O892 2.058 . S
Co886 O902 2.057 . S
Co886 O917 2.037 . S
Co886 N921 2.145 . S
Co886 N942 2.257 . S
O887 Co885 2.143 . S
O887 Co886 2.160 . S
C888 O889 1.278 . S
C888 O896 1.224 . S
O889 C888 1.278 . S
C890 O891 1.245 . S
C890 O902 1.232 . S
O891 C890 1.245 . S
O892 Co886 2.058 . S
O892 C918 1.269 . S
O893 Co885 2.074 . S
O893 C918 1.257 . S
H894 C919 0.930 . S
H895 C925 0.930 . S
O896 Co885 2.093 . S
O896 C888 1.224 . S
H897 C929 0.929 . S
H898 C931 0.930 . S
H899 C932 0.930 . S
H900 C930 0.929 . S
H901 C933 0.928 . S
O902 Co886 2.057 . S
O902 C890 1.232 . S
H903 C922 0.929 . S
H904 C923 0.929 . S
H905 C935 0.931 . S
H906 C927 0.929 . S
H907 C936 0.930 . S
H908 C928 0.931 . S
O909 Co885 2.097 . S
O909 C937 1.214 . S
H910 C938 0.929 . S
H911 C939 0.929 . S
H912 C940 0.930 . S
H913 C941 0.929 . S
H914 C943 0.930 . S
H915 C920 0.930 . S
H916 C924 0.930 . S
O917 Co886 2.037 . S
O917 C937 1.234 . S
C918 O892 1.269 . S
C918 O893 1.257 . S
C919 H894 0.930 . S
C919 C922 1.388 . S
C919 C924 1.418 . S
C920 H915 0.930 . S
C920 C923 1.404 . S
C920 C924 1.353 . S
N921 Co886 2.145 . S
N921 C922 1.397 . S
N921 C923 1.334 . S
C922 H903 0.929 . S
C922 C919 1.388 . S
C922 N921 1.397 . S
C923 H904 0.929 . S
C923 C920 1.404 . S
C923 N921 1.334 . S
C924 H916 0.930 . S
C924 C919 1.418 . S
C924 C920 1.353 . S
C925 H895 0.930 . S
C925 N926 1.330 . S
C925 C927 1.446 . S
N926 Co885 2.151 . S
N926 C925 1.330 . S
N926 C930 1.418 . S
C927 H906 0.929 . S
C927 C925 1.446 . S
C927 C928 1.332 . S
C928 H908 0.931 . S
C928 C927 1.332 . S
C928 C929 1.267 . S
C929 H897 0.929 . S
C929 C928 1.267 . S
C929 C930 1.251 . S
C930 H900 0.929 . S
C930 N926 1.418 . S
C930 C929 1.251 . S
C931 H898 0.930 . S
C931 C933 1.406 . S
C931 C936 1.261 . S
C932 H899 0.930 . S
C932 N934 1.325 . S
C932 C935 1.357 . S
C933 H901 0.928 . S
C933 C931 1.406 . S
C933 N934 1.261 . S
N934 Co885 2.214 . S
N934 C932 1.325 . S
N934 C933 1.261 . S
C935 H905 0.931 . S
C935 C932 1.357 . S
C935 C936 1.312 . S
C936 H907 0.930 . S
C936 C931 1.261 . S
C936 C935 1.312 . S
C937 O909 1.214 . S
C937 O917 1.234 . S
C938 H910 0.929 . S
C938 C941 1.391 . S
C938 C943 1.391 . S
C939 H911 0.929 . S
C939 C940 1.390 . S
C939 N942 1.391 . S
C940 H912 0.930 . S
C940 C939 1.390 . S
C940 C941 1.392 . S
C941 H913 0.929 . S
C941 C938 1.391 . S
C941 C940 1.392 . S
N942 Co886 2.257 . S
N942 C939 1.391 . S
N942 C943 1.388 . S
C943 H914 0.930 . S
C943 C938 1.391 . S
C943 N942 1.388 . S
Co944 O946 2.143 . S
Co944 O952 2.074 . S
Co944 O955 2.093 . S
Co944 O968 2.097 . S
Co944 N985 2.151 . S
Co944 N993 2.214 . S
Co945 O946 2.160 . S
Co945 O951 2.058 . S
Co945 O961 2.057 . S
Co945 O976 2.037 . S
Co945 N980 2.145 . S
Co945 N1001 2.257 . S
O946 Co944 2.143 . S
O946 Co945 2.160 . S
C947 O948 1.278 . S
C947 O955 1.224 . S
O948 C947 1.278 . S
C949 O950 1.245 . S
C949 O961 1.232 . S
O950 C949 1.245 . S
O951 Co945 2.058 . S
O951 C977 1.269 . S
O952 Co944 2.074 . S
O952 C977 1.257 . S
H953 C978 0.930 . S
H954 C984 0.930 . S
O955 Co944 2.093 . S
O955 C947 1.224 . S
H956 C988 0.929 . S
H957 C990 0.930 . S
H958 C991 0.930 . S
H959 C989 0.929 . S
H960 C992 0.928 . S
O961 Co945 2.057 . S
O961 C949 1.232 . S
H962 C981 0.929 . S
H963 C982 0.929 . S
H964 C994 0.931 . S
H965 C986 0.929 . S
H966 C995 0.930 . S
H967 C987 0.931 . S
O968 Co944 2.097 . S
O968 C996 1.214 . S
H969 C997 0.929 . S
H970 C998 0.929 . S
H971 C999 0.930 . S
H972 C1000 0.929 . S
H973 C1002 0.930 . S
H974 C979 0.930 . S
H975 C983 0.930 . S
O976 Co945 2.037 . S
O976 C996 1.234 . S
C977 O951 1.269 . S
C977 O952 1.257 . S
C978 H953 0.930 . S
C978 C981 1.388 . S
C978 C983 1.418 . S
C979 H974 0.930 . S
C979 C982 1.404 . S
C979 C983 1.353 . S
N980 Co945 2.145 . S
N980 C981 1.397 . S
N980 C982 1.334 . S
C981 H962 0.929 . S
C981 C978 1.388 . S
C981 N980 1.397 . S
C982 H963 0.929 . S
C982 C979 1.404 . S
C982 N980 1.334 . S
C983 H975 0.930 . S
C983 C978 1.418 . S
C983 C979 1.353 . S
C984 H954 0.930 . S
C984 N985 1.330 . S
C984 C986 1.446 . S
N985 Co944 2.151 . S
N985 C984 1.330 . S
N985 C989 1.418 . S
C986 H965 0.929 . S
C986 C984 1.446 . S
C986 C987 1.332 . S
C987 H967 0.931 . S
C987 C986 1.332 . S
C987 C988 1.267 . S
C988 H956 0.929 . S
C988 C987 1.267 . S
C988 C989 1.251 . S
C989 H959 0.929 . S
C989 N985 1.418 . S
C989 C988 1.251 . S
C990 H957 0.930 . S
C990 C992 1.406 . S
C990 C995 1.261 . S
C991 H958 0.930 . S
C991 N993 1.325 . S
C991 C994 1.357 . S
C992 H960 0.928 . S
C992 C990 1.406 . S
C992 N993 1.261 . S
N993 Co944 2.214 . S
N993 C991 1.325 . S
N993 C992 1.261 . S
C994 H964 0.931 . S
C994 C991 1.357 . S
C994 C995 1.312 . S
C995 H966 0.930 . S
C995 C990 1.261 . S
C995 C994 1.312 . S
C996 O968 1.214 . S
C996 O976 1.234 . S
C997 H969 0.929 . S
C997 C1000 1.391 . S
C997 C1002 1.391 . S
C998 H970 0.929 . S
C998 C999 1.390 . S
C998 N1001 1.391 . S
C999 H971 0.930 . S
C999 C998 1.390 . S
C999 C1000 1.392 . S
C1000 H972 0.929 . S
C1000 C997 1.391 . S
C1000 C999 1.392 . S
N1001 Co945 2.257 . S
N1001 C998 1.391 . S
N1001 C1002 1.388 . S
C1002 H973 0.930 . S
C1002 C997 1.391 . S
C1002 N1001 1.388 . S
Co1003 O1005 2.143 . S
Co1003 O1011 2.074 . S
Co1003 O1014 2.093 . S
Co1003 O1027 2.097 . S
Co1003 N1044 2.151 . S
Co1003 N1052 2.214 . S
Co1004 O1005 2.160 . S
Co1004 O1010 2.058 . S
Co1004 O1020 2.057 . S
Co1004 O1035 2.037 . S
Co1004 N1039 2.145 . S
Co1004 N1060 2.257 . S
O1005 Co1003 2.143 . S
O1005 Co1004 2.160 . S
C1006 O1007 1.278 . S
C1006 O1014 1.224 . S
O1007 C1006 1.278 . S
C1008 O1009 1.245 . S
C1008 O1020 1.232 . S
O1009 C1008 1.245 . S
O1010 Co1004 2.058 . S
O1010 C1036 1.269 . S
O1011 Co1003 2.074 . S
O1011 C1036 1.257 . S
H1012 C1037 0.930 . S
H1013 C1043 0.930 . S
O1014 Co1003 2.093 . S
O1014 C1006 1.224 . S
H1015 C1047 0.929 . S
H1016 C1049 0.930 . S
H1017 C1050 0.930 . S
H1018 C1048 0.929 . S
H1019 C1051 0.928 . S
O1020 Co1004 2.057 . S
O1020 C1008 1.232 . S
H1021 C1040 0.929 . S
H1022 C1041 0.929 . S
H1023 C1053 0.931 . S
H1024 C1045 0.929 . S
H1025 C1054 0.930 . S
H1026 C1046 0.931 . S
O1027 Co1003 2.097 . S
O1027 C1055 1.214 . S
H1028 C1056 0.929 . S
H1029 C1057 0.929 . S
H1030 C1058 0.930 . S
H1031 C1059 0.929 . S
H1032 C1061 0.930 . S
H1033 C1038 0.930 . S
H1034 C1042 0.930 . S
O1035 Co1004 2.037 . S
O1035 C1055 1.234 . S
C1036 O1010 1.269 . S
C1036 O1011 1.257 . S
C1037 H1012 0.930 . S
C1037 C1040 1.388 . S
C1037 C1042 1.418 . S
C1038 H1033 0.930 . S
C1038 C1041 1.404 . S
C1038 C1042 1.353 . S
N1039 Co1004 2.145 . S
N1039 C1040 1.397 . S
N1039 C1041 1.334 . S
C1040 H1021 0.929 . S
C1040 C1037 1.388 . S
C1040 N1039 1.397 . S
C1041 H1022 0.929 . S
C1041 C1038 1.404 . S
C1041 N1039 1.334 . S
C1042 H1034 0.930 . S
C1042 C1037 1.418 . S
C1042 C1038 1.353 . S
C1043 H1013 0.930 . S
C1043 N1044 1.330 . S
C1043 C1045 1.446 . S
N1044 Co1003 2.151 . S
N1044 C1043 1.330 . S
N1044 C1048 1.418 . S
C1045 H1024 0.929 . S
C1045 C1043 1.446 . S
C1045 C1046 1.332 . S
C1046 H1026 0.931 . S
C1046 C1045 1.332 . S
C1046 C1047 1.267 . S
C1047 H1015 0.929 . S
C1047 C1046 1.267 . S
C1047 C1048 1.251 . S
C1048 H1018 0.929 . S
C1048 N1044 1.418 . S
C1048 C1047 1.251 . S
C1049 H1016 0.930 . S
C1049 C1051 1.406 . S
C1049 C1054 1.261 . S
C1050 H1017 0.930 . S
C1050 N1052 1.325 . S
C1050 C1053 1.357 . S
C1051 H1019 0.928 . S
C1051 C1049 1.406 . S
C1051 N1052 1.261 . S
N1052 Co1003 2.214 . S
N1052 C1050 1.325 . S
N1052 C1051 1.261 . S
C1053 H1023 0.931 . S
C1053 C1050 1.357 . S
C1053 C1054 1.312 . S
C1054 H1025 0.930 . S
C1054 C1049 1.261 . S
C1054 C1053 1.312 . S
C1055 O1027 1.214 . S
C1055 O1035 1.234 . S
C1056 H1028 0.929 . S
C1056 C1059 1.391 . S
C1056 C1061 1.391 . S
C1057 H1029 0.929 . S
C1057 C1058 1.390 . S
C1057 N1060 1.391 . S
C1058 H1030 0.930 . S
C1058 C1057 1.390 . S
C1058 C1059 1.392 . S
C1059 H1031 0.929 . S
C1059 C1056 1.391 . S
C1059 C1058 1.392 . S
N1060 Co1004 2.257 . S
N1060 C1057 1.391 . S
N1060 C1061 1.388 . S
C1061 H1032 0.930 . S
C1061 C1056 1.391 . S
C1061 N1060 1.388 . S
C1062 C1063 1.349 . S
C1062 C1064 1.327 . S
C1062 H1087 0.950 . S
C1063 C1062 1.349 . S
C1063 C1079 1.349 . S
C1064 C1062 1.327 . S
C1064 C1083 1.429 . S
C1064 H1088 0.950 . S
C1065 C1082 1.574 . S
C1065 C1084 1.368 . S
C1065 H1089 0.949 . S
H1066 C1070 0.949 . S
C1067 C1068 1.349 . S
C1067 C1069 1.327 . S
C1067 H1090 0.950 . S
C1068 C1067 1.349 . S
C1068 C1080 1.349 . S
C1069 C1067 1.327 . S
C1069 C1085 1.429 . S
C1069 H1091 0.950 . S
C1070 H1066 0.949 . S
C1070 C1078 1.574 . S
C1070 C1086 1.368 . S
H1071 C1079 0.950 . S
H1072 C1077 0.950 . S
H1073 C1078 0.949 . S
H1074 C1080 0.950 . S
H1075 C1081 0.950 . S
H1076 C1082 0.949 . S
C1077 H1072 0.950 . S
C1077 C1079 1.327 . S
C1077 C1083 1.429 . S
C1078 C1070 1.574 . S
C1078 H1073 0.949 . S
C1078 C1084 1.368 . S
C1079 C1063 1.349 . S
C1079 H1071 0.950 . S
C1079 C1077 1.327 . S
C1080 C1068 1.349 . S
C1080 H1074 0.950 . S
C1080 C1081 1.327 . S
C1081 H1075 0.950 . S
C1081 C1080 1.327 . S
C1081 C1085 1.429 . S
C1082 C1065 1.574 . S
C1082 H1076 0.949 . S
C1082 C1086 1.368 . S
C1083 C1064 1.429 . S
C1083 C1077 1.429 . S
C1083 C1084 1.523 . S
C1084 C1065 1.368 . S
C1084 C1078 1.368 . S
C1084 C1083 1.523 . S
C1085 C1069 1.429 . S
C1085 C1081 1.429 . S
C1085 C1086 1.523 . S
C1086 C1070 1.368 . S
C1086 C1082 1.368 . S
C1086 C1085 1.523 . S
H1087 C1062 0.950 . S
H1088 C1064 0.950 . S
H1089 C1065 0.949 . S
H1090 C1067 0.950 . S
H1091 C1069 0.950 . S
C1092 C1093 1.349 . S
C1092 C1094 1.327 . S
C1092 H1117 0.950 . S
C1093 C1092 1.349 . S
C1093 C1109 1.349 . S
C1094 C1092 1.327 . S
C1094 C1113 1.429 . S
C1094 H1118 0.950 . S
C1095 C1112 1.574 . S
C1095 C1114 1.368 . S
C1095 H1119 0.949 . S
H1096 C1100 0.949 . S
C1097 C1098 1.349 . S
C1097 C1099 1.327 . S
C1097 H1120 0.950 . S
C1098 C1097 1.349 . S
C1098 C1110 1.349 . S
C1099 C1097 1.327 . S
C1099 C1115 1.429 . S
C1099 H1121 0.950 . S
C1100 H1096 0.949 . S
C1100 C1108 1.574 . S
C1100 C1116 1.368 . S
H1101 C1109 0.950 . S
H1102 C1107 0.950 . S
H1103 C1108 0.949 . S
H1104 C1110 0.950 . S
H1105 C1111 0.950 . S
H1106 C1112 0.949 . S
C1107 H1102 0.950 . S
C1107 C1109 1.327 . S
C1107 C1113 1.429 . S
C1108 C1100 1.574 . S
C1108 H1103 0.949 . S
C1108 C1114 1.368 . S
C1109 C1093 1.349 . S
C1109 H1101 0.950 . S
C1109 C1107 1.327 . S
C1110 C1098 1.349 . S
C1110 H1104 0.950 . S
C1110 C1111 1.327 . S
C1111 H1105 0.950 . S
C1111 C1110 1.327 . S
C1111 C1115 1.429 . S
C1112 C1095 1.574 . S
C1112 H1106 0.949 . S
C1112 C1116 1.368 . S
C1113 C1094 1.429 . S
C1113 C1107 1.429 . S
C1113 C1114 1.523 . S
C1114 C1095 1.368 . S
C1114 C1108 1.368 . S
C1114 C1113 1.523 . S
C1115 C1099 1.429 . S
C1115 C1111 1.429 . S
C1115 C1116 1.523 . S
C1116 C1100 1.368 . S
C1116 C1112 1.368 . S
C1116 C1115 1.523 . S
H1117 C1092 0.950 . S
H1118 C1094 0.950 . S
H1119 C1095 0.949 . S
H1120 C1097 0.950 . S
H1121 C1099 0.950 . S
C1122 C1123 1.349 . S
C1122 C1124 1.327 . S
C1122 H1147 0.950 . S
C1123 C1122 1.349 . S
C1123 C1139 1.349 . S
C1124 C1122 1.327 . S
C1124 C1143 1.429 . S
C1124 H1148 0.950 . S
C1125 C1142 1.574 . S
C1125 C1144 1.368 . S
C1125 H1149 0.949 . S
H1126 C1130 0.949 . S
C1127 C1128 1.349 . S
C1127 C1129 1.327 . S
C1127 H1150 0.950 . S
C1128 C1127 1.349 . S
C1128 C1140 1.349 . S
C1129 C1127 1.327 . S
C1129 C1145 1.429 . S
C1129 H1151 0.950 . S
C1130 H1126 0.949 . S
C1130 C1138 1.574 . S
C1130 C1146 1.368 . S
H1131 C1139 0.950 . S
H1132 C1137 0.950 . S
H1133 C1138 0.949 . S
H1134 C1140 0.950 . S
H1135 C1141 0.950 . S
H1136 C1142 0.949 . S
C1137 H1132 0.950 . S
C1137 C1139 1.327 . S
C1137 C1143 1.429 . S
C1138 C1130 1.574 . S
C1138 H1133 0.949 . S
C1138 C1144 1.368 . S
C1139 C1123 1.349 . S
C1139 H1131 0.950 . S
C1139 C1137 1.327 . S
C1140 C1128 1.349 . S
C1140 H1134 0.950 . S
C1140 C1141 1.327 . S
C1141 H1135 0.950 . S
C1141 C1140 1.327 . S
C1141 C1145 1.429 . S
C1142 C1125 1.574 . S
C1142 H1136 0.949 . S
C1142 C1146 1.368 . S
C1143 C1124 1.429 . S
C1143 C1137 1.429 . S
C1143 C1144 1.523 . S
C1144 C1125 1.368 . S
C1144 C1138 1.368 . S
C1144 C1143 1.523 . S
C1145 C1129 1.429 . S
C1145 C1141 1.429 . S
C1145 C1146 1.523 . S
C1146 C1130 1.368 . S
C1146 C1142 1.368 . S
C1146 C1145 1.523 . S
H1147 C1122 0.950 . S
H1148 C1124 0.950 . S
H1149 C1125 0.949 . S
H1150 C1127 0.950 . S
H1151 C1129 0.950 . S
C1152 C1153 1.349 . S
C1152 C1154 1.327 . S
C1152 H1177 0.950 . S
C1153 C1152 1.349 . S
C1153 C1169 1.349 . S
C1154 C1152 1.327 . S
C1154 C1173 1.429 . S
C1154 H1178 0.950 . S
C1155 C1172 1.574 . S
C1155 C1174 1.368 . S
C1155 H1179 0.949 . S
H1156 C1160 0.949 . S
C1157 C1158 1.349 . S
C1157 C1159 1.327 . S
C1157 H1180 0.950 . S
C1158 C1157 1.349 . S
C1158 C1170 1.349 . S
C1159 C1157 1.327 . S
C1159 C1175 1.429 . S
C1159 H1181 0.950 . S
C1160 H1156 0.949 . S
C1160 C1168 1.574 . S
C1160 C1176 1.368 . S
H1161 C1169 0.950 . S
H1162 C1167 0.950 . S
H1163 C1168 0.949 . S
H1164 C1170 0.950 . S
H1165 C1171 0.950 . S
H1166 C1172 0.949 . S
C1167 H1162 0.950 . S
C1167 C1169 1.327 . S
C1167 C1173 1.429 . S
C1168 C1160 1.574 . S
C1168 H1163 0.949 . S
C1168 C1174 1.368 . S
C1169 C1153 1.349 . S
C1169 H1161 0.950 . S
C1169 C1167 1.327 . S
C1170 C1158 1.349 . S
C1170 H1164 0.950 . S
C1170 C1171 1.327 . S
C1171 H1165 0.950 . S
C1171 C1170 1.327 . S
C1171 C1175 1.429 . S
C1172 C1155 1.574 . S
C1172 H1166 0.949 . S
C1172 C1176 1.368 . S
C1173 C1154 1.429 . S
C1173 C1167 1.429 . S
C1173 C1174 1.523 . S
C1174 C1155 1.368 . S
C1174 C1168 1.368 . S
C1174 C1173 1.523 . S
C1175 C1159 1.429 . S
C1175 C1171 1.429 . S
C1175 C1176 1.523 . S
C1176 C1160 1.368 . S
C1176 C1172 1.368 . S
C1176 C1175 1.523 . S
H1177 C1152 0.950 . S
H1178 C1154 0.950 . S
H1179 C1155 0.949 . S
H1180 C1157 0.950 . S
H1181 C1159 0.950 . S
C1182 C1183 1.349 . S
C1182 C1184 1.327 . S
C1182 H1207 0.950 . S
C1183 C1182 1.349 . S
C1183 C1199 1.349 . S
C1184 C1182 1.327 . S
C1184 C1203 1.429 . S
C1184 H1208 0.950 . S
C1185 C1202 1.574 . S
C1185 C1204 1.368 . S
C1185 H1209 0.949 . S
H1186 C1190 0.949 . S
C1187 C1188 1.349 . S
C1187 C1189 1.327 . S
C1187 H1210 0.950 . S
C1188 C1187 1.349 . S
C1188 C1200 1.349 . S
C1189 C1187 1.327 . S
C1189 C1205 1.429 . S
C1189 H1211 0.950 . S
C1190 H1186 0.949 . S
C1190 C1198 1.574 . S
C1190 C1206 1.368 . S
H1191 C1199 0.950 . S
H1192 C1197 0.950 . S
H1193 C1198 0.949 . S
H1194 C1200 0.950 . S
H1195 C1201 0.950 . S
H1196 C1202 0.949 . S
C1197 H1192 0.950 . S
C1197 C1199 1.327 . S
C1197 C1203 1.429 . S
C1198 C1190 1.574 . S
C1198 H1193 0.949 . S
C1198 C1204 1.368 . S
C1199 C1183 1.349 . S
C1199 H1191 0.950 . S
C1199 C1197 1.327 . S
C1200 C1188 1.349 . S
C1200 H1194 0.950 . S
C1200 C1201 1.327 . S
C1201 H1195 0.950 . S
C1201 C1200 1.327 . S
C1201 C1205 1.429 . S
C1202 C1185 1.574 . S
C1202 H1196 0.949 . S
C1202 C1206 1.368 . S
C1203 C1184 1.429 . S
C1203 C1197 1.429 . S
C1203 C1204 1.523 . S
C1204 C1185 1.368 . S
C1204 C1198 1.368 . S
C1204 C1203 1.523 . S
C1205 C1189 1.429 . S
C1205 C1201 1.429 . S
C1205 C1206 1.523 . S
C1206 C1190 1.368 . S
C1206 C1202 1.368 . S
C1206 C1205 1.523 . S
H1207 C1182 0.950 . S
H1208 C1184 0.950 . S
H1209 C1185 0.949 . S
H1210 C1187 0.950 . S
H1211 C1189 0.950 . S
C1212 C1213 1.349 . S
C1212 C1214 1.327 . S
C1212 H1237 0.950 . S
C1213 C1212 1.349 . S
C1213 C1229 1.349 . S
C1214 C1212 1.327 . S
C1214 C1233 1.429 . S
C1214 H1238 0.950 . S
C1215 C1232 1.574 . S
C1215 C1234 1.368 . S
C1215 H1239 0.949 . S
H1216 C1220 0.949 . S
C1217 C1218 1.349 . S
C1217 C1219 1.327 . S
C1217 H1240 0.950 . S
C1218 C1217 1.349 . S
C1218 C1230 1.349 . S
C1219 C1217 1.327 . S
C1219 C1235 1.429 . S
C1219 H1241 0.950 . S
C1220 H1216 0.949 . S
C1220 C1228 1.574 . S
C1220 C1236 1.368 . S
H1221 C1229 0.950 . S
H1222 C1227 0.950 . S
H1223 C1228 0.949 . S
H1224 C1230 0.950 . S
H1225 C1231 0.950 . S
H1226 C1232 0.949 . S
C1227 H1222 0.950 . S
C1227 C1229 1.327 . S
C1227 C1233 1.429 . S
C1228 C1220 1.574 . S
C1228 H1223 0.949 . S
C1228 C1234 1.368 . S
C1229 C1213 1.349 . S
C1229 H1221 0.950 . S
C1229 C1227 1.327 . S
C1230 C1218 1.349 . S
C1230 H1224 0.950 . S
C1230 C1231 1.327 . S
C1231 H1225 0.950 . S
C1231 C1230 1.327 . S
C1231 C1235 1.429 . S
C1232 C1215 1.574 . S
C1232 H1226 0.949 . S
C1232 C1236 1.368 . S
C1233 C1214 1.429 . S
C1233 C1227 1.429 . S
C1233 C1234 1.523 . S
C1234 C1215 1.368 . S
C1234 C1228 1.368 . S
C1234 C1233 1.523 . S
C1235 C1219 1.429 . S
C1235 C1231 1.429 . S
C1235 C1236 1.523 . S
C1236 C1220 1.368 . S
C1236 C1232 1.368 . S
C1236 C1235 1.523 . S
H1237 C1212 0.950 . S
H1238 C1214 0.950 . S
H1239 C1215 0.949 . S
H1240 C1217 0.950 . S
H1241 C1219 0.950 . S
C1242 C1243 1.349 . S
C1242 C1244 1.327 . S
C1242 H1267 0.950 . S
C1243 C1242 1.349 . S
C1243 C1259 1.349 . S
C1244 C1242 1.327 . S
C1244 C1263 1.429 . S
C1244 H1268 0.950 . S
C1245 C1262 1.574 1_655 S
C1245 C1264 1.368 . S
C1245 H1269 0.949 . S
H1246 C1250 0.949 . S
C1247 C1248 1.349 . S
C1247 C1249 1.327 . S
C1247 H1270 0.950 . S
C1248 C1247 1.349 . S
C1248 C1260 1.349 . S
C1249 C1247 1.327 . S
C1249 C1265 1.429 . S
C1249 H1271 0.950 . S
C1250 H1246 0.949 . S
C1250 C1258 1.574 1_455 S
C1250 C1266 1.368 . S
H1251 C1259 0.950 . S
H1252 C1257 0.950 . S
H1253 C1258 0.949 . S
H1254 C1260 0.950 . S
H1255 C1261 0.950 . S
H1256 C1262 0.949 . S
C1257 H1252 0.950 . S
C1257 C1259 1.327 . S
C1257 C1263 1.429 . S
C1258 C1250 1.574 1_655 S
C1258 H1253 0.949 . S
C1258 C1264 1.368 . S
C1259 C1243 1.349 . S
C1259 H1251 0.950 . S
C1259 C1257 1.327 . S
C1260 C1248 1.349 . S
C1260 H1254 0.950 . S
C1260 C1261 1.327 . S
C1261 H1255 0.950 . S
C1261 C1260 1.327 . S
C1261 C1265 1.429 . S
C1262 C1245 1.574 1_455 S
C1262 H1256 0.949 . S
C1262 C1266 1.368 . S
C1263 C1244 1.429 . S
C1263 C1257 1.429 . S
C1263 C1264 1.523 . S
C1264 C1245 1.368 . S
C1264 C1258 1.368 . S
C1264 C1263 1.523 . S
C1265 C1249 1.429 . S
C1265 C1261 1.429 . S
C1265 C1266 1.523 . S
C1266 C1250 1.368 . S
C1266 C1262 1.368 . S
C1266 C1265 1.523 . S
H1267 C1242 0.950 . S
H1268 C1244 0.950 . S
H1269 C1245 0.949 . S
H1270 C1247 0.950 . S
H1271 C1249 0.950 . S
C1272 C1273 1.349 . S
C1272 C1274 1.327 . S
C1272 H1297 0.950 . S
C1273 C1272 1.349 . S
C1273 C1289 1.349 . S
C1274 C1272 1.327 . S
C1274 C1293 1.429 . S
C1274 H1298 0.950 . S
C1275 C1292 1.574 . S
C1275 C1294 1.368 . S
C1275 H1299 0.949 . S
H1276 C1280 0.949 . S
C1277 C1278 1.349 . S
C1277 C1279 1.327 . S
C1277 H1300 0.950 . S
C1278 C1277 1.349 . S
C1278 C1290 1.349 . S
C1279 C1277 1.327 . S
C1279 C1295 1.429 . S
C1279 H1301 0.950 . S
C1280 H1276 0.949 . S
C1280 C1288 1.574 . S
C1280 C1296 1.368 . S
H1281 C1289 0.950 . S
H1282 C1287 0.950 . S
H1283 C1288 0.949 . S
H1284 C1290 0.950 . S
H1285 C1291 0.950 . S
H1286 C1292 0.949 . S
C1287 H1282 0.950 . S
C1287 C1289 1.327 . S
C1287 C1293 1.429 . S
C1288 C1280 1.574 . S
C1288 H1283 0.949 . S
C1288 C1294 1.368 . S
C1289 C1273 1.349 . S
C1289 H1281 0.950 . S
C1289 C1287 1.327 . S
C1290 C1278 1.349 . S
C1290 H1284 0.950 . S
C1290 C1291 1.327 . S
C1291 H1285 0.950 . S
C1291 C1290 1.327 . S
C1291 C1295 1.429 . S
C1292 C1275 1.574 . S
C1292 H1286 0.949 . S
C1292 C1296 1.368 . S
C1293 C1274 1.429 . S
C1293 C1287 1.429 . S
C1293 C1294 1.523 . S
C1294 C1275 1.368 . S
C1294 C1288 1.368 . S
C1294 C1293 1.523 . S
C1295 C1279 1.429 . S
C1295 C1291 1.429 . S
C1295 C1296 1.523 . S
C1296 C1280 1.368 . S
C1296 C1292 1.368 . S
C1296 C1295 1.523 . S
H1297 C1272 0.950 . S
H1298 C1274 0.950 . S
H1299 C1275 0.949 . S
H1300 C1277 0.950 . S
H1301 C1279 0.950 . S
C1302 C1303 1.349 . S
C1302 C1304 1.327 . S
C1302 H1327 0.950 . S
C1303 C1302 1.349 . S
C1303 C1319 1.349 . S
C1304 C1302 1.327 . S
C1304 C1323 1.429 . S
C1304 H1328 0.950 . S
C1305 C1322 1.574 1_545 S
C1305 C1324 1.368 . S
C1305 H1329 0.949 . S
H1306 C1310 0.949 . S
C1307 C1308 1.349 . S
C1307 C1309 1.327 . S
C1307 H1330 0.950 . S
C1308 C1307 1.349 . S
C1308 C1320 1.349 . S
C1309 C1307 1.327 . S
C1309 C1325 1.429 . S
C1309 H1331 0.950 . S
C1310 H1306 0.949 . S
C1310 C1318 1.574 1_565 S
C1310 C1326 1.368 . S
H1311 C1319 0.950 . S
H1312 C1317 0.950 . S
H1313 C1318 0.949 . S
H1314 C1320 0.950 . S
H1315 C1321 0.950 . S
H1316 C1322 0.949 . S
C1317 H1312 0.950 . S
C1317 C1319 1.327 . S
C1317 C1323 1.429 . S
C1318 C1310 1.574 1_545 S
C1318 H1313 0.949 . S
C1318 C1324 1.368 . S
C1319 C1303 1.349 . S
C1319 H1311 0.950 . S
C1319 C1317 1.327 . S
C1320 C1308 1.349 . S
C1320 H1314 0.950 . S
C1320 C1321 1.327 . S
C1321 H1315 0.950 . S
C1321 C1320 1.327 . S
C1321 C1325 1.429 . S
C1322 C1305 1.574 1_565 S
C1322 H1316 0.949 . S
C1322 C1326 1.368 . S
C1323 C1304 1.429 . S
C1323 C1317 1.429 . S
C1323 C1324 1.523 . S
C1324 C1305 1.368 . S
C1324 C1318 1.368 . S
C1324 C1323 1.523 . S
C1325 C1309 1.429 . S
C1325 C1321 1.429 . S
C1325 C1326 1.523 . S
C1326 C1310 1.368 . S
C1326 C1322 1.368 . S
C1326 C1325 1.523 . S
H1327 C1302 0.950 . S
H1328 C1304 0.950 . S
H1329 C1305 0.949 . S
H1330 C1307 0.950 . S
H1331 C1309 0.950 . S
C1332 C1333 1.349 . S
C1332 C1334 1.327 . S
C1332 H1357 0.950 . S
C1333 C1332 1.349 . S
C1333 C1349 1.349 . S
C1334 C1332 1.327 . S
C1334 C1353 1.429 . S
C1334 H1358 0.950 . S
C1335 C1352 1.574 1_455 S
C1335 C1354 1.368 . S
C1335 H1359 0.949 . S
H1336 C1340 0.949 . S
C1337 C1338 1.349 . S
C1337 C1339 1.327 . S
C1337 H1360 0.950 . S
C1338 C1337 1.349 . S
C1338 C1350 1.349 . S
C1339 C1337 1.327 . S
C1339 C1355 1.429 . S
C1339 H1361 0.950 . S
C1340 H1336 0.949 . S
C1340 C1348 1.574 1_655 S
C1340 C1356 1.368 . S
H1341 C1349 0.950 . S
H1342 C1347 0.950 . S
H1343 C1348 0.949 . S
H1344 C1350 0.950 . S
H1345 C1351 0.950 . S
H1346 C1352 0.949 . S
C1347 H1342 0.950 . S
C1347 C1349 1.327 . S
C1347 C1353 1.429 . S
C1348 C1340 1.574 1_455 S
C1348 H1343 0.949 . S
C1348 C1354 1.368 . S
C1349 C1333 1.349 . S
C1349 H1341 0.950 . S
C1349 C1347 1.327 . S
C1350 C1338 1.349 . S
C1350 H1344 0.950 . S
C1350 C1351 1.327 . S
C1351 H1345 0.950 . S
C1351 C1350 1.327 . S
C1351 C1355 1.429 . S
C1352 C1335 1.574 1_655 S
C1352 H1346 0.949 . S
C1352 C1356 1.368 . S
C1353 C1334 1.429 . S
C1353 C1347 1.429 . S
C1353 C1354 1.523 . S
C1354 C1335 1.368 . S
C1354 C1348 1.368 . S
C1354 C1353 1.523 . S
C1355 C1339 1.429 . S
C1355 C1351 1.429 . S
C1355 C1356 1.523 . S
C1356 C1340 1.368 . S
C1356 C1352 1.368 . S
C1356 C1355 1.523 . S
H1357 C1332 0.950 . S
H1358 C1334 0.950 . S
H1359 C1335 0.949 . S
H1360 C1337 0.950 . S
H1361 C1339 0.950 . S
C1362 C1363 1.349 . S
C1362 C1364 1.327 . S
C1362 H1387 0.950 . S
C1363 C1362 1.349 . S
C1363 C1379 1.349 . S
C1364 C1362 1.327 . S
C1364 C1383 1.429 . S
C1364 H1388 0.950 . S
C1365 C1382 1.574 . S
C1365 C1384 1.368 . S
C1365 H1389 0.949 . S
H1366 C1370 0.949 . S
C1367 C1368 1.349 . S
C1367 C1369 1.327 . S
C1367 H1390 0.950 . S
C1368 C1367 1.349 . S
C1368 C1380 1.349 . S
C1369 C1367 1.327 . S
C1369 C1385 1.429 . S
C1369 H1391 0.950 . S
C1370 H1366 0.949 . S
C1370 C1378 1.574 . S
C1370 C1386 1.368 . S
H1371 C1379 0.950 . S
H1372 C1377 0.950 . S
H1373 C1378 0.949 . S
H1374 C1380 0.950 . S
H1375 C1381 0.950 . S
H1376 C1382 0.949 . S
C1377 H1372 0.950 . S
C1377 C1379 1.327 . S
C1377 C1383 1.429 . S
C1378 C1370 1.574 . S
C1378 H1373 0.949 . S
C1378 C1384 1.368 . S
C1379 C1363 1.349 . S
C1379 H1371 0.950 . S
C1379 C1377 1.327 . S
C1380 C1368 1.349 . S
C1380 H1374 0.950 . S
C1380 C1381 1.327 . S
C1381 H1375 0.950 . S
C1381 C1380 1.327 . S
C1381 C1385 1.429 . S
C1382 C1365 1.574 . S
C1382 H1376 0.949 . S
C1382 C1386 1.368 . S
C1383 C1364 1.429 . S
C1383 C1377 1.429 . S
C1383 C1384 1.523 . S
C1384 C1365 1.368 . S
C1384 C1378 1.368 . S
C1384 C1383 1.523 . S
C1385 C1369 1.429 . S
C1385 C1381 1.429 . S
C1385 C1386 1.523 . S
C1386 C1370 1.368 . S
C1386 C1382 1.368 . S
C1386 C1385 1.523 . S
H1387 C1362 0.950 . S
H1388 C1364 0.950 . S
H1389 C1365 0.949 . S
H1390 C1367 0.950 . S
H1391 C1369 0.950 . S
C1392 C1393 1.349 . S
C1392 C1394 1.327 . S
C1392 H1417 0.950 . S
C1393 C1392 1.349 . S
C1393 C1409 1.349 . S
C1394 C1392 1.327 . S
C1394 C1413 1.429 . S
C1394 H1418 0.950 . S
C1395 C1412 1.574 1_545 S
C1395 C1414 1.368 . S
C1395 H1419 0.949 . S
H1396 C1400 0.949 . S
C1397 C1398 1.349 . S
C1397 C1399 1.327 . S
C1397 H1420 0.950 . S
C1398 C1397 1.349 . S
C1398 C1410 1.349 . S
C1399 C1397 1.327 . S
C1399 C1415 1.429 . S
C1399 H1421 0.950 . S
C1400 H1396 0.949 . S
C1400 C1408 1.574 1_565 S
C1400 C1416 1.368 . S
H1401 C1409 0.950 . S
H1402 C1407 0.950 . S
H1403 C1408 0.949 . S
H1404 C1410 0.950 . S
H1405 C1411 0.950 . S
H1406 C1412 0.949 . S
C1407 H1402 0.950 . S
C1407 C1409 1.327 . S
C1407 C1413 1.429 . S
C1408 C1400 1.574 1_545 S
C1408 H1403 0.949 . S
C1408 C1414 1.368 . S
C1409 C1393 1.349 . S
C1409 H1401 0.950 . S
C1409 C1407 1.327 . S
C1410 C1398 1.349 . S
C1410 H1404 0.950 . S
C1410 C1411 1.327 . S
C1411 H1405 0.950 . S
C1411 C1410 1.327 . S
C1411 C1415 1.429 . S
C1412 C1395 1.574 1_565 S
C1412 H1406 0.949 . S
C1412 C1416 1.368 . S
C1413 C1394 1.429 . S
C1413 C1407 1.429 . S
C1413 C1414 1.523 . S
C1414 C1395 1.368 . S
C1414 C1408 1.368 . S
C1414 C1413 1.523 . S
C1415 C1399 1.429 . S
C1415 C1411 1.429 . S
C1415 C1416 1.523 . S
C1416 C1400 1.368 . S
C1416 C1412 1.368 . S
C1416 C1415 1.523 . S
H1417 C1392 0.950 . S
H1418 C1394 0.950 . S
H1419 C1395 0.949 . S
H1420 C1397 0.950 . S
H1421 C1399 0.950 . S
C1422 C1423 1.349 . S
C1422 C1424 1.327 . S
C1422 H1447 0.950 . S
C1423 C1422 1.349 . S
C1423 C1439 1.349 . S
C1424 C1422 1.327 . S
C1424 C1443 1.429 . S
C1424 H1448 0.950 . S
C1425 C1442 1.574 1_565 S
C1425 C1444 1.368 . S
C1425 H1449 0.949 . S
H1426 C1430 0.949 . S
C1427 C1428 1.349 . S
C1427 C1429 1.327 . S
C1427 H1450 0.950 . S
C1428 C1427 1.349 . S
C1428 C1440 1.349 . S
C1429 C1427 1.327 . S
C1429 C1445 1.429 . S
C1429 H1451 0.950 . S
C1430 H1426 0.949 . S
C1430 C1438 1.574 1_545 S
C1430 C1446 1.368 . S
H1431 C1439 0.950 . S
H1432 C1437 0.950 . S
H1433 C1438 0.949 . S
H1434 C1440 0.950 . S
H1435 C1441 0.950 . S
H1436 C1442 0.949 . S
C1437 H1432 0.950 . S
C1437 C1439 1.327 . S
C1437 C1443 1.429 . S
C1438 C1430 1.574 1_565 S
C1438 H1433 0.949 . S
C1438 C1444 1.368 . S
C1439 C1423 1.349 . S
C1439 H1431 0.950 . S
C1439 C1437 1.327 . S
C1440 C1428 1.349 . S
C1440 H1434 0.950 . S
C1440 C1441 1.327 . S
C1441 H1435 0.950 . S
C1441 C1440 1.327 . S
C1441 C1445 1.429 . S
C1442 C1425 1.574 1_545 S
C1442 H1436 0.949 . S
C1442 C1446 1.368 . S
C1443 C1424 1.429 . S
C1443 C1437 1.429 . S
C1443 C1444 1.523 . S
C1444 C1425 1.368 . S
C1444 C1438 1.368 . S
C1444 C1443 1.523 . S
C1445 C1429 1.429 . S
C1445 C1441 1.429 . S
C1445 C1446 1.523 . S
C1446 C1430 1.368 . S
C1446 C1442 1.368 . S
C1446 C1445 1.523 . S
H1447 C1422 0.950 . S
H1448 C1424 0.950 . S
H1449 C1425 0.949 . S
H1450 C1427 0.950 . S
H1451 C1429 0.950 . S
C1452 C1453 1.349 . S
C1452 C1454 1.327 . S
C1452 H1477 0.950 . S
C1453 C1452 1.349 . S
C1453 C1469 1.349 . S
C1454 C1452 1.327 . S
C1454 C1473 1.429 . S
C1454 H1478 0.950 . S
C1455 C1472 1.574 1_455 S
C1455 C1474 1.368 . S
C1455 H1479 0.949 . S
H1456 C1460 0.949 . S
C1457 C1458 1.349 . S
C1457 C1459 1.327 . S
C1457 H1480 0.950 . S
C1458 C1457 1.349 . S
C1458 C1470 1.349 . S
C1459 C1457 1.327 . S
C1459 C1475 1.429 . S
C1459 H1481 0.950 . S
C1460 H1456 0.949 . S
C1460 C1468 1.574 1_655 S
C1460 C1476 1.368 . S
H1461 C1469 0.950 . S
H1462 C1467 0.950 . S
H1463 C1468 0.949 . S
H1464 C1470 0.950 . S
H1465 C1471 0.950 . S
H1466 C1472 0.949 . S
C1467 H1462 0.950 . S
C1467 C1469 1.327 . S
C1467 C1473 1.429 . S
C1468 C1460 1.574 1_455 S
C1468 H1463 0.949 . S
C1468 C1474 1.368 . S
C1469 C1453 1.349 . S
C1469 H1461 0.950 . S
C1469 C1467 1.327 . S
C1470 C1458 1.349 . S
C1470 H1464 0.950 . S
C1470 C1471 1.327 . S
C1471 H1465 0.950 . S
C1471 C1470 1.327 . S
C1471 C1475 1.429 . S
C1472 C1455 1.574 1_655 S
C1472 H1466 0.949 . S
C1472 C1476 1.368 . S
C1473 C1454 1.429 . S
C1473 C1467 1.429 . S
C1473 C1474 1.523 . S
C1474 C1455 1.368 . S
C1474 C1468 1.368 . S
C1474 C1473 1.523 . S
C1475 C1459 1.429 . S
C1475 C1471 1.429 . S
C1475 C1476 1.523 . S
C1476 C1460 1.368 . S
C1476 C1472 1.368 . S
C1476 C1475 1.523 . S
H1477 C1452 0.950 . S
H1478 C1454 0.950 . S
H1479 C1455 0.949 . S
H1480 C1457 0.950 . S
H1481 C1459 0.950 . S
C1482 C1483 1.349 . S
C1482 C1484 1.327 . S
C1482 H1507 0.950 . S
C1483 C1482 1.349 . S
C1483 C1499 1.349 . S
C1484 C1482 1.327 . S
C1484 C1503 1.429 . S
C1484 H1508 0.950 . S
C1485 C1502 1.574 . S
C1485 C1504 1.368 . S
C1485 H1509 0.949 . S
H1486 C1490 0.949 . S
C1487 C1488 1.349 . S
C1487 C1489 1.327 . S
C1487 H1510 0.950 . S
C1488 C1487 1.349 . S
C1488 C1500 1.349 . S
C1489 C1487 1.327 . S
C1489 C1505 1.429 . S
C1489 H1511 0.950 . S
C1490 H1486 0.949 . S
C1490 C1498 1.574 . S
C1490 C1506 1.368 . S
H1491 C1499 0.950 . S
H1492 C1497 0.950 . S
H1493 C1498 0.949 . S
H1494 C1500 0.950 . S
H1495 C1501 0.950 . S
H1496 C1502 0.949 . S
C1497 H1492 0.950 . S
C1497 C1499 1.327 . S
C1497 C1503 1.429 . S
C1498 C1490 1.574 . S
C1498 H1493 0.949 . S
C1498 C1504 1.368 . S
C1499 C1483 1.349 . S
C1499 H1491 0.950 . S
C1499 C1497 1.327 . S
C1500 C1488 1.349 . S
C1500 H1494 0.950 . S
C1500 C1501 1.327 . S
C1501 H1495 0.950 . S
C1501 C1500 1.327 . S
C1501 C1505 1.429 . S
C1502 C1485 1.574 . S
C1502 H1496 0.949 . S
C1502 C1506 1.368 . S
C1503 C1484 1.429 . S
C1503 C1497 1.429 . S
C1503 C1504 1.523 . S
C1504 C1485 1.368 . S
C1504 C1498 1.368 . S
C1504 C1503 1.523 . S
C1505 C1489 1.429 . S
C1505 C1501 1.429 . S
C1505 C1506 1.523 . S
C1506 C1490 1.368 . S
C1506 C1502 1.368 . S
C1506 C1505 1.523 . S
H1507 C1482 0.950 . S
H1508 C1484 0.950 . S
H1509 C1485 0.949 . S
H1510 C1487 0.950 . S
H1511 C1489 0.950 . S
C1512 C1513 1.349 . S
C1512 C1514 1.327 . S
C1512 H1537 0.950 . S
C1513 C1512 1.349 . S
C1513 C1529 1.349 . S
C1514 C1512 1.327 . S
C1514 C1533 1.429 . S
C1514 H1538 0.950 . S
C1515 C1532 1.574 . S
C1515 C1534 1.368 . S
C1515 H1539 0.949 . S
H1516 C1520 0.949 . S
C1517 C1518 1.349 . S
C1517 C1519 1.327 . S
C1517 H1540 0.950 . S
C1518 C1517 1.349 . S
C1518 C1530 1.349 . S
C1519 C1517 1.327 . S
C1519 C1535 1.429 . S
C1519 H1541 0.950 . S
C1520 H1516 0.949 . S
C1520 C1528 1.574 . S
C1520 C1536 1.368 . S
H1521 C1529 0.950 . S
H1522 C1527 0.950 . S
H1523 C1528 0.949 . S
H1524 C1530 0.950 . S
H1525 C1531 0.950 . S
H1526 C1532 0.949 . S
C1527 H1522 0.950 . S
C1527 C1529 1.327 . S
C1527 C1533 1.429 . S
C1528 C1520 1.574 . S
C1528 H1523 0.949 . S
C1528 C1534 1.368 . S
C1529 C1513 1.349 . S
C1529 H1521 0.950 . S
C1529 C1527 1.327 . S
C1530 C1518 1.349 . S
C1530 H1524 0.950 . S
C1530 C1531 1.327 . S
C1531 H1525 0.950 . S
C1531 C1530 1.327 . S
C1531 C1535 1.429 . S
C1532 C1515 1.574 . S
C1532 H1526 0.949 . S
C1532 C1536 1.368 . S
C1533 C1514 1.429 . S
C1533 C1527 1.429 . S
C1533 C1534 1.523 . S
C1534 C1515 1.368 . S
C1534 C1528 1.368 . S
C1534 C1533 1.523 . S
C1535 C1519 1.429 . S
C1535 C1531 1.429 . S
C1535 C1536 1.523 . S
C1536 C1520 1.368 . S
C1536 C1532 1.368 . S
C1536 C1535 1.523 . S
H1537 C1512 0.950 . S
H1538 C1514 0.950 . S
H1539 C1515 0.949 . S
H1540 C1517 0.950 . S
H1541 C1519 0.950 . S
C1542 C1543 1.349 . S
C1542 C1544 1.327 . S
C1542 H1567 0.950 . S
C1543 C1542 1.349 . S
C1543 C1559 1.349 . S
C1544 C1542 1.327 . S
C1544 C1563 1.429 . S
C1544 H1568 0.950 . S
C1545 C1562 1.574 . S
C1545 C1564 1.368 . S
C1545 H1569 0.949 . S
H1546 C1550 0.949 . S
C1547 C1548 1.349 . S
C1547 C1549 1.327 . S
C1547 H1570 0.950 . S
C1548 C1547 1.349 . S
C1548 C1560 1.349 . S
C1549 C1547 1.327 . S
C1549 C1565 1.429 . S
C1549 H1571 0.950 . S
C1550 H1546 0.949 . S
C1550 C1558 1.574 . S
C1550 C1566 1.368 . S
H1551 C1559 0.950 . S
H1552 C1557 0.950 . S
H1553 C1558 0.949 . S
H1554 C1560 0.950 . S
H1555 C1561 0.950 . S
H1556 C1562 0.949 . S
C1557 H1552 0.950 . S
C1557 C1559 1.327 . S
C1557 C1563 1.429 . S
C1558 C1550 1.574 . S
C1558 H1553 0.949 . S
C1558 C1564 1.368 . S
C1559 C1543 1.349 . S
C1559 H1551 0.950 . S
C1559 C1557 1.327 . S
C1560 C1548 1.349 . S
C1560 H1554 0.950 . S
C1560 C1561 1.327 . S
C1561 H1555 0.950 . S
C1561 C1560 1.327 . S
C1561 C1565 1.429 . S
C1562 C1545 1.574 . S
C1562 H1556 0.949 . S
C1562 C1566 1.368 . S
C1563 C1544 1.429 . S
C1563 C1557 1.429 . S
C1563 C1564 1.523 . S
C1564 C1545 1.368 . S
C1564 C1558 1.368 . S
C1564 C1563 1.523 . S
C1565 C1549 1.429 . S
C1565 C1561 1.429 . S
C1565 C1566 1.523 . S
C1566 C1550 1.368 . S
C1566 C1562 1.368 . S
C1566 C1565 1.523 . S
H1567 C1542 0.950 . S
H1568 C1544 0.950 . S
H1569 C1545 0.949 . S
H1570 C1547 0.950 . S
H1571 C1549 0.950 . S
C1572 C1573 1.349 . S
C1572 C1574 1.327 . S
C1572 H1597 0.950 . S
C1573 C1572 1.349 . S
C1573 C1589 1.349 . S
C1574 C1572 1.327 . S
C1574 C1593 1.429 . S
C1574 H1598 0.950 . S
C1575 C1592 1.574 . S
C1575 C1594 1.368 . S
C1575 H1599 0.949 . S
H1576 C1580 0.949 . S
C1577 C1578 1.349 . S
C1577 C1579 1.327 . S
C1577 H1600 0.950 . S
C1578 C1577 1.349 . S
C1578 C1590 1.349 . S
C1579 C1577 1.327 . S
C1579 C1595 1.429 . S
C1579 H1601 0.950 . S
C1580 H1576 0.949 . S
C1580 C1588 1.574 . S
C1580 C1596 1.368 . S
H1581 C1589 0.950 . S
H1582 C1587 0.950 . S
H1583 C1588 0.949 . S
H1584 C1590 0.950 . S
H1585 C1591 0.950 . S
H1586 C1592 0.949 . S
C1587 H1582 0.950 . S
C1587 C1589 1.327 . S
C1587 C1593 1.429 . S
C1588 C1580 1.574 . S
C1588 H1583 0.949 . S
C1588 C1594 1.368 . S
C1589 C1573 1.349 . S
C1589 H1581 0.950 . S
C1589 C1587 1.327 . S
C1590 C1578 1.349 . S
C1590 H1584 0.950 . S
C1590 C1591 1.327 . S
C1591 H1585 0.950 . S
C1591 C1590 1.327 . S
C1591 C1595 1.429 . S
C1592 C1575 1.574 . S
C1592 H1586 0.949 . S
C1592 C1596 1.368 . S
C1593 C1574 1.429 . S
C1593 C1587 1.429 . S
C1593 C1594 1.523 . S
C1594 C1575 1.368 . S
C1594 C1588 1.368 . S
C1594 C1593 1.523 . S
C1595 C1579 1.429 . S
C1595 C1591 1.429 . S
C1595 C1596 1.523 . S
C1596 C1580 1.368 . S
C1596 C1592 1.368 . S
C1596 C1595 1.523 . S
H1597 C1572 0.950 . S
H1598 C1574 0.950 . S
H1599 C1575 0.949 . S
H1600 C1577 0.950 . S
H1601 C1579 0.950 . S
C1602 C1603 1.349 . S
C1602 C1604 1.327 . S
C1602 H1627 0.950 . S
C1603 C1602 1.349 . S
C1603 C1619 1.349 . S
C1604 C1602 1.327 . S
C1604 C1623 1.429 . S
C1604 H1628 0.950 . S
C1605 C1622 1.574 . S
C1605 C1624 1.368 . S
C1605 H1629 0.949 . S
H1606 C1610 0.949 . S
C1607 C1608 1.349 . S
C1607 C1609 1.327 . S
C1607 H1630 0.950 . S
C1608 C1607 1.349 . S
C1608 C1620 1.349 . S
C1609 C1607 1.327 . S
C1609 C1625 1.429 . S
C1609 H1631 0.950 . S
C1610 H1606 0.949 . S
C1610 C1618 1.574 . S
C1610 C1626 1.368 . S
H1611 C1619 0.950 . S
H1612 C1617 0.950 . S
H1613 C1618 0.949 . S
H1614 C1620 0.950 . S
H1615 C1621 0.950 . S
H1616 C1622 0.949 . S
C1617 H1612 0.950 . S
C1617 C1619 1.327 . S
C1617 C1623 1.429 . S
C1618 C1610 1.574 . S
C1618 H1613 0.949 . S
C1618 C1624 1.368 . S
C1619 C1603 1.349 . S
C1619 H1611 0.950 . S
C1619 C1617 1.327 . S
C1620 C1608 1.349 . S
C1620 H1614 0.950 . S
C1620 C1621 1.327 . S
C1621 H1615 0.950 . S
C1621 C1620 1.327 . S
C1621 C1625 1.429 . S
C1622 C1605 1.574 . S
C1622 H1616 0.949 . S
C1622 C1626 1.368 . S
C1623 C1604 1.429 . S
C1623 C1617 1.429 . S
C1623 C1624 1.523 . S
C1624 C1605 1.368 . S
C1624 C1618 1.368 . S
C1624 C1623 1.523 . S
C1625 C1609 1.429 . S
C1625 C1621 1.429 . S
C1625 C1626 1.523 . S
C1626 C1610 1.368 . S
C1626 C1622 1.368 . S
C1626 C1625 1.523 . S
H1627 C1602 0.950 . S
H1628 C1604 0.950 . S
H1629 C1605 0.949 . S
H1630 C1607 0.950 . S
H1631 C1609 0.950 . S
C1632 C1633 1.349 . S
C1632 C1634 1.327 . S
C1632 H1657 0.950 . S
C1633 C1632 1.349 . S
C1633 C1649 1.349 . S
C1634 C1632 1.327 . S
C1634 C1653 1.429 . S
C1634 H1658 0.950 . S
C1635 C1652 1.574 . S
C1635 C1654 1.368 . S
C1635 H1659 0.949 . S
H1636 C1640 0.949 . S
C1637 C1638 1.349 . S
C1637 C1639 1.327 . S
C1637 H1660 0.950 . S
C1638 C1637 1.349 . S
C1638 C1650 1.349 . S
C1639 C1637 1.327 . S
C1639 C1655 1.429 . S
C1639 H1661 0.950 . S
C1640 H1636 0.949 . S
C1640 C1648 1.574 . S
C1640 C1656 1.368 . S
H1641 C1649 0.950 . S
H1642 C1647 0.950 . S
H1643 C1648 0.949 . S
H1644 C1650 0.950 . S
H1645 C1651 0.950 . S
H1646 C1652 0.949 . S
C1647 H1642 0.950 . S
C1647 C1649 1.327 . S
C1647 C1653 1.429 . S
C1648 C1640 1.574 . S
C1648 H1643 0.949 . S
C1648 C1654 1.368 . S
C1649 C1633 1.349 . S
C1649 H1641 0.950 . S
C1649 C1647 1.327 . S
C1650 C1638 1.349 . S
C1650 H1644 0.950 . S
C1650 C1651 1.327 . S
C1651 H1645 0.950 . S
C1651 C1650 1.327 . S
C1651 C1655 1.429 . S
C1652 C1635 1.574 . S
C1652 H1646 0.949 . S
C1652 C1656 1.368 . S
C1653 C1634 1.429 . S
C1653 C1647 1.429 . S
C1653 C1654 1.523 . S
C1654 C1635 1.368 . S
C1654 C1648 1.368 . S
C1654 C1653 1.523 . S
C1655 C1639 1.429 . S
C1655 C1651 1.429 . S
C1655 C1656 1.523 . S
C1656 C1640 1.368 . S
C1656 C1652 1.368 . S
C1656 C1655 1.523 . S
H1657 C1632 0.950 . S
H1658 C1634 0.950 . S
H1659 C1635 0.949 . S
H1660 C1637 0.950 . S
H1661 C1639 0.950 . S
C1662 C1663 1.349 . S
C1662 C1664 1.327 . S
C1662 H1687 0.950 . S
C1663 C1662 1.349 . S
C1663 C1679 1.349 . S
C1664 C1662 1.327 . S
C1664 C1683 1.429 . S
C1664 H1688 0.950 . S
C1665 C1682 1.574 . S
C1665 C1684 1.368 . S
C1665 H1689 0.949 . S
H1666 C1670 0.949 . S
C1667 C1668 1.349 . S
C1667 C1669 1.327 . S
C1667 H1690 0.950 . S
C1668 C1667 1.349 . S
C1668 C1680 1.349 . S
C1669 C1667 1.327 . S
C1669 C1685 1.429 . S
C1669 H1691 0.950 . S
C1670 H1666 0.949 . S
C1670 C1678 1.574 . S
C1670 C1686 1.368 . S
H1671 C1679 0.950 . S
H1672 C1677 0.950 . S
H1673 C1678 0.949 . S
H1674 C1680 0.950 . S
H1675 C1681 0.950 . S
H1676 C1682 0.949 . S
C1677 H1672 0.950 . S
C1677 C1679 1.327 . S
C1677 C1683 1.429 . S
C1678 C1670 1.574 . S
C1678 H1673 0.949 . S
C1678 C1684 1.368 . S
C1679 C1663 1.349 . S
C1679 H1671 0.950 . S
C1679 C1677 1.327 . S
C1680 C1668 1.349 . S
C1680 H1674 0.950 . S
C1680 C1681 1.327 . S
C1681 H1675 0.950 . S
C1681 C1680 1.327 . S
C1681 C1685 1.429 . S
C1682 C1665 1.574 . S
C1682 H1676 0.949 . S
C1682 C1686 1.368 . S
C1683 C1664 1.429 . S
C1683 C1677 1.429 . S
C1683 C1684 1.523 . S
C1684 C1665 1.368 . S
C1684 C1678 1.368 . S
C1684 C1683 1.523 . S
C1685 C1669 1.429 . S
C1685 C1681 1.429 . S
C1685 C1686 1.523 . S
C1686 C1670 1.368 . S
C1686 C1682 1.368 . S
C1686 C1685 1.523 . S
H1687 C1662 0.950 . S
H1688 C1664 0.950 . S
H1689 C1665 0.949 . S
H1690 C1667 0.950 . S
H1691 C1669 0.950 . S
C1692 C1693 1.349 . S
C1692 C1694 1.327 . S
C1692 H1717 0.950 . S
C1693 C1692 1.349 . S
C1693 C1709 1.349 . S
C1694 C1692 1.327 . S
C1694 C1713 1.429 . S
C1694 H1718 0.950 . S
C1695 C1712 1.574 . S
C1695 C1714 1.368 . S
C1695 H1719 0.949 . S
H1696 C1700 0.949 . S
C1697 C1698 1.349 . S
C1697 C1699 1.327 . S
C1697 H1720 0.950 . S
C1698 C1697 1.349 . S
C1698 C1710 1.349 . S
C1699 C1697 1.327 . S
C1699 C1715 1.429 . S
C1699 H1721 0.950 . S
C1700 H1696 0.949 . S
C1700 C1708 1.574 . S
C1700 C1716 1.368 . S
H1701 C1709 0.950 . S
H1702 C1707 0.950 . S
H1703 C1708 0.949 . S
H1704 C1710 0.950 . S
H1705 C1711 0.950 . S
H1706 C1712 0.949 . S
C1707 H1702 0.950 . S
C1707 C1709 1.327 . S
C1707 C1713 1.429 . S
C1708 C1700 1.574 . S
C1708 H1703 0.949 . S
C1708 C1714 1.368 . S
C1709 C1693 1.349 . S
C1709 H1701 0.950 . S
C1709 C1707 1.327 . S
C1710 C1698 1.349 . S
C1710 H1704 0.950 . S
C1710 C1711 1.327 . S
C1711 H1705 0.950 . S
C1711 C1710 1.327 . S
C1711 C1715 1.429 . S
C1712 C1695 1.574 . S
C1712 H1706 0.949 . S
C1712 C1716 1.368 . S
C1713 C1694 1.429 . S
C1713 C1707 1.429 . S
C1713 C1714 1.523 . S
C1714 C1695 1.368 . S
C1714 C1708 1.368 . S
C1714 C1713 1.523 . S
C1715 C1699 1.429 . S
C1715 C1711 1.429 . S
C1715 C1716 1.523 . S
C1716 C1700 1.368 . S
C1716 C1712 1.368 . S
C1716 C1715 1.523 . S
H1717 C1692 0.950 . S
H1718 C1694 0.950 . S
H1719 C1695 0.949 . S
H1720 C1697 0.950 . S
H1721 C1699 0.950 . S
C1722 C1723 1.349 . S
C1722 C1724 1.327 . S
C1722 H1747 0.950 . S
C1723 C1722 1.349 . S
C1723 C1739 1.349 . S
C1724 C1722 1.327 . S
C1724 C1743 1.429 . S
C1724 H1748 0.950 . S
C1725 C1742 1.574 . S
C1725 C1744 1.368 . S
C1725 H1749 0.949 . S
H1726 C1730 0.949 . S
C1727 C1728 1.349 . S
C1727 C1729 1.327 . S
C1727 H1750 0.950 . S
C1728 C1727 1.349 . S
C1728 C1740 1.349 . S
C1729 C1727 1.327 . S
C1729 C1745 1.429 . S
C1729 H1751 0.950 . S
C1730 H1726 0.949 . S
C1730 C1738 1.574 . S
C1730 C1746 1.368 . S
H1731 C1739 0.950 . S
H1732 C1737 0.950 . S
H1733 C1738 0.949 . S
H1734 C1740 0.950 . S
H1735 C1741 0.950 . S
H1736 C1742 0.949 . S
C1737 H1732 0.950 . S
C1737 C1739 1.327 . S
C1737 C1743 1.429 . S
C1738 C1730 1.574 . S
C1738 H1733 0.949 . S
C1738 C1744 1.368 . S
C1739 C1723 1.349 . S
C1739 H1731 0.950 . S
C1739 C1737 1.327 . S
C1740 C1728 1.349 . S
C1740 H1734 0.950 . S
C1740 C1741 1.327 . S
C1741 H1735 0.950 . S
C1741 C1740 1.327 . S
C1741 C1745 1.429 . S
C1742 C1725 1.574 . S
C1742 H1736 0.949 . S
C1742 C1746 1.368 . S
C1743 C1724 1.429 . S
C1743 C1737 1.429 . S
C1743 C1744 1.523 . S
C1744 C1725 1.368 . S
C1744 C1738 1.368 . S
C1744 C1743 1.523 . S
C1745 C1729 1.429 . S
C1745 C1741 1.429 . S
C1745 C1746 1.523 . S
C1746 C1730 1.368 . S
C1746 C1742 1.368 . S
C1746 C1745 1.523 . S
H1747 C1722 0.950 . S
H1748 C1724 0.950 . S
H1749 C1725 0.949 . S
H1750 C1727 0.950 . S
H1751 C1729 0.950 . S
C1752 C1753 1.349 . S
C1752 C1754 1.327 . S
C1752 H1777 0.950 . S
C1753 C1752 1.349 . S
C1753 C1769 1.349 . S
C1754 C1752 1.327 . S
C1754 C1773 1.429 . S
C1754 H1778 0.950 . S
C1755 C1772 1.574 . S
C1755 C1774 1.368 . S
C1755 H1779 0.949 . S
H1756 C1760 0.949 . S
C1757 C1758 1.349 . S
C1757 C1759 1.327 . S
C1757 H1780 0.950 . S
C1758 C1757 1.349 . S
C1758 C1770 1.349 . S
C1759 C1757 1.327 . S
C1759 C1775 1.429 . S
C1759 H1781 0.950 . S
C1760 H1756 0.949 . S
C1760 C1768 1.574 . S
C1760 C1776 1.368 . S
H1761 C1769 0.950 . S
H1762 C1767 0.950 . S
H1763 C1768 0.949 . S
H1764 C1770 0.950 . S
H1765 C1771 0.950 . S
H1766 C1772 0.949 . S
C1767 H1762 0.950 . S
C1767 C1769 1.327 . S
C1767 C1773 1.429 . S
C1768 C1760 1.574 . S
C1768 H1763 0.949 . S
C1768 C1774 1.368 . S
C1769 C1753 1.349 . S
C1769 H1761 0.950 . S
C1769 C1767 1.327 . S
C1770 C1758 1.349 . S
C1770 H1764 0.950 . S
C1770 C1771 1.327 . S
C1771 H1765 0.950 . S
C1771 C1770 1.327 . S
C1771 C1775 1.429 . S
C1772 C1755 1.574 . S
C1772 H1766 0.949 . S
C1772 C1776 1.368 . S
C1773 C1754 1.429 . S
C1773 C1767 1.429 . S
C1773 C1774 1.523 . S
C1774 C1755 1.368 . S
C1774 C1768 1.368 . S
C1774 C1773 1.523 . S
C1775 C1759 1.429 . S
C1775 C1771 1.429 . S
C1775 C1776 1.523 . S
C1776 C1760 1.368 . S
C1776 C1772 1.368 . S
C1776 C1775 1.523 . S
H1777 C1752 0.950 . S
H1778 C1754 0.950 . S
H1779 C1755 0.949 . S
H1780 C1757 0.950 . S
H1781 C1759 0.950 . S
C1782 C1783 1.349 . S
C1782 C1784 1.327 . S
C1782 H1807 0.950 . S
C1783 C1782 1.349 . S
C1783 C1799 1.349 . S
C1784 C1782 1.327 . S
C1784 C1803 1.429 . S
C1784 H1808 0.950 . S
C1785 C1802 1.574 . S
C1785 C1804 1.368 . S
C1785 H1809 0.949 . S
H1786 C1790 0.949 . S
C1787 C1788 1.349 . S
C1787 C1789 1.327 . S
C1787 H1810 0.950 . S
C1788 C1787 1.349 . S
C1788 C1800 1.349 . S
C1789 C1787 1.327 . S
C1789 C1805 1.429 . S
C1789 H1811 0.950 . S
C1790 H1786 0.949 . S
C1790 C1798 1.574 . S
C1790 C1806 1.368 . S
H1791 C1799 0.950 . S
H1792 C1797 0.950 . S
H1793 C1798 0.949 . S
H1794 C1800 0.950 . S
H1795 C1801 0.950 . S
H1796 C1802 0.949 . S
C1797 H1792 0.950 . S
C1797 C1799 1.327 . S
C1797 C1803 1.429 . S
C1798 C1790 1.574 . S
C1798 H1793 0.949 . S
C1798 C1804 1.368 . S
C1799 C1783 1.349 . S
C1799 H1791 0.950 . S
C1799 C1797 1.327 . S
C1800 C1788 1.349 . S
C1800 H1794 0.950 . S
C1800 C1801 1.327 . S
C1801 H1795 0.950 . S
C1801 C1800 1.327 . S
C1801 C1805 1.429 . S
C1802 C1785 1.574 . S
C1802 H1796 0.949 . S
C1802 C1806 1.368 . S
C1803 C1784 1.429 . S
C1803 C1797 1.429 . S
C1803 C1804 1.523 . S
C1804 C1785 1.368 . S
C1804 C1798 1.368 . S
C1804 C1803 1.523 . S
C1805 C1789 1.429 . S
C1805 C1801 1.429 . S
C1805 C1806 1.523 . S
C1806 C1790 1.368 . S
C1806 C1802 1.368 . S
C1806 C1805 1.523 . S
H1807 C1782 0.950 . S
H1808 C1784 0.950 . S
H1809 C1785 0.949 . S
H1810 C1787 0.950 . S
H1811 C1789 0.950 . S
C1812 C1813 1.349 . S
C1812 C1814 1.327 . S
C1812 H1837 0.950 . S
C1813 C1812 1.349 . S
C1813 C1829 1.349 . S
C1814 C1812 1.327 . S
C1814 C1833 1.429 . S
C1814 H1838 0.950 . S
C1815 C1832 1.574 . S
C1815 C1834 1.368 . S
C1815 H1839 0.949 . S
H1816 C1820 0.949 . S
C1817 C1818 1.349 . S
C1817 C1819 1.327 . S
C1817 H1840 0.950 . S
C1818 C1817 1.349 . S
C1818 C1830 1.349 . S
C1819 C1817 1.327 . S
C1819 C1835 1.429 . S
C1819 H1841 0.950 . S
C1820 H1816 0.949 . S
C1820 C1828 1.574 . S
C1820 C1836 1.368 . S
H1821 C1829 0.950 . S
H1822 C1827 0.950 . S
H1823 C1828 0.949 . S
H1824 C1830 0.950 . S
H1825 C1831 0.950 . S
H1826 C1832 0.949 . S
C1827 H1822 0.950 . S
C1827 C1829 1.327 . S
C1827 C1833 1.429 . S
C1828 C1820 1.574 . S
C1828 H1823 0.949 . S
C1828 C1834 1.368 . S
C1829 C1813 1.349 . S
C1829 H1821 0.950 . S
C1829 C1827 1.327 . S
C1830 C1818 1.349 . S
C1830 H1824 0.950 . S
C1830 C1831 1.327 . S
C1831 H1825 0.950 . S
C1831 C1830 1.327 . S
C1831 C1835 1.429 . S
C1832 C1815 1.574 . S
C1832 H1826 0.949 . S
C1832 C1836 1.368 . S
C1833 C1814 1.429 . S
C1833 C1827 1.429 . S
C1833 C1834 1.523 . S
C1834 C1815 1.368 . S
C1834 C1828 1.368 . S
C1834 C1833 1.523 . S
C1835 C1819 1.429 . S
C1835 C1831 1.429 . S
C1835 C1836 1.523 . S
C1836 C1820 1.368 . S
C1836 C1832 1.368 . S
C1836 C1835 1.523 . S
H1837 C1812 0.950 . S
H1838 C1814 0.950 . S
H1839 C1815 0.949 . S
H1840 C1817 0.950 . S
H1841 C1819 0.950 . S
C1842 C1843 1.349 . S
C1842 C1844 1.327 . S
C1842 H1867 0.950 . S
C1843 C1842 1.349 . S
C1843 C1859 1.349 . S
C1844 C1842 1.327 . S
C1844 C1863 1.429 . S
C1844 H1868 0.950 . S
C1845 C1862 1.574 . S
C1845 C1864 1.368 . S
C1845 H1869 0.949 . S
H1846 C1850 0.949 . S
C1847 C1848 1.349 . S
C1847 C1849 1.327 . S
C1847 H1870 0.950 . S
C1848 C1847 1.349 . S
C1848 C1860 1.349 . S
C1849 C1847 1.327 . S
C1849 C1865 1.429 . S
C1849 H1871 0.950 . S
C1850 H1846 0.949 . S
C1850 C1858 1.574 . S
C1850 C1866 1.368 . S
H1851 C1859 0.950 . S
H1852 C1857 0.950 . S
H1853 C1858 0.949 . S
H1854 C1860 0.950 . S
H1855 C1861 0.950 . S
H1856 C1862 0.949 . S
C1857 H1852 0.950 . S
C1857 C1859 1.327 . S
C1857 C1863 1.429 . S
C1858 C1850 1.574 . S
C1858 H1853 0.949 . S
C1858 C1864 1.368 . S
C1859 C1843 1.349 . S
C1859 H1851 0.950 . S
C1859 C1857 1.327 . S
C1860 C1848 1.349 . S
C1860 H1854 0.950 . S
C1860 C1861 1.327 . S
C1861 H1855 0.950 . S
C1861 C1860 1.327 . S
C1861 C1865 1.429 . S
C1862 C1845 1.574 . S
C1862 H1856 0.949 . S
C1862 C1866 1.368 . S
C1863 C1844 1.429 . S
C1863 C1857 1.429 . S
C1863 C1864 1.523 . S
C1864 C1845 1.368 . S
C1864 C1858 1.368 . S
C1864 C1863 1.523 . S
C1865 C1849 1.429 . S
C1865 C1861 1.429 . S
C1865 C1866 1.523 . S
C1866 C1850 1.368 . S
C1866 C1862 1.368 . S
C1866 C1865 1.523 . S
H1867 C1842 0.950 . S
H1868 C1844 0.950 . S
H1869 C1845 0.949 . S
H1870 C1847 0.950 . S
H1871 C1849 0.950 . S
C1872 C1873 1.349 . S
C1872 C1874 1.327 . S
C1872 H1897 0.950 . S
C1873 C1872 1.349 . S
C1873 C1889 1.349 . S
C1874 C1872 1.327 . S
C1874 C1893 1.429 . S
C1874 H1898 0.950 . S
C1875 C1892 1.574 1_554 S
C1875 C1894 1.368 . S
C1875 H1899 0.949 . S
H1876 C1880 0.949 . S
C1877 C1878 1.349 . S
C1877 C1879 1.327 . S
C1877 H1900 0.950 . S
C1878 C1877 1.349 . S
C1878 C1890 1.349 . S
C1879 C1877 1.327 . S
C1879 C1895 1.429 . S
C1879 H1901 0.950 . S
C1880 H1876 0.949 . S
C1880 C1888 1.574 1_556 S
C1880 C1896 1.368 . S
H1881 C1889 0.950 . S
H1882 C1887 0.950 . S
H1883 C1888 0.949 . S
H1884 C1890 0.950 . S
H1885 C1891 0.950 . S
H1886 C1892 0.949 . S
C1887 H1882 0.950 . S
C1887 C1889 1.327 . S
C1887 C1893 1.429 . S
C1888 C1880 1.574 1_554 S
C1888 H1883 0.949 . S
C1888 C1894 1.368 . S
C1889 C1873 1.349 . S
C1889 H1881 0.950 . S
C1889 C1887 1.327 . S
C1890 C1878 1.349 . S
C1890 H1884 0.950 . S
C1890 C1891 1.327 . S
C1891 H1885 0.950 . S
C1891 C1890 1.327 . S
C1891 C1895 1.429 . S
C1892 C1875 1.574 1_556 S
C1892 H1886 0.949 . S
C1892 C1896 1.368 . S
C1893 C1874 1.429 . S
C1893 C1887 1.429 . S
C1893 C1894 1.523 . S
C1894 C1875 1.368 . S
C1894 C1888 1.368 . S
C1894 C1893 1.523 . S
C1895 C1879 1.429 . S
C1895 C1891 1.429 . S
C1895 C1896 1.523 . S
C1896 C1880 1.368 . S
C1896 C1892 1.368 . S
C1896 C1895 1.523 . S
H1897 C1872 0.950 . S
H1898 C1874 0.950 . S
H1899 C1875 0.949 . S
H1900 C1877 0.950 . S
H1901 C1879 0.950 . S
C1902 C1903 1.349 1_565 S
C1902 C1904 1.327 . S
C1902 H1927 0.950 . S
C1903 C1902 1.349 1_545 S
C1903 C1919 1.349 . S
C1904 C1902 1.327 . S
C1904 C1923 1.429 1_565 S
C1904 H1928 0.950 . S
C1905 C1922 1.574 1_556 S
C1905 C1924 1.356 1_545 S
C1905 H1929 0.949 . S
H1906 C1910 0.949 . S
C1907 C1908 1.349 1_545 S
C1907 C1909 1.327 . S
C1907 H1930 0.950 . S
C1908 C1907 1.349 1_565 S
C1908 C1920 1.349 . S
C1909 C1907 1.327 . S
C1909 C1925 1.429 1_545 S
C1909 H1931 0.950 . S
C1910 H1906 0.949 . S
C1910 C1918 1.574 1_554 S
C1910 C1926 1.368 . S
H1911 C1919 0.950 . S
H1912 C1917 0.950 . S
H1913 C1918 0.949 . S
H1914 C1920 0.950 . S
H1915 C1921 0.950 . S
H1916 C1922 0.949 . S
C1917 H1912 0.950 . S
C1917 C1919 1.327 . S
C1917 C1923 1.429 . S
C1918 C1910 1.574 1_556 S
C1918 H1913 0.949 . S
C1918 C1924 1.382 . S
C1919 C1903 1.349 . S
C1919 H1911 0.950 . S
C1919 C1917 1.327 . S
C1920 C1908 1.349 . S
C1920 H1914 0.950 . S
C1920 C1921 1.327 . S
C1921 H1915 0.950 . S
C1921 C1920 1.327 . S
C1921 C1925 1.429 . S
C1922 C1905 1.574 1_554 S
C1922 H1916 0.949 . S
C1922 C1926 1.368 1_545 S
C1923 C1904 1.429 1_545 S
C1923 C1917 1.429 . S
C1923 C1924 1.522 1_545 S
C1924 C1905 1.356 1_565 S
C1924 C1918 1.382 . S
C1924 C1923 1.522 1_565 S
C1925 C1909 1.429 1_565 S
C1925 C1921 1.429 . S
C1925 C1926 1.523 . S
C1926 C1910 1.368 . S
C1926 C1922 1.368 1_565 S
C1926 C1925 1.523 . S
H1927 C1902 0.950 . S
H1928 C1904 0.950 . S
H1929 C1905 0.949 . S
H1930 C1907 0.950 . S
H1931 C1909 0.950 . S
C1932 C1933 1.349 . S
C1932 C1934 1.327 . S
C1932 H1957 0.950 . S
C1933 C1932 1.349 . S
C1933 C1949 1.349 . S
C1934 C1932 1.327 . S
C1934 C1953 1.429 . S
C1934 H1958 0.950 . S
C1935 C1952 1.570 1_656 S
C1935 C1954 1.368 . S
C1935 H1959 0.949 . S
H1936 C1940 0.949 . S
C1937 C1938 1.349 . S
C1937 C1939 1.327 . S
C1937 H1960 0.950 . S
C1938 C1937 1.349 . S
C1938 C1950 1.349 . S
C1939 C1937 1.327 . S
C1939 C1955 1.429 . S
C1939 H1961 0.950 . S
C1940 H1936 0.949 . S
C1940 C1948 1.574 1_554 S
C1940 C1956 1.376 . S
H1941 C1949 0.950 . S
H1942 C1947 0.950 . S
H1943 C1948 0.949 . S
H1944 C1950 0.950 . S
H1945 C1951 0.948 1_655 S
H1946 C1952 0.974 . S
C1947 H1942 0.950 . S
C1947 C1949 1.327 . S
C1947 C1953 1.429 . S
C1948 C1940 1.574 1_556 S
C1948 H1943 0.949 . S
C1948 C1954 1.368 . S
C1949 C1933 1.349 . S
C1949 H1941 0.950 . S
C1949 C1947 1.327 . S
C1950 C1938 1.349 . S
C1950 H1944 0.950 . S
C1950 C1951 1.327 . S
C1951 H1945 0.948 1_455 S
C1951 C1950 1.327 . S
C1951 C1955 1.429 . S
C1952 C1935 1.570 1_454 S
C1952 H1946 0.974 . S
C1952 C1956 1.340 1_455 S
C1953 C1934 1.429 . S
C1953 C1947 1.429 . S
C1953 C1954 1.523 . S
C1954 C1935 1.368 . S
C1954 C1948 1.368 . S
C1954 C1953 1.523 . S
C1955 C1939 1.429 . S
C1955 C1951 1.429 . S
C1955 C1956 1.522 1_455 S
C1956 C1940 1.376 . S
C1956 C1952 1.340 1_655 S
C1956 C1955 1.522 1_655 S
H1957 C1932 0.950 . S
H1958 C1934 0.950 . S
H1959 C1935 0.949 . S
H1960 C1937 0.950 . S
H1961 C1939 0.950 . S
C1962 C1963 1.349 . S
C1962 C1964 1.327 . S
C1962 H1987 0.950 . S
C1963 C1962 1.349 . S
C1963 C1979 1.349 . S
C1964 C1962 1.327 . S
C1964 C1983 1.429 . S
C1964 H1988 0.950 . S
C1965 C1982 1.574 . S
C1965 C1984 1.368 . S
C1965 H1989 0.949 . S
H1966 C1970 0.949 . S
C1967 C1968 1.349 . S
C1967 C1969 1.327 . S
C1967 H1990 0.950 . S
C1968 C1967 1.349 . S
C1968 C1980 1.349 . S
C1969 C1967 1.327 . S
C1969 C1985 1.429 . S
C1969 H1991 0.950 . S
C1970 H1966 0.949 . S
C1970 C1978 1.574 . S
C1970 C1986 1.368 . S
H1971 C1979 0.950 . S
H1972 C1977 0.950 . S
H1973 C1978 0.949 . S
H1974 C1980 0.950 . S
H1975 C1981 0.950 . S
H1976 C1982 0.949 . S
C1977 H1972 0.950 . S
C1977 C1979 1.327 . S
C1977 C1983 1.429 . S
C1978 C1970 1.574 . S
C1978 H1973 0.949 . S
C1978 C1984 1.368 . S
C1979 C1963 1.349 . S
C1979 H1971 0.950 . S
C1979 C1977 1.327 . S
C1980 C1968 1.349 . S
C1980 H1974 0.950 . S
C1980 C1981 1.327 . S
C1981 H1975 0.950 . S
C1981 C1980 1.327 . S
C1981 C1985 1.429 . S
C1982 C1965 1.574 . S
C1982 H1976 0.949 . S
C1982 C1986 1.368 . S
C1983 C1964 1.429 . S
C1983 C1977 1.429 . S
C1983 C1984 1.523 . S
C1984 C1965 1.368 . S
C1984 C1978 1.368 . S
C1984 C1983 1.523 . S
C1985 C1969 1.429 . S
C1985 C1981 1.429 . S
C1985 C1986 1.523 . S
C1986 C1970 1.368 . S
C1986 C1982 1.368 . S
C1986 C1985 1.523 . S
H1987 C1962 0.950 . S
H1988 C1964 0.950 . S
H1989 C1965 0.949 . S
H1990 C1967 0.950 . S
H1991 C1969 0.950 . S
C1992 C1993 1.349 . S
C1992 C1994 1.327 . S
C1992 H2017 0.950 . S
C1993 C1992 1.349 . S
C1993 C2009 1.349 . S
C1994 C1992 1.327 . S
C1994 C2013 1.429 . S
C1994 H2018 0.950 . S
C1995 C2012 1.574 . S
C1995 C2014 1.368 . S
C1995 H2019 0.949 . S
H1996 C2000 0.949 . S
C1997 C1998 1.349 . S
C1997 C1999 1.327 . S
C1997 H2020 0.950 . S
C1998 C1997 1.349 . S
C1998 C2010 1.349 . S
C1999 C1997 1.327 . S
C1999 C2015 1.429 . S
C1999 H2021 0.950 . S
C2000 H1996 0.949 . S
C2000 C2008 1.574 . S
C2000 C2016 1.368 . S
H2001 C2009 0.950 . S
H2002 C2007 0.950 . S
H2003 C2008 0.949 . S
H2004 C2010 0.950 . S
H2005 C2011 0.950 . S
H2006 C2012 0.949 . S
C2007 H2002 0.950 . S
C2007 C2009 1.327 . S
C2007 C2013 1.429 . S
C2008 C2000 1.574 . S
C2008 H2003 0.949 . S
C2008 C2014 1.368 . S
C2009 C1993 1.349 . S
C2009 H2001 0.950 . S
C2009 C2007 1.327 . S
C2010 C1998 1.349 . S
C2010 H2004 0.950 . S
C2010 C2011 1.327 . S
C2011 H2005 0.950 . S
C2011 C2010 1.327 . S
C2011 C2015 1.429 . S
C2012 C1995 1.574 . S
C2012 H2006 0.949 . S
C2012 C2016 1.368 . S
C2013 C1994 1.429 . S
C2013 C2007 1.429 . S
C2013 C2014 1.523 . S
C2014 C1995 1.368 . S
C2014 C2008 1.368 . S
C2014 C2013 1.523 . S
C2015 C1999 1.429 . S
C2015 C2011 1.429 . S
C2015 C2016 1.523 . S
C2016 C2000 1.368 . S
C2016 C2012 1.368 . S
C2016 C2015 1.523 . S
H2017 C1992 0.950 . S
H2018 C1994 0.950 . S
H2019 C1995 0.949 . S
H2020 C1997 0.950 . S
H2021 C1999 0.950 . S
C2022 C2023 1.349 . S
C2022 C2024 1.327 . S
C2022 H2047 0.950 . S
C2023 C2022 1.349 . S
C2023 C2039 1.349 . S
C2024 C2022 1.327 . S
C2024 C2043 1.429 . S
C2024 H2048 0.950 . S
C2025 C2042 1.574 . S
C2025 C2044 1.368 . S
C2025 H2049 0.949 . S
H2026 C2030 0.949 . S
C2027 C2028 1.349 . S
C2027 C2029 1.327 . S
C2027 H2050 0.950 . S
C2028 C2027 1.349 . S
C2028 C2040 1.349 . S
C2029 C2027 1.327 . S
C2029 C2045 1.429 . S
C2029 H2051 0.950 . S
C2030 H2026 0.949 . S
C2030 C2038 1.574 . S
C2030 C2046 1.368 . S
H2031 C2039 0.950 . S
H2032 C2037 0.950 . S
H2033 C2038 0.949 . S
H2034 C2040 0.950 . S
H2035 C2041 0.950 . S
H2036 C2042 0.949 . S
C2037 H2032 0.950 . S
C2037 C2039 1.327 . S
C2037 C2043 1.429 . S
C2038 C2030 1.574 . S
C2038 H2033 0.949 . S
C2038 C2044 1.368 . S
C2039 C2023 1.349 . S
C2039 H2031 0.950 . S
C2039 C2037 1.327 . S
C2040 C2028 1.349 . S
C2040 H2034 0.950 . S
C2040 C2041 1.327 . S
C2041 H2035 0.950 . S
C2041 C2040 1.327 . S
C2041 C2045 1.429 . S
C2042 C2025 1.574 . S
C2042 H2036 0.949 . S
C2042 C2046 1.368 . S
C2043 C2024 1.429 . S
C2043 C2037 1.429 . S
C2043 C2044 1.523 . S
C2044 C2025 1.368 . S
C2044 C2038 1.368 . S
C2044 C2043 1.523 . S
C2045 C2029 1.429 . S
C2045 C2041 1.429 . S
C2045 C2046 1.523 . S
C2046 C2030 1.368 . S
C2046 C2042 1.368 . S
C2046 C2045 1.523 . S
H2047 C2022 0.950 . S
H2048 C2024 0.950 . S
H2049 C2025 0.949 . S
H2050 C2027 0.950 . S
H2051 C2029 0.950 . S
C2052 C2053 1.349 . S
C2052 C2054 1.327 . S
C2052 H2077 0.950 . S
C2053 C2052 1.349 . S
C2053 C2069 1.349 . S
C2054 C2052 1.327 . S
C2054 C2073 1.429 . S
C2054 H2078 0.950 . S
C2055 C2072 1.574 . S
C2055 C2074 1.368 . S
C2055 H2079 0.949 . S
H2056 C2060 0.949 . S
C2057 C2058 1.349 . S
C2057 C2059 1.327 . S
C2057 H2080 0.950 . S
C2058 C2057 1.349 . S
C2058 C2070 1.349 . S
C2059 C2057 1.327 . S
C2059 C2075 1.429 . S
C2059 H2081 0.950 . S
C2060 H2056 0.949 . S
C2060 C2068 1.574 . S
C2060 C2076 1.368 . S
H2061 C2069 0.950 . S
H2062 C2067 0.950 . S
H2063 C2068 0.949 . S
H2064 C2070 0.950 . S
H2065 C2071 0.950 . S
H2066 C2072 0.949 . S
C2067 H2062 0.950 . S
C2067 C2069 1.327 . S
C2067 C2073 1.429 . S
C2068 C2060 1.574 . S
C2068 H2063 0.949 . S
C2068 C2074 1.368 . S
C2069 C2053 1.349 . S
C2069 H2061 0.950 . S
C2069 C2067 1.327 . S
C2070 C2058 1.349 . S
C2070 H2064 0.950 . S
C2070 C2071 1.327 . S
C2071 H2065 0.950 . S
C2071 C2070 1.327 . S
C2071 C2075 1.429 . S
C2072 C2055 1.574 . S
C2072 H2066 0.949 . S
C2072 C2076 1.368 . S
C2073 C2054 1.429 . S
C2073 C2067 1.429 . S
C2073 C2074 1.523 . S
C2074 C2055 1.368 . S
C2074 C2068 1.368 . S
C2074 C2073 1.523 . S
C2075 C2059 1.429 . S
C2075 C2071 1.429 . S
C2075 C2076 1.523 . S
C2076 C2060 1.368 . S
C2076 C2072 1.368 . S
C2076 C2075 1.523 . S
H2077 C2052 0.950 . S
H2078 C2054 0.950 . S
H2079 C2055 0.949 . S
H2080 C2057 0.950 . S
H2081 C2059 0.950 . S
C2082 C2083 1.349 . S
C2082 C2084 1.327 . S
C2082 H2107 0.950 . S
C2083 C2082 1.349 . S
C2083 C2099 1.349 . S
C2084 C2082 1.327 . S
C2084 C2103 1.429 . S
C2084 H2108 0.950 . S
C2085 C2102 1.574 . S
C2085 C2104 1.368 . S
C2085 H2109 0.949 . S
H2086 C2090 0.949 . S
C2087 C2088 1.349 . S
C2087 C2089 1.327 . S
C2087 H2110 0.950 . S
C2088 C2087 1.349 . S
C2088 C2100 1.349 . S
C2089 C2087 1.327 . S
C2089 C2105 1.429 . S
C2089 H2111 0.950 . S
C2090 H2086 0.949 . S
C2090 C2098 1.574 . S
C2090 C2106 1.368 . S
H2091 C2099 0.950 . S
H2092 C2097 0.950 . S
H2093 C2098 0.949 . S
H2094 C2100 0.950 . S
H2095 C2101 0.950 . S
H2096 C2102 0.949 . S
C2097 H2092 0.950 . S
C2097 C2099 1.327 . S
C2097 C2103 1.429 . S
C2098 C2090 1.574 . S
C2098 H2093 0.949 . S
C2098 C2104 1.368 . S
C2099 C2083 1.349 . S
C2099 H2091 0.950 . S
C2099 C2097 1.327 . S
C2100 C2088 1.349 . S
C2100 H2094 0.950 . S
C2100 C2101 1.327 . S
C2101 H2095 0.950 . S
C2101 C2100 1.327 . S
C2101 C2105 1.429 . S
C2102 C2085 1.574 . S
C2102 H2096 0.949 . S
C2102 C2106 1.368 . S
C2103 C2084 1.429 . S
C2103 C2097 1.429 . S
C2103 C2104 1.523 . S
C2104 C2085 1.368 . S
C2104 C2098 1.368 . S
C2104 C2103 1.523 . S
C2105 C2089 1.429 . S
C2105 C2101 1.429 . S
C2105 C2106 1.523 . S
C2106 C2090 1.368 . S
C2106 C2102 1.368 . S
C2106 C2105 1.523 . S
H2107 C2082 0.950 . S
H2108 C2084 0.950 . S
H2109 C2085 0.949 . S
H2110 C2087 0.950 . S
H2111 C2089 0.950 . S
C2112 C2113 1.349 . S
C2112 C2114 1.327 . S
C2112 H2137 0.950 . S
C2113 C2112 1.349 . S
C2113 C2129 1.349 . S
C2114 C2112 1.327 . S
C2114 C2133 1.429 . S
C2114 H2138 0.950 . S
C2115 C2132 1.574 . S
C2115 C2134 1.368 . S
C2115 H2139 0.949 . S
H2116 C2120 0.949 . S
C2117 C2118 1.349 . S
C2117 C2119 1.327 . S
C2117 H2140 0.950 . S
C2118 C2117 1.349 . S
C2118 C2130 1.349 . S
C2119 C2117 1.327 . S
C2119 C2135 1.429 . S
C2119 H2141 0.950 . S
C2120 H2116 0.949 . S
C2120 C2128 1.574 . S
C2120 C2136 1.368 . S
H2121 C2129 0.950 . S
H2122 C2127 0.950 . S
H2123 C2128 0.949 . S
H2124 C2130 0.950 . S
H2125 C2131 0.950 . S
H2126 C2132 0.949 . S
C2127 H2122 0.950 . S
C2127 C2129 1.327 . S
C2127 C2133 1.429 . S
C2128 C2120 1.574 . S
C2128 H2123 0.949 . S
C2128 C2134 1.368 . S
C2129 C2113 1.349 . S
C2129 H2121 0.950 . S
C2129 C2127 1.327 . S
C2130 C2118 1.349 . S
C2130 H2124 0.950 . S
C2130 C2131 1.327 . S
C2131 H2125 0.950 . S
C2131 C2130 1.327 . S
C2131 C2135 1.429 . S
C2132 C2115 1.574 . S
C2132 H2126 0.949 . S
C2132 C2136 1.368 . S
C2133 C2114 1.429 . S
C2133 C2127 1.429 . S
C2133 C2134 1.523 . S
C2134 C2115 1.368 . S
C2134 C2128 1.368 . S
C2134 C2133 1.523 . S
C2135 C2119 1.429 . S
C2135 C2131 1.429 . S
C2135 C2136 1.523 . S
C2136 C2120 1.368 . S
C2136 C2132 1.368 . S
C2136 C2135 1.523 . S
H2137 C2112 0.950 . S
H2138 C2114 0.950 . S
H2139 C2115 0.949 . S
H2140 C2117 0.950 . S
H2141 C2119 0.950 . S
C1063 C595 1.031 . S
C1068 C5 1.031 . S
C1093 C64 1.031 . S
C1098 C654 1.031 . S
C1123 C536 1.031 . S
C1128 C123 1.031 . S
C1153 C831 1.031 . S
C1158 C182 1.031 . S
C1183 C241 1.031 . S
C1188 C713 1.031 . S
C1213 C772 1.031 . S
C1218 C300 1.031 . S
C1243 C359 1.031 . S
C1248 C949 1.031 . S
C1273 C1008 1.031 . S
C1278 C418 1.031 . S
C1303 C477 1.031 . S
C1308 C890 1.031 . S
C1333 C52 1.091 . S
C1338 C92 1.069 . S
C1363 C111 1.091 . S
C1368 C151 1.069 . S
C1393 C33 1.069 . S
C1398 C170 1.091 . S
C1423 C328 1.069 . S
C1428 C229 1.091 . S
C1453 C210 1.069 . S
C1458 C288 1.091 . S
C1483 C347 1.091 . S
C1488 C269 1.069 . S
C1513 C406 1.091 . S
C1518 C446 1.069 . S
C1543 C465 1.091 . S
C1548 C505 1.069 . S
C1573 C387 1.069 . S
C1578 C524 1.091 . S
C1603 C682 1.069 . S
C1608 C583 1.091 . S
C1633 C564 1.069 . S
C1638 C642 1.091 . S
C1663 C623 1.069 . S
C1668 C701 1.091 . S
C1693 C800 1.069 . S
C1698 C760 1.091 . S
C1723 C859 1.069 . S
C1728 C819 1.091 . S
C1753 C741 1.069 . S
C1758 C878 1.091 . S
C1783 C937 1.091 . S
C1788 C1036 1.069 . S
C1813 C996 1.091 . S
C1818 C918 1.069 . S
C1843 C1055 1.091 . S
C1848 C977 1.069 . S
C1873 C3 1.783 . S
C1878 C180 1.783 . S
C1903 C239 1.783 . S
C1908 C62 1.783 . S
C1933 C298 1.783 . S
C1938 C121 1.783 . S
C1963 C534 1.783 . S
C1968 C357 1.783 . S
C1993 C593 1.783 . S
C1998 C416 1.783 . S
C2023 C475 1.783 . S
C2028 C652 1.783 . S
C2053 C888 1.783 . S
C2058 C711 1.783 . S
C2083 C947 1.783 . S
C2088 C770 1.783 . S
C2113 C1006 1.783 . S
C2118 C829 1.783 . S
