# Generated by pormake.
# Topology wjy, (5)-cn, num edge types: 1
# Building blocks:
#     Node 0, Type 0, BuildingBlock: BEQFEK_clean_sbu_0, # of connection points: 5
#     Node 1, Type 0, BuildingBlock: BEQFEK_clean_sbu_0, # of connection points: 5
#     Node 2, Type 0, BuildingBlock: BEQFEK_clean_sbu_0, # of connection points: 5
#     Node 3, Type 0, BuildingBlock: BEQFEK_clean_sbu_0, # of connection points: 5
#     Node 4, Type 0, BuildingBlock: BEQFEK_clean_sbu_0, # of connection points: 5
#     Node 5, Type 0, BuildingBlock: BEQFEK_clean_sbu_0, # of connection points: 5
#     Node 6, Type 0, BuildingBlock: BEQFEK_clean_sbu_0, # of connection points: 5
#     Node 7, Type 0, BuildingBlock: BEQFEK_clean_sbu_0, # of connection points: 5
#     Node 8, Type 0, BuildingBlock: BEQFEK_clean_sbu_0, # of connection points: 5
#     Node 9, Type 0, BuildingBlock: BEQFEK_clean_sbu_0, # of connection points: 5
#     Node 10, Type 0, BuildingBlock: BEQFEK_clean_sbu_0, # of connection points: 5
#     Node 11, Type 0, BuildingBlock: BEQFEK_clean_sbu_0, # of connection points: 5
#     Edge 12, Type (0, 0), BuildingBlock: XUDNAN_clean_linker_2, # of connection points: 2
#     Edge 13, Type (0, 0), BuildingBlock: XUDNAN_clean_linker_2, # of connection points: 2
#     Edge 14, Type (0, 0), BuildingBlock: XUDNAN_clean_linker_2, # of connection points: 2
#     Edge 15, Type (0, 0), BuildingBlock: XUDNAN_clean_linker_2, # of connection points: 2
#     Edge 16, Type (0, 0), BuildingBlock: XUDNAN_clean_linker_2, # of connection points: 2
#     Edge 17, Type (0, 0), BuildingBlock: XUDNAN_clean_linker_2, # of connection points: 2
#     Edge 18, Type (0, 0), BuildingBlock: XUDNAN_clean_linker_2, # of connection points: 2
#     Edge 19, Type (0, 0), BuildingBlock: XUDNAN_clean_linker_2, # of connection points: 2
#     Edge 20, Type (0, 0), BuildingBlock: XUDNAN_clean_linker_2, # of connection points: 2
#     Edge 21, Type (0, 0), BuildingBlock: XUDNAN_clean_linker_2, # of connection points: 2
#     Edge 22, Type (0, 0), BuildingBlock: XUDNAN_clean_linker_2, # of connection points: 2
#     Edge 23, Type (0, 0), BuildingBlock: XUDNAN_clean_linker_2, # of connection points: 2
#     Edge 24, Type (0, 0), BuildingBlock: XUDNAN_clean_linker_2, # of connection points: 2
#     Edge 25, Type (0, 0), BuildingBlock: XUDNAN_clean_linker_2, # of connection points: 2
#     Edge 26, Type (0, 0), BuildingBlock: XUDNAN_clean_linker_2, # of connection points: 2
#     Edge 27, Type (0, 0), BuildingBlock: XUDNAN_clean_linker_2, # of connection points: 2
#     Edge 28, Type (0, 0), BuildingBlock: XUDNAN_clean_linker_2, # of connection points: 2
#     Edge 29, Type (0, 0), BuildingBlock: XUDNAN_clean_linker_2, # of connection points: 2
#     Edge 30, Type (0, 0), BuildingBlock: XUDNAN_clean_linker_2, # of connection points: 2
#     Edge 31, Type (0, 0), BuildingBlock: XUDNAN_clean_linker_2, # of connection points: 2
#     Edge 32, Type (0, 0), BuildingBlock: XUDNAN_clean_linker_2, # of connection points: 2
#     Edge 33, Type (0, 0), BuildingBlock: XUDNAN_clean_linker_2, # of connection points: 2
#     Edge 34, Type (0, 0), BuildingBlock: XUDNAN_clean_linker_2, # of connection points: 2
#     Edge 35, Type (0, 0), BuildingBlock: XUDNAN_clean_linker_2, # of connection points: 2
#     Edge 36, Type (0, 0), BuildingBlock: XUDNAN_clean_linker_2, # of connection points: 2
#     Edge 37, Type (0, 0), BuildingBlock: XUDNAN_clean_linker_2, # of connection points: 2
#     Edge 38, Type (0, 0), BuildingBlock: XUDNAN_clean_linker_2, # of connection points: 2
#     Edge 39, Type (0, 0), BuildingBlock: XUDNAN_clean_linker_2, # of connection points: 2
#     Edge 40, Type (0, 0), BuildingBlock: XUDNAN_clean_linker_2, # of connection points: 2
#     Edge 41, Type (0, 0), BuildingBlock: XUDNAN_clean_linker_2, # of connection points: 2
# Relax obj value: 0.134
# Max RMSD: 0.159
# Mean RMSD: 0.159
data_MOF--net-wjy--node1-BEQFEK_clean_sbu_0--edge1-XUDNAN_clean_linker_2
_symmetry_space_group_name_H-M    P1
_symmetry_Int_Tables_number       1
_symmetry_cell_setting            triclinic
loop_
_symmetry_equiv_pos_as_xyz
'x, y, z'
_cell_length_a     72.97324
_cell_length_b     73.080993
_cell_length_c     18.947551
_cell_angle_alpha  90.00529
_cell_angle_beta   89.954067
_cell_angle_gamma 119.91777
loop_
_atom_site_label
_atom_site_type_symbol
_atom_site_fract_x
_atom_site_fract_y
_atom_site_fract_z
_atom_type_partial_charge
Co0 Co 0.45474 0.11158 0.19255 0.0
Co1 Co 0.47596 0.11653 0.0446 0.0
C2 C 0.43691 0.07586 0.09149 0.0
O3 O 0.43549 0.08344 0.15058 0.0
O4 O 0.45175 0.08693 0.04818 0.0
C5 C 0.44522 0.10215 0.33666 0.0
O6 O 0.44687 0.08568 0.31848 0.0
C7 C 0.47337 0.11588 0.891 0.0
C8 C 0.5064 0.1375 0.8589 0.0
C9 C 0.48607 0.12543 0.83285 0.0
N10 N 0.48558 0.12199 0.94903 0.0
N11 N 0.50539 0.13463 0.92939 0.0
C12 C 0.44973 0.10324 0.89245 0.0
H13 H 0.44363 0.10609 0.94247 0.0
H14 H 0.4428 0.10721 0.84688 0.0
H15 H 0.44474 0.08623 0.88945 0.0
C16 C 0.45507 0.15042 0.14598 0.0
N17 N 0.45797 0.13387 0.13361 0.0
N18 N 0.4674 0.13641 0.07223 0.0
C19 C 0.47086 0.15481 0.04372 0.0
C20 C 0.46321 0.16433 0.08945 0.0
C21 C 0.4473 0.15406 0.21474 0.0
H22 H 0.43231 0.13969 0.22954 0.0
H23 H 0.44474 0.16778 0.21226 0.0
H24 H 0.4591 0.15692 0.25644 0.0
O25 O 0.48275 0.11462 0.20942 0.0
O26 O 0.49932 0.11916 0.10731 0.0
H27 H 0.48318 0.1789 0.96223 0.0
H28 H 0.47376 0.15236 0.93241 0.0
C29 C 0.48225 0.16368 0.97555 0.0
H30 H 0.49844 0.16601 0.9791 0.0
H31 H 0.51806 0.14205 0.96439 0.0
O32 O 0.44594 0.11467 0.28871 0.0
C33 C 0.49894 0.11775 0.17446 0.0
Co34 Co 0.35017 0.45339 0.34061 0.0
Co35 Co 0.36061 0.47695 0.19387 0.0
C36 C 0.36841 0.44029 0.22519 0.0
O37 O 0.36147 0.43726 0.28838 0.0
O38 O 0.36881 0.45482 0.187 0.0
C39 C 0.33323 0.43262 0.49611 0.0
O40 O 0.31812 0.41276 0.49624 0.0
C41 C 0.35498 0.47566 0.03959 0.0
C42 C 0.3732 0.50934 0.01067 0.0
C43 C 0.36183 0.48927 0.98161 0.0
N44 N 0.36213 0.4872 0.09915 0.0
N45 N 0.37281 0.50734 0.08139 0.0
C46 C 0.34286 0.45203 0.03916 0.0
H47 H 0.34211 0.4456 0.0926 0.0
H48 H 0.32636 0.44645 0.02241 0.0
H49 H 0.35013 0.44584 0.00152 0.0
C50 C 0.30763 0.44711 0.30633 0.0
N51 N 0.32808 0.45428 0.28998 0.0
N52 N 0.33259 0.46501 0.23048 0.0
C53 C 0.31518 0.46524 0.2077 0.0
C54 C 0.29873 0.45378 0.2548 0.0
C55 C 0.29743 0.43547 0.37295 0.0
H56 H 0.30581 0.4457 0.41875 0.0
H57 H 0.29901 0.42117 0.37647 0.0
H58 H 0.2805 0.4309 0.37593 0.0
O59 O 0.37293 0.48258 0.35762 0.0
O60 O 0.3811 0.50044 0.25676 0.0
H61 H 0.32858 0.49187 0.13782 0.0
H62 H 0.29994 0.47739 0.13874 0.0
C63 C 0.31434 0.47596 0.14145 0.0
H64 H 0.3143 0.46661 0.0954 0.0
H65 H 0.38044 0.51969 0.1174 0.0
O66 O 0.34069 0.44189 0.43751 0.0
C67 C 0.3837 0.49961 0.32306 0.0
Co68 Co 0.8957 0.34569 0.52298 0.0
Co69 Co 0.89018 0.35764 0.36992 0.0
C70 C 0.9324 0.36491 0.42704 0.0
O71 O 0.92461 0.35624 0.48621 0.0
O72 O 0.92094 0.36677 0.38017 0.0
C73 C 0.9001 0.32683 0.65742 0.0
O74 O 0.90857 0.317 0.62469 0.0
C75 C 0.89026 0.34773 0.22179 0.0
C76 C 0.87562 0.36428 0.16962 0.0
C77 C 0.88381 0.35106 0.15648 0.0
N78 N 0.88572 0.35813 0.27105 0.0
N79 N 0.87702 0.36806 0.23959 0.0
C80 C 0.90119 0.33542 0.23747 0.0
H81 H 0.90927 0.33987 0.28905 0.0
H82 H 0.88938 0.31836 0.24006 0.0
H83 H 0.91281 0.33793 0.1954 0.0
C84 C 0.86011 0.30379 0.47984 0.0
N85 N 0.87483 0.32404 0.46672 0.0
N86 N 0.8719 0.32925 0.40288 0.0
C87 C 0.85502 0.31238 0.37373 0.0
C88 C 0.84721 0.29573 0.42114 0.0
C89 C 0.85811 0.2926 0.5479 0.0
H90 H 0.87245 0.29127 0.55584 0.0
H91 H 0.84398 0.27655 0.54829 0.0
H92 H 0.85706 0.30195 0.59222 0.0
O93 O 0.88941 0.36883 0.52836 0.0
O94 O 0.88429 0.37819 0.42212 0.0
H95 H 0.82818 0.30016 0.30352 0.0
H96 H 0.85326 0.3092 0.26139 0.0
C97 C 0.84514 0.31253 0.30469 0.0
H98 H 0.84652 0.32815 0.29558 0.0
H99 H 0.87193 0.37727 0.26588 0.0
O100 O 0.89412 0.33778 0.62285 0.0
C101 C 0.88498 0.3802 0.48914 0.0
Co102 Co 0.54919 0.8944 0.66804 0.0
Co103 Co 0.53498 0.88489 0.51175 0.0
C104 C 0.57123 0.92746 0.56066 0.0
O105 O 0.56952 0.92236 0.62557 0.0
O106 O 0.5591 0.91444 0.51432 0.0
C107 C 0.57214 0.90649 0.80108 0.0
O108 O 0.58783 0.92206 0.76687 0.0
C109 C 0.5452 0.88314 0.36636 0.0
C110 C 0.51492 0.87202 0.31065 0.0
C111 C 0.53633 0.87961 0.29962 0.0
N112 N 0.52994 0.87835 0.41432 0.0
N113 N 0.51178 0.87146 0.38094 0.0
C114 C 0.56772 0.89046 0.38513 0.0
H115 H 0.56894 0.88594 0.44005 0.0
H116 H 0.57462 0.88379 0.34789 0.0
H117 H 0.57696 0.90784 0.38153 0.0
C118 C 0.55543 0.85747 0.64472 0.0
N119 N 0.54969 0.87141 0.6223 0.0
N120 N 0.54228 0.86643 0.55766 0.0
C121 C 0.54251 0.84883 0.53763 0.0
C122 C 0.551 0.84268 0.59191 0.0
C123 C 0.56473 0.85818 0.71567 0.0
H124 H 0.57859 0.8741 0.72444 0.0
H125 H 0.56959 0.84607 0.72062 0.0
H126 H 0.55285 0.85543 0.75703 0.0
O127 O 0.52011 0.8904 0.66735 0.0
O128 O 0.50957 0.88334 0.55598 0.0
H129 H 0.53044 0.82124 0.47106 0.0
H130 H 0.54793 0.84587 0.42851 0.0
C131 C 0.53499 0.83815 0.46771 0.0
H132 H 0.52129 0.83949 0.44931 0.0
H133 H 0.49744 0.86718 0.40589 0.0
O134 O 0.55541 0.89381 0.76825 0.0
C135 C 0.50614 0.88605 0.62005 0.0
Co136 Co 0.65929 0.54953 0.84053 0.0
Co137 Co 0.65593 0.5339 0.68534 0.0
C138 C 0.64615 0.56842 0.72834 0.0
O139 O 0.65048 0.56849 0.79351 0.0
O140 O 0.64752 0.55583 0.6852 0.0
C141 C 0.67425 0.57309 0.97508 0.0
O142 O 0.68433 0.5909 0.93981 0.0
C143 C 0.66935 0.54354 0.53879 0.0
C144 C 0.65217 0.51235 0.48721 0.0
C145 C 0.66551 0.53366 0.47339 0.0
N146 N 0.65878 0.52878 0.58834 0.0
N147 N 0.64872 0.51013 0.55733 0.0
C148 C 0.68156 0.56673 0.55406 0.0
H149 H 0.67681 0.57541 0.51713 0.0
H150 H 0.67928 0.57007 0.6093 0.0
H151 H 0.69868 0.57264 0.54694 0.0
C152 C 0.70361 0.55703 0.82093 0.0
N153 N 0.68386 0.55095 0.79763 0.0
N154 N 0.6819 0.54346 0.73312 0.0
C155 C 0.70005 0.54419 0.71405 0.0
C156 C 0.71443 0.55299 0.76858 0.0
C157 C 0.71182 0.56588 0.89254 0.0
H158 H 0.70047 0.55555 0.93335 0.0
H159 H 0.71343 0.58174 0.8967 0.0
H160 H 0.72748 0.5673 0.90235 0.0
O161 O 0.63538 0.51985 0.83936 0.0
O162 O 0.63351 0.50784 0.73056 0.0
H163 H 0.68887 0.52127 0.63056 0.0
H164 H 0.7167 0.53263 0.65023 0.0
C165 C 0.70346 0.53593 0.64595 0.0
H166 H 0.70745 0.54792 0.60407 0.0
H167 H 0.63894 0.496 0.58367 0.0
O168 O 0.66388 0.55574 0.94228 0.0
C169 C 0.62698 0.50501 0.7942 0.0
Co170 Co 0.1133 0.65529 0.01426 0.0
Co171 Co 0.12602 0.65251 0.85895 0.0
C172 C 0.08161 0.64277 0.901 0.0
O173 O 0.08568 0.64677 0.96642 0.0
O174 O 0.0957 0.6443 0.858 0.0
C175 C 0.10437 0.66994 0.14892 0.0
O176 O 0.09693 0.68028 0.11349 0.0
C177 C 0.12993 0.66606 0.71236 0.0
C178 C 0.14423 0.64906 0.66099 0.0
C179 C 0.13606 0.66224 0.64702 0.0
N180 N 0.13427 0.65562 0.76206 0.0
N181 N 0.14304 0.64567 0.73115 0.0
C182 C 0.11873 0.67812 0.7274 0.0
H183 H 0.10518 0.6731 0.69082 0.0
H184 H 0.11327 0.67602 0.78281 0.0
H185 H 0.12973 0.69521 0.71953 0.0
C186 C 0.1504 0.69937 0.99763 0.0
N187 N 0.13666 0.67991 0.97277 0.0
N188 N 0.1424 0.67823 0.90827 0.0
C189 C 0.16009 0.69629 0.89067 0.0
C190 C 0.16564 0.71037 0.94642 0.0
C191 C 0.14982 0.7069 0.07053 0.0
H192 H 0.1481 0.69485 0.10956 0.0
H193 H 0.13599 0.70925 0.07536 0.0
H194 H 0.16439 0.72202 0.08257 0.0
O195 O 0.11907 0.6314 0.01228 0.0
O196 O 0.12933 0.62972 0.90342 0.0
H197 H 0.18755 0.71375 0.82329 0.0
H198 H 0.16244 0.70312 0.78044 0.0
C199 C 0.17133 0.7 0.82145 0.0
H200 H 0.17209 0.68575 0.80601 0.0
H201 H 0.14749 0.63597 0.75756 0.0
O202 O 0.11131 0.65949 0.11619 0.0
C203 C 0.12552 0.62304 0.96689 0.0
Co204 Co 0.89754 0.54805 0.64784 0.0
Co205 Co 0.8907 0.53521 0.80503 0.0
C206 C 0.93324 0.56857 0.7491 0.0
O207 O 0.92594 0.56734 0.68718 0.0
O208 O 0.92142 0.55681 0.79857 0.0
C209 C 0.90403 0.57163 0.51578 0.0
O210 O 0.91161 0.58933 0.55157 0.0
C211 C 0.89143 0.54431 0.95388 0.0
C212 C 0.86808 0.51345 -0.00085 0.0
C213 C 0.88144 0.53448 0.01616 0.0
N214 N 0.88393 0.52987 0.90211 0.0
N215 N 0.87008 0.51142 0.92935 0.0
C216 C 0.90873 0.56666 0.94311 0.0
H217 H 0.92359 0.56665 0.9314 0.0
H218 H 0.90498 0.57353 0.89684 0.0
H219 H 0.91161 0.57672 0.99005 0.0
C220 C 0.86138 0.55541 0.67674 0.0
N221 N 0.87586 0.55007 0.69664 0.0
N222 N 0.87309 0.54483 0.76382 0.0
C223 C 0.85679 0.54675 0.78887 0.0
C224 C 0.84885 0.55355 0.73455 0.0
C225 C 0.85861 0.56076 0.60275 0.0
H226 H 0.86031 0.55007 0.56518 0.0
H227 H 0.87102 0.57721 0.59102 0.0
H228 H 0.84289 0.55938 0.5952 0.0
O229 O 0.89195 0.5186 0.64788 0.0
O230 O 0.88552 0.50845 0.75961 0.0
H231 H 0.84451 0.52635 0.87853 0.0
H232 H 0.836 0.54567 0.87304 0.0
C233 C 0.84939 0.54285 0.86394 0.0
H234 H 0.86257 0.55361 0.89878 0.0
H235 H 0.8618 0.49754 0.90015 0.0
O236 O 0.89764 0.55424 0.54773 0.0
C237 C 0.88708 0.50453 0.69502 0.0
Co238 Co 0.3473 0.89682 0.8138 0.0
Co239 Co 0.36054 0.88702 0.96095 0.0
C240 C 0.36423 0.92963 0.92374 0.0
O241 O 0.35696 0.92457 0.86118 0.0
O242 O 0.3662 0.91674 0.96402 0.0
C243 C 0.34929 0.906 0.66774 0.0
O244 O 0.36845 0.92085 0.68504 0.0
C245 C 0.35795 0.88589 0.11513 0.0
C246 C 0.36627 0.86166 0.14371 0.0
C247 C 0.35992 0.8751 0.1719 0.0
N248 N 0.36297 0.87927 0.05578 0.0
N249 N 0.3682 0.86495 0.07334 0.0
C250 C 0.34933 0.90064 0.11644 0.0
H251 H 0.33954 0.89824 0.0688 0.0
H252 H 0.33969 0.89829 0.16448 0.0
H253 H 0.36274 0.9171 0.11624 0.0
C254 C 0.3061 0.8603 0.85608 0.0
N255 N 0.32668 0.87407 0.8684 0.0
N256 N 0.33234 0.86909 0.9281 0.0
C257 C 0.3155 0.85176 0.95521 0.0
C258 C 0.29832 0.84565 0.91055 0.0
C259 C 0.29456 0.86068 0.79138 0.0
H260 H 0.30104 0.85656 0.74494 0.0
H261 H 0.29726 0.87688 0.78305 0.0
H262 H 0.27736 0.84933 0.79501 0.0
O263 O 0.37149 0.89251 0.79784 0.0
O264 O 0.38172 0.88491 0.8983 0.0
H265 H 0.32854 0.83791 0.02355 0.0
H266 H 0.30036 0.82711 0.03406 0.0
C267 C 0.31561 0.84171 0.02388 0.0
H268 H 0.31859 0.85299 0.06741 0.0
H269 H 0.37237 0.8569 0.03708 0.0
O270 O 0.33646 0.89512 0.71648 0.0
C271 C 0.3836 0.88781 0.83169 0.0
Co272 Co 0.45949 0.34639 0.97262 0.0
Co273 Co 0.47719 0.3593 0.1252 0.0
C274 C 0.44123 0.36496 0.06788 0.0
O275 O 0.44049 0.35622 0.00903 0.0
O276 O 0.45478 0.36734 0.11458 0.0
C277 C 0.4368 0.32631 0.83785 0.0
O278 O 0.41865 0.31505 0.87044 0.0
C279 C 0.46754 0.34908 0.27323 0.0
C280 C 0.49851 0.36717 0.3258 0.0
C281 C 0.47731 0.35294 0.33874 0.0
N282 N 0.4823 0.36012 0.22413 0.0
N283 N 0.50079 0.37098 0.25582 0.0
C284 C 0.44449 0.33545 0.25689 0.0
H285 H 0.44057 0.31874 0.25333 0.0
H286 H 0.43468 0.33685 0.299 0.0
H287 H 0.4405 0.33969 0.20549 0.0
C288 C 0.45691 0.306 0.01475 0.0
N289 N 0.4598 0.32532 0.02949 0.0
N290 N 0.46834 0.33118 0.09252 0.0
C291 C 0.47148 0.31584 0.11934 0.0
C292 C 0.46413 0.29928 0.07137 0.0
C293 C 0.45038 0.29566 0.94398 0.0
H294 H 0.46105 0.30659 0.90286 0.0
H295 H 0.43411 0.29229 0.93235 0.0
H296 H 0.45079 0.28069 0.9418 0.0
O297 O 0.48863 0.37016 0.96683 0.0
O298 O 0.50322 0.38032 0.07263 0.0
H299 H 0.49717 0.33383 0.19049 0.0
H300 H 0.48813 0.30584 0.1906 0.0
C301 C 0.48311 0.31783 0.18661 0.0
H302 H 0.47257 0.31547 0.23194 0.0
H303 H 0.51495 0.38086 0.22969 0.0
O304 O 0.45336 0.33835 0.87264 0.0
C305 C 0.50436 0.38204 0.00552 0.0
Co306 Co 0.11245 0.45439 0.15528 0.0
Co307 Co 0.1249 0.47583 0.30488 0.0
C308 C 0.0804 0.43959 0.26689 0.0
O309 O 0.08441 0.43705 0.20331 0.0
O310 O 0.0946 0.45369 0.30598 0.0
C311 C 0.0958 0.43759 0.01708 0.0
O312 O 0.0773 0.43131 0.04653 0.0
C313 C 0.12563 0.46748 0.45386 0.0
C314 C 0.13629 0.4983 0.50478 0.0
C315 C 0.12847 0.47707 0.5192 0.0
N316 N 0.13121 0.4822 0.40315 0.0
N317 N 0.13783 0.50068 0.43394 0.0
C318 C 0.1187 0.44476 0.43982 0.0
H319 H 0.11875 0.44177 0.38247 0.0
H320 H 0.12955 0.44059 0.46728 0.0
H321 H 0.10273 0.4343 0.46133 0.0
C322 C 0.1483 0.44735 0.18685 0.0
N323 N 0.13504 0.45437 0.2051 0.0
N324 N 0.14132 0.46467 0.26528 0.0
C325 C 0.15905 0.46486 0.28665 0.0
C326 C 0.164 0.45375 0.23788 0.0
C327 C 0.1468 0.43629 0.11881 0.0
H328 H 0.15019 0.44746 0.07449 0.0
H329 H 0.13042 0.42298 0.11186 0.0
H330 H 0.15813 0.43038 0.1165 0.0
O331 O 0.11904 0.4839 0.14624 0.0
O332 O 0.12866 0.50086 0.24873 0.0
H333 H 0.16982 0.48962 0.36383 0.0
H334 H 0.18746 0.47921 0.35054 0.0
C335 C 0.17069 0.47515 0.3532 0.0
H336 H 0.16319 0.46407 0.39784 0.0
H337 H 0.1424 0.51472 0.40669 0.0
O338 O 0.11232 0.4462 0.05511 0.0
C339 C 0.12531 0.50062 0.18251 0.0
Co340 Co 0.65825 0.11075 0.31586 0.0
Co341 Co 0.6549 0.11834 0.47437 0.0
C342 C 0.64636 0.0761 0.42032 0.0
O343 O 0.65116 0.08304 0.35746 0.0
O344 O 0.64674 0.08798 0.47004 0.0
C345 C 0.67518 0.10413 0.18541 0.0
O346 O 0.68677 0.09877 0.22367 0.0
C347 C 0.66451 0.11836 0.62259 0.0
C348 C 0.65699 0.14173 0.66799 0.0
C349 C 0.66458 0.12826 0.68487 0.0
N350 N 0.65759 0.12592 0.57086 0.0
N351 N 0.6531 0.13987 0.59812 0.0
C352 C 0.66947 0.10096 0.61214 0.0
H353 H 0.67897 0.10389 0.56335 0.0
H354 H 0.67792 0.0991 0.65751 0.0
H355 H 0.65443 0.08587 0.6053 0.0
C356 C 0.70105 0.14871 0.33474 0.0
N357 N 0.68216 0.13357 0.35937 0.0
N358 N 0.68117 0.13619 0.42761 0.0
C359 C 0.6997 0.15275 0.44907 0.0
C360 C 0.71295 0.16133 0.39081 0.0
C361 C 0.70685 0.15221 0.25816 0.0
H362 H 0.6927 0.14824 0.22583 0.0
H363 H 0.71322 0.14187 0.24206 0.0
H364 H 0.71906 0.16886 0.24779 0.0
O365 O 0.63362 0.11503 0.3206 0.0
O366 O 0.63157 0.12178 0.43341 0.0
H367 H 0.69504 0.16602 0.54337 0.0
H368 H 0.72188 0.17131 0.53175 0.0
C369 C 0.70496 0.15944 0.52449 0.0
H370 H 0.70144 0.14552 0.55722 0.0
H371 H 0.64737 0.14809 0.56906 0.0
O372 O 0.66306 0.10957 0.21518 0.0
C373 C 0.6248 0.11955 0.37019 0.0
Co374 Co 0.54978 0.65707 0.48248 0.0
Co375 Co 0.53717 0.65017 0.64035 0.0
C376 C 0.57094 0.64198 0.58156 0.0
O377 O 0.56928 0.6479 0.5199 0.0
O378 O 0.55932 0.64191 0.63172 0.0
C379 C 0.57356 0.66828 0.35266 0.0
O380 O 0.58826 0.66717 0.38923 0.0
C381 C 0.5484 0.65822 0.78648 0.0
C382 C 0.51775 0.64493 0.84183 0.0
C383 C 0.53941 0.65469 0.85304 0.0
N384 N 0.53285 0.65069 0.73847 0.0
N385 N 0.51452 0.64277 0.77157 0.0
C386 C 0.5714 0.66971 0.76753 0.0
H387 H 0.57374 0.67687 0.71428 0.0
H388 H 0.5807 0.68222 0.8068 0.0
H389 H 0.57731 0.65836 0.76638 0.0
C390 C 0.55711 0.69998 0.51492 0.0
N391 N 0.55169 0.68015 0.53399 0.0
N392 N 0.54585 0.67722 0.60059 0.0
C393 C 0.54703 0.69506 0.62586 0.0
C394 C 0.55434 0.71012 0.57247 0.0
C395 C 0.56359 0.70847 0.44171 0.0
H396 H 0.55112 0.698 0.40399 0.0
H397 H 0.57831 0.70841 0.42745 0.0
H398 H 0.5662 0.72472 0.43664 0.0
O399 O 0.52025 0.6329 0.48254 0.0
O400 O 0.51068 0.62831 0.59522 0.0
H401 H 0.52581 0.68413 0.71397 0.0
H402 H 0.54137 0.71262 0.70706 0.0
C403 C 0.54152 0.69764 0.6999 0.0
H404 H 0.55336 0.69764 0.73649 0.0
H405 H 0.49987 0.63573 0.74633 0.0
O406 O 0.55668 0.665 0.38301 0.0
C407 C 0.50651 0.62317 0.53047 0.0
H408 H 0.43481 0.2571 0.07644 0.0
H409 H 0.50218 0.30112 0.06786 0.0
H410 H 0.50923 0.27131 0.0714 0.0
H411 H 0.43737 0.22028 0.19697 0.0
H412 H 0.4165 0.19717 0.15472 0.0
H413 H 0.4167 0.22189 0.15032 0.0
H414 H 0.41548 0.21977 0.01376 0.0
H415 H 0.41521 0.19501 0.01774 0.0
H416 H 0.43526 0.21662 0.96706 0.0
H417 H 0.50898 0.23699 0.07669 0.0
H418 H 0.50148 0.20006 0.08309 0.0
H419 H 0.43425 0.17791 0.08905 0.0
C420 C 0.451 0.26033 0.07524 0.0
C421 C 0.46802 0.28127 0.07253 0.0
C422 C 0.48902 0.2851 0.07066 0.0
C423 C 0.49313 0.26831 0.07251 0.0
C424 C 0.47604 0.2478 0.07602 0.0
C425 C 0.45538 0.2437 0.07732 0.0
C426 C 0.43995 0.22015 0.08165 0.0
C427 C 0.42686 0.21455 0.14999 0.0
C428 C 0.42563 0.21244 0.01614 0.0
C429 C 0.45517 0.21168 0.08274 0.0
C430 C 0.4759 0.22793 0.07925 0.0
C431 C 0.49281 0.22413 0.07929 0.0
C432 C 0.48843 0.20317 0.08279 0.0
C433 C 0.46734 0.1863 0.08624 0.0
C434 C 0.45051 0.19061 0.08653 0.0
H435 H 0.20641 0.48258 0.2397 0.0
H436 H 0.16162 0.41543 0.23962 0.0
H437 H 0.19124 0.40799 0.24279 0.0
H438 H 0.24573 0.48071 0.12985 0.0
H439 H 0.26783 0.50103 0.17788 0.0
H440 H 0.24315 0.50102 0.17505 0.0
H441 H 0.24189 0.50095 0.31176 0.0
H442 H 0.26661 0.50107 0.31501 0.0
H443 H 0.24375 0.48068 0.36 0.0
H444 H 0.22579 0.40799 0.247 0.0
H445 H 0.26283 0.41545 0.25144 0.0
H446 H 0.28511 0.4826 0.25111 0.0
C447 C 0.20291 0.46634 0.2409 0.0
C448 C 0.18183 0.44952 0.23983 0.0
C449 C 0.17774 0.42846 0.2403 0.0
C450 C 0.19443 0.42412 0.24222 0.0
C451 C 0.2151 0.44106 0.24358 0.0
C452 C 0.2194 0.46175 0.24294 0.0
C453 C 0.24301 0.47705 0.24493 0.0
C454 C 0.25036 0.49076 0.17793 0.0
C455 C 0.24917 0.49074 0.31191 0.0
C456 C 0.25132 0.46175 0.24689 0.0
C457 C 0.23496 0.44106 0.246 0.0
C458 C 0.23871 0.42413 0.24768 0.0
C459 C 0.25973 0.42848 0.25031 0.0
C460 C 0.27668 0.44954 0.25123 0.0
C461 C 0.27239 0.46635 0.24963 0.0
H462 H 0.72826 0.20037 0.45274 0.0
H463 H 0.74702 0.16358 0.32305 0.0
H464 H 0.78333 0.19404 0.31597 0.0
H465 H 0.7601 0.25031 0.36902 0.0
H466 H 0.76694 0.26529 0.44986 0.0
H467 H 0.74231 0.24077 0.44337 0.0
H468 H 0.75228 0.2265 0.55332 0.0
H469 H 0.77692 0.25101 0.56029 0.0
H470 H 0.77693 0.2264 0.55429 0.0
H471 H 0.81733 0.22884 0.32022 0.0
H472 H 0.84717 0.26505 0.34104 0.0
H473 H 0.8072 0.27836 0.47533 0.0
C474 C 0.74009 0.19865 0.42363 0.0
C475 C 0.73484 0.17961 0.38833 0.0
C476 C 0.75065 0.17811 0.34973 0.0
C477 C 0.77133 0.19528 0.34573 0.0
C478 C 0.77602 0.2138 0.38132 0.0
C479 C 0.76091 0.21555 0.42008 0.0
C480 C 0.7702 0.23709 0.45451 0.0
C481 C 0.75923 0.24907 0.42755 0.0
C482 C 0.76901 0.23513 0.5354 0.0
C483 C 0.79285 0.24725 0.42865 0.0
C484 C 0.79583 0.23357 0.38606 0.0
C485 C 0.81524 0.2396 0.35404 0.0
C486 C 0.83205 0.2601 0.36604 0.0
C487 C 0.82938 0.27416 0.41026 0.0
C488 C 0.80958 0.26768 0.442 0.0
H489 H 0.52567 0.72294 0.60034 0.0
H490 H 0.59159 0.74631 0.55021 0.0
H491 H 0.59826 0.78305 0.55339 0.0
H492 H 0.51954 0.76008 0.49458 0.0
H493 H 0.50215 0.76281 0.55589 0.0
H494 H 0.50286 0.73855 0.55253 0.0
H495 H 0.51135 0.74164 0.68626 0.0
H496 H 0.51065 0.76592 0.69003 0.0
H497 H 0.53379 0.76529 0.71972 0.0
H498 H 0.59761 0.81716 0.56198 0.0
H499 H 0.5893 0.84615 0.56973 0.0
H500 H 0.5236 0.80056 0.61058 0.0
C501 C 0.54151 0.73587 0.59073 0.0
C502 C 0.55821 0.73199 0.57564 0.0
C503 C 0.57868 0.74913 0.56209 0.0
C504 C 0.58259 0.76997 0.56396 0.0
C505 C 0.56579 0.77334 0.57909 0.0
C506 C 0.54563 0.75676 0.59192 0.0
C507 C 0.53023 0.76464 0.60465 0.0
C508 C 0.51266 0.75601 0.54856 0.0
C509 C 0.52096 0.75904 0.67963 0.0
C510 C 0.54481 0.78821 0.59647 0.0
C511 C 0.56531 0.79292 0.58241 0.0
C512 C 0.58163 0.81366 0.57295 0.0
C513 C 0.57682 0.82998 0.57751 0.0
C514 C 0.5559 0.82541 0.59075 0.0
C515 C 0.53973 0.80432 0.60051 0.0
H516 H 0.72964 0.52662 0.8004 0.0
H517 H 0.7487 0.59016 0.73195 0.0
H518 H 0.78562 0.59768 0.71776 0.0
H519 H 0.77828 0.54013 0.89872 0.0
H520 H 0.77799 0.51625 0.87285 0.0
H521 H 0.7535 0.51646 0.88134 0.0
H522 H 0.74372 0.50294 0.75282 0.0
H523 H 0.76823 0.50284 0.7437 0.0
H524 H 0.7617 0.51753 0.68219 0.0
H525 H 0.81986 0.59734 0.70391 0.0
H526 H 0.84946 0.58988 0.69799 0.0
H527 H 0.80814 0.52663 0.77661 0.0
C528 C 0.74176 0.5422 0.78376 0.0
C529 C 0.73665 0.55798 0.76798 0.0
C530 C 0.75259 0.57807 0.74505 0.0
C531 C 0.7735 0.5824 0.73665 0.0
C532 C 0.7781 0.56644 0.75174 0.0
C533 C 0.76272 0.5468 0.77549 0.0
C534 C 0.77172 0.53227 0.78644 0.0
C535 C 0.77029 0.52591 0.86448 0.0
C536 C 0.76069 0.51275 0.73841 0.0
C537 C 0.79445 0.54666 0.76415 0.0
C538 C 0.79782 0.56631 0.74433 0.0
C539 C 0.81745 0.58208 0.71994 0.0
C540 C 0.83411 0.57771 0.71643 0.0
C541 C 0.83103 0.5578 0.73745 0.0
C542 C 0.81093 0.54209 0.76122 0.0
H543 H 0.28558 0.8036 0.91392 0.0
H544 H 0.26232 0.84764 0.92719 0.0
H545 H 0.22579 0.8178 0.94329 0.0
H546 H 0.24194 0.76408 0.81441 0.0
H547 H 0.24186 0.74216 0.85828 0.0
H548 H 0.2661 0.767 0.85063 0.0
H549 H 0.27089 0.76812 0.98639 0.0
H550 H 0.24663 0.74328 0.99446 0.0
H551 H 0.25004 0.76599 0.04293 0.0
H552 H 0.19184 0.78302 0.95766 0.0
H553 H 0.16271 0.74581 0.9617 0.0
H554 H 0.20806 0.72446 0.93673 0.0
C555 C 0.27273 0.80685 0.92059 0.0
C556 C 0.27657 0.82778 0.91967 0.0
C557 C 0.25952 0.83162 0.92777 0.0
C558 C 0.23882 0.81482 0.93716 0.0
C559 C 0.23549 0.79429 0.93795 0.0
C560 C 0.25196 0.79024 0.92943 0.0
C561 C 0.24405 0.76673 0.92982 0.0
C562 C 0.24877 0.75958 0.85907 0.0
C563 C 0.25346 0.76068 0.99212 0.0
C564 C 0.22055 0.75816 0.9396 0.0
C565 C 0.21595 0.77431 0.94479 0.0
C566 C 0.19527 0.77026 0.9536 0.0
C567 C 0.17886 0.74915 0.95606 0.0
C568 C 0.18324 0.73245 0.94905 0.0
C569 C 0.20436 0.73703 0.94167 0.0
H570 H 0.46503 0.09178 0.74434 0.0
H571 H 0.49201 0.15958 0.75785 0.0
H572 H 0.48031 0.16022 0.6356 0.0
H573 H 0.48214 0.09204 0.56893 0.0
H574 H 0.45913 0.06754 0.54408 0.0
H575 H 0.46747 0.07224 0.6348 0.0
H576 H 0.43029 0.06516 0.67185 0.0
H577 H 0.4219 0.06064 0.58096 0.0
H578 H 0.41964 0.08026 0.63191 0.0
H579 H 0.46646 0.15356 0.51164 0.0
H580 H 0.45615 0.14115 0.38934 0.0
H581 H 0.44036 0.07791 0.4534 0.0
C582 C 0.46821 0.10667 0.72146 0.0
C583 C 0.4792 0.12563 0.75997 0.0
C584 C 0.48356 0.14494 0.72863 0.0
C585 C 0.47684 0.14541 0.65967 0.0
C586 C 0.46601 0.12643 0.62274 0.0
C587 C 0.46202 0.10746 0.6521 0.0
C588 C 0.45197 0.08968 0.59881 0.0
C589 C 0.46602 0.07981 0.58589 0.0
C590 C 0.42962 0.07295 0.6223 0.0
C591 C 0.45126 0.10168 0.53459 0.0
C592 C 0.45896 0.12275 0.55005 0.0
C593 C 0.46034 0.13708 0.49892 0.0
C594 C 0.45434 0.12985 0.42959 0.0
C595 C 0.44746 0.10855 0.41172 0.0
C596 C 0.44547 0.09425 0.46545 0.0
H597 H 0.31527 0.42094 0.62807 0.0
H598 H 0.36845 0.47128 0.51613 0.0
H599 H 0.38114 0.49139 0.62728 0.0
H600 H 0.30621 0.45485 0.74414 0.0
H601 H 0.29914 0.43726 0.81864 0.0
H602 H 0.29433 0.4268 0.73027 0.0
H603 H 0.31607 0.40836 0.75669 0.0
H604 H 0.32101 0.41883 0.84505 0.0
H605 H 0.34285 0.42383 0.78824 0.0
H606 H 0.38835 0.50575 0.75151 0.0
H607 H 0.38945 0.51341 0.87862 0.0
H608 H 0.33047 0.45455 0.90781 0.0
C609 C 0.32962 0.43616 0.62693 0.0
C610 C 0.34089 0.44452 0.56327 0.0
C611 C 0.35951 0.46458 0.5641 0.0
C612 C 0.36687 0.47611 0.62706 0.0
C613 C 0.35537 0.46744 0.68881 0.0
C614 C 0.3371 0.44796 0.68922 0.0
C615 C 0.32757 0.44234 0.76261 0.0
C616 C 0.30551 0.44019 0.76397 0.0
C617 C 0.32684 0.42214 0.78972 0.0
C618 C 0.34345 0.46157 0.80356 0.0
C619 C 0.35937 0.47584 0.76005 0.0
C620 C 0.37594 0.49467 0.78603 0.0
C621 C 0.37636 0.4989 0.85846 0.0
C622 C 0.36034 0.48441 0.90457 0.0
C623 C 0.34349 0.46568 0.87583 0.0
H624 H 0.89884 0.35644 0.74016 0.0
H625 H 0.89701 0.29622 0.74929 0.0
H626 H 0.89208 0.2954 0.87918 0.0
H627 H 0.9284 0.37746 0.90061 0.0
H628 H 0.91452 0.39121 0.92418 0.0
H629 H 0.91768 0.38668 0.83269 0.0
H630 H 0.87708 0.36817 0.81545 0.0
H631 H 0.87376 0.37251 0.90695 0.0
H632 H 0.86004 0.34616 0.87116 0.0
H633 H 0.88509 0.30055 0.00703 0.0
H634 H 0.88024 0.3125 0.12327 0.0
H635 H 0.88964 0.37076 0.02965 0.0
C636 C 0.89738 0.34303 0.76937 0.0
C637 C 0.89811 0.32627 0.73491 0.0
C638 C 0.89649 0.3092 0.77497 0.0
C639 C 0.8936 0.30858 0.8485 0.0
C640 C 0.89273 0.32533 0.88068 0.0
C641 C 0.89486 0.34235 0.84236 0.0
C642 C 0.89393 0.35863 0.88916 0.0
C643 C 0.91488 0.37974 0.8865 0.0
C644 C 0.87508 0.36152 0.8695 0.0
C645 C 0.89071 0.34804 0.96013 0.0
C646 C 0.8899 0.32879 0.95419 0.0
C647 C 0.88627 0.31584 0.01249 0.0
C648 C 0.88384 0.32295 0.07871 0.0
C649 C 0.88553 0.34304 0.08637 0.0
C650 C 0.88862 0.35549 0.02582 0.0
H651 H 0.54296 0.87462 0.88325 0.0
H652 H 0.60269 0.93355 0.89335 0.0
H653 H 0.60159 0.93129 0.02365 0.0
H654 H 0.51882 0.88487 0.02263 0.0
H655 H 0.50487 0.85819 0.05568 0.0
H656 H 0.51168 0.86297 0.96367 0.0
H657 H 0.53148 0.84184 0.97208 0.0
H658 H 0.52459 0.83684 0.06421 0.0
H659 H 0.5519 0.84907 0.03741 0.0
H660 H 0.59162 0.92497 0.15119 0.0
H661 H 0.57451 0.91454 0.26709 0.0
H662 H 0.52174 0.85896 0.17447 0.0
C663 C 0.55603 0.88689 0.91266 0.0
C664 C 0.57292 0.9043 0.87823 0.0
C665 C 0.58964 0.92005 0.91869 0.0
C666 C 0.58915 0.91888 0.99263 0.0
C667 C 0.57196 0.90176 0.02486 0.0
C668 C 0.5558 0.88595 0.98614 0.0
C669 C 0.53842 0.86999 0.03331 0.0
C670 C 0.51721 0.86896 0.01789 0.0
C671 C 0.53649 0.84814 0.02633 0.0
C672 C 0.54701 0.87964 0.10477 0.0
C673 C 0.56645 0.89784 0.09874 0.0
C674 C 0.57676 0.91037 0.15689 0.0
C675 C 0.567 0.90411 0.22296 0.0
C676 C 0.54722 0.88536 0.23059 0.0
C677 C 0.53711 0.87307 0.17048 0.0
H678 H 0.64681 0.54261 0.06438 0.0
H679 H 0.70618 0.60188 0.05975 0.0
H680 H 0.71075 0.59837 0.18779 0.0
H681 H 0.62991 0.55035 0.23737 0.0
H682 H 0.61779 0.52276 0.25988 0.0
H683 H 0.61914 0.53058 0.16902 0.0
H684 H 0.6381 0.50972 0.13696 0.0
H685 H 0.63709 0.50205 0.22779 0.0
H686 H 0.66212 0.51552 0.18235 0.0
H687 H 0.71001 0.58644 0.31408 0.0
H688 H 0.70235 0.56942 0.43078 0.0
H689 H 0.64224 0.5192 0.35305 0.0
C690 C 0.6607 0.55497 0.0904 0.0
C691 C 0.6762 0.5725 0.05239 0.0
C692 C 0.69407 0.5884 0.08821 0.0
C693 C 0.69684 0.58646 0.16068 0.0
C694 C 0.68142 0.5687 0.19629 0.0
C695 C 0.66354 0.55342 0.16247 0.0
C696 C 0.64924 0.53589 0.21234 0.0
C697 C 0.62775 0.53485 0.22012 0.0
C698 C 0.64649 0.51454 0.18841 0.0
C699 C 0.66202 0.54349 0.27952 0.0
C700 C 0.68057 0.56237 0.26923 0.0
C701 C 0.69527 0.57196 0.32319 0.0
C702 C 0.69063 0.56227 0.38979 0.0
C703 C 0.67128 0.54338 0.40223 0.0
C704 C 0.65706 0.53376 0.34568 0.0
H705 H 0.1077 0.64269 0.23852 0.0
H706 H 0.10735 0.70187 0.23335 0.0
H707 H 0.11562 0.70666 0.36119 0.0
H708 H 0.08345 0.62605 0.41226 0.0
H709 H 0.09914 0.61411 0.43458 0.0
H710 H 0.09243 0.61524 0.34384 0.0
H711 H 0.13218 0.63426 0.31081 0.0
H712 H 0.13906 0.63347 0.40151 0.0
H713 H 0.15034 0.65836 0.35558 0.0
H714 H 0.1271 0.70622 0.48721 0.0
H715 H 0.13681 0.69888 0.60381 0.0
H716 H 0.12722 0.63878 0.52705 0.0
C717 C 0.10915 0.65657 0.2644 0.0
C718 C 0.10693 0.67196 0.22625 0.0
C719 C 0.10884 0.68984 0.26189 0.0
C720 C 0.11366 0.69274 0.33426 0.0
C721 C 0.1162 0.67745 0.36998 0.0
C722 C 0.11366 0.65955 0.33639 0.0
C723 C 0.11714 0.64543 0.38637 0.0
C724 C 0.09683 0.62394 0.39476 0.0
C725 C 0.13579 0.64274 0.3621 0.0
C726 C 0.12237 0.65832 0.45332 0.0
C727 C 0.12186 0.67677 0.44282 0.0
C728 C 0.12698 0.69155 0.4965 0.0
C729 C 0.13223 0.68709 0.56307 0.0
C730 C 0.13195 0.66784 0.57578 0.0
C731 C 0.12733 0.65353 0.51948 0.0
H732 H 0.88598 0.51829 0.1391 0.0
H733 H 0.88178 0.57096 0.05255 0.0
H734 H 0.88866 0.58743 0.17091 0.0
H735 H 0.85895 0.51546 0.3023 0.0
H736 H 0.875 0.508 0.35358 0.0
H737 H 0.87013 0.50091 0.26173 0.0
H738 H 0.91057 0.51953 0.23927 0.0
H739 H 0.91551 0.52685 0.33092 0.0
H740 H 0.92694 0.54688 0.26352 0.0
H741 H 0.89727 0.59853 0.29931 0.0
H742 H 0.90334 0.60148 0.42875 0.0
H743 H 0.90002 0.5405 0.42869 0.0
C744 C 0.88649 0.53327 0.14524 0.0
C745 C 0.88423 0.54383 0.08679 0.0
C746 C 0.88449 0.56317 0.09658 0.0
C747 C 0.88818 0.57252 0.16353 0.0
C748 C 0.8911 0.56203 0.21997 0.0
C749 C 0.88994 0.54267 0.21158 0.0
C750 C 0.89299 0.5343 0.28069 0.0
C751 C 0.87308 0.51344 0.30075 0.0
C752 C 0.91268 0.53175 0.27843 0.0
C753 C 0.8962 0.55204 0.32921 0.0
C754 C 0.8952 0.56798 0.29351 0.0
C755 C 0.89798 0.58608 0.32795 0.0
C756 C 0.90152 0.5877 0.40116 0.0
C757 C 0.90203 0.57119 0.43849 0.0
C758 C 0.89954 0.55332 0.40165 0.0
H759 H 0.36988 0.92799 0.54845 0.0
H760 H 0.31873 0.86744 0.61945 0.0
H761 H 0.31509 0.85326 0.49896 0.0
H762 H 0.34699 0.92606 0.37101 0.0
H763 H 0.37264 0.9389 0.32948 0.0
H764 H 0.36992 0.94476 0.42001 0.0
H765 H 0.398 0.93481 0.45714 0.0
H766 H 0.40057 0.9286 0.36707 0.0
H767 H 0.39399 0.90906 0.43516 0.0
H768 H 0.32043 0.84425 0.37522 0.0
H769 H 0.33086 0.84267 0.25176 0.0
H770 H 0.37658 0.90953 0.25847 0.0
C771 C 0.35757 0.9119 0.53825 0.0
C772 C 0.34458 0.89884 0.59343 0.0
C773 C 0.32875 0.87782 0.57803 0.0
C774 C 0.32664 0.86957 0.50975 0.0
C775 C 0.34018 0.88265 0.45711 0.0
C776 C 0.35499 0.90352 0.47008 0.0
C777 C 0.36785 0.91409 0.40444 0.0
C778 C 0.36412 0.93201 0.37978 0.0
C779 C 0.3915 0.92211 0.41673 0.0
C780 C 0.35838 0.89574 0.3532 0.0
C781 C 0.34254 0.8777 0.38477 0.0
C782 C 0.3325 0.85838 0.3495 0.0
C783 C 0.3386 0.85756 0.27981 0.0
C784 C 0.35431 0.876 0.24608 0.0
C785 C 0.36429 0.89531 0.28316 0.0
H786 H 0.49031 0.37266 0.46591 0.0
H787 H 0.4437 0.31341 0.37159 0.0
H788 H 0.42717 0.30061 0.48776 0.0
H789 H 0.49702 0.3489 0.62345 0.0
H790 H 0.50084 0.37045 0.67953 0.0
H791 H 0.50833 0.37522 0.58792 0.0
H792 H 0.48455 0.39195 0.57117 0.0
H793 H 0.47691 0.38712 0.66266 0.0
H794 H 0.45696 0.377 0.59479 0.0
H795 H 0.415 0.29467 0.61564 0.0
H796 H 0.41059 0.29506 0.74548 0.0
H797 H 0.46685 0.35696 0.75534 0.0
C798 C 0.47661 0.35699 0.46958 0.0
C799 C 0.46777 0.34447 0.40882 0.0
C800 C 0.4501 0.32387 0.41629 0.0
C801 C 0.44074 0.31629 0.48248 0.0
C802 C 0.44952 0.3293 0.54099 0.0
C803 C 0.46728 0.34908 0.53527 0.0
C804 C 0.47416 0.35966 0.60646 0.0
C805 C 0.4964 0.36379 0.62544 0.0
C806 C 0.47307 0.38014 0.60888 0.0
C807 C 0.45745 0.34278 0.65304 0.0
C808 C 0.44323 0.32544 0.61449 0.0
C809 C 0.42614 0.30811 0.64648 0.0
C810 C 0.42369 0.30848 0.72001 0.0
C811 C 0.43845 0.32593 0.76032 0.0
C812 C 0.45544 0.34326 0.72602 0.0
H813 H 0.14959 0.4872 0.64578 0.0
H814 H 0.08904 0.44475 0.54993 0.0
H815 H 0.07522 0.42774 0.66505 0.0
H816 H 0.1497 0.44964 0.77445 0.0
H817 H 0.16136 0.46915 0.84327 0.0
H818 H 0.16718 0.47695 0.75208 0.0
H819 H 0.15452 0.50408 0.76949 0.0
H820 H 0.14874 0.49641 0.86066 0.0
H821 H 0.12839 0.49529 0.80392 0.0
H822 H 0.067 0.41706 0.79157 0.0
H823 H 0.06493 0.41377 0.92155 0.0
H824 H 0.13077 0.46279 0.93674 0.0
C825 C 0.13355 0.4741 0.64914 0.0
C826 C 0.12066 0.46667 0.58845 0.0
C827 C 0.09955 0.44992 0.59495 0.0
C828 C 0.09146 0.44033 0.66037 0.0
C829 C 0.10464 0.44775 0.71909 0.0
C830 C 0.12523 0.46427 0.71429 0.0
C831 C 0.13564 0.46989 0.78635 0.0
C832 C 0.15459 0.46618 0.78918 0.0
C833 C 0.1422 0.49277 0.80626 0.0
C834 C 0.1176 0.45416 0.83232 0.0
C835 C 0.09988 0.44152 0.7924 0.0
C836 C 0.08085 0.42668 0.82336 0.0
C837 C 0.07982 0.42491 0.8972 0.0
C838 C 0.09772 0.43782 0.93923 0.0
C839 C 0.11693 0.45238 0.90601 0.0
H840 H 0.64145 0.12053 0.80409 0.0
H841 H 0.70095 0.12901 0.72518 0.0
H842 H 0.70956 0.12149 0.84431 0.0
H843 H 0.6614 0.14573 0.97058 0.0
H844 H 0.63766 0.12797 0.018 0.0
H845 H 0.63622 0.13331 0.92608 0.0
H846 H 0.61749 0.09315 0.89947 0.0
H847 H 0.61908 0.08774 0.9913 0.0
H848 H 0.63 0.07824 0.92497 0.0
H849 H 0.71138 0.11295 0.97311 0.0
H850 H 0.70745 0.10692 0.10245 0.0
H851 H 0.64707 0.10497 0.09423 0.0
C852 C 0.65627 0.12078 0.8121 0.0
C853 C 0.6703 0.12472 0.75575 0.0
C854 C 0.68971 0.12527 0.76775 0.0
C855 C 0.69476 0.12114 0.83507 0.0
C856 C 0.68029 0.11674 0.88946 0.0
C857 C 0.66154 0.11675 0.87872 0.0
C858 C 0.64895 0.11223 0.94603 0.0
C859 C 0.64589 0.13093 0.96636 0.0
C860 C 0.62762 0.09161 0.94005 0.0
C861 C 0.66363 0.10987 0.99652 0.0
C862 C 0.68154 0.11231 0.96312 0.0
C863 C 0.69741 0.11099 -0.00013 0.0
C864 C 0.69502 0.10747 0.07305 0.0
C865 C 0.67701 0.10556 0.10807 0.0
C866 C 0.66107 0.10647 0.0689 0.0
H867 H 0.54775 0.67486 0.26535 0.0
H868 H 0.60254 0.66636 0.2653 0.0
H869 H 0.60168 0.66508 0.13495 0.0
H870 H 0.52032 0.63918 0.13422 0.0
H871 H 0.50948 0.65407 0.09407 0.0
H872 H 0.51622 0.6575 0.18623 0.0
H873 H 0.54069 0.69771 0.16717 0.0
H874 H 0.53381 0.69448 0.07487 0.0
H875 H 0.56117 0.7069 0.10104 0.0
H876 H 0.59155 0.65941 0.00729 0.0
H877 H 0.57461 0.65238 0.89064 0.0
H878 H 0.52714 0.66583 0.97359 0.0
C879 C 0.55987 0.6732 0.23796 0.0
C880 C 0.5752 0.67067 0.27532 0.0
C881 C 0.59072 0.66843 0.23763 0.0
C882 C 0.59034 0.66767 0.16366 0.0
C883 C 0.57453 0.66946 0.12857 0.0
C884 C 0.55976 0.67249 0.16445 0.0
C885 C 0.54354 0.67251 0.11489 0.0
C886 C 0.52107 0.65476 0.13348 0.0
C887 C 0.54489 0.69419 0.11447 0.0
C888 C 0.55102 0.66826 0.04571 0.0
C889 C 0.56901 0.66673 0.05459 0.0
C890 C 0.57789 0.66128 -0.00081 0.0
C891 C 0.56824 0.65749 0.93282 0.0
C892 C 0.55002 0.65938 0.92234 0.0
C893 C 0.5413 0.66471 0.97977 0.0
H894 H 0.53413 0.11672 0.12426 0.0
H895 H 0.50558 0.12379 0.31611 0.0
H896 H 0.53528 0.12656 0.38551 0.0
H897 H 0.55276 0.08436 0.20034 0.0
H898 H 0.57708 0.09592 0.15069 0.0
H899 H 0.55415 0.09569 0.11462 0.0
H900 H 0.57569 0.13632 0.09916 0.0
H901 H 0.5987 0.13664 0.13519 0.0
H902 H 0.58908 0.15275 0.17423 0.0
H903 H 0.5674 0.12763 0.43562 0.0
H904 H 0.59958 0.12592 0.4629 0.0
H905 H 0.60731 0.11759 0.23988 0.0
C906 C 0.53425 0.11906 0.18072 0.0
C907 C 0.51748 0.12006 0.21446 0.0
C908 C 0.51816 0.12291 0.28875 0.0
C909 C 0.53502 0.12458 0.32885 0.0
C910 C 0.55118 0.12335 0.29423 0.0
C911 C 0.55097 0.12062 0.22193 0.0
C912 C 0.56999 0.11899 0.19858 0.0
C913 C 0.56307 0.09746 0.16404 0.0
C914 C 0.58421 0.13726 0.14885 0.0
C915 C 0.5807 0.12101 0.26909 0.0
C916 C 0.56966 0.12369 0.32346 0.0
C917 C 0.57625 0.12562 0.39347 0.0
C918 C 0.59457 0.12463 0.40846 0.0
C919 C 0.60603 0.12161 0.35372 0.0
C920 C 0.59897 0.11993 0.28309 0.0
H921 H 0.42044 0.53443 0.27503 0.0
H922 H 0.38172 0.5074 0.46197 0.0
H923 H 0.40791 0.53704 0.53321 0.0
H924 H 0.46954 0.55158 0.36002 0.0
H925 H 0.48389 0.57574 0.31046 0.0
H926 H 0.46126 0.55338 0.27189 0.0
H927 H 0.44391 0.57631 0.24924 0.0
H928 H 0.46656 0.59877 0.28756 0.0
H929 H 0.44047 0.59031 0.3217 0.0
H930 H 0.43882 0.56821 0.58617 0.0
H931 H 0.47305 0.5991 0.61786 0.0
H932 H 0.49252 0.60626 0.39805 0.0
C933 C 0.41735 0.535 0.33066 0.0
C934 C 0.39903 0.51857 0.36289 0.0
C935 C 0.3957 0.51969 0.43615 0.0
C936 C 0.41044 0.53654 0.47712 0.0
C937 C 0.42851 0.55225 0.44428 0.0
C938 C 0.43208 0.55172 0.37278 0.0
C939 C 0.45347 0.5701 0.35193 0.0
C940 C 0.46789 0.56222 0.32181 0.0
C941 C 0.45094 0.58474 0.2995 0.0
C942 C 0.46138 0.58076 0.423 0.0
C943 C 0.44663 0.57027 0.47532 0.0
C944 C 0.45048 0.57668 0.54561 0.0
C945 C 0.47001 0.59425 0.56311 0.0
C946 C 0.48554 0.6052 0.5106 0.0
C947 C 0.48099 0.59836 0.43951 0.0
H948 H 0.89166 0.419 0.44109 0.0
H949 H 0.86847 0.37611 0.61977 0.0
H950 H 0.86454 0.40242 0.68864 0.0
H951 H 0.92255 0.46492 0.54035 0.0
H952 H 0.91709 0.48219 0.4877 0.0
H953 H 0.91593 0.45923 0.44826 0.0
H954 H 0.87749 0.44621 0.40747 0.0
H955 H 0.87863 0.46927 0.44632 0.0
H956 H 0.85791 0.44331 0.4714 0.0
H957 H 0.86604 0.43398 0.74266 0.0
H958 H 0.87177 0.469 0.77707 0.0
H959 H 0.89398 0.49212 0.56503 0.0
C960 C 0.88525 0.41501 0.49401 0.0
C961 C 0.88032 0.39546 0.5249 0.0
C962 C 0.87241 0.39099 0.59496 0.0
C963 C 0.87005 0.40581 0.63461 0.0
C964 C 0.87562 0.42514 0.60369 0.0
C965 C 0.88291 0.4298 0.5349 0.0
C966 C 0.88896 0.45235 0.51649 0.0
C967 C 0.91253 0.46544 0.49707 0.0
C968 C 0.87491 0.4528 0.45689 0.0
C969 C 0.88432 0.4596 0.58602 0.0
C970 C 0.87652 0.44358 0.63535 0.0
C971 C 0.87191 0.44663 0.7043 0.0
C972 C 0.8753 0.46662 0.72346 0.0
C973 C 0.88325 0.48335 0.67389 0.0
C974 C 0.8877 0.47965 0.60414 0.0
H975 H 0.42026 0.88893 0.87857 0.0
H976 H 0.38304 0.88126 0.6905 0.0
H977 H 0.40952 0.87865 0.61798 0.0
H978 H 0.4705 0.92159 0.79768 0.0
H979 H 0.48399 0.91037 0.84489 0.0
H980 H 0.46146 0.9103 0.88407 0.0
H981 H 0.44301 0.86972 0.89981 0.0
H982 H 0.46554 0.8697 0.86083 0.0
H983 H 0.43954 0.85329 0.82431 0.0
H984 H 0.4401 0.87792 0.56416 0.0
H985 H 0.47372 0.87977 0.53217 0.0
H986 H 0.49214 0.88865 0.7531 0.0
C987 C 0.4176 0.88644 0.82231 0.0
C988 C 0.3995 0.88527 0.79047 0.0
C989 C 0.39676 0.88229 0.71638 0.0
C990 C 0.4117 0.88071 0.6745 0.0
C991 C 0.42943 0.8822 0.70712 0.0
C992 C 0.43254 0.88501 0.77921 0.0
C993 C 0.45356 0.88697 0.79987 0.0
C994 C 0.46824 0.9086 0.83361 0.0
C995 C 0.4502 0.86884 0.84912 0.0
C996 C 0.46172 0.88501 0.7281 0.0
C997 C 0.44744 0.8821 0.67553 0.0
C998 C 0.45143 0.88012 0.60484 0.0
C999 C 0.4706 0.8812 0.58718 0.0
C1000 C 0.48566 0.88437 0.63992 0.0
C1001 C 0.48101 0.88621 0.71139 0.0
H1002 H 0.53598 0.42145 0.05087 0.0
H1003 H 0.51696 0.37725 0.87614 0.0
H1004 H 0.54721 0.40317 0.80648 0.0
H1005 H 0.55101 0.46668 0.94623 0.0
H1006 H 0.57353 0.48442 -0.00121 0.0
H1007 H 0.55165 0.46173 0.03917 0.0
H1008 H 0.57704 0.44918 0.08456 0.0
H1009 H 0.59902 0.47196 0.04473 0.0
H1010 H 0.59397 0.44584 0.02288 0.0
H1011 H 0.57746 0.43421 0.75154 0.0
H1012 H 0.60695 0.46884 0.71541 0.0
H1013 H 0.60699 0.49381 0.92365 0.0
C1014 C 0.53853 0.41713 -0.00138 0.0
C1015 C 0.52412 0.3973 0.96907 0.0
C1016 C 0.52772 0.39236 0.89987 0.0
C1017 C 0.54492 0.40696 0.8598 0.0
C1018 C 0.55849 0.42653 0.88941 0.0
C1019 C 0.55566 0.4317 0.95725 0.0
C1020 C 0.57204 0.45442 0.97416 0.0
C1021 C 0.56142 0.46758 0.99053 0.0
C1022 C 0.58637 0.4554 0.0352 0.0
C1023 C 0.58414 0.46114 0.90488 0.0
C1024 C 0.5761 0.44473 0.85703 0.0
C1025 C 0.58407 0.44717 0.7887 0.0
C1026 C 0.60079 0.46695 0.76858 0.0
C1027 C 0.60938 0.4841 0.81653 0.0
C1028 C 0.6009 0.48103 0.88573 0.0
H1029 H 0.12051 0.53413 0.22814 0.0
H1030 H 0.13911 0.51035 0.04808 0.0
H1031 H 0.14312 0.5401 0.97612 0.0
H1032 H 0.08919 0.5496 0.13109 0.0
H1033 H 0.09631 0.57317 0.1813 0.0
H1034 H 0.09703 0.5513 0.22216 0.0
H1035 H 0.13627 0.57584 0.2563 0.0
H1036 H 0.13558 0.59782 0.21592 0.0
H1037 H 0.15519 0.59113 0.18878 0.0
H1038 H 0.1429 0.57067 0.92058 0.0
H1039 H 0.13852 0.60071 0.8849 0.0
H1040 H 0.11933 0.6049 0.09875 0.0
C1041 C 0.12588 0.53552 0.17408 0.0
C1042 C 0.12959 0.51997 0.14382 0.0
C1043 C 0.13614 0.52204 0.07236 0.0
C1044 C 0.13853 0.53894 0.03099 0.0
C1045 C 0.13427 0.5537 0.06153 0.0
C1046 C 0.12814 0.55228 0.13139 0.0
C1047 C 0.12325 0.56967 0.14923 0.0
C1048 C 0.10007 0.56037 0.17229 0.0
C1049 C 0.13849 0.5845 0.20592 0.0
C1050 C 0.1273 0.58073 0.0783 0.0
C1051 C 0.13382 0.57135 0.02875 0.0
C1052 C 0.13796 0.57831 0.959 0.0
C1053 C 0.13537 0.59536 0.93917 0.0
C1054 C 0.12859 0.60524 0.98881 0.0
C1055 C 0.1246 0.59778 0.05941 0.0
H1056 H 0.43509 0.05427 0.97006 0.0
H1057 H 0.40423 0.04665 0.17279 0.0
H1058 H 0.38028 0.00898 0.14637 0.0
H1059 H 0.38725 0.01738 0.87112 0.0
H1060 H 0.40119 0.00765 0.81859 0.0
H1061 H 0.41485 0.03442 0.85088 0.0
H1062 H 0.44287 0.02762 0.91006 0.0
H1063 H 0.42932 1.00086 0.87814 0.0
H1064 H 0.43446 0.00597 0.97119 0.0
H1065 H 0.36192 0.97171 0.10337 0.0
H1066 H 0.34988 0.93731 0.04534 0.0
H1067 H 0.3917 0.9688 0.86886 0.0
C1068 C 0.42309 0.04479 0.00855 0.0
C1069 C 0.42156 0.05353 0.07357 0.0
C1070 C 0.40573 0.04043 0.12259 0.0
C1071 C 0.39201 0.01899 0.10799 0.0
C1072 C 0.39414 0.01088 0.04388 0.0
C1073 C 0.40918 0.02338 0.99469 0.0
C1074 C 0.40878 0.01049 0.93122 0.0
C1075 C 0.40265 0.01793 0.86397 0.0
C1076 C 0.43012 0.01128 0.92217 0.0
C1077 C 0.39149 0.98867 0.95321 0.0
C1078 C 0.38322 0.98932 0.01831 0.0
C1079 C 0.36807 0.97105 0.05203 0.0
C1080 C 0.36142 0.95159 0.01894 0.0
C1081 C 0.3698 0.9505 0.95274 0.0
C1082 C 0.38474 0.9693 0.91883 0.0
H1083 H 0.43415 0.37974 0.19316 0.0
H1084 H 0.41565 0.36949 0.97244 0.0
H1085 H 0.39343 0.38566 0.99161 0.0
H1086 H 0.38252 0.36921 0.26196 0.0
H1087 H 0.39421 0.3893 0.32902 0.0
H1088 H 0.40779 0.37579 0.29933 0.0
H1089 H 0.44076 0.41169 0.26887 0.0
H1090 H 0.42728 0.4253 0.29822 0.0
H1091 H 0.43807 0.42963 0.21021 0.0
H1092 H 0.3761 0.40579 0.0308 0.0
H1093 H 0.3628 0.42691 0.08955 0.0
H1094 H 0.39056 0.42289 0.28714 0.0
C1095 C 0.42525 0.38069 0.149 0.0
C1096 C 0.42671 0.37334 0.08114 0.0
C1097 C 0.41478 0.37491 0.02489 0.0
C1098 C 0.4021 0.38409 0.03524 0.0
C1099 C 0.40126 0.39142 0.10237 0.0
C1100 C 0.4123 0.38963 0.15857 0.0
C1101 C 0.40894 0.39928 0.22494 0.0
C1102 C 0.3977 0.38238 0.2822 0.0
C1103 C 0.43002 0.41756 0.25213 0.0
C1104 C 0.3947 0.40721 0.19672 0.0
C1105 C 0.39053 0.40248 0.12581 0.0
C1106 C 0.37896 0.4093 0.08653 0.0
C1107 C 0.37154 0.42137 0.12034 0.0
C1108 C 0.37546 0.42637 0.19298 0.0
C1109 C 0.38698 0.41894 0.23189 0.0
H1110 H 0.04068 0.42115 0.20411 0.0
H1111 H 0.07252 0.42759 0.40338 0.0
H1112 H 0.03831 0.40694 0.46287 0.0
H1113 H 1.00011 0.42862 0.2768 0.0
H1114 H 0.97932 0.40999 0.22014 0.0
H1115 H 1.00633 0.42308 0.19009 0.0
H1116 H 1.00343 0.38685 0.16568 0.0
H1117 H 0.97635 0.37365 0.19553 0.0
H1118 H 0.99509 0.36756 0.23549 0.0
H1119 H 1.00121 0.38718 0.50294 0.0
H1120 H 0.96289 0.37104 0.5229 0.0
H1121 H 0.95389 0.37864 0.30039 0.0
C1122 C 0.04037 0.41777 0.25988 0.0
C1123 C 0.05935 0.42572 0.29896 0.0
C1124 C 0.05828 0.42151 0.37228 0.0
C1125 C 0.03887 0.40974 0.40661 0.0
C1126 C 0.02047 0.4024 0.36722 0.0
C1127 C 0.02093 0.4063 0.29561 0.0
C1128 C 0.99864 0.39799 0.26759 0.0
C1129 C 0.99595 0.416 0.23686 0.0
C1130 C 0.99305 0.38047 0.21282 0.0
C1131 C 0.9858 0.38919 0.33486 0.0
C1132 C 0.99877 0.39164 0.3913 0.0
C1133 C 0.99083 0.38508 0.45915 0.0
C1134 C 0.969 0.3759 0.46995 0.0
C1135 C 0.95532 0.37358 0.4134 0.0
C1136 C 0.96391 0.38022 0.34482 0.0
H1137 H 0.58246 0.9657 0.62347 0.0
H1138 H 0.59576 0.93754 0.44377 0.0
H1139 H 0.61877 0.97279 0.39316 0.0
H1140 H 0.57835 0.00442 0.52889 0.0
H1141 H 0.59085 0.02507 0.59379 0.0
H1142 H 0.57753 0.99785 0.621 0.0
H1143 H 0.6117 1.00355 0.68229 0.0
H1144 H 0.62513 0.03087 0.65552 0.0
H1145 H 0.63594 0.01423 0.63244 0.0
H1146 H 0.63713 0.01034 0.35568 0.0
H1147 H 0.65057 0.04824 0.33487 0.0
H1148 H 0.62598 0.05292 0.53877 0.0
C1149 C 0.59071 0.96707 0.57449 0.0
C1150 C 0.58728 0.94887 0.53716 0.0
C1151 C 0.59793 0.95122 0.47249 0.0
C1152 C 0.61118 0.97121 0.44366 0.0
C1153 C 0.61373 0.98883 0.48033 0.0
C1154 C 0.60397 0.98705 0.54461 0.0
C1155 C 0.60824 0.00851 0.57025 0.0
C1156 C 0.58751 0.00898 0.57896 0.0
C1157 C 0.62101 0.01465 0.63922 0.0
C1158 C 0.62138 0.02243 0.50943 0.0
C1159 C 0.6245 0.01073 0.45853 0.0
C1160 C 0.63507 0.01975 0.39561 0.0
C1161 C 0.64258 0.04129 0.38414 0.0
C1162 C 0.63949 0.05364 0.43527 0.0
C1163 C 0.62892 0.04403 0.49907 0.0
H1164 H 0.57707 0.62544 0.70446 0.0
H1165 H 0.59901 0.64102 0.48781 0.0
H1166 H 0.62277 0.62661 0.50645 0.0
H1167 H 0.62819 0.6369 0.78123 0.0
H1168 H 0.61606 0.61513 0.84232 0.0
H1169 H 0.60192 0.62822 0.81417 0.0
H1170 H 0.5708 0.59245 0.77226 0.0
H1171 H 0.58482 0.57925 0.80011 0.0
H1172 H 0.57575 0.57668 0.71027 0.0
H1173 H 0.64155 0.60785 0.54381 0.0
H1174 H 0.65486 0.5862 0.59841 0.0
H1175 H 0.62204 0.58327 0.79283 0.0
C1176 C 0.5871 0.62612 0.6612 0.0
C1177 C 0.58615 0.63444 0.59458 0.0
C1178 C 0.5994 0.63479 0.53929 0.0
C1179 C 0.61302 0.62668 0.54941 0.0
C1180 C 0.61336 0.61838 0.61526 0.0
C1181 C 0.60086 0.61811 0.67042 0.0
C1182 C 0.60357 0.60729 0.73481 0.0
C1183 C 0.613 0.62282 0.7968 0.0
C1184 C 0.58248 0.58776 0.75554 0.0
C1185 C 0.61919 0.60108 0.70656 0.0
C1186 C 0.62464 0.60777 0.63752 0.0
C1187 C 0.63766 0.6028 0.59812 0.0
C1188 C 0.64509 0.59043 0.62959 0.0
C1189 C 0.63966 0.58322 0.70003 0.0
C1190 C 0.62681 0.58894 0.73942 0.0
H1191 H 0.04254 0.61777 0.96317 0.0
H1192 H 0.07284 0.65267 0.77248 0.0
H1193 H 0.03803 0.63963 0.71695 0.0
H1194 H 1.00383 0.57237 0.87585 0.0
H1195 H 0.98279 0.56647 0.93762 0.0
H1196 H 0.00987 0.58059 0.96664 0.0
H1197 H 1.00457 0.61101 0.01267 0.0
H1198 H 0.97741 0.59692 0.98394 0.0
H1199 H 0.99475 0.62349 0.95361 0.0
H1200 H 1.00055 0.62111 0.67834 0.0
H1201 H 0.96245 0.59756 0.65812 0.0
H1202 H 0.9558 0.57314 0.87134 0.0
C1203 C 0.04174 0.62304 0.91044 0.0
C1204 C 0.06039 0.63642 0.87233 0.0
C1205 C 0.05877 0.64251 0.80267 0.0
C1206 C 0.03906 0.63523 0.77071 0.0
C1207 C 0.02099 0.6217 0.80882 0.0
C1208 C 0.02206 0.61561 0.87711 0.0
C1209 C 1.00022 0.59954 0.90378 0.0
C1210 C 0.99912 0.5785 0.92203 0.0
C1211 C 0.99386 0.60827 0.96727 0.0
C1212 C 0.98688 0.59736 0.83942 0.0
C1213 C 0.99919 0.6105 0.78566 0.0
C1214 C 0.99068 0.61086 0.72024 0.0
C1215 C 0.96899 0.59736 0.70921 0.0
C1216 C 0.95599 0.58351 0.76313 0.0
C1217 C 0.96516 0.58368 0.82924 0.0
loop_
_geom_bond_atom_site_label_1
_geom_bond_atom_site_label_2
_geom_bond_distance
_geom_bond_site_symmetry_2
_ccdc_geom_bond_type
Co0 O3 1.970 . S
Co0 N17 1.989 . S
Co0 O25 1.967 . S
Co0 O32 1.920 . S
Co1 O4 1.966 . S
Co1 N10 2.022 1_554 S
Co1 N18 1.993 . S
Co1 O26 1.941 . S
C2 O3 1.258 . S
C2 O4 1.263 . S
O3 Co0 1.970 . S
O3 C2 1.258 . S
O4 Co1 1.966 . S
O4 C2 1.263 . S
C5 O6 1.235 . S
C5 O32 1.289 . S
O6 C5 1.235 . S
C7 C9 1.400 . S
C7 N10 1.351 . S
C7 C12 1.501 . S
C8 C9 1.387 . S
C8 N11 1.341 . S
C9 C7 1.400 . S
C9 C8 1.387 . S
N10 Co1 2.022 1_556 S
N10 C7 1.351 . S
N10 N11 1.365 . S
N11 C8 1.341 . S
N11 N10 1.365 . S
N11 H31 0.862 . S
C12 C7 1.501 . S
C12 H13 0.961 . S
C12 H14 0.961 . S
C12 H15 0.960 . S
H13 C12 0.961 . S
H14 C12 0.961 . S
H15 C12 0.960 . S
C16 N17 1.342 . S
C16 C20 1.401 . S
C16 C21 1.499 . S
N17 Co0 1.989 . S
N17 C16 1.342 . S
N17 N18 1.388 . S
N18 Co1 1.993 . S
N18 N17 1.388 . S
N18 C19 1.346 . S
C19 N18 1.346 . S
C19 C20 1.396 . S
C19 C29 1.510 1_554 S
C20 C16 1.401 . S
C20 C19 1.396 . S
C21 C16 1.499 . S
C21 H22 0.959 . S
C21 H23 0.960 . S
C21 H24 0.961 . S
H22 C21 0.959 . S
H23 C21 0.960 . S
H24 C21 0.961 . S
O25 Co0 1.967 . S
O25 C33 1.258 . S
O26 Co1 1.941 . S
O26 C33 1.266 . S
H27 C29 0.959 . S
H28 C29 0.961 . S
C29 C19 1.510 1_556 S
C29 H27 0.959 . S
C29 H28 0.961 . S
C29 H30 0.960 . S
H30 C29 0.960 . S
H31 N11 0.862 . S
O32 Co0 1.920 . S
O32 C5 1.289 . S
C33 O25 1.258 . S
C33 O26 1.266 . S
Co34 O37 1.970 . S
Co34 N51 1.989 . S
Co34 O59 1.967 . S
Co34 O66 1.920 . S
Co35 O38 1.966 . S
Co35 N44 2.022 . S
Co35 N52 1.993 . S
Co35 O60 1.941 . S
C36 O37 1.258 . S
C36 O38 1.263 . S
O37 Co34 1.970 . S
O37 C36 1.258 . S
O38 Co35 1.966 . S
O38 C36 1.263 . S
C39 O40 1.235 . S
C39 O66 1.289 . S
O40 C39 1.235 . S
C41 C43 1.400 1_554 S
C41 N44 1.351 . S
C41 C46 1.501 . S
C42 C43 1.387 . S
C42 N45 1.341 1_556 S
C43 C41 1.400 1_556 S
C43 C42 1.387 . S
N44 Co35 2.022 . S
N44 C41 1.351 . S
N44 N45 1.365 . S
N45 C42 1.341 1_554 S
N45 N44 1.365 . S
N45 H65 0.862 . S
C46 C41 1.501 . S
C46 H47 0.961 . S
C46 H48 0.961 . S
C46 H49 0.960 . S
H47 C46 0.961 . S
H48 C46 0.961 . S
H49 C46 0.960 . S
C50 N51 1.342 . S
C50 C54 1.401 . S
C50 C55 1.499 . S
N51 Co34 1.989 . S
N51 C50 1.342 . S
N51 N52 1.388 . S
N52 Co35 1.993 . S
N52 N51 1.388 . S
N52 C53 1.346 . S
C53 N52 1.346 . S
C53 C54 1.396 . S
C53 C63 1.510 . S
C54 C50 1.401 . S
C54 C53 1.396 . S
C55 C50 1.499 . S
C55 H56 0.959 . S
C55 H57 0.960 . S
C55 H58 0.961 . S
H56 C55 0.959 . S
H57 C55 0.960 . S
H58 C55 0.961 . S
O59 Co34 1.967 . S
O59 C67 1.258 . S
O60 Co35 1.941 . S
O60 C67 1.266 . S
H61 C63 0.959 . S
H62 C63 0.961 . S
C63 C53 1.510 . S
C63 H61 0.959 . S
C63 H62 0.961 . S
C63 H64 0.960 . S
H64 C63 0.960 . S
H65 N45 0.862 . S
O66 Co34 1.920 . S
O66 C39 1.289 . S
C67 O59 1.258 . S
C67 O60 1.266 . S
Co68 O71 1.970 . S
Co68 N85 1.989 . S
Co68 O93 1.967 . S
Co68 O100 1.920 . S
Co69 O72 1.966 . S
Co69 N78 2.022 . S
Co69 N86 1.993 . S
Co69 O94 1.941 . S
C70 O71 1.258 . S
C70 O72 1.263 . S
O71 Co68 1.970 . S
O71 C70 1.258 . S
O72 Co69 1.966 . S
O72 C70 1.263 . S
C73 O74 1.235 . S
C73 O100 1.289 . S
O74 C73 1.235 . S
C75 C77 1.400 . S
C75 N78 1.351 . S
C75 C80 1.501 . S
C76 C77 1.387 . S
C76 N79 1.341 . S
C77 C75 1.400 . S
C77 C76 1.387 . S
N78 Co69 2.022 . S
N78 C75 1.351 . S
N78 N79 1.365 . S
N79 C76 1.341 . S
N79 N78 1.365 . S
N79 H99 0.862 . S
C80 C75 1.501 . S
C80 H81 0.961 . S
C80 H82 0.961 . S
C80 H83 0.960 . S
H81 C80 0.961 . S
H82 C80 0.961 . S
H83 C80 0.960 . S
C84 N85 1.342 . S
C84 C88 1.401 . S
C84 C89 1.499 . S
N85 Co68 1.989 . S
N85 C84 1.342 . S
N85 N86 1.388 . S
N86 Co69 1.993 . S
N86 N85 1.388 . S
N86 C87 1.346 . S
C87 N86 1.346 . S
C87 C88 1.396 . S
C87 C97 1.510 . S
C88 C84 1.401 . S
C88 C87 1.396 . S
C89 C84 1.499 . S
C89 H90 0.959 . S
C89 H91 0.960 . S
C89 H92 0.961 . S
H90 C89 0.959 . S
H91 C89 0.960 . S
H92 C89 0.961 . S
O93 Co68 1.967 . S
O93 C101 1.258 . S
O94 Co69 1.941 . S
O94 C101 1.266 . S
H95 C97 0.959 . S
H96 C97 0.961 . S
C97 C87 1.510 . S
C97 H95 0.959 . S
C97 H96 0.961 . S
C97 H98 0.960 . S
H98 C97 0.960 . S
H99 N79 0.862 . S
O100 Co68 1.920 . S
O100 C73 1.289 . S
C101 O93 1.258 . S
C101 O94 1.266 . S
Co102 O105 1.970 . S
Co102 N119 1.989 . S
Co102 O127 1.967 . S
Co102 O134 1.920 . S
Co103 O106 1.966 . S
Co103 N112 2.022 . S
Co103 N120 1.993 . S
Co103 O128 1.941 . S
C104 O105 1.258 . S
C104 O106 1.263 . S
O105 Co102 1.970 . S
O105 C104 1.258 . S
O106 Co103 1.966 . S
O106 C104 1.263 . S
C107 O108 1.235 . S
C107 O134 1.289 . S
O108 C107 1.235 . S
C109 C111 1.400 . S
C109 N112 1.351 . S
C109 C114 1.501 . S
C110 C111 1.387 . S
C110 N113 1.341 . S
C111 C109 1.400 . S
C111 C110 1.387 . S
N112 Co103 2.022 . S
N112 C109 1.351 . S
N112 N113 1.365 . S
N113 C110 1.341 . S
N113 N112 1.365 . S
N113 H133 0.862 . S
C114 C109 1.501 . S
C114 H115 0.961 . S
C114 H116 0.961 . S
C114 H117 0.960 . S
H115 C114 0.961 . S
H116 C114 0.961 . S
H117 C114 0.960 . S
C118 N119 1.342 . S
C118 C122 1.401 . S
C118 C123 1.499 . S
N119 Co102 1.989 . S
N119 C118 1.342 . S
N119 N120 1.388 . S
N120 Co103 1.993 . S
N120 N119 1.388 . S
N120 C121 1.346 . S
C121 N120 1.346 . S
C121 C122 1.396 . S
C121 C131 1.510 . S
C122 C118 1.401 . S
C122 C121 1.396 . S
C123 C118 1.499 . S
C123 H124 0.959 . S
C123 H125 0.960 . S
C123 H126 0.961 . S
H124 C123 0.959 . S
H125 C123 0.960 . S
H126 C123 0.961 . S
O127 Co102 1.967 . S
O127 C135 1.258 . S
O128 Co103 1.941 . S
O128 C135 1.266 . S
H129 C131 0.959 . S
H130 C131 0.961 . S
C131 C121 1.510 . S
C131 H129 0.959 . S
C131 H130 0.961 . S
C131 H132 0.960 . S
H132 C131 0.960 . S
H133 N113 0.862 . S
O134 Co102 1.920 . S
O134 C107 1.289 . S
C135 O127 1.258 . S
C135 O128 1.266 . S
Co136 O139 1.970 . S
Co136 N153 1.989 . S
Co136 O161 1.967 . S
Co136 O168 1.920 . S
Co137 O140 1.966 . S
Co137 N146 2.022 . S
Co137 N154 1.993 . S
Co137 O162 1.941 . S
C138 O139 1.258 . S
C138 O140 1.263 . S
O139 Co136 1.970 . S
O139 C138 1.258 . S
O140 Co137 1.966 . S
O140 C138 1.263 . S
C141 O142 1.235 . S
C141 O168 1.289 . S
O142 C141 1.235 . S
C143 C145 1.400 . S
C143 N146 1.351 . S
C143 C148 1.501 . S
C144 C145 1.387 . S
C144 N147 1.341 . S
C145 C143 1.400 . S
C145 C144 1.387 . S
N146 Co137 2.022 . S
N146 C143 1.351 . S
N146 N147 1.365 . S
N147 C144 1.341 . S
N147 N146 1.365 . S
N147 H167 0.862 . S
C148 C143 1.501 . S
C148 H149 0.961 . S
C148 H150 0.961 . S
C148 H151 0.960 . S
H149 C148 0.961 . S
H150 C148 0.961 . S
H151 C148 0.960 . S
C152 N153 1.342 . S
C152 C156 1.401 . S
C152 C157 1.499 . S
N153 Co136 1.989 . S
N153 C152 1.342 . S
N153 N154 1.388 . S
N154 Co137 1.993 . S
N154 N153 1.388 . S
N154 C155 1.346 . S
C155 N154 1.346 . S
C155 C156 1.396 . S
C155 C165 1.510 . S
C156 C152 1.401 . S
C156 C155 1.396 . S
C157 C152 1.499 . S
C157 H158 0.959 . S
C157 H159 0.960 . S
C157 H160 0.961 . S
H158 C157 0.959 . S
H159 C157 0.960 . S
H160 C157 0.961 . S
O161 Co136 1.967 . S
O161 C169 1.258 . S
O162 Co137 1.941 . S
O162 C169 1.266 . S
H163 C165 0.959 . S
H164 C165 0.961 . S
C165 C155 1.510 . S
C165 H163 0.959 . S
C165 H164 0.961 . S
C165 H166 0.960 . S
H166 C165 0.960 . S
H167 N147 0.862 . S
O168 Co136 1.920 . S
O168 C141 1.289 . S
C169 O161 1.258 . S
C169 O162 1.266 . S
Co170 O173 1.970 1_554 S
Co170 N187 1.989 1_554 S
Co170 O195 1.965 1_554 S
Co170 O202 1.920 . S
Co171 O174 1.966 . S
Co171 N180 2.022 . S
Co171 N188 1.993 . S
Co171 O196 1.941 . S
C172 O173 1.258 . S
C172 O174 1.263 . S
O173 Co170 1.970 1_556 S
O173 C172 1.258 . S
O174 Co171 1.966 . S
O174 C172 1.263 . S
C175 O176 1.235 . S
C175 O202 1.289 . S
O176 C175 1.235 . S
C177 C179 1.400 . S
C177 N180 1.351 . S
C177 C182 1.501 . S
C178 C179 1.387 . S
C178 N181 1.341 . S
C179 C177 1.400 . S
C179 C178 1.387 . S
N180 Co171 2.022 . S
N180 C177 1.351 . S
N180 N181 1.365 . S
N181 C178 1.341 . S
N181 N180 1.365 . S
N181 H201 0.862 . S
C182 C177 1.501 . S
C182 H183 0.961 . S
C182 H184 0.961 . S
C182 H185 0.960 . S
H183 C182 0.961 . S
H184 C182 0.961 . S
H185 C182 0.960 . S
C186 N187 1.342 . S
C186 C190 1.401 . S
C186 C191 1.499 1_556 S
N187 Co170 1.989 1_556 S
N187 C186 1.342 . S
N187 N188 1.388 . S
N188 Co171 1.993 . S
N188 N187 1.388 . S
N188 C189 1.346 . S
C189 N188 1.346 . S
C189 C190 1.396 . S
C189 C199 1.510 . S
C190 C186 1.401 . S
C190 C189 1.396 . S
C191 C186 1.499 1_554 S
C191 H192 0.959 . S
C191 H193 0.960 . S
C191 H194 0.961 . S
H192 C191 0.959 . S
H193 C191 0.960 . S
H194 C191 0.961 . S
O195 Co170 1.965 1_556 S
O195 C203 1.266 . S
O196 Co171 1.941 . S
O196 C203 1.266 . S
H197 C199 0.959 . S
H198 C199 0.961 . S
C199 C189 1.510 . S
C199 H197 0.959 . S
C199 H198 0.961 . S
C199 H200 0.960 . S
H200 C199 0.960 . S
H201 N181 0.862 . S
O202 Co170 1.920 . S
O202 C175 1.289 . S
C203 O195 1.266 . S
C203 O196 1.266 . S
Co204 O207 1.970 . S
Co204 N221 1.989 . S
Co204 O229 1.967 . S
Co204 O236 1.920 . S
Co205 O208 1.966 . S
Co205 N214 2.022 . S
Co205 N222 1.993 . S
Co205 O230 1.941 . S
C206 O207 1.258 . S
C206 O208 1.263 . S
O207 Co204 1.970 . S
O207 C206 1.258 . S
O208 Co205 1.966 . S
O208 C206 1.263 . S
C209 O210 1.235 . S
C209 O236 1.289 . S
O210 C209 1.235 . S
C211 C213 1.400 1_556 S
C211 N214 1.351 . S
C211 C216 1.501 . S
C212 C213 1.387 . S
C212 N215 1.341 1_554 S
C213 C211 1.400 1_554 S
C213 C212 1.387 . S
N214 Co205 2.022 . S
N214 C211 1.351 . S
N214 N215 1.365 . S
N215 C212 1.341 1_556 S
N215 N214 1.365 . S
N215 H235 0.862 . S
C216 C211 1.501 . S
C216 H217 0.961 . S
C216 H218 0.961 . S
C216 H219 0.960 . S
H217 C216 0.961 . S
H218 C216 0.961 . S
H219 C216 0.960 . S
C220 N221 1.342 . S
C220 C224 1.401 . S
C220 C225 1.499 . S
N221 Co204 1.989 . S
N221 C220 1.342 . S
N221 N222 1.388 . S
N222 Co205 1.993 . S
N222 N221 1.388 . S
N222 C223 1.346 . S
C223 N222 1.346 . S
C223 C224 1.396 . S
C223 C233 1.510 . S
C224 C220 1.401 . S
C224 C223 1.396 . S
C225 C220 1.499 . S
C225 H226 0.959 . S
C225 H227 0.960 . S
C225 H228 0.961 . S
H226 C225 0.959 . S
H227 C225 0.960 . S
H228 C225 0.961 . S
O229 Co204 1.967 . S
O229 C237 1.258 . S
O230 Co205 1.941 . S
O230 C237 1.266 . S
H231 C233 0.959 . S
H232 C233 0.961 . S
C233 C223 1.510 . S
C233 H231 0.959 . S
C233 H232 0.961 . S
C233 H234 0.960 . S
H234 C233 0.960 . S
H235 N215 0.862 . S
O236 Co204 1.920 . S
O236 C209 1.289 . S
C237 O229 1.258 . S
C237 O230 1.266 . S
Co238 O241 1.970 . S
Co238 N255 1.989 . S
Co238 O263 1.967 . S
Co238 O270 1.920 . S
Co239 O242 1.966 . S
Co239 N248 2.022 1_556 S
Co239 N256 1.993 . S
Co239 O264 1.941 . S
C240 O241 1.258 . S
C240 O242 1.263 . S
O241 Co238 1.970 . S
O241 C240 1.258 . S
O242 Co239 1.966 . S
O242 C240 1.263 . S
C243 O244 1.235 . S
C243 O270 1.289 . S
O244 C243 1.235 . S
C245 C247 1.400 . S
C245 N248 1.351 . S
C245 C250 1.501 . S
C246 C247 1.387 . S
C246 N249 1.341 . S
C247 C245 1.400 . S
C247 C246 1.387 . S
N248 Co239 2.022 1_554 S
N248 C245 1.351 . S
N248 N249 1.365 . S
N249 C246 1.341 . S
N249 N248 1.365 . S
N249 H269 0.862 . S
C250 C245 1.501 . S
C250 H251 0.961 . S
C250 H252 0.961 . S
C250 H253 0.960 . S
H251 C250 0.961 . S
H252 C250 0.961 . S
H253 C250 0.960 . S
C254 N255 1.342 . S
C254 C258 1.401 . S
C254 C259 1.499 . S
N255 Co238 1.989 . S
N255 C254 1.342 . S
N255 N256 1.388 . S
N256 Co239 1.993 . S
N256 N255 1.388 . S
N256 C257 1.346 . S
C257 N256 1.346 . S
C257 C258 1.396 . S
C257 C267 1.510 1_556 S
C258 C254 1.401 . S
C258 C257 1.396 . S
C259 C254 1.499 . S
C259 H260 0.959 . S
C259 H261 0.960 . S
C259 H262 0.961 . S
H260 C259 0.959 . S
H261 C259 0.960 . S
H262 C259 0.961 . S
O263 Co238 1.967 . S
O263 C271 1.258 . S
O264 Co239 1.941 . S
O264 C271 1.266 . S
H265 C267 0.959 . S
H266 C267 0.961 . S
C267 C257 1.510 1_554 S
C267 H265 0.959 . S
C267 H266 0.961 . S
C267 H268 0.960 . S
H268 C267 0.960 . S
H269 N249 0.862 . S
O270 Co238 1.920 . S
O270 C243 1.289 . S
C271 O263 1.258 . S
C271 O264 1.266 . S
Co272 O275 1.970 1_556 S
Co272 N289 1.989 1_556 S
Co272 O297 1.965 1_556 S
Co272 O304 1.920 . S
Co273 O276 1.966 . S
Co273 N282 2.022 . S
Co273 N290 1.993 . S
Co273 O298 1.941 . S
C274 O275 1.258 . S
C274 O276 1.263 . S
O275 Co272 1.970 1_554 S
O275 C274 1.258 . S
O276 Co273 1.966 . S
O276 C274 1.263 . S
C277 O278 1.235 . S
C277 O304 1.289 . S
O278 C277 1.235 . S
C279 C281 1.400 . S
C279 N282 1.351 . S
C279 C284 1.501 . S
C280 C281 1.387 . S
C280 N283 1.341 . S
C281 C279 1.400 . S
C281 C280 1.387 . S
N282 Co273 2.022 . S
N282 C279 1.351 . S
N282 N283 1.365 . S
N283 C280 1.341 . S
N283 N282 1.365 . S
N283 H303 0.862 . S
C284 C279 1.501 . S
C284 H285 0.961 . S
C284 H286 0.961 . S
C284 H287 0.960 . S
H285 C284 0.961 . S
H286 C284 0.961 . S
H287 C284 0.960 . S
C288 N289 1.342 . S
C288 C292 1.401 . S
C288 C293 1.499 1_554 S
N289 Co272 1.989 1_554 S
N289 C288 1.342 . S
N289 N290 1.388 . S
N290 Co273 1.993 . S
N290 N289 1.388 . S
N290 C291 1.346 . S
C291 N290 1.346 . S
C291 C292 1.396 . S
C291 C301 1.510 . S
C292 C288 1.401 . S
C292 C291 1.396 . S
C293 C288 1.499 1_556 S
C293 H294 0.959 . S
C293 H295 0.960 . S
C293 H296 0.961 . S
H294 C293 0.959 . S
H295 C293 0.960 . S
H296 C293 0.961 . S
O297 Co272 1.965 1_554 S
O297 C305 1.266 . S
O298 Co273 1.941 . S
O298 C305 1.266 . S
H299 C301 0.959 . S
H300 C301 0.961 . S
C301 C291 1.510 . S
C301 H299 0.959 . S
C301 H300 0.961 . S
C301 H302 0.960 . S
H302 C301 0.960 . S
H303 N283 0.862 . S
O304 Co272 1.920 . S
O304 C277 1.289 . S
C305 O297 1.266 . S
C305 O298 1.266 . S
Co306 O309 1.970 . S
Co306 N323 1.989 . S
Co306 O331 1.967 . S
Co306 O338 1.920 . S
Co307 O310 1.966 . S
Co307 N316 2.022 . S
Co307 N324 1.993 . S
Co307 O332 1.941 . S
C308 O309 1.258 . S
C308 O310 1.263 . S
O309 Co306 1.970 . S
O309 C308 1.258 . S
O310 Co307 1.966 . S
O310 C308 1.263 . S
C311 O312 1.235 . S
C311 O338 1.289 . S
O312 C311 1.235 . S
C313 C315 1.400 . S
C313 N316 1.351 . S
C313 C318 1.501 . S
C314 C315 1.387 . S
C314 N317 1.341 . S
C315 C313 1.400 . S
C315 C314 1.387 . S
N316 Co307 2.022 . S
N316 C313 1.351 . S
N316 N317 1.365 . S
N317 C314 1.341 . S
N317 N316 1.365 . S
N317 H337 0.862 . S
C318 C313 1.501 . S
C318 H319 0.961 . S
C318 H320 0.961 . S
C318 H321 0.960 . S
H319 C318 0.961 . S
H320 C318 0.961 . S
H321 C318 0.960 . S
C322 N323 1.342 . S
C322 C326 1.401 . S
C322 C327 1.499 . S
N323 Co306 1.989 . S
N323 C322 1.342 . S
N323 N324 1.388 . S
N324 Co307 1.993 . S
N324 N323 1.388 . S
N324 C325 1.346 . S
C325 N324 1.346 . S
C325 C326 1.396 . S
C325 C335 1.510 . S
C326 C322 1.401 . S
C326 C325 1.396 . S
C327 C322 1.499 . S
C327 H328 0.959 . S
C327 H329 0.960 . S
C327 H330 0.961 . S
H328 C327 0.959 . S
H329 C327 0.960 . S
H330 C327 0.961 . S
O331 Co306 1.967 . S
O331 C339 1.258 . S
O332 Co307 1.941 . S
O332 C339 1.266 . S
H333 C335 0.959 . S
H334 C335 0.961 . S
C335 C325 1.510 . S
C335 H333 0.959 . S
C335 H334 0.961 . S
C335 H336 0.960 . S
H336 C335 0.960 . S
H337 N317 0.862 . S
O338 Co306 1.920 . S
O338 C311 1.289 . S
C339 O331 1.258 . S
C339 O332 1.266 . S
Co340 O343 1.970 . S
Co340 N357 1.989 . S
Co340 O365 1.967 . S
Co340 O372 1.920 . S
Co341 O344 1.966 . S
Co341 N350 2.022 . S
Co341 N358 1.993 . S
Co341 O366 1.941 . S
C342 O343 1.258 . S
C342 O344 1.263 . S
O343 Co340 1.970 . S
O343 C342 1.258 . S
O344 Co341 1.966 . S
O344 C342 1.263 . S
C345 O346 1.235 . S
C345 O372 1.289 . S
O346 C345 1.235 . S
C347 C349 1.400 . S
C347 N350 1.351 . S
C347 C352 1.501 . S
C348 C349 1.387 . S
C348 N351 1.341 . S
C349 C347 1.400 . S
C349 C348 1.387 . S
N350 Co341 2.022 . S
N350 C347 1.351 . S
N350 N351 1.365 . S
N351 C348 1.341 . S
N351 N350 1.365 . S
N351 H371 0.862 . S
C352 C347 1.501 . S
C352 H353 0.961 . S
C352 H354 0.961 . S
C352 H355 0.960 . S
H353 C352 0.961 . S
H354 C352 0.961 . S
H355 C352 0.960 . S
C356 N357 1.342 . S
C356 C360 1.401 . S
C356 C361 1.499 . S
N357 Co340 1.989 . S
N357 C356 1.342 . S
N357 N358 1.388 . S
N358 Co341 1.993 . S
N358 N357 1.388 . S
N358 C359 1.346 . S
C359 N358 1.346 . S
C359 C360 1.396 . S
C359 C369 1.510 . S
C360 C356 1.401 . S
C360 C359 1.396 . S
C361 C356 1.499 . S
C361 H362 0.959 . S
C361 H363 0.960 . S
C361 H364 0.961 . S
H362 C361 0.959 . S
H363 C361 0.960 . S
H364 C361 0.961 . S
O365 Co340 1.967 . S
O365 C373 1.258 . S
O366 Co341 1.941 . S
O366 C373 1.266 . S
H367 C369 0.959 . S
H368 C369 0.961 . S
C369 C359 1.510 . S
C369 H367 0.959 . S
C369 H368 0.961 . S
C369 H370 0.960 . S
H370 C369 0.960 . S
H371 N351 0.862 . S
O372 Co340 1.920 . S
O372 C345 1.289 . S
C373 O365 1.258 . S
C373 O366 1.266 . S
Co374 O377 1.970 . S
Co374 N391 1.989 . S
Co374 O399 1.967 . S
Co374 O406 1.920 . S
Co375 O378 1.966 . S
Co375 N384 2.022 . S
Co375 N392 1.993 . S
Co375 O400 1.941 . S
C376 O377 1.258 . S
C376 O378 1.263 . S
O377 Co374 1.970 . S
O377 C376 1.258 . S
O378 Co375 1.966 . S
O378 C376 1.263 . S
C379 O380 1.235 . S
C379 O406 1.289 . S
O380 C379 1.235 . S
C381 C383 1.400 . S
C381 N384 1.351 . S
C381 C386 1.501 . S
C382 C383 1.387 . S
C382 N385 1.341 . S
C383 C381 1.400 . S
C383 C382 1.387 . S
N384 Co375 2.022 . S
N384 C381 1.351 . S
N384 N385 1.365 . S
N385 C382 1.341 . S
N385 N384 1.365 . S
N385 H405 0.862 . S
C386 C381 1.501 . S
C386 H387 0.961 . S
C386 H388 0.961 . S
C386 H389 0.960 . S
H387 C386 0.961 . S
H388 C386 0.961 . S
H389 C386 0.960 . S
C390 N391 1.342 . S
C390 C394 1.401 . S
C390 C395 1.499 . S
N391 Co374 1.989 . S
N391 C390 1.342 . S
N391 N392 1.388 . S
N392 Co375 1.993 . S
N392 N391 1.388 . S
N392 C393 1.346 . S
C393 N392 1.346 . S
C393 C394 1.396 . S
C393 C403 1.510 . S
C394 C390 1.401 . S
C394 C393 1.396 . S
C395 C390 1.499 . S
C395 H396 0.959 . S
C395 H397 0.960 . S
C395 H398 0.961 . S
H396 C395 0.959 . S
H397 C395 0.960 . S
H398 C395 0.961 . S
O399 Co374 1.967 . S
O399 C407 1.258 . S
O400 Co375 1.941 . S
O400 C407 1.266 . S
H401 C403 0.959 . S
H402 C403 0.961 . S
C403 C393 1.510 . S
C403 H401 0.959 . S
C403 H402 0.961 . S
C403 H404 0.960 . S
H404 C403 0.960 . S
H405 N385 0.862 . S
O406 Co374 1.920 . S
O406 C379 1.289 . S
C407 O399 1.258 . S
C407 O400 1.266 . S
H408 C420 0.930 1_556 S
H409 C422 0.930 . S
H410 C423 0.930 . S
H411 C427 0.959 . S
H412 C427 0.959 . S
H413 C427 0.961 . S
H414 C428 0.960 . S
H415 C428 0.961 . S
H416 C428 0.959 . S
H417 C431 0.929 . S
H418 C432 0.931 . S
H419 C434 0.930 1_556 S
C420 H408 0.930 1_554 S
C420 C421 1.399 . S
C420 C425 1.399 . S
C421 C420 1.399 . S
C421 C422 1.376 . S
C422 H409 0.930 . S
C422 C421 1.376 . S
C422 C423 1.388 . S
C423 H410 0.930 . S
C423 C422 1.388 . S
C423 C424 1.390 . S
C424 C423 1.390 . S
C424 C425 1.394 . S
C424 C430 1.465 . S
C425 C420 1.399 . S
C425 C424 1.394 . S
C425 C426 1.506 1_554 S
C426 C425 1.506 1_556 S
C426 C427 1.510 . S
C426 C428 1.573 . S
C426 C429 1.515 1_556 S
C427 H411 0.959 . S
C427 H412 0.959 . S
C427 H413 0.961 . S
C427 C426 1.510 . S
C428 H414 0.960 . S
C428 H415 0.961 . S
C428 H416 0.959 . S
C428 C426 1.573 . S
C429 C426 1.515 1_554 S
C429 C430 1.396 . S
C429 C434 1.390 . S
C430 C424 1.465 . S
C430 C429 1.396 . S
C430 C431 1.399 . S
C431 H417 0.929 . S
C431 C430 1.399 . S
C431 C432 1.385 . S
C432 H418 0.931 . S
C432 C431 1.385 . S
C432 C433 1.389 . S
C433 C432 1.389 . S
C433 C434 1.387 . S
C434 H419 0.930 1_554 S
C434 C429 1.390 . S
C434 C433 1.387 . S
H435 C447 0.930 . S
H436 C449 0.930 . S
H437 C450 0.930 . S
H438 C454 0.959 . S
H439 C454 0.959 . S
H440 C454 0.961 . S
H441 C455 0.960 . S
H442 C455 0.961 . S
H443 C455 0.959 . S
H444 C458 0.929 . S
H445 C459 0.931 . S
H446 C461 0.930 . S
C447 H435 0.930 . S
C447 C448 1.399 . S
C447 C452 1.399 . S
C448 C447 1.399 . S
C448 C449 1.376 . S
C449 H436 0.930 . S
C449 C448 1.376 . S
C449 C450 1.388 . S
C450 H437 0.930 . S
C450 C449 1.388 . S
C450 C451 1.390 . S
C451 C450 1.390 . S
C451 C452 1.394 . S
C451 C457 1.465 . S
C452 C447 1.399 . S
C452 C451 1.394 . S
C452 C453 1.516 . S
C453 C452 1.516 . S
C453 C454 1.502 . S
C453 C455 1.561 . S
C453 C456 1.526 . S
C454 H438 0.959 . S
C454 H439 0.959 . S
C454 H440 0.961 . S
C454 C453 1.502 . S
C455 H441 0.960 . S
C455 H442 0.961 . S
C455 H443 0.959 . S
C455 C453 1.561 . S
C456 C453 1.526 . S
C456 C457 1.396 . S
C456 C461 1.390 . S
C457 C451 1.465 . S
C457 C456 1.396 . S
C457 C458 1.399 . S
C458 H444 0.929 . S
C458 C457 1.399 . S
C458 C459 1.385 . S
C459 H445 0.931 . S
C459 C458 1.385 . S
C459 C460 1.389 . S
C460 C459 1.389 . S
C460 C461 1.387 . S
C461 H446 0.930 . S
C461 C456 1.390 . S
C461 C460 1.387 . S
H462 C474 0.930 . S
H463 C476 0.930 . S
H464 C477 0.930 . S
H465 C481 0.959 . S
H466 C481 0.959 . S
H467 C481 0.961 . S
H468 C482 0.960 . S
H469 C482 0.961 . S
H470 C482 0.959 . S
H471 C485 0.929 . S
H472 C486 0.931 . S
H473 C488 0.930 . S
C474 H462 0.930 . S
C474 C475 1.399 . S
C474 C479 1.399 . S
C475 C474 1.399 . S
C475 C476 1.376 . S
C476 H463 0.930 . S
C476 C475 1.376 . S
C476 C477 1.388 . S
C477 H464 0.930 . S
C477 C476 1.388 . S
C477 C478 1.390 . S
C478 C477 1.390 . S
C478 C479 1.394 . S
C478 C484 1.465 . S
C479 C474 1.399 . S
C479 C478 1.394 . S
C479 C480 1.516 . S
C480 C479 1.516 . S
C480 C481 1.502 . S
C480 C482 1.561 . S
C480 C483 1.526 . S
C481 H465 0.959 . S
C481 H466 0.959 . S
C481 H467 0.961 . S
C481 C480 1.502 . S
C482 H468 0.960 . S
C482 H469 0.961 . S
C482 H470 0.959 . S
C482 C480 1.561 . S
C483 C480 1.526 . S
C483 C484 1.396 . S
C483 C488 1.390 . S
C484 C478 1.465 . S
C484 C483 1.396 . S
C484 C485 1.399 . S
C485 H471 0.929 . S
C485 C484 1.399 . S
C485 C486 1.385 . S
C486 H472 0.931 . S
C486 C485 1.385 . S
C486 C487 1.389 . S
C487 C486 1.389 . S
C487 C488 1.387 . S
C488 H473 0.930 . S
C488 C483 1.390 . S
C488 C487 1.387 . S
H489 C501 0.930 . S
H490 C503 0.930 . S
H491 C504 0.930 . S
H492 C508 0.959 . S
H493 C508 0.959 . S
H494 C508 0.961 . S
H495 C509 0.960 . S
H496 C509 0.961 . S
H497 C509 0.959 . S
H498 C512 0.929 . S
H499 C513 0.931 . S
H500 C515 0.930 . S
C501 H489 0.930 . S
C501 C502 1.399 . S
C501 C506 1.399 . S
C502 C501 1.399 . S
C502 C503 1.376 . S
C503 H490 0.930 . S
C503 C502 1.376 . S
C503 C504 1.388 . S
C504 H491 0.930 . S
C504 C503 1.388 . S
C504 C505 1.390 . S
C505 C504 1.390 . S
C505 C506 1.394 . S
C505 C511 1.465 . S
C506 C501 1.399 . S
C506 C505 1.394 . S
C506 C507 1.516 . S
C507 C506 1.516 . S
C507 C508 1.502 . S
C507 C509 1.561 . S
C507 C510 1.526 . S
C508 H492 0.959 . S
C508 H493 0.959 . S
C508 H494 0.961 . S
C508 C507 1.502 . S
C509 H495 0.960 . S
C509 H496 0.961 . S
C509 H497 0.959 . S
C509 C507 1.561 . S
C510 C507 1.526 . S
C510 C511 1.396 . S
C510 C515 1.390 . S
C511 C505 1.465 . S
C511 C510 1.396 . S
C511 C512 1.399 . S
C512 H498 0.929 . S
C512 C511 1.399 . S
C512 C513 1.385 . S
C513 H499 0.931 . S
C513 C512 1.385 . S
C513 C514 1.389 . S
C514 C513 1.389 . S
C514 C515 1.387 . S
C515 H500 0.930 . S
C515 C510 1.390 . S
C515 C514 1.387 . S
H516 C528 0.930 . S
H517 C530 0.930 . S
H518 C531 0.930 . S
H519 C535 0.959 . S
H520 C535 0.959 . S
H521 C535 0.961 . S
H522 C536 0.960 . S
H523 C536 0.961 . S
H524 C536 0.959 . S
H525 C539 0.929 . S
H526 C540 0.931 . S
H527 C542 0.930 . S
C528 H516 0.930 . S
C528 C529 1.399 . S
C528 C533 1.399 . S
C529 C528 1.399 . S
C529 C530 1.376 . S
C530 H517 0.930 . S
C530 C529 1.376 . S
C530 C531 1.388 . S
C531 H518 0.930 . S
C531 C530 1.388 . S
C531 C532 1.390 . S
C532 C531 1.390 . S
C532 C533 1.394 . S
C532 C538 1.465 . S
C533 C528 1.399 . S
C533 C532 1.394 . S
C533 C534 1.516 . S
C534 C533 1.516 . S
C534 C535 1.502 . S
C534 C536 1.561 . S
C534 C537 1.526 . S
C535 H519 0.959 . S
C535 H520 0.959 . S
C535 H521 0.961 . S
C535 C534 1.502 . S
C536 H522 0.960 . S
C536 H523 0.961 . S
C536 H524 0.959 . S
C536 C534 1.561 . S
C537 C534 1.526 . S
C537 C538 1.396 . S
C537 C542 1.390 . S
C538 C532 1.465 . S
C538 C537 1.396 . S
C538 C539 1.399 . S
C539 H525 0.929 . S
C539 C538 1.399 . S
C539 C540 1.385 . S
C540 H526 0.931 . S
C540 C539 1.385 . S
C540 C541 1.389 . S
C541 C540 1.389 . S
C541 C542 1.387 . S
C542 H527 0.930 . S
C542 C537 1.390 . S
C542 C541 1.387 . S
H543 C555 0.930 . S
H544 C557 0.930 . S
H545 C558 0.930 . S
H546 C562 0.959 1_556 S
H547 C562 0.959 . S
H548 C562 0.961 . S
H549 C563 0.960 . S
H550 C563 0.961 . S
H551 C563 0.959 . S
H552 C566 0.929 . S
H553 C567 0.931 . S
H554 C569 0.930 1_554 S
C555 H543 0.930 . S
C555 C556 1.399 . S
C555 C560 1.399 . S
C556 C555 1.399 . S
C556 C557 1.376 . S
C557 H544 0.930 . S
C557 C556 1.376 . S
C557 C558 1.388 . S
C558 H545 0.930 . S
C558 C557 1.388 . S
C558 C559 1.390 . S
C559 C558 1.390 . S
C559 C560 1.394 . S
C559 C565 1.465 . S
C560 C555 1.399 . S
C560 C559 1.394 . S
C560 C561 1.516 . S
C561 C560 1.516 . S
C561 C562 1.502 1_556 S
C561 C563 1.561 1_556 S
C561 C564 1.526 . S
C562 H546 0.959 1_554 S
C562 H547 0.959 . S
C562 H548 0.961 . S
C562 C561 1.502 1_554 S
C563 H549 0.960 . S
C563 H550 0.961 . S
C563 H551 0.959 . S
C563 C561 1.561 1_554 S
C564 C561 1.526 . S
C564 C565 1.396 . S
C564 C569 1.390 . S
C565 C559 1.465 . S
C565 C564 1.396 . S
C565 C566 1.399 . S
C566 H552 0.929 . S
C566 C565 1.399 . S
C566 C567 1.385 . S
C567 H553 0.931 . S
C567 C566 1.385 . S
C567 C568 1.389 . S
C568 C567 1.389 . S
C568 C569 1.387 . S
C569 H554 0.930 1_556 S
C569 C564 1.390 . S
C569 C568 1.387 . S
H570 C582 0.930 . S
H571 C584 0.930 . S
H572 C585 0.930 . S
H573 C589 0.959 . S
H574 C589 0.959 . S
H575 C589 0.961 . S
H576 C590 0.960 . S
H577 C590 0.961 . S
H578 C590 0.959 . S
H579 C593 0.929 . S
H580 C594 0.931 . S
H581 C596 0.930 . S
C582 H570 0.930 . S
C582 C583 1.399 . S
C582 C587 1.399 . S
C583 C582 1.399 . S
C583 C584 1.376 . S
C584 H571 0.930 . S
C584 C583 1.376 . S
C584 C585 1.388 . S
C585 H572 0.930 . S
C585 C584 1.388 . S
C585 C586 1.390 . S
C586 C585 1.390 . S
C586 C587 1.394 . S
C586 C592 1.465 . S
C587 C582 1.399 . S
C587 C586 1.394 . S
C587 C588 1.516 . S
C588 C587 1.516 . S
C588 C589 1.502 . S
C588 C590 1.561 . S
C588 C591 1.526 . S
C589 H573 0.959 . S
C589 H574 0.959 . S
C589 H575 0.961 . S
C589 C588 1.502 . S
C590 H576 0.960 . S
C590 H577 0.961 . S
C590 H578 0.959 . S
C590 C588 1.561 . S
C591 C588 1.526 . S
C591 C592 1.396 . S
C591 C596 1.390 . S
C592 C586 1.465 . S
C592 C591 1.396 . S
C592 C593 1.399 . S
C593 H579 0.929 . S
C593 C592 1.399 . S
C593 C594 1.385 . S
C594 H580 0.931 . S
C594 C593 1.385 . S
C594 C595 1.389 . S
C595 C594 1.389 . S
C595 C596 1.387 . S
C596 H581 0.930 . S
C596 C591 1.390 . S
C596 C595 1.387 . S
H597 C609 0.930 . S
H598 C611 0.930 . S
H599 C612 0.930 . S
H600 C616 0.959 . S
H601 C616 0.959 . S
H602 C616 0.961 . S
H603 C617 0.960 . S
H604 C617 0.961 . S
H605 C617 0.959 . S
H606 C620 0.929 . S
H607 C621 0.931 . S
H608 C623 0.930 . S
C609 H597 0.930 . S
C609 C610 1.399 . S
C609 C614 1.399 . S
C610 C609 1.399 . S
C610 C611 1.376 . S
C611 H598 0.930 . S
C611 C610 1.376 . S
C611 C612 1.388 . S
C612 H599 0.930 . S
C612 C611 1.388 . S
C612 C613 1.390 . S
C613 C612 1.390 . S
C613 C614 1.394 . S
C613 C619 1.465 . S
C614 C609 1.399 . S
C614 C613 1.394 . S
C614 C615 1.516 . S
C615 C614 1.516 . S
C615 C616 1.502 . S
C615 C617 1.561 . S
C615 C618 1.526 . S
C616 H600 0.959 . S
C616 H601 0.959 . S
C616 H602 0.961 . S
C616 C615 1.502 . S
C617 H603 0.960 . S
C617 H604 0.961 . S
C617 H605 0.959 . S
C617 C615 1.561 . S
C618 C615 1.526 . S
C618 C619 1.396 . S
C618 C623 1.390 . S
C619 C613 1.465 . S
C619 C618 1.396 . S
C619 C620 1.399 . S
C620 H606 0.929 . S
C620 C619 1.399 . S
C620 C621 1.385 . S
C621 H607 0.931 . S
C621 C620 1.385 . S
C621 C622 1.389 . S
C622 C621 1.389 . S
C622 C623 1.387 . S
C623 H608 0.930 . S
C623 C618 1.390 . S
C623 C622 1.387 . S
H624 C636 0.930 . S
H625 C638 0.930 . S
H626 C639 0.930 . S
H627 C643 0.959 . S
H628 C643 0.959 . S
H629 C643 0.961 . S
H630 C644 0.960 . S
H631 C644 0.961 . S
H632 C644 0.959 . S
H633 C647 0.929 . S
H634 C648 0.931 . S
H635 C650 0.930 . S
C636 H624 0.930 . S
C636 C637 1.399 . S
C636 C641 1.399 . S
C637 C636 1.399 . S
C637 C638 1.376 . S
C638 H625 0.930 . S
C638 C637 1.376 . S
C638 C639 1.388 . S
C639 H626 0.930 . S
C639 C638 1.388 . S
C639 C640 1.390 . S
C640 C639 1.390 . S
C640 C641 1.394 . S
C640 C646 1.465 . S
C641 C636 1.399 . S
C641 C640 1.394 . S
C641 C642 1.516 . S
C642 C641 1.516 . S
C642 C643 1.502 . S
C642 C644 1.561 . S
C642 C645 1.526 . S
C643 H627 0.959 . S
C643 H628 0.959 . S
C643 H629 0.961 . S
C643 C642 1.502 . S
C644 H630 0.960 . S
C644 H631 0.961 . S
C644 H632 0.959 . S
C644 C642 1.561 . S
C645 C642 1.526 . S
C645 C646 1.396 . S
C645 C650 1.390 1_556 S
C646 C640 1.465 . S
C646 C645 1.396 . S
C646 C647 1.399 . S
C647 H633 0.929 . S
C647 C646 1.399 . S
C647 C648 1.385 1_556 S
C648 H634 0.931 . S
C648 C647 1.385 1_554 S
C648 C649 1.389 . S
C649 C648 1.389 . S
C649 C650 1.387 . S
C650 H635 0.930 . S
C650 C645 1.390 1_554 S
C650 C649 1.387 . S
H651 C663 0.930 . S
H652 C665 0.930 . S
H653 C666 0.930 1_554 S
H654 C670 0.959 . S
H655 C670 0.959 . S
H656 C670 0.961 1_556 S
H657 C671 0.960 . S
H658 C671 0.961 . S
H659 C671 0.959 . S
H660 C674 0.929 . S
H661 C675 0.931 . S
H662 C677 0.930 . S
C663 H651 0.930 . S
C663 C664 1.399 . S
C663 C668 1.399 . S
C664 C663 1.399 . S
C664 C665 1.376 . S
C665 H652 0.930 . S
C665 C664 1.376 . S
C665 C666 1.388 . S
C666 H653 0.930 1_556 S
C666 C665 1.388 . S
C666 C667 1.390 1_556 S
C667 C666 1.390 1_554 S
C667 C668 1.394 1_554 S
C667 C673 1.465 . S
C668 C663 1.399 . S
C668 C667 1.394 1_556 S
C668 C669 1.516 1_556 S
C669 C668 1.516 1_554 S
C669 C670 1.502 . S
C669 C671 1.561 . S
C669 C672 1.526 . S
C670 H654 0.959 . S
C670 H655 0.959 . S
C670 H656 0.961 1_554 S
C670 C669 1.502 . S
C671 H657 0.960 . S
C671 H658 0.961 . S
C671 H659 0.959 . S
C671 C669 1.561 . S
C672 C669 1.526 . S
C672 C673 1.396 . S
C672 C677 1.390 . S
C673 C667 1.465 . S
C673 C672 1.396 . S
C673 C674 1.399 . S
C674 H660 0.929 . S
C674 C673 1.399 . S
C674 C675 1.385 . S
C675 H661 0.931 . S
C675 C674 1.385 . S
C675 C676 1.389 . S
C676 C675 1.389 . S
C676 C677 1.387 . S
C677 H662 0.930 . S
C677 C672 1.390 . S
C677 C676 1.387 . S
H678 C690 0.930 . S
H679 C692 0.930 . S
H680 C693 0.930 . S
H681 C697 0.959 . S
H682 C697 0.959 . S
H683 C697 0.961 . S
H684 C698 0.960 . S
H685 C698 0.961 . S
H686 C698 0.959 . S
H687 C701 0.929 . S
H688 C702 0.931 . S
H689 C704 0.930 . S
C690 H678 0.930 . S
C690 C691 1.399 . S
C690 C695 1.399 . S
C691 C690 1.399 . S
C691 C692 1.376 . S
C692 H679 0.930 . S
C692 C691 1.376 . S
C692 C693 1.388 . S
C693 H680 0.930 . S
C693 C692 1.388 . S
C693 C694 1.390 . S
C694 C693 1.390 . S
C694 C695 1.394 . S
C694 C700 1.465 . S
C695 C690 1.399 . S
C695 C694 1.394 . S
C695 C696 1.516 . S
C696 C695 1.516 . S
C696 C697 1.502 . S
C696 C698 1.561 . S
C696 C699 1.526 . S
C697 H681 0.959 . S
C697 H682 0.959 . S
C697 H683 0.961 . S
C697 C696 1.502 . S
C698 H684 0.960 . S
C698 H685 0.961 . S
C698 H686 0.959 . S
C698 C696 1.561 . S
C699 C696 1.526 . S
C699 C700 1.396 . S
C699 C704 1.390 . S
C700 C694 1.465 . S
C700 C699 1.396 . S
C700 C701 1.399 . S
C701 H687 0.929 . S
C701 C700 1.399 . S
C701 C702 1.385 . S
C702 H688 0.931 . S
C702 C701 1.385 . S
C702 C703 1.389 . S
C703 C702 1.389 . S
C703 C704 1.387 . S
C704 H689 0.930 . S
C704 C699 1.390 . S
C704 C703 1.387 . S
H705 C717 0.930 . S
H706 C719 0.930 . S
H707 C720 0.930 . S
H708 C724 0.959 . S
H709 C724 0.959 . S
H710 C724 0.961 . S
H711 C725 0.960 . S
H712 C725 0.961 . S
H713 C725 0.959 . S
H714 C728 0.929 . S
H715 C729 0.931 . S
H716 C731 0.930 . S
C717 H705 0.930 . S
C717 C718 1.399 . S
C717 C722 1.399 . S
C718 C717 1.399 . S
C718 C719 1.376 . S
C719 H706 0.930 . S
C719 C718 1.376 . S
C719 C720 1.388 . S
C720 H707 0.930 . S
C720 C719 1.388 . S
C720 C721 1.390 . S
C721 C720 1.390 . S
C721 C722 1.394 . S
C721 C727 1.465 . S
C722 C717 1.399 . S
C722 C721 1.394 . S
C722 C723 1.516 . S
C723 C722 1.516 . S
C723 C724 1.502 . S
C723 C725 1.561 . S
C723 C726 1.526 . S
C724 H708 0.959 . S
C724 H709 0.959 . S
C724 H710 0.961 . S
C724 C723 1.502 . S
C725 H711 0.960 . S
C725 H712 0.961 . S
C725 H713 0.959 . S
C725 C723 1.561 . S
C726 C723 1.526 . S
C726 C727 1.396 . S
C726 C731 1.390 . S
C727 C721 1.465 . S
C727 C726 1.396 . S
C727 C728 1.399 . S
C728 H714 0.929 . S
C728 C727 1.399 . S
C728 C729 1.385 . S
C729 H715 0.931 . S
C729 C728 1.385 . S
C729 C730 1.389 . S
C730 C729 1.389 . S
C730 C731 1.387 . S
C731 H716 0.930 . S
C731 C726 1.390 . S
C731 C730 1.387 . S
H732 C744 0.930 . S
H733 C746 0.930 . S
H734 C747 0.930 . S
H735 C751 0.959 . S
H736 C751 0.959 . S
H737 C751 0.961 . S
H738 C752 0.960 . S
H739 C752 0.961 . S
H740 C752 0.959 . S
H741 C755 0.929 . S
H742 C756 0.931 . S
H743 C758 0.930 . S
C744 H732 0.930 . S
C744 C745 1.399 . S
C744 C749 1.399 . S
C745 C744 1.399 . S
C745 C746 1.376 . S
C746 H733 0.930 . S
C746 C745 1.376 . S
C746 C747 1.388 . S
C747 H734 0.930 . S
C747 C746 1.388 . S
C747 C748 1.390 . S
C748 C747 1.390 . S
C748 C749 1.394 . S
C748 C754 1.465 . S
C749 C744 1.399 . S
C749 C748 1.394 . S
C749 C750 1.516 . S
C750 C749 1.516 . S
C750 C751 1.502 . S
C750 C752 1.561 . S
C750 C753 1.526 . S
C751 H735 0.959 . S
C751 H736 0.959 . S
C751 H737 0.961 . S
C751 C750 1.502 . S
C752 H738 0.960 . S
C752 H739 0.961 . S
C752 H740 0.959 . S
C752 C750 1.561 . S
C753 C750 1.526 . S
C753 C754 1.396 . S
C753 C758 1.390 . S
C754 C748 1.465 . S
C754 C753 1.396 . S
C754 C755 1.399 . S
C755 H741 0.929 . S
C755 C754 1.399 . S
C755 C756 1.385 . S
C756 H742 0.931 . S
C756 C755 1.385 . S
C756 C757 1.389 . S
C757 C756 1.389 . S
C757 C758 1.387 . S
C758 H743 0.930 . S
C758 C753 1.390 . S
C758 C757 1.387 . S
H759 C771 0.930 . S
H760 C773 0.930 . S
H761 C774 0.930 . S
H762 C778 0.959 . S
H763 C778 0.959 . S
H764 C778 0.961 . S
H765 C779 0.960 . S
H766 C779 0.961 . S
H767 C779 0.959 . S
H768 C782 0.929 . S
H769 C783 0.931 . S
H770 C785 0.930 . S
C771 H759 0.930 . S
C771 C772 1.399 . S
C771 C776 1.399 . S
C772 C771 1.399 . S
C772 C773 1.376 . S
C773 H760 0.930 . S
C773 C772 1.376 . S
C773 C774 1.388 . S
C774 H761 0.930 . S
C774 C773 1.388 . S
C774 C775 1.390 . S
C775 C774 1.390 . S
C775 C776 1.394 . S
C775 C781 1.465 . S
C776 C771 1.399 . S
C776 C775 1.394 . S
C776 C777 1.516 . S
C777 C776 1.516 . S
C777 C778 1.502 . S
C777 C779 1.561 . S
C777 C780 1.526 . S
C778 H762 0.959 . S
C778 H763 0.959 . S
C778 H764 0.961 . S
C778 C777 1.502 . S
C779 H765 0.960 . S
C779 H766 0.961 . S
C779 H767 0.959 . S
C779 C777 1.561 . S
C780 C777 1.526 . S
C780 C781 1.396 . S
C780 C785 1.390 . S
C781 C775 1.465 . S
C781 C780 1.396 . S
C781 C782 1.399 . S
C782 H768 0.929 . S
C782 C781 1.399 . S
C782 C783 1.385 . S
C783 H769 0.931 . S
C783 C782 1.385 . S
C783 C784 1.389 . S
C784 C783 1.389 . S
C784 C785 1.387 . S
C785 H770 0.930 . S
C785 C780 1.390 . S
C785 C784 1.387 . S
H786 C798 0.930 . S
H787 C800 0.930 . S
H788 C801 0.930 . S
H789 C805 0.959 . S
H790 C805 0.959 . S
H791 C805 0.961 . S
H792 C806 0.960 . S
H793 C806 0.961 . S
H794 C806 0.959 . S
H795 C809 0.929 . S
H796 C810 0.931 . S
H797 C812 0.930 . S
C798 H786 0.930 . S
C798 C799 1.399 . S
C798 C803 1.399 . S
C799 C798 1.399 . S
C799 C800 1.376 . S
C800 H787 0.930 . S
C800 C799 1.376 . S
C800 C801 1.388 . S
C801 H788 0.930 . S
C801 C800 1.388 . S
C801 C802 1.390 . S
C802 C801 1.390 . S
C802 C803 1.394 . S
C802 C808 1.465 . S
C803 C798 1.399 . S
C803 C802 1.394 . S
C803 C804 1.516 . S
C804 C803 1.516 . S
C804 C805 1.502 . S
C804 C806 1.561 . S
C804 C807 1.526 . S
C805 H789 0.959 . S
C805 H790 0.959 . S
C805 H791 0.961 . S
C805 C804 1.502 . S
C806 H792 0.960 . S
C806 H793 0.961 . S
C806 H794 0.959 . S
C806 C804 1.561 . S
C807 C804 1.526 . S
C807 C808 1.396 . S
C807 C812 1.390 . S
C808 C802 1.465 . S
C808 C807 1.396 . S
C808 C809 1.399 . S
C809 H795 0.929 . S
C809 C808 1.399 . S
C809 C810 1.385 . S
C810 H796 0.931 . S
C810 C809 1.385 . S
C810 C811 1.389 . S
C811 C810 1.389 . S
C811 C812 1.387 . S
C812 H797 0.930 . S
C812 C807 1.390 . S
C812 C811 1.387 . S
H813 C825 0.930 . S
H814 C827 0.930 . S
H815 C828 0.930 . S
H816 C832 0.959 . S
H817 C832 0.959 . S
H818 C832 0.961 . S
H819 C833 0.960 . S
H820 C833 0.961 . S
H821 C833 0.959 . S
H822 C836 0.929 . S
H823 C837 0.931 . S
H824 C839 0.930 . S
C825 H813 0.930 . S
C825 C826 1.399 . S
C825 C830 1.399 . S
C826 C825 1.399 . S
C826 C827 1.376 . S
C827 H814 0.930 . S
C827 C826 1.376 . S
C827 C828 1.388 . S
C828 H815 0.930 . S
C828 C827 1.388 . S
C828 C829 1.390 . S
C829 C828 1.390 . S
C829 C830 1.394 . S
C829 C835 1.465 . S
C830 C825 1.399 . S
C830 C829 1.394 . S
C830 C831 1.516 . S
C831 C830 1.516 . S
C831 C832 1.502 . S
C831 C833 1.561 . S
C831 C834 1.526 . S
C832 H816 0.959 . S
C832 H817 0.959 . S
C832 H818 0.961 . S
C832 C831 1.502 . S
C833 H819 0.960 . S
C833 H820 0.961 . S
C833 H821 0.959 . S
C833 C831 1.561 . S
C834 C831 1.526 . S
C834 C835 1.396 . S
C834 C839 1.390 . S
C835 C829 1.465 . S
C835 C834 1.396 . S
C835 C836 1.399 . S
C836 H822 0.929 . S
C836 C835 1.399 . S
C836 C837 1.385 . S
C837 H823 0.931 . S
C837 C836 1.385 . S
C837 C838 1.389 . S
C838 C837 1.389 . S
C838 C839 1.387 . S
C839 H824 0.930 . S
C839 C834 1.390 . S
C839 C838 1.387 . S
H840 C852 0.930 . S
H841 C854 0.930 . S
H842 C855 0.930 . S
H843 C859 0.959 . S
H844 C859 0.959 . S
H845 C859 0.961 . S
H846 C860 0.960 . S
H847 C860 0.961 . S
H848 C860 0.959 . S
H849 C863 0.929 . S
H850 C864 0.931 . S
H851 C866 0.930 . S
C852 H840 0.930 . S
C852 C853 1.399 . S
C852 C857 1.399 . S
C853 C852 1.399 . S
C853 C854 1.376 . S
C854 H841 0.930 . S
C854 C853 1.376 . S
C854 C855 1.388 . S
C855 H842 0.930 . S
C855 C854 1.388 . S
C855 C856 1.390 . S
C856 C855 1.390 . S
C856 C857 1.394 . S
C856 C862 1.465 . S
C857 C852 1.399 . S
C857 C856 1.394 . S
C857 C858 1.516 . S
C858 C857 1.516 . S
C858 C859 1.502 . S
C858 C860 1.561 . S
C858 C861 1.526 1_556 S
C859 H843 0.959 . S
C859 H844 0.959 . S
C859 H845 0.961 . S
C859 C858 1.502 . S
C860 H846 0.960 . S
C860 H847 0.961 . S
C860 H848 0.959 . S
C860 C858 1.561 . S
C861 C858 1.526 1_554 S
C861 C862 1.396 1_554 S
C861 C866 1.390 . S
C862 C856 1.465 . S
C862 C861 1.396 1_556 S
C862 C863 1.399 1_556 S
C863 H849 0.929 . S
C863 C862 1.399 1_554 S
C863 C864 1.385 . S
C864 H850 0.931 . S
C864 C863 1.385 . S
C864 C865 1.389 . S
C865 C864 1.389 . S
C865 C866 1.387 . S
C866 H851 0.930 . S
C866 C861 1.390 . S
C866 C865 1.387 . S
H867 C879 0.930 . S
H868 C881 0.930 . S
H869 C882 0.930 . S
H870 C886 0.959 . S
H871 C886 0.959 . S
H872 C886 0.961 . S
H873 C887 0.960 . S
H874 C887 0.961 . S
H875 C887 0.959 . S
H876 C890 0.929 . S
H877 C891 0.931 . S
H878 C893 0.930 . S
C879 H867 0.930 . S
C879 C880 1.399 . S
C879 C884 1.399 . S
C880 C879 1.399 . S
C880 C881 1.376 . S
C881 H868 0.930 . S
C881 C880 1.376 . S
C881 C882 1.388 . S
C882 H869 0.930 . S
C882 C881 1.388 . S
C882 C883 1.390 . S
C883 C882 1.390 . S
C883 C884 1.394 . S
C883 C889 1.465 . S
C884 C879 1.399 . S
C884 C883 1.394 . S
C884 C885 1.516 . S
C885 C884 1.516 . S
C885 C886 1.502 . S
C885 C887 1.561 . S
C885 C888 1.526 . S
C886 H870 0.959 . S
C886 H871 0.959 . S
C886 H872 0.961 . S
C886 C885 1.502 . S
C887 H873 0.960 . S
C887 H874 0.961 . S
C887 H875 0.959 . S
C887 C885 1.561 . S
C888 C885 1.526 . S
C888 C889 1.396 . S
C888 C893 1.390 1_554 S
C889 C883 1.465 . S
C889 C888 1.396 . S
C889 C890 1.399 . S
C890 H876 0.929 . S
C890 C889 1.399 . S
C890 C891 1.385 1_554 S
C891 H877 0.931 . S
C891 C890 1.385 1_556 S
C891 C892 1.389 . S
C892 C891 1.389 . S
C892 C893 1.387 . S
C893 H878 0.930 . S
C893 C888 1.390 1_556 S
C893 C892 1.387 . S
H894 C906 0.930 . S
H895 C908 0.930 . S
H896 C909 0.930 . S
H897 C913 0.959 . S
H898 C913 0.959 . S
H899 C913 0.961 . S
H900 C914 0.960 . S
H901 C914 0.961 . S
H902 C914 0.959 . S
H903 C917 0.929 . S
H904 C918 0.931 . S
H905 C920 0.930 . S
C906 H894 0.930 . S
C906 C907 1.399 . S
C906 C911 1.399 . S
C907 C906 1.399 . S
C907 C908 1.376 . S
C908 H895 0.930 . S
C908 C907 1.376 . S
C908 C909 1.388 . S
C909 H896 0.930 . S
C909 C908 1.388 . S
C909 C910 1.390 . S
C910 C909 1.390 . S
C910 C911 1.394 . S
C910 C916 1.465 . S
C911 C906 1.399 . S
C911 C910 1.394 . S
C911 C912 1.516 . S
C912 C911 1.516 . S
C912 C913 1.502 . S
C912 C914 1.561 . S
C912 C915 1.526 . S
C913 H897 0.959 . S
C913 H898 0.959 . S
C913 H899 0.961 . S
C913 C912 1.502 . S
C914 H900 0.960 . S
C914 H901 0.961 . S
C914 H902 0.959 . S
C914 C912 1.561 . S
C915 C912 1.526 . S
C915 C916 1.396 . S
C915 C920 1.390 . S
C916 C910 1.465 . S
C916 C915 1.396 . S
C916 C917 1.399 . S
C917 H903 0.929 . S
C917 C916 1.399 . S
C917 C918 1.385 . S
C918 H904 0.931 . S
C918 C917 1.385 . S
C918 C919 1.389 . S
C919 C918 1.389 . S
C919 C920 1.387 . S
C920 H905 0.930 . S
C920 C915 1.390 . S
C920 C919 1.387 . S
H921 C933 0.930 . S
H922 C935 0.930 . S
H923 C936 0.930 . S
H924 C940 0.959 . S
H925 C940 0.959 . S
H926 C940 0.961 . S
H927 C941 0.960 . S
H928 C941 0.961 . S
H929 C941 0.959 . S
H930 C944 0.929 . S
H931 C945 0.931 . S
H932 C947 0.930 . S
C933 H921 0.930 . S
C933 C934 1.399 . S
C933 C938 1.399 . S
C934 C933 1.399 . S
C934 C935 1.376 . S
C935 H922 0.930 . S
C935 C934 1.376 . S
C935 C936 1.388 . S
C936 H923 0.930 . S
C936 C935 1.388 . S
C936 C937 1.390 . S
C937 C936 1.390 . S
C937 C938 1.394 . S
C937 C943 1.465 . S
C938 C933 1.399 . S
C938 C937 1.394 . S
C938 C939 1.516 . S
C939 C938 1.516 . S
C939 C940 1.502 . S
C939 C941 1.561 . S
C939 C942 1.526 . S
C940 H924 0.959 . S
C940 H925 0.959 . S
C940 H926 0.961 . S
C940 C939 1.502 . S
C941 H927 0.960 . S
C941 H928 0.961 . S
C941 H929 0.959 . S
C941 C939 1.561 . S
C942 C939 1.526 . S
C942 C943 1.396 . S
C942 C947 1.390 . S
C943 C937 1.465 . S
C943 C942 1.396 . S
C943 C944 1.399 . S
C944 H930 0.929 . S
C944 C943 1.399 . S
C944 C945 1.385 . S
C945 H931 0.931 . S
C945 C944 1.385 . S
C945 C946 1.389 . S
C946 C945 1.389 . S
C946 C947 1.387 . S
C947 H932 0.930 . S
C947 C942 1.390 . S
C947 C946 1.387 . S
H948 C960 0.930 . S
H949 C962 0.930 . S
H950 C963 0.930 . S
H951 C967 0.959 . S
H952 C967 0.959 . S
H953 C967 0.961 . S
H954 C968 0.960 . S
H955 C968 0.961 . S
H956 C968 0.959 . S
H957 C971 0.929 . S
H958 C972 0.931 . S
H959 C974 0.930 . S
C960 H948 0.930 . S
C960 C961 1.399 . S
C960 C965 1.399 . S
C961 C960 1.399 . S
C961 C962 1.376 . S
C962 H949 0.930 . S
C962 C961 1.376 . S
C962 C963 1.388 . S
C963 H950 0.930 . S
C963 C962 1.388 . S
C963 C964 1.390 . S
C964 C963 1.390 . S
C964 C965 1.394 . S
C964 C970 1.465 . S
C965 C960 1.399 . S
C965 C964 1.394 . S
C965 C966 1.516 . S
C966 C965 1.516 . S
C966 C967 1.502 . S
C966 C968 1.561 . S
C966 C969 1.526 . S
C967 H951 0.959 . S
C967 H952 0.959 . S
C967 H953 0.961 . S
C967 C966 1.502 . S
C968 H954 0.960 . S
C968 H955 0.961 . S
C968 H956 0.959 . S
C968 C966 1.561 . S
C969 C966 1.526 . S
C969 C970 1.396 . S
C969 C974 1.390 . S
C970 C964 1.465 . S
C970 C969 1.396 . S
C970 C971 1.399 . S
C971 H957 0.929 . S
C971 C970 1.399 . S
C971 C972 1.385 . S
C972 H958 0.931 . S
C972 C971 1.385 . S
C972 C973 1.389 . S
C973 C972 1.389 . S
C973 C974 1.387 . S
C974 H959 0.930 . S
C974 C969 1.390 . S
C974 C973 1.387 . S
H975 C987 0.930 . S
H976 C989 0.930 . S
H977 C990 0.930 . S
H978 C994 0.959 . S
H979 C994 0.959 . S
H980 C994 0.961 . S
H981 C995 0.960 . S
H982 C995 0.961 . S
H983 C995 0.959 . S
H984 C998 0.929 . S
H985 C999 0.931 . S
H986 C1001 0.930 . S
C987 H975 0.930 . S
C987 C988 1.399 . S
C987 C992 1.399 . S
C988 C987 1.399 . S
C988 C989 1.376 . S
C989 H976 0.930 . S
C989 C988 1.376 . S
C989 C990 1.388 . S
C990 H977 0.930 . S
C990 C989 1.388 . S
C990 C991 1.390 . S
C991 C990 1.390 . S
C991 C992 1.394 . S
C991 C997 1.465 . S
C992 C987 1.399 . S
C992 C991 1.394 . S
C992 C993 1.516 . S
C993 C992 1.516 . S
C993 C994 1.502 . S
C993 C995 1.561 . S
C993 C996 1.526 . S
C994 H978 0.959 . S
C994 H979 0.959 . S
C994 H980 0.961 . S
C994 C993 1.502 . S
C995 H981 0.960 . S
C995 H982 0.961 . S
C995 H983 0.959 . S
C995 C993 1.561 . S
C996 C993 1.526 . S
C996 C997 1.396 . S
C996 C1001 1.390 . S
C997 C991 1.465 . S
C997 C996 1.396 . S
C997 C998 1.399 . S
C998 H984 0.929 . S
C998 C997 1.399 . S
C998 C999 1.385 . S
C999 H985 0.931 . S
C999 C998 1.385 . S
C999 C1000 1.389 . S
C1000 C999 1.389 . S
C1000 C1001 1.387 . S
C1001 H986 0.930 . S
C1001 C996 1.390 . S
C1001 C1000 1.387 . S
H1002 C1014 0.930 . S
H1003 C1016 0.930 . S
H1004 C1017 0.930 . S
H1005 C1021 0.959 . S
H1006 C1021 0.959 . S
H1007 C1021 0.961 . S
H1008 C1022 0.960 . S
H1009 C1022 0.961 . S
H1010 C1022 0.959 . S
H1011 C1025 0.929 . S
H1012 C1026 0.931 . S
H1013 C1028 0.930 . S
C1014 H1002 0.930 . S
C1014 C1015 1.399 . S
C1014 C1019 1.399 1_554 S
C1015 C1014 1.399 . S
C1015 C1016 1.376 1_554 S
C1016 H1003 0.930 . S
C1016 C1015 1.376 1_556 S
C1016 C1017 1.388 . S
C1017 H1004 0.930 . S
C1017 C1016 1.388 . S
C1017 C1018 1.390 . S
C1018 C1017 1.390 . S
C1018 C1019 1.394 . S
C1018 C1024 1.465 . S
C1019 C1014 1.399 1_556 S
C1019 C1018 1.394 . S
C1019 C1020 1.516 . S
C1020 C1019 1.516 . S
C1020 C1021 1.502 . S
C1020 C1022 1.561 1_556 S
C1020 C1023 1.526 . S
C1021 H1005 0.959 . S
C1021 H1006 0.959 . S
C1021 H1007 0.961 . S
C1021 C1020 1.502 . S
C1022 H1008 0.960 . S
C1022 H1009 0.961 . S
C1022 H1010 0.959 . S
C1022 C1020 1.561 1_554 S
C1023 C1020 1.526 . S
C1023 C1024 1.396 . S
C1023 C1028 1.390 . S
C1024 C1018 1.465 . S
C1024 C1023 1.396 . S
C1024 C1025 1.399 . S
C1025 H1011 0.929 . S
C1025 C1024 1.399 . S
C1025 C1026 1.385 . S
C1026 H1012 0.931 . S
C1026 C1025 1.385 . S
C1026 C1027 1.389 . S
C1027 C1026 1.389 . S
C1027 C1028 1.387 . S
C1028 H1013 0.930 . S
C1028 C1023 1.390 . S
C1028 C1027 1.387 . S
H1029 C1041 0.930 . S
H1030 C1043 0.930 . S
H1031 C1044 0.930 . S
H1032 C1048 0.959 . S
H1033 C1048 0.959 . S
H1034 C1048 0.961 . S
H1035 C1049 0.960 . S
H1036 C1049 0.961 . S
H1037 C1049 0.959 . S
H1038 C1052 0.929 . S
H1039 C1053 0.931 . S
H1040 C1055 0.930 . S
C1041 H1029 0.930 . S
C1041 C1042 1.399 . S
C1041 C1046 1.399 . S
C1042 C1041 1.399 . S
C1042 C1043 1.376 . S
C1043 H1030 0.930 . S
C1043 C1042 1.376 . S
C1043 C1044 1.388 . S
C1044 H1031 0.930 . S
C1044 C1043 1.388 . S
C1044 C1045 1.390 . S
C1045 C1044 1.390 . S
C1045 C1046 1.394 . S
C1045 C1051 1.465 . S
C1046 C1041 1.399 . S
C1046 C1045 1.394 . S
C1046 C1047 1.516 . S
C1047 C1046 1.516 . S
C1047 C1048 1.502 . S
C1047 C1049 1.561 . S
C1047 C1050 1.526 . S
C1048 H1032 0.959 . S
C1048 H1033 0.959 . S
C1048 H1034 0.961 . S
C1048 C1047 1.502 . S
C1049 H1035 0.960 . S
C1049 H1036 0.961 . S
C1049 H1037 0.959 . S
C1049 C1047 1.561 . S
C1050 C1047 1.526 . S
C1050 C1051 1.396 . S
C1050 C1055 1.390 . S
C1051 C1045 1.465 . S
C1051 C1050 1.396 . S
C1051 C1052 1.399 1_554 S
C1052 H1038 0.929 . S
C1052 C1051 1.399 1_556 S
C1052 C1053 1.385 . S
C1053 H1039 0.931 . S
C1053 C1052 1.385 . S
C1053 C1054 1.389 . S
C1054 C1053 1.389 . S
C1054 C1055 1.387 1_556 S
C1055 H1040 0.930 . S
C1055 C1050 1.390 . S
C1055 C1054 1.387 1_554 S
H1056 C1068 0.930 1_556 S
H1057 C1070 0.930 . S
H1058 C1071 0.930 . S
H1059 C1075 0.959 . S
H1060 C1075 0.959 . S
H1061 C1075 0.961 . S
H1062 C1076 0.960 . S
H1063 C1076 0.965 . S
H1064 C1076 0.959 . S
H1065 C1079 0.929 . S
H1066 C1080 0.931 . S
H1067 C1082 0.930 . S
C1068 H1056 0.930 1_554 S
C1068 C1069 1.399 . S
C1068 C1073 1.399 1_554 S
C1069 C1068 1.399 . S
C1069 C1070 1.376 . S
C1070 H1057 0.930 . S
C1070 C1069 1.376 . S
C1070 C1071 1.388 . S
C1071 H1058 0.930 . S
C1071 C1070 1.388 . S
C1071 C1072 1.390 . S
C1072 C1071 1.390 . S
C1072 C1073 1.394 1_554 S
C1072 C1078 1.465 1_545 S
C1073 C1068 1.399 1_556 S
C1073 C1072 1.394 1_556 S
C1073 C1074 1.516 . S
C1074 C1073 1.516 . S
C1074 C1075 1.502 . S
C1074 C1076 1.561 . S
C1074 C1077 1.526 1_545 S
C1075 H1059 0.959 . S
C1075 H1060 0.959 . S
C1075 H1061 0.961 . S
C1075 C1074 1.502 . S
C1076 H1062 0.960 . S
C1076 H1063 0.965 . S
C1076 H1064 0.959 . S
C1076 C1074 1.561 . S
C1077 C1074 1.526 1_565 S
C1077 C1078 1.396 1_556 S
C1077 C1082 1.390 . S
C1078 C1072 1.465 1_565 S
C1078 C1077 1.396 1_554 S
C1078 C1079 1.399 . S
C1079 H1065 0.929 . S
C1079 C1078 1.399 . S
C1079 C1080 1.385 . S
C1080 H1066 0.931 . S
C1080 C1079 1.385 . S
C1080 C1081 1.389 1_554 S
C1081 C1080 1.389 1_556 S
C1081 C1082 1.387 . S
C1082 H1067 0.930 . S
C1082 C1077 1.390 . S
C1082 C1081 1.387 . S
H1083 C1095 0.930 . S
H1084 C1097 0.930 . S
H1085 C1098 0.930 . S
H1086 C1102 0.959 . S
H1087 C1102 0.959 . S
H1088 C1102 0.961 . S
H1089 C1103 0.960 . S
H1090 C1103 0.961 . S
H1091 C1103 0.959 . S
H1092 C1106 0.929 . S
H1093 C1107 0.931 . S
H1094 C1109 0.930 . S
C1095 H1083 0.930 . S
C1095 C1096 1.399 . S
C1095 C1100 1.399 . S
C1096 C1095 1.399 . S
C1096 C1097 1.376 . S
C1097 H1084 0.930 . S
C1097 C1096 1.376 . S
C1097 C1098 1.388 . S
C1098 H1085 0.930 . S
C1098 C1097 1.388 . S
C1098 C1099 1.390 . S
C1099 C1098 1.390 . S
C1099 C1100 1.394 . S
C1099 C1105 1.465 . S
C1100 C1095 1.399 . S
C1100 C1099 1.394 . S
C1100 C1101 1.516 . S
C1101 C1100 1.516 . S
C1101 C1102 1.502 . S
C1101 C1103 1.561 . S
C1101 C1104 1.526 . S
C1102 H1086 0.959 . S
C1102 H1087 0.959 . S
C1102 H1088 0.961 . S
C1102 C1101 1.502 . S
C1103 H1089 0.960 . S
C1103 H1090 0.961 . S
C1103 H1091 0.959 . S
C1103 C1101 1.561 . S
C1104 C1101 1.526 . S
C1104 C1105 1.396 . S
C1104 C1109 1.390 . S
C1105 C1099 1.465 . S
C1105 C1104 1.396 . S
C1105 C1106 1.399 . S
C1106 H1092 0.929 . S
C1106 C1105 1.399 . S
C1106 C1107 1.385 . S
C1107 H1093 0.931 . S
C1107 C1106 1.385 . S
C1107 C1108 1.389 . S
C1108 C1107 1.389 . S
C1108 C1109 1.387 . S
C1109 H1094 0.930 . S
C1109 C1104 1.390 . S
C1109 C1108 1.387 . S
H1110 C1122 0.930 . S
H1111 C1124 0.930 . S
H1112 C1125 0.930 . S
H1113 C1129 0.959 . S
H1114 C1129 0.959 . S
H1115 C1129 0.961 . S
H1116 C1130 0.960 1_455 S
H1117 C1130 0.961 . S
H1118 C1130 0.959 . S
H1119 C1133 0.929 . S
H1120 C1134 0.931 . S
H1121 C1136 0.930 . S
C1122 H1110 0.930 . S
C1122 C1123 1.399 . S
C1122 C1127 1.399 . S
C1123 C1122 1.399 . S
C1123 C1124 1.376 . S
C1124 H1111 0.930 . S
C1124 C1123 1.376 . S
C1124 C1125 1.388 . S
C1125 H1112 0.930 . S
C1125 C1124 1.388 . S
C1125 C1126 1.390 . S
C1126 C1125 1.390 . S
C1126 C1127 1.394 . S
C1126 C1132 1.465 1_455 S
C1127 C1122 1.399 . S
C1127 C1126 1.394 . S
C1127 C1128 1.516 1_455 S
C1128 C1127 1.516 1_655 S
C1128 C1129 1.502 . S
C1128 C1130 1.561 . S
C1128 C1131 1.526 . S
C1129 H1113 0.959 . S
C1129 H1114 0.959 . S
C1129 H1115 0.961 . S
C1129 C1128 1.502 . S
C1130 H1116 0.960 1_655 S
C1130 H1117 0.961 . S
C1130 H1118 0.959 . S
C1130 C1128 1.561 . S
C1131 C1128 1.526 . S
C1131 C1132 1.396 . S
C1131 C1136 1.390 . S
C1132 C1126 1.465 1_655 S
C1132 C1131 1.396 . S
C1132 C1133 1.399 . S
C1133 H1119 0.929 . S
C1133 C1132 1.399 . S
C1133 C1134 1.385 . S
C1134 H1120 0.931 . S
C1134 C1133 1.385 . S
C1134 C1135 1.389 . S
C1135 C1134 1.389 . S
C1135 C1136 1.387 . S
C1136 H1121 0.930 . S
C1136 C1131 1.390 . S
C1136 C1135 1.387 . S
H1137 C1149 0.930 . S
H1138 C1151 0.930 . S
H1139 C1152 0.930 . S
H1140 C1156 0.959 . S
H1141 C1156 0.959 . S
H1142 C1156 0.961 . S
H1143 C1157 0.960 . S
H1144 C1157 0.961 . S
H1145 C1157 0.959 . S
H1146 C1160 0.929 . S
H1147 C1161 0.931 . S
H1148 C1163 0.930 . S
C1149 H1137 0.930 . S
C1149 C1150 1.399 . S
C1149 C1154 1.399 . S
C1150 C1149 1.399 . S
C1150 C1151 1.376 . S
C1151 H1138 0.930 . S
C1151 C1150 1.376 . S
C1151 C1152 1.388 . S
C1152 H1139 0.930 . S
C1152 C1151 1.388 . S
C1152 C1153 1.390 . S
C1153 C1152 1.390 . S
C1153 C1154 1.394 . S
C1153 C1159 1.465 1_565 S
C1154 C1149 1.399 . S
C1154 C1153 1.394 . S
C1154 C1155 1.516 1_565 S
C1155 C1154 1.516 1_545 S
C1155 C1156 1.502 . S
C1155 C1157 1.561 . S
C1155 C1158 1.526 . S
C1156 H1140 0.959 . S
C1156 H1141 0.959 . S
C1156 H1142 0.961 . S
C1156 C1155 1.502 . S
C1157 H1143 0.960 . S
C1157 H1144 0.961 . S
C1157 H1145 0.959 . S
C1157 C1155 1.561 . S
C1158 C1155 1.526 . S
C1158 C1159 1.396 . S
C1158 C1163 1.390 . S
C1159 C1153 1.465 1_545 S
C1159 C1158 1.396 . S
C1159 C1160 1.399 . S
C1160 H1146 0.929 . S
C1160 C1159 1.399 . S
C1160 C1161 1.385 . S
C1161 H1147 0.931 . S
C1161 C1160 1.385 . S
C1161 C1162 1.389 . S
C1162 C1161 1.389 . S
C1162 C1163 1.387 . S
C1163 H1148 0.930 . S
C1163 C1158 1.390 . S
C1163 C1162 1.387 . S
H1164 C1176 0.930 . S
H1165 C1178 0.930 . S
H1166 C1179 0.930 . S
H1167 C1183 0.959 . S
H1168 C1183 0.959 . S
H1169 C1183 0.961 . S
H1170 C1184 0.960 . S
H1171 C1184 0.961 . S
H1172 C1184 0.959 . S
H1173 C1187 0.929 . S
H1174 C1188 0.931 . S
H1175 C1190 0.930 . S
C1176 H1164 0.930 . S
C1176 C1177 1.399 . S
C1176 C1181 1.399 . S
C1177 C1176 1.399 . S
C1177 C1178 1.376 . S
C1178 H1165 0.930 . S
C1178 C1177 1.376 . S
C1178 C1179 1.388 . S
C1179 H1166 0.930 . S
C1179 C1178 1.388 . S
C1179 C1180 1.390 . S
C1180 C1179 1.390 . S
C1180 C1181 1.394 . S
C1180 C1186 1.465 . S
C1181 C1176 1.399 . S
C1181 C1180 1.394 . S
C1181 C1182 1.516 . S
C1182 C1181 1.516 . S
C1182 C1183 1.502 . S
C1182 C1184 1.561 . S
C1182 C1185 1.526 . S
C1183 H1167 0.959 . S
C1183 H1168 0.959 . S
C1183 H1169 0.961 . S
C1183 C1182 1.502 . S
C1184 H1170 0.960 . S
C1184 H1171 0.961 . S
C1184 H1172 0.959 . S
C1184 C1182 1.561 . S
C1185 C1182 1.526 . S
C1185 C1186 1.396 . S
C1185 C1190 1.390 . S
C1186 C1180 1.465 . S
C1186 C1185 1.396 . S
C1186 C1187 1.399 . S
C1187 H1173 0.929 . S
C1187 C1186 1.399 . S
C1187 C1188 1.385 . S
C1188 H1174 0.931 . S
C1188 C1187 1.385 . S
C1188 C1189 1.389 . S
C1189 C1188 1.389 . S
C1189 C1190 1.387 . S
C1190 H1175 0.930 . S
C1190 C1185 1.390 . S
C1190 C1189 1.387 . S
H1191 C1203 0.930 . S
H1192 C1205 0.930 . S
H1193 C1206 0.930 . S
H1194 C1210 0.959 . S
H1195 C1210 0.959 . S
H1196 C1210 0.961 1_455 S
H1197 C1211 0.960 1_554 S
H1198 C1211 0.961 . S
H1199 C1211 0.959 . S
H1200 C1214 0.929 . S
H1201 C1215 0.931 . S
H1202 C1217 0.930 . S
C1203 H1191 0.930 . S
C1203 C1204 1.399 . S
C1203 C1208 1.399 . S
C1204 C1203 1.399 . S
C1204 C1205 1.376 . S
C1205 H1192 0.930 . S
C1205 C1204 1.376 . S
C1205 C1206 1.388 . S
C1206 H1193 0.930 . S
C1206 C1205 1.388 . S
C1206 C1207 1.390 . S
C1207 C1206 1.390 . S
C1207 C1208 1.394 . S
C1207 C1213 1.465 1_455 S
C1208 C1203 1.399 . S
C1208 C1207 1.394 . S
C1208 C1209 1.516 1_455 S
C1209 C1208 1.516 1_655 S
C1209 C1210 1.502 . S
C1209 C1211 1.561 . S
C1209 C1212 1.526 . S
C1210 H1194 0.959 . S
C1210 H1195 0.959 . S
C1210 H1196 0.961 1_655 S
C1210 C1209 1.502 . S
C1211 H1197 0.960 1_556 S
C1211 H1198 0.961 . S
C1211 H1199 0.959 . S
C1211 C1209 1.561 . S
C1212 C1209 1.526 . S
C1212 C1213 1.396 . S
C1212 C1217 1.390 . S
C1213 C1207 1.465 1_655 S
C1213 C1212 1.396 . S
C1213 C1214 1.399 . S
C1214 H1200 0.929 . S
C1214 C1213 1.399 . S
C1214 C1215 1.385 . S
C1215 H1201 0.931 . S
C1215 C1214 1.385 . S
C1215 C1216 1.389 . S
C1216 C1215 1.389 . S
C1216 C1217 1.387 . S
C1217 H1202 0.930 . S
C1217 C1212 1.390 . S
C1217 C1216 1.387 . S
C421 C292 1.513 . S
C433 C20 1.510 . S
C448 C326 1.507 . S
C460 C54 1.505 . S
C475 C360 1.506 . S
C487 C88 1.509 . S
C502 C394 1.506 . S
C514 C122 1.509 . S
C529 C156 1.507 . S
C541 C224 1.505 . S
C556 C258 1.505 . S
C568 C190 1.508 . S
C583 C9 1.245 . S
C595 C5 1.247 . S
C610 C39 1.247 . S
C622 C43 1.206 . S
C637 C73 1.248 . S
C649 C77 1.248 . S
C664 C107 1.268 . S
C676 C111 1.258 . S
C691 C141 1.258 1_554 S
C703 C145 1.265 . S
C718 C175 1.247 . S
C730 C179 1.245 . S
C745 C213 1.254 . S
C757 C209 1.267 . S
C772 C243 1.239 . S
C784 C247 1.212 . S
C799 C281 1.268 . S
C811 C277 1.263 . S
C826 C315 1.256 . S
C838 C311 1.267 1_556 S
C853 C349 1.259 . S
C865 C345 1.254 . S
C880 C379 1.263 . S
C892 C383 1.237 . S
C907 C33 1.587 . S
C919 C373 1.608 . S
C934 C67 1.595 . S
C946 C407 1.621 . S
C961 C101 1.591 . S
C973 C237 1.622 . S
C988 C271 1.587 . S
C1000 C135 1.608 . S
C1015 C305 1.609 . S
C1027 C169 1.613 . S
C1042 C339 1.591 . S
C1054 C203 1.622 . S
C1069 C2 1.583 . S
C1081 C240 1.558 . S
C1096 C274 1.567 . S
C1108 C36 1.558 . S
C1123 C308 1.556 . S
C1135 C70 1.581 . S
C1150 C104 1.559 . S
C1162 C342 1.583 . S
C1177 C376 1.582 . S
C1189 C138 1.568 . S
C1204 C172 1.568 . S
C1216 C206 1.582 . S
