# Generated by pormake.
# Topology npo, (4)-cn, num edge types: 1
# Building blocks:
#     Node 0, Type 0, BuildingBlock: KUFVIS_clean_sbu_0, # of connection points: 4
#     Node 1, Type 0, BuildingBlock: KUFVIS_clean_sbu_0, # of connection points: 4
#     Node 2, Type 0, BuildingBlock: KUFVIS_clean_sbu_0, # of connection points: 4
#     Node 3, Type 0, BuildingBlock: KUFVIS_clean_sbu_0, # of connection points: 4
#     Node 4, Type 0, BuildingBlock: KUFVIS_clean_sbu_0, # of connection points: 4
#     Node 5, Type 0, BuildingBlock: KUFVIS_clean_sbu_0, # of connection points: 4
#     Edge 6, Type (0, 0), BuildingBlock: EZIPEK_clean_linker_0, # of connection points: 2
#     Edge 7, Type (0, 0), BuildingBlock: EZIPEK_clean_linker_0, # of connection points: 2
#     Edge 8, Type (0, 0), BuildingBlock: EZIPEK_clean_linker_0, # of connection points: 2
#     Edge 9, Type (0, 0), BuildingBlock: EZIPEK_clean_linker_0, # of connection points: 2
#     Edge 10, Type (0, 0), BuildingBlock: EZIPEK_clean_linker_0, # of connection points: 2
#     Edge 11, Type (0, 0), BuildingBlock: EZIPEK_clean_linker_0, # of connection points: 2
#     Edge 12, Type (0, 0), BuildingBlock: EZIPEK_clean_linker_0, # of connection points: 2
#     Edge 13, Type (0, 0), BuildingBlock: EZIPEK_clean_linker_0, # of connection points: 2
#     Edge 14, Type (0, 0), BuildingBlock: EZIPEK_clean_linker_0, # of connection points: 2
#     Edge 15, Type (0, 0), BuildingBlock: EZIPEK_clean_linker_0, # of connection points: 2
#     Edge 16, Type (0, 0), BuildingBlock: EZIPEK_clean_linker_0, # of connection points: 2
#     Edge 17, Type (0, 0), BuildingBlock: EZIPEK_clean_linker_0, # of connection points: 2
# Relax obj value: 0.272
# Max RMSD: 0.241
# Mean RMSD: 0.233
data_MOF--net-npo--node1-KUFVIS_clean_sbu_0--edge1-EZIPEK_clean_linker_0
_symmetry_space_group_name_H-M    P1
_symmetry_Int_Tables_number       1
_symmetry_cell_setting            triclinic
loop_
_symmetry_equiv_pos_as_xyz
'x, y, z'
_cell_length_a     30.834039
_cell_length_b     32.814301
_cell_length_c     17.012244
_cell_angle_alpha  90.011404
_cell_angle_beta   91.57898
_cell_angle_gamma 122.10774
loop_
_atom_site_label
_atom_site_type_symbol
_atom_site_fract_x
_atom_site_fract_y
_atom_site_fract_z
_atom_type_partial_charge
Mn0 Mn 0.58798 0.13973 0.30373 0.0
Mn1 Mn 0.66496 0.10067 0.25109 0.0
C2 C 0.67721 0.19136 0.31629 0.0
C3 C 0.53867 0.174 0.27745 0.0
C4 C 0.60397 0.06971 0.40044 0.0
O5 O 0.54135 0.08256 0.22957 0.0
O6 O 0.59806 0.06314 0.19297 0.0
C7 C 0.67759 0.12665 0.08275 0.0
N8 N 0.69853 0.13019 0.15599 0.0
C9 C 0.78365 0.1744 0.10662 0.0
C10 C 0.76307 0.1718 0.03095 0.0
C11 C 0.70976 0.14807 1.01909 0.0
C12 C 0.74975 0.15376 0.16829 0.0
H13 H 0.63671 0.10755 0.0728 0.0
C14 C 0.55446 0.05903 0.18679 0.0
O15 O 0.52979 0.14541 0.33543 0.0
O16 O 0.57715 0.1832 0.23472 0.0
N17 N 0.73179 0.13512 0.30022 0.0
C18 C 0.74559 0.1347 0.37683 0.0
C19 C 0.79759 0.156 0.39825 0.0
C20 C 0.83464 0.1763 0.34039 0.0
C21 C 0.8196 0.17675 0.26202 0.0
C22 C 0.76735 0.15589 0.24448 0.0
H23 H 0.7171 0.11752 0.42104 0.0
O24 O 0.64688 0.19775 0.3589 0.0
O25 O 0.65427 0.1538 0.26972 0.0
O26 O 0.58504 0.09566 0.39096 0.0
O27 O 0.63336 0.06785 0.35103 0.0
C28 C 0.85412 0.19553 0.2001 0.0
C29 C 0.83637 0.19545 0.12288 0.0
H30 H 0.78778 0.1875 0.98145 0.0
H31 H 0.69346 0.14561 0.96081 0.0
H32 H 0.80899 0.15562 0.45884 0.0
H33 H 0.87438 0.19077 0.35673 0.0
H34 H 0.89431 0.20932 0.21055 0.0
H35 H 0.86348 0.21066 0.07614 0.0
Mn36 Mn 0.41281 0.55204 0.73957 0.0
Mn37 Mn 0.33759 0.43677 0.79617 0.0
C38 C 0.32356 0.51232 0.72371 0.0
C39 C 0.45712 0.6355 0.75621 0.0
C40 C 0.40006 0.46529 0.64875 0.0
O41 O 0.45935 0.54495 0.8194 0.0
O42 O 0.40452 0.46815 0.85505 0.0
C43 C 0.32376 0.45248 0.96292 0.0
N44 N 0.30332 0.43373 0.89001 0.0
C45 C 0.21783 0.39336 0.93799 0.0
C46 C 0.23791 0.41267 1.0133 0.0
C47 C 0.29114 0.44262 0.02568 0.0
C48 C 0.25216 0.40561 0.87719 0.0
H49 H 0.36459 0.47473 0.9733 0.0
C50 C 0.44705 0.50863 0.86255 0.0
O51 O 0.47006 0.6152 0.70468 0.0
O52 O 0.41984 0.60734 0.80164 0.0
N53 N 0.27096 0.40282 0.74638 0.0
C54 C 0.25767 0.38756 0.67008 0.0
C55 C 0.20582 0.35651 0.64822 0.0
C56 C 0.16838 0.34063 0.70532 0.0
C57 C 0.18289 0.35726 0.78332 0.0
C58 C 0.23504 0.38884 0.80133 0.0
H59 H 0.28644 0.39838 0.62646 0.0
O60 O 0.35371 0.54779 0.67891 0.0
O61 O 0.34673 0.49959 0.77357 0.0
O62 O 0.41897 0.51015 0.65755 0.0
O63 O 0.36975 0.43433 0.6976 0.0
C64 C 0.14792 0.34267 0.84446 0.0
C65 C 0.16519 0.36151 0.92128 0.0
H66 H 0.21285 0.40446 0.06212 0.0
H67 H 0.30703 0.45753 0.08368 0.0
H68 H 0.19482 0.34389 0.58788 0.0
H69 H 0.12875 0.31517 0.68863 0.0
H70 H 0.10772 0.31639 0.83366 0.0
H71 H 0.13775 0.35049 0.9674 0.0
Mn72 Mn 0.87225 0.45986 0.26838 0.0
Mn73 Mn 0.95636 0.43186 0.33902 0.0
C74 C 0.84718 0.37908 0.2756 0.0
C75 C 0.81105 0.48044 0.28107 0.0
C76 C 0.95884 0.46788 0.1733 0.0
O77 O 0.92406 0.52081 0.32912 0.0
O78 O 0.97583 0.49713 0.37585 0.0
C79 C 0.93765 0.43135 0.50939 0.0
N80 N 0.9402 0.40871 0.44408 0.0
C81 C 0.93148 0.34357 0.52134 0.0
C82 C 0.92893 0.36625 0.58933 0.0
C83 C 0.93145 0.4101 0.58316 0.0
C84 C 0.93578 0.36564 0.449 0.0
H85 H 0.94084 0.46556 0.50551 0.0
C86 C 0.96125 0.52704 0.37292 0.0
O87 O 0.84032 0.49282 0.22144 0.0
O88 O 0.81646 0.45433 0.33337 0.0
N89 N 0.943 0.36949 0.31275 0.0
C90 C 0.95023 0.35417 0.24269 0.0
C91 C 0.95296 0.3129 0.2399 0.0
C92 C 0.94903 0.28819 0.3093 0.0
C93 C 0.94049 0.30383 0.3804 0.0
C94 C 0.93828 0.34533 0.37973 0.0
H95 H 0.95589 0.37428 0.18971 0.0
O96 O 0.82499 0.3933 0.22662 0.0
O97 O 0.88458 0.41302 0.31886 0.0
O98 O 0.92148 0.47328 0.18131 0.0
O99 O 0.97631 0.45391 0.22908 0.0
C100 C 0.93689 0.2813 0.45257 0.0
C101 C 0.93159 0.30076 0.52285 0.0
H102 H 0.92564 0.35062 0.64661 0.0
H103 H 0.92974 0.42801 0.63535 0.0
H104 H 0.95973 0.30104 0.18478 0.0
H105 H 0.95372 0.25778 0.30772 0.0
H106 H 0.93886 0.24934 0.45489 0.0
H107 H 0.92911 0.28326 0.57801 0.0
Mn108 Mn 0.4785 0.87893 0.79215 0.0
Mn109 Mn 0.41258 0.93075 0.73882 0.0
C110 C 0.39013 0.83682 0.80009 0.0
C111 C 0.50965 0.82912 0.76497 0.0
C112 C 0.47587 0.95535 0.89183 0.0
O113 O 0.52873 0.93361 0.72157 0.0
O114 O 0.4788 0.96213 0.68409 0.0
C115 C 0.39291 0.90063 0.57068 0.0
N116 N 0.37484 0.90102 0.64271 0.0
C117 C 0.28754 0.85083 0.59452 0.0
C118 C 0.30527 0.85001 0.5199 0.0
C119 C 0.35819 0.87502 0.50797 0.0
C120 C 0.32397 0.87696 0.65484 0.0
H121 H 0.43349 0.91939 0.56115 0.0
C122 C 0.51947 0.96076 0.67961 0.0
O123 O 0.52829 0.85988 0.82324 0.0
O124 O 0.47584 0.83028 0.71977 0.0
N125 N 0.34702 0.90213 0.78554 0.0
C126 C 0.33606 0.9068 0.86086 0.0
C127 C 0.28473 0.88469 0.88205 0.0
C128 C 0.24521 0.85821 0.8256 0.0
C129 C 0.25739 0.85454 0.74819 0.0
C130 C 0.30925 0.87808 0.73017 0.0
H131 H 0.36618 0.92706 0.90465 0.0
O132 O 0.41688 0.82518 0.84382 0.0
O133 O 0.41621 0.87408 0.75674 0.0
O134 O 0.49052 0.92602 0.88149 0.0
O135 O 0.44852 0.9615 0.84098 0.0
C136 C 0.22009 0.82823 0.68834 0.0
C137 C 0.23515 0.82618 0.61165 0.0
H138 H 0.27861 0.8301 0.47146 0.0
H139 H 0.3722 0.87439 0.45063 0.0
H140 H 0.27565 0.88778 0.94189 0.0
H141 H 0.20567 0.84074 0.8424 0.0
H142 H 0.1797 0.80923 0.70076 0.0
H143 H 0.20613 0.80548 0.56628 0.0
Mn144 Mn 0.52567 0.4039 0.25084 0.0
Mn145 Mn 0.59032 0.52066 0.30969 0.0
C146 C 0.61383 0.4518 0.24097 0.0
C147 C 0.49802 0.32336 0.26671 0.0
C148 C 0.5262 0.48422 0.15742 0.0
O149 O 0.47596 0.4054 0.32674 0.0
O150 O 0.52388 0.48409 0.36368 0.0
C151 C 0.60968 0.50722 0.47657 0.0
N152 N 0.62788 0.52702 0.4053 0.0
C153 C 0.7151 0.5632 0.45342 0.0
C154 C 0.69723 0.54322 0.52723 0.0
C155 C 0.64429 0.51512 0.53883 0.0
C156 C 0.67879 0.55413 0.39355 0.0
H157 H 0.56909 0.48524 0.48586 0.0
C158 C 0.4843 0.44142 0.369 0.0
O159 O 0.47624 0.33625 0.21466 0.0
O160 O 0.53107 0.35622 0.31559 0.0
N161 N 0.65602 0.559 0.26388 0.0
C162 C 0.66714 0.57609 0.18938 0.0
C163 C 0.71853 0.60558 0.16864 0.0
C164 C 0.75793 0.61734 0.22469 0.0
C165 C 0.74558 0.60004 0.30133 0.0
C166 C 0.69368 0.57151 0.31898 0.0
H167 H 0.63711 0.56709 0.14583 0.0
O168 O 0.58716 0.41479 0.19442 0.0
O169 O 0.58771 0.46119 0.28762 0.0
O170 O 0.51108 0.44012 0.16689 0.0
O171 O 0.55466 0.51736 0.20809 0.0
C172 C 0.78276 0.60976 0.36073 0.0
C173 C 0.76753 0.59119 0.43664 0.0
H174 H 0.7238 0.54901 0.57529 0.0
H175 H 0.63017 0.4994 0.59554 0.0
H176 H 0.72774 0.61888 0.10941 0.0
H177 H 0.79752 0.63959 0.20818 0.0
H178 H 0.82318 0.63129 0.34855 0.0
H179 H 0.79646 0.59857 0.48165 0.0
Mn180 Mn 0.12983 0.58848 0.76527 0.0
Mn181 Mn 0.04607 0.47646 0.69402 0.0
C182 C 0.15463 0.53251 0.75953 0.0
C183 C 0.19176 0.67022 0.7544 0.0
C184 C 0.04229 0.51008 0.85905 0.0
O185 O 0.07874 0.59788 0.70275 0.0
O186 O 0.02718 0.52247 0.65558 0.0
C187 C 0.06561 0.49373 0.52367 0.0
N188 N 0.06308 0.46911 0.5897 0.0
C189 C 0.07359 0.41302 0.51457 0.0
C190 C 0.07619 0.43772 0.44591 0.0
C191 C 0.07267 0.47856 0.45062 0.0
C192 C 0.06815 0.43076 0.58612 0.0
H193 H 0.06168 0.52438 0.52638 0.0
C194 C 0.04197 0.56703 0.65818 0.0
O195 O 0.16142 0.65313 0.81271 0.0
O196 O 0.18673 0.63894 0.70189 0.0
N197 N 0.05931 0.42758 0.72202 0.0
C198 C 0.05173 0.40534 0.79244 0.0
C199 C 0.04999 0.36185 0.79655 0.0
C200 C 0.05531 0.34125 0.72808 0.0
C201 C 0.06414 0.36509 0.65659 0.0
C202 C 0.06526 0.40828 0.65592 0.0
H203 H 0.04516 0.41968 0.84472 0.0
O204 O 0.17645 0.56881 0.80871 0.0
O205 O 0.11774 0.52929 0.71519 0.0
O206 O 0.07967 0.55279 0.85127 0.0
O207 O 0.02518 0.47871 0.80325 0.0
C208 C 0.06914 0.34631 0.58527 0.0
C209 C 0.07456 0.37062 0.51445 0.0
H210 H 0.08027 0.42533 0.38918 0.0
H211 H 0.07432 0.49771 0.39788 0.0
H212 H 0.04295 0.34347 0.85194 0.0
H213 H 0.05133 0.30647 0.73066 0.0
H214 H 0.06815 0.31283 0.58401 0.0
H215 H 0.07805 0.35569 0.45993 0.0
C216 C 0.51592 0.22366 0.19394 0.0
C217 C 0.51028 0.19933 0.26506 0.0
C218 C 0.4786 0.2458 0.32729 0.0
C219 C 0.49393 0.27625 0.26122 0.0
N220 N 0.52954 0.29526 0.13121 0.0
N221 N 0.45912 0.16955 0.38055 0.0
C222 C 0.51199 0.26485 0.19353 0.0
C223 C 0.48349 0.20496 0.32668 0.0
N224 N 0.52203 0.20551 0.12582 0.0
N225 N 0.46066 0.25673 0.39143 0.0
H226 H 0.45451 0.1359 0.37414 0.0
H227 H 0.43653 0.17025 0.42421 0.0
H228 H 0.45326 0.28429 0.3916 0.0
H229 H 0.45545 0.24012 0.44549 0.0
H230 H 0.52181 0.21894 0.07044 0.0
H231 H 0.52 0.17277 0.12403 0.0
H232 H 0.54954 0.29198 0.08583 0.0
H233 H 0.52787 0.32601 0.1269 0.0
C234 C 0.24014 0.49607 0.6642 0.0
C235 C 0.26965 0.5001 0.73264 0.0
C236 C 0.20192 0.49591 0.81088 0.0
C237 C 0.18169 0.50675 0.74424 0.0
N238 N 0.18808 0.52286 0.60427 0.0
N239 N 0.28128 0.51533 0.8741 0.0
C240 C 0.20148 0.50717 0.66932 0.0
C241 C 0.25092 0.50201 0.80733 0.0
N242 N 0.25019 0.48339 0.59392 0.0
N243 N 0.17593 0.48298 0.879 0.0
H244 H 0.31975 0.52646 0.87488 0.0
H245 H 0.26959 0.52074 0.92797 0.0
H246 H 0.13969 0.47802 0.88202 0.0
H247 H 0.18788 0.47209 0.92824 0.0
H248 H 0.22713 0.47632 0.54344 0.0
H249 H 0.27791 0.47465 0.58917 0.0
H250 H 0.20579 0.52817 0.55065 0.0
H251 H 0.16299 0.53483 0.60492 0.0
C252 C 0.7609 0.2587 0.37452 0.0
C253 C 0.73124 0.23252 0.30665 0.0
C254 C 0.79902 0.29466 0.22668 0.0
C255 C 0.8198 0.32644 0.29246 0.0
N256 N 0.81442 0.33803 0.43207 0.0
N257 N 0.71949 0.23373 0.16489 0.0
C258 C 0.80019 0.30813 0.36792 0.0
C259 C 0.74996 0.25195 0.23139 0.0
N260 N 0.75041 0.23693 0.44568 0.0
N261 N 0.82471 0.30684 0.15827 0.0
H262 H 0.68116 0.20607 0.16486 0.0
H263 H 0.73092 0.24992 0.11033 0.0
H264 H 0.86092 0.338 0.15434 0.0
H265 H 0.81254 0.28344 0.10974 0.0
H266 H 0.77357 0.25321 0.49595 0.0
H267 H 0.722 0.20081 0.45161 0.0
H268 H 0.79686 0.32661 0.48598 0.0
H269 H 0.8402 0.37491 0.4304 0.0
C270 C 0.50112 0.76144 0.68569 0.0
C271 C 0.51706 0.78773 0.75746 0.0
C272 C 0.50603 0.71678 0.82528 0.0
C273 C 0.48059 0.6885 0.75644 0.0
N274 N 0.4499 0.68357 0.62195 0.0
N275 N 0.55731 0.7969 0.88494 0.0
C276 C 0.47804 0.71084 0.68624 0.0
C277 C 0.52635 0.76741 0.82463 0.0
N278 N 0.50911 0.78549 0.61684 0.0
N279 N 0.5101 0.69505 0.8912 0.0
H280 H 0.57849 0.83422 0.8804 0.0
H281 H 0.56757 0.78519 0.93477 0.0
H282 H 0.49899 0.65898 0.89172 0.0
H283 H 0.52274 0.71193 0.9461 0.0
H284 H 0.50249 0.76919 0.56157 0.0
H285 H 0.52834 0.823 0.61578 0.0
H286 H 0.44216 0.69782 0.57272 0.0
H287 H 0.42981 0.64611 0.62026 0.0
C288 C 0.68396 0.46079 0.33305 0.0
C289 C 0.66846 0.46953 0.25822 0.0
C290 C 0.75631 0.50688 0.21458 0.0
C291 C 0.76879 0.48996 0.28274 0.0
N292 N 0.75468 0.47642 0.42076 0.0
N293 N 0.68947 0.49779 0.12534 0.0
C294 C 0.73568 0.47462 0.34653 0.0
C295 C 0.70459 0.49191 0.19838 0.0
N296 N 0.64892 0.43605 0.38939 0.0
N297 N 0.79432 0.54044 0.16907 0.0
H298 H 0.65253 0.48963 0.11213 0.0
H299 H 0.71296 0.50838 0.07704 0.0
H300 H 0.83289 0.55762 0.18652 0.0
H301 H 0.78765 0.55667 0.1216 0.0
H302 H 0.65711 0.42326 0.44007 0.0
H303 H 0.61052 0.42489 0.38401 0.0
H304 H 0.73387 0.47039 0.47125 0.0
H305 H 0.79355 0.49074 0.43243 0.0
C306 C 0.2993 0.78582 0.8419 0.0
C307 C 0.33549 0.80049 0.78199 0.0
C308 C 0.26829 0.74014 0.69153 0.0
C309 C 0.23478 0.72174 0.75486 0.0
N310 N 0.20959 0.74547 0.87057 0.0
N311 N 0.35532 0.78914 0.64957 0.0
C312 C 0.24744 0.75 0.82452 0.0
C313 C 0.32008 0.77769 0.70608 0.0
N314 N 0.31447 0.8051 0.91604 0.0
N315 N 0.2496 0.72393 0.61684 0.0
H316 H 0.39365 0.81643 0.6559 0.0
H317 H 0.3474 0.76925 0.59767 0.0
H318 H 0.21075 0.6997 0.60458 0.0
H319 H 0.27065 0.73914 0.56671 0.0
H320 H 0.29078 0.79142 0.96402 0.0
H321 H 0.35166 0.83305 0.93038 0.0
H322 H 0.21657 0.76745 0.91953 0.0
H323 H 0.17107 0.72531 0.85244 0.0
C324 C 0.51501 0.03279 0.97202 0.0
C325 C 0.48927 0.98178 0.96913 0.0
C326 C 0.49699 0.98085 0.11376 0.0
C327 C 0.52236 0.03159 0.11632 0.0
N328 N 0.54526 0.1052 0.05066 0.0
N329 N 0.44459 0.90676 0.03859 0.0
C330 C 0.52738 0.05716 0.0463 0.0
C331 C 0.4769 0.95565 0.04053 0.0
N332 N 0.5312 0.05834 0.90421 0.0
N333 N 0.49322 0.95686 0.18136 0.0
H334 H 0.42882 0.88703 0.98651 0.0
H335 H 0.42981 0.88614 0.08862 0.0
H336 H 0.50409 0.97405 0.23639 0.0
H337 H 0.48146 0.92068 0.18263 0.0
H338 H 0.55558 0.0956 0.90313 0.0
H339 H 0.52415 0.04225 0.84872 0.0
H340 H 0.5444 0.12476 1.00311 0.0
H341 H 0.55724 0.12481 0.10339 0.0
C342 C 0.45479 0.4145 0.50597 0.0
C343 C 0.44981 0.43421 0.43434 0.0
C344 C 0.39961 0.46131 0.50094 0.0
C345 C 0.41192 0.4489 0.57479 0.0
N346 N 0.45293 0.41509 0.64863 0.0
N347 N 0.41689 0.47537 0.36181 0.0
C348 C 0.43905 0.42491 0.57751 0.0
C349 C 0.42147 0.45682 0.43126 0.0
N350 N 0.47555 0.38663 0.50582 0.0
N351 N 0.36615 0.47659 0.49749 0.0
H352 H 0.42922 0.46946 0.3089 0.0
H353 H 0.40283 0.49795 0.35692 0.0
H354 H 0.3495 0.48012 0.54733 0.0
H355 H 0.35148 0.48179 0.44527 0.0
H356 H 0.47567 0.36722 0.55411 0.0
H357 H 0.48889 0.37949 0.45527 0.0
H358 H 0.47823 0.40339 0.65538 0.0
H359 H 0.44185 0.42168 0.70206 0.0
C360 C 0.05395 0.50989 1.00685 0.0
C361 C 0.0204 0.49623 0.93914 0.0
C362 C 0.94722 0.45581 0.02556 0.0
C363 C 0.9807 0.47604 0.09322 0.0
N364 N 0.06644 0.53095 0.14546 0.0
N365 N 0.93438 0.46399 0.88688 0.0
C366 C 0.03426 0.50533 0.08319 0.0
C367 C 0.96678 0.47114 0.94917 0.0
N368 N 0.10448 0.52574 0.99892 0.0
N369 N 0.89689 0.42067 0.03365 0.0
H370 H 0.947 0.47633 0.83057 0.0
H371 H 0.89547 0.45033 0.89301 0.0
H372 H 0.88095 0.40712 0.08787 0.0
H373 H 0.87237 0.40138 0.98602 0.0
H374 H 0.12905 0.53125 0.04665 0.0
H375 H 0.12063 0.52839 0.94483 0.0
H376 H 0.10518 0.55673 0.13927 0.0
H377 H 0.05371 0.53039 0.20181 0.0
C378 C 0.56446 0.99033 0.47119 0.0
C379 C 0.5918 0.04144 0.47436 0.0
C380 C 0.58201 0.03938 0.61787 0.0
C381 C 0.55369 0.98845 0.61431 0.0
N382 N 0.52787 0.91538 0.54203 0.0
N383 N 0.63737 0.11464 0.55221 0.0
C384 C 0.5487 0.96401 0.54243 0.0
C385 C 0.60394 0.06594 0.54839 0.0
N386 N 0.55027 0.96677 0.39993 0.0
N387 N 0.58661 0.06223 0.68761 0.0
H388 H 0.65414 0.13492 0.50253 0.0
H389 H 0.65186 0.13438 0.60457 0.0
H390 H 0.57435 0.04377 0.74029 0.0
H391 H 0.60073 0.09885 0.69299 0.0
H392 H 0.52469 0.92984 0.39305 0.0
H393 H 0.56118 0.98444 0.34653 0.0
H394 H 0.52798 0.89605 0.49361 0.0
H395 H 0.51422 0.89469 0.59227 0.0
C396 C 0.50472 0.48833 0.93571 0.0
C397 C 0.47954 0.51391 0.93294 0.0
C398 C 0.48778 0.5234 0.07721 0.0
C399 C 0.51308 0.49771 0.08024 0.0
N400 N 0.5572 0.4667 1.01076 0.0
N401 N 0.45773 0.56565 0.99796 0.0
C402 C 0.52506 0.48351 1.00887 0.0
C403 C 0.47513 0.53511 1.00273 0.0
N404 N 0.508 0.46755 0.86836 0.0
N405 N 0.47241 0.53359 0.14513 0.0
H406 H 0.4463 0.57363 0.945 0.0
H407 H 0.45872 0.58624 0.04536 0.0
H408 H 0.47985 0.52487 0.20066 0.0
H409 H 0.44847 0.54697 0.14637 0.0
H410 H 0.51948 0.4429 0.86744 0.0
H411 H 0.49697 0.47359 0.81321 0.0
H412 H 0.57177 0.46062 0.96068 0.0
H413 H 0.5731 0.46284 0.06276 0.0
C414 C 0.96891 0.56053 0.57933 0.0
C415 C 0.02238 0.58352 0.59252 0.0
C416 C 0.03527 0.59286 0.45083 0.0
C417 C 0.98169 0.56373 0.43769 0.0
N418 N 0.89932 0.54131 0.48612 0.0
N419 N 0.10561 0.64124 0.54403 0.0
C420 C 0.9491 0.55551 0.501 0.0
C421 C 0.05532 0.60706 0.52918 0.0
N422 N 0.93729 0.541 0.64116 0.0
N423 N 0.06665 0.60405 0.38888 0.0
H424 H 0.12004 0.6536 0.60093 0.0
H425 H 0.13097 0.66118 0.50016 0.0
H426 H 0.05207 0.59519 0.33103 0.0
H427 H 0.1062 0.62021 0.39518 0.0
H428 H 0.89762 0.51866 0.63466 0.0
H429 H 0.9517 0.54614 0.69905 0.0
H430 H 0.87435 0.53686 0.53005 0.0
H431 H 0.88522 0.53997 0.42921 0.0
loop_
_geom_bond_atom_site_label_1
_geom_bond_atom_site_label_2
_geom_bond_distance
_geom_bond_site_symmetry_2
_ccdc_geom_bond_type
Mn0 O5 2.095 . S
Mn0 O15 2.162 . S
Mn0 O16 2.297 . S
Mn0 O24 2.385 . S
Mn0 O25 2.209 . S
Mn0 O26 2.094 . S
Mn1 O6 2.121 . S
Mn1 N8 2.257 . S
Mn1 N17 2.282 . S
Mn1 O25 2.215 . S
Mn1 O27 2.117 . S
C2 O24 1.234 . S
C2 O25 1.283 . S
C3 O15 1.281 . S
C3 O16 1.236 . S
C4 O26 1.240 . S
C4 O27 1.264 . S
O5 Mn0 2.095 . S
O5 C14 1.250 . S
O6 Mn1 2.121 . S
O6 C14 1.258 . S
C7 N8 1.326 . S
C7 C11 1.460 . S
C7 H13 0.929 . S
N8 Mn1 2.257 . S
N8 C7 1.326 . S
N8 C12 1.362 . S
C9 C10 1.258 . S
C9 C12 1.431 . S
C9 C29 1.449 . S
C10 C9 1.258 . S
C10 C11 1.477 . S
C10 H30 0.931 . S
C11 C7 1.460 . S
C11 C10 1.477 . S
C11 H31 0.930 . S
C12 N8 1.362 . S
C12 C9 1.431 . S
C12 C22 1.476 . S
H13 C7 0.929 . S
C14 O5 1.250 . S
C14 O6 1.258 . S
O15 Mn0 2.162 . S
O15 C3 1.281 . S
O16 Mn0 2.297 . S
O16 C3 1.236 . S
N17 Mn1 2.282 . S
N17 C18 1.328 . S
N17 C22 1.318 . S
C18 N17 1.328 . S
C18 C19 1.457 . S
C18 H23 0.929 . S
C19 C18 1.457 . S
C19 C20 1.291 . S
C19 H32 0.931 . S
C20 C19 1.291 . S
C20 C21 1.373 . S
C20 H33 0.929 . S
C21 C20 1.373 . S
C21 C22 1.396 . S
C21 C28 1.403 . S
C22 C12 1.476 . S
C22 N17 1.318 . S
C22 C21 1.396 . S
H23 C18 0.929 . S
O24 Mn0 2.385 . S
O24 C2 1.234 . S
O25 Mn0 2.209 . S
O25 Mn1 2.215 . S
O25 C2 1.283 . S
O26 Mn0 2.094 . S
O26 C4 1.240 . S
O27 Mn1 2.117 . S
O27 C4 1.264 . S
C28 C21 1.403 . S
C28 C29 1.399 . S
C28 H34 0.929 . S
C29 C9 1.449 . S
C29 C28 1.399 . S
C29 H35 0.930 . S
H30 C10 0.931 . S
H31 C11 0.930 . S
H32 C19 0.931 . S
H33 C20 0.929 . S
H34 C28 0.929 . S
H35 C29 0.930 . S
Mn36 O41 2.095 . S
Mn36 O51 2.162 . S
Mn36 O52 2.297 . S
Mn36 O60 2.385 . S
Mn36 O61 2.209 . S
Mn36 O62 2.094 . S
Mn37 O42 2.121 . S
Mn37 N44 2.257 . S
Mn37 N53 2.282 . S
Mn37 O61 2.215 . S
Mn37 O63 2.117 . S
C38 O60 1.234 . S
C38 O61 1.283 . S
C39 O51 1.281 . S
C39 O52 1.236 . S
C40 O62 1.240 . S
C40 O63 1.264 . S
O41 Mn36 2.095 . S
O41 C50 1.250 . S
O42 Mn37 2.121 . S
O42 C50 1.258 . S
C43 N44 1.326 . S
C43 C47 1.460 . S
C43 H49 0.929 . S
N44 Mn37 2.257 . S
N44 C43 1.326 . S
N44 C48 1.362 . S
C45 C46 1.258 . S
C45 C48 1.431 . S
C45 C65 1.449 . S
C46 C45 1.258 . S
C46 C47 1.477 . S
C46 H66 0.931 . S
C47 C43 1.460 . S
C47 C46 1.477 . S
C47 H67 0.930 . S
C48 N44 1.362 . S
C48 C45 1.431 . S
C48 C58 1.476 . S
H49 C43 0.929 . S
C50 O41 1.250 . S
C50 O42 1.258 . S
O51 Mn36 2.162 . S
O51 C39 1.281 . S
O52 Mn36 2.297 . S
O52 C39 1.236 . S
N53 Mn37 2.282 . S
N53 C54 1.328 . S
N53 C58 1.318 . S
C54 N53 1.328 . S
C54 C55 1.457 . S
C54 H59 0.929 . S
C55 C54 1.457 . S
C55 C56 1.291 . S
C55 H68 0.931 . S
C56 C55 1.291 . S
C56 C57 1.373 . S
C56 H69 0.929 . S
C57 C56 1.373 . S
C57 C58 1.396 . S
C57 C64 1.403 . S
C58 C48 1.476 . S
C58 N53 1.318 . S
C58 C57 1.396 . S
H59 C54 0.929 . S
O60 Mn36 2.385 . S
O60 C38 1.234 . S
O61 Mn36 2.209 . S
O61 Mn37 2.215 . S
O61 C38 1.283 . S
O62 Mn36 2.094 . S
O62 C40 1.240 . S
O63 Mn37 2.117 . S
O63 C40 1.264 . S
C64 C57 1.403 . S
C64 C65 1.399 . S
C64 H70 0.929 . S
C65 C45 1.449 . S
C65 C64 1.399 . S
C65 H71 0.930 . S
H66 C46 0.931 . S
H67 C47 0.930 . S
H68 C55 0.931 . S
H69 C56 0.929 . S
H70 C64 0.929 . S
H71 C65 0.930 . S
Mn72 O77 2.095 . S
Mn72 O87 2.162 . S
Mn72 O88 2.297 . S
Mn72 O96 2.385 . S
Mn72 O97 2.209 . S
Mn72 O98 2.094 . S
Mn73 O78 2.121 . S
Mn73 N80 2.257 . S
Mn73 N89 2.282 . S
Mn73 O97 2.215 . S
Mn73 O99 2.117 . S
C74 O96 1.234 . S
C74 O97 1.283 . S
C75 O87 1.281 . S
C75 O88 1.236 . S
C76 O98 1.240 . S
C76 O99 1.264 . S
O77 Mn72 2.095 . S
O77 C86 1.250 . S
O78 Mn73 2.121 . S
O78 C86 1.258 . S
C79 N80 1.326 . S
C79 C83 1.460 . S
C79 H85 0.929 . S
N80 Mn73 2.257 . S
N80 C79 1.326 . S
N80 C84 1.362 . S
C81 C82 1.258 . S
C81 C84 1.431 . S
C81 C101 1.449 . S
C82 C81 1.258 . S
C82 C83 1.477 . S
C82 H102 0.931 . S
C83 C79 1.460 . S
C83 C82 1.477 . S
C83 H103 0.930 . S
C84 N80 1.362 . S
C84 C81 1.431 . S
C84 C94 1.476 . S
H85 C79 0.929 . S
C86 O77 1.250 . S
C86 O78 1.258 . S
O87 Mn72 2.162 . S
O87 C75 1.281 . S
O88 Mn72 2.297 . S
O88 C75 1.236 . S
N89 Mn73 2.282 . S
N89 C90 1.328 . S
N89 C94 1.318 . S
C90 N89 1.328 . S
C90 C91 1.457 . S
C90 H95 0.929 . S
C91 C90 1.457 . S
C91 C92 1.291 . S
C91 H104 0.931 . S
C92 C91 1.291 . S
C92 C93 1.373 . S
C92 H105 0.929 . S
C93 C92 1.373 . S
C93 C94 1.396 . S
C93 C100 1.403 . S
C94 C84 1.476 . S
C94 N89 1.318 . S
C94 C93 1.396 . S
H95 C90 0.929 . S
O96 Mn72 2.385 . S
O96 C74 1.234 . S
O97 Mn72 2.209 . S
O97 Mn73 2.215 . S
O97 C74 1.283 . S
O98 Mn72 2.094 . S
O98 C76 1.240 . S
O99 Mn73 2.117 . S
O99 C76 1.264 . S
C100 C93 1.403 . S
C100 C101 1.399 . S
C100 H106 0.929 . S
C101 C81 1.449 . S
C101 C100 1.399 . S
C101 H107 0.930 . S
H102 C82 0.931 . S
H103 C83 0.930 . S
H104 C91 0.931 . S
H105 C92 0.929 . S
H106 C100 0.929 . S
H107 C101 0.930 . S
Mn108 O113 2.095 . S
Mn108 O123 2.162 . S
Mn108 O124 2.297 . S
Mn108 O132 2.385 . S
Mn108 O133 2.209 . S
Mn108 O134 2.094 . S
Mn109 O114 2.121 . S
Mn109 N116 2.257 . S
Mn109 N125 2.282 . S
Mn109 O133 2.215 . S
Mn109 O135 2.117 . S
C110 O132 1.234 . S
C110 O133 1.283 . S
C111 O123 1.281 . S
C111 O124 1.236 . S
C112 O134 1.240 . S
C112 O135 1.264 . S
O113 Mn108 2.095 . S
O113 C122 1.250 . S
O114 Mn109 2.121 . S
O114 C122 1.258 . S
C115 N116 1.326 . S
C115 C119 1.460 . S
C115 H121 0.929 . S
N116 Mn109 2.257 . S
N116 C115 1.326 . S
N116 C120 1.362 . S
C117 C118 1.258 . S
C117 C120 1.431 . S
C117 C137 1.449 . S
C118 C117 1.258 . S
C118 C119 1.477 . S
C118 H138 0.931 . S
C119 C115 1.460 . S
C119 C118 1.477 . S
C119 H139 0.930 . S
C120 N116 1.362 . S
C120 C117 1.431 . S
C120 C130 1.476 . S
H121 C115 0.929 . S
C122 O113 1.250 . S
C122 O114 1.258 . S
O123 Mn108 2.162 . S
O123 C111 1.281 . S
O124 Mn108 2.297 . S
O124 C111 1.236 . S
N125 Mn109 2.282 . S
N125 C126 1.328 . S
N125 C130 1.318 . S
C126 N125 1.328 . S
C126 C127 1.457 . S
C126 H131 0.929 . S
C127 C126 1.457 . S
C127 C128 1.291 . S
C127 H140 0.931 . S
C128 C127 1.291 . S
C128 C129 1.373 . S
C128 H141 0.929 . S
C129 C128 1.373 . S
C129 C130 1.396 . S
C129 C136 1.403 . S
C130 C120 1.476 . S
C130 N125 1.318 . S
C130 C129 1.396 . S
H131 C126 0.929 . S
O132 Mn108 2.385 . S
O132 C110 1.234 . S
O133 Mn108 2.209 . S
O133 Mn109 2.215 . S
O133 C110 1.283 . S
O134 Mn108 2.094 . S
O134 C112 1.240 . S
O135 Mn109 2.117 . S
O135 C112 1.264 . S
C136 C129 1.403 . S
C136 C137 1.399 . S
C136 H142 0.929 . S
C137 C117 1.449 . S
C137 C136 1.399 . S
C137 H143 0.930 . S
H138 C118 0.931 . S
H139 C119 0.930 . S
H140 C127 0.931 . S
H141 C128 0.929 . S
H142 C136 0.929 . S
H143 C137 0.930 . S
Mn144 O149 2.095 . S
Mn144 O159 2.162 . S
Mn144 O160 2.297 . S
Mn144 O168 2.385 . S
Mn144 O169 2.209 . S
Mn144 O170 2.094 . S
Mn145 O150 2.121 . S
Mn145 N152 2.257 . S
Mn145 N161 2.282 . S
Mn145 O169 2.215 . S
Mn145 O171 2.117 . S
C146 O168 1.234 . S
C146 O169 1.283 . S
C147 O159 1.281 . S
C147 O160 1.236 . S
C148 O170 1.240 . S
C148 O171 1.264 . S
O149 Mn144 2.095 . S
O149 C158 1.250 . S
O150 Mn145 2.121 . S
O150 C158 1.258 . S
C151 N152 1.326 . S
C151 C155 1.460 . S
C151 H157 0.929 . S
N152 Mn145 2.257 . S
N152 C151 1.326 . S
N152 C156 1.362 . S
C153 C154 1.258 . S
C153 C156 1.431 . S
C153 C173 1.449 . S
C154 C153 1.258 . S
C154 C155 1.477 . S
C154 H174 0.931 . S
C155 C151 1.460 . S
C155 C154 1.477 . S
C155 H175 0.930 . S
C156 N152 1.362 . S
C156 C153 1.431 . S
C156 C166 1.476 . S
H157 C151 0.929 . S
C158 O149 1.250 . S
C158 O150 1.258 . S
O159 Mn144 2.162 . S
O159 C147 1.281 . S
O160 Mn144 2.297 . S
O160 C147 1.236 . S
N161 Mn145 2.282 . S
N161 C162 1.328 . S
N161 C166 1.318 . S
C162 N161 1.328 . S
C162 C163 1.457 . S
C162 H167 0.929 . S
C163 C162 1.457 . S
C163 C164 1.291 . S
C163 H176 0.931 . S
C164 C163 1.291 . S
C164 C165 1.373 . S
C164 H177 0.929 . S
C165 C164 1.373 . S
C165 C166 1.396 . S
C165 C172 1.403 . S
C166 C156 1.476 . S
C166 N161 1.318 . S
C166 C165 1.396 . S
H167 C162 0.929 . S
O168 Mn144 2.385 . S
O168 C146 1.234 . S
O169 Mn144 2.209 . S
O169 Mn145 2.215 . S
O169 C146 1.283 . S
O170 Mn144 2.094 . S
O170 C148 1.240 . S
O171 Mn145 2.117 . S
O171 C148 1.264 . S
C172 C165 1.403 . S
C172 C173 1.399 . S
C172 H178 0.929 . S
C173 C153 1.449 . S
C173 C172 1.399 . S
C173 H179 0.930 . S
H174 C154 0.931 . S
H175 C155 0.930 . S
H176 C163 0.931 . S
H177 C164 0.929 . S
H178 C172 0.929 . S
H179 C173 0.930 . S
Mn180 O185 2.095 . S
Mn180 O195 2.162 . S
Mn180 O196 2.297 . S
Mn180 O204 2.385 . S
Mn180 O205 2.209 . S
Mn180 O206 2.094 . S
Mn181 O186 2.121 . S
Mn181 N188 2.257 . S
Mn181 N197 2.282 . S
Mn181 O205 2.215 . S
Mn181 O207 2.117 . S
C182 O204 1.234 . S
C182 O205 1.283 . S
C183 O195 1.281 . S
C183 O196 1.236 . S
C184 O206 1.240 . S
C184 O207 1.264 . S
O185 Mn180 2.095 . S
O185 C194 1.250 . S
O186 Mn181 2.121 . S
O186 C194 1.258 . S
C187 N188 1.326 . S
C187 C191 1.460 . S
C187 H193 0.929 . S
N188 Mn181 2.257 . S
N188 C187 1.326 . S
N188 C192 1.362 . S
C189 C190 1.258 . S
C189 C192 1.431 . S
C189 C209 1.449 . S
C190 C189 1.258 . S
C190 C191 1.477 . S
C190 H210 0.931 . S
C191 C187 1.460 . S
C191 C190 1.477 . S
C191 H211 0.930 . S
C192 N188 1.362 . S
C192 C189 1.431 . S
C192 C202 1.476 . S
H193 C187 0.929 . S
C194 O185 1.250 . S
C194 O186 1.258 . S
O195 Mn180 2.162 . S
O195 C183 1.281 . S
O196 Mn180 2.297 . S
O196 C183 1.236 . S
N197 Mn181 2.282 . S
N197 C198 1.328 . S
N197 C202 1.318 . S
C198 N197 1.328 . S
C198 C199 1.457 . S
C198 H203 0.929 . S
C199 C198 1.457 . S
C199 C200 1.291 . S
C199 H212 0.931 . S
C200 C199 1.291 . S
C200 C201 1.373 . S
C200 H213 0.929 . S
C201 C200 1.373 . S
C201 C202 1.396 . S
C201 C208 1.403 . S
C202 C192 1.476 . S
C202 N197 1.318 . S
C202 C201 1.396 . S
H203 C198 0.929 . S
O204 Mn180 2.385 . S
O204 C182 1.234 . S
O205 Mn180 2.209 . S
O205 Mn181 2.215 . S
O205 C182 1.283 . S
O206 Mn180 2.094 . S
O206 C184 1.240 . S
O207 Mn181 2.117 . S
O207 C184 1.264 . S
C208 C201 1.403 . S
C208 C209 1.399 . S
C208 H214 0.929 . S
C209 C189 1.449 . S
C209 C208 1.399 . S
C209 H215 0.930 . S
H210 C190 0.931 . S
H211 C191 0.930 . S
H212 C199 0.931 . S
H213 C200 0.929 . S
H214 C208 0.929 . S
H215 C209 0.930 . S
C216 C217 1.363 . S
C216 C222 1.379 . S
C216 N224 1.356 . S
C217 C216 1.363 . S
C217 C223 1.363 . S
C218 C219 1.363 . S
C218 C223 1.379 . S
C218 N225 1.356 . S
C219 C218 1.363 . S
C219 C222 1.363 . S
N220 C222 1.356 . S
N220 H232 0.984 . S
N220 H233 0.985 . S
N221 C223 1.356 . S
N221 H226 0.984 . S
N221 H227 0.985 . S
C222 C216 1.379 . S
C222 C219 1.363 . S
C222 N220 1.356 . S
C223 C217 1.363 . S
C223 C218 1.379 . S
C223 N221 1.356 . S
N224 C216 1.356 . S
N224 H230 0.984 . S
N224 H231 0.984 . S
N225 C218 1.356 . S
N225 H228 0.984 . S
N225 H229 0.985 . S
H226 N221 0.984 . S
H227 N221 0.985 . S
H228 N225 0.984 . S
H229 N225 0.985 . S
H230 N224 0.984 . S
H231 N224 0.984 . S
H232 N220 0.984 . S
H233 N220 0.985 . S
C234 C235 1.363 . S
C234 C240 1.379 . S
C234 N242 1.356 . S
C235 C234 1.363 . S
C235 C241 1.363 . S
C236 C237 1.363 . S
C236 C241 1.379 . S
C236 N243 1.356 . S
C237 C236 1.363 . S
C237 C240 1.363 . S
N238 C240 1.356 . S
N238 H250 0.984 . S
N238 H251 0.985 . S
N239 C241 1.356 . S
N239 H244 0.984 . S
N239 H245 0.985 . S
C240 C234 1.379 . S
C240 C237 1.363 . S
C240 N238 1.356 . S
C241 C235 1.363 . S
C241 C236 1.379 . S
C241 N239 1.356 . S
N242 C234 1.356 . S
N242 H248 0.984 . S
N242 H249 0.984 . S
N243 C236 1.356 . S
N243 H246 0.984 . S
N243 H247 0.985 . S
H244 N239 0.984 . S
H245 N239 0.985 . S
H246 N243 0.984 . S
H247 N243 0.985 . S
H248 N242 0.984 . S
H249 N242 0.984 . S
H250 N238 0.984 . S
H251 N238 0.985 . S
C252 C253 1.363 . S
C252 C258 1.379 . S
C252 N260 1.356 . S
C253 C252 1.363 . S
C253 C259 1.363 . S
C254 C255 1.363 . S
C254 C259 1.379 . S
C254 N261 1.356 . S
C255 C254 1.363 . S
C255 C258 1.363 . S
N256 C258 1.356 . S
N256 H268 0.984 . S
N256 H269 0.985 . S
N257 C259 1.356 . S
N257 H262 0.984 . S
N257 H263 0.985 . S
C258 C252 1.379 . S
C258 C255 1.363 . S
C258 N256 1.356 . S
C259 C253 1.363 . S
C259 C254 1.379 . S
C259 N257 1.356 . S
N260 C252 1.356 . S
N260 H266 0.984 . S
N260 H267 0.984 . S
N261 C254 1.356 . S
N261 H264 0.984 . S
N261 H265 0.985 . S
H262 N257 0.984 . S
H263 N257 0.985 . S
H264 N261 0.984 . S
H265 N261 0.985 . S
H266 N260 0.984 . S
H267 N260 0.984 . S
H268 N256 0.984 . S
H269 N256 0.985 . S
C270 C271 1.363 . S
C270 C276 1.379 . S
C270 N278 1.356 . S
C271 C270 1.363 . S
C271 C277 1.363 . S
C272 C273 1.363 . S
C272 C277 1.379 . S
C272 N279 1.356 . S
C273 C272 1.363 . S
C273 C276 1.363 . S
N274 C276 1.356 . S
N274 H286 0.984 . S
N274 H287 0.985 . S
N275 C277 1.356 . S
N275 H280 0.984 . S
N275 H281 0.985 . S
C276 C270 1.379 . S
C276 C273 1.363 . S
C276 N274 1.356 . S
C277 C271 1.363 . S
C277 C272 1.379 . S
C277 N275 1.356 . S
N278 C270 1.356 . S
N278 H284 0.984 . S
N278 H285 0.984 . S
N279 C272 1.356 . S
N279 H282 0.984 . S
N279 H283 0.985 . S
H280 N275 0.984 . S
H281 N275 0.985 . S
H282 N279 0.984 . S
H283 N279 0.985 . S
H284 N278 0.984 . S
H285 N278 0.984 . S
H286 N274 0.984 . S
H287 N274 0.985 . S
C288 C289 1.363 . S
C288 C294 1.379 . S
C288 N296 1.356 . S
C289 C288 1.363 . S
C289 C295 1.363 . S
C290 C291 1.363 . S
C290 C295 1.379 . S
C290 N297 1.356 . S
C291 C290 1.363 . S
C291 C294 1.363 . S
N292 C294 1.356 . S
N292 H304 0.984 . S
N292 H305 0.985 . S
N293 C295 1.356 . S
N293 H298 0.984 . S
N293 H299 0.985 . S
C294 C288 1.379 . S
C294 C291 1.363 . S
C294 N292 1.356 . S
C295 C289 1.363 . S
C295 C290 1.379 . S
C295 N293 1.356 . S
N296 C288 1.356 . S
N296 H302 0.984 . S
N296 H303 0.984 . S
N297 C290 1.356 . S
N297 H300 0.984 . S
N297 H301 0.985 . S
H298 N293 0.984 . S
H299 N293 0.985 . S
H300 N297 0.984 . S
H301 N297 0.985 . S
H302 N296 0.984 . S
H303 N296 0.984 . S
H304 N292 0.984 . S
H305 N292 0.985 . S
C306 C307 1.363 . S
C306 C312 1.379 . S
C306 N314 1.356 . S
C307 C306 1.363 . S
C307 C313 1.363 . S
C308 C309 1.363 . S
C308 C313 1.379 . S
C308 N315 1.356 . S
C309 C308 1.363 . S
C309 C312 1.363 . S
N310 C312 1.356 . S
N310 H322 0.984 . S
N310 H323 0.985 . S
N311 C313 1.356 . S
N311 H316 0.984 . S
N311 H317 0.985 . S
C312 C306 1.379 . S
C312 C309 1.363 . S
C312 N310 1.356 . S
C313 C307 1.363 . S
C313 C308 1.379 . S
C313 N311 1.356 . S
N314 C306 1.356 . S
N314 H320 0.984 . S
N314 H321 0.984 . S
N315 C308 1.356 . S
N315 H318 0.984 . S
N315 H319 0.985 . S
H316 N311 0.984 . S
H317 N311 0.985 . S
H318 N315 0.984 . S
H319 N315 0.985 . S
H320 N314 0.984 . S
H321 N314 0.984 . S
H322 N310 0.984 . S
H323 N310 0.985 . S
C324 C325 1.363 1_545 S
C324 C330 1.379 1_556 S
C324 N332 1.356 . S
C325 C324 1.363 1_565 S
C325 C331 1.363 . S
C326 C327 1.363 1_565 S
C326 C331 1.379 1_554 S
C326 N333 1.356 . S
C327 C326 1.363 1_545 S
C327 C330 1.363 . S
N328 C330 1.356 . S
N328 H340 0.984 . S
N328 H341 0.985 . S
N329 C331 1.356 . S
N329 H334 0.984 . S
N329 H335 0.985 . S
C330 C324 1.379 1_554 S
C330 C327 1.363 . S
C330 N328 1.356 . S
C331 C325 1.363 . S
C331 C326 1.379 1_556 S
C331 N329 1.356 . S
N332 C324 1.356 . S
N332 H338 0.984 . S
N332 H339 0.984 . S
N333 C326 1.356 . S
N333 H336 0.984 1_565 S
N333 H337 0.985 . S
H334 N329 0.984 . S
H335 N329 0.985 . S
H336 N333 0.984 1_545 S
H337 N333 0.985 . S
H338 N332 0.984 . S
H339 N332 0.984 . S
H340 N328 0.984 . S
H341 N328 0.985 . S
C342 C343 1.363 . S
C342 C348 1.379 . S
C342 N350 1.356 . S
C343 C342 1.363 . S
C343 C349 1.363 . S
C344 C345 1.363 . S
C344 C349 1.379 . S
C344 N351 1.356 . S
C345 C344 1.363 . S
C345 C348 1.363 . S
N346 C348 1.356 . S
N346 H358 0.984 . S
N346 H359 0.985 . S
N347 C349 1.356 . S
N347 H352 0.984 . S
N347 H353 0.985 . S
C348 C342 1.379 . S
C348 C345 1.363 . S
C348 N346 1.356 . S
C349 C343 1.363 . S
C349 C344 1.379 . S
C349 N347 1.356 . S
N350 C342 1.356 . S
N350 H356 0.984 . S
N350 H357 0.984 . S
N351 C344 1.356 . S
N351 H354 0.984 . S
N351 H355 0.985 . S
H352 N347 0.984 . S
H353 N347 0.985 . S
H354 N351 0.984 . S
H355 N351 0.985 . S
H356 N350 0.984 . S
H357 N350 0.984 . S
H358 N346 0.984 . S
H359 N346 0.985 . S
C360 C361 1.363 . S
C360 C366 1.379 1_556 S
C360 N368 1.356 . S
C361 C360 1.363 . S
C361 C367 1.363 1_455 S
C362 C363 1.363 . S
C362 C367 1.379 1_554 S
C362 N369 1.356 . S
C363 C362 1.363 . S
C363 C366 1.363 1_655 S
N364 C366 1.356 . S
N364 H376 0.984 . S
N364 H377 0.985 . S
N365 C367 1.356 . S
N365 H370 0.984 . S
N365 H371 0.985 . S
C366 C360 1.379 1_554 S
C366 C363 1.363 1_455 S
C366 N364 1.356 . S
C367 C361 1.363 1_655 S
C367 C362 1.379 1_556 S
C367 N365 1.356 . S
N368 C360 1.356 . S
N368 H374 0.984 1_556 S
N368 H375 0.984 . S
N369 C362 1.356 . S
N369 H372 0.984 . S
N369 H373 0.985 1_554 S
H370 N365 0.984 . S
H371 N365 0.985 . S
H372 N369 0.984 . S
H373 N369 0.985 1_556 S
H374 N368 0.984 1_554 S
H375 N368 0.984 . S
H376 N364 0.984 . S
H377 N364 0.985 . S
C378 C379 1.363 . S
C378 C384 1.379 1_545 S
C378 N386 1.356 . S
C379 C378 1.363 . S
C379 C385 1.363 . S
C380 C381 1.363 . S
C380 C385 1.375 1_565 S
C380 N387 1.361 . S
C381 C380 1.363 . S
C381 C384 1.363 . S
N382 C384 1.356 . S
N382 H394 0.984 . S
N382 H395 0.985 . S
N383 C385 1.356 . S
N383 H388 0.984 . S
N383 H389 0.985 . S
C384 C378 1.379 1_565 S
C384 C381 1.363 . S
C384 N382 1.356 . S
C385 C379 1.363 . S
C385 C380 1.375 1_545 S
C385 N383 1.356 . S
N386 C378 1.356 . S
N386 H392 0.984 . S
N386 H393 0.984 . S
N387 C380 1.361 . S
N387 H390 0.984 . S
N387 H391 0.985 . S
H388 N383 0.984 . S
H389 N383 0.985 . S
H390 N387 0.984 . S
H391 N387 0.985 . S
H392 N386 0.984 . S
H393 N386 0.984 . S
H394 N382 0.984 . S
H395 N382 0.985 . S
C396 C397 1.363 . S
C396 C402 1.379 1_556 S
C396 N404 1.356 . S
C397 C396 1.363 . S
C397 C403 1.363 . S
C398 C399 1.363 . S
C398 C403 1.379 1_554 S
C398 N405 1.356 . S
C399 C398 1.363 . S
C399 C402 1.363 . S
N400 C402 1.356 . S
N400 H412 0.984 . S
N400 H413 0.985 . S
N401 C403 1.356 . S
N401 H406 0.984 . S
N401 H407 0.985 . S
C402 C396 1.379 1_554 S
C402 C399 1.363 . S
C402 N400 1.356 . S
C403 C397 1.363 . S
C403 C398 1.379 1_556 S
C403 N401 1.356 . S
N404 C396 1.356 . S
N404 H410 0.984 . S
N404 H411 0.984 . S
N405 C398 1.356 . S
N405 H408 0.984 . S
N405 H409 0.985 . S
H406 N401 0.984 . S
H407 N401 0.985 . S
H408 N405 0.984 . S
H409 N405 0.985 . S
H410 N404 0.984 . S
H411 N404 0.984 . S
H412 N400 0.984 . S
H413 N400 0.985 . S
C414 C415 1.363 1_655 S
C414 C420 1.379 . S
C414 N422 1.356 . S
C415 C414 1.363 1_455 S
C415 C421 1.363 . S
C416 C417 1.363 1_455 S
C416 C421 1.379 . S
C416 N423 1.356 . S
C417 C416 1.363 1_655 S
C417 C420 1.363 . S
N418 C420 1.356 . S
N418 H430 0.984 . S
N418 H431 0.985 . S
N419 C421 1.356 . S
N419 H424 0.984 . S
N419 H425 0.985 . S
C420 C414 1.379 . S
C420 C417 1.363 . S
C420 N418 1.356 . S
C421 C415 1.363 . S
C421 C416 1.379 . S
C421 N419 1.356 . S
N422 C414 1.356 . S
N422 H428 0.984 . S
N422 H429 0.984 1_655 S
N423 C416 1.356 . S
N423 H426 0.984 1_455 S
N423 H427 0.985 . S
H424 N419 0.984 . S
H425 N419 0.985 . S
H426 N423 0.984 1_655 S
H427 N423 0.985 . S
H428 N422 0.984 . S
H429 N422 0.984 1_455 S
H430 N418 0.984 . S
H431 N418 0.985 . S
C217 C3 1.259 . S
C219 C147 1.234 . S
C235 C38 1.258 . S
C237 C182 1.260 . S
C253 C2 1.258 . S
C255 C74 1.260 . S
C271 C111 1.234 . S
C273 C39 1.259 . S
C289 C146 1.258 . S
C291 C75 1.240 . S
C307 C110 1.258 . S
C309 C183 1.240 . S
C325 C112 1.423 . S
C327 C14 1.364 . S
C343 C158 1.366 . S
C345 C40 1.438 . S
C361 C184 1.454 . S
C363 C76 1.454 . S
C379 C4 1.438 . S
C381 C122 1.366 . S
C397 C50 1.364 . S
C399 C148 1.423 . S
C415 C194 1.370 . S
C417 C86 1.370 . S
