# Generated by pormake.
# Topology umx, (4)-cn, num edge types: 1
# Building blocks:
#     Node 0, Type 0, BuildingBlock: GALJAG_clean_sbu_0, # of connection points: 4
#     Node 1, Type 0, BuildingBlock: GALJAG_clean_sbu_0, # of connection points: 4
#     Node 2, Type 0, BuildingBlock: GALJAG_clean_sbu_0, # of connection points: 4
#     Node 3, Type 0, BuildingBlock: GALJAG_clean_sbu_0, # of connection points: 4
#     Node 4, Type 0, BuildingBlock: GALJAG_clean_sbu_0, # of connection points: 4
#     Node 5, Type 0, BuildingBlock: GALJAG_clean_sbu_0, # of connection points: 4
#     Node 6, Type 0, BuildingBlock: GALJAG_clean_sbu_0, # of connection points: 4
#     Node 7, Type 0, BuildingBlock: GALJAG_clean_sbu_0, # of connection points: 4
#     Edge 8, Type (0, 0), BuildingBlock: ZUJKAS_clean_linker_0, # of connection points: 2
#     Edge 9, Type (0, 0), BuildingBlock: ZUJKAS_clean_linker_0, # of connection points: 2
#     Edge 10, Type (0, 0), BuildingBlock: ZUJKAS_clean_linker_0, # of connection points: 2
#     Edge 11, Type (0, 0), BuildingBlock: ZUJKAS_clean_linker_0, # of connection points: 2
#     Edge 12, Type (0, 0), BuildingBlock: ZUJKAS_clean_linker_0, # of connection points: 2
#     Edge 13, Type (0, 0), BuildingBlock: ZUJKAS_clean_linker_0, # of connection points: 2
#     Edge 14, Type (0, 0), BuildingBlock: ZUJKAS_clean_linker_0, # of connection points: 2
#     Edge 15, Type (0, 0), BuildingBlock: ZUJKAS_clean_linker_0, # of connection points: 2
#     Edge 16, Type (0, 0), BuildingBlock: ZUJKAS_clean_linker_0, # of connection points: 2
#     Edge 17, Type (0, 0), BuildingBlock: ZUJKAS_clean_linker_0, # of connection points: 2
#     Edge 18, Type (0, 0), BuildingBlock: ZUJKAS_clean_linker_0, # of connection points: 2
#     Edge 19, Type (0, 0), BuildingBlock: ZUJKAS_clean_linker_0, # of connection points: 2
#     Edge 20, Type (0, 0), BuildingBlock: ZUJKAS_clean_linker_0, # of connection points: 2
#     Edge 21, Type (0, 0), BuildingBlock: ZUJKAS_clean_linker_0, # of connection points: 2
#     Edge 22, Type (0, 0), BuildingBlock: ZUJKAS_clean_linker_0, # of connection points: 2
#     Edge 23, Type (0, 0), BuildingBlock: ZUJKAS_clean_linker_0, # of connection points: 2
# Relax obj value: 0.096
# Max RMSD: 0.176
# Mean RMSD: 0.176
data_MOF--net-umx--node1-GALJAG_clean_sbu_0--edge1-ZUJKAS_clean_linker_0
_symmetry_space_group_name_H-M    P1
_symmetry_Int_Tables_number       1
_symmetry_cell_setting            triclinic
loop_
_symmetry_equiv_pos_as_xyz
'x, y, z'
_cell_length_a     50.059743
_cell_length_b     50.065043
_cell_length_c     37.209045
_cell_angle_alpha  89.971259
_cell_angle_beta   89.963667
_cell_angle_gamma 89.999376
loop_
_atom_site_label
_atom_site_type_symbol
_atom_site_fract_x
_atom_site_fract_y
_atom_site_fract_z
_atom_type_partial_charge
In0 In 0.1857 0.4459 0.02851 0.0
O1 O 0.21097 0.47047 0.06819 0.0
O2 O 0.1759 0.45121 0.0874 0.0
C3 C 0.2061 0.45922 0.96365 0.0
C4 C 0.20559 0.39669 0.0383 0.0
C5 C 0.13377 0.45771 0.01889 0.0
O6 O 0.20508 0.47577 0.98926 0.0
O7 O 0.19726 0.43634 0.97108 0.0
O8 O 0.14186 0.43414 0.02412 0.0
O9 O 0.1519 0.47521 0.01829 0.0
C10 C 0.19596 0.46541 0.0947 0.0
O11 O 0.1816 0.40051 0.02904 0.0
O12 O 0.21926 0.41764 0.0426 0.0
In13 In 0.54051 0.19283 0.53735 0.0
O14 O 0.5846 0.18334 0.52881 0.0
O15 O 0.57442 0.21837 0.55824 0.0
C16 C 0.5278 0.14127 0.52628 0.0
C17 C 0.52103 0.2044 0.60331 0.0
C18 C 0.52636 0.21796 0.47572 0.0
O19 O 0.55085 0.14865 0.53574 0.0
O20 O 0.51122 0.15997 0.52187 0.0
O21 O 0.50939 0.2117 0.49937 0.0
O22 O 0.55006 0.21212 0.48363 0.0
C23 C 0.59267 0.20376 0.5455 0.0
O24 O 0.52305 0.222 0.57913 0.0
O25 O 0.52811 0.18135 0.59377 0.0
In26 In 0.80405 0.53877 0.03596 0.0
O27 O 0.77877 0.51616 0.0777 0.0
O28 O 0.81252 0.53819 0.09567 0.0
C29 C 0.78448 0.52137 0.97246 0.0
C30 C 0.78421 0.58848 0.03911 0.0
C31 C 0.85604 0.52637 0.0281 0.0
O32 O 0.78474 0.50666 1.00007 0.0
O33 O 0.79363 0.54451 0.97726 0.0
O34 O 0.84783 0.55018 0.02951 0.0
O35 O 0.83803 0.50885 0.03067 0.0
C36 C 0.79288 0.52369 0.10399 0.0
O37 O 0.80855 0.58398 0.03239 0.0
O38 O 0.77011 0.56792 0.04435 0.0
In39 In 0.44508 0.81192 0.51861 0.0
O40 O 0.47521 0.79391 0.55877 0.0
O41 O 0.43517 0.79969 0.57575 0.0
C42 C 0.46577 0.80048 0.45337 0.0
C43 C 0.39528 0.79347 0.50902 0.0
C44 C 0.45613 0.86423 0.52599 0.0
O45 O 0.46937 0.78528 0.48011 0.0
O46 O 0.45235 0.82119 0.45997 0.0
O47 O 0.43301 0.85576 0.51877 0.0
O48 O 0.47358 0.84628 0.52993 0.0
C49 C 0.45834 0.79208 0.58392 0.0
O50 O 0.39986 0.81665 0.52093 0.0
O51 O 0.4158 0.77976 0.50198 0.0
In52 In 0.18576 0.54862 0.53144 0.0
O53 O 0.21064 0.52466 0.4905 0.0
O54 O 0.18015 0.55054 0.47128 0.0
C55 C 0.20272 0.53232 0.59657 0.0
C56 C 0.20627 0.59808 0.53013 0.0
C57 C 0.13436 0.53361 0.53703 0.0
O58 O 0.20795 0.51921 0.56835 0.0
O59 O 0.1892 0.55324 0.5916 0.0
O60 O 0.14147 0.55781 0.53786 0.0
O61 O 0.15318 0.51707 0.5333 0.0
C62 C 0.19849 0.53428 0.46363 0.0
O63 O 0.18141 0.59391 0.52828 0.0
O64 O 0.22053 0.57736 0.53248 0.0
In65 In 0.45199 0.18879 0.04308 0.0
O66 O 0.40668 0.18314 0.04335 0.0
O67 O 0.42234 0.22162 0.03106 0.0
C68 C 0.46757 0.1377 0.05057 0.0
C69 C 0.47034 0.1999 0.97664 0.0
C70 C 0.46486 0.20878 0.10813 0.0
O71 O 0.4434 0.14425 0.04641 0.0
O72 O 0.48384 0.15697 0.05121 0.0
O73 O 0.47944 0.21263 0.08085 0.0
O74 O 0.44421 0.1951 0.10231 0.0
C75 C 0.40193 0.20718 0.03525 0.0
O76 O 0.47565 0.21471 0.00322 0.0
O77 O 0.45632 0.17969 0.98392 0.0
In78 In 0.80871 0.43677 0.53851 0.0
O79 O 0.78314 0.46193 0.49978 0.0
O80 O 0.81609 0.44006 0.47886 0.0
C81 C 0.7903 0.44852 0.60482 0.0
C82 C 0.78883 0.38747 0.53008 0.0
C83 C 0.86013 0.45141 0.54521 0.0
O84 O 0.7877 0.46462 0.57883 0.0
O85 O 0.80186 0.42693 0.59708 0.0
O86 O 0.85319 0.42734 0.54113 0.0
O87 O 0.84112 0.46795 0.54618 0.0
C88 C 0.79666 0.45533 0.47244 0.0
O89 O 0.81339 0.39147 0.53586 0.0
O90 O 0.77462 0.40829 0.5286 0.0
In91 In 0.54821 0.80915 0.02024 0.0
O92 O 0.59363 0.81218 0.01985 0.0
O93 O 0.57569 0.775 0.00573 0.0
C94 C 0.5383 0.86123 0.03222 0.0
C95 C 0.52817 0.80032 0.95394 0.0
C96 C 0.53447 0.78821 0.0847 0.0
O97 O 0.56155 0.85245 0.02638 0.0
O98 O 0.52016 0.84375 0.03198 0.0
O99 O 0.51763 0.79092 0.05966 0.0
O100 O 0.55779 0.79555 0.07683 0.0
C101 C 0.59694 0.78814 0.01047 0.0
O102 O 0.52262 0.78526 0.9802 0.0
O103 O 0.54319 0.81972 0.96148 0.0
H104 H 0.241 0.49026 0.12049 0.0
H105 H 0.25098 0.50139 0.18345 0.0
H106 H 0.17381 0.47117 0.21524 0.0
H107 H 0.16396 0.4597 0.15304 0.0
H108 H 0.22522 0.53458 0.23115 0.0
H109 H 0.22349 0.4311 0.28247 0.0
H110 H 0.22533 0.43872 0.23509 0.0
H111 H 0.1936 0.43866 0.25797 0.0
C112 C 0.2262 0.48606 0.14098 0.0
C113 C 0.20178 0.47394 0.13191 0.0
C114 C 0.23195 0.49233 0.17688 0.0
C115 C 0.21342 0.48645 0.20413 0.0
C116 C 0.18875 0.47513 0.19483 0.0
H117 H 0.17342 0.55227 0.40374 0.0
H118 H 0.18285 0.5411 0.34139 0.0
C119 C 0.18305 0.4688 0.15918 0.0
C120 C 0.21908 0.49281 0.2423 0.0
H121 H 0.21568 0.46586 0.32646 0.0
C122 C 0.22365 0.51949 0.25198 0.0
C123 C 0.21774 0.47304 0.26946 0.0
C124 C 0.21508 0.44374 0.26069 0.0
C125 C 0.22486 0.5272 0.28822 0.0
C126 C 0.22082 0.50779 0.31538 0.0
C127 C 0.21833 0.48083 0.30568 0.0
C128 C 0.21636 0.51529 0.35349 0.0
C129 C 0.22989 0.55618 0.29701 0.0
C130 C 0.23152 0.50383 0.3813 0.0
C131 C 0.22592 0.50997 0.41729 0.0
C132 C 0.20495 0.52751 0.42594 0.0
C133 C 0.18982 0.53881 0.398 0.0
C134 C 0.19536 0.53266 0.36225 0.0
H135 H 0.24191 0.56599 0.27564 0.0
H136 H 0.2105 0.56683 0.29875 0.0
H137 H 0.24047 0.55841 0.32306 0.0
H138 H 0.24761 0.4901 0.37515 0.0
H139 H 0.23788 0.50093 0.43828 0.0
H140 H 0.50804 0.16851 0.65488 0.0
H141 H 0.50116 0.17679 0.71875 0.0
H142 H 0.51117 0.26138 0.70126 0.0
H143 H 0.51769 0.25321 0.63667 0.0
H144 H 0.5401 0.20091 0.76278 0.0
H145 H 0.44368 0.25661 0.76549 0.0
H146 H 0.4539 0.23703 0.72711 0.0
H147 H 0.46947 0.26862 0.73589 0.0
C148 C 0.50836 0.18894 0.66446 0.0
C149 C 0.51344 0.21022 0.64084 0.0
C150 C 0.50449 0.19363 0.70098 0.0
C151 C 0.50566 0.21967 0.71473 0.0
C152 C 0.50987 0.24116 0.6911 0.0
H153 H 0.49171 0.24643 0.94997 0.0
H154 H 0.50326 0.25612 0.88691 0.0
C155 C 0.5136 0.23647 0.65429 0.0
C156 C 0.50408 0.22357 0.75412 0.0
H157 H 0.46286 0.2453 0.82119 0.0
C158 C 0.52345 0.21102 0.77556 0.0
C159 C 0.48245 0.23694 0.77068 0.0
C160 C 0.46103 0.2505 0.74878 0.0
C161 C 0.52099 0.21023 0.81305 0.0
C162 C 0.49858 0.22221 0.82944 0.0
C163 C 0.48005 0.2362 0.80833 0.0
C164 C 0.49218 0.21695 0.86752 0.0
C165 C 0.54167 0.19551 0.83487 0.0
C166 C 0.48222 0.1918 0.87714 0.0
C167 C 0.47554 0.1863 0.91273 0.0
C168 C 0.47882 0.20582 0.93947 0.0
C169 C 0.48912 0.23099 0.9299 0.0
C170 C 0.4956 0.23658 0.89401 0.0
H171 H 0.56042 0.19233 0.81945 0.0
H172 H 0.54638 0.20665 0.85988 0.0
H173 H 0.53362 0.17569 0.8427 0.0
H174 H 0.4794 0.17646 0.85696 0.0
H175 H 0.46766 0.16673 0.91925 0.0
H176 H 0.75373 0.48493 0.44901 0.0
H177 H 0.74277 0.49664 0.38649 0.0
H178 H 0.81405 0.45639 0.35031 0.0
H179 H 0.82486 0.44444 0.412 0.0
H180 H 0.77162 0.5261 0.33697 0.0
H181 H 0.75704 0.42352 0.28638 0.0
H182 H 0.75756 0.43131 0.33377 0.0
H183 H 0.78833 0.42659 0.30945 0.0
C184 C 0.76698 0.47859 0.42764 0.0
C185 C 0.79006 0.46364 0.43536 0.0
C186 C 0.76067 0.48521 0.392 0.0
C187 C 0.77725 0.47679 0.3637 0.0
C188 C 0.80055 0.4624 0.37159 0.0
H189 H 0.8222 0.53649 0.16283 0.0
H190 H 0.81266 0.52614 0.22548 0.0
C191 C 0.80682 0.45579 0.40696 0.0
C192 C 0.77132 0.48389 0.32585 0.0
H193 H 0.76914 0.45675 0.24178 0.0
C194 C 0.7705 0.51095 0.31619 0.0
C195 C 0.7692 0.46414 0.29878 0.0
C196 C 0.76777 0.43477 0.30768 0.0
C197 C 0.7698 0.51876 0.27996 0.0
C198 C 0.7705 0.49897 0.2528 0.0
C199 C 0.7691 0.47194 0.26256 0.0
C200 C 0.77539 0.50577 0.21455 0.0
C201 C 0.76896 0.54817 0.27115 0.0
C202 C 0.7581 0.49691 0.1873 0.0
C203 C 0.76372 0.50254 0.15117 0.0
C204 C 0.7868 0.51696 0.14181 0.0
C205 C 0.80416 0.5255 0.16915 0.0
C206 C 0.79859 0.51984 0.20507 0.0
H207 H 0.75896 0.55966 0.29287 0.0
H208 H 0.78968 0.55582 0.26864 0.0
H209 H 0.75832 0.55194 0.24547 0.0
H210 H 0.74026 0.48572 0.19401 0.0
H211 H 0.75 0.4957 0.13064 0.0
H212 H 0.53523 0.8325 0.89596 0.0
H213 H 0.52118 0.82458 0.83411 0.0
H214 H 0.48628 0.74935 0.86544 0.0
H215 H 0.50041 0.75713 0.9279 0.0
H216 H 0.52007 0.7487 0.80017 0.0
H217 H 0.44225 0.8276 0.79847 0.0
H218 H 0.47409 0.83855 0.81514 0.0
H219 H 0.45548 0.81381 0.83964 0.0
C220 C 0.52447 0.81429 0.88982 0.0
C221 C 0.51877 0.7955 0.91684 0.0
C222 C 0.51643 0.80983 0.85446 0.0
C223 C 0.50251 0.78652 0.84533 0.0
C224 C 0.49695 0.76752 0.87207 0.0
H225 H 0.42393 0.77901 0.63754 0.0
H226 H 0.4342 0.77245 0.70106 0.0
C227 C 0.50491 0.77204 0.90767 0.0
C228 C 0.49388 0.78235 0.8077 0.0
H229 H 0.45603 0.81057 0.74171 0.0
C230 C 0.50582 0.76196 0.78738 0.0
C231 C 0.4751 0.79952 0.79129 0.0
C232 C 0.46077 0.82096 0.81228 0.0
C233 C 0.50018 0.75897 0.75056 0.0
C234 C 0.48243 0.77707 0.73373 0.0
C235 C 0.46979 0.79679 0.75451 0.0
C236 C 0.47695 0.77663 0.69451 0.0
C237 C 0.51327 0.73651 0.73009 0.0
C238 C 0.49764 0.78051 0.66947 0.0
C239 C 0.49182 0.78404 0.63295 0.0
C240 C 0.46519 0.78414 0.62105 0.0
C241 C 0.44465 0.77914 0.64594 0.0
C242 C 0.45048 0.77539 0.68226 0.0
H243 H 0.51946 0.72006 0.74833 0.0
H244 H 0.49967 0.7283 0.70929 0.0
H245 H 0.53146 0.7442 0.71651 0.0
H246 H 0.51817 0.78213 0.67836 0.0
H247 H 0.50801 0.78805 0.6144 0.0
H248 H 0.77727 0.49719 0.63376 0.0
H249 H 0.76933 0.50726 0.6975 0.0
H250 H 0.7762 0.42351 0.72311 0.0
H251 H 0.78484 0.41346 0.65997 0.0
H252 H 0.73207 0.49019 0.74898 0.0
H253 H 0.83457 0.45689 0.78424 0.0
H254 H 0.82406 0.46206 0.73842 0.0
H255 H 0.81509 0.43189 0.76175 0.0
C256 C 0.7768 0.48095 0.65299 0.0
C257 C 0.78206 0.45461 0.64205 0.0
C258 C 0.77225 0.4867 0.68933 0.0
C259 C 0.77279 0.46618 0.71511 0.0
C260 C 0.77639 0.43971 0.70381 0.0
H261 H 0.77616 0.46993 0.94994 0.0
H262 H 0.76882 0.45485 0.88791 0.0
C263 C 0.78121 0.43401 0.66769 0.0
C264 C 0.77111 0.47251 0.75397 0.0
H265 H 0.80612 0.46818 0.8325 0.0
C266 C 0.74822 0.48537 0.76728 0.0
C267 C 0.79225 0.46622 0.77779 0.0
C268 C 0.81799 0.45374 0.76485 0.0
C269 C 0.74591 0.49201 0.80386 0.0
C270 C 0.7671 0.48579 0.82752 0.0
C271 C 0.78978 0.47262 0.81431 0.0
C272 C 0.76739 0.49471 0.86545 0.0
C273 C 0.72084 0.5056 0.81695 0.0
C274 C 0.76873 0.52205 0.8733 0.0
C275 C 0.77312 0.53065 0.90847 0.0
C276 C 0.77624 0.51206 0.93648 0.0
C277 C 0.77371 0.48469 0.9289 0.0
C278 C 0.76955 0.47607 0.89354 0.0
H279 H 0.70389 0.50251 0.79813 0.0
H280 H 0.71504 0.49812 0.84396 0.0
H281 H 0.72454 0.52739 0.81908 0.0
H282 H 0.76762 0.53674 0.85196 0.0
H283 H 0.77497 0.55188 0.91351 0.0
H284 H 0.56852 0.77161 0.13681 0.0
H285 H 0.55858 0.76451 0.20034 0.0
H286 H 0.47516 0.78002 0.17998 0.0
H287 H 0.48495 0.78641 0.116 0.0
H288 H 0.54032 0.80322 0.24218 0.0
H289 H 0.47013 0.71797 0.24917 0.0
H290 H 0.48979 0.72512 0.2096 0.0
H291 H 0.45932 0.74315 0.21809 0.0
C292 C 0.54794 0.77286 0.14572 0.0
C293 C 0.5275 0.77967 0.12153 0.0
C294 C 0.5423 0.76879 0.18204 0.0
C295 C 0.51611 0.77157 0.19498 0.0
C296 C 0.49543 0.77717 0.17056 0.0
H297 H 0.46291 0.83271 0.39491 0.0
H298 H 0.47707 0.823 0.33362 0.0
C299 C 0.50105 0.78097 0.13402 0.0
C300 C 0.51118 0.77205 0.23434 0.0
H301 H 0.47155 0.74682 0.30102 0.0
C302 C 0.52555 0.79056 0.25507 0.0
C303 C 0.49211 0.7554 0.25131 0.0
C304 C 0.47715 0.7341 0.23095 0.0
C305 C 0.52062 0.79366 0.29189 0.0
C306 C 0.50046 0.77818 0.30839 0.0
C307 C 0.48686 0.75882 0.28817 0.0
C308 C 0.49191 0.78345 0.34581 0.0
C309 C 0.53676 0.81383 0.31278 0.0
C310 C 0.49525 0.76422 0.37292 0.0
C311 C 0.48719 0.76976 0.40825 0.0
C312 C 0.47544 0.79448 0.41671 0.0
C313 C 0.47201 0.81352 0.38933 0.0
C314 C 0.48014 0.80804 0.35427 0.0
H315 H 0.55596 0.81849 0.29913 0.0
H316 H 0.52519 0.83266 0.31507 0.0
H317 H 0.54109 0.8065 0.34034 0.0
H318 H 0.50423 0.74507 0.3668 0.0
H319 H 0.48991 0.75465 0.42877 0.0
H320 H 0.21917 0.42493 0.90995 0.0
H321 H 0.22801 0.43565 0.84704 0.0
H322 H 0.22014 0.51963 0.87085 0.0
H323 H 0.21214 0.50899 0.93423 0.0
H324 H 0.19297 0.45845 0.80394 0.0
H325 H 0.28413 0.52088 0.80565 0.0
H326 H 0.27377 0.50122 0.8439 0.0
H327 H 0.25893 0.53339 0.83549 0.0
C328 C 0.2199 0.44573 0.90192 0.0
C329 C 0.21492 0.46615 0.92693 0.0
C330 C 0.22496 0.45182 0.86595 0.0
C331 C 0.22499 0.47845 0.85418 0.0
C332 C 0.22089 0.49897 0.87939 0.0
H333 H 0.19896 0.56106 0.6582 0.0
H334 H 0.2082 0.54616 0.71941 0.0
C335 C 0.21614 0.49288 0.91557 0.0
C336 C 0.22626 0.48443 0.81511 0.0
H337 H 0.25715 0.5234 0.75215 0.0
C338 C 0.20733 0.47229 0.79254 0.0
C339 C 0.24497 0.50251 0.80021 0.0
C340 C 0.26677 0.51503 0.82254 0.0
C341 C 0.20588 0.47853 0.75586 0.0
C342 C 0.22397 0.49729 0.74126 0.0
C343 C 0.24335 0.50897 0.7635 0.0
C344 C 0.22134 0.50671 0.70374 0.0
C345 C 0.18425 0.46593 0.73326 0.0
C346 C 0.22624 0.48958 0.67458 0.0
C347 C 0.22101 0.49807 0.63939 0.0
C348 C 0.21069 0.52375 0.63302 0.0
C349 C 0.20674 0.54109 0.66226 0.0
C350 C 0.21211 0.53268 0.69725 0.0
H351 H 0.16949 0.45478 0.74979 0.0
H352 H 0.17351 0.48142 0.71752 0.0
H353 H 0.19345 0.45176 0.71395 0.0
H354 H 0.23355 0.4695 0.67913 0.0
H355 H 0.22431 0.48433 0.61736 0.0
H356 H 0.55971 0.24028 0.42656 0.0
H357 H 0.54999 0.25014 0.36362 0.0
H358 H 0.46777 0.22738 0.3802 0.0
H359 H 0.47725 0.2182 0.44354 0.0
H360 H 0.53501 0.21205 0.31815 0.0
H361 H 0.45868 0.29189 0.31646 0.0
H362 H 0.47835 0.28442 0.35588 0.0
H363 H 0.44935 0.26468 0.34521 0.0
C364 C 0.53939 0.23807 0.41701 0.0
C365 C 0.51924 0.22836 0.43986 0.0
C366 C 0.53387 0.24371 0.38104 0.0
C367 C 0.50813 0.23968 0.36717 0.0
C368 C 0.48764 0.23124 0.39042 0.0
H369 H 0.43475 0.20401 0.16849 0.0
H370 H 0.44697 0.21595 0.22985 0.0
C371 C 0.4931 0.22585 0.42659 0.0
C372 C 0.50367 0.24067 0.32777 0.0
H373 H 0.46224 0.26514 0.26273 0.0
C374 C 0.51944 0.22407 0.30594 0.0
C375 C 0.48331 0.25629 0.31188 0.0
C376 C 0.46664 0.27552 0.33356 0.0
C377 C 0.51458 0.22165 0.26899 0.0
C378 C 0.49359 0.23652 0.25332 0.0
C379 C 0.47836 0.2538 0.27486 0.0
C380 C 0.48554 0.23224 0.21547 0.0
C381 C 0.53104 0.20213 0.24738 0.0
C382 C 0.50297 0.23803 0.1869 0.0
C383 C 0.49607 0.23109 0.15164 0.0
C384 C 0.47162 0.21835 0.14456 0.0
C385 C 0.45381 0.21364 0.1731 0.0
C386 C 0.4607 0.22057 0.20818 0.0
H387 H 0.54319 0.1888 0.26478 0.0
H388 H 0.51799 0.18957 0.23016 0.0
H389 H 0.54486 0.21333 0.22957 0.0
H390 H 0.52212 0.24736 0.19198 0.0
H391 H 0.5101 0.2351 0.13013 0.0
H392 H 0.87837 0.47669 0.0276 0.0
H393 H 0.92585 0.46543 0.02327 0.0
H394 H 0.94543 0.54912 0.01504 0.0
H395 H 0.89803 0.56057 0.01993 0.0
H396 H 0.9629 0.47706 0.96889 0.0
H397 H 0.99185 0.52343 0.09876 0.0
H398 H 0.95751 0.51697 0.08684 0.0
H399 H 0.97463 0.54547 0.06856 0.0
C400 C 0.8928 0.49269 0.02489 0.0
C401 C 0.88456 0.51952 0.02438 0.0
C402 C 0.91987 0.48622 0.02237 0.0
C403 C 0.93911 0.50647 0.0194 0.0
C404 C 0.93089 0.53324 0.01805 0.0
H405 H 0.112 0.50713 0.00968 0.0
H406 H 0.06456 0.51872 0.00707 0.0
C407 C 0.90383 0.53974 0.02068 0.0
C408 C 0.96779 0.49953 0.01778 0.0
H409 H 0.027 0.50773 0.06177 0.0
C410 C 0.97695 0.48369 0.98921 0.0
C411 C 0.98597 0.50821 0.04441 0.0
C412 C 0.97703 0.52426 0.07657 0.0
C413 C 0.00398 0.47659 0.98626 0.0
C414 C 0.02213 0.48532 0.01285 0.0
C415 C 0.01299 0.5012 0.04136 0.0
C416 C 0.05071 0.47795 0.01202 0.0
C417 C 0.01298 0.46021 0.95446 0.0
C418 C 0.05854 0.45118 0.01566 0.0
C419 C 0.08561 0.44449 0.01719 0.0
C420 C 0.10523 0.46451 0.01527 0.0
C421 C 0.09732 0.49127 0.01118 0.0
C422 C 0.07026 0.49794 0.0097 0.0
H423 H -0.00183 0.46074 0.93224 0.0
H424 H 0.0325 0.46745 0.94412 0.0
H425 H 0.01548 0.43911 0.96294 0.0
H426 H 0.04371 0.43554 0.01816 0.0
H427 H 0.09114 0.42372 0.0205 0.0
H428 H 0.50441 0.88686 0.54074 0.0
H429 H 0.51561 0.93445 0.54072 0.0
H430 H 0.43398 0.95383 0.5144 0.0
H431 H 0.42252 0.90631 0.51483 0.0
H432 H 0.51024 0.96969 0.48258 0.0
H433 H 0.4501 0.0029 0.59988 0.0
H434 H 0.4577 0.9682 0.5915 0.0
H435 H 0.4317 0.9846 0.56656 0.0
C436 C 0.48879 0.90128 0.53532 0.0
C437 C 0.46258 0.89292 0.52789 0.0
C438 C 0.49523 0.92841 0.53525 0.0
C439 C 0.47555 0.9476 0.52794 0.0
C440 C 0.44932 0.93933 0.52076 0.0
H441 H 0.47903 0.12054 0.50912 0.0
H442 H 0.46635 0.0733 0.50708 0.0
C443 C 0.44285 0.9122 0.52087 0.0
C444 C 0.48278 0.97619 0.5263 0.0
H445 H 0.47028 0.03681 0.56462 0.0
C446 C 0.50159 0.98438 0.50057 0.0
C447 C 0.47133 0.99524 0.54973 0.0
C448 C 0.45176 0.98734 0.57871 0.0
C449 C 0.50911 0.01126 0.49741 0.0
C450 C 0.49777 0.03028 0.52097 0.0
C451 C 0.47883 0.02212 0.54654 0.0
C452 C 0.50582 0.05866 0.52024 0.0
C453 C 0.52879 0.01914 0.46856 0.0
C454 C 0.53218 0.06596 0.52832 0.0
C455 C 0.53948 0.09285 0.52945 0.0
C456 C 0.52046 0.11288 0.52274 0.0
C457 C 0.49412 0.10551 0.51429 0.0
C458 C 0.48684 0.07859 0.51318 0.0
H459 H 0.5301 0.00381 0.44705 0.0
H460 H 0.52322 0.03855 0.45622 0.0
H461 H 0.54891 0.0213 0.48071 0.0
H462 H 0.54699 0.05087 0.53451 0.0
H463 H 0.55989 0.09795 0.53624 0.0
H464 H 0.09052 0.56546 0.54506 0.0
H465 H 0.04377 0.55138 0.54949 0.0
H466 H 0.06793 0.46901 0.53952 0.0
H467 H 0.11468 0.48287 0.53548 0.0
H468 H 0.01463 0.52215 0.49841 0.0
H469 H 0.01983 0.46856 0.62892 0.0
H470 H 0.04549 0.49141 0.61413 0.0
H471 H 0.04422 0.45803 0.59647 0.0
C472 C 0.08586 0.54434 0.54403 0.0
C473 C 0.10621 0.52524 0.54005 0.0
C474 C 0.0592 0.53635 0.54655 0.0
C475 C 0.0525 0.50916 0.54537 0.0
C476 C 0.07276 0.49006 0.54124 0.0
H477 H 0.9045 0.41981 0.54155 0.0
H478 H 0.95128 0.43422 0.54206 0.0
C479 C 0.09942 0.49802 0.53872 0.0
C480 C 0.02421 0.50082 0.54698 0.0
H481 H 0.97979 0.46354 0.59529 0.0
C482 C 0.00693 0.50948 0.51969 0.0
C483 C 0.01436 0.48422 0.57474 0.0
C484 C 0.03185 0.47517 0.60543 0.0
C485 C 0.98008 0.50156 0.51904 0.0
C486 C 0.97024 0.48492 0.54676 0.0
C487 C 0.98749 0.47628 0.57409 0.0
C488 C 0.94204 0.47623 0.54775 0.0
C489 C 0.96263 0.51054 0.48825 0.0
C490 C 0.92151 0.49507 0.55151 0.0
C491 C 0.89485 0.48692 0.55119 0.0
C492 C 0.88832 0.45978 0.54731 0.0
C493 C 0.90896 0.44087 0.54447 0.0
C494 C 0.93564 0.44905 0.54479 0.0
H495 H 0.97465 0.51761 0.465 0.0
H496 H 0.9494 0.49409 0.47912 0.0
H497 H 0.94983 0.52732 0.49733 0.0
H498 H 0.92611 0.51609 0.55451 0.0
H499 H 0.87936 0.50192 0.55364 0.0
H500 H 0.57402 0.90241 0.03534 0.0
H501 H 0.56419 0.94993 0.04384 0.0
H502 H 0.48003 0.93199 0.05013 0.0
H503 H 0.4897 0.88451 0.04228 0.0
H504 H 0.53338 0.98197 1.00021 0.0
H505 H 0.49117 0.9791 0.1379 0.0
H506 H 0.50996 0.95169 0.11905 0.0
H507 H 0.4753 0.95609 0.10774 0.0
C508 C 0.55345 0.9086 0.03886 0.0
C509 C 0.53262 0.88979 0.03826 0.0
C510 C 0.54788 0.93571 0.04372 0.0
C511 C 0.52143 0.94439 0.0482 0.0
C512 C 0.50063 0.92563 0.04759 0.0
H513 H 0.43621 0.09316 0.05057 0.0
H514 H 0.45084 0.0465 0.05155 0.0
C515 C 0.50617 0.89854 0.04284 0.0
C516 C 0.51539 0.97321 0.05146 0.0
H517 H 0.48364 0.0191 0.10421 0.0
C518 C 0.5228 0.99018 0.02313 0.0
C519 C 0.50155 0.9838 0.0814 0.0
C520 C 0.49425 0.96678 0.11342 0.0
C521 C 0.51593 0.01733 0.02336 0.0
C522 C 0.50159 0.02776 0.05293 0.0
C523 C 0.49458 0.01093 0.08156 0.0
C524 C 0.49296 0.05596 0.05403 0.0
C525 C 0.52329 0.03447 0.99147 0.0
C526 C 0.51184 0.07661 0.05577 0.0
C527 C 0.50356 0.10325 0.05524 0.0
C528 C 0.47626 0.10961 0.05304 0.0
C529 C 0.45738 0.08885 0.05217 0.0
C530 C 0.46568 0.06223 0.05277 0.0
H531 H 0.52947 0.02228 0.96794 0.0
H532 H 0.50623 0.04734 0.98345 0.0
H533 H 0.5402 0.04769 0.99887 0.0
H534 H 0.53298 0.0721 0.05727 0.0
H535 H 0.51855 0.11884 0.0561 0.0
H536 H 0.25489 0.38458 0.06356 0.0
H537 H 0.2766 0.34102 0.06425 0.0
H538 H 0.20512 0.30452 0.02219 0.0
H539 H 0.1831 0.34842 0.02119 0.0
H540 H 0.26138 0.29054 0.09721 0.0
H541 H 0.26535 0.28809 0.94735 0.0
H542 H 0.25829 0.31858 0.97139 0.0
H543 H 0.23359 0.29269 0.96922 0.0
C544 C 0.24365 0.36728 0.05479 0.0
C545 C 0.21742 0.36989 0.04198 0.0
C546 C 0.25603 0.3424 0.05537 0.0
C547 C 0.24249 0.31968 0.04303 0.0
C548 C 0.2159 0.32193 0.03155 0.0
H549 H 0.35459 0.18292 0.05296 0.0
H550 H 0.30994 0.20343 0.05299 0.0
C551 C 0.20339 0.34694 0.03107 0.0
C552 C 0.25748 0.2944 0.03988 0.0
H553 H 0.29358 0.25896 0.97852 0.0
C554 C 0.26784 0.28295 0.07132 0.0
C555 C 0.26579 0.28475 0.00597 0.0
C556 C 0.25534 0.29659 0.97142 0.0
C557 C 0.28805 0.26358 0.06975 0.0
C558 C 0.29784 0.25548 0.03584 0.0
C559 C 0.28586 0.26525 0.00441 0.0
C560 C 0.32367 0.24149 0.03255 0.0
C561 C 0.30044 0.25371 0.10425 0.0
C562 C 0.34583 0.25596 0.02023 0.0
C563 C 0.37112 0.24444 0.02026 0.0
C564 C 0.37471 0.21816 0.03247 0.0
C565 C 0.35234 0.20325 0.0435 0.0
C566 C 0.32691 0.21491 0.04361 0.0
H567 H 0.29146 0.26324 0.12836 0.0
H568 H 0.29768 0.23178 0.10643 0.0
H569 H 0.32225 0.25779 0.10419 0.0
H570 H 0.34367 0.27654 0.01167 0.0
H571 H 0.38795 0.25636 0.01143 0.0
H572 H 0.73726 0.37539 0.51535 0.0
H573 H 0.71652 0.33146 0.51433 0.0
H574 H 0.79276 0.29461 0.53585 0.0
H575 H 0.81384 0.33898 0.53737 0.0
H576 H 0.72791 0.28525 0.47191 0.0
H577 H 0.7434 0.26894 0.61878 0.0
H578 H 0.74742 0.30155 0.59884 0.0
H579 H 0.77181 0.27603 0.59065 0.0
C580 C 0.74972 0.35798 0.51963 0.0
C581 C 0.77711 0.36059 0.52677 0.0
C582 C 0.73786 0.33288 0.51887 0.0
C583 C 0.75309 0.30986 0.52526 0.0
C584 C 0.78066 0.31221 0.53122 0.0
H585 H 0.63534 0.1793 0.51317 0.0
H586 H 0.68116 0.19655 0.50901 0.0
C587 C 0.79263 0.33749 0.53198 0.0
C588 C 0.73909 0.28397 0.52766 0.0
H589 H 0.71094 0.24294 0.59026 0.0
C590 C 0.72476 0.2753 0.49748 0.0
C591 C 0.73521 0.27116 0.56112 0.0
C592 C 0.75014 0.2798 0.59436 0.0
C593 C 0.70458 0.25603 0.50061 0.0
C594 C 0.69907 0.2449 0.53478 0.0
C595 C 0.71529 0.25158 0.56417 0.0
C596 C 0.67342 0.2313 0.54196 0.0
C597 C 0.68761 0.24976 0.46814 0.0
C598 C 0.65439 0.24448 0.56322 0.0
C599 C 0.62844 0.2347 0.56577 0.0
C600 C 0.62103 0.21153 0.54708 0.0
C601 C 0.64051 0.19734 0.52764 0.0
C602 C 0.66662 0.20717 0.52514 0.0
H603 H 0.69304 0.26217 0.44448 0.0
H604 H 0.6902 0.22846 0.46073 0.0
H605 H 0.66616 0.25307 0.47435 0.0
H606 H 0.65926 0.26316 0.5764 0.0
H607 H 0.61391 0.24594 0.58117 0.0
H608 H 0.73369 0.60243 0.05763 0.0
H609 H 0.71297 0.64636 0.05266 0.0
H610 H 0.78748 0.67967 0.01541 0.0
H611 H 0.80851 0.63545 0.02019 0.0
H612 H 0.7284 0.69758 0.08409 0.0
H613 H 0.73131 0.69509 0.93422 0.0
H614 H 0.73593 0.66522 0.96068 0.0
H615 H 0.76182 0.68993 0.95889 0.0
C616 C 0.74577 0.61912 0.04868 0.0
C617 C 0.77263 0.61552 0.03901 0.0
C618 C 0.73394 0.6442 0.04599 0.0
C619 C 0.74869 0.66611 0.03344 0.0
C620 C 0.77578 0.66288 0.02489 0.0
H621 H 0.64529 0.80928 0.02986 0.0
H622 H 0.68825 0.78566 0.03279 0.0
C623 C 0.78772 0.63769 0.02771 0.0
C624 C 0.73471 0.69166 0.02748 0.0
H625 H 0.70362 0.72699 0.96123 0.0
C626 C 0.72352 0.70462 0.05731 0.0
C627 C 0.72846 0.70055 0.99242 0.0
C628 C 0.73985 0.68704 0.95956 0.0
C629 C 0.70459 0.725 0.05295 0.0
C630 C 0.69697 0.73263 0.01783 0.0
C631 C 0.70968 0.72107 0.98806 0.0
C632 C 0.67261 0.74858 0.01162 0.0
C633 C 0.69127 0.73662 0.08582 0.0
C634 C 0.65002 0.73578 0.99757 0.0
C635 C 0.62564 0.7491 0.99588 0.0
C636 C 0.62346 0.77552 0.00809 0.0
C637 C 0.64643 0.78885 0.02039 0.0
C638 C 0.67091 0.77542 0.02218 0.0
H639 H 0.69783 0.72668 0.11101 0.0
H640 H 0.69613 0.75819 0.08782 0.0
H641 H 0.66923 0.73474 0.0836 0.0
H642 H 0.65098 0.71504 0.98933 0.0
H643 H 0.60831 0.73838 0.98608 0.0
H644 H 0.38071 0.74765 0.47544 0.0
H645 H 0.33696 0.72631 0.4762 0.0
H646 H 0.30478 0.79249 0.53651 0.0
H647 H 0.34879 0.81412 0.53582 0.0
H648 H 0.2971 0.74299 0.56879 0.0
H649 H 0.26498 0.73907 0.42701 0.0
H650 H 0.29916 0.72891 0.43171 0.0
H651 H 0.28968 0.76259 0.44302 0.0
C652 C 0.36421 0.75793 0.48824 0.0
C653 C 0.36813 0.78244 0.50573 0.0
C654 C 0.33915 0.74585 0.48834 0.0
C655 C 0.31755 0.75804 0.50591 0.0
C656 C 0.32116 0.78297 0.52242 0.0
H657 H 0.18181 0.64533 0.51289 0.0
H658 H 0.20268 0.68977 0.50974 0.0
C659 C 0.34626 0.79523 0.52205 0.0
C660 C 0.29268 0.74267 0.51116 0.0
H661 H 0.24983 0.70225 0.46526 0.0
C662 C 0.28614 0.73473 0.54624 0.0
C663 C 0.27816 0.73221 0.4818 0.0
C664 C 0.28318 0.74139 0.4438 0.0
C665 C 0.26738 0.71448 0.55239 0.0
C666 C 0.25514 0.70189 0.52271 0.0
C667 C 0.25956 0.71176 0.48794 0.0
C668 C 0.24162 0.6759 0.52664 0.0
C669 C 0.26207 0.7055 0.59042 0.0
C670 C 0.25676 0.6536 0.5368 0.0
C671 C 0.2451 0.62839 0.53819 0.0
C672 C 0.21803 0.62503 0.52956 0.0
C673 C 0.20271 0.64744 0.5198 0.0
C674 C 0.21454 0.67275 0.51802 0.0
H675 H 0.26614 0.72177 0.60997 0.0
H676 H 0.24108 0.69873 0.5937 0.0
H677 H 0.27545 0.6885 0.59697 0.0
H678 H 0.27783 0.65563 0.54292 0.0
H679 H 0.25738 0.61149 0.54581 0.0
loop_
_geom_bond_atom_site_label_1
_geom_bond_atom_site_label_2
_geom_bond_distance
_geom_bond_site_symmetry_2
_ccdc_geom_bond_type
In0 O1 2.294 . S
In0 O2 2.326 . S
In0 O6 2.266 1_554 S
In0 O7 2.326 1_554 S
In0 O8 2.266 . S
In0 O9 2.326 . S
In0 O11 2.294 . S
In0 O12 2.326 . S
O1 In0 2.294 . S
O1 C10 1.240 . S
O2 In0 2.326 . S
O2 C10 1.252 . S
C3 O6 1.252 . S
C3 O7 1.260 . S
C4 O11 1.240 . S
C4 O12 1.252 . S
C5 O8 1.252 . S
C5 O9 1.260 . S
O6 In0 2.266 1_556 S
O6 C3 1.252 . S
O7 In0 2.326 1_556 S
O7 C3 1.260 . S
O8 In0 2.266 . S
O8 C5 1.252 . S
O9 In0 2.326 . S
O9 C5 1.260 . S
C10 O1 1.240 . S
C10 O2 1.252 . S
O11 In0 2.294 . S
O11 C4 1.240 . S
O12 In0 2.326 . S
O12 C4 1.252 . S
In13 O14 2.294 . S
In13 O15 2.326 . S
In13 O19 2.266 . S
In13 O20 2.326 . S
In13 O21 2.266 . S
In13 O22 2.326 . S
In13 O24 2.294 . S
In13 O25 2.326 . S
O14 In13 2.294 . S
O14 C23 1.240 . S
O15 In13 2.326 . S
O15 C23 1.252 . S
C16 O19 1.252 . S
C16 O20 1.260 . S
C17 O24 1.240 . S
C17 O25 1.252 . S
C18 O21 1.252 . S
C18 O22 1.260 . S
O19 In13 2.266 . S
O19 C16 1.252 . S
O20 In13 2.326 . S
O20 C16 1.260 . S
O21 In13 2.266 . S
O21 C18 1.252 . S
O22 In13 2.326 . S
O22 C18 1.260 . S
C23 O14 1.240 . S
C23 O15 1.252 . S
O24 In13 2.294 . S
O24 C17 1.240 . S
O25 In13 2.326 . S
O25 C17 1.252 . S
In26 O27 2.294 . S
In26 O28 2.326 . S
In26 O32 2.266 1_554 S
In26 O33 2.326 1_554 S
In26 O34 2.266 . S
In26 O35 2.326 . S
In26 O37 2.294 . S
In26 O38 2.326 . S
O27 In26 2.294 . S
O27 C36 1.240 . S
O28 In26 2.326 . S
O28 C36 1.252 . S
C29 O32 1.252 . S
C29 O33 1.260 . S
C30 O37 1.240 . S
C30 O38 1.252 . S
C31 O34 1.252 . S
C31 O35 1.260 . S
O32 In26 2.266 1_556 S
O32 C29 1.252 . S
O33 In26 2.326 1_556 S
O33 C29 1.260 . S
O34 In26 2.266 . S
O34 C31 1.252 . S
O35 In26 2.326 . S
O35 C31 1.260 . S
C36 O27 1.240 . S
C36 O28 1.252 . S
O37 In26 2.294 . S
O37 C30 1.240 . S
O38 In26 2.326 . S
O38 C30 1.252 . S
In39 O40 2.294 . S
In39 O41 2.326 . S
In39 O45 2.266 . S
In39 O46 2.326 . S
In39 O47 2.266 . S
In39 O48 2.326 . S
In39 O50 2.294 . S
In39 O51 2.326 . S
O40 In39 2.294 . S
O40 C49 1.240 . S
O41 In39 2.326 . S
O41 C49 1.252 . S
C42 O45 1.252 . S
C42 O46 1.260 . S
C43 O50 1.240 . S
C43 O51 1.252 . S
C44 O47 1.252 . S
C44 O48 1.260 . S
O45 In39 2.266 . S
O45 C42 1.252 . S
O46 In39 2.326 . S
O46 C42 1.260 . S
O47 In39 2.266 . S
O47 C44 1.252 . S
O48 In39 2.326 . S
O48 C44 1.260 . S
C49 O40 1.240 . S
C49 O41 1.252 . S
O50 In39 2.294 . S
O50 C43 1.240 . S
O51 In39 2.326 . S
O51 C43 1.252 . S
In52 O53 2.294 . S
In52 O54 2.326 . S
In52 O58 2.266 . S
In52 O59 2.326 . S
In52 O60 2.266 . S
In52 O61 2.326 . S
In52 O63 2.294 . S
In52 O64 2.326 . S
O53 In52 2.294 . S
O53 C62 1.240 . S
O54 In52 2.326 . S
O54 C62 1.252 . S
C55 O58 1.252 . S
C55 O59 1.260 . S
C56 O63 1.240 . S
C56 O64 1.252 . S
C57 O60 1.252 . S
C57 O61 1.260 . S
O58 In52 2.266 . S
O58 C55 1.252 . S
O59 In52 2.326 . S
O59 C55 1.260 . S
O60 In52 2.266 . S
O60 C57 1.252 . S
O61 In52 2.326 . S
O61 C57 1.260 . S
C62 O53 1.240 . S
C62 O54 1.252 . S
O63 In52 2.294 . S
O63 C56 1.240 . S
O64 In52 2.326 . S
O64 C56 1.252 . S
In65 O66 2.294 . S
In65 O67 2.326 . S
In65 O71 2.266 . S
In65 O72 2.326 . S
In65 O73 2.266 . S
In65 O74 2.326 . S
In65 O76 2.294 . S
In65 O77 2.326 1_554 S
O66 In65 2.294 . S
O66 C75 1.240 . S
O67 In65 2.326 . S
O67 C75 1.252 . S
C68 O71 1.252 . S
C68 O72 1.260 . S
C69 O76 1.240 1_556 S
C69 O77 1.252 . S
C70 O73 1.252 . S
C70 O74 1.260 . S
O71 In65 2.266 . S
O71 C68 1.252 . S
O72 In65 2.326 . S
O72 C68 1.260 . S
O73 In65 2.266 . S
O73 C70 1.252 . S
O74 In65 2.326 . S
O74 C70 1.260 . S
C75 O66 1.240 . S
C75 O67 1.252 . S
O76 In65 2.294 . S
O76 C69 1.240 1_554 S
O77 In65 2.326 1_556 S
O77 C69 1.252 . S
In78 O79 2.294 . S
In78 O80 2.326 . S
In78 O84 2.266 . S
In78 O85 2.326 . S
In78 O86 2.266 . S
In78 O87 2.326 . S
In78 O89 2.294 . S
In78 O90 2.326 . S
O79 In78 2.294 . S
O79 C88 1.240 . S
O80 In78 2.326 . S
O80 C88 1.252 . S
C81 O84 1.252 . S
C81 O85 1.260 . S
C82 O89 1.240 . S
C82 O90 1.252 . S
C83 O86 1.252 . S
C83 O87 1.260 . S
O84 In78 2.266 . S
O84 C81 1.252 . S
O85 In78 2.326 . S
O85 C81 1.260 . S
O86 In78 2.266 . S
O86 C83 1.252 . S
O87 In78 2.326 . S
O87 C83 1.260 . S
C88 O79 1.240 . S
C88 O80 1.252 . S
O89 In78 2.294 . S
O89 C82 1.240 . S
O90 In78 2.326 . S
O90 C82 1.252 . S
In91 O92 2.294 . S
In91 O93 2.326 . S
In91 O97 2.266 . S
In91 O98 2.326 . S
In91 O99 2.266 . S
In91 O100 2.326 . S
In91 O102 2.294 . S
In91 O103 2.326 1_554 S
O92 In91 2.294 . S
O92 C101 1.240 . S
O93 In91 2.326 . S
O93 C101 1.252 . S
C94 O97 1.252 . S
C94 O98 1.260 . S
C95 O102 1.240 1_556 S
C95 O103 1.252 . S
C96 O99 1.252 . S
C96 O100 1.260 . S
O97 In91 2.266 . S
O97 C94 1.252 . S
O98 In91 2.326 . S
O98 C94 1.260 . S
O99 In91 2.266 . S
O99 C96 1.252 . S
O100 In91 2.326 . S
O100 C96 1.260 . S
C101 O92 1.240 . S
C101 O93 1.252 . S
O102 In91 2.294 . S
O102 C95 1.240 1_554 S
O103 In91 2.326 1_556 S
O103 C95 1.252 . S
H104 C112 0.929 . S
H105 C114 0.930 . S
H106 C116 0.930 . S
H107 C119 0.929 . S
H108 C122 0.930 . S
H109 C124 0.960 . S
H110 C124 0.960 . S
H111 C124 0.960 . S
C112 H104 0.929 . S
C112 C113 1.377 . S
C112 C114 1.384 . S
C113 C112 1.377 . S
C113 C119 1.390 . S
C114 H105 0.930 . S
C114 C112 1.384 . S
C114 C115 1.372 . S
C115 C114 1.372 . S
C115 C116 1.400 . S
C115 C120 1.490 . S
C116 H106 0.930 . S
C116 C115 1.400 . S
C116 C119 1.386 . S
H117 C133 0.930 . S
H118 C134 0.931 . S
C119 H107 0.929 . S
C119 C113 1.390 . S
C119 C116 1.386 . S
C120 C115 1.490 . S
C120 C122 1.395 . S
C120 C123 1.403 . S
H121 C127 0.930 . S
C122 H108 0.930 . S
C122 C120 1.395 . S
C122 C125 1.403 . S
C123 C120 1.403 . S
C123 C124 1.524 . S
C123 C127 1.400 . S
C124 H109 0.960 . S
C124 H110 0.960 . S
C124 H111 0.960 . S
C124 C123 1.524 . S
C125 C122 1.403 . S
C125 C126 1.392 . S
C125 C129 1.495 . S
C126 C125 1.392 . S
C126 C127 1.385 . S
C126 C128 1.478 . S
C127 H121 0.930 . S
C127 C123 1.400 . S
C127 C126 1.385 . S
C128 C126 1.478 . S
C128 C130 1.381 . S
C128 C134 1.383 . S
C129 C125 1.495 . S
C129 H135 0.959 . S
C129 H136 0.961 . S
C129 H137 0.960 . S
C130 C128 1.381 . S
C130 C131 1.394 . S
C130 H138 0.930 . S
C131 C130 1.394 . S
C131 C132 1.383 . S
C131 H139 0.929 . S
C132 C131 1.383 . S
C132 C133 1.377 . S
C133 H117 0.930 . S
C133 C132 1.377 . S
C133 C134 1.379 . S
C134 H118 0.931 . S
C134 C128 1.383 . S
C134 C133 1.379 . S
H135 C129 0.959 . S
H136 C129 0.961 . S
H137 C129 0.960 . S
H138 C130 0.930 . S
H139 C131 0.929 . S
H140 C148 0.929 . S
H141 C150 0.930 . S
H142 C152 0.930 . S
H143 C155 0.929 . S
H144 C158 0.930 . S
H145 C160 0.960 . S
H146 C160 0.960 . S
H147 C160 0.960 . S
C148 H140 0.929 . S
C148 C149 1.377 . S
C148 C150 1.384 . S
C149 C148 1.377 . S
C149 C155 1.390 . S
C150 H141 0.930 . S
C150 C148 1.384 . S
C150 C151 1.372 . S
C151 C150 1.372 . S
C151 C152 1.400 . S
C151 C156 1.490 . S
C152 H142 0.930 . S
C152 C151 1.400 . S
C152 C155 1.386 . S
H153 C169 0.930 . S
H154 C170 0.931 . S
C155 H143 0.929 . S
C155 C149 1.390 . S
C155 C152 1.386 . S
C156 C151 1.490 . S
C156 C158 1.395 . S
C156 C159 1.403 . S
H157 C163 0.930 . S
C158 H144 0.930 . S
C158 C156 1.395 . S
C158 C161 1.403 . S
C159 C156 1.403 . S
C159 C160 1.524 . S
C159 C163 1.400 . S
C160 H145 0.960 . S
C160 H146 0.960 . S
C160 H147 0.960 . S
C160 C159 1.524 . S
C161 C158 1.403 . S
C161 C162 1.392 . S
C161 C165 1.495 . S
C162 C161 1.392 . S
C162 C163 1.385 . S
C162 C164 1.478 . S
C163 H157 0.930 . S
C163 C159 1.400 . S
C163 C162 1.385 . S
C164 C162 1.478 . S
C164 C166 1.381 . S
C164 C170 1.383 . S
C165 C161 1.495 . S
C165 H171 0.959 . S
C165 H172 0.961 . S
C165 H173 0.960 . S
C166 C164 1.381 . S
C166 C167 1.394 . S
C166 H174 0.930 . S
C167 C166 1.394 . S
C167 C168 1.383 . S
C167 H175 0.929 . S
C168 C167 1.383 . S
C168 C169 1.377 . S
C169 H153 0.930 . S
C169 C168 1.377 . S
C169 C170 1.379 . S
C170 H154 0.931 . S
C170 C164 1.383 . S
C170 C169 1.379 . S
H171 C165 0.959 . S
H172 C165 0.961 . S
H173 C165 0.960 . S
H174 C166 0.930 . S
H175 C167 0.929 . S
H176 C184 0.929 . S
H177 C186 0.930 . S
H178 C188 0.930 . S
H179 C191 0.929 . S
H180 C194 0.930 . S
H181 C196 0.960 . S
H182 C196 0.960 . S
H183 C196 0.960 . S
C184 H176 0.929 . S
C184 C185 1.377 . S
C184 C186 1.384 . S
C185 C184 1.377 . S
C185 C191 1.390 . S
C186 H177 0.930 . S
C186 C184 1.384 . S
C186 C187 1.372 . S
C187 C186 1.372 . S
C187 C188 1.400 . S
C187 C192 1.490 . S
C188 H178 0.930 . S
C188 C187 1.400 . S
C188 C191 1.386 . S
H189 C205 0.930 . S
H190 C206 0.931 . S
C191 H179 0.929 . S
C191 C185 1.390 . S
C191 C188 1.386 . S
C192 C187 1.490 . S
C192 C194 1.395 . S
C192 C195 1.403 . S
H193 C199 0.930 . S
C194 H180 0.930 . S
C194 C192 1.395 . S
C194 C197 1.403 . S
C195 C192 1.403 . S
C195 C196 1.524 . S
C195 C199 1.400 . S
C196 H181 0.960 . S
C196 H182 0.960 . S
C196 H183 0.960 . S
C196 C195 1.524 . S
C197 C194 1.403 . S
C197 C198 1.392 . S
C197 C201 1.495 . S
C198 C197 1.392 . S
C198 C199 1.385 . S
C198 C200 1.478 . S
C199 H193 0.930 . S
C199 C195 1.400 . S
C199 C198 1.385 . S
C200 C198 1.478 . S
C200 C202 1.381 . S
C200 C206 1.383 . S
C201 C197 1.495 . S
C201 H207 0.959 . S
C201 H208 0.961 . S
C201 H209 0.960 . S
C202 C200 1.381 . S
C202 C203 1.394 . S
C202 H210 0.930 . S
C203 C202 1.394 . S
C203 C204 1.383 . S
C203 H211 0.929 . S
C204 C203 1.383 . S
C204 C205 1.377 . S
C205 H189 0.930 . S
C205 C204 1.377 . S
C205 C206 1.379 . S
C206 H190 0.931 . S
C206 C200 1.383 . S
C206 C205 1.379 . S
H207 C201 0.959 . S
H208 C201 0.961 . S
H209 C201 0.960 . S
H210 C202 0.930 . S
H211 C203 0.929 . S
H212 C220 0.929 . S
H213 C222 0.930 . S
H214 C224 0.930 . S
H215 C227 0.929 . S
H216 C230 0.930 . S
H217 C232 0.960 . S
H218 C232 0.960 . S
H219 C232 0.960 . S
C220 H212 0.929 . S
C220 C221 1.377 . S
C220 C222 1.384 . S
C221 C220 1.377 . S
C221 C227 1.390 . S
C222 H213 0.930 . S
C222 C220 1.384 . S
C222 C223 1.372 . S
C223 C222 1.372 . S
C223 C224 1.400 . S
C223 C228 1.490 . S
C224 H214 0.930 . S
C224 C223 1.400 . S
C224 C227 1.386 . S
H225 C241 0.930 . S
H226 C242 0.931 . S
C227 H215 0.929 . S
C227 C221 1.390 . S
C227 C224 1.386 . S
C228 C223 1.490 . S
C228 C230 1.395 . S
C228 C231 1.403 . S
H229 C235 0.930 . S
C230 H216 0.930 . S
C230 C228 1.395 . S
C230 C233 1.403 . S
C231 C228 1.403 . S
C231 C232 1.524 . S
C231 C235 1.400 . S
C232 H217 0.960 . S
C232 H218 0.960 . S
C232 H219 0.960 . S
C232 C231 1.524 . S
C233 C230 1.403 . S
C233 C234 1.392 . S
C233 C237 1.495 . S
C234 C233 1.392 . S
C234 C235 1.385 . S
C234 C236 1.478 . S
C235 H229 0.930 . S
C235 C231 1.400 . S
C235 C234 1.385 . S
C236 C234 1.478 . S
C236 C238 1.381 . S
C236 C242 1.383 . S
C237 C233 1.495 . S
C237 H243 0.959 . S
C237 H244 0.961 . S
C237 H245 0.960 . S
C238 C236 1.381 . S
C238 C239 1.394 . S
C238 H246 0.930 . S
C239 C238 1.394 . S
C239 C240 1.383 . S
C239 H247 0.929 . S
C240 C239 1.383 . S
C240 C241 1.377 . S
C241 H225 0.930 . S
C241 C240 1.377 . S
C241 C242 1.379 . S
C242 H226 0.931 . S
C242 C236 1.383 . S
C242 C241 1.379 . S
H243 C237 0.959 . S
H244 C237 0.961 . S
H245 C237 0.960 . S
H246 C238 0.930 . S
H247 C239 0.929 . S
H248 C256 0.929 . S
H249 C258 0.930 . S
H250 C260 0.930 . S
H251 C263 0.929 . S
H252 C266 0.930 . S
H253 C268 0.960 . S
H254 C268 0.960 . S
H255 C268 0.960 . S
C256 H248 0.929 . S
C256 C257 1.377 . S
C256 C258 1.384 . S
C257 C256 1.377 . S
C257 C263 1.390 . S
C258 H249 0.930 . S
C258 C256 1.384 . S
C258 C259 1.372 . S
C259 C258 1.372 . S
C259 C260 1.400 . S
C259 C264 1.490 . S
C260 H250 0.930 . S
C260 C259 1.400 . S
C260 C263 1.386 . S
H261 C277 0.930 . S
H262 C278 0.931 . S
C263 H251 0.929 . S
C263 C257 1.390 . S
C263 C260 1.386 . S
C264 C259 1.490 . S
C264 C266 1.395 . S
C264 C267 1.403 . S
H265 C271 0.930 . S
C266 H252 0.930 . S
C266 C264 1.395 . S
C266 C269 1.403 . S
C267 C264 1.403 . S
C267 C268 1.524 . S
C267 C271 1.400 . S
C268 H253 0.960 . S
C268 H254 0.960 . S
C268 H255 0.960 . S
C268 C267 1.524 . S
C269 C266 1.403 . S
C269 C270 1.392 . S
C269 C273 1.495 . S
C270 C269 1.392 . S
C270 C271 1.385 . S
C270 C272 1.478 . S
C271 H265 0.930 . S
C271 C267 1.400 . S
C271 C270 1.385 . S
C272 C270 1.478 . S
C272 C274 1.381 . S
C272 C278 1.383 . S
C273 C269 1.495 . S
C273 H279 0.959 . S
C273 H280 0.961 . S
C273 H281 0.960 . S
C274 C272 1.381 . S
C274 C275 1.394 . S
C274 H282 0.930 . S
C275 C274 1.394 . S
C275 C276 1.383 . S
C275 H283 0.929 . S
C276 C275 1.383 . S
C276 C277 1.377 . S
C277 H261 0.930 . S
C277 C276 1.377 . S
C277 C278 1.379 . S
C278 H262 0.931 . S
C278 C272 1.383 . S
C278 C277 1.379 . S
H279 C273 0.959 . S
H280 C273 0.961 . S
H281 C273 0.960 . S
H282 C274 0.930 . S
H283 C275 0.929 . S
H284 C292 0.929 . S
H285 C294 0.930 . S
H286 C296 0.930 . S
H287 C299 0.929 . S
H288 C302 0.930 . S
H289 C304 0.960 . S
H290 C304 0.960 . S
H291 C304 0.960 . S
C292 H284 0.929 . S
C292 C293 1.377 . S
C292 C294 1.384 . S
C293 C292 1.377 . S
C293 C299 1.390 . S
C294 H285 0.930 . S
C294 C292 1.384 . S
C294 C295 1.372 . S
C295 C294 1.372 . S
C295 C296 1.400 . S
C295 C300 1.490 . S
C296 H286 0.930 . S
C296 C295 1.400 . S
C296 C299 1.386 . S
H297 C313 0.930 . S
H298 C314 0.931 . S
C299 H287 0.929 . S
C299 C293 1.390 . S
C299 C296 1.386 . S
C300 C295 1.490 . S
C300 C302 1.395 . S
C300 C303 1.403 . S
H301 C307 0.930 . S
C302 H288 0.930 . S
C302 C300 1.395 . S
C302 C305 1.403 . S
C303 C300 1.403 . S
C303 C304 1.524 . S
C303 C307 1.400 . S
C304 H289 0.960 . S
C304 H290 0.960 . S
C304 H291 0.960 . S
C304 C303 1.524 . S
C305 C302 1.403 . S
C305 C306 1.392 . S
C305 C309 1.495 . S
C306 C305 1.392 . S
C306 C307 1.385 . S
C306 C308 1.478 . S
C307 H301 0.930 . S
C307 C303 1.400 . S
C307 C306 1.385 . S
C308 C306 1.478 . S
C308 C310 1.381 . S
C308 C314 1.383 . S
C309 C305 1.495 . S
C309 H315 0.959 . S
C309 H316 0.961 . S
C309 H317 0.960 . S
C310 C308 1.381 . S
C310 C311 1.394 . S
C310 H318 0.930 . S
C311 C310 1.394 . S
C311 C312 1.383 . S
C311 H319 0.929 . S
C312 C311 1.383 . S
C312 C313 1.377 . S
C313 H297 0.930 . S
C313 C312 1.377 . S
C313 C314 1.379 . S
C314 H298 0.931 . S
C314 C308 1.383 . S
C314 C313 1.379 . S
H315 C309 0.959 . S
H316 C309 0.961 . S
H317 C309 0.960 . S
H318 C310 0.930 . S
H319 C311 0.929 . S
H320 C328 0.929 . S
H321 C330 0.930 . S
H322 C332 0.930 . S
H323 C335 0.929 . S
H324 C338 0.930 . S
H325 C340 0.960 . S
H326 C340 0.960 . S
H327 C340 0.960 . S
C328 H320 0.929 . S
C328 C329 1.377 . S
C328 C330 1.384 . S
C329 C328 1.377 . S
C329 C335 1.390 . S
C330 H321 0.930 . S
C330 C328 1.384 . S
C330 C331 1.372 . S
C331 C330 1.372 . S
C331 C332 1.400 . S
C331 C336 1.490 . S
C332 H322 0.930 . S
C332 C331 1.400 . S
C332 C335 1.386 . S
H333 C349 0.930 . S
H334 C350 0.931 . S
C335 H323 0.929 . S
C335 C329 1.390 . S
C335 C332 1.386 . S
C336 C331 1.490 . S
C336 C338 1.395 . S
C336 C339 1.403 . S
H337 C343 0.930 . S
C338 H324 0.930 . S
C338 C336 1.395 . S
C338 C341 1.403 . S
C339 C336 1.403 . S
C339 C340 1.524 . S
C339 C343 1.400 . S
C340 H325 0.960 . S
C340 H326 0.960 . S
C340 H327 0.960 . S
C340 C339 1.524 . S
C341 C338 1.403 . S
C341 C342 1.392 . S
C341 C345 1.495 . S
C342 C341 1.392 . S
C342 C343 1.385 . S
C342 C344 1.478 . S
C343 H337 0.930 . S
C343 C339 1.400 . S
C343 C342 1.385 . S
C344 C342 1.478 . S
C344 C346 1.381 . S
C344 C350 1.383 . S
C345 C341 1.495 . S
C345 H351 0.959 . S
C345 H352 0.961 . S
C345 H353 0.960 . S
C346 C344 1.381 . S
C346 C347 1.394 . S
C346 H354 0.930 . S
C347 C346 1.394 . S
C347 C348 1.383 . S
C347 H355 0.929 . S
C348 C347 1.383 . S
C348 C349 1.377 . S
C349 H333 0.930 . S
C349 C348 1.377 . S
C349 C350 1.379 . S
C350 H334 0.931 . S
C350 C344 1.383 . S
C350 C349 1.379 . S
H351 C345 0.959 . S
H352 C345 0.961 . S
H353 C345 0.960 . S
H354 C346 0.930 . S
H355 C347 0.929 . S
H356 C364 0.929 . S
H357 C366 0.930 . S
H358 C368 0.930 . S
H359 C371 0.929 . S
H360 C374 0.930 . S
H361 C376 0.960 . S
H362 C376 0.960 . S
H363 C376 0.960 . S
C364 H356 0.929 . S
C364 C365 1.377 . S
C364 C366 1.384 . S
C365 C364 1.377 . S
C365 C371 1.390 . S
C366 H357 0.930 . S
C366 C364 1.384 . S
C366 C367 1.372 . S
C367 C366 1.372 . S
C367 C368 1.400 . S
C367 C372 1.490 . S
C368 H358 0.930 . S
C368 C367 1.400 . S
C368 C371 1.386 . S
H369 C385 0.930 . S
H370 C386 0.931 . S
C371 H359 0.929 . S
C371 C365 1.390 . S
C371 C368 1.386 . S
C372 C367 1.490 . S
C372 C374 1.395 . S
C372 C375 1.403 . S
H373 C379 0.930 . S
C374 H360 0.930 . S
C374 C372 1.395 . S
C374 C377 1.403 . S
C375 C372 1.403 . S
C375 C376 1.524 . S
C375 C379 1.400 . S
C376 H361 0.960 . S
C376 H362 0.960 . S
C376 H363 0.960 . S
C376 C375 1.524 . S
C377 C374 1.403 . S
C377 C378 1.392 . S
C377 C381 1.495 . S
C378 C377 1.392 . S
C378 C379 1.385 . S
C378 C380 1.478 . S
C379 H373 0.930 . S
C379 C375 1.400 . S
C379 C378 1.385 . S
C380 C378 1.478 . S
C380 C382 1.381 . S
C380 C386 1.383 . S
C381 C377 1.495 . S
C381 H387 0.959 . S
C381 H388 0.961 . S
C381 H389 0.960 . S
C382 C380 1.381 . S
C382 C383 1.394 . S
C382 H390 0.930 . S
C383 C382 1.394 . S
C383 C384 1.383 . S
C383 H391 0.929 . S
C384 C383 1.383 . S
C384 C385 1.377 . S
C385 H369 0.930 . S
C385 C384 1.377 . S
C385 C386 1.379 . S
C386 H370 0.931 . S
C386 C380 1.383 . S
C386 C385 1.379 . S
H387 C381 0.959 . S
H388 C381 0.961 . S
H389 C381 0.960 . S
H390 C382 0.930 . S
H391 C383 0.929 . S
H392 C400 0.929 . S
H393 C402 0.930 . S
H394 C404 0.930 . S
H395 C407 0.929 . S
H396 C410 0.930 . S
H397 C412 0.960 1_455 S
H398 C412 0.960 1_554 S
H399 C412 0.960 . S
C400 H392 0.929 . S
C400 C401 1.377 . S
C400 C402 1.384 . S
C401 C400 1.377 . S
C401 C407 1.390 1_554 S
C402 H393 0.930 . S
C402 C400 1.384 . S
C402 C403 1.372 . S
C403 C402 1.372 . S
C403 C404 1.400 1_554 S
C403 C408 1.490 . S
C404 H394 0.930 . S
C404 C403 1.400 1_556 S
C404 C407 1.386 . S
H405 C421 0.930 . S
H406 C422 0.931 . S
C407 H395 0.929 . S
C407 C401 1.390 1_556 S
C407 C404 1.386 . S
C408 C403 1.490 . S
C408 C410 1.395 . S
C408 C411 1.403 . S
H409 C415 0.930 1_556 S
C410 H396 0.930 . S
C410 C408 1.395 . S
C410 C413 1.403 1_655 S
C411 C408 1.403 . S
C411 C412 1.524 1_554 S
C411 C415 1.400 1_655 S
C412 H397 0.960 1_655 S
C412 H398 0.960 1_556 S
C412 H399 0.960 . S
C412 C411 1.524 1_556 S
C413 C410 1.403 1_455 S
C413 C414 1.392 . S
C413 C417 1.495 . S
C414 C413 1.392 . S
C414 C415 1.385 . S
C414 C416 1.478 . S
C415 H409 0.930 1_554 S
C415 C411 1.400 1_455 S
C415 C414 1.385 . S
C416 C414 1.478 . S
C416 C418 1.381 . S
C416 C422 1.383 1_554 S
C417 C413 1.495 . S
C417 H423 0.959 1_455 S
C417 H424 0.961 . S
C417 H425 0.960 . S
C418 C416 1.381 . S
C418 C419 1.394 . S
C418 H426 0.930 . S
C419 C418 1.394 . S
C419 C420 1.383 . S
C419 H427 0.929 . S
C420 C419 1.383 . S
C420 C421 1.377 1_554 S
C421 H405 0.930 . S
C421 C420 1.377 1_556 S
C421 C422 1.379 . S
C422 H406 0.931 . S
C422 C416 1.383 1_556 S
C422 C421 1.379 . S
H423 C417 0.959 1_655 S
H424 C417 0.961 . S
H425 C417 0.960 . S
H426 C418 0.930 . S
H427 C419 0.929 . S
H428 C436 0.929 . S
H429 C438 0.930 . S
H430 C440 0.930 . S
H431 C443 0.929 . S
H432 C446 0.930 . S
H433 C448 0.960 1_545 S
H434 C448 0.960 . S
H435 C448 0.960 . S
C436 H428 0.929 . S
C436 C437 1.377 . S
C436 C438 1.384 . S
C437 C436 1.377 . S
C437 C443 1.390 . S
C438 H429 0.930 . S
C438 C436 1.384 . S
C438 C439 1.372 . S
C439 C438 1.372 . S
C439 C440 1.400 . S
C439 C444 1.490 . S
C440 H430 0.930 . S
C440 C439 1.400 . S
C440 C443 1.386 . S
H441 C457 0.930 . S
H442 C458 0.931 . S
C443 H431 0.929 . S
C443 C437 1.390 . S
C443 C440 1.386 . S
C444 C439 1.490 . S
C444 C446 1.395 . S
C444 C447 1.403 . S
H445 C451 0.930 . S
C446 H432 0.930 . S
C446 C444 1.395 . S
C446 C449 1.403 1_565 S
C447 C444 1.403 . S
C447 C448 1.524 . S
C447 C451 1.400 1_565 S
C448 H433 0.960 1_565 S
C448 H434 0.960 . S
C448 H435 0.960 . S
C448 C447 1.524 . S
C449 C446 1.403 1_545 S
C449 C450 1.392 . S
C449 C453 1.495 . S
C450 C449 1.392 . S
C450 C451 1.385 . S
C450 C452 1.478 . S
C451 H445 0.930 . S
C451 C447 1.400 1_545 S
C451 C450 1.385 . S
C452 C450 1.478 . S
C452 C454 1.381 . S
C452 C458 1.383 . S
C453 C449 1.495 . S
C453 H459 0.959 1_545 S
C453 H460 0.961 . S
C453 H461 0.960 . S
C454 C452 1.381 . S
C454 C455 1.394 . S
C454 H462 0.930 . S
C455 C454 1.394 . S
C455 C456 1.383 . S
C455 H463 0.929 . S
C456 C455 1.383 . S
C456 C457 1.377 . S
C457 H441 0.930 . S
C457 C456 1.377 . S
C457 C458 1.379 . S
C458 H442 0.931 . S
C458 C452 1.383 . S
C458 C457 1.379 . S
H459 C453 0.959 1_565 S
H460 C453 0.961 . S
H461 C453 0.960 . S
H462 C454 0.930 . S
H463 C455 0.929 . S
H464 C472 0.929 . S
H465 C474 0.930 . S
H466 C476 0.930 . S
H467 C479 0.929 . S
H468 C482 0.930 . S
H469 C484 0.960 . S
H470 C484 0.960 . S
H471 C484 0.960 . S
C472 H464 0.929 . S
C472 C473 1.377 . S
C472 C474 1.384 . S
C473 C472 1.377 . S
C473 C479 1.390 . S
C474 H465 0.930 . S
C474 C472 1.384 . S
C474 C475 1.372 . S
C475 C474 1.372 . S
C475 C476 1.400 . S
C475 C480 1.490 . S
C476 H466 0.930 . S
C476 C475 1.400 . S
C476 C479 1.386 . S
H477 C493 0.930 . S
H478 C494 0.931 . S
C479 H467 0.929 . S
C479 C473 1.390 . S
C479 C476 1.386 . S
C480 C475 1.490 . S
C480 C482 1.395 . S
C480 C483 1.403 . S
H481 C487 0.930 . S
C482 H468 0.930 . S
C482 C480 1.395 . S
C482 C485 1.403 1_455 S
C483 C480 1.403 . S
C483 C484 1.524 . S
C483 C487 1.400 1_455 S
C484 H469 0.960 . S
C484 H470 0.960 . S
C484 H471 0.960 . S
C484 C483 1.524 . S
C485 C482 1.403 1_655 S
C485 C486 1.392 . S
C485 C489 1.495 . S
C486 C485 1.392 . S
C486 C487 1.385 . S
C486 C488 1.478 . S
C487 H481 0.930 . S
C487 C483 1.400 1_655 S
C487 C486 1.385 . S
C488 C486 1.478 . S
C488 C490 1.381 . S
C488 C494 1.383 . S
C489 C485 1.495 . S
C489 H495 0.959 . S
C489 H496 0.961 . S
C489 H497 0.960 . S
C490 C488 1.381 . S
C490 C491 1.394 . S
C490 H498 0.930 . S
C491 C490 1.394 . S
C491 C492 1.383 . S
C491 H499 0.929 . S
C492 C491 1.383 . S
C492 C493 1.377 . S
C493 H477 0.930 . S
C493 C492 1.377 . S
C493 C494 1.379 . S
C494 H478 0.931 . S
C494 C488 1.383 . S
C494 C493 1.379 . S
H495 C489 0.959 . S
H496 C489 0.961 . S
H497 C489 0.960 . S
H498 C490 0.930 . S
H499 C491 0.929 . S
H500 C508 0.929 . S
H501 C510 0.930 . S
H502 C512 0.930 . S
H503 C515 0.920 1_556 S
H504 C518 0.930 . S
H505 C520 0.960 . S
H506 C520 0.960 . S
H507 C520 0.960 . S
C508 H500 0.929 . S
C508 C509 1.377 . S
C508 C510 1.384 . S
C509 C508 1.377 . S
C509 C515 1.390 . S
C510 H501 0.930 . S
C510 C508 1.384 . S
C510 C511 1.372 . S
C511 C510 1.372 . S
C511 C512 1.400 . S
C511 C516 1.490 . S
C512 H502 0.930 . S
C512 C511 1.400 . S
C512 C515 1.386 . S
H513 C529 0.930 1_556 S
H514 C530 0.929 . S
C515 H503 0.920 1_554 S
C515 C509 1.390 . S
C515 C512 1.386 . S
C516 C511 1.490 . S
C516 C518 1.395 . S
C516 C519 1.403 . S
H517 C523 0.930 . S
C518 H504 0.930 . S
C518 C516 1.395 . S
C518 C521 1.403 1_565 S
C519 C516 1.403 . S
C519 C520 1.524 . S
C519 C523 1.400 1_565 S
C520 H505 0.960 . S
C520 H506 0.960 . S
C520 H507 0.960 . S
C520 C519 1.524 . S
C521 C518 1.403 1_545 S
C521 C522 1.392 . S
C521 C525 1.495 . S
C522 C521 1.392 . S
C522 C523 1.385 . S
C522 C524 1.478 . S
C523 H517 0.930 . S
C523 C519 1.400 1_545 S
C523 C522 1.385 . S
C524 C522 1.478 . S
C524 C526 1.381 . S
C524 C530 1.383 . S
C525 C521 1.495 . S
C525 H531 0.959 . S
C525 H532 0.961 . S
C525 H533 0.960 . S
C526 C524 1.381 . S
C526 C527 1.394 . S
C526 H534 0.930 . S
C527 C526 1.394 . S
C527 C528 1.383 . S
C527 H535 0.929 . S
C528 C527 1.383 . S
C528 C529 1.377 . S
C529 H513 0.930 1_554 S
C529 C528 1.377 . S
C529 C530 1.379 . S
C530 H514 0.929 . S
C530 C524 1.383 . S
C530 C529 1.379 . S
H531 C525 0.959 . S
H532 C525 0.961 . S
H533 C525 0.960 . S
H534 C526 0.930 . S
H535 C527 0.929 . S
H536 C544 0.929 1_556 S
H537 C546 0.930 1_556 S
H538 C548 0.930 . S
H539 C551 0.929 . S
H540 C554 0.930 . S
H541 C556 0.960 . S
H542 C556 0.960 1_556 S
H543 C556 0.960 . S
C544 H536 0.929 1_554 S
C544 C545 1.377 . S
C544 C546 1.384 . S
C545 C544 1.377 . S
C545 C551 1.390 . S
C546 H537 0.930 1_554 S
C546 C544 1.384 . S
C546 C547 1.372 . S
C547 C546 1.372 . S
C547 C548 1.400 . S
C547 C552 1.490 . S
C548 H538 0.930 . S
C548 C547 1.400 . S
C548 C551 1.386 . S
H549 C565 0.930 . S
H550 C566 0.931 . S
C551 H539 0.929 . S
C551 C545 1.390 . S
C551 C548 1.386 . S
C552 C547 1.490 . S
C552 C554 1.395 . S
C552 C555 1.403 . S
H553 C559 0.930 . S
C554 H540 0.930 . S
C554 C552 1.395 . S
C554 C557 1.403 . S
C555 C552 1.403 . S
C555 C556 1.524 . S
C555 C559 1.400 . S
C556 H541 0.960 . S
C556 H542 0.960 1_554 S
C556 H543 0.960 . S
C556 C555 1.524 . S
C557 C554 1.403 . S
C557 C558 1.392 . S
C557 C561 1.495 . S
C558 C557 1.392 . S
C558 C559 1.385 . S
C558 C560 1.478 . S
C559 H553 0.930 . S
C559 C555 1.400 . S
C559 C558 1.385 . S
C560 C558 1.478 . S
C560 C562 1.381 . S
C560 C566 1.383 . S
C561 C557 1.495 . S
C561 H567 0.959 . S
C561 H568 0.961 . S
C561 H569 0.960 . S
C562 C560 1.381 . S
C562 C563 1.394 . S
C562 H570 0.930 1_554 S
C563 C562 1.394 . S
C563 C564 1.383 . S
C563 H571 0.929 1_554 S
C564 C563 1.383 . S
C564 C565 1.377 . S
C565 H549 0.930 . S
C565 C564 1.377 . S
C565 C566 1.379 . S
C566 H550 0.931 . S
C566 C560 1.383 . S
C566 C565 1.379 . S
H567 C561 0.959 . S
H568 C561 0.961 . S
H569 C561 0.960 . S
H570 C562 0.930 1_556 S
H571 C563 0.929 1_556 S
H572 C580 0.929 . S
H573 C582 0.930 . S
H574 C584 0.930 . S
H575 C587 0.929 . S
H576 C590 0.930 . S
H577 C592 0.960 . S
H578 C592 0.960 . S
H579 C592 0.960 . S
C580 H572 0.929 . S
C580 C581 1.377 . S
C580 C582 1.384 . S
C581 C580 1.377 . S
C581 C587 1.390 . S
C582 H573 0.930 . S
C582 C580 1.384 . S
C582 C583 1.372 . S
C583 C582 1.372 . S
C583 C584 1.400 . S
C583 C588 1.490 . S
C584 H574 0.930 . S
C584 C583 1.400 . S
C584 C587 1.386 . S
H585 C601 0.930 . S
H586 C602 0.931 . S
C587 H575 0.929 . S
C587 C581 1.390 . S
C587 C584 1.386 . S
C588 C583 1.490 . S
C588 C590 1.395 . S
C588 C591 1.403 . S
H589 C595 0.930 . S
C590 H576 0.930 . S
C590 C588 1.395 . S
C590 C593 1.403 . S
C591 C588 1.403 . S
C591 C592 1.524 . S
C591 C595 1.400 . S
C592 H577 0.960 . S
C592 H578 0.960 . S
C592 H579 0.960 . S
C592 C591 1.524 . S
C593 C590 1.403 . S
C593 C594 1.392 . S
C593 C597 1.495 . S
C594 C593 1.392 . S
C594 C595 1.385 . S
C594 C596 1.478 . S
C595 H589 0.930 . S
C595 C591 1.400 . S
C595 C594 1.385 . S
C596 C594 1.478 . S
C596 C598 1.381 . S
C596 C602 1.383 . S
C597 C593 1.495 . S
C597 H603 0.959 . S
C597 H604 0.961 . S
C597 H605 0.960 . S
C598 C596 1.381 . S
C598 C599 1.394 . S
C598 H606 0.930 . S
C599 C598 1.394 . S
C599 C600 1.383 . S
C599 H607 0.929 . S
C600 C599 1.383 . S
C600 C601 1.377 . S
C601 H585 0.930 . S
C601 C600 1.377 . S
C601 C602 1.379 . S
C602 H586 0.931 . S
C602 C596 1.383 . S
C602 C601 1.379 . S
H603 C597 0.959 . S
H604 C597 0.961 . S
H605 C597 0.960 . S
H606 C598 0.930 . S
H607 C599 0.929 . S
H608 C616 0.946 . S
H609 C618 0.955 . S
H610 C620 0.930 . S
H611 C623 0.929 . S
H612 C626 0.930 . S
H613 C628 0.960 . S
H614 C628 0.960 . S
H615 C628 0.960 . S
C616 H608 0.946 . S
C616 C617 1.361 1_556 S
C616 C618 1.384 . S
C617 C616 1.361 1_554 S
C617 C623 1.390 . S
C618 H609 0.955 . S
C618 C616 1.384 . S
C618 C619 1.347 1_556 S
C619 C618 1.347 1_554 S
C619 C620 1.400 . S
C619 C624 1.490 . S
C620 H610 0.930 . S
C620 C619 1.400 . S
C620 C623 1.386 . S
H621 C637 0.930 . S
H622 C638 0.931 . S
C623 H611 0.929 . S
C623 C617 1.390 . S
C623 C620 1.386 . S
C624 C619 1.490 . S
C624 C626 1.395 . S
C624 C627 1.403 . S
H625 C631 0.930 . S
C626 H612 0.930 . S
C626 C624 1.395 . S
C626 C629 1.403 . S
C627 C624 1.403 . S
C627 C628 1.524 . S
C627 C631 1.400 . S
C628 H613 0.960 . S
C628 H614 0.960 . S
C628 H615 0.960 . S
C628 C627 1.524 . S
C629 C626 1.403 . S
C629 C630 1.392 . S
C629 C633 1.495 . S
C630 C629 1.392 . S
C630 C631 1.385 . S
C630 C632 1.478 . S
C631 H625 0.930 . S
C631 C627 1.400 . S
C631 C630 1.385 . S
C632 C630 1.478 . S
C632 C634 1.378 . S
C632 C638 1.383 . S
C633 C629 1.495 . S
C633 H639 0.959 . S
C633 H640 0.961 . S
C633 H641 0.959 1_554 S
C634 C632 1.378 . S
C634 C635 1.394 . S
C634 H642 0.933 1_554 S
C635 C634 1.394 . S
C635 C636 1.395 . S
C635 H643 0.917 1_554 S
C636 C635 1.395 . S
C636 C637 1.377 . S
C637 H621 0.930 . S
C637 C636 1.377 . S
C637 C638 1.379 . S
C638 H622 0.931 . S
C638 C632 1.383 . S
C638 C637 1.379 . S
H639 C633 0.959 . S
H640 C633 0.961 . S
H641 C633 0.959 1_556 S
H642 C634 0.933 1_556 S
H643 C635 0.917 1_556 S
H644 C652 0.929 . S
H645 C654 0.930 . S
H646 C656 0.930 . S
H647 C659 0.929 . S
H648 C662 0.930 . S
H649 C664 0.960 . S
H650 C664 0.960 . S
H651 C664 0.960 . S
C652 H644 0.929 . S
C652 C653 1.377 . S
C652 C654 1.384 . S
C653 C652 1.377 . S
C653 C659 1.390 . S
C654 H645 0.930 . S
C654 C652 1.384 . S
C654 C655 1.372 . S
C655 C654 1.372 . S
C655 C656 1.400 . S
C655 C660 1.490 . S
C656 H646 0.930 . S
C656 C655 1.400 . S
C656 C659 1.386 . S
H657 C673 0.930 . S
H658 C674 0.931 . S
C659 H647 0.929 . S
C659 C653 1.390 . S
C659 C656 1.386 . S
C660 C655 1.490 . S
C660 C662 1.395 . S
C660 C663 1.403 . S
H661 C667 0.930 . S
C662 H648 0.930 . S
C662 C660 1.395 . S
C662 C665 1.403 . S
C663 C660 1.403 . S
C663 C664 1.524 . S
C663 C667 1.400 . S
C664 H649 0.960 . S
C664 H650 0.960 . S
C664 H651 0.960 . S
C664 C663 1.524 . S
C665 C662 1.403 . S
C665 C666 1.392 . S
C665 C669 1.495 . S
C666 C665 1.392 . S
C666 C667 1.385 . S
C666 C668 1.478 . S
C667 H661 0.930 . S
C667 C663 1.400 . S
C667 C666 1.385 . S
C668 C666 1.478 . S
C668 C670 1.381 . S
C668 C674 1.383 . S
C669 C665 1.495 . S
C669 H675 0.959 . S
C669 H676 0.961 . S
C669 H677 0.960 . S
C670 C668 1.381 . S
C670 C671 1.394 . S
C670 H678 0.930 . S
C671 C670 1.394 . S
C671 C672 1.383 . S
C671 H679 0.929 . S
C672 C671 1.383 . S
C672 C673 1.377 . S
C673 H657 0.930 . S
C673 C672 1.377 . S
C673 C674 1.379 . S
C674 H658 0.931 . S
C674 C668 1.383 . S
C674 C673 1.379 . S
H675 C669 0.959 . S
H676 C669 0.961 . S
H677 C669 0.960 . S
H678 C670 0.930 . S
H679 C671 0.929 . S
C113 C10 1.616 . S
C132 C62 1.607 . S
C149 C17 1.620 . S
C168 C69 1.613 . S
C185 C88 1.615 . S
C204 C36 1.616 . S
C221 C95 1.615 . S
C240 C49 1.629 . S
C257 C81 0.877 . S
C276 C29 0.886 . S
C293 C96 0.868 . S
C312 C42 0.869 . S
C329 C3 0.869 . S
C348 C55 0.877 . S
C365 C18 0.872 . S
C384 C70 0.889 . S
C401 C31 1.412 . S
C420 C5 1.417 . S
C437 C44 1.412 . S
C456 C16 1.417 . S
C473 C57 1.412 . S
C492 C83 1.399 . S
C509 C94 1.411 . S
C528 C68 1.400 . S
C545 C4 1.392 . S
C564 C75 1.385 . S
C581 C82 1.393 . S
C600 C23 1.386 . S
C617 C30 1.392 . S
C636 C101 1.385 . S
C653 C43 1.392 . S
C672 C56 1.385 . S
