# Generated by pormake.
# Topology mer, (4)-cn, num edge types: 1
# Building blocks:
#     Node 0, Type 0, BuildingBlock: QUQFOY_clean_sbu_1, # of connection points: 4
#     Node 1, Type 0, BuildingBlock: QUQFOY_clean_sbu_1, # of connection points: 4
#     Node 2, Type 0, BuildingBlock: QUQFOY_clean_sbu_1, # of connection points: 4
#     Node 3, Type 0, BuildingBlock: QUQFOY_clean_sbu_1, # of connection points: 4
#     Node 4, Type 0, BuildingBlock: QUQFOY_clean_sbu_1, # of connection points: 4
#     Node 5, Type 0, BuildingBlock: QUQFOY_clean_sbu_1, # of connection points: 4
#     Node 6, Type 0, BuildingBlock: QUQFOY_clean_sbu_1, # of connection points: 4
#     Node 7, Type 0, BuildingBlock: QUQFOY_clean_sbu_1, # of connection points: 4
#     Node 8, Type 0, BuildingBlock: QUQFOY_clean_sbu_1, # of connection points: 4
#     Node 9, Type 0, BuildingBlock: QUQFOY_clean_sbu_1, # of connection points: 4
#     Node 10, Type 0, BuildingBlock: QUQFOY_clean_sbu_1, # of connection points: 4
#     Node 11, Type 0, BuildingBlock: QUQFOY_clean_sbu_1, # of connection points: 4
#     Node 12, Type 0, BuildingBlock: QUQFOY_clean_sbu_1, # of connection points: 4
#     Node 13, Type 0, BuildingBlock: QUQFOY_clean_sbu_1, # of connection points: 4
#     Node 14, Type 0, BuildingBlock: QUQFOY_clean_sbu_1, # of connection points: 4
#     Node 15, Type 0, BuildingBlock: QUQFOY_clean_sbu_1, # of connection points: 4
#     Node 16, Type 0, BuildingBlock: QUQFOY_clean_sbu_1, # of connection points: 4
#     Node 17, Type 0, BuildingBlock: QUQFOY_clean_sbu_1, # of connection points: 4
#     Node 18, Type 0, BuildingBlock: QUQFOY_clean_sbu_1, # of connection points: 4
#     Node 19, Type 0, BuildingBlock: QUQFOY_clean_sbu_1, # of connection points: 4
#     Node 20, Type 0, BuildingBlock: QUQFOY_clean_sbu_1, # of connection points: 4
#     Node 21, Type 0, BuildingBlock: QUQFOY_clean_sbu_1, # of connection points: 4
#     Node 22, Type 0, BuildingBlock: QUQFOY_clean_sbu_1, # of connection points: 4
#     Node 23, Type 0, BuildingBlock: QUQFOY_clean_sbu_1, # of connection points: 4
#     Node 24, Type 0, BuildingBlock: QUQFOY_clean_sbu_1, # of connection points: 4
#     Node 25, Type 0, BuildingBlock: QUQFOY_clean_sbu_1, # of connection points: 4
#     Node 26, Type 0, BuildingBlock: QUQFOY_clean_sbu_1, # of connection points: 4
#     Node 27, Type 0, BuildingBlock: QUQFOY_clean_sbu_1, # of connection points: 4
#     Node 28, Type 0, BuildingBlock: QUQFOY_clean_sbu_1, # of connection points: 4
#     Node 29, Type 0, BuildingBlock: QUQFOY_clean_sbu_1, # of connection points: 4
#     Node 30, Type 0, BuildingBlock: QUQFOY_clean_sbu_1, # of connection points: 4
#     Node 31, Type 0, BuildingBlock: QUQFOY_clean_sbu_1, # of connection points: 4
#     Edge 32, Type (0, 0), BuildingBlock: TEMPAE_clean_linker_10, # of connection points: 2
#     Edge 33, Type (0, 0), BuildingBlock: TEMPAE_clean_linker_10, # of connection points: 2
#     Edge 34, Type (0, 0), BuildingBlock: TEMPAE_clean_linker_10, # of connection points: 2
#     Edge 35, Type (0, 0), BuildingBlock: TEMPAE_clean_linker_10, # of connection points: 2
#     Edge 36, Type (0, 0), BuildingBlock: TEMPAE_clean_linker_10, # of connection points: 2
#     Edge 37, Type (0, 0), BuildingBlock: TEMPAE_clean_linker_10, # of connection points: 2
#     Edge 38, Type (0, 0), BuildingBlock: TEMPAE_clean_linker_10, # of connection points: 2
#     Edge 39, Type (0, 0), BuildingBlock: TEMPAE_clean_linker_10, # of connection points: 2
#     Edge 40, Type (0, 0), BuildingBlock: TEMPAE_clean_linker_10, # of connection points: 2
#     Edge 41, Type (0, 0), BuildingBlock: TEMPAE_clean_linker_10, # of connection points: 2
#     Edge 42, Type (0, 0), BuildingBlock: TEMPAE_clean_linker_10, # of connection points: 2
#     Edge 43, Type (0, 0), BuildingBlock: TEMPAE_clean_linker_10, # of connection points: 2
#     Edge 44, Type (0, 0), BuildingBlock: TEMPAE_clean_linker_10, # of connection points: 2
#     Edge 45, Type (0, 0), BuildingBlock: TEMPAE_clean_linker_10, # of connection points: 2
#     Edge 46, Type (0, 0), BuildingBlock: TEMPAE_clean_linker_10, # of connection points: 2
#     Edge 47, Type (0, 0), BuildingBlock: TEMPAE_clean_linker_10, # of connection points: 2
#     Edge 48, Type (0, 0), BuildingBlock: TEMPAE_clean_linker_10, # of connection points: 2
#     Edge 49, Type (0, 0), BuildingBlock: TEMPAE_clean_linker_10, # of connection points: 2
#     Edge 50, Type (0, 0), BuildingBlock: TEMPAE_clean_linker_10, # of connection points: 2
#     Edge 51, Type (0, 0), BuildingBlock: TEMPAE_clean_linker_10, # of connection points: 2
#     Edge 52, Type (0, 0), BuildingBlock: TEMPAE_clean_linker_10, # of connection points: 2
#     Edge 53, Type (0, 0), BuildingBlock: TEMPAE_clean_linker_10, # of connection points: 2
#     Edge 54, Type (0, 0), BuildingBlock: TEMPAE_clean_linker_10, # of connection points: 2
#     Edge 55, Type (0, 0), BuildingBlock: TEMPAE_clean_linker_10, # of connection points: 2
#     Edge 56, Type (0, 0), BuildingBlock: TEMPAE_clean_linker_10, # of connection points: 2
#     Edge 57, Type (0, 0), BuildingBlock: TEMPAE_clean_linker_10, # of connection points: 2
#     Edge 58, Type (0, 0), BuildingBlock: TEMPAE_clean_linker_10, # of connection points: 2
#     Edge 59, Type (0, 0), BuildingBlock: TEMPAE_clean_linker_10, # of connection points: 2
#     Edge 60, Type (0, 0), BuildingBlock: TEMPAE_clean_linker_10, # of connection points: 2
#     Edge 61, Type (0, 0), BuildingBlock: TEMPAE_clean_linker_10, # of connection points: 2
#     Edge 62, Type (0, 0), BuildingBlock: TEMPAE_clean_linker_10, # of connection points: 2
#     Edge 63, Type (0, 0), BuildingBlock: TEMPAE_clean_linker_10, # of connection points: 2
#     Edge 64, Type (0, 0), BuildingBlock: TEMPAE_clean_linker_10, # of connection points: 2
#     Edge 65, Type (0, 0), BuildingBlock: TEMPAE_clean_linker_10, # of connection points: 2
#     Edge 66, Type (0, 0), BuildingBlock: TEMPAE_clean_linker_10, # of connection points: 2
#     Edge 67, Type (0, 0), BuildingBlock: TEMPAE_clean_linker_10, # of connection points: 2
#     Edge 68, Type (0, 0), BuildingBlock: TEMPAE_clean_linker_10, # of connection points: 2
#     Edge 69, Type (0, 0), BuildingBlock: TEMPAE_clean_linker_10, # of connection points: 2
#     Edge 70, Type (0, 0), BuildingBlock: TEMPAE_clean_linker_10, # of connection points: 2
#     Edge 71, Type (0, 0), BuildingBlock: TEMPAE_clean_linker_10, # of connection points: 2
#     Edge 72, Type (0, 0), BuildingBlock: TEMPAE_clean_linker_10, # of connection points: 2
#     Edge 73, Type (0, 0), BuildingBlock: TEMPAE_clean_linker_10, # of connection points: 2
#     Edge 74, Type (0, 0), BuildingBlock: TEMPAE_clean_linker_10, # of connection points: 2
#     Edge 75, Type (0, 0), BuildingBlock: TEMPAE_clean_linker_10, # of connection points: 2
#     Edge 76, Type (0, 0), BuildingBlock: TEMPAE_clean_linker_10, # of connection points: 2
#     Edge 77, Type (0, 0), BuildingBlock: TEMPAE_clean_linker_10, # of connection points: 2
#     Edge 78, Type (0, 0), BuildingBlock: TEMPAE_clean_linker_10, # of connection points: 2
#     Edge 79, Type (0, 0), BuildingBlock: TEMPAE_clean_linker_10, # of connection points: 2
#     Edge 80, Type (0, 0), BuildingBlock: TEMPAE_clean_linker_10, # of connection points: 2
#     Edge 81, Type (0, 0), BuildingBlock: TEMPAE_clean_linker_10, # of connection points: 2
#     Edge 82, Type (0, 0), BuildingBlock: TEMPAE_clean_linker_10, # of connection points: 2
#     Edge 83, Type (0, 0), BuildingBlock: TEMPAE_clean_linker_10, # of connection points: 2
#     Edge 84, Type (0, 0), BuildingBlock: TEMPAE_clean_linker_10, # of connection points: 2
#     Edge 85, Type (0, 0), BuildingBlock: TEMPAE_clean_linker_10, # of connection points: 2
#     Edge 86, Type (0, 0), BuildingBlock: TEMPAE_clean_linker_10, # of connection points: 2
#     Edge 87, Type (0, 0), BuildingBlock: TEMPAE_clean_linker_10, # of connection points: 2
#     Edge 88, Type (0, 0), BuildingBlock: TEMPAE_clean_linker_10, # of connection points: 2
#     Edge 89, Type (0, 0), BuildingBlock: TEMPAE_clean_linker_10, # of connection points: 2
#     Edge 90, Type (0, 0), BuildingBlock: TEMPAE_clean_linker_10, # of connection points: 2
#     Edge 91, Type (0, 0), BuildingBlock: TEMPAE_clean_linker_10, # of connection points: 2
#     Edge 92, Type (0, 0), BuildingBlock: TEMPAE_clean_linker_10, # of connection points: 2
#     Edge 93, Type (0, 0), BuildingBlock: TEMPAE_clean_linker_10, # of connection points: 2
#     Edge 94, Type (0, 0), BuildingBlock: TEMPAE_clean_linker_10, # of connection points: 2
#     Edge 95, Type (0, 0), BuildingBlock: TEMPAE_clean_linker_10, # of connection points: 2
# Relax obj value: 0.010
# Max RMSD: 0.056
# Mean RMSD: 0.056
data_MOF--net-mer--node1-QUQFOY_clean_sbu_1--edge1-TEMPAE_clean_linker_10
_symmetry_space_group_name_H-M    P1
_symmetry_Int_Tables_number       1
_symmetry_cell_setting            triclinic
loop_
_symmetry_equiv_pos_as_xyz
'x, y, z'
_cell_length_a     68.892877
_cell_length_b     68.871542
_cell_length_c     55.560623
_cell_angle_alpha  89.988419
_cell_angle_beta   90.006512
_cell_angle_gamma 89.975209
loop_
_atom_site_label
_atom_site_type_symbol
_atom_site_fract_x
_atom_site_fract_y
_atom_site_fract_z
_atom_type_partial_charge
O0 O 0.15167 0.26893 0.36494 0.0
Cd1 Cd 0.13695 0.29504 0.36726 0.0
Cd2 Cd 0.10758 0.26998 0.37314 0.0
O3 O 0.12658 0.24962 0.35903 0.0
O4 O 0.15472 0.31398 0.35147 0.0
O5 O 0.12574 0.30669 0.33696 0.0
C6 C 0.14199 0.31588 0.33461 0.0
C7 C 0.07461 0.27 0.36278 0.0
C8 C 0.14483 0.25228 0.35988 0.0
C9 C 0.12189 0.29363 0.41614 0.0
O10 O 0.11303 0.27876 0.40817 0.0
O11 O 0.13108 0.30464 0.40175 0.0
O12 O 0.08186 0.25703 0.37686 0.0
O13 O 0.08626 0.28264 0.35348 0.0
O14 O 0.74627 0.15026 0.35505 0.0
Cd15 Cd 0.71969 0.13746 0.36111 0.0
Cd16 Cd 0.74295 0.10571 0.37006 0.0
O17 O 0.76512 0.12478 0.36105 0.0
O18 O 0.70108 0.15605 0.3461 0.0
O19 O 0.70549 0.12621 0.33254 0.0
C20 C 0.69735 0.14302 0.3301 0.0
C21 C 0.74218 0.07411 0.35485 0.0
C22 C 0.76305 0.14263 0.3558 0.0
C23 C 0.71825 0.12068 0.41105 0.0
O24 O 0.73089 0.10857 0.40381 0.0
O25 O 0.71141 0.13346 0.3968 0.0
O26 O 0.75531 0.07953 0.36993 0.0
O27 O 0.72979 0.08689 0.3475 0.0
O28 O 0.85183 0.74099 0.36363 0.0
Cd29 Cd 0.86808 0.71575 0.36417 0.0
Cd30 Cd 0.896 0.74162 0.36859 0.0
O31 O 0.87579 0.76081 0.35464 0.0
O32 O 0.85072 0.69596 0.34923 0.0
O33 O 0.8784 0.70535 0.33276 0.0
C34 C 0.86265 0.69521 0.33135 0.0
C35 C 0.9281 0.74082 0.35498 0.0
C36 C 0.85775 0.75773 0.35745 0.0
C37 C 0.88518 0.71786 0.41216 0.0
O38 O 0.89227 0.7337 0.40429 0.0
O39 O 0.87669 0.70623 0.39784 0.0
O40 O 0.92149 0.75534 0.36711 0.0
O41 O 0.91624 0.72694 0.34965 0.0
O42 O 0.25811 0.85669 0.36048 0.0
Cd43 Cd 0.28598 0.86671 0.36585 0.0
Cd44 Cd 0.26498 0.90009 0.37878 0.0
O45 O 0.24121 0.88222 0.37242 0.0
O46 O 0.30227 0.8471 0.34881 0.0
O47 O 0.30075 0.87783 0.33758 0.0
C48 C 0.3072 0.86048 0.33378 0.0
C49 C 0.26395 0.93282 0.36738 0.0
C50 C 0.24191 0.86488 0.36458 0.0
C51 C 0.29184 0.88168 0.41595 0.0
O52 O 0.28055 0.89541 0.4099 0.0
O53 O 0.29591 0.86815 0.40119 0.0
O54 O 0.25411 0.92635 0.38537 0.0
O55 O 0.27386 0.92049 0.35489 0.0
O56 O 0.15067 0.74444 0.6549 0.0
Cd57 Cd 0.13535 0.71895 0.64913 0.0
Cd58 Cd 0.10705 0.74533 0.64002 0.0
O59 O 0.12653 0.76543 0.65295 0.0
O60 O 0.15303 0.69901 0.66319 0.0
O61 O 0.12416 0.7056 0.67842 0.0
C62 C 0.14042 0.69631 0.67999 0.0
C63 C 0.07499 0.74407 0.6535 0.0
C64 C 0.14434 0.76172 0.65664 0.0
C65 C 0.1208 0.7211 0.59844 0.0
O66 O 0.11176 0.73624 0.60523 0.0
O67 O 0.1299 0.71066 0.61363 0.0
O68 O 0.08115 0.75826 0.64044 0.0
O69 O 0.08725 0.73076 0.65968 0.0
O70 O 0.26389 0.1519 0.6407 0.0
Cd71 Cd 0.2915 0.14056 0.63967 0.0
Cd72 Cd 0.27028 0.10698 0.63013 0.0
O73 O 0.24672 0.12487 0.63831 0.0
O74 O 0.30766 0.15992 0.65743 0.0
O75 O 0.30365 0.12973 0.66996 0.0
C76 C 0.31079 0.14684 0.6736 0.0
C77 C 0.26966 0.07408 0.64135 0.0
C78 C 0.24761 0.14325 0.64058 0.0
C79 C 0.29682 0.12418 0.59095 0.0
O80 O 0.28433 0.11168 0.59759 0.0
O81 O 0.30274 0.13716 0.60547 0.0
O82 O 0.25902 0.08071 0.62417 0.0
O83 O 0.2802 0.08631 0.65315 0.0
O84 O 0.85183 0.26259 0.65492 0.0
Cd85 Cd 0.86731 0.28802 0.64918 0.0
Cd86 Cd 0.89558 0.26137 0.64074 0.0
O87 O 0.87598 0.24157 0.65401 0.0
O88 O 0.84982 0.30801 0.6636 0.0
O89 O 0.8788 0.30122 0.67842 0.0
C90 C 0.86257 0.31054 0.68029 0.0
C91 C 0.92785 0.26174 0.65362 0.0
C92 C 0.85812 0.24533 0.65719 0.0
C93 C 0.88201 0.28523 0.59863 0.0
O94 O 0.89083 0.27009 0.60582 0.0
O95 O 0.87301 0.29603 0.61355 0.0
O96 O 0.92111 0.24773 0.64073 0.0
O97 O 0.91607 0.27543 0.65995 0.0
O98 O 0.74385 0.85548 0.65034 0.0
Cd99 Cd 0.71574 0.86518 0.6452 0.0
Cd100 Cd 0.73677 0.8974 0.62843 0.0
O101 O 0.76071 0.88042 0.6366 0.0
O102 O 0.70027 0.84536 0.66301 0.0
O103 O 0.70093 0.87623 0.67357 0.0
C104 C 0.69507 0.85875 0.67784 0.0
C105 C 0.73642 0.93044 0.63852 0.0
C106 C 0.76004 0.86345 0.64559 0.0
C107 C 0.70989 0.87666 0.59356 0.0
O108 O 0.72199 0.89019 0.59746 0.0
O109 O 0.70506 0.8649 0.61016 0.0
O110 O 0.7467 0.92391 0.62092 0.0
O111 O 0.72665 0.91807 0.65112 0.0
O112 O 0.8523 0.74194 0.64109 0.0
Cd113 Cd 0.8651 0.71499 0.63942 0.0
Cd114 Cd 0.89776 0.73775 0.63237 0.0
O115 O 0.87863 0.76023 0.64071 0.0
O116 O 0.84661 0.69723 0.65607 0.0
O117 O 0.87631 0.7029 0.66945 0.0
C118 C 0.85967 0.69453 0.67237 0.0
C119 C 0.93027 0.7398 0.64459 0.0
C120 C 0.86027 0.75856 0.64213 0.0
C121 C 0.88321 0.71133 0.59155 0.0
O122 O 0.89484 0.72426 0.5992 0.0
O123 O 0.87001 0.70459 0.60516 0.0
O124 O 0.92342 0.75053 0.62763 0.0
O125 O 0.91841 0.72839 0.65571 0.0
O126 O 0.26909 0.85169 0.64613 0.0
Cd127 Cd 0.29492 0.86677 0.64397 0.0
Cd128 Cd 0.26989 0.89608 0.63976 0.0
O129 O 0.25063 0.87669 0.65539 0.0
O130 O 0.31425 0.84877 0.65872 0.0
O131 O 0.30661 0.87719 0.67466 0.0
C132 C 0.31596 0.86095 0.67623 0.0
C133 C 0.2705 0.92875 0.65159 0.0
C134 C 0.25288 0.85848 0.65304 0.0
C135 C 0.29211 0.88293 0.5955 0.0
O136 O 0.277 0.89116 0.60394 0.0
O137 O 0.30369 0.87404 0.60953 0.0
O138 O 0.25598 0.92156 0.64002 0.0
O139 O 0.28458 0.91722 0.65725 0.0
O140 O 0.14853 0.25736 0.64984 0.0
Cd141 Cd 0.13804 0.28515 0.64503 0.0
Cd142 Cd 0.10523 0.26406 0.63117 0.0
O143 O 0.12339 0.24037 0.63692 0.0
O144 O 0.15722 0.30162 0.66246 0.0
O145 O 0.12651 0.29931 0.67352 0.0
C146 C 0.14369 0.30614 0.67746 0.0
C147 C 0.07262 0.26265 0.64288 0.0
C148 C 0.14064 0.24113 0.64508 0.0
C149 C 0.12334 0.29191 0.59504 0.0
O150 O 0.10969 0.28034 0.60055 0.0
O151 O 0.13674 0.29574 0.61004 0.0
O152 O 0.07901 0.25313 0.62458 0.0
O153 O 0.08496 0.27245 0.65547 0.0
O154 O 0.73556 0.15228 0.64261 0.0
Cd155 Cd 0.71062 0.13584 0.63939 0.0
Cd156 Cd 0.7368 0.10816 0.637 0.0
O157 O 0.75458 0.12825 0.65382 0.0
O158 O 0.68988 0.15254 0.65345 0.0
O159 O 0.69894 0.12459 0.66959 0.0
C160 C 0.68857 0.14021 0.67087 0.0
C161 C 0.73591 0.07567 0.64927 0.0
C162 C 0.7517 0.14631 0.65086 0.0
C163 C 0.71591 0.11971 0.5914 0.0
O164 O 0.73126 0.11265 0.60069 0.0
O165 O 0.70324 0.12777 0.60472 0.0
O166 O 0.75096 0.08289 0.63879 0.0
O167 O 0.72148 0.08711 0.65367 0.0
O168 O 0.85206 0.26647 0.36775 0.0
Cd169 Cd 0.86526 0.29312 0.37028 0.0
Cd170 Cd 0.89749 0.27045 0.37516 0.0
O171 O 0.87856 0.24888 0.36322 0.0
O172 O 0.84651 0.31143 0.3549 0.0
O173 O 0.8757 0.30559 0.34003 0.0
C174 C 0.85901 0.31402 0.33791 0.0
C175 C 0.92946 0.27118 0.36077 0.0
C176 C 0.86015 0.25025 0.36362 0.0
C177 C 0.88331 0.29362 0.41862 0.0
O178 O 0.89436 0.28038 0.41031 0.0
O179 O 0.87107 0.30206 0.40502 0.0
O180 O 0.92342 0.25744 0.37458 0.0
O181 O 0.91719 0.2844 0.35439 0.0
O182 O 0.73806 0.8533 0.3589 0.0
Cd183 Cd 0.711 0.86533 0.36495 0.0
Cd184 Cd 0.73477 0.89711 0.37564 0.0
O185 O 0.75706 0.87843 0.36639 0.0
O186 O 0.69323 0.84618 0.34953 0.0
O187 O 0.69658 0.87622 0.33627 0.0
C188 C 0.68909 0.85915 0.33362 0.0
C189 C 0.73609 0.92975 0.36398 0.0
C190 C 0.75489 0.86078 0.36023 0.0
C191 C 0.70899 0.88048 0.41536 0.0
O192 O 0.72184 0.89251 0.40854 0.0
O193 O 0.70189 0.86834 0.40051 0.0
O194 O 0.74697 0.92298 0.38086 0.0
O195 O 0.7248 0.9178 0.35283 0.0
O196 O 0.15047 0.74296 0.36934 0.0
Cd197 Cd 0.13798 0.71587 0.37098 0.0
Cd198 Cd 0.10536 0.73807 0.37911 0.0
O199 O 0.12395 0.76097 0.37071 0.0
O200 O 0.15633 0.69848 0.35345 0.0
O201 O 0.1263 0.70393 0.34113 0.0
C202 C 0.14297 0.69581 0.33753 0.0
C203 C 0.07282 0.73923 0.36673 0.0
C204 C 0.14231 0.75951 0.36881 0.0
C205 C 0.12097 0.71177 0.41943 0.0
O206 O 0.10898 0.72456 0.41222 0.0
O207 O 0.13394 0.70523 0.40533 0.0
O208 O 0.07929 0.75009 0.38378 0.0
O209 O 0.08504 0.72814 0.3557 0.0
O210 O 0.26216 0.15381 0.35546 0.0
Cd211 Cd 0.28832 0.13955 0.36123 0.0
Cd212 Cd 0.26288 0.11005 0.37106 0.0
O213 O 0.24205 0.12903 0.35876 0.0
O214 O 0.30743 0.15776 0.34643 0.0
O215 O 0.30214 0.12827 0.33228 0.0
C216 C 0.31074 0.14486 0.33014 0.0
C217 C 0.26332 0.07771 0.35834 0.0
C218 C 0.24507 0.14689 0.35451 0.0
C219 C 0.28723 0.12506 0.41211 0.0
O220 O 0.27262 0.11512 0.4055 0.0
O221 O 0.29695 0.13482 0.39681 0.0
O222 O 0.24972 0.08428 0.37201 0.0
O223 O 0.27659 0.08966 0.35123 0.0
O224 O 0.65409 0.7631 0.86507 0.0
Cd225 Cd 0.63838 0.78862 0.8672 0.0
Cd226 Cd 0.60961 0.76333 0.87137 0.0
O227 O 0.62937 0.74403 0.85665 0.0
O228 O 0.6557 0.80856 0.85254 0.0
O229 O 0.62754 0.80004 0.83662 0.0
C230 C 0.64339 0.81002 0.83513 0.0
C231 C 0.57743 0.76417 0.85794 0.0
C232 C 0.64755 0.74663 0.85869 0.0
C233 C 0.62162 0.78605 0.91551 0.0
O234 O 0.61364 0.77077 0.90724 0.0
O235 O 0.63068 0.79745 0.90145 0.0
O236 O 0.5841 0.74963 0.86997 0.0
O237 O 0.58922 0.77815 0.85278 0.0
O238 O 0.24407 0.65077 0.86174 0.0
Cd239 Cd 0.21603 0.64139 0.86763 0.0
Cd240 Cd 0.23635 0.60779 0.88112 0.0
O241 O 0.26045 0.62514 0.87445 0.0
O242 O 0.19994 0.66109 0.85044 0.0
O243 O 0.20081 0.63022 0.83975 0.0
C244 C 0.19461 0.64764 0.83574 0.0
C245 C 0.2369 0.57498 0.87003 0.0
C246 C 0.2601 0.64234 0.86609 0.0
C247 C 0.20998 0.62719 0.91803 0.0
O248 O 0.22083 0.61306 0.91216 0.0
O249 O 0.2063 0.64069 0.90307 0.0
O250 O 0.24671 0.58138 0.88808 0.0
O251 O 0.22723 0.58739 0.85737 0.0
O252 O 0.3515 0.24097 0.86476 0.0
Cd253 Cd 0.36576 0.21482 0.86631 0.0
Cd254 Cd 0.39701 0.23843 0.87008 0.0
O255 O 0.37718 0.25952 0.85919 0.0
O256 O 0.34773 0.19593 0.85073 0.0
O257 O 0.37645 0.20345 0.83559 0.0
C258 C 0.36016 0.19427 0.83348 0.0
C259 C 0.42863 0.2382 0.85467 0.0
C260 C 0.35885 0.25751 0.86048 0.0
C261 C 0.38498 0.21461 0.91384 0.0
O262 O 0.39519 0.22837 0.90524 0.0
O263 O 0.37276 0.20573 0.90067 0.0
O264 O 0.42263 0.25191 0.86855 0.0
O265 O 0.41642 0.22483 0.8486 0.0
O266 O 0.76575 0.34903 0.867 0.0
Cd267 Cd 0.79109 0.36497 0.86987 0.0
Cd268 Cd 0.76543 0.39336 0.87292 0.0
O269 O 0.7468 0.3735 0.85714 0.0
O270 O 0.81136 0.34793 0.85528 0.0
O271 O 0.80273 0.37616 0.83957 0.0
C272 C 0.8128 0.36035 0.83799 0.0
C273 C 0.76654 0.42563 0.85981 0.0
C274 C 0.74947 0.35536 0.85965 0.0
C275 C 0.7869 0.38155 0.91807 0.0
O276 O 0.7717 0.38917 0.9091 0.0
O277 O 0.799 0.37285 0.90452 0.0
O278 O 0.75164 0.41882 0.87101 0.0
O279 O 0.78073 0.41391 0.85527 0.0
O280 O 0.65285 0.23925 0.14001 0.0
Cd281 Cd 0.6412 0.21179 0.13856 0.0
Cd282 Cd 0.60761 0.23313 0.13013 0.0
O283 O 0.62569 0.25631 0.13914 0.0
O284 O 0.66031 0.19512 0.15588 0.0
O285 O 0.63027 0.19966 0.16872 0.0
C286 C 0.64724 0.19212 0.17209 0.0
C287 C 0.57482 0.23441 0.14159 0.0
C288 C 0.64409 0.25546 0.14097 0.0
C289 C 0.62415 0.20675 0.09026 0.0
O290 O 0.61185 0.21933 0.09724 0.0
O291 O 0.63728 0.2007 0.10447 0.0
O292 O 0.58161 0.24506 0.12453 0.0
O293 O 0.58683 0.22337 0.15306 0.0
O294 O 0.76383 0.65402 0.13982 0.0
Cd295 Cd 0.79148 0.64276 0.13882 0.0
Cd296 Cd 0.77067 0.60882 0.12997 0.0
O297 O 0.74704 0.62675 0.13753 0.0
O298 O 0.8077 0.66201 0.15653 0.0
O299 O 0.80363 0.63177 0.16894 0.0
C300 C 0.8109 0.64883 0.17255 0.0
C301 C 0.7692 0.57613 0.1418 0.0
C302 C 0.74767 0.64514 0.13974 0.0
C303 C 0.79763 0.62551 0.09079 0.0
O304 O 0.78532 0.6129 0.09766 0.0
O305 O 0.80298 0.63901 0.10489 0.0
O306 O 0.75917 0.58269 0.12404 0.0
O307 O 0.77972 0.5883 0.15372 0.0
O308 O 0.3492 0.76734 0.14577 0.0
Cd309 Cd 0.36583 0.79229 0.14433 0.0
Cd310 Cd 0.39354 0.76608 0.14128 0.0
O311 O 0.37304 0.74791 0.1565 0.0
O312 O 0.34896 0.81272 0.15874 0.0
O313 O 0.3764 0.8029 0.17548 0.0
C314 C 0.36087 0.81342 0.17664 0.0
C315 C 0.42568 0.76589 0.15477 0.0
C316 C 0.35503 0.75093 0.15332 0.0
C317 C 0.38324 0.78883 0.09665 0.0
O318 O 0.39 0.77306 0.10518 0.0
O319 O 0.37483 0.80092 0.11046 0.0
O320 O 0.41847 0.75141 0.14312 0.0
O321 O 0.41442 0.78039 0.15956 0.0
O322 O 0.24236 0.35551 0.15225 0.0
Cd323 Cd 0.21565 0.36841 0.14555 0.0
Cd324 Cd 0.24067 0.39827 0.13419 0.0
O325 O 0.26229 0.38023 0.14671 0.0
O326 O 0.19733 0.34986 0.16118 0.0
O327 O 0.20112 0.38004 0.17372 0.0
C328 C 0.19328 0.36317 0.17668 0.0
C329 C 0.2397 0.43127 0.14413 0.0
C330 C 0.25942 0.36258 0.15236 0.0
C331 C 0.21633 0.38072 0.09418 0.0
O332 O 0.23038 0.39149 0.10053 0.0
O333 O 0.20686 0.37103 0.10976 0.0
O334 O 0.25215 0.4245 0.12899 0.0
O335 O 0.22813 0.41915 0.15458 0.0
O336 O 0.35384 0.24085 0.1442 0.0
Cd337 Cd 0.37002 0.21556 0.14223 0.0
Cd338 Cd 0.39791 0.24144 0.13904 0.0
O339 O 0.37792 0.2601 0.15451 0.0
O340 O 0.35264 0.19535 0.15629 0.0
O341 O 0.38038 0.20413 0.17311 0.0
C342 C 0.36458 0.19402 0.17411 0.0
C343 C 0.43001 0.23949 0.15246 0.0
C344 C 0.35986 0.25726 0.15154 0.0
C345 C 0.38696 0.21943 0.09426 0.0
O346 O 0.39389 0.23508 0.10289 0.0
O347 O 0.37868 0.20723 0.10804 0.0
O348 O 0.42363 0.25464 0.14134 0.0
O349 O 0.4179 0.22561 0.15689 0.0
O350 O 0.7572 0.35545 0.15414 0.0
Cd351 Cd 0.78419 0.36762 0.14869 0.0
Cd352 Cd 0.76159 0.3998 0.13829 0.0
O353 O 0.73893 0.3811 0.14668 0.0
O354 O 0.80214 0.34878 0.16461 0.0
O355 O 0.7983 0.3789 0.1774 0.0
C356 C 0.80601 0.36195 0.18038 0.0
C357 C 0.76219 0.43173 0.15263 0.0
C358 C 0.74057 0.3633 0.15239 0.0
C359 C 0.78672 0.38366 0.09834 0.0
O360 O 0.77432 0.39622 0.10504 0.0
O361 O 0.79302 0.37091 0.11302 0.0
O362 O 0.74944 0.4261 0.13717 0.0
O363 O 0.77428 0.419 0.16084 0.0
O364 O 0.64648 0.75699 0.15043 0.0
Cd365 Cd 0.6355 0.78451 0.14505 0.0
Cd366 Cd 0.60294 0.7628 0.1326 0.0
O367 O 0.62126 0.73939 0.13912 0.0
O368 O 0.65452 0.80157 0.16189 0.0
O369 O 0.62394 0.79889 0.17335 0.0
C370 C 0.64104 0.80601 0.17701 0.0
C371 C 0.57041 0.76195 0.14475 0.0
C372 C 0.63868 0.74056 0.14661 0.0
C373 C 0.62052 0.78952 0.09487 0.0
O374 O 0.60713 0.77786 0.10103 0.0
O375 O 0.6338 0.79421 0.10967 0.0
O376 O 0.57666 0.75166 0.12701 0.0
O377 O 0.58288 0.77216 0.15661 0.0
O378 O 0.23742 0.65296 0.15445 0.0
Cd379 Cd 0.21145 0.63882 0.14798 0.0
Cd380 Cd 0.23704 0.60922 0.1386 0.0
O381 O 0.25753 0.6281 0.15208 0.0
O382 O 0.19223 0.65707 0.16247 0.0
O383 O 0.19743 0.62761 0.17678 0.0
C384 C 0.18893 0.64426 0.17888 0.0
C385 C 0.23657 0.5766 0.15036 0.0
C386 C 0.25444 0.64598 0.15617 0.0
C387 C 0.21364 0.62509 0.09697 0.0
O388 O 0.228 0.61494 0.10398 0.0
O389 O 0.20353 0.63463 0.1121 0.0
O390 O 0.25043 0.58353 0.13738 0.0
O391 O 0.22304 0.58832 0.15731 0.0
O392 O 0.35452 0.76191 0.86762 0.0
Cd393 Cd 0.36735 0.78886 0.86864 0.0
Cd394 Cd 0.39972 0.76599 0.87684 0.0
O395 O 0.3807 0.74338 0.86864 0.0
O396 O 0.34881 0.80622 0.85133 0.0
O397 O 0.37862 0.80054 0.83836 0.0
C398 C 0.36193 0.80871 0.83505 0.0
C399 C 0.43237 0.76434 0.86502 0.0
C400 C 0.36235 0.7452 0.86708 0.0
C401 C 0.38473 0.7929 0.9169 0.0
O402 O 0.39631 0.77971 0.9098 0.0
O403 O 0.37193 0.79974 0.90277 0.0
O404 O 0.42553 0.75354 0.88191 0.0
O405 O 0.42042 0.77554 0.85369 0.0
O406 O 0.24137 0.35396 0.85791 0.0
Cd407 Cd 0.21439 0.36568 0.86454 0.0
Cd408 Cd 0.23702 0.39802 0.87561 0.0
O409 O 0.25954 0.3795 0.86619 0.0
O410 O 0.19657 0.34642 0.84944 0.0
O411 O 0.19944 0.37655 0.83629 0.0
C412 C 0.19207 0.35942 0.83371 0.0
C413 C 0.23732 0.4302 0.86217 0.0
C414 C 0.25795 0.3619 0.85959 0.0
C415 C 0.21196 0.38098 0.91519 0.0
O416 O 0.22416 0.39382 0.90875 0.0
O417 O 0.2059 0.36832 0.90029 0.0
O418 O 0.24969 0.42399 0.87775 0.0
O419 O 0.2249 0.41799 0.85356 0.0
O420 O 0.64914 0.23954 0.85453 0.0
Cd421 Cd 0.63549 0.21306 0.86023 0.0
Cd422 Cd 0.60621 0.23858 0.87177 0.0
O423 O 0.62487 0.25999 0.86026 0.0
O424 O 0.65374 0.19457 0.84436 0.0
O425 O 0.62379 0.19934 0.83146 0.0
C426 C 0.6405 0.19115 0.82853 0.0
C427 C 0.5734 0.23859 0.86095 0.0
C428 C 0.6425 0.25678 0.85482 0.0
C429 C 0.62259 0.2131 0.91142 0.0
O430 O 0.61226 0.22755 0.90529 0.0
O431 O 0.63222 0.20368 0.89574 0.0
O432 O 0.58019 0.25061 0.87659 0.0
O433 O 0.58542 0.22689 0.85053 0.0
O434 O 0.76349 0.64696 0.85538 0.0
Cd435 Cd 0.79045 0.63428 0.86098 0.0
Cd436 Cd 0.76542 0.60415 0.87352 0.0
O437 O 0.74361 0.62231 0.86179 0.0
O438 O 0.80806 0.65367 0.84566 0.0
O439 O 0.80469 0.62383 0.83185 0.0
C440 C 0.81208 0.64096 0.82941 0.0
C441 C 0.76555 0.57103 0.86401 0.0
C442 C 0.74642 0.63993 0.85595 0.0
C443 C 0.79099 0.62171 0.91238 0.0
O444 O 0.77672 0.61101 0.90665 0.0
O445 O 0.80007 0.63135 0.89642 0.0
O446 O 0.75364 0.57817 0.87955 0.0
O447 O 0.77704 0.58286 0.85294 0.0
C448 C 0.23047 0.17666 0.33623 0.0
C449 C 0.22849 0.16016 0.35078 0.0
C450 C 0.2156 0.19058 0.33487 0.0
C451 C 0.19871 0.18831 0.34914 0.0
C452 C 0.19638 0.17132 0.36323 0.0
C453 C 0.21118 0.15729 0.36356 0.0
C454 C 0.21837 0.20815 0.31899 0.0
C455 C 0.17891 0.16858 0.37928 0.0
C456 C 0.17533 0.23509 0.37056 0.0
C457 C 0.15835 0.23582 0.35671 0.0
C458 C 0.18834 0.21954 0.3685 0.0
C459 C 0.18466 0.20465 0.35153 0.0
C460 C 0.16767 0.20546 0.33717 0.0
C461 C 0.15449 0.2209 0.34026 0.0
C462 C 0.20595 0.21896 0.38471 0.0
C463 C 0.16358 0.1902 0.31836 0.0
H464 H 0.24379 0.17882 0.32619 0.0
H465 H 0.2097 0.14462 0.375 0.0
H466 H 0.20503 0.21103 0.30836 0.0
H467 H 0.22112 0.22112 0.33031 0.0
H468 H 0.23077 0.20635 0.30642 0.0
H469 H 0.1785 0.15389 0.38754 0.0
H470 H 0.17924 0.17954 0.39392 0.0
H471 H 0.16531 0.17088 0.36902 0.0
H472 H 0.17823 0.24652 0.38349 0.0
H473 H 0.14141 0.22153 0.32945 0.0
H474 H 0.21938 0.21963 0.37375 0.0
H475 H 0.20628 0.20509 0.39488 0.0
H476 H 0.20617 0.23117 0.39778 0.0
H477 H 0.17581 0.18949 0.30539 0.0
H478 H 0.14997 0.19317 0.30827 0.0
H479 H 0.16239 0.1757 0.32692 0.0
C480 C 0.77932 0.17105 0.33671 0.0
C481 C 0.78019 0.15526 0.35257 0.0
C482 C 0.79422 0.18494 0.33604 0.0
C483 C 0.81002 0.18335 0.35225 0.0
C484 C 0.8114 0.16691 0.36752 0.0
C485 C 0.79657 0.15289 0.36723 0.0
C486 C 0.79247 0.20189 0.31895 0.0
C487 C 0.8277 0.16489 0.38549 0.0
C488 C 0.85344 0.21737 0.34583 0.0
C489 C 0.84784 0.23281 0.36073 0.0
C490 C 0.84129 0.20111 0.34273 0.0
C491 C 0.82348 0.20009 0.35546 0.0
C492 C 0.8181 0.21544 0.37104 0.0
C493 C 0.83019 0.23171 0.37318 0.0
C494 C 0.84724 0.18529 0.32545 0.0
C495 C 0.79951 0.21475 0.38545 0.0
H496 H 0.76672 0.17282 0.32522 0.0
H497 H 0.79718 0.14076 0.37966 0.0
H498 H 0.78865 0.21518 0.3292 0.0
H499 H 0.80652 0.20464 0.3098 0.0
H500 H 0.78112 0.19944 0.30508 0.0
H501 H 0.82795 0.1503 0.39401 0.0
H502 H 0.84194 0.16754 0.37678 0.0
H503 H 0.82593 0.17596 0.39984 0.0
H504 H 0.86706 0.21824 0.33612 0.0
H505 H 0.82592 0.24351 0.38496 0.0
H506 H 0.83634 0.1841 0.31082 0.0
H507 H 0.84765 0.17108 0.33481 0.0
H508 H 0.8617 0.18807 0.31729 0.0
H509 H 0.78684 0.21476 0.37313 0.0
H510 H 0.7981 0.22728 0.39793 0.0
H511 H 0.79887 0.20115 0.39613 0.0
C512 C 0.8474 0.79005 0.34083 0.0
C513 C 0.84365 0.77387 0.35544 0.0
C514 C 0.83402 0.80546 0.33933 0.0
C515 C 0.81685 0.80489 0.35335 0.0
C516 C 0.81318 0.78868 0.36836 0.0
C517 C 0.82647 0.77328 0.36894 0.0
C518 C 0.83815 0.82224 0.32262 0.0
C519 C 0.79529 0.78767 0.38403 0.0
C520 C 0.78882 0.85053 0.36984 0.0
C521 C 0.77198 0.84828 0.35596 0.0
C522 C 0.80398 0.83691 0.3685 0.0
C523 C 0.80246 0.82103 0.35239 0.0
C524 C 0.78605 0.8195 0.33716 0.0
C525 C 0.77086 0.83296 0.33942 0.0
C526 C 0.82099 0.83882 0.38547 0.0
C527 C 0.78411 0.80314 0.31924 0.0
H528 H 0.86064 0.79052 0.33031 0.0
H529 H 0.82361 0.76092 0.38049 0.0
H530 H 0.82612 0.82382 0.30948 0.0
H531 H 0.83895 0.83597 0.33299 0.0
H532 H 0.85197 0.82031 0.31259 0.0
H533 H 0.79504 0.77445 0.39549 0.0
H534 H 0.79455 0.80063 0.39587 0.0
H535 H 0.78206 0.78773 0.37265 0.0
H536 H 0.78964 0.8623 0.38276 0.0
H537 H 0.75792 0.83131 0.32851 0.0
H538 H 0.83488 0.83757 0.37551 0.0
H539 H 0.82059 0.82681 0.39879 0.0
H540 H 0.82085 0.85283 0.39536 0.0
H541 H 0.79772 0.80145 0.30876 0.0
H542 H 0.7719 0.80553 0.30652 0.0
H543 H 0.78154 0.7893 0.32894 0.0
C544 C 0.1483 0.79398 0.35575 0.0
C545 C 0.15466 0.77706 0.36735 0.0
C546 C 0.16056 0.81028 0.3537 0.0
C547 C 0.17933 0.80975 0.36415 0.0
C548 C 0.1855 0.79287 0.37655 0.0
C549 C 0.17322 0.77669 0.37768 0.0
C550 C 0.15368 0.8278 0.3398 0.0
C551 C 0.20518 0.79181 0.38849 0.0
C552 C 0.22276 0.83917 0.3438 0.0
C553 C 0.22397 0.85329 0.36188 0.0
C554 C 0.2073 0.82591 0.34314 0.0
C555 C 0.19306 0.82636 0.36152 0.0
C556 C 0.1937 0.84123 0.37915 0.0
C557 C 0.20903 0.85471 0.37891 0.0
C558 C 0.2069 0.81068 0.32361 0.0
C559 C 0.17909 0.84199 0.39937 0.0
H560 H 0.13397 0.79427 0.34768 0.0
H561 H 0.17811 0.76372 0.38695 0.0
H562 H 0.15481 0.84104 0.35106 0.0
H563 H 0.16314 0.83003 0.32387 0.0
H564 H 0.13844 0.82624 0.33357 0.0
H565 H 0.20718 0.77817 0.39889 0.0
H566 H 0.21676 0.79266 0.37467 0.0
H567 H 0.20715 0.80431 0.40086 0.0
H568 H 0.23423 0.83815 0.33049 0.0
H569 H 0.21003 0.86554 0.39303 0.0
H570 H 0.19205 0.80922 0.31609 0.0
H571 H 0.21103 0.7964 0.33131 0.0
H572 H 0.2171 0.81413 0.30872 0.0
H573 H 0.16411 0.84044 0.39233 0.0
H574 H 0.18007 0.85573 0.40976 0.0
H575 H 0.18172 0.82967 0.41184 0.0
C576 C 0.15602 0.79535 0.64852 0.0
C577 C 0.15822 0.77771 0.6608 0.0
C578 C 0.17063 0.80955 0.64923 0.0
C579 C 0.18752 0.80627 0.66321 0.0
C580 C 0.18914 0.78904 0.67699 0.0
C581 C 0.17464 0.77478 0.67524 0.0
C582 C 0.16857 0.82743 0.6337 0.0
C583 C 0.20659 0.78526 0.69274 0.0
C584 C 0.23499 0.8284 0.64216 0.0
C585 C 0.2363 0.84513 0.65641 0.0
C586 C 0.21908 0.81583 0.64406 0.0
C587 C 0.20438 0.81971 0.66121 0.0
C588 C 0.20582 0.83638 0.67606 0.0
C589 C 0.22163 0.84912 0.67317 0.0
C590 C 0.21786 0.79854 0.62738 0.0
C591 C 0.19077 0.84065 0.69507 0.0
H592 H 0.14341 0.79755 0.63717 0.0
H593 H 0.17628 0.76119 0.68489 0.0
H594 H 0.17134 0.84074 0.64438 0.0
H595 H 0.17955 0.82699 0.61908 0.0
H596 H 0.15394 0.82856 0.62542 0.0
H597 H 0.20431 0.77269 0.70495 0.0
H598 H 0.21943 0.78221 0.68131 0.0
H599 H 0.21 0.79827 0.70375 0.0
H600 H 0.24621 0.82539 0.62899 0.0
H601 H 0.22268 0.86201 0.68428 0.0
H602 H 0.20403 0.79897 0.61714 0.0
H603 H 0.21793 0.78489 0.63797 0.0
H604 H 0.23009 0.79805 0.61437 0.0
H605 H 0.17637 0.84283 0.68655 0.0
H606 H 0.19439 0.85379 0.70577 0.0
H607 H 0.18943 0.82809 0.70746 0.0
C608 C 0.21281 0.14832 0.65297 0.0
C609 C 0.2297 0.15512 0.64171 0.0
C610 C 0.19625 0.16025 0.65491 0.0
C611 C 0.19648 0.17913 0.64471 0.0
C612 C 0.21332 0.18569 0.63256 0.0
C613 C 0.22975 0.17375 0.63153 0.0
C614 C 0.17876 0.15293 0.6685 0.0
C615 C 0.2141 0.2055 0.62089 0.0
C616 C 0.15124 0.20853 0.63018 0.0
C617 C 0.15243 0.22328 0.64749 0.0
C618 C 0.16488 0.19331 0.62977 0.0
C619 C 0.17968 0.19261 0.6475 0.0
C620 C 0.17989 0.20664 0.66613 0.0
C621 C 0.16647 0.22198 0.66566 0.0
C622 C 0.16436 0.17892 0.6093 0.0
C623 C 0.19504 0.20617 0.68576 0.0
H624 H 0.21276 0.13394 0.66091 0.0
H625 H 0.2427 0.17896 0.62251 0.0
H626 H 0.1764 0.16204 0.68471 0.0
H627 H 0.16554 0.15415 0.65722 0.0
H628 H 0.18047 0.13758 0.67427 0.0
H629 H 0.22772 0.2078 0.61059 0.0
H630 H 0.2016 0.20741 0.60851 0.0
H631 H 0.21304 0.21695 0.63488 0.0
H632 H 0.14048 0.20958 0.616 0.0
H633 H 0.1673 0.23329 0.6792 0.0
H634 H 0.16615 0.16388 0.61608 0.0
H635 H 0.17663 0.18189 0.59688 0.0
H636 H 0.15061 0.17982 0.59892 0.0
H637 H 0.19663 0.19125 0.69303 0.0
H638 H 0.19142 0.21616 0.7008 0.0
H639 H 0.2093 0.21053 0.67822 0.0
C640 C 0.76892 0.17686 0.64032 0.0
C641 C 0.76756 0.16037 0.65499 0.0
C642 C 0.78438 0.18994 0.64276 0.0
C643 C 0.79849 0.18683 0.66089 0.0
C644 C 0.79689 0.17048 0.67625 0.0
C645 C 0.7816 0.15721 0.67282 0.0
C646 C 0.78582 0.20686 0.62553 0.0
C647 C 0.81128 0.16704 0.69629 0.0
C648 C 0.84696 0.21144 0.64975 0.0
C649 C 0.84418 0.22936 0.6612 0.0
C650 C 0.83247 0.19711 0.65024 0.0
C651 C 0.81508 0.20057 0.66316 0.0
C652 C 0.81281 0.21814 0.67612 0.0
C653 C 0.82724 0.23249 0.6746 0.0
C654 C 0.83525 0.17885 0.63559 0.0
C655 C 0.79479 0.22211 0.69077 0.0
H656 H 0.7582 0.17923 0.62634 0.0
H657 H 0.78049 0.14451 0.68427 0.0
H658 H 0.78524 0.22074 0.6356 0.0
H659 H 0.79995 0.2064 0.61594 0.0
H660 H 0.77398 0.20685 0.61196 0.0
H661 H 0.80736 0.15429 0.70752 0.0
H662 H 0.82597 0.16465 0.68869 0.0
H663 H 0.81212 0.18006 0.70802 0.0
H664 H 0.85998 0.20906 0.6392 0.0
H665 H 0.82514 0.2463 0.68361 0.0
H666 H 0.82466 0.17868 0.62054 0.0
H667 H 0.83243 0.16581 0.64675 0.0
H668 H 0.85011 0.17776 0.62796 0.0
H669 H 0.78232 0.22469 0.67855 0.0
H670 H 0.79651 0.23504 0.70255 0.0
H671 H 0.79116 0.20937 0.70214 0.0
C672 C 0.85387 0.79286 0.65555 0.0
C673 C 0.84772 0.77597 0.64371 0.0
C674 C 0.84147 0.80905 0.65763 0.0
C675 C 0.82277 0.80846 0.647 0.0
C676 C 0.81679 0.7916 0.63443 0.0
C677 C 0.82921 0.77551 0.63326 0.0
C678 C 0.84814 0.82655 0.6717 0.0
C679 C 0.79719 0.79048 0.6223 0.0
C680 C 0.7791 0.83781 0.66678 0.0
C681 C 0.77799 0.85191 0.64863 0.0
C682 C 0.79458 0.82457 0.66764 0.0
C683 C 0.80897 0.82503 0.64945 0.0
C684 C 0.80846 0.83989 0.6318 0.0
C685 C 0.79308 0.85333 0.6318 0.0
C686 C 0.79485 0.80934 0.68719 0.0
C687 C 0.82325 0.84067 0.61179 0.0
H688 H 0.86815 0.79321 0.66373 0.0
H689 H 0.82448 0.76257 0.62382 0.0
H690 H 0.84717 0.8398 0.66042 0.0
H691 H 0.83847 0.82878 0.68743 0.0
H692 H 0.8633 0.82498 0.67825 0.0
H693 H 0.79529 0.77682 0.61193 0.0
H694 H 0.78551 0.79133 0.63601 0.0
H695 H 0.79526 0.80295 0.60989 0.0
H696 H 0.76752 0.83678 0.67995 0.0
H697 H 0.7922 0.86413 0.61764 0.0
H698 H 0.80964 0.80789 0.69489 0.0
H699 H 0.7908 0.79506 0.67944 0.0
H700 H 0.78453 0.81279 0.70195 0.0
H701 H 0.83817 0.83918 0.61904 0.0
H702 H 0.82232 0.85441 0.60135 0.0
H703 H 0.82079 0.82834 0.5993 0.0
C704 C 0.67856 0.72982 0.86851 0.0
C705 C 0.66115 0.7302 0.85547 0.0
C706 C 0.6913 0.714 0.86688 0.0
C707 C 0.68683 0.69839 0.85125 0.0
C708 C 0.66947 0.69886 0.8376 0.0
C709 C 0.65664 0.71464 0.84017 0.0
C710 C 0.70941 0.71388 0.88222 0.0
C711 C 0.66451 0.68278 0.82021 0.0
C712 C 0.73148 0.66868 0.83583 0.0
C713 C 0.72976 0.65304 0.85184 0.0
C714 C 0.71686 0.68282 0.83415 0.0
C715 C 0.70047 0.68165 0.84947 0.0
C716 C 0.69832 0.66546 0.865 0.0
C717 C 0.71288 0.65118 0.86572 0.0
C718 C 0.71941 0.6995 0.8168 0.0
C719 C 0.68135 0.66391 0.88207 0.0
H720 H 0.68199 0.74171 0.88057 0.0
H721 H 0.64322 0.71494 0.82999 0.0
H722 H 0.70973 0.70062 0.89358 0.0
H723 H 0.72248 0.71354 0.87058 0.0
H724 H 0.71036 0.7268 0.89414 0.0
H725 H 0.6508 0.68565 0.8103 0.0
H726 H 0.67644 0.68096 0.80697 0.0
H727 H 0.66304 0.66883 0.83001 0.0
H728 H 0.74447 0.67006 0.82495 0.0
H729 H 0.71162 0.63918 0.87826 0.0
H730 H 0.7228 0.71295 0.82695 0.0
H731 H 0.70579 0.70213 0.80665 0.0
H732 H 0.73135 0.6968 0.80378 0.0
H733 H 0.68238 0.67555 0.89582 0.0
H734 H 0.68092 0.64966 0.89145 0.0
H735 H 0.66747 0.666 0.87232 0.0
C736 C 0.27967 0.66741 0.84467 0.0
C737 C 0.27829 0.65347 0.86297 0.0
C738 C 0.29547 0.68023 0.84355 0.0
C739 C 0.30993 0.67952 0.86165 0.0
C740 C 0.30911 0.66482 0.87949 0.0
C741 C 0.2934 0.65177 0.87973 0.0
C742 C 0.29604 0.6953 0.82383 0.0
C743 C 0.32397 0.6638 0.89942 0.0
C744 C 0.35541 0.71075 0.85459 0.0
C745 C 0.3496 0.72791 0.86611 0.0
C746 C 0.34273 0.69474 0.85301 0.0
C747 C 0.32412 0.69579 0.86383 0.0
C748 C 0.31854 0.7129 0.87616 0.0
C749 C 0.33121 0.72879 0.87684 0.0
C750 C 0.349 0.67695 0.83919 0.0
C751 C 0.29905 0.71453 0.88848 0.0
H752 H 0.26807 0.66863 0.83155 0.0
H753 H 0.2923 0.64108 0.894 0.0
H754 H 0.2924 0.70974 0.83142 0.0
H755 H 0.31082 0.69629 0.816 0.0
H756 H 0.28556 0.69202 0.80918 0.0
H757 H 0.32277 0.65015 0.90997 0.0
H758 H 0.33888 0.66492 0.89206 0.0
H759 H 0.32182 0.67625 0.91182 0.0
H760 H 0.3696 0.71007 0.84622 0.0
H761 H 0.32676 0.74194 0.88605 0.0
H762 H 0.33932 0.67487 0.82344 0.0
H763 H 0.34765 0.66382 0.85062 0.0
H764 H 0.36421 0.67807 0.83271 0.0
H765 H 0.28726 0.71387 0.8749 0.0
H766 H 0.29752 0.72829 0.89876 0.0
H767 H 0.29693 0.70217 0.90103 0.0
C768 C 0.35072 0.29065 0.84435 0.0
C769 C 0.34584 0.27454 0.85855 0.0
C770 C 0.33797 0.30657 0.84231 0.0
C771 C 0.3203 0.30654 0.85538 0.0
C772 C 0.31563 0.29049 0.87021 0.0
C773 C 0.3283 0.27461 0.87133 0.0
C774 C 0.34319 0.32318 0.82583 0.0
C775 C 0.29718 0.29004 0.88493 0.0
C776 C 0.29187 0.35227 0.87018 0.0
C777 C 0.27544 0.34988 0.85561 0.0
C778 C 0.30718 0.33879 0.86946 0.0
C779 C 0.30623 0.3229 0.85329 0.0
C780 C 0.29034 0.32135 0.83723 0.0
C781 C 0.27498 0.33467 0.83887 0.0
C782 C 0.32361 0.34073 0.88728 0.0
C783 C 0.289 0.30498 0.81925 0.0
H784 H 0.36425 0.2906 0.8344 0.0
H785 H 0.3246 0.2623 0.88258 0.0
H786 H 0.33206 0.32456 0.81148 0.0
H787 H 0.34326 0.33705 0.83597 0.0
H788 H 0.35762 0.32117 0.81726 0.0
H789 H 0.29631 0.27702 0.89669 0.0
H790 H 0.29622 0.3032 0.89638 0.0
H791 H 0.28439 0.29008 0.87281 0.0
H792 H 0.29218 0.36396 0.88325 0.0
H793 H 0.26235 0.33292 0.82742 0.0
H794 H 0.33783 0.3389 0.87821 0.0
H795 H 0.32239 0.3291 0.90103 0.0
H796 H 0.32344 0.355 0.8966 0.0
H797 H 0.30303 0.30308 0.80972 0.0
H798 H 0.2774 0.30751 0.80571 0.0
H799 H 0.2858 0.2912 0.8288 0.0
C800 C 0.65391 0.29034 0.86418 0.0
C801 C 0.65599 0.27317 0.85091 0.0
C802 C 0.66833 0.30475 0.86366 0.0
C803 C 0.68493 0.30215 0.84893 0.0
C804 C 0.68639 0.28542 0.83421 0.0
C805 C 0.67207 0.27097 0.8357 0.0
C806 C 0.66643 0.3221 0.8801 0.0
C807 C 0.70353 0.28237 0.8177 0.0
C808 C 0.71817 0.34577 0.83976 0.0
C809 C 0.73324 0.34161 0.85594 0.0
C810 C 0.70253 0.33286 0.83679 0.0
C811 C 0.70166 0.31576 0.85094 0.0
C812 C 0.7168 0.31161 0.86741 0.0
C813 C 0.73252 0.32443 0.86942 0.0
C814 C 0.68698 0.33745 0.81852 0.0
C815 C 0.71623 0.29381 0.88329 0.0
H816 H 0.64157 0.292 0.87612 0.0
H817 H 0.67364 0.25775 0.82527 0.0
H818 H 0.67777 0.32136 0.89427 0.0
H819 H 0.66876 0.33576 0.86995 0.0
H820 H 0.65199 0.32276 0.88897 0.0
H821 H 0.70113 0.27015 0.805 0.0
H822 H 0.70651 0.29575 0.80718 0.0
H823 H 0.71666 0.27917 0.82854 0.0
H824 H 0.71874 0.35901 0.82923 0.0
H825 H 0.74402 0.32125 0.88215 0.0
H826 H 0.67279 0.33931 0.82766 0.0
H827 H 0.68542 0.32518 0.80572 0.0
H828 H 0.69024 0.35087 0.80818 0.0
H829 H 0.7027 0.29378 0.89414 0.0
H830 H 0.72883 0.29305 0.89573 0.0
H831 H 0.71612 0.2805 0.87206 0.0
C832 C 0.67377 0.2745 0.13164 0.0
C833 C 0.65577 0.27337 0.14329 0.0
C834 C 0.68563 0.29091 0.13403 0.0
C835 C 0.67967 0.30637 0.14913 0.0
C836 C 0.66142 0.30539 0.16087 0.0
C837 C 0.64951 0.28898 0.15748 0.0
C838 C 0.70469 0.29155 0.12061 0.0
C839 C 0.65481 0.32131 0.17762 0.0
C840 C 0.72324 0.3351 0.17061 0.0
C841 C 0.72314 0.3509 0.15472 0.0
C842 C 0.70822 0.32133 0.17034 0.0
C843 C 0.6931 0.32303 0.15317 0.0
C844 C 0.69246 0.33949 0.13787 0.0
C845 C 0.70737 0.35339 0.13908 0.0
C846 C 0.70916 0.30435 0.18749 0.0
C847 C 0.67691 0.34164 0.11892 0.0
H848 H 0.67854 0.26251 0.12044 0.0
H849 H 0.63563 0.28805 0.16662 0.0
H850 H 0.7058 0.3052 0.11009 0.0
H851 H 0.71692 0.29137 0.1336 0.0
H852 H 0.70644 0.27907 0.10813 0.0
H853 H 0.63986 0.31882 0.18445 0.0
H854 H 0.66485 0.3222 0.19321 0.0
H855 H 0.65527 0.33556 0.16836 0.0
H856 H 0.73536 0.33322 0.18284 0.0
H857 H 0.70736 0.36552 0.12662 0.0
H858 H 0.71326 0.29103 0.17748 0.0
H859 H 0.69475 0.30172 0.19579 0.0
H860 H 0.71998 0.3067 0.20203 0.0
H861 H 0.67927 0.33067 0.10459 0.0
H862 H 0.67703 0.35629 0.11053 0.0
H863 H 0.66233 0.33896 0.12669 0.0
C864 C 0.72905 0.67523 0.13094 0.0
C865 C 0.72958 0.65666 0.14122 0.0
C866 C 0.71238 0.68683 0.1324 0.0
C867 C 0.69594 0.67997 0.14512 0.0
C868 C 0.69631 0.66115 0.15546 0.0
C869 C 0.71307 0.64956 0.15306 0.0
C870 C 0.71248 0.70659 0.12055 0.0
C871 C 0.67929 0.65353 0.16969 0.0
C872 C 0.66529 0.72216 0.16669 0.0
C873 C 0.65083 0.72297 0.14899 0.0
C874 C 0.67912 0.7072 0.16683 0.0
C875 C 0.67888 0.69306 0.14832 0.0
C876 C 0.66369 0.69324 0.13111 0.0
C877 C 0.64965 0.70808 0.13186 0.0
C878 C 0.6947 0.70724 0.18594 0.0
C879 C 0.66312 0.67873 0.11077 0.0
H880 H 0.74171 0.68067 0.12151 0.0
H881 H 0.71349 0.63523 0.16112 0.0
H882 H 0.69969 0.70815 0.10856 0.0
H883 H 0.71146 0.71808 0.13447 0.0
H884 H 0.72583 0.70912 0.10978 0.0
H885 H 0.68147 0.63827 0.17558 0.0
H886 H 0.67705 0.66272 0.18586 0.0
H887 H 0.66581 0.65436 0.15883 0.0
H888 H 0.66613 0.7336 0.18006 0.0
H889 H 0.63857 0.70877 0.11803 0.0
H890 H 0.70867 0.71194 0.1779 0.0
H891 H 0.69685 0.69241 0.19328 0.0
H892 H 0.69114 0.71723 0.20102 0.0
H893 H 0.67505 0.68194 0.09795 0.0
H894 H 0.64914 0.67922 0.10081 0.0
H895 H 0.66543 0.66378 0.1176 0.0
C896 C 0.28853 0.65646 0.14858 0.0
C897 C 0.27087 0.65926 0.16061 0.0
C898 C 0.30317 0.67062 0.14939 0.0
C899 C 0.30028 0.68768 0.16319 0.0
C900 C 0.28301 0.68989 0.17675 0.0
C901 C 0.26835 0.67582 0.17493 0.0
C902 C 0.32111 0.66793 0.13414 0.0
C903 C 0.27965 0.70754 0.1923 0.0
C904 C 0.34414 0.7203 0.17366 0.0
C905 C 0.34091 0.73501 0.15667 0.0
C906 C 0.33081 0.70499 0.17646 0.0
C907 C 0.31429 0.70408 0.16132 0.0
C908 C 0.31111 0.71883 0.144 0.0
C909 C 0.32429 0.73426 0.14217 0.0
C910 C 0.33434 0.68988 0.19564 0.0
C911 C 0.29397 0.71815 0.12705 0.0
H912 H 0.29042 0.64374 0.13732 0.0
H913 H 0.25474 0.67793 0.18439 0.0
H914 H 0.32117 0.67887 0.11946 0.0
H915 H 0.33439 0.67031 0.14502 0.0
H916 H 0.32185 0.65323 0.12596 0.0
H917 H 0.26689 0.70573 0.20432 0.0
H918 H 0.29263 0.71058 0.2035 0.0
H919 H 0.27713 0.72042 0.18072 0.0
H920 H 0.35695 0.72092 0.18497 0.0
H921 H 0.32187 0.7455 0.12883 0.0
H922 H 0.33621 0.67539 0.18725 0.0
H923 H 0.32157 0.68896 0.20776 0.0
H924 H 0.34742 0.69313 0.20662 0.0
H925 H 0.29407 0.7043 0.11683 0.0
H926 H 0.294 0.73038 0.11402 0.0
H927 H 0.28023 0.71865 0.13742 0.0
C928 C 0.27392 0.33352 0.17237 0.0
C929 C 0.27604 0.34951 0.15698 0.0
C930 C 0.28864 0.31951 0.17444 0.0
C931 C 0.30558 0.32118 0.16014 0.0
C932 C 0.3081 0.33772 0.14528 0.0
C933 C 0.29341 0.35185 0.14417 0.0
C934 C 0.28564 0.30244 0.19108 0.0
C935 C 0.32569 0.33984 0.12929 0.0
C936 C 0.34955 0.28862 0.17077 0.0
C937 C 0.34587 0.27338 0.15467 0.0
C938 C 0.33637 0.30412 0.17321 0.0
C939 C 0.3195 0.30465 0.15863 0.0
C940 C 0.31586 0.28935 0.14222 0.0
C941 C 0.32892 0.27378 0.14072 0.0
C942 C 0.34042 0.31985 0.19144 0.0
C943 C 0.29832 0.28955 0.12589 0.0
H944 H 0.26056 0.33177 0.18244 0.0
H945 H 0.29501 0.36412 0.1321 0.0
H946 H 0.28281 0.28917 0.18031 0.0
H947 H 0.2989 0.29974 0.20192 0.0
H948 H 0.27319 0.30472 0.20347 0.0
H949 H 0.32626 0.35426 0.12035 0.0
H950 H 0.33921 0.33775 0.1398 0.0
H951 H 0.32537 0.32844 0.11517 0.0
H952 H 0.36261 0.28829 0.18165 0.0
H953 H 0.32613 0.26214 0.12805 0.0
H954 H 0.32796 0.32125 0.20397 0.0
H955 H 0.34211 0.33403 0.18221 0.0
H956 H 0.35375 0.3169 0.20207 0.0
H957 H 0.28484 0.28949 0.13679 0.0
H958 H 0.29798 0.27688 0.11353 0.0
H959 H 0.29823 0.30304 0.11494 0.0
C960 C 0.96058 0.25536 0.34907 0.0
C961 C 0.95022 0.27234 0.35432 0.0
C962 C 0.98087 0.25567 0.34661 0.0
C963 C 0.9911 0.27323 0.35057 0.0
C964 C 0.98058 0.29058 0.35493 0.0
C965 C 0.9602 0.28997 0.35633 0.0
C966 C 0.99141 0.23698 0.34107 0.0
C967 C 0.99087 0.30948 0.36005 0.0
C968 C 0.04102 0.26657 0.37833 0.0
C969 C 0.05338 0.27103 0.35911 0.0
C970 C 0.0208 0.26778 0.37588 0.0
C971 C 0.01265 0.27286 0.35333 0.0
C972 C 0.02508 0.27714 0.33369 0.0
C973 C 0.04537 0.27656 0.33696 0.0
C974 C 0.00817 0.26369 0.39753 0.0
C975 C 0.01696 0.2819 0.30917 0.0
H976 H 0.95283 0.24172 0.34742 0.0
H977 H 0.95218 0.30306 0.36068 0.0
H978 H 0.00277 0.23943 0.32723 0.0
H979 H 0.99875 0.23161 0.35754 0.0
H980 H 0.98138 0.2255 0.33458 0.0
H981 H 0.98069 0.32199 0.36058 0.0
H982 H 0.99833 0.30846 0.37772 0.0
H983 H 0.00215 0.31237 0.34628 0.0
H984 H 0.04721 0.26252 0.39557 0.0
H985 H 0.05495 0.27994 0.32205 0.0
H986 H 0.99923 0.25058 0.39424 0.0
H987 H 0.99806 0.27599 0.40065 0.0
H988 H 0.01682 0.26132 0.41415 0.0
H989 H 0.00796 0.26962 0.30265 0.0
H990 H 0.02855 0.28483 0.29575 0.0
H991 H 0.00735 0.29479 0.31027 0.0
C992 C 0.75718 0.04199 0.34602 0.0
C993 C 0.74046 0.0534 0.34835 0.0
C994 C 0.75592 0.02169 0.34428 0.0
C995 C 0.73754 0.01257 0.34594 0.0
C996 C 0.72053 0.02414 0.34704 0.0
C997 C 0.7222 0.04448 0.34784 0.0
C998 C 0.77437 0.00997 0.34228 0.0
C999 C 0.70069 0.01506 0.34952 0.0
C1000 C 0.7331 0.95794 0.33549 0.0
C1001 C 0.73595 0.9508 0.35885 0.0
C1002 C 0.73366 0.97805 0.33084 0.0
C1003 C 0.73642 0.99122 0.35016 0.0
C1004 C 0.73869 0.98398 0.37386 0.0
C1005 C 0.73877 0.96389 0.37782 0.0
C1006 C 0.73182 0.98518 0.30526 0.0
C1007 C 0.7411 0.99746 0.39511 0.0
H1008 H 0.77131 0.04891 0.34629 0.0
H1009 H 0.70927 0.05331 0.34992 0.0
H1010 H 0.77766 0.00311 0.35988 0.0
H1011 H 0.77266 0.99817 0.32886 0.0
H1012 H 0.78695 0.01912 0.33703 0.0
H1013 H 0.68886 0.02584 0.34702 0.0
H1014 H 0.69874 0.00316 0.33631 0.0
H1015 H 0.69927 0.00861 0.36775 0.0
H1016 H 0.731 0.9478 0.32081 0.0
H1017 H 0.74074 0.95839 0.39595 0.0
H1018 H 0.74526 0.99298 0.30001 0.0
H1019 H 0.71966 0.99567 0.30374 0.0
H1020 H 0.72934 0.97312 0.29234 0.0
H1021 H 0.7549 0.00562 0.39342 0.0
H1022 H 0.74124 0.98954 0.41253 0.0
H1023 H 0.72913 0.00824 0.39548 0.0
C1024 C 0.03853 0.74245 0.37995 0.0
C1025 C 0.05178 0.73877 0.36137 0.0
C1026 C 0.01846 0.74175 0.37588 0.0
C1027 C 0.01139 0.73791 0.35242 0.0
C1028 C 0.02471 0.73438 0.33346 0.0
C1029 C 0.0448 0.73452 0.33826 0.0
C1030 C 0.00483 0.74508 0.39679 0.0
C1031 C 0.01775 0.73083 0.3081 0.0
C1032 C 0.95869 0.72164 0.35102 0.0
C1033 C 0.94906 0.73953 0.34952 0.0
C1034 C 0.97908 0.72071 0.3507 0.0
C1035 C 0.99002 0.73802 0.34807 0.0
C1036 C 0.98023 0.75589 0.34453 0.0
C1037 C 0.95988 0.75648 0.34576 0.0
C1038 C 0.98888 0.70143 0.35517 0.0
C1039 C 0.99127 0.77459 0.34089 0.0
H1040 H 0.04387 0.7455 0.39791 0.0
H1041 H 0.05505 0.73173 0.32387 0.0
H1042 H 0.99615 0.7584 0.39367 0.0
H1043 H 0.99452 0.73277 0.39837 0.0
H1044 H 0.01267 0.74668 0.41415 0.0
H1045 H 0.02994 0.7283 0.29539 0.0
H1046 H 0.00794 0.71808 0.30761 0.0
H1047 H 0.00924 0.74353 0.30176 0.0
H1048 H 0.95034 0.70854 0.35415 0.0
H1049 H 0.95243 0.77031 0.34443 0.0
H1050 H 0.99545 0.70147 0.37341 0.0
H1051 H 1.00078 0.69901 0.34208 0.0
H1052 H 0.97854 0.6891 0.35401 0.0
H1053 H 0.99796 0.77913 0.35816 0.0
H1054 H 0.9817 0.78651 0.3345 0.0
H1055 H 0.00318 0.77251 0.32769 0.0
C1056 C 0.2626 0.96694 0.38168 0.0
C1057 C 0.26465 0.95391 0.36248 0.0
C1058 C 0.26344 0.98705 0.37799 0.0
C1059 C 0.26577 0.99441 0.35436 0.0
C1060 C 0.26775 0.98132 0.33482 0.0
C1061 C 0.2675 0.96116 0.33917 0.0
C1062 C 0.26179 1.00042 0.39946 0.0
C1063 C 0.26969 0.98861 0.30932 0.0
C1064 C 0.24706 0.04602 0.35058 0.0
C1065 C 0.26424 0.05676 0.35272 0.0
C1066 C 0.24748 0.02569 0.34898 0.0
C1067 C 0.26549 0.01583 0.35046 0.0
C1068 C 0.28295 0.02668 0.35146 0.0
C1069 C 0.28212 0.04708 0.35222 0.0
C1070 C 0.22856 0.01474 0.34715 0.0
C1071 C 0.30242 0.01677 0.3537 0.0
H1072 H 0.26065 0.96138 0.39978 0.0
H1073 H 0.26904 0.95109 0.32431 0.0
H1074 H 0.27425 0.01062 0.39987 0.0
H1075 H 0.24837 0.00925 0.39802 0.0
H1076 H 0.26139 0.99235 0.41677 0.0
H1077 H 0.27144 0.97658 0.29618 0.0
H1078 H 0.25661 0.99715 0.3044 0.0
H1079 H 0.28235 0.99847 0.30779 0.0
H1080 H 0.23321 0.05352 0.35078 0.0
H1081 H 0.29541 0.05538 0.35407 0.0
H1082 H 0.22525 0.00778 0.36468 0.0
H1083 H 0.22964 0.00304 0.33349 0.0
H1084 H 0.21626 0.02443 0.34233 0.0
H1085 H 0.30362 0.01002 0.37177 0.0
H1086 H 0.31467 0.02709 0.35138 0.0
H1087 H 0.30386 0.005 0.34021 0.0
C1088 C 0.04302 0.75934 0.66261 0.0
C1089 C 0.05412 0.74251 0.65929 0.0
C1090 C 0.02271 0.75839 0.66431 0.0
C1091 C 0.01325 0.74026 0.66167 0.0
C1092 C 0.02449 0.7231 0.65946 0.0
C1093 C 0.04485 0.72442 0.65868 0.0
C1094 C 0.01134 0.77696 0.66746 0.0
C1095 C 0.01503 0.70354 0.65592 0.0
C1096 C 0.95867 0.73608 0.67267 0.0
C1097 C 0.95135 0.73974 0.64957 0.0
C1098 C 0.97882 0.73635 0.67708 0.0
C1099 C 0.99184 0.73966 0.65774 0.0
C1100 C 0.98442 0.74284 0.6343 0.0
C1101 C 0.9643 0.74317 0.63061 0.0
C1102 C 0.98616 0.73352 0.70242 0.0
C1103 C 0.99772 0.74588 0.613 0.0
H1104 H 0.0502 0.77333 0.66326 0.0
H1105 H 0.05343 0.71141 0.6559 0.0
H1106 H 0.00434 0.78095 0.65018 0.0
H1107 H 0.99965 0.77498 0.68098 0.0
H1108 H 0.02075 0.78921 0.67321 0.0
H1109 H 0.02563 0.69144 0.65735 0.0
H1110 H 0.00333 0.70123 0.66932 0.0
H1111 H 0.00824 0.70301 0.63781 0.0
H1112 H 0.94864 0.73348 0.68736 0.0
H1113 H 0.95868 0.74575 0.61266 0.0
H1114 H 0.99444 0.74653 0.70816 0.0
H1115 H 0.99626 0.72099 0.70316 0.0
H1116 H 0.97418 0.73101 0.71544 0.0
H1117 H 0.00617 0.75944 0.61542 0.0
H1118 H 0.98965 0.74687 0.59574 0.0
H1119 H 0.00827 0.73373 0.61171 0.0
C1120 C 0.2891 0.9598 0.65489 0.0
C1121 C 0.2714 0.94986 0.65639 0.0
C1122 C 0.28968 0.98023 0.65515 0.0
C1123 C 0.27218 0.99089 0.65771 0.0
C1124 C 0.25447 0.98081 0.66104 0.0
C1125 C 0.25424 0.96043 0.6599 0.0
C1126 C 0.3088 0.99035 0.6509 0.0
C1127 C 0.23557 0.99155 0.66456 0.0
C1128 C 0.2747 0.04558 0.66902 0.0
C1129 C 0.27046 0.05293 0.64608 0.0
C1130 C 0.27518 0.0254 0.67325 0.0
C1131 C 0.27199 0.01236 0.6539 0.0
C1132 C 0.26817 0.01981 0.63061 0.0
C1133 C 0.26715 0.03994 0.6271 0.0
C1134 C 0.27871 0.01803 0.69845 0.0
C1135 C 0.2652 0.0065 0.6093 0.0
H1136 H 0.30236 0.95166 0.65196 0.0
H1137 H 0.24054 0.95276 0.66123 0.0
H1138 H 0.30862 0.9973 0.63287 0.0
H1139 H 0.31107 1.00202 0.66435 0.0
H1140 H 0.32128 0.98015 0.65171 0.0
H1141 H 0.2237 0.98173 0.67048 0.0
H1142 H 0.23733 0.00326 0.6781 0.0
H1143 H 0.23116 0.99848 0.64739 0.0
H1144 H 0.27721 0.05559 0.68374 0.0
H1145 H 0.26411 0.04556 0.60926 0.0
H1146 H 0.29164 0.00844 0.69878 0.0
H1147 H 0.26614 0.00918 0.70443 0.0
H1148 H 0.28094 0.03002 0.71152 0.0
H1149 H 0.27769 0.99642 0.60756 0.0
H1150 H 0.26357 0.01463 0.59214 0.0
H1151 H 0.25202 0.99754 0.61206 0.0
C1152 C 0.0445 0.26607 0.67144 0.0
C1153 C 0.05156 0.26312 0.64806 0.0
C1154 C 0.02438 0.26625 0.67606 0.0
C1155 C 0.01114 0.26407 0.65671 0.0
C1156 C 0.0183 0.26157 0.63302 0.0
C1157 C 0.03837 0.26083 0.62907 0.0
C1158 C 0.01731 0.26839 0.70162 0.0
C1159 C 0.00476 0.25968 0.61175 0.0
C1160 C 0.95956 0.24548 0.66142 0.0
C1161 C 0.94882 0.26266 0.65909 0.0
C1162 C 0.9799 0.24588 0.66277 0.0
C1163 C 0.98976 0.26385 0.66088 0.0
C1164 C 0.97892 0.28133 0.65973 0.0
C1165 C 0.95853 0.28053 0.6592 0.0
C1166 C 0.99085 0.22695 0.66475 0.0
C1167 C 0.98883 0.30076 0.6571 0.0
H1168 H 0.05468 0.2678 0.68615 0.0
H1169 H 0.04378 0.2588 0.61091 0.0
H1170 H 0.00753 0.28112 0.70314 0.0
H1171 H 0.00874 0.2554 0.70677 0.0
H1172 H 0.02944 0.27014 0.71461 0.0
H1173 H 0.01267 0.25905 0.59435 0.0
H1174 H 0.99592 0.2463 0.61355 0.0
H1175 H 0.99457 0.27216 0.61124 0.0
H1176 H 0.95205 0.23164 0.66153 0.0
H1177 H 0.95025 0.29383 0.65721 0.0
H1178 H 0.00266 0.22815 0.67824 0.0
H1179 H 0.99764 0.22345 0.64718 0.0
H1180 H 0.98119 0.21472 0.6699 0.0
H1181 H 1.0007 0.30231 0.67043 0.0
H1182 H 0.97854 0.31306 0.65934 0.0
H1183 H 0.99546 0.30178 0.63893 0.0
C1184 C 0.75191 0.04387 0.6577 0.0
C1185 C 0.73485 0.05456 0.65405 0.0
C1186 C 0.75156 0.0235 0.65868 0.0
C1187 C 0.7338 0.01355 0.65514 0.0
C1188 C 0.71638 0.02432 0.65254 0.0
C1189 C 0.71709 0.04473 0.65235 0.0
C1190 C 0.77038 0.01262 0.66221 0.0
C1191 C 0.69721 0.01433 0.64817 0.0
C1192 C 0.73865 0.96462 0.62425 0.0
C1193 C 0.7354 0.95158 0.6432 0.0
C1194 C 0.73766 0.98474 0.62786 0.0
C1195 C 0.73387 0.99211 0.65119 0.0
C1196 C 0.73068 0.97902 0.67049 0.0
C1197 C 0.73119 0.95887 0.66618 0.0
C1198 C 0.74069 0.99813 0.60664 0.0
C1199 C 0.72712 0.98631 0.69572 0.0
H1200 H 0.76566 0.05144 0.6592 0.0
H1201 H 0.70389 0.05296 0.64934 0.0
H1202 H 0.76853 1.00088 0.67569 0.0
H1203 H 0.77476 0.00571 0.64501 0.0
H1204 H 0.78231 0.02234 0.6682 0.0
H1205 H 0.68478 0.02459 0.64907 0.0
H1206 H 0.69735 0.00751 0.63007 0.0
H1207 H 0.69487 0.00257 0.6615 0.0
H1208 H 0.7417 0.95906 0.60639 0.0
H1209 H 0.72874 0.94882 0.68088 0.0
H1210 H 0.7539 0.00705 0.60949 0.0
H1211 H 0.72823 0.00825 0.60492 0.0
H1212 H 0.74234 0.99006 0.58944 0.0
H1213 H 0.73977 0.99497 0.70185 0.0
H1214 H 0.72469 0.97428 0.70869 0.0
H1215 H 0.7143 0.99606 0.69602 0.0
C1216 C 0.54662 0.783 0.85365 0.0
C1217 C 0.55651 0.76526 0.85215 0.0
C1218 C 0.52622 0.78368 0.8527 0.0
C1219 C 0.51558 0.76626 0.84941 0.0
C1220 C 0.52566 0.74856 0.84593 0.0
C1221 C 0.54599 0.74821 0.8478 0.0
C1222 C 0.51609 0.80277 0.85714 0.0
C1223 C 0.51495 0.72976 0.84162 0.0
C1224 C 0.46636 0.76098 0.87935 0.0
C1225 C 0.45352 0.76477 0.86036 0.0
C1226 C 0.4865 0.76188 0.87605 0.0
C1227 C 0.4941 0.76606 0.85294 0.0
C1228 C 0.48121 0.76966 0.83354 0.0
C1229 C 0.46101 0.76932 0.83759 0.0
C1230 C 0.49965 0.75847 0.89742 0.0
C1231 C 0.48876 0.77355 0.80851 0.0
H1232 H 0.55474 0.79617 0.85722 0.0
H1233 H 0.55364 0.7345 0.84646 0.0
H1234 H 0.50453 0.80523 0.84359 0.0
H1235 H 0.50901 0.80241 0.87508 0.0
H1236 H 0.5263 0.81524 0.85667 0.0
H1237 H 0.52482 0.71801 0.83543 0.0
H1238 H 0.50789 0.72497 0.85855 0.0
H1239 H 0.50335 0.73182 0.82799 0.0
H1240 H 0.46062 0.75772 0.89707 0.0
H1241 H 0.4511 0.77221 0.82286 0.0
H1242 H 0.50975 0.77089 0.89962 0.0
H1243 H 0.50859 0.7453 0.89439 0.0
H1244 H 0.49141 0.75656 0.91444 0.0
H1245 H 0.4983 0.78651 0.80858 0.0
H1246 H 0.47685 0.77594 0.79535 0.0
H1247 H 0.49769 0.76109 0.80237 0.0
C1248 C 0.25392 0.46181 0.85521 0.0
C1249 C 0.23668 0.45106 0.85608 0.0
C1250 C 0.25355 0.48213 0.85338 0.0
C1251 C 0.2355 0.49197 0.85337 0.0
C1252 C 0.21803 0.4811 0.85307 0.0
C1253 C 0.21885 0.4607 0.85405 0.0
C1254 C 0.27252 0.49309 0.85294 0.0
C1255 C 0.19848 0.49098 0.85374 0.0
C1256 C 0.23705 0.54092 0.88457 0.0
C1257 C 0.23602 0.5539 0.8652 0.0
C1258 C 0.23623 0.52081 0.88091 0.0
C1259 C 0.23501 0.5134 0.85718 0.0
C1260 C 0.23401 0.52645 0.83747 0.0
C1261 C 0.23419 0.54662 0.84176 0.0
C1262 C 0.23677 0.50749 0.90252 0.0
C1263 C 0.23331 0.51911 0.8119 0.0
H1264 H 0.26773 0.45433 0.85662 0.0
H1265 H 0.2055 0.45239 0.85495 0.0
H1266 H 0.2721 0.50477 0.83919 0.0
H1267 H 0.27497 0.50007 0.87068 0.0
H1268 H 0.28504 0.4834 0.84907 0.0
H1269 H 0.18639 0.48065 0.85043 0.0
H1270 H 0.19633 0.49772 0.87169 0.0
H1271 H 0.19773 0.50278 0.84018 0.0
H1272 H 0.23822 0.54653 0.90275 0.0
H1273 H 0.23346 0.55667 0.82677 0.0
H1274 H 0.25027 0.4987 0.90221 0.0
H1275 H 0.22435 0.49725 0.90195 0.0
H1276 H 0.23624 0.5156 0.91979 0.0
H1277 H 0.24668 0.51072 0.80793 0.0
H1278 H 0.23204 0.53111 0.79862 0.0
H1279 H 0.22085 0.5091 0.8095 0.0
C1280 C 0.45919 0.21928 0.84942 0.0
C1281 C 0.44937 0.23706 0.84815 0.0
C1282 C 0.47958 0.21854 0.84844 0.0
C1283 C 0.49027 0.23595 0.84532 0.0
C1284 C 0.48023 0.2537 0.84195 0.0
C1285 C 0.45992 0.2541 0.84392 0.0
C1286 C 0.48966 0.1994 0.85283 0.0
C1287 C 0.49099 0.27249 0.83774 0.0
C1288 C 0.53942 0.24134 0.87542 0.0
C1289 C 0.55227 0.23763 0.85645 0.0
C1290 C 0.51928 0.24028 0.87209 0.0
C1291 C 0.51173 0.23609 0.84895 0.0
C1292 C 0.52465 0.23252 0.8296 0.0
C1293 C 0.54484 0.23296 0.83369 0.0
C1294 C 0.50609 0.24362 0.89343 0.0
C1295 C 0.51717 0.22866 0.80453 0.0
H1296 H 0.45104 0.20612 0.85298 0.0
H1297 H 0.4523 0.26785 0.84283 0.0
H1298 H 0.50135 0.19702 0.83944 0.0
H1299 H 0.49655 0.19963 0.87089 0.0
H1300 H 0.47943 0.18695 0.85207 0.0
H1301 H 0.48116 0.28424 0.83147 0.0
H1302 H 0.49795 0.27726 0.85474 0.0
H1303 H 0.50267 0.27042 0.82422 0.0
H1304 H 0.54515 0.24472 0.89311 0.0
H1305 H 0.55479 0.23017 0.81898 0.0
H1306 H 0.49589 0.23126 0.89545 0.0
H1307 H 0.49726 0.25688 0.8905 0.0
H1308 H 0.5143 0.24536 0.91051 0.0
H1309 H 0.5074 0.21587 0.80457 0.0
H1310 H 0.52909 0.22604 0.79147 0.0
H1311 H 0.50848 0.24126 0.79826 0.0
C1312 C 0.75076 0.45707 0.84913 0.0
C1313 C 0.7677 0.44658 0.85421 0.0
C1314 C 0.7511 0.47739 0.84719 0.0
C1315 C 0.76868 0.48753 0.85132 0.0
C1316 C 0.786 0.47692 0.85549 0.0
C1317 C 0.78535 0.45652 0.8565 0.0
C1318 C 0.73243 0.48806 0.84194 0.0
C1319 C 0.80494 0.48712 0.86065 0.0
C1320 C 0.77189 0.54185 0.83801 0.0
C1321 C 0.76659 0.54979 0.86029 0.0
C1322 C 0.7725 0.52157 0.83464 0.0
C1323 C 0.76839 0.50906 0.85426 0.0
C1324 C 0.76352 0.51712 0.87692 0.0
C1325 C 0.76236 0.53733 0.87952 0.0
C1326 C 0.77714 0.51355 0.81004 0.0
C1327 C 0.75956 0.50438 0.89852 0.0
H1328 H 0.73712 0.44938 0.84719 0.0
H1329 H 0.79844 0.44843 0.86065 0.0
H1330 H 0.72727 0.49542 0.85851 0.0
H1331 H 0.73482 0.49943 0.8281 0.0
H1332 H 0.72081 0.47812 0.83558 0.0
H1333 H 0.81741 0.47689 0.86108 0.0
H1334 H 0.80784 0.49845 0.84695 0.0
H1335 H 0.80398 0.4945 0.87837 0.0
H1336 H 0.7751 0.55147 0.82309 0.0
H1337 H 0.75849 0.54344 0.89686 0.0
H1338 H 0.76481 0.50461 0.80353 0.0
H1339 H 0.79001 0.50389 0.811 0.0
H1340 H 0.78004 0.52519 0.79667 0.0
H1341 H 0.74647 0.4954 0.89523 0.0
H1342 H 0.75721 0.51296 0.9152 0.0
H1343 H 0.7719 0.49431 0.90151 0.0
C1344 C 0.46012 0.21946 0.15597 0.0
C1345 C 0.45096 0.23758 0.15779 0.0
C1346 C 0.48048 0.21797 0.15635 0.0
C1347 C 0.49187 0.23495 0.15932 0.0
C1348 C 0.48256 0.25303 0.16312 0.0
C1349 C 0.46223 0.25418 0.16188 0.0
C1350 C 0.48977 0.19849 0.15165 0.0
C1351 C 0.49409 0.27139 0.16708 0.0
C1352 C 0.54648 0.22999 0.16963 0.0
C1353 C 0.55373 0.23426 0.14665 0.0
C1354 C 0.52636 0.23028 0.17421 0.0
C1355 C 0.51326 0.2343 0.15516 0.0
C1356 C 0.52058 0.23815 0.13183 0.0
C1357 C 0.54069 0.23838 0.12797 0.0
C1358 C 0.51914 0.22667 0.19945 0.0
C1359 C 0.50718 0.24202 0.11083 0.0
H1360 H 0.45144 0.20662 0.15261 0.0
H1361 H 0.45516 0.26819 0.16347 0.0
H1362 H 0.49646 0.19855 0.13348 0.0
H1363 H 0.50151 0.1956 0.16482 0.0
H1364 H 0.47909 0.18643 0.1525 0.0
H1365 H 0.48482 0.28353 0.17352 0.0
H1366 H 0.50585 0.26888 0.18038 0.0
H1367 H 0.50102 0.27587 0.14994 0.0
H1368 H 0.55656 0.22687 0.18412 0.0
H1369 H 0.54622 0.24146 0.11011 0.0
H1370 H 0.50895 0.21421 0.19964 0.0
H1371 H 0.51098 0.23955 0.20592 0.0
H1372 H 0.53117 0.22364 0.21223 0.0
H1373 H 0.49657 0.22999 0.10897 0.0
H1374 H 0.51517 0.24358 0.09357 0.0
H1375 H 0.49881 0.25553 0.11407 0.0
C1376 C 0.76725 0.54187 0.12817 0.0
C1377 C 0.76926 0.5551 0.14715 0.0
C1378 C 0.76714 0.5218 0.13234 0.0
C1379 C 0.76838 0.51473 0.15623 0.0
C1380 C 0.77036 0.52803 0.17556 0.0
C1381 C 0.77112 0.54811 0.17073 0.0
C1382 C 0.76558 0.50818 0.11111 0.0
C1383 C 0.77112 0.52108 0.20129 0.0
C1384 C 0.74711 0.46411 0.15978 0.0
C1385 C 0.76382 0.45254 0.1587 0.0
C1386 C 0.74845 0.48441 0.16123 0.0
C1387 C 0.76694 0.4934 0.1606 0.0
C1388 C 0.78388 0.4817 0.16075 0.0
C1389 C 0.7821 0.46136 0.16018 0.0
C1390 C 0.73003 0.49627 0.16189 0.0
C1391 C 0.80386 0.49063 0.1594 0.0
H1392 H 0.76604 0.54724 0.10988 0.0
H1393 H 0.77259 0.55835 0.18543 0.0
H1394 H 0.77749 0.49734 0.11164 0.0
H1395 H 0.75168 0.5001 0.11197 0.0
H1396 H 0.76623 0.51598 0.09362 0.0
H1397 H 0.77321 0.53321 0.21421 0.0
H1398 H 0.7574 0.51346 0.2058 0.0
H1399 H 0.78309 0.51048 0.20367 0.0
H1400 H 0.73296 0.45728 0.15876 0.0
H1401 H 0.79504 0.45242 0.15909 0.0
H1402 H 0.72757 0.50306 0.14403 0.0
H1403 H 0.73124 0.50815 0.17529 0.0
H1404 H 0.71716 0.48725 0.16637 0.0
H1405 H 0.80606 0.49693 0.14122 0.0
H1406 H 0.8155 0.47978 0.16275 0.0
H1407 H 0.80536 0.5026 0.1726 0.0
C1408 C 0.45701 0.78378 0.15903 0.0
C1409 C 0.44664 0.76632 0.16041 0.0
C1410 C 0.47742 0.78385 0.15966 0.0
C1411 C 0.48759 0.76609 0.16245 0.0
C1412 C 0.47705 0.74865 0.16585 0.0
C1413 C 0.45671 0.74893 0.16436 0.0
C1414 C 0.48806 0.80269 0.15538 0.0
C1415 C 0.48728 0.7295 0.1696 0.0
C1416 C 0.53612 0.7598 0.13117 0.0
C1417 C 0.54936 0.7629 0.14992 0.0
C1418 C 0.51607 0.76123 0.135 0.0
C1419 C 0.50898 0.76528 0.15838 0.0
C1420 C 0.52226 0.7682 0.17753 0.0
C1421 C 0.54237 0.7673 0.17298 0.0
C1422 C 0.50249 0.75849 0.11391 0.0
C1423 C 0.51523 0.77198 0.20282 0.0
H1424 H 0.44925 0.79723 0.15578 0.0
H1425 H 0.44869 0.73543 0.16562 0.0
H1426 H 0.49991 0.80459 0.16867 0.0
H1427 H 0.4948 0.80239 0.13724 0.0
H1428 H 0.47822 0.81546 0.15639 0.0
H1429 H 0.47716 0.71798 0.17582 0.0
H1430 H 0.49393 0.7247 0.15242 0.0
H1431 H 0.49913 0.73105 0.18298 0.0
H1432 H 0.54147 0.75665 0.11323 0.0
H1433 H 0.55259 0.76966 0.18752 0.0
H1434 H 0.49275 0.77126 0.11217 0.0
H1435 H 0.49319 0.74559 0.11693 0.0
H1436 H 0.5104 0.75652 0.09665 0.0
H1437 H 0.50607 0.78522 0.20324 0.0
H1438 H 0.5274 0.77384 0.21573 0.0
H1439 H 0.50604 0.75971 0.20895 0.0
C1440 C 0.23323 0.46015 0.17058 0.0
C1441 C 0.23815 0.45245 0.14804 0.0
C1442 C 0.23234 0.48039 0.17416 0.0
C1443 C 0.23571 0.49309 0.1545 0.0
C1444 C 0.24008 0.48525 0.13156 0.0
C1445 C 0.2416 0.46508 0.12875 0.0
C1446 C 0.22829 0.48818 0.19903 0.0
C1447 C 0.24319 0.49817 0.10992 0.0
C1448 C 0.21818 0.5455 0.15393 0.0
C1449 C 0.23579 0.55557 0.15551 0.0
C1450 C 0.21775 0.52508 0.15457 0.0
C1451 C 0.2353 0.5146 0.1577 0.0
C1452 C 0.2529 0.52486 0.16111 0.0
C1453 C 0.25299 0.54521 0.15947 0.0
C1454 C 0.19877 0.51474 0.15013 0.0
C1455 C 0.27183 0.51433 0.1653 0.0
H1456 H 0.23064 0.45037 0.18552 0.0
H1457 H 0.24516 0.45913 0.11122 0.0
H1458 H 0.24076 0.4971 0.20518 0.0
H1459 H 0.21538 0.49781 0.19871 0.0
H1460 H 0.22576 0.47641 0.21234 0.0
H1461 H 0.24501 0.48973 0.09303 0.0
H1462 H 0.23068 0.50818 0.1077 0.0
H1463 H 0.25632 0.50722 0.11261 0.0
H1464 H 0.20489 0.55352 0.15061 0.0
H1465 H 0.26661 0.55302 0.16084 0.0
H1466 H 0.19639 0.50325 0.16378 0.0
H1467 H 0.19927 0.50754 0.13226 0.0
H1468 H 0.18621 0.52485 0.15042 0.0
H1469 H 0.26998 0.50283 0.17911 0.0
H1470 H 0.28354 0.52433 0.17121 0.0
H1471 H 0.27652 0.50715 0.14841 0.0
C1472 C 0.12004 0.28112 0.45808 0.0
C1473 C 0.12263 0.29692 0.44249 0.0
C1474 C 0.12122 0.28337 0.48309 0.0
C1475 C 0.1246 0.30202 0.49295 0.0
C1476 C 0.12709 0.31813 0.47736 0.0
C1477 C 0.12633 0.31534 0.45224 0.0
C1478 C 0.11885 0.2657 0.49896 0.0
C1479 C 0.13025 0.33829 0.48723 0.0
C1480 C 0.10712 0.30298 0.55741 0.0
C1481 C 0.12431 0.29913 0.57001 0.0
C1482 C 0.10728 0.30593 0.53242 0.0
C1483 C 0.12498 0.30434 0.51963 0.0
C1484 C 0.14257 0.30176 0.53252 0.0
C1485 C 0.14204 0.29942 0.55766 0.0
C1486 C 0.08827 0.30922 0.51952 0.0
C1487 C 0.16172 0.29962 0.51961 0.0
H1488 H 0.11742 0.26678 0.4507 0.0
H1489 H 0.12832 0.3276 0.44026 0.0
H1490 H 0.13155 0.26423 0.51112 0.0
H1491 H 0.10578 0.26736 0.51043 0.0
H1492 H 0.11737 0.25209 0.4884 0.0
H1493 H 0.13217 0.34924 0.47274 0.0
H1494 H 0.11765 0.34258 0.49848 0.0
H1495 H 0.14324 0.33852 0.49902 0.0
H1496 H 0.0934 0.30291 0.56698 0.0
H1497 H 0.15534 0.29631 0.56736 0.0
H1498 H 0.0838 0.29564 0.51033 0.0
H1499 H 0.08984 0.32063 0.50555 0.0
H1500 H 0.07652 0.31355 0.53213 0.0
H1501 H 0.16224 0.28524 0.51061 0.0
H1502 H 0.17424 0.30066 0.53215 0.0
H1503 H 0.16332 0.31085 0.50544 0.0
C1504 C 0.69527 0.12041 0.55405 0.0
C1505 C 0.71366 0.1197 0.56487 0.0
C1506 C 0.69331 0.12052 0.52882 0.0
C1507 C 0.71014 0.12049 0.51415 0.0
C1508 C 0.72872 0.12012 0.52507 0.0
C1509 C 0.73023 0.11945 0.55022 0.0
C1510 C 0.67327 0.12038 0.51784 0.0
C1511 C 0.74707 0.12052 0.51018 0.0
C1512 C 0.71228 0.10301 0.44951 0.0
C1513 C 0.71276 0.12057 0.43678 0.0
C1514 C 0.7099 0.10273 0.4746 0.0
C1515 C 0.70863 0.12048 0.48737 0.0
C1516 C 0.70825 0.13824 0.47446 0.0
C1517 C 0.71004 0.13805 0.44924 0.0
C1518 C 0.70978 0.08345 0.48755 0.0
C1519 C 0.70738 0.1575 0.48737 0.0
H1520 H 0.68242 0.12056 0.56531 0.0
H1521 H 0.74449 0.11914 0.55847 0.0
H1522 H 0.67129 0.13327 0.50615 0.0
H1523 H 0.67154 0.10735 0.50628 0.0
H1524 H 0.66165 0.12032 0.53171 0.0
H1525 H 0.76036 0.12119 0.52148 0.0
H1526 H 0.74788 0.10735 0.49874 0.0
H1527 H 0.74693 0.13328 0.49798 0.0
H1528 H 0.71422 0.08945 0.43987 0.0
H1529 H 0.71056 0.15166 0.43944 0.0
H1530 H 0.69789 0.083 0.50102 0.0
H1531 H 0.72366 0.08153 0.4974 0.0
H1532 H 0.70799 0.07107 0.47494 0.0
H1533 H 0.6955 0.15756 0.50083 0.0
H1534 H 0.70518 0.16983 0.47476 0.0
H1535 H 0.72117 0.15987 0.49727 0.0
C1536 C 0.88585 0.72944 0.45459 0.0
C1537 C 0.88556 0.71387 0.43835 0.0
C1538 C 0.88529 0.72631 0.4795 0.0
C1539 C 0.88501 0.70707 0.48853 0.0
C1540 C 0.88508 0.69123 0.47225 0.0
C1541 C 0.88504 0.69483 0.44729 0.0
C1542 C 0.88477 0.74364 0.49616 0.0
C1543 C 0.88537 0.67055 0.4812 0.0
C1544 C 0.90163 0.70603 0.55348 0.0
C1545 C 0.88388 0.70602 0.56579 0.0
C1546 C 0.90229 0.70462 0.52829 0.0
C1547 C 0.88473 0.70387 0.51506 0.0
C1548 C 0.8668 0.70276 0.52752 0.0
C1549 C 0.86662 0.70357 0.5528 0.0
C1550 C 0.92173 0.70519 0.51579 0.0
C1551 C 0.84772 0.70241 0.51416 0.0
H1552 H 0.88602 0.7442 0.44778 0.0
H1553 H 0.88488 0.68276 0.43478 0.0
H1554 H 0.87192 0.74273 0.50815 0.0
H1555 H 0.89785 0.74371 0.50779 0.0
H1556 H 0.88417 0.75762 0.48621 0.0
H1557 H 0.88583 0.65987 0.46623 0.0
H1558 H 0.89821 0.66824 0.49292 0.0
H1559 H 0.87231 0.66764 0.49229 0.0
H1560 H 0.91501 0.7078 0.56353 0.0
H1561 H 0.85286 0.70373 0.56227 0.0
H1562 H 0.92389 0.71968 0.50749 0.0
H1563 H 0.92232 0.69425 0.50114 0.0
H1564 H 0.9339 0.70246 0.52847 0.0
H1565 H 0.84524 0.71677 0.5056 0.0
H1566 H 0.8353 0.69923 0.52627 0.0
H1567 H 0.84801 0.69142 0.49958 0.0
C1568 C 0.27939 0.88528 0.55358 0.0
C1569 C 0.29523 0.88259 0.56908 0.0
C1570 C 0.28158 0.88421 0.52853 0.0
C1571 C 0.3002 0.88081 0.51855 0.0
C1572 C 0.31634 0.87831 0.53405 0.0
C1573 C 0.31362 0.87898 0.55918 0.0
C1574 C 0.26388 0.88662 0.51273 0.0
C1575 C 0.33647 0.87514 0.52409 0.0
C1576 C 0.29833 0.86313 0.45379 0.0
C1577 C 0.2984 0.88079 0.44127 0.0
C1578 C 0.3001 0.86273 0.47902 0.0
C1579 C 0.30249 0.88037 0.49185 0.0
C1580 C 0.30432 0.89802 0.47898 0.0
C1581 C 0.30195 0.89805 0.45389 0.0
C1582 C 0.29773 0.84363 0.49202 0.0
C1583 C 0.30743 0.91708 0.49182 0.0
H1584 H 0.26508 0.88785 0.56106 0.0
H1585 H 0.32593 0.87691 0.57106 0.0
H1586 H 0.26558 0.89963 0.50115 0.0
H1587 H 0.26232 0.87388 0.50066 0.0
H1588 H 0.25032 0.88824 0.52335 0.0
H1589 H 0.34751 0.87347 0.53853 0.0
H1590 H 0.33672 0.86197 0.5126 0.0
H1591 H 0.34063 0.88759 0.51253 0.0
H1592 H 0.29541 0.84979 0.44409 0.0
H1593 H 0.30214 0.91173 0.4442 0.0
H1594 H 0.28337 0.84334 0.50107 0.0
H1595 H 0.30896 0.84195 0.50617 0.0
H1596 H 0.29861 0.83105 0.47955 0.0
H1597 H 0.29379 0.92148 0.50095 0.0
H1598 H 0.31171 0.92885 0.47921 0.0
H1599 H 0.31879 0.9156 0.50585 0.0
C1600 C 0.13871 0.70434 0.45753 0.0
C1601 C 0.12107 0.70653 0.44525 0.0
C1602 C 0.13926 0.70377 0.48282 0.0
C1603 C 0.1217 0.70487 0.49604 0.0
C1604 C 0.10376 0.70528 0.48356 0.0
C1605 C 0.10368 0.70646 0.45833 0.0
C1606 C 0.15871 0.70375 0.49533 0.0
C1607 C 0.08468 0.70585 0.49689 0.0
C1608 C 0.12244 0.69728 0.56416 0.0
C1609 C 0.12147 0.7165 0.57242 0.0
C1610 C 0.12244 0.69314 0.53931 0.0
C1611 C 0.1221 0.70861 0.52248 0.0
C1612 C 0.12169 0.72803 0.53086 0.0
C1613 C 0.12108 0.7317 0.55566 0.0
C1614 C 0.12234 0.67226 0.53107 0.0
C1615 C 0.12182 0.74501 0.51363 0.0
H1616 H 0.1522 0.70456 0.44747 0.0
H1617 H 0.09001 0.70802 0.44886 0.0
H1618 H 0.16145 0.71834 0.50307 0.0
H1619 H 0.15885 0.6932 0.51041 0.0
H1620 H 0.17076 0.70017 0.48281 0.0
H1621 H 0.07219 0.7028 0.48481 0.0
H1622 H 0.08463 0.69514 0.51181 0.0
H1623 H 0.08259 0.72045 0.50492 0.0
H1624 H 0.12266 0.6855 0.5771 0.0
H1625 H 0.12057 0.74658 0.56197 0.0
H1626 H 0.13476 0.66948 0.51885 0.0
H1627 H 0.10889 0.66933 0.5207 0.0
H1628 H 0.12311 0.66191 0.54638 0.0
H1629 H 0.13433 0.7438 0.50114 0.0
H1630 H 0.12272 0.75919 0.5231 0.0
H1631 H 0.10842 0.74489 0.50257 0.0
C1632 C 0.27694 0.12453 0.455 0.0
C1633 C 0.29198 0.12594 0.4381 0.0
C1634 C 0.28071 0.12516 0.47977 0.0
C1635 C 0.30011 0.12665 0.488 0.0
C1636 C 0.31543 0.12806 0.47104 0.0
C1637 C 0.31115 0.128 0.44622 0.0
C1638 C 0.26386 0.12412 0.49713 0.0
C1639 C 0.33631 0.12913 0.47911 0.0
C1640 C 0.3035 0.14275 0.55325 0.0
C1641 C 0.30232 0.12487 0.56522 0.0
C1642 C 0.30408 0.14362 0.52796 0.0
C1643 C 0.30402 0.12617 0.51443 0.0
C1644 C 0.30468 0.1081 0.5266 0.0
C1645 C 0.30346 0.10767 0.55183 0.0
C1646 C 0.30293 0.16318 0.51579 0.0
C1647 C 0.30525 0.08916 0.51295 0.0
H1648 H 0.26208 0.12318 0.44881 0.0
H1649 H 0.32281 0.129 0.43318 0.0
H1650 H 0.26483 0.11062 0.50795 0.0
H1651 H 0.2644 0.13654 0.50984 0.0
H1652 H 0.2496 0.12431 0.48779 0.0
H1653 H 0.34649 0.13078 0.46374 0.0
H1654 H 0.33839 0.1415 0.49162 0.0
H1655 H 0.34015 0.11572 0.48911 0.0
H1656 H 0.30243 0.15609 0.56354 0.0
H1657 H 0.30266 0.09381 0.56106 0.0
H1658 H 0.28815 0.1652 0.50823 0.0
H1659 H 0.31334 0.16408 0.50063 0.0
H1660 H 0.30589 0.17528 0.52851 0.0
H1661 H 0.29078 0.08626 0.50497 0.0
H1662 H 0.30913 0.07676 0.5248 0.0
H1663 H 0.31588 0.08994 0.49798 0.0
C1664 C 0.86609 0.30162 0.45697 0.0
C1665 C 0.88348 0.29765 0.4448 0.0
C1666 C 0.86542 0.30209 0.48226 0.0
C1667 C 0.88267 0.29909 0.49567 0.0
C1668 C 0.90051 0.29655 0.48336 0.0
C1669 C 0.90064 0.29551 0.4581 0.0
C1670 C 0.84602 0.30431 0.49459 0.0
C1671 C 0.91933 0.2939 0.49689 0.0
C1672 C 0.8825 0.30833 0.56353 0.0
C1673 C 0.88143 0.28933 0.57249 0.0
C1674 C 0.88301 0.31184 0.53853 0.0
C1675 C 0.88174 0.29602 0.52226 0.0
C1676 C 0.88 0.27689 0.53136 0.0
C1677 C 0.8802 0.27378 0.5563 0.0
C1678 C 0.88545 0.33237 0.52954 0.0
C1679 C 0.87802 0.25963 0.51477 0.0
H1680 H 0.85276 0.30312 0.44676 0.0
H1681 H 0.91414 0.29258 0.44874 0.0
H1682 H 0.84189 0.29029 0.503 0.0
H1683 H 0.84686 0.31527 0.50917 0.0
H1684 H 0.83438 0.30864 0.48183 0.0
H1685 H 0.93215 0.29511 0.48487 0.0
H1686 H 0.92063 0.30487 0.51143 0.0
H1687 H 0.91955 0.27936 0.50547 0.0
H1688 H 0.88357 0.32035 0.57604 0.0
H1689 H 0.87915 0.25909 0.56319 0.0
H1690 H 0.87348 0.33621 0.51706 0.0
H1691 H 0.8992 0.33355 0.51923 0.0
H1692 H 0.88575 0.3431 0.54445 0.0
H1693 H 0.86581 0.26195 0.50205 0.0
H1694 H 0.87544 0.24589 0.52475 0.0
H1695 H 0.89141 0.25794 0.5039 0.0
C1696 C 0.71589 0.86187 0.55383 0.0
C1697 C 0.70391 0.87316 0.56854 0.0
C1698 C 0.71337 0.86165 0.52877 0.0
C1699 C 0.69841 0.87295 0.51824 0.0
C1700 C 0.68539 0.88329 0.5333 0.0
C1701 C 0.68846 0.88349 0.55835 0.0
C1702 C 0.72775 0.8506 0.51349 0.0
C1703 C 0.66904 0.89519 0.52287 0.0
C1704 C 0.71216 0.8933 0.45724 0.0
C1705 C 0.70375 0.87986 0.44134 0.0
C1706 C 0.70978 0.89164 0.4822 0.0
C1707 C 0.6985 0.87627 0.4917 0.0
C1708 C 0.68899 0.86331 0.47579 0.0
C1709 C 0.6918 0.86519 0.45076 0.0
C1710 C 0.72026 0.90579 0.49844 0.0
C1711 C 0.67653 0.84699 0.48521 0.0
H1712 H 0.72799 0.85412 0.56183 0.0
H1713 H 0.67935 0.89238 0.56983 0.0
H1714 H 0.7201 0.84164 0.49991 0.0
H1715 H 0.7371 0.86104 0.50362 0.0
H1716 H 0.73723 0.84099 0.52445 0.0
H1717 H 0.6582 0.89927 0.5368 0.0
H1718 H 0.67499 0.9087 0.5149 0.0
H1719 H 0.66157 0.88711 0.50829 0.0
H1720 H 0.72127 0.90482 0.45025 0.0
H1721 H 0.68515 0.85478 0.43867 0.0
H1722 H 0.73131 0.89793 0.50923 0.0
H1723 H 0.70992 0.91256 0.51122 0.0
H1724 H 0.72764 0.9175 0.48819 0.0
H1725 H 0.6859 0.83578 0.49363 0.0
H1726 H 0.6679 0.84002 0.4707 0.0
H1727 H 0.66648 0.85239 0.49931 0.0
C1728 C 0.60422 0.79839 0.0564 0.0
C1729 C 0.62144 0.79566 0.06941 0.0
C1730 C 0.60446 0.80023 0.03125 0.0
C1731 C 0.62229 0.79868 0.01875 0.0
C1732 C 0.63985 0.79714 0.03193 0.0
C1733 C 0.63923 0.7959 0.05719 0.0
C1734 C 0.58545 0.80246 0.01799 0.0
C1735 C 0.65915 0.79509 0.01933 0.0
C1736 C 0.61895 0.77411 0.95774 0.0
C1737 C 0.62143 0.7897 0.94181 0.0
C1738 C 0.61957 0.77687 0.98273 0.0
C1739 C 0.62224 0.7958 0.99214 0.0
C1740 C 0.62448 0.81168 0.97618 0.0
C1741 C 0.62431 0.80841 0.95116 0.0
C1742 C 0.61748 0.75945 0.99906 0.0
C1743 C 0.62686 0.83212 0.98553 0.0
H1744 H 0.59045 0.79833 0.06586 0.0
H1745 H 0.65255 0.79361 0.0672 0.0
H1746 H 0.58674 0.81354 1.00359 0.0
H1747 H 0.58158 0.78849 0.00929 0.0
H1748 H 0.57343 0.80667 0.03025 0.0
H1749 H 0.67156 0.79661 0.03198 0.0
H1750 H 0.66 0.78056 0.01076 0.0
H1751 H 0.66066 0.80607 0.00486 0.0
H1752 H 0.61694 0.75958 0.95066 0.0
H1753 H 0.62618 0.82052 0.93891 0.0
H1754 H 0.60428 0.761 0.01032 0.0
H1755 H 0.6301 0.75853 0.01143 0.0
H1756 H 0.61642 0.74562 0.98887 0.0
H1757 H 0.61414 0.8361 0.99675 0.0
H1758 H 0.62831 0.8429 0.97077 0.0
H1759 H 0.63987 0.83304 0.99722 0.0
C1760 C 0.2044 0.64634 0.95561 0.0
C1761 C 0.20355 0.62857 0.94337 0.0
C1762 C 0.20294 0.64705 0.98086 0.0
C1763 C 0.20009 0.62962 0.99401 0.0
C1764 C 0.19736 0.61195 0.98142 0.0
C1765 C 0.19944 0.61159 0.9563 0.0
C1766 C 0.20625 0.66615 0.99351 0.0
C1767 C 0.19376 0.59313 0.9946 0.0
C1768 C 0.22494 0.62355 0.05446 0.0
C1769 C 0.20971 0.62658 0.07078 0.0
C1770 C 0.22201 0.62504 0.02958 0.0
C1771 C 0.20323 0.62922 0.02058 0.0
C1772 C 0.18772 0.63229 0.03692 0.0
C1773 C 0.19121 0.63119 0.0619 0.0
C1774 C 0.23908 0.62204 0.01289 0.0
C1775 C 0.16743 0.63633 0.02801 0.0
H1776 H 0.20773 0.65947 0.94567 0.0
H1777 H 0.19864 0.59785 0.94683 0.0
H1778 H 0.19562 0.66822 0.00827 0.0
H1779 H 0.22095 0.66613 1.00171 0.0
H1780 H 0.20523 0.67866 0.98095 0.0
H1781 H 0.18862 0.5815 0.9823 0.0
H1782 H 0.20743 0.58817 1.0032 0.0
H1783 H 0.18285 0.59519 0.00907 0.0
H1784 H 0.23935 0.62025 0.06118 0.0
H1785 H 0.17938 0.63352 0.07444 0.0
H1786 H 0.24062 0.63467 1.00063 0.0
H1787 H 0.23661 0.60902 1.00156 0.0
H1788 H 0.25294 0.62008 0.02282 0.0
H1789 H 0.16742 0.64913 0.0159 0.0
H1790 H 0.1571 0.63901 0.04299 0.0
H1791 H 0.16216 0.62378 0.01733 0.0
C1792 C 0.38857 0.1976 0.05807 0.0
C1793 C 0.38735 0.21631 0.06789 0.0
C1794 C 0.38891 0.1948 0.03295 0.0
C1795 C 0.38726 0.21105 0.01741 0.0
C1796 C 0.38569 0.22992 0.02735 0.0
C1797 C 0.38608 0.23233 0.05241 0.0
C1798 C 0.39125 0.17453 0.02305 0.0
C1799 C 0.38335 0.24761 0.01153 0.0
C1800 C 0.40375 0.21256 0.95224 0.0
C1801 C 0.38612 0.21042 0.93992 0.0
C1802 C 0.40455 0.2113 0.97746 0.0
C1803 C 0.3872 0.2086 0.99072 0.0
C1804 C 0.36947 0.2057 0.97828 0.0
C1805 C 0.36921 0.20634 0.95299 0.0
C1806 C 0.42386 0.2138 0.98994 0.0
C1807 C 0.35055 0.20333 0.99167 0.0
H1808 H 0.38965 0.1852 0.07001 0.0
H1809 H 0.3849 0.2468 0.05995 0.0
H1810 H 0.37852 0.17066 0.01182 0.0
H1811 H 0.40423 0.17389 0.01124 0.0
H1812 H 0.39284 0.16351 0.03751 0.0
H1813 H 0.38134 0.26114 0.02213 0.0
H1814 H 0.39632 0.24938 0.99992 0.0
H1815 H 0.37063 0.24575 0.99948 0.0
H1816 H 0.41687 0.21559 0.94215 0.0
H1817 H 0.35553 0.20488 0.94351 0.0
H1818 H 0.42574 0.20259 1.00411 0.0
H1819 H 0.42436 0.22819 0.99889 0.0
H1820 H 0.43622 0.21284 0.97716 0.0
H1821 H 0.35184 0.19189 0.00562 0.0
H1822 H 0.33835 0.19956 0.97947 0.0
H1823 H 0.34695 0.2171 1.00104 0.0
C1824 C 0.79326 0.40041 0.05936 0.0
C1825 C 0.79234 0.38312 0.07263 0.0
C1826 C 0.7954 0.40013 0.03423 0.0
C1827 C 0.79598 0.38211 0.02196 0.0
C1828 C 0.796 0.36461 0.03541 0.0
C1829 C 0.79445 0.36534 0.06065 0.0
C1830 C 0.79592 0.41914 0.02071 0.0
C1831 C 0.79616 0.34508 0.02307 0.0
C1832 C 0.77335 0.38272 0.95963 0.0
C1833 C 0.78964 0.38176 0.94455 0.0
C1834 C 0.77528 0.38238 0.98476 0.0
C1835 C 0.79402 0.38164 0.99521 0.0
C1836 C 0.81058 0.38087 0.9801 0.0
C1837 C 0.80818 0.38064 0.95491 0.0
C1838 C 0.75719 0.38277 1.00013 0.0
C1839 C 0.8308 0.3806 0.99053 0.0
H1840 H 0.79177 0.41419 0.0686 0.0
H1841 H 0.79357 0.35194 0.07085 0.0
H1842 H 0.80757 0.41896 0.00693 0.0
H1843 H 0.78194 0.42134 0.01118 0.0
H1844 H 0.79832 0.4317 0.03291 0.0
H1845 H 0.79833 0.33297 0.036 0.0
H1846 H 0.78212 0.34286 0.01368 0.0
H1847 H 0.80776 0.34447 0.00927 0.0
H1848 H 0.75896 0.38334 0.95176 0.0
H1849 H 0.82081 0.37996 0.94331 0.0
H1850 H 0.75693 0.39618 0.01117 0.0
H1851 H 0.75718 0.37025 0.0127 0.0
H1852 H 0.74369 0.38226 0.9892 0.0
H1853 H 0.83315 0.39383 1.00156 0.0
H1854 H 0.84217 0.37996 0.97638 0.0
H1855 H 0.83258 0.36793 1.00265 0.0
C1856 C 0.60695 0.20087 0.05138 0.0
C1857 C 0.62428 0.20098 0.06459 0.0
C1858 C 0.60712 0.199 0.02622 0.0
C1859 C 0.62509 0.19786 0.0139 0.0
C1860 C 0.64256 0.19673 0.02729 0.0
C1861 C 0.64193 0.19805 0.05254 0.0
C1862 C 0.58811 0.19968 0.01273 0.0
C1863 C 0.66206 0.19591 0.01494 0.0
C1864 C 0.62516 0.18944 0.94587 0.0
C1865 C 0.62434 0.20858 0.93735 0.0
C1866 C 0.62552 0.18556 0.9708 0.0
C1867 C 0.62567 0.20123 0.98738 0.0
C1868 C 0.62564 0.22055 0.97867 0.0
C1869 C 0.62468 0.22395 0.95386 0.0
C1870 C 0.62505 0.16479 0.9794 0.0
C1871 C 0.62633 0.23773 0.99558 0.0
H1872 H 0.59327 0.20295 0.06067 0.0
H1873 H 0.65537 0.19825 0.06268 0.0
H1874 H 0.58637 0.21415 1.0042 0.0
H1875 H 0.58789 0.18865 0.99819 0.0
H1876 H 0.57551 0.19717 0.02481 0.0
H1877 H 0.67392 0.19211 0.02764 0.0
H1878 H 0.66193 0.18519 1.00006 0.0
H1879 H 0.66532 0.21032 0.00695 0.0
H1880 H 0.62481 0.17754 0.9331 0.0
H1881 H 0.6243 0.23878 0.94729 0.0
H1882 H 0.61125 0.16207 0.98913 0.0
H1883 H 0.63704 0.16206 0.99229 0.0
H1884 H 0.62623 0.15428 0.96432 0.0
H1885 H 0.61291 0.23819 0.00659 0.0
H1886 H 0.6277 0.25175 0.98584 0.0
H1887 H 0.63878 0.23629 0.00813 0.0
C1888 C 0.80456 0.60808 0.05237 0.0
C1889 C 0.80375 0.62555 0.06526 0.0
C1890 C 0.8065 0.60802 0.02721 0.0
C1891 C 0.807 0.62589 0.01458 0.0
C1892 C 0.80754 0.64354 0.02767 0.0
C1893 C 0.80615 0.64315 0.05292 0.0
C1894 C 0.80646 0.58885 0.01406 0.0
C1895 C 0.8077 0.66292 0.01498 0.0
C1896 C 0.81486 0.62541 0.94645 0.0
C1897 C 0.79568 0.62387 0.93822 0.0
C1898 C 0.81893 0.62621 0.97132 0.0
C1899 C 0.80341 0.62607 0.9881 0.0
C1900 C 0.78403 0.6253 0.97966 0.0
C1901 C 0.78045 0.62392 0.95493 0.0
C1902 C 0.83976 0.62654 0.97965 0.0
C1903 C 0.76698 0.62563 0.99679 0.0
H1904 H 0.8029 0.59443 0.06188 0.0
H1905 H 0.80542 0.6567 0.06281 0.0
H1906 H 0.79202 0.58648 0.00571 0.0
H1907 H 0.8174 0.58887 0.99941 0.0
H1908 H 0.80952 0.57648 0.02634 0.0
H1909 H 0.81128 0.67502 0.02744 0.0
H1910 H 0.81829 0.66293 0.99995 0.0
H1911 H 0.79314 0.66571 0.00716 0.0
H1912 H 0.82664 0.62529 0.93353 0.0
H1913 H 0.76559 0.623 0.94858 0.0
H1914 H 0.84306 0.61289 0.98946 0.0
H1915 H 0.84217 0.6387 0.99238 0.0
H1916 H 0.8501 0.62798 0.9644 0.0
H1917 H 0.76707 0.61234 0.00806 0.0
H1918 H 0.75285 0.62642 0.98722 0.0
H1919 H 0.7681 0.63828 0.00908 0.0
C1920 C 0.40244 0.7981 0.95553 0.0
C1921 C 0.38496 0.7984 0.94262 0.0
C1922 C 0.40259 0.79971 0.98072 0.0
C1923 C 0.38478 0.80096 0.99336 0.0
C1924 C 0.36715 0.80231 0.9803 0.0
C1925 C 0.36749 0.80129 0.95503 0.0
C1926 C 0.42176 0.79884 0.99386 0.0
C1927 C 0.34782 0.80322 0.99303 0.0
C1928 C 0.38425 0.77644 0.05456 0.0
C1929 C 0.38401 0.7923 0.07035 0.0
C1930 C 0.38418 0.77914 0.02954 0.0
C1931 C 0.38446 0.79821 0.01998 0.0
C1932 C 0.38456 0.81433 0.03583 0.0
C1933 C 0.38402 0.81118 0.06088 0.0
C1934 C 0.3836 0.76153 0.01334 0.0
C1935 C 0.38544 0.83484 0.02634 0.0
H1936 H 0.41599 0.79597 0.94595 0.0
H1937 H 0.35393 0.80134 0.94511 0.0
H1938 H 0.42231 0.81 0.00826 0.0
H1939 H 0.42339 0.78444 1.00257 0.0
H1940 H 0.43425 0.80107 0.98153 0.0
H1941 H 0.3357 0.80643 0.98045 0.0
H1942 H 0.34491 0.78905 1.00184 0.0
H1943 H 0.34801 0.81443 0.00734 0.0
H1944 H 0.38402 0.76181 0.06178 0.0
H1945 H 0.38392 0.82348 0.07304 0.0
H1946 H 0.39691 0.76097 1.00212 0.0
H1947 H 0.37101 0.76251 1.00094 0.0
H1948 H 0.38251 0.74774 0.02364 0.0
H1949 H 0.39859 0.83669 0.01503 0.0
H1950 H 0.38577 0.84578 0.04103 0.0
H1951 H 0.3727 0.83779 0.01471 0.0
C1952 C 0.20525 0.39703 0.95455 0.0
C1953 C 0.20626 0.37999 0.94084 0.0
C1954 C 0.20314 0.39628 0.97966 0.0
C1955 C 0.20269 0.37804 0.99142 0.0
C1956 C 0.20253 0.36079 0.97751 0.0
C1957 C 0.20407 0.36198 0.9523 0.0
C1958 C 0.2028 0.41504 0.9937 0.0
C1959 C 0.20244 0.34104 0.98928 0.0
C1960 C 0.22788 0.37897 0.05199 0.0
C1961 C 0.21228 0.37866 0.06816 0.0
C1962 C 0.22488 0.37794 0.02711 0.0
C1963 C 0.20571 0.37713 0.01799 0.0
C1964 C 0.18983 0.37649 0.03422 0.0
C1965 C 0.19332 0.37699 0.05923 0.0
C1966 C 0.2423 0.37813 0.01057 0.0
C1967 C 0.16919 0.37606 0.02517 0.0
H1968 H 0.20673 0.41098 0.94569 0.0
H1969 H 0.20495 0.34877 0.94175 0.0
H1970 H 0.19152 0.41453 0.00793 0.0
H1971 H 0.21702 0.41718 1.0027 0.0
H1972 H 0.19998 0.42778 0.98193 0.0
H1973 H 0.19932 0.32927 0.97617 0.0
H1974 H 0.21688 0.33826 0.99745 0.0
H1975 H 0.19155 0.34042 1.00396 0.0
H1976 H 0.24258 0.37999 0.05887 0.0
H1977 H 0.18124 0.3768 0.07173 0.0
H1978 H 0.24238 0.39171 0.99984 0.0
H1979 H 0.24153 0.3658 0.99775 0.0
H1980 H 0.25622 0.37717 0.0206 0.0
H1981 H 0.16587 0.38993 0.01587 0.0
H1982 H 0.15856 0.374 0.03998 0.0
H1983 H 0.16727 0.36425 0.01182 0.0
C1984 C 0.17565 0.37301 0.21445 0.0
C1985 C 0.18159 0.35847 0.19836 0.0
C1986 C 0.16667 0.36823 0.23644 0.0
C1987 C 0.16399 0.34845 0.24268 0.0
C1988 C 0.16925 0.33379 0.22605 0.0
C1989 C 0.17778 0.33898 0.20405 0.0
C1990 C 0.16079 0.3843 0.2534 0.0
C1991 C 0.16694 0.31252 0.23206 0.0
C1992 C 0.16608 0.33228 0.3079 0.0
C1993 C 0.1468 0.32675 0.31231 0.0
C1994 C 0.17167 0.34009 0.28564 0.0
C1995 C 0.15759 0.34284 0.26739 0.0
C1996 C 0.13788 0.33839 0.2722 0.0
C1997 C 0.13274 0.3302 0.29453 0.0
C1998 C 0.19289 0.34435 0.28122 0.0
C1999 C 0.12237 0.34154 0.25343 0.0
H2000 H 0.17842 0.3881 0.21013 0.0
H2001 H 0.18233 0.32763 0.19178 0.0
H2002 H 0.14592 0.38173 0.26039 0.0
H2003 H 0.17075 0.38453 0.26907 0.0
H2004 H 0.16123 0.39877 0.24457 0.0
H2005 H 0.17074 0.30295 0.21666 0.0
H2006 H 0.17646 0.30875 0.24749 0.0
H2007 H 0.15179 0.3094 0.23754 0.0
H2008 H 0.17706 0.32967 0.32149 0.0
H2009 H 0.1178 0.32607 0.29783 0.0
H2010 H 0.19475 0.35943 0.27463 0.0
H2011 H 0.19853 0.33448 0.26706 0.0
H2012 H 0.20184 0.34243 0.29769 0.0
H2013 H 0.12381 0.35617 0.24525 0.0
H2014 H 0.10753 0.34004 0.26104 0.0
H2015 H 0.1241 0.33074 0.23878 0.0
C2016 C 0.67169 0.1775 0.19991 0.0
C2017 C 0.6522 0.18158 0.19459 0.0
C2018 C 0.67711 0.16954 0.22216 0.0
C2019 C 0.66268 0.16519 0.23948 0.0
C2020 C 0.64288 0.16837 0.2338 0.0
C2021 C 0.63787 0.17671 0.2115 0.0
C2022 C 0.69842 0.16663 0.22753 0.0
C2023 C 0.62703 0.16355 0.25158 0.0
C2024 C 0.68107 0.13386 0.29118 0.0
C2025 C 0.68573 0.14799 0.30844 0.0
C2026 C 0.6724 0.13907 0.26915 0.0
C2027 C 0.66865 0.1589 0.26411 0.0
C2028 C 0.6725 0.17307 0.28193 0.0
C2029 C 0.68083 0.16743 0.3039 0.0
C2030 C 0.66809 0.12347 0.25085 0.0
C2031 C 0.66895 0.19439 0.27727 0.0
H2032 H 0.68289 0.18123 0.18701 0.0
H2033 H 0.62277 0.17971 0.20749 0.0
H2034 H 0.70281 0.17619 0.24266 0.0
H2035 H 0.70117 0.15144 0.23319 0.0
H2036 H 0.70777 0.16995 0.21176 0.0
H2037 H 0.61235 0.16465 0.24342 0.0
H2038 H 0.62905 0.14865 0.25875 0.0
H2039 H 0.62778 0.17369 0.26707 0.0
H2040 H 0.68469 0.1188 0.29458 0.0
H2041 H 0.68434 0.17848 0.31709 0.0
H2042 H 0.67852 0.12459 0.23571 0.0
H2043 H 0.65331 0.12542 0.24329 0.0
H2044 H 0.66922 0.10868 0.2587 0.0
H2045 H 0.67879 0.19951 0.26278 0.0
H2046 H 0.67146 0.20343 0.29354 0.0
H2047 H 0.65385 0.19677 0.271 0.0
C2048 C 0.82783 0.63909 0.21083 0.0
C2049 C 0.82146 0.65367 0.19504 0.0
C2050 C 0.83655 0.64382 0.233 0.0
C2051 C 0.83854 0.66356 0.23973 0.0
C2052 C 0.83253 0.6783 0.22359 0.0
C2053 C 0.82427 0.67318 0.2014 0.0
C2054 C 0.84319 0.62769 0.24946 0.0
C2055 C 0.83407 0.69953 0.23016 0.0
C2056 C 0.83812 0.67857 0.30547 0.0
C2057 C 0.85737 0.68458 0.30904 0.0
C2058 C 0.832 0.671 0.28328 0.0
C2059 C 0.84553 0.669 0.26426 0.0
C2060 C 0.86524 0.67394 0.26819 0.0
C2061 C 0.87089 0.68189 0.29046 0.0
C2062 C 0.81079 0.66621 0.2798 0.0
C2063 C 0.8802 0.67159 0.24857 0.0
H2064 H 0.82581 0.62398 0.20599 0.0
H2065 H 0.81934 0.68455 0.18937 0.0
H2066 H 0.85828 0.63039 0.25559 0.0
H2067 H 0.83385 0.62728 0.26571 0.0
H2068 H 0.84257 0.61326 0.24056 0.0
H2069 H 0.82929 0.70922 0.21531 0.0
H2070 H 0.82497 0.70256 0.24622 0.0
H2071 H 0.84925 0.70323 0.23492 0.0
H2072 H 0.82754 0.68063 0.31968 0.0
H2073 H 0.88582 0.68639 0.29312 0.0
H2074 H 0.80913 0.65125 0.27274 0.0
H2075 H 0.80439 0.67623 0.26632 0.0
H2076 H 0.80236 0.66747 0.29678 0.0
H2077 H 0.87904 0.65699 0.24025 0.0
H2078 H 0.89522 0.67359 0.25541 0.0
H2079 H 0.87754 0.68244 0.23419 0.0
C2080 C 0.33672 0.83118 0.20192 0.0
C2081 C 0.35575 0.82435 0.19878 0.0
C2082 C 0.33056 0.83889 0.22401 0.0
C2083 C 0.34384 0.8402 0.2434 0.0
C2084 C 0.3634 0.83449 0.2399 0.0
C2085 C 0.36908 0.82643 0.2177 0.0
C2086 C 0.30951 0.84454 0.227 0.0
C2087 C 0.37811 0.83607 0.25992 0.0
C2088 C 0.32597 0.87007 0.29676 0.0
C2089 C 0.31858 0.85554 0.31192 0.0
C2090 C 0.33517 0.8653 0.27491 0.0
C2091 C 0.33662 0.84558 0.26784 0.0
C2092 C 0.32969 0.83087 0.28344 0.0
C2093 C 0.32095 0.83602 0.30533 0.0
C2094 C 0.34278 0.88137 0.25905 0.0
C2095 C 0.33066 0.80968 0.27651 0.0
H2096 H 0.32628 0.82962 0.18745 0.0
H2097 H 0.38384 0.8213 0.21539 0.0
H2098 H 0.30246 0.83462 0.24011 0.0
H2099 H 0.30833 0.85947 0.23432 0.0
H2100 H 0.30134 0.84384 0.20978 0.0
H2101 H 0.39317 0.83371 0.25338 0.0
H2102 H 0.37726 0.85056 0.26859 0.0
H2103 H 0.37491 0.82507 0.27395 0.0
H2104 H 0.32429 0.88519 0.30178 0.0
H2105 H 0.31526 0.82468 0.31687 0.0
H2106 H 0.33371 0.88251 0.24262 0.0
H2107 H 0.35782 0.87808 0.25316 0.0
H2108 H 0.34269 0.89565 0.26834 0.0
H2109 H 0.32175 0.80714 0.26017 0.0
H2110 H 0.32533 0.79998 0.29106 0.0
H2111 H 0.3458 0.80553 0.27208 0.0
C2112 C 0.17594 0.63798 0.79866 0.0
C2113 C 0.183 0.65252 0.81404 0.0
C2114 C 0.1666 0.64276 0.77689 0.0
C2115 C 0.16463 0.66251 0.77017 0.0
C2116 C 0.17116 0.67722 0.78603 0.0
C2117 C 0.18009 0.67205 0.8078 0.0
C2118 C 0.15946 0.62668 0.76072 0.0
C2119 C 0.16958 0.69846 0.77951 0.0
C2120 C 0.16465 0.67816 0.70473 0.0
C2121 C 0.1455 0.68466 0.70159 0.0
C2122 C 0.1708 0.67003 0.72659 0.0
C2123 C 0.15741 0.668 0.74577 0.0
C2124 C 0.13774 0.67328 0.74218 0.0
C2125 C 0.13204 0.68171 0.72019 0.0
C2126 C 0.19196 0.6648 0.72965 0.0
C2127 C 0.12292 0.67094 0.76196 0.0
H2128 H 0.17802 0.62285 0.8034 0.0
H2129 H 0.18549 0.6834 0.81952 0.0
H2130 H 0.14441 0.62969 0.75465 0.0
H2131 H 0.16871 0.62588 0.74441 0.0
H2132 H 0.15978 0.61232 0.76983 0.0
H2133 H 0.17454 0.70812 0.79429 0.0
H2134 H 0.17851 0.70147 0.7633 0.0
H2135 H 0.15435 0.7022 0.77501 0.0
H2136 H 0.17518 0.68033 0.69049 0.0
H2137 H 0.11719 0.68658 0.71789 0.0
H2138 H 0.19343 0.64982 0.73674 0.0
H2139 H 0.19873 0.67473 0.74296 0.0
H2140 H 0.20017 0.66586 0.7125 0.0
H2141 H 0.12421 0.65639 0.77041 0.0
H2142 H 0.10785 0.67285 0.75524 0.0
H2143 H 0.12561 0.6819 0.7762 0.0
C2144 C 0.32666 0.13745 0.71276 0.0
C2145 C 0.32104 0.15187 0.6963 0.0
C2146 C 0.33492 0.1424 0.73514 0.0
C2147 C 0.33723 0.16221 0.7414 0.0
C2148 C 0.33201 0.17677 0.72459 0.0
C2149 C 0.32416 0.17142 0.70223 0.0
C2150 C 0.34068 0.12644 0.75233 0.0
C2151 C 0.33394 0.19808 0.7306 0.0
C2152 C 0.33567 0.1783 0.80681 0.0
C2153 C 0.35502 0.18367 0.81106 0.0
C2154 C 0.32985 0.17065 0.78452 0.0
C2155 C 0.34376 0.16794 0.76605 0.0
C2156 C 0.36352 0.17231 0.77067 0.0
C2157 C 0.36889 0.18031 0.79303 0.0
C2158 C 0.30859 0.16646 0.78033 0.0
C2159 C 0.37887 0.16924 0.75167 0.0
H2160 H 0.32438 0.12231 0.70829 0.0
H2161 H 0.31982 0.18268 0.68971 0.0
H2162 H 0.35568 0.12884 0.75896 0.0
H2163 H 0.33094 0.12662 0.76822 0.0
H2164 H 0.33987 0.11185 0.74386 0.0
H2165 H 0.32986 0.20759 0.71526 0.0
H2166 H 0.32448 0.20166 0.74614 0.0
H2167 H 0.34908 0.20146 0.73593 0.0
H2168 H 0.32482 0.18087 0.82057 0.0
H2169 H 0.38389 0.18432 0.79619 0.0
H2170 H 0.30665 0.15142 0.77363 0.0
H2171 H 0.30286 0.17641 0.76631 0.0
H2172 H 0.29978 0.16831 0.79692 0.0
H2173 H 0.37755 0.15451 0.74376 0.0
H2174 H 0.39377 0.17105 0.75897 0.0
H2175 H 0.37678 0.17985 0.73687 0.0
C2176 C 0.87194 0.32694 0.71911 0.0
C2177 C 0.85769 0.322 0.70213 0.0
C2178 C 0.86684 0.33562 0.7412 0.0
C2179 C 0.84701 0.33892 0.74667 0.0
C2180 C 0.83268 0.3346 0.7292 0.0
C2181 C 0.83822 0.32644 0.70709 0.0
C2182 C 0.88261 0.34054 0.75903 0.0
C2183 C 0.81135 0.33752 0.73436 0.0
C2184 C 0.82914 0.33623 0.81125 0.0
C2185 C 0.82407 0.35559 0.81597 0.0
C2186 C 0.83727 0.33075 0.7891 0.0
C2187 C 0.84091 0.34505 0.77134 0.0
C2188 C 0.83694 0.36481 0.77654 0.0
C2189 C 0.8283 0.36982 0.79867 0.0
C2190 C 0.84091 0.30948 0.78423 0.0
C2191 C 0.84112 0.38055 0.75838 0.0
H2192 H 0.88703 0.32366 0.71537 0.0
H2193 H 0.82708 0.32262 0.69415 0.0
H2194 H 0.88034 0.35533 0.76643 0.0
H2195 H 0.88207 0.33022 0.77434 0.0
H2196 H 0.89729 0.33978 0.75081 0.0
H2197 H 0.8021 0.3343 0.71848 0.0
H2198 H 0.80685 0.32788 0.74937 0.0
H2199 H 0.80857 0.35268 0.74012 0.0
H2200 H 0.82585 0.32511 0.82444 0.0
H2201 H 0.82454 0.38483 0.80223 0.0
H2202 H 0.8561 0.30718 0.7783 0.0
H2203 H 0.83131 0.30448 0.76944 0.0
H2204 H 0.83817 0.30029 0.80031 0.0
H2205 H 0.85592 0.37876 0.75082 0.0
H2206 H 0.83988 0.39529 0.76637 0.0
H2207 H 0.8307 0.37947 0.74322 0.0
C2208 C 0.677 0.86817 0.71548 0.0
C2209 C 0.684 0.85373 0.69991 0.0
C2210 C 0.66813 0.86325 0.7375 0.0
C2211 C 0.66656 0.84347 0.74426 0.0
C2212 C 0.67307 0.82886 0.72824 0.0
C2213 C 0.68153 0.83416 0.70624 0.0
C2214 C 0.66099 0.87923 0.75384 0.0
C2215 C 0.67192 0.8076 0.7348 0.0
C2216 C 0.66736 0.82793 0.80975 0.0
C2217 C 0.6483 0.82128 0.81318 0.0
C2218 C 0.67324 0.83603 0.78775 0.0
C2219 C 0.65966 0.83786 0.76875 0.0
C2220 C 0.64009 0.83235 0.77259 0.0
C2221 C 0.63467 0.82394 0.79469 0.0
C2222 C 0.6943 0.84148 0.78439 0.0
C2223 C 0.62508 0.83448 0.75299 0.0
H2224 H 0.67876 0.88332 0.71068 0.0
H2225 H 0.68689 0.82288 0.69438 0.0
H2226 H 0.64603 0.87606 0.7601 0.0
H2227 H 0.67038 0.88005 0.77003 0.0
H2228 H 0.6611 0.89362 0.74481 0.0
H2229 H 0.6769 0.79801 0.71995 0.0
H2230 H 0.68106 0.80474 0.75087 0.0
H2231 H 0.6568 0.80361 0.73952 0.0
H2232 H 0.67801 0.82596 0.8239 0.0
H2233 H 0.61989 0.81897 0.79723 0.0
H2234 H 0.69553 0.85648 0.77732 0.0
H2235 H 0.70105 0.83164 0.77096 0.0
H2236 H 0.7027 0.84048 0.80142 0.0
H2237 H 0.626 0.8491 0.74465 0.0
H2238 H 0.6101 0.83223 0.75986 0.0
H2239 H 0.62789 0.82366 0.73862 0.0
C2240 C 0.83573 0.67845 0.69962 0.0
C2241 C 0.85507 0.68334 0.6945 0.0
C2242 C 0.83059 0.66981 0.72158 0.0
C2243 C 0.84516 0.66561 0.7388 0.0
C2244 C 0.86484 0.66959 0.73326 0.0
C2245 C 0.86955 0.67859 0.71126 0.0
C2246 C 0.80939 0.66607 0.72682 0.0
C2247 C 0.88084 0.66496 0.75091 0.0
C2248 C 0.82729 0.66629 0.80338 0.0
C2249 C 0.82317 0.64662 0.80759 0.0
C2250 C 0.83519 0.67253 0.78143 0.0
C2251 C 0.83942 0.65875 0.76327 0.0
C2252 C 0.8364 0.63874 0.76791 0.0
C2253 C 0.82814 0.63291 0.78995 0.0
C2254 C 0.83794 0.69403 0.77721 0.0
C2255 C 0.84113 0.62356 0.74922 0.0
H2256 H 0.82442 0.68206 0.68682 0.0
H2257 H 0.88454 0.68221 0.70739 0.0
H2258 H 0.80719 0.65072 0.73216 0.0
H2259 H 0.80464 0.67526 0.74214 0.0
H2260 H 0.79995 0.66927 0.7111 0.0
H2261 H 0.89547 0.66668 0.74279 0.0
H2262 H 0.87976 0.67478 0.76668 0.0
H2263 H 0.87932 0.64987 0.75765 0.0
H2264 H 0.82352 0.67702 0.81687 0.0
H2265 H 0.8251 0.61768 0.79308 0.0
H2266 H 0.82795 0.69897 0.76278 0.0
H2267 H 0.85295 0.69703 0.77105 0.0
H2268 H 0.83506 0.70276 0.79364 0.0
H2269 H 0.83063 0.62461 0.73414 0.0
H2270 H 0.84048 0.60862 0.75671 0.0
H2271 H 0.85582 0.62607 0.74167 0.0
C2272 C 0.33791 0.82329 0.80661 0.0
C2273 C 0.35733 0.81943 0.81256 0.0
C2274 C 0.3329 0.83159 0.78439 0.0
C2275 C 0.34768 0.83657 0.76778 0.0
C2276 C 0.36738 0.83356 0.77411 0.0
C2277 C 0.37197 0.82482 0.79632 0.0
C2278 C 0.31169 0.83422 0.77827 0.0
C2279 C 0.38358 0.83909 0.75716 0.0
C2280 C 0.33171 0.83598 0.70236 0.0
C2281 C 0.32668 0.85547 0.69842 0.0
C2282 C 0.33925 0.82979 0.72454 0.0
C2283 C 0.34225 0.84348 0.7432 0.0
C2284 C 0.3383 0.86338 0.73886 0.0
C2285 C 0.33035 0.86912 0.71661 0.0
C2286 C 0.34294 0.8084 0.72845 0.0
C2287 C 0.34174 0.87849 0.75805 0.0
H2288 H 0.32648 0.81912 0.81898 0.0
H2289 H 0.38702 0.82199 0.80084 0.0
H2290 H 0.30877 0.84952 0.77321 0.0
H2291 H 0.30791 0.82506 0.76252 0.0
H2292 H 0.302 0.83024 0.79347 0.0
H2293 H 0.39808 0.83785 0.76578 0.0
H2294 H 0.38328 0.82948 0.74115 0.0
H2295 H 0.38157 0.8542 0.75069 0.0
H2296 H 0.32889 0.8253 0.68846 0.0
H2297 H 0.32661 0.88422 0.71368 0.0
H2298 H 0.33281 0.80277 0.74233 0.0
H2299 H 0.3579 0.80602 0.7352 0.0
H2300 H 0.34095 0.79978 0.71173 0.0
H2301 H 0.33096 0.87666 0.7727 0.0
H2302 H 0.34047 0.89349 0.75087 0.0
H2303 H 0.35637 0.87664 0.76611 0.0
C2304 C 0.16768 0.32184 0.70493 0.0
C2305 C 0.14827 0.31759 0.69938 0.0
C2306 C 0.17275 0.3306 0.72683 0.0
C2307 C 0.15805 0.33553 0.74356 0.0
C2308 C 0.13833 0.33225 0.73755 0.0
C2309 C 0.13367 0.32316 0.71559 0.0
C2310 C 0.19397 0.33367 0.73255 0.0
C2311 C 0.12222 0.33764 0.75469 0.0
C2312 C 0.17548 0.3346 0.80825 0.0
C2313 C 0.18045 0.3541 0.81219 0.0
C2314 C 0.16727 0.32855 0.78641 0.0
C2315 C 0.16365 0.34236 0.76807 0.0
C2316 C 0.16743 0.36226 0.7725 0.0
C2317 C 0.17593 0.36789 0.79446 0.0
C2318 C 0.16363 0.30715 0.78243 0.0
C2319 C 0.1634 0.37748 0.75361 0.0
H2320 H 0.17908 0.31764 0.69254 0.0
H2321 H 0.11863 0.32004 0.71138 0.0
H2322 H 0.19662 0.34898 0.73774 0.0
H2323 H 0.19817 0.32445 0.74809 0.0
H2324 H 0.20355 0.33002 0.71711 0.0
H2325 H 0.10769 0.33654 0.74613 0.0
H2326 H 0.12257 0.32783 0.77052 0.0
H2327 H 0.12427 0.35267 0.76142 0.0
H2328 H 0.17884 0.32381 0.82184 0.0
H2329 H 0.17961 0.38301 0.79739 0.0
H2330 H 0.17365 0.30163 0.76837 0.0
H2331 H 0.14861 0.30474 0.7759 0.0
H2332 H 0.16583 0.29848 0.79907 0.0
H2333 H 0.17412 0.3761 0.73881 0.0
H2334 H 0.16434 0.39243 0.76103 0.0
H2335 H 0.14877 0.37535 0.74568 0.0
C2336 C 0.67374 0.13099 0.71064 0.0
C2337 C 0.67717 0.14498 0.69277 0.0
C2338 C 0.66529 0.13619 0.7328 0.0
C2339 C 0.66064 0.15589 0.7374 0.0
C2340 C 0.66332 0.16988 0.719 0.0
C2341 C 0.67133 0.16421 0.69687 0.0
C2342 C 0.66214 0.12075 0.75167 0.0
C2343 C 0.65891 0.1911 0.7232 0.0
C2344 C 0.63058 0.17391 0.79051 0.0
C2345 C 0.64515 0.17974 0.8066 0.0
C2346 C 0.63531 0.16503 0.76842 0.0
C2347 C 0.65507 0.1624 0.76207 0.0
C2348 C 0.66976 0.16767 0.77865 0.0
C2349 C 0.66462 0.17604 0.80076 0.0
C2350 C 0.61921 0.15912 0.75154 0.0
C2351 C 0.69102 0.16545 0.77253 0.0
H2352 H 0.6781 0.11608 0.70756 0.0
H2353 H 0.67396 0.17514 0.68322 0.0
H2354 H 0.67298 0.1225 0.76628 0.0
H2355 H 0.64753 0.12225 0.75987 0.0
H2356 H 0.66362 0.10588 0.74413 0.0
H2357 H 0.66068 0.19994 0.70662 0.0
H2358 H 0.64385 0.19292 0.72989 0.0
H2359 H 0.6688 0.19691 0.73723 0.0
H2360 H 0.6155 0.17661 0.79494 0.0
H2361 H 0.676 0.18054 0.81302 0.0
H2362 H 0.62178 0.14424 0.74459 0.0
H2363 H 0.61892 0.16906 0.73584 0.0
H2364 H 0.60476 0.15958 0.76042 0.0
H2365 H 0.69423 0.15025 0.76728 0.0
H2366 H 0.70064 0.16948 0.78778 0.0
H2367 H 0.69464 0.17482 0.7569 0.0
C2368 C 0.82295 0.37146 0.2188 0.0
C2369 C 0.81747 0.35708 0.20225 0.0
C2370 C 0.83187 0.36652 0.24079 0.0
C2371 C 0.83504 0.34672 0.24656 0.0
C2372 C 0.83016 0.33223 0.22952 0.0
C2373 C 0.82162 0.33758 0.20756 0.0
C2374 C 0.83726 0.38244 0.25821 0.0
C2375 C 0.83302 0.31092 0.23498 0.0
C2376 C 0.86732 0.32891 0.2978 0.0
C2377 C 0.85356 0.32481 0.31573 0.0
C2378 C 0.86169 0.33708 0.27562 0.0
C2379 C 0.84179 0.34087 0.27108 0.0
C2380 C 0.82798 0.33742 0.28946 0.0
C2381 C 0.83404 0.32962 0.31157 0.0
C2382 C 0.87692 0.34095 0.25671 0.0
C2383 C 0.80659 0.34098 0.28536 0.0
H2384 H 0.81989 0.38656 0.21481 0.0
H2385 H 0.81743 0.32634 0.19495 0.0
H2386 H 0.82745 0.38193 0.27402 0.0
H2387 H 0.85228 0.38029 0.26491 0.0
H2388 H 0.83617 0.39707 0.2499 0.0
H2389 H 0.8294 0.30152 0.21938 0.0
H2390 H 0.84828 0.3081 0.24029 0.0
H2391 H 0.82369 0.30667 0.25038 0.0
H2392 H 0.88244 0.32534 0.30088 0.0
H2393 H 0.82327 0.32649 0.32525 0.0
H2394 H 0.87505 0.35571 0.24903 0.0
H2395 H 0.87528 0.33043 0.24174 0.0
H2396 H 0.89187 0.33964 0.26403 0.0
H2397 H 0.80415 0.35608 0.27909 0.0
H2398 H 0.79784 0.33854 0.30188 0.0
H2399 H 0.8012 0.33112 0.27105 0.0
C2400 C 0.63108 0.8231 0.21511 0.0
C2401 C 0.64564 0.8176 0.19881 0.0
C2402 C 0.63578 0.83218 0.23706 0.0
C2403 C 0.6555 0.83552 0.24299 0.0
C2404 C 0.67017 0.83069 0.22617 0.0
C2405 C 0.66505 0.82195 0.20427 0.0
C2406 C 0.6197 0.83749 0.25429 0.0
C2407 C 0.6914 0.8338 0.2318 0.0
C2408 C 0.67325 0.86771 0.29419 0.0
C2409 C 0.67772 0.85386 0.31188 0.0
C2410 C 0.66485 0.86215 0.27214 0.0
C2411 C 0.66115 0.84225 0.26754 0.0
C2412 C 0.66478 0.82837 0.2858 0.0
C2413 C 0.67286 0.83435 0.30775 0.0
C2414 C 0.66081 0.87744 0.25334 0.0
C2415 C 0.66124 0.80698 0.28164 0.0
H2416 H 0.61604 0.81991 0.21099 0.0
H2417 H 0.67643 0.81779 0.19182 0.0
H2418 H 0.62009 0.82761 0.27005 0.0
H2419 H 0.62175 0.85249 0.26112 0.0
H2420 H 0.60515 0.83641 0.24578 0.0
H2421 H 0.70093 0.83028 0.21628 0.0
H2422 H 0.69401 0.84909 0.23713 0.0
H2423 H 0.69568 0.8245 0.24723 0.0
H2424 H 0.67684 0.88283 0.29727 0.0
H2425 H 0.6762 0.82352 0.32128 0.0
H2426 H 0.64617 0.87535 0.24544 0.0
H2427 H 0.6715 0.87611 0.23851 0.0
H2428 H 0.66177 0.89236 0.26085 0.0
H2429 H 0.6462 0.80454 0.2752 0.0
H2430 H 0.66356 0.79822 0.29819 0.0
H2431 H 0.67122 0.80159 0.26746 0.0
C2432 C 0.16658 0.68068 0.30902 0.0
C2433 C 0.14727 0.68495 0.31505 0.0
C2434 C 0.17136 0.67235 0.28675 0.0
C2435 C 0.15644 0.66777 0.27016 0.0
C2436 C 0.13682 0.67113 0.27659 0.0
C2437 C 0.13247 0.67988 0.29887 0.0
C2438 C 0.19249 0.66929 0.28055 0.0
C2439 C 0.12047 0.66605 0.25965 0.0
C2440 C 0.17276 0.66897 0.20495 0.0
C2441 C 0.17763 0.64948 0.20072 0.0
C2442 C 0.16502 0.67496 0.2271 0.0
C2443 C 0.16169 0.66107 0.24544 0.0
C2444 C 0.16533 0.64117 0.24073 0.0
C2445 C 0.17345 0.63562 0.2185 0.0
C2446 C 0.16161 0.69635 0.23139 0.0
C2447 C 0.16153 0.62586 0.25957 0.0
H2448 H 0.17814 0.68457 0.32135 0.0
H2449 H 0.1175 0.68301 0.30344 0.0
H2450 H 0.19506 0.65399 0.27522 0.0
H2451 H 0.19647 0.67855 0.26495 0.0
H2452 H 0.20229 0.67288 0.29579 0.0
H2453 H 0.10603 0.66732 0.26842 0.0
H2454 H 0.12079 0.67591 0.24387 0.0
H2455 H 0.12226 0.65102 0.25281 0.0
H2456 H 0.17592 0.67982 0.19136 0.0
H2457 H 0.17706 0.62051 0.21535 0.0
H2458 H 0.17186 0.70169 0.2453 0.0
H2459 H 0.1467 0.69884 0.23825 0.0
H2460 H 0.16365 0.70512 0.2148 0.0
H2461 H 0.17244 0.62712 0.27417 0.0
H2462 H 0.16234 0.61095 0.252 0.0
H2463 H 0.14701 0.62799 0.26779 0.0
C2464 C 0.32634 0.16933 0.30325 0.0
C2465 C 0.32246 0.14979 0.30855 0.0
C2466 C 0.33505 0.17476 0.28144 0.0
C2467 C 0.34048 0.16029 0.26463 0.0
C2468 C 0.33764 0.14045 0.27046 0.0
C2469 C 0.32843 0.13544 0.29223 0.0
C2470 C 0.33746 0.1961 0.27586 0.0
C2471 C 0.34371 0.12457 0.25334 0.0
C2472 C 0.33989 0.17723 0.19959 0.0
C2473 C 0.35926 0.18282 0.19599 0.0
C2474 C 0.33377 0.16918 0.22152 0.0
C2475 C 0.34742 0.16619 0.24023 0.0
C2476 C 0.36723 0.17068 0.23618 0.0
C2477 C 0.37289 0.17918 0.21421 0.0
C2478 C 0.31246 0.16495 0.22514 0.0
C2479 C 0.38233 0.16723 0.2554 0.0
H2480 H 0.32173 0.18054 0.31569 0.0
H2481 H 0.32558 0.1203 0.29625 0.0
H2482 H 0.35274 0.19929 0.271 0.0
H2483 H 0.32833 0.20002 0.26012 0.0
H2484 H 0.33326 0.20551 0.29124 0.0
H2485 H 0.34298 0.10998 0.26183 0.0
H2486 H 0.33407 0.12464 0.23735 0.0
H2487 H 0.35874 0.12711 0.24686 0.0
H2488 H 0.32923 0.18004 0.18567 0.0
H2489 H 0.3879 0.18334 0.21152 0.0
H2490 H 0.30654 0.17467 0.23928 0.0
H2491 H 0.31039 0.1498 0.2314 0.0
H2492 H 0.30388 0.16709 0.20841 0.0
H2493 H 0.38029 0.17782 0.27023 0.0
H2494 H 0.39733 0.16881 0.24833 0.0
H2495 H 0.38068 0.15248 0.2632 0.0
loop_
_geom_bond_atom_site_label_1
_geom_bond_atom_site_label_2
_geom_bond_distance
_geom_bond_site_symmetry_2
_ccdc_geom_bond_type
O0 Cd1 2.223 . S
O0 C8 1.315 . S
Cd1 O0 2.223 . S
Cd1 O4 2.297 . S
Cd1 O5 2.439 . S
Cd1 O11 2.240 . S
Cd2 O3 2.240 . S
Cd2 O10 2.223 . S
Cd2 O12 2.297 . S
Cd2 O13 2.439 . S
O3 Cd2 2.240 . S
O3 C8 1.279 . S
O4 Cd1 2.297 . S
O4 C6 1.247 . S
O5 Cd1 2.439 . S
O5 C6 1.208 . S
C6 O4 1.247 . S
C6 O5 1.208 . S
C7 O12 1.247 . S
C7 O13 1.208 . S
C8 O0 1.315 . S
C8 O3 1.279 . S
C9 O10 1.315 . S
C9 O11 1.279 . S
O10 Cd2 2.223 . S
O10 C9 1.315 . S
O11 Cd1 2.240 . S
O11 C9 1.279 . S
O12 Cd2 2.297 . S
O12 C7 1.247 . S
O13 Cd2 2.439 . S
O13 C7 1.208 . S
O14 Cd15 2.223 . S
O14 C22 1.315 . S
Cd15 O14 2.223 . S
Cd15 O18 2.297 . S
Cd15 O19 2.439 . S
Cd15 O25 2.240 . S
Cd16 O17 2.240 . S
Cd16 O24 2.223 . S
Cd16 O26 2.297 . S
Cd16 O27 2.439 . S
O17 Cd16 2.240 . S
O17 C22 1.279 . S
O18 Cd15 2.297 . S
O18 C20 1.247 . S
O19 Cd15 2.439 . S
O19 C20 1.208 . S
C20 O18 1.247 . S
C20 O19 1.208 . S
C21 O26 1.247 . S
C21 O27 1.208 . S
C22 O14 1.315 . S
C22 O17 1.279 . S
C23 O24 1.315 . S
C23 O25 1.279 . S
O24 Cd16 2.223 . S
O24 C23 1.315 . S
O25 Cd15 2.240 . S
O25 C23 1.279 . S
O26 Cd16 2.297 . S
O26 C21 1.247 . S
O27 Cd16 2.439 . S
O27 C21 1.208 . S
O28 Cd29 2.223 . S
O28 C36 1.315 . S
Cd29 O28 2.223 . S
Cd29 O32 2.297 . S
Cd29 O33 2.439 . S
Cd29 O39 2.240 . S
Cd30 O31 2.240 . S
Cd30 O38 2.223 . S
Cd30 O40 2.297 . S
Cd30 O41 2.439 . S
O31 Cd30 2.240 . S
O31 C36 1.279 . S
O32 Cd29 2.297 . S
O32 C34 1.247 . S
O33 Cd29 2.439 . S
O33 C34 1.208 . S
C34 O32 1.247 . S
C34 O33 1.208 . S
C35 O40 1.247 . S
C35 O41 1.208 . S
C36 O28 1.315 . S
C36 O31 1.279 . S
C37 O38 1.315 . S
C37 O39 1.279 . S
O38 Cd30 2.223 . S
O38 C37 1.315 . S
O39 Cd29 2.240 . S
O39 C37 1.279 . S
O40 Cd30 2.297 . S
O40 C35 1.247 . S
O41 Cd30 2.439 . S
O41 C35 1.208 . S
O42 Cd43 2.223 . S
O42 C50 1.315 . S
Cd43 O42 2.223 . S
Cd43 O46 2.297 . S
Cd43 O47 2.439 . S
Cd43 O53 2.240 . S
Cd44 O45 2.240 . S
Cd44 O52 2.223 . S
Cd44 O54 2.297 . S
Cd44 O55 2.439 . S
O45 Cd44 2.240 . S
O45 C50 1.279 . S
O46 Cd43 2.297 . S
O46 C48 1.247 . S
O47 Cd43 2.439 . S
O47 C48 1.208 . S
C48 O46 1.247 . S
C48 O47 1.208 . S
C49 O54 1.247 . S
C49 O55 1.208 . S
C50 O42 1.315 . S
C50 O45 1.279 . S
C51 O52 1.315 . S
C51 O53 1.279 . S
O52 Cd44 2.223 . S
O52 C51 1.315 . S
O53 Cd43 2.240 . S
O53 C51 1.279 . S
O54 Cd44 2.297 . S
O54 C49 1.247 . S
O55 Cd44 2.439 . S
O55 C49 1.208 . S
O56 Cd57 2.223 . S
O56 C64 1.315 . S
Cd57 O56 2.223 . S
Cd57 O60 2.297 . S
Cd57 O61 2.439 . S
Cd57 O67 2.240 . S
Cd58 O59 2.240 . S
Cd58 O66 2.223 . S
Cd58 O68 2.297 . S
Cd58 O69 2.439 . S
O59 Cd58 2.240 . S
O59 C64 1.279 . S
O60 Cd57 2.297 . S
O60 C62 1.247 . S
O61 Cd57 2.439 . S
O61 C62 1.208 . S
C62 O60 1.247 . S
C62 O61 1.208 . S
C63 O68 1.247 . S
C63 O69 1.208 . S
C64 O56 1.315 . S
C64 O59 1.279 . S
C65 O66 1.315 . S
C65 O67 1.279 . S
O66 Cd58 2.223 . S
O66 C65 1.315 . S
O67 Cd57 2.240 . S
O67 C65 1.279 . S
O68 Cd58 2.297 . S
O68 C63 1.247 . S
O69 Cd58 2.439 . S
O69 C63 1.208 . S
O70 Cd71 2.223 . S
O70 C78 1.315 . S
Cd71 O70 2.223 . S
Cd71 O74 2.297 . S
Cd71 O75 2.439 . S
Cd71 O81 2.240 . S
Cd72 O73 2.240 . S
Cd72 O80 2.223 . S
Cd72 O82 2.297 . S
Cd72 O83 2.439 . S
O73 Cd72 2.240 . S
O73 C78 1.279 . S
O74 Cd71 2.297 . S
O74 C76 1.247 . S
O75 Cd71 2.439 . S
O75 C76 1.208 . S
C76 O74 1.247 . S
C76 O75 1.208 . S
C77 O82 1.247 . S
C77 O83 1.208 . S
C78 O70 1.315 . S
C78 O73 1.279 . S
C79 O80 1.315 . S
C79 O81 1.279 . S
O80 Cd72 2.223 . S
O80 C79 1.315 . S
O81 Cd71 2.240 . S
O81 C79 1.279 . S
O82 Cd72 2.297 . S
O82 C77 1.247 . S
O83 Cd72 2.439 . S
O83 C77 1.208 . S
O84 Cd85 2.223 . S
O84 C92 1.315 . S
Cd85 O84 2.223 . S
Cd85 O88 2.297 . S
Cd85 O89 2.439 . S
Cd85 O95 2.240 . S
Cd86 O87 2.240 . S
Cd86 O94 2.223 . S
Cd86 O96 2.297 . S
Cd86 O97 2.439 . S
O87 Cd86 2.240 . S
O87 C92 1.279 . S
O88 Cd85 2.297 . S
O88 C90 1.247 . S
O89 Cd85 2.439 . S
O89 C90 1.208 . S
C90 O88 1.247 . S
C90 O89 1.208 . S
C91 O96 1.247 . S
C91 O97 1.208 . S
C92 O84 1.315 . S
C92 O87 1.279 . S
C93 O94 1.315 . S
C93 O95 1.279 . S
O94 Cd86 2.223 . S
O94 C93 1.315 . S
O95 Cd85 2.240 . S
O95 C93 1.279 . S
O96 Cd86 2.297 . S
O96 C91 1.247 . S
O97 Cd86 2.439 . S
O97 C91 1.208 . S
O98 Cd99 2.223 . S
O98 C106 1.315 . S
Cd99 O98 2.223 . S
Cd99 O102 2.297 . S
Cd99 O103 2.439 . S
Cd99 O109 2.240 . S
Cd100 O101 2.240 . S
Cd100 O108 2.223 . S
Cd100 O110 2.297 . S
Cd100 O111 2.439 . S
O101 Cd100 2.240 . S
O101 C106 1.279 . S
O102 Cd99 2.297 . S
O102 C104 1.247 . S
O103 Cd99 2.439 . S
O103 C104 1.208 . S
C104 O102 1.247 . S
C104 O103 1.208 . S
C105 O110 1.247 . S
C105 O111 1.208 . S
C106 O98 1.315 . S
C106 O101 1.279 . S
C107 O108 1.315 . S
C107 O109 1.279 . S
O108 Cd100 2.223 . S
O108 C107 1.315 . S
O109 Cd99 2.240 . S
O109 C107 1.279 . S
O110 Cd100 2.297 . S
O110 C105 1.247 . S
O111 Cd100 2.439 . S
O111 C105 1.208 . S
O112 Cd113 2.223 . S
O112 C120 1.315 . S
Cd113 O112 2.223 . S
Cd113 O116 2.297 . S
Cd113 O117 2.439 . S
Cd113 O123 2.240 . S
Cd114 O115 2.240 . S
Cd114 O122 2.223 . S
Cd114 O124 2.297 . S
Cd114 O125 2.439 . S
O115 Cd114 2.240 . S
O115 C120 1.279 . S
O116 Cd113 2.297 . S
O116 C118 1.247 . S
O117 Cd113 2.439 . S
O117 C118 1.208 . S
C118 O116 1.247 . S
C118 O117 1.208 . S
C119 O124 1.247 . S
C119 O125 1.208 . S
C120 O112 1.315 . S
C120 O115 1.279 . S
C121 O122 1.315 . S
C121 O123 1.279 . S
O122 Cd114 2.223 . S
O122 C121 1.315 . S
O123 Cd113 2.240 . S
O123 C121 1.279 . S
O124 Cd114 2.297 . S
O124 C119 1.247 . S
O125 Cd114 2.439 . S
O125 C119 1.208 . S
O126 Cd127 2.223 . S
O126 C134 1.315 . S
Cd127 O126 2.223 . S
Cd127 O130 2.297 . S
Cd127 O131 2.439 . S
Cd127 O137 2.240 . S
Cd128 O129 2.240 . S
Cd128 O136 2.223 . S
Cd128 O138 2.297 . S
Cd128 O139 2.439 . S
O129 Cd128 2.240 . S
O129 C134 1.279 . S
O130 Cd127 2.297 . S
O130 C132 1.247 . S
O131 Cd127 2.439 . S
O131 C132 1.208 . S
C132 O130 1.247 . S
C132 O131 1.208 . S
C133 O138 1.247 . S
C133 O139 1.208 . S
C134 O126 1.315 . S
C134 O129 1.279 . S
C135 O136 1.315 . S
C135 O137 1.279 . S
O136 Cd128 2.223 . S
O136 C135 1.315 . S
O137 Cd127 2.240 . S
O137 C135 1.279 . S
O138 Cd128 2.297 . S
O138 C133 1.247 . S
O139 Cd128 2.439 . S
O139 C133 1.208 . S
O140 Cd141 2.223 . S
O140 C148 1.315 . S
Cd141 O140 2.223 . S
Cd141 O144 2.297 . S
Cd141 O145 2.439 . S
Cd141 O151 2.240 . S
Cd142 O143 2.240 . S
Cd142 O150 2.223 . S
Cd142 O152 2.297 . S
Cd142 O153 2.439 . S
O143 Cd142 2.240 . S
O143 C148 1.279 . S
O144 Cd141 2.297 . S
O144 C146 1.247 . S
O145 Cd141 2.439 . S
O145 C146 1.208 . S
C146 O144 1.247 . S
C146 O145 1.208 . S
C147 O152 1.247 . S
C147 O153 1.208 . S
C148 O140 1.315 . S
C148 O143 1.279 . S
C149 O150 1.315 . S
C149 O151 1.279 . S
O150 Cd142 2.223 . S
O150 C149 1.315 . S
O151 Cd141 2.240 . S
O151 C149 1.279 . S
O152 Cd142 2.297 . S
O152 C147 1.247 . S
O153 Cd142 2.439 . S
O153 C147 1.208 . S
O154 Cd155 2.223 . S
O154 C162 1.315 . S
Cd155 O154 2.223 . S
Cd155 O158 2.297 . S
Cd155 O159 2.439 . S
Cd155 O165 2.240 . S
Cd156 O157 2.240 . S
Cd156 O164 2.223 . S
Cd156 O166 2.297 . S
Cd156 O167 2.439 . S
O157 Cd156 2.240 . S
O157 C162 1.279 . S
O158 Cd155 2.297 . S
O158 C160 1.247 . S
O159 Cd155 2.439 . S
O159 C160 1.208 . S
C160 O158 1.247 . S
C160 O159 1.208 . S
C161 O166 1.247 . S
C161 O167 1.208 . S
C162 O154 1.315 . S
C162 O157 1.279 . S
C163 O164 1.315 . S
C163 O165 1.279 . S
O164 Cd156 2.223 . S
O164 C163 1.315 . S
O165 Cd155 2.240 . S
O165 C163 1.279 . S
O166 Cd156 2.297 . S
O166 C161 1.247 . S
O167 Cd156 2.439 . S
O167 C161 1.208 . S
O168 Cd169 2.223 . S
O168 C176 1.315 . S
Cd169 O168 2.223 . S
Cd169 O172 2.297 . S
Cd169 O173 2.439 . S
Cd169 O179 2.240 . S
Cd170 O171 2.240 . S
Cd170 O178 2.223 . S
Cd170 O180 2.297 . S
Cd170 O181 2.439 . S
O171 Cd170 2.240 . S
O171 C176 1.279 . S
O172 Cd169 2.297 . S
O172 C174 1.247 . S
O173 Cd169 2.439 . S
O173 C174 1.208 . S
C174 O172 1.247 . S
C174 O173 1.208 . S
C175 O180 1.247 . S
C175 O181 1.208 . S
C176 O168 1.315 . S
C176 O171 1.279 . S
C177 O178 1.315 . S
C177 O179 1.279 . S
O178 Cd170 2.223 . S
O178 C177 1.315 . S
O179 Cd169 2.240 . S
O179 C177 1.279 . S
O180 Cd170 2.297 . S
O180 C175 1.247 . S
O181 Cd170 2.439 . S
O181 C175 1.208 . S
O182 Cd183 2.223 . S
O182 C190 1.315 . S
Cd183 O182 2.223 . S
Cd183 O186 2.297 . S
Cd183 O187 2.439 . S
Cd183 O193 2.240 . S
Cd184 O185 2.240 . S
Cd184 O192 2.223 . S
Cd184 O194 2.297 . S
Cd184 O195 2.439 . S
O185 Cd184 2.240 . S
O185 C190 1.279 . S
O186 Cd183 2.297 . S
O186 C188 1.247 . S
O187 Cd183 2.439 . S
O187 C188 1.208 . S
C188 O186 1.247 . S
C188 O187 1.208 . S
C189 O194 1.247 . S
C189 O195 1.208 . S
C190 O182 1.315 . S
C190 O185 1.279 . S
C191 O192 1.315 . S
C191 O193 1.279 . S
O192 Cd184 2.223 . S
O192 C191 1.315 . S
O193 Cd183 2.240 . S
O193 C191 1.279 . S
O194 Cd184 2.297 . S
O194 C189 1.247 . S
O195 Cd184 2.439 . S
O195 C189 1.208 . S
O196 Cd197 2.223 . S
O196 C204 1.315 . S
Cd197 O196 2.223 . S
Cd197 O200 2.297 . S
Cd197 O201 2.439 . S
Cd197 O207 2.240 . S
Cd198 O199 2.240 . S
Cd198 O206 2.223 . S
Cd198 O208 2.297 . S
Cd198 O209 2.439 . S
O199 Cd198 2.240 . S
O199 C204 1.279 . S
O200 Cd197 2.297 . S
O200 C202 1.247 . S
O201 Cd197 2.439 . S
O201 C202 1.208 . S
C202 O200 1.247 . S
C202 O201 1.208 . S
C203 O208 1.247 . S
C203 O209 1.208 . S
C204 O196 1.315 . S
C204 O199 1.279 . S
C205 O206 1.315 . S
C205 O207 1.279 . S
O206 Cd198 2.223 . S
O206 C205 1.315 . S
O207 Cd197 2.240 . S
O207 C205 1.279 . S
O208 Cd198 2.297 . S
O208 C203 1.247 . S
O209 Cd198 2.439 . S
O209 C203 1.208 . S
O210 Cd211 2.223 . S
O210 C218 1.315 . S
Cd211 O210 2.223 . S
Cd211 O214 2.297 . S
Cd211 O215 2.439 . S
Cd211 O221 2.240 . S
Cd212 O213 2.240 . S
Cd212 O220 2.223 . S
Cd212 O222 2.297 . S
Cd212 O223 2.439 . S
O213 Cd212 2.240 . S
O213 C218 1.279 . S
O214 Cd211 2.297 . S
O214 C216 1.247 . S
O215 Cd211 2.439 . S
O215 C216 1.208 . S
C216 O214 1.247 . S
C216 O215 1.208 . S
C217 O222 1.247 . S
C217 O223 1.208 . S
C218 O210 1.315 . S
C218 O213 1.279 . S
C219 O220 1.315 . S
C219 O221 1.279 . S
O220 Cd212 2.223 . S
O220 C219 1.315 . S
O221 Cd211 2.240 . S
O221 C219 1.279 . S
O222 Cd212 2.297 . S
O222 C217 1.247 . S
O223 Cd212 2.439 . S
O223 C217 1.208 . S
O224 Cd225 2.223 . S
O224 C232 1.315 . S
Cd225 O224 2.223 . S
Cd225 O228 2.297 . S
Cd225 O229 2.439 . S
Cd225 O235 2.240 . S
Cd226 O227 2.240 . S
Cd226 O234 2.223 . S
Cd226 O236 2.297 . S
Cd226 O237 2.439 . S
O227 Cd226 2.240 . S
O227 C232 1.279 . S
O228 Cd225 2.297 . S
O228 C230 1.247 . S
O229 Cd225 2.439 . S
O229 C230 1.208 . S
C230 O228 1.247 . S
C230 O229 1.208 . S
C231 O236 1.247 . S
C231 O237 1.208 . S
C232 O224 1.315 . S
C232 O227 1.279 . S
C233 O234 1.315 . S
C233 O235 1.279 . S
O234 Cd226 2.223 . S
O234 C233 1.315 . S
O235 Cd225 2.240 . S
O235 C233 1.279 . S
O236 Cd226 2.297 . S
O236 C231 1.247 . S
O237 Cd226 2.439 . S
O237 C231 1.208 . S
O238 Cd239 2.223 . S
O238 C246 1.315 . S
Cd239 O238 2.223 . S
Cd239 O242 2.297 . S
Cd239 O243 2.439 . S
Cd239 O249 2.240 . S
Cd240 O241 2.240 . S
Cd240 O248 2.223 . S
Cd240 O250 2.297 . S
Cd240 O251 2.439 . S
O241 Cd240 2.240 . S
O241 C246 1.279 . S
O242 Cd239 2.297 . S
O242 C244 1.247 . S
O243 Cd239 2.439 . S
O243 C244 1.208 . S
C244 O242 1.247 . S
C244 O243 1.208 . S
C245 O250 1.247 . S
C245 O251 1.208 . S
C246 O238 1.315 . S
C246 O241 1.279 . S
C247 O248 1.315 . S
C247 O249 1.279 . S
O248 Cd240 2.223 . S
O248 C247 1.315 . S
O249 Cd239 2.240 . S
O249 C247 1.279 . S
O250 Cd240 2.297 . S
O250 C245 1.247 . S
O251 Cd240 2.439 . S
O251 C245 1.208 . S
O252 Cd253 2.223 . S
O252 C260 1.315 . S
Cd253 O252 2.223 . S
Cd253 O256 2.297 . S
Cd253 O257 2.439 . S
Cd253 O263 2.240 . S
Cd254 O255 2.240 . S
Cd254 O262 2.223 . S
Cd254 O264 2.297 . S
Cd254 O265 2.439 . S
O255 Cd254 2.240 . S
O255 C260 1.279 . S
O256 Cd253 2.297 . S
O256 C258 1.247 . S
O257 Cd253 2.439 . S
O257 C258 1.208 . S
C258 O256 1.247 . S
C258 O257 1.208 . S
C259 O264 1.247 . S
C259 O265 1.208 . S
C260 O252 1.315 . S
C260 O255 1.279 . S
C261 O262 1.315 . S
C261 O263 1.279 . S
O262 Cd254 2.223 . S
O262 C261 1.315 . S
O263 Cd253 2.240 . S
O263 C261 1.279 . S
O264 Cd254 2.297 . S
O264 C259 1.247 . S
O265 Cd254 2.439 . S
O265 C259 1.208 . S
O266 Cd267 2.223 . S
O266 C274 1.315 . S
Cd267 O266 2.223 . S
Cd267 O270 2.297 . S
Cd267 O271 2.439 . S
Cd267 O277 2.240 . S
Cd268 O269 2.240 . S
Cd268 O276 2.223 . S
Cd268 O278 2.297 . S
Cd268 O279 2.439 . S
O269 Cd268 2.240 . S
O269 C274 1.279 . S
O270 Cd267 2.297 . S
O270 C272 1.247 . S
O271 Cd267 2.439 . S
O271 C272 1.208 . S
C272 O270 1.247 . S
C272 O271 1.208 . S
C273 O278 1.247 . S
C273 O279 1.208 . S
C274 O266 1.315 . S
C274 O269 1.279 . S
C275 O276 1.315 . S
C275 O277 1.279 . S
O276 Cd268 2.223 . S
O276 C275 1.315 . S
O277 Cd267 2.240 . S
O277 C275 1.279 . S
O278 Cd268 2.297 . S
O278 C273 1.247 . S
O279 Cd268 2.439 . S
O279 C273 1.208 . S
O280 Cd281 2.223 . S
O280 C288 1.315 . S
Cd281 O280 2.223 . S
Cd281 O284 2.297 . S
Cd281 O285 2.439 . S
Cd281 O291 2.240 . S
Cd282 O283 2.240 . S
Cd282 O290 2.223 . S
Cd282 O292 2.297 . S
Cd282 O293 2.439 . S
O283 Cd282 2.240 . S
O283 C288 1.279 . S
O284 Cd281 2.297 . S
O284 C286 1.247 . S
O285 Cd281 2.439 . S
O285 C286 1.208 . S
C286 O284 1.247 . S
C286 O285 1.208 . S
C287 O292 1.247 . S
C287 O293 1.208 . S
C288 O280 1.315 . S
C288 O283 1.279 . S
C289 O290 1.315 . S
C289 O291 1.279 . S
O290 Cd282 2.223 . S
O290 C289 1.315 . S
O291 Cd281 2.240 . S
O291 C289 1.279 . S
O292 Cd282 2.297 . S
O292 C287 1.247 . S
O293 Cd282 2.439 . S
O293 C287 1.208 . S
O294 Cd295 2.223 . S
O294 C302 1.315 . S
Cd295 O294 2.223 . S
Cd295 O298 2.297 . S
Cd295 O299 2.439 . S
Cd295 O305 2.240 . S
Cd296 O297 2.240 . S
Cd296 O304 2.223 . S
Cd296 O306 2.297 . S
Cd296 O307 2.439 . S
O297 Cd296 2.240 . S
O297 C302 1.279 . S
O298 Cd295 2.297 . S
O298 C300 1.247 . S
O299 Cd295 2.439 . S
O299 C300 1.208 . S
C300 O298 1.247 . S
C300 O299 1.208 . S
C301 O306 1.247 . S
C301 O307 1.208 . S
C302 O294 1.315 . S
C302 O297 1.279 . S
C303 O304 1.315 . S
C303 O305 1.279 . S
O304 Cd296 2.223 . S
O304 C303 1.315 . S
O305 Cd295 2.240 . S
O305 C303 1.279 . S
O306 Cd296 2.297 . S
O306 C301 1.247 . S
O307 Cd296 2.439 . S
O307 C301 1.208 . S
O308 Cd309 2.223 . S
O308 C316 1.315 . S
Cd309 O308 2.223 . S
Cd309 O312 2.297 . S
Cd309 O313 2.439 . S
Cd309 O319 2.240 . S
Cd310 O311 2.240 . S
Cd310 O318 2.223 . S
Cd310 O320 2.297 . S
Cd310 O321 2.439 . S
O311 Cd310 2.240 . S
O311 C316 1.279 . S
O312 Cd309 2.297 . S
O312 C314 1.247 . S
O313 Cd309 2.439 . S
O313 C314 1.208 . S
C314 O312 1.247 . S
C314 O313 1.208 . S
C315 O320 1.247 . S
C315 O321 1.208 . S
C316 O308 1.315 . S
C316 O311 1.279 . S
C317 O318 1.315 . S
C317 O319 1.279 . S
O318 Cd310 2.223 . S
O318 C317 1.315 . S
O319 Cd309 2.240 . S
O319 C317 1.279 . S
O320 Cd310 2.297 . S
O320 C315 1.247 . S
O321 Cd310 2.439 . S
O321 C315 1.208 . S
O322 Cd323 2.223 . S
O322 C330 1.315 . S
Cd323 O322 2.223 . S
Cd323 O326 2.297 . S
Cd323 O327 2.439 . S
Cd323 O333 2.240 . S
Cd324 O325 2.240 . S
Cd324 O332 2.223 . S
Cd324 O334 2.297 . S
Cd324 O335 2.439 . S
O325 Cd324 2.240 . S
O325 C330 1.279 . S
O326 Cd323 2.297 . S
O326 C328 1.247 . S
O327 Cd323 2.439 . S
O327 C328 1.208 . S
C328 O326 1.247 . S
C328 O327 1.208 . S
C329 O334 1.247 . S
C329 O335 1.208 . S
C330 O322 1.315 . S
C330 O325 1.279 . S
C331 O332 1.315 . S
C331 O333 1.279 . S
O332 Cd324 2.223 . S
O332 C331 1.315 . S
O333 Cd323 2.240 . S
O333 C331 1.279 . S
O334 Cd324 2.297 . S
O334 C329 1.247 . S
O335 Cd324 2.439 . S
O335 C329 1.208 . S
O336 Cd337 2.223 . S
O336 C344 1.315 . S
Cd337 O336 2.223 . S
Cd337 O340 2.297 . S
Cd337 O341 2.439 . S
Cd337 O347 2.240 . S
Cd338 O339 2.240 . S
Cd338 O346 2.223 . S
Cd338 O348 2.297 . S
Cd338 O349 2.439 . S
O339 Cd338 2.240 . S
O339 C344 1.279 . S
O340 Cd337 2.297 . S
O340 C342 1.247 . S
O341 Cd337 2.439 . S
O341 C342 1.208 . S
C342 O340 1.247 . S
C342 O341 1.208 . S
C343 O348 1.247 . S
C343 O349 1.208 . S
C344 O336 1.315 . S
C344 O339 1.279 . S
C345 O346 1.315 . S
C345 O347 1.279 . S
O346 Cd338 2.223 . S
O346 C345 1.315 . S
O347 Cd337 2.240 . S
O347 C345 1.279 . S
O348 Cd338 2.297 . S
O348 C343 1.247 . S
O349 Cd338 2.439 . S
O349 C343 1.208 . S
O350 Cd351 2.223 . S
O350 C358 1.315 . S
Cd351 O350 2.223 . S
Cd351 O354 2.297 . S
Cd351 O355 2.439 . S
Cd351 O361 2.240 . S
Cd352 O353 2.240 . S
Cd352 O360 2.223 . S
Cd352 O362 2.297 . S
Cd352 O363 2.439 . S
O353 Cd352 2.240 . S
O353 C358 1.279 . S
O354 Cd351 2.297 . S
O354 C356 1.247 . S
O355 Cd351 2.439 . S
O355 C356 1.208 . S
C356 O354 1.247 . S
C356 O355 1.208 . S
C357 O362 1.247 . S
C357 O363 1.208 . S
C358 O350 1.315 . S
C358 O353 1.279 . S
C359 O360 1.315 . S
C359 O361 1.279 . S
O360 Cd352 2.223 . S
O360 C359 1.315 . S
O361 Cd351 2.240 . S
O361 C359 1.279 . S
O362 Cd352 2.297 . S
O362 C357 1.247 . S
O363 Cd352 2.439 . S
O363 C357 1.208 . S
O364 Cd365 2.223 . S
O364 C372 1.315 . S
Cd365 O364 2.223 . S
Cd365 O368 2.297 . S
Cd365 O369 2.439 . S
Cd365 O375 2.240 . S
Cd366 O367 2.240 . S
Cd366 O374 2.223 . S
Cd366 O376 2.297 . S
Cd366 O377 2.439 . S
O367 Cd366 2.240 . S
O367 C372 1.279 . S
O368 Cd365 2.297 . S
O368 C370 1.247 . S
O369 Cd365 2.439 . S
O369 C370 1.208 . S
C370 O368 1.247 . S
C370 O369 1.208 . S
C371 O376 1.247 . S
C371 O377 1.208 . S
C372 O364 1.315 . S
C372 O367 1.279 . S
C373 O374 1.315 . S
C373 O375 1.279 . S
O374 Cd366 2.223 . S
O374 C373 1.315 . S
O375 Cd365 2.240 . S
O375 C373 1.279 . S
O376 Cd366 2.297 . S
O376 C371 1.247 . S
O377 Cd366 2.439 . S
O377 C371 1.208 . S
O378 Cd379 2.223 . S
O378 C386 1.315 . S
Cd379 O378 2.223 . S
Cd379 O382 2.297 . S
Cd379 O383 2.439 . S
Cd379 O389 2.240 . S
Cd380 O381 2.240 . S
Cd380 O388 2.223 . S
Cd380 O390 2.297 . S
Cd380 O391 2.439 . S
O381 Cd380 2.240 . S
O381 C386 1.279 . S
O382 Cd379 2.297 . S
O382 C384 1.247 . S
O383 Cd379 2.439 . S
O383 C384 1.208 . S
C384 O382 1.247 . S
C384 O383 1.208 . S
C385 O390 1.247 . S
C385 O391 1.208 . S
C386 O378 1.315 . S
C386 O381 1.279 . S
C387 O388 1.315 . S
C387 O389 1.279 . S
O388 Cd380 2.223 . S
O388 C387 1.315 . S
O389 Cd379 2.240 . S
O389 C387 1.279 . S
O390 Cd380 2.297 . S
O390 C385 1.247 . S
O391 Cd380 2.439 . S
O391 C385 1.208 . S
O392 Cd393 2.223 . S
O392 C400 1.315 . S
Cd393 O392 2.223 . S
Cd393 O396 2.297 . S
Cd393 O397 2.439 . S
Cd393 O403 2.240 . S
Cd394 O395 2.240 . S
Cd394 O402 2.223 . S
Cd394 O404 2.297 . S
Cd394 O405 2.439 . S
O395 Cd394 2.240 . S
O395 C400 1.279 . S
O396 Cd393 2.297 . S
O396 C398 1.247 . S
O397 Cd393 2.439 . S
O397 C398 1.208 . S
C398 O396 1.247 . S
C398 O397 1.208 . S
C399 O404 1.247 . S
C399 O405 1.208 . S
C400 O392 1.315 . S
C400 O395 1.279 . S
C401 O402 1.315 . S
C401 O403 1.279 . S
O402 Cd394 2.223 . S
O402 C401 1.315 . S
O403 Cd393 2.240 . S
O403 C401 1.279 . S
O404 Cd394 2.297 . S
O404 C399 1.247 . S
O405 Cd394 2.439 . S
O405 C399 1.208 . S
O406 Cd407 2.223 . S
O406 C414 1.315 . S
Cd407 O406 2.223 . S
Cd407 O410 2.297 . S
Cd407 O411 2.439 . S
Cd407 O417 2.240 . S
Cd408 O409 2.240 . S
Cd408 O416 2.223 . S
Cd408 O418 2.297 . S
Cd408 O419 2.439 . S
O409 Cd408 2.240 . S
O409 C414 1.279 . S
O410 Cd407 2.297 . S
O410 C412 1.247 . S
O411 Cd407 2.439 . S
O411 C412 1.208 . S
C412 O410 1.247 . S
C412 O411 1.208 . S
C413 O418 1.247 . S
C413 O419 1.208 . S
C414 O406 1.315 . S
C414 O409 1.279 . S
C415 O416 1.315 . S
C415 O417 1.279 . S
O416 Cd408 2.223 . S
O416 C415 1.315 . S
O417 Cd407 2.240 . S
O417 C415 1.279 . S
O418 Cd408 2.297 . S
O418 C413 1.247 . S
O419 Cd408 2.439 . S
O419 C413 1.208 . S
O420 Cd421 2.223 . S
O420 C428 1.315 . S
Cd421 O420 2.223 . S
Cd421 O424 2.297 . S
Cd421 O425 2.439 . S
Cd421 O431 2.240 . S
Cd422 O423 2.240 . S
Cd422 O430 2.223 . S
Cd422 O432 2.297 . S
Cd422 O433 2.439 . S
O423 Cd422 2.240 . S
O423 C428 1.279 . S
O424 Cd421 2.297 . S
O424 C426 1.247 . S
O425 Cd421 2.439 . S
O425 C426 1.208 . S
C426 O424 1.247 . S
C426 O425 1.208 . S
C427 O432 1.247 . S
C427 O433 1.208 . S
C428 O420 1.315 . S
C428 O423 1.279 . S
C429 O430 1.315 . S
C429 O431 1.279 . S
O430 Cd422 2.223 . S
O430 C429 1.315 . S
O431 Cd421 2.240 . S
O431 C429 1.279 . S
O432 Cd422 2.297 . S
O432 C427 1.247 . S
O433 Cd422 2.439 . S
O433 C427 1.208 . S
O434 Cd435 2.223 . S
O434 C442 1.315 . S
Cd435 O434 2.223 . S
Cd435 O438 2.297 . S
Cd435 O439 2.439 . S
Cd435 O445 2.240 . S
Cd436 O437 2.240 . S
Cd436 O444 2.223 . S
Cd436 O446 2.297 . S
Cd436 O447 2.439 . S
O437 Cd436 2.240 . S
O437 C442 1.279 . S
O438 Cd435 2.297 . S
O438 C440 1.247 . S
O439 Cd435 2.439 . S
O439 C440 1.208 . S
C440 O438 1.247 . S
C440 O439 1.208 . S
C441 O446 1.247 . S
C441 O447 1.208 . S
C442 O434 1.315 . S
C442 O437 1.279 . S
C443 O444 1.315 . S
C443 O445 1.279 . S
O444 Cd436 2.223 . S
O444 C443 1.315 . S
O445 Cd435 2.240 . S
O445 C443 1.279 . S
O446 Cd436 2.297 . S
O446 C441 1.247 . S
O447 Cd436 2.439 . S
O447 C441 1.208 . S
C448 C449 1.391 . S
C448 C450 1.394 . S
C448 H464 0.931 . S
C449 C448 1.391 . S
C449 C453 1.376 . S
C450 C448 1.394 . S
C450 C451 1.369 . S
C450 C454 1.531 . S
C451 C450 1.369 . S
C451 C452 1.410 . S
C451 C459 1.503 . S
C452 C451 1.410 . S
C452 C453 1.392 . S
C452 C455 1.511 . S
C453 C449 1.376 . S
C453 C452 1.392 . S
C453 H465 0.929 . S
C454 C450 1.531 . S
C454 H466 0.960 . S
C454 H467 0.962 . S
C454 H468 0.960 . S
C455 C452 1.511 . S
C455 H469 0.961 . S
C455 H470 0.961 . S
C455 H471 0.961 . S
C456 C457 1.370 . S
C456 C458 1.363 . S
C456 H472 0.931 . S
C457 C456 1.370 . S
C457 C461 1.408 . S
C458 C456 1.363 . S
C458 C459 1.370 . S
C458 C462 1.524 . S
C459 C451 1.503 . S
C459 C458 1.370 . S
C459 C460 1.403 . S
C460 C459 1.403 . S
C460 C461 1.404 . S
C460 C463 1.539 . S
C461 C457 1.408 . S
C461 C460 1.404 . S
C461 H473 0.930 . S
C462 C458 1.524 . S
C462 H474 0.956 . S
C462 H475 0.961 . S
C462 H476 0.961 . S
C463 C460 1.539 . S
C463 H477 0.958 . S
C463 H478 0.961 . S
C463 H479 0.960 . S
H464 C448 0.931 . S
H465 C453 0.929 . S
H466 C454 0.960 . S
H467 C454 0.962 . S
H468 C454 0.960 . S
H469 C455 0.961 . S
H470 C455 0.961 . S
H471 C455 0.961 . S
H472 C456 0.931 . S
H473 C461 0.930 . S
H474 C462 0.956 . S
H475 C462 0.961 . S
H476 C462 0.961 . S
H477 C463 0.958 . S
H478 C463 0.961 . S
H479 C463 0.960 . S
C480 C481 1.391 . S
C480 C482 1.394 . S
C480 H496 0.931 . S
C481 C480 1.391 . S
C481 C485 1.376 . S
C482 C480 1.394 . S
C482 C483 1.369 . S
C482 C486 1.531 . S
C483 C482 1.369 . S
C483 C484 1.410 . S
C483 C491 1.503 . S
C484 C483 1.410 . S
C484 C485 1.392 . S
C484 C487 1.511 . S
C485 C481 1.376 . S
C485 C484 1.392 . S
C485 H497 0.929 . S
C486 C482 1.531 . S
C486 H498 0.960 . S
C486 H499 0.962 . S
C486 H500 0.960 . S
C487 C484 1.511 . S
C487 H501 0.961 . S
C487 H502 0.961 . S
C487 H503 0.961 . S
C488 C489 1.370 . S
C488 C490 1.363 . S
C488 H504 0.931 . S
C489 C488 1.370 . S
C489 C493 1.408 . S
C490 C488 1.363 . S
C490 C491 1.370 . S
C490 C494 1.524 . S
C491 C483 1.503 . S
C491 C490 1.370 . S
C491 C492 1.403 . S
C492 C491 1.403 . S
C492 C493 1.404 . S
C492 C495 1.539 . S
C493 C489 1.408 . S
C493 C492 1.404 . S
C493 H505 0.930 . S
C494 C490 1.524 . S
C494 H506 0.956 . S
C494 H507 0.961 . S
C494 H508 0.961 . S
C495 C492 1.539 . S
C495 H509 0.958 . S
C495 H510 0.961 . S
C495 H511 0.960 . S
H496 C480 0.931 . S
H497 C485 0.929 . S
H498 C486 0.960 . S
H499 C486 0.962 . S
H500 C486 0.960 . S
H501 C487 0.961 . S
H502 C487 0.961 . S
H503 C487 0.961 . S
H504 C488 0.931 . S
H505 C493 0.930 . S
H506 C494 0.956 . S
H507 C494 0.961 . S
H508 C494 0.961 . S
H509 C495 0.958 . S
H510 C495 0.961 . S
H511 C495 0.960 . S
C512 C513 1.391 . S
C512 C514 1.394 . S
C512 H528 0.931 . S
C513 C512 1.391 . S
C513 C517 1.376 . S
C514 C512 1.394 . S
C514 C515 1.369 . S
C514 C518 1.531 . S
C515 C514 1.369 . S
C515 C516 1.410 . S
C515 C523 1.503 . S
C516 C515 1.410 . S
C516 C517 1.392 . S
C516 C519 1.511 . S
C517 C513 1.376 . S
C517 C516 1.392 . S
C517 H529 0.929 . S
C518 C514 1.531 . S
C518 H530 0.960 . S
C518 H531 0.962 . S
C518 H532 0.960 . S
C519 C516 1.511 . S
C519 H533 0.961 . S
C519 H534 0.961 . S
C519 H535 0.961 . S
C520 C521 1.370 . S
C520 C522 1.363 . S
C520 H536 0.931 . S
C521 C520 1.370 . S
C521 C525 1.408 . S
C522 C520 1.363 . S
C522 C523 1.370 . S
C522 C526 1.524 . S
C523 C515 1.503 . S
C523 C522 1.370 . S
C523 C524 1.403 . S
C524 C523 1.403 . S
C524 C525 1.404 . S
C524 C527 1.539 . S
C525 C521 1.408 . S
C525 C524 1.404 . S
C525 H537 0.930 . S
C526 C522 1.524 . S
C526 H538 0.956 . S
C526 H539 0.961 . S
C526 H540 0.961 . S
C527 C524 1.539 . S
C527 H541 0.958 . S
C527 H542 0.961 . S
C527 H543 0.960 . S
H528 C512 0.931 . S
H529 C517 0.929 . S
H530 C518 0.960 . S
H531 C518 0.962 . S
H532 C518 0.960 . S
H533 C519 0.961 . S
H534 C519 0.961 . S
H535 C519 0.961 . S
H536 C520 0.931 . S
H537 C525 0.930 . S
H538 C526 0.956 . S
H539 C526 0.961 . S
H540 C526 0.961 . S
H541 C527 0.958 . S
H542 C527 0.961 . S
H543 C527 0.960 . S
C544 C545 1.391 . S
C544 C546 1.394 . S
C544 H560 0.931 . S
C545 C544 1.391 . S
C545 C549 1.376 . S
C546 C544 1.394 . S
C546 C547 1.369 . S
C546 C550 1.531 . S
C547 C546 1.369 . S
C547 C548 1.410 . S
C547 C555 1.503 . S
C548 C547 1.410 . S
C548 C549 1.392 . S
C548 C551 1.511 . S
C549 C545 1.376 . S
C549 C548 1.392 . S
C549 H561 0.929 . S
C550 C546 1.531 . S
C550 H562 0.960 . S
C550 H563 0.962 . S
C550 H564 0.960 . S
C551 C548 1.511 . S
C551 H565 0.961 . S
C551 H566 0.961 . S
C551 H567 0.961 . S
C552 C553 1.370 . S
C552 C554 1.363 . S
C552 H568 0.931 . S
C553 C552 1.370 . S
C553 C557 1.408 . S
C554 C552 1.363 . S
C554 C555 1.370 . S
C554 C558 1.524 . S
C555 C547 1.503 . S
C555 C554 1.370 . S
C555 C556 1.403 . S
C556 C555 1.403 . S
C556 C557 1.404 . S
C556 C559 1.539 . S
C557 C553 1.408 . S
C557 C556 1.404 . S
C557 H569 0.930 . S
C558 C554 1.524 . S
C558 H570 0.956 . S
C558 H571 0.961 . S
C558 H572 0.961 . S
C559 C556 1.539 . S
C559 H573 0.958 . S
C559 H574 0.961 . S
C559 H575 0.960 . S
H560 C544 0.931 . S
H561 C549 0.929 . S
H562 C550 0.960 . S
H563 C550 0.962 . S
H564 C550 0.960 . S
H565 C551 0.961 . S
H566 C551 0.961 . S
H567 C551 0.961 . S
H568 C552 0.931 . S
H569 C557 0.930 . S
H570 C558 0.956 . S
H571 C558 0.961 . S
H572 C558 0.961 . S
H573 C559 0.958 . S
H574 C559 0.961 . S
H575 C559 0.960 . S
C576 C577 1.391 . S
C576 C578 1.394 . S
C576 H592 0.931 . S
C577 C576 1.391 . S
C577 C581 1.376 . S
C578 C576 1.394 . S
C578 C579 1.369 . S
C578 C582 1.531 . S
C579 C578 1.369 . S
C579 C580 1.410 . S
C579 C587 1.503 . S
C580 C579 1.410 . S
C580 C581 1.392 . S
C580 C583 1.511 . S
C581 C577 1.376 . S
C581 C580 1.392 . S
C581 H593 0.929 . S
C582 C578 1.531 . S
C582 H594 0.960 . S
C582 H595 0.962 . S
C582 H596 0.960 . S
C583 C580 1.511 . S
C583 H597 0.961 . S
C583 H598 0.961 . S
C583 H599 0.961 . S
C584 C585 1.370 . S
C584 C586 1.363 . S
C584 H600 0.931 . S
C585 C584 1.370 . S
C585 C589 1.408 . S
C586 C584 1.363 . S
C586 C587 1.370 . S
C586 C590 1.524 . S
C587 C579 1.503 . S
C587 C586 1.370 . S
C587 C588 1.403 . S
C588 C587 1.403 . S
C588 C589 1.404 . S
C588 C591 1.539 . S
C589 C585 1.408 . S
C589 C588 1.404 . S
C589 H601 0.930 . S
C590 C586 1.524 . S
C590 H602 0.956 . S
C590 H603 0.961 . S
C590 H604 0.961 . S
C591 C588 1.539 . S
C591 H605 0.958 . S
C591 H606 0.961 . S
C591 H607 0.960 . S
H592 C576 0.931 . S
H593 C581 0.929 . S
H594 C582 0.960 . S
H595 C582 0.962 . S
H596 C582 0.960 . S
H597 C583 0.961 . S
H598 C583 0.961 . S
H599 C583 0.961 . S
H600 C584 0.931 . S
H601 C589 0.930 . S
H602 C590 0.956 . S
H603 C590 0.961 . S
H604 C590 0.961 . S
H605 C591 0.958 . S
H606 C591 0.961 . S
H607 C591 0.960 . S
C608 C609 1.391 . S
C608 C610 1.394 . S
C608 H624 0.931 . S
C609 C608 1.391 . S
C609 C613 1.376 . S
C610 C608 1.394 . S
C610 C611 1.369 . S
C610 C614 1.531 . S
C611 C610 1.369 . S
C611 C612 1.410 . S
C611 C619 1.503 . S
C612 C611 1.410 . S
C612 C613 1.392 . S
C612 C615 1.511 . S
C613 C609 1.376 . S
C613 C612 1.392 . S
C613 H625 0.929 . S
C614 C610 1.531 . S
C614 H626 0.960 . S
C614 H627 0.962 . S
C614 H628 0.960 . S
C615 C612 1.511 . S
C615 H629 0.961 . S
C615 H630 0.961 . S
C615 H631 0.961 . S
C616 C617 1.370 . S
C616 C618 1.363 . S
C616 H632 0.931 . S
C617 C616 1.370 . S
C617 C621 1.408 . S
C618 C616 1.363 . S
C618 C619 1.370 . S
C618 C622 1.524 . S
C619 C611 1.503 . S
C619 C618 1.370 . S
C619 C620 1.403 . S
C620 C619 1.403 . S
C620 C621 1.404 . S
C620 C623 1.539 . S
C621 C617 1.408 . S
C621 C620 1.404 . S
C621 H633 0.930 . S
C622 C618 1.524 . S
C622 H634 0.956 . S
C622 H635 0.961 . S
C622 H636 0.961 . S
C623 C620 1.539 . S
C623 H637 0.958 . S
C623 H638 0.961 . S
C623 H639 0.960 . S
H624 C608 0.931 . S
H625 C613 0.929 . S
H626 C614 0.960 . S
H627 C614 0.962 . S
H628 C614 0.960 . S
H629 C615 0.961 . S
H630 C615 0.961 . S
H631 C615 0.961 . S
H632 C616 0.931 . S
H633 C621 0.930 . S
H634 C622 0.956 . S
H635 C622 0.961 . S
H636 C622 0.961 . S
H637 C623 0.958 . S
H638 C623 0.961 . S
H639 C623 0.960 . S
C640 C641 1.391 . S
C640 C642 1.394 . S
C640 H656 0.931 . S
C641 C640 1.391 . S
C641 C645 1.376 . S
C642 C640 1.394 . S
C642 C643 1.369 . S
C642 C646 1.531 . S
C643 C642 1.369 . S
C643 C644 1.410 . S
C643 C651 1.503 . S
C644 C643 1.410 . S
C644 C645 1.392 . S
C644 C647 1.511 . S
C645 C641 1.376 . S
C645 C644 1.392 . S
C645 H657 0.929 . S
C646 C642 1.531 . S
C646 H658 0.960 . S
C646 H659 0.962 . S
C646 H660 0.960 . S
C647 C644 1.511 . S
C647 H661 0.961 . S
C647 H662 0.961 . S
C647 H663 0.961 . S
C648 C649 1.370 . S
C648 C650 1.363 . S
C648 H664 0.931 . S
C649 C648 1.370 . S
C649 C653 1.408 . S
C650 C648 1.363 . S
C650 C651 1.370 . S
C650 C654 1.524 . S
C651 C643 1.503 . S
C651 C650 1.370 . S
C651 C652 1.403 . S
C652 C651 1.403 . S
C652 C653 1.404 . S
C652 C655 1.539 . S
C653 C649 1.408 . S
C653 C652 1.404 . S
C653 H665 0.930 . S
C654 C650 1.524 . S
C654 H666 0.956 . S
C654 H667 0.961 . S
C654 H668 0.961 . S
C655 C652 1.539 . S
C655 H669 0.958 . S
C655 H670 0.961 . S
C655 H671 0.960 . S
H656 C640 0.931 . S
H657 C645 0.929 . S
H658 C646 0.960 . S
H659 C646 0.962 . S
H660 C646 0.960 . S
H661 C647 0.961 . S
H662 C647 0.961 . S
H663 C647 0.961 . S
H664 C648 0.931 . S
H665 C653 0.930 . S
H666 C654 0.956 . S
H667 C654 0.961 . S
H668 C654 0.961 . S
H669 C655 0.958 . S
H670 C655 0.961 . S
H671 C655 0.960 . S
C672 C673 1.391 . S
C672 C674 1.394 . S
C672 H688 0.931 . S
C673 C672 1.391 . S
C673 C677 1.376 . S
C674 C672 1.394 . S
C674 C675 1.369 . S
C674 C678 1.531 . S
C675 C674 1.369 . S
C675 C676 1.410 . S
C675 C683 1.503 . S
C676 C675 1.410 . S
C676 C677 1.392 . S
C676 C679 1.511 . S
C677 C673 1.376 . S
C677 C676 1.392 . S
C677 H689 0.929 . S
C678 C674 1.531 . S
C678 H690 0.960 . S
C678 H691 0.962 . S
C678 H692 0.960 . S
C679 C676 1.511 . S
C679 H693 0.961 . S
C679 H694 0.961 . S
C679 H695 0.961 . S
C680 C681 1.370 . S
C680 C682 1.363 . S
C680 H696 0.931 . S
C681 C680 1.370 . S
C681 C685 1.408 . S
C682 C680 1.363 . S
C682 C683 1.370 . S
C682 C686 1.524 . S
C683 C675 1.503 . S
C683 C682 1.370 . S
C683 C684 1.403 . S
C684 C683 1.403 . S
C684 C685 1.404 . S
C684 C687 1.539 . S
C685 C681 1.408 . S
C685 C684 1.404 . S
C685 H697 0.930 . S
C686 C682 1.524 . S
C686 H698 0.956 . S
C686 H699 0.961 . S
C686 H700 0.961 . S
C687 C684 1.539 . S
C687 H701 0.958 . S
C687 H702 0.961 . S
C687 H703 0.960 . S
H688 C672 0.931 . S
H689 C677 0.929 . S
H690 C678 0.960 . S
H691 C678 0.962 . S
H692 C678 0.960 . S
H693 C679 0.961 . S
H694 C679 0.961 . S
H695 C679 0.961 . S
H696 C680 0.931 . S
H697 C685 0.930 . S
H698 C686 0.956 . S
H699 C686 0.961 . S
H700 C686 0.961 . S
H701 C687 0.958 . S
H702 C687 0.961 . S
H703 C687 0.960 . S
C704 C705 1.391 . S
C704 C706 1.394 . S
C704 H720 0.931 . S
C705 C704 1.391 . S
C705 C709 1.376 . S
C706 C704 1.394 . S
C706 C707 1.369 . S
C706 C710 1.531 . S
C707 C706 1.369 . S
C707 C708 1.410 . S
C707 C715 1.503 . S
C708 C707 1.410 . S
C708 C709 1.392 . S
C708 C711 1.511 . S
C709 C705 1.376 . S
C709 C708 1.392 . S
C709 H721 0.929 . S
C710 C706 1.531 . S
C710 H722 0.960 . S
C710 H723 0.962 . S
C710 H724 0.960 . S
C711 C708 1.511 . S
C711 H725 0.961 . S
C711 H726 0.961 . S
C711 H727 0.961 . S
C712 C713 1.370 . S
C712 C714 1.363 . S
C712 H728 0.931 . S
C713 C712 1.370 . S
C713 C717 1.408 . S
C714 C712 1.363 . S
C714 C715 1.370 . S
C714 C718 1.524 . S
C715 C707 1.503 . S
C715 C714 1.370 . S
C715 C716 1.403 . S
C716 C715 1.403 . S
C716 C717 1.404 . S
C716 C719 1.539 . S
C717 C713 1.408 . S
C717 C716 1.404 . S
C717 H729 0.930 . S
C718 C714 1.524 . S
C718 H730 0.956 . S
C718 H731 0.961 . S
C718 H732 0.961 . S
C719 C716 1.539 . S
C719 H733 0.958 . S
C719 H734 0.961 . S
C719 H735 0.960 . S
H720 C704 0.931 . S
H721 C709 0.929 . S
H722 C710 0.960 . S
H723 C710 0.962 . S
H724 C710 0.960 . S
H725 C711 0.961 . S
H726 C711 0.961 . S
H727 C711 0.961 . S
H728 C712 0.931 . S
H729 C717 0.930 . S
H730 C718 0.956 . S
H731 C718 0.961 . S
H732 C718 0.961 . S
H733 C719 0.958 . S
H734 C719 0.961 . S
H735 C719 0.960 . S
C736 C737 1.391 . S
C736 C738 1.394 . S
C736 H752 0.931 . S
C737 C736 1.391 . S
C737 C741 1.376 . S
C738 C736 1.394 . S
C738 C739 1.369 . S
C738 C742 1.531 . S
C739 C738 1.369 . S
C739 C740 1.410 . S
C739 C747 1.503 . S
C740 C739 1.410 . S
C740 C741 1.392 . S
C740 C743 1.511 . S
C741 C737 1.376 . S
C741 C740 1.392 . S
C741 H753 0.929 . S
C742 C738 1.531 . S
C742 H754 0.960 . S
C742 H755 0.962 . S
C742 H756 0.960 . S
C743 C740 1.511 . S
C743 H757 0.961 . S
C743 H758 0.961 . S
C743 H759 0.961 . S
C744 C745 1.370 . S
C744 C746 1.363 . S
C744 H760 0.931 . S
C745 C744 1.370 . S
C745 C749 1.408 . S
C746 C744 1.363 . S
C746 C747 1.370 . S
C746 C750 1.524 . S
C747 C739 1.503 . S
C747 C746 1.370 . S
C747 C748 1.403 . S
C748 C747 1.403 . S
C748 C749 1.404 . S
C748 C751 1.539 . S
C749 C745 1.408 . S
C749 C748 1.404 . S
C749 H761 0.930 . S
C750 C746 1.524 . S
C750 H762 0.956 . S
C750 H763 0.961 . S
C750 H764 0.961 . S
C751 C748 1.539 . S
C751 H765 0.958 . S
C751 H766 0.961 . S
C751 H767 0.960 . S
H752 C736 0.931 . S
H753 C741 0.929 . S
H754 C742 0.960 . S
H755 C742 0.962 . S
H756 C742 0.960 . S
H757 C743 0.961 . S
H758 C743 0.961 . S
H759 C743 0.961 . S
H760 C744 0.931 . S
H761 C749 0.930 . S
H762 C750 0.956 . S
H763 C750 0.961 . S
H764 C750 0.961 . S
H765 C751 0.958 . S
H766 C751 0.961 . S
H767 C751 0.960 . S
C768 C769 1.391 . S
C768 C770 1.394 . S
C768 H784 0.931 . S
C769 C768 1.391 . S
C769 C773 1.376 . S
C770 C768 1.394 . S
C770 C771 1.369 . S
C770 C774 1.531 . S
C771 C770 1.369 . S
C771 C772 1.410 . S
C771 C779 1.503 . S
C772 C771 1.410 . S
C772 C773 1.392 . S
C772 C775 1.511 . S
C773 C769 1.376 . S
C773 C772 1.392 . S
C773 H785 0.929 . S
C774 C770 1.531 . S
C774 H786 0.960 . S
C774 H787 0.962 . S
C774 H788 0.960 . S
C775 C772 1.511 . S
C775 H789 0.961 . S
C775 H790 0.961 . S
C775 H791 0.961 . S
C776 C777 1.370 . S
C776 C778 1.363 . S
C776 H792 0.931 . S
C777 C776 1.370 . S
C777 C781 1.408 . S
C778 C776 1.363 . S
C778 C779 1.370 . S
C778 C782 1.524 . S
C779 C771 1.503 . S
C779 C778 1.370 . S
C779 C780 1.403 . S
C780 C779 1.403 . S
C780 C781 1.404 . S
C780 C783 1.539 . S
C781 C777 1.408 . S
C781 C780 1.404 . S
C781 H793 0.930 . S
C782 C778 1.524 . S
C782 H794 0.956 . S
C782 H795 0.961 . S
C782 H796 0.961 . S
C783 C780 1.539 . S
C783 H797 0.958 . S
C783 H798 0.961 . S
C783 H799 0.960 . S
H784 C768 0.931 . S
H785 C773 0.929 . S
H786 C774 0.960 . S
H787 C774 0.962 . S
H788 C774 0.960 . S
H789 C775 0.961 . S
H790 C775 0.961 . S
H791 C775 0.961 . S
H792 C776 0.931 . S
H793 C781 0.930 . S
H794 C782 0.956 . S
H795 C782 0.961 . S
H796 C782 0.961 . S
H797 C783 0.958 . S
H798 C783 0.961 . S
H799 C783 0.960 . S
C800 C801 1.391 . S
C800 C802 1.394 . S
C800 H816 0.931 . S
C801 C800 1.391 . S
C801 C805 1.376 . S
C802 C800 1.394 . S
C802 C803 1.369 . S
C802 C806 1.531 . S
C803 C802 1.369 . S
C803 C804 1.410 . S
C803 C811 1.503 . S
C804 C803 1.410 . S
C804 C805 1.392 . S
C804 C807 1.511 . S
C805 C801 1.376 . S
C805 C804 1.392 . S
C805 H817 0.929 . S
C806 C802 1.531 . S
C806 H818 0.960 . S
C806 H819 0.962 . S
C806 H820 0.960 . S
C807 C804 1.511 . S
C807 H821 0.961 . S
C807 H822 0.961 . S
C807 H823 0.961 . S
C808 C809 1.370 . S
C808 C810 1.363 . S
C808 H824 0.931 . S
C809 C808 1.370 . S
C809 C813 1.408 . S
C810 C808 1.363 . S
C810 C811 1.370 . S
C810 C814 1.524 . S
C811 C803 1.503 . S
C811 C810 1.370 . S
C811 C812 1.403 . S
C812 C811 1.403 . S
C812 C813 1.404 . S
C812 C815 1.539 . S
C813 C809 1.408 . S
C813 C812 1.404 . S
C813 H825 0.930 . S
C814 C810 1.524 . S
C814 H826 0.956 . S
C814 H827 0.961 . S
C814 H828 0.961 . S
C815 C812 1.539 . S
C815 H829 0.958 . S
C815 H830 0.961 . S
C815 H831 0.960 . S
H816 C800 0.931 . S
H817 C805 0.929 . S
H818 C806 0.960 . S
H819 C806 0.962 . S
H820 C806 0.960 . S
H821 C807 0.961 . S
H822 C807 0.961 . S
H823 C807 0.961 . S
H824 C808 0.931 . S
H825 C813 0.930 . S
H826 C814 0.956 . S
H827 C814 0.961 . S
H828 C814 0.961 . S
H829 C815 0.958 . S
H830 C815 0.961 . S
H831 C815 0.960 . S
C832 C833 1.391 . S
C832 C834 1.394 . S
C832 H848 0.931 . S
C833 C832 1.391 . S
C833 C837 1.376 . S
C834 C832 1.394 . S
C834 C835 1.369 . S
C834 C838 1.531 . S
C835 C834 1.369 . S
C835 C836 1.410 . S
C835 C843 1.503 . S
C836 C835 1.410 . S
C836 C837 1.392 . S
C836 C839 1.511 . S
C837 C833 1.376 . S
C837 C836 1.392 . S
C837 H849 0.929 . S
C838 C834 1.531 . S
C838 H850 0.960 . S
C838 H851 0.962 . S
C838 H852 0.960 . S
C839 C836 1.511 . S
C839 H853 0.961 . S
C839 H854 0.961 . S
C839 H855 0.961 . S
C840 C841 1.370 . S
C840 C842 1.363 . S
C840 H856 0.931 . S
C841 C840 1.370 . S
C841 C845 1.408 . S
C842 C840 1.363 . S
C842 C843 1.370 . S
C842 C846 1.524 . S
C843 C835 1.503 . S
C843 C842 1.370 . S
C843 C844 1.403 . S
C844 C843 1.403 . S
C844 C845 1.404 . S
C844 C847 1.539 . S
C845 C841 1.408 . S
C845 C844 1.404 . S
C845 H857 0.930 . S
C846 C842 1.524 . S
C846 H858 0.956 . S
C846 H859 0.961 . S
C846 H860 0.961 . S
C847 C844 1.539 . S
C847 H861 0.958 . S
C847 H862 0.961 . S
C847 H863 0.960 . S
H848 C832 0.931 . S
H849 C837 0.929 . S
H850 C838 0.960 . S
H851 C838 0.962 . S
H852 C838 0.960 . S
H853 C839 0.961 . S
H854 C839 0.961 . S
H855 C839 0.961 . S
H856 C840 0.931 . S
H857 C845 0.930 . S
H858 C846 0.956 . S
H859 C846 0.961 . S
H860 C846 0.961 . S
H861 C847 0.958 . S
H862 C847 0.961 . S
H863 C847 0.960 . S
C864 C865 1.391 . S
C864 C866 1.394 . S
C864 H880 0.931 . S
C865 C864 1.391 . S
C865 C869 1.376 . S
C866 C864 1.394 . S
C866 C867 1.369 . S
C866 C870 1.531 . S
C867 C866 1.369 . S
C867 C868 1.410 . S
C867 C875 1.503 . S
C868 C867 1.410 . S
C868 C869 1.392 . S
C868 C871 1.511 . S
C869 C865 1.376 . S
C869 C868 1.392 . S
C869 H881 0.929 . S
C870 C866 1.531 . S
C870 H882 0.960 . S
C870 H883 0.962 . S
C870 H884 0.960 . S
C871 C868 1.511 . S
C871 H885 0.961 . S
C871 H886 0.961 . S
C871 H887 0.961 . S
C872 C873 1.370 . S
C872 C874 1.363 . S
C872 H888 0.931 . S
C873 C872 1.370 . S
C873 C877 1.408 . S
C874 C872 1.363 . S
C874 C875 1.370 . S
C874 C878 1.524 . S
C875 C867 1.503 . S
C875 C874 1.370 . S
C875 C876 1.403 . S
C876 C875 1.403 . S
C876 C877 1.404 . S
C876 C879 1.539 . S
C877 C873 1.408 . S
C877 C876 1.404 . S
C877 H889 0.930 . S
C878 C874 1.524 . S
C878 H890 0.956 . S
C878 H891 0.961 . S
C878 H892 0.961 . S
C879 C876 1.539 . S
C879 H893 0.958 . S
C879 H894 0.961 . S
C879 H895 0.960 . S
H880 C864 0.931 . S
H881 C869 0.929 . S
H882 C870 0.960 . S
H883 C870 0.962 . S
H884 C870 0.960 . S
H885 C871 0.961 . S
H886 C871 0.961 . S
H887 C871 0.961 . S
H888 C872 0.931 . S
H889 C877 0.930 . S
H890 C878 0.956 . S
H891 C878 0.961 . S
H892 C878 0.961 . S
H893 C879 0.958 . S
H894 C879 0.961 . S
H895 C879 0.960 . S
C896 C897 1.391 . S
C896 C898 1.394 . S
C896 H912 0.931 . S
C897 C896 1.391 . S
C897 C901 1.376 . S
C898 C896 1.394 . S
C898 C899 1.369 . S
C898 C902 1.531 . S
C899 C898 1.369 . S
C899 C900 1.410 . S
C899 C907 1.503 . S
C900 C899 1.410 . S
C900 C901 1.392 . S
C900 C903 1.511 . S
C901 C897 1.376 . S
C901 C900 1.392 . S
C901 H913 0.929 . S
C902 C898 1.531 . S
C902 H914 0.960 . S
C902 H915 0.962 . S
C902 H916 0.960 . S
C903 C900 1.511 . S
C903 H917 0.961 . S
C903 H918 0.961 . S
C903 H919 0.961 . S
C904 C905 1.370 . S
C904 C906 1.363 . S
C904 H920 0.931 . S
C905 C904 1.370 . S
C905 C909 1.408 . S
C906 C904 1.363 . S
C906 C907 1.370 . S
C906 C910 1.524 . S
C907 C899 1.503 . S
C907 C906 1.370 . S
C907 C908 1.403 . S
C908 C907 1.403 . S
C908 C909 1.404 . S
C908 C911 1.539 . S
C909 C905 1.408 . S
C909 C908 1.404 . S
C909 H921 0.930 . S
C910 C906 1.524 . S
C910 H922 0.956 . S
C910 H923 0.961 . S
C910 H924 0.961 . S
C911 C908 1.539 . S
C911 H925 0.958 . S
C911 H926 0.961 . S
C911 H927 0.960 . S
H912 C896 0.931 . S
H913 C901 0.929 . S
H914 C902 0.960 . S
H915 C902 0.962 . S
H916 C902 0.960 . S
H917 C903 0.961 . S
H918 C903 0.961 . S
H919 C903 0.961 . S
H920 C904 0.931 . S
H921 C909 0.930 . S
H922 C910 0.956 . S
H923 C910 0.961 . S
H924 C910 0.961 . S
H925 C911 0.958 . S
H926 C911 0.961 . S
H927 C911 0.960 . S
C928 C929 1.391 . S
C928 C930 1.394 . S
C928 H944 0.931 . S
C929 C928 1.391 . S
C929 C933 1.376 . S
C930 C928 1.394 . S
C930 C931 1.369 . S
C930 C934 1.531 . S
C931 C930 1.369 . S
C931 C932 1.410 . S
C931 C939 1.503 . S
C932 C931 1.410 . S
C932 C933 1.392 . S
C932 C935 1.511 . S
C933 C929 1.376 . S
C933 C932 1.392 . S
C933 H945 0.929 . S
C934 C930 1.531 . S
C934 H946 0.960 . S
C934 H947 0.962 . S
C934 H948 0.960 . S
C935 C932 1.511 . S
C935 H949 0.961 . S
C935 H950 0.961 . S
C935 H951 0.961 . S
C936 C937 1.370 . S
C936 C938 1.363 . S
C936 H952 0.931 . S
C937 C936 1.370 . S
C937 C941 1.408 . S
C938 C936 1.363 . S
C938 C939 1.370 . S
C938 C942 1.524 . S
C939 C931 1.503 . S
C939 C938 1.370 . S
C939 C940 1.403 . S
C940 C939 1.403 . S
C940 C941 1.404 . S
C940 C943 1.539 . S
C941 C937 1.408 . S
C941 C940 1.404 . S
C941 H953 0.930 . S
C942 C938 1.524 . S
C942 H954 0.956 . S
C942 H955 0.961 . S
C942 H956 0.961 . S
C943 C940 1.539 . S
C943 H957 0.958 . S
C943 H958 0.961 . S
C943 H959 0.960 . S
H944 C928 0.931 . S
H945 C933 0.929 . S
H946 C934 0.960 . S
H947 C934 0.962 . S
H948 C934 0.960 . S
H949 C935 0.961 . S
H950 C935 0.961 . S
H951 C935 0.961 . S
H952 C936 0.931 . S
H953 C941 0.930 . S
H954 C942 0.956 . S
H955 C942 0.961 . S
H956 C942 0.961 . S
H957 C943 0.958 . S
H958 C943 0.961 . S
H959 C943 0.960 . S
C960 C961 1.391 . S
C960 C962 1.394 . S
C960 H976 0.931 . S
C961 C960 1.391 . S
C961 C965 1.376 . S
C962 C960 1.394 . S
C962 C963 1.369 . S
C962 C966 1.531 . S
C963 C962 1.369 . S
C963 C964 1.410 . S
C963 C971 1.503 1_655 S
C964 C963 1.410 . S
C964 C965 1.392 . S
C964 C967 1.511 . S
C965 C961 1.376 . S
C965 C964 1.392 . S
C965 H977 0.929 . S
C966 C962 1.531 . S
C966 H978 0.960 1_655 S
C966 H979 0.962 . S
C966 H980 0.960 . S
C967 C964 1.511 . S
C967 H981 0.961 . S
C967 H982 0.961 1_655 S
C967 H983 0.961 . S
C968 C969 1.370 . S
C968 C970 1.363 . S
C968 H984 0.931 . S
C969 C968 1.370 . S
C969 C973 1.408 . S
C970 C968 1.363 . S
C970 C971 1.370 . S
C970 C974 1.524 . S
C971 C963 1.503 1_455 S
C971 C970 1.370 . S
C971 C972 1.403 . S
C972 C971 1.403 . S
C972 C973 1.404 . S
C972 C975 1.539 . S
C973 C969 1.408 . S
C973 C972 1.404 . S
C973 H985 0.930 . S
C974 C970 1.524 . S
C974 H986 0.983 . S
C974 H987 0.961 1_455 S
C974 H988 0.961 . S
C975 C972 1.539 . S
C975 H989 0.958 . S
C975 H990 0.961 . S
C975 H991 0.969 . S
H976 C960 0.931 . S
H977 C965 0.929 . S
H978 C966 0.960 1_455 S
H979 C966 0.962 . S
H980 C966 0.960 . S
H981 C967 0.961 . S
H982 C967 0.961 1_455 S
H983 C967 0.961 . S
H984 C968 0.931 . S
H985 C973 0.930 . S
H986 C974 0.983 . S
H987 C974 0.961 1_655 S
H988 C974 0.961 . S
H989 C975 0.958 . S
H990 C975 0.961 . S
H991 C975 0.969 . S
C992 C993 1.391 . S
C992 C994 1.394 . S
C992 H1008 0.931 . S
C993 C992 1.391 . S
C993 C997 1.376 . S
C994 C992 1.394 . S
C994 C995 1.369 . S
C994 C998 1.531 . S
C995 C994 1.369 . S
C995 C996 1.410 . S
C995 C1003 1.503 1_545 S
C996 C995 1.410 . S
C996 C997 1.392 . S
C996 C999 1.511 . S
C997 C993 1.376 . S
C997 C996 1.392 . S
C997 H1009 0.929 . S
C998 C994 1.531 . S
C998 H1010 0.960 1_545 S
C998 H1011 0.962 . S
C998 H1012 0.960 . S
C999 C996 1.511 . S
C999 H1013 0.961 . S
C999 H1014 0.961 1_545 S
C999 H1015 0.961 . S
C1000 C1001 1.370 . S
C1000 C1002 1.363 . S
C1000 H1016 0.931 . S
C1001 C1000 1.370 . S
C1001 C1005 1.408 . S
C1002 C1000 1.363 . S
C1002 C1003 1.370 . S
C1002 C1006 1.524 . S
C1003 C995 1.503 1_565 S
C1003 C1002 1.370 . S
C1003 C1004 1.403 . S
C1004 C1003 1.403 . S
C1004 C1005 1.404 . S
C1004 C1007 1.539 . S
C1005 C1001 1.408 . S
C1005 C1004 1.404 . S
C1005 H1017 0.930 . S
C1006 C1002 1.524 . S
C1006 H1018 0.983 . S
C1006 H1019 0.961 1_565 S
C1006 H1020 0.961 . S
C1007 C1004 1.539 . S
C1007 H1021 0.958 . S
C1007 H1022 0.961 . S
C1007 H1023 0.969 . S
H1008 C992 0.931 . S
H1009 C997 0.929 . S
H1010 C998 0.960 1_565 S
H1011 C998 0.962 . S
H1012 C998 0.960 . S
H1013 C999 0.961 . S
H1014 C999 0.961 1_565 S
H1015 C999 0.961 . S
H1016 C1000 0.931 . S
H1017 C1005 0.930 . S
H1018 C1006 0.983 . S
H1019 C1006 0.961 1_545 S
H1020 C1006 0.961 . S
H1021 C1007 0.958 . S
H1022 C1007 0.961 . S
H1023 C1007 0.969 . S
C1024 C1025 1.391 . S
C1024 C1026 1.394 . S
C1024 H1040 0.931 . S
C1025 C1024 1.391 . S
C1025 C1029 1.376 . S
C1026 C1024 1.394 . S
C1026 C1027 1.369 . S
C1026 C1030 1.531 . S
C1027 C1026 1.369 . S
C1027 C1028 1.410 . S
C1027 C1035 1.503 1_455 S
C1028 C1027 1.410 . S
C1028 C1029 1.392 . S
C1028 C1031 1.511 . S
C1029 C1025 1.376 . S
C1029 C1028 1.392 . S
C1029 H1041 0.929 . S
C1030 C1026 1.531 . S
C1030 H1042 0.960 1_455 S
C1030 H1043 0.962 . S
C1030 H1044 0.960 . S
C1031 C1028 1.511 . S
C1031 H1045 0.961 . S
C1031 H1046 0.961 1_455 S
C1031 H1047 0.961 . S
C1032 C1033 1.370 . S
C1032 C1034 1.363 . S
C1032 H1048 0.931 . S
C1033 C1032 1.370 . S
C1033 C1037 1.408 . S
C1034 C1032 1.363 . S
C1034 C1035 1.370 . S
C1034 C1038 1.524 . S
C1035 C1027 1.503 1_655 S
C1035 C1034 1.370 . S
C1035 C1036 1.403 . S
C1036 C1035 1.403 . S
C1036 C1037 1.404 . S
C1036 C1039 1.539 . S
C1037 C1033 1.408 . S
C1037 C1036 1.404 . S
C1037 H1049 0.930 . S
C1038 C1034 1.524 . S
C1038 H1050 0.983 . S
C1038 H1051 0.961 1_655 S
C1038 H1052 0.961 . S
C1039 C1036 1.539 . S
C1039 H1053 0.958 . S
C1039 H1054 0.961 . S
C1039 H1055 0.969 . S
H1040 C1024 0.931 . S
H1041 C1029 0.929 . S
H1042 C1030 0.960 1_655 S
H1043 C1030 0.962 . S
H1044 C1030 0.960 . S
H1045 C1031 0.961 . S
H1046 C1031 0.961 1_655 S
H1047 C1031 0.961 . S
H1048 C1032 0.931 . S
H1049 C1037 0.930 . S
H1050 C1038 0.983 . S
H1051 C1038 0.961 1_455 S
H1052 C1038 0.961 . S
H1053 C1039 0.958 . S
H1054 C1039 0.961 . S
H1055 C1039 0.969 . S
C1056 C1057 1.391 . S
C1056 C1058 1.394 . S
C1056 H1072 0.931 . S
C1057 C1056 1.391 . S
C1057 C1061 1.376 . S
C1058 C1056 1.394 . S
C1058 C1059 1.369 . S
C1058 C1062 1.531 . S
C1059 C1058 1.369 . S
C1059 C1060 1.410 . S
C1059 C1067 1.503 1_565 S
C1060 C1059 1.410 . S
C1060 C1061 1.392 . S
C1060 C1063 1.511 . S
C1061 C1057 1.376 . S
C1061 C1060 1.392 . S
C1061 H1073 0.929 . S
C1062 C1058 1.531 . S
C1062 H1074 0.960 1_565 S
C1062 H1075 0.962 . S
C1062 H1076 0.960 . S
C1063 C1060 1.511 . S
C1063 H1077 0.961 . S
C1063 H1078 0.961 1_565 S
C1063 H1079 0.961 . S
C1064 C1065 1.370 . S
C1064 C1066 1.363 . S
C1064 H1080 0.931 . S
C1065 C1064 1.370 . S
C1065 C1069 1.408 . S
C1066 C1064 1.363 . S
C1066 C1067 1.370 . S
C1066 C1070 1.524 . S
C1067 C1059 1.503 1_545 S
C1067 C1066 1.370 . S
C1067 C1068 1.403 . S
C1068 C1067 1.403 . S
C1068 C1069 1.404 . S
C1068 C1071 1.539 . S
C1069 C1065 1.408 . S
C1069 C1068 1.404 . S
C1069 H1081 0.930 . S
C1070 C1066 1.524 . S
C1070 H1082 0.983 . S
C1070 H1083 0.961 1_545 S
C1070 H1084 0.961 . S
C1071 C1068 1.539 . S
C1071 H1085 0.958 . S
C1071 H1086 0.961 . S
C1071 H1087 0.969 . S
H1072 C1056 0.931 . S
H1073 C1061 0.929 . S
H1074 C1062 0.960 1_545 S
H1075 C1062 0.962 . S
H1076 C1062 0.960 . S
H1077 C1063 0.961 . S
H1078 C1063 0.961 1_545 S
H1079 C1063 0.961 . S
H1080 C1064 0.931 . S
H1081 C1069 0.930 . S
H1082 C1070 0.983 . S
H1083 C1070 0.961 1_565 S
H1084 C1070 0.961 . S
H1085 C1071 0.958 . S
H1086 C1071 0.961 . S
H1087 C1071 0.969 . S
C1088 C1089 1.391 . S
C1088 C1090 1.394 . S
C1088 H1104 0.931 . S
C1089 C1088 1.391 . S
C1089 C1093 1.376 . S
C1090 C1088 1.394 . S
C1090 C1091 1.369 . S
C1090 C1094 1.531 . S
C1091 C1090 1.369 . S
C1091 C1092 1.410 . S
C1091 C1099 1.503 1_455 S
C1092 C1091 1.410 . S
C1092 C1093 1.392 . S
C1092 C1095 1.511 . S
C1093 C1089 1.376 . S
C1093 C1092 1.392 . S
C1093 H1105 0.929 . S
C1094 C1090 1.531 . S
C1094 H1106 0.960 1_455 S
C1094 H1107 0.962 . S
C1094 H1108 0.960 . S
C1095 C1092 1.511 . S
C1095 H1109 0.961 . S
C1095 H1110 0.961 1_455 S
C1095 H1111 0.961 . S
C1096 C1097 1.370 . S
C1096 C1098 1.363 . S
C1096 H1112 0.931 . S
C1097 C1096 1.370 . S
C1097 C1101 1.408 . S
C1098 C1096 1.363 . S
C1098 C1099 1.370 . S
C1098 C1102 1.524 . S
C1099 C1091 1.503 1_655 S
C1099 C1098 1.370 . S
C1099 C1100 1.403 . S
C1100 C1099 1.403 . S
C1100 C1101 1.404 . S
C1100 C1103 1.539 . S
C1101 C1097 1.408 . S
C1101 C1100 1.404 . S
C1101 H1113 0.930 . S
C1102 C1098 1.524 . S
C1102 H1114 0.983 . S
C1102 H1115 0.961 1_655 S
C1102 H1116 0.961 . S
C1103 C1100 1.539 . S
C1103 H1117 0.958 . S
C1103 H1118 0.961 . S
C1103 H1119 0.969 . S
H1104 C1088 0.931 . S
H1105 C1093 0.929 . S
H1106 C1094 0.960 1_655 S
H1107 C1094 0.962 . S
H1108 C1094 0.960 . S
H1109 C1095 0.961 . S
H1110 C1095 0.961 1_655 S
H1111 C1095 0.961 . S
H1112 C1096 0.931 . S
H1113 C1101 0.930 . S
H1114 C1102 0.983 . S
H1115 C1102 0.961 1_455 S
H1116 C1102 0.961 . S
H1117 C1103 0.958 . S
H1118 C1103 0.961 . S
H1119 C1103 0.969 . S
C1120 C1121 1.391 . S
C1120 C1122 1.394 . S
C1120 H1136 0.931 . S
C1121 C1120 1.391 . S
C1121 C1125 1.376 . S
C1122 C1120 1.394 . S
C1122 C1123 1.369 . S
C1122 C1126 1.531 . S
C1123 C1122 1.369 . S
C1123 C1124 1.410 . S
C1123 C1131 1.503 1_565 S
C1124 C1123 1.410 . S
C1124 C1125 1.392 . S
C1124 C1127 1.511 . S
C1125 C1121 1.376 . S
C1125 C1124 1.392 . S
C1125 H1137 0.929 . S
C1126 C1122 1.531 . S
C1126 H1138 0.960 1_565 S
C1126 H1139 0.962 . S
C1126 H1140 0.960 . S
C1127 C1124 1.511 . S
C1127 H1141 0.961 . S
C1127 H1142 0.961 1_565 S
C1127 H1143 0.961 . S
C1128 C1129 1.370 . S
C1128 C1130 1.363 . S
C1128 H1144 0.931 . S
C1129 C1128 1.370 . S
C1129 C1133 1.408 . S
C1130 C1128 1.363 . S
C1130 C1131 1.370 . S
C1130 C1134 1.524 . S
C1131 C1123 1.503 1_545 S
C1131 C1130 1.370 . S
C1131 C1132 1.403 . S
C1132 C1131 1.403 . S
C1132 C1133 1.404 . S
C1132 C1135 1.539 . S
C1133 C1129 1.408 . S
C1133 C1132 1.404 . S
C1133 H1145 0.930 . S
C1134 C1130 1.524 . S
C1134 H1146 0.983 . S
C1134 H1147 0.961 1_545 S
C1134 H1148 0.961 . S
C1135 C1132 1.539 . S
C1135 H1149 0.958 . S
C1135 H1150 0.961 . S
C1135 H1151 0.969 . S
H1136 C1120 0.931 . S
H1137 C1125 0.929 . S
H1138 C1126 0.960 1_545 S
H1139 C1126 0.962 . S
H1140 C1126 0.960 . S
H1141 C1127 0.961 . S
H1142 C1127 0.961 1_545 S
H1143 C1127 0.961 . S
H1144 C1128 0.931 . S
H1145 C1133 0.930 . S
H1146 C1134 0.983 . S
H1147 C1134 0.961 1_565 S
H1148 C1134 0.961 . S
H1149 C1135 0.958 . S
H1150 C1135 0.961 . S
H1151 C1135 0.969 . S
C1152 C1153 1.391 . S
C1152 C1154 1.394 . S
C1152 H1168 0.931 . S
C1153 C1152 1.391 . S
C1153 C1157 1.376 . S
C1154 C1152 1.394 . S
C1154 C1155 1.369 . S
C1154 C1158 1.531 . S
C1155 C1154 1.369 . S
C1155 C1156 1.410 . S
C1155 C1163 1.503 1_455 S
C1156 C1155 1.410 . S
C1156 C1157 1.392 . S
C1156 C1159 1.511 . S
C1157 C1153 1.376 . S
C1157 C1156 1.392 . S
C1157 H1169 0.929 . S
C1158 C1154 1.531 . S
C1158 H1170 0.960 1_455 S
C1158 H1171 0.962 . S
C1158 H1172 0.960 . S
C1159 C1156 1.511 . S
C1159 H1173 0.961 . S
C1159 H1174 0.961 1_455 S
C1159 H1175 0.961 . S
C1160 C1161 1.370 . S
C1160 C1162 1.363 . S
C1160 H1176 0.931 . S
C1161 C1160 1.370 . S
C1161 C1165 1.408 . S
C1162 C1160 1.363 . S
C1162 C1163 1.370 . S
C1162 C1166 1.524 . S
C1163 C1155 1.503 1_655 S
C1163 C1162 1.370 . S
C1163 C1164 1.403 . S
C1164 C1163 1.403 . S
C1164 C1165 1.404 . S
C1164 C1167 1.539 . S
C1165 C1161 1.408 . S
C1165 C1164 1.404 . S
C1165 H1177 0.930 . S
C1166 C1162 1.524 . S
C1166 H1178 0.983 . S
C1166 H1179 0.961 1_655 S
C1166 H1180 0.961 . S
C1167 C1164 1.539 . S
C1167 H1181 0.958 . S
C1167 H1182 0.961 . S
C1167 H1183 0.969 . S
H1168 C1152 0.931 . S
H1169 C1157 0.929 . S
H1170 C1158 0.960 1_655 S
H1171 C1158 0.962 . S
H1172 C1158 0.960 . S
H1173 C1159 0.961 . S
H1174 C1159 0.961 1_655 S
H1175 C1159 0.961 . S
H1176 C1160 0.931 . S
H1177 C1165 0.930 . S
H1178 C1166 0.983 . S
H1179 C1166 0.961 1_455 S
H1180 C1166 0.961 . S
H1181 C1167 0.958 . S
H1182 C1167 0.961 . S
H1183 C1167 0.969 . S
C1184 C1185 1.391 . S
C1184 C1186 1.394 . S
C1184 H1200 0.931 . S
C1185 C1184 1.391 . S
C1185 C1189 1.376 . S
C1186 C1184 1.394 . S
C1186 C1187 1.369 . S
C1186 C1190 1.531 . S
C1187 C1186 1.369 . S
C1187 C1188 1.410 . S
C1187 C1195 1.503 1_545 S
C1188 C1187 1.410 . S
C1188 C1189 1.392 . S
C1188 C1191 1.511 . S
C1189 C1185 1.376 . S
C1189 C1188 1.392 . S
C1189 H1201 0.929 . S
C1190 C1186 1.531 . S
C1190 H1202 0.960 1_545 S
C1190 H1203 0.962 . S
C1190 H1204 0.960 . S
C1191 C1188 1.511 . S
C1191 H1205 0.961 . S
C1191 H1206 0.961 1_545 S
C1191 H1207 0.961 . S
C1192 C1193 1.370 . S
C1192 C1194 1.363 . S
C1192 H1208 0.931 . S
C1193 C1192 1.370 . S
C1193 C1197 1.408 . S
C1194 C1192 1.363 . S
C1194 C1195 1.370 . S
C1194 C1198 1.524 . S
C1195 C1187 1.503 1_565 S
C1195 C1194 1.370 . S
C1195 C1196 1.403 . S
C1196 C1195 1.403 . S
C1196 C1197 1.404 . S
C1196 C1199 1.539 . S
C1197 C1193 1.408 . S
C1197 C1196 1.404 . S
C1197 H1209 0.930 . S
C1198 C1194 1.524 . S
C1198 H1210 0.983 . S
C1198 H1211 0.961 1_565 S
C1198 H1212 0.961 . S
C1199 C1196 1.539 . S
C1199 H1213 0.958 . S
C1199 H1214 0.961 . S
C1199 H1215 0.969 . S
H1200 C1184 0.931 . S
H1201 C1189 0.929 . S
H1202 C1190 0.960 1_565 S
H1203 C1190 0.962 . S
H1204 C1190 0.960 . S
H1205 C1191 0.961 . S
H1206 C1191 0.961 1_565 S
H1207 C1191 0.961 . S
H1208 C1192 0.931 . S
H1209 C1197 0.930 . S
H1210 C1198 0.983 . S
H1211 C1198 0.961 1_545 S
H1212 C1198 0.961 . S
H1213 C1199 0.958 . S
H1214 C1199 0.961 . S
H1215 C1199 0.969 . S
C1216 C1217 1.391 . S
C1216 C1218 1.394 . S
C1216 H1232 0.931 . S
C1217 C1216 1.391 . S
C1217 C1221 1.376 . S
C1218 C1216 1.394 . S
C1218 C1219 1.369 . S
C1218 C1222 1.531 . S
C1219 C1218 1.369 . S
C1219 C1220 1.410 . S
C1219 C1227 1.503 . S
C1220 C1219 1.410 . S
C1220 C1221 1.392 . S
C1220 C1223 1.511 . S
C1221 C1217 1.376 . S
C1221 C1220 1.392 . S
C1221 H1233 0.929 . S
C1222 C1218 1.531 . S
C1222 H1234 0.960 . S
C1222 H1235 0.962 . S
C1222 H1236 0.960 . S
C1223 C1220 1.511 . S
C1223 H1237 0.961 . S
C1223 H1238 0.961 . S
C1223 H1239 0.961 . S
C1224 C1225 1.370 . S
C1224 C1226 1.363 . S
C1224 H1240 0.931 . S
C1225 C1224 1.370 . S
C1225 C1229 1.408 . S
C1226 C1224 1.363 . S
C1226 C1227 1.370 . S
C1226 C1230 1.524 . S
C1227 C1219 1.503 . S
C1227 C1226 1.370 . S
C1227 C1228 1.403 . S
C1228 C1227 1.403 . S
C1228 C1229 1.404 . S
C1228 C1231 1.539 . S
C1229 C1225 1.408 . S
C1229 C1228 1.404 . S
C1229 H1241 0.930 . S
C1230 C1226 1.524 . S
C1230 H1242 0.956 . S
C1230 H1243 0.961 . S
C1230 H1244 0.961 . S
C1231 C1228 1.539 . S
C1231 H1245 0.958 . S
C1231 H1246 0.961 . S
C1231 H1247 0.960 . S
H1232 C1216 0.931 . S
H1233 C1221 0.929 . S
H1234 C1222 0.960 . S
H1235 C1222 0.962 . S
H1236 C1222 0.960 . S
H1237 C1223 0.961 . S
H1238 C1223 0.961 . S
H1239 C1223 0.961 . S
H1240 C1224 0.931 . S
H1241 C1229 0.930 . S
H1242 C1230 0.956 . S
H1243 C1230 0.961 . S
H1244 C1230 0.961 . S
H1245 C1231 0.958 . S
H1246 C1231 0.961 . S
H1247 C1231 0.960 . S
C1248 C1249 1.391 . S
C1248 C1250 1.394 . S
C1248 H1264 0.931 . S
C1249 C1248 1.391 . S
C1249 C1253 1.376 . S
C1250 C1248 1.394 . S
C1250 C1251 1.369 . S
C1250 C1254 1.531 . S
C1251 C1250 1.369 . S
C1251 C1252 1.410 . S
C1251 C1259 1.503 . S
C1252 C1251 1.410 . S
C1252 C1253 1.392 . S
C1252 C1255 1.511 . S
C1253 C1249 1.376 . S
C1253 C1252 1.392 . S
C1253 H1265 0.929 . S
C1254 C1250 1.531 . S
C1254 H1266 0.960 . S
C1254 H1267 0.962 . S
C1254 H1268 0.960 . S
C1255 C1252 1.511 . S
C1255 H1269 0.961 . S
C1255 H1270 0.961 . S
C1255 H1271 0.961 . S
C1256 C1257 1.370 . S
C1256 C1258 1.363 . S
C1256 H1272 0.931 . S
C1257 C1256 1.370 . S
C1257 C1261 1.408 . S
C1258 C1256 1.363 . S
C1258 C1259 1.370 . S
C1258 C1262 1.524 . S
C1259 C1251 1.503 . S
C1259 C1258 1.370 . S
C1259 C1260 1.403 . S
C1260 C1259 1.403 . S
C1260 C1261 1.404 . S
C1260 C1263 1.539 . S
C1261 C1257 1.408 . S
C1261 C1260 1.404 . S
C1261 H1273 0.930 . S
C1262 C1258 1.524 . S
C1262 H1274 0.956 . S
C1262 H1275 0.961 . S
C1262 H1276 0.961 . S
C1263 C1260 1.539 . S
C1263 H1277 0.958 . S
C1263 H1278 0.961 . S
C1263 H1279 0.960 . S
H1264 C1248 0.931 . S
H1265 C1253 0.929 . S
H1266 C1254 0.960 . S
H1267 C1254 0.962 . S
H1268 C1254 0.960 . S
H1269 C1255 0.961 . S
H1270 C1255 0.961 . S
H1271 C1255 0.961 . S
H1272 C1256 0.931 . S
H1273 C1261 0.930 . S
H1274 C1262 0.956 . S
H1275 C1262 0.961 . S
H1276 C1262 0.961 . S
H1277 C1263 0.958 . S
H1278 C1263 0.961 . S
H1279 C1263 0.960 . S
C1280 C1281 1.391 . S
C1280 C1282 1.394 . S
C1280 H1296 0.931 . S
C1281 C1280 1.391 . S
C1281 C1285 1.376 . S
C1282 C1280 1.394 . S
C1282 C1283 1.369 . S
C1282 C1286 1.531 . S
C1283 C1282 1.369 . S
C1283 C1284 1.410 . S
C1283 C1291 1.503 . S
C1284 C1283 1.410 . S
C1284 C1285 1.392 . S
C1284 C1287 1.511 . S
C1285 C1281 1.376 . S
C1285 C1284 1.392 . S
C1285 H1297 0.929 . S
C1286 C1282 1.531 . S
C1286 H1298 0.960 . S
C1286 H1299 0.962 . S
C1286 H1300 0.960 . S
C1287 C1284 1.511 . S
C1287 H1301 0.961 . S
C1287 H1302 0.961 . S
C1287 H1303 0.961 . S
C1288 C1289 1.370 . S
C1288 C1290 1.363 . S
C1288 H1304 0.931 . S
C1289 C1288 1.370 . S
C1289 C1293 1.408 . S
C1290 C1288 1.363 . S
C1290 C1291 1.370 . S
C1290 C1294 1.524 . S
C1291 C1283 1.503 . S
C1291 C1290 1.370 . S
C1291 C1292 1.403 . S
C1292 C1291 1.403 . S
C1292 C1293 1.404 . S
C1292 C1295 1.539 . S
C1293 C1289 1.408 . S
C1293 C1292 1.404 . S
C1293 H1305 0.930 . S
C1294 C1290 1.524 . S
C1294 H1306 0.956 . S
C1294 H1307 0.961 . S
C1294 H1308 0.961 . S
C1295 C1292 1.539 . S
C1295 H1309 0.958 . S
C1295 H1310 0.961 . S
C1295 H1311 0.960 . S
H1296 C1280 0.931 . S
H1297 C1285 0.929 . S
H1298 C1286 0.960 . S
H1299 C1286 0.962 . S
H1300 C1286 0.960 . S
H1301 C1287 0.961 . S
H1302 C1287 0.961 . S
H1303 C1287 0.961 . S
H1304 C1288 0.931 . S
H1305 C1293 0.930 . S
H1306 C1294 0.956 . S
H1307 C1294 0.961 . S
H1308 C1294 0.961 . S
H1309 C1295 0.958 . S
H1310 C1295 0.961 . S
H1311 C1295 0.960 . S
C1312 C1313 1.391 . S
C1312 C1314 1.394 . S
C1312 H1328 0.931 . S
C1313 C1312 1.391 . S
C1313 C1317 1.376 . S
C1314 C1312 1.394 . S
C1314 C1315 1.369 . S
C1314 C1318 1.531 . S
C1315 C1314 1.369 . S
C1315 C1316 1.410 . S
C1315 C1323 1.503 . S
C1316 C1315 1.410 . S
C1316 C1317 1.392 . S
C1316 C1319 1.511 . S
C1317 C1313 1.376 . S
C1317 C1316 1.392 . S
C1317 H1329 0.929 . S
C1318 C1314 1.531 . S
C1318 H1330 0.960 . S
C1318 H1331 0.962 . S
C1318 H1332 0.960 . S
C1319 C1316 1.511 . S
C1319 H1333 0.961 . S
C1319 H1334 0.961 . S
C1319 H1335 0.961 . S
C1320 C1321 1.370 . S
C1320 C1322 1.363 . S
C1320 H1336 0.931 . S
C1321 C1320 1.370 . S
C1321 C1325 1.408 . S
C1322 C1320 1.363 . S
C1322 C1323 1.370 . S
C1322 C1326 1.524 . S
C1323 C1315 1.503 . S
C1323 C1322 1.370 . S
C1323 C1324 1.403 . S
C1324 C1323 1.403 . S
C1324 C1325 1.404 . S
C1324 C1327 1.539 . S
C1325 C1321 1.408 . S
C1325 C1324 1.404 . S
C1325 H1337 0.930 . S
C1326 C1322 1.524 . S
C1326 H1338 0.956 . S
C1326 H1339 0.961 . S
C1326 H1340 0.961 . S
C1327 C1324 1.539 . S
C1327 H1341 0.958 . S
C1327 H1342 0.961 . S
C1327 H1343 0.960 . S
H1328 C1312 0.931 . S
H1329 C1317 0.929 . S
H1330 C1318 0.960 . S
H1331 C1318 0.962 . S
H1332 C1318 0.960 . S
H1333 C1319 0.961 . S
H1334 C1319 0.961 . S
H1335 C1319 0.961 . S
H1336 C1320 0.931 . S
H1337 C1325 0.930 . S
H1338 C1326 0.956 . S
H1339 C1326 0.961 . S
H1340 C1326 0.961 . S
H1341 C1327 0.958 . S
H1342 C1327 0.961 . S
H1343 C1327 0.960 . S
C1344 C1345 1.391 . S
C1344 C1346 1.394 . S
C1344 H1360 0.931 . S
C1345 C1344 1.391 . S
C1345 C1349 1.376 . S
C1346 C1344 1.394 . S
C1346 C1347 1.369 . S
C1346 C1350 1.531 . S
C1347 C1346 1.369 . S
C1347 C1348 1.410 . S
C1347 C1355 1.503 . S
C1348 C1347 1.410 . S
C1348 C1349 1.392 . S
C1348 C1351 1.511 . S
C1349 C1345 1.376 . S
C1349 C1348 1.392 . S
C1349 H1361 0.929 . S
C1350 C1346 1.531 . S
C1350 H1362 0.960 . S
C1350 H1363 0.962 . S
C1350 H1364 0.960 . S
C1351 C1348 1.511 . S
C1351 H1365 0.961 . S
C1351 H1366 0.961 . S
C1351 H1367 0.961 . S
C1352 C1353 1.370 . S
C1352 C1354 1.363 . S
C1352 H1368 0.931 . S
C1353 C1352 1.370 . S
C1353 C1357 1.408 . S
C1354 C1352 1.363 . S
C1354 C1355 1.370 . S
C1354 C1358 1.524 . S
C1355 C1347 1.503 . S
C1355 C1354 1.370 . S
C1355 C1356 1.403 . S
C1356 C1355 1.403 . S
C1356 C1357 1.404 . S
C1356 C1359 1.539 . S
C1357 C1353 1.408 . S
C1357 C1356 1.404 . S
C1357 H1369 0.930 . S
C1358 C1354 1.524 . S
C1358 H1370 0.956 . S
C1358 H1371 0.961 . S
C1358 H1372 0.961 . S
C1359 C1356 1.539 . S
C1359 H1373 0.958 . S
C1359 H1374 0.961 . S
C1359 H1375 0.960 . S
H1360 C1344 0.931 . S
H1361 C1349 0.929 . S
H1362 C1350 0.960 . S
H1363 C1350 0.962 . S
H1364 C1350 0.960 . S
H1365 C1351 0.961 . S
H1366 C1351 0.961 . S
H1367 C1351 0.961 . S
H1368 C1352 0.931 . S
H1369 C1357 0.930 . S
H1370 C1358 0.956 . S
H1371 C1358 0.961 . S
H1372 C1358 0.961 . S
H1373 C1359 0.958 . S
H1374 C1359 0.961 . S
H1375 C1359 0.960 . S
C1376 C1377 1.391 . S
C1376 C1378 1.394 . S
C1376 H1392 0.931 . S
C1377 C1376 1.391 . S
C1377 C1381 1.376 . S
C1378 C1376 1.394 . S
C1378 C1379 1.369 . S
C1378 C1382 1.531 . S
C1379 C1378 1.369 . S
C1379 C1380 1.410 . S
C1379 C1387 1.503 . S
C1380 C1379 1.410 . S
C1380 C1381 1.392 . S
C1380 C1383 1.511 . S
C1381 C1377 1.376 . S
C1381 C1380 1.392 . S
C1381 H1393 0.929 . S
C1382 C1378 1.531 . S
C1382 H1394 0.960 . S
C1382 H1395 0.962 . S
C1382 H1396 0.960 . S
C1383 C1380 1.511 . S
C1383 H1397 0.961 . S
C1383 H1398 0.961 . S
C1383 H1399 0.961 . S
C1384 C1385 1.370 . S
C1384 C1386 1.363 . S
C1384 H1400 0.931 . S
C1385 C1384 1.370 . S
C1385 C1389 1.408 . S
C1386 C1384 1.363 . S
C1386 C1387 1.370 . S
C1386 C1390 1.524 . S
C1387 C1379 1.503 . S
C1387 C1386 1.370 . S
C1387 C1388 1.403 . S
C1388 C1387 1.403 . S
C1388 C1389 1.404 . S
C1388 C1391 1.539 . S
C1389 C1385 1.408 . S
C1389 C1388 1.404 . S
C1389 H1401 0.930 . S
C1390 C1386 1.524 . S
C1390 H1402 0.956 . S
C1390 H1403 0.961 . S
C1390 H1404 0.961 . S
C1391 C1388 1.539 . S
C1391 H1405 0.958 . S
C1391 H1406 0.961 . S
C1391 H1407 0.960 . S
H1392 C1376 0.931 . S
H1393 C1381 0.929 . S
H1394 C1382 0.960 . S
H1395 C1382 0.962 . S
H1396 C1382 0.960 . S
H1397 C1383 0.961 . S
H1398 C1383 0.961 . S
H1399 C1383 0.961 . S
H1400 C1384 0.931 . S
H1401 C1389 0.930 . S
H1402 C1390 0.956 . S
H1403 C1390 0.961 . S
H1404 C1390 0.961 . S
H1405 C1391 0.958 . S
H1406 C1391 0.961 . S
H1407 C1391 0.960 . S
C1408 C1409 1.391 . S
C1408 C1410 1.394 . S
C1408 H1424 0.931 . S
C1409 C1408 1.391 . S
C1409 C1413 1.376 . S
C1410 C1408 1.394 . S
C1410 C1411 1.369 . S
C1410 C1414 1.531 . S
C1411 C1410 1.369 . S
C1411 C1412 1.410 . S
C1411 C1419 1.503 . S
C1412 C1411 1.410 . S
C1412 C1413 1.392 . S
C1412 C1415 1.511 . S
C1413 C1409 1.376 . S
C1413 C1412 1.392 . S
C1413 H1425 0.929 . S
C1414 C1410 1.531 . S
C1414 H1426 0.960 . S
C1414 H1427 0.962 . S
C1414 H1428 0.960 . S
C1415 C1412 1.511 . S
C1415 H1429 0.961 . S
C1415 H1430 0.961 . S
C1415 H1431 0.961 . S
C1416 C1417 1.370 . S
C1416 C1418 1.363 . S
C1416 H1432 0.931 . S
C1417 C1416 1.370 . S
C1417 C1421 1.408 . S
C1418 C1416 1.363 . S
C1418 C1419 1.370 . S
C1418 C1422 1.524 . S
C1419 C1411 1.503 . S
C1419 C1418 1.370 . S
C1419 C1420 1.403 . S
C1420 C1419 1.403 . S
C1420 C1421 1.404 . S
C1420 C1423 1.539 . S
C1421 C1417 1.408 . S
C1421 C1420 1.404 . S
C1421 H1433 0.930 . S
C1422 C1418 1.524 . S
C1422 H1434 0.956 . S
C1422 H1435 0.961 . S
C1422 H1436 0.961 . S
C1423 C1420 1.539 . S
C1423 H1437 0.958 . S
C1423 H1438 0.961 . S
C1423 H1439 0.960 . S
H1424 C1408 0.931 . S
H1425 C1413 0.929 . S
H1426 C1414 0.960 . S
H1427 C1414 0.962 . S
H1428 C1414 0.960 . S
H1429 C1415 0.961 . S
H1430 C1415 0.961 . S
H1431 C1415 0.961 . S
H1432 C1416 0.931 . S
H1433 C1421 0.930 . S
H1434 C1422 0.956 . S
H1435 C1422 0.961 . S
H1436 C1422 0.961 . S
H1437 C1423 0.958 . S
H1438 C1423 0.961 . S
H1439 C1423 0.960 . S
C1440 C1441 1.391 . S
C1440 C1442 1.394 . S
C1440 H1456 0.931 . S
C1441 C1440 1.391 . S
C1441 C1445 1.376 . S
C1442 C1440 1.394 . S
C1442 C1443 1.369 . S
C1442 C1446 1.531 . S
C1443 C1442 1.369 . S
C1443 C1444 1.410 . S
C1443 C1451 1.503 . S
C1444 C1443 1.410 . S
C1444 C1445 1.392 . S
C1444 C1447 1.511 . S
C1445 C1441 1.376 . S
C1445 C1444 1.392 . S
C1445 H1457 0.929 . S
C1446 C1442 1.531 . S
C1446 H1458 0.960 . S
C1446 H1459 0.962 . S
C1446 H1460 0.960 . S
C1447 C1444 1.511 . S
C1447 H1461 0.961 . S
C1447 H1462 0.961 . S
C1447 H1463 0.961 . S
C1448 C1449 1.370 . S
C1448 C1450 1.363 . S
C1448 H1464 0.931 . S
C1449 C1448 1.370 . S
C1449 C1453 1.408 . S
C1450 C1448 1.363 . S
C1450 C1451 1.370 . S
C1450 C1454 1.524 . S
C1451 C1443 1.503 . S
C1451 C1450 1.370 . S
C1451 C1452 1.403 . S
C1452 C1451 1.403 . S
C1452 C1453 1.404 . S
C1452 C1455 1.539 . S
C1453 C1449 1.408 . S
C1453 C1452 1.404 . S
C1453 H1465 0.930 . S
C1454 C1450 1.524 . S
C1454 H1466 0.956 . S
C1454 H1467 0.961 . S
C1454 H1468 0.961 . S
C1455 C1452 1.539 . S
C1455 H1469 0.958 . S
C1455 H1470 0.961 . S
C1455 H1471 0.960 . S
H1456 C1440 0.931 . S
H1457 C1445 0.929 . S
H1458 C1446 0.960 . S
H1459 C1446 0.962 . S
H1460 C1446 0.960 . S
H1461 C1447 0.961 . S
H1462 C1447 0.961 . S
H1463 C1447 0.961 . S
H1464 C1448 0.931 . S
H1465 C1453 0.930 . S
H1466 C1454 0.956 . S
H1467 C1454 0.961 . S
H1468 C1454 0.961 . S
H1469 C1455 0.958 . S
H1470 C1455 0.961 . S
H1471 C1455 0.960 . S
C1472 C1473 1.391 . S
C1472 C1474 1.394 . S
C1472 H1488 0.931 . S
C1473 C1472 1.391 . S
C1473 C1477 1.376 . S
C1474 C1472 1.394 . S
C1474 C1475 1.369 . S
C1474 C1478 1.531 . S
C1475 C1474 1.369 . S
C1475 C1476 1.410 . S
C1475 C1483 1.503 . S
C1476 C1475 1.410 . S
C1476 C1477 1.392 . S
C1476 C1479 1.511 . S
C1477 C1473 1.376 . S
C1477 C1476 1.392 . S
C1477 H1489 0.929 . S
C1478 C1474 1.531 . S
C1478 H1490 0.960 . S
C1478 H1491 0.962 . S
C1478 H1492 0.960 . S
C1479 C1476 1.511 . S
C1479 H1493 0.961 . S
C1479 H1494 0.961 . S
C1479 H1495 0.961 . S
C1480 C1481 1.370 . S
C1480 C1482 1.363 . S
C1480 H1496 0.931 . S
C1481 C1480 1.370 . S
C1481 C1485 1.408 . S
C1482 C1480 1.363 . S
C1482 C1483 1.370 . S
C1482 C1486 1.524 . S
C1483 C1475 1.503 . S
C1483 C1482 1.370 . S
C1483 C1484 1.403 . S
C1484 C1483 1.403 . S
C1484 C1485 1.404 . S
C1484 C1487 1.539 . S
C1485 C1481 1.408 . S
C1485 C1484 1.404 . S
C1485 H1497 0.930 . S
C1486 C1482 1.524 . S
C1486 H1498 0.956 . S
C1486 H1499 0.961 . S
C1486 H1500 0.961 . S
C1487 C1484 1.539 . S
C1487 H1501 0.958 . S
C1487 H1502 0.961 . S
C1487 H1503 0.960 . S
H1488 C1472 0.931 . S
H1489 C1477 0.929 . S
H1490 C1478 0.960 . S
H1491 C1478 0.962 . S
H1492 C1478 0.960 . S
H1493 C1479 0.961 . S
H1494 C1479 0.961 . S
H1495 C1479 0.961 . S
H1496 C1480 0.931 . S
H1497 C1485 0.930 . S
H1498 C1486 0.956 . S
H1499 C1486 0.961 . S
H1500 C1486 0.961 . S
H1501 C1487 0.958 . S
H1502 C1487 0.961 . S
H1503 C1487 0.960 . S
C1504 C1505 1.391 . S
C1504 C1506 1.394 . S
C1504 H1520 0.931 . S
C1505 C1504 1.391 . S
C1505 C1509 1.376 . S
C1506 C1504 1.394 . S
C1506 C1507 1.369 . S
C1506 C1510 1.531 . S
C1507 C1506 1.369 . S
C1507 C1508 1.410 . S
C1507 C1515 1.503 . S
C1508 C1507 1.410 . S
C1508 C1509 1.392 . S
C1508 C1511 1.511 . S
C1509 C1505 1.376 . S
C1509 C1508 1.392 . S
C1509 H1521 0.929 . S
C1510 C1506 1.531 . S
C1510 H1522 0.960 . S
C1510 H1523 0.962 . S
C1510 H1524 0.960 . S
C1511 C1508 1.511 . S
C1511 H1525 0.961 . S
C1511 H1526 0.961 . S
C1511 H1527 0.961 . S
C1512 C1513 1.370 . S
C1512 C1514 1.363 . S
C1512 H1528 0.931 . S
C1513 C1512 1.370 . S
C1513 C1517 1.408 . S
C1514 C1512 1.363 . S
C1514 C1515 1.370 . S
C1514 C1518 1.524 . S
C1515 C1507 1.503 . S
C1515 C1514 1.370 . S
C1515 C1516 1.403 . S
C1516 C1515 1.403 . S
C1516 C1517 1.404 . S
C1516 C1519 1.539 . S
C1517 C1513 1.408 . S
C1517 C1516 1.404 . S
C1517 H1529 0.930 . S
C1518 C1514 1.524 . S
C1518 H1530 0.956 . S
C1518 H1531 0.961 . S
C1518 H1532 0.961 . S
C1519 C1516 1.539 . S
C1519 H1533 0.958 . S
C1519 H1534 0.961 . S
C1519 H1535 0.960 . S
H1520 C1504 0.931 . S
H1521 C1509 0.929 . S
H1522 C1510 0.960 . S
H1523 C1510 0.962 . S
H1524 C1510 0.960 . S
H1525 C1511 0.961 . S
H1526 C1511 0.961 . S
H1527 C1511 0.961 . S
H1528 C1512 0.931 . S
H1529 C1517 0.930 . S
H1530 C1518 0.956 . S
H1531 C1518 0.961 . S
H1532 C1518 0.961 . S
H1533 C1519 0.958 . S
H1534 C1519 0.961 . S
H1535 C1519 0.960 . S
C1536 C1537 1.391 . S
C1536 C1538 1.394 . S
C1536 H1552 0.931 . S
C1537 C1536 1.391 . S
C1537 C1541 1.376 . S
C1538 C1536 1.394 . S
C1538 C1539 1.369 . S
C1538 C1542 1.531 . S
C1539 C1538 1.369 . S
C1539 C1540 1.410 . S
C1539 C1547 1.503 . S
C1540 C1539 1.410 . S
C1540 C1541 1.392 . S
C1540 C1543 1.511 . S
C1541 C1537 1.376 . S
C1541 C1540 1.392 . S
C1541 H1553 0.929 . S
C1542 C1538 1.531 . S
C1542 H1554 0.960 . S
C1542 H1555 0.962 . S
C1542 H1556 0.960 . S
C1543 C1540 1.511 . S
C1543 H1557 0.961 . S
C1543 H1558 0.961 . S
C1543 H1559 0.961 . S
C1544 C1545 1.370 . S
C1544 C1546 1.363 . S
C1544 H1560 0.931 . S
C1545 C1544 1.370 . S
C1545 C1549 1.408 . S
C1546 C1544 1.363 . S
C1546 C1547 1.370 . S
C1546 C1550 1.524 . S
C1547 C1539 1.503 . S
C1547 C1546 1.370 . S
C1547 C1548 1.403 . S
C1548 C1547 1.403 . S
C1548 C1549 1.404 . S
C1548 C1551 1.539 . S
C1549 C1545 1.408 . S
C1549 C1548 1.404 . S
C1549 H1561 0.930 . S
C1550 C1546 1.524 . S
C1550 H1562 0.956 . S
C1550 H1563 0.961 . S
C1550 H1564 0.961 . S
C1551 C1548 1.539 . S
C1551 H1565 0.958 . S
C1551 H1566 0.961 . S
C1551 H1567 0.960 . S
H1552 C1536 0.931 . S
H1553 C1541 0.929 . S
H1554 C1542 0.960 . S
H1555 C1542 0.962 . S
H1556 C1542 0.960 . S
H1557 C1543 0.961 . S
H1558 C1543 0.961 . S
H1559 C1543 0.961 . S
H1560 C1544 0.931 . S
H1561 C1549 0.930 . S
H1562 C1550 0.956 . S
H1563 C1550 0.961 . S
H1564 C1550 0.961 . S
H1565 C1551 0.958 . S
H1566 C1551 0.961 . S
H1567 C1551 0.960 . S
C1568 C1569 1.391 . S
C1568 C1570 1.394 . S
C1568 H1584 0.931 . S
C1569 C1568 1.391 . S
C1569 C1573 1.376 . S
C1570 C1568 1.394 . S
C1570 C1571 1.369 . S
C1570 C1574 1.531 . S
C1571 C1570 1.369 . S
C1571 C1572 1.410 . S
C1571 C1579 1.503 . S
C1572 C1571 1.410 . S
C1572 C1573 1.392 . S
C1572 C1575 1.511 . S
C1573 C1569 1.376 . S
C1573 C1572 1.392 . S
C1573 H1585 0.929 . S
C1574 C1570 1.531 . S
C1574 H1586 0.960 . S
C1574 H1587 0.962 . S
C1574 H1588 0.960 . S
C1575 C1572 1.511 . S
C1575 H1589 0.961 . S
C1575 H1590 0.961 . S
C1575 H1591 0.961 . S
C1576 C1577 1.370 . S
C1576 C1578 1.363 . S
C1576 H1592 0.931 . S
C1577 C1576 1.370 . S
C1577 C1581 1.408 . S
C1578 C1576 1.363 . S
C1578 C1579 1.370 . S
C1578 C1582 1.524 . S
C1579 C1571 1.503 . S
C1579 C1578 1.370 . S
C1579 C1580 1.403 . S
C1580 C1579 1.403 . S
C1580 C1581 1.404 . S
C1580 C1583 1.539 . S
C1581 C1577 1.408 . S
C1581 C1580 1.404 . S
C1581 H1593 0.930 . S
C1582 C1578 1.524 . S
C1582 H1594 0.956 . S
C1582 H1595 0.961 . S
C1582 H1596 0.961 . S
C1583 C1580 1.539 . S
C1583 H1597 0.958 . S
C1583 H1598 0.961 . S
C1583 H1599 0.960 . S
H1584 C1568 0.931 . S
H1585 C1573 0.929 . S
H1586 C1574 0.960 . S
H1587 C1574 0.962 . S
H1588 C1574 0.960 . S
H1589 C1575 0.961 . S
H1590 C1575 0.961 . S
H1591 C1575 0.961 . S
H1592 C1576 0.931 . S
H1593 C1581 0.930 . S
H1594 C1582 0.956 . S
H1595 C1582 0.961 . S
H1596 C1582 0.961 . S
H1597 C1583 0.958 . S
H1598 C1583 0.961 . S
H1599 C1583 0.960 . S
C1600 C1601 1.391 . S
C1600 C1602 1.394 . S
C1600 H1616 0.931 . S
C1601 C1600 1.391 . S
C1601 C1605 1.376 . S
C1602 C1600 1.394 . S
C1602 C1603 1.369 . S
C1602 C1606 1.531 . S
C1603 C1602 1.369 . S
C1603 C1604 1.410 . S
C1603 C1611 1.503 . S
C1604 C1603 1.410 . S
C1604 C1605 1.392 . S
C1604 C1607 1.511 . S
C1605 C1601 1.376 . S
C1605 C1604 1.392 . S
C1605 H1617 0.929 . S
C1606 C1602 1.531 . S
C1606 H1618 0.960 . S
C1606 H1619 0.962 . S
C1606 H1620 0.960 . S
C1607 C1604 1.511 . S
C1607 H1621 0.961 . S
C1607 H1622 0.961 . S
C1607 H1623 0.961 . S
C1608 C1609 1.370 . S
C1608 C1610 1.363 . S
C1608 H1624 0.931 . S
C1609 C1608 1.370 . S
C1609 C1613 1.408 . S
C1610 C1608 1.363 . S
C1610 C1611 1.370 . S
C1610 C1614 1.524 . S
C1611 C1603 1.503 . S
C1611 C1610 1.370 . S
C1611 C1612 1.403 . S
C1612 C1611 1.403 . S
C1612 C1613 1.404 . S
C1612 C1615 1.539 . S
C1613 C1609 1.408 . S
C1613 C1612 1.404 . S
C1613 H1625 0.930 . S
C1614 C1610 1.524 . S
C1614 H1626 0.956 . S
C1614 H1627 0.961 . S
C1614 H1628 0.961 . S
C1615 C1612 1.539 . S
C1615 H1629 0.958 . S
C1615 H1630 0.961 . S
C1615 H1631 0.960 . S
H1616 C1600 0.931 . S
H1617 C1605 0.929 . S
H1618 C1606 0.960 . S
H1619 C1606 0.962 . S
H1620 C1606 0.960 . S
H1621 C1607 0.961 . S
H1622 C1607 0.961 . S
H1623 C1607 0.961 . S
H1624 C1608 0.931 . S
H1625 C1613 0.930 . S
H1626 C1614 0.956 . S
H1627 C1614 0.961 . S
H1628 C1614 0.961 . S
H1629 C1615 0.958 . S
H1630 C1615 0.961 . S
H1631 C1615 0.960 . S
C1632 C1633 1.391 . S
C1632 C1634 1.394 . S
C1632 H1648 0.931 . S
C1633 C1632 1.391 . S
C1633 C1637 1.376 . S
C1634 C1632 1.394 . S
C1634 C1635 1.369 . S
C1634 C1638 1.531 . S
C1635 C1634 1.369 . S
C1635 C1636 1.410 . S
C1635 C1643 1.503 . S
C1636 C1635 1.410 . S
C1636 C1637 1.392 . S
C1636 C1639 1.511 . S
C1637 C1633 1.376 . S
C1637 C1636 1.392 . S
C1637 H1649 0.929 . S
C1638 C1634 1.531 . S
C1638 H1650 0.960 . S
C1638 H1651 0.962 . S
C1638 H1652 0.960 . S
C1639 C1636 1.511 . S
C1639 H1653 0.961 . S
C1639 H1654 0.961 . S
C1639 H1655 0.961 . S
C1640 C1641 1.370 . S
C1640 C1642 1.363 . S
C1640 H1656 0.931 . S
C1641 C1640 1.370 . S
C1641 C1645 1.408 . S
C1642 C1640 1.363 . S
C1642 C1643 1.370 . S
C1642 C1646 1.524 . S
C1643 C1635 1.503 . S
C1643 C1642 1.370 . S
C1643 C1644 1.403 . S
C1644 C1643 1.403 . S
C1644 C1645 1.404 . S
C1644 C1647 1.539 . S
C1645 C1641 1.408 . S
C1645 C1644 1.404 . S
C1645 H1657 0.930 . S
C1646 C1642 1.524 . S
C1646 H1658 0.956 . S
C1646 H1659 0.961 . S
C1646 H1660 0.961 . S
C1647 C1644 1.539 . S
C1647 H1661 0.958 . S
C1647 H1662 0.961 . S
C1647 H1663 0.960 . S
H1648 C1632 0.931 . S
H1649 C1637 0.929 . S
H1650 C1638 0.960 . S
H1651 C1638 0.962 . S
H1652 C1638 0.960 . S
H1653 C1639 0.961 . S
H1654 C1639 0.961 . S
H1655 C1639 0.961 . S
H1656 C1640 0.931 . S
H1657 C1645 0.930 . S
H1658 C1646 0.956 . S
H1659 C1646 0.961 . S
H1660 C1646 0.961 . S
H1661 C1647 0.958 . S
H1662 C1647 0.961 . S
H1663 C1647 0.960 . S
C1664 C1665 1.391 . S
C1664 C1666 1.394 . S
C1664 H1680 0.931 . S
C1665 C1664 1.391 . S
C1665 C1669 1.376 . S
C1666 C1664 1.394 . S
C1666 C1667 1.369 . S
C1666 C1670 1.531 . S
C1667 C1666 1.369 . S
C1667 C1668 1.410 . S
C1667 C1675 1.503 . S
C1668 C1667 1.410 . S
C1668 C1669 1.392 . S
C1668 C1671 1.511 . S
C1669 C1665 1.376 . S
C1669 C1668 1.392 . S
C1669 H1681 0.929 . S
C1670 C1666 1.531 . S
C1670 H1682 0.960 . S
C1670 H1683 0.962 . S
C1670 H1684 0.960 . S
C1671 C1668 1.511 . S
C1671 H1685 0.961 . S
C1671 H1686 0.961 . S
C1671 H1687 0.961 . S
C1672 C1673 1.370 . S
C1672 C1674 1.363 . S
C1672 H1688 0.931 . S
C1673 C1672 1.370 . S
C1673 C1677 1.408 . S
C1674 C1672 1.363 . S
C1674 C1675 1.370 . S
C1674 C1678 1.524 . S
C1675 C1667 1.503 . S
C1675 C1674 1.370 . S
C1675 C1676 1.403 . S
C1676 C1675 1.403 . S
C1676 C1677 1.404 . S
C1676 C1679 1.539 . S
C1677 C1673 1.408 . S
C1677 C1676 1.404 . S
C1677 H1689 0.930 . S
C1678 C1674 1.524 . S
C1678 H1690 0.956 . S
C1678 H1691 0.961 . S
C1678 H1692 0.961 . S
C1679 C1676 1.539 . S
C1679 H1693 0.958 . S
C1679 H1694 0.961 . S
C1679 H1695 0.960 . S
H1680 C1664 0.931 . S
H1681 C1669 0.929 . S
H1682 C1670 0.960 . S
H1683 C1670 0.962 . S
H1684 C1670 0.960 . S
H1685 C1671 0.961 . S
H1686 C1671 0.961 . S
H1687 C1671 0.961 . S
H1688 C1672 0.931 . S
H1689 C1677 0.930 . S
H1690 C1678 0.956 . S
H1691 C1678 0.961 . S
H1692 C1678 0.961 . S
H1693 C1679 0.958 . S
H1694 C1679 0.961 . S
H1695 C1679 0.960 . S
C1696 C1697 1.391 . S
C1696 C1698 1.394 . S
C1696 H1712 0.931 . S
C1697 C1696 1.391 . S
C1697 C1701 1.376 . S
C1698 C1696 1.394 . S
C1698 C1699 1.369 . S
C1698 C1702 1.531 . S
C1699 C1698 1.369 . S
C1699 C1700 1.410 . S
C1699 C1707 1.503 . S
C1700 C1699 1.410 . S
C1700 C1701 1.392 . S
C1700 C1703 1.511 . S
C1701 C1697 1.376 . S
C1701 C1700 1.392 . S
C1701 H1713 0.929 . S
C1702 C1698 1.531 . S
C1702 H1714 0.960 . S
C1702 H1715 0.962 . S
C1702 H1716 0.960 . S
C1703 C1700 1.511 . S
C1703 H1717 0.961 . S
C1703 H1718 0.961 . S
C1703 H1719 0.961 . S
C1704 C1705 1.370 . S
C1704 C1706 1.363 . S
C1704 H1720 0.931 . S
C1705 C1704 1.370 . S
C1705 C1709 1.408 . S
C1706 C1704 1.363 . S
C1706 C1707 1.370 . S
C1706 C1710 1.524 . S
C1707 C1699 1.503 . S
C1707 C1706 1.370 . S
C1707 C1708 1.403 . S
C1708 C1707 1.403 . S
C1708 C1709 1.404 . S
C1708 C1711 1.539 . S
C1709 C1705 1.408 . S
C1709 C1708 1.404 . S
C1709 H1721 0.930 . S
C1710 C1706 1.524 . S
C1710 H1722 0.956 . S
C1710 H1723 0.961 . S
C1710 H1724 0.961 . S
C1711 C1708 1.539 . S
C1711 H1725 0.958 . S
C1711 H1726 0.961 . S
C1711 H1727 0.960 . S
H1712 C1696 0.931 . S
H1713 C1701 0.929 . S
H1714 C1702 0.960 . S
H1715 C1702 0.962 . S
H1716 C1702 0.960 . S
H1717 C1703 0.961 . S
H1718 C1703 0.961 . S
H1719 C1703 0.961 . S
H1720 C1704 0.931 . S
H1721 C1709 0.930 . S
H1722 C1710 0.956 . S
H1723 C1710 0.961 . S
H1724 C1710 0.961 . S
H1725 C1711 0.958 . S
H1726 C1711 0.961 . S
H1727 C1711 0.960 . S
C1728 C1729 1.391 . S
C1728 C1730 1.394 . S
C1728 H1744 0.931 . S
C1729 C1728 1.391 . S
C1729 C1733 1.376 . S
C1730 C1728 1.394 . S
C1730 C1731 1.369 . S
C1730 C1734 1.531 . S
C1731 C1730 1.369 . S
C1731 C1732 1.410 . S
C1731 C1739 1.503 1_554 S
C1732 C1731 1.410 . S
C1732 C1733 1.392 . S
C1732 C1735 1.511 . S
C1733 C1729 1.376 . S
C1733 C1732 1.392 . S
C1733 H1745 0.929 . S
C1734 C1730 1.531 . S
C1734 H1746 0.960 1_554 S
C1734 H1747 0.962 . S
C1734 H1748 0.960 . S
C1735 C1732 1.511 . S
C1735 H1749 0.961 . S
C1735 H1750 0.961 1_554 S
C1735 H1751 0.961 . S
C1736 C1737 1.370 . S
C1736 C1738 1.363 . S
C1736 H1752 0.931 . S
C1737 C1736 1.370 . S
C1737 C1741 1.408 . S
C1738 C1736 1.363 . S
C1738 C1739 1.370 . S
C1738 C1742 1.524 . S
C1739 C1731 1.503 1_556 S
C1739 C1738 1.370 . S
C1739 C1740 1.403 . S
C1740 C1739 1.403 . S
C1740 C1741 1.404 . S
C1740 C1743 1.539 . S
C1741 C1737 1.408 . S
C1741 C1740 1.404 . S
C1741 H1753 0.930 . S
C1742 C1738 1.524 . S
C1742 H1754 0.956 . S
C1742 H1755 0.961 1_556 S
C1742 H1756 0.961 . S
C1743 C1740 1.539 . S
C1743 H1757 0.958 . S
C1743 H1758 0.961 . S
C1743 H1759 0.970 . S
H1744 C1728 0.931 . S
H1745 C1733 0.929 . S
H1746 C1734 0.960 1_556 S
H1747 C1734 0.962 . S
H1748 C1734 0.960 . S
H1749 C1735 0.961 . S
H1750 C1735 0.961 1_556 S
H1751 C1735 0.961 . S
H1752 C1736 0.931 . S
H1753 C1741 0.930 . S
H1754 C1742 0.956 . S
H1755 C1742 0.961 1_554 S
H1756 C1742 0.961 . S
H1757 C1743 0.958 . S
H1758 C1743 0.961 . S
H1759 C1743 0.970 . S
C1760 C1761 1.391 . S
C1760 C1762 1.394 . S
C1760 H1776 0.931 . S
C1761 C1760 1.391 . S
C1761 C1765 1.376 . S
C1762 C1760 1.394 . S
C1762 C1763 1.369 . S
C1762 C1766 1.531 . S
C1763 C1762 1.369 . S
C1763 C1764 1.410 . S
C1763 C1771 1.503 1_556 S
C1764 C1763 1.410 . S
C1764 C1765 1.392 . S
C1764 C1767 1.511 . S
C1765 C1761 1.376 . S
C1765 C1764 1.392 . S
C1765 H1777 0.929 . S
C1766 C1762 1.531 . S
C1766 H1778 0.960 1_556 S
C1766 H1779 0.962 . S
C1766 H1780 0.960 . S
C1767 C1764 1.511 . S
C1767 H1781 0.961 . S
C1767 H1782 0.961 1_556 S
C1767 H1783 0.961 . S
C1768 C1769 1.370 . S
C1768 C1770 1.363 . S
C1768 H1784 0.931 . S
C1769 C1768 1.370 . S
C1769 C1773 1.408 . S
C1770 C1768 1.363 . S
C1770 C1771 1.370 . S
C1770 C1774 1.524 . S
C1771 C1763 1.503 1_554 S
C1771 C1770 1.370 . S
C1771 C1772 1.403 . S
C1772 C1771 1.403 . S
C1772 C1773 1.404 . S
C1772 C1775 1.539 . S
C1773 C1769 1.408 . S
C1773 C1772 1.404 . S
C1773 H1785 0.930 . S
C1774 C1770 1.524 . S
C1774 H1786 0.956 . S
C1774 H1787 0.961 1_554 S
C1774 H1788 0.961 . S
C1775 C1772 1.539 . S
C1775 H1789 0.958 . S
C1775 H1790 0.961 . S
C1775 H1791 0.970 . S
H1776 C1760 0.931 . S
H1777 C1765 0.929 . S
H1778 C1766 0.960 1_554 S
H1779 C1766 0.962 . S
H1780 C1766 0.960 . S
H1781 C1767 0.961 . S
H1782 C1767 0.961 1_554 S
H1783 C1767 0.961 . S
H1784 C1768 0.931 . S
H1785 C1773 0.930 . S
H1786 C1774 0.956 . S
H1787 C1774 0.961 1_556 S
H1788 C1774 0.961 . S
H1789 C1775 0.958 . S
H1790 C1775 0.961 . S
H1791 C1775 0.970 . S
C1792 C1793 1.391 . S
C1792 C1794 1.394 . S
C1792 H1808 0.931 . S
C1793 C1792 1.391 . S
C1793 C1797 1.376 . S
C1794 C1792 1.394 . S
C1794 C1795 1.369 . S
C1794 C1798 1.531 . S
C1795 C1794 1.369 . S
C1795 C1796 1.410 . S
C1795 C1803 1.503 1_554 S
C1796 C1795 1.410 . S
C1796 C1797 1.392 . S
C1796 C1799 1.511 . S
C1797 C1793 1.376 . S
C1797 C1796 1.392 . S
C1797 H1809 0.929 . S
C1798 C1794 1.531 . S
C1798 H1810 0.960 1_554 S
C1798 H1811 0.962 . S
C1798 H1812 0.960 . S
C1799 C1796 1.511 . S
C1799 H1813 0.961 . S
C1799 H1814 0.961 1_554 S
C1799 H1815 0.961 . S
C1800 C1801 1.370 . S
C1800 C1802 1.363 . S
C1800 H1816 0.931 . S
C1801 C1800 1.370 . S
C1801 C1805 1.408 . S
C1802 C1800 1.363 . S
C1802 C1803 1.370 . S
C1802 C1806 1.524 . S
C1803 C1795 1.503 1_556 S
C1803 C1802 1.370 . S
C1803 C1804 1.403 . S
C1804 C1803 1.403 . S
C1804 C1805 1.404 . S
C1804 C1807 1.539 . S
C1805 C1801 1.408 . S
C1805 C1804 1.404 . S
C1805 H1817 0.930 . S
C1806 C1802 1.524 . S
C1806 H1818 0.956 . S
C1806 H1819 0.961 1_556 S
C1806 H1820 0.961 . S
C1807 C1804 1.539 . S
C1807 H1821 0.958 . S
C1807 H1822 0.961 . S
C1807 H1823 0.970 . S
H1808 C1792 0.931 . S
H1809 C1797 0.929 . S
H1810 C1798 0.960 1_556 S
H1811 C1798 0.962 . S
H1812 C1798 0.960 . S
H1813 C1799 0.961 . S
H1814 C1799 0.961 1_556 S
H1815 C1799 0.961 . S
H1816 C1800 0.931 . S
H1817 C1805 0.930 . S
H1818 C1806 0.956 . S
H1819 C1806 0.961 1_554 S
H1820 C1806 0.961 . S
H1821 C1807 0.958 . S
H1822 C1807 0.961 . S
H1823 C1807 0.970 . S
C1824 C1825 1.391 . S
C1824 C1826 1.394 . S
C1824 H1840 0.931 . S
C1825 C1824 1.391 . S
C1825 C1829 1.376 . S
C1826 C1824 1.394 . S
C1826 C1827 1.369 . S
C1826 C1830 1.531 . S
C1827 C1826 1.369 . S
C1827 C1828 1.410 . S
C1827 C1835 1.503 1_554 S
C1828 C1827 1.410 . S
C1828 C1829 1.392 . S
C1828 C1831 1.511 . S
C1829 C1825 1.376 . S
C1829 C1828 1.392 . S
C1829 H1841 0.929 . S
C1830 C1826 1.531 . S
C1830 H1842 0.960 1_554 S
C1830 H1843 0.962 . S
C1830 H1844 0.960 . S
C1831 C1828 1.511 . S
C1831 H1845 0.961 . S
C1831 H1846 0.961 1_554 S
C1831 H1847 0.961 . S
C1832 C1833 1.370 . S
C1832 C1834 1.363 . S
C1832 H1848 0.931 . S
C1833 C1832 1.370 . S
C1833 C1837 1.408 . S
C1834 C1832 1.363 . S
C1834 C1835 1.370 . S
C1834 C1838 1.524 . S
C1835 C1827 1.503 1_556 S
C1835 C1834 1.370 . S
C1835 C1836 1.403 . S
C1836 C1835 1.403 . S
C1836 C1837 1.404 . S
C1836 C1839 1.539 . S
C1837 C1833 1.408 . S
C1837 C1836 1.404 . S
C1837 H1849 0.930 . S
C1838 C1834 1.524 . S
C1838 H1850 0.956 . S
C1838 H1851 0.961 1_556 S
C1838 H1852 0.961 . S
C1839 C1836 1.539 . S
C1839 H1853 0.958 . S
C1839 H1854 0.961 . S
C1839 H1855 0.970 . S
H1840 C1824 0.931 . S
H1841 C1829 0.929 . S
H1842 C1830 0.960 1_556 S
H1843 C1830 0.962 . S
H1844 C1830 0.960 . S
H1845 C1831 0.961 . S
H1846 C1831 0.961 1_556 S
H1847 C1831 0.961 . S
H1848 C1832 0.931 . S
H1849 C1837 0.930 . S
H1850 C1838 0.956 . S
H1851 C1838 0.961 1_554 S
H1852 C1838 0.961 . S
H1853 C1839 0.958 . S
H1854 C1839 0.961 . S
H1855 C1839 0.970 . S
C1856 C1857 1.391 . S
C1856 C1858 1.394 . S
C1856 H1872 0.931 . S
C1857 C1856 1.391 . S
C1857 C1861 1.376 . S
C1858 C1856 1.394 . S
C1858 C1859 1.369 . S
C1858 C1862 1.531 . S
C1859 C1858 1.369 . S
C1859 C1860 1.410 . S
C1859 C1867 1.503 1_554 S
C1860 C1859 1.410 . S
C1860 C1861 1.392 . S
C1860 C1863 1.511 . S
C1861 C1857 1.376 . S
C1861 C1860 1.392 . S
C1861 H1873 0.929 . S
C1862 C1858 1.531 . S
C1862 H1874 0.960 1_554 S
C1862 H1875 0.962 . S
C1862 H1876 0.960 . S
C1863 C1860 1.511 . S
C1863 H1877 0.961 . S
C1863 H1878 0.961 1_554 S
C1863 H1879 0.961 . S
C1864 C1865 1.370 . S
C1864 C1866 1.363 . S
C1864 H1880 0.931 . S
C1865 C1864 1.370 . S
C1865 C1869 1.408 . S
C1866 C1864 1.363 . S
C1866 C1867 1.370 . S
C1866 C1870 1.524 . S
C1867 C1859 1.503 1_556 S
C1867 C1866 1.370 . S
C1867 C1868 1.403 . S
C1868 C1867 1.403 . S
C1868 C1869 1.404 . S
C1868 C1871 1.539 . S
C1869 C1865 1.408 . S
C1869 C1868 1.404 . S
C1869 H1881 0.930 . S
C1870 C1866 1.524 . S
C1870 H1882 0.956 . S
C1870 H1883 0.961 1_556 S
C1870 H1884 0.961 . S
C1871 C1868 1.539 . S
C1871 H1885 0.958 . S
C1871 H1886 0.961 . S
C1871 H1887 0.970 . S
H1872 C1856 0.931 . S
H1873 C1861 0.929 . S
H1874 C1862 0.960 1_556 S
H1875 C1862 0.962 . S
H1876 C1862 0.960 . S
H1877 C1863 0.961 . S
H1878 C1863 0.961 1_556 S
H1879 C1863 0.961 . S
H1880 C1864 0.931 . S
H1881 C1869 0.930 . S
H1882 C1870 0.956 . S
H1883 C1870 0.961 1_554 S
H1884 C1870 0.961 . S
H1885 C1871 0.958 . S
H1886 C1871 0.961 . S
H1887 C1871 0.970 . S
C1888 C1889 1.391 . S
C1888 C1890 1.394 . S
C1888 H1904 0.931 . S
C1889 C1888 1.391 . S
C1889 C1893 1.376 . S
C1890 C1888 1.394 . S
C1890 C1891 1.369 . S
C1890 C1894 1.531 . S
C1891 C1890 1.369 . S
C1891 C1892 1.410 . S
C1891 C1899 1.503 1_554 S
C1892 C1891 1.410 . S
C1892 C1893 1.392 . S
C1892 C1895 1.511 . S
C1893 C1889 1.376 . S
C1893 C1892 1.392 . S
C1893 H1905 0.929 . S
C1894 C1890 1.531 . S
C1894 H1906 0.960 1_554 S
C1894 H1907 0.962 . S
C1894 H1908 0.960 . S
C1895 C1892 1.511 . S
C1895 H1909 0.961 . S
C1895 H1910 0.961 1_554 S
C1895 H1911 0.961 . S
C1896 C1897 1.370 . S
C1896 C1898 1.363 . S
C1896 H1912 0.931 . S
C1897 C1896 1.370 . S
C1897 C1901 1.408 . S
C1898 C1896 1.363 . S
C1898 C1899 1.370 . S
C1898 C1902 1.524 . S
C1899 C1891 1.503 1_556 S
C1899 C1898 1.370 . S
C1899 C1900 1.403 . S
C1900 C1899 1.403 . S
C1900 C1901 1.404 . S
C1900 C1903 1.539 . S
C1901 C1897 1.408 . S
C1901 C1900 1.404 . S
C1901 H1913 0.930 . S
C1902 C1898 1.524 . S
C1902 H1914 0.956 . S
C1902 H1915 0.961 1_556 S
C1902 H1916 0.961 . S
C1903 C1900 1.539 . S
C1903 H1917 0.958 . S
C1903 H1918 0.961 . S
C1903 H1919 0.970 . S
H1904 C1888 0.931 . S
H1905 C1893 0.929 . S
H1906 C1894 0.960 1_556 S
H1907 C1894 0.962 . S
H1908 C1894 0.960 . S
H1909 C1895 0.961 . S
H1910 C1895 0.961 1_556 S
H1911 C1895 0.961 . S
H1912 C1896 0.931 . S
H1913 C1901 0.930 . S
H1914 C1902 0.956 . S
H1915 C1902 0.961 1_554 S
H1916 C1902 0.961 . S
H1917 C1903 0.958 . S
H1918 C1903 0.961 . S
H1919 C1903 0.970 . S
C1920 C1921 1.391 . S
C1920 C1922 1.394 . S
C1920 H1936 0.931 . S
C1921 C1920 1.391 . S
C1921 C1925 1.376 . S
C1922 C1920 1.394 . S
C1922 C1923 1.369 . S
C1922 C1926 1.531 . S
C1923 C1922 1.369 . S
C1923 C1924 1.410 . S
C1923 C1931 1.503 1_556 S
C1924 C1923 1.410 . S
C1924 C1925 1.392 . S
C1924 C1927 1.511 . S
C1925 C1921 1.376 . S
C1925 C1924 1.392 . S
C1925 H1937 0.929 . S
C1926 C1922 1.531 . S
C1926 H1938 0.960 1_556 S
C1926 H1939 0.962 . S
C1926 H1940 0.960 . S
C1927 C1924 1.511 . S
C1927 H1941 0.961 . S
C1927 H1942 0.961 1_556 S
C1927 H1943 0.961 . S
C1928 C1929 1.370 . S
C1928 C1930 1.363 . S
C1928 H1944 0.931 . S
C1929 C1928 1.370 . S
C1929 C1933 1.408 . S
C1930 C1928 1.363 . S
C1930 C1931 1.370 . S
C1930 C1934 1.524 . S
C1931 C1923 1.503 1_554 S
C1931 C1930 1.370 . S
C1931 C1932 1.403 . S
C1932 C1931 1.403 . S
C1932 C1933 1.404 . S
C1932 C1935 1.539 . S
C1933 C1929 1.408 . S
C1933 C1932 1.404 . S
C1933 H1945 0.930 . S
C1934 C1930 1.524 . S
C1934 H1946 0.956 . S
C1934 H1947 0.961 1_554 S
C1934 H1948 0.961 . S
C1935 C1932 1.539 . S
C1935 H1949 0.958 . S
C1935 H1950 0.961 . S
C1935 H1951 0.970 . S
H1936 C1920 0.931 . S
H1937 C1925 0.929 . S
H1938 C1926 0.960 1_554 S
H1939 C1926 0.962 . S
H1940 C1926 0.960 . S
H1941 C1927 0.961 . S
H1942 C1927 0.961 1_554 S
H1943 C1927 0.961 . S
H1944 C1928 0.931 . S
H1945 C1933 0.930 . S
H1946 C1934 0.956 . S
H1947 C1934 0.961 1_556 S
H1948 C1934 0.961 . S
H1949 C1935 0.958 . S
H1950 C1935 0.961 . S
H1951 C1935 0.970 . S
C1952 C1953 1.391 . S
C1952 C1954 1.394 . S
C1952 H1968 0.931 . S
C1953 C1952 1.391 . S
C1953 C1957 1.376 . S
C1954 C1952 1.394 . S
C1954 C1955 1.369 . S
C1954 C1958 1.531 . S
C1955 C1954 1.369 . S
C1955 C1956 1.410 . S
C1955 C1963 1.503 1_556 S
C1956 C1955 1.410 . S
C1956 C1957 1.392 . S
C1956 C1959 1.511 . S
C1957 C1953 1.376 . S
C1957 C1956 1.392 . S
C1957 H1969 0.929 . S
C1958 C1954 1.531 . S
C1958 H1970 0.960 1_556 S
C1958 H1971 0.962 . S
C1958 H1972 0.960 . S
C1959 C1956 1.511 . S
C1959 H1973 0.961 . S
C1959 H1974 0.961 1_556 S
C1959 H1975 0.961 . S
C1960 C1961 1.370 . S
C1960 C1962 1.363 . S
C1960 H1976 0.931 . S
C1961 C1960 1.370 . S
C1961 C1965 1.408 . S
C1962 C1960 1.363 . S
C1962 C1963 1.370 . S
C1962 C1966 1.524 . S
C1963 C1955 1.503 1_554 S
C1963 C1962 1.370 . S
C1963 C1964 1.403 . S
C1964 C1963 1.403 . S
C1964 C1965 1.404 . S
C1964 C1967 1.539 . S
C1965 C1961 1.408 . S
C1965 C1964 1.404 . S
C1965 H1977 0.930 . S
C1966 C1962 1.524 . S
C1966 H1978 0.956 . S
C1966 H1979 0.961 1_554 S
C1966 H1980 0.961 . S
C1967 C1964 1.539 . S
C1967 H1981 0.958 . S
C1967 H1982 0.961 . S
C1967 H1983 0.970 . S
H1968 C1952 0.931 . S
H1969 C1957 0.929 . S
H1970 C1958 0.960 1_554 S
H1971 C1958 0.962 . S
H1972 C1958 0.960 . S
H1973 C1959 0.961 . S
H1974 C1959 0.961 1_554 S
H1975 C1959 0.961 . S
H1976 C1960 0.931 . S
H1977 C1965 0.930 . S
H1978 C1966 0.956 . S
H1979 C1966 0.961 1_556 S
H1980 C1966 0.961 . S
H1981 C1967 0.958 . S
H1982 C1967 0.961 . S
H1983 C1967 0.970 . S
C1984 C1985 1.391 . S
C1984 C1986 1.394 . S
C1984 H2000 0.931 . S
C1985 C1984 1.391 . S
C1985 C1989 1.376 . S
C1986 C1984 1.394 . S
C1986 C1987 1.369 . S
C1986 C1990 1.531 . S
C1987 C1986 1.369 . S
C1987 C1988 1.410 . S
C1987 C1995 1.503 . S
C1988 C1987 1.410 . S
C1988 C1989 1.392 . S
C1988 C1991 1.511 . S
C1989 C1985 1.376 . S
C1989 C1988 1.392 . S
C1989 H2001 0.929 . S
C1990 C1986 1.531 . S
C1990 H2002 0.960 . S
C1990 H2003 0.962 . S
C1990 H2004 0.960 . S
C1991 C1988 1.511 . S
C1991 H2005 0.961 . S
C1991 H2006 0.961 . S
C1991 H2007 0.961 . S
C1992 C1993 1.370 . S
C1992 C1994 1.363 . S
C1992 H2008 0.931 . S
C1993 C1992 1.370 . S
C1993 C1997 1.408 . S
C1994 C1992 1.363 . S
C1994 C1995 1.370 . S
C1994 C1998 1.524 . S
C1995 C1987 1.503 . S
C1995 C1994 1.370 . S
C1995 C1996 1.403 . S
C1996 C1995 1.403 . S
C1996 C1997 1.404 . S
C1996 C1999 1.539 . S
C1997 C1993 1.408 . S
C1997 C1996 1.404 . S
C1997 H2009 0.930 . S
C1998 C1994 1.524 . S
C1998 H2010 0.956 . S
C1998 H2011 0.961 . S
C1998 H2012 0.961 . S
C1999 C1996 1.539 . S
C1999 H2013 0.958 . S
C1999 H2014 0.961 . S
C1999 H2015 0.960 . S
H2000 C1984 0.931 . S
H2001 C1989 0.929 . S
H2002 C1990 0.960 . S
H2003 C1990 0.962 . S
H2004 C1990 0.960 . S
H2005 C1991 0.961 . S
H2006 C1991 0.961 . S
H2007 C1991 0.961 . S
H2008 C1992 0.931 . S
H2009 C1997 0.930 . S
H2010 C1998 0.956 . S
H2011 C1998 0.961 . S
H2012 C1998 0.961 . S
H2013 C1999 0.958 . S
H2014 C1999 0.961 . S
H2015 C1999 0.960 . S
C2016 C2017 1.391 . S
C2016 C2018 1.394 . S
C2016 H2032 0.931 . S
C2017 C2016 1.391 . S
C2017 C2021 1.376 . S
C2018 C2016 1.394 . S
C2018 C2019 1.369 . S
C2018 C2022 1.531 . S
C2019 C2018 1.369 . S
C2019 C2020 1.410 . S
C2019 C2027 1.503 . S
C2020 C2019 1.410 . S
C2020 C2021 1.392 . S
C2020 C2023 1.511 . S
C2021 C2017 1.376 . S
C2021 C2020 1.392 . S
C2021 H2033 0.929 . S
C2022 C2018 1.531 . S
C2022 H2034 0.960 . S
C2022 H2035 0.962 . S
C2022 H2036 0.960 . S
C2023 C2020 1.511 . S
C2023 H2037 0.961 . S
C2023 H2038 0.961 . S
C2023 H2039 0.961 . S
C2024 C2025 1.370 . S
C2024 C2026 1.363 . S
C2024 H2040 0.931 . S
C2025 C2024 1.370 . S
C2025 C2029 1.408 . S
C2026 C2024 1.363 . S
C2026 C2027 1.370 . S
C2026 C2030 1.524 . S
C2027 C2019 1.503 . S
C2027 C2026 1.370 . S
C2027 C2028 1.403 . S
C2028 C2027 1.403 . S
C2028 C2029 1.404 . S
C2028 C2031 1.539 . S
C2029 C2025 1.408 . S
C2029 C2028 1.404 . S
C2029 H2041 0.930 . S
C2030 C2026 1.524 . S
C2030 H2042 0.956 . S
C2030 H2043 0.961 . S
C2030 H2044 0.961 . S
C2031 C2028 1.539 . S
C2031 H2045 0.958 . S
C2031 H2046 0.961 . S
C2031 H2047 0.960 . S
H2032 C2016 0.931 . S
H2033 C2021 0.929 . S
H2034 C2022 0.960 . S
H2035 C2022 0.962 . S
H2036 C2022 0.960 . S
H2037 C2023 0.961 . S
H2038 C2023 0.961 . S
H2039 C2023 0.961 . S
H2040 C2024 0.931 . S
H2041 C2029 0.930 . S
H2042 C2030 0.956 . S
H2043 C2030 0.961 . S
H2044 C2030 0.961 . S
H2045 C2031 0.958 . S
H2046 C2031 0.961 . S
H2047 C2031 0.960 . S
C2048 C2049 1.391 . S
C2048 C2050 1.394 . S
C2048 H2064 0.931 . S
C2049 C2048 1.391 . S
C2049 C2053 1.376 . S
C2050 C2048 1.394 . S
C2050 C2051 1.369 . S
C2050 C2054 1.531 . S
C2051 C2050 1.369 . S
C2051 C2052 1.410 . S
C2051 C2059 1.503 . S
C2052 C2051 1.410 . S
C2052 C2053 1.392 . S
C2052 C2055 1.511 . S
C2053 C2049 1.376 . S
C2053 C2052 1.392 . S
C2053 H2065 0.929 . S
C2054 C2050 1.531 . S
C2054 H2066 0.960 . S
C2054 H2067 0.962 . S
C2054 H2068 0.960 . S
C2055 C2052 1.511 . S
C2055 H2069 0.961 . S
C2055 H2070 0.961 . S
C2055 H2071 0.961 . S
C2056 C2057 1.370 . S
C2056 C2058 1.363 . S
C2056 H2072 0.931 . S
C2057 C2056 1.370 . S
C2057 C2061 1.408 . S
C2058 C2056 1.363 . S
C2058 C2059 1.370 . S
C2058 C2062 1.524 . S
C2059 C2051 1.503 . S
C2059 C2058 1.370 . S
C2059 C2060 1.403 . S
C2060 C2059 1.403 . S
C2060 C2061 1.404 . S
C2060 C2063 1.539 . S
C2061 C2057 1.408 . S
C2061 C2060 1.404 . S
C2061 H2073 0.930 . S
C2062 C2058 1.524 . S
C2062 H2074 0.956 . S
C2062 H2075 0.961 . S
C2062 H2076 0.961 . S
C2063 C2060 1.539 . S
C2063 H2077 0.958 . S
C2063 H2078 0.961 . S
C2063 H2079 0.960 . S
H2064 C2048 0.931 . S
H2065 C2053 0.929 . S
H2066 C2054 0.960 . S
H2067 C2054 0.962 . S
H2068 C2054 0.960 . S
H2069 C2055 0.961 . S
H2070 C2055 0.961 . S
H2071 C2055 0.961 . S
H2072 C2056 0.931 . S
H2073 C2061 0.930 . S
H2074 C2062 0.956 . S
H2075 C2062 0.961 . S
H2076 C2062 0.961 . S
H2077 C2063 0.958 . S
H2078 C2063 0.961 . S
H2079 C2063 0.960 . S
C2080 C2081 1.391 . S
C2080 C2082 1.394 . S
C2080 H2096 0.931 . S
C2081 C2080 1.391 . S
C2081 C2085 1.376 . S
C2082 C2080 1.394 . S
C2082 C2083 1.369 . S
C2082 C2086 1.531 . S
C2083 C2082 1.369 . S
C2083 C2084 1.410 . S
C2083 C2091 1.503 . S
C2084 C2083 1.410 . S
C2084 C2085 1.392 . S
C2084 C2087 1.511 . S
C2085 C2081 1.376 . S
C2085 C2084 1.392 . S
C2085 H2097 0.929 . S
C2086 C2082 1.531 . S
C2086 H2098 0.960 . S
C2086 H2099 0.962 . S
C2086 H2100 0.960 . S
C2087 C2084 1.511 . S
C2087 H2101 0.961 . S
C2087 H2102 0.961 . S
C2087 H2103 0.961 . S
C2088 C2089 1.370 . S
C2088 C2090 1.363 . S
C2088 H2104 0.931 . S
C2089 C2088 1.370 . S
C2089 C2093 1.408 . S
C2090 C2088 1.363 . S
C2090 C2091 1.370 . S
C2090 C2094 1.524 . S
C2091 C2083 1.503 . S
C2091 C2090 1.370 . S
C2091 C2092 1.403 . S
C2092 C2091 1.403 . S
C2092 C2093 1.404 . S
C2092 C2095 1.539 . S
C2093 C2089 1.408 . S
C2093 C2092 1.404 . S
C2093 H2105 0.930 . S
C2094 C2090 1.524 . S
C2094 H2106 0.956 . S
C2094 H2107 0.961 . S
C2094 H2108 0.961 . S
C2095 C2092 1.539 . S
C2095 H2109 0.958 . S
C2095 H2110 0.961 . S
C2095 H2111 0.960 . S
H2096 C2080 0.931 . S
H2097 C2085 0.929 . S
H2098 C2086 0.960 . S
H2099 C2086 0.962 . S
H2100 C2086 0.960 . S
H2101 C2087 0.961 . S
H2102 C2087 0.961 . S
H2103 C2087 0.961 . S
H2104 C2088 0.931 . S
H2105 C2093 0.930 . S
H2106 C2094 0.956 . S
H2107 C2094 0.961 . S
H2108 C2094 0.961 . S
H2109 C2095 0.958 . S
H2110 C2095 0.961 . S
H2111 C2095 0.960 . S
C2112 C2113 1.391 . S
C2112 C2114 1.394 . S
C2112 H2128 0.931 . S
C2113 C2112 1.391 . S
C2113 C2117 1.376 . S
C2114 C2112 1.394 . S
C2114 C2115 1.369 . S
C2114 C2118 1.531 . S
C2115 C2114 1.369 . S
C2115 C2116 1.410 . S
C2115 C2123 1.503 . S
C2116 C2115 1.410 . S
C2116 C2117 1.392 . S
C2116 C2119 1.511 . S
C2117 C2113 1.376 . S
C2117 C2116 1.392 . S
C2117 H2129 0.929 . S
C2118 C2114 1.531 . S
C2118 H2130 0.960 . S
C2118 H2131 0.962 . S
C2118 H2132 0.960 . S
C2119 C2116 1.511 . S
C2119 H2133 0.961 . S
C2119 H2134 0.961 . S
C2119 H2135 0.961 . S
C2120 C2121 1.370 . S
C2120 C2122 1.363 . S
C2120 H2136 0.931 . S
C2121 C2120 1.370 . S
C2121 C2125 1.408 . S
C2122 C2120 1.363 . S
C2122 C2123 1.370 . S
C2122 C2126 1.524 . S
C2123 C2115 1.503 . S
C2123 C2122 1.370 . S
C2123 C2124 1.403 . S
C2124 C2123 1.403 . S
C2124 C2125 1.404 . S
C2124 C2127 1.539 . S
C2125 C2121 1.408 . S
C2125 C2124 1.404 . S
C2125 H2137 0.930 . S
C2126 C2122 1.524 . S
C2126 H2138 0.956 . S
C2126 H2139 0.961 . S
C2126 H2140 0.961 . S
C2127 C2124 1.539 . S
C2127 H2141 0.958 . S
C2127 H2142 0.961 . S
C2127 H2143 0.960 . S
H2128 C2112 0.931 . S
H2129 C2117 0.929 . S
H2130 C2118 0.960 . S
H2131 C2118 0.962 . S
H2132 C2118 0.960 . S
H2133 C2119 0.961 . S
H2134 C2119 0.961 . S
H2135 C2119 0.961 . S
H2136 C2120 0.931 . S
H2137 C2125 0.930 . S
H2138 C2126 0.956 . S
H2139 C2126 0.961 . S
H2140 C2126 0.961 . S
H2141 C2127 0.958 . S
H2142 C2127 0.961 . S
H2143 C2127 0.960 . S
C2144 C2145 1.391 . S
C2144 C2146 1.394 . S
C2144 H2160 0.931 . S
C2145 C2144 1.391 . S
C2145 C2149 1.376 . S
C2146 C2144 1.394 . S
C2146 C2147 1.369 . S
C2146 C2150 1.531 . S
C2147 C2146 1.369 . S
C2147 C2148 1.410 . S
C2147 C2155 1.503 . S
C2148 C2147 1.410 . S
C2148 C2149 1.392 . S
C2148 C2151 1.511 . S
C2149 C2145 1.376 . S
C2149 C2148 1.392 . S
C2149 H2161 0.929 . S
C2150 C2146 1.531 . S
C2150 H2162 0.960 . S
C2150 H2163 0.962 . S
C2150 H2164 0.960 . S
C2151 C2148 1.511 . S
C2151 H2165 0.961 . S
C2151 H2166 0.961 . S
C2151 H2167 0.961 . S
C2152 C2153 1.370 . S
C2152 C2154 1.363 . S
C2152 H2168 0.931 . S
C2153 C2152 1.370 . S
C2153 C2157 1.408 . S
C2154 C2152 1.363 . S
C2154 C2155 1.370 . S
C2154 C2158 1.524 . S
C2155 C2147 1.503 . S
C2155 C2154 1.370 . S
C2155 C2156 1.403 . S
C2156 C2155 1.403 . S
C2156 C2157 1.404 . S
C2156 C2159 1.539 . S
C2157 C2153 1.408 . S
C2157 C2156 1.404 . S
C2157 H2169 0.930 . S
C2158 C2154 1.524 . S
C2158 H2170 0.956 . S
C2158 H2171 0.961 . S
C2158 H2172 0.961 . S
C2159 C2156 1.539 . S
C2159 H2173 0.958 . S
C2159 H2174 0.961 . S
C2159 H2175 0.960 . S
H2160 C2144 0.931 . S
H2161 C2149 0.929 . S
H2162 C2150 0.960 . S
H2163 C2150 0.962 . S
H2164 C2150 0.960 . S
H2165 C2151 0.961 . S
H2166 C2151 0.961 . S
H2167 C2151 0.961 . S
H2168 C2152 0.931 . S
H2169 C2157 0.930 . S
H2170 C2158 0.956 . S
H2171 C2158 0.961 . S
H2172 C2158 0.961 . S
H2173 C2159 0.958 . S
H2174 C2159 0.961 . S
H2175 C2159 0.960 . S
C2176 C2177 1.391 . S
C2176 C2178 1.394 . S
C2176 H2192 0.931 . S
C2177 C2176 1.391 . S
C2177 C2181 1.376 . S
C2178 C2176 1.394 . S
C2178 C2179 1.369 . S
C2178 C2182 1.531 . S
C2179 C2178 1.369 . S
C2179 C2180 1.410 . S
C2179 C2187 1.503 . S
C2180 C2179 1.410 . S
C2180 C2181 1.392 . S
C2180 C2183 1.511 . S
C2181 C2177 1.376 . S
C2181 C2180 1.392 . S
C2181 H2193 0.929 . S
C2182 C2178 1.531 . S
C2182 H2194 0.960 . S
C2182 H2195 0.962 . S
C2182 H2196 0.960 . S
C2183 C2180 1.511 . S
C2183 H2197 0.961 . S
C2183 H2198 0.961 . S
C2183 H2199 0.961 . S
C2184 C2185 1.370 . S
C2184 C2186 1.363 . S
C2184 H2200 0.931 . S
C2185 C2184 1.370 . S
C2185 C2189 1.408 . S
C2186 C2184 1.363 . S
C2186 C2187 1.370 . S
C2186 C2190 1.524 . S
C2187 C2179 1.503 . S
C2187 C2186 1.370 . S
C2187 C2188 1.403 . S
C2188 C2187 1.403 . S
C2188 C2189 1.404 . S
C2188 C2191 1.539 . S
C2189 C2185 1.408 . S
C2189 C2188 1.404 . S
C2189 H2201 0.930 . S
C2190 C2186 1.524 . S
C2190 H2202 0.956 . S
C2190 H2203 0.961 . S
C2190 H2204 0.961 . S
C2191 C2188 1.539 . S
C2191 H2205 0.958 . S
C2191 H2206 0.961 . S
C2191 H2207 0.960 . S
H2192 C2176 0.931 . S
H2193 C2181 0.929 . S
H2194 C2182 0.960 . S
H2195 C2182 0.962 . S
H2196 C2182 0.960 . S
H2197 C2183 0.961 . S
H2198 C2183 0.961 . S
H2199 C2183 0.961 . S
H2200 C2184 0.931 . S
H2201 C2189 0.930 . S
H2202 C2190 0.956 . S
H2203 C2190 0.961 . S
H2204 C2190 0.961 . S
H2205 C2191 0.958 . S
H2206 C2191 0.961 . S
H2207 C2191 0.960 . S
C2208 C2209 1.391 . S
C2208 C2210 1.394 . S
C2208 H2224 0.931 . S
C2209 C2208 1.391 . S
C2209 C2213 1.376 . S
C2210 C2208 1.394 . S
C2210 C2211 1.369 . S
C2210 C2214 1.531 . S
C2211 C2210 1.369 . S
C2211 C2212 1.410 . S
C2211 C2219 1.503 . S
C2212 C2211 1.410 . S
C2212 C2213 1.392 . S
C2212 C2215 1.511 . S
C2213 C2209 1.376 . S
C2213 C2212 1.392 . S
C2213 H2225 0.929 . S
C2214 C2210 1.531 . S
C2214 H2226 0.960 . S
C2214 H2227 0.962 . S
C2214 H2228 0.960 . S
C2215 C2212 1.511 . S
C2215 H2229 0.961 . S
C2215 H2230 0.961 . S
C2215 H2231 0.961 . S
C2216 C2217 1.370 . S
C2216 C2218 1.363 . S
C2216 H2232 0.931 . S
C2217 C2216 1.370 . S
C2217 C2221 1.408 . S
C2218 C2216 1.363 . S
C2218 C2219 1.370 . S
C2218 C2222 1.524 . S
C2219 C2211 1.503 . S
C2219 C2218 1.370 . S
C2219 C2220 1.403 . S
C2220 C2219 1.403 . S
C2220 C2221 1.404 . S
C2220 C2223 1.539 . S
C2221 C2217 1.408 . S
C2221 C2220 1.404 . S
C2221 H2233 0.930 . S
C2222 C2218 1.524 . S
C2222 H2234 0.956 . S
C2222 H2235 0.961 . S
C2222 H2236 0.961 . S
C2223 C2220 1.539 . S
C2223 H2237 0.958 . S
C2223 H2238 0.961 . S
C2223 H2239 0.960 . S
H2224 C2208 0.931 . S
H2225 C2213 0.929 . S
H2226 C2214 0.960 . S
H2227 C2214 0.962 . S
H2228 C2214 0.960 . S
H2229 C2215 0.961 . S
H2230 C2215 0.961 . S
H2231 C2215 0.961 . S
H2232 C2216 0.931 . S
H2233 C2221 0.930 . S
H2234 C2222 0.956 . S
H2235 C2222 0.961 . S
H2236 C2222 0.961 . S
H2237 C2223 0.958 . S
H2238 C2223 0.961 . S
H2239 C2223 0.960 . S
C2240 C2241 1.391 . S
C2240 C2242 1.394 . S
C2240 H2256 0.931 . S
C2241 C2240 1.391 . S
C2241 C2245 1.376 . S
C2242 C2240 1.394 . S
C2242 C2243 1.369 . S
C2242 C2246 1.531 . S
C2243 C2242 1.369 . S
C2243 C2244 1.410 . S
C2243 C2251 1.503 . S
C2244 C2243 1.410 . S
C2244 C2245 1.392 . S
C2244 C2247 1.511 . S
C2245 C2241 1.376 . S
C2245 C2244 1.392 . S
C2245 H2257 0.929 . S
C2246 C2242 1.531 . S
C2246 H2258 0.960 . S
C2246 H2259 0.962 . S
C2246 H2260 0.960 . S
C2247 C2244 1.511 . S
C2247 H2261 0.961 . S
C2247 H2262 0.961 . S
C2247 H2263 0.961 . S
C2248 C2249 1.370 . S
C2248 C2250 1.363 . S
C2248 H2264 0.931 . S
C2249 C2248 1.370 . S
C2249 C2253 1.408 . S
C2250 C2248 1.363 . S
C2250 C2251 1.370 . S
C2250 C2254 1.524 . S
C2251 C2243 1.503 . S
C2251 C2250 1.370 . S
C2251 C2252 1.403 . S
C2252 C2251 1.403 . S
C2252 C2253 1.404 . S
C2252 C2255 1.539 . S
C2253 C2249 1.408 . S
C2253 C2252 1.404 . S
C2253 H2265 0.930 . S
C2254 C2250 1.524 . S
C2254 H2266 0.956 . S
C2254 H2267 0.961 . S
C2254 H2268 0.961 . S
C2255 C2252 1.539 . S
C2255 H2269 0.958 . S
C2255 H2270 0.961 . S
C2255 H2271 0.960 . S
H2256 C2240 0.931 . S
H2257 C2245 0.929 . S
H2258 C2246 0.960 . S
H2259 C2246 0.962 . S
H2260 C2246 0.960 . S
H2261 C2247 0.961 . S
H2262 C2247 0.961 . S
H2263 C2247 0.961 . S
H2264 C2248 0.931 . S
H2265 C2253 0.930 . S
H2266 C2254 0.956 . S
H2267 C2254 0.961 . S
H2268 C2254 0.961 . S
H2269 C2255 0.958 . S
H2270 C2255 0.961 . S
H2271 C2255 0.960 . S
C2272 C2273 1.391 . S
C2272 C2274 1.394 . S
C2272 H2288 0.931 . S
C2273 C2272 1.391 . S
C2273 C2277 1.376 . S
C2274 C2272 1.394 . S
C2274 C2275 1.369 . S
C2274 C2278 1.531 . S
C2275 C2274 1.369 . S
C2275 C2276 1.410 . S
C2275 C2283 1.503 . S
C2276 C2275 1.410 . S
C2276 C2277 1.392 . S
C2276 C2279 1.511 . S
C2277 C2273 1.376 . S
C2277 C2276 1.392 . S
C2277 H2289 0.929 . S
C2278 C2274 1.531 . S
C2278 H2290 0.960 . S
C2278 H2291 0.962 . S
C2278 H2292 0.960 . S
C2279 C2276 1.511 . S
C2279 H2293 0.961 . S
C2279 H2294 0.961 . S
C2279 H2295 0.961 . S
C2280 C2281 1.370 . S
C2280 C2282 1.363 . S
C2280 H2296 0.931 . S
C2281 C2280 1.370 . S
C2281 C2285 1.408 . S
C2282 C2280 1.363 . S
C2282 C2283 1.370 . S
C2282 C2286 1.524 . S
C2283 C2275 1.503 . S
C2283 C2282 1.370 . S
C2283 C2284 1.403 . S
C2284 C2283 1.403 . S
C2284 C2285 1.404 . S
C2284 C2287 1.539 . S
C2285 C2281 1.408 . S
C2285 C2284 1.404 . S
C2285 H2297 0.930 . S
C2286 C2282 1.524 . S
C2286 H2298 0.956 . S
C2286 H2299 0.961 . S
C2286 H2300 0.961 . S
C2287 C2284 1.539 . S
C2287 H2301 0.958 . S
C2287 H2302 0.961 . S
C2287 H2303 0.960 . S
H2288 C2272 0.931 . S
H2289 C2277 0.929 . S
H2290 C2278 0.960 . S
H2291 C2278 0.962 . S
H2292 C2278 0.960 . S
H2293 C2279 0.961 . S
H2294 C2279 0.961 . S
H2295 C2279 0.961 . S
H2296 C2280 0.931 . S
H2297 C2285 0.930 . S
H2298 C2286 0.956 . S
H2299 C2286 0.961 . S
H2300 C2286 0.961 . S
H2301 C2287 0.958 . S
H2302 C2287 0.961 . S
H2303 C2287 0.960 . S
C2304 C2305 1.391 . S
C2304 C2306 1.394 . S
C2304 H2320 0.931 . S
C2305 C2304 1.391 . S
C2305 C2309 1.376 . S
C2306 C2304 1.394 . S
C2306 C2307 1.369 . S
C2306 C2310 1.531 . S
C2307 C2306 1.369 . S
C2307 C2308 1.410 . S
C2307 C2315 1.503 . S
C2308 C2307 1.410 . S
C2308 C2309 1.392 . S
C2308 C2311 1.511 . S
C2309 C2305 1.376 . S
C2309 C2308 1.392 . S
C2309 H2321 0.929 . S
C2310 C2306 1.531 . S
C2310 H2322 0.960 . S
C2310 H2323 0.962 . S
C2310 H2324 0.960 . S
C2311 C2308 1.511 . S
C2311 H2325 0.961 . S
C2311 H2326 0.961 . S
C2311 H2327 0.961 . S
C2312 C2313 1.370 . S
C2312 C2314 1.363 . S
C2312 H2328 0.931 . S
C2313 C2312 1.370 . S
C2313 C2317 1.408 . S
C2314 C2312 1.363 . S
C2314 C2315 1.370 . S
C2314 C2318 1.524 . S
C2315 C2307 1.503 . S
C2315 C2314 1.370 . S
C2315 C2316 1.403 . S
C2316 C2315 1.403 . S
C2316 C2317 1.404 . S
C2316 C2319 1.539 . S
C2317 C2313 1.408 . S
C2317 C2316 1.404 . S
C2317 H2329 0.930 . S
C2318 C2314 1.524 . S
C2318 H2330 0.956 . S
C2318 H2331 0.961 . S
C2318 H2332 0.961 . S
C2319 C2316 1.539 . S
C2319 H2333 0.958 . S
C2319 H2334 0.961 . S
C2319 H2335 0.960 . S
H2320 C2304 0.931 . S
H2321 C2309 0.929 . S
H2322 C2310 0.960 . S
H2323 C2310 0.962 . S
H2324 C2310 0.960 . S
H2325 C2311 0.961 . S
H2326 C2311 0.961 . S
H2327 C2311 0.961 . S
H2328 C2312 0.931 . S
H2329 C2317 0.930 . S
H2330 C2318 0.956 . S
H2331 C2318 0.961 . S
H2332 C2318 0.961 . S
H2333 C2319 0.958 . S
H2334 C2319 0.961 . S
H2335 C2319 0.960 . S
C2336 C2337 1.391 . S
C2336 C2338 1.394 . S
C2336 H2352 0.931 . S
C2337 C2336 1.391 . S
C2337 C2341 1.376 . S
C2338 C2336 1.394 . S
C2338 C2339 1.369 . S
C2338 C2342 1.531 . S
C2339 C2338 1.369 . S
C2339 C2340 1.410 . S
C2339 C2347 1.503 . S
C2340 C2339 1.410 . S
C2340 C2341 1.392 . S
C2340 C2343 1.511 . S
C2341 C2337 1.376 . S
C2341 C2340 1.392 . S
C2341 H2353 0.929 . S
C2342 C2338 1.531 . S
C2342 H2354 0.960 . S
C2342 H2355 0.962 . S
C2342 H2356 0.960 . S
C2343 C2340 1.511 . S
C2343 H2357 0.961 . S
C2343 H2358 0.961 . S
C2343 H2359 0.961 . S
C2344 C2345 1.370 . S
C2344 C2346 1.363 . S
C2344 H2360 0.931 . S
C2345 C2344 1.370 . S
C2345 C2349 1.408 . S
C2346 C2344 1.363 . S
C2346 C2347 1.370 . S
C2346 C2350 1.524 . S
C2347 C2339 1.503 . S
C2347 C2346 1.370 . S
C2347 C2348 1.403 . S
C2348 C2347 1.403 . S
C2348 C2349 1.404 . S
C2348 C2351 1.539 . S
C2349 C2345 1.408 . S
C2349 C2348 1.404 . S
C2349 H2361 0.930 . S
C2350 C2346 1.524 . S
C2350 H2362 0.956 . S
C2350 H2363 0.961 . S
C2350 H2364 0.961 . S
C2351 C2348 1.539 . S
C2351 H2365 0.958 . S
C2351 H2366 0.961 . S
C2351 H2367 0.960 . S
H2352 C2336 0.931 . S
H2353 C2341 0.929 . S
H2354 C2342 0.960 . S
H2355 C2342 0.962 . S
H2356 C2342 0.960 . S
H2357 C2343 0.961 . S
H2358 C2343 0.961 . S
H2359 C2343 0.961 . S
H2360 C2344 0.931 . S
H2361 C2349 0.930 . S
H2362 C2350 0.956 . S
H2363 C2350 0.961 . S
H2364 C2350 0.961 . S
H2365 C2351 0.958 . S
H2366 C2351 0.961 . S
H2367 C2351 0.960 . S
C2368 C2369 1.391 . S
C2368 C2370 1.394 . S
C2368 H2384 0.931 . S
C2369 C2368 1.391 . S
C2369 C2373 1.376 . S
C2370 C2368 1.394 . S
C2370 C2371 1.369 . S
C2370 C2374 1.531 . S
C2371 C2370 1.369 . S
C2371 C2372 1.410 . S
C2371 C2379 1.503 . S
C2372 C2371 1.410 . S
C2372 C2373 1.392 . S
C2372 C2375 1.511 . S
C2373 C2369 1.376 . S
C2373 C2372 1.392 . S
C2373 H2385 0.929 . S
C2374 C2370 1.531 . S
C2374 H2386 0.960 . S
C2374 H2387 0.962 . S
C2374 H2388 0.960 . S
C2375 C2372 1.511 . S
C2375 H2389 0.961 . S
C2375 H2390 0.961 . S
C2375 H2391 0.961 . S
C2376 C2377 1.370 . S
C2376 C2378 1.363 . S
C2376 H2392 0.931 . S
C2377 C2376 1.370 . S
C2377 C2381 1.408 . S
C2378 C2376 1.363 . S
C2378 C2379 1.370 . S
C2378 C2382 1.524 . S
C2379 C2371 1.503 . S
C2379 C2378 1.370 . S
C2379 C2380 1.403 . S
C2380 C2379 1.403 . S
C2380 C2381 1.404 . S
C2380 C2383 1.539 . S
C2381 C2377 1.408 . S
C2381 C2380 1.404 . S
C2381 H2393 0.930 . S
C2382 C2378 1.524 . S
C2382 H2394 0.956 . S
C2382 H2395 0.961 . S
C2382 H2396 0.961 . S
C2383 C2380 1.539 . S
C2383 H2397 0.958 . S
C2383 H2398 0.961 . S
C2383 H2399 0.960 . S
H2384 C2368 0.931 . S
H2385 C2373 0.929 . S
H2386 C2374 0.960 . S
H2387 C2374 0.962 . S
H2388 C2374 0.960 . S
H2389 C2375 0.961 . S
H2390 C2375 0.961 . S
H2391 C2375 0.961 . S
H2392 C2376 0.931 . S
H2393 C2381 0.930 . S
H2394 C2382 0.956 . S
H2395 C2382 0.961 . S
H2396 C2382 0.961 . S
H2397 C2383 0.958 . S
H2398 C2383 0.961 . S
H2399 C2383 0.960 . S
C2400 C2401 1.391 . S
C2400 C2402 1.394 . S
C2400 H2416 0.931 . S
C2401 C2400 1.391 . S
C2401 C2405 1.376 . S
C2402 C2400 1.394 . S
C2402 C2403 1.369 . S
C2402 C2406 1.531 . S
C2403 C2402 1.369 . S
C2403 C2404 1.410 . S
C2403 C2411 1.503 . S
C2404 C2403 1.410 . S
C2404 C2405 1.392 . S
C2404 C2407 1.511 . S
C2405 C2401 1.376 . S
C2405 C2404 1.392 . S
C2405 H2417 0.929 . S
C2406 C2402 1.531 . S
C2406 H2418 0.960 . S
C2406 H2419 0.962 . S
C2406 H2420 0.960 . S
C2407 C2404 1.511 . S
C2407 H2421 0.961 . S
C2407 H2422 0.961 . S
C2407 H2423 0.961 . S
C2408 C2409 1.370 . S
C2408 C2410 1.363 . S
C2408 H2424 0.931 . S
C2409 C2408 1.370 . S
C2409 C2413 1.408 . S
C2410 C2408 1.363 . S
C2410 C2411 1.370 . S
C2410 C2414 1.524 . S
C2411 C2403 1.503 . S
C2411 C2410 1.370 . S
C2411 C2412 1.403 . S
C2412 C2411 1.403 . S
C2412 C2413 1.404 . S
C2412 C2415 1.539 . S
C2413 C2409 1.408 . S
C2413 C2412 1.404 . S
C2413 H2425 0.930 . S
C2414 C2410 1.524 . S
C2414 H2426 0.956 . S
C2414 H2427 0.961 . S
C2414 H2428 0.961 . S
C2415 C2412 1.539 . S
C2415 H2429 0.958 . S
C2415 H2430 0.961 . S
C2415 H2431 0.960 . S
H2416 C2400 0.931 . S
H2417 C2405 0.929 . S
H2418 C2406 0.960 . S
H2419 C2406 0.962 . S
H2420 C2406 0.960 . S
H2421 C2407 0.961 . S
H2422 C2407 0.961 . S
H2423 C2407 0.961 . S
H2424 C2408 0.931 . S
H2425 C2413 0.930 . S
H2426 C2414 0.956 . S
H2427 C2414 0.961 . S
H2428 C2414 0.961 . S
H2429 C2415 0.958 . S
H2430 C2415 0.961 . S
H2431 C2415 0.960 . S
C2432 C2433 1.391 . S
C2432 C2434 1.394 . S
C2432 H2448 0.931 . S
C2433 C2432 1.391 . S
C2433 C2437 1.376 . S
C2434 C2432 1.394 . S
C2434 C2435 1.369 . S
C2434 C2438 1.531 . S
C2435 C2434 1.369 . S
C2435 C2436 1.410 . S
C2435 C2443 1.503 . S
C2436 C2435 1.410 . S
C2436 C2437 1.392 . S
C2436 C2439 1.511 . S
C2437 C2433 1.376 . S
C2437 C2436 1.392 . S
C2437 H2449 0.929 . S
C2438 C2434 1.531 . S
C2438 H2450 0.960 . S
C2438 H2451 0.962 . S
C2438 H2452 0.960 . S
C2439 C2436 1.511 . S
C2439 H2453 0.961 . S
C2439 H2454 0.961 . S
C2439 H2455 0.961 . S
C2440 C2441 1.370 . S
C2440 C2442 1.363 . S
C2440 H2456 0.931 . S
C2441 C2440 1.370 . S
C2441 C2445 1.408 . S
C2442 C2440 1.363 . S
C2442 C2443 1.370 . S
C2442 C2446 1.524 . S
C2443 C2435 1.503 . S
C2443 C2442 1.370 . S
C2443 C2444 1.403 . S
C2444 C2443 1.403 . S
C2444 C2445 1.404 . S
C2444 C2447 1.539 . S
C2445 C2441 1.408 . S
C2445 C2444 1.404 . S
C2445 H2457 0.930 . S
C2446 C2442 1.524 . S
C2446 H2458 0.956 . S
C2446 H2459 0.961 . S
C2446 H2460 0.961 . S
C2447 C2444 1.539 . S
C2447 H2461 0.958 . S
C2447 H2462 0.961 . S
C2447 H2463 0.960 . S
H2448 C2432 0.931 . S
H2449 C2437 0.929 . S
H2450 C2438 0.960 . S
H2451 C2438 0.962 . S
H2452 C2438 0.960 . S
H2453 C2439 0.961 . S
H2454 C2439 0.961 . S
H2455 C2439 0.961 . S
H2456 C2440 0.931 . S
H2457 C2445 0.930 . S
H2458 C2446 0.956 . S
H2459 C2446 0.961 . S
H2460 C2446 0.961 . S
H2461 C2447 0.958 . S
H2462 C2447 0.961 . S
H2463 C2447 0.960 . S
C2464 C2465 1.391 . S
C2464 C2466 1.394 . S
C2464 H2480 0.931 . S
C2465 C2464 1.391 . S
C2465 C2469 1.376 . S
C2466 C2464 1.394 . S
C2466 C2467 1.369 . S
C2466 C2470 1.531 . S
C2467 C2466 1.369 . S
C2467 C2468 1.410 . S
C2467 C2475 1.503 . S
C2468 C2467 1.410 . S
C2468 C2469 1.392 . S
C2468 C2471 1.511 . S
C2469 C2465 1.376 . S
C2469 C2468 1.392 . S
C2469 H2481 0.929 . S
C2470 C2466 1.531 . S
C2470 H2482 0.960 . S
C2470 H2483 0.962 . S
C2470 H2484 0.960 . S
C2471 C2468 1.511 . S
C2471 H2485 0.961 . S
C2471 H2486 0.961 . S
C2471 H2487 0.961 . S
C2472 C2473 1.370 . S
C2472 C2474 1.363 . S
C2472 H2488 0.931 . S
C2473 C2472 1.370 . S
C2473 C2477 1.408 . S
C2474 C2472 1.363 . S
C2474 C2475 1.370 . S
C2474 C2478 1.524 . S
C2475 C2467 1.503 . S
C2475 C2474 1.370 . S
C2475 C2476 1.403 . S
C2476 C2475 1.403 . S
C2476 C2477 1.404 . S
C2476 C2479 1.539 . S
C2477 C2473 1.408 . S
C2477 C2476 1.404 . S
C2477 H2489 0.930 . S
C2478 C2474 1.524 . S
C2478 H2490 0.956 . S
C2478 H2491 0.961 . S
C2478 H2492 0.961 . S
C2479 C2476 1.539 . S
C2479 H2493 0.958 . S
C2479 H2494 0.961 . S
C2479 H2495 0.960 . S
H2480 C2464 0.931 . S
H2481 C2469 0.929 . S
H2482 C2470 0.960 . S
H2483 C2470 0.962 . S
H2484 C2470 0.960 . S
H2485 C2471 0.961 . S
H2486 C2471 0.961 . S
H2487 C2471 0.961 . S
H2488 C2472 0.931 . S
H2489 C2477 0.930 . S
H2490 C2478 0.956 . S
H2491 C2478 0.961 . S
H2492 C2478 0.961 . S
H2493 C2479 0.958 . S
H2494 C2479 0.961 . S
H2495 C2479 0.960 . S
C449 C218 1.522 . S
C457 C8 1.520 . S
C481 C22 1.492 . S
C489 C176 1.507 . S
C513 C36 1.498 . S
C521 C190 1.507 . S
C545 C204 1.519 . S
C553 C50 1.516 . S
C577 C64 1.528 . S
C585 C134 1.520 . S
C609 C78 1.496 . S
C617 C148 1.507 . S
C641 C162 1.488 . S
C649 C92 1.505 . S
C673 C120 1.518 . S
C681 C106 1.516 . S
C705 C232 1.520 . S
C713 C442 1.519 . S
C737 C246 1.494 . S
C745 C400 1.508 . S
C769 C260 1.494 . S
C777 C414 1.506 . S
C801 C428 1.508 . S
C809 C274 1.511 . S
C833 C288 1.528 . S
C841 C358 1.521 . S
C865 C302 1.530 . S
C873 C372 1.522 . S
C897 C386 1.508 . S
C905 C316 1.511 . S
C929 C330 1.515 . S
C937 C344 1.517 . S
C961 C175 1.475 . S
C969 C7 1.469 . S
C993 C21 1.435 . S
C1001 C189 1.452 . S
C1025 C203 1.441 . S
C1033 C35 1.455 . S
C1057 C49 1.469 . S
C1065 C217 1.466 . S
C1089 C63 1.442 . S
C1097 C119 1.455 . S
C1121 C133 1.432 . S
C1129 C77 1.449 . S
C1153 C147 1.480 . S
C1161 C91 1.470 . S
C1185 C161 1.468 . S
C1193 C105 1.466 . S
C1217 C231 1.464 . S
C1225 C399 1.462 . S
C1249 C413 1.475 . S
C1257 C245 1.468 . S
C1281 C259 1.478 . S
C1289 C427 1.468 . S
C1313 C273 1.455 . S
C1321 C441 1.461 . S
C1345 C343 1.441 . S
C1353 C287 1.452 . S
C1377 C301 1.469 . S
C1385 C357 1.466 . S
C1409 C315 1.464 . S
C1417 C371 1.461 . S
C1441 C329 1.436 . S
C1449 C385 1.450 . S
C1473 C9 1.379 . S
C1481 C149 1.384 . S
C1505 C163 1.388 . S
C1513 C23 1.384 . S
C1537 C37 1.402 . S
C1545 C121 1.392 . S
C1569 C135 1.376 . S
C1577 C51 1.383 . S
C1601 C205 1.367 . S
C1609 C65 1.375 . S
C1633 C219 1.374 . S
C1641 C79 1.382 . S
C1665 C177 1.363 . S
C1673 C93 1.374 . S
C1697 C107 1.405 . S
C1705 C191 1.393 . S
C1729 C373 1.399 . S
C1737 C233 1.392 . S
C1761 C247 1.405 . S
C1769 C387 1.393 . S
C1793 C345 1.404 . S
C1801 C261 1.392 . S
C1825 C359 1.385 . S
C1833 C275 1.386 . S
C1857 C289 1.367 . S
C1865 C429 1.379 . S
C1889 C303 1.367 . S
C1897 C443 1.379 . S
C1921 C401 1.378 . S
C1929 C317 1.384 . S
C1953 C415 1.404 . S
C1961 C331 1.393 . S
C1985 C328 1.369 . S
C1993 C6 1.394 . S
C2017 C286 1.410 . S
C2025 C20 1.388 . S
C2049 C300 1.370 . S
C2057 C34 1.399 . S
C2081 C314 1.401 . S
C2089 C48 1.384 . S
C2113 C244 1.372 . S
C2121 C62 1.400 . S
C2145 C76 1.382 . S
C2153 C258 1.401 . S
C2177 C90 1.404 . S
C2185 C272 1.395 . S
C2209 C104 1.406 . S
C2217 C230 1.394 . S
C2241 C118 1.379 . S
C2249 C440 1.401 . S
C2273 C398 1.407 . S
C2281 C132 1.391 . S
C2305 C146 1.396 . S
C2313 C412 1.397 . S
C2337 C160 1.409 . S
C2345 C426 1.385 . S
C2369 C356 1.375 . S
C2377 C174 1.392 . S
C2401 C370 1.387 . S
C2409 C188 1.387 . S
C2433 C202 1.401 . S
C2441 C384 1.394 . S
C2465 C216 1.368 . S
C2473 C342 1.397 . S
