# Generated by pormake.
# Topology nfc, (4)-cn, num edge types: 1
# Building blocks:
#     Node 0, Type 0, BuildingBlock: NAWXER_clean_sbu_0, # of connection points: 4
#     Node 1, Type 0, BuildingBlock: NAWXER_clean_sbu_0, # of connection points: 4
#     Node 2, Type 0, BuildingBlock: NAWXER_clean_sbu_0, # of connection points: 4
#     Node 3, Type 0, BuildingBlock: NAWXER_clean_sbu_0, # of connection points: 4
#     Node 4, Type 0, BuildingBlock: NAWXER_clean_sbu_0, # of connection points: 4
#     Node 5, Type 0, BuildingBlock: NAWXER_clean_sbu_0, # of connection points: 4
#     Node 6, Type 0, BuildingBlock: NAWXER_clean_sbu_0, # of connection points: 4
#     Node 7, Type 0, BuildingBlock: NAWXER_clean_sbu_0, # of connection points: 4
#     Node 8, Type 0, BuildingBlock: NAWXER_clean_sbu_0, # of connection points: 4
#     Node 9, Type 0, BuildingBlock: NAWXER_clean_sbu_0, # of connection points: 4
#     Node 10, Type 0, BuildingBlock: NAWXER_clean_sbu_0, # of connection points: 4
#     Node 11, Type 0, BuildingBlock: NAWXER_clean_sbu_0, # of connection points: 4
#     Node 12, Type 0, BuildingBlock: NAWXER_clean_sbu_0, # of connection points: 4
#     Node 13, Type 0, BuildingBlock: NAWXER_clean_sbu_0, # of connection points: 4
#     Node 14, Type 0, BuildingBlock: NAWXER_clean_sbu_0, # of connection points: 4
#     Node 15, Type 0, BuildingBlock: NAWXER_clean_sbu_0, # of connection points: 4
#     Edge 16, Type (0, 0), BuildingBlock: MIFKUJ_clean_linker_0, # of connection points: 2
#     Edge 17, Type (0, 0), BuildingBlock: MIFKUJ_clean_linker_0, # of connection points: 2
#     Edge 18, Type (0, 0), BuildingBlock: MIFKUJ_clean_linker_0, # of connection points: 2
#     Edge 19, Type (0, 0), BuildingBlock: MIFKUJ_clean_linker_0, # of connection points: 2
#     Edge 20, Type (0, 0), BuildingBlock: MIFKUJ_clean_linker_0, # of connection points: 2
#     Edge 21, Type (0, 0), BuildingBlock: MIFKUJ_clean_linker_0, # of connection points: 2
#     Edge 22, Type (0, 0), BuildingBlock: MIFKUJ_clean_linker_0, # of connection points: 2
#     Edge 23, Type (0, 0), BuildingBlock: MIFKUJ_clean_linker_0, # of connection points: 2
#     Edge 24, Type (0, 0), BuildingBlock: MIFKUJ_clean_linker_0, # of connection points: 2
#     Edge 25, Type (0, 0), BuildingBlock: MIFKUJ_clean_linker_0, # of connection points: 2
#     Edge 26, Type (0, 0), BuildingBlock: MIFKUJ_clean_linker_0, # of connection points: 2
#     Edge 27, Type (0, 0), BuildingBlock: MIFKUJ_clean_linker_0, # of connection points: 2
#     Edge 28, Type (0, 0), BuildingBlock: MIFKUJ_clean_linker_0, # of connection points: 2
#     Edge 29, Type (0, 0), BuildingBlock: MIFKUJ_clean_linker_0, # of connection points: 2
#     Edge 30, Type (0, 0), BuildingBlock: MIFKUJ_clean_linker_0, # of connection points: 2
#     Edge 31, Type (0, 0), BuildingBlock: MIFKUJ_clean_linker_0, # of connection points: 2
#     Edge 32, Type (0, 0), BuildingBlock: MIFKUJ_clean_linker_0, # of connection points: 2
#     Edge 33, Type (0, 0), BuildingBlock: MIFKUJ_clean_linker_0, # of connection points: 2
#     Edge 34, Type (0, 0), BuildingBlock: MIFKUJ_clean_linker_0, # of connection points: 2
#     Edge 35, Type (0, 0), BuildingBlock: MIFKUJ_clean_linker_0, # of connection points: 2
#     Edge 36, Type (0, 0), BuildingBlock: MIFKUJ_clean_linker_0, # of connection points: 2
#     Edge 37, Type (0, 0), BuildingBlock: MIFKUJ_clean_linker_0, # of connection points: 2
#     Edge 38, Type (0, 0), BuildingBlock: MIFKUJ_clean_linker_0, # of connection points: 2
#     Edge 39, Type (0, 0), BuildingBlock: MIFKUJ_clean_linker_0, # of connection points: 2
#     Edge 40, Type (0, 0), BuildingBlock: MIFKUJ_clean_linker_0, # of connection points: 2
#     Edge 41, Type (0, 0), BuildingBlock: MIFKUJ_clean_linker_0, # of connection points: 2
#     Edge 42, Type (0, 0), BuildingBlock: MIFKUJ_clean_linker_0, # of connection points: 2
#     Edge 43, Type (0, 0), BuildingBlock: MIFKUJ_clean_linker_0, # of connection points: 2
#     Edge 44, Type (0, 0), BuildingBlock: MIFKUJ_clean_linker_0, # of connection points: 2
#     Edge 45, Type (0, 0), BuildingBlock: MIFKUJ_clean_linker_0, # of connection points: 2
#     Edge 46, Type (0, 0), BuildingBlock: MIFKUJ_clean_linker_0, # of connection points: 2
#     Edge 47, Type (0, 0), BuildingBlock: MIFKUJ_clean_linker_0, # of connection points: 2
# Relax obj value: 0.157
# Max RMSD: 0.167
# Mean RMSD: 0.167
data_MOF--net-nfc--node1-NAWXER_clean_sbu_0--edge1-MIFKUJ_clean_linker_0
_symmetry_space_group_name_H-M    P1
_symmetry_Int_Tables_number       1
_symmetry_cell_setting            triclinic
loop_
_symmetry_equiv_pos_as_xyz
'x, y, z'
_cell_length_a     48.273757
_cell_length_b     48.352763
_cell_length_c     35.645646
_cell_angle_alpha  89.998405
_cell_angle_beta   90.052073
_cell_angle_gamma 89.955852
loop_
_atom_site_label
_atom_site_type_symbol
_atom_site_fract_x
_atom_site_fract_y
_atom_site_fract_z
_atom_type_partial_charge
C0 C 0.02448 0.05024 0.02276 0.0
C1 C 0.96045 0.98072 0.97215 0.0
O2 O 1.00106 0.06079 0.01338 0.0
Zn3 Zn 0.96269 0.04652 0.98905 0.0
O4 O 0.02868 0.02463 0.01717 0.0
Zn5 Zn 0.99281 0.01513 -0.00326 0.0
O6 O 0.99213 0.03352 0.94229 0.0
O7 O 0.95957 0.06561 0.94187 0.0
O8 O 0.98508 0.97688 0.98381 0.0
O9 O 0.95008 1.00517 0.97305 0.0
O10 O 0.93601 0.05518 0.02728 0.0
O11 O 0.96501 0.02172 0.04285 0.0
C12 C 0.97824 0.05206 0.92475 0.0
C13 C 0.94433 0.03733 0.05089 0.0
C14 C 0.22453 0.8183 0.25436 0.0
C15 C 0.2962 0.75848 0.19883 0.0
O16 O 0.22072 0.79478 0.2391 0.0
Zn17 Zn 0.25941 0.78751 0.22682 0.0
O18 O 0.2491 0.82831 0.25607 0.0
Zn19 Zn 0.29079 0.81702 0.24114 0.0
O20 O 0.30107 0.846 0.20631 0.0
O21 O 0.26761 0.81858 0.18594 0.0
O22 O 0.30591 0.78085 0.21298 0.0
O23 O 0.27035 0.75369 0.2011 0.0
O24 O 0.27623 0.78329 0.28164 0.0
O25 O 0.30777 0.81576 0.2902 0.0
C26 C 0.2836 0.83943 0.18113 0.0
C27 C 0.29393 0.79541 0.30276 0.0
C28 C 0.51907 0.02386 0.56022 0.0
C29 C 0.46851 0.01097 0.44452 0.0
O30 O 0.49896 0.03799 0.54751 0.0
Zn31 Zn 0.49437 0.01773 0.50196 0.0
O32 O 0.52895 1.00383 0.54077 0.0
Zn33 Zn 0.52068 0.98426 0.48771 0.0
O34 O 0.55449 0.99109 0.45946 0.0
O35 O 0.53044 0.02899 0.47033 0.0
O36 O 0.48838 0.99345 0.44775 0.0
O37 O 0.46456 0.02884 0.47002 0.0
O38 O 0.48147 0.97793 0.52257 0.0
O39 O 0.51186 0.94682 0.50377 0.0
C40 C 0.55166 0.0171 0.45589 0.0
C41 C 0.48991 0.95277 0.52177 0.0
C42 C 0.33831 0.25048 0.76337 0.0
C43 C 0.27086 0.31409 0.70604 0.0
O44 O 0.34324 0.27446 0.75024 0.0
Zn45 Zn 0.30527 0.28271 0.73449 0.0
O46 O 0.31363 0.24081 0.7616 0.0
Zn47 Zn 0.27336 0.25312 0.74207 0.0
O48 O 0.26597 0.22517 0.70556 0.0
O49 O 0.29919 0.25416 0.68879 0.0
O50 O 0.26013 0.29089 0.71571 0.0
O51 O 0.29644 0.31835 0.71226 0.0
O52 O 0.28484 0.28374 0.78805 0.0
O53 O 0.25227 0.25173 0.78738 0.0
C54 C 0.28384 0.2331 0.68182 0.0
C55 C 0.2653 0.27062 0.80471 0.0
C56 C 0.96308 0.05073 0.51294 0.0
C57 C 0.02105 0.97906 0.45496 0.0
O58 O 0.95022 0.02778 0.50804 0.0
Zn59 Zn 0.9588 0.98694 0.48574 0.0
O60 O 0.98815 0.05278 0.50234 0.0
Zn61 Zn 0.99208 0.01515 0.48388 0.0
O62 O 0.96529 0.01518 0.43556 0.0
O63 O 0.93246 0.98431 0.44569 0.0
O64 O 0.02742 1.00367 0.46393 0.0
O65 O 0.99642 0.97032 0.4616 0.0
O66 O 0.95203 0.96434 0.52896 0.0
O67 O 0.988 0.99219 0.53518 0.0
C68 C 0.94327 1.00259 0.42478 0.0
C69 C 0.97165 0.97388 0.54884 0.0
C70 C 0.25354 0.79427 0.80623 0.0
C71 C 0.2243 0.76692 0.68181 0.0
O72 O 0.23559 0.80565 0.78526 0.0
Zn73 Zn 0.23748 0.7794 0.74519 0.0
O74 O 0.2657 0.77199 0.79562 0.0
Zn75 Zn 0.26567 0.74584 0.74662 0.0
O76 O 0.30354 0.75025 0.72791 0.0
O77 O 0.27804 0.78791 0.72314 0.0
O78 O 0.24265 0.75047 0.69531 0.0
O79 O 0.21481 0.78638 0.70198 0.0
O80 O 0.2207 0.7419 0.76869 0.0
O81 O 0.25359 0.71035 0.76588 0.0
C82 C 0.30115 0.77541 0.7179 0.0
C83 C 0.22901 0.71708 0.77484 0.0
C84 C 0.56642 1.00472 0.05431 0.0
C85 C 0.50668 0.07127 0.98846 0.0
O86 O 0.57044 0.03045 0.0496 0.0
Zn87 Zn 0.53637 0.03877 0.0224 0.0
O88 O 0.54418 0.99376 0.04147 0.0
Zn89 Zn 0.50788 1.00652 0.01152 0.0
O90 O 0.50962 0.98504 0.96656 0.0
O91 O 0.54156 0.01762 0.96981 0.0
O92 O 0.49652 0.04675 0.98965 0.0
O93 O 0.52974 0.07613 0.00449 0.0
O94 O 0.50412 0.0336 0.06361 0.0
O95 O 0.47861 0.99799 0.04569 0.0
C96 C 0.52985 0.99782 0.95186 0.0
C97 C 0.48359 0.01721 0.06894 0.0
C98 C 0.29495 0.26579 0.29608 0.0
C99 C 0.22804 0.20572 0.23145 0.0
O100 O 0.26906 0.26968 0.29204 0.0
Zn101 Zn 0.26069 0.23594 0.26475 0.0
O102 O 0.30602 0.24383 0.28252 0.0
Zn103 Zn 0.29325 0.20768 0.25172 0.0
O104 O 0.3136 0.211 0.20544 0.0
O105 O 0.28095 0.2426 0.21259 0.0
O106 O 0.25282 0.19607 0.23142 0.0
O107 O 0.22308 0.22846 0.24811 0.0
O108 O 0.26814 0.20433 0.30542 0.0
O109 O 0.30262 0.17806 0.2856 0.0
C110 C 0.30044 0.23188 0.19304 0.0
C111 C 0.28447 0.18369 0.31024 0.0
C112 C 0.73602 0.32476 0.75971 0.0
C113 C 0.7957 0.25659 0.69611 0.0
O114 O 0.72312 0.30307 0.74866 0.0
Zn115 Zn 0.73173 0.26541 0.71898 0.0
O116 O 0.76174 0.32718 0.75264 0.0
Zn117 Zn 0.76644 0.29165 0.72709 0.0
O118 O 0.74404 0.2981 0.67574 0.0
O119 O 0.7092 0.2686 0.67504 0.0
O120 O 0.80291 0.27992 0.70944 0.0
O121 O 0.77021 0.24927 0.69807 0.0
O122 O 0.72117 0.23822 0.75511 0.0
O123 O 0.75806 0.26245 0.77151 0.0
C124 C 0.72258 0.28804 0.65946 0.0
C125 C 0.74024 0.24345 0.77861 0.0
C126 C 0.81995 0.74751 0.28854 0.0
C127 C 0.75251 0.81136 0.23177 0.0
O128 O 0.82404 0.77224 0.27776 0.0
Zn129 Zn 0.78639 0.77979 0.26074 0.0
O130 O 0.7956 0.73708 0.28552 0.0
Zn131 Zn 0.75522 0.74953 0.26517 0.0
O132 O 0.74883 0.72258 0.22726 0.0
O133 O 0.78248 0.75186 0.21351 0.0
O134 O 0.74192 0.78773 0.23966 0.0
O135 O 0.77782 0.8158 0.23947 0.0
O136 O 0.76371 0.77972 0.31286 0.0
O137 O 0.73231 0.74677 0.30855 0.0
C138 C 0.76752 0.73082 0.20492 0.0
C139 C 0.74356 0.76605 0.32726 0.0
C140 C 0.72648 0.29212 0.27662 0.0
C141 C 0.71798 0.23814 0.16291 0.0
O142 O 0.70834 0.29423 0.25099 0.0
Zn143 Zn 0.7226 0.26547 0.21933 0.0
O144 O 0.74591 0.27411 0.27353 0.0
Zn145 Zn 0.75859 0.24292 0.23408 0.0
O146 O 0.79471 0.25568 0.21769 0.0
O147 O 0.76076 0.28243 0.19784 0.0
O148 O 0.7393 0.23108 0.18219 0.0
O149 O 0.70238 0.25749 0.17452 0.0
O150 O 0.71541 0.22875 0.25213 0.0
O151 O 0.75576 0.209 0.26322 0.0
C152 C 0.78671 0.2767 0.19917 0.0
C153 C 0.72956 0.20905 0.26682 0.0
C154 C 0.72593 0.70338 0.74468 0.0
C155 C 0.79361 0.76907 0.79714 0.0
O156 O 0.72123 0.72797 0.75573 0.0
Zn157 Zn 0.75895 0.73677 0.77149 0.0
O158 O 0.75052 0.69352 0.74738 0.0
Zn159 Zn 0.79099 0.70653 0.76541 0.0
O160 O 0.79898 0.68088 0.8055 0.0
O161 O 0.76511 0.71012 0.81834 0.0
O162 O 0.80439 0.74566 0.78835 0.0
O163 O 0.76782 0.7729 0.79186 0.0
O164 O 0.77988 0.7368 0.71914 0.0
O165 O 0.81124 0.70338 0.71894 0.0
C166 C 0.78067 0.68984 0.82805 0.0
C167 C 0.79896 0.72318 0.70239 0.0
C168 C 0.46572 0.46985 0.47981 0.0
C169 C 0.52666 0.53495 0.5465 0.0
O170 O 0.45671 0.49485 0.4796 0.0
Zn171 Zn 0.46936 0.53505 0.50019 0.0
O172 O 0.4884 0.46438 0.49647 0.0
Zn173 Zn 0.49657 0.50175 0.5132 0.0
O174 O 0.46398 0.50908 0.55274 0.0
O175 O 0.43964 0.54523 0.53357 0.0
O176 O 0.53003 0.50907 0.54214 0.0
O177 O 0.50526 0.54663 0.53217 0.0
O178 O 0.47355 0.55557 0.45425 0.0
O179 O 0.50421 0.52203 0.46094 0.0
C180 C 0.44387 0.52609 0.55729 0.0
C181 C 0.49403 0.54196 0.44161 0.0
C182 C 0.06619 0.45727 0.02684 0.0
C183 C 0.01946 0.44391 0.90783 0.0
O184 O 0.04655 0.47472 0.02138 0.0
Zn185 Zn 0.01613 0.48397 0.97931 0.0
O186 O 0.0714 0.43897 0.00226 0.0
Zn187 Zn 0.04316 0.45029 0.96726 0.0
O188 O 0.05763 0.49012 0.94868 0.0
O189 O 0.02618 0.52125 0.96376 0.0
O190 O 0.03991 0.43035 0.92072 0.0
O191 O 1.00909 0.46386 0.92687 0.0
O192 O 0.98142 0.47741 0.00555 0.0
O193 O 1.00584 0.43938 -0.00313 0.0
C194 C 0.04935 0.51534 0.94879 0.0
C195 C 0.98415 0.45142 0.00976 0.0
C196 C 0.48069 0.56589 0.01582 0.0
C197 C 0.54939 0.50495 0.95585 0.0
O198 O 0.47309 0.54048 0.0144 0.0
Zn199 Zn 0.48939 0.50139 -0.00505 0.0
O200 O 0.50405 0.57278 0.00221 0.0
Zn201 Zn 0.51527 0.5361 0.9855 0.0
O202 O 0.48553 0.52747 0.94194 0.0
O203 O 0.46235 0.49007 0.95869 0.0
O204 O 0.55088 0.53096 0.96061 0.0
O205 O 0.52784 0.492 0.96744 0.0
O206 O 0.49152 0.48065 0.04079 0.0
O207 O 0.52071 0.51574 0.03848 0.0
C208 C 0.4667 0.50938 0.93529 0.0
C209 C 0.51029 0.49514 0.05618 0.0
C210 C 0.08478 0.49546 0.50792 0.0
C211 C 0.01863 0.55807 0.44624 0.0
O212 O 0.08788 0.52119 0.5016 0.0
Zn213 Zn 0.05249 0.52693 0.47654 0.0
O214 O 0.06273 0.4833 0.49645 0.0
Zn215 Zn 0.025 0.49377 0.46707 0.0
O216 O 0.02744 0.4716 0.42307 0.0
O217 O 0.05874 0.5048 0.4247 0.0
O218 O 0.01023 0.53293 0.44712 0.0
O219 O 0.04206 0.564 0.46035 0.0
O220 O 0.02411 0.51759 0.52183 0.0
O221 O 0.99752 0.48324 0.50267 0.0
C222 C 0.04781 0.48393 0.4081 0.0
C223 C 1.00449 0.50026 0.52808 0.0
H224 H 0.95761 1.00088 0.10591 0.0
H225 H 0.93783 0.99734 0.1681 0.0
H226 H 0.88021 0.06295 0.14224 0.0
H227 H 0.90057 0.06711 0.0794 0.0
H228 H 0.90344 0.07231 0.20688 0.0
H229 H 0.85533 0.99732 0.15848 0.0
H230 H 0.84654 0.95557 0.12066 0.0
H231 H 0.90507 0.90999 0.18708 0.0
H232 H 0.91463 0.95154 0.22492 0.0
H233 H 0.89285 0.98638 0.39688 0.0
H234 H 0.87362 0.99659 0.33472 0.0
H235 H 0.9473 0.04292 0.30741 0.0
H236 H 0.96605 0.03367 0.36933 0.0
H237 H 0.89029 0.98174 0.2698 0.0
H238 H 0.93832 0.09276 0.2495 0.0
H239 H 0.94374 0.13524 0.28694 0.0
H240 H 0.87624 0.11059 0.35775 0.0
H241 H 0.87006 0.06814 0.3204 0.0
C242 C 0.94053 0.01443 0.11312 0.0
C243 C 0.93075 0.03438 0.08774 0.0
C244 C 0.92899 0.01214 0.14867 0.0
C245 C 0.90712 0.02948 0.15961 0.0
C246 C 0.89689 0.04918 0.13419 0.0
C247 C 0.90856 0.05156 0.09839 0.0
C248 C 0.89757 0.02855 0.19903 0.0
C249 C 0.9 0.05263 0.22069 0.0
C250 C 0.8916 1.00307 0.21681 0.0
C251 C 0.88565 0.97765 0.19467 0.0
C252 C 0.86641 0.97843 0.16499 0.0
C253 C 0.8613 0.95478 0.14351 0.0
C254 C 0.87522 0.93014 0.15148 0.0
C255 C 0.89425 0.92908 0.181 0.0
C256 C 0.89947 0.95268 0.20256 0.0
C257 C 0.90474 0.99903 0.3777 0.0
C258 C 0.93095 0.00924 0.38798 0.0
C259 C 0.8937 1.00489 0.34228 0.0
C260 C 0.90872 0.02101 0.31664 0.0
C261 C 0.93485 0.03123 0.32706 0.0
C262 C 0.94571 0.02566 0.36243 0.0
C263 C 0.8989 0.0251 0.27762 0.0
C264 C 0.89262 1.00162 0.25609 0.0
C265 C 0.90043 0.05128 0.25998 0.0
C266 C 0.90371 0.07718 0.28205 0.0
C267 C 0.92441 0.09649 0.27279 0.0
C268 C 0.92768 0.12055 0.29409 0.0
C269 C 0.91035 0.12561 0.32471 0.0
C270 C 0.88967 0.10663 0.33405 0.0
C271 C 0.8863 0.08255 0.31284 0.0
H272 H 0.91295 0.14422 0.34119 0.0
H273 H 0.87127 0.91187 0.13475 0.0
H274 H 0.30287 0.83056 0.36113 0.0
H275 H 0.28846 0.82309 0.42594 0.0
H276 H 0.26875 0.73811 0.40007 0.0
H277 H 0.28209 0.7459 0.33481 0.0
H278 H 0.22658 0.76084 0.4326 0.0
H279 H 0.32422 0.75773 0.4601 0.0
H280 H 0.37263 0.77412 0.46023 0.0
H281 H 0.3476 0.84808 0.51758 0.0
H282 H 0.29931 0.83236 0.51754 0.0
H283 H 0.22931 0.72307 0.63427 0.0
H284 H 0.23519 0.72592 0.56617 0.0
H285 H 0.21573 0.81287 0.56955 0.0
H286 H 0.20902 0.81012 0.63742 0.0
H287 H 0.2759 0.78851 0.54871 0.0
H288 H 0.17813 0.79097 0.52007 0.0
H289 H 0.1301 0.77368 0.52085 0.0
H290 H 0.15623 0.69872 0.46682 0.0
H291 H 0.20452 0.71542 0.46622 0.0
C292 C 0.29643 0.81004 0.3696 0.0
C293 C 0.29359 0.78879 0.34304 0.0
C294 C 0.28807 0.80578 0.40666 0.0
C295 C 0.27743 0.78002 0.41791 0.0
C296 C 0.27664 0.75821 0.39197 0.0
C297 C 0.28453 0.76259 0.35482 0.0
C298 C 0.26491 0.77651 0.45558 0.0
C299 C 0.2376 0.76648 0.45801 0.0
C300 C 0.27891 0.78448 0.48872 0.0
C301 C 0.30811 0.79395 0.48855 0.0
C302 C 0.32908 0.77759 0.47251 0.0
C303 C 0.35655 0.78676 0.47265 0.0
C304 C 0.36329 0.81219 0.4889 0.0
C305 C 0.34256 0.82843 0.50506 0.0
C306 C 0.31512 0.81939 0.50504 0.0
C307 C 0.22508 0.74252 0.62027 0.0
C308 C 0.21898 0.76643 0.64111 0.0
C309 C 0.22841 0.74408 0.58143 0.0
C310 C 0.22594 0.7696 0.56314 0.0
C311 C 0.21745 0.79297 0.58334 0.0
C312 C 0.21357 0.79132 0.62208 0.0
C313 C 0.23786 0.77295 0.52542 0.0
C314 C 0.26508 0.78282 0.52314 0.0
C315 C 0.22389 0.76458 0.49262 0.0
C316 C 0.19501 0.75426 0.49366 0.0
C317 C 0.17372 0.77061 0.50893 0.0
C318 C 0.14642 0.76097 0.50917 0.0
C319 C 0.14014 0.73506 0.49406 0.0
C320 C 0.16114 0.71875 0.47862 0.0
C321 C 0.18847 0.7283 0.47829 0.0
H322 H 0.11898 0.72767 0.49419 0.0
H323 H 0.38455 0.81928 0.48901 0.0
H324 H 0.575 0.01728 0.91438 0.0
H325 H 0.58048 0.02006 0.84643 0.0
H326 H 0.50581 0.97231 0.8315 0.0
H327 H 0.50048 0.96892 0.89941 0.0
H328 H 0.54116 0.96139 0.77673 0.0
H329 H 0.50167 0.04113 0.83363 0.0
H330 H 0.4981 0.08014 0.87793 0.0
H331 H 0.57292 0.11503 0.83334 0.0
H332 H 0.57711 0.076 0.78904 0.0
H333 H 0.49367 0.0533 0.61577 0.0
H334 H 0.50284 0.04955 0.68291 0.0
H335 H 0.57464 0.99908 0.66016 0.0
H336 H 0.56526 1.00218 0.59298 0.0
H337 H 0.54172 0.0591 0.73367 0.0
H338 H 0.57274 0.94337 0.71767 0.0
H339 H 0.56507 0.90506 0.67307 0.0
H340 H 0.48921 0.94279 0.63629 0.0
H341 H 0.49621 0.98105 0.68105 0.0
C342 C 0.56017 1.0067 0.89665 0.0
C343 C 0.53701 0.99333 0.91216 0.0
C344 C 0.56329 0.0084 0.85786 0.0
C345 C 0.54314 0.99703 0.83407 0.0
C346 C 0.52149 0.98138 0.84944 0.0
C347 C 0.51847 0.97947 0.88828 0.0
C348 C 0.54282 1.00411 0.79377 0.0
C349 C 0.54163 0.98272 0.76728 0.0
C350 C 0.54221 0.03201 0.7816 0.0
C351 C 0.5399 0.05546 0.80833 0.0
C352 C 0.5175 0.05699 0.8335 0.0
C353 C 0.51533 0.07913 0.85857 0.0
C354 C 0.53532 0.10001 0.85854 0.0
C355 C 0.55748 0.09881 0.83338 0.0
C356 C 0.55977 0.07669 0.80827 0.0
C357 C 0.51184 0.04202 0.62498 0.0
C358 C 0.52843 0.02754 0.59922 0.0
C359 C 0.51707 0.03993 0.66337 0.0
C360 C 0.53901 0.02349 0.67641 0.0
C361 C 0.55725 0.01139 0.65057 0.0
C362 C 0.5519 0.01323 0.61223 0.0
C363 C 0.54081 0.01638 0.71663 0.0
C364 C 0.54197 0.03777 0.7431 0.0
C365 C 0.53986 0.98852 0.72886 0.0
C366 C 0.53522 0.96524 0.7024 0.0
C367 C 0.55439 0.94342 0.70017 0.0
C368 C 0.55015 0.92172 0.67485 0.0
C369 C 0.52672 0.92155 0.65175 0.0
C370 C 0.5074 0.943 0.65407 0.0
C371 C 0.51151 0.9647 0.6794 0.0
H372 H 0.5235 0.90477 0.63213 0.0
H373 H 0.53358 0.11716 0.87791 0.0
H374 H 0.28609 0.31174 0.84891 0.0
H375 H 0.29099 0.31047 0.91705 0.0
H376 H 0.24301 0.23527 0.92094 0.0
H377 H 0.23745 0.23672 0.85294 0.0
H378 H 0.23396 0.26506 0.98216 0.0
H379 H 0.31296 0.23164 0.91464 0.0
H380 H 0.35092 0.23339 0.86867 0.0
H381 H 0.38562 0.30379 0.92498 0.0
H382 H 0.34761 0.30262 0.97125 0.0
H383 H 0.32602 0.20524 0.13475 0.0
H384 H 0.32125 0.21688 0.06815 0.0
H385 H 0.2783 0.29204 0.09763 0.0
H386 H 0.28294 0.2807 0.16394 0.0
H387 H 0.33297 0.26117 0.02004 0.0
H388 H 0.21832 0.29227 0.04538 0.0
H389 H 0.18114 0.28268 0.09107 0.0
H390 H 0.21835 0.20435 0.11735 0.0
H391 H 0.25544 0.21325 0.07137 0.0
C392 C 0.27589 0.29537 0.86437 0.0
C393 C 0.26182 0.27404 0.84553 0.0
C394 C 0.27883 0.29461 0.90327 0.0
C395 C 0.26806 0.27234 0.9238 0.0
C396 C 0.25169 0.25251 0.90551 0.0
C397 C 0.24851 0.2534 0.86662 0.0
C398 C 0.27626 0.26805 0.96334 0.0
C399 C 0.25557 0.26447 0.99049 0.0
C400 C 0.30452 0.26632 0.97396 0.0
C401 C 0.32729 0.26723 0.94612 0.0
C402 C 0.32856 0.24763 0.91704 0.0
C403 C 0.35013 0.24849 0.89096 0.0
C404 C 0.37065 0.26874 0.89377 0.0
C405 C 0.36968 0.28815 0.92278 0.0
C406 C 0.34815 0.28739 0.94897 0.0
C407 C 0.31636 0.22466 0.12705 0.0
C408 C 0.30437 0.24181 0.1544 0.0
C409 C 0.31361 0.23124 0.08906 0.0
C410 C 0.29885 0.25496 0.07825 0.0
C411 C 0.28931 0.27341 0.1056 0.0
C412 C 0.29202 0.26688 0.14342 0.0
C413 C 0.29069 0.25895 0.0388 0.0
C414 C 0.31136 0.26225 0.01172 0.0
C415 C 0.26245 0.25942 0.02806 0.0
C416 C 0.23985 0.25362 0.05523 0.0
C417 C 0.2185 0.27296 0.06079 0.0
C418 C 0.19744 0.26764 0.08674 0.0
C419 C 0.19745 0.24296 0.10719 0.0
C420 C 0.21843 0.2235 0.1016 0.0
C421 C 0.23949 0.22869 0.07562 0.0
H422 H 0.18115 0.2389 0.12729 0.0
H423 H 0.38735 0.26936 0.87357 0.0
H424 H 0.01669 0.97368 0.59465 0.0
H425 H 0.01585 0.98172 0.66244 0.0
H426 H 0.92686 0.97442 0.66213 0.0
H427 H 0.9276 0.96536 0.5946 0.0
H428 H 0.95478 0.02992 0.68071 0.0
H429 H 0.94781 0.93543 0.71555 0.0
H430 H 0.95945 0.88581 0.71688 0.0
H431 H 0.04031 0.9048 0.76 0.0
H432 H 0.02926 0.95463 0.7585 0.0
H433 H 0.9371 0.06438 0.87523 0.0
H434 H 0.93552 0.04976 0.80976 0.0
H435 H 0.0215 0.02556 0.81584 0.0
H436 H 0.02285 0.03921 0.88177 0.0
H437 H 0.99103 0.98363 0.7947 0.0
H438 H 0.99639 0.08 0.75835 0.0
H439 H 0.9823 0.12905 0.75696 0.0
H440 H 0.90182 0.10587 0.71653 0.0
H441 H 0.91525 0.05679 0.71805 0.0
C442 C 0.99711 0.97246 0.60939 0.0
C443 C 0.97221 0.96906 0.58952 0.0
C444 C 0.99664 0.97708 0.648 0.0
C445 C 0.97128 0.97882 0.66694 0.0
C446 C 0.9466 0.97298 0.64781 0.0
C447 C 0.9471 0.96767 0.60933 0.0
C448 C 0.97043 0.99196 0.70415 0.0
C449 C 0.96224 0.01976 0.70593 0.0
C450 C 0.98074 0.97868 0.73642 0.0
C451 C 0.98783 0.94881 0.73643 0.0
C452 C 0.96822 0.92907 0.72482 0.0
C453 C 0.97466 0.90089 0.72578 0.0
C454 C 1.00063 0.89216 0.73841 0.0
C455 C 0.02021 0.9116 0.75015 0.0
C456 C 0.01386 0.93982 0.7493 0.0
C457 C 0.95597 0.057 0.86218 0.0
C458 C 0.98005 0.0527 0.88357 0.0
C459 C 0.95502 0.04855 0.82473 0.0
C460 C 0.97834 0.03631 0.808 0.0
C461 C 1.00319 0.03466 0.82834 0.0
C462 C 1.00401 0.04268 0.86588 0.0
C463 C 0.97597 0.02204 0.77137 0.0
C464 C 0.98355 0.99394 0.76963 0.0
C465 C 0.96489 0.03506 0.73913 0.0
C466 C 0.95675 0.06466 0.7387 0.0
C467 C 0.97559 0.08536 0.7495 0.0
C468 C 0.96774 0.1132 0.74858 0.0
C469 C 0.94114 0.12061 0.73671 0.0
C470 C 0.92238 0.10018 0.72571 0.0
C471 C 0.93011 0.07235 0.72657 0.0
H472 H 0.93508 0.14216 0.73598 0.0
H473 H 1.00555 0.87032 0.7392 0.0
H474 H 0.76628 0.3016 0.32902 0.0
H475 H 0.75856 0.3149 0.39415 0.0
H476 H 0.67226 0.3297 0.37032 0.0
H477 H 0.67985 0.31678 0.30469 0.0
H478 H 0.70101 0.36376 0.43515 0.0
H479 H 0.67826 0.27013 0.39064 0.0
H480 H 0.69027 0.23018 0.35109 0.0
H481 H 0.76756 0.22117 0.40961 0.0
H482 H 0.75601 0.26139 0.44936 0.0
H483 H 0.68067 0.26899 0.61475 0.0
H484 H 0.67182 0.28122 0.54932 0.0
H485 H 0.73785 0.34123 0.55341 0.0
H486 H 0.74664 0.3294 0.61884 0.0
H487 H 0.70972 0.27197 0.4967 0.0
H488 H 0.7272 0.39096 0.48687 0.0
H489 H 0.71695 0.43273 0.52403 0.0
H490 H 0.64814 0.39149 0.57577 0.0
H491 H 0.65769 0.34961 0.53852 0.0
C492 C 0.74587 0.30868 0.33725 0.0
C493 C 0.72351 0.30752 0.31208 0.0
C494 C 0.74156 0.31652 0.37438 0.0
C495 C 0.7148 0.32293 0.38693 0.0
C496 C 0.69307 0.32495 0.36097 0.0
C497 C 0.69743 0.31735 0.32358 0.0
C498 C 0.70866 0.32032 0.42728 0.0
C499 C 0.7027 0.3438 0.44884 0.0
C500 C 0.71027 0.2941 0.44463 0.0
C501 C 0.71635 0.26878 0.42274 0.0
C502 C 0.69782 0.25962 0.39501 0.0
C503 C 0.7046 0.23699 0.37246 0.0
C504 C 0.7298 0.22325 0.37757 0.0
C505 C 0.74812 0.23194 0.40554 0.0
C506 C 0.74142 0.25457 0.42819 0.0
C507 C 0.69293 0.28519 0.60197 0.0
C508 C 0.71461 0.29795 0.62179 0.0
C509 C 0.68779 0.29219 0.56463 0.0
C510 C 0.7041 0.31218 0.5466 0.0
C511 C 0.72473 0.32605 0.56695 0.0
C512 C 0.7299 0.31905 0.60427 0.0
C513 C 0.70249 0.31556 0.50544 0.0
C514 C 0.70727 0.29202 0.48342 0.0
C515 C 0.69953 0.34174 0.48799 0.0
C516 C 0.69331 0.36705 0.51003 0.0
C517 C 0.70977 0.39084 0.50598 0.0
C518 C 0.70411 0.41454 0.52712 0.0
C519 C 0.68195 0.41474 0.55231 0.0
C520 C 0.66535 0.39127 0.55634 0.0
C521 C 0.67092 0.36753 0.53525 0.0
H522 H 0.67762 0.4331 0.56868 0.0
H523 H 0.73502 0.20567 0.36022 0.0
H524 H 0.4679 0.06442 0.10436 0.0
H525 H 0.447 0.06823 0.16668 0.0
H526 H 0.44364 0.97915 0.17441 0.0
H527 H 0.46263 0.97545 0.11108 0.0
H528 H 0.40353 0.99876 0.21361 0.0
H529 H 0.50137 0.01824 0.20557 0.0
H530 H 0.54323 0.04236 0.18317 0.0
H531 H 0.51106 0.11951 0.22402 0.0
H532 H 0.46886 0.09584 0.24633 0.0
H533 H 0.46188 0.97008 0.39272 0.0
H534 H 0.44506 0.97558 0.3285 0.0
H535 H 0.42352 0.06042 0.3518 0.0
H536 H 0.43984 0.05497 0.41638 0.0
H537 H 0.46627 0.0512 0.29779 0.0
H538 H 0.37377 0.02251 0.32267 0.0
H539 H 0.33731 0.99241 0.34857 0.0
H540 H 0.36564 0.92519 0.27986 0.0
H541 H 0.40256 0.95473 0.25395 0.0
C542 C 0.46201 0.04574 0.11912 0.0
C543 C 0.4672 0.01965 0.10344 0.0
C544 C 0.45014 0.0479 0.15467 0.0
C545 C 0.44455 0.02397 0.17572 0.0
C546 C 0.44786 0.99792 0.15883 0.0
C547 C 0.45886 0.99579 0.12275 0.0
C548 C 0.43897 0.02579 0.21656 0.0
C549 C 0.41718 0.01026 0.23206 0.0
C550 C 0.45659 0.04106 0.24068 0.0
C551 C 0.48183 0.05537 0.22712 0.0
C552 C 0.50316 0.04039 0.20951 0.0
C553 C 0.52695 0.05396 0.19689 0.0
C554 C 0.52975 0.08247 0.20204 0.0
C555 C 0.50881 0.09745 0.21994 0.0
C556 C 0.48496 0.08397 0.23259 0.0
C557 C 0.45272 0.98963 0.38452 0.0
C558 C 0.45258 0.01224 0.40927 0.0
C559 C 0.44288 0.99267 0.34795 0.0
C560 C 0.43307 0.0184 0.33555 0.0
C561 C 0.43084 0.04036 0.36106 0.0
C562 C 0.44025 0.03721 0.39786 0.0
C563 C 0.43129 0.02371 0.29487 0.0
C564 C 0.45195 0.04047 0.27934 0.0
C565 C 0.41334 0.00871 0.2711 0.0
C566 C 0.39105 0.99086 0.28646 0.0
C567 C 0.37238 1.00125 0.31327 0.0
C568 C 0.35159 0.98429 0.32792 0.0
C569 C 0.34918 0.95689 0.3159 0.0
C570 C 0.36752 0.94642 0.28914 0.0
C571 C 0.38836 0.96329 0.2744 0.0
H572 H 0.33307 0.9438 0.32729 0.0
H573 H 0.54819 0.09294 0.19227 0.0
H574 H 0.79161 0.75122 0.14192 0.0
H575 H 0.79686 0.72818 0.08157 0.0
H576 H 0.76066 0.65389 0.12753 0.0
H577 H 0.75409 0.67747 0.18766 0.0
H578 H 0.82316 0.68665 0.055 0.0
H579 H 0.72472 0.62074 0.05857 0.0
H580 H 0.67914 0.61895 0.08989 0.0
H581 H 0.68003 0.70724 0.10296 0.0
H582 H 0.72545 0.70953 0.07139 0.0
H583 H 0.81345 0.65098 0.86323 0.0
H584 H 0.81288 0.6392 0.93022 0.0
H585 H 0.7424 0.69299 0.94606 0.0
H586 H 0.74212 0.70376 0.87988 0.0
H587 H 0.73807 0.6526 0.99213 0.0
H588 H 0.81285 0.716 0.95376 0.0
H589 H 0.85551 0.72731 0.91885 0.0
H590 H 0.89745 0.65895 0.97092 0.0
H591 H 0.8549 0.64714 0.00587 0.0
C592 C 0.78487 0.72995 0.13919 0.0
C593 C 0.7721 0.71625 0.16921 0.0
C594 C 0.78805 0.7167 0.10477 0.0
C595 C 0.77895 0.68934 0.09987 0.0
C596 C 0.76738 0.67514 0.13043 0.0
C597 C 0.76362 0.68864 0.16471 0.0
C598 C 0.7799 0.67686 0.06192 0.0
C599 C 0.80464 0.67877 0.04143 0.0
C600 C 0.75586 0.66634 0.04418 0.0
C601 C 0.72861 0.66522 0.06321 0.0
C602 C 0.71516 0.63974 0.06817 0.0
C603 C 0.68936 0.63864 0.08593 0.0
C604 C 0.67676 0.66295 0.09857 0.0
C605 C 0.68987 0.68842 0.09333 0.0
C606 C 0.71564 0.68962 0.07554 0.0
C607 C 0.79744 0.65969 0.88095 0.0
C608 C 0.7782 0.67877 0.86647 0.0
C609 C 0.79718 0.65299 0.91917 0.0
C610 C 0.77792 0.66561 0.9433 0.0
C611 C 0.75747 0.68293 0.92813 0.0
C612 C 0.75752 0.68934 0.89017 0.0
C613 C 0.78074 0.66441 0.98465 0.0
C614 C 0.75687 0.65943 0.00606 0.0
C615 C 0.80519 0.67341 0.00285 0.0
C616 C 0.8307 0.6805 0.98198 0.0
C617 C 0.83116 0.70333 0.95758 0.0
C618 C 0.8553 0.70983 0.93781 0.0
C619 C 0.87915 0.6938 0.94257 0.0
C620 C 0.87893 0.6713 0.96718 0.0
C621 C 0.85483 0.66468 0.98696 0.0
H622 H 0.89782 0.69886 0.92725 0.0
H623 H 0.6568 0.66206 0.11232 0.0
H624 H 0.43005 0.5684 0.60381 0.0
H625 H 0.41769 0.56355 0.67014 0.0
H626 H 0.40925 0.47537 0.65533 0.0
H627 H 0.42303 0.48005 0.58966 0.0
H628 H 0.38086 0.54242 0.7204 0.0
H629 H 0.4479 0.44337 0.71927 0.0
H630 H 0.48362 0.42133 0.6797 0.0
H631 H 0.50883 0.50099 0.63886 0.0
H632 H 0.47363 0.52347 0.67865 0.0
H633 H 0.4395 0.46719 0.90009 0.0
H634 H 0.41945 0.4679 0.83689 0.0
H635 H 0.43873 0.55467 0.82723 0.0
H636 H 0.45921 0.55406 0.88997 0.0
H637 H 0.45464 0.48357 0.77575 0.0
H638 H 0.38763 0.58281 0.768 0.0
H639 H 0.35567 0.6093 0.80826 0.0
H640 H 0.336 0.53559 0.86985 0.0
H641 H 0.3675 0.50856 0.82964 0.0
C642 C 0.42451 0.54817 0.61448 0.0
C643 C 0.42788 0.52452 0.59215 0.0
C644 C 0.41739 0.54541 0.65231 0.0
C645 C 0.41329 0.51901 0.66779 0.0
C646 C 0.41289 0.49586 0.64404 0.0
C647 C 0.42072 0.49852 0.60661 0.0
C648 C 0.4151 0.51514 0.70891 0.0
C649 C 0.39691 0.52954 0.73261 0.0
C650 C 0.43612 0.49832 0.72475 0.0
C651 C 0.4579 0.48502 0.70155 0.0
C652 C 0.46117 0.45615 0.70196 0.0
C653 C 0.48131 0.4436 0.6795 0.0
C654 C 0.49841 0.45974 0.65668 0.0
C655 C 0.49553 0.48849 0.65646 0.0
C656 C 0.4755 0.50115 0.67897 0.0
C657 C 0.43894 0.48653 0.88478 0.0
C658 C 0.45119 0.5105 0.89968 0.0
C659 C 0.42745 0.4869 0.84879 0.0
C660 C 0.42748 0.51137 0.82766 0.0
C661 C 0.43822 0.53569 0.84336 0.0
C662 C 0.45012 0.53523 0.87903 0.0
C663 C 0.42037 0.51075 0.78739 0.0
C664 C 0.43798 0.49578 0.76371 0.0
C665 C 0.3994 0.52768 0.77184 0.0
C666 C 0.38013 0.5437 0.79593 0.0
C667 C 0.37639 0.57222 0.79001 0.0
C668 C 0.35836 0.58733 0.81285 0.0
C669 C 0.34387 0.57415 0.84165 0.0
C670 C 0.34732 0.5458 0.84762 0.0
C671 C 0.3653 0.53058 0.82485 0.0
H672 H 0.32993 0.58589 0.85931 0.0
H673 H 0.51392 0.44997 0.63923 0.0
H674 H 0.78293 0.24108 0.82847 0.0
H675 H 0.78056 0.22667 0.89402 0.0
H676 H 0.69528 0.20238 0.87852 0.0
H677 H 0.6978 0.21593 0.81268 0.0
H678 H 0.74982 0.25219 0.94167 0.0
H679 H 0.67494 0.1575 0.94613 0.0
H680 H 0.66584 0.11493 0.91009 0.0
H681 H 0.74915 0.11596 0.86799 0.0
H682 H 0.75888 0.1583 0.90418 0.0
H683 H 0.68189 0.25513 0.1086 0.0
H684 H 0.68361 0.2426 0.04234 0.0
H685 H 0.74606 0.18126 0.06612 0.0
H686 H 0.74457 0.19361 0.13255 0.0
H687 H 0.70823 0.16922 0.00127 0.0
H688 H 0.77119 0.23694 0.05277 0.0
H689 H 0.78078 0.27749 0.09256 0.0
H690 H 0.72833 0.32757 0.02279 0.0
H691 H 0.7176 0.28698 0.98335 0.0
C692 C 0.76389 0.232 0.83882 0.0
C693 C 0.74043 0.22995 0.81566 0.0
C694 C 0.76258 0.22377 0.87624 0.0
C695 C 0.73773 0.21356 0.89123 0.0
C696 C 0.71481 0.20982 0.8675 0.0
C697 C 0.71622 0.21772 0.82988 0.0
C698 C 0.73458 0.21075 0.93235 0.0
C699 C 0.74104 0.23386 0.95455 0.0
C700 C 0.72316 0.18685 0.94936 0.0
C701 C 0.71756 0.16124 0.92767 0.0
C702 C 0.69136 0.14859 0.92933 0.0
C703 C 0.68609 0.1245 0.90884 0.0
C704 C 0.70688 0.11279 0.88669 0.0
C705 C 0.73302 0.12511 0.88505 0.0
C706 C 0.73842 0.14919 0.9055 0.0
C707 C 0.6953 0.23833 0.10001 0.0
C708 C 0.71367 0.22589 0.12552 0.0
C709 C 0.69613 0.23109 0.06219 0.0
C710 C 0.71525 0.21133 0.04955 0.0
C711 C 0.73119 0.19655 0.07553 0.0
C712 C 0.73051 0.20388 0.11337 0.0
C713 C 0.72289 0.21076 0.0096 0.0
C714 C 0.7173 0.18724 0.98797 0.0
C715 C 0.7357 0.23401 0.99302 0.0
C716 C 0.7433 0.25882 0.01541 0.0
C717 C 0.76146 0.25653 0.04614 0.0
C718 C 0.767 0.27949 0.06875 0.0
C719 C 0.75499 0.30506 0.0604 0.0
C720 C 0.7375 0.30771 0.02934 0.0
C721 C 0.73163 0.28471 0.0069 0.0
H722 H 0.75948 0.32286 0.07776 0.0
H723 H 0.70275 0.09415 0.87084 0.0
H724 H 0.09055 0.4134 0.06253 0.0
H725 H 0.10103 0.41082 0.12982 0.0
H726 H 0.08329 0.4978 0.14103 0.0
H727 H 0.07258 0.50053 0.0743 0.0
H728 H 0.13262 0.45005 0.19301 0.0
H729 H 0.02513 0.49349 0.18781 0.0
H730 H 0.9852 0.49547 0.14449 0.0
H731 H 1.00339 0.41323 0.10623 0.0
H732 H 0.04326 0.41081 0.14933 0.0
H733 H 0.087 0.50896 0.36448 0.0
H734 H 0.10139 0.49574 0.30135 0.0
H735 H 0.04772 0.42449 0.30599 0.0
H736 H 0.03279 0.43785 0.36883 0.0
H737 H 0.03759 0.4541 0.24607 0.0
H738 H 0.11865 0.41719 0.30332 0.0
H739 H 0.15956 0.41708 0.34475 0.0
H740 H 0.19513 0.4838 0.28162 0.0
H741 H 0.15423 0.48462 0.24014 0.0
C742 C 0.09004 0.43218 0.07908 0.0
C743 C 0.08022 0.45705 0.06352 0.0
C744 C 0.09619 0.43069 0.1174 0.0
C745 C 0.09275 0.4541 0.14015 0.0
C746 C 0.08613 0.47958 0.12374 0.0
C747 C 0.07977 0.48104 0.08571 0.0
C748 C 0.08898 0.45103 0.18092 0.0
C749 C 0.11196 0.45061 0.20491 0.0
C750 C 0.06196 0.45135 0.19602 0.0
C751 C 0.03717 0.45205 0.17154 0.0
C752 C 0.02046 0.47581 0.17024 0.0
C753 C 0.99797 0.47708 0.14558 0.0
C754 C 0.99194 0.45463 0.1223 0.0
C755 C 1.00823 0.43075 0.12388 0.0
C756 C 0.03077 0.42941 0.14843 0.0
C757 C 0.07853 0.49026 0.35227 0.0
C758 C 0.05849 0.47463 0.37143 0.0
C759 C 0.087 0.48259 0.31632 0.0
C760 C 0.0758 0.45899 0.29912 0.0
C761 C 0.05666 0.44274 0.31883 0.0
C762 C 0.04806 0.45047 0.35466 0.0
C763 C 0.08128 0.45338 0.25902 0.0
C764 C 0.05841 0.45261 0.23479 0.0
C765 C 0.10844 0.45164 0.24408 0.0
C766 C 0.13325 0.45105 0.26871 0.0
C767 C 0.1351 0.43196 0.2984 0.0
C768 C 0.15831 0.43176 0.32189 0.0
C769 C 0.17991 0.45044 0.31586 0.0
C770 C 0.17838 0.46933 0.28626 0.0
C771 C 0.1552 0.46965 0.26271 0.0
H772 H 0.19785 0.45026 0.33409 0.0
H773 H 0.97438 0.45562 0.10352 0.0
H774 H 0.80738 0.7718 0.66681 0.0
H775 H 0.79469 0.7814 0.60167 0.0
H776 H 0.77981 0.69433 0.58365 0.0
H777 H 0.79425 0.68465 0.64806 0.0
H778 H 0.7946 0.71481 0.52184 0.0
H779 H 0.72739 0.73961 0.6114 0.0
H780 H 0.70849 0.76143 0.66839 0.0
H781 H 0.72497 0.84187 0.62251 0.0
H782 H 0.74444 0.8205 0.56545 0.0
H783 H 0.70936 0.73413 0.37028 0.0
H784 H 0.71023 0.73141 0.43858 0.0
H785 H 0.76287 0.80326 0.44315 0.0
H786 H 0.76227 0.8062 0.37483 0.0
H787 H 0.72293 0.78841 0.51281 0.0
H788 H 0.80018 0.75376 0.42856 0.0
H789 H 0.81147 0.72814 0.37109 0.0
H790 H 0.76394 0.65872 0.40986 0.0
H791 H 0.75195 0.6844 0.46757 0.0
C792 C 0.80272 0.75467 0.64825 0.0
C793 C 0.80184 0.72754 0.66205 0.0
C794 C 0.79498 0.76016 0.61134 0.0
C795 C 0.78516 0.73871 0.58834 0.0
C796 C 0.78699 0.71126 0.60102 0.0
C797 C 0.79551 0.70568 0.63768 0.0
C798 C 0.77092 0.74512 0.55255 0.0
C799 C 0.77873 0.73065 0.5202 0.0
C800 C 0.74964 0.76539 0.55027 0.0
C801 C 0.73761 0.77844 0.58427 0.0
C802 C 0.72714 0.76195 0.61354 0.0
C803 C 0.71632 0.77424 0.64587 0.0
C804 C 0.71558 0.80302 0.6491 0.0
C805 C 0.72559 0.81957 0.61997 0.0
C806 C 0.73651 0.80739 0.58762 0.0
C807 C 0.72017 0.7501 0.38579 0.0
C808 C 0.73653 0.76985 0.3672 0.0
C809 C 0.72039 0.74863 0.42487 0.0
C810 C 0.73688 0.76693 0.44563 0.0
C811 C 0.74996 0.78903 0.42746 0.0
C812 C 0.74987 0.79046 0.38836 0.0
C813 C 0.74718 0.75844 0.48277 0.0
C814 C 0.73865 0.77245 0.51505 0.0
C815 C 0.76681 0.73687 0.48554 0.0
C816 C 0.77533 0.72087 0.45222 0.0
C817 C 0.7922 0.73302 0.42478 0.0
C818 C 0.79864 0.7185 0.3921 0.0
C819 C 0.78849 0.69172 0.38671 0.0
C820 C 0.7718 0.67945 0.41405 0.0
C821 C 0.76519 0.69397 0.44676 0.0
H822 H 0.79352 0.68044 0.36142 0.0
H823 H 0.7072 0.81251 0.67414 0.0
H824 H 0.4793 0.46936 0.10978 0.0
H825 H 0.4836 0.47606 0.17745 0.0
H826 H 0.56062 0.51958 0.16085 0.0
H827 H 0.55607 0.5136 0.09309 0.0
H828 H 0.5175 0.46873 0.23653 0.0
H829 H 0.55556 0.58169 0.21065 0.0
H830 H 0.55553 0.6159 0.15926 0.0
H831 H 0.48459 0.57644 0.11011 0.0
H832 H 0.48365 0.54268 0.16163 0.0
H833 H 0.5424 0.52384 0.41126 0.0
H834 H 0.55219 0.5182 0.34459 0.0
H835 H 0.47702 0.56205 0.31712 0.0
H836 H 0.46715 0.56805 0.38396 0.0
H837 H 0.51844 0.56956 0.26356 0.0
H838 H 0.47276 0.49751 0.32982 0.0
H839 H 0.46659 0.46426 0.38141 0.0
H840 H 0.54055 0.42154 0.34798 0.0
H841 H 0.54774 0.45522 0.29689 0.0
C842 C 0.49762 0.47952 0.12061 0.0
C843 C 0.51703 0.49155 0.09621 0.0
C844 C 0.50007 0.48331 0.15932 0.0
C845 C 0.52203 0.49898 0.17395 0.0
C846 C 0.54322 0.50793 0.14994 0.0
C847 C 0.5406 0.50448 0.11127 0.0
C848 C 0.52047 0.50957 0.21282 0.0
C849 C 0.51805 0.49072 0.24249 0.0
C850 C 0.52002 0.5384 0.22033 0.0
C851 C 0.51985 0.55932 0.18976 0.0
C852 C 0.53988 0.5804 0.18896 0.0
C853 C 0.54001 0.59975 0.15978 0.0
C854 C 0.52021 0.59824 0.13123 0.0
C855 C 0.50011 0.57749 0.13194 0.0
C856 C 0.49973 0.55827 0.1612 0.0
C857 C 0.52838 0.53306 0.39106 0.0
C858 C 0.50367 0.54581 0.40273 0.0
C859 C 0.53405 0.52986 0.353 0.0
C860 C 0.51496 0.53911 0.32613 0.0
C861 C 0.4919 0.55464 0.33757 0.0
C862 C 0.48627 0.558 0.37575 0.0
C863 C 0.51666 0.52867 0.28726 0.0
C864 C 0.51858 0.54756 0.2576 0.0
C865 C 0.51562 0.49991 0.27963 0.0
C866 C 0.51103 0.47918 0.3098 0.0
C867 C 0.48797 0.4813 0.33378 0.0
C868 C 0.48431 0.46239 0.36302 0.0
C869 C 0.50323 0.44086 0.36811 0.0
C870 C 0.52592 0.43826 0.34403 0.0
C871 C 0.52985 0.45731 0.31498 0.0
H872 H 0.50025 0.42612 0.3906 0.0
H873 H 0.52033 0.61325 0.1087 0.0
H874 H 0.23916 0.8457 0.13609 0.0
H875 H 0.24023 0.85378 0.06889 0.0
H876 H 0.3276 0.87219 0.0753 0.0
H877 H 0.32666 0.86347 0.14315 0.0
H878 H 0.25336 0.88784 0.01451 0.0
H879 H 0.35881 0.83342 0.00727 0.0
H880 H 0.38952 0.80561 0.04799 0.0
H881 H 0.31886 0.77476 0.10789 0.0
H882 H 0.28781 0.80198 0.06716 0.0
H883 H 0.26003 0.84888 0.82234 0.0
H884 H 0.27283 0.86927 0.88283 0.0
H885 H 0.27418 0.78771 0.93244 0.0
H886 H 0.26368 0.76737 0.8714 0.0
H887 H 0.31259 0.81357 0.96167 0.0
H888 H 0.21667 0.83738 0.93845 0.0
H889 H 0.17771 0.85824 0.90363 0.0
H890 H 0.21602 0.93814 0.91189 0.0
H891 H 0.25536 0.91765 0.94644 0.0
C892 C 0.25841 0.8524 0.1234 0.0
C893 C 0.28296 0.85333 0.14447 0.0
C894 C 0.25897 0.85723 0.08498 0.0
C895 C 0.28413 0.86293 0.06696 0.0
C896 C 0.30804 0.86742 0.08869 0.0
C897 C 0.30748 0.86256 0.12741 0.0
C898 C 0.28578 0.85844 0.02594 0.0
C899 C 0.26671 0.87203 0.00264 0.0
C900 C 0.30261 0.83721 0.0108 0.0
C901 C 0.32109 0.82009 0.03461 0.0
C902 C 0.34988 0.82064 0.02908 0.0
C903 C 0.36733 0.80498 0.05216 0.0
C904 C 0.35617 0.78864 0.08075 0.0
C905 C 0.32752 0.78763 0.08602 0.0
C906 C 0.30999 0.8031 0.06288 0.0
C907 C 0.2632 0.83543 0.84628 0.0
C908 C 0.26069 0.80665 0.84257 0.0
C909 C 0.27041 0.84706 0.88083 0.0
C910 C 0.27403 0.83014 0.91255 0.0
C911 C 0.2717 0.80129 0.9085 0.0
C912 C 0.26549 0.78965 0.87372 0.0
C913 C 0.27923 0.84213 0.95032 0.0
C914 C 0.29981 0.83005 0.97294 0.0
C915 C 0.26263 0.86364 0.96539 0.0
C916 C 0.23909 0.87594 0.94453 0.0
C917 C 0.21686 0.85936 0.93258 0.0
C918 C 0.1947 0.87112 0.91295 0.0
C919 C 0.19444 0.89948 0.90542 0.0
C920 C 0.21629 0.91616 0.91763 0.0
C921 C 0.23852 0.9045 0.93724 0.0
H922 H 0.17727 0.90855 0.89023 0.0
H923 H 0.36972 0.77661 0.09865 0.0
H924 H 0.04924 0.42652 0.84751 0.0
H925 H 0.03569 0.43127 0.78177 0.0
H926 H 0.95333 0.45539 0.81579 0.0
H927 H 0.96726 0.45197 0.88159 0.0
H928 H 1.00065 0.41451 0.73145 0.0
H929 H 0.93238 0.50966 0.76408 0.0
H930 H 0.92629 0.54439 0.81419 0.0
H931 H 0.01139 0.53441 0.84674 0.0
H932 H 0.01805 0.49995 0.79651 0.0
H933 H 0.96535 0.46355 0.55277 0.0
H934 H 0.95596 0.45116 0.618 0.0
H935 H 0.01022 0.51651 0.65528 0.0
H936 H 0.0192 0.52942 0.59045 0.0
H937 H 0.96973 0.51031 0.7036 0.0
H938 H 0.03555 0.45165 0.64089 0.0
H939 H 0.05189 0.42 0.59135 0.0
H940 H 0.98759 0.36228 0.61946 0.0
H941 H 0.97074 0.39376 0.66901 0.0
C942 C 0.02805 0.43207 0.84091 0.0
C943 C 0.00942 0.43938 0.86941 0.0
C944 C 0.02028 0.43476 0.80335 0.0
C945 C 0.9937 0.4444 0.79394 0.0
C946 C 0.97415 0.44861 0.82248 0.0
C947 C 0.98209 0.44656 0.85999 0.0
C948 C 0.98787 0.45349 0.75505 0.0
C949 C 0.99345 0.4353 0.72537 0.0
C950 C 0.97922 0.48091 0.74707 0.0
C951 C 0.97557 0.50199 0.77688 0.0
C952 C 0.94978 0.51496 0.78187 0.0
C953 C 0.94624 0.53459 0.81028 0.0
C954 C 0.96841 0.54152 0.83372 0.0
C955 C 0.99421 0.52896 0.82866 0.0
C956 C 0.99788 0.50939 0.80023 0.0
C957 C 0.97465 0.47579 0.57486 0.0
C958 C 0.99345 0.49713 0.56645 0.0
C959 C 0.96934 0.46861 0.61212 0.0
C960 C 0.98293 0.48249 0.64138 0.0
C961 C 0.99963 0.50543 0.6331 0.0
C962 C 1.0048 0.51273 0.59595 0.0
C963 C 0.98265 0.47138 0.68006 0.0
C964 C 0.97601 0.48923 0.70969 0.0
C965 C 0.99166 0.44411 0.68801 0.0
C966 C 1.00167 0.42518 0.65827 0.0
C967 C 0.02478 0.43229 0.63629 0.0
C968 C 0.03416 0.41438 0.60826 0.0
C969 C 0.02072 0.3892 0.60215 0.0
C970 C 0.99793 0.38183 0.62416 0.0
C971 C 0.98847 0.39969 0.65223 0.0
H972 H 0.02801 0.37535 0.58044 0.0
H973 H 0.9656 0.55668 0.85574 0.0
H974 H 0.24238 0.18251 0.36046 0.0
H975 H 0.24647 0.17228 0.4269 0.0
H976 H 0.32961 0.14202 0.40949 0.0
H977 H 0.32582 0.15289 0.34256 0.0
H978 H 0.25835 0.13583 0.47931 0.0
H979 H 0.37058 0.17557 0.47145 0.0
H980 H 0.40081 0.20163 0.42808 0.0
H981 H 0.32963 0.24291 0.38217 0.0
H982 H 0.29929 0.21753 0.42541 0.0
H983 H 0.28145 0.17752 0.66953 0.0
H984 H 0.28757 0.15345 0.60952 0.0
H985 H 0.29732 0.23229 0.55388 0.0
H986 H 0.29342 0.25591 0.61398 0.0
H987 H 0.3307 0.20061 0.52449 0.0
H988 H 0.23343 0.19076 0.55711 0.0
H989 H 0.19416 0.17568 0.59636 0.0
H990 H 0.22146 0.09137 0.58781 0.0
H991 H 0.26106 0.10604 0.54879 0.0
C992 C 0.26124 0.17286 0.37051 0.0
C993 C 0.2841 0.1693 0.34665 0.0
C994 C 0.26346 0.16673 0.40852 0.0
C995 C 0.28859 0.15702 0.42327 0.0
C996 C 0.31017 0.14989 0.39865 0.0
C997 C 0.30797 0.1561 0.36043 0.0
C998 C 0.29368 0.16046 0.46395 0.0
C999 C 0.27452 0.14949 0.48948 0.0
C1000 C 0.31434 0.17888 0.477 0.0
C1001 C 0.33269 0.19425 0.45107 0.0
C1002 C 0.36148 0.19019 0.45197 0.0
C1003 C 0.37863 0.20486 0.42741 0.0
C1004 C 0.36717 0.22374 0.40203 0.0
C1005 C 0.33856 0.22813 0.4014 0.0
C1006 C 0.32138 0.21364 0.42597 0.0
C1007 C 0.28503 0.18953 0.64434 0.0
C1008 C 0.28689 0.21847 0.64604 0.0
C1009 C 0.28843 0.17582 0.61011 0.0
C1010 C 0.2926 0.191 0.57696 0.0
C1011 C 0.29442 0.21999 0.57898 0.0
C1012 C 0.292 0.23355 0.61326 0.0
C1013 C 0.29431 0.17731 0.53974 0.0
C1014 C 0.3151 0.18606 0.51493 0.0
C1015 C 0.27402 0.15832 0.52696 0.0
C1016 C 0.25037 0.14952 0.55055 0.0
C1017 C 0.23115 0.16904 0.56386 0.0
C1018 C 0.20882 0.16057 0.58601 0.0
C1019 C 0.20538 0.1326 0.5947 0.0
C1020 C 0.22421 0.11303 0.58115 0.0
C1021 C 0.24659 0.12141 0.55903 0.0
H1022 H 0.18808 0.12607 0.61183 0.0
H1023 H 0.38046 0.23516 0.38313 0.0
H1024 H 0.02013 0.10434 0.04485 0.0
H1025 H 0.05404 0.13185 0.07943 0.0
H1026 H 0.11106 0.06312 0.07798 0.0
H1027 H 0.077 0.03526 0.04405 0.0
H1028 H 0.10887 0.08448 0.1457 0.0
H1029 H 0.11988 0.12166 0.02185 0.0
H1030 H 0.10489 0.14299 0.96236 0.0
H1031 H 0.07517 0.21412 0.02223 0.0
H1032 H 0.08965 0.19303 0.08216 0.0
H1033 H 0.23102 0.15399 0.2012 0.0
H1034 H 0.19557 0.12921 0.16595 0.0
H1035 H 0.13961 0.19807 0.17919 0.0
H1036 H 0.17521 0.22322 0.21461 0.0
H1037 H 0.13998 0.17795 0.10684 0.0
H1038 H 0.13062 0.14088 0.23067 0.0
H1039 H 0.14604 0.11925 0.28975 0.0
H1040 H 0.1732 0.04743 0.22921 0.0
H1041 H 0.15839 0.06883 0.16965 0.0
C1042 C 0.03997 0.09511 0.05158 0.0
C1043 C 0.04581 0.06754 0.0416 0.0
C1044 C 0.05942 0.11094 0.07128 0.0
C1045 C 0.08529 0.09971 0.08109 0.0
C1046 C 0.09127 0.07229 0.07078 0.0
C1047 C 0.07178 0.05639 0.05125 0.0
C1048 C 0.10568 0.11609 0.10334 0.0
C1049 C 0.11595 0.10475 0.13687 0.0
C1050 C 0.11437 0.14294 0.09252 0.0
C1051 C 0.10558 0.15562 0.05653 0.0
C1052 C 0.10993 0.14174 0.02237 0.0
C1053 C 0.10157 0.15381 0.98856 0.0
C1054 C 0.08901 0.17986 0.98853 0.0
C1055 C 0.08486 0.19392 0.02231 0.0
C1056 C 0.09315 0.18193 0.0562 0.0
C1057 C 0.21115 0.1639 0.19684 0.0
C1058 C 0.20591 0.19055 0.21105 0.0
C1059 C 0.19085 0.14963 0.17672 0.0
C1060 C 0.16479 0.16161 0.17027 0.0
C1061 C 0.15953 0.18835 0.18399 0.0
C1062 C 0.17984 0.20264 0.20441 0.0
C1063 C 0.14329 0.14617 0.1489 0.0
C1064 C 0.13282 0.15769 0.11563 0.0
C1065 C 0.13447 0.11943 0.15985 0.0
C1066 C 0.14363 0.10659 0.19562 0.0
C1067 C 0.14014 0.12059 0.22989 0.0
C1068 C 0.14873 0.10835 0.26348 0.0
C1069 C 0.16065 0.08201 0.26322 0.0
C1070 C 0.164 0.06785 0.22936 0.0
C1071 C 0.1555 0.08003 0.19568 0.0
H1072 H 0.16724 0.07255 0.28926 0.0
H1073 H 0.08256 0.18917 0.96233 0.0
H1074 H 0.07451 0.99137 0.43532 0.0
H1075 H 0.10733 0.96234 0.40107 0.0
H1076 H 0.04696 0.89675 0.39641 0.0
H1077 H 0.01404 0.92557 0.43109 0.0
H1078 H 0.09873 0.8767 0.41195 0.0
H1079 H 0.05782 0.93785 0.32086 0.0
H1080 H 0.04396 0.98293 0.29444 0.0
H1081 H 0.12903 0.00875 0.29222 0.0
H1082 H 0.14337 0.96396 0.31917 0.0
H1083 H 0.17148 0.80057 0.26983 0.0
H1084 H 0.1351 0.82617 0.30325 0.0
H1085 H 0.18943 0.8966 0.31268 0.0
H1086 H 0.22553 0.87146 0.27935 0.0
H1087 H 0.13828 0.91245 0.29304 0.0
H1088 H 0.17966 0.85388 0.38642 0.0
H1089 H 0.19522 0.80922 0.4125 0.0
H1090 H 0.1115 0.77935 0.41129 0.0
H1091 H 0.09546 0.82373 0.38471 0.0
C1092 C 0.0682 0.97073 0.42721 0.0
C1093 C 0.04152 0.96091 0.4358 0.0
C1094 C 0.08699 0.95417 0.40749 0.0
C1095 C 0.0795 0.92747 0.39566 0.0
C1096 C 0.05319 0.91729 0.40513 0.0
C1097 C 0.03436 0.93385 0.42488 0.0
C1098 C 0.09889 0.91055 0.37262 0.0
C1099 C 0.10705 0.88434 0.38566 0.0
C1100 C 0.11022 0.92069 0.33865 0.0
C1101 C 0.10164 0.94763 0.32236 0.0
C1102 C 0.07355 0.95322 0.31502 0.0
C1103 C 0.06562 0.9787 0.2999 0.0
C1104 C 0.0856 0.99871 0.29174 0.0
C1105 C 0.11357 0.99325 0.2986 0.0
C1106 C 0.12162 0.9678 0.31377 0.0
C1107 C 0.17554 0.82159 0.27873 0.0
C1108 C 0.20145 0.83391 0.27196 0.0
C1109 C 0.15481 0.83614 0.29805 0.0
C1110 C 0.15963 0.86324 0.31082 0.0
C1111 C 0.1852 0.87574 0.30316 0.0
C1112 C 0.20588 0.86125 0.28412 0.0
C1113 C 0.13834 0.87875 0.33251 0.0
C1114 C 0.12981 0.90472 0.3192 0.0
C1115 C 0.12693 0.86848 0.36635 0.0
C1116 C 0.13641 0.842 0.3831 0.0
C1117 C 0.16458 0.83772 0.39147 0.0
C1118 C 0.17349 0.81248 0.40637 0.0
C1119 C 0.15437 0.79142 0.41328 0.0
C1120 C 0.12628 0.79566 0.40574 0.0
C1121 C 0.11727 0.82086 0.39079 0.0
H1122 H 0.16133 0.7718 0.42443 0.0
H1123 H 0.07941 0.01842 0.28002 0.0
H1124 H 0.35135 0.75514 0.69268 0.0
H1125 H 0.38727 0.78057 0.65813 0.0
H1126 H 0.33849 0.85511 0.66623 0.0
H1127 H 0.30271 0.83004 0.69991 0.0
H1128 H 0.35631 0.84876 0.59705 0.0
H1129 H 0.39692 0.8434 0.72095 0.0
H1130 H 0.41475 0.81952 0.77715 0.0
H1131 H 0.47486 0.77694 0.70972 0.0
H1132 H 0.45712 0.80034 0.65301 0.0
H1133 H 0.44325 0.96018 0.56339 0.0
H1134 H 0.416 0.92547 0.59611 0.0
H1135 H 0.47299 0.86196 0.56073 0.0
H1136 H 0.50086 0.89691 0.52778 0.0
H1137 H 0.45444 0.85648 0.6373 0.0
H1138 H 0.41609 0.86696 0.5143 0.0
H1139 H 0.3982 0.89259 0.45961 0.0
H1140 H 0.33346 0.9273 0.52745 0.0
H1141 H 0.35121 0.90219 0.58273 0.0
C1142 C 0.34842 0.77698 0.68729 0.0
C1143 C 0.32408 0.79049 0.69905 0.0
C1144 C 0.36899 0.79152 0.66759 0.0
C1145 C 0.36564 0.81982 0.65956 0.0
C1146 C 0.34154 0.83328 0.67179 0.0
C1147 C 0.32107 0.81886 0.69124 0.0
C1148 C 0.38665 0.83572 0.63779 0.0
C1149 C 0.37771 0.8505 0.60607 0.0
C1150 C 0.41485 0.83743 0.64869 0.0
C1151 C 0.42546 0.82333 0.6827 0.0
C1152 C 0.41377 0.82875 0.71807 0.0
C1153 C 0.42389 0.81535 0.75002 0.0
C1154 C 0.44585 0.79664 0.74698 0.0
C1155 C 0.4578 0.79138 0.71201 0.0
C1156 C 0.44773 0.80471 0.67996 0.0
C1157 C 0.45016 0.93888 0.56249 0.0
C1158 C 0.47407 0.93131 0.54241 0.0
C1159 C 0.43454 0.91904 0.58135 0.0
C1160 C 0.44226 0.89109 0.58048 0.0
C1161 C 0.46664 0.88343 0.56166 0.0
C1162 C 0.4824 0.90339 0.54265 0.0
C1163 C 0.42372 0.87006 0.59755 0.0
C1164 C 0.43312 0.85433 0.62812 0.0
C1165 C 0.39582 0.86759 0.58588 0.0
C1166 C 0.38512 0.88284 0.55274 0.0
C1167 C 0.39822 0.88029 0.51766 0.0
C1168 C 0.38806 0.89467 0.48653 0.0
C1169 C 0.36475 0.91161 0.49007 0.0
C1170 C 0.35153 0.91418 0.52476 0.0
C1171 C 0.36161 0.89986 0.556 0.0
H1172 H 0.3569 0.9227 0.46592 0.0
H1173 H 0.45367 0.78629 0.77175 0.0
H1174 H 0.39146 0.26594 0.78317 0.0
H1175 H 0.42459 0.23929 0.82123 0.0
H1176 H 0.36692 0.17133 0.82569 0.0
H1177 H 0.33406 0.19743 0.78794 0.0
H1178 H 0.38552 0.18707 0.89561 0.0
H1179 H 0.42337 0.16667 0.77295 0.0
H1180 H 0.44374 0.17858 0.71163 0.0
H1181 H 0.51188 0.21861 0.76685 0.0
H1182 H 0.49169 0.20726 0.82855 0.0
H1183 H 0.45453 0.06874 0.95937 0.0
H1184 H 0.43029 0.1035 0.92233 0.0
H1185 H 0.50058 0.15808 0.93136 0.0
H1186 H 0.52525 0.12309 0.9686 0.0
H1187 H 0.47967 0.15595 0.85908 0.0
H1188 H 0.44436 0.17174 0.98186 0.0
H1189 H 0.42396 0.15986 0.04315 0.0
H1190 H 0.35088 0.12938 0.98832 0.0
H1191 H 0.371 0.14066 0.92664 0.0
C1192 C 0.38606 0.24516 0.79179 0.0
C1193 C 0.36 0.23394 0.7827 0.0
C1194 C 0.405 0.22996 0.81352 0.0
C1195 C 0.39813 0.20338 0.8265 0.0
C1196 C 0.37258 0.19186 0.81626 0.0
C1197 C 0.35381 0.20688 0.79456 0.0
C1198 C 0.41658 0.18775 0.85234 0.0
C1199 C 0.40605 0.18013 0.88754 0.0
C1200 C 0.44375 0.17957 0.84238 0.0
C1201 C 0.45583 0.18645 0.80534 0.0
C1202 C 0.44255 0.17826 0.77201 0.0
C1203 C 0.45409 0.18485 0.73719 0.0
C1204 C 0.47903 0.19943 0.73534 0.0
C1205 C 0.49252 0.20738 0.76833 0.0
C1206 C 0.48105 0.20087 0.80322 0.0
C1207 C 0.46488 0.08816 0.95375 0.0
C1208 C 0.4918 0.09317 0.96726 0.0
C1209 C 0.45092 0.10808 0.93259 0.0
C1210 C 0.46346 0.13355 0.92441 0.0
C1211 C 0.49045 0.13862 0.9375 0.0
C1212 C 0.50444 0.11868 0.95896 0.0
C1213 C 0.44819 0.15451 0.90185 0.0
C1214 C 0.45931 0.16322 0.8674 0.0
C1215 C 0.42149 0.16378 0.91249 0.0
C1216 C 0.40931 0.15686 0.94957 0.0
C1217 C 0.42404 0.16228 0.98283 0.0
C1218 C 0.4125 0.15569 0.01766 0.0
C1219 C 0.38616 0.14382 0.01963 0.0
C1220 C 0.37129 0.13855 0.98676 0.0
C1221 C 0.38274 0.14507 0.95185 0.0
H1222 H 0.37726 0.13876 0.04662 0.0
H1223 H 0.48795 0.2045 0.70836 0.0
H1224 H 0.90575 0.9815 0.95283 0.0
H1225 H 0.87854 0.94465 0.92415 0.0
H1226 H 0.94985 0.89091 0.92618 0.0
H1227 H 0.97744 0.92789 0.95496 0.0
H1228 H 0.92258 0.89038 0.8577 0.0
H1229 H 0.89875 0.8807 0.98754 0.0
H1230 H 0.88321 0.89726 0.04949 0.0
H1231 H 0.80529 0.92211 0.00205 0.0
H1232 H 0.82052 0.90608 0.93967 0.0
H1233 H 0.84921 0.76705 0.8121 0.0
H1234 H 0.878 0.80245 0.84148 0.0
H1235 H 0.80709 0.8564 0.84984 0.0
H1236 H 0.77799 0.82088 0.82079 0.0
H1237 H 0.83514 0.85618 0.91402 0.0
H1238 H 0.85836 0.86667 0.78456 0.0
H1239 H 0.87432 0.8535 0.72138 0.0
H1240 H 0.95334 0.82971 0.76641 0.0
H1241 H 0.93766 0.84219 0.83003 0.0
C1242 C 0.91571 0.96182 0.94742 0.0
C1243 C 0.94382 0.95765 0.95634 0.0
C1244 C 0.90004 0.94072 0.93109 0.0
C1245 C 0.91207 0.91492 0.92328 0.0
C1246 C 0.94013 0.91064 0.93204 0.0
C1247 C 0.95583 0.93175 0.94865 0.0
C1248 C 0.89534 0.89274 0.90529 0.0
C1249 C 0.90372 0.88248 0.87028 0.0
C1250 C 0.87028 0.88312 0.92122 0.0
C1251 C 0.86088 0.89239 0.95884 0.0
C1252 C 0.87837 0.88986 0.99025 0.0
C1253 C 0.86961 0.89913 0.02546 0.0
C1254 C 0.84331 0.91079 0.02968 0.0
C1255 C 0.82567 0.9131 -0.00127 0.0
C1256 C 0.83435 0.9039 0.96344 0.0
C1257 C 0.83969 0.78648 0.81999 0.0
C1258 C 0.81122 0.79108 0.81398 0.0
C1259 C 0.85627 0.80679 0.83668 0.0
C1260 C 0.84484 0.83227 0.8476 0.0
C1261 C 0.81642 0.83694 0.84165 0.0
C1262 C 0.79981 0.81662 0.82492 0.0
C1263 C 0.86233 0.85368 0.86622 0.0
C1264 C 0.85407 0.86386 0.90142 0.0
C1265 C 0.88747 0.86332 0.85032 0.0
C1266 C 0.89667 0.85501 0.81221 0.0
C1267 C 0.879 0.85826 0.78111 0.0
C1268 C 0.88802 0.85098 0.74518 0.0
C1269 C 0.91478 0.84065 0.73991 0.0
C1270 C 0.93257 0.83759 0.77056 0.0
C1271 C 0.92362 0.84475 0.80657 0.0
H1272 H 0.92176 0.83513 0.71205 0.0
H1273 H 0.83658 0.91798 0.05696 0.0
H1274 H 0.78628 0.20475 0.66894 0.0
H1275 H 0.81925 0.17277 0.64096 0.0
H1276 H 0.88471 0.23242 0.65558 0.0
H1277 H 0.85153 0.26497 0.68369 0.0
H1278 H 0.88649 0.20756 0.58574 0.0
H1279 H 0.8826 0.17755 0.71302 0.0
H1280 H 0.86093 0.16343 0.77262 0.0
H1281 H 0.82169 0.09498 0.7173 0.0
H1282 H 0.84285 0.10889 0.65723 0.0
H1283 H 0.98435 0.10142 0.53341 0.0
H1284 H 0.96054 0.13872 0.56712 0.0
H1285 H 0.8857 0.09007 0.56923 0.0
H1286 H 0.90931 0.05276 0.53629 0.0
H1287 H 0.89494 0.11227 0.63612 0.0
H1288 H 0.89518 0.14524 0.50768 0.0
H1289 H 0.9173 0.15898 0.44819 0.0
H1290 H 0.96373 0.22166 0.50588 0.0
H1291 H 0.94211 0.20804 0.56582 0.0
C1292 C 0.80766 0.21122 0.66632 0.0
C1293 C 0.81621 0.23749 0.67877 0.0
C1294 C 0.82656 0.19277 0.6504 0.0
C1295 C 0.85457 0.19999 0.6466 0.0
C1296 C 0.86322 0.22635 0.65838 0.0
C1297 C 0.84424 0.2449 0.67451 0.0
C1298 C 0.87444 0.17979 0.63005 0.0
C1299 C 0.88877 0.18688 0.59714 0.0
C1300 C 0.8772 0.15268 0.64459 0.0
C1301 C 0.86413 0.14442 0.68055 0.0
C1302 C 0.86912 0.15965 0.71348 0.0
C1303 C 0.85699 0.15164 0.74737 0.0
C1304 C 0.83989 0.12836 0.74873 0.0
C1305 C 0.83491 0.11302 0.7162 0.0
C1306 C 0.84699 0.12095 0.68222 0.0
C1307 C 0.96279 0.09874 0.5409 0.0
C1308 C 0.94876 0.07407 0.53201 0.0
C1309 C 0.94917 0.12011 0.56013 0.0
C1310 C 0.92122 0.11733 0.57058 0.0
C1311 C 0.90726 0.09274 0.56163 0.0
C1312 C 0.92081 0.07141 0.54258 0.0
C1313 C 0.90627 0.1397 0.59108 0.0
C1314 C 0.89293 0.13303 0.62489 0.0
C1315 C 0.90442 0.16713 0.57729 0.0
C1316 C 0.91727 0.17542 0.54126 0.0
C1317 C 0.91026 0.16181 0.50771 0.0
C1318 C 0.92268 0.1696 0.47391 0.0
C1319 C 0.94197 0.19112 0.47327 0.0
C1320 C 0.94882 0.20496 0.50642 0.0
C1321 C 0.93648 0.19723 0.54031 0.0
H1322 H 0.95157 0.19712 0.44708 0.0
H1323 H 0.83054 0.12218 0.775 0.0
H1324 H 0.67511 0.20758 0.28659 0.0
H1325 H 0.65069 0.17178 0.3215 0.0
H1326 H 0.72571 0.12369 0.32842 0.0
H1327 H 0.7508 0.16005 0.2941 0.0
H1328 H 0.67168 0.09539 0.30149 0.0
H1329 H 0.71122 0.14291 0.40904 0.0
H1330 H 0.72383 0.18316 0.44805 0.0
H1331 H 0.63927 0.21074 0.44694 0.0
H1332 H 0.62606 0.17021 0.40871 0.0
H1333 H 0.60205 1.00081 0.42697 0.0
H1334 H 0.63664 0.02995 0.39567 0.0
H1335 H 0.58265 0.10057 0.4073 0.0
H1336 H 0.54847 0.07194 0.43894 0.0
H1337 H 0.63287 0.11411 0.4278 0.0
H1338 H 0.59249 0.06672 0.32207 0.0
H1339 H 0.57857 0.02648 0.28397 0.0
H1340 H 0.66328 0.99974 0.27806 0.0
H1341 H 0.67769 0.03969 0.31649 0.0
C1342 C 0.68656 0.18947 0.29552 0.0
C1343 C 0.715 0.18678 0.28765 0.0
C1344 C 0.67254 0.16905 0.31559 0.0
C1345 C 0.68642 0.14519 0.32763 0.0
C1346 C 0.71468 0.14205 0.3194 0.0
C1347 C 0.72895 0.16281 0.29983 0.0
C1348 C 0.67079 0.1236 0.34816 0.0
C1349 C 0.66367 0.09906 0.32949 0.0
C1350 C 0.65981 0.12882 0.38415 0.0
C1351 C 0.66772 0.15368 0.40591 0.0
C1352 C 0.69536 0.15764 0.417 0.0
C1353 C 0.70256 0.18036 0.43922 0.0
C1354 C 0.68237 0.19951 0.44994 0.0
C1355 C 0.65488 0.19587 0.43867 0.0
C1356 C 0.64749 0.17293 0.41696 0.0
C1357 C 0.59754 0.02253 0.4227 0.0
C1358 C 0.57251 0.03403 0.43562 0.0
C1359 C 0.61729 0.03915 0.40467 0.0
C1360 C 0.61224 0.0675 0.39897 0.0
C1361 C 0.58713 0.07883 0.41151 0.0
C1362 C 0.56754 0.06235 0.42958 0.0
C1363 C 0.63318 0.08582 0.381 0.0
C1364 C 0.6412 0.10995 0.4001 0.0
C1365 C 0.64476 0.08021 0.34526 0.0
C1366 C 0.63611 0.05599 0.32258 0.0
C1367 C 0.60811 0.0521 0.31298 0.0
C1368 C 0.60015 0.02938 0.29124 0.0
C1369 C 0.62003 0.01049 0.27874 0.0
C1370 C 0.64792 0.01433 0.28787 0.0
C1371 C 0.65599 0.03703 0.30959 0.0
H1372 H 0.61384 0.99293 0.26188 0.0
H1373 H 0.68805 0.2172 0.46689 0.0
H1374 H 0.76541 0.86599 0.21897 0.0
H1375 H 0.73615 0.9014 0.18955 0.0
H1376 H 0.67109 0.84131 0.17483 0.0
H1377 H 0.70004 0.80595 0.20406 0.0
H1378 H 0.67994 0.8711 0.11128 0.0
H1379 H 0.66682 0.8896 0.24307 0.0
H1380 H 0.68138 0.90078 0.30764 0.0
H1381 H 0.71781 0.97661 0.26909 0.0
H1382 H 0.70371 0.96573 0.20419 0.0
H1383 H 0.56197 0.94989 0.07119 0.0
H1384 H 0.59602 0.92012 0.1014 0.0
H1385 H 0.65204 0.98912 0.112 0.0
H1386 H 0.61766 0.01941 0.08206 0.0
H1387 H 0.6518 0.95777 0.17535 0.0
H1388 H 0.66242 0.94099 0.0443 0.0
H1389 H 0.64713 0.93042 0.97986 0.0
H1390 H 0.61606 0.85174 0.01644 0.0
H1391 H 0.63079 0.862 0.08124 0.0
C1392 C 0.74487 0.86032 0.20948 0.0
C1393 C 0.7351 0.83309 0.21392 0.0
C1394 C 0.72812 0.88063 0.19283 0.0
C1395 C 0.70133 0.87407 0.18016 0.0
C1396 C 0.69166 0.84688 0.18436 0.0
C1397 C 0.70826 0.82667 0.2012 0.0
C1398 C 0.6834 0.89521 0.16183 0.0
C1399 C 0.67361 0.88993 0.12544 0.0
C1400 C 0.67582 0.92024 0.17978 0.0
C1401 C 0.68454 0.92667 0.21871 0.0
C1402 C 0.67819 0.90852 0.2483 0.0
C1403 C 0.68629 0.91484 0.28497 0.0
C1404 C 0.7006 0.93934 0.29244 0.0
C1405 C 0.7068 0.95759 0.26325 0.0
C1406 C 0.69873 0.95138 0.22653 0.0
C1407 C 0.5815 0.95887 0.07993 0.0
C1408 C 0.58713 0.98707 0.07387 0.0
C1409 C 0.60102 0.94173 0.09713 0.0
C1410 C 0.62683 0.95221 0.1084 0.0
C1411 C 0.63233 0.98051 0.10335 0.0
C1412 C 0.61268 0.99779 0.08615 0.0
C1413 C 0.64794 0.93336 0.12508 0.0
C1414 C 0.65836 0.93907 0.16105 0.0
C1415 C 0.65624 0.90873 0.10672 0.0
C1416 C 0.64753 0.90237 0.0677 0.0
C1417 C 0.65215 0.92151 0.03866 0.0
C1418 C 0.64361 0.91556 0.00206 0.0
C1419 C 0.63058 0.89045 -0.00593 0.0
C1420 C 0.62613 0.87119 0.02267 0.0
C1421 C 0.63461 0.87705 0.05934 0.0
H1422 H 0.62398 0.88589 0.96572 0.0
H1423 H 0.70681 0.94422 0.32086 0.0
H1424 H 0.52272 0.58962 0.56503 0.0
H1425 H 0.55568 0.61774 0.60002 0.0
H1426 H 0.60981 0.54723 0.61153 0.0
H1427 H 0.57645 0.51863 0.57708 0.0
H1428 H 0.60739 0.57447 0.67565 0.0
H1429 H 0.62327 0.60002 0.54812 0.0
H1430 H 0.61111 0.61577 0.48441 0.0
H1431 H 0.58088 0.69251 0.52916 0.0
H1432 H 0.59249 0.67704 0.59324 0.0
H1433 H 0.72864 0.64864 0.72662 0.0
H1434 H 0.69382 0.62043 0.69527 0.0
H1435 H 0.63834 0.69032 0.69166 0.0
H1436 H 0.6734 0.71898 0.72295 0.0
H1437 H 0.64107 0.66367 0.62427 0.0
H1438 H 0.62767 0.63716 0.75281 0.0
H1439 H 0.64164 0.62037 0.81535 0.0
H1440 H 0.6697 0.54402 0.76692 0.0
H1441 H 0.65632 0.56054 0.70399 0.0
C1442 C 0.54163 0.58001 0.5749 0.0
C1443 C 0.54697 0.55184 0.56797 0.0
C1444 C 0.56058 0.59622 0.59482 0.0
C1445 C 0.58553 0.58481 0.60795 0.0
C1446 C 0.59077 0.55657 0.60159 0.0
C1447 C 0.57171 0.54025 0.58178 0.0
C1448 C 0.60593 0.60233 0.62857 0.0
C1449 C 0.61504 0.59379 0.66416 0.0
C1450 C 0.61554 0.62788 0.61403 0.0
C1451 C 0.60848 0.63724 0.57553 0.0
C1452 C 0.61381 0.62015 0.54442 0.0
C1453 C 0.60706 0.62905 0.50823 0.0
C1454 C 0.59516 0.65509 0.50275 0.0
C1455 C 0.59005 0.67232 0.53345 0.0
C1456 C 0.59673 0.66351 0.56971 0.0
C1457 C 0.70898 0.65807 0.71945 0.0
C1458 C 0.70382 0.68612 0.72749 0.0
C1459 C 0.689 0.64181 0.70162 0.0
C1460 C 0.66329 0.6531 0.69143 0.0
C1461 C 0.65799 0.6811 0.6994 0.0
C1462 C 0.67799 0.69743 0.71744 0.0
C1463 C 0.64246 0.63583 0.67135 0.0
C1464 C 0.63333 0.64441 0.6358 0.0
C1465 C 0.63309 0.61016 0.68576 0.0
C1466 C 0.64122 0.60022 0.72361 0.0
C1467 C 0.63705 0.6169 0.75544 0.0
C1468 C 0.64483 0.60741 0.79097 0.0
C1469 C 0.65661 0.58118 0.79509 0.0
C1470 C 0.66061 0.56435 0.76369 0.0
C1471 C 0.65292 0.57377 0.72808 0.0
H1472 H 0.66259 0.57386 0.82263 0.0
H1473 H 0.58996 0.66195 0.47471 0.0
H1474 H 0.55159 0.44948 0.94216 0.0
H1475 H 0.58808 0.42333 0.91119 0.0
H1476 H 0.63522 0.49817 0.89564 0.0
H1477 H 0.59833 0.5248 0.92641 0.0
H1478 H 0.63608 0.4668 0.83287 0.0
H1479 H 0.65461 0.45152 0.96203 0.0
H1480 H 0.64445 0.43983 0.02791 0.0
H1481 H 0.61988 0.35804 -0.00509 0.0
H1482 H 0.62947 0.36936 0.92873 0.0
H1483 H 0.75088 0.37886 0.77428 0.0
H1484 H 0.72395 0.41368 0.80911 0.0
H1485 H 0.65975 0.35345 0.82869 0.0
H1486 H 0.68609 0.31897 0.79395 0.0
H1487 H 0.67443 0.38251 0.89301 0.0
H1488 H 0.65181 0.40046 0.76289 0.0
H1489 H 0.66204 0.41281 0.69725 0.0
H1490 H 0.69551 0.4907 0.73318 0.0
H1491 H 0.68597 0.47857 0.79915 0.0
C1492 C 0.5697 0.46051 0.9323 0.0
C1493 C 0.57202 0.48931 0.93702 0.0
C1494 C 0.59067 0.44543 0.91469 0.0
C1495 C 0.61468 0.45864 0.90157 0.0
C1496 C 0.61698 0.48747 0.9057 0.0
C1497 C 0.5959 0.50266 0.9234 0.0
C1498 C 0.63695 0.4421 0.88317 0.0
C1499 C 0.64493 0.4487 0.84633 0.0
C1500 C 0.64839 0.41833 0.90052 0.0
C1501 C 0.64259 0.41137 0.94034 0.0
C1502 C 0.64684 0.4311 0.96877 0.0
C1503 C 0.64121 0.42453 0.00618 0.0
C1504 C 0.63148 0.39823 0.01558 0.0
C1505 C 0.62741 0.37842 0.98758 0.0
C1506 C 0.63297 0.38489 0.95011 0.0
C1507 C 0.73104 0.3731 0.78608 0.0
C1508 C 0.72061 0.34615 0.7812 0.0
C1509 C 0.71565 0.39301 0.80586 0.0
C1510 C 0.68978 0.38618 0.82142 0.0
C1511 C 0.67964 0.35921 0.81699 0.0
C1512 C 0.69473 0.33952 0.79693 0.0
C1513 C 0.67291 0.40677 0.84245 0.0
C1514 C 0.66597 0.4009 0.87983 0.0
C1515 C 0.66261 0.43126 0.82565 0.0
C1516 C 0.6686 0.4384 0.78603 0.0
C1517 C 0.66169 0.42006 0.75686 0.0
C1518 C 0.6673 0.42705 0.71957 0.0
C1519 C 0.67955 0.45246 0.71106 0.0
C1520 C 0.68614 0.47097 0.73982 0.0
C1521 C 0.68066 0.46403 0.77717 0.0
H1522 H 0.68382 0.45785 0.68217 0.0
H1523 H 0.62714 0.39318 0.04457 0.0
H1524 H 0.77564 0.32005 0.15213 0.0
H1525 H 0.8086 0.34963 0.11924 0.0
H1526 H 0.87646 0.30333 0.16688 0.0
H1527 H 0.84353 0.27363 0.20009 0.0
H1528 H 0.88647 0.35698 0.17259 0.0
H1529 H 0.85991 0.29656 0.07362 0.0
H1530 H 0.8302 0.27103 0.02926 0.0
H1531 H 0.79655 0.34752 0.98841 0.0
H1532 H 0.82601 0.37355 0.03265 0.0
H1533 H 0.9891 0.39855 0.03547 0.0
H1534 H 0.95476 0.371 0.06912 0.0
H1535 H 0.89649 0.43836 0.06251 0.0
H1536 H 0.93114 0.46661 0.02954 0.0
H1537 H 0.88163 0.37541 0.03581 0.0
H1538 H 0.90783 0.43456 0.14212 0.0
H1539 H 0.94148 0.45734 0.18413 0.0
H1540 H 0.97997 0.37901 0.20682 0.0
H1541 H 0.9462 0.35573 0.16536 0.0
C1542 C 0.79758 0.31608 0.15563 0.0
C1543 C 0.80691 0.29445 0.17889 0.0
C1544 C 0.81643 0.33294 0.13655 0.0
C1545 C 0.84508 0.32864 0.14028 0.0
C1546 C 0.85447 0.30709 0.16351 0.0
C1547 C 0.8356 0.29008 0.18246 0.0
C1548 C 0.86517 0.34724 0.12102 0.0
C1549 C 0.88545 0.36074 0.14262 0.0
C1550 C 0.86383 0.35257 0.08194 0.0
C1551 C 0.84501 0.337 0.05669 0.0
C1552 C 0.84597 0.30794 0.05547 0.0
C1553 C 0.82934 0.29339 0.03014 0.0
C1554 C 0.81164 0.30766 0.00587 0.0
C1555 C 0.81039 0.33651 0.00708 0.0
C1556 C 0.82707 0.35118 0.03224 0.0
C1557 C 0.96901 0.40762 0.04112 0.0
C1558 C 0.96289 0.43483 0.02975 0.0
C1559 C 0.94946 0.39184 0.06052 0.0
C1560 C 0.92319 0.40269 0.06835 0.0
C1561 C 0.91675 0.4297 0.05679 0.0
C1562 C 0.93654 0.44576 0.03795 0.0
C1563 C 0.90234 0.38521 0.08753 0.0
C1564 C 0.8822 0.37177 0.06584 0.0
C1565 C 0.90402 0.37959 0.12632 0.0
C1566 C 0.92466 0.39349 0.15054 0.0
C1567 C 0.92355 0.42224 0.15598 0.0
C1568 C 0.94248 0.43519 0.17991 0.0
C1569 C 0.96284 0.41962 0.19817 0.0
C1570 C 0.96417 0.39103 0.19272 0.0
C1571 C 0.94504 0.37793 0.16919 0.0
H1572 H 0.97764 0.42973 0.2164 0.0
H1573 H 0.79875 0.29634 0.98632 0.0
H1574 H 0.96611 0.55199 0.41927 0.0
H1575 H 0.93584 0.58723 0.39263 0.0
H1576 H 0.99965 0.64859 0.40775 0.0
H1577 H 0.03035 0.61321 0.43459 0.0
H1578 H 0.91653 0.63352 0.42708 0.0
H1579 H 0.9899 0.69822 0.33562 0.0
H1580 H 0.03343 0.69291 0.30009 0.0
H1581 H 0.01614 0.60666 0.28363 0.0
H1582 H 0.97236 0.61154 0.31859 0.0
H1583 H 0.8722 0.76416 0.31024 0.0
H1584 H 0.90854 0.73577 0.33949 0.0
H1585 H 0.85532 0.66436 0.33326 0.0
H1586 H 0.81946 0.6922 0.30329 0.0
H1587 H 0.93615 0.68943 0.31354 0.0
H1588 H 0.86278 0.62606 0.40977 0.0
H1589 H 0.82435 0.63194 0.45468 0.0
H1590 H 0.84514 0.71772 0.46765 0.0
H1591 H 0.88345 0.71244 0.4224 0.0
C1592 C 0.97388 0.57292 0.41685 0.0
C1593 C 1.00071 0.57973 0.42922 0.0
C1594 C 0.95647 0.59309 0.40161 0.0
C1595 C 0.96546 0.62055 0.398 0.0
C1596 C 0.99235 0.62747 0.40989 0.0
C1597 C 0.00982 0.60725 0.4254 0.0
C1598 C 0.94599 0.64186 0.38333 0.0
C1599 C 0.9207 0.64549 0.40195 0.0
C1600 C 0.95191 0.65838 0.35153 0.0
C1601 C 0.97804 0.6552 0.33014 0.0
C1602 C 0.99537 0.67814 0.32434 0.0
C1603 C 0.02009 0.6752 0.3043 0.0
C1604 C 0.0276 0.64944 0.28974 0.0
C1605 C 0.01036 0.62657 0.29507 0.0
C1606 C 0.98562 0.62941 0.31505 0.0
C1607 C 0.86832 0.74238 0.31493 0.0
C1608 C 0.84275 0.73055 0.30479 0.0
C1609 C 0.88907 0.72621 0.33178 0.0
C1610 C 0.88449 0.69803 0.33922 0.0
C1611 C 0.85917 0.68615 0.32854 0.0
C1612 C 0.83868 0.70213 0.31126 0.0
C1613 C 0.90631 0.68049 0.3568 0.0
C1614 C 0.93203 0.67756 0.33876 0.0
C1615 C 0.90097 0.66471 0.38942 0.0
C1616 C 0.87585 0.66887 0.41258 0.0
C1617 C 0.8589 0.64626 0.42184 0.0
C1618 C 0.83722 0.64946 0.44742 0.0
C1619 C 0.8325 0.67511 0.46423 0.0
C1620 C 0.84891 0.69783 0.45467 0.0
C1621 C 0.87043 0.69482 0.42876 0.0
H1622 H 0.8161 0.67735 0.48464 0.0
H1623 H 0.04675 0.64721 0.27426 0.0
H1624 H 0.34914 0.26013 0.31708 0.0
H1625 H 0.37827 0.29354 0.35011 0.0
H1626 H 0.31052 0.35161 0.35222 0.0
H1627 H 0.2808 0.31791 0.32015 0.0
H1628 H 0.36396 0.3724 0.32419 0.0
H1629 H 0.32446 0.32338 0.42908 0.0
H1630 H 0.3129 0.28248 0.46728 0.0
H1631 H 0.39929 0.26307 0.47842 0.0
H1632 H 0.41139 0.30362 0.43974 0.0
H1633 H 0.41578 0.47513 0.44458 0.0
H1634 H 0.3888 0.43956 0.41301 0.0
H1635 H 0.45185 0.37915 0.43848 0.0
H1636 H 0.47897 0.41479 0.47091 0.0
H1637 H 0.40222 0.35797 0.45196 0.0
H1638 H 0.44267 0.39897 0.34189 0.0
H1639 H 0.45731 0.43579 0.29829 0.0
H1640 H 0.37422 0.46744 0.29507 0.0
H1641 H 0.35885 0.43002 0.33739 0.0
C1642 C 0.3403 0.27994 0.3247 0.0
C1643 C 0.31253 0.28626 0.3161 0.0
C1644 C 0.35701 0.29897 0.34371 0.0
C1645 C 0.34651 0.32497 0.35378 0.0
C1646 C 0.31895 0.33157 0.34482 0.0
C1647 C 0.30201 0.31229 0.32651 0.0
C1648 C 0.36467 0.3456 0.37238 0.0
C1649 C 0.37199 0.36945 0.35236 0.0
C1650 C 0.37609 0.34113 0.40847 0.0
C1651 C 0.36882 0.31644 0.43121 0.0
C1652 C 0.341 0.31024 0.43932 0.0
C1653 C 0.33435 0.28719 0.46122 0.0
C1654 C 0.35535 0.27027 0.47542 0.0
C1655 C 0.38305 0.27628 0.46756 0.0
C1656 C 0.38981 0.29929 0.44563 0.0
C1657 C 0.42405 0.45432 0.44348 0.0
C1658 C 0.4496 0.44787 0.46041 0.0
C1659 C 0.40863 0.43398 0.42506 0.0
C1660 C 0.4184 0.40667 0.42277 0.0
C1661 C 0.44387 0.40007 0.43974 0.0
C1662 C 0.45936 0.42048 0.4583 0.0
C1663 C 0.40135 0.38502 0.4039 0.0
C1664 C 0.39425 0.36094 0.42379 0.0
C1665 C 0.39053 0.38889 0.36734 0.0
C1666 C 0.39971 0.41196 0.34306 0.0
C1667 C 0.42757 0.4139 0.33204 0.0
C1668 C 0.43596 0.43476 0.3074 0.0
C1669 C 0.41681 0.45418 0.29434 0.0
C1670 C 0.38908 0.45248 0.30536 0.0
C1671 C 0.38045 0.43129 0.32936 0.0
H1672 H 0.42342 0.47044 0.2755 0.0
H1673 H 0.35016 0.25242 0.49234 0.0
H1674 H 0.49377 0.61807 0.04091 0.0
H1675 H 0.46309 0.6511 0.07279 0.0
H1676 H 0.39528 0.59359 0.06311 0.0
H1677 H 0.42579 0.56035 0.03211 0.0
H1678 H 0.38227 0.64843 0.03951 0.0
H1679 H 0.41557 0.60174 0.1525 0.0
H1680 H 0.44987 0.58326 0.19741 0.0
H1681 H 0.49202 0.66143 0.19841 0.0
H1682 H 0.45738 0.68059 0.1544 0.0
H1683 H 0.28335 0.70977 0.16288 0.0
H1684 H 0.31504 0.67849 0.12999 0.0
H1685 H 0.38349 0.73241 0.15625 0.0
H1686 H 0.35215 0.76348 0.18948 0.0
H1687 H 0.39708 0.68026 0.17027 0.0
H1688 H 0.358 0.72863 0.06488 0.0
H1689 H 0.32082 0.74712 0.02432 0.0
H1690 H 0.28909 0.66509 0.00801 0.0
H1691 H 0.32611 0.64615 0.04836 0.0
C1692 C 0.47232 0.61251 0.0455 0.0
C1693 C 0.46224 0.58658 0.03387 0.0
C1694 C 0.45487 0.63131 0.06395 0.0
C1695 C 0.42692 0.62474 0.07045 0.0
C1696 C 0.41677 0.59906 0.05845 0.0
C1697 C 0.43427 0.58009 0.0407 0.0
C1698 C 0.40798 0.64492 0.08868 0.0
C1699 C 0.38534 0.65522 0.06822 0.0
C1700 C 0.41225 0.65425 0.12578 0.0
C1701 C 0.43414 0.64245 0.14999 0.0
C1702 C 0.4323 0.61488 0.16211 0.0
C1703 C 0.4516 0.60439 0.18768 0.0
C1704 C 0.47313 0.62115 0.20072 0.0
C1705 C 0.47533 0.64848 0.18831 0.0
C1706 C 0.45576 0.65922 0.16327 0.0
C1707 C 0.30514 0.71495 0.16169 0.0
C1708 C 0.31516 0.73909 0.17906 0.0
C1709 C 0.32324 0.69716 0.14259 0.0
C1710 C 0.35168 0.70319 0.14029 0.0
C1711 C 0.36168 0.72725 0.15763 0.0
C1712 C 0.34366 0.74501 0.17668 0.0
C1713 C 0.37124 0.68393 0.12116 0.0
C1714 C 0.39404 0.67375 0.14144 0.0
C1715 C 0.36707 0.67476 0.08384 0.0
C1716 C 0.3446 0.68606 0.05997 0.0
C1717 C 0.34291 0.71462 0.05292 0.0
C1718 C 0.32194 0.72515 0.02991 0.0
C1719 C 0.3025 0.70732 0.01384 0.0
C1720 C 0.30411 0.67889 0.02056 0.0
C1721 C 0.32513 0.66823 0.04339 0.0
H1722 H 0.28627 0.71552 -0.00394 0.0
H1723 H 0.48812 0.61295 0.22041 0.0
H1724 H 0.23851 0.66205 0.78906 0.0
H1725 H 0.20699 0.62875 0.81818 0.0
H1726 H 0.14498 0.69244 0.82964 0.0
H1727 H 0.1764 0.72589 0.80087 0.0
H1728 H 0.14907 0.66213 0.89305 0.0
H1729 H 0.13944 0.64364 0.76152 0.0
H1730 H 0.15561 0.63284 0.69757 0.0
H1731 H 0.19052 0.55642 0.73681 0.0
H1732 H 0.1749 0.56695 0.80113 0.0
H1733 H 0.03754 0.57057 0.93848 0.0
H1734 H 0.06683 0.60563 0.90864 0.0
H1735 H 0.13022 0.54425 0.88992 0.0
H1736 H 0.10103 0.50918 0.91893 0.0
H1737 H 0.12397 0.57452 0.82917 0.0
H1738 H 0.13513 0.59335 0.96077 0.0
H1739 H 0.11952 0.604 0.02503 0.0
H1740 H 0.08233 0.67945 0.98612 0.0
H1741 H 0.09742 0.66906 0.92151 0.0
C1742 C 0.21817 0.66899 0.79773 0.0
C1743 C 0.21 0.69666 0.79245 0.0
C1744 C 0.20011 0.64989 0.81427 0.0
C1745 C 0.17346 0.65799 0.8258 0.0
C1746 C 0.16539 0.68566 0.82096 0.0
C1747 C 0.18339 0.70475 0.80435 0.0
C1748 C 0.15405 0.63768 0.84302 0.0
C1749 C 0.14328 0.64315 0.87886 0.0
C1750 C 0.14685 0.61263 0.82488 0.0
C1751 C 0.15623 0.60622 0.78621 0.0
C1752 C 0.15076 0.62464 0.75657 0.0
C1753 C 0.15979 0.61855 0.72024 0.0
C1754 C 0.17414 0.594 0.71315 0.0
C1755 C 0.17943 0.57545 0.74235 0.0
C1756 C 0.17048 0.58146 0.77875 0.0
C1757 C 0.05774 0.56457 0.92809 0.0
C1758 C 0.06692 0.53704 0.93126 0.0
C1759 C 0.07453 0.58467 0.91112 0.0
C1760 C 0.10092 0.5777 0.89729 0.0
C1761 C 0.10998 0.5502 0.90028 0.0
C1762 C 0.09323 0.53015 0.91704 0.0
C1763 C 0.11916 0.59882 0.8794 0.0
C1764 C 0.1297 0.59352 0.84337 0.0
C1765 C 0.1262 0.62398 0.89743 0.0
C1766 C 0.11714 0.63028 0.93625 0.0
C1767 C 0.12343 0.6121 0.96587 0.0
C1768 C 0.11471 0.61811 0.00236 0.0
C1769 C 0.09987 0.64235 0.00963 0.0
C1770 C 0.09378 0.66066 0.98044 0.0
C1771 C 0.10243 0.65473 0.94388 0.0
H1772 H 0.09315 0.64697 0.03791 0.0
H1773 H 0.18111 0.58931 0.685 0.0
H1774 H 0.13723 0.51137 0.52962 0.0
H1775 H 0.17113 0.48408 0.56534 0.0
H1776 H 0.11339 0.41617 0.57047 0.0
H1777 H 0.07966 0.44305 0.53499 0.0
H1778 H 0.13721 0.42622 0.63837 0.0
H1779 H 0.16674 0.41471 0.50989 0.0
H1780 H 0.18199 0.431 0.44769 0.0
H1781 H 0.25256 0.47045 0.49788 0.0
H1782 H 0.23749 0.45469 0.56049 0.0
H1783 H 0.21651 0.30964 0.68573 0.0
H1784 H 0.18753 0.34394 0.6546 0.0
H1785 H 0.25598 0.40119 0.65288 0.0
H1786 H 0.28547 0.36659 0.68361 0.0
H1787 H 0.22944 0.40156 0.58691 0.0
H1788 H 0.20215 0.40923 0.71501 0.0
H1789 H 0.18665 0.39309 0.77714 0.0
H1790 H 0.11167 0.36158 0.7284 0.0
H1791 H 0.1269 0.37716 0.66585 0.0
C1792 C 0.1318 0.49062 0.53833 0.0
C1793 C 0.10576 0.47938 0.52927 0.0
C1794 C 0.15121 0.47502 0.55866 0.0
C1795 C 0.14485 0.448 0.57042 0.0
C1796 C 0.11877 0.43695 0.56173 0.0
C1797 C 0.09953 0.45236 0.54125 0.0
C1798 C 0.16514 0.431 0.59181 0.0
C1799 C 0.15731 0.42066 0.62702 0.0
C1800 C 0.19169 0.42442 0.57751 0.0
C1801 C 0.20082 0.43381 0.5399 0.0
C1802 C 0.18538 0.42706 0.5077 0.0
C1803 C 0.19401 0.43616 0.47236 0.0
C1804 C 0.21818 0.45183 0.46885 0.0
C1805 C 0.23381 0.45836 0.50066 0.0
C1806 C 0.22524 0.44934 0.53607 0.0
C1807 C 0.22548 0.32954 0.6789 0.0
C1808 C 0.25335 0.33536 0.6874 0.0
C1809 C 0.20879 0.34922 0.6612 0.0
C1810 C 0.21938 0.37538 0.65189 0.0
C1811 C 0.24728 0.38122 0.65993 0.0
C1812 C 0.2641 0.36143 0.67759 0.0
C1813 C 0.20128 0.39626 0.63324 0.0
C1814 C 0.2095 0.40736 0.59855 0.0
C1815 C 0.17504 0.4036 0.64805 0.0
C1816 C 0.1658 0.39418 0.68566 0.0
C1817 C 0.18246 0.39867 0.71748 0.0
C1818 C 0.1737 0.38964 0.75279 0.0
C1819 C 0.14822 0.37626 0.7567 0.0
C1820 C 0.13142 0.37193 0.72532 0.0
C1821 C 0.14009 0.38087 0.68993 0.0
H1822 H 0.14148 0.36931 0.78407 0.0
H1823 H 0.22483 0.45884 0.44147 0.0
loop_
_geom_bond_atom_site_label_1
_geom_bond_atom_site_label_2
_geom_bond_distance
_geom_bond_site_symmetry_2
_ccdc_geom_bond_type
C0 O2 1.247 . S
C0 O4 1.258 . S
C1 O8 1.247 . S
C1 O9 1.258 . S
O2 C0 1.247 . S
O2 Zn3 2.030 1_455 S
Zn3 O2 2.030 1_655 S
Zn3 O7 2.027 1_554 S
Zn3 O9 2.033 1_544 S
Zn3 O10 2.036 . S
O4 C0 1.258 . S
O4 Zn5 2.035 1_544 S
Zn5 O4 2.035 1_566 S
Zn5 O6 2.030 . S
Zn5 O8 2.028 1_455 S
Zn5 O11 2.033 1_556 S
O6 Zn5 2.030 . S
O6 C12 1.247 1_565 S
O7 Zn3 2.027 1_556 S
O7 C12 1.258 1_655 S
O8 C1 1.247 . S
O8 Zn5 2.028 1_655 S
O9 C1 1.258 . S
O9 Zn3 2.033 1_566 S
O10 Zn3 2.036 . S
O10 C13 1.247 1_545 S
O11 Zn5 2.033 1_554 S
O11 C13 1.258 1_455 S
C12 O6 1.247 1_545 S
C12 O7 1.258 1_455 S
C13 O10 1.247 1_565 S
C13 O11 1.258 1_655 S
C14 O16 1.247 . S
C14 O18 1.258 . S
C15 O22 1.247 . S
C15 O23 1.258 . S
O16 C14 1.247 . S
O16 Zn17 2.028 . S
Zn17 O16 2.028 . S
Zn17 O21 2.035 . S
Zn17 O23 2.035 . S
Zn17 O24 2.028 . S
O18 C14 1.258 . S
O18 Zn19 2.035 . S
Zn19 O18 2.035 . S
Zn19 O20 2.028 . S
Zn19 O22 2.028 . S
Zn19 O25 2.035 . S
O20 Zn19 2.028 . S
O20 C26 1.247 . S
O21 Zn17 2.035 . S
O21 C26 1.258 . S
O22 C15 1.247 . S
O22 Zn19 2.028 . S
O23 C15 1.258 . S
O23 Zn17 2.035 . S
O24 Zn17 2.028 . S
O24 C27 1.247 . S
O25 Zn19 2.035 . S
O25 C27 1.258 . S
C26 O20 1.247 . S
C26 O21 1.258 . S
C27 O24 1.247 . S
C27 O25 1.258 . S
C28 O30 1.247 . S
C28 O32 1.258 1_545 S
C29 O36 1.247 . S
C29 O37 1.258 1_565 S
O30 C28 1.247 . S
O30 Zn31 2.028 . S
Zn31 O30 2.028 . S
Zn31 O35 2.035 . S
Zn31 O37 2.035 . S
Zn31 O38 2.028 1_545 S
O32 C28 1.258 1_565 S
O32 Zn33 2.035 . S
Zn33 O32 2.035 . S
Zn33 O34 2.028 1_565 S
Zn33 O36 2.028 . S
Zn33 O39 2.035 . S
O34 Zn33 2.028 1_545 S
O34 C40 1.247 . S
O35 Zn31 2.035 . S
O35 C40 1.258 . S
O36 C29 1.247 . S
O36 Zn33 2.028 . S
O37 C29 1.258 1_545 S
O37 Zn31 2.035 . S
O38 Zn31 2.028 1_565 S
O38 C41 1.247 . S
O39 Zn33 2.035 . S
O39 C41 1.258 . S
C40 O34 1.247 . S
C40 O35 1.258 . S
C41 O38 1.247 . S
C41 O39 1.258 . S
C42 O44 1.247 . S
C42 O46 1.258 . S
C43 O50 1.247 . S
C43 O51 1.258 . S
O44 C42 1.247 . S
O44 Zn45 2.028 . S
Zn45 O44 2.028 . S
Zn45 O49 2.035 . S
Zn45 O51 2.035 . S
Zn45 O52 2.028 . S
O46 C42 1.258 . S
O46 Zn47 2.035 . S
Zn47 O46 2.035 . S
Zn47 O48 2.028 . S
Zn47 O50 2.028 . S
Zn47 O53 2.035 . S
O48 Zn47 2.028 . S
O48 C54 1.247 . S
O49 Zn45 2.035 . S
O49 C54 1.258 . S
O50 C43 1.247 . S
O50 Zn47 2.028 . S
O51 C43 1.258 . S
O51 Zn45 2.035 . S
O52 Zn45 2.028 . S
O52 C55 1.247 . S
O53 Zn47 2.035 . S
O53 C55 1.258 . S
C54 O48 1.247 . S
C54 O49 1.258 . S
C55 O52 1.247 . S
C55 O53 1.258 . S
C56 O58 1.247 . S
C56 O60 1.258 . S
C57 O64 1.247 . S
C57 O65 1.258 . S
O58 C56 1.247 . S
O58 Zn59 2.028 1_545 S
Zn59 O58 2.028 1_565 S
Zn59 O63 2.035 . S
Zn59 O65 2.035 1_655 S
Zn59 O66 2.028 . S
O60 C56 1.258 . S
O60 Zn61 2.035 1_655 S
Zn61 O60 2.035 1_455 S
Zn61 O62 2.028 . S
Zn61 O64 2.028 1_545 S
Zn61 O67 2.035 . S
O62 Zn61 2.028 . S
O62 C68 1.247 1_455 S
O63 Zn59 2.035 . S
O63 C68 1.258 1_565 S
O64 C57 1.247 . S
O64 Zn61 2.028 1_565 S
O65 C57 1.258 . S
O65 Zn59 2.035 1_455 S
O66 Zn59 2.028 . S
O66 C69 1.247 1_655 S
O67 Zn61 2.035 . S
O67 C69 1.258 1_545 S
C68 O62 1.247 1_655 S
C68 O63 1.258 1_545 S
C69 O66 1.247 1_455 S
C69 O67 1.258 1_565 S
C70 O72 1.247 . S
C70 O74 1.258 . S
C71 O78 1.247 . S
C71 O79 1.258 . S
O72 C70 1.247 . S
O72 Zn73 2.028 . S
Zn73 O72 2.028 . S
Zn73 O77 2.035 . S
Zn73 O79 2.035 . S
Zn73 O80 2.028 . S
O74 C70 1.258 . S
O74 Zn75 2.035 . S
Zn75 O74 2.035 . S
Zn75 O76 2.028 . S
Zn75 O78 2.028 . S
Zn75 O81 2.035 . S
O76 Zn75 2.028 . S
O76 C82 1.247 . S
O77 Zn73 2.035 . S
O77 C82 1.258 . S
O78 C71 1.247 . S
O78 Zn75 2.028 . S
O79 C71 1.258 . S
O79 Zn73 2.035 . S
O80 Zn73 2.028 . S
O80 C83 1.247 . S
O81 Zn75 2.035 . S
O81 C83 1.258 . S
C82 O76 1.247 . S
C82 O77 1.258 . S
C83 O80 1.247 . S
C83 O81 1.258 . S
C84 O86 1.247 . S
C84 O88 1.258 . S
C85 O92 1.247 . S
C85 O93 1.258 . S
O86 C84 1.247 . S
O86 Zn87 2.030 1_565 S
Zn87 O86 2.030 1_545 S
Zn87 O91 2.027 1_554 S
Zn87 O93 2.033 1_554 S
Zn87 O94 2.036 . S
O88 C84 1.258 . S
O88 Zn89 2.035 1_554 S
Zn89 O88 2.035 1_556 S
Zn89 O90 2.030 . S
Zn89 O92 2.028 1_565 S
Zn89 O95 2.033 1_556 S
O90 Zn89 2.030 . S
O90 C96 1.247 . S
O91 Zn87 2.027 1_556 S
O91 C96 1.258 1_545 S
O92 C85 1.247 . S
O92 Zn89 2.028 1_545 S
O93 C85 1.258 . S
O93 Zn87 2.033 1_556 S
O94 Zn87 2.036 . S
O94 C97 1.247 . S
O95 Zn89 2.033 1_554 S
O95 C97 1.258 1_565 S
C96 O90 1.247 . S
C96 O91 1.258 1_565 S
C97 O94 1.247 . S
C97 O95 1.258 1_545 S
C98 O100 1.247 . S
C98 O102 1.258 . S
C99 O106 1.247 . S
C99 O107 1.258 . S
O100 C98 1.247 . S
O100 Zn101 2.028 . S
Zn101 O100 2.028 . S
Zn101 O105 2.035 . S
Zn101 O107 2.035 . S
Zn101 O108 2.028 . S
O102 C98 1.258 . S
O102 Zn103 2.035 . S
Zn103 O102 2.035 . S
Zn103 O104 2.028 . S
Zn103 O106 2.028 . S
Zn103 O109 2.035 . S
O104 Zn103 2.028 . S
O104 C110 1.247 . S
O105 Zn101 2.035 . S
O105 C110 1.258 . S
O106 C99 1.247 . S
O106 Zn103 2.028 . S
O107 C99 1.258 . S
O107 Zn101 2.035 . S
O108 Zn101 2.028 . S
O108 C111 1.247 . S
O109 Zn103 2.035 . S
O109 C111 1.258 . S
C110 O104 1.247 . S
C110 O105 1.258 . S
C111 O108 1.247 . S
C111 O109 1.258 . S
C112 O114 1.247 . S
C112 O116 1.258 . S
C113 O120 1.247 . S
C113 O121 1.258 . S
O114 C112 1.247 . S
O114 Zn115 2.028 . S
Zn115 O114 2.028 . S
Zn115 O119 2.035 . S
Zn115 O121 2.035 . S
Zn115 O122 2.028 . S
O116 C112 1.258 . S
O116 Zn117 2.035 . S
Zn117 O116 2.035 . S
Zn117 O118 2.028 . S
Zn117 O120 2.028 . S
Zn117 O123 2.035 . S
O118 Zn117 2.028 . S
O118 C124 1.247 . S
O119 Zn115 2.035 . S
O119 C124 1.258 . S
O120 C113 1.247 . S
O120 Zn117 2.028 . S
O121 C113 1.258 . S
O121 Zn115 2.035 . S
O122 Zn115 2.028 . S
O122 C125 1.247 . S
O123 Zn117 2.035 . S
O123 C125 1.258 . S
C124 O118 1.247 . S
C124 O119 1.258 . S
C125 O122 1.247 . S
C125 O123 1.258 . S
C126 O128 1.247 . S
C126 O130 1.258 . S
C127 O134 1.247 . S
C127 O135 1.258 . S
O128 C126 1.247 . S
O128 Zn129 2.028 . S
Zn129 O128 2.028 . S
Zn129 O133 2.035 . S
Zn129 O135 2.035 . S
Zn129 O136 2.028 . S
O130 C126 1.258 . S
O130 Zn131 2.035 . S
Zn131 O130 2.035 . S
Zn131 O132 2.028 . S
Zn131 O134 2.028 . S
Zn131 O137 2.035 . S
O132 Zn131 2.028 . S
O132 C138 1.247 . S
O133 Zn129 2.035 . S
O133 C138 1.258 . S
O134 C127 1.247 . S
O134 Zn131 2.028 . S
O135 C127 1.258 . S
O135 Zn129 2.035 . S
O136 Zn129 2.028 . S
O136 C139 1.247 . S
O137 Zn131 2.035 . S
O137 C139 1.258 . S
C138 O132 1.247 . S
C138 O133 1.258 . S
C139 O136 1.247 . S
C139 O137 1.258 . S
C140 O142 1.247 . S
C140 O144 1.258 . S
C141 O148 1.247 . S
C141 O149 1.258 . S
O142 C140 1.247 . S
O142 Zn143 2.028 . S
Zn143 O142 2.028 . S
Zn143 O147 2.035 . S
Zn143 O149 2.035 . S
Zn143 O150 2.028 . S
O144 C140 1.258 . S
O144 Zn145 2.035 . S
Zn145 O144 2.035 . S
Zn145 O146 2.028 . S
Zn145 O148 2.028 . S
Zn145 O151 2.035 . S
O146 Zn145 2.028 . S
O146 C152 1.247 . S
O147 Zn143 2.035 . S
O147 C152 1.258 . S
O148 C141 1.247 . S
O148 Zn145 2.028 . S
O149 C141 1.258 . S
O149 Zn143 2.035 . S
O150 Zn143 2.028 . S
O150 C153 1.247 . S
O151 Zn145 2.035 . S
O151 C153 1.258 . S
C152 O146 1.247 . S
C152 O147 1.258 . S
C153 O150 1.247 . S
C153 O151 1.258 . S
C154 O156 1.247 . S
C154 O158 1.258 . S
C155 O162 1.247 . S
C155 O163 1.258 . S
O156 C154 1.247 . S
O156 Zn157 2.028 . S
Zn157 O156 2.028 . S
Zn157 O161 2.035 . S
Zn157 O163 2.035 . S
Zn157 O164 2.028 . S
O158 C154 1.258 . S
O158 Zn159 2.035 . S
Zn159 O158 2.035 . S
Zn159 O160 2.028 . S
Zn159 O162 2.028 . S
Zn159 O165 2.035 . S
O160 Zn159 2.028 . S
O160 C166 1.247 . S
O161 Zn157 2.035 . S
O161 C166 1.258 . S
O162 C155 1.247 . S
O162 Zn159 2.028 . S
O163 C155 1.258 . S
O163 Zn157 2.035 . S
O164 Zn157 2.028 . S
O164 C167 1.247 . S
O165 Zn159 2.035 . S
O165 C167 1.258 . S
C166 O160 1.247 . S
C166 O161 1.258 . S
C167 O164 1.247 . S
C167 O165 1.258 . S
C168 O170 1.247 . S
C168 O172 1.258 . S
C169 O176 1.247 . S
C169 O177 1.258 . S
O170 C168 1.247 . S
O170 Zn171 2.028 . S
Zn171 O170 2.028 . S
Zn171 O175 2.035 . S
Zn171 O177 2.035 . S
Zn171 O178 2.028 . S
O172 C168 1.258 . S
O172 Zn173 2.035 . S
Zn173 O172 2.035 . S
Zn173 O174 2.028 . S
Zn173 O176 2.028 . S
Zn173 O179 2.035 . S
O174 Zn173 2.028 . S
O174 C180 1.247 . S
O175 Zn171 2.035 . S
O175 C180 1.258 . S
O176 C169 1.247 . S
O176 Zn173 2.028 . S
O177 C169 1.258 . S
O177 Zn171 2.035 . S
O178 Zn171 2.028 . S
O178 C181 1.247 . S
O179 Zn173 2.035 . S
O179 C181 1.258 . S
C180 O174 1.247 . S
C180 O175 1.258 . S
C181 O178 1.247 . S
C181 O179 1.258 . S
C182 O184 1.247 1_455 S
C182 O186 1.258 . S
C183 O190 1.247 1_655 S
C183 O191 1.258 . S
O184 C182 1.247 1_655 S
O184 Zn185 2.036 . S
Zn185 O184 2.036 . S
Zn185 O189 2.033 1_654 S
Zn185 O191 2.027 1_554 S
Zn185 O192 2.030 . S
O186 C182 1.258 . S
O186 Zn187 2.033 1_554 S
Zn187 O186 2.033 1_556 S
Zn187 O188 2.028 . S
Zn187 O190 2.030 . S
Zn187 O193 2.035 1_456 S
O188 Zn187 2.028 . S
O188 C194 1.247 . S
O189 Zn185 2.033 1_456 S
O189 C194 1.258 . S
O190 C183 1.247 1_455 S
O190 Zn187 2.030 . S
O191 C183 1.258 . S
O191 Zn185 2.027 1_556 S
O192 Zn185 2.030 . S
O192 C195 1.247 . S
O193 Zn187 2.035 1_654 S
O193 C195 1.258 . S
C194 O188 1.247 . S
C194 O189 1.258 . S
C195 O192 1.247 . S
C195 O193 1.258 . S
C196 O198 1.247 . S
C196 O200 1.258 . S
C197 O204 1.247 . S
C197 O205 1.258 . S
O198 C196 1.247 . S
O198 Zn199 2.030 . S
Zn199 O198 2.030 . S
Zn199 O203 2.027 1_554 S
Zn199 O205 2.033 1_554 S
Zn199 O206 2.036 . S
O200 C196 1.258 . S
O200 Zn201 2.035 1_554 S
Zn201 O200 2.035 1_556 S
Zn201 O202 2.030 . S
Zn201 O204 2.028 . S
Zn201 O207 2.033 1_556 S
O202 Zn201 2.030 . S
O202 C208 1.247 . S
O203 Zn199 2.027 1_556 S
O203 C208 1.258 . S
O204 C197 1.247 . S
O204 Zn201 2.028 . S
O205 C197 1.258 . S
O205 Zn199 2.033 1_556 S
O206 Zn199 2.036 . S
O206 C209 1.247 . S
O207 Zn201 2.033 1_554 S
O207 C209 1.258 . S
C208 O202 1.247 . S
C208 O203 1.258 . S
C209 O206 1.247 . S
C209 O207 1.258 . S
C210 O212 1.247 . S
C210 O214 1.258 . S
C211 O218 1.247 . S
C211 O219 1.258 . S
O212 C210 1.247 . S
O212 Zn213 2.028 . S
Zn213 O212 2.028 . S
Zn213 O217 2.035 . S
Zn213 O219 2.035 1_455 S
Zn213 O220 2.028 . S
O214 C210 1.258 . S
O214 Zn215 2.035 1_455 S
Zn215 O214 2.035 1_655 S
Zn215 O216 2.028 . S
Zn215 O218 2.028 . S
Zn215 O221 2.035 . S
O216 Zn215 2.028 . S
O216 C222 1.247 1_655 S
O217 Zn213 2.035 . S
O217 C222 1.258 . S
O218 C211 1.247 . S
O218 Zn215 2.028 . S
O219 C211 1.258 . S
O219 Zn213 2.035 1_655 S
O220 Zn213 2.028 . S
O220 C223 1.247 1_455 S
O221 Zn215 2.035 . S
O221 C223 1.258 . S
C222 O216 1.247 1_455 S
C222 O217 1.258 . S
C223 O220 1.247 1_655 S
C223 O221 1.258 . S
H224 C242 0.951 . S
H225 C244 0.951 . S
H226 C246 0.950 . S
H227 C247 0.950 . S
H228 C249 0.950 . S
H229 C252 0.950 . S
H230 C253 0.950 . S
H231 C255 0.950 1_455 S
H232 C256 0.950 . S
H233 C257 0.951 . S
H234 C259 0.951 . S
H235 C261 0.950 . S
H236 C262 0.950 . S
H237 C264 0.950 . S
H238 C267 0.950 . S
H239 C268 0.950 . S
H240 C270 0.950 . S
H241 C271 0.950 . S
C242 H224 0.951 . S
C242 C243 1.366 1_455 S
C242 C244 1.388 . S
C243 C242 1.366 1_655 S
C243 C247 1.385 1_565 S
C244 H225 0.951 . S
C244 C242 1.388 . S
C244 C245 1.366 1_455 S
C245 C244 1.366 1_655 S
C245 C246 1.414 1_565 S
C245 C248 1.499 . S
C246 H226 0.950 . S
C246 C245 1.414 1_545 S
C246 C247 1.374 . S
C247 H227 0.950 . S
C247 C243 1.385 1_545 S
C247 C246 1.374 . S
C248 C245 1.499 . S
C248 C249 1.373 1_565 S
C248 C250 1.389 . S
C249 H228 0.950 . S
C249 C248 1.373 1_545 S
C249 C265 1.377 . S
C250 C248 1.389 . S
C250 C251 1.524 . S
C250 C264 1.377 . S
C251 C250 1.524 . S
C251 C252 1.397 . S
C251 C256 1.363 1_655 S
C252 H229 0.950 . S
C252 C251 1.397 . S
C252 C253 1.334 . S
C253 H230 0.950 . S
C253 C252 1.334 . S
C253 C254 1.287 . S
C254 C253 1.287 . S
C254 C255 1.524 . S
C254 H273 0.913 . S
C255 H231 0.950 1_655 S
C255 C254 1.524 . S
C255 C256 1.415 1_655 S
C256 H232 0.950 . S
C256 C251 1.363 1_455 S
C256 C255 1.415 1_455 S
C257 H233 0.951 . S
C257 C258 1.366 . S
C257 C259 1.388 . S
C258 C257 1.366 . S
C258 C262 1.385 1_645 S
C259 H234 0.951 . S
C259 C257 1.388 . S
C259 C260 1.366 . S
C260 C259 1.366 . S
C260 C261 1.414 1_645 S
C260 C263 1.499 . S
C261 H235 0.950 . S
C261 C260 1.414 1_465 S
C261 C262 1.374 . S
C262 H236 0.950 . S
C262 C258 1.385 1_465 S
C262 C261 1.374 . S
C263 C260 1.499 . S
C263 C264 1.373 1_545 S
C263 C265 1.389 . S
C264 H237 0.950 . S
C264 C250 1.377 . S
C264 C263 1.373 1_565 S
C265 C249 1.377 . S
C265 C263 1.389 . S
C265 C266 1.524 . S
C266 C265 1.524 . S
C266 C267 1.397 1_655 S
C266 C271 1.363 . S
C267 H238 0.950 . S
C267 C266 1.397 1_455 S
C267 C268 1.334 . S
C268 H239 0.950 . S
C268 C267 1.334 . S
C268 C269 1.287 . S
C269 C268 1.287 . S
C269 C270 1.524 1_455 S
C269 H272 0.999 . S
C270 H240 0.950 . S
C270 C269 1.524 1_655 S
C270 C271 1.415 . S
C271 H241 0.950 . S
C271 C266 1.363 . S
C271 C270 1.415 . S
H272 C269 0.999 . S
H273 C254 0.913 . S
H274 C292 0.951 . S
H275 C294 0.951 . S
H276 C296 0.950 . S
H277 C297 0.950 . S
H278 C299 0.950 . S
H279 C302 0.950 . S
H280 C303 0.950 . S
H281 C305 0.950 . S
H282 C306 0.950 . S
H283 C307 0.951 . S
H284 C309 0.951 . S
H285 C311 0.950 . S
H286 C312 0.950 . S
H287 C314 0.950 . S
H288 C317 0.950 . S
H289 C318 0.950 . S
H290 C320 0.950 . S
H291 C321 0.950 . S
C292 H274 0.951 . S
C292 C293 1.366 . S
C292 C294 1.388 . S
C293 C292 1.366 . S
C293 C297 1.385 . S
C294 H275 0.951 . S
C294 C292 1.388 . S
C294 C295 1.366 . S
C295 C294 1.366 . S
C295 C296 1.414 . S
C295 C298 1.499 . S
C296 H276 0.950 . S
C296 C295 1.414 . S
C296 C297 1.374 . S
C297 H277 0.950 . S
C297 C293 1.385 . S
C297 C296 1.374 . S
C298 C295 1.499 . S
C298 C299 1.373 . S
C298 C300 1.389 . S
C299 H278 0.950 . S
C299 C298 1.373 . S
C299 C315 1.377 . S
C300 C298 1.389 . S
C300 C301 1.524 . S
C300 C314 1.377 . S
C301 C300 1.524 . S
C301 C302 1.397 . S
C301 C306 1.363 . S
C302 H279 0.950 . S
C302 C301 1.397 . S
C302 C303 1.334 . S
C303 H280 0.950 . S
C303 C302 1.334 . S
C303 C304 1.287 . S
C304 C303 1.287 . S
C304 C305 1.524 . S
C304 H323 0.913 . S
C305 H281 0.950 . S
C305 C304 1.524 . S
C305 C306 1.415 . S
C306 H282 0.950 . S
C306 C301 1.363 . S
C306 C305 1.415 . S
C307 H283 0.951 . S
C307 C308 1.366 . S
C307 C309 1.388 . S
C308 C307 1.366 . S
C308 C312 1.385 . S
C309 H284 0.951 . S
C309 C307 1.388 . S
C309 C310 1.366 . S
C310 C309 1.366 . S
C310 C311 1.414 . S
C310 C313 1.499 . S
C311 H285 0.950 . S
C311 C310 1.414 . S
C311 C312 1.374 . S
C312 H286 0.950 . S
C312 C308 1.385 . S
C312 C311 1.374 . S
C313 C310 1.499 . S
C313 C314 1.373 . S
C313 C315 1.389 . S
C314 H287 0.950 . S
C314 C300 1.377 . S
C314 C313 1.373 . S
C315 C299 1.377 . S
C315 C313 1.389 . S
C315 C316 1.524 . S
C316 C315 1.524 . S
C316 C317 1.397 . S
C316 C321 1.363 . S
C317 H288 0.950 . S
C317 C316 1.397 . S
C317 C318 1.334 . S
C318 H289 0.950 . S
C318 C317 1.334 . S
C318 C319 1.287 . S
C319 C318 1.287 . S
C319 C320 1.524 . S
C319 H322 0.999 . S
C320 H290 0.950 . S
C320 C319 1.524 . S
C320 C321 1.415 . S
C321 H291 0.950 . S
C321 C316 1.363 . S
C321 C320 1.415 . S
H322 C319 0.999 . S
H323 C304 0.913 . S
H324 C342 0.951 . S
H325 C344 0.951 . S
H326 C346 0.950 . S
H327 C347 0.950 . S
H328 C349 0.950 . S
H329 C352 0.950 . S
H330 C353 0.950 . S
H331 C355 0.950 . S
H332 C356 0.950 . S
H333 C357 0.951 . S
H334 C359 0.951 . S
H335 C361 0.950 . S
H336 C362 0.950 . S
H337 C364 0.950 . S
H338 C367 0.950 . S
H339 C368 0.950 . S
H340 C370 0.950 . S
H341 C371 0.950 . S
C342 H324 0.951 . S
C342 C343 1.366 1_545 S
C342 C344 1.388 . S
C343 C342 1.366 1_565 S
C343 C347 1.385 . S
C344 H325 0.951 . S
C344 C342 1.388 . S
C344 C345 1.366 1_545 S
C345 C344 1.366 1_565 S
C345 C346 1.414 . S
C345 C348 1.501 . S
C346 H326 0.950 . S
C346 C345 1.414 . S
C346 C347 1.374 . S
C347 H327 0.950 . S
C347 C343 1.385 . S
C347 C346 1.374 . S
C348 C345 1.501 . S
C348 C349 1.404 . S
C348 C350 1.358 1_565 S
C349 H328 0.950 . S
C349 C348 1.404 . S
C349 C365 1.377 . S
C350 C348 1.358 1_545 S
C350 C351 1.524 . S
C350 C364 1.377 . S
C351 C350 1.524 . S
C351 C352 1.397 . S
C351 C356 1.363 . S
C352 H329 0.950 . S
C352 C351 1.397 . S
C352 C353 1.334 . S
C353 H330 0.950 . S
C353 C352 1.334 . S
C353 C354 1.287 . S
C354 C353 1.287 . S
C354 C355 1.524 . S
C354 H373 0.913 . S
C355 H331 0.950 . S
C355 C354 1.524 . S
C355 C356 1.415 . S
C356 H332 0.950 . S
C356 C351 1.363 . S
C356 C355 1.415 . S
C357 H333 0.951 . S
C357 C358 1.366 1_565 S
C357 C359 1.388 . S
C358 C357 1.366 1_545 S
C358 C362 1.385 . S
C359 H334 0.951 . S
C359 C357 1.388 . S
C359 C360 1.366 1_565 S
C360 C359 1.366 1_545 S
C360 C361 1.414 . S
C360 C363 1.499 . S
C361 H335 0.950 . S
C361 C360 1.414 . S
C361 C362 1.374 . S
C362 H336 0.950 . S
C362 C358 1.385 . S
C362 C361 1.374 . S
C363 C360 1.499 . S
C363 C364 1.373 . S
C363 C365 1.389 1_545 S
C364 H337 0.950 . S
C364 C350 1.377 . S
C364 C363 1.373 . S
C365 C349 1.377 . S
C365 C363 1.389 1_565 S
C365 C366 1.524 . S
C366 C365 1.524 . S
C366 C367 1.397 . S
C366 C371 1.363 . S
C367 H338 0.950 . S
C367 C366 1.397 . S
C367 C368 1.334 . S
C368 H339 0.950 . S
C368 C367 1.334 . S
C368 C369 1.287 . S
C369 C368 1.287 . S
C369 C370 1.524 . S
C369 H372 0.999 . S
C370 H340 0.950 . S
C370 C369 1.524 . S
C370 C371 1.415 . S
C371 H341 0.950 . S
C371 C366 1.363 . S
C371 C370 1.415 . S
H372 C369 0.999 . S
H373 C354 0.913 . S
H374 C392 0.951 . S
H375 C394 0.951 . S
H376 C396 0.950 . S
H377 C397 0.950 . S
H378 C399 0.950 . S
H379 C402 0.950 . S
H380 C403 0.950 . S
H381 C405 0.950 . S
H382 C406 0.950 . S
H383 C407 0.951 . S
H384 C409 0.951 . S
H385 C411 0.950 . S
H386 C412 0.950 . S
H387 C414 0.950 . S
H388 C417 0.950 . S
H389 C418 0.950 . S
H390 C420 0.950 . S
H391 C421 0.950 . S
C392 H374 0.951 . S
C392 C393 1.366 . S
C392 C394 1.388 . S
C393 C392 1.366 . S
C393 C397 1.385 . S
C394 H375 0.951 . S
C394 C392 1.388 . S
C394 C395 1.366 . S
C395 C394 1.366 . S
C395 C396 1.414 . S
C395 C398 1.499 . S
C396 H376 0.950 . S
C396 C395 1.414 . S
C396 C397 1.374 . S
C397 H377 0.950 . S
C397 C393 1.385 . S
C397 C396 1.374 . S
C398 C395 1.499 . S
C398 C399 1.373 . S
C398 C400 1.389 . S
C399 H378 0.950 . S
C399 C398 1.373 . S
C399 C415 1.377 1_556 S
C400 C398 1.389 . S
C400 C401 1.524 . S
C400 C414 1.377 1_556 S
C401 C400 1.524 . S
C401 C402 1.397 . S
C401 C406 1.363 . S
C402 H379 0.950 . S
C402 C401 1.397 . S
C402 C403 1.334 . S
C403 H380 0.950 . S
C403 C402 1.334 . S
C403 C404 1.287 . S
C404 C403 1.287 . S
C404 C405 1.524 . S
C404 H423 0.913 . S
C405 H381 0.950 . S
C405 C404 1.524 . S
C405 C406 1.415 . S
C406 H382 0.950 . S
C406 C401 1.363 . S
C406 C405 1.415 . S
C407 H383 0.951 . S
C407 C408 1.366 . S
C407 C409 1.388 . S
C408 C407 1.366 . S
C408 C412 1.385 . S
C409 H384 0.951 . S
C409 C407 1.388 . S
C409 C410 1.366 . S
C410 C409 1.366 . S
C410 C411 1.414 . S
C410 C413 1.499 . S
C411 H385 0.950 . S
C411 C410 1.414 . S
C411 C412 1.374 . S
C412 H386 0.950 . S
C412 C408 1.385 . S
C412 C411 1.374 . S
C413 C410 1.499 . S
C413 C414 1.373 . S
C413 C415 1.389 . S
C414 H387 0.950 . S
C414 C400 1.377 1_554 S
C414 C413 1.373 . S
C415 C399 1.377 1_554 S
C415 C413 1.389 . S
C415 C416 1.524 . S
C416 C415 1.524 . S
C416 C417 1.397 . S
C416 C421 1.363 . S
C417 H388 0.950 . S
C417 C416 1.397 . S
C417 C418 1.334 . S
C418 H389 0.950 . S
C418 C417 1.334 . S
C418 C419 1.287 . S
C419 C418 1.287 . S
C419 C420 1.524 . S
C419 H422 0.999 . S
C420 H390 0.950 . S
C420 C419 1.524 . S
C420 C421 1.415 . S
C421 H391 0.950 . S
C421 C416 1.363 . S
C421 C420 1.415 . S
H422 C419 0.999 . S
H423 C404 0.913 . S
H424 C442 0.951 . S
H425 C444 0.951 . S
H426 C446 0.945 1_545 S
H427 C447 0.950 . S
H428 C449 0.950 . S
H429 C452 0.950 1_655 S
H430 C453 0.950 . S
H431 C455 0.950 . S
H432 C456 0.950 . S
H433 C457 0.951 . S
H434 C459 0.951 . S
H435 C461 0.946 1_565 S
H436 C462 0.950 . S
H437 C464 0.950 . S
H438 C467 0.936 1_455 S
H439 C468 0.950 1_455 S
H440 C470 0.950 . S
H441 C471 0.950 . S
C442 H424 0.951 . S
C442 C443 1.366 . S
C442 C444 1.388 . S
C443 C442 1.366 . S
C443 C447 1.385 1_455 S
C444 H425 0.951 . S
C444 C442 1.388 . S
C444 C445 1.366 . S
C445 C444 1.366 . S
C445 C446 1.414 1_455 S
C445 C448 1.499 . S
C446 H426 0.945 1_565 S
C446 C445 1.414 1_655 S
C446 C447 1.374 . S
C447 H427 0.950 . S
C447 C443 1.385 1_655 S
C447 C446 1.374 . S
C448 C445 1.499 . S
C448 C449 1.373 1_465 S
C448 C450 1.389 . S
C449 H428 0.950 . S
C449 C448 1.373 1_645 S
C449 C465 1.377 . S
C450 C448 1.389 . S
C450 C451 1.524 . S
C450 C464 1.377 . S
C451 C450 1.524 . S
C451 C452 1.397 . S
C451 C456 1.363 . S
C452 H429 0.950 1_455 S
C452 C451 1.397 . S
C452 C453 1.334 . S
C453 H430 0.950 . S
C453 C452 1.334 . S
C453 C454 1.287 . S
C454 C453 1.287 . S
C454 C455 1.524 . S
C454 H473 0.913 . S
C455 H431 0.950 . S
C455 C454 1.524 . S
C455 C456 1.415 . S
C456 H432 0.950 . S
C456 C451 1.363 . S
C456 C455 1.415 . S
C457 H433 0.951 . S
C457 C458 1.366 1_655 S
C457 C459 1.388 . S
C458 C457 1.366 1_455 S
C458 C462 1.385 . S
C459 H434 0.951 . S
C459 C457 1.388 . S
C459 C460 1.366 1_655 S
C460 C459 1.366 1_455 S
C460 C461 1.414 . S
C460 C463 1.499 . S
C461 H435 0.946 1_545 S
C461 C460 1.414 . S
C461 C462 1.374 . S
C462 H436 0.950 . S
C462 C458 1.385 . S
C462 C461 1.374 . S
C463 C460 1.499 . S
C463 C464 1.373 1_545 S
C463 C465 1.389 1_455 S
C464 H437 0.950 . S
C464 C450 1.377 . S
C464 C463 1.373 1_565 S
C465 C449 1.377 . S
C465 C463 1.389 1_655 S
C465 C466 1.524 . S
C466 C465 1.524 . S
C466 C467 1.405 . S
C466 C471 1.363 . S
C467 H438 0.936 1_655 S
C467 C466 1.405 . S
C467 C468 1.339 . S
C468 H439 0.950 1_655 S
C468 C467 1.339 . S
C468 C469 1.287 . S
C469 C468 1.287 . S
C469 C470 1.524 . S
C469 H472 0.999 . S
C470 H440 0.950 . S
C470 C469 1.524 . S
C470 C471 1.415 . S
C471 H441 0.950 . S
C471 C466 1.363 . S
C471 C470 1.415 . S
H472 C469 0.999 . S
H473 C454 0.913 . S
H474 C492 0.951 . S
H475 C494 0.951 . S
H476 C496 0.950 . S
H477 C497 0.950 . S
H478 C499 0.950 . S
H479 C502 0.950 . S
H480 C503 0.950 . S
H481 C505 0.950 . S
H482 C506 0.950 . S
H483 C507 0.951 . S
H484 C509 0.951 . S
H485 C511 0.950 . S
H486 C512 0.950 . S
H487 C514 0.950 . S
H488 C517 0.950 . S
H489 C518 0.950 . S
H490 C520 0.950 . S
H491 C521 0.950 . S
C492 H474 0.951 . S
C492 C493 1.366 . S
C492 C494 1.388 . S
C493 C492 1.366 . S
C493 C497 1.385 . S
C494 H475 0.951 . S
C494 C492 1.388 . S
C494 C495 1.366 . S
C495 C494 1.366 . S
C495 C496 1.414 . S
C495 C498 1.499 . S
C496 H476 0.950 . S
C496 C495 1.414 . S
C496 C497 1.374 . S
C497 H477 0.950 . S
C497 C493 1.385 . S
C497 C496 1.374 . S
C498 C495 1.499 . S
C498 C499 1.373 . S
C498 C500 1.389 . S
C499 H478 0.950 . S
C499 C498 1.373 . S
C499 C515 1.377 . S
C500 C498 1.389 . S
C500 C501 1.524 . S
C500 C514 1.377 . S
C501 C500 1.524 . S
C501 C502 1.397 . S
C501 C506 1.363 . S
C502 H479 0.950 . S
C502 C501 1.397 . S
C502 C503 1.334 . S
C503 H480 0.950 . S
C503 C502 1.334 . S
C503 C504 1.287 . S
C504 C503 1.287 . S
C504 C505 1.524 . S
C504 H523 0.913 . S
C505 H481 0.950 . S
C505 C504 1.524 . S
C505 C506 1.415 . S
C506 H482 0.950 . S
C506 C501 1.363 . S
C506 C505 1.415 . S
C507 H483 0.951 . S
C507 C508 1.366 . S
C507 C509 1.388 . S
C508 C507 1.366 . S
C508 C512 1.385 . S
C509 H484 0.951 . S
C509 C507 1.388 . S
C509 C510 1.366 . S
C510 C509 1.366 . S
C510 C511 1.414 . S
C510 C513 1.499 . S
C511 H485 0.950 . S
C511 C510 1.414 . S
C511 C512 1.374 . S
C512 H486 0.950 . S
C512 C508 1.385 . S
C512 C511 1.374 . S
C513 C510 1.499 . S
C513 C514 1.373 . S
C513 C515 1.389 . S
C514 H487 0.950 . S
C514 C500 1.377 . S
C514 C513 1.373 . S
C515 C499 1.377 . S
C515 C513 1.389 . S
C515 C516 1.524 . S
C516 C515 1.524 . S
C516 C517 1.397 . S
C516 C521 1.363 . S
C517 H488 0.950 . S
C517 C516 1.397 . S
C517 C518 1.334 . S
C518 H489 0.950 . S
C518 C517 1.334 . S
C518 C519 1.287 . S
C519 C518 1.287 . S
C519 C520 1.524 . S
C519 H522 0.999 . S
C520 H490 0.950 . S
C520 C519 1.524 . S
C520 C521 1.415 . S
C521 H491 0.950 . S
C521 C516 1.363 . S
C521 C520 1.415 . S
H522 C519 0.999 . S
H523 C504 0.913 . S
H524 C542 0.951 . S
H525 C544 0.951 . S
H526 C546 0.950 . S
H527 C547 0.950 . S
H528 C549 0.950 . S
H529 C552 0.950 1_565 S
H530 C553 0.950 . S
H531 C555 0.950 . S
H532 C556 0.950 . S
H533 C557 0.951 . S
H534 C559 0.951 . S
H535 C561 0.950 . S
H536 C562 0.950 . S
H537 C564 0.950 . S
H538 C567 0.950 1_545 S
H539 C568 0.950 . S
H540 C570 0.950 . S
H541 C571 0.950 . S
C542 H524 0.951 . S
C542 C543 1.366 . S
C542 C544 1.388 . S
C543 C542 1.366 . S
C543 C547 1.385 1_545 S
C544 H525 0.951 . S
C544 C542 1.388 . S
C544 C545 1.366 . S
C545 C544 1.366 . S
C545 C546 1.414 1_545 S
C545 C548 1.499 . S
C546 H526 0.950 . S
C546 C545 1.414 1_565 S
C546 C547 1.374 . S
C547 H527 0.950 . S
C547 C543 1.385 1_565 S
C547 C546 1.374 . S
C548 C545 1.499 . S
C548 C549 1.373 1_545 S
C548 C550 1.389 . S
C549 H528 0.950 . S
C549 C548 1.373 1_565 S
C549 C565 1.377 . S
C550 C548 1.389 . S
C550 C551 1.524 . S
C550 C564 1.377 . S
C551 C550 1.524 . S
C551 C552 1.397 . S
C551 C556 1.363 . S
C552 H529 0.950 1_545 S
C552 C551 1.397 . S
C552 C553 1.334 . S
C553 H530 0.950 . S
C553 C552 1.334 . S
C553 C554 1.287 . S
C554 C553 1.287 . S
C554 C555 1.524 . S
C554 H573 0.913 . S
C555 H531 0.950 . S
C555 C554 1.524 . S
C555 C556 1.415 . S
C556 H532 0.950 . S
C556 C551 1.363 . S
C556 C555 1.415 . S
C557 H533 0.951 . S
C557 C558 1.366 . S
C557 C559 1.388 . S
C558 C557 1.366 . S
C558 C562 1.385 1_565 S
C559 H534 0.951 . S
C559 C557 1.388 . S
C559 C560 1.366 . S
C560 C559 1.366 . S
C560 C561 1.414 1_565 S
C560 C563 1.503 . S
C561 H535 0.950 . S
C561 C560 1.414 1_545 S
C561 C562 1.374 . S
C562 H536 0.950 . S
C562 C558 1.385 1_545 S
C562 C561 1.374 . S
C563 C560 1.503 . S
C563 C564 1.354 1_565 S
C563 C565 1.408 . S
C564 H537 0.950 . S
C564 C550 1.377 . S
C564 C563 1.354 1_545 S
C565 C549 1.377 . S
C565 C563 1.408 . S
C565 C566 1.524 . S
C566 C565 1.524 . S
C566 C567 1.397 . S
C566 C571 1.363 . S
C567 H538 0.950 1_565 S
C567 C566 1.397 . S
C567 C568 1.334 . S
C568 H539 0.950 . S
C568 C567 1.334 . S
C568 C569 1.287 . S
C569 C568 1.287 . S
C569 C570 1.524 . S
C569 H572 0.999 . S
C570 H540 0.950 . S
C570 C569 1.524 . S
C570 C571 1.415 . S
C571 H541 0.950 . S
C571 C566 1.363 . S
C571 C570 1.415 . S
H572 C569 0.999 . S
H573 C554 0.913 . S
H574 C592 0.951 . S
H575 C594 0.951 . S
H576 C596 0.950 . S
H577 C597 0.950 . S
H578 C599 0.950 . S
H579 C602 0.950 . S
H580 C603 0.950 . S
H581 C605 0.950 . S
H582 C606 0.950 . S
H583 C607 0.951 . S
H584 C609 0.951 . S
H585 C611 0.950 . S
H586 C612 0.950 . S
H587 C614 0.950 . S
H588 C617 0.950 . S
H589 C618 0.950 . S
H590 C620 0.950 . S
H591 C621 0.950 . S
C592 H574 0.951 . S
C592 C593 1.366 . S
C592 C594 1.388 . S
C593 C592 1.366 . S
C593 C597 1.385 . S
C594 H575 0.951 . S
C594 C592 1.388 . S
C594 C595 1.366 . S
C595 C594 1.366 . S
C595 C596 1.414 . S
C595 C598 1.499 . S
C596 H576 0.950 . S
C596 C595 1.414 . S
C596 C597 1.374 . S
C597 H577 0.950 . S
C597 C593 1.385 . S
C597 C596 1.374 . S
C598 C595 1.499 . S
C598 C599 1.373 . S
C598 C600 1.389 . S
C599 H578 0.950 . S
C599 C598 1.373 . S
C599 C615 1.377 1_554 S
C600 C598 1.389 . S
C600 C601 1.524 . S
C600 C614 1.377 1_554 S
C601 C600 1.524 . S
C601 C602 1.397 . S
C601 C606 1.363 . S
C602 H579 0.950 . S
C602 C601 1.397 . S
C602 C603 1.334 . S
C603 H580 0.950 . S
C603 C602 1.334 . S
C603 C604 1.287 . S
C604 C603 1.287 . S
C604 C605 1.524 . S
C604 H623 0.913 . S
C605 H581 0.950 . S
C605 C604 1.524 . S
C605 C606 1.415 . S
C606 H582 0.950 . S
C606 C601 1.363 . S
C606 C605 1.415 . S
C607 H583 0.951 . S
C607 C608 1.366 . S
C607 C609 1.388 . S
C608 C607 1.366 . S
C608 C612 1.385 . S
C609 H584 0.951 . S
C609 C607 1.388 . S
C609 C610 1.366 . S
C610 C609 1.366 . S
C610 C611 1.414 . S
C610 C613 1.499 . S
C611 H585 0.950 . S
C611 C610 1.414 . S
C611 C612 1.374 . S
C612 H586 0.950 . S
C612 C608 1.385 . S
C612 C611 1.374 . S
C613 C610 1.499 . S
C613 C614 1.373 . S
C613 C615 1.389 . S
C614 H587 0.950 . S
C614 C600 1.377 1_556 S
C614 C613 1.373 . S
C615 C599 1.377 1_556 S
C615 C613 1.389 . S
C615 C616 1.524 . S
C616 C615 1.524 . S
C616 C617 1.397 . S
C616 C621 1.363 . S
C617 H588 0.950 . S
C617 C616 1.397 . S
C617 C618 1.334 . S
C618 H589 0.950 . S
C618 C617 1.334 . S
C618 C619 1.287 . S
C619 C618 1.287 . S
C619 C620 1.524 . S
C619 H622 0.999 . S
C620 H590 0.950 . S
C620 C619 1.524 . S
C620 C621 1.415 . S
C621 H591 0.950 . S
C621 C616 1.363 . S
C621 C620 1.415 . S
H622 C619 0.999 . S
H623 C604 0.913 . S
H624 C642 0.951 . S
H625 C644 0.951 . S
H626 C646 0.950 . S
H627 C647 0.950 . S
H628 C649 0.950 . S
H629 C652 0.950 . S
H630 C653 0.950 . S
H631 C655 0.950 . S
H632 C656 0.950 . S
H633 C657 0.951 . S
H634 C659 0.951 . S
H635 C661 0.950 . S
H636 C662 0.950 . S
H637 C664 0.950 . S
H638 C667 0.950 . S
H639 C668 0.950 . S
H640 C670 0.950 . S
H641 C671 0.950 . S
C642 H624 0.951 . S
C642 C643 1.366 . S
C642 C644 1.388 . S
C643 C642 1.366 . S
C643 C647 1.385 . S
C644 H625 0.951 . S
C644 C642 1.388 . S
C644 C645 1.366 . S
C645 C644 1.366 . S
C645 C646 1.414 . S
C645 C648 1.499 . S
C646 H626 0.950 . S
C646 C645 1.414 . S
C646 C647 1.374 . S
C647 H627 0.950 . S
C647 C643 1.385 . S
C647 C646 1.374 . S
C648 C645 1.499 . S
C648 C649 1.373 . S
C648 C650 1.389 . S
C649 H628 0.950 . S
C649 C648 1.373 . S
C649 C665 1.377 . S
C650 C648 1.389 . S
C650 C651 1.524 . S
C650 C664 1.377 . S
C651 C650 1.524 . S
C651 C652 1.397 . S
C651 C656 1.363 . S
C652 H629 0.950 . S
C652 C651 1.397 . S
C652 C653 1.334 . S
C653 H630 0.950 . S
C653 C652 1.334 . S
C653 C654 1.287 . S
C654 C653 1.287 . S
C654 C655 1.524 . S
C654 H673 0.913 . S
C655 H631 0.950 . S
C655 C654 1.524 . S
C655 C656 1.415 . S
C656 H632 0.950 . S
C656 C651 1.363 . S
C656 C655 1.415 . S
C657 H633 0.951 . S
C657 C658 1.366 . S
C657 C659 1.388 . S
C658 C657 1.366 . S
C658 C662 1.385 . S
C659 H634 0.951 . S
C659 C657 1.388 . S
C659 C660 1.366 . S
C660 C659 1.366 . S
C660 C661 1.414 . S
C660 C663 1.499 . S
C661 H635 0.950 . S
C661 C660 1.414 . S
C661 C662 1.374 . S
C662 H636 0.950 . S
C662 C658 1.385 . S
C662 C661 1.374 . S
C663 C660 1.499 . S
C663 C664 1.373 . S
C663 C665 1.389 . S
C664 H637 0.950 . S
C664 C650 1.377 . S
C664 C663 1.373 . S
C665 C649 1.377 . S
C665 C663 1.389 . S
C665 C666 1.524 . S
C666 C665 1.524 . S
C666 C667 1.397 . S
C666 C671 1.363 . S
C667 H638 0.950 . S
C667 C666 1.397 . S
C667 C668 1.334 . S
C668 H639 0.950 . S
C668 C667 1.334 . S
C668 C669 1.287 . S
C669 C668 1.287 . S
C669 C670 1.524 . S
C669 H672 0.999 . S
C670 H640 0.950 . S
C670 C669 1.524 . S
C670 C671 1.415 . S
C671 H641 0.950 . S
C671 C666 1.363 . S
C671 C670 1.415 . S
H672 C669 0.999 . S
H673 C654 0.913 . S
H674 C692 0.951 . S
H675 C694 0.951 . S
H676 C696 0.950 . S
H677 C697 0.950 . S
H678 C699 0.950 . S
H679 C702 0.950 . S
H680 C703 0.950 . S
H681 C705 0.950 . S
H682 C706 0.950 . S
H683 C707 0.951 . S
H684 C709 0.951 . S
H685 C711 0.950 . S
H686 C712 0.950 . S
H687 C714 0.950 . S
H688 C717 0.950 . S
H689 C718 0.950 . S
H690 C720 0.950 . S
H691 C721 0.950 . S
C692 H674 0.951 . S
C692 C693 1.366 . S
C692 C694 1.388 . S
C693 C692 1.366 . S
C693 C697 1.385 . S
C694 H675 0.951 . S
C694 C692 1.388 . S
C694 C695 1.366 . S
C695 C694 1.366 . S
C695 C696 1.414 . S
C695 C698 1.499 . S
C696 H676 0.950 . S
C696 C695 1.414 . S
C696 C697 1.374 . S
C697 H677 0.950 . S
C697 C693 1.385 . S
C697 C696 1.374 . S
C698 C695 1.499 . S
C698 C699 1.373 . S
C698 C700 1.389 . S
C699 H678 0.950 . S
C699 C698 1.373 . S
C699 C715 1.377 1_556 S
C700 C698 1.389 . S
C700 C701 1.524 . S
C700 C714 1.377 1_556 S
C701 C700 1.524 . S
C701 C702 1.397 . S
C701 C706 1.363 . S
C702 H679 0.950 . S
C702 C701 1.397 . S
C702 C703 1.334 . S
C703 H680 0.950 . S
C703 C702 1.334 . S
C703 C704 1.287 . S
C704 C703 1.287 . S
C704 C705 1.524 . S
C704 H723 0.913 . S
C705 H681 0.950 . S
C705 C704 1.524 . S
C705 C706 1.415 . S
C706 H682 0.950 . S
C706 C701 1.363 . S
C706 C705 1.415 . S
C707 H683 0.951 . S
C707 C708 1.366 . S
C707 C709 1.388 . S
C708 C707 1.366 . S
C708 C712 1.385 . S
C709 H684 0.951 . S
C709 C707 1.388 . S
C709 C710 1.366 . S
C710 C709 1.366 . S
C710 C711 1.414 . S
C710 C713 1.499 . S
C711 H685 0.950 . S
C711 C710 1.414 . S
C711 C712 1.374 . S
C712 H686 0.950 . S
C712 C708 1.385 . S
C712 C711 1.374 . S
C713 C710 1.499 . S
C713 C714 1.373 . S
C713 C715 1.389 . S
C714 H687 0.950 . S
C714 C700 1.377 1_554 S
C714 C713 1.373 . S
C715 C699 1.377 1_554 S
C715 C713 1.389 . S
C715 C716 1.524 . S
C716 C715 1.524 . S
C716 C717 1.397 . S
C716 C721 1.363 . S
C717 H688 0.950 . S
C717 C716 1.397 . S
C717 C718 1.334 . S
C718 H689 0.950 . S
C718 C717 1.334 . S
C718 C719 1.287 . S
C719 C718 1.287 . S
C719 C720 1.524 . S
C719 H722 0.999 . S
C720 H690 0.950 . S
C720 C719 1.524 . S
C720 C721 1.415 . S
C721 H691 0.950 . S
C721 C716 1.363 . S
C721 C720 1.415 . S
H722 C719 0.999 . S
H723 C704 0.913 . S
H724 C742 0.951 . S
H725 C744 0.951 . S
H726 C746 0.950 . S
H727 C747 0.950 . S
H728 C749 0.950 . S
H729 C752 0.950 . S
H730 C753 0.950 . S
H731 C755 0.950 . S
H732 C756 0.950 . S
H733 C757 0.951 . S
H734 C759 0.951 . S
H735 C761 0.950 . S
H736 C762 0.950 . S
H737 C764 0.950 . S
H738 C767 0.950 . S
H739 C768 0.950 . S
H740 C770 0.950 . S
H741 C771 0.950 . S
C742 H724 0.951 . S
C742 C743 1.366 . S
C742 C744 1.388 . S
C743 C742 1.366 . S
C743 C747 1.385 . S
C744 H725 0.951 . S
C744 C742 1.388 . S
C744 C745 1.366 . S
C745 C744 1.366 . S
C745 C746 1.414 . S
C745 C748 1.499 . S
C746 H726 0.950 . S
C746 C745 1.414 . S
C746 C747 1.374 . S
C747 H727 0.950 . S
C747 C743 1.385 . S
C747 C746 1.374 . S
C748 C745 1.499 . S
C748 C749 1.373 . S
C748 C750 1.389 1_455 S
C749 H728 0.950 . S
C749 C748 1.373 . S
C749 C765 1.377 . S
C750 C748 1.389 1_655 S
C750 C751 1.524 . S
C750 C764 1.377 . S
C751 C750 1.524 . S
C751 C752 1.397 . S
C751 C756 1.363 . S
C752 H729 0.950 . S
C752 C751 1.397 . S
C752 C753 1.334 . S
C753 H730 0.950 . S
C753 C752 1.334 . S
C753 C754 1.287 . S
C754 C753 1.287 . S
C754 C755 1.524 . S
C754 H773 0.913 . S
C755 H731 0.950 . S
C755 C754 1.524 . S
C755 C756 1.415 . S
C756 H732 0.950 . S
C756 C751 1.363 . S
C756 C755 1.415 . S
C757 H733 0.951 . S
C757 C758 1.366 . S
C757 C759 1.388 . S
C758 C757 1.366 . S
C758 C762 1.385 . S
C759 H734 0.951 . S
C759 C757 1.388 . S
C759 C760 1.366 . S
C760 C759 1.366 . S
C760 C761 1.414 . S
C760 C763 1.499 . S
C761 H735 0.950 . S
C761 C760 1.414 . S
C761 C762 1.374 . S
C762 H736 0.950 . S
C762 C758 1.385 . S
C762 C761 1.374 . S
C763 C760 1.499 . S
C763 C764 1.373 1_455 S
C763 C765 1.389 . S
C764 H737 0.950 . S
C764 C750 1.377 . S
C764 C763 1.373 1_655 S
C765 C749 1.377 . S
C765 C763 1.389 . S
C765 C766 1.524 . S
C766 C765 1.524 . S
C766 C767 1.397 . S
C766 C771 1.363 . S
C767 H738 0.950 . S
C767 C766 1.397 . S
C767 C768 1.334 . S
C768 H739 0.950 . S
C768 C767 1.334 . S
C768 C769 1.287 . S
C769 C768 1.287 . S
C769 C770 1.524 . S
C769 H772 0.999 . S
C770 H740 0.950 . S
C770 C769 1.524 . S
C770 C771 1.415 . S
C771 H741 0.950 . S
C771 C766 1.363 . S
C771 C770 1.415 . S
H772 C769 0.999 . S
H773 C754 0.913 . S
H774 C792 0.951 . S
H775 C794 0.951 . S
H776 C796 0.950 . S
H777 C797 0.950 . S
H778 C799 0.950 . S
H779 C802 0.950 . S
H780 C803 0.950 . S
H781 C805 0.950 . S
H782 C806 0.950 . S
H783 C807 0.951 . S
H784 C809 0.951 . S
H785 C811 0.950 . S
H786 C812 0.950 . S
H787 C814 0.950 . S
H788 C817 0.950 . S
H789 C818 0.950 . S
H790 C820 0.950 . S
H791 C821 0.950 . S
C792 H774 0.951 . S
C792 C793 1.366 . S
C792 C794 1.388 . S
C793 C792 1.366 . S
C793 C797 1.385 . S
C794 H775 0.951 . S
C794 C792 1.388 . S
C794 C795 1.366 . S
C795 C794 1.366 . S
C795 C796 1.414 . S
C795 C798 1.499 . S
C796 H776 0.950 . S
C796 C795 1.414 . S
C796 C797 1.374 . S
C797 H777 0.950 . S
C797 C793 1.385 . S
C797 C796 1.374 . S
C798 C795 1.499 . S
C798 C799 1.373 . S
C798 C800 1.389 . S
C799 H778 0.950 . S
C799 C798 1.373 . S
C799 C815 1.377 . S
C800 C798 1.389 . S
C800 C801 1.524 . S
C800 C814 1.377 . S
C801 C800 1.524 . S
C801 C802 1.397 . S
C801 C806 1.363 . S
C802 H779 0.950 . S
C802 C801 1.397 . S
C802 C803 1.334 . S
C803 H780 0.950 . S
C803 C802 1.334 . S
C803 C804 1.287 . S
C804 C803 1.287 . S
C804 C805 1.524 . S
C804 H823 0.913 . S
C805 H781 0.950 . S
C805 C804 1.524 . S
C805 C806 1.415 . S
C806 H782 0.950 . S
C806 C801 1.363 . S
C806 C805 1.415 . S
C807 H783 0.951 . S
C807 C808 1.366 . S
C807 C809 1.388 . S
C808 C807 1.366 . S
C808 C812 1.385 . S
C809 H784 0.951 . S
C809 C807 1.388 . S
C809 C810 1.366 . S
C810 C809 1.366 . S
C810 C811 1.414 . S
C810 C813 1.499 . S
C811 H785 0.950 . S
C811 C810 1.414 . S
C811 C812 1.374 . S
C812 H786 0.950 . S
C812 C808 1.385 . S
C812 C811 1.374 . S
C813 C810 1.499 . S
C813 C814 1.373 . S
C813 C815 1.389 . S
C814 H787 0.950 . S
C814 C800 1.377 . S
C814 C813 1.373 . S
C815 C799 1.377 . S
C815 C813 1.389 . S
C815 C816 1.524 . S
C816 C815 1.524 . S
C816 C817 1.397 . S
C816 C821 1.363 . S
C817 H788 0.950 . S
C817 C816 1.397 . S
C817 C818 1.334 . S
C818 H789 0.950 . S
C818 C817 1.334 . S
C818 C819 1.287 . S
C819 C818 1.287 . S
C819 C820 1.524 . S
C819 H822 0.999 . S
C820 H790 0.950 . S
C820 C819 1.524 . S
C820 C821 1.415 . S
C821 H791 0.950 . S
C821 C816 1.363 . S
C821 C820 1.415 . S
H822 C819 0.999 . S
H823 C804 0.913 . S
H824 C842 0.951 . S
H825 C844 0.951 . S
H826 C846 0.950 . S
H827 C847 0.950 . S
H828 C849 0.950 . S
H829 C852 0.950 . S
H830 C853 0.950 . S
H831 C855 0.950 . S
H832 C856 0.950 . S
H833 C857 0.951 . S
H834 C859 0.951 . S
H835 C861 0.950 . S
H836 C862 0.950 . S
H837 C864 0.950 . S
H838 C867 0.950 . S
H839 C868 0.950 . S
H840 C870 0.950 . S
H841 C871 0.950 . S
C842 H824 0.951 . S
C842 C843 1.366 . S
C842 C844 1.388 . S
C843 C842 1.366 . S
C843 C847 1.385 . S
C844 H825 0.951 . S
C844 C842 1.388 . S
C844 C845 1.366 . S
C845 C844 1.366 . S
C845 C846 1.414 . S
C845 C848 1.499 . S
C846 H826 0.950 . S
C846 C845 1.414 . S
C846 C847 1.374 . S
C847 H827 0.950 . S
C847 C843 1.385 . S
C847 C846 1.374 . S
C848 C845 1.499 . S
C848 C849 1.373 . S
C848 C850 1.389 . S
C849 H828 0.950 . S
C849 C848 1.373 . S
C849 C865 1.377 . S
C850 C848 1.389 . S
C850 C851 1.524 . S
C850 C864 1.377 . S
C851 C850 1.524 . S
C851 C852 1.397 . S
C851 C856 1.363 . S
C852 H829 0.950 . S
C852 C851 1.397 . S
C852 C853 1.334 . S
C853 H830 0.950 . S
C853 C852 1.334 . S
C853 C854 1.287 . S
C854 C853 1.287 . S
C854 C855 1.524 . S
C854 H873 0.913 . S
C855 H831 0.950 . S
C855 C854 1.524 . S
C855 C856 1.415 . S
C856 H832 0.950 . S
C856 C851 1.363 . S
C856 C855 1.415 . S
C857 H833 0.951 . S
C857 C858 1.366 . S
C857 C859 1.388 . S
C858 C857 1.366 . S
C858 C862 1.385 . S
C859 H834 0.951 . S
C859 C857 1.388 . S
C859 C860 1.366 . S
C860 C859 1.366 . S
C860 C861 1.414 . S
C860 C863 1.499 . S
C861 H835 0.950 . S
C861 C860 1.414 . S
C861 C862 1.374 . S
C862 H836 0.950 . S
C862 C858 1.385 . S
C862 C861 1.374 . S
C863 C860 1.499 . S
C863 C864 1.373 . S
C863 C865 1.389 . S
C864 H837 0.950 . S
C864 C850 1.377 . S
C864 C863 1.373 . S
C865 C849 1.377 . S
C865 C863 1.389 . S
C865 C866 1.524 . S
C866 C865 1.524 . S
C866 C867 1.397 . S
C866 C871 1.363 . S
C867 H838 0.950 . S
C867 C866 1.397 . S
C867 C868 1.334 . S
C868 H839 0.950 . S
C868 C867 1.334 . S
C868 C869 1.287 . S
C869 C868 1.287 . S
C869 C870 1.524 . S
C869 H872 0.999 . S
C870 H840 0.950 . S
C870 C869 1.524 . S
C870 C871 1.415 . S
C871 H841 0.950 . S
C871 C866 1.363 . S
C871 C870 1.415 . S
H872 C869 0.999 . S
H873 C854 0.913 . S
H874 C892 0.951 . S
H875 C894 0.951 . S
H876 C896 0.950 . S
H877 C897 0.950 . S
H878 C899 0.950 . S
H879 C902 0.950 . S
H880 C903 0.950 . S
H881 C905 0.950 . S
H882 C906 0.950 . S
H883 C907 0.951 . S
H884 C909 0.951 . S
H885 C911 0.950 . S
H886 C912 0.950 . S
H887 C914 0.950 . S
H888 C917 0.950 . S
H889 C918 0.950 . S
H890 C920 0.950 . S
H891 C921 0.950 . S
C892 H874 0.951 . S
C892 C893 1.366 . S
C892 C894 1.388 . S
C893 C892 1.366 . S
C893 C897 1.385 . S
C894 H875 0.951 . S
C894 C892 1.388 . S
C894 C895 1.366 . S
C895 C894 1.366 . S
C895 C896 1.414 . S
C895 C898 1.499 . S
C896 H876 0.950 . S
C896 C895 1.414 . S
C896 C897 1.374 . S
C897 H877 0.950 . S
C897 C893 1.385 . S
C897 C896 1.374 . S
C898 C895 1.499 . S
C898 C899 1.373 . S
C898 C900 1.389 . S
C899 H878 0.950 . S
C899 C898 1.373 . S
C899 C915 1.377 1_554 S
C900 C898 1.389 . S
C900 C901 1.524 . S
C900 C914 1.377 1_554 S
C901 C900 1.524 . S
C901 C902 1.397 . S
C901 C906 1.363 . S
C902 H879 0.950 . S
C902 C901 1.397 . S
C902 C903 1.334 . S
C903 H880 0.950 . S
C903 C902 1.334 . S
C903 C904 1.287 . S
C904 C903 1.287 . S
C904 C905 1.524 . S
C904 H923 0.913 . S
C905 H881 0.950 . S
C905 C904 1.524 . S
C905 C906 1.415 . S
C906 H882 0.950 . S
C906 C901 1.363 . S
C906 C905 1.415 . S
C907 H883 0.951 . S
C907 C908 1.366 . S
C907 C909 1.388 . S
C908 C907 1.366 . S
C908 C912 1.385 . S
C909 H884 0.951 . S
C909 C907 1.388 . S
C909 C910 1.366 . S
C910 C909 1.366 . S
C910 C911 1.414 . S
C910 C913 1.499 . S
C911 H885 0.950 . S
C911 C910 1.414 . S
C911 C912 1.374 . S
C912 H886 0.950 . S
C912 C908 1.385 . S
C912 C911 1.374 . S
C913 C910 1.499 . S
C913 C914 1.373 . S
C913 C915 1.389 . S
C914 H887 0.950 . S
C914 C900 1.377 1_556 S
C914 C913 1.373 . S
C915 C899 1.377 1_556 S
C915 C913 1.389 . S
C915 C916 1.524 . S
C916 C915 1.524 . S
C916 C917 1.397 . S
C916 C921 1.363 . S
C917 H888 0.950 . S
C917 C916 1.397 . S
C917 C918 1.334 . S
C918 H889 0.950 . S
C918 C917 1.334 . S
C918 C919 1.287 . S
C919 C918 1.287 . S
C919 C920 1.524 . S
C919 H922 0.999 . S
C920 H890 0.950 . S
C920 C919 1.524 . S
C920 C921 1.415 . S
C921 H891 0.950 . S
C921 C916 1.363 . S
C921 C920 1.415 . S
H922 C919 0.999 . S
H923 C904 0.913 . S
H924 C942 0.951 . S
H925 C944 0.951 . S
H926 C946 0.950 . S
H927 C947 0.950 . S
H928 C949 0.957 . S
H929 C952 0.950 . S
H930 C953 0.950 . S
H931 C955 0.950 . S
H932 C956 0.950 . S
H933 C957 0.951 . S
H934 C959 0.951 . S
H935 C961 0.950 . S
H936 C962 0.950 . S
H937 C964 0.950 . S
H938 C967 0.950 . S
H939 C968 0.950 . S
H940 C970 0.950 . S
H941 C971 0.950 1_655 S
C942 H924 0.951 . S
C942 C943 1.366 1_455 S
C942 C944 1.388 . S
C943 C942 1.366 1_655 S
C943 C947 1.385 . S
C944 H925 0.951 . S
C944 C942 1.388 . S
C944 C945 1.366 1_455 S
C945 C944 1.366 1_655 S
C945 C946 1.414 . S
C945 C948 1.499 . S
C946 H926 0.950 . S
C946 C945 1.414 . S
C946 C947 1.374 . S
C947 H927 0.950 . S
C947 C943 1.385 . S
C947 C946 1.374 . S
C948 C945 1.499 . S
C948 C949 1.366 1_655 S
C948 C950 1.389 . S
C949 H928 0.957 . S
C949 C948 1.366 1_455 S
C949 C965 1.378 . S
C950 C948 1.389 . S
C950 C951 1.524 . S
C950 C964 1.377 . S
C951 C950 1.524 . S
C951 C952 1.397 . S
C951 C956 1.363 . S
C952 H929 0.950 . S
C952 C951 1.397 . S
C952 C953 1.334 . S
C953 H930 0.950 . S
C953 C952 1.334 . S
C953 C954 1.287 . S
C954 C953 1.287 . S
C954 C955 1.524 . S
C954 H973 0.913 . S
C955 H931 0.950 . S
C955 C954 1.524 . S
C955 C956 1.415 . S
C956 H932 0.950 . S
C956 C951 1.363 . S
C956 C955 1.415 . S
C957 H933 0.951 . S
C957 C958 1.366 . S
C957 C959 1.388 . S
C958 C957 1.366 . S
C958 C962 1.385 1_655 S
C959 H934 0.951 . S
C959 C957 1.388 . S
C959 C960 1.366 . S
C960 C959 1.366 . S
C960 C961 1.414 1_655 S
C960 C963 1.499 . S
C961 H935 0.950 . S
C961 C960 1.414 1_455 S
C961 C962 1.374 . S
C962 H936 0.950 . S
C962 C958 1.385 1_455 S
C962 C961 1.374 . S
C963 C960 1.499 . S
C963 C964 1.373 . S
C963 C965 1.389 1_655 S
C964 H937 0.950 . S
C964 C950 1.377 . S
C964 C963 1.373 . S
C965 C949 1.378 . S
C965 C963 1.389 1_455 S
C965 C966 1.524 . S
C966 C965 1.524 . S
C966 C967 1.397 . S
C966 C971 1.363 . S
C967 H938 0.950 . S
C967 C966 1.397 . S
C967 C968 1.334 . S
C968 H939 0.950 . S
C968 C967 1.334 . S
C968 C969 1.287 . S
C969 C968 1.287 . S
C969 C970 1.524 . S
C969 H972 0.999 . S
C970 H940 0.950 . S
C970 C969 1.524 . S
C970 C971 1.415 . S
C971 H941 0.950 1_455 S
C971 C966 1.363 . S
C971 C970 1.415 . S
H972 C969 0.999 . S
H973 C954 0.913 . S
H974 C992 0.951 . S
H975 C994 0.951 . S
H976 C996 0.950 . S
H977 C997 0.950 . S
H978 C999 0.950 . S
H979 C1002 0.950 . S
H980 C1003 0.950 . S
H981 C1005 0.950 . S
H982 C1006 0.950 . S
H983 C1007 0.951 . S
H984 C1009 0.951 . S
H985 C1011 0.950 . S
H986 C1012 0.950 . S
H987 C1014 0.950 . S
H988 C1017 0.950 . S
H989 C1018 0.950 . S
H990 C1020 0.950 . S
H991 C1021 0.950 . S
C992 H974 0.951 . S
C992 C993 1.366 . S
C992 C994 1.388 . S
C993 C992 1.366 . S
C993 C997 1.385 . S
C994 H975 0.951 . S
C994 C992 1.388 . S
C994 C995 1.366 . S
C995 C994 1.366 . S
C995 C996 1.414 . S
C995 C998 1.499 . S
C996 H976 0.950 . S
C996 C995 1.414 . S
C996 C997 1.374 . S
C997 H977 0.950 . S
C997 C993 1.385 . S
C997 C996 1.374 . S
C998 C995 1.499 . S
C998 C999 1.373 . S
C998 C1000 1.389 . S
C999 H978 0.950 . S
C999 C998 1.373 . S
C999 C1015 1.377 . S
C1000 C998 1.389 . S
C1000 C1001 1.524 . S
C1000 C1014 1.377 . S
C1001 C1000 1.524 . S
C1001 C1002 1.397 . S
C1001 C1006 1.363 . S
C1002 H979 0.950 . S
C1002 C1001 1.397 . S
C1002 C1003 1.334 . S
C1003 H980 0.950 . S
C1003 C1002 1.334 . S
C1003 C1004 1.287 . S
C1004 C1003 1.287 . S
C1004 C1005 1.524 . S
C1004 H1023 0.913 . S
C1005 H981 0.950 . S
C1005 C1004 1.524 . S
C1005 C1006 1.415 . S
C1006 H982 0.950 . S
C1006 C1001 1.363 . S
C1006 C1005 1.415 . S
C1007 H983 0.951 . S
C1007 C1008 1.366 . S
C1007 C1009 1.388 . S
C1008 C1007 1.366 . S
C1008 C1012 1.385 . S
C1009 H984 0.951 . S
C1009 C1007 1.388 . S
C1009 C1010 1.366 . S
C1010 C1009 1.366 . S
C1010 C1011 1.414 . S
C1010 C1013 1.499 . S
C1011 H985 0.950 . S
C1011 C1010 1.414 . S
C1011 C1012 1.374 . S
C1012 H986 0.950 . S
C1012 C1008 1.385 . S
C1012 C1011 1.374 . S
C1013 C1010 1.499 . S
C1013 C1014 1.373 . S
C1013 C1015 1.389 . S
C1014 H987 0.950 . S
C1014 C1000 1.377 . S
C1014 C1013 1.373 . S
C1015 C999 1.377 . S
C1015 C1013 1.389 . S
C1015 C1016 1.524 . S
C1016 C1015 1.524 . S
C1016 C1017 1.397 . S
C1016 C1021 1.363 . S
C1017 H988 0.950 . S
C1017 C1016 1.397 . S
C1017 C1018 1.334 . S
C1018 H989 0.950 . S
C1018 C1017 1.334 . S
C1018 C1019 1.287 . S
C1019 C1018 1.287 . S
C1019 C1020 1.524 . S
C1019 H1022 0.999 . S
C1020 H990 0.950 . S
C1020 C1019 1.524 . S
C1020 C1021 1.415 . S
C1021 H991 0.950 . S
C1021 C1016 1.363 . S
C1021 C1020 1.415 . S
H1022 C1019 0.999 . S
H1023 C1004 0.913 . S
H1024 C1042 0.951 . S
H1025 C1044 0.951 . S
H1026 C1046 0.950 . S
H1027 C1047 0.950 . S
H1028 C1049 0.950 . S
H1029 C1052 0.950 . S
H1030 C1053 0.950 1_556 S
H1031 C1055 0.950 . S
H1032 C1056 0.950 . S
H1033 C1057 0.951 . S
H1034 C1059 0.951 . S
H1035 C1061 0.950 . S
H1036 C1062 0.950 . S
H1037 C1064 0.950 . S
H1038 C1067 0.950 . S
H1039 C1068 0.950 . S
H1040 C1070 0.950 . S
H1041 C1071 0.950 . S
C1042 H1024 0.951 . S
C1042 C1043 1.366 . S
C1042 C1044 1.388 . S
C1043 C1042 1.366 . S
C1043 C1047 1.385 . S
C1044 H1025 0.951 . S
C1044 C1042 1.388 . S
C1044 C1045 1.366 . S
C1045 C1044 1.366 . S
C1045 C1046 1.414 . S
C1045 C1048 1.499 . S
C1046 H1026 0.950 . S
C1046 C1045 1.414 . S
C1046 C1047 1.374 . S
C1047 H1027 0.950 . S
C1047 C1043 1.385 . S
C1047 C1046 1.374 . S
C1048 C1045 1.499 . S
C1048 C1049 1.373 . S
C1048 C1050 1.389 . S
C1049 H1028 0.950 . S
C1049 C1048 1.373 . S
C1049 C1065 1.377 . S
C1050 C1048 1.389 . S
C1050 C1051 1.524 . S
C1050 C1064 1.377 . S
C1051 C1050 1.524 . S
C1051 C1052 1.397 . S
C1051 C1056 1.363 . S
C1052 H1029 0.950 . S
C1052 C1051 1.397 . S
C1052 C1053 1.334 . S
C1053 H1030 0.950 1_554 S
C1053 C1052 1.334 . S
C1053 C1054 1.287 . S
C1054 C1053 1.287 . S
C1054 C1055 1.524 . S
C1054 H1073 0.913 . S
C1055 H1031 0.950 . S
C1055 C1054 1.524 . S
C1055 C1056 1.415 . S
C1056 H1032 0.950 . S
C1056 C1051 1.363 . S
C1056 C1055 1.415 . S
C1057 H1033 0.951 . S
C1057 C1058 1.366 . S
C1057 C1059 1.388 . S
C1058 C1057 1.366 . S
C1058 C1062 1.385 . S
C1059 H1034 0.951 . S
C1059 C1057 1.388 . S
C1059 C1060 1.366 . S
C1060 C1059 1.366 . S
C1060 C1061 1.414 . S
C1060 C1063 1.499 . S
C1061 H1035 0.950 . S
C1061 C1060 1.414 . S
C1061 C1062 1.374 . S
C1062 H1036 0.950 . S
C1062 C1058 1.385 . S
C1062 C1061 1.374 . S
C1063 C1060 1.499 . S
C1063 C1064 1.373 . S
C1063 C1065 1.389 . S
C1064 H1037 0.950 . S
C1064 C1050 1.377 . S
C1064 C1063 1.373 . S
C1065 C1049 1.377 . S
C1065 C1063 1.389 . S
C1065 C1066 1.524 . S
C1066 C1065 1.524 . S
C1066 C1067 1.397 . S
C1066 C1071 1.363 . S
C1067 H1038 0.950 . S
C1067 C1066 1.397 . S
C1067 C1068 1.334 . S
C1068 H1039 0.950 . S
C1068 C1067 1.334 . S
C1068 C1069 1.287 . S
C1069 C1068 1.287 . S
C1069 C1070 1.524 . S
C1069 H1072 0.999 . S
C1070 H1040 0.950 . S
C1070 C1069 1.524 . S
C1070 C1071 1.415 . S
C1071 H1041 0.950 . S
C1071 C1066 1.363 . S
C1071 C1070 1.415 . S
H1072 C1069 0.999 . S
H1073 C1054 0.913 . S
H1074 C1092 0.951 . S
H1075 C1094 0.951 . S
H1076 C1096 0.950 . S
H1077 C1097 0.950 . S
H1078 C1099 0.950 . S
H1079 C1102 0.950 . S
H1080 C1103 0.950 . S
H1081 C1105 0.950 . S
H1082 C1106 0.950 . S
H1083 C1107 0.951 . S
H1084 C1109 0.951 . S
H1085 C1111 0.950 . S
H1086 C1112 0.950 . S
H1087 C1114 0.950 . S
H1088 C1117 0.950 . S
H1089 C1118 0.950 . S
H1090 C1120 0.950 . S
H1091 C1121 0.950 . S
C1092 H1074 0.951 . S
C1092 C1093 1.366 . S
C1092 C1094 1.388 . S
C1093 C1092 1.366 . S
C1093 C1097 1.385 . S
C1094 H1075 0.951 . S
C1094 C1092 1.388 . S
C1094 C1095 1.366 . S
C1095 C1094 1.366 . S
C1095 C1096 1.414 . S
C1095 C1098 1.499 . S
C1096 H1076 0.950 . S
C1096 C1095 1.414 . S
C1096 C1097 1.374 . S
C1097 H1077 0.950 . S
C1097 C1093 1.385 . S
C1097 C1096 1.374 . S
C1098 C1095 1.499 . S
C1098 C1099 1.373 . S
C1098 C1100 1.389 . S
C1099 H1078 0.950 . S
C1099 C1098 1.373 . S
C1099 C1115 1.377 . S
C1100 C1098 1.389 . S
C1100 C1101 1.524 . S
C1100 C1114 1.377 . S
C1101 C1100 1.524 . S
C1101 C1102 1.397 . S
C1101 C1106 1.363 . S
C1102 H1079 0.950 . S
C1102 C1101 1.397 . S
C1102 C1103 1.334 . S
C1103 H1080 0.950 . S
C1103 C1102 1.334 . S
C1103 C1104 1.287 . S
C1104 C1103 1.287 . S
C1104 C1105 1.524 . S
C1104 H1123 0.913 . S
C1105 H1081 0.950 . S
C1105 C1104 1.524 . S
C1105 C1106 1.415 . S
C1106 H1082 0.950 . S
C1106 C1101 1.363 . S
C1106 C1105 1.415 . S
C1107 H1083 0.951 . S
C1107 C1108 1.366 . S
C1107 C1109 1.388 . S
C1108 C1107 1.366 . S
C1108 C1112 1.385 . S
C1109 H1084 0.951 . S
C1109 C1107 1.388 . S
C1109 C1110 1.366 . S
C1110 C1109 1.366 . S
C1110 C1111 1.414 . S
C1110 C1113 1.499 . S
C1111 H1085 0.950 . S
C1111 C1110 1.414 . S
C1111 C1112 1.374 . S
C1112 H1086 0.950 . S
C1112 C1108 1.385 . S
C1112 C1111 1.374 . S
C1113 C1110 1.499 . S
C1113 C1114 1.373 . S
C1113 C1115 1.389 . S
C1114 H1087 0.950 . S
C1114 C1100 1.377 . S
C1114 C1113 1.373 . S
C1115 C1099 1.377 . S
C1115 C1113 1.389 . S
C1115 C1116 1.524 . S
C1116 C1115 1.524 . S
C1116 C1117 1.397 . S
C1116 C1121 1.363 . S
C1117 H1088 0.950 . S
C1117 C1116 1.397 . S
C1117 C1118 1.334 . S
C1118 H1089 0.950 . S
C1118 C1117 1.334 . S
C1118 C1119 1.287 . S
C1119 C1118 1.287 . S
C1119 C1120 1.524 . S
C1119 H1122 0.999 . S
C1120 H1090 0.950 . S
C1120 C1119 1.524 . S
C1120 C1121 1.415 . S
C1121 H1091 0.950 . S
C1121 C1116 1.363 . S
C1121 C1120 1.415 . S
H1122 C1119 0.999 . S
H1123 C1104 0.913 . S
H1124 C1142 0.951 . S
H1125 C1144 0.951 . S
H1126 C1146 0.950 . S
H1127 C1147 0.950 . S
H1128 C1149 0.950 . S
H1129 C1152 0.950 . S
H1130 C1153 0.950 . S
H1131 C1155 0.950 . S
H1132 C1156 0.950 . S
H1133 C1157 0.951 . S
H1134 C1159 0.951 . S
H1135 C1161 0.950 . S
H1136 C1162 0.950 . S
H1137 C1164 0.950 . S
H1138 C1167 0.950 . S
H1139 C1168 0.950 . S
H1140 C1170 0.950 . S
H1141 C1171 0.950 . S
C1142 H1124 0.951 . S
C1142 C1143 1.366 . S
C1142 C1144 1.388 . S
C1143 C1142 1.366 . S
C1143 C1147 1.385 . S
C1144 H1125 0.951 . S
C1144 C1142 1.388 . S
C1144 C1145 1.366 . S
C1145 C1144 1.366 . S
C1145 C1146 1.414 . S
C1145 C1148 1.499 . S
C1146 H1126 0.950 . S
C1146 C1145 1.414 . S
C1146 C1147 1.374 . S
C1147 H1127 0.950 . S
C1147 C1143 1.385 . S
C1147 C1146 1.374 . S
C1148 C1145 1.499 . S
C1148 C1149 1.373 . S
C1148 C1150 1.389 . S
C1149 H1128 0.950 . S
C1149 C1148 1.373 . S
C1149 C1165 1.377 . S
C1150 C1148 1.389 . S
C1150 C1151 1.524 . S
C1150 C1164 1.377 . S
C1151 C1150 1.524 . S
C1151 C1152 1.397 . S
C1151 C1156 1.363 . S
C1152 H1129 0.950 . S
C1152 C1151 1.397 . S
C1152 C1153 1.334 . S
C1153 H1130 0.950 . S
C1153 C1152 1.334 . S
C1153 C1154 1.287 . S
C1154 C1153 1.287 . S
C1154 C1155 1.524 . S
C1154 H1173 0.913 . S
C1155 H1131 0.950 . S
C1155 C1154 1.524 . S
C1155 C1156 1.415 . S
C1156 H1132 0.950 . S
C1156 C1151 1.363 . S
C1156 C1155 1.415 . S
C1157 H1133 0.951 . S
C1157 C1158 1.366 . S
C1157 C1159 1.388 . S
C1158 C1157 1.366 . S
C1158 C1162 1.385 . S
C1159 H1134 0.951 . S
C1159 C1157 1.388 . S
C1159 C1160 1.366 . S
C1160 C1159 1.366 . S
C1160 C1161 1.414 . S
C1160 C1163 1.499 . S
C1161 H1135 0.950 . S
C1161 C1160 1.414 . S
C1161 C1162 1.374 . S
C1162 H1136 0.950 . S
C1162 C1158 1.385 . S
C1162 C1161 1.374 . S
C1163 C1160 1.499 . S
C1163 C1164 1.373 . S
C1163 C1165 1.389 . S
C1164 H1137 0.950 . S
C1164 C1150 1.377 . S
C1164 C1163 1.373 . S
C1165 C1149 1.377 . S
C1165 C1163 1.389 . S
C1165 C1166 1.524 . S
C1166 C1165 1.524 . S
C1166 C1167 1.397 . S
C1166 C1171 1.363 . S
C1167 H1138 0.950 . S
C1167 C1166 1.397 . S
C1167 C1168 1.334 . S
C1168 H1139 0.950 . S
C1168 C1167 1.334 . S
C1168 C1169 1.287 . S
C1169 C1168 1.287 . S
C1169 C1170 1.524 . S
C1169 H1172 0.999 . S
C1170 H1140 0.950 . S
C1170 C1169 1.524 . S
C1170 C1171 1.415 . S
C1171 H1141 0.950 . S
C1171 C1166 1.363 . S
C1171 C1170 1.415 . S
H1172 C1169 0.999 . S
H1173 C1154 0.913 . S
H1174 C1192 0.951 . S
H1175 C1194 0.951 . S
H1176 C1196 0.950 . S
H1177 C1197 0.950 . S
H1178 C1199 0.950 . S
H1179 C1202 0.950 . S
H1180 C1203 0.950 . S
H1181 C1205 0.950 . S
H1182 C1206 0.950 . S
H1183 C1207 0.951 . S
H1184 C1209 0.951 . S
H1185 C1211 0.950 . S
H1186 C1212 0.950 . S
H1187 C1214 0.950 . S
H1188 C1217 0.950 . S
H1189 C1218 0.950 . S
H1190 C1220 0.950 . S
H1191 C1221 0.950 . S
C1192 H1174 0.951 . S
C1192 C1193 1.366 . S
C1192 C1194 1.388 . S
C1193 C1192 1.366 . S
C1193 C1197 1.385 . S
C1194 H1175 0.951 . S
C1194 C1192 1.388 . S
C1194 C1195 1.366 . S
C1195 C1194 1.366 . S
C1195 C1196 1.414 . S
C1195 C1198 1.499 . S
C1196 H1176 0.950 . S
C1196 C1195 1.414 . S
C1196 C1197 1.374 . S
C1197 H1177 0.950 . S
C1197 C1193 1.385 . S
C1197 C1196 1.374 . S
C1198 C1195 1.499 . S
C1198 C1199 1.373 . S
C1198 C1200 1.389 . S
C1199 H1178 0.950 . S
C1199 C1198 1.373 . S
C1199 C1215 1.377 . S
C1200 C1198 1.389 . S
C1200 C1201 1.524 . S
C1200 C1214 1.377 . S
C1201 C1200 1.524 . S
C1201 C1202 1.397 . S
C1201 C1206 1.363 . S
C1202 H1179 0.950 . S
C1202 C1201 1.397 . S
C1202 C1203 1.334 . S
C1203 H1180 0.950 . S
C1203 C1202 1.334 . S
C1203 C1204 1.287 . S
C1204 C1203 1.287 . S
C1204 C1205 1.524 . S
C1204 H1223 0.913 . S
C1205 H1181 0.950 . S
C1205 C1204 1.524 . S
C1205 C1206 1.415 . S
C1206 H1182 0.950 . S
C1206 C1201 1.363 . S
C1206 C1205 1.415 . S
C1207 H1183 0.951 . S
C1207 C1208 1.366 . S
C1207 C1209 1.388 . S
C1208 C1207 1.366 . S
C1208 C1212 1.385 . S
C1209 H1184 0.951 . S
C1209 C1207 1.388 . S
C1209 C1210 1.366 . S
C1210 C1209 1.366 . S
C1210 C1211 1.414 . S
C1210 C1213 1.499 . S
C1211 H1185 0.950 . S
C1211 C1210 1.414 . S
C1211 C1212 1.374 . S
C1212 H1186 0.950 . S
C1212 C1208 1.385 . S
C1212 C1211 1.374 . S
C1213 C1210 1.499 . S
C1213 C1214 1.373 . S
C1213 C1215 1.389 . S
C1214 H1187 0.950 . S
C1214 C1200 1.377 . S
C1214 C1213 1.373 . S
C1215 C1199 1.377 . S
C1215 C1213 1.389 . S
C1215 C1216 1.524 . S
C1216 C1215 1.524 . S
C1216 C1217 1.397 . S
C1216 C1221 1.363 . S
C1217 H1188 0.950 . S
C1217 C1216 1.397 . S
C1217 C1218 1.334 1_556 S
C1218 H1189 0.950 . S
C1218 C1217 1.334 1_554 S
C1218 C1219 1.287 . S
C1219 C1218 1.287 . S
C1219 C1220 1.524 1_554 S
C1219 H1222 0.999 . S
C1220 H1190 0.950 . S
C1220 C1219 1.524 1_556 S
C1220 C1221 1.415 . S
C1221 H1191 0.950 . S
C1221 C1216 1.363 . S
C1221 C1220 1.415 . S
H1222 C1219 0.999 . S
H1223 C1204 0.913 . S
H1224 C1242 0.951 . S
H1225 C1244 0.951 . S
H1226 C1246 0.950 . S
H1227 C1247 0.950 . S
H1228 C1249 0.950 . S
H1229 C1252 0.950 . S
H1230 C1253 0.950 . S
H1231 C1255 0.950 . S
H1232 C1256 0.950 . S
H1233 C1257 0.951 . S
H1234 C1259 0.951 . S
H1235 C1261 0.950 . S
H1236 C1262 0.950 . S
H1237 C1264 0.950 . S
H1238 C1267 0.950 . S
H1239 C1268 0.950 . S
H1240 C1270 0.950 . S
H1241 C1271 0.950 . S
C1242 H1224 0.951 . S
C1242 C1243 1.366 . S
C1242 C1244 1.388 . S
C1243 C1242 1.366 . S
C1243 C1247 1.385 . S
C1244 H1225 0.951 . S
C1244 C1242 1.388 . S
C1244 C1245 1.366 . S
C1245 C1244 1.366 . S
C1245 C1246 1.414 . S
C1245 C1248 1.499 . S
C1246 H1226 0.950 . S
C1246 C1245 1.414 . S
C1246 C1247 1.374 . S
C1247 H1227 0.950 . S
C1247 C1243 1.385 . S
C1247 C1246 1.374 . S
C1248 C1245 1.499 . S
C1248 C1249 1.373 . S
C1248 C1250 1.389 . S
C1249 H1228 0.950 . S
C1249 C1248 1.373 . S
C1249 C1265 1.377 . S
C1250 C1248 1.389 . S
C1250 C1251 1.524 . S
C1250 C1264 1.377 . S
C1251 C1250 1.524 . S
C1251 C1252 1.397 . S
C1251 C1256 1.363 . S
C1252 H1229 0.950 . S
C1252 C1251 1.397 . S
C1252 C1253 1.334 . S
C1253 H1230 0.950 . S
C1253 C1252 1.334 . S
C1253 C1254 1.287 . S
C1254 C1253 1.287 . S
C1254 C1255 1.524 . S
C1254 H1273 0.913 . S
C1255 H1231 0.950 . S
C1255 C1254 1.524 . S
C1255 C1256 1.415 . S
C1256 H1232 0.950 . S
C1256 C1251 1.363 . S
C1256 C1255 1.415 . S
C1257 H1233 0.951 . S
C1257 C1258 1.366 . S
C1257 C1259 1.388 . S
C1258 C1257 1.366 . S
C1258 C1262 1.385 . S
C1259 H1234 0.951 . S
C1259 C1257 1.388 . S
C1259 C1260 1.366 . S
C1260 C1259 1.366 . S
C1260 C1261 1.414 . S
C1260 C1263 1.499 . S
C1261 H1235 0.950 . S
C1261 C1260 1.414 . S
C1261 C1262 1.374 . S
C1262 H1236 0.950 . S
C1262 C1258 1.385 . S
C1262 C1261 1.374 . S
C1263 C1260 1.499 . S
C1263 C1264 1.373 . S
C1263 C1265 1.389 . S
C1264 H1237 0.950 . S
C1264 C1250 1.377 . S
C1264 C1263 1.373 . S
C1265 C1249 1.377 . S
C1265 C1263 1.389 . S
C1265 C1266 1.524 . S
C1266 C1265 1.524 . S
C1266 C1267 1.397 . S
C1266 C1271 1.363 . S
C1267 H1238 0.950 . S
C1267 C1266 1.397 . S
C1267 C1268 1.334 . S
C1268 H1239 0.950 . S
C1268 C1267 1.334 . S
C1268 C1269 1.287 . S
C1269 C1268 1.287 . S
C1269 C1270 1.524 . S
C1269 H1272 0.999 . S
C1270 H1240 0.950 . S
C1270 C1269 1.524 . S
C1270 C1271 1.415 . S
C1271 H1241 0.950 . S
C1271 C1266 1.363 . S
C1271 C1270 1.415 . S
H1272 C1269 0.999 . S
H1273 C1254 0.913 . S
H1274 C1292 0.951 . S
H1275 C1294 0.951 . S
H1276 C1296 0.950 . S
H1277 C1297 0.950 . S
H1278 C1299 0.950 . S
H1279 C1302 0.950 . S
H1280 C1303 0.950 . S
H1281 C1305 0.950 . S
H1282 C1306 0.950 . S
H1283 C1307 0.951 . S
H1284 C1309 0.951 . S
H1285 C1311 0.950 . S
H1286 C1312 0.950 . S
H1287 C1314 0.950 . S
H1288 C1317 0.950 . S
H1289 C1318 0.950 . S
H1290 C1320 0.950 . S
H1291 C1321 0.950 . S
C1292 H1274 0.951 . S
C1292 C1293 1.366 . S
C1292 C1294 1.388 . S
C1293 C1292 1.366 . S
C1293 C1297 1.385 . S
C1294 H1275 0.951 . S
C1294 C1292 1.388 . S
C1294 C1295 1.366 . S
C1295 C1294 1.366 . S
C1295 C1296 1.414 . S
C1295 C1298 1.499 . S
C1296 H1276 0.950 . S
C1296 C1295 1.414 . S
C1296 C1297 1.374 . S
C1297 H1277 0.950 . S
C1297 C1293 1.385 . S
C1297 C1296 1.374 . S
C1298 C1295 1.499 . S
C1298 C1299 1.373 . S
C1298 C1300 1.389 . S
C1299 H1278 0.950 . S
C1299 C1298 1.373 . S
C1299 C1315 1.377 . S
C1300 C1298 1.389 . S
C1300 C1301 1.524 . S
C1300 C1314 1.377 . S
C1301 C1300 1.524 . S
C1301 C1302 1.397 . S
C1301 C1306 1.363 . S
C1302 H1279 0.950 . S
C1302 C1301 1.397 . S
C1302 C1303 1.334 . S
C1303 H1280 0.950 . S
C1303 C1302 1.334 . S
C1303 C1304 1.287 . S
C1304 C1303 1.287 . S
C1304 C1305 1.524 . S
C1304 H1323 0.913 . S
C1305 H1281 0.950 . S
C1305 C1304 1.524 . S
C1305 C1306 1.415 . S
C1306 H1282 0.950 . S
C1306 C1301 1.363 . S
C1306 C1305 1.415 . S
C1307 H1283 0.951 . S
C1307 C1308 1.366 . S
C1307 C1309 1.388 . S
C1308 C1307 1.366 . S
C1308 C1312 1.385 . S
C1309 H1284 0.951 . S
C1309 C1307 1.388 . S
C1309 C1310 1.366 . S
C1310 C1309 1.366 . S
C1310 C1311 1.414 . S
C1310 C1313 1.499 . S
C1311 H1285 0.950 . S
C1311 C1310 1.414 . S
C1311 C1312 1.374 . S
C1312 H1286 0.950 . S
C1312 C1308 1.385 . S
C1312 C1311 1.374 . S
C1313 C1310 1.499 . S
C1313 C1314 1.373 . S
C1313 C1315 1.389 . S
C1314 H1287 0.950 . S
C1314 C1300 1.377 . S
C1314 C1313 1.373 . S
C1315 C1299 1.377 . S
C1315 C1313 1.389 . S
C1315 C1316 1.524 . S
C1316 C1315 1.524 . S
C1316 C1317 1.397 . S
C1316 C1321 1.363 . S
C1317 H1288 0.950 . S
C1317 C1316 1.397 . S
C1317 C1318 1.334 . S
C1318 H1289 0.950 . S
C1318 C1317 1.334 . S
C1318 C1319 1.287 . S
C1319 C1318 1.287 . S
C1319 C1320 1.524 . S
C1319 H1322 0.999 1_655 S
C1320 H1290 0.950 . S
C1320 C1319 1.524 . S
C1320 C1321 1.415 . S
C1321 H1291 0.950 . S
C1321 C1316 1.363 . S
C1321 C1320 1.415 . S
H1322 C1319 0.999 1_455 S
H1323 C1304 0.913 . S
H1324 C1342 0.951 . S
H1325 C1344 0.951 . S
H1326 C1346 0.950 . S
H1327 C1347 0.950 . S
H1328 C1349 0.950 . S
H1329 C1352 0.950 . S
H1330 C1353 0.950 . S
H1331 C1355 0.950 . S
H1332 C1356 0.950 . S
H1333 C1357 0.951 . S
H1334 C1359 0.951 . S
H1335 C1361 0.950 . S
H1336 C1362 0.950 . S
H1337 C1364 0.950 . S
H1338 C1367 0.950 . S
H1339 C1368 0.950 . S
H1340 C1370 0.950 . S
H1341 C1371 0.950 . S
C1342 H1324 0.951 . S
C1342 C1343 1.366 . S
C1342 C1344 1.388 . S
C1343 C1342 1.366 . S
C1343 C1347 1.385 . S
C1344 H1325 0.951 . S
C1344 C1342 1.388 . S
C1344 C1345 1.366 . S
C1345 C1344 1.366 . S
C1345 C1346 1.414 . S
C1345 C1348 1.499 . S
C1346 H1326 0.950 . S
C1346 C1345 1.414 . S
C1346 C1347 1.374 . S
C1347 H1327 0.950 . S
C1347 C1343 1.385 . S
C1347 C1346 1.374 . S
C1348 C1345 1.499 . S
C1348 C1349 1.373 . S
C1348 C1350 1.389 . S
C1349 H1328 0.950 . S
C1349 C1348 1.373 . S
C1349 C1365 1.377 . S
C1350 C1348 1.389 . S
C1350 C1351 1.524 . S
C1350 C1364 1.377 . S
C1351 C1350 1.524 . S
C1351 C1352 1.397 . S
C1351 C1356 1.363 . S
C1352 H1329 0.950 . S
C1352 C1351 1.397 . S
C1352 C1353 1.334 . S
C1353 H1330 0.950 . S
C1353 C1352 1.334 . S
C1353 C1354 1.287 . S
C1354 C1353 1.287 . S
C1354 C1355 1.524 . S
C1354 H1373 0.913 . S
C1355 H1331 0.950 . S
C1355 C1354 1.524 . S
C1355 C1356 1.415 . S
C1356 H1332 0.950 . S
C1356 C1351 1.363 . S
C1356 C1355 1.415 . S
C1357 H1333 0.951 . S
C1357 C1358 1.366 . S
C1357 C1359 1.388 . S
C1358 C1357 1.366 . S
C1358 C1362 1.385 . S
C1359 H1334 0.951 . S
C1359 C1357 1.388 . S
C1359 C1360 1.366 . S
C1360 C1359 1.366 . S
C1360 C1361 1.414 . S
C1360 C1363 1.499 . S
C1361 H1335 0.950 . S
C1361 C1360 1.414 . S
C1361 C1362 1.374 . S
C1362 H1336 0.950 . S
C1362 C1358 1.385 . S
C1362 C1361 1.374 . S
C1363 C1360 1.499 . S
C1363 C1364 1.373 . S
C1363 C1365 1.389 . S
C1364 H1337 0.950 . S
C1364 C1350 1.377 . S
C1364 C1363 1.373 . S
C1365 C1349 1.377 . S
C1365 C1363 1.389 . S
C1365 C1366 1.524 . S
C1366 C1365 1.524 . S
C1366 C1367 1.397 . S
C1366 C1371 1.363 . S
C1367 H1338 0.950 . S
C1367 C1366 1.397 . S
C1367 C1368 1.334 . S
C1368 H1339 0.950 . S
C1368 C1367 1.334 . S
C1368 C1369 1.287 . S
C1369 C1368 1.287 . S
C1369 C1370 1.524 . S
C1369 H1372 0.999 . S
C1370 H1340 0.950 . S
C1370 C1369 1.524 . S
C1370 C1371 1.415 . S
C1371 H1341 0.950 . S
C1371 C1366 1.363 . S
C1371 C1370 1.415 . S
H1372 C1369 0.999 . S
H1373 C1354 0.913 . S
H1374 C1392 0.951 . S
H1375 C1394 0.951 . S
H1376 C1396 0.950 . S
H1377 C1397 0.950 . S
H1378 C1399 0.950 . S
H1379 C1402 0.950 . S
H1380 C1403 0.950 . S
H1381 C1405 0.950 . S
H1382 C1406 0.950 . S
H1383 C1407 0.951 . S
H1384 C1409 0.951 . S
H1385 C1411 0.950 . S
H1386 C1412 0.950 . S
H1387 C1414 0.950 . S
H1388 C1417 0.950 . S
H1389 C1418 0.942 1_556 S
H1390 C1420 0.950 . S
H1391 C1421 0.950 . S
C1392 H1374 0.951 . S
C1392 C1393 1.366 . S
C1392 C1394 1.388 . S
C1393 C1392 1.366 . S
C1393 C1397 1.385 . S
C1394 H1375 0.951 . S
C1394 C1392 1.388 . S
C1394 C1395 1.366 . S
C1395 C1394 1.366 . S
C1395 C1396 1.414 . S
C1395 C1398 1.499 . S
C1396 H1376 0.950 . S
C1396 C1395 1.414 . S
C1396 C1397 1.374 . S
C1397 H1377 0.950 . S
C1397 C1393 1.385 . S
C1397 C1396 1.374 . S
C1398 C1395 1.499 . S
C1398 C1399 1.373 . S
C1398 C1400 1.389 . S
C1399 H1378 0.950 . S
C1399 C1398 1.373 . S
C1399 C1415 1.377 . S
C1400 C1398 1.389 . S
C1400 C1401 1.524 . S
C1400 C1414 1.377 . S
C1401 C1400 1.524 . S
C1401 C1402 1.397 . S
C1401 C1406 1.363 . S
C1402 H1379 0.950 . S
C1402 C1401 1.397 . S
C1402 C1403 1.334 . S
C1403 H1380 0.950 . S
C1403 C1402 1.334 . S
C1403 C1404 1.287 . S
C1404 C1403 1.287 . S
C1404 C1405 1.524 . S
C1404 H1423 0.913 . S
C1405 H1381 0.950 . S
C1405 C1404 1.524 . S
C1405 C1406 1.415 . S
C1406 H1382 0.950 . S
C1406 C1401 1.363 . S
C1406 C1405 1.415 . S
C1407 H1383 0.951 . S
C1407 C1408 1.366 . S
C1407 C1409 1.388 . S
C1408 C1407 1.366 . S
C1408 C1412 1.385 . S
C1409 H1384 0.951 . S
C1409 C1407 1.388 . S
C1409 C1410 1.366 . S
C1410 C1409 1.366 . S
C1410 C1411 1.414 . S
C1410 C1413 1.499 . S
C1411 H1385 0.950 . S
C1411 C1410 1.414 . S
C1411 C1412 1.374 . S
C1412 H1386 0.950 . S
C1412 C1408 1.385 . S
C1412 C1411 1.374 . S
C1413 C1410 1.499 . S
C1413 C1414 1.373 . S
C1413 C1415 1.389 . S
C1414 H1387 0.950 . S
C1414 C1400 1.377 . S
C1414 C1413 1.373 . S
C1415 C1399 1.377 . S
C1415 C1413 1.389 . S
C1415 C1416 1.524 . S
C1416 C1415 1.524 . S
C1416 C1417 1.397 . S
C1416 C1421 1.363 . S
C1417 H1388 0.950 . S
C1417 C1416 1.397 . S
C1417 C1418 1.362 . S
C1418 H1389 0.942 1_554 S
C1418 C1417 1.362 . S
C1418 C1419 1.268 1_554 S
C1419 C1418 1.268 1_556 S
C1419 C1420 1.524 . S
C1419 H1422 0.999 . S
C1420 H1390 0.950 . S
C1420 C1419 1.524 . S
C1420 C1421 1.415 1_556 S
C1421 H1391 0.950 . S
C1421 C1416 1.363 . S
C1421 C1420 1.415 1_554 S
H1422 C1419 0.999 . S
H1423 C1404 0.913 . S
H1424 C1442 0.951 . S
H1425 C1444 0.951 . S
H1426 C1446 0.950 . S
H1427 C1447 0.950 . S
H1428 C1449 0.950 . S
H1429 C1452 0.950 . S
H1430 C1453 0.950 . S
H1431 C1455 0.950 . S
H1432 C1456 0.950 . S
H1433 C1457 0.951 . S
H1434 C1459 0.951 . S
H1435 C1461 0.950 . S
H1436 C1462 0.950 . S
H1437 C1464 0.950 . S
H1438 C1467 0.950 . S
H1439 C1468 0.950 . S
H1440 C1470 0.950 . S
H1441 C1471 0.950 . S
C1442 H1424 0.951 . S
C1442 C1443 1.366 . S
C1442 C1444 1.388 . S
C1443 C1442 1.366 . S
C1443 C1447 1.385 . S
C1444 H1425 0.951 . S
C1444 C1442 1.388 . S
C1444 C1445 1.366 . S
C1445 C1444 1.366 . S
C1445 C1446 1.414 . S
C1445 C1448 1.499 . S
C1446 H1426 0.950 . S
C1446 C1445 1.414 . S
C1446 C1447 1.374 . S
C1447 H1427 0.950 . S
C1447 C1443 1.385 . S
C1447 C1446 1.374 . S
C1448 C1445 1.499 . S
C1448 C1449 1.373 . S
C1448 C1450 1.389 . S
C1449 H1428 0.950 . S
C1449 C1448 1.373 . S
C1449 C1465 1.377 . S
C1450 C1448 1.389 . S
C1450 C1451 1.524 . S
C1450 C1464 1.377 . S
C1451 C1450 1.524 . S
C1451 C1452 1.397 . S
C1451 C1456 1.363 . S
C1452 H1429 0.950 . S
C1452 C1451 1.397 . S
C1452 C1453 1.334 . S
C1453 H1430 0.950 . S
C1453 C1452 1.334 . S
C1453 C1454 1.287 . S
C1454 C1453 1.287 . S
C1454 C1455 1.524 . S
C1454 H1473 0.913 . S
C1455 H1431 0.950 . S
C1455 C1454 1.524 . S
C1455 C1456 1.415 . S
C1456 H1432 0.950 . S
C1456 C1451 1.363 . S
C1456 C1455 1.415 . S
C1457 H1433 0.951 . S
C1457 C1458 1.366 . S
C1457 C1459 1.388 . S
C1458 C1457 1.366 . S
C1458 C1462 1.385 . S
C1459 H1434 0.951 . S
C1459 C1457 1.388 . S
C1459 C1460 1.366 . S
C1460 C1459 1.366 . S
C1460 C1461 1.414 . S
C1460 C1463 1.499 . S
C1461 H1435 0.950 . S
C1461 C1460 1.414 . S
C1461 C1462 1.374 . S
C1462 H1436 0.950 . S
C1462 C1458 1.385 . S
C1462 C1461 1.374 . S
C1463 C1460 1.499 . S
C1463 C1464 1.373 . S
C1463 C1465 1.389 . S
C1464 H1437 0.950 . S
C1464 C1450 1.377 . S
C1464 C1463 1.373 . S
C1465 C1449 1.377 . S
C1465 C1463 1.389 . S
C1465 C1466 1.524 . S
C1466 C1465 1.524 . S
C1466 C1467 1.397 . S
C1466 C1471 1.363 . S
C1467 H1438 0.950 . S
C1467 C1466 1.397 . S
C1467 C1468 1.334 . S
C1468 H1439 0.950 . S
C1468 C1467 1.334 . S
C1468 C1469 1.287 . S
C1469 C1468 1.287 . S
C1469 C1470 1.524 . S
C1469 H1472 0.999 . S
C1470 H1440 0.950 . S
C1470 C1469 1.524 . S
C1470 C1471 1.415 . S
C1471 H1441 0.950 . S
C1471 C1466 1.363 . S
C1471 C1470 1.415 . S
H1472 C1469 0.999 . S
H1473 C1454 0.913 . S
H1474 C1492 0.951 1_554 S
H1475 C1494 0.951 . S
H1476 C1496 0.950 . S
H1477 C1497 0.950 . S
H1478 C1499 0.950 . S
H1479 C1502 0.950 . S
H1480 C1503 0.950 . S
H1481 C1505 0.950 1_554 S
H1482 C1506 0.950 . S
H1483 C1507 0.951 . S
H1484 C1509 0.951 . S
H1485 C1511 0.950 . S
H1486 C1512 0.950 . S
H1487 C1514 0.950 . S
H1488 C1517 0.950 . S
H1489 C1518 0.950 . S
H1490 C1520 0.950 . S
H1491 C1521 0.950 . S
C1492 H1474 0.951 1_556 S
C1492 C1493 1.366 . S
C1492 C1494 1.388 . S
C1493 C1492 1.366 . S
C1493 C1497 1.385 . S
C1494 H1475 0.951 . S
C1494 C1492 1.388 . S
C1494 C1495 1.366 . S
C1495 C1494 1.366 . S
C1495 C1496 1.414 . S
C1495 C1498 1.499 . S
C1496 H1476 0.950 . S
C1496 C1495 1.414 . S
C1496 C1497 1.374 . S
C1497 H1477 0.950 . S
C1497 C1493 1.385 . S
C1497 C1496 1.374 . S
C1498 C1495 1.499 . S
C1498 C1499 1.373 . S
C1498 C1500 1.389 . S
C1499 H1478 0.950 . S
C1499 C1498 1.373 . S
C1499 C1515 1.377 . S
C1500 C1498 1.389 . S
C1500 C1501 1.524 . S
C1500 C1514 1.377 . S
C1501 C1500 1.524 . S
C1501 C1502 1.397 . S
C1501 C1506 1.363 . S
C1502 H1479 0.950 . S
C1502 C1501 1.397 . S
C1502 C1503 1.334 . S
C1503 H1480 0.950 . S
C1503 C1502 1.334 . S
C1503 C1504 1.287 . S
C1504 C1503 1.287 . S
C1504 C1505 1.524 . S
C1504 H1523 0.913 . S
C1505 H1481 0.950 1_556 S
C1505 C1504 1.524 . S
C1505 C1506 1.415 . S
C1506 H1482 0.950 . S
C1506 C1501 1.363 . S
C1506 C1505 1.415 . S
C1507 H1483 0.951 . S
C1507 C1508 1.366 . S
C1507 C1509 1.388 . S
C1508 C1507 1.366 . S
C1508 C1512 1.385 . S
C1509 H1484 0.951 . S
C1509 C1507 1.388 . S
C1509 C1510 1.366 . S
C1510 C1509 1.366 . S
C1510 C1511 1.414 . S
C1510 C1513 1.499 . S
C1511 H1485 0.950 . S
C1511 C1510 1.414 . S
C1511 C1512 1.374 . S
C1512 H1486 0.950 . S
C1512 C1508 1.385 . S
C1512 C1511 1.374 . S
C1513 C1510 1.499 . S
C1513 C1514 1.373 . S
C1513 C1515 1.389 . S
C1514 H1487 0.950 . S
C1514 C1500 1.377 . S
C1514 C1513 1.373 . S
C1515 C1499 1.377 . S
C1515 C1513 1.389 . S
C1515 C1516 1.524 . S
C1516 C1515 1.524 . S
C1516 C1517 1.397 . S
C1516 C1521 1.363 . S
C1517 H1488 0.950 . S
C1517 C1516 1.397 . S
C1517 C1518 1.334 . S
C1518 H1489 0.950 . S
C1518 C1517 1.334 . S
C1518 C1519 1.287 . S
C1519 C1518 1.287 . S
C1519 C1520 1.524 . S
C1519 H1522 0.999 . S
C1520 H1490 0.950 . S
C1520 C1519 1.524 . S
C1520 C1521 1.415 . S
C1521 H1491 0.950 . S
C1521 C1516 1.363 . S
C1521 C1520 1.415 . S
H1522 C1519 0.999 . S
H1523 C1504 0.913 . S
H1524 C1542 0.951 . S
H1525 C1544 0.951 . S
H1526 C1546 0.950 . S
H1527 C1547 0.950 . S
H1528 C1549 0.950 . S
H1529 C1552 0.950 . S
H1530 C1553 0.950 . S
H1531 C1555 0.950 . S
H1532 C1556 0.950 . S
H1533 C1557 0.951 . S
H1534 C1559 0.951 . S
H1535 C1561 0.950 . S
H1536 C1562 0.950 . S
H1537 C1564 0.950 . S
H1538 C1567 0.950 . S
H1539 C1568 0.950 . S
H1540 C1570 0.950 . S
H1541 C1571 0.950 . S
C1542 H1524 0.951 . S
C1542 C1543 1.366 . S
C1542 C1544 1.388 . S
C1543 C1542 1.366 . S
C1543 C1547 1.385 . S
C1544 H1525 0.951 . S
C1544 C1542 1.388 . S
C1544 C1545 1.366 . S
C1545 C1544 1.366 . S
C1545 C1546 1.414 . S
C1545 C1548 1.499 . S
C1546 H1526 0.950 . S
C1546 C1545 1.414 . S
C1546 C1547 1.374 . S
C1547 H1527 0.950 . S
C1547 C1543 1.385 . S
C1547 C1546 1.374 . S
C1548 C1545 1.499 . S
C1548 C1549 1.373 . S
C1548 C1550 1.389 . S
C1549 H1528 0.950 . S
C1549 C1548 1.373 . S
C1549 C1565 1.377 . S
C1550 C1548 1.389 . S
C1550 C1551 1.524 . S
C1550 C1564 1.377 . S
C1551 C1550 1.524 . S
C1551 C1552 1.397 . S
C1551 C1556 1.363 . S
C1552 H1529 0.950 . S
C1552 C1551 1.397 . S
C1552 C1553 1.334 . S
C1553 H1530 0.950 . S
C1553 C1552 1.334 . S
C1553 C1554 1.287 . S
C1554 C1553 1.287 . S
C1554 C1555 1.524 . S
C1554 H1573 0.913 . S
C1555 H1531 0.950 . S
C1555 C1554 1.524 . S
C1555 C1556 1.415 . S
C1556 H1532 0.950 . S
C1556 C1551 1.363 . S
C1556 C1555 1.415 . S
C1557 H1533 0.951 . S
C1557 C1558 1.366 . S
C1557 C1559 1.388 . S
C1558 C1557 1.366 . S
C1558 C1562 1.385 . S
C1559 H1534 0.951 . S
C1559 C1557 1.388 . S
C1559 C1560 1.366 . S
C1560 C1559 1.366 . S
C1560 C1561 1.414 . S
C1560 C1563 1.499 . S
C1561 H1535 0.950 . S
C1561 C1560 1.414 . S
C1561 C1562 1.374 . S
C1562 H1536 0.950 . S
C1562 C1558 1.385 . S
C1562 C1561 1.374 . S
C1563 C1560 1.499 . S
C1563 C1564 1.373 . S
C1563 C1565 1.389 . S
C1564 H1537 0.950 . S
C1564 C1550 1.377 . S
C1564 C1563 1.373 . S
C1565 C1549 1.377 . S
C1565 C1563 1.389 . S
C1565 C1566 1.524 . S
C1566 C1565 1.524 . S
C1566 C1567 1.397 . S
C1566 C1571 1.363 . S
C1567 H1538 0.950 . S
C1567 C1566 1.397 . S
C1567 C1568 1.334 . S
C1568 H1539 0.950 . S
C1568 C1567 1.334 . S
C1568 C1569 1.287 . S
C1569 C1568 1.287 . S
C1569 C1570 1.524 . S
C1569 H1572 0.999 . S
C1570 H1540 0.950 . S
C1570 C1569 1.524 . S
C1570 C1571 1.415 . S
C1571 H1541 0.950 . S
C1571 C1566 1.363 . S
C1571 C1570 1.415 . S
H1572 C1569 0.999 . S
H1573 C1554 0.913 . S
H1574 C1592 0.951 . S
H1575 C1594 0.951 . S
H1576 C1596 0.950 . S
H1577 C1597 0.950 . S
H1578 C1599 0.950 . S
H1579 C1602 0.950 . S
H1580 C1603 0.950 . S
H1581 C1605 0.950 . S
H1582 C1606 0.950 . S
H1583 C1607 0.951 . S
H1584 C1609 0.951 . S
H1585 C1611 0.950 . S
H1586 C1612 0.950 . S
H1587 C1614 0.950 . S
H1588 C1617 0.950 . S
H1589 C1618 0.950 . S
H1590 C1620 0.950 . S
H1591 C1621 0.950 . S
C1592 H1574 0.951 . S
C1592 C1593 1.366 . S
C1592 C1594 1.388 . S
C1593 C1592 1.366 . S
C1593 C1597 1.385 . S
C1594 H1575 0.951 . S
C1594 C1592 1.388 . S
C1594 C1595 1.366 . S
C1595 C1594 1.366 . S
C1595 C1596 1.414 . S
C1595 C1598 1.499 . S
C1596 H1576 0.950 . S
C1596 C1595 1.414 . S
C1596 C1597 1.374 . S
C1597 H1577 0.950 . S
C1597 C1593 1.385 . S
C1597 C1596 1.374 . S
C1598 C1595 1.499 . S
C1598 C1599 1.373 . S
C1598 C1600 1.389 . S
C1599 H1578 0.950 . S
C1599 C1598 1.373 . S
C1599 C1615 1.377 . S
C1600 C1598 1.389 . S
C1600 C1601 1.524 . S
C1600 C1614 1.377 . S
C1601 C1600 1.524 . S
C1601 C1602 1.397 . S
C1601 C1606 1.363 . S
C1602 H1579 0.950 . S
C1602 C1601 1.397 . S
C1602 C1603 1.334 . S
C1603 H1580 0.950 . S
C1603 C1602 1.334 . S
C1603 C1604 1.287 . S
C1604 C1603 1.287 . S
C1604 C1605 1.524 . S
C1604 H1623 0.913 1_655 S
C1605 H1581 0.950 . S
C1605 C1604 1.524 . S
C1605 C1606 1.415 . S
C1606 H1582 0.950 . S
C1606 C1601 1.363 . S
C1606 C1605 1.415 . S
C1607 H1583 0.951 . S
C1607 C1608 1.366 . S
C1607 C1609 1.388 . S
C1608 C1607 1.366 . S
C1608 C1612 1.385 . S
C1609 H1584 0.951 . S
C1609 C1607 1.388 . S
C1609 C1610 1.366 . S
C1610 C1609 1.366 . S
C1610 C1611 1.414 . S
C1610 C1613 1.499 . S
C1611 H1585 0.950 . S
C1611 C1610 1.414 . S
C1611 C1612 1.374 . S
C1612 H1586 0.950 . S
C1612 C1608 1.385 . S
C1612 C1611 1.374 . S
C1613 C1610 1.499 . S
C1613 C1614 1.373 . S
C1613 C1615 1.389 . S
C1614 H1587 0.950 . S
C1614 C1600 1.377 . S
C1614 C1613 1.373 . S
C1615 C1599 1.377 . S
C1615 C1613 1.389 . S
C1615 C1616 1.524 . S
C1616 C1615 1.524 . S
C1616 C1617 1.397 . S
C1616 C1621 1.363 . S
C1617 H1588 0.950 . S
C1617 C1616 1.397 . S
C1617 C1618 1.334 . S
C1618 H1589 0.950 . S
C1618 C1617 1.334 . S
C1618 C1619 1.287 . S
C1619 C1618 1.287 . S
C1619 C1620 1.524 . S
C1619 H1622 0.999 . S
C1620 H1590 0.950 . S
C1620 C1619 1.524 . S
C1620 C1621 1.415 . S
C1621 H1591 0.950 . S
C1621 C1616 1.363 . S
C1621 C1620 1.415 . S
H1622 C1619 0.999 . S
H1623 C1604 0.913 1_455 S
H1624 C1642 0.951 . S
H1625 C1644 0.951 . S
H1626 C1646 0.950 . S
H1627 C1647 0.950 . S
H1628 C1649 0.950 . S
H1629 C1652 0.950 . S
H1630 C1653 0.950 . S
H1631 C1655 0.950 . S
H1632 C1656 0.950 . S
H1633 C1657 0.951 . S
H1634 C1659 0.951 . S
H1635 C1661 0.950 . S
H1636 C1662 0.950 . S
H1637 C1664 0.950 . S
H1638 C1667 0.950 . S
H1639 C1668 0.950 . S
H1640 C1670 0.950 . S
H1641 C1671 0.950 . S
C1642 H1624 0.951 . S
C1642 C1643 1.366 . S
C1642 C1644 1.388 . S
C1643 C1642 1.366 . S
C1643 C1647 1.385 . S
C1644 H1625 0.951 . S
C1644 C1642 1.388 . S
C1644 C1645 1.366 . S
C1645 C1644 1.366 . S
C1645 C1646 1.414 . S
C1645 C1648 1.499 . S
C1646 H1626 0.950 . S
C1646 C1645 1.414 . S
C1646 C1647 1.374 . S
C1647 H1627 0.950 . S
C1647 C1643 1.385 . S
C1647 C1646 1.374 . S
C1648 C1645 1.499 . S
C1648 C1649 1.373 . S
C1648 C1650 1.389 . S
C1649 H1628 0.950 . S
C1649 C1648 1.373 . S
C1649 C1665 1.377 . S
C1650 C1648 1.389 . S
C1650 C1651 1.524 . S
C1650 C1664 1.377 . S
C1651 C1650 1.524 . S
C1651 C1652 1.397 . S
C1651 C1656 1.363 . S
C1652 H1629 0.950 . S
C1652 C1651 1.397 . S
C1652 C1653 1.334 . S
C1653 H1630 0.950 . S
C1653 C1652 1.334 . S
C1653 C1654 1.287 . S
C1654 C1653 1.287 . S
C1654 C1655 1.524 . S
C1654 H1673 0.913 . S
C1655 H1631 0.950 . S
C1655 C1654 1.524 . S
C1655 C1656 1.415 . S
C1656 H1632 0.950 . S
C1656 C1651 1.363 . S
C1656 C1655 1.415 . S
C1657 H1633 0.951 . S
C1657 C1658 1.366 . S
C1657 C1659 1.388 . S
C1658 C1657 1.366 . S
C1658 C1662 1.385 . S
C1659 H1634 0.951 . S
C1659 C1657 1.388 . S
C1659 C1660 1.366 . S
C1660 C1659 1.366 . S
C1660 C1661 1.414 . S
C1660 C1663 1.499 . S
C1661 H1635 0.950 . S
C1661 C1660 1.414 . S
C1661 C1662 1.374 . S
C1662 H1636 0.950 . S
C1662 C1658 1.385 . S
C1662 C1661 1.374 . S
C1663 C1660 1.499 . S
C1663 C1664 1.373 . S
C1663 C1665 1.389 . S
C1664 H1637 0.950 . S
C1664 C1650 1.377 . S
C1664 C1663 1.373 . S
C1665 C1649 1.377 . S
C1665 C1663 1.389 . S
C1665 C1666 1.524 . S
C1666 C1665 1.524 . S
C1666 C1667 1.397 . S
C1666 C1671 1.363 . S
C1667 H1638 0.950 . S
C1667 C1666 1.397 . S
C1667 C1668 1.334 . S
C1668 H1639 0.950 . S
C1668 C1667 1.334 . S
C1668 C1669 1.287 . S
C1669 C1668 1.287 . S
C1669 C1670 1.524 . S
C1669 H1672 0.999 . S
C1670 H1640 0.950 . S
C1670 C1669 1.524 . S
C1670 C1671 1.415 . S
C1671 H1641 0.950 . S
C1671 C1666 1.363 . S
C1671 C1670 1.415 . S
H1672 C1669 0.999 . S
H1673 C1654 0.913 . S
H1674 C1692 0.951 . S
H1675 C1694 0.951 . S
H1676 C1696 0.950 . S
H1677 C1697 0.950 . S
H1678 C1699 0.950 . S
H1679 C1702 0.950 . S
H1680 C1703 0.950 . S
H1681 C1705 0.950 . S
H1682 C1706 0.950 . S
H1683 C1707 0.951 . S
H1684 C1709 0.951 . S
H1685 C1711 0.950 . S
H1686 C1712 0.950 . S
H1687 C1714 0.950 . S
H1688 C1717 0.950 . S
H1689 C1718 0.950 . S
H1690 C1720 0.950 . S
H1691 C1721 0.950 . S
C1692 H1674 0.951 . S
C1692 C1693 1.366 . S
C1692 C1694 1.388 . S
C1693 C1692 1.366 . S
C1693 C1697 1.385 . S
C1694 H1675 0.951 . S
C1694 C1692 1.388 . S
C1694 C1695 1.366 . S
C1695 C1694 1.366 . S
C1695 C1696 1.414 . S
C1695 C1698 1.499 . S
C1696 H1676 0.950 . S
C1696 C1695 1.414 . S
C1696 C1697 1.374 . S
C1697 H1677 0.950 . S
C1697 C1693 1.385 . S
C1697 C1696 1.374 . S
C1698 C1695 1.499 . S
C1698 C1699 1.373 . S
C1698 C1700 1.389 . S
C1699 H1678 0.950 . S
C1699 C1698 1.373 . S
C1699 C1715 1.377 . S
C1700 C1698 1.389 . S
C1700 C1701 1.524 . S
C1700 C1714 1.377 . S
C1701 C1700 1.524 . S
C1701 C1702 1.397 . S
C1701 C1706 1.363 . S
C1702 H1679 0.950 . S
C1702 C1701 1.397 . S
C1702 C1703 1.334 . S
C1703 H1680 0.950 . S
C1703 C1702 1.334 . S
C1703 C1704 1.287 . S
C1704 C1703 1.287 . S
C1704 C1705 1.524 . S
C1704 H1723 0.913 . S
C1705 H1681 0.950 . S
C1705 C1704 1.524 . S
C1705 C1706 1.415 . S
C1706 H1682 0.950 . S
C1706 C1701 1.363 . S
C1706 C1705 1.415 . S
C1707 H1683 0.951 . S
C1707 C1708 1.366 . S
C1707 C1709 1.388 . S
C1708 C1707 1.366 . S
C1708 C1712 1.385 . S
C1709 H1684 0.951 . S
C1709 C1707 1.388 . S
C1709 C1710 1.366 . S
C1710 C1709 1.366 . S
C1710 C1711 1.414 . S
C1710 C1713 1.499 . S
C1711 H1685 0.950 . S
C1711 C1710 1.414 . S
C1711 C1712 1.374 . S
C1712 H1686 0.950 . S
C1712 C1708 1.385 . S
C1712 C1711 1.374 . S
C1713 C1710 1.499 . S
C1713 C1714 1.373 . S
C1713 C1715 1.389 . S
C1714 H1687 0.950 . S
C1714 C1700 1.377 . S
C1714 C1713 1.373 . S
C1715 C1699 1.377 . S
C1715 C1713 1.389 . S
C1715 C1716 1.524 . S
C1716 C1715 1.524 . S
C1716 C1717 1.397 . S
C1716 C1721 1.363 . S
C1717 H1688 0.950 . S
C1717 C1716 1.397 . S
C1717 C1718 1.334 . S
C1718 H1689 0.950 . S
C1718 C1717 1.334 . S
C1718 C1719 1.287 . S
C1719 C1718 1.287 . S
C1719 C1720 1.524 . S
C1719 H1722 0.999 . S
C1720 H1690 0.950 . S
C1720 C1719 1.524 . S
C1720 C1721 1.415 . S
C1721 H1691 0.950 . S
C1721 C1716 1.363 . S
C1721 C1720 1.415 . S
H1722 C1719 0.999 . S
H1723 C1704 0.913 . S
H1724 C1742 0.951 . S
H1725 C1744 0.951 . S
H1726 C1746 0.950 . S
H1727 C1747 0.950 . S
H1728 C1749 0.950 . S
H1729 C1752 0.950 . S
H1730 C1753 0.950 . S
H1731 C1755 0.950 . S
H1732 C1756 0.950 . S
H1733 C1757 0.951 . S
H1734 C1759 0.951 . S
H1735 C1761 0.950 . S
H1736 C1762 0.950 . S
H1737 C1764 0.950 . S
H1738 C1767 0.950 . S
H1739 C1768 0.950 . S
H1740 C1770 0.950 . S
H1741 C1771 0.950 . S
C1742 H1724 0.951 . S
C1742 C1743 1.366 . S
C1742 C1744 1.388 . S
C1743 C1742 1.366 . S
C1743 C1747 1.385 . S
C1744 H1725 0.951 . S
C1744 C1742 1.388 . S
C1744 C1745 1.366 . S
C1745 C1744 1.366 . S
C1745 C1746 1.414 . S
C1745 C1748 1.499 . S
C1746 H1726 0.950 . S
C1746 C1745 1.414 . S
C1746 C1747 1.374 . S
C1747 H1727 0.950 . S
C1747 C1743 1.385 . S
C1747 C1746 1.374 . S
C1748 C1745 1.499 . S
C1748 C1749 1.373 . S
C1748 C1750 1.389 . S
C1749 H1728 0.950 . S
C1749 C1748 1.373 . S
C1749 C1765 1.377 . S
C1750 C1748 1.389 . S
C1750 C1751 1.524 . S
C1750 C1764 1.377 . S
C1751 C1750 1.524 . S
C1751 C1752 1.397 . S
C1751 C1756 1.363 . S
C1752 H1729 0.950 . S
C1752 C1751 1.397 . S
C1752 C1753 1.334 . S
C1753 H1730 0.950 . S
C1753 C1752 1.334 . S
C1753 C1754 1.287 . S
C1754 C1753 1.287 . S
C1754 C1755 1.524 . S
C1754 H1773 0.913 . S
C1755 H1731 0.950 . S
C1755 C1754 1.524 . S
C1755 C1756 1.415 . S
C1756 H1732 0.950 . S
C1756 C1751 1.363 . S
C1756 C1755 1.415 . S
C1757 H1733 0.951 . S
C1757 C1758 1.366 . S
C1757 C1759 1.388 . S
C1758 C1757 1.366 . S
C1758 C1762 1.385 . S
C1759 H1734 0.951 . S
C1759 C1757 1.388 . S
C1759 C1760 1.366 . S
C1760 C1759 1.366 . S
C1760 C1761 1.414 . S
C1760 C1763 1.499 . S
C1761 H1735 0.950 . S
C1761 C1760 1.414 . S
C1761 C1762 1.374 . S
C1762 H1736 0.950 . S
C1762 C1758 1.385 . S
C1762 C1761 1.374 . S
C1763 C1760 1.499 . S
C1763 C1764 1.373 . S
C1763 C1765 1.389 . S
C1764 H1737 0.950 . S
C1764 C1750 1.377 . S
C1764 C1763 1.373 . S
C1765 C1749 1.377 . S
C1765 C1763 1.389 . S
C1765 C1766 1.524 . S
C1766 C1765 1.524 . S
C1766 C1767 1.397 . S
C1766 C1771 1.363 . S
C1767 H1738 0.950 . S
C1767 C1766 1.397 . S
C1767 C1768 1.334 1_556 S
C1768 H1739 0.950 . S
C1768 C1767 1.334 1_554 S
C1768 C1769 1.287 . S
C1769 C1768 1.287 . S
C1769 C1770 1.524 . S
C1769 H1772 0.999 . S
C1770 H1740 0.950 . S
C1770 C1769 1.524 . S
C1770 C1771 1.415 1_554 S
C1771 H1741 0.950 . S
C1771 C1766 1.363 . S
C1771 C1770 1.415 1_556 S
H1772 C1769 0.999 . S
H1773 C1754 0.913 . S
H1774 C1792 0.951 . S
H1775 C1794 0.951 . S
H1776 C1796 0.950 . S
H1777 C1797 0.950 . S
H1778 C1799 0.950 . S
H1779 C1802 0.950 . S
H1780 C1803 0.950 . S
H1781 C1805 0.950 . S
H1782 C1806 0.950 . S
H1783 C1807 0.951 . S
H1784 C1809 0.951 . S
H1785 C1811 0.950 . S
H1786 C1812 0.950 . S
H1787 C1814 0.950 . S
H1788 C1817 0.950 . S
H1789 C1818 0.950 . S
H1790 C1820 0.950 . S
H1791 C1821 0.950 . S
C1792 H1774 0.951 . S
C1792 C1793 1.366 . S
C1792 C1794 1.388 . S
C1793 C1792 1.366 . S
C1793 C1797 1.385 . S
C1794 H1775 0.951 . S
C1794 C1792 1.388 . S
C1794 C1795 1.366 . S
C1795 C1794 1.366 . S
C1795 C1796 1.414 . S
C1795 C1798 1.499 . S
C1796 H1776 0.950 . S
C1796 C1795 1.414 . S
C1796 C1797 1.374 . S
C1797 H1777 0.950 . S
C1797 C1793 1.385 . S
C1797 C1796 1.374 . S
C1798 C1795 1.499 . S
C1798 C1799 1.373 . S
C1798 C1800 1.389 . S
C1799 H1778 0.950 . S
C1799 C1798 1.373 . S
C1799 C1815 1.377 . S
C1800 C1798 1.389 . S
C1800 C1801 1.524 . S
C1800 C1814 1.377 . S
C1801 C1800 1.524 . S
C1801 C1802 1.397 . S
C1801 C1806 1.363 . S
C1802 H1779 0.950 . S
C1802 C1801 1.397 . S
C1802 C1803 1.334 . S
C1803 H1780 0.950 . S
C1803 C1802 1.334 . S
C1803 C1804 1.287 . S
C1804 C1803 1.287 . S
C1804 C1805 1.524 . S
C1804 H1823 0.913 . S
C1805 H1781 0.950 . S
C1805 C1804 1.524 . S
C1805 C1806 1.415 . S
C1806 H1782 0.950 . S
C1806 C1801 1.363 . S
C1806 C1805 1.415 . S
C1807 H1783 0.951 . S
C1807 C1808 1.366 . S
C1807 C1809 1.388 . S
C1808 C1807 1.366 . S
C1808 C1812 1.385 . S
C1809 H1784 0.951 . S
C1809 C1807 1.388 . S
C1809 C1810 1.366 . S
C1810 C1809 1.366 . S
C1810 C1811 1.414 . S
C1810 C1813 1.499 . S
C1811 H1785 0.950 . S
C1811 C1810 1.414 . S
C1811 C1812 1.374 . S
C1812 H1786 0.950 . S
C1812 C1808 1.385 . S
C1812 C1811 1.374 . S
C1813 C1810 1.499 . S
C1813 C1814 1.373 . S
C1813 C1815 1.389 . S
C1814 H1787 0.950 . S
C1814 C1800 1.377 . S
C1814 C1813 1.373 . S
C1815 C1799 1.377 . S
C1815 C1813 1.389 . S
C1815 C1816 1.524 . S
C1816 C1815 1.524 . S
C1816 C1817 1.397 . S
C1816 C1821 1.363 . S
C1817 H1788 0.950 . S
C1817 C1816 1.397 . S
C1817 C1818 1.334 . S
C1818 H1789 0.950 . S
C1818 C1817 1.334 . S
C1818 C1819 1.287 . S
C1819 C1818 1.287 . S
C1819 C1820 1.524 . S
C1819 H1822 0.999 . S
C1820 H1790 0.950 . S
C1820 C1819 1.524 . S
C1820 C1821 1.415 . S
C1821 H1791 0.950 . S
C1821 C1816 1.363 . S
C1821 C1820 1.415 . S
H1822 C1819 0.999 . S
H1823 C1804 0.913 . S
C243 C13 0.623 . S
C258 C68 0.619 . S
C293 C27 0.623 . S
C308 C71 0.623 . S
C343 C96 0.623 . S
C358 C28 0.627 . S
C393 C55 0.624 . S
C408 C110 0.623 . S
C443 C69 0.623 . S
C458 C12 0.626 . S
C493 C140 0.623 . S
C508 C124 0.623 . S
C543 C97 0.623 . S
C558 C29 0.619 . S
C593 C138 0.624 . S
C608 C166 0.624 . S
C643 C180 0.623 . S
C658 C208 0.626 . S
C693 C125 0.623 . S
C708 C141 0.624 . S
C743 C182 0.623 . S
C758 C222 0.620 . S
C793 C167 0.623 . S
C808 C139 0.623 . S
C843 C209 0.623 . S
C858 C181 0.620 . S
C893 C26 0.624 . S
C908 C70 0.623 . S
C943 C183 0.623 . S
C958 C223 0.627 . S
C993 C111 0.623 . S
C1008 C54 0.624 . S
C1043 C0 1.565 . S
C1058 C99 1.557 . S
C1093 C57 1.565 . S
C1108 C14 1.565 . S
C1143 C82 1.565 . S
C1158 C41 1.568 . S
C1193 C42 1.565 . S
C1208 C85 1.563 . S
C1243 C1 1.565 . S
C1258 C155 1.573 . S
C1293 C113 1.565 . S
C1308 C56 1.565 . S
C1343 C153 1.565 . S
C1358 C40 1.562 . S
C1393 C127 1.565 . S
C1408 C84 1.566 . S
C1443 C169 1.565 . S
C1458 C154 1.565 . S
C1493 C197 1.565 . S
C1508 C112 1.566 . S
C1543 C152 1.565 . S
C1558 C195 1.566 . S
C1593 C211 1.565 . S
C1608 C126 1.568 . S
C1643 C98 1.565 . S
C1658 C168 1.565 . S
C1693 C196 1.565 . S
C1708 C15 1.563 . S
C1743 C83 1.565 . S
C1758 C194 1.563 . S
C1793 C210 1.565 . S
C1808 C43 1.562 . S
