# Generated by pormake.
# Topology ukb, (4)-cn, num edge types: 1
# Building blocks:
#     Node 0, Type 0, BuildingBlock: KUFVIS_clean_sbu_0, # of connection points: 4
#     Node 1, Type 0, BuildingBlock: KUFVIS_clean_sbu_0, # of connection points: 4
#     Node 2, Type 0, BuildingBlock: KUFVIS_clean_sbu_0, # of connection points: 4
#     Node 3, Type 0, BuildingBlock: KUFVIS_clean_sbu_0, # of connection points: 4
#     Node 4, Type 0, BuildingBlock: KUFVIS_clean_sbu_0, # of connection points: 4
#     Node 5, Type 0, BuildingBlock: KUFVIS_clean_sbu_0, # of connection points: 4
#     Node 6, Type 0, BuildingBlock: KUFVIS_clean_sbu_0, # of connection points: 4
#     Node 7, Type 0, BuildingBlock: KUFVIS_clean_sbu_0, # of connection points: 4
#     Node 8, Type 0, BuildingBlock: KUFVIS_clean_sbu_0, # of connection points: 4
#     Node 9, Type 0, BuildingBlock: KUFVIS_clean_sbu_0, # of connection points: 4
#     Node 10, Type 0, BuildingBlock: KUFVIS_clean_sbu_0, # of connection points: 4
#     Node 11, Type 0, BuildingBlock: KUFVIS_clean_sbu_0, # of connection points: 4
#     Node 12, Type 0, BuildingBlock: KUFVIS_clean_sbu_0, # of connection points: 4
#     Node 13, Type 0, BuildingBlock: KUFVIS_clean_sbu_0, # of connection points: 4
#     Node 14, Type 0, BuildingBlock: KUFVIS_clean_sbu_0, # of connection points: 4
#     Node 15, Type 0, BuildingBlock: KUFVIS_clean_sbu_0, # of connection points: 4
#     Edge 16, Type (0, 0), BuildingBlock: TEMPAE_clean_linker_10, # of connection points: 2
#     Edge 17, Type (0, 0), BuildingBlock: TEMPAE_clean_linker_10, # of connection points: 2
#     Edge 18, Type (0, 0), BuildingBlock: TEMPAE_clean_linker_10, # of connection points: 2
#     Edge 19, Type (0, 0), BuildingBlock: TEMPAE_clean_linker_10, # of connection points: 2
#     Edge 20, Type (0, 0), BuildingBlock: TEMPAE_clean_linker_10, # of connection points: 2
#     Edge 21, Type (0, 0), BuildingBlock: TEMPAE_clean_linker_10, # of connection points: 2
#     Edge 22, Type (0, 0), BuildingBlock: TEMPAE_clean_linker_10, # of connection points: 2
#     Edge 23, Type (0, 0), BuildingBlock: TEMPAE_clean_linker_10, # of connection points: 2
#     Edge 24, Type (0, 0), BuildingBlock: TEMPAE_clean_linker_10, # of connection points: 2
#     Edge 25, Type (0, 0), BuildingBlock: TEMPAE_clean_linker_10, # of connection points: 2
#     Edge 26, Type (0, 0), BuildingBlock: TEMPAE_clean_linker_10, # of connection points: 2
#     Edge 27, Type (0, 0), BuildingBlock: TEMPAE_clean_linker_10, # of connection points: 2
#     Edge 28, Type (0, 0), BuildingBlock: TEMPAE_clean_linker_10, # of connection points: 2
#     Edge 29, Type (0, 0), BuildingBlock: TEMPAE_clean_linker_10, # of connection points: 2
#     Edge 30, Type (0, 0), BuildingBlock: TEMPAE_clean_linker_10, # of connection points: 2
#     Edge 31, Type (0, 0), BuildingBlock: TEMPAE_clean_linker_10, # of connection points: 2
#     Edge 32, Type (0, 0), BuildingBlock: TEMPAE_clean_linker_10, # of connection points: 2
#     Edge 33, Type (0, 0), BuildingBlock: TEMPAE_clean_linker_10, # of connection points: 2
#     Edge 34, Type (0, 0), BuildingBlock: TEMPAE_clean_linker_10, # of connection points: 2
#     Edge 35, Type (0, 0), BuildingBlock: TEMPAE_clean_linker_10, # of connection points: 2
#     Edge 36, Type (0, 0), BuildingBlock: TEMPAE_clean_linker_10, # of connection points: 2
#     Edge 37, Type (0, 0), BuildingBlock: TEMPAE_clean_linker_10, # of connection points: 2
#     Edge 38, Type (0, 0), BuildingBlock: TEMPAE_clean_linker_10, # of connection points: 2
#     Edge 39, Type (0, 0), BuildingBlock: TEMPAE_clean_linker_10, # of connection points: 2
#     Edge 40, Type (0, 0), BuildingBlock: TEMPAE_clean_linker_10, # of connection points: 2
#     Edge 41, Type (0, 0), BuildingBlock: TEMPAE_clean_linker_10, # of connection points: 2
#     Edge 42, Type (0, 0), BuildingBlock: TEMPAE_clean_linker_10, # of connection points: 2
#     Edge 43, Type (0, 0), BuildingBlock: TEMPAE_clean_linker_10, # of connection points: 2
#     Edge 44, Type (0, 0), BuildingBlock: TEMPAE_clean_linker_10, # of connection points: 2
#     Edge 45, Type (0, 0), BuildingBlock: TEMPAE_clean_linker_10, # of connection points: 2
#     Edge 46, Type (0, 0), BuildingBlock: TEMPAE_clean_linker_10, # of connection points: 2
#     Edge 47, Type (0, 0), BuildingBlock: TEMPAE_clean_linker_10, # of connection points: 2
# Relax obj value: 0.089
# Max RMSD: 0.069
# Mean RMSD: 0.069
data_MOF--net-ukb--node1-KUFVIS_clean_sbu_0--edge1-TEMPAE_clean_linker_10
_symmetry_space_group_name_H-M    P1
_symmetry_Int_Tables_number       1
_symmetry_cell_setting            triclinic
loop_
_symmetry_equiv_pos_as_xyz
'x, y, z'
_cell_length_a     43.81312
_cell_length_b     43.801122
_cell_length_c     38.493858
_cell_angle_alpha  89.984546
_cell_angle_beta   90.006969
_cell_angle_gamma 90.003006
loop_
_atom_site_label
_atom_site_type_symbol
_atom_site_fract_x
_atom_site_fract_y
_atom_site_fract_z
_atom_type_partial_charge
Mn0 Mn 0.53826 0.19292 0.18499 0.0
Mn1 Mn 0.602 0.19283 0.13599 0.0
C2 C 0.58114 0.16684 0.20359 0.0
C3 C 0.49136 0.17165 0.20019 0.0
C4 C 0.58666 0.24407 0.18493 0.0
O5 O 0.52188 0.20842 0.13877 0.0
O6 O 0.56694 0.21165 0.11145 0.0
C7 C 0.57733 0.14809 0.08556 0.0
N8 N 0.59943 0.1565 0.10857 0.0
C9 C 0.62804 0.11073 0.09712 0.0
C10 C 0.60562 0.10161 0.07329 0.0
C11 C 0.58007 0.12032 0.06763 0.0
C12 C 0.62366 0.13827 0.11491 0.0
H13 H 0.55774 0.16243 0.08086 0.0
C14 C 0.53816 0.21618 0.11289 0.0
O15 O 0.49786 0.1998 0.2079 0.0
O16 O 0.51156 0.15652 0.18267 0.0
N17 N 0.63861 0.17549 0.15459 0.0
C18 C 0.66031 0.18972 0.1741 0.0
C19 C 0.68818 0.17503 0.18067 0.0
C20 C 0.69405 0.14639 0.16586 0.0
C21 C 0.67218 0.13294 0.14412 0.0
C22 C 0.64469 0.14858 0.1388 0.0
H23 H 0.65641 0.21218 0.18446 0.0
O24 O 0.56005 0.17474 0.22533 0.0
O25 O 0.57618 0.17333 0.17104 0.0
O26 O 0.5601 0.23411 0.19303 0.0
O27 O 0.60537 0.22981 0.16512 0.0
C28 C 0.67714 0.10523 0.12638 0.0
C29 C 0.65488 0.0939 0.10331 0.0
H30 H 0.60789 0.08042 0.05902 0.0
H31 H 0.56267 0.11347 0.04926 0.0
H32 H 0.70528 0.18599 0.19667 0.0
H33 H 0.71581 0.1354 0.1705 0.0
H34 H 0.69816 0.0926 0.13004 0.0
H35 H 0.65897 0.07259 0.08981 0.0
Mn36 Mn 0.29226 0.52367 0.6907 0.0
Mn37 Mn 0.27785 0.58524 0.6404 0.0
C38 C 0.31617 0.56971 0.70212 0.0
C39 C 0.32007 0.47945 0.70247 0.0
C40 C 0.23605 0.56497 0.69825 0.0
O41 O 0.27159 0.50439 0.64846 0.0
O42 O 0.26325 0.54737 0.61801 0.0
C43 C 0.32053 0.56892 0.58374 0.0
N44 N 0.31089 0.58911 0.60832 0.0
C45 C 0.34861 0.62591 0.59085 0.0
C46 C 0.35895 0.60554 0.56533 0.0
C47 C 0.34492 0.57685 0.56188 0.0
C48 C 0.32463 0.61649 0.61235 0.0
H49 H 0.30965 0.54695 0.58078 0.0
C50 C 0.26133 0.51846 0.62193 0.0
O51 O 0.29309 0.4837 0.7156 0.0
O52 O 0.33023 0.5003 0.68153 0.0
N53 N 0.29059 0.624 0.65799 0.0
C54 C 0.27659 0.6417 0.68237 0.0
C55 C 0.28707 0.67155 0.68818 0.0
C56 C 0.31121 0.68318 0.66818 0.0
C57 C 0.32484 0.66479 0.64272 0.0
C58 C 0.31355 0.63516 0.63825 0.0
H59 H 0.25749 0.63317 0.6972 0.0
O60 O 0.31436 0.54876 0.72579 0.0
O61 O 0.30493 0.56282 0.67183 0.0
O62 O 0.2515 0.54163 0.70762 0.0
O63 O 0.2437 0.58289 0.67357 0.0
C64 C 0.34864 0.67497 0.62097 0.0
C65 C 0.36082 0.65539 0.5954 0.0
H66 H 0.37752 0.61173 0.54815 0.0
H67 H 0.35272 0.56101 0.54222 0.0
H68 H 0.27627 0.6857 0.70766 0.0
H69 H 0.31867 0.70647 0.67215 0.0
H70 H 0.35772 0.69785 0.62364 0.0
H71 H 0.37923 0.66343 0.579 0.0
Mn72 Mn 0.95878 0.31493 0.1872 0.0
Mn73 Mn 0.89565 0.30857 0.1374 0.0
C74 C 0.91359 0.3376 0.20495 0.0
C75 C 0.00415 0.33968 0.20127 0.0
C76 C 0.91821 0.25832 0.18496 0.0
O77 O 0.97596 0.2993 0.14103 0.0
O78 O 0.9327 0.30037 0.10971 0.0
C79 C 0.90759 0.36176 0.09195 0.0
N80 N 0.88891 0.34659 0.11436 0.0
C81 C 0.84917 0.38385 0.10689 0.0
C82 C 0.86789 0.39982 0.08358 0.0
C83 C 0.89733 0.38885 0.07631 0.0
C84 C 0.86097 0.35748 0.12245 0.0
H85 H 0.93011 0.35321 0.08601 0.0
C86 C 0.96151 0.29643 0.11243 0.0
O87 O 0.99946 0.31139 0.20984 0.0
O88 O 0.98295 0.35316 0.18338 0.0
N89 N 0.85748 0.31595 0.16 0.0
C90 C 0.84161 0.29687 0.18139 0.0
C91 C 0.81151 0.3042 0.19073 0.0
C92 C 0.79763 0.33043 0.17697 0.0
C93 C 0.81401 0.34915 0.15402 0.0
C94 C 0.84413 0.34101 0.14619 0.0
H95 H 0.85178 0.27616 0.19124 0.0
O96 O 0.93549 0.33277 0.22688 0.0
O97 O 0.91921 0.33034 0.17283 0.0
O98 O 0.94058 0.27308 0.19787 0.0
O99 O 0.90063 0.26876 0.16127 0.0
C100 C 0.80129 0.37499 0.1377 0.0
C101 C 0.81904 0.39268 0.11471 0.0
H102 H 0.85985 0.42044 0.07102 0.0
H103 H 0.91195 0.40105 0.0584 0.0
H104 H 0.79889 0.2894 0.20807 0.0
H105 H 0.77422 0.33566 0.18373 0.0
H106 H 0.77786 0.38152 0.14272 0.0
H107 H 0.8091 0.41272 0.10271 0.0
Mn108 Mn 0.20152 0.97267 0.69212 0.0
Mn109 Mn 0.21488 0.91116 0.64135 0.0
C110 C 0.17752 0.92675 0.70381 0.0
C111 C 0.17446 0.01705 0.7047 0.0
C112 C 0.25788 0.93167 0.69797 0.0
O113 O 0.22176 0.99179 0.64952 0.0
O114 O 0.22828 0.94903 0.61796 0.0
C115 C 0.16995 0.92629 0.58655 0.0
N116 N 0.18079 0.90648 0.61088 0.0
C117 C 0.14267 0.86916 0.59613 0.0
C118 C 0.13111 0.88913 0.57086 0.0
C119 C 0.14473 0.91788 0.56617 0.0
C120 C 0.16745 0.87905 0.61612 0.0
H121 H 0.1805 0.94832 0.5827 0.0
C122 C 0.23076 0.97786 0.6223 0.0
O123 O 0.20163 0.01244 0.71715 0.0
O124 O 0.16365 0.99647 0.68382 0.0
N125 N 0.20331 0.87245 0.66009 0.0
C126 C 0.21856 0.85514 0.68388 0.0
C127 C 0.20876 0.82522 0.69059 0.0
C128 C 0.18391 0.81312 0.67216 0.0
C129 C 0.16893 0.83113 0.6473 0.0
C130 C 0.17972 0.86081 0.64174 0.0
H131 H 0.23817 0.86401 0.69753 0.0
O132 O 0.17968 0.94762 0.72752 0.0
O133 O 0.18847 0.93367 0.67341 0.0
O134 O 0.24223 0.95448 0.70833 0.0
O135 O 0.25014 0.91421 0.67293 0.0
C136 C 0.14433 0.82049 0.62707 0.0
C137 C 0.1309 0.83965 0.60188 0.0
H138 H 0.11188 0.88258 0.55482 0.0
H139 H 0.13596 0.93341 0.54671 0.0
H140 H 0.2206 0.81137 0.70958 0.0
H141 H 0.17697 0.78976 0.67683 0.0
H142 H 0.13564 0.79755 0.63054 0.0
H143 H 0.11189 0.83126 0.58664 0.0
Mn144 Mn 0.52576 0.31252 0.80965 0.0
Mn145 Mn 0.58788 0.30268 0.86053 0.0
C146 C 0.57199 0.33368 0.79283 0.0
C147 C 0.48098 0.33835 0.79497 0.0
C148 C 0.56848 0.25661 0.80735 0.0
O149 O 0.50659 0.29686 0.85438 0.0
O150 O 0.55019 0.28731 0.88265 0.0
C151 C 0.56724 0.34799 0.91264 0.0
N152 N 0.58918 0.33733 0.89069 0.0
C153 C 0.6246 0.37582 0.90961 0.0
C154 C 0.60243 0.38719 0.93246 0.0
C155 C 0.57355 0.3733 0.93383 0.0
C156 C 0.61673 0.35099 0.88853 0.0
H157 H 0.54511 0.33726 0.91404 0.0
C158 C 0.52123 0.28623 0.8801 0.0
O159 O 0.48538 0.31013 0.78595 0.0
O160 O 0.50232 0.35128 0.81317 0.0
N161 N 0.62724 0.31552 0.84507 0.0
C162 C 0.64701 0.29974 0.82448 0.0
C163 C 0.67766 0.30879 0.82274 0.0
C164 C 0.68774 0.33413 0.8419 0.0
C165 C 0.66725 0.34959 0.86355 0.0
C166 C 0.63717 0.3389 0.86512 0.0
H167 H 0.63971 0.2797 0.81047 0.0
O168 O 0.5499 0.32969 0.77093 0.0
O169 O 0.56595 0.32705 0.8253 0.0
O170 O 0.54343 0.26974 0.79894 0.0
O171 O 0.58767 0.26737 0.82914 0.0
C172 C 0.6758 0.37447 0.88461 0.0
C173 C 0.65436 0.38785 0.90729 0.0
H174 H 0.60736 0.40646 0.94918 0.0
H175 H 0.5563 0.38191 0.95141 0.0
H176 H 0.69363 0.29581 0.80722 0.0
H177 H 0.71146 0.34097 0.84064 0.0
H178 H 0.69885 0.38337 0.8837 0.0
H179 H 0.66117 0.40699 0.92334 0.0
Mn180 Mn 0.1968 0.51866 0.31366 0.0
Mn181 Mn 0.21676 0.57904 0.36347 0.0
C182 C 0.1797 0.56712 0.29937 0.0
C183 C 0.1652 0.47749 0.30058 0.0
C184 C 0.25821 0.55193 0.30908 0.0
O185 O 0.21275 0.49799 0.35772 0.0
O186 O 0.22416 0.54028 0.38816 0.0
C187 C 0.1687 0.57131 0.41681 0.0
N188 N 0.18311 0.58907 0.39284 0.0
C189 C 0.15216 0.63249 0.40766 0.0
C190 C 0.13694 0.6147 0.43252 0.0
C191 C 0.14517 0.58393 0.437 0.0
C192 C 0.17499 0.61849 0.38786 0.0
H193 H 0.17518 0.54775 0.42056 0.0
C194 C 0.22277 0.51131 0.38484 0.0
O195 O 0.19319 0.47868 0.28967 0.0
O196 O 0.1559 0.49974 0.3202 0.0
N197 N 0.21133 0.61868 0.34375 0.0
C198 C 0.22885 0.63285 0.31932 0.0
C199 C 0.22493 0.66417 0.3132 0.0
C200 C 0.2034 0.68066 0.3326 0.0
C201 C 0.18522 0.66552 0.35712 0.0
C202 C 0.19045 0.63437 0.36244 0.0
H203 H 0.24614 0.6205 0.3051 0.0
O204 O 0.17992 0.54538 0.27654 0.0
O205 O 0.18829 0.55972 0.33067 0.0
O206 O 0.24001 0.53103 0.29891 0.0
O207 O 0.25215 0.5707 0.33345 0.0
C208 C 0.16263 0.68024 0.37708 0.0
C209 C 0.14581 0.66364 0.40199 0.0
H210 H 0.119 0.62444 0.44839 0.0
H211 H 0.13358 0.57006 0.45617 0.0
H212 H 0.23892 0.67571 0.2941 0.0
H213 H 0.20118 0.70502 0.32863 0.0
H214 H 0.15797 0.70432 0.37344 0.0
H215 H 0.12836 0.67515 0.417 0.0
Mn216 Mn 0.97222 0.18305 0.8192 0.0
Mn217 Mn 0.90917 0.18978 0.86895 0.0
C218 C 0.9263 0.16261 0.80004 0.0
C219 C 0.01707 0.15748 0.8048 0.0
C220 C 0.93402 0.24105 0.82415 0.0
O221 O 0.98952 0.19678 0.86612 0.0
O222 O 0.94631 0.19458 0.89754 0.0
C223 C 0.91806 0.1336 0.91047 0.0
N224 N 0.90022 0.15111 0.88944 0.0
C225 C 0.85805 0.11642 0.89537 0.0
C226 C 0.87583 0.09813 0.91739 0.0
C227 C 0.90609 0.1066 0.92468 0.0
C228 C 0.87156 0.14252 0.88109 0.0
H229 H 0.94123 0.14019 0.91633 0.0
C230 C 0.97516 0.1982 0.89489 0.0
O231 O 0.01323 0.18612 0.79729 0.0
O232 O 0.99521 0.144 0.82163 0.0
N233 N 0.87082 0.18562 0.84568 0.0
C234 C 0.85626 0.20651 0.8253 0.0
C235 C 0.8257 0.20165 0.81586 0.0
C236 C 0.81003 0.17604 0.82859 0.0
C237 C 0.82513 0.1554 0.85052 0.0
C238 C 0.8558 0.16106 0.85838 0.0
H239 H 0.8678 0.22682 0.81637 0.0
O240 O 0.94858 0.16726 0.77855 0.0
O241 O 0.93198 0.16861 0.83246 0.0
O242 O 0.95559 0.22575 0.81033 0.0
O243 O 0.91637 0.23048 0.84775 0.0
C244 C 0.81066 0.13 0.86582 0.0
C245 C 0.82727 0.11015 0.8876 0.0
H246 H 0.86647 0.0776 0.92891 0.0
H247 H 0.92002 0.09256 0.94152 0.0
H248 H 0.81408 0.2179 0.79931 0.0
H249 H 0.78626 0.17273 0.82182 0.0
H250 H 0.78677 0.12539 0.86083 0.0
H251 H 0.81601 0.0904 0.8987 0.0
Mn252 Mn 0.31188 0.98498 0.31699 0.0
Mn253 Mn 0.29834 0.92191 0.36533 0.0
C254 C 0.33257 0.93864 0.29984 0.0
C255 C 0.33916 0.0294 0.30472 0.0
C256 C 0.25481 0.94424 0.31078 0.0
O257 O 0.29493 0.00343 0.36157 0.0
O258 O 0.28407 0.95949 0.38849 0.0
C259 C 0.34287 0.93876 0.42 0.0
N260 N 0.33197 0.91808 0.39665 0.0
C261 C 0.36801 0.88021 0.41569 0.0
C262 C 0.37962 0.90106 0.43996 0.0
C263 C 0.36709 0.93053 0.44199 0.0
C264 C 0.34432 0.88996 0.39393 0.0
H265 H 0.33313 0.96133 0.42192 0.0
C266 C 0.28361 0.98853 0.38675 0.0
O267 O 0.3112 0.02582 0.29439 0.0
O268 O 0.35095 0.00752 0.32312 0.0
N269 N 0.31 0.88263 0.34846 0.0
C270 C 0.29448 0.86453 0.32573 0.0
C271 C 0.30232 0.8336 0.32277 0.0
C272 C 0.32614 0.82157 0.34299 0.0
C273 C 0.34154 0.84047 0.3665 0.0
C274 C 0.33211 0.8709 0.3691 0.0
H275 H 0.27561 0.87339 0.31076 0.0
O276 O 0.33009 0.96136 0.2785 0.0
O277 O 0.32469 0.94403 0.3321 0.0
O278 O 0.26943 0.96861 0.30315 0.0
O279 O 0.26378 0.92452 0.33298 0.0
C280 C 0.36519 0.83001 0.38828 0.0
C281 C 0.3787 0.85 0.41255 0.0
H282 H 0.39804 0.89466 0.45727 0.0
H283 H 0.37587 0.94676 0.46068 0.0
H284 H 0.28958 0.81892 0.30544 0.0
H285 H 0.33194 0.79762 0.34094 0.0
H286 H 0.3731 0.80663 0.38664 0.0
H287 H 0.39692 0.84175 0.4291 0.0
Mn288 Mn 0.47813 0.79477 0.80885 0.0
Mn289 Mn 0.41937 0.77802 0.8625 0.0
C290 C 0.43053 0.81575 0.79904 0.0
C291 C 0.52032 0.82434 0.79393 0.0
C292 C 0.43977 0.73626 0.80475 0.0
O293 O 0.50004 0.77627 0.85071 0.0
O294 O 0.45875 0.76619 0.88351 0.0
C295 C 0.43492 0.8227 0.91743 0.0
N296 N 0.4146 0.81146 0.89389 0.0
C297 C 0.37625 0.84741 0.91187 0.0
C298 C 0.39676 0.8594 0.9363 0.0
C299 C 0.42625 0.84704 0.93901 0.0
C300 C 0.38634 0.82347 0.89071 0.0
H301 H 0.45753 0.81313 0.9198 0.0
C302 C 0.48751 0.76592 0.87814 0.0
O303 O 0.5169 0.79684 0.78194 0.0
O304 O 0.49986 0.8341 0.81561 0.0
N305 N 0.37941 0.7881 0.84626 0.0
C306 C 0.36192 0.77283 0.82268 0.0
C307 C 0.33134 0.78139 0.81793 0.0
C308 C 0.31889 0.80506 0.83801 0.0
C309 C 0.33724 0.82032 0.86227 0.0
C310 C 0.36753 0.81074 0.86593 0.0
H311 H 0.37116 0.7541 0.80779 0.0
O312 O 0.45067 0.81456 0.77443 0.0
O313 O 0.4391 0.80571 0.82934 0.0
O314 O 0.46176 0.75284 0.79386 0.0
O315 O 0.42256 0.74327 0.83028 0.0
C316 C 0.32647 0.84418 0.88355 0.0
C317 C 0.34607 0.85797 0.90803 0.0
H318 H 0.39006 0.87799 0.95321 0.0
H319 H 0.44219 0.85609 0.95786 0.0
H320 H 0.31727 0.76944 0.79925 0.0
H321 H 0.29506 0.81096 0.835 0.0
H322 H 0.30312 0.85207 0.88137 0.0
H323 H 0.33755 0.87637 0.92414 0.0
Mn324 Mn 0.6828 0.48223 0.32133 0.0
Mn325 Mn 0.69459 0.41706 0.36661 0.0
C326 C 0.66472 0.43641 0.2989 0.0
C327 C 0.65511 0.52662 0.31046 0.0
C328 C 0.74266 0.44689 0.32134 0.0
O329 O 0.69674 0.4978 0.36884 0.0
O330 O 0.69772 0.45306 0.39727 0.0
C331 C 0.63946 0.41982 0.411 0.0
N332 N 0.65782 0.40414 0.38875 0.0
C333 C 0.62897 0.35802 0.39702 0.0
C334 C 0.60989 0.37355 0.42033 0.0
C335 C 0.61498 0.40468 0.42708 0.0
C336 C 0.65254 0.37451 0.38123 0.0
H337 H 0.64354 0.44366 0.41644 0.0
C338 C 0.69953 0.48213 0.39652 0.0
O339 O 0.68375 0.52435 0.30233 0.0
O340 O 0.64277 0.5034 0.3261 0.0
N341 N 0.69252 0.37936 0.34176 0.0
C342 C 0.71287 0.36784 0.31842 0.0
C343 C 0.7115 0.33682 0.3095 0.0
C344 C 0.68924 0.31793 0.32462 0.0
C345 C 0.66846 0.33027 0.34842 0.0
C346 C 0.67128 0.36122 0.35679 0.0
H347 H 0.73055 0.38198 0.30737 0.0
O348 O 0.6676 0.46046 0.27956 0.0
O349 O 0.6707 0.44014 0.33189 0.0
O350 O 0.72596 0.46832 0.30957 0.0
O351 O 0.73386 0.42776 0.34427 0.0
C352 C 0.64547 0.31292 0.36475 0.0
C353 C 0.62556 0.32685 0.38881 0.0
H354 H 0.5912 0.36185 0.43307 0.0
H355 H 0.60026 0.41687 0.44488 0.0
H356 H 0.72776 0.3274 0.29125 0.0
H357 H 0.68846 0.29393 0.31798 0.0
H358 H 0.64274 0.28891 0.35875 0.0
H359 H 0.60769 0.3134 0.40081 0.0
Mn360 Mn 0.01726 0.70245 0.81536 0.0
Mn361 Mn 0.07817 0.71872 0.86602 0.0
C362 C 0.06412 0.68023 0.8037 0.0
C363 C 0.97344 0.67411 0.80365 0.0
C364 C 0.05629 0.76026 0.80866 0.0
O365 O 0.99735 0.72226 0.85769 0.0
O366 O 0.03983 0.73117 0.88888 0.0
C367 C 0.06422 0.67444 0.92191 0.0
N368 N 0.08381 0.68545 0.89744 0.0
C369 C 0.12277 0.64982 0.91451 0.0
C370 C 0.10302 0.63804 0.93987 0.0
C371 C 0.07358 0.65034 0.94349 0.0
C372 C 0.11196 0.67343 0.89331 0.0
H373 H 0.04168 0.68403 0.92501 0.0
C374 C 0.01096 0.73229 0.88459 0.0
O375 O 0.97735 0.70119 0.79067 0.0
O376 O 0.99465 0.66388 0.82412 0.0
N377 N 0.1174 0.70822 0.84799 0.0
C378 C 0.13415 0.72334 0.8236 0.0
C379 C 0.16469 0.71504 0.81806 0.0
C380 C 0.17788 0.6918 0.8382 0.0
C381 C 0.16025 0.67657 0.86318 0.0
C382 C 0.12996 0.6859 0.86761 0.0
H383 H 0.1244 0.74185 0.80876 0.0
O384 O 0.04302 0.68133 0.78013 0.0
O385 O 0.05687 0.69101 0.83412 0.0
O386 O 0.03397 0.7437 0.79867 0.0
O387 O 0.07408 0.75339 0.83375 0.0
C388 C 0.17177 0.65308 0.8845 0.0
C389 C 0.15291 0.63942 0.90981 0.0
H390 H 0.11029 0.61969 0.95683 0.0
H391 H 0.05823 0.64146 0.96306 0.0
H392 H 0.17821 0.72692 0.7988 0.0
H393 H 0.20174 0.68622 0.83469 0.0
H394 H 0.19514 0.64539 0.8817 0.0
H395 H 0.16199 0.62129 0.92593 0.0
Mn396 Mn 0.81256 0.02344 0.31395 0.0
Mn397 Mn 0.79906 0.08451 0.36499 0.0
C398 C 0.82887 0.07149 0.29634 0.0
C399 C 0.84242 0.98132 0.29968 0.0
C400 C 0.75123 0.05575 0.31841 0.0
O401 O 0.79961 0.00412 0.36016 0.0
O402 O 0.79838 0.04664 0.39285 0.0
C403 C 0.85568 0.08149 0.40681 0.0
N404 N 0.8363 0.09753 0.38603 0.0
C405 C 0.86552 0.14349 0.39351 0.0
C406 C 0.88566 0.12759 0.41533 0.0
C407 C 0.88089 0.09636 0.42169 0.0
C408 C 0.8414 0.1272 0.37853 0.0
H409 H 0.8519 0.05757 0.41197 0.0
C410 C 0.79726 0.01765 0.38937 0.0
O411 O 0.81377 0.9827 0.29124 0.0
O412 O 0.8535 0.0041 0.31718 0.0
N413 N 0.79898 0.12338 0.34235 0.0
C414 C 0.77691 0.13562 0.3216 0.0
C415 C 0.77811 0.16673 0.31296 0.0
C416 C 0.80127 0.18521 0.32682 0.0
C417 C 0.82329 0.17232 0.34883 0.0
C418 C 0.82133 0.14104 0.35589 0.0
H419 H 0.75837 0.12186 0.31185 0.0
O420 O 0.82693 0.04925 0.27426 0.0
O421 O 0.82283 0.06461 0.32844 0.0
O422 O 0.76877 0.0363 0.30398 0.0
O423 O 0.75957 0.07321 0.34329 0.0
C424 C 0.84655 0.18948 0.36492 0.0
C425 C 0.86806 0.17496 0.38661 0.0
H426 H 0.90479 0.13914 0.42736 0.0
H427 H 0.89639 0.08389 0.43835 0.0
H428 H 0.76085 0.17655 0.29623 0.0
H429 H 0.80166 0.20935 0.32074 0.0
H430 H 0.84828 0.21384 0.36052 0.0
H431 H 0.88618 0.18831 0.39827 0.0
Mn432 Mn 0.4651 0.69835 0.18403 0.0
Mn433 Mn 0.4044 0.70303 0.13045 0.0
C434 C 0.4204 0.67272 0.19705 0.0
C435 C 0.51011 0.67476 0.20184 0.0
C436 C 0.41892 0.75122 0.18373 0.0
O437 O 0.4847 0.71519 0.14007 0.0
O438 O 0.44162 0.72064 0.10908 0.0
C439 C 0.42877 0.65919 0.07878 0.0
N440 N 0.40629 0.66774 0.10124 0.0
C441 C 0.37616 0.6237 0.08645 0.0
C442 C 0.39897 0.61445 0.06317 0.0
C443 C 0.42543 0.63224 0.05942 0.0
C444 C 0.38103 0.65047 0.10556 0.0
H445 H 0.44911 0.6728 0.0756 0.0
C446 C 0.47043 0.7239 0.11302 0.0
O447 O 0.50399 0.70274 0.21064 0.0
O448 O 0.49076 0.66117 0.18161 0.0
N449 N 0.36633 0.68682 0.14636 0.0
C450 C 0.345 0.70078 0.16663 0.0
C451 C 0.31653 0.68683 0.17175 0.0
C452 C 0.30982 0.65923 0.15491 0.0
C453 C 0.33159 0.64592 0.13294 0.0
C454 C 0.35965 0.66083 0.12901 0.0
H455 H 0.34957 0.72254 0.17853 0.0
O456 O 0.44006 0.67896 0.22114 0.0
O457 O 0.42769 0.68084 0.16562 0.0
O458 O 0.44439 0.73979 0.19345 0.0
O459 O 0.40125 0.73893 0.16126 0.0
C460 C 0.32612 0.61903 0.11383 0.0
C461 C 0.34856 0.6077 0.09096 0.0
H462 H 0.39631 0.59386 0.0479 0.0
H463 H 0.44314 0.62529 0.04148 0.0
H464 H 0.29961 0.69758 0.18818 0.0
H465 H 0.28755 0.64896 0.15825 0.0
H466 H 0.30462 0.60701 0.11631 0.0
H467 H 0.34408 0.58701 0.07642 0.0
Mn468 Mn 0.81502 0.46709 0.69035 0.0
Mn469 Mn 0.81742 0.40452 0.63904 0.0
C470 C 0.83944 0.4233 0.70972 0.0
C471 C 0.83622 0.51376 0.70657 0.0
C472 C 0.7633 0.41999 0.68472 0.0
O473 O 0.80118 0.48444 0.64383 0.0
O474 O 0.80325 0.44097 0.6134 0.0
C475 C 0.86819 0.42821 0.59598 0.0
N476 N 0.85625 0.40577 0.6164 0.0
C477 C 0.90089 0.37458 0.60867 0.0
C478 C 0.91356 0.39724 0.58736 0.0
C479 C 0.89722 0.42428 0.58121 0.0
C480 C 0.87226 0.3802 0.62356 0.0
H481 H 0.85573 0.449 0.59102 0.0
C482 C 0.79795 0.46954 0.61574 0.0
O483 O 0.80783 0.50746 0.71327 0.0
O484 O 0.85175 0.49332 0.68988 0.0
N485 N 0.83084 0.36647 0.65812 0.0
C486 C 0.81332 0.34487 0.67399 0.0
C487 C 0.82546 0.31578 0.68053 0.0
C488 C 0.85494 0.30858 0.66899 0.0
C489 C 0.87172 0.33033 0.65031 0.0
C490 C 0.85858 0.35912 0.64509 0.0
H491 H 0.79005 0.34963 0.68112 0.0
O492 O 0.8315 0.44455 0.73124 0.0
O493 O 0.8345 0.42885 0.67696 0.0
O494 O 0.77356 0.44548 0.69608 0.0
O495 O 0.77779 0.40242 0.66376 0.0
C496 C 0.90038 0.32404 0.63528 0.0
C497 C 0.91521 0.34636 0.61501 0.0
H498 H 0.93573 0.39404 0.57543 0.0
H499 H 0.90686 0.44193 0.56487 0.0
H500 H 0.81186 0.29874 0.69375 0.0
H501 H 0.86397 0.28591 0.67347 0.0
H502 H 0.9111 0.30198 0.63888 0.0
H503 H 0.93724 0.34126 0.60365 0.0
Mn504 Mn 0.03898 0.80591 0.18888 0.0
Mn505 Mn 0.09977 0.79431 0.13655 0.0
C506 C 0.08534 0.8288 0.20143 0.0
C507 C 0.99492 0.83268 0.2036 0.0
C508 C 0.08044 0.74952 0.19181 0.0
O509 O 0.01894 0.78802 0.14563 0.0
O510 O 0.06149 0.7805 0.1143 0.0
C511 C 0.08167 0.83992 0.08357 0.0
N512 N 0.10271 0.82887 0.10641 0.0
C513 C 0.13907 0.86734 0.08982 0.0
C514 C 0.11783 0.87911 0.06607 0.0
C515 C 0.08896 0.86541 0.06306 0.0
C516 C 0.13028 0.84228 0.11006 0.0
H517 H 0.05952 0.82936 0.08101 0.0
C518 C 0.03261 0.77871 0.11844 0.0
O519 O 0.99947 0.80497 0.21445 0.0
O520 O 0.01551 0.84438 0.18337 0.0
N521 N 0.13897 0.80632 0.15349 0.0
C522 C 0.15738 0.79113 0.17622 0.0
C523 C 0.18772 0.8006 0.18059 0.0
C524 C 0.19901 0.82515 0.16101 0.0
C525 C 0.17966 0.84059 0.13795 0.0
C526 C 0.14974 0.82989 0.13439 0.0
H527 H 0.14919 0.77153 0.19038 0.0
O528 O 0.06468 0.82553 0.22522 0.0
O529 O 0.07798 0.81969 0.17035 0.0
O530 O 0.05681 0.76405 0.20199 0.0
O531 O 0.0984 0.75878 0.1679 0.0
C532 C 0.18915 0.86561 0.11762 0.0
C533 C 0.16872 0.87926 0.09392 0.0
H534 H 0.12349 0.89857 0.04993 0.0
H535 H 0.07243 0.87435 0.0448 0.0
H536 H 0.20257 0.78857 0.19841 0.0
H537 H 0.22274 0.83165 0.16348 0.0
H538 H 0.21213 0.8745 0.11996 0.0
H539 H 0.17623 0.89856 0.07855 0.0
Mn540 Mn 0.68913 0.02755 0.68291 0.0
Mn541 Mn 0.70204 0.08933 0.63255 0.0
C542 C 0.66965 0.07473 0.6995 0.0
C543 C 0.66133 0.98383 0.69656 0.0
C544 C 0.74901 0.06285 0.68181 0.0
O545 O 0.70447 0.0088 0.63737 0.0
O546 O 0.70606 0.05152 0.60506 0.0
C547 C 0.64797 0.0836 0.58682 0.0
N548 N 0.66566 0.10064 0.60848 0.0
C549 C 0.63557 0.14553 0.59764 0.0
C550 C 0.61716 0.12858 0.57492 0.0
C551 C 0.62322 0.0974 0.56974 0.0
C552 C 0.65946 0.13036 0.61449 0.0
H553 H 0.65272 0.05969 0.58268 0.0
C554 C 0.70789 0.02255 0.60842 0.0
O555 O 0.68961 0.98697 0.70586 0.0
O556 O 0.64938 0.00582 0.67842 0.0
N557 N 0.69896 0.12817 0.65484 0.0
C558 C 0.7183 0.14096 0.67845 0.0
C559 C 0.71594 0.17222 0.68592 0.0
C560 C 0.69406 0.19006 0.66867 0.0
C561 C 0.67392 0.17629 0.64509 0.0
C562 C 0.67752 0.14511 0.63851 0.0
H563 H 0.73587 0.1276 0.69092 0.0
O564 O 0.67226 0.05261 0.72171 0.0
O565 O 0.67719 0.06826 0.66763 0.0
O566 O 0.73184 0.04249 0.69504 0.0
O567 O 0.74089 0.08024 0.65684 0.0
C568 C 0.65071 0.19235 0.62749 0.0
C569 C 0.63123 0.17688 0.6042 0.0
H570 H 0.59825 0.13923 0.56142 0.0
H571 H 0.60902 0.08412 0.5524 0.0
H572 H 0.73138 0.18266 0.70437 0.0
H573 H 0.69287 0.21433 0.67383 0.0
H574 H 0.64742 0.21654 0.63195 0.0
H575 H 0.61311 0.18934 0.59133 0.0
C576 C 0.45611 0.12711 0.20073 0.0
C577 C 0.46373 0.15611 0.21344 0.0
C578 C 0.43298 0.10972 0.21622 0.0
C579 C 0.41714 0.12152 0.24531 0.0
C580 C 0.42362 0.15144 0.25719 0.0
C581 C 0.44685 0.16847 0.24101 0.0
C582 C 0.42657 0.07806 0.20245 0.0
C583 C 0.40714 0.16483 0.28805 0.0
C584 C 0.34596 0.07679 0.26918 0.0
C585 C 0.35765 0.0559 0.29342 0.0
C586 C 0.36463 0.09951 0.25461 0.0
C587 C 0.39566 0.10139 0.26461 0.0
C588 C 0.40706 0.08152 0.2906 0.0
C589 C 0.38793 0.05898 0.30464 0.0
C590 C 0.35159 0.12032 0.22709 0.0
C591 C 0.43996 0.08292 0.30219 0.0
H592 H 0.46891 0.11752 0.17924 0.0
H593 H 0.45269 0.19086 0.251 0.0
H594 H 0.43319 0.06082 0.22219 0.0
H595 H 0.40181 0.0752 0.19737 0.0
H596 H 0.43926 0.07318 0.17809 0.0
H597 H 0.41213 0.18952 0.29141 0.0
H598 H 0.38212 0.16178 0.2853 0.0
H599 H 0.41423 0.15263 0.31199 0.0
H600 H 0.32253 0.07464 0.26048 0.0
H601 H 0.39707 0.04308 0.32355 0.0
H602 H 0.36123 0.11407 0.2014 0.0
H603 H 0.358 0.14439 0.23226 0.0
H604 H 0.32632 0.11871 0.22555 0.0
H605 H 0.45502 0.07559 0.28057 0.0
H606 H 0.44445 0.068 0.32497 0.0
H607 H 0.44634 0.10669 0.309 0.0
C608 C 0.33162 0.43521 0.74165 0.0
C609 C 0.33979 0.45372 0.71339 0.0
C610 C 0.35216 0.41362 0.75524 0.0
C611 C 0.38144 0.41044 0.74008 0.0
C612 C 0.38914 0.42794 0.71043 0.0
C613 C 0.36826 0.4494 0.6975 0.0
C614 C 0.34308 0.39533 0.78683 0.0
C615 C 0.42002 0.42506 0.69329 0.0
C616 C 0.44936 0.38581 0.79447 0.0
C617 C 0.45377 0.35565 0.78339 0.0
C618 C 0.42521 0.40349 0.78148 0.0
C619 C 0.40501 0.39075 0.75668 0.0
C620 C 0.4087 0.35997 0.74627 0.0
C621 C 0.43303 0.34275 0.75979 0.0
C622 C 0.42195 0.43617 0.79345 0.0
C623 C 0.38763 0.34559 0.71989 0.0
H624 H 0.30966 0.43843 0.75407 0.0
H625 H 0.37468 0.46348 0.67552 0.0
H626 H 0.34784 0.37073 0.78267 0.0
H627 H 0.35684 0.40279 0.80948 0.0
H628 H 0.31853 0.39813 0.7933 0.0
H629 H 0.42153 0.43846 0.66884 0.0
H630 H 0.438 0.43325 0.71133 0.0
H631 H 0.42503 0.40079 0.68735 0.0
H632 H 0.46518 0.39589 0.81282 0.0
H633 H 0.43627 0.31943 0.75113 0.0
H634 H 0.39844 0.44035 0.803 0.0
H635 H 0.42591 0.45184 0.77124 0.0
H636 H 0.43832 0.44202 0.81446 0.0
H637 H 0.36347 0.34892 0.72763 0.0
H638 H 0.39197 0.32076 0.71672 0.0
H639 H 0.39075 0.35689 0.69434 0.0
C640 C 0.03694 0.38629 0.20165 0.0
C641 C 0.03114 0.3567 0.21384 0.0
C642 C 0.0605 0.40401 0.21586 0.0
C643 C 0.0785 0.39196 0.24317 0.0
C644 C 0.07336 0.36176 0.25489 0.0
C645 C 0.04981 0.34441 0.23994 0.0
C646 C 0.06554 0.43599 0.20231 0.0
C647 C 0.09198 0.34819 0.28406 0.0
C648 C 0.15292 0.43319 0.2621 0.0
C649 C 0.14411 0.45327 0.28867 0.0
C650 C 0.13205 0.41243 0.24768 0.0
C651 C 0.10175 0.41158 0.26036 0.0
C652 C 0.09311 0.43086 0.28821 0.0
C653 C 0.11436 0.45158 0.30192 0.0
C654 C 0.14208 0.39235 0.21791 0.0
C655 C 0.06109 0.43035 0.30272 0.0
H656 H 0.02267 0.39587 0.18138 0.0
H657 H 0.04536 0.32158 0.24957 0.0
H658 H 0.0606 0.45278 0.22314 0.0
H659 H 0.08975 0.43908 0.19464 0.0
H660 H 0.05082 0.44127 0.17959 0.0
H661 H 0.08636 0.32379 0.28872 0.0
H662 H 0.11669 0.35009 0.27823 0.0
H663 H 0.08773 0.36113 0.30836 0.0
H664 H 0.17587 0.43439 0.25168 0.0
H665 H 0.10744 0.46694 0.32255 0.0
H666 H 0.12954 0.39891 0.194 0.0
H667 H 0.13648 0.36813 0.22342 0.0
H668 H 0.16695 0.39421 0.21274 0.0
H669 H 0.04476 0.43832 0.28262 0.0
H670 H 0.05866 0.44513 0.326 0.0
H671 H 0.05452 0.4067 0.30982 0.0
C672 C 0.12656 0.04774 0.70156 0.0
C673 C 0.15529 0.04281 0.71658 0.0
C674 C 0.10621 0.06915 0.71561 0.0
C675 C 0.11473 0.08589 0.74555 0.0
C676 C 0.14427 0.08211 0.75981 0.0
C677 C 0.16427 0.06065 0.74507 0.0
C678 C 0.07503 0.07277 0.69938 0.0
C679 C 0.15418 0.09954 0.7917 0.0
C680 C 0.06453 0.15362 0.76888 0.0
C681 C 0.04405 0.14032 0.79247 0.0
C682 C 0.08832 0.13646 0.75412 0.0
C683 C 0.09176 0.10538 0.76338 0.0
C684 C 0.07192 0.09223 0.78828 0.0
C685 C 0.04826 0.10983 0.80244 0.0
C686 C 0.10898 0.15125 0.72762 0.0
C687 C 0.07501 0.05921 0.79908 0.0
H688 H 0.11954 0.03417 0.67942 0.0
H689 H 0.18645 0.05695 0.75682 0.0
H690 H 0.05734 0.06424 0.71759 0.0
H691 H 0.07013 0.09723 0.69442 0.0
H692 H 0.07292 0.06004 0.67453 0.0
H693 H 0.17882 0.09633 0.79746 0.0
H694 H 0.1496 0.12428 0.78843 0.0
H695 H 0.14078 0.09167 0.81447 0.0
H696 H 0.0614 0.17718 0.76104 0.0
H697 H 0.03261 0.09945 0.82078 0.0
H698 H 0.10511 0.14068 0.70181 0.0
H699 H 0.13326 0.14739 0.7345 0.0
H700 H 0.10493 0.17622 0.72541 0.0
H701 H 0.07032 0.04417 0.77652 0.0
H702 H 0.05906 0.05304 0.82039 0.0
H703 H 0.09869 0.05449 0.80778 0.0
C704 C 0.54896 0.87356 0.79634 0.0
C705 C 0.54478 0.84476 0.78118 0.0
C706 C 0.56969 0.8946 0.78229 0.0
C707 C 0.5865 0.88674 0.75218 0.0
C708 C 0.58312 0.85734 0.73739 0.0
C709 C 0.56236 0.83663 0.75217 0.0
C710 C 0.57291 0.9256 0.79907 0.0
C711 C 0.6006 0.84817 0.70525 0.0
C712 C 0.61263 0.95401 0.6975 0.0
C713 C 0.64303 0.95733 0.7082 0.0
C714 C 0.59427 0.93046 0.71075 0.0
C715 C 0.60657 0.90988 0.73546 0.0
C716 C 0.63751 0.91255 0.74555 0.0
C717 C 0.6554 0.93619 0.73171 0.0
C718 C 0.56143 0.92818 0.69911 0.0
C719 C 0.65141 0.89112 0.7719 0.0
H720 H 0.53553 0.87995 0.81885 0.0
H721 H 0.55917 0.81443 0.74026 0.0
H722 H 0.59724 0.93032 0.805 0.0
H723 H 0.56501 0.94355 0.78083 0.0
H724 H 0.55952 0.9275 0.82348 0.0
H725 H 0.59681 0.82387 0.69822 0.0
H726 H 0.59345 0.86267 0.68306 0.0
H727 H 0.62541 0.85192 0.70915 0.0
H728 H 0.60296 0.97018 0.67924 0.0
H729 H 0.67889 0.93861 0.74012 0.0
H730 H 0.54606 0.93265 0.72145 0.0
H731 H 0.55646 0.90477 0.68968 0.0
H732 H 0.55594 0.94468 0.6781 0.0
H733 H 0.64004 0.89428 0.79741 0.0
H734 H 0.67629 0.895 0.77528 0.0
H735 H 0.64772 0.86705 0.76399 0.0
C736 C 0.55101 0.66828 0.24672 0.0
C737 C 0.53612 0.65773 0.21679 0.0
C738 C 0.57258 0.64996 0.26397 0.0
C739 C 0.57951 0.62061 0.25072 0.0
C740 C 0.56564 0.61056 0.21953 0.0
C741 C 0.54403 0.62918 0.20305 0.0
C742 C 0.58687 0.66142 0.29718 0.0
C743 C 0.57271 0.57959 0.20425 0.0
C744 C 0.64958 0.57547 0.27747 0.0
C745 C 0.63676 0.55325 0.29933 0.0
C746 C 0.63149 0.59853 0.26271 0.0
C747 C 0.59989 0.59948 0.27018 0.0
C748 C 0.58718 0.57818 0.2938 0.0
C749 C 0.60576 0.55524 0.30801 0.0
C750 C 0.64589 0.62078 0.23763 0.0
C751 C 0.55362 0.57864 0.30272 0.0
H752 H 0.54486 0.69028 0.25754 0.0
H753 H 0.53272 0.62098 0.17981 0.0
H754 H 0.57862 0.64749 0.31936 0.0
H755 H 0.61204 0.65891 0.29616 0.0
H756 H 0.58124 0.68573 0.30231 0.0
H757 H 0.56151 0.57605 0.17868 0.0
H758 H 0.59771 0.5768 0.20095 0.0
H759 H 0.56486 0.56143 0.22227 0.0
H760 H 0.67355 0.57414 0.27069 0.0
H761 H 0.59574 0.53827 0.32504 0.0
H762 H 0.63922 0.64453 0.24412 0.0
H763 H 0.63753 0.61603 0.21096 0.0
H764 H 0.67119 0.6192 0.2376 0.0
H765 H 0.5465 0.60195 0.31052 0.0
H766 H 0.54793 0.56253 0.32405 0.0
H767 H 0.54006 0.57228 0.27947 0.0
C768 C 0.94393 0.62547 0.80768 0.0
C769 C 0.94732 0.65469 0.79333 0.0
C770 C 0.92196 0.60511 0.79485 0.0
C771 C 0.90297 0.61415 0.7669 0.0
C772 C 0.90501 0.64426 0.75373 0.0
C773 C 0.92719 0.66421 0.76713 0.0
C774 C 0.92038 0.57326 0.80979 0.0
C775 C 0.88509 0.6548 0.72407 0.0
C776 C 0.88079 0.54892 0.70761 0.0
C777 C 0.85129 0.54186 0.71921 0.0
C778 C 0.89727 0.57321 0.722 0.0
C779 C 0.884 0.59089 0.7488 0.0
C780 C 0.8537 0.5848 0.7596 0.0
C781 C 0.83762 0.56031 0.7446 0.0
C782 C 0.92943 0.57908 0.70948 0.0
C783 C 0.83878 0.60324 0.78802 0.0
H784 H 0.95922 0.61804 0.82815 0.0
H785 H 0.92956 0.68683 0.75602 0.0
H786 H 0.89642 0.56707 0.81587 0.0
H787 H 0.92887 0.55663 0.79032 0.0
H788 H 0.93428 0.57089 0.83378 0.0
H789 H 0.8864 0.6799 0.72015 0.0
H790 H 0.89247 0.6434 0.69974 0.0
H791 H 0.86094 0.64836 0.72868 0.0
H792 H 0.89141 0.53492 0.68778 0.0
H793 H 0.81483 0.55494 0.75367 0.0
H794 H 0.94582 0.57452 0.73084 0.0
H795 H 0.93212 0.60337 0.70188 0.0
H796 H 0.93566 0.56452 0.68694 0.0
H797 H 0.8502 0.59836 0.81314 0.0
H798 H 0.8141 0.59792 0.7907 0.0
H799 H 0.84141 0.62803 0.78288 0.0
C800 C 0.89237 0.95385 0.29954 0.0
C801 C 0.86211 0.95589 0.28797 0.0
C802 C 0.91218 0.93153 0.28633 0.0
C803 C 0.90153 0.91093 0.26071 0.0
C804 C 0.87072 0.91224 0.24972 0.0
C805 C 0.85132 0.93466 0.2636 0.0
C806 C 0.9448 0.93066 0.29899 0.0
C807 C 0.85858 0.89075 0.22235 0.0
C808 C 0.9631 0.87987 0.20122 0.0
C809 C 0.96875 0.8511 0.21581 0.0
C810 C 0.94047 0.89909 0.21483 0.0
C811 C 0.92325 0.8894 0.24393 0.0
C812 C 0.9281 0.85995 0.25804 0.0
C813 C 0.95074 0.84106 0.24369 0.0
C814 C 0.93574 0.93021 0.19878 0.0
C815 C 0.91025 0.84888 0.28914 0.0
H816 H 0.9008 0.97008 0.31851 0.0
H817 H 0.82795 0.93613 0.25452 0.0
H818 H 0.95079 0.9073 0.30779 0.0
H819 H 0.96044 0.93656 0.27734 0.0
H820 H 0.9489 0.94684 0.32072 0.0
H821 H 0.83357 0.89325 0.21851 0.0
H822 H 0.87017 0.8953 0.19724 0.0
H823 H 0.86358 0.86674 0.22952 0.0
H824 H 0.97682 0.88769 0.17954 0.0
H825 H 0.95504 0.81886 0.25514 0.0
H826 H 0.94218 0.94818 0.21772 0.0
H827 H 0.9113 0.93361 0.19228 0.0
H828 H 0.94951 0.93344 0.17482 0.0
H829 H 0.91606 0.86301 0.31213 0.0
H830 H 0.91513 0.8246 0.29536 0.0
H831 H 0.8854 0.85146 0.28449 0.0
C832 C 0.62708 0.27538 0.2126 0.0
C833 C 0.59712 0.27301 0.20053 0.0
C834 C 0.63789 0.30226 0.22785 0.0
C835 C 0.61823 0.3279 0.23095 0.0
C836 C 0.5881 0.32597 0.21736 0.0
C837 C 0.5777 0.29827 0.20313 0.0
C838 C 0.67058 0.30218 0.24006 0.0
C839 C 0.5666 0.35291 0.21664 0.0
C840 C 0.63122 0.38999 0.29888 0.0
C841 C 0.65358 0.40788 0.28286 0.0
C842 C 0.6197 0.36368 0.28251 0.0
C843 C 0.62926 0.35636 0.24828 0.0
C844 C 0.65011 0.37588 0.23101 0.0
C845 C 0.66254 0.4009 0.24881 0.0
C846 C 0.5973 0.34382 0.30188 0.0
C847 C 0.65958 0.3704 0.19382 0.0
H848 H 0.64217 0.25591 0.21083 0.0
H849 H 0.55459 0.29668 0.19317 0.0
H850 H 0.68584 0.29776 0.21758 0.0
H851 H 0.67776 0.32373 0.2524 0.0
H852 H 0.67406 0.28307 0.25859 0.0
H853 H 0.54726 0.34854 0.23459 0.0
H854 H 0.57759 0.37482 0.22381 0.0
H855 H 0.55667 0.35537 0.19023 0.0
H856 H 0.62258 0.39671 0.32409 0.0
H857 H 0.67906 0.41538 0.2358 0.0
H858 H 0.60494 0.31965 0.30133 0.0
H859 H 0.57466 0.34493 0.28918 0.0
H860 H 0.59442 0.35115 0.32927 0.0
H861 H 0.67803 0.35307 0.19316 0.0
H862 H 0.66847 0.39155 0.18151 0.0
H863 H 0.64019 0.36175 0.17808 0.0
C864 C 0.21834 0.59187 0.75046 0.0
C865 C 0.21106 0.57532 0.7206 0.0
C866 C 0.19581 0.60789 0.76874 0.0
C867 C 0.16514 0.60693 0.75712 0.0
C868 C 0.15747 0.58845 0.72811 0.0
C869 C 0.1807 0.5733 0.70971 0.0
C870 C 0.20562 0.62784 0.79846 0.0
C871 C 0.12497 0.58591 0.71546 0.0
C872 C 0.10001 0.63695 0.81327 0.0
C873 C 0.09282 0.66415 0.79602 0.0
C874 C 0.12415 0.61837 0.80166 0.0
C875 C 0.1417 0.62763 0.77255 0.0
C876 C 0.13549 0.65608 0.75648 0.0
C877 C 0.11054 0.67353 0.76776 0.0
C878 C 0.12989 0.58822 0.81941 0.0
C879 C 0.15464 0.66772 0.7267 0.0
H880 H 0.24207 0.59389 0.75825 0.0
H881 H 0.17531 0.56069 0.68626 0.0
H882 H 0.20894 0.65136 0.78848 0.0
H883 H 0.18807 0.62838 0.81907 0.0
H884 H 0.22753 0.62004 0.80997 0.0
H885 H 0.12221 0.56751 0.69585 0.0
H886 H 0.10936 0.58133 0.73757 0.0
H887 H 0.11785 0.60783 0.70351 0.0
H888 H 0.08582 0.62951 0.83473 0.0
H889 H 0.1047 0.69452 0.75435 0.0
H890 H 0.15419 0.58632 0.82718 0.0
H891 H 0.1251 0.56931 0.80101 0.0
H892 H 0.11542 0.58518 0.84286 0.0
H893 H 0.17924 0.66643 0.73345 0.0
H894 H 0.14901 0.6917 0.71979 0.0
H895 H 0.15095 0.65319 0.70347 0.0
C896 C 0.87227 0.10767 0.29261 0.0
C897 C 0.84175 0.10089 0.28524 0.0
C898 C 0.88678 0.13277 0.27692 0.0
C899 C 0.86981 0.15235 0.25482 0.0
C900 C 0.83847 0.14626 0.24881 0.0
C901 C 0.82524 0.11979 0.26281 0.0
C902 C 0.92053 0.13748 0.28268 0.0
C903 C 0.81893 0.16758 0.22748 0.0
C904 C 0.90027 0.23219 0.23765 0.0
C905 C 0.90875 0.23026 0.20276 0.0
C906 C 0.88797 0.20697 0.255 0.0
C907 C 0.88483 0.1788 0.23733 0.0
C908 C 0.89477 0.17643 0.20233 0.0
C909 C 0.90595 0.20249 0.18511 0.0
C910 C 0.87668 0.2112 0.29154 0.0
C911 C 0.89338 0.14648 0.18302 0.0
H912 H 0.8852 0.09238 0.30917 0.0
H913 H 0.80182 0.11397 0.25651 0.0
H914 H 0.93264 0.13678 0.25736 0.0
H915 H 0.92484 0.16025 0.29422 0.0
H916 H 0.93052 0.11984 0.30005 0.0
H917 H 0.79437 0.16132 0.22852 0.0
H918 H 0.82155 0.19136 0.237 0.0
H919 H 0.82642 0.16717 0.19998 0.0
H920 H 0.90197 0.25396 0.25095 0.0
H921 H 0.91258 0.20119 0.15802 0.0
H922 H 0.88406 0.192 0.30823 0.0
H923 H 0.85142 0.21157 0.29106 0.0
H924 H 0.88482 0.23289 0.30329 0.0
H925 H 0.90344 0.12796 0.19904 0.0
H926 H 0.90566 0.14751 0.1578 0.0
H927 H 0.86926 0.1403 0.17787 0.0
C928 C 0.27617 0.90529 0.75023 0.0
C929 C 0.28312 0.92114 0.71976 0.0
C930 C 0.29877 0.88913 0.76821 0.0
C931 C 0.32916 0.88936 0.75567 0.0
C932 C 0.33656 0.90722 0.72608 0.0
C933 C 0.31323 0.92243 0.70796 0.0
C934 C 0.28928 0.86976 0.79861 0.0
C935 C 0.36883 0.90898 0.71251 0.0
C936 C 0.39527 0.85915 0.80985 0.0
C937 C 0.40165 0.83176 0.79262 0.0
C938 C 0.37096 0.87782 0.79902 0.0
C939 C 0.35248 0.86845 0.77074 0.0
C940 C 0.35782 0.83976 0.75485 0.0
C941 C 0.38294 0.82221 0.7653 0.0
C942 C 0.36612 0.90823 0.81655 0.0
C943 C 0.33764 0.82805 0.72598 0.0
H944 H 0.25259 0.90386 0.75873 0.0
H945 H 0.31834 0.93455 0.68409 0.0
H946 H 0.28518 0.84618 0.78921 0.0
H947 H 0.3073 0.86906 0.8187 0.0
H948 H 0.26783 0.87821 0.81064 0.0
H949 H 0.3715 0.92707 0.69251 0.0
H950 H 0.38499 0.91355 0.7341 0.0
H951 H 0.37528 0.88678 0.70075 0.0
H952 H 0.41025 0.86669 0.83057 0.0
H953 H 0.38818 0.80105 0.75192 0.0
H954 H 0.34197 0.91077 0.82467 0.0
H955 H 0.37114 0.92687 0.79786 0.0
H956 H 0.38095 0.9111 0.83973 0.0
H957 H 0.31326 0.82999 0.7335 0.0
H958 H 0.3426 0.80385 0.71945 0.0
H959 H 0.34106 0.8421 0.70232 0.0
C960 C 0.60294 0.23555 0.76336 0.0
C961 C 0.57897 0.23065 0.78656 0.0
C962 C 0.61699 0.21113 0.74636 0.0
C963 C 0.60674 0.18097 0.75252 0.0
C964 C 0.58162 0.17604 0.77515 0.0
C965 C 0.56794 0.20109 0.79201 0.0
C966 C 0.6433 0.21768 0.72249 0.0
C967 C 0.57018 0.14425 0.78277 0.0
C968 C 0.63094 0.11617 0.69233 0.0
C969 C 0.65565 0.10375 0.71056 0.0
C970 C 0.61523 0.14183 0.70513 0.0
C971 C 0.62384 0.15461 0.73751 0.0
C972 C 0.64886 0.14203 0.75594 0.0
C973 C 0.66439 0.11673 0.74225 0.0
C974 C 0.58909 0.15485 0.68437 0.0
C975 C 0.65888 0.15492 0.79049 0.0
H976 H 0.61124 0.25861 0.75923 0.0
H977 H 0.54951 0.19749 0.81036 0.0
H978 H 0.66375 0.20483 0.7311 0.0
H979 H 0.6372 0.20993 0.69606 0.0
H980 H 0.64914 0.24235 0.72133 0.0
H981 H 0.56519 0.13201 0.7582 0.0
H982 H 0.58816 0.13115 0.79656 0.0
H983 H 0.54926 0.14442 0.79907 0.0
H984 H 0.62341 0.10532 0.66853 0.0
H985 H 0.68319 0.10672 0.75662 0.0
H986 H 0.59315 0.17943 0.67913 0.0
H987 H 0.56763 0.15315 0.69954 0.0
H988 H 0.5859 0.14288 0.65919 0.0
H989 H 0.66501 0.17936 0.78758 0.0
H990 H 0.67884 0.14256 0.80143 0.0
H991 H 0.6398 0.15362 0.80939 0.0
C992 C 0.372 0.6626 0.2282 0.0
C993 C 0.39461 0.65263 0.20528 0.0
C994 C 0.34929 0.64254 0.2399 0.0
C995 C 0.35103 0.61116 0.23108 0.0
C996 C 0.37398 0.601 0.20787 0.0
C997 C 0.39514 0.6221 0.19457 0.0
C998 C 0.32375 0.65488 0.26218 0.0
C999 C 0.377 0.56772 0.1984 0.0
C1000 C 0.31286 0.56641 0.30287 0.0
C1001 C 0.28489 0.55905 0.28751 0.0
C1002 C 0.33598 0.58055 0.28343 0.0
C1003 C 0.33019 0.58908 0.2485 0.0
C1004 C 0.30264 0.57972 0.2324 0.0
C1005 C 0.28052 0.56438 0.25204 0.0
C1006 C 0.3659 0.58799 0.30095 0.0
C1007 C 0.29462 0.58803 0.19558 0.0
H1008 H 0.37196 0.68621 0.23668 0.0
H1009 H 0.41318 0.61443 0.17737 0.0
H1010 H 0.32694 0.64743 0.28947 0.0
H1011 H 0.32287 0.68023 0.26169 0.0
H1012 H 0.30143 0.64587 0.25313 0.0
H1013 H 0.39656 0.56345 0.18069 0.0
H1014 H 0.38013 0.55391 0.22233 0.0
H1015 H 0.35582 0.55963 0.18559 0.0
H1016 H 0.31618 0.56218 0.33037 0.0
H1017 H 0.25864 0.55904 0.24028 0.0
H1018 H 0.3664 0.61253 0.30799 0.0
H1019 H 0.38532 0.58357 0.28313 0.0
H1020 H 0.3692 0.57442 0.32505 0.0
H1021 H 0.27751 0.6067 0.19605 0.0
H1022 H 0.28389 0.56827 0.18224 0.0
H1023 H 0.31459 0.5955 0.1803 0.0
C1024 C 0.88774 0.3968 0.7243 0.0
C1025 C 0.85584 0.39653 0.72302 0.0
C1026 C 0.9038 0.37414 0.74261 0.0
C1027 C 0.88756 0.3495 0.75788 0.0
C1028 C 0.8552 0.34903 0.75585 0.0
C1029 C 0.83979 0.37347 0.74014 0.0
C1030 C 0.93804 0.37684 0.74563 0.0
C1031 C 0.83664 0.32279 0.77008 0.0
C1032 C 0.9306 0.27531 0.77301 0.0
C1033 C 0.92649 0.27097 0.80871 0.0
C1034 C 0.91924 0.30127 0.75623 0.0
C1035 C 0.90403 0.32412 0.7758 0.0
C1036 C 0.90249 0.32112 0.81253 0.0
C1037 C 0.9129 0.29415 0.8284 0.0
C1038 C 0.92311 0.30274 0.71738 0.0
C1039 C 0.88963 0.34586 0.83556 0.0
H1040 H 0.90006 0.41554 0.71236 0.0
H1041 H 0.81505 0.37421 0.74051 0.0
H1042 H 0.94633 0.36805 0.77098 0.0
H1043 H 0.94896 0.36334 0.72467 0.0
H1044 H 0.94563 0.40091 0.74271 0.0
H1045 H 0.81321 0.3224 0.75904 0.0
H1046 H 0.84782 0.30058 0.76444 0.0
H1047 H 0.83452 0.32512 0.79863 0.0
H1048 H 0.94124 0.25751 0.7576 0.0
H1049 H 0.91026 0.29118 0.85621 0.0
H1050 H 0.91232 0.32289 0.70544 0.0
H1051 H 0.91348 0.2818 0.70537 0.0
H1052 H 0.94783 0.30309 0.71102 0.0
H1053 H 0.88747 0.36819 0.82217 0.0
H1054 H 0.90446 0.34894 0.85871 0.0
H1055 H 0.86688 0.33876 0.8453 0.0
C1056 C 0.13108 0.83609 0.23823 0.0
C1057 C 0.11353 0.84544 0.20983 0.0
C1058 C 0.15536 0.85401 0.25035 0.0
C1059 C 0.16136 0.88264 0.23458 0.0
C1060 C 0.14409 0.89182 0.20523 0.0
C1061 C 0.12033 0.87301 0.19314 0.0
C1062 C 0.17394 0.8427 0.28079 0.0
C1063 C 0.14962 0.92213 0.18773 0.0
C1064 C 0.19948 0.93713 0.29793 0.0
C1065 C 0.23 0.93459 0.28785 0.0
C1066 C 0.17645 0.92211 0.27904 0.0
C1067 C 0.18451 0.9034 0.25036 0.0
C1068 C 0.21535 0.90203 0.23952 0.0
C1069 C 0.23766 0.91783 0.25828 0.0
C1070 C 0.14376 0.92486 0.29095 0.0
C1071 C 0.22534 0.88192 0.21002 0.0
H1072 H 0.12549 0.81484 0.25124 0.0
H1073 H 0.10621 0.88046 0.17161 0.0
H1074 H 0.19867 0.84411 0.27478 0.0
H1075 H 0.16964 0.85738 0.30376 0.0
H1076 H 0.16832 0.81874 0.28778 0.0
H1077 H 0.13661 0.92435 0.16308 0.0
H1078 H 0.14265 0.94083 0.20549 0.0
H1079 H 0.17424 0.92526 0.18207 0.0
H1080 H 0.1938 0.94985 0.3212 0.0
H1081 H 0.26149 0.9155 0.25113 0.0
H1082 H 0.14079 0.94328 0.31049 0.0
H1083 H 0.1363 0.90298 0.30272 0.0
H1084 H 0.12857 0.92954 0.26849 0.0
H1085 H 0.24916 0.8867 0.20172 0.0
H1086 H 0.21003 0.88494 0.18742 0.0
H1087 H 0.22403 0.85778 0.21861 0.0
C1088 C 0.32564 0.617 0.73568 0.0
C1089 C 0.33441 0.59717 0.70907 0.0
C1090 C 0.34476 0.64097 0.74615 0.0
C1091 C 0.3744 0.64349 0.73169 0.0
C1092 C 0.38327 0.62352 0.70454 0.0
C1093 C 0.36285 0.60089 0.69306 0.0
C1094 C 0.33342 0.66322 0.77317 0.0
C1095 C 0.41476 0.62514 0.68881 0.0
C1096 C 0.41702 0.71721 0.75055 0.0
C1097 C 0.42962 0.71071 0.78306 0.0
C1098 C 0.40016 0.69516 0.73249 0.0
C1099 C 0.39652 0.66563 0.74696 0.0
C1100 C 0.41156 0.65832 0.77855 0.0
C1101 C 0.42726 0.68126 0.79676 0.0
C1102 C 0.38416 0.70489 0.69974 0.0
C1103 C 0.40979 0.6267 0.79401 0.0
H1104 H 0.30369 0.61379 0.7482 0.0
H1105 H 0.36974 0.58501 0.67293 0.0
H1106 H 0.34561 0.65939 0.79804 0.0
H1107 H 0.33813 0.68702 0.76481 0.0
H1108 H 0.30852 0.66079 0.77793 0.0
H1109 H 0.41805 0.60803 0.66784 0.0
H1110 H 0.41892 0.64821 0.67793 0.0
H1111 H 0.43214 0.62118 0.70931 0.0
H1112 H 0.41832 0.74031 0.74044 0.0
H1113 H 0.43691 0.67645 0.82212 0.0
H1114 H 0.36247 0.71628 0.70697 0.0
H1115 H 0.37899 0.68534 0.68262 0.0
H1116 H 0.39813 0.72166 0.68503 0.0
H1117 H 0.38675 0.62291 0.80512 0.0
H1118 H 0.42689 0.62335 0.81499 0.0
H1119 H 0.41352 0.60915 0.77364 0.0
C1120 C 0.86548 0.34257 0.23843 0.0
C1121 C 0.88698 0.35549 0.21602 0.0
C1122 C 0.84188 0.36031 0.25254 0.0
C1123 C 0.84176 0.39231 0.247 0.0
C1124 C 0.86416 0.40562 0.22517 0.0
C1125 C 0.88602 0.38684 0.20911 0.0
C1126 C 0.81721 0.34478 0.27349 0.0
C1127 C 0.86594 0.43975 0.22014 0.0
C1128 C 0.76791 0.43424 0.26619 0.0
C1129 C 0.77048 0.43923 0.30195 0.0
C1130 C 0.79139 0.42008 0.24759 0.0
C1131 C 0.81861 0.41164 0.26493 0.0
C1132 C 0.82229 0.41913 0.30056 0.0
C1133 C 0.79774 0.432 0.31898 0.0
C1134 C 0.78549 0.4116 0.21032 0.0
C1135 C 0.85167 0.41245 0.31957 0.0
H1136 H 0.86699 0.31847 0.24464 0.0
H1137 H 0.90348 0.39689 0.19273 0.0
H1138 H 0.81909 0.35142 0.30119 0.0
H1139 H 0.79436 0.35212 0.2642 0.0
H1140 H 0.81863 0.3195 0.27175 0.0
H1141 H 0.88516 0.4465 0.20295 0.0
H1142 H 0.8444 0.4485 0.20877 0.0
H1143 H 0.8689 0.45106 0.24573 0.0
H1144 H 0.74646 0.43918 0.25325 0.0
H1145 H 0.79959 0.43581 0.34673 0.0
H1146 H 0.8064 0.41348 0.19437 0.0
H1147 H 0.76745 0.42609 0.19849 0.0
H1148 H 0.77758 0.38758 0.20956 0.0
H1149 H 0.8532 0.38769 0.32527 0.0
H1150 H 0.85309 0.42507 0.34455 0.0
H1151 H 0.87165 0.41865 0.30328 0.0
C1152 C 0.0697 0.81508 0.80161 0.0
C1153 C 0.06543 0.7862 0.78696 0.0
C1154 C 0.08438 0.83828 0.78281 0.0
C1155 C 0.09666 0.83172 0.74955 0.0
C1156 C 0.09062 0.80305 0.73399 0.0
C1157 C 0.07474 0.78071 0.7528 0.0
C1158 C 0.08789 0.8694 0.79917 0.0
C1159 C 0.10299 0.79496 0.69875 0.0
C1160 C 0.13002 0.89675 0.69567 0.0
C1161 C 0.15896 0.89952 0.7107 0.0
C1162 C 0.10938 0.87442 0.70732 0.0
C1163 C 0.11866 0.85347 0.73341 0.0
C1164 C 0.1489 0.8549 0.74652 0.0
C1165 C 0.16812 0.87883 0.73624 0.0
C1166 C 0.07767 0.87438 0.692 0.0
C1167 C 0.16085 0.83149 0.77193 0.0
H1168 H 0.0623 0.81922 0.82808 0.0
H1169 H 0.07167 0.75812 0.74177 0.0
H1170 H 0.11147 0.87214 0.80917 0.0
H1171 H 0.08386 0.88762 0.77963 0.0
H1172 H 0.07182 0.87268 0.82119 0.0
H1173 H 0.0931 0.77341 0.68851 0.0
H1174 H 0.09839 0.81353 0.67993 0.0
H1175 H 0.128 0.79206 0.7009 0.0
H1176 H 0.12287 0.91317 0.6762 0.0
H1177 H 0.19049 0.88127 0.74801 0.0
H1178 H 0.06124 0.86015 0.70674 0.0
H1179 H 0.07887 0.86575 0.66492 0.0
H1180 H 0.0687 0.89807 0.69069 0.0
H1181 H 0.15088 0.83559 0.79798 0.0
H1182 H 0.18611 0.83244 0.77428 0.0
H1183 H 0.15419 0.80813 0.76367 0.0
C1184 C 0.60392 0.11559 0.21203 0.0
C1185 C 0.6061 0.14727 0.21586 0.0
C1186 C 0.62444 0.09603 0.22917 0.0
C1187 C 0.64892 0.10867 0.24854 0.0
C1188 C 0.65168 0.14087 0.25123 0.0
C1189 C 0.62917 0.15963 0.23656 0.0
C1190 C 0.6196 0.06199 0.22675 0.0
C1191 C 0.67844 0.15573 0.26932 0.0
C1192 C 0.69712 0.07413 0.32025 0.0
C1193 C 0.72183 0.06251 0.30137 0.0
C1194 C 0.67154 0.08627 0.30311 0.0
C1195 C 0.67165 0.08868 0.26632 0.0
C1196 C 0.69566 0.07483 0.24727 0.0
C1197 C 0.72012 0.0615 0.26508 0.0
C1198 C 0.64504 0.09734 0.32478 0.0
C1199 C 0.6972 0.07494 0.20818 0.0
H1200 H 0.58522 0.10608 0.19707 0.0
H1201 H 0.63005 0.18414 0.24047 0.0
H1202 H 0.63487 0.05243 0.20652 0.0
H1203 H 0.62502 0.05059 0.25177 0.0
H1204 H 0.59572 0.05634 0.21944 0.0
H1205 H 0.68087 0.18013 0.26191 0.0
H1206 H 0.67515 0.15472 0.29782 0.0
H1207 H 0.70006 0.14372 0.263 0.0
H1208 H 0.69807 0.07439 0.3484 0.0
H1209 H 0.7391 0.05235 0.25026 0.0
H1210 H 0.6234 0.09793 0.30981 0.0
H1211 H 0.64996 0.12062 0.33461 0.0
H1212 H 0.64181 0.08238 0.3478 0.0
H1213 H 0.69682 0.05103 0.1986 0.0
H1214 H 0.71919 0.08505 0.19962 0.0
H1215 H 0.6783 0.08748 0.1958 0.0
C1216 C 0.37979 0.77627 0.21989 0.0
C1217 C 0.40745 0.77833 0.20208 0.0
C1218 C 0.36724 0.80163 0.23672 0.0
C1219 C 0.38308 0.82986 0.23633 0.0
C1220 C 0.41117 0.83207 0.21806 0.0
C1221 C 0.42328 0.80606 0.20153 0.0
C1222 C 0.33719 0.79738 0.25504 0.0
C1223 C 0.42772 0.86215 0.2147 0.0
C1224 C 0.33452 0.90029 0.25269 0.0
C1225 C 0.34388 0.90923 0.28601 0.0
C1226 C 0.34739 0.87487 0.23612 0.0
C1227 C 0.36971 0.8573 0.25364 0.0
C1228 C 0.3791 0.86604 0.28749 0.0
C1229 C 0.36678 0.89255 0.3028 0.0
C1230 C 0.33719 0.86697 0.19973 0.0
C1231 C 0.40192 0.84725 0.30759 0.0
H1232 H 0.36798 0.75457 0.22102 0.0
H1233 H 0.44463 0.80757 0.18739 0.0
H1234 H 0.32394 0.8188 0.25676 0.0
H1235 H 0.32289 0.78003 0.24165 0.0
H1236 H 0.34182 0.78875 0.28155 0.0
H1237 H 0.4489 0.86016 0.19901 0.0
H1238 H 0.41249 0.8792 0.20226 0.0
H1239 H 0.43379 0.87111 0.24073 0.0
H1240 H 0.31747 0.91372 0.23915 0.0
H1241 H 0.37525 0.90038 0.32769 0.0
H1242 H 0.32507 0.84473 0.19988 0.0
H1243 H 0.35731 0.86457 0.18241 0.0
H1244 H 0.32165 0.88448 0.18863 0.0
H1245 H 0.39308 0.82365 0.31077 0.0
H1246 H 0.40668 0.85699 0.33368 0.0
H1247 H 0.42372 0.84561 0.29311 0.0
C1248 C 0.73626 0.3807 0.7187 0.0
C1249 C 0.73501 0.40804 0.70014 0.0
C1250 C 0.71011 0.3681 0.73378 0.0
C1251 C 0.68182 0.38362 0.73095 0.0
C1252 C 0.68034 0.4112 0.71156 0.0
C1253 C 0.70716 0.42339 0.69684 0.0
C1254 C 0.71371 0.33838 0.753 0.0
C1255 C 0.65035 0.42728 0.70542 0.0
C1256 C 0.61163 0.33453 0.747 0.0
C1257 C 0.60146 0.34514 0.77936 0.0
C1258 C 0.6372 0.34735 0.73063 0.0
C1259 C 0.65379 0.37076 0.74755 0.0
C1260 C 0.64374 0.38147 0.7804 0.0
C1261 C 0.61703 0.36924 0.79534 0.0
C1262 C 0.6464 0.33585 0.69516 0.0
C1263 C 0.66139 0.40554 0.79996 0.0
H1264 H 0.75798 0.36929 0.72206 0.0
H1265 H 0.70629 0.44453 0.6822 0.0
H1266 H 0.69212 0.32545 0.75499 0.0
H1267 H 0.73088 0.32358 0.74004 0.0
H1268 H 0.72242 0.34338 0.7794 0.0
H1269 H 0.65264 0.44664 0.68696 0.0
H1270 H 0.63329 0.41094 0.69497 0.0
H1271 H 0.64123 0.43619 0.73028 0.0
H1272 H 0.59912 0.31644 0.73407 0.0
H1273 H 0.60822 0.37862 0.81937 0.0
H1274 H 0.66847 0.32354 0.69698 0.0
H1275 H 0.64966 0.35532 0.67706 0.0
H1276 H 0.62917 0.32007 0.68392 0.0
H1277 H 0.68505 0.3974 0.80455 0.0
H1278 H 0.65073 0.41117 0.82534 0.0
H1279 H 0.66303 0.42675 0.78438 0.0
C1280 C 0.14233 0.60945 0.30797 0.0
C1281 C 0.16697 0.59704 0.28964 0.0
C1282 C 0.12698 0.63546 0.29553 0.0
C1283 C 0.13626 0.64892 0.26373 0.0
C1284 C 0.16175 0.63683 0.24573 0.0
C1285 C 0.17656 0.61084 0.25874 0.0
C1286 C 0.10015 0.64777 0.31569 0.0
C1287 C 0.17283 0.65075 0.21213 0.0
C1288 C 0.08164 0.6939 0.20622 0.0
C1289 C 0.0911 0.72381 0.21286 0.0
C1290 C 0.09517 0.66924 0.22392 0.0
C1291 C 0.11884 0.67487 0.2483 0.0
C1292 C 0.12751 0.70533 0.2556 0.0
C1293 C 0.11343 0.7294 0.23792 0.0
C1294 C 0.08508 0.63715 0.21552 0.0
C1295 C 0.15255 0.71254 0.28098 0.0
H1296 H 0.1344 0.59816 0.33136 0.0
H1297 H 0.19541 0.60089 0.24441 0.0
H1298 H 0.10281 0.67265 0.32008 0.0
H1299 H 0.07892 0.64444 0.30043 0.0
H1300 H 0.09746 0.63631 0.34126 0.0
H1301 H 0.19399 0.63966 0.20244 0.0
H1302 H 0.15489 0.64855 0.19194 0.0
H1303 H 0.17737 0.67547 0.2157 0.0
H1304 H 0.06439 0.6898 0.18658 0.0
H1305 H 0.12057 0.75272 0.24286 0.0
H1306 H 0.0796 0.62458 0.23975 0.0
H1307 H 0.10395 0.62474 0.20248 0.0
H1308 H 0.06477 0.63677 0.19824 0.0
H1309 H 0.14693 0.70242 0.30654 0.0
H1310 H 0.15606 0.73748 0.28442 0.0
H1311 H 0.17421 0.70229 0.27172 0.0
C1312 C 0.89611 0.1151 0.79326 0.0
C1313 C 0.89882 0.14658 0.78792 0.0
C1314 C 0.87314 0.09821 0.77646 0.0
C1315 C 0.8514 0.11356 0.75549 0.0
C1316 C 0.8534 0.14567 0.75143 0.0
C1317 C 0.87801 0.16151 0.76626 0.0
C1318 C 0.87288 0.06389 0.78001 0.0
C1319 C 0.82956 0.16334 0.73146 0.0
C1320 C 0.80431 0.07749 0.68326 0.0
C1321 C 0.77707 0.07089 0.70071 0.0
C1322 C 0.8296 0.08927 0.70139 0.0
C1323 C 0.82682 0.09623 0.73727 0.0
C1324 C 0.79949 0.08871 0.75492 0.0
C1325 C 0.77519 0.07571 0.73655 0.0
C1326 C 0.85897 0.09498 0.68197 0.0
C1327 C 0.79455 0.09672 0.79248 0.0
H1328 H 0.91297 0.10347 0.80909 0.0
H1329 H 0.88084 0.18571 0.76127 0.0
H1330 H 0.8513 0.05622 0.79224 0.0
H1331 H 0.87403 0.05323 0.75388 0.0
H1332 H 0.89227 0.05536 0.79587 0.0
H1333 H 0.83266 0.18841 0.73402 0.0
H1334 H 0.83063 0.15733 0.70352 0.0
H1335 H 0.8064 0.15726 0.74093 0.0
H1336 H 0.80569 0.07372 0.65546 0.0
H1337 H 0.75384 0.07123 0.74989 0.0
H1338 H 0.87881 0.08703 0.69747 0.0
H1339 H 0.86187 0.11981 0.67746 0.0
H1340 H 0.85925 0.08327 0.65637 0.0
H1341 H 0.81552 0.09322 0.80799 0.0
H1342 H 0.77581 0.08313 0.80426 0.0
H1343 H 0.78818 0.12116 0.79398 0.0
C1344 C 0.49458 0.22221 0.07078 0.0
C1345 C 0.52393 0.23036 0.08202 0.0
C1346 C 0.48375 0.23172 0.03804 0.0
C1347 C 0.5028 0.24968 0.01638 0.0
C1348 C 0.53137 0.25995 0.02905 0.0
C1349 C 0.54152 0.25013 0.0616 0.0
C1350 C 0.45291 0.22082 0.02586 0.0
C1351 C 0.55239 0.27951 0.0072 0.0
C1352 C 0.51328 0.2434 0.9203 0.0
C1353 C 0.50509 0.27285 0.90984 0.0
C1354 C 0.50858 0.23373 0.95455 0.0
C1355 C 0.4958 0.25433 0.9789 0.0
C1356 C 0.48378 0.28257 0.9672 0.0
C1357 C 0.48871 0.29163 0.93258 0.0
C1358 C 0.52125 0.20318 0.96561 0.0
C1359 C 0.46917 0.30476 0.99208 0.0
H1360 H 0.48084 0.20702 0.08659 0.0
H1361 H 0.56398 0.257 0.07054 0.0
H1362 H 0.44148 0.23823 0.00945 0.0
H1363 H 0.45584 0.19989 0.00998 0.0
H1364 H 0.43784 0.21512 0.04815 0.0
H1365 H 0.57273 0.28738 0.02194 0.0
H1366 H 0.56038 0.26627 0.98437 0.0
H1367 H 0.54009 0.29986 0.99733 0.0
H1368 H 0.526 0.22897 0.90254 0.0
H1369 H 0.48258 0.31453 0.92446 0.0
H1370 H 0.50532 0.19145 0.98357 0.0
H1371 H 0.54311 0.20672 0.97963 0.0
H1372 H 0.52567 0.18804 0.943 0.0
H1373 H 0.45558 0.29261 0.01209 0.0
H1374 H 0.45419 0.3212 0.9782 0.0
H1375 H 0.48726 0.31792 0.0056 0.0
C1376 C 0.258 0.50363 0.43382 0.0
C1377 C 0.23231 0.49359 0.41549 0.0
C1378 C 0.2621 0.49609 0.4688 0.0
C1379 C 0.23991 0.47787 0.48577 0.0
C1380 C 0.21644 0.46396 0.46595 0.0
C1381 C 0.21269 0.47223 0.43083 0.0
C1382 C 0.28787 0.51114 0.48852 0.0
C1383 C 0.19339 0.443 0.48254 0.0
C1384 C 0.26193 0.47416 0.58055 0.0
C1385 C 0.24857 0.50139 0.59219 0.0
C1386 C 0.25623 0.46342 0.54665 0.0
C1387 C 0.23723 0.48066 0.5242 0.0
C1388 C 0.22075 0.50587 0.53763 0.0
C1389 C 0.22655 0.51577 0.57151 0.0
C1390 C 0.27286 0.43542 0.53404 0.0
C1391 C 0.19984 0.52484 0.51501 0.0
H1392 H 0.2734 0.51982 0.42165 0.0
H1393 H 0.19288 0.46427 0.41657 0.0
H1394 H 0.27849 0.52908 0.50587 0.0
H1395 H 0.2999 0.49426 0.50502 0.0
H1396 H 0.30479 0.52194 0.47088 0.0
H1397 H 0.18421 0.42647 0.46329 0.0
H1398 H 0.20347 0.43023 0.50465 0.0
H1399 H 0.17396 0.45667 0.49251 0.0
H1400 H 0.27873 0.46272 0.59663 0.0
H1401 H 0.21566 0.53644 0.58084 0.0
H1402 H 0.2954 0.44219 0.52344 0.0
H1403 H 0.25995 0.42358 0.5132 0.0
H1404 H 0.27694 0.4192 0.55574 0.0
H1405 H 0.21352 0.53717 0.49519 0.0
H1406 H 0.18678 0.54196 0.53026 0.0
H1407 H 0.18338 0.51005 0.50107 0.0
C1408 C 0.00462 0.26942 0.08155 0.0
C1409 C 0.97764 0.28667 0.08043 0.0
C1410 C 0.01587 0.25508 0.05135 0.0
C1411 C 0.99943 0.25778 0.01976 0.0
C1412 C 0.97398 0.27766 0.01802 0.0
C1413 C 0.96364 0.29198 0.04822 0.0
C1414 C 0.044 0.23541 0.05409 0.0
C1415 C 0.95568 0.28162 0.98498 0.0
C1416 C 0.01204 0.23089 0.92802 0.0
C1417 C 0.99118 0.20663 0.92726 0.0
C1418 C 0.01892 0.24563 0.9596 0.0
C1419 C 0.00419 0.23602 0.99052 0.0
C1420 C 0.98678 0.20879 0.99031 0.0
C1421 C 0.98053 0.19444 0.95865 0.0
C1422 C 0.03924 0.27339 0.95919 0.0
C1423 C 0.97117 0.1971 0.02268 0.0
H1424 H 0.01591 0.2656 0.10623 0.0
H1425 H 0.9433 0.30602 0.04689 0.0
H1426 H 0.03737 0.2122 0.06282 0.0
H1427 H 0.05598 0.23336 0.0288 0.0
H1428 H 0.06008 0.24484 0.07366 0.0
H1429 H 0.93759 0.29924 0.98761 0.0
H1430 H 0.97081 0.28825 0.96319 0.0
H1431 H 0.94463 0.25966 0.97795 0.0
H1432 H 0.02068 0.24015 0.90382 0.0
H1433 H 0.96497 0.17521 0.95818 0.0
H1434 H 0.05213 0.27552 0.9839 0.0
H1435 H 0.02504 0.29419 0.95607 0.0
H1436 H 0.05561 0.2725 0.93718 0.0
H1437 H 0.98739 0.19642 0.04475 0.0
H1438 H 0.96152 0.17387 0.01896 0.0
H1439 H 0.95227 0.21277 0.02984 0.0
C1440 C 0.24521 0.99188 0.43332 0.0
C1441 C 0.27099 0.0044 0.41727 0.0
C1442 C 0.23825 0.99858 0.46793 0.0
C1443 C 0.25767 0.01833 0.48694 0.0
C1444 C 0.28122 0.0343 0.46938 0.0
C1445 C 0.28779 0.02699 0.43454 0.0
C1446 C 0.21253 0.98132 0.48522 0.0
C1447 C 0.30153 0.05658 0.48824 0.0
C1448 C 0.22947 0.02117 0.57974 0.0
C1449 C 0.2438 0.995 0.59287 0.0
C1450 C 0.23636 0.03181 0.54608 0.0
C1451 C 0.25775 0.01562 0.52548 0.0
C1452 C 0.27482 0.99153 0.54054 0.0
C1453 C 0.26757 0.98155 0.57402 0.0
C1454 C 0.21863 0.05841 0.5316 0.0
C1455 C 0.29825 0.97379 0.51993 0.0
H1456 H 0.232 0.9747 0.41968 0.0
H1457 H 0.30769 0.03682 0.42206 0.0
H1458 H 0.22215 0.96366 0.50278 0.0
H1459 H 0.19839 0.99691 0.50119 0.0
H1460 H 0.19749 0.9698 0.46602 0.0
H1461 H 0.31135 0.07362 0.47 0.0
H1462 H 0.28889 0.06873 0.50905 0.0
H1463 H 0.32073 0.04403 0.50047 0.0
H1464 H 0.21118 0.03174 0.59441 0.0
H1465 H 0.27901 0.96161 0.58453 0.0
H1466 H 0.19784 0.04983 0.51836 0.0
H1467 H 0.23231 0.0714 0.51234 0.0
H1468 H 0.21126 0.07412 0.55264 0.0
H1469 H 0.2866 0.96019 0.49953 0.0
H1470 H 0.31161 0.95792 0.53654 0.0
H1471 H 0.31435 0.98952 0.50678 0.0
C1472 C 0.52468 0.7757 0.92548 0.0
C1473 C 0.5061 0.7551 0.9074 0.0
C1474 C 0.53104 0.77107 0.96093 0.0
C1475 C 0.51804 0.74563 0.9782 0.0
C1476 C 0.50356 0.72249 0.95847 0.0
C1477 C 0.49771 0.7276 0.92321 0.0
C1478 C 0.54817 0.79534 0.98066 0.0
C1479 C 0.48998 0.69454 0.97548 0.0
C1480 C 0.51631 0.72491 0.07385 0.0
C1481 C 0.48734 0.73605 0.0828 0.0
C1482 C 0.52858 0.73046 0.04062 0.0
C1483 C 0.51125 0.7472 0.01604 0.0
C1484 C 0.48353 0.76117 0.02648 0.0
C1485 C 0.47205 0.75548 0.05973 0.0
C1486 C 0.55882 0.71629 0.03118 0.0
C1487 C 0.46432 0.77969 0.0015 0.0
H1488 H 0.53123 0.797 0.9132 0.0
H1489 H 0.48349 0.71162 0.90899 0.0
H1490 H 0.53171 0.81207 0.99149 0.0
H1491 H 0.56119 0.78531 0.00262 0.0
H1492 H 0.56415 0.80787 0.96336 0.0
H1493 H 0.48342 0.67693 0.95611 0.0
H1494 H 0.50636 0.68429 0.99407 0.0
H1495 H 0.46925 0.70118 0.99026 0.0
H1496 H 0.52837 0.71007 0.09173 0.0
H1497 H 0.44995 0.76469 0.06689 0.0
H1498 H 0.57065 0.72937 0.01049 0.0
H1499 H 0.55497 0.69271 0.02163 0.0
H1500 H 0.57395 0.71484 0.05429 0.0
H1501 H 0.47822 0.79789 0.98926 0.0
H1502 H 0.44443 0.79054 0.01445 0.0
H1503 H 0.45566 0.76471 0.98043 0.0
C1504 C 0.79307 0.47147 0.5516 0.0
C1505 C 0.78691 0.48495 0.58387 0.0
C1506 C 0.77841 0.48134 0.52139 0.0
C1507 C 0.75707 0.50557 0.5233 0.0
C1508 C 0.7531 0.52141 0.5551 0.0
C1509 C 0.76803 0.5108 0.58522 0.0
C1510 C 0.78379 0.46382 0.48809 0.0
C1511 C 0.73153 0.54809 0.55806 0.0
C1512 C 0.73014 0.5193 0.43169 0.0
C1513 C 0.70723 0.49703 0.42977 0.0
C1514 C 0.74433 0.52589 0.46367 0.0
C1515 C 0.73545 0.50956 0.49382 0.0
C1516 C 0.70946 0.49039 0.49255 0.0
C1517 C 0.69572 0.48436 0.46051 0.0
C1518 C 0.7709 0.54774 0.46437 0.0
C1519 C 0.69863 0.47295 0.52409 0.0
H1520 H 0.80828 0.45198 0.55017 0.0
H1521 H 0.76348 0.52162 0.61001 0.0
H1522 H 0.76276 0.45119 0.48087 0.0
H1523 H 0.7892 0.4797 0.46652 0.0
H1524 H 0.80276 0.44712 0.49048 0.0
H1525 H 0.73894 0.56399 0.5789 0.0
H1526 H 0.72979 0.56088 0.53325 0.0
H1527 H 0.70845 0.5396 0.56493 0.0
H1528 H 0.73887 0.52942 0.40799 0.0
H1529 H 0.67753 0.46762 0.45914 0.0
H1530 H 0.79249 0.53478 0.46129 0.0
H1531 H 0.77197 0.56015 0.48947 0.0
H1532 H 0.76941 0.56456 0.44283 0.0
H1533 H 0.71526 0.45462 0.53029 0.0
H1534 H 0.67594 0.46225 0.51983 0.0
H1535 H 0.69713 0.48821 0.54698 0.0
C1536 C 0.98643 0.77909 0.07964 0.0
C1537 C 0.01499 0.76693 0.08857 0.0
C1538 C 0.97357 0.77327 0.04674 0.0
C1539 C 0.98991 0.7552 0.02251 0.0
C1540 C 0.01714 0.74036 0.03303 0.0
C1541 C 0.02921 0.74636 0.06592 0.0
C1542 C 0.94385 0.78847 0.03723 0.0
C1543 C 0.0353 0.72046 0.00842 0.0
C1544 C 0.97437 0.72494 0.93316 0.0
C1545 C 0.99354 0.74432 0.91416 0.0
C1546 C 0.96856 0.73075 0.9685 0.0
C1547 C 0.98276 0.75608 0.98472 0.0
C1548 C 0.998 0.77807 0.96404 0.0
C1549 C 0.00327 0.77182 0.92892 0.0
C1550 C 0.95064 0.70775 0.98928 0.0
C1551 C 0.01289 0.80586 0.97992 0.0
H1552 H 0.97518 0.79481 0.09722 0.0
H1553 H 0.05096 0.73635 0.07312 0.0
H1554 H 0.94857 0.81163 0.02688 0.0
H1555 H 0.93126 0.7754 0.01712 0.0
H1556 H 0.92905 0.79111 0.06047 0.0
H1557 H 0.05485 0.70909 0.02147 0.0
H1558 H 0.02054 0.70257 0.99692 0.0
H1559 H 0.04437 0.73455 0.98678 0.0
H1560 H 0.96677 0.70366 0.92166 0.0
H1561 H 0.01793 0.78686 0.91396 0.0
H1562 H 0.93821 0.71891 0.01095 0.0
H1563 H 0.96652 0.6907 0.00059 0.0
H1564 H 0.93405 0.69538 0.9726 0.0
H1565 H 0.99714 0.81726 0.99833 0.0
H1566 H 0.01997 0.82268 0.95987 0.0
H1567 H 0.03348 0.79876 0.99468 0.0
C1568 C 0.70703 0.01774 0.54444 0.0
C1569 C 0.71563 0.00536 0.57654 0.0
C1570 C 0.72043 0.00786 0.51353 0.0
C1571 C 0.74289 0.98459 0.5146 0.0
C1572 C 0.74855 0.96909 0.54631 0.0
C1573 C 0.73499 0.97986 0.57719 0.0
C1574 C 0.71308 0.02495 0.48042 0.0
C1575 C 0.77079 0.94291 0.54838 0.0
C1576 C 0.76941 0.97662 0.42212 0.0
C1577 C 0.79105 0.00018 0.42144 0.0
C1578 C 0.75623 0.96738 0.45383 0.0
C1579 C 0.76459 0.98259 0.48492 0.0
C1580 C 0.78964 0.00302 0.48461 0.0
C1581 C 0.80258 0.01146 0.45285 0.0
C1582 C 0.73122 0.94376 0.45346 0.0
C1583 C 0.8001 0.01929 0.51712 0.0
H1584 H 0.69137 0.03689 0.54371 0.0
H1585 H 0.74132 0.96979 0.60189 0.0
H1586 H 0.73333 0.03824 0.47194 0.0
H1587 H 0.70725 0.00876 0.45933 0.0
H1588 H 0.69368 0.04103 0.48372 0.0
H1589 H 0.76323 0.92602 0.56812 0.0
H1590 H 0.77342 0.9312 0.52299 0.0
H1591 H 0.79344 0.9516 0.55662 0.0
H1592 H 0.76079 0.96739 0.39789 0.0
H1593 H 0.81995 0.02907 0.45243 0.0
H1594 H 0.70894 0.95512 0.44899 0.0
H1595 H 0.73001 0.93131 0.47854 0.0
H1596 H 0.73481 0.92708 0.4321 0.0
H1597 H 0.78221 0.03561 0.52564 0.0
H1598 H 0.82162 0.03221 0.51295 0.0
H1599 H 0.80378 0.00274 0.53847 0.0
loop_
_geom_bond_atom_site_label_1
_geom_bond_atom_site_label_2
_geom_bond_distance
_geom_bond_site_symmetry_2
_ccdc_geom_bond_type
Mn0 O5 2.095 . S
Mn0 O15 2.162 . S
Mn0 O16 2.297 . S
Mn0 O24 2.385 . S
Mn0 O25 2.209 . S
Mn0 O26 2.094 . S
Mn1 O6 2.121 . S
Mn1 N8 2.257 . S
Mn1 N17 2.282 . S
Mn1 O25 2.215 . S
Mn1 O27 2.117 . S
C2 O24 1.234 . S
C2 O25 1.283 . S
C3 O15 1.281 . S
C3 O16 1.236 . S
C4 O26 1.240 . S
C4 O27 1.264 . S
O5 Mn0 2.095 . S
O5 C14 1.250 . S
O6 Mn1 2.121 . S
O6 C14 1.258 . S
C7 N8 1.326 . S
C7 C11 1.460 . S
C7 H13 0.929 . S
N8 Mn1 2.257 . S
N8 C7 1.326 . S
N8 C12 1.362 . S
C9 C10 1.258 . S
C9 C12 1.431 . S
C9 C29 1.449 . S
C10 C9 1.258 . S
C10 C11 1.477 . S
C10 H30 0.931 . S
C11 C7 1.460 . S
C11 C10 1.477 . S
C11 H31 0.930 . S
C12 N8 1.362 . S
C12 C9 1.431 . S
C12 C22 1.476 . S
H13 C7 0.929 . S
C14 O5 1.250 . S
C14 O6 1.258 . S
O15 Mn0 2.162 . S
O15 C3 1.281 . S
O16 Mn0 2.297 . S
O16 C3 1.236 . S
N17 Mn1 2.282 . S
N17 C18 1.328 . S
N17 C22 1.318 . S
C18 N17 1.328 . S
C18 C19 1.457 . S
C18 H23 0.929 . S
C19 C18 1.457 . S
C19 C20 1.291 . S
C19 H32 0.931 . S
C20 C19 1.291 . S
C20 C21 1.373 . S
C20 H33 0.929 . S
C21 C20 1.373 . S
C21 C22 1.396 . S
C21 C28 1.403 . S
C22 C12 1.476 . S
C22 N17 1.318 . S
C22 C21 1.396 . S
H23 C18 0.929 . S
O24 Mn0 2.385 . S
O24 C2 1.234 . S
O25 Mn0 2.209 . S
O25 Mn1 2.215 . S
O25 C2 1.283 . S
O26 Mn0 2.094 . S
O26 C4 1.240 . S
O27 Mn1 2.117 . S
O27 C4 1.264 . S
C28 C21 1.403 . S
C28 C29 1.399 . S
C28 H34 0.929 . S
C29 C9 1.449 . S
C29 C28 1.399 . S
C29 H35 0.930 . S
H30 C10 0.931 . S
H31 C11 0.930 . S
H32 C19 0.931 . S
H33 C20 0.929 . S
H34 C28 0.929 . S
H35 C29 0.930 . S
Mn36 O41 2.095 . S
Mn36 O51 2.162 . S
Mn36 O52 2.297 . S
Mn36 O60 2.385 . S
Mn36 O61 2.209 . S
Mn36 O62 2.094 . S
Mn37 O42 2.121 . S
Mn37 N44 2.257 . S
Mn37 N53 2.282 . S
Mn37 O61 2.215 . S
Mn37 O63 2.117 . S
C38 O60 1.234 . S
C38 O61 1.283 . S
C39 O51 1.281 . S
C39 O52 1.236 . S
C40 O62 1.240 . S
C40 O63 1.264 . S
O41 Mn36 2.095 . S
O41 C50 1.250 . S
O42 Mn37 2.121 . S
O42 C50 1.258 . S
C43 N44 1.326 . S
C43 C47 1.460 . S
C43 H49 0.929 . S
N44 Mn37 2.257 . S
N44 C43 1.326 . S
N44 C48 1.362 . S
C45 C46 1.258 . S
C45 C48 1.431 . S
C45 C65 1.449 . S
C46 C45 1.258 . S
C46 C47 1.477 . S
C46 H66 0.931 . S
C47 C43 1.460 . S
C47 C46 1.477 . S
C47 H67 0.930 . S
C48 N44 1.362 . S
C48 C45 1.431 . S
C48 C58 1.476 . S
H49 C43 0.929 . S
C50 O41 1.250 . S
C50 O42 1.258 . S
O51 Mn36 2.162 . S
O51 C39 1.281 . S
O52 Mn36 2.297 . S
O52 C39 1.236 . S
N53 Mn37 2.282 . S
N53 C54 1.328 . S
N53 C58 1.318 . S
C54 N53 1.328 . S
C54 C55 1.457 . S
C54 H59 0.929 . S
C55 C54 1.457 . S
C55 C56 1.291 . S
C55 H68 0.931 . S
C56 C55 1.291 . S
C56 C57 1.373 . S
C56 H69 0.929 . S
C57 C56 1.373 . S
C57 C58 1.396 . S
C57 C64 1.403 . S
C58 C48 1.476 . S
C58 N53 1.318 . S
C58 C57 1.396 . S
H59 C54 0.929 . S
O60 Mn36 2.385 . S
O60 C38 1.234 . S
O61 Mn36 2.209 . S
O61 Mn37 2.215 . S
O61 C38 1.283 . S
O62 Mn36 2.094 . S
O62 C40 1.240 . S
O63 Mn37 2.117 . S
O63 C40 1.264 . S
C64 C57 1.403 . S
C64 C65 1.399 . S
C64 H70 0.929 . S
C65 C45 1.449 . S
C65 C64 1.399 . S
C65 H71 0.930 . S
H66 C46 0.931 . S
H67 C47 0.930 . S
H68 C55 0.931 . S
H69 C56 0.929 . S
H70 C64 0.929 . S
H71 C65 0.930 . S
Mn72 O77 2.095 . S
Mn72 O87 2.162 1_655 S
Mn72 O88 2.297 1_655 S
Mn72 O96 2.385 . S
Mn72 O97 2.209 . S
Mn72 O98 2.094 . S
Mn73 O78 2.121 . S
Mn73 N80 2.257 . S
Mn73 N89 2.282 . S
Mn73 O97 2.215 . S
Mn73 O99 2.117 . S
C74 O96 1.234 . S
C74 O97 1.283 . S
C75 O87 1.281 . S
C75 O88 1.236 . S
C76 O98 1.240 . S
C76 O99 1.264 . S
O77 Mn72 2.095 . S
O77 C86 1.250 . S
O78 Mn73 2.121 . S
O78 C86 1.258 . S
C79 N80 1.326 . S
C79 C83 1.460 . S
C79 H85 0.929 . S
N80 Mn73 2.257 . S
N80 C79 1.326 . S
N80 C84 1.362 . S
C81 C82 1.258 . S
C81 C84 1.431 . S
C81 C101 1.449 . S
C82 C81 1.258 . S
C82 C83 1.477 . S
C82 H102 0.931 . S
C83 C79 1.460 . S
C83 C82 1.477 . S
C83 H103 0.930 . S
C84 N80 1.362 . S
C84 C81 1.431 . S
C84 C94 1.476 . S
H85 C79 0.929 . S
C86 O77 1.250 . S
C86 O78 1.258 . S
O87 Mn72 2.162 1_455 S
O87 C75 1.281 . S
O88 Mn72 2.297 1_455 S
O88 C75 1.236 . S
N89 Mn73 2.282 . S
N89 C90 1.328 . S
N89 C94 1.318 . S
C90 N89 1.328 . S
C90 C91 1.457 . S
C90 H95 0.929 . S
C91 C90 1.457 . S
C91 C92 1.291 . S
C91 H104 0.931 . S
C92 C91 1.291 . S
C92 C93 1.373 . S
C92 H105 0.929 . S
C93 C92 1.373 . S
C93 C94 1.396 . S
C93 C100 1.403 . S
C94 C84 1.476 . S
C94 N89 1.318 . S
C94 C93 1.396 . S
H95 C90 0.929 . S
O96 Mn72 2.385 . S
O96 C74 1.234 . S
O97 Mn72 2.209 . S
O97 Mn73 2.215 . S
O97 C74 1.283 . S
O98 Mn72 2.094 . S
O98 C76 1.240 . S
O99 Mn73 2.117 . S
O99 C76 1.264 . S
C100 C93 1.403 . S
C100 C101 1.399 . S
C100 H106 0.929 . S
C101 C81 1.449 . S
C101 C100 1.399 . S
C101 H107 0.930 . S
H102 C82 0.931 . S
H103 C83 0.930 . S
H104 C91 0.931 . S
H105 C92 0.929 . S
H106 C100 0.929 . S
H107 C101 0.930 . S
Mn108 O113 2.095 . S
Mn108 O123 2.162 1_565 S
Mn108 O124 2.297 1_565 S
Mn108 O132 2.385 . S
Mn108 O133 2.209 . S
Mn108 O134 2.094 . S
Mn109 O114 2.121 . S
Mn109 N116 2.257 . S
Mn109 N125 2.282 . S
Mn109 O133 2.215 . S
Mn109 O135 2.117 . S
C110 O132 1.234 . S
C110 O133 1.283 . S
C111 O123 1.281 . S
C111 O124 1.236 . S
C112 O134 1.240 . S
C112 O135 1.264 . S
O113 Mn108 2.095 . S
O113 C122 1.250 . S
O114 Mn109 2.121 . S
O114 C122 1.258 . S
C115 N116 1.326 . S
C115 C119 1.460 . S
C115 H121 0.929 . S
N116 Mn109 2.257 . S
N116 C115 1.326 . S
N116 C120 1.362 . S
C117 C118 1.258 . S
C117 C120 1.431 . S
C117 C137 1.449 . S
C118 C117 1.258 . S
C118 C119 1.477 . S
C118 H138 0.931 . S
C119 C115 1.460 . S
C119 C118 1.477 . S
C119 H139 0.930 . S
C120 N116 1.362 . S
C120 C117 1.431 . S
C120 C130 1.476 . S
H121 C115 0.929 . S
C122 O113 1.250 . S
C122 O114 1.258 . S
O123 Mn108 2.162 1_545 S
O123 C111 1.281 . S
O124 Mn108 2.297 1_545 S
O124 C111 1.236 . S
N125 Mn109 2.282 . S
N125 C126 1.328 . S
N125 C130 1.318 . S
C126 N125 1.328 . S
C126 C127 1.457 . S
C126 H131 0.929 . S
C127 C126 1.457 . S
C127 C128 1.291 . S
C127 H140 0.931 . S
C128 C127 1.291 . S
C128 C129 1.373 . S
C128 H141 0.929 . S
C129 C128 1.373 . S
C129 C130 1.396 . S
C129 C136 1.403 . S
C130 C120 1.476 . S
C130 N125 1.318 . S
C130 C129 1.396 . S
H131 C126 0.929 . S
O132 Mn108 2.385 . S
O132 C110 1.234 . S
O133 Mn108 2.209 . S
O133 Mn109 2.215 . S
O133 C110 1.283 . S
O134 Mn108 2.094 . S
O134 C112 1.240 . S
O135 Mn109 2.117 . S
O135 C112 1.264 . S
C136 C129 1.403 . S
C136 C137 1.399 . S
C136 H142 0.929 . S
C137 C117 1.449 . S
C137 C136 1.399 . S
C137 H143 0.930 . S
H138 C118 0.931 . S
H139 C119 0.930 . S
H140 C127 0.931 . S
H141 C128 0.929 . S
H142 C136 0.929 . S
H143 C137 0.930 . S
Mn144 O149 2.095 . S
Mn144 O159 2.162 . S
Mn144 O160 2.297 . S
Mn144 O168 2.385 . S
Mn144 O169 2.209 . S
Mn144 O170 2.094 . S
Mn145 O150 2.121 . S
Mn145 N152 2.257 . S
Mn145 N161 2.282 . S
Mn145 O169 2.215 . S
Mn145 O171 2.117 . S
C146 O168 1.234 . S
C146 O169 1.283 . S
C147 O159 1.281 . S
C147 O160 1.236 . S
C148 O170 1.240 . S
C148 O171 1.264 . S
O149 Mn144 2.095 . S
O149 C158 1.250 . S
O150 Mn145 2.121 . S
O150 C158 1.258 . S
C151 N152 1.326 . S
C151 C155 1.460 . S
C151 H157 0.929 . S
N152 Mn145 2.257 . S
N152 C151 1.326 . S
N152 C156 1.362 . S
C153 C154 1.258 . S
C153 C156 1.431 . S
C153 C173 1.449 . S
C154 C153 1.258 . S
C154 C155 1.477 . S
C154 H174 0.931 . S
C155 C151 1.460 . S
C155 C154 1.477 . S
C155 H175 0.930 . S
C156 N152 1.362 . S
C156 C153 1.431 . S
C156 C166 1.476 . S
H157 C151 0.929 . S
C158 O149 1.250 . S
C158 O150 1.258 . S
O159 Mn144 2.162 . S
O159 C147 1.281 . S
O160 Mn144 2.297 . S
O160 C147 1.236 . S
N161 Mn145 2.282 . S
N161 C162 1.328 . S
N161 C166 1.318 . S
C162 N161 1.328 . S
C162 C163 1.457 . S
C162 H167 0.929 . S
C163 C162 1.457 . S
C163 C164 1.291 . S
C163 H176 0.931 . S
C164 C163 1.291 . S
C164 C165 1.373 . S
C164 H177 0.929 . S
C165 C164 1.373 . S
C165 C166 1.396 . S
C165 C172 1.403 . S
C166 C156 1.476 . S
C166 N161 1.318 . S
C166 C165 1.396 . S
H167 C162 0.929 . S
O168 Mn144 2.385 . S
O168 C146 1.234 . S
O169 Mn144 2.209 . S
O169 Mn145 2.215 . S
O169 C146 1.283 . S
O170 Mn144 2.094 . S
O170 C148 1.240 . S
O171 Mn145 2.117 . S
O171 C148 1.264 . S
C172 C165 1.403 . S
C172 C173 1.399 . S
C172 H178 0.929 . S
C173 C153 1.449 . S
C173 C172 1.399 . S
C173 H179 0.930 . S
H174 C154 0.931 . S
H175 C155 0.930 . S
H176 C163 0.931 . S
H177 C164 0.929 . S
H178 C172 0.929 . S
H179 C173 0.930 . S
Mn180 O185 2.095 . S
Mn180 O195 2.162 . S
Mn180 O196 2.297 . S
Mn180 O204 2.385 . S
Mn180 O205 2.209 . S
Mn180 O206 2.094 . S
Mn181 O186 2.121 . S
Mn181 N188 2.257 . S
Mn181 N197 2.282 . S
Mn181 O205 2.215 . S
Mn181 O207 2.117 . S
C182 O204 1.234 . S
C182 O205 1.283 . S
C183 O195 1.281 . S
C183 O196 1.236 . S
C184 O206 1.240 . S
C184 O207 1.264 . S
O185 Mn180 2.095 . S
O185 C194 1.250 . S
O186 Mn181 2.121 . S
O186 C194 1.258 . S
C187 N188 1.326 . S
C187 C191 1.460 . S
C187 H193 0.929 . S
N188 Mn181 2.257 . S
N188 C187 1.326 . S
N188 C192 1.362 . S
C189 C190 1.258 . S
C189 C192 1.431 . S
C189 C209 1.449 . S
C190 C189 1.258 . S
C190 C191 1.477 . S
C190 H210 0.931 . S
C191 C187 1.460 . S
C191 C190 1.477 . S
C191 H211 0.930 . S
C192 N188 1.362 . S
C192 C189 1.431 . S
C192 C202 1.476 . S
H193 C187 0.929 . S
C194 O185 1.250 . S
C194 O186 1.258 . S
O195 Mn180 2.162 . S
O195 C183 1.281 . S
O196 Mn180 2.297 . S
O196 C183 1.236 . S
N197 Mn181 2.282 . S
N197 C198 1.328 . S
N197 C202 1.318 . S
C198 N197 1.328 . S
C198 C199 1.457 . S
C198 H203 0.929 . S
C199 C198 1.457 . S
C199 C200 1.291 . S
C199 H212 0.931 . S
C200 C199 1.291 . S
C200 C201 1.373 . S
C200 H213 0.929 . S
C201 C200 1.373 . S
C201 C202 1.396 . S
C201 C208 1.403 . S
C202 C192 1.476 . S
C202 N197 1.318 . S
C202 C201 1.396 . S
H203 C198 0.929 . S
O204 Mn180 2.385 . S
O204 C182 1.234 . S
O205 Mn180 2.209 . S
O205 Mn181 2.215 . S
O205 C182 1.283 . S
O206 Mn180 2.094 . S
O206 C184 1.240 . S
O207 Mn181 2.117 . S
O207 C184 1.264 . S
C208 C201 1.403 . S
C208 C209 1.399 . S
C208 H214 0.929 . S
C209 C189 1.449 . S
C209 C208 1.399 . S
C209 H215 0.930 . S
H210 C190 0.931 . S
H211 C191 0.930 . S
H212 C199 0.931 . S
H213 C200 0.929 . S
H214 C208 0.929 . S
H215 C209 0.930 . S
Mn216 O221 2.095 . S
Mn216 O231 2.162 1_655 S
Mn216 O232 2.297 1_655 S
Mn216 O240 2.385 . S
Mn216 O241 2.209 . S
Mn216 O242 2.094 . S
Mn217 O222 2.121 . S
Mn217 N224 2.257 . S
Mn217 N233 2.282 . S
Mn217 O241 2.215 . S
Mn217 O243 2.117 . S
C218 O240 1.234 . S
C218 O241 1.283 . S
C219 O231 1.281 . S
C219 O232 1.236 . S
C220 O242 1.240 . S
C220 O243 1.264 . S
O221 Mn216 2.095 . S
O221 C230 1.250 . S
O222 Mn217 2.121 . S
O222 C230 1.258 . S
C223 N224 1.326 . S
C223 C227 1.460 . S
C223 H229 0.929 . S
N224 Mn217 2.257 . S
N224 C223 1.326 . S
N224 C228 1.362 . S
C225 C226 1.258 . S
C225 C228 1.431 . S
C225 C245 1.449 . S
C226 C225 1.258 . S
C226 C227 1.477 . S
C226 H246 0.931 . S
C227 C223 1.460 . S
C227 C226 1.477 . S
C227 H247 0.930 . S
C228 N224 1.362 . S
C228 C225 1.431 . S
C228 C238 1.476 . S
H229 C223 0.929 . S
C230 O221 1.250 . S
C230 O222 1.258 . S
O231 Mn216 2.162 1_455 S
O231 C219 1.281 . S
O232 Mn216 2.297 1_455 S
O232 C219 1.236 . S
N233 Mn217 2.282 . S
N233 C234 1.328 . S
N233 C238 1.318 . S
C234 N233 1.328 . S
C234 C235 1.457 . S
C234 H239 0.929 . S
C235 C234 1.457 . S
C235 C236 1.291 . S
C235 H248 0.931 . S
C236 C235 1.291 . S
C236 C237 1.373 . S
C236 H249 0.929 . S
C237 C236 1.373 . S
C237 C238 1.396 . S
C237 C244 1.403 . S
C238 C228 1.476 . S
C238 N233 1.318 . S
C238 C237 1.396 . S
H239 C234 0.929 . S
O240 Mn216 2.385 . S
O240 C218 1.234 . S
O241 Mn216 2.209 . S
O241 Mn217 2.215 . S
O241 C218 1.283 . S
O242 Mn216 2.094 . S
O242 C220 1.240 . S
O243 Mn217 2.117 . S
O243 C220 1.264 . S
C244 C237 1.403 . S
C244 C245 1.399 . S
C244 H250 0.929 . S
C245 C225 1.449 . S
C245 C244 1.399 . S
C245 H251 0.930 . S
H246 C226 0.931 . S
H247 C227 0.930 . S
H248 C235 0.931 . S
H249 C236 0.929 . S
H250 C244 0.929 . S
H251 C245 0.930 . S
Mn252 O257 2.095 . S
Mn252 O267 2.162 1_565 S
Mn252 O268 2.297 1_565 S
Mn252 O276 2.385 . S
Mn252 O277 2.209 . S
Mn252 O278 2.094 . S
Mn253 O258 2.121 . S
Mn253 N260 2.257 . S
Mn253 N269 2.282 . S
Mn253 O277 2.215 . S
Mn253 O279 2.117 . S
C254 O276 1.234 . S
C254 O277 1.283 . S
C255 O267 1.281 . S
C255 O268 1.236 . S
C256 O278 1.240 . S
C256 O279 1.264 . S
O257 Mn252 2.095 . S
O257 C266 1.250 . S
O258 Mn253 2.121 . S
O258 C266 1.258 . S
C259 N260 1.326 . S
C259 C263 1.460 . S
C259 H265 0.929 . S
N260 Mn253 2.257 . S
N260 C259 1.326 . S
N260 C264 1.362 . S
C261 C262 1.258 . S
C261 C264 1.431 . S
C261 C281 1.449 . S
C262 C261 1.258 . S
C262 C263 1.477 . S
C262 H282 0.931 . S
C263 C259 1.460 . S
C263 C262 1.477 . S
C263 H283 0.930 . S
C264 N260 1.362 . S
C264 C261 1.431 . S
C264 C274 1.476 . S
H265 C259 0.929 . S
C266 O257 1.250 . S
C266 O258 1.258 . S
O267 Mn252 2.162 1_545 S
O267 C255 1.281 . S
O268 Mn252 2.297 1_545 S
O268 C255 1.236 . S
N269 Mn253 2.282 . S
N269 C270 1.328 . S
N269 C274 1.318 . S
C270 N269 1.328 . S
C270 C271 1.457 . S
C270 H275 0.929 . S
C271 C270 1.457 . S
C271 C272 1.291 . S
C271 H284 0.931 . S
C272 C271 1.291 . S
C272 C273 1.373 . S
C272 H285 0.929 . S
C273 C272 1.373 . S
C273 C274 1.396 . S
C273 C280 1.403 . S
C274 C264 1.476 . S
C274 N269 1.318 . S
C274 C273 1.396 . S
H275 C270 0.929 . S
O276 Mn252 2.385 . S
O276 C254 1.234 . S
O277 Mn252 2.209 . S
O277 Mn253 2.215 . S
O277 C254 1.283 . S
O278 Mn252 2.094 . S
O278 C256 1.240 . S
O279 Mn253 2.117 . S
O279 C256 1.264 . S
C280 C273 1.403 . S
C280 C281 1.399 . S
C280 H286 0.929 . S
C281 C261 1.449 . S
C281 C280 1.399 . S
C281 H287 0.930 . S
H282 C262 0.931 . S
H283 C263 0.930 . S
H284 C271 0.931 . S
H285 C272 0.929 . S
H286 C280 0.929 . S
H287 C281 0.930 . S
Mn288 O293 2.095 . S
Mn288 O303 2.162 . S
Mn288 O304 2.297 . S
Mn288 O312 2.385 . S
Mn288 O313 2.209 . S
Mn288 O314 2.094 . S
Mn289 O294 2.121 . S
Mn289 N296 2.257 . S
Mn289 N305 2.282 . S
Mn289 O313 2.215 . S
Mn289 O315 2.117 . S
C290 O312 1.234 . S
C290 O313 1.283 . S
C291 O303 1.281 . S
C291 O304 1.236 . S
C292 O314 1.240 . S
C292 O315 1.264 . S
O293 Mn288 2.095 . S
O293 C302 1.250 . S
O294 Mn289 2.121 . S
O294 C302 1.258 . S
C295 N296 1.326 . S
C295 C299 1.460 . S
C295 H301 0.929 . S
N296 Mn289 2.257 . S
N296 C295 1.326 . S
N296 C300 1.362 . S
C297 C298 1.258 . S
C297 C300 1.431 . S
C297 C317 1.449 . S
C298 C297 1.258 . S
C298 C299 1.477 . S
C298 H318 0.931 . S
C299 C295 1.460 . S
C299 C298 1.477 . S
C299 H319 0.930 . S
C300 N296 1.362 . S
C300 C297 1.431 . S
C300 C310 1.476 . S
H301 C295 0.929 . S
C302 O293 1.250 . S
C302 O294 1.258 . S
O303 Mn288 2.162 . S
O303 C291 1.281 . S
O304 Mn288 2.297 . S
O304 C291 1.236 . S
N305 Mn289 2.282 . S
N305 C306 1.328 . S
N305 C310 1.318 . S
C306 N305 1.328 . S
C306 C307 1.457 . S
C306 H311 0.929 . S
C307 C306 1.457 . S
C307 C308 1.291 . S
C307 H320 0.931 . S
C308 C307 1.291 . S
C308 C309 1.373 . S
C308 H321 0.929 . S
C309 C308 1.373 . S
C309 C310 1.396 . S
C309 C316 1.403 . S
C310 C300 1.476 . S
C310 N305 1.318 . S
C310 C309 1.396 . S
H311 C306 0.929 . S
O312 Mn288 2.385 . S
O312 C290 1.234 . S
O313 Mn288 2.209 . S
O313 Mn289 2.215 . S
O313 C290 1.283 . S
O314 Mn288 2.094 . S
O314 C292 1.240 . S
O315 Mn289 2.117 . S
O315 C292 1.264 . S
C316 C309 1.403 . S
C316 C317 1.399 . S
C316 H322 0.929 . S
C317 C297 1.449 . S
C317 C316 1.399 . S
C317 H323 0.930 . S
H318 C298 0.931 . S
H319 C299 0.930 . S
H320 C307 0.931 . S
H321 C308 0.929 . S
H322 C316 0.929 . S
H323 C317 0.930 . S
Mn324 O329 2.095 . S
Mn324 O339 2.162 . S
Mn324 O340 2.297 . S
Mn324 O348 2.385 . S
Mn324 O349 2.209 . S
Mn324 O350 2.094 . S
Mn325 O330 2.121 . S
Mn325 N332 2.257 . S
Mn325 N341 2.282 . S
Mn325 O349 2.215 . S
Mn325 O351 2.117 . S
C326 O348 1.234 . S
C326 O349 1.283 . S
C327 O339 1.281 . S
C327 O340 1.236 . S
C328 O350 1.240 . S
C328 O351 1.264 . S
O329 Mn324 2.095 . S
O329 C338 1.250 . S
O330 Mn325 2.121 . S
O330 C338 1.258 . S
C331 N332 1.326 . S
C331 C335 1.460 . S
C331 H337 0.929 . S
N332 Mn325 2.257 . S
N332 C331 1.326 . S
N332 C336 1.362 . S
C333 C334 1.258 . S
C333 C336 1.431 . S
C333 C353 1.449 . S
C334 C333 1.258 . S
C334 C335 1.477 . S
C334 H354 0.931 . S
C335 C331 1.460 . S
C335 C334 1.477 . S
C335 H355 0.930 . S
C336 N332 1.362 . S
C336 C333 1.431 . S
C336 C346 1.476 . S
H337 C331 0.929 . S
C338 O329 1.250 . S
C338 O330 1.258 . S
O339 Mn324 2.162 . S
O339 C327 1.281 . S
O340 Mn324 2.297 . S
O340 C327 1.236 . S
N341 Mn325 2.282 . S
N341 C342 1.328 . S
N341 C346 1.318 . S
C342 N341 1.328 . S
C342 C343 1.457 . S
C342 H347 0.929 . S
C343 C342 1.457 . S
C343 C344 1.291 . S
C343 H356 0.931 . S
C344 C343 1.291 . S
C344 C345 1.373 . S
C344 H357 0.929 . S
C345 C344 1.373 . S
C345 C346 1.396 . S
C345 C352 1.403 . S
C346 C336 1.476 . S
C346 N341 1.318 . S
C346 C345 1.396 . S
H347 C342 0.929 . S
O348 Mn324 2.385 . S
O348 C326 1.234 . S
O349 Mn324 2.209 . S
O349 Mn325 2.215 . S
O349 C326 1.283 . S
O350 Mn324 2.094 . S
O350 C328 1.240 . S
O351 Mn325 2.117 . S
O351 C328 1.264 . S
C352 C345 1.403 . S
C352 C353 1.399 . S
C352 H358 0.929 . S
C353 C333 1.449 . S
C353 C352 1.399 . S
C353 H359 0.930 . S
H354 C334 0.931 . S
H355 C335 0.930 . S
H356 C343 0.931 . S
H357 C344 0.929 . S
H358 C352 0.929 . S
H359 C353 0.930 . S
Mn360 O365 2.095 . S
Mn360 O375 2.162 1_455 S
Mn360 O376 2.297 1_455 S
Mn360 O384 2.385 . S
Mn360 O385 2.209 . S
Mn360 O386 2.094 . S
Mn361 O366 2.121 . S
Mn361 N368 2.257 . S
Mn361 N377 2.282 . S
Mn361 O385 2.215 . S
Mn361 O387 2.117 . S
C362 O384 1.234 . S
C362 O385 1.283 . S
C363 O375 1.281 . S
C363 O376 1.236 . S
C364 O386 1.240 . S
C364 O387 1.264 . S
O365 Mn360 2.095 . S
O365 C374 1.250 . S
O366 Mn361 2.121 . S
O366 C374 1.258 . S
C367 N368 1.326 . S
C367 C371 1.460 . S
C367 H373 0.929 . S
N368 Mn361 2.257 . S
N368 C367 1.326 . S
N368 C372 1.362 . S
C369 C370 1.258 . S
C369 C372 1.431 . S
C369 C389 1.449 . S
C370 C369 1.258 . S
C370 C371 1.477 . S
C370 H390 0.931 . S
C371 C367 1.460 . S
C371 C370 1.477 . S
C371 H391 0.930 . S
C372 N368 1.362 . S
C372 C369 1.431 . S
C372 C382 1.476 . S
H373 C367 0.929 . S
C374 O365 1.250 . S
C374 O366 1.258 . S
O375 Mn360 2.162 1_655 S
O375 C363 1.281 . S
O376 Mn360 2.297 1_655 S
O376 C363 1.236 . S
N377 Mn361 2.282 . S
N377 C378 1.328 . S
N377 C382 1.318 . S
C378 N377 1.328 . S
C378 C379 1.457 . S
C378 H383 0.929 . S
C379 C378 1.457 . S
C379 C380 1.291 . S
C379 H392 0.931 . S
C380 C379 1.291 . S
C380 C381 1.373 . S
C380 H393 0.929 . S
C381 C380 1.373 . S
C381 C382 1.396 . S
C381 C388 1.403 . S
C382 C372 1.476 . S
C382 N377 1.318 . S
C382 C381 1.396 . S
H383 C378 0.929 . S
O384 Mn360 2.385 . S
O384 C362 1.234 . S
O385 Mn360 2.209 . S
O385 Mn361 2.215 . S
O385 C362 1.283 . S
O386 Mn360 2.094 . S
O386 C364 1.240 . S
O387 Mn361 2.117 . S
O387 C364 1.264 . S
C388 C381 1.403 . S
C388 C389 1.399 . S
C388 H394 0.929 . S
C389 C369 1.449 . S
C389 C388 1.399 . S
C389 H395 0.930 . S
H390 C370 0.931 . S
H391 C371 0.930 . S
H392 C379 0.931 . S
H393 C380 0.929 . S
H394 C388 0.929 . S
H395 C389 0.930 . S
Mn396 O401 2.095 . S
Mn396 O411 2.162 1_545 S
Mn396 O412 2.297 1_545 S
Mn396 O420 2.385 . S
Mn396 O421 2.209 . S
Mn396 O422 2.094 . S
Mn397 O402 2.121 . S
Mn397 N404 2.257 . S
Mn397 N413 2.282 . S
Mn397 O421 2.215 . S
Mn397 O423 2.117 . S
C398 O420 1.234 . S
C398 O421 1.283 . S
C399 O411 1.281 . S
C399 O412 1.236 . S
C400 O422 1.240 . S
C400 O423 1.264 . S
O401 Mn396 2.095 . S
O401 C410 1.250 . S
O402 Mn397 2.121 . S
O402 C410 1.258 . S
C403 N404 1.326 . S
C403 C407 1.460 . S
C403 H409 0.929 . S
N404 Mn397 2.257 . S
N404 C403 1.326 . S
N404 C408 1.362 . S
C405 C406 1.258 . S
C405 C408 1.431 . S
C405 C425 1.449 . S
C406 C405 1.258 . S
C406 C407 1.477 . S
C406 H426 0.931 . S
C407 C403 1.460 . S
C407 C406 1.477 . S
C407 H427 0.930 . S
C408 N404 1.362 . S
C408 C405 1.431 . S
C408 C418 1.476 . S
H409 C403 0.929 . S
C410 O401 1.250 . S
C410 O402 1.258 . S
O411 Mn396 2.162 1_565 S
O411 C399 1.281 . S
O412 Mn396 2.297 1_565 S
O412 C399 1.236 . S
N413 Mn397 2.282 . S
N413 C414 1.328 . S
N413 C418 1.318 . S
C414 N413 1.328 . S
C414 C415 1.457 . S
C414 H419 0.929 . S
C415 C414 1.457 . S
C415 C416 1.291 . S
C415 H428 0.931 . S
C416 C415 1.291 . S
C416 C417 1.373 . S
C416 H429 0.929 . S
C417 C416 1.373 . S
C417 C418 1.396 . S
C417 C424 1.403 . S
C418 C408 1.476 . S
C418 N413 1.318 . S
C418 C417 1.396 . S
H419 C414 0.929 . S
O420 Mn396 2.385 . S
O420 C398 1.234 . S
O421 Mn396 2.209 . S
O421 Mn397 2.215 . S
O421 C398 1.283 . S
O422 Mn396 2.094 . S
O422 C400 1.240 . S
O423 Mn397 2.117 . S
O423 C400 1.264 . S
C424 C417 1.403 . S
C424 C425 1.399 . S
C424 H430 0.929 . S
C425 C405 1.449 . S
C425 C424 1.399 . S
C425 H431 0.930 . S
H426 C406 0.931 . S
H427 C407 0.930 . S
H428 C415 0.931 . S
H429 C416 0.929 . S
H430 C424 0.929 . S
H431 C425 0.930 . S
Mn432 O437 2.095 . S
Mn432 O447 2.162 . S
Mn432 O448 2.297 . S
Mn432 O456 2.385 . S
Mn432 O457 2.209 . S
Mn432 O458 2.094 . S
Mn433 O438 2.121 . S
Mn433 N440 2.257 . S
Mn433 N449 2.282 . S
Mn433 O457 2.215 . S
Mn433 O459 2.117 . S
C434 O456 1.234 . S
C434 O457 1.283 . S
C435 O447 1.281 . S
C435 O448 1.236 . S
C436 O458 1.240 . S
C436 O459 1.264 . S
O437 Mn432 2.095 . S
O437 C446 1.250 . S
O438 Mn433 2.121 . S
O438 C446 1.258 . S
C439 N440 1.326 . S
C439 C443 1.460 . S
C439 H445 0.929 . S
N440 Mn433 2.257 . S
N440 C439 1.326 . S
N440 C444 1.362 . S
C441 C442 1.258 . S
C441 C444 1.431 . S
C441 C461 1.449 . S
C442 C441 1.258 . S
C442 C443 1.477 . S
C442 H462 0.931 . S
C443 C439 1.460 . S
C443 C442 1.477 . S
C443 H463 0.930 . S
C444 N440 1.362 . S
C444 C441 1.431 . S
C444 C454 1.476 . S
H445 C439 0.929 . S
C446 O437 1.250 . S
C446 O438 1.258 . S
O447 Mn432 2.162 . S
O447 C435 1.281 . S
O448 Mn432 2.297 . S
O448 C435 1.236 . S
N449 Mn433 2.282 . S
N449 C450 1.328 . S
N449 C454 1.318 . S
C450 N449 1.328 . S
C450 C451 1.457 . S
C450 H455 0.929 . S
C451 C450 1.457 . S
C451 C452 1.291 . S
C451 H464 0.931 . S
C452 C451 1.291 . S
C452 C453 1.373 . S
C452 H465 0.929 . S
C453 C452 1.373 . S
C453 C454 1.396 . S
C453 C460 1.403 . S
C454 C444 1.476 . S
C454 N449 1.318 . S
C454 C453 1.396 . S
H455 C450 0.929 . S
O456 Mn432 2.385 . S
O456 C434 1.234 . S
O457 Mn432 2.209 . S
O457 Mn433 2.215 . S
O457 C434 1.283 . S
O458 Mn432 2.094 . S
O458 C436 1.240 . S
O459 Mn433 2.117 . S
O459 C436 1.264 . S
C460 C453 1.403 . S
C460 C461 1.399 . S
C460 H466 0.929 . S
C461 C441 1.449 . S
C461 C460 1.399 . S
C461 H467 0.930 . S
H462 C442 0.931 . S
H463 C443 0.930 . S
H464 C451 0.931 . S
H465 C452 0.929 . S
H466 C460 0.929 . S
H467 C461 0.930 . S
Mn468 O473 2.095 . S
Mn468 O483 2.162 . S
Mn468 O484 2.297 . S
Mn468 O492 2.385 . S
Mn468 O493 2.209 . S
Mn468 O494 2.094 . S
Mn469 O474 2.121 . S
Mn469 N476 2.257 . S
Mn469 N485 2.282 . S
Mn469 O493 2.215 . S
Mn469 O495 2.117 . S
C470 O492 1.234 . S
C470 O493 1.283 . S
C471 O483 1.281 . S
C471 O484 1.236 . S
C472 O494 1.240 . S
C472 O495 1.264 . S
O473 Mn468 2.095 . S
O473 C482 1.250 . S
O474 Mn469 2.121 . S
O474 C482 1.258 . S
C475 N476 1.326 . S
C475 C479 1.460 . S
C475 H481 0.929 . S
N476 Mn469 2.257 . S
N476 C475 1.326 . S
N476 C480 1.362 . S
C477 C478 1.258 . S
C477 C480 1.431 . S
C477 C497 1.449 . S
C478 C477 1.258 . S
C478 C479 1.477 . S
C478 H498 0.931 . S
C479 C475 1.460 . S
C479 C478 1.477 . S
C479 H499 0.930 . S
C480 N476 1.362 . S
C480 C477 1.431 . S
C480 C490 1.476 . S
H481 C475 0.929 . S
C482 O473 1.250 . S
C482 O474 1.258 . S
O483 Mn468 2.162 . S
O483 C471 1.281 . S
O484 Mn468 2.297 . S
O484 C471 1.236 . S
N485 Mn469 2.282 . S
N485 C486 1.328 . S
N485 C490 1.318 . S
C486 N485 1.328 . S
C486 C487 1.457 . S
C486 H491 0.929 . S
C487 C486 1.457 . S
C487 C488 1.291 . S
C487 H500 0.931 . S
C488 C487 1.291 . S
C488 C489 1.373 . S
C488 H501 0.929 . S
C489 C488 1.373 . S
C489 C490 1.396 . S
C489 C496 1.403 . S
C490 C480 1.476 . S
C490 N485 1.318 . S
C490 C489 1.396 . S
H491 C486 0.929 . S
O492 Mn468 2.385 . S
O492 C470 1.234 . S
O493 Mn468 2.209 . S
O493 Mn469 2.215 . S
O493 C470 1.283 . S
O494 Mn468 2.094 . S
O494 C472 1.240 . S
O495 Mn469 2.117 . S
O495 C472 1.264 . S
C496 C489 1.403 . S
C496 C497 1.399 . S
C496 H502 0.929 . S
C497 C477 1.449 . S
C497 C496 1.399 . S
C497 H503 0.930 . S
H498 C478 0.931 . S
H499 C479 0.930 . S
H500 C487 0.931 . S
H501 C488 0.929 . S
H502 C496 0.929 . S
H503 C497 0.930 . S
Mn504 O509 2.095 . S
Mn504 O519 2.162 1_455 S
Mn504 O520 2.297 1_455 S
Mn504 O528 2.385 . S
Mn504 O529 2.209 . S
Mn504 O530 2.094 . S
Mn505 O510 2.121 . S
Mn505 N512 2.257 . S
Mn505 N521 2.282 . S
Mn505 O529 2.215 . S
Mn505 O531 2.117 . S
C506 O528 1.234 . S
C506 O529 1.283 . S
C507 O519 1.281 . S
C507 O520 1.236 . S
C508 O530 1.240 . S
C508 O531 1.264 . S
O509 Mn504 2.095 . S
O509 C518 1.250 . S
O510 Mn505 2.121 . S
O510 C518 1.258 . S
C511 N512 1.326 . S
C511 C515 1.460 . S
C511 H517 0.929 . S
N512 Mn505 2.257 . S
N512 C511 1.326 . S
N512 C516 1.362 . S
C513 C514 1.258 . S
C513 C516 1.431 . S
C513 C533 1.449 . S
C514 C513 1.258 . S
C514 C515 1.477 . S
C514 H534 0.931 . S
C515 C511 1.460 . S
C515 C514 1.477 . S
C515 H535 0.930 . S
C516 N512 1.362 . S
C516 C513 1.431 . S
C516 C526 1.476 . S
H517 C511 0.929 . S
C518 O509 1.250 . S
C518 O510 1.258 . S
O519 Mn504 2.162 1_655 S
O519 C507 1.281 . S
O520 Mn504 2.297 1_655 S
O520 C507 1.236 . S
N521 Mn505 2.282 . S
N521 C522 1.328 . S
N521 C526 1.318 . S
C522 N521 1.328 . S
C522 C523 1.457 . S
C522 H527 0.929 . S
C523 C522 1.457 . S
C523 C524 1.291 . S
C523 H536 0.931 . S
C524 C523 1.291 . S
C524 C525 1.373 . S
C524 H537 0.929 . S
C525 C524 1.373 . S
C525 C526 1.396 . S
C525 C532 1.403 . S
C526 C516 1.476 . S
C526 N521 1.318 . S
C526 C525 1.396 . S
H527 C522 0.929 . S
O528 Mn504 2.385 . S
O528 C506 1.234 . S
O529 Mn504 2.209 . S
O529 Mn505 2.215 . S
O529 C506 1.283 . S
O530 Mn504 2.094 . S
O530 C508 1.240 . S
O531 Mn505 2.117 . S
O531 C508 1.264 . S
C532 C525 1.403 . S
C532 C533 1.399 . S
C532 H538 0.929 . S
C533 C513 1.449 . S
C533 C532 1.399 . S
C533 H539 0.930 . S
H534 C514 0.931 . S
H535 C515 0.930 . S
H536 C523 0.931 . S
H537 C524 0.929 . S
H538 C532 0.929 . S
H539 C533 0.930 . S
Mn540 O545 2.095 . S
Mn540 O555 2.162 1_545 S
Mn540 O556 2.297 1_545 S
Mn540 O564 2.385 . S
Mn540 O565 2.209 . S
Mn540 O566 2.094 . S
Mn541 O546 2.121 . S
Mn541 N548 2.257 . S
Mn541 N557 2.282 . S
Mn541 O565 2.215 . S
Mn541 O567 2.117 . S
C542 O564 1.234 . S
C542 O565 1.283 . S
C543 O555 1.281 . S
C543 O556 1.236 . S
C544 O566 1.240 . S
C544 O567 1.264 . S
O545 Mn540 2.095 . S
O545 C554 1.250 . S
O546 Mn541 2.121 . S
O546 C554 1.258 . S
C547 N548 1.326 . S
C547 C551 1.460 . S
C547 H553 0.929 . S
N548 Mn541 2.257 . S
N548 C547 1.326 . S
N548 C552 1.362 . S
C549 C550 1.258 . S
C549 C552 1.431 . S
C549 C569 1.449 . S
C550 C549 1.258 . S
C550 C551 1.477 . S
C550 H570 0.931 . S
C551 C547 1.460 . S
C551 C550 1.477 . S
C551 H571 0.930 . S
C552 N548 1.362 . S
C552 C549 1.431 . S
C552 C562 1.476 . S
H553 C547 0.929 . S
C554 O545 1.250 . S
C554 O546 1.258 . S
O555 Mn540 2.162 1_565 S
O555 C543 1.281 . S
O556 Mn540 2.297 1_565 S
O556 C543 1.236 . S
N557 Mn541 2.282 . S
N557 C558 1.328 . S
N557 C562 1.318 . S
C558 N557 1.328 . S
C558 C559 1.457 . S
C558 H563 0.929 . S
C559 C558 1.457 . S
C559 C560 1.291 . S
C559 H572 0.931 . S
C560 C559 1.291 . S
C560 C561 1.373 . S
C560 H573 0.929 . S
C561 C560 1.373 . S
C561 C562 1.396 . S
C561 C568 1.403 . S
C562 C552 1.476 . S
C562 N557 1.318 . S
C562 C561 1.396 . S
H563 C558 0.929 . S
O564 Mn540 2.385 . S
O564 C542 1.234 . S
O565 Mn540 2.209 . S
O565 Mn541 2.215 . S
O565 C542 1.283 . S
O566 Mn540 2.094 . S
O566 C544 1.240 . S
O567 Mn541 2.117 . S
O567 C544 1.264 . S
C568 C561 1.403 . S
C568 C569 1.399 . S
C568 H574 0.929 . S
C569 C549 1.449 . S
C569 C568 1.399 . S
C569 H575 0.930 . S
H570 C550 0.931 . S
H571 C551 0.930 . S
H572 C559 0.931 . S
H573 C560 0.929 . S
H574 C568 0.929 . S
H575 C569 0.930 . S
C576 C577 1.391 . S
C576 C578 1.394 . S
C576 H592 0.931 . S
C577 C576 1.391 . S
C577 C581 1.376 . S
C578 C576 1.394 . S
C578 C579 1.369 . S
C578 C582 1.531 . S
C579 C578 1.369 . S
C579 C580 1.410 . S
C579 C587 1.503 . S
C580 C579 1.410 . S
C580 C581 1.392 . S
C580 C583 1.511 . S
C581 C577 1.376 . S
C581 C580 1.392 . S
C581 H593 0.929 . S
C582 C578 1.531 . S
C582 H594 0.960 . S
C582 H595 0.962 . S
C582 H596 0.960 . S
C583 C580 1.511 . S
C583 H597 0.961 . S
C583 H598 0.961 . S
C583 H599 0.961 . S
C584 C585 1.370 . S
C584 C586 1.363 . S
C584 H600 0.931 . S
C585 C584 1.370 . S
C585 C589 1.408 . S
C586 C584 1.363 . S
C586 C587 1.370 . S
C586 C590 1.524 . S
C587 C579 1.503 . S
C587 C586 1.370 . S
C587 C588 1.403 . S
C588 C587 1.403 . S
C588 C589 1.404 . S
C588 C591 1.539 . S
C589 C585 1.408 . S
C589 C588 1.404 . S
C589 H601 0.930 . S
C590 C586 1.524 . S
C590 H602 0.956 . S
C590 H603 0.961 . S
C590 H604 0.961 . S
C591 C588 1.539 . S
C591 H605 0.958 . S
C591 H606 0.961 . S
C591 H607 0.960 . S
H592 C576 0.931 . S
H593 C581 0.929 . S
H594 C582 0.960 . S
H595 C582 0.962 . S
H596 C582 0.960 . S
H597 C583 0.961 . S
H598 C583 0.961 . S
H599 C583 0.961 . S
H600 C584 0.931 . S
H601 C589 0.930 . S
H602 C590 0.956 . S
H603 C590 0.961 . S
H604 C590 0.961 . S
H605 C591 0.958 . S
H606 C591 0.961 . S
H607 C591 0.960 . S
C608 C609 1.391 . S
C608 C610 1.394 . S
C608 H624 0.931 . S
C609 C608 1.391 . S
C609 C613 1.376 . S
C610 C608 1.394 . S
C610 C611 1.369 . S
C610 C614 1.531 . S
C611 C610 1.369 . S
C611 C612 1.410 . S
C611 C619 1.503 . S
C612 C611 1.410 . S
C612 C613 1.392 . S
C612 C615 1.511 . S
C613 C609 1.376 . S
C613 C612 1.392 . S
C613 H625 0.929 . S
C614 C610 1.531 . S
C614 H626 0.960 . S
C614 H627 0.962 . S
C614 H628 0.960 . S
C615 C612 1.511 . S
C615 H629 0.961 . S
C615 H630 0.961 . S
C615 H631 0.961 . S
C616 C617 1.370 . S
C616 C618 1.363 . S
C616 H632 0.931 . S
C617 C616 1.370 . S
C617 C621 1.408 . S
C618 C616 1.363 . S
C618 C619 1.370 . S
C618 C622 1.524 . S
C619 C611 1.503 . S
C619 C618 1.370 . S
C619 C620 1.403 . S
C620 C619 1.403 . S
C620 C621 1.404 . S
C620 C623 1.539 . S
C621 C617 1.408 . S
C621 C620 1.404 . S
C621 H633 0.930 . S
C622 C618 1.524 . S
C622 H634 0.956 . S
C622 H635 0.961 . S
C622 H636 0.961 . S
C623 C620 1.539 . S
C623 H637 0.958 . S
C623 H638 0.961 . S
C623 H639 0.960 . S
H624 C608 0.931 . S
H625 C613 0.929 . S
H626 C614 0.960 . S
H627 C614 0.962 . S
H628 C614 0.960 . S
H629 C615 0.961 . S
H630 C615 0.961 . S
H631 C615 0.961 . S
H632 C616 0.931 . S
H633 C621 0.930 . S
H634 C622 0.956 . S
H635 C622 0.961 . S
H636 C622 0.961 . S
H637 C623 0.958 . S
H638 C623 0.961 . S
H639 C623 0.960 . S
C640 C641 1.391 . S
C640 C642 1.394 . S
C640 H656 0.931 . S
C641 C640 1.391 . S
C641 C645 1.376 . S
C642 C640 1.394 . S
C642 C643 1.369 . S
C642 C646 1.531 . S
C643 C642 1.369 . S
C643 C644 1.410 . S
C643 C651 1.503 . S
C644 C643 1.410 . S
C644 C645 1.392 . S
C644 C647 1.511 . S
C645 C641 1.376 . S
C645 C644 1.392 . S
C645 H657 0.929 . S
C646 C642 1.531 . S
C646 H658 0.960 . S
C646 H659 0.962 . S
C646 H660 0.960 . S
C647 C644 1.511 . S
C647 H661 0.961 . S
C647 H662 0.961 . S
C647 H663 0.961 . S
C648 C649 1.370 . S
C648 C650 1.363 . S
C648 H664 0.931 . S
C649 C648 1.370 . S
C649 C653 1.408 . S
C650 C648 1.363 . S
C650 C651 1.370 . S
C650 C654 1.524 . S
C651 C643 1.503 . S
C651 C650 1.370 . S
C651 C652 1.403 . S
C652 C651 1.403 . S
C652 C653 1.404 . S
C652 C655 1.539 . S
C653 C649 1.408 . S
C653 C652 1.404 . S
C653 H665 0.930 . S
C654 C650 1.524 . S
C654 H666 0.956 . S
C654 H667 0.961 . S
C654 H668 0.961 . S
C655 C652 1.539 . S
C655 H669 0.958 . S
C655 H670 0.961 . S
C655 H671 0.960 . S
H656 C640 0.931 . S
H657 C645 0.929 . S
H658 C646 0.960 . S
H659 C646 0.962 . S
H660 C646 0.960 . S
H661 C647 0.961 . S
H662 C647 0.961 . S
H663 C647 0.961 . S
H664 C648 0.931 . S
H665 C653 0.930 . S
H666 C654 0.956 . S
H667 C654 0.961 . S
H668 C654 0.961 . S
H669 C655 0.958 . S
H670 C655 0.961 . S
H671 C655 0.960 . S
C672 C673 1.391 . S
C672 C674 1.394 . S
C672 H688 0.931 . S
C673 C672 1.391 . S
C673 C677 1.376 . S
C674 C672 1.394 . S
C674 C675 1.369 . S
C674 C678 1.531 . S
C675 C674 1.369 . S
C675 C676 1.410 . S
C675 C683 1.503 . S
C676 C675 1.410 . S
C676 C677 1.392 . S
C676 C679 1.511 . S
C677 C673 1.376 . S
C677 C676 1.392 . S
C677 H689 0.929 . S
C678 C674 1.531 . S
C678 H690 0.960 . S
C678 H691 0.962 . S
C678 H692 0.960 . S
C679 C676 1.511 . S
C679 H693 0.961 . S
C679 H694 0.961 . S
C679 H695 0.961 . S
C680 C681 1.370 . S
C680 C682 1.363 . S
C680 H696 0.931 . S
C681 C680 1.370 . S
C681 C685 1.408 . S
C682 C680 1.363 . S
C682 C683 1.370 . S
C682 C686 1.524 . S
C683 C675 1.503 . S
C683 C682 1.370 . S
C683 C684 1.403 . S
C684 C683 1.403 . S
C684 C685 1.404 . S
C684 C687 1.539 . S
C685 C681 1.408 . S
C685 C684 1.404 . S
C685 H697 0.930 . S
C686 C682 1.524 . S
C686 H698 0.956 . S
C686 H699 0.961 . S
C686 H700 0.961 . S
C687 C684 1.539 . S
C687 H701 0.958 . S
C687 H702 0.961 . S
C687 H703 0.960 . S
H688 C672 0.931 . S
H689 C677 0.929 . S
H690 C678 0.960 . S
H691 C678 0.962 . S
H692 C678 0.960 . S
H693 C679 0.961 . S
H694 C679 0.961 . S
H695 C679 0.961 . S
H696 C680 0.931 . S
H697 C685 0.930 . S
H698 C686 0.956 . S
H699 C686 0.961 . S
H700 C686 0.961 . S
H701 C687 0.958 . S
H702 C687 0.961 . S
H703 C687 0.960 . S
C704 C705 1.391 . S
C704 C706 1.394 . S
C704 H720 0.931 . S
C705 C704 1.391 . S
C705 C709 1.376 . S
C706 C704 1.394 . S
C706 C707 1.369 . S
C706 C710 1.531 . S
C707 C706 1.369 . S
C707 C708 1.410 . S
C707 C715 1.503 . S
C708 C707 1.410 . S
C708 C709 1.392 . S
C708 C711 1.511 . S
C709 C705 1.376 . S
C709 C708 1.392 . S
C709 H721 0.929 . S
C710 C706 1.531 . S
C710 H722 0.960 . S
C710 H723 0.962 . S
C710 H724 0.960 . S
C711 C708 1.511 . S
C711 H725 0.961 . S
C711 H726 0.961 . S
C711 H727 0.961 . S
C712 C713 1.370 . S
C712 C714 1.363 . S
C712 H728 0.931 . S
C713 C712 1.370 . S
C713 C717 1.408 . S
C714 C712 1.363 . S
C714 C715 1.370 . S
C714 C718 1.524 . S
C715 C707 1.503 . S
C715 C714 1.370 . S
C715 C716 1.403 . S
C716 C715 1.403 . S
C716 C717 1.404 . S
C716 C719 1.539 . S
C717 C713 1.408 . S
C717 C716 1.404 . S
C717 H729 0.930 . S
C718 C714 1.524 . S
C718 H730 0.956 . S
C718 H731 0.961 . S
C718 H732 0.961 . S
C719 C716 1.539 . S
C719 H733 0.958 . S
C719 H734 0.961 . S
C719 H735 0.960 . S
H720 C704 0.931 . S
H721 C709 0.929 . S
H722 C710 0.960 . S
H723 C710 0.962 . S
H724 C710 0.960 . S
H725 C711 0.961 . S
H726 C711 0.961 . S
H727 C711 0.961 . S
H728 C712 0.931 . S
H729 C717 0.930 . S
H730 C718 0.956 . S
H731 C718 0.961 . S
H732 C718 0.961 . S
H733 C719 0.958 . S
H734 C719 0.961 . S
H735 C719 0.960 . S
C736 C737 1.391 . S
C736 C738 1.394 . S
C736 H752 0.931 . S
C737 C736 1.391 . S
C737 C741 1.376 . S
C738 C736 1.394 . S
C738 C739 1.369 . S
C738 C742 1.531 . S
C739 C738 1.369 . S
C739 C740 1.410 . S
C739 C747 1.503 . S
C740 C739 1.410 . S
C740 C741 1.392 . S
C740 C743 1.511 . S
C741 C737 1.376 . S
C741 C740 1.392 . S
C741 H753 0.929 . S
C742 C738 1.531 . S
C742 H754 0.960 . S
C742 H755 0.962 . S
C742 H756 0.960 . S
C743 C740 1.511 . S
C743 H757 0.961 . S
C743 H758 0.961 . S
C743 H759 0.961 . S
C744 C745 1.370 . S
C744 C746 1.363 . S
C744 H760 0.931 . S
C745 C744 1.370 . S
C745 C749 1.408 . S
C746 C744 1.363 . S
C746 C747 1.370 . S
C746 C750 1.524 . S
C747 C739 1.503 . S
C747 C746 1.370 . S
C747 C748 1.403 . S
C748 C747 1.403 . S
C748 C749 1.404 . S
C748 C751 1.539 . S
C749 C745 1.408 . S
C749 C748 1.404 . S
C749 H761 0.930 . S
C750 C746 1.524 . S
C750 H762 0.956 . S
C750 H763 0.961 . S
C750 H764 0.961 . S
C751 C748 1.539 . S
C751 H765 0.958 . S
C751 H766 0.961 . S
C751 H767 0.960 . S
H752 C736 0.931 . S
H753 C741 0.929 . S
H754 C742 0.960 . S
H755 C742 0.962 . S
H756 C742 0.960 . S
H757 C743 0.961 . S
H758 C743 0.961 . S
H759 C743 0.961 . S
H760 C744 0.931 . S
H761 C749 0.930 . S
H762 C750 0.956 . S
H763 C750 0.961 . S
H764 C750 0.961 . S
H765 C751 0.958 . S
H766 C751 0.961 . S
H767 C751 0.960 . S
C768 C769 1.391 . S
C768 C770 1.394 . S
C768 H784 0.931 . S
C769 C768 1.391 . S
C769 C773 1.376 . S
C770 C768 1.394 . S
C770 C771 1.369 . S
C770 C774 1.531 . S
C771 C770 1.369 . S
C771 C772 1.410 . S
C771 C779 1.503 . S
C772 C771 1.410 . S
C772 C773 1.392 . S
C772 C775 1.511 . S
C773 C769 1.376 . S
C773 C772 1.392 . S
C773 H785 0.929 . S
C774 C770 1.531 . S
C774 H786 0.960 . S
C774 H787 0.962 . S
C774 H788 0.960 . S
C775 C772 1.511 . S
C775 H789 0.961 . S
C775 H790 0.961 . S
C775 H791 0.961 . S
C776 C777 1.370 . S
C776 C778 1.363 . S
C776 H792 0.931 . S
C777 C776 1.370 . S
C777 C781 1.408 . S
C778 C776 1.363 . S
C778 C779 1.370 . S
C778 C782 1.524 . S
C779 C771 1.503 . S
C779 C778 1.370 . S
C779 C780 1.403 . S
C780 C779 1.403 . S
C780 C781 1.404 . S
C780 C783 1.539 . S
C781 C777 1.408 . S
C781 C780 1.404 . S
C781 H793 0.930 . S
C782 C778 1.524 . S
C782 H794 0.956 . S
C782 H795 0.961 . S
C782 H796 0.961 . S
C783 C780 1.539 . S
C783 H797 0.958 . S
C783 H798 0.961 . S
C783 H799 0.960 . S
H784 C768 0.931 . S
H785 C773 0.929 . S
H786 C774 0.960 . S
H787 C774 0.962 . S
H788 C774 0.960 . S
H789 C775 0.961 . S
H790 C775 0.961 . S
H791 C775 0.961 . S
H792 C776 0.931 . S
H793 C781 0.930 . S
H794 C782 0.956 . S
H795 C782 0.961 . S
H796 C782 0.961 . S
H797 C783 0.958 . S
H798 C783 0.961 . S
H799 C783 0.960 . S
C800 C801 1.391 . S
C800 C802 1.394 . S
C800 H816 0.931 . S
C801 C800 1.391 . S
C801 C805 1.376 . S
C802 C800 1.394 . S
C802 C803 1.369 . S
C802 C806 1.531 . S
C803 C802 1.369 . S
C803 C804 1.410 . S
C803 C811 1.503 . S
C804 C803 1.410 . S
C804 C805 1.392 . S
C804 C807 1.511 . S
C805 C801 1.376 . S
C805 C804 1.392 . S
C805 H817 0.929 . S
C806 C802 1.531 . S
C806 H818 0.960 . S
C806 H819 0.962 . S
C806 H820 0.960 . S
C807 C804 1.511 . S
C807 H821 0.961 . S
C807 H822 0.961 . S
C807 H823 0.961 . S
C808 C809 1.370 . S
C808 C810 1.363 . S
C808 H824 0.931 . S
C809 C808 1.370 . S
C809 C813 1.408 . S
C810 C808 1.363 . S
C810 C811 1.370 . S
C810 C814 1.524 . S
C811 C803 1.503 . S
C811 C810 1.370 . S
C811 C812 1.403 . S
C812 C811 1.403 . S
C812 C813 1.404 . S
C812 C815 1.539 . S
C813 C809 1.408 . S
C813 C812 1.404 . S
C813 H825 0.930 . S
C814 C810 1.524 . S
C814 H826 0.956 . S
C814 H827 0.961 . S
C814 H828 0.961 . S
C815 C812 1.539 . S
C815 H829 0.958 . S
C815 H830 0.961 . S
C815 H831 0.960 . S
H816 C800 0.931 . S
H817 C805 0.929 . S
H818 C806 0.960 . S
H819 C806 0.962 . S
H820 C806 0.960 . S
H821 C807 0.961 . S
H822 C807 0.961 . S
H823 C807 0.961 . S
H824 C808 0.931 . S
H825 C813 0.930 . S
H826 C814 0.956 . S
H827 C814 0.961 . S
H828 C814 0.961 . S
H829 C815 0.958 . S
H830 C815 0.961 . S
H831 C815 0.960 . S
C832 C833 1.391 . S
C832 C834 1.394 . S
C832 H848 0.931 . S
C833 C832 1.391 . S
C833 C837 1.376 . S
C834 C832 1.394 . S
C834 C835 1.369 . S
C834 C838 1.531 . S
C835 C834 1.369 . S
C835 C836 1.410 . S
C835 C843 1.503 . S
C836 C835 1.410 . S
C836 C837 1.392 . S
C836 C839 1.511 . S
C837 C833 1.376 . S
C837 C836 1.392 . S
C837 H849 0.929 . S
C838 C834 1.531 . S
C838 H850 0.960 . S
C838 H851 0.962 . S
C838 H852 0.960 . S
C839 C836 1.511 . S
C839 H853 0.961 . S
C839 H854 0.961 . S
C839 H855 0.961 . S
C840 C841 1.370 . S
C840 C842 1.363 . S
C840 H856 0.931 . S
C841 C840 1.370 . S
C841 C845 1.408 . S
C842 C840 1.363 . S
C842 C843 1.370 . S
C842 C846 1.524 . S
C843 C835 1.503 . S
C843 C842 1.370 . S
C843 C844 1.403 . S
C844 C843 1.403 . S
C844 C845 1.404 . S
C844 C847 1.539 . S
C845 C841 1.408 . S
C845 C844 1.404 . S
C845 H857 0.930 . S
C846 C842 1.524 . S
C846 H858 0.956 . S
C846 H859 0.961 . S
C846 H860 0.961 . S
C847 C844 1.539 . S
C847 H861 0.958 . S
C847 H862 0.961 . S
C847 H863 0.960 . S
H848 C832 0.931 . S
H849 C837 0.929 . S
H850 C838 0.960 . S
H851 C838 0.962 . S
H852 C838 0.960 . S
H853 C839 0.961 . S
H854 C839 0.961 . S
H855 C839 0.961 . S
H856 C840 0.931 . S
H857 C845 0.930 . S
H858 C846 0.956 . S
H859 C846 0.961 . S
H860 C846 0.961 . S
H861 C847 0.958 . S
H862 C847 0.961 . S
H863 C847 0.960 . S
C864 C865 1.391 . S
C864 C866 1.394 . S
C864 H880 0.931 . S
C865 C864 1.391 . S
C865 C869 1.376 . S
C866 C864 1.394 . S
C866 C867 1.369 . S
C866 C870 1.531 . S
C867 C866 1.369 . S
C867 C868 1.410 . S
C867 C875 1.503 . S
C868 C867 1.410 . S
C868 C869 1.392 . S
C868 C871 1.511 . S
C869 C865 1.376 . S
C869 C868 1.392 . S
C869 H881 0.929 . S
C870 C866 1.531 . S
C870 H882 0.960 . S
C870 H883 0.962 . S
C870 H884 0.960 . S
C871 C868 1.511 . S
C871 H885 0.961 . S
C871 H886 0.961 . S
C871 H887 0.961 . S
C872 C873 1.370 . S
C872 C874 1.363 . S
C872 H888 0.931 . S
C873 C872 1.370 . S
C873 C877 1.408 . S
C874 C872 1.363 . S
C874 C875 1.370 . S
C874 C878 1.524 . S
C875 C867 1.503 . S
C875 C874 1.370 . S
C875 C876 1.403 . S
C876 C875 1.403 . S
C876 C877 1.404 . S
C876 C879 1.539 . S
C877 C873 1.408 . S
C877 C876 1.404 . S
C877 H889 0.930 . S
C878 C874 1.524 . S
C878 H890 0.956 . S
C878 H891 0.961 . S
C878 H892 0.961 . S
C879 C876 1.539 . S
C879 H893 0.958 . S
C879 H894 0.961 . S
C879 H895 0.960 . S
H880 C864 0.931 . S
H881 C869 0.929 . S
H882 C870 0.960 . S
H883 C870 0.962 . S
H884 C870 0.960 . S
H885 C871 0.961 . S
H886 C871 0.961 . S
H887 C871 0.961 . S
H888 C872 0.931 . S
H889 C877 0.930 . S
H890 C878 0.956 . S
H891 C878 0.961 . S
H892 C878 0.961 . S
H893 C879 0.958 . S
H894 C879 0.961 . S
H895 C879 0.960 . S
C896 C897 1.391 . S
C896 C898 1.394 . S
C896 H912 0.931 . S
C897 C896 1.391 . S
C897 C901 1.376 . S
C898 C896 1.394 . S
C898 C899 1.369 . S
C898 C902 1.531 . S
C899 C898 1.369 . S
C899 C900 1.410 . S
C899 C907 1.503 . S
C900 C899 1.410 . S
C900 C901 1.392 . S
C900 C903 1.511 . S
C901 C897 1.376 . S
C901 C900 1.392 . S
C901 H913 0.929 . S
C902 C898 1.531 . S
C902 H914 0.960 . S
C902 H915 0.962 . S
C902 H916 0.960 . S
C903 C900 1.511 . S
C903 H917 0.961 . S
C903 H918 0.961 . S
C903 H919 0.961 . S
C904 C905 1.370 . S
C904 C906 1.363 . S
C904 H920 0.931 . S
C905 C904 1.370 . S
C905 C909 1.408 . S
C906 C904 1.363 . S
C906 C907 1.370 . S
C906 C910 1.524 . S
C907 C899 1.503 . S
C907 C906 1.370 . S
C907 C908 1.403 . S
C908 C907 1.403 . S
C908 C909 1.404 . S
C908 C911 1.539 . S
C909 C905 1.408 . S
C909 C908 1.404 . S
C909 H921 0.930 . S
C910 C906 1.524 . S
C910 H922 0.956 . S
C910 H923 0.961 . S
C910 H924 0.961 . S
C911 C908 1.539 . S
C911 H925 0.958 . S
C911 H926 0.961 . S
C911 H927 0.960 . S
H912 C896 0.931 . S
H913 C901 0.929 . S
H914 C902 0.960 . S
H915 C902 0.962 . S
H916 C902 0.960 . S
H917 C903 0.961 . S
H918 C903 0.961 . S
H919 C903 0.961 . S
H920 C904 0.931 . S
H921 C909 0.930 . S
H922 C910 0.956 . S
H923 C910 0.961 . S
H924 C910 0.961 . S
H925 C911 0.958 . S
H926 C911 0.961 . S
H927 C911 0.960 . S
C928 C929 1.391 . S
C928 C930 1.394 . S
C928 H944 0.931 . S
C929 C928 1.391 . S
C929 C933 1.376 . S
C930 C928 1.394 . S
C930 C931 1.369 . S
C930 C934 1.531 . S
C931 C930 1.369 . S
C931 C932 1.410 . S
C931 C939 1.503 . S
C932 C931 1.410 . S
C932 C933 1.392 . S
C932 C935 1.511 . S
C933 C929 1.376 . S
C933 C932 1.392 . S
C933 H945 0.929 . S
C934 C930 1.531 . S
C934 H946 0.960 . S
C934 H947 0.962 . S
C934 H948 0.960 . S
C935 C932 1.511 . S
C935 H949 0.961 . S
C935 H950 0.961 . S
C935 H951 0.961 . S
C936 C937 1.370 . S
C936 C938 1.363 . S
C936 H952 0.931 . S
C937 C936 1.370 . S
C937 C941 1.408 . S
C938 C936 1.363 . S
C938 C939 1.370 . S
C938 C942 1.524 . S
C939 C931 1.503 . S
C939 C938 1.370 . S
C939 C940 1.403 . S
C940 C939 1.403 . S
C940 C941 1.404 . S
C940 C943 1.539 . S
C941 C937 1.408 . S
C941 C940 1.404 . S
C941 H953 0.930 . S
C942 C938 1.524 . S
C942 H954 0.956 . S
C942 H955 0.961 . S
C942 H956 0.961 . S
C943 C940 1.539 . S
C943 H957 0.958 . S
C943 H958 0.961 . S
C943 H959 0.960 . S
H944 C928 0.931 . S
H945 C933 0.929 . S
H946 C934 0.960 . S
H947 C934 0.962 . S
H948 C934 0.960 . S
H949 C935 0.961 . S
H950 C935 0.961 . S
H951 C935 0.961 . S
H952 C936 0.931 . S
H953 C941 0.930 . S
H954 C942 0.956 . S
H955 C942 0.961 . S
H956 C942 0.961 . S
H957 C943 0.958 . S
H958 C943 0.961 . S
H959 C943 0.960 . S
C960 C961 1.391 . S
C960 C962 1.394 . S
C960 H976 0.931 . S
C961 C960 1.391 . S
C961 C965 1.376 . S
C962 C960 1.394 . S
C962 C963 1.369 . S
C962 C966 1.531 . S
C963 C962 1.369 . S
C963 C964 1.410 . S
C963 C971 1.503 . S
C964 C963 1.410 . S
C964 C965 1.392 . S
C964 C967 1.511 . S
C965 C961 1.376 . S
C965 C964 1.392 . S
C965 H977 0.929 . S
C966 C962 1.531 . S
C966 H978 0.960 . S
C966 H979 0.962 . S
C966 H980 0.960 . S
C967 C964 1.511 . S
C967 H981 0.961 . S
C967 H982 0.961 . S
C967 H983 0.961 . S
C968 C969 1.370 . S
C968 C970 1.363 . S
C968 H984 0.931 . S
C969 C968 1.370 . S
C969 C973 1.408 . S
C970 C968 1.363 . S
C970 C971 1.370 . S
C970 C974 1.524 . S
C971 C963 1.503 . S
C971 C970 1.370 . S
C971 C972 1.403 . S
C972 C971 1.403 . S
C972 C973 1.404 . S
C972 C975 1.539 . S
C973 C969 1.408 . S
C973 C972 1.404 . S
C973 H985 0.930 . S
C974 C970 1.524 . S
C974 H986 0.956 . S
C974 H987 0.961 . S
C974 H988 0.961 . S
C975 C972 1.539 . S
C975 H989 0.958 . S
C975 H990 0.961 . S
C975 H991 0.960 . S
H976 C960 0.931 . S
H977 C965 0.929 . S
H978 C966 0.960 . S
H979 C966 0.962 . S
H980 C966 0.960 . S
H981 C967 0.961 . S
H982 C967 0.961 . S
H983 C967 0.961 . S
H984 C968 0.931 . S
H985 C973 0.930 . S
H986 C974 0.956 . S
H987 C974 0.961 . S
H988 C974 0.961 . S
H989 C975 0.958 . S
H990 C975 0.961 . S
H991 C975 0.960 . S
C992 C993 1.391 . S
C992 C994 1.394 . S
C992 H1008 0.931 . S
C993 C992 1.391 . S
C993 C997 1.376 . S
C994 C992 1.394 . S
C994 C995 1.369 . S
C994 C998 1.531 . S
C995 C994 1.369 . S
C995 C996 1.410 . S
C995 C1003 1.503 . S
C996 C995 1.410 . S
C996 C997 1.392 . S
C996 C999 1.511 . S
C997 C993 1.376 . S
C997 C996 1.392 . S
C997 H1009 0.929 . S
C998 C994 1.531 . S
C998 H1010 0.960 . S
C998 H1011 0.962 . S
C998 H1012 0.960 . S
C999 C996 1.511 . S
C999 H1013 0.961 . S
C999 H1014 0.961 . S
C999 H1015 0.961 . S
C1000 C1001 1.370 . S
C1000 C1002 1.363 . S
C1000 H1016 0.931 . S
C1001 C1000 1.370 . S
C1001 C1005 1.408 . S
C1002 C1000 1.363 . S
C1002 C1003 1.370 . S
C1002 C1006 1.524 . S
C1003 C995 1.503 . S
C1003 C1002 1.370 . S
C1003 C1004 1.403 . S
C1004 C1003 1.403 . S
C1004 C1005 1.404 . S
C1004 C1007 1.539 . S
C1005 C1001 1.408 . S
C1005 C1004 1.404 . S
C1005 H1017 0.930 . S
C1006 C1002 1.524 . S
C1006 H1018 0.956 . S
C1006 H1019 0.961 . S
C1006 H1020 0.961 . S
C1007 C1004 1.539 . S
C1007 H1021 0.958 . S
C1007 H1022 0.961 . S
C1007 H1023 0.960 . S
H1008 C992 0.931 . S
H1009 C997 0.929 . S
H1010 C998 0.960 . S
H1011 C998 0.962 . S
H1012 C998 0.960 . S
H1013 C999 0.961 . S
H1014 C999 0.961 . S
H1015 C999 0.961 . S
H1016 C1000 0.931 . S
H1017 C1005 0.930 . S
H1018 C1006 0.956 . S
H1019 C1006 0.961 . S
H1020 C1006 0.961 . S
H1021 C1007 0.958 . S
H1022 C1007 0.961 . S
H1023 C1007 0.960 . S
C1024 C1025 1.391 . S
C1024 C1026 1.394 . S
C1024 H1040 0.931 . S
C1025 C1024 1.391 . S
C1025 C1029 1.376 . S
C1026 C1024 1.394 . S
C1026 C1027 1.369 . S
C1026 C1030 1.531 . S
C1027 C1026 1.369 . S
C1027 C1028 1.410 . S
C1027 C1035 1.503 . S
C1028 C1027 1.410 . S
C1028 C1029 1.392 . S
C1028 C1031 1.511 . S
C1029 C1025 1.376 . S
C1029 C1028 1.392 . S
C1029 H1041 0.929 . S
C1030 C1026 1.531 . S
C1030 H1042 0.960 . S
C1030 H1043 0.962 . S
C1030 H1044 0.960 . S
C1031 C1028 1.511 . S
C1031 H1045 0.961 . S
C1031 H1046 0.961 . S
C1031 H1047 0.961 . S
C1032 C1033 1.370 . S
C1032 C1034 1.363 . S
C1032 H1048 0.931 . S
C1033 C1032 1.370 . S
C1033 C1037 1.408 . S
C1034 C1032 1.363 . S
C1034 C1035 1.370 . S
C1034 C1038 1.524 . S
C1035 C1027 1.503 . S
C1035 C1034 1.370 . S
C1035 C1036 1.403 . S
C1036 C1035 1.403 . S
C1036 C1037 1.404 . S
C1036 C1039 1.539 . S
C1037 C1033 1.408 . S
C1037 C1036 1.404 . S
C1037 H1049 0.930 . S
C1038 C1034 1.524 . S
C1038 H1050 0.956 . S
C1038 H1051 0.961 . S
C1038 H1052 0.961 . S
C1039 C1036 1.539 . S
C1039 H1053 0.958 . S
C1039 H1054 0.961 . S
C1039 H1055 0.960 . S
H1040 C1024 0.931 . S
H1041 C1029 0.929 . S
H1042 C1030 0.960 . S
H1043 C1030 0.962 . S
H1044 C1030 0.960 . S
H1045 C1031 0.961 . S
H1046 C1031 0.961 . S
H1047 C1031 0.961 . S
H1048 C1032 0.931 . S
H1049 C1037 0.930 . S
H1050 C1038 0.956 . S
H1051 C1038 0.961 . S
H1052 C1038 0.961 . S
H1053 C1039 0.958 . S
H1054 C1039 0.961 . S
H1055 C1039 0.960 . S
C1056 C1057 1.391 . S
C1056 C1058 1.394 . S
C1056 H1072 0.931 . S
C1057 C1056 1.391 . S
C1057 C1061 1.376 . S
C1058 C1056 1.394 . S
C1058 C1059 1.369 . S
C1058 C1062 1.531 . S
C1059 C1058 1.369 . S
C1059 C1060 1.410 . S
C1059 C1067 1.503 . S
C1060 C1059 1.410 . S
C1060 C1061 1.392 . S
C1060 C1063 1.511 . S
C1061 C1057 1.376 . S
C1061 C1060 1.392 . S
C1061 H1073 0.929 . S
C1062 C1058 1.531 . S
C1062 H1074 0.960 . S
C1062 H1075 0.962 . S
C1062 H1076 0.960 . S
C1063 C1060 1.511 . S
C1063 H1077 0.961 . S
C1063 H1078 0.961 . S
C1063 H1079 0.961 . S
C1064 C1065 1.370 . S
C1064 C1066 1.363 . S
C1064 H1080 0.931 . S
C1065 C1064 1.370 . S
C1065 C1069 1.408 . S
C1066 C1064 1.363 . S
C1066 C1067 1.370 . S
C1066 C1070 1.524 . S
C1067 C1059 1.503 . S
C1067 C1066 1.370 . S
C1067 C1068 1.403 . S
C1068 C1067 1.403 . S
C1068 C1069 1.404 . S
C1068 C1071 1.539 . S
C1069 C1065 1.408 . S
C1069 C1068 1.404 . S
C1069 H1081 0.930 . S
C1070 C1066 1.524 . S
C1070 H1082 0.956 . S
C1070 H1083 0.961 . S
C1070 H1084 0.961 . S
C1071 C1068 1.539 . S
C1071 H1085 0.958 . S
C1071 H1086 0.961 . S
C1071 H1087 0.960 . S
H1072 C1056 0.931 . S
H1073 C1061 0.929 . S
H1074 C1062 0.960 . S
H1075 C1062 0.962 . S
H1076 C1062 0.960 . S
H1077 C1063 0.961 . S
H1078 C1063 0.961 . S
H1079 C1063 0.961 . S
H1080 C1064 0.931 . S
H1081 C1069 0.930 . S
H1082 C1070 0.956 . S
H1083 C1070 0.961 . S
H1084 C1070 0.961 . S
H1085 C1071 0.958 . S
H1086 C1071 0.961 . S
H1087 C1071 0.960 . S
C1088 C1089 1.391 . S
C1088 C1090 1.394 . S
C1088 H1104 0.931 . S
C1089 C1088 1.391 . S
C1089 C1093 1.376 . S
C1090 C1088 1.394 . S
C1090 C1091 1.369 . S
C1090 C1094 1.531 . S
C1091 C1090 1.369 . S
C1091 C1092 1.410 . S
C1091 C1099 1.503 . S
C1092 C1091 1.410 . S
C1092 C1093 1.392 . S
C1092 C1095 1.511 . S
C1093 C1089 1.376 . S
C1093 C1092 1.392 . S
C1093 H1105 0.929 . S
C1094 C1090 1.531 . S
C1094 H1106 0.960 . S
C1094 H1107 0.962 . S
C1094 H1108 0.960 . S
C1095 C1092 1.511 . S
C1095 H1109 0.961 . S
C1095 H1110 0.961 . S
C1095 H1111 0.961 . S
C1096 C1097 1.370 . S
C1096 C1098 1.363 . S
C1096 H1112 0.931 . S
C1097 C1096 1.370 . S
C1097 C1101 1.408 . S
C1098 C1096 1.363 . S
C1098 C1099 1.370 . S
C1098 C1102 1.524 . S
C1099 C1091 1.503 . S
C1099 C1098 1.370 . S
C1099 C1100 1.403 . S
C1100 C1099 1.403 . S
C1100 C1101 1.404 . S
C1100 C1103 1.539 . S
C1101 C1097 1.408 . S
C1101 C1100 1.404 . S
C1101 H1113 0.930 . S
C1102 C1098 1.524 . S
C1102 H1114 0.956 . S
C1102 H1115 0.961 . S
C1102 H1116 0.961 . S
C1103 C1100 1.539 . S
C1103 H1117 0.958 . S
C1103 H1118 0.961 . S
C1103 H1119 0.960 . S
H1104 C1088 0.931 . S
H1105 C1093 0.929 . S
H1106 C1094 0.960 . S
H1107 C1094 0.962 . S
H1108 C1094 0.960 . S
H1109 C1095 0.961 . S
H1110 C1095 0.961 . S
H1111 C1095 0.961 . S
H1112 C1096 0.931 . S
H1113 C1101 0.930 . S
H1114 C1102 0.956 . S
H1115 C1102 0.961 . S
H1116 C1102 0.961 . S
H1117 C1103 0.958 . S
H1118 C1103 0.961 . S
H1119 C1103 0.960 . S
C1120 C1121 1.391 . S
C1120 C1122 1.394 . S
C1120 H1136 0.931 . S
C1121 C1120 1.391 . S
C1121 C1125 1.376 . S
C1122 C1120 1.394 . S
C1122 C1123 1.369 . S
C1122 C1126 1.531 . S
C1123 C1122 1.369 . S
C1123 C1124 1.410 . S
C1123 C1131 1.503 . S
C1124 C1123 1.410 . S
C1124 C1125 1.392 . S
C1124 C1127 1.511 . S
C1125 C1121 1.376 . S
C1125 C1124 1.392 . S
C1125 H1137 0.929 . S
C1126 C1122 1.531 . S
C1126 H1138 0.960 . S
C1126 H1139 0.962 . S
C1126 H1140 0.960 . S
C1127 C1124 1.511 . S
C1127 H1141 0.961 . S
C1127 H1142 0.961 . S
C1127 H1143 0.961 . S
C1128 C1129 1.370 . S
C1128 C1130 1.363 . S
C1128 H1144 0.931 . S
C1129 C1128 1.370 . S
C1129 C1133 1.408 . S
C1130 C1128 1.363 . S
C1130 C1131 1.370 . S
C1130 C1134 1.524 . S
C1131 C1123 1.503 . S
C1131 C1130 1.370 . S
C1131 C1132 1.403 . S
C1132 C1131 1.403 . S
C1132 C1133 1.404 . S
C1132 C1135 1.539 . S
C1133 C1129 1.408 . S
C1133 C1132 1.404 . S
C1133 H1145 0.930 . S
C1134 C1130 1.524 . S
C1134 H1146 0.956 . S
C1134 H1147 0.961 . S
C1134 H1148 0.961 . S
C1135 C1132 1.539 . S
C1135 H1149 0.958 . S
C1135 H1150 0.961 . S
C1135 H1151 0.960 . S
H1136 C1120 0.931 . S
H1137 C1125 0.929 . S
H1138 C1126 0.960 . S
H1139 C1126 0.962 . S
H1140 C1126 0.960 . S
H1141 C1127 0.961 . S
H1142 C1127 0.961 . S
H1143 C1127 0.961 . S
H1144 C1128 0.931 . S
H1145 C1133 0.930 . S
H1146 C1134 0.956 . S
H1147 C1134 0.961 . S
H1148 C1134 0.961 . S
H1149 C1135 0.958 . S
H1150 C1135 0.961 . S
H1151 C1135 0.960 . S
C1152 C1153 1.391 . S
C1152 C1154 1.394 . S
C1152 H1168 0.931 . S
C1153 C1152 1.391 . S
C1153 C1157 1.376 . S
C1154 C1152 1.394 . S
C1154 C1155 1.369 . S
C1154 C1158 1.531 . S
C1155 C1154 1.369 . S
C1155 C1156 1.410 . S
C1155 C1163 1.503 . S
C1156 C1155 1.410 . S
C1156 C1157 1.392 . S
C1156 C1159 1.511 . S
C1157 C1153 1.376 . S
C1157 C1156 1.392 . S
C1157 H1169 0.929 . S
C1158 C1154 1.531 . S
C1158 H1170 0.960 . S
C1158 H1171 0.962 . S
C1158 H1172 0.960 . S
C1159 C1156 1.511 . S
C1159 H1173 0.961 . S
C1159 H1174 0.961 . S
C1159 H1175 0.961 . S
C1160 C1161 1.370 . S
C1160 C1162 1.363 . S
C1160 H1176 0.931 . S
C1161 C1160 1.370 . S
C1161 C1165 1.408 . S
C1162 C1160 1.363 . S
C1162 C1163 1.370 . S
C1162 C1166 1.524 . S
C1163 C1155 1.503 . S
C1163 C1162 1.370 . S
C1163 C1164 1.403 . S
C1164 C1163 1.403 . S
C1164 C1165 1.404 . S
C1164 C1167 1.539 . S
C1165 C1161 1.408 . S
C1165 C1164 1.404 . S
C1165 H1177 0.930 . S
C1166 C1162 1.524 . S
C1166 H1178 0.956 . S
C1166 H1179 0.961 . S
C1166 H1180 0.961 . S
C1167 C1164 1.539 . S
C1167 H1181 0.958 . S
C1167 H1182 0.961 . S
C1167 H1183 0.960 . S
H1168 C1152 0.931 . S
H1169 C1157 0.929 . S
H1170 C1158 0.960 . S
H1171 C1158 0.962 . S
H1172 C1158 0.960 . S
H1173 C1159 0.961 . S
H1174 C1159 0.961 . S
H1175 C1159 0.961 . S
H1176 C1160 0.931 . S
H1177 C1165 0.930 . S
H1178 C1166 0.956 . S
H1179 C1166 0.961 . S
H1180 C1166 0.961 . S
H1181 C1167 0.958 . S
H1182 C1167 0.961 . S
H1183 C1167 0.960 . S
C1184 C1185 1.391 . S
C1184 C1186 1.394 . S
C1184 H1200 0.931 . S
C1185 C1184 1.391 . S
C1185 C1189 1.376 . S
C1186 C1184 1.394 . S
C1186 C1187 1.369 . S
C1186 C1190 1.531 . S
C1187 C1186 1.369 . S
C1187 C1188 1.410 . S
C1187 C1195 1.503 . S
C1188 C1187 1.410 . S
C1188 C1189 1.392 . S
C1188 C1191 1.511 . S
C1189 C1185 1.376 . S
C1189 C1188 1.392 . S
C1189 H1201 0.929 . S
C1190 C1186 1.531 . S
C1190 H1202 0.960 . S
C1190 H1203 0.962 . S
C1190 H1204 0.960 . S
C1191 C1188 1.511 . S
C1191 H1205 0.961 . S
C1191 H1206 0.961 . S
C1191 H1207 0.961 . S
C1192 C1193 1.370 . S
C1192 C1194 1.363 . S
C1192 H1208 0.931 . S
C1193 C1192 1.370 . S
C1193 C1197 1.408 . S
C1194 C1192 1.363 . S
C1194 C1195 1.370 . S
C1194 C1198 1.524 . S
C1195 C1187 1.503 . S
C1195 C1194 1.370 . S
C1195 C1196 1.403 . S
C1196 C1195 1.403 . S
C1196 C1197 1.404 . S
C1196 C1199 1.539 . S
C1197 C1193 1.408 . S
C1197 C1196 1.404 . S
C1197 H1209 0.930 . S
C1198 C1194 1.524 . S
C1198 H1210 0.956 . S
C1198 H1211 0.961 . S
C1198 H1212 0.961 . S
C1199 C1196 1.539 . S
C1199 H1213 0.958 . S
C1199 H1214 0.961 . S
C1199 H1215 0.960 . S
H1200 C1184 0.931 . S
H1201 C1189 0.929 . S
H1202 C1190 0.960 . S
H1203 C1190 0.962 . S
H1204 C1190 0.960 . S
H1205 C1191 0.961 . S
H1206 C1191 0.961 . S
H1207 C1191 0.961 . S
H1208 C1192 0.931 . S
H1209 C1197 0.930 . S
H1210 C1198 0.956 . S
H1211 C1198 0.961 . S
H1212 C1198 0.961 . S
H1213 C1199 0.958 . S
H1214 C1199 0.961 . S
H1215 C1199 0.960 . S
C1216 C1217 1.391 . S
C1216 C1218 1.394 . S
C1216 H1232 0.931 . S
C1217 C1216 1.391 . S
C1217 C1221 1.376 . S
C1218 C1216 1.394 . S
C1218 C1219 1.369 . S
C1218 C1222 1.531 . S
C1219 C1218 1.369 . S
C1219 C1220 1.410 . S
C1219 C1227 1.503 . S
C1220 C1219 1.410 . S
C1220 C1221 1.392 . S
C1220 C1223 1.511 . S
C1221 C1217 1.376 . S
C1221 C1220 1.392 . S
C1221 H1233 0.929 . S
C1222 C1218 1.531 . S
C1222 H1234 0.960 . S
C1222 H1235 0.962 . S
C1222 H1236 0.960 . S
C1223 C1220 1.511 . S
C1223 H1237 0.961 . S
C1223 H1238 0.961 . S
C1223 H1239 0.961 . S
C1224 C1225 1.370 . S
C1224 C1226 1.363 . S
C1224 H1240 0.931 . S
C1225 C1224 1.370 . S
C1225 C1229 1.408 . S
C1226 C1224 1.363 . S
C1226 C1227 1.370 . S
C1226 C1230 1.524 . S
C1227 C1219 1.503 . S
C1227 C1226 1.370 . S
C1227 C1228 1.403 . S
C1228 C1227 1.403 . S
C1228 C1229 1.404 . S
C1228 C1231 1.539 . S
C1229 C1225 1.408 . S
C1229 C1228 1.404 . S
C1229 H1241 0.930 . S
C1230 C1226 1.524 . S
C1230 H1242 0.956 . S
C1230 H1243 0.961 . S
C1230 H1244 0.961 . S
C1231 C1228 1.539 . S
C1231 H1245 0.958 . S
C1231 H1246 0.961 . S
C1231 H1247 0.960 . S
H1232 C1216 0.931 . S
H1233 C1221 0.929 . S
H1234 C1222 0.960 . S
H1235 C1222 0.962 . S
H1236 C1222 0.960 . S
H1237 C1223 0.961 . S
H1238 C1223 0.961 . S
H1239 C1223 0.961 . S
H1240 C1224 0.931 . S
H1241 C1229 0.930 . S
H1242 C1230 0.956 . S
H1243 C1230 0.961 . S
H1244 C1230 0.961 . S
H1245 C1231 0.958 . S
H1246 C1231 0.961 . S
H1247 C1231 0.960 . S
C1248 C1249 1.391 . S
C1248 C1250 1.394 . S
C1248 H1264 0.931 . S
C1249 C1248 1.391 . S
C1249 C1253 1.376 . S
C1250 C1248 1.394 . S
C1250 C1251 1.369 . S
C1250 C1254 1.531 . S
C1251 C1250 1.369 . S
C1251 C1252 1.410 . S
C1251 C1259 1.503 . S
C1252 C1251 1.410 . S
C1252 C1253 1.392 . S
C1252 C1255 1.511 . S
C1253 C1249 1.376 . S
C1253 C1252 1.392 . S
C1253 H1265 0.929 . S
C1254 C1250 1.531 . S
C1254 H1266 0.960 . S
C1254 H1267 0.962 . S
C1254 H1268 0.960 . S
C1255 C1252 1.511 . S
C1255 H1269 0.961 . S
C1255 H1270 0.961 . S
C1255 H1271 0.961 . S
C1256 C1257 1.370 . S
C1256 C1258 1.363 . S
C1256 H1272 0.931 . S
C1257 C1256 1.370 . S
C1257 C1261 1.408 . S
C1258 C1256 1.363 . S
C1258 C1259 1.370 . S
C1258 C1262 1.524 . S
C1259 C1251 1.503 . S
C1259 C1258 1.370 . S
C1259 C1260 1.403 . S
C1260 C1259 1.403 . S
C1260 C1261 1.404 . S
C1260 C1263 1.539 . S
C1261 C1257 1.408 . S
C1261 C1260 1.404 . S
C1261 H1273 0.930 . S
C1262 C1258 1.524 . S
C1262 H1274 0.956 . S
C1262 H1275 0.961 . S
C1262 H1276 0.961 . S
C1263 C1260 1.539 . S
C1263 H1277 0.958 . S
C1263 H1278 0.961 . S
C1263 H1279 0.960 . S
H1264 C1248 0.931 . S
H1265 C1253 0.929 . S
H1266 C1254 0.960 . S
H1267 C1254 0.962 . S
H1268 C1254 0.960 . S
H1269 C1255 0.961 . S
H1270 C1255 0.961 . S
H1271 C1255 0.961 . S
H1272 C1256 0.931 . S
H1273 C1261 0.930 . S
H1274 C1262 0.956 . S
H1275 C1262 0.961 . S
H1276 C1262 0.961 . S
H1277 C1263 0.958 . S
H1278 C1263 0.961 . S
H1279 C1263 0.960 . S
C1280 C1281 1.391 . S
C1280 C1282 1.394 . S
C1280 H1296 0.931 . S
C1281 C1280 1.391 . S
C1281 C1285 1.376 . S
C1282 C1280 1.394 . S
C1282 C1283 1.369 . S
C1282 C1286 1.531 . S
C1283 C1282 1.369 . S
C1283 C1284 1.410 . S
C1283 C1291 1.503 . S
C1284 C1283 1.410 . S
C1284 C1285 1.392 . S
C1284 C1287 1.511 . S
C1285 C1281 1.376 . S
C1285 C1284 1.392 . S
C1285 H1297 0.929 . S
C1286 C1282 1.531 . S
C1286 H1298 0.960 . S
C1286 H1299 0.962 . S
C1286 H1300 0.960 . S
C1287 C1284 1.511 . S
C1287 H1301 0.961 . S
C1287 H1302 0.961 . S
C1287 H1303 0.961 . S
C1288 C1289 1.370 . S
C1288 C1290 1.363 . S
C1288 H1304 0.931 . S
C1289 C1288 1.370 . S
C1289 C1293 1.408 . S
C1290 C1288 1.363 . S
C1290 C1291 1.370 . S
C1290 C1294 1.524 . S
C1291 C1283 1.503 . S
C1291 C1290 1.370 . S
C1291 C1292 1.403 . S
C1292 C1291 1.403 . S
C1292 C1293 1.404 . S
C1292 C1295 1.539 . S
C1293 C1289 1.408 . S
C1293 C1292 1.404 . S
C1293 H1305 0.930 . S
C1294 C1290 1.524 . S
C1294 H1306 0.956 . S
C1294 H1307 0.961 . S
C1294 H1308 0.961 . S
C1295 C1292 1.539 . S
C1295 H1309 0.958 . S
C1295 H1310 0.961 . S
C1295 H1311 0.960 . S
H1296 C1280 0.931 . S
H1297 C1285 0.929 . S
H1298 C1286 0.960 . S
H1299 C1286 0.962 . S
H1300 C1286 0.960 . S
H1301 C1287 0.961 . S
H1302 C1287 0.961 . S
H1303 C1287 0.961 . S
H1304 C1288 0.931 . S
H1305 C1293 0.930 . S
H1306 C1294 0.956 . S
H1307 C1294 0.961 . S
H1308 C1294 0.961 . S
H1309 C1295 0.958 . S
H1310 C1295 0.961 . S
H1311 C1295 0.960 . S
C1312 C1313 1.391 . S
C1312 C1314 1.394 . S
C1312 H1328 0.931 . S
C1313 C1312 1.391 . S
C1313 C1317 1.376 . S
C1314 C1312 1.394 . S
C1314 C1315 1.369 . S
C1314 C1318 1.531 . S
C1315 C1314 1.369 . S
C1315 C1316 1.410 . S
C1315 C1323 1.503 . S
C1316 C1315 1.410 . S
C1316 C1317 1.392 . S
C1316 C1319 1.511 . S
C1317 C1313 1.376 . S
C1317 C1316 1.392 . S
C1317 H1329 0.929 . S
C1318 C1314 1.531 . S
C1318 H1330 0.960 . S
C1318 H1331 0.962 . S
C1318 H1332 0.960 . S
C1319 C1316 1.511 . S
C1319 H1333 0.961 . S
C1319 H1334 0.961 . S
C1319 H1335 0.961 . S
C1320 C1321 1.370 . S
C1320 C1322 1.363 . S
C1320 H1336 0.931 . S
C1321 C1320 1.370 . S
C1321 C1325 1.408 . S
C1322 C1320 1.363 . S
C1322 C1323 1.370 . S
C1322 C1326 1.524 . S
C1323 C1315 1.503 . S
C1323 C1322 1.370 . S
C1323 C1324 1.403 . S
C1324 C1323 1.403 . S
C1324 C1325 1.404 . S
C1324 C1327 1.539 . S
C1325 C1321 1.408 . S
C1325 C1324 1.404 . S
C1325 H1337 0.930 . S
C1326 C1322 1.524 . S
C1326 H1338 0.956 . S
C1326 H1339 0.961 . S
C1326 H1340 0.961 . S
C1327 C1324 1.539 . S
C1327 H1341 0.958 . S
C1327 H1342 0.961 . S
C1327 H1343 0.960 . S
H1328 C1312 0.931 . S
H1329 C1317 0.929 . S
H1330 C1318 0.960 . S
H1331 C1318 0.962 . S
H1332 C1318 0.960 . S
H1333 C1319 0.961 . S
H1334 C1319 0.961 . S
H1335 C1319 0.961 . S
H1336 C1320 0.931 . S
H1337 C1325 0.930 . S
H1338 C1326 0.956 . S
H1339 C1326 0.961 . S
H1340 C1326 0.961 . S
H1341 C1327 0.958 . S
H1342 C1327 0.961 . S
H1343 C1327 0.960 . S
C1344 C1345 1.391 . S
C1344 C1346 1.394 . S
C1344 H1360 0.931 . S
C1345 C1344 1.391 . S
C1345 C1349 1.376 . S
C1346 C1344 1.394 . S
C1346 C1347 1.369 . S
C1346 C1350 1.531 . S
C1347 C1346 1.369 . S
C1347 C1348 1.410 . S
C1347 C1355 1.503 1_554 S
C1348 C1347 1.410 . S
C1348 C1349 1.392 . S
C1348 C1351 1.511 . S
C1349 C1345 1.376 . S
C1349 C1348 1.392 . S
C1349 H1361 0.929 . S
C1350 C1346 1.531 . S
C1350 H1362 0.960 1_554 S
C1350 H1363 0.962 . S
C1350 H1364 0.960 . S
C1351 C1348 1.511 . S
C1351 H1365 0.961 . S
C1351 H1366 0.961 1_554 S
C1351 H1367 0.961 . S
C1352 C1353 1.370 . S
C1352 C1354 1.363 . S
C1352 H1368 0.931 . S
C1353 C1352 1.370 . S
C1353 C1357 1.408 . S
C1354 C1352 1.363 . S
C1354 C1355 1.370 . S
C1354 C1358 1.524 . S
C1355 C1347 1.503 1_556 S
C1355 C1354 1.370 . S
C1355 C1356 1.403 . S
C1356 C1355 1.403 . S
C1356 C1357 1.404 . S
C1356 C1359 1.539 . S
C1357 C1353 1.408 . S
C1357 C1356 1.404 . S
C1357 H1369 0.930 . S
C1358 C1354 1.524 . S
C1358 H1370 0.956 . S
C1358 H1371 0.961 . S
C1358 H1372 0.961 . S
C1359 C1356 1.539 . S
C1359 H1373 0.958 . S
C1359 H1374 0.961 . S
C1359 H1375 0.960 1_556 S
H1360 C1344 0.931 . S
H1361 C1349 0.929 . S
H1362 C1350 0.960 1_556 S
H1363 C1350 0.962 . S
H1364 C1350 0.960 . S
H1365 C1351 0.961 . S
H1366 C1351 0.961 1_556 S
H1367 C1351 0.961 . S
H1368 C1352 0.931 . S
H1369 C1357 0.930 . S
H1370 C1358 0.956 . S
H1371 C1358 0.961 . S
H1372 C1358 0.961 . S
H1373 C1359 0.958 . S
H1374 C1359 0.961 . S
H1375 C1359 0.960 1_554 S
C1376 C1377 1.391 . S
C1376 C1378 1.394 . S
C1376 H1392 0.931 . S
C1377 C1376 1.391 . S
C1377 C1381 1.376 . S
C1378 C1376 1.394 . S
C1378 C1379 1.369 . S
C1378 C1382 1.531 . S
C1379 C1378 1.369 . S
C1379 C1380 1.410 . S
C1379 C1387 1.503 . S
C1380 C1379 1.410 . S
C1380 C1381 1.392 . S
C1380 C1383 1.511 . S
C1381 C1377 1.376 . S
C1381 C1380 1.392 . S
C1381 H1393 0.929 . S
C1382 C1378 1.531 . S
C1382 H1394 0.960 . S
C1382 H1395 0.962 . S
C1382 H1396 0.960 . S
C1383 C1380 1.511 . S
C1383 H1397 0.961 . S
C1383 H1398 0.961 . S
C1383 H1399 0.961 . S
C1384 C1385 1.370 . S
C1384 C1386 1.363 . S
C1384 H1400 0.931 . S
C1385 C1384 1.370 . S
C1385 C1389 1.408 . S
C1386 C1384 1.363 . S
C1386 C1387 1.370 . S
C1386 C1390 1.524 . S
C1387 C1379 1.503 . S
C1387 C1386 1.370 . S
C1387 C1388 1.403 . S
C1388 C1387 1.403 . S
C1388 C1389 1.404 . S
C1388 C1391 1.539 . S
C1389 C1385 1.408 . S
C1389 C1388 1.404 . S
C1389 H1401 0.930 . S
C1390 C1386 1.524 . S
C1390 H1402 0.956 . S
C1390 H1403 0.961 . S
C1390 H1404 0.961 . S
C1391 C1388 1.539 . S
C1391 H1405 0.958 . S
C1391 H1406 0.961 . S
C1391 H1407 0.960 . S
H1392 C1376 0.931 . S
H1393 C1381 0.929 . S
H1394 C1382 0.960 . S
H1395 C1382 0.962 . S
H1396 C1382 0.960 . S
H1397 C1383 0.961 . S
H1398 C1383 0.961 . S
H1399 C1383 0.961 . S
H1400 C1384 0.931 . S
H1401 C1389 0.930 . S
H1402 C1390 0.956 . S
H1403 C1390 0.961 . S
H1404 C1390 0.961 . S
H1405 C1391 0.958 . S
H1406 C1391 0.961 . S
H1407 C1391 0.960 . S
C1408 C1409 1.391 1_455 S
C1408 C1410 1.394 . S
C1408 H1424 0.931 . S
C1409 C1408 1.391 1_655 S
C1409 C1413 1.376 . S
C1410 C1408 1.394 . S
C1410 C1411 1.369 1_455 S
C1410 C1414 1.531 . S
C1411 C1410 1.369 1_655 S
C1411 C1412 1.410 . S
C1411 C1419 1.503 1_554 S
C1412 C1411 1.410 . S
C1412 C1413 1.392 . S
C1412 C1415 1.511 . S
C1413 C1409 1.376 . S
C1413 C1412 1.392 . S
C1413 H1425 0.929 . S
C1414 C1410 1.531 . S
C1414 H1426 0.960 . S
C1414 H1427 0.962 . S
C1414 H1428 0.960 . S
C1415 C1412 1.511 . S
C1415 H1429 0.961 . S
C1415 H1430 0.961 1_554 S
C1415 H1431 0.961 . S
C1416 C1417 1.370 1_455 S
C1416 C1418 1.363 . S
C1416 H1432 0.931 . S
C1417 C1416 1.370 1_655 S
C1417 C1421 1.408 . S
C1418 C1416 1.363 . S
C1418 C1419 1.370 1_455 S
C1418 C1422 1.524 . S
C1419 C1411 1.503 1_556 S
C1419 C1418 1.370 1_655 S
C1419 C1420 1.403 . S
C1420 C1419 1.403 . S
C1420 C1421 1.404 . S
C1420 C1423 1.539 . S
C1421 C1417 1.408 . S
C1421 C1420 1.404 . S
C1421 H1433 0.930 . S
C1422 C1418 1.524 . S
C1422 H1434 0.956 . S
C1422 H1435 0.961 1_455 S
C1422 H1436 0.961 . S
C1423 C1420 1.539 . S
C1423 H1437 0.958 . S
C1423 H1438 0.961 . S
C1423 H1439 0.960 1_556 S
H1424 C1408 0.931 . S
H1425 C1413 0.929 . S
H1426 C1414 0.960 . S
H1427 C1414 0.962 . S
H1428 C1414 0.960 . S
H1429 C1415 0.961 . S
H1430 C1415 0.961 1_556 S
H1431 C1415 0.961 . S
H1432 C1416 0.931 . S
H1433 C1421 0.930 . S
H1434 C1422 0.956 . S
H1435 C1422 0.961 1_655 S
H1436 C1422 0.961 . S
H1437 C1423 0.958 . S
H1438 C1423 0.961 . S
H1439 C1423 0.960 1_554 S
C1440 C1441 1.391 . S
C1440 C1442 1.394 . S
C1440 H1456 0.931 . S
C1441 C1440 1.391 . S
C1441 C1445 1.376 1_565 S
C1442 C1440 1.394 . S
C1442 C1443 1.369 . S
C1442 C1446 1.531 . S
C1443 C1442 1.369 . S
C1443 C1444 1.410 1_565 S
C1443 C1451 1.503 . S
C1444 C1443 1.410 1_545 S
C1444 C1445 1.392 . S
C1444 C1447 1.511 . S
C1445 C1441 1.376 1_545 S
C1445 C1444 1.392 . S
C1445 H1457 0.929 . S
C1446 C1442 1.531 . S
C1446 H1458 0.960 . S
C1446 H1459 0.962 . S
C1446 H1460 0.960 . S
C1447 C1444 1.511 . S
C1447 H1461 0.961 . S
C1447 H1462 0.961 . S
C1447 H1463 0.961 . S
C1448 C1449 1.370 1_545 S
C1448 C1450 1.363 . S
C1448 H1464 0.931 . S
C1449 C1448 1.370 1_565 S
C1449 C1453 1.408 . S
C1450 C1448 1.363 . S
C1450 C1451 1.370 1_545 S
C1450 C1454 1.524 . S
C1451 C1443 1.503 . S
C1451 C1450 1.370 1_565 S
C1451 C1452 1.403 . S
C1452 C1451 1.403 . S
C1452 C1453 1.404 . S
C1452 C1455 1.539 . S
C1453 C1449 1.408 . S
C1453 C1452 1.404 . S
C1453 H1465 0.930 . S
C1454 C1450 1.524 . S
C1454 H1466 0.956 . S
C1454 H1467 0.961 . S
C1454 H1468 0.961 . S
C1455 C1452 1.539 . S
C1455 H1469 0.958 . S
C1455 H1470 0.961 . S
C1455 H1471 0.960 . S
H1456 C1440 0.931 . S
H1457 C1445 0.929 . S
H1458 C1446 0.960 . S
H1459 C1446 0.962 . S
H1460 C1446 0.960 . S
H1461 C1447 0.961 . S
H1462 C1447 0.961 . S
H1463 C1447 0.961 . S
H1464 C1448 0.931 . S
H1465 C1453 0.930 . S
H1466 C1454 0.956 . S
H1467 C1454 0.961 . S
H1468 C1454 0.961 . S
H1469 C1455 0.958 . S
H1470 C1455 0.961 . S
H1471 C1455 0.960 . S
C1472 C1473 1.391 . S
C1472 C1474 1.394 . S
C1472 H1488 0.931 . S
C1473 C1472 1.391 . S
C1473 C1477 1.376 . S
C1474 C1472 1.394 . S
C1474 C1475 1.369 . S
C1474 C1478 1.531 . S
C1475 C1474 1.369 . S
C1475 C1476 1.410 . S
C1475 C1483 1.503 1_556 S
C1476 C1475 1.410 . S
C1476 C1477 1.392 . S
C1476 C1479 1.511 . S
C1477 C1473 1.376 . S
C1477 C1476 1.392 . S
C1477 H1489 0.929 . S
C1478 C1474 1.531 . S
C1478 H1490 0.960 1_556 S
C1478 H1491 0.956 1_556 S
C1478 H1492 0.960 . S
C1479 C1476 1.511 . S
C1479 H1493 0.961 . S
C1479 H1494 0.961 . S
C1479 H1495 0.961 . S
C1480 C1481 1.370 . S
C1480 C1482 1.363 . S
C1480 H1496 0.931 . S
C1481 C1480 1.370 . S
C1481 C1485 1.408 . S
C1482 C1480 1.363 . S
C1482 C1483 1.370 . S
C1482 C1486 1.524 . S
C1483 C1475 1.503 1_554 S
C1483 C1482 1.370 . S
C1483 C1484 1.403 . S
C1484 C1483 1.403 . S
C1484 C1485 1.404 . S
C1484 C1487 1.539 . S
C1485 C1481 1.408 . S
C1485 C1484 1.404 . S
C1485 H1497 0.930 . S
C1486 C1482 1.524 . S
C1486 H1498 0.956 . S
C1486 H1499 0.961 1_554 S
C1486 H1500 0.961 . S
C1487 C1484 1.539 . S
C1487 H1501 0.958 . S
C1487 H1502 0.961 . S
C1487 H1503 0.960 1_554 S
H1488 C1472 0.931 . S
H1489 C1477 0.929 . S
H1490 C1478 0.960 1_554 S
H1491 C1478 0.956 1_554 S
H1492 C1478 0.960 . S
H1493 C1479 0.961 . S
H1494 C1479 0.961 . S
H1495 C1479 0.961 . S
H1496 C1480 0.931 . S
H1497 C1485 0.930 . S
H1498 C1486 0.956 . S
H1499 C1486 0.961 1_556 S
H1500 C1486 0.961 . S
H1501 C1487 0.958 . S
H1502 C1487 0.961 . S
H1503 C1487 0.960 1_556 S
C1504 C1505 1.391 . S
C1504 C1506 1.394 . S
C1504 H1520 0.931 . S
C1505 C1504 1.391 . S
C1505 C1509 1.376 . S
C1506 C1504 1.394 . S
C1506 C1507 1.369 . S
C1506 C1510 1.531 . S
C1507 C1506 1.369 . S
C1507 C1508 1.410 . S
C1507 C1515 1.503 . S
C1508 C1507 1.410 . S
C1508 C1509 1.392 . S
C1508 C1511 1.511 . S
C1509 C1505 1.376 . S
C1509 C1508 1.392 . S
C1509 H1521 0.929 . S
C1510 C1506 1.531 . S
C1510 H1522 0.960 . S
C1510 H1523 0.962 . S
C1510 H1524 0.960 . S
C1511 C1508 1.511 . S
C1511 H1525 0.961 . S
C1511 H1526 0.961 . S
C1511 H1527 0.961 . S
C1512 C1513 1.370 . S
C1512 C1514 1.363 . S
C1512 H1528 0.931 . S
C1513 C1512 1.370 . S
C1513 C1517 1.408 . S
C1514 C1512 1.363 . S
C1514 C1515 1.370 . S
C1514 C1518 1.524 . S
C1515 C1507 1.503 . S
C1515 C1514 1.370 . S
C1515 C1516 1.403 . S
C1516 C1515 1.403 . S
C1516 C1517 1.404 . S
C1516 C1519 1.539 . S
C1517 C1513 1.408 . S
C1517 C1516 1.404 . S
C1517 H1529 0.930 . S
C1518 C1514 1.524 . S
C1518 H1530 0.956 . S
C1518 H1531 0.961 . S
C1518 H1532 0.961 . S
C1519 C1516 1.539 . S
C1519 H1533 0.958 . S
C1519 H1534 0.961 . S
C1519 H1535 0.960 . S
H1520 C1504 0.931 . S
H1521 C1509 0.929 . S
H1522 C1510 0.960 . S
H1523 C1510 0.962 . S
H1524 C1510 0.960 . S
H1525 C1511 0.961 . S
H1526 C1511 0.961 . S
H1527 C1511 0.961 . S
H1528 C1512 0.931 . S
H1529 C1517 0.930 . S
H1530 C1518 0.956 . S
H1531 C1518 0.961 . S
H1532 C1518 0.961 . S
H1533 C1519 0.958 . S
H1534 C1519 0.961 . S
H1535 C1519 0.960 . S
C1536 C1537 1.391 1_655 S
C1536 C1538 1.394 . S
C1536 H1552 0.931 . S
C1537 C1536 1.391 1_455 S
C1537 C1541 1.376 . S
C1538 C1536 1.394 . S
C1538 C1539 1.369 1_655 S
C1538 C1542 1.531 . S
C1539 C1538 1.369 1_455 S
C1539 C1540 1.410 . S
C1539 C1547 1.503 1_554 S
C1540 C1539 1.410 . S
C1540 C1541 1.392 . S
C1540 C1543 1.511 . S
C1541 C1537 1.376 . S
C1541 C1540 1.392 . S
C1541 H1553 0.929 . S
C1542 C1538 1.531 . S
C1542 H1554 0.960 1_554 S
C1542 H1555 0.962 . S
C1542 H1556 0.960 . S
C1543 C1540 1.511 . S
C1543 H1557 0.961 . S
C1543 H1558 0.961 . S
C1543 H1559 0.961 . S
C1544 C1545 1.370 1_655 S
C1544 C1546 1.363 . S
C1544 H1560 0.931 . S
C1545 C1544 1.370 1_455 S
C1545 C1549 1.408 . S
C1546 C1544 1.363 . S
C1546 C1547 1.370 1_655 S
C1546 C1550 1.524 . S
C1547 C1539 1.503 1_556 S
C1547 C1546 1.370 1_455 S
C1547 C1548 1.403 . S
C1548 C1547 1.403 . S
C1548 C1549 1.404 . S
C1548 C1551 1.539 . S
C1549 C1545 1.408 . S
C1549 C1548 1.404 . S
C1549 H1561 0.930 . S
C1550 C1546 1.524 . S
C1550 H1562 0.956 1_556 S
C1550 H1563 0.961 1_556 S
C1550 H1564 0.961 . S
C1551 C1548 1.539 . S
C1551 H1565 0.958 . S
C1551 H1566 0.961 . S
C1551 H1567 0.960 . S
H1552 C1536 0.931 . S
H1553 C1541 0.929 . S
H1554 C1542 0.960 1_556 S
H1555 C1542 0.962 . S
H1556 C1542 0.960 . S
H1557 C1543 0.961 . S
H1558 C1543 0.961 . S
H1559 C1543 0.961 . S
H1560 C1544 0.931 . S
H1561 C1549 0.930 . S
H1562 C1550 0.956 1_554 S
H1563 C1550 0.961 1_554 S
H1564 C1550 0.961 . S
H1565 C1551 0.958 . S
H1566 C1551 0.961 . S
H1567 C1551 0.960 . S
C1568 C1569 1.391 . S
C1568 C1570 1.394 . S
C1568 H1584 0.931 . S
C1569 C1568 1.391 . S
C1569 C1573 1.376 1_545 S
C1570 C1568 1.394 . S
C1570 C1571 1.369 . S
C1570 C1574 1.531 . S
C1571 C1570 1.369 . S
C1571 C1572 1.410 1_545 S
C1571 C1579 1.503 . S
C1572 C1571 1.410 1_565 S
C1572 C1573 1.392 . S
C1572 C1575 1.511 . S
C1573 C1569 1.376 1_565 S
C1573 C1572 1.392 . S
C1573 H1585 0.929 . S
C1574 C1570 1.531 . S
C1574 H1586 0.960 . S
C1574 H1587 0.962 . S
C1574 H1588 0.960 . S
C1575 C1572 1.511 . S
C1575 H1589 0.961 . S
C1575 H1590 0.961 . S
C1575 H1591 0.961 . S
C1576 C1577 1.370 1_565 S
C1576 C1578 1.363 . S
C1576 H1592 0.931 . S
C1577 C1576 1.370 1_545 S
C1577 C1581 1.408 . S
C1578 C1576 1.363 . S
C1578 C1579 1.370 1_565 S
C1578 C1582 1.524 . S
C1579 C1571 1.503 . S
C1579 C1578 1.370 1_545 S
C1579 C1580 1.403 . S
C1580 C1579 1.403 . S
C1580 C1581 1.404 . S
C1580 C1583 1.539 . S
C1581 C1577 1.408 . S
C1581 C1580 1.404 . S
C1581 H1593 0.930 . S
C1582 C1578 1.524 . S
C1582 H1594 0.956 . S
C1582 H1595 0.961 . S
C1582 H1596 0.961 . S
C1583 C1580 1.539 . S
C1583 H1597 0.958 . S
C1583 H1598 0.961 . S
C1583 H1599 0.960 . S
H1584 C1568 0.931 . S
H1585 C1573 0.929 . S
H1586 C1574 0.960 . S
H1587 C1574 0.962 . S
H1588 C1574 0.960 . S
H1589 C1575 0.961 . S
H1590 C1575 0.961 . S
H1591 C1575 0.961 . S
H1592 C1576 0.931 . S
H1593 C1581 0.930 . S
H1594 C1582 0.956 . S
H1595 C1582 0.961 . S
H1596 C1582 0.961 . S
H1597 C1583 0.958 . S
H1598 C1583 0.961 . S
H1599 C1583 0.960 . S
C577 C3 1.284 . S
C585 C255 1.288 . S
C609 C39 1.286 . S
C617 C147 1.287 . S
C641 C75 1.287 . S
C649 C183 1.289 . S
C673 C111 1.281 . S
C681 C219 1.286 . S
C705 C291 1.293 . S
C713 C543 1.291 . S
C737 C435 1.278 . S
C745 C327 1.284 . S
C769 C363 1.282 . S
C777 C471 1.287 . S
C801 C399 1.285 . S
C809 C507 1.288 . S
C833 C4 1.404 . S
C841 C326 1.440 . S
C865 C40 1.364 . S
C873 C362 1.439 . S
C897 C398 1.438 . S
C905 C76 1.406 . S
C929 C112 1.364 . S
C937 C290 1.439 . S
C961 C148 1.390 . S
C969 C542 1.439 . S
C993 C434 1.450 . S
C1001 C184 1.404 . S
C1025 C470 1.429 . S
C1033 C220 1.390 . S
C1057 C506 1.437 . S
C1065 C256 1.383 . S
C1089 C38 1.432 . S
C1097 C292 1.403 . S
C1121 C74 1.430 . S
C1129 C328 1.400 . S
C1153 C364 1.370 . S
C1161 C110 1.439 . S
C1185 C2 1.450 . S
C1193 C400 1.400 . S
C1217 C436 1.398 . S
C1225 C254 1.447 . S
C1249 C472 1.374 . S
C1257 C146 1.446 . S
C1281 C182 1.436 . S
C1289 C508 1.382 . S
C1313 C218 1.444 . S
C1321 C544 1.385 . S
C1345 C14 1.492 . S
C1353 C158 1.502 . S
C1377 C194 1.467 . S
C1385 C50 1.484 . S
C1409 C86 1.472 . S
C1417 C230 1.494 . S
C1441 C266 1.481 . S
C1449 C122 1.488 . S
C1473 C302 1.459 . S
C1481 C446 1.484 . S
C1505 C482 1.458 . S
C1513 C338 1.486 . S
C1537 C518 1.477 . S
C1545 C374 1.484 . S
C1569 C554 1.460 . S
C1577 C410 1.491 . S
