# Generated by pormake.
# Topology ull, (4)-cn, num edge types: 1
# Building blocks:
#     Node 0, Type 0, BuildingBlock: KUFVIS_clean_sbu_0, # of connection points: 4
#     Node 1, Type 0, BuildingBlock: KUFVIS_clean_sbu_0, # of connection points: 4
#     Node 2, Type 0, BuildingBlock: KUFVIS_clean_sbu_0, # of connection points: 4
#     Node 3, Type 0, BuildingBlock: KUFVIS_clean_sbu_0, # of connection points: 4
#     Node 4, Type 0, BuildingBlock: KUFVIS_clean_sbu_0, # of connection points: 4
#     Node 5, Type 0, BuildingBlock: KUFVIS_clean_sbu_0, # of connection points: 4
#     Node 6, Type 0, BuildingBlock: KUFVIS_clean_sbu_0, # of connection points: 4
#     Node 7, Type 0, BuildingBlock: KUFVIS_clean_sbu_0, # of connection points: 4
#     Node 8, Type 0, BuildingBlock: KUFVIS_clean_sbu_0, # of connection points: 4
#     Node 9, Type 0, BuildingBlock: KUFVIS_clean_sbu_0, # of connection points: 4
#     Node 10, Type 0, BuildingBlock: KUFVIS_clean_sbu_0, # of connection points: 4
#     Node 11, Type 0, BuildingBlock: KUFVIS_clean_sbu_0, # of connection points: 4
#     Node 12, Type 0, BuildingBlock: KUFVIS_clean_sbu_0, # of connection points: 4
#     Node 13, Type 0, BuildingBlock: KUFVIS_clean_sbu_0, # of connection points: 4
#     Node 14, Type 0, BuildingBlock: KUFVIS_clean_sbu_0, # of connection points: 4
#     Node 15, Type 0, BuildingBlock: KUFVIS_clean_sbu_0, # of connection points: 4
#     Node 16, Type 0, BuildingBlock: KUFVIS_clean_sbu_0, # of connection points: 4
#     Node 17, Type 0, BuildingBlock: KUFVIS_clean_sbu_0, # of connection points: 4
#     Node 18, Type 0, BuildingBlock: KUFVIS_clean_sbu_0, # of connection points: 4
#     Node 19, Type 0, BuildingBlock: KUFVIS_clean_sbu_0, # of connection points: 4
#     Node 20, Type 0, BuildingBlock: KUFVIS_clean_sbu_0, # of connection points: 4
#     Node 21, Type 0, BuildingBlock: KUFVIS_clean_sbu_0, # of connection points: 4
#     Node 22, Type 0, BuildingBlock: KUFVIS_clean_sbu_0, # of connection points: 4
#     Node 23, Type 0, BuildingBlock: KUFVIS_clean_sbu_0, # of connection points: 4
#     Node 24, Type 0, BuildingBlock: KUFVIS_clean_sbu_0, # of connection points: 4
#     Node 25, Type 0, BuildingBlock: KUFVIS_clean_sbu_0, # of connection points: 4
#     Node 26, Type 0, BuildingBlock: KUFVIS_clean_sbu_0, # of connection points: 4
#     Node 27, Type 0, BuildingBlock: KUFVIS_clean_sbu_0, # of connection points: 4
#     Node 28, Type 0, BuildingBlock: KUFVIS_clean_sbu_0, # of connection points: 4
#     Node 29, Type 0, BuildingBlock: KUFVIS_clean_sbu_0, # of connection points: 4
#     Node 30, Type 0, BuildingBlock: KUFVIS_clean_sbu_0, # of connection points: 4
#     Node 31, Type 0, BuildingBlock: KUFVIS_clean_sbu_0, # of connection points: 4
#     Node 32, Type 0, BuildingBlock: KUFVIS_clean_sbu_0, # of connection points: 4
#     Node 33, Type 0, BuildingBlock: KUFVIS_clean_sbu_0, # of connection points: 4
#     Node 34, Type 0, BuildingBlock: KUFVIS_clean_sbu_0, # of connection points: 4
#     Node 35, Type 0, BuildingBlock: KUFVIS_clean_sbu_0, # of connection points: 4
#     Node 36, Type 0, BuildingBlock: KUFVIS_clean_sbu_0, # of connection points: 4
#     Node 37, Type 0, BuildingBlock: KUFVIS_clean_sbu_0, # of connection points: 4
#     Node 38, Type 0, BuildingBlock: KUFVIS_clean_sbu_0, # of connection points: 4
#     Node 39, Type 0, BuildingBlock: KUFVIS_clean_sbu_0, # of connection points: 4
#     Node 40, Type 0, BuildingBlock: KUFVIS_clean_sbu_0, # of connection points: 4
#     Node 41, Type 0, BuildingBlock: KUFVIS_clean_sbu_0, # of connection points: 4
#     Node 42, Type 0, BuildingBlock: KUFVIS_clean_sbu_0, # of connection points: 4
#     Node 43, Type 0, BuildingBlock: KUFVIS_clean_sbu_0, # of connection points: 4
#     Node 44, Type 0, BuildingBlock: KUFVIS_clean_sbu_0, # of connection points: 4
#     Node 45, Type 0, BuildingBlock: KUFVIS_clean_sbu_0, # of connection points: 4
#     Node 46, Type 0, BuildingBlock: KUFVIS_clean_sbu_0, # of connection points: 4
#     Node 47, Type 0, BuildingBlock: KUFVIS_clean_sbu_0, # of connection points: 4
#     Edge 48, Type (0, 0), BuildingBlock: OJICUG_clean_linker_0, # of connection points: 2
#     Edge 49, Type (0, 0), BuildingBlock: OJICUG_clean_linker_0, # of connection points: 2
#     Edge 50, Type (0, 0), BuildingBlock: OJICUG_clean_linker_0, # of connection points: 2
#     Edge 51, Type (0, 0), BuildingBlock: OJICUG_clean_linker_0, # of connection points: 2
#     Edge 52, Type (0, 0), BuildingBlock: OJICUG_clean_linker_0, # of connection points: 2
#     Edge 53, Type (0, 0), BuildingBlock: OJICUG_clean_linker_0, # of connection points: 2
#     Edge 54, Type (0, 0), BuildingBlock: OJICUG_clean_linker_0, # of connection points: 2
#     Edge 55, Type (0, 0), BuildingBlock: OJICUG_clean_linker_0, # of connection points: 2
#     Edge 56, Type (0, 0), BuildingBlock: OJICUG_clean_linker_0, # of connection points: 2
#     Edge 57, Type (0, 0), BuildingBlock: OJICUG_clean_linker_0, # of connection points: 2
#     Edge 58, Type (0, 0), BuildingBlock: OJICUG_clean_linker_0, # of connection points: 2
#     Edge 59, Type (0, 0), BuildingBlock: OJICUG_clean_linker_0, # of connection points: 2
#     Edge 60, Type (0, 0), BuildingBlock: OJICUG_clean_linker_0, # of connection points: 2
#     Edge 61, Type (0, 0), BuildingBlock: OJICUG_clean_linker_0, # of connection points: 2
#     Edge 62, Type (0, 0), BuildingBlock: OJICUG_clean_linker_0, # of connection points: 2
#     Edge 63, Type (0, 0), BuildingBlock: OJICUG_clean_linker_0, # of connection points: 2
#     Edge 64, Type (0, 0), BuildingBlock: OJICUG_clean_linker_0, # of connection points: 2
#     Edge 65, Type (0, 0), BuildingBlock: OJICUG_clean_linker_0, # of connection points: 2
#     Edge 66, Type (0, 0), BuildingBlock: OJICUG_clean_linker_0, # of connection points: 2
#     Edge 67, Type (0, 0), BuildingBlock: OJICUG_clean_linker_0, # of connection points: 2
#     Edge 68, Type (0, 0), BuildingBlock: OJICUG_clean_linker_0, # of connection points: 2
#     Edge 69, Type (0, 0), BuildingBlock: OJICUG_clean_linker_0, # of connection points: 2
#     Edge 70, Type (0, 0), BuildingBlock: OJICUG_clean_linker_0, # of connection points: 2
#     Edge 71, Type (0, 0), BuildingBlock: OJICUG_clean_linker_0, # of connection points: 2
#     Edge 72, Type (0, 0), BuildingBlock: OJICUG_clean_linker_0, # of connection points: 2
#     Edge 73, Type (0, 0), BuildingBlock: OJICUG_clean_linker_0, # of connection points: 2
#     Edge 74, Type (0, 0), BuildingBlock: OJICUG_clean_linker_0, # of connection points: 2
#     Edge 75, Type (0, 0), BuildingBlock: OJICUG_clean_linker_0, # of connection points: 2
#     Edge 76, Type (0, 0), BuildingBlock: OJICUG_clean_linker_0, # of connection points: 2
#     Edge 77, Type (0, 0), BuildingBlock: OJICUG_clean_linker_0, # of connection points: 2
#     Edge 78, Type (0, 0), BuildingBlock: OJICUG_clean_linker_0, # of connection points: 2
#     Edge 79, Type (0, 0), BuildingBlock: OJICUG_clean_linker_0, # of connection points: 2
#     Edge 80, Type (0, 0), BuildingBlock: OJICUG_clean_linker_0, # of connection points: 2
#     Edge 81, Type (0, 0), BuildingBlock: OJICUG_clean_linker_0, # of connection points: 2
#     Edge 82, Type (0, 0), BuildingBlock: OJICUG_clean_linker_0, # of connection points: 2
#     Edge 83, Type (0, 0), BuildingBlock: OJICUG_clean_linker_0, # of connection points: 2
#     Edge 84, Type (0, 0), BuildingBlock: OJICUG_clean_linker_0, # of connection points: 2
#     Edge 85, Type (0, 0), BuildingBlock: OJICUG_clean_linker_0, # of connection points: 2
#     Edge 86, Type (0, 0), BuildingBlock: OJICUG_clean_linker_0, # of connection points: 2
#     Edge 87, Type (0, 0), BuildingBlock: OJICUG_clean_linker_0, # of connection points: 2
#     Edge 88, Type (0, 0), BuildingBlock: OJICUG_clean_linker_0, # of connection points: 2
#     Edge 89, Type (0, 0), BuildingBlock: OJICUG_clean_linker_0, # of connection points: 2
#     Edge 90, Type (0, 0), BuildingBlock: OJICUG_clean_linker_0, # of connection points: 2
#     Edge 91, Type (0, 0), BuildingBlock: OJICUG_clean_linker_0, # of connection points: 2
#     Edge 92, Type (0, 0), BuildingBlock: OJICUG_clean_linker_0, # of connection points: 2
#     Edge 93, Type (0, 0), BuildingBlock: OJICUG_clean_linker_0, # of connection points: 2
#     Edge 94, Type (0, 0), BuildingBlock: OJICUG_clean_linker_0, # of connection points: 2
#     Edge 95, Type (0, 0), BuildingBlock: OJICUG_clean_linker_0, # of connection points: 2
#     Edge 96, Type (0, 0), BuildingBlock: OJICUG_clean_linker_0, # of connection points: 2
#     Edge 97, Type (0, 0), BuildingBlock: OJICUG_clean_linker_0, # of connection points: 2
#     Edge 98, Type (0, 0), BuildingBlock: OJICUG_clean_linker_0, # of connection points: 2
#     Edge 99, Type (0, 0), BuildingBlock: OJICUG_clean_linker_0, # of connection points: 2
#     Edge 100, Type (0, 0), BuildingBlock: OJICUG_clean_linker_0, # of connection points: 2
#     Edge 101, Type (0, 0), BuildingBlock: OJICUG_clean_linker_0, # of connection points: 2
#     Edge 102, Type (0, 0), BuildingBlock: OJICUG_clean_linker_0, # of connection points: 2
#     Edge 103, Type (0, 0), BuildingBlock: OJICUG_clean_linker_0, # of connection points: 2
#     Edge 104, Type (0, 0), BuildingBlock: OJICUG_clean_linker_0, # of connection points: 2
#     Edge 105, Type (0, 0), BuildingBlock: OJICUG_clean_linker_0, # of connection points: 2
#     Edge 106, Type (0, 0), BuildingBlock: OJICUG_clean_linker_0, # of connection points: 2
#     Edge 107, Type (0, 0), BuildingBlock: OJICUG_clean_linker_0, # of connection points: 2
#     Edge 108, Type (0, 0), BuildingBlock: OJICUG_clean_linker_0, # of connection points: 2
#     Edge 109, Type (0, 0), BuildingBlock: OJICUG_clean_linker_0, # of connection points: 2
#     Edge 110, Type (0, 0), BuildingBlock: OJICUG_clean_linker_0, # of connection points: 2
#     Edge 111, Type (0, 0), BuildingBlock: OJICUG_clean_linker_0, # of connection points: 2
#     Edge 112, Type (0, 0), BuildingBlock: OJICUG_clean_linker_0, # of connection points: 2
#     Edge 113, Type (0, 0), BuildingBlock: OJICUG_clean_linker_0, # of connection points: 2
#     Edge 114, Type (0, 0), BuildingBlock: OJICUG_clean_linker_0, # of connection points: 2
#     Edge 115, Type (0, 0), BuildingBlock: OJICUG_clean_linker_0, # of connection points: 2
#     Edge 116, Type (0, 0), BuildingBlock: OJICUG_clean_linker_0, # of connection points: 2
#     Edge 117, Type (0, 0), BuildingBlock: OJICUG_clean_linker_0, # of connection points: 2
#     Edge 118, Type (0, 0), BuildingBlock: OJICUG_clean_linker_0, # of connection points: 2
#     Edge 119, Type (0, 0), BuildingBlock: OJICUG_clean_linker_0, # of connection points: 2
#     Edge 120, Type (0, 0), BuildingBlock: OJICUG_clean_linker_0, # of connection points: 2
#     Edge 121, Type (0, 0), BuildingBlock: OJICUG_clean_linker_0, # of connection points: 2
#     Edge 122, Type (0, 0), BuildingBlock: OJICUG_clean_linker_0, # of connection points: 2
#     Edge 123, Type (0, 0), BuildingBlock: OJICUG_clean_linker_0, # of connection points: 2
#     Edge 124, Type (0, 0), BuildingBlock: OJICUG_clean_linker_0, # of connection points: 2
#     Edge 125, Type (0, 0), BuildingBlock: OJICUG_clean_linker_0, # of connection points: 2
#     Edge 126, Type (0, 0), BuildingBlock: OJICUG_clean_linker_0, # of connection points: 2
#     Edge 127, Type (0, 0), BuildingBlock: OJICUG_clean_linker_0, # of connection points: 2
#     Edge 128, Type (0, 0), BuildingBlock: OJICUG_clean_linker_0, # of connection points: 2
#     Edge 129, Type (0, 0), BuildingBlock: OJICUG_clean_linker_0, # of connection points: 2
#     Edge 130, Type (0, 0), BuildingBlock: OJICUG_clean_linker_0, # of connection points: 2
#     Edge 131, Type (0, 0), BuildingBlock: OJICUG_clean_linker_0, # of connection points: 2
#     Edge 132, Type (0, 0), BuildingBlock: OJICUG_clean_linker_0, # of connection points: 2
#     Edge 133, Type (0, 0), BuildingBlock: OJICUG_clean_linker_0, # of connection points: 2
#     Edge 134, Type (0, 0), BuildingBlock: OJICUG_clean_linker_0, # of connection points: 2
#     Edge 135, Type (0, 0), BuildingBlock: OJICUG_clean_linker_0, # of connection points: 2
#     Edge 136, Type (0, 0), BuildingBlock: OJICUG_clean_linker_0, # of connection points: 2
#     Edge 137, Type (0, 0), BuildingBlock: OJICUG_clean_linker_0, # of connection points: 2
#     Edge 138, Type (0, 0), BuildingBlock: OJICUG_clean_linker_0, # of connection points: 2
#     Edge 139, Type (0, 0), BuildingBlock: OJICUG_clean_linker_0, # of connection points: 2
#     Edge 140, Type (0, 0), BuildingBlock: OJICUG_clean_linker_0, # of connection points: 2
#     Edge 141, Type (0, 0), BuildingBlock: OJICUG_clean_linker_0, # of connection points: 2
#     Edge 142, Type (0, 0), BuildingBlock: OJICUG_clean_linker_0, # of connection points: 2
#     Edge 143, Type (0, 0), BuildingBlock: OJICUG_clean_linker_0, # of connection points: 2
# Relax obj value: 0.046
# Max RMSD: 0.119
# Mean RMSD: 0.119
data_MOF--net-ull--node1-KUFVIS_clean_sbu_0--edge1-OJICUG_clean_linker_0
_symmetry_space_group_name_H-M    P1
_symmetry_Int_Tables_number       1
_symmetry_cell_setting            triclinic
loop_
_symmetry_equiv_pos_as_xyz
'x, y, z'
_cell_length_a     44.647065
_cell_length_b     44.683337
_cell_length_c     44.668881
_cell_angle_alpha  90.007349
_cell_angle_beta   90.014466
_cell_angle_gamma 89.943923
loop_
_atom_site_label
_atom_site_type_symbol
_atom_site_fract_x
_atom_site_fract_y
_atom_site_fract_z
_atom_type_partial_charge
Mn0 Mn 0.02905 0.3386 0.17894 0.0
Mn1 Mn 0.01376 0.27949 0.13646 0.0
C2 C 0.01222 0.29682 0.2059 0.0
C3 C 0.06303 0.369 0.20568 0.0
C4 C 0.9783 0.3364 0.13445 0.0
O5 O 0.05122 0.34522 0.13886 0.0
O6 O 0.04887 0.29903 0.11836 0.0
C7 C 0.06016 0.23457 0.12191 0.0
N8 N 0.03325 0.24057 0.13528 0.0
C9 C 0.03352 0.18542 0.1518 0.0
C10 C 0.06034 0.18149 0.13689 0.0
C11 C 0.07287 0.20566 0.12143 0.0
C12 C 0.01535 0.21819 0.14471 0.0
H13 H 0.07265 0.25223 0.1112 0.0
C14 C 0.05874 0.32599 0.11892 0.0
O15 O 0.03915 0.37993 0.19322 0.0
O16 O 0.06789 0.34071 0.20149 0.0
N17 N 0.97979 0.2616 0.15544 0.0
C18 C 0.95675 0.27641 0.16949 0.0
C19 C 0.93563 0.26179 0.18743 0.0
C20 C 0.94288 0.23486 0.20102 0.0
C21 C 0.97062 0.22246 0.19495 0.0
C22 C 0.98652 0.23357 0.16334 0.0
H23 H 0.95427 0.30007 0.16811 0.0
O24 O 0.00914 0.32401 0.21541 0.0
O25 O 0.02547 0.29386 0.179 0.0
O26 O 0.98671 0.34717 0.15949 0.0
O27 O 0.99173 0.3144 0.1236 0.0
C28 C 0.98309 0.19305 0.21384 0.0
C29 C 0.02575 0.16506 0.18355 0.0
H30 H 0.07303 0.16103 0.13963 0.0
H31 H 0.09428 0.20255 0.11049 0.0
H32 H 0.9159 0.27377 0.19488 0.0
H33 H 0.9284 0.22543 0.218 0.0
H34 H 0.97138 0.18814 0.23475 0.0
H35 H 0.03869 0.1448 0.18828 0.0
Mn36 Mn 0.66221 0.0271 0.17972 0.0
Mn37 Mn 0.7204 0.0116 0.13353 0.0
C38 C 0.70329 0.00549 0.20287 0.0
C39 C 0.63369 0.05933 0.20951 0.0
C40 C 0.66133 0.97808 0.13421 0.0
O41 O 0.65501 0.05181 0.14187 0.0
O42 O 0.6989 0.0472 0.11668 0.0
C43 C 0.76511 0.06027 0.12309 0.0
N44 N 0.75902 0.03268 0.13466 0.0
C45 C 0.81426 0.03257 0.15383 0.0
C46 C 0.81795 0.06032 0.14054 0.0
C47 C 0.79392 0.0734 0.1249 0.0
C48 C 0.78134 0.01529 0.14538 0.0
H49 H 0.74756 0.07284 0.11217 0.0
C50 C 0.67268 0.05869 0.12046 0.0
O51 O 0.62187 0.03678 0.19569 0.0
O52 O 0.66203 0.06423 0.20504 0.0
N53 N 0.73996 0.97741 0.14959 0.0
C54 C 0.72812 0.94976 0.1548 0.0
C55 C 0.7409 0.92987 0.17556 0.0
C56 C 0.76429 0.9386 0.19444 0.0
C57 C 0.77628 0.96721 0.19187 0.0
C58 C 0.76582 0.98569 0.1617 0.0
H59 H 0.70883 0.94237 0.14267 0.0
O60 O 0.67638 0.00361 0.21343 0.0
O61 O 0.70654 0.02088 0.17713 0.0
O62 O 0.65061 0.98785 0.1585 0.0
O63 O 0.68556 0.98768 0.12348 0.0
C64 C 0.80603 0.97761 0.21191 0.0
C65 C 0.83498 0.0219 0.185 0.0
H66 H 0.83821 0.07304 0.14439 0.0
H67 H 0.7971 0.09541 0.11529 0.0
H68 H 0.73134 0.90777 0.17812 0.0
H69 H 0.77286 0.92318 0.21106 0.0
H70 H 0.81069 0.96415 0.2318 0.0
H71 H 0.85546 0.03401 0.19073 0.0
Mn72 Mn 0.97241 0.66148 0.17958 0.0
Mn73 Mn 0.99315 0.71869 0.13414 0.0
C74 C 0.99315 0.70268 0.20407 0.0
C75 C 0.93853 0.63348 0.20852 0.0
C76 C 0.02549 0.65933 0.13764 0.0
O77 O 0.94891 0.65482 0.14059 0.0
O78 O 0.95949 0.69693 0.11434 0.0
C79 C 0.94526 0.7626 0.11826 0.0
N80 N 0.97184 0.75702 0.1323 0.0
C81 C 0.9697 0.81234 0.15027 0.0
C82 C 0.94325 0.81566 0.13446 0.0
C83 C 0.93177 0.79128 0.11825 0.0
C84 C 0.98811 0.77959 0.14396 0.0
H85 H 0.93376 0.74473 0.10674 0.0
C86 C 0.94567 0.67188 0.1178 0.0
O87 O 0.96116 0.62141 0.19504 0.0
O88 O 0.93436 0.66192 0.20396 0.0
N89 N 0.02566 0.73849 0.15283 0.0
C90 C 0.05254 0.72665 0.16131 0.0
C91 C 0.07024 0.73991 0.18366 0.0
C92 C 0.05955 0.76365 0.20099 0.0
C93 C 0.03122 0.77529 0.19528 0.0
C94 C 0.01611 0.76449 0.16344 0.0
H95 H 0.06098 0.70693 0.15073 0.0
O96 O 0.99467 0.67568 0.21444 0.0
O97 O 0.97978 0.70579 0.17716 0.0
O98 O 0.01236 0.64806 0.16007 0.0
O99 O 0.01815 0.68425 0.12698 0.0
C100 C 0.01844 0.80497 0.21378 0.0
C101 C 0.97683 0.83323 0.18212 0.0
H102 H 0.93005 0.83584 0.13687 0.0
H103 H 0.91062 0.79408 0.10672 0.0
H104 H 0.09195 0.7304 0.1888 0.0
H105 H 0.07313 0.77261 0.21895 0.0
H106 H 0.02984 0.81007 0.23481 0.0
H107 H 0.96397 0.85364 0.18635 0.0
Mn108 Mn 0.33957 0.9725 0.17941 0.0
Mn109 Mn 0.28179 0.98899 0.13276 0.0
C110 C 0.29859 0.99496 0.20228 0.0
C111 C 0.36688 0.9392 0.20943 0.0
C112 C 0.34106 0.02212 0.13403 0.0
O113 O 0.34668 0.94747 0.14172 0.0
O114 O 0.30349 0.95349 0.11566 0.0
C115 C 0.23728 0.94024 0.12179 0.0
N116 N 0.2432 0.96782 0.1335 0.0
C117 C 0.18798 0.96751 0.15261 0.0
C118 C 0.18444 0.93982 0.13918 0.0
C119 C 0.20854 0.92696 0.12347 0.0
C120 C 0.22078 0.98505 0.14422 0.0
H121 H 0.25491 0.9278 0.11086 0.0
C122 C 0.32936 0.9413 0.1198 0.0
O123 O 0.37958 0.96152 0.196 0.0
O124 O 0.33843 0.93543 0.2048 0.0
N125 N 0.26203 0.02307 0.14881 0.0
C126 C 0.27377 0.05073 0.1542 0.0
C127 C 0.26078 0.07055 0.17491 0.0
C128 C 0.23733 0.06168 0.19363 0.0
C129 C 0.22551 0.03301 0.19094 0.0
C130 C 0.23609 0.01471 0.16068 0.0
H131 H 0.29315 0.05819 0.14227 0.0
O132 O 0.32548 0.99642 0.21297 0.0
O133 O 0.29533 0.97961 0.17649 0.0
O134 O 0.3521 0.01157 0.15793 0.0
O135 O 0.31659 0.01305 0.12341 0.0
C136 C 0.19584 0.02228 0.21095 0.0
C137 C 0.16723 0.97788 0.18385 0.0
H138 H 0.16425 0.92697 0.14295 0.0
H139 H 0.20547 0.90498 0.11373 0.0
H140 H 0.27026 0.09267 0.1776 0.0
H141 H 0.22863 0.07701 0.21027 0.0
H142 H 0.19104 0.03566 0.23086 0.0
H143 H 0.14684 0.9656 0.18953 0.0
Mn144 Mn 0.02682 0.66175 0.81969 0.0
Mn145 Mn 0.00348 0.7194 0.86439 0.0
C146 C 0.00231 0.70178 0.7953 0.0
C147 C 0.06209 0.63506 0.79065 0.0
C148 C 0.97324 0.65905 0.86145 0.0
O149 O 0.05224 0.65665 0.85787 0.0
O150 O 0.03717 0.69769 0.88293 0.0
C151 C 0.05337 0.76168 0.87791 0.0
N152 N 0.02555 0.75727 0.86593 0.0
C153 C 0.02929 0.8119 0.8468 0.0
C154 C 0.05667 0.81429 0.86112 0.0
C155 C 0.06806 0.78964 0.87686 0.0
C156 C 0.0095 0.78041 0.85492 0.0
H157 H 0.06516 0.74337 0.88828 0.0
C158 C 0.05373 0.67438 0.88026 0.0
O159 O 0.04045 0.62198 0.80474 0.0
O160 O 0.06394 0.66392 0.79387 0.0
N161 N 0.97069 0.73999 0.84726 0.0
C162 C 0.94313 0.72887 0.84017 0.0
C163 C 0.92472 0.74276 0.81877 0.0
C164 C 0.93542 0.766 0.80074 0.0
C165 C 0.96429 0.77681 0.80525 0.0
C166 C 0.98 0.76616 0.83688 0.0
H167 H 0.9348 0.7092 0.85105 0.0
O168 O 0.00234 0.67455 0.78537 0.0
O169 O 0.01638 0.7059 0.82157 0.0
O170 O 0.98857 0.64658 0.84109 0.0
O171 O 0.97846 0.68505 0.87069 0.0
C172 C 0.97801 0.80517 0.78524 0.0
C173 C 0.02221 0.83193 0.81454 0.0
H174 H 0.07067 0.8337 0.85746 0.0
H175 H 0.0901 0.79147 0.8868 0.0
H176 H 0.90253 0.73392 0.8147 0.0
H177 H 0.92148 0.7751 0.78313 0.0
H178 H 0.96617 0.81035 0.76446 0.0
H179 H 0.03605 0.85139 0.8092 0.0
Mn180 Mn 0.34251 0.02784 0.81897 0.0
Mn181 Mn 0.28187 0.01163 0.86164 0.0
C182 C 0.30025 0.00745 0.79351 0.0
C183 C 0.36995 0.062 0.78941 0.0
C184 C 0.34232 0.98079 0.86247 0.0
O185 O 0.34775 0.05266 0.85756 0.0
O186 O 0.30197 0.04742 0.87946 0.0
C187 C 0.23453 0.0555 0.87867 0.0
N188 N 0.24196 0.02947 0.86455 0.0
C189 C 0.18701 0.02808 0.84556 0.0
C190 C 0.18181 0.05435 0.86116 0.0
C191 C 0.20505 0.06716 0.87813 0.0
C192 C 0.22065 0.01174 0.85272 0.0
H193 H 0.25154 0.06798 0.89049 0.0
C194 C 0.32856 0.05878 0.87811 0.0
O195 O 0.38253 0.03962 0.8028 0.0
O196 O 0.34149 0.06539 0.79394 0.0
N197 N 0.26426 0.97679 0.84489 0.0
C198 C 0.27786 0.95035 0.83753 0.0
C199 C 0.26544 0.93071 0.81634 0.0
C200 C 0.24085 0.93899 0.79881 0.0
C201 C 0.22743 0.96673 0.80329 0.0
C202 C 0.23741 0.98386 0.8344 0.0
H203 H 0.29861 0.94382 0.84782 0.0
O204 O 0.32775 0.0044 0.78468 0.0
O205 O 0.29625 0.02266 0.8191 0.0
O206 O 0.35892 0.98822 0.84109 0.0
O207 O 0.318 0.99323 0.86209 0.0
C208 C 0.19701 0.97704 0.78423 0.0
C209 C 0.1666 0.01852 0.81396 0.0
H210 H 0.16087 0.06624 0.8584 0.0
H211 H 0.20069 0.088 0.88971 0.0
H212 H 0.27637 0.90951 0.81204 0.0
H213 H 0.23268 0.92406 0.78156 0.0
H214 H 0.19259 0.96451 0.76369 0.0
H215 H 0.14554 0.03006 0.80917 0.0
Mn216 Mn 0.97304 0.34002 0.82316 0.0
Mn217 Mn 0.99412 0.27995 0.86385 0.0
C218 C 0.99125 0.29912 0.79564 0.0
C219 C 0.93794 0.36937 0.7967 0.0
C220 C 0.0286 0.33839 0.8632 0.0
O221 O 0.95104 0.34503 0.86328 0.0
O222 O 0.96203 0.30124 0.88619 0.0
C223 C 0.94532 0.23718 0.87965 0.0
N224 N 0.97163 0.24242 0.86492 0.0
C225 C 0.9686 0.18682 0.84779 0.0
C226 C 0.94252 0.18394 0.8642 0.0
C227 C 0.9316 0.20864 0.8803 0.0
C228 C 0.98736 0.21959 0.85304 0.0
H229 H 0.93426 0.25515 0.89141 0.0
C230 C 0.94806 0.32639 0.88486 0.0
O231 O 0.96128 0.38091 0.80949 0.0
O232 O 0.93397 0.34086 0.80057 0.0
N233 N 0.02471 0.26058 0.84182 0.0
C234 C 0.04867 0.27422 0.82867 0.0
C235 C 0.06713 0.25979 0.80782 0.0
C236 C 0.05786 0.23363 0.79377 0.0
C237 C 0.03023 0.22165 0.80122 0.0
C238 C 0.01544 0.23384 0.83285 0.0
H239 H 0.05243 0.29733 0.83188 0.0
O240 O 0.99334 0.32649 0.78637 0.0
O241 O 0.97916 0.29558 0.82292 0.0
O242 O 0.01432 0.35162 0.84239 0.0
O243 O 0.02109 0.31288 0.8723 0.0
C244 C 0.01734 0.19144 0.7841 0.0
C245 C 0.97552 0.16479 0.8166 0.0
H246 H 0.92924 0.16376 0.86254 0.0
H247 H 0.91076 0.20616 0.89243 0.0
H248 H 0.08687 0.27115 0.79957 0.0
H249 H 0.07112 0.22404 0.77589 0.0
H250 H 0.02838 0.18582 0.76301 0.0
H251 H 0.96242 0.14445 0.81297 0.0
Mn252 Mn 0.66241 0.97306 0.82238 0.0
Mn253 Mn 0.71865 0.98979 0.87087 0.0
C254 C 0.70386 0.99585 0.80015 0.0
C255 C 0.63572 0.93987 0.79136 0.0
C256 C 0.65893 0.02183 0.86841 0.0
O257 O 0.65452 0.94769 0.85979 0.0
O258 O 0.69703 0.95407 0.88673 0.0
C259 C 0.7629 0.94143 0.88345 0.0
N260 N 0.75748 0.96925 0.87199 0.0
C261 C 0.81232 0.9682 0.85317 0.0
C262 C 0.81568 0.94049 0.86661 0.0
C263 C 0.79147 0.92784 0.88212 0.0
C264 C 0.78019 0.98663 0.86213 0.0
H265 H 0.74495 0.92895 0.89373 0.0
C266 C 0.67142 0.94173 0.8821 0.0
O267 O 0.62287 0.9621 0.80482 0.0
O268 O 0.66407 0.93602 0.79663 0.0
N269 N 0.73849 0.02434 0.85638 0.0
C270 C 0.7262 0.05158 0.85003 0.0
C271 C 0.73906 0.07097 0.82889 0.0
C272 C 0.76259 0.06167 0.81042 0.0
C273 C 0.77454 0.03314 0.81396 0.0
C274 C 0.76483 0.01621 0.84528 0.0
H275 H 0.70634 0.05891 0.86133 0.0
O276 O 0.67703 0.99735 0.78935 0.0
O277 O 0.70681 0.98055 0.82615 0.0
O278 O 0.64877 0.01183 0.84391 0.0
O279 O 0.68335 0.01304 0.87921 0.0
C280 C 0.80321 0.02093 0.79318 0.0
C281 C 0.83179 0.97684 0.82093 0.0
H282 H 0.8356 0.92728 0.86251 0.0
H283 H 0.79418 0.90569 0.89158 0.0
H284 H 0.72925 0.09286 0.82543 0.0
H285 H 0.77094 0.07639 0.79309 0.0
H286 H 0.80794 0.03362 0.77282 0.0
H287 H 0.85172 0.96387 0.81503 0.0
Mn288 Mn 0.1809 0.02865 0.33779 0.0
Mn289 Mn 0.13629 0.01757 0.28094 0.0
C290 C 0.20643 0.01262 0.29566 0.0
C291 C 0.20781 0.06061 0.36887 0.0
C292 C 0.1346 0.98311 0.33683 0.0
O293 O 0.14195 0.05249 0.34538 0.0
O294 O 0.12151 0.05595 0.29898 0.0
C295 C 0.12097 0.0591 0.23174 0.0
N296 N 0.1347 0.03305 0.23999 0.0
C297 C 0.15084 0.02838 0.18452 0.0
C298 C 0.13549 0.0546 0.17852 0.0
C299 C 0.12018 0.06914 0.20176 0.0
C300 C 0.14454 0.0136 0.2191 0.0
H301 H 0.11021 0.07284 0.24847 0.0
C302 C 0.12352 0.06421 0.32669 0.0
O303 O 0.19537 0.03643 0.37907 0.0
O304 O 0.20391 0.0667 0.34078 0.0
N305 N 0.15323 0.98082 0.26458 0.0
C306 C 0.16361 0.95574 0.27908 0.0
C307 C 0.18491 0.93621 0.26673 0.0
C308 C 0.20123 0.94374 0.24141 0.0
C309 C 0.19549 0.97069 0.22735 0.0
C310 C 0.16353 0.98703 0.23698 0.0
H311 H 0.15669 0.94955 0.30071 0.0
O312 O 0.21607 0.00809 0.32263 0.0
O313 O 0.18019 0.02731 0.29287 0.0
O314 O 0.1613 0.98621 0.34553 0.0
O315 O 0.12458 0.00298 0.3203 0.0
C316 C 0.21407 0.98024 0.19632 0.0
C317 C 0.18251 0.01899 0.16438 0.0
H318 H 0.13776 0.06541 0.15696 0.0
H319 H 0.10896 0.09007 0.19688 0.0
H320 H 0.19075 0.91595 0.2787 0.0
H321 H 0.21888 0.92913 0.23347 0.0
H322 H 0.23484 0.968 0.19202 0.0
H323 H 0.18665 0.02967 0.14275 0.0
Mn324 Mn 0.9731 0.17849 0.3399 0.0
Mn325 Mn 0.99604 0.13418 0.28241 0.0
C326 C 0.9963 0.20324 0.2995 0.0
C327 C 0.93863 0.2072 0.36788 0.0
C328 C 0.02554 0.13568 0.34304 0.0
O329 O 0.94808 0.14 0.34479 0.0
O330 O 0.96164 0.11585 0.30256 0.0
C331 C 0.94939 0.1178 0.23749 0.0
N332 N 0.97599 0.13166 0.24356 0.0
C333 C 0.97572 0.14803 0.1879 0.0
C334 C 0.94941 0.13219 0.18397 0.0
C335 C 0.93699 0.11681 0.20837 0.0
C336 C 0.99336 0.14204 0.22123 0.0
H337 H 0.93695 0.1072 0.25524 0.0
C338 C 0.94572 0.11824 0.32631 0.0
O339 O 0.96068 0.19292 0.38003 0.0
O340 O 0.93564 0.20413 0.33907 0.0
N341 N 0.02934 0.15233 0.26376 0.0
C342 C 0.05492 0.1624 0.27719 0.0
C343 C 0.07294 0.18456 0.26414 0.0
C344 C 0.06341 0.20054 0.23907 0.0
C345 C 0.0359 0.19383 0.22628 0.0
C346 C 0.02096 0.16187 0.23696 0.0
H347 H 0.06188 0.1537 0.29835 0.0
O348 O 0.9969 0.21314 0.32676 0.0
O349 O 0.98247 0.17684 0.29558 0.0
O350 O 0.01187 0.15753 0.35478 0.0
O351 O 0.01965 0.12654 0.31725 0.0
C352 C 0.02374 0.21187 0.19621 0.0
C353 C 0.98307 0.17988 0.16712 0.0
H354 H 0.93692 0.13416 0.1633 0.0
H355 H 0.91587 0.10536 0.20519 0.0
H356 H 0.0936 0.191 0.27506 0.0
H357 H 0.07692 0.21866 0.23037 0.0
H358 H 0.03486 0.23312 0.1915 0.0
H359 H 0.97061 0.18404 0.14645 0.0
Mn360 Mn 0.81976 0.97171 0.33867 0.0
Mn361 Mn 0.8651 0.98133 0.28199 0.0
C362 C 0.79502 0.98811 0.29629 0.0
C363 C 0.79142 0.94131 0.37011 0.0
C364 C 0.86698 0.01582 0.33749 0.0
O365 O 0.85803 0.94649 0.34639 0.0
O366 O 0.87856 0.94247 0.30001 0.0
C367 C 0.88052 0.94006 0.23256 0.0
N368 N 0.86689 0.96613 0.24091 0.0
C369 C 0.85097 0.97126 0.18544 0.0
C370 C 0.86617 0.94498 0.1793 0.0
C371 C 0.88138 0.93022 0.20249 0.0
C372 C 0.8574 0.9858 0.22007 0.0
H373 H 0.89112 0.92618 0.24927 0.0
C374 C 0.87619 0.93422 0.32771 0.0
O375 O 0.80498 0.96495 0.3801 0.0
O376 O 0.79524 0.93472 0.34209 0.0
N377 N 0.84934 0.01858 0.26554 0.0
C378 C 0.83996 0.04418 0.27977 0.0
C379 C 0.81847 0.06372 0.26769 0.0
C380 C 0.80156 0.05612 0.24273 0.0
C381 C 0.80689 0.02911 0.22859 0.0
C382 C 0.83871 0.01245 0.23807 0.0
H383 H 0.84833 0.05105 0.30067 0.0
O384 O 0.78546 0.99328 0.32317 0.0
O385 O 0.82082 0.97265 0.29364 0.0
O386 O 0.84029 0.01362 0.34624 0.0
O387 O 0.87642 0.99527 0.32155 0.0
C388 C 0.78814 0.01987 0.19751 0.0
C389 C 0.81937 0.98099 0.16536 0.0
H390 H 0.86389 0.93433 0.15766 0.0
H391 H 0.89252 0.90928 0.1975 0.0
H392 H 0.81328 0.08429 0.27942 0.0
H393 H 0.78401 0.07093 0.23492 0.0
H394 H 0.76751 0.03235 0.19323 0.0
H395 H 0.81515 0.97048 0.14366 0.0
Mn396 Mn 0.02776 0.82048 0.3392 0.0
Mn397 Mn 0.00476 0.86491 0.28174 0.0
C398 C 0.00515 0.79575 0.2984 0.0
C399 C 0.06285 0.79153 0.36596 0.0
C400 C 0.97436 0.86221 0.34212 0.0
O401 O 0.05202 0.85941 0.34506 0.0
O402 O 0.0388 0.88348 0.3027 0.0
C403 C 0.05332 0.87876 0.23807 0.0
N404 N 0.02568 0.86674 0.24326 0.0
C405 C 0.02704 0.84975 0.18774 0.0
C406 C 0.05408 0.8645 0.1846 0.0
C407 C 0.06664 0.87905 0.2094 0.0
C408 C 0.00874 0.85629 0.22051 0.0
H409 H 0.06605 0.88809 0.25625 0.0
C410 C 0.05449 0.88123 0.32667 0.0
O411 O 0.04057 0.80483 0.37886 0.0
O412 O 0.06582 0.79603 0.33737 0.0
N413 N 0.97177 0.84698 0.26222 0.0
C414 C 0.94515 0.83843 0.27453 0.0
C415 C 0.927 0.81654 0.26116 0.0
C416 C 0.93718 0.79949 0.23698 0.0
C417 C 0.96531 0.80522 0.22492 0.0
C418 C 0.98055 0.83703 0.23567 0.0
H419 H 0.93734 0.84846 0.29484 0.0
O420 O 0.00472 0.78552 0.32551 0.0
O421 O 0.01849 0.82243 0.29491 0.0
O422 O 0.98842 0.84055 0.35388 0.0
O423 O 0.9805 0.87196 0.31653 0.0
C424 C 0.97805 0.78654 0.19522 0.0
C425 C 0.0198 0.81798 0.16705 0.0
H426 H 0.06715 0.86181 0.16438 0.0
H427 H 0.08857 0.88907 0.20698 0.0
H428 H 0.90549 0.81136 0.27106 0.0
H429 H 0.92343 0.78163 0.22812 0.0
H430 H 0.96654 0.7656 0.19001 0.0
H431 H 0.03273 0.81364 0.14671 0.0
Mn432 Mn 0.1816 0.97373 0.65837 0.0
Mn433 Mn 0.13662 0.98241 0.71542 0.0
C434 C 0.20673 0.99024 0.70083 0.0
C435 C 0.20978 0.94247 0.62778 0.0
C436 C 0.135 0.0188 0.66037 0.0
O437 O 0.14293 0.9491 0.64994 0.0
O438 O 0.12328 0.94403 0.69636 0.0
C439 C 0.12253 0.93845 0.7628 0.0
N440 N 0.13566 0.96509 0.75557 0.0
C441 C 0.15266 0.96744 0.81077 0.0
C442 C 0.13814 0.94061 0.81582 0.0
C443 C 0.12254 0.92696 0.79226 0.0
C444 C 0.14524 0.98375 0.77716 0.0
H445 H 0.11164 0.92535 0.74567 0.0
C446 C 0.12513 0.9363 0.66856 0.0
O447 O 0.19697 0.96632 0.61718 0.0
O448 O 0.20529 0.93633 0.65575 0.0
N449 N 0.1519 0.01908 0.73332 0.0
C450 C 0.16059 0.04539 0.72005 0.0
C451 C 0.18152 0.06504 0.73289 0.0
C452 C 0.1986 0.05699 0.7576 0.0
C453 C 0.19402 0.02933 0.77064 0.0
C454 C 0.16278 0.01204 0.76046 0.0
H455 H 0.15207 0.05264 0.69934 0.0
O456 O 0.21627 0.99498 0.67391 0.0
O457 O 0.18094 0.97473 0.70338 0.0
O458 O 0.16145 0.01582 0.651 0.0
O459 O 0.12502 0.99857 0.67663 0.0
C460 C 0.21335 0.01906 0.80098 0.0
C461 C 0.18408 0.97715 0.831 0.0
H462 H 0.14107 0.92888 0.83682 0.0
H463 H 0.11177 0.90566 0.79636 0.0
H464 H 0.18621 0.08612 0.72189 0.0
H465 H 0.21582 0.07187 0.76593 0.0
H466 H 0.23373 0.0318 0.80567 0.0
H467 H 0.18902 0.96547 0.85195 0.0
Mn468 Mn 0.02574 0.18104 0.65845 0.0
Mn469 Mn 0.00915 0.13642 0.71757 0.0
C470 C 0.00412 0.20558 0.70162 0.0
C471 C 0.06072 0.21152 0.63268 0.0
C472 C 0.98025 0.13862 0.65811 0.0
O473 O 0.05223 0.14303 0.65281 0.0
O474 O 0.04658 0.12257 0.69886 0.0
C475 C 0.05177 0.11542 0.76406 0.0
N476 N 0.02496 0.12879 0.75769 0.0
C477 C 0.02556 0.14764 0.8121 0.0
C478 C 0.05201 0.13215 0.81664 0.0
C479 C 0.06436 0.11564 0.79303 0.0
C480 C 0.00745 0.13998 0.77949 0.0
H481 H 0.06454 0.10488 0.7465 0.0
C482 C 0.05894 0.1235 0.67287 0.0
O483 O 0.03899 0.19807 0.61911 0.0
O484 O 0.0626 0.20711 0.66125 0.0
N485 N 0.97311 0.15041 0.73533 0.0
C486 C 0.94741 0.15954 0.72141 0.0
C487 C 0.92811 0.18067 0.73451 0.0
C488 C 0.93684 0.1972 0.7596 0.0
C489 C 0.9644 0.19138 0.77277 0.0
C490 C 0.97955 0.15908 0.7631 0.0
H491 H 0.94134 0.15109 0.69983 0.0
O492 O 0.0012 0.21448 0.6741 0.0
O493 O 0.01958 0.1801 0.70547 0.0
O494 O 0.9864 0.15854 0.63962 0.0
O495 O 0.99557 0.14275 0.68022 0.0
C496 C 0.97711 0.211 0.802 0.0
C497 C 0.01858 0.18024 0.83132 0.0
H498 H 0.06476 0.13541 0.837 0.0
H499 H 0.08578 0.10478 0.79646 0.0
H500 H 0.90728 0.18621 0.72341 0.0
H501 H 0.92274 0.2151 0.76788 0.0
H502 H 0.96564 0.2321 0.80668 0.0
H503 H 0.03143 0.18513 0.85159 0.0
Mn504 Mn 0.82241 0.02791 0.66278 0.0
Mn505 Mn 0.86383 0.00678 0.72228 0.0
C506 C 0.79533 0.00987 0.70412 0.0
C507 C 0.79518 0.0623 0.6333 0.0
C508 C 0.86384 0.97378 0.66304 0.0
O509 O 0.86259 0.05005 0.65763 0.0
O510 O 0.88568 0.03995 0.70175 0.0
C511 C 0.87944 0.05348 0.76733 0.0
N512 N 0.86506 0.02727 0.76102 0.0
C513 C 0.84942 0.02678 0.8173 0.0
C514 C 0.86559 0.05291 0.82113 0.0
C515 C 0.88065 0.06557 0.79659 0.0
C516 C 0.8539 0.01009 0.78327 0.0
H517 H 0.89045 0.0657 0.74963 0.0
C518 C 0.88428 0.05342 0.67621 0.0
O519 O 0.80841 0.03919 0.62185 0.0
O520 O 0.79924 0.06662 0.66177 0.0
N521 N 0.84202 0.97525 0.74043 0.0
C522 C 0.82891 0.9518 0.72587 0.0
C523 C 0.80772 0.93313 0.73947 0.0
C524 C 0.79368 0.94151 0.76596 0.0
C525 C 0.80126 0.9686 0.77906 0.0
C526 C 0.8331 0.98341 0.76759 0.0
H527 H 0.83273 0.94835 0.70276 0.0
O528 O 0.78584 0.00744 0.67682 0.0
O529 O 0.82266 0.02194 0.70731 0.0
O530 O 0.84185 0.98697 0.6507 0.0
O531 O 0.87303 0.98131 0.68848 0.0
C532 C 0.78454 0.97998 0.81014 0.0
C533 C 0.81831 0.01912 0.83925 0.0
H534 H 0.86421 0.06511 0.84201 0.0
H535 H 0.89237 0.08651 0.79989 0.0
H536 H 0.79948 0.91378 0.72744 0.0
H537 H 0.7758 0.92794 0.77507 0.0
H538 H 0.76341 0.96886 0.81532 0.0
H539 H 0.8152 0.03091 0.86048 0.0
Mn540 Mn 0.97403 0.81929 0.65762 0.0
Mn541 Mn 0.9946 0.86396 0.715 0.0
C542 C 0.99183 0.79394 0.69976 0.0
C543 C 0.93828 0.79218 0.62966 0.0
C544 C 0.02816 0.85995 0.65599 0.0
O545 O 0.95272 0.8593 0.65014 0.0
O546 O 0.96056 0.88424 0.69365 0.0
C547 C 0.94871 0.88292 0.75969 0.0
N548 N 0.97419 0.86708 0.75374 0.0
C549 C 0.97296 0.85128 0.80977 0.0
C550 C 0.94763 0.86875 0.81336 0.0
C551 C 0.93629 0.88478 0.78878 0.0
C552 C 0.99064 0.8555 0.77628 0.0
H553 H 0.93736 0.89463 0.74185 0.0
C554 C 0.94798 0.88132 0.66782 0.0
O555 O 0.96193 0.80372 0.61746 0.0
O556 O 0.9346 0.7974 0.658 0.0
N557 N 0.02651 0.84352 0.7345 0.0
C558 C 0.05157 0.83177 0.72157 0.0
C559 C 0.06837 0.80881 0.73495 0.0
C560 C 0.05799 0.79364 0.76012 0.0
C561 C 0.03066 0.80171 0.7725 0.0
C562 C 0.01709 0.83411 0.76106 0.0
H563 H 0.05903 0.83973 0.70055 0.0
O564 O 0.99381 0.78328 0.67287 0.0
O565 O 0.97993 0.82156 0.70215 0.0
O566 O 0.01556 0.8369 0.64516 0.0
O567 O 0.01976 0.87122 0.68035 0.0
C568 C 0.0179 0.78498 0.80314 0.0
C569 C 0.97898 0.81974 0.83151 0.0
H570 H 0.93505 0.8679 0.83406 0.0
H571 H 0.91603 0.89775 0.79185 0.0
H572 H 0.08877 0.80124 0.72426 0.0
H573 H 0.0707 0.77512 0.76925 0.0
H574 H 0.0283 0.76352 0.80857 0.0
H575 H 0.96659 0.81686 0.85242 0.0
Mn576 Mn 0.33885 0.17929 0.02787 0.0
Mn577 Mn 0.27881 0.13509 0.01582 0.0
C578 C 0.29723 0.20376 0.00811 0.0
C579 C 0.36804 0.20915 0.0594 0.0
C580 C 0.33706 0.13155 0.98097 0.0
O581 O 0.34577 0.14204 0.05349 0.0
O582 O 0.30094 0.11822 0.05114 0.0
C583 C 0.2351 0.12457 0.06501 0.0
N584 N 0.24078 0.13667 0.03754 0.0
C585 C 0.186 0.15611 0.03872 0.0
C586 C 0.18251 0.14232 0.06623 0.0
C587 C 0.20653 0.12617 0.07861 0.0
C588 C 0.21822 0.14734 0.02048 0.0
H589 H 0.25278 0.11328 0.07706 0.0
C590 C 0.32769 0.12144 0.06162 0.0
O591 O 0.37969 0.19517 0.0368 0.0
O592 O 0.33974 0.20519 0.06437 0.0
N593 N 0.25904 0.15155 0.98185 0.0
C594 C 0.27134 0.15809 0.95461 0.0
C595 C 0.25854 0.17944 0.93533 0.0
C596 C 0.23496 0.19792 0.94451 0.0
C597 C 0.22304 0.19462 0.97306 0.0
C598 C 0.23331 0.16376 0.99066 0.0
H599 H 0.29136 0.147 0.9471 0.0
O600 O 0.32442 0.21289 0.00397 0.0
O601 O 0.2941 0.17827 0.02388 0.0
O602 O 0.3495 0.15582 0.98883 0.0
O603 O 0.31229 0.12384 0.99164 0.0
C604 C 0.19384 0.21507 0.98467 0.0
C605 C 0.16581 0.18778 0.02933 0.0
H606 H 0.16248 0.14615 0.07933 0.0
H607 H 0.20357 0.11607 0.10043 0.0
H608 H 0.26844 0.18302 0.91351 0.0
H609 H 0.22656 0.21512 0.92965 0.0
H610 H 0.18897 0.23529 0.97176 0.0
H611 H 0.14578 0.1936 0.04217 0.0
Mn612 Mn 0.33801 0.82169 0.97107 0.0
Mn613 Mn 0.2796 0.86588 0.99256 0.0
C614 C 0.29801 0.79716 0.9947 0.0
C615 C 0.36463 0.79262 0.93569 0.0
C616 C 0.34002 0.86492 0.02331 0.0
O617 O 0.34327 0.86034 0.94682 0.0
O618 O 0.30032 0.88486 0.95798 0.0
C619 C 0.23493 0.87835 0.94439 0.0
N620 N 0.24105 0.86572 0.97155 0.0
C621 C 0.18592 0.84669 0.97091 0.0
C622 C 0.18216 0.86097 0.94367 0.0
C623 C 0.20614 0.87705 0.93118 0.0
C624 C 0.21885 0.85435 0.98853 0.0
H625 H 0.25242 0.88972 0.93221 0.0
C626 C 0.32526 0.8824 0.94368 0.0
O627 O 0.37778 0.8059 0.95785 0.0
O628 O 0.33599 0.797 0.93315 0.0
N629 N 0.26057 0.848 0.02603 0.0
C630 C 0.27278 0.84139 0.05328 0.0
C631 C 0.25962 0.82046 0.0727 0.0
C632 C 0.2357 0.80246 0.06357 0.0
C633 C 0.22363 0.8062 0.0351 0.0
C634 C 0.23435 0.83684 0.01761 0.0
H635 H 0.29282 0.85233 0.06069 0.0
O636 O 0.32515 0.787 0.9947 0.0
O637 O 0.29392 0.82334 0.98048 0.0
O638 O 0.35221 0.84289 0.01009 0.0
O639 O 0.31434 0.87426 0.01662 0.0
C640 C 0.19375 0.78681 0.02397 0.0
C641 C 0.16507 0.81538 0.98049 0.0
H642 H 0.16188 0.85761 0.93083 0.0
H643 H 0.20294 0.88746 0.90953 0.0
H644 H 0.2694 0.81684 0.09458 0.0
H645 H 0.22692 0.78552 0.07849 0.0
H646 H 0.18897 0.76652 0.03675 0.0
H647 H 0.14458 0.8102 0.96813 0.0
Mn648 Mn 0.18249 0.34401 0.97685 0.0
Mn649 Mn 0.13744 0.28577 0.9925 0.0
C650 C 0.2068 0.30011 0.99566 0.0
C651 C 0.2129 0.37014 0.94282 0.0
C652 C 0.14066 0.3452 0.02187 0.0
O653 O 0.14409 0.35074 0.95175 0.0
O654 O 0.12108 0.30525 0.95528 0.0
C655 C 0.11559 0.23759 0.95182 0.0
N656 N 0.13048 0.24511 0.9774 0.0
C657 C 0.14815 0.18971 0.97927 0.0
C658 C 0.1314 0.18441 0.95372 0.0
C659 C 0.11487 0.2079 0.94083 0.0
C660 C 0.14278 0.22393 0.99502 0.0
H661 H 0.1043 0.25475 0.93905 0.0
C662 C 0.12373 0.33187 0.94406 0.0
O663 O 0.20029 0.3832 0.96533 0.0
O664 O 0.20714 0.34198 0.93927 0.0
N665 N 0.15388 0.26843 0.02788 0.0
C666 C 0.16332 0.28247 0.05339 0.0
C667 C 0.18518 0.26986 0.07219 0.0
C668 C 0.20152 0.24458 0.06366 0.0
C669 C 0.1951 0.23065 0.0366 0.0
C670 C 0.16317 0.24097 0.02116 0.0
H671 H 0.15437 0.30371 0.05984 0.0
O672 O 0.21615 0.32729 0.99986 0.0
O673 O 0.18084 0.29711 0.98076 0.0
O674 O 0.16173 0.36256 0.01681 0.0
O675 O 0.14393 0.32315 0.0062 0.0
C676 C 0.21279 0.19946 0.02607 0.0
C677 C 0.17974 0.16877 0.98749 0.0
H678 H 0.13323 0.16319 0.94217 0.0
H679 H 0.10273 0.20352 0.92031 0.0
H680 H 0.19101 0.28118 0.09281 0.0
H681 H 0.21936 0.23628 0.07782 0.0
H682 H 0.23385 0.19466 0.0376 0.0
H683 H 0.18326 0.14727 0.97632 0.0
Mn684 Mn 0.66319 0.17883 0.97263 0.0
Mn685 Mn 0.72116 0.1327 0.98995 0.0
C686 C 0.70395 0.20209 0.99492 0.0
C687 C 0.63662 0.20836 0.93866 0.0
C688 C 0.66207 0.13424 0.0233 0.0
O689 O 0.65621 0.14147 0.94766 0.0
O690 O 0.69839 0.11443 0.95568 0.0
C691 C 0.76367 0.12052 0.93985 0.0
N692 N 0.75884 0.13293 0.96736 0.0
C693 C 0.81332 0.15309 0.96377 0.0
C694 C 0.81594 0.1389 0.93636 0.0
C695 C 0.79168 0.1223 0.92515 0.0
C696 C 0.78179 0.14447 0.98327 0.0
H697 H 0.74569 0.10898 0.92854 0.0
C698 C 0.67297 0.11893 0.94273 0.0
O699 O 0.62341 0.19531 0.96094 0.0
O700 O 0.66515 0.20388 0.93555 0.0
N701 N 0.74201 0.14967 0.02292 0.0
C702 C 0.73089 0.1561 0.05066 0.0
C703 C 0.74452 0.17732 0.06947 0.0
C704 C 0.76772 0.19574 0.05934 0.0
C705 C 0.77861 0.19224 0.03038 0.0
C706 C 0.76768 0.16133 0.01338 0.0
H707 H 0.7113 0.14487 0.05888 0.0
O708 O 0.67692 0.21239 0.99667 0.0
O709 O 0.70734 0.17614 0.97988 0.0
O710 O 0.65006 0.15704 0.01139 0.0
O711 O 0.68719 0.12435 0.01529 0.0
C712 C 0.80731 0.21254 0.01755 0.0
C713 C 0.83379 0.18488 0.97214 0.0
H714 H 0.83542 0.14272 0.92247 0.0
H715 H 0.79393 0.11197 0.90334 0.0
H716 H 0.73557 0.18083 0.09172 0.0
H717 H 0.77672 0.21295 0.07382 0.0
H718 H 0.81262 0.23285 0.03014 0.0
H719 H 0.85333 0.1906 0.95855 0.0
Mn720 Mn 0.82167 0.66303 0.97225 0.0
Mn721 Mn 0.86788 0.72091 0.98301 0.0
C722 C 0.79806 0.70489 0.99154 0.0
C723 C 0.79167 0.63313 0.94142 0.0
C724 C 0.87075 0.66237 0.0168 0.0
O725 O 0.8589 0.65534 0.9467 0.0
O726 O 0.88194 0.7006 0.94549 0.0
C727 C 0.87847 0.7681 0.93707 0.0
N728 N 0.86699 0.76067 0.96438 0.0
C729 C 0.84974 0.81611 0.96828 0.0
C730 C 0.86301 0.8213 0.94076 0.0
C731 C 0.87767 0.79774 0.92591 0.0
C732 C 0.85769 0.78218 0.98354 0.0
H733 H 0.8886 0.75101 0.92327 0.0
C734 C 0.8785 0.6734 0.93632 0.0
O735 O 0.80597 0.62211 0.96416 0.0
O736 O 0.79558 0.66138 0.93592 0.0
N737 N 0.85326 0.73877 0.01885 0.0
C738 C 0.84705 0.72502 0.04543 0.0
C739 C 0.82537 0.73624 0.06528 0.0
C740 C 0.80659 0.76005 0.05748 0.0
C741 C 0.80991 0.77391 0.02981 0.0
C742 C 0.84086 0.7649 0.01174 0.0
H743 H 0.85896 0.70532 0.05212 0.0
O744 O 0.78834 0.67795 0.99582 0.0
O745 O 0.82361 0.70763 0.97564 0.0
O746 O 0.84444 0.65322 0.01162 0.0
O747 O 0.88063 0.68543 0.00424 0.0
C748 C 0.78993 0.80427 0.02066 0.0
C749 C 0.81833 0.83595 0.9792 0.0
H750 H 0.85952 0.84239 0.92937 0.0
H751 H 0.88715 0.80206 0.90403 0.0
H752 H 0.82205 0.72515 0.08657 0.0
H753 H 0.78938 0.76744 0.07288 0.0
H754 H 0.76981 0.80838 0.03397 0.0
H755 H 0.81304 0.85721 0.96827 0.0
Mn756 Mn 0.66288 0.82059 0.02846 0.0
Mn757 Mn 0.72062 0.86676 0.01402 0.0
C758 C 0.70442 0.79711 0.00804 0.0
C759 C 0.63393 0.791 0.06042 0.0
C760 C 0.66133 0.8673 0.98106 0.0
O761 O 0.65554 0.85851 0.05312 0.0
O762 O 0.7001 0.88281 0.05044 0.0
C763 C 0.76695 0.87757 0.061 0.0
N764 N 0.75999 0.866 0.0336 0.0
C765 C 0.81573 0.84879 0.03077 0.0
C766 C 0.82031 0.8621 0.05839 0.0
C767 C 0.79638 0.87667 0.07279 0.0
C768 C 0.78178 0.85608 0.01511 0.0
H769 H 0.74964 0.88779 0.07445 0.0
C770 C 0.6735 0.87929 0.06113 0.0
O771 O 0.62237 0.8048 0.03768 0.0
O772 O 0.66223 0.79537 0.06557 0.0
N773 N 0.73893 0.8508 0.97912 0.0
C774 C 0.72582 0.84464 0.95222 0.0
C775 C 0.73784 0.82339 0.93239 0.0
C776 C 0.76182 0.80497 0.94056 0.0
C777 C 0.77507 0.80835 0.96854 0.0
C778 C 0.76511 0.83886 0.98673 0.0
H779 H 0.706 0.85626 0.94534 0.0
O780 O 0.6775 0.78675 0.00529 0.0
O781 O 0.7073 0.823 0.02325 0.0
O782 O 0.65162 0.84194 0.98896 0.0
O783 O 0.68522 0.87784 0.99153 0.0
C784 C 0.80576 0.78912 0.97787 0.0
C785 C 0.83649 0.81791 0.01978 0.0
H786 H 0.84123 0.85877 0.07017 0.0
H787 H 0.80026 0.88614 0.09476 0.0
H788 H 0.72728 0.82011 0.91082 0.0
H789 H 0.76988 0.78808 0.92516 0.0
H790 H 0.81022 0.76905 0.96461 0.0
H791 H 0.85775 0.81298 0.03092 0.0
Mn792 Mn 0.18019 0.66119 0.0274 0.0
Mn793 Mn 0.13481 0.71761 0.01827 0.0
C794 C 0.2053 0.7038 0.01167 0.0
C795 C 0.20821 0.63018 0.05842 0.0
C796 C 0.13315 0.66255 0.98275 0.0
O797 O 0.14171 0.65281 0.05209 0.0
O798 O 0.12147 0.69912 0.05683 0.0
C799 C 0.11895 0.76589 0.06061 0.0
N800 N 0.13274 0.7582 0.03442 0.0
C801 C 0.14901 0.81351 0.03104 0.0
C802 C 0.13371 0.81906 0.05738 0.0
C803 C 0.1182 0.79563 0.07132 0.0
C804 C 0.14236 0.77945 0.01536 0.0
H805 H 0.10815 0.7489 0.07395 0.0
C806 C 0.12375 0.67139 0.06475 0.0
O807 O 0.19556 0.61995 0.03434 0.0
O808 O 0.20385 0.6581 0.06489 0.0
N809 N 0.15051 0.73474 0.9814 0.0
C810 C 0.16037 0.7209 0.95575 0.0
C811 C 0.18183 0.73343 0.93653 0.0
C812 C 0.19848 0.75835 0.94467 0.0
C813 C 0.19295 0.77186 0.97195 0.0
C814 C 0.16102 0.76209 0.98818 0.0
H815 H 0.15262 0.69984 0.94868 0.0
O816 O 0.21481 0.67695 0.00639 0.0
O817 O 0.17926 0.70624 0.02685 0.0
O818 O 0.15994 0.65393 0.98514 0.0
O819 O 0.12343 0.67834 0.00334 0.0
C820 C 0.21183 0.80246 0.98224 0.0
C821 C 0.18077 0.83355 0.02208 0.0
H822 H 0.13611 0.84035 0.06867 0.0
H823 H 0.10694 0.8001 0.09231 0.0
H824 H 0.18736 0.722 0.91588 0.0
H825 H 0.21615 0.76645 0.9302 0.0
H826 H 0.23254 0.80698 0.97 0.0
H827 H 0.18514 0.85484 0.03333 0.0
Mn828 Mn 0.81917 0.34247 0.02419 0.0
Mn829 Mn 0.86289 0.28322 0.00745 0.0
C830 C 0.79403 0.29841 0.00647 0.0
C831 C 0.78946 0.36951 0.05819 0.0
C832 C 0.85992 0.34184 0.97843 0.0
O833 O 0.85772 0.34899 0.04897 0.0
O834 O 0.87962 0.303 0.0439 0.0
C835 C 0.88739 0.23502 0.04685 0.0
N836 N 0.8709 0.24257 0.02229 0.0
C837 C 0.85322 0.1872 0.0215 0.0
C838 C 0.87119 0.18195 0.04622 0.0
C839 C 0.88859 0.20538 0.05799 0.0
C840 C 0.85794 0.22131 0.00531 0.0
H841 H 0.8998 0.25209 0.05853 0.0
C842 C 0.87748 0.32932 0.05615 0.0
O843 O 0.80196 0.382 0.03533 0.0
O844 O 0.79484 0.34132 0.06214 0.0
N845 N 0.84544 0.2657 0.97275 0.0
C846 C 0.835 0.27974 0.94765 0.0
C847 C 0.81261 0.26696 0.92962 0.0
C848 C 0.79679 0.24157 0.93873 0.0
C849 C 0.80418 0.22773 0.9656 0.0
C850 C 0.83659 0.23817 0.97982 0.0
H851 H 0.84352 0.30115 0.94102 0.0
O852 O 0.78498 0.32565 0.00187 0.0
O853 O 0.82025 0.29528 0.0207 0.0
O854 O 0.84007 0.36049 0.9838 0.0
O855 O 0.85542 0.32037 0.99445 0.0
C856 C 0.78693 0.19659 0.97697 0.0
C857 C 0.82138 0.16621 0.0146 0.0
H858 H 0.86994 0.16079 0.05794 0.0
H859 H 0.90195 0.20101 0.07774 0.0
H860 H 0.80595 0.27827 0.90925 0.0
H861 H 0.77853 0.23317 0.92519 0.0
H862 H 0.7656 0.19159 0.96607 0.0
H863 H 0.81834 0.14477 0.02599 0.0
Mn864 Mn 0.52808 0.84085 0.68263 0.0
Mn865 Mn 0.50578 0.78264 0.63977 0.0
C866 C 0.50926 0.79917 0.70879 0.0
C867 C 0.56379 0.86909 0.70952 0.0
C868 C 0.47326 0.8421 0.64187 0.0
O869 O 0.55064 0.84683 0.64285 0.0
O870 O 0.53917 0.80347 0.61946 0.0
C871 C 0.55296 0.73838 0.62296 0.0
N872 N 0.52637 0.74403 0.63701 0.0
C873 C 0.52692 0.68776 0.65164 0.0
C874 C 0.55284 0.68434 0.63508 0.0
C875 C 0.56527 0.70931 0.62072 0.0
C876 C 0.50939 0.7214 0.64754 0.0
H877 H 0.56555 0.75646 0.6133 0.0
C878 C 0.554 0.82809 0.62144 0.0
O879 O 0.5405 0.88121 0.69719 0.0
O880 O 0.56708 0.8405 0.70543 0.0
N881 N 0.47404 0.76364 0.66042 0.0
C882 C 0.44981 0.77728 0.67312 0.0
C883 C 0.4324 0.76358 0.69533 0.0
C884 C 0.44206 0.73764 0.70963 0.0
C885 C 0.46916 0.72497 0.70127 0.0
C886 C 0.48283 0.7366 0.669 0.0
H887 H 0.44397 0.79942 0.66716 0.0
O888 O 0.50745 0.82631 0.71887 0.0
O889 O 0.52116 0.79632 0.68137 0.0
O890 O 0.48703 0.85396 0.66378 0.0
O891 O 0.48051 0.81687 0.63197 0.0
C892 C 0.48174 0.6942 0.71775 0.0
C893 C 0.52067 0.66592 0.68296 0.0
H894 H 0.5653 0.66357 0.63604 0.0
H895 H 0.58636 0.70655 0.60907 0.0
H896 H 0.41257 0.77486 0.70354 0.0
H897 H 0.42923 0.72839 0.72798 0.0
H898 H 0.47132 0.68875 0.73917 0.0
H899 H 0.53307 0.64499 0.68579 0.0
Mn900 Mn 0.16151 0.53043 0.67892 0.0
Mn901 Mn 0.21956 0.51689 0.63223 0.0
C902 C 0.20278 0.50812 0.70173 0.0
C903 C 0.13386 0.56351 0.70932 0.0
C904 C 0.16058 0.48339 0.631 0.0
O905 O 0.15407 0.55589 0.64161 0.0
O906 O 0.19837 0.55329 0.61701 0.0
C907 C 0.26449 0.56548 0.62325 0.0
N908 N 0.25826 0.53754 0.63388 0.0
C909 C 0.31341 0.53635 0.65269 0.0
C910 C 0.31735 0.56449 0.64038 0.0
C911 C 0.29341 0.5783 0.6253 0.0
C912 C 0.28045 0.51952 0.64363 0.0
H913 H 0.24699 0.57858 0.6129 0.0
C914 C 0.17183 0.56396 0.62073 0.0
O915 O 0.12138 0.541 0.69591 0.0
O916 O 0.16225 0.56739 0.70463 0.0
N917 N 0.23873 0.4818 0.64668 0.0
C918 C 0.22638 0.45424 0.65135 0.0
C919 C 0.23905 0.43357 0.6714 0.0
C920 C 0.26274 0.4414 0.6903 0.0
C921 C 0.27502 0.46994 0.68853 0.0
C922 C 0.26474 0.48942 0.65892 0.0
H923 H 0.20666 0.44749 0.63945 0.0
O924 O 0.17585 0.50617 0.7122 0.0
O925 O 0.20592 0.52416 0.67633 0.0
O926 O 0.14984 0.49143 0.65609 0.0
O927 O 0.1847 0.49399 0.62114 0.0
C928 C 0.30479 0.47959 0.70895 0.0
C929 C 0.33391 0.52464 0.68349 0.0
H930 H 0.33773 0.57688 0.64464 0.0
H931 H 0.29675 0.6006 0.61644 0.0
H932 H 0.22911 0.41158 0.67351 0.0
H933 H 0.27117 0.42542 0.70645 0.0
H934 H 0.30944 0.46548 0.72839 0.0
H935 H 0.35443 0.5365 0.68962 0.0
Mn936 Mn 0.47215 0.16276 0.67708 0.0
Mn937 Mn 0.49097 0.22189 0.63322 0.0
C938 C 0.49471 0.20297 0.70209 0.0
C939 C 0.43865 0.1344 0.7062 0.0
C940 C 0.52319 0.16244 0.63273 0.0
O941 O 0.44702 0.15744 0.63894 0.0
O942 O 0.45693 0.20062 0.61469 0.0
C943 C 0.44109 0.26461 0.6213 0.0
N944 N 0.4686 0.25947 0.63371 0.0
C945 C 0.46545 0.31366 0.65401 0.0
C946 C 0.43806 0.31671 0.63987 0.0
C947 C 0.42661 0.2927 0.62318 0.0
C948 C 0.48478 0.28208 0.64521 0.0
H949 H 0.42956 0.24687 0.60966 0.0
C950 C 0.44311 0.1756 0.61716 0.0
O951 O 0.4607 0.12235 0.69174 0.0
O952 O 0.43509 0.16308 0.70287 0.0
N953 N 0.52409 0.24175 0.65064 0.0
C954 C 0.55153 0.22999 0.65741 0.0
C955 C 0.57046 0.24338 0.67867 0.0
C956 C 0.56057 0.26683 0.69691 0.0
C957 C 0.53177 0.27812 0.69317 0.0
C958 C 0.51481 0.26753 0.66214 0.0
H959 H 0.5594 0.21002 0.64653 0.0
O960 O 0.49617 0.1756 0.71146 0.0
O961 O 0.47999 0.20712 0.67611 0.0
O962 O 0.5109 0.14981 0.65494 0.0
O963 O 0.51583 0.18809 0.62403 0.0
C964 C 0.51909 0.30678 0.71351 0.0
C965 C 0.47389 0.33374 0.68591 0.0
H966 H 0.42435 0.3363 0.64385 0.0
H967 H 0.40479 0.29519 0.61288 0.0
H968 H 0.59249 0.23399 0.68245 0.0
H969 H 0.57505 0.27562 0.71424 0.0
H970 H 0.53159 0.31179 0.73396 0.0
H971 H 0.46038 0.35332 0.69176 0.0
Mn972 Mn 0.83947 0.473 0.68257 0.0
Mn973 Mn 0.78079 0.48655 0.63832 0.0
C974 C 0.79799 0.49322 0.70723 0.0
C975 C 0.86823 0.43958 0.71187 0.0
C976 C 0.83677 0.52021 0.63844 0.0
O977 O 0.8455 0.44835 0.64324 0.0
O978 O 0.7985 0.44857 0.62371 0.0
C979 C 0.73226 0.44457 0.6227 0.0
N980 N 0.74023 0.47043 0.63688 0.0
C981 C 0.68535 0.47338 0.65487 0.0
C982 C 0.67966 0.44695 0.63976 0.0
C983 C 0.70263 0.43352 0.62304 0.0
C984 C 0.71919 0.48914 0.64735 0.0
H985 H 0.74892 0.43172 0.6108 0.0
C986 C 0.82591 0.43935 0.62403 0.0
O987 O 0.88011 0.46242 0.69847 0.0
O988 O 0.83998 0.43512 0.70697 0.0
N989 N 0.76385 0.52335 0.654 0.0
C990 C 0.77718 0.55004 0.66098 0.0
C991 C 0.76472 0.57009 0.68194 0.0
C992 C 0.74032 0.56227 0.69989 0.0
C993 C 0.72684 0.53458 0.69601 0.0
C994 C 0.73658 0.51697 0.66494 0.0
H995 H 0.7972 0.55716 0.65016 0.0
O996 O 0.82517 0.49549 0.71709 0.0
O997 O 0.79422 0.47763 0.68179 0.0
O998 O 0.85038 0.51481 0.66256 0.0
O999 O 0.82004 0.50035 0.62919 0.0
C1000 C 0.69633 0.52485 0.71557 0.0
C1001 C 0.66535 0.48345 0.68644 0.0
H1002 H 0.65855 0.43545 0.64274 0.0
H1003 H 0.69799 0.41269 0.61158 0.0
H1004 H 0.77543 0.59151 0.68562 0.0
H1005 H 0.73224 0.57758 0.71686 0.0
H1006 H 0.69201 0.53775 0.73591 0.0
H1007 H 0.64419 0.47221 0.69143 0.0
Mn1008 Mn 0.52649 0.15609 0.31985 0.0
Mn1009 Mn 0.51337 0.21509 0.36209 0.0
C1010 C 0.50972 0.19798 0.29306 0.0
C1011 C 0.56043 0.12669 0.29244 0.0
C1012 C 0.47743 0.1588 0.36545 0.0
O1013 O 0.54951 0.14876 0.35944 0.0
O1014 O 0.54961 0.19566 0.37855 0.0
C1015 C 0.55831 0.26148 0.37712 0.0
N1016 N 0.53225 0.25445 0.36268 0.0
C1017 C 0.53062 0.31013 0.34674 0.0
C1018 C 0.55708 0.31475 0.36211 0.0
C1019 C 0.57003 0.29086 0.37783 0.0
C1020 C 0.51403 0.27629 0.35287 0.0
H1021 H 0.57058 0.24437 0.38884 0.0
C1022 C 0.55923 0.16844 0.37786 0.0
O1023 O 0.53676 0.11507 0.30475 0.0
O1024 O 0.5649 0.15488 0.2971 0.0
N1025 N 0.47877 0.23264 0.34331 0.0
C1026 C 0.45516 0.21787 0.3302 0.0
C1027 C 0.43448 0.23198 0.31131 0.0
C1028 C 0.44156 0.25869 0.29724 0.0
C1029 C 0.46908 0.27161 0.30308 0.0
C1030 C 0.48584 0.26027 0.33417 0.0
H1031 H 0.45189 0.19448 0.33279 0.0
O1032 O 0.50596 0.17085 0.28374 0.0
O1033 O 0.5237 0.20079 0.31955 0.0
O1034 O 0.48431 0.14804 0.33995 0.0
O1035 O 0.49297 0.17942 0.37614 0.0
C1036 C 0.47968 0.30233 0.28514 0.0
C1037 C 0.52127 0.33144 0.31575 0.0
H1038 H 0.56893 0.33576 0.36004 0.0
H1039 H 0.59088 0.29471 0.38959 0.0
H1040 H 0.4147 0.21994 0.30418 0.0
H1041 H 0.42679 0.26792 0.28037 0.0
H1042 H 0.46752 0.30712 0.26447 0.0
H1043 H 0.53306 0.35245 0.31151 0.0
Mn1044 Mn 0.84183 0.52777 0.32087 0.0
Mn1045 Mn 0.78245 0.51112 0.3646 0.0
C1046 C 0.80056 0.50839 0.29568 0.0
C1047 C 0.87029 0.56189 0.29276 0.0
C1048 C 0.84054 0.47515 0.36415 0.0
O1049 O 0.84858 0.55109 0.35954 0.0
O1050 O 0.80489 0.5445 0.38452 0.0
C1051 C 0.74001 0.56175 0.37651 0.0
N1052 N 0.74504 0.53441 0.36379 0.0
C1053 C 0.68943 0.53728 0.34534 0.0
C1054 C 0.68691 0.56455 0.3598 0.0
C1055 C 0.71167 0.57607 0.37551 0.0
C1056 C 0.7221 0.5186 0.35223 0.0
H1057 H 0.75804 0.57318 0.38785 0.0
C1058 C 0.83091 0.55655 0.38131 0.0
O1059 O 0.88231 0.53872 0.30553 0.0
O1060 O 0.84189 0.56597 0.29725 0.0
N1061 N 0.76205 0.47931 0.34524 0.0
C1062 C 0.77408 0.45276 0.33619 0.0
C1063 C 0.75997 0.43384 0.31553 0.0
C1064 C 0.7351 0.44328 0.29936 0.0
C1065 C 0.72402 0.47189 0.30402 0.0
C1066 C 0.73616 0.48902 0.33436 0.0
H1067 H 0.79503 0.44581 0.34443 0.0
O1068 O 0.82763 0.50601 0.28562 0.0
O1069 O 0.79753 0.52232 0.32221 0.0
O1070 O 0.8529 0.48721 0.3415 0.0
O1071 O 0.81579 0.48436 0.37423 0.0
C1072 C 0.6941 0.48367 0.28568 0.0
C1073 C 0.6673 0.52805 0.31454 0.0
H1074 H 0.66699 0.57806 0.35694 0.0
H1075 H 0.70939 0.59777 0.38607 0.0
H1076 H 0.77004 0.41244 0.31023 0.0
H1077 H 0.72536 0.42885 0.28249 0.0
H1078 H 0.68894 0.47119 0.26533 0.0
H1079 H 0.64708 0.54097 0.30966 0.0
Mn1080 Mn 0.4737 0.84226 0.3198 0.0
Mn1081 Mn 0.49341 0.7824 0.36144 0.0
C1082 C 0.49437 0.80152 0.29323 0.0
C1083 C 0.43889 0.87008 0.29172 0.0
C1084 C 0.52807 0.84091 0.36208 0.0
O1085 O 0.44899 0.84736 0.35858 0.0
O1086 O 0.46054 0.80386 0.38124 0.0
C1087 C 0.44232 0.74077 0.37313 0.0
N1088 N 0.4704 0.74504 0.36168 0.0
C1089 C 0.46739 0.68943 0.34464 0.0
C1090 C 0.43985 0.68733 0.3586 0.0
C1091 C 0.42792 0.71259 0.37294 0.0
C1092 C 0.48674 0.72167 0.3517 0.0
H1093 H 0.43012 0.75932 0.38254 0.0
C1094 C 0.44554 0.82828 0.37963 0.0
O1095 O 0.46105 0.88285 0.30545 0.0
O1096 O 0.43622 0.84142 0.29514 0.0
N1097 N 0.52494 0.76259 0.34187 0.0
C1098 C 0.54863 0.77656 0.3287 0.0
C1099 C 0.5688 0.76167 0.30994 0.0
C1100 C 0.56043 0.73518 0.29606 0.0
C1101 C 0.53228 0.72366 0.30207 0.0
C1102 C 0.51633 0.73557 0.33323 0.0
H1103 H 0.54974 0.80023 0.32875 0.0
O1104 O 0.49638 0.82894 0.28411 0.0
O1105 O 0.48084 0.79787 0.31977 0.0
O1106 O 0.51395 0.85443 0.34124 0.0
O1107 O 0.52037 0.81527 0.37078 0.0
C1108 C 0.51933 0.69447 0.28356 0.0
C1109 C 0.47529 0.66807 0.31319 0.0
H1110 H 0.42616 0.66757 0.35563 0.0
H1111 H 0.40572 0.71092 0.38255 0.0
H1112 H 0.58851 0.7733 0.30199 0.0
H1113 H 0.57447 0.72543 0.27887 0.0
H1114 H 0.53095 0.68953 0.26264 0.0
H1115 H 0.46173 0.64832 0.3082 0.0
Mn1116 Mn 0.16079 0.47117 0.32118 0.0
Mn1117 Mn 0.21946 0.48418 0.36744 0.0
C1118 C 0.20179 0.49334 0.29838 0.0
C1119 C 0.13288 0.43937 0.28982 0.0
C1120 C 0.16072 0.51824 0.36915 0.0
O1121 O 0.15374 0.44497 0.35801 0.0
O1122 O 0.19786 0.44817 0.38301 0.0
C1123 C 0.2639 0.43498 0.37653 0.0
N1124 N 0.25785 0.46282 0.36548 0.0
C1125 C 0.31249 0.46258 0.34527 0.0
C1126 C 0.31631 0.43463 0.35804 0.0
C1127 C 0.29256 0.42159 0.37404 0.0
C1128 C 0.28012 0.48024 0.35496 0.0
H1129 H 0.24644 0.42242 0.38756 0.0
C1130 C 0.17151 0.43713 0.37901 0.0
O1131 O 0.12053 0.46136 0.30422 0.0
O1132 O 0.16122 0.43499 0.29451 0.0
N1133 N 0.23907 0.51878 0.35253 0.0
C1134 C 0.22708 0.54651 0.34781 0.0
C1135 C 0.23959 0.56664 0.32713 0.0
C1136 C 0.2626 0.55804 0.30769 0.0
C1137 C 0.27439 0.52926 0.3095 0.0
C1138 C 0.26458 0.51045 0.33968 0.0
H1139 H 0.20774 0.55376 0.36009 0.0
O1140 O 0.17473 0.49608 0.28844 0.0
O1141 O 0.20521 0.47695 0.32352 0.0
O1142 O 0.14933 0.5097 0.34458 0.0
O1143 O 0.1851 0.50788 0.37869 0.0
C1144 C 0.3034 0.51866 0.28839 0.0
C1145 C 0.33234 0.47336 0.31374 0.0
H1146 H 0.33637 0.42178 0.35351 0.0
H1147 H 0.29577 0.39943 0.38329 0.0
H1148 H 0.23 0.58879 0.32498 0.0
H1149 H 0.27086 0.57363 0.2911 0.0
H1150 H 0.30774 0.53235 0.2686 0.0
H1151 H 0.35246 0.46099 0.30725 0.0
Mn1152 Mn 0.68091 0.52901 0.84203 0.0
Mn1153 Mn 0.63559 0.51979 0.78482 0.0
C1154 C 0.70559 0.51225 0.79963 0.0
C1155 C 0.70922 0.56088 0.87242 0.0
C1156 C 0.63419 0.48355 0.84005 0.0
O1157 O 0.64219 0.55318 0.85035 0.0
O1158 O 0.62196 0.55788 0.80404 0.0
C1159 C 0.62142 0.56373 0.73727 0.0
N1160 N 0.63476 0.53722 0.74467 0.0
C1161 C 0.65181 0.53462 0.68936 0.0
C1162 C 0.63698 0.5613 0.68416 0.0
C1163 C 0.62129 0.575 0.7077 0.0
C1164 C 0.64454 0.51858 0.72315 0.0
H1165 H 0.61045 0.57685 0.75435 0.0
C1166 C 0.62391 0.56547 0.83188 0.0
O1167 O 0.69672 0.53693 0.88313 0.0
O1168 O 0.70447 0.56676 0.84444 0.0
N1169 N 0.65099 0.48324 0.76695 0.0
C1170 C 0.65933 0.45681 0.78019 0.0
C1171 C 0.68017 0.437 0.76743 0.0
C1172 C 0.69732 0.44491 0.74272 0.0
C1173 C 0.69299 0.47264 0.72964 0.0
C1174 C 0.66202 0.49029 0.7399 0.0
H1175 H 0.65046 0.44956 0.80077 0.0
O1176 O 0.71554 0.50786 0.82648 0.0
O1177 O 0.67975 0.52767 0.7971 0.0
O1178 O 0.66065 0.48687 0.84954 0.0
O1179 O 0.624 0.50343 0.82346 0.0
C1180 C 0.7122 0.48251 0.69913 0.0
C1181 C 0.68313 0.52446 0.66889 0.0
H1182 H 0.63961 0.57283 0.66303 0.0
H1183 H 0.61028 0.59618 0.70347 0.0
H1184 H 0.68466 0.41586 0.77841 0.0
H1185 H 0.71437 0.42983 0.73437 0.0
H1186 H 0.73245 0.46953 0.69453 0.0
H1187 H 0.68802 0.53589 0.64781 0.0
Mn1188 Mn 0.47145 0.67902 0.83983 0.0
Mn1189 Mn 0.49544 0.63354 0.78302 0.0
C1190 C 0.49714 0.70285 0.80013 0.0
C1191 C 0.4361 0.70919 0.86556 0.0
C1192 C 0.52482 0.63656 0.84374 0.0
O1193 O 0.44525 0.64123 0.84477 0.0
O1194 O 0.46147 0.61588 0.80446 0.0
C1195 C 0.44593 0.61963 0.74033 0.0
N1196 N 0.4737 0.63163 0.74496 0.0
C1197 C 0.47031 0.65082 0.6904 0.0
C1198 C 0.44291 0.63664 0.68775 0.0
C1199 C 0.4314 0.62078 0.71225 0.0
C1200 C 0.48998 0.64241 0.72194 0.0
H1201 H 0.43408 0.60914 0.75853 0.0
C1202 C 0.44429 0.61866 0.82722 0.0
O1203 O 0.45724 0.69477 0.87915 0.0
O1204 O 0.43472 0.70558 0.83672 0.0
N1205 N 0.52864 0.64984 0.76267 0.0
C1206 C 0.55614 0.65677 0.77405 0.0
C1207 C 0.57471 0.67809 0.76033 0.0
C1208 C 0.56417 0.69622 0.73708 0.0
C1209 C 0.53534 0.69186 0.72612 0.0
C1210 C 0.51953 0.66025 0.73646 0.0
H1211 H 0.56428 0.64585 0.79384 0.0
O1212 O 0.49674 0.71281 0.82734 0.0
O1213 O 0.48281 0.67674 0.79584 0.0
O1214 O 0.50929 0.65704 0.85589 0.0
O1215 O 0.52003 0.62735 0.81766 0.0
C1216 C 0.52176 0.71208 0.69787 0.0
C1217 C 0.47755 0.68319 0.67066 0.0
H1218 H 0.42901 0.64045 0.66827 0.0
H1219 H 0.40936 0.61087 0.71023 0.0
H1220 H 0.59686 0.68205 0.76934 0.0
H1221 H 0.57819 0.71381 0.72811 0.0
H1222 H 0.53363 0.73288 0.69297 0.0
H1223 H 0.4638 0.68874 0.65117 0.0
Mn1224 Mn 0.32149 0.46832 0.83622 0.0
Mn1225 Mn 0.36469 0.48174 0.77869 0.0
C1226 C 0.29494 0.48595 0.79474 0.0
C1227 C 0.2949 0.43606 0.86764 0.0
C1228 C 0.36688 0.51453 0.83535 0.0
O1229 O 0.36137 0.44417 0.84215 0.0
O1230 O 0.37915 0.44305 0.79469 0.0
C1231 C 0.37952 0.44149 0.72831 0.0
N1232 N 0.36595 0.46734 0.73745 0.0
C1233 C 0.34974 0.47397 0.68231 0.0
C1234 C 0.36482 0.44783 0.67536 0.0
C1235 C 0.3801 0.4324 0.69803 0.0
C1236 C 0.35617 0.48748 0.71733 0.0
H1237 H 0.39034 0.42715 0.74448 0.0
C1238 C 0.37963 0.43413 0.82214 0.0
O1239 O 0.30813 0.4598 0.87776 0.0
O1240 O 0.29815 0.43025 0.83936 0.0
N1241 N 0.34816 0.51905 0.76371 0.0
C1242 C 0.339 0.54424 0.77872 0.0
C1243 C 0.31736 0.56405 0.76736 0.0
C1244 C 0.30034 0.55713 0.74225 0.0
C1245 C 0.30569 0.53057 0.72723 0.0
C1246 C 0.33744 0.51358 0.73619 0.0
H1247 H 0.34786 0.5506 0.79962 0.0
O1248 O 0.28574 0.48921 0.82205 0.0
O1249 O 0.32111 0.47141 0.7911 0.0
O1250 O 0.34062 0.51084 0.8449 0.0
O1251 O 0.37659 0.49504 0.81825 0.0
C1252 C 0.28704 0.52234 0.69586 0.0
C1253 C 0.31822 0.4844 0.66256 0.0
H1254 H 0.36238 0.43778 0.65345 0.0
H1255 H 0.39114 0.41156 0.69242 0.0
H1256 H 0.31226 0.58431 0.77966 0.0
H1257 H 0.28277 0.57215 0.73492 0.0
H1258 H 0.26638 0.53491 0.69202 0.0
H1259 H 0.31398 0.47453 0.64056 0.0
Mn1260 Mn 0.52946 0.31821 0.84264 0.0
Mn1261 Mn 0.51002 0.36151 0.78401 0.0
C1262 C 0.50982 0.29263 0.79925 0.0
C1263 C 0.56521 0.28947 0.86865 0.0
C1264 C 0.48181 0.35798 0.84363 0.0
O1265 O 0.55398 0.35762 0.84807 0.0
O1266 O 0.54649 0.37841 0.80232 0.0
C1267 C 0.55008 0.38496 0.73628 0.0
N1268 N 0.52468 0.36957 0.74357 0.0
C1269 C 0.52342 0.35266 0.68822 0.0
C1270 C 0.54858 0.36994 0.68303 0.0
C1271 C 0.56112 0.38635 0.70667 0.0
C1272 C 0.50723 0.35741 0.72233 0.0
H1273 H 0.56278 0.39611 0.75352 0.0
C1274 C 0.55936 0.37774 0.82814 0.0
O1275 O 0.543 0.30216 0.88212 0.0
O1276 O 0.56738 0.29392 0.84011 0.0
N1277 N 0.47498 0.34429 0.76706 0.0
C1278 C 0.45014 0.33352 0.78135 0.0
C1279 C 0.43166 0.3117 0.7683 0.0
C1280 C 0.44032 0.29638 0.74245 0.0
C1281 C 0.46707 0.30389 0.72852 0.0
C1282 C 0.48149 0.33613 0.73919 0.0
H1283 H 0.44405 0.34117 0.80318 0.0
O1284 O 0.50693 0.28347 0.8267 0.0
O1285 O 0.52374 0.31893 0.79567 0.0
O1286 O 0.48893 0.33821 0.86185 0.0
O1287 O 0.49739 0.35475 0.82157 0.0
C1288 C 0.47838 0.28681 0.69732 0.0
C1289 C 0.51633 0.32107 0.66723 0.0
H1290 H 0.56022 0.3685 0.66182 0.0
H1291 H 0.58148 0.39883 0.70252 0.0
H1292 H 0.41147 0.30486 0.77981 0.0
H1293 H 0.42663 0.27832 0.73388 0.0
H1294 H 0.46745 0.26554 0.69222 0.0
H1295 H 0.52783 0.31799 0.64583 0.0
Mn1296 Mn 0.68154 0.47264 0.16109 0.0
Mn1297 Mn 0.63744 0.48658 0.21783 0.0
C1298 C 0.70729 0.49203 0.20268 0.0
C1299 C 0.70901 0.43949 0.13134 0.0
C1300 C 0.63557 0.51815 0.1606 0.0
O1301 O 0.6421 0.44752 0.15472 0.0
O1302 O 0.62612 0.44705 0.2025 0.0
C1303 C 0.62144 0.44623 0.26753 0.0
N1304 N 0.63422 0.47277 0.25915 0.0
C1305 C 0.65009 0.4779 0.314 0.0
C1306 C 0.63512 0.45166 0.32053 0.0
C1307 C 0.62036 0.43653 0.29751 0.0
C1308 C 0.64277 0.49301 0.2798 0.0
H1309 H 0.61195 0.43152 0.25101 0.0
C1310 C 0.6249 0.4373 0.17548 0.0
O1311 O 0.69585 0.46283 0.12014 0.0
O1312 O 0.70546 0.43481 0.15977 0.0
N1313 N 0.65196 0.5246 0.23317 0.0
C1314 C 0.66264 0.549 0.21782 0.0
C1315 C 0.68379 0.5689 0.22984 0.0
C1316 C 0.70001 0.56192 0.25545 0.0
C1317 C 0.69404 0.53538 0.27013 0.0
C1318 C 0.66147 0.51967 0.26137 0.0
H1319 H 0.65614 0.55415 0.19573 0.0
O1320 O 0.7167 0.49463 0.1754 0.0
O1321 O 0.68142 0.47713 0.20633 0.0
O1322 O 0.66186 0.51465 0.15103 0.0
O1323 O 0.62613 0.49848 0.17758 0.0
C1324 C 0.71364 0.52505 0.30049 0.0
C1325 C 0.68252 0.48629 0.33278 0.0
H1326 H 0.63788 0.441 0.34211 0.0
H1327 H 0.60991 0.41525 0.30246 0.0
H1328 H 0.68989 0.58868 0.21725 0.0
H1329 H 0.71796 0.5764 0.26289 0.0
H1330 H 0.73466 0.5369 0.3045 0.0
H1331 H 0.68716 0.47518 0.35411 0.0
Mn1332 Mn 0.52743 0.68097 0.15764 0.0
Mn1333 Mn 0.51203 0.63831 0.21498 0.0
C1334 C 0.50981 0.7079 0.19941 0.0
C1335 C 0.56155 0.70783 0.12826 0.0
C1336 C 0.47871 0.63596 0.15771 0.0
O1337 O 0.55062 0.6408 0.15098 0.0
O1338 O 0.54972 0.62381 0.19836 0.0
C1339 C 0.55422 0.62094 0.26277 0.0
N1340 N 0.52783 0.63481 0.25545 0.0
C1341 C 0.525 0.6498 0.31075 0.0
C1342 C 0.55113 0.63413 0.31609 0.0
C1343 C 0.56501 0.61928 0.29236 0.0
C1344 C 0.50851 0.64364 0.27685 0.0
H1345 H 0.56793 0.61082 0.2457 0.0
C1346 C 0.55968 0.6228 0.17151 0.0
O1347 O 0.53787 0.69554 0.11669 0.0
O1348 O 0.56606 0.70336 0.15654 0.0
N1349 N 0.47609 0.65599 0.23119 0.0
C1350 C 0.45365 0.67036 0.21568 0.0
C1351 C 0.4333 0.68999 0.22926 0.0
C1352 C 0.44026 0.70369 0.25621 0.0
C1353 C 0.46701 0.69631 0.2699 0.0
C1354 C 0.48161 0.66367 0.25973 0.0
H1355 H 0.45128 0.66862 0.19213 0.0
O1356 O 0.50694 0.71724 0.17215 0.0
O1357 O 0.52351 0.6813 0.20261 0.0
O1358 O 0.48487 0.66207 0.14843 0.0
O1359 O 0.49584 0.62476 0.17662 0.0
C1360 C 0.47883 0.71466 0.30012 0.0
C1361 C 0.51791 0.682 0.3305 0.0
H1362 H 0.56261 0.63627 0.33733 0.0
H1363 H 0.58615 0.60809 0.29644 0.0
H1364 H 0.41436 0.69822 0.21654 0.0
H1365 H 0.42633 0.72155 0.26483 0.0
H1366 H 0.46798 0.73614 0.30452 0.0
H1367 H 0.52991 0.68601 0.35147 0.0
Mn1368 Mn 0.31675 0.52705 0.15996 0.0
Mn1369 Mn 0.36087 0.51454 0.2169 0.0
C1370 C 0.29126 0.51022 0.20244 0.0
C1371 C 0.28898 0.55897 0.12955 0.0
C1372 C 0.36254 0.48122 0.16069 0.0
O1373 O 0.35588 0.55195 0.15261 0.0
O1374 O 0.37385 0.5531 0.19999 0.0
C1375 C 0.37804 0.55482 0.26661 0.0
N1376 N 0.36359 0.52929 0.25806 0.0
C1377 C 0.34915 0.52367 0.31376 0.0
C1378 C 0.36491 0.54954 0.31999 0.0
C1379 C 0.3798 0.56428 0.29672 0.0
C1380 C 0.35435 0.50952 0.27874 0.0
H1381 H 0.38874 0.56852 0.25014 0.0
C1382 C 0.37313 0.5631 0.17285 0.0
O1383 O 0.30187 0.53525 0.11882 0.0
O1384 O 0.29318 0.56473 0.15768 0.0
N1385 N 0.34449 0.47757 0.2329 0.0
C1386 C 0.33373 0.45284 0.21818 0.0
C1387 C 0.31237 0.43344 0.23062 0.0
C1388 C 0.29656 0.4408 0.25638 0.0
C1389 C 0.30285 0.46742 0.27085 0.0
C1390 C 0.33469 0.48355 0.26076 0.0
H1391 H 0.34049 0.44689 0.19639 0.0
O1392 O 0.28161 0.50599 0.17543 0.0
O1393 O 0.31736 0.52482 0.20515 0.0
O1394 O 0.33616 0.48465 0.15134 0.0
O1395 O 0.37229 0.50122 0.17711 0.0
C1396 C 0.28521 0.4765 0.30261 0.0
C1397 C 0.31801 0.51423 0.33448 0.0
H1398 H 0.36331 0.55991 0.34183 0.0
H1399 H 0.39151 0.5849 0.3017 0.0
H1400 H 0.30615 0.41341 0.21848 0.0
H1401 H 0.27896 0.42624 0.26444 0.0
H1402 H 0.26441 0.46447 0.30718 0.0
H1403 H 0.31459 0.52452 0.35643 0.0
Mn1404 Mn 0.47144 0.3186 0.1598 0.0
Mn1405 Mn 0.48355 0.36157 0.21802 0.0
C1406 C 0.49091 0.29238 0.20114 0.0
C1407 C 0.43854 0.29099 0.12993 0.0
C1408 C 0.51731 0.36528 0.16128 0.0
O1409 O 0.44641 0.35787 0.15361 0.0
O1410 O 0.4447 0.37333 0.20147 0.0
C1411 C 0.44041 0.37568 0.2661 0.0
N1412 N 0.46724 0.36291 0.25847 0.0
C1413 C 0.4703 0.3458 0.31322 0.0
C1414 C 0.44335 0.35994 0.31883 0.0
C1415 C 0.42923 0.37549 0.29562 0.0
C1416 C 0.48658 0.35408 0.27973 0.0
H1417 H 0.42675 0.38638 0.24931 0.0
C1418 C 0.43581 0.37489 0.17425 0.0
O1419 O 0.46148 0.30463 0.11845 0.0
O1420 O 0.43409 0.29431 0.15838 0.0
N1421 N 0.52084 0.34675 0.23454 0.0
C1422 C 0.54571 0.33628 0.21973 0.0
C1423 C 0.56646 0.31658 0.23272 0.0
C1424 C 0.5595 0.30047 0.25833 0.0
C1425 C 0.53203 0.30512 0.27178 0.0
C1426 C 0.51495 0.33676 0.26235 0.0
H1427 H 0.5501 0.34101 0.19706 0.0
O1428 O 0.49378 0.28336 0.17375 0.0
O1429 O 0.47548 0.31794 0.20488 0.0
O1430 O 0.51316 0.33928 0.15096 0.0
O1431 O 0.49825 0.37501 0.1791 0.0
C1432 C 0.52154 0.28506 0.30153 0.0
C1433 C 0.47977 0.31374 0.33234 0.0
H1434 H 0.43181 0.35648 0.33985 0.0
H1435 H 0.40774 0.38586 0.29998 0.0
H1436 H 0.58666 0.3109 0.22057 0.0
H1437 H 0.57455 0.28326 0.26643 0.0
H1438 H 0.53412 0.26445 0.30557 0.0
H1439 H 0.46803 0.30829 0.35312 0.0
Mn1440 Mn 0.8384 0.67839 0.52823 0.0
Mn1441 Mn 0.77947 0.63445 0.50824 0.0
C1442 C 0.79845 0.70301 0.50475 0.0
C1443 C 0.86586 0.70816 0.56187 0.0
C1444 C 0.83966 0.63391 0.47727 0.0
O1445 O 0.8436 0.64052 0.55352 0.0
O1446 O 0.80045 0.61617 0.54288 0.0
C1447 C 0.73515 0.62237 0.55676 0.0
N1448 N 0.74113 0.63498 0.52956 0.0
C1449 C 0.68661 0.65538 0.53113 0.0
C1450 C 0.68287 0.64108 0.55835 0.0
C1451 C 0.7066 0.62427 0.57039 0.0
C1452 C 0.71889 0.64665 0.51282 0.0
H1453 H 0.7526 0.61058 0.56865 0.0
C1454 C 0.82546 0.61872 0.55702 0.0
O1455 O 0.8785 0.69369 0.54016 0.0
O1456 O 0.83722 0.70428 0.56521 0.0
N1457 N 0.76022 0.6519 0.47471 0.0
C1458 C 0.77246 0.65847 0.44748 0.0
C1459 C 0.75965 0.67994 0.42836 0.0
C1460 C 0.73628 0.69852 0.43789 0.0
C1461 C 0.72446 0.69494 0.46648 0.0
C1462 C 0.7344 0.66374 0.4835 0.0
H1463 H 0.79232 0.64721 0.4399 0.0
O1464 O 0.8258 0.71246 0.50374 0.0
O1465 O 0.79412 0.67716 0.51954 0.0
O1466 O 0.85212 0.65602 0.48993 0.0
O1467 O 0.81383 0.62521 0.48404 0.0
C1468 C 0.6955 0.71538 0.47839 0.0
C1469 C 0.66676 0.68752 0.52224 0.0
H1470 H 0.66291 0.64501 0.57153 0.0
H1471 H 0.70348 0.61384 0.59204 0.0
H1472 H 0.76937 0.68353 0.40646 0.0
H1473 H 0.72788 0.7159 0.42324 0.0
H1474 H 0.69111 0.73593 0.46587 0.0
H1475 H 0.64673 0.69334 0.53507 0.0
Mn1476 Mn 0.8451 0.32018 0.4771 0.0
Mn1477 Mn 0.7866 0.36604 0.49283 0.0
C1478 C 0.80184 0.29642 0.49782 0.0
C1479 C 0.87083 0.28939 0.44245 0.0
C1480 C 0.84684 0.36303 0.52286 0.0
O1481 O 0.85173 0.35824 0.45171 0.0
O1482 O 0.80654 0.38167 0.4555 0.0
C1483 C 0.73932 0.38555 0.45003 0.0
N1484 N 0.7462 0.37206 0.47656 0.0
C1485 C 0.69137 0.3531 0.47702 0.0
C1486 C 0.68657 0.36856 0.4506 0.0
C1487 C 0.71005 0.38518 0.43795 0.0
C1488 C 0.72455 0.36062 0.49426 0.0
H1489 H 0.75671 0.39649 0.4373 0.0
C1490 C 0.83299 0.3787 0.44404 0.0
O1491 O 0.88417 0.30196 0.46484 0.0
O1492 O 0.84259 0.29519 0.43945 0.0
N1493 N 0.76867 0.35115 0.52855 0.0
C1494 C 0.78244 0.34268 0.55457 0.0
C1495 C 0.76968 0.32146 0.57397 0.0
C1496 C 0.74484 0.30452 0.56543 0.0
C1497 C 0.73159 0.30985 0.53784 0.0
C1498 C 0.74122 0.34178 0.52198 0.0
H1499 H 0.80358 0.35189 0.56094 0.0
O1500 O 0.82911 0.28686 0.50082 0.0
O1501 O 0.79838 0.3221 0.48241 0.0
O1502 O 0.86346 0.34142 0.51672 0.0
O1503 O 0.82375 0.36132 0.50838 0.0
C1504 C 0.70192 0.29039 0.52619 0.0
C1505 C 0.67172 0.32071 0.48506 0.0
H1506 H 0.66595 0.36548 0.43823 0.0
H1507 H 0.70619 0.39625 0.41674 0.0
H1508 H 0.78074 0.3164 0.59494 0.0
H1509 H 0.73665 0.28683 0.57982 0.0
H1510 H 0.69753 0.26946 0.53806 0.0
H1511 H 0.65106 0.31577 0.47287 0.0
Mn1512 Mn 0.6827 0.84297 0.47632 0.0
Mn1513 Mn 0.63796 0.78643 0.48648 0.0
C1514 C 0.70828 0.79963 0.49071 0.0
C1515 C 0.71025 0.87359 0.44426 0.0
C1516 C 0.63742 0.84091 0.52266 0.0
O1517 O 0.64307 0.85201 0.45299 0.0
O1518 O 0.62361 0.80534 0.44877 0.0
C1519 C 0.62059 0.73931 0.44364 0.0
N1520 N 0.63505 0.74625 0.46969 0.0
C1521 C 0.64971 0.69041 0.47207 0.0
C1522 C 0.63379 0.68569 0.44595 0.0
C1523 C 0.61883 0.70978 0.43254 0.0
C1524 C 0.64459 0.72454 0.48823 0.0
H1525 H 0.60997 0.75672 0.43069 0.0
C1526 C 0.62487 0.83314 0.44101 0.0
O1527 O 0.69871 0.88404 0.46881 0.0
O1528 O 0.70492 0.84585 0.43794 0.0
N1529 N 0.65513 0.76866 0.52247 0.0
C1530 C 0.66672 0.7822 0.54759 0.0
C1531 C 0.68787 0.76849 0.56639 0.0
C1532 C 0.7031 0.74281 0.55783 0.0
C1533 C 0.69642 0.72985 0.53056 0.0
C1534 C 0.66449 0.74099 0.51514 0.0
H1535 H 0.66108 0.8041 0.55427 0.0
O1536 O 0.71819 0.82634 0.49587 0.0
O1537 O 0.68176 0.79782 0.47646 0.0
O1538 O 0.66399 0.85 0.5195 0.0
O1539 O 0.62725 0.82561 0.502 0.0
C1540 C 0.71391 0.69868 0.51959 0.0
C1541 C 0.68092 0.66914 0.48018 0.0
H1542 H 0.63532 0.66447 0.43436 0.0
H1543 H 0.60712 0.70596 0.41166 0.0
H1544 H 0.69463 0.77972 0.58678 0.0
H1545 H 0.72075 0.73383 0.57183 0.0
H1546 H 0.73479 0.69339 0.53124 0.0
H1547 H 0.6843 0.64782 0.46862 0.0
Mn1548 Mn 0.16248 0.67987 0.47051 0.0
Mn1549 Mn 0.22034 0.63426 0.48978 0.0
C1550 C 0.20277 0.70373 0.49346 0.0
C1551 C 0.13475 0.70882 0.43623 0.0
C1552 C 0.16045 0.63592 0.52157 0.0
O1553 O 0.15634 0.6415 0.44624 0.0
O1554 O 0.19919 0.61566 0.45488 0.0
C1555 C 0.26519 0.62246 0.4415 0.0
N1556 N 0.259 0.63473 0.46879 0.0
C1557 C 0.314 0.65439 0.46829 0.0
C1558 C 0.31783 0.6404 0.4409 0.0
C1559 C 0.29397 0.62416 0.42829 0.0
C1560 C 0.28117 0.64613 0.48586 0.0
H1561 H 0.24774 0.61108 0.42924 0.0
C1562 C 0.1737 0.61919 0.44181 0.0
O1563 O 0.12241 0.69512 0.45858 0.0
O1564 O 0.16342 0.7049 0.4329 0.0
N1565 N 0.23959 0.65138 0.52355 0.0
C1566 C 0.22758 0.65723 0.55103 0.0
C1567 C 0.24042 0.6782 0.57063 0.0
C1568 C 0.26395 0.69676 0.56161 0.0
C1569 C 0.27596 0.6936 0.53305 0.0
C1570 C 0.26558 0.66306 0.51517 0.0
H1571 H 0.20804 0.64552 0.55851 0.0
O1572 O 0.17573 0.71417 0.494 0.0
O1573 O 0.2066 0.67761 0.47881 0.0
O1574 O 0.14921 0.65907 0.50968 0.0
O1575 O 0.18543 0.6255 0.51378 0.0
C1576 C 0.30559 0.71351 0.52214 0.0
C1577 C 0.33455 0.68587 0.47826 0.0
H1578 H 0.33805 0.64407 0.42806 0.0
H1579 H 0.29725 0.61396 0.40655 0.0
H1580 H 0.23077 0.68127 0.59264 0.0
H1581 H 0.27252 0.71364 0.57672 0.0
H1582 H 0.3102 0.73366 0.53521 0.0
H1583 H 0.35496 0.69145 0.46597 0.0
Mn1584 Mn 0.31765 0.15682 0.47645 0.0
Mn1585 Mn 0.36188 0.21556 0.49342 0.0
C1586 C 0.29277 0.20086 0.49475 0.0
C1587 C 0.28792 0.12987 0.44264 0.0
C1588 C 0.35805 0.15691 0.52212 0.0
O1589 O 0.35619 0.15026 0.45131 0.0
O1590 O 0.37833 0.19597 0.45674 0.0
C1591 C 0.3873 0.26356 0.45453 0.0
N1592 N 0.37044 0.25614 0.47886 0.0
C1593 C 0.35243 0.31131 0.47889 0.0
C1594 C 0.3705 0.31641 0.45423 0.0
C1595 C 0.38835 0.29305 0.44303 0.0
C1596 C 0.35743 0.2775 0.49562 0.0
H1597 H 0.40017 0.24653 0.44339 0.0
C1598 C 0.37604 0.16985 0.44416 0.0
O1599 O 0.30075 0.11734 0.46529 0.0
O1600 O 0.29299 0.15814 0.4388 0.0
N1601 N 0.34484 0.23319 0.52834 0.0
C1602 C 0.33436 0.21926 0.55348 0.0
C1603 C 0.31226 0.23234 0.57167 0.0
C1604 C 0.29653 0.25783 0.56255 0.0
C1605 C 0.30383 0.27143 0.53557 0.0
C1606 C 0.33624 0.26087 0.5214 0.0
H1607 H 0.34257 0.19773 0.56003 0.0
O1608 O 0.28362 0.17361 0.49904 0.0
O1609 O 0.31894 0.204 0.48039 0.0
O1610 O 0.33822 0.13836 0.51673 0.0
O1611 O 0.35378 0.17834 0.50596 0.0
C1612 C 0.28635 0.30231 0.52374 0.0
C1613 C 0.32045 0.33219 0.48549 0.0
H1614 H 0.36911 0.33742 0.44224 0.0
H1615 H 0.40197 0.2973 0.42343 0.0
H1616 H 0.30562 0.22114 0.5921 0.0
H1617 H 0.27836 0.26639 0.57611 0.0
H1618 H 0.26506 0.30746 0.53468 0.0
H1619 H 0.31723 0.35343 0.47376 0.0
Mn1620 Mn 0.16209 0.32154 0.52996 0.0
Mn1621 Mn 0.22031 0.36632 0.50954 0.0
C1622 C 0.20246 0.29717 0.50754 0.0
C1623 C 0.13496 0.29276 0.56451 0.0
C1624 C 0.16089 0.36375 0.47703 0.0
O1625 O 0.15597 0.36001 0.55397 0.0
O1626 O 0.19788 0.38637 0.54302 0.0
C1627 C 0.26306 0.37981 0.55912 0.0
N1628 N 0.25803 0.36657 0.53204 0.0
C1629 C 0.31247 0.34617 0.53607 0.0
C1630 C 0.31526 0.36117 0.56302 0.0
C1631 C 0.29113 0.37828 0.57378 0.0
C1632 C 0.28084 0.3543 0.51648 0.0
H1633 H 0.2452 0.39185 0.57011 0.0
C1634 C 0.1729 0.38282 0.55705 0.0
O1635 O 0.12217 0.30585 0.54204 0.0
O1636 O 0.16352 0.29712 0.56783 0.0
N1637 N 0.2409 0.34797 0.47712 0.0
C1638 C 0.22987 0.3411 0.44944 0.0
C1639 C 0.24365 0.31967 0.43095 0.0
C1640 C 0.26696 0.30152 0.44139 0.0
C1641 C 0.27784 0.30561 0.47028 0.0
C1642 C 0.26671 0.33673 0.48677 0.0
H1643 H 0.21031 0.35221 0.44099 0.0
O1644 O 0.17535 0.28701 0.50677 0.0
O1645 O 0.20625 0.32353 0.52169 0.0
O1646 O 0.14862 0.34214 0.49068 0.0
O1647 O 0.18629 0.37368 0.48397 0.0
C1648 C 0.30671 0.28575 0.48338 0.0
C1649 C 0.33313 0.31431 0.52824 0.0
H1650 H 0.33483 0.35774 0.5769 0.0
H1651 H 0.29353 0.38931 0.59523 0.0
H1652 H 0.23475 0.3158 0.40874 0.0
H1653 H 0.27609 0.28413 0.42719 0.0
H1654 H 0.31211 0.26525 0.47112 0.0
H1655 H 0.35276 0.30892 0.54186 0.0
Mn1656 Mn 0.68216 0.16078 0.52934 0.0
Mn1657 Mn 0.64026 0.22101 0.51387 0.0
C1658 C 0.70894 0.20249 0.51293 0.0
C1659 C 0.70987 0.13077 0.5627 0.0
C1660 C 0.63808 0.16393 0.4775 0.0
O1661 O 0.64275 0.15437 0.55185 0.0
O1662 O 0.61979 0.19961 0.54768 0.0
C1663 C 0.62646 0.26518 0.56169 0.0
N1664 N 0.64014 0.25936 0.53497 0.0
C1665 C 0.65659 0.31518 0.5356 0.0
C1666 C 0.64128 0.31862 0.56229 0.0
C1667 C 0.62593 0.29411 0.57456 0.0
C1668 C 0.65055 0.282 0.51777 0.0
H1669 H 0.61547 0.24735 0.5737 0.0
C1670 C 0.62187 0.17286 0.55846 0.0
O1671 O 0.69719 0.11965 0.53904 0.0
O1672 O 0.70515 0.15891 0.56787 0.0
N1673 N 0.66112 0.23958 0.48161 0.0
C1674 C 0.67526 0.22489 0.45868 0.0
C1675 C 0.69399 0.23938 0.4382 0.0
C1676 C 0.70751 0.26628 0.44572 0.0
C1677 C 0.70103 0.27881 0.47331 0.0
C1678 C 0.66969 0.26707 0.48929 0.0
H1679 H 0.67391 0.20113 0.45643 0.0
O1680 O 0.71829 0.17536 0.50897 0.0
O1681 O 0.68203 0.20536 0.52611 0.0
O1682 O 0.66173 0.15158 0.48771 0.0
O1683 O 0.62875 0.18802 0.48845 0.0
C1684 C 0.71888 0.30907 0.48519 0.0
C1685 C 0.68777 0.33678 0.52739 0.0
H1686 H 0.6434 0.33912 0.57501 0.0
H1687 H 0.61466 0.29707 0.59581 0.0
H1688 H 0.70184 0.22738 0.41865 0.0
H1689 H 0.72463 0.27576 0.43144 0.0
H1690 H 0.73966 0.31437 0.4734 0.0
H1691 H 0.69192 0.35734 0.54 0.0
Mn1692 Mn 0.32002 0.84037 0.52742 0.0
Mn1693 Mn 0.36467 0.78355 0.51711 0.0
C1694 C 0.29449 0.79787 0.51159 0.0
C1695 C 0.29221 0.87149 0.55846 0.0
C1696 C 0.36632 0.83907 0.48208 0.0
O1697 O 0.35905 0.84829 0.55185 0.0
O1698 O 0.37895 0.80172 0.55571 0.0
C1699 C 0.3802 0.73488 0.55906 0.0
N1700 N 0.36646 0.74279 0.53289 0.0
C1701 C 0.35066 0.6873 0.52882 0.0
C1702 C 0.36596 0.68161 0.55513 0.0
C1703 C 0.38114 0.70504 0.56943 0.0
C1704 C 0.35689 0.72166 0.5136 0.0
H1705 H 0.39085 0.75177 0.57264 0.0
C1706 C 0.37713 0.82941 0.56402 0.0
O1707 O 0.30503 0.88168 0.53449 0.0
O1708 O 0.29658 0.84357 0.56502 0.0
N1709 N 0.348 0.76681 0.48033 0.0
C1710 C 0.33737 0.78108 0.45519 0.0
C1711 C 0.31641 0.7683 0.43557 0.0
C1712 C 0.30039 0.74284 0.44319 0.0
C1713 C 0.30612 0.72913 0.47032 0.0
C1714 C 0.33796 0.73914 0.48667 0.0
H1715 H 0.34363 0.80291 0.44908 0.0
O1716 O 0.28498 0.8248 0.50667 0.0
O1717 O 0.32064 0.79533 0.52648 0.0
O1718 O 0.33966 0.8478 0.48507 0.0
O1719 O 0.37637 0.82283 0.5022 0.0
C1720 C 0.28763 0.69817 0.48022 0.0
C1721 C 0.31913 0.66696 0.51961 0.0
H1722 H 0.36375 0.66017 0.56617 0.0
H1723 H 0.39235 0.70044 0.59042 0.0
H1724 H 0.31043 0.78011 0.41526 0.0
H1725 H 0.28289 0.7346 0.42858 0.0
H1726 H 0.26696 0.69357 0.46793 0.0
H1727 H 0.31504 0.64547 0.53058 0.0
C1728 C 0.09263 0.43462 0.25109 0.0
C1729 C 0.11578 0.42133 0.26778 0.0
H1730 H 0.05854 0.42886 0.2178 0.0
C1731 C 0.12258 0.39104 0.26278 0.0
H1732 H 0.0873 0.45809 0.25404 0.0
C1733 C 0.10588 0.37413 0.24218 0.0
C1734 C 0.08237 0.38733 0.22576 0.0
H1735 H 0.14033 0.38023 0.27532 0.0
H1736 H 0.11108 0.3506 0.23952 0.0
C1737 C 0.07629 0.4179 0.23018 0.0
C1738 C 0.6196 0.10787 0.23416 0.0
C1739 C 0.61592 0.07684 0.23122 0.0
H1740 H 0.60452 0.1481 0.25557 0.0
C1741 C 0.59479 0.06218 0.24932 0.0
H1742 H 0.63563 0.11968 0.22032 0.0
C1743 C 0.57733 0.07822 0.26977 0.0
C1744 C 0.58039 0.10936 0.27232 0.0
H1745 H 0.5919 0.03815 0.2478 0.0
H1746 H 0.56125 0.06625 0.28339 0.0
C1747 C 0.60183 0.12403 0.25439 0.0
C1748 C 0.93061 0.58734 0.23902 0.0
C1749 C 0.9203 0.61568 0.22991 0.0
H1750 H 0.92335 0.54868 0.26625 0.0
C1751 C 0.89351 0.62672 0.24231 0.0
H1752 H 0.95125 0.57818 0.23017 0.0
C1753 C 0.87721 0.60945 0.26298 0.0
C1754 C 0.88774 0.58114 0.27205 0.0
H1755 H 0.88508 0.64853 0.23592 0.0
H1756 H 0.85645 0.61827 0.27191 0.0
C1757 C 0.91471 0.57046 0.25996 0.0
C1758 C 0.40971 0.91623 0.27873 0.0
C1759 C 0.4189 0.88707 0.27144 0.0
H1760 H 0.3853 0.95531 0.26479 0.0
C1761 C 0.41 0.87473 0.24385 0.0
H1762 H 0.4161 0.92616 0.29992 0.0
C1763 C 0.39262 0.89147 0.22371 0.0
C1764 C 0.3837 0.92068 0.23098 0.0
H1765 H 0.41728 0.85249 0.23747 0.0
H1766 H 0.38674 0.88188 0.20222 0.0
C1767 C 0.39214 0.93284 0.25872 0.0
C1768 C 0.11616 0.61376 0.72791 0.0
C1769 C 0.11687 0.58242 0.73064 0.0
H1770 H 0.09791 0.65518 0.74455 0.0
C1771 C 0.1009 0.56889 0.75404 0.0
H1772 H 0.12818 0.62468 0.70991 0.0
C1773 C 0.08408 0.58621 0.77402 0.0
C1774 C 0.08249 0.61752 0.77093 0.0
H1775 H 0.10153 0.54482 0.75694 0.0
H1776 H 0.072 0.57498 0.79179 0.0
C1777 C 0.09896 0.63118 0.74779 0.0
C1778 C 0.37777 0.1104 0.76122 0.0
C1779 C 0.38704 0.08114 0.76833 0.0
H1780 H 0.38702 0.15056 0.73629 0.0
C1781 C 0.4128 0.06963 0.75444 0.0
H1782 H 0.35798 0.11985 0.77161 0.0
C1783 C 0.4289 0.0868 0.73387 0.0
C1784 C 0.42006 0.11622 0.72699 0.0
H1785 H 0.42036 0.04707 0.75915 0.0
H1786 H 0.4486 0.07702 0.72363 0.0
C1787 C 0.39434 0.12793 0.74098 0.0
C1788 C 0.91164 0.43291 0.74675 0.0
C1789 C 0.88554 0.42121 0.73368 0.0
H1790 H 0.94796 0.42623 0.77726 0.0
C1791 C 0.87581 0.39259 0.74261 0.0
H1792 H 0.91949 0.45506 0.74082 0.0
C1793 C 0.89243 0.37577 0.76346 0.0
C1794 C 0.91873 0.3875 0.77629 0.0
H1795 H 0.85563 0.38302 0.73316 0.0
H1796 H 0.8848 0.35353 0.76937 0.0
C1797 C 0.92785 0.41643 0.76791 0.0
C1798 C 0.59752 0.9351 0.75094 0.0
C1799 C 0.61892 0.92139 0.76947 0.0
H1800 H 0.56419 0.92959 0.71699 0.0
C1801 C 0.62345 0.89035 0.76701 0.0
H1802 H 0.5939 0.95906 0.75201 0.0
C1803 C 0.60606 0.87324 0.74707 0.0
C1804 C 0.5842 0.88697 0.72891 0.0
H1805 H 0.63973 0.87922 0.78115 0.0
H1806 H 0.60927 0.84922 0.74637 0.0
C1807 C 0.58057 0.91818 0.73078 0.0
C1808 C 0.23645 0.10787 0.37878 0.0
C1809 C 0.22729 0.07919 0.38795 0.0
H1810 H 0.26282 0.14671 0.38907 0.0
C1811 C 0.23811 0.06759 0.41504 0.0
H1812 H 0.22843 0.11733 0.35793 0.0
C1813 C 0.25804 0.08406 0.43245 0.0
C1814 C 0.26729 0.11271 0.4234 0.0
H1815 H 0.23163 0.04549 0.42259 0.0
H1816 H 0.26609 0.07432 0.45315 0.0
C1817 C 0.25614 0.12463 0.39651 0.0
C1818 C 0.88008 0.26488 0.39222 0.0
C1819 C 0.88691 0.26794 0.42284 0.0
H1820 H 0.89137 0.24359 0.35041 0.0
C1821 C 0.90968 0.25011 0.4351 0.0
H1822 H 0.86264 0.27844 0.38219 0.0
C1823 C 0.92552 0.2299 0.41728 0.0
C1824 C 0.9195 0.22727 0.38646 0.0
H1825 H 0.91516 0.25163 0.45869 0.0
H1826 H 0.94292 0.21662 0.42774 0.0
C1827 C 0.89647 0.24492 0.37408 0.0
C1828 C 0.73581 0.88276 0.39547 0.0
C1829 C 0.73019 0.89162 0.42511 0.0
H1830 H 0.75953 0.89156 0.3548 0.0
C1831 C 0.74514 0.91668 0.43672 0.0
H1832 H 0.72459 0.86348 0.38596 0.0
C1833 C 0.76552 0.93251 0.41902 0.0
C1834 C 0.77105 0.92373 0.3893 0.0
H1835 H 0.74153 0.92373 0.45964 0.0
H1836 H 0.77683 0.95169 0.42859 0.0
C1837 C 0.75592 0.89875 0.37768 0.0
C1838 C 0.11126 0.76287 0.37403 0.0
C1839 C 0.082 0.77034 0.38308 0.0
H1840 H 0.15133 0.73783 0.38397 0.0
C1841 C 0.07036 0.75689 0.409 0.0
H1842 H 0.12082 0.77288 0.35414 0.0
C1843 C 0.08737 0.73655 0.42554 0.0
C1844 C 0.11682 0.72937 0.41704 0.0
H1845 H 0.04779 0.76183 0.41643 0.0
H1846 H 0.07744 0.72674 0.44536 0.0
C1847 C 0.12868 0.7428 0.39108 0.0
C1848 C 0.23924 0.93354 0.58101 0.0
C1849 C 0.23021 0.92403 0.60957 0.0
H1850 H 0.26646 0.92454 0.54258 0.0
C1851 C 0.2421 0.89739 0.62136 0.0
H1852 H 0.23054 0.95405 0.57144 0.0
C1853 C 0.26257 0.88053 0.60486 0.0
C1854 C 0.27177 0.89013 0.57641 0.0
H1855 H 0.23566 0.88956 0.64338 0.0
H1856 H 0.27123 0.86 0.61445 0.0
C1857 C 0.26 0.91681 0.56463 0.0
C1858 C 0.0963 0.25537 0.63047 0.0
C1859 C 0.0817 0.23134 0.61619 0.0
H1860 H 0.12473 0.29401 0.62517 0.0
C1861 C 0.08618 0.22709 0.58536 0.0
H1862 H 0.09296 0.25941 0.65415 0.0
C1863 C 0.10412 0.24681 0.56897 0.0
C1864 C 0.1181 0.27116 0.58301 0.0
H1865 H 0.0756 0.20859 0.5738 0.0
H1866 H 0.10694 0.24313 0.54515 0.0
C1867 C 0.11443 0.27514 0.61398 0.0
C1868 C 0.75864 0.10515 0.62783 0.0
C1869 C 0.77417 0.08083 0.61517 0.0
H1870 H 0.72603 0.13999 0.62124 0.0
C1871 C 0.76797 0.073 0.58527 0.0
H1872 H 0.76264 0.11164 0.65085 0.0
C1873 C 0.74654 0.08874 0.56862 0.0
C1874 C 0.73108 0.11306 0.58123 0.0
H1875 H 0.77943 0.0544 0.57474 0.0
H1876 H 0.74249 0.08219 0.54562 0.0
C1877 C 0.73753 0.12127 0.61094 0.0
C1878 C 0.90628 0.74634 0.56572 0.0
C1879 C 0.88314 0.73026 0.57965 0.0
H1880 H 0.941 0.77897 0.57018 0.0
C1881 C 0.87701 0.73581 0.61002 0.0
H1882 H 0.91117 0.74296 0.5422 0.0
C1883 C 0.89447 0.75637 0.62632 0.0
C1884 C 0.91798 0.77213 0.61237 0.0
H1885 H 0.8593 0.7237 0.62131 0.0
H1886 H 0.8899 0.75951 0.64992 0.0
C1887 C 0.92329 0.76714 0.58176 0.0
C1888 C 0.41392 0.27656 0.08168 0.0
C1889 C 0.41963 0.27067 0.11201 0.0
H1890 H 0.39258 0.2615 0.04127 0.0
C1891 C 0.40805 0.24446 0.125 0.0
H1892 H 0.42232 0.29678 0.07128 0.0
C1893 C 0.39122 0.22433 0.10788 0.0
C1894 C 0.38577 0.23013 0.07753 0.0
H1895 H 0.41259 0.23918 0.14824 0.0
H1896 H 0.38287 0.20403 0.11818 0.0
C1897 C 0.39704 0.25643 0.06457 0.0
C1898 C 0.38041 0.77155 0.88535 0.0
C1899 C 0.3812 0.77074 0.91684 0.0
H1900 H 0.39755 0.75301 0.84417 0.0
C1901 C 0.39876 0.74881 0.9309 0.0
H1902 H 0.36719 0.78839 0.87394 0.0
C1903 C 0.41559 0.72843 0.91408 0.0
C1904 C 0.41574 0.72958 0.88261 0.0
H1905 H 0.39944 0.74738 0.95511 0.0
H1906 H 0.42885 0.71191 0.92589 0.0
C1907 C 0.39773 0.75127 0.86835 0.0
C1908 C 0.26805 0.42826 0.916 0.0
C1909 C 0.27507 0.41803 0.8871 0.0
H1910 H 0.24263 0.42135 0.95595 0.0
C1911 C 0.26164 0.39155 0.87662 0.0
H1912 H 0.27791 0.4486 0.92474 0.0
C1913 C 0.24151 0.37571 0.89474 0.0
C1914 C 0.23411 0.38639 0.92338 0.0
H1915 H 0.2665 0.3832 0.85439 0.0
H1916 H 0.2314 0.35541 0.88617 0.0
C1917 C 0.24764 0.41275 0.93383 0.0
C1918 C 0.61291 0.25791 0.93087 0.0
C1919 C 0.62033 0.2296 0.91955 0.0
H1920 H 0.58978 0.29932 0.92324 0.0
C1921 C 0.61102 0.22158 0.89064 0.0
H1922 H 0.62011 0.26451 0.95307 0.0
C1923 C 0.59398 0.24159 0.87343 0.0
C1924 C 0.58589 0.26968 0.88511 0.0
H1925 H 0.61626 0.19964 0.88173 0.0
H1926 H 0.58614 0.23469 0.85154 0.0
C1927 C 0.59568 0.27775 0.91385 0.0
C1928 C 0.74256 0.56842 0.91684 0.0
C1929 C 0.72947 0.57974 0.89059 0.0
H1930 H 0.77293 0.57616 0.95311 0.0
C1931 C 0.73712 0.60872 0.88103 0.0
H1932 H 0.73734 0.54605 0.92458 0.0
C1933 C 0.75737 0.62608 0.89747 0.0
C1934 C 0.77072 0.61463 0.92357 0.0
H1935 H 0.7274 0.61804 0.86085 0.0
H1936 H 0.76264 0.64841 0.88966 0.0
C1937 C 0.76313 0.5856 0.93304 0.0
C1938 C 0.57449 0.73424 0.08059 0.0
C1939 C 0.58116 0.72796 0.11066 0.0
H1940 H 0.5858 0.75933 0.04139 0.0
C1941 C 0.60567 0.7425 0.12417 0.0
H1942 H 0.55582 0.72346 0.06951 0.0
C1943 C 0.62306 0.76293 0.10792 0.0
C1944 C 0.61593 0.76956 0.07804 0.0
H1945 H 0.61125 0.73835 0.14741 0.0
H1946 H 0.64171 0.77392 0.11885 0.0
C1947 C 0.59155 0.75496 0.06455 0.0
C1948 C 0.24164 0.58583 0.06466 0.0
C1949 C 0.2282 0.61151 0.07681 0.0
H1950 H 0.27202 0.54941 0.07162 0.0
C1951 C 0.2352 0.62006 0.10624 0.0
H1952 H 0.23688 0.57896 0.04189 0.0
C1953 C 0.25519 0.60312 0.12329 0.0
C1954 C 0.26883 0.57753 0.11109 0.0
H1955 H 0.22511 0.63977 0.11614 0.0
H1956 H 0.2599 0.61007 0.14605 0.0
C1957 C 0.26193 0.56908 0.08159 0.0
C1958 C 0.73263 0.42708 0.08231 0.0
C1959 C 0.72855 0.42027 0.11271 0.0
H1960 H 0.75525 0.41643 0.04151 0.0
C1961 C 0.74436 0.39599 0.12517 0.0
H1962 H 0.72075 0.44552 0.07197 0.0
C1963 C 0.76402 0.37903 0.10749 0.0
C1964 C 0.7685 0.38646 0.07727 0.0
H1965 H 0.74182 0.39033 0.14861 0.0
H1966 H 0.77615 0.36059 0.11755 0.0
C1967 C 0.75253 0.41051 0.06487 0.0
C1968 C 0.02835 0.24228 0.27187 0.0
C1969 C 1.00055 0.22757 0.27586 0.0
H1970 H 0.05511 0.27148 0.24362 0.0
C1971 C 0.97594 0.2428 0.26331 0.0
H1972 H 0.04719 0.23629 0.2859 0.0
C1973 C 0.98023 0.26686 0.24287 0.0
C1974 C 0.00856 0.27293 0.23019 0.0
H1975 H 0.95341 0.2367 0.26985 0.0
H1976 H 0.96107 0.27996 0.2361 0.0
C1977 C 0.03283 0.26293 0.24786 0.0
C1978 C 0.75631 0.01963 0.26914 0.0
C1979 C 0.77081 0.99172 0.27277 0.0
H1980 H 0.72823 0.04712 0.24074 0.0
C1981 C 0.7558 0.96724 0.25981 0.0
H1982 H 0.76226 0.03825 0.28347 0.0
C1983 C 0.7322 0.97201 0.23894 0.0
C1984 C 0.72671 0.00076 0.22688 0.0
H1985 H 0.76189 0.94463 0.26604 0.0
H1986 H 0.71976 0.95297 0.23063 0.0
C1987 C 0.73636 0.02467 0.24497 0.0
C1988 C 0.97081 0.73702 0.24449 0.0
C1989 C 0.99597 0.72633 0.22858 0.0
H1990 H 0.9546 0.76413 0.28139 0.0
C1991 C 0.02364 0.73158 0.24306 0.0
H1992 H 0.94862 0.72928 0.23852 0.0
C1993 C 0.02705 0.7554 0.26399 0.0
C1994 C 0.00198 0.77143 0.27463 0.0
H1995 H 0.04317 0.71876 0.23658 0.0
H1996 H 0.04922 0.76096 0.27208 0.0
C1997 C 0.97416 0.75758 0.26869 0.0
C1998 C 0.24533 0.9811 0.2686 0.0
C1999 C 0.23068 0.00895 0.27208 0.0
H2000 H 0.27363 0.95357 0.24044 0.0
C2001 C 0.24574 0.0334 0.25907 0.0
H2002 H 0.23948 0.96256 0.28304 0.0
C2003 C 0.26944 0.02861 0.23827 0.0
C2004 C 0.27506 0.99983 0.22629 0.0
H2005 H 0.23962 0.05603 0.26523 0.0
H2006 H 0.28187 0.04765 0.22996 0.0
C2007 C 0.2654 0.97601 0.24451 0.0
C2008 C 0.0237 0.73305 0.75251 0.0
C2009 C 0.99901 0.72502 0.77046 0.0
H2010 H 0.03968 0.75795 0.71419 0.0
C2011 C 0.9709 0.73274 0.7581 0.0
H2012 H 0.04548 0.72335 0.75697 0.0
C2013 C 0.96812 0.75648 0.73685 0.0
C2014 C 0.99374 0.76989 0.72403 0.0
H2015 H 0.95095 0.72161 0.76607 0.0
H2016 H 0.94602 0.76397 0.73023 0.0
C2017 C 0.02046 0.7534 0.72822 0.0
C2018 C 0.2444 0.02244 0.72911 0.0
C2019 C 0.23117 0.99407 0.72433 0.0
H2020 H 0.27201 0.04985 0.75812 0.0
C2021 C 0.24804 0.96981 0.73544 0.0
H2022 H 0.23721 0.04139 0.71584 0.0
C2023 C 0.27218 0.97462 0.75578 0.0
C2024 C 0.27697 0.00297 0.76902 0.0
H2025 H 0.24294 0.94726 0.72817 0.0
H2026 H 0.2856 0.95571 0.76281 0.0
C2027 C 0.26504 0.02725 0.75285 0.0
C2028 C 0.97242 0.24302 0.73188 0.0
C2029 C 0.00061 0.23033 0.72498 0.0
H2030 H 0.94663 0.2703 0.7628 0.0
C2031 C 0.02527 0.24731 0.73487 0.0
H2032 H 0.95283 0.23596 0.71954 0.0
C2033 C 0.02153 0.27107 0.75582 0.0
C2034 C 0.99413 0.27548 0.77105 0.0
H2035 H 0.04737 0.24264 0.72606 0.0
H2036 H 0.04064 0.28484 0.76136 0.0
C2037 C 0.96894 0.2635 0.75614 0.0
C2038 C 0.7575 0.03193 0.74191 0.0
C2039 C 0.77112 0.00691 0.72819 0.0
H2040 H 0.7224 0.04773 0.77154 0.0
C2041 C 0.75514 0.97986 0.73198 0.0
H2042 H 0.76445 0.05431 0.73574 0.0
C2043 C 0.73522 0.9757 0.75658 0.0
C2044 C 0.72733 0.99972 0.77551 0.0
H2045 H 0.75962 0.96116 0.71726 0.0
H2046 H 0.72574 0.95375 0.76049 0.0
C2047 C 0.73412 0.02818 0.76335 0.0
C2048 C 0.24502 0.26344 0.97334 0.0
C2049 C 0.23103 0.27627 0.9985 0.0
H2050 H 0.28002 0.23402 0.95719 0.0
C2051 C 0.24591 0.27121 0.026 0.0
H2052 H 0.23847 0.27035 0.95105 0.0
C2053 C 0.26549 0.24635 0.02977 0.0
C2054 C 0.27438 0.22886 0.00503 0.0
H2055 H 0.24063 0.28501 0.0452 0.0
H2056 H 0.27393 0.24113 0.05189 0.0
C2057 C 0.26829 0.24195 0.97685 0.0
C2058 C 0.2454 0.73965 0.03283 0.0
C2059 C 0.22977 0.72734 0.00831 0.0
H2060 H 0.28188 0.76833 0.04727 0.0
C2061 C 0.24408 0.73138 0.98035 0.0
H2062 H 0.23957 0.73302 0.0554 0.0
C2063 C 0.26433 0.75537 0.97553 0.0
C2064 C 0.27463 0.77292 0.9996 0.0
H2065 H 0.23787 0.71742 0.96155 0.0
H2066 H 0.27219 0.75988 0.95305 0.0
C2067 C 0.2692 0.76046 0.0282 0.0
C2068 C 0.75421 0.2699 0.97711 0.0
C2069 C 0.76982 0.27461 0.0042 0.0
H2070 H 0.72564 0.24016 0.95161 0.0
C2071 C 0.75691 0.26107 0.02958 0.0
H2072 H 0.75888 0.28397 0.95795 0.0
C2073 C 0.73381 0.23938 0.02639 0.0
C2074 C 0.72699 0.22684 0.99815 0.0
H2075 H 0.76416 0.26759 0.05177 0.0
H2076 H 0.72265 0.23106 0.04619 0.0
C2077 C 0.73479 0.24498 0.97354 0.0
C2078 C 0.75702 0.73942 0.97085 0.0
C2079 C 0.77351 0.72818 0.9953 0.0
H2080 H 0.71962 0.76681 0.95653 0.0
C2081 C 0.75985 0.73267 0.02353 0.0
H2082 H 0.7624 0.73229 0.94832 0.0
C2083 C 0.73928 0.75648 0.02822 0.0
C2084 C 0.72809 0.77308 0.00386 0.0
H2085 H 0.76682 0.7193 0.04251 0.0
H2086 H 0.73188 0.76156 0.05074 0.0
C2087 C 0.73292 0.75975 0.97552 0.0
C2088 C 0.52913 0.73985 0.76952 0.0
C2089 C 0.50085 0.72779 0.77701 0.0
H2090 H 0.5545 0.76767 0.73869 0.0
C2091 C 0.47644 0.74623 0.76907 0.0
H2092 H 0.54894 0.73154 0.7807 0.0
C2093 C 0.48003 0.77072 0.74899 0.0
C2094 C 0.5069 0.77487 0.73281 0.0
H2095 H 0.45457 0.74199 0.77864 0.0
H2096 H 0.46102 0.78506 0.74451 0.0
C2097 C 0.53229 0.76135 0.74605 0.0
C2098 C 0.25637 0.51907 0.76872 0.0
C2099 C 0.27061 0.4909 0.77134 0.0
H2100 H 0.22839 0.54793 0.74148 0.0
C2101 C 0.25526 0.46716 0.75733 0.0
H2102 H 0.26253 0.53705 0.78374 0.0
C2103 C 0.23166 0.473 0.73665 0.0
C2104 C 0.22635 0.50224 0.72563 0.0
H2105 H 0.26108 0.44424 0.76265 0.0
H2106 H 0.21898 0.4544 0.72771 0.0
C2107 C 0.23632 0.52526 0.74476 0.0
C2108 C 0.53124 0.25492 0.76129 0.0
C2109 C 0.50639 0.26854 0.77523 0.0
H2110 H 0.54671 0.22045 0.73082 0.0
C2111 C 0.47885 0.25368 0.77064 0.0
H2112 H 0.5537 0.26151 0.76761 0.0
C2113 C 0.47452 0.2343 0.74569 0.0
C2114 C 0.49873 0.22576 0.72723 0.0
H2115 H 0.45998 0.25876 0.78498 0.0
H2116 H 0.45231 0.22574 0.7411 0.0
C2117 C 0.52725 0.232 0.73946 0.0
C2118 C 0.76302 0.47433 0.74781 0.0
C2119 C 0.77468 0.49833 0.7312 0.0
H2120 H 0.73549 0.46081 0.78511 0.0
C2121 C 0.77031 0.52691 0.74412 0.0
H2122 H 0.76999 0.45166 0.7428 0.0
C2123 C 0.7464 0.53214 0.7645 0.0
C2124 C 0.72961 0.50804 0.77599 0.0
H2125 H 0.78387 0.54559 0.7368 0.0
H2126 H 0.74142 0.55479 0.77153 0.0
C2127 C 0.74268 0.47955 0.77159 0.0
C2128 C 0.47714 0.22601 0.25513 0.0
C2129 C 0.50534 0.22193 0.26904 0.0
H2130 H 0.44926 0.25466 0.22746 0.0
C2131 C 0.52951 0.23456 0.25316 0.0
H2132 H 0.45859 0.21171 0.26122 0.0
C2133 C 0.5244 0.25526 0.22942 0.0
C2134 C 0.49572 0.26779 0.22435 0.0
H2135 H 0.55223 0.228 0.25855 0.0
H2136 H 0.54322 0.26276 0.21618 0.0
C2137 C 0.47186 0.25021 0.23506 0.0
C2138 C 0.76605 0.52872 0.25461 0.0
C2139 C 0.77679 0.50437 0.27161 0.0
H2140 H 0.73934 0.54295 0.21674 0.0
C2141 C 0.77168 0.47605 0.25845 0.0
H2142 H 0.77372 0.55118 0.25951 0.0
C2143 C 0.74785 0.47156 0.23775 0.0
C2144 C 0.73181 0.49603 0.22603 0.0
H2145 H 0.7847 0.45695 0.26571 0.0
H2146 H 0.74238 0.44906 0.23063 0.0
C2147 C 0.74564 0.52412 0.23059 0.0
C2148 C 0.5308 0.74811 0.23494 0.0
C2149 C 0.50616 0.73231 0.22318 0.0
H2150 H 0.54572 0.78543 0.26207 0.0
C2151 C 0.47828 0.74665 0.22785 0.0
H2152 H 0.55324 0.74249 0.22767 0.0
C2153 C 0.47389 0.76706 0.25198 0.0
C2154 C 0.49837 0.77784 0.26878 0.0
H2155 H 0.45939 0.74092 0.21386 0.0
H2156 H 0.45149 0.77496 0.2569 0.0
C2157 C 0.52658 0.77221 0.2555 0.0
C2158 C 0.25349 0.53126 0.24039 0.0
C2159 C 0.26742 0.50668 0.2264 0.0
H2160 H 0.21862 0.5459 0.27076 0.0
C2161 C 0.25252 0.47904 0.23014 0.0
H2162 H 0.25995 0.55384 0.23443 0.0
C2163 C 0.23321 0.47409 0.25488 0.0
C2164 C 0.22464 0.4979 0.27369 0.0
H2165 H 0.25767 0.46051 0.2154 0.0
H2166 H 0.22475 0.45177 0.25903 0.0
C2167 C 0.23043 0.5267 0.26188 0.0
C2168 C 0.76993 0.74094 0.47234 0.0
C2169 C 0.77572 0.7281 0.50071 0.0
H2170 H 0.74042 0.76938 0.44604 0.0
C2171 C 0.7667 0.74591 0.52512 0.0
H2172 H 0.78193 0.73284 0.45292 0.0
C2173 C 0.74714 0.77067 0.52095 0.0
C2174 C 0.73222 0.77537 0.4934 0.0
H2175 H 0.77503 0.741 0.54736 0.0
H2176 H 0.74187 0.7847 0.53999 0.0
C2177 C 0.74667 0.76251 0.46843 0.0
C2178 C 0.74759 0.23087 0.48168 0.0
C2179 C 0.7331 0.22638 0.50948 0.0
H2180 H 0.7761 0.25973 0.455 0.0
C2181 C 0.74863 0.23834 0.53423 0.0
H2182 H 0.74193 0.21685 0.4628 0.0
C2183 C 0.77263 0.25893 0.53005 0.0
C2184 C 0.77835 0.27196 0.50175 0.0
H2185 H 0.74275 0.23135 0.55667 0.0
H2186 H 0.78555 0.26598 0.54928 0.0
C2187 C 0.76796 0.25496 0.47733 0.0
C2188 C 0.2559 0.77036 0.47986 0.0
C2189 C 0.27026 0.77415 0.50784 0.0
H2190 H 0.22803 0.7419 0.4522 0.0
C2191 C 0.25493 0.76119 0.5322 0.0
H2192 H 0.26186 0.7847 0.46127 0.0
C2193 C 0.23139 0.74018 0.52729 0.0
C2194 C 0.2261 0.72798 0.49853 0.0
H2195 H 0.26074 0.76752 0.55486 0.0
H2196 H 0.21879 0.73194 0.54625 0.0
C2197 C 0.23598 0.74613 0.47472 0.0
C2198 C 0.23195 0.25978 0.47567 0.0
C2199 C 0.22556 0.27243 0.50395 0.0
H2200 H 0.26185 0.23136 0.4499 0.0
C2201 C 0.23395 0.25444 0.52851 0.0
H2202 H 0.22044 0.26804 0.45603 0.0
C2203 C 0.25345 0.22957 0.52472 0.0
C2204 C 0.26858 0.22473 0.49739 0.0
H2205 H 0.22519 0.25933 0.55058 0.0
H2206 H 0.25849 0.21557 0.54384 0.0
C2207 C 0.25505 0.23806 0.47218 0.0
C2208 C 0.1006 0.35712 0.09625 0.0
C2209 C 0.07818 0.33504 0.09368 0.0
H2210 H 0.13874 0.37814 0.07513 0.0
C2211 C 0.07464 0.32011 0.06632 0.0
H2212 H 0.10362 0.36912 0.11709 0.0
C2213 C 0.09384 0.3257 0.04265 0.0
C2214 C 0.11762 0.34603 0.0456 0.0
H2215 H 0.05728 0.30344 0.06329 0.0
H2216 H 0.09087 0.31282 0.0223 0.0
C2217 C 0.12047 0.36247 0.07228 0.0
C2218 C 0.65196 0.06794 0.06973 0.0
C2219 C 0.6613 0.07937 0.09739 0.0
H2220 H 0.64187 0.07776 0.02398 0.0
C2221 C 0.66119 0.11047 0.10195 0.0
H2222 H 0.65138 0.04399 0.06595 0.0
C2223 C 0.65512 0.12992 0.07798 0.0
C2224 C 0.6494 0.1184 0.04924 0.0
H2225 H 0.66801 0.11969 0.12332 0.0
H2226 H 0.6588 0.1537 0.08103 0.0
C2227 C 0.64571 0.0873 0.04596 0.0
C2228 C 0.89683 0.65256 0.09625 0.0
C2229 C 0.92691 0.66137 0.09254 0.0
H2230 H 0.85445 0.64498 0.07431 0.0
C2231 C 0.939 0.66209 0.06366 0.0
H2232 H 0.88714 0.65145 0.11844 0.0
C2233 C 0.92095 0.65669 0.03881 0.0
C2234 C 0.88988 0.65202 0.042 0.0
H2235 H 0.96222 0.66826 0.06018 0.0
H2236 H 0.93071 0.65972 0.01679 0.0
C2237 C 0.87826 0.6482 0.07104 0.0
C2238 C 0.35638 0.91215 0.04529 0.0
C2239 C 0.35339 0.88099 0.04889 0.0
H2240 H 0.34968 0.9556 0.06471 0.0
C2241 C 0.34822 0.86979 0.07788 0.0
H2242 H 0.35985 0.9215 0.02317 0.0
C2243 C 0.34184 0.88945 0.10167 0.0
C2244 C 0.34079 0.92049 0.09672 0.0
H2245 H 0.34515 0.84598 0.0813 0.0
H2246 H 0.33551 0.88034 0.12323 0.0
C2247 C 0.34968 0.9317 0.06883 0.0
C2248 C 0.09552 0.64452 0.90678 0.0
C2249 C 0.07511 0.6688 0.9053 0.0
H2250 H 0.13072 0.62282 0.93253 0.0
C2251 C 0.07468 0.68927 0.92897 0.0
H2252 H 0.09638 0.62821 0.88887 0.0
C2253 C 0.09327 0.68598 0.95317 0.0
C2254 C 0.11386 0.66215 0.95534 0.0
H2255 H 0.05975 0.70838 0.92927 0.0
H2256 H 0.09175 0.70329 0.97011 0.0
C2257 C 0.11512 0.64135 0.93167 0.0
C2258 C 0.35233 0.10466 0.90226 0.0
C2259 C 0.33847 0.07637 0.90442 0.0
H2260 H 0.36355 0.14548 0.92576 0.0
C2261 C 0.33258 0.06461 0.9328 0.0
H2262 H 0.35794 0.1138 0.88053 0.0
C2263 C 0.33782 0.08154 0.95834 0.0
C2264 C 0.34718 0.11162 0.95628 0.0
H2265 H 0.32265 0.0426 0.93525 0.0
H2266 H 0.331 0.07215 0.97967 0.0
C2267 C 0.35617 0.12253 0.92813 0.0
C2268 C 0.90593 0.31944 0.95778 0.0
C2269 C 0.88393 0.34186 0.95554 0.0
H2270 H 0.94287 0.29709 0.93777 0.0
C2271 C 0.88436 0.36113 0.93073 0.0
H2272 H 0.90644 0.30432 0.97674 0.0
C2273 C 0.90578 0.35694 0.90789 0.0
C2274 C 0.92688 0.3334 0.90965 0.0
H2275 H 0.86764 0.37856 0.92847 0.0
H2276 H 0.90519 0.37147 0.8885 0.0
C2277 C 0.92692 0.3152 0.93524 0.0
C2278 C 0.64908 0.91586 0.95878 0.0
C2279 C 0.64928 0.88454 0.95551 0.0
H2280 H 0.65717 0.95828 0.93801 0.0
C2281 C 0.65044 0.87243 0.92645 0.0
H2282 H 0.64846 0.92582 0.98091 0.0
C2283 C 0.6556 0.89123 0.90168 0.0
C2284 C 0.65959 0.92216 0.90592 0.0
H2285 H 0.65122 0.84841 0.9233 0.0
H2286 H 0.65901 0.88139 0.87979 0.0
C2287 C 0.6547 0.93443 0.93434 0.0
C2288 C 0.07324 0.07097 0.34939 0.0
C2289 C 0.10002 0.08373 0.33924 0.0
H2290 H 0.02782 0.07886 0.36229 0.0
C2291 C 0.10397 0.11479 0.34166 0.0
H2292 H 0.07008 0.04693 0.3486 0.0
C2293 C 0.08 0.13312 0.35068 0.0
C2294 C 0.05165 0.1206 0.35634 0.0
H2295 H 0.12487 0.12499 0.33481 0.0
H2296 H 0.08246 0.15717 0.34887 0.0
C2297 C 0.04939 0.08923 0.35828 0.0
C2298 C 0.90307 0.09232 0.35508 0.0
C2299 C 0.92466 0.09311 0.33188 0.0
H2300 H 0.86696 0.06706 0.37564 0.0
C2301 C 0.92669 0.06862 0.31249 0.0
H2302 H 0.90095 0.11094 0.37044 0.0
C2303 C 0.90846 0.04425 0.31582 0.0
C2304 C 0.88658 0.04284 0.33849 0.0
H2305 H 0.94262 0.06779 0.29422 0.0
H2306 H 0.91122 0.02669 0.2993 0.0
C2307 C 0.88375 0.0673 0.35817 0.0
C2308 C 0.92595 0.92647 0.35133 0.0
C2309 C 0.89932 0.91415 0.34021 0.0
H2310 H 0.9714 0.91815 0.36397 0.0
C2311 C 0.89564 0.88297 0.34067 0.0
H2312 H 0.92897 0.95053 0.35189 0.0
C2313 C 0.91968 0.86432 0.34886 0.0
C2314 C 0.9479 0.87668 0.35551 0.0
H2315 H 0.87494 0.87302 0.33288 0.0
H2316 H 0.91742 0.84039 0.34563 0.0
C2317 C 0.94993 0.90789 0.3592 0.0
C2318 C 0.09748 0.95142 0.31212 0.0
C2319 C 0.11612 0.95521 0.33726 0.0
H2320 H 0.06463 0.92713 0.28959 0.0
C2321 C 0.11513 0.93339 0.36 0.0
H2322 H 0.09761 0.96698 0.29351 0.0
C2323 C 0.09516 0.90872 0.35734 0.0
C2324 C 0.07645 0.90583 0.33184 0.0
H2325 H 0.12902 0.93566 0.37973 0.0
H2326 H 0.09417 0.89228 0.37512 0.0
C2327 C 0.07832 0.92769 0.30955 0.0
C2328 C 0.05399 0.90413 0.63545 0.0
C2329 C 0.05591 0.8738 0.64379 0.0
H2330 H 0.07455 0.94763 0.63667 0.0
C2331 C 0.08382 0.86325 0.65419 0.0
H2332 H 0.03293 0.91314 0.62742 0.0
C2333 C 0.10682 0.88341 0.66181 0.0
C2334 C 0.10326 0.91421 0.65672 0.0
H2335 H 0.08668 0.83986 0.65985 0.0
H2336 H 0.12677 0.87511 0.67286 0.0
C2337 C 0.07753 0.92406 0.64155 0.0
C2338 C 0.0937 0.04808 0.68138 0.0
C2339 C 0.11582 0.0463 0.65899 0.0
H2340 H 0.05994 0.07216 0.70294 0.0
C2341 C 0.1193 0.07095 0.63954 0.0
H2342 H 0.0902 0.03043 0.69764 0.0
C2343 C 0.10064 0.09658 0.6429 0.0
C2344 C 0.07923 0.09786 0.66627 0.0
H2345 H 0.13615 0.07045 0.62213 0.0
H2346 H 0.10328 0.11535 0.62781 0.0
C2347 C 0.07622 0.07296 0.68498 0.0
C2348 C 0.95953 0.09211 0.67938 0.0
C2349 C 0.95713 0.11464 0.65749 0.0
H2350 H 0.93889 0.05606 0.70262 0.0
C2351 C 0.93128 0.11549 0.63954 0.0
H2352 H 0.97919 0.09059 0.69355 0.0
C2353 C 0.9077 0.09503 0.64474 0.0
C2354 C 0.90958 0.07376 0.66815 0.0
H2355 H 0.92873 0.13263 0.6226 0.0
H2356 H 0.88762 0.09662 0.63124 0.0
C2357 C 0.93617 0.07228 0.6848 0.0
C2358 C 0.92892 0.92729 0.641 0.0
C2359 C 0.9238 0.90247 0.65963 0.0
H2360 H 0.91222 0.96988 0.62584 0.0
C2361 C 0.89501 0.89796 0.67108 0.0
H2362 H 0.95078 0.93072 0.63109 0.0
C2363 C 0.87236 0.919 0.66598 0.0
C2364 C 0.87845 0.94627 0.65123 0.0
H2365 H 0.89027 0.87857 0.68487 0.0
H2366 H 0.85078 0.91462 0.67579 0.0
C2367 C 0.90655 0.94926 0.63724 0.0
C2368 C 0.34795 0.07708 0.13116 0.0
C2369 C 0.35309 0.04866 0.11855 0.0
H2370 H 0.3344 0.12263 0.12274 0.0
C2371 C 0.35579 0.04637 0.08726 0.0
H2372 H 0.3452 0.07941 0.15515 0.0
C2373 C 0.34879 0.07067 0.06888 0.0
C2374 C 0.33961 0.09788 0.08144 0.0
H2375 H 0.35944 0.02473 0.07692 0.0
H2376 H 0.34865 0.06762 0.04481 0.0
C2377 C 0.34092 0.10157 0.11265 0.0
C2378 C 0.36112 0.92984 0.88136 0.0
C2379 C 0.34548 0.95683 0.88533 0.0
H2380 H 0.36743 0.8846 0.8973 0.0
C2381 C 0.32579 0.95934 0.90994 0.0
H2382 H 0.37619 0.92708 0.86258 0.0
C2383 C 0.31957 0.93523 0.92825 0.0
C2384 C 0.33384 0.90773 0.92383 0.0
H2385 H 0.31328 0.97976 0.91405 0.0
H2386 H 0.30308 0.93827 0.94579 0.0
C2387 C 0.35564 0.90548 0.90091 0.0
C2388 C 0.08369 0.33359 0.86972 0.0
C2389 C 0.05715 0.34946 0.8765 0.0
H2390 H 0.12398 0.31336 0.88655 0.0
C2391 C 0.05596 0.36453 0.90414 0.0
H2392 H 0.08706 0.3233 0.84822 0.0
C2393 C 0.07887 0.36075 0.92554 0.0
C2394 C 0.10266 0.34081 0.92007 0.0
H2395 H 0.03603 0.37691 0.91032 0.0
H2396 H 0.07675 0.37147 0.94718 0.0
C2397 C 0.10542 0.32817 0.89161 0.0
C2398 C 0.65268 0.06787 0.93483 0.0
C2399 C 0.66104 0.09552 0.92276 0.0
H2400 H 0.64153 0.02231 0.92579 0.0
C2401 C 0.65793 0.10029 0.89181 0.0
H2402 H 0.65396 0.06403 0.95876 0.0
C2403 C 0.65044 0.07636 0.87278 0.0
C2404 C 0.64616 0.04753 0.88466 0.0
H2405 H 0.66358 0.1218 0.88216 0.0
H2406 H 0.65223 0.07949 0.8488 0.0
C2407 C 0.64461 0.04429 0.91599 0.0
C2408 C 0.94977 0.63972 0.90649 0.0
C2409 C 0.94701 0.64523 0.87563 0.0
H2410 H 0.93033 0.64574 0.95004 0.0
C2411 C 0.91878 0.65367 0.8644 0.0
H2412 H 0.97128 0.63342 0.91584 0.0
C2413 C 0.89576 0.66209 0.88409 0.0
C2414 C 0.90044 0.66088 0.91512 0.0
H2415 H 0.91604 0.65825 0.84073 0.0
H2416 H 0.87519 0.67137 0.87515 0.0
C2417 C 0.92673 0.64775 0.92613 0.0
C2418 C 0.65413 0.92322 0.13097 0.0
C2419 C 0.64929 0.95175 0.11852 0.0
H2420 H 0.66708 0.87759 0.12217 0.0
C2421 C 0.64629 0.95431 0.08731 0.0
H2422 H 0.65707 0.92073 0.15493 0.0
C2423 C 0.65271 0.93003 0.06873 0.0
C2424 C 0.66165 0.90266 0.08109 0.0
H2425 H 0.64281 0.97607 0.07714 0.0
H2426 H 0.65271 0.93323 0.04468 0.0
C2427 C 0.66064 0.89878 0.11227 0.0
C2428 C 0.08046 0.6537 0.13556 0.0
C2429 C 0.05231 0.64624 0.1235 0.0
H2430 H 0.12508 0.66944 0.12608 0.0
C2431 C 0.05031 0.64082 0.09254 0.0
H2432 H 0.08266 0.65827 0.15929 0.0
C2433 C 0.07442 0.6473 0.07363 0.0
C2434 C 0.10101 0.65914 0.08537 0.0
H2435 H 0.02885 0.63546 0.08253 0.0
H2436 H 0.07144 0.64535 0.04963 0.0
C2437 C 0.10451 0.66081 0.11655 0.0
C2438 C 0.93273 0.31243 0.1148 0.0
C2439 C 0.94759 0.33957 0.12123 0.0
H2440 H 0.89747 0.28912 0.09413 0.0
C2441 C 0.93628 0.36571 0.1076 0.0
H2442 H 0.94221 0.29099 0.11971 0.0
C2443 C 0.91184 0.36365 0.08719 0.0
C2444 C 0.89827 0.33559 0.08123 0.0
H2445 H 0.94776 0.38684 0.11049 0.0
H2446 H 0.90492 0.38334 0.07487 0.0
C2447 C 0.90759 0.31089 0.09742 0.0
C2448 C 0.60115 0.81413 0.55367 0.0
C2449 C 0.61909 0.83987 0.55064 0.0
H2450 H 0.5672 0.79104 0.57613 0.0
C2451 C 0.61621 0.86266 0.57221 0.0
H2452 H 0.60251 0.79568 0.53799 0.0
C2453 C 0.59504 0.85949 0.59577 0.0
C2454 C 0.57678 0.83359 0.59769 0.0
H2455 H 0.62937 0.88292 0.57041 0.0
H2456 H 0.59269 0.87729 0.61205 0.0
C2457 C 0.58055 0.8112 0.57622 0.0
C2458 C 0.15888 0.61498 0.60092 0.0
C2459 C 0.15977 0.58378 0.59731 0.0
H2460 H 0.15556 0.65744 0.57859 0.0
C2461 C 0.15073 0.57126 0.57004 0.0
H2462 H 0.16541 0.62503 0.622 0.0
C2463 C 0.1443 0.58966 0.5456 0.0
C2464 C 0.14747 0.62088 0.54786 0.0
H2465 H 0.15072 0.54719 0.56701 0.0
H2466 H 0.14087 0.5793 0.52392 0.0
C2467 C 0.15243 0.6335 0.5763 0.0
C2468 C 0.40388 0.17889 0.54272 0.0
C2469 C 0.38154 0.15699 0.54538 0.0
H2470 H 0.44004 0.202 0.56289 0.0
C2471 C 0.38066 0.1391 0.57121 0.0
H2472 H 0.40537 0.19291 0.52297 0.0
C2473 C 0.40112 0.14435 0.59469 0.0
C2474 C 0.42235 0.16764 0.59247 0.0
H2475 H 0.36357 0.12211 0.57376 0.0
H2476 H 0.39969 0.13091 0.61481 0.0
C2477 C 0.42377 0.18427 0.56587 0.0
C2478 C 0.82951 0.41 0.54524 0.0
C2479 C 0.84872 0.38513 0.54756 0.0
H2480 H 0.80681 0.44555 0.56739 0.0
C2481 C 0.86332 0.37976 0.57494 0.0
H2482 H 0.81794 0.41491 0.52445 0.0
C2483 C 0.85712 0.3981 0.59999 0.0
C2484 C 0.8357 0.42124 0.59795 0.0
H2485 H 0.87796 0.3606 0.57746 0.0
H2486 H 0.86778 0.39323 0.62121 0.0
C2487 C 0.82276 0.42743 0.57004 0.0
C2488 C 0.58691 0.13468 0.41538 0.0
C2489 C 0.58445 0.16118 0.39819 0.0
H2490 H 0.60739 0.11373 0.4542 0.0
C2491 C 0.60449 0.18421 0.40352 0.0
H2492 H 0.57167 0.11626 0.41148 0.0
C2493 C 0.62302 0.18337 0.428 0.0
C2494 C 0.62516 0.15826 0.44704 0.0
H2495 H 0.60378 0.20465 0.3905 0.0
H2496 H 0.63223 0.20462 0.4334 0.0
C2497 C 0.60744 0.13316 0.43972 0.0
C2498 C 0.84916 0.5662 0.43299 0.0
C2499 C 0.84159 0.57727 0.40467 0.0
H2500 H 0.85787 0.57681 0.47884 0.0
C2501 C 0.84319 0.60823 0.39938 0.0
H2502 H 0.84862 0.54235 0.43737 0.0
C2503 C 0.84888 0.62806 0.42312 0.0
C2504 C 0.853 0.61707 0.45232 0.0
H2505 H 0.83777 0.61716 0.37749 0.0
H2506 H 0.84623 0.65187 0.41934 0.0
C2507 C 0.85531 0.58593 0.45649 0.0
C2508 C 0.38491 0.86145 0.43178 0.0
C2509 C 0.3845 0.83908 0.454 0.0
H2510 H 0.40527 0.8762 0.39026 0.0
C2511 C 0.40307 0.8139 0.45023 0.0
H2512 H 0.37079 0.88104 0.4339 0.0
C2513 C 0.42176 0.81101 0.42612 0.0
C2514 C 0.42353 0.83329 0.4042 0.0
H2515 H 0.40317 0.79552 0.46606 0.0
H2516 H 0.43528 0.79091 0.42532 0.0
C2517 C 0.40463 0.85865 0.40695 0.0
C2518 C 0.1492 0.42834 0.42901 0.0
C2519 C 0.1598 0.41657 0.40195 0.0
H2520 H 0.13826 0.41929 0.47471 0.0
C2521 C 0.16083 0.38542 0.39809 0.0
H2522 H 0.14781 0.45234 0.43223 0.0
C2523 C 0.15453 0.36636 0.42229 0.0
C2524 C 0.14776 0.37837 0.45062 0.0
H2525 H 0.16866 0.37594 0.37718 0.0
H2526 H 0.15898 0.34264 0.41988 0.0
C2527 C 0.14292 0.40936 0.45306 0.0
C2528 C 0.60378 0.61668 0.84353 0.0
C2529 C 0.60066 0.58546 0.84429 0.0
H2530 H 0.58124 0.65901 0.8465 0.0
C2531 C 0.57404 0.5731 0.85539 0.0
H2532 H 0.62431 0.62668 0.83539 0.0
C2533 C 0.54962 0.59156 0.86221 0.0
C2534 C 0.55129 0.62268 0.85768 0.0
H2535 H 0.57132 0.54903 0.85654 0.0
H2536 H 0.52822 0.58114 0.86692 0.0
C2537 C 0.57936 0.63521 0.85076 0.0
C2538 C 0.42692 0.56843 0.81347 0.0
C2539 C 0.42356 0.59305 0.83251 0.0
H2540 H 0.41308 0.52623 0.79976 0.0
C2541 C 0.40111 0.59178 0.8549 0.0
H2542 H 0.44354 0.56779 0.79582 0.0
C2543 C 0.38218 0.56628 0.8573 0.0
C2544 C 0.38619 0.54182 0.83773 0.0
H2545 H 0.39798 0.6104 0.87009 0.0
H2546 H 0.36466 0.56577 0.87404 0.0
C2547 C 0.40909 0.5437 0.81611 0.0
C2548 C 0.43279 0.41983 0.81569 0.0
C2549 C 0.40587 0.41575 0.8313 0.0
H2550 H 0.47771 0.40595 0.8087 0.0
C2551 C 0.40514 0.39472 0.85489 0.0
H2552 H 0.43459 0.43635 0.79801 0.0
C2553 C 0.43041 0.37655 0.86097 0.0
C2554 C 0.45669 0.37984 0.84389 0.0
H2555 H 0.3848 0.39148 0.86767 0.0
H2556 H 0.42892 0.35921 0.87783 0.0
C2557 C 0.45776 0.40251 0.82211 0.0
C2558 C 0.60073 0.40542 0.85782 0.0
C2559 C 0.57899 0.40393 0.83475 0.0
H2560 H 0.63626 0.43181 0.87817 0.0
C2561 C 0.57518 0.42895 0.81636 0.0
H2562 H 0.60397 0.38657 0.87271 0.0
C2563 C 0.5923 0.45413 0.81996 0.0
C2564 C 0.61499 0.45601 0.84188 0.0
H2565 H 0.55868 0.4295 0.79858 0.0
H2566 H 0.58818 0.47187 0.80395 0.0
C2567 C 0.61908 0.43127 0.86108 0.0
C2568 C 0.56794 0.38335 0.1383 0.0
C2569 C 0.54604 0.38266 0.16109 0.0
H2570 H 0.61051 0.4022 0.12412 0.0
C2571 C 0.55121 0.39971 0.18706 0.0
H2572 H 0.56459 0.37086 0.11781 0.0
C2573 C 0.57684 0.41592 0.19103 0.0
C2574 C 0.59892 0.41734 0.16887 0.0
H2575 H 0.53554 0.40014 0.20558 0.0
H2576 H 0.5785 0.42813 0.21185 0.0
C2577 C 0.59416 0.40117 0.14199 0.0
C2578 C 0.59557 0.54841 0.18243 0.0
C2579 C 0.61647 0.54559 0.15901 0.0
H2580 H 0.5625 0.57327 0.2042 0.0
C2581 C 0.61839 0.56891 0.13782 0.0
H2582 H 0.59329 0.53173 0.1999 0.0
C2583 C 0.59949 0.59441 0.14059 0.0
C2584 C 0.57937 0.59679 0.16496 0.0
H2585 H 0.63418 0.56746 0.11948 0.0
H2586 H 0.60102 0.61227 0.1243 0.0
C2587 C 0.57775 0.5731 0.18533 0.0
C2588 C 0.43128 0.61316 0.13245 0.0
C2589 C 0.4482 0.62191 0.1577 0.0
H2590 H 0.39412 0.58585 0.11678 0.0
C2591 C 0.43813 0.61227 0.18584 0.0
H2592 H 0.43901 0.61862 0.11015 0.0
C2593 C 0.41139 0.59813 0.18974 0.0
C2594 C 0.39579 0.58652 0.16546 0.0
H2595 H 0.45149 0.6144 0.20575 0.0
H2596 H 0.40484 0.59384 0.2125 0.0
C2597 C 0.40552 0.59461 0.13629 0.0
C2598 C 0.39678 0.40365 0.14279 0.0
C2599 C 0.41672 0.40125 0.1673 0.0
H2600 H 0.36284 0.43095 0.121 0.0
C2601 C 0.41897 0.42535 0.18714 0.0
H2602 H 0.39482 0.38547 0.12689 0.0
C2603 C 0.40187 0.45056 0.18354 0.0
C2604 C 0.38106 0.45332 0.15999 0.0
H2605 H 0.43422 0.42508 0.20603 0.0
H2606 H 0.40459 0.46769 0.2005 0.0
C2607 C 0.37856 0.42954 0.13939 0.0
C2608 C 0.82523 0.54203 0.58943 0.0
C2609 C 0.84198 0.54463 0.61623 0.0
H2610 H 0.80597 0.56275 0.55171 0.0
C2611 C 0.85762 0.57145 0.62137 0.0
H2612 H 0.81326 0.52183 0.58338 0.0
C2613 C 0.85401 0.59575 0.60124 0.0
C2614 C 0.83394 0.59347 0.57677 0.0
H2615 H 0.87128 0.5741 0.64122 0.0
H2616 H 0.86553 0.6166 0.60562 0.0
C2617 C 0.8207 0.56594 0.57075 0.0
C2618 C 0.86339 0.44929 0.40789 0.0
C2619 C 0.85175 0.4472 0.37868 0.0
H2620 H 0.86744 0.42866 0.4513 0.0
C2621 C 0.83941 0.4195 0.36985 0.0
H2622 H 0.87323 0.47009 0.41551 0.0
C2623 C 0.83345 0.39702 0.39102 0.0
C2624 C 0.84247 0.40051 0.42086 0.0
H2625 H 0.83193 0.41601 0.3471 0.0
H2626 H 0.82096 0.37735 0.38428 0.0
C2627 C 0.85936 0.4259 0.4286 0.0
C2628 C 0.58293 0.83309 0.36831 0.0
C2629 C 0.55754 0.85096 0.37455 0.0
H2630 H 0.62217 0.81138 0.38535 0.0
C2631 C 0.55843 0.86843 0.4008 0.0
H2632 H 0.58541 0.8211 0.34771 0.0
C2633 C 0.5822 0.86519 0.42151 0.0
C2634 C 0.6044 0.8432 0.41695 0.0
H2635 H 0.53958 0.88257 0.40655 0.0
H2636 H 0.58166 0.87778 0.44222 0.0
C2637 C 0.605 0.828 0.38974 0.0
C2638 C 0.15656 0.59809 0.39223 0.0
C2639 C 0.16246 0.59441 0.42296 0.0
H2640 H 0.14979 0.5758 0.35002 0.0
C2641 C 0.15857 0.56614 0.43588 0.0
H2642 H 0.15898 0.61988 0.38191 0.0
C2643 C 0.15173 0.54142 0.41806 0.0
C2644 C 0.14985 0.54415 0.38669 0.0
H2645 H 0.16231 0.56288 0.45964 0.0
H2646 H 0.15167 0.51947 0.42841 0.0
C2647 C 0.15045 0.57301 0.3741 0.0
C2648 C 0.43476 0.1855 0.38794 0.0
C2649 C 0.44702 0.15756 0.37974 0.0
H2650 H 0.40115 0.21048 0.40929 0.0
C2651 C 0.43319 0.13174 0.39152 0.0
H2652 H 0.4459 0.2063 0.38336 0.0
C2653 C 0.40868 0.1347 0.41178 0.0
C2654 C 0.39746 0.16343 0.41944 0.0
H2655 H 0.44259 0.10985 0.38709 0.0
H2656 H 0.39967 0.11493 0.42247 0.0
C2657 C 0.40956 0.18819 0.40518 0.0
C2658 C 0.152 0.46082 0.58166 0.0
C2659 C 0.14958 0.45775 0.613 0.0
H2660 H 0.16308 0.43981 0.53995 0.0
C2661 C 0.14952 0.42869 0.62514 0.0
H2662 H 0.1524 0.48289 0.57159 0.0
C2663 C 0.15544 0.40375 0.6067 0.0
C2664 C 0.162 0.40771 0.5761 0.0
H2665 H 0.14839 0.42556 0.64916 0.0
H2666 H 0.15723 0.38176 0.61674 0.0
C2667 C 0.15887 0.43626 0.56359 0.0
C2668 C 0.60201 0.15828 0.60907 0.0
C2669 C 0.59765 0.16196 0.57811 0.0
H2670 H 0.58065 0.15341 0.65194 0.0
C2671 C 0.56941 0.15606 0.56587 0.0
H2672 H 0.62384 0.16226 0.61888 0.0
C2673 C 0.54521 0.14945 0.58453 0.0
C2674 C 0.54852 0.14976 0.61588 0.0
H2675 H 0.5657 0.1582 0.54199 0.0
H2676 H 0.52307 0.14813 0.57464 0.0
C2677 C 0.5775 0.15232 0.62791 0.0
C2678 C 0.44751 0.86322 0.59773 0.0
C2679 C 0.44548 0.85424 0.62789 0.0
H2680 H 0.4273 0.86266 0.55396 0.0
C2681 C 0.41772 0.84277 0.63772 0.0
H2682 H 0.46842 0.87205 0.58918 0.0
C2683 C 0.39523 0.83489 0.61709 0.0
C2684 C 0.39891 0.84083 0.58649 0.0
H2685 H 0.41444 0.83697 0.66098 0.0
H2686 H 0.37547 0.82322 0.62492 0.0
C2687 C 0.4243 0.85698 0.57734 0.0
loop_
_geom_bond_atom_site_label_1
_geom_bond_atom_site_label_2
_geom_bond_distance
_geom_bond_site_symmetry_2
_ccdc_geom_bond_type
Mn0 O5 2.095 . S
Mn0 O15 2.162 . S
Mn0 O16 2.297 . S
Mn0 O24 2.385 . S
Mn0 O25 2.209 . S
Mn0 O26 2.094 1_455 S
Mn1 O6 2.121 . S
Mn1 N8 2.257 . S
Mn1 N17 2.282 1_455 S
Mn1 O25 2.215 . S
Mn1 O27 2.117 1_455 S
C2 O24 1.234 . S
C2 O25 1.283 . S
C3 O15 1.281 . S
C3 O16 1.236 . S
C4 O26 1.240 . S
C4 O27 1.264 . S
O5 Mn0 2.095 . S
O5 C14 1.250 . S
O6 Mn1 2.121 . S
O6 C14 1.258 . S
C7 N8 1.326 . S
C7 C11 1.460 . S
C7 H13 0.929 . S
N8 Mn1 2.257 . S
N8 C7 1.326 . S
N8 C12 1.362 . S
C9 C10 1.258 . S
C9 C12 1.431 . S
C9 C29 1.449 . S
C10 C9 1.258 . S
C10 C11 1.477 . S
C10 H30 0.931 . S
C11 C7 1.460 . S
C11 C10 1.477 . S
C11 H31 0.930 . S
C12 N8 1.362 . S
C12 C9 1.431 . S
C12 C22 1.476 1_455 S
H13 C7 0.929 . S
C14 O5 1.250 . S
C14 O6 1.258 . S
O15 Mn0 2.162 . S
O15 C3 1.281 . S
O16 Mn0 2.297 . S
O16 C3 1.236 . S
N17 Mn1 2.282 1_655 S
N17 C18 1.328 . S
N17 C22 1.318 . S
C18 N17 1.328 . S
C18 C19 1.457 . S
C18 H23 0.929 . S
C19 C18 1.457 . S
C19 C20 1.291 . S
C19 H32 0.931 . S
C20 C19 1.291 . S
C20 C21 1.373 . S
C20 H33 0.929 . S
C21 C20 1.373 . S
C21 C22 1.396 . S
C21 C28 1.403 . S
C22 C12 1.476 1_655 S
C22 N17 1.318 . S
C22 C21 1.396 . S
H23 C18 0.929 . S
O24 Mn0 2.385 . S
O24 C2 1.234 . S
O25 Mn0 2.209 . S
O25 Mn1 2.215 . S
O25 C2 1.283 . S
O26 Mn0 2.094 1_655 S
O26 C4 1.240 . S
O27 Mn1 2.117 1_655 S
O27 C4 1.264 . S
C28 C21 1.403 . S
C28 C29 1.399 1_655 S
C28 H34 0.929 . S
C29 C9 1.449 . S
C29 C28 1.399 1_455 S
C29 H35 0.930 . S
H30 C10 0.931 . S
H31 C11 0.930 . S
H32 C19 0.931 . S
H33 C20 0.929 . S
H34 C28 0.929 . S
H35 C29 0.930 . S
Mn36 O41 2.095 . S
Mn36 O51 2.162 . S
Mn36 O52 2.297 . S
Mn36 O60 2.385 . S
Mn36 O61 2.209 . S
Mn36 O62 2.094 1_545 S
Mn37 O42 2.121 . S
Mn37 N44 2.257 . S
Mn37 N53 2.282 1_545 S
Mn37 O61 2.215 . S
Mn37 O63 2.117 1_545 S
C38 O60 1.234 . S
C38 O61 1.283 . S
C39 O51 1.281 . S
C39 O52 1.236 . S
C40 O62 1.240 . S
C40 O63 1.264 . S
O41 Mn36 2.095 . S
O41 C50 1.250 . S
O42 Mn37 2.121 . S
O42 C50 1.258 . S
C43 N44 1.326 . S
C43 C47 1.460 . S
C43 H49 0.929 . S
N44 Mn37 2.257 . S
N44 C43 1.326 . S
N44 C48 1.362 . S
C45 C46 1.258 . S
C45 C48 1.431 . S
C45 C65 1.449 . S
C46 C45 1.258 . S
C46 C47 1.477 . S
C46 H66 0.931 . S
C47 C43 1.460 . S
C47 C46 1.477 . S
C47 H67 0.930 . S
C48 N44 1.362 . S
C48 C45 1.431 . S
C48 C58 1.476 1_545 S
H49 C43 0.929 . S
C50 O41 1.250 . S
C50 O42 1.258 . S
O51 Mn36 2.162 . S
O51 C39 1.281 . S
O52 Mn36 2.297 . S
O52 C39 1.236 . S
N53 Mn37 2.282 1_565 S
N53 C54 1.328 . S
N53 C58 1.318 . S
C54 N53 1.328 . S
C54 C55 1.457 . S
C54 H59 0.929 . S
C55 C54 1.457 . S
C55 C56 1.291 . S
C55 H68 0.931 . S
C56 C55 1.291 . S
C56 C57 1.373 . S
C56 H69 0.929 . S
C57 C56 1.373 . S
C57 C58 1.396 . S
C57 C64 1.403 . S
C58 C48 1.476 1_565 S
C58 N53 1.318 . S
C58 C57 1.396 . S
H59 C54 0.929 . S
O60 Mn36 2.385 . S
O60 C38 1.234 . S
O61 Mn36 2.209 . S
O61 Mn37 2.215 . S
O61 C38 1.283 . S
O62 Mn36 2.094 1_565 S
O62 C40 1.240 . S
O63 Mn37 2.117 1_565 S
O63 C40 1.264 . S
C64 C57 1.403 . S
C64 C65 1.399 1_565 S
C64 H70 0.929 . S
C65 C45 1.449 . S
C65 C64 1.399 1_545 S
C65 H71 0.930 . S
H66 C46 0.931 . S
H67 C47 0.930 . S
H68 C55 0.931 . S
H69 C56 0.929 . S
H70 C64 0.929 . S
H71 C65 0.930 . S
Mn72 O77 2.095 . S
Mn72 O87 2.162 . S
Mn72 O88 2.297 . S
Mn72 O96 2.385 . S
Mn72 O97 2.209 . S
Mn72 O98 2.094 1_655 S
Mn73 O78 2.121 . S
Mn73 N80 2.257 . S
Mn73 N89 2.282 1_655 S
Mn73 O97 2.215 . S
Mn73 O99 2.117 1_655 S
C74 O96 1.234 . S
C74 O97 1.283 . S
C75 O87 1.281 . S
C75 O88 1.236 . S
C76 O98 1.240 . S
C76 O99 1.264 . S
O77 Mn72 2.095 . S
O77 C86 1.250 . S
O78 Mn73 2.121 . S
O78 C86 1.258 . S
C79 N80 1.326 . S
C79 C83 1.460 . S
C79 H85 0.929 . S
N80 Mn73 2.257 . S
N80 C79 1.326 . S
N80 C84 1.362 . S
C81 C82 1.258 . S
C81 C84 1.431 . S
C81 C101 1.449 . S
C82 C81 1.258 . S
C82 C83 1.477 . S
C82 H102 0.931 . S
C83 C79 1.460 . S
C83 C82 1.477 . S
C83 H103 0.930 . S
C84 N80 1.362 . S
C84 C81 1.431 . S
C84 C94 1.476 1_655 S
H85 C79 0.929 . S
C86 O77 1.250 . S
C86 O78 1.258 . S
O87 Mn72 2.162 . S
O87 C75 1.281 . S
O88 Mn72 2.297 . S
O88 C75 1.236 . S
N89 Mn73 2.282 1_455 S
N89 C90 1.328 . S
N89 C94 1.318 . S
C90 N89 1.328 . S
C90 C91 1.457 . S
C90 H95 0.929 . S
C91 C90 1.457 . S
C91 C92 1.291 . S
C91 H104 0.931 . S
C92 C91 1.291 . S
C92 C93 1.373 . S
C92 H105 0.929 . S
C93 C92 1.373 . S
C93 C94 1.396 . S
C93 C100 1.403 . S
C94 C84 1.476 1_455 S
C94 N89 1.318 . S
C94 C93 1.396 . S
H95 C90 0.929 . S
O96 Mn72 2.385 . S
O96 C74 1.234 . S
O97 Mn72 2.209 . S
O97 Mn73 2.215 . S
O97 C74 1.283 . S
O98 Mn72 2.094 1_455 S
O98 C76 1.240 . S
O99 Mn73 2.117 1_455 S
O99 C76 1.264 . S
C100 C93 1.403 . S
C100 C101 1.399 1_455 S
C100 H106 0.929 . S
C101 C81 1.449 . S
C101 C100 1.399 1_655 S
C101 H107 0.930 . S
H102 C82 0.931 . S
H103 C83 0.930 . S
H104 C91 0.931 . S
H105 C92 0.929 . S
H106 C100 0.929 . S
H107 C101 0.930 . S
Mn108 O113 2.095 . S
Mn108 O123 2.162 . S
Mn108 O124 2.297 . S
Mn108 O132 2.385 . S
Mn108 O133 2.209 . S
Mn108 O134 2.094 1_565 S
Mn109 O114 2.121 . S
Mn109 N116 2.257 . S
Mn109 N125 2.282 1_565 S
Mn109 O133 2.215 . S
Mn109 O135 2.117 1_565 S
C110 O132 1.234 . S
C110 O133 1.283 . S
C111 O123 1.281 . S
C111 O124 1.236 . S
C112 O134 1.240 . S
C112 O135 1.264 . S
O113 Mn108 2.095 . S
O113 C122 1.250 . S
O114 Mn109 2.121 . S
O114 C122 1.258 . S
C115 N116 1.326 . S
C115 C119 1.460 . S
C115 H121 0.929 . S
N116 Mn109 2.257 . S
N116 C115 1.326 . S
N116 C120 1.362 . S
C117 C118 1.258 . S
C117 C120 1.431 . S
C117 C137 1.449 . S
C118 C117 1.258 . S
C118 C119 1.477 . S
C118 H138 0.931 . S
C119 C115 1.460 . S
C119 C118 1.477 . S
C119 H139 0.930 . S
C120 N116 1.362 . S
C120 C117 1.431 . S
C120 C130 1.476 1_565 S
H121 C115 0.929 . S
C122 O113 1.250 . S
C122 O114 1.258 . S
O123 Mn108 2.162 . S
O123 C111 1.281 . S
O124 Mn108 2.297 . S
O124 C111 1.236 . S
N125 Mn109 2.282 1_545 S
N125 C126 1.328 . S
N125 C130 1.318 . S
C126 N125 1.328 . S
C126 C127 1.457 . S
C126 H131 0.929 . S
C127 C126 1.457 . S
C127 C128 1.291 . S
C127 H140 0.931 . S
C128 C127 1.291 . S
C128 C129 1.373 . S
C128 H141 0.929 . S
C129 C128 1.373 . S
C129 C130 1.396 . S
C129 C136 1.403 . S
C130 C120 1.476 1_545 S
C130 N125 1.318 . S
C130 C129 1.396 . S
H131 C126 0.929 . S
O132 Mn108 2.385 . S
O132 C110 1.234 . S
O133 Mn108 2.209 . S
O133 Mn109 2.215 . S
O133 C110 1.283 . S
O134 Mn108 2.094 1_545 S
O134 C112 1.240 . S
O135 Mn109 2.117 1_545 S
O135 C112 1.264 . S
C136 C129 1.403 . S
C136 C137 1.399 1_545 S
C136 H142 0.929 . S
C137 C117 1.449 . S
C137 C136 1.399 1_565 S
C137 H143 0.930 . S
H138 C118 0.931 . S
H139 C119 0.930 . S
H140 C127 0.931 . S
H141 C128 0.929 . S
H142 C136 0.929 . S
H143 C137 0.930 . S
Mn144 O149 2.095 . S
Mn144 O159 2.162 . S
Mn144 O160 2.297 . S
Mn144 O168 2.385 . S
Mn144 O169 2.209 . S
Mn144 O170 2.094 1_455 S
Mn145 O150 2.121 . S
Mn145 N152 2.257 . S
Mn145 N161 2.282 1_455 S
Mn145 O169 2.215 . S
Mn145 O171 2.117 1_455 S
C146 O168 1.234 . S
C146 O169 1.283 . S
C147 O159 1.281 . S
C147 O160 1.236 . S
C148 O170 1.240 . S
C148 O171 1.264 . S
O149 Mn144 2.095 . S
O149 C158 1.250 . S
O150 Mn145 2.121 . S
O150 C158 1.258 . S
C151 N152 1.326 . S
C151 C155 1.460 . S
C151 H157 0.929 . S
N152 Mn145 2.257 . S
N152 C151 1.326 . S
N152 C156 1.362 . S
C153 C154 1.258 . S
C153 C156 1.431 . S
C153 C173 1.449 . S
C154 C153 1.258 . S
C154 C155 1.477 . S
C154 H174 0.931 . S
C155 C151 1.460 . S
C155 C154 1.477 . S
C155 H175 0.930 . S
C156 N152 1.362 . S
C156 C153 1.431 . S
C156 C166 1.476 1_455 S
H157 C151 0.929 . S
C158 O149 1.250 . S
C158 O150 1.258 . S
O159 Mn144 2.162 . S
O159 C147 1.281 . S
O160 Mn144 2.297 . S
O160 C147 1.236 . S
N161 Mn145 2.282 1_655 S
N161 C162 1.328 . S
N161 C166 1.318 . S
C162 N161 1.328 . S
C162 C163 1.457 . S
C162 H167 0.929 . S
C163 C162 1.457 . S
C163 C164 1.291 . S
C163 H176 0.931 . S
C164 C163 1.291 . S
C164 C165 1.373 . S
C164 H177 0.929 . S
C165 C164 1.373 . S
C165 C166 1.396 . S
C165 C172 1.403 . S
C166 C156 1.476 1_655 S
C166 N161 1.318 . S
C166 C165 1.396 . S
H167 C162 0.929 . S
O168 Mn144 2.385 . S
O168 C146 1.234 . S
O169 Mn144 2.209 . S
O169 Mn145 2.215 . S
O169 C146 1.283 . S
O170 Mn144 2.094 1_655 S
O170 C148 1.240 . S
O171 Mn145 2.117 1_655 S
O171 C148 1.264 . S
C172 C165 1.403 . S
C172 C173 1.399 1_655 S
C172 H178 0.929 . S
C173 C153 1.449 . S
C173 C172 1.399 1_455 S
C173 H179 0.930 . S
H174 C154 0.931 . S
H175 C155 0.930 . S
H176 C163 0.931 . S
H177 C164 0.929 . S
H178 C172 0.929 . S
H179 C173 0.930 . S
Mn180 O185 2.095 . S
Mn180 O195 2.162 . S
Mn180 O196 2.297 . S
Mn180 O204 2.385 . S
Mn180 O205 2.209 . S
Mn180 O206 2.094 1_545 S
Mn181 O186 2.121 . S
Mn181 N188 2.257 . S
Mn181 N197 2.282 1_545 S
Mn181 O205 2.215 . S
Mn181 O207 2.117 1_545 S
C182 O204 1.234 . S
C182 O205 1.283 . S
C183 O195 1.281 . S
C183 O196 1.236 . S
C184 O206 1.240 . S
C184 O207 1.264 . S
O185 Mn180 2.095 . S
O185 C194 1.250 . S
O186 Mn181 2.121 . S
O186 C194 1.258 . S
C187 N188 1.326 . S
C187 C191 1.460 . S
C187 H193 0.929 . S
N188 Mn181 2.257 . S
N188 C187 1.326 . S
N188 C192 1.362 . S
C189 C190 1.258 . S
C189 C192 1.431 . S
C189 C209 1.449 . S
C190 C189 1.258 . S
C190 C191 1.477 . S
C190 H210 0.931 . S
C191 C187 1.460 . S
C191 C190 1.477 . S
C191 H211 0.930 . S
C192 N188 1.362 . S
C192 C189 1.431 . S
C192 C202 1.476 1_545 S
H193 C187 0.929 . S
C194 O185 1.250 . S
C194 O186 1.258 . S
O195 Mn180 2.162 . S
O195 C183 1.281 . S
O196 Mn180 2.297 . S
O196 C183 1.236 . S
N197 Mn181 2.282 1_565 S
N197 C198 1.328 . S
N197 C202 1.318 . S
C198 N197 1.328 . S
C198 C199 1.457 . S
C198 H203 0.929 . S
C199 C198 1.457 . S
C199 C200 1.291 . S
C199 H212 0.931 . S
C200 C199 1.291 . S
C200 C201 1.373 . S
C200 H213 0.929 . S
C201 C200 1.373 . S
C201 C202 1.396 . S
C201 C208 1.403 . S
C202 C192 1.476 1_565 S
C202 N197 1.318 . S
C202 C201 1.396 . S
H203 C198 0.929 . S
O204 Mn180 2.385 . S
O204 C182 1.234 . S
O205 Mn180 2.209 . S
O205 Mn181 2.215 . S
O205 C182 1.283 . S
O206 Mn180 2.094 1_565 S
O206 C184 1.240 . S
O207 Mn181 2.117 1_565 S
O207 C184 1.264 . S
C208 C201 1.403 . S
C208 C209 1.399 1_565 S
C208 H214 0.929 . S
C209 C189 1.449 . S
C209 C208 1.399 1_545 S
C209 H215 0.930 . S
H210 C190 0.931 . S
H211 C191 0.930 . S
H212 C199 0.931 . S
H213 C200 0.929 . S
H214 C208 0.929 . S
H215 C209 0.930 . S
Mn216 O221 2.095 . S
Mn216 O231 2.162 . S
Mn216 O232 2.297 . S
Mn216 O240 2.385 . S
Mn216 O241 2.209 . S
Mn216 O242 2.094 1_655 S
Mn217 O222 2.121 . S
Mn217 N224 2.257 . S
Mn217 N233 2.282 1_655 S
Mn217 O241 2.215 . S
Mn217 O243 2.117 1_655 S
C218 O240 1.234 . S
C218 O241 1.283 . S
C219 O231 1.281 . S
C219 O232 1.236 . S
C220 O242 1.240 . S
C220 O243 1.264 . S
O221 Mn216 2.095 . S
O221 C230 1.250 . S
O222 Mn217 2.121 . S
O222 C230 1.258 . S
C223 N224 1.326 . S
C223 C227 1.460 . S
C223 H229 0.929 . S
N224 Mn217 2.257 . S
N224 C223 1.326 . S
N224 C228 1.362 . S
C225 C226 1.258 . S
C225 C228 1.431 . S
C225 C245 1.449 . S
C226 C225 1.258 . S
C226 C227 1.477 . S
C226 H246 0.931 . S
C227 C223 1.460 . S
C227 C226 1.477 . S
C227 H247 0.930 . S
C228 N224 1.362 . S
C228 C225 1.431 . S
C228 C238 1.476 1_655 S
H229 C223 0.929 . S
C230 O221 1.250 . S
C230 O222 1.258 . S
O231 Mn216 2.162 . S
O231 C219 1.281 . S
O232 Mn216 2.297 . S
O232 C219 1.236 . S
N233 Mn217 2.282 1_455 S
N233 C234 1.328 . S
N233 C238 1.318 . S
C234 N233 1.328 . S
C234 C235 1.457 . S
C234 H239 0.929 . S
C235 C234 1.457 . S
C235 C236 1.291 . S
C235 H248 0.931 . S
C236 C235 1.291 . S
C236 C237 1.373 . S
C236 H249 0.929 . S
C237 C236 1.373 . S
C237 C238 1.396 . S
C237 C244 1.403 . S
C238 C228 1.476 1_455 S
C238 N233 1.318 . S
C238 C237 1.396 . S
H239 C234 0.929 . S
O240 Mn216 2.385 . S
O240 C218 1.234 . S
O241 Mn216 2.209 . S
O241 Mn217 2.215 . S
O241 C218 1.283 . S
O242 Mn216 2.094 1_455 S
O242 C220 1.240 . S
O243 Mn217 2.117 1_455 S
O243 C220 1.264 . S
C244 C237 1.403 . S
C244 C245 1.399 1_455 S
C244 H250 0.929 . S
C245 C225 1.449 . S
C245 C244 1.399 1_655 S
C245 H251 0.930 . S
H246 C226 0.931 . S
H247 C227 0.930 . S
H248 C235 0.931 . S
H249 C236 0.929 . S
H250 C244 0.929 . S
H251 C245 0.930 . S
Mn252 O257 2.095 . S
Mn252 O267 2.162 . S
Mn252 O268 2.297 . S
Mn252 O276 2.385 . S
Mn252 O277 2.209 . S
Mn252 O278 2.094 1_565 S
Mn253 O258 2.121 . S
Mn253 N260 2.257 . S
Mn253 N269 2.282 1_565 S
Mn253 O277 2.215 . S
Mn253 O279 2.117 1_565 S
C254 O276 1.234 . S
C254 O277 1.283 . S
C255 O267 1.281 . S
C255 O268 1.236 . S
C256 O278 1.240 . S
C256 O279 1.264 . S
O257 Mn252 2.095 . S
O257 C266 1.250 . S
O258 Mn253 2.121 . S
O258 C266 1.258 . S
C259 N260 1.326 . S
C259 C263 1.460 . S
C259 H265 0.929 . S
N260 Mn253 2.257 . S
N260 C259 1.326 . S
N260 C264 1.362 . S
C261 C262 1.258 . S
C261 C264 1.431 . S
C261 C281 1.449 . S
C262 C261 1.258 . S
C262 C263 1.477 . S
C262 H282 0.931 . S
C263 C259 1.460 . S
C263 C262 1.477 . S
C263 H283 0.930 . S
C264 N260 1.362 . S
C264 C261 1.431 . S
C264 C274 1.476 1_565 S
H265 C259 0.929 . S
C266 O257 1.250 . S
C266 O258 1.258 . S
O267 Mn252 2.162 . S
O267 C255 1.281 . S
O268 Mn252 2.297 . S
O268 C255 1.236 . S
N269 Mn253 2.282 1_545 S
N269 C270 1.328 . S
N269 C274 1.318 . S
C270 N269 1.328 . S
C270 C271 1.457 . S
C270 H275 0.929 . S
C271 C270 1.457 . S
C271 C272 1.291 . S
C271 H284 0.931 . S
C272 C271 1.291 . S
C272 C273 1.373 . S
C272 H285 0.929 . S
C273 C272 1.373 . S
C273 C274 1.396 . S
C273 C280 1.403 . S
C274 C264 1.476 1_545 S
C274 N269 1.318 . S
C274 C273 1.396 . S
H275 C270 0.929 . S
O276 Mn252 2.385 . S
O276 C254 1.234 . S
O277 Mn252 2.209 . S
O277 Mn253 2.215 . S
O277 C254 1.283 . S
O278 Mn252 2.094 1_545 S
O278 C256 1.240 . S
O279 Mn253 2.117 1_545 S
O279 C256 1.264 . S
C280 C273 1.403 . S
C280 C281 1.399 1_545 S
C280 H286 0.929 . S
C281 C261 1.449 . S
C281 C280 1.399 1_565 S
C281 H287 0.930 . S
H282 C262 0.931 . S
H283 C263 0.930 . S
H284 C271 0.931 . S
H285 C272 0.929 . S
H286 C280 0.929 . S
H287 C281 0.930 . S
Mn288 O293 2.095 . S
Mn288 O303 2.162 . S
Mn288 O304 2.297 . S
Mn288 O312 2.385 . S
Mn288 O313 2.209 . S
Mn288 O314 2.094 1_545 S
Mn289 O294 2.121 . S
Mn289 N296 2.257 . S
Mn289 N305 2.282 1_545 S
Mn289 O313 2.215 . S
Mn289 O315 2.117 1_545 S
C290 O312 1.234 . S
C290 O313 1.283 . S
C291 O303 1.281 . S
C291 O304 1.236 . S
C292 O314 1.240 . S
C292 O315 1.264 . S
O293 Mn288 2.095 . S
O293 C302 1.250 . S
O294 Mn289 2.121 . S
O294 C302 1.258 . S
C295 N296 1.326 . S
C295 C299 1.460 . S
C295 H301 0.929 . S
N296 Mn289 2.257 . S
N296 C295 1.326 . S
N296 C300 1.362 . S
C297 C298 1.258 . S
C297 C300 1.431 . S
C297 C317 1.449 . S
C298 C297 1.258 . S
C298 C299 1.477 . S
C298 H318 0.931 . S
C299 C295 1.460 . S
C299 C298 1.477 . S
C299 H319 0.930 . S
C300 N296 1.362 . S
C300 C297 1.431 . S
C300 C310 1.476 1_545 S
H301 C295 0.929 . S
C302 O293 1.250 . S
C302 O294 1.258 . S
O303 Mn288 2.162 . S
O303 C291 1.281 . S
O304 Mn288 2.297 . S
O304 C291 1.236 . S
N305 Mn289 2.282 1_565 S
N305 C306 1.328 . S
N305 C310 1.318 . S
C306 N305 1.328 . S
C306 C307 1.457 . S
C306 H311 0.929 . S
C307 C306 1.457 . S
C307 C308 1.291 . S
C307 H320 0.931 . S
C308 C307 1.291 . S
C308 C309 1.373 . S
C308 H321 0.929 . S
C309 C308 1.373 . S
C309 C310 1.396 . S
C309 C316 1.403 . S
C310 C300 1.476 1_565 S
C310 N305 1.318 . S
C310 C309 1.396 . S
H311 C306 0.929 . S
O312 Mn288 2.385 . S
O312 C290 1.234 . S
O313 Mn288 2.209 . S
O313 Mn289 2.215 . S
O313 C290 1.283 . S
O314 Mn288 2.094 1_565 S
O314 C292 1.240 . S
O315 Mn289 2.117 1_565 S
O315 C292 1.264 . S
C316 C309 1.403 . S
C316 C317 1.399 1_565 S
C316 H322 0.929 . S
C317 C297 1.449 . S
C317 C316 1.399 1_545 S
C317 H323 0.930 . S
H318 C298 0.931 . S
H319 C299 0.930 . S
H320 C307 0.931 . S
H321 C308 0.929 . S
H322 C316 0.929 . S
H323 C317 0.930 . S
Mn324 O329 2.095 . S
Mn324 O339 2.162 . S
Mn324 O340 2.297 . S
Mn324 O348 2.385 . S
Mn324 O349 2.209 . S
Mn324 O350 2.094 1_655 S
Mn325 O330 2.121 . S
Mn325 N332 2.257 . S
Mn325 N341 2.282 1_655 S
Mn325 O349 2.215 . S
Mn325 O351 2.117 1_655 S
C326 O348 1.234 . S
C326 O349 1.283 . S
C327 O339 1.281 . S
C327 O340 1.236 . S
C328 O350 1.240 . S
C328 O351 1.264 . S
O329 Mn324 2.095 . S
O329 C338 1.250 . S
O330 Mn325 2.121 . S
O330 C338 1.258 . S
C331 N332 1.326 . S
C331 C335 1.460 . S
C331 H337 0.929 . S
N332 Mn325 2.257 . S
N332 C331 1.326 . S
N332 C336 1.362 . S
C333 C334 1.258 . S
C333 C336 1.431 . S
C333 C353 1.449 . S
C334 C333 1.258 . S
C334 C335 1.477 . S
C334 H354 0.931 . S
C335 C331 1.460 . S
C335 C334 1.477 . S
C335 H355 0.930 . S
C336 N332 1.362 . S
C336 C333 1.431 . S
C336 C346 1.476 1_655 S
H337 C331 0.929 . S
C338 O329 1.250 . S
C338 O330 1.258 . S
O339 Mn324 2.162 . S
O339 C327 1.281 . S
O340 Mn324 2.297 . S
O340 C327 1.236 . S
N341 Mn325 2.282 1_455 S
N341 C342 1.328 . S
N341 C346 1.318 . S
C342 N341 1.328 . S
C342 C343 1.457 . S
C342 H347 0.929 . S
C343 C342 1.457 . S
C343 C344 1.291 . S
C343 H356 0.931 . S
C344 C343 1.291 . S
C344 C345 1.373 . S
C344 H357 0.929 . S
C345 C344 1.373 . S
C345 C346 1.396 . S
C345 C352 1.403 . S
C346 C336 1.476 1_455 S
C346 N341 1.318 . S
C346 C345 1.396 . S
H347 C342 0.929 . S
O348 Mn324 2.385 . S
O348 C326 1.234 . S
O349 Mn324 2.209 . S
O349 Mn325 2.215 . S
O349 C326 1.283 . S
O350 Mn324 2.094 1_455 S
O350 C328 1.240 . S
O351 Mn325 2.117 1_455 S
O351 C328 1.264 . S
C352 C345 1.403 . S
C352 C353 1.399 1_455 S
C352 H358 0.929 . S
C353 C333 1.449 . S
C353 C352 1.399 1_655 S
C353 H359 0.930 . S
H354 C334 0.931 . S
H355 C335 0.930 . S
H356 C343 0.931 . S
H357 C344 0.929 . S
H358 C352 0.929 . S
H359 C353 0.930 . S
Mn360 O365 2.095 . S
Mn360 O375 2.162 . S
Mn360 O376 2.297 . S
Mn360 O384 2.385 . S
Mn360 O385 2.209 . S
Mn360 O386 2.094 1_565 S
Mn361 O366 2.121 . S
Mn361 N368 2.257 . S
Mn361 N377 2.282 1_565 S
Mn361 O385 2.215 . S
Mn361 O387 2.117 1_565 S
C362 O384 1.234 . S
C362 O385 1.283 . S
C363 O375 1.281 . S
C363 O376 1.236 . S
C364 O386 1.240 . S
C364 O387 1.264 . S
O365 Mn360 2.095 . S
O365 C374 1.250 . S
O366 Mn361 2.121 . S
O366 C374 1.258 . S
C367 N368 1.326 . S
C367 C371 1.460 . S
C367 H373 0.929 . S
N368 Mn361 2.257 . S
N368 C367 1.326 . S
N368 C372 1.362 . S
C369 C370 1.258 . S
C369 C372 1.431 . S
C369 C389 1.449 . S
C370 C369 1.258 . S
C370 C371 1.477 . S
C370 H390 0.931 . S
C371 C367 1.460 . S
C371 C370 1.477 . S
C371 H391 0.930 . S
C372 N368 1.362 . S
C372 C369 1.431 . S
C372 C382 1.476 1_565 S
H373 C367 0.929 . S
C374 O365 1.250 . S
C374 O366 1.258 . S
O375 Mn360 2.162 . S
O375 C363 1.281 . S
O376 Mn360 2.297 . S
O376 C363 1.236 . S
N377 Mn361 2.282 1_545 S
N377 C378 1.328 . S
N377 C382 1.318 . S
C378 N377 1.328 . S
C378 C379 1.457 . S
C378 H383 0.929 . S
C379 C378 1.457 . S
C379 C380 1.291 . S
C379 H392 0.931 . S
C380 C379 1.291 . S
C380 C381 1.373 . S
C380 H393 0.929 . S
C381 C380 1.373 . S
C381 C382 1.396 . S
C381 C388 1.403 . S
C382 C372 1.476 1_545 S
C382 N377 1.318 . S
C382 C381 1.396 . S
H383 C378 0.929 . S
O384 Mn360 2.385 . S
O384 C362 1.234 . S
O385 Mn360 2.209 . S
O385 Mn361 2.215 . S
O385 C362 1.283 . S
O386 Mn360 2.094 1_545 S
O386 C364 1.240 . S
O387 Mn361 2.117 1_545 S
O387 C364 1.264 . S
C388 C381 1.403 . S
C388 C389 1.399 1_545 S
C388 H394 0.929 . S
C389 C369 1.449 . S
C389 C388 1.399 1_565 S
C389 H395 0.930 . S
H390 C370 0.931 . S
H391 C371 0.930 . S
H392 C379 0.931 . S
H393 C380 0.929 . S
H394 C388 0.929 . S
H395 C389 0.930 . S
Mn396 O401 2.095 . S
Mn396 O411 2.162 . S
Mn396 O412 2.297 . S
Mn396 O420 2.385 . S
Mn396 O421 2.209 . S
Mn396 O422 2.094 1_455 S
Mn397 O402 2.121 . S
Mn397 N404 2.257 . S
Mn397 N413 2.282 1_455 S
Mn397 O421 2.215 . S
Mn397 O423 2.117 1_455 S
C398 O420 1.234 . S
C398 O421 1.283 . S
C399 O411 1.281 . S
C399 O412 1.236 . S
C400 O422 1.240 . S
C400 O423 1.264 . S
O401 Mn396 2.095 . S
O401 C410 1.250 . S
O402 Mn397 2.121 . S
O402 C410 1.258 . S
C403 N404 1.326 . S
C403 C407 1.460 . S
C403 H409 0.929 . S
N404 Mn397 2.257 . S
N404 C403 1.326 . S
N404 C408 1.362 . S
C405 C406 1.258 . S
C405 C408 1.431 . S
C405 C425 1.449 . S
C406 C405 1.258 . S
C406 C407 1.477 . S
C406 H426 0.931 . S
C407 C403 1.460 . S
C407 C406 1.477 . S
C407 H427 0.930 . S
C408 N404 1.362 . S
C408 C405 1.431 . S
C408 C418 1.476 1_455 S
H409 C403 0.929 . S
C410 O401 1.250 . S
C410 O402 1.258 . S
O411 Mn396 2.162 . S
O411 C399 1.281 . S
O412 Mn396 2.297 . S
O412 C399 1.236 . S
N413 Mn397 2.282 1_655 S
N413 C414 1.328 . S
N413 C418 1.318 . S
C414 N413 1.328 . S
C414 C415 1.457 . S
C414 H419 0.929 . S
C415 C414 1.457 . S
C415 C416 1.291 . S
C415 H428 0.931 . S
C416 C415 1.291 . S
C416 C417 1.373 . S
C416 H429 0.929 . S
C417 C416 1.373 . S
C417 C418 1.396 . S
C417 C424 1.403 . S
C418 C408 1.476 1_655 S
C418 N413 1.318 . S
C418 C417 1.396 . S
H419 C414 0.929 . S
O420 Mn396 2.385 . S
O420 C398 1.234 . S
O421 Mn396 2.209 . S
O421 Mn397 2.215 . S
O421 C398 1.283 . S
O422 Mn396 2.094 1_655 S
O422 C400 1.240 . S
O423 Mn397 2.117 1_655 S
O423 C400 1.264 . S
C424 C417 1.403 . S
C424 C425 1.399 1_655 S
C424 H430 0.929 . S
C425 C405 1.449 . S
C425 C424 1.399 1_455 S
C425 H431 0.930 . S
H426 C406 0.931 . S
H427 C407 0.930 . S
H428 C415 0.931 . S
H429 C416 0.929 . S
H430 C424 0.929 . S
H431 C425 0.930 . S
Mn432 O437 2.095 . S
Mn432 O447 2.162 . S
Mn432 O448 2.297 . S
Mn432 O456 2.385 . S
Mn432 O457 2.209 . S
Mn432 O458 2.094 1_565 S
Mn433 O438 2.121 . S
Mn433 N440 2.257 . S
Mn433 N449 2.282 1_565 S
Mn433 O457 2.215 . S
Mn433 O459 2.117 1_565 S
C434 O456 1.234 . S
C434 O457 1.283 . S
C435 O447 1.281 . S
C435 O448 1.236 . S
C436 O458 1.240 . S
C436 O459 1.264 . S
O437 Mn432 2.095 . S
O437 C446 1.250 . S
O438 Mn433 2.121 . S
O438 C446 1.258 . S
C439 N440 1.326 . S
C439 C443 1.460 . S
C439 H445 0.929 . S
N440 Mn433 2.257 . S
N440 C439 1.326 . S
N440 C444 1.362 . S
C441 C442 1.258 . S
C441 C444 1.431 . S
C441 C461 1.449 . S
C442 C441 1.258 . S
C442 C443 1.477 . S
C442 H462 0.931 . S
C443 C439 1.460 . S
C443 C442 1.477 . S
C443 H463 0.930 . S
C444 N440 1.362 . S
C444 C441 1.431 . S
C444 C454 1.476 1_565 S
H445 C439 0.929 . S
C446 O437 1.250 . S
C446 O438 1.258 . S
O447 Mn432 2.162 . S
O447 C435 1.281 . S
O448 Mn432 2.297 . S
O448 C435 1.236 . S
N449 Mn433 2.282 1_545 S
N449 C450 1.328 . S
N449 C454 1.318 . S
C450 N449 1.328 . S
C450 C451 1.457 . S
C450 H455 0.929 . S
C451 C450 1.457 . S
C451 C452 1.291 . S
C451 H464 0.931 . S
C452 C451 1.291 . S
C452 C453 1.373 . S
C452 H465 0.929 . S
C453 C452 1.373 . S
C453 C454 1.396 . S
C453 C460 1.403 . S
C454 C444 1.476 1_545 S
C454 N449 1.318 . S
C454 C453 1.396 . S
H455 C450 0.929 . S
O456 Mn432 2.385 . S
O456 C434 1.234 . S
O457 Mn432 2.209 . S
O457 Mn433 2.215 . S
O457 C434 1.283 . S
O458 Mn432 2.094 1_545 S
O458 C436 1.240 . S
O459 Mn433 2.117 1_545 S
O459 C436 1.264 . S
C460 C453 1.403 . S
C460 C461 1.399 1_545 S
C460 H466 0.929 . S
C461 C441 1.449 . S
C461 C460 1.399 1_565 S
C461 H467 0.930 . S
H462 C442 0.931 . S
H463 C443 0.930 . S
H464 C451 0.931 . S
H465 C452 0.929 . S
H466 C460 0.929 . S
H467 C461 0.930 . S
Mn468 O473 2.095 . S
Mn468 O483 2.162 . S
Mn468 O484 2.297 . S
Mn468 O492 2.385 . S
Mn468 O493 2.209 . S
Mn468 O494 2.094 1_455 S
Mn469 O474 2.121 . S
Mn469 N476 2.257 . S
Mn469 N485 2.282 1_455 S
Mn469 O493 2.215 . S
Mn469 O495 2.117 1_455 S
C470 O492 1.234 . S
C470 O493 1.283 . S
C471 O483 1.281 . S
C471 O484 1.236 . S
C472 O494 1.240 . S
C472 O495 1.264 . S
O473 Mn468 2.095 . S
O473 C482 1.250 . S
O474 Mn469 2.121 . S
O474 C482 1.258 . S
C475 N476 1.326 . S
C475 C479 1.460 . S
C475 H481 0.929 . S
N476 Mn469 2.257 . S
N476 C475 1.326 . S
N476 C480 1.362 . S
C477 C478 1.258 . S
C477 C480 1.431 . S
C477 C497 1.449 . S
C478 C477 1.258 . S
C478 C479 1.477 . S
C478 H498 0.931 . S
C479 C475 1.460 . S
C479 C478 1.477 . S
C479 H499 0.930 . S
C480 N476 1.362 . S
C480 C477 1.431 . S
C480 C490 1.476 1_455 S
H481 C475 0.929 . S
C482 O473 1.250 . S
C482 O474 1.258 . S
O483 Mn468 2.162 . S
O483 C471 1.281 . S
O484 Mn468 2.297 . S
O484 C471 1.236 . S
N485 Mn469 2.282 1_655 S
N485 C486 1.328 . S
N485 C490 1.318 . S
C486 N485 1.328 . S
C486 C487 1.457 . S
C486 H491 0.929 . S
C487 C486 1.457 . S
C487 C488 1.291 . S
C487 H500 0.931 . S
C488 C487 1.291 . S
C488 C489 1.373 . S
C488 H501 0.929 . S
C489 C488 1.373 . S
C489 C490 1.396 . S
C489 C496 1.403 . S
C490 C480 1.476 1_655 S
C490 N485 1.318 . S
C490 C489 1.396 . S
H491 C486 0.929 . S
O492 Mn468 2.385 . S
O492 C470 1.234 . S
O493 Mn468 2.209 . S
O493 Mn469 2.215 . S
O493 C470 1.283 . S
O494 Mn468 2.094 1_655 S
O494 C472 1.240 . S
O495 Mn469 2.117 1_655 S
O495 C472 1.264 . S
C496 C489 1.403 . S
C496 C497 1.399 1_655 S
C496 H502 0.929 . S
C497 C477 1.449 . S
C497 C496 1.399 1_455 S
C497 H503 0.930 . S
H498 C478 0.931 . S
H499 C479 0.930 . S
H500 C487 0.931 . S
H501 C488 0.929 . S
H502 C496 0.929 . S
H503 C497 0.930 . S
Mn504 O509 2.095 . S
Mn504 O519 2.162 . S
Mn504 O520 2.297 . S
Mn504 O528 2.385 . S
Mn504 O529 2.209 . S
Mn504 O530 2.094 1_545 S
Mn505 O510 2.121 . S
Mn505 N512 2.257 . S
Mn505 N521 2.282 1_545 S
Mn505 O529 2.215 . S
Mn505 O531 2.117 1_545 S
C506 O528 1.234 . S
C506 O529 1.283 . S
C507 O519 1.281 . S
C507 O520 1.236 . S
C508 O530 1.240 . S
C508 O531 1.264 . S
O509 Mn504 2.095 . S
O509 C518 1.250 . S
O510 Mn505 2.121 . S
O510 C518 1.258 . S
C511 N512 1.326 . S
C511 C515 1.460 . S
C511 H517 0.929 . S
N512 Mn505 2.257 . S
N512 C511 1.326 . S
N512 C516 1.362 . S
C513 C514 1.258 . S
C513 C516 1.431 . S
C513 C533 1.449 . S
C514 C513 1.258 . S
C514 C515 1.477 . S
C514 H534 0.931 . S
C515 C511 1.460 . S
C515 C514 1.477 . S
C515 H535 0.930 . S
C516 N512 1.362 . S
C516 C513 1.431 . S
C516 C526 1.476 1_545 S
H517 C511 0.929 . S
C518 O509 1.250 . S
C518 O510 1.258 . S
O519 Mn504 2.162 . S
O519 C507 1.281 . S
O520 Mn504 2.297 . S
O520 C507 1.236 . S
N521 Mn505 2.282 1_565 S
N521 C522 1.328 . S
N521 C526 1.318 . S
C522 N521 1.328 . S
C522 C523 1.457 . S
C522 H527 0.929 . S
C523 C522 1.457 . S
C523 C524 1.291 . S
C523 H536 0.931 . S
C524 C523 1.291 . S
C524 C525 1.373 . S
C524 H537 0.929 . S
C525 C524 1.373 . S
C525 C526 1.396 . S
C525 C532 1.403 . S
C526 C516 1.476 1_565 S
C526 N521 1.318 . S
C526 C525 1.396 . S
H527 C522 0.929 . S
O528 Mn504 2.385 . S
O528 C506 1.234 . S
O529 Mn504 2.209 . S
O529 Mn505 2.215 . S
O529 C506 1.283 . S
O530 Mn504 2.094 1_565 S
O530 C508 1.240 . S
O531 Mn505 2.117 1_565 S
O531 C508 1.264 . S
C532 C525 1.403 . S
C532 C533 1.399 1_565 S
C532 H538 0.929 . S
C533 C513 1.449 . S
C533 C532 1.399 1_545 S
C533 H539 0.930 . S
H534 C514 0.931 . S
H535 C515 0.930 . S
H536 C523 0.931 . S
H537 C524 0.929 . S
H538 C532 0.929 . S
H539 C533 0.930 . S
Mn540 O545 2.095 . S
Mn540 O555 2.162 . S
Mn540 O556 2.297 . S
Mn540 O564 2.385 . S
Mn540 O565 2.209 . S
Mn540 O566 2.094 1_655 S
Mn541 O546 2.121 . S
Mn541 N548 2.257 . S
Mn541 N557 2.282 1_655 S
Mn541 O565 2.215 . S
Mn541 O567 2.117 1_655 S
C542 O564 1.234 . S
C542 O565 1.283 . S
C543 O555 1.281 . S
C543 O556 1.236 . S
C544 O566 1.240 . S
C544 O567 1.264 . S
O545 Mn540 2.095 . S
O545 C554 1.250 . S
O546 Mn541 2.121 . S
O546 C554 1.258 . S
C547 N548 1.326 . S
C547 C551 1.460 . S
C547 H553 0.929 . S
N548 Mn541 2.257 . S
N548 C547 1.326 . S
N548 C552 1.362 . S
C549 C550 1.258 . S
C549 C552 1.431 . S
C549 C569 1.449 . S
C550 C549 1.258 . S
C550 C551 1.477 . S
C550 H570 0.931 . S
C551 C547 1.460 . S
C551 C550 1.477 . S
C551 H571 0.930 . S
C552 N548 1.362 . S
C552 C549 1.431 . S
C552 C562 1.476 1_655 S
H553 C547 0.929 . S
C554 O545 1.250 . S
C554 O546 1.258 . S
O555 Mn540 2.162 . S
O555 C543 1.281 . S
O556 Mn540 2.297 . S
O556 C543 1.236 . S
N557 Mn541 2.282 1_455 S
N557 C558 1.328 . S
N557 C562 1.318 . S
C558 N557 1.328 . S
C558 C559 1.457 . S
C558 H563 0.929 . S
C559 C558 1.457 . S
C559 C560 1.291 . S
C559 H572 0.931 . S
C560 C559 1.291 . S
C560 C561 1.373 . S
C560 H573 0.929 . S
C561 C560 1.373 . S
C561 C562 1.396 . S
C561 C568 1.403 . S
C562 C552 1.476 1_455 S
C562 N557 1.318 . S
C562 C561 1.396 . S
H563 C558 0.929 . S
O564 Mn540 2.385 . S
O564 C542 1.234 . S
O565 Mn540 2.209 . S
O565 Mn541 2.215 . S
O565 C542 1.283 . S
O566 Mn540 2.094 1_455 S
O566 C544 1.240 . S
O567 Mn541 2.117 1_455 S
O567 C544 1.264 . S
C568 C561 1.403 . S
C568 C569 1.399 1_455 S
C568 H574 0.929 . S
C569 C549 1.449 . S
C569 C568 1.399 1_655 S
C569 H575 0.930 . S
H570 C550 0.931 . S
H571 C551 0.930 . S
H572 C559 0.931 . S
H573 C560 0.929 . S
H574 C568 0.929 . S
H575 C569 0.930 . S
Mn576 O581 2.095 . S
Mn576 O591 2.162 . S
Mn576 O592 2.297 . S
Mn576 O600 2.385 . S
Mn576 O601 2.209 . S
Mn576 O602 2.094 1_554 S
Mn577 O582 2.121 . S
Mn577 N584 2.257 . S
Mn577 N593 2.282 1_554 S
Mn577 O601 2.215 . S
Mn577 O603 2.117 1_554 S
C578 O600 1.234 . S
C578 O601 1.283 . S
C579 O591 1.281 . S
C579 O592 1.236 . S
C580 O602 1.240 . S
C580 O603 1.264 . S
O581 Mn576 2.095 . S
O581 C590 1.250 . S
O582 Mn577 2.121 . S
O582 C590 1.258 . S
C583 N584 1.326 . S
C583 C587 1.460 . S
C583 H589 0.929 . S
N584 Mn577 2.257 . S
N584 C583 1.326 . S
N584 C588 1.362 . S
C585 C586 1.258 . S
C585 C588 1.431 . S
C585 C605 1.449 . S
C586 C585 1.258 . S
C586 C587 1.477 . S
C586 H606 0.931 . S
C587 C583 1.460 . S
C587 C586 1.477 . S
C587 H607 0.930 . S
C588 N584 1.362 . S
C588 C585 1.431 . S
C588 C598 1.476 1_554 S
H589 C583 0.929 . S
C590 O581 1.250 . S
C590 O582 1.258 . S
O591 Mn576 2.162 . S
O591 C579 1.281 . S
O592 Mn576 2.297 . S
O592 C579 1.236 . S
N593 Mn577 2.282 1_556 S
N593 C594 1.328 . S
N593 C598 1.318 . S
C594 N593 1.328 . S
C594 C595 1.457 . S
C594 H599 0.929 . S
C595 C594 1.457 . S
C595 C596 1.291 . S
C595 H608 0.931 . S
C596 C595 1.291 . S
C596 C597 1.373 . S
C596 H609 0.929 . S
C597 C596 1.373 . S
C597 C598 1.396 . S
C597 C604 1.403 . S
C598 C588 1.476 1_556 S
C598 N593 1.318 . S
C598 C597 1.396 . S
H599 C594 0.929 . S
O600 Mn576 2.385 . S
O600 C578 1.234 . S
O601 Mn576 2.209 . S
O601 Mn577 2.215 . S
O601 C578 1.283 . S
O602 Mn576 2.094 1_556 S
O602 C580 1.240 . S
O603 Mn577 2.117 1_556 S
O603 C580 1.264 . S
C604 C597 1.403 . S
C604 C605 1.399 1_556 S
C604 H610 0.929 . S
C605 C585 1.449 . S
C605 C604 1.399 1_554 S
C605 H611 0.930 . S
H606 C586 0.931 . S
H607 C587 0.930 . S
H608 C595 0.931 . S
H609 C596 0.929 . S
H610 C604 0.929 . S
H611 C605 0.930 . S
Mn612 O617 2.095 . S
Mn612 O627 2.162 . S
Mn612 O628 2.297 . S
Mn612 O636 2.385 . S
Mn612 O637 2.209 . S
Mn612 O638 2.094 1_556 S
Mn613 O618 2.121 . S
Mn613 N620 2.257 . S
Mn613 N629 2.282 1_556 S
Mn613 O637 2.215 . S
Mn613 O639 2.117 1_556 S
C614 O636 1.234 . S
C614 O637 1.283 . S
C615 O627 1.281 . S
C615 O628 1.236 . S
C616 O638 1.240 . S
C616 O639 1.264 . S
O617 Mn612 2.095 . S
O617 C626 1.250 . S
O618 Mn613 2.121 . S
O618 C626 1.258 . S
C619 N620 1.326 . S
C619 C623 1.460 . S
C619 H625 0.929 . S
N620 Mn613 2.257 . S
N620 C619 1.326 . S
N620 C624 1.362 . S
C621 C622 1.258 . S
C621 C624 1.431 . S
C621 C641 1.449 . S
C622 C621 1.258 . S
C622 C623 1.477 . S
C622 H642 0.931 . S
C623 C619 1.460 . S
C623 C622 1.477 . S
C623 H643 0.930 . S
C624 N620 1.362 . S
C624 C621 1.431 . S
C624 C634 1.476 1_556 S
H625 C619 0.929 . S
C626 O617 1.250 . S
C626 O618 1.258 . S
O627 Mn612 2.162 . S
O627 C615 1.281 . S
O628 Mn612 2.297 . S
O628 C615 1.236 . S
N629 Mn613 2.282 1_554 S
N629 C630 1.328 . S
N629 C634 1.318 . S
C630 N629 1.328 . S
C630 C631 1.457 . S
C630 H635 0.929 . S
C631 C630 1.457 . S
C631 C632 1.291 . S
C631 H644 0.931 . S
C632 C631 1.291 . S
C632 C633 1.373 . S
C632 H645 0.929 . S
C633 C632 1.373 . S
C633 C634 1.396 . S
C633 C640 1.403 . S
C634 C624 1.476 1_554 S
C634 N629 1.318 . S
C634 C633 1.396 . S
H635 C630 0.929 . S
O636 Mn612 2.385 . S
O636 C614 1.234 . S
O637 Mn612 2.209 . S
O637 Mn613 2.215 . S
O637 C614 1.283 . S
O638 Mn612 2.094 1_554 S
O638 C616 1.240 . S
O639 Mn613 2.117 1_554 S
O639 C616 1.264 . S
C640 C633 1.403 . S
C640 C641 1.399 1_554 S
C640 H646 0.929 . S
C641 C621 1.449 . S
C641 C640 1.399 1_556 S
C641 H647 0.930 . S
H642 C622 0.931 . S
H643 C623 0.930 . S
H644 C631 0.931 . S
H645 C632 0.929 . S
H646 C640 0.929 . S
H647 C641 0.930 . S
Mn648 O653 2.095 . S
Mn648 O663 2.162 . S
Mn648 O664 2.297 . S
Mn648 O672 2.385 . S
Mn648 O673 2.209 . S
Mn648 O674 2.094 1_556 S
Mn649 O654 2.121 . S
Mn649 N656 2.257 . S
Mn649 N665 2.282 1_556 S
Mn649 O673 2.215 . S
Mn649 O675 2.117 1_556 S
C650 O672 1.234 . S
C650 O673 1.283 . S
C651 O663 1.281 . S
C651 O664 1.236 . S
C652 O674 1.240 . S
C652 O675 1.264 . S
O653 Mn648 2.095 . S
O653 C662 1.250 . S
O654 Mn649 2.121 . S
O654 C662 1.258 . S
C655 N656 1.326 . S
C655 C659 1.460 . S
C655 H661 0.929 . S
N656 Mn649 2.257 . S
N656 C655 1.326 . S
N656 C660 1.362 . S
C657 C658 1.258 . S
C657 C660 1.431 . S
C657 C677 1.449 . S
C658 C657 1.258 . S
C658 C659 1.477 . S
C658 H678 0.931 . S
C659 C655 1.460 . S
C659 C658 1.477 . S
C659 H679 0.930 . S
C660 N656 1.362 . S
C660 C657 1.431 . S
C660 C670 1.476 1_556 S
H661 C655 0.929 . S
C662 O653 1.250 . S
C662 O654 1.258 . S
O663 Mn648 2.162 . S
O663 C651 1.281 . S
O664 Mn648 2.297 . S
O664 C651 1.236 . S
N665 Mn649 2.282 1_554 S
N665 C666 1.328 . S
N665 C670 1.318 . S
C666 N665 1.328 . S
C666 C667 1.457 . S
C666 H671 0.929 . S
C667 C666 1.457 . S
C667 C668 1.291 . S
C667 H680 0.931 . S
C668 C667 1.291 . S
C668 C669 1.373 . S
C668 H681 0.929 . S
C669 C668 1.373 . S
C669 C670 1.396 . S
C669 C676 1.403 . S
C670 C660 1.476 1_554 S
C670 N665 1.318 . S
C670 C669 1.396 . S
H671 C666 0.929 . S
O672 Mn648 2.385 . S
O672 C650 1.234 . S
O673 Mn648 2.209 . S
O673 Mn649 2.215 . S
O673 C650 1.283 . S
O674 Mn648 2.094 1_554 S
O674 C652 1.240 . S
O675 Mn649 2.117 1_554 S
O675 C652 1.264 . S
C676 C669 1.403 . S
C676 C677 1.399 1_554 S
C676 H682 0.929 . S
C677 C657 1.449 . S
C677 C676 1.399 1_556 S
C677 H683 0.930 . S
H678 C658 0.931 . S
H679 C659 0.930 . S
H680 C667 0.931 . S
H681 C668 0.929 . S
H682 C676 0.929 . S
H683 C677 0.930 . S
Mn684 O689 2.095 . S
Mn684 O699 2.162 . S
Mn684 O700 2.297 . S
Mn684 O708 2.385 . S
Mn684 O709 2.209 . S
Mn684 O710 2.094 1_556 S
Mn685 O690 2.121 . S
Mn685 N692 2.257 . S
Mn685 N701 2.282 1_556 S
Mn685 O709 2.215 . S
Mn685 O711 2.117 1_556 S
C686 O708 1.234 . S
C686 O709 1.283 . S
C687 O699 1.281 . S
C687 O700 1.236 . S
C688 O710 1.240 . S
C688 O711 1.264 . S
O689 Mn684 2.095 . S
O689 C698 1.250 . S
O690 Mn685 2.121 . S
O690 C698 1.258 . S
C691 N692 1.326 . S
C691 C695 1.460 . S
C691 H697 0.929 . S
N692 Mn685 2.257 . S
N692 C691 1.326 . S
N692 C696 1.362 . S
C693 C694 1.258 . S
C693 C696 1.431 . S
C693 C713 1.449 . S
C694 C693 1.258 . S
C694 C695 1.477 . S
C694 H714 0.931 . S
C695 C691 1.460 . S
C695 C694 1.477 . S
C695 H715 0.930 . S
C696 N692 1.362 . S
C696 C693 1.431 . S
C696 C706 1.476 1_556 S
H697 C691 0.929 . S
C698 O689 1.250 . S
C698 O690 1.258 . S
O699 Mn684 2.162 . S
O699 C687 1.281 . S
O700 Mn684 2.297 . S
O700 C687 1.236 . S
N701 Mn685 2.282 1_554 S
N701 C702 1.328 . S
N701 C706 1.318 . S
C702 N701 1.328 . S
C702 C703 1.457 . S
C702 H707 0.929 . S
C703 C702 1.457 . S
C703 C704 1.291 . S
C703 H716 0.931 . S
C704 C703 1.291 . S
C704 C705 1.373 . S
C704 H717 0.929 . S
C705 C704 1.373 . S
C705 C706 1.396 . S
C705 C712 1.403 . S
C706 C696 1.476 1_554 S
C706 N701 1.318 . S
C706 C705 1.396 . S
H707 C702 0.929 . S
O708 Mn684 2.385 . S
O708 C686 1.234 . S
O709 Mn684 2.209 . S
O709 Mn685 2.215 . S
O709 C686 1.283 . S
O710 Mn684 2.094 1_554 S
O710 C688 1.240 . S
O711 Mn685 2.117 1_554 S
O711 C688 1.264 . S
C712 C705 1.403 . S
C712 C713 1.399 1_554 S
C712 H718 0.929 . S
C713 C693 1.449 . S
C713 C712 1.399 1_556 S
C713 H719 0.930 . S
H714 C694 0.931 . S
H715 C695 0.930 . S
H716 C703 0.931 . S
H717 C704 0.929 . S
H718 C712 0.929 . S
H719 C713 0.930 . S
Mn720 O725 2.095 . S
Mn720 O735 2.162 . S
Mn720 O736 2.297 . S
Mn720 O744 2.385 . S
Mn720 O745 2.209 . S
Mn720 O746 2.094 1_556 S
Mn721 O726 2.121 . S
Mn721 N728 2.257 . S
Mn721 N737 2.282 1_556 S
Mn721 O745 2.215 . S
Mn721 O747 2.117 1_556 S
C722 O744 1.234 . S
C722 O745 1.283 . S
C723 O735 1.281 . S
C723 O736 1.236 . S
C724 O746 1.240 . S
C724 O747 1.264 . S
O725 Mn720 2.095 . S
O725 C734 1.250 . S
O726 Mn721 2.121 . S
O726 C734 1.258 . S
C727 N728 1.326 . S
C727 C731 1.460 . S
C727 H733 0.929 . S
N728 Mn721 2.257 . S
N728 C727 1.326 . S
N728 C732 1.362 . S
C729 C730 1.258 . S
C729 C732 1.431 . S
C729 C749 1.449 . S
C730 C729 1.258 . S
C730 C731 1.477 . S
C730 H750 0.931 . S
C731 C727 1.460 . S
C731 C730 1.477 . S
C731 H751 0.930 . S
C732 N728 1.362 . S
C732 C729 1.431 . S
C732 C742 1.476 1_556 S
H733 C727 0.929 . S
C734 O725 1.250 . S
C734 O726 1.258 . S
O735 Mn720 2.162 . S
O735 C723 1.281 . S
O736 Mn720 2.297 . S
O736 C723 1.236 . S
N737 Mn721 2.282 1_554 S
N737 C738 1.328 . S
N737 C742 1.318 . S
C738 N737 1.328 . S
C738 C739 1.457 . S
C738 H743 0.929 . S
C739 C738 1.457 . S
C739 C740 1.291 . S
C739 H752 0.931 . S
C740 C739 1.291 . S
C740 C741 1.373 . S
C740 H753 0.929 . S
C741 C740 1.373 . S
C741 C742 1.396 . S
C741 C748 1.403 . S
C742 C732 1.476 1_554 S
C742 N737 1.318 . S
C742 C741 1.396 . S
H743 C738 0.929 . S
O744 Mn720 2.385 . S
O744 C722 1.234 . S
O745 Mn720 2.209 . S
O745 Mn721 2.215 . S
O745 C722 1.283 . S
O746 Mn720 2.094 1_554 S
O746 C724 1.240 . S
O747 Mn721 2.117 1_554 S
O747 C724 1.264 . S
C748 C741 1.403 . S
C748 C749 1.399 1_554 S
C748 H754 0.929 . S
C749 C729 1.449 . S
C749 C748 1.399 1_556 S
C749 H755 0.930 . S
H750 C730 0.931 . S
H751 C731 0.930 . S
H752 C739 0.931 . S
H753 C740 0.929 . S
H754 C748 0.929 . S
H755 C749 0.930 . S
Mn756 O761 2.095 . S
Mn756 O771 2.162 . S
Mn756 O772 2.297 . S
Mn756 O780 2.385 . S
Mn756 O781 2.209 . S
Mn756 O782 2.094 1_554 S
Mn757 O762 2.121 . S
Mn757 N764 2.257 . S
Mn757 N773 2.282 1_554 S
Mn757 O781 2.215 . S
Mn757 O783 2.117 1_554 S
C758 O780 1.234 . S
C758 O781 1.283 . S
C759 O771 1.281 . S
C759 O772 1.236 . S
C760 O782 1.240 . S
C760 O783 1.264 . S
O761 Mn756 2.095 . S
O761 C770 1.250 . S
O762 Mn757 2.121 . S
O762 C770 1.258 . S
C763 N764 1.326 . S
C763 C767 1.460 . S
C763 H769 0.929 . S
N764 Mn757 2.257 . S
N764 C763 1.326 . S
N764 C768 1.362 . S
C765 C766 1.258 . S
C765 C768 1.431 . S
C765 C785 1.449 . S
C766 C765 1.258 . S
C766 C767 1.477 . S
C766 H786 0.931 . S
C767 C763 1.460 . S
C767 C766 1.477 . S
C767 H787 0.930 . S
C768 N764 1.362 . S
C768 C765 1.431 . S
C768 C778 1.476 1_554 S
H769 C763 0.929 . S
C770 O761 1.250 . S
C770 O762 1.258 . S
O771 Mn756 2.162 . S
O771 C759 1.281 . S
O772 Mn756 2.297 . S
O772 C759 1.236 . S
N773 Mn757 2.282 1_556 S
N773 C774 1.328 . S
N773 C778 1.318 . S
C774 N773 1.328 . S
C774 C775 1.457 . S
C774 H779 0.929 . S
C775 C774 1.457 . S
C775 C776 1.291 . S
C775 H788 0.931 . S
C776 C775 1.291 . S
C776 C777 1.373 . S
C776 H789 0.929 . S
C777 C776 1.373 . S
C777 C778 1.396 . S
C777 C784 1.403 . S
C778 C768 1.476 1_556 S
C778 N773 1.318 . S
C778 C777 1.396 . S
H779 C774 0.929 . S
O780 Mn756 2.385 . S
O780 C758 1.234 . S
O781 Mn756 2.209 . S
O781 Mn757 2.215 . S
O781 C758 1.283 . S
O782 Mn756 2.094 1_556 S
O782 C760 1.240 . S
O783 Mn757 2.117 1_556 S
O783 C760 1.264 . S
C784 C777 1.403 . S
C784 C785 1.399 1_556 S
C784 H790 0.929 . S
C785 C765 1.449 . S
C785 C784 1.399 1_554 S
C785 H791 0.930 . S
H786 C766 0.931 . S
H787 C767 0.930 . S
H788 C775 0.931 . S
H789 C776 0.929 . S
H790 C784 0.929 . S
H791 C785 0.930 . S
Mn792 O797 2.095 . S
Mn792 O807 2.162 . S
Mn792 O808 2.297 . S
Mn792 O816 2.385 . S
Mn792 O817 2.209 . S
Mn792 O818 2.094 1_554 S
Mn793 O798 2.121 . S
Mn793 N800 2.257 . S
Mn793 N809 2.282 1_554 S
Mn793 O817 2.215 . S
Mn793 O819 2.117 1_554 S
C794 O816 1.234 . S
C794 O817 1.283 . S
C795 O807 1.281 . S
C795 O808 1.236 . S
C796 O818 1.240 . S
C796 O819 1.264 . S
O797 Mn792 2.095 . S
O797 C806 1.250 . S
O798 Mn793 2.121 . S
O798 C806 1.258 . S
C799 N800 1.326 . S
C799 C803 1.460 . S
C799 H805 0.929 . S
N800 Mn793 2.257 . S
N800 C799 1.326 . S
N800 C804 1.362 . S
C801 C802 1.258 . S
C801 C804 1.431 . S
C801 C821 1.449 . S
C802 C801 1.258 . S
C802 C803 1.477 . S
C802 H822 0.931 . S
C803 C799 1.460 . S
C803 C802 1.477 . S
C803 H823 0.930 . S
C804 N800 1.362 . S
C804 C801 1.431 . S
C804 C814 1.476 1_554 S
H805 C799 0.929 . S
C806 O797 1.250 . S
C806 O798 1.258 . S
O807 Mn792 2.162 . S
O807 C795 1.281 . S
O808 Mn792 2.297 . S
O808 C795 1.236 . S
N809 Mn793 2.282 1_556 S
N809 C810 1.328 . S
N809 C814 1.318 . S
C810 N809 1.328 . S
C810 C811 1.457 . S
C810 H815 0.929 . S
C811 C810 1.457 . S
C811 C812 1.291 . S
C811 H824 0.931 . S
C812 C811 1.291 . S
C812 C813 1.373 . S
C812 H825 0.929 . S
C813 C812 1.373 . S
C813 C814 1.396 . S
C813 C820 1.403 . S
C814 C804 1.476 1_556 S
C814 N809 1.318 . S
C814 C813 1.396 . S
H815 C810 0.929 . S
O816 Mn792 2.385 . S
O816 C794 1.234 . S
O817 Mn792 2.209 . S
O817 Mn793 2.215 . S
O817 C794 1.283 . S
O818 Mn792 2.094 1_556 S
O818 C796 1.240 . S
O819 Mn793 2.117 1_556 S
O819 C796 1.264 . S
C820 C813 1.403 . S
C820 C821 1.399 1_556 S
C820 H826 0.929 . S
C821 C801 1.449 . S
C821 C820 1.399 1_554 S
C821 H827 0.930 . S
H822 C802 0.931 . S
H823 C803 0.930 . S
H824 C811 0.931 . S
H825 C812 0.929 . S
H826 C820 0.929 . S
H827 C821 0.930 . S
Mn828 O833 2.095 . S
Mn828 O843 2.162 . S
Mn828 O844 2.297 . S
Mn828 O852 2.385 . S
Mn828 O853 2.209 . S
Mn828 O854 2.094 1_554 S
Mn829 O834 2.121 . S
Mn829 N836 2.257 . S
Mn829 N845 2.282 1_554 S
Mn829 O853 2.215 . S
Mn829 O855 2.117 1_554 S
C830 O852 1.234 . S
C830 O853 1.283 . S
C831 O843 1.281 . S
C831 O844 1.236 . S
C832 O854 1.240 . S
C832 O855 1.264 . S
O833 Mn828 2.095 . S
O833 C842 1.250 . S
O834 Mn829 2.121 . S
O834 C842 1.258 . S
C835 N836 1.326 . S
C835 C839 1.460 . S
C835 H841 0.929 . S
N836 Mn829 2.257 . S
N836 C835 1.326 . S
N836 C840 1.362 . S
C837 C838 1.258 . S
C837 C840 1.431 . S
C837 C857 1.449 . S
C838 C837 1.258 . S
C838 C839 1.477 . S
C838 H858 0.931 . S
C839 C835 1.460 . S
C839 C838 1.477 . S
C839 H859 0.930 . S
C840 N836 1.362 . S
C840 C837 1.431 . S
C840 C850 1.476 1_554 S
H841 C835 0.929 . S
C842 O833 1.250 . S
C842 O834 1.258 . S
O843 Mn828 2.162 . S
O843 C831 1.281 . S
O844 Mn828 2.297 . S
O844 C831 1.236 . S
N845 Mn829 2.282 1_556 S
N845 C846 1.328 . S
N845 C850 1.318 . S
C846 N845 1.328 . S
C846 C847 1.457 . S
C846 H851 0.929 . S
C847 C846 1.457 . S
C847 C848 1.291 . S
C847 H860 0.931 . S
C848 C847 1.291 . S
C848 C849 1.373 . S
C848 H861 0.929 . S
C849 C848 1.373 . S
C849 C850 1.396 . S
C849 C856 1.403 . S
C850 C840 1.476 1_556 S
C850 N845 1.318 . S
C850 C849 1.396 . S
H851 C846 0.929 . S
O852 Mn828 2.385 . S
O852 C830 1.234 . S
O853 Mn828 2.209 . S
O853 Mn829 2.215 . S
O853 C830 1.283 . S
O854 Mn828 2.094 1_556 S
O854 C832 1.240 . S
O855 Mn829 2.117 1_556 S
O855 C832 1.264 . S
C856 C849 1.403 . S
C856 C857 1.399 1_556 S
C856 H862 0.929 . S
C857 C837 1.449 . S
C857 C856 1.399 1_554 S
C857 H863 0.930 . S
H858 C838 0.931 . S
H859 C839 0.930 . S
H860 C847 0.931 . S
H861 C848 0.929 . S
H862 C856 0.929 . S
H863 C857 0.930 . S
Mn864 O869 2.095 . S
Mn864 O879 2.162 . S
Mn864 O880 2.297 . S
Mn864 O888 2.385 . S
Mn864 O889 2.209 . S
Mn864 O890 2.094 . S
Mn865 O870 2.121 . S
Mn865 N872 2.257 . S
Mn865 N881 2.282 . S
Mn865 O889 2.215 . S
Mn865 O891 2.117 . S
C866 O888 1.234 . S
C866 O889 1.283 . S
C867 O879 1.281 . S
C867 O880 1.236 . S
C868 O890 1.240 . S
C868 O891 1.264 . S
O869 Mn864 2.095 . S
O869 C878 1.250 . S
O870 Mn865 2.121 . S
O870 C878 1.258 . S
C871 N872 1.326 . S
C871 C875 1.460 . S
C871 H877 0.929 . S
N872 Mn865 2.257 . S
N872 C871 1.326 . S
N872 C876 1.362 . S
C873 C874 1.258 . S
C873 C876 1.431 . S
C873 C893 1.449 . S
C874 C873 1.258 . S
C874 C875 1.477 . S
C874 H894 0.931 . S
C875 C871 1.460 . S
C875 C874 1.477 . S
C875 H895 0.930 . S
C876 N872 1.362 . S
C876 C873 1.431 . S
C876 C886 1.476 . S
H877 C871 0.929 . S
C878 O869 1.250 . S
C878 O870 1.258 . S
O879 Mn864 2.162 . S
O879 C867 1.281 . S
O880 Mn864 2.297 . S
O880 C867 1.236 . S
N881 Mn865 2.282 . S
N881 C882 1.328 . S
N881 C886 1.318 . S
C882 N881 1.328 . S
C882 C883 1.457 . S
C882 H887 0.929 . S
C883 C882 1.457 . S
C883 C884 1.291 . S
C883 H896 0.931 . S
C884 C883 1.291 . S
C884 C885 1.373 . S
C884 H897 0.929 . S
C885 C884 1.373 . S
C885 C886 1.396 . S
C885 C892 1.403 . S
C886 C876 1.476 . S
C886 N881 1.318 . S
C886 C885 1.396 . S
H887 C882 0.929 . S
O888 Mn864 2.385 . S
O888 C866 1.234 . S
O889 Mn864 2.209 . S
O889 Mn865 2.215 . S
O889 C866 1.283 . S
O890 Mn864 2.094 . S
O890 C868 1.240 . S
O891 Mn865 2.117 . S
O891 C868 1.264 . S
C892 C885 1.403 . S
C892 C893 1.399 . S
C892 H898 0.929 . S
C893 C873 1.449 . S
C893 C892 1.399 . S
C893 H899 0.930 . S
H894 C874 0.931 . S
H895 C875 0.930 . S
H896 C883 0.931 . S
H897 C884 0.929 . S
H898 C892 0.929 . S
H899 C893 0.930 . S
Mn900 O905 2.095 . S
Mn900 O915 2.162 . S
Mn900 O916 2.297 . S
Mn900 O924 2.385 . S
Mn900 O925 2.209 . S
Mn900 O926 2.094 . S
Mn901 O906 2.121 . S
Mn901 N908 2.257 . S
Mn901 N917 2.282 . S
Mn901 O925 2.215 . S
Mn901 O927 2.117 . S
C902 O924 1.234 . S
C902 O925 1.283 . S
C903 O915 1.281 . S
C903 O916 1.236 . S
C904 O926 1.240 . S
C904 O927 1.264 . S
O905 Mn900 2.095 . S
O905 C914 1.250 . S
O906 Mn901 2.121 . S
O906 C914 1.258 . S
C907 N908 1.326 . S
C907 C911 1.460 . S
C907 H913 0.929 . S
N908 Mn901 2.257 . S
N908 C907 1.326 . S
N908 C912 1.362 . S
C909 C910 1.258 . S
C909 C912 1.431 . S
C909 C929 1.449 . S
C910 C909 1.258 . S
C910 C911 1.477 . S
C910 H930 0.931 . S
C911 C907 1.460 . S
C911 C910 1.477 . S
C911 H931 0.930 . S
C912 N908 1.362 . S
C912 C909 1.431 . S
C912 C922 1.476 . S
H913 C907 0.929 . S
C914 O905 1.250 . S
C914 O906 1.258 . S
O915 Mn900 2.162 . S
O915 C903 1.281 . S
O916 Mn900 2.297 . S
O916 C903 1.236 . S
N917 Mn901 2.282 . S
N917 C918 1.328 . S
N917 C922 1.318 . S
C918 N917 1.328 . S
C918 C919 1.457 . S
C918 H923 0.929 . S
C919 C918 1.457 . S
C919 C920 1.291 . S
C919 H932 0.931 . S
C920 C919 1.291 . S
C920 C921 1.373 . S
C920 H933 0.929 . S
C921 C920 1.373 . S
C921 C922 1.396 . S
C921 C928 1.403 . S
C922 C912 1.476 . S
C922 N917 1.318 . S
C922 C921 1.396 . S
H923 C918 0.929 . S
O924 Mn900 2.385 . S
O924 C902 1.234 . S
O925 Mn900 2.209 . S
O925 Mn901 2.215 . S
O925 C902 1.283 . S
O926 Mn900 2.094 . S
O926 C904 1.240 . S
O927 Mn901 2.117 . S
O927 C904 1.264 . S
C928 C921 1.403 . S
C928 C929 1.399 . S
C928 H934 0.929 . S
C929 C909 1.449 . S
C929 C928 1.399 . S
C929 H935 0.930 . S
H930 C910 0.931 . S
H931 C911 0.930 . S
H932 C919 0.931 . S
H933 C920 0.929 . S
H934 C928 0.929 . S
H935 C929 0.930 . S
Mn936 O941 2.095 . S
Mn936 O951 2.162 . S
Mn936 O952 2.297 . S
Mn936 O960 2.385 . S
Mn936 O961 2.209 . S
Mn936 O962 2.094 . S
Mn937 O942 2.121 . S
Mn937 N944 2.257 . S
Mn937 N953 2.282 . S
Mn937 O961 2.215 . S
Mn937 O963 2.117 . S
C938 O960 1.234 . S
C938 O961 1.283 . S
C939 O951 1.281 . S
C939 O952 1.236 . S
C940 O962 1.240 . S
C940 O963 1.264 . S
O941 Mn936 2.095 . S
O941 C950 1.250 . S
O942 Mn937 2.121 . S
O942 C950 1.258 . S
C943 N944 1.326 . S
C943 C947 1.460 . S
C943 H949 0.929 . S
N944 Mn937 2.257 . S
N944 C943 1.326 . S
N944 C948 1.362 . S
C945 C946 1.258 . S
C945 C948 1.431 . S
C945 C965 1.449 . S
C946 C945 1.258 . S
C946 C947 1.477 . S
C946 H966 0.931 . S
C947 C943 1.460 . S
C947 C946 1.477 . S
C947 H967 0.930 . S
C948 N944 1.362 . S
C948 C945 1.431 . S
C948 C958 1.476 . S
H949 C943 0.929 . S
C950 O941 1.250 . S
C950 O942 1.258 . S
O951 Mn936 2.162 . S
O951 C939 1.281 . S
O952 Mn936 2.297 . S
O952 C939 1.236 . S
N953 Mn937 2.282 . S
N953 C954 1.328 . S
N953 C958 1.318 . S
C954 N953 1.328 . S
C954 C955 1.457 . S
C954 H959 0.929 . S
C955 C954 1.457 . S
C955 C956 1.291 . S
C955 H968 0.931 . S
C956 C955 1.291 . S
C956 C957 1.373 . S
C956 H969 0.929 . S
C957 C956 1.373 . S
C957 C958 1.396 . S
C957 C964 1.403 . S
C958 C948 1.476 . S
C958 N953 1.318 . S
C958 C957 1.396 . S
H959 C954 0.929 . S
O960 Mn936 2.385 . S
O960 C938 1.234 . S
O961 Mn936 2.209 . S
O961 Mn937 2.215 . S
O961 C938 1.283 . S
O962 Mn936 2.094 . S
O962 C940 1.240 . S
O963 Mn937 2.117 . S
O963 C940 1.264 . S
C964 C957 1.403 . S
C964 C965 1.399 . S
C964 H970 0.929 . S
C965 C945 1.449 . S
C965 C964 1.399 . S
C965 H971 0.930 . S
H966 C946 0.931 . S
H967 C947 0.930 . S
H968 C955 0.931 . S
H969 C956 0.929 . S
H970 C964 0.929 . S
H971 C965 0.930 . S
Mn972 O977 2.095 . S
Mn972 O987 2.162 . S
Mn972 O988 2.297 . S
Mn972 O996 2.385 . S
Mn972 O997 2.209 . S
Mn972 O998 2.094 . S
Mn973 O978 2.121 . S
Mn973 N980 2.257 . S
Mn973 N989 2.282 . S
Mn973 O997 2.215 . S
Mn973 O999 2.117 . S
C974 O996 1.234 . S
C974 O997 1.283 . S
C975 O987 1.281 . S
C975 O988 1.236 . S
C976 O998 1.240 . S
C976 O999 1.264 . S
O977 Mn972 2.095 . S
O977 C986 1.250 . S
O978 Mn973 2.121 . S
O978 C986 1.258 . S
C979 N980 1.326 . S
C979 C983 1.460 . S
C979 H985 0.929 . S
N980 Mn973 2.257 . S
N980 C979 1.326 . S
N980 C984 1.362 . S
C981 C982 1.258 . S
C981 C984 1.431 . S
C981 C1001 1.449 . S
C982 C981 1.258 . S
C982 C983 1.477 . S
C982 H1002 0.931 . S
C983 C979 1.460 . S
C983 C982 1.477 . S
C983 H1003 0.930 . S
C984 N980 1.362 . S
C984 C981 1.431 . S
C984 C994 1.476 . S
H985 C979 0.929 . S
C986 O977 1.250 . S
C986 O978 1.258 . S
O987 Mn972 2.162 . S
O987 C975 1.281 . S
O988 Mn972 2.297 . S
O988 C975 1.236 . S
N989 Mn973 2.282 . S
N989 C990 1.328 . S
N989 C994 1.318 . S
C990 N989 1.328 . S
C990 C991 1.457 . S
C990 H995 0.929 . S
C991 C990 1.457 . S
C991 C992 1.291 . S
C991 H1004 0.931 . S
C992 C991 1.291 . S
C992 C993 1.373 . S
C992 H1005 0.929 . S
C993 C992 1.373 . S
C993 C994 1.396 . S
C993 C1000 1.403 . S
C994 C984 1.476 . S
C994 N989 1.318 . S
C994 C993 1.396 . S
H995 C990 0.929 . S
O996 Mn972 2.385 . S
O996 C974 1.234 . S
O997 Mn972 2.209 . S
O997 Mn973 2.215 . S
O997 C974 1.283 . S
O998 Mn972 2.094 . S
O998 C976 1.240 . S
O999 Mn973 2.117 . S
O999 C976 1.264 . S
C1000 C993 1.403 . S
C1000 C1001 1.399 . S
C1000 H1006 0.929 . S
C1001 C981 1.449 . S
C1001 C1000 1.399 . S
C1001 H1007 0.930 . S
H1002 C982 0.931 . S
H1003 C983 0.930 . S
H1004 C991 0.931 . S
H1005 C992 0.929 . S
H1006 C1000 0.929 . S
H1007 C1001 0.930 . S
Mn1008 O1013 2.095 . S
Mn1008 O1023 2.162 . S
Mn1008 O1024 2.297 . S
Mn1008 O1032 2.385 . S
Mn1008 O1033 2.209 . S
Mn1008 O1034 2.094 . S
Mn1009 O1014 2.121 . S
Mn1009 N1016 2.257 . S
Mn1009 N1025 2.282 . S
Mn1009 O1033 2.215 . S
Mn1009 O1035 2.117 . S
C1010 O1032 1.234 . S
C1010 O1033 1.283 . S
C1011 O1023 1.281 . S
C1011 O1024 1.236 . S
C1012 O1034 1.240 . S
C1012 O1035 1.264 . S
O1013 Mn1008 2.095 . S
O1013 C1022 1.250 . S
O1014 Mn1009 2.121 . S
O1014 C1022 1.258 . S
C1015 N1016 1.326 . S
C1015 C1019 1.460 . S
C1015 H1021 0.929 . S
N1016 Mn1009 2.257 . S
N1016 C1015 1.326 . S
N1016 C1020 1.362 . S
C1017 C1018 1.258 . S
C1017 C1020 1.431 . S
C1017 C1037 1.449 . S
C1018 C1017 1.258 . S
C1018 C1019 1.477 . S
C1018 H1038 0.931 . S
C1019 C1015 1.460 . S
C1019 C1018 1.477 . S
C1019 H1039 0.930 . S
C1020 N1016 1.362 . S
C1020 C1017 1.431 . S
C1020 C1030 1.476 . S
H1021 C1015 0.929 . S
C1022 O1013 1.250 . S
C1022 O1014 1.258 . S
O1023 Mn1008 2.162 . S
O1023 C1011 1.281 . S
O1024 Mn1008 2.297 . S
O1024 C1011 1.236 . S
N1025 Mn1009 2.282 . S
N1025 C1026 1.328 . S
N1025 C1030 1.318 . S
C1026 N1025 1.328 . S
C1026 C1027 1.457 . S
C1026 H1031 0.929 . S
C1027 C1026 1.457 . S
C1027 C1028 1.291 . S
C1027 H1040 0.931 . S
C1028 C1027 1.291 . S
C1028 C1029 1.373 . S
C1028 H1041 0.929 . S
C1029 C1028 1.373 . S
C1029 C1030 1.396 . S
C1029 C1036 1.403 . S
C1030 C1020 1.476 . S
C1030 N1025 1.318 . S
C1030 C1029 1.396 . S
H1031 C1026 0.929 . S
O1032 Mn1008 2.385 . S
O1032 C1010 1.234 . S
O1033 Mn1008 2.209 . S
O1033 Mn1009 2.215 . S
O1033 C1010 1.283 . S
O1034 Mn1008 2.094 . S
O1034 C1012 1.240 . S
O1035 Mn1009 2.117 . S
O1035 C1012 1.264 . S
C1036 C1029 1.403 . S
C1036 C1037 1.399 . S
C1036 H1042 0.929 . S
C1037 C1017 1.449 . S
C1037 C1036 1.399 . S
C1037 H1043 0.930 . S
H1038 C1018 0.931 . S
H1039 C1019 0.930 . S
H1040 C1027 0.931 . S
H1041 C1028 0.929 . S
H1042 C1036 0.929 . S
H1043 C1037 0.930 . S
Mn1044 O1049 2.095 . S
Mn1044 O1059 2.162 . S
Mn1044 O1060 2.297 . S
Mn1044 O1068 2.385 . S
Mn1044 O1069 2.209 . S
Mn1044 O1070 2.094 . S
Mn1045 O1050 2.121 . S
Mn1045 N1052 2.257 . S
Mn1045 N1061 2.282 . S
Mn1045 O1069 2.215 . S
Mn1045 O1071 2.117 . S
C1046 O1068 1.234 . S
C1046 O1069 1.283 . S
C1047 O1059 1.281 . S
C1047 O1060 1.236 . S
C1048 O1070 1.240 . S
C1048 O1071 1.264 . S
O1049 Mn1044 2.095 . S
O1049 C1058 1.250 . S
O1050 Mn1045 2.121 . S
O1050 C1058 1.258 . S
C1051 N1052 1.326 . S
C1051 C1055 1.460 . S
C1051 H1057 0.929 . S
N1052 Mn1045 2.257 . S
N1052 C1051 1.326 . S
N1052 C1056 1.362 . S
C1053 C1054 1.258 . S
C1053 C1056 1.431 . S
C1053 C1073 1.449 . S
C1054 C1053 1.258 . S
C1054 C1055 1.477 . S
C1054 H1074 0.931 . S
C1055 C1051 1.460 . S
C1055 C1054 1.477 . S
C1055 H1075 0.930 . S
C1056 N1052 1.362 . S
C1056 C1053 1.431 . S
C1056 C1066 1.476 . S
H1057 C1051 0.929 . S
C1058 O1049 1.250 . S
C1058 O1050 1.258 . S
O1059 Mn1044 2.162 . S
O1059 C1047 1.281 . S
O1060 Mn1044 2.297 . S
O1060 C1047 1.236 . S
N1061 Mn1045 2.282 . S
N1061 C1062 1.328 . S
N1061 C1066 1.318 . S
C1062 N1061 1.328 . S
C1062 C1063 1.457 . S
C1062 H1067 0.929 . S
C1063 C1062 1.457 . S
C1063 C1064 1.291 . S
C1063 H1076 0.931 . S
C1064 C1063 1.291 . S
C1064 C1065 1.373 . S
C1064 H1077 0.929 . S
C1065 C1064 1.373 . S
C1065 C1066 1.396 . S
C1065 C1072 1.403 . S
C1066 C1056 1.476 . S
C1066 N1061 1.318 . S
C1066 C1065 1.396 . S
H1067 C1062 0.929 . S
O1068 Mn1044 2.385 . S
O1068 C1046 1.234 . S
O1069 Mn1044 2.209 . S
O1069 Mn1045 2.215 . S
O1069 C1046 1.283 . S
O1070 Mn1044 2.094 . S
O1070 C1048 1.240 . S
O1071 Mn1045 2.117 . S
O1071 C1048 1.264 . S
C1072 C1065 1.403 . S
C1072 C1073 1.399 . S
C1072 H1078 0.929 . S
C1073 C1053 1.449 . S
C1073 C1072 1.399 . S
C1073 H1079 0.930 . S
H1074 C1054 0.931 . S
H1075 C1055 0.930 . S
H1076 C1063 0.931 . S
H1077 C1064 0.929 . S
H1078 C1072 0.929 . S
H1079 C1073 0.930 . S
Mn1080 O1085 2.095 . S
Mn1080 O1095 2.162 . S
Mn1080 O1096 2.297 . S
Mn1080 O1104 2.385 . S
Mn1080 O1105 2.209 . S
Mn1080 O1106 2.094 . S
Mn1081 O1086 2.121 . S
Mn1081 N1088 2.257 . S
Mn1081 N1097 2.282 . S
Mn1081 O1105 2.215 . S
Mn1081 O1107 2.117 . S
C1082 O1104 1.234 . S
C1082 O1105 1.283 . S
C1083 O1095 1.281 . S
C1083 O1096 1.236 . S
C1084 O1106 1.240 . S
C1084 O1107 1.264 . S
O1085 Mn1080 2.095 . S
O1085 C1094 1.250 . S
O1086 Mn1081 2.121 . S
O1086 C1094 1.258 . S
C1087 N1088 1.326 . S
C1087 C1091 1.460 . S
C1087 H1093 0.929 . S
N1088 Mn1081 2.257 . S
N1088 C1087 1.326 . S
N1088 C1092 1.362 . S
C1089 C1090 1.258 . S
C1089 C1092 1.431 . S
C1089 C1109 1.449 . S
C1090 C1089 1.258 . S
C1090 C1091 1.477 . S
C1090 H1110 0.931 . S
C1091 C1087 1.460 . S
C1091 C1090 1.477 . S
C1091 H1111 0.930 . S
C1092 N1088 1.362 . S
C1092 C1089 1.431 . S
C1092 C1102 1.476 . S
H1093 C1087 0.929 . S
C1094 O1085 1.250 . S
C1094 O1086 1.258 . S
O1095 Mn1080 2.162 . S
O1095 C1083 1.281 . S
O1096 Mn1080 2.297 . S
O1096 C1083 1.236 . S
N1097 Mn1081 2.282 . S
N1097 C1098 1.328 . S
N1097 C1102 1.318 . S
C1098 N1097 1.328 . S
C1098 C1099 1.457 . S
C1098 H1103 0.929 . S
C1099 C1098 1.457 . S
C1099 C1100 1.291 . S
C1099 H1112 0.931 . S
C1100 C1099 1.291 . S
C1100 C1101 1.373 . S
C1100 H1113 0.929 . S
C1101 C1100 1.373 . S
C1101 C1102 1.396 . S
C1101 C1108 1.403 . S
C1102 C1092 1.476 . S
C1102 N1097 1.318 . S
C1102 C1101 1.396 . S
H1103 C1098 0.929 . S
O1104 Mn1080 2.385 . S
O1104 C1082 1.234 . S
O1105 Mn1080 2.209 . S
O1105 Mn1081 2.215 . S
O1105 C1082 1.283 . S
O1106 Mn1080 2.094 . S
O1106 C1084 1.240 . S
O1107 Mn1081 2.117 . S
O1107 C1084 1.264 . S
C1108 C1101 1.403 . S
C1108 C1109 1.399 . S
C1108 H1114 0.929 . S
C1109 C1089 1.449 . S
C1109 C1108 1.399 . S
C1109 H1115 0.930 . S
H1110 C1090 0.931 . S
H1111 C1091 0.930 . S
H1112 C1099 0.931 . S
H1113 C1100 0.929 . S
H1114 C1108 0.929 . S
H1115 C1109 0.930 . S
Mn1116 O1121 2.095 . S
Mn1116 O1131 2.162 . S
Mn1116 O1132 2.297 . S
Mn1116 O1140 2.385 . S
Mn1116 O1141 2.209 . S
Mn1116 O1142 2.094 . S
Mn1117 O1122 2.121 . S
Mn1117 N1124 2.257 . S
Mn1117 N1133 2.282 . S
Mn1117 O1141 2.215 . S
Mn1117 O1143 2.117 . S
C1118 O1140 1.234 . S
C1118 O1141 1.283 . S
C1119 O1131 1.281 . S
C1119 O1132 1.236 . S
C1120 O1142 1.240 . S
C1120 O1143 1.264 . S
O1121 Mn1116 2.095 . S
O1121 C1130 1.250 . S
O1122 Mn1117 2.121 . S
O1122 C1130 1.258 . S
C1123 N1124 1.326 . S
C1123 C1127 1.460 . S
C1123 H1129 0.929 . S
N1124 Mn1117 2.257 . S
N1124 C1123 1.326 . S
N1124 C1128 1.362 . S
C1125 C1126 1.258 . S
C1125 C1128 1.431 . S
C1125 C1145 1.449 . S
C1126 C1125 1.258 . S
C1126 C1127 1.477 . S
C1126 H1146 0.931 . S
C1127 C1123 1.460 . S
C1127 C1126 1.477 . S
C1127 H1147 0.930 . S
C1128 N1124 1.362 . S
C1128 C1125 1.431 . S
C1128 C1138 1.476 . S
H1129 C1123 0.929 . S
C1130 O1121 1.250 . S
C1130 O1122 1.258 . S
O1131 Mn1116 2.162 . S
O1131 C1119 1.281 . S
O1132 Mn1116 2.297 . S
O1132 C1119 1.236 . S
N1133 Mn1117 2.282 . S
N1133 C1134 1.328 . S
N1133 C1138 1.318 . S
C1134 N1133 1.328 . S
C1134 C1135 1.457 . S
C1134 H1139 0.929 . S
C1135 C1134 1.457 . S
C1135 C1136 1.291 . S
C1135 H1148 0.931 . S
C1136 C1135 1.291 . S
C1136 C1137 1.373 . S
C1136 H1149 0.929 . S
C1137 C1136 1.373 . S
C1137 C1138 1.396 . S
C1137 C1144 1.403 . S
C1138 C1128 1.476 . S
C1138 N1133 1.318 . S
C1138 C1137 1.396 . S
H1139 C1134 0.929 . S
O1140 Mn1116 2.385 . S
O1140 C1118 1.234 . S
O1141 Mn1116 2.209 . S
O1141 Mn1117 2.215 . S
O1141 C1118 1.283 . S
O1142 Mn1116 2.094 . S
O1142 C1120 1.240 . S
O1143 Mn1117 2.117 . S
O1143 C1120 1.264 . S
C1144 C1137 1.403 . S
C1144 C1145 1.399 . S
C1144 H1150 0.929 . S
C1145 C1125 1.449 . S
C1145 C1144 1.399 . S
C1145 H1151 0.930 . S
H1146 C1126 0.931 . S
H1147 C1127 0.930 . S
H1148 C1135 0.931 . S
H1149 C1136 0.929 . S
H1150 C1144 0.929 . S
H1151 C1145 0.930 . S
Mn1152 O1157 2.095 . S
Mn1152 O1167 2.162 . S
Mn1152 O1168 2.297 . S
Mn1152 O1176 2.385 . S
Mn1152 O1177 2.209 . S
Mn1152 O1178 2.094 . S
Mn1153 O1158 2.121 . S
Mn1153 N1160 2.257 . S
Mn1153 N1169 2.282 . S
Mn1153 O1177 2.215 . S
Mn1153 O1179 2.117 . S
C1154 O1176 1.234 . S
C1154 O1177 1.283 . S
C1155 O1167 1.281 . S
C1155 O1168 1.236 . S
C1156 O1178 1.240 . S
C1156 O1179 1.264 . S
O1157 Mn1152 2.095 . S
O1157 C1166 1.250 . S
O1158 Mn1153 2.121 . S
O1158 C1166 1.258 . S
C1159 N1160 1.326 . S
C1159 C1163 1.460 . S
C1159 H1165 0.929 . S
N1160 Mn1153 2.257 . S
N1160 C1159 1.326 . S
N1160 C1164 1.362 . S
C1161 C1162 1.258 . S
C1161 C1164 1.431 . S
C1161 C1181 1.449 . S
C1162 C1161 1.258 . S
C1162 C1163 1.477 . S
C1162 H1182 0.931 . S
C1163 C1159 1.460 . S
C1163 C1162 1.477 . S
C1163 H1183 0.930 . S
C1164 N1160 1.362 . S
C1164 C1161 1.431 . S
C1164 C1174 1.476 . S
H1165 C1159 0.929 . S
C1166 O1157 1.250 . S
C1166 O1158 1.258 . S
O1167 Mn1152 2.162 . S
O1167 C1155 1.281 . S
O1168 Mn1152 2.297 . S
O1168 C1155 1.236 . S
N1169 Mn1153 2.282 . S
N1169 C1170 1.328 . S
N1169 C1174 1.318 . S
C1170 N1169 1.328 . S
C1170 C1171 1.457 . S
C1170 H1175 0.929 . S
C1171 C1170 1.457 . S
C1171 C1172 1.291 . S
C1171 H1184 0.931 . S
C1172 C1171 1.291 . S
C1172 C1173 1.373 . S
C1172 H1185 0.929 . S
C1173 C1172 1.373 . S
C1173 C1174 1.396 . S
C1173 C1180 1.403 . S
C1174 C1164 1.476 . S
C1174 N1169 1.318 . S
C1174 C1173 1.396 . S
H1175 C1170 0.929 . S
O1176 Mn1152 2.385 . S
O1176 C1154 1.234 . S
O1177 Mn1152 2.209 . S
O1177 Mn1153 2.215 . S
O1177 C1154 1.283 . S
O1178 Mn1152 2.094 . S
O1178 C1156 1.240 . S
O1179 Mn1153 2.117 . S
O1179 C1156 1.264 . S
C1180 C1173 1.403 . S
C1180 C1181 1.399 . S
C1180 H1186 0.929 . S
C1181 C1161 1.449 . S
C1181 C1180 1.399 . S
C1181 H1187 0.930 . S
H1182 C1162 0.931 . S
H1183 C1163 0.930 . S
H1184 C1171 0.931 . S
H1185 C1172 0.929 . S
H1186 C1180 0.929 . S
H1187 C1181 0.930 . S
Mn1188 O1193 2.095 . S
Mn1188 O1203 2.162 . S
Mn1188 O1204 2.297 . S
Mn1188 O1212 2.385 . S
Mn1188 O1213 2.209 . S
Mn1188 O1214 2.094 . S
Mn1189 O1194 2.121 . S
Mn1189 N1196 2.257 . S
Mn1189 N1205 2.282 . S
Mn1189 O1213 2.215 . S
Mn1189 O1215 2.117 . S
C1190 O1212 1.234 . S
C1190 O1213 1.283 . S
C1191 O1203 1.281 . S
C1191 O1204 1.236 . S
C1192 O1214 1.240 . S
C1192 O1215 1.264 . S
O1193 Mn1188 2.095 . S
O1193 C1202 1.250 . S
O1194 Mn1189 2.121 . S
O1194 C1202 1.258 . S
C1195 N1196 1.326 . S
C1195 C1199 1.460 . S
C1195 H1201 0.929 . S
N1196 Mn1189 2.257 . S
N1196 C1195 1.326 . S
N1196 C1200 1.362 . S
C1197 C1198 1.258 . S
C1197 C1200 1.431 . S
C1197 C1217 1.449 . S
C1198 C1197 1.258 . S
C1198 C1199 1.477 . S
C1198 H1218 0.931 . S
C1199 C1195 1.460 . S
C1199 C1198 1.477 . S
C1199 H1219 0.930 . S
C1200 N1196 1.362 . S
C1200 C1197 1.431 . S
C1200 C1210 1.476 . S
H1201 C1195 0.929 . S
C1202 O1193 1.250 . S
C1202 O1194 1.258 . S
O1203 Mn1188 2.162 . S
O1203 C1191 1.281 . S
O1204 Mn1188 2.297 . S
O1204 C1191 1.236 . S
N1205 Mn1189 2.282 . S
N1205 C1206 1.328 . S
N1205 C1210 1.318 . S
C1206 N1205 1.328 . S
C1206 C1207 1.457 . S
C1206 H1211 0.929 . S
C1207 C1206 1.457 . S
C1207 C1208 1.291 . S
C1207 H1220 0.931 . S
C1208 C1207 1.291 . S
C1208 C1209 1.373 . S
C1208 H1221 0.929 . S
C1209 C1208 1.373 . S
C1209 C1210 1.396 . S
C1209 C1216 1.403 . S
C1210 C1200 1.476 . S
C1210 N1205 1.318 . S
C1210 C1209 1.396 . S
H1211 C1206 0.929 . S
O1212 Mn1188 2.385 . S
O1212 C1190 1.234 . S
O1213 Mn1188 2.209 . S
O1213 Mn1189 2.215 . S
O1213 C1190 1.283 . S
O1214 Mn1188 2.094 . S
O1214 C1192 1.240 . S
O1215 Mn1189 2.117 . S
O1215 C1192 1.264 . S
C1216 C1209 1.403 . S
C1216 C1217 1.399 . S
C1216 H1222 0.929 . S
C1217 C1197 1.449 . S
C1217 C1216 1.399 . S
C1217 H1223 0.930 . S
H1218 C1198 0.931 . S
H1219 C1199 0.930 . S
H1220 C1207 0.931 . S
H1221 C1208 0.929 . S
H1222 C1216 0.929 . S
H1223 C1217 0.930 . S
Mn1224 O1229 2.095 . S
Mn1224 O1239 2.162 . S
Mn1224 O1240 2.297 . S
Mn1224 O1248 2.385 . S
Mn1224 O1249 2.209 . S
Mn1224 O1250 2.094 . S
Mn1225 O1230 2.121 . S
Mn1225 N1232 2.257 . S
Mn1225 N1241 2.282 . S
Mn1225 O1249 2.215 . S
Mn1225 O1251 2.117 . S
C1226 O1248 1.234 . S
C1226 O1249 1.283 . S
C1227 O1239 1.281 . S
C1227 O1240 1.236 . S
C1228 O1250 1.240 . S
C1228 O1251 1.264 . S
O1229 Mn1224 2.095 . S
O1229 C1238 1.250 . S
O1230 Mn1225 2.121 . S
O1230 C1238 1.258 . S
C1231 N1232 1.326 . S
C1231 C1235 1.460 . S
C1231 H1237 0.929 . S
N1232 Mn1225 2.257 . S
N1232 C1231 1.326 . S
N1232 C1236 1.362 . S
C1233 C1234 1.258 . S
C1233 C1236 1.431 . S
C1233 C1253 1.449 . S
C1234 C1233 1.258 . S
C1234 C1235 1.477 . S
C1234 H1254 0.931 . S
C1235 C1231 1.460 . S
C1235 C1234 1.477 . S
C1235 H1255 0.930 . S
C1236 N1232 1.362 . S
C1236 C1233 1.431 . S
C1236 C1246 1.476 . S
H1237 C1231 0.929 . S
C1238 O1229 1.250 . S
C1238 O1230 1.258 . S
O1239 Mn1224 2.162 . S
O1239 C1227 1.281 . S
O1240 Mn1224 2.297 . S
O1240 C1227 1.236 . S
N1241 Mn1225 2.282 . S
N1241 C1242 1.328 . S
N1241 C1246 1.318 . S
C1242 N1241 1.328 . S
C1242 C1243 1.457 . S
C1242 H1247 0.929 . S
C1243 C1242 1.457 . S
C1243 C1244 1.291 . S
C1243 H1256 0.931 . S
C1244 C1243 1.291 . S
C1244 C1245 1.373 . S
C1244 H1257 0.929 . S
C1245 C1244 1.373 . S
C1245 C1246 1.396 . S
C1245 C1252 1.403 . S
C1246 C1236 1.476 . S
C1246 N1241 1.318 . S
C1246 C1245 1.396 . S
H1247 C1242 0.929 . S
O1248 Mn1224 2.385 . S
O1248 C1226 1.234 . S
O1249 Mn1224 2.209 . S
O1249 Mn1225 2.215 . S
O1249 C1226 1.283 . S
O1250 Mn1224 2.094 . S
O1250 C1228 1.240 . S
O1251 Mn1225 2.117 . S
O1251 C1228 1.264 . S
C1252 C1245 1.403 . S
C1252 C1253 1.399 . S
C1252 H1258 0.929 . S
C1253 C1233 1.449 . S
C1253 C1252 1.399 . S
C1253 H1259 0.930 . S
H1254 C1234 0.931 . S
H1255 C1235 0.930 . S
H1256 C1243 0.931 . S
H1257 C1244 0.929 . S
H1258 C1252 0.929 . S
H1259 C1253 0.930 . S
Mn1260 O1265 2.095 . S
Mn1260 O1275 2.162 . S
Mn1260 O1276 2.297 . S
Mn1260 O1284 2.385 . S
Mn1260 O1285 2.209 . S
Mn1260 O1286 2.094 . S
Mn1261 O1266 2.121 . S
Mn1261 N1268 2.257 . S
Mn1261 N1277 2.282 . S
Mn1261 O1285 2.215 . S
Mn1261 O1287 2.117 . S
C1262 O1284 1.234 . S
C1262 O1285 1.283 . S
C1263 O1275 1.281 . S
C1263 O1276 1.236 . S
C1264 O1286 1.240 . S
C1264 O1287 1.264 . S
O1265 Mn1260 2.095 . S
O1265 C1274 1.250 . S
O1266 Mn1261 2.121 . S
O1266 C1274 1.258 . S
C1267 N1268 1.326 . S
C1267 C1271 1.460 . S
C1267 H1273 0.929 . S
N1268 Mn1261 2.257 . S
N1268 C1267 1.326 . S
N1268 C1272 1.362 . S
C1269 C1270 1.258 . S
C1269 C1272 1.431 . S
C1269 C1289 1.449 . S
C1270 C1269 1.258 . S
C1270 C1271 1.477 . S
C1270 H1290 0.931 . S
C1271 C1267 1.460 . S
C1271 C1270 1.477 . S
C1271 H1291 0.930 . S
C1272 N1268 1.362 . S
C1272 C1269 1.431 . S
C1272 C1282 1.476 . S
H1273 C1267 0.929 . S
C1274 O1265 1.250 . S
C1274 O1266 1.258 . S
O1275 Mn1260 2.162 . S
O1275 C1263 1.281 . S
O1276 Mn1260 2.297 . S
O1276 C1263 1.236 . S
N1277 Mn1261 2.282 . S
N1277 C1278 1.328 . S
N1277 C1282 1.318 . S
C1278 N1277 1.328 . S
C1278 C1279 1.457 . S
C1278 H1283 0.929 . S
C1279 C1278 1.457 . S
C1279 C1280 1.291 . S
C1279 H1292 0.931 . S
C1280 C1279 1.291 . S
C1280 C1281 1.373 . S
C1280 H1293 0.929 . S
C1281 C1280 1.373 . S
C1281 C1282 1.396 . S
C1281 C1288 1.403 . S
C1282 C1272 1.476 . S
C1282 N1277 1.318 . S
C1282 C1281 1.396 . S
H1283 C1278 0.929 . S
O1284 Mn1260 2.385 . S
O1284 C1262 1.234 . S
O1285 Mn1260 2.209 . S
O1285 Mn1261 2.215 . S
O1285 C1262 1.283 . S
O1286 Mn1260 2.094 . S
O1286 C1264 1.240 . S
O1287 Mn1261 2.117 . S
O1287 C1264 1.264 . S
C1288 C1281 1.403 . S
C1288 C1289 1.399 . S
C1288 H1294 0.929 . S
C1289 C1269 1.449 . S
C1289 C1288 1.399 . S
C1289 H1295 0.930 . S
H1290 C1270 0.931 . S
H1291 C1271 0.930 . S
H1292 C1279 0.931 . S
H1293 C1280 0.929 . S
H1294 C1288 0.929 . S
H1295 C1289 0.930 . S
Mn1296 O1301 2.095 . S
Mn1296 O1311 2.162 . S
Mn1296 O1312 2.297 . S
Mn1296 O1320 2.385 . S
Mn1296 O1321 2.209 . S
Mn1296 O1322 2.094 . S
Mn1297 O1302 2.121 . S
Mn1297 N1304 2.257 . S
Mn1297 N1313 2.282 . S
Mn1297 O1321 2.215 . S
Mn1297 O1323 2.117 . S
C1298 O1320 1.234 . S
C1298 O1321 1.283 . S
C1299 O1311 1.281 . S
C1299 O1312 1.236 . S
C1300 O1322 1.240 . S
C1300 O1323 1.264 . S
O1301 Mn1296 2.095 . S
O1301 C1310 1.250 . S
O1302 Mn1297 2.121 . S
O1302 C1310 1.258 . S
C1303 N1304 1.326 . S
C1303 C1307 1.460 . S
C1303 H1309 0.929 . S
N1304 Mn1297 2.257 . S
N1304 C1303 1.326 . S
N1304 C1308 1.362 . S
C1305 C1306 1.258 . S
C1305 C1308 1.431 . S
C1305 C1325 1.449 . S
C1306 C1305 1.258 . S
C1306 C1307 1.477 . S
C1306 H1326 0.931 . S
C1307 C1303 1.460 . S
C1307 C1306 1.477 . S
C1307 H1327 0.930 . S
C1308 N1304 1.362 . S
C1308 C1305 1.431 . S
C1308 C1318 1.476 . S
H1309 C1303 0.929 . S
C1310 O1301 1.250 . S
C1310 O1302 1.258 . S
O1311 Mn1296 2.162 . S
O1311 C1299 1.281 . S
O1312 Mn1296 2.297 . S
O1312 C1299 1.236 . S
N1313 Mn1297 2.282 . S
N1313 C1314 1.328 . S
N1313 C1318 1.318 . S
C1314 N1313 1.328 . S
C1314 C1315 1.457 . S
C1314 H1319 0.929 . S
C1315 C1314 1.457 . S
C1315 C1316 1.291 . S
C1315 H1328 0.931 . S
C1316 C1315 1.291 . S
C1316 C1317 1.373 . S
C1316 H1329 0.929 . S
C1317 C1316 1.373 . S
C1317 C1318 1.396 . S
C1317 C1324 1.403 . S
C1318 C1308 1.476 . S
C1318 N1313 1.318 . S
C1318 C1317 1.396 . S
H1319 C1314 0.929 . S
O1320 Mn1296 2.385 . S
O1320 C1298 1.234 . S
O1321 Mn1296 2.209 . S
O1321 Mn1297 2.215 . S
O1321 C1298 1.283 . S
O1322 Mn1296 2.094 . S
O1322 C1300 1.240 . S
O1323 Mn1297 2.117 . S
O1323 C1300 1.264 . S
C1324 C1317 1.403 . S
C1324 C1325 1.399 . S
C1324 H1330 0.929 . S
C1325 C1305 1.449 . S
C1325 C1324 1.399 . S
C1325 H1331 0.930 . S
H1326 C1306 0.931 . S
H1327 C1307 0.930 . S
H1328 C1315 0.931 . S
H1329 C1316 0.929 . S
H1330 C1324 0.929 . S
H1331 C1325 0.930 . S
Mn1332 O1337 2.095 . S
Mn1332 O1347 2.162 . S
Mn1332 O1348 2.297 . S
Mn1332 O1356 2.385 . S
Mn1332 O1357 2.209 . S
Mn1332 O1358 2.094 . S
Mn1333 O1338 2.121 . S
Mn1333 N1340 2.257 . S
Mn1333 N1349 2.282 . S
Mn1333 O1357 2.215 . S
Mn1333 O1359 2.117 . S
C1334 O1356 1.234 . S
C1334 O1357 1.283 . S
C1335 O1347 1.281 . S
C1335 O1348 1.236 . S
C1336 O1358 1.240 . S
C1336 O1359 1.264 . S
O1337 Mn1332 2.095 . S
O1337 C1346 1.250 . S
O1338 Mn1333 2.121 . S
O1338 C1346 1.258 . S
C1339 N1340 1.326 . S
C1339 C1343 1.460 . S
C1339 H1345 0.929 . S
N1340 Mn1333 2.257 . S
N1340 C1339 1.326 . S
N1340 C1344 1.362 . S
C1341 C1342 1.258 . S
C1341 C1344 1.431 . S
C1341 C1361 1.449 . S
C1342 C1341 1.258 . S
C1342 C1343 1.477 . S
C1342 H1362 0.931 . S
C1343 C1339 1.460 . S
C1343 C1342 1.477 . S
C1343 H1363 0.930 . S
C1344 N1340 1.362 . S
C1344 C1341 1.431 . S
C1344 C1354 1.476 . S
H1345 C1339 0.929 . S
C1346 O1337 1.250 . S
C1346 O1338 1.258 . S
O1347 Mn1332 2.162 . S
O1347 C1335 1.281 . S
O1348 Mn1332 2.297 . S
O1348 C1335 1.236 . S
N1349 Mn1333 2.282 . S
N1349 C1350 1.328 . S
N1349 C1354 1.318 . S
C1350 N1349 1.328 . S
C1350 C1351 1.457 . S
C1350 H1355 0.929 . S
C1351 C1350 1.457 . S
C1351 C1352 1.291 . S
C1351 H1364 0.931 . S
C1352 C1351 1.291 . S
C1352 C1353 1.373 . S
C1352 H1365 0.929 . S
C1353 C1352 1.373 . S
C1353 C1354 1.396 . S
C1353 C1360 1.403 . S
C1354 C1344 1.476 . S
C1354 N1349 1.318 . S
C1354 C1353 1.396 . S
H1355 C1350 0.929 . S
O1356 Mn1332 2.385 . S
O1356 C1334 1.234 . S
O1357 Mn1332 2.209 . S
O1357 Mn1333 2.215 . S
O1357 C1334 1.283 . S
O1358 Mn1332 2.094 . S
O1358 C1336 1.240 . S
O1359 Mn1333 2.117 . S
O1359 C1336 1.264 . S
C1360 C1353 1.403 . S
C1360 C1361 1.399 . S
C1360 H1366 0.929 . S
C1361 C1341 1.449 . S
C1361 C1360 1.399 . S
C1361 H1367 0.930 . S
H1362 C1342 0.931 . S
H1363 C1343 0.930 . S
H1364 C1351 0.931 . S
H1365 C1352 0.929 . S
H1366 C1360 0.929 . S
H1367 C1361 0.930 . S
Mn1368 O1373 2.095 . S
Mn1368 O1383 2.162 . S
Mn1368 O1384 2.297 . S
Mn1368 O1392 2.385 . S
Mn1368 O1393 2.209 . S
Mn1368 O1394 2.094 . S
Mn1369 O1374 2.121 . S
Mn1369 N1376 2.257 . S
Mn1369 N1385 2.282 . S
Mn1369 O1393 2.215 . S
Mn1369 O1395 2.117 . S
C1370 O1392 1.234 . S
C1370 O1393 1.283 . S
C1371 O1383 1.281 . S
C1371 O1384 1.236 . S
C1372 O1394 1.240 . S
C1372 O1395 1.264 . S
O1373 Mn1368 2.095 . S
O1373 C1382 1.250 . S
O1374 Mn1369 2.121 . S
O1374 C1382 1.258 . S
C1375 N1376 1.326 . S
C1375 C1379 1.460 . S
C1375 H1381 0.929 . S
N1376 Mn1369 2.257 . S
N1376 C1375 1.326 . S
N1376 C1380 1.362 . S
C1377 C1378 1.258 . S
C1377 C1380 1.431 . S
C1377 C1397 1.449 . S
C1378 C1377 1.258 . S
C1378 C1379 1.477 . S
C1378 H1398 0.931 . S
C1379 C1375 1.460 . S
C1379 C1378 1.477 . S
C1379 H1399 0.930 . S
C1380 N1376 1.362 . S
C1380 C1377 1.431 . S
C1380 C1390 1.476 . S
H1381 C1375 0.929 . S
C1382 O1373 1.250 . S
C1382 O1374 1.258 . S
O1383 Mn1368 2.162 . S
O1383 C1371 1.281 . S
O1384 Mn1368 2.297 . S
O1384 C1371 1.236 . S
N1385 Mn1369 2.282 . S
N1385 C1386 1.328 . S
N1385 C1390 1.318 . S
C1386 N1385 1.328 . S
C1386 C1387 1.457 . S
C1386 H1391 0.929 . S
C1387 C1386 1.457 . S
C1387 C1388 1.291 . S
C1387 H1400 0.931 . S
C1388 C1387 1.291 . S
C1388 C1389 1.373 . S
C1388 H1401 0.929 . S
C1389 C1388 1.373 . S
C1389 C1390 1.396 . S
C1389 C1396 1.403 . S
C1390 C1380 1.476 . S
C1390 N1385 1.318 . S
C1390 C1389 1.396 . S
H1391 C1386 0.929 . S
O1392 Mn1368 2.385 . S
O1392 C1370 1.234 . S
O1393 Mn1368 2.209 . S
O1393 Mn1369 2.215 . S
O1393 C1370 1.283 . S
O1394 Mn1368 2.094 . S
O1394 C1372 1.240 . S
O1395 Mn1369 2.117 . S
O1395 C1372 1.264 . S
C1396 C1389 1.403 . S
C1396 C1397 1.399 . S
C1396 H1402 0.929 . S
C1397 C1377 1.449 . S
C1397 C1396 1.399 . S
C1397 H1403 0.930 . S
H1398 C1378 0.931 . S
H1399 C1379 0.930 . S
H1400 C1387 0.931 . S
H1401 C1388 0.929 . S
H1402 C1396 0.929 . S
H1403 C1397 0.930 . S
Mn1404 O1409 2.095 . S
Mn1404 O1419 2.162 . S
Mn1404 O1420 2.297 . S
Mn1404 O1428 2.385 . S
Mn1404 O1429 2.209 . S
Mn1404 O1430 2.094 . S
Mn1405 O1410 2.121 . S
Mn1405 N1412 2.257 . S
Mn1405 N1421 2.282 . S
Mn1405 O1429 2.215 . S
Mn1405 O1431 2.117 . S
C1406 O1428 1.234 . S
C1406 O1429 1.283 . S
C1407 O1419 1.281 . S
C1407 O1420 1.236 . S
C1408 O1430 1.240 . S
C1408 O1431 1.264 . S
O1409 Mn1404 2.095 . S
O1409 C1418 1.250 . S
O1410 Mn1405 2.121 . S
O1410 C1418 1.258 . S
C1411 N1412 1.326 . S
C1411 C1415 1.460 . S
C1411 H1417 0.929 . S
N1412 Mn1405 2.257 . S
N1412 C1411 1.326 . S
N1412 C1416 1.362 . S
C1413 C1414 1.258 . S
C1413 C1416 1.431 . S
C1413 C1433 1.449 . S
C1414 C1413 1.258 . S
C1414 C1415 1.477 . S
C1414 H1434 0.931 . S
C1415 C1411 1.460 . S
C1415 C1414 1.477 . S
C1415 H1435 0.930 . S
C1416 N1412 1.362 . S
C1416 C1413 1.431 . S
C1416 C1426 1.476 . S
H1417 C1411 0.929 . S
C1418 O1409 1.250 . S
C1418 O1410 1.258 . S
O1419 Mn1404 2.162 . S
O1419 C1407 1.281 . S
O1420 Mn1404 2.297 . S
O1420 C1407 1.236 . S
N1421 Mn1405 2.282 . S
N1421 C1422 1.328 . S
N1421 C1426 1.318 . S
C1422 N1421 1.328 . S
C1422 C1423 1.457 . S
C1422 H1427 0.929 . S
C1423 C1422 1.457 . S
C1423 C1424 1.291 . S
C1423 H1436 0.931 . S
C1424 C1423 1.291 . S
C1424 C1425 1.373 . S
C1424 H1437 0.929 . S
C1425 C1424 1.373 . S
C1425 C1426 1.396 . S
C1425 C1432 1.403 . S
C1426 C1416 1.476 . S
C1426 N1421 1.318 . S
C1426 C1425 1.396 . S
H1427 C1422 0.929 . S
O1428 Mn1404 2.385 . S
O1428 C1406 1.234 . S
O1429 Mn1404 2.209 . S
O1429 Mn1405 2.215 . S
O1429 C1406 1.283 . S
O1430 Mn1404 2.094 . S
O1430 C1408 1.240 . S
O1431 Mn1405 2.117 . S
O1431 C1408 1.264 . S
C1432 C1425 1.403 . S
C1432 C1433 1.399 . S
C1432 H1438 0.929 . S
C1433 C1413 1.449 . S
C1433 C1432 1.399 . S
C1433 H1439 0.930 . S
H1434 C1414 0.931 . S
H1435 C1415 0.930 . S
H1436 C1423 0.931 . S
H1437 C1424 0.929 . S
H1438 C1432 0.929 . S
H1439 C1433 0.930 . S
Mn1440 O1445 2.095 . S
Mn1440 O1455 2.162 . S
Mn1440 O1456 2.297 . S
Mn1440 O1464 2.385 . S
Mn1440 O1465 2.209 . S
Mn1440 O1466 2.094 . S
Mn1441 O1446 2.121 . S
Mn1441 N1448 2.257 . S
Mn1441 N1457 2.282 . S
Mn1441 O1465 2.215 . S
Mn1441 O1467 2.117 . S
C1442 O1464 1.234 . S
C1442 O1465 1.283 . S
C1443 O1455 1.281 . S
C1443 O1456 1.236 . S
C1444 O1466 1.240 . S
C1444 O1467 1.264 . S
O1445 Mn1440 2.095 . S
O1445 C1454 1.250 . S
O1446 Mn1441 2.121 . S
O1446 C1454 1.258 . S
C1447 N1448 1.326 . S
C1447 C1451 1.460 . S
C1447 H1453 0.929 . S
N1448 Mn1441 2.257 . S
N1448 C1447 1.326 . S
N1448 C1452 1.362 . S
C1449 C1450 1.258 . S
C1449 C1452 1.431 . S
C1449 C1469 1.449 . S
C1450 C1449 1.258 . S
C1450 C1451 1.477 . S
C1450 H1470 0.931 . S
C1451 C1447 1.460 . S
C1451 C1450 1.477 . S
C1451 H1471 0.930 . S
C1452 N1448 1.362 . S
C1452 C1449 1.431 . S
C1452 C1462 1.476 . S
H1453 C1447 0.929 . S
C1454 O1445 1.250 . S
C1454 O1446 1.258 . S
O1455 Mn1440 2.162 . S
O1455 C1443 1.281 . S
O1456 Mn1440 2.297 . S
O1456 C1443 1.236 . S
N1457 Mn1441 2.282 . S
N1457 C1458 1.328 . S
N1457 C1462 1.318 . S
C1458 N1457 1.328 . S
C1458 C1459 1.457 . S
C1458 H1463 0.929 . S
C1459 C1458 1.457 . S
C1459 C1460 1.291 . S
C1459 H1472 0.931 . S
C1460 C1459 1.291 . S
C1460 C1461 1.373 . S
C1460 H1473 0.929 . S
C1461 C1460 1.373 . S
C1461 C1462 1.396 . S
C1461 C1468 1.403 . S
C1462 C1452 1.476 . S
C1462 N1457 1.318 . S
C1462 C1461 1.396 . S
H1463 C1458 0.929 . S
O1464 Mn1440 2.385 . S
O1464 C1442 1.234 . S
O1465 Mn1440 2.209 . S
O1465 Mn1441 2.215 . S
O1465 C1442 1.283 . S
O1466 Mn1440 2.094 . S
O1466 C1444 1.240 . S
O1467 Mn1441 2.117 . S
O1467 C1444 1.264 . S
C1468 C1461 1.403 . S
C1468 C1469 1.399 . S
C1468 H1474 0.929 . S
C1469 C1449 1.449 . S
C1469 C1468 1.399 . S
C1469 H1475 0.930 . S
H1470 C1450 0.931 . S
H1471 C1451 0.930 . S
H1472 C1459 0.931 . S
H1473 C1460 0.929 . S
H1474 C1468 0.929 . S
H1475 C1469 0.930 . S
Mn1476 O1481 2.095 . S
Mn1476 O1491 2.162 . S
Mn1476 O1492 2.297 . S
Mn1476 O1500 2.385 . S
Mn1476 O1501 2.209 . S
Mn1476 O1502 2.094 . S
Mn1477 O1482 2.121 . S
Mn1477 N1484 2.257 . S
Mn1477 N1493 2.282 . S
Mn1477 O1501 2.215 . S
Mn1477 O1503 2.117 . S
C1478 O1500 1.234 . S
C1478 O1501 1.283 . S
C1479 O1491 1.281 . S
C1479 O1492 1.236 . S
C1480 O1502 1.240 . S
C1480 O1503 1.264 . S
O1481 Mn1476 2.095 . S
O1481 C1490 1.250 . S
O1482 Mn1477 2.121 . S
O1482 C1490 1.258 . S
C1483 N1484 1.326 . S
C1483 C1487 1.460 . S
C1483 H1489 0.929 . S
N1484 Mn1477 2.257 . S
N1484 C1483 1.326 . S
N1484 C1488 1.362 . S
C1485 C1486 1.258 . S
C1485 C1488 1.431 . S
C1485 C1505 1.449 . S
C1486 C1485 1.258 . S
C1486 C1487 1.477 . S
C1486 H1506 0.931 . S
C1487 C1483 1.460 . S
C1487 C1486 1.477 . S
C1487 H1507 0.930 . S
C1488 N1484 1.362 . S
C1488 C1485 1.431 . S
C1488 C1498 1.476 . S
H1489 C1483 0.929 . S
C1490 O1481 1.250 . S
C1490 O1482 1.258 . S
O1491 Mn1476 2.162 . S
O1491 C1479 1.281 . S
O1492 Mn1476 2.297 . S
O1492 C1479 1.236 . S
N1493 Mn1477 2.282 . S
N1493 C1494 1.328 . S
N1493 C1498 1.318 . S
C1494 N1493 1.328 . S
C1494 C1495 1.457 . S
C1494 H1499 0.929 . S
C1495 C1494 1.457 . S
C1495 C1496 1.291 . S
C1495 H1508 0.931 . S
C1496 C1495 1.291 . S
C1496 C1497 1.373 . S
C1496 H1509 0.929 . S
C1497 C1496 1.373 . S
C1497 C1498 1.396 . S
C1497 C1504 1.403 . S
C1498 C1488 1.476 . S
C1498 N1493 1.318 . S
C1498 C1497 1.396 . S
H1499 C1494 0.929 . S
O1500 Mn1476 2.385 . S
O1500 C1478 1.234 . S
O1501 Mn1476 2.209 . S
O1501 Mn1477 2.215 . S
O1501 C1478 1.283 . S
O1502 Mn1476 2.094 . S
O1502 C1480 1.240 . S
O1503 Mn1477 2.117 . S
O1503 C1480 1.264 . S
C1504 C1497 1.403 . S
C1504 C1505 1.399 . S
C1504 H1510 0.929 . S
C1505 C1485 1.449 . S
C1505 C1504 1.399 . S
C1505 H1511 0.930 . S
H1506 C1486 0.931 . S
H1507 C1487 0.930 . S
H1508 C1495 0.931 . S
H1509 C1496 0.929 . S
H1510 C1504 0.929 . S
H1511 C1505 0.930 . S
Mn1512 O1517 2.095 . S
Mn1512 O1527 2.162 . S
Mn1512 O1528 2.297 . S
Mn1512 O1536 2.385 . S
Mn1512 O1537 2.209 . S
Mn1512 O1538 2.094 . S
Mn1513 O1518 2.121 . S
Mn1513 N1520 2.257 . S
Mn1513 N1529 2.282 . S
Mn1513 O1537 2.215 . S
Mn1513 O1539 2.117 . S
C1514 O1536 1.234 . S
C1514 O1537 1.283 . S
C1515 O1527 1.281 . S
C1515 O1528 1.236 . S
C1516 O1538 1.240 . S
C1516 O1539 1.264 . S
O1517 Mn1512 2.095 . S
O1517 C1526 1.250 . S
O1518 Mn1513 2.121 . S
O1518 C1526 1.258 . S
C1519 N1520 1.326 . S
C1519 C1523 1.460 . S
C1519 H1525 0.929 . S
N1520 Mn1513 2.257 . S
N1520 C1519 1.326 . S
N1520 C1524 1.362 . S
C1521 C1522 1.258 . S
C1521 C1524 1.431 . S
C1521 C1541 1.449 . S
C1522 C1521 1.258 . S
C1522 C1523 1.477 . S
C1522 H1542 0.931 . S
C1523 C1519 1.460 . S
C1523 C1522 1.477 . S
C1523 H1543 0.930 . S
C1524 N1520 1.362 . S
C1524 C1521 1.431 . S
C1524 C1534 1.476 . S
H1525 C1519 0.929 . S
C1526 O1517 1.250 . S
C1526 O1518 1.258 . S
O1527 Mn1512 2.162 . S
O1527 C1515 1.281 . S
O1528 Mn1512 2.297 . S
O1528 C1515 1.236 . S
N1529 Mn1513 2.282 . S
N1529 C1530 1.328 . S
N1529 C1534 1.318 . S
C1530 N1529 1.328 . S
C1530 C1531 1.457 . S
C1530 H1535 0.929 . S
C1531 C1530 1.457 . S
C1531 C1532 1.291 . S
C1531 H1544 0.931 . S
C1532 C1531 1.291 . S
C1532 C1533 1.373 . S
C1532 H1545 0.929 . S
C1533 C1532 1.373 . S
C1533 C1534 1.396 . S
C1533 C1540 1.403 . S
C1534 C1524 1.476 . S
C1534 N1529 1.318 . S
C1534 C1533 1.396 . S
H1535 C1530 0.929 . S
O1536 Mn1512 2.385 . S
O1536 C1514 1.234 . S
O1537 Mn1512 2.209 . S
O1537 Mn1513 2.215 . S
O1537 C1514 1.283 . S
O1538 Mn1512 2.094 . S
O1538 C1516 1.240 . S
O1539 Mn1513 2.117 . S
O1539 C1516 1.264 . S
C1540 C1533 1.403 . S
C1540 C1541 1.399 . S
C1540 H1546 0.929 . S
C1541 C1521 1.449 . S
C1541 C1540 1.399 . S
C1541 H1547 0.930 . S
H1542 C1522 0.931 . S
H1543 C1523 0.930 . S
H1544 C1531 0.931 . S
H1545 C1532 0.929 . S
H1546 C1540 0.929 . S
H1547 C1541 0.930 . S
Mn1548 O1553 2.095 . S
Mn1548 O1563 2.162 . S
Mn1548 O1564 2.297 . S
Mn1548 O1572 2.385 . S
Mn1548 O1573 2.209 . S
Mn1548 O1574 2.094 . S
Mn1549 O1554 2.121 . S
Mn1549 N1556 2.257 . S
Mn1549 N1565 2.282 . S
Mn1549 O1573 2.215 . S
Mn1549 O1575 2.117 . S
C1550 O1572 1.234 . S
C1550 O1573 1.283 . S
C1551 O1563 1.281 . S
C1551 O1564 1.236 . S
C1552 O1574 1.240 . S
C1552 O1575 1.264 . S
O1553 Mn1548 2.095 . S
O1553 C1562 1.250 . S
O1554 Mn1549 2.121 . S
O1554 C1562 1.258 . S
C1555 N1556 1.326 . S
C1555 C1559 1.460 . S
C1555 H1561 0.929 . S
N1556 Mn1549 2.257 . S
N1556 C1555 1.326 . S
N1556 C1560 1.362 . S
C1557 C1558 1.258 . S
C1557 C1560 1.431 . S
C1557 C1577 1.449 . S
C1558 C1557 1.258 . S
C1558 C1559 1.477 . S
C1558 H1578 0.931 . S
C1559 C1555 1.460 . S
C1559 C1558 1.477 . S
C1559 H1579 0.930 . S
C1560 N1556 1.362 . S
C1560 C1557 1.431 . S
C1560 C1570 1.476 . S
H1561 C1555 0.929 . S
C1562 O1553 1.250 . S
C1562 O1554 1.258 . S
O1563 Mn1548 2.162 . S
O1563 C1551 1.281 . S
O1564 Mn1548 2.297 . S
O1564 C1551 1.236 . S
N1565 Mn1549 2.282 . S
N1565 C1566 1.328 . S
N1565 C1570 1.318 . S
C1566 N1565 1.328 . S
C1566 C1567 1.457 . S
C1566 H1571 0.929 . S
C1567 C1566 1.457 . S
C1567 C1568 1.291 . S
C1567 H1580 0.931 . S
C1568 C1567 1.291 . S
C1568 C1569 1.373 . S
C1568 H1581 0.929 . S
C1569 C1568 1.373 . S
C1569 C1570 1.396 . S
C1569 C1576 1.403 . S
C1570 C1560 1.476 . S
C1570 N1565 1.318 . S
C1570 C1569 1.396 . S
H1571 C1566 0.929 . S
O1572 Mn1548 2.385 . S
O1572 C1550 1.234 . S
O1573 Mn1548 2.209 . S
O1573 Mn1549 2.215 . S
O1573 C1550 1.283 . S
O1574 Mn1548 2.094 . S
O1574 C1552 1.240 . S
O1575 Mn1549 2.117 . S
O1575 C1552 1.264 . S
C1576 C1569 1.403 . S
C1576 C1577 1.399 . S
C1576 H1582 0.929 . S
C1577 C1557 1.449 . S
C1577 C1576 1.399 . S
C1577 H1583 0.930 . S
H1578 C1558 0.931 . S
H1579 C1559 0.930 . S
H1580 C1567 0.931 . S
H1581 C1568 0.929 . S
H1582 C1576 0.929 . S
H1583 C1577 0.930 . S
Mn1584 O1589 2.095 . S
Mn1584 O1599 2.162 . S
Mn1584 O1600 2.297 . S
Mn1584 O1608 2.385 . S
Mn1584 O1609 2.209 . S
Mn1584 O1610 2.094 . S
Mn1585 O1590 2.121 . S
Mn1585 N1592 2.257 . S
Mn1585 N1601 2.282 . S
Mn1585 O1609 2.215 . S
Mn1585 O1611 2.117 . S
C1586 O1608 1.234 . S
C1586 O1609 1.283 . S
C1587 O1599 1.281 . S
C1587 O1600 1.236 . S
C1588 O1610 1.240 . S
C1588 O1611 1.264 . S
O1589 Mn1584 2.095 . S
O1589 C1598 1.250 . S
O1590 Mn1585 2.121 . S
O1590 C1598 1.258 . S
C1591 N1592 1.326 . S
C1591 C1595 1.460 . S
C1591 H1597 0.929 . S
N1592 Mn1585 2.257 . S
N1592 C1591 1.326 . S
N1592 C1596 1.362 . S
C1593 C1594 1.258 . S
C1593 C1596 1.431 . S
C1593 C1613 1.449 . S
C1594 C1593 1.258 . S
C1594 C1595 1.477 . S
C1594 H1614 0.931 . S
C1595 C1591 1.460 . S
C1595 C1594 1.477 . S
C1595 H1615 0.930 . S
C1596 N1592 1.362 . S
C1596 C1593 1.431 . S
C1596 C1606 1.476 . S
H1597 C1591 0.929 . S
C1598 O1589 1.250 . S
C1598 O1590 1.258 . S
O1599 Mn1584 2.162 . S
O1599 C1587 1.281 . S
O1600 Mn1584 2.297 . S
O1600 C1587 1.236 . S
N1601 Mn1585 2.282 . S
N1601 C1602 1.328 . S
N1601 C1606 1.318 . S
C1602 N1601 1.328 . S
C1602 C1603 1.457 . S
C1602 H1607 0.929 . S
C1603 C1602 1.457 . S
C1603 C1604 1.291 . S
C1603 H1616 0.931 . S
C1604 C1603 1.291 . S
C1604 C1605 1.373 . S
C1604 H1617 0.929 . S
C1605 C1604 1.373 . S
C1605 C1606 1.396 . S
C1605 C1612 1.403 . S
C1606 C1596 1.476 . S
C1606 N1601 1.318 . S
C1606 C1605 1.396 . S
H1607 C1602 0.929 . S
O1608 Mn1584 2.385 . S
O1608 C1586 1.234 . S
O1609 Mn1584 2.209 . S
O1609 Mn1585 2.215 . S
O1609 C1586 1.283 . S
O1610 Mn1584 2.094 . S
O1610 C1588 1.240 . S
O1611 Mn1585 2.117 . S
O1611 C1588 1.264 . S
C1612 C1605 1.403 . S
C1612 C1613 1.399 . S
C1612 H1618 0.929 . S
C1613 C1593 1.449 . S
C1613 C1612 1.399 . S
C1613 H1619 0.930 . S
H1614 C1594 0.931 . S
H1615 C1595 0.930 . S
H1616 C1603 0.931 . S
H1617 C1604 0.929 . S
H1618 C1612 0.929 . S
H1619 C1613 0.930 . S
Mn1620 O1625 2.095 . S
Mn1620 O1635 2.162 . S
Mn1620 O1636 2.297 . S
Mn1620 O1644 2.385 . S
Mn1620 O1645 2.209 . S
Mn1620 O1646 2.094 . S
Mn1621 O1626 2.121 . S
Mn1621 N1628 2.257 . S
Mn1621 N1637 2.282 . S
Mn1621 O1645 2.215 . S
Mn1621 O1647 2.117 . S
C1622 O1644 1.234 . S
C1622 O1645 1.283 . S
C1623 O1635 1.281 . S
C1623 O1636 1.236 . S
C1624 O1646 1.240 . S
C1624 O1647 1.264 . S
O1625 Mn1620 2.095 . S
O1625 C1634 1.250 . S
O1626 Mn1621 2.121 . S
O1626 C1634 1.258 . S
C1627 N1628 1.326 . S
C1627 C1631 1.460 . S
C1627 H1633 0.929 . S
N1628 Mn1621 2.257 . S
N1628 C1627 1.326 . S
N1628 C1632 1.362 . S
C1629 C1630 1.258 . S
C1629 C1632 1.431 . S
C1629 C1649 1.449 . S
C1630 C1629 1.258 . S
C1630 C1631 1.477 . S
C1630 H1650 0.931 . S
C1631 C1627 1.460 . S
C1631 C1630 1.477 . S
C1631 H1651 0.930 . S
C1632 N1628 1.362 . S
C1632 C1629 1.431 . S
C1632 C1642 1.476 . S
H1633 C1627 0.929 . S
C1634 O1625 1.250 . S
C1634 O1626 1.258 . S
O1635 Mn1620 2.162 . S
O1635 C1623 1.281 . S
O1636 Mn1620 2.297 . S
O1636 C1623 1.236 . S
N1637 Mn1621 2.282 . S
N1637 C1638 1.328 . S
N1637 C1642 1.318 . S
C1638 N1637 1.328 . S
C1638 C1639 1.457 . S
C1638 H1643 0.929 . S
C1639 C1638 1.457 . S
C1639 C1640 1.291 . S
C1639 H1652 0.931 . S
C1640 C1639 1.291 . S
C1640 C1641 1.373 . S
C1640 H1653 0.929 . S
C1641 C1640 1.373 . S
C1641 C1642 1.396 . S
C1641 C1648 1.403 . S
C1642 C1632 1.476 . S
C1642 N1637 1.318 . S
C1642 C1641 1.396 . S
H1643 C1638 0.929 . S
O1644 Mn1620 2.385 . S
O1644 C1622 1.234 . S
O1645 Mn1620 2.209 . S
O1645 Mn1621 2.215 . S
O1645 C1622 1.283 . S
O1646 Mn1620 2.094 . S
O1646 C1624 1.240 . S
O1647 Mn1621 2.117 . S
O1647 C1624 1.264 . S
C1648 C1641 1.403 . S
C1648 C1649 1.399 . S
C1648 H1654 0.929 . S
C1649 C1629 1.449 . S
C1649 C1648 1.399 . S
C1649 H1655 0.930 . S
H1650 C1630 0.931 . S
H1651 C1631 0.930 . S
H1652 C1639 0.931 . S
H1653 C1640 0.929 . S
H1654 C1648 0.929 . S
H1655 C1649 0.930 . S
Mn1656 O1661 2.095 . S
Mn1656 O1671 2.162 . S
Mn1656 O1672 2.297 . S
Mn1656 O1680 2.385 . S
Mn1656 O1681 2.209 . S
Mn1656 O1682 2.094 . S
Mn1657 O1662 2.121 . S
Mn1657 N1664 2.257 . S
Mn1657 N1673 2.282 . S
Mn1657 O1681 2.215 . S
Mn1657 O1683 2.117 . S
C1658 O1680 1.234 . S
C1658 O1681 1.283 . S
C1659 O1671 1.281 . S
C1659 O1672 1.236 . S
C1660 O1682 1.240 . S
C1660 O1683 1.264 . S
O1661 Mn1656 2.095 . S
O1661 C1670 1.250 . S
O1662 Mn1657 2.121 . S
O1662 C1670 1.258 . S
C1663 N1664 1.326 . S
C1663 C1667 1.460 . S
C1663 H1669 0.929 . S
N1664 Mn1657 2.257 . S
N1664 C1663 1.326 . S
N1664 C1668 1.362 . S
C1665 C1666 1.258 . S
C1665 C1668 1.431 . S
C1665 C1685 1.449 . S
C1666 C1665 1.258 . S
C1666 C1667 1.477 . S
C1666 H1686 0.931 . S
C1667 C1663 1.460 . S
C1667 C1666 1.477 . S
C1667 H1687 0.930 . S
C1668 N1664 1.362 . S
C1668 C1665 1.431 . S
C1668 C1678 1.476 . S
H1669 C1663 0.929 . S
C1670 O1661 1.250 . S
C1670 O1662 1.258 . S
O1671 Mn1656 2.162 . S
O1671 C1659 1.281 . S
O1672 Mn1656 2.297 . S
O1672 C1659 1.236 . S
N1673 Mn1657 2.282 . S
N1673 C1674 1.328 . S
N1673 C1678 1.318 . S
C1674 N1673 1.328 . S
C1674 C1675 1.457 . S
C1674 H1679 0.929 . S
C1675 C1674 1.457 . S
C1675 C1676 1.291 . S
C1675 H1688 0.931 . S
C1676 C1675 1.291 . S
C1676 C1677 1.373 . S
C1676 H1689 0.929 . S
C1677 C1676 1.373 . S
C1677 C1678 1.396 . S
C1677 C1684 1.403 . S
C1678 C1668 1.476 . S
C1678 N1673 1.318 . S
C1678 C1677 1.396 . S
H1679 C1674 0.929 . S
O1680 Mn1656 2.385 . S
O1680 C1658 1.234 . S
O1681 Mn1656 2.209 . S
O1681 Mn1657 2.215 . S
O1681 C1658 1.283 . S
O1682 Mn1656 2.094 . S
O1682 C1660 1.240 . S
O1683 Mn1657 2.117 . S
O1683 C1660 1.264 . S
C1684 C1677 1.403 . S
C1684 C1685 1.399 . S
C1684 H1690 0.929 . S
C1685 C1665 1.449 . S
C1685 C1684 1.399 . S
C1685 H1691 0.930 . S
H1686 C1666 0.931 . S
H1687 C1667 0.930 . S
H1688 C1675 0.931 . S
H1689 C1676 0.929 . S
H1690 C1684 0.929 . S
H1691 C1685 0.930 . S
Mn1692 O1697 2.095 . S
Mn1692 O1707 2.162 . S
Mn1692 O1708 2.297 . S
Mn1692 O1716 2.385 . S
Mn1692 O1717 2.209 . S
Mn1692 O1718 2.094 . S
Mn1693 O1698 2.121 . S
Mn1693 N1700 2.257 . S
Mn1693 N1709 2.282 . S
Mn1693 O1717 2.215 . S
Mn1693 O1719 2.117 . S
C1694 O1716 1.234 . S
C1694 O1717 1.283 . S
C1695 O1707 1.281 . S
C1695 O1708 1.236 . S
C1696 O1718 1.240 . S
C1696 O1719 1.264 . S
O1697 Mn1692 2.095 . S
O1697 C1706 1.250 . S
O1698 Mn1693 2.121 . S
O1698 C1706 1.258 . S
C1699 N1700 1.326 . S
C1699 C1703 1.460 . S
C1699 H1705 0.929 . S
N1700 Mn1693 2.257 . S
N1700 C1699 1.326 . S
N1700 C1704 1.362 . S
C1701 C1702 1.258 . S
C1701 C1704 1.431 . S
C1701 C1721 1.449 . S
C1702 C1701 1.258 . S
C1702 C1703 1.477 . S
C1702 H1722 0.931 . S
C1703 C1699 1.460 . S
C1703 C1702 1.477 . S
C1703 H1723 0.930 . S
C1704 N1700 1.362 . S
C1704 C1701 1.431 . S
C1704 C1714 1.476 . S
H1705 C1699 0.929 . S
C1706 O1697 1.250 . S
C1706 O1698 1.258 . S
O1707 Mn1692 2.162 . S
O1707 C1695 1.281 . S
O1708 Mn1692 2.297 . S
O1708 C1695 1.236 . S
N1709 Mn1693 2.282 . S
N1709 C1710 1.328 . S
N1709 C1714 1.318 . S
C1710 N1709 1.328 . S
C1710 C1711 1.457 . S
C1710 H1715 0.929 . S
C1711 C1710 1.457 . S
C1711 C1712 1.291 . S
C1711 H1724 0.931 . S
C1712 C1711 1.291 . S
C1712 C1713 1.373 . S
C1712 H1725 0.929 . S
C1713 C1712 1.373 . S
C1713 C1714 1.396 . S
C1713 C1720 1.403 . S
C1714 C1704 1.476 . S
C1714 N1709 1.318 . S
C1714 C1713 1.396 . S
H1715 C1710 0.929 . S
O1716 Mn1692 2.385 . S
O1716 C1694 1.234 . S
O1717 Mn1692 2.209 . S
O1717 Mn1693 2.215 . S
O1717 C1694 1.283 . S
O1718 Mn1692 2.094 . S
O1718 C1696 1.240 . S
O1719 Mn1693 2.117 . S
O1719 C1696 1.264 . S
C1720 C1713 1.403 . S
C1720 C1721 1.399 . S
C1720 H1726 0.929 . S
C1721 C1701 1.449 . S
C1721 C1720 1.399 . S
C1721 H1727 0.930 . S
H1722 C1702 0.931 . S
H1723 C1703 0.930 . S
H1724 C1711 0.931 . S
H1725 C1712 0.929 . S
H1726 C1720 0.929 . S
H1727 C1721 0.930 . S
C1728 C1729 1.387 . S
C1728 H1732 0.950 . S
C1728 C1737 1.390 . S
C1729 C1728 1.387 . S
C1729 C1731 1.387 . S
H1730 C1737 0.950 . S
C1731 C1729 1.387 . S
C1731 C1733 1.390 . S
C1731 H1735 0.950 . S
H1732 C1728 0.950 . S
C1733 C1731 1.390 . S
C1733 C1734 1.387 . S
C1733 H1736 0.950 . S
C1734 C1733 1.387 . S
C1734 C1737 1.387 . S
H1735 C1731 0.950 . S
H1736 C1733 0.950 . S
C1737 C1728 1.390 . S
C1737 H1730 0.950 . S
C1737 C1734 1.387 . S
C1738 C1739 1.387 . S
C1738 H1742 0.950 . S
C1738 C1747 1.390 . S
C1739 C1738 1.387 . S
C1739 C1741 1.387 . S
H1740 C1747 0.950 . S
C1741 C1739 1.387 . S
C1741 C1743 1.390 . S
C1741 H1745 0.950 . S
H1742 C1738 0.950 . S
C1743 C1741 1.390 . S
C1743 C1744 1.387 . S
C1743 H1746 0.950 . S
C1744 C1743 1.387 . S
C1744 C1747 1.387 . S
H1745 C1741 0.950 . S
H1746 C1743 0.950 . S
C1747 C1738 1.390 . S
C1747 H1740 0.950 . S
C1747 C1744 1.387 . S
C1748 C1749 1.387 . S
C1748 H1752 0.950 . S
C1748 C1757 1.390 . S
C1749 C1748 1.387 . S
C1749 C1751 1.387 . S
H1750 C1757 0.950 . S
C1751 C1749 1.387 . S
C1751 C1753 1.390 . S
C1751 H1755 0.950 . S
H1752 C1748 0.950 . S
C1753 C1751 1.390 . S
C1753 C1754 1.387 . S
C1753 H1756 0.950 . S
C1754 C1753 1.387 . S
C1754 C1757 1.387 . S
H1755 C1751 0.950 . S
H1756 C1753 0.950 . S
C1757 C1748 1.390 . S
C1757 H1750 0.950 . S
C1757 C1754 1.387 . S
C1758 C1759 1.387 . S
C1758 H1762 0.950 . S
C1758 C1767 1.390 . S
C1759 C1758 1.387 . S
C1759 C1761 1.387 . S
H1760 C1767 0.950 . S
C1761 C1759 1.387 . S
C1761 C1763 1.390 . S
C1761 H1765 0.950 . S
H1762 C1758 0.950 . S
C1763 C1761 1.390 . S
C1763 C1764 1.387 . S
C1763 H1766 0.950 . S
C1764 C1763 1.387 . S
C1764 C1767 1.387 . S
H1765 C1761 0.950 . S
H1766 C1763 0.950 . S
C1767 C1758 1.390 . S
C1767 H1760 0.950 . S
C1767 C1764 1.387 . S
C1768 C1769 1.387 . S
C1768 H1772 0.950 . S
C1768 C1777 1.390 . S
C1769 C1768 1.387 . S
C1769 C1771 1.387 . S
H1770 C1777 0.950 . S
C1771 C1769 1.387 . S
C1771 C1773 1.390 . S
C1771 H1775 0.950 . S
H1772 C1768 0.950 . S
C1773 C1771 1.390 . S
C1773 C1774 1.387 . S
C1773 H1776 0.950 . S
C1774 C1773 1.387 . S
C1774 C1777 1.387 . S
H1775 C1771 0.950 . S
H1776 C1773 0.950 . S
C1777 C1768 1.390 . S
C1777 H1770 0.950 . S
C1777 C1774 1.387 . S
C1778 C1779 1.387 . S
C1778 H1782 0.950 . S
C1778 C1787 1.390 . S
C1779 C1778 1.387 . S
C1779 C1781 1.387 . S
H1780 C1787 0.950 . S
C1781 C1779 1.387 . S
C1781 C1783 1.390 . S
C1781 H1785 0.950 . S
H1782 C1778 0.950 . S
C1783 C1781 1.390 . S
C1783 C1784 1.387 . S
C1783 H1786 0.950 . S
C1784 C1783 1.387 . S
C1784 C1787 1.387 . S
H1785 C1781 0.950 . S
H1786 C1783 0.950 . S
C1787 C1778 1.390 . S
C1787 H1780 0.950 . S
C1787 C1784 1.387 . S
C1788 C1789 1.387 . S
C1788 H1792 0.950 . S
C1788 C1797 1.390 . S
C1789 C1788 1.387 . S
C1789 C1791 1.387 . S
H1790 C1797 0.950 . S
C1791 C1789 1.387 . S
C1791 C1793 1.390 . S
C1791 H1795 0.950 . S
H1792 C1788 0.950 . S
C1793 C1791 1.390 . S
C1793 C1794 1.387 . S
C1793 H1796 0.950 . S
C1794 C1793 1.387 . S
C1794 C1797 1.387 . S
H1795 C1791 0.950 . S
H1796 C1793 0.950 . S
C1797 C1788 1.390 . S
C1797 H1790 0.950 . S
C1797 C1794 1.387 . S
C1798 C1799 1.387 . S
C1798 H1802 0.950 . S
C1798 C1807 1.390 . S
C1799 C1798 1.387 . S
C1799 C1801 1.387 . S
H1800 C1807 0.950 . S
C1801 C1799 1.387 . S
C1801 C1803 1.390 . S
C1801 H1805 0.950 . S
H1802 C1798 0.950 . S
C1803 C1801 1.390 . S
C1803 C1804 1.387 . S
C1803 H1806 0.950 . S
C1804 C1803 1.387 . S
C1804 C1807 1.387 . S
H1805 C1801 0.950 . S
H1806 C1803 0.950 . S
C1807 C1798 1.390 . S
C1807 H1800 0.950 . S
C1807 C1804 1.387 . S
C1808 C1809 1.387 . S
C1808 H1812 0.950 . S
C1808 C1817 1.390 . S
C1809 C1808 1.387 . S
C1809 C1811 1.387 . S
H1810 C1817 0.950 . S
C1811 C1809 1.387 . S
C1811 C1813 1.390 . S
C1811 H1815 0.950 . S
H1812 C1808 0.950 . S
C1813 C1811 1.390 . S
C1813 C1814 1.387 . S
C1813 H1816 0.950 . S
C1814 C1813 1.387 . S
C1814 C1817 1.387 . S
H1815 C1811 0.950 . S
H1816 C1813 0.950 . S
C1817 C1808 1.390 . S
C1817 H1810 0.950 . S
C1817 C1814 1.387 . S
C1818 C1819 1.387 . S
C1818 H1822 0.950 . S
C1818 C1827 1.390 . S
C1819 C1818 1.387 . S
C1819 C1821 1.387 . S
H1820 C1827 0.950 . S
C1821 C1819 1.387 . S
C1821 C1823 1.390 . S
C1821 H1825 0.950 . S
H1822 C1818 0.950 . S
C1823 C1821 1.390 . S
C1823 C1824 1.387 . S
C1823 H1826 0.950 . S
C1824 C1823 1.387 . S
C1824 C1827 1.387 . S
H1825 C1821 0.950 . S
H1826 C1823 0.950 . S
C1827 C1818 1.390 . S
C1827 H1820 0.950 . S
C1827 C1824 1.387 . S
C1828 C1829 1.387 . S
C1828 H1832 0.950 . S
C1828 C1837 1.390 . S
C1829 C1828 1.387 . S
C1829 C1831 1.387 . S
H1830 C1837 0.950 . S
C1831 C1829 1.387 . S
C1831 C1833 1.390 . S
C1831 H1835 0.950 . S
H1832 C1828 0.950 . S
C1833 C1831 1.390 . S
C1833 C1834 1.387 . S
C1833 H1836 0.950 . S
C1834 C1833 1.387 . S
C1834 C1837 1.387 . S
H1835 C1831 0.950 . S
H1836 C1833 0.950 . S
C1837 C1828 1.390 . S
C1837 H1830 0.950 . S
C1837 C1834 1.387 . S
C1838 C1839 1.387 . S
C1838 H1842 0.950 . S
C1838 C1847 1.390 . S
C1839 C1838 1.387 . S
C1839 C1841 1.387 . S
H1840 C1847 0.950 . S
C1841 C1839 1.387 . S
C1841 C1843 1.390 . S
C1841 H1845 0.950 . S
H1842 C1838 0.950 . S
C1843 C1841 1.390 . S
C1843 C1844 1.387 . S
C1843 H1846 0.950 . S
C1844 C1843 1.387 . S
C1844 C1847 1.387 . S
H1845 C1841 0.950 . S
H1846 C1843 0.950 . S
C1847 C1838 1.390 . S
C1847 H1840 0.950 . S
C1847 C1844 1.387 . S
C1848 C1849 1.387 . S
C1848 H1852 0.950 . S
C1848 C1857 1.390 . S
C1849 C1848 1.387 . S
C1849 C1851 1.387 . S
H1850 C1857 0.950 . S
C1851 C1849 1.387 . S
C1851 C1853 1.390 . S
C1851 H1855 0.950 . S
H1852 C1848 0.950 . S
C1853 C1851 1.390 . S
C1853 C1854 1.387 . S
C1853 H1856 0.950 . S
C1854 C1853 1.387 . S
C1854 C1857 1.387 . S
H1855 C1851 0.950 . S
H1856 C1853 0.950 . S
C1857 C1848 1.390 . S
C1857 H1850 0.950 . S
C1857 C1854 1.387 . S
C1858 C1859 1.387 . S
C1858 H1862 0.950 . S
C1858 C1867 1.390 . S
C1859 C1858 1.387 . S
C1859 C1861 1.387 . S
H1860 C1867 0.950 . S
C1861 C1859 1.387 . S
C1861 C1863 1.390 . S
C1861 H1865 0.950 . S
H1862 C1858 0.950 . S
C1863 C1861 1.390 . S
C1863 C1864 1.387 . S
C1863 H1866 0.950 . S
C1864 C1863 1.387 . S
C1864 C1867 1.387 . S
H1865 C1861 0.950 . S
H1866 C1863 0.950 . S
C1867 C1858 1.390 . S
C1867 H1860 0.950 . S
C1867 C1864 1.387 . S
C1868 C1869 1.387 . S
C1868 H1872 0.950 . S
C1868 C1877 1.390 . S
C1869 C1868 1.387 . S
C1869 C1871 1.387 . S
H1870 C1877 0.950 . S
C1871 C1869 1.387 . S
C1871 C1873 1.390 . S
C1871 H1875 0.950 . S
H1872 C1868 0.950 . S
C1873 C1871 1.390 . S
C1873 C1874 1.387 . S
C1873 H1876 0.950 . S
C1874 C1873 1.387 . S
C1874 C1877 1.387 . S
H1875 C1871 0.950 . S
H1876 C1873 0.950 . S
C1877 C1868 1.390 . S
C1877 H1870 0.950 . S
C1877 C1874 1.387 . S
C1878 C1879 1.387 . S
C1878 H1882 0.950 . S
C1878 C1887 1.390 . S
C1879 C1878 1.387 . S
C1879 C1881 1.387 . S
H1880 C1887 0.950 . S
C1881 C1879 1.387 . S
C1881 C1883 1.390 . S
C1881 H1885 0.950 . S
H1882 C1878 0.950 . S
C1883 C1881 1.390 . S
C1883 C1884 1.387 . S
C1883 H1886 0.950 . S
C1884 C1883 1.387 . S
C1884 C1887 1.387 . S
H1885 C1881 0.950 . S
H1886 C1883 0.950 . S
C1887 C1878 1.390 . S
C1887 H1880 0.950 . S
C1887 C1884 1.387 . S
C1888 C1889 1.387 . S
C1888 H1892 0.950 . S
C1888 C1897 1.390 . S
C1889 C1888 1.387 . S
C1889 C1891 1.387 . S
H1890 C1897 0.950 . S
C1891 C1889 1.387 . S
C1891 C1893 1.390 . S
C1891 H1895 0.950 . S
H1892 C1888 0.950 . S
C1893 C1891 1.390 . S
C1893 C1894 1.387 . S
C1893 H1896 0.950 . S
C1894 C1893 1.387 . S
C1894 C1897 1.387 . S
H1895 C1891 0.950 . S
H1896 C1893 0.950 . S
C1897 C1888 1.390 . S
C1897 H1890 0.950 . S
C1897 C1894 1.387 . S
C1898 C1899 1.387 . S
C1898 H1902 0.950 . S
C1898 C1907 1.390 . S
C1899 C1898 1.387 . S
C1899 C1901 1.387 . S
H1900 C1907 0.950 . S
C1901 C1899 1.387 . S
C1901 C1903 1.390 . S
C1901 H1905 0.950 . S
H1902 C1898 0.950 . S
C1903 C1901 1.390 . S
C1903 C1904 1.387 . S
C1903 H1906 0.950 . S
C1904 C1903 1.387 . S
C1904 C1907 1.387 . S
H1905 C1901 0.950 . S
H1906 C1903 0.950 . S
C1907 C1898 1.390 . S
C1907 H1900 0.950 . S
C1907 C1904 1.387 . S
C1908 C1909 1.387 . S
C1908 H1912 0.950 . S
C1908 C1917 1.390 . S
C1909 C1908 1.387 . S
C1909 C1911 1.387 . S
H1910 C1917 0.950 . S
C1911 C1909 1.387 . S
C1911 C1913 1.390 . S
C1911 H1915 0.950 . S
H1912 C1908 0.950 . S
C1913 C1911 1.390 . S
C1913 C1914 1.387 . S
C1913 H1916 0.950 . S
C1914 C1913 1.387 . S
C1914 C1917 1.387 . S
H1915 C1911 0.950 . S
H1916 C1913 0.950 . S
C1917 C1908 1.390 . S
C1917 H1910 0.950 . S
C1917 C1914 1.387 . S
C1918 C1919 1.387 . S
C1918 H1922 0.950 . S
C1918 C1927 1.390 . S
C1919 C1918 1.387 . S
C1919 C1921 1.387 . S
H1920 C1927 0.950 . S
C1921 C1919 1.387 . S
C1921 C1923 1.390 . S
C1921 H1925 0.950 . S
H1922 C1918 0.950 . S
C1923 C1921 1.390 . S
C1923 C1924 1.387 . S
C1923 H1926 0.950 . S
C1924 C1923 1.387 . S
C1924 C1927 1.387 . S
H1925 C1921 0.950 . S
H1926 C1923 0.950 . S
C1927 C1918 1.390 . S
C1927 H1920 0.950 . S
C1927 C1924 1.387 . S
C1928 C1929 1.387 . S
C1928 H1932 0.950 . S
C1928 C1937 1.390 . S
C1929 C1928 1.387 . S
C1929 C1931 1.387 . S
H1930 C1937 0.950 . S
C1931 C1929 1.387 . S
C1931 C1933 1.390 . S
C1931 H1935 0.950 . S
H1932 C1928 0.950 . S
C1933 C1931 1.390 . S
C1933 C1934 1.387 . S
C1933 H1936 0.950 . S
C1934 C1933 1.387 . S
C1934 C1937 1.387 . S
H1935 C1931 0.950 . S
H1936 C1933 0.950 . S
C1937 C1928 1.390 . S
C1937 H1930 0.950 . S
C1937 C1934 1.387 . S
C1938 C1939 1.387 . S
C1938 H1942 0.950 . S
C1938 C1947 1.390 . S
C1939 C1938 1.387 . S
C1939 C1941 1.387 . S
H1940 C1947 0.950 . S
C1941 C1939 1.387 . S
C1941 C1943 1.390 . S
C1941 H1945 0.950 . S
H1942 C1938 0.950 . S
C1943 C1941 1.390 . S
C1943 C1944 1.387 . S
C1943 H1946 0.950 . S
C1944 C1943 1.387 . S
C1944 C1947 1.387 . S
H1945 C1941 0.950 . S
H1946 C1943 0.950 . S
C1947 C1938 1.390 . S
C1947 H1940 0.950 . S
C1947 C1944 1.387 . S
C1948 C1949 1.387 . S
C1948 H1952 0.950 . S
C1948 C1957 1.390 . S
C1949 C1948 1.387 . S
C1949 C1951 1.387 . S
H1950 C1957 0.950 . S
C1951 C1949 1.387 . S
C1951 C1953 1.390 . S
C1951 H1955 0.950 . S
H1952 C1948 0.950 . S
C1953 C1951 1.390 . S
C1953 C1954 1.387 . S
C1953 H1956 0.950 . S
C1954 C1953 1.387 . S
C1954 C1957 1.387 . S
H1955 C1951 0.950 . S
H1956 C1953 0.950 . S
C1957 C1948 1.390 . S
C1957 H1950 0.950 . S
C1957 C1954 1.387 . S
C1958 C1959 1.387 . S
C1958 H1962 0.950 . S
C1958 C1967 1.390 . S
C1959 C1958 1.387 . S
C1959 C1961 1.387 . S
H1960 C1967 0.950 . S
C1961 C1959 1.387 . S
C1961 C1963 1.390 . S
C1961 H1965 0.950 . S
H1962 C1958 0.950 . S
C1963 C1961 1.390 . S
C1963 C1964 1.387 . S
C1963 H1966 0.950 . S
C1964 C1963 1.387 . S
C1964 C1967 1.387 . S
H1965 C1961 0.950 . S
H1966 C1963 0.950 . S
C1967 C1958 1.390 . S
C1967 H1960 0.950 . S
C1967 C1964 1.387 . S
C1968 C1969 1.387 . S
C1968 H1972 0.950 . S
C1968 C1977 1.390 1_655 S
C1969 C1968 1.387 . S
C1969 C1971 1.387 . S
H1970 C1977 0.950 . S
C1971 C1969 1.387 . S
C1971 C1973 1.390 1_655 S
C1971 H1975 0.950 . S
H1972 C1968 0.950 . S
C1973 C1971 1.390 1_455 S
C1973 C1974 1.387 . S
C1973 H1976 0.950 . S
C1974 C1973 1.387 . S
C1974 C1977 1.387 . S
H1975 C1971 0.950 . S
H1976 C1973 0.950 . S
C1977 C1968 1.390 1_455 S
C1977 H1970 0.950 . S
C1977 C1974 1.387 . S
C1978 C1979 1.387 1_545 S
C1978 H1982 0.950 . S
C1978 C1987 1.390 . S
C1979 C1978 1.387 1_565 S
C1979 C1981 1.387 . S
H1980 C1987 0.950 . S
C1981 C1979 1.387 . S
C1981 C1983 1.390 . S
C1981 H1985 0.950 . S
H1982 C1978 0.950 . S
C1983 C1981 1.390 . S
C1983 C1984 1.387 1_565 S
C1983 H1986 0.950 . S
C1984 C1983 1.387 1_545 S
C1984 C1987 1.387 . S
H1985 C1981 0.950 . S
H1986 C1983 0.950 . S
C1987 C1978 1.390 . S
C1987 H1980 0.950 . S
C1987 C1984 1.387 . S
C1988 C1989 1.387 . S
C1988 H1992 0.950 . S
C1988 C1997 1.390 . S
C1989 C1988 1.387 . S
C1989 C1991 1.387 1_655 S
H1990 C1997 0.950 . S
C1991 C1989 1.387 1_455 S
C1991 C1993 1.390 . S
C1991 H1995 0.950 . S
H1992 C1988 0.950 . S
C1993 C1991 1.390 . S
C1993 C1994 1.387 . S
C1993 H1996 0.950 . S
C1994 C1993 1.387 . S
C1994 C1997 1.387 1_455 S
H1995 C1991 0.950 . S
H1996 C1993 0.950 . S
C1997 C1988 1.390 . S
C1997 H1990 0.950 . S
C1997 C1994 1.387 1_655 S
C1998 C1999 1.387 1_565 S
C1998 H2002 0.950 . S
C1998 C2007 1.390 . S
C1999 C1998 1.387 1_545 S
C1999 C2001 1.387 . S
H2000 C2007 0.950 . S
C2001 C1999 1.387 . S
C2001 C2003 1.390 . S
C2001 H2005 0.950 . S
H2002 C1998 0.950 . S
C2003 C2001 1.390 . S
C2003 C2004 1.387 1_545 S
C2003 H2006 0.950 . S
C2004 C2003 1.387 1_565 S
C2004 C2007 1.387 . S
H2005 C2001 0.950 . S
H2006 C2003 0.950 . S
C2007 C1998 1.390 . S
C2007 H2000 0.950 . S
C2007 C2004 1.387 . S
C2008 C2009 1.387 . S
C2008 H2012 0.950 . S
C2008 C2017 1.390 1_455 S
C2009 C2008 1.387 . S
C2009 C2011 1.387 . S
H2010 C2017 0.950 . S
C2011 C2009 1.387 . S
C2011 C2013 1.390 1_455 S
C2011 H2015 0.950 . S
H2012 C2008 0.950 . S
C2013 C2011 1.390 1_655 S
C2013 C2014 1.387 . S
C2013 H2016 0.950 . S
C2014 C2013 1.387 . S
C2014 C2017 1.387 . S
H2015 C2011 0.950 . S
H2016 C2013 0.950 . S
C2017 C2008 1.390 1_655 S
C2017 H2010 0.950 . S
C2017 C2014 1.387 . S
C2018 C2019 1.387 1_545 S
C2018 H2022 0.950 . S
C2018 C2027 1.390 . S
C2019 C2018 1.387 1_565 S
C2019 C2021 1.387 . S
H2020 C2027 0.950 . S
C2021 C2019 1.387 . S
C2021 C2023 1.390 . S
C2021 H2025 0.950 . S
H2022 C2018 0.950 . S
C2023 C2021 1.390 . S
C2023 C2024 1.387 1_565 S
C2023 H2026 0.950 . S
C2024 C2023 1.387 1_545 S
C2024 C2027 1.387 . S
H2025 C2021 0.950 . S
H2026 C2023 0.950 . S
C2027 C2018 1.390 . S
C2027 H2020 0.950 . S
C2027 C2024 1.387 . S
C2028 C2029 1.387 1_655 S
C2028 H2032 0.950 . S
C2028 C2037 1.390 . S
C2029 C2028 1.387 1_455 S
C2029 C2031 1.387 . S
H2030 C2037 0.950 . S
C2031 C2029 1.387 . S
C2031 C2033 1.390 . S
C2031 H2035 0.950 . S
H2032 C2028 0.950 . S
C2033 C2031 1.390 . S
C2033 C2034 1.387 1_455 S
C2033 H2036 0.950 . S
C2034 C2033 1.387 1_655 S
C2034 C2037 1.387 . S
H2035 C2031 0.950 . S
H2036 C2033 0.950 . S
C2037 C2028 1.390 . S
C2037 H2030 0.950 . S
C2037 C2034 1.387 . S
C2038 C2039 1.387 . S
C2038 H2042 0.950 . S
C2038 C2047 1.390 . S
C2039 C2038 1.387 . S
C2039 C2041 1.387 1_545 S
H2040 C2047 0.950 . S
C2041 C2039 1.387 1_565 S
C2041 C2043 1.390 . S
C2041 H2045 0.950 . S
H2042 C2038 0.950 . S
C2043 C2041 1.390 . S
C2043 C2044 1.387 . S
C2043 H2046 0.950 . S
C2044 C2043 1.387 . S
C2044 C2047 1.387 1_565 S
H2045 C2041 0.950 . S
H2046 C2043 0.950 . S
C2047 C2038 1.390 . S
C2047 H2040 0.950 . S
C2047 C2044 1.387 1_545 S
C2048 C2049 1.387 . S
C2048 H2052 0.950 . S
C2048 C2057 1.390 . S
C2049 C2048 1.387 . S
C2049 C2051 1.387 1_556 S
H2050 C2057 0.950 . S
C2051 C2049 1.387 1_554 S
C2051 C2053 1.390 . S
C2051 H2055 0.950 . S
H2052 C2048 0.950 . S
C2053 C2051 1.390 . S
C2053 C2054 1.387 . S
C2053 H2056 0.950 . S
C2054 C2053 1.387 . S
C2054 C2057 1.387 1_554 S
H2055 C2051 0.950 . S
H2056 C2053 0.950 . S
C2057 C2048 1.390 . S
C2057 H2050 0.950 . S
C2057 C2054 1.387 1_556 S
C2058 C2059 1.387 . S
C2058 H2062 0.950 . S
C2058 C2067 1.390 . S
C2059 C2058 1.387 . S
C2059 C2061 1.387 1_554 S
H2060 C2067 0.950 . S
C2061 C2059 1.387 1_556 S
C2061 C2063 1.390 . S
C2061 H2065 0.950 . S
H2062 C2058 0.950 . S
C2063 C2061 1.390 . S
C2063 C2064 1.387 . S
C2063 H2066 0.950 . S
C2064 C2063 1.387 . S
C2064 C2067 1.387 1_556 S
H2065 C2061 0.950 . S
H2066 C2063 0.950 . S
C2067 C2058 1.390 . S
C2067 H2060 0.950 . S
C2067 C2064 1.387 1_554 S
C2068 C2069 1.387 1_556 S
C2068 H2072 0.950 . S
C2068 C2077 1.390 . S
C2069 C2068 1.387 1_554 S
C2069 C2071 1.387 . S
H2070 C2077 0.950 . S
C2071 C2069 1.387 . S
C2071 C2073 1.390 . S
C2071 H2075 0.950 . S
H2072 C2068 0.950 . S
C2073 C2071 1.390 . S
C2073 C2074 1.387 1_554 S
C2073 H2076 0.950 . S
C2074 C2073 1.387 1_556 S
C2074 C2077 1.387 . S
H2075 C2071 0.950 . S
H2076 C2073 0.950 . S
C2077 C2068 1.390 . S
C2077 H2070 0.950 . S
C2077 C2074 1.387 . S
C2078 C2079 1.387 . S
C2078 H2082 0.950 . S
C2078 C2087 1.390 . S
C2079 C2078 1.387 . S
C2079 C2081 1.387 1_556 S
H2080 C2087 0.950 . S
C2081 C2079 1.387 1_554 S
C2081 C2083 1.390 . S
C2081 H2085 0.950 . S
H2082 C2078 0.950 . S
C2083 C2081 1.390 . S
C2083 C2084 1.387 . S
C2083 H2086 0.950 . S
C2084 C2083 1.387 . S
C2084 C2087 1.387 1_554 S
H2085 C2081 0.950 . S
H2086 C2083 0.950 . S
C2087 C2078 1.390 . S
C2087 H2080 0.950 . S
C2087 C2084 1.387 1_556 S
C2088 C2089 1.387 . S
C2088 H2092 0.950 . S
C2088 C2097 1.390 . S
C2089 C2088 1.387 . S
C2089 C2091 1.387 . S
H2090 C2097 0.950 . S
C2091 C2089 1.387 . S
C2091 C2093 1.390 . S
C2091 H2095 0.950 . S
H2092 C2088 0.950 . S
C2093 C2091 1.390 . S
C2093 C2094 1.387 . S
C2093 H2096 0.950 . S
C2094 C2093 1.387 . S
C2094 C2097 1.387 . S
H2095 C2091 0.950 . S
H2096 C2093 0.950 . S
C2097 C2088 1.390 . S
C2097 H2090 0.950 . S
C2097 C2094 1.387 . S
C2098 C2099 1.387 . S
C2098 H2102 0.950 . S
C2098 C2107 1.390 . S
C2099 C2098 1.387 . S
C2099 C2101 1.387 . S
H2100 C2107 0.950 . S
C2101 C2099 1.387 . S
C2101 C2103 1.390 . S
C2101 H2105 0.950 . S
H2102 C2098 0.950 . S
C2103 C2101 1.390 . S
C2103 C2104 1.387 . S
C2103 H2106 0.950 . S
C2104 C2103 1.387 . S
C2104 C2107 1.387 . S
H2105 C2101 0.950 . S
H2106 C2103 0.950 . S
C2107 C2098 1.390 . S
C2107 H2100 0.950 . S
C2107 C2104 1.387 . S
C2108 C2109 1.387 . S
C2108 H2112 0.950 . S
C2108 C2117 1.390 . S
C2109 C2108 1.387 . S
C2109 C2111 1.387 . S
H2110 C2117 0.950 . S
C2111 C2109 1.387 . S
C2111 C2113 1.390 . S
C2111 H2115 0.950 . S
H2112 C2108 0.950 . S
C2113 C2111 1.390 . S
C2113 C2114 1.387 . S
C2113 H2116 0.950 . S
C2114 C2113 1.387 . S
C2114 C2117 1.387 . S
H2115 C2111 0.950 . S
H2116 C2113 0.950 . S
C2117 C2108 1.390 . S
C2117 H2110 0.950 . S
C2117 C2114 1.387 . S
C2118 C2119 1.387 . S
C2118 H2122 0.950 . S
C2118 C2127 1.390 . S
C2119 C2118 1.387 . S
C2119 C2121 1.387 . S
H2120 C2127 0.950 . S
C2121 C2119 1.387 . S
C2121 C2123 1.390 . S
C2121 H2125 0.950 . S
H2122 C2118 0.950 . S
C2123 C2121 1.390 . S
C2123 C2124 1.387 . S
C2123 H2126 0.950 . S
C2124 C2123 1.387 . S
C2124 C2127 1.387 . S
H2125 C2121 0.950 . S
H2126 C2123 0.950 . S
C2127 C2118 1.390 . S
C2127 H2120 0.950 . S
C2127 C2124 1.387 . S
C2128 C2129 1.387 . S
C2128 H2132 0.950 . S
C2128 C2137 1.390 . S
C2129 C2128 1.387 . S
C2129 C2131 1.387 . S
H2130 C2137 0.950 . S
C2131 C2129 1.387 . S
C2131 C2133 1.390 . S
C2131 H2135 0.950 . S
H2132 C2128 0.950 . S
C2133 C2131 1.390 . S
C2133 C2134 1.387 . S
C2133 H2136 0.950 . S
C2134 C2133 1.387 . S
C2134 C2137 1.387 . S
H2135 C2131 0.950 . S
H2136 C2133 0.950 . S
C2137 C2128 1.390 . S
C2137 H2130 0.950 . S
C2137 C2134 1.387 . S
C2138 C2139 1.387 . S
C2138 H2142 0.950 . S
C2138 C2147 1.390 . S
C2139 C2138 1.387 . S
C2139 C2141 1.387 . S
H2140 C2147 0.950 . S
C2141 C2139 1.387 . S
C2141 C2143 1.390 . S
C2141 H2145 0.950 . S
H2142 C2138 0.950 . S
C2143 C2141 1.390 . S
C2143 C2144 1.387 . S
C2143 H2146 0.950 . S
C2144 C2143 1.387 . S
C2144 C2147 1.387 . S
H2145 C2141 0.950 . S
H2146 C2143 0.950 . S
C2147 C2138 1.390 . S
C2147 H2140 0.950 . S
C2147 C2144 1.387 . S
C2148 C2149 1.387 . S
C2148 H2152 0.950 . S
C2148 C2157 1.390 . S
C2149 C2148 1.387 . S
C2149 C2151 1.387 . S
H2150 C2157 0.950 . S
C2151 C2149 1.387 . S
C2151 C2153 1.390 . S
C2151 H2155 0.950 . S
H2152 C2148 0.950 . S
C2153 C2151 1.390 . S
C2153 C2154 1.387 . S
C2153 H2156 0.950 . S
C2154 C2153 1.387 . S
C2154 C2157 1.387 . S
H2155 C2151 0.950 . S
H2156 C2153 0.950 . S
C2157 C2148 1.390 . S
C2157 H2150 0.950 . S
C2157 C2154 1.387 . S
C2158 C2159 1.387 . S
C2158 H2162 0.950 . S
C2158 C2167 1.390 . S
C2159 C2158 1.387 . S
C2159 C2161 1.387 . S
H2160 C2167 0.950 . S
C2161 C2159 1.387 . S
C2161 C2163 1.390 . S
C2161 H2165 0.950 . S
H2162 C2158 0.950 . S
C2163 C2161 1.390 . S
C2163 C2164 1.387 . S
C2163 H2166 0.950 . S
C2164 C2163 1.387 . S
C2164 C2167 1.387 . S
H2165 C2161 0.950 . S
H2166 C2163 0.950 . S
C2167 C2158 1.390 . S
C2167 H2160 0.950 . S
C2167 C2164 1.387 . S
C2168 C2169 1.387 . S
C2168 H2172 0.950 . S
C2168 C2177 1.390 . S
C2169 C2168 1.387 . S
C2169 C2171 1.387 . S
H2170 C2177 0.950 . S
C2171 C2169 1.387 . S
C2171 C2173 1.390 . S
C2171 H2175 0.950 . S
H2172 C2168 0.950 . S
C2173 C2171 1.390 . S
C2173 C2174 1.387 . S
C2173 H2176 0.950 . S
C2174 C2173 1.387 . S
C2174 C2177 1.387 . S
H2175 C2171 0.950 . S
H2176 C2173 0.950 . S
C2177 C2168 1.390 . S
C2177 H2170 0.950 . S
C2177 C2174 1.387 . S
C2178 C2179 1.387 . S
C2178 H2182 0.950 . S
C2178 C2187 1.390 . S
C2179 C2178 1.387 . S
C2179 C2181 1.387 . S
H2180 C2187 0.950 . S
C2181 C2179 1.387 . S
C2181 C2183 1.390 . S
C2181 H2185 0.950 . S
H2182 C2178 0.950 . S
C2183 C2181 1.390 . S
C2183 C2184 1.387 . S
C2183 H2186 0.950 . S
C2184 C2183 1.387 . S
C2184 C2187 1.387 . S
H2185 C2181 0.950 . S
H2186 C2183 0.950 . S
C2187 C2178 1.390 . S
C2187 H2180 0.950 . S
C2187 C2184 1.387 . S
C2188 C2189 1.387 . S
C2188 H2192 0.950 . S
C2188 C2197 1.390 . S
C2189 C2188 1.387 . S
C2189 C2191 1.387 . S
H2190 C2197 0.950 . S
C2191 C2189 1.387 . S
C2191 C2193 1.390 . S
C2191 H2195 0.950 . S
H2192 C2188 0.950 . S
C2193 C2191 1.390 . S
C2193 C2194 1.387 . S
C2193 H2196 0.950 . S
C2194 C2193 1.387 . S
C2194 C2197 1.387 . S
H2195 C2191 0.950 . S
H2196 C2193 0.950 . S
C2197 C2188 1.390 . S
C2197 H2190 0.950 . S
C2197 C2194 1.387 . S
C2198 C2199 1.387 . S
C2198 H2202 0.950 . S
C2198 C2207 1.390 . S
C2199 C2198 1.387 . S
C2199 C2201 1.387 . S
H2200 C2207 0.950 . S
C2201 C2199 1.387 . S
C2201 C2203 1.390 . S
C2201 H2205 0.950 . S
H2202 C2198 0.950 . S
C2203 C2201 1.390 . S
C2203 C2204 1.387 . S
C2203 H2206 0.950 . S
C2204 C2203 1.387 . S
C2204 C2207 1.387 . S
H2205 C2201 0.950 . S
H2206 C2203 0.950 . S
C2207 C2198 1.390 . S
C2207 H2200 0.950 . S
C2207 C2204 1.387 . S
C2208 C2209 1.387 . S
C2208 H2212 0.950 . S
C2208 C2217 1.390 . S
C2209 C2208 1.387 . S
C2209 C2211 1.387 . S
H2210 C2217 0.950 . S
C2211 C2209 1.387 . S
C2211 C2213 1.390 . S
C2211 H2215 0.950 . S
H2212 C2208 0.950 . S
C2213 C2211 1.390 . S
C2213 C2214 1.387 . S
C2213 H2216 0.950 . S
C2214 C2213 1.387 . S
C2214 C2217 1.387 . S
H2215 C2211 0.950 . S
H2216 C2213 0.950 . S
C2217 C2208 1.390 . S
C2217 H2210 0.950 . S
C2217 C2214 1.387 . S
C2218 C2219 1.387 . S
C2218 H2222 0.950 . S
C2218 C2227 1.390 . S
C2219 C2218 1.387 . S
C2219 C2221 1.387 . S
H2220 C2227 0.950 . S
C2221 C2219 1.387 . S
C2221 C2223 1.390 . S
C2221 H2225 0.950 . S
H2222 C2218 0.950 . S
C2223 C2221 1.390 . S
C2223 C2224 1.387 . S
C2223 H2226 0.950 . S
C2224 C2223 1.387 . S
C2224 C2227 1.387 . S
H2225 C2221 0.950 . S
H2226 C2223 0.950 . S
C2227 C2218 1.390 . S
C2227 H2220 0.950 . S
C2227 C2224 1.387 . S
C2228 C2229 1.387 . S
C2228 H2232 0.950 . S
C2228 C2237 1.390 . S
C2229 C2228 1.387 . S
C2229 C2231 1.387 . S
H2230 C2237 0.950 . S
C2231 C2229 1.387 . S
C2231 C2233 1.390 . S
C2231 H2235 0.950 . S
H2232 C2228 0.950 . S
C2233 C2231 1.390 . S
C2233 C2234 1.387 . S
C2233 H2236 0.950 . S
C2234 C2233 1.387 . S
C2234 C2237 1.387 . S
H2235 C2231 0.950 . S
H2236 C2233 0.950 . S
C2237 C2228 1.390 . S
C2237 H2230 0.950 . S
C2237 C2234 1.387 . S
C2238 C2239 1.387 . S
C2238 H2242 0.950 . S
C2238 C2247 1.390 . S
C2239 C2238 1.387 . S
C2239 C2241 1.387 . S
H2240 C2247 0.950 . S
C2241 C2239 1.387 . S
C2241 C2243 1.390 . S
C2241 H2245 0.950 . S
H2242 C2238 0.950 . S
C2243 C2241 1.390 . S
C2243 C2244 1.387 . S
C2243 H2246 0.950 . S
C2244 C2243 1.387 . S
C2244 C2247 1.387 . S
H2245 C2241 0.950 . S
H2246 C2243 0.950 . S
C2247 C2238 1.390 . S
C2247 H2240 0.950 . S
C2247 C2244 1.387 . S
C2248 C2249 1.387 . S
C2248 H2252 0.950 . S
C2248 C2257 1.390 . S
C2249 C2248 1.387 . S
C2249 C2251 1.387 . S
H2250 C2257 0.950 . S
C2251 C2249 1.387 . S
C2251 C2253 1.390 . S
C2251 H2255 0.950 . S
H2252 C2248 0.950 . S
C2253 C2251 1.390 . S
C2253 C2254 1.387 . S
C2253 H2256 0.950 . S
C2254 C2253 1.387 . S
C2254 C2257 1.387 . S
H2255 C2251 0.950 . S
H2256 C2253 0.950 . S
C2257 C2248 1.390 . S
C2257 H2250 0.950 . S
C2257 C2254 1.387 . S
C2258 C2259 1.387 . S
C2258 H2262 0.950 . S
C2258 C2267 1.390 . S
C2259 C2258 1.387 . S
C2259 C2261 1.387 . S
H2260 C2267 0.950 . S
C2261 C2259 1.387 . S
C2261 C2263 1.390 . S
C2261 H2265 0.950 . S
H2262 C2258 0.950 . S
C2263 C2261 1.390 . S
C2263 C2264 1.387 . S
C2263 H2266 0.950 . S
C2264 C2263 1.387 . S
C2264 C2267 1.387 . S
H2265 C2261 0.950 . S
H2266 C2263 0.950 . S
C2267 C2258 1.390 . S
C2267 H2260 0.950 . S
C2267 C2264 1.387 . S
C2268 C2269 1.387 . S
C2268 H2272 0.950 . S
C2268 C2277 1.390 . S
C2269 C2268 1.387 . S
C2269 C2271 1.387 . S
H2270 C2277 0.950 . S
C2271 C2269 1.387 . S
C2271 C2273 1.390 . S
C2271 H2275 0.950 . S
H2272 C2268 0.950 . S
C2273 C2271 1.390 . S
C2273 C2274 1.387 . S
C2273 H2276 0.950 . S
C2274 C2273 1.387 . S
C2274 C2277 1.387 . S
H2275 C2271 0.950 . S
H2276 C2273 0.950 . S
C2277 C2268 1.390 . S
C2277 H2270 0.950 . S
C2277 C2274 1.387 . S
C2278 C2279 1.387 . S
C2278 H2282 0.950 . S
C2278 C2287 1.390 . S
C2279 C2278 1.387 . S
C2279 C2281 1.387 . S
H2280 C2287 0.950 . S
C2281 C2279 1.387 . S
C2281 C2283 1.390 . S
C2281 H2285 0.950 . S
H2282 C2278 0.950 . S
C2283 C2281 1.390 . S
C2283 C2284 1.387 . S
C2283 H2286 0.950 . S
C2284 C2283 1.387 . S
C2284 C2287 1.387 . S
H2285 C2281 0.950 . S
H2286 C2283 0.950 . S
C2287 C2278 1.390 . S
C2287 H2280 0.950 . S
C2287 C2284 1.387 . S
C2288 C2289 1.387 . S
C2288 H2292 0.950 . S
C2288 C2297 1.390 . S
C2289 C2288 1.387 . S
C2289 C2291 1.387 . S
H2290 C2297 0.950 . S
C2291 C2289 1.387 . S
C2291 C2293 1.390 . S
C2291 H2295 0.950 . S
H2292 C2288 0.950 . S
C2293 C2291 1.390 . S
C2293 C2294 1.387 . S
C2293 H2296 0.950 . S
C2294 C2293 1.387 . S
C2294 C2297 1.387 . S
H2295 C2291 0.950 . S
H2296 C2293 0.950 . S
C2297 C2288 1.390 . S
C2297 H2290 0.950 . S
C2297 C2294 1.387 . S
C2298 C2299 1.387 . S
C2298 H2302 0.950 . S
C2298 C2307 1.390 . S
C2299 C2298 1.387 . S
C2299 C2301 1.387 . S
H2300 C2307 0.950 . S
C2301 C2299 1.387 . S
C2301 C2303 1.390 . S
C2301 H2305 0.950 . S
H2302 C2298 0.950 . S
C2303 C2301 1.390 . S
C2303 C2304 1.387 . S
C2303 H2306 0.950 . S
C2304 C2303 1.387 . S
C2304 C2307 1.387 . S
H2305 C2301 0.950 . S
H2306 C2303 0.950 . S
C2307 C2298 1.390 . S
C2307 H2300 0.950 . S
C2307 C2304 1.387 . S
C2308 C2309 1.387 . S
C2308 H2312 0.950 . S
C2308 C2317 1.390 . S
C2309 C2308 1.387 . S
C2309 C2311 1.387 . S
H2310 C2317 0.950 . S
C2311 C2309 1.387 . S
C2311 C2313 1.390 . S
C2311 H2315 0.950 . S
H2312 C2308 0.950 . S
C2313 C2311 1.390 . S
C2313 C2314 1.387 . S
C2313 H2316 0.950 . S
C2314 C2313 1.387 . S
C2314 C2317 1.387 . S
H2315 C2311 0.950 . S
H2316 C2313 0.950 . S
C2317 C2308 1.390 . S
C2317 H2310 0.950 . S
C2317 C2314 1.387 . S
C2318 C2319 1.387 . S
C2318 H2322 0.950 . S
C2318 C2327 1.390 . S
C2319 C2318 1.387 . S
C2319 C2321 1.387 . S
H2320 C2327 0.950 . S
C2321 C2319 1.387 . S
C2321 C2323 1.390 . S
C2321 H2325 0.950 . S
H2322 C2318 0.950 . S
C2323 C2321 1.390 . S
C2323 C2324 1.387 . S
C2323 H2326 0.950 . S
C2324 C2323 1.387 . S
C2324 C2327 1.387 . S
H2325 C2321 0.950 . S
H2326 C2323 0.950 . S
C2327 C2318 1.390 . S
C2327 H2320 0.950 . S
C2327 C2324 1.387 . S
C2328 C2329 1.387 . S
C2328 H2332 0.950 . S
C2328 C2337 1.390 . S
C2329 C2328 1.387 . S
C2329 C2331 1.387 . S
H2330 C2337 0.950 . S
C2331 C2329 1.387 . S
C2331 C2333 1.390 . S
C2331 H2335 0.950 . S
H2332 C2328 0.950 . S
C2333 C2331 1.390 . S
C2333 C2334 1.387 . S
C2333 H2336 0.950 . S
C2334 C2333 1.387 . S
C2334 C2337 1.387 . S
H2335 C2331 0.950 . S
H2336 C2333 0.950 . S
C2337 C2328 1.390 . S
C2337 H2330 0.950 . S
C2337 C2334 1.387 . S
C2338 C2339 1.387 . S
C2338 H2342 0.950 . S
C2338 C2347 1.390 . S
C2339 C2338 1.387 . S
C2339 C2341 1.387 . S
H2340 C2347 0.950 . S
C2341 C2339 1.387 . S
C2341 C2343 1.390 . S
C2341 H2345 0.950 . S
H2342 C2338 0.950 . S
C2343 C2341 1.390 . S
C2343 C2344 1.387 . S
C2343 H2346 0.950 . S
C2344 C2343 1.387 . S
C2344 C2347 1.387 . S
H2345 C2341 0.950 . S
H2346 C2343 0.950 . S
C2347 C2338 1.390 . S
C2347 H2340 0.950 . S
C2347 C2344 1.387 . S
C2348 C2349 1.387 . S
C2348 H2352 0.950 . S
C2348 C2357 1.390 . S
C2349 C2348 1.387 . S
C2349 C2351 1.387 . S
H2350 C2357 0.950 . S
C2351 C2349 1.387 . S
C2351 C2353 1.390 . S
C2351 H2355 0.950 . S
H2352 C2348 0.950 . S
C2353 C2351 1.390 . S
C2353 C2354 1.387 . S
C2353 H2356 0.950 . S
C2354 C2353 1.387 . S
C2354 C2357 1.387 . S
H2355 C2351 0.950 . S
H2356 C2353 0.950 . S
C2357 C2348 1.390 . S
C2357 H2350 0.950 . S
C2357 C2354 1.387 . S
C2358 C2359 1.387 . S
C2358 H2362 0.950 . S
C2358 C2367 1.390 . S
C2359 C2358 1.387 . S
C2359 C2361 1.387 . S
H2360 C2367 0.950 . S
C2361 C2359 1.387 . S
C2361 C2363 1.390 . S
C2361 H2365 0.950 . S
H2362 C2358 0.950 . S
C2363 C2361 1.390 . S
C2363 C2364 1.387 . S
C2363 H2366 0.950 . S
C2364 C2363 1.387 . S
C2364 C2367 1.387 . S
H2365 C2361 0.950 . S
H2366 C2363 0.950 . S
C2367 C2358 1.390 . S
C2367 H2360 0.950 . S
C2367 C2364 1.387 . S
C2368 C2369 1.387 . S
C2368 H2372 0.950 . S
C2368 C2377 1.390 . S
C2369 C2368 1.387 . S
C2369 C2371 1.387 . S
H2370 C2377 0.950 . S
C2371 C2369 1.387 . S
C2371 C2373 1.390 . S
C2371 H2375 0.950 . S
H2372 C2368 0.950 . S
C2373 C2371 1.390 . S
C2373 C2374 1.387 . S
C2373 H2376 0.950 . S
C2374 C2373 1.387 . S
C2374 C2377 1.387 . S
H2375 C2371 0.950 . S
H2376 C2373 0.950 . S
C2377 C2368 1.390 . S
C2377 H2370 0.950 . S
C2377 C2374 1.387 . S
C2378 C2379 1.387 . S
C2378 H2382 0.950 . S
C2378 C2387 1.390 . S
C2379 C2378 1.387 . S
C2379 C2381 1.387 . S
H2380 C2387 0.950 . S
C2381 C2379 1.387 . S
C2381 C2383 1.390 . S
C2381 H2385 0.950 . S
H2382 C2378 0.950 . S
C2383 C2381 1.390 . S
C2383 C2384 1.387 . S
C2383 H2386 0.950 . S
C2384 C2383 1.387 . S
C2384 C2387 1.387 . S
H2385 C2381 0.950 . S
H2386 C2383 0.950 . S
C2387 C2378 1.390 . S
C2387 H2380 0.950 . S
C2387 C2384 1.387 . S
C2388 C2389 1.387 . S
C2388 H2392 0.950 . S
C2388 C2397 1.390 . S
C2389 C2388 1.387 . S
C2389 C2391 1.387 . S
H2390 C2397 0.950 . S
C2391 C2389 1.387 . S
C2391 C2393 1.390 . S
C2391 H2395 0.950 . S
H2392 C2388 0.950 . S
C2393 C2391 1.390 . S
C2393 C2394 1.387 . S
C2393 H2396 0.950 . S
C2394 C2393 1.387 . S
C2394 C2397 1.387 . S
H2395 C2391 0.950 . S
H2396 C2393 0.950 . S
C2397 C2388 1.390 . S
C2397 H2390 0.950 . S
C2397 C2394 1.387 . S
C2398 C2399 1.387 . S
C2398 H2402 0.950 . S
C2398 C2407 1.390 . S
C2399 C2398 1.387 . S
C2399 C2401 1.387 . S
H2400 C2407 0.950 . S
C2401 C2399 1.387 . S
C2401 C2403 1.390 . S
C2401 H2405 0.950 . S
H2402 C2398 0.950 . S
C2403 C2401 1.390 . S
C2403 C2404 1.387 . S
C2403 H2406 0.950 . S
C2404 C2403 1.387 . S
C2404 C2407 1.387 . S
H2405 C2401 0.950 . S
H2406 C2403 0.950 . S
C2407 C2398 1.390 . S
C2407 H2400 0.950 . S
C2407 C2404 1.387 . S
C2408 C2409 1.387 . S
C2408 H2412 0.950 . S
C2408 C2417 1.390 . S
C2409 C2408 1.387 . S
C2409 C2411 1.387 . S
H2410 C2417 0.950 . S
C2411 C2409 1.387 . S
C2411 C2413 1.390 . S
C2411 H2415 0.950 . S
H2412 C2408 0.950 . S
C2413 C2411 1.390 . S
C2413 C2414 1.387 . S
C2413 H2416 0.950 . S
C2414 C2413 1.387 . S
C2414 C2417 1.387 . S
H2415 C2411 0.950 . S
H2416 C2413 0.950 . S
C2417 C2408 1.390 . S
C2417 H2410 0.950 . S
C2417 C2414 1.387 . S
C2418 C2419 1.387 . S
C2418 H2422 0.950 . S
C2418 C2427 1.390 . S
C2419 C2418 1.387 . S
C2419 C2421 1.387 . S
H2420 C2427 0.950 . S
C2421 C2419 1.387 . S
C2421 C2423 1.390 . S
C2421 H2425 0.950 . S
H2422 C2418 0.950 . S
C2423 C2421 1.390 . S
C2423 C2424 1.387 . S
C2423 H2426 0.950 . S
C2424 C2423 1.387 . S
C2424 C2427 1.387 . S
H2425 C2421 0.950 . S
H2426 C2423 0.950 . S
C2427 C2418 1.390 . S
C2427 H2420 0.950 . S
C2427 C2424 1.387 . S
C2428 C2429 1.387 . S
C2428 H2432 0.950 . S
C2428 C2437 1.390 . S
C2429 C2428 1.387 . S
C2429 C2431 1.387 . S
H2430 C2437 0.950 . S
C2431 C2429 1.387 . S
C2431 C2433 1.390 . S
C2431 H2435 0.950 . S
H2432 C2428 0.950 . S
C2433 C2431 1.390 . S
C2433 C2434 1.387 . S
C2433 H2436 0.950 . S
C2434 C2433 1.387 . S
C2434 C2437 1.387 . S
H2435 C2431 0.950 . S
H2436 C2433 0.950 . S
C2437 C2428 1.390 . S
C2437 H2430 0.950 . S
C2437 C2434 1.387 . S
C2438 C2439 1.387 . S
C2438 H2442 0.950 . S
C2438 C2447 1.390 . S
C2439 C2438 1.387 . S
C2439 C2441 1.387 . S
H2440 C2447 0.950 . S
C2441 C2439 1.387 . S
C2441 C2443 1.390 . S
C2441 H2445 0.950 . S
H2442 C2438 0.950 . S
C2443 C2441 1.390 . S
C2443 C2444 1.387 . S
C2443 H2446 0.950 . S
C2444 C2443 1.387 . S
C2444 C2447 1.387 . S
H2445 C2441 0.950 . S
H2446 C2443 0.950 . S
C2447 C2438 1.390 . S
C2447 H2440 0.950 . S
C2447 C2444 1.387 . S
C2448 C2449 1.387 . S
C2448 H2452 0.950 . S
C2448 C2457 1.390 . S
C2449 C2448 1.387 . S
C2449 C2451 1.387 . S
H2450 C2457 0.950 . S
C2451 C2449 1.387 . S
C2451 C2453 1.390 . S
C2451 H2455 0.950 . S
H2452 C2448 0.950 . S
C2453 C2451 1.390 . S
C2453 C2454 1.387 . S
C2453 H2456 0.950 . S
C2454 C2453 1.387 . S
C2454 C2457 1.387 . S
H2455 C2451 0.950 . S
H2456 C2453 0.950 . S
C2457 C2448 1.390 . S
C2457 H2450 0.950 . S
C2457 C2454 1.387 . S
C2458 C2459 1.387 . S
C2458 H2462 0.950 . S
C2458 C2467 1.390 . S
C2459 C2458 1.387 . S
C2459 C2461 1.387 . S
H2460 C2467 0.950 . S
C2461 C2459 1.387 . S
C2461 C2463 1.390 . S
C2461 H2465 0.950 . S
H2462 C2458 0.950 . S
C2463 C2461 1.390 . S
C2463 C2464 1.387 . S
C2463 H2466 0.950 . S
C2464 C2463 1.387 . S
C2464 C2467 1.387 . S
H2465 C2461 0.950 . S
H2466 C2463 0.950 . S
C2467 C2458 1.390 . S
C2467 H2460 0.950 . S
C2467 C2464 1.387 . S
C2468 C2469 1.387 . S
C2468 H2472 0.950 . S
C2468 C2477 1.390 . S
C2469 C2468 1.387 . S
C2469 C2471 1.387 . S
H2470 C2477 0.950 . S
C2471 C2469 1.387 . S
C2471 C2473 1.390 . S
C2471 H2475 0.950 . S
H2472 C2468 0.950 . S
C2473 C2471 1.390 . S
C2473 C2474 1.387 . S
C2473 H2476 0.950 . S
C2474 C2473 1.387 . S
C2474 C2477 1.387 . S
H2475 C2471 0.950 . S
H2476 C2473 0.950 . S
C2477 C2468 1.390 . S
C2477 H2470 0.950 . S
C2477 C2474 1.387 . S
C2478 C2479 1.387 . S
C2478 H2482 0.950 . S
C2478 C2487 1.390 . S
C2479 C2478 1.387 . S
C2479 C2481 1.387 . S
H2480 C2487 0.950 . S
C2481 C2479 1.387 . S
C2481 C2483 1.390 . S
C2481 H2485 0.950 . S
H2482 C2478 0.950 . S
C2483 C2481 1.390 . S
C2483 C2484 1.387 . S
C2483 H2486 0.950 . S
C2484 C2483 1.387 . S
C2484 C2487 1.387 . S
H2485 C2481 0.950 . S
H2486 C2483 0.950 . S
C2487 C2478 1.390 . S
C2487 H2480 0.950 . S
C2487 C2484 1.387 . S
C2488 C2489 1.387 . S
C2488 H2492 0.950 . S
C2488 C2497 1.390 . S
C2489 C2488 1.387 . S
C2489 C2491 1.387 . S
H2490 C2497 0.950 . S
C2491 C2489 1.387 . S
C2491 C2493 1.390 . S
C2491 H2495 0.950 . S
H2492 C2488 0.950 . S
C2493 C2491 1.390 . S
C2493 C2494 1.387 . S
C2493 H2496 0.950 . S
C2494 C2493 1.387 . S
C2494 C2497 1.387 . S
H2495 C2491 0.950 . S
H2496 C2493 0.950 . S
C2497 C2488 1.390 . S
C2497 H2490 0.950 . S
C2497 C2494 1.387 . S
C2498 C2499 1.387 . S
C2498 H2502 0.950 . S
C2498 C2507 1.390 . S
C2499 C2498 1.387 . S
C2499 C2501 1.387 . S
H2500 C2507 0.950 . S
C2501 C2499 1.387 . S
C2501 C2503 1.390 . S
C2501 H2505 0.950 . S
H2502 C2498 0.950 . S
C2503 C2501 1.390 . S
C2503 C2504 1.387 . S
C2503 H2506 0.950 . S
C2504 C2503 1.387 . S
C2504 C2507 1.387 . S
H2505 C2501 0.950 . S
H2506 C2503 0.950 . S
C2507 C2498 1.390 . S
C2507 H2500 0.950 . S
C2507 C2504 1.387 . S
C2508 C2509 1.387 . S
C2508 H2512 0.950 . S
C2508 C2517 1.390 . S
C2509 C2508 1.387 . S
C2509 C2511 1.387 . S
H2510 C2517 0.950 . S
C2511 C2509 1.387 . S
C2511 C2513 1.390 . S
C2511 H2515 0.950 . S
H2512 C2508 0.950 . S
C2513 C2511 1.390 . S
C2513 C2514 1.387 . S
C2513 H2516 0.950 . S
C2514 C2513 1.387 . S
C2514 C2517 1.387 . S
H2515 C2511 0.950 . S
H2516 C2513 0.950 . S
C2517 C2508 1.390 . S
C2517 H2510 0.950 . S
C2517 C2514 1.387 . S
C2518 C2519 1.387 . S
C2518 H2522 0.950 . S
C2518 C2527 1.390 . S
C2519 C2518 1.387 . S
C2519 C2521 1.387 . S
H2520 C2527 0.950 . S
C2521 C2519 1.387 . S
C2521 C2523 1.390 . S
C2521 H2525 0.950 . S
H2522 C2518 0.950 . S
C2523 C2521 1.390 . S
C2523 C2524 1.387 . S
C2523 H2526 0.950 . S
C2524 C2523 1.387 . S
C2524 C2527 1.387 . S
H2525 C2521 0.950 . S
H2526 C2523 0.950 . S
C2527 C2518 1.390 . S
C2527 H2520 0.950 . S
C2527 C2524 1.387 . S
C2528 C2529 1.387 . S
C2528 H2532 0.950 . S
C2528 C2537 1.390 . S
C2529 C2528 1.387 . S
C2529 C2531 1.387 . S
H2530 C2537 0.950 . S
C2531 C2529 1.387 . S
C2531 C2533 1.390 . S
C2531 H2535 0.950 . S
H2532 C2528 0.950 . S
C2533 C2531 1.390 . S
C2533 C2534 1.387 . S
C2533 H2536 0.950 . S
C2534 C2533 1.387 . S
C2534 C2537 1.387 . S
H2535 C2531 0.950 . S
H2536 C2533 0.950 . S
C2537 C2528 1.390 . S
C2537 H2530 0.950 . S
C2537 C2534 1.387 . S
C2538 C2539 1.387 . S
C2538 H2542 0.950 . S
C2538 C2547 1.390 . S
C2539 C2538 1.387 . S
C2539 C2541 1.387 . S
H2540 C2547 0.950 . S
C2541 C2539 1.387 . S
C2541 C2543 1.390 . S
C2541 H2545 0.950 . S
H2542 C2538 0.950 . S
C2543 C2541 1.390 . S
C2543 C2544 1.387 . S
C2543 H2546 0.950 . S
C2544 C2543 1.387 . S
C2544 C2547 1.387 . S
H2545 C2541 0.950 . S
H2546 C2543 0.950 . S
C2547 C2538 1.390 . S
C2547 H2540 0.950 . S
C2547 C2544 1.387 . S
C2548 C2549 1.387 . S
C2548 H2552 0.950 . S
C2548 C2557 1.390 . S
C2549 C2548 1.387 . S
C2549 C2551 1.387 . S
H2550 C2557 0.950 . S
C2551 C2549 1.387 . S
C2551 C2553 1.390 . S
C2551 H2555 0.950 . S
H2552 C2548 0.950 . S
C2553 C2551 1.390 . S
C2553 C2554 1.387 . S
C2553 H2556 0.950 . S
C2554 C2553 1.387 . S
C2554 C2557 1.387 . S
H2555 C2551 0.950 . S
H2556 C2553 0.950 . S
C2557 C2548 1.390 . S
C2557 H2550 0.950 . S
C2557 C2554 1.387 . S
C2558 C2559 1.387 . S
C2558 H2562 0.950 . S
C2558 C2567 1.390 . S
C2559 C2558 1.387 . S
C2559 C2561 1.387 . S
H2560 C2567 0.950 . S
C2561 C2559 1.387 . S
C2561 C2563 1.390 . S
C2561 H2565 0.950 . S
H2562 C2558 0.950 . S
C2563 C2561 1.390 . S
C2563 C2564 1.387 . S
C2563 H2566 0.950 . S
C2564 C2563 1.387 . S
C2564 C2567 1.387 . S
H2565 C2561 0.950 . S
H2566 C2563 0.950 . S
C2567 C2558 1.390 . S
C2567 H2560 0.950 . S
C2567 C2564 1.387 . S
C2568 C2569 1.387 . S
C2568 H2572 0.950 . S
C2568 C2577 1.390 . S
C2569 C2568 1.387 . S
C2569 C2571 1.387 . S
H2570 C2577 0.950 . S
C2571 C2569 1.387 . S
C2571 C2573 1.390 . S
C2571 H2575 0.950 . S
H2572 C2568 0.950 . S
C2573 C2571 1.390 . S
C2573 C2574 1.387 . S
C2573 H2576 0.950 . S
C2574 C2573 1.387 . S
C2574 C2577 1.387 . S
H2575 C2571 0.950 . S
H2576 C2573 0.950 . S
C2577 C2568 1.390 . S
C2577 H2570 0.950 . S
C2577 C2574 1.387 . S
C2578 C2579 1.387 . S
C2578 H2582 0.950 . S
C2578 C2587 1.390 . S
C2579 C2578 1.387 . S
C2579 C2581 1.387 . S
H2580 C2587 0.950 . S
C2581 C2579 1.387 . S
C2581 C2583 1.390 . S
C2581 H2585 0.950 . S
H2582 C2578 0.950 . S
C2583 C2581 1.390 . S
C2583 C2584 1.387 . S
C2583 H2586 0.950 . S
C2584 C2583 1.387 . S
C2584 C2587 1.387 . S
H2585 C2581 0.950 . S
H2586 C2583 0.950 . S
C2587 C2578 1.390 . S
C2587 H2580 0.950 . S
C2587 C2584 1.387 . S
C2588 C2589 1.387 . S
C2588 H2592 0.950 . S
C2588 C2597 1.390 . S
C2589 C2588 1.387 . S
C2589 C2591 1.387 . S
H2590 C2597 0.950 . S
C2591 C2589 1.387 . S
C2591 C2593 1.390 . S
C2591 H2595 0.950 . S
H2592 C2588 0.950 . S
C2593 C2591 1.390 . S
C2593 C2594 1.387 . S
C2593 H2596 0.950 . S
C2594 C2593 1.387 . S
C2594 C2597 1.387 . S
H2595 C2591 0.950 . S
H2596 C2593 0.950 . S
C2597 C2588 1.390 . S
C2597 H2590 0.950 . S
C2597 C2594 1.387 . S
C2598 C2599 1.387 . S
C2598 H2602 0.950 . S
C2598 C2607 1.390 . S
C2599 C2598 1.387 . S
C2599 C2601 1.387 . S
H2600 C2607 0.950 . S
C2601 C2599 1.387 . S
C2601 C2603 1.390 . S
C2601 H2605 0.950 . S
H2602 C2598 0.950 . S
C2603 C2601 1.390 . S
C2603 C2604 1.387 . S
C2603 H2606 0.950 . S
C2604 C2603 1.387 . S
C2604 C2607 1.387 . S
H2605 C2601 0.950 . S
H2606 C2603 0.950 . S
C2607 C2598 1.390 . S
C2607 H2600 0.950 . S
C2607 C2604 1.387 . S
C2608 C2609 1.387 . S
C2608 H2612 0.950 . S
C2608 C2617 1.390 . S
C2609 C2608 1.387 . S
C2609 C2611 1.387 . S
H2610 C2617 0.950 . S
C2611 C2609 1.387 . S
C2611 C2613 1.390 . S
C2611 H2615 0.950 . S
H2612 C2608 0.950 . S
C2613 C2611 1.390 . S
C2613 C2614 1.387 . S
C2613 H2616 0.950 . S
C2614 C2613 1.387 . S
C2614 C2617 1.387 . S
H2615 C2611 0.950 . S
H2616 C2613 0.950 . S
C2617 C2608 1.390 . S
C2617 H2610 0.950 . S
C2617 C2614 1.387 . S
C2618 C2619 1.387 . S
C2618 H2622 0.950 . S
C2618 C2627 1.390 . S
C2619 C2618 1.387 . S
C2619 C2621 1.387 . S
H2620 C2627 0.950 . S
C2621 C2619 1.387 . S
C2621 C2623 1.390 . S
C2621 H2625 0.950 . S
H2622 C2618 0.950 . S
C2623 C2621 1.390 . S
C2623 C2624 1.387 . S
C2623 H2626 0.950 . S
C2624 C2623 1.387 . S
C2624 C2627 1.387 . S
H2625 C2621 0.950 . S
H2626 C2623 0.950 . S
C2627 C2618 1.390 . S
C2627 H2620 0.950 . S
C2627 C2624 1.387 . S
C2628 C2629 1.387 . S
C2628 H2632 0.950 . S
C2628 C2637 1.390 . S
C2629 C2628 1.387 . S
C2629 C2631 1.387 . S
H2630 C2637 0.950 . S
C2631 C2629 1.387 . S
C2631 C2633 1.390 . S
C2631 H2635 0.950 . S
H2632 C2628 0.950 . S
C2633 C2631 1.390 . S
C2633 C2634 1.387 . S
C2633 H2636 0.950 . S
C2634 C2633 1.387 . S
C2634 C2637 1.387 . S
H2635 C2631 0.950 . S
H2636 C2633 0.950 . S
C2637 C2628 1.390 . S
C2637 H2630 0.950 . S
C2637 C2634 1.387 . S
C2638 C2639 1.387 . S
C2638 H2642 0.950 . S
C2638 C2647 1.390 . S
C2639 C2638 1.387 . S
C2639 C2641 1.387 . S
H2640 C2647 0.950 . S
C2641 C2639 1.387 . S
C2641 C2643 1.390 . S
C2641 H2645 0.950 . S
H2642 C2638 0.950 . S
C2643 C2641 1.390 . S
C2643 C2644 1.387 . S
C2643 H2646 0.950 . S
C2644 C2643 1.387 . S
C2644 C2647 1.387 . S
H2645 C2641 0.950 . S
H2646 C2643 0.950 . S
C2647 C2638 1.390 . S
C2647 H2640 0.950 . S
C2647 C2644 1.387 . S
C2648 C2649 1.387 . S
C2648 H2652 0.950 . S
C2648 C2657 1.390 . S
C2649 C2648 1.387 . S
C2649 C2651 1.387 . S
H2650 C2657 0.950 . S
C2651 C2649 1.387 . S
C2651 C2653 1.390 . S
C2651 H2655 0.950 . S
H2652 C2648 0.950 . S
C2653 C2651 1.390 . S
C2653 C2654 1.387 . S
C2653 H2656 0.950 . S
C2654 C2653 1.387 . S
C2654 C2657 1.387 . S
H2655 C2651 0.950 . S
H2656 C2653 0.950 . S
C2657 C2648 1.390 . S
C2657 H2650 0.950 . S
C2657 C2654 1.387 . S
C2658 C2659 1.387 . S
C2658 H2662 0.950 . S
C2658 C2667 1.390 . S
C2659 C2658 1.387 . S
C2659 C2661 1.387 . S
H2660 C2667 0.950 . S
C2661 C2659 1.387 . S
C2661 C2663 1.390 . S
C2661 H2665 0.950 . S
H2662 C2658 0.950 . S
C2663 C2661 1.390 . S
C2663 C2664 1.387 . S
C2663 H2666 0.950 . S
C2664 C2663 1.387 . S
C2664 C2667 1.387 . S
H2665 C2661 0.950 . S
H2666 C2663 0.950 . S
C2667 C2658 1.390 . S
C2667 H2660 0.950 . S
C2667 C2664 1.387 . S
C2668 C2669 1.387 . S
C2668 H2672 0.950 . S
C2668 C2677 1.390 . S
C2669 C2668 1.387 . S
C2669 C2671 1.387 . S
H2670 C2677 0.950 . S
C2671 C2669 1.387 . S
C2671 C2673 1.390 . S
C2671 H2675 0.950 . S
H2672 C2668 0.950 . S
C2673 C2671 1.390 . S
C2673 C2674 1.387 . S
C2673 H2676 0.950 . S
C2674 C2673 1.387 . S
C2674 C2677 1.387 . S
H2675 C2671 0.950 . S
H2676 C2673 0.950 . S
C2677 C2668 1.390 . S
C2677 H2670 0.950 . S
C2677 C2674 1.387 . S
C2678 C2679 1.387 . S
C2678 H2682 0.950 . S
C2678 C2687 1.390 . S
C2679 C2678 1.387 . S
C2679 C2681 1.387 . S
H2680 C2687 0.950 . S
C2681 C2679 1.387 . S
C2681 C2683 1.390 . S
C2681 H2685 0.950 . S
H2682 C2678 0.950 . S
C2683 C2681 1.390 . S
C2683 C2684 1.387 . S
C2683 H2686 0.950 . S
C2684 C2683 1.387 . S
C2684 C2687 1.387 . S
H2685 C2681 0.950 . S
H2686 C2683 0.950 . S
C2687 C2678 1.390 . S
C2687 H2680 0.950 . S
C2687 C2684 1.387 . S
C1729 C1119 1.397 . S
C1734 C3 1.397 . S
C1739 C39 1.397 . S
C1744 C1011 1.397 . S
C1749 C75 1.397 . S
C1754 C1047 1.397 . S
C1759 C1083 1.397 . S
C1764 C111 1.397 . S
C1769 C903 1.397 . S
C1774 C147 1.397 . S
C1779 C183 1.397 . S
C1784 C939 1.397 . S
C1789 C975 1.397 . S
C1794 C219 1.397 . S
C1799 C255 1.397 . S
C1804 C867 1.397 . S
C1809 C291 1.397 . S
C1814 C1587 1.397 . S
C1819 C1479 1.397 . S
C1824 C327 1.397 . S
C1829 C1515 1.397 . S
C1834 C363 1.397 . S
C1839 C399 1.397 . S
C1844 C1551 1.397 . S
C1849 C435 1.397 . S
C1854 C1695 1.397 . S
C1859 C471 1.397 . S
C1864 C1623 1.397 . S
C1869 C507 1.397 . S
C1874 C1659 1.397 . S
C1879 C1443 1.397 . S
C1884 C543 1.397 . S
C1889 C1407 1.397 . S
C1894 C579 1.397 . S
C1899 C615 1.397 . S
C1904 C1191 1.397 . S
C1909 C1227 1.397 . S
C1914 C651 1.397 . S
C1919 C687 1.397 . S
C1924 C1263 1.397 . S
C1929 C1155 1.397 . S
C1934 C723 1.397 . S
C1939 C1335 1.397 . S
C1944 C759 1.397 . S
C1949 C795 1.397 . S
C1954 C1371 1.397 . S
C1959 C1299 1.397 . S
C1964 C831 1.397 . S
C1969 C326 1.375 . S
C1974 C2 1.375 . S
C1979 C362 1.374 . S
C1984 C38 1.375 . S
C1989 C74 1.375 . S
C1994 C398 1.373 . S
C1999 C290 1.373 . S
C2004 C110 1.375 . S
C2009 C146 1.375 . S
C2014 C542 1.375 . S
C2019 C434 1.373 . S
C2024 C182 1.375 . S
C2029 C470 1.373 . S
C2034 C218 1.373 . S
C2039 C506 1.374 . S
C2044 C254 1.373 . S
C2049 C650 1.374 . S
C2054 C578 1.373 . S
C2059 C794 1.374 . S
C2064 C614 1.373 . S
C2069 C830 1.374 . S
C2074 C686 1.375 . S
C2079 C722 1.375 . S
C2084 C758 1.373 . S
C2089 C1190 1.373 . S
C2094 C866 1.373 . S
C2099 C1226 1.374 . S
C2104 C902 1.375 . S
C2109 C1262 1.374 . S
C2114 C938 1.373 . S
C2119 C974 1.375 . S
C2124 C1154 1.374 . S
C2129 C1010 1.374 . S
C2134 C1406 1.375 . S
C2139 C1046 1.375 . S
C2144 C1298 1.373 . S
C2149 C1334 1.374 . S
C2154 C1082 1.373 . S
C2159 C1370 1.374 . S
C2164 C1118 1.373 . S
C2169 C1442 1.373 . S
C2174 C1514 1.374 . S
C2179 C1658 1.373 . S
C2184 C1478 1.375 . S
C2189 C1694 1.373 . S
C2194 C1550 1.375 . S
C2199 C1622 1.373 . S
C2204 C1586 1.374 . S
C2209 C14 1.408 . S
C2214 C652 1.396 . S
C2219 C50 1.408 . S
C2224 C688 1.397 . S
C2229 C86 1.408 . S
C2234 C724 1.396 . S
C2239 C616 1.398 . S
C2244 C122 1.408 . S
C2249 C158 1.408 . S
C2254 C796 1.397 . S
C2259 C194 1.408 . S
C2264 C580 1.396 . S
C2269 C832 1.396 . S
C2274 C230 1.410 . S
C2279 C760 1.397 . S
C2284 C266 1.409 . S
C2289 C302 1.408 . S
C2294 C328 1.398 . S
C2299 C338 1.408 . S
C2304 C364 1.396 . S
C2309 C374 1.408 . S
C2314 C400 1.397 . S
C2319 C292 1.395 . S
C2324 C410 1.410 . S
C2329 C544 1.397 . S
C2334 C446 1.408 . S
C2339 C436 1.396 . S
C2344 C482 1.410 . S
C2349 C472 1.396 . S
C2354 C518 1.410 . S
C2359 C554 1.408 . S
C2364 C508 1.397 . S
C2369 C112 1.395 . S
C2374 C590 1.410 . S
C2379 C184 1.396 . S
C2384 C626 1.408 . S
C2389 C220 1.395 . S
C2394 C662 1.410 . S
C2399 C698 1.408 . S
C2404 C256 1.398 . S
C2409 C148 1.397 . S
C2414 C734 1.408 . S
C2419 C40 1.395 . S
C2424 C770 1.410 . S
C2429 C76 1.395 . S
C2434 C806 1.410 . S
C2439 C4 1.395 . S
C2444 C842 1.410 . S
C2449 C1516 1.395 . S
C2454 C878 1.410 . S
C2459 C914 1.410 . S
C2464 C1552 1.395 . S
C2469 C1588 1.396 . S
C2474 C950 1.410 . S
C2479 C1480 1.396 . S
C2484 C986 1.410 . S
C2489 C1022 1.408 . S
C2494 C1660 1.397 . S
C2499 C1058 1.409 . S
C2504 C1444 1.398 . S
C2509 C1696 1.397 . S
C2514 C1094 1.408 . S
C2519 C1130 1.408 . S
C2524 C1624 1.397 . S
C2529 C1166 1.410 . S
C2534 C1192 1.395 . S
C2539 C1202 1.410 . S
C2544 C1228 1.396 . S
C2549 C1238 1.410 . S
C2554 C1264 1.396 . S
C2559 C1274 1.408 . S
C2564 C1156 1.397 . S
C2569 C1408 1.397 . S
C2574 C1310 1.408 . S
C2579 C1300 1.396 . S
C2584 C1346 1.410 . S
C2589 C1336 1.397 . S
C2594 C1382 1.408 . S
C2599 C1418 1.408 . S
C2604 C1372 1.396 . S
C2609 C976 1.396 . S
C2614 C1454 1.410 . S
C2619 C1048 1.397 . S
C2624 C1490 1.408 . S
C2629 C1084 1.395 . S
C2634 C1526 1.410 . S
C2639 C1562 1.409 . S
C2644 C1120 1.395 . S
C2649 C1012 1.395 . S
C2654 C1598 1.410 . S
C2659 C904 1.397 . S
C2664 C1634 1.410 . S
C2669 C1670 1.409 . S
C2674 C940 1.395 . S
C2679 C868 1.397 . S
C2684 C1706 1.408 . S
