# Generated by pormake.
# Topology rkf, (6)-cn, num edge types: 1
# Building blocks:
#     Node 0, Type 0, BuildingBlock: MIFKUJ_clean_sbu_0, # of connection points: 6
#     Node 1, Type 0, BuildingBlock: MIFKUJ_clean_sbu_0, # of connection points: 6
#     Node 2, Type 0, BuildingBlock: MIFKUJ_clean_sbu_0, # of connection points: 6
#     Node 3, Type 0, BuildingBlock: MIFKUJ_clean_sbu_0, # of connection points: 6
#     Node 4, Type 0, BuildingBlock: MIFKUJ_clean_sbu_0, # of connection points: 6
#     Node 5, Type 0, BuildingBlock: MIFKUJ_clean_sbu_0, # of connection points: 6
#     Edge 6, Type (0, 0), BuildingBlock: ZUJKAS_clean_linker_0, # of connection points: 2
#     Edge 7, Type (0, 0), BuildingBlock: ZUJKAS_clean_linker_0, # of connection points: 2
#     Edge 8, Type (0, 0), BuildingBlock: ZUJKAS_clean_linker_0, # of connection points: 2
#     Edge 9, Type (0, 0), BuildingBlock: ZUJKAS_clean_linker_0, # of connection points: 2
#     Edge 10, Type (0, 0), BuildingBlock: ZUJKAS_clean_linker_0, # of connection points: 2
#     Edge 11, Type (0, 0), BuildingBlock: ZUJKAS_clean_linker_0, # of connection points: 2
#     Edge 12, Type (0, 0), BuildingBlock: ZUJKAS_clean_linker_0, # of connection points: 2
#     Edge 13, Type (0, 0), BuildingBlock: ZUJKAS_clean_linker_0, # of connection points: 2
#     Edge 14, Type (0, 0), BuildingBlock: ZUJKAS_clean_linker_0, # of connection points: 2
#     Edge 15, Type (0, 0), BuildingBlock: ZUJKAS_clean_linker_0, # of connection points: 2
#     Edge 16, Type (0, 0), BuildingBlock: ZUJKAS_clean_linker_0, # of connection points: 2
#     Edge 17, Type (0, 0), BuildingBlock: ZUJKAS_clean_linker_0, # of connection points: 2
#     Edge 18, Type (0, 0), BuildingBlock: ZUJKAS_clean_linker_0, # of connection points: 2
#     Edge 19, Type (0, 0), BuildingBlock: ZUJKAS_clean_linker_0, # of connection points: 2
#     Edge 20, Type (0, 0), BuildingBlock: ZUJKAS_clean_linker_0, # of connection points: 2
#     Edge 21, Type (0, 0), BuildingBlock: ZUJKAS_clean_linker_0, # of connection points: 2
#     Edge 22, Type (0, 0), BuildingBlock: ZUJKAS_clean_linker_0, # of connection points: 2
#     Edge 23, Type (0, 0), BuildingBlock: ZUJKAS_clean_linker_0, # of connection points: 2
# Relax obj value: 0.357
# Max RMSD: 0.298
# Mean RMSD: 0.298
data_MOF--net-rkf--node1-MIFKUJ_clean_sbu_0--edge1-ZUJKAS_clean_linker_0
_symmetry_space_group_name_H-M    P1
_symmetry_Int_Tables_number       1
_symmetry_cell_setting            triclinic
loop_
_symmetry_equiv_pos_as_xyz
'x, y, z'
_cell_length_a     29.68269
_cell_length_b     29.5935
_cell_length_c     57.966152
_cell_angle_alpha  90.024872
_cell_angle_beta   90.007764
_cell_angle_gamma 119.97752
loop_
_atom_site_label
_atom_site_type_symbol
_atom_site_fract_x
_atom_site_fract_y
_atom_site_fract_z
_atom_type_partial_charge
Zn0 Zn 0.28556 0.10972 0.96659 0.0
Zn1 Zn 0.31017 0.11972 0.03952 0.0
C2 C 0.22157 -0.00331 0.96643 0.0
O3 O 0.25859 -0.00194 0.97932 0.0
C4 C 0.36435 0.20376 0.0705 0.0
O5 O 0.31945 0.20245 0.06995 0.0
O6 O 0.29161 0.14836 0.93671 0.0
O7 O 0.28057 0.14815 0.99471 0.0
O8 O 0.25842 0.1421 0.03076 0.0
C9 C 0.25869 0.16355 0.93399 0.0
O10 O 0.22863 0.15942 0.95143 0.0
O11 O 0.22304 0.03914 0.96121 0.0
C12 C 0.26862 0.01539 0.06491 0.0
O13 O 0.2956 0.00164 0.05162 0.0
O14 O 0.27117 0.05914 0.06176 0.0
O15 O 0.33222 0.10573 0.00869 0.0
O16 O 0.34607 0.09694 0.97252 0.0
O17 O 0.37146 0.17434 0.0569 0.0
C18 C 0.24491 0.12982 0.00987 0.0
C19 C 0.35669 0.09523 0.9937 0.0
Zn20 Zn 0.27257 0.14032 0.39825 0.0
Zn21 Zn 0.28471 0.15434 0.32472 0.0
C22 C 0.21163 0.18991 0.40704 0.0
O23 O 0.24829 0.22859 0.39517 0.0
C24 C 0.32508 0.13027 0.2865 0.0
O25 O 0.27501 0.09724 0.28436 0.0
O26 O 0.28667 0.10592 0.42534 0.0
O27 O 0.26079 0.09775 0.36955 0.0
O28 O 0.23433 0.08042 0.33423 0.0
C29 C 0.25647 0.05697 0.42753 0.0
O30 O 0.22176 0.03176 0.41137 0.0
O31 O 0.21146 0.14694 0.40821 0.0
C32 C 0.25857 0.21294 0.29094 0.0
O33 O 0.3089 0.24532 0.28963 0.0
O34 O 0.24134 0.17594 0.30553 0.0
O35 O 0.31449 0.19232 0.35486 0.0
O36 O 0.33276 0.21303 0.39115 0.0
O37 O 0.341 0.15891 0.30432 0.0
C38 C 0.22348 0.08153 0.35531 0.0
C39 C 0.34171 0.22606 0.36996 0.0
Zn40 Zn 0.88455 0.13245 0.63165 0.0
Zn41 Zn 0.91288 0.11578 0.70049 0.0
C42 C 0.98887 0.20647 0.61533 0.0
O43 O 0.97849 0.24237 0.62255 0.0
C44 C 0.86352 0.05708 0.7401 0.0
O45 O 0.89672 0.04081 0.73625 0.0
O46 O 0.83476 0.09823 0.605 0.0
O47 O 0.87243 0.08322 0.65684 0.0
O48 O 0.91099 0.05819 0.68076 0.0
C49 C 0.84932 0.11903 0.58518 0.0
O50 O 0.88946 0.16647 0.58379 0.0
O51 O 0.95596 0.15868 0.61876 0.0
C52 C 0.98718 0.17445 0.73627 0.0
O53 O 0.9491 0.18192 0.74295 0.0
O54 O 0.98232 0.15033 0.71742 0.0
O55 O 0.90133 0.16757 0.68098 0.0
O56 O 0.88315 0.19163 0.64769 0.0
O57 O 0.85955 0.08664 0.72537 0.0
C58 C 0.89679 0.05899 0.66023 0.0
C59 C 0.8943 0.19994 0.66913 0.0
Zn60 Zn 0.88739 0.05956 0.04912 0.0
Zn61 Zn 0.81648 0.06296 0.98621 0.0
C62 C 0.86985 0.95601 0.05045 0.0
O63 O 0.82344 0.93859 0.04144 0.0
C64 C 0.76665 0.12583 0.97492 0.0
O65 O 0.74807 0.15638 0.98047 0.0
O66 O 0.92585 0.0998 0.07804 0.0
O67 O 0.90402 0.10772 0.02112 0.0
O68 O 0.89472 0.10893 0.98401 0.0
C69 C 0.97012 0.10406 0.08172 0.0
O70 O 0.98986 0.08703 0.06598 0.0
O71 O 0.90485 0.00229 0.04571 0.0
C72 C 0.77166 0.96974 0.95398 0.0
O73 O 0.75108 0.93925 0.97197 0.0
O74 O 0.79651 0.019 0.95676 0.0
O75 O 0.81164 0.02536 0.01602 0.0
O76 O 0.80892 0.02612 0.05339 0.0
O77 O 0.78266 0.10748 0.99067 0.0
C78 C 0.91616 0.09995 1.00105 0.0
C79 C 0.78549 0.01937 0.03422 0.0
Zn80 Zn 0.90898 0.77193 0.30214 0.0
Zn81 Zn 0.86766 0.75171 0.37384 0.0
C82 C 0.86316 0.8317 0.28521 0.0
O83 O 0.81936 0.79177 0.29239 0.0
C84 C 0.90135 0.7028 0.4073 0.0
O85 O 0.94758 0.73607 0.39916 0.0
O86 O 0.95233 0.76286 0.27744 0.0
O87 O 0.93973 0.78128 0.33379 0.0
O88 O 0.94232 0.80762 0.36891 0.0
C89 C -0.0039 0.80359 0.27372 0.0
O90 O 0.01147 0.84337 0.28785 0.0
O91 O 0.90575 0.83413 0.29061 0.0
C92 C 0.80578 0.77403 0.40602 0.0
O93 O 0.79142 0.72697 0.41367 0.0
O94 O 0.83425 0.79057 0.38811 0.0
O95 O 0.84076 0.72248 0.34188 0.0
O96 O 0.83581 0.70959 0.30454 0.0
O97 O 0.86145 0.69857 0.39721 0.0
C98 C 0.95037 0.81851 0.34762 0.0
C99 C 0.81464 0.69677 0.32441 0.0
Zn100 Zn -0.00578 0.80085 0.72165 0.0
Zn101 Zn 0.07128 0.80221 0.67773 0.0
C102 C 0.04671 0.78487 0.75617 0.0
O103 O 0.00122 0.74195 0.75529 0.0
C104 C 0.02355 0.7985 0.63414 0.0
O105 O 0.07052 0.8374 0.63027 0.0
O106 O 0.94535 0.80353 0.74571 0.0
O107 O 0.00635 0.85304 0.6968 0.0
O108 O 0.08537 0.86837 0.69296 0.0
C109 C 0.90014 0.79834 0.74518 0.0
O110 O 0.87398 0.7859 0.72571 0.0
O111 O 0.05698 0.82061 0.74141 0.0
C112 C 0.13433 0.79143 0.6426 0.0
O113 O 0.09481 0.74353 0.64151 0.0
O114 O 0.13593 0.82045 0.65914 0.0
O115 O 0.05106 0.74277 0.6997 0.0
O116 O 0.97207 0.72761 0.70976 0.0
O117 O 0.01278 0.77736 0.654 0.0
C118 C 0.05124 0.88044 0.68808 0.0
C119 C 0.00489 0.7121 0.70679 0.0
H120 H 0.00344 0.10195 0.01528 0.0
H121 H 0.02235 0.03058 0.01413 0.0
H122 H 0.87425 0.93116 0.98134 0.0
H123 H 0.85656 0.00355 0.98193 0.0
H124 H 0.96178 0.92561 0.03425 0.0
H125 H 0.97622 0.91375 0.93938 0.0
H126 H 0.9737 0.96991 0.94969 0.0
H127 H 0.91846 0.90576 0.95355 0.0
C128 C 0.97535 0.06507 0.00762 0.0
C129 C 0.92866 0.05807 0.9986 0.0
C130 C 0.98574 0.02411 0.00713 0.0
C131 C 0.94925 0.97518 0.9979 0.0
C132 C 0.90284 0.96836 0.98854 0.0
H133 H 0.22753 0.03434 0.02351 0.0
H134 H 0.1479 0.94998 0.01826 0.0
C135 C 0.8929 0.0098 0.98874 0.0
C136 C 0.96306 0.93369 0.9973 0.0
H137 H 0.04992 0.92705 0.96172 0.0
C138 C 0.97955 0.92316 0.01828 0.0
C139 C 0.9827 0.9251 0.97658 0.0
C140 C 0.9616 0.92858 0.95343 0.0
C141 C 0.02673 0.92319 0.01918 0.0
C142 C 0.05615 0.93453 0.99865 0.0
C143 C 0.02914 0.9235 0.97761 0.0
C144 C 0.10821 0.98212 0.9988 0.0
C145 C 0.04968 0.92337 0.04237 0.0
C146 C 0.11307 0.02827 0.98928 0.0
C147 C 0.15797 0.07612 0.99262 0.0
C148 C 0.19894 0.07892 0.0055 0.0
C149 C 0.19528 0.033 0.01437 0.0
C150 C 0.15018 0.98478 0.01103 0.0
H151 H 0.01887 0.904 0.05566 0.0
H152 H 0.07245 0.90299 0.04137 0.0
H153 H 0.07601 0.96424 0.04795 0.0
H154 H 0.08107 0.02788 0.98013 0.0
H155 H 0.15994 0.11113 0.98579 0.0
H156 H 0.02693 0.90798 0.32993 0.0
H157 H 0.02613 0.98905 0.32528 0.0
H158 H 0.8627 0.91059 0.34287 0.0
H159 H 0.8642 0.8289 0.34755 0.0
H160 H 0.97555 0.03741 0.30392 0.0
H161 H 0.91605 0.01193 0.39511 0.0
H162 H 0.92364 0.95908 0.38446 0.0
H163 H 0.8743 0.97057 0.37233 0.0
C164 C 0.99061 0.90786 0.33212 0.0
C165 C 0.94608 0.8631 0.33962 0.0
C166 C 0.98979 0.95413 0.32935 0.0
C167 C 0.9444 0.95655 0.33422 0.0
C168 C 0.8984 0.91026 0.33954 0.0
H169 H 0.21927 0.171 0.34909 0.0
H170 H 0.14073 0.17843 0.34901 0.0
C171 C 0.89936 0.86378 0.34235 0.0
C172 C 0.95008 0.00875 0.33828 0.0
H173 H 0.00624 0.0759 0.38722 0.0
C174 C 0.98075 0.04728 0.32212 0.0
C175 C 0.95288 0.02473 0.36152 0.0
C176 C 0.91442 0.98972 0.37937 0.0
C177 C 0.02717 0.09105 0.32946 0.0
C178 C 0.0398 0.09544 0.35325 0.0
C179 C -0.00145 0.06929 0.36887 0.0
C180 C 0.08975 0.09869 0.35984 0.0
C181 C 0.06638 0.12482 0.31158 0.0
C182 C 0.08822 0.0527 0.36758 0.0
C183 C 0.13294 0.04861 0.36773 0.0
C184 C 0.18006 0.09037 0.36026 0.0
C185 C 0.1829 0.13789 0.35448 0.0
C186 C 0.13806 0.14222 0.35449 0.0
H187 H 0.04769 0.1219 0.2946 0.0
H188 H 0.08689 0.16622 0.31716 0.0
H189 H 0.09549 0.11209 0.30929 0.0
H190 H 0.05162 0.01818 0.37176 0.0
H191 H 0.12998 0.01166 0.37219 0.0
H192 H 0.9776 0.89551 0.66749 0.0
H193 H 0.98103 0.93179 0.62993 0.0
H194 H 0.13997 0.96672 0.62141 0.0
H195 H 0.13745 0.93269 0.66019 0.0
H196 H 0.99267 0.90223 0.58664 0.0
H197 H 0.16203 0.09983 0.59723 0.0
H198 H 0.16674 0.04144 0.59896 0.0
H199 H 0.14359 0.06183 0.62333 0.0
C200 C 0.01364 0.91155 0.65787 0.0
C201 C 0.05689 0.91033 0.66675 0.0
C202 C 0.01544 0.93163 0.63604 0.0
C203 C 0.06038 0.95084 0.6222 0.0
C204 C 0.10477 0.95223 0.63148 0.0
H205 H 0.98648 0.0566 0.66253 0.0
H206 H 0.03265 0.04316 0.6318 0.0
C207 C 0.10328 0.93288 0.65376 0.0
C208 C 0.05959 0.97239 0.59907 0.0
H209 H 0.07976 0.09409 0.59012 0.0
C210 C 0.01287 0.94451 0.58659 0.0
C211 C 0.08833 0.02704 0.59576 0.0
C212 C 0.14337 0.05951 0.60422 0.0
C213 C 0.98509 0.96969 0.58057 0.0
C214 C 0.00666 0.02267 0.58676 0.0
C215 C 0.06123 0.05208 0.58831 0.0
C216 C 0.97826 0.03485 0.60462 0.0
C217 C 0.9294 0.93753 0.57291 0.0
C218 C 0.93088 0.03315 0.60024 0.0
C219 C 0.90327 0.03949 0.61842 0.0
C220 C 0.92309 0.0486 0.64106 0.0
C221 C 0.97008 0.04986 0.64533 0.0
C222 C -0.00291 0.04299 0.62746 0.0
H223 H 0.92258 0.9014 0.56399 0.0
H224 H 0.90349 0.926 0.58822 0.0
H225 H 0.91895 0.96037 0.5611 0.0
H226 H 0.91507 0.02661 0.58295 0.0
H227 H 0.86631 0.03679 0.61485 0.0
H228 H 0.19802 0.20599 0.92387 0.0
H229 H 0.16972 0.2176 0.8859 0.0
H230 H 0.26562 0.16434 0.85359 0.0
H231 H 0.29414 0.15224 0.89171 0.0
H232 H 0.22635 0.27649 0.84563 0.0
H233 H 0.1156 0.06186 0.83044 0.0
H234 H 0.13883 0.08933 0.8587 0.0
H235 H 0.18346 0.0906 0.83749 0.0
C236 C 0.21374 0.19736 0.90872 0.0
C237 C 0.24811 0.17782 0.91087 0.0
C238 C 0.19752 0.2041 0.887 0.0
C239 C 0.21495 0.19114 0.86693 0.0
C240 C 0.25115 0.17392 0.86888 0.0
H241 H 0.06505 0.15043 0.73148 0.0
H242 H 0.1294 0.16023 0.76053 0.0
C243 C 0.26769 0.16739 0.89068 0.0
C244 C 0.19255 0.19306 0.84426 0.0
H245 H 0.10658 0.11491 0.80301 0.0
C246 C 0.20067 0.24125 0.83613 0.0
C247 C 0.15926 0.14708 0.83182 0.0
C248 C 0.14829 0.09413 0.84001 0.0
C249 C 0.1753 0.24454 0.81625 0.0
C250 C 0.13989 0.19828 0.80449 0.0
C251 C 0.13363 0.15036 0.81203 0.0
C252 C 0.1054 0.19792 0.78575 0.0
C253 C 0.18635 0.29756 0.80817 0.0
C254 C 0.07074 0.2162 0.79014 0.0
C255 C 0.03407 0.21075 0.77361 0.0
C256 C 0.03083 0.18647 0.75232 0.0
C257 C 0.0666 0.16955 0.74764 0.0
C258 C 0.10334 0.175 0.76425 0.0
H259 H 0.22572 0.32853 0.81361 0.0
H260 H 0.18342 0.29884 0.78911 0.0
H261 H 0.15762 0.30655 0.81601 0.0
H262 H 0.0706 0.23286 0.80676 0.0
H263 H 0.00703 0.22399 0.77788 0.0
H264 H 0.16284 0.13288 0.27882 0.0
H265 H 0.11175 0.12711 0.24487 0.0
H266 H 0.22263 0.28681 0.22777 0.0
H267 H 0.27521 0.29214 0.26136 0.0
H268 H 0.06258 0.17345 0.22777 0.0
H269 H 0.22906 0.21561 0.1705 0.0
H270 H 0.23045 0.20535 0.20104 0.0
H271 H 0.24197 0.2673 0.19028 0.0
C272 C 0.17602 0.16714 0.26808 0.0
C273 C 0.22347 0.21283 0.27267 0.0
C274 C 0.14672 0.16373 0.24859 0.0
C275 C 0.16398 0.20602 0.23331 0.0
C276 C 0.20933 0.25304 0.23882 0.0
H277 H 0.96194 0.16931 0.11324 0.0
H278 H 0.00887 0.2004 0.14999 0.0
C279 C 0.23917 0.2562 0.25815 0.0
C280 C 0.13617 0.19918 0.211 0.0
H281 H 0.15226 0.2016 0.15256 0.0
C282 C 0.08222 0.17984 0.2113 0.0
C283 C 0.16163 0.20699 0.18946 0.0
C284 C 0.21882 0.22446 0.1877 0.0
C285 C 0.05288 0.16675 0.1908 0.0
C286 C 0.0784 0.1746 0.16927 0.0
C287 C 0.1326 0.19562 0.169 0.0
C288 C 0.0497 0.15707 0.14693 0.0
C289 C -0.00538 0.14243 0.19255 0.0
C290 C 0.05794 0.12364 0.13257 0.0
C291 C 0.03238 0.10712 0.11141 0.0
C292 C -0.00271 0.12303 0.10412 0.0
C293 C 0.98856 0.15621 0.11848 0.0
C294 C 0.01511 0.17368 0.13956 0.0
H295 H 0.98006 0.12527 0.20988 0.0
H296 H 0.98391 0.17292 0.18962 0.0
H297 H 0.9746 0.11145 0.17939 0.0
H298 H 0.08412 0.10996 0.1378 0.0
H299 H 0.03958 0.0811 0.10089 0.0
H300 H 0.87347 0.15083 0.54041 0.0
H301 H 0.85492 0.09579 0.50627 0.0
H302 H 0.76636 0.95859 0.54801 0.0
H303 H 0.78402 0.0133 0.58217 0.0
H304 H 0.8871 0.025 0.5012 0.0
H305 H 0.67297 0.92525 0.49202 0.0
H306 H 0.70893 0.98271 0.50967 0.0
H307 H 0.69323 0.91952 0.52051 0.0
C308 C 0.8489 0.10901 0.54225 0.0
C309 C 0.83012 0.08652 0.56405 0.0
C310 C 0.83848 0.07759 0.5227 0.0
C311 C 0.80884 0.02306 0.52449 0.0
C312 C 0.78832 0.00058 0.54607 0.0
H313 H 0.7577 0.75475 0.44799 0.0
H314 H 0.75601 0.81803 0.47449 0.0
C315 C 0.79859 0.03199 0.56563 0.0
C316 C 0.80398 0.98964 0.50441 0.0
H317 H 0.71624 0.88697 0.47177 0.0
C318 C 0.84974 0.99536 0.49451 0.0
C319 C 0.75524 0.95087 0.49575 0.0
C320 C 0.7048 0.94448 0.50488 0.0
C321 C 0.84813 0.96207 0.47686 0.0
C322 C 0.79936 0.9224 0.4686 0.0
C323 C 0.75358 0.91742 0.47811 0.0
C324 C 0.79534 0.88358 0.45126 0.0
C325 C 0.89867 0.96821 0.46791 0.0
C326 C 0.81638 0.89905 0.42905 0.0
C327 C 0.81749 0.8629 0.4138 0.0
C328 C 0.79734 0.81055 0.42048 0.0
C329 C 0.77366 0.79471 0.44226 0.0
C330 C 0.77265 0.83086 0.45747 0.0
H331 H 0.932 0.99324 0.47936 0.0
H332 H 0.89616 0.92964 0.46619 0.0
H333 H 0.90684 0.98662 0.4506 0.0
H334 H 0.8332 0.93937 0.42373 0.0
H335 H 0.83567 0.87632 0.39709 0.0
H336 H 0.82656 0.02196 0.9156 0.0
H337 H 0.83588 0.98512 0.87947 0.0
H338 H 0.73058 0.83011 0.90442 0.0
H339 H 0.72144 0.86674 0.94091 0.0
H340 H 0.82274 0.84127 0.88679 0.0
H341 H 0.73947 0.9222 0.82423 0.0
H342 H 0.77635 0.96388 0.8478 0.0
H343 H 0.7166 0.9054 0.85361 0.0
C344 C 0.80444 0.98007 0.91329 0.0
C345 C 0.77291 0.94736 0.93116 0.0
C346 C 0.80968 0.95904 0.89252 0.0
C347 C 0.78317 0.90485 0.88901 0.0
C348 C 0.75105 0.87207 0.90666 0.0
H349 H 0.8008 0.77967 0.75328 0.0
H350 H 0.76786 0.80027 0.78822 0.0
C351 C 0.74584 0.89309 0.9275 0.0
C352 C 0.7925 0.88263 0.86768 0.0
H353 H 0.7899 0.88776 0.80883 0.0
C354 C 0.81508 0.85098 0.86974 0.0
C355 C 0.78116 0.89399 0.84545 0.0
C356 C 0.75162 0.92279 0.84241 0.0
C357 C 0.8288 0.83238 0.85019 0.0
C358 C 0.8216 0.84745 0.82788 0.0
C359 C 0.79663 0.87707 0.82584 0.0
C360 C 0.8411 0.83418 0.80662 0.0
C361 C 0.85039 0.7963 0.85378 0.0
C362 C 0.89338 0.84692 0.80505 0.0
C363 C 0.91201 0.83443 0.78531 0.0
C364 C 0.87918 0.80995 0.76631 0.0
C365 C 0.82709 0.79824 0.76762 0.0
C366 C 0.80824 0.81015 0.78759 0.0
H367 H 0.83597 0.77412 0.87016 0.0
H368 H 0.83978 0.76804 0.83937 0.0
H369 H 0.89342 0.8197 0.85496 0.0
H370 H 0.92015 0.86708 0.81906 0.0
H371 H 0.95254 0.84482 0.78485 0.0
H372 H 0.96645 0.73899 0.23578 0.0
H373 H 0.01044 0.75742 0.19825 0.0
H374 H 0.1345 0.90273 0.22482 0.0
H375 H 0.09155 0.88438 0.26221 0.0
H376 H 0.03076 0.8391 0.17025 0.0
H377 H 0.21575 0.84673 0.19144 0.0
H378 H 0.16046 0.81811 0.21063 0.0
H379 H 0.20406 0.88763 0.21041 0.0
C380 C 0.00371 0.77425 0.23377 0.0
C381 C 0.02547 0.81015 0.25205 0.0
C382 C 0.02871 0.78485 0.21228 0.0
C383 C 0.07617 0.83119 0.20874 0.0
C384 C 0.09861 0.86617 0.2272 0.0
H385 H 0.2057 0.03181 0.09387 0.0
H386 H 0.15538 0.97889 0.12648 0.0
C387 C 0.07372 0.85571 0.2486 0.0
C388 C 0.10014 0.84578 0.18539 0.0
H389 H 0.21636 0.89409 0.15729 0.0
C390 C 0.07108 0.8502 0.1673 0.0
C391 C 0.15249 0.85949 0.18132 0.0
C392 C 0.18479 0.8522 0.19944 0.0
C393 C 0.09383 0.87098 0.14578 0.0
C394 C 0.14738 0.88877 0.14236 0.0
C395 C 0.17553 0.88122 0.15995 0.0
C396 C 0.17586 0.91888 0.12151 0.0
C397 C 0.06034 0.87433 0.12703 0.0
C398 C 0.20526 0.90354 0.108 0.0
C399 C 0.23475 0.93421 0.08932 0.0
C400 C 0.23575 0.98107 0.08394 0.0
C401 C 0.20588 0.99596 0.09742 0.0
C402 C 0.17656 0.96541 0.11601 0.0
H403 H 0.01892 0.84371 0.12919 0.0
H404 H 0.0624 0.91278 0.12805 0.0
H405 H 0.07356 0.87026 0.10964 0.0
H406 H 0.20569 0.86801 0.11202 0.0
H407 H 0.25733 0.9216 0.07934 0.0
H408 H 0.12677 0.74627 0.60048 0.0
H409 H 0.15974 0.79127 0.56374 0.0
H410 H 0.24062 0.93866 0.59936 0.0
H411 H 0.20821 0.89413 0.63621 0.0
H412 H 0.13333 0.86684 0.54951 0.0
H413 H 0.34754 0.94969 0.55071 0.0
H414 H 0.30411 0.89635 0.56916 0.0
H415 H 0.32042 0.96197 0.57606 0.0
C416 C 0.15293 0.78806 0.60064 0.0
C417 C 0.16464 0.81651 0.62137 0.0
C418 C 0.17156 0.81376 0.57957 0.0
C419 C 0.20276 0.86828 0.5788 0.0
C420 C 0.2173 0.8965 0.59955 0.0
H421 H 0.30237 0.09962 0.46912 0.0
H422 H 0.29103 0.05355 0.5057 0.0
C423 C 0.19863 0.87087 0.62064 0.0
C424 C 0.21452 0.89591 0.55633 0.0
H425 H 0.31332 0.97857 0.52074 0.0
C426 C 0.17266 0.8909 0.54311 0.0
C427 C 0.26588 0.928 0.54825 0.0
C428 C 0.31217 0.93419 0.56165 0.0
C429 C 0.18069 0.91747 0.52212 0.0
C430 C 0.23204 0.9489 0.51376 0.0
C431 C 0.274 0.95423 0.52707 0.0
C432 C 0.24264 0.97654 0.49126 0.0
C433 C 0.13402 0.91273 0.50948 0.0
C434 C 0.22075 0.94851 0.47085 0.0
C435 C 0.22679 0.97469 0.45002 0.0
C436 C 0.25561 0.02948 0.44906 0.0
C437 C 0.27994 0.0574 0.46927 0.0
C438 C 0.27344 0.03113 0.4902 0.0
H439 H 0.10022 0.90035 0.52119 0.0
H440 H 0.14306 0.95027 0.50131 0.0
H441 H 0.12232 0.88281 0.49574 0.0
H442 H 0.19804 0.90631 0.47112 0.0
H443 H 0.20801 0.95196 0.43473 0.0
H444 H 0.39039 0.09293 0.0373 0.0
H445 H 0.45621 0.07049 0.04862 0.0
H446 H 0.4794 0.04652 0.9772 0.0
H447 H 0.41313 0.06809 0.9657 0.0
H448 H 0.46994 0.9665 0.00843 0.0
H449 H 0.6139 0.16724 0.03761 0.0
H450 H 0.54998 0.13884 0.05002 0.0
H451 H 0.55874 0.15394 0.01979 0.0
C452 C 0.40953 0.08292 0.024 0.0
C453 C 0.39694 0.08264 1.00059 0.0
C454 C 0.44712 0.07021 0.03051 0.0
C455 C 0.47282 0.05739 0.0137 0.0
C456 C 0.45989 0.05641 0.99038 0.0
H457 H 0.72243 -0.00239 0.99675 0.0
H458 H 0.64174 0.00018 0.99431 0.0
C459 C 0.42229 0.06902 0.98385 0.0
C460 C 0.51414 0.04601 0.02022 0.0
H461 H 0.63844 0.10333 0.04047 0.0
C462 C 0.5067 0.9962 0.0156 0.0
C463 C 0.56174 0.08489 0.02969 0.0
C464 C 0.57201 0.13939 0.03446 0.0
C465 C 0.54622 0.98445 0.01984 0.0
C466 C 0.59451 0.02392 0.02851 0.0
C467 C 0.60126 0.07318 0.03385 0.0
C468 C 0.63999 0.01656 0.03061 0.0
C469 C 0.53601 0.93006 0.01494 0.0
C470 C 0.66595 0.02533 0.05178 0.0
C471 C 0.71259 0.02474 0.05313 0.0
C472 C 0.7342 0.01585 0.03326 0.0
C473 C 0.70702 0.00506 0.01229 0.0
C474 C 0.66057 0.00593 0.01092 0.0
H475 H 0.49376 0.90108 0.01556 0.0
H476 H 0.55017 0.92891 0.99735 0.0
H477 H 0.55661 0.91831 0.02745 0.0
H478 H 0.65071 0.03385 0.06713 0.0
H479 H 0.73242 0.03276 0.06959 0.0
H480 H 0.4045 0.30703 0.39824 0.0
H481 H 0.47833 0.39113 0.38716 0.0
H482 H 0.44975 0.34667 0.31545 0.0
H483 H 0.37615 0.26195 0.3264 0.0
H484 H 0.55173 0.38337 0.32917 0.0
H485 H 0.48452 0.51902 0.35703 0.0
H486 H 0.47866 0.47397 0.37916 0.0
H487 H 0.4407 0.44993 0.35321 0.0
C488 C 0.41361 0.31528 0.38009 0.0
C489 C 0.38461 0.27786 0.36318 0.0
C490 C 0.4555 0.36355 0.37379 0.0
C491 C 0.46888 0.37536 0.35048 0.0
C492 C 0.43965 0.33837 0.33352 0.0
H493 H 0.74803 0.63624 0.29043 0.0
H494 H 0.66148 0.55984 0.29508 0.0
C495 C 0.39769 0.29004 0.33981 0.0
C496 C 0.51612 0.42453 0.3441 0.0
H497 H 0.57602 0.55678 0.35012 0.0
C498 C 0.55685 0.42137 0.33342 0.0
C499 C 0.5225 0.47388 0.34974 0.0
C500 C 0.47908 0.47957 0.36021 0.0
C501 C 0.60479 0.46625 0.32912 0.0
C502 C 0.61169 0.51551 0.33534 0.0
C503 C 0.57051 0.51883 0.34546 0.0
C504 C 0.66222 0.56377 0.33236 0.0
C505 C 0.64833 0.46042 0.31882 0.0
C506 C 0.69041 0.59205 0.35178 0.0
C507 C 0.73974 0.6358 0.3492 0.0
C508 C 0.76157 0.65196 0.32713 0.0
C509 C 0.73249 0.62441 0.30767 0.0
C510 C 0.68313 0.58074 0.31028 0.0
H511 H 0.64008 0.41946 0.31954 0.0
H512 H 0.65347 0.47256 0.30045 0.0
H513 H 0.68553 0.48571 0.32795 0.0
H514 H 0.6747 0.57953 0.36896 0.0
H515 H 0.76104 0.65641 0.36452 0.0
H516 H 0.94004 0.24343 0.71047 0.0
H517 H 0.95659 0.32735 0.72628 0.0
H518 H 0.87788 0.34757 0.66813 0.0
H519 H 0.86133 0.26425 0.65216 0.0
H520 H 0.00032 0.42855 0.68334 0.0
H521 H 0.83816 0.37863 0.74504 0.0
H522 H 0.86696 0.33767 0.7418 0.0
H523 H 0.82681 0.33997 0.7193 0.0
C524 C 0.92535 0.26527 0.70131 0.0
C525 C 0.89956 0.2474 0.68004 0.0
C526 C 0.93482 0.31305 0.71037 0.0
C527 C 0.91806 0.34306 0.69837 0.0
C528 C 0.89068 0.32448 0.67763 0.0
H529 H 0.91072 0.62466 0.69991 0.0
H530 H 0.89144 0.534 0.70272 0.0
C531 C 0.88152 0.27706 0.66851 0.0
C532 C 0.93386 0.3965 0.70577 0.0
H533 H 0.89241 0.46788 0.73591 0.0
C534 C 0.97744 0.43746 0.69514 0.0
C535 C 0.90336 0.40724 0.72099 0.0
C536 C 0.85613 0.36377 0.73258 0.0
C537 C 0.99018 0.48936 0.69847 0.0
C538 C 0.95899 0.50041 0.71334 0.0
C539 C 0.91634 0.45929 0.72465 0.0
C540 C 0.9677 0.55399 0.71561 0.0
C541 C 0.0351 0.53142 0.68495 0.0
C542 C 0.01605 0.59489 0.72289 0.0
C543 C 0.02746 0.64646 0.72072 0.0
C544 C 0.99011 0.65779 0.71192 0.0
C545 C 0.94017 0.61676 0.70661 0.0
C546 C 0.92914 0.5651 0.70829 0.0
H547 H 0.04691 0.51507 0.67043 0.0
H548 H 0.02502 0.56009 0.67784 0.0
H549 H 0.06918 0.55245 0.69652 0.0
H550 H 0.04578 0.58704 0.72924 0.0
H551 H 0.06592 0.67758 0.72541 0.0
H552 H 0.46046 0.21392 0.07771 0.0
H553 H 0.50334 0.22618 0.11516 0.0
H554 H 0.38615 0.25172 0.14667 0.0
H555 H 0.34537 0.24273 0.10946 0.0
H556 H 0.47457 0.30325 0.16949 0.0
H557 H 0.43359 0.09969 0.15462 0.0
H558 H 0.48053 0.1502 0.13635 0.0
H559 H 0.41291 0.13149 0.13426 0.0
C560 C 0.44499 0.22396 0.09253 0.0
C561 C 0.39865 0.22587 0.09079 0.0
C562 C 0.46928 0.23048 0.11395 0.0
C563 C 0.44672 0.23763 0.13389 0.0
C564 C 0.40409 0.24562 0.1316 0.0
H565 H 0.29859 0.08793 0.24365 0.0
H566 H 0.35076 0.11865 0.2089 0.0
C567 C 0.38054 0.24025 0.11023 0.0
C568 C 0.46068 0.22871 0.15736 0.0
H569 H 0.43885 0.12704 0.19235 0.0
C570 C 0.46828 0.26525 0.17457 0.0
C571 C 0.45328 0.17926 0.16389 0.0
C572 C 0.44442 0.1377 0.14641 0.0
C573 C 0.46077 0.25117 0.19796 0.0
C574 C 0.4477 0.19979 0.20424 0.0
C575 C 0.44818 0.1661 0.18735 0.0
C576 C 0.42081 0.17632 0.22626 0.0
C577 C 0.46102 0.28944 0.21527 0.0
C578 C 0.44333 0.19693 0.2478 0.0
C579 C 0.41299 0.1799 0.26784 0.0
C580 C 0.36004 0.14144 0.26656 0.0
C581 C 0.33908 0.11785 0.24524 0.0
C582 C 0.36905 0.13532 0.22531 0.0
H583 H 0.46659 0.32574 0.207 0.0
H584 H 0.42385 0.27151 0.22502 0.0
H585 H 0.49315 0.30038 0.22777 0.0
H586 H 0.48356 0.2276 0.24903 0.0
H587 H 0.43037 0.19839 0.28411 0.0
H588 H 0.13208 0.11927 0.43386 0.0
H589 H 0.10152 0.13845 0.46965 0.0
H590 H 0.19363 0.30322 0.45576 0.0
H591 H 0.2245 0.2846 0.41985 0.0
H592 H 0.18798 0.2083 0.50306 0.0
H593 H 0.04723 0.27513 0.48199 0.0
H594 H 0.05556 0.23097 0.46328 0.0
H595 H 0.10544 0.29811 0.46494 0.0
C596 C 0.14462 0.15954 0.43802 0.0
C597 C 0.18147 0.20046 0.42427 0.0
C598 C 0.12722 0.17039 0.45849 0.0
C599 C 0.14591 0.22218 0.46533 0.0
C600 C 0.17879 0.26301 0.45064 0.0
H601 H 0.05299 0.30127 0.59518 0.0
H602 H 0.10614 0.31638 0.56063 0.0
C603 C 0.19625 0.25222 0.43011 0.0
C604 C 0.13652 0.23304 0.4891 0.0
H605 H 0.06288 0.26807 0.52119 0.0
C606 C 0.16104 0.2219 0.5071 0.0
C607 C 0.10242 0.25189 0.49411 0.0
C608 C 0.07585 0.26473 0.47516 0.0
C609 C 0.15048 0.22692 0.5302 0.0
C610 C 0.11353 0.24232 0.53531 0.0
C611 C 0.09126 0.2563 0.51724 0.0
C612 C 0.0919 0.23725 0.55876 0.0
C613 C 0.17835 0.21473 0.54883 0.0
C614 C 0.06805 0.1884 0.56963 0.0
C615 C 0.03842 0.17993 0.58944 0.0
C616 C 0.03089 0.21971 0.59845 0.0
C617 C 0.05786 0.26973 0.58858 0.0
C618 C 0.08807 0.27839 0.5688 0.0
H619 H 0.21779 0.2242 0.54302 0.0
H620 H 0.18212 0.23663 0.56495 0.0
H621 H 0.15624 0.17234 0.55268 0.0
H622 H 0.06932 0.15569 0.56194 0.0
H623 H 0.01855 0.14118 0.59674 0.0
H624 H 0.81318 0.10609 0.75684 0.0
H625 H 0.79173 0.11124 0.79695 0.0
H626 H 0.84241 0.00284 0.81623 0.0
H627 H 0.86506 -0.00168 0.77616 0.0
H628 H 0.72815 0.04456 0.828 0.0
H629 H 0.93173 0.12293 0.85744 0.0
H630 H 0.91427 0.11463 0.82733 0.0
H631 H 0.90438 0.05963 0.84445 0.0
C632 C 0.81897 0.08261 0.76954 0.0
C633 C 0.84135 0.0522 0.76337 0.0
C634 C 0.8068 0.08574 0.79249 0.0
C635 C 0.81652 0.05836 0.80969 0.0
C636 C 0.83568 0.02528 0.80336 0.0
H637 H 0.7069 0.0361 0.95157 0.0
H638 H 0.71701 0.01747 0.9112 0.0
C639 C 0.84823 0.0224 0.7804 0.0
C640 C 0.80794 0.06603 0.8342 0.0
H641 H 0.86867 0.10473 0.88638 0.0
C642 C 0.75888 0.0578 0.84078 0.0
C643 C 0.84831 0.08387 0.85078 0.0
C644 C 0.90275 0.09628 0.84463 0.0
C645 C 0.74909 0.06719 0.86343 0.0
C646 C 0.78906 0.0838 0.8801 0.0
C647 C 0.83802 0.09175 0.87357 0.0
C648 C 0.78166 0.09484 0.90429 0.0
C649 C 0.6966 0.06088 0.86904 0.0
C650 C 0.81523 0.14408 0.91389 0.0
C651 C 0.8099 0.15433 0.93693 0.0
C652 C 0.77122 0.11537 0.95066 0.0
C653 C 0.73703 0.06649 0.94109 0.0
C654 C 0.74253 0.05607 0.91807 0.0
H655 H 0.67633 0.06284 0.85328 0.0
H656 H 0.67187 0.02218 0.87712 0.0
H657 H 0.70026 0.09141 0.88128 0.0
H658 H 0.84565 0.17453 0.90356 0.0
H659 H 0.83635 0.19239 0.9441 0.0
H660 H 0.95732 0.98646 0.07648 0.0
H661 H 0.96011 0.96866 0.1175 0.0
H662 H 0.79474 0.86139 0.11673 0.0
H663 H 0.7914 0.87913 0.07592 0.0
H664 H 0.90374 0.99057 0.15065 0.0
H665 H 0.85182 0.78274 0.15336 0.0
H666 H 0.87492 0.8217 0.12748 0.0
H667 H 0.80814 0.79416 0.1362 0.0
C668 C 0.92169 0.95832 0.08493 0.0
C669 C 0.87393 0.93507 0.07304 0.0
C670 C 0.9234 0.94826 0.10836 0.0
C671 C 0.87761 0.91392 0.12011 0.0
C672 C 0.83061 0.88767 0.1079 0.0
H673 H 0.7797 0.81541 0.25914 0.0
H674 H 0.78346 0.8441 0.21938 0.0
C675 C 0.8288 0.89788 0.08452 0.0
C676 C 0.87773 0.90899 0.14548 0.0
H677 H 0.8452 0.82009 0.18874 0.0
C678 C 0.89136 0.9534 0.15903 0.0
C679 C 0.86151 0.8605 0.15627 0.0
C680 C 0.84872 0.81213 0.1426 0.0
C681 C 0.88757 0.95014 0.18318 0.0
C682 C 0.8704 0.90143 0.1939 0.0
C683 C 0.85768 0.85729 0.18037 0.0
C684 C 0.86691 0.89501 0.21921 0.0
C685 C 0.90088 -0.00154 0.19696 0.0
C686 C 0.91231 0.91658 0.23258 0.0
C687 C 0.91037 0.90026 0.25535 0.0
C688 C 0.86297 0.86181 0.26492 0.0
C689 C 0.81687 0.84473 0.25225 0.0
C690 C 0.81892 0.86088 0.22947 0.0
H691 H 0.89671 0.02745 0.18639 0.0
H692 H 0.87571 0.98908 0.21243 0.0
H693 H 0.94189 0.01662 0.20283 0.0
H694 H 0.94972 0.94293 0.22491 0.0
H695 H 0.94653 0.91453 0.26475 0.0
H696 H 0.81191 0.64441 0.43222 0.0
H697 H 0.80581 0.6324 0.47409 0.0
H698 H 0.97283 0.70569 0.47833 0.0
H699 H 0.97932 0.71695 0.43661 0.0
H700 H 0.92121 0.6257 0.51062 0.0
H701 H 0.84719 0.76579 0.51079 0.0
H702 H 0.8098 0.70571 0.49527 0.0
H703 H 0.87336 0.753 0.48515 0.0
C704 C 0.84727 0.65667 0.44198 0.0
C705 C 0.89626 0.68277 0.43113 0.0
C706 C 0.84367 0.65 0.46594 0.0
C707 C 0.88894 0.66949 0.47934 0.0
C708 C 0.93739 0.69074 0.46831 0.0
H709 H 0.03088 0.8433 0.59261 0.0
H710 H 0.98233 0.8016 0.55771 0.0
C711 C 0.94105 0.69723 0.44441 0.0
C712 C 0.88749 0.67428 0.50473 0.0
H713 H 0.87427 0.74928 0.54598 0.0
C714 C 0.90969 0.65158 0.51854 0.0
C715 C 0.87258 0.70837 0.51492 0.0
C716 C 0.84967 0.73498 0.50086 0.0
C717 C 0.92086 0.66495 0.54192 0.0
C718 C 0.90883 0.70144 0.55172 0.0
C719 C 0.88308 0.72109 0.53837 0.0
C720 C 0.93172 0.72727 0.57398 0.0
C721 C 0.94931 0.64333 0.55545 0.0
C722 C 0.91805 0.69983 0.59494 0.0
C723 C 0.94578 0.72386 0.61512 0.0
C724 C 0.9876 0.77544 0.61445 0.0
C725 C -0.00102 0.80349 0.59369 0.0
C726 C 0.97122 0.77971 0.5737 0.0
H727 H 0.95995 0.61909 0.54462 0.0
H728 H 0.98535 0.67562 0.56313 0.0
H729 H 0.92428 0.6188 0.56979 0.0
H730 H 0.88724 0.65946 0.59551 0.0
H731 H 0.93622 0.7013 0.63089 0.0
H732 H 0.04741 0.71254 0.78462 0.0
H733 H 0.0794 0.72705 0.82434 0.0
H734 H 0.14772 0.89308 0.81486 0.0
H735 H 0.11639 0.87895 0.77501 0.0
H736 H 0.20582 0.86178 0.84402 0.0
H737 H -0.00357 0.77031 0.86794 0.0
H738 H 0.01517 0.73205 0.85058 0.0
H739 H 0.01897 0.78993 0.83878 0.0
C740 C 0.0706 0.75223 0.79081 0.0
C741 C 0.07866 0.79465 0.77696 0.0
C742 C 0.08861 0.76036 0.81349 0.0
C743 C 0.11455 0.81093 0.82259 0.0
C744 C 0.12733 0.85368 0.80809 0.0
H745 H 0.14126 0.98048 0.93826 0.0
H746 H 0.10751 0.91818 0.90655 0.0
C747 C 0.10961 0.84561 0.78533 0.0
C748 C 0.12269 0.81938 0.84767 0.0
H749 H 0.0574 0.80937 0.89763 0.0
C750 C 0.17357 0.84945 0.85592 0.0
C751 C 0.08015 0.80344 0.86294 0.0
C752 C 0.02452 0.77243 0.85471 0.0
C753 C 0.18318 0.86637 0.8789 0.0
C754 C 0.14058 0.85192 0.89401 0.0
C755 C 0.08977 0.81964 0.88602 0.0
C756 C 0.14807 0.87753 0.91665 0.0
C757 C 0.23863 0.90265 0.88635 0.0
C758 C 0.1785 0.87238 0.93379 0.0
C759 C 0.19811 0.90819 0.95194 0.0
C760 C 0.18744 0.94942 0.95299 0.0
C761 C 0.15109 0.94983 0.93759 0.0
C762 C 0.13163 0.91413 0.91948 0.0
H763 H 0.26621 0.91568 0.8716 0.0
H764 H 0.24199 0.93769 0.89501 0.0
H765 H 0.25064 0.88229 0.89885 0.0
H766 H 0.19053 0.84348 0.93211 0.0
H767 H 0.22531 0.90631 0.9638 0.0
loop_
_geom_bond_atom_site_label_1
_geom_bond_atom_site_label_2
_geom_bond_distance
_geom_bond_site_symmetry_2
_ccdc_geom_bond_type
Zn0 O6 1.969 . S
Zn0 O7 1.965 . S
Zn0 O11 2.024 1_545 S
Zn0 O16 1.969 . S
Zn1 O8 1.969 . S
Zn1 O14 1.969 1_545 S
Zn1 O15 1.965 . S
Zn1 O17 2.024 . S
C2 O3 1.229 . S
C2 O11 1.058 . S
O3 C2 1.229 . S
C4 O5 1.229 . S
C4 O17 1.058 . S
O5 C4 1.229 . S
O6 Zn0 1.969 . S
O6 C9 1.267 . S
O7 Zn0 1.965 . S
O7 C18 1.260 1_556 S
O8 Zn1 1.969 . S
O8 C18 1.258 . S
C9 O6 1.267 . S
C9 O10 1.228 . S
O10 C9 1.228 . S
O11 Zn0 2.024 1_565 S
O11 C2 1.058 . S
C12 O13 1.228 . S
C12 O14 1.267 . S
O13 C12 1.228 . S
O14 Zn1 1.969 1_565 S
O14 C12 1.267 . S
O15 Zn1 1.965 . S
O15 C19 1.260 . S
O16 Zn0 1.969 . S
O16 C19 1.258 1_556 S
O17 Zn1 2.024 . S
O17 C4 1.058 . S
C18 O7 1.260 1_554 S
C18 O8 1.258 . S
C19 O15 1.260 . S
C19 O16 1.258 1_554 S
Zn20 O26 1.969 . S
Zn20 O27 1.965 . S
Zn20 O31 2.024 . S
Zn20 O36 1.969 . S
Zn21 O28 1.969 . S
Zn21 O34 1.969 . S
Zn21 O35 1.965 . S
Zn21 O37 2.024 . S
C22 O23 1.229 . S
C22 O31 1.058 . S
O23 C22 1.229 . S
C24 O25 1.229 . S
C24 O37 1.058 . S
O25 C24 1.229 . S
O26 Zn20 1.969 . S
O26 C29 1.267 . S
O27 Zn20 1.965 . S
O27 C38 1.260 . S
O28 Zn21 1.969 . S
O28 C38 1.258 . S
C29 O26 1.267 . S
C29 O30 1.228 . S
O30 C29 1.228 . S
O31 Zn20 2.024 . S
O31 C22 1.058 . S
C32 O33 1.228 . S
C32 O34 1.267 . S
O33 C32 1.228 . S
O34 Zn21 1.969 . S
O34 C32 1.267 . S
O35 Zn21 1.965 . S
O35 C39 1.260 . S
O36 Zn20 1.969 . S
O36 C39 1.258 . S
O37 Zn21 2.024 . S
O37 C24 1.058 . S
C38 O27 1.260 . S
C38 O28 1.258 . S
C39 O35 1.260 . S
C39 O36 1.258 . S
Zn40 O46 1.969 . S
Zn40 O47 1.965 . S
Zn40 O51 2.024 1_655 S
Zn40 O56 1.969 1_655 S
Zn41 O48 1.969 . S
Zn41 O54 1.969 . S
Zn41 O55 1.965 . S
Zn41 O57 2.024 1_455 S
C42 O43 1.229 . S
C42 O51 1.058 . S
O43 C42 1.229 . S
C44 O45 1.229 . S
C44 O57 1.058 . S
O45 C44 1.229 . S
O46 Zn40 1.969 . S
O46 C49 1.267 . S
O47 Zn40 1.965 . S
O47 C58 1.260 . S
O48 Zn41 1.969 . S
O48 C58 1.258 1_455 S
C49 O46 1.267 . S
C49 O50 1.228 . S
O50 C49 1.228 . S
O51 Zn40 2.024 1_455 S
O51 C42 1.058 . S
C52 O53 1.228 . S
C52 O54 1.267 . S
O53 C52 1.228 . S
O54 Zn41 1.969 . S
O54 C52 1.267 . S
O55 Zn41 1.965 . S
O55 C59 1.260 . S
O56 Zn40 1.969 1_455 S
O56 C59 1.258 . S
O57 Zn41 2.024 1_655 S
O57 C44 1.058 . S
C58 O47 1.260 . S
C58 O48 1.258 1_655 S
C59 O55 1.260 . S
C59 O56 1.258 . S
Zn60 O66 1.969 . S
Zn60 O67 1.965 . S
Zn60 O71 2.024 1_545 S
Zn60 O76 1.969 . S
Zn61 O68 1.969 . S
Zn61 O74 1.969 1_545 S
Zn61 O75 1.994 . S
Zn61 O77 2.024 . S
C62 O63 1.229 . S
C62 O71 1.058 . S
O63 C62 1.229 . S
C64 O65 1.229 . S
C64 O77 1.058 . S
O65 C64 1.229 . S
O66 Zn60 1.969 . S
O66 C69 1.267 . S
O67 Zn60 1.965 . S
O67 C78 1.260 . S
O68 Zn61 1.969 . S
O68 C78 1.258 1_556 S
C69 O66 1.267 . S
C69 O70 1.228 . S
O70 C69 1.228 . S
O71 Zn60 2.024 1_565 S
O71 C62 1.058 . S
C72 O73 1.228 . S
C72 O74 1.267 . S
O73 C72 1.228 . S
O74 Zn61 1.969 1_565 S
O74 C72 1.267 . S
O75 Zn61 1.994 . S
O75 C79 1.235 1_556 S
O76 Zn60 1.969 . S
O76 C79 1.258 . S
O77 Zn61 2.024 . S
O77 C64 1.058 . S
C78 O67 1.260 . S
C78 O68 1.258 1_554 S
C79 O75 1.235 1_554 S
C79 O76 1.258 . S
Zn80 O86 1.969 . S
Zn80 O87 1.965 . S
Zn80 O91 2.024 . S
Zn80 O96 1.969 . S
Zn81 O88 1.969 . S
Zn81 O94 1.969 . S
Zn81 O95 1.965 . S
Zn81 O97 2.024 . S
C82 O83 1.229 . S
C82 O91 1.058 . S
O83 C82 1.229 . S
C84 O85 1.229 . S
C84 O97 1.058 . S
O85 C84 1.229 . S
O86 Zn80 1.969 . S
O86 C89 1.267 . S
O87 Zn80 1.965 . S
O87 C98 1.260 . S
O88 Zn81 1.969 . S
O88 C98 1.258 . S
C89 O86 1.267 . S
C89 O90 1.228 . S
O90 C89 1.228 . S
O91 Zn80 2.024 . S
O91 C82 1.058 . S
C92 O93 1.228 . S
C92 O94 1.267 . S
O93 C92 1.228 . S
O94 Zn81 1.969 . S
O94 C92 1.267 . S
O95 Zn81 1.965 . S
O95 C99 1.260 . S
O96 Zn80 1.969 . S
O96 C99 1.258 . S
O97 Zn81 2.024 . S
O97 C84 1.058 . S
C98 O87 1.260 . S
C98 O88 1.258 . S
C99 O95 1.260 . S
C99 O96 1.258 . S
Zn100 O106 1.969 . S
Zn100 O107 1.965 . S
Zn100 O111 2.024 1_655 S
Zn100 O116 1.969 1_655 S
Zn101 O108 1.969 . S
Zn101 O114 1.969 . S
Zn101 O115 1.965 . S
Zn101 O117 2.024 1_455 S
C102 O103 1.229 . S
C102 O111 1.058 . S
O103 C102 1.229 . S
C104 O105 1.229 . S
C104 O117 1.058 . S
O105 C104 1.229 . S
O106 Zn100 1.969 . S
O106 C109 1.267 . S
O107 Zn100 1.965 . S
O107 C118 1.260 . S
O108 Zn101 1.969 . S
O108 C118 1.258 1_455 S
C109 O106 1.267 . S
C109 O110 1.228 . S
O110 C109 1.228 . S
O111 Zn100 2.024 1_455 S
O111 C102 1.058 . S
C112 O113 1.228 . S
C112 O114 1.267 . S
O113 C112 1.228 . S
O114 Zn101 1.969 . S
O114 C112 1.267 . S
O115 Zn101 1.965 . S
O115 C119 1.260 . S
O116 Zn100 1.969 1_455 S
O116 C119 1.258 . S
O117 Zn101 2.024 1_655 S
O117 C104 1.058 . S
C118 O107 1.260 . S
C118 O108 1.258 1_655 S
C119 O115 1.260 . S
C119 O116 1.258 . S
H120 C128 0.929 . S
H121 C130 0.930 . S
H122 C132 0.930 . S
H123 C135 0.929 . S
H124 C138 0.930 . S
H125 C140 0.961 1_455 S
H126 C140 0.958 1_545 S
H127 C140 0.961 . S
C128 H120 0.929 . S
C128 C129 1.377 . S
C128 C130 1.384 . S
C129 C128 1.377 . S
C129 C135 1.390 1_545 S
C130 H121 0.930 . S
C130 C128 1.384 . S
C130 C131 1.372 . S
C131 C130 1.372 . S
C131 C132 1.400 1_545 S
C131 C136 1.490 1_655 S
C132 H122 0.930 . S
C132 C131 1.400 1_565 S
C132 C135 1.386 . S
H133 C149 0.930 . S
H134 C150 0.935 . S
C135 H123 0.929 . S
C135 C129 1.390 1_565 S
C135 C132 1.386 . S
C136 C131 1.490 1_455 S
C136 C138 1.395 . S
C136 C139 1.403 1_554 S
H137 C143 0.930 . S
C138 H124 0.930 . S
C138 C136 1.395 . S
C138 C141 1.403 . S
C139 C136 1.403 1_556 S
C139 C140 1.523 1_445 S
C139 C143 1.400 . S
C140 H125 0.961 1_655 S
C140 H126 0.958 1_565 S
C140 H127 0.961 . S
C140 C139 1.523 1_665 S
C141 C138 1.403 . S
C141 C142 1.392 . S
C141 C145 1.495 . S
C142 C141 1.392 . S
C142 C143 1.385 1_554 S
C142 C144 1.478 . S
C143 H137 0.930 . S
C143 C139 1.400 . S
C143 C142 1.385 1_556 S
C144 C142 1.478 . S
C144 C146 1.381 . S
C144 C150 1.374 1_545 S
C145 C141 1.495 . S
C145 H151 0.959 . S
C145 H152 0.961 . S
C145 H153 0.960 . S
C146 C144 1.381 . S
C146 C147 1.394 . S
C146 H154 0.930 . S
C147 C146 1.394 . S
C147 C148 1.383 . S
C147 H155 0.929 . S
C148 C147 1.383 . S
C148 C149 1.377 1_545 S
C149 H133 0.930 . S
C149 C148 1.377 1_565 S
C149 C150 1.384 . S
C150 H134 0.935 . S
C150 C144 1.374 1_565 S
C150 C149 1.384 . S
H151 C145 0.959 . S
H152 C145 0.961 . S
H153 C145 0.960 . S
H154 C146 0.930 . S
H155 C147 0.929 . S
H156 C164 0.929 . S
H157 C166 0.930 . S
H158 C168 0.930 . S
H159 C171 0.929 . S
H160 C174 0.930 . S
H161 C176 0.959 1_455 S
H162 C176 0.952 . S
H163 C176 0.981 . S
C164 H156 0.929 . S
C164 C165 1.377 . S
C164 C166 1.384 . S
C165 C164 1.377 . S
C165 C171 1.390 . S
C166 H157 0.930 . S
C166 C164 1.384 . S
C166 C167 1.372 . S
C167 C166 1.372 . S
C167 C168 1.400 . S
C167 C172 1.490 1_655 S
C168 H158 0.930 . S
C168 C167 1.400 . S
C168 C171 1.386 . S
H169 C185 0.930 . S
H170 C186 0.931 . S
C171 H159 0.929 . S
C171 C165 1.390 . S
C171 C168 1.386 . S
C172 C167 1.490 1_455 S
C172 C174 1.395 . S
C172 C175 1.403 . S
H173 C179 0.930 . S
C174 H160 0.930 . S
C174 C172 1.395 . S
C174 C177 1.403 . S
C175 C172 1.403 . S
C175 C176 1.513 1_455 S
C175 C179 1.400 1_565 S
C176 H161 0.959 1_655 S
C176 H162 0.952 . S
C176 H163 0.981 . S
C176 C175 1.513 1_655 S
C177 C174 1.403 . S
C177 C178 1.392 1_565 S
C177 C181 1.495 1_565 S
C178 C177 1.392 1_545 S
C178 C179 1.385 . S
C178 C180 1.478 . S
C179 H173 0.930 . S
C179 C175 1.400 1_545 S
C179 C178 1.385 . S
C180 C178 1.478 . S
C180 C182 1.381 . S
C180 C186 1.383 . S
C181 C177 1.495 1_545 S
C181 H187 0.959 1_545 S
C181 H188 0.961 . S
C181 H189 0.960 . S
C182 C180 1.381 . S
C182 C183 1.394 . S
C182 H190 0.930 . S
C183 C182 1.394 . S
C183 C184 1.383 . S
C183 H191 0.929 . S
C184 C183 1.383 . S
C184 C185 1.377 . S
C185 H169 0.930 . S
C185 C184 1.377 . S
C185 C186 1.379 . S
C186 H170 0.931 . S
C186 C180 1.383 . S
C186 C185 1.379 . S
H187 C181 0.959 1_565 S
H188 C181 0.961 . S
H189 C181 0.960 . S
H190 C182 0.930 . S
H191 C183 0.929 . S
H192 C200 0.929 . S
H193 C202 0.930 . S
H194 C204 0.930 . S
H195 C207 0.932 . S
H196 C210 0.930 . S
H197 C212 0.960 1_545 S
H198 C212 0.960 . S
H199 C212 0.960 . S
C200 H192 0.929 . S
C200 C201 1.377 . S
C200 C202 1.384 . S
C201 C200 1.377 . S
C201 C207 1.396 . S
C202 H193 0.930 . S
C202 C200 1.384 . S
C202 C203 1.372 . S
C203 C202 1.372 . S
C203 C204 1.400 . S
C203 C208 1.482 1_455 S
C204 H194 0.930 . S
C204 C203 1.400 . S
C204 C207 1.375 . S
H205 C221 0.930 . S
H206 C222 0.931 . S
C207 H195 0.932 . S
C207 C201 1.396 . S
C207 C204 1.375 . S
C208 C203 1.482 1_655 S
C208 C210 1.409 . S
C208 C211 1.397 1_655 S
H209 C215 0.930 . S
C210 H196 0.930 . S
C210 C208 1.409 . S
C210 C213 1.403 . S
C211 C208 1.397 1_455 S
C211 C212 1.524 . S
C211 C215 1.400 1_565 S
C212 H197 0.960 1_565 S
C212 H198 0.960 . S
C212 H199 0.960 . S
C212 C211 1.524 . S
C213 C210 1.403 . S
C213 C214 1.392 1_565 S
C213 C217 1.495 . S
C214 C213 1.392 1_545 S
C214 C215 1.385 1_655 S
C214 C216 1.478 . S
C215 H209 0.930 . S
C215 C211 1.400 1_545 S
C215 C214 1.385 1_455 S
C216 C214 1.478 . S
C216 C218 1.381 . S
C216 C222 1.383 . S
C217 C213 1.495 . S
C217 H223 0.959 . S
C217 H224 0.961 . S
C217 H225 0.960 . S
C218 C216 1.381 . S
C218 C219 1.394 1_655 S
C218 H226 0.927 1_655 S
C219 C218 1.394 1_455 S
C219 C220 1.383 1_455 S
C219 H227 0.929 . S
C220 C219 1.383 1_655 S
C220 C221 1.377 . S
C221 H205 0.930 . S
C221 C220 1.377 . S
C221 C222 1.379 . S
C222 H206 0.931 . S
C222 C216 1.383 . S
C222 C221 1.379 . S
H223 C217 0.959 . S
H224 C217 0.961 . S
H225 C217 0.960 . S
H226 C218 0.927 1_455 S
H227 C219 0.929 . S
H228 C236 0.929 . S
H229 C238 0.930 . S
H230 C240 0.930 . S
H231 C243 0.929 . S
H232 C246 0.930 . S
H233 C248 0.960 . S
H234 C248 0.960 . S
H235 C248 0.960 . S
C236 H228 0.929 . S
C236 C237 1.377 . S
C236 C238 1.384 . S
C237 C236 1.377 . S
C237 C243 1.390 . S
C238 H229 0.930 . S
C238 C236 1.384 . S
C238 C239 1.372 . S
C239 C238 1.372 . S
C239 C240 1.400 . S
C239 C244 1.490 . S
C240 H230 0.930 . S
C240 C239 1.400 . S
C240 C243 1.386 . S
H241 C257 0.930 . S
H242 C258 0.931 . S
C243 H231 0.929 . S
C243 C237 1.390 . S
C243 C240 1.386 . S
C244 C239 1.490 . S
C244 C246 1.395 . S
C244 C247 1.403 . S
H245 C251 0.930 . S
C246 H232 0.930 . S
C246 C244 1.395 . S
C246 C249 1.403 . S
C247 C244 1.403 . S
C247 C248 1.524 . S
C247 C251 1.400 . S
C248 H233 0.960 . S
C248 H234 0.960 . S
C248 H235 0.960 . S
C248 C247 1.524 . S
C249 C246 1.403 . S
C249 C250 1.392 . S
C249 C253 1.495 . S
C250 C249 1.392 . S
C250 C251 1.385 . S
C250 C252 1.478 . S
C251 H245 0.930 . S
C251 C247 1.400 . S
C251 C250 1.385 . S
C252 C250 1.478 . S
C252 C254 1.381 . S
C252 C258 1.383 . S
C253 C249 1.495 . S
C253 H259 0.959 . S
C253 H260 0.961 . S
C253 H261 0.960 . S
C254 C252 1.381 . S
C254 C255 1.394 . S
C254 H262 0.930 . S
C255 C254 1.394 . S
C255 C256 1.383 . S
C255 H263 0.929 . S
C256 C255 1.383 . S
C256 C257 1.377 . S
C257 H241 0.930 . S
C257 C256 1.377 . S
C257 C258 1.379 . S
C258 H242 0.931 . S
C258 C252 1.383 . S
C258 C257 1.379 . S
H259 C253 0.959 . S
H260 C253 0.961 . S
H261 C253 0.960 . S
H262 C254 0.930 . S
H263 C255 0.929 . S
H264 C272 0.929 . S
H265 C274 0.930 . S
H266 C276 0.930 . S
H267 C279 0.929 . S
H268 C282 0.930 . S
H269 C284 0.960 . S
H270 C284 0.960 . S
H271 C284 0.960 . S
C272 H264 0.929 . S
C272 C273 1.377 . S
C272 C274 1.384 . S
C273 C272 1.377 . S
C273 C279 1.390 . S
C274 H265 0.930 . S
C274 C272 1.384 . S
C274 C275 1.372 . S
C275 C274 1.372 . S
C275 C276 1.400 . S
C275 C280 1.490 . S
C276 H266 0.930 . S
C276 C275 1.400 . S
C276 C279 1.386 . S
H277 C293 0.930 . S
H278 C294 0.931 . S
C279 H267 0.929 . S
C279 C273 1.390 . S
C279 C276 1.386 . S
C280 C275 1.490 . S
C280 C282 1.395 . S
C280 C283 1.403 . S
H281 C287 0.930 . S
C282 H268 0.930 . S
C282 C280 1.395 . S
C282 C285 1.403 . S
C283 C280 1.403 . S
C283 C284 1.524 . S
C283 C287 1.400 . S
C284 H269 0.960 . S
C284 H270 0.960 . S
C284 H271 0.960 . S
C284 C283 1.524 . S
C285 C282 1.403 . S
C285 C286 1.392 . S
C285 C289 1.495 1_455 S
C286 C285 1.392 . S
C286 C287 1.385 . S
C286 C288 1.478 . S
C287 H281 0.930 . S
C287 C283 1.400 . S
C287 C286 1.385 . S
C288 C286 1.478 . S
C288 C290 1.381 1_455 S
C288 C294 1.383 . S
C289 C285 1.495 1_655 S
C289 H295 0.959 . S
C289 H296 0.961 . S
C289 H297 0.960 . S
C290 C288 1.381 1_655 S
C290 C291 1.394 . S
C290 H298 0.930 . S
C291 C290 1.394 . S
C291 C292 1.383 . S
C291 H299 0.929 . S
C292 C291 1.383 . S
C292 C293 1.377 . S
C293 H277 0.930 . S
C293 C292 1.377 . S
C293 C294 1.379 1_655 S
C294 H278 0.931 . S
C294 C288 1.383 . S
C294 C293 1.379 1_455 S
H295 C289 0.959 . S
H296 C289 0.961 . S
H297 C289 0.960 . S
H298 C290 0.930 . S
H299 C291 0.929 . S
H300 C308 0.929 . S
H301 C310 0.930 . S
H302 C312 0.930 1_565 S
H303 C315 0.929 . S
H304 C318 0.930 . S
H305 C320 0.960 . S
H306 C320 0.960 . S
H307 C320 0.960 . S
C308 H300 0.929 . S
C308 C309 1.377 . S
C308 C310 1.384 . S
C309 C308 1.377 . S
C309 C315 1.390 . S
C310 H301 0.930 . S
C310 C308 1.384 . S
C310 C311 1.372 . S
C311 C310 1.372 . S
C311 C312 1.400 . S
C311 C316 1.490 1_545 S
C312 H302 0.930 1_545 S
C312 C311 1.400 . S
C312 C315 1.386 . S
H313 C329 0.930 . S
H314 C330 0.931 . S
C315 H303 0.929 . S
C315 C309 1.390 . S
C315 C312 1.386 . S
C316 C311 1.490 1_565 S
C316 C318 1.395 1_565 S
C316 C319 1.403 . S
H317 C323 0.930 . S
C318 H304 0.930 . S
C318 C316 1.395 1_545 S
C318 C321 1.403 1_545 S
C319 C316 1.403 . S
C319 C320 1.524 . S
C319 C323 1.400 . S
C320 H305 0.960 . S
C320 H306 0.960 . S
C320 H307 0.960 . S
C320 C319 1.524 . S
C321 C318 1.403 1_565 S
C321 C322 1.392 . S
C321 C325 1.495 1_565 S
C322 C321 1.392 . S
C322 C323 1.385 . S
C322 C324 1.478 . S
C323 H317 0.930 . S
C323 C319 1.400 . S
C323 C322 1.385 . S
C324 C322 1.478 . S
C324 C326 1.381 . S
C324 C330 1.383 . S
C325 C321 1.495 1_545 S
C325 H331 0.959 . S
C325 H332 0.961 1_545 S
C325 H333 0.960 . S
C326 C324 1.381 . S
C326 C327 1.394 . S
C326 H334 0.930 . S
C327 C326 1.394 . S
C327 C328 1.383 . S
C327 H335 0.929 . S
C328 C327 1.383 . S
C328 C329 1.377 . S
C329 H313 0.930 . S
C329 C328 1.377 . S
C329 C330 1.379 . S
C330 H314 0.931 . S
C330 C324 1.383 . S
C330 C329 1.379 . S
H331 C325 0.959 . S
H332 C325 0.961 1_565 S
H333 C325 0.960 . S
H334 C326 0.930 . S
H335 C327 0.929 . S
H336 C344 0.929 . S
H337 C346 0.930 . S
H338 C348 0.930 . S
H339 C351 0.929 . S
H340 C354 0.930 . S
H341 C356 0.960 . S
H342 C356 0.960 . S
H343 C356 0.960 . S
C344 H336 0.929 . S
C344 C345 1.377 . S
C344 C346 1.384 . S
C345 C344 1.377 . S
C345 C351 1.390 . S
C346 H337 0.930 . S
C346 C344 1.384 . S
C346 C347 1.372 . S
C347 C346 1.372 . S
C347 C348 1.400 . S
C347 C352 1.490 . S
C348 H338 0.930 . S
C348 C347 1.400 . S
C348 C351 1.386 . S
H349 C365 0.930 . S
H350 C366 0.931 . S
C351 H339 0.929 . S
C351 C345 1.390 . S
C351 C348 1.386 . S
C352 C347 1.490 . S
C352 C354 1.395 . S
C352 C355 1.403 . S
H353 C359 0.930 . S
C354 H340 0.930 . S
C354 C352 1.395 . S
C354 C357 1.403 . S
C355 C352 1.403 . S
C355 C356 1.524 . S
C355 C359 1.400 . S
C356 H341 0.960 . S
C356 H342 0.960 . S
C356 H343 0.960 . S
C356 C355 1.524 . S
C357 C354 1.403 . S
C357 C358 1.392 . S
C357 C361 1.495 . S
C358 C357 1.392 . S
C358 C359 1.385 . S
C358 C360 1.478 . S
C359 H353 0.930 . S
C359 C355 1.400 . S
C359 C358 1.385 . S
C360 C358 1.478 . S
C360 C362 1.381 . S
C360 C366 1.383 . S
C361 C357 1.495 . S
C361 H367 0.959 . S
C361 H368 0.961 . S
C361 H369 0.960 . S
C362 C360 1.381 . S
C362 C363 1.394 . S
C362 H370 0.930 . S
C363 C362 1.394 . S
C363 C364 1.383 . S
C363 H371 0.929 . S
C364 C363 1.383 . S
C364 C365 1.377 . S
C365 H349 0.930 . S
C365 C364 1.377 . S
C365 C366 1.379 . S
C366 H350 0.931 . S
C366 C360 1.383 . S
C366 C365 1.379 . S
H367 C361 0.959 . S
H368 C361 0.961 . S
H369 C361 0.960 . S
H370 C362 0.930 . S
H371 C363 0.929 . S
H372 C380 0.929 . S
H373 C382 0.930 . S
H374 C384 0.930 . S
H375 C387 0.929 . S
H376 C390 0.930 1_655 S
H377 C392 0.960 . S
H378 C392 0.960 . S
H379 C392 0.960 . S
C380 H372 0.929 . S
C380 C381 1.377 . S
C380 C382 1.384 . S
C381 C380 1.377 . S
C381 C387 1.390 . S
C382 H373 0.930 . S
C382 C380 1.384 . S
C382 C383 1.372 1_655 S
C383 C382 1.372 1_455 S
C383 C384 1.400 . S
C383 C388 1.490 . S
C384 H374 0.930 . S
C384 C383 1.400 . S
C384 C387 1.386 1_455 S
H385 C401 0.930 . S
H386 C402 0.931 . S
C387 H375 0.929 . S
C387 C381 1.390 . S
C387 C384 1.386 1_655 S
C388 C383 1.490 . S
C388 C390 1.395 . S
C388 C391 1.403 . S
H389 C395 0.930 . S
C390 H376 0.930 1_455 S
C390 C388 1.395 . S
C390 C393 1.403 . S
C391 C388 1.403 . S
C391 C392 1.524 . S
C391 C395 1.400 . S
C392 H377 0.960 . S
C392 H378 0.960 . S
C392 H379 0.960 . S
C392 C391 1.524 . S
C393 C390 1.403 . S
C393 C394 1.392 . S
C393 C397 1.495 . S
C394 C393 1.392 . S
C394 C395 1.385 . S
C394 C396 1.478 . S
C395 H389 0.930 . S
C395 C391 1.400 . S
C395 C394 1.385 . S
C396 C394 1.478 . S
C396 C398 1.381 . S
C396 C402 1.383 . S
C397 C393 1.495 . S
C397 H403 0.959 1_455 S
C397 H404 0.961 . S
C397 H405 0.960 . S
C398 C396 1.381 . S
C398 C399 1.394 . S
C398 H406 0.930 . S
C399 C398 1.394 . S
C399 C400 1.383 . S
C399 H407 0.929 . S
C400 C399 1.383 . S
C400 C401 1.377 . S
C401 H385 0.930 . S
C401 C400 1.377 . S
C401 C402 1.379 . S
C402 H386 0.931 . S
C402 C396 1.383 . S
C402 C401 1.379 . S
H403 C397 0.959 1_655 S
H404 C397 0.961 . S
H405 C397 0.960 . S
H406 C398 0.930 . S
H407 C399 0.929 . S
H408 C416 0.929 . S
H409 C418 0.930 . S
H410 C420 0.930 . S
H411 C423 0.929 . S
H412 C426 0.930 . S
H413 C428 0.960 1_545 S
H414 C428 0.960 . S
H415 C428 0.960 . S
C416 H408 0.929 . S
C416 C417 1.377 . S
C416 C418 1.384 . S
C417 C416 1.377 . S
C417 C423 1.390 . S
C418 H409 0.930 . S
C418 C416 1.384 . S
C418 C419 1.372 . S
C419 C418 1.372 . S
C419 C420 1.400 . S
C419 C424 1.490 . S
C420 H410 0.930 . S
C420 C419 1.400 . S
C420 C423 1.386 . S
H421 C437 0.930 . S
H422 C438 0.931 . S
C423 H411 0.929 . S
C423 C417 1.390 . S
C423 C420 1.386 . S
C424 C419 1.490 . S
C424 C426 1.395 . S
C424 C427 1.403 . S
H425 C431 0.930 . S
C426 H412 0.930 . S
C426 C424 1.395 . S
C426 C429 1.403 . S
C427 C424 1.403 . S
C427 C428 1.524 . S
C427 C431 1.400 1_565 S
C428 H413 0.960 1_565 S
C428 H414 0.960 . S
C428 H415 0.960 . S
C428 C427 1.524 . S
C429 C426 1.403 . S
C429 C430 1.392 . S
C429 C433 1.495 . S
C430 C429 1.392 . S
C430 C431 1.385 1_565 S
C430 C432 1.478 1_565 S
C431 H425 0.930 . S
C431 C427 1.400 1_545 S
C431 C430 1.385 1_545 S
C432 C430 1.478 1_545 S
C432 C434 1.381 . S
C432 C438 1.383 . S
C433 C429 1.495 . S
C433 H439 0.959 . S
C433 H440 0.961 . S
C433 H441 0.960 . S
C434 C432 1.381 . S
C434 C435 1.394 . S
C434 H442 0.930 1_545 S
C435 C434 1.394 . S
C435 C436 1.383 . S
C435 H443 0.929 . S
C436 C435 1.383 . S
C436 C437 1.377 . S
C437 H421 0.930 . S
C437 C436 1.377 . S
C437 C438 1.379 . S
C438 H422 0.931 . S
C438 C432 1.383 . S
C438 C437 1.379 . S
H439 C433 0.959 . S
H440 C433 0.961 . S
H441 C433 0.960 . S
H442 C434 0.930 1_565 S
H443 C435 0.929 . S
H444 C452 0.929 . S
H445 C454 0.930 . S
H446 C456 0.930 . S
H447 C459 0.929 . S
H448 C462 0.930 . S
H449 C464 0.960 . S
H450 C464 0.960 1_554 S
H451 C464 0.960 . S
C452 H444 0.929 . S
C452 C453 1.377 . S
C452 C454 1.384 . S
C453 C452 1.377 . S
C453 C459 1.390 1_554 S
C454 H445 0.930 . S
C454 C452 1.384 . S
C454 C455 1.372 . S
C455 C454 1.372 . S
C455 C456 1.400 1_554 S
C455 C460 1.490 . S
C456 H446 0.930 . S
C456 C455 1.400 1_556 S
C456 C459 1.386 . S
H457 C473 0.930 . S
H458 C474 0.931 . S
C459 H447 0.929 . S
C459 C453 1.390 1_556 S
C459 C456 1.386 . S
C460 C455 1.490 . S
C460 C462 1.395 1_545 S
C460 C463 1.403 . S
H461 C467 0.933 . S
C462 H448 0.930 . S
C462 C460 1.395 1_565 S
C462 C465 1.403 . S
C463 C460 1.403 . S
C463 C464 1.524 1_554 S
C463 C467 1.400 . S
C464 H449 0.960 . S
C464 H450 0.960 1_556 S
C464 H451 0.960 . S
C464 C463 1.524 1_556 S
C465 C462 1.403 . S
C465 C466 1.392 1_565 S
C465 C469 1.495 . S
C466 C465 1.392 1_545 S
C466 C467 1.385 . S
C466 C468 1.478 . S
C467 H461 0.933 . S
C467 C463 1.400 . S
C467 C466 1.385 . S
C468 C466 1.478 . S
C468 C470 1.381 . S
C468 C474 1.383 1_554 S
C469 C465 1.495 . S
C469 H475 0.959 . S
C469 H476 0.961 . S
C469 H477 0.960 . S
C470 C468 1.381 . S
C470 C471 1.394 . S
C470 H478 0.930 . S
C471 C470 1.394 . S
C471 C472 1.383 . S
C471 H479 0.929 . S
C472 C471 1.383 . S
C472 C473 1.377 1_554 S
C473 H457 0.930 . S
C473 C472 1.377 1_556 S
C473 C474 1.379 . S
C474 H458 0.931 . S
C474 C468 1.383 1_556 S
C474 C473 1.379 . S
H475 C469 0.959 . S
H476 C469 0.961 . S
H477 C469 0.960 . S
H478 C470 0.930 . S
H479 C471 0.929 . S
H480 C488 0.929 . S
H481 C490 0.930 . S
H482 C492 0.930 . S
H483 C495 0.929 . S
H484 C498 0.930 . S
H485 C500 0.960 . S
H486 C500 0.960 . S
H487 C500 0.960 . S
C488 H480 0.929 . S
C488 C489 1.377 . S
C488 C490 1.384 . S
C489 C488 1.377 . S
C489 C495 1.390 . S
C490 H481 0.930 . S
C490 C488 1.384 . S
C490 C491 1.372 . S
C491 C490 1.372 . S
C491 C492 1.400 . S
C491 C496 1.490 . S
C492 H482 0.930 . S
C492 C491 1.400 . S
C492 C495 1.386 . S
H493 C509 0.930 . S
H494 C510 0.931 . S
C495 H483 0.929 . S
C495 C489 1.390 . S
C495 C492 1.386 . S
C496 C491 1.490 . S
C496 C498 1.395 . S
C496 C499 1.403 . S
H497 C503 0.930 . S
C498 H484 0.930 . S
C498 C496 1.395 . S
C498 C501 1.403 . S
C499 C496 1.403 . S
C499 C500 1.524 . S
C499 C503 1.400 . S
C500 H485 0.960 . S
C500 H486 0.960 . S
C500 H487 0.960 . S
C500 C499 1.524 . S
C501 C498 1.403 . S
C501 C502 1.392 . S
C501 C505 1.495 . S
C502 C501 1.392 . S
C502 C503 1.385 . S
C502 C504 1.478 . S
C503 H497 0.930 . S
C503 C499 1.400 . S
C503 C502 1.385 . S
C504 C502 1.478 . S
C504 C506 1.381 . S
C504 C510 1.383 . S
C505 C501 1.495 . S
C505 H511 0.959 . S
C505 H512 0.961 . S
C505 H513 0.960 . S
C506 C504 1.381 . S
C506 C507 1.394 . S
C506 H514 0.930 . S
C507 C506 1.394 . S
C507 C508 1.383 . S
C507 H515 0.929 . S
C508 C507 1.383 . S
C508 C509 1.377 . S
C509 H493 0.930 . S
C509 C508 1.377 . S
C509 C510 1.379 . S
C510 H494 0.931 . S
C510 C504 1.383 . S
C510 C509 1.379 . S
H511 C505 0.959 . S
H512 C505 0.961 . S
H513 C505 0.960 . S
H514 C506 0.930 . S
H515 C507 0.929 . S
H516 C524 0.929 . S
H517 C526 0.930 . S
H518 C528 0.930 . S
H519 C531 0.929 . S
H520 C534 0.930 . S
H521 C536 0.960 . S
H522 C536 0.960 . S
H523 C536 0.960 . S
C524 H516 0.929 . S
C524 C525 1.377 . S
C524 C526 1.384 . S
C525 C524 1.377 . S
C525 C531 1.390 1_455 S
C526 H517 0.930 . S
C526 C524 1.384 . S
C526 C527 1.372 . S
C527 C526 1.372 . S
C527 C528 1.400 1_455 S
C527 C532 1.490 . S
C528 H518 0.930 . S
C528 C527 1.400 1_655 S
C528 C531 1.386 . S
H529 C545 0.930 . S
H530 C546 0.931 . S
C531 H519 0.929 . S
C531 C525 1.390 1_655 S
C531 C528 1.386 . S
C532 C527 1.490 . S
C532 C534 1.395 . S
C532 C535 1.403 1_455 S
H533 C539 0.930 . S
C534 H520 0.930 . S
C534 C532 1.395 . S
C534 C537 1.403 . S
C535 C532 1.403 1_655 S
C535 C536 1.524 . S
C535 C539 1.400 . S
C536 H521 0.960 . S
C536 H522 0.960 . S
C536 H523 0.960 . S
C536 C535 1.524 . S
C537 C534 1.403 . S
C537 C538 1.392 . S
C537 C541 1.495 . S
C538 C537 1.392 . S
C538 C539 1.385 1_455 S
C538 C540 1.478 . S
C539 H533 0.930 . S
C539 C535 1.400 . S
C539 C538 1.385 1_655 S
C540 C538 1.478 . S
C540 C542 1.381 . S
C540 C546 1.383 . S
C541 C537 1.495 . S
C541 H547 0.959 . S
C541 H548 0.961 . S
C541 H549 0.960 . S
C542 C540 1.381 . S
C542 C543 1.394 . S
C542 H550 0.930 . S
C543 C542 1.394 . S
C543 C544 1.383 . S
C543 H551 0.929 . S
C544 C543 1.383 . S
C544 C545 1.377 . S
C545 H529 0.930 . S
C545 C544 1.377 . S
C545 C546 1.379 . S
C546 H530 0.931 . S
C546 C540 1.383 . S
C546 C545 1.379 . S
H547 C541 0.959 . S
H548 C541 0.961 . S
H549 C541 0.960 . S
H550 C542 0.930 . S
H551 C543 0.929 . S
H552 C560 0.929 . S
H553 C562 0.930 . S
H554 C564 0.930 . S
H555 C567 0.929 . S
H556 C570 0.930 . S
H557 C572 0.960 . S
H558 C572 0.960 . S
H559 C572 0.960 . S
C560 H552 0.929 . S
C560 C561 1.377 . S
C560 C562 1.384 . S
C561 C560 1.377 . S
C561 C567 1.390 . S
C562 H553 0.930 . S
C562 C560 1.384 . S
C562 C563 1.372 . S
C563 C562 1.372 . S
C563 C564 1.400 . S
C563 C568 1.490 . S
C564 H554 0.930 . S
C564 C563 1.400 . S
C564 C567 1.386 . S
H565 C581 0.930 . S
H566 C582 0.931 . S
C567 H555 0.929 . S
C567 C561 1.390 . S
C567 C564 1.386 . S
C568 C563 1.490 . S
C568 C570 1.395 . S
C568 C571 1.403 . S
H569 C575 0.930 . S
C570 H556 0.930 . S
C570 C568 1.395 . S
C570 C573 1.403 . S
C571 C568 1.403 . S
C571 C572 1.524 . S
C571 C575 1.400 . S
C572 H557 0.960 . S
C572 H558 0.960 . S
C572 H559 0.960 . S
C572 C571 1.524 . S
C573 C570 1.403 . S
C573 C574 1.392 . S
C573 C577 1.495 . S
C574 C573 1.392 . S
C574 C575 1.385 . S
C574 C576 1.478 . S
C575 H569 0.930 . S
C575 C571 1.400 . S
C575 C574 1.385 . S
C576 C574 1.478 . S
C576 C578 1.381 . S
C576 C582 1.383 . S
C577 C573 1.495 . S
C577 H583 0.959 . S
C577 H584 0.961 . S
C577 H585 0.960 . S
C578 C576 1.381 . S
C578 C579 1.394 . S
C578 H586 0.930 . S
C579 C578 1.394 . S
C579 C580 1.383 . S
C579 H587 0.929 . S
C580 C579 1.383 . S
C580 C581 1.377 . S
C581 H565 0.930 . S
C581 C580 1.377 . S
C581 C582 1.379 . S
C582 H566 0.931 . S
C582 C576 1.383 . S
C582 C581 1.379 . S
H583 C577 0.959 . S
H584 C577 0.961 . S
H585 C577 0.960 . S
H586 C578 0.930 . S
H587 C579 0.929 . S
H588 C596 0.929 . S
H589 C598 0.930 . S
H590 C600 0.930 . S
H591 C603 0.929 . S
H592 C606 0.930 . S
H593 C608 0.960 . S
H594 C608 0.960 . S
H595 C608 0.960 . S
C596 H588 0.929 . S
C596 C597 1.377 . S
C596 C598 1.384 . S
C597 C596 1.377 . S
C597 C603 1.390 . S
C598 H589 0.930 . S
C598 C596 1.384 . S
C598 C599 1.372 . S
C599 C598 1.372 . S
C599 C600 1.400 . S
C599 C604 1.490 . S
C600 H590 0.930 . S
C600 C599 1.400 . S
C600 C603 1.386 . S
H601 C617 0.930 . S
H602 C618 0.931 . S
C603 H591 0.929 . S
C603 C597 1.390 . S
C603 C600 1.386 . S
C604 C599 1.490 . S
C604 C606 1.395 . S
C604 C607 1.403 . S
H605 C611 0.930 . S
C606 H592 0.930 . S
C606 C604 1.395 . S
C606 C609 1.403 . S
C607 C604 1.403 . S
C607 C608 1.524 . S
C607 C611 1.400 . S
C608 H593 0.960 . S
C608 H594 0.960 . S
C608 H595 0.960 . S
C608 C607 1.524 . S
C609 C606 1.403 . S
C609 C610 1.392 . S
C609 C613 1.495 . S
C610 C609 1.392 . S
C610 C611 1.385 . S
C610 C612 1.478 . S
C611 H605 0.930 . S
C611 C607 1.400 . S
C611 C610 1.385 . S
C612 C610 1.478 . S
C612 C614 1.381 . S
C612 C618 1.383 . S
C613 C609 1.495 . S
C613 H619 0.959 . S
C613 H620 0.961 . S
C613 H621 0.960 . S
C614 C612 1.381 . S
C614 C615 1.394 . S
C614 H622 0.930 . S
C615 C614 1.394 . S
C615 C616 1.383 . S
C615 H623 0.929 . S
C616 C615 1.383 . S
C616 C617 1.377 . S
C617 H601 0.930 . S
C617 C616 1.377 . S
C617 C618 1.379 . S
C618 H602 0.931 . S
C618 C612 1.383 . S
C618 C617 1.379 . S
H619 C613 0.959 . S
H620 C613 0.961 . S
H621 C613 0.960 . S
H622 C614 0.930 . S
H623 C615 0.929 . S
H624 C632 0.929 . S
H625 C634 0.930 . S
H626 C636 0.930 . S
H627 C639 0.929 . S
H628 C642 0.930 . S
H629 C644 0.960 1_455 S
H630 C644 0.960 1_455 S
H631 C644 0.960 . S
C632 H624 0.929 . S
C632 C633 1.377 . S
C632 C634 1.384 . S
C633 C632 1.377 . S
C633 C639 1.390 . S
C634 H625 0.930 . S
C634 C632 1.384 . S
C634 C635 1.372 . S
C635 C634 1.372 . S
C635 C636 1.400 . S
C635 C640 1.490 . S
C636 H626 0.930 . S
C636 C635 1.400 . S
C636 C639 1.386 . S
H637 C653 0.930 . S
H638 C654 0.931 . S
C639 H627 0.929 . S
C639 C633 1.390 . S
C639 C636 1.386 . S
C640 C635 1.490 . S
C640 C642 1.395 . S
C640 C643 1.403 . S
H641 C647 0.930 . S
C642 H628 0.930 . S
C642 C640 1.395 . S
C642 C645 1.403 . S
C643 C640 1.403 . S
C643 C644 1.524 . S
C643 C647 1.400 . S
C644 H629 0.960 1_655 S
C644 H630 0.960 1_655 S
C644 H631 0.960 . S
C644 C643 1.524 . S
C645 C642 1.403 . S
C645 C646 1.392 . S
C645 C649 1.495 . S
C646 C645 1.392 . S
C646 C647 1.385 . S
C646 C648 1.478 . S
C647 H641 0.930 . S
C647 C643 1.400 . S
C647 C646 1.385 . S
C648 C646 1.478 . S
C648 C650 1.381 . S
C648 C654 1.383 . S
C649 C645 1.495 . S
C649 H655 0.959 . S
C649 H656 0.961 . S
C649 H657 0.960 . S
C650 C648 1.381 . S
C650 C651 1.394 . S
C650 H658 0.930 . S
C651 C650 1.394 . S
C651 C652 1.383 . S
C651 H659 0.929 . S
C652 C651 1.383 . S
C652 C653 1.377 . S
C653 H637 0.930 . S
C653 C652 1.377 . S
C653 C654 1.379 . S
C654 H638 0.931 . S
C654 C648 1.383 . S
C654 C653 1.379 . S
H655 C649 0.959 . S
H656 C649 0.961 . S
H657 C649 0.960 . S
H658 C650 0.930 . S
H659 C651 0.929 . S
H660 C668 0.929 . S
H661 C670 0.930 . S
H662 C672 0.930 . S
H663 C675 0.929 . S
H664 C678 0.930 . S
H665 C680 0.960 . S
H666 C680 0.960 . S
H667 C680 0.960 . S
C668 H660 0.929 . S
C668 C669 1.377 . S
C668 C670 1.384 . S
C669 C668 1.377 . S
C669 C675 1.390 . S
C670 H661 0.930 . S
C670 C668 1.384 . S
C670 C671 1.372 . S
C671 C670 1.372 . S
C671 C672 1.400 . S
C671 C676 1.490 . S
C672 H662 0.930 . S
C672 C671 1.400 . S
C672 C675 1.386 . S
H673 C689 0.930 . S
H674 C690 0.931 . S
C675 H663 0.929 . S
C675 C669 1.390 . S
C675 C672 1.386 . S
C676 C671 1.490 . S
C676 C678 1.395 . S
C676 C679 1.403 . S
H677 C683 0.930 . S
C678 H664 0.930 . S
C678 C676 1.395 . S
C678 C681 1.403 . S
C679 C676 1.403 . S
C679 C680 1.524 . S
C679 C683 1.400 . S
C680 H665 0.960 . S
C680 H666 0.960 . S
C680 H667 0.960 . S
C680 C679 1.524 . S
C681 C678 1.403 . S
C681 C682 1.392 . S
C681 C685 1.495 . S
C682 C681 1.392 . S
C682 C683 1.385 . S
C682 C684 1.478 . S
C683 H677 0.930 . S
C683 C679 1.400 . S
C683 C682 1.385 . S
C684 C682 1.478 . S
C684 C686 1.381 . S
C684 C690 1.383 . S
C685 C681 1.495 . S
C685 H691 0.959 . S
C685 H692 0.961 . S
C685 H693 0.960 . S
C686 C684 1.381 . S
C686 C687 1.394 . S
C686 H694 0.930 . S
C687 C686 1.394 . S
C687 C688 1.383 . S
C687 H695 0.929 . S
C688 C687 1.383 . S
C688 C689 1.377 . S
C689 H673 0.930 . S
C689 C688 1.377 . S
C689 C690 1.379 . S
C690 H674 0.931 . S
C690 C684 1.383 . S
C690 C689 1.379 . S
H691 C685 0.959 . S
H692 C685 0.961 . S
H693 C685 0.960 . S
H694 C686 0.930 . S
H695 C687 0.929 . S
H696 C704 0.929 . S
H697 C706 0.930 . S
H698 C708 0.930 . S
H699 C711 0.929 . S
H700 C714 0.930 . S
H701 C716 0.960 . S
H702 C716 0.960 . S
H703 C716 0.960 . S
C704 H696 0.929 . S
C704 C705 1.377 . S
C704 C706 1.384 . S
C705 C704 1.377 . S
C705 C711 1.390 . S
C706 H697 0.930 . S
C706 C704 1.384 . S
C706 C707 1.372 . S
C707 C706 1.372 . S
C707 C708 1.400 . S
C707 C712 1.490 . S
C708 H698 0.930 . S
C708 C707 1.400 . S
C708 C711 1.386 . S
H709 C725 0.930 . S
H710 C726 0.931 . S
C711 H699 0.929 . S
C711 C705 1.390 . S
C711 C708 1.386 . S
C712 C707 1.490 . S
C712 C714 1.395 . S
C712 C715 1.403 . S
H713 C719 0.930 . S
C714 H700 0.930 . S
C714 C712 1.395 . S
C714 C717 1.403 . S
C715 C712 1.403 . S
C715 C716 1.524 . S
C715 C719 1.400 . S
C716 H701 0.960 . S
C716 H702 0.960 . S
C716 H703 0.960 . S
C716 C715 1.524 . S
C717 C714 1.403 . S
C717 C718 1.392 . S
C717 C721 1.495 . S
C718 C717 1.392 . S
C718 C719 1.385 . S
C718 C720 1.478 . S
C719 H713 0.930 . S
C719 C715 1.400 . S
C719 C718 1.385 . S
C720 C718 1.478 . S
C720 C722 1.381 . S
C720 C726 1.383 . S
C721 C717 1.495 . S
C721 H727 0.959 . S
C721 H728 0.961 . S
C721 H729 0.960 . S
C722 C720 1.381 . S
C722 C723 1.394 . S
C722 H730 0.930 . S
C723 C722 1.394 . S
C723 C724 1.383 . S
C723 H731 0.929 . S
C724 C723 1.383 . S
C724 C725 1.377 . S
C725 H709 0.930 . S
C725 C724 1.377 . S
C725 C726 1.379 . S
C726 H710 0.931 . S
C726 C720 1.383 . S
C726 C725 1.379 . S
H727 C721 0.959 . S
H728 C721 0.961 . S
H729 C721 0.960 . S
H730 C722 0.930 . S
H731 C723 0.929 . S
H732 C740 0.929 . S
H733 C742 0.930 . S
H734 C744 0.930 . S
H735 C747 0.929 . S
H736 C750 0.930 . S
H737 C752 0.960 . S
H738 C752 0.960 . S
H739 C752 0.960 . S
C740 H732 0.929 . S
C740 C741 1.377 . S
C740 C742 1.384 . S
C741 C740 1.377 . S
C741 C747 1.390 . S
C742 H733 0.930 . S
C742 C740 1.384 . S
C742 C743 1.372 . S
C743 C742 1.372 . S
C743 C744 1.400 . S
C743 C748 1.490 . S
C744 H734 0.930 . S
C744 C743 1.400 . S
C744 C747 1.386 . S
H745 C761 0.930 1_545 S
H746 C762 0.931 . S
C747 H735 0.929 . S
C747 C741 1.390 . S
C747 C744 1.386 . S
C748 C743 1.490 . S
C748 C750 1.395 . S
C748 C751 1.403 . S
H749 C755 0.930 . S
C750 H736 0.930 . S
C750 C748 1.395 . S
C750 C753 1.403 . S
C751 C748 1.403 . S
C751 C752 1.524 . S
C751 C755 1.400 . S
C752 H737 0.960 . S
C752 H738 0.960 . S
C752 H739 0.960 . S
C752 C751 1.524 . S
C753 C750 1.403 . S
C753 C754 1.392 . S
C753 C757 1.495 . S
C754 C753 1.392 . S
C754 C755 1.385 . S
C754 C756 1.478 . S
C755 H749 0.930 . S
C755 C751 1.400 . S
C755 C754 1.385 . S
C756 C754 1.478 . S
C756 C758 1.381 . S
C756 C762 1.383 . S
C757 C753 1.495 . S
C757 H763 0.959 . S
C757 H764 0.961 . S
C757 H765 0.960 . S
C758 C756 1.381 . S
C758 C759 1.394 . S
C758 H766 0.930 . S
C759 C758 1.394 . S
C759 C760 1.383 . S
C759 H767 0.929 . S
C760 C759 1.383 . S
C760 C761 1.377 . S
C761 H745 0.930 1_565 S
C761 C760 1.377 . S
C761 C762 1.379 . S
C762 H746 0.931 . S
C762 C756 1.383 . S
C762 C761 1.379 . S
H763 C757 0.959 . S
H764 C757 0.961 . S
H765 C757 0.960 . S
H766 C758 0.930 . S
H767 C759 0.929 . S
C129 C78 1.559 . S
C148 C18 1.554 . S
C165 C98 1.559 . S
C184 C38 1.554 . S
C201 C118 1.562 1_455 S
C220 C58 1.573 . S
C237 C9 1.610 . S
C256 C52 1.695 . S
C273 C32 1.692 . S
C292 C69 1.626 . S
C309 C49 1.626 . S
C328 C92 1.679 . S
C345 C72 1.692 . S
C364 C109 1.617 . S
C381 C89 1.624 . S
C400 C12 1.703 . S
C417 C112 1.704 . S
C436 C29 1.587 . S
C453 C19 0.834 . S
C472 C79 0.809 . S
C489 C39 0.821 . S
C508 C99 0.820 . S
C525 C59 0.834 . S
C544 C119 0.812 . S
C561 C4 0.827 . S
C580 C24 0.790 . S
C597 C22 0.985 . S
C616 C42 0.980 . S
C633 C44 0.820 . S
C652 C64 0.831 . S
C669 C62 0.987 . S
C688 C82 0.957 . S
C705 C84 0.821 . S
C724 C104 0.822 . S
C741 C102 0.963 . S
C760 C2 0.968 . S
