# Generated by pormake.
# Topology wir, (6)-cn, num edge types: 1
# Building blocks:
#     Node 0, Type 0, BuildingBlock: FUNLAD_clean_sbu_0, # of connection points: 6
#     Node 1, Type 0, BuildingBlock: FUNLAD_clean_sbu_0, # of connection points: 6
#     Node 2, Type 0, BuildingBlock: FUNLAD_clean_sbu_0, # of connection points: 6
#     Node 3, Type 0, BuildingBlock: FUNLAD_clean_sbu_0, # of connection points: 6
#     Node 4, Type 0, BuildingBlock: FUNLAD_clean_sbu_0, # of connection points: 6
#     Node 5, Type 0, BuildingBlock: FUNLAD_clean_sbu_0, # of connection points: 6
#     Node 6, Type 0, BuildingBlock: FUNLAD_clean_sbu_0, # of connection points: 6
#     Node 7, Type 0, BuildingBlock: FUNLAD_clean_sbu_0, # of connection points: 6
#     Node 8, Type 0, BuildingBlock: FUNLAD_clean_sbu_0, # of connection points: 6
#     Node 9, Type 0, BuildingBlock: FUNLAD_clean_sbu_0, # of connection points: 6
#     Node 10, Type 0, BuildingBlock: FUNLAD_clean_sbu_0, # of connection points: 6
#     Node 11, Type 0, BuildingBlock: FUNLAD_clean_sbu_0, # of connection points: 6
#     Node 12, Type 0, BuildingBlock: FUNLAD_clean_sbu_0, # of connection points: 6
#     Node 13, Type 0, BuildingBlock: FUNLAD_clean_sbu_0, # of connection points: 6
#     Node 14, Type 0, BuildingBlock: FUNLAD_clean_sbu_0, # of connection points: 6
#     Node 15, Type 0, BuildingBlock: FUNLAD_clean_sbu_0, # of connection points: 6
#     Node 16, Type 0, BuildingBlock: FUNLAD_clean_sbu_0, # of connection points: 6
#     Node 17, Type 0, BuildingBlock: FUNLAD_clean_sbu_0, # of connection points: 6
#     Node 18, Type 0, BuildingBlock: FUNLAD_clean_sbu_0, # of connection points: 6
#     Node 19, Type 0, BuildingBlock: FUNLAD_clean_sbu_0, # of connection points: 6
#     Node 20, Type 0, BuildingBlock: FUNLAD_clean_sbu_0, # of connection points: 6
#     Node 21, Type 0, BuildingBlock: FUNLAD_clean_sbu_0, # of connection points: 6
#     Node 22, Type 0, BuildingBlock: FUNLAD_clean_sbu_0, # of connection points: 6
#     Node 23, Type 0, BuildingBlock: FUNLAD_clean_sbu_0, # of connection points: 6
#     Node 24, Type 0, BuildingBlock: FUNLAD_clean_sbu_0, # of connection points: 6
#     Node 25, Type 0, BuildingBlock: FUNLAD_clean_sbu_0, # of connection points: 6
#     Node 26, Type 0, BuildingBlock: FUNLAD_clean_sbu_0, # of connection points: 6
#     Node 27, Type 0, BuildingBlock: FUNLAD_clean_sbu_0, # of connection points: 6
#     Node 28, Type 0, BuildingBlock: FUNLAD_clean_sbu_0, # of connection points: 6
#     Node 29, Type 0, BuildingBlock: FUNLAD_clean_sbu_0, # of connection points: 6
#     Node 30, Type 0, BuildingBlock: FUNLAD_clean_sbu_0, # of connection points: 6
#     Node 31, Type 0, BuildingBlock: FUNLAD_clean_sbu_0, # of connection points: 6
#     Edge 32, Type (0, 0), None
#     Edge 33, Type (0, 0), None
#     Edge 34, Type (0, 0), None
#     Edge 35, Type (0, 0), None
#     Edge 36, Type (0, 0), None
#     Edge 37, Type (0, 0), None
#     Edge 38, Type (0, 0), None
#     Edge 39, Type (0, 0), None
#     Edge 40, Type (0, 0), None
#     Edge 41, Type (0, 0), None
#     Edge 42, Type (0, 0), None
#     Edge 43, Type (0, 0), None
#     Edge 44, Type (0, 0), None
#     Edge 45, Type (0, 0), None
#     Edge 46, Type (0, 0), None
#     Edge 47, Type (0, 0), None
#     Edge 48, Type (0, 0), None
#     Edge 49, Type (0, 0), None
#     Edge 50, Type (0, 0), None
#     Edge 51, Type (0, 0), None
#     Edge 52, Type (0, 0), None
#     Edge 53, Type (0, 0), None
#     Edge 54, Type (0, 0), None
#     Edge 55, Type (0, 0), None
#     Edge 56, Type (0, 0), None
#     Edge 57, Type (0, 0), None
#     Edge 58, Type (0, 0), None
#     Edge 59, Type (0, 0), None
#     Edge 60, Type (0, 0), None
#     Edge 61, Type (0, 0), None
#     Edge 62, Type (0, 0), None
#     Edge 63, Type (0, 0), None
#     Edge 64, Type (0, 0), None
#     Edge 65, Type (0, 0), None
#     Edge 66, Type (0, 0), None
#     Edge 67, Type (0, 0), None
#     Edge 68, Type (0, 0), None
#     Edge 69, Type (0, 0), None
#     Edge 70, Type (0, 0), None
#     Edge 71, Type (0, 0), None
#     Edge 72, Type (0, 0), None
#     Edge 73, Type (0, 0), None
#     Edge 74, Type (0, 0), None
#     Edge 75, Type (0, 0), None
#     Edge 76, Type (0, 0), None
#     Edge 77, Type (0, 0), None
#     Edge 78, Type (0, 0), None
#     Edge 79, Type (0, 0), None
#     Edge 80, Type (0, 0), None
#     Edge 81, Type (0, 0), None
#     Edge 82, Type (0, 0), None
#     Edge 83, Type (0, 0), None
#     Edge 84, Type (0, 0), None
#     Edge 85, Type (0, 0), None
#     Edge 86, Type (0, 0), None
#     Edge 87, Type (0, 0), None
#     Edge 88, Type (0, 0), None
#     Edge 89, Type (0, 0), None
#     Edge 90, Type (0, 0), None
#     Edge 91, Type (0, 0), None
#     Edge 92, Type (0, 0), None
#     Edge 93, Type (0, 0), None
#     Edge 94, Type (0, 0), None
#     Edge 95, Type (0, 0), None
#     Edge 96, Type (0, 0), None
#     Edge 97, Type (0, 0), None
#     Edge 98, Type (0, 0), None
#     Edge 99, Type (0, 0), None
#     Edge 100, Type (0, 0), None
#     Edge 101, Type (0, 0), None
#     Edge 102, Type (0, 0), None
#     Edge 103, Type (0, 0), None
#     Edge 104, Type (0, 0), None
#     Edge 105, Type (0, 0), None
#     Edge 106, Type (0, 0), None
#     Edge 107, Type (0, 0), None
#     Edge 108, Type (0, 0), None
#     Edge 109, Type (0, 0), None
#     Edge 110, Type (0, 0), None
#     Edge 111, Type (0, 0), None
#     Edge 112, Type (0, 0), None
#     Edge 113, Type (0, 0), None
#     Edge 114, Type (0, 0), None
#     Edge 115, Type (0, 0), None
#     Edge 116, Type (0, 0), None
#     Edge 117, Type (0, 0), None
#     Edge 118, Type (0, 0), None
#     Edge 119, Type (0, 0), None
#     Edge 120, Type (0, 0), None
#     Edge 121, Type (0, 0), None
#     Edge 122, Type (0, 0), None
#     Edge 123, Type (0, 0), None
#     Edge 124, Type (0, 0), None
#     Edge 125, Type (0, 0), None
#     Edge 126, Type (0, 0), None
#     Edge 127, Type (0, 0), None
# Relax obj value: 1.916
# Max RMSD: 0.267
# Mean RMSD: 0.267
data_MOF--net-wir--node1-FUNLAD_clean_sbu_0--edge1-none
_symmetry_space_group_name_H-M    P1
_symmetry_Int_Tables_number       1
_symmetry_cell_setting            triclinic
loop_
_symmetry_equiv_pos_as_xyz
'x, y, z'
_cell_length_a     23.381864
_cell_length_b     23.099823
_cell_length_c     27.314736
_cell_angle_alpha  89.999886
_cell_angle_beta   90.000347
_cell_angle_gamma 89.999589
loop_
_atom_site_label
_atom_site_type_symbol
_atom_site_fract_x
_atom_site_fract_y
_atom_site_fract_z
_atom_type_partial_charge
C0 C 0.27686 0.16211 0.32452 0.0
N1 N 0.3338 0.26553 0.46424 0.0
C2 C 0.32581 0.23132 0.5048 0.0
C3 C 0.3736 0.21806 0.5333 0.0
C4 C 0.42578 0.23626 0.51345 0.0
C5 C 0.4246 0.29236 0.49477 0.0
C6 C 0.37784 0.30417 0.46482 0.0
Zn7 Zn 0.27888 0.26951 0.40723 0.0
C8 C 0.32951 0.35427 0.31595 0.0
N9 N 0.17642 0.31296 0.30092 0.0
C10 C 0.13212 0.27613 0.29503 0.0
C11 C 0.17613 0.36806 0.28447 0.0
C12 C 0.12924 0.38853 0.26027 0.0
C13 C 1.0824 0.35154 0.25147 0.0
C14 C 1.0837 0.29501 0.27151 0.0
Zn15 Zn 0.23656 0.29108 0.34281 0.0
O16 O 0.30185 0.17875 0.36479 0.0
C17 C 0.17 0.24047 0.43693 0.0
O18 O 0.2428 0.19998 0.30615 0.0
H19 H 0.21176 0.39678 0.29097 0.0
H20 H 0.28743 0.20655 0.5106 0.0
H21 H 0.13388 0.23275 0.30983 0.0
O22 O 0.2182 0.22434 0.45235 0.0
O23 O 0.1682 0.26399 0.3949 0.0
H24 H 0.37844 0.34085 0.44052 0.0
O25 O 0.2345 0.38076 0.37824 0.0
O26 O 0.25801 0.34231 0.44747 0.0
O27 O 0.29376 0.32758 0.28977 0.0
O28 O 0.33713 0.33428 0.35982 0.0
C29 C 0.24697 0.38691 0.42335 0.0
H30 H 0.37159 0.18086 0.55727 0.0
H31 H 0.46326 0.31732 0.4911 0.0
H32 H 0.13058 0.43291 0.24828 0.0
H33 H 1.04908 0.26449 0.26745 0.0
C34 C 0.31878 1.04273 0.57445 0.0
N35 N 0.22323 1.08577 0.72207 0.0
C36 C 0.2606 1.07569 0.75962 0.0
C37 C 0.28103 0.12409 0.78494 0.0
C38 C 0.26682 0.17714 0.76285 0.0
C39 C 0.20905 0.18114 0.75071 0.0
C40 C 0.18885 0.13362 0.72481 0.0
Zn41 Zn 0.21624 1.03479 0.66253 0.0
C42 C 0.13646 1.10173 0.58153 0.0
N43 N 0.15606 0.9543 0.54571 0.0
C44 C 0.1746 0.89986 0.5382 0.0
C45 C 1.10408 0.97289 0.52923 0.0
C46 C 1.06965 0.93729 0.50217 0.0
C47 C 1.08524 0.87962 0.49645 0.0
C48 C 0.13895 0.86101 0.51522 0.0
Zn49 Zn 0.19359 1.00222 0.59449 0.0
O50 O 0.30309 1.06277 0.6171 0.0
C51 C 0.24712 0.92052 0.67721 0.0
O52 O 0.28151 1.00921 0.5543 0.0
H53 H 1.08632 1.01398 0.53916 0.0
H54 H 0.2819 1.03456 0.76396 0.0
H55 H 0.21541 0.88582 0.55244 0.0
O56 O 0.26251 0.9671 0.69791 0.0
O57 O 0.22076 0.92407 0.63641 0.0
H58 H 0.14997 0.13765 0.70405 0.0
O59 O 1.10551 0.99797 0.63525 0.0
O60 O 0.14746 1.00781 0.70507 0.0
O61 O 0.16462 1.07244 0.55136 0.0
O62 O 0.15338 1.10006 0.62604 0.0
C63 C 1.10191 1.00051 0.68193 0.0
H64 H 0.31884 0.11982 0.80737 0.0
H65 H 0.18837 0.22249 0.74611 0.0
H66 H 1.02921 0.95386 0.48939 0.0
H67 H 0.15425 0.81715 0.51258 0.0
C68 C 0.44117 1.07085 0.82452 0.0
N69 N 0.38424 0.96742 0.96424 0.0
C70 C 0.39223 1.00163 1.0048 0.0
C71 C 0.34444 1.0149 1.0333 0.0
C72 C 0.29226 0.99669 1.01345 0.0
C73 C 0.29344 0.94059 0.99477 0.0
C74 C 0.34019 0.92879 0.96482 0.0
Zn75 Zn 0.43916 0.96344 0.90723 0.0
C76 C 0.38853 0.87869 0.81595 0.0
N77 N 0.54162 0.92 0.80092 0.0
C78 C 0.58592 0.95682 0.79503 0.0
C79 C 0.54191 0.86489 0.78447 0.0
C80 C 0.5888 0.84442 0.76027 0.0
C81 C 0.63564 0.88141 0.75148 0.0
C82 C 0.63434 0.93795 0.77151 0.0
Zn83 Zn 0.48148 0.94187 0.84281 0.0
O84 O 0.41619 1.0542 0.86479 0.0
C85 C 0.54804 0.99248 0.93693 0.0
O86 O 0.47524 1.03297 0.80615 0.0
H87 H 0.50627 0.83618 0.79097 0.0
H88 H 0.43061 1.02641 1.0106 0.0
H89 H 0.58416 1.0002 0.80983 0.0
O90 O 0.49984 1.00861 0.95235 0.0
O91 O 0.54984 0.96896 0.8949 0.0
H92 H 0.33959 0.89211 0.94052 0.0
O93 O 0.48354 0.85219 0.87824 0.0
O94 O 0.46003 0.89065 0.94747 0.0
O95 O 0.42428 0.90537 0.78977 0.0
O96 O 0.38091 0.89867 0.85982 0.0
C97 C 0.47107 0.84604 0.92335 0.0
H98 H 0.34644 1.0521 1.05727 0.0
H99 H 0.25478 0.91563 0.9911 0.0
H100 H 0.58745 0.80005 0.74828 0.0
H101 H 0.66896 0.96847 0.76745 0.0
C102 C 0.39925 0.19022 0.07445 0.0
N103 N 0.49481 0.14719 0.22207 0.0
C104 C 0.45744 0.15726 0.25962 0.0
C105 C 0.43701 1.10886 0.28494 0.0
C106 C 0.45122 1.05581 0.26286 0.0
C107 C 0.50899 1.05181 0.25072 0.0
C108 C 0.52919 1.09933 0.22481 0.0
Zn109 Zn 0.5018 0.19817 0.16253 0.0
C110 C 0.58158 0.13122 0.08153 0.0
N111 N 0.56198 0.27865 1.04571 0.0
C112 C 0.54344 0.33309 1.0382 0.0
C113 C 0.61395 0.26006 1.02923 0.0
C114 C 0.64839 0.29566 1.00217 0.0
C115 C 0.6328 0.35333 0.99645 0.0
C116 C 0.57909 0.37195 1.01522 0.0
Zn117 Zn 0.52444 0.23073 0.09449 0.0
O118 O 0.41494 0.17018 0.1171 0.0
C119 C 0.47092 0.31243 0.17721 0.0
O120 O 0.43653 0.22375 1.0543 0.0
H121 H 0.63171 0.21898 1.03916 0.0
H122 H 0.43614 0.19839 0.26396 0.0
H123 H 0.50263 0.34713 1.05244 0.0
O124 O 0.45553 0.26585 0.19791 0.0
O125 O 0.49728 0.30888 0.13641 0.0
H126 H 0.56806 1.0953 0.20405 0.0
O127 O 0.61253 0.23498 0.13525 0.0
O128 O 0.57058 0.22514 0.20507 0.0
O129 O 0.55342 0.16052 1.05136 0.0
O130 O 0.56466 0.1329 0.12604 0.0
C131 C 0.61612 0.23244 0.18193 0.0
H132 H 0.3992 1.11313 0.30737 0.0
H133 H 0.52967 1.01046 0.24611 0.0
H134 H 0.68883 0.27909 0.98939 0.0
H135 H 0.56379 0.4158 1.01258 0.0
C136 C 0.27973 1.09745 0.30323 0.0
N137 N 0.33478 1.00755 0.15571 0.0
C138 C 0.3415 1.06493 0.16082 0.0
C139 C 0.38054 1.08317 0.19532 0.0
C140 C 0.41534 1.04117 0.21927 0.0
C141 C 0.42102 0.98723 0.19621 0.0
C142 C 0.38069 0.97232 0.16083 0.0
Zn143 Zn 0.28473 0.98715 0.21489 0.0
C144 C 0.36004 0.91033 0.2974 0.0
N145 N 0.22559 0.93179 0.34225 0.0
C146 C 0.20236 0.9635 0.37915 0.0
C147 C 0.24593 0.87705 0.35108 0.0
C148 C 0.23598 0.85179 0.39571 0.0
C149 C 0.18869 0.87476 0.41885 0.0
C150 C 0.19036 0.93542 0.42266 0.0
Zn151 Zn 0.25853 0.96845 0.28642 0.0
O152 O 0.29599 1.0828 0.25948 0.0
C153 C 0.17039 1.00861 0.2045 0.0
O154 O 0.25987 1.05523 0.32746 0.0
H155 H 0.27055 0.85289 0.3251 0.0
H156 H 0.30911 1.09441 0.1474 0.0
H157 H 0.19086 1.00836 0.37469 0.0
O158 O 0.21427 1.02311 0.18007 0.0
O159 O 0.17661 0.98971 0.24848 0.0
H160 H 0.37842 0.92842 0.14738 0.0
O161 O 0.25314 0.87938 0.24598 0.0
O162 O 0.2668 0.9131 0.17304 0.0
O163 O 0.33397 0.94281 0.32655 0.0
O164 O 0.35425 0.92357 0.25219 0.0
C165 C 0.25714 0.87023 0.19998 0.0
H166 H 0.3778 0.12807 0.20567 0.0
H167 H 0.45119 0.95529 0.20933 0.0
H168 H 0.24887 0.80723 0.40072 0.0
H169 H 0.16586 0.95893 0.44919 0.0
C170 C 0.38318 1.04704 0.55413 0.0
N171 N 0.49295 1.1123 0.41887 0.0
C172 C 0.43632 0.12052 0.41591 0.0
C173 C 0.41274 0.16033 0.44727 0.0
C174 C 0.44929 0.19565 0.47651 0.0
C175 C 0.50724 0.19768 0.46427 0.0
C176 C 0.52802 0.15672 0.43145 0.0
Zn177 Zn 0.49858 1.05273 0.47331 0.0
C178 C 0.57903 1.10768 0.56399 0.0
N179 N 0.5227 0.96307 0.59316 0.0
C180 C 0.48286 0.92155 0.60276 0.0
C181 C 0.56106 0.97964 0.62742 0.0
C182 C 0.56171 0.95172 0.67135 0.0
C183 C 0.54172 0.89509 0.66867 0.0
C184 C 0.4892 0.88874 0.64478 0.0
Zn185 Zn 0.51027 1.01604 0.54216 0.0
O186 O 0.40047 1.06897 0.51266 0.0
C187 C 0.47201 0.94298 0.44933 0.0
O188 O 0.42273 1.02189 0.57725 0.0
H189 H 0.59472 1.01004 0.61967 0.0
H190 H 0.40932 1.08811 0.39905 0.0
H191 H 0.4477 0.91345 0.57798 0.0
O192 O 0.46078 0.99032 0.4279 0.0
O193 O 0.48626 0.94389 0.49439 0.0
H194 H 0.57363 0.15335 0.42534 0.0
O195 O 0.60109 1.00513 0.50974 0.0
O196 O 0.57288 1.03165 0.43695 0.0
O197 O 0.54258 1.08371 0.5911 0.0
O198 O 0.56469 1.11083 0.51881 0.0
C199 C 0.61252 1.01479 0.46441 0.0
H200 H 0.36696 0.15879 0.45023 0.0
H201 H 0.53575 0.22803 0.48159 0.0
H202 H 0.59693 0.96419 0.69339 0.0
H203 H 0.46304 0.85094 0.64936 0.0
C204 C 0.43831 0.1355 0.80323 0.0
N205 N 0.38325 0.2254 0.65571 0.0
C206 C 0.37654 0.16802 0.66082 0.0
C207 C 0.3375 0.14978 0.69532 0.0
C208 C 0.3027 0.19178 0.71927 0.0
C209 C 0.29702 0.24572 0.69621 0.0
C210 C 0.33735 0.26063 0.66083 0.0
Zn211 Zn 0.43331 0.2458 0.71489 0.0
C212 C 0.358 0.32262 0.7974 0.0
N213 N 0.49245 0.30116 0.84225 0.0
C214 C 0.51568 0.26946 0.87915 0.0
C215 C 0.47211 0.35591 0.85108 0.0
C216 C 0.48205 0.38117 0.89571 0.0
C217 C 0.52935 0.35819 0.91885 0.0
C218 C 0.52768 0.29753 0.92266 0.0
Zn219 Zn 0.45951 0.2645 0.78642 0.0
O220 O 0.42205 0.15016 0.75948 0.0
C221 C 0.54765 0.22435 0.7045 0.0
O222 O 0.45817 0.17772 0.82746 0.0
H223 H 0.44749 0.38006 0.8251 0.0
H224 H 0.40893 0.13855 0.6474 0.0
H225 H 0.52718 0.22459 0.87469 0.0
O226 O 0.50377 0.20985 0.68007 0.0
O227 O 0.54143 0.24324 0.74848 0.0
H228 H 0.33962 0.30453 0.64738 0.0
O229 O 0.4649 0.35357 0.74598 0.0
O230 O 0.45123 0.31985 0.67304 0.0
O231 O 0.38407 0.29014 0.82655 0.0
O232 O 0.36379 0.30939 0.75219 0.0
C233 C 0.4609 0.36272 0.69998 0.0
H234 H 0.34024 1.10489 0.70566 0.0
H235 H 0.26685 0.27766 0.70933 0.0
H236 H 0.46917 0.42572 0.90072 0.0
H237 H 0.55218 0.27402 0.94919 0.0
C238 C 0.33486 0.18591 1.05413 0.0
N239 N 0.22509 0.12065 0.91887 0.0
C240 C 0.28171 1.11243 0.91591 0.0
C241 C 0.3053 1.07262 0.94727 0.0
C242 C 0.26875 1.0373 0.97651 0.0
C243 C 0.2108 1.03527 0.96427 0.0
C244 C 0.19002 1.07623 0.93145 0.0
Zn245 Zn 0.21945 0.18022 0.97331 0.0
C246 C 0.13901 0.12527 1.06399 0.0
N247 N 0.19534 0.26988 0.09316 0.0
C248 C 0.23518 0.31141 0.10276 0.0
C249 C 0.15698 0.25331 0.12742 0.0
C250 C 0.15632 0.28123 0.17135 0.0
C251 C 0.17632 0.33787 0.16867 0.0
C252 C 0.22883 0.34421 0.14478 0.0
Zn253 Zn 0.20777 0.21692 1.04216 0.0
O254 O 0.31757 0.16398 1.01266 0.0
C255 C 0.24603 0.28997 0.94933 0.0
O256 O 0.29531 0.21106 0.07725 0.0
H257 H 0.12332 0.22292 0.11967 0.0
H258 H 0.30871 0.14484 0.89905 0.0
H259 H 0.27033 0.3195 0.07798 0.0
O260 O 0.25726 0.24264 0.9279 0.0
O261 O 0.23178 0.28906 0.99439 0.0
H262 H 0.14441 1.07961 0.92534 0.0
O263 O 0.11695 0.22782 1.00974 0.0
O264 O 0.14516 0.2013 0.93695 0.0
O265 O 0.17545 0.14924 0.0911 0.0
O266 O 0.15335 0.12212 1.01881 0.0
C267 C 1.10551 0.21816 0.96441 0.0
H268 H 0.35108 1.07417 0.95023 0.0
H269 H 0.18229 1.00492 0.98159 0.0
H270 H 0.12111 0.26877 0.19339 0.0
H271 H 0.255 0.38201 0.14936 0.0
C272 C 0.97108 0.84605 0.7241 0.0
N273 N 1.04163 0.91999 0.84654 0.0
C274 C 1.0419 0.86488 0.86299 0.0
C275 C 1.08879 0.84439 0.88719 0.0
C276 C 0.13563 0.88136 0.89599 0.0
C277 C 0.13435 0.9379 0.87596 0.0
C278 C 1.08594 0.95679 0.85244 0.0
Zn279 Zn 0.98149 0.94187 0.80465 0.0
C280 C 1.04804 0.9925 0.71053 0.0
N281 N 0.88424 0.96741 0.68321 0.0
C282 C 0.8402 0.92877 0.68262 0.0
C283 C 0.89224 1.00162 0.64266 0.0
C284 C 0.84445 1.01491 0.61417 0.0
C285 C 0.79226 0.9967 0.63401 0.0
C286 C 0.79345 0.94059 0.65267 0.0
Zn287 Zn 0.93917 0.96344 0.74023 0.0
O288 O 0.98355 0.8522 0.76921 0.0
C289 C 0.88855 0.87867 0.83151 0.0
O290 O 0.96004 0.89066 0.69998 0.0
H291 H 0.93062 1.02639 0.63685 0.0
H292 H 1.00626 0.83618 0.85648 0.0
H293 H 0.8396 0.8921 0.70693 0.0
O294 O 0.92429 0.90536 0.85769 0.0
O295 O 0.88092 0.89866 0.78763 0.0
H296 H 1.0842 1.00017 0.83764 0.0
O297 O 0.91618 1.05419 0.78268 0.0
O298 O 0.97524 1.03297 0.84132 0.0
O299 O 0.99983 1.00863 0.69512 0.0
O300 O 1.04985 0.96898 0.75256 0.0
C301 C 0.94117 1.07084 0.82295 0.0
H302 H 1.08742 0.80002 0.89919 0.0
H303 H 0.16899 0.9684 0.88002 0.0
H304 H 0.84645 1.05212 0.59021 0.0
H305 H 0.75481 0.91559 0.65638 0.0
C306 C 0.11612 0.23248 0.46552 0.0
N307 N 1.06197 0.27874 0.60171 0.0
C308 C 0.11397 0.26017 0.61817 0.0
C309 C 0.14841 0.29577 0.64522 0.0
C310 C 0.13279 0.35343 0.65097 0.0
C311 C 1.07907 0.37203 0.63222 0.0
C312 C 1.04343 0.33318 0.60923 0.0
Zn313 Zn 1.02444 0.23077 0.55297 0.0
C314 C 0.97089 0.31245 0.47024 0.0
N315 N 0.99484 0.14719 0.4254 0.0
C316 C 1.0292 1.09933 0.42268 0.0
C317 C 0.95748 0.15727 0.38784 0.0
C318 C 0.93703 1.10886 0.36254 0.0
C319 C 0.95124 1.05582 0.38463 0.0
C320 C 1.00901 1.05181 0.39678 0.0
Zn321 Zn 1.0018 0.19819 0.48494 0.0
O322 O 0.11253 0.23503 0.5122 0.0
C323 C 1.08161 0.13129 0.56596 0.0
O324 O 1.07058 0.22517 0.44239 0.0
H325 H 0.93618 0.1984 0.38349 0.0
H326 H 0.13174 0.21909 0.60822 0.0
H327 H 1.06806 1.09529 0.44346 0.0
O328 O 1.05344 0.16059 0.59612 0.0
O329 O 1.06468 0.13295 0.52144 0.0
H330 H 1.00261 0.34721 0.595 0.0
O331 O 0.91496 0.1702 0.53037 0.0
O332 O 0.93652 0.22378 0.59316 0.0
O333 O 0.95552 0.26586 0.44954 0.0
O334 O 0.99725 0.30891 0.51103 0.0
C335 C 0.89926 0.19023 0.57301 0.0
H336 H 0.18886 0.27921 0.65797 0.0
H337 H 1.06375 0.41587 0.63487 0.0
H338 H 0.89922 1.11314 0.34012 0.0
H339 H 1.02971 1.01049 0.4015 0.0
C340 C 0.74696 0.38691 0.2241 0.0
N341 N 0.67641 0.31296 0.34654 0.0
C342 C 0.67613 0.36807 0.36299 0.0
C343 C 0.62925 0.38856 0.38719 0.0
C344 C 0.58241 0.35159 0.39599 0.0
C345 C 0.58368 0.29505 0.37596 0.0
C346 C 0.6321 0.27616 0.35243 0.0
Zn347 Zn 0.73655 0.29108 0.30465 0.0
C348 C 0.67 0.24045 0.21053 0.0
N349 N 0.83379 0.26554 0.18321 0.0
C350 C 0.87784 0.30418 0.18262 0.0
C351 C 0.8258 0.23133 0.14266 0.0
C352 C 0.87359 0.21805 0.11417 0.0
C353 C 0.92577 0.23626 0.13401 0.0
C354 C 0.92459 0.29237 0.15267 0.0
Zn355 Zn 0.77887 0.26951 0.24023 0.0
O356 O 0.73449 0.38076 0.26921 0.0
C357 C 0.82949 0.35429 0.33151 0.0
O358 O 0.75799 0.3423 0.19998 0.0
H359 H 0.78742 0.20656 0.13685 0.0
H360 H 0.71177 0.39678 0.35648 0.0
H361 H 0.87844 0.34086 0.20693 0.0
O362 O 0.79375 0.3276 0.35769 0.0
O363 O 0.83712 0.33429 0.28763 0.0
H364 H 0.63383 0.23278 0.33764 0.0
O365 O 0.80185 0.17876 0.28269 0.0
O366 O 0.74279 0.19998 0.34132 0.0
O367 O 0.7182 0.22433 0.19512 0.0
O368 O 0.66819 0.26397 0.25256 0.0
C369 C 0.77687 0.16211 0.32296 0.0
H370 H 0.63062 0.43293 0.39919 0.0
H371 H 0.54905 0.26455 0.38002 0.0
H372 H 0.87158 0.18083 0.09021 0.0
H373 H 0.96323 0.31736 0.15638 0.0
C374 C 0.60191 1.00047 0.96552 0.0
N375 N 0.65606 0.95422 0.10172 0.0
C376 C 0.60407 0.97278 0.11817 0.0
C377 C 0.56963 0.93718 0.14522 0.0
C378 C 0.58525 0.87952 0.15097 0.0
C379 C 0.63897 0.86092 0.13222 0.0
C380 C 0.67461 0.89978 0.10923 0.0
Zn381 Zn 0.69359 1.00218 1.05297 0.0
C382 C 0.74715 0.9205 0.97024 0.0
N383 N 0.7232 1.08576 0.9254 0.0
C384 C 0.68883 0.13362 0.92268 0.0
C385 C 0.76056 1.07568 0.88784 0.0
C386 C 0.78101 0.12409 0.86254 0.0
C387 C 0.7668 0.17713 0.88463 0.0
C388 C 0.70903 0.18115 0.89678 0.0
Zn389 Zn 0.71623 1.03476 0.98494 0.0
O390 O 0.60551 0.99792 1.0122 0.0
C391 C 0.63643 1.10166 1.06596 0.0
O392 O 0.64745 1.00779 0.94239 0.0
H393 H 0.78185 1.03456 0.88349 0.0
H394 H 0.5863 1.01386 0.10822 0.0
H395 H 0.64997 0.13766 0.94346 0.0
O396 O 0.6646 1.07237 0.09612 0.0
O397 O 0.65336 1.10001 1.02144 0.0
H398 H 0.71543 0.88575 0.095 0.0
O399 O 0.80308 1.06275 1.03037 0.0
O400 O 0.78152 1.00918 0.09316 0.0
O401 O 0.76252 0.96709 0.94954 0.0
O402 O 0.72079 0.92405 1.01103 0.0
C403 C 0.81878 1.04272 1.07301 0.0
H404 H 0.52918 0.95374 0.15797 0.0
H405 H 0.65428 0.81708 0.13487 0.0
H406 H 0.81882 0.11981 0.84012 0.0
H407 H 0.68833 0.22247 0.9015 0.0
C408 C 0.96093 0.36274 0.94746 0.0
N409 N 0.99252 0.3011 0.8052 0.0
C410 C 0.97215 0.35583 0.79635 0.0
C411 C 0.98206 0.38108 0.75171 0.0
C412 C 1.02936 0.35813 0.72856 0.0
C413 C 1.02771 0.29746 0.72477 0.0
C414 C 1.01572 0.26939 0.76828 0.0
Zn415 Zn 0.95953 0.2645 0.86103 0.0
C416 C 1.04766 0.22435 0.94296 0.0
N417 N 0.88329 0.22535 0.99173 0.0
C418 C 0.83747 0.26068 0.98652 0.0
C419 C 0.87644 0.16797 0.98673 0.0
C420 C 0.83743 0.14975 0.95219 0.0
C421 C 0.80269 0.19177 0.9282 0.0
C422 C 0.79708 0.24575 0.95121 0.0
Zn423 Zn 0.93331 0.24582 0.93256 0.0
O424 O 0.96493 0.35358 0.90146 0.0
C425 C 0.85802 0.32264 0.85003 0.0
O426 O 0.95126 0.31987 0.9744 0.0
H427 H 0.90877 0.13846 1.00021 0.0
H428 H 0.94754 0.37999 0.82233 0.0
H429 H 0.83982 0.30462 0.99989 0.0
O430 O 0.88408 0.29015 0.82089 0.0
O431 O 0.86381 0.30943 0.89524 0.0
H432 H 1.02719 0.22452 0.77274 0.0
O433 O 0.92201 0.15017 0.88798 0.0
O434 O 0.95818 0.17771 0.82002 0.0
O435 O 1.00377 0.20985 0.96738 0.0
O436 O 1.04144 0.24324 0.89898 0.0
C437 C 0.9383 0.1355 0.84424 0.0
H438 H 0.96916 0.42563 0.7467 0.0
H439 H 1.05214 0.27402 0.69815 0.0
H440 H 0.84014 1.10485 0.94188 0.0
H441 H 0.76695 0.27772 0.93807 0.0
C442 C 0.60551 0.21816 0.68305 0.0
N443 N 0.69532 0.26988 0.5543 0.0
C444 C 0.65693 0.25327 0.52007 0.0
C445 C 0.65628 0.28111 0.4761 0.0
C446 C 0.67629 0.33775 0.47872 0.0
C447 C 0.72883 0.34409 0.50256 0.0
C448 C 0.73519 0.31136 0.54462 0.0
Zn449 Zn 0.70776 0.2169 0.60529 0.0
C450 C 0.74604 0.28996 0.6981 0.0
N451 N 0.72517 0.12068 0.7286 0.0
C452 C 0.69003 1.07634 0.71593 0.0
C453 C 0.78177 1.11233 0.73165 0.0
C454 C 0.80533 1.07255 0.70026 0.0
C455 C 0.76877 1.03729 0.67097 0.0
C456 C 0.7108 1.03533 0.68315 0.0
Zn457 Zn 0.71944 0.18021 0.67414 0.0
O458 O 0.61695 0.22782 0.63772 0.0
C459 C 0.63898 0.12527 0.58345 0.0
O460 O 0.64515 0.20129 0.71051 0.0
H461 H 0.80879 0.1447 0.74854 0.0
H462 H 0.62326 0.22292 0.52788 0.0
H463 H 0.64442 1.07979 0.72199 0.0
O464 O 0.67544 0.14921 0.55635 0.0
O465 O 0.65332 0.12211 0.62863 0.0
H466 H 0.77038 0.31946 0.56936 0.0
O467 O 0.81756 0.16397 0.6348 0.0
O468 O 0.7953 0.21104 0.5702 0.0
O469 O 0.75725 0.24263 0.71953 0.0
O470 O 0.73178 0.28905 0.65304 0.0
C471 C 0.83486 0.1859 0.59333 0.0
H472 H 0.62108 0.26862 0.45405 0.0
H473 H 0.75505 0.38181 0.49778 0.0
H474 H 0.85112 1.07405 0.69733 0.0
H475 H 0.68227 1.00502 0.6658 0.0
C476 C 0.75711 0.87021 0.44746 0.0
N477 N 0.72551 0.93185 0.3052 0.0
C478 C 0.74588 0.87712 0.29635 0.0
C479 C 0.73598 0.85187 0.25171 0.0
C480 C 0.68868 0.87483 0.22856 0.0
C481 C 0.69032 0.9355 0.22477 0.0
C482 C 0.70232 0.96356 0.26828 0.0
Zn483 Zn 0.75851 0.96845 0.36103 0.0
C484 C 0.67038 1.0086 0.44296 0.0
N485 N 0.83475 1.0076 0.49173 0.0
C486 C 0.88057 0.97227 0.48652 0.0
C487 C 0.84159 1.06498 0.48673 0.0
C488 C 0.8806 1.0832 0.4522 0.0
C489 C 0.91534 1.04118 0.4282 0.0
C490 C 0.92096 0.9872 0.45121 0.0
Zn491 Zn 0.78473 0.98713 0.43256 0.0
O492 O 0.75311 0.87937 0.40146 0.0
C493 C 0.86002 0.91031 0.35003 0.0
O494 O 0.76678 0.91308 0.4744 0.0
H495 H 0.80927 1.09449 0.50021 0.0
H496 H 0.7705 0.85296 0.32234 0.0
H497 H 0.87822 0.92834 0.49989 0.0
O498 O 0.83395 0.9428 0.32089 0.0
O499 O 0.85423 0.92353 0.39524 0.0
H500 H 0.69084 1.00844 0.27274 0.0
O501 O 0.79603 1.08278 0.38798 0.0
O502 O 0.75986 1.05524 0.32002 0.0
O503 O 0.71427 1.0231 0.46738 0.0
O504 O 0.6766 0.98971 0.39898 0.0
C505 C 0.77974 1.09745 0.34424 0.0
H506 H 0.74888 0.80732 0.2467 0.0
H507 H 0.6659 0.95894 0.19815 0.0
H508 H 0.8779 0.1281 0.44188 0.0
H509 H 0.95109 0.95523 0.43807 0.0
C510 C 0.11253 1.0148 0.18305 0.0
N511 N 1.02271 0.96308 1.0543 0.0
C512 C 1.06111 0.97968 1.02007 0.0
C513 C 1.06176 0.95184 0.9761 0.0
C514 C 1.04175 0.89521 0.97872 0.0
C515 C 0.98921 0.88887 1.00256 0.0
C516 C 0.98285 0.9216 1.04462 0.0
Zn517 Zn 1.01028 1.01605 0.10529 0.0
C518 C 0.972 0.94299 0.1981 0.0
N519 N 0.99287 1.11228 0.2286 0.0
C520 C 1.02801 0.15662 0.21593 0.0
C521 C 0.93627 0.12062 0.23165 0.0
C522 C 0.9127 0.16041 0.20026 0.0
C523 C 0.94927 0.19566 0.17097 0.0
C524 C 1.00724 0.19762 0.18315 0.0
Zn525 Zn 0.9986 1.05275 0.17414 0.0
O526 O 1.10109 1.00514 0.13772 0.0
C527 C 1.07906 1.10768 0.08345 0.0
O528 O 1.07289 1.03166 0.21051 0.0
H529 H 0.90925 1.08826 0.24855 0.0
H530 H 1.09478 1.01004 1.02788 0.0
H531 H 1.07362 0.15316 0.22199 0.0
O532 O 1.0426 1.08374 1.05635 0.0
O533 O 1.06472 1.11084 0.12863 0.0
H534 H 0.94766 0.91349 1.06936 0.0
O535 O 0.90048 1.06898 0.1348 0.0
O536 O 0.92274 1.02191 1.0702 0.0
O537 O 0.96079 0.99033 0.21953 0.0
O538 O 0.98626 0.94391 0.15304 0.0
C539 C 0.88318 1.04705 0.09333 0.0
H540 H 1.09696 0.96434 0.95405 0.0
H541 H 0.96299 0.85114 0.99778 0.0
H542 H 0.86692 0.1589 0.19733 0.0
H543 H 1.03577 0.22793 0.1658 0.0
C544 C 0.77976 0.63552 0.84419 0.0
N545 N 0.8348 0.72539 0.99172 0.0
C546 C 0.84151 0.668 0.98661 0.0
C547 C 0.88056 0.64977 0.95211 0.0
C548 C 0.91536 0.69177 0.92815 0.0
C549 C 0.92103 0.74571 0.95123 0.0
C550 C 0.8807 0.76061 0.98661 0.0
Zn551 Zn 0.78474 0.7458 0.93255 0.0
C552 C 0.86004 0.82263 0.85005 0.0
N553 N 0.7256 0.80118 0.80519 0.0
C554 C 0.70236 0.76948 0.7683 0.0
C555 C 0.74594 0.85594 0.79638 0.0
C556 C 0.73599 0.88124 0.75177 0.0
C557 C 0.68878 0.85819 0.72857 0.0
C558 C 0.69032 0.79753 0.72478 0.0
Zn559 Zn 0.75854 0.76451 0.86102 0.0
O560 O 0.796 0.65016 0.88795 0.0
C561 C 0.67039 0.72434 0.94294 0.0
O562 O 0.75989 0.67774 0.81998 0.0
H563 H 0.77056 0.88008 0.82237 0.0
H564 H 0.80912 0.63853 1.00003 0.0
H565 H 0.69084 0.72462 0.77278 0.0
O566 O 0.71427 0.70984 0.96736 0.0
O567 O 0.67661 0.74324 0.89896 0.0
H568 H 0.87844 0.8045 1.00008 0.0
O569 O 0.75315 0.85357 0.90147 0.0
O570 O 0.76682 0.81984 0.97441 0.0
O571 O 0.83398 0.79015 0.8209 0.0
O572 O 0.85426 0.80939 0.89526 0.0
C573 C 0.75714 0.86272 0.94747 0.0
H574 H 0.87781 0.60487 0.94178 0.0
H575 H 0.95119 0.77766 0.93812 0.0
H576 H 0.74888 0.9258 0.74674 0.0
H577 H 0.6658 0.77404 0.69825 0.0
C578 C 0.83485 0.54705 0.09329 0.0
N579 N 0.72508 0.61233 0.22856 0.0
C580 C 0.78171 0.62056 0.23153 0.0
C581 C 0.80531 0.66035 0.20016 0.0
C582 C 0.76878 0.69565 0.17089 0.0
C583 C 0.71082 0.69769 0.18311 0.0
C584 C 0.69003 0.65675 0.21595 0.0
Zn585 Zn 0.71946 0.55275 0.17413 0.0
C586 C 0.63901 0.60768 0.08344 0.0
N587 N 0.69533 0.46307 1.0543 0.0
C588 C 0.73515 0.42151 1.04475 0.0
C589 C 0.65697 0.47964 1.02003 0.0
C590 C 0.65627 0.45169 0.97612 0.0
C591 C 0.67637 0.39509 0.97879 0.0
C592 C 0.7288 0.38863 1.00277 0.0
Zn593 Zn 0.70776 0.51605 0.10529 0.0
O594 O 0.81757 0.56897 0.13478 0.0
C595 C 0.74602 0.443 0.19813 0.0
O596 O 0.7953 0.52189 1.07019 0.0
H597 H 0.62332 0.51004 1.02778 0.0
H598 H 0.8087 0.58815 0.24841 0.0
H599 H 0.77028 0.41341 1.06955 0.0
O600 O 0.75726 0.49034 0.21955 0.0
O601 O 0.73176 0.44391 0.15307 0.0
H602 H 0.64442 0.65339 0.22206 0.0
O603 O 0.61694 0.50514 0.13771 0.0
O604 O 0.64515 0.53167 0.2105 0.0
O605 O 0.67545 0.58371 1.05634 0.0
O606 O 0.65334 0.61083 0.12862 0.0
C607 C 0.60551 0.51481 0.18304 0.0
H608 H 0.85109 0.65879 0.19724 0.0
H609 H 0.68231 0.72803 0.16578 0.0
H610 H 0.62104 0.46412 0.95408 0.0
H611 H 0.75493 0.3508 0.99823 0.0
C612 C 0.93828 0.59744 0.34419 0.0
N613 N 0.88324 0.50757 0.49172 0.0
C614 C 0.87653 0.56495 0.48661 0.0
C615 C 0.83748 0.58319 0.45211 0.0
C616 C 0.80268 0.54118 0.42815 0.0
C617 C 0.79701 0.48724 0.45123 0.0
C618 C 0.83734 0.47234 0.48661 0.0
Zn619 Zn 0.9333 0.48716 0.43255 0.0
C620 C 0.858 0.41032 0.35005 0.0
N621 N 0.99243 0.43177 0.30519 0.0
C622 C 1.01568 0.46348 0.26829 0.0
C623 C 0.97209 0.37702 0.29637 0.0
C624 C 0.98204 0.35171 0.25176 0.0
C625 C 1.02925 0.37476 0.22856 0.0
C626 C 1.02771 0.43543 0.22478 0.0
Zn627 Zn 0.9595 0.46844 0.36102 0.0
O628 O 0.92204 0.5828 0.38794 0.0
C629 C 1.04765 0.50862 0.44293 0.0
O630 O 0.95815 0.55522 0.31998 0.0
H631 H 0.94748 0.35287 0.32237 0.0
H632 H 0.90891 0.59443 0.50003 0.0
H633 H 1.02719 0.50834 0.27278 0.0
O634 O 1.00376 0.52311 0.46736 0.0
O635 O 1.04142 0.48971 0.39895 0.0
H636 H 0.83959 0.42845 0.50008 0.0
O637 O 0.96489 0.37938 0.40147 0.0
O638 O 0.95122 0.41311 0.47441 0.0
O639 O 0.88406 0.4428 0.3209 0.0
O640 O 0.86377 0.42357 0.39526 0.0
C641 C 0.9609 0.37024 0.44747 0.0
H642 H 0.84023 0.62808 0.44178 0.0
H643 H 0.76685 0.45529 0.43812 0.0
H644 H 0.96916 0.30716 0.24674 0.0
H645 H 1.05223 0.45892 0.19825 0.0
C646 C 0.88319 0.6859 0.59329 0.0
N647 N 0.99296 0.62062 0.72856 0.0
C648 C 0.93633 0.6124 0.73154 0.0
C649 C 0.91273 0.5726 0.70016 0.0
C650 C 0.94926 0.5373 0.67089 0.0
C651 C 1.00722 0.53526 0.68311 0.0
C652 C 1.02801 0.5762 0.71595 0.0
Zn653 Zn 0.99858 0.68021 0.67413 0.0
C654 C 1.07903 0.62527 0.58344 0.0
N655 N 1.02271 0.76988 0.5543 0.0
C656 C 0.98289 0.81145 0.54474 0.0
C657 C 1.06107 0.75332 0.52003 0.0
C658 C 1.06177 0.78126 0.47612 0.0
C659 C 1.04167 0.83786 0.47879 0.0
C660 C 0.98924 0.84432 0.50277 0.0
Zn661 Zn 1.01028 0.71691 0.60529 0.0
O662 O 0.90047 0.66398 0.63478 0.0
C663 C 0.97202 0.78995 0.69813 0.0
O664 O 0.92274 0.71107 0.57019 0.0
H665 H 1.09472 0.72291 0.52778 0.0
H666 H 0.90934 0.6448 0.74841 0.0
H667 H 0.94776 0.81954 0.56955 0.0
O668 O 0.96078 0.74262 0.71955 0.0
O669 O 0.98627 0.78904 0.65307 0.0
H670 H 1.07362 0.57956 0.72206 0.0
O671 O 1.10109 0.72781 0.63771 0.0
O672 O 1.07289 0.70128 0.7105 0.0
O673 O 1.04258 0.64924 0.55634 0.0
O674 O 1.06469 0.62212 0.62862 0.0
C675 C 0.11253 0.71815 0.68304 0.0
H676 H 0.86695 0.57416 0.69724 0.0
H677 H 1.03573 0.50493 0.66578 0.0
H678 H 1.097 0.76883 0.45408 0.0
H679 H 0.96311 0.88215 0.49823 0.0
C680 C 0.77686 0.57086 0.82289 0.0
N681 N 0.83381 0.46745 0.68316 0.0
C682 C 0.82581 0.50169 0.64263 0.0
C683 C 0.87359 0.51503 0.61414 0.0
C684 C 0.92576 0.49669 0.63392 0.0
C685 C 0.92465 0.44064 0.6527 0.0
C686 C 0.87786 0.42882 0.6826 0.0
Zn687 Zn 0.77889 0.46345 0.74019 0.0
C688 C 0.82952 0.37868 0.83147 0.0
N689 N 0.67646 0.42 0.84651 0.0
C690 C 0.63215 0.45682 0.8524 0.0
C691 C 0.67618 0.3649 0.86297 0.0
C692 C 0.62929 0.34443 0.88717 0.0
C693 C 0.58247 0.38142 0.89596 0.0
C694 C 0.58373 0.43794 0.87591 0.0
Zn695 Zn 0.73659 0.44188 0.80462 0.0
O696 O 0.80186 0.55421 0.78263 0.0
C697 C 0.67001 0.49249 0.71051 0.0
O698 O 0.74282 0.53298 0.84129 0.0
H699 H 0.71181 0.33618 0.85646 0.0
H700 H 0.78743 0.52647 0.63684 0.0
H701 H 0.6339 0.5002 0.8376 0.0
O702 O 0.71821 0.50862 0.69508 0.0
O703 O 0.66822 0.46898 0.75254 0.0
H704 H 0.87846 0.39215 0.70691 0.0
O705 O 0.73452 0.35221 0.76918 0.0
O706 O 0.75802 0.39066 0.69995 0.0
O707 O 0.7938 0.40539 0.85766 0.0
O708 O 0.83715 0.39867 0.78759 0.0
C709 C 0.74698 0.34606 0.72407 0.0
H710 H 0.87161 0.55225 0.5902 0.0
H711 H 0.96332 0.4157 0.65637 0.0
H712 H 0.63061 0.30005 0.89916 0.0
H713 H 0.54909 0.46844 0.87997 0.0
C714 C 0.89925 0.54271 1.07297 0.0
N715 N 0.99482 0.58578 0.92536 0.0
C716 C 0.95743 0.57571 0.88781 0.0
C717 C 0.93694 0.62411 0.86253 0.0
C718 C 0.95127 0.67714 0.88456 0.0
C719 C 1.00899 0.6812 0.89682 0.0
C720 C 1.02919 0.63364 0.92266 0.0
Zn721 Zn 1.0018 0.53479 0.9849 0.0
C722 C 1.08158 0.60173 1.06591 0.0
N723 N 1.06199 0.45429 0.10171 0.0
C724 C 1.04344 0.39985 0.10924 0.0
C725 C 0.11398 0.47287 0.11817 0.0
C726 C 0.14843 0.43728 0.14522 0.0
C727 C 0.13279 0.37963 0.151 0.0
C728 C 1.07908 0.36101 0.13225 0.0
Zn729 Zn 1.02444 0.50222 1.05295 0.0
O730 O 0.91494 0.56276 1.03033 0.0
C731 C 0.97092 0.42053 0.97022 0.0
O732 O 0.93653 0.5092 0.09314 0.0
H733 H 0.13175 0.51394 0.1082 0.0
H734 H 0.93614 0.53458 0.88348 0.0
H735 H 1.00262 0.38582 0.09502 0.0
O736 O 0.95554 0.46711 0.94951 0.0
O737 O 0.99727 0.42407 1.01102 0.0
H738 H 1.06807 0.63765 0.94341 0.0
O739 O 0.11253 0.49797 1.01218 0.0
O740 O 1.07059 0.50782 0.94236 0.0
O741 O 1.05343 0.57242 0.09608 0.0
O742 O 1.06465 0.60005 1.0214 0.0
C743 C 0.11613 0.50052 0.9655 0.0
H744 H 0.89913 0.61986 0.84011 0.0
H745 H 1.02965 0.72256 0.90147 0.0
H746 H 0.18889 0.45382 0.15796 0.0
H747 H 1.06378 0.31716 0.13493 0.0
C748 C 0.94117 0.66209 0.32289 0.0
N749 N 0.88423 0.7655 0.18316 0.0
C750 C 0.89223 0.73126 0.14263 0.0
C751 C 0.84444 0.71793 0.11414 0.0
C752 C 0.79228 0.73627 0.13392 0.0
C753 C 0.79339 0.79231 0.1527 0.0
C754 C 0.84017 0.80413 0.1826 0.0
Zn755 Zn 0.93915 0.7695 0.24019 0.0
C756 C 0.88851 0.85427 0.33147 0.0
N757 N 1.04158 0.81295 0.34651 0.0
C758 C 1.08588 0.77613 0.3524 0.0
C759 C 1.04186 0.86805 0.36297 0.0
C760 C 1.08875 0.88853 0.38717 0.0
C761 C 0.13557 0.85153 0.39596 0.0
C762 C 0.13431 0.79501 0.37591 0.0
Zn763 Zn 0.98145 0.79107 0.30462 0.0
O764 O 0.91618 0.67875 0.28263 0.0
C765 C 1.04803 0.74046 0.21051 0.0
O766 O 0.97522 0.69997 0.34129 0.0
H767 H 1.00623 0.89677 0.35646 0.0
H768 H 0.93061 0.70648 0.13684 0.0
H769 H 1.08414 0.73275 0.3376 0.0
O770 O 0.99983 0.72434 0.19508 0.0
O771 O 1.04982 0.76398 0.25254 0.0
H772 H 0.83958 0.8408 0.20691 0.0
O773 O 0.98351 0.88074 0.26918 0.0
O774 O 0.96001 0.84229 0.19995 0.0
O775 O 0.92424 0.82757 0.35766 0.0
O776 O 0.88089 0.83428 0.28759 0.0
C777 C 0.97106 0.8869 0.22407 0.0
H778 H 0.84643 0.6807 0.0902 0.0
H779 H 0.75471 0.81725 0.15637 0.0
H780 H 1.08743 0.9329 0.39916 0.0
H781 H 0.16895 0.76451 0.37997 0.0
C782 C 0.81879 0.69025 0.57297 0.0
N783 N 0.72322 0.64718 0.42536 0.0
C784 C 0.7606 0.65725 0.38781 0.0
C785 C 0.78109 0.60884 0.36253 0.0
C786 C 0.76676 0.55581 0.38456 0.0
C787 C 0.70904 0.55175 0.39682 0.0
C788 C 0.68884 0.59932 0.42266 0.0
Zn789 Zn 0.71624 0.69816 0.4849 0.0
C790 C 0.63646 0.63122 0.56591 0.0
N791 N 0.65605 0.77866 0.60171 0.0
C792 C 0.6746 0.8331 0.60924 0.0
C793 C 0.60406 0.76008 0.61817 0.0
C794 C 0.56961 0.79568 0.64522 0.0
C795 C 0.58525 0.85332 0.651 0.0
C796 C 0.63896 0.87194 0.63225 0.0
Zn797 Zn 0.69359 0.73073 0.55295 0.0
O798 O 0.80309 0.67019 0.53033 0.0
C799 C 0.74712 0.81243 0.47022 0.0
O800 O 0.78151 0.72375 0.59314 0.0
H801 H 0.58629 0.71901 0.6082 0.0
H802 H 0.7819 0.69837 0.38348 0.0
H803 H 0.71541 0.84714 0.59502 0.0
O804 O 0.7625 0.76584 0.44951 0.0
O805 O 0.72077 0.80888 0.51102 0.0
H806 H 0.64997 0.5953 0.44342 0.0
O807 O 0.60551 0.73498 0.51218 0.0
O808 O 0.64745 0.72513 0.44236 0.0
O809 O 0.66461 0.66053 0.59608 0.0
O810 O 0.65338 0.6329 0.5214 0.0
C811 C 0.60191 0.73243 0.4655 0.0
H812 H 0.81891 0.61309 0.34011 0.0
H813 H 0.68839 0.51039 0.40147 0.0
H814 H 0.52915 0.77913 0.65796 0.0
H815 H 0.65426 0.91579 0.63493 0.0
C816 C 0.46093 0.37022 0.19996 0.0
N817 N 0.4925 0.43183 0.34224 0.0
C818 C 0.47214 0.37709 0.35107 0.0
C819 C 0.48205 0.3518 0.39569 0.0
C820 C 0.52927 0.37483 0.4189 0.0
C821 C 0.52775 0.4355 0.42265 0.0
C822 C 0.51572 0.46355 0.37914 0.0
Zn823 Zn 0.45952 0.46844 0.2864 0.0
C824 C 0.54765 0.50862 0.20449 0.0
N825 N 0.38328 0.50761 0.1557 0.0
C826 C 0.33746 0.47229 0.16091 0.0
C827 C 0.37643 0.56499 0.16072 0.0
C828 C 0.33741 0.58321 0.19525 0.0
C829 C 0.30267 0.54119 0.21925 0.0
C830 C 0.29707 0.48721 0.19623 0.0
Zn831 Zn 0.4333 0.48713 0.21488 0.0
O832 O 0.46492 0.37937 0.24597 0.0
C833 C 0.35802 0.4103 0.29739 0.0
O834 O 0.45125 0.41309 0.17302 0.0
H835 H 0.40875 0.59451 0.14723 0.0
H836 H 0.44753 0.35294 0.32508 0.0
H837 H 0.3398 0.42836 0.14753 0.0
O838 O 0.38407 0.44279 0.32654 0.0
O839 O 0.3638 0.42353 0.25218 0.0
H840 H 0.52721 0.50841 0.37467 0.0
O841 O 0.42201 0.58278 0.25946 0.0
O842 O 0.45816 0.55523 0.32742 0.0
O843 O 0.50377 0.52311 0.18006 0.0
O844 O 0.54143 0.48971 0.24847 0.0
C845 C 0.43827 0.59744 0.30321 0.0
H846 H 0.46915 0.30726 0.40072 0.0
H847 H 0.5522 0.45892 0.44928 0.0
H848 H 0.34012 0.62812 0.20555 0.0
H849 H 0.26695 0.45523 0.20936 0.0
C850 C 0.61253 0.71814 0.96438 0.0
N851 N 0.52272 0.76988 0.09312 0.0
C852 C 0.56111 0.75328 0.12736 0.0
C853 C 0.5618 0.78116 0.17131 0.0
C854 C 0.5417 0.83775 0.16869 0.0
C855 C 0.48924 0.84421 0.14475 0.0
C856 C 0.48288 0.81141 0.10274 0.0
Zn857 Zn 0.51029 0.7169 1.04214 0.0
C858 C 0.47201 0.78994 0.94932 0.0
N859 N 0.49287 0.62064 0.91885 0.0
C860 C 0.528 0.5763 0.93154 0.0
C861 C 0.43627 0.6123 0.91578 0.0
C862 C 0.41269 0.57253 0.94718 0.0
C863 C 0.44923 0.53729 0.97651 0.0
C864 C 0.50721 0.53532 0.96434 0.0
Zn865 Zn 0.4986 0.6802 0.9733 0.0
O866 O 0.6011 0.7278 1.00971 0.0
C867 C 0.57906 0.62527 1.06399 0.0
O868 O 0.57289 0.70127 0.93692 0.0
H869 H 0.40927 0.64466 0.89886 0.0
H870 H 0.59478 0.72292 0.11956 0.0
H871 H 0.57361 0.57975 0.92549 0.0
O872 O 0.5426 0.64921 0.09109 0.0
O873 O 0.56472 0.62212 1.01881 0.0
H874 H 0.44771 0.81951 0.07797 0.0
O875 O 0.40047 0.66398 1.01264 0.0
O876 O 0.42274 0.71105 0.07723 0.0
O877 O 0.46078 0.74261 0.92789 0.0
O878 O 0.48627 0.78903 0.99437 0.0
C879 C 0.38319 0.6859 1.05412 0.0
H880 H 0.59702 0.7687 0.19335 0.0
H881 H 0.46306 0.88197 0.14948 0.0
H882 H 0.36691 0.57405 0.95008 0.0
H883 H 0.53574 0.50503 0.98171 0.0
C884 C 0.25711 0.86273 0.69996 0.0
N885 N 0.22553 0.80112 0.84224 0.0
C886 C 0.2459 0.85586 0.85107 0.0
C887 C 0.23599 0.88115 0.89569 0.0
C888 C 0.18877 0.85812 0.9189 0.0
C889 C 0.19028 0.79745 0.92265 0.0
C890 C 0.20231 0.7694 0.87914 0.0
Zn891 Zn 0.25852 0.76451 0.78641 0.0
C892 C 0.17039 0.72434 0.70449 0.0
N893 N 0.33476 0.72534 0.65571 0.0
C894 C 0.38058 0.76066 0.66091 0.0
C895 C 0.34161 0.66796 0.66072 0.0
C896 C 0.38062 0.64974 0.69525 0.0
C897 C 0.41536 0.69177 0.71925 0.0
C898 C 0.42096 0.74575 0.69623 0.0
Zn899 Zn 0.28474 0.74582 0.71488 0.0
O900 O 0.25312 0.85358 0.74597 0.0
C901 C 0.36002 0.82266 0.79739 0.0
O902 O 0.26679 0.81987 0.67303 0.0
H903 H 0.30929 0.63844 0.64723 0.0
H904 H 0.27051 0.88001 0.82508 0.0
H905 H 0.37823 0.80459 0.64753 0.0
O906 O 0.33397 0.79016 0.82654 0.0
O907 O 0.35424 0.80943 0.75219 0.0
H908 H 0.19082 0.72454 0.87467 0.0
O909 O 0.29603 0.65017 0.75946 0.0
O910 O 0.25988 0.67773 0.82742 0.0
O911 O 0.21427 0.70984 0.68006 0.0
O912 O 0.1766 0.74324 0.74847 0.0
C913 C 0.27977 0.63551 0.80321 0.0
H914 H 0.24889 0.9257 0.90072 0.0
H915 H 0.16584 0.77403 0.94928 0.0
H916 H 0.37792 0.60484 0.70555 0.0
H917 H 0.45109 0.77772 0.70936 0.0
C918 C 1.1055 0.51481 0.46438 0.0
N919 N 0.19532 0.46307 0.59312 0.0
C920 C 0.15693 0.47967 0.62736 0.0
C921 C 0.15623 0.4518 0.67131 0.0
C922 C 0.17634 0.3952 0.66869 0.0
C923 C 0.2288 0.38875 0.64476 0.0
C924 C 0.23516 0.42155 0.60274 0.0
Zn925 Zn 0.20775 0.51606 0.54214 0.0
C926 C 0.24603 0.44301 0.44932 0.0
N927 N 0.22516 0.61231 0.41885 0.0
C928 C 0.19004 0.65665 0.43154 0.0
C929 C 0.28176 0.62065 0.41578 0.0
C930 C 0.30534 0.66042 0.44718 0.0
C931 C 0.2688 0.69566 0.47651 0.0
C932 C 0.21083 0.69763 0.46434 0.0
Zn933 Zn 0.21944 0.55276 0.4733 0.0
O934 O 0.11694 0.50515 0.50971 0.0
C935 C 0.13898 0.60768 0.56399 0.0
O936 O 0.14514 0.53168 0.43692 0.0
H937 H 0.30877 0.5883 0.39886 0.0
H938 H 0.12326 0.51004 0.61956 0.0
H939 H 0.14442 0.65321 0.42549 0.0
O940 O 0.17544 0.58374 0.59109 0.0
O941 O 0.15332 0.61084 0.51881 0.0
H942 H 0.27032 0.41345 0.57797 0.0
O943 O 0.31756 0.56898 0.51264 0.0
O944 O 0.29529 0.5219 0.57723 0.0
O945 O 0.25725 0.49035 0.42789 0.0
O946 O 0.23177 0.44392 0.49437 0.0
C947 C 0.33485 0.54705 0.55412 0.0
H948 H 0.12102 0.46426 0.69335 0.0
H949 H 0.25498 0.35098 0.64948 0.0
H950 H 0.35113 0.6589 0.45008 0.0
H951 H 0.1823 0.72793 0.48171 0.0
C952 C 0.47107 0.88689 0.42336 0.0
N953 N 0.54159 0.81296 0.3009 0.0
C954 C 0.54186 0.86806 0.28445 0.0
C955 C 0.58874 0.88855 0.26025 0.0
C956 C 0.63557 0.85157 0.25145 0.0
C957 C 0.63432 0.79505 0.2715 0.0
C958 C 0.58591 0.77615 0.29501 0.0
Zn959 Zn 0.48146 0.79107 0.34279 0.0
C960 C 0.54803 0.74044 0.43691 0.0
N961 N 0.38424 0.76551 0.46426 0.0
C962 C 0.34019 0.80414 0.46483 0.0
C963 C 0.39224 0.73127 0.50479 0.0
C964 C 0.34446 0.71791 0.53327 0.0
C965 C 0.2923 0.73626 0.51349 0.0
C966 C 0.2934 0.79232 0.49474 0.0
Zn967 Zn 0.43915 0.7695 0.40722 0.0
O968 O 0.48353 0.88074 0.37825 0.0
C969 C 0.38853 0.85429 0.31595 0.0
O970 O 0.46003 0.84228 0.44748 0.0
H971 H 0.43063 0.70649 0.51058 0.0
H972 H 0.50622 0.89677 0.29097 0.0
H973 H 0.33959 0.84081 0.44052 0.0
O974 O 0.42425 0.82758 0.28976 0.0
O975 O 0.38091 0.8343 0.35983 0.0
H976 H 0.58418 0.73277 0.30981 0.0
O977 O 0.41617 0.67875 0.36477 0.0
O978 O 0.47522 0.69997 0.30612 0.0
O979 O 0.49983 0.72431 0.45233 0.0
O980 O 0.54983 0.76396 0.39488 0.0
C981 C 0.44116 0.66209 0.32451 0.0
H982 H 0.58739 0.93292 0.24824 0.0
H983 H 0.66898 0.76457 0.26744 0.0
H984 H 0.34644 0.68067 0.55719 0.0
H985 H 0.25475 0.81729 0.49103 0.0
C986 C 1.10191 0.73247 0.18192 0.0
N987 N 0.15605 0.77876 1.04574 0.0
C988 C 1.10404 0.7602 1.02932 0.0
C989 C 1.06959 0.7958 1.00227 0.0
C990 C 1.08526 0.85343 0.99645 0.0
C991 C 0.13898 0.87204 1.01519 0.0
C992 C 0.17461 0.83319 1.0382 0.0
Zn993 Zn 0.19359 0.73078 0.09447 0.0
C994 C 0.24714 0.81244 0.17722 0.0
N995 N 0.22319 0.64718 0.22204 0.0
C996 C 0.18883 0.59931 0.22472 0.0
C997 C 0.26056 0.65725 0.2596 0.0
C998 C 0.28107 0.60884 0.28486 0.0
C999 C 0.26674 0.55581 0.26283 0.0
C1000 C 0.20903 0.55174 0.25056 0.0
Zn1001 Zn 0.21623 0.69819 0.16251 0.0
O1002 O 1.10551 0.73503 0.13524 0.0
C1003 C 0.13642 0.6313 0.08148 0.0
O1004 O 0.14745 0.72515 0.20506 0.0
H1005 H 0.28185 0.69838 0.26394 0.0
H1006 H 1.08626 0.71913 1.0393 0.0
H1007 H 0.14997 0.59529 0.20394 0.0
O1008 O 0.16458 0.66061 1.05131 0.0
O1009 O 0.15336 0.63295 0.12598 0.0
H1010 H 0.21543 0.84722 1.05242 0.0
O1011 O 0.30308 0.67021 0.11707 0.0
O1012 O 0.28152 0.72379 1.05427 0.0
O1013 O 0.2625 0.76585 0.19792 0.0
O1014 O 0.22079 0.80891 0.13642 0.0
C1015 C 0.31879 0.69026 0.07444 0.0
H1016 H 1.02912 0.77926 0.98955 0.0
H1017 H 0.1543 0.91588 1.0125 0.0
H1018 H 0.31889 0.6131 0.30727 0.0
H1019 H 0.18835 0.51041 0.24579 0.0
C1020 C 0.24697 0.34607 0.92336 0.0
N1021 N 0.17644 0.42 0.8009 0.0
C1022 C 0.17618 0.36489 0.78445 0.0
C1023 C 0.1293 0.3444 0.76025 0.0
C1024 C 1.08247 0.38138 0.75145 0.0
C1025 C 1.08371 0.4379 0.7715 0.0
C1026 C 0.13213 0.4568 0.79501 0.0
Zn1027 Zn 0.23658 0.44188 0.84279 0.0
C1028 C 0.17001 0.49251 0.93691 0.0
N1029 N 0.3338 0.46744 0.96426 0.0
C1030 C 0.37785 0.42881 0.96483 0.0
C1031 C 0.3258 0.50168 1.00479 0.0
C1032 C 0.37358 0.51504 1.03327 0.0
C1033 C 0.42574 0.49669 1.01349 0.0
C1034 C 0.42464 0.44064 0.99474 0.0
Zn1035 Zn 0.27888 0.46345 0.90722 0.0
O1036 O 0.23451 0.35221 0.87825 0.0
C1037 C 0.32951 0.37866 0.81595 0.0
O1038 O 0.258 0.39067 0.94748 0.0
H1039 H 0.28741 0.52646 1.01058 0.0
H1040 H 0.21182 0.33618 0.79097 0.0
H1041 H 0.37845 0.39214 0.94052 0.0
O1042 O 0.29379 0.40537 0.78976 0.0
O1043 O 0.33713 0.39865 0.85983 0.0
H1044 H 0.13386 0.50018 0.80981 0.0
O1045 O 0.30187 0.5542 0.86477 0.0
O1046 O 0.24281 0.53298 0.80612 0.0
O1047 O 0.21821 0.50864 0.95233 0.0
O1048 O 0.16821 0.46899 0.89488 0.0
C1049 C 0.27687 0.57086 0.82451 0.0
H1050 H 0.13064 0.30003 0.74824 0.0
H1051 H 1.04905 0.46838 0.76744 0.0
H1052 H 0.3716 0.55228 1.05719 0.0
H1053 H 0.46329 0.41566 0.99103 0.0
C1054 C 0.61613 0.50048 0.68192 0.0
N1055 N 0.56199 0.4542 0.54574 0.0
C1056 C 0.614 0.47275 0.52932 0.0
C1057 C 0.64844 0.43716 0.50227 0.0
C1058 C 0.63278 0.37952 0.49645 0.0
C1059 C 0.57906 0.36092 0.51519 0.0
C1060 C 0.54343 0.39976 0.5382 0.0
Zn1061 Zn 0.52445 0.50217 0.59447 0.0
C1062 C 0.4709 0.42051 0.67722 0.0
N1063 N 0.49485 0.58577 0.72204 0.0
C1064 C 0.52921 0.63364 0.72472 0.0
C1065 C 0.45748 0.57571 0.75959 0.0
C1066 C 0.43697 0.62411 0.78486 0.0
C1067 C 0.4513 0.67714 0.76283 0.0
C1068 C 0.50901 0.68121 0.75056 0.0
Zn1069 Zn 0.50181 0.53476 0.66251 0.0
O1070 O 0.61253 0.49792 0.63524 0.0
C1071 C 0.58161 0.60165 0.58148 0.0
O1072 O 0.57059 0.5078 0.70506 0.0
H1073 H 0.43619 0.53458 0.76394 0.0
H1074 H 0.63178 0.51382 0.5393 0.0
H1075 H 0.56807 0.63766 0.70394 0.0
O1076 O 0.55346 0.57235 0.55131 0.0
O1077 O 0.56468 0.6 0.62598 0.0
H1078 H 0.50261 0.38574 0.55242 0.0
O1079 O 0.41496 0.56275 0.61707 0.0
O1080 O 0.43652 0.50917 0.55427 0.0
O1081 O 0.45553 0.4671 0.69792 0.0
O1082 O 0.49725 0.42405 0.63641 0.0
C1083 C 0.39925 0.54269 0.57444 0.0
H1084 H 0.68892 0.45369 0.48955 0.0
H1085 H 0.56374 0.31708 0.5125 0.0
H1086 H 0.39915 0.61986 0.80727 0.0
H1087 H 0.52969 0.72254 0.74579 0.0
loop_
_geom_bond_atom_site_label_1
_geom_bond_atom_site_label_2
_geom_bond_distance
_geom_bond_site_symmetry_2
_ccdc_geom_bond_type
C0 O16 1.251 . S
C0 O18 1.254 . S
N1 C2 1.333 . S
N1 C6 1.307 . S
N1 Zn7 2.020 . S
C2 N1 1.333 . S
C2 C3 1.379 . S
C2 H20 0.952 . S
C3 C2 1.379 . S
C3 C4 1.390 . S
C3 H30 0.949 1_545 S
C4 C3 1.390 . S
C4 C5 1.357 . S
C5 C4 1.357 . S
C5 C6 1.370 . S
C5 H31 0.950 . S
C6 N1 1.307 . S
C6 C5 1.370 . S
C6 H24 0.948 . S
Zn7 N1 2.020 . S
Zn7 O16 2.039 . S
Zn7 O22 2.034 . S
Zn7 O26 2.025 . S
Zn7 O28 2.024 . S
C8 O27 1.246 . S
C8 O28 1.249 . S
N9 C10 1.307 . S
N9 C11 1.333 . S
N9 Zn15 2.020 . S
C10 N9 1.307 . S
C10 C14 1.370 1_455 S
C10 H21 0.948 . S
C11 N9 1.333 . S
C11 C12 1.379 . S
C11 H19 0.952 . S
C12 C11 1.379 . S
C12 C13 1.390 1_455 S
C12 H32 0.949 . S
C13 C12 1.390 1_655 S
C13 C14 1.357 . S
C14 C10 1.370 1_655 S
C14 C13 1.357 . S
C14 H33 0.950 . S
Zn15 N9 2.020 . S
Zn15 O18 2.025 . S
Zn15 O23 2.024 . S
Zn15 O25 2.039 . S
Zn15 O27 2.034 . S
O16 C0 1.251 . S
O16 Zn7 2.039 . S
C17 O22 1.246 . S
C17 O23 1.249 . S
O18 C0 1.254 . S
O18 Zn15 2.025 . S
H19 C11 0.952 . S
H20 C2 0.952 . S
H21 C10 0.948 . S
O22 Zn7 2.034 . S
O22 C17 1.246 . S
O23 Zn15 2.024 . S
O23 C17 1.249 . S
H24 C6 0.948 . S
O25 Zn15 2.039 . S
O25 C29 1.251 . S
O26 Zn7 2.025 . S
O26 C29 1.254 . S
O27 C8 1.246 . S
O27 Zn15 2.034 . S
O28 Zn7 2.024 . S
O28 C8 1.249 . S
C29 O25 1.251 . S
C29 O26 1.254 . S
H30 C3 0.949 1_565 S
H31 C5 0.950 . S
H32 C12 0.949 . S
H33 C14 0.950 . S
C34 O50 1.251 . S
C34 O52 1.254 . S
N35 C36 1.333 . S
N35 C40 1.307 1_565 S
N35 Zn41 2.020 . S
C36 N35 1.333 . S
C36 C37 1.379 1_565 S
C36 H54 0.952 . S
C37 C36 1.379 1_545 S
C37 C38 1.390 . S
C37 H64 0.949 . S
C38 C37 1.390 . S
C38 C39 1.357 . S
C39 C38 1.357 . S
C39 C40 1.370 . S
C39 H65 0.950 . S
C40 N35 1.307 1_545 S
C40 C39 1.370 . S
C40 H58 0.948 . S
Zn41 N35 2.020 . S
Zn41 O50 2.039 . S
Zn41 O56 2.034 . S
Zn41 O60 2.025 . S
Zn41 O62 2.024 . S
C42 O61 1.246 . S
C42 O62 1.249 . S
N43 C44 1.307 . S
N43 C45 1.333 1_455 S
N43 Zn49 2.020 . S
C44 N43 1.307 . S
C44 C48 1.370 . S
C44 H55 0.948 . S
C45 N43 1.333 1_655 S
C45 C46 1.379 . S
C45 H53 0.952 . S
C46 C45 1.379 . S
C46 C47 1.390 . S
C46 H66 0.949 . S
C47 C46 1.390 . S
C47 C48 1.357 1_655 S
C48 C44 1.370 . S
C48 C47 1.357 1_455 S
C48 H67 0.950 . S
Zn49 N43 2.020 . S
Zn49 O52 2.025 . S
Zn49 O57 2.024 . S
Zn49 O59 2.039 . S
Zn49 O61 2.034 . S
O50 C34 1.251 . S
O50 Zn41 2.039 . S
C51 O56 1.246 . S
C51 O57 1.249 . S
O52 C34 1.254 . S
O52 Zn49 2.025 . S
H53 C45 0.952 . S
H54 C36 0.952 . S
H55 C44 0.948 . S
O56 Zn41 2.034 . S
O56 C51 1.246 . S
O57 Zn49 2.024 . S
O57 C51 1.249 . S
H58 C40 0.948 . S
O59 Zn49 2.039 . S
O59 C63 1.251 . S
O60 Zn41 2.025 . S
O60 C63 1.254 . S
O61 C42 1.246 . S
O61 Zn49 2.034 . S
O62 Zn41 2.024 . S
O62 C42 1.249 . S
C63 O59 1.251 . S
C63 O60 1.254 . S
H64 C37 0.949 . S
H65 C39 0.950 . S
H66 C46 0.949 . S
H67 C48 0.950 . S
C68 O84 1.251 . S
C68 O86 1.254 . S
N69 C70 1.333 . S
N69 C74 1.307 . S
N69 Zn75 2.020 . S
C70 N69 1.333 . S
C70 C71 1.379 . S
C70 H88 0.952 . S
C71 C70 1.379 . S
C71 C72 1.390 . S
C71 H98 0.949 1_565 S
C72 C71 1.390 . S
C72 C73 1.357 . S
C73 C72 1.357 . S
C73 C74 1.370 . S
C73 H99 0.950 . S
C74 N69 1.307 . S
C74 C73 1.370 . S
C74 H92 0.948 . S
Zn75 N69 2.020 . S
Zn75 O84 2.039 . S
Zn75 O90 2.034 . S
Zn75 O94 2.025 . S
Zn75 O96 2.024 . S
C76 O95 1.246 . S
C76 O96 1.249 . S
N77 C78 1.307 . S
N77 C79 1.333 . S
N77 Zn83 2.020 . S
C78 N77 1.307 . S
C78 C82 1.370 . S
C78 H89 0.948 . S
C79 N77 1.333 . S
C79 C80 1.379 . S
C79 H87 0.952 . S
C80 C79 1.379 . S
C80 C81 1.390 . S
C80 H100 0.949 . S
C81 C80 1.390 . S
C81 C82 1.357 . S
C82 C78 1.370 . S
C82 C81 1.357 . S
C82 H101 0.950 . S
Zn83 N77 2.020 . S
Zn83 O86 2.025 . S
Zn83 O91 2.024 . S
Zn83 O93 2.039 . S
Zn83 O95 2.034 . S
O84 C68 1.251 . S
O84 Zn75 2.039 . S
C85 O90 1.246 . S
C85 O91 1.249 . S
O86 C68 1.254 . S
O86 Zn83 2.025 . S
H87 C79 0.952 . S
H88 C70 0.952 . S
H89 C78 0.948 . S
O90 Zn75 2.034 . S
O90 C85 1.246 . S
O91 Zn83 2.024 . S
O91 C85 1.249 . S
H92 C74 0.948 . S
O93 Zn83 2.039 . S
O93 C97 1.251 . S
O94 Zn75 2.025 . S
O94 C97 1.254 . S
O95 C76 1.246 . S
O95 Zn83 2.034 . S
O96 Zn75 2.024 . S
O96 C76 1.249 . S
C97 O93 1.251 . S
C97 O94 1.254 . S
H98 C71 0.949 1_545 S
H99 C73 0.950 . S
H100 C80 0.949 . S
H101 C82 0.950 . S
C102 O118 1.251 1_556 S
C102 O120 1.254 . S
N103 C104 1.333 . S
N103 C108 1.307 1_545 S
N103 Zn109 2.020 . S
C104 N103 1.333 . S
C104 C105 1.379 1_545 S
C104 H122 0.952 . S
C105 C104 1.379 1_565 S
C105 C106 1.390 . S
C105 H132 0.949 . S
C106 C105 1.390 . S
C106 C107 1.357 . S
C107 C106 1.357 . S
C107 C108 1.370 . S
C107 H133 0.950 . S
C108 N103 1.307 1_565 S
C108 C107 1.370 . S
C108 H126 0.948 . S
Zn109 N103 2.020 . S
Zn109 O118 2.039 . S
Zn109 O124 2.034 . S
Zn109 O128 2.025 . S
Zn109 O130 2.024 . S
C110 O129 1.246 . S
C110 O130 1.249 1_556 S
N111 C112 1.307 . S
N111 C113 1.333 . S
N111 Zn117 2.020 1_556 S
C112 N111 1.307 . S
C112 C116 1.370 . S
C112 H123 0.948 . S
C113 N111 1.333 . S
C113 C114 1.379 . S
C113 H121 0.944 1_556 S
C114 C113 1.379 . S
C114 C115 1.390 . S
C114 H134 0.949 . S
C115 C114 1.390 . S
C115 C116 1.357 . S
C116 C112 1.370 . S
C116 C115 1.357 . S
C116 H135 0.950 . S
Zn117 N111 2.020 1_554 S
Zn117 O120 2.025 1_554 S
Zn117 O125 2.024 . S
Zn117 O127 2.039 . S
Zn117 O129 2.034 1_554 S
O118 C102 1.251 1_554 S
O118 Zn109 2.039 . S
C119 O124 1.246 . S
C119 O125 1.249 . S
O120 C102 1.254 . S
O120 Zn117 2.025 1_556 S
H121 C113 0.944 1_554 S
H122 C104 0.952 . S
H123 C112 0.948 . S
O124 Zn109 2.034 . S
O124 C119 1.246 . S
O125 Zn117 2.024 . S
O125 C119 1.249 . S
H126 C108 0.948 . S
O127 Zn117 2.039 . S
O127 C131 1.251 . S
O128 Zn109 2.025 . S
O128 C131 1.254 . S
O129 C110 1.246 . S
O129 Zn117 2.034 1_556 S
O130 Zn109 2.024 . S
O130 C110 1.249 1_554 S
C131 O127 1.251 . S
C131 O128 1.254 . S
H132 C105 0.949 . S
H133 C107 0.950 . S
H134 C114 0.949 . S
H135 C116 0.950 . S
C136 O152 1.251 . S
C136 O154 1.254 . S
N137 C138 1.333 . S
N137 C142 1.307 . S
N137 Zn143 2.020 . S
C138 N137 1.333 . S
C138 C139 1.379 . S
C138 H156 0.952 . S
C139 C138 1.379 . S
C139 C140 1.390 . S
C139 H166 0.949 1_565 S
C140 C139 1.390 . S
C140 C141 1.357 . S
C141 C140 1.357 . S
C141 C142 1.370 . S
C141 H167 0.950 . S
C142 N137 1.307 . S
C142 C141 1.370 . S
C142 H160 0.948 . S
Zn143 N137 2.020 . S
Zn143 O152 2.039 . S
Zn143 O158 2.034 . S
Zn143 O162 2.025 . S
Zn143 O164 2.024 . S
C144 O163 1.246 . S
C144 O164 1.249 . S
N145 C146 1.307 . S
N145 C147 1.333 . S
N145 Zn151 2.020 . S
C146 N145 1.307 . S
C146 C150 1.370 1_455 S
C146 H157 0.948 . S
C147 N145 1.333 . S
C147 C148 1.379 . S
C147 H155 0.952 . S
C148 C147 1.379 . S
C148 C149 1.390 1_455 S
C148 H168 0.949 . S
C149 C148 1.390 1_655 S
C149 C150 1.357 . S
C150 C146 1.370 1_655 S
C150 C149 1.357 . S
C150 H169 0.950 . S
Zn151 N145 2.020 . S
Zn151 O154 2.025 . S
Zn151 O159 2.024 . S
Zn151 O161 2.039 . S
Zn151 O163 2.034 . S
O152 C136 1.251 . S
O152 Zn143 2.039 . S
C153 O158 1.246 . S
C153 O159 1.249 . S
O154 C136 1.254 . S
O154 Zn151 2.025 . S
H155 C147 0.952 . S
H156 C138 0.952 . S
H157 C146 0.948 . S
O158 Zn143 2.034 . S
O158 C153 1.246 . S
O159 Zn151 2.024 . S
O159 C153 1.249 . S
H160 C142 0.948 . S
O161 Zn151 2.039 . S
O161 C165 1.251 . S
O162 Zn143 2.025 . S
O162 C165 1.254 . S
O163 C144 1.246 . S
O163 Zn151 2.034 . S
O164 Zn143 2.024 . S
O164 C144 1.249 . S
C165 O161 1.251 . S
C165 O162 1.254 . S
H166 C139 0.949 1_545 S
H167 C141 0.950 . S
H168 C148 0.949 . S
H169 C150 0.950 . S
C170 O186 1.251 . S
C170 O188 1.254 . S
N171 C172 1.333 . S
N171 C176 1.307 1_565 S
N171 Zn177 2.020 . S
C172 N171 1.333 . S
C172 C173 1.379 1_565 S
C172 H190 0.952 . S
C173 C172 1.379 1_545 S
C173 C174 1.390 . S
C173 H200 0.949 . S
C174 C173 1.390 . S
C174 C175 1.357 . S
C175 C174 1.357 . S
C175 C176 1.370 . S
C175 H201 0.950 . S
C176 N171 1.307 1_545 S
C176 C175 1.370 . S
C176 H194 0.948 . S
Zn177 N171 2.020 . S
Zn177 O186 2.039 . S
Zn177 O192 2.034 . S
Zn177 O196 2.025 . S
Zn177 O198 2.024 . S
C178 O197 1.246 . S
C178 O198 1.249 . S
N179 C180 1.307 . S
N179 C181 1.333 . S
N179 Zn185 2.020 . S
C180 N179 1.307 . S
C180 C184 1.370 . S
C180 H191 0.948 . S
C181 N179 1.333 . S
C181 C182 1.379 . S
C181 H189 0.952 . S
C182 C181 1.379 . S
C182 C183 1.390 . S
C182 H202 0.949 . S
C183 C182 1.390 . S
C183 C184 1.357 . S
C184 C180 1.370 . S
C184 C183 1.357 . S
C184 H203 0.950 . S
Zn185 N179 2.020 . S
Zn185 O188 2.025 . S
Zn185 O193 2.024 . S
Zn185 O195 2.039 . S
Zn185 O197 2.034 . S
O186 C170 1.251 . S
O186 Zn177 2.039 . S
C187 O192 1.246 . S
C187 O193 1.249 . S
O188 C170 1.254 . S
O188 Zn185 2.025 . S
H189 C181 0.952 . S
H190 C172 0.952 . S
H191 C180 0.948 . S
O192 Zn177 2.034 . S
O192 C187 1.246 . S
O193 Zn185 2.024 . S
O193 C187 1.249 . S
H194 C176 0.948 . S
O195 Zn185 2.039 . S
O195 C199 1.251 . S
O196 Zn177 2.025 . S
O196 C199 1.254 . S
O197 C178 1.246 . S
O197 Zn185 2.034 . S
O198 Zn177 2.024 . S
O198 C178 1.249 . S
C199 O195 1.251 . S
C199 O196 1.254 . S
H200 C173 0.949 . S
H201 C175 0.950 . S
H202 C182 0.949 . S
H203 C184 0.950 . S
C204 O220 1.251 . S
C204 O222 1.254 . S
N205 C206 1.333 . S
N205 C210 1.307 . S
N205 Zn211 2.020 . S
C206 N205 1.333 . S
C206 C207 1.379 . S
C206 H224 0.952 . S
C207 C206 1.379 . S
C207 C208 1.390 . S
C207 H234 0.949 1_545 S
C208 C207 1.390 . S
C208 C209 1.357 . S
C209 C208 1.357 . S
C209 C210 1.370 . S
C209 H235 0.950 . S
C210 N205 1.307 . S
C210 C209 1.370 . S
C210 H228 0.948 . S
Zn211 N205 2.020 . S
Zn211 O220 2.039 . S
Zn211 O226 2.034 . S
Zn211 O230 2.025 . S
Zn211 O232 2.024 . S
C212 O231 1.246 . S
C212 O232 1.249 . S
N213 C214 1.307 . S
N213 C215 1.333 . S
N213 Zn219 2.020 . S
C214 N213 1.307 . S
C214 C218 1.370 . S
C214 H225 0.948 . S
C215 N213 1.333 . S
C215 C216 1.379 . S
C215 H223 0.952 . S
C216 C215 1.379 . S
C216 C217 1.390 . S
C216 H236 0.949 . S
C217 C216 1.390 . S
C217 C218 1.357 . S
C218 C214 1.370 . S
C218 C217 1.357 . S
C218 H237 0.950 . S
Zn219 N213 2.020 . S
Zn219 O222 2.025 . S
Zn219 O227 2.024 . S
Zn219 O229 2.039 . S
Zn219 O231 2.034 . S
O220 C204 1.251 . S
O220 Zn211 2.039 . S
C221 O226 1.246 . S
C221 O227 1.249 . S
O222 C204 1.254 . S
O222 Zn219 2.025 . S
H223 C215 0.952 . S
H224 C206 0.952 . S
H225 C214 0.948 . S
O226 Zn211 2.034 . S
O226 C221 1.246 . S
O227 Zn219 2.024 . S
O227 C221 1.249 . S
H228 C210 0.948 . S
O229 Zn219 2.039 . S
O229 C233 1.251 . S
O230 Zn211 2.025 . S
O230 C233 1.254 . S
O231 C212 1.246 . S
O231 Zn219 2.034 . S
O232 Zn211 2.024 . S
O232 C212 1.249 . S
C233 O229 1.251 . S
C233 O230 1.254 . S
H234 C207 0.949 1_565 S
H235 C209 0.950 . S
H236 C216 0.949 . S
H237 C218 0.950 . S
C238 O254 1.251 1_554 S
C238 O256 1.254 . S
N239 C240 1.333 . S
N239 C244 1.307 1_545 S
N239 Zn245 2.020 . S
C240 N239 1.333 . S
C240 C241 1.379 1_545 S
C240 H258 0.952 . S
C241 C240 1.379 1_565 S
C241 C242 1.390 . S
C241 H268 0.949 . S
C242 C241 1.390 . S
C242 C243 1.357 . S
C243 C242 1.357 . S
C243 C244 1.370 . S
C243 H269 0.950 . S
C244 N239 1.307 1_565 S
C244 C243 1.370 . S
C244 H262 0.948 . S
Zn245 N239 2.020 . S
Zn245 O254 2.039 . S
Zn245 O260 2.034 . S
Zn245 O264 2.025 . S
Zn245 O266 2.024 . S
C246 O265 1.246 . S
C246 O266 1.249 1_554 S
N247 C248 1.307 . S
N247 C249 1.333 1_455 S
N247 Zn253 2.020 1_554 S
C248 N247 1.307 . S
C248 C252 1.370 . S
C248 H259 0.948 . S
C249 N247 1.333 1_655 S
C249 C250 1.379 . S
C249 H257 0.944 1_554 S
C250 C249 1.379 . S
C250 C251 1.390 . S
C250 H270 0.949 . S
C251 C250 1.390 . S
C251 C252 1.357 1_655 S
C252 C248 1.370 . S
C252 C251 1.357 1_455 S
C252 H271 0.950 . S
Zn253 N247 2.020 1_556 S
Zn253 O256 2.025 1_556 S
Zn253 O261 2.024 . S
Zn253 O263 2.039 . S
Zn253 O265 2.034 1_556 S
O254 C238 1.251 1_556 S
O254 Zn245 2.039 . S
C255 O260 1.246 . S
C255 O261 1.249 . S
O256 C238 1.254 . S
O256 Zn253 2.025 1_554 S
H257 C249 0.944 1_556 S
H258 C240 0.952 . S
H259 C248 0.948 . S
O260 Zn245 2.034 . S
O260 C255 1.246 . S
O261 Zn253 2.024 . S
O261 C255 1.249 . S
H262 C244 0.948 . S
O263 Zn253 2.039 . S
O263 C267 1.251 . S
O264 Zn245 2.025 . S
O264 C267 1.254 . S
O265 C246 1.246 . S
O265 Zn253 2.034 1_554 S
O266 Zn245 2.024 . S
O266 C246 1.249 1_556 S
C267 O263 1.251 . S
C267 O264 1.254 . S
H268 C241 0.949 . S
H269 C243 0.950 . S
H270 C250 0.949 . S
H271 C252 0.950 . S
C272 O288 1.251 . S
C272 O290 1.254 . S
N273 C274 1.333 . S
N273 C278 1.307 . S
N273 Zn279 2.020 . S
C274 N273 1.333 . S
C274 C275 1.379 . S
C274 H292 0.952 . S
C275 C274 1.379 . S
C275 C276 1.390 1_655 S
C275 H302 0.949 . S
C276 C275 1.390 1_455 S
C276 C277 1.357 . S
C277 C276 1.357 . S
C277 C278 1.370 1_455 S
C277 H303 0.950 . S
C278 N273 1.307 . S
C278 C277 1.370 1_655 S
C278 H296 0.948 . S
Zn279 N273 2.020 . S
Zn279 O288 2.039 . S
Zn279 O294 2.034 . S
Zn279 O298 2.025 . S
Zn279 O300 2.024 . S
C280 O299 1.246 . S
C280 O300 1.249 . S
N281 C282 1.307 . S
N281 C283 1.333 . S
N281 Zn287 2.020 . S
C282 N281 1.307 . S
C282 C286 1.370 . S
C282 H293 0.948 . S
C283 N281 1.333 . S
C283 C284 1.379 . S
C283 H291 0.952 . S
C284 C283 1.379 . S
C284 C285 1.390 . S
C284 H304 0.949 1_565 S
C285 C284 1.390 . S
C285 C286 1.357 . S
C286 C282 1.370 . S
C286 C285 1.357 . S
C286 H305 0.950 . S
Zn287 N281 2.020 . S
Zn287 O290 2.025 . S
Zn287 O295 2.024 . S
Zn287 O297 2.039 . S
Zn287 O299 2.034 . S
O288 C272 1.251 . S
O288 Zn279 2.039 . S
C289 O294 1.246 . S
C289 O295 1.249 . S
O290 C272 1.254 . S
O290 Zn287 2.025 . S
H291 C283 0.952 . S
H292 C274 0.952 . S
H293 C282 0.948 . S
O294 Zn279 2.034 . S
O294 C289 1.246 . S
O295 Zn287 2.024 . S
O295 C289 1.249 . S
H296 C278 0.948 . S
O297 Zn287 2.039 . S
O297 C301 1.251 . S
O298 Zn279 2.025 . S
O298 C301 1.254 . S
O299 C280 1.246 . S
O299 Zn287 2.034 . S
O300 Zn279 2.024 . S
O300 C280 1.249 . S
C301 O297 1.251 . S
C301 O298 1.254 . S
H302 C275 0.949 . S
H303 C277 0.950 . S
H304 C284 0.949 1_545 S
H305 C286 0.950 . S
C306 O322 1.251 . S
C306 O324 1.254 . S
N307 C308 1.333 1_655 S
N307 C312 1.307 . S
N307 Zn313 2.020 . S
C308 N307 1.333 1_455 S
C308 C309 1.379 . S
C308 H326 0.952 . S
C309 C308 1.379 . S
C309 C310 1.390 . S
C309 H336 0.949 . S
C310 C309 1.390 . S
C310 C311 1.357 1_455 S
C311 C310 1.357 1_655 S
C311 C312 1.370 . S
C311 H337 0.950 . S
C312 N307 1.307 . S
C312 C311 1.370 . S
C312 H330 0.948 . S
Zn313 N307 2.020 . S
Zn313 O322 2.039 . S
Zn313 O328 2.034 . S
Zn313 O332 2.025 . S
Zn313 O334 2.024 . S
C314 O333 1.246 . S
C314 O334 1.249 . S
N315 C316 1.307 1_545 S
N315 C317 1.333 . S
N315 Zn321 2.020 . S
C316 N315 1.307 1_565 S
C316 C320 1.370 . S
C316 H327 0.948 . S
C317 N315 1.333 . S
C317 C318 1.379 1_545 S
C317 H325 0.952 . S
C318 C317 1.379 1_565 S
C318 C319 1.390 . S
C318 H338 0.949 . S
C319 C318 1.390 . S
C319 C320 1.357 . S
C320 C316 1.370 . S
C320 C319 1.357 . S
C320 H339 0.950 . S
Zn321 N315 2.020 . S
Zn321 O324 2.025 . S
Zn321 O329 2.024 . S
Zn321 O331 2.039 . S
Zn321 O333 2.034 . S
O322 C306 1.251 . S
O322 Zn313 2.039 . S
C323 O328 1.246 . S
C323 O329 1.249 . S
O324 C306 1.254 . S
O324 Zn321 2.025 . S
H325 C317 0.952 . S
H326 C308 0.952 . S
H327 C316 0.948 . S
O328 Zn313 2.034 . S
O328 C323 1.246 . S
O329 Zn321 2.024 . S
O329 C323 1.249 . S
H330 C312 0.948 . S
O331 Zn321 2.039 . S
O331 C335 1.251 . S
O332 Zn313 2.025 . S
O332 C335 1.254 . S
O333 C314 1.246 . S
O333 Zn321 2.034 . S
O334 Zn313 2.024 . S
O334 C314 1.249 . S
C335 O331 1.251 . S
C335 O332 1.254 . S
H336 C309 0.949 . S
H337 C311 0.950 . S
H338 C318 0.949 . S
H339 C320 0.950 . S
C340 O356 1.251 . S
C340 O358 1.254 . S
N341 C342 1.333 . S
N341 C346 1.307 . S
N341 Zn347 2.020 . S
C342 N341 1.333 . S
C342 C343 1.379 . S
C342 H360 0.952 . S
C343 C342 1.379 . S
C343 C344 1.390 . S
C343 H370 0.949 . S
C344 C343 1.390 . S
C344 C345 1.357 . S
C345 C344 1.357 . S
C345 C346 1.370 . S
C345 H371 0.950 . S
C346 N341 1.307 . S
C346 C345 1.370 . S
C346 H364 0.948 . S
Zn347 N341 2.020 . S
Zn347 O356 2.039 . S
Zn347 O362 2.034 . S
Zn347 O366 2.025 . S
Zn347 O368 2.024 . S
C348 O367 1.246 . S
C348 O368 1.249 . S
N349 C350 1.307 . S
N349 C351 1.333 . S
N349 Zn355 2.020 . S
C350 N349 1.307 . S
C350 C354 1.370 . S
C350 H361 0.948 . S
C351 N349 1.333 . S
C351 C352 1.379 . S
C351 H359 0.952 . S
C352 C351 1.379 . S
C352 C353 1.390 . S
C352 H372 0.949 1_545 S
C353 C352 1.390 . S
C353 C354 1.357 . S
C354 C350 1.370 . S
C354 C353 1.357 . S
C354 H373 0.950 . S
Zn355 N349 2.020 . S
Zn355 O358 2.025 . S
Zn355 O363 2.024 . S
Zn355 O365 2.039 . S
Zn355 O367 2.034 . S
O356 C340 1.251 . S
O356 Zn347 2.039 . S
C357 O362 1.246 . S
C357 O363 1.249 . S
O358 C340 1.254 . S
O358 Zn355 2.025 . S
H359 C351 0.952 . S
H360 C342 0.952 . S
H361 C350 0.948 . S
O362 Zn347 2.034 . S
O362 C357 1.246 . S
O363 Zn355 2.024 . S
O363 C357 1.249 . S
H364 C346 0.948 . S
O365 Zn355 2.039 . S
O365 C369 1.251 . S
O366 Zn347 2.025 . S
O366 C369 1.254 . S
O367 C348 1.246 . S
O367 Zn355 2.034 . S
O368 Zn347 2.024 . S
O368 C348 1.249 . S
C369 O365 1.251 . S
C369 O366 1.254 . S
H370 C343 0.949 . S
H371 C345 0.950 . S
H372 C352 0.949 1_565 S
H373 C354 0.950 . S
C374 O390 1.251 . S
C374 O392 1.254 . S
N375 C376 1.333 . S
N375 C380 1.307 . S
N375 Zn381 2.020 1_554 S
C376 N375 1.333 . S
C376 C377 1.379 . S
C376 H394 0.944 1_554 S
C377 C376 1.379 . S
C377 C378 1.390 . S
C377 H404 0.949 . S
C378 C377 1.390 . S
C378 C379 1.357 . S
C379 C378 1.357 . S
C379 C380 1.370 . S
C379 H405 0.950 . S
C380 N375 1.307 . S
C380 C379 1.370 . S
C380 H398 0.948 . S
Zn381 N375 2.020 1_556 S
Zn381 O390 2.039 . S
Zn381 O396 2.034 1_556 S
Zn381 O400 2.025 1_556 S
Zn381 O402 2.024 . S
C382 O401 1.246 . S
C382 O402 1.249 . S
N383 C384 1.307 1_565 S
N383 C385 1.333 . S
N383 Zn389 2.020 . S
C384 N383 1.307 1_545 S
C384 C388 1.370 . S
C384 H395 0.948 . S
C385 N383 1.333 . S
C385 C386 1.379 1_565 S
C385 H393 0.952 . S
C386 C385 1.379 1_545 S
C386 C387 1.390 . S
C386 H406 0.949 . S
C387 C386 1.390 . S
C387 C388 1.357 . S
C388 C384 1.370 . S
C388 C387 1.357 . S
C388 H407 0.950 . S
Zn389 N383 2.020 . S
Zn389 O392 2.025 . S
Zn389 O397 2.024 . S
Zn389 O399 2.039 . S
Zn389 O401 2.034 . S
O390 C374 1.251 . S
O390 Zn381 2.039 . S
C391 O396 1.246 . S
C391 O397 1.249 1_554 S
O392 C374 1.254 . S
O392 Zn389 2.025 . S
H393 C385 0.952 . S
H394 C376 0.944 1_556 S
H395 C384 0.948 . S
O396 Zn381 2.034 1_554 S
O396 C391 1.246 . S
O397 Zn389 2.024 . S
O397 C391 1.249 1_556 S
H398 C380 0.948 . S
O399 Zn389 2.039 . S
O399 C403 1.251 1_556 S
O400 Zn381 2.025 1_554 S
O400 C403 1.254 . S
O401 C382 1.246 . S
O401 Zn389 2.034 . S
O402 Zn381 2.024 . S
O402 C382 1.249 . S
C403 O399 1.251 1_554 S
C403 O400 1.254 . S
H404 C377 0.949 . S
H405 C379 0.950 . S
H406 C386 0.949 . S
H407 C388 0.950 . S
C408 O424 1.251 . S
C408 O426 1.254 . S
N409 C410 1.333 . S
N409 C414 1.307 . S
N409 Zn415 2.020 . S
C410 N409 1.333 . S
C410 C411 1.379 . S
C410 H428 0.952 . S
C411 C410 1.379 . S
C411 C412 1.390 1_655 S
C411 H438 0.949 . S
C412 C411 1.390 1_455 S
C412 C413 1.357 . S
C413 C412 1.357 . S
C413 C414 1.370 1_455 S
C413 H439 0.950 . S
C414 N409 1.307 . S
C414 C413 1.370 1_655 S
C414 H432 0.948 . S
Zn415 N409 2.020 . S
Zn415 O424 2.039 . S
Zn415 O430 2.034 . S
Zn415 O434 2.025 . S
Zn415 O436 2.024 . S
C416 O435 1.246 . S
C416 O436 1.249 . S
N417 C418 1.307 . S
N417 C419 1.333 . S
N417 Zn423 2.020 . S
C418 N417 1.307 . S
C418 C422 1.370 . S
C418 H429 0.948 . S
C419 N417 1.333 . S
C419 C420 1.379 . S
C419 H427 0.952 . S
C420 C419 1.379 . S
C420 C421 1.390 . S
C420 H440 0.949 1_545 S
C421 C420 1.390 . S
C421 C422 1.357 . S
C422 C418 1.370 . S
C422 C421 1.357 . S
C422 H441 0.950 . S
Zn423 N417 2.020 . S
Zn423 O426 2.025 . S
Zn423 O431 2.024 . S
Zn423 O433 2.039 . S
Zn423 O435 2.034 . S
O424 C408 1.251 . S
O424 Zn415 2.039 . S
C425 O430 1.246 . S
C425 O431 1.249 . S
O426 C408 1.254 . S
O426 Zn423 2.025 . S
H427 C419 0.952 . S
H428 C410 0.952 . S
H429 C418 0.948 . S
O430 Zn415 2.034 . S
O430 C425 1.246 . S
O431 Zn423 2.024 . S
O431 C425 1.249 . S
H432 C414 0.948 . S
O433 Zn423 2.039 . S
O433 C437 1.251 . S
O434 Zn415 2.025 . S
O434 C437 1.254 . S
O435 C416 1.246 . S
O435 Zn423 2.034 . S
O436 Zn415 2.024 . S
O436 C416 1.249 . S
C437 O433 1.251 . S
C437 O434 1.254 . S
H438 C411 0.949 . S
H439 C413 0.950 . S
H440 C420 0.949 1_565 S
H441 C422 0.950 . S
C442 O458 1.251 . S
C442 O460 1.254 . S
N443 C444 1.333 . S
N443 C448 1.307 . S
N443 Zn449 2.020 . S
C444 N443 1.333 . S
C444 C445 1.379 . S
C444 H462 0.952 . S
C445 C444 1.379 . S
C445 C446 1.390 . S
C445 H472 0.949 . S
C446 C445 1.390 . S
C446 C447 1.357 . S
C447 C446 1.357 . S
C447 C448 1.370 . S
C447 H473 0.950 . S
C448 N443 1.307 . S
C448 C447 1.370 . S
C448 H466 0.948 . S
Zn449 N443 2.020 . S
Zn449 O458 2.039 . S
Zn449 O464 2.034 . S
Zn449 O468 2.025 . S
Zn449 O470 2.024 . S
C450 O469 1.246 . S
C450 O470 1.249 . S
N451 C452 1.307 1_545 S
N451 C453 1.333 . S
N451 Zn457 2.020 . S
C452 N451 1.307 1_565 S
C452 C456 1.370 . S
C452 H463 0.948 . S
C453 N451 1.333 . S
C453 C454 1.379 1_545 S
C453 H461 0.952 . S
C454 C453 1.379 1_565 S
C454 C455 1.390 . S
C454 H474 0.949 . S
C455 C454 1.390 . S
C455 C456 1.357 . S
C456 C452 1.370 . S
C456 C455 1.357 . S
C456 H475 0.950 . S
Zn457 N451 2.020 . S
Zn457 O460 2.025 . S
Zn457 O465 2.024 . S
Zn457 O467 2.039 . S
Zn457 O469 2.034 . S
O458 C442 1.251 . S
O458 Zn449 2.039 . S
C459 O464 1.246 . S
C459 O465 1.249 . S
O460 C442 1.254 . S
O460 Zn457 2.025 . S
H461 C453 0.952 . S
H462 C444 0.952 . S
H463 C452 0.948 . S
O464 Zn449 2.034 . S
O464 C459 1.246 . S
O465 Zn457 2.024 . S
O465 C459 1.249 . S
H466 C448 0.948 . S
O467 Zn457 2.039 . S
O467 C471 1.251 . S
O468 Zn449 2.025 . S
O468 C471 1.254 . S
O469 C450 1.246 . S
O469 Zn457 2.034 . S
O470 Zn449 2.024 . S
O470 C450 1.249 . S
C471 O467 1.251 . S
C471 O468 1.254 . S
H472 C445 0.949 . S
H473 C447 0.950 . S
H474 C454 0.949 . S
H475 C456 0.950 . S
C476 O492 1.251 . S
C476 O494 1.254 . S
N477 C478 1.333 . S
N477 C482 1.307 . S
N477 Zn483 2.020 . S
C478 N477 1.333 . S
C478 C479 1.379 . S
C478 H496 0.952 . S
C479 C478 1.379 . S
C479 C480 1.390 . S
C479 H506 0.949 . S
C480 C479 1.390 . S
C480 C481 1.357 . S
C481 C480 1.357 . S
C481 C482 1.370 . S
C481 H507 0.950 . S
C482 N477 1.307 . S
C482 C481 1.370 . S
C482 H500 0.948 . S
Zn483 N477 2.020 . S
Zn483 O492 2.039 . S
Zn483 O498 2.034 . S
Zn483 O502 2.025 . S
Zn483 O504 2.024 . S
C484 O503 1.246 . S
C484 O504 1.249 . S
N485 C486 1.307 . S
N485 C487 1.333 . S
N485 Zn491 2.020 . S
C486 N485 1.307 . S
C486 C490 1.370 . S
C486 H497 0.948 . S
C487 N485 1.333 . S
C487 C488 1.379 . S
C487 H495 0.952 . S
C488 C487 1.379 . S
C488 C489 1.390 . S
C488 H508 0.949 1_565 S
C489 C488 1.390 . S
C489 C490 1.357 . S
C490 C486 1.370 . S
C490 C489 1.357 . S
C490 H509 0.950 . S
Zn491 N485 2.020 . S
Zn491 O494 2.025 . S
Zn491 O499 2.024 . S
Zn491 O501 2.039 . S
Zn491 O503 2.034 . S
O492 C476 1.251 . S
O492 Zn483 2.039 . S
C493 O498 1.246 . S
C493 O499 1.249 . S
O494 C476 1.254 . S
O494 Zn491 2.025 . S
H495 C487 0.952 . S
H496 C478 0.952 . S
H497 C486 0.948 . S
O498 Zn483 2.034 . S
O498 C493 1.246 . S
O499 Zn491 2.024 . S
O499 C493 1.249 . S
H500 C482 0.948 . S
O501 Zn491 2.039 . S
O501 C505 1.251 . S
O502 Zn483 2.025 . S
O502 C505 1.254 . S
O503 C484 1.246 . S
O503 Zn491 2.034 . S
O504 Zn483 2.024 . S
O504 C484 1.249 . S
C505 O501 1.251 . S
C505 O502 1.254 . S
H506 C479 0.949 . S
H507 C481 0.950 . S
H508 C488 0.949 1_545 S
H509 C490 0.950 . S
C510 O526 1.251 . S
C510 O528 1.254 . S
N511 C512 1.333 1_655 S
N511 C516 1.307 . S
N511 Zn517 2.020 1_556 S
C512 N511 1.333 1_455 S
C512 C513 1.379 . S
C512 H530 0.944 1_556 S
C513 C512 1.379 . S
C513 C514 1.390 . S
C513 H540 0.949 . S
C514 C513 1.390 . S
C514 C515 1.357 1_455 S
C515 C514 1.357 1_655 S
C515 C516 1.370 . S
C515 H541 0.950 . S
C516 N511 1.307 . S
C516 C515 1.370 . S
C516 H534 0.948 . S
Zn517 N511 2.020 1_554 S
Zn517 O526 2.039 . S
Zn517 O532 2.034 1_554 S
Zn517 O536 2.025 1_554 S
Zn517 O538 2.024 . S
C518 O537 1.246 . S
C518 O538 1.249 . S
N519 C520 1.307 1_565 S
N519 C521 1.333 . S
N519 Zn525 2.020 . S
C520 N519 1.307 1_545 S
C520 C524 1.370 . S
C520 H531 0.948 . S
C521 N519 1.333 . S
C521 C522 1.379 1_565 S
C521 H529 0.952 . S
C522 C521 1.379 1_545 S
C522 C523 1.390 . S
C522 H542 0.949 . S
C523 C522 1.390 . S
C523 C524 1.357 . S
C524 C520 1.370 . S
C524 C523 1.357 . S
C524 H543 0.950 . S
Zn525 N519 2.020 . S
Zn525 O528 2.025 . S
Zn525 O533 2.024 . S
Zn525 O535 2.039 . S
Zn525 O537 2.034 . S
O526 C510 1.251 . S
O526 Zn517 2.039 . S
C527 O532 1.246 . S
C527 O533 1.249 1_556 S
O528 C510 1.254 . S
O528 Zn525 2.025 . S
H529 C521 0.952 . S
H530 C512 0.944 1_554 S
H531 C520 0.948 . S
O532 Zn517 2.034 1_556 S
O532 C527 1.246 . S
O533 Zn525 2.024 . S
O533 C527 1.249 1_554 S
H534 C516 0.948 . S
O535 Zn525 2.039 . S
O535 C539 1.251 1_554 S
O536 Zn517 2.025 1_556 S
O536 C539 1.254 . S
O537 C518 1.246 . S
O537 Zn525 2.034 . S
O538 Zn517 2.024 . S
O538 C518 1.249 . S
C539 O535 1.251 1_556 S
C539 O536 1.254 . S
H540 C513 0.949 . S
H541 C515 0.950 . S
H542 C522 0.949 . S
H543 C524 0.950 . S
C544 O560 1.251 . S
C544 O562 1.254 . S
N545 C546 1.333 . S
N545 C550 1.307 . S
N545 Zn551 2.020 . S
C546 N545 1.333 . S
C546 C547 1.379 . S
C546 H564 0.952 . S
C547 C546 1.379 . S
C547 C548 1.390 . S
C547 H574 0.949 . S
C548 C547 1.390 . S
C548 C549 1.357 . S
C549 C548 1.357 . S
C549 C550 1.370 . S
C549 H575 0.950 . S
C550 N545 1.307 . S
C550 C549 1.370 . S
C550 H568 0.948 . S
Zn551 N545 2.020 . S
Zn551 O560 2.039 . S
Zn551 O566 2.034 . S
Zn551 O570 2.025 . S
Zn551 O572 2.024 . S
C552 O571 1.246 . S
C552 O572 1.249 . S
N553 C554 1.307 . S
N553 C555 1.333 . S
N553 Zn559 2.020 . S
C554 N553 1.307 . S
C554 C558 1.370 . S
C554 H565 0.948 . S
C555 N553 1.333 . S
C555 C556 1.379 . S
C555 H563 0.952 . S
C556 C555 1.379 . S
C556 C557 1.390 . S
C556 H576 0.949 . S
C557 C556 1.390 . S
C557 C558 1.357 . S
C558 C554 1.370 . S
C558 C557 1.357 . S
C558 H577 0.950 . S
Zn559 N553 2.020 . S
Zn559 O562 2.025 . S
Zn559 O567 2.024 . S
Zn559 O569 2.039 . S
Zn559 O571 2.034 . S
O560 C544 1.251 . S
O560 Zn551 2.039 . S
C561 O566 1.246 . S
C561 O567 1.249 . S
O562 C544 1.254 . S
O562 Zn559 2.025 . S
H563 C555 0.952 . S
H564 C546 0.952 . S
H565 C554 0.948 . S
O566 Zn551 2.034 . S
O566 C561 1.246 . S
O567 Zn559 2.024 . S
O567 C561 1.249 . S
H568 C550 0.948 . S
O569 Zn559 2.039 . S
O569 C573 1.251 . S
O570 Zn551 2.025 . S
O570 C573 1.254 . S
O571 C552 1.246 . S
O571 Zn559 2.034 . S
O572 Zn551 2.024 . S
O572 C552 1.249 . S
C573 O569 1.251 . S
C573 O570 1.254 . S
H574 C547 0.949 . S
H575 C549 0.950 . S
H576 C556 0.949 . S
H577 C558 0.950 . S
C578 O594 1.251 1_556 S
C578 O596 1.254 . S
N579 C580 1.333 . S
N579 C584 1.307 . S
N579 Zn585 2.020 . S
C580 N579 1.333 . S
C580 C581 1.379 . S
C580 H598 0.952 . S
C581 C580 1.379 . S
C581 C582 1.390 . S
C581 H608 0.949 . S
C582 C581 1.390 . S
C582 C583 1.357 . S
C583 C582 1.357 . S
C583 C584 1.370 . S
C583 H609 0.950 . S
C584 N579 1.307 . S
C584 C583 1.370 . S
C584 H602 0.948 . S
Zn585 N579 2.020 . S
Zn585 O594 2.039 . S
Zn585 O600 2.034 . S
Zn585 O604 2.025 . S
Zn585 O606 2.024 . S
C586 O605 1.246 . S
C586 O606 1.249 1_556 S
N587 C588 1.307 . S
N587 C589 1.333 . S
N587 Zn593 2.020 1_556 S
C588 N587 1.307 . S
C588 C592 1.370 . S
C588 H599 0.948 . S
C589 N587 1.333 . S
C589 C590 1.379 . S
C589 H597 0.944 1_556 S
C590 C589 1.379 . S
C590 C591 1.390 . S
C590 H610 0.949 . S
C591 C590 1.390 . S
C591 C592 1.357 . S
C592 C588 1.370 . S
C592 C591 1.357 . S
C592 H611 0.950 . S
Zn593 N587 2.020 1_554 S
Zn593 O596 2.025 1_554 S
Zn593 O601 2.024 . S
Zn593 O603 2.039 . S
Zn593 O605 2.034 1_554 S
O594 C578 1.251 1_554 S
O594 Zn585 2.039 . S
C595 O600 1.246 . S
C595 O601 1.249 . S
O596 C578 1.254 . S
O596 Zn593 2.025 1_556 S
H597 C589 0.944 1_554 S
H598 C580 0.952 . S
H599 C588 0.948 . S
O600 Zn585 2.034 . S
O600 C595 1.246 . S
O601 Zn593 2.024 . S
O601 C595 1.249 . S
H602 C584 0.948 . S
O603 Zn593 2.039 . S
O603 C607 1.251 . S
O604 Zn585 2.025 . S
O604 C607 1.254 . S
O605 C586 1.246 . S
O605 Zn593 2.034 1_556 S
O606 Zn585 2.024 . S
O606 C586 1.249 1_554 S
C607 O603 1.251 . S
C607 O604 1.254 . S
H608 C581 0.949 . S
H609 C583 0.950 . S
H610 C590 0.949 . S
H611 C592 0.950 . S
C612 O628 1.251 . S
C612 O630 1.254 . S
N613 C614 1.333 . S
N613 C618 1.307 . S
N613 Zn619 2.020 . S
C614 N613 1.333 . S
C614 C615 1.379 . S
C614 H632 0.952 . S
C615 C614 1.379 . S
C615 C616 1.390 . S
C615 H642 0.949 . S
C616 C615 1.390 . S
C616 C617 1.357 . S
C617 C616 1.357 . S
C617 C618 1.370 . S
C617 H643 0.950 . S
C618 N613 1.307 . S
C618 C617 1.370 . S
C618 H636 0.948 . S
Zn619 N613 2.020 . S
Zn619 O628 2.039 . S
Zn619 O634 2.034 . S
Zn619 O638 2.025 . S
Zn619 O640 2.024 . S
C620 O639 1.246 . S
C620 O640 1.249 . S
N621 C622 1.307 . S
N621 C623 1.333 . S
N621 Zn627 2.020 . S
C622 N621 1.307 . S
C622 C626 1.370 1_655 S
C622 H633 0.948 . S
C623 N621 1.333 . S
C623 C624 1.379 . S
C623 H631 0.952 . S
C624 C623 1.379 . S
C624 C625 1.390 1_655 S
C624 H644 0.949 . S
C625 C624 1.390 1_455 S
C625 C626 1.357 . S
C626 C622 1.370 1_455 S
C626 C625 1.357 . S
C626 H645 0.950 . S
Zn627 N621 2.020 . S
Zn627 O630 2.025 . S
Zn627 O635 2.024 . S
Zn627 O637 2.039 . S
Zn627 O639 2.034 . S
O628 C612 1.251 . S
O628 Zn619 2.039 . S
C629 O634 1.246 . S
C629 O635 1.249 . S
O630 C612 1.254 . S
O630 Zn627 2.025 . S
H631 C623 0.952 . S
H632 C614 0.952 . S
H633 C622 0.948 . S
O634 Zn619 2.034 . S
O634 C629 1.246 . S
O635 Zn627 2.024 . S
O635 C629 1.249 . S
H636 C618 0.948 . S
O637 Zn627 2.039 . S
O637 C641 1.251 . S
O638 Zn619 2.025 . S
O638 C641 1.254 . S
O639 C620 1.246 . S
O639 Zn627 2.034 . S
O640 Zn619 2.024 . S
O640 C620 1.249 . S
C641 O637 1.251 . S
C641 O638 1.254 . S
H642 C615 0.949 . S
H643 C617 0.950 . S
H644 C624 0.949 . S
H645 C626 0.950 . S
C646 O662 1.251 . S
C646 O664 1.254 . S
N647 C648 1.333 . S
N647 C652 1.307 . S
N647 Zn653 2.020 . S
C648 N647 1.333 . S
C648 C649 1.379 . S
C648 H666 0.952 . S
C649 C648 1.379 . S
C649 C650 1.390 . S
C649 H676 0.949 . S
C650 C649 1.390 . S
C650 C651 1.357 . S
C651 C650 1.357 . S
C651 C652 1.370 . S
C651 H677 0.950 . S
C652 N647 1.307 . S
C652 C651 1.370 . S
C652 H670 0.948 . S
Zn653 N647 2.020 . S
Zn653 O662 2.039 . S
Zn653 O668 2.034 . S
Zn653 O672 2.025 . S
Zn653 O674 2.024 . S
C654 O673 1.246 . S
C654 O674 1.249 . S
N655 C656 1.307 . S
N655 C657 1.333 1_655 S
N655 Zn661 2.020 . S
C656 N655 1.307 . S
C656 C660 1.370 . S
C656 H667 0.948 . S
C657 N655 1.333 1_455 S
C657 C658 1.379 . S
C657 H665 0.952 . S
C658 C657 1.379 . S
C658 C659 1.390 . S
C658 H678 0.949 . S
C659 C658 1.390 . S
C659 C660 1.357 1_455 S
C660 C656 1.370 . S
C660 C659 1.357 1_655 S
C660 H679 0.950 . S
Zn661 N655 2.020 . S
Zn661 O664 2.025 . S
Zn661 O669 2.024 . S
Zn661 O671 2.039 . S
Zn661 O673 2.034 . S
O662 C646 1.251 . S
O662 Zn653 2.039 . S
C663 O668 1.246 . S
C663 O669 1.249 . S
O664 C646 1.254 . S
O664 Zn661 2.025 . S
H665 C657 0.952 . S
H666 C648 0.952 . S
H667 C656 0.948 . S
O668 Zn653 2.034 . S
O668 C663 1.246 . S
O669 Zn661 2.024 . S
O669 C663 1.249 . S
H670 C652 0.948 . S
O671 Zn661 2.039 . S
O671 C675 1.251 . S
O672 Zn653 2.025 . S
O672 C675 1.254 . S
O673 C654 1.246 . S
O673 Zn661 2.034 . S
O674 Zn653 2.024 . S
O674 C654 1.249 . S
C675 O671 1.251 . S
C675 O672 1.254 . S
H676 C649 0.949 . S
H677 C651 0.950 . S
H678 C658 0.949 . S
H679 C660 0.950 . S
C680 O696 1.251 . S
C680 O698 1.254 . S
N681 C682 1.333 . S
N681 C686 1.307 . S
N681 Zn687 2.020 . S
C682 N681 1.333 . S
C682 C683 1.379 . S
C682 H700 0.952 . S
C683 C682 1.379 . S
C683 C684 1.390 . S
C683 H710 0.949 . S
C684 C683 1.390 . S
C684 C685 1.357 . S
C685 C684 1.357 . S
C685 C686 1.370 . S
C685 H711 0.950 . S
C686 N681 1.307 . S
C686 C685 1.370 . S
C686 H704 0.948 . S
Zn687 N681 2.020 . S
Zn687 O696 2.039 . S
Zn687 O702 2.034 . S
Zn687 O706 2.025 . S
Zn687 O708 2.024 . S
C688 O707 1.246 . S
C688 O708 1.249 . S
N689 C690 1.307 . S
N689 C691 1.333 . S
N689 Zn695 2.020 . S
C690 N689 1.307 . S
C690 C694 1.370 . S
C690 H701 0.948 . S
C691 N689 1.333 . S
C691 C692 1.379 . S
C691 H699 0.952 . S
C692 C691 1.379 . S
C692 C693 1.390 . S
C692 H712 0.949 . S
C693 C692 1.390 . S
C693 C694 1.357 . S
C694 C690 1.370 . S
C694 C693 1.357 . S
C694 H713 0.950 . S
Zn695 N689 2.020 . S
Zn695 O698 2.025 . S
Zn695 O703 2.024 . S
Zn695 O705 2.039 . S
Zn695 O707 2.034 . S
O696 C680 1.251 . S
O696 Zn687 2.039 . S
C697 O702 1.246 . S
C697 O703 1.249 . S
O698 C680 1.254 . S
O698 Zn695 2.025 . S
H699 C691 0.952 . S
H700 C682 0.952 . S
H701 C690 0.948 . S
O702 Zn687 2.034 . S
O702 C697 1.246 . S
O703 Zn695 2.024 . S
O703 C697 1.249 . S
H704 C686 0.948 . S
O705 Zn695 2.039 . S
O705 C709 1.251 . S
O706 Zn687 2.025 . S
O706 C709 1.254 . S
O707 C688 1.246 . S
O707 Zn695 2.034 . S
O708 Zn687 2.024 . S
O708 C688 1.249 . S
C709 O705 1.251 . S
C709 O706 1.254 . S
H710 C683 0.949 . S
H711 C685 0.950 . S
H712 C692 0.949 . S
H713 C694 0.950 . S
C714 O730 1.251 1_554 S
C714 O732 1.254 . S
N715 C716 1.333 . S
N715 C720 1.307 . S
N715 Zn721 2.020 . S
C716 N715 1.333 . S
C716 C717 1.379 . S
C716 H734 0.952 . S
C717 C716 1.379 . S
C717 C718 1.390 . S
C717 H744 0.949 . S
C718 C717 1.390 . S
C718 C719 1.357 . S
C719 C718 1.357 . S
C719 C720 1.370 . S
C719 H745 0.950 . S
C720 N715 1.307 . S
C720 C719 1.370 . S
C720 H738 0.948 . S
Zn721 N715 2.020 . S
Zn721 O730 2.039 . S
Zn721 O736 2.034 . S
Zn721 O740 2.025 . S
Zn721 O742 2.024 . S
C722 O741 1.246 . S
C722 O742 1.249 1_554 S
N723 C724 1.307 . S
N723 C725 1.333 1_655 S
N723 Zn729 2.020 1_554 S
C724 N723 1.307 . S
C724 C728 1.370 . S
C724 H735 0.948 . S
C725 N723 1.333 1_455 S
C725 C726 1.379 . S
C725 H733 0.944 1_554 S
C726 C725 1.379 . S
C726 C727 1.390 . S
C726 H746 0.949 . S
C727 C726 1.390 . S
C727 C728 1.357 1_455 S
C728 C724 1.370 . S
C728 C727 1.357 1_655 S
C728 H747 0.950 . S
Zn729 N723 2.020 1_556 S
Zn729 O732 2.025 1_556 S
Zn729 O737 2.024 . S
Zn729 O739 2.039 . S
Zn729 O741 2.034 1_556 S
O730 C714 1.251 1_556 S
O730 Zn721 2.039 . S
C731 O736 1.246 . S
C731 O737 1.249 . S
O732 C714 1.254 . S
O732 Zn729 2.025 1_554 S
H733 C725 0.944 1_556 S
H734 C716 0.952 . S
H735 C724 0.948 . S
O736 Zn721 2.034 . S
O736 C731 1.246 . S
O737 Zn729 2.024 . S
O737 C731 1.249 . S
H738 C720 0.948 . S
O739 Zn729 2.039 . S
O739 C743 1.251 . S
O740 Zn721 2.025 . S
O740 C743 1.254 . S
O741 C722 1.246 . S
O741 Zn729 2.034 1_554 S
O742 Zn721 2.024 . S
O742 C722 1.249 1_556 S
C743 O739 1.251 . S
C743 O740 1.254 . S
H744 C717 0.949 . S
H745 C719 0.950 . S
H746 C726 0.949 . S
H747 C728 0.950 . S
C748 O764 1.251 . S
C748 O766 1.254 . S
N749 C750 1.333 . S
N749 C754 1.307 . S
N749 Zn755 2.020 . S
C750 N749 1.333 . S
C750 C751 1.379 . S
C750 H768 0.952 . S
C751 C750 1.379 . S
C751 C752 1.390 . S
C751 H778 0.949 . S
C752 C751 1.390 . S
C752 C753 1.357 . S
C753 C752 1.357 . S
C753 C754 1.370 . S
C753 H779 0.950 . S
C754 N749 1.307 . S
C754 C753 1.370 . S
C754 H772 0.948 . S
Zn755 N749 2.020 . S
Zn755 O764 2.039 . S
Zn755 O770 2.034 . S
Zn755 O774 2.025 . S
Zn755 O776 2.024 . S
C756 O775 1.246 . S
C756 O776 1.249 . S
N757 C758 1.307 . S
N757 C759 1.333 . S
N757 Zn763 2.020 . S
C758 N757 1.307 . S
C758 C762 1.370 1_655 S
C758 H769 0.948 . S
C759 N757 1.333 . S
C759 C760 1.379 . S
C759 H767 0.952 . S
C760 C759 1.379 . S
C760 C761 1.390 1_655 S
C760 H780 0.949 . S
C761 C760 1.390 1_455 S
C761 C762 1.357 . S
C762 C758 1.370 1_455 S
C762 C761 1.357 . S
C762 H781 0.950 . S
Zn763 N757 2.020 . S
Zn763 O766 2.025 . S
Zn763 O771 2.024 . S
Zn763 O773 2.039 . S
Zn763 O775 2.034 . S
O764 C748 1.251 . S
O764 Zn755 2.039 . S
C765 O770 1.246 . S
C765 O771 1.249 . S
O766 C748 1.254 . S
O766 Zn763 2.025 . S
H767 C759 0.952 . S
H768 C750 0.952 . S
H769 C758 0.948 . S
O770 Zn755 2.034 . S
O770 C765 1.246 . S
O771 Zn763 2.024 . S
O771 C765 1.249 . S
H772 C754 0.948 . S
O773 Zn763 2.039 . S
O773 C777 1.251 . S
O774 Zn755 2.025 . S
O774 C777 1.254 . S
O775 C756 1.246 . S
O775 Zn763 2.034 . S
O776 Zn755 2.024 . S
O776 C756 1.249 . S
C777 O773 1.251 . S
C777 O774 1.254 . S
H778 C751 0.949 . S
H779 C753 0.950 . S
H780 C760 0.949 . S
H781 C762 0.950 . S
C782 O798 1.251 . S
C782 O800 1.254 . S
N783 C784 1.333 . S
N783 C788 1.307 . S
N783 Zn789 2.020 . S
C784 N783 1.333 . S
C784 C785 1.379 . S
C784 H802 0.952 . S
C785 C784 1.379 . S
C785 C786 1.390 . S
C785 H812 0.949 . S
C786 C785 1.390 . S
C786 C787 1.357 . S
C787 C786 1.357 . S
C787 C788 1.370 . S
C787 H813 0.950 . S
C788 N783 1.307 . S
C788 C787 1.370 . S
C788 H806 0.948 . S
Zn789 N783 2.020 . S
Zn789 O798 2.039 . S
Zn789 O804 2.034 . S
Zn789 O808 2.025 . S
Zn789 O810 2.024 . S
C790 O809 1.246 . S
C790 O810 1.249 . S
N791 C792 1.307 . S
N791 C793 1.333 . S
N791 Zn797 2.020 . S
C792 N791 1.307 . S
C792 C796 1.370 . S
C792 H803 0.948 . S
C793 N791 1.333 . S
C793 C794 1.379 . S
C793 H801 0.952 . S
C794 C793 1.379 . S
C794 C795 1.390 . S
C794 H814 0.949 . S
C795 C794 1.390 . S
C795 C796 1.357 . S
C796 C792 1.370 . S
C796 C795 1.357 . S
C796 H815 0.950 . S
Zn797 N791 2.020 . S
Zn797 O800 2.025 . S
Zn797 O805 2.024 . S
Zn797 O807 2.039 . S
Zn797 O809 2.034 . S
O798 C782 1.251 . S
O798 Zn789 2.039 . S
C799 O804 1.246 . S
C799 O805 1.249 . S
O800 C782 1.254 . S
O800 Zn797 2.025 . S
H801 C793 0.952 . S
H802 C784 0.952 . S
H803 C792 0.948 . S
O804 Zn789 2.034 . S
O804 C799 1.246 . S
O805 Zn797 2.024 . S
O805 C799 1.249 . S
H806 C788 0.948 . S
O807 Zn797 2.039 . S
O807 C811 1.251 . S
O808 Zn789 2.025 . S
O808 C811 1.254 . S
O809 C790 1.246 . S
O809 Zn797 2.034 . S
O810 Zn789 2.024 . S
O810 C790 1.249 . S
C811 O807 1.251 . S
C811 O808 1.254 . S
H812 C785 0.949 . S
H813 C787 0.950 . S
H814 C794 0.949 . S
H815 C796 0.950 . S
C816 O832 1.251 . S
C816 O834 1.254 . S
N817 C818 1.333 . S
N817 C822 1.307 . S
N817 Zn823 2.020 . S
C818 N817 1.333 . S
C818 C819 1.379 . S
C818 H836 0.952 . S
C819 C818 1.379 . S
C819 C820 1.390 . S
C819 H846 0.949 . S
C820 C819 1.390 . S
C820 C821 1.357 . S
C821 C820 1.357 . S
C821 C822 1.370 . S
C821 H847 0.950 . S
C822 N817 1.307 . S
C822 C821 1.370 . S
C822 H840 0.948 . S
Zn823 N817 2.020 . S
Zn823 O832 2.039 . S
Zn823 O838 2.034 . S
Zn823 O842 2.025 . S
Zn823 O844 2.024 . S
C824 O843 1.246 . S
C824 O844 1.249 . S
N825 C826 1.307 . S
N825 C827 1.333 . S
N825 Zn831 2.020 . S
C826 N825 1.307 . S
C826 C830 1.370 . S
C826 H837 0.948 . S
C827 N825 1.333 . S
C827 C828 1.379 . S
C827 H835 0.952 . S
C828 C827 1.379 . S
C828 C829 1.390 . S
C828 H848 0.949 . S
C829 C828 1.390 . S
C829 C830 1.357 . S
C830 C826 1.370 . S
C830 C829 1.357 . S
C830 H849 0.950 . S
Zn831 N825 2.020 . S
Zn831 O834 2.025 . S
Zn831 O839 2.024 . S
Zn831 O841 2.039 . S
Zn831 O843 2.034 . S
O832 C816 1.251 . S
O832 Zn823 2.039 . S
C833 O838 1.246 . S
C833 O839 1.249 . S
O834 C816 1.254 . S
O834 Zn831 2.025 . S
H835 C827 0.952 . S
H836 C818 0.952 . S
H837 C826 0.948 . S
O838 Zn823 2.034 . S
O838 C833 1.246 . S
O839 Zn831 2.024 . S
O839 C833 1.249 . S
H840 C822 0.948 . S
O841 Zn831 2.039 . S
O841 C845 1.251 . S
O842 Zn823 2.025 . S
O842 C845 1.254 . S
O843 C824 1.246 . S
O843 Zn831 2.034 . S
O844 Zn823 2.024 . S
O844 C824 1.249 . S
C845 O841 1.251 . S
C845 O842 1.254 . S
H846 C819 0.949 . S
H847 C821 0.950 . S
H848 C828 0.949 . S
H849 C830 0.950 . S
C850 O866 1.251 . S
C850 O868 1.254 . S
N851 C852 1.333 . S
N851 C856 1.307 . S
N851 Zn857 2.020 1_554 S
C852 N851 1.333 . S
C852 C853 1.379 . S
C852 H870 0.944 1_554 S
C853 C852 1.379 . S
C853 C854 1.390 . S
C853 H880 0.949 . S
C854 C853 1.390 . S
C854 C855 1.357 . S
C855 C854 1.357 . S
C855 C856 1.370 . S
C855 H881 0.950 . S
C856 N851 1.307 . S
C856 C855 1.370 . S
C856 H874 0.948 . S
Zn857 N851 2.020 1_556 S
Zn857 O866 2.039 . S
Zn857 O872 2.034 1_556 S
Zn857 O876 2.025 1_556 S
Zn857 O878 2.024 . S
C858 O877 1.246 . S
C858 O878 1.249 . S
N859 C860 1.307 . S
N859 C861 1.333 . S
N859 Zn865 2.020 . S
C860 N859 1.307 . S
C860 C864 1.370 . S
C860 H871 0.948 . S
C861 N859 1.333 . S
C861 C862 1.379 . S
C861 H869 0.952 . S
C862 C861 1.379 . S
C862 C863 1.390 . S
C862 H882 0.949 . S
C863 C862 1.390 . S
C863 C864 1.357 . S
C864 C860 1.370 . S
C864 C863 1.357 . S
C864 H883 0.950 . S
Zn865 N859 2.020 . S
Zn865 O868 2.025 . S
Zn865 O873 2.024 . S
Zn865 O875 2.039 . S
Zn865 O877 2.034 . S
O866 C850 1.251 . S
O866 Zn857 2.039 . S
C867 O872 1.246 . S
C867 O873 1.249 1_554 S
O868 C850 1.254 . S
O868 Zn865 2.025 . S
H869 C861 0.952 . S
H870 C852 0.944 1_556 S
H871 C860 0.948 . S
O872 Zn857 2.034 1_554 S
O872 C867 1.246 . S
O873 Zn865 2.024 . S
O873 C867 1.249 1_556 S
H874 C856 0.948 . S
O875 Zn865 2.039 . S
O875 C879 1.251 1_556 S
O876 Zn857 2.025 1_554 S
O876 C879 1.254 . S
O877 C858 1.246 . S
O877 Zn865 2.034 . S
O878 Zn857 2.024 . S
O878 C858 1.249 . S
C879 O875 1.251 1_554 S
C879 O876 1.254 . S
H880 C853 0.949 . S
H881 C855 0.950 . S
H882 C862 0.949 . S
H883 C864 0.950 . S
C884 O900 1.251 . S
C884 O902 1.254 . S
N885 C886 1.333 . S
N885 C890 1.307 . S
N885 Zn891 2.020 . S
C886 N885 1.333 . S
C886 C887 1.379 . S
C886 H904 0.952 . S
C887 C886 1.379 . S
C887 C888 1.390 1_455 S
C887 H914 0.949 . S
C888 C887 1.390 1_655 S
C888 C889 1.357 . S
C889 C888 1.357 . S
C889 C890 1.370 1_655 S
C889 H915 0.950 . S
C890 N885 1.307 . S
C890 C889 1.370 1_455 S
C890 H908 0.948 . S
Zn891 N885 2.020 . S
Zn891 O900 2.039 . S
Zn891 O906 2.034 . S
Zn891 O910 2.025 . S
Zn891 O912 2.024 . S
C892 O911 1.246 . S
C892 O912 1.249 . S
N893 C894 1.307 . S
N893 C895 1.333 . S
N893 Zn899 2.020 . S
C894 N893 1.307 . S
C894 C898 1.370 . S
C894 H905 0.948 . S
C895 N893 1.333 . S
C895 C896 1.379 . S
C895 H903 0.952 . S
C896 C895 1.379 . S
C896 C897 1.390 . S
C896 H916 0.949 . S
C897 C896 1.390 . S
C897 C898 1.357 . S
C898 C894 1.370 . S
C898 C897 1.357 . S
C898 H917 0.950 . S
Zn899 N893 2.020 . S
Zn899 O902 2.025 . S
Zn899 O907 2.024 . S
Zn899 O909 2.039 . S
Zn899 O911 2.034 . S
O900 C884 1.251 . S
O900 Zn891 2.039 . S
C901 O906 1.246 . S
C901 O907 1.249 . S
O902 C884 1.254 . S
O902 Zn899 2.025 . S
H903 C895 0.952 . S
H904 C886 0.952 . S
H905 C894 0.948 . S
O906 Zn891 2.034 . S
O906 C901 1.246 . S
O907 Zn899 2.024 . S
O907 C901 1.249 . S
H908 C890 0.948 . S
O909 Zn899 2.039 . S
O909 C913 1.251 . S
O910 Zn891 2.025 . S
O910 C913 1.254 . S
O911 C892 1.246 . S
O911 Zn899 2.034 . S
O912 Zn891 2.024 . S
O912 C892 1.249 . S
C913 O909 1.251 . S
C913 O910 1.254 . S
H914 C887 0.949 . S
H915 C889 0.950 . S
H916 C896 0.949 . S
H917 C898 0.950 . S
C918 O934 1.251 . S
C918 O936 1.254 . S
N919 C920 1.333 1_455 S
N919 C924 1.307 . S
N919 Zn925 2.020 . S
C920 N919 1.333 1_655 S
C920 C921 1.379 . S
C920 H938 0.952 . S
C921 C920 1.379 . S
C921 C922 1.390 . S
C921 H948 0.949 . S
C922 C921 1.390 . S
C922 C923 1.357 1_655 S
C923 C922 1.357 1_455 S
C923 C924 1.370 . S
C923 H949 0.950 . S
C924 N919 1.307 . S
C924 C923 1.370 . S
C924 H942 0.948 . S
Zn925 N919 2.020 . S
Zn925 O934 2.039 . S
Zn925 O940 2.034 . S
Zn925 O944 2.025 . S
Zn925 O946 2.024 . S
C926 O945 1.246 . S
C926 O946 1.249 . S
N927 C928 1.307 . S
N927 C929 1.333 . S
N927 Zn933 2.020 . S
C928 N927 1.307 . S
C928 C932 1.370 . S
C928 H939 0.948 . S
C929 N927 1.333 . S
C929 C930 1.379 . S
C929 H937 0.952 . S
C930 C929 1.379 . S
C930 C931 1.390 . S
C930 H950 0.949 . S
C931 C930 1.390 . S
C931 C932 1.357 . S
C932 C928 1.370 . S
C932 C931 1.357 . S
C932 H951 0.950 . S
Zn933 N927 2.020 . S
Zn933 O936 2.025 . S
Zn933 O941 2.024 . S
Zn933 O943 2.039 . S
Zn933 O945 2.034 . S
O934 C918 1.251 . S
O934 Zn925 2.039 . S
C935 O940 1.246 . S
C935 O941 1.249 . S
O936 C918 1.254 . S
O936 Zn933 2.025 . S
H937 C929 0.952 . S
H938 C920 0.952 . S
H939 C928 0.948 . S
O940 Zn925 2.034 . S
O940 C935 1.246 . S
O941 Zn933 2.024 . S
O941 C935 1.249 . S
H942 C924 0.948 . S
O943 Zn933 2.039 . S
O943 C947 1.251 . S
O944 Zn925 2.025 . S
O944 C947 1.254 . S
O945 C926 1.246 . S
O945 Zn933 2.034 . S
O946 Zn925 2.024 . S
O946 C926 1.249 . S
C947 O943 1.251 . S
C947 O944 1.254 . S
H948 C921 0.949 . S
H949 C923 0.950 . S
H950 C930 0.949 . S
H951 C932 0.950 . S
C952 O968 1.251 . S
C952 O970 1.254 . S
N953 C954 1.333 . S
N953 C958 1.307 . S
N953 Zn959 2.020 . S
C954 N953 1.333 . S
C954 C955 1.379 . S
C954 H972 0.952 . S
C955 C954 1.379 . S
C955 C956 1.390 . S
C955 H982 0.949 . S
C956 C955 1.390 . S
C956 C957 1.357 . S
C957 C956 1.357 . S
C957 C958 1.370 . S
C957 H983 0.950 . S
C958 N953 1.307 . S
C958 C957 1.370 . S
C958 H976 0.948 . S
Zn959 N953 2.020 . S
Zn959 O968 2.039 . S
Zn959 O974 2.034 . S
Zn959 O978 2.025 . S
Zn959 O980 2.024 . S
C960 O979 1.246 . S
C960 O980 1.249 . S
N961 C962 1.307 . S
N961 C963 1.333 . S
N961 Zn967 2.020 . S
C962 N961 1.307 . S
C962 C966 1.370 . S
C962 H973 0.948 . S
C963 N961 1.333 . S
C963 C964 1.379 . S
C963 H971 0.952 . S
C964 C963 1.379 . S
C964 C965 1.390 . S
C964 H984 0.949 . S
C965 C964 1.390 . S
C965 C966 1.357 . S
C966 C962 1.370 . S
C966 C965 1.357 . S
C966 H985 0.950 . S
Zn967 N961 2.020 . S
Zn967 O970 2.025 . S
Zn967 O975 2.024 . S
Zn967 O977 2.039 . S
Zn967 O979 2.034 . S
O968 C952 1.251 . S
O968 Zn959 2.039 . S
C969 O974 1.246 . S
C969 O975 1.249 . S
O970 C952 1.254 . S
O970 Zn967 2.025 . S
H971 C963 0.952 . S
H972 C954 0.952 . S
H973 C962 0.948 . S
O974 Zn959 2.034 . S
O974 C969 1.246 . S
O975 Zn967 2.024 . S
O975 C969 1.249 . S
H976 C958 0.948 . S
O977 Zn967 2.039 . S
O977 C981 1.251 . S
O978 Zn959 2.025 . S
O978 C981 1.254 . S
O979 C960 1.246 . S
O979 Zn967 2.034 . S
O980 Zn959 2.024 . S
O980 C960 1.249 . S
C981 O977 1.251 . S
C981 O978 1.254 . S
H982 C955 0.949 . S
H983 C957 0.950 . S
H984 C964 0.949 . S
H985 C966 0.950 . S
C986 O1002 1.251 . S
C986 O1004 1.254 . S
N987 C988 1.333 1_455 S
N987 C992 1.307 . S
N987 Zn993 2.020 1_556 S
C988 N987 1.333 1_655 S
C988 C989 1.379 . S
C988 H1006 0.944 1_556 S
C989 C988 1.379 . S
C989 C990 1.390 . S
C989 H1016 0.949 . S
C990 C989 1.390 . S
C990 C991 1.357 1_655 S
C991 C990 1.357 1_455 S
C991 C992 1.370 . S
C991 H1017 0.950 . S
C992 N987 1.307 . S
C992 C991 1.370 . S
C992 H1010 0.948 . S
Zn993 N987 2.020 1_554 S
Zn993 O1002 2.039 . S
Zn993 O1008 2.034 1_554 S
Zn993 O1012 2.025 1_554 S
Zn993 O1014 2.024 . S
C994 O1013 1.246 . S
C994 O1014 1.249 . S
N995 C996 1.307 . S
N995 C997 1.333 . S
N995 Zn1001 2.020 . S
C996 N995 1.307 . S
C996 C1000 1.370 . S
C996 H1007 0.948 . S
C997 N995 1.333 . S
C997 C998 1.379 . S
C997 H1005 0.952 . S
C998 C997 1.379 . S
C998 C999 1.390 . S
C998 H1018 0.949 . S
C999 C998 1.390 . S
C999 C1000 1.357 . S
C1000 C996 1.370 . S
C1000 C999 1.357 . S
C1000 H1019 0.950 . S
Zn1001 N995 2.020 . S
Zn1001 O1004 2.025 . S
Zn1001 O1009 2.024 . S
Zn1001 O1011 2.039 . S
Zn1001 O1013 2.034 . S
O1002 C986 1.251 . S
O1002 Zn993 2.039 . S
C1003 O1008 1.246 . S
C1003 O1009 1.249 1_556 S
O1004 C986 1.254 . S
O1004 Zn1001 2.025 . S
H1005 C997 0.952 . S
H1006 C988 0.944 1_554 S
H1007 C996 0.948 . S
O1008 Zn993 2.034 1_556 S
O1008 C1003 1.246 . S
O1009 Zn1001 2.024 . S
O1009 C1003 1.249 1_554 S
H1010 C992 0.948 . S
O1011 Zn1001 2.039 . S
O1011 C1015 1.251 1_554 S
O1012 Zn993 2.025 1_556 S
O1012 C1015 1.254 . S
O1013 C994 1.246 . S
O1013 Zn1001 2.034 . S
O1014 Zn993 2.024 . S
O1014 C994 1.249 . S
C1015 O1011 1.251 1_556 S
C1015 O1012 1.254 . S
H1016 C989 0.949 . S
H1017 C991 0.950 . S
H1018 C998 0.949 . S
H1019 C1000 0.950 . S
C1020 O1036 1.251 . S
C1020 O1038 1.254 . S
N1021 C1022 1.333 . S
N1021 C1026 1.307 . S
N1021 Zn1027 2.020 . S
C1022 N1021 1.333 . S
C1022 C1023 1.379 . S
C1022 H1040 0.952 . S
C1023 C1022 1.379 . S
C1023 C1024 1.390 1_455 S
C1023 H1050 0.949 . S
C1024 C1023 1.390 1_655 S
C1024 C1025 1.357 . S
C1025 C1024 1.357 . S
C1025 C1026 1.370 1_655 S
C1025 H1051 0.950 . S
C1026 N1021 1.307 . S
C1026 C1025 1.370 1_455 S
C1026 H1044 0.948 . S
Zn1027 N1021 2.020 . S
Zn1027 O1036 2.039 . S
Zn1027 O1042 2.034 . S
Zn1027 O1046 2.025 . S
Zn1027 O1048 2.024 . S
C1028 O1047 1.246 . S
C1028 O1048 1.249 . S
N1029 C1030 1.307 . S
N1029 C1031 1.333 . S
N1029 Zn1035 2.020 . S
C1030 N1029 1.307 . S
C1030 C1034 1.370 . S
C1030 H1041 0.948 . S
C1031 N1029 1.333 . S
C1031 C1032 1.379 . S
C1031 H1039 0.952 . S
C1032 C1031 1.379 . S
C1032 C1033 1.390 . S
C1032 H1052 0.949 . S
C1033 C1032 1.390 . S
C1033 C1034 1.357 . S
C1034 C1030 1.370 . S
C1034 C1033 1.357 . S
C1034 H1053 0.950 . S
Zn1035 N1029 2.020 . S
Zn1035 O1038 2.025 . S
Zn1035 O1043 2.024 . S
Zn1035 O1045 2.039 . S
Zn1035 O1047 2.034 . S
O1036 C1020 1.251 . S
O1036 Zn1027 2.039 . S
C1037 O1042 1.246 . S
C1037 O1043 1.249 . S
O1038 C1020 1.254 . S
O1038 Zn1035 2.025 . S
H1039 C1031 0.952 . S
H1040 C1022 0.952 . S
H1041 C1030 0.948 . S
O1042 Zn1027 2.034 . S
O1042 C1037 1.246 . S
O1043 Zn1035 2.024 . S
O1043 C1037 1.249 . S
H1044 C1026 0.948 . S
O1045 Zn1035 2.039 . S
O1045 C1049 1.251 . S
O1046 Zn1027 2.025 . S
O1046 C1049 1.254 . S
O1047 C1028 1.246 . S
O1047 Zn1035 2.034 . S
O1048 Zn1027 2.024 . S
O1048 C1028 1.249 . S
C1049 O1045 1.251 . S
C1049 O1046 1.254 . S
H1050 C1023 0.949 . S
H1051 C1025 0.950 . S
H1052 C1032 0.949 . S
H1053 C1034 0.950 . S
C1054 O1070 1.251 . S
C1054 O1072 1.254 . S
N1055 C1056 1.333 . S
N1055 C1060 1.307 . S
N1055 Zn1061 2.020 . S
C1056 N1055 1.333 . S
C1056 C1057 1.379 . S
C1056 H1074 0.952 . S
C1057 C1056 1.379 . S
C1057 C1058 1.390 . S
C1057 H1084 0.949 . S
C1058 C1057 1.390 . S
C1058 C1059 1.357 . S
C1059 C1058 1.357 . S
C1059 C1060 1.370 . S
C1059 H1085 0.950 . S
C1060 N1055 1.307 . S
C1060 C1059 1.370 . S
C1060 H1078 0.948 . S
Zn1061 N1055 2.020 . S
Zn1061 O1070 2.039 . S
Zn1061 O1076 2.034 . S
Zn1061 O1080 2.025 . S
Zn1061 O1082 2.024 . S
C1062 O1081 1.246 . S
C1062 O1082 1.249 . S
N1063 C1064 1.307 . S
N1063 C1065 1.333 . S
N1063 Zn1069 2.020 . S
C1064 N1063 1.307 . S
C1064 C1068 1.370 . S
C1064 H1075 0.948 . S
C1065 N1063 1.333 . S
C1065 C1066 1.379 . S
C1065 H1073 0.952 . S
C1066 C1065 1.379 . S
C1066 C1067 1.390 . S
C1066 H1086 0.949 . S
C1067 C1066 1.390 . S
C1067 C1068 1.357 . S
C1068 C1064 1.370 . S
C1068 C1067 1.357 . S
C1068 H1087 0.950 . S
Zn1069 N1063 2.020 . S
Zn1069 O1072 2.025 . S
Zn1069 O1077 2.024 . S
Zn1069 O1079 2.039 . S
Zn1069 O1081 2.034 . S
O1070 C1054 1.251 . S
O1070 Zn1061 2.039 . S
C1071 O1076 1.246 . S
C1071 O1077 1.249 . S
O1072 C1054 1.254 . S
O1072 Zn1069 2.025 . S
H1073 C1065 0.952 . S
H1074 C1056 0.952 . S
H1075 C1064 0.948 . S
O1076 Zn1061 2.034 . S
O1076 C1071 1.246 . S
O1077 Zn1069 2.024 . S
O1077 C1071 1.249 . S
H1078 C1060 0.948 . S
O1079 Zn1069 2.039 . S
O1079 C1083 1.251 . S
O1080 Zn1061 2.025 . S
O1080 C1083 1.254 . S
O1081 C1062 1.246 . S
O1081 Zn1069 2.034 . S
O1082 Zn1061 2.024 . S
O1082 C1062 1.249 . S
C1083 O1079 1.251 . S
C1083 O1080 1.254 . S
H1084 C1057 0.949 . S
H1085 C1059 0.950 . S
H1086 C1066 0.949 . S
H1087 C1068 0.950 . S
C29 C926 3.832 . S
C63 C280 3.832 1_455 S
C97 C858 3.832 . S
C348 C131 3.832 . S
C165 C994 3.832 . S
C484 C199 3.832 . S
C1062 C233 3.832 . S
C267 C416 3.832 1_455 S
C272 C663 3.832 . S
C306 C17 3.832 1_655 S
C595 C340 3.832 . S
C85 C374 3.832 . S
C408 C731 3.832 . S
C442 C221 3.832 . S
C476 C799 3.832 . S
C153 C510 3.832 1_455 S
C382 C573 3.832 . S
C824 C607 3.832 . S
C314 C641 3.832 . S
C675 C892 3.832 1_655 S
C450 C709 3.832 . S
C1028 C743 3.832 1_455 S
C518 C777 3.832 . S
C811 C960 3.832 . S
C816 C119 3.832 . S
C850 C561 3.832 . S
C884 C51 3.832 . S
C918 C629 3.832 1_455 S
C187 C952 3.832 . S
C765 C986 3.832 1_655 S
C1020 C255 3.832 . S
C1054 C697 3.832 . S
C13 C625 1.027 1_655 S
C659 C47 1.026 1_455 S
C81 C557 1.026 . S
C115 C591 1.026 . S
C761 C149 1.026 1_455 S
C183 C795 1.026 . S
C693 C217 1.026 . S
C251 C727 1.027 1_655 S
C888 C276 1.027 1_655 S
C310 C922 1.026 1_455 S
C344 C820 1.026 . S
C378 C854 1.026 . S
C1024 C412 1.026 1_655 S
C1058 C446 1.026 . S
C480 C956 1.026 . S
C514 C990 1.027 1_455 S
C8 C833 4.442 . S
C323 C42 4.441 1_645 S
C76 C901 4.442 . S
C110 C391 4.441 1_546 S
C969 C144 4.441 . S
C459 C178 4.442 1_545 S
C212 C1037 4.441 . S
C246 C527 4.442 1_444 S
C552 C289 4.442 . S
C620 C357 4.442 . S
C688 C425 4.441 . S
C493 C756 4.441 . S
C586 C867 4.441 1_556 S
C654 C935 4.441 1_655 S
C1003 C722 4.442 1_456 S
C1071 C790 4.442 . S
C4 C174 0.919 . S
C208 C38 0.919 . S
C242 C72 0.918 . S
C140 C106 0.919 . S
C285 C455 0.919 . S
C319 C489 0.919 . S
C523 C353 0.918 . S
C387 C421 0.919 . S
C548 C718 0.918 . S
C582 C752 0.919 . S
C616 C786 0.919 . S
C684 C650 0.919 . S
C829 C999 0.918 . S
C863 C1033 0.919 . S
C1067 C897 0.919 . S
C931 C965 0.919 . S
C0 C136 4.810 1_545 S
C34 C170 4.810 . S
C204 C68 4.810 1_545 S
C238 C102 4.810 1_554 S
C301 C437 4.810 1_565 S
C471 C335 4.810 . S
C505 C369 4.810 1_565 S
C539 C403 4.810 1_556 S
C544 C680 4.810 . S
C714 C578 4.810 1_554 S
C612 C748 4.810 . S
C782 C646 4.810 . S
C981 C845 4.810 . S
C879 C1015 4.810 1_554 S
C913 C1049 4.810 . S
C947 C1083 4.810 . S
