# Generated by pormake.
# Topology wmi, (6)-cn, num edge types: 1
# Building blocks:
#     Node 0, Type 0, BuildingBlock: LEVNOQ01_clean_sbu_1, # of connection points: 6
#     Node 1, Type 0, BuildingBlock: LEVNOQ01_clean_sbu_1, # of connection points: 6
#     Node 2, Type 0, BuildingBlock: LEVNOQ01_clean_sbu_1, # of connection points: 6
#     Node 3, Type 0, BuildingBlock: LEVNOQ01_clean_sbu_1, # of connection points: 6
#     Node 4, Type 0, BuildingBlock: LEVNOQ01_clean_sbu_1, # of connection points: 6
#     Node 5, Type 0, BuildingBlock: LEVNOQ01_clean_sbu_1, # of connection points: 6
#     Node 6, Type 0, BuildingBlock: LEVNOQ01_clean_sbu_1, # of connection points: 6
#     Node 7, Type 0, BuildingBlock: LEVNOQ01_clean_sbu_1, # of connection points: 6
#     Node 8, Type 0, BuildingBlock: LEVNOQ01_clean_sbu_1, # of connection points: 6
#     Node 9, Type 0, BuildingBlock: LEVNOQ01_clean_sbu_1, # of connection points: 6
#     Node 10, Type 0, BuildingBlock: LEVNOQ01_clean_sbu_1, # of connection points: 6
#     Node 11, Type 0, BuildingBlock: LEVNOQ01_clean_sbu_1, # of connection points: 6
#     Node 12, Type 0, BuildingBlock: LEVNOQ01_clean_sbu_1, # of connection points: 6
#     Node 13, Type 0, BuildingBlock: LEVNOQ01_clean_sbu_1, # of connection points: 6
#     Node 14, Type 0, BuildingBlock: LEVNOQ01_clean_sbu_1, # of connection points: 6
#     Node 15, Type 0, BuildingBlock: LEVNOQ01_clean_sbu_1, # of connection points: 6
#     Node 16, Type 0, BuildingBlock: LEVNOQ01_clean_sbu_1, # of connection points: 6
#     Node 17, Type 0, BuildingBlock: LEVNOQ01_clean_sbu_1, # of connection points: 6
#     Edge 18, Type (0, 0), BuildingBlock: AJUNOK_clean_linker_0, # of connection points: 2
#     Edge 19, Type (0, 0), BuildingBlock: AJUNOK_clean_linker_0, # of connection points: 2
#     Edge 20, Type (0, 0), BuildingBlock: AJUNOK_clean_linker_0, # of connection points: 2
#     Edge 21, Type (0, 0), BuildingBlock: AJUNOK_clean_linker_0, # of connection points: 2
#     Edge 22, Type (0, 0), BuildingBlock: AJUNOK_clean_linker_0, # of connection points: 2
#     Edge 23, Type (0, 0), BuildingBlock: AJUNOK_clean_linker_0, # of connection points: 2
#     Edge 24, Type (0, 0), BuildingBlock: AJUNOK_clean_linker_0, # of connection points: 2
#     Edge 25, Type (0, 0), BuildingBlock: AJUNOK_clean_linker_0, # of connection points: 2
#     Edge 26, Type (0, 0), BuildingBlock: AJUNOK_clean_linker_0, # of connection points: 2
#     Edge 27, Type (0, 0), BuildingBlock: AJUNOK_clean_linker_0, # of connection points: 2
#     Edge 28, Type (0, 0), BuildingBlock: AJUNOK_clean_linker_0, # of connection points: 2
#     Edge 29, Type (0, 0), BuildingBlock: AJUNOK_clean_linker_0, # of connection points: 2
#     Edge 30, Type (0, 0), BuildingBlock: AJUNOK_clean_linker_0, # of connection points: 2
#     Edge 31, Type (0, 0), BuildingBlock: AJUNOK_clean_linker_0, # of connection points: 2
#     Edge 32, Type (0, 0), BuildingBlock: AJUNOK_clean_linker_0, # of connection points: 2
#     Edge 33, Type (0, 0), BuildingBlock: AJUNOK_clean_linker_0, # of connection points: 2
#     Edge 34, Type (0, 0), BuildingBlock: AJUNOK_clean_linker_0, # of connection points: 2
#     Edge 35, Type (0, 0), BuildingBlock: AJUNOK_clean_linker_0, # of connection points: 2
#     Edge 36, Type (0, 0), BuildingBlock: AJUNOK_clean_linker_0, # of connection points: 2
#     Edge 37, Type (0, 0), BuildingBlock: AJUNOK_clean_linker_0, # of connection points: 2
#     Edge 38, Type (0, 0), BuildingBlock: AJUNOK_clean_linker_0, # of connection points: 2
#     Edge 39, Type (0, 0), BuildingBlock: AJUNOK_clean_linker_0, # of connection points: 2
#     Edge 40, Type (0, 0), BuildingBlock: AJUNOK_clean_linker_0, # of connection points: 2
#     Edge 41, Type (0, 0), BuildingBlock: AJUNOK_clean_linker_0, # of connection points: 2
#     Edge 42, Type (0, 0), BuildingBlock: AJUNOK_clean_linker_0, # of connection points: 2
#     Edge 43, Type (0, 0), BuildingBlock: AJUNOK_clean_linker_0, # of connection points: 2
#     Edge 44, Type (0, 0), BuildingBlock: AJUNOK_clean_linker_0, # of connection points: 2
#     Edge 45, Type (0, 0), BuildingBlock: AJUNOK_clean_linker_0, # of connection points: 2
#     Edge 46, Type (0, 0), BuildingBlock: AJUNOK_clean_linker_0, # of connection points: 2
#     Edge 47, Type (0, 0), BuildingBlock: AJUNOK_clean_linker_0, # of connection points: 2
#     Edge 48, Type (0, 0), BuildingBlock: AJUNOK_clean_linker_0, # of connection points: 2
#     Edge 49, Type (0, 0), BuildingBlock: AJUNOK_clean_linker_0, # of connection points: 2
#     Edge 50, Type (0, 0), BuildingBlock: AJUNOK_clean_linker_0, # of connection points: 2
#     Edge 51, Type (0, 0), BuildingBlock: AJUNOK_clean_linker_0, # of connection points: 2
#     Edge 52, Type (0, 0), BuildingBlock: AJUNOK_clean_linker_0, # of connection points: 2
#     Edge 53, Type (0, 0), BuildingBlock: AJUNOK_clean_linker_0, # of connection points: 2
#     Edge 54, Type (0, 0), BuildingBlock: AJUNOK_clean_linker_0, # of connection points: 2
#     Edge 55, Type (0, 0), BuildingBlock: AJUNOK_clean_linker_0, # of connection points: 2
#     Edge 56, Type (0, 0), BuildingBlock: AJUNOK_clean_linker_0, # of connection points: 2
#     Edge 57, Type (0, 0), BuildingBlock: AJUNOK_clean_linker_0, # of connection points: 2
#     Edge 58, Type (0, 0), BuildingBlock: AJUNOK_clean_linker_0, # of connection points: 2
#     Edge 59, Type (0, 0), BuildingBlock: AJUNOK_clean_linker_0, # of connection points: 2
#     Edge 60, Type (0, 0), BuildingBlock: AJUNOK_clean_linker_0, # of connection points: 2
#     Edge 61, Type (0, 0), BuildingBlock: AJUNOK_clean_linker_0, # of connection points: 2
#     Edge 62, Type (0, 0), BuildingBlock: AJUNOK_clean_linker_0, # of connection points: 2
#     Edge 63, Type (0, 0), BuildingBlock: AJUNOK_clean_linker_0, # of connection points: 2
#     Edge 64, Type (0, 0), BuildingBlock: AJUNOK_clean_linker_0, # of connection points: 2
#     Edge 65, Type (0, 0), BuildingBlock: AJUNOK_clean_linker_0, # of connection points: 2
#     Edge 66, Type (0, 0), BuildingBlock: AJUNOK_clean_linker_0, # of connection points: 2
#     Edge 67, Type (0, 0), BuildingBlock: AJUNOK_clean_linker_0, # of connection points: 2
#     Edge 68, Type (0, 0), BuildingBlock: AJUNOK_clean_linker_0, # of connection points: 2
#     Edge 69, Type (0, 0), BuildingBlock: AJUNOK_clean_linker_0, # of connection points: 2
#     Edge 70, Type (0, 0), BuildingBlock: AJUNOK_clean_linker_0, # of connection points: 2
#     Edge 71, Type (0, 0), BuildingBlock: AJUNOK_clean_linker_0, # of connection points: 2
# Relax obj value: 0.140
# Max RMSD: 0.183
# Mean RMSD: 0.183
data_MOF--net-wmi--node1-LEVNOQ01_clean_sbu_1--edge1-AJUNOK_clean_linker_0
_symmetry_space_group_name_H-M    P1
_symmetry_Int_Tables_number       1
_symmetry_cell_setting            triclinic
loop_
_symmetry_equiv_pos_as_xyz
'x, y, z'
_cell_length_a     23.611956
_cell_length_b     23.578299
_cell_length_c     66.955883
_cell_angle_alpha  89.81455
_cell_angle_beta   90.112991
_cell_angle_gamma 119.86359
loop_
_atom_site_label
_atom_site_type_symbol
_atom_site_fract_x
_atom_site_fract_y
_atom_site_fract_z
_atom_type_partial_charge
O0 O 0.30284 0.89953 0.0582 0.0
Mg1 Mg 0.40079 0.91869 0.05713 0.0
O2 O 0.34714 0.90008 0.08654 0.0
Mg3 Mg 0.45252 -0.00869 0.08233 0.0
O4 O 0.47534 0.00338 0.04621 0.0
O5 O 0.41075 0.91194 0.02865 0.0
O6 O 0.55781 0.07976 0.07973 0.0
O7 O 0.4133 0.06284 0.07916 0.0
Mg8 Mg 0.50977 0.06399 0.11454 0.0
O9 O 0.42566 -0.0228 0.11719 0.0
O10 O 0.59851 0.06611 0.1072 0.0
O11 O 0.48745 0.1326 0.10043 0.0
O12 O 0.47809 0.03951 0.14351 0.0
C13 C 0.47578 0.87049 0.079 0.0
C14 C 0.29649 0.87788 0.07568 0.0
C15 C 0.45985 0.9702 0.02956 0.0
C16 C 0.60757 0.09005 0.08985 0.0
C17 C 0.44348 0.11916 0.08731 0.0
C18 C 0.42849 -0.01219 0.13639 0.0
O19 O 0.42652 0.8487 0.06765 0.0
O20 O 0.49958 0.92736 0.08623 0.0
O21 O 0.12043 0.44813 0.06273 0.0
Mg22 Mg 0.07382 0.50008 0.05868 0.0
O23 O 0.06609 0.42776 0.09054 0.0
Mg24 Mg -0.01492 0.45863 0.08412 0.0
O25 O -0.01762 0.46201 0.04763 0.0
O26 O 0.07541 0.50212 0.02958 0.0
O27 O 0.90372 0.48698 0.07826 0.0
O28 O 0.90544 0.34996 0.08144 0.0
Mg29 Mg 0.89648 0.44593 0.11703 0.0
O30 O -0.01607 0.44928 0.11889 0.0
O31 O 0.89635 0.53082 0.10606 0.0
O32 O 0.83423 0.35517 0.1022 0.0
O33 O 0.92695 0.44385 0.14594 0.0
C34 C 0.10307 0.61443 0.07905 0.0
C35 C 0.10933 0.4246 0.08 0.0
C36 C 0.01346 0.47858 0.03058 0.0
C37 C 0.88611 0.52283 0.08748 0.0
C38 C 0.84873 0.32467 0.08934 0.0
C39 C -0.02251 0.44503 0.13819 0.0
O40 O 0.12303 0.59851 0.06391 0.0
O41 O 0.05642 0.57104 0.08937 0.0
O42 O 0.54351 0.66753 0.05702 0.0
Mg43 Mg 0.46731 0.57284 0.0613 0.0
O44 O 0.53773 0.63444 0.08746 0.0
Mg45 Mg 0.51097 0.52192 0.08118 0.0
O46 O 0.48694 0.51113 0.04548 0.0
O47 O 0.42376 0.55262 0.03497 0.0
O48 O 0.48563 0.41188 0.0783 0.0
O49 O 0.62165 0.55338 0.07475 0.0
Mg50 Mg 0.55634 0.46509 0.11937 0.0
O51 O 0.52975 0.53088 0.11407 0.0
O52 O 0.47726 0.37625 0.10952 0.0
O53 O 0.6398 0.50301 0.10046 0.0
O54 O 0.55378 0.51663 0.14468 0.0
C55 C 0.36581 0.49997 0.08901 0.0
C56 C 0.5536 0.68152 0.07517 0.0
C57 C 0.45436 0.52147 0.03146 0.0
C58 C 0.46634 0.36509 0.09097 0.0
C59 C 0.658 0.53592 0.08426 0.0
C60 C 0.53943 0.5496 0.13237 0.0
O61 O 0.3865 0.55376 0.08007 0.0
O62 O 0.40185 0.47455 0.08945 0.0
O63 O 0.87071 0.3134 0.91934 0.0
Mg64 Mg 0.88827 0.40992 0.91919 0.0
O65 O 0.89806 0.35811 0.89032 0.0
Mg66 Mg -0.0228 0.46794 0.89876 0.0
O67 O -0.03132 0.47204 0.93548 0.0
O68 O 0.86486 0.41695 0.9468 0.0
O69 O 0.05114 0.57579 0.90335 0.0
O70 O 0.06551 0.44344 0.90534 0.0
Mg71 Mg 0.05993 0.48505 0.87121 0.0
O72 O -0.03142 0.45596 0.86279 0.0
O73 O 0.12753 0.57764 0.88447 0.0
O74 O 0.06332 0.39871 0.87728 0.0
O75 O 0.05186 0.49207 0.84126 0.0
C76 C 0.85224 0.4895 0.89692 0.0
C77 C 0.86701 0.30662 0.90077 0.0
C78 C 0.92608 0.45371 0.95007 0.0
C79 C 0.10917 0.60526 0.89701 0.0
C80 C 0.08871 0.41579 0.89422 0.0
C81 C -0.01026 0.46113 0.84449 0.0
O82 O 0.82272 0.43629 0.9063 0.0
O83 O 0.91188 0.51279 0.89306 0.0
O84 O 0.63114 0.48981 0.91526 0.0
Mg85 Mg 0.53371 0.45594 0.92179 0.0
O86 O 0.62428 0.5643 0.89779 0.0
Mg87 Mg 0.51027 0.5167 0.89778 0.0
O88 O 0.4945 0.50751 0.9339 0.0
O89 O 0.53999 0.45761 0.95105 0.0
O90 O 0.39603 0.47387 0.89691 0.0
O91 O 0.52688 0.622 0.90661 0.0
Mg92 Mg 0.50046 0.58726 0.87065 0.0
O93 O 0.53519 0.52829 0.86236 0.0
O94 O 0.40299 0.55541 0.87938 0.0
O95 O 0.57514 0.67861 0.88015 0.0
O96 O 0.50592 0.58147 0.84067 0.0
C97 C 0.45994 0.35548 0.89852 0.0
C98 C 0.65847 0.54184 0.90527 0.0
C99 C 0.50764 0.48806 0.95068 0.0
C100 C 0.36875 0.50406 0.88948 0.0
C101 C 0.55918 0.67756 0.89808 0.0
C102 C 0.53462 0.54811 0.84414 0.0
O103 O 0.46593 0.35984 0.91711 0.0
O104 O 0.48443 0.40778 0.8881 0.0
O105 O 0.45492 0.14201 0.91897 0.0
Mg106 Mg 0.4993 0.10222 0.93589 0.0
O107 O 0.4208 0.06666 0.89553 0.0
Mg108 Mg 0.45694 -0.00747 0.90055 0.0
O109 O 0.48069 0.00668 0.93431 0.0
O110 O 0.4117 0.02857 0.94892 0.0
O111 O 0.49196 0.91673 0.90293 0.0
O112 O 0.35193 0.90718 0.90753 0.0
Mg113 Mg 0.39997 0.88615 0.86256 0.0
O114 O 0.43876 -0.01879 0.86766 0.0
O115 O 0.46356 0.8559 0.87528 0.0
O116 O 0.3126 0.85139 0.87913 0.0
O117 O 0.41295 0.94433 0.83705 0.0
C118 C 0.60391 0.11983 0.90403 0.0
C119 C 0.42428 0.11769 0.90301 0.0
C120 C 0.44554 0.00027 0.94961 0.0
C121 C 0.49133 0.87168 0.89227 0.0
C122 C 0.30577 0.86164 0.89739 0.0
C123 C 0.42963 -0.00816 0.8494 0.0
O124 O 0.59022 0.13659 0.9206 0.0
O125 O 0.56191 0.07162 0.89385 0.0
O126 O -0.03139 0.23679 0.39814 0.0
Mg127 Mg 0.06134 0.2435 0.39803 0.0
O128 O 0.01016 0.24028 0.42694 0.0
Mg129 Mg 0.12174 0.32571 0.41786 0.0
O130 O 0.12601 0.32004 0.38123 0.0
O131 O 0.07041 0.21563 0.37086 0.0
O132 O 0.23143 0.40793 0.41251 0.0
O133 O 0.09387 0.40789 0.41556 0.0
Mg134 Mg 0.19585 0.42019 0.4558 0.0
O135 O 0.11955 0.33183 0.45127 0.0
O136 O 0.2784 0.4219 0.44211 0.0
O137 O 0.16061 0.47495 0.43944 0.0
O138 O 0.14472 0.3673 0.48193 0.0
C139 C 0.13148 0.19654 0.4207 0.0
C140 C 0.95944 0.21726 0.41593 0.0
C141 C 0.10782 0.27656 0.36702 0.0
C142 C 0.28281 0.42809 0.42322 0.0
C143 C 0.12033 0.46239 0.4251 0.0
C144 C 0.10378 0.32369 0.46988 0.0
O145 O 0.07393 0.17215 0.41432 0.0
O146 O 0.16573 0.258 0.42149 0.0
O147 O 0.72829 0.73609 0.39755 0.0
Mg148 Mg 0.71719 0.82062 0.39692 0.0
O149 O 0.7274 0.77785 0.4258 0.0
Mg150 Mg 0.64318 0.80225 0.41673 0.0
O151 O 0.64565 0.81965 0.38029 0.0
O152 O 0.74837 0.85522 0.36968 0.0
O153 O 0.55601 0.82528 0.41399 0.0
O154 O 0.57101 0.68892 0.40876 0.0
Mg155 Mg 0.56043 0.74567 0.44739 0.0
O156 O 0.65711 0.78868 0.45114 0.0
O157 O 0.51951 0.80272 0.4446 0.0
O158 O 0.51053 0.65219 0.43586 0.0
O159 O 0.58446 0.74491 0.47591 0.0
C160 C 0.76916 0.94048 0.42007 0.0
C161 C 0.74755 0.74681 0.41537 0.0
C162 C 0.68954 0.84151 0.36616 0.0
C163 C 0.51896 0.82584 0.42775 0.0
C164 C 0.52438 0.64235 0.41853 0.0
C165 C 0.64427 0.77337 0.46991 0.0
O166 O 0.78797 0.90502 0.41193 0.0
O167 O 0.70852 0.91542 0.42327 0.0
O168 O 0.13289 0.96524 0.38736 0.0
Mg169 Mg 0.09224 0.87083 0.37362 0.0
O170 O 0.19944 0.96107 0.4103 0.0
Mg171 Mg 0.16556 0.85252 0.41453 0.0
O172 O 0.15402 0.83349 0.38029 0.0
O173 O 0.15492 0.83291 0.3801 0.0
O174 O 0.1255 0.7425 0.4184 0.0
O175 O 0.27185 0.86696 0.40874 0.0
Mg176 Mg 0.23862 0.85058 0.44548 0.0
O177 O 0.17714 0.88465 0.44869 0.0
O178 O 0.20849 0.75167 0.43581 0.0
O179 O 0.31867 0.93489 0.43258 0.0
O180 O 0.22227 0.86214 0.47475 0.0
C181 C 0.00725 0.80716 0.40894 0.0
C182 C 0.17621 -0.00805 0.40087 0.0
C183 C 0.17788 0.81491 0.36624 0.0
C184 C 0.15707 0.71703 0.42573 0.0
C185 C 0.32444 0.90604 0.41774 0.0
C186 C 0.19246 0.89107 0.46759 0.0
O187 O 0.00821 0.81103 0.39002 0.0
O188 O 0.05919 0.82919 0.41933 0.0
O189 O 0.52764 0.65254 0.25736 0.0
Mg190 Mg 0.5567 0.75236 0.25725 0.0
O191 O 0.5505 0.69343 0.2275 0.0
Mg192 Mg 0.64247 0.79876 0.23177 0.0
O193 O 0.64818 0.81424 0.26773 0.0
O194 O 0.55435 0.77536 0.28537 0.0
O195 O 0.73324 0.90582 0.23531 0.0
O196 O 0.71117 0.75515 0.23616 0.0
Mg197 Mg 0.71605 0.85193 0.20182 0.0
O198 O 0.62813 0.7724 0.19682 0.0
O199 O 0.71839 0.94102 0.20705 0.0
O200 O 0.7844 0.82932 0.21581 0.0
O201 O 0.70005 0.82626 0.17249 0.0
C202 C 0.52532 0.83306 0.23194 0.0
C203 C 0.51843 0.64437 0.23888 0.0
C204 C 0.61695 0.8084 0.2844 0.0
C205 C 0.74246 0.95385 0.22433 0.0
C206 C 0.7685 0.78412 0.22866 0.0
C207 C 0.6441 0.7787 0.178 0.0
O208 O 0.49804 0.78646 0.24418 0.0
O209 O 0.58283 0.8513 0.22608 0.0
O210 O 0.32595 0.8666 0.26143 0.0
Mg211 Mg 0.23706 0.81866 0.27555 0.0
O212 O 0.28345 0.88219 0.23409 0.0
Mg213 Mg 0.17166 0.84963 0.23699 0.0
O214 O 0.15613 0.82838 0.2704 0.0
O215 O 0.24074 0.90779 0.28406 0.0
O216 O 0.05802 0.81568 0.23866 0.0
O217 O 0.1986 0.95749 0.24328 0.0
Mg218 Mg 0.11378 0.89014 0.20214 0.0
O219 O 0.18904 0.87262 0.20398 0.0
O220 O 0.02264 0.80734 0.20779 0.0
O221 O 0.14363 -0.02434 0.21935 0.0
O222 O 0.15968 0.89867 0.17544 0.0
C223 C 0.15734 0.70615 0.2428 0.0
C224 C 0.33235 0.88744 0.24379 0.0
C225 C 0.17903 0.87172 0.28405 0.0
C226 C 0.01077 0.79609 0.22621 0.0
C227 C 0.17979 -0.00612 0.23479 0.0
C228 C 0.19916 0.8857 0.18517 0.0
O229 O 0.18928 0.72843 0.25903 0.0
O230 O 0.1449 0.74212 0.23138 0.0
O231 O 0.03579 0.39692 0.24986 0.0
Mg232 Mg 0.12729 0.40333 0.2559 0.0
O233 O 0.09451 0.41085 0.22398 0.0
Mg234 Mg 0.11689 0.32425 0.23271 0.0
O235 O 0.12212 0.32436 0.26907 0.0
O236 O 0.14909 0.41908 0.28489 0.0
O237 O 0.14314 0.24171 0.23847 0.0
O238 O 0.00833 0.24649 0.23416 0.0
Mg239 Mg 0.09973 0.23085 0.19595 0.0
O240 O 0.11184 0.32019 0.199 0.0
O241 O 0.18099 0.23096 0.20956 0.0
O242 O 0.00709 0.17669 0.21117 0.0
O243 O 0.10426 0.28024 0.16901 0.0
C244 C 0.24991 0.45384 0.2335 0.0
C245 C 0.05869 0.42716 0.23371 0.0
C246 C 0.13787 0.3598 0.28526 0.0
C247 C 0.17633 0.22273 0.22833 0.0
C248 C -0.02051 0.19189 0.22491 0.0
C249 C 0.10617 0.32572 0.18006 0.0
O250 O 0.21522 0.47416 0.24171 0.0
O251 O 0.22588 0.39349 0.2302 0.0
O252 O 0.63284 0.56481 0.73241 0.0
Mg253 Mg 0.72473 0.57172 0.72768 0.0
O254 O 0.68721 0.57394 0.75935 0.0
Mg255 Mg 0.7915 0.66088 0.74986 0.0
O256 O 0.79537 0.65337 0.71388 0.0
O257 O 0.73338 0.55524 0.69922 0.0
O258 O 0.89722 0.747 0.74418 0.0
O259 O 0.75576 0.73693 0.7476 0.0
Mg260 Mg 0.86065 0.75817 0.78805 0.0
O261 O 0.78994 0.66738 0.7831 0.0
O262 O 0.94634 0.76889 0.77368 0.0
O263 O 0.81635 0.80565 0.77215 0.0
O264 O 0.81086 0.70088 0.81393 0.0
C265 C 0.80609 0.53508 0.75155 0.0
C266 C 0.63249 0.55064 0.75056 0.0
C267 C 0.77896 0.61549 0.69819 0.0
C268 C 0.94907 0.77287 0.75473 0.0
C269 C 0.7762 0.79007 0.75759 0.0
C270 C 0.77231 0.65698 0.80153 0.0
O271 O 0.75045 0.50834 0.74335 0.0
O272 O 0.83739 0.59641 0.7538 0.0
O273 O 0.47227 0.16593 0.72679 0.0
Mg274 Mg 0.4208 0.19884 0.71116 0.0
O275 O 0.39747 0.09947 0.74845 0.0
Mg276 Mg 0.32368 0.1377 0.74973 0.0
O277 O 0.32191 0.15955 0.71566 0.0
O278 O 0.3595 0.10656 0.69885 0.0
O279 O 0.25423 0.18059 0.75096 0.0
O280 O 0.23479 0.0326 0.74103 0.0
Mg281 Mg 0.23411 0.06782 0.77917 0.0
O282 O 0.33148 0.12001 0.78509 0.0
O283 O 0.17564 0.10769 0.76988 0.0
O284 O 0.20821 0.97502 0.76853 0.0
O285 O 0.25351 0.07773 0.80864 0.0
C286 C 0.44268 0.29087 0.74577 0.0
C287 C 0.45316 0.12261 0.74015 0.0
C288 C 0.31489 0.1212 0.70108 0.0
C289 C 0.19762 0.15677 0.75843 0.0
C290 C 0.20307 -0.02259 0.74987 0.0
C291 C 0.3144 0.10454 0.80382 0.0
O292 O 0.44748 0.28652 0.727 0.0
O293 O 0.40671 0.24156 0.75665 0.0
O294 O 0.84248 0.33397 0.72672 0.0
Mg295 Mg 0.80916 0.2488 0.71065 0.0
O296 O 0.87627 0.30024 0.75257 0.0
Mg297 Mg 0.84635 0.19029 0.75036 0.0
O298 O 0.83166 0.17634 0.7164 0.0
O299 O 0.90707 0.2708 0.70514 0.0
O300 O 0.81222 0.07758 0.74993 0.0
O301 O 0.95282 0.21427 0.74696 0.0
Mg302 Mg 0.87793 0.13452 0.79114 0.0
O303 O 0.85821 0.20464 0.78363 0.0
O304 O 0.79853 0.04404 0.7814 0.0
O305 O -0.0337 0.16729 0.77434 0.0
O306 O 0.87433 0.19121 0.81511 0.0
C307 C 0.70024 0.16225 0.74194 0.0
C308 C 0.87062 0.34453 0.74342 0.0
C309 C 0.87101 0.20967 0.70236 0.0
C310 C 0.7899 0.03138 0.76285 0.0
C311 C -0.01277 0.19863 0.75794 0.0
C312 C 0.86621 0.22578 0.80171 0.0
O313 O 0.7162 0.18993 0.72489 0.0
O314 O 0.7413 0.16202 0.7541 0.0
O315 O 0.22012 -0.00365 0.59358 0.0
Mg316 Mg 0.23509 0.09086 0.58884 0.0
O317 O 0.23426 0.02767 0.56283 0.0
Mg318 Mg 0.31995 0.13999 0.56803 0.0
O319 O 0.31466 0.15416 0.60454 0.0
O320 O 0.21109 0.11756 0.61424 0.0
O321 O 0.40097 0.2484 0.57046 0.0
O322 O 0.40122 0.1095 0.57519 0.0
Mg323 Mg 0.41924 0.17105 0.5344 0.0
O324 O 0.32078 0.12536 0.5333 0.0
O325 O 0.47064 0.26774 0.54585 0.0
O326 O 0.44125 0.10198 0.54619 0.0
O327 O 0.38307 0.15362 0.50602 0.0
C328 C 0.19297 0.15253 0.56081 0.0
C329 C 0.2054 -0.01815 0.57556 0.0
C330 C 0.27225 0.14669 0.61833 0.0
C331 C 0.45299 0.28673 0.56109 0.0
C332 C 0.43892 0.09586 0.56497 0.0
C333 C 0.32592 0.12085 0.51404 0.0
O334 O 0.167 0.09861 0.56983 0.0
O335 O 0.25452 0.1855 0.56028 0.0
O336 O -0.03549 0.15251 0.5816 0.0
Mg337 Mg 0.87323 0.13037 0.59153 0.0
O338 O 0.96073 0.22966 0.56493 0.0
Mg339 Mg 0.84599 0.18057 0.56792 0.0
O340 O 0.83448 0.18044 0.60422 0.0
O341 O 0.89456 0.1439 0.62 0.0
O342 O 0.7324 0.13131 0.56932 0.0
O343 O 0.85624 0.28595 0.57525 0.0
Mg344 Mg 0.83278 0.24062 0.54244 0.0
O345 O 0.86533 0.18325 0.53173 0.0
O346 O 0.73489 0.21177 0.55266 0.0
O347 O 0.91505 0.33305 0.54977 0.0
O348 O 0.83439 0.24067 0.51232 0.0
C349 C 0.79655 0.02253 0.57277 0.0
C350 C -0.00793 0.20137 0.57033 0.0
C351 C 0.85483 0.16611 0.62055 0.0
C352 C 0.70342 0.16126 0.56334 0.0
C353 C 0.8907 0.33882 0.56567 0.0
C354 C 0.8652 0.20873 0.51434 0.0
O355 O 0.80394 0.0335 0.59114 0.0
O356 O 0.82185 0.07083 0.56069 0.0
O357 O 0.71438 0.7305 0.58374 0.0
Mg358 Mg 0.80257 0.72723 0.58715 0.0
O359 O 0.77614 0.75188 0.55798 0.0
Mg360 Mg 0.79941 0.66549 0.56542 0.0
O361 O 0.81435 0.66083 0.60216 0.0
O362 O 0.81525 0.74784 0.61579 0.0
O363 O 0.82399 0.58045 0.56661 0.0
O364 O 0.69017 0.58637 0.57087 0.0
Mg365 Mg 0.72809 0.5707 0.5276 0.0
O366 O 0.7847 0.66586 0.53136 0.0
O367 O 0.77627 0.52477 0.5392 0.0
O368 O 0.63966 0.54874 0.542 0.0
O369 O 0.75515 0.62274 0.50113 0.0
C370 C 0.9302 0.79617 0.56759 0.0
C371 C 0.73623 0.76206 0.56773 0.0
C372 C 0.82177 0.69731 0.61765 0.0
C373 C 0.80932 0.53245 0.55488 0.0
C374 C 0.63821 0.55047 0.56091 0.0
C375 C 0.77717 0.6734 0.5125 0.0
O376 O 0.89178 0.80892 0.57716 0.0
O377 O 0.90852 0.73849 0.56113 0.0
C378 C 0.48896 0.78407 0.09604 0.0
C379 C 0.50982 0.83336 0.08151 0.0
C380 C 0.51205 0.73956 0.096 0.0
C381 C 0.55559 0.74259 0.08113 0.0
H382 H 0.45148 0.77731 0.10664 0.0
H383 H 0.49017 0.69858 0.10628 0.0
S384 S 0.63097 0.86868 0.04144 0.0
N385 N 0.58142 0.88767 0.05333 0.0
N386 N 0.62488 0.80409 0.05315 0.0
C387 C 0.58146 0.79586 0.06776 0.0
C388 C 0.558 0.84097 0.06783 0.0
C389 C 0.25409 0.7668 0.08924 0.0
C390 C 0.24108 0.81333 0.08038 0.0
C391 C 0.20472 0.70232 0.09178 0.0
C392 C 0.14104 0.68209 0.08535 0.0
H393 H 0.30346 0.77934 0.09325 0.0
H394 H 0.21778 0.6667 0.09696 0.0
S395 S 0.07934 0.78695 0.06467 0.0
N396 N 0.15852 0.83711 0.06776 0.0
N397 N 0.06502 0.71411 0.07222 0.0
C398 C 0.12599 0.72886 0.07803 0.0
C399 C 0.17647 0.79498 0.07542 0.0
C400 C 0.19525 0.45125 0.10497 0.0
C401 C 0.15969 0.41266 0.08861 0.0
C402 C 0.26277 0.47521 0.1065 0.0
C403 C 0.29526 0.45878 0.0921 0.0
H404 H 0.17315 0.47109 0.11474 0.0
H405 H 0.29041 0.51125 0.11784 0.0
S406 S 0.221 0.34837 0.04889 0.0
N407 N 0.15942 0.35049 0.05978 0.0
N408 N 0.28567 0.39404 0.06284 0.0
C409 C 0.25832 0.41244 0.07748 0.0
C410 C 0.19014 0.38883 0.07584 0.0
C411 C 0.78819 0.5323 0.87959 0.0
C412 C 0.82347 0.5317 0.89632 0.0
C413 C 0.74128 0.55177 0.88156 0.0
C414 C 0.72733 0.56822 0.90034 0.0
H415 H 0.79182 0.51135 0.8656 0.0
H416 H 0.70932 0.54399 0.86915 0.0
S417 S 0.82082 0.59277 0.94696 0.0
N418 N 0.85371 0.56467 0.93082 0.0
N419 N 0.76335 0.59859 0.93455 0.0
C420 C 0.77028 0.5786 0.91615 0.0
C421 C 0.81859 0.55996 0.91416 0.0
C422 C 0.36367 0.17568 0.89969 0.0
C423 C 0.40849 0.16012 0.89126 0.0
C424 C 0.37529 0.23986 0.89902 0.0
C425 C 0.43196 0.28986 0.8899 0.0
H426 H 0.32541 0.14093 0.90944 0.0
H427 H 0.34467 0.25201 0.908 0.0
S428 S 0.55585 0.26982 0.86199 0.0
N429 N 0.50383 0.19569 0.87025 0.0
N430 N 0.52681 0.31722 0.86938 0.0
C431 C 0.4712 0.27262 0.87873 0.0
C432 C 0.45872 0.20692 0.8792 0.0
C433 C 0.68949 0.2272 0.89266 0.0
C434 C 0.66956 0.16137 0.89615 0.0
C435 C 0.75552 0.27344 0.89122 0.0
C436 C 0.80371 0.25551 0.89348 0.0
H437 H 0.65411 0.24379 0.89263 0.0
H438 H 0.76892 0.3244 0.89019 0.0
S439 S 0.77574 0.08764 0.89966 0.0
N440 N 0.70158 0.0784 0.89905 0.0
N441 N 0.82715 0.16689 0.89708 0.0
C442 C 0.78426 0.1891 0.89522 0.0
C443 C 0.71654 0.14145 0.89631 0.0
C444 C 0.21046 0.10971 0.39789 0.0
C445 C 0.18455 0.05262 0.40948 0.0
C446 C 0.20028 0.16127 0.40335 0.0
C447 C 0.16237 0.15603 0.42019 0.0
H448 H 0.23444 0.11252 0.38385 0.0
H449 H 0.21639 0.20245 0.39324 0.0
S450 S 0.09018 0.01953 0.45646 0.0
N451 N 0.12502 -0.00379 0.43949 0.0
N452 N 0.10497 0.09294 0.44946 0.0
C453 C 0.14073 0.10153 0.43269 0.0
C454 C 0.15198 0.04961 0.42736 0.0
C455 C 0.91513 0.10251 0.40676 0.0
C456 C 0.9094 0.14804 0.41874 0.0
C457 C 0.87027 0.03614 0.40797 0.0
C458 C 0.81646 0.0116 0.42104 0.0
H459 H 0.95477 0.11838 0.39612 0.0
H460 H 0.8774 0.00405 0.39802 0.0
S461 S 0.77966 0.11061 0.45598 0.0
N462 N 0.84695 0.16481 0.4444 0.0
N463 N 0.76054 0.03843 0.44658 0.0
C464 C 0.80989 0.05641 0.43327 0.0
C465 C 0.85693 0.12498 0.43218 0.0
C466 C 0.92902 0.84204 0.41398 0.0
C467 C 0.94696 0.79524 0.41821 0.0
C468 C 0.86397 0.82488 0.41372 0.0
C469 C 0.81461 0.76189 0.41905 0.0
H470 H -0.03529 0.88998 0.40837 0.0
H471 H 0.85274 0.85993 0.40745 0.0
S472 S 0.83839 0.62505 0.43512 0.0
N473 N 0.9128 0.68504 0.42981 0.0
N474 N 0.78853 0.65431 0.43113 0.0
C475 C 0.83229 0.71615 0.42536 0.0
C476 C 0.89932 0.73286 0.42476 0.0
C477 C 0.39213 0.86545 0.21761 0.0
C478 C 0.39428 0.90374 0.23397 0.0
C479 C 0.44142 0.84937 0.21491 0.0
C480 C 0.49431 0.87248 0.22822 0.0
H481 H 0.34807 0.84001 0.20873 0.0
H482 H 0.43431 0.81294 0.20385 0.0
S483 S 0.52905 -0.01425 0.27049 0.0
N484 N 0.45904 0.97382 0.26125 0.0
N485 N 0.55149 0.94366 0.25609 0.0
C486 C 0.50174 0.91861 0.24262 0.0
C487 C 0.45178 0.93476 0.24542 0.0
C488 C 0.14363 0.59902 0.25297 0.0
C489 C 0.1323 0.6356 0.23848 0.0
C490 C 0.11833 0.53217 0.25105 0.0
C491 C 0.08126 0.49782 0.23436 0.0
H492 H 0.17165 0.62165 0.26634 0.0
H493 H 0.12846 0.50721 0.26291 0.0
S494 S 0.04106 0.56912 0.19101 0.0
N495 N 0.08304 0.63203 0.20606 0.0
N496 N 0.03728 0.50475 0.20224 0.0
C497 C 0.0712 0.53307 0.21918 0.0
C498 C 0.0962 0.60222 0.2213 0.0
C499 C 0.43232 0.52733 0.23615 0.0
C500 C 0.45356 0.59358 0.23257 0.0
C501 C 0.36588 0.48044 0.23465 0.0
C502 C 0.31931 0.49938 0.23024 0.0
H503 H 0.46664 0.51229 0.24103 0.0
H504 H 0.35047 0.4301 0.23844 0.0
S505 S 0.35106 0.66585 0.21811 0.0
N506 N 0.42364 0.67472 0.22284 0.0
N507 N 0.29899 0.58706 0.22077 0.0
C508 C 0.34044 0.5648 0.2257 0.0
C509 C 0.40765 0.61198 0.22683 0.0
C510 C 0.79979 0.43488 0.76544 0.0
C511 C 0.83675 0.49568 0.75602 0.0
C512 C 0.82006 0.38842 0.76498 0.0
C513 C 0.876 0.40049 0.75421 0.0
H514 H 0.75256 0.42132 0.77183 0.0
H515 H 0.78674 0.33963 0.77051 0.0
S516 S -0.0053 0.55579 0.72987 0.0
N517 N 0.93723 0.5697 0.73853 0.0
N518 N -0.02714 0.48005 0.73652 0.0
C519 C 0.91696 0.46348 0.74668 0.0
C520 C 0.89756 0.51171 0.74773 0.0
C521 C 0.59111 0.4394 0.76397 0.0
C522 C 0.57768 0.48856 0.75761 0.0
C523 C 0.5437 0.37328 0.7623 0.0
C524 C 0.48149 0.35517 0.7548 0.0
H525 H 0.64038 0.45147 0.76792 0.0
H526 H 0.55771 0.33655 0.76498 0.0
S527 S 0.41721 0.46476 0.74167 0.0
N528 N 0.49473 0.5147 0.74729 0.0
N529 N 0.40475 0.38991 0.74491 0.0
C530 C 0.46496 0.40356 0.75119 0.0
C531 C 0.51338 0.47071 0.75251 0.0
C532 C 0.55792 0.17685 0.75607 0.0
C533 C 0.50567 0.11705 0.74939 0.0
C534 C 0.62143 0.18821 0.75593 0.0
C535 C 0.63449 0.14036 0.74881 0.0
H536 H 0.55028 0.2175 0.75952 0.0
H537 H 0.66095 0.23684 0.75945 0.0
S538 S 0.515 0.97276 0.7326 0.0
N539 N 0.47021 0.00683 0.73785 0.0
N540 N 0.59149 0.02864 0.73746 0.0
C541 C 0.58274 0.07815 0.74404 0.0
C542 C 0.51745 0.0663 0.74434 0.0
C543 C 0.11233 0.25368 0.56557 0.0
C544 C 0.04879 0.20826 0.55933 0.0
C545 C 0.16358 0.24002 0.56318 0.0
C546 C 0.1516 0.18009 0.55494 0.0
H547 H 0.12079 0.2957 0.57435 0.0
H548 H 0.21028 0.27241 0.57008 0.0
S549 S -0.00394 0.05063 0.5337 0.0
N550 N -0.02088 0.10616 0.54214 0.0
N551 N 0.07469 0.08035 0.538 0.0
C552 C 0.09042 0.13874 0.54647 0.0
C553 C 0.03905 0.15302 0.54856 0.0
C554 C 0.77874 0.86938 0.55061 0.0
C555 C 0.73293 0.82196 0.56383 0.0
C556 C 0.79489 0.93499 0.55191 0.0
C557 C 0.76498 0.95439 0.56627 0.0
H558 H 0.80713 0.8573 0.5406 0.0
H559 H 0.8352 0.9712 0.54308 0.0
S560 S 0.62892 0.84707 0.60003 0.0
N561 N 0.64806 0.79709 0.58849 0.0
N562 N 0.67848 0.92055 0.59087 0.0
C563 C 0.71289 0.90634 0.57749 0.0
C564 C 0.69653 0.83978 0.57622 0.0
C565 C 0.08958 0.9442 0.58152 0.0
C566 C 0.1365 0.93411 0.5718 0.0
C567 C 0.02314 0.90112 0.57909 0.0
C568 C 0.00055 0.8452 0.56706 0.0
H569 H 0.10439 -0.01429 0.59135 0.0
H570 H -0.01051 0.91084 0.58736 0.0
S571 S 0.10394 0.79828 0.53768 0.0
N572 N 0.15685 0.86682 0.54893 0.0
N573 N 0.03068 0.78336 0.54467 0.0
C574 C 0.04699 0.83531 0.55679 0.0
C575 C 0.11531 0.88039 0.55906 0.0
C576 C 0.49582 0.05259 0.00279 0.0
C577 C 0.49402 -0.00324 0.01066 0.0
C578 C 0.48701 0.05651 0.98227 0.0
C579 C 0.47506 0.00421 0.96936 0.0
H580 H 0.49483 0.08858 0.01259 0.0
H581 H 0.48318 0.0978 0.97683 0.0
S582 S 0.48883 0.85926 0.98263 0.0
N583 N 0.49993 0.89879 0.00388 0.0
N584 N 0.47861 0.90374 0.96539 0.0
C585 C 0.48511 0.95438 0.97669 0.0
C586 C 0.49663 0.95182 -0.00256 0.0
C587 C 0.91253 0.41169 0.98453 0.0
C588 C 0.94553 0.46449 0.97109 0.0
C589 C 0.93042 0.41744 0.00464 0.0
C590 C -0.01873 0.4765 0.0118 0.0
H591 H 0.8744 0.36454 0.97927 0.0
H592 H 0.90736 0.37466 0.01421 0.0
S593 S 0.07441 0.63224 0.98384 0.0
N594 N 0.02545 0.57946 0.96697 0.0
N595 N 0.05863 0.59097 0.00502 0.0
C596 C 0.01112 0.53094 -0.00107 0.0
C597 C -0.00641 0.52481 0.97843 0.0
C598 C 0.4983 0.55642 0.97714 0.0
C599 C 0.48216 0.49469 0.96981 0.0
C600 C 0.48792 0.56392 -0.00271 0.0
C601 C 0.46208 0.51016 0.01052 0.0
H602 H 0.52218 0.59926 0.96762 0.0
H603 H 0.50244 0.61252 0.00276 0.0
S604 S 0.4031 0.33752 -0.00242 0.0
N605 N 0.43229 0.37806 0.97645 0.0
N606 N 0.41401 0.39293 0.01451 0.0
C607 C 0.44259 0.44795 0.0031 0.0
C608 C 0.45225 0.4401 0.98261 0.0
C609 C 0.17918 0.34452 0.33867 0.0
C610 C 0.11862 0.29529 0.34584 0.0
C611 C 0.18686 0.36238 0.31839 0.0
C612 C 0.13445 0.33096 0.30488 0.0
H613 H 0.22018 0.36971 0.34876 0.0
H614 H 0.23332 0.40228 0.31335 0.0
S615 S -0.03455 0.20283 0.31664 0.0
N616 N 0.00495 0.21768 0.33806 0.0
N617 N 0.02029 0.25089 0.30011 0.0
C618 C 0.07439 0.28116 0.31184 0.0
C619 C 0.06626 0.26346 0.33234 0.0
C620 C 0.6593 0.88085 0.33548 0.0
C621 C 0.67131 0.83515 0.3452 0.0
C622 C 0.648 0.87636 0.3148 0.0
C623 C 0.65056 0.82746 0.30349 0.0
H624 H 0.65804 0.91943 0.34386 0.0
H625 H 0.63457 0.9094 0.30774 0.0
S626 S 0.68097 0.69736 0.32243 0.0
N627 N 0.68592 0.74065 0.34236 0.0
N628 N 0.66565 0.73289 0.30352 0.0
C629 C 0.6647 0.78319 0.31309 0.0
C630 C 0.67489 0.78695 0.33401 0.0
C631 C 0.14064 0.78863 0.31101 0.0
C632 C 0.15392 0.85099 0.3044 0.0
C633 C 0.14756 0.77703 0.33119 0.0
C634 C 0.16675 0.82691 0.34536 0.0
H635 H 0.13111 0.75043 0.30034 0.0
H636 H 0.14003 0.72951 0.33561 0.0
S637 S 0.20117 -0.00344 0.33573 0.0
N638 N 0.18062 0.96061 0.31371 0.0
N639 N 0.19642 0.94029 0.35146 0.0
C640 C 0.17587 0.88809 0.33909 0.0
C641 C 0.16787 0.89939 0.31867 0.0
C642 C 0.79945 0.59563 0.66317 0.0
C643 C 0.80874 0.64059 0.67848 0.0
C644 C 0.81063 0.61513 0.64314 0.0
C645 C 0.83198 0.68027 0.63797 0.0
H646 H 0.77882 0.54407 0.6665 0.0
H647 H 0.79705 0.57816 0.63171 0.0
S648 S 0.88285 0.82 0.67273 0.0
N649 N 0.85342 0.75495 0.68735 0.0
N650 N 0.87778 0.79237 0.64982 0.0
C651 C 0.85125 0.72716 0.65334 0.0
C652 C 0.83872 0.70714 0.67365 0.0
C653 C 0.26267 0.08327 0.64825 0.0
C654 C 0.28667 0.14543 0.63958 0.0
C655 C 0.26458 0.07544 0.66883 0.0
C656 C 0.29093 0.12953 0.68165 0.0
H657 H 0.24198 0.03996 0.63894 0.0
H658 H 0.24877 0.0269 0.67469 0.0
S659 S 0.35867 0.30315 0.6664 0.0
N660 N 0.3348 0.26203 0.64519 0.0
N661 N 0.34125 0.24809 0.6842 0.0
C662 C 0.31379 0.19226 0.67324 0.0
C663 C 0.31125 0.20008 0.65209 0.0
C664 C 0.83959 0.22716 0.6479 0.0
C665 C 0.82969 0.16796 0.64026 0.0
C666 C 0.84799 0.23848 0.66846 0.0
C667 C 0.84714 0.191 0.68168 0.0
H668 H 0.84825 0.26707 0.63797 0.0
H669 H 0.85987 0.28646 0.67381 0.0
S670 S 0.80174 0.02118 0.66872 0.0
N671 N 0.80198 0.05579 0.64722 0.0
N672 N 0.82027 0.07794 0.68591 0.0
C673 C 0.82668 0.12829 0.67435 0.0
C674 C 0.8169 0.11648 0.65351 0.0
C675 C 0.32089 0.9336 0.18297 0.0
C676 C 0.25817 0.89445 0.17492 0.0
C677 C 0.37665 0.95925 0.17063 0.0
C678 C 0.37137 0.94744 0.14981 0.0
H679 H 0.32658 0.94887 0.19843 0.0
H680 H 0.42365 -0.00791 0.17727 0.0
S681 S 0.21594 0.84342 0.12289 0.0
N682 N 0.19361 0.83931 0.14619 0.0
N683 N 0.29622 0.88973 0.12264 0.0
C684 C 0.30863 0.90428 0.14223 0.0
C685 C 0.25271 0.87729 0.15489 0.0
C686 C -0.02208 0.36015 0.15986 0.0
C687 C 0.0139 0.42136 0.15045 0.0
C688 C 0.00895 0.3319 0.17035 0.0
C689 C 0.0772 0.36397 0.1721 0.0
H690 H 0.92521 0.33258 0.15845 0.0
H691 H -0.0207 0.2833 0.17658 0.0
S692 S 0.19335 0.53006 0.15339 0.0
N693 N 0.12125 0.51664 0.14548 0.0
N694 N 0.17985 0.46319 0.1655 0.0
C695 C 0.11395 0.42672 0.16375 0.0
C696 C 0.08218 0.45552 0.15281 0.0
C697 C 0.63132 0.72613 0.14461 0.0
C698 C 0.60369 0.72676 0.16324 0.0
C699 C 0.60396 0.66992 0.13266 0.0
C700 C 0.54792 0.61273 0.13887 0.0
H701 H 0.67759 0.76714 0.13998 0.0
H702 H 0.63084 0.6691 0.11966 0.0
S703 S 0.44417 0.59509 0.18211 0.0
N704 N 0.50745 0.66971 0.18444 0.0
N705 N 0.4572 0.56402 0.1618 0.0
C706 C 0.51479 0.6155 0.15576 0.0
C707 C 0.54236 0.6726 0.16802 0.0
C708 C -0.0229 0.40298 0.81209 0.0
C709 C 0.94698 0.41351 0.82882 0.0
C710 C 0.94631 0.34408 0.80135 0.0
C711 C 0.88392 0.29368 0.8067 0.0
H712 H 0.0275 0.43739 0.80844 0.0
H713 H -0.02569 0.33543 0.79018 0.0
S714 S 0.77446 0.30485 0.84386 0.0
N715 N 0.84404 0.37433 0.84651 0.0
N716 N 0.78687 0.2635 0.82623 0.0
C717 C 0.84967 0.30685 0.82132 0.0
C718 C 0.88086 0.36696 0.83233 0.0
C719 C 0.63315 0.53953 0.83485 0.0
C720 C 0.58256 0.55112 0.82894 0.0
C721 C 0.69373 0.56926 0.82481 0.0
C722 C 0.70466 0.60915 0.80792 0.0
H723 H 0.62762 0.51205 0.84834 0.0
H724 H 0.73354 0.5645 0.83104 0.0
S725 S 0.58207 0.64062 0.78328 0.0
N726 N 0.54289 0.59354 0.80252 0.0
N727 N 0.65651 0.65099 0.78419 0.0
C728 C 0.65155 0.61385 0.80036 0.0
C729 C 0.59017 0.58362 0.81057 0.0
C730 C 0.33423 0.07414 0.83797 0.0
C731 C 0.35967 0.10169 0.81901 0.0
C732 C 0.36344 0.04638 0.84977 0.0
C733 C 0.41991 0.04647 0.84327 0.0
H734 H 0.28765 0.06754 0.84288 0.0
H735 H 0.33746 0.01824 0.86283 0.0
S736 S 0.51955 0.13338 0.79956 0.0
N737 N 0.45469 0.14235 0.79732 0.0
N738 N 0.50922 0.09032 0.81997 0.0
C739 C 0.45134 0.08278 0.82625 0.0
C740 C 0.42155 0.11071 0.81403 0.0
C741 C -0.03286 0.20779 0.50408 0.0
C742 C 0.91591 0.21957 0.499 0.0
C743 C 0.02656 0.23714 0.49348 0.0
C744 C 0.03655 0.27796 0.47695 0.0
H745 H -0.03625 0.18067 0.51744 0.0
H746 H 0.06639 0.23113 0.49905 0.0
S747 S 0.9178 0.32202 0.45627 0.0
N748 N 0.87898 0.27292 0.47521 0.0
N749 N -0.01026 0.32647 0.4553 0.0
C750 C -0.01565 0.28626 0.47068 0.0
C751 C 0.92423 0.25732 0.48163 0.0
C752 C 0.75222 0.77948 0.47615 0.0
C753 C 0.69447 0.77512 0.48371 0.0
C754 C 0.7858 0.75414 0.48698 0.0
C755 C 0.76284 0.72423 0.50569 0.0
H756 H 0.76819 0.79659 0.46112 0.0
H757 H 0.82576 0.75191 0.47981 0.0
S758 S 0.6171 0.70598 0.53248 0.0
N759 N 0.62304 0.74932 0.51246 0.0
N760 N 0.67864 0.69182 0.53094 0.0
C761 C 0.70856 0.72485 0.51398 0.0
C762 C 0.67676 0.75364 0.50351 0.0
C763 C 0.19514 0.95051 0.49895 0.0
C764 C 0.20475 0.95151 0.4782 0.0
C765 C 0.22806 0.00793 0.51049 0.0
C766 C 0.27285 0.06837 0.50174 0.0
H767 H 0.16624 0.90422 0.50651 0.0
H768 H 0.22329 0.00329 0.52651 0.0
S769 S 0.31144 0.09852 0.44772 0.0
N770 N 0.25956 0.01931 0.4493 0.0
N771 N 0.31883 0.12666 0.47066 0.0
C772 C 0.27785 0.07094 0.48076 0.0
C773 C 0.24476 0.01268 0.46908 0.0
C774 C 0.47479 0.28266 0.06985 0.0
C775 C 0.44116 0.29692 0.08452 0.0
C776 C 0.4687 0.22028 0.06891 0.0
C777 C 0.42813 0.17065 0.08237 0.0
H778 H 0.51122 0.32142 0.0606 0.0
H779 H 0.50061 0.21286 0.05898 0.0
S780 S 0.32145 0.18046 0.12092 0.0
N781 N 0.3592 0.25405 0.11071 0.0
N782 N 0.3479 0.13718 0.10884 0.0
C783 C 0.38895 0.18234 0.09544 0.0
C784 C 0.39532 0.24553 0.0965 0.0
C785 C 0.72926 0.14565 0.09203 0.0
C786 C 0.67288 0.14373 0.08424 0.0
C787 C 0.79006 0.20347 0.09136 0.0
C788 C 0.79573 0.26068 0.08296 0.0
H789 H 0.72549 0.10366 0.09989 0.0
H790 H 0.83121 0.20499 0.09905 0.0
S791 S 0.66539 0.27941 0.0584 0.0
N792 N 0.62863 0.20254 0.06597 0.0
N793 N 0.74276 0.31046 0.0648 0.0
C794 C 0.74134 0.25755 0.07345 0.0
C795 C 0.67974 0.19907 0.07404 0.0
C796 C 0.71621 0.48043 0.07314 0.0
C797 C 0.71738 0.54039 0.07538 0.0
C798 C 0.77304 0.47633 0.07513 0.0
C799 C 0.83341 0.53215 0.07904 0.0
H800 H 0.66985 0.43515 0.07238 0.0
H801 H 0.76852 0.42842 0.07567 0.0
S802 S 0.86655 0.70301 0.07922 0.0
N803 N 0.78621 0.65855 0.07698 0.0
N804 N 0.89393 0.65072 0.08024 0.0
C805 C 0.83695 0.59339 0.0784 0.0
C806 C 0.77864 0.59762 0.07653 0.0
C807 C 0.25869 0.44034 0.90744 0.0
C808 C 0.29718 0.47997 0.89139 0.0
C809 C 0.19139 0.42085 0.90907 0.0
C810 C 0.16054 0.43978 0.89458 0.0
H811 H 0.28073 0.42485 0.91883 0.0
H812 H 0.16329 0.38995 0.92143 0.0
S813 S 0.23945 0.54243 0.84959 0.0
N814 N 0.29826 0.53634 0.86081 0.0
N815 N 0.17475 0.50049 0.86375 0.0
C816 C 0.19913 0.47945 0.87863 0.0
C817 C 0.26648 0.49919 0.87705 0.0
C818 C 0.47364 0.77022 0.9088 0.0
C819 C 0.51723 0.83141 0.90042 0.0
C820 C 0.49167 0.72224 0.91121 0.0
C821 C 0.55332 0.73384 0.90483 0.0
H822 H 0.42369 0.75748 0.91196 0.0
H823 H 0.45448 0.67364 0.9158 0.0
S824 S 0.68823 0.8905 0.88553 0.0
N825 N 0.62699 0.90467 0.88867 0.0
N826 N 0.66101 0.81422 0.89284 0.0
C827 C 0.59941 0.79734 0.89857 0.0
C828 C 0.58114 0.8462 0.89629 0.0
C829 C 0.26959 0.75278 0.90957 0.0
C830 C 0.25529 0.80371 0.90762 0.0
C831 C 0.22085 0.68773 0.90726 0.0
C832 C 0.15579 0.67143 0.90407 0.0
H833 H 0.31994 0.76368 0.90992 0.0
H834 H 0.23486 0.65041 0.90664 0.0
S835 S 0.09069 0.78565 0.90473 0.0
N836 N 0.17073 0.8335 0.90647 0.0
N837 N 0.07725 0.70983 0.90399 0.0
C838 C 0.13935 0.72102 0.90553 0.0
C839 C 0.18973 0.78782 0.90697 0.0
C840 C 0.07999 0.59629 0.42859 0.0
C841 C 0.13792 0.64882 0.42094 0.0
C842 C 0.06864 0.53177 0.42749 0.0
C843 C 0.11402 0.51826 0.4182 0.0
H844 H 0.04606 0.60564 0.43683 0.0
H845 H 0.02734 0.49338 0.43545 0.0
S846 S 0.26653 0.63768 0.39262 0.0
N847 N 0.23637 0.68236 0.40157 0.0
N848 N 0.21397 0.56134 0.39891 0.0
C849 C 0.16808 0.56968 0.40858 0.0
C850 C 0.18044 0.6351 0.41014 0.0
C851 C 0.42357 0.57637 0.39939 0.0
C852 C 0.47715 0.57905 0.40959 0.0
C853 C 0.36009 0.52262 0.40181 0.0
C854 C 0.34865 0.47023 0.41451 0.0
H855 H 0.42904 0.61965 0.39191 0.0
H856 H 0.31933 0.52581 0.39563 0.0
S857 S 0.47511 0.44542 0.43925 0.0
N858 N 0.51651 0.51825 0.42867 0.0
N859 N 0.3977 0.4178 0.43345 0.0
C860 C 0.40305 0.46808 0.42208 0.0
C861 C 0.46738 0.52221 0.41939 0.0
C862 C 0.45868 0.86588 0.40565 0.0
C863 C 0.47177 0.84919 0.42468 0.0
C864 C 0.41063 0.88429 0.4031 0.0
C865 C 0.37535 0.88734 0.41957 0.0
H866 H 0.48493 0.86385 0.39267 0.0
H867 H 0.40133 0.89648 0.3883 0.0
S868 S 0.38746 0.84382 0.47231 0.0
N869 N 0.4426 0.83451 0.4601 0.0
N870 N 0.35408 0.86823 0.45526 0.0
C871 C 0.38756 0.86977 0.43853 0.0
C872 C 0.43544 0.85111 0.44112 0.0
C873 C 0.82947 0.72625 0.22165 0.0
C874 C 0.81868 0.76723 0.23433 0.0
C875 C 0.89068 0.73003 0.22087 0.0
C876 C 0.94314 0.77487 0.23278 0.0
H877 H 0.79258 0.6959 0.21084 0.0
H878 H 0.8987 0.70195 0.20958 0.0
S879 S 0.93666 0.88668 0.27036 0.0
N880 N 0.86261 0.84872 0.26055 0.0
N881 N -0.0224 0.85562 0.25929 0.0
C882 C 0.93072 0.811 0.24704 0.0
C883 C 0.86842 0.80737 0.24772 0.0
C884 C 0.24678 0.11152 0.2292 0.0
C885 C 0.20218 0.06076 0.24156 0.0
C886 C 0.24392 0.16905 0.22695 0.0
C887 C 0.19629 0.17741 0.237 0.0
H888 H 0.27823 0.10335 0.21927 0.0
H889 H 0.27446 0.20392 0.21566 0.0
S890 S 0.08179 0.06619 0.27556 0.0
N891 N 0.11943 0.02775 0.26723 0.0
N892 N 0.11403 0.1364 0.2633 0.0
C893 C 0.1589 0.13155 0.25187 0.0
C894 C 0.16185 0.07279 0.25407 0.0
C895 C 0.8057 0.07119 0.21474 0.0
C896 C 0.79329 0.02198 0.22892 0.0
C897 C 0.86431 0.13067 0.21491 0.0
C898 C 0.91167 0.14369 0.22954 0.0
H899 H 0.77259 0.06177 0.20236 0.0
H900 H 0.87491 0.16439 0.20258 0.0
S901 S 0.89705 0.03908 0.27279 0.0
N902 N 0.82865 -0.00444 0.2601 0.0
N903 N 0.93885 0.10864 0.26043 0.0
C904 C 0.89677 0.09895 0.24524 0.0
C905 C 0.83722 0.0377 0.24498 0.0
C906 C 0.78875 0.88634 0.73874 0.0
C907 C 0.75425 0.83714 0.75303 0.0
C908 C 0.79363 0.94817 0.74044 0.0
C909 C 0.76487 0.96249 0.75667 0.0
H910 H 0.81803 0.8796 0.72758 0.0
H911 H 0.82589 -0.01331 0.73032 0.0
S912 S 0.65764 0.84512 0.79526 0.0
N913 N 0.68221 0.8031 0.78168 0.0
N914 N 0.69072 0.91841 0.7849 0.0
C915 C 0.72347 0.91084 0.7694 0.0
C916 C 0.71837 0.84827 0.76758 0.0
C917 C 0.08897 0.9364 0.74036 0.0
C918 C 0.14202 0.925 0.74133 0.0
C919 C 0.02467 0.88489 0.74263 0.0
C920 C 0.0117 0.82054 0.74566 0.0
H921 H 0.09756 -0.01397 0.7404 0.0
H922 H -0.01431 0.89634 0.74395 0.0
S923 S 0.13183 0.7634 0.74386 0.0
N924 N 0.17644 0.84378 0.74166 0.0
N925 N 0.05512 0.7465 0.74556 0.0
C926 C 0.06334 0.80758 0.74404 0.0
C927 C 0.12881 0.86008 0.74186 0.0
C928 C 0.09316 0.13331 0.74341 0.0
C929 C 0.15294 0.17946 0.7519 0.0
C930 C 0.04104 0.14528 0.7423 0.0
C931 C 0.04691 0.20315 0.75004 0.0
H932 H 0.08497 0.08556 0.7391 0.0
H933 H -0.00619 0.10592 0.73754 0.0
S934 S 0.19752 0.34533 0.76931 0.0
N935 N 0.21921 0.29002 0.76449 0.0
N936 N 0.11959 0.31171 0.76307 0.0
C937 C 0.10851 0.25285 0.75627 0.0
C938 C 0.16222 0.2411 0.75707 0.0
C939 C 0.55182 0.17255 0.57375 0.0
C940 C 0.50124 0.10695 0.57354 0.0
C941 C 0.61716 0.18912 0.57129 0.0
C942 C 0.63513 0.14078 0.56928 0.0
H943 H 0.54023 0.21165 0.57341 0.0
H944 H 0.6536 0.24044 0.56997 0.0
S945 S 0.52276 0.96171 0.57278 0.0
N946 N 0.47407 -0.00672 0.57402 0.0
N947 N 0.59795 0.02433 0.571 0.0
C948 C 0.58598 0.07497 0.57162 0.0
C949 C 0.51875 0.05806 0.57337 0.0
C950 C 0.88927 0.44003 0.57789 0.0
C951 C 0.86773 0.38666 0.56479 0.0
C952 C 0.86994 0.48746 0.575 0.0
C953 C 0.82814 0.48204 0.55907 0.0
H954 H 0.92232 0.44604 0.58998 0.0
H955 H 0.88855 0.52885 0.58503 0.0
S956 S 0.75553 0.3477 0.52155 0.0
N957 N 0.80255 0.3312 0.53566 0.0
N958 N 0.76237 0.41496 0.5311 0.0
C959 C 0.80452 0.42684 0.54654 0.0
C960 C 0.82538 0.3806 0.54918 0.0
C961 C 0.56082 0.37528 0.57221 0.0
C962 C 0.49504 0.35411 0.56801 0.0
C963 C 0.60643 0.44194 0.57365 0.0
C964 C 0.58805 0.48943 0.57008 0.0
H965 H 0.57794 0.34036 0.57295 0.0
H966 H 0.65762 0.45624 0.57496 0.0
S967 S 0.41976 0.45843 0.5625 0.0
N968 N 0.4115 0.38467 0.56397 0.0
N969 N 0.49858 0.51084 0.56526 0.0
C970 C 0.52148 0.46875 0.56794 0.0
C971 C 0.47451 0.4006 0.56719 0.0
loop_
_geom_bond_atom_site_label_1
_geom_bond_atom_site_label_2
_geom_bond_distance
_geom_bond_site_symmetry_2
_ccdc_geom_bond_type
O0 Mg1 1.990 . S
O0 C14 1.253 . S
Mg1 O0 1.990 . S
Mg1 O4 2.180 . S
Mg1 O5 2.117 . S
Mg1 O19 2.030 . S
O2 Mg3 2.072 1_565 S
O2 C14 1.260 . S
Mg3 O2 2.072 1_545 S
Mg3 O4 2.099 1_545 S
Mg3 O6 2.079 . S
Mg3 O7 2.072 . S
Mg3 O9 2.099 . S
Mg3 O20 2.079 1_545 S
O4 Mg1 2.180 . S
O4 Mg3 2.099 1_565 S
O4 C15 1.279 1_565 S
O5 Mg1 2.117 . S
O5 C15 1.250 1_565 S
O6 Mg3 2.079 . S
O6 C16 1.264 . S
O7 Mg3 2.072 . S
O7 C17 1.260 . S
Mg8 O9 2.180 . S
Mg8 O10 2.030 . S
Mg8 O11 1.990 . S
Mg8 O12 2.117 . S
O9 Mg3 2.099 . S
O9 Mg8 2.180 . S
O9 C18 1.279 . S
O10 Mg8 2.030 . S
O10 C16 1.248 . S
O11 Mg8 1.990 . S
O11 C17 1.253 . S
O12 Mg8 2.117 . S
O12 C18 1.250 . S
C13 O19 1.248 . S
C13 O20 1.264 . S
C14 O0 1.253 . S
C14 O2 1.260 . S
C15 O4 1.279 1_545 S
C15 O5 1.250 1_545 S
C16 O6 1.264 . S
C16 O10 1.248 . S
C17 O7 1.260 . S
C17 O11 1.253 . S
C18 O9 1.279 . S
C18 O12 1.250 . S
O19 Mg1 2.030 . S
O19 C13 1.248 . S
O20 Mg3 2.079 1_565 S
O20 C13 1.264 . S
O21 Mg22 1.990 . S
O21 C35 1.253 . S
Mg22 O21 1.990 . S
Mg22 O25 2.180 . S
Mg22 O26 2.117 . S
Mg22 O40 2.030 . S
O23 Mg24 2.072 . S
O23 C35 1.260 . S
Mg24 O23 2.072 . S
Mg24 O25 2.099 . S
Mg24 O27 2.079 1_455 S
Mg24 O28 2.072 1_455 S
Mg24 O30 2.099 . S
Mg24 O41 2.079 . S
O25 Mg22 2.180 . S
O25 Mg24 2.099 . S
O25 C36 1.279 . S
O26 Mg22 2.117 . S
O26 C36 1.250 . S
O27 Mg24 2.079 1_655 S
O27 C37 1.264 . S
O28 Mg24 2.072 1_655 S
O28 C38 1.260 . S
Mg29 O30 2.180 1_655 S
Mg29 O31 2.030 . S
Mg29 O32 1.990 . S
Mg29 O33 2.117 . S
O30 Mg24 2.099 . S
O30 Mg29 2.180 1_455 S
O30 C39 1.279 . S
O31 Mg29 2.030 . S
O31 C37 1.248 . S
O32 Mg29 1.990 . S
O32 C38 1.253 . S
O33 Mg29 2.117 . S
O33 C39 1.250 1_655 S
C34 O40 1.248 . S
C34 O41 1.264 . S
C35 O21 1.253 . S
C35 O23 1.260 . S
C36 O25 1.279 . S
C36 O26 1.250 . S
C37 O27 1.264 . S
C37 O31 1.248 . S
C38 O28 1.260 . S
C38 O32 1.253 . S
C39 O30 1.279 . S
C39 O33 1.250 1_455 S
O40 Mg22 2.030 . S
O40 C34 1.248 . S
O41 Mg24 2.079 . S
O41 C34 1.264 . S
O42 Mg43 1.990 . S
O42 C56 1.253 . S
Mg43 O42 1.990 . S
Mg43 O46 2.180 . S
Mg43 O47 2.117 . S
Mg43 O61 2.030 . S
O44 Mg45 2.072 . S
O44 C56 1.260 . S
Mg45 O44 2.072 . S
Mg45 O46 2.099 . S
Mg45 O48 2.079 . S
Mg45 O49 2.072 . S
Mg45 O51 2.099 . S
Mg45 O62 2.079 . S
O46 Mg43 2.180 . S
O46 Mg45 2.099 . S
O46 C57 1.279 . S
O47 Mg43 2.117 . S
O47 C57 1.250 . S
O48 Mg45 2.079 . S
O48 C58 1.264 . S
O49 Mg45 2.072 . S
O49 C59 1.260 . S
Mg50 O51 2.180 . S
Mg50 O52 2.030 . S
Mg50 O53 1.990 . S
Mg50 O54 2.117 . S
O51 Mg45 2.099 . S
O51 Mg50 2.180 . S
O51 C60 1.279 . S
O52 Mg50 2.030 . S
O52 C58 1.248 . S
O53 Mg50 1.990 . S
O53 C59 1.253 . S
O54 Mg50 2.117 . S
O54 C60 1.250 . S
C55 O61 1.248 . S
C55 O62 1.264 . S
C56 O42 1.253 . S
C56 O44 1.260 . S
C57 O46 1.279 . S
C57 O47 1.250 . S
C58 O48 1.264 . S
C58 O52 1.248 . S
C59 O49 1.260 . S
C59 O53 1.253 . S
C60 O51 1.279 . S
C60 O54 1.250 . S
O61 Mg43 2.030 . S
O61 C55 1.248 . S
O62 Mg45 2.079 . S
O62 C55 1.264 . S
O63 Mg64 1.990 . S
O63 C77 1.253 . S
Mg64 O63 1.990 . S
Mg64 O67 2.180 . S
Mg64 O68 2.117 . S
Mg64 O82 2.030 . S
O65 Mg66 2.072 1_655 S
O65 C77 1.260 . S
Mg66 O65 2.072 1_455 S
Mg66 O67 2.099 1_455 S
Mg66 O69 2.079 . S
Mg66 O70 2.072 . S
Mg66 O72 2.099 . S
Mg66 O83 2.079 1_455 S
O67 Mg64 2.180 . S
O67 Mg66 2.099 1_655 S
O67 C78 1.279 1_655 S
O68 Mg64 2.117 . S
O68 C78 1.250 1_655 S
O69 Mg66 2.079 . S
O69 C79 1.264 . S
O70 Mg66 2.072 . S
O70 C80 1.260 . S
Mg71 O72 2.180 . S
Mg71 O73 2.030 . S
Mg71 O74 1.990 . S
Mg71 O75 2.117 . S
O72 Mg66 2.099 . S
O72 Mg71 2.180 . S
O72 C81 1.279 . S
O73 Mg71 2.030 . S
O73 C79 1.248 . S
O74 Mg71 1.990 . S
O74 C80 1.253 . S
O75 Mg71 2.117 . S
O75 C81 1.250 . S
C76 O82 1.248 . S
C76 O83 1.264 . S
C77 O63 1.253 . S
C77 O65 1.260 . S
C78 O67 1.279 1_455 S
C78 O68 1.250 1_455 S
C79 O69 1.264 . S
C79 O73 1.248 . S
C80 O70 1.260 . S
C80 O74 1.253 . S
C81 O72 1.279 . S
C81 O75 1.250 . S
O82 Mg64 2.030 . S
O82 C76 1.248 . S
O83 Mg66 2.079 1_655 S
O83 C76 1.264 . S
O84 Mg85 1.990 . S
O84 C98 1.253 . S
Mg85 O84 1.990 . S
Mg85 O88 2.180 . S
Mg85 O89 2.117 . S
Mg85 O103 2.030 . S
O86 Mg87 2.072 . S
O86 C98 1.260 . S
Mg87 O86 2.072 . S
Mg87 O88 2.099 . S
Mg87 O90 2.079 . S
Mg87 O91 2.072 . S
Mg87 O93 2.099 . S
Mg87 O104 2.079 . S
O88 Mg85 2.180 . S
O88 Mg87 2.099 . S
O88 C99 1.279 . S
O89 Mg85 2.117 . S
O89 C99 1.250 . S
O90 Mg87 2.079 . S
O90 C100 1.264 . S
O91 Mg87 2.072 . S
O91 C101 1.260 . S
Mg92 O93 2.180 . S
Mg92 O94 2.030 . S
Mg92 O95 1.990 . S
Mg92 O96 2.117 . S
O93 Mg87 2.099 . S
O93 Mg92 2.180 . S
O93 C102 1.279 . S
O94 Mg92 2.030 . S
O94 C100 1.248 . S
O95 Mg92 1.990 . S
O95 C101 1.253 . S
O96 Mg92 2.117 . S
O96 C102 1.250 . S
C97 O103 1.248 . S
C97 O104 1.264 . S
C98 O84 1.253 . S
C98 O86 1.260 . S
C99 O88 1.279 . S
C99 O89 1.250 . S
C100 O90 1.264 . S
C100 O94 1.248 . S
C101 O91 1.260 . S
C101 O95 1.253 . S
C102 O93 1.279 . S
C102 O96 1.250 . S
O103 Mg85 2.030 . S
O103 C97 1.248 . S
O104 Mg87 2.079 . S
O104 C97 1.264 . S
O105 Mg106 1.990 . S
O105 C119 1.253 . S
Mg106 O105 1.990 . S
Mg106 O109 2.180 . S
Mg106 O110 2.117 . S
Mg106 O124 2.030 . S
O107 Mg108 2.072 . S
O107 C119 1.260 . S
Mg108 O107 2.072 . S
Mg108 O109 2.099 . S
Mg108 O111 2.079 1_545 S
Mg108 O112 2.072 1_545 S
Mg108 O114 2.099 . S
Mg108 O125 2.079 . S
O109 Mg106 2.180 . S
O109 Mg108 2.099 . S
O109 C120 1.279 . S
O110 Mg106 2.117 . S
O110 C120 1.250 . S
O111 Mg108 2.079 1_565 S
O111 C121 1.264 . S
O112 Mg108 2.072 1_565 S
O112 C122 1.260 . S
Mg113 O114 2.180 1_565 S
Mg113 O115 2.030 . S
Mg113 O116 1.990 . S
Mg113 O117 2.117 . S
O114 Mg108 2.099 . S
O114 Mg113 2.180 1_545 S
O114 C123 1.279 . S
O115 Mg113 2.030 . S
O115 C121 1.248 . S
O116 Mg113 1.990 . S
O116 C122 1.253 . S
O117 Mg113 2.117 . S
O117 C123 1.250 1_565 S
C118 O124 1.248 . S
C118 O125 1.264 . S
C119 O105 1.253 . S
C119 O107 1.260 . S
C120 O109 1.279 . S
C120 O110 1.250 . S
C121 O111 1.264 . S
C121 O115 1.248 . S
C122 O112 1.260 . S
C122 O116 1.253 . S
C123 O114 1.279 . S
C123 O117 1.250 1_545 S
O124 Mg106 2.030 . S
O124 C118 1.248 . S
O125 Mg108 2.079 . S
O125 C118 1.264 . S
O126 Mg127 1.990 . S
O126 C140 1.253 . S
Mg127 O126 1.990 . S
Mg127 O130 2.180 . S
Mg127 O131 2.117 . S
Mg127 O145 2.030 . S
O128 Mg129 2.072 . S
O128 C140 1.260 . S
Mg129 O128 2.072 . S
Mg129 O130 2.099 . S
Mg129 O132 2.079 . S
Mg129 O133 2.072 . S
Mg129 O135 2.099 . S
Mg129 O146 2.079 . S
O130 Mg127 2.180 . S
O130 Mg129 2.099 . S
O130 C141 1.279 . S
O131 Mg127 2.117 . S
O131 C141 1.250 . S
O132 Mg129 2.079 . S
O132 C142 1.264 . S
O133 Mg129 2.072 . S
O133 C143 1.260 . S
Mg134 O135 2.180 . S
Mg134 O136 2.030 . S
Mg134 O137 1.990 . S
Mg134 O138 2.117 . S
O135 Mg129 2.099 . S
O135 Mg134 2.180 . S
O135 C144 1.279 . S
O136 Mg134 2.030 . S
O136 C142 1.248 . S
O137 Mg134 1.990 . S
O137 C143 1.253 . S
O138 Mg134 2.117 . S
O138 C144 1.250 . S
C139 O145 1.248 . S
C139 O146 1.264 . S
C140 O126 1.253 . S
C140 O128 1.260 . S
C141 O130 1.279 . S
C141 O131 1.250 . S
C142 O132 1.264 . S
C142 O136 1.248 . S
C143 O133 1.260 . S
C143 O137 1.253 . S
C144 O135 1.279 . S
C144 O138 1.250 . S
O145 Mg127 2.030 . S
O145 C139 1.248 . S
O146 Mg129 2.079 . S
O146 C139 1.264 . S
O147 Mg148 1.990 . S
O147 C161 1.253 . S
Mg148 O147 1.990 . S
Mg148 O151 2.180 . S
Mg148 O152 2.117 . S
Mg148 O166 2.030 . S
O149 Mg150 2.072 . S
O149 C161 1.260 . S
Mg150 O149 2.072 . S
Mg150 O151 2.099 . S
Mg150 O153 2.079 . S
Mg150 O154 2.072 . S
Mg150 O156 2.099 . S
Mg150 O167 2.079 . S
O151 Mg148 2.180 . S
O151 Mg150 2.099 . S
O151 C162 1.279 . S
O152 Mg148 2.117 . S
O152 C162 1.250 . S
O153 Mg150 2.079 . S
O153 C163 1.264 . S
O154 Mg150 2.072 . S
O154 C164 1.260 . S
Mg155 O156 2.180 . S
Mg155 O157 2.030 . S
Mg155 O158 1.990 . S
Mg155 O159 2.117 . S
O156 Mg150 2.099 . S
O156 Mg155 2.180 . S
O156 C165 1.279 . S
O157 Mg155 2.030 . S
O157 C163 1.248 . S
O158 Mg155 1.990 . S
O158 C164 1.253 . S
O159 Mg155 2.117 . S
O159 C165 1.250 . S
C160 O166 1.248 . S
C160 O167 1.264 . S
C161 O147 1.253 . S
C161 O149 1.260 . S
C162 O151 1.279 . S
C162 O152 1.250 . S
C163 O153 1.264 . S
C163 O157 1.248 . S
C164 O154 1.260 . S
C164 O158 1.253 . S
C165 O156 1.279 . S
C165 O159 1.250 . S
O166 Mg148 2.030 . S
O166 C160 1.248 . S
O167 Mg150 2.079 . S
O167 C160 1.264 . S
O168 Mg169 1.990 1_545 S
O168 C182 1.253 . S
Mg169 O168 1.990 1_565 S
Mg169 O172 2.180 . S
Mg169 O173 2.117 . S
Mg169 O187 2.030 . S
O170 Mg171 2.072 . S
O170 C182 1.260 1_565 S
Mg171 O170 2.072 . S
Mg171 O172 2.099 . S
Mg171 O174 2.079 . S
Mg171 O175 2.072 . S
Mg171 O177 2.099 . S
Mg171 O188 2.079 . S
O172 Mg169 2.180 . S
O172 Mg171 2.099 . S
O172 C183 1.279 . S
O173 Mg169 2.117 . S
O173 C183 1.250 . S
O174 Mg171 2.079 . S
O174 C184 1.264 . S
O175 Mg171 2.072 . S
O175 C185 1.260 . S
Mg176 O177 2.180 . S
Mg176 O178 2.030 . S
Mg176 O179 1.990 . S
Mg176 O180 2.117 . S
O177 Mg171 2.099 . S
O177 Mg176 2.180 . S
O177 C186 1.279 . S
O178 Mg176 2.030 . S
O178 C184 1.248 . S
O179 Mg176 1.990 . S
O179 C185 1.253 . S
O180 Mg176 2.117 . S
O180 C186 1.250 . S
C181 O187 1.248 . S
C181 O188 1.264 . S
C182 O168 1.253 . S
C182 O170 1.260 1_545 S
C183 O172 1.279 . S
C183 O173 1.250 . S
C184 O174 1.264 . S
C184 O178 1.248 . S
C185 O175 1.260 . S
C185 O179 1.253 . S
C186 O177 1.279 . S
C186 O180 1.250 . S
O187 Mg169 2.030 . S
O187 C181 1.248 . S
O188 Mg171 2.079 . S
O188 C181 1.264 . S
O189 Mg190 1.990 . S
O189 C203 1.253 . S
Mg190 O189 1.990 . S
Mg190 O193 2.180 . S
Mg190 O194 2.117 . S
Mg190 O208 2.030 . S
O191 Mg192 2.072 . S
O191 C203 1.260 . S
Mg192 O191 2.072 . S
Mg192 O193 2.099 . S
Mg192 O195 2.079 . S
Mg192 O196 2.072 . S
Mg192 O198 2.099 . S
Mg192 O209 2.079 . S
O193 Mg190 2.180 . S
O193 Mg192 2.099 . S
O193 C204 1.279 . S
O194 Mg190 2.117 . S
O194 C204 1.250 . S
O195 Mg192 2.079 . S
O195 C205 1.264 . S
O196 Mg192 2.072 . S
O196 C206 1.260 . S
Mg197 O198 2.180 . S
Mg197 O199 2.030 . S
Mg197 O200 1.990 . S
Mg197 O201 2.117 . S
O198 Mg192 2.099 . S
O198 Mg197 2.180 . S
O198 C207 1.279 . S
O199 Mg197 2.030 . S
O199 C205 1.248 . S
O200 Mg197 1.990 . S
O200 C206 1.253 . S
O201 Mg197 2.117 . S
O201 C207 1.250 . S
C202 O208 1.248 . S
C202 O209 1.264 . S
C203 O189 1.253 . S
C203 O191 1.260 . S
C204 O193 1.279 . S
C204 O194 1.250 . S
C205 O195 1.264 . S
C205 O199 1.248 . S
C206 O196 1.260 . S
C206 O200 1.253 . S
C207 O198 1.279 . S
C207 O201 1.250 . S
O208 Mg190 2.030 . S
O208 C202 1.248 . S
O209 Mg192 2.079 . S
O209 C202 1.264 . S
O210 Mg211 1.990 . S
O210 C224 1.253 . S
Mg211 O210 1.990 . S
Mg211 O214 2.180 . S
Mg211 O215 2.117 . S
Mg211 O229 2.030 . S
O212 Mg213 2.072 . S
O212 C224 1.260 . S
Mg213 O212 2.072 . S
Mg213 O214 2.099 . S
Mg213 O216 2.079 . S
Mg213 O217 2.072 . S
Mg213 O219 2.099 . S
Mg213 O230 2.079 . S
O214 Mg211 2.180 . S
O214 Mg213 2.099 . S
O214 C225 1.279 . S
O215 Mg211 2.117 . S
O215 C225 1.250 . S
O216 Mg213 2.079 . S
O216 C226 1.264 . S
O217 Mg213 2.072 . S
O217 C227 1.260 1_565 S
Mg218 O219 2.180 . S
Mg218 O220 2.030 . S
Mg218 O221 1.990 1_565 S
Mg218 O222 2.117 . S
O219 Mg213 2.099 . S
O219 Mg218 2.180 . S
O219 C228 1.279 . S
O220 Mg218 2.030 . S
O220 C226 1.248 . S
O221 Mg218 1.990 1_545 S
O221 C227 1.253 . S
O222 Mg218 2.117 . S
O222 C228 1.250 . S
C223 O229 1.248 . S
C223 O230 1.264 . S
C224 O210 1.253 . S
C224 O212 1.260 . S
C225 O214 1.279 . S
C225 O215 1.250 . S
C226 O216 1.264 . S
C226 O220 1.248 . S
C227 O217 1.260 1_545 S
C227 O221 1.253 . S
C228 O219 1.279 . S
C228 O222 1.250 . S
O229 Mg211 2.030 . S
O229 C223 1.248 . S
O230 Mg213 2.079 . S
O230 C223 1.264 . S
O231 Mg232 1.990 . S
O231 C245 1.253 . S
Mg232 O231 1.990 . S
Mg232 O235 2.180 . S
Mg232 O236 2.117 . S
Mg232 O250 2.030 . S
O233 Mg234 2.072 . S
O233 C245 1.260 . S
Mg234 O233 2.072 . S
Mg234 O235 2.099 . S
Mg234 O237 2.079 . S
Mg234 O238 2.072 . S
Mg234 O240 2.099 . S
Mg234 O251 2.079 . S
O235 Mg232 2.180 . S
O235 Mg234 2.099 . S
O235 C246 1.279 . S
O236 Mg232 2.117 . S
O236 C246 1.250 . S
O237 Mg234 2.079 . S
O237 C247 1.264 . S
O238 Mg234 2.072 . S
O238 C248 1.260 . S
Mg239 O240 2.180 . S
Mg239 O241 2.030 . S
Mg239 O242 1.990 . S
Mg239 O243 2.117 . S
O240 Mg234 2.099 . S
O240 Mg239 2.180 . S
O240 C249 1.279 . S
O241 Mg239 2.030 . S
O241 C247 1.248 . S
O242 Mg239 1.990 . S
O242 C248 1.253 . S
O243 Mg239 2.117 . S
O243 C249 1.250 . S
C244 O250 1.248 . S
C244 O251 1.264 . S
C245 O231 1.253 . S
C245 O233 1.260 . S
C246 O235 1.279 . S
C246 O236 1.250 . S
C247 O237 1.264 . S
C247 O241 1.248 . S
C248 O238 1.260 . S
C248 O242 1.253 . S
C249 O240 1.279 . S
C249 O243 1.250 . S
O250 Mg232 2.030 . S
O250 C244 1.248 . S
O251 Mg234 2.079 . S
O251 C244 1.264 . S
O252 Mg253 1.990 . S
O252 C266 1.253 . S
Mg253 O252 1.990 . S
Mg253 O256 2.180 . S
Mg253 O257 2.117 . S
Mg253 O271 2.030 . S
O254 Mg255 2.072 . S
O254 C266 1.260 . S
Mg255 O254 2.072 . S
Mg255 O256 2.099 . S
Mg255 O258 2.079 . S
Mg255 O259 2.072 . S
Mg255 O261 2.099 . S
Mg255 O272 2.079 . S
O256 Mg253 2.180 . S
O256 Mg255 2.099 . S
O256 C267 1.279 . S
O257 Mg253 2.117 . S
O257 C267 1.250 . S
O258 Mg255 2.079 . S
O258 C268 1.264 . S
O259 Mg255 2.072 . S
O259 C269 1.260 . S
Mg260 O261 2.180 . S
Mg260 O262 2.030 . S
Mg260 O263 1.990 . S
Mg260 O264 2.117 . S
O261 Mg255 2.099 . S
O261 Mg260 2.180 . S
O261 C270 1.279 . S
O262 Mg260 2.030 . S
O262 C268 1.248 . S
O263 Mg260 1.990 . S
O263 C269 1.253 . S
O264 Mg260 2.117 . S
O264 C270 1.250 . S
C265 O271 1.248 . S
C265 O272 1.264 . S
C266 O252 1.253 . S
C266 O254 1.260 . S
C267 O256 1.279 . S
C267 O257 1.250 . S
C268 O258 1.264 . S
C268 O262 1.248 . S
C269 O259 1.260 . S
C269 O263 1.253 . S
C270 O261 1.279 . S
C270 O264 1.250 . S
O271 Mg253 2.030 . S
O271 C265 1.248 . S
O272 Mg255 2.079 . S
O272 C265 1.264 . S
O273 Mg274 1.990 . S
O273 C287 1.253 . S
Mg274 O273 1.990 . S
Mg274 O277 2.180 . S
Mg274 O278 2.117 . S
Mg274 O292 2.030 . S
O275 Mg276 2.072 . S
O275 C287 1.260 . S
Mg276 O275 2.072 . S
Mg276 O277 2.099 . S
Mg276 O279 2.079 . S
Mg276 O280 2.072 . S
Mg276 O282 2.099 . S
Mg276 O293 2.079 . S
O277 Mg274 2.180 . S
O277 Mg276 2.099 . S
O277 C288 1.279 . S
O278 Mg274 2.117 . S
O278 C288 1.250 . S
O279 Mg276 2.079 . S
O279 C289 1.264 . S
O280 Mg276 2.072 . S
O280 C290 1.260 . S
Mg281 O282 2.180 . S
Mg281 O283 2.030 . S
Mg281 O284 1.990 . S
Mg281 O285 2.117 . S
O282 Mg276 2.099 . S
O282 Mg281 2.180 . S
O282 C291 1.279 . S
O283 Mg281 2.030 . S
O283 C289 1.248 . S
O284 Mg281 1.990 . S
O284 C290 1.253 . S
O285 Mg281 2.117 . S
O285 C291 1.250 . S
C286 O292 1.248 . S
C286 O293 1.264 . S
C287 O273 1.253 . S
C287 O275 1.260 . S
C288 O277 1.279 . S
C288 O278 1.250 . S
C289 O279 1.264 . S
C289 O283 1.248 . S
C290 O280 1.260 . S
C290 O284 1.253 . S
C291 O282 1.279 . S
C291 O285 1.250 . S
O292 Mg274 2.030 . S
O292 C286 1.248 . S
O293 Mg276 2.079 . S
O293 C286 1.264 . S
O294 Mg295 1.990 . S
O294 C308 1.253 . S
Mg295 O294 1.990 . S
Mg295 O298 2.180 . S
Mg295 O299 2.117 . S
Mg295 O313 2.030 . S
O296 Mg297 2.072 . S
O296 C308 1.260 . S
Mg297 O296 2.072 . S
Mg297 O298 2.099 . S
Mg297 O300 2.079 . S
Mg297 O301 2.072 . S
Mg297 O303 2.099 . S
Mg297 O314 2.079 . S
O298 Mg295 2.180 . S
O298 Mg297 2.099 . S
O298 C309 1.279 . S
O299 Mg295 2.117 . S
O299 C309 1.250 . S
O300 Mg297 2.079 . S
O300 C310 1.264 . S
O301 Mg297 2.072 . S
O301 C311 1.260 1_655 S
Mg302 O303 2.180 . S
Mg302 O304 2.030 . S
Mg302 O305 1.990 1_655 S
Mg302 O306 2.117 . S
O303 Mg297 2.099 . S
O303 Mg302 2.180 . S
O303 C312 1.279 . S
O304 Mg302 2.030 . S
O304 C310 1.248 . S
O305 Mg302 1.990 1_455 S
O305 C311 1.253 . S
O306 Mg302 2.117 . S
O306 C312 1.250 . S
C307 O313 1.248 . S
C307 O314 1.264 . S
C308 O294 1.253 . S
C308 O296 1.260 . S
C309 O298 1.279 . S
C309 O299 1.250 . S
C310 O300 1.264 . S
C310 O304 1.248 . S
C311 O301 1.260 1_455 S
C311 O305 1.253 . S
C312 O303 1.279 . S
C312 O306 1.250 . S
O313 Mg295 2.030 . S
O313 C307 1.248 . S
O314 Mg297 2.079 . S
O314 C307 1.264 . S
O315 Mg316 1.990 . S
O315 C329 1.253 . S
Mg316 O315 1.990 . S
Mg316 O319 2.180 . S
Mg316 O320 2.117 . S
Mg316 O334 2.030 . S
O317 Mg318 2.072 . S
O317 C329 1.260 . S
Mg318 O317 2.072 . S
Mg318 O319 2.099 . S
Mg318 O321 2.079 . S
Mg318 O322 2.072 . S
Mg318 O324 2.099 . S
Mg318 O335 2.079 . S
O319 Mg316 2.180 . S
O319 Mg318 2.099 . S
O319 C330 1.279 . S
O320 Mg316 2.117 . S
O320 C330 1.250 . S
O321 Mg318 2.079 . S
O321 C331 1.264 . S
O322 Mg318 2.072 . S
O322 C332 1.260 . S
Mg323 O324 2.180 . S
Mg323 O325 2.030 . S
Mg323 O326 1.990 . S
Mg323 O327 2.117 . S
O324 Mg318 2.099 . S
O324 Mg323 2.180 . S
O324 C333 1.279 . S
O325 Mg323 2.030 . S
O325 C331 1.248 . S
O326 Mg323 1.990 . S
O326 C332 1.253 . S
O327 Mg323 2.117 . S
O327 C333 1.250 . S
C328 O334 1.248 . S
C328 O335 1.264 . S
C329 O315 1.253 . S
C329 O317 1.260 . S
C330 O319 1.279 . S
C330 O320 1.250 . S
C331 O321 1.264 . S
C331 O325 1.248 . S
C332 O322 1.260 . S
C332 O326 1.253 . S
C333 O324 1.279 . S
C333 O327 1.250 . S
O334 Mg316 2.030 . S
O334 C328 1.248 . S
O335 Mg318 2.079 . S
O335 C328 1.264 . S
O336 Mg337 1.990 1_455 S
O336 C350 1.253 . S
Mg337 O336 1.990 1_655 S
Mg337 O340 2.180 . S
Mg337 O341 2.117 . S
Mg337 O355 2.030 . S
O338 Mg339 2.072 . S
O338 C350 1.260 1_655 S
Mg339 O338 2.072 . S
Mg339 O340 2.099 . S
Mg339 O342 2.079 . S
Mg339 O343 2.072 . S
Mg339 O345 2.099 . S
Mg339 O356 2.079 . S
O340 Mg337 2.180 . S
O340 Mg339 2.099 . S
O340 C351 1.279 . S
O341 Mg337 2.117 . S
O341 C351 1.250 . S
O342 Mg339 2.079 . S
O342 C352 1.264 . S
O343 Mg339 2.072 . S
O343 C353 1.260 . S
Mg344 O345 2.180 . S
Mg344 O346 2.030 . S
Mg344 O347 1.990 . S
Mg344 O348 2.117 . S
O345 Mg339 2.099 . S
O345 Mg344 2.180 . S
O345 C354 1.279 . S
O346 Mg344 2.030 . S
O346 C352 1.248 . S
O347 Mg344 1.990 . S
O347 C353 1.253 . S
O348 Mg344 2.117 . S
O348 C354 1.250 . S
C349 O355 1.248 . S
C349 O356 1.264 . S
C350 O336 1.253 . S
C350 O338 1.260 1_455 S
C351 O340 1.279 . S
C351 O341 1.250 . S
C352 O342 1.264 . S
C352 O346 1.248 . S
C353 O343 1.260 . S
C353 O347 1.253 . S
C354 O345 1.279 . S
C354 O348 1.250 . S
O355 Mg337 2.030 . S
O355 C349 1.248 . S
O356 Mg339 2.079 . S
O356 C349 1.264 . S
O357 Mg358 1.990 . S
O357 C371 1.253 . S
Mg358 O357 1.990 . S
Mg358 O361 2.180 . S
Mg358 O362 2.117 . S
Mg358 O376 2.030 . S
O359 Mg360 2.072 . S
O359 C371 1.260 . S
Mg360 O359 2.072 . S
Mg360 O361 2.099 . S
Mg360 O363 2.079 . S
Mg360 O364 2.072 . S
Mg360 O366 2.099 . S
Mg360 O377 2.079 . S
O361 Mg358 2.180 . S
O361 Mg360 2.099 . S
O361 C372 1.279 . S
O362 Mg358 2.117 . S
O362 C372 1.250 . S
O363 Mg360 2.079 . S
O363 C373 1.264 . S
O364 Mg360 2.072 . S
O364 C374 1.260 . S
Mg365 O366 2.180 . S
Mg365 O367 2.030 . S
Mg365 O368 1.990 . S
Mg365 O369 2.117 . S
O366 Mg360 2.099 . S
O366 Mg365 2.180 . S
O366 C375 1.279 . S
O367 Mg365 2.030 . S
O367 C373 1.248 . S
O368 Mg365 1.990 . S
O368 C374 1.253 . S
O369 Mg365 2.117 . S
O369 C375 1.250 . S
C370 O376 1.248 . S
C370 O377 1.264 . S
C371 O357 1.253 . S
C371 O359 1.260 . S
C372 O361 1.279 . S
C372 O362 1.250 . S
C373 O363 1.264 . S
C373 O367 1.248 . S
C374 O364 1.260 . S
C374 O368 1.253 . S
C375 O366 1.279 . S
C375 O369 1.250 . S
O376 Mg358 2.030 . S
O376 C370 1.248 . S
O377 Mg360 2.079 . S
O377 C370 1.264 . S
C378 C379 1.369 . S
C378 C380 1.419 . S
C378 H382 0.930 . S
C379 C378 1.369 . S
C379 C388 1.429 . S
C380 C378 1.419 . S
C380 C381 1.363 . S
C380 H383 0.929 . S
C381 C380 1.363 . S
C381 C387 1.428 . S
H382 C378 0.930 . S
H383 C380 0.929 . S
S384 N385 1.613 . S
S384 N386 1.610 . S
N385 S384 1.613 . S
N385 C388 1.350 . S
N386 S384 1.610 . S
N386 C387 1.351 . S
C387 C381 1.428 . S
C387 N386 1.351 . S
C387 C388 1.434 . S
C388 C379 1.429 . S
C388 N385 1.350 . S
C388 C387 1.434 . S
C389 C390 1.369 . S
C389 C391 1.419 . S
C389 H393 0.930 . S
C390 C389 1.369 . S
C390 C399 1.429 . S
C391 C389 1.419 . S
C391 C392 1.363 . S
C391 H394 0.929 . S
C392 C391 1.363 . S
C392 C398 1.428 . S
H393 C389 0.930 . S
H394 C391 0.929 . S
S395 N396 1.613 . S
S395 N397 1.610 . S
N396 S395 1.613 . S
N396 C399 1.350 . S
N397 S395 1.610 . S
N397 C398 1.351 . S
C398 C392 1.428 . S
C398 N397 1.351 . S
C398 C399 1.434 . S
C399 C390 1.429 . S
C399 N396 1.350 . S
C399 C398 1.434 . S
C400 C401 1.369 . S
C400 C402 1.419 . S
C400 H404 0.930 . S
C401 C400 1.369 . S
C401 C410 1.429 . S
C402 C400 1.419 . S
C402 C403 1.363 . S
C402 H405 0.929 . S
C403 C402 1.363 . S
C403 C409 1.428 . S
H404 C400 0.930 . S
H405 C402 0.929 . S
S406 N407 1.613 . S
S406 N408 1.610 . S
N407 S406 1.613 . S
N407 C410 1.350 . S
N408 S406 1.610 . S
N408 C409 1.351 . S
C409 C403 1.428 . S
C409 N408 1.351 . S
C409 C410 1.434 . S
C410 C401 1.429 . S
C410 N407 1.350 . S
C410 C409 1.434 . S
C411 C412 1.369 . S
C411 C413 1.419 . S
C411 H415 0.930 . S
C412 C411 1.369 . S
C412 C421 1.429 . S
C413 C411 1.419 . S
C413 C414 1.363 . S
C413 H416 0.929 . S
C414 C413 1.363 . S
C414 C420 1.428 . S
H415 C411 0.930 . S
H416 C413 0.929 . S
S417 N418 1.613 . S
S417 N419 1.610 . S
N418 S417 1.613 . S
N418 C421 1.350 . S
N419 S417 1.610 . S
N419 C420 1.351 . S
C420 C414 1.428 . S
C420 N419 1.351 . S
C420 C421 1.434 . S
C421 C412 1.429 . S
C421 N418 1.350 . S
C421 C420 1.434 . S
C422 C423 1.369 . S
C422 C424 1.419 . S
C422 H426 0.930 . S
C423 C422 1.369 . S
C423 C432 1.429 . S
C424 C422 1.419 . S
C424 C425 1.363 . S
C424 H427 0.929 . S
C425 C424 1.363 . S
C425 C431 1.428 . S
H426 C422 0.930 . S
H427 C424 0.929 . S
S428 N429 1.613 . S
S428 N430 1.610 . S
N429 S428 1.613 . S
N429 C432 1.350 . S
N430 S428 1.610 . S
N430 C431 1.351 . S
C431 C425 1.428 . S
C431 N430 1.351 . S
C431 C432 1.434 . S
C432 C423 1.429 . S
C432 N429 1.350 . S
C432 C431 1.434 . S
C433 C434 1.369 . S
C433 C435 1.419 . S
C433 H437 0.930 . S
C434 C433 1.369 . S
C434 C443 1.429 . S
C435 C433 1.419 . S
C435 C436 1.363 . S
C435 H438 0.929 . S
C436 C435 1.363 . S
C436 C442 1.428 . S
H437 C433 0.930 . S
H438 C435 0.929 . S
S439 N440 1.613 . S
S439 N441 1.610 . S
N440 S439 1.613 . S
N440 C443 1.350 . S
N441 S439 1.610 . S
N441 C442 1.351 . S
C442 C436 1.428 . S
C442 N441 1.351 . S
C442 C443 1.434 . S
C443 C434 1.429 . S
C443 N440 1.350 . S
C443 C442 1.434 . S
C444 C445 1.369 . S
C444 C446 1.419 . S
C444 H448 0.930 . S
C445 C444 1.369 . S
C445 C454 1.429 . S
C446 C444 1.419 . S
C446 C447 1.363 . S
C446 H449 0.929 . S
C447 C446 1.363 . S
C447 C453 1.428 . S
H448 C444 0.930 . S
H449 C446 0.929 . S
S450 N451 1.613 . S
S450 N452 1.610 . S
N451 S450 1.613 . S
N451 C454 1.350 . S
N452 S450 1.610 . S
N452 C453 1.351 . S
C453 C447 1.428 . S
C453 N452 1.351 . S
C453 C454 1.434 . S
C454 C445 1.429 . S
C454 N451 1.350 . S
C454 C453 1.434 . S
C455 C456 1.369 . S
C455 C457 1.419 . S
C455 H459 0.930 . S
C456 C455 1.369 . S
C456 C465 1.429 . S
C457 C455 1.419 . S
C457 C458 1.363 . S
C457 H460 0.929 . S
C458 C457 1.363 . S
C458 C464 1.428 . S
H459 C455 0.930 . S
H460 C457 0.929 . S
S461 N462 1.613 . S
S461 N463 1.610 . S
N462 S461 1.613 . S
N462 C465 1.350 . S
N463 S461 1.610 . S
N463 C464 1.351 . S
C464 C458 1.428 . S
C464 N463 1.351 . S
C464 C465 1.434 . S
C465 C456 1.429 . S
C465 N462 1.350 . S
C465 C464 1.434 . S
C466 C467 1.376 . S
C466 C468 1.419 . S
C466 H470 0.930 1_655 S
C467 C466 1.376 . S
C467 C476 1.432 . S
C468 C466 1.419 . S
C468 C469 1.363 . S
C468 H471 0.929 . S
C469 C468 1.363 . S
C469 C475 1.428 . S
H470 C466 0.930 1_455 S
H471 C468 0.929 . S
S472 N473 1.613 . S
S472 N474 1.610 . S
N473 S472 1.613 . S
N473 C476 1.350 . S
N474 S472 1.610 . S
N474 C475 1.351 . S
C475 C469 1.428 . S
C475 N474 1.351 . S
C475 C476 1.434 . S
C476 C467 1.432 . S
C476 N473 1.350 . S
C476 C475 1.434 . S
C477 C478 1.369 . S
C477 C479 1.419 . S
C477 H481 0.930 . S
C478 C477 1.369 . S
C478 C487 1.429 . S
C479 C477 1.419 . S
C479 C480 1.363 . S
C479 H482 0.929 . S
C480 C479 1.363 . S
C480 C486 1.428 . S
H481 C477 0.930 . S
H482 C479 0.929 . S
S483 N484 1.613 . S
S483 N485 1.610 . S
N484 S483 1.613 . S
N484 C487 1.350 . S
N485 S483 1.610 . S
N485 C486 1.351 . S
C486 C480 1.428 . S
C486 N485 1.351 . S
C486 C487 1.434 . S
C487 C478 1.429 . S
C487 N484 1.350 . S
C487 C486 1.434 . S
C488 C489 1.369 . S
C488 C490 1.419 . S
C488 H492 0.930 . S
C489 C488 1.369 . S
C489 C498 1.429 . S
C490 C488 1.419 . S
C490 C491 1.363 . S
C490 H493 0.929 . S
C491 C490 1.363 . S
C491 C497 1.428 . S
H492 C488 0.930 . S
H493 C490 0.929 . S
S494 N495 1.613 . S
S494 N496 1.610 . S
N495 S494 1.613 . S
N495 C498 1.350 . S
N496 S494 1.610 . S
N496 C497 1.351 . S
C497 C491 1.428 . S
C497 N496 1.351 . S
C497 C498 1.434 . S
C498 C489 1.429 . S
C498 N495 1.350 . S
C498 C497 1.434 . S
C499 C500 1.369 . S
C499 C501 1.419 . S
C499 H503 0.930 . S
C500 C499 1.369 . S
C500 C509 1.429 . S
C501 C499 1.419 . S
C501 C502 1.363 . S
C501 H504 0.929 . S
C502 C501 1.363 . S
C502 C508 1.428 . S
H503 C499 0.930 . S
H504 C501 0.929 . S
S505 N506 1.613 . S
S505 N507 1.610 . S
N506 S505 1.613 . S
N506 C509 1.350 . S
N507 S505 1.610 . S
N507 C508 1.351 . S
C508 C502 1.428 . S
C508 N507 1.351 . S
C508 C509 1.434 . S
C509 C500 1.429 . S
C509 N506 1.350 . S
C509 C508 1.434 . S
C510 C511 1.369 . S
C510 C512 1.419 . S
C510 H514 0.930 . S
C511 C510 1.369 . S
C511 C520 1.429 . S
C512 C510 1.419 . S
C512 C513 1.363 . S
C512 H515 0.929 . S
C513 C512 1.363 . S
C513 C519 1.428 . S
H514 C510 0.930 . S
H515 C512 0.929 . S
S516 N517 1.613 1_455 S
S516 N518 1.610 . S
N517 S516 1.613 1_655 S
N517 C520 1.350 . S
N518 S516 1.610 . S
N518 C519 1.351 1_455 S
C519 C513 1.428 . S
C519 N518 1.351 1_655 S
C519 C520 1.434 . S
C520 C511 1.429 . S
C520 N517 1.350 . S
C520 C519 1.434 . S
C521 C522 1.369 . S
C521 C523 1.419 . S
C521 H525 0.930 . S
C522 C521 1.369 . S
C522 C531 1.429 . S
C523 C521 1.419 . S
C523 C524 1.363 . S
C523 H526 0.929 . S
C524 C523 1.363 . S
C524 C530 1.428 . S
H525 C521 0.930 . S
H526 C523 0.929 . S
S527 N528 1.613 . S
S527 N529 1.610 . S
N528 S527 1.613 . S
N528 C531 1.350 . S
N529 S527 1.610 . S
N529 C530 1.351 . S
C530 C524 1.428 . S
C530 N529 1.351 . S
C530 C531 1.434 . S
C531 C522 1.429 . S
C531 N528 1.350 . S
C531 C530 1.434 . S
C532 C533 1.369 . S
C532 C534 1.419 . S
C532 H536 0.930 . S
C533 C532 1.369 . S
C533 C542 1.429 . S
C534 C532 1.419 . S
C534 C535 1.363 . S
C534 H537 0.929 . S
C535 C534 1.363 . S
C535 C541 1.428 . S
H536 C532 0.930 . S
H537 C534 0.929 . S
S538 N539 1.613 1_565 S
S538 N540 1.610 1_565 S
N539 S538 1.613 1_545 S
N539 C542 1.350 . S
N540 S538 1.610 1_545 S
N540 C541 1.351 . S
C541 C535 1.428 . S
C541 N540 1.351 . S
C541 C542 1.434 . S
C542 C533 1.429 . S
C542 N539 1.350 . S
C542 C541 1.434 . S
C543 C544 1.369 . S
C543 C545 1.419 . S
C543 H547 0.930 . S
C544 C543 1.369 . S
C544 C553 1.429 . S
C545 C543 1.419 . S
C545 C546 1.363 . S
C545 H548 0.929 . S
C546 C545 1.363 . S
C546 C552 1.428 . S
H547 C543 0.930 . S
H548 C545 0.929 . S
S549 N550 1.613 . S
S549 N551 1.610 1_655 S
N550 S549 1.613 . S
N550 C553 1.350 1_655 S
N551 S549 1.610 1_455 S
N551 C552 1.351 . S
C552 C546 1.428 . S
C552 N551 1.351 . S
C552 C553 1.434 . S
C553 C544 1.429 . S
C553 N550 1.350 1_455 S
C553 C552 1.434 . S
C554 C555 1.369 . S
C554 C556 1.419 . S
C554 H558 0.930 . S
C555 C554 1.369 . S
C555 C564 1.429 . S
C556 C554 1.419 . S
C556 C557 1.369 . S
C556 H559 0.929 . S
C557 C556 1.369 . S
C557 C563 1.430 . S
H558 C554 0.930 . S
H559 C556 0.929 . S
S560 N561 1.613 . S
S560 N562 1.610 . S
N561 S560 1.613 . S
N561 C564 1.350 . S
N562 S560 1.610 . S
N562 C563 1.351 . S
C563 C557 1.430 . S
C563 N562 1.351 . S
C563 C564 1.434 . S
C564 C555 1.429 . S
C564 N561 1.350 . S
C564 C563 1.434 . S
C565 C566 1.369 . S
C565 C567 1.419 . S
C565 H569 0.930 . S
C566 C565 1.369 . S
C566 C575 1.429 . S
C567 C565 1.419 . S
C567 C568 1.363 . S
C567 H570 0.929 . S
C568 C567 1.363 . S
C568 C574 1.428 . S
H569 C565 0.930 . S
H570 C567 0.929 . S
S571 N572 1.613 . S
S571 N573 1.610 . S
N572 S571 1.613 . S
N572 C575 1.350 . S
N573 S571 1.610 . S
N573 C574 1.351 . S
C574 C568 1.428 . S
C574 N573 1.351 . S
C574 C575 1.434 . S
C575 C566 1.429 . S
C575 N572 1.350 . S
C575 C574 1.434 . S
C576 C577 1.369 . S
C576 C578 1.419 1_554 S
C576 H580 0.930 . S
C577 C576 1.369 . S
C577 C586 1.429 1_545 S
C578 C576 1.419 1_556 S
C578 C579 1.363 . S
C578 H581 0.929 . S
C579 C578 1.363 . S
C579 C585 1.428 1_545 S
H580 C576 0.930 . S
H581 C578 0.929 . S
S582 N583 1.613 . S
S582 N584 1.610 1_554 S
N583 S582 1.613 . S
N583 C586 1.350 . S
N584 S582 1.610 1_556 S
N584 C585 1.351 . S
C585 C579 1.428 1_565 S
C585 N584 1.351 . S
C585 C586 1.434 1_556 S
C586 C577 1.429 1_565 S
C586 N583 1.350 . S
C586 C585 1.434 1_554 S
C587 C588 1.369 1_655 S
C587 C589 1.419 1_556 S
C587 H591 0.930 . S
C588 C587 1.369 1_455 S
C588 C597 1.429 . S
C589 C587 1.419 1_554 S
C589 C590 1.363 1_655 S
C589 H592 0.929 . S
C590 C589 1.363 1_455 S
C590 C596 1.428 . S
H591 C587 0.930 . S
H592 C589 0.929 . S
S593 N594 1.613 1_554 S
S593 N595 1.610 . S
N594 S593 1.613 1_556 S
N594 C597 1.350 . S
N595 S593 1.610 . S
N595 C596 1.351 . S
C596 C590 1.428 . S
C596 N595 1.351 . S
C596 C597 1.434 1_554 S
C597 C588 1.429 . S
C597 N594 1.350 . S
C597 C596 1.434 1_556 S
C598 C599 1.369 . S
C598 C600 1.419 1_556 S
C598 H602 0.930 . S
C599 C598 1.369 . S
C599 C608 1.429 . S
C600 C598 1.419 1_554 S
C600 C601 1.363 . S
C600 H603 0.929 . S
C601 C600 1.363 . S
C601 C607 1.428 . S
H602 C598 0.930 . S
H603 C600 0.929 . S
S604 N605 1.613 . S
S604 N606 1.610 1_556 S
N605 S604 1.613 . S
N605 C608 1.350 . S
N606 S604 1.610 1_554 S
N606 C607 1.351 . S
C607 C601 1.428 . S
C607 N606 1.351 . S
C607 C608 1.434 1_554 S
C608 C599 1.429 . S
C608 N605 1.350 . S
C608 C607 1.434 1_556 S
C609 C610 1.369 . S
C609 C611 1.419 . S
C609 H613 0.930 . S
C610 C609 1.369 . S
C610 C619 1.429 . S
C611 C609 1.419 . S
C611 C612 1.363 . S
C611 H614 0.929 . S
C612 C611 1.363 . S
C612 C618 1.428 . S
H613 C609 0.930 . S
H614 C611 0.929 . S
S615 N616 1.613 1_655 S
S615 N617 1.610 1_655 S
N616 S615 1.613 1_455 S
N616 C619 1.350 . S
N617 S615 1.610 1_455 S
N617 C618 1.351 . S
C618 C612 1.428 . S
C618 N617 1.351 . S
C618 C619 1.434 . S
C619 C610 1.429 . S
C619 N616 1.350 . S
C619 C618 1.434 . S
C620 C621 1.369 . S
C620 C622 1.419 . S
C620 H624 0.930 . S
C621 C620 1.369 . S
C621 C630 1.429 . S
C622 C620 1.419 . S
C622 C623 1.363 . S
C622 H625 0.929 . S
C623 C622 1.363 . S
C623 C629 1.428 . S
H624 C620 0.930 . S
H625 C622 0.929 . S
S626 N627 1.613 . S
S626 N628 1.610 . S
N627 S626 1.613 . S
N627 C630 1.350 . S
N628 S626 1.610 . S
N628 C629 1.351 . S
C629 C623 1.428 . S
C629 N628 1.351 . S
C629 C630 1.434 . S
C630 C621 1.429 . S
C630 N627 1.350 . S
C630 C629 1.434 . S
C631 C632 1.369 . S
C631 C633 1.419 . S
C631 H635 0.930 . S
C632 C631 1.369 . S
C632 C641 1.429 . S
C633 C631 1.419 . S
C633 C634 1.363 . S
C633 H636 0.929 . S
C634 C633 1.363 . S
C634 C640 1.428 . S
H635 C631 0.930 . S
H636 C633 0.929 . S
S637 N638 1.613 1_545 S
S637 N639 1.610 1_545 S
N638 S637 1.613 1_565 S
N638 C641 1.350 . S
N639 S637 1.610 1_565 S
N639 C640 1.351 . S
C640 C634 1.428 . S
C640 N639 1.351 . S
C640 C641 1.434 . S
C641 C632 1.429 . S
C641 N638 1.350 . S
C641 C640 1.434 . S
C642 C643 1.369 . S
C642 C644 1.419 . S
C642 H646 0.930 . S
C643 C642 1.369 . S
C643 C652 1.429 . S
C644 C642 1.419 . S
C644 C645 1.363 . S
C644 H647 0.929 . S
C645 C644 1.363 . S
C645 C651 1.428 . S
H646 C642 0.930 . S
H647 C644 0.929 . S
S648 N649 1.613 . S
S648 N650 1.610 . S
N649 S648 1.613 . S
N649 C652 1.350 . S
N650 S648 1.610 . S
N650 C651 1.351 . S
C651 C645 1.428 . S
C651 N650 1.351 . S
C651 C652 1.434 . S
C652 C643 1.429 . S
C652 N649 1.350 . S
C652 C651 1.434 . S
C653 C654 1.369 . S
C653 C655 1.419 . S
C653 H657 0.930 . S
C654 C653 1.369 . S
C654 C663 1.429 . S
C655 C653 1.419 . S
C655 C656 1.363 . S
C655 H658 0.929 . S
C656 C655 1.363 . S
C656 C662 1.428 . S
H657 C653 0.930 . S
H658 C655 0.929 . S
S659 N660 1.613 . S
S659 N661 1.610 . S
N660 S659 1.613 . S
N660 C663 1.350 . S
N661 S659 1.610 . S
N661 C662 1.351 . S
C662 C656 1.428 . S
C662 N661 1.351 . S
C662 C663 1.434 . S
C663 C654 1.429 . S
C663 N660 1.350 . S
C663 C662 1.434 . S
C664 C665 1.369 . S
C664 C666 1.419 . S
C664 H668 0.930 . S
C665 C664 1.369 . S
C665 C674 1.429 . S
C666 C664 1.419 . S
C666 C667 1.363 . S
C666 H669 0.929 . S
C667 C666 1.363 . S
C667 C673 1.428 . S
H668 C664 0.930 . S
H669 C666 0.929 . S
S670 N671 1.613 . S
S670 N672 1.610 . S
N671 S670 1.613 . S
N671 C674 1.350 . S
N672 S670 1.610 . S
N672 C673 1.351 . S
C673 C667 1.428 . S
C673 N672 1.351 . S
C673 C674 1.434 . S
C674 C665 1.429 . S
C674 N671 1.350 . S
C674 C673 1.434 . S
C675 C676 1.369 . S
C675 C677 1.419 . S
C675 H679 0.930 . S
C676 C675 1.369 . S
C676 C685 1.429 . S
C677 C675 1.419 . S
C677 C678 1.363 . S
C677 H680 0.929 . S
C678 C677 1.363 . S
C678 C684 1.428 . S
H679 C675 0.930 . S
H680 C677 0.929 . S
S681 N682 1.613 . S
S681 N683 1.610 . S
N682 S681 1.613 . S
N682 C685 1.350 . S
N683 S681 1.610 . S
N683 C684 1.351 . S
C684 C678 1.428 . S
C684 N683 1.351 . S
C684 C685 1.434 . S
C685 C676 1.429 . S
C685 N682 1.350 . S
C685 C684 1.434 . S
C686 C687 1.369 . S
C686 C688 1.419 . S
C686 H690 0.930 1_455 S
C687 C686 1.369 . S
C687 C696 1.429 . S
C688 C686 1.419 . S
C688 C689 1.363 . S
C688 H691 0.929 . S
C689 C688 1.363 . S
C689 C695 1.428 . S
H690 C686 0.930 1_655 S
H691 C688 0.929 . S
S692 N693 1.613 . S
S692 N694 1.610 . S
N693 S692 1.613 . S
N693 C696 1.350 . S
N694 S692 1.610 . S
N694 C695 1.351 . S
C695 C689 1.428 . S
C695 N694 1.351 . S
C695 C696 1.434 . S
C696 C687 1.429 . S
C696 N693 1.350 . S
C696 C695 1.434 . S
C697 C698 1.369 . S
C697 C699 1.419 . S
C697 H701 0.930 . S
C698 C697 1.369 . S
C698 C707 1.429 . S
C699 C697 1.419 . S
C699 C700 1.363 . S
C699 H702 0.929 . S
C700 C699 1.363 . S
C700 C706 1.428 . S
H701 C697 0.930 . S
H702 C699 0.929 . S
S703 N704 1.613 . S
S703 N705 1.610 . S
N704 S703 1.613 . S
N704 C707 1.350 . S
N705 S703 1.610 . S
N705 C706 1.351 . S
C706 C700 1.428 . S
C706 N705 1.351 . S
C706 C707 1.434 . S
C707 C698 1.429 . S
C707 N704 1.350 . S
C707 C706 1.434 . S
C708 C709 1.369 . S
C708 C710 1.419 . S
C708 H712 0.930 1_655 S
C709 C708 1.369 . S
C709 C718 1.429 . S
C710 C708 1.419 . S
C710 C711 1.363 . S
C710 H713 0.929 . S
C711 C710 1.363 . S
C711 C717 1.428 . S
H712 C708 0.930 1_455 S
H713 C710 0.929 . S
S714 N715 1.613 . S
S714 N716 1.610 . S
N715 S714 1.613 . S
N715 C718 1.350 . S
N716 S714 1.610 . S
N716 C717 1.351 . S
C717 C711 1.428 . S
C717 N716 1.351 . S
C717 C718 1.434 . S
C718 C709 1.429 . S
C718 N715 1.350 . S
C718 C717 1.434 . S
C719 C720 1.369 . S
C719 C721 1.419 . S
C719 H723 0.930 . S
C720 C719 1.369 . S
C720 C729 1.429 . S
C721 C719 1.419 . S
C721 C722 1.363 . S
C721 H724 0.929 . S
C722 C721 1.363 . S
C722 C728 1.428 . S
H723 C719 0.930 . S
H724 C721 0.929 . S
S725 N726 1.613 . S
S725 N727 1.610 . S
N726 S725 1.613 . S
N726 C729 1.350 . S
N727 S725 1.610 . S
N727 C728 1.351 . S
C728 C722 1.428 . S
C728 N727 1.351 . S
C728 C729 1.434 . S
C729 C720 1.429 . S
C729 N726 1.350 . S
C729 C728 1.434 . S
C730 C731 1.369 . S
C730 C732 1.419 . S
C730 H734 0.930 . S
C731 C730 1.369 . S
C731 C740 1.429 . S
C732 C730 1.419 . S
C732 C733 1.363 . S
C732 H735 0.929 . S
C733 C732 1.363 . S
C733 C739 1.428 . S
H734 C730 0.930 . S
H735 C732 0.929 . S
S736 N737 1.613 . S
S736 N738 1.610 . S
N737 S736 1.613 . S
N737 C740 1.350 . S
N738 S736 1.610 . S
N738 C739 1.351 . S
C739 C733 1.428 . S
C739 N738 1.351 . S
C739 C740 1.434 . S
C740 C731 1.429 . S
C740 N737 1.350 . S
C740 C739 1.434 . S
C741 C742 1.369 1_455 S
C741 C743 1.419 . S
C741 H745 0.930 . S
C742 C741 1.369 1_655 S
C742 C751 1.429 . S
C743 C741 1.419 . S
C743 C744 1.363 . S
C743 H746 0.929 . S
C744 C743 1.363 . S
C744 C750 1.428 . S
H745 C741 0.930 . S
H746 C743 0.929 . S
S747 N748 1.613 . S
S747 N749 1.610 . S
N748 S747 1.613 . S
N748 C751 1.350 . S
N749 S747 1.610 . S
N749 C750 1.351 1_655 S
C750 C744 1.428 . S
C750 N749 1.351 1_455 S
C750 C751 1.434 1_455 S
C751 C742 1.429 . S
C751 N748 1.350 . S
C751 C750 1.434 1_655 S
C752 C753 1.369 . S
C752 C754 1.419 . S
C752 H756 0.930 . S
C753 C752 1.369 . S
C753 C762 1.429 . S
C754 C752 1.419 . S
C754 C755 1.363 . S
C754 H757 0.929 . S
C755 C754 1.363 . S
C755 C761 1.428 . S
H756 C752 0.930 . S
H757 C754 0.929 . S
S758 N759 1.613 . S
S758 N760 1.610 . S
N759 S758 1.613 . S
N759 C762 1.350 . S
N760 S758 1.610 . S
N760 C761 1.351 . S
C761 C755 1.428 . S
C761 N760 1.351 . S
C761 C762 1.434 . S
C762 C753 1.429 . S
C762 N759 1.350 . S
C762 C761 1.434 . S
C763 C764 1.369 . S
C763 C765 1.419 1_565 S
C763 H767 0.930 . S
C764 C763 1.369 . S
C764 C773 1.429 1_565 S
C765 C763 1.419 1_545 S
C765 C766 1.363 . S
C765 H768 0.929 1_545 S
C766 C765 1.363 . S
C766 C772 1.428 . S
H767 C763 0.930 . S
H768 C765 0.929 1_565 S
S769 N770 1.613 . S
S769 N771 1.610 . S
N770 S769 1.613 . S
N770 C773 1.350 . S
N771 S769 1.610 . S
N771 C772 1.351 . S
C772 C766 1.428 . S
C772 N771 1.351 . S
C772 C773 1.434 . S
C773 C764 1.429 1_545 S
C773 N770 1.350 . S
C773 C772 1.434 . S
C774 C775 1.369 . S
C774 C776 1.419 . S
C774 H778 0.930 . S
C775 C774 1.369 . S
C775 C784 1.429 . S
C776 C774 1.419 . S
C776 C777 1.363 . S
C776 H779 0.929 . S
C777 C776 1.363 . S
C777 C783 1.428 . S
H778 C774 0.930 . S
H779 C776 0.929 . S
S780 N781 1.613 . S
S780 N782 1.610 . S
N781 S780 1.613 . S
N781 C784 1.350 . S
N782 S780 1.610 . S
N782 C783 1.351 . S
C783 C777 1.428 . S
C783 N782 1.351 . S
C783 C784 1.434 . S
C784 C775 1.429 . S
C784 N781 1.350 . S
C784 C783 1.434 . S
C785 C786 1.369 . S
C785 C787 1.419 . S
C785 H789 0.930 . S
C786 C785 1.369 . S
C786 C795 1.429 . S
C787 C785 1.419 . S
C787 C788 1.363 . S
C787 H790 0.929 . S
C788 C787 1.363 . S
C788 C794 1.428 . S
H789 C785 0.930 . S
H790 C787 0.929 . S
S791 N792 1.613 . S
S791 N793 1.610 . S
N792 S791 1.613 . S
N792 C795 1.350 . S
N793 S791 1.610 . S
N793 C794 1.351 . S
C794 C788 1.428 . S
C794 N793 1.351 . S
C794 C795 1.434 . S
C795 C786 1.429 . S
C795 N792 1.350 . S
C795 C794 1.434 . S
C796 C797 1.369 . S
C796 C798 1.419 . S
C796 H800 0.930 . S
C797 C796 1.369 . S
C797 C806 1.429 . S
C798 C796 1.419 . S
C798 C799 1.363 . S
C798 H801 0.929 . S
C799 C798 1.363 . S
C799 C805 1.428 . S
H800 C796 0.930 . S
H801 C798 0.929 . S
S802 N803 1.613 . S
S802 N804 1.610 . S
N803 S802 1.613 . S
N803 C806 1.350 . S
N804 S802 1.610 . S
N804 C805 1.351 . S
C805 C799 1.428 . S
C805 N804 1.351 . S
C805 C806 1.434 . S
C806 C797 1.429 . S
C806 N803 1.350 . S
C806 C805 1.434 . S
C807 C808 1.369 . S
C807 C809 1.419 . S
C807 H811 0.930 . S
C808 C807 1.369 . S
C808 C817 1.429 . S
C809 C807 1.419 . S
C809 C810 1.363 . S
C809 H812 0.929 . S
C810 C809 1.363 . S
C810 C816 1.428 . S
H811 C807 0.930 . S
H812 C809 0.929 . S
S813 N814 1.613 . S
S813 N815 1.610 . S
N814 S813 1.613 . S
N814 C817 1.350 . S
N815 S813 1.610 . S
N815 C816 1.351 . S
C816 C810 1.428 . S
C816 N815 1.351 . S
C816 C817 1.434 . S
C817 C808 1.429 . S
C817 N814 1.350 . S
C817 C816 1.434 . S
C818 C819 1.369 . S
C818 C820 1.419 . S
C818 H822 0.930 . S
C819 C818 1.369 . S
C819 C828 1.429 . S
C820 C818 1.419 . S
C820 C821 1.363 . S
C820 H823 0.929 . S
C821 C820 1.363 . S
C821 C827 1.428 . S
H822 C818 0.930 . S
H823 C820 0.929 . S
S824 N825 1.613 . S
S824 N826 1.610 . S
N825 S824 1.613 . S
N825 C828 1.350 . S
N826 S824 1.610 . S
N826 C827 1.351 . S
C827 C821 1.428 . S
C827 N826 1.351 . S
C827 C828 1.434 . S
C828 C819 1.429 . S
C828 N825 1.350 . S
C828 C827 1.434 . S
C829 C830 1.369 . S
C829 C831 1.419 . S
C829 H833 0.930 . S
C830 C829 1.369 . S
C830 C839 1.429 . S
C831 C829 1.419 . S
C831 C832 1.363 . S
C831 H834 0.929 . S
C832 C831 1.363 . S
C832 C838 1.428 . S
H833 C829 0.930 . S
H834 C831 0.929 . S
S835 N836 1.613 . S
S835 N837 1.610 . S
N836 S835 1.613 . S
N836 C839 1.350 . S
N837 S835 1.610 . S
N837 C838 1.351 . S
C838 C832 1.428 . S
C838 N837 1.351 . S
C838 C839 1.434 . S
C839 C830 1.429 . S
C839 N836 1.350 . S
C839 C838 1.434 . S
C840 C841 1.369 . S
C840 C842 1.419 . S
C840 H844 0.930 . S
C841 C840 1.369 . S
C841 C850 1.429 . S
C842 C840 1.419 . S
C842 C843 1.363 . S
C842 H845 0.929 . S
C843 C842 1.363 . S
C843 C849 1.428 . S
H844 C840 0.930 . S
H845 C842 0.929 . S
S846 N847 1.613 . S
S846 N848 1.610 . S
N847 S846 1.613 . S
N847 C850 1.350 . S
N848 S846 1.610 . S
N848 C849 1.351 . S
C849 C843 1.428 . S
C849 N848 1.351 . S
C849 C850 1.434 . S
C850 C841 1.429 . S
C850 N847 1.350 . S
C850 C849 1.434 . S
C851 C852 1.369 . S
C851 C853 1.419 . S
C851 H855 0.930 . S
C852 C851 1.369 . S
C852 C861 1.429 . S
C853 C851 1.419 . S
C853 C854 1.363 . S
C853 H856 0.929 . S
C854 C853 1.363 . S
C854 C860 1.428 . S
H855 C851 0.930 . S
H856 C853 0.929 . S
S857 N858 1.613 . S
S857 N859 1.610 . S
N858 S857 1.613 . S
N858 C861 1.350 . S
N859 S857 1.610 . S
N859 C860 1.351 . S
C860 C854 1.428 . S
C860 N859 1.351 . S
C860 C861 1.434 . S
C861 C852 1.429 . S
C861 N858 1.350 . S
C861 C860 1.434 . S
C862 C863 1.369 . S
C862 C864 1.419 . S
C862 H866 0.930 . S
C863 C862 1.369 . S
C863 C872 1.429 . S
C864 C862 1.419 . S
C864 C865 1.363 . S
C864 H867 0.929 . S
C865 C864 1.363 . S
C865 C871 1.428 . S
H866 C862 0.930 . S
H867 C864 0.929 . S
S868 N869 1.613 . S
S868 N870 1.610 . S
N869 S868 1.613 . S
N869 C872 1.350 . S
N870 S868 1.610 . S
N870 C871 1.351 . S
C871 C865 1.428 . S
C871 N870 1.351 . S
C871 C872 1.434 . S
C872 C863 1.429 . S
C872 N869 1.350 . S
C872 C871 1.434 . S
C873 C874 1.369 . S
C873 C875 1.419 . S
C873 H877 0.930 . S
C874 C873 1.369 . S
C874 C883 1.429 . S
C875 C873 1.419 . S
C875 C876 1.363 . S
C875 H878 0.929 . S
C876 C875 1.363 . S
C876 C882 1.428 . S
H877 C873 0.930 . S
H878 C875 0.929 . S
S879 N880 1.613 . S
S879 N881 1.610 1_655 S
N880 S879 1.613 . S
N880 C883 1.350 . S
N881 S879 1.610 1_455 S
N881 C882 1.351 1_455 S
C882 C876 1.428 . S
C882 N881 1.351 1_655 S
C882 C883 1.434 . S
C883 C874 1.429 . S
C883 N880 1.350 . S
C883 C882 1.434 . S
C884 C885 1.369 . S
C884 C886 1.419 . S
C884 H888 0.930 . S
C885 C884 1.369 . S
C885 C894 1.429 . S
C886 C884 1.419 . S
C886 C887 1.363 . S
C886 H889 0.929 . S
C887 C886 1.363 . S
C887 C893 1.428 . S
H888 C884 0.930 . S
H889 C886 0.929 . S
S890 N891 1.613 . S
S890 N892 1.610 . S
N891 S890 1.613 . S
N891 C894 1.350 . S
N892 S890 1.610 . S
N892 C893 1.351 . S
C893 C887 1.428 . S
C893 N892 1.351 . S
C893 C894 1.434 . S
C894 C885 1.429 . S
C894 N891 1.350 . S
C894 C893 1.434 . S
C895 C896 1.369 . S
C895 C897 1.419 . S
C895 H899 0.930 . S
C896 C895 1.369 . S
C896 C905 1.429 . S
C897 C895 1.419 . S
C897 C898 1.363 . S
C897 H900 0.929 . S
C898 C897 1.363 . S
C898 C904 1.428 . S
H899 C895 0.930 . S
H900 C897 0.929 . S
S901 N902 1.613 . S
S901 N903 1.610 . S
N902 S901 1.613 . S
N902 C905 1.350 . S
N903 S901 1.610 . S
N903 C904 1.351 . S
C904 C898 1.428 . S
C904 N903 1.351 . S
C904 C905 1.434 . S
C905 C896 1.429 . S
C905 N902 1.350 . S
C905 C904 1.434 . S
C906 C907 1.369 . S
C906 C908 1.419 . S
C906 H910 0.930 . S
C907 C906 1.369 . S
C907 C916 1.429 . S
C908 C906 1.419 . S
C908 C909 1.363 . S
C908 H911 0.929 . S
C909 C908 1.363 . S
C909 C915 1.428 . S
H910 C906 0.930 . S
H911 C908 0.929 . S
S912 N913 1.613 . S
S912 N914 1.610 . S
N913 S912 1.613 . S
N913 C916 1.350 . S
N914 S912 1.610 . S
N914 C915 1.351 . S
C915 C909 1.428 . S
C915 N914 1.351 . S
C915 C916 1.434 . S
C916 C907 1.429 . S
C916 N913 1.350 . S
C916 C915 1.434 . S
C917 C918 1.369 . S
C917 C919 1.419 . S
C917 H921 0.930 1_565 S
C918 C917 1.369 . S
C918 C927 1.429 . S
C919 C917 1.419 . S
C919 C920 1.363 . S
C919 H922 0.929 . S
C920 C919 1.363 . S
C920 C926 1.428 . S
H921 C917 0.930 1_545 S
H922 C919 0.929 . S
S923 N924 1.613 . S
S923 N925 1.610 . S
N924 S923 1.613 . S
N924 C927 1.350 . S
N925 S923 1.610 . S
N925 C926 1.351 . S
C926 C920 1.428 . S
C926 N925 1.351 . S
C926 C927 1.434 . S
C927 C918 1.429 . S
C927 N924 1.350 . S
C927 C926 1.434 . S
C928 C929 1.369 . S
C928 C930 1.419 . S
C928 H932 0.930 . S
C929 C928 1.369 . S
C929 C938 1.429 . S
C930 C928 1.419 . S
C930 C931 1.363 . S
C930 H933 0.929 . S
C931 C930 1.363 . S
C931 C937 1.428 . S
H932 C928 0.930 . S
H933 C930 0.929 . S
S934 N935 1.613 . S
S934 N936 1.610 . S
N935 S934 1.613 . S
N935 C938 1.350 . S
N936 S934 1.610 . S
N936 C937 1.351 . S
C937 C931 1.428 . S
C937 N936 1.351 . S
C937 C938 1.434 . S
C938 C929 1.429 . S
C938 N935 1.350 . S
C938 C937 1.434 . S
C939 C940 1.369 . S
C939 C941 1.419 . S
C939 H943 0.930 . S
C940 C939 1.369 . S
C940 C949 1.429 . S
C941 C939 1.419 . S
C941 C942 1.363 . S
C941 H944 0.929 . S
C942 C941 1.363 . S
C942 C948 1.428 . S
H943 C939 0.930 . S
H944 C941 0.929 . S
S945 N946 1.613 1_565 S
S945 N947 1.610 1_565 S
N946 S945 1.613 1_545 S
N946 C949 1.350 . S
N947 S945 1.610 1_545 S
N947 C948 1.351 . S
C948 C942 1.428 . S
C948 N947 1.351 . S
C948 C949 1.434 . S
C949 C940 1.429 . S
C949 N946 1.350 . S
C949 C948 1.434 . S
C950 C951 1.369 . S
C950 C952 1.419 . S
C950 H954 0.930 . S
C951 C950 1.369 . S
C951 C960 1.429 . S
C952 C950 1.419 . S
C952 C953 1.363 . S
C952 H955 0.929 . S
C953 C952 1.363 . S
C953 C959 1.428 . S
H954 C950 0.930 . S
H955 C952 0.929 . S
S956 N957 1.613 . S
S956 N958 1.610 . S
N957 S956 1.613 . S
N957 C960 1.350 . S
N958 S956 1.610 . S
N958 C959 1.351 . S
C959 C953 1.428 . S
C959 N958 1.351 . S
C959 C960 1.434 . S
C960 C951 1.429 . S
C960 N957 1.350 . S
C960 C959 1.434 . S
C961 C962 1.369 . S
C961 C963 1.419 . S
C961 H965 0.930 . S
C962 C961 1.369 . S
C962 C971 1.429 . S
C963 C961 1.419 . S
C963 C964 1.363 . S
C963 H966 0.929 . S
C964 C963 1.363 . S
C964 C970 1.428 . S
H965 C961 0.930 . S
H966 C963 0.929 . S
S967 N968 1.613 . S
S967 N969 1.610 . S
N968 S967 1.613 . S
N968 C971 1.350 . S
N969 S967 1.610 . S
N969 C970 1.351 . S
C970 C964 1.428 . S
C970 N969 1.351 . S
C970 C971 1.434 . S
C971 C962 1.429 . S
C971 N968 1.350 . S
C971 C970 1.434 . S
C379 C13 0.985 . S
C381 C56 1.005 . S
C390 C14 1.014 . S
C392 C34 0.996 . S
C401 C35 1.008 . S
C403 C55 0.989 . S
C412 C76 0.984 . S
C414 C98 1.002 . S
C423 C119 1.002 . S
C425 C97 0.993 . S
C434 C118 0.994 . S
C436 C77 1.011 . S
C445 C182 1.006 . S
C447 C139 0.997 . S
C456 C140 1.012 1_655 S
C458 C160 0.999 1_545 S
C467 C181 0.986 1_655 S
C469 C161 1.011 . S
C478 C224 1.007 . S
C480 C202 0.988 . S
C489 C223 0.999 . S
C491 C245 1.012 . S
C500 C203 0.999 . S
C502 C244 0.989 . S
C511 C265 0.988 . S
C513 C308 1.008 . S
C522 C266 1.014 . S
C524 C286 0.996 . S
C533 C287 1.013 . S
C535 C307 0.994 . S
C544 C350 1.000 . S
C546 C328 0.991 . S
C555 C371 1.010 . S
C557 C349 0.985 1_565 S
C566 C329 1.012 1_565 S
C568 C370 0.999 1_455 S
C577 C15 1.283 . S
C579 C120 1.296 . S
C588 C78 1.300 . S
C590 C36 1.283 . S
C599 C99 1.287 . S
C601 C57 1.294 . S
C610 C141 1.281 . S
C612 C246 1.297 . S
C621 C162 1.284 . S
C623 C204 1.293 . S
C632 C225 1.297 . S
C634 C183 1.284 . S
C643 C267 1.299 . S
C645 C372 1.283 . S
C654 C330 1.298 . S
C656 C288 1.285 . S
C665 C351 1.283 . S
C667 C309 1.296 . S
C676 C228 1.603 . S
C678 C18 1.604 1_565 S
C687 C39 1.607 . S
C689 C249 1.605 . S
C698 C207 1.603 . S
C700 C60 1.602 . S
C709 C81 1.607 1_655 S
C711 C312 1.605 . S
C720 C102 1.597 . S
C722 C270 1.599 . S
C731 C291 1.604 . S
C733 C123 1.602 . S
C742 C354 1.598 . S
C744 C144 1.600 . S
C753 C165 1.596 . S
C755 C375 1.598 . S
C764 C186 1.597 . S
C766 C333 1.597 . S
C775 C58 1.480 . S
C777 C17 1.361 . S
C786 C16 1.479 . S
C788 C38 1.365 . S
C797 C59 1.372 . S
C799 C37 1.483 . S
C808 C100 1.478 . S
C810 C80 1.360 . S
C819 C121 1.482 . S
C821 C101 1.363 . S
C830 C122 1.372 . S
C832 C79 1.483 . S
C841 C184 1.480 . S
C843 C143 1.366 . S
C852 C164 1.368 . S
C854 C142 1.483 . S
C863 C163 1.478 . S
C865 C185 1.360 . S
C874 C206 1.365 . S
C876 C226 1.480 1_655 S
C885 C227 1.366 . S
C887 C247 1.480 . S
C896 C205 1.483 1_545 S
C898 C248 1.371 1_655 S
C907 C269 1.361 . S
C909 C310 1.481 1_565 S
C918 C290 1.372 1_565 S
C920 C268 1.484 1_455 S
C929 C289 1.482 . S
C931 C311 1.364 . S
C940 C332 1.372 . S
C942 C352 1.483 . S
C951 C353 1.358 . S
C953 C373 1.479 . S
C962 C331 1.483 . S
C964 C374 1.366 . S
