# Generated by pormake.
# Topology snz, (6)-cn, num edge types: 1
# Building blocks:
#     Node 0, Type 0, BuildingBlock: CUWYAW_clean_sbu_0, # of connection points: 6
#     Node 1, Type 0, BuildingBlock: CUWYAW_clean_sbu_0, # of connection points: 6
#     Node 2, Type 0, BuildingBlock: CUWYAW_clean_sbu_0, # of connection points: 6
#     Node 3, Type 0, BuildingBlock: CUWYAW_clean_sbu_0, # of connection points: 6
#     Node 4, Type 0, BuildingBlock: CUWYAW_clean_sbu_0, # of connection points: 6
#     Node 5, Type 0, BuildingBlock: CUWYAW_clean_sbu_0, # of connection points: 6
#     Node 6, Type 0, BuildingBlock: CUWYAW_clean_sbu_0, # of connection points: 6
#     Node 7, Type 0, BuildingBlock: CUWYAW_clean_sbu_0, # of connection points: 6
#     Node 8, Type 0, BuildingBlock: CUWYAW_clean_sbu_0, # of connection points: 6
#     Edge 9, Type (0, 0), BuildingBlock: KIFKEQ_clean_linker_1, # of connection points: 2
#     Edge 10, Type (0, 0), BuildingBlock: KIFKEQ_clean_linker_1, # of connection points: 2
#     Edge 11, Type (0, 0), BuildingBlock: KIFKEQ_clean_linker_1, # of connection points: 2
#     Edge 12, Type (0, 0), BuildingBlock: KIFKEQ_clean_linker_1, # of connection points: 2
#     Edge 13, Type (0, 0), BuildingBlock: KIFKEQ_clean_linker_1, # of connection points: 2
#     Edge 14, Type (0, 0), BuildingBlock: KIFKEQ_clean_linker_1, # of connection points: 2
#     Edge 15, Type (0, 0), BuildingBlock: KIFKEQ_clean_linker_1, # of connection points: 2
#     Edge 16, Type (0, 0), BuildingBlock: KIFKEQ_clean_linker_1, # of connection points: 2
#     Edge 17, Type (0, 0), BuildingBlock: KIFKEQ_clean_linker_1, # of connection points: 2
#     Edge 18, Type (0, 0), BuildingBlock: KIFKEQ_clean_linker_1, # of connection points: 2
#     Edge 19, Type (0, 0), BuildingBlock: KIFKEQ_clean_linker_1, # of connection points: 2
#     Edge 20, Type (0, 0), BuildingBlock: KIFKEQ_clean_linker_1, # of connection points: 2
#     Edge 21, Type (0, 0), BuildingBlock: KIFKEQ_clean_linker_1, # of connection points: 2
#     Edge 22, Type (0, 0), BuildingBlock: KIFKEQ_clean_linker_1, # of connection points: 2
#     Edge 23, Type (0, 0), BuildingBlock: KIFKEQ_clean_linker_1, # of connection points: 2
#     Edge 24, Type (0, 0), BuildingBlock: KIFKEQ_clean_linker_1, # of connection points: 2
#     Edge 25, Type (0, 0), BuildingBlock: KIFKEQ_clean_linker_1, # of connection points: 2
#     Edge 26, Type (0, 0), BuildingBlock: KIFKEQ_clean_linker_1, # of connection points: 2
#     Edge 27, Type (0, 0), BuildingBlock: KIFKEQ_clean_linker_1, # of connection points: 2
#     Edge 28, Type (0, 0), BuildingBlock: KIFKEQ_clean_linker_1, # of connection points: 2
#     Edge 29, Type (0, 0), BuildingBlock: KIFKEQ_clean_linker_1, # of connection points: 2
#     Edge 30, Type (0, 0), BuildingBlock: KIFKEQ_clean_linker_1, # of connection points: 2
#     Edge 31, Type (0, 0), BuildingBlock: KIFKEQ_clean_linker_1, # of connection points: 2
#     Edge 32, Type (0, 0), BuildingBlock: KIFKEQ_clean_linker_1, # of connection points: 2
#     Edge 33, Type (0, 0), BuildingBlock: KIFKEQ_clean_linker_1, # of connection points: 2
#     Edge 34, Type (0, 0), BuildingBlock: KIFKEQ_clean_linker_1, # of connection points: 2
#     Edge 35, Type (0, 0), BuildingBlock: KIFKEQ_clean_linker_1, # of connection points: 2
# Relax obj value: 0.146
# Max RMSD: 0.212
# Mean RMSD: 0.195
data_MOF--net-snz--node1-CUWYAW_clean_sbu_0--edge1-KIFKEQ_clean_linker_1
_symmetry_space_group_name_H-M    P1
_symmetry_Int_Tables_number       1
_symmetry_cell_setting            triclinic
loop_
_symmetry_equiv_pos_as_xyz
'x, y, z'
_cell_length_a     68.809692
_cell_length_b     68.761337
_cell_length_c     14.929338
_cell_angle_alpha  90.036699
_cell_angle_beta   90.069465
_cell_angle_gamma 120.03144
loop_
_atom_site_label
_atom_site_type_symbol
_atom_site_fract_x
_atom_site_fract_y
_atom_site_fract_z
_atom_type_partial_charge
C0 C 0.13757 0.50366 0.9534 0.0
Eu1 Eu 0.17003 0.49618 -0.00223 0.0
C2 C 0.12991 0.52017 0.95992 0.0
C3 C 0.10711 0.51282 0.94675 0.0
C4 C 0.09944 0.52819 0.94475 0.0
C5 C 0.11445 0.55133 0.95595 0.0
C6 C 0.13731 0.5586 0.97129 0.0
C7 C 0.14498 0.54315 0.97329 0.0
C8 C 0.17937 0.48906 0.16954 0.0
C9 C 0.21498 0.54334 0.0368 0.0
C10 C 0.24609 0.48847 0.06561 0.0
Eu11 Eu 0.21291 0.49489 0.01756 0.0
C12 C 0.26548 0.48515 0.09137 0.0
C13 C 0.28581 0.49573 0.04315 0.0
C14 C 0.30405 0.49279 0.06694 0.0
C15 C 0.30272 0.47919 0.14018 0.0
C16 C 0.28229 0.46858 0.1883 0.0
C17 C 0.26403 0.4715 0.16431 0.0
C18 C 0.2046 0.50268 0.84579 0.0
C19 C 0.16476 0.44819 0.96075 0.0
O20 O 0.15514 0.5091 0.90337 0.0
O21 O 0.1374 0.4931 0.02646 0.0
O22 O 0.15949 0.47902 0.13395 0.0
O23 O 0.19326 0.5026 0.11373 0.0
O24 O 0.19542 0.53321 0.99571 0.0
O25 O 0.22428 0.53139 0.06463 0.0
O26 O 0.22656 0.4787 0.10614 0.0
O27 O 0.24739 0.50157 -0.00038 0.0
O28 O 0.22442 0.51169 0.88169 0.0
O29 O 0.19034 0.48923 0.90096 0.0
O30 O 0.18535 0.45664 0.99658 0.0
O31 O 0.15639 0.46139 0.94537 0.0
H32 H 0.09525 0.49516 0.93571 0.0
H33 H 0.08182 0.52195 0.93142 0.0
H34 H 0.14931 0.57625 0.9813 0.0
H35 H 0.16267 0.54917 0.98375 0.0
H36 H 0.28773 0.50643 0.9867 0.0
H37 H 0.31937 0.50156 0.02843 0.0
H38 H 0.2802 0.45769 0.2442 0.0
H39 H 0.24872 0.46299 0.20312 0.0
C40 C 0.78141 0.62083 0.9655 0.0
Eu41 Eu 0.78827 0.66063 0.00804 0.0
C42 C 0.76385 0.5969 0.96576 0.0
C43 C 0.7697 0.58074 0.989 0.0
C44 C 0.75399 0.55783 0.98205 0.0
C45 C 0.73204 0.55059 0.95163 0.0
C46 C 0.72603 0.56688 0.93102 0.0
C47 C 0.74179 0.5898 0.93777 0.0
C48 C 0.79584 0.67773 0.17839 0.0
C49 C 0.74042 0.65678 0.04791 0.0
C50 C 0.79373 0.74354 0.06952 0.0
Eu51 Eu 0.78798 0.704 0.02455 0.0
C52 C 0.79672 0.76621 0.09351 0.0
C53 C 0.78688 0.77602 0.04092 0.0
C54 C 0.78963 0.79723 0.0625 0.0
C55 C 0.80232 0.80951 0.13772 0.0
C56 C 0.81209 0.79958 0.19056 0.0
C57 C 0.80936 0.77835 0.16877 0.0
C58 C 0.78042 0.68708 0.85416 0.0
C59 C 0.83565 0.70383 0.97045 0.0
O60 O 0.77879 0.63403 0.90977 0.0
O61 O 0.7895 0.63035 0.04296 0.0
O62 O 0.80597 0.66803 0.14251 0.0
O63 O 0.7818 0.67759 0.12348 0.0
O64 O 0.7511 0.6479 0.00721 0.0
O65 O 0.75164 0.6784 0.07202 0.0
O66 O 0.80346 0.73404 0.11236 0.0
O67 O 0.781 0.73151 0.00295 0.0
O68 O 0.77034 0.69695 0.88916 0.0
O69 O 0.79435 0.68737 0.9098 0.0
O70 O 0.82647 0.71578 0.00144 0.0
O71 O 0.82324 0.68199 0.95987 0.0
H72 H 0.78666 0.58585 0.01022 0.0
H73 H 0.75933 0.54582 0.99739 0.0
H74 H 0.7092 0.56192 0.90865 0.0
H75 H 0.73685 0.60194 0.91925 0.0
H76 H 0.77696 0.76728 0.98258 0.0
H77 H 0.78146 0.80383 0.02043 0.0
H78 H 0.82223 0.80836 0.24832 0.0
H79 H 0.81724 0.77146 0.21103 0.0
C80 C 0.66251 0.14653 0.96629 0.0
Eu81 Eu 0.62251 0.11401 0.00915 0.0
C82 C 0.68654 0.15334 0.97089 0.0
C83 C 0.70257 0.17625 0.97605 0.0
C84 C 0.7255 0.18348 0.97027 0.0
C85 C 0.73291 0.16792 0.95885 0.0
C86 C 0.71678 0.14485 0.95692 0.0
C87 C 0.69381 0.13762 0.96302 0.0
C88 C 0.60503 0.10412 0.17874 0.0
C89 C 0.62552 0.06941 0.05131 0.0
C90 C 0.53897 0.03652 0.06908 0.0
Eu91 Eu 0.57855 0.07031 0.02437 0.0
C92 C 0.51619 1.01689 0.09205 0.0
C93 C 0.50331 1.00059 0.02701 0.0
C94 C 0.48206 0.98209 0.04773 0.0
C95 C 0.47295 0.97898 0.1347 0.0
C96 C 0.48597 0.99522 0.20009 0.0
C97 C 0.50713 1.01392 0.17896 0.0
C98 C 0.59581 0.07933 0.85483 0.0
C99 C 0.57933 0.1183 0.96915 0.0
O100 O 0.64983 0.12969 0.91335 0.0
O101 O 0.65243 0.14624 0.04095 0.0
O102 O 0.6148 0.12411 0.14402 0.0
O103 O 0.60522 0.09043 0.12298 0.0
O104 O 0.63533 0.08962 0.0157 0.0
O105 O 0.60359 0.05876 0.06995 0.0
O106 O 0.54946 0.05496 0.117 0.0
O107 O 0.54997 0.03668 0.99747 0.0
O108 O 0.58531 0.0594 0.88999 0.0
O109 O 0.59592 0.09332 0.90993 0.0
O110 O 0.56726 0.09735 0.00189 0.0
O111 O 0.60112 0.12743 0.95774 0.0
H112 H 0.69732 0.18866 0.98169 0.0
H113 H 0.73736 0.20136 0.97106 0.0
H114 H 0.72189 0.13238 0.94952 0.0
H115 H 0.68176 0.11981 0.95929 0.0
H116 H 0.50962 1.00215 0.95941 0.0
H117 H 0.47287 0.97001 0.99542 0.0
H118 H 0.47962 0.9937 0.26758 0.0
H119 H 0.51649 0.02601 0.23106 0.0
C120 C 0.80607 0.02419 0.28139 0.0
Eu121 Eu 0.83905 1.01718 0.32635 0.0
C122 C 0.78689 0.02803 0.25866 0.0
C123 C 0.77098 0.02531 0.32417 0.0
C124 C 0.75267 0.02834 0.30339 0.0
C125 C 0.74934 0.03389 0.21591 0.0
C126 C 0.76521 0.03648 0.15013 0.0
C127 C 0.78375 0.03376 0.17131 0.0
C128 C 0.84738 1.00884 0.49683 0.0
C129 C 0.88866 0.06331 0.37259 0.0
C130 C 0.91204 1.00433 0.38908 0.0
Eu131 Eu 0.88111 1.01401 0.34374 0.0
C132 C 0.9175 0.98595 0.38917 0.0
C133 C 0.92965 0.98364 0.31827 0.0
C134 C 0.93705 0.96802 0.3233 0.0
C135 C 0.93262 0.95441 0.3996 0.0
C136 C 0.92002 0.9564 0.46952 0.0
C137 C 0.91263 0.97199 0.46449 0.0
C138 C 0.87206 0.02198 0.17312 0.0
C139 C 0.83497 0.96792 0.30227 0.0
O140 O 0.82455 0.03193 0.23414 0.0
O141 O 0.80584 1.01305 0.35271 0.0
O142 O 0.82754 1.0001 0.46123 0.0
O143 O 0.86184 0.0221 0.4416 0.0
O144 O 0.86737 0.05499 0.34499 0.0
O145 O 0.89699 0.04996 0.38533 0.0
O146 O 0.89623 1.00242 0.44323 0.0
O147 O 0.91184 1.01343 0.31235 0.0
O148 O 0.89202 0.03115 0.20789 0.0
O149 O 0.85796 1.00869 0.22913 0.0
O150 O 0.85488 0.97704 0.34037 0.0
O151 O 0.82621 0.98062 0.27859 0.0
H152 H 0.77269 0.02083 0.39209 0.0
H153 H 0.74087 0.02596 0.35601 0.0
H154 H 0.76349 0.04094 0.08223 0.0
H155 H 0.79552 0.03592 0.11886 0.0
H156 H 0.93392 0.99426 0.25963 0.0
H157 H 0.94646 0.96679 0.26767 0.0
H158 H 0.91657 0.94651 0.52995 0.0
H159 H 0.90365 0.97355 0.52103 0.0
C160 C 0.25906 0.7684 0.28279 0.0
Eu161 Eu 0.26551 0.80821 0.3279 0.0
C162 C 0.25563 0.74557 0.25846 0.0
C163 C 0.26499 0.73526 0.31098 0.0
C164 C 0.26208 0.71404 0.28798 0.0
C165 C 0.24976 0.7023 0.21125 0.0
C166 C 0.24031 0.71266 0.15898 0.0
C167 C 0.24317 0.73385 0.1822 0.0
C168 C 0.27289 0.82484 0.49849 0.0
C169 C 0.21822 0.80963 0.375 0.0
C170 C 0.27412 0.89208 0.39213 0.0
Eu171 Eu 0.26644 0.85231 0.34488 0.0
C172 C 0.29066 0.9163 0.38598 0.0
C173 C 0.28294 0.93132 0.36879 0.0
C174 C 0.29762 0.9545 0.37288 0.0
C175 C 0.32039 0.96322 0.39485 0.0
C176 C 0.32832 0.94811 0.40817 0.0
C177 C 0.31359 0.92485 0.40378 0.0
C178 C 0.2587 0.83548 0.17405 0.0
C179 C 0.31369 0.85496 0.29995 0.0
O180 O 0.24989 0.77835 0.23928 0.0
O181 O 0.27157 0.7801 0.35041 0.0
O182 O 0.28269 0.81468 0.46377 0.0
O183 O 0.25932 0.82515 0.44246 0.0
O184 O 0.22723 0.79731 0.34688 0.0
O185 O 0.23099 0.83132 0.38889 0.0
O186 O 0.27938 0.87965 0.44156 0.0
O187 O 0.26322 0.88188 0.31916 0.0
O188 O 0.2495 0.84618 0.20922 0.0
O189 O 0.27233 0.83497 0.22942 0.0
O190 O 0.30361 0.86502 0.33616 0.0
O191 O 0.30207 0.83303 0.28101 0.0
H192 H 0.27474 0.74366 0.37011 0.0
H193 H 0.26991 0.70704 0.32984 0.0
H194 H 0.2304 0.70427 0.10022 0.0
H195 H 0.23562 0.74109 0.14003 0.0
H196 H 0.26534 0.92511 0.35464 0.0
H197 H 0.29101 0.96561 0.36038 0.0
H198 H 0.34571 0.9542 0.42568 0.0
H199 H 0.32001 0.91361 0.417 0.0
C200 C 0.51312 0.47691 0.28309 0.0
Eu201 Eu 0.47377 0.44311 0.32973 0.0
C202 C 0.53575 0.49643 0.25787 0.0
C203 C 0.54945 0.51267 0.32172 0.0
C204 C 0.57068 0.53092 0.29842 0.0
C205 C 0.57899 0.53384 0.20992 0.0
C206 C 0.56498 0.51761 0.14596 0.0
C207 C 0.54389 0.49922 0.16962 0.0
C208 C 0.45781 0.43365 0.50091 0.0
C209 C 0.47345 0.39473 0.37363 0.0
C210 C 0.39049 0.3668 0.39432 0.0
Eu211 Eu 0.43018 0.39947 0.34857 0.0
C212 C 0.36639 0.35989 0.39538 0.0
C213 C 0.35059 0.33774 0.37182 0.0
C214 C 0.3276 0.32988 0.38006 0.0
C215 C 0.31981 0.34399 0.41246 0.0
C216 C 0.3357 0.36647 0.43311 0.0
C217 C 0.35877 0.37434 0.42479 0.0
C218 C 0.44631 0.409 0.17695 0.0
C219 C 0.42695 0.44416 0.31233 0.0
O220 O 0.50241 0.45843 0.23558 0.0
O221 O 0.50244 0.47687 0.35554 0.0
O222 O 0.46725 0.45359 0.46581 0.0
O223 O 0.45766 0.41984 0.44476 0.0
O224 O 0.48529 0.41623 0.34699 0.0
O225 O 0.45169 0.38504 0.38699 0.0
O226 O 0.40389 0.38297 0.4486 0.0
O227 O 0.39967 0.36785 0.31655 0.0
O228 O 0.43636 0.38909 0.21213 0.0
O229 O 0.44659 0.42292 0.23288 0.0
O230 O 0.41785 0.42437 0.35155 0.0
O231 O 0.44831 0.45417 0.28571 0.0
H232 H 0.54388 0.51114 0.3905 0.0
H233 H 0.58071 0.54252 0.35078 0.0
H234 H 0.57009 0.51912 0.07664 0.0
H235 H 0.53381 0.48727 0.1182 0.0
H236 H 0.35607 0.32631 0.34881 0.0
H237 H 0.3159 0.31263 0.36186 0.0
H238 H 0.33035 0.37777 0.45876 0.0
H239 H 0.37061 0.39151 0.44347 0.0
C240 C 0.47201 0.18973 0.66935 0.0
Eu241 Eu 0.50058 0.23264 0.6711 0.0
C242 C 0.45547 0.16988 0.61751 0.0
C243 C 0.43248 0.16012 0.63652 0.0
C244 C 0.417 0.13917 0.6007 0.0
C245 C 0.42417 0.12734 0.54564 0.0
C246 C 0.44705 0.13762 0.52316 0.0
C247 C 0.46252 0.15861 0.55881 0.0
C248 C 0.4987 0.26974 0.6087 0.0
C249 C 0.53312 0.25538 0.50441 0.0
C250 C 0.57829 0.32308 0.70114 0.0
Eu251 Eu 0.54871 0.28048 0.69749 0.0
C252 C 0.59648 0.34268 0.74867 0.0
C253 C 0.61821 0.35366 0.71244 0.0
C254 C 0.63444 0.37477 0.74446 0.0
C255 C 0.62923 0.38551 0.8129 0.0
C256 C 0.60786 0.37391 0.85259 0.0
C257 C 0.59166 0.35276 0.82084 0.0
C258 C 0.55046 0.24313 0.75888 0.0
C259 C 0.51246 0.26071 0.85696 0.0
O260 O 0.49333 0.1985 0.64885 0.0
O261 O 0.46663 0.20473 0.69481 0.0
O262 O 0.48191 0.24914 0.60546 0.0
O263 O 0.51475 0.26872 0.645 0.0
O264 O 0.51823 0.23612 0.54114 0.0
O265 O 0.54515 0.27426 0.54972 0.0
O266 O 0.55781 0.31453 0.73232 0.0
O267 O 0.5824 0.30803 0.66527 0.0
O268 O 0.56745 0.26357 0.75959 0.0
O269 O 0.53434 0.24445 0.72532 0.0
O270 O 0.52938 0.27864 0.81991 0.0
O271 O 0.501 0.24096 0.81669 0.0
H272 H 0.42652 0.16825 0.68214 0.0
H273 H 0.39946 0.13195 0.6182 0.0
H274 H 0.45324 0.12896 0.48171 0.0
H275 H 0.48014 0.16549 0.54344 0.0
H276 H 0.62236 0.34642 0.65634 0.0
H277 H 0.65086 0.38301 0.71347 0.0
H278 H 0.60315 0.38169 0.90484 0.0
H279 H 0.57503 0.34488 0.84993 0.0
C280 C 0.09034 0.26297 0.66936 0.0
Eu281 Eu 0.04878 0.25405 0.66292 0.0
C282 C 0.11105 0.26841 0.61919 0.0
C283 C 0.12088 0.25497 0.63112 0.0
C284 C 0.14244 0.26188 0.59843 0.0
C285 C 0.15481 0.28254 0.55355 0.0
C286 C 0.14448 0.29546 0.53775 0.0
C287 C 0.12288 0.2885 0.57025 0.0
C288 C 1.01104 0.21798 0.59192 0.0
C289 C 1.02807 0.26656 0.50221 0.0
C290 C 0.96002 0.24175 0.69478 0.0
Eu291 Eu 1.00265 0.25445 0.69323 0.0
C292 C 0.9401 0.24003 0.74055 0.0
C293 C 0.92733 0.24786 0.69644 0.0
C294 C 0.90609 0.24247 0.72828 0.0
C295 C 0.89702 0.22898 0.80489 0.0
C296 C 0.91038 0.22221 0.85196 0.0
C297 C 0.93166 0.22762 0.82005 0.0
C298 C 0.03963 0.29458 0.74858 0.0
C299 C 1.02272 0.23954 0.85537 0.0
O300 O 0.08429 0.27824 0.67154 0.0
O301 O 0.07322 0.24238 0.66736 0.0
O302 O 0.03121 0.22622 0.55933 0.0
O303 O 1.01211 0.22822 0.66438 0.0
O304 O 0.04734 0.27248 0.54223 0.0
O305 O 1.00882 0.25751 0.54568 0.0
O306 O 0.96831 0.22956 0.72519 0.0
O307 O 0.97531 0.26108 0.66155 0.0
O308 O 1.01899 0.29035 0.75308 0.0
O309 O 0.03875 0.2774 0.7144 0.0
O310 O 1.00559 0.24111 0.82435 0.0
O311 O 0.04087 0.24442 0.80818 0.0
H312 H 0.11225 0.2395 0.66906 0.0
H313 H 0.14963 0.25125 0.61033 0.0
H314 H 0.15349 0.31152 0.50409 0.0
H315 H 0.11588 0.29937 0.56028 0.0
H316 H 0.93332 0.2573 0.63471 0.0
H317 H 0.89647 0.24834 0.69125 0.0
H318 H 0.90393 0.2117 0.91085 0.0
H319 H 0.94101 0.22118 0.8554 0.0
C320 C 1.02083 0.81422 0.67401 0.0
Eu321 Eu 1.02902 0.78109 0.66685 0.0
C322 C 1.01603 0.82976 0.62303 0.0
C323 C 1.02197 0.85067 0.66083 0.0
C324 C 1.01457 0.86437 0.62247 0.0
C325 C 1.001 0.85747 0.54514 0.0
C326 C 0.99578 0.83682 0.5053 0.0
C327 C 1.00321 0.82308 0.54391 0.0
C328 C 0.06462 0.77875 0.59562 0.0
C329 C 1.01563 0.74756 0.50638 0.0
C330 C 0.04013 0.70386 0.69859 0.0
Eu331 Eu 1.02797 0.73422 0.69724 0.0
C332 C 0.04241 0.68645 0.74813 0.0
C333 C 0.03524 0.66558 0.70701 0.0
C334 C 0.04093 0.65033 0.74337 0.0
C335 C 0.05407 0.65567 0.82161 0.0
C336 C 0.0603 0.67614 0.86518 0.0
C337 C 0.05453 0.69137 0.82889 0.0
C338 C 0.98831 0.73175 0.75392 0.0
C339 C 0.04325 0.76914 0.85958 0.0
O340 O 1.00527 0.79298 0.67323 0.0
O341 O 0.04127 0.81734 0.67339 0.0
O342 O 0.05659 0.79087 0.56285 0.0
O343 O 0.05445 0.76979 0.66827 0.0
O344 O 1.01026 0.76134 0.54623 0.0
O345 O 1.02433 0.73699 0.54986 0.0
O346 O 0.05319 0.72483 0.72232 0.0
O347 O 1.02023 0.69958 0.67147 0.0
O348 O 0.99231 0.71517 0.75858 0.0
O349 O 1.00546 0.74787 0.71896 0.0
O350 O 0.04162 0.75043 0.82827 0.0
O351 O 0.03844 0.78251 0.81248 0.0
H352 H 0.03158 0.85601 0.72249 0.0
H353 H 1.01868 0.87995 0.65595 0.0
H354 H 0.98565 0.83109 0.4451 0.0
H355 H 0.99834 0.80695 0.51361 0.0
H356 H 1.02614 0.6615 0.64414 0.0
H357 H 0.03601 0.63485 0.70747 0.0
H358 H 0.07012 0.68064 0.92628 0.0
H359 H 0.06034 0.70735 0.8622 0.0
H360 H 0.16455 0.48404 0.75489 0.0
H361 H 0.23611 0.51824 0.71307 0.0
H362 H 0.15849 0.48096 0.59306 0.0
H363 H 0.23029 0.51406 0.55205 0.0
H364 H 0.21544 0.52142 0.26211 0.0
H365 H 0.22105 0.52546 0.42339 0.0
H366 H 0.15851 0.4633 0.46185 0.0
H367 H 0.15245 0.46018 0.30009 0.0
C368 C 0.179 0.49086 0.71098 0.0
C369 C 0.2008 0.5015 0.74707 0.0
C370 C 0.17557 0.48888 0.61774 0.0
C371 C 0.19385 0.49717 0.55769 0.0
C372 C 0.21567 0.50783 0.59467 0.0
C373 C 0.21907 0.51013 0.68766 0.0
C374 C 0.20293 0.50858 0.30508 0.0
C375 C 0.18349 0.49047 0.26805 0.0
C376 C 0.20618 0.51079 0.3982 0.0
C377 C 0.19029 0.49473 0.4575 0.0
C378 C 0.171 0.47636 0.41969 0.0
C379 C 0.16758 0.47438 0.32648 0.0
H380 H 0.8127 0.68328 0.76272 0.0
H381 H 0.75181 0.68546 0.7226 0.0
H382 H 0.81732 0.68244 0.60174 0.0
H383 H 0.7554 0.6831 0.56083 0.0
H384 H 0.77696 0.69884 0.26931 0.0
H385 H 0.77338 0.70121 0.43115 0.0
H386 H 0.80654 0.66254 0.47171 0.0
H387 H 0.81125 0.66154 0.31091 0.0
C388 C 0.80007 0.6832 0.71928 0.0
C389 C 0.78193 0.6845 0.75569 0.0
C390 C 0.80259 0.68256 0.62628 0.0
C391 C 0.78677 0.68269 0.56638 0.0
C392 C 0.7683 0.68347 0.6035 0.0
C393 C 0.76604 0.68456 0.69669 0.0
C394 C 0.78368 0.69108 0.31319 0.0
C395 C 0.79449 0.68012 0.27709 0.0
C396 C 0.78141 0.69219 0.40639 0.0
C397 C 0.78955 0.682 0.46629 0.0
C398 C 0.80041 0.67106 0.42927 0.0
C399 C 0.80303 0.67034 0.33637 0.0
H400 H 0.58058 0.04775 0.72194 0.0
H401 H 0.61603 0.11941 0.76403 0.0
H402 H 0.58156 0.05341 0.56113 0.0
H403 H 0.61839 0.12536 0.6022 0.0
H404 H 0.60237 0.13054 0.31011 0.0
H405 H 0.60008 0.12461 0.47187 0.0
H406 H 0.60166 0.06311 0.43157 0.0
H407 H 0.60254 0.06853 0.27045 0.0
C408 C 0.58897 0.06479 0.69663 0.0
C409 C 0.59826 0.08312 0.7561 0.0
C410 C 0.58969 0.06811 0.6037 0.0
C411 C 0.6001 0.08991 0.56678 0.0
C412 C 0.60979 0.10828 0.62685 0.0
C413 C 0.60871 0.10492 0.72008 0.0
C414 C 0.60197 0.11565 0.33612 0.0
C415 C 0.60251 0.09997 0.27722 0.0
C416 C 0.60092 0.11231 0.42932 0.0
C417 C 0.60078 0.09337 0.46663 0.0
C418 C 0.60126 0.07769 0.40684 0.0
C419 C 0.60189 0.08084 0.31377 0.0
H420 H 0.8158 0.99384 0.62905 0.0
H421 H 0.88733 0.02651 0.58831 0.0
H422 H 0.82148 0.99783 0.79008 0.0
H423 H 0.89321 0.02937 0.7503 0.0
H424 H 0.89936 0.05049 0.04283 0.0
H425 H 0.89347 0.04739 0.88101 0.0
H426 H 0.83017 0.98601 0.91911 0.0
H427 H 0.83565 0.99005 0.08051 0.0
C428 C 0.83279 1.00157 0.65469 0.0
C429 C 0.8511 1.00984 0.59556 0.0
C430 C 0.83611 1.00376 0.74771 0.0
C431 C 0.85787 1.01394 0.78502 0.0
C432 C 0.87619 0.02184 0.72529 0.0
C433 C 0.87285 1.01998 0.63199 0.0
C434 C 0.88409 0.03648 0.01634 0.0
C435 C 0.86793 0.02062 0.07468 0.0
C436 C 0.88077 0.0345 0.92311 0.0
C437 C 0.86133 1.01635 0.88521 0.0
C438 C 0.84517 1.00051 0.94441 0.0
C439 C 0.84833 1.00274 0.03758 0.0
H440 H 0.24089 0.8292 0.5902 0.0
H441 H 0.3013 0.82601 0.62957 0.0
H442 H 0.23664 0.83043 0.75147 0.0
H443 H 0.29798 0.82858 0.79133 0.0
H444 H 0.2765 0.81329 0.08327 0.0
H445 H 0.2797 0.81054 0.9213 0.0
H446 H 0.24837 0.85092 0.8807 0.0
H447 H 0.24406 0.85235 0.04153 0.0
C448 C 0.25352 0.82916 0.63348 0.0
C449 C 0.27144 0.82752 0.59689 0.0
C450 C 0.25118 0.82999 0.72656 0.0
C451 C 0.26694 0.82963 0.78617 0.0
C452 C 0.28515 0.82843 0.74882 0.0
C453 C 0.28726 0.82721 0.65566 0.0
C454 C 0.27012 0.82135 0.03936 0.0
C455 C 0.25994 0.83294 0.07543 0.0
C456 C 0.27216 0.82001 0.94613 0.0
C457 C 0.2644 0.83056 0.88624 0.0
C458 C 0.25419 0.84212 0.92322 0.0
C459 C 0.25181 0.8431 0.01611 0.0
H460 H 0.45523 0.39814 0.59382 0.0
H461 H 0.45491 0.46016 0.63086 0.0
H462 H 0.45384 0.3928 0.75528 0.0
H463 H 0.45215 0.45434 0.79263 0.0
H464 H 0.46699 0.44916 0.08637 0.0
H465 H 0.47007 0.4551 0.9244 0.0
H466 H 0.43297 0.38317 0.88325 0.0
H467 H 0.43122 0.3775 0.04416 0.0
C468 C 0.45447 0.41047 0.63662 0.0
C469 C 0.45517 0.42957 0.59934 0.0
C470 C 0.45354 0.40738 0.7298 0.0
C471 C 0.45284 0.42309 0.7888 0.0
C472 C 0.45314 0.44202 0.7507 0.0
C473 C 0.45447 0.44529 0.65749 0.0
C474 C 0.45971 0.43467 0.04237 0.0
C475 C 0.44895 0.41287 0.07834 0.0
C476 C 0.46124 0.43803 0.94908 0.0
C477 C 0.45172 0.41966 0.88899 0.0
C478 C 0.44097 0.39786 0.9259 0.0
C479 C 0.43981 0.39454 0.01886 0.0
H480 H 0.52354 0.22385 0.37507 0.0
H481 H 0.53618 0.29132 0.4207 0.0
H482 H 0.51374 0.22607 0.21958 0.0
H483 H 0.5249 0.29297 0.26908 0.0
H484 H 0.53467 0.29722 0.96485 0.0
H485 H 0.53835 0.29632 0.12468 0.0
H486 H 0.48547 0.22668 0.129 0.0
H487 H 0.48268 0.22716 0.96663 0.0
C488 C 0.52444 0.23917 0.35129 0.0
C489 C 0.53113 0.25758 0.40845 0.0
C490 C 0.51835 0.24029 0.26334 0.0
C491 C 0.5183 0.25962 0.23262 0.0
C492 C 0.5251 0.278 0.29026 0.0
C493 C 0.53178 0.27712 0.37692 0.0
C494 C 0.52345 0.28179 -0.00031 0.0
C495 C 0.50901 0.262 0.95299 0.0
C496 C 0.52548 0.28132 0.09183 0.0
C497 C 0.51268 0.2612 0.13892 0.0
C498 C 0.49613 0.24218 0.09357 0.0
C499 C 0.49435 0.24255 0.00086 0.0
H500 H 0.05987 0.28924 0.37402 0.0
H501 H 0.99366 0.23209 0.41724 0.0
H502 H 0.05864 0.2772 0.2189 0.0
H503 H 0.99337 0.21893 0.26798 0.0
H504 H 0.98696 0.22302 0.9665 0.0
H505 H 0.9886 0.22798 0.12601 0.0
H506 H 0.05964 0.25015 0.12338 0.0
H507 H 0.05824 0.24668 0.96073 0.0
C508 C 0.04509 0.27425 0.35005 0.0
C509 C 1.02668 0.26197 0.40637 0.0
C510 C 0.04456 0.26702 0.26234 0.0
C511 C 1.02591 0.24702 0.23131 0.0
C512 C 1.00774 0.23466 0.28879 0.0
C513 C 1.00789 0.24233 0.3745 0.0
C514 C 1.00287 0.22854 -0.0001 0.0
C515 C 1.02262 0.23522 0.95121 0.0
C516 C 1.00381 0.23122 0.0919 0.0
C517 C 1.02442 0.24004 0.13717 0.0
C518 C 0.04368 0.24405 0.08963 0.0
C519 C 0.04281 0.24172 0.99681 0.0
H520 H 0.99348 0.75743 0.37803 0.0
H521 H 0.04938 0.7464 0.42135 0.0
H522 H 1.00557 0.76801 0.22292 0.0
H523 H 0.06269 0.75913 0.27239 0.0
H524 H 0.059 0.74922 0.9712 0.0
H525 H 0.05369 0.74569 0.13035 0.0
H526 H 0.03282 0.79558 0.12748 0.0
H527 H 0.03657 0.79783 0.96498 0.0
C528 C 1.00819 0.75715 0.35407 0.0
C529 C 1.02011 0.75054 0.41046 0.0
C530 C 1.01547 0.76372 0.26638 0.0
C531 C 0.03518 0.76449 0.23544 0.0
C532 C 0.04715 0.75819 0.29299 0.0
C533 C 0.0394 0.75076 0.37859 0.0
C534 C 0.05368 0.75978 0.00446 0.0
C535 C 0.04744 0.77319 0.95562 0.0
C536 C 0.0508 0.75791 0.09632 0.0
C537 C 0.04225 0.76995 0.14142 0.0
C538 C 0.03868 0.78552 0.09386 0.0
C539 C 0.04119 0.78708 0.00114 0.0
H540 H 0.43052 0.47532 0.18335 0.0
H541 H 0.38714 0.43266 0.3931 0.0
H542 H 0.402 0.48541 0.14248 0.0
H543 H 0.35884 0.44206 0.3517 0.0
H544 H 0.31642 0.47447 0.30942 0.0
H545 H 0.34743 0.4689 0.35179 0.0
H546 H 0.36557 0.47152 0.07369 0.0
H547 H 0.33446 0.47716 0.03114 0.0
C548 C 0.41512 0.46833 0.22165 0.0
C549 C 0.4114 0.45319 0.292 0.0
C550 C 0.39854 0.47388 0.19748 0.0
C551 C 0.37777 0.46462 0.24336 0.0
C552 C 0.37449 0.44996 0.315 0.0
C553 C 0.39088 0.4444 0.33864 0.0
C554 C 0.32681 0.47368 0.25676 0.0
C555 C 0.32244 0.47615 0.16634 0.0
C556 C 0.34481 0.47048 0.28128 0.0
C557 C 0.35929 0.46953 0.21657 0.0
C558 C 0.3552 0.47239 0.12619 0.0
C559 C 0.33716 0.47562 0.1016 0.0
H560 H 0.80606 0.84288 0.02265 0.0
H561 H 0.80562 0.82888 0.3046 0.0
H562 H 0.8106 0.87945 0.05829 0.0
H563 H 0.81134 0.86596 0.34028 0.0
H564 H 0.80623 0.92869 0.39039 0.0
H565 H 0.79682 0.89036 0.34975 0.0
H566 H 0.83558 0.91576 0.10696 0.0
H567 H 0.84408 0.95366 0.14686 0.0
C568 C 0.80684 0.84745 0.09249 0.0
C569 C 0.80539 0.83247 0.16032 0.0
C570 C 0.80979 0.86879 0.11316 0.0
C571 C 0.81146 0.87617 0.20263 0.0
C572 C 0.80988 0.86113 0.27052 0.0
C573 C 0.80691 0.83977 0.24983 0.0
C574 C 0.8121 0.92589 0.32705 0.0
C575 C 0.82534 0.94418 0.27062 0.0
C576 C 0.80707 0.90389 0.30417 0.0
C577 C 0.81543 0.89951 0.22471 0.0
C578 C 0.82834 0.91796 0.16774 0.0
C579 C 0.83322 0.93985 0.19045 0.0
H580 H 0.43449 0.96046 0.0314 0.0
H581 H 0.45874 0.95216 0.2869 0.0
H582 H 0.39723 0.92908 0.06574 0.0
H583 H 0.42123 0.92062 0.32138 0.0
H584 H 0.35243 0.85145 0.31662 0.0
H585 H 0.39123 0.8802 0.2762 0.0
H586 H 0.36666 0.92226 0.17064 0.0
H587 H 0.32859 0.89412 0.21181 0.0
C588 C 0.43202 0.95187 0.09474 0.0
C589 C 0.44993 0.95917 0.15616 0.0
C590 C 0.41046 0.93384 0.11479 0.0
C591 C 0.40594 0.92209 0.19662 0.0
C592 C 0.42394 0.92901 0.25742 0.0
C593 C 0.44548 0.94734 0.23791 0.0
C594 C 0.35535 0.86669 0.28356 0.0
C595 C 0.33723 0.8703 0.26704 0.0
C596 C 0.37764 0.88332 0.26113 0.0
C597 C 0.38231 0.90374 0.2197 0.0
C598 C 0.36397 0.90684 0.20134 0.0
C599 C 0.342 0.8906 0.22527 0.0
H600 H 0.54366 0.12375 0.03311 0.0
H601 H 0.59302 0.14477 0.82287 0.0
H602 H 0.53401 0.15223 0.98244 0.0
H603 H 0.58366 0.17263 0.77372 0.0
H604 H 0.58773 0.24036 0.79168 0.0
H605 H 0.59112 0.20852 0.84141 0.0
H606 H 0.51901 0.16721 0.84899 0.0
H607 H 0.51562 0.19965 0.79861 0.0
C608 C 0.5521 0.13399 0.97524 0.0
C609 C 0.56935 0.13195 0.93305 0.0
C610 C 0.54665 0.15043 0.94625 0.0
C611 C 0.55838 0.16526 0.87477 0.0
C612 C 0.57458 0.16211 0.83015 0.0
C613 C 0.5799 0.14589 0.85848 0.0
C614 C 0.57249 0.22453 0.80345 0.0
C615 C 0.5514 0.22267 0.78924 0.0
C616 C 0.57444 0.20611 0.83201 0.0
C617 C 0.55538 0.18496 0.84876 0.0
C618 C 0.53412 0.18311 0.8369 0.0
C619 C 0.53216 0.20168 0.80694 0.0
H620 H 0.04255 0.33499 0.7752 0.0
H621 H 0.08238 0.30289 0.79736 0.0
H622 H 0.07429 0.37029 0.82619 0.0
H623 H 0.11467 0.33868 0.84835 0.0
H624 H 0.15802 0.4069 0.02859 0.0
H625 H 0.12923 0.36885 0.97817 0.0
H626 H 0.11073 0.39833 0.76343 0.0
H627 H 0.13892 0.43548 0.81232 0.0
C628 C 0.05818 0.33546 0.79046 0.0
C629 C 0.05988 0.31603 0.77982 0.0
C630 C 0.07653 0.35585 0.81968 0.0
C631 C 0.09739 0.3577 0.84079 0.0
C632 C 0.09901 0.33809 0.83269 0.0
C633 C 0.08056 0.31758 0.80209 0.0
C634 C 0.14812 0.40516 0.96955 0.0
C635 C 0.15081 0.4245 0.92548 0.0
C636 C 0.13149 0.38332 0.94071 0.0
C637 C 0.11711 0.38033 0.86753 0.0
C638 C 0.12087 0.39971 0.82123 0.0
C639 C 0.13729 0.42119 0.8494 0.0
H640 H 0.94819 0.69451 0.78689 0.0
H641 H 0.98029 0.76665 0.7988 0.0
H642 H 0.91324 0.69135 0.83914 0.0
H643 H 0.9448 0.76355 0.851 0.0
H644 H 0.87698 0.73935 0.03494 0.0
H645 H 0.91496 0.74867 0.98383 0.0
H646 H 0.88512 0.69933 0.77349 0.0
H647 H 0.84814 0.6902 0.82337 0.0
C648 C 0.9478 0.7098 0.8002 0.0
C649 C 0.96711 0.73085 0.78627 0.0
C650 C 0.92761 0.708 0.83019 0.0
C651 C 0.92583 0.72717 0.84867 0.0
C652 C 0.94535 0.74836 0.83743 0.0
C653 C 0.96567 0.75017 0.80616 0.0
C654 C 0.87862 0.73094 0.97655 0.0
C655 C 0.85923 0.71389 0.93392 0.0
C656 C 0.90043 0.73618 0.94737 0.0
C657 C 0.90329 0.72441 0.87531 0.0
C658 C 0.88385 0.70843 0.83032 0.0
C659 C 0.86243 0.70331 0.85891 0.0
H660 H 0.03137 0.60956 0.83007 0.0
H661 H 0.09611 0.66778 0.88391 0.0
H662 H 0.04632 0.58512 0.86938 0.0
H663 H 0.11085 0.64336 0.92584 0.0
H664 H 0.13526 0.59256 0.87385 0.0
H665 H 0.12071 0.618 0.85037 0.0
H666 H 0.06036 0.57258 0.99404 0.0
H667 H 0.07497 0.54719 0.01822 0.0
C668 C 0.04874 0.61715 0.85097 0.0
C669 C 0.06252 0.64066 0.85357 0.0
C670 C 0.05727 0.60314 0.87435 0.0
C671 C 0.07984 0.61225 0.90055 0.0
C672 C 0.09347 0.63575 0.90503 0.0
C673 C 0.08492 0.64977 0.88203 0.0
C674 C 0.11906 0.58816 0.90192 0.0
C675 C 0.10629 0.56772 0.94764 0.0
C676 C 0.11068 0.60276 0.8883 0.0
C677 C 0.08928 0.59731 0.91989 0.0
C678 C 0.07673 0.57714 0.96744 0.0
C679 C 0.08513 0.56257 0.98129 0.0
H680 H 0.72527 0.51484 0.05631 0.0
H681 H 0.70257 0.53105 0.81248 0.0
H682 H 0.70107 0.47489 0.02498 0.0
H683 H 0.67772 0.49125 0.78333 0.0
H684 H 0.65621 0.42003 0.70083 0.0
H685 H 0.68079 0.45936 0.73789 0.0
H686 H 0.66215 0.44499 0.0164 0.0
H687 H 0.63822 0.40526 0.97983 0.0
C688 C 0.71504 0.50991 0.99629 0.0
C689 C 0.71597 0.52622 0.93676 0.0
C690 C 0.70098 0.48698 0.97879 0.0
C691 C 0.68755 0.47981 0.90126 0.0
C692 C 0.68811 0.49614 0.84292 0.0
C693 C 0.70214 0.51902 0.86035 0.0
C694 C 0.65764 0.4251 0.77032 0.0
C695 C 0.64525 0.40936 0.83734 0.0
C696 C 0.6715 0.44779 0.79139 0.0
C697 C 0.6733 0.45544 0.88003 0.0
C698 C 0.66125 0.43968 0.94749 0.0
C699 C 0.64738 0.41692 0.92638 0.0
H700 H 0.86047 0.21424 0.69508 0.0
H701 H 0.87941 0.22433 0.97448 0.0
H702 H 0.8214 0.19946 0.73648 0.0
H703 H 0.83999 0.20879 0.01618 0.0
H704 H 0.76953 0.2023 0.04365 0.0
H705 H 0.80921 0.21721 0.00917 0.0
H706 H 0.79097 0.16621 0.80593 0.0
H707 H 0.75139 0.15178 0.8384 0.0
C708 C 0.85635 0.21349 0.76544 0.0
C709 C 0.8732 0.22063 0.83135 0.0
C710 C 0.83383 0.20468 0.78927 0.0
C711 C 0.82746 0.20274 0.87974 0.0
C712 C 0.8443 0.21013 0.94584 0.0
C713 C 0.86688 0.21888 0.92195 0.0
C714 C 0.774 0.19428 0.99156 0.0
C715 C 0.7572 0.17587 0.94362 0.0
C716 C 0.79677 0.20271 0.97234 0.0
C717 C 0.80332 0.19303 0.90429 0.0
C718 C 0.78654 0.1743 0.85788 0.0
C719 C 0.76381 0.16583 0.87733 0.0
H720 H 0.62116 0.02661 0.04231 0.0
H721 H 0.66595 0.09449 0.13008 0.0
H722 H 0.64991 1.01652 0.0824 0.0
H723 H 0.69404 0.08451 0.17094 0.0
H724 H 0.73205 0.05535 0.3165 0.0
H725 H 0.70079 0.06141 0.28191 0.0
H726 H 0.69013 0.02617 0.03157 0.0
H727 H 0.72161 1.02009 0.06616 0.0
C728 C 0.6369 0.03926 0.07136 0.0
C729 C 0.64109 0.06137 0.08307 0.0
C730 C 0.6535 0.03356 0.09364 0.0
C731 C 0.67447 0.04967 0.13033 0.0
C732 C 0.6782 0.07152 0.1439 0.0
C733 C 0.66198 0.07727 0.12003 0.0
C734 C 0.72301 0.04868 0.25429 0.0
C735 C 0.72965 0.03724 0.1943 0.0
C736 C 0.70504 0.05228 0.23412 0.0
C737 C 0.69272 0.0443 0.15373 0.0
C738 C 0.69899 0.03243 0.09442 0.0
C739 C 0.71727 0.02915 0.11395 0.0
H740 H 0.24832 0.6851 0.04213 0.0
H741 H 0.24487 0.66748 0.3213 0.0
H742 H 0.24302 0.6486 -1e-05 0.0
H743 H 0.23945 0.63075 0.27896 0.0
H744 H 0.24395 0.56954 0.17448 0.0
H745 H 0.25407 0.60813 0.21669 0.0
H746 H 0.21567 0.61058 0.99248 0.0
H747 H 0.20628 0.57291 0.94991 0.0
C748 C 0.24623 0.67343 0.09495 0.0
C749 C 0.24689 0.67959 0.18554 0.0
C750 C 0.24318 0.65228 0.07058 0.0
C751 C 0.24057 0.63622 0.13562 0.0
C752 C 0.24164 0.6425 0.22634 0.0
C753 C 0.24473 0.66374 0.25079 0.0
C754 C 0.23813 0.57856 0.1332 0.0
C755 C 0.22436 0.56791 0.05827 0.0
C756 C 0.24366 0.60067 0.15808 0.0
C757 C 0.23576 0.61289 0.10839 0.0
C758 C 0.22252 0.60227 0.03228 0.0
C759 C 0.21697 0.58036 0.00791 0.0
H760 H 0.71924 0.61118 0.04474 0.0
H761 H 0.70641 0.66474 0.11239 0.0
H762 H 0.68147 0.58367 0.08342 0.0
H763 H 0.66731 0.63646 0.14971 0.0
H764 H 0.60327 0.57699 0.28384 0.0
H765 H 0.64105 0.60712 0.24705 0.0
H766 H 0.64483 0.56592 0.03739 0.0
H767 H 0.60815 0.5355 0.07791 0.0
C768 C 0.70826 0.61728 0.06645 0.0
C769 C 0.71624 0.64057 0.0734 0.0
C770 C 0.68617 0.60119 0.08858 0.0
C771 C 0.67062 0.60739 0.1183 0.0
C772 C 0.67855 0.63074 0.12717 0.0
C773 C 0.70104 0.64708 0.10527 0.0
C774 C 0.6122 0.57411 0.23063 0.0
C775 C 0.60214 0.55325 0.18487 0.0
C776 C 0.63396 0.59173 0.20848 0.0
C777 C 0.6466 0.58928 0.13949 0.0
C778 C 0.63625 0.56866 0.0924 0.0
C779 C 0.61469 0.55107 0.11492 0.0
H780 H 1.02136 0.90342 0.5334 0.0
H781 H 0.95866 0.8428 0.47806 0.0
H782 H 1.00451 0.92588 0.4912 0.0
H783 H 0.94209 0.86532 0.43166 0.0
H784 H 0.91263 0.91207 0.47273 0.0
H785 H 0.92924 0.88852 0.49914 0.0
H786 H 0.99035 0.93799 0.37032 0.0
H787 H 0.97412 0.96199 0.34771 0.0
C788 C 1.00402 0.89485 0.5115 0.0
C789 C 0.99138 0.87124 0.50993 0.0
C790 C 0.9944 0.90778 0.48617 0.0
C791 C 0.97185 0.89748 0.45821 0.0
C792 C 0.9594 0.87386 0.45399 0.0
C793 C 0.96902 0.86092 0.47949 0.0
C794 C 0.92964 0.91798 0.45026 0.0
C795 C 0.94203 0.93906 0.40859 0.0
C796 C 0.9391 0.90432 0.46443 0.0
C797 C 0.96122 0.91133 0.43725 0.0
C798 C 0.97339 0.93214 0.39335 0.0
C799 C 0.96395 0.94581 0.37928 0.0
H800 H 0.42164 0.10698 0.38361 0.0
H801 H 0.39084 0.09403 0.64517 0.0
H802 H 0.39651 0.06773 0.34204 0.0
H803 H 0.36583 0.05509 0.60364 0.0
H804 H 0.31003 0.99233 0.4777 0.0
H805 H 0.33438 0.03218 0.50666 0.0
H806 H 0.38939 0.0298 0.37845 0.0
H807 H 0.36467 0.98989 0.34615 0.0
C808 C 0.40954 0.0958 0.43224 0.0
C809 C 0.4082 0.10377 0.51758 0.0
C810 C 0.39516 0.0733 0.40844 0.0
C811 C 0.37908 0.05825 0.46936 0.0
C812 C 0.3777 0.06628 0.55438 0.0
C813 C 0.39204 0.08869 0.57815 0.0
C814 C 0.3272 1.00032 0.45414 0.0
C815 C 0.33534 0.98783 0.40932 0.0
C816 C 0.34127 0.02316 0.47183 0.0
C817 C 0.3639 0.0342 0.44548 0.0
C818 C 0.372 0.02187 0.39915 0.0
C819 C 0.35789 0.99893 0.38148 0.0
H820 H 0.1773 0.30576 0.40186 0.0
H821 H 0.18699 0.27945 0.65013 0.0
H822 H 0.21688 0.32071 0.365 0.0
H823 H 0.22628 0.29421 0.61316 0.0
H824 H 0.28947 0.30306 0.48194 0.0
H825 H 0.2497 0.28804 0.51032 0.0
H826 H 0.2548 0.34949 0.41205 0.0
H827 H 0.29464 0.36428 0.38043 0.0
C828 C 0.18784 0.3032 0.44871 0.0
C829 C 0.1788 0.29119 0.5287 0.0
C830 C 0.21056 0.3118 0.4276 0.0
C831 C 0.2248 0.30859 0.48585 0.0
C832 C 0.21575 0.29664 0.56578 0.0
C833 C 0.19313 0.28809 0.58691 0.0
C834 C 0.28211 0.3133 0.46507 0.0
C835 C 0.29533 0.33489 0.42853 0.0
C836 C 0.2593 0.30477 0.48246 0.0
C837 C 0.24899 0.31757 0.46399 0.0
C838 C 0.26212 0.33908 0.42649 0.0
C839 C 0.28503 0.34767 0.40925 0.0
H840 H 0.4627 0.27075 0.54003 0.0
H841 H 0.53308 0.31456 0.59342 0.0
H842 H 0.46 0.30203 0.47934 0.0
H843 H 0.53055 0.34641 0.5309 0.0
H844 H 0.50746 0.40135 0.49291 0.0
H845 H 0.51573 0.37246 0.54814 0.0
H846 H 0.46926 0.32557 0.35443 0.0
H847 H 0.46075 0.35399 0.30226 0.0
C848 C 0.47774 0.28713 0.53861 0.0
C849 C 0.4981 0.28993 0.57232 0.0
C850 C 0.47624 0.30524 0.50276 0.0
C851 C 0.49509 0.32709 0.49837 0.0
C852 C 0.51555 0.33003 0.53304 0.0
C853 C 0.51705 0.31171 0.56907 0.0
C854 C 0.49961 0.38508 0.46037 0.0
C855 C 0.48364 0.38019 0.39201 0.0
C856 C 0.5042 0.36835 0.49257 0.0
C857 C 0.49286 0.34621 0.45763 0.0
C858 C 0.47797 0.342 0.38556 0.0
C859 C 0.47332 0.35852 0.35422 0.0
H860 H 0.87982 0.09637 0.4399 0.0
H861 H 0.93389 0.08592 0.35686 0.0
H862 H 0.90765 0.13466 0.49057 0.0
H863 H 0.96114 0.12321 0.40744 0.0
H864 H 1.00807 0.19684 0.43418 0.0
H865 H 0.97744 0.16191 0.37531 0.0
H866 H 0.93738 0.15588 0.60704 0.0
H867 H 0.96836 0.19148 0.66568 0.0
C868 C 0.89752 0.10227 0.4309 0.0
C869 C 0.90442 0.08786 0.39343 0.0
C870 C 0.91357 0.12418 0.46106 0.0
C871 C 0.93694 0.13241 0.45331 0.0
C872 C 0.94353 0.11802 0.41379 0.0
C873 C 0.92771 0.09634 0.38484 0.0
C874 C 0.99273 0.18821 0.47279 0.0
C875 C 0.99096 0.1971 0.55537 0.0
C876 C 0.97503 0.16795 0.43898 0.0
C877 C 0.95473 0.15551 0.48647 0.0
C878 C 0.95257 0.16481 0.56783 0.0
C879 C 0.97042 0.18528 0.60183 0.0
H880 H 0.08473 0.79516 0.43488 0.0
H881 H 0.09149 0.76325 0.67173 0.0
H882 H 0.11912 0.79861 0.37487 0.0
H883 H 0.12666 0.76718 0.61228 0.0
H884 H 0.18596 0.76825 0.44989 0.0
H885 H 0.14775 0.75792 0.50061 0.0
H886 H 0.15766 0.8211 0.40023 0.0
H887 H 0.1947 0.83086 0.34907 0.0
C888 C 0.09356 0.78881 0.47445 0.0
C889 C 0.08519 0.77904 0.55872 0.0
C890 C 0.11353 0.79091 0.44002 0.0
C891 C 0.12628 0.78357 0.48873 0.0
C892 C 0.11749 0.773 0.572 0.0
C893 C 0.09727 0.77079 0.60648 0.0
C894 C 0.17967 0.7796 0.43679 0.0
C895 C 0.19357 0.80035 0.39432 0.0
C896 C 0.15782 0.77385 0.46708 0.0
C897 C 0.14919 0.78857 0.45475 0.0
C898 C 0.16309 0.80894 0.41012 0.0
C899 C 0.18464 0.81465 0.38078 0.0
loop_
_geom_bond_atom_site_label_1
_geom_bond_atom_site_label_2
_geom_bond_distance
_geom_bond_site_symmetry_2
_ccdc_geom_bond_type
C0 Eu1 2.835 . S
C0 C2 1.500 . S
C0 O20 1.257 . S
C0 O21 1.260 . S
Eu1 C0 2.835 . S
Eu1 O20 2.473 . S
Eu1 O21 2.480 . S
Eu1 O22 2.430 . S
Eu1 O23 2.670 . S
Eu1 O24 2.394 . S
Eu1 O29 2.355 . S
Eu1 O31 2.374 . S
C2 C0 1.500 . S
C2 C3 1.377 . S
C2 C7 1.377 . S
C3 C2 1.377 . S
C3 C4 1.395 . S
C3 H32 0.931 . S
C4 C3 1.395 . S
C4 C5 1.383 . S
C4 H33 0.931 . S
C5 C4 1.383 . S
C5 C6 1.394 1_554 S
C6 C5 1.394 1_556 S
C6 C7 1.378 1_556 S
C6 H34 0.931 . S
C7 C2 1.377 . S
C7 C6 1.378 1_554 S
C7 H35 0.931 1_554 S
C8 O22 1.259 . S
C8 O23 1.270 . S
C9 O24 1.251 . S
C9 O25 1.251 . S
C10 Eu11 2.835 . S
C10 C12 1.500 . S
C10 O26 1.257 . S
C10 O27 1.260 . S
Eu11 C10 2.835 . S
Eu11 O23 2.355 . S
Eu11 O25 2.374 . S
Eu11 O26 2.473 . S
Eu11 O27 2.480 . S
Eu11 O28 2.430 1_554 S
Eu11 O29 2.670 . S
Eu11 O30 2.394 . S
C12 C10 1.500 . S
C12 C13 1.377 . S
C12 C17 1.377 . S
C13 C12 1.377 . S
C13 C14 1.395 . S
C13 H36 0.931 . S
C14 C13 1.395 . S
C14 C15 1.383 . S
C14 H37 0.931 . S
C15 C14 1.383 . S
C15 C16 1.394 . S
C16 C15 1.394 . S
C16 C17 1.378 . S
C16 H38 0.931 . S
C17 C12 1.377 . S
C17 C16 1.378 . S
C17 H39 0.931 . S
C18 O28 1.259 . S
C18 O29 1.270 1_556 S
C19 O30 1.251 . S
C19 O31 1.251 . S
O20 C0 1.257 . S
O20 Eu1 2.473 . S
O21 C0 1.260 . S
O21 Eu1 2.480 . S
O22 Eu1 2.430 . S
O22 C8 1.259 . S
O23 Eu1 2.670 . S
O23 C8 1.270 . S
O23 Eu11 2.355 . S
O24 Eu1 2.394 . S
O24 C9 1.251 . S
O25 C9 1.251 . S
O25 Eu11 2.374 . S
O26 C10 1.257 . S
O26 Eu11 2.473 . S
O27 C10 1.260 . S
O27 Eu11 2.480 . S
O28 Eu11 2.430 1_556 S
O28 C18 1.259 . S
O29 Eu1 2.355 . S
O29 Eu11 2.670 . S
O29 C18 1.270 1_554 S
O30 Eu11 2.394 . S
O30 C19 1.251 . S
O31 Eu1 2.374 . S
O31 C19 1.251 . S
H32 C3 0.931 . S
H33 C4 0.931 . S
H34 C6 0.931 . S
H35 C7 0.931 1_556 S
H36 C13 0.931 . S
H37 C14 0.931 . S
H38 C16 0.931 . S
H39 C17 0.931 . S
C40 Eu41 2.835 . S
C40 C42 1.500 . S
C40 O60 1.257 . S
C40 O61 1.260 . S
Eu41 C40 2.835 . S
Eu41 O60 2.473 . S
Eu41 O61 2.480 . S
Eu41 O62 2.430 . S
Eu41 O63 2.670 . S
Eu41 O64 2.394 . S
Eu41 O69 2.355 . S
Eu41 O71 2.374 . S
C42 C40 1.500 . S
C42 C43 1.377 . S
C42 C47 1.377 . S
C43 C42 1.377 . S
C43 C44 1.395 . S
C43 H72 0.931 . S
C44 C43 1.395 . S
C44 C45 1.383 . S
C44 H73 0.931 . S
C45 C44 1.383 . S
C45 C46 1.394 1_554 S
C46 C45 1.394 1_556 S
C46 C47 1.378 1_556 S
C46 H74 0.931 . S
C47 C42 1.377 . S
C47 C46 1.378 1_554 S
C47 H75 0.931 1_554 S
C48 O62 1.259 . S
C48 O63 1.270 . S
C49 O64 1.251 . S
C49 O65 1.251 . S
C50 Eu51 2.835 . S
C50 C52 1.500 . S
C50 O66 1.257 . S
C50 O67 1.260 . S
Eu51 C50 2.835 . S
Eu51 O63 2.355 . S
Eu51 O65 2.374 . S
Eu51 O66 2.473 . S
Eu51 O67 2.480 . S
Eu51 O68 2.430 1_554 S
Eu51 O69 2.670 . S
Eu51 O70 2.394 . S
C52 C50 1.500 . S
C52 C53 1.377 . S
C52 C57 1.377 . S
C53 C52 1.377 . S
C53 C54 1.395 . S
C53 H76 0.931 . S
C54 C53 1.395 . S
C54 C55 1.383 . S
C54 H77 0.931 . S
C55 C54 1.383 . S
C55 C56 1.394 . S
C56 C55 1.394 . S
C56 C57 1.378 . S
C56 H78 0.931 . S
C57 C52 1.377 . S
C57 C56 1.378 . S
C57 H79 0.931 . S
C58 O68 1.259 . S
C58 O69 1.270 1_556 S
C59 O70 1.251 . S
C59 O71 1.251 . S
O60 C40 1.257 . S
O60 Eu41 2.473 . S
O61 C40 1.260 . S
O61 Eu41 2.480 . S
O62 Eu41 2.430 . S
O62 C48 1.259 . S
O63 Eu41 2.670 . S
O63 C48 1.270 . S
O63 Eu51 2.355 . S
O64 Eu41 2.394 . S
O64 C49 1.251 . S
O65 C49 1.251 . S
O65 Eu51 2.374 . S
O66 C50 1.257 . S
O66 Eu51 2.473 . S
O67 C50 1.260 . S
O67 Eu51 2.480 . S
O68 Eu51 2.430 1_556 S
O68 C58 1.259 . S
O69 Eu41 2.355 . S
O69 Eu51 2.670 . S
O69 C58 1.270 1_554 S
O70 Eu51 2.394 . S
O70 C59 1.251 . S
O71 Eu41 2.374 . S
O71 C59 1.251 . S
H72 C43 0.931 . S
H73 C44 0.931 . S
H74 C46 0.931 . S
H75 C47 0.931 1_556 S
H76 C53 0.931 . S
H77 C54 0.931 . S
H78 C56 0.931 . S
H79 C57 0.931 . S
C80 Eu81 2.835 . S
C80 C82 1.500 . S
C80 O100 1.257 . S
C80 O101 1.260 . S
Eu81 C80 2.835 . S
Eu81 O100 2.473 . S
Eu81 O101 2.480 . S
Eu81 O102 2.430 . S
Eu81 O103 2.670 . S
Eu81 O104 2.394 . S
Eu81 O109 2.355 . S
Eu81 O111 2.374 . S
C82 C80 1.500 . S
C82 C83 1.377 . S
C82 C87 1.377 . S
C83 C82 1.377 . S
C83 C84 1.395 . S
C83 H112 0.931 . S
C84 C83 1.395 . S
C84 C85 1.383 . S
C84 H113 0.931 . S
C85 C84 1.383 . S
C85 C86 1.394 1_554 S
C86 C85 1.394 1_556 S
C86 C87 1.378 1_556 S
C86 H114 0.931 . S
C87 C82 1.377 . S
C87 C86 1.378 1_554 S
C87 H115 0.931 1_554 S
C88 O102 1.259 . S
C88 O103 1.270 . S
C89 O104 1.251 . S
C89 O105 1.251 . S
C90 Eu91 2.835 . S
C90 C92 1.500 . S
C90 O106 1.257 . S
C90 O107 1.260 . S
Eu91 C90 2.835 . S
Eu91 O103 2.355 . S
Eu91 O105 2.374 . S
Eu91 O106 2.473 . S
Eu91 O107 2.480 . S
Eu91 O108 2.430 1_554 S
Eu91 O109 2.670 . S
Eu91 O110 2.394 . S
C92 C90 1.500 . S
C92 C93 1.377 . S
C92 C97 1.377 . S
C93 C92 1.377 . S
C93 C94 1.395 . S
C93 H116 0.931 . S
C94 C93 1.395 . S
C94 C95 1.383 . S
C94 H117 0.931 . S
C95 C94 1.383 . S
C95 C96 1.394 . S
C96 C95 1.394 . S
C96 C97 1.378 . S
C96 H118 0.931 . S
C97 C92 1.377 . S
C97 C96 1.378 . S
C97 H119 0.931 . S
C98 O108 1.259 . S
C98 O109 1.270 1_556 S
C99 O110 1.251 . S
C99 O111 1.251 . S
O100 C80 1.257 . S
O100 Eu81 2.473 . S
O101 C80 1.260 . S
O101 Eu81 2.480 . S
O102 Eu81 2.430 . S
O102 C88 1.259 . S
O103 Eu81 2.670 . S
O103 C88 1.270 . S
O103 Eu91 2.355 . S
O104 Eu81 2.394 . S
O104 C89 1.251 . S
O105 C89 1.251 . S
O105 Eu91 2.374 . S
O106 C90 1.257 . S
O106 Eu91 2.473 . S
O107 C90 1.260 . S
O107 Eu91 2.480 . S
O108 Eu91 2.430 1_556 S
O108 C98 1.259 . S
O109 Eu81 2.355 . S
O109 Eu91 2.670 . S
O109 C98 1.270 1_554 S
O110 Eu91 2.394 . S
O110 C99 1.251 . S
O111 Eu81 2.374 . S
O111 C99 1.251 . S
H112 C83 0.931 . S
H113 C84 0.931 . S
H114 C86 0.931 . S
H115 C87 0.931 1_556 S
H116 C93 0.931 . S
H117 C94 0.931 . S
H118 C96 0.931 . S
H119 C97 0.931 . S
C120 Eu121 2.835 1_545 S
C120 C122 1.500 . S
C120 O140 1.257 . S
C120 O141 1.260 . S
Eu121 C120 2.835 1_565 S
Eu121 O140 2.473 1_565 S
Eu121 O141 2.480 1_565 S
Eu121 O142 2.430 . S
Eu121 O143 2.670 . S
Eu121 O144 2.394 1_565 S
Eu121 O149 2.353 . S
Eu121 O151 2.374 . S
C122 C120 1.500 . S
C122 C123 1.377 . S
C122 C127 1.377 . S
C123 C122 1.377 . S
C123 C124 1.395 . S
C123 H152 0.931 . S
C124 C123 1.395 . S
C124 C125 1.383 . S
C124 H153 0.931 . S
C125 C124 1.383 . S
C125 C126 1.394 . S
C126 C125 1.394 . S
C126 C127 1.378 . S
C126 H154 0.931 . S
C127 C122 1.377 . S
C127 C126 1.378 . S
C127 H155 0.931 . S
C128 O142 1.259 . S
C128 O143 1.270 . S
C129 O144 1.251 . S
C129 O145 1.251 . S
C130 Eu131 2.835 . S
C130 C132 1.500 . S
C130 O146 1.257 . S
C130 O147 1.260 . S
Eu131 C130 2.835 . S
Eu131 O143 2.355 . S
Eu131 O145 2.374 1_565 S
Eu131 O146 2.473 . S
Eu131 O147 2.480 . S
Eu131 O148 2.430 . S
Eu131 O149 2.678 . S
Eu131 O150 2.394 . S
C132 C130 1.500 . S
C132 C133 1.377 . S
C132 C137 1.377 . S
C133 C132 1.377 . S
C133 C134 1.395 . S
C133 H156 0.931 . S
C134 C133 1.395 . S
C134 C135 1.383 . S
C134 H157 0.931 . S
C135 C134 1.383 . S
C135 C136 1.394 . S
C136 C135 1.394 . S
C136 C137 1.378 . S
C136 H158 0.931 . S
C137 C132 1.377 . S
C137 C136 1.378 . S
C137 H159 0.931 . S
C138 O148 1.259 . S
C138 O149 1.275 . S
C139 O150 1.251 . S
C139 O151 1.251 . S
O140 C120 1.257 . S
O140 Eu121 2.473 1_545 S
O141 C120 1.260 . S
O141 Eu121 2.480 1_545 S
O142 Eu121 2.430 . S
O142 C128 1.259 . S
O143 Eu121 2.670 . S
O143 C128 1.270 . S
O143 Eu131 2.355 . S
O144 Eu121 2.394 1_545 S
O144 C129 1.251 . S
O145 C129 1.251 . S
O145 Eu131 2.374 1_545 S
O146 C130 1.257 . S
O146 Eu131 2.473 . S
O147 C130 1.260 . S
O147 Eu131 2.480 . S
O148 Eu131 2.430 . S
O148 C138 1.259 . S
O149 Eu121 2.353 . S
O149 Eu131 2.678 . S
O149 C138 1.275 . S
O150 Eu131 2.394 . S
O150 C139 1.251 . S
O151 Eu121 2.374 . S
O151 C139 1.251 . S
H152 C123 0.931 . S
H153 C124 0.931 . S
H154 C126 0.931 . S
H155 C127 0.931 . S
H156 C133 0.931 . S
H157 C134 0.931 . S
H158 C136 0.931 . S
H159 C137 0.931 . S
C160 Eu161 2.835 . S
C160 C162 1.500 . S
C160 O180 1.257 . S
C160 O181 1.260 . S
Eu161 C160 2.835 . S
Eu161 O180 2.473 . S
Eu161 O181 2.480 . S
Eu161 O182 2.430 . S
Eu161 O183 2.670 . S
Eu161 O184 2.394 . S
Eu161 O189 2.355 . S
Eu161 O191 2.374 . S
C162 C160 1.500 . S
C162 C163 1.377 . S
C162 C167 1.377 . S
C163 C162 1.377 . S
C163 C164 1.395 . S
C163 H192 0.931 . S
C164 C163 1.395 . S
C164 C165 1.383 . S
C164 H193 0.931 . S
C165 C164 1.383 . S
C165 C166 1.394 . S
C166 C165 1.394 . S
C166 C167 1.378 . S
C166 H194 0.931 . S
C167 C162 1.377 . S
C167 C166 1.378 . S
C167 H195 0.931 . S
C168 O182 1.259 . S
C168 O183 1.270 . S
C169 O184 1.251 . S
C169 O185 1.251 . S
C170 Eu171 2.835 . S
C170 C172 1.500 . S
C170 O186 1.257 . S
C170 O187 1.260 . S
Eu171 C170 2.835 . S
Eu171 O183 2.355 . S
Eu171 O185 2.374 . S
Eu171 O186 2.473 . S
Eu171 O187 2.480 . S
Eu171 O188 2.430 . S
Eu171 O189 2.670 . S
Eu171 O190 2.394 . S
C172 C170 1.500 . S
C172 C173 1.377 . S
C172 C177 1.377 . S
C173 C172 1.377 . S
C173 C174 1.395 . S
C173 H196 0.931 . S
C174 C173 1.395 . S
C174 C175 1.383 . S
C174 H197 0.931 . S
C175 C174 1.383 . S
C175 C176 1.394 . S
C176 C175 1.394 . S
C176 C177 1.378 . S
C176 H198 0.931 . S
C177 C172 1.377 . S
C177 C176 1.378 . S
C177 H199 0.931 . S
C178 O188 1.259 . S
C178 O189 1.270 . S
C179 O190 1.251 . S
C179 O191 1.251 . S
O180 C160 1.257 . S
O180 Eu161 2.473 . S
O181 C160 1.260 . S
O181 Eu161 2.480 . S
O182 Eu161 2.430 . S
O182 C168 1.259 . S
O183 Eu161 2.670 . S
O183 C168 1.270 . S
O183 Eu171 2.355 . S
O184 Eu161 2.394 . S
O184 C169 1.251 . S
O185 C169 1.251 . S
O185 Eu171 2.374 . S
O186 C170 1.257 . S
O186 Eu171 2.473 . S
O187 C170 1.260 . S
O187 Eu171 2.480 . S
O188 Eu171 2.430 . S
O188 C178 1.259 . S
O189 Eu161 2.355 . S
O189 Eu171 2.670 . S
O189 C178 1.270 . S
O190 Eu171 2.394 . S
O190 C179 1.251 . S
O191 Eu161 2.374 . S
O191 C179 1.251 . S
H192 C163 0.931 . S
H193 C164 0.931 . S
H194 C166 0.931 . S
H195 C167 0.931 . S
H196 C173 0.931 . S
H197 C174 0.931 . S
H198 C176 0.931 . S
H199 C177 0.931 . S
C200 Eu201 2.835 . S
C200 C202 1.500 . S
C200 O220 1.257 . S
C200 O221 1.260 . S
Eu201 C200 2.835 . S
Eu201 O220 2.473 . S
Eu201 O221 2.480 . S
Eu201 O222 2.430 . S
Eu201 O223 2.670 . S
Eu201 O224 2.394 . S
Eu201 O229 2.355 . S
Eu201 O231 2.374 . S
C202 C200 1.500 . S
C202 C203 1.377 . S
C202 C207 1.377 . S
C203 C202 1.377 . S
C203 C204 1.395 . S
C203 H232 0.931 . S
C204 C203 1.395 . S
C204 C205 1.383 . S
C204 H233 0.931 . S
C205 C204 1.383 . S
C205 C206 1.394 . S
C206 C205 1.394 . S
C206 C207 1.378 . S
C206 H234 0.931 . S
C207 C202 1.377 . S
C207 C206 1.378 . S
C207 H235 0.931 . S
C208 O222 1.259 . S
C208 O223 1.270 . S
C209 O224 1.251 . S
C209 O225 1.251 . S
C210 Eu211 2.835 . S
C210 C212 1.500 . S
C210 O226 1.257 . S
C210 O227 1.260 . S
Eu211 C210 2.835 . S
Eu211 O223 2.355 . S
Eu211 O225 2.374 . S
Eu211 O226 2.473 . S
Eu211 O227 2.480 . S
Eu211 O228 2.430 . S
Eu211 O229 2.670 . S
Eu211 O230 2.394 . S
C212 C210 1.500 . S
C212 C213 1.377 . S
C212 C217 1.377 . S
C213 C212 1.377 . S
C213 C214 1.395 . S
C213 H236 0.931 . S
C214 C213 1.395 . S
C214 C215 1.383 . S
C214 H237 0.931 . S
C215 C214 1.383 . S
C215 C216 1.394 . S
C216 C215 1.394 . S
C216 C217 1.378 . S
C216 H238 0.931 . S
C217 C212 1.377 . S
C217 C216 1.378 . S
C217 H239 0.931 . S
C218 O228 1.259 . S
C218 O229 1.270 . S
C219 O230 1.251 . S
C219 O231 1.251 . S
O220 C200 1.257 . S
O220 Eu201 2.473 . S
O221 C200 1.260 . S
O221 Eu201 2.480 . S
O222 Eu201 2.430 . S
O222 C208 1.259 . S
O223 Eu201 2.670 . S
O223 C208 1.270 . S
O223 Eu211 2.355 . S
O224 Eu201 2.394 . S
O224 C209 1.251 . S
O225 C209 1.251 . S
O225 Eu211 2.374 . S
O226 C210 1.257 . S
O226 Eu211 2.473 . S
O227 C210 1.260 . S
O227 Eu211 2.480 . S
O228 Eu211 2.430 . S
O228 C218 1.259 . S
O229 Eu201 2.355 . S
O229 Eu211 2.670 . S
O229 C218 1.270 . S
O230 Eu211 2.394 . S
O230 C219 1.251 . S
O231 Eu201 2.374 . S
O231 C219 1.251 . S
H232 C203 0.931 . S
H233 C204 0.931 . S
H234 C206 0.931 . S
H235 C207 0.931 . S
H236 C213 0.931 . S
H237 C214 0.931 . S
H238 C216 0.931 . S
H239 C217 0.931 . S
C240 Eu241 2.835 . S
C240 C242 1.500 . S
C240 O260 1.257 . S
C240 O261 1.260 . S
Eu241 C240 2.835 . S
Eu241 O260 2.473 . S
Eu241 O261 2.480 . S
Eu241 O262 2.430 . S
Eu241 O263 2.670 . S
Eu241 O264 2.394 . S
Eu241 O269 2.355 . S
Eu241 O271 2.374 . S
C242 C240 1.500 . S
C242 C243 1.377 . S
C242 C247 1.377 . S
C243 C242 1.377 . S
C243 C244 1.395 . S
C243 H272 0.931 . S
C244 C243 1.395 . S
C244 C245 1.383 . S
C244 H273 0.931 . S
C245 C244 1.383 . S
C245 C246 1.394 . S
C246 C245 1.394 . S
C246 C247 1.378 . S
C246 H274 0.931 . S
C247 C242 1.377 . S
C247 C246 1.378 . S
C247 H275 0.931 . S
C248 O262 1.259 . S
C248 O263 1.270 . S
C249 O264 1.251 . S
C249 O265 1.251 . S
C250 Eu251 2.835 . S
C250 C252 1.500 . S
C250 O266 1.257 . S
C250 O267 1.260 . S
Eu251 C250 2.835 . S
Eu251 O263 2.355 . S
Eu251 O265 2.374 . S
Eu251 O266 2.473 . S
Eu251 O267 2.480 . S
Eu251 O268 2.430 . S
Eu251 O269 2.670 . S
Eu251 O270 2.394 . S
C252 C250 1.500 . S
C252 C253 1.377 . S
C252 C257 1.377 . S
C253 C252 1.377 . S
C253 C254 1.395 . S
C253 H276 0.931 . S
C254 C253 1.395 . S
C254 C255 1.383 . S
C254 H277 0.931 . S
C255 C254 1.383 . S
C255 C256 1.394 . S
C256 C255 1.394 . S
C256 C257 1.378 . S
C256 H278 0.931 . S
C257 C252 1.377 . S
C257 C256 1.378 . S
C257 H279 0.931 . S
C258 O268 1.259 . S
C258 O269 1.270 . S
C259 O270 1.251 . S
C259 O271 1.251 . S
O260 C240 1.257 . S
O260 Eu241 2.473 . S
O261 C240 1.260 . S
O261 Eu241 2.480 . S
O262 Eu241 2.430 . S
O262 C248 1.259 . S
O263 Eu241 2.670 . S
O263 C248 1.270 . S
O263 Eu251 2.355 . S
O264 Eu241 2.394 . S
O264 C249 1.251 . S
O265 C249 1.251 . S
O265 Eu251 2.374 . S
O266 C250 1.257 . S
O266 Eu251 2.473 . S
O267 C250 1.260 . S
O267 Eu251 2.480 . S
O268 Eu251 2.430 . S
O268 C258 1.259 . S
O269 Eu241 2.355 . S
O269 Eu251 2.670 . S
O269 C258 1.270 . S
O270 Eu251 2.394 . S
O270 C259 1.251 . S
O271 Eu241 2.374 . S
O271 C259 1.251 . S
H272 C243 0.931 . S
H273 C244 0.931 . S
H274 C246 0.931 . S
H275 C247 0.931 . S
H276 C253 0.931 . S
H277 C254 0.931 . S
H278 C256 0.931 . S
H279 C257 0.931 . S
C280 Eu281 2.835 . S
C280 C282 1.500 . S
C280 O300 1.257 . S
C280 O301 1.260 . S
Eu281 C280 2.835 . S
Eu281 O300 2.473 . S
Eu281 O301 2.480 . S
Eu281 O302 2.430 1_455 S
Eu281 O303 2.670 1_455 S
Eu281 O304 2.394 . S
Eu281 O309 2.355 . S
Eu281 O311 2.374 . S
C282 C280 1.500 . S
C282 C283 1.377 . S
C282 C287 1.377 . S
C283 C282 1.377 . S
C283 C284 1.395 . S
C283 H312 0.931 . S
C284 C283 1.395 . S
C284 C285 1.383 . S
C284 H313 0.931 . S
C285 C284 1.383 . S
C285 C286 1.394 . S
C286 C285 1.394 . S
C286 C287 1.378 . S
C286 H314 0.931 . S
C287 C282 1.377 . S
C287 C286 1.378 . S
C287 H315 0.931 . S
C288 O302 1.259 . S
C288 O303 1.270 . S
C289 O304 1.251 . S
C289 O305 1.251 1_455 S
C290 Eu291 2.835 . S
C290 C292 1.500 . S
C290 O306 1.257 . S
C290 O307 1.260 . S
Eu291 C290 2.835 . S
Eu291 O303 2.355 . S
Eu291 O305 2.374 . S
Eu291 O306 2.473 . S
Eu291 O307 2.480 . S
Eu291 O308 2.430 . S
Eu291 O309 2.670 1_655 S
Eu291 O310 2.394 . S
C292 C290 1.500 . S
C292 C293 1.377 . S
C292 C297 1.377 . S
C293 C292 1.377 . S
C293 C294 1.395 . S
C293 H316 0.931 . S
C294 C293 1.395 . S
C294 C295 1.383 . S
C294 H317 0.931 . S
C295 C294 1.383 . S
C295 C296 1.394 . S
C296 C295 1.394 . S
C296 C297 1.378 . S
C296 H318 0.931 . S
C297 C292 1.377 . S
C297 C296 1.378 . S
C297 H319 0.931 . S
C298 O308 1.259 1_455 S
C298 O309 1.270 . S
C299 O310 1.251 . S
C299 O311 1.251 1_655 S
O300 C280 1.257 . S
O300 Eu281 2.473 . S
O301 C280 1.260 . S
O301 Eu281 2.480 . S
O302 Eu281 2.430 1_655 S
O302 C288 1.259 . S
O303 Eu281 2.670 1_655 S
O303 C288 1.270 . S
O303 Eu291 2.355 . S
O304 Eu281 2.394 . S
O304 C289 1.251 . S
O305 C289 1.251 1_655 S
O305 Eu291 2.374 . S
O306 C290 1.257 . S
O306 Eu291 2.473 . S
O307 C290 1.260 . S
O307 Eu291 2.480 . S
O308 Eu291 2.430 . S
O308 C298 1.259 1_655 S
O309 Eu281 2.355 . S
O309 Eu291 2.670 1_455 S
O309 C298 1.270 . S
O310 Eu291 2.394 . S
O310 C299 1.251 . S
O311 Eu281 2.374 . S
O311 C299 1.251 1_455 S
H312 C283 0.931 . S
H313 C284 0.931 . S
H314 C286 0.931 . S
H315 C287 0.931 . S
H316 C293 0.931 . S
H317 C294 0.931 . S
H318 C296 0.931 . S
H319 C297 0.931 . S
C320 Eu321 2.871 . S
C320 C322 1.500 . S
C320 O340 1.257 . S
C320 O341 1.260 1_655 S
Eu321 C320 2.871 . S
Eu321 O340 2.521 . S
Eu321 O341 2.496 1_655 S
Eu321 O342 2.381 1_655 S
Eu321 O343 2.624 1_655 S
Eu321 O344 2.389 . S
Eu321 O349 2.370 . S
Eu321 O351 2.355 1_655 S
C322 C320 1.500 . S
C322 C323 1.377 . S
C322 C327 1.377 . S
C323 C322 1.377 . S
C323 C324 1.395 . S
C323 H352 0.931 1_655 S
C324 C323 1.395 . S
C324 C325 1.383 . S
C324 H353 0.931 . S
C325 C324 1.383 . S
C325 C326 1.394 . S
C326 C325 1.394 . S
C326 C327 1.378 . S
C326 H354 0.931 . S
C327 C322 1.377 . S
C327 C326 1.378 . S
C327 H355 0.931 . S
C328 O342 1.259 . S
C328 O343 1.270 . S
C329 O344 1.251 . S
C329 O345 1.251 . S
C330 Eu331 2.835 1_455 S
C330 C332 1.500 . S
C330 O346 1.257 . S
C330 O347 1.260 1_455 S
Eu331 C330 2.835 1_655 S
Eu331 O343 2.355 1_655 S
Eu331 O345 2.374 . S
Eu331 O346 2.473 1_655 S
Eu331 O347 2.480 . S
Eu331 O348 2.430 . S
Eu331 O349 2.670 . S
Eu331 O350 2.394 . S
C332 C330 1.500 . S
C332 C333 1.381 . S
C332 C337 1.377 . S
C333 C332 1.381 . S
C333 C334 1.409 . S
C333 H356 0.913 1_455 S
C334 C333 1.409 . S
C334 C335 1.383 . S
C334 H357 0.931 1_455 S
C335 C334 1.383 . S
C335 C336 1.394 . S
C336 C335 1.394 . S
C336 C337 1.378 . S
C336 H358 0.931 . S
C337 C332 1.377 . S
C337 C336 1.378 . S
C337 H359 0.931 . S
C338 O348 1.259 . S
C338 O349 1.270 . S
C339 O350 1.251 1_455 S
C339 O351 1.251 . S
O340 C320 1.257 . S
O340 Eu321 2.521 . S
O341 C320 1.260 1_455 S
O341 Eu321 2.496 1_455 S
O342 Eu321 2.381 1_455 S
O342 C328 1.259 . S
O343 Eu321 2.624 1_455 S
O343 C328 1.270 . S
O343 Eu331 2.355 1_455 S
O344 Eu321 2.389 . S
O344 C329 1.251 . S
O345 C329 1.251 . S
O345 Eu331 2.374 . S
O346 C330 1.257 . S
O346 Eu331 2.473 1_455 S
O347 C330 1.260 1_655 S
O347 Eu331 2.480 . S
O348 Eu331 2.430 . S
O348 C338 1.259 . S
O349 Eu321 2.370 . S
O349 Eu331 2.670 . S
O349 C338 1.270 . S
O350 Eu331 2.394 . S
O350 C339 1.251 1_655 S
O351 Eu321 2.355 1_455 S
O351 C339 1.251 . S
H352 C323 0.931 1_455 S
H353 C324 0.931 . S
H354 C326 0.931 . S
H355 C327 0.931 . S
H356 C333 0.913 1_655 S
H357 C334 0.931 1_655 S
H358 C336 0.931 . S
H359 C337 0.931 . S
H360 C368 0.950 . S
H361 C373 0.950 . S
H362 C370 0.950 . S
H363 C372 0.950 . S
H364 C374 0.950 . S
H365 C376 0.950 . S
H366 C378 0.950 . S
H367 C379 0.950 . S
C368 H360 0.950 . S
C368 C369 1.386 . S
C368 C370 1.391 . S
C369 C368 1.386 . S
C369 C373 1.393 . S
C370 H362 0.950 . S
C370 C368 1.391 . S
C370 C371 1.400 . S
C371 C370 1.400 . S
C371 C372 1.398 . S
C371 C377 1.491 . S
C372 H363 0.950 . S
C372 C371 1.398 . S
C372 C373 1.391 . S
C373 H361 0.950 . S
C373 C369 1.393 . S
C373 C372 1.391 . S
C374 H364 0.950 . S
C374 C375 1.386 . S
C374 C376 1.391 . S
C375 C374 1.386 . S
C375 C379 1.393 . S
C376 H365 0.950 . S
C376 C374 1.391 . S
C376 C377 1.400 . S
C377 C371 1.491 . S
C377 C376 1.400 . S
C377 C378 1.398 . S
C378 H366 0.950 . S
C378 C377 1.398 . S
C378 C379 1.391 . S
C379 H367 0.950 . S
C379 C375 1.393 . S
C379 C378 1.391 . S
H380 C388 0.950 . S
H381 C393 0.950 . S
H382 C390 0.950 . S
H383 C392 0.950 . S
H384 C394 0.950 . S
H385 C396 0.950 . S
H386 C398 0.950 . S
H387 C399 0.950 . S
C388 H380 0.950 . S
C388 C389 1.386 . S
C388 C390 1.391 . S
C389 C388 1.386 . S
C389 C393 1.393 . S
C390 H382 0.950 . S
C390 C388 1.391 . S
C390 C391 1.400 . S
C391 C390 1.400 . S
C391 C392 1.398 . S
C391 C397 1.491 . S
C392 H383 0.950 . S
C392 C391 1.398 . S
C392 C393 1.391 . S
C393 H381 0.950 . S
C393 C389 1.393 . S
C393 C392 1.391 . S
C394 H384 0.950 . S
C394 C395 1.386 . S
C394 C396 1.391 . S
C395 C394 1.386 . S
C395 C399 1.393 . S
C396 H385 0.950 . S
C396 C394 1.391 . S
C396 C397 1.400 . S
C397 C391 1.491 . S
C397 C396 1.400 . S
C397 C398 1.398 . S
C398 H386 0.950 . S
C398 C397 1.398 . S
C398 C399 1.391 . S
C399 H387 0.950 . S
C399 C395 1.393 . S
C399 C398 1.391 . S
H400 C408 0.950 . S
H401 C413 0.950 . S
H402 C410 0.950 . S
H403 C412 0.950 . S
H404 C414 0.950 . S
H405 C416 0.950 . S
H406 C418 0.950 . S
H407 C419 0.950 . S
C408 H400 0.950 . S
C408 C409 1.386 . S
C408 C410 1.391 . S
C409 C408 1.386 . S
C409 C413 1.393 . S
C410 H402 0.950 . S
C410 C408 1.391 . S
C410 C411 1.400 . S
C411 C410 1.400 . S
C411 C412 1.398 . S
C411 C417 1.491 . S
C412 H403 0.950 . S
C412 C411 1.398 . S
C412 C413 1.391 . S
C413 H401 0.950 . S
C413 C409 1.393 . S
C413 C412 1.391 . S
C414 H404 0.950 . S
C414 C415 1.386 . S
C414 C416 1.391 . S
C415 C414 1.386 . S
C415 C419 1.393 . S
C416 H405 0.950 . S
C416 C414 1.391 . S
C416 C417 1.400 . S
C417 C411 1.491 . S
C417 C416 1.400 . S
C417 C418 1.398 . S
C418 H406 0.950 . S
C418 C417 1.398 . S
C418 C419 1.391 . S
C419 H407 0.950 . S
C419 C415 1.393 . S
C419 C418 1.391 . S
H420 C428 0.950 . S
H421 C433 0.950 . S
H422 C430 0.950 . S
H423 C432 0.950 . S
H424 C434 0.950 . S
H425 C436 0.950 . S
H426 C438 0.950 1_545 S
H427 C439 0.947 . S
C428 H420 0.950 . S
C428 C429 1.386 . S
C428 C430 1.391 . S
C429 C428 1.386 . S
C429 C433 1.393 . S
C430 H422 0.950 . S
C430 C428 1.391 . S
C430 C431 1.400 . S
C431 C430 1.400 . S
C431 C432 1.398 . S
C431 C437 1.491 . S
C432 H423 0.950 . S
C432 C431 1.398 . S
C432 C433 1.391 . S
C433 H421 0.950 . S
C433 C429 1.393 . S
C433 C432 1.391 . S
C434 H424 0.950 . S
C434 C435 1.386 . S
C434 C436 1.391 . S
C435 C434 1.386 . S
C435 C439 1.395 1_565 S
C436 H425 0.950 . S
C436 C434 1.391 . S
C436 C437 1.400 . S
C437 C431 1.491 . S
C437 C436 1.400 . S
C437 C438 1.398 . S
C438 H426 0.950 1_565 S
C438 C437 1.398 . S
C438 C439 1.391 1_565 S
C439 H427 0.947 . S
C439 C435 1.395 1_545 S
C439 C438 1.391 1_545 S
H440 C448 0.950 . S
H441 C453 0.950 . S
H442 C450 0.950 . S
H443 C452 0.950 . S
H444 C454 0.950 . S
H445 C456 0.950 . S
H446 C458 0.950 . S
H447 C459 0.950 . S
C448 H440 0.950 . S
C448 C449 1.386 . S
C448 C450 1.391 . S
C449 C448 1.386 . S
C449 C453 1.393 . S
C450 H442 0.950 . S
C450 C448 1.391 . S
C450 C451 1.400 . S
C451 C450 1.400 . S
C451 C452 1.398 . S
C451 C457 1.491 . S
C452 H443 0.950 . S
C452 C451 1.398 . S
C452 C453 1.391 . S
C453 H441 0.950 . S
C453 C449 1.393 . S
C453 C452 1.391 . S
C454 H444 0.950 . S
C454 C455 1.386 . S
C454 C456 1.391 . S
C455 C454 1.386 . S
C455 C459 1.393 . S
C456 H445 0.950 . S
C456 C454 1.391 . S
C456 C457 1.400 . S
C457 C451 1.491 . S
C457 C456 1.400 . S
C457 C458 1.398 . S
C458 H446 0.950 . S
C458 C457 1.398 . S
C458 C459 1.391 . S
C459 H447 0.950 . S
C459 C455 1.393 . S
C459 C458 1.391 . S
H460 C468 0.950 . S
H461 C473 0.950 . S
H462 C470 0.950 . S
H463 C472 0.950 . S
H464 C474 0.950 . S
H465 C476 0.950 . S
H466 C478 0.950 . S
H467 C479 0.950 . S
C468 H460 0.950 . S
C468 C469 1.386 . S
C468 C470 1.391 . S
C469 C468 1.386 . S
C469 C473 1.393 . S
C470 H462 0.950 . S
C470 C468 1.391 . S
C470 C471 1.400 . S
C471 C470 1.400 . S
C471 C472 1.398 . S
C471 C477 1.491 . S
C472 H463 0.950 . S
C472 C471 1.398 . S
C472 C473 1.391 . S
C473 H461 0.950 . S
C473 C469 1.393 . S
C473 C472 1.391 . S
C474 H464 0.950 . S
C474 C475 1.386 . S
C474 C476 1.391 . S
C475 C474 1.386 . S
C475 C479 1.393 . S
C476 H465 0.950 . S
C476 C474 1.391 . S
C476 C477 1.400 . S
C477 C471 1.491 . S
C477 C476 1.400 . S
C477 C478 1.398 . S
C478 H466 0.950 . S
C478 C477 1.398 . S
C478 C479 1.391 . S
C479 H467 0.950 . S
C479 C475 1.393 . S
C479 C478 1.391 . S
H480 C488 0.950 . S
H481 C493 0.950 . S
H482 C490 0.950 . S
H483 C492 0.950 . S
H484 C494 0.950 . S
H485 C496 0.950 . S
H486 C498 0.950 . S
H487 C499 0.950 . S
C488 H480 0.950 . S
C488 C489 1.386 . S
C488 C490 1.391 . S
C489 C488 1.386 . S
C489 C493 1.393 . S
C490 H482 0.950 . S
C490 C488 1.391 . S
C490 C491 1.400 . S
C491 C490 1.400 . S
C491 C492 1.398 . S
C491 C497 1.491 . S
C492 H483 0.950 . S
C492 C491 1.398 . S
C492 C493 1.391 . S
C493 H481 0.950 . S
C493 C489 1.393 . S
C493 C492 1.391 . S
C494 H484 0.950 . S
C494 C495 1.386 . S
C494 C496 1.391 1_556 S
C495 C494 1.386 . S
C495 C499 1.393 . S
C496 H485 0.950 . S
C496 C494 1.391 1_554 S
C496 C497 1.400 . S
C497 C491 1.491 . S
C497 C496 1.400 . S
C497 C498 1.398 . S
C498 H486 0.950 . S
C498 C497 1.398 . S
C498 C499 1.391 1_554 S
C499 H487 0.950 . S
C499 C495 1.393 . S
C499 C498 1.391 1_556 S
H500 C508 0.950 . S
H501 C513 0.950 . S
H502 C510 0.950 . S
H503 C512 0.950 . S
H504 C514 0.950 1_556 S
H505 C516 0.950 . S
H506 C518 0.955 . S
H507 C519 0.950 1_455 S
C508 H500 0.950 . S
C508 C509 1.386 . S
C508 C510 1.391 . S
C509 C508 1.386 . S
C509 C513 1.393 1_455 S
C510 H502 0.950 . S
C510 C508 1.391 . S
C510 C511 1.400 1_455 S
C511 C510 1.400 1_655 S
C511 C512 1.398 . S
C511 C517 1.491 . S
C512 H503 0.950 . S
C512 C511 1.398 . S
C512 C513 1.391 . S
C513 H501 0.950 . S
C513 C509 1.393 1_655 S
C513 C512 1.391 . S
C514 H504 0.950 1_554 S
C514 C515 1.386 1_554 S
C514 C516 1.391 . S
C515 C514 1.386 1_556 S
C515 C519 1.393 . S
C516 H505 0.950 . S
C516 C514 1.391 . S
C516 C517 1.400 . S
C517 C511 1.491 . S
C517 C516 1.400 . S
C517 C518 1.403 1_655 S
C518 H506 0.955 . S
C518 C517 1.403 1_455 S
C518 C519 1.386 1_454 S
C519 H507 0.950 1_655 S
C519 C515 1.393 . S
C519 C518 1.386 1_656 S
H520 C528 0.950 . S
H521 C533 0.950 . S
H522 C530 0.950 . S
H523 C532 0.950 . S
H524 C534 0.950 1_556 S
H525 C536 0.950 . S
H526 C538 0.950 . S
H527 C539 0.950 . S
C528 H520 0.950 . S
C528 C529 1.386 . S
C528 C530 1.391 . S
C529 C528 1.386 . S
C529 C533 1.393 1_655 S
C530 H522 0.950 . S
C530 C528 1.391 . S
C530 C531 1.400 . S
C531 C530 1.400 . S
C531 C532 1.398 1_655 S
C531 C537 1.491 . S
C532 H523 0.950 . S
C532 C531 1.398 1_455 S
C532 C533 1.391 . S
C533 H521 0.950 . S
C533 C529 1.393 1_455 S
C533 C532 1.391 . S
C534 H524 0.950 1_554 S
C534 C535 1.386 1_554 S
C534 C536 1.391 . S
C535 C534 1.386 1_556 S
C535 C539 1.393 1_455 S
C536 H525 0.950 . S
C536 C534 1.391 . S
C536 C537 1.400 1_455 S
C537 C531 1.491 . S
C537 C536 1.400 1_655 S
C537 C538 1.398 . S
C538 H526 0.950 . S
C538 C537 1.398 . S
C538 C539 1.391 1_554 S
C539 H527 0.950 . S
C539 C535 1.393 1_655 S
C539 C538 1.391 1_556 S
H540 C548 0.950 . S
H541 C553 0.950 . S
H542 C550 0.950 . S
H543 C552 0.950 . S
H544 C554 0.950 . S
H545 C556 0.950 . S
H546 C558 0.950 . S
H547 C559 0.950 . S
C548 H540 0.950 . S
C548 C549 1.386 . S
C548 C550 1.391 . S
C549 C548 1.386 . S
C549 C553 1.393 . S
C550 H542 0.950 . S
C550 C548 1.391 . S
C550 C551 1.400 . S
C551 C550 1.400 . S
C551 C552 1.398 . S
C551 C557 1.491 . S
C552 H543 0.950 . S
C552 C551 1.398 . S
C552 C553 1.391 . S
C553 H541 0.950 . S
C553 C549 1.393 . S
C553 C552 1.391 . S
C554 H544 0.950 . S
C554 C555 1.386 . S
C554 C556 1.391 . S
C555 C554 1.386 . S
C555 C559 1.393 . S
C556 H545 0.950 . S
C556 C554 1.391 . S
C556 C557 1.400 . S
C557 C551 1.491 . S
C557 C556 1.400 . S
C557 C558 1.398 . S
C558 H546 0.950 . S
C558 C557 1.398 . S
C558 C559 1.391 . S
C559 H547 0.950 . S
C559 C555 1.393 . S
C559 C558 1.391 . S
H560 C568 0.950 . S
H561 C573 0.950 . S
H562 C570 0.950 . S
H563 C572 0.950 . S
H564 C574 0.950 . S
H565 C576 0.950 . S
H566 C578 0.950 . S
H567 C579 0.950 . S
C568 H560 0.950 . S
C568 C569 1.386 . S
C568 C570 1.391 . S
C569 C568 1.386 . S
C569 C573 1.393 . S
C570 H562 0.950 . S
C570 C568 1.391 . S
C570 C571 1.400 . S
C571 C570 1.400 . S
C571 C572 1.398 . S
C571 C577 1.491 . S
C572 H563 0.950 . S
C572 C571 1.398 . S
C572 C573 1.391 . S
C573 H561 0.950 . S
C573 C569 1.393 . S
C573 C572 1.391 . S
C574 H564 0.950 . S
C574 C575 1.386 . S
C574 C576 1.391 . S
C575 C574 1.386 . S
C575 C579 1.393 . S
C576 H565 0.950 . S
C576 C574 1.391 . S
C576 C577 1.400 . S
C577 C571 1.491 . S
C577 C576 1.400 . S
C577 C578 1.398 . S
C578 H566 0.950 . S
C578 C577 1.398 . S
C578 C579 1.391 . S
C579 H567 0.950 . S
C579 C575 1.393 . S
C579 C578 1.391 . S
H580 C588 0.950 1_545 S
H581 C593 0.950 . S
H582 C590 0.950 . S
H583 C592 0.950 . S
H584 C594 0.950 . S
H585 C596 0.950 . S
H586 C598 0.950 . S
H587 C599 0.950 . S
C588 H580 0.950 1_565 S
C588 C589 1.386 . S
C588 C590 1.391 . S
C589 C588 1.386 . S
C589 C593 1.393 . S
C590 H582 0.950 . S
C590 C588 1.391 . S
C590 C591 1.400 . S
C591 C590 1.400 . S
C591 C592 1.398 . S
C591 C597 1.491 . S
C592 H583 0.950 . S
C592 C591 1.398 . S
C592 C593 1.391 . S
C593 H581 0.950 . S
C593 C589 1.393 . S
C593 C592 1.391 . S
C594 H584 0.950 . S
C594 C595 1.386 . S
C594 C596 1.391 . S
C595 C594 1.386 . S
C595 C599 1.393 . S
C596 H585 0.950 . S
C596 C594 1.391 . S
C596 C597 1.400 . S
C597 C591 1.491 . S
C597 C596 1.400 . S
C597 C598 1.398 . S
C598 H586 0.950 . S
C598 C597 1.398 . S
C598 C599 1.391 . S
C599 H587 0.950 . S
C599 C595 1.393 . S
C599 C598 1.391 . S
H600 C608 0.950 . S
H601 C613 0.950 . S
H602 C610 0.950 . S
H603 C612 0.950 . S
H604 C614 0.950 . S
H605 C616 0.950 . S
H606 C618 0.950 . S
H607 C619 0.950 . S
C608 H600 0.950 . S
C608 C609 1.386 1_556 S
C608 C610 1.391 . S
C609 C608 1.386 1_554 S
C609 C613 1.393 . S
C610 H602 0.950 . S
C610 C608 1.391 . S
C610 C611 1.400 . S
C611 C610 1.400 . S
C611 C612 1.398 1_556 S
C611 C617 1.491 . S
C612 H603 0.950 . S
C612 C611 1.398 1_554 S
C612 C613 1.391 . S
C613 H601 0.950 . S
C613 C609 1.393 . S
C613 C612 1.391 . S
C614 H604 0.950 . S
C614 C615 1.386 . S
C614 C616 1.391 . S
C615 C614 1.386 . S
C615 C619 1.393 . S
C616 H605 0.950 . S
C616 C614 1.391 . S
C616 C617 1.400 . S
C617 C611 1.491 . S
C617 C616 1.400 . S
C617 C618 1.398 . S
C618 H606 0.950 . S
C618 C617 1.398 . S
C618 C619 1.391 . S
C619 H607 0.950 . S
C619 C615 1.393 . S
C619 C618 1.391 . S
H620 C628 0.950 . S
H621 C633 0.950 . S
H622 C630 0.950 . S
H623 C632 0.950 . S
H624 C634 0.950 . S
H625 C636 0.950 . S
H626 C638 0.950 . S
H627 C639 0.950 . S
C628 H620 0.950 . S
C628 C629 1.386 . S
C628 C630 1.391 . S
C629 C628 1.386 . S
C629 C633 1.393 . S
C630 H622 0.950 . S
C630 C628 1.391 . S
C630 C631 1.400 . S
C631 C630 1.400 . S
C631 C632 1.398 . S
C631 C637 1.491 . S
C632 H623 0.950 . S
C632 C631 1.398 . S
C632 C633 1.391 . S
C633 H621 0.950 . S
C633 C629 1.393 . S
C633 C632 1.391 . S
C634 H624 0.950 . S
C634 C635 1.386 . S
C634 C636 1.391 1_554 S
C635 C634 1.386 . S
C635 C639 1.393 . S
C636 H625 0.950 . S
C636 C634 1.391 1_556 S
C636 C637 1.400 . S
C637 C631 1.491 . S
C637 C636 1.400 . S
C637 C638 1.398 . S
C638 H626 0.950 . S
C638 C637 1.398 . S
C638 C639 1.391 1_556 S
C639 H627 0.950 . S
C639 C635 1.393 . S
C639 C638 1.391 1_554 S
H640 C648 0.950 . S
H641 C653 0.950 . S
H642 C650 0.950 . S
H643 C652 0.950 . S
H644 C654 0.950 . S
H645 C656 0.950 . S
H646 C658 0.950 . S
H647 C659 0.950 . S
C648 H640 0.950 . S
C648 C649 1.386 . S
C648 C650 1.391 . S
C649 C648 1.386 . S
C649 C653 1.393 . S
C650 H642 0.950 . S
C650 C648 1.391 . S
C650 C651 1.400 . S
C651 C650 1.400 . S
C651 C652 1.398 . S
C651 C657 1.491 . S
C652 H643 0.950 . S
C652 C651 1.398 . S
C652 C653 1.391 . S
C653 H641 0.950 . S
C653 C649 1.393 . S
C653 C652 1.391 . S
C654 H644 0.950 . S
C654 C655 1.386 . S
C654 C656 1.391 1_554 S
C655 C654 1.386 . S
C655 C659 1.393 . S
C656 H645 0.950 . S
C656 C654 1.391 1_556 S
C656 C657 1.400 . S
C657 C651 1.491 . S
C657 C656 1.400 . S
C657 C658 1.398 . S
C658 H646 0.950 . S
C658 C657 1.398 . S
C658 C659 1.391 1_556 S
C659 H647 0.950 . S
C659 C655 1.393 . S
C659 C658 1.391 1_554 S
H660 C668 0.950 . S
H661 C673 0.950 . S
H662 C670 0.950 . S
H663 C672 0.950 . S
H664 C674 0.950 . S
H665 C676 0.950 . S
H666 C678 0.950 . S
H667 C679 0.950 . S
C668 H660 0.950 . S
C668 C669 1.386 1_554 S
C668 C670 1.391 . S
C669 C668 1.386 1_556 S
C669 C673 1.393 . S
C670 H662 0.950 . S
C670 C668 1.391 . S
C670 C671 1.400 1_554 S
C671 C670 1.400 1_556 S
C671 C672 1.398 . S
C671 C677 1.491 . S
C672 H663 0.950 . S
C672 C671 1.398 . S
C672 C673 1.391 . S
C673 H661 0.950 . S
C673 C669 1.393 . S
C673 C672 1.391 . S
C674 H664 0.950 . S
C674 C675 1.386 1_556 S
C674 C676 1.391 . S
C675 C674 1.386 1_554 S
C675 C679 1.393 . S
C676 H665 0.950 . S
C676 C674 1.391 . S
C676 C677 1.400 . S
C677 C671 1.491 . S
C677 C676 1.400 . S
C677 C678 1.398 1_556 S
C678 H666 0.950 . S
C678 C677 1.398 1_554 S
C678 C679 1.391 . S
C679 H667 0.950 . S
C679 C675 1.393 . S
C679 C678 1.391 . S
H680 C688 0.950 . S
H681 C693 0.950 . S
H682 C690 0.950 . S
H683 C692 0.950 . S
H684 C694 0.950 . S
H685 C696 0.950 . S
H686 C698 0.950 . S
H687 C699 0.950 . S
C688 H680 0.950 . S
C688 C689 1.386 . S
C688 C690 1.391 . S
C689 C688 1.386 . S
C689 C693 1.393 1_554 S
C690 H682 0.950 . S
C690 C688 1.391 . S
C690 C691 1.400 1_554 S
C691 C690 1.400 1_556 S
C691 C692 1.398 . S
C691 C697 1.491 . S
C692 H683 0.950 . S
C692 C691 1.398 . S
C692 C693 1.391 . S
C693 H681 0.950 . S
C693 C689 1.393 1_556 S
C693 C692 1.391 . S
C694 H684 0.950 . S
C694 C695 1.386 . S
C694 C696 1.391 . S
C695 C694 1.386 . S
C695 C699 1.393 1_556 S
C696 H685 0.950 . S
C696 C694 1.391 . S
C696 C697 1.400 . S
C697 C691 1.491 . S
C697 C696 1.400 . S
C697 C698 1.398 1_556 S
C698 H686 0.950 . S
C698 C697 1.398 1_554 S
C698 C699 1.391 . S
C699 H687 0.950 . S
C699 C695 1.393 1_554 S
C699 C698 1.391 . S
H700 C708 0.950 . S
H701 C713 0.950 . S
H702 C710 0.950 . S
H703 C712 0.950 . S
H704 C714 0.950 . S
H705 C716 0.950 . S
H706 C718 0.950 . S
H707 C719 0.950 . S
C708 H700 0.950 . S
C708 C709 1.386 . S
C708 C710 1.391 . S
C709 C708 1.386 . S
C709 C713 1.393 1_556 S
C710 H702 0.950 . S
C710 C708 1.391 . S
C710 C711 1.400 . S
C711 C710 1.400 . S
C711 C712 1.398 1_556 S
C711 C717 1.491 . S
C712 H703 0.950 . S
C712 C711 1.398 1_554 S
C712 C713 1.391 . S
C713 H701 0.950 . S
C713 C709 1.393 1_554 S
C713 C712 1.391 . S
C714 H704 0.950 . S
C714 C715 1.386 . S
C714 C716 1.391 . S
C715 C714 1.386 . S
C715 C719 1.393 1_554 S
C716 H705 0.950 . S
C716 C714 1.391 . S
C716 C717 1.400 1_554 S
C717 C711 1.491 . S
C717 C716 1.400 1_556 S
C717 C718 1.398 . S
C718 H706 0.950 . S
C718 C717 1.398 . S
C718 C719 1.391 . S
C719 H707 0.950 . S
C719 C715 1.393 1_556 S
C719 C718 1.391 . S
H720 C728 0.950 . S
H721 C733 0.950 . S
H722 C730 0.950 . S
H723 C732 0.950 . S
H724 C734 0.950 . S
H725 C736 0.950 . S
H726 C738 0.950 . S
H727 C739 0.950 . S
C728 H720 0.950 . S
C728 C729 1.386 . S
C728 C730 1.391 . S
C729 C728 1.386 . S
C729 C733 1.393 . S
C730 H722 0.950 . S
C730 C728 1.391 . S
C730 C731 1.400 . S
C731 C730 1.400 . S
C731 C732 1.398 . S
C731 C737 1.491 . S
C732 H723 0.950 . S
C732 C731 1.398 . S
C732 C733 1.391 . S
C733 H721 0.950 . S
C733 C729 1.393 . S
C733 C732 1.391 . S
C734 H724 0.950 . S
C734 C735 1.386 . S
C734 C736 1.391 . S
C735 C734 1.386 . S
C735 C739 1.393 . S
C736 H725 0.950 . S
C736 C734 1.391 . S
C736 C737 1.400 . S
C737 C731 1.491 . S
C737 C736 1.400 . S
C737 C738 1.398 . S
C738 H726 0.950 . S
C738 C737 1.398 . S
C738 C739 1.391 . S
C739 H727 0.950 . S
C739 C735 1.393 . S
C739 C738 1.391 . S
H740 C748 0.950 . S
H741 C753 0.950 . S
H742 C750 0.950 . S
H743 C752 0.950 . S
H744 C754 0.950 . S
H745 C756 0.950 . S
H746 C758 0.950 . S
H747 C759 0.950 . S
C748 H740 0.950 . S
C748 C749 1.386 . S
C748 C750 1.391 . S
C749 C748 1.386 . S
C749 C753 1.393 . S
C750 H742 0.950 . S
C750 C748 1.391 . S
C750 C751 1.400 . S
C751 C750 1.400 . S
C751 C752 1.398 . S
C751 C757 1.491 . S
C752 H743 0.950 . S
C752 C751 1.398 . S
C752 C753 1.391 . S
C753 H741 0.950 . S
C753 C749 1.393 . S
C753 C752 1.391 . S
C754 H744 0.950 . S
C754 C755 1.386 . S
C754 C756 1.391 . S
C755 C754 1.386 . S
C755 C759 1.393 . S
C756 H745 0.950 . S
C756 C754 1.391 . S
C756 C757 1.400 . S
C757 C751 1.491 . S
C757 C756 1.400 . S
C757 C758 1.398 . S
C758 H746 0.950 . S
C758 C757 1.398 . S
C758 C759 1.391 . S
C759 H747 0.950 . S
C759 C755 1.393 . S
C759 C758 1.391 . S
H760 C768 0.950 . S
H761 C773 0.950 . S
H762 C770 0.950 . S
H763 C772 0.950 . S
H764 C774 0.950 . S
H765 C776 0.950 . S
H766 C778 0.950 . S
H767 C779 0.950 . S
C768 H760 0.950 . S
C768 C769 1.386 . S
C768 C770 1.391 . S
C769 C768 1.386 . S
C769 C773 1.393 . S
C770 H762 0.950 . S
C770 C768 1.391 . S
C770 C771 1.400 . S
C771 C770 1.400 . S
C771 C772 1.398 . S
C771 C777 1.491 . S
C772 H763 0.950 . S
C772 C771 1.398 . S
C772 C773 1.391 . S
C773 H761 0.950 . S
C773 C769 1.393 . S
C773 C772 1.391 . S
C774 H764 0.950 . S
C774 C775 1.386 . S
C774 C776 1.391 . S
C775 C774 1.386 . S
C775 C779 1.393 . S
C776 H765 0.950 . S
C776 C774 1.391 . S
C776 C777 1.400 . S
C777 C771 1.491 . S
C777 C776 1.400 . S
C777 C778 1.398 . S
C778 H766 0.950 . S
C778 C777 1.398 . S
C778 C779 1.391 . S
C779 H767 0.950 . S
C779 C775 1.393 . S
C779 C778 1.391 . S
H780 C788 0.950 . S
H781 C793 0.950 . S
H782 C790 0.950 . S
H783 C792 0.950 . S
H784 C794 0.950 . S
H785 C796 0.950 . S
H786 C798 0.950 . S
H787 C799 0.950 . S
C788 H780 0.950 . S
C788 C789 1.386 . S
C788 C790 1.391 . S
C789 C788 1.386 . S
C789 C793 1.393 . S
C790 H782 0.950 . S
C790 C788 1.391 . S
C790 C791 1.400 . S
C791 C790 1.400 . S
C791 C792 1.398 . S
C791 C797 1.491 . S
C792 H783 0.950 . S
C792 C791 1.398 . S
C792 C793 1.391 . S
C793 H781 0.950 . S
C793 C789 1.393 . S
C793 C792 1.391 . S
C794 H784 0.950 . S
C794 C795 1.386 . S
C794 C796 1.391 . S
C795 C794 1.386 . S
C795 C799 1.393 . S
C796 H785 0.950 . S
C796 C794 1.391 . S
C796 C797 1.400 . S
C797 C791 1.491 . S
C797 C796 1.400 . S
C797 C798 1.398 . S
C798 H786 0.950 . S
C798 C797 1.398 . S
C798 C799 1.391 . S
C799 H787 0.950 . S
C799 C795 1.393 . S
C799 C798 1.391 . S
H800 C808 0.950 . S
H801 C813 0.950 . S
H802 C810 0.950 . S
H803 C812 0.950 . S
H804 C814 0.945 . S
H805 C816 0.950 . S
H806 C818 0.950 . S
H807 C819 0.950 . S
C808 H800 0.950 . S
C808 C809 1.386 . S
C808 C810 1.391 . S
C809 C808 1.386 . S
C809 C813 1.393 . S
C810 H802 0.950 . S
C810 C808 1.391 . S
C810 C811 1.400 . S
C811 C810 1.400 . S
C811 C812 1.398 . S
C811 C817 1.491 . S
C812 H803 0.950 . S
C812 C811 1.398 . S
C812 C813 1.391 . S
C813 H801 0.950 . S
C813 C809 1.393 . S
C813 C812 1.391 . S
C814 H804 0.945 . S
C814 C815 1.386 1_545 S
C814 C816 1.391 . S
C815 C814 1.386 1_565 S
C815 C819 1.393 . S
C816 H805 0.950 . S
C816 C814 1.391 . S
C816 C817 1.400 . S
C817 C811 1.491 . S
C817 C816 1.400 . S
C817 C818 1.398 . S
C818 H806 0.950 . S
C818 C817 1.398 . S
C818 C819 1.391 1_545 S
C819 H807 0.950 . S
C819 C815 1.393 . S
C819 C818 1.391 1_565 S
H820 C828 0.950 . S
H821 C833 0.950 . S
H822 C830 0.950 . S
H823 C832 0.950 . S
H824 C834 0.950 . S
H825 C836 0.950 . S
H826 C838 0.950 . S
H827 C839 0.950 . S
C828 H820 0.950 . S
C828 C829 1.386 . S
C828 C830 1.391 . S
C829 C828 1.386 . S
C829 C833 1.393 . S
C830 H822 0.950 . S
C830 C828 1.391 . S
C830 C831 1.400 . S
C831 C830 1.400 . S
C831 C832 1.398 . S
C831 C837 1.491 . S
C832 H823 0.950 . S
C832 C831 1.398 . S
C832 C833 1.391 . S
C833 H821 0.950 . S
C833 C829 1.393 . S
C833 C832 1.391 . S
C834 H824 0.950 . S
C834 C835 1.386 . S
C834 C836 1.391 . S
C835 C834 1.386 . S
C835 C839 1.393 . S
C836 H825 0.950 . S
C836 C834 1.391 . S
C836 C837 1.400 . S
C837 C831 1.491 . S
C837 C836 1.400 . S
C837 C838 1.398 . S
C838 H826 0.950 . S
C838 C837 1.398 . S
C838 C839 1.391 . S
C839 H827 0.950 . S
C839 C835 1.393 . S
C839 C838 1.391 . S
H840 C848 0.950 . S
H841 C853 0.950 . S
H842 C850 0.950 . S
H843 C852 0.950 . S
H844 C854 0.950 . S
H845 C856 0.950 . S
H846 C858 0.950 . S
H847 C859 0.950 . S
C848 H840 0.950 . S
C848 C849 1.386 . S
C848 C850 1.391 . S
C849 C848 1.386 . S
C849 C853 1.393 . S
C850 H842 0.950 . S
C850 C848 1.391 . S
C850 C851 1.400 . S
C851 C850 1.400 . S
C851 C852 1.398 . S
C851 C857 1.491 . S
C852 H843 0.950 . S
C852 C851 1.398 . S
C852 C853 1.391 . S
C853 H841 0.950 . S
C853 C849 1.393 . S
C853 C852 1.391 . S
C854 H844 0.950 . S
C854 C855 1.386 . S
C854 C856 1.391 . S
C855 C854 1.386 . S
C855 C859 1.393 . S
C856 H845 0.950 . S
C856 C854 1.391 . S
C856 C857 1.400 . S
C857 C851 1.491 . S
C857 C856 1.400 . S
C857 C858 1.398 . S
C858 H846 0.950 . S
C858 C857 1.398 . S
C858 C859 1.391 . S
C859 H847 0.950 . S
C859 C855 1.393 . S
C859 C858 1.391 . S
H860 C868 0.950 . S
H861 C873 0.950 . S
H862 C870 0.950 . S
H863 C872 0.950 . S
H864 C874 0.950 . S
H865 C876 0.950 . S
H866 C878 0.950 . S
H867 C879 0.950 . S
C868 H860 0.950 . S
C868 C869 1.386 . S
C868 C870 1.391 . S
C869 C868 1.386 . S
C869 C873 1.393 . S
C870 H862 0.950 . S
C870 C868 1.391 . S
C870 C871 1.400 . S
C871 C870 1.400 . S
C871 C872 1.398 . S
C871 C877 1.491 . S
C872 H863 0.950 . S
C872 C871 1.398 . S
C872 C873 1.391 . S
C873 H861 0.950 . S
C873 C869 1.393 . S
C873 C872 1.391 . S
C874 H864 0.950 . S
C874 C875 1.386 . S
C874 C876 1.391 . S
C875 C874 1.386 . S
C875 C879 1.393 . S
C876 H865 0.950 . S
C876 C874 1.391 . S
C876 C877 1.400 . S
C877 C871 1.491 . S
C877 C876 1.400 . S
C877 C878 1.398 . S
C878 H866 0.950 . S
C878 C877 1.398 . S
C878 C879 1.391 . S
C879 H867 0.950 . S
C879 C875 1.393 . S
C879 C878 1.391 . S
H880 C888 0.950 . S
H881 C893 0.950 . S
H882 C890 0.950 . S
H883 C892 0.950 . S
H884 C894 0.950 . S
H885 C896 0.950 . S
H886 C898 0.950 . S
H887 C899 0.950 . S
C888 H880 0.950 . S
C888 C889 1.386 . S
C888 C890 1.391 . S
C889 C888 1.386 . S
C889 C893 1.393 . S
C890 H882 0.950 . S
C890 C888 1.391 . S
C890 C891 1.400 . S
C891 C890 1.400 . S
C891 C892 1.398 . S
C891 C897 1.491 . S
C892 H883 0.950 . S
C892 C891 1.398 . S
C892 C893 1.391 . S
C893 H881 0.950 . S
C893 C889 1.393 . S
C893 C892 1.391 . S
C894 H884 0.950 . S
C894 C895 1.386 . S
C894 C896 1.391 . S
C895 C894 1.386 . S
C895 C899 1.393 . S
C896 H885 0.950 . S
C896 C894 1.391 . S
C896 C897 1.400 . S
C897 C891 1.491 . S
C897 C896 1.400 . S
C897 C898 1.398 . S
C898 H886 0.950 . S
C898 C897 1.398 . S
C898 C899 1.391 . S
C899 H887 0.950 . S
C899 C895 1.393 . S
C899 C898 1.391 . S
C369 C18 1.403 . S
C375 C8 1.403 . S
C389 C58 1.408 . S
C395 C48 1.408 . S
C409 C98 1.415 . S
C415 C88 1.415 . S
C429 C128 1.408 . S
C435 C138 1.408 1_556 S
C449 C168 1.399 . S
C455 C178 1.399 1_556 S
C469 C208 1.405 . S
C475 C218 1.405 1_556 S
C489 C249 1.267 . S
C495 C259 1.267 . S
C509 C289 1.291 . S
C515 C299 1.291 . S
C529 C329 1.280 . S
C535 C339 1.280 . S
C549 C219 2.482 . S
C555 C15 2.442 . S
C569 C55 2.442 . S
C575 C139 2.484 . S
C589 C95 2.444 1_565 S
C595 C179 2.485 . S
C609 C99 2.177 . S
C615 C258 2.295 . S
C629 C298 2.294 . S
C635 C19 2.155 . S
C649 C338 2.294 . S
C655 C59 2.153 . S
C669 C335 0.997 . S
C675 C5 0.990 . S
C689 C45 0.993 . S
C695 C255 1.008 . S
C709 C295 1.003 . S
C715 C85 1.010 . S
C729 C89 2.485 . S
C735 C125 2.444 . S
C749 C165 2.442 . S
C755 C9 2.482 . S
C769 C49 2.483 . S
C775 C205 2.452 . S
C789 C325 1.009 . S
C795 C135 1.009 . S
C809 C245 0.996 . S
C815 C175 1.002 . S
C829 C285 0.996 . S
C835 C215 1.000 . S
C849 C248 2.301 . S
C855 C209 2.170 . S
C869 C129 2.154 . S
C875 C288 2.298 . S
C889 C328 2.294 . S
C895 C169 2.177 . S
