# Generated by pormake.
# Topology bsn, (6)-cn, num edge types: 1
# Building blocks:
#     Node 0, Type 0, BuildingBlock: FUNLAD_clean_sbu_0, # of connection points: 6
#     Node 1, Type 0, BuildingBlock: FUNLAD_clean_sbu_0, # of connection points: 6
#     Node 2, Type 0, BuildingBlock: FUNLAD_clean_sbu_0, # of connection points: 6
#     Node 3, Type 0, BuildingBlock: FUNLAD_clean_sbu_0, # of connection points: 6
#     Edge 4, Type (0, 0), BuildingBlock: UVAHIK_clean_linker_0, # of connection points: 2
#     Edge 5, Type (0, 0), BuildingBlock: UVAHIK_clean_linker_0, # of connection points: 2
#     Edge 6, Type (0, 0), BuildingBlock: UVAHIK_clean_linker_0, # of connection points: 2
#     Edge 7, Type (0, 0), BuildingBlock: UVAHIK_clean_linker_0, # of connection points: 2
#     Edge 8, Type (0, 0), BuildingBlock: UVAHIK_clean_linker_0, # of connection points: 2
#     Edge 9, Type (0, 0), BuildingBlock: UVAHIK_clean_linker_0, # of connection points: 2
#     Edge 10, Type (0, 0), BuildingBlock: UVAHIK_clean_linker_0, # of connection points: 2
#     Edge 11, Type (0, 0), BuildingBlock: UVAHIK_clean_linker_0, # of connection points: 2
#     Edge 12, Type (0, 0), BuildingBlock: UVAHIK_clean_linker_0, # of connection points: 2
#     Edge 13, Type (0, 0), BuildingBlock: UVAHIK_clean_linker_0, # of connection points: 2
#     Edge 14, Type (0, 0), BuildingBlock: UVAHIK_clean_linker_0, # of connection points: 2
#     Edge 15, Type (0, 0), BuildingBlock: UVAHIK_clean_linker_0, # of connection points: 2
# Relax obj value: 0.398
# Max RMSD: 0.254
# Mean RMSD: 0.254
data_MOF--net-bsn--node1-FUNLAD_clean_sbu_0--edge1-UVAHIK_clean_linker_0
_symmetry_space_group_name_H-M    P1
_symmetry_Int_Tables_number       1
_symmetry_cell_setting            triclinic
loop_
_symmetry_equiv_pos_as_xyz
'x, y, z'
_cell_length_a     36.0929
_cell_length_b     36.14714
_cell_length_c     25.551264
_cell_angle_alpha  90.59661
_cell_angle_beta   93.148203
_cell_angle_gamma 94.648563
loop_
_atom_site_label
_atom_site_type_symbol
_atom_site_fract_x
_atom_site_fract_y
_atom_site_fract_z
_atom_type_partial_charge
C0 C 0.12681 0.26959 0.33226 0.0
N1 N 0.03341 0.26867 0.23292 0.0
C2 C 0.05237 0.29624 0.20718 0.0
C3 C 0.05042 0.29661 0.15271 0.0
C4 C 1.02867 0.26835 0.12456 0.0
C5 C 1.00754 0.24155 0.15217 0.0
C6 C 1.01039 0.24219 0.20679 0.0
Zn7 Zn 0.04447 0.2647 0.31079 0.0
C8 C 0.05163 0.18638 0.34571 0.0
N9 N 0.07197 0.25663 0.47234 0.0
C10 C 0.09997 0.27933 0.49608 0.0
C11 C 0.05132 0.23129 0.49979 0.0
C12 C 0.05808 0.22846 0.55363 0.0
C13 C 0.08617 0.25213 0.57938 0.0
C14 C 0.10751 0.27763 0.55003 0.0
Zn15 Zn 0.05995 0.26054 0.39471 0.0
O16 O 0.10083 0.2722 0.29763 0.0
C17 C 0.05342 0.33869 0.36633 0.0
O18 O 0.1189 0.26316 0.37943 0.0
H19 H 0.02917 0.21362 0.48 0.0
H20 H 0.07059 0.31691 0.22886 0.0
H21 H 0.11608 0.29915 0.47327 0.0
O22 O 0.04258 0.32476 0.32148 0.0
O23 O 0.06298 0.31744 0.40274 0.0
H24 H 0.99547 0.22067 0.22824 0.0
O25 O 0.99957 0.2577 0.40708 0.0
O26 O 0.98894 0.2573 0.32165 0.0
O27 O 0.0577 0.2039 0.38865 0.0
O28 O 0.04568 0.20412 0.3036 0.0
C29 C 0.97672 0.25559 0.36697 0.0
H30 H 0.06754 0.31751 0.13301 0.0
H31 H 0.99007 0.21959 0.13178 0.0
H32 H 0.04062 0.20889 0.57513 0.0
H33 H 0.12946 0.29626 0.56868 0.0
C34 C 0.09821 0.77788 0.5945 0.0
N35 N 1.00769 0.77901 0.48308 0.0
C36 C 0.03099 0.80337 0.45793 0.0
C37 C 0.03168 0.80207 0.40365 0.0
C38 C 1.00826 0.77531 0.37509 0.0
C39 C 0.98288 0.75197 0.40173 0.0
C40 C 0.98301 0.75436 0.45624 0.0
Zn41 Zn 1.01591 0.77569 0.56154 0.0
C42 C 1.01944 0.69711 0.59127 0.0
N43 N 0.03839 0.76691 0.72435 0.0
C44 C 0.06494 0.79062 0.74936 0.0
C45 C 1.01928 0.73959 0.75036 0.0
C46 C 1.02649 0.73539 0.80393 0.0
C47 C 0.05372 0.75949 0.83079 0.0
C48 C 0.07316 0.78733 0.80289 0.0
Zn49 Zn 1.02858 0.77099 0.64631 0.0
O50 O 0.07676 0.77852 0.55323 0.0
C51 C 1.02437 0.84975 0.61024 0.0
O52 O 0.08445 0.77507 0.63864 0.0
H53 H 0.99834 0.72106 0.72952 0.0
H54 H 0.05056 0.82253 0.48015 0.0
H55 H 0.07993 0.81197 0.72769 0.0
O56 O 1.01799 0.83228 0.56728 0.0
O57 O 0.02995 0.83193 0.65241 0.0
H58 H 0.96475 0.73529 0.47723 0.0
O59 O 0.9719 0.76631 0.65617 0.0
O60 O 0.95634 0.77299 0.5728 0.0
O61 O 1.02792 0.71071 0.63698 0.0
O62 O 1.013 0.7187 0.5539 0.0
C63 C 0.94689 0.76806 0.61977 0.0
H64 H 0.05197 0.82027 0.38464 0.0
H65 H 0.96413 0.73125 0.38085 0.0
H66 H 1.0104 0.71401 0.82424 0.0
H67 H 0.09456 0.80627 0.82216 0.0
C68 C 0.59282 0.78665 0.84222 0.0
N69 N 0.5027 0.79062 0.73683 0.0
C70 C 0.52223 0.81794 0.71138 0.0
C71 C 0.51547 0.82244 0.65779 0.0
C72 C 0.4882 0.7987 0.63038 0.0
C73 C 0.46826 0.77092 0.65777 0.0
C74 C 0.47611 0.76725 0.71129 0.0
Zn75 Zn 0.51196 0.786 0.81477 0.0
C76 C 0.51208 0.70723 0.85046 0.0
N77 N 0.53088 0.77779 0.97772 0.0
C78 C 0.55761 0.8005 0.00416 0.0
C79 C 0.50624 0.75508 0.00323 0.0
C80 C 0.5065 0.75615 0.05759 0.0
C81 C 0.53225 0.78099 0.0858 0.0
C82 C 0.55874 0.80264 0.05871 0.0
Zn83 Zn 0.52284 0.78152 0.89944 0.0
O84 O 0.5685 0.79088 0.80571 0.0
C85 C 0.52252 0.85998 0.86994 0.0
O86 O 0.58247 0.78016 0.88843 0.0
H87 H 0.4851 0.73743 -0.01868 0.0
H88 H 0.54316 0.83621 0.73266 0.0
H89 H 0.57692 0.81824 -0.01715 0.0
O90 O 0.51238 0.8463 0.82477 0.0
O91 O 0.52978 0.83854 0.90713 0.0
H92 H 0.46082 0.74587 0.73254 0.0
O93 O 0.46244 0.78305 0.90747 0.0
O94 O 0.45583 0.78156 0.82172 0.0
O95 O 0.51605 0.7247 0.8937 0.0
O96 O 0.51113 0.72521 0.80777 0.0
C97 C 0.44151 0.78176 0.86555 0.0
H98 H 0.53196 0.84376 0.63792 0.0
H99 H 0.44679 0.75227 0.6381 0.0
H100 H 0.48533 0.73934 0.07706 0.0
H101 H 0.5792 0.82187 0.07935 0.0
C102 C 0.61414 0.28688 0.14299 0.0
N103 N 0.55775 0.27 -0.00496 0.0
C104 C 0.58624 0.29131 0.97505 0.0
C105 C 0.59155 0.29021 0.92152 0.0
C106 C 0.56724 0.26701 0.88854 0.0
C107 C 0.53942 0.24377 0.9107 0.0
C108 C 0.53512 0.24576 0.96442 0.0
Zn109 Zn 0.5462 0.27772 0.07048 0.0
C110 C 0.53398 0.20756 0.12357 0.0
N111 N 0.52091 0.29699 0.22709 0.0
C112 C 0.54202 0.323 0.25681 0.0
C113 C 0.49417 0.27395 0.24807 0.0
C114 C 0.48922 0.27517 0.30166 0.0
C115 C 0.5123 0.30008 0.33386 0.0
C116 C 0.53821 0.325 0.31067 0.0
Zn117 Zn 0.53236 0.28918 0.15157 0.0
O118 O 0.60496 0.27895 0.09507 0.0
C119 C 0.54403 0.35891 0.09209 0.0
O120 O 0.58902 0.2931 0.17384 0.0
H121 H 0.47763 0.25357 0.22356 0.0
H122 H 0.60392 0.3103 0.00031 0.0
H123 H 0.56305 0.34105 0.23911 0.0
O124 O 0.55101 0.33468 0.05875 0.0
O125 O 0.53453 0.34862 0.13734 0.0
H126 H 0.5127 0.22909 -0.01868 0.0
O127 O 0.47671 0.28551 0.13155 0.0
O128 O 0.48612 0.27535 0.04873 0.0
O129 O 0.52906 0.22864 0.1625 0.0
O130 O 0.5417 0.22161 0.08012 0.0
C131 C 0.4639 0.27933 0.08511 0.0
H132 H 0.61357 0.30825 0.90586 0.0
H133 H 0.51984 0.2258 0.8865 0.0
H134 H 0.46853 0.25589 0.31798 0.0
H135 H 0.55685 0.34436 0.33415 0.0
C136 C 0.07902 0.39369 0.41913 0.0
C137 C 0.05376 0.37868 0.37913 0.0
C138 C 0.07566 0.42888 0.44019 0.0
C139 C 1.00483 0.49392 0.46105 0.0
H140 H 0.09 0.5602 0.50951 0.0
C141 C 0.9931 0.6426 0.53817 0.0
C142 C 1.01808 0.65703 0.57885 0.0
C143 C 0.99595 0.60726 0.51725 0.0
C144 C 0.06596 0.5417 0.497 0.0
H145 H 1.00622 0.3895 0.32791 0.0
H146 H 1.0004 0.45179 0.36457 0.0
H147 H 0.09948 0.50437 0.45925 0.0
H148 H 0.06459 0.6452 0.63135 0.0
H149 H 0.06965 0.58273 0.59473 0.0
H150 H 0.97132 0.53141 0.49863 0.0
C151 C 1.02264 0.43592 0.37993 0.0
C152 C 0.07136 0.50981 0.46782 0.0
C153 C 1.02622 0.40053 0.35843 0.0
C154 C 0.04478 0.63456 0.60035 0.0
C155 C 0.04792 0.59908 0.5789 0.0
C156 C 0.99943 0.52586 0.49015 0.0
C157 C 0.04682 0.45007 0.42199 0.0
C158 C 0.04087 0.48546 0.44957 0.0
C159 C 1.02409 0.58548 0.53618 0.0
C160 C 0.02994 0.55014 0.50851 0.0
H161 H 0.10058 0.37747 0.43586 0.0
H162 H 0.09458 0.43859 0.47272 0.0
H163 H 0.98078 0.47542 0.44859 0.0
H164 H 0.97226 0.65941 0.52079 0.0
H165 H 0.97733 0.5979 0.48422 0.0
C166 C 0.65838 0.76706 0.85258 0.0
C167 C 0.63219 0.78897 0.82838 0.0
C168 C 0.69343 0.76513 0.83172 0.0
C169 C 0.75786 0.81171 0.73858 0.0
H170 H 0.79198 0.71357 0.72192 0.0
C171 C 0.88072 0.78566 0.61 0.0
C172 C 0.90774 0.76486 0.63448 0.0
C173 C 0.84588 0.78721 0.63154 0.0
C174 C 0.7829 0.7412 0.72645 0.0
H175 H 0.62284 0.8277 0.76563 0.0
H176 H 0.68321 0.82444 0.72982 0.0
H177 H 0.73643 0.72133 0.76992 0.0
H178 H 0.91885 0.72759 0.69843 0.0
H179 H 0.85854 0.72995 0.73525 0.0
H180 H 0.80423 0.83155 0.6949 0.0
C181 C 0.6772 0.80873 0.76464 0.0
C182 C 0.75123 0.74569 0.75437 0.0
C183 C 0.6424 0.81042 0.78509 0.0
C184 C 0.89857 0.74398 0.67876 0.0
C185 C 0.86389 0.74519 0.69979 0.0
C186 C 0.78945 0.80721 0.71056 0.0
C187 C 0.70289 0.78542 0.78679 0.0
C188 C 0.73824 0.78099 0.76068 0.0
C189 C 0.83743 0.76755 0.67738 0.0
C190 C 0.80237 0.77191 0.70412 0.0
H191 H 0.65114 0.7501 0.88578 0.0
H192 H 0.71282 0.74722 0.85009 0.0
H193 H 0.7489 0.83939 0.74318 0.0
H194 H 0.88718 0.80219 0.57607 0.0
H195 H 0.82586 0.80439 0.61304 0.0
C196 C 0.51702 0.42086 0.08844 0.0
C197 C 0.54464 0.39787 0.07488 0.0
C198 C 0.51302 0.45434 0.06208 0.0
C199 C 0.56096 0.52339 0.9769 0.0
H200 H 0.46125 0.53952 0.92261 0.0
C201 C 0.53701 0.64543 0.83956 0.0
C202 C 0.50788 0.66649 0.85294 0.0
C203 C 0.53961 0.60978 0.86008 0.0
C204 C 0.48927 0.53563 0.93769 0.0
H205 H 0.591 0.39272 0.02557 0.0
H206 H 0.58467 0.45115 0.98087 0.0
H207 H 0.47111 0.48657 0.97871 0.0
H208 H 0.45766 0.66647 0.89536 0.0
H209 H 0.46176 0.60471 0.93053 0.0
H210 H 0.57918 0.57269 0.93693 0.0
C211 C 0.56592 0.44351 0.01136 0.0
C212 C 0.49486 0.50535 0.97013 0.0
C213 C 0.56954 0.41001 0.03702 0.0
C214 C 0.47995 0.65036 0.88356 0.0
C215 C 0.48247 0.61493 0.90396 0.0
C216 C 0.55536 0.55381 0.94482 0.0
C217 C 0.53696 0.46559 0.02239 0.0
C218 C 0.53077 0.4989 -0.0098 0.0
C219 C 0.51321 0.59478 0.89448 0.0
C220 C 0.51941 0.56046 0.92482 0.0
H221 H 0.49717 0.41192 0.11696 0.0
H222 H 0.49066 0.47099 0.07181 0.0
H223 H 0.58896 0.51933 -0.00803 0.0
H224 H 0.55934 0.65764 0.81705 0.0
H225 H 0.56332 0.59478 0.85114 0.0
C226 C 0.91646 0.22308 0.33859 0.0
C227 C 0.936 0.25112 0.36986 0.0
C228 C 0.87911 0.22544 0.32294 0.0
C229 C 0.81436 0.29821 0.29817 0.0
H230 H 0.74612 0.2137 0.25467 0.0
C231 C 0.66423 0.30921 0.20939 0.0
C232 C 0.65289 0.28685 0.16509 0.0
C233 C 0.69851 0.30569 0.23619 0.0
C234 C 0.76506 0.23753 0.26624 0.0
H235 H 0.93134 0.30231 0.41253 0.0
H236 H 0.86518 0.30586 0.38717 0.0
H237 H 0.80284 0.20395 0.30731 0.0
H238 H 0.6689 0.24378 0.11343 0.0
H239 H 0.72903 0.23716 0.16101 0.0
H240 H 0.7759 0.33172 0.25775 0.0
C241 C 0.87898 0.28233 0.37367 0.0
C242 C 0.79759 0.23201 0.29656 0.0
C243 C 0.91665 0.27996 0.38925 0.0
C244 C 0.67712 0.26162 0.1471 0.0
C245 C 0.71125 0.25758 0.17465 0.0
C246 C 0.78153 0.30373 0.26854 0.0
C247 C 0.86024 0.25601 0.33819 0.0
C248 C 0.82311 0.26221 0.3122 0.0
C249 C 0.72201 0.27923 0.21993 0.0
C250 C 0.75683 0.2734 0.25154 0.0
H251 H 0.93103 0.20091 0.32236 0.0
H252 H 0.86613 0.20475 0.29534 0.0
H253 H 0.83347 0.32215 0.30838 0.0
H254 H 0.64607 0.32884 0.22424 0.0
H255 H 0.70594 0.32264 0.27099 0.0
C256 C 0.40621 0.24011 0.09484 0.0
C257 C 0.42325 0.27372 0.07759 0.0
C258 C 0.37096 0.23883 0.11526 0.0
C259 C 0.31518 0.30391 0.18327 0.0
H260 H 0.24605 0.21687 0.19423 0.0
C261 C 0.17565 0.30393 0.28375 0.0
C262 C 0.16521 0.27366 0.31524 0.0
C263 C 0.20783 0.30435 0.25581 0.0
C264 C 0.26541 0.24123 0.19195 0.0
H265 H 0.41564 0.3315 0.0634 0.0
H266 H 0.35298 0.32892 0.09545 0.0
H267 H 0.29585 0.21619 0.1333 0.0
H268 H 0.18031 0.22032 0.34307 0.0
H269 H 0.23701 0.22084 0.29366 0.0
H270 H 0.28423 0.32908 0.24127 0.0
C271 C 0.36723 0.3037 0.09511 0.0
C272 C 0.29389 0.24095 0.15684 0.0
C273 C 0.40274 0.30503 0.07535 0.0
C274 C 0.18831 0.24433 0.31997 0.0
C275 C 0.22033 0.24441 0.29111 0.0
C276 C 0.28649 0.30431 0.21782 0.0
C277 C 0.35194 0.2712 0.11855 0.0
C278 C 0.31934 0.27226 0.15214 0.0
C279 C 0.22991 0.2741 0.25783 0.0
C280 C 0.2614 0.27294 0.2228 0.0
H281 H 0.42193 0.21588 0.09842 0.0
H282 H 0.36044 0.21329 0.13294 0.0
H283 H 0.33469 0.32823 0.18214 0.0
H284 H 0.15784 0.32653 0.27877 0.0
H285 H 0.21426 0.32747 0.2303 0.0
C286 C 0.38031 0.74741 0.85058 0.0
C287 C 0.40081 0.78106 0.86438 0.0
C288 C 0.34581 0.74725 0.82276 0.0
C289 C 0.2721 0.80618 0.77203 0.0
H290 H 0.26864 0.73973 0.65128 0.0
C291 C 0.15835 0.81449 0.60844 0.0
C292 C 0.13895 0.78028 0.59459 0.0
C293 C 0.19322 0.81575 0.63557 0.0
C294 C 0.26902 0.75832 0.68485 0.0
H295 H 0.40037 0.8408 0.86339 0.0
H296 H 0.33974 0.84075 0.81613 0.0
H297 H 0.31886 0.73809 0.71875 0.0
H298 H 0.14168 0.72079 0.59471 0.0
H299 H 0.20272 0.72274 0.64078 0.0
H300 H 0.22214 0.82628 0.73829 0.0
C301 C 0.35 0.81438 0.82689 0.0
C302 C 0.29768 0.7572 0.72383 0.0
C303 C 0.38454 0.81447 0.85471 0.0
C304 C 0.15662 0.74757 0.60343 0.0
C305 C 0.19146 0.74875 0.63058 0.0
C306 C 0.24337 0.80725 0.73308 0.0
C307 C 0.33128 0.78082 0.80796 0.0
C308 C 0.29952 0.781 0.76807 0.0
C309 C 0.20918 0.78274 0.64964 0.0
C310 C 0.24141 0.78331 0.68895 0.0
H311 H 0.39273 0.72133 0.85632 0.0
H312 H 0.33174 0.72089 0.80975 0.0
H313 H 0.27255 0.82477 0.80562 0.0
H314 H 0.14485 0.84004 0.60338 0.0
H315 H 0.20646 0.84246 0.64862 0.0
C316 C 0.55714 0.91579 0.90985 0.0
C317 C 0.52499 0.89999 0.88212 0.0
C318 C 0.557 0.94992 0.93579 0.0
C319 C 0.49302 1.00616 0.00116 0.0
H320 H 0.57756 0.07966 0.01017 0.0
C321 C 0.49411 0.15007 0.10477 0.0
C322 C 0.52843 0.16695 0.12477 0.0
C323 C 0.492 0.11479 0.08112 0.0
C324 C 0.55398 0.05909 0.00899 0.0
H325 H 0.46772 0.90768 0.85838 0.0
H326 H 0.46738 0.968 0.90375 0.0
H327 H 0.57715 0.02725 0.94966 0.0
H328 H 0.58683 0.15941 0.1395 0.0
H329 H 0.583 0.09698 0.10101 0.0
H330 H 0.46997 0.03796 0.06088 0.0
C331 C 0.49277 0.95392 0.90518 0.0
C332 C 0.55361 0.0292 0.9738 0.0
C333 C 0.49311 0.9198 0.87848 0.0
C334 C 0.55987 0.14658 0.12552 0.0
C335 C 0.55777 0.11119 0.10227 0.0
C336 C 0.49344 0.03608 0.03662 0.0
C337 C 0.52446 0.9688 0.93537 0.0
C338 C 0.52325 1.00225 0.96959 0.0
C339 C 0.52428 0.09582 0.07698 0.0
C340 C 0.52407 0.06282 0.04127 0.0
H341 H 0.58179 0.9006 0.91407 0.0
H342 H 0.58175 0.96031 0.95899 0.0
H343 H 0.46947 0.98554 -0.0005 0.0
H344 H 0.46974 0.16574 0.10227 0.0
H345 H 0.46576 0.10402 0.06201 0.0
C346 C 0.99464 0.90732 0.59112 0.0
C347 C 1.02688 0.89043 0.60752 0.0
C348 C 0.99722 0.941 0.56461 0.0
C349 C 0.06231 1.01919 0.52306 0.0
H350 H 0.99579 1.01523 0.39815 0.0
C351 C 0.08186 0.12917 0.36531 0.0
C352 C 0.04954 0.14573 0.34844 0.0
C353 C 0.07942 0.09548 0.39182 0.0
C354 C 1.01441 1.01694 0.43295 0.0
H355 H 0.08703 0.89629 0.61174 0.0
H356 H 0.09181 0.9555 0.56629 0.0
H357 H 0.99016 0.96578 0.46205 0.0
H358 H 0.9894 0.13927 0.34334 0.0
H359 H 0.98486 0.08013 0.38891 0.0
H360 H 0.08652 0.07038 0.49404 0.0
C361 C 0.06443 0.94309 0.57434 0.0
C362 C 1.01105 0.98869 0.46988 0.0
C363 C 0.06177 0.90939 0.60108 0.0
C364 C 1.01474 0.12644 0.3544 0.0
C365 C 1.01222 0.09276 0.3812 0.0
C366 C 0.06565 0.04747 0.48616 0.0
C367 C 0.03217 0.95828 0.55336 0.0
C368 C 0.03491 0.98945 0.5155 0.0
C369 C 0.04452 0.07789 0.40265 0.0
C370 C 0.04181 0.0467 0.44052 0.0
H371 H 0.96744 0.89275 0.59445 0.0
H372 H 0.97181 0.9523 0.55008 0.0
H373 H 0.08095 1.02087 0.55786 0.0
H374 H 0.10898 0.14399 0.36233 0.0
H375 H 0.10488 0.08442 0.40665 0.0
C376 C 0.03576 0.22984 0.04466 0.0
C377 C 0.03155 0.26474 0.06732 0.0
C378 C 0.04377 0.22687 -0.00786 0.0
C379 C 0.08733 0.28092 0.8891 0.0
H380 H 0.03702 0.20574 0.79514 0.0
C381 C 0.09235 0.28576 0.66533 0.0
C382 C 0.09075 0.25213 0.63704 0.0
C383 C 0.09053 0.2857 0.71963 0.0
C384 C 0.05187 0.2264 0.82117 0.0
H385 H 0.03037 0.32359 0.0522 0.0
H386 H 0.04455 0.31834 0.96021 0.0
H387 H 1.0199 0.20894 0.88588 0.0
H388 H 0.08898 0.19227 0.64316 0.0
H389 H 0.08627 0.19213 0.73845 0.0
H390 H 0.11919 0.29853 0.82439 0.0
C391 C 0.04221 0.29345 -0.01654 0.0
C392 C 0.04187 0.22836 0.87295 0.0
C393 C 0.034 0.29641 0.03592 0.0
C394 C 0.08968 0.21853 0.66417 0.0
C395 C 0.08804 0.21846 0.71853 0.0
C396 C 0.09748 0.27885 0.83738 0.0
C397 C 0.04788 0.25874 0.96147 0.0
C398 C 0.05915 0.25595 0.9071 0.0
C399 C 0.08724 0.252 0.74656 0.0
C400 C 0.07949 0.25188 0.80273 0.0
H401 H 0.03466 0.20501 0.06807 0.0
H402 H 0.04825 0.19983 0.97612 0.0
H403 H 0.10157 0.302 0.91507 0.0
H404 H 0.09278 0.31203 0.64526 0.0
H405 H 0.08956 0.31197 0.74007 0.0
C406 C 0.06387 0.78913 0.91951 0.0
C407 C 0.06022 0.7568 0.88812 0.0
C408 C 0.06576 0.78669 0.97388 0.0
C409 C 0.08118 0.77476 0.08926 0.0
H410 H 1.00142 0.70915 0.14126 0.0
C411 C 1.01533 0.73356 0.29847 0.0
C412 C 1.01329 0.76959 0.31875 0.0
C413 C 1.02483 0.7283 0.24692 0.0
C414 C 1.02419 0.72714 0.12745 0.0
H415 H 0.05822 0.69666 0.88877 0.0
H416 H 0.06116 0.69241 -0.01571 0.0
H417 H 1.01526 0.70574 0.04912 0.0
H418 H 1.01791 0.82819 0.30062 0.0
H419 H 0.03429 0.81897 0.21037 0.0
H420 H 0.08916 0.79707 0.16726 0.0
C421 C 0.06213 0.71956 0.96662 0.0
C422 C 0.03224 0.7251 0.07482 0.0
C423 C 0.06032 0.722 0.91212 0.0
C424 C 1.01973 0.80016 0.28612 0.0
C425 C 0.02931 0.7949 0.23469 0.0
C426 C 0.07308 0.77685 0.14182 0.0
C427 C 0.06398 0.75188 -0.00209 0.0
C428 C 0.06009 0.74963 0.05498 0.0
C429 C 0.03255 0.75898 0.21495 0.0
C430 C 0.04381 0.7538 0.16095 0.0
H431 H 0.06339 0.81631 0.90215 0.0
H432 H 0.06658 0.81206 -0.00299 0.0
H433 H 0.10319 0.79357 0.07506 0.0
H434 H 1.01111 0.70952 0.32305 0.0
H435 H 1.02725 0.70034 0.23258 0.0
C436 C 0.52896 0.82297 0.16315 0.0
C437 C 0.52862 0.78678 0.14238 0.0
C438 C 0.5203 0.8286 0.21497 0.0
C439 C 0.52077 0.82958 0.33438 0.0
H440 H 0.43874 0.76674 0.38595 0.0
C441 C 0.47807 0.76932 0.54154 0.0
C442 C 0.48224 0.8016 0.57302 0.0
C443 C 0.4766 0.77183 0.48721 0.0
C444 C 0.46157 0.78457 0.37194 0.0
H445 H 0.52091 0.7282 0.15984 0.0
H446 H 0.50612 0.73804 0.25065 0.0
H447 H 0.45285 0.76259 0.29387 0.0
H448 H 0.48571 0.86181 0.5725 0.0
H449 H 0.4837 0.86616 0.47699 0.0
H450 H 0.53027 0.85068 0.41283 0.0
C451 C 0.51224 0.76199 0.22652 0.0
C452 C 0.46976 0.78208 0.31949 0.0
C453 C 0.52092 0.75636 0.1748 0.0
C454 C 0.48318 0.83648 0.5491 0.0
C455 C 0.48189 0.839 0.49462 0.0
C456 C 0.51259 0.83206 0.38691 0.0
C457 C 0.5111 0.79814 0.24669 0.0
C458 C 0.5001 0.80378 0.30068 0.0
C459 C 0.4794 0.80667 0.46332 0.0
C460 C 0.4836 0.80879 0.40639 0.0
H461 H 0.53425 0.84692 0.13871 0.0
H462 H 0.51951 0.85674 0.22964 0.0
H463 H 0.54436 0.84654 0.3208 0.0
H464 H 0.4778 0.74206 0.5588 0.0
H465 H 0.47528 0.74646 0.46399 0.0
C466 C 0.51775 0.32921 0.42367 0.0
C467 C 0.51248 0.29725 0.39151 0.0
C468 C 0.52296 0.32605 0.47788 0.0
C469 C 0.55628 0.2611 0.57536 0.0
H470 H 0.51354 0.32495 0.67466 0.0
C471 C 0.56191 0.23823 0.79866 0.0
C472 C 0.56797 0.27001 0.83105 0.0
C473 C 0.5574 0.2417 0.74443 0.0
C474 C 0.52602 0.30726 0.64728 0.0
H475 H 0.50732 0.23696 0.39103 0.0
H476 H 0.51525 0.23155 0.48559 0.0
H477 H 0.49793 0.33061 0.58115 0.0
H478 H 0.57531 0.33022 0.83217 0.0
H479 H 0.56821 0.33617 0.73743 0.0
H480 H 0.5842 0.23761 0.64156 0.0
C481 C 0.51599 0.259 0.46884 0.0
C482 C 0.51702 0.31045 0.59387 0.0
C483 C 0.51088 0.26214 0.41475 0.0
C484 C 0.57107 0.30521 0.80815 0.0
C485 C 0.56651 0.30866 0.75402 0.0
C486 C 0.56522 0.25786 0.62877 0.0
C487 C 0.52298 0.29088 0.50078 0.0
C488 C 0.53201 0.28734 0.55745 0.0
C489 C 0.55877 0.277 0.72182 0.0
C490 C 0.55017 0.28092 0.66516 0.0
H491 H 0.51874 0.35662 0.40682 0.0
H492 H 0.52839 0.3511 0.50161 0.0
H493 H 0.56879 0.2434 0.54803 0.0
H494 H 0.55968 0.21077 0.81536 0.0
H495 H 0.55134 0.21684 0.72042 0.0
loop_
_geom_bond_atom_site_label_1
_geom_bond_atom_site_label_2
_geom_bond_distance
_geom_bond_site_symmetry_2
_ccdc_geom_bond_type
C0 O16 1.251 . S
C0 O18 1.254 . S
N1 C2 1.333 . S
N1 C6 1.307 1_455 S
N1 Zn7 2.020 . S
C2 N1 1.333 . S
C2 C3 1.379 . S
C2 H20 0.952 . S
C3 C2 1.379 . S
C3 C4 1.390 . S
C3 H30 0.949 . S
C4 C3 1.390 . S
C4 C5 1.357 1_455 S
C5 C4 1.357 1_655 S
C5 C6 1.370 . S
C5 H31 0.950 . S
C6 N1 1.307 1_655 S
C6 C5 1.370 . S
C6 H24 0.948 . S
Zn7 N1 2.020 . S
Zn7 O16 2.039 . S
Zn7 O22 2.034 . S
Zn7 O26 2.025 1_455 S
Zn7 O28 2.023 . S
C8 O27 1.246 . S
C8 O28 1.251 . S
N9 C10 1.307 . S
N9 C11 1.333 1_455 S
N9 Zn15 2.020 . S
C10 N9 1.307 . S
C10 C14 1.370 . S
C10 H21 0.948 . S
C11 N9 1.333 1_655 S
C11 C12 1.379 . S
C11 H19 0.952 . S
C12 C11 1.379 . S
C12 C13 1.390 1_655 S
C12 H32 0.949 . S
C13 C12 1.390 1_455 S
C13 C14 1.357 . S
C14 C10 1.370 . S
C14 C13 1.357 . S
C14 H33 0.950 . S
Zn15 N9 2.020 . S
Zn15 O18 2.025 . S
Zn15 O23 2.024 . S
Zn15 O25 2.039 1_455 S
Zn15 O27 2.034 . S
O16 C0 1.251 . S
O16 Zn7 2.039 . S
C17 O22 1.246 . S
C17 O23 1.249 . S
O18 C0 1.254 . S
O18 Zn15 2.025 . S
H19 C11 0.952 . S
H20 C2 0.952 . S
H21 C10 0.948 . S
O22 Zn7 2.034 . S
O22 C17 1.246 . S
O23 Zn15 2.024 . S
O23 C17 1.249 . S
H24 C6 0.948 . S
O25 Zn15 2.039 1_655 S
O25 C29 1.251 . S
O26 Zn7 2.025 1_655 S
O26 C29 1.254 . S
O27 C8 1.246 . S
O27 Zn15 2.034 . S
O28 Zn7 2.023 . S
O28 C8 1.251 . S
C29 O25 1.251 . S
C29 O26 1.254 . S
H30 C3 0.949 . S
H31 C5 0.950 . S
H32 C12 0.949 . S
H33 C14 0.950 . S
C34 O50 1.251 . S
C34 O52 1.254 . S
N35 C36 1.333 1_655 S
N35 C40 1.307 . S
N35 Zn41 2.020 . S
C36 N35 1.333 1_455 S
C36 C37 1.379 . S
C36 H54 0.952 . S
C37 C36 1.379 . S
C37 C38 1.390 . S
C37 H64 0.949 . S
C38 C37 1.390 . S
C38 C39 1.357 1_455 S
C39 C38 1.357 1_655 S
C39 C40 1.370 . S
C39 H65 0.950 . S
C40 N35 1.307 . S
C40 C39 1.370 . S
C40 H58 0.948 . S
Zn41 N35 2.020 . S
Zn41 O50 2.035 1_655 S
Zn41 O56 2.034 1_655 S
Zn41 O60 2.030 . S
Zn41 O62 2.024 . S
C42 O61 1.245 . S
C42 O62 1.249 1_455 S
N43 C44 1.307 . S
N43 C45 1.333 1_455 S
N43 Zn49 2.020 . S
C44 N43 1.307 . S
C44 C48 1.370 . S
C44 H55 0.948 . S
C45 N43 1.333 1_655 S
C45 C46 1.379 . S
C45 H53 0.952 . S
C46 C45 1.379 . S
C46 C47 1.390 1_655 S
C46 H66 0.949 . S
C47 C46 1.390 1_455 S
C47 C48 1.357 . S
C48 C44 1.370 . S
C48 C47 1.357 . S
C48 H67 0.950 . S
Zn49 N43 2.020 . S
Zn49 O52 2.025 . S
Zn49 O57 2.024 . S
Zn49 O59 2.039 1_455 S
Zn49 O61 2.034 . S
O50 C34 1.251 . S
O50 Zn41 2.035 1_455 S
C51 O56 1.246 . S
C51 O57 1.249 . S
O52 C34 1.254 . S
O52 Zn49 2.025 . S
H53 C45 0.952 . S
H54 C36 0.952 . S
H55 C44 0.948 . S
O56 Zn41 2.034 1_455 S
O56 C51 1.246 . S
O57 Zn49 2.024 . S
O57 C51 1.249 . S
H58 C40 0.948 . S
O59 Zn49 2.039 1_655 S
O59 C63 1.251 . S
O60 Zn41 2.030 . S
O60 C63 1.254 . S
O61 C42 1.245 . S
O61 Zn49 2.034 . S
O62 Zn41 2.024 . S
O62 C42 1.249 1_655 S
C63 O59 1.251 . S
C63 O60 1.254 . S
H64 C37 0.949 . S
H65 C39 0.950 . S
H66 C46 0.949 . S
H67 C48 0.950 . S
C68 O84 1.251 . S
C68 O86 1.254 . S
N69 C70 1.333 . S
N69 C74 1.307 . S
N69 Zn75 2.020 . S
C70 N69 1.333 . S
C70 C71 1.379 . S
C70 H88 0.952 . S
C71 C70 1.379 . S
C71 C72 1.390 . S
C71 H98 0.949 . S
C72 C71 1.390 . S
C72 C73 1.357 . S
C73 C72 1.357 . S
C73 C74 1.370 . S
C73 H99 0.950 . S
C74 N69 1.307 . S
C74 C73 1.370 . S
C74 H92 0.948 . S
Zn75 N69 2.020 . S
Zn75 O84 2.039 . S
Zn75 O90 2.034 . S
Zn75 O94 2.025 . S
Zn75 O96 2.024 . S
C76 O95 1.246 . S
C76 O96 1.249 . S
N77 C78 1.307 . S
N77 C79 1.333 . S
N77 Zn83 2.020 1_554 S
C78 N77 1.307 . S
C78 C82 1.370 . S
C78 H89 0.948 . S
C79 N77 1.333 . S
C79 C80 1.379 . S
C79 H87 0.952 . S
C80 C79 1.379 . S
C80 C81 1.390 . S
C80 H100 0.949 . S
C81 C80 1.390 . S
C81 C82 1.357 . S
C82 C78 1.370 . S
C82 C81 1.357 . S
C82 H101 0.950 . S
Zn83 N77 2.020 1_556 S
Zn83 O86 2.025 . S
Zn83 O91 2.024 . S
Zn83 O93 2.039 . S
Zn83 O95 2.034 . S
O84 C68 1.251 . S
O84 Zn75 2.039 . S
C85 O90 1.246 . S
C85 O91 1.249 . S
O86 C68 1.254 . S
O86 Zn83 2.025 . S
H87 C79 0.952 . S
H88 C70 0.952 . S
H89 C78 0.948 . S
O90 Zn75 2.034 . S
O90 C85 1.246 . S
O91 Zn83 2.024 . S
O91 C85 1.249 . S
H92 C74 0.948 . S
O93 Zn83 2.039 . S
O93 C97 1.251 . S
O94 Zn75 2.025 . S
O94 C97 1.254 . S
O95 C76 1.246 . S
O95 Zn83 2.034 . S
O96 Zn75 2.024 . S
O96 C76 1.249 . S
C97 O93 1.251 . S
C97 O94 1.254 . S
H98 C71 0.949 . S
H99 C73 0.950 . S
H100 C80 0.949 . S
H101 C82 0.950 . S
C102 O118 1.251 . S
C102 O120 1.254 . S
N103 C104 1.333 . S
N103 C108 1.307 . S
N103 Zn109 2.020 1_556 S
C104 N103 1.333 . S
C104 C105 1.379 . S
C104 H122 0.952 . S
C105 C104 1.379 . S
C105 C106 1.390 . S
C105 H132 0.949 . S
C106 C105 1.390 . S
C106 C107 1.357 . S
C107 C106 1.357 . S
C107 C108 1.370 . S
C107 H133 0.950 . S
C108 N103 1.307 . S
C108 C107 1.370 . S
C108 H126 0.948 . S
Zn109 N103 2.020 1_554 S
Zn109 O118 2.039 . S
Zn109 O124 2.034 . S
Zn109 O128 2.025 . S
Zn109 O130 2.024 . S
C110 O129 1.246 . S
C110 O130 1.249 . S
N111 C112 1.307 . S
N111 C113 1.333 . S
N111 Zn117 2.020 . S
C112 N111 1.307 . S
C112 C116 1.370 . S
C112 H123 0.948 . S
C113 N111 1.333 . S
C113 C114 1.379 . S
C113 H121 0.952 . S
C114 C113 1.379 . S
C114 C115 1.390 . S
C114 H134 0.949 . S
C115 C114 1.390 . S
C115 C116 1.357 . S
C116 C112 1.370 . S
C116 C115 1.357 . S
C116 H135 0.950 . S
Zn117 N111 2.020 . S
Zn117 O120 2.025 . S
Zn117 O125 2.024 . S
Zn117 O127 2.039 . S
Zn117 O129 2.034 . S
O118 C102 1.251 . S
O118 Zn109 2.039 . S
C119 O124 1.246 . S
C119 O125 1.249 . S
O120 C102 1.254 . S
O120 Zn117 2.025 . S
H121 C113 0.952 . S
H122 C104 0.952 . S
H123 C112 0.948 . S
O124 Zn109 2.034 . S
O124 C119 1.246 . S
O125 Zn117 2.024 . S
O125 C119 1.249 . S
H126 C108 0.948 . S
O127 Zn117 2.039 . S
O127 C131 1.251 . S
O128 Zn109 2.025 . S
O128 C131 1.254 . S
O129 C110 1.246 . S
O129 Zn117 2.034 . S
O130 Zn109 2.024 . S
O130 C110 1.249 . S
C131 O127 1.251 . S
C131 O128 1.254 . S
H132 C105 0.949 . S
H133 C107 0.950 . S
H134 C114 0.949 . S
H135 C116 0.950 . S
C136 C137 1.349 . S
C136 C138 1.327 . S
C136 H161 0.950 . S
C137 C136 1.349 . S
C137 C153 1.349 1_455 S
C138 C136 1.327 . S
C138 C157 1.429 . S
C138 H162 0.950 . S
C139 C156 1.574 . S
C139 C158 1.368 1_655 S
C139 H163 0.949 . S
H140 C144 0.949 . S
C141 C142 1.349 1_655 S
C141 C143 1.327 . S
C141 H164 0.950 . S
C142 C141 1.349 1_455 S
C142 C154 1.349 . S
C143 C141 1.327 . S
C143 C159 1.429 1_655 S
C143 H165 0.950 . S
C144 H140 0.949 . S
C144 C152 1.574 . S
C144 C160 1.368 . S
H145 C153 0.950 . S
H146 C151 0.950 . S
H147 C152 0.949 . S
H148 C154 0.950 . S
H149 C155 0.950 . S
H150 C156 0.949 . S
C151 H146 0.950 . S
C151 C153 1.327 . S
C151 C157 1.429 1_655 S
C152 C144 1.574 . S
C152 H147 0.949 . S
C152 C158 1.368 . S
C153 C137 1.349 1_655 S
C153 H145 0.950 . S
C153 C151 1.327 . S
C154 C142 1.349 . S
C154 H148 0.950 . S
C154 C155 1.327 . S
C155 H149 0.950 . S
C155 C154 1.327 . S
C155 C159 1.429 . S
C156 C139 1.574 . S
C156 H150 0.949 . S
C156 C160 1.368 1_655 S
C157 C138 1.429 . S
C157 C151 1.429 1_455 S
C157 C158 1.523 . S
C158 C139 1.368 1_455 S
C158 C152 1.368 . S
C158 C157 1.523 . S
C159 C143 1.429 1_455 S
C159 C155 1.429 . S
C159 C160 1.523 . S
C160 C144 1.368 . S
C160 C156 1.368 1_455 S
C160 C159 1.523 . S
H161 C136 0.950 . S
H162 C138 0.950 . S
H163 C139 0.949 . S
H164 C141 0.950 . S
H165 C143 0.950 . S
C166 C167 1.349 . S
C166 C168 1.327 . S
C166 H191 0.950 . S
C167 C166 1.349 . S
C167 C183 1.349 . S
C168 C166 1.327 . S
C168 C187 1.429 . S
C168 H192 0.950 . S
C169 C186 1.574 . S
C169 C188 1.368 . S
C169 H193 0.949 . S
H170 C174 0.949 . S
C171 C172 1.349 . S
C171 C173 1.327 . S
C171 H194 0.950 . S
C172 C171 1.349 . S
C172 C184 1.349 . S
C173 C171 1.327 . S
C173 C189 1.429 . S
C173 H195 0.950 . S
C174 H170 0.949 . S
C174 C182 1.574 . S
C174 C190 1.368 . S
H175 C183 0.950 . S
H176 C181 0.950 . S
H177 C182 0.949 . S
H178 C184 0.950 . S
H179 C185 0.950 . S
H180 C186 0.949 . S
C181 H176 0.950 . S
C181 C183 1.327 . S
C181 C187 1.429 . S
C182 C174 1.574 . S
C182 H177 0.949 . S
C182 C188 1.368 . S
C183 C167 1.349 . S
C183 H175 0.950 . S
C183 C181 1.327 . S
C184 C172 1.349 . S
C184 H178 0.950 . S
C184 C185 1.327 . S
C185 H179 0.950 . S
C185 C184 1.327 . S
C185 C189 1.429 . S
C186 C169 1.574 . S
C186 H180 0.949 . S
C186 C190 1.368 . S
C187 C168 1.429 . S
C187 C181 1.429 . S
C187 C188 1.523 . S
C188 C169 1.368 . S
C188 C182 1.368 . S
C188 C187 1.523 . S
C189 C173 1.429 . S
C189 C185 1.429 . S
C189 C190 1.523 . S
C190 C174 1.368 . S
C190 C186 1.368 . S
C190 C189 1.523 . S
H191 C166 0.950 . S
H192 C168 0.950 . S
H193 C169 0.949 . S
H194 C171 0.950 . S
H195 C173 0.950 . S
C196 C197 1.349 . S
C196 C198 1.327 . S
C196 H221 0.950 . S
C197 C196 1.349 . S
C197 C213 1.349 . S
C198 C196 1.327 . S
C198 C217 1.429 . S
C198 H222 0.950 1_554 S
C199 C216 1.574 . S
C199 C218 1.368 . S
C199 H223 0.949 . S
H200 C204 0.949 . S
C201 C202 1.349 . S
C201 C203 1.327 . S
C201 H224 0.950 . S
C202 C201 1.349 . S
C202 C214 1.349 . S
C203 C201 1.327 . S
C203 C219 1.429 . S
C203 H225 0.950 1_556 S
C204 H200 0.949 . S
C204 C212 1.574 . S
C204 C220 1.368 . S
H205 C213 0.950 . S
H206 C211 0.950 . S
H207 C212 0.949 . S
H208 C214 0.950 . S
H209 C215 0.950 . S
H210 C216 0.949 . S
C211 H206 0.950 . S
C211 C213 1.327 . S
C211 C217 1.429 . S
C212 C204 1.574 . S
C212 H207 0.949 . S
C212 C218 1.368 1_556 S
C213 C197 1.349 . S
C213 H205 0.950 . S
C213 C211 1.327 . S
C214 C202 1.349 . S
C214 H208 0.950 . S
C214 C215 1.327 . S
C215 H209 0.950 . S
C215 C214 1.327 . S
C215 C219 1.429 . S
C216 C199 1.574 . S
C216 H210 0.949 . S
C216 C220 1.368 1_554 S
C217 C198 1.429 . S
C217 C211 1.429 . S
C217 C218 1.523 . S
C218 C199 1.368 . S
C218 C212 1.368 1_554 S
C218 C217 1.523 . S
C219 C203 1.429 . S
C219 C215 1.429 . S
C219 C220 1.523 . S
C220 C204 1.368 . S
C220 C216 1.368 1_556 S
C220 C219 1.523 . S
H221 C196 0.950 . S
H222 C198 0.950 1_556 S
H223 C199 0.949 . S
H224 C201 0.950 . S
H225 C203 0.950 1_554 S
C226 C227 1.349 . S
C226 C228 1.327 . S
C226 H251 0.950 . S
C227 C226 1.349 . S
C227 C243 1.349 . S
C228 C226 1.327 . S
C228 C247 1.429 . S
C228 H252 0.950 . S
C229 C246 1.574 . S
C229 C248 1.368 . S
C229 H253 0.949 . S
H230 C234 0.949 . S
C231 C232 1.349 . S
C231 C233 1.327 . S
C231 H254 0.950 . S
C232 C231 1.349 . S
C232 C244 1.349 . S
C233 C231 1.327 . S
C233 C249 1.429 . S
C233 H255 0.950 . S
C234 H230 0.949 . S
C234 C242 1.574 . S
C234 C250 1.368 . S
H235 C243 0.950 . S
H236 C241 0.950 . S
H237 C242 0.949 . S
H238 C244 0.950 . S
H239 C245 0.950 . S
H240 C246 0.949 . S
C241 H236 0.950 . S
C241 C243 1.327 . S
C241 C247 1.429 . S
C242 C234 1.574 . S
C242 H237 0.949 . S
C242 C248 1.368 . S
C243 C227 1.349 . S
C243 H235 0.950 . S
C243 C241 1.327 . S
C244 C232 1.349 . S
C244 H238 0.950 . S
C244 C245 1.327 . S
C245 H239 0.950 . S
C245 C244 1.327 . S
C245 C249 1.429 . S
C246 C229 1.574 . S
C246 H240 0.949 . S
C246 C250 1.368 . S
C247 C228 1.429 . S
C247 C241 1.429 . S
C247 C248 1.523 . S
C248 C229 1.368 . S
C248 C242 1.368 . S
C248 C247 1.523 . S
C249 C233 1.429 . S
C249 C245 1.429 . S
C249 C250 1.523 . S
C250 C234 1.368 . S
C250 C246 1.368 . S
C250 C249 1.523 . S
H251 C226 0.950 . S
H252 C228 0.950 . S
H253 C229 0.949 . S
H254 C231 0.950 . S
H255 C233 0.950 . S
C256 C257 1.349 . S
C256 C258 1.327 . S
C256 H281 0.950 . S
C257 C256 1.349 . S
C257 C273 1.349 . S
C258 C256 1.327 . S
C258 C277 1.429 . S
C258 H282 0.950 . S
C259 C276 1.574 . S
C259 C278 1.368 . S
C259 H283 0.949 . S
H260 C264 0.949 . S
C261 C262 1.349 . S
C261 C263 1.327 . S
C261 H284 0.950 . S
C262 C261 1.349 . S
C262 C274 1.349 . S
C263 C261 1.327 . S
C263 C279 1.429 . S
C263 H285 0.950 . S
C264 H260 0.949 . S
C264 C272 1.574 . S
C264 C280 1.368 . S
H265 C273 0.950 . S
H266 C271 0.950 . S
H267 C272 0.949 . S
H268 C274 0.950 . S
H269 C275 0.950 . S
H270 C276 0.949 . S
C271 H266 0.950 . S
C271 C273 1.327 . S
C271 C277 1.429 . S
C272 C264 1.574 . S
C272 H267 0.949 . S
C272 C278 1.368 . S
C273 C257 1.349 . S
C273 H265 0.950 . S
C273 C271 1.327 . S
C274 C262 1.349 . S
C274 H268 0.950 . S
C274 C275 1.327 . S
C275 H269 0.950 . S
C275 C274 1.327 . S
C275 C279 1.429 . S
C276 C259 1.574 . S
C276 H270 0.949 . S
C276 C280 1.368 . S
C277 C258 1.429 . S
C277 C271 1.429 . S
C277 C278 1.523 . S
C278 C259 1.368 . S
C278 C272 1.368 . S
C278 C277 1.523 . S
C279 C263 1.429 . S
C279 C275 1.429 . S
C279 C280 1.523 . S
C280 C264 1.368 . S
C280 C276 1.368 . S
C280 C279 1.523 . S
H281 C256 0.950 . S
H282 C258 0.950 . S
H283 C259 0.949 . S
H284 C261 0.950 . S
H285 C263 0.950 . S
C286 C287 1.349 . S
C286 C288 1.327 . S
C286 H311 0.950 . S
C287 C286 1.349 . S
C287 C303 1.349 . S
C288 C286 1.327 . S
C288 C307 1.429 . S
C288 H312 0.950 . S
C289 C306 1.574 . S
C289 C308 1.368 . S
C289 H313 0.949 . S
H290 C294 0.949 . S
C291 C292 1.349 . S
C291 C293 1.327 . S
C291 H314 0.950 . S
C292 C291 1.349 . S
C292 C304 1.349 . S
C293 C291 1.327 . S
C293 C309 1.429 . S
C293 H315 0.950 . S
C294 H290 0.949 . S
C294 C302 1.574 . S
C294 C310 1.368 . S
H295 C303 0.950 . S
H296 C301 0.950 . S
H297 C302 0.949 . S
H298 C304 0.950 . S
H299 C305 0.950 . S
H300 C306 0.949 . S
C301 H296 0.950 . S
C301 C303 1.327 . S
C301 C307 1.429 . S
C302 C294 1.574 . S
C302 H297 0.949 . S
C302 C308 1.368 . S
C303 C287 1.349 . S
C303 H295 0.950 . S
C303 C301 1.327 . S
C304 C292 1.349 . S
C304 H298 0.950 . S
C304 C305 1.327 . S
C305 H299 0.950 . S
C305 C304 1.327 . S
C305 C309 1.429 . S
C306 C289 1.574 . S
C306 H300 0.949 . S
C306 C310 1.368 . S
C307 C288 1.429 . S
C307 C301 1.429 . S
C307 C308 1.523 . S
C308 C289 1.368 . S
C308 C302 1.368 . S
C308 C307 1.523 . S
C309 C293 1.429 . S
C309 C305 1.429 . S
C309 C310 1.523 . S
C310 C294 1.368 . S
C310 C306 1.368 . S
C310 C309 1.523 . S
H311 C286 0.950 . S
H312 C288 0.950 . S
H313 C289 0.949 . S
H314 C291 0.950 . S
H315 C293 0.950 . S
C316 C317 1.349 . S
C316 C318 1.327 . S
C316 H341 0.950 . S
C317 C316 1.349 . S
C317 C333 1.349 . S
C318 C316 1.327 . S
C318 C337 1.429 . S
C318 H342 0.950 1_556 S
C319 C336 1.574 1_565 S
C319 C338 1.368 . S
C319 H343 0.949 . S
H320 C324 0.949 . S
C321 C322 1.349 . S
C321 C323 1.327 . S
C321 H344 0.950 . S
C322 C321 1.349 . S
C322 C334 1.349 . S
C323 C321 1.327 . S
C323 C339 1.429 . S
C323 H345 0.950 1_554 S
C324 H320 0.949 . S
C324 C332 1.574 1_545 S
C324 C340 1.368 . S
H325 C333 0.950 . S
H326 C331 0.950 . S
H327 C332 0.949 . S
H328 C334 0.950 . S
H329 C335 0.950 . S
H330 C336 0.949 . S
C331 H326 0.950 . S
C331 C333 1.327 . S
C331 C337 1.429 . S
C332 C324 1.574 1_565 S
C332 H327 0.949 . S
C332 C338 1.368 1_554 S
C333 C317 1.349 . S
C333 H325 0.950 . S
C333 C331 1.327 . S
C334 C322 1.349 . S
C334 H328 0.950 . S
C334 C335 1.327 . S
C335 H329 0.950 . S
C335 C334 1.327 . S
C335 C339 1.429 . S
C336 C319 1.574 1_545 S
C336 H330 0.949 . S
C336 C340 1.368 1_556 S
C337 C318 1.429 . S
C337 C331 1.429 . S
C337 C338 1.523 . S
C338 C319 1.368 . S
C338 C332 1.368 1_556 S
C338 C337 1.523 . S
C339 C323 1.429 . S
C339 C335 1.429 . S
C339 C340 1.523 . S
C340 C324 1.368 . S
C340 C336 1.368 1_554 S
C340 C339 1.523 . S
H341 C316 0.950 . S
H342 C318 0.950 1_554 S
H343 C319 0.949 . S
H344 C321 0.950 . S
H345 C323 0.950 1_556 S
C346 C347 1.349 1_655 S
C346 C348 1.327 . S
C346 H371 0.950 . S
C347 C346 1.349 1_455 S
C347 C363 1.349 . S
C348 C346 1.327 . S
C348 C367 1.429 1_655 S
C348 H372 0.950 . S
C349 C366 1.574 1_565 S
C349 C368 1.368 . S
C349 H373 0.949 . S
H350 C354 0.949 . S
C351 C352 1.349 . S
C351 C353 1.327 . S
C351 H374 0.950 . S
C352 C351 1.349 . S
C352 C364 1.349 1_455 S
C353 C351 1.327 . S
C353 C369 1.429 . S
C353 H375 0.950 . S
C354 H350 0.949 . S
C354 C362 1.574 1_545 S
C354 C370 1.368 1_655 S
H355 C363 0.950 . S
H356 C361 0.950 . S
H357 C362 0.949 . S
H358 C364 0.950 . S
H359 C365 0.950 . S
H360 C366 0.949 . S
C361 H356 0.950 . S
C361 C363 1.327 . S
C361 C367 1.429 . S
C362 C354 1.574 1_565 S
C362 H357 0.949 . S
C362 C368 1.368 1_655 S
C363 C347 1.349 . S
C363 H355 0.950 . S
C363 C361 1.327 . S
C364 C352 1.349 1_655 S
C364 H358 0.950 . S
C364 C365 1.327 . S
C365 H359 0.950 . S
C365 C364 1.327 . S
C365 C369 1.429 1_655 S
C366 C349 1.574 1_545 S
C366 H360 0.949 . S
C366 C370 1.368 . S
C367 C348 1.429 1_455 S
C367 C361 1.429 . S
C367 C368 1.523 . S
C368 C349 1.368 . S
C368 C362 1.368 1_455 S
C368 C367 1.523 . S
C369 C353 1.429 . S
C369 C365 1.429 1_455 S
C369 C370 1.523 . S
C370 C354 1.368 1_455 S
C370 C366 1.368 . S
C370 C369 1.523 . S
H371 C346 0.950 . S
H372 C348 0.950 . S
H373 C349 0.949 . S
H374 C351 0.950 . S
H375 C353 0.950 . S
C376 C377 1.349 1_655 S
C376 C378 1.327 . S
C376 H401 0.950 . S
C377 C376 1.349 1_455 S
C377 C393 1.349 . S
C378 C376 1.327 . S
C378 C397 1.429 1_654 S
C378 H402 0.946 1_554 S
C379 C396 1.574 . S
C379 C398 1.368 . S
C379 H403 0.949 . S
H380 C384 0.949 . S
C381 C382 1.349 . S
C381 C383 1.327 . S
C381 H404 0.950 . S
C382 C381 1.349 . S
C382 C394 1.349 1_455 S
C383 C381 1.327 . S
C383 C399 1.429 . S
C383 H405 0.950 . S
C384 H380 0.949 . S
C384 C392 1.574 . S
C384 C400 1.368 1_655 S
H385 C393 0.950 . S
H386 C391 0.950 . S
H387 C392 0.949 . S
H388 C394 0.950 . S
H389 C395 0.950 . S
H390 C396 0.949 . S
C391 H386 0.950 . S
C391 C393 1.327 . S
C391 C397 1.429 1_554 S
C392 C384 1.574 . S
C392 H387 0.949 . S
C392 C398 1.368 1_655 S
C393 C377 1.349 . S
C393 H385 0.950 . S
C393 C391 1.327 . S
C394 C382 1.349 1_655 S
C394 H388 0.950 . S
C394 C395 1.327 . S
C395 H389 0.950 . S
C395 C394 1.327 . S
C395 C399 1.429 1_655 S
C396 C379 1.574 . S
C396 H390 0.949 . S
C396 C400 1.368 . S
C397 C378 1.429 1_456 S
C397 C391 1.429 1_556 S
C397 C398 1.523 . S
C398 C379 1.368 . S
C398 C392 1.368 1_455 S
C398 C397 1.523 . S
C399 C383 1.429 . S
C399 C395 1.429 1_455 S
C399 C400 1.523 . S
C400 C384 1.368 1_455 S
C400 C396 1.368 . S
C400 C399 1.523 . S
H401 C376 0.950 . S
H402 C378 0.946 1_556 S
H403 C379 0.949 . S
H404 C381 0.950 . S
H405 C383 0.950 . S
C406 C407 1.349 1_655 S
C406 C408 1.327 . S
C406 H431 0.950 . S
C407 C406 1.349 1_455 S
C407 C423 1.349 . S
C408 C406 1.327 . S
C408 C427 1.429 1_656 S
C408 H432 0.950 . S
C409 C426 1.574 . S
C409 C428 1.368 . S
C409 H433 0.949 . S
H410 C414 0.949 . S
C411 C412 1.349 . S
C411 C413 1.327 . S
C411 H434 0.950 . S
C412 C411 1.349 . S
C412 C424 1.349 1_455 S
C413 C411 1.327 . S
C413 C429 1.429 . S
C413 H435 0.950 . S
C414 H410 0.949 . S
C414 C422 1.574 . S
C414 C430 1.368 1_655 S
H415 C423 0.950 . S
H416 C421 0.950 . S
H417 C422 0.949 . S
H418 C424 0.950 . S
H419 C425 0.950 . S
H420 C426 0.949 . S
C421 H416 0.950 . S
C421 C423 1.327 . S
C421 C427 1.429 1_556 S
C422 C414 1.574 . S
C422 H417 0.949 . S
C422 C428 1.368 1_655 S
C423 C407 1.349 . S
C423 H415 0.950 . S
C423 C421 1.327 . S
C424 C412 1.349 1_655 S
C424 H418 0.950 . S
C424 C425 1.327 . S
C425 H419 0.950 . S
C425 C424 1.327 . S
C425 C429 1.429 1_655 S
C426 C409 1.574 . S
C426 H420 0.949 . S
C426 C430 1.368 . S
C427 C408 1.429 1_454 S
C427 C421 1.429 1_554 S
C427 C428 1.523 . S
C428 C409 1.368 . S
C428 C422 1.368 1_455 S
C428 C427 1.523 . S
C429 C413 1.429 . S
C429 C425 1.429 1_455 S
C429 C430 1.523 . S
C430 C414 1.368 1_455 S
C430 C426 1.368 . S
C430 C429 1.523 . S
H431 C406 0.950 . S
H432 C408 0.950 . S
H433 C409 0.949 . S
H434 C411 0.950 . S
H435 C413 0.950 . S
C436 C437 1.349 . S
C436 C438 1.327 . S
C436 H461 0.950 . S
C437 C436 1.349 . S
C437 C453 1.349 . S
C438 C436 1.327 . S
C438 C457 1.429 . S
C438 H462 0.950 . S
C439 C456 1.574 . S
C439 C458 1.368 . S
C439 H463 0.949 . S
H440 C444 0.949 . S
C441 C442 1.349 . S
C441 C443 1.327 . S
C441 H464 0.950 . S
C442 C441 1.349 . S
C442 C454 1.349 . S
C443 C441 1.327 . S
C443 C459 1.429 . S
C443 H465 0.950 . S
C444 H440 0.949 . S
C444 C452 1.574 . S
C444 C460 1.368 . S
H445 C453 0.950 . S
H446 C451 0.950 . S
H447 C452 0.949 . S
H448 C454 0.950 . S
H449 C455 0.950 . S
H450 C456 0.949 . S
C451 H446 0.950 . S
C451 C453 1.327 . S
C451 C457 1.429 . S
C452 C444 1.574 . S
C452 H447 0.949 . S
C452 C458 1.368 . S
C453 C437 1.349 . S
C453 H445 0.950 . S
C453 C451 1.327 . S
C454 C442 1.349 . S
C454 H448 0.950 . S
C454 C455 1.327 . S
C455 H449 0.950 . S
C455 C454 1.327 . S
C455 C459 1.429 . S
C456 C439 1.574 . S
C456 H450 0.949 . S
C456 C460 1.368 . S
C457 C438 1.429 . S
C457 C451 1.429 . S
C457 C458 1.523 . S
C458 C439 1.368 . S
C458 C452 1.368 . S
C458 C457 1.523 . S
C459 C443 1.429 . S
C459 C455 1.429 . S
C459 C460 1.523 . S
C460 C444 1.368 . S
C460 C456 1.368 . S
C460 C459 1.523 . S
H461 C436 0.950 . S
H462 C438 0.950 . S
H463 C439 0.949 . S
H464 C441 0.950 . S
H465 C443 0.950 . S
C466 C467 1.349 . S
C466 C468 1.327 . S
C466 H491 0.950 . S
C467 C466 1.349 . S
C467 C483 1.349 . S
C468 C466 1.327 . S
C468 C487 1.429 . S
C468 H492 0.950 . S
C469 C486 1.574 . S
C469 C488 1.368 . S
C469 H493 0.949 . S
H470 C474 0.949 . S
C471 C472 1.349 . S
C471 C473 1.327 . S
C471 H494 0.950 . S
C472 C471 1.349 . S
C472 C484 1.349 . S
C473 C471 1.327 . S
C473 C489 1.429 . S
C473 H495 0.950 . S
C474 H470 0.949 . S
C474 C482 1.574 . S
C474 C490 1.368 . S
H475 C483 0.950 . S
H476 C481 0.950 . S
H477 C482 0.949 . S
H478 C484 0.950 . S
H479 C485 0.950 . S
H480 C486 0.949 . S
C481 H476 0.950 . S
C481 C483 1.327 . S
C481 C487 1.429 . S
C482 C474 1.574 . S
C482 H477 0.949 . S
C482 C488 1.368 . S
C483 C467 1.349 . S
C483 H475 0.950 . S
C483 C481 1.327 . S
C484 C472 1.349 . S
C484 H478 0.950 . S
C484 C485 1.327 . S
C485 H479 0.950 . S
C485 C484 1.327 . S
C485 C489 1.429 . S
C486 C469 1.574 . S
C486 H480 0.949 . S
C486 C490 1.368 . S
C487 C468 1.429 . S
C487 C481 1.429 . S
C487 C488 1.523 . S
C488 C469 1.368 . S
C488 C482 1.368 . S
C488 C487 1.523 . S
C489 C473 1.429 . S
C489 C485 1.429 . S
C489 C490 1.523 . S
C490 C474 1.368 . S
C490 C486 1.368 . S
C490 C489 1.523 . S
H491 C466 0.950 . S
H492 C468 0.950 . S
H493 C469 0.949 . S
H494 C471 0.950 . S
H495 C473 0.950 . S
C137 C17 1.959 . S
C142 C42 1.959 . S
C167 C68 2.124 . S
C172 C63 2.124 . S
C197 C119 2.049 . S
C202 C76 2.049 . S
C227 C29 1.888 . S
C232 C102 1.888 . S
C257 C131 2.124 . S
C262 C0 2.124 . S
C287 C97 1.888 . S
C292 C34 1.888 . S
C317 C85 1.959 . S
C322 C110 1.959 . S
C347 C51 2.049 . S
C352 C8 2.049 . S
C377 C4 0.448 . S
C382 C13 0.448 . S
C407 C47 0.448 . S
C412 C38 0.448 . S
C437 C81 0.448 . S
C442 C72 0.448 . S
C467 C115 0.448 . S
C472 C106 0.448 . S
