# Generated by pormake.
# Topology zff, (5)-cn, num edge types: 1
# Building blocks:
#     Node 0, Type 0, BuildingBlock: BEQFEK_clean_sbu_0, # of connection points: 5
#     Node 1, Type 0, BuildingBlock: BEQFEK_clean_sbu_0, # of connection points: 5
#     Node 2, Type 0, BuildingBlock: BEQFEK_clean_sbu_0, # of connection points: 5
#     Node 3, Type 0, BuildingBlock: BEQFEK_clean_sbu_0, # of connection points: 5
#     Node 4, Type 0, BuildingBlock: BEQFEK_clean_sbu_0, # of connection points: 5
#     Node 5, Type 0, BuildingBlock: BEQFEK_clean_sbu_0, # of connection points: 5
#     Node 6, Type 0, BuildingBlock: BEQFEK_clean_sbu_0, # of connection points: 5
#     Node 7, Type 0, BuildingBlock: BEQFEK_clean_sbu_0, # of connection points: 5
#     Node 8, Type 0, BuildingBlock: BEQFEK_clean_sbu_0, # of connection points: 5
#     Node 9, Type 0, BuildingBlock: BEQFEK_clean_sbu_0, # of connection points: 5
#     Node 10, Type 0, BuildingBlock: BEQFEK_clean_sbu_0, # of connection points: 5
#     Node 11, Type 0, BuildingBlock: BEQFEK_clean_sbu_0, # of connection points: 5
#     Node 12, Type 0, BuildingBlock: BEQFEK_clean_sbu_0, # of connection points: 5
#     Node 13, Type 0, BuildingBlock: BEQFEK_clean_sbu_0, # of connection points: 5
#     Node 14, Type 0, BuildingBlock: BEQFEK_clean_sbu_0, # of connection points: 5
#     Node 15, Type 0, BuildingBlock: BEQFEK_clean_sbu_0, # of connection points: 5
#     Edge 16, Type (0, 0), BuildingBlock: MIFKUJ_clean_linker_0, # of connection points: 2
#     Edge 17, Type (0, 0), BuildingBlock: MIFKUJ_clean_linker_0, # of connection points: 2
#     Edge 18, Type (0, 0), BuildingBlock: MIFKUJ_clean_linker_0, # of connection points: 2
#     Edge 19, Type (0, 0), BuildingBlock: MIFKUJ_clean_linker_0, # of connection points: 2
#     Edge 20, Type (0, 0), BuildingBlock: MIFKUJ_clean_linker_0, # of connection points: 2
#     Edge 21, Type (0, 0), BuildingBlock: MIFKUJ_clean_linker_0, # of connection points: 2
#     Edge 22, Type (0, 0), BuildingBlock: MIFKUJ_clean_linker_0, # of connection points: 2
#     Edge 23, Type (0, 0), BuildingBlock: MIFKUJ_clean_linker_0, # of connection points: 2
#     Edge 24, Type (0, 0), BuildingBlock: MIFKUJ_clean_linker_0, # of connection points: 2
#     Edge 25, Type (0, 0), BuildingBlock: MIFKUJ_clean_linker_0, # of connection points: 2
#     Edge 26, Type (0, 0), BuildingBlock: MIFKUJ_clean_linker_0, # of connection points: 2
#     Edge 27, Type (0, 0), BuildingBlock: MIFKUJ_clean_linker_0, # of connection points: 2
#     Edge 28, Type (0, 0), BuildingBlock: MIFKUJ_clean_linker_0, # of connection points: 2
#     Edge 29, Type (0, 0), BuildingBlock: MIFKUJ_clean_linker_0, # of connection points: 2
#     Edge 30, Type (0, 0), BuildingBlock: MIFKUJ_clean_linker_0, # of connection points: 2
#     Edge 31, Type (0, 0), BuildingBlock: MIFKUJ_clean_linker_0, # of connection points: 2
#     Edge 32, Type (0, 0), BuildingBlock: MIFKUJ_clean_linker_0, # of connection points: 2
#     Edge 33, Type (0, 0), BuildingBlock: MIFKUJ_clean_linker_0, # of connection points: 2
#     Edge 34, Type (0, 0), BuildingBlock: MIFKUJ_clean_linker_0, # of connection points: 2
#     Edge 35, Type (0, 0), BuildingBlock: MIFKUJ_clean_linker_0, # of connection points: 2
#     Edge 36, Type (0, 0), BuildingBlock: MIFKUJ_clean_linker_0, # of connection points: 2
#     Edge 37, Type (0, 0), BuildingBlock: MIFKUJ_clean_linker_0, # of connection points: 2
#     Edge 38, Type (0, 0), BuildingBlock: MIFKUJ_clean_linker_0, # of connection points: 2
#     Edge 39, Type (0, 0), BuildingBlock: MIFKUJ_clean_linker_0, # of connection points: 2
#     Edge 40, Type (0, 0), BuildingBlock: MIFKUJ_clean_linker_0, # of connection points: 2
#     Edge 41, Type (0, 0), BuildingBlock: MIFKUJ_clean_linker_0, # of connection points: 2
#     Edge 42, Type (0, 0), BuildingBlock: MIFKUJ_clean_linker_0, # of connection points: 2
#     Edge 43, Type (0, 0), BuildingBlock: MIFKUJ_clean_linker_0, # of connection points: 2
#     Edge 44, Type (0, 0), BuildingBlock: MIFKUJ_clean_linker_0, # of connection points: 2
#     Edge 45, Type (0, 0), BuildingBlock: MIFKUJ_clean_linker_0, # of connection points: 2
#     Edge 46, Type (0, 0), BuildingBlock: MIFKUJ_clean_linker_0, # of connection points: 2
#     Edge 47, Type (0, 0), BuildingBlock: MIFKUJ_clean_linker_0, # of connection points: 2
#     Edge 48, Type (0, 0), BuildingBlock: MIFKUJ_clean_linker_0, # of connection points: 2
#     Edge 49, Type (0, 0), BuildingBlock: MIFKUJ_clean_linker_0, # of connection points: 2
#     Edge 50, Type (0, 0), BuildingBlock: MIFKUJ_clean_linker_0, # of connection points: 2
#     Edge 51, Type (0, 0), BuildingBlock: MIFKUJ_clean_linker_0, # of connection points: 2
#     Edge 52, Type (0, 0), BuildingBlock: MIFKUJ_clean_linker_0, # of connection points: 2
#     Edge 53, Type (0, 0), BuildingBlock: MIFKUJ_clean_linker_0, # of connection points: 2
#     Edge 54, Type (0, 0), BuildingBlock: MIFKUJ_clean_linker_0, # of connection points: 2
#     Edge 55, Type (0, 0), BuildingBlock: MIFKUJ_clean_linker_0, # of connection points: 2
# Relax obj value: 0.067
# Max RMSD: 0.107
# Mean RMSD: 0.107
data_MOF--net-zff--node1-BEQFEK_clean_sbu_0--edge1-MIFKUJ_clean_linker_0
_symmetry_space_group_name_H-M    P1
_symmetry_Int_Tables_number       1
_symmetry_cell_setting            triclinic
loop_
_symmetry_equiv_pos_as_xyz
'x, y, z'
_cell_length_a     47.189938
_cell_length_b     47.188844
_cell_length_c     90.129793
_cell_angle_alpha  90.001458
_cell_angle_beta   89.9476
_cell_angle_gamma 89.986088
loop_
_atom_site_label
_atom_site_type_symbol
_atom_site_fract_x
_atom_site_fract_y
_atom_site_fract_z
_atom_type_partial_charge
Co0 Co 0.0551 0.27683 0.39913 0.0
Co1 Co 0.05745 0.28025 0.36403 0.0
C2 C 0.10031 0.24732 0.38173 0.0
O3 O 0.08903 0.25392 0.39414 0.0
O4 O 0.0902 0.25616 0.36946 0.0
C5 C 0.05283 0.26118 0.43018 0.0
O6 O 0.06156 0.23639 0.42537 0.0
C7 C 0.07938 0.29504 0.33406 0.0
C8 C 0.03936 0.29732 0.32142 0.0
C9 C 0.06836 0.30121 0.3201 0.0
N10 N 0.05777 0.28814 0.34315 0.0
N11 N 0.034 0.28918 0.33543 0.0
C12 C 0.10936 0.29824 0.33915 0.0
H13 H 0.11015 0.30098 0.35138 0.0
H14 H 0.11956 0.3166 0.3336 0.0
H15 H 0.12137 0.27882 0.3362 0.0
C16 C 0.05204 0.33863 0.39549 0.0
N17 N 0.05639 0.31262 0.38981 0.0
N18 N 0.05734 0.31427 0.37523 0.0
C19 C 0.05368 0.34149 0.37118 0.0
C20 C 0.05008 0.35776 0.38386 0.0
C21 C 0.04536 0.34401 0.41148 0.0
H22 H 0.02619 0.33179 0.41463 0.0
H23 H 0.06319 0.33641 0.41844 0.0
H24 H 0.04155 0.36677 0.41379 0.0
O25 O 0.02097 0.25655 0.39253 0.0
O26 O 0.02184 0.25923 0.36796 0.0
H27 H 0.03272 0.34146 0.35015 0.0
H28 H 0.04939 0.37484 0.35478 0.0
C29 C 0.0514 0.35146 0.35546 0.0
H30 H 0.07062 0.345 0.34928 0.0
H31 H 0.01397 0.28513 0.33986 0.0
O32 O 0.05015 0.28145 0.42099 0.0
C33 C 0.01001 0.25125 0.37995 0.0
Co34 Co 0.71995 0.05102 0.40349 0.0
Co35 Co 0.71008 0.05612 0.36899 0.0
C36 C 0.75189 0.09295 0.38544 0.0
O37 O 0.7462 0.08173 0.39797 0.0
O38 O 0.73945 0.08507 0.37357 0.0
C39 C 0.73503 0.05323 0.43525 0.0
O40 O 0.75504 0.07141 0.43179 0.0
C41 C 0.69206 0.08268 0.34076 0.0
C42 C 0.68444 0.04475 0.32694 0.0
C43 C 0.68297 0.07407 0.32679 0.0
N44 N 0.69845 0.05945 0.34875 0.0
N45 N 0.69414 0.03691 0.34035 0.0
C46 C 0.6925 0.1121 0.3469 0.0
H47 H 0.69136 0.11157 0.3592 0.0
H48 H 0.67463 0.12472 0.34237 0.0
H49 H 0.71264 0.12252 0.34363 0.0
C50 C 0.65826 0.05766 0.40357 0.0
N51 N 0.68319 0.05841 0.39638 0.0
N52 N 0.67859 0.05948 0.382 0.0
C53 C 0.65042 0.05889 0.37957 0.0
C54 C 0.63661 0.05767 0.39319 0.0
C55 C 0.65536 0.05419 0.42001 0.0
H56 H 0.66966 0.0693 0.42574 0.0
H57 H 0.63324 0.05798 0.42371 0.0
H58 H 0.66176 0.03238 0.42316 0.0
O59 O 0.73379 0.015 0.3952 0.0
O60 O 0.7268 0.0179 0.37094 0.0
H61 H 0.64796 0.03626 0.35904 0.0
H62 H 0.61441 0.05019 0.36519 0.0
C63 C 0.63748 0.05443 0.36458 0.0
H64 H 0.64104 0.07358 0.3577 0.0
H65 H 0.69718 0.01608 0.3439 0.0
O66 O 0.71873 0.04385 0.42518 0.0
C67 C 0.73524 0.00428 0.38228 0.0
Co68 Co 0.93876 0.71963 0.39872 0.0
Co69 Co 0.93985 0.71485 0.36378 0.0
C70 C 0.89829 0.75221 0.38036 0.0
O71 O 0.90755 0.74523 0.39313 0.0
O72 O 0.90906 0.7421 0.36851 0.0
C73 C 0.94221 0.73649 0.42938 0.0
O74 O 0.93709 0.76194 0.42411 0.0
C75 C 0.91665 0.6978 0.33461 0.0
C76 C 0.95422 0.70276 0.32021 0.0
C77 C 0.92587 0.69506 0.31998 0.0
N78 N 0.93862 0.70649 0.34298 0.0
N79 N 0.96098 0.70939 0.33428 0.0
C80 C 0.88726 0.69379 0.34049 0.0
H81 H 0.88449 0.70528 0.35112 0.0
H82 H 0.88358 0.67093 0.34262 0.0
H83 H 0.87138 0.70123 0.33229 0.0
C84 C 0.93417 0.65797 0.39597 0.0
N85 N 0.93414 0.68387 0.3898 0.0
N86 N 0.93606 0.6814 0.37528 0.0
C87 C 0.93813 0.65371 0.37179 0.0
C88 C 0.93689 0.63797 0.38481 0.0
C89 C 0.9339 0.65271 0.41235 0.0
H90 H 0.91767 0.66636 0.41768 0.0
H91 H 0.92923 0.63018 0.41489 0.0
H92 H 0.95488 0.65835 0.41704 0.0
O93 O 0.97536 0.73591 0.39253 0.0
O94 O 0.97699 0.73271 0.36798 0.0
H95 H 0.95531 0.62145 0.35714 0.0
H96 H 0.92682 0.6424 0.34962 0.0
C97 C 0.94603 0.64304 0.35668 0.0
H98 H 0.96158 0.65757 0.35147 0.0
H99 H 0.98087 0.71605 0.33795 0.0
O100 O 0.94225 0.71547 0.42057 0.0
C101 C 0.98821 0.73975 0.38028 0.0
Co102 Co 0.27669 0.94379 0.40359 0.0
Co103 Co 0.28246 0.94038 0.36854 0.0
C104 C 0.24387 0.90163 0.38581 0.0
O105 O 0.25084 0.91221 0.39832 0.0
O106 O 0.25445 0.9107 0.37367 0.0
C107 C 0.2649 0.93855 0.4357 0.0
O108 O 0.2449 0.92043 0.43213 0.0
C109 C 0.29687 0.91583 0.33907 0.0
C110 C 0.30505 0.95478 0.32617 0.0
C111 C 0.30546 0.92549 0.32519 0.0
N112 N 0.29186 0.93845 0.34782 0.0
N113 N 0.2964 0.96162 0.33994 0.0
C114 C 0.29605 0.88586 0.34443 0.0
H115 H 0.29788 0.88514 0.3567 0.0
H116 H 0.31334 0.8733 0.33928 0.0
H117 H 0.2755 0.87623 0.34121 0.0
C118 C 0.33868 0.94032 0.40118 0.0
N119 N 0.31281 0.93829 0.39501 0.0
N120 N 0.31542 0.93704 0.38047 0.0
C121 C 0.34313 0.93831 0.37696 0.0
C122 C 0.35874 0.94054 0.38994 0.0
C123 C 0.34355 0.94689 0.41723 0.0
H124 H 0.33385 0.9677 0.4199 0.0
H125 H 0.33301 0.93056 0.42416 0.0
H126 H 0.36643 0.94757 0.42 0.0
O127 O 0.26076 0.97984 0.39632 0.0
O128 O 0.26532 0.97817 0.37183 0.0
H129 H 0.34615 0.96043 0.35632 0.0
H130 H 0.37785 0.94108 0.36127 0.0
C131 C 0.35434 0.94073 0.36148 0.0
H132 H 0.34693 0.92242 0.35485 0.0
H133 H 0.29445 0.98215 0.34411 0.0
O134 O 0.2802 0.94926 0.42552 0.0
C135 C 0.25778 0.99109 0.38358 0.0
Co136 Co 0.05026 0.72387 0.60892 0.0
Co137 Co 0.05885 0.71282 0.64331 0.0
C138 C 0.09942 0.74809 0.62579 0.0
O139 O 0.08543 0.74463 0.61385 0.0
O140 O 0.09164 0.73687 0.63799 0.0
C141 C 0.05813 0.71622 0.57666 0.0
O142 O 0.08136 0.70202 0.57969 0.0
C143 C 0.08292 0.6948 0.67266 0.0
C144 C 0.0434 0.69185 0.68573 0.0
C145 C 0.07251 0.68881 0.68679 0.0
N146 N 0.06083 0.70093 0.66371 0.0
N147 N 0.03735 0.69903 0.67166 0.0
C148 C 0.11329 0.69584 0.66791 0.0
H149 H 0.11589 0.70913 0.6579 0.0
H150 H 0.12052 0.67409 0.66517 0.0
H151 H 0.12678 0.70416 0.67701 0.0
C152 C 0.04392 0.66136 0.60944 0.0
N153 N 0.05084 0.68603 0.61602 0.0
N154 N 0.05589 0.68137 0.63019 0.0
C155 C 0.05338 0.65344 0.63294 0.0
C156 C 0.04557 0.63985 0.6199 0.0
C157 C 0.03125 0.65916 0.59425 0.0
H158 H 0.01938 0.67873 0.59152 0.0
H159 H 0.04844 0.65614 0.586 0.0
H160 H 0.01654 0.64088 0.59344 0.0
O161 O 0.01823 0.74356 0.61795 0.0
O162 O 0.02348 0.7359 0.64206 0.0
H163 H 0.03943 0.64564 0.65513 0.0
H164 H 0.05959 0.61686 0.64707 0.0
C165 C 0.05763 0.64024 0.64786 0.0
H166 H 0.07716 0.64882 0.65297 0.0
H167 H 0.01711 0.70293 0.66749 0.0
O168 O 0.04332 0.72634 0.58718 0.0
C169 C 0.00984 0.74663 0.63125 0.0
Co170 Co 0.27353 0.04551 0.61645 0.0
Co171 Co 0.28431 0.05135 0.65102 0.0
C172 C 0.24236 0.08802 0.63521 0.0
O173 O 0.24752 0.07657 0.62266 0.0
O174 O 0.25512 0.08019 0.64696 0.0
C175 C 0.27558 0.05519 0.58364 0.0
O176 O 0.28275 0.0817 0.58605 0.0
C177 C 0.30067 0.07706 0.6799 0.0
C178 C 0.31339 0.03881 0.69238 0.0
C179 C 0.31138 0.06802 0.69349 0.0
N180 N 0.29674 0.05417 0.67121 0.0
N181 N 0.30407 0.0314 0.67883 0.0
C182 C 0.2965 0.10688 0.67474 0.0
H183 H 0.29785 0.108 0.66246 0.0
H184 H 0.31254 0.12113 0.67979 0.0
H185 H 0.27513 0.1142 0.67819 0.0
C186 C 0.33597 0.04989 0.61616 0.0
N187 N 0.31087 0.05222 0.62318 0.0
N188 N 0.31532 0.05498 0.63755 0.0
C189 C 0.34345 0.05501 0.64004 0.0
C190 C 0.35741 0.05169 0.62662 0.0
C191 C 0.33916 0.04086 0.60032 0.0
H192 H 0.32411 0.02346 0.59783 0.0
H193 H 0.33414 0.05905 0.593 0.0
H194 H 0.36101 0.03362 0.5978 0.0
O195 O 0.26114 0.00924 0.62484 0.0
O196 O 0.26739 0.01308 0.64919 0.0
H197 H 0.3513 0.03496 0.66089 0.0
H198 H 0.38017 0.05684 0.6544 0.0
C199 C 0.35677 0.05495 0.6551 0.0
H200 H 0.34844 0.07297 0.66166 0.0
H201 H 0.30331 0.01081 0.67465 0.0
O202 O 0.27136 0.03872 0.59459 0.0
C203 C 0.25976 -0.00095 0.63785 0.0
Co204 Co 0.94662 0.27211 0.61049 0.0
Co205 Co 0.94015 0.28361 0.64498 0.0
C206 C 0.90164 0.24382 0.62894 0.0
O207 O 0.91367 0.24858 0.61651 0.0
O208 O 0.90988 0.25592 0.64081 0.0
C209 C 0.93683 0.27734 0.57802 0.0
O210 O 0.91243 0.28949 0.581 0.0
C211 C 0.91459 0.30015 0.67392 0.0
C212 C 0.95277 0.31338 0.68628 0.0
C213 C 0.92359 0.31103 0.68749 0.0
N214 N 0.93745 0.29641 0.66517 0.0
N215 N 0.96018 0.30408 0.67271 0.0
C216 C 0.88476 0.29563 0.66885 0.0
H217 H 0.88345 0.2974 0.65659 0.0
H218 H 0.87029 0.31124 0.67409 0.0
H219 H 0.87789 0.27402 0.6721 0.0
C220 C 0.94674 0.33499 0.61025 0.0
N221 N 0.9428 0.30999 0.61719 0.0
N222 N 0.93856 0.31464 0.63145 0.0
C223 C 0.93861 0.34279 0.63389 0.0
C224 C 0.94399 0.35658 0.62059 0.0
C225 C 0.95791 0.33789 0.59476 0.0
H226 H 0.97162 0.31961 0.59195 0.0
H227 H 0.93985 0.33861 0.58691 0.0
H228 H 0.97039 0.35764 0.5934 0.0
O229 O 0.98118 0.25617 0.61913 0.0
O230 O 0.9776 0.26435 0.64329 0.0
H231 H 0.95423 0.35269 0.65553 0.0
H232 H 0.931 0.37934 0.64785 0.0
C233 C 0.93489 0.35622 0.64881 0.0
H234 H 0.91666 0.34639 0.65459 0.0
H235 H 0.98076 0.3035 0.66848 0.0
O236 O 0.9527 0.26923 0.58859 0.0
C237 C 0.99118 0.2546 0.63219 0.0
Co238 Co 0.72101 0.94131 0.61397 0.0
Co239 Co 0.71044 0.94068 0.64857 0.0
C240 C 0.75093 0.90035 0.63331 0.0
O241 O 0.74552 0.90997 0.62041 0.0
O242 O 0.73896 0.91044 0.64485 0.0
C243 C 0.72207 0.92985 0.58131 0.0
O244 O 0.71843 0.90265 0.58374 0.0
C245 C 0.69011 0.91658 0.67707 0.0
C246 C 0.6932 0.95403 0.69169 0.0
C247 C 0.68619 0.92552 0.69165 0.0
N248 N 0.69895 0.93885 0.66895 0.0
N249 N 0.70061 0.96115 0.67777 0.0
C250 C 0.68728 0.88715 0.67109 0.0
H251 H 0.69909 0.8849 0.66052 0.0
H252 H 0.6646 0.88269 0.66886 0.0
H253 H 0.69505 0.87146 0.67931 0.0
C254 C 0.65874 0.93846 0.61385 0.0
N255 N 0.68362 0.93691 0.62105 0.0
N256 N 0.67897 0.93758 0.63546 0.0
C257 C 0.6509 0.94009 0.63787 0.0
C258 C 0.63716 0.94065 0.62423 0.0
C259 C 0.65596 0.94019 0.59734 0.0
H260 H 0.6662 0.95991 0.59331 0.0
H261 H 0.667 0.92191 0.59225 0.0
H262 H 0.63346 0.93985 0.59377 0.0
O263 O 0.7364 0.97712 0.62157 0.0
O264 O 0.72884 0.97806 0.64582 0.0
H265 H 0.65131 0.96293 0.65842 0.0
H266 H 0.6162 0.9548 0.65176 0.0
C267 C 0.63821 0.94677 0.6527 0.0
H268 H 0.63812 0.92732 0.65959 0.0
H269 H 0.70726 0.9812 0.67434 0.0
O270 O 0.72293 0.94703 0.59215 0.0
C271 C 0.73818 0.98957 0.63403 0.0
Co272 Co 0.54871 0.7699 0.9025 0.0
Co273 Co 0.55588 0.77819 0.86775 0.0
C274 C 0.59642 0.74324 0.88579 0.0
O275 O 0.58331 0.74795 0.89792 0.0
O276 O 0.58816 0.75375 0.87352 0.0
C277 C 0.55674 0.77633 0.93506 0.0
O278 O 0.58274 0.78498 0.93247 0.0
C279 C 0.58115 0.7962 0.83882 0.0
C280 C 0.54298 0.79584 0.82466 0.0
C281 C 0.57184 0.80121 0.82437 0.0
N282 N 0.55869 0.78852 0.84717 0.0
N283 N 0.53603 0.78831 0.83857 0.0
C284 C 0.61084 0.79775 0.84458 0.0
H285 H 0.61322 0.7848 0.85474 0.0
H286 H 0.61586 0.82003 0.84747 0.0
H287 H 0.6261 0.79045 0.83601 0.0
C288 C 0.5427 0.83207 0.90074 0.0
N289 N 0.54993 0.8071 0.89458 0.0
N290 N 0.55334 0.81059 0.88017 0.0
C291 C 0.54874 0.83798 0.87678 0.0
C292 C 0.54172 0.85243 0.88966 0.0
C293 C 0.53205 0.83515 0.91633 0.0
H294 H 0.51684 0.8179 0.91885 0.0
H295 H 0.55016 0.83335 0.92409 0.0
H296 H 0.52143 0.85581 0.91819 0.0
O297 O 0.5163 0.75004 0.89387 0.0
O298 O 0.52019 0.75613 0.86954 0.0
H299 H 0.5308 0.83987 0.85502 0.0
H300 H 0.54611 0.87295 0.86124 0.0
C301 C 0.5485 0.84956 0.86132 0.0
H302 H 0.56864 0.84403 0.85571 0.0
H303 H 0.51572 0.78302 0.84222 0.0
O304 O 0.5408 0.7697 0.92424 0.0
C305 C 0.50711 0.74628 0.88077 0.0
Co306 Co 0.21885 0.54202 0.897 0.0
Co307 Co 0.21198 0.549 0.86222 0.0
C308 C 0.25212 0.58489 0.8802 0.0
O309 O 0.24594 0.57271 0.89242 0.0
O310 O 0.24035 0.5778 0.86803 0.0
C311 C 0.22353 0.54906 0.92957 0.0
O312 O 0.2311 0.57547 0.92723 0.0
C313 C 0.19432 0.57744 0.83428 0.0
C314 C 0.1973 0.5418 0.81846 0.0
C315 C 0.19072 0.57036 0.81938 0.0
N316 N 0.20248 0.55405 0.84171 0.0
N317 N 0.20418 0.53288 0.83216 0.0
C318 C 0.19167 0.60608 0.84126 0.0
H319 H 0.20369 0.60696 0.85182 0.0
H320 H 0.16906 0.61034 0.84379 0.0
H321 H 0.19937 0.62274 0.83355 0.0
C322 C 0.15736 0.55028 0.89577 0.0
N323 N 0.18284 0.55015 0.88913 0.0
N324 N 0.17944 0.5513 0.87464 0.0
C325 C 0.1515 0.55145 0.87158 0.0
C326 C 0.1366 0.55089 0.8849 0.0
C327 C 0.15317 0.5482 0.91219 0.0
H328 H 0.16794 0.56288 0.91788 0.0
H329 H 0.1311 0.55354 0.9154 0.0
H330 H 0.15813 0.52632 0.91588 0.0
O331 O 0.23233 0.50628 0.88837 0.0
O332 O 0.22958 0.51104 0.86389 0.0
H333 H 0.15313 0.53296 0.84984 0.0
H334 H 0.11772 0.53899 0.85662 0.0
C335 C 0.13957 0.54761 0.85632 0.0
H336 H 0.13915 0.56839 0.85059 0.0
H337 H 0.21021 0.5123 0.83498 0.0
O338 O 0.21724 0.53332 0.91862 0.0
C339 C 0.23579 0.49663 0.87534 0.0
Co340 Co 0.44769 0.21479 0.90524 0.0
Co341 Co 0.44144 0.20598 0.87065 0.0
C342 C 0.40618 0.24815 0.88725 0.0
O343 O 0.41859 0.24305 0.89953 0.0
O344 O 0.4124 0.23488 0.87535 0.0
C345 C 0.44821 0.23266 0.93629 0.0
O346 O 0.43603 0.25607 0.93165 0.0
C347 C 0.41581 0.18935 0.8418 0.0
C348 C 0.45445 0.18183 0.8285 0.0
C349 C 0.42513 0.18089 0.82781 0.0
N350 N 0.43866 0.19485 0.85027 0.0
N351 N 0.46162 0.19053 0.84219 0.0
C352 C 0.38604 0.1903 0.84745 0.0
H353 H 0.38577 0.18843 0.85973 0.0
H354 H 0.37323 0.17306 0.84243 0.0
H355 H 0.3764 0.21093 0.84438 0.0
C356 C 0.4363 0.15368 0.90499 0.0
N357 N 0.43832 0.17864 0.8979 0.0
N358 N 0.43723 0.17433 0.88348 0.0
C359 C 0.43502 0.14629 0.88093 0.0
C360 C 0.43431 0.13227 0.89451 0.0
C361 C 0.43772 0.15044 0.92149 0.0
H362 H 0.42389 0.16649 0.92684 0.0
H363 H 0.43092 0.12897 0.92503 0.0
H364 H 0.45979 0.15421 0.92524 0.0
O365 O 0.48481 0.2261 0.89732 0.0
O366 O 0.47967 0.22294 0.87288 0.0
H367 H 0.44144 0.11003 0.86639 0.0
H368 H 0.41795 0.13716 0.85951 0.0
C369 C 0.43768 0.13318 0.86585 0.0
H370 H 0.45553 0.14312 0.85978 0.0
H371 H 0.48227 0.19305 0.84611 0.0
O372 O 0.45354 0.21303 0.92704 0.0
C373 C 0.49446 0.22893 0.88424 0.0
Co374 Co 0.77184 0.44558 0.8992 0.0
Co375 Co 0.77879 0.43739 0.86447 0.0
C376 C 0.74067 0.40033 0.882 0.0
O377 O 0.74604 0.41391 0.89389 0.0
O378 O 0.75234 0.40661 0.86969 0.0
C379 C 0.78221 0.43644 0.93142 0.0
O380 O 0.79595 0.4131 0.92805 0.0
C381 C 0.79468 0.41251 0.83514 0.0
C382 C 0.8016 0.45165 0.82219 0.0
C383 C 0.80297 0.42238 0.82122 0.0
N384 N 0.78901 0.43502 0.84387 0.0
N385 N 0.79286 0.45827 0.83595 0.0
C386 C 0.79452 0.38254 0.84053 0.0
H387 H 0.79626 0.38193 0.85281 0.0
H388 H 0.81218 0.37039 0.83545 0.0
H389 H 0.77424 0.3724 0.83729 0.0
C390 C 0.83433 0.44627 0.89715 0.0
N391 N 0.80871 0.44054 0.89128 0.0
N392 N 0.81155 0.43627 0.87688 0.0
C393 C 0.83919 0.43816 0.87331 0.0
C394 C 0.85443 0.44469 0.88598 0.0
C395 C 0.83871 0.45914 0.91218 0.0
H396 H 0.8202 0.4723 0.9153 0.0
H397 H 0.84138 0.44198 0.92045 0.0
H398 H 0.85801 0.47256 0.9125 0.0
O399 O 0.7576 0.48114 0.89114 0.0
O400 O 0.75993 0.47511 0.8667 0.0
H401 H 0.8431 0.45591 0.85158 0.0
H402 H 0.87412 0.43681 0.85771 0.0
C403 C 0.85059 0.43711 0.85782 0.0
H404 H 0.84279 0.41776 0.85221 0.0
H405 H 0.79021 0.47875 0.84008 0.0
O406 O 0.77134 0.45141 0.92116 0.0
C407 C 0.75378 0.49005 0.87801 0.0
Co408 Co 0.54917 0.22663 0.11687 0.0
Co409 Co 0.55228 0.21765 0.15153 0.0
C410 C 0.59356 0.25479 0.1355 0.0
O411 O 0.58231 0.2496 0.12294 0.0
O412 O 0.58395 0.24387 0.14741 0.0
C413 C 0.56105 0.22061 0.08458 0.0
O414 O 0.58592 0.20974 0.08782 0.0
C415 C 0.57525 0.20142 0.18094 0.0
C416 C 0.53565 0.19296 0.19327 0.0
C417 C 0.56489 0.19264 0.19465 0.0
N418 N 0.55307 0.20649 0.17193 0.0
N419 N 0.52951 0.20167 0.17944 0.0
C420 C 0.60547 0.20267 0.17598 0.0
H421 H 0.60686 0.20005 0.16377 0.0
H422 H 0.61821 0.18603 0.18157 0.0
H423 H 0.61439 0.22368 0.17893 0.0
C424 C 0.54737 0.16388 0.11775 0.0
N425 N 0.5515 0.1892 0.12432 0.0
N426 N 0.55358 0.18549 0.13878 0.0
C427 C 0.55141 0.15764 0.14179 0.0
C428 C 0.54727 0.1431 0.12862 0.0
C429 C 0.53893 0.16024 0.10185 0.0
H430 H 0.52435 0.1775 0.0985 0.0
H431 H 0.55816 0.16126 0.0948 0.0
H432 H 0.52839 0.13956 0.09992 0.0
O433 O 0.51427 0.244 0.12443 0.0
O434 O 0.51569 0.2377 0.14879 0.0
H435 H 0.53154 0.15201 0.16291 0.0
H436 H 0.55201 0.12179 0.15681 0.0
C437 C 0.55113 0.14529 0.15709 0.0
H438 H 0.56964 0.15321 0.16338 0.0
H439 H 0.50919 0.20381 0.17502 0.0
O440 O 0.5444 0.22809 0.09496 0.0
C441 C 0.50324 0.24681 0.13721 0.0
Co442 Co 0.77313 0.55308 0.10982 0.0
Co443 Co 0.78117 0.55971 0.14455 0.0
C444 C 0.74281 0.598 0.12701 0.0
O445 O 0.74866 0.58601 0.1147 0.0
O446 O 0.75395 0.58975 0.13914 0.0
C447 C 0.78017 0.56206 0.07732 0.0
O448 O 0.78893 0.58793 0.08013 0.0
C449 C 0.79825 0.58609 0.17327 0.0
C450 C 0.79871 0.5484 0.1878 0.0
C451 C 0.80338 0.57738 0.1878 0.0
N452 N 0.79122 0.56318 0.16513 0.0
N453 N 0.79147 0.5408 0.17394 0.0
C454 C 0.79898 0.61565 0.16728 0.0
H455 H 0.78573 0.61741 0.15718 0.0
H456 H 0.82108 0.62112 0.16419 0.0
H457 H 0.79156 0.63097 0.17578 0.0
C458 C 0.83572 0.55172 0.11139 0.0
N459 N 0.8103 0.55707 0.11762 0.0
N460 N 0.8136 0.56022 0.13205 0.0
C461 C 0.84123 0.55727 0.1354 0.0
C462 C 0.85612 0.55176 0.12246 0.0
C463 C 0.83955 0.5414 0.09579 0.0
H464 H 0.82298 0.52558 0.0931 0.0
H465 H 0.83736 0.55956 0.08808 0.0
H466 H 0.86067 0.53163 0.09403 0.0
O467 O 0.75628 0.51853 0.11826 0.0
O468 O 0.76234 0.52241 0.14258 0.0
H469 H 0.84312 0.53824 0.15692 0.0
H470 H 0.87611 0.55421 0.15097 0.0
C471 C 0.8527 0.55634 0.15087 0.0
H472 H 0.84693 0.57613 0.15673 0.0
H473 H 0.78669 0.52026 0.17048 0.0
O474 O 0.77316 0.54588 0.088 0.0
C475 C 0.75362 0.50868 0.13132 0.0
Co476 Co 0.43801 0.77818 0.11364 0.0
Co477 Co 0.4368 0.784 0.14863 0.0
C478 C 0.39407 0.74891 0.13158 0.0
O479 O 0.40472 0.75505 0.11896 0.0
O480 O 0.40449 0.75862 0.14362 0.0
C481 C 0.43472 0.76578 0.08159 0.0
O482 O 0.41745 0.74489 0.08493 0.0
C483 C 0.41323 0.80096 0.17785 0.0
C484 C 0.45213 0.80301 0.19141 0.0
C485 C 0.4231 0.80731 0.19202 0.0
N486 N 0.43546 0.79339 0.16934 0.0
N487 N 0.45857 0.79441 0.17759 0.0
C488 C 0.3837 0.8041 0.17208 0.0
H489 H 0.38397 0.80706 0.15986 0.0
H490 H 0.3729 0.82229 0.17748 0.0
H491 H 0.37159 0.78454 0.17462 0.0
C492 C 0.43828 0.84009 0.11592 0.0
N493 N 0.43569 0.81445 0.12225 0.0
N494 N 0.43607 0.81726 0.13678 0.0
C495 C 0.43937 0.84489 0.14015 0.0
C496 C 0.44096 0.86023 0.12701 0.0
C497 C 0.44001 0.84489 0.09953 0.0
H498 H 0.42324 0.83249 0.09386 0.0
H499 H 0.43744 0.86765 0.09672 0.0
H500 H 0.46089 0.83742 0.09541 0.0
O501 O 0.47251 0.75908 0.12066 0.0
O502 O 0.47302 0.76358 0.14515 0.0
H503 H 0.4622 0.84275 0.16061 0.0
H504 H 0.45173 0.87816 0.15552 0.0
C505 C 0.44517 0.85561 0.15548 0.0
H506 H 0.42578 0.85325 0.16233 0.0
H507 H 0.47889 0.78979 0.17368 0.0
O508 O 0.44402 0.78172 0.09185 0.0
C509 C 0.48431 0.75489 0.13314 0.0
Co510 Co 0.21929 0.44553 0.11031 0.0
Co511 Co 0.205 0.44404 0.14461 0.0
C512 C 0.24764 0.40457 0.1304 0.0
O513 O 0.2436 0.41416 0.11733 0.0
O514 O 0.23436 0.41454 0.14157 0.0
C515 C 0.22636 0.43429 0.0779 0.0
O516 O 0.23004 0.40727 0.08081 0.0
C517 C 0.18625 0.41858 0.17299 0.0
C518 C 0.17334 0.45661 0.1856 0.0
C519 C 0.17505 0.42735 0.18652 0.0
N520 N 0.19088 0.44163 0.16453 0.0
N521 N 0.18334 0.46428 0.1722 0.0
C522 C 0.19057 0.38886 0.16769 0.0
H523 H 0.18907 0.38795 0.15541 0.0
H524 H 0.1747 0.37441 0.17273 0.0
H525 H 0.21205 0.38166 0.17099 0.0
C526 C 0.15725 0.43944 0.10844 0.0
N527 N 0.18141 0.43996 0.11633 0.0
N528 N 0.17525 0.43967 0.13059 0.0
C529 C 0.14688 0.43907 0.1322 0.0
C530 C 0.13454 0.4389 0.1182 0.0
C531 C 0.15601 0.4411 0.09187 0.0
H532 H 0.16421 0.46198 0.08818 0.0
H533 H 0.16975 0.4244 0.08706 0.0
H534 H 0.13409 0.43819 0.08769 0.0
O535 O 0.23338 0.4815 0.11853 0.0
O536 O 0.22257 0.48197 0.14246 0.0
H537 H 0.13995 0.46228 0.15225 0.0
H538 H 0.10884 0.44429 0.14561 0.0
C539 C 0.13213 0.44273 0.1468 0.0
H540 H 0.13721 0.42449 0.15408 0.0
H541 H 0.18461 0.485 0.16819 0.0
O542 O 0.22171 0.45154 0.08846 0.0
C543 C 0.23329 0.4938 0.13108 0.0
H544 H 0.98023 0.61795 0.40141 0.0
H545 H -0.00261 0.56918 0.40282 0.0
H546 H 0.93077 0.54245 0.37319 0.0
H547 H 0.91316 0.59149 0.37197 0.0
H548 H 0.94123 0.50439 0.39716 0.0
H549 H 0.99192 0.55444 0.35896 0.0
H550 H 0.01988 0.59419 0.34892 0.0
H551 H 0.0862 0.57698 0.38025 0.0
H552 H 0.05836 0.53742 0.39067 0.0
H553 H 0.00126 0.37632 0.37159 0.0
H554 H 0.98086 0.42389 0.37315 0.0
H555 H 0.05172 0.45112 0.39986 0.0
H556 H 0.07248 0.40343 0.39801 0.0
H557 H 0.03883 0.48901 0.37813 0.0
H558 H 0.98917 0.43806 0.41591 0.0
H559 H 0.96113 0.39872 0.42633 0.0
H560 H 0.89315 0.41751 0.39626 0.0
H561 H 0.92098 0.4567 0.38548 0.0
C562 C 0.96886 0.60154 0.39549 0.0
C563 C 0.94533 0.60819 0.38665 0.0
C564 C 0.97876 0.57381 0.39622 0.0
C565 C 0.96544 0.55241 0.38801 0.0
C566 C 0.94124 0.55878 0.37961 0.0
C567 C 0.93131 0.58663 0.37887 0.0
C568 C 0.97806 0.52388 0.38743 0.0
C569 C 0.96242 0.50087 0.39284 0.0
C570 C 0.00594 0.51966 0.3821 0.0
C571 C 0.02294 0.54313 0.37569 0.0
C572 C 0.01237 0.55926 0.36378 0.0
C573 C 0.02821 0.58174 0.35802 0.0
C574 C 0.05478 0.58814 0.36397 0.0
C575 C 0.0656 0.57201 0.37567 0.0
C576 C 0.0498 0.54955 0.3815 0.0
C577 C 0.01252 0.3926 0.37767 0.0
C578 C 0.03842 0.38658 0.38461 0.0
C579 C 0.00078 0.41959 0.37867 0.0
C580 C 0.01465 0.44084 0.38677 0.0
C581 C 0.04071 0.43491 0.3936 0.0
C582 C 0.05249 0.40783 0.39257 0.0
C583 C 0.00203 0.46937 0.38786 0.0
C584 C 0.01767 0.49244 0.38251 0.0
C585 C 0.97417 0.47361 0.39327 0.0
C586 C 0.95728 0.45017 0.3998 0.0
C587 C 0.96833 0.43367 0.41143 0.0
C588 C 0.95246 0.41142 0.41742 0.0
C589 C 0.9254 0.40558 0.41194 0.0
C590 C 0.91413 0.42204 0.40048 0.0
C591 C 0.92993 0.44429 0.39444 0.0
H592 H 0.91314 0.38835 0.41658 0.0
H593 H 0.06701 0.60556 0.35949 0.0
H594 H 0.61991 0.00973 0.40709 0.0
H595 H 0.57186 0.99087 0.40903 0.0
H596 H 0.5395 0.06452 0.38625 0.0
H597 H 0.58783 0.08385 0.38462 0.0
H598 H 0.50442 0.04603 0.40955 0.0
H599 H 0.55231 0.00794 0.36694 0.0
H600 H 0.59177 0.98442 0.3539 0.0
H601 H 0.57938 0.90953 0.38019 0.0
H602 H 0.54015 0.93284 0.3936 0.0
H603 H 0.37757 0.99094 0.37993 0.0
H604 H 0.4251 0.01103 0.3827 0.0
H605 H 0.45208 0.93563 0.40584 0.0
H606 H 0.40425 0.91542 0.40301 0.0
H607 H 0.49004 0.95413 0.38377 0.0
H608 H 0.43975 0.99192 0.4254 0.0
H609 H 0.40008 0.01593 0.43801 0.0
H610 H 0.41639 0.0917 0.41305 0.0
H611 H 0.45588 0.06798 0.40008 0.0
C612 C 0.60244 0.02222 0.40285 0.0
C613 C 0.60731 0.04821 0.39574 0.0
C614 C 0.5751 0.01136 0.40387 0.0
C615 C 0.55231 0.02619 0.39763 0.0
C616 C 0.55692 0.05283 0.39113 0.0
C617 C 0.58437 0.06376 0.39014 0.0
C618 C 0.52414 0.01277 0.39686 0.0
C619 C 0.50114 0.0261 0.40381 0.0
C620 C 0.52019 0.98648 0.38959 0.0
C621 C 0.54348 0.97224 0.38138 0.0
C622 C 0.55813 0.98654 0.37002 0.0
C623 C 0.58045 0.97324 0.36256 0.0
C624 C 0.58812 0.94552 0.36624 0.0
C625 C 0.57343 0.93102 0.37737 0.0
C626 C 0.55115 0.94426 0.3849 0.0
C627 C 0.39379 0.97865 0.3855 0.0
C628 C 0.38767 0.95169 0.39119 0.0
C629 C 0.42074 0.99015 0.38716 0.0
C630 C 0.44188 0.97487 0.39459 0.0
C631 C 0.43591 0.94769 0.40011 0.0
C632 C 0.4088 0.93622 0.39851 0.0
C633 C 0.47026 0.98741 0.39644 0.0
C634 C 0.49332 0.97395 0.38963 0.0
C635 C 0.47419 0.01362 0.40377 0.0
C636 C 0.45065 0.02808 0.41167 0.0
C637 C 0.43475 0.01363 0.42251 0.0
C638 C 0.41231 0.0272 0.42973 0.0
C639 C 0.40569 0.05531 0.42631 0.0
C640 C 0.42154 0.06992 0.41568 0.0
C641 C 0.44397 0.05643 0.40839 0.0
H642 H 0.3883 0.06578 0.43192 0.0
H643 H 0.6054 0.93525 0.36045 0.0
H644 H 0.92464 0.39372 0.59979 0.0
H645 H 0.9412 0.44247 0.5955 0.0
H646 H -0.00148 0.43463 0.63258 0.0
H647 H 0.98272 0.386 0.63655 0.0
H648 H 0.94049 0.48941 0.61255 0.0
H649 H 0.05987 0.46621 0.62491 0.0
H650 H 0.09382 0.42702 0.62142 0.0
H651 H 0.04368 0.39451 0.58552 0.0
H652 H 0.00968 0.43372 0.58862 0.0
H653 H 0.00867 0.61096 0.63748 0.0
H654 H 0.99085 0.56293 0.6339 0.0
H655 H 0.04062 0.5552 0.59388 0.0
H656 H 0.05977 0.60291 0.59795 0.0
H657 H 0.04372 0.50836 0.60875 0.0
H658 H 0.96854 0.5665 0.59238 0.0
H659 H 0.93407 0.60572 0.59327 0.0
H660 H 0.89479 0.56873 0.63164 0.0
H661 H 0.92931 0.5295 0.63113 0.0
C662 C 0.94069 0.40262 0.607 0.0
C663 C 0.95226 0.38642 0.61857 0.0
C664 C 0.95007 0.43033 0.60458 0.0
C665 C 0.9713 0.44195 0.61361 0.0
C666 C 0.9824 0.42589 0.62535 0.0
C667 C 0.97312 0.39828 0.62773 0.0
C668 C 0.98208 0.4709 0.61097 0.0
C669 C 0.96301 0.49363 0.6116 0.0
C670 C 0.01139 0.47622 0.6092 0.0
C671 C 0.03212 0.45286 0.60707 0.0
C672 C 0.05618 0.45082 0.6162 0.0
C673 C 0.07542 0.42857 0.61431 0.0
C674 C 0.07088 0.40826 0.60328 0.0
C675 C 0.04713 0.4102 0.59409 0.0
C676 C 0.02786 0.43243 0.59592 0.0
C677 C 0.01624 0.59879 0.6281 0.0
C678 C 0.03579 0.61039 0.61807 0.0
C679 C 0.00569 0.57155 0.62591 0.0
C680 C 0.01397 0.5557 0.61345 0.0
C681 C 0.03383 0.56714 0.60351 0.0
C682 C 0.04467 0.59431 0.60581 0.0
C683 C 0.00225 0.52698 0.61108 0.0
C684 C 0.02115 0.50425 0.60947 0.0
C685 C 0.97271 0.52171 0.61148 0.0
C686 C 0.95164 0.54511 0.61176 0.0
C687 C 0.95266 0.5668 0.60106 0.0
C688 C 0.93309 0.58904 0.6015 0.0
C689 C 0.91227 0.58973 0.61252 0.0
C690 C 0.91093 0.56816 0.62311 0.0
C691 C 0.93047 0.54589 0.62274 0.0
H692 H 0.89715 0.60698 0.61284 0.0
H693 H 0.08577 0.39103 0.60185 0.0
H694 H 0.62086 0.98695 0.60869 0.0
H695 H 0.57279 0.0055 0.60577 0.0
H696 H 0.53997 0.9353 0.63122 0.0
H697 H 0.58825 0.91633 0.63389 0.0
H698 H 0.50572 0.94978 0.60687 0.0
H699 H 0.55222 0.99498 0.64816 0.0
H700 H 0.59098 0.02125 0.66026 0.0
H701 H 0.57769 0.09144 0.63075 0.0
H702 H 0.53915 0.06534 0.61828 0.0
H703 H 0.37975 0.00358 0.63766 0.0
H704 H 0.42774 0.98522 0.63392 0.0
H705 H 0.44829 0.05833 0.60722 0.0
H706 H 0.39988 0.07671 0.61092 0.0
H707 H 0.48912 0.04438 0.62942 0.0
H708 H 0.43878 0.00053 0.58982 0.0
H709 H 0.39944 0.97411 0.57834 0.0
H710 H 0.41914 0.90141 0.60505 0.0
H711 H 0.45831 0.92757 0.61691 0.0
C712 C 0.60328 0.97518 0.61336 0.0
C713 C 0.60797 0.95021 0.62145 0.0
C714 C 0.57594 0.98583 0.61176 0.0
C715 C 0.55298 0.97185 0.61838 0.0
C716 C 0.55749 0.9463 0.626 0.0
C717 C 0.58492 0.9356 0.62759 0.0
C718 C 0.52465 0.98506 0.61833 0.0
C719 C 0.50198 0.97036 0.61187 0.0
C720 C 0.5201 0.01221 0.62457 0.0
C721 C 0.54301 0.02808 0.63218 0.0
C722 C 0.55771 0.01592 0.64417 0.0
C723 C 0.57962 0.03079 0.6511 0.0
C724 C 0.58684 0.05797 0.64625 0.0
C725 C 0.5721 0.07036 0.63448 0.0
C726 C 0.55022 0.05554 0.62747 0.0
C727 C 0.39464 0.01574 0.63108 0.0
C728 C 0.38658 0.04157 0.62467 0.0
C729 C 0.42184 0.00521 0.62887 0.0
C730 C 0.44133 0.02037 0.62021 0.0
C731 C 0.4334 0.04639 0.61391 0.0
C732 C 0.40597 0.05683 0.61601 0.0
C733 C 0.47012 0.00899 0.6181 0.0
C734 C 0.49289 0.02399 0.6242 0.0
C735 C 0.4747 0.98211 0.61158 0.0
C736 C 0.45138 0.96611 0.60434 0.0
C737 C 0.4346 0.97898 0.59334 0.0
C738 C 0.41234 0.96404 0.58675 0.0
C739 C 0.40676 0.93612 0.59098 0.0
C740 C 0.42348 0.92305 0.60179 0.0
C741 C 0.44574 0.93792 0.60844 0.0
H742 H 0.38951 0.92459 0.58586 0.0
H743 H 0.60381 0.06946 0.65164 0.0
H744 H 0.55744 0.89696 0.90686 0.0
H745 H 0.53324 0.94283 0.9092 0.0
H746 H 0.47049 0.91557 0.87742 0.0
H747 H 0.49479 0.86995 0.87502 0.0
H748 H 0.48822 0.96809 0.87155 0.0
H749 H 0.45482 0.91749 0.91389 0.0
H750 H 0.45899 0.88881 0.93664 0.0
H751 H 0.50521 0.95593 0.95779 0.0
H752 H 0.50172 0.98487 0.93507 0.0
H753 H 0.40265 0.08867 0.88368 0.0
H754 H 0.4143 0.03795 0.88485 0.0
H755 H 0.48698 0.05697 0.9121 0.0
H756 H 0.4758 0.10742 0.91069 0.0
H757 H 0.45843 0.00642 0.92044 0.0
H758 H 0.49678 0.05355 0.87685 0.0
H759 H 0.4923 0.08244 0.85418 0.0
H760 H 0.43565 0.02087 0.83549 0.0
H761 H 0.43946 0.99181 0.85818 0.0
C762 C 0.53856 0.90099 0.90037 0.0
C763 C 0.52802 0.88034 0.89067 0.0
C764 C 0.52467 0.92697 0.90176 0.0
C765 C 0.49991 0.93239 0.89359 0.0
C766 C 0.48956 0.91177 0.8838 0.0
C767 C 0.50347 0.88586 0.88239 0.0
C768 C 0.48511 0.95983 0.89503 0.0
C769 C 0.48122 0.97621 0.8822 0.0
C770 C 0.47629 0.9705 0.90896 0.0
C771 C 0.4782 0.95328 0.92272 0.0
C772 C 0.46606 0.92607 0.92335 0.0
C773 C 0.46828 0.90977 0.93625 0.0
C774 C 0.48241 0.92052 0.94865 0.0
C775 C 0.49429 0.94762 0.94818 0.0
C776 C 0.49217 0.964 0.9353 0.0
C777 C 0.42078 0.08182 0.89012 0.0
C778 C 0.43842 0.10173 0.89704 0.0
C779 C 0.42733 0.053 0.89083 0.0
C780 C 0.45156 0.0439 0.8985 0.0
C781 C 0.4681 0.06364 0.90623 0.0
C782 C 0.46169 0.0924 0.90542 0.0
C783 C 0.46185 0.01456 0.89701 0.0
C784 C 0.46501 -0.00205 0.90979 0.0
C785 C 0.46994 0.00357 0.88304 0.0
C786 C 0.46815 0.02068 0.86927 0.0
C787 C 0.48323 0.04627 0.86794 0.0
C788 C 0.48084 0.06265 0.85508 0.0
C789 C 0.46364 0.05354 0.84341 0.0
C790 C 0.44891 0.02793 0.84455 0.0
C791 C 0.45119 0.01149 0.8574 0.0
H792 H 0.46177 0.06628 0.83348 0.0
H793 H 0.48411 0.90788 0.95863 0.0
H794 H 0.87236 0.49136 0.87141 0.0
H795 H 0.91925 0.51329 0.8725 0.0
H796 H 0.94696 0.44839 0.90301 0.0
H797 H 0.89955 0.42681 0.90216 0.0
H798 H 0.9652 0.4997 0.91146 0.0
H799 H 0.9645 0.44572 0.86632 0.0
H800 H 0.94567 0.43039 0.84211 0.0
H801 H 0.95448 0.51504 0.82526 0.0
H802 H 0.97293 0.531 0.84946 0.0
H803 H 0.11353 0.50781 0.90068 0.0
H804 H 0.06359 0.49483 0.90239 0.0
H805 H 0.04152 0.56584 0.87452 0.0
H806 H 0.0918 0.57922 0.87298 0.0
H807 H 0.01932 0.51501 0.8649 0.0
H808 H 0.02376 0.56766 0.91019 0.0
H809 H 0.0434 0.58147 0.93447 0.0
H810 H 0.02902 0.4974 0.95106 0.0
H811 H 0.00968 0.48294 0.9268 0.0
C812 C 0.88862 0.48171 0.87822 0.0
C813 C 0.88289 0.45716 0.88645 0.0
C814 C 0.91528 0.49423 0.87888 0.0
C815 C 0.93666 0.48215 0.88763 0.0
C816 C 0.93073 0.45792 0.89613 0.0
C817 C 0.90388 0.44553 0.89558 0.0
C818 C 0.96534 0.49463 0.8877 0.0
C819 C 0.97719 0.50279 0.90131 0.0
C820 C 0.98058 0.49925 0.87439 0.0
C821 C 0.96983 0.48961 0.85976 0.0
C822 C 0.96224 0.46112 0.85749 0.0
C823 C 0.95165 0.45231 0.84376 0.0
C824 C 0.94881 0.47174 0.83216 0.0
C825 C 0.95665 0.50002 0.83426 0.0
C826 C 0.96718 0.50896 0.84798 0.0
C827 C 0.09795 0.52109 0.89526 0.0
C828 C 0.10627 0.54469 0.88685 0.0
C829 C 0.06949 0.51362 0.89621 0.0
C830 C 0.04894 0.52959 0.88871 0.0
C831 C 0.05715 0.5534 0.88043 0.0
C832 C 0.0857 0.561 0.87956 0.0
C833 C 0.01924 0.51993 0.88866 0.0
C834 C 0.00721 0.5122 0.87504 0.0
C835 C 0.004 0.51548 0.90197 0.0
C836 C 0.01545 0.52416 0.91662 0.0
C837 C 0.02498 0.55204 0.91897 0.0
C838 C 0.03603 0.56 0.93274 0.0
C839 C 0.03751 0.54031 0.94429 0.0
C840 C 0.02787 0.51263 0.9421 0.0
C841 C 0.01683 0.50455 0.92835 0.0
H842 H 0.04607 0.54651 0.95494 0.0
H843 H 0.94061 0.46488 0.82155 0.0
H844 H 0.41733 0.90819 0.13831 0.0
H845 H 0.43562 0.95674 0.13618 0.0
H846 H 0.5052 0.92625 0.10945 0.0
H847 H 0.48736 0.87779 0.11191 0.0
H848 H 0.52344 0.96082 0.13075 0.0
H849 H 0.45163 0.9628 0.09361 0.0
H850 H 0.40384 0.95628 0.08314 0.0
H851 H 0.37024 0.01674 0.11411 0.0
H852 H 0.41779 0.02332 0.12493 0.0
H853 H 0.56995 0.10085 0.11185 0.0
H854 H 0.55193 0.05216 0.10922 0.0
H855 H 0.48287 0.07198 0.13889 0.0
H856 H 0.50074 0.12043 0.14146 0.0
H857 H 0.46578 0.04251 0.11371 0.0
H858 H 0.53768 0.0372 0.15185 0.0
H859 H 0.58579 0.04359 0.16196 0.0
H860 H 0.61953 0.98898 0.12817 0.0
H861 H 0.57163 0.98261 0.11772 0.0
C862 C 0.43642 0.91205 0.13194 0.0
C863 C 0.4509 0.88956 0.12518 0.0
C864 C 0.44675 0.93966 0.13065 0.0
C865 C 0.47159 0.94505 0.12251 0.0
C866 C 0.48595 0.92252 0.11571 0.0
C867 C 0.47566 0.89497 0.11703 0.0
C868 C 0.48331 0.97403 0.12165 0.0
C869 C 0.51101 0.97861 0.12677 0.0
C870 C 0.4669 -0.00278 0.11666 0.0
C871 C 0.43825 0.99336 0.11017 0.0
C872 C 0.43402 0.97453 0.09828 0.0
C873 C 0.40697 0.97085 0.09226 0.0
C874 C 0.38401 0.98603 0.09798 0.0
C875 C 0.38805 0.00497 0.1097 0.0
C876 C 0.41505 0.00871 0.11577 0.0
C877 C 0.55098 0.0946 0.11778 0.0
C878 C 0.53687 0.11391 0.12701 0.0
C879 C 0.54073 0.06698 0.11629 0.0
C880 C 0.5162 0.05858 0.12394 0.0
C881 C 0.50183 0.07813 0.13292 0.0
C882 C 0.51215 0.1056 0.13448 0.0
C883 C 0.50569 0.02922 0.12296 0.0
C884 C 0.47825 0.02461 0.11752 0.0
C885 C 0.52236 0.00597 0.12758 0.0
C886 C 0.55113 0.0097 0.1339 0.0
C887 C 0.5554 0.02676 0.1465 0.0
C888 C 0.58262 0.03034 0.1523 0.0
C889 C 0.60572 0.01677 0.14569 0.0
C890 C 0.60163 -0.00047 0.13327 0.0
C891 C 0.57445 0.99591 0.1274 0.0
H892 H 0.62678 0.01957 0.1502 0.0
H893 H 0.36308 0.98317 0.0933 0.0
H894 H 0.90092 0.57115 0.10646 0.0
H895 H 0.9476 0.54859 0.10381 0.0
H896 H 0.92068 0.48085 0.13279 0.0
H897 H 0.8744 0.50365 0.13561 0.0
H898 H 0.97223 0.49795 0.13986 0.0
H899 H 0.92374 0.47198 0.09534 0.0
H900 H 0.89637 0.48061 0.07251 0.0
H901 H 0.96497 0.52981 0.05472 0.0
H902 H 0.9926 0.52191 0.07758 0.0
H903 H 0.08816 0.40854 0.12642 0.0
H904 H 0.0385 0.42368 0.12452 0.0
H905 H 0.06465 0.49845 0.10059 0.0
H906 H 0.11416 0.48352 0.10261 0.0
H907 H 0.01261 0.47509 0.09039 0.0
H908 H 0.05855 0.50422 0.13609 0.0
H909 H 0.08576 0.49521 0.15897 0.0
H910 H 0.02087 0.43853 0.17431 0.0
H911 H 0.99342 0.44699 0.15143 0.0
C912 C 0.90525 0.55157 0.11231 0.0
C913 C 0.88452 0.53918 0.12136 0.0
C914 C 0.93168 0.53862 0.11073 0.0
C915 C 0.93743 0.5129 0.11799 0.0
C916 C 0.91668 0.5007 0.12713 0.0
C917 C 0.89038 0.51372 0.12877 0.0
C918 C 0.96517 0.49874 0.11623 0.0
C919 C 0.98082 0.49256 0.12905 0.0
C920 C 0.97652 0.4921 0.1021 0.0
C921 C 0.96015 0.49655 0.08824 0.0
C922 C 0.93293 0.48481 0.0866 0.0
C923 C 0.91737 0.48955 0.07365 0.0
C924 C 0.9289 0.50579 0.06218 0.0
C925 C 0.95606 0.51725 0.06362 0.0
C926 C 0.97169 0.51264 0.07658 0.0
C927 C 0.08309 0.42785 0.12049 0.0
C928 C 0.10471 0.44503 0.11475 0.0
C929 C 0.05488 0.43644 0.11939 0.0
C930 C 0.0481 0.4623 0.11255 0.0
C931 C 0.06953 0.47839 0.10585 0.0
C932 C 0.09773 0.46987 0.10702 0.0
C933 C 0.01941 0.47435 0.11401 0.0
C934 C 0.00374 0.48026 0.10117 0.0
C935 C 0.00789 0.48066 0.12811 0.0
C936 C 0.02408 0.47602 0.142 0.0
C937 C 0.05016 0.48973 0.14432 0.0
C938 C 0.0656 0.48476 0.15729 0.0
C939 C 0.05509 0.46625 0.16807 0.0
C940 C 0.02902 0.45282 0.16594 0.0
C941 C 0.01348 0.45772 0.15298 0.0
H942 H 0.06713 0.46236 0.17808 0.0
H943 H 0.91681 0.50943 0.05216 0.0
H944 H 0.04822 0.34061 0.30103 0.0
H945 H 0.06955 0.3575 0.27805 0.0
H946 H 0.14176 0.30314 0.28527 0.0
H947 H 0.12054 0.28641 0.30856 0.0
H948 H 0.15875 0.35311 0.27473 0.0
H949 H 0.0902 0.28517 0.26002 0.0
H950 H 0.04365 0.2615 0.25934 0.0
H951 H 0.00562 0.33707 0.24181 0.0
H952 H 0.05188 0.36135 0.24259 0.0
H953 H 0.20058 0.38052 0.19885 0.0
H954 H 0.18543 0.3544 0.22107 0.0
H955 H 0.1135 0.41013 0.2256 0.0
H956 H 0.1285 0.43621 0.2035 0.0
H957 H 0.09998 0.35237 0.2291 0.0
H958 H 0.16937 0.42077 0.2465 0.0
H959 H 0.21667 0.44297 0.24698 0.0
H960 H 0.25419 0.36318 0.25875 0.0
H961 H 0.20711 0.34041 0.25814 0.0
C962 C 0.0687 0.33228 0.29776 0.0
C963 C 0.08273 0.31224 0.30664 0.0
C964 C 0.08084 0.34188 0.28457 0.0
C965 C 0.10703 0.33118 0.27973 0.0
C966 C 0.1215 0.31164 0.28874 0.0
C967 C 0.10942 0.30221 0.3021 0.0
C968 C 0.11885 0.34047 0.26519 0.0
C969 C 0.1461 0.35241 0.2647 0.0
C970 C 0.10238 0.33971 0.25204 0.0
C971 C 0.07451 0.32514 0.25145 0.0
C972 C 0.07188 0.29681 0.25611 0.0
C973 C 0.04555 0.28327 0.2557 0.0
C974 C 0.02169 0.29779 0.25056 0.0
C975 C 0.02413 0.32586 0.24579 0.0
C976 C 0.05041 0.33951 0.2462 0.0
C977 C 0.18129 0.38686 0.20445 0.0
C978 C 0.16552 0.4102 0.19936 0.0
C979 C 0.17281 0.3721 0.21721 0.0
C980 C 0.14837 0.38038 0.22499 0.0
C981 C 0.13238 0.40335 0.21974 0.0
C982 C 0.14102 0.41828 0.20715 0.0
C983 C 0.13943 0.36566 0.23879 0.0
C984 C 0.11274 0.35264 0.2391 0.0
C985 C 0.15655 0.36512 0.25168 0.0
C986 C 0.18479 0.37883 0.2521 0.0
C987 C 0.18774 0.40791 0.24906 0.0
C988 C 0.2145 0.4206 0.24938 0.0
C989 C 0.23843 0.40447 0.25284 0.0
C990 C 0.23564 0.37563 0.25604 0.0
C991 C 0.20893 0.36283 0.25571 0.0
H992 H 0.25913 0.41434 0.25309 0.0
H993 H 0.00132 0.28727 0.25025 0.0
H994 H 0.55012 0.14996 0.21312 0.0
H995 H 0.57309 0.13543 0.23611 0.0
H996 H 0.63697 0.19975 0.2299 0.0
H997 H 0.61411 0.2142 0.20664 0.0
H998 H 0.66047 0.15171 0.24004 0.0
H999 H 0.58339 0.20992 0.25475 0.0
H1000 H 0.53414 0.22736 0.25521 0.0
H1001 H 0.50573 0.14705 0.27194 0.0
H1002 H 0.55476 0.12896 0.27139 0.0
H1003 H 0.70302 0.12479 0.31597 0.0
H1004 H 0.68557 0.15085 0.29419 0.0
H1005 H 0.62111 0.08733 0.28757 0.0
H1006 H 0.63841 0.06132 0.30918 0.0
H1007 H 0.60092 0.14346 0.28526 0.0
H1008 H 0.6785 0.08467 0.26735 0.0
H1009 H 0.72815 0.06835 0.26697 0.0
H1010 H 0.7561 0.15277 0.25686 0.0
H1011 H 0.7066 0.16966 0.25739 0.0
C1012 C 0.56914 0.16095 0.2166 0.0
C1013 C 0.58039 0.18311 0.20803 0.0
C1014 C 0.58219 0.15271 0.22979 0.0
C1015 C 0.60646 0.16685 0.2349 0.0
C1016 C 0.61823 0.18857 0.22619 0.0
C1017 C 0.60525 0.19669 0.21286 0.0
C1018 C 0.61906 0.15889 0.24943 0.0
C1019 C 0.64759 0.15049 0.25 0.0
C1020 C 0.6023 0.1572 0.26246 0.0
C1021 C 0.57276 0.16803 0.26294 0.0
C1022 C 0.56662 0.19591 0.25845 0.0
C1023 C 0.53874 0.20592 0.25873 0.0
C1024 C 0.51682 0.18831 0.26358 0.0
C1025 C 0.52274 0.16067 0.26819 0.0
C1026 C 0.55058 0.15054 0.26791 0.0
C1027 C 0.68484 0.1167 0.31 0.0
C1028 C 0.67188 0.09118 0.31433 0.0
C1029 C 0.67507 0.13145 0.29751 0.0
C1030 C 0.65208 0.12097 0.28927 0.0
C1031 C 0.63882 0.09582 0.2938 0.0
C1032 C 0.64879 0.08094 0.3061 0.0
C1033 C 0.64195 0.13552 0.2757 0.0
C1034 C 0.61388 0.14522 0.27535 0.0
C1035 C 0.65921 0.13867 0.26296 0.0
C1036 C 0.68891 0.12849 0.2626 0.0
C1037 C 0.69526 0.0998 0.26518 0.0
C1038 C 0.72336 0.09043 0.26491 0.0
C1039 C 0.74527 0.10953 0.26195 0.0
C1040 C 0.73911 0.13802 0.2592 0.0
C1041 C 0.71104 0.14749 0.25947 0.0
H1042 H 0.76702 0.10224 0.26174 0.0
H1043 H 0.49524 0.1961 0.26379 0.0
H1044 H 0.83958 0.62326 0.18897 0.0
H1045 H 0.8571 0.64737 0.21111 0.0
H1046 H 0.80746 0.59152 0.23868 0.0
H1047 H 0.78902 0.568 0.21655 0.0
H1048 H 0.80622 0.64468 0.24947 0.0
H1049 H 0.87742 0.57913 0.23263 0.0
H1050 H 0.91034 0.55788 0.21451 0.0
H1051 H 0.95357 0.6375 0.21007 0.0
H1052 H 0.92063 0.65933 0.22802 0.0
H1053 H 0.88305 0.65549 0.31746 0.0
H1054 H 0.85942 0.63987 0.2948 0.0
H1055 H 0.91061 0.6976 0.26914 0.0
H1056 H 0.9341 0.71358 0.29179 0.0
H1057 H 0.91034 0.64599 0.25699 0.0
H1058 H 0.84028 0.71074 0.27526 0.0
H1059 H 0.8075 0.73108 0.29373 0.0
H1060 H 0.76228 0.65224 0.29592 0.0
H1061 H 0.79505 0.63128 0.27761 0.0
C1062 C 0.83165 0.61666 0.19968 0.0
C1063 C 0.81252 0.59396 0.20095 0.0
C1064 C 0.84205 0.63022 0.21237 0.0
C1065 C 0.83382 0.62108 0.22658 0.0
C1066 C 0.8141 0.59898 0.22785 0.0
C1067 C 0.80369 0.58546 0.21518 0.0
C1068 C 0.84675 0.6335 0.24015 0.0
C1069 C 0.82897 0.64477 0.25117 0.0
C1070 C 0.87647 0.63405 0.24229 0.0
C1071 C 0.89637 0.62094 0.23154 0.0
C1072 C 0.89381 0.59216 0.2277 0.0
C1073 C 0.91249 0.58 0.21748 0.0
C1074 C 0.93398 0.59635 0.21111 0.0
C1075 C 0.93688 0.62488 0.21499 0.0
C1076 C 0.91822 0.63715 0.22519 0.0
C1077 C 0.88872 0.66552 0.30709 0.0
C1078 C 0.91005 0.68629 0.30651 0.0
C1079 C 0.87531 0.65638 0.2941 0.0
C1080 C 0.88299 0.6678 0.28026 0.0
C1081 C 0.90427 0.68853 0.27967 0.0
C1082 C 0.91766 0.69765 0.29264 0.0
C1083 C 0.86983 0.65722 0.26634 0.0
C1084 C 0.88759 0.64616 0.25525 0.0
C1085 C 0.84011 0.65678 0.2642 0.0
C1086 C 0.82029 0.66936 0.27516 0.0
C1087 C 0.82348 0.69766 0.27977 0.0
C1088 C 0.80488 0.70932 0.29019 0.0
C1089 C 0.78286 0.69294 0.29602 0.0
C1090 C 0.77936 0.66489 0.29141 0.0
C1091 C 0.79793 0.65312 0.281 0.0
H1092 H 0.76848 0.702 0.30409 0.0
H1093 H 0.94843 0.5869 0.2032 0.0
H1094 H 0.441 0.84689 0.21161 0.0
H1095 H 0.41782 0.86268 0.23434 0.0
H1096 H 0.34751 0.80675 0.22551 0.0
H1097 H 0.37051 0.79131 0.20244 0.0
H1098 H 0.32826 0.85501 0.23645 0.0
H1099 H 0.39885 0.78948 0.25141 0.0
H1100 H 0.44624 0.76759 0.25252 0.0
H1101 H 0.48041 0.84395 0.27123 0.0
H1102 H 0.4333 0.86647 0.27003 0.0
H1103 H 0.28358 0.87676 0.31291 0.0
H1104 H 0.30045 0.85209 0.29051 0.0
H1105 H 0.36759 0.91341 0.28585 0.0
H1106 H 0.35072 0.93819 0.30798 0.0
H1107 H 0.38496 0.85516 0.2828 0.0
H1108 H 0.31308 0.92095 0.26508 0.0
H1109 H 0.26473 0.94075 0.26433 0.0
H1110 H 0.23173 0.8595 0.25165 0.0
H1111 H 0.27988 0.83912 0.25254 0.0
C1112 C 0.42051 0.83806 0.21446 0.0
C1113 C 0.40754 0.81795 0.2052 0.0
C1114 C 0.40733 0.84698 0.22751 0.0
C1115 C 0.38116 0.83547 0.23187 0.0
C1116 C 0.36773 0.8159 0.22244 0.0
C1117 C 0.38082 0.80719 0.20921 0.0
C1118 C 0.3683 0.84381 0.24634 0.0
C1119 C 0.3405 0.8545 0.24662 0.0
C1120 C 0.38416 0.84322 0.2597 0.0
C1121 C 0.41255 0.82973 0.26054 0.0
C1122 C 0.4165 0.80168 0.25567 0.0
C1123 C 0.44332 0.78915 0.25633 0.0
C1124 C 0.46633 0.80438 0.26192 0.0
C1125 C 0.46257 0.83217 0.2669 0.0
C1126 C 0.4358 0.84482 0.26625 0.0
C1127 C 0.30214 0.8847 0.30719 0.0
C1128 C 0.31598 0.90926 0.31223 0.0
C1129 C 0.31161 0.87074 0.29436 0.0
C1130 C 0.33526 0.88096 0.28653 0.0
C1131 C 0.34936 0.90514 0.29174 0.0
C1132 C 0.33964 0.91932 0.30435 0.0
C1133 C 0.34538 0.86699 0.27274 0.0
C1134 C 0.37265 0.8552 0.27263 0.0
C1135 C 0.32889 0.86616 0.25965 0.0
C1136 C 0.3 0.87844 0.25906 0.0
C1137 C 0.29547 0.90725 0.26228 0.0
C1138 C 0.26812 0.91859 0.26179 0.0
C1139 C 0.24516 0.90137 0.25799 0.0
C1140 C 0.24952 0.87279 0.25462 0.0
C1141 C 0.27684 0.86134 0.25511 0.0
H1142 H 0.224 0.91019 0.25762 0.0
H1143 H 0.48708 0.79465 0.26241 0.0
H1144 H 0.15207 0.61428 0.81882 0.0
H1145 H 0.13501 0.63999 0.79704 0.0
H1146 H 0.19055 0.59076 0.76908 0.0
H1147 H 0.20835 0.56563 0.79085 0.0
H1148 H 0.189 0.64557 0.76012 0.0
H1149 H 0.12151 0.57275 0.77319 0.0
H1150 H 0.0887 0.54762 0.78995 0.0
H1151 H 0.03948 0.62353 0.79517 0.0
H1152 H 0.07226 0.64922 0.77859 0.0
H1153 H 0.11973 0.65497 0.69004 0.0
H1154 H 0.14234 0.64042 0.71319 0.0
H1155 H 0.08163 0.68971 0.73803 0.0
H1156 H 0.05899 0.70436 0.71489 0.0
H1157 H 0.08613 0.63858 0.74943 0.0
H1158 H 0.15146 0.71064 0.73467 0.0
H1159 H 0.18409 0.73561 0.71776 0.0
H1160 H 0.23722 0.66184 0.71556 0.0
H1161 H 0.20467 0.63626 0.73229 0.0
C1162 C 0.16132 0.60951 0.80813 0.0
C1163 C 0.18186 0.58812 0.80662 0.0
C1164 C 0.15125 0.62399 0.79564 0.0
C1165 C 0.16131 0.61713 0.7814 0.0
C1166 C 0.18249 0.59646 0.77994 0.0
C1167 C 0.19253 0.58201 0.79239 0.0
C1168 C 0.14871 0.63013 0.7679 0.0
C1169 C 0.16654 0.6439 0.75771 0.0
C1170 C 0.11931 0.62844 0.7649 0.0
C1171 C 0.0995 0.61298 0.77479 0.0
C1172 C 0.10381 0.58413 0.77801 0.0
C1173 C 0.0852 0.56978 0.78746 0.0
C1174 C 0.06207 0.58399 0.79366 0.0
C1175 C 0.05744 0.61257 0.79038 0.0
C1176 C 0.07602 0.62703 0.78095 0.0
C1177 C 0.11168 0.66337 0.70037 0.0
C1178 C 0.08788 0.68128 0.70059 0.0
C1179 C 0.12454 0.65489 0.71365 0.0
C1180 C 0.11391 0.66423 0.72738 0.0
C1181 C 0.09027 0.68226 0.72759 0.0
C1182 C 0.07736 0.69063 0.71435 0.0
C1183 C 0.12642 0.654 0.74155 0.0
C1184 C 0.10856 0.6406 0.75186 0.0
C1185 C 0.15576 0.65608 0.74464 0.0
C1186 C 0.17548 0.67145 0.73464 0.0
C1187 C 0.16999 0.69966 0.7305 0.0
C1188 C 0.18849 0.71394 0.72095 0.0
C1189 C 0.21268 0.7003 0.71557 0.0
C1190 C 0.21846 0.67237 0.71974 0.0
C1191 C 0.2 0.65798 0.72926 0.0
H1192 H 0.22697 0.71139 0.70818 0.0
H1193 H 0.04768 0.57285 0.80098 0.0
H1194 H 0.44015 0.14009 0.80827 0.0
H1195 H 0.41669 0.12682 0.78524 0.0
H1196 H 0.35041 0.18754 0.79397 0.0
H1197 H 0.37393 0.20097 0.81723 0.0
H1198 H 0.32914 0.13795 0.78246 0.0
H1199 H 0.40069 0.20401 0.76936 0.0
H1200 H 0.44835 0.22538 0.76925 0.0
H1201 H 0.48257 0.14999 0.74946 0.0
H1202 H 0.43518 0.12797 0.74967 0.0
H1203 H 0.28646 0.11506 0.70608 0.0
H1204 H 0.30191 0.14035 0.72852 0.0
H1205 H 0.37295 0.08337 0.73262 0.0
H1206 H 0.3577 0.0582 0.71035 0.0
H1207 H 0.38757 0.14031 0.73666 0.0
H1208 H 0.3161 0.07293 0.75317 0.0
H1209 H 0.26811 0.05225 0.75335 0.0
H1210 H 0.23314 0.13258 0.76627 0.0
H1211 H 0.28094 0.15383 0.76596 0.0
C1212 C 0.42048 0.15053 0.80537 0.0
C1213 C 0.40886 0.17149 0.81463 0.0
C1214 C 0.40712 0.14298 0.79216 0.0
C1215 C 0.38205 0.15654 0.78773 0.0
C1216 C 0.36977 0.17683 0.79717 0.0
C1217 C 0.38314 0.18434 0.81051 0.0
C1218 C 0.36944 0.1497 0.77304 0.0
C1219 C 0.34169 0.13904 0.77239 0.0
C1220 C 0.38581 0.15106 0.75988 0.0
C1221 C 0.41437 0.16427 0.75961 0.0
C1222 C 0.4184 0.19191 0.76507 0.0
C1223 C 0.44537 0.20415 0.76498 0.0
C1224 C 0.46848 0.18904 0.75937 0.0
C1225 C 0.46465 0.16167 0.75381 0.0
C1226 C 0.43772 0.14931 0.75389 0.0
C1227 C 0.30562 0.10829 0.71164 0.0
C1228 C 0.32104 0.08483 0.7064 0.0
C1229 C 0.31427 0.12258 0.72451 0.0
C1230 C 0.33856 0.11369 0.73224 0.0
C1231 C 0.35421 0.09064 0.72682 0.0
C1232 C 0.34541 0.07621 0.71412 0.0
C1233 C 0.34771 0.12769 0.74618 0.0
C1234 C 0.37484 0.13976 0.74668 0.0
C1235 C 0.33068 0.12784 0.75912 0.0
C1236 C 0.30202 0.11505 0.75935 0.0
C1237 C 0.29814 0.08624 0.75591 0.0
C1238 C 0.27099 0.0744 0.75607 0.0
C1239 C 0.24758 0.09112 0.75977 0.0
C1240 C 0.25129 0.11968 0.76337 0.0
C1241 C 0.2784 0.13163 0.76321 0.0
H1242 H 0.22657 0.08191 0.75989 0.0
H1243 H 0.48935 0.19855 0.75931 0.0
H1244 H 0.84447 0.43876 0.80237 0.0
H1245 H 0.85984 0.41597 0.7795 0.0
H1246 H 0.80006 0.34825 0.78681 0.0
H1247 H 0.78464 0.37103 0.80996 0.0
H1248 H 0.85001 0.32789 0.7761 0.0
H1249 H 0.78492 0.39963 0.76192 0.0
H1250 H 0.76352 0.44729 0.76153 0.0
H1251 H 0.84042 0.48179 0.74356 0.0
H1252 H 0.86245 0.4344 0.74404 0.0
H1253 H 0.87657 0.28579 0.69998 0.0
H1254 H 0.85084 0.30107 0.72232 0.0
H1255 H 0.90767 0.37209 0.72689 0.0
H1256 H 0.93325 0.35705 0.70468 0.0
H1257 H 0.85097 0.38693 0.73053 0.0
H1258 H 0.9169 0.31491 0.7477 0.0
H1259 H 0.93738 0.26683 0.74809 0.0
H1260 H 0.85632 0.23217 0.75992 0.0
H1261 H 0.83527 0.28006 0.7594 0.0
C1262 C 0.83464 0.41893 0.79918 0.0
C1263 C 0.81338 0.40668 0.80802 0.0
C1264 C 0.8434 0.40595 0.78606 0.0
C1265 C 0.83074 0.38066 0.78125 0.0
C1266 C 0.81009 0.3678 0.79027 0.0
C1267 C 0.80141 0.38075 0.80355 0.0
C1268 C 0.83894 0.36834 0.76665 0.0
C1269 C 0.84967 0.3406 0.76607 0.0
C1270 C 0.83861 0.3849 0.75353 0.0
C1271 C 0.82539 0.41346 0.7531 0.0
C1272 C 0.79733 0.41741 0.75797 0.0
C1273 C 0.78508 0.44438 0.75772 0.0
C1274 C 0.80061 0.46756 0.75255 0.0
C1275 C 0.82842 0.46381 0.74757 0.0
C1276 C 0.84078 0.43689 0.7478 0.0
C1277 C 0.88324 0.3049 0.70562 0.0
C1278 C 0.90673 0.32042 0.70049 0.0
C1279 C 0.8687 0.31345 0.71845 0.0
C1280 C 0.87738 0.3377 0.72628 0.0
C1281 C 0.90055 0.35337 0.72101 0.0
C1282 C 0.91521 0.34469 0.70835 0.0
C1283 C 0.86284 0.3469 0.74011 0.0
C1284 C 0.85084 0.37408 0.74051 0.0
C1285 C 0.86177 0.32972 0.75298 0.0
C1286 C 0.87444 0.301 0.75333 0.0
C1287 C 0.90339 0.29701 0.75025 0.0
C1288 C 0.91511 0.2698 0.75052 0.0
C1289 C 0.89814 0.24645 0.75397 0.0
C1290 C 0.86942 0.25027 0.75721 0.0
C1291 C 0.85759 0.27743 0.75694 0.0
H1292 H 0.90725 0.2254 0.75418 0.0
H1293 H 0.79109 0.48843 0.75237 0.0
H1294 H 0.61843 0.8367 0.8226 0.0
H1295 H 0.64173 0.85397 0.80022 0.0
H1296 H 0.58275 0.80679 0.7733 0.0
H1297 H 0.56028 0.78819 0.79567 0.0
H1298 H 0.63406 0.80427 0.76132 0.0
H1299 H 0.57384 0.87822 0.78049 0.0
H1300 H 0.55609 0.9114 0.79949 0.0
H1301 H 0.63838 0.9498 0.80249 0.0
H1302 H 0.65671 0.91658 0.78364 0.0
H1303 H 0.64632 0.88308 0.69384 0.0
H1304 H 0.63052 0.85893 0.71638 0.0
H1305 H 0.69011 0.90766 0.74218 0.0
H1306 H 0.70578 0.93197 0.7197 0.0
H1307 H 0.64035 0.90848 0.75495 0.0
H1308 H 0.69993 0.83567 0.73459 0.0
H1309 H 0.71698 0.80267 0.71534 0.0
H1310 H 0.63546 0.76233 0.71419 0.0
H1311 H 0.6178 0.79535 0.7333 0.0
C1312 C 0.61096 0.82916 0.81199 0.0
C1313 C 0.58773 0.8106 0.811 0.0
C1314 C 0.62404 0.83949 0.79914 0.0
C1315 C 0.6138 0.83197 0.78504 0.0
C1316 C 0.59108 0.81291 0.78403 0.0
C1317 C 0.57815 0.80243 0.79685 0.0
C1318 C 0.62579 0.84488 0.77134 0.0
C1319 C 0.63522 0.82706 0.75987 0.0
C1320 C 0.62776 0.87462 0.76951 0.0
C1321 C 0.61671 0.89473 0.78077 0.0
C1322 C 0.58819 0.89362 0.78528 0.0
C1323 C 0.57802 0.91245 0.79601 0.0
C1324 C 0.59611 0.93265 0.80222 0.0
C1325 C 0.6244 0.93411 0.79768 0.0
C1326 C 0.63469 0.9153 0.78697 0.0
C1327 C 0.65656 0.88813 0.70424 0.0
C1328 C 0.67764 0.90912 0.70495 0.0
C1329 C 0.64742 0.87438 0.71716 0.0
C1330 C 0.65935 0.88121 0.731 0.0
C1331 C 0.68058 0.90199 0.73166 0.0
C1332 C 0.68954 0.91585 0.7188 0.0
C1333 C 0.64876 0.8679 0.74491 0.0
C1334 C 0.63944 0.88568 0.75641 0.0
C1335 C 0.64684 0.83814 0.74672 0.0
C1336 C 0.65747 0.81816 0.73529 0.0
C1337 C 0.68558 0.81989 0.73016 0.0
C1338 C 0.69536 0.80116 0.71928 0.0
C1339 C 0.67729 0.78046 0.71352 0.0
C1340 C 0.64942 0.77839 0.71865 0.0
C1341 C 0.63952 0.79709 0.72952 0.0
H1342 H 0.68491 0.76598 0.7051 0.0
H1343 H 0.5882 0.9472 0.81053 0.0
H1344 H 0.12345 0.21855 0.40515 0.0
H1345 H 0.15721 0.17949 0.40405 0.0
H1346 H 0.16456 0.19025 0.35666 0.0
H1347 H 0.13048 0.22914 0.3576 0.0
H1348 H 0.15211 0.13692 0.36362 0.0
H1349 H 0.22046 0.20477 0.37959 0.0
H1350 H 0.24016 0.24292 0.39517 0.0
H1351 H 0.23713 0.18839 0.43327 0.0
H1352 H 0.21703 0.15002 0.41798 0.0
H1353 H 0.25106 0.02377 0.35869 0.0
H1354 H 0.23056 0.07127 0.35715 0.0
H1355 H 0.21634 0.07099 0.40444 0.0
H1356 H 0.23717 0.02382 0.40615 0.0
H1357 H 0.23654 0.12142 0.39535 0.0
H1358 H 0.16284 0.05648 0.38037 0.0
H1359 H 0.14197 0.01817 0.36531 0.0
H1360 H 0.15414 0.06758 0.32581 0.0
H1361 H 0.17543 0.10606 0.34063 0.0
C1362 C 0.13263 0.21302 0.39452 0.0
C1363 C 0.12402 0.2268 0.38144 0.0
C1364 C 0.15206 0.19073 0.39392 0.0
C1365 C 0.16345 0.18201 0.38027 0.0
C1366 C 0.15597 0.19663 0.3673 0.0
C1367 C 0.1365 0.21887 0.36788 0.0
C1368 C 0.18075 0.15588 0.37938 0.0
C1369 C 0.17096 0.13378 0.37031 0.0
C1370 C 0.20489 0.15154 0.38839 0.0
C1371 C 0.21703 0.17457 0.39764 0.0
C1372 C 0.22378 0.20097 0.39132 0.0
C1373 C 0.23506 0.22263 0.40009 0.0
C1374 C 0.23984 0.2181 0.4152 0.0
C1375 C 0.2334 0.19188 0.42156 0.0
C1376 C 0.2221 0.17015 0.41284 0.0
C1377 C 0.2436 0.03382 0.36877 0.0
C1378 C 0.24556 0.01989 0.38253 0.0
C1379 C 0.2319 0.06096 0.36786 0.0
C1380 C 0.22172 0.07452 0.38067 0.0
C1381 C 0.22413 0.06091 0.39443 0.0
C1382 C 0.23591 0.03386 0.39537 0.0
C1383 C 0.20765 0.1025 0.37974 0.0
C1384 C 0.21797 0.12483 0.38849 0.0
C1385 C 0.18388 0.10706 0.37049 0.0
C1386 C 0.17103 0.08399 0.36158 0.0
C1387 C 0.16127 0.05908 0.36846 0.0
C1388 C 0.14933 0.03735 0.35997 0.0
C1389 C 0.14682 0.0404 0.34461 0.0
C1390 C 0.15616 0.06522 0.33771 0.0
C1391 C 0.16815 0.087 0.34614 0.0
H1392 H 0.13756 0.02356 0.33806 0.0
H1393 H 0.24858 0.23489 0.42198 0.0
H1394 H 0.98165 0.22693 0.40304 0.0
H1395 H 0.93654 0.20192 0.40234 0.0
H1396 H 0.93119 0.21561 0.35511 0.0
H1397 H 0.9765 0.24098 0.35567 0.0
H1398 H 0.8803 0.22647 0.36992 0.0
H1399 H 0.94894 0.15233 0.36667 0.0
H1400 H 0.99176 0.12564 0.37375 0.0
H1401 H 0.95599 0.10898 0.41669 0.0
H1402 H 0.91309 0.13592 0.40994 0.0
H1403 H 0.77062 0.12161 0.36085 0.0
H1404 H 0.81288 0.15134 0.35888 0.0
H1405 H 0.82818 0.14116 0.40575 0.0
H1406 H 0.78619 0.11134 0.40786 0.0
H1407 H 0.8744 0.12799 0.38898 0.0
H1408 H 0.80632 0.2036 0.3924 0.0
H1409 H 0.76365 0.23048 0.38526 0.0
H1410 H 0.79825 0.2441 0.34176 0.0
H1411 H 0.84099 0.21694 0.34858 0.0
C1412 C 0.97097 0.22466 0.39247 0.0
C1413 C 0.98276 0.23584 0.37939 0.0
C1414 C 0.9452 0.2103 0.3921 0.0
C1415 C 0.93073 0.20673 0.37865 0.0
C1416 C 0.94214 0.21815 0.36558 0.0
C1417 C 0.96806 0.23248 0.36592 0.0
C1418 C 0.90377 0.19082 0.37839 0.0
C1419 C 0.879 0.20477 0.37384 0.0
C1420 C 0.90217 0.1627 0.38374 0.0
C1421 C 0.92789 0.14635 0.38783 0.0
C1422 C 0.95029 0.14316 0.37766 0.0
C1423 C 0.97456 0.12795 0.38161 0.0
C1424 C 0.97662 0.11567 0.39567 0.0
C1425 C 0.95437 0.11852 0.4058 0.0
C1426 C 0.93005 0.13373 0.40192 0.0
C1427 C 0.78274 0.12601 0.37079 0.0
C1428 C 0.77515 0.11388 0.38449 0.0
C1429 C 0.80683 0.14308 0.36963 0.0
C1430 C 0.82363 0.14835 0.38216 0.0
C1431 C 0.81551 0.1372 0.39594 0.0
C1432 C 0.79144 0.12023 0.39712 0.0
C1433 C 0.85076 0.16379 0.38079 0.0
C1434 C 0.87565 0.14965 0.38498 0.0
C1435 C 0.8524 0.19165 0.37507 0.0
C1436 C 0.82671 0.20795 0.37095 0.0
C1437 C 0.80472 0.21209 0.38126 0.0
C1438 C 0.78054 0.22743 0.37729 0.0
C1439 C 0.7782 0.23891 0.36305 0.0
C1440 C 0.80007 0.23515 0.35278 0.0
C1441 C 0.82429 0.2198 0.35669 0.0
H1442 H 0.75947 0.25079 0.36 0.0
H1443 H 0.99543 0.10391 0.39871 0.0
H1444 H 0.873 0.78171 0.40288 0.0
H1445 H 0.83854 0.81995 0.40071 0.0
H1446 H 0.83723 0.80935 0.35317 0.0
H1447 H 0.87208 0.77124 0.35518 0.0
H1448 H 0.84518 0.86341 0.36058 0.0
H1449 H 0.77966 0.79115 0.37401 0.0
H1450 H 0.76081 0.75114 0.38857 0.0
H1451 H 0.75667 0.80385 0.42734 0.0
H1452 H 0.77588 0.8441 0.41307 0.0
H1453 H 0.74226 0.97388 0.35659 0.0
H1454 H 0.76348 0.92681 0.35392 0.0
H1455 H 0.77644 0.92277 0.40125 0.0
H1456 H 0.75503 0.96941 0.40407 0.0
H1457 H 0.75734 0.87282 0.39047 0.0
H1458 H 0.82984 0.9418 0.37815 0.0
H1459 H 0.84984 0.98192 0.36407 0.0
H1460 H 0.8414 0.93486 0.32353 0.0
H1461 H 0.821 0.89457 0.33737 0.0
C1462 C 0.86515 0.78722 0.39197 0.0
C1463 C 0.87544 0.77353 0.3792 0.0
C1464 C 0.8453 0.809 0.39075 0.0
C1465 C 0.83515 0.81731 0.37678 0.0
C1466 C 0.84478 0.8032 0.36405 0.0
C1467 C 0.86469 0.78143 0.36524 0.0
C1468 C 0.81632 0.84226 0.37547 0.0
C1469 C 0.8256 0.86521 0.36684 0.0
C1470 C 0.79108 0.84475 0.38384 0.0
C1471 C 0.77939 0.82062 0.39247 0.0
C1472 C 0.77492 0.79417 0.38566 0.0
C1473 C 0.76414 0.77145 0.39386 0.0
C1474 C 0.75759 0.77494 0.40887 0.0
C1475 C 0.76175 0.80118 0.41571 0.0
C1476 C 0.77255 0.82397 0.40756 0.0
C1477 C 0.7495 0.96291 0.36643 0.0
C1478 C 0.74717 0.97551 0.38053 0.0
C1479 C 0.76162 0.93604 0.36488 0.0
C1480 C 0.7717 0.92146 0.37738 0.0
C1481 C 0.76872 0.93366 0.39148 0.0
C1482 C 0.75661 0.96042 0.39304 0.0
C1483 C 0.7866 0.89405 0.37588 0.0
C1484 C 0.7766 0.87071 0.38398 0.0
C1485 C 0.81125 0.89118 0.36707 0.0
C1486 C 0.82358 0.91534 0.35876 0.0
C1487 C 0.83204 0.94011 0.36621 0.0
C1488 C 0.84348 0.96285 0.35828 0.0
C1489 C 0.8468 0.96098 0.34291 0.0
C1490 C 0.83876 0.93631 0.33544 0.0
C1491 C 0.82726 0.91351 0.34332 0.0
H1492 H 0.85567 0.97861 0.33678 0.0
H1493 H 0.74925 0.75732 0.4152 0.0
H1494 H 0.02235 0.7476 0.4043 0.0
H1495 H 0.06858 0.77051 0.40506 0.0
H1496 H 0.06493 0.78449 0.3578 0.0
H1497 H 0.01876 0.76082 0.35685 0.0
H1498 H 0.11747 0.76861 0.36642 0.0
H1499 H 0.04822 0.83745 0.38215 0.0
H1500 H 0.00848 0.85508 0.39737 0.0
H1501 H 0.05834 0.84466 0.43683 0.0
H1502 H 0.09826 0.82661 0.42185 0.0
H1503 H 0.21694 0.88102 0.36125 0.0
H1504 H 0.17652 0.84897 0.36048 0.0
H1505 H 0.1799 0.84005 0.4081 0.0
H1506 H 0.21989 0.87289 0.40903 0.0
H1507 H 0.12831 0.85162 0.39972 0.0
H1508 H 0.19878 0.78513 0.38385 0.0
H1509 H 0.23847 0.76755 0.36859 0.0
H1510 H 0.18694 0.7735 0.32948 0.0
H1511 H 0.14704 0.79148 0.34447 0.0
C1512 C 0.03136 0.75546 0.39403 0.0
C1513 C 0.01672 0.7527 0.38052 0.0
C1514 C 0.05779 0.76857 0.39451 0.0
C1515 C 0.06993 0.77965 0.38154 0.0
C1516 C 0.05585 0.77616 0.36794 0.0
C1517 C 0.02945 0.76274 0.36743 0.0
C1518 C 0.09681 0.79576 0.38229 0.0
C1519 C 0.11982 0.78695 0.37357 0.0
C1520 C 0.09999 0.81926 0.3919 0.0
C1521 C 0.07613 0.83045 0.4009 0.0
C1522 C 0.05064 0.83876 0.39408 0.0
C1523 C 0.0281 0.84884 0.40267 0.0
C1524 C 0.03086 0.85092 0.41806 0.0
C1525 C 0.05622 0.84301 0.42491 0.0
C1526 C 0.07882 0.83288 0.41638 0.0
C1527 C 0.20937 0.87198 0.37156 0.0
C1528 C 0.22155 0.87967 0.38522 0.0
C1529 C 0.18632 0.85349 0.37109 0.0
C1530 C 0.17531 0.8419 0.38422 0.0
C1531 C 0.18804 0.84877 0.39783 0.0
C1532 C 0.21092 0.86751 0.39834 0.0
C1533 C 0.14918 0.82448 0.38387 0.0
C1534 C 0.12617 0.83314 0.39264 0.0
C1535 C 0.14607 0.80087 0.3743 0.0
C1536 C 0.16999 0.78987 0.36527 0.0
C1537 C 0.19597 0.78288 0.37198 0.0
C1538 C 0.2185 0.77281 0.36338 0.0
C1539 C 0.21525 0.76947 0.34807 0.0
C1540 C 0.18944 0.77611 0.34133 0.0
C1541 C 0.16684 0.78621 0.34988 0.0
H1542 H 0.23272 0.76168 0.34144 0.0
H1543 H 0.01338 0.85871 0.42469 0.0
H1544 H 0.28502 0.95186 0.62744 0.0
H1545 H 0.2655 0.90377 0.62717 0.0
H1546 H 0.19133 0.93369 0.65056 0.0
H1547 H 0.21191 0.98136 0.65167 0.0
H1548 H 0.20133 0.88322 0.65909 0.0
H1549 H 0.19495 0.92805 0.61133 0.0
H1550 H 0.21376 0.95263 0.58926 0.0
H1551 H 0.26658 0.88096 0.57939 0.0
H1552 H 0.24831 0.85607 0.60152 0.0
H1553 H 0.10681 0.79359 0.60781 0.0
H1554 H 0.14128 0.83154 0.61068 0.0
H1555 H 0.18137 0.78546 0.64636 0.0
H1556 H 0.14555 0.74817 0.64413 0.0
H1557 H 0.19335 0.84099 0.60884 0.0
H1558 H 0.20613 0.82997 0.6722 0.0
H1559 H 0.18017 0.81055 0.69371 0.0
H1560 H 0.10117 0.82335 0.67106 0.0
H1561 H 0.12665 0.84311 0.6495 0.0
C1562 C 0.26486 0.94783 0.6328 0.0
C1563 C 0.24976 0.96995 0.63953 0.0
C1564 C 0.25364 0.92051 0.63257 0.0
C1565 C 0.2266 0.91526 0.63849 0.0
C1566 C 0.21219 0.93721 0.64588 0.0
C1567 C 0.22383 0.96439 0.6465 0.0
C1568 C 0.21236 0.88766 0.63601 0.0
C1569 C 0.19974 0.87389 0.64812 0.0
C1570 C 0.20986 0.87568 0.62164 0.0
C1571 C 0.22049 0.89033 0.60816 0.0
C1572 C 0.21067 0.91759 0.60448 0.0
C1573 C 0.22122 0.93157 0.59197 0.0
C1574 C 0.2414 0.9184 0.58295 0.0
C1575 C 0.25098 0.89115 0.5864 0.0
C1576 C 0.24051 0.87708 0.59892 0.0
C1577 C 0.12321 0.79135 0.61613 0.0
C1578 C 0.12331 0.76817 0.62589 0.0
C1579 C 0.143 0.81305 0.61775 0.0
C1580 C 0.1636 0.81172 0.62896 0.0
C1581 C 0.16517 0.78738 0.63792 0.0
C1582 C 0.14483 0.76602 0.63659 0.0
C1583 C 0.18173 0.83682 0.63188 0.0
C1584 C 0.19526 0.85006 0.61986 0.0
C1585 C 0.18389 0.84906 0.6462 0.0
C1586 C 0.16833 0.83767 0.65919 0.0
C1587 C 0.18322 0.8287 0.67185 0.0
C1588 C 0.16859 0.81763 0.68404 0.0
C1589 C 0.13905 0.81561 0.68373 0.0
C1590 C 0.12406 0.82482 0.67126 0.0
C1591 C 0.13858 0.83594 0.65906 0.0
H1592 H 0.12777 0.80699 0.69317 0.0
H1593 H 0.24957 0.9293 0.57328 0.0
H1594 H 0.21355 0.11393 0.6126 0.0
H1595 H 0.17444 0.14763 0.61474 0.0
H1596 H 0.18141 0.14534 0.66243 0.0
H1597 H 0.22056 0.11167 0.66046 0.0
H1598 H 0.1269 0.13677 0.65264 0.0
H1599 H 0.20127 0.20344 0.64499 0.0
H1600 H 0.24324 0.22407 0.6328 0.0
H1601 H 0.19583 0.23513 0.59257 0.0
H1602 H 0.15365 0.21418 0.60446 0.0
H1603 H 0.01828 0.24217 0.65838 0.0
H1604 H 0.06428 0.21872 0.66141 0.0
H1605 H 0.07324 0.21343 0.61386 0.0
H1606 H 0.02773 0.23686 0.6107 0.0
H1607 H 0.12233 0.22971 0.62701 0.0
H1608 H 0.05094 0.15714 0.6333 0.0
H1609 H 0.00884 0.13536 0.64485 0.0
H1610 H 0.05086 0.13461 0.68709 0.0
H1611 H 0.0931 0.15676 0.67581 0.0
C1612 C 0.20697 0.12078 0.62355 0.0
C1613 C 0.22011 0.11 0.63635 0.0
C1614 C 0.18471 0.14014 0.62474 0.0
C1615 C 0.17518 0.14904 0.63875 0.0
C1616 C 0.18852 0.13872 0.65154 0.0
C1617 C 0.21092 0.11953 0.65036 0.0
C1618 C 0.15016 0.16775 0.63998 0.0
C1619 C 0.12607 0.15739 0.64732 0.0
C1620 C 0.14903 0.19437 0.63281 0.0
C1621 C 0.17434 0.20702 0.6256 0.0
C1622 C 0.19984 0.21005 0.63351 0.0
C1623 C 0.22367 0.22185 0.62666 0.0
C1624 C 0.22222 0.23085 0.61191 0.0
C1625 C 0.19692 0.22813 0.60399 0.0
C1626 C 0.17304 0.21633 0.61079 0.0
C1627 C 0.03012 0.23612 0.64858 0.0
C1628 C 0.01922 0.2412 0.6343 0.0
C1629 C 0.05635 0.22271 0.65033 0.0
C1630 C 0.07203 0.21423 0.63785 0.0
C1631 C 0.0615 0.21989 0.62363 0.0
C1632 C 0.03535 0.23314 0.62186 0.0
C1633 C 0.09895 0.19846 0.63941 0.0
C1634 C 0.12336 0.20935 0.63257 0.0
C1635 C 0.10036 0.17224 0.64698 0.0
C1636 C 0.07501 0.15894 0.65376 0.0
C1637 C 0.0511 0.15256 0.64508 0.0
C1638 C 0.02723 0.14011 0.65157 0.0
C1639 C 0.02714 0.1337 0.6667 0.0
C1640 C 0.05094 0.13966 0.67537 0.0
C1641 C 0.07485 0.15215 0.66894 0.0
H1642 H 0.00865 0.12405 0.6717 0.0
H1643 H 0.24069 0.23999 0.60663 0.0
H1644 H 0.75464 0.02208 0.61062 0.0
H1645 H 0.77887 0.06751 0.61121 0.0
H1646 H 0.77673 0.06691 0.65905 0.0
H1647 H 0.7519 0.02122 0.65862 0.0
H1648 H 0.76475 0.12001 0.64705 0.0
H1649 H 0.83604 0.04833 0.64223 0.0
H1650 H 0.85849 0.00583 0.63147 0.0
H1651 H 0.86551 0.04781 0.58936 0.0
H1652 H 0.84269 0.09042 0.5998 0.0
H1653 H 0.87523 0.2237 0.65386 0.0
H1654 H 0.84345 0.18307 0.65563 0.0
H1655 H 0.84555 0.17371 0.60802 0.0
H1656 H 0.87777 0.21399 0.60614 0.0
H1657 H 0.8579 0.12517 0.62159 0.0
H1658 H 0.78579 0.19667 0.62632 0.0
H1659 H 0.76314 0.23906 0.63707 0.0
H1660 H 0.75799 0.19774 0.67943 0.0
H1661 H 0.78098 0.15522 0.66898 0.0
C1662 C 0.75918 0.03154 0.62131 0.0
C1663 C 0.75163 0.01783 0.6346 0.0
C1664 C 0.77305 0.05754 0.62161 0.0
C1665 C 0.77997 0.07028 0.63517 0.0
C1666 C 0.77164 0.05727 0.64848 0.0
C1667 C 0.75757 0.03117 0.6482 0.0
C1668 C 0.79687 0.09664 0.63527 0.0
C1669 C 0.78532 0.12114 0.64169 0.0
C1670 C 0.82347 0.09805 0.62805 0.0
C1671 C 0.83745 0.07251 0.62178 0.0
C1672 C 0.84218 0.04844 0.63064 0.0
C1673 C 0.855 0.02433 0.62461 0.0
C1674 C 0.86337 0.02411 0.60973 0.0
C1675 C 0.859 0.04801 0.60088 0.0
C1676 C 0.84615 0.07215 0.60685 0.0
C1677 C 0.8686 0.2133 0.64373 0.0
C1678 C 0.87928 0.22193 0.62986 0.0
C1679 C 0.85032 0.19013 0.64477 0.0
C1680 C 0.84213 0.17539 0.63195 0.0
C1681 C 0.85172 0.18475 0.61805 0.0
C1682 C 0.8701 0.20782 0.617 0.0
C1683 C 0.82557 0.14885 0.63308 0.0
C1684 C 0.83734 0.12417 0.62697 0.0
C1685 C 0.79927 0.14735 0.64061 0.0
C1686 C 0.78537 0.17287 0.6469 0.0
C1687 C 0.78005 0.19671 0.63796 0.0
C1688 C 0.7671 0.22074 0.64399 0.0
C1689 C 0.7592 0.22112 0.65893 0.0
C1690 C 0.76415 0.19743 0.66786 0.0
C1691 C 0.77712 0.17335 0.66189 0.0
H1692 H 0.74918 0.23975 0.66359 0.0
H1693 H 0.87331 0.00545 0.60507 0.0
H1694 H 0.98102 0.7535 0.65755 0.0
H1695 H 0.93602 0.77857 0.66134 0.0
H1696 H 0.93375 0.79998 0.61482 0.0
H1697 H 0.97844 0.77551 0.61096 0.0
H1698 H 0.92087 0.84484 0.63186 0.0
H1699 H 0.89472 0.74565 0.62855 0.0
H1700 H 0.896 0.69551 0.63626 0.0
H1701 H 0.86611 0.71862 0.67962 0.0
H1702 H 0.86501 0.76897 0.67221 0.0
H1703 H 0.78355 0.87689 0.61151 0.0
H1704 H 0.82629 0.84859 0.61468 0.0
H1705 H 0.81344 0.84766 0.66204 0.0
H1706 H 0.7704 0.87612 0.65905 0.0
H1707 H 0.8345 0.79467 0.64919 0.0
H1708 H 0.85585 0.89405 0.65099 0.0
H1709 H 0.85333 0.94353 0.64228 0.0
H1710 H 0.89202 0.9195 0.60102 0.0
H1711 H 0.89435 0.86977 0.60938 0.0
C1712 C 0.97098 0.7637 0.64816 0.0
C1713 C 0.9833 0.76245 0.63395 0.0
C1714 C 0.94525 0.77788 0.65034 0.0
C1715 C 0.93153 0.79095 0.63833 0.0
C1716 C 0.94404 0.79008 0.62423 0.0
C1717 C 0.96958 0.77597 0.62205 0.0
C1718 C 0.90399 0.80548 0.64016 0.0
C1719 C 0.90199 0.83385 0.63564 0.0
C1720 C 0.87954 0.79132 0.64545 0.0
C1721 C 0.88013 0.76108 0.64989 0.0
C1722 C 0.88866 0.74006 0.63976 0.0
C1723 C 0.8893 0.7116 0.64407 0.0
C1724 C 0.88123 0.7039 0.65844 0.0
C1725 C 0.87242 0.72463 0.66851 0.0
C1726 C 0.87177 0.75312 0.66426 0.0
C1727 C 0.78942 0.8703 0.6226 0.0
C1728 C 0.77379 0.87918 0.63505 0.0
C1729 C 0.81388 0.85413 0.62438 0.0
C1730 C 0.82314 0.84653 0.6386 0.0
C1731 C 0.80659 0.85351 0.65099 0.0
C1732 C 0.78209 0.86982 0.64924 0.0
C1733 C 0.8514 0.83362 0.64044 0.0
C1734 C 0.85351 0.80574 0.64569 0.0
C1735 C 0.87603 0.84814 0.63576 0.0
C1736 C 0.87509 0.87813 0.63078 0.0
C1737 C 0.86365 0.89928 0.64002 0.0
C1738 C 0.86227 0.92737 0.63515 0.0
C1739 C 0.87246 0.93463 0.62109 0.0
C1740 C 0.88412 0.91383 0.6119 0.0
C1741 C 0.88551 0.88569 0.6167 0.0
H1742 H 0.87136 0.95638 0.61734 0.0
H1743 H 0.88174 0.68186 0.66175 0.0
H1744 H 0.60296 0.69777 0.90384 0.0
H1745 H 0.63731 0.65964 0.90137 0.0
H1746 H 0.67763 0.70416 0.86517 0.0
H1747 H 0.64182 0.74157 0.867 0.0
H1748 H 0.67379 0.65397 0.85748 0.0
H1749 H 0.70907 0.69519 0.90138 0.0
H1750 H 0.70863 0.71582 0.92652 0.0
H1751 H 0.67885 0.63693 0.94442 0.0
H1752 H 0.67866 0.61595 0.91938 0.0
H1753 H 0.77739 0.53656 0.88994 0.0
H1754 H 0.75961 0.58512 0.88906 0.0
H1755 H 0.68908 0.55721 0.86221 0.0
H1756 H 0.70829 0.50892 0.86221 0.0
H1757 H 0.71718 0.60503 0.90049 0.0
H1758 H 0.65879 0.60919 0.84321 0.0
H1759 H 0.66645 0.59258 0.81758 0.0
H1760 H 0.75612 0.5885 0.82532 0.0
H1761 H 0.74906 0.60547 0.85093 0.0
C1762 C 0.61947 0.69967 0.89553 0.0
C1763 C 0.61984 0.72263 0.88564 0.0
C1764 C 0.63925 0.6779 0.89417 0.0
C1765 C 0.66049 0.67913 0.88324 0.0
C1766 C 0.66147 0.70264 0.87368 0.0
C1767 C 0.64113 0.72408 0.87477 0.0
C1768 C 0.68017 0.65485 0.88117 0.0
C1769 C 0.68356 0.64345 0.86687 0.0
C1770 C 0.69371 0.64152 0.89332 0.0
C1771 C 0.6937 0.65404 0.90846 0.0
C1772 C 0.70223 0.68229 0.91066 0.0
C1773 C 0.70211 0.69405 0.9249 0.0
C1774 C 0.69367 0.67771 0.93705 0.0
C1775 C 0.68537 0.64957 0.935 0.0
C1776 C 0.68541 0.63772 0.92078 0.0
C1777 C 0.75842 0.54107 0.88359 0.0
C1778 C 0.74409 0.51931 0.87613 0.0
C1779 C 0.7482 0.56874 0.88314 0.0
C1780 C 0.723 0.57502 0.87554 0.0
C1781 C 0.70894 0.55319 0.86784 0.0
C1782 C 0.71972 0.52558 0.86791 0.0
C1783 C 0.7102 0.6037 0.87685 0.0
C1784 C 0.70797 0.61585 0.89103 0.0
C1785 C 0.69892 0.61838 0.8645 0.0
C1786 C 0.70334 0.6084 0.84905 0.0
C1787 C 0.68015 0.6049 0.83943 0.0
C1788 C 0.68439 0.59538 0.8249 0.0
C1789 C 0.71175 0.58942 0.81984 0.0
C1790 C 0.73493 0.59303 0.82927 0.0
C1791 C 0.73082 0.60256 0.8438 0.0
H1792 H 0.71498 0.58204 0.80859 0.0
H1793 H 0.69361 0.68685 0.94807 0.0
H1794 H 0.48014 0.71372 0.90125 0.0
H1795 H 0.43564 0.68826 0.89849 0.0
H1796 H 0.42871 0.71735 0.85327 0.0
H1797 H 0.47366 0.74311 0.8559 0.0
H1798 H 0.37783 0.72279 0.87052 0.0
H1799 H 0.44573 0.6526 0.85729 0.0
H1800 H 0.48948 0.62444 0.85976 0.0
H1801 H 0.45989 0.59094 0.90126 0.0
H1802 H 0.41612 0.61925 0.89916 0.0
H1803 H 0.26687 0.61991 0.85727 0.0
H1804 H 0.30863 0.65045 0.8557 0.0
H1805 H 0.33124 0.62811 0.90056 0.0
H1806 H 0.2896 0.59759 0.90228 0.0
H1807 H 0.37442 0.61922 0.87994 0.0
H1808 H 0.30806 0.69223 0.89383 0.0
H1809 H 0.26458 0.72083 0.89142 0.0
H1810 H 0.29121 0.74884 0.84828 0.0
H1811 H 0.33471 0.72007 0.85035 0.0
C1812 C 0.46927 0.71474 0.89068 0.0
C1813 C 0.48047 0.73037 0.87877 0.0
C1814 C 0.44387 0.70011 0.88913 0.0
C1815 C 0.4291 0.70083 0.87566 0.0
C1816 C 0.43994 0.71657 0.86374 0.0
C1817 C 0.46563 0.7311 0.86524 0.0
C1818 C 0.40232 0.68495 0.87429 0.0
C1819 C 0.37702 0.70005 0.87225 0.0
C1820 C 0.40146 0.65541 0.87681 0.0
C1821 C 0.42772 0.63823 0.87811 0.0
C1822 C 0.44864 0.63941 0.86701 0.0
C1823 C 0.47343 0.62339 0.86833 0.0
C1824 C 0.47748 0.60596 0.88067 0.0
C1825 C 0.45672 0.60447 0.89171 0.0
C1826 C 0.4319 0.62047 0.89045 0.0
C1827 C 0.28052 0.62179 0.86688 0.0
C1828 C 0.27508 0.60612 0.87987 0.0
C1829 C 0.30428 0.63932 0.86597 0.0
C1830 C 0.32296 0.64137 0.87799 0.0
C1831 C 0.31703 0.62665 0.89115 0.0
C1832 C 0.29319 0.60931 0.89212 0.0
C1833 C 0.34982 0.65713 0.87655 0.0
C1834 C 0.37518 0.64191 0.87801 0.0
C1835 C 0.35065 0.68649 0.87345 0.0
C1836 C 0.32447 0.70371 0.87217 0.0
C1837 C 0.30451 0.70425 0.88376 0.0
C1838 C 0.2799 0.72055 0.88248 0.0
C1839 C 0.27509 0.73656 0.86969 0.0
C1840 C 0.29494 0.73637 0.85817 0.0
C1841 C 0.31958 0.72009 0.8594 0.0
H1842 H 0.25603 0.74918 0.86872 0.0
H1843 H 0.49669 0.59356 0.88168 0.0
H1844 H 0.35872 0.25059 0.87015 0.0
H1845 H 0.32566 0.2903 0.86784 0.0
H1846 H 0.37507 0.33802 0.89951 0.0
H1847 H 0.40678 0.29758 0.90263 0.0
H1848 H 0.32476 0.34999 0.90424 0.0
H1849 H 0.3798 0.3463 0.85966 0.0
H1850 H 0.40019 0.32456 0.83717 0.0
H1851 H 0.31661 0.31038 0.8199 0.0
H1852 H 0.29571 0.33172 0.84239 0.0
H1853 H 0.28038 0.48143 0.85803 0.0
H1854 H 0.30656 0.4366 0.85918 0.0
H1855 H 0.24426 0.40327 0.88969 0.0
H1856 H 0.21945 0.44877 0.88938 0.0
H1857 H 0.30089 0.38427 0.85372 0.0
H1858 H 0.27312 0.36289 0.91544 0.0
H1859 H 0.25829 0.39029 0.93746 0.0
H1860 H 0.30025 0.46409 0.92034 0.0
H1861 H 0.31566 0.43706 0.89833 0.0
C1862 C 0.36222 0.26949 0.87672 0.0
C1863 C 0.38526 0.27119 0.88651 0.0
C1864 C 0.3435 0.29225 0.87532 0.0
C1865 C 0.34823 0.31751 0.88321 0.0
C1866 C 0.3709 0.31884 0.89328 0.0
C1867 C 0.38907 0.29576 0.89505 0.0
C1868 C 0.33009 0.34281 0.88076 0.0
C1869 C 0.31958 0.35742 0.89318 0.0
C1870 C 0.32371 0.35301 0.86635 0.0
C1871 C 0.3362 0.34034 0.85277 0.0
C1872 C 0.36577 0.33839 0.8511 0.0
C1873 C 0.37742 0.32616 0.83835 0.0
C1874 C 0.3597 0.31602 0.82713 0.0
C1875 C 0.3303 0.31819 0.82861 0.0
C1876 C 0.31854 0.33038 0.84135 0.0
C1877 C 0.2722 0.4643 0.86479 0.0
C1878 C 0.24827 0.46839 0.87375 0.0
C1879 C 0.28708 0.43873 0.86545 0.0
C1880 C 0.27781 0.41682 0.87484 0.0
C1881 C 0.25237 0.42018 0.88275 0.0
C1882 C 0.23809 0.44602 0.88249 0.0
C1883 C 0.29572 0.39137 0.87718 0.0
C1884 C 0.30608 0.37673 0.86476 0.0
C1885 C 0.30318 0.38197 0.89159 0.0
C1886 C 0.29523 0.39802 0.90516 0.0
C1887 C 0.27936 0.3849 0.91643 0.0
C1888 C 0.27081 0.40038 0.9289 0.0
C1889 C 0.27815 0.42896 0.93023 0.0
C1890 C 0.29444 0.442 0.91924 0.0
C1891 C 0.3031 0.42661 0.90677 0.0
H1892 H 0.27116 0.44101 0.93977 0.0
H1893 H 0.36876 0.30655 0.81727 0.0
H1894 H 0.69288 0.3987 0.89863 0.0
H1895 H 0.65567 0.36295 0.89818 0.0
H1896 H 0.70369 0.31434 0.86623 0.0
H1897 H 0.74003 0.35143 0.86586 0.0
H1898 H 0.65383 0.3117 0.8583 0.0
H1899 H 0.69577 0.29447 0.9048 0.0
H1900 H 0.71578 0.30491 0.92947 0.0
H1901 H 0.63491 0.33574 0.94421 0.0
H1902 H 0.61448 0.32587 0.91957 0.0
H1903 H 0.54126 0.21379 0.89971 0.0
H1904 H 0.58874 0.2342 0.89782 0.0
H1905 H 0.55894 0.29128 0.86371 0.0
H1906 H 0.51221 0.26911 0.86478 0.0
H1907 H 0.60653 0.28048 0.90463 0.0
H1908 H 0.60906 0.3178 0.84255 0.0
H1909 H 0.59423 0.2999 0.81806 0.0
H1910 H 0.59589 0.21457 0.83458 0.0
H1911 H 0.61112 0.23189 0.85911 0.0
C1912 C 0.69555 0.38026 0.89161 0.0
C1913 C 0.71931 0.37765 0.88235 0.0
C1914 C 0.67438 0.35968 0.89142 0.0
C1915 C 0.67709 0.33546 0.88245 0.0
C1916 C 0.70106 0.33274 0.87328 0.0
C1917 C 0.72185 0.35384 0.87311 0.0
C1918 C 0.65421 0.31381 0.8822 0.0
C1919 C 0.64367 0.30464 0.86844 0.0
C1920 C 0.64151 0.30362 0.8954 0.0
C1921 C 0.65363 0.30956 0.91029 0.0
C1922 C 0.68228 0.30363 0.91328 0.0
C1923 C 0.6937 0.30943 0.92726 0.0
C1924 C 0.67664 0.32101 0.93839 0.0
C1925 C 0.6481 0.32676 0.93557 0.0
C1926 C 0.63658 0.32103 0.92161 0.0
C1927 C 0.54517 0.23031 0.89161 0.0
C1928 C 0.52333 0.23991 0.88235 0.0
C1929 C 0.57223 0.24205 0.89056 0.0
C1930 C 0.5777 0.26421 0.88053 0.0
C1931 C 0.55572 0.27366 0.87121 0.0
C1932 C 0.52891 0.26119 0.8719 0.0
C1933 C 0.60555 0.27899 0.8807 0.0
C1934 C 0.61699 0.28699 0.89447 0.0
C1935 C 0.61993 0.2868 0.86752 0.0
C1936 C 0.61105 0.2762 0.85272 0.0
C1937 C 0.60643 0.2952 0.84094 0.0
C1938 C 0.59791 0.28516 0.82705 0.0
C1939 C 0.59405 0.25612 0.82477 0.0
C1940 C 0.59879 0.23706 0.83637 0.0
C1941 C 0.60733 0.24699 0.85028 0.0
H1942 H 0.58743 0.2484 0.81401 0.0
H1943 H 0.68552 0.32549 0.94921 0.0
H1944 H 0.61913 0.28311 0.11267 0.0
H1945 H 0.653 0.32192 0.11447 0.0
H1946 H 0.65459 0.3129 0.1621 0.0
H1947 H 0.6204 0.27414 0.16045 0.0
H1948 H 0.64427 0.36667 0.15389 0.0
H1949 H 0.71271 0.2962 0.14179 0.0
H1950 H 0.73331 0.25623 0.12785 0.0
H1951 H 0.73626 0.3072 0.08842 0.0
H1952 H 0.71529 0.34738 0.10206 0.0
H1953 H 0.74478 0.47973 0.15731 0.0
H1954 H 0.72353 0.43277 0.1603 0.0
H1955 H 0.71204 0.42686 0.11292 0.0
H1956 H 0.73345 0.47344 0.10978 0.0
H1957 H 0.73233 0.37782 0.12436 0.0
H1958 H 0.65759 0.44491 0.13525 0.0
H1959 H 0.63591 0.48509 0.14859 0.0
H1960 H 0.64401 0.44017 0.1898 0.0
H1961 H 0.66612 0.39986 0.17672 0.0
C1962 C 0.62698 0.28903 0.12353 0.0
C1963 C 0.61685 0.27567 0.13642 0.0
C1964 C 0.64649 0.31114 0.12453 0.0
C1965 C 0.6564 0.32018 0.13842 0.0
C1966 C 0.64718 0.3062 0.15128 0.0
C1967 C 0.62768 0.28404 0.15029 0.0
C1968 C 0.67426 0.34585 0.1395 0.0
C1969 C 0.6639 0.36889 0.14772 0.0
C1970 C 0.69952 0.34887 0.1312 0.0
C1971 C 0.71225 0.32477 0.12294 0.0
C1972 C 0.71755 0.29884 0.13012 0.0
C1973 C 0.72934 0.27615 0.12228 0.0
C1974 C 0.73605 0.27916 0.10726 0.0
C1975 C 0.73105 0.3049 0.10006 0.0
C1976 C 0.71925 0.32765 0.10785 0.0
C1977 C 0.73774 0.46843 0.14753 0.0
C1978 C 0.74066 0.48042 0.13332 0.0
C1979 C 0.72563 0.44162 0.14926 0.0
C1980 C 0.71612 0.42646 0.13683 0.0
C1981 C 0.71935 0.4382 0.12264 0.0
C1982 C 0.73144 0.46492 0.1209 0.0
C1983 C 0.70197 0.39869 0.13849 0.0
C1984 C 0.71301 0.37533 0.13077 0.0
C1985 C 0.67724 0.39538 0.14718 0.0
C1986 C 0.66382 0.41954 0.15504 0.0
C1987 C 0.65496 0.4437 0.14718 0.0
C1988 C 0.64256 0.46648 0.15468 0.0
C1989 C 0.63867 0.46523 0.17004 0.0
C1990 C 0.64709 0.44114 0.17791 0.0
C1991 C 0.65955 0.41832 0.17046 0.0
H1992 H 0.62907 0.48288 0.17583 0.0
H1993 H 0.74517 0.26156 0.10121 0.0
H1994 H 0.5199 0.74726 0.1569 0.0
H1995 H 0.56683 0.72503 0.15676 0.0
H1996 H 0.55803 0.7071 0.11005 0.0
H1997 H 0.51161 0.72954 0.11 0.0
H1998 H 0.58339 0.67177 0.15014 0.0
H1999 H 0.62167 0.71272 0.09283 0.0
H2000 H 0.61508 0.75423 0.07659 0.0
H2001 H 0.59444 0.8056 0.1144 0.0
H2002 H 0.60159 0.76459 0.13093 0.0
H2003 H 0.70858 0.61612 0.10439 0.0
H2004 H 0.66737 0.64723 0.10636 0.0
H2005 H 0.68557 0.66118 0.15268 0.0
H2006 H 0.72657 0.62983 0.15091 0.0
H2007 H 0.65752 0.70183 0.11435 0.0
H2008 H 0.62294 0.66009 0.17174 0.0
H2009 H 0.62855 0.6174 0.18729 0.0
H2010 H 0.63991 0.56645 0.14826 0.0
H2011 H 0.63397 0.60875 0.13249 0.0
C2012 C 0.52796 0.73855 0.14661 0.0
C2013 C 0.51208 0.74036 0.13345 0.0
C2014 C 0.55476 0.72588 0.14655 0.0
C2015 C 0.5661 0.71491 0.13334 0.0
C2016 C 0.54997 0.71603 0.1203 0.0
C2017 C 0.52333 0.72875 0.12032 0.0
C2018 C 0.59461 0.70179 0.13313 0.0
C2019 C 0.59981 0.67871 0.14253 0.0
C2020 C 0.61575 0.71046 0.12292 0.0
C2021 C 0.61192 0.73547 0.11311 0.0
C2022 C 0.61589 0.73291 0.0977 0.0
C2023 C 0.61202 0.75635 0.08844 0.0
C2024 C 0.60417 0.78249 0.09445 0.0
C2025 C 0.60039 0.7853 0.10975 0.0
C2026 C 0.60436 0.76196 0.11908 0.0
C2027 C 0.7041 0.62612 0.11495 0.0
C2028 C 0.72064 0.62014 0.12754 0.0
C2029 C 0.68056 0.64394 0.11605 0.0
C2030 C 0.67316 0.65605 0.12973 0.0
C2031 C 0.69065 0.6516 0.14208 0.0
C2032 C 0.71412 0.63372 0.14102 0.0
C2033 C 0.64614 0.67172 0.13127 0.0
C2034 C 0.64122 0.6952 0.1221 0.0
C2035 C 0.62514 0.66331 0.1416 0.0
C2036 C 0.62836 0.63765 0.15096 0.0
C2037 C 0.62655 0.63976 0.16649 0.0
C2038 C 0.6298 0.61563 0.17534 0.0
C2039 C 0.6347 0.58925 0.16877 0.0
C2040 C 0.63624 0.58692 0.15334 0.0
C2041 C 0.63297 0.61096 0.14444 0.0
H2042 H 0.63723 0.57061 0.17564 0.0
H2043 H 0.60111 0.80059 0.08724 0.0
H2044 H 0.23709 0.52802 0.15571 0.0
H2045 H 0.26029 0.5744 0.15744 0.0
H2046 H 0.28169 0.57013 0.11095 0.0
H2047 H 0.25893 0.52405 0.10911 0.0
H2048 H 0.32687 0.58378 0.12784 0.0
H2049 H 0.22934 0.61278 0.12284 0.0
H2050 H 0.1788 0.61425 0.12977 0.0
H2051 H 0.20057 0.6485 0.17241 0.0
H2052 H 0.25131 0.64685 0.1658 0.0
H2053 H 0.37079 0.71897 0.1087 0.0
H2054 H 0.33863 0.67871 0.11048 0.0
H2055 H 0.33284 0.69028 0.15784 0.0
H2056 H 0.36513 0.73078 0.15623 0.0
H2057 H 0.2801 0.67331 0.14329 0.0
H2058 H 0.37766 0.64546 0.14782 0.0
H2059 H 0.42802 0.64467 0.14052 0.0
H2060 H 0.40576 0.60799 0.09851 0.0
H2061 H 0.35518 0.609 0.10548 0.0
C2062 C 0.24664 0.53703 0.14585 0.0
C2063 C 0.24627 0.52224 0.13229 0.0
C2064 C 0.25976 0.56356 0.14685 0.0
C2065 C 0.27261 0.57566 0.13431 0.0
C2066 C 0.27195 0.56109 0.12077 0.0
C2067 C 0.25887 0.53473 0.11975 0.0
C2068 C 0.2879 0.60297 0.13524 0.0
C2069 C 0.31654 0.60337 0.13111 0.0
C2070 C 0.27461 0.62835 0.13991 0.0
C2071 C 0.24414 0.62937 0.14389 0.0
C2072 C 0.22337 0.62037 0.13375 0.0
C2073 C 0.19469 0.62129 0.13761 0.0
C2074 C 0.18649 0.63137 0.15154 0.0
C2075 C 0.20696 0.64064 0.16163 0.0
C2076 C 0.23568 0.63973 0.15783 0.0
C2077 C 0.36231 0.71339 0.11948 0.0
C2078 C 0.37093 0.72782 0.13236 0.0
C2079 C 0.34391 0.69037 0.12046 0.0
C2080 C 0.33376 0.68139 0.13431 0.0
C2081 C 0.34057 0.69694 0.14706 0.0
C2082 C 0.35912 0.71996 0.14611 0.0
C2083 C 0.31873 0.65405 0.13552 0.0
C2084 C 0.29034 0.65363 0.14013 0.0
C2085 C 0.33218 0.62853 0.13129 0.0
C2086 C 0.36262 0.62755 0.12712 0.0
C2087 C 0.38348 0.63743 0.13698 0.0
C2088 C 0.41207 0.63692 0.13291 0.0
C2089 C 0.42008 0.62635 0.11905 0.0
C2090 C 0.39952 0.6162 0.10924 0.0
C2091 C 0.37089 0.61672 0.11325 0.0
H2092 H 0.44222 0.62596 0.11591 0.0
H2093 H 0.16427 0.63208 0.15451 0.0
H2094 H 0.27782 0.37538 0.10945 0.0
H2095 H 0.31727 0.34289 0.11361 0.0
H2096 H 0.30678 0.35179 0.16093 0.0
H2097 H 0.26726 0.38436 0.15691 0.0
H2098 H 0.36133 0.36112 0.15194 0.0
H2099 H 0.29095 0.29017 0.14537 0.0
H2100 H 0.25084 0.26589 0.13335 0.0
H2101 H 0.30128 0.25202 0.09435 0.0
H2102 H 0.34159 0.2766 0.10605 0.0
H2103 H 0.47407 0.26114 0.16251 0.0
H2104 H 0.42711 0.28314 0.1641 0.0
H2105 H 0.4217 0.28433 0.11633 0.0
H2106 H 0.46829 0.26242 0.1146 0.0
H2107 H 0.37236 0.26588 0.12934 0.0
H2108 H 0.43935 0.34293 0.13437 0.0
H2109 H 0.47954 0.36812 0.14583 0.0
H2110 H 0.43504 0.37096 0.18739 0.0
H2111 H 0.39472 0.34542 0.1762 0.0
C2112 C 0.28363 0.37017 0.12075 0.0
C2113 C 0.26951 0.38263 0.13284 0.0
C2114 C 0.30609 0.35148 0.12311 0.0
C2115 C 0.31482 0.34489 0.13758 0.0
C2116 C 0.3003 0.35663 0.14968 0.0
C2117 C 0.2777 0.37519 0.14734 0.0
C2118 C 0.3405 0.32754 0.13996 0.0
C2119 C 0.36354 0.34001 0.14731 0.0
C2120 C 0.34345 0.30026 0.13367 0.0
C2121 C 0.31926 0.28543 0.12657 0.0
C2122 C 0.29343 0.28215 0.13419 0.0
C2123 C 0.27066 0.26829 0.12744 0.0
C2124 C 0.27349 0.25746 0.11308 0.0
C2125 C 0.29912 0.26043 0.10546 0.0
C2126 C 0.32195 0.27429 0.11216 0.0
C2127 C 0.46286 0.26608 0.15235 0.0
C2128 C 0.47501 0.26018 0.13843 0.0
C2129 C 0.43607 0.27861 0.15329 0.0
C2130 C 0.42105 0.28537 0.14032 0.0
C2131 C 0.43294 0.27915 0.12645 0.0
C2132 C 0.45968 0.2668 0.1255 0.0
C2133 C 0.39326 0.29975 0.14103 0.0
C2134 C 0.36989 0.28674 0.13424 0.0
C2135 C 0.39001 0.32659 0.14778 0.0
C2136 C 0.4142 0.34195 0.15451 0.0
C2137 C 0.43825 0.34869 0.14599 0.0
C2138 C 0.46103 0.36308 0.15243 0.0
C2139 C 0.45989 0.37105 0.16735 0.0
C2140 C 0.43593 0.36472 0.17585 0.0
C2141 C 0.4131 0.35029 0.16946 0.0
H2142 H 0.47753 0.3822 0.17231 0.0
H2143 H 0.25584 0.24673 0.10788 0.0
H2144 H 0.06195 0.22546 0.45361 0.0
H2145 H 0.0426 0.22913 0.4787 0.0
H2146 H 0.00115 0.30747 0.4669 0.0
H2147 H 0.02138 0.30447 0.44197 0.0
H2148 H 0.01987 0.31206 0.4937 0.0
H2149 H 0.96529 0.242 0.46833 0.0
H2150 H 0.95682 0.19878 0.45361 0.0
H2151 H 0.99467 0.14818 0.48788 0.0
H2152 H 0.00373 0.19117 0.50272 0.0
H2153 H 0.91946 0.3075 0.55367 0.0
H2154 H 0.93908 0.30543 0.52845 0.0
H2155 H 0.99698 0.23981 0.54216 0.0
H2156 H 0.9779 0.24208 0.56739 0.0
H2157 H 0.96825 0.22936 0.51436 0.0
H2158 H 0.02226 0.30199 0.53949 0.0
H2159 H 0.0275 0.34606 0.55393 0.0
H2160 H 0.98623 0.39293 0.5193 0.0
H2161 H 0.98032 0.34902 0.50475 0.0
C2162 C 0.04893 0.2436 0.45639 0.0
C2163 C 0.04307 0.26456 0.44574 0.0
C2164 C 0.03768 0.24559 0.47073 0.0
C2165 C 0.0198 0.26824 0.47465 0.0
C2166 C 0.01475 0.2897 0.46417 0.0
C2167 C 0.02633 0.28795 0.4499 0.0
C2168 C 0.00596 0.26926 0.48953 0.0
C2169 C 0.00828 0.29406 0.49809 0.0
C2170 C 0.99095 0.24577 0.49543 0.0
C2171 C 0.98544 0.21985 0.48657 0.0
C2172 C 0.97199 0.22168 0.47268 0.0
C2173 C 0.96706 0.19722 0.46432 0.0
C2174 C 0.97527 0.17076 0.46979 0.0
C2175 C 0.98836 0.1687 0.48365 0.0
C2176 C 0.99338 0.1931 0.49204 0.0
C2177 C 0.93621 0.29248 0.55127 0.0
C2178 C 0.94716 0.27498 0.56253 0.0
C2179 C 0.94746 0.29141 0.53689 0.0
C2180 C 0.96956 0.27255 0.53348 0.0
C2181 C 0.97994 0.2545 0.54457 0.0
C2182 C 0.96906 0.2559 0.55899 0.0
C2183 C 0.98238 0.27199 0.51843 0.0
C2184 C 0.97981 0.2473 0.50988 0.0
C2185 C 0.99673 0.2957 0.51245 0.0
C2186 C 0.00057 0.32216 0.52111 0.0
C2187 C 0.01408 0.32165 0.53501 0.0
C2188 C 0.01721 0.34661 0.5432 0.0
C2189 C 0.00713 0.37227 0.53755 0.0
C2190 C 0.99399 0.37303 0.52367 0.0
C2191 C 0.99075 0.34811 0.51544 0.0
H2192 H 0.00957 0.39157 0.54391 0.0
H2193 H 0.97143 0.15185 0.4633 0.0
H2194 H 0.70278 0.90615 0.55542 0.0
H2195 H 0.70461 0.92684 0.5305 0.0
H2196 H 0.74952 -0.00071 0.54789 0.0
H2197 H 0.7465 0.97938 0.57279 0.0
H2198 H 0.71219 0.01751 0.53018 0.0
H2199 H 0.78194 0.94388 0.52655 0.0
H2200 H 0.8007 0.8952 0.52816 0.0
H2201 H 0.73966 0.86727 0.49603 0.0
H2202 H 0.72028 0.91573 0.49437 0.0
H2203 H 0.76273 0.07085 0.46039 0.0
H2204 H 0.76013 0.04978 0.48524 0.0
H2205 H 0.69998 0.98813 0.46932 0.0
H2206 H 0.70218 0.00908 0.44459 0.0
H2207 H 0.74476 0.96442 0.48584 0.0
H2208 H 0.67639 0.04012 0.48965 0.0
H2209 H 0.66024 0.08971 0.48793 0.0
H2210 H 0.72289 0.11467 0.51988 0.0
H2211 H 0.73969 0.06526 0.52164 0.0
C2212 C 0.71318 0.92639 0.55387 0.0
C2213 C 0.72448 0.94114 0.56604 0.0
C2214 C 0.71434 0.93818 0.53962 0.0
C2215 C 0.72751 0.96456 0.53722 0.0
C2216 C 0.73913 0.97902 0.54939 0.0
C2217 C 0.73747 0.96755 0.56364 0.0
C2218 C 0.72858 0.97764 0.52218 0.0
C2219 C 0.71973 0.00593 0.52056 0.0
C2220 C 0.73787 0.96253 0.50948 0.0
C2221 C 0.74947 0.93337 0.51046 0.0
C2222 C 0.77237 0.92731 0.51991 0.0
C2223 C 0.78315 0.89976 0.52082 0.0
C2224 C 0.77133 0.87814 0.51223 0.0
C2225 C 0.74876 0.88403 0.50269 0.0
C2226 C 0.73789 0.91154 0.50176 0.0
C2227 C 0.74882 0.05292 0.46221 0.0
C2228 C 0.73267 0.04167 0.4505 0.0
C2229 C 0.74735 0.04093 0.4764 0.0
C2230 C 0.72985 0.0174 0.47909 0.0
C2231 C 0.71366 0.00622 0.46746 0.0
C2232 C 0.71488 0.01834 0.45334 0.0
C2233 C 0.72862 0.00414 0.494 0.0
C2234 C 0.73735 0.97587 0.49554 0.0
C2235 C 0.71965 0.01936 0.50666 0.0
C2236 C 0.70949 0.04904 0.50566 0.0
C2237 C 0.68689 0.05622 0.49622 0.0
C2238 C 0.67758 0.08429 0.49526 0.0
C2239 C 0.69058 0.10534 0.50376 0.0
C2240 C 0.71287 0.09835 0.51328 0.0
C2241 C 0.72228 0.07032 0.51427 0.0
H2242 H 0.68334 0.12706 0.50301 0.0
H2243 H 0.7797 0.85682 0.51295 0.0
H2244 H 0.07167 0.68305 0.55274 0.0
H2245 H 0.05159 0.68547 0.52775 0.0
H2246 H 0.00152 0.75797 0.5407 0.0
H2247 H 0.02058 0.75481 0.56581 0.0
H2248 H 0.96987 0.72498 0.52581 0.0
H2249 H 0.063 0.76215 0.51772 0.0
H2250 H 0.11523 0.76288 0.51845 0.0
H2251 H 0.11819 0.68755 0.49177 0.0
H2252 H 0.06594 0.68616 0.49104 0.0
H2253 H 0.93742 0.77427 0.4523 0.0
H2254 H 0.95631 0.76939 0.47749 0.0
H2255 H 0.98755 0.686 0.46676 0.0
H2256 H 0.96838 0.69045 0.44166 0.0
H2257 H 0.02844 0.72344 0.4801 0.0
H2258 H 0.9335 0.68894 0.48803 0.0
H2259 H 0.88136 0.69148 0.48696 0.0
H2260 H 0.88248 0.76673 0.51374 0.0
H2261 H 0.93469 0.76487 0.51479 0.0
C2262 C 0.05657 0.69964 0.5502 0.0
C2263 C 0.04775 0.71876 0.56122 0.0
C2264 C 0.04515 0.70109 0.53589 0.0
C2265 C 0.02521 0.72213 0.53222 0.0
C2266 C 0.01675 0.74147 0.54321 0.0
C2267 C 0.02776 0.73971 0.55756 0.0
C2268 C 0.01247 0.7236 0.51712 0.0
C2269 C 0.9828 0.72504 0.51585 0.0
C2270 C 0.02913 0.72313 0.50402 0.0
C2271 C 0.06055 0.72388 0.50446 0.0
C2272 C 0.07479 0.74561 0.51211 0.0
C2273 C 0.10439 0.74617 0.5125 0.0
C2274 C 0.12002 0.72523 0.50519 0.0
C2275 C 0.10606 0.70373 0.49744 0.0
C2276 C 0.07645 0.70305 0.49702 0.0
C2277 C 0.94803 0.75477 0.45535 0.0
C2278 C 0.95137 0.73275 0.44498 0.0
C2279 C 0.95879 0.75202 0.46974 0.0
C2280 C 0.97334 0.72735 0.47395 0.0
C2281 C 0.97642 0.70522 0.4637 0.0
C2282 C 0.96531 0.70776 0.44939 0.0
C2283 C 0.98609 0.725 0.48893 0.0
C2284 C 0.01569 0.72338 0.49012 0.0
C2285 C 0.96942 0.72581 0.50195 0.0
C2286 C 0.93803 0.72692 0.50136 0.0
C2287 C 0.92265 0.70618 0.49357 0.0
C2288 C 0.89308 0.70746 0.493 0.0
C2289 C 0.87862 0.7293 0.50024 0.0
C2290 C 0.89371 0.74985 0.50811 0.0
C2291 C 0.92329 0.74868 0.50871 0.0
H2292 H 0.85572 0.73025 0.49978 0.0
H2293 H 0.14294 0.7257 0.50551 0.0
H2294 H 0.25035 0.00611 0.5746 0.0
H2295 H 0.24908 0.98605 0.54967 0.0
H2296 H 0.29705 0.05728 0.53318 0.0
H2297 H 0.29735 0.07808 0.55808 0.0
H2298 H 0.25833 0.04491 0.51408 0.0
H2299 H 0.3271 0.98947 0.5402 0.0
H2300 H 0.34511 0.95983 0.56067 0.0
H2301 H 0.28197 0.89687 0.55127 0.0
H2302 H 0.26327 0.92633 0.5309 0.0
H2303 H 0.29895 0.98113 0.44604 0.0
H2304 H 0.30157 -0.0001 0.47127 0.0
H2305 H 0.24099 0.9375 0.48592 0.0
H2306 H 0.23807 0.91859 0.46064 0.0
H2307 H 0.28689 0.94494 0.50574 0.0
H2308 H 0.21836 0.0019 0.47963 0.0
H2309 H 0.20164 0.03194 0.45903 0.0
H2310 H 0.26718 0.09249 0.4683 0.0
H2311 H 0.28456 0.06258 0.48883 0.0
C2312 C 0.26057 0.01759 0.56566 0.0
C2313 C 0.27407 0.04367 0.56835 0.0
C2314 C 0.26 0.00596 0.5514 0.0
C2315 C 0.27353 0.01976 0.53953 0.0
C2316 C 0.28656 0.04611 0.54213 0.0
C2317 C 0.28673 0.058 0.55638 0.0
C2318 C 0.27394 0.0068 0.52442 0.0
C2319 C 0.26501 0.02318 0.51227 0.0
C2320 C 0.28214 0.97822 0.52199 0.0
C2321 C 0.29363 0.96024 0.53409 0.0
C2322 C 0.31695 0.96938 0.54255 0.0
C2323 C 0.32728 0.95261 0.55414 0.0
C2324 C 0.31464 0.92652 0.55729 0.0
C2325 C 0.29173 0.91709 0.54882 0.0
C2326 C 0.28125 0.93381 0.53725 0.0
C2327 C 0.2863 0.9712 0.45462 0.0
C2328 C 0.26812 0.94844 0.45126 0.0
C2329 C 0.28779 0.98204 0.46905 0.0
C2330 C 0.27126 0.9703 0.48045 0.0
C2331 C 0.25389 0.94692 0.47728 0.0
C2332 C 0.25219 0.93619 0.46281 0.0
C2333 C 0.27136 0.98311 0.49553 0.0
C2334 C 0.28035 0.96669 0.50762 0.0
C2335 C 0.26352 0.01171 0.49791 0.0
C2336 C 0.25292 0.02987 0.48567 0.0
C2337 C 0.22934 0.02151 0.4772 0.0
C2338 C 0.21973 0.03853 0.46555 0.0
C2339 C 0.23339 0.06407 0.46233 0.0
C2340 C 0.25665 0.07268 0.47079 0.0
C2341 C 0.26637 0.05572 0.48244 0.0
H2342 H 0.22592 0.07721 0.4533 0.0
H2343 H 0.32262 0.91359 0.56629 0.0
H2344 H 0.50676 0.75314 0.94424 0.0
H2345 H 0.48668 0.75294 0.96915 0.0
H2346 H 0.55978 0.798 0.98553 0.0
H2347 H 0.58047 0.79761 0.96057 0.0
H2348 H 0.54509 0.75857 1.00471 0.0
H2349 H 0.49623 0.83191 0.97941 0.0
H2350 H 0.46918 0.85421 0.95916 0.0
H2351 H 0.40041 0.79633 0.96654 0.0
H2352 H 0.42728 0.77331 0.98669 0.0
H2353 H 0.47827 0.7996 0.07231 0.0
H2354 H 0.49881 0.80272 0.04748 0.0
H2355 H 0.43685 0.74325 0.03123 0.0
H2356 H 0.41625 0.73967 0.05616 0.0
H2357 H 0.44651 0.7923 0.01242 0.0
H2358 H 0.49903 0.71889 0.03808 0.0
H2359 H 0.52715 0.70022 0.05895 0.0
H2360 H 0.59045 0.76402 0.0515 0.0
H2361 H 0.56248 0.78333 0.03072 0.0
C2362 C 0.51866 0.76299 0.95312 0.0
C2363 C 0.54518 0.77555 0.95038 0.0
C2364 C 0.50705 0.76297 0.96738 0.0
C2365 C 0.52142 0.77593 0.97921 0.0
C2366 C 0.54821 0.78796 0.97659 0.0
C2367 C 0.56 0.78777 0.9623 0.0
C2368 C 0.50832 0.77687 0.99425 0.0
C2369 C 0.52368 0.76634 1.0064 0.0
C2370 C 0.48028 0.78681 0.99651 0.0
C2371 C 0.4639 0.80071 0.98448 0.0
C2372 C 0.47543 0.82379 0.97665 0.0
C2373 C 0.46011 0.83659 0.9652 0.0
C2374 C 0.43311 0.82668 0.96155 0.0
C2375 C 0.42135 0.80397 0.96937 0.0
C2376 C 0.43661 0.79104 0.98082 0.0
C2377 C 0.46881 0.78731 0.06346 0.0
C2378 C 0.44566 0.76925 0.06625 0.0
C2379 C 0.48066 0.78909 0.04927 0.0
C2380 C 0.4695 0.77305 0.03756 0.0
C2381 C 0.44579 0.75576 0.04015 0.0
C2382 C 0.4341 0.75369 0.0544 0.0
C2383 C 0.48316 0.77369 0.02272 0.0
C2384 C 0.46791 0.78459 0.01066 0.0
C2385 C 0.51147 0.76462 0.02059 0.0
C2386 C 0.52853 0.75272 0.03293 0.0
C2387 C 0.51884 0.72906 0.04096 0.0
C2388 C 0.53477 0.71834 0.05277 0.0
C2389 C 0.56053 0.73097 0.05659 0.0
C2390 C 0.57047 0.75428 0.04856 0.0
C2391 C 0.5546 0.7651 0.03675 0.0
H2392 H 0.57282 0.72263 0.06574 0.0
H2393 H 0.42129 0.83662 0.95268 0.0
H2394 H 0.22561 0.48937 0.06872 0.0
H2395 H 0.22518 0.50741 0.04341 0.0
H2396 H 0.22681 0.42188 0.02652 0.0
H2397 H 0.228 0.40356 0.05198 0.0
H2398 H 0.2612 0.45445 0.0107 0.0
H2399 H 0.16527 0.4614 0.02687 0.0
H2400 H 0.12609 0.4745 0.04364 0.0
H2401 H 0.14657 0.56257 0.0383 0.0
H2402 H 0.18619 0.54997 0.02168 0.0
H2403 H 0.21892 0.49336 0.93752 0.0
H2404 H 0.21961 0.47321 0.96248 0.0
H2405 H 0.22823 0.55696 0.98108 0.0
H2406 H 0.22769 0.5774 0.95606 0.0
H2407 H 0.18766 0.52385 0.99559 0.0
H2408 H 0.28435 0.51522 0.97912 0.0
H2409 H 0.32259 0.50062 0.96209 0.0
H2410 H 0.29873 0.41343 0.96749 0.0
H2411 H 0.25998 0.42755 0.98435 0.0
C2412 C 0.2259 0.47431 0.05965 0.0
C2413 C 0.22666 0.44496 0.0624 0.0
C2414 C 0.22552 0.4847 0.04515 0.0
C2415 C 0.22542 0.46603 0.03302 0.0
C2416 C 0.22675 0.43671 0.0357 0.0
C2417 C 0.22736 0.42626 0.05026 0.0
C2418 C 0.22392 0.47729 0.0176 0.0
C2419 C 0.24485 0.46928 0.00734 0.0
C2420 C 0.20285 0.49701 0.01324 0.0
C2421 C 0.17887 0.50471 0.02313 0.0
C2422 C 0.16155 0.48355 0.02935 0.0
C2423 C 0.13925 0.49089 0.03882 0.0
C2424 C 0.13388 0.51934 0.04206 0.0
C2425 C 0.15077 0.54053 0.0358 0.0
C2426 C 0.17315 0.5333 0.02634 0.0
C2427 C 0.22088 0.50757 0.9469 0.0
C2428 C 0.22327 0.53704 0.94479 0.0
C2429 C 0.2214 0.49597 0.96117 0.0
C2430 C 0.2242 0.51355 0.97363 0.0
C2431 C 0.22611 0.54301 0.9716 0.0
C2432 C 0.22587 0.55464 0.9573 0.0
C2433 C 0.22505 0.50119 0.98879 0.0
C2434 C 0.20394 0.50897 0.99897 0.0
C2435 C 0.24575 0.48101 0.99301 0.0
C2436 C 0.26907 0.47248 0.98288 0.0
C2437 C 0.28708 0.49296 0.97657 0.0
C2438 C 0.30889 0.48476 0.96698 0.0
C2439 C 0.31308 0.45612 0.96372 0.0
C2440 C 0.29549 0.43561 0.97006 0.0
C2441 C 0.27358 0.4437 0.97962 0.0
H2442 H 0.32994 0.44982 0.95626 0.0
H2443 H 0.11661 0.52498 0.04939 0.0
H2444 H 0.58094 0.19193 0.06023 0.0
H2445 H 0.56204 0.19335 0.03495 0.0
H2446 H 0.50059 0.25601 0.04851 0.0
H2447 H 0.5186 0.25378 0.07382 0.0
H2448 H 0.47527 0.21936 0.03255 0.0
H2449 H 0.56159 0.27168 0.02673 0.0
H2450 H 0.613 0.28057 0.02824 0.0
H2451 H 0.62893 0.20918 0.99989 0.0
H2452 H 0.57761 0.19964 0.99836 0.0
H2453 H 0.4361 0.26729 0.95988 0.0
H2454 H 0.45525 0.2643 0.9851 0.0
H2455 H 0.50269 0.18974 0.97291 0.0
H2456 H 0.48348 0.19233 0.94777 0.0
H2457 H 0.53514 0.23155 0.98775 0.0
H2458 H 0.44704 0.18115 0.99349 0.0
H2459 H 0.39527 0.175 0.99171 0.0
H2460 H 0.3826 0.24696 0.02011 0.0
H2461 H 0.43432 0.25379 0.0219 0.0
C2462 C 0.56356 0.20616 0.05777 0.0
C2463 C 0.55127 0.22274 0.06902 0.0
C2464 C 0.55281 0.20705 0.04329 0.0
C2465 C 0.53 0.22501 0.03972 0.0
C2466 C 0.51808 0.24188 0.05094 0.0
C2467 C 0.52848 0.24066 0.06542 0.0
C2468 C 0.51785 0.2257 0.02447 0.0
C2469 C 0.4884 0.22243 0.0228 0.0
C2470 C 0.5349 0.22913 0.01164 0.0
C2471 C 0.56577 0.23476 0.01257 0.0
C2472 C 0.57607 0.25773 0.02092 0.0
C2473 C 0.60519 0.26292 0.02176 0.0
C2474 C 0.62423 0.2454 0.0142 0.0
C2475 C 0.61417 0.2227 1.00576 0.0
C2476 C 0.58507 0.21741 1.00489 0.0
C2477 C 0.45043 0.25013 0.9626 0.0
C2478 C 0.45824 0.23006 0.95181 0.0
C2479 C 0.46133 0.24844 0.97701 0.0
C2480 C 0.48039 0.22679 0.98085 0.0
C2481 C 0.48807 0.20664 0.97015 0.0
C2482 C 0.47694 0.2081 0.95581 0.0
C2483 C 0.49274 0.22544 0.99596 0.0
C2484 C 0.52215 0.22852 0.99756 0.0
C2485 C 0.47565 0.22227 0.00873 0.0
C2486 C 0.44455 0.21815 0.0077 0.0
C2487 C 0.43321 0.19581 0.99925 0.0
C2488 C 0.40387 0.19217 0.99826 0.0
C2489 C 0.38565 0.21062 1.00576 0.0
C2490 C 0.39674 0.23271 0.01429 0.0
C2491 C 0.42606 0.23646 0.01531 0.0
H2492 H 0.36294 0.20777 1.00498 0.0
H2493 H 0.64676 0.24945 0.01486 0.0
H2494 H 0.74157 0.46871 0.9446 0.0
H2495 H 0.74253 0.48973 0.96936 0.0
H2496 H 0.82441 0.45177 0.97728 0.0
H2497 H 0.82257 0.42925 0.95281 0.0
H2498 H 0.79804 0.44963 1.00125 0.0
H2499 H 0.81385 0.52518 0.96735 0.0
H2500 H 0.80473 0.55584 0.94572 0.0
H2501 H 0.72565 0.58229 0.96483 0.0
H2502 H 0.7341 0.55147 0.98649 0.0
H2503 H 0.80668 0.58394 0.05273 0.0
H2504 H 0.80936 0.56292 0.0279 0.0
H2505 H 0.75604 0.49396 0.04236 0.0
H2506 H 0.75411 0.51426 0.06721 0.0
H2507 H 0.77396 0.5514 0.00696 0.0
H2508 H 0.77311 0.43318 0.02591 0.0
H2509 H 0.78974 0.40464 0.04712 0.0
H2510 H 0.85282 0.4674 0.057 0.0
H2511 H 0.83687 0.4961 0.03574 0.0
C2512 C 0.75964 0.46465 0.95171 0.0
C2513 C 0.78202 0.44739 0.94679 0.0
C2514 C 0.76033 0.47691 0.96582 0.0
C2515 C 0.78391 0.47309 0.97513 0.0
C2516 C 0.80599 0.45522 0.97035 0.0
C2517 C 0.80494 0.44231 0.95636 0.0
C2518 C 0.78554 0.48774 0.9898 0.0
C2519 C 0.79281 0.47189 1.00244 0.0
C2520 C 0.77959 0.51707 0.99145 0.0
C2521 C 0.77451 0.53583 0.97849 0.0
C2522 C 0.79444 0.53741 0.9669 0.0
C2523 C 0.78939 0.55483 0.95464 0.0
C2524 C 0.7646 0.57096 0.95389 0.0
C2525 C 0.74483 0.56976 0.96542 0.0
C2526 C 0.74975 0.55234 0.9777 0.0
C2527 C 0.79547 0.56434 0.05059 0.0
C2528 C 0.78037 0.55066 0.06198 0.0
C2529 C 0.79699 0.55235 0.03638 0.0
C2530 C 0.78334 0.52654 0.03328 0.0
C2531 C 0.76739 0.51346 0.04453 0.0
C2532 C 0.76617 0.52521 0.05874 0.0
C2533 C 0.78575 0.51309 0.01836 0.0
C2534 C 0.77928 0.52917 1.00571 0.0
C2535 C 0.79358 0.48428 0.01661 0.0
C2536 C 0.80359 0.4669 0.0293 0.0
C2537 C 0.79062 0.44081 0.03256 0.0
C2538 C 0.79991 0.42462 0.04461 0.0
C2539 C 0.82227 0.43424 0.05343 0.0
C2540 C 0.83545 0.46002 0.0502 0.0
C2541 C 0.82627 0.47626 0.03816 0.0
H2542 H 0.8294 0.42169 0.06276 0.0
H2543 H 0.76072 0.58442 0.94438 0.0
loop_
_geom_bond_atom_site_label_1
_geom_bond_atom_site_label_2
_geom_bond_distance
_geom_bond_site_symmetry_2
_ccdc_geom_bond_type
Co0 O3 1.970 . S
Co0 N17 1.989 . S
Co0 O25 1.967 . S
Co0 O32 1.920 . S
Co1 O4 1.966 . S
Co1 N10 2.022 . S
Co1 N18 1.993 . S
Co1 O26 1.941 . S
C2 O3 1.258 . S
C2 O4 1.263 . S
O3 Co0 1.970 . S
O3 C2 1.258 . S
O4 Co1 1.966 . S
O4 C2 1.263 . S
C5 O6 1.235 . S
C5 O32 1.289 . S
O6 C5 1.235 . S
C7 C9 1.400 . S
C7 N10 1.351 . S
C7 C12 1.501 . S
C8 C9 1.387 . S
C8 N11 1.341 . S
C9 C7 1.400 . S
C9 C8 1.387 . S
N10 Co1 2.022 . S
N10 C7 1.351 . S
N10 N11 1.365 . S
N11 C8 1.341 . S
N11 N10 1.365 . S
N11 H31 0.862 . S
C12 C7 1.501 . S
C12 H13 0.961 . S
C12 H14 0.961 . S
C12 H15 0.960 . S
H13 C12 0.961 . S
H14 C12 0.961 . S
H15 C12 0.960 . S
C16 N17 1.342 . S
C16 C20 1.401 . S
C16 C21 1.499 . S
N17 Co0 1.989 . S
N17 C16 1.342 . S
N17 N18 1.388 . S
N18 Co1 1.993 . S
N18 N17 1.388 . S
N18 C19 1.346 . S
C19 N18 1.346 . S
C19 C20 1.396 . S
C19 C29 1.510 . S
C20 C16 1.401 . S
C20 C19 1.396 . S
C21 C16 1.499 . S
C21 H22 0.959 . S
C21 H23 0.960 . S
C21 H24 0.961 . S
H22 C21 0.959 . S
H23 C21 0.960 . S
H24 C21 0.961 . S
O25 Co0 1.967 . S
O25 C33 1.258 1_455 S
O26 Co1 1.941 . S
O26 C33 1.266 1_455 S
H27 C29 0.959 . S
H28 C29 0.961 . S
C29 C19 1.510 . S
C29 H27 0.959 . S
C29 H28 0.961 . S
C29 H30 0.960 . S
H30 C29 0.960 . S
H31 N11 0.862 . S
O32 Co0 1.920 . S
O32 C5 1.289 . S
C33 O25 1.258 1_655 S
C33 O26 1.266 1_655 S
Co34 O37 1.970 . S
Co34 N51 1.989 . S
Co34 O59 1.967 . S
Co34 O66 1.920 . S
Co35 O38 1.966 . S
Co35 N44 2.022 . S
Co35 N52 1.993 . S
Co35 O60 1.941 . S
C36 O37 1.258 . S
C36 O38 1.263 . S
O37 Co34 1.970 . S
O37 C36 1.258 . S
O38 Co35 1.966 . S
O38 C36 1.263 . S
C39 O40 1.235 . S
C39 O66 1.289 . S
O40 C39 1.235 . S
C41 C43 1.400 . S
C41 N44 1.351 . S
C41 C46 1.501 . S
C42 C43 1.387 . S
C42 N45 1.341 . S
C43 C41 1.400 . S
C43 C42 1.387 . S
N44 Co35 2.022 . S
N44 C41 1.351 . S
N44 N45 1.365 . S
N45 C42 1.341 . S
N45 N44 1.365 . S
N45 H65 0.862 . S
C46 C41 1.501 . S
C46 H47 0.961 . S
C46 H48 0.961 . S
C46 H49 0.960 . S
H47 C46 0.961 . S
H48 C46 0.961 . S
H49 C46 0.960 . S
C50 N51 1.342 . S
C50 C54 1.401 . S
C50 C55 1.499 . S
N51 Co34 1.989 . S
N51 C50 1.342 . S
N51 N52 1.388 . S
N52 Co35 1.993 . S
N52 N51 1.388 . S
N52 C53 1.346 . S
C53 N52 1.346 . S
C53 C54 1.396 . S
C53 C63 1.510 . S
C54 C50 1.401 . S
C54 C53 1.396 . S
C55 C50 1.499 . S
C55 H56 0.959 . S
C55 H57 0.960 . S
C55 H58 0.961 . S
H56 C55 0.959 . S
H57 C55 0.960 . S
H58 C55 0.961 . S
O59 Co34 1.967 . S
O59 C67 1.258 1_545 S
O60 Co35 1.941 . S
O60 C67 1.266 1_545 S
H61 C63 0.959 . S
H62 C63 0.961 . S
C63 C53 1.510 . S
C63 H61 0.959 . S
C63 H62 0.961 . S
C63 H64 0.960 . S
H64 C63 0.960 . S
H65 N45 0.862 . S
O66 Co34 1.920 . S
O66 C39 1.289 . S
C67 O59 1.258 1_565 S
C67 O60 1.266 1_565 S
Co68 O71 1.970 . S
Co68 N85 1.989 . S
Co68 O93 1.967 . S
Co68 O100 1.920 . S
Co69 O72 1.966 . S
Co69 N78 2.022 . S
Co69 N86 1.993 . S
Co69 O94 1.941 . S
C70 O71 1.258 . S
C70 O72 1.263 . S
O71 Co68 1.970 . S
O71 C70 1.258 . S
O72 Co69 1.966 . S
O72 C70 1.263 . S
C73 O74 1.235 . S
C73 O100 1.289 . S
O74 C73 1.235 . S
C75 C77 1.400 . S
C75 N78 1.351 . S
C75 C80 1.501 . S
C76 C77 1.387 . S
C76 N79 1.341 . S
C77 C75 1.400 . S
C77 C76 1.387 . S
N78 Co69 2.022 . S
N78 C75 1.351 . S
N78 N79 1.365 . S
N79 C76 1.341 . S
N79 N78 1.365 . S
N79 H99 0.862 . S
C80 C75 1.501 . S
C80 H81 0.961 . S
C80 H82 0.961 . S
C80 H83 0.960 . S
H81 C80 0.961 . S
H82 C80 0.961 . S
H83 C80 0.960 . S
C84 N85 1.342 . S
C84 C88 1.401 . S
C84 C89 1.499 . S
N85 Co68 1.989 . S
N85 C84 1.342 . S
N85 N86 1.388 . S
N86 Co69 1.993 . S
N86 N85 1.388 . S
N86 C87 1.346 . S
C87 N86 1.346 . S
C87 C88 1.396 . S
C87 C97 1.510 . S
C88 C84 1.401 . S
C88 C87 1.396 . S
C89 C84 1.499 . S
C89 H90 0.959 . S
C89 H91 0.960 . S
C89 H92 0.961 . S
H90 C89 0.959 . S
H91 C89 0.960 . S
H92 C89 0.961 . S
O93 Co68 1.967 . S
O93 C101 1.258 1_655 S
O94 Co69 1.941 . S
O94 C101 1.266 1_655 S
H95 C97 0.959 . S
H96 C97 0.961 . S
C97 C87 1.510 . S
C97 H95 0.959 . S
C97 H96 0.961 . S
C97 H98 0.960 . S
H98 C97 0.960 . S
H99 N79 0.862 . S
O100 Co68 1.920 . S
O100 C73 1.289 . S
C101 O93 1.258 1_455 S
C101 O94 1.266 1_455 S
Co102 O105 1.970 . S
Co102 N119 1.989 . S
Co102 O127 1.967 . S
Co102 O134 1.920 . S
Co103 O106 1.966 . S
Co103 N112 2.022 . S
Co103 N120 1.993 . S
Co103 O128 1.941 . S
C104 O105 1.258 . S
C104 O106 1.263 . S
O105 Co102 1.970 . S
O105 C104 1.258 . S
O106 Co103 1.966 . S
O106 C104 1.263 . S
C107 O108 1.235 . S
C107 O134 1.289 . S
O108 C107 1.235 . S
C109 C111 1.400 . S
C109 N112 1.351 . S
C109 C114 1.501 . S
C110 C111 1.387 . S
C110 N113 1.341 . S
C111 C109 1.400 . S
C111 C110 1.387 . S
N112 Co103 2.022 . S
N112 C109 1.351 . S
N112 N113 1.365 . S
N113 C110 1.341 . S
N113 N112 1.365 . S
N113 H133 0.862 . S
C114 C109 1.501 . S
C114 H115 0.961 . S
C114 H116 0.961 . S
C114 H117 0.960 . S
H115 C114 0.961 . S
H116 C114 0.961 . S
H117 C114 0.960 . S
C118 N119 1.342 . S
C118 C122 1.401 . S
C118 C123 1.499 . S
N119 Co102 1.989 . S
N119 C118 1.342 . S
N119 N120 1.388 . S
N120 Co103 1.993 . S
N120 N119 1.388 . S
N120 C121 1.346 . S
C121 N120 1.346 . S
C121 C122 1.396 . S
C121 C131 1.510 . S
C122 C118 1.401 . S
C122 C121 1.396 . S
C123 C118 1.499 . S
C123 H124 0.959 . S
C123 H125 0.960 . S
C123 H126 0.961 . S
H124 C123 0.959 . S
H125 C123 0.960 . S
H126 C123 0.961 . S
O127 Co102 1.967 . S
O127 C135 1.258 1_565 S
O128 Co103 1.941 . S
O128 C135 1.266 1_565 S
H129 C131 0.959 . S
H130 C131 0.961 . S
C131 C121 1.510 . S
C131 H129 0.959 . S
C131 H130 0.961 . S
C131 H132 0.960 . S
H132 C131 0.960 . S
H133 N113 0.862 . S
O134 Co102 1.920 . S
O134 C107 1.289 . S
C135 O127 1.258 1_545 S
C135 O128 1.266 1_545 S
Co136 O139 1.970 . S
Co136 N153 1.989 . S
Co136 O161 1.967 . S
Co136 O168 1.920 . S
Co137 O140 1.966 . S
Co137 N146 2.022 . S
Co137 N154 1.993 . S
Co137 O162 1.941 . S
C138 O139 1.258 . S
C138 O140 1.263 . S
O139 Co136 1.970 . S
O139 C138 1.258 . S
O140 Co137 1.966 . S
O140 C138 1.263 . S
C141 O142 1.235 . S
C141 O168 1.289 . S
O142 C141 1.235 . S
C143 C145 1.400 . S
C143 N146 1.351 . S
C143 C148 1.501 . S
C144 C145 1.387 . S
C144 N147 1.341 . S
C145 C143 1.400 . S
C145 C144 1.387 . S
N146 Co137 2.022 . S
N146 C143 1.351 . S
N146 N147 1.365 . S
N147 C144 1.341 . S
N147 N146 1.365 . S
N147 H167 0.862 . S
C148 C143 1.501 . S
C148 H149 0.961 . S
C148 H150 0.961 . S
C148 H151 0.960 . S
H149 C148 0.961 . S
H150 C148 0.961 . S
H151 C148 0.960 . S
C152 N153 1.342 . S
C152 C156 1.401 . S
C152 C157 1.499 . S
N153 Co136 1.989 . S
N153 C152 1.342 . S
N153 N154 1.388 . S
N154 Co137 1.993 . S
N154 N153 1.388 . S
N154 C155 1.346 . S
C155 N154 1.346 . S
C155 C156 1.396 . S
C155 C165 1.510 . S
C156 C152 1.401 . S
C156 C155 1.396 . S
C157 C152 1.499 . S
C157 H158 0.959 . S
C157 H159 0.960 . S
C157 H160 0.961 . S
H158 C157 0.959 . S
H159 C157 0.960 . S
H160 C157 0.961 . S
O161 Co136 1.967 . S
O161 C169 1.258 1_455 S
O162 Co137 1.941 . S
O162 C169 1.266 1_455 S
H163 C165 0.959 . S
H164 C165 0.961 . S
C165 C155 1.510 . S
C165 H163 0.959 . S
C165 H164 0.961 . S
C165 H166 0.960 . S
H166 C165 0.960 . S
H167 N147 0.862 . S
O168 Co136 1.920 . S
O168 C141 1.289 . S
C169 O161 1.258 1_655 S
C169 O162 1.266 1_655 S
Co170 O173 1.970 . S
Co170 N187 1.989 . S
Co170 O195 1.967 . S
Co170 O202 1.920 . S
Co171 O174 1.966 . S
Co171 N180 2.022 . S
Co171 N188 1.993 . S
Co171 O196 1.941 . S
C172 O173 1.258 . S
C172 O174 1.263 . S
O173 Co170 1.970 . S
O173 C172 1.258 . S
O174 Co171 1.966 . S
O174 C172 1.263 . S
C175 O176 1.235 . S
C175 O202 1.289 . S
O176 C175 1.235 . S
C177 C179 1.400 . S
C177 N180 1.351 . S
C177 C182 1.501 . S
C178 C179 1.387 . S
C178 N181 1.341 . S
C179 C177 1.400 . S
C179 C178 1.387 . S
N180 Co171 2.022 . S
N180 C177 1.351 . S
N180 N181 1.365 . S
N181 C178 1.341 . S
N181 N180 1.365 . S
N181 H201 0.862 . S
C182 C177 1.501 . S
C182 H183 0.961 . S
C182 H184 0.961 . S
C182 H185 0.960 . S
H183 C182 0.961 . S
H184 C182 0.961 . S
H185 C182 0.960 . S
C186 N187 1.342 . S
C186 C190 1.401 . S
C186 C191 1.499 . S
N187 Co170 1.989 . S
N187 C186 1.342 . S
N187 N188 1.388 . S
N188 Co171 1.993 . S
N188 N187 1.388 . S
N188 C189 1.346 . S
C189 N188 1.346 . S
C189 C190 1.396 . S
C189 C199 1.510 . S
C190 C186 1.401 . S
C190 C189 1.396 . S
C191 C186 1.499 . S
C191 H192 0.959 . S
C191 H193 0.960 . S
C191 H194 0.961 . S
H192 C191 0.959 . S
H193 C191 0.960 . S
H194 C191 0.961 . S
O195 Co170 1.967 . S
O195 C203 1.258 1_545 S
O196 Co171 1.941 . S
O196 C203 1.266 1_545 S
H197 C199 0.959 . S
H198 C199 0.961 . S
C199 C189 1.510 . S
C199 H197 0.959 . S
C199 H198 0.961 . S
C199 H200 0.960 . S
H200 C199 0.960 . S
H201 N181 0.862 . S
O202 Co170 1.920 . S
O202 C175 1.289 . S
C203 O195 1.258 1_565 S
C203 O196 1.266 1_565 S
Co204 O207 1.970 . S
Co204 N221 1.989 . S
Co204 O229 1.967 . S
Co204 O236 1.920 . S
Co205 O208 1.966 . S
Co205 N214 2.022 . S
Co205 N222 1.993 . S
Co205 O230 1.941 . S
C206 O207 1.258 . S
C206 O208 1.263 . S
O207 Co204 1.970 . S
O207 C206 1.258 . S
O208 Co205 1.966 . S
O208 C206 1.263 . S
C209 O210 1.235 . S
C209 O236 1.289 . S
O210 C209 1.235 . S
C211 C213 1.400 . S
C211 N214 1.351 . S
C211 C216 1.501 . S
C212 C213 1.387 . S
C212 N215 1.341 . S
C213 C211 1.400 . S
C213 C212 1.387 . S
N214 Co205 2.022 . S
N214 C211 1.351 . S
N214 N215 1.365 . S
N215 C212 1.341 . S
N215 N214 1.365 . S
N215 H235 0.862 . S
C216 C211 1.501 . S
C216 H217 0.961 . S
C216 H218 0.961 . S
C216 H219 0.960 . S
H217 C216 0.961 . S
H218 C216 0.961 . S
H219 C216 0.960 . S
C220 N221 1.342 . S
C220 C224 1.401 . S
C220 C225 1.499 . S
N221 Co204 1.989 . S
N221 C220 1.342 . S
N221 N222 1.388 . S
N222 Co205 1.993 . S
N222 N221 1.388 . S
N222 C223 1.346 . S
C223 N222 1.346 . S
C223 C224 1.396 . S
C223 C233 1.510 . S
C224 C220 1.401 . S
C224 C223 1.396 . S
C225 C220 1.499 . S
C225 H226 0.959 . S
C225 H227 0.960 . S
C225 H228 0.961 . S
H226 C225 0.959 . S
H227 C225 0.960 . S
H228 C225 0.961 . S
O229 Co204 1.967 . S
O229 C237 1.258 1_655 S
O230 Co205 1.941 . S
O230 C237 1.266 1_655 S
H231 C233 0.959 . S
H232 C233 0.961 . S
C233 C223 1.510 . S
C233 H231 0.959 . S
C233 H232 0.961 . S
C233 H234 0.960 . S
H234 C233 0.960 . S
H235 N215 0.862 . S
O236 Co204 1.920 . S
O236 C209 1.289 . S
C237 O229 1.258 1_455 S
C237 O230 1.266 1_455 S
Co238 O241 1.970 . S
Co238 N255 1.989 . S
Co238 O263 1.967 . S
Co238 O270 1.920 . S
Co239 O242 1.966 . S
Co239 N248 2.022 . S
Co239 N256 1.993 . S
Co239 O264 1.941 . S
C240 O241 1.258 . S
C240 O242 1.263 . S
O241 Co238 1.970 . S
O241 C240 1.258 . S
O242 Co239 1.966 . S
O242 C240 1.263 . S
C243 O244 1.235 . S
C243 O270 1.289 . S
O244 C243 1.235 . S
C245 C247 1.400 . S
C245 N248 1.351 . S
C245 C250 1.501 . S
C246 C247 1.387 . S
C246 N249 1.341 . S
C247 C245 1.400 . S
C247 C246 1.387 . S
N248 Co239 2.022 . S
N248 C245 1.351 . S
N248 N249 1.365 . S
N249 C246 1.341 . S
N249 N248 1.365 . S
N249 H269 0.862 . S
C250 C245 1.501 . S
C250 H251 0.961 . S
C250 H252 0.961 . S
C250 H253 0.960 . S
H251 C250 0.961 . S
H252 C250 0.961 . S
H253 C250 0.960 . S
C254 N255 1.342 . S
C254 C258 1.401 . S
C254 C259 1.499 . S
N255 Co238 1.989 . S
N255 C254 1.342 . S
N255 N256 1.388 . S
N256 Co239 1.993 . S
N256 N255 1.388 . S
N256 C257 1.346 . S
C257 N256 1.346 . S
C257 C258 1.396 . S
C257 C267 1.510 . S
C258 C254 1.401 . S
C258 C257 1.396 . S
C259 C254 1.499 . S
C259 H260 0.959 . S
C259 H261 0.960 . S
C259 H262 0.961 . S
H260 C259 0.959 . S
H261 C259 0.960 . S
H262 C259 0.961 . S
O263 Co238 1.967 . S
O263 C271 1.258 1_565 S
O264 Co239 1.941 . S
O264 C271 1.266 1_565 S
H265 C267 0.959 . S
H266 C267 0.961 . S
C267 C257 1.510 . S
C267 H265 0.959 . S
C267 H266 0.961 . S
C267 H268 0.960 . S
H268 C267 0.960 . S
H269 N249 0.862 . S
O270 Co238 1.920 . S
O270 C243 1.289 . S
C271 O263 1.258 1_545 S
C271 O264 1.266 1_545 S
Co272 O275 1.970 . S
Co272 N289 1.989 . S
Co272 O297 1.967 . S
Co272 O304 1.920 . S
Co273 O276 1.966 . S
Co273 N282 2.022 . S
Co273 N290 1.993 . S
Co273 O298 1.941 . S
C274 O275 1.258 . S
C274 O276 1.263 . S
O275 Co272 1.970 . S
O275 C274 1.258 . S
O276 Co273 1.966 . S
O276 C274 1.263 . S
C277 O278 1.235 . S
C277 O304 1.289 . S
O278 C277 1.235 . S
C279 C281 1.400 . S
C279 N282 1.351 . S
C279 C284 1.501 . S
C280 C281 1.387 . S
C280 N283 1.341 . S
C281 C279 1.400 . S
C281 C280 1.387 . S
N282 Co273 2.022 . S
N282 C279 1.351 . S
N282 N283 1.365 . S
N283 C280 1.341 . S
N283 N282 1.365 . S
N283 H303 0.862 . S
C284 C279 1.501 . S
C284 H285 0.961 . S
C284 H286 0.961 . S
C284 H287 0.960 . S
H285 C284 0.961 . S
H286 C284 0.961 . S
H287 C284 0.960 . S
C288 N289 1.342 . S
C288 C292 1.401 . S
C288 C293 1.499 . S
N289 Co272 1.989 . S
N289 C288 1.342 . S
N289 N290 1.388 . S
N290 Co273 1.993 . S
N290 N289 1.388 . S
N290 C291 1.346 . S
C291 N290 1.346 . S
C291 C292 1.396 . S
C291 C301 1.510 . S
C292 C288 1.401 . S
C292 C291 1.396 . S
C293 C288 1.499 . S
C293 H294 0.959 . S
C293 H295 0.960 . S
C293 H296 0.961 . S
H294 C293 0.959 . S
H295 C293 0.960 . S
H296 C293 0.961 . S
O297 Co272 1.967 . S
O297 C305 1.258 . S
O298 Co273 1.941 . S
O298 C305 1.266 . S
H299 C301 0.959 . S
H300 C301 0.961 . S
C301 C291 1.510 . S
C301 H299 0.959 . S
C301 H300 0.961 . S
C301 H302 0.960 . S
H302 C301 0.960 . S
H303 N283 0.862 . S
O304 Co272 1.920 . S
O304 C277 1.289 . S
C305 O297 1.258 . S
C305 O298 1.266 . S
Co306 O309 1.970 . S
Co306 N323 1.989 . S
Co306 O331 1.967 . S
Co306 O338 1.920 . S
Co307 O310 1.966 . S
Co307 N316 2.022 . S
Co307 N324 1.993 . S
Co307 O332 1.941 . S
C308 O309 1.258 . S
C308 O310 1.263 . S
O309 Co306 1.970 . S
O309 C308 1.258 . S
O310 Co307 1.966 . S
O310 C308 1.263 . S
C311 O312 1.235 . S
C311 O338 1.289 . S
O312 C311 1.235 . S
C313 C315 1.400 . S
C313 N316 1.351 . S
C313 C318 1.501 . S
C314 C315 1.387 . S
C314 N317 1.341 . S
C315 C313 1.400 . S
C315 C314 1.387 . S
N316 Co307 2.022 . S
N316 C313 1.351 . S
N316 N317 1.365 . S
N317 C314 1.341 . S
N317 N316 1.365 . S
N317 H337 0.862 . S
C318 C313 1.501 . S
C318 H319 0.961 . S
C318 H320 0.961 . S
C318 H321 0.960 . S
H319 C318 0.961 . S
H320 C318 0.961 . S
H321 C318 0.960 . S
C322 N323 1.342 . S
C322 C326 1.401 . S
C322 C327 1.499 . S
N323 Co306 1.989 . S
N323 C322 1.342 . S
N323 N324 1.388 . S
N324 Co307 1.993 . S
N324 N323 1.388 . S
N324 C325 1.346 . S
C325 N324 1.346 . S
C325 C326 1.396 . S
C325 C335 1.510 . S
C326 C322 1.401 . S
C326 C325 1.396 . S
C327 C322 1.499 . S
C327 H328 0.959 . S
C327 H329 0.960 . S
C327 H330 0.961 . S
H328 C327 0.959 . S
H329 C327 0.960 . S
H330 C327 0.961 . S
O331 Co306 1.967 . S
O331 C339 1.258 . S
O332 Co307 1.941 . S
O332 C339 1.266 . S
H333 C335 0.959 . S
H334 C335 0.961 . S
C335 C325 1.510 . S
C335 H333 0.959 . S
C335 H334 0.961 . S
C335 H336 0.960 . S
H336 C335 0.960 . S
H337 N317 0.862 . S
O338 Co306 1.920 . S
O338 C311 1.289 . S
C339 O331 1.258 . S
C339 O332 1.266 . S
Co340 O343 1.970 . S
Co340 N357 1.989 . S
Co340 O365 1.967 . S
Co340 O372 1.920 . S
Co341 O344 1.966 . S
Co341 N350 2.022 . S
Co341 N358 1.993 . S
Co341 O366 1.941 . S
C342 O343 1.258 . S
C342 O344 1.263 . S
O343 Co340 1.970 . S
O343 C342 1.258 . S
O344 Co341 1.966 . S
O344 C342 1.263 . S
C345 O346 1.235 . S
C345 O372 1.289 . S
O346 C345 1.235 . S
C347 C349 1.400 . S
C347 N350 1.351 . S
C347 C352 1.501 . S
C348 C349 1.387 . S
C348 N351 1.341 . S
C349 C347 1.400 . S
C349 C348 1.387 . S
N350 Co341 2.022 . S
N350 C347 1.351 . S
N350 N351 1.365 . S
N351 C348 1.341 . S
N351 N350 1.365 . S
N351 H371 0.862 . S
C352 C347 1.501 . S
C352 H353 0.961 . S
C352 H354 0.961 . S
C352 H355 0.960 . S
H353 C352 0.961 . S
H354 C352 0.961 . S
H355 C352 0.960 . S
C356 N357 1.342 . S
C356 C360 1.401 . S
C356 C361 1.499 . S
N357 Co340 1.989 . S
N357 C356 1.342 . S
N357 N358 1.388 . S
N358 Co341 1.993 . S
N358 N357 1.388 . S
N358 C359 1.346 . S
C359 N358 1.346 . S
C359 C360 1.396 . S
C359 C369 1.510 . S
C360 C356 1.401 . S
C360 C359 1.396 . S
C361 C356 1.499 . S
C361 H362 0.959 . S
C361 H363 0.960 . S
C361 H364 0.961 . S
H362 C361 0.959 . S
H363 C361 0.960 . S
H364 C361 0.961 . S
O365 Co340 1.967 . S
O365 C373 1.258 . S
O366 Co341 1.941 . S
O366 C373 1.266 . S
H367 C369 0.959 . S
H368 C369 0.961 . S
C369 C359 1.510 . S
C369 H367 0.959 . S
C369 H368 0.961 . S
C369 H370 0.960 . S
H370 C369 0.960 . S
H371 N351 0.862 . S
O372 Co340 1.920 . S
O372 C345 1.289 . S
C373 O365 1.258 . S
C373 O366 1.266 . S
Co374 O377 1.970 . S
Co374 N391 1.989 . S
Co374 O399 1.967 . S
Co374 O406 1.920 . S
Co375 O378 1.966 . S
Co375 N384 2.022 . S
Co375 N392 1.993 . S
Co375 O400 1.941 . S
C376 O377 1.258 . S
C376 O378 1.263 . S
O377 Co374 1.970 . S
O377 C376 1.258 . S
O378 Co375 1.966 . S
O378 C376 1.263 . S
C379 O380 1.235 . S
C379 O406 1.289 . S
O380 C379 1.235 . S
C381 C383 1.400 . S
C381 N384 1.351 . S
C381 C386 1.501 . S
C382 C383 1.387 . S
C382 N385 1.341 . S
C383 C381 1.400 . S
C383 C382 1.387 . S
N384 Co375 2.022 . S
N384 C381 1.351 . S
N384 N385 1.365 . S
N385 C382 1.341 . S
N385 N384 1.365 . S
N385 H405 0.862 . S
C386 C381 1.501 . S
C386 H387 0.961 . S
C386 H388 0.961 . S
C386 H389 0.960 . S
H387 C386 0.961 . S
H388 C386 0.961 . S
H389 C386 0.960 . S
C390 N391 1.342 . S
C390 C394 1.401 . S
C390 C395 1.499 . S
N391 Co374 1.989 . S
N391 C390 1.342 . S
N391 N392 1.388 . S
N392 Co375 1.993 . S
N392 N391 1.388 . S
N392 C393 1.346 . S
C393 N392 1.346 . S
C393 C394 1.396 . S
C393 C403 1.510 . S
C394 C390 1.401 . S
C394 C393 1.396 . S
C395 C390 1.499 . S
C395 H396 0.959 . S
C395 H397 0.960 . S
C395 H398 0.961 . S
H396 C395 0.959 . S
H397 C395 0.960 . S
H398 C395 0.961 . S
O399 Co374 1.967 . S
O399 C407 1.258 . S
O400 Co375 1.941 . S
O400 C407 1.266 . S
H401 C403 0.959 . S
H402 C403 0.961 . S
C403 C393 1.510 . S
C403 H401 0.959 . S
C403 H402 0.961 . S
C403 H404 0.960 . S
H404 C403 0.960 . S
H405 N385 0.862 . S
O406 Co374 1.920 . S
O406 C379 1.289 . S
C407 O399 1.258 . S
C407 O400 1.266 . S
Co408 O411 1.970 . S
Co408 N425 1.989 . S
Co408 O433 1.967 . S
Co408 O440 1.920 . S
Co409 O412 1.966 . S
Co409 N418 2.022 . S
Co409 N426 1.993 . S
Co409 O434 1.941 . S
C410 O411 1.258 . S
C410 O412 1.263 . S
O411 Co408 1.970 . S
O411 C410 1.258 . S
O412 Co409 1.966 . S
O412 C410 1.263 . S
C413 O414 1.235 . S
C413 O440 1.289 . S
O414 C413 1.235 . S
C415 C417 1.400 . S
C415 N418 1.351 . S
C415 C420 1.501 . S
C416 C417 1.387 . S
C416 N419 1.341 . S
C417 C415 1.400 . S
C417 C416 1.387 . S
N418 Co409 2.022 . S
N418 C415 1.351 . S
N418 N419 1.365 . S
N419 C416 1.341 . S
N419 N418 1.365 . S
N419 H439 0.862 . S
C420 C415 1.501 . S
C420 H421 0.961 . S
C420 H422 0.961 . S
C420 H423 0.960 . S
H421 C420 0.961 . S
H422 C420 0.961 . S
H423 C420 0.960 . S
C424 N425 1.342 . S
C424 C428 1.401 . S
C424 C429 1.499 . S
N425 Co408 1.989 . S
N425 C424 1.342 . S
N425 N426 1.388 . S
N426 Co409 1.993 . S
N426 N425 1.388 . S
N426 C427 1.346 . S
C427 N426 1.346 . S
C427 C428 1.396 . S
C427 C437 1.510 . S
C428 C424 1.401 . S
C428 C427 1.396 . S
C429 C424 1.499 . S
C429 H430 0.959 . S
C429 H431 0.960 . S
C429 H432 0.961 . S
H430 C429 0.959 . S
H431 C429 0.960 . S
H432 C429 0.961 . S
O433 Co408 1.967 . S
O433 C441 1.258 . S
O434 Co409 1.941 . S
O434 C441 1.266 . S
H435 C437 0.959 . S
H436 C437 0.961 . S
C437 C427 1.510 . S
C437 H435 0.959 . S
C437 H436 0.961 . S
C437 H438 0.960 . S
H438 C437 0.960 . S
H439 N419 0.862 . S
O440 Co408 1.920 . S
O440 C413 1.289 . S
C441 O433 1.258 . S
C441 O434 1.266 . S
Co442 O445 1.970 . S
Co442 N459 1.989 . S
Co442 O467 1.967 . S
Co442 O474 1.920 . S
Co443 O446 1.966 . S
Co443 N452 2.022 . S
Co443 N460 1.993 . S
Co443 O468 1.941 . S
C444 O445 1.258 . S
C444 O446 1.263 . S
O445 Co442 1.970 . S
O445 C444 1.258 . S
O446 Co443 1.966 . S
O446 C444 1.263 . S
C447 O448 1.235 . S
C447 O474 1.289 . S
O448 C447 1.235 . S
C449 C451 1.400 . S
C449 N452 1.351 . S
C449 C454 1.501 . S
C450 C451 1.387 . S
C450 N453 1.341 . S
C451 C449 1.400 . S
C451 C450 1.387 . S
N452 Co443 2.022 . S
N452 C449 1.351 . S
N452 N453 1.365 . S
N453 C450 1.341 . S
N453 N452 1.365 . S
N453 H473 0.862 . S
C454 C449 1.501 . S
C454 H455 0.961 . S
C454 H456 0.961 . S
C454 H457 0.960 . S
H455 C454 0.961 . S
H456 C454 0.961 . S
H457 C454 0.960 . S
C458 N459 1.342 . S
C458 C462 1.401 . S
C458 C463 1.499 . S
N459 Co442 1.989 . S
N459 C458 1.342 . S
N459 N460 1.388 . S
N460 Co443 1.993 . S
N460 N459 1.388 . S
N460 C461 1.346 . S
C461 N460 1.346 . S
C461 C462 1.396 . S
C461 C471 1.510 . S
C462 C458 1.401 . S
C462 C461 1.396 . S
C463 C458 1.499 . S
C463 H464 0.959 . S
C463 H465 0.960 . S
C463 H466 0.961 . S
H464 C463 0.959 . S
H465 C463 0.960 . S
H466 C463 0.961 . S
O467 Co442 1.967 . S
O467 C475 1.258 . S
O468 Co443 1.941 . S
O468 C475 1.266 . S
H469 C471 0.959 . S
H470 C471 0.961 . S
C471 C461 1.510 . S
C471 H469 0.959 . S
C471 H470 0.961 . S
C471 H472 0.960 . S
H472 C471 0.960 . S
H473 N453 0.862 . S
O474 Co442 1.920 . S
O474 C447 1.289 . S
C475 O467 1.258 . S
C475 O468 1.266 . S
Co476 O479 1.970 . S
Co476 N493 1.989 . S
Co476 O501 1.967 . S
Co476 O508 1.920 . S
Co477 O480 1.966 . S
Co477 N486 2.022 . S
Co477 N494 1.993 . S
Co477 O502 1.941 . S
C478 O479 1.258 . S
C478 O480 1.263 . S
O479 Co476 1.970 . S
O479 C478 1.258 . S
O480 Co477 1.966 . S
O480 C478 1.263 . S
C481 O482 1.235 . S
C481 O508 1.289 . S
O482 C481 1.235 . S
C483 C485 1.400 . S
C483 N486 1.351 . S
C483 C488 1.501 . S
C484 C485 1.387 . S
C484 N487 1.341 . S
C485 C483 1.400 . S
C485 C484 1.387 . S
N486 Co477 2.022 . S
N486 C483 1.351 . S
N486 N487 1.365 . S
N487 C484 1.341 . S
N487 N486 1.365 . S
N487 H507 0.862 . S
C488 C483 1.501 . S
C488 H489 0.961 . S
C488 H490 0.961 . S
C488 H491 0.960 . S
H489 C488 0.961 . S
H490 C488 0.961 . S
H491 C488 0.960 . S
C492 N493 1.342 . S
C492 C496 1.401 . S
C492 C497 1.499 . S
N493 Co476 1.989 . S
N493 C492 1.342 . S
N493 N494 1.388 . S
N494 Co477 1.993 . S
N494 N493 1.388 . S
N494 C495 1.346 . S
C495 N494 1.346 . S
C495 C496 1.396 . S
C495 C505 1.510 . S
C496 C492 1.401 . S
C496 C495 1.396 . S
C497 C492 1.499 . S
C497 H498 0.959 . S
C497 H499 0.960 . S
C497 H500 0.961 . S
H498 C497 0.959 . S
H499 C497 0.960 . S
H500 C497 0.961 . S
O501 Co476 1.967 . S
O501 C509 1.258 . S
O502 Co477 1.941 . S
O502 C509 1.266 . S
H503 C505 0.959 . S
H504 C505 0.961 . S
C505 C495 1.510 . S
C505 H503 0.959 . S
C505 H504 0.961 . S
C505 H506 0.960 . S
H506 C505 0.960 . S
H507 N487 0.862 . S
O508 Co476 1.920 . S
O508 C481 1.289 . S
C509 O501 1.258 . S
C509 O502 1.266 . S
Co510 O513 1.970 . S
Co510 N527 1.989 . S
Co510 O535 1.967 . S
Co510 O542 1.920 . S
Co511 O514 1.966 . S
Co511 N520 2.022 . S
Co511 N528 1.993 . S
Co511 O536 1.941 . S
C512 O513 1.258 . S
C512 O514 1.263 . S
O513 Co510 1.970 . S
O513 C512 1.258 . S
O514 Co511 1.966 . S
O514 C512 1.263 . S
C515 O516 1.235 . S
C515 O542 1.289 . S
O516 C515 1.235 . S
C517 C519 1.400 . S
C517 N520 1.351 . S
C517 C522 1.501 . S
C518 C519 1.387 . S
C518 N521 1.341 . S
C519 C517 1.400 . S
C519 C518 1.387 . S
N520 Co511 2.022 . S
N520 C517 1.351 . S
N520 N521 1.365 . S
N521 C518 1.341 . S
N521 N520 1.365 . S
N521 H541 0.862 . S
C522 C517 1.501 . S
C522 H523 0.961 . S
C522 H524 0.961 . S
C522 H525 0.960 . S
H523 C522 0.961 . S
H524 C522 0.961 . S
H525 C522 0.960 . S
C526 N527 1.342 . S
C526 C530 1.401 . S
C526 C531 1.499 . S
N527 Co510 1.989 . S
N527 C526 1.342 . S
N527 N528 1.388 . S
N528 Co511 1.993 . S
N528 N527 1.388 . S
N528 C529 1.346 . S
C529 N528 1.346 . S
C529 C530 1.396 . S
C529 C539 1.510 . S
C530 C526 1.401 . S
C530 C529 1.396 . S
C531 C526 1.499 . S
C531 H532 0.959 . S
C531 H533 0.960 . S
C531 H534 0.961 . S
H532 C531 0.959 . S
H533 C531 0.960 . S
H534 C531 0.961 . S
O535 Co510 1.967 . S
O535 C543 1.258 . S
O536 Co511 1.941 . S
O536 C543 1.266 . S
H537 C539 0.959 . S
H538 C539 0.961 . S
C539 C529 1.510 . S
C539 H537 0.959 . S
C539 H538 0.961 . S
C539 H540 0.960 . S
H540 C539 0.960 . S
H541 N521 0.862 . S
O542 Co510 1.920 . S
O542 C515 1.289 . S
C543 O535 1.258 . S
C543 O536 1.266 . S
H544 C562 0.951 . S
H545 C564 0.958 . S
H546 C566 0.950 . S
H547 C567 0.950 . S
H548 C569 0.950 . S
H549 C572 0.950 . S
H550 C573 0.950 . S
H551 C575 0.950 . S
H552 C576 0.950 . S
H553 C577 0.951 . S
H554 C579 0.958 . S
H555 C581 0.950 . S
H556 C582 0.950 . S
H557 C584 0.950 . S
H558 C587 0.950 . S
H559 C588 0.950 . S
H560 C590 0.950 . S
H561 C591 0.950 . S
C562 H544 0.951 . S
C562 C563 1.366 . S
C562 C564 1.388 . S
C563 C562 1.366 . S
C563 C567 1.385 . S
C564 H545 0.958 . S
C564 C562 1.388 . S
C564 C565 1.366 . S
C565 C564 1.366 . S
C565 C566 1.414 . S
C565 C568 1.499 . S
C566 H546 0.950 . S
C566 C565 1.414 . S
C566 C567 1.374 . S
C567 H547 0.950 . S
C567 C563 1.385 . S
C567 C566 1.374 . S
C568 C565 1.499 . S
C568 C569 1.373 . S
C568 C570 1.389 1_655 S
C569 H548 0.950 . S
C569 C568 1.373 . S
C569 C585 1.377 . S
C570 C568 1.389 1_455 S
C570 C571 1.524 . S
C570 C584 1.377 . S
C571 C570 1.524 . S
C571 C572 1.397 . S
C571 C576 1.363 . S
C572 H549 0.950 . S
C572 C571 1.397 . S
C572 C573 1.334 . S
C573 H550 0.950 . S
C573 C572 1.334 . S
C573 C574 1.287 . S
C574 C573 1.287 . S
C574 C575 1.524 . S
C574 H593 0.913 . S
C575 H551 0.950 . S
C575 C574 1.524 . S
C575 C576 1.415 . S
C576 H552 0.950 . S
C576 C571 1.363 . S
C576 C575 1.415 . S
C577 H553 0.951 . S
C577 C578 1.366 . S
C577 C579 1.388 . S
C578 C577 1.366 . S
C578 C582 1.385 . S
C579 H554 0.958 . S
C579 C577 1.388 . S
C579 C580 1.366 . S
C580 C579 1.366 . S
C580 C581 1.414 . S
C580 C583 1.499 . S
C581 H555 0.950 . S
C581 C580 1.414 . S
C581 C582 1.374 . S
C582 H556 0.950 . S
C582 C578 1.385 . S
C582 C581 1.374 . S
C583 C580 1.499 . S
C583 C584 1.373 . S
C583 C585 1.389 1_455 S
C584 H557 0.950 . S
C584 C570 1.377 . S
C584 C583 1.373 . S
C585 C569 1.377 . S
C585 C583 1.389 1_655 S
C585 C586 1.524 . S
C586 C585 1.524 . S
C586 C587 1.397 . S
C586 C591 1.363 . S
C587 H558 0.950 . S
C587 C586 1.397 . S
C587 C588 1.334 . S
C588 H559 0.950 . S
C588 C587 1.334 . S
C588 C589 1.287 . S
C589 C588 1.287 . S
C589 C590 1.524 . S
C589 H592 0.999 . S
C590 H560 0.950 . S
C590 C589 1.524 . S
C590 C591 1.415 . S
C591 H561 0.950 . S
C591 C586 1.363 . S
C591 C590 1.415 . S
H592 C589 0.999 . S
H593 C574 0.913 . S
H594 C612 0.951 1_565 S
H595 C614 0.951 . S
H596 C616 0.950 . S
H597 C617 0.950 . S
H598 C619 0.950 . S
H599 C622 0.950 . S
H600 C623 0.950 . S
H601 C625 0.950 . S
H602 C626 0.950 . S
H603 C627 0.951 1_545 S
H604 C629 0.951 . S
H605 C631 0.950 . S
H606 C632 0.950 . S
H607 C634 0.950 . S
H608 C637 0.950 . S
H609 C638 0.950 . S
H610 C640 0.950 . S
H611 C641 0.950 . S
C612 H594 0.951 1_545 S
C612 C613 1.366 . S
C612 C614 1.388 1_545 S
C613 C612 1.366 . S
C613 C617 1.385 . S
C614 H595 0.951 . S
C614 C612 1.388 1_565 S
C614 C615 1.366 1_565 S
C615 C614 1.366 1_545 S
C615 C616 1.414 . S
C615 C618 1.499 . S
C616 H596 0.950 . S
C616 C615 1.414 . S
C616 C617 1.374 . S
C617 H597 0.950 . S
C617 C613 1.385 . S
C617 C616 1.374 . S
C618 C615 1.499 . S
C618 C619 1.373 . S
C618 C620 1.389 1_545 S
C619 H598 0.950 . S
C619 C618 1.373 . S
C619 C635 1.377 . S
C620 C618 1.389 1_565 S
C620 C621 1.524 . S
C620 C634 1.377 . S
C621 C620 1.524 . S
C621 C622 1.397 . S
C621 C626 1.363 . S
C622 H599 0.950 . S
C622 C621 1.397 . S
C622 C623 1.334 . S
C623 H600 0.950 . S
C623 C622 1.334 . S
C623 C624 1.287 . S
C624 C623 1.287 . S
C624 C625 1.524 . S
C624 H643 0.913 . S
C625 H601 0.950 . S
C625 C624 1.524 . S
C625 C626 1.415 . S
C626 H602 0.950 . S
C626 C621 1.363 . S
C626 C625 1.415 . S
C627 H603 0.951 1_565 S
C627 C628 1.366 . S
C627 C629 1.388 1_565 S
C628 C627 1.366 . S
C628 C632 1.385 . S
C629 H604 0.951 . S
C629 C627 1.388 1_545 S
C629 C630 1.366 1_545 S
C630 C629 1.366 1_565 S
C630 C631 1.414 . S
C630 C633 1.499 . S
C631 H605 0.950 . S
C631 C630 1.414 . S
C631 C632 1.374 . S
C632 H606 0.950 . S
C632 C628 1.385 . S
C632 C631 1.374 . S
C633 C630 1.499 . S
C633 C634 1.373 . S
C633 C635 1.389 1_565 S
C634 H607 0.950 . S
C634 C620 1.377 . S
C634 C633 1.373 . S
C635 C619 1.377 . S
C635 C633 1.389 1_545 S
C635 C636 1.524 . S
C636 C635 1.524 . S
C636 C637 1.397 . S
C636 C641 1.363 . S
C637 H608 0.950 . S
C637 C636 1.397 . S
C637 C638 1.334 . S
C638 H609 0.950 . S
C638 C637 1.334 . S
C638 C639 1.287 . S
C639 C638 1.287 . S
C639 C640 1.524 . S
C639 H642 0.999 . S
C640 H610 0.950 . S
C640 C639 1.524 . S
C640 C641 1.415 . S
C641 H611 0.950 . S
C641 C636 1.363 . S
C641 C640 1.415 . S
H642 C639 0.999 . S
H643 C624 0.913 . S
H644 C662 0.951 . S
H645 C664 0.951 . S
H646 C666 0.950 . S
H647 C667 0.950 . S
H648 C669 0.950 . S
H649 C672 0.950 . S
H650 C673 0.950 . S
H651 C675 0.950 . S
H652 C676 0.950 . S
H653 C677 0.951 . S
H654 C679 0.951 . S
H655 C681 0.950 . S
H656 C682 0.950 . S
H657 C684 0.950 . S
H658 C687 0.950 . S
H659 C688 0.950 . S
H660 C690 0.950 . S
H661 C691 0.950 . S
C662 H644 0.951 . S
C662 C663 1.366 . S
C662 C664 1.388 . S
C663 C662 1.366 . S
C663 C667 1.385 . S
C664 H645 0.951 . S
C664 C662 1.388 . S
C664 C665 1.366 . S
C665 C664 1.366 . S
C665 C666 1.414 . S
C665 C668 1.499 . S
C666 H646 0.950 . S
C666 C665 1.414 . S
C666 C667 1.374 . S
C667 H647 0.950 . S
C667 C663 1.385 . S
C667 C666 1.374 . S
C668 C665 1.499 . S
C668 C669 1.373 . S
C668 C670 1.389 1_655 S
C669 H648 0.950 . S
C669 C668 1.373 . S
C669 C685 1.377 . S
C670 C668 1.389 1_455 S
C670 C671 1.524 . S
C670 C684 1.377 . S
C671 C670 1.524 . S
C671 C672 1.397 . S
C671 C676 1.363 . S
C672 H649 0.950 . S
C672 C671 1.397 . S
C672 C673 1.334 . S
C673 H650 0.950 . S
C673 C672 1.334 . S
C673 C674 1.287 . S
C674 C673 1.287 . S
C674 C675 1.524 . S
C674 H693 0.913 . S
C675 H651 0.950 . S
C675 C674 1.524 . S
C675 C676 1.415 . S
C676 H652 0.950 . S
C676 C671 1.363 . S
C676 C675 1.415 . S
C677 H653 0.951 . S
C677 C678 1.366 . S
C677 C679 1.388 . S
C678 C677 1.366 . S
C678 C682 1.385 . S
C679 H654 0.951 . S
C679 C677 1.388 . S
C679 C680 1.366 . S
C680 C679 1.366 . S
C680 C681 1.414 . S
C680 C683 1.499 . S
C681 H655 0.950 . S
C681 C680 1.414 . S
C681 C682 1.374 . S
C682 H656 0.950 . S
C682 C678 1.385 . S
C682 C681 1.374 . S
C683 C680 1.499 . S
C683 C684 1.373 . S
C683 C685 1.389 1_455 S
C684 H657 0.950 . S
C684 C670 1.377 . S
C684 C683 1.373 . S
C685 C669 1.377 . S
C685 C683 1.389 1_655 S
C685 C686 1.524 . S
C686 C685 1.524 . S
C686 C687 1.397 . S
C686 C691 1.363 . S
C687 H658 0.950 . S
C687 C686 1.397 . S
C687 C688 1.334 . S
C688 H659 0.950 . S
C688 C687 1.334 . S
C688 C689 1.287 . S
C689 C688 1.287 . S
C689 C690 1.524 . S
C689 H692 0.999 . S
C690 H660 0.950 . S
C690 C689 1.524 . S
C690 C691 1.415 . S
C691 H661 0.950 . S
C691 C686 1.363 . S
C691 C690 1.415 . S
H692 C689 0.999 . S
H693 C674 0.913 . S
H694 C712 0.951 1_545 S
H695 C714 0.951 . S
H696 C716 0.950 . S
H697 C717 0.950 . S
H698 C719 0.950 . S
H699 C722 0.950 . S
H700 C723 0.950 . S
H701 C725 0.950 . S
H702 C726 0.950 . S
H703 C727 0.951 1_565 S
H704 C729 0.951 . S
H705 C731 0.950 . S
H706 C732 0.950 . S
H707 C734 0.950 . S
H708 C737 0.950 . S
H709 C738 0.950 . S
H710 C740 0.950 . S
H711 C741 0.950 . S
C712 H694 0.951 1_565 S
C712 C713 1.366 . S
C712 C714 1.388 1_565 S
C713 C712 1.366 . S
C713 C717 1.385 . S
C714 H695 0.951 . S
C714 C712 1.388 1_545 S
C714 C715 1.366 1_545 S
C715 C714 1.366 1_565 S
C715 C716 1.414 . S
C715 C718 1.499 . S
C716 H696 0.950 . S
C716 C715 1.414 . S
C716 C717 1.374 . S
C717 H697 0.950 . S
C717 C713 1.385 . S
C717 C716 1.374 . S
C718 C715 1.499 . S
C718 C719 1.373 . S
C718 C720 1.389 1_565 S
C719 H698 0.950 . S
C719 C718 1.373 . S
C719 C735 1.377 . S
C720 C718 1.389 1_545 S
C720 C721 1.524 . S
C720 C734 1.377 . S
C721 C720 1.524 . S
C721 C722 1.397 . S
C721 C726 1.363 . S
C722 H699 0.950 . S
C722 C721 1.397 . S
C722 C723 1.334 . S
C723 H700 0.950 . S
C723 C722 1.334 . S
C723 C724 1.287 . S
C724 C723 1.287 . S
C724 C725 1.524 . S
C724 H743 0.913 . S
C725 H701 0.950 . S
C725 C724 1.524 . S
C725 C726 1.415 . S
C726 H702 0.950 . S
C726 C721 1.363 . S
C726 C725 1.415 . S
C727 H703 0.951 1_545 S
C727 C728 1.366 . S
C727 C729 1.388 1_545 S
C728 C727 1.366 . S
C728 C732 1.385 . S
C729 H704 0.951 . S
C729 C727 1.388 1_565 S
C729 C730 1.366 1_565 S
C730 C729 1.366 1_545 S
C730 C731 1.414 . S
C730 C733 1.499 . S
C731 H705 0.950 . S
C731 C730 1.414 . S
C731 C732 1.374 . S
C732 H706 0.950 . S
C732 C728 1.385 . S
C732 C731 1.374 . S
C733 C730 1.499 . S
C733 C734 1.373 . S
C733 C735 1.389 1_545 S
C734 H707 0.950 . S
C734 C720 1.377 . S
C734 C733 1.373 . S
C735 C719 1.377 . S
C735 C733 1.389 1_565 S
C735 C736 1.524 . S
C736 C735 1.524 . S
C736 C737 1.397 . S
C736 C741 1.363 . S
C737 H708 0.950 . S
C737 C736 1.397 . S
C737 C738 1.334 . S
C738 H709 0.950 . S
C738 C737 1.334 . S
C738 C739 1.287 . S
C739 C738 1.287 . S
C739 C740 1.524 . S
C739 H742 0.999 . S
C740 H710 0.950 . S
C740 C739 1.524 . S
C740 C741 1.415 . S
C741 H711 0.950 . S
C741 C736 1.363 . S
C741 C740 1.415 . S
H742 C739 0.999 . S
H743 C724 0.913 . S
H744 C762 0.951 . S
H745 C764 0.951 . S
H746 C766 0.950 . S
H747 C767 0.950 . S
H748 C769 0.950 . S
H749 C772 0.950 . S
H750 C773 0.950 . S
H751 C775 0.950 . S
H752 C776 0.950 . S
H753 C777 0.951 . S
H754 C779 0.951 . S
H755 C781 0.950 . S
H756 C782 0.950 . S
H757 C784 0.950 . S
H758 C787 0.950 . S
H759 C788 0.950 . S
H760 C790 0.950 . S
H761 C791 0.950 . S
C762 H744 0.951 . S
C762 C763 1.366 . S
C762 C764 1.388 . S
C763 C762 1.366 . S
C763 C767 1.385 . S
C764 H745 0.951 . S
C764 C762 1.388 . S
C764 C765 1.366 . S
C765 C764 1.366 . S
C765 C766 1.414 . S
C765 C768 1.499 . S
C766 H746 0.950 . S
C766 C765 1.414 . S
C766 C767 1.374 . S
C767 H747 0.950 . S
C767 C763 1.385 . S
C767 C766 1.374 . S
C768 C765 1.499 . S
C768 C769 1.373 . S
C768 C770 1.389 . S
C769 H748 0.950 . S
C769 C768 1.373 . S
C769 C785 1.377 1_565 S
C770 C768 1.389 . S
C770 C771 1.524 . S
C770 C784 1.377 1_565 S
C771 C770 1.524 . S
C771 C772 1.397 . S
C771 C776 1.363 . S
C772 H749 0.950 . S
C772 C771 1.397 . S
C772 C773 1.334 . S
C773 H750 0.950 . S
C773 C772 1.334 . S
C773 C774 1.287 . S
C774 C773 1.287 . S
C774 C775 1.524 . S
C774 H793 0.913 . S
C775 H751 0.950 . S
C775 C774 1.524 . S
C775 C776 1.415 . S
C776 H752 0.950 . S
C776 C771 1.363 . S
C776 C775 1.415 . S
C777 H753 0.951 . S
C777 C778 1.366 . S
C777 C779 1.388 . S
C778 C777 1.366 . S
C778 C782 1.385 . S
C779 H754 0.951 . S
C779 C777 1.388 . S
C779 C780 1.366 . S
C780 C779 1.366 . S
C780 C781 1.414 . S
C780 C783 1.499 . S
C781 H755 0.950 . S
C781 C780 1.414 . S
C781 C782 1.374 . S
C782 H756 0.950 . S
C782 C778 1.385 . S
C782 C781 1.374 . S
C783 C780 1.499 . S
C783 C784 1.373 . S
C783 C785 1.389 . S
C784 H757 0.950 . S
C784 C770 1.377 1_545 S
C784 C783 1.373 . S
C785 C769 1.377 1_545 S
C785 C783 1.389 . S
C785 C786 1.524 . S
C786 C785 1.524 . S
C786 C787 1.397 . S
C786 C791 1.363 . S
C787 H758 0.950 . S
C787 C786 1.397 . S
C787 C788 1.334 . S
C788 H759 0.950 . S
C788 C787 1.334 . S
C788 C789 1.287 . S
C789 C788 1.287 . S
C789 C790 1.524 . S
C789 H792 0.999 . S
C790 H760 0.950 . S
C790 C789 1.524 . S
C790 C791 1.415 . S
C791 H761 0.950 . S
C791 C786 1.363 . S
C791 C790 1.415 . S
H792 C789 0.999 . S
H793 C774 0.913 . S
H794 C812 0.951 . S
H795 C814 0.951 . S
H796 C816 0.950 . S
H797 C817 0.950 . S
H798 C819 0.950 . S
H799 C822 0.950 . S
H800 C823 0.950 . S
H801 C825 0.950 . S
H802 C826 0.950 . S
H803 C827 0.951 . S
H804 C829 0.951 . S
H805 C831 0.950 . S
H806 C832 0.950 . S
H807 C834 0.950 . S
H808 C837 0.950 . S
H809 C838 0.950 . S
H810 C840 0.950 . S
H811 C841 0.950 . S
C812 H794 0.951 . S
C812 C813 1.366 . S
C812 C814 1.388 . S
C813 C812 1.366 . S
C813 C817 1.385 . S
C814 H795 0.951 . S
C814 C812 1.388 . S
C814 C815 1.366 . S
C815 C814 1.366 . S
C815 C816 1.414 . S
C815 C818 1.499 . S
C816 H796 0.950 . S
C816 C815 1.414 . S
C816 C817 1.374 . S
C817 H797 0.950 . S
C817 C813 1.385 . S
C817 C816 1.374 . S
C818 C815 1.499 . S
C818 C819 1.373 . S
C818 C820 1.389 . S
C819 H798 0.950 . S
C819 C818 1.373 . S
C819 C835 1.377 1_655 S
C820 C818 1.389 . S
C820 C821 1.524 . S
C820 C834 1.377 1_655 S
C821 C820 1.524 . S
C821 C822 1.397 . S
C821 C826 1.363 . S
C822 H799 0.950 . S
C822 C821 1.397 . S
C822 C823 1.334 . S
C823 H800 0.950 . S
C823 C822 1.334 . S
C823 C824 1.287 . S
C824 C823 1.287 . S
C824 C825 1.524 . S
C824 H843 0.913 . S
C825 H801 0.950 . S
C825 C824 1.524 . S
C825 C826 1.415 . S
C826 H802 0.950 . S
C826 C821 1.363 . S
C826 C825 1.415 . S
C827 H803 0.951 . S
C827 C828 1.366 . S
C827 C829 1.388 . S
C828 C827 1.366 . S
C828 C832 1.385 . S
C829 H804 0.951 . S
C829 C827 1.388 . S
C829 C830 1.366 . S
C830 C829 1.366 . S
C830 C831 1.414 . S
C830 C833 1.499 . S
C831 H805 0.950 . S
C831 C830 1.414 . S
C831 C832 1.374 . S
C832 H806 0.950 . S
C832 C828 1.385 . S
C832 C831 1.374 . S
C833 C830 1.499 . S
C833 C834 1.373 . S
C833 C835 1.389 . S
C834 H807 0.950 . S
C834 C820 1.377 1_455 S
C834 C833 1.373 . S
C835 C819 1.377 1_455 S
C835 C833 1.389 . S
C835 C836 1.524 . S
C836 C835 1.524 . S
C836 C837 1.397 . S
C836 C841 1.363 . S
C837 H808 0.950 . S
C837 C836 1.397 . S
C837 C838 1.334 . S
C838 H809 0.950 . S
C838 C837 1.334 . S
C838 C839 1.287 . S
C839 C838 1.287 . S
C839 C840 1.524 . S
C839 H842 0.999 . S
C840 H810 0.950 . S
C840 C839 1.524 . S
C840 C841 1.415 . S
C841 H811 0.950 . S
C841 C836 1.363 . S
C841 C840 1.415 . S
H842 C839 0.999 . S
H843 C824 0.913 . S
H844 C862 0.951 . S
H845 C864 0.951 . S
H846 C866 0.950 . S
H847 C867 0.950 . S
H848 C869 0.950 . S
H849 C872 0.950 . S
H850 C873 0.950 . S
H851 C875 0.950 1_545 S
H852 C876 0.927 1_545 S
H853 C877 0.951 . S
H854 C879 0.951 . S
H855 C881 0.950 . S
H856 C882 0.950 . S
H857 C884 0.950 . S
H858 C887 0.950 . S
H859 C888 0.950 . S
H860 C890 0.950 1_565 S
H861 C891 0.927 1_565 S
C862 H844 0.951 . S
C862 C863 1.366 . S
C862 C864 1.388 . S
C863 C862 1.366 . S
C863 C867 1.385 . S
C864 H845 0.951 . S
C864 C862 1.388 . S
C864 C865 1.366 . S
C865 C864 1.366 . S
C865 C866 1.414 . S
C865 C868 1.499 . S
C866 H846 0.950 . S
C866 C865 1.414 . S
C866 C867 1.374 . S
C867 H847 0.950 . S
C867 C863 1.385 . S
C867 C866 1.374 . S
C868 C865 1.499 . S
C868 C869 1.373 . S
C868 C870 1.389 . S
C869 H848 0.950 . S
C869 C868 1.373 . S
C869 C885 1.377 1_565 S
C870 C868 1.389 . S
C870 C871 1.524 . S
C870 C884 1.377 1_565 S
C871 C870 1.524 . S
C871 C872 1.397 . S
C871 C876 1.381 . S
C872 H849 0.950 . S
C872 C871 1.397 . S
C872 C873 1.334 . S
C873 H850 0.950 . S
C873 C872 1.334 . S
C873 C874 1.287 . S
C874 C873 1.287 . S
C874 C875 1.524 . S
C874 H893 0.913 . S
C875 H851 0.950 1_565 S
C875 C874 1.524 . S
C875 C876 1.422 . S
C876 H852 0.927 1_565 S
C876 C871 1.381 . S
C876 C875 1.422 . S
C877 H853 0.951 . S
C877 C878 1.366 . S
C877 C879 1.388 . S
C878 C877 1.366 . S
C878 C882 1.385 . S
C879 H854 0.951 . S
C879 C877 1.388 . S
C879 C880 1.366 . S
C880 C879 1.366 . S
C880 C881 1.414 . S
C880 C883 1.499 . S
C881 H855 0.950 . S
C881 C880 1.414 . S
C881 C882 1.374 . S
C882 H856 0.950 . S
C882 C878 1.385 . S
C882 C881 1.374 . S
C883 C880 1.499 . S
C883 C884 1.373 . S
C883 C885 1.389 . S
C884 H857 0.950 . S
C884 C870 1.377 1_545 S
C884 C883 1.373 . S
C885 C869 1.377 1_545 S
C885 C883 1.389 . S
C885 C886 1.524 . S
C886 C885 1.524 . S
C886 C887 1.397 . S
C886 C891 1.381 . S
C887 H858 0.950 . S
C887 C886 1.397 . S
C887 C888 1.334 . S
C888 H859 0.950 . S
C888 C887 1.334 . S
C888 C889 1.287 . S
C889 C888 1.287 . S
C889 C890 1.524 . S
C889 H892 0.999 . S
C890 H860 0.950 1_545 S
C890 C889 1.524 . S
C890 C891 1.422 . S
C891 H861 0.927 1_545 S
C891 C886 1.381 . S
C891 C890 1.422 . S
H892 C889 0.999 . S
H893 C874 0.913 . S
H894 C912 0.951 . S
H895 C914 0.951 . S
H896 C916 0.950 . S
H897 C917 0.950 . S
H898 C919 0.950 . S
H899 C922 0.950 . S
H900 C923 0.950 . S
H901 C925 0.950 . S
H902 C926 0.950 1_455 S
H903 C927 0.951 . S
H904 C929 0.951 . S
H905 C931 0.950 . S
H906 C932 0.950 . S
H907 C934 0.950 . S
H908 C937 0.950 . S
H909 C938 0.950 . S
H910 C940 0.950 . S
H911 C941 0.950 1_655 S
C912 H894 0.951 . S
C912 C913 1.366 . S
C912 C914 1.388 . S
C913 C912 1.366 . S
C913 C917 1.385 . S
C914 H895 0.951 . S
C914 C912 1.388 . S
C914 C915 1.366 . S
C915 C914 1.366 . S
C915 C916 1.414 . S
C915 C918 1.499 . S
C916 H896 0.950 . S
C916 C915 1.414 . S
C916 C917 1.374 . S
C917 H897 0.950 . S
C917 C913 1.385 . S
C917 C916 1.374 . S
C918 C915 1.499 . S
C918 C919 1.373 . S
C918 C920 1.389 . S
C919 H898 0.950 . S
C919 C918 1.373 . S
C919 C935 1.377 1_655 S
C920 C918 1.389 . S
C920 C921 1.524 . S
C920 C934 1.377 1_655 S
C921 C920 1.524 . S
C921 C922 1.397 . S
C921 C926 1.363 . S
C922 H899 0.950 . S
C922 C921 1.397 . S
C922 C923 1.334 . S
C923 H900 0.950 . S
C923 C922 1.334 . S
C923 C924 1.287 . S
C924 C923 1.287 . S
C924 C925 1.524 . S
C924 H943 0.913 . S
C925 H901 0.950 . S
C925 C924 1.524 . S
C925 C926 1.415 . S
C926 H902 0.950 1_655 S
C926 C921 1.363 . S
C926 C925 1.415 . S
C927 H903 0.951 . S
C927 C928 1.366 . S
C927 C929 1.388 . S
C928 C927 1.366 . S
C928 C932 1.385 . S
C929 H904 0.951 . S
C929 C927 1.388 . S
C929 C930 1.366 . S
C930 C929 1.366 . S
C930 C931 1.414 . S
C930 C933 1.499 . S
C931 H905 0.950 . S
C931 C930 1.414 . S
C931 C932 1.374 . S
C932 H906 0.950 . S
C932 C928 1.385 . S
C932 C931 1.374 . S
C933 C930 1.499 . S
C933 C934 1.373 . S
C933 C935 1.389 . S
C934 H907 0.950 . S
C934 C920 1.377 1_455 S
C934 C933 1.373 . S
C935 C919 1.377 1_455 S
C935 C933 1.389 . S
C935 C936 1.524 . S
C936 C935 1.524 . S
C936 C937 1.397 . S
C936 C941 1.363 . S
C937 H908 0.950 . S
C937 C936 1.397 . S
C937 C938 1.334 . S
C938 H909 0.950 . S
C938 C937 1.334 . S
C938 C939 1.287 . S
C939 C938 1.287 . S
C939 C940 1.524 . S
C939 H942 0.999 . S
C940 H910 0.950 . S
C940 C939 1.524 . S
C940 C941 1.415 . S
C941 H911 0.950 1_455 S
C941 C936 1.363 . S
C941 C940 1.415 . S
H942 C939 0.999 . S
H943 C924 0.913 . S
H944 C962 0.951 . S
H945 C964 0.951 . S
H946 C966 0.950 . S
H947 C967 0.950 . S
H948 C969 0.950 . S
H949 C972 0.950 . S
H950 C973 0.950 . S
H951 C975 0.950 . S
H952 C976 0.950 . S
H953 C977 0.951 . S
H954 C979 0.951 . S
H955 C981 0.950 . S
H956 C982 0.950 . S
H957 C984 0.950 . S
H958 C987 0.950 . S
H959 C988 0.950 . S
H960 C990 0.950 . S
H961 C991 0.950 . S
C962 H944 0.951 . S
C962 C963 1.366 . S
C962 C964 1.388 . S
C963 C962 1.366 . S
C963 C967 1.385 . S
C964 H945 0.951 . S
C964 C962 1.388 . S
C964 C965 1.366 . S
C965 C964 1.366 . S
C965 C966 1.414 . S
C965 C968 1.499 . S
C966 H946 0.950 . S
C966 C965 1.414 . S
C966 C967 1.374 . S
C967 H947 0.950 . S
C967 C963 1.385 . S
C967 C966 1.374 . S
C968 C965 1.499 . S
C968 C969 1.373 . S
C968 C970 1.389 . S
C969 H948 0.950 . S
C969 C968 1.373 . S
C969 C985 1.377 . S
C970 C968 1.389 . S
C970 C971 1.524 . S
C970 C984 1.377 . S
C971 C970 1.524 . S
C971 C972 1.397 . S
C971 C976 1.363 . S
C972 H949 0.950 . S
C972 C971 1.397 . S
C972 C973 1.334 . S
C973 H950 0.950 . S
C973 C972 1.334 . S
C973 C974 1.287 . S
C974 C973 1.287 . S
C974 C975 1.524 . S
C974 H993 0.913 . S
C975 H951 0.950 . S
C975 C974 1.524 . S
C975 C976 1.415 . S
C976 H952 0.950 . S
C976 C971 1.363 . S
C976 C975 1.415 . S
C977 H953 0.951 . S
C977 C978 1.366 . S
C977 C979 1.388 . S
C978 C977 1.366 . S
C978 C982 1.385 . S
C979 H954 0.951 . S
C979 C977 1.388 . S
C979 C980 1.366 . S
C980 C979 1.366 . S
C980 C981 1.414 . S
C980 C983 1.499 . S
C981 H955 0.950 . S
C981 C980 1.414 . S
C981 C982 1.374 . S
C982 H956 0.950 . S
C982 C978 1.385 . S
C982 C981 1.374 . S
C983 C980 1.499 . S
C983 C984 1.373 . S
C983 C985 1.389 . S
C984 H957 0.950 . S
C984 C970 1.377 . S
C984 C983 1.373 . S
C985 C969 1.377 . S
C985 C983 1.389 . S
C985 C986 1.524 . S
C986 C985 1.524 . S
C986 C987 1.397 . S
C986 C991 1.363 . S
C987 H958 0.950 . S
C987 C986 1.397 . S
C987 C988 1.334 . S
C988 H959 0.950 . S
C988 C987 1.334 . S
C988 C989 1.287 . S
C989 C988 1.287 . S
C989 C990 1.524 . S
C989 H992 0.999 . S
C990 H960 0.950 . S
C990 C989 1.524 . S
C990 C991 1.415 . S
C991 H961 0.950 . S
C991 C986 1.363 . S
C991 C990 1.415 . S
H992 C989 0.999 . S
H993 C974 0.913 . S
H994 C1012 0.951 . S
H995 C1014 0.951 . S
H996 C1016 0.950 . S
H997 C1017 0.950 . S
H998 C1019 0.950 . S
H999 C1022 0.950 . S
H1000 C1023 0.950 . S
H1001 C1025 0.950 . S
H1002 C1026 0.950 . S
H1003 C1027 0.951 . S
H1004 C1029 0.951 . S
H1005 C1031 0.950 . S
H1006 C1032 0.950 . S
H1007 C1034 0.950 . S
H1008 C1037 0.950 . S
H1009 C1038 0.950 . S
H1010 C1040 0.950 . S
H1011 C1041 0.950 . S
C1012 H994 0.951 . S
C1012 C1013 1.366 . S
C1012 C1014 1.388 . S
C1013 C1012 1.366 . S
C1013 C1017 1.385 . S
C1014 H995 0.951 . S
C1014 C1012 1.388 . S
C1014 C1015 1.366 . S
C1015 C1014 1.366 . S
C1015 C1016 1.414 . S
C1015 C1018 1.499 . S
C1016 H996 0.950 . S
C1016 C1015 1.414 . S
C1016 C1017 1.374 . S
C1017 H997 0.950 . S
C1017 C1013 1.385 . S
C1017 C1016 1.374 . S
C1018 C1015 1.499 . S
C1018 C1019 1.373 . S
C1018 C1020 1.389 . S
C1019 H998 0.950 . S
C1019 C1018 1.373 . S
C1019 C1035 1.377 . S
C1020 C1018 1.389 . S
C1020 C1021 1.524 . S
C1020 C1034 1.377 . S
C1021 C1020 1.524 . S
C1021 C1022 1.397 . S
C1021 C1026 1.363 . S
C1022 H999 0.950 . S
C1022 C1021 1.397 . S
C1022 C1023 1.334 . S
C1023 H1000 0.950 . S
C1023 C1022 1.334 . S
C1023 C1024 1.287 . S
C1024 C1023 1.287 . S
C1024 C1025 1.524 . S
C1024 H1043 0.913 . S
C1025 H1001 0.950 . S
C1025 C1024 1.524 . S
C1025 C1026 1.415 . S
C1026 H1002 0.950 . S
C1026 C1021 1.363 . S
C1026 C1025 1.415 . S
C1027 H1003 0.951 . S
C1027 C1028 1.366 . S
C1027 C1029 1.388 . S
C1028 C1027 1.366 . S
C1028 C1032 1.385 . S
C1029 H1004 0.951 . S
C1029 C1027 1.388 . S
C1029 C1030 1.366 . S
C1030 C1029 1.366 . S
C1030 C1031 1.414 . S
C1030 C1033 1.499 . S
C1031 H1005 0.950 . S
C1031 C1030 1.414 . S
C1031 C1032 1.374 . S
C1032 H1006 0.950 . S
C1032 C1028 1.385 . S
C1032 C1031 1.374 . S
C1033 C1030 1.499 . S
C1033 C1034 1.373 . S
C1033 C1035 1.389 . S
C1034 H1007 0.950 . S
C1034 C1020 1.377 . S
C1034 C1033 1.373 . S
C1035 C1019 1.377 . S
C1035 C1033 1.389 . S
C1035 C1036 1.524 . S
C1036 C1035 1.524 . S
C1036 C1037 1.397 . S
C1036 C1041 1.363 . S
C1037 H1008 0.950 . S
C1037 C1036 1.397 . S
C1037 C1038 1.334 . S
C1038 H1009 0.950 . S
C1038 C1037 1.334 . S
C1038 C1039 1.287 . S
C1039 C1038 1.287 . S
C1039 C1040 1.524 . S
C1039 H1042 0.999 . S
C1040 H1010 0.950 . S
C1040 C1039 1.524 . S
C1040 C1041 1.415 . S
C1041 H1011 0.950 . S
C1041 C1036 1.363 . S
C1041 C1040 1.415 . S
H1042 C1039 0.999 . S
H1043 C1024 0.913 . S
H1044 C1062 0.951 . S
H1045 C1064 0.951 . S
H1046 C1066 0.950 . S
H1047 C1067 0.950 . S
H1048 C1069 0.950 . S
H1049 C1072 0.950 . S
H1050 C1073 0.950 . S
H1051 C1075 0.950 . S
H1052 C1076 0.950 . S
H1053 C1077 0.951 . S
H1054 C1079 0.951 . S
H1055 C1081 0.950 . S
H1056 C1082 0.950 . S
H1057 C1084 0.950 . S
H1058 C1087 0.950 . S
H1059 C1088 0.950 . S
H1060 C1090 0.950 . S
H1061 C1091 0.950 . S
C1062 H1044 0.951 . S
C1062 C1063 1.366 . S
C1062 C1064 1.388 . S
C1063 C1062 1.366 . S
C1063 C1067 1.385 . S
C1064 H1045 0.951 . S
C1064 C1062 1.388 . S
C1064 C1065 1.366 . S
C1065 C1064 1.366 . S
C1065 C1066 1.414 . S
C1065 C1068 1.499 . S
C1066 H1046 0.950 . S
C1066 C1065 1.414 . S
C1066 C1067 1.374 . S
C1067 H1047 0.950 . S
C1067 C1063 1.385 . S
C1067 C1066 1.374 . S
C1068 C1065 1.499 . S
C1068 C1069 1.373 . S
C1068 C1070 1.389 . S
C1069 H1048 0.950 . S
C1069 C1068 1.373 . S
C1069 C1085 1.377 . S
C1070 C1068 1.389 . S
C1070 C1071 1.524 . S
C1070 C1084 1.377 . S
C1071 C1070 1.524 . S
C1071 C1072 1.397 . S
C1071 C1076 1.363 . S
C1072 H1049 0.950 . S
C1072 C1071 1.397 . S
C1072 C1073 1.334 . S
C1073 H1050 0.950 . S
C1073 C1072 1.334 . S
C1073 C1074 1.287 . S
C1074 C1073 1.287 . S
C1074 C1075 1.524 . S
C1074 H1093 0.913 . S
C1075 H1051 0.950 . S
C1075 C1074 1.524 . S
C1075 C1076 1.415 . S
C1076 H1052 0.950 . S
C1076 C1071 1.363 . S
C1076 C1075 1.415 . S
C1077 H1053 0.951 . S
C1077 C1078 1.366 . S
C1077 C1079 1.388 . S
C1078 C1077 1.366 . S
C1078 C1082 1.385 . S
C1079 H1054 0.951 . S
C1079 C1077 1.388 . S
C1079 C1080 1.366 . S
C1080 C1079 1.366 . S
C1080 C1081 1.414 . S
C1080 C1083 1.499 . S
C1081 H1055 0.950 . S
C1081 C1080 1.414 . S
C1081 C1082 1.374 . S
C1082 H1056 0.950 . S
C1082 C1078 1.385 . S
C1082 C1081 1.374 . S
C1083 C1080 1.499 . S
C1083 C1084 1.373 . S
C1083 C1085 1.389 . S
C1084 H1057 0.950 . S
C1084 C1070 1.377 . S
C1084 C1083 1.373 . S
C1085 C1069 1.377 . S
C1085 C1083 1.389 . S
C1085 C1086 1.524 . S
C1086 C1085 1.524 . S
C1086 C1087 1.397 . S
C1086 C1091 1.363 . S
C1087 H1058 0.950 . S
C1087 C1086 1.397 . S
C1087 C1088 1.334 . S
C1088 H1059 0.950 . S
C1088 C1087 1.334 . S
C1088 C1089 1.287 . S
C1089 C1088 1.287 . S
C1089 C1090 1.524 . S
C1089 H1092 0.999 . S
C1090 H1060 0.950 . S
C1090 C1089 1.524 . S
C1090 C1091 1.415 . S
C1091 H1061 0.950 . S
C1091 C1086 1.363 . S
C1091 C1090 1.415 . S
H1092 C1089 0.999 . S
H1093 C1074 0.913 . S
H1094 C1112 0.951 . S
H1095 C1114 0.951 . S
H1096 C1116 0.950 . S
H1097 C1117 0.950 . S
H1098 C1119 0.950 . S
H1099 C1122 0.950 . S
H1100 C1123 0.950 . S
H1101 C1125 0.950 . S
H1102 C1126 0.950 . S
H1103 C1127 0.951 . S
H1104 C1129 0.951 . S
H1105 C1131 0.950 . S
H1106 C1132 0.950 . S
H1107 C1134 0.950 . S
H1108 C1137 0.950 . S
H1109 C1138 0.950 . S
H1110 C1140 0.950 . S
H1111 C1141 0.950 . S
C1112 H1094 0.951 . S
C1112 C1113 1.366 . S
C1112 C1114 1.388 . S
C1113 C1112 1.366 . S
C1113 C1117 1.385 . S
C1114 H1095 0.951 . S
C1114 C1112 1.388 . S
C1114 C1115 1.366 . S
C1115 C1114 1.366 . S
C1115 C1116 1.414 . S
C1115 C1118 1.499 . S
C1116 H1096 0.950 . S
C1116 C1115 1.414 . S
C1116 C1117 1.374 . S
C1117 H1097 0.950 . S
C1117 C1113 1.385 . S
C1117 C1116 1.374 . S
C1118 C1115 1.499 . S
C1118 C1119 1.373 . S
C1118 C1120 1.389 . S
C1119 H1098 0.950 . S
C1119 C1118 1.373 . S
C1119 C1135 1.377 . S
C1120 C1118 1.389 . S
C1120 C1121 1.524 . S
C1120 C1134 1.377 . S
C1121 C1120 1.524 . S
C1121 C1122 1.397 . S
C1121 C1126 1.363 . S
C1122 H1099 0.950 . S
C1122 C1121 1.397 . S
C1122 C1123 1.334 . S
C1123 H1100 0.950 . S
C1123 C1122 1.334 . S
C1123 C1124 1.287 . S
C1124 C1123 1.287 . S
C1124 C1125 1.524 . S
C1124 H1143 0.913 . S
C1125 H1101 0.950 . S
C1125 C1124 1.524 . S
C1125 C1126 1.415 . S
C1126 H1102 0.950 . S
C1126 C1121 1.363 . S
C1126 C1125 1.415 . S
C1127 H1103 0.951 . S
C1127 C1128 1.366 . S
C1127 C1129 1.388 . S
C1128 C1127 1.366 . S
C1128 C1132 1.385 . S
C1129 H1104 0.951 . S
C1129 C1127 1.388 . S
C1129 C1130 1.366 . S
C1130 C1129 1.366 . S
C1130 C1131 1.414 . S
C1130 C1133 1.499 . S
C1131 H1105 0.950 . S
C1131 C1130 1.414 . S
C1131 C1132 1.374 . S
C1132 H1106 0.950 . S
C1132 C1128 1.385 . S
C1132 C1131 1.374 . S
C1133 C1130 1.499 . S
C1133 C1134 1.373 . S
C1133 C1135 1.389 . S
C1134 H1107 0.950 . S
C1134 C1120 1.377 . S
C1134 C1133 1.373 . S
C1135 C1119 1.377 . S
C1135 C1133 1.389 . S
C1135 C1136 1.524 . S
C1136 C1135 1.524 . S
C1136 C1137 1.397 . S
C1136 C1141 1.363 . S
C1137 H1108 0.950 . S
C1137 C1136 1.397 . S
C1137 C1138 1.334 . S
C1138 H1109 0.950 . S
C1138 C1137 1.334 . S
C1138 C1139 1.287 . S
C1139 C1138 1.287 . S
C1139 C1140 1.524 . S
C1139 H1142 0.999 . S
C1140 H1110 0.950 . S
C1140 C1139 1.524 . S
C1140 C1141 1.415 . S
C1141 H1111 0.950 . S
C1141 C1136 1.363 . S
C1141 C1140 1.415 . S
H1142 C1139 0.999 . S
H1143 C1124 0.913 . S
H1144 C1162 0.951 . S
H1145 C1164 0.951 . S
H1146 C1166 0.950 . S
H1147 C1167 0.950 . S
H1148 C1169 0.950 . S
H1149 C1172 0.950 . S
H1150 C1173 0.950 . S
H1151 C1175 0.950 . S
H1152 C1176 0.950 . S
H1153 C1177 0.951 . S
H1154 C1179 0.951 . S
H1155 C1181 0.950 . S
H1156 C1182 0.950 . S
H1157 C1184 0.950 . S
H1158 C1187 0.950 . S
H1159 C1188 0.950 . S
H1160 C1190 0.950 . S
H1161 C1191 0.950 . S
C1162 H1144 0.951 . S
C1162 C1163 1.366 . S
C1162 C1164 1.388 . S
C1163 C1162 1.366 . S
C1163 C1167 1.385 . S
C1164 H1145 0.951 . S
C1164 C1162 1.388 . S
C1164 C1165 1.366 . S
C1165 C1164 1.366 . S
C1165 C1166 1.414 . S
C1165 C1168 1.499 . S
C1166 H1146 0.950 . S
C1166 C1165 1.414 . S
C1166 C1167 1.374 . S
C1167 H1147 0.950 . S
C1167 C1163 1.385 . S
C1167 C1166 1.374 . S
C1168 C1165 1.499 . S
C1168 C1169 1.373 . S
C1168 C1170 1.389 . S
C1169 H1148 0.950 . S
C1169 C1168 1.373 . S
C1169 C1185 1.377 . S
C1170 C1168 1.389 . S
C1170 C1171 1.524 . S
C1170 C1184 1.377 . S
C1171 C1170 1.524 . S
C1171 C1172 1.397 . S
C1171 C1176 1.363 . S
C1172 H1149 0.950 . S
C1172 C1171 1.397 . S
C1172 C1173 1.334 . S
C1173 H1150 0.950 . S
C1173 C1172 1.334 . S
C1173 C1174 1.287 . S
C1174 C1173 1.287 . S
C1174 C1175 1.524 . S
C1174 H1193 0.913 . S
C1175 H1151 0.950 . S
C1175 C1174 1.524 . S
C1175 C1176 1.415 . S
C1176 H1152 0.950 . S
C1176 C1171 1.363 . S
C1176 C1175 1.415 . S
C1177 H1153 0.951 . S
C1177 C1178 1.366 . S
C1177 C1179 1.388 . S
C1178 C1177 1.366 . S
C1178 C1182 1.385 . S
C1179 H1154 0.951 . S
C1179 C1177 1.388 . S
C1179 C1180 1.366 . S
C1180 C1179 1.366 . S
C1180 C1181 1.414 . S
C1180 C1183 1.499 . S
C1181 H1155 0.950 . S
C1181 C1180 1.414 . S
C1181 C1182 1.374 . S
C1182 H1156 0.950 . S
C1182 C1178 1.385 . S
C1182 C1181 1.374 . S
C1183 C1180 1.499 . S
C1183 C1184 1.373 . S
C1183 C1185 1.389 . S
C1184 H1157 0.950 . S
C1184 C1170 1.377 . S
C1184 C1183 1.373 . S
C1185 C1169 1.377 . S
C1185 C1183 1.389 . S
C1185 C1186 1.524 . S
C1186 C1185 1.524 . S
C1186 C1187 1.397 . S
C1186 C1191 1.363 . S
C1187 H1158 0.950 . S
C1187 C1186 1.397 . S
C1187 C1188 1.334 . S
C1188 H1159 0.950 . S
C1188 C1187 1.334 . S
C1188 C1189 1.287 . S
C1189 C1188 1.287 . S
C1189 C1190 1.524 . S
C1189 H1192 0.999 . S
C1190 H1160 0.950 . S
C1190 C1189 1.524 . S
C1190 C1191 1.415 . S
C1191 H1161 0.950 . S
C1191 C1186 1.363 . S
C1191 C1190 1.415 . S
H1192 C1189 0.999 . S
H1193 C1174 0.913 . S
H1194 C1212 0.951 . S
H1195 C1214 0.951 . S
H1196 C1216 0.950 . S
H1197 C1217 0.950 . S
H1198 C1219 0.950 . S
H1199 C1222 0.950 . S
H1200 C1223 0.950 . S
H1201 C1225 0.950 . S
H1202 C1226 0.950 . S
H1203 C1227 0.951 . S
H1204 C1229 0.951 . S
H1205 C1231 0.950 . S
H1206 C1232 0.950 . S
H1207 C1234 0.950 . S
H1208 C1237 0.950 . S
H1209 C1238 0.950 . S
H1210 C1240 0.950 . S
H1211 C1241 0.950 . S
C1212 H1194 0.951 . S
C1212 C1213 1.366 . S
C1212 C1214 1.388 . S
C1213 C1212 1.366 . S
C1213 C1217 1.385 . S
C1214 H1195 0.951 . S
C1214 C1212 1.388 . S
C1214 C1215 1.366 . S
C1215 C1214 1.366 . S
C1215 C1216 1.414 . S
C1215 C1218 1.499 . S
C1216 H1196 0.950 . S
C1216 C1215 1.414 . S
C1216 C1217 1.374 . S
C1217 H1197 0.950 . S
C1217 C1213 1.385 . S
C1217 C1216 1.374 . S
C1218 C1215 1.499 . S
C1218 C1219 1.373 . S
C1218 C1220 1.389 . S
C1219 H1198 0.950 . S
C1219 C1218 1.373 . S
C1219 C1235 1.377 . S
C1220 C1218 1.389 . S
C1220 C1221 1.524 . S
C1220 C1234 1.377 . S
C1221 C1220 1.524 . S
C1221 C1222 1.397 . S
C1221 C1226 1.363 . S
C1222 H1199 0.950 . S
C1222 C1221 1.397 . S
C1222 C1223 1.334 . S
C1223 H1200 0.950 . S
C1223 C1222 1.334 . S
C1223 C1224 1.287 . S
C1224 C1223 1.287 . S
C1224 C1225 1.524 . S
C1224 H1243 0.913 . S
C1225 H1201 0.950 . S
C1225 C1224 1.524 . S
C1225 C1226 1.415 . S
C1226 H1202 0.950 . S
C1226 C1221 1.363 . S
C1226 C1225 1.415 . S
C1227 H1203 0.951 . S
C1227 C1228 1.366 . S
C1227 C1229 1.388 . S
C1228 C1227 1.366 . S
C1228 C1232 1.385 . S
C1229 H1204 0.951 . S
C1229 C1227 1.388 . S
C1229 C1230 1.366 . S
C1230 C1229 1.366 . S
C1230 C1231 1.414 . S
C1230 C1233 1.499 . S
C1231 H1205 0.950 . S
C1231 C1230 1.414 . S
C1231 C1232 1.374 . S
C1232 H1206 0.950 . S
C1232 C1228 1.385 . S
C1232 C1231 1.374 . S
C1233 C1230 1.499 . S
C1233 C1234 1.373 . S
C1233 C1235 1.389 . S
C1234 H1207 0.950 . S
C1234 C1220 1.377 . S
C1234 C1233 1.373 . S
C1235 C1219 1.377 . S
C1235 C1233 1.389 . S
C1235 C1236 1.524 . S
C1236 C1235 1.524 . S
C1236 C1237 1.397 . S
C1236 C1241 1.363 . S
C1237 H1208 0.950 . S
C1237 C1236 1.397 . S
C1237 C1238 1.334 . S
C1238 H1209 0.950 . S
C1238 C1237 1.334 . S
C1238 C1239 1.287 . S
C1239 C1238 1.287 . S
C1239 C1240 1.524 . S
C1239 H1242 0.999 . S
C1240 H1210 0.950 . S
C1240 C1239 1.524 . S
C1240 C1241 1.415 . S
C1241 H1211 0.950 . S
C1241 C1236 1.363 . S
C1241 C1240 1.415 . S
H1242 C1239 0.999 . S
H1243 C1224 0.913 . S
H1244 C1262 0.951 . S
H1245 C1264 0.951 . S
H1246 C1266 0.950 . S
H1247 C1267 0.950 . S
H1248 C1269 0.950 . S
H1249 C1272 0.950 . S
H1250 C1273 0.950 . S
H1251 C1275 0.950 . S
H1252 C1276 0.950 . S
H1253 C1277 0.951 . S
H1254 C1279 0.951 . S
H1255 C1281 0.950 . S
H1256 C1282 0.950 . S
H1257 C1284 0.950 . S
H1258 C1287 0.950 . S
H1259 C1288 0.950 . S
H1260 C1290 0.950 . S
H1261 C1291 0.950 . S
C1262 H1244 0.951 . S
C1262 C1263 1.366 . S
C1262 C1264 1.388 . S
C1263 C1262 1.366 . S
C1263 C1267 1.385 . S
C1264 H1245 0.951 . S
C1264 C1262 1.388 . S
C1264 C1265 1.366 . S
C1265 C1264 1.366 . S
C1265 C1266 1.414 . S
C1265 C1268 1.499 . S
C1266 H1246 0.950 . S
C1266 C1265 1.414 . S
C1266 C1267 1.374 . S
C1267 H1247 0.950 . S
C1267 C1263 1.385 . S
C1267 C1266 1.374 . S
C1268 C1265 1.499 . S
C1268 C1269 1.373 . S
C1268 C1270 1.389 . S
C1269 H1248 0.950 . S
C1269 C1268 1.373 . S
C1269 C1285 1.377 . S
C1270 C1268 1.389 . S
C1270 C1271 1.524 . S
C1270 C1284 1.377 . S
C1271 C1270 1.524 . S
C1271 C1272 1.397 . S
C1271 C1276 1.363 . S
C1272 H1249 0.950 . S
C1272 C1271 1.397 . S
C1272 C1273 1.334 . S
C1273 H1250 0.950 . S
C1273 C1272 1.334 . S
C1273 C1274 1.287 . S
C1274 C1273 1.287 . S
C1274 C1275 1.524 . S
C1274 H1293 0.913 . S
C1275 H1251 0.950 . S
C1275 C1274 1.524 . S
C1275 C1276 1.415 . S
C1276 H1252 0.950 . S
C1276 C1271 1.363 . S
C1276 C1275 1.415 . S
C1277 H1253 0.951 . S
C1277 C1278 1.366 . S
C1277 C1279 1.388 . S
C1278 C1277 1.366 . S
C1278 C1282 1.385 . S
C1279 H1254 0.951 . S
C1279 C1277 1.388 . S
C1279 C1280 1.366 . S
C1280 C1279 1.366 . S
C1280 C1281 1.414 . S
C1280 C1283 1.499 . S
C1281 H1255 0.950 . S
C1281 C1280 1.414 . S
C1281 C1282 1.374 . S
C1282 H1256 0.950 . S
C1282 C1278 1.385 . S
C1282 C1281 1.374 . S
C1283 C1280 1.499 . S
C1283 C1284 1.373 . S
C1283 C1285 1.389 . S
C1284 H1257 0.950 . S
C1284 C1270 1.377 . S
C1284 C1283 1.373 . S
C1285 C1269 1.377 . S
C1285 C1283 1.389 . S
C1285 C1286 1.524 . S
C1286 C1285 1.524 . S
C1286 C1287 1.397 . S
C1286 C1291 1.363 . S
C1287 H1258 0.950 . S
C1287 C1286 1.397 . S
C1287 C1288 1.334 . S
C1288 H1259 0.950 . S
C1288 C1287 1.334 . S
C1288 C1289 1.287 . S
C1289 C1288 1.287 . S
C1289 C1290 1.524 . S
C1289 H1292 0.999 . S
C1290 H1260 0.950 . S
C1290 C1289 1.524 . S
C1290 C1291 1.415 . S
C1291 H1261 0.950 . S
C1291 C1286 1.363 . S
C1291 C1290 1.415 . S
H1292 C1289 0.999 . S
H1293 C1274 0.913 . S
H1294 C1312 0.951 . S
H1295 C1314 0.951 . S
H1296 C1316 0.950 . S
H1297 C1317 0.950 . S
H1298 C1319 0.950 . S
H1299 C1322 0.950 . S
H1300 C1323 0.950 . S
H1301 C1325 0.950 . S
H1302 C1326 0.950 . S
H1303 C1327 0.951 . S
H1304 C1329 0.951 . S
H1305 C1331 0.950 . S
H1306 C1332 0.950 . S
H1307 C1334 0.950 . S
H1308 C1337 0.950 . S
H1309 C1338 0.950 . S
H1310 C1340 0.950 . S
H1311 C1341 0.950 . S
C1312 H1294 0.951 . S
C1312 C1313 1.366 . S
C1312 C1314 1.388 . S
C1313 C1312 1.366 . S
C1313 C1317 1.385 . S
C1314 H1295 0.951 . S
C1314 C1312 1.388 . S
C1314 C1315 1.366 . S
C1315 C1314 1.366 . S
C1315 C1316 1.414 . S
C1315 C1318 1.499 . S
C1316 H1296 0.950 . S
C1316 C1315 1.414 . S
C1316 C1317 1.374 . S
C1317 H1297 0.950 . S
C1317 C1313 1.385 . S
C1317 C1316 1.374 . S
C1318 C1315 1.499 . S
C1318 C1319 1.373 . S
C1318 C1320 1.389 . S
C1319 H1298 0.950 . S
C1319 C1318 1.373 . S
C1319 C1335 1.377 . S
C1320 C1318 1.389 . S
C1320 C1321 1.524 . S
C1320 C1334 1.377 . S
C1321 C1320 1.524 . S
C1321 C1322 1.397 . S
C1321 C1326 1.363 . S
C1322 H1299 0.950 . S
C1322 C1321 1.397 . S
C1322 C1323 1.334 . S
C1323 H1300 0.950 . S
C1323 C1322 1.334 . S
C1323 C1324 1.287 . S
C1324 C1323 1.287 . S
C1324 C1325 1.524 . S
C1324 H1343 0.913 . S
C1325 H1301 0.950 . S
C1325 C1324 1.524 . S
C1325 C1326 1.415 . S
C1326 H1302 0.950 . S
C1326 C1321 1.363 . S
C1326 C1325 1.415 . S
C1327 H1303 0.951 . S
C1327 C1328 1.366 . S
C1327 C1329 1.388 . S
C1328 C1327 1.366 . S
C1328 C1332 1.385 . S
C1329 H1304 0.951 . S
C1329 C1327 1.388 . S
C1329 C1330 1.366 . S
C1330 C1329 1.366 . S
C1330 C1331 1.414 . S
C1330 C1333 1.499 . S
C1331 H1305 0.950 . S
C1331 C1330 1.414 . S
C1331 C1332 1.374 . S
C1332 H1306 0.950 . S
C1332 C1328 1.385 . S
C1332 C1331 1.374 . S
C1333 C1330 1.499 . S
C1333 C1334 1.373 . S
C1333 C1335 1.389 . S
C1334 H1307 0.950 . S
C1334 C1320 1.377 . S
C1334 C1333 1.373 . S
C1335 C1319 1.377 . S
C1335 C1333 1.389 . S
C1335 C1336 1.524 . S
C1336 C1335 1.524 . S
C1336 C1337 1.397 . S
C1336 C1341 1.363 . S
C1337 H1308 0.950 . S
C1337 C1336 1.397 . S
C1337 C1338 1.334 . S
C1338 H1309 0.950 . S
C1338 C1337 1.334 . S
C1338 C1339 1.287 . S
C1339 C1338 1.287 . S
C1339 C1340 1.524 . S
C1339 H1342 0.999 . S
C1340 H1310 0.950 . S
C1340 C1339 1.524 . S
C1340 C1341 1.415 . S
C1341 H1311 0.950 . S
C1341 C1336 1.363 . S
C1341 C1340 1.415 . S
H1342 C1339 0.999 . S
H1343 C1324 0.913 . S
H1344 C1362 0.951 . S
H1345 C1364 0.951 . S
H1346 C1366 0.950 . S
H1347 C1367 0.950 . S
H1348 C1369 0.950 . S
H1349 C1372 0.950 . S
H1350 C1373 0.950 . S
H1351 C1375 0.950 . S
H1352 C1376 0.950 . S
H1353 C1377 0.951 . S
H1354 C1379 0.951 . S
H1355 C1381 0.950 . S
H1356 C1382 0.950 . S
H1357 C1384 0.950 . S
H1358 C1387 0.950 . S
H1359 C1388 0.950 . S
H1360 C1390 0.950 . S
H1361 C1391 0.950 . S
C1362 H1344 0.951 . S
C1362 C1363 1.366 . S
C1362 C1364 1.388 . S
C1363 C1362 1.366 . S
C1363 C1367 1.385 . S
C1364 H1345 0.951 . S
C1364 C1362 1.388 . S
C1364 C1365 1.366 . S
C1365 C1364 1.366 . S
C1365 C1366 1.414 . S
C1365 C1368 1.499 . S
C1366 H1346 0.950 . S
C1366 C1365 1.414 . S
C1366 C1367 1.374 . S
C1367 H1347 0.950 . S
C1367 C1363 1.385 . S
C1367 C1366 1.374 . S
C1368 C1365 1.499 . S
C1368 C1369 1.373 . S
C1368 C1370 1.389 . S
C1369 H1348 0.950 . S
C1369 C1368 1.373 . S
C1369 C1385 1.377 . S
C1370 C1368 1.389 . S
C1370 C1371 1.524 . S
C1370 C1384 1.377 . S
C1371 C1370 1.524 . S
C1371 C1372 1.397 . S
C1371 C1376 1.363 . S
C1372 H1349 0.950 . S
C1372 C1371 1.397 . S
C1372 C1373 1.334 . S
C1373 H1350 0.950 . S
C1373 C1372 1.334 . S
C1373 C1374 1.287 . S
C1374 C1373 1.287 . S
C1374 C1375 1.524 . S
C1374 H1393 0.913 . S
C1375 H1351 0.950 . S
C1375 C1374 1.524 . S
C1375 C1376 1.415 . S
C1376 H1352 0.950 . S
C1376 C1371 1.363 . S
C1376 C1375 1.415 . S
C1377 H1353 0.951 . S
C1377 C1378 1.366 . S
C1377 C1379 1.388 . S
C1378 C1377 1.366 . S
C1378 C1382 1.385 . S
C1379 H1354 0.951 . S
C1379 C1377 1.388 . S
C1379 C1380 1.366 . S
C1380 C1379 1.366 . S
C1380 C1381 1.414 . S
C1380 C1383 1.499 . S
C1381 H1355 0.950 . S
C1381 C1380 1.414 . S
C1381 C1382 1.374 . S
C1382 H1356 0.950 . S
C1382 C1378 1.385 . S
C1382 C1381 1.374 . S
C1383 C1380 1.499 . S
C1383 C1384 1.373 . S
C1383 C1385 1.389 . S
C1384 H1357 0.950 . S
C1384 C1370 1.377 . S
C1384 C1383 1.373 . S
C1385 C1369 1.377 . S
C1385 C1383 1.389 . S
C1385 C1386 1.524 . S
C1386 C1385 1.524 . S
C1386 C1387 1.397 . S
C1386 C1391 1.363 . S
C1387 H1358 0.950 . S
C1387 C1386 1.397 . S
C1387 C1388 1.334 . S
C1388 H1359 0.950 . S
C1388 C1387 1.334 . S
C1388 C1389 1.287 . S
C1389 C1388 1.287 . S
C1389 C1390 1.524 . S
C1389 H1392 0.999 . S
C1390 H1360 0.950 . S
C1390 C1389 1.524 . S
C1390 C1391 1.415 . S
C1391 H1361 0.950 . S
C1391 C1386 1.363 . S
C1391 C1390 1.415 . S
H1392 C1389 0.999 . S
H1393 C1374 0.913 . S
H1394 C1412 0.951 . S
H1395 C1414 0.951 . S
H1396 C1416 0.950 . S
H1397 C1417 0.950 . S
H1398 C1419 0.950 . S
H1399 C1422 0.950 . S
H1400 C1423 0.950 . S
H1401 C1425 0.950 . S
H1402 C1426 0.950 . S
H1403 C1427 0.951 . S
H1404 C1429 0.951 . S
H1405 C1431 0.950 . S
H1406 C1432 0.950 . S
H1407 C1434 0.950 . S
H1408 C1437 0.950 . S
H1409 C1438 0.950 . S
H1410 C1440 0.950 . S
H1411 C1441 0.950 . S
C1412 H1394 0.951 . S
C1412 C1413 1.366 . S
C1412 C1414 1.388 . S
C1413 C1412 1.366 . S
C1413 C1417 1.385 . S
C1414 H1395 0.951 . S
C1414 C1412 1.388 . S
C1414 C1415 1.366 . S
C1415 C1414 1.366 . S
C1415 C1416 1.414 . S
C1415 C1418 1.499 . S
C1416 H1396 0.950 . S
C1416 C1415 1.414 . S
C1416 C1417 1.374 . S
C1417 H1397 0.950 . S
C1417 C1413 1.385 . S
C1417 C1416 1.374 . S
C1418 C1415 1.499 . S
C1418 C1419 1.373 . S
C1418 C1420 1.389 . S
C1419 H1398 0.950 . S
C1419 C1418 1.373 . S
C1419 C1435 1.377 . S
C1420 C1418 1.389 . S
C1420 C1421 1.524 . S
C1420 C1434 1.377 . S
C1421 C1420 1.524 . S
C1421 C1422 1.397 . S
C1421 C1426 1.363 . S
C1422 H1399 0.950 . S
C1422 C1421 1.397 . S
C1422 C1423 1.334 . S
C1423 H1400 0.950 . S
C1423 C1422 1.334 . S
C1423 C1424 1.287 . S
C1424 C1423 1.287 . S
C1424 C1425 1.524 . S
C1424 H1443 0.913 . S
C1425 H1401 0.950 . S
C1425 C1424 1.524 . S
C1425 C1426 1.415 . S
C1426 H1402 0.950 . S
C1426 C1421 1.363 . S
C1426 C1425 1.415 . S
C1427 H1403 0.951 . S
C1427 C1428 1.366 . S
C1427 C1429 1.388 . S
C1428 C1427 1.366 . S
C1428 C1432 1.385 . S
C1429 H1404 0.951 . S
C1429 C1427 1.388 . S
C1429 C1430 1.366 . S
C1430 C1429 1.366 . S
C1430 C1431 1.414 . S
C1430 C1433 1.499 . S
C1431 H1405 0.950 . S
C1431 C1430 1.414 . S
C1431 C1432 1.374 . S
C1432 H1406 0.950 . S
C1432 C1428 1.385 . S
C1432 C1431 1.374 . S
C1433 C1430 1.499 . S
C1433 C1434 1.373 . S
C1433 C1435 1.389 . S
C1434 H1407 0.950 . S
C1434 C1420 1.377 . S
C1434 C1433 1.373 . S
C1435 C1419 1.377 . S
C1435 C1433 1.389 . S
C1435 C1436 1.524 . S
C1436 C1435 1.524 . S
C1436 C1437 1.397 . S
C1436 C1441 1.363 . S
C1437 H1408 0.950 . S
C1437 C1436 1.397 . S
C1437 C1438 1.334 . S
C1438 H1409 0.950 . S
C1438 C1437 1.334 . S
C1438 C1439 1.287 . S
C1439 C1438 1.287 . S
C1439 C1440 1.524 . S
C1439 H1442 0.999 . S
C1440 H1410 0.950 . S
C1440 C1439 1.524 . S
C1440 C1441 1.415 . S
C1441 H1411 0.950 . S
C1441 C1436 1.363 . S
C1441 C1440 1.415 . S
H1442 C1439 0.999 . S
H1443 C1424 0.913 . S
H1444 C1462 0.951 . S
H1445 C1464 0.951 . S
H1446 C1466 0.950 . S
H1447 C1467 0.950 . S
H1448 C1469 0.950 . S
H1449 C1472 0.950 . S
H1450 C1473 0.950 . S
H1451 C1475 0.950 . S
H1452 C1476 0.950 . S
H1453 C1477 0.951 . S
H1454 C1479 0.951 . S
H1455 C1481 0.950 . S
H1456 C1482 0.950 . S
H1457 C1484 0.950 . S
H1458 C1487 0.950 . S
H1459 C1488 0.950 . S
H1460 C1490 0.950 . S
H1461 C1491 0.950 . S
C1462 H1444 0.951 . S
C1462 C1463 1.366 . S
C1462 C1464 1.388 . S
C1463 C1462 1.366 . S
C1463 C1467 1.385 . S
C1464 H1445 0.951 . S
C1464 C1462 1.388 . S
C1464 C1465 1.366 . S
C1465 C1464 1.366 . S
C1465 C1466 1.414 . S
C1465 C1468 1.499 . S
C1466 H1446 0.950 . S
C1466 C1465 1.414 . S
C1466 C1467 1.374 . S
C1467 H1447 0.950 . S
C1467 C1463 1.385 . S
C1467 C1466 1.374 . S
C1468 C1465 1.499 . S
C1468 C1469 1.373 . S
C1468 C1470 1.389 . S
C1469 H1448 0.950 . S
C1469 C1468 1.373 . S
C1469 C1485 1.377 . S
C1470 C1468 1.389 . S
C1470 C1471 1.524 . S
C1470 C1484 1.377 . S
C1471 C1470 1.524 . S
C1471 C1472 1.397 . S
C1471 C1476 1.363 . S
C1472 H1449 0.950 . S
C1472 C1471 1.397 . S
C1472 C1473 1.334 . S
C1473 H1450 0.950 . S
C1473 C1472 1.334 . S
C1473 C1474 1.287 . S
C1474 C1473 1.287 . S
C1474 C1475 1.524 . S
C1474 H1493 0.913 . S
C1475 H1451 0.950 . S
C1475 C1474 1.524 . S
C1475 C1476 1.415 . S
C1476 H1452 0.950 . S
C1476 C1471 1.363 . S
C1476 C1475 1.415 . S
C1477 H1453 0.951 . S
C1477 C1478 1.366 . S
C1477 C1479 1.388 . S
C1478 C1477 1.366 . S
C1478 C1482 1.385 . S
C1479 H1454 0.951 . S
C1479 C1477 1.388 . S
C1479 C1480 1.366 . S
C1480 C1479 1.366 . S
C1480 C1481 1.414 . S
C1480 C1483 1.499 . S
C1481 H1455 0.950 . S
C1481 C1480 1.414 . S
C1481 C1482 1.374 . S
C1482 H1456 0.950 . S
C1482 C1478 1.385 . S
C1482 C1481 1.374 . S
C1483 C1480 1.499 . S
C1483 C1484 1.373 . S
C1483 C1485 1.389 . S
C1484 H1457 0.950 . S
C1484 C1470 1.377 . S
C1484 C1483 1.373 . S
C1485 C1469 1.377 . S
C1485 C1483 1.389 . S
C1485 C1486 1.524 . S
C1486 C1485 1.524 . S
C1486 C1487 1.397 . S
C1486 C1491 1.363 . S
C1487 H1458 0.950 . S
C1487 C1486 1.397 . S
C1487 C1488 1.334 . S
C1488 H1459 0.950 . S
C1488 C1487 1.334 . S
C1488 C1489 1.287 . S
C1489 C1488 1.287 . S
C1489 C1490 1.524 . S
C1489 H1492 0.999 . S
C1490 H1460 0.950 . S
C1490 C1489 1.524 . S
C1490 C1491 1.415 . S
C1491 H1461 0.950 . S
C1491 C1486 1.363 . S
C1491 C1490 1.415 . S
H1492 C1489 0.999 . S
H1493 C1474 0.913 . S
H1494 C1512 0.951 . S
H1495 C1514 0.951 . S
H1496 C1516 0.950 . S
H1497 C1517 0.950 . S
H1498 C1519 0.950 . S
H1499 C1522 0.950 . S
H1500 C1523 0.950 . S
H1501 C1525 0.950 . S
H1502 C1526 0.950 . S
H1503 C1527 0.951 . S
H1504 C1529 0.951 . S
H1505 C1531 0.950 . S
H1506 C1532 0.950 . S
H1507 C1534 0.950 . S
H1508 C1537 0.950 . S
H1509 C1538 0.950 . S
H1510 C1540 0.950 . S
H1511 C1541 0.950 . S
C1512 H1494 0.951 . S
C1512 C1513 1.366 . S
C1512 C1514 1.388 . S
C1513 C1512 1.366 . S
C1513 C1517 1.385 . S
C1514 H1495 0.951 . S
C1514 C1512 1.388 . S
C1514 C1515 1.366 . S
C1515 C1514 1.366 . S
C1515 C1516 1.414 . S
C1515 C1518 1.499 . S
C1516 H1496 0.950 . S
C1516 C1515 1.414 . S
C1516 C1517 1.374 . S
C1517 H1497 0.950 . S
C1517 C1513 1.385 . S
C1517 C1516 1.374 . S
C1518 C1515 1.499 . S
C1518 C1519 1.373 . S
C1518 C1520 1.389 . S
C1519 H1498 0.950 . S
C1519 C1518 1.373 . S
C1519 C1535 1.377 . S
C1520 C1518 1.389 . S
C1520 C1521 1.524 . S
C1520 C1534 1.377 . S
C1521 C1520 1.524 . S
C1521 C1522 1.397 . S
C1521 C1526 1.363 . S
C1522 H1499 0.950 . S
C1522 C1521 1.397 . S
C1522 C1523 1.334 . S
C1523 H1500 0.950 . S
C1523 C1522 1.334 . S
C1523 C1524 1.287 . S
C1524 C1523 1.287 . S
C1524 C1525 1.524 . S
C1524 H1543 0.913 . S
C1525 H1501 0.950 . S
C1525 C1524 1.524 . S
C1525 C1526 1.415 . S
C1526 H1502 0.950 . S
C1526 C1521 1.363 . S
C1526 C1525 1.415 . S
C1527 H1503 0.951 . S
C1527 C1528 1.366 . S
C1527 C1529 1.388 . S
C1528 C1527 1.366 . S
C1528 C1532 1.385 . S
C1529 H1504 0.951 . S
C1529 C1527 1.388 . S
C1529 C1530 1.366 . S
C1530 C1529 1.366 . S
C1530 C1531 1.414 . S
C1530 C1533 1.499 . S
C1531 H1505 0.950 . S
C1531 C1530 1.414 . S
C1531 C1532 1.374 . S
C1532 H1506 0.950 . S
C1532 C1528 1.385 . S
C1532 C1531 1.374 . S
C1533 C1530 1.499 . S
C1533 C1534 1.373 . S
C1533 C1535 1.389 . S
C1534 H1507 0.950 . S
C1534 C1520 1.377 . S
C1534 C1533 1.373 . S
C1535 C1519 1.377 . S
C1535 C1533 1.389 . S
C1535 C1536 1.524 . S
C1536 C1535 1.524 . S
C1536 C1537 1.397 . S
C1536 C1541 1.363 . S
C1537 H1508 0.950 . S
C1537 C1536 1.397 . S
C1537 C1538 1.334 . S
C1538 H1509 0.950 . S
C1538 C1537 1.334 . S
C1538 C1539 1.287 . S
C1539 C1538 1.287 . S
C1539 C1540 1.524 . S
C1539 H1542 0.999 . S
C1540 H1510 0.950 . S
C1540 C1539 1.524 . S
C1540 C1541 1.415 . S
C1541 H1511 0.950 . S
C1541 C1536 1.363 . S
C1541 C1540 1.415 . S
H1542 C1539 0.999 . S
H1543 C1524 0.913 . S
H1544 C1562 0.951 . S
H1545 C1564 0.951 . S
H1546 C1566 0.950 . S
H1547 C1567 0.950 . S
H1548 C1569 0.950 . S
H1549 C1572 0.950 . S
H1550 C1573 0.950 . S
H1551 C1575 0.950 . S
H1552 C1576 0.950 . S
H1553 C1577 0.951 . S
H1554 C1579 0.951 . S
H1555 C1581 0.950 . S
H1556 C1582 0.950 . S
H1557 C1584 0.950 . S
H1558 C1587 0.950 . S
H1559 C1588 0.950 . S
H1560 C1590 0.950 . S
H1561 C1591 0.950 . S
C1562 H1544 0.951 . S
C1562 C1563 1.366 . S
C1562 C1564 1.388 . S
C1563 C1562 1.366 . S
C1563 C1567 1.385 . S
C1564 H1545 0.951 . S
C1564 C1562 1.388 . S
C1564 C1565 1.366 . S
C1565 C1564 1.366 . S
C1565 C1566 1.414 . S
C1565 C1568 1.499 . S
C1566 H1546 0.950 . S
C1566 C1565 1.414 . S
C1566 C1567 1.374 . S
C1567 H1547 0.950 . S
C1567 C1563 1.385 . S
C1567 C1566 1.374 . S
C1568 C1565 1.499 . S
C1568 C1569 1.373 . S
C1568 C1570 1.389 . S
C1569 H1548 0.950 . S
C1569 C1568 1.373 . S
C1569 C1585 1.377 . S
C1570 C1568 1.389 . S
C1570 C1571 1.524 . S
C1570 C1584 1.377 . S
C1571 C1570 1.524 . S
C1571 C1572 1.397 . S
C1571 C1576 1.363 . S
C1572 H1549 0.950 . S
C1572 C1571 1.397 . S
C1572 C1573 1.334 . S
C1573 H1550 0.950 . S
C1573 C1572 1.334 . S
C1573 C1574 1.287 . S
C1574 C1573 1.287 . S
C1574 C1575 1.524 . S
C1574 H1593 0.913 . S
C1575 H1551 0.950 . S
C1575 C1574 1.524 . S
C1575 C1576 1.415 . S
C1576 H1552 0.950 . S
C1576 C1571 1.363 . S
C1576 C1575 1.415 . S
C1577 H1553 0.951 . S
C1577 C1578 1.366 . S
C1577 C1579 1.388 . S
C1578 C1577 1.366 . S
C1578 C1582 1.385 . S
C1579 H1554 0.951 . S
C1579 C1577 1.388 . S
C1579 C1580 1.366 . S
C1580 C1579 1.366 . S
C1580 C1581 1.414 . S
C1580 C1583 1.499 . S
C1581 H1555 0.950 . S
C1581 C1580 1.414 . S
C1581 C1582 1.374 . S
C1582 H1556 0.950 . S
C1582 C1578 1.385 . S
C1582 C1581 1.374 . S
C1583 C1580 1.499 . S
C1583 C1584 1.373 . S
C1583 C1585 1.389 . S
C1584 H1557 0.950 . S
C1584 C1570 1.377 . S
C1584 C1583 1.373 . S
C1585 C1569 1.377 . S
C1585 C1583 1.389 . S
C1585 C1586 1.524 . S
C1586 C1585 1.524 . S
C1586 C1587 1.397 . S
C1586 C1591 1.363 . S
C1587 H1558 0.950 . S
C1587 C1586 1.397 . S
C1587 C1588 1.334 . S
C1588 H1559 0.950 . S
C1588 C1587 1.334 . S
C1588 C1589 1.287 . S
C1589 C1588 1.287 . S
C1589 C1590 1.524 . S
C1589 H1592 0.999 . S
C1590 H1560 0.950 . S
C1590 C1589 1.524 . S
C1590 C1591 1.415 . S
C1591 H1561 0.950 . S
C1591 C1586 1.363 . S
C1591 C1590 1.415 . S
H1592 C1589 0.999 . S
H1593 C1574 0.913 . S
H1594 C1612 0.951 . S
H1595 C1614 0.951 . S
H1596 C1616 0.950 . S
H1597 C1617 0.950 . S
H1598 C1619 0.950 . S
H1599 C1622 0.950 . S
H1600 C1623 0.950 . S
H1601 C1625 0.950 . S
H1602 C1626 0.950 . S
H1603 C1627 0.951 . S
H1604 C1629 0.951 . S
H1605 C1631 0.950 . S
H1606 C1632 0.950 . S
H1607 C1634 0.950 . S
H1608 C1637 0.950 . S
H1609 C1638 0.950 . S
H1610 C1640 0.950 . S
H1611 C1641 0.950 . S
C1612 H1594 0.951 . S
C1612 C1613 1.366 . S
C1612 C1614 1.388 . S
C1613 C1612 1.366 . S
C1613 C1617 1.385 . S
C1614 H1595 0.951 . S
C1614 C1612 1.388 . S
C1614 C1615 1.366 . S
C1615 C1614 1.366 . S
C1615 C1616 1.414 . S
C1615 C1618 1.499 . S
C1616 H1596 0.950 . S
C1616 C1615 1.414 . S
C1616 C1617 1.374 . S
C1617 H1597 0.950 . S
C1617 C1613 1.385 . S
C1617 C1616 1.374 . S
C1618 C1615 1.499 . S
C1618 C1619 1.373 . S
C1618 C1620 1.389 . S
C1619 H1598 0.950 . S
C1619 C1618 1.373 . S
C1619 C1635 1.377 . S
C1620 C1618 1.389 . S
C1620 C1621 1.524 . S
C1620 C1634 1.377 . S
C1621 C1620 1.524 . S
C1621 C1622 1.397 . S
C1621 C1626 1.363 . S
C1622 H1599 0.950 . S
C1622 C1621 1.397 . S
C1622 C1623 1.334 . S
C1623 H1600 0.950 . S
C1623 C1622 1.334 . S
C1623 C1624 1.287 . S
C1624 C1623 1.287 . S
C1624 C1625 1.524 . S
C1624 H1643 0.913 . S
C1625 H1601 0.950 . S
C1625 C1624 1.524 . S
C1625 C1626 1.415 . S
C1626 H1602 0.950 . S
C1626 C1621 1.363 . S
C1626 C1625 1.415 . S
C1627 H1603 0.951 . S
C1627 C1628 1.366 . S
C1627 C1629 1.388 . S
C1628 C1627 1.366 . S
C1628 C1632 1.385 . S
C1629 H1604 0.951 . S
C1629 C1627 1.388 . S
C1629 C1630 1.366 . S
C1630 C1629 1.366 . S
C1630 C1631 1.414 . S
C1630 C1633 1.499 . S
C1631 H1605 0.950 . S
C1631 C1630 1.414 . S
C1631 C1632 1.374 . S
C1632 H1606 0.950 . S
C1632 C1628 1.385 . S
C1632 C1631 1.374 . S
C1633 C1630 1.499 . S
C1633 C1634 1.373 . S
C1633 C1635 1.389 . S
C1634 H1607 0.950 . S
C1634 C1620 1.377 . S
C1634 C1633 1.373 . S
C1635 C1619 1.377 . S
C1635 C1633 1.389 . S
C1635 C1636 1.524 . S
C1636 C1635 1.524 . S
C1636 C1637 1.397 . S
C1636 C1641 1.363 . S
C1637 H1608 0.950 . S
C1637 C1636 1.397 . S
C1637 C1638 1.334 . S
C1638 H1609 0.950 . S
C1638 C1637 1.334 . S
C1638 C1639 1.287 . S
C1639 C1638 1.287 . S
C1639 C1640 1.524 . S
C1639 H1642 0.999 . S
C1640 H1610 0.950 . S
C1640 C1639 1.524 . S
C1640 C1641 1.415 . S
C1641 H1611 0.950 . S
C1641 C1636 1.363 . S
C1641 C1640 1.415 . S
H1642 C1639 0.999 . S
H1643 C1624 0.913 . S
H1644 C1662 0.951 . S
H1645 C1664 0.951 . S
H1646 C1666 0.950 . S
H1647 C1667 0.950 . S
H1648 C1669 0.950 . S
H1649 C1672 0.950 . S
H1650 C1673 0.950 . S
H1651 C1675 0.950 . S
H1652 C1676 0.950 . S
H1653 C1677 0.951 . S
H1654 C1679 0.951 . S
H1655 C1681 0.950 . S
H1656 C1682 0.950 . S
H1657 C1684 0.950 . S
H1658 C1687 0.950 . S
H1659 C1688 0.950 . S
H1660 C1690 0.950 . S
H1661 C1691 0.950 . S
C1662 H1644 0.951 . S
C1662 C1663 1.366 . S
C1662 C1664 1.388 . S
C1663 C1662 1.366 . S
C1663 C1667 1.385 . S
C1664 H1645 0.951 . S
C1664 C1662 1.388 . S
C1664 C1665 1.366 . S
C1665 C1664 1.366 . S
C1665 C1666 1.414 . S
C1665 C1668 1.499 . S
C1666 H1646 0.950 . S
C1666 C1665 1.414 . S
C1666 C1667 1.374 . S
C1667 H1647 0.950 . S
C1667 C1663 1.385 . S
C1667 C1666 1.374 . S
C1668 C1665 1.499 . S
C1668 C1669 1.373 . S
C1668 C1670 1.389 . S
C1669 H1648 0.950 . S
C1669 C1668 1.373 . S
C1669 C1685 1.377 . S
C1670 C1668 1.389 . S
C1670 C1671 1.524 . S
C1670 C1684 1.377 . S
C1671 C1670 1.524 . S
C1671 C1672 1.397 . S
C1671 C1676 1.363 . S
C1672 H1649 0.950 . S
C1672 C1671 1.397 . S
C1672 C1673 1.334 . S
C1673 H1650 0.950 . S
C1673 C1672 1.334 . S
C1673 C1674 1.287 . S
C1674 C1673 1.287 . S
C1674 C1675 1.524 . S
C1674 H1693 0.913 . S
C1675 H1651 0.950 . S
C1675 C1674 1.524 . S
C1675 C1676 1.415 . S
C1676 H1652 0.950 . S
C1676 C1671 1.363 . S
C1676 C1675 1.415 . S
C1677 H1653 0.951 . S
C1677 C1678 1.366 . S
C1677 C1679 1.388 . S
C1678 C1677 1.366 . S
C1678 C1682 1.385 . S
C1679 H1654 0.951 . S
C1679 C1677 1.388 . S
C1679 C1680 1.366 . S
C1680 C1679 1.366 . S
C1680 C1681 1.414 . S
C1680 C1683 1.499 . S
C1681 H1655 0.950 . S
C1681 C1680 1.414 . S
C1681 C1682 1.374 . S
C1682 H1656 0.950 . S
C1682 C1678 1.385 . S
C1682 C1681 1.374 . S
C1683 C1680 1.499 . S
C1683 C1684 1.373 . S
C1683 C1685 1.389 . S
C1684 H1657 0.950 . S
C1684 C1670 1.377 . S
C1684 C1683 1.373 . S
C1685 C1669 1.377 . S
C1685 C1683 1.389 . S
C1685 C1686 1.524 . S
C1686 C1685 1.524 . S
C1686 C1687 1.397 . S
C1686 C1691 1.363 . S
C1687 H1658 0.950 . S
C1687 C1686 1.397 . S
C1687 C1688 1.334 . S
C1688 H1659 0.950 . S
C1688 C1687 1.334 . S
C1688 C1689 1.287 . S
C1689 C1688 1.287 . S
C1689 C1690 1.524 . S
C1689 H1692 0.999 . S
C1690 H1660 0.950 . S
C1690 C1689 1.524 . S
C1690 C1691 1.415 . S
C1691 H1661 0.950 . S
C1691 C1686 1.363 . S
C1691 C1690 1.415 . S
H1692 C1689 0.999 . S
H1693 C1674 0.913 . S
H1694 C1712 0.951 . S
H1695 C1714 0.951 . S
H1696 C1716 0.950 . S
H1697 C1717 0.950 . S
H1698 C1719 0.950 . S
H1699 C1722 0.950 . S
H1700 C1723 0.950 . S
H1701 C1725 0.950 . S
H1702 C1726 0.950 . S
H1703 C1727 0.951 . S
H1704 C1729 0.951 . S
H1705 C1731 0.950 . S
H1706 C1732 0.950 . S
H1707 C1734 0.950 . S
H1708 C1737 0.950 . S
H1709 C1738 0.950 . S
H1710 C1740 0.950 . S
H1711 C1741 0.950 . S
C1712 H1694 0.951 . S
C1712 C1713 1.366 . S
C1712 C1714 1.388 . S
C1713 C1712 1.366 . S
C1713 C1717 1.385 . S
C1714 H1695 0.951 . S
C1714 C1712 1.388 . S
C1714 C1715 1.366 . S
C1715 C1714 1.366 . S
C1715 C1716 1.414 . S
C1715 C1718 1.499 . S
C1716 H1696 0.950 . S
C1716 C1715 1.414 . S
C1716 C1717 1.374 . S
C1717 H1697 0.950 . S
C1717 C1713 1.385 . S
C1717 C1716 1.374 . S
C1718 C1715 1.499 . S
C1718 C1719 1.373 . S
C1718 C1720 1.389 . S
C1719 H1698 0.950 . S
C1719 C1718 1.373 . S
C1719 C1735 1.377 . S
C1720 C1718 1.389 . S
C1720 C1721 1.524 . S
C1720 C1734 1.377 . S
C1721 C1720 1.524 . S
C1721 C1722 1.397 . S
C1721 C1726 1.363 . S
C1722 H1699 0.950 . S
C1722 C1721 1.397 . S
C1722 C1723 1.334 . S
C1723 H1700 0.950 . S
C1723 C1722 1.334 . S
C1723 C1724 1.287 . S
C1724 C1723 1.287 . S
C1724 C1725 1.524 . S
C1724 H1743 0.913 . S
C1725 H1701 0.950 . S
C1725 C1724 1.524 . S
C1725 C1726 1.415 . S
C1726 H1702 0.950 . S
C1726 C1721 1.363 . S
C1726 C1725 1.415 . S
C1727 H1703 0.951 . S
C1727 C1728 1.366 . S
C1727 C1729 1.388 . S
C1728 C1727 1.366 . S
C1728 C1732 1.385 . S
C1729 H1704 0.951 . S
C1729 C1727 1.388 . S
C1729 C1730 1.366 . S
C1730 C1729 1.366 . S
C1730 C1731 1.414 . S
C1730 C1733 1.499 . S
C1731 H1705 0.950 . S
C1731 C1730 1.414 . S
C1731 C1732 1.374 . S
C1732 H1706 0.950 . S
C1732 C1728 1.385 . S
C1732 C1731 1.374 . S
C1733 C1730 1.499 . S
C1733 C1734 1.373 . S
C1733 C1735 1.389 . S
C1734 H1707 0.950 . S
C1734 C1720 1.377 . S
C1734 C1733 1.373 . S
C1735 C1719 1.377 . S
C1735 C1733 1.389 . S
C1735 C1736 1.524 . S
C1736 C1735 1.524 . S
C1736 C1737 1.397 . S
C1736 C1741 1.363 . S
C1737 H1708 0.950 . S
C1737 C1736 1.397 . S
C1737 C1738 1.334 . S
C1738 H1709 0.950 . S
C1738 C1737 1.334 . S
C1738 C1739 1.287 . S
C1739 C1738 1.287 . S
C1739 C1740 1.524 . S
C1739 H1742 0.999 . S
C1740 H1710 0.950 . S
C1740 C1739 1.524 . S
C1740 C1741 1.415 . S
C1741 H1711 0.950 . S
C1741 C1736 1.363 . S
C1741 C1740 1.415 . S
H1742 C1739 0.999 . S
H1743 C1724 0.913 . S
H1744 C1762 0.951 . S
H1745 C1764 0.951 . S
H1746 C1766 0.950 . S
H1747 C1767 0.950 . S
H1748 C1769 0.950 . S
H1749 C1772 0.950 . S
H1750 C1773 0.950 . S
H1751 C1775 0.950 . S
H1752 C1776 0.950 . S
H1753 C1777 0.951 . S
H1754 C1779 0.951 . S
H1755 C1781 0.950 . S
H1756 C1782 0.950 . S
H1757 C1784 0.950 . S
H1758 C1787 0.950 . S
H1759 C1788 0.950 . S
H1760 C1790 0.950 . S
H1761 C1791 0.950 . S
C1762 H1744 0.951 . S
C1762 C1763 1.366 . S
C1762 C1764 1.388 . S
C1763 C1762 1.366 . S
C1763 C1767 1.385 . S
C1764 H1745 0.951 . S
C1764 C1762 1.388 . S
C1764 C1765 1.366 . S
C1765 C1764 1.366 . S
C1765 C1766 1.414 . S
C1765 C1768 1.499 . S
C1766 H1746 0.950 . S
C1766 C1765 1.414 . S
C1766 C1767 1.374 . S
C1767 H1747 0.950 . S
C1767 C1763 1.385 . S
C1767 C1766 1.374 . S
C1768 C1765 1.499 . S
C1768 C1769 1.373 . S
C1768 C1770 1.389 . S
C1769 H1748 0.950 . S
C1769 C1768 1.373 . S
C1769 C1785 1.377 . S
C1770 C1768 1.389 . S
C1770 C1771 1.524 . S
C1770 C1784 1.377 . S
C1771 C1770 1.524 . S
C1771 C1772 1.397 . S
C1771 C1776 1.363 . S
C1772 H1749 0.950 . S
C1772 C1771 1.397 . S
C1772 C1773 1.334 . S
C1773 H1750 0.950 . S
C1773 C1772 1.334 . S
C1773 C1774 1.287 . S
C1774 C1773 1.287 . S
C1774 C1775 1.524 . S
C1774 H1793 0.913 . S
C1775 H1751 0.950 . S
C1775 C1774 1.524 . S
C1775 C1776 1.415 . S
C1776 H1752 0.950 . S
C1776 C1771 1.363 . S
C1776 C1775 1.415 . S
C1777 H1753 0.951 . S
C1777 C1778 1.366 . S
C1777 C1779 1.388 . S
C1778 C1777 1.366 . S
C1778 C1782 1.385 . S
C1779 H1754 0.951 . S
C1779 C1777 1.388 . S
C1779 C1780 1.366 . S
C1780 C1779 1.366 . S
C1780 C1781 1.414 . S
C1780 C1783 1.499 . S
C1781 H1755 0.950 . S
C1781 C1780 1.414 . S
C1781 C1782 1.374 . S
C1782 H1756 0.950 . S
C1782 C1778 1.385 . S
C1782 C1781 1.374 . S
C1783 C1780 1.499 . S
C1783 C1784 1.373 . S
C1783 C1785 1.389 . S
C1784 H1757 0.950 . S
C1784 C1770 1.377 . S
C1784 C1783 1.373 . S
C1785 C1769 1.377 . S
C1785 C1783 1.389 . S
C1785 C1786 1.524 . S
C1786 C1785 1.524 . S
C1786 C1787 1.397 . S
C1786 C1791 1.363 . S
C1787 H1758 0.950 . S
C1787 C1786 1.397 . S
C1787 C1788 1.334 . S
C1788 H1759 0.950 . S
C1788 C1787 1.334 . S
C1788 C1789 1.287 . S
C1789 C1788 1.287 . S
C1789 C1790 1.524 . S
C1789 H1792 0.999 . S
C1790 H1760 0.950 . S
C1790 C1789 1.524 . S
C1790 C1791 1.415 . S
C1791 H1761 0.950 . S
C1791 C1786 1.363 . S
C1791 C1790 1.415 . S
H1792 C1789 0.999 . S
H1793 C1774 0.913 . S
H1794 C1812 0.951 . S
H1795 C1814 0.951 . S
H1796 C1816 0.950 . S
H1797 C1817 0.950 . S
H1798 C1819 0.950 . S
H1799 C1822 0.950 . S
H1800 C1823 0.950 . S
H1801 C1825 0.950 . S
H1802 C1826 0.950 . S
H1803 C1827 0.951 . S
H1804 C1829 0.951 . S
H1805 C1831 0.950 . S
H1806 C1832 0.950 . S
H1807 C1834 0.950 . S
H1808 C1837 0.950 . S
H1809 C1838 0.950 . S
H1810 C1840 0.950 . S
H1811 C1841 0.950 . S
C1812 H1794 0.951 . S
C1812 C1813 1.366 . S
C1812 C1814 1.388 . S
C1813 C1812 1.366 . S
C1813 C1817 1.385 . S
C1814 H1795 0.951 . S
C1814 C1812 1.388 . S
C1814 C1815 1.366 . S
C1815 C1814 1.366 . S
C1815 C1816 1.414 . S
C1815 C1818 1.499 . S
C1816 H1796 0.950 . S
C1816 C1815 1.414 . S
C1816 C1817 1.374 . S
C1817 H1797 0.950 . S
C1817 C1813 1.385 . S
C1817 C1816 1.374 . S
C1818 C1815 1.499 . S
C1818 C1819 1.373 . S
C1818 C1820 1.389 . S
C1819 H1798 0.950 . S
C1819 C1818 1.373 . S
C1819 C1835 1.377 . S
C1820 C1818 1.389 . S
C1820 C1821 1.524 . S
C1820 C1834 1.377 . S
C1821 C1820 1.524 . S
C1821 C1822 1.397 . S
C1821 C1826 1.363 . S
C1822 H1799 0.950 . S
C1822 C1821 1.397 . S
C1822 C1823 1.334 . S
C1823 H1800 0.950 . S
C1823 C1822 1.334 . S
C1823 C1824 1.287 . S
C1824 C1823 1.287 . S
C1824 C1825 1.524 . S
C1824 H1843 0.913 . S
C1825 H1801 0.950 . S
C1825 C1824 1.524 . S
C1825 C1826 1.415 . S
C1826 H1802 0.950 . S
C1826 C1821 1.363 . S
C1826 C1825 1.415 . S
C1827 H1803 0.951 . S
C1827 C1828 1.366 . S
C1827 C1829 1.388 . S
C1828 C1827 1.366 . S
C1828 C1832 1.385 . S
C1829 H1804 0.951 . S
C1829 C1827 1.388 . S
C1829 C1830 1.366 . S
C1830 C1829 1.366 . S
C1830 C1831 1.414 . S
C1830 C1833 1.499 . S
C1831 H1805 0.950 . S
C1831 C1830 1.414 . S
C1831 C1832 1.374 . S
C1832 H1806 0.950 . S
C1832 C1828 1.385 . S
C1832 C1831 1.374 . S
C1833 C1830 1.499 . S
C1833 C1834 1.373 . S
C1833 C1835 1.389 . S
C1834 H1807 0.950 . S
C1834 C1820 1.377 . S
C1834 C1833 1.373 . S
C1835 C1819 1.377 . S
C1835 C1833 1.389 . S
C1835 C1836 1.524 . S
C1836 C1835 1.524 . S
C1836 C1837 1.397 . S
C1836 C1841 1.363 . S
C1837 H1808 0.950 . S
C1837 C1836 1.397 . S
C1837 C1838 1.334 . S
C1838 H1809 0.950 . S
C1838 C1837 1.334 . S
C1838 C1839 1.287 . S
C1839 C1838 1.287 . S
C1839 C1840 1.524 . S
C1839 H1842 0.999 . S
C1840 H1810 0.950 . S
C1840 C1839 1.524 . S
C1840 C1841 1.415 . S
C1841 H1811 0.950 . S
C1841 C1836 1.363 . S
C1841 C1840 1.415 . S
H1842 C1839 0.999 . S
H1843 C1824 0.913 . S
H1844 C1862 0.951 . S
H1845 C1864 0.951 . S
H1846 C1866 0.950 . S
H1847 C1867 0.950 . S
H1848 C1869 0.950 . S
H1849 C1872 0.950 . S
H1850 C1873 0.950 . S
H1851 C1875 0.950 . S
H1852 C1876 0.950 . S
H1853 C1877 0.951 . S
H1854 C1879 0.951 . S
H1855 C1881 0.950 . S
H1856 C1882 0.950 . S
H1857 C1884 0.950 . S
H1858 C1887 0.950 . S
H1859 C1888 0.950 . S
H1860 C1890 0.950 . S
H1861 C1891 0.950 . S
C1862 H1844 0.951 . S
C1862 C1863 1.366 . S
C1862 C1864 1.388 . S
C1863 C1862 1.366 . S
C1863 C1867 1.385 . S
C1864 H1845 0.951 . S
C1864 C1862 1.388 . S
C1864 C1865 1.366 . S
C1865 C1864 1.366 . S
C1865 C1866 1.414 . S
C1865 C1868 1.499 . S
C1866 H1846 0.950 . S
C1866 C1865 1.414 . S
C1866 C1867 1.374 . S
C1867 H1847 0.950 . S
C1867 C1863 1.385 . S
C1867 C1866 1.374 . S
C1868 C1865 1.499 . S
C1868 C1869 1.373 . S
C1868 C1870 1.389 . S
C1869 H1848 0.950 . S
C1869 C1868 1.373 . S
C1869 C1885 1.377 . S
C1870 C1868 1.389 . S
C1870 C1871 1.524 . S
C1870 C1884 1.377 . S
C1871 C1870 1.524 . S
C1871 C1872 1.397 . S
C1871 C1876 1.363 . S
C1872 H1849 0.950 . S
C1872 C1871 1.397 . S
C1872 C1873 1.334 . S
C1873 H1850 0.950 . S
C1873 C1872 1.334 . S
C1873 C1874 1.287 . S
C1874 C1873 1.287 . S
C1874 C1875 1.524 . S
C1874 H1893 0.913 . S
C1875 H1851 0.950 . S
C1875 C1874 1.524 . S
C1875 C1876 1.415 . S
C1876 H1852 0.950 . S
C1876 C1871 1.363 . S
C1876 C1875 1.415 . S
C1877 H1853 0.951 . S
C1877 C1878 1.366 . S
C1877 C1879 1.388 . S
C1878 C1877 1.366 . S
C1878 C1882 1.385 . S
C1879 H1854 0.951 . S
C1879 C1877 1.388 . S
C1879 C1880 1.366 . S
C1880 C1879 1.366 . S
C1880 C1881 1.414 . S
C1880 C1883 1.499 . S
C1881 H1855 0.950 . S
C1881 C1880 1.414 . S
C1881 C1882 1.374 . S
C1882 H1856 0.950 . S
C1882 C1878 1.385 . S
C1882 C1881 1.374 . S
C1883 C1880 1.499 . S
C1883 C1884 1.373 . S
C1883 C1885 1.389 . S
C1884 H1857 0.950 . S
C1884 C1870 1.377 . S
C1884 C1883 1.373 . S
C1885 C1869 1.377 . S
C1885 C1883 1.389 . S
C1885 C1886 1.524 . S
C1886 C1885 1.524 . S
C1886 C1887 1.397 . S
C1886 C1891 1.363 . S
C1887 H1858 0.950 . S
C1887 C1886 1.397 . S
C1887 C1888 1.334 . S
C1888 H1859 0.950 . S
C1888 C1887 1.334 . S
C1888 C1889 1.287 . S
C1889 C1888 1.287 . S
C1889 C1890 1.524 . S
C1889 H1892 0.999 . S
C1890 H1860 0.950 . S
C1890 C1889 1.524 . S
C1890 C1891 1.415 . S
C1891 H1861 0.950 . S
C1891 C1886 1.363 . S
C1891 C1890 1.415 . S
H1892 C1889 0.999 . S
H1893 C1874 0.913 . S
H1894 C1912 0.951 . S
H1895 C1914 0.951 . S
H1896 C1916 0.950 . S
H1897 C1917 0.950 . S
H1898 C1919 0.950 . S
H1899 C1922 0.950 . S
H1900 C1923 0.950 . S
H1901 C1925 0.950 . S
H1902 C1926 0.950 . S
H1903 C1927 0.951 . S
H1904 C1929 0.951 . S
H1905 C1931 0.950 . S
H1906 C1932 0.950 . S
H1907 C1934 0.950 . S
H1908 C1937 0.950 . S
H1909 C1938 0.950 . S
H1910 C1940 0.950 . S
H1911 C1941 0.950 . S
C1912 H1894 0.951 . S
C1912 C1913 1.366 . S
C1912 C1914 1.388 . S
C1913 C1912 1.366 . S
C1913 C1917 1.385 . S
C1914 H1895 0.951 . S
C1914 C1912 1.388 . S
C1914 C1915 1.366 . S
C1915 C1914 1.366 . S
C1915 C1916 1.414 . S
C1915 C1918 1.499 . S
C1916 H1896 0.950 . S
C1916 C1915 1.414 . S
C1916 C1917 1.374 . S
C1917 H1897 0.950 . S
C1917 C1913 1.385 . S
C1917 C1916 1.374 . S
C1918 C1915 1.499 . S
C1918 C1919 1.373 . S
C1918 C1920 1.389 . S
C1919 H1898 0.950 . S
C1919 C1918 1.373 . S
C1919 C1935 1.377 . S
C1920 C1918 1.389 . S
C1920 C1921 1.524 . S
C1920 C1934 1.377 . S
C1921 C1920 1.524 . S
C1921 C1922 1.397 . S
C1921 C1926 1.363 . S
C1922 H1899 0.950 . S
C1922 C1921 1.397 . S
C1922 C1923 1.334 . S
C1923 H1900 0.950 . S
C1923 C1922 1.334 . S
C1923 C1924 1.287 . S
C1924 C1923 1.287 . S
C1924 C1925 1.524 . S
C1924 H1943 0.913 . S
C1925 H1901 0.950 . S
C1925 C1924 1.524 . S
C1925 C1926 1.415 . S
C1926 H1902 0.950 . S
C1926 C1921 1.363 . S
C1926 C1925 1.415 . S
C1927 H1903 0.951 . S
C1927 C1928 1.366 . S
C1927 C1929 1.388 . S
C1928 C1927 1.366 . S
C1928 C1932 1.385 . S
C1929 H1904 0.951 . S
C1929 C1927 1.388 . S
C1929 C1930 1.366 . S
C1930 C1929 1.366 . S
C1930 C1931 1.414 . S
C1930 C1933 1.499 . S
C1931 H1905 0.950 . S
C1931 C1930 1.414 . S
C1931 C1932 1.374 . S
C1932 H1906 0.950 . S
C1932 C1928 1.385 . S
C1932 C1931 1.374 . S
C1933 C1930 1.499 . S
C1933 C1934 1.373 . S
C1933 C1935 1.389 . S
C1934 H1907 0.950 . S
C1934 C1920 1.377 . S
C1934 C1933 1.373 . S
C1935 C1919 1.377 . S
C1935 C1933 1.389 . S
C1935 C1936 1.524 . S
C1936 C1935 1.524 . S
C1936 C1937 1.397 . S
C1936 C1941 1.363 . S
C1937 H1908 0.950 . S
C1937 C1936 1.397 . S
C1937 C1938 1.334 . S
C1938 H1909 0.950 . S
C1938 C1937 1.334 . S
C1938 C1939 1.287 . S
C1939 C1938 1.287 . S
C1939 C1940 1.524 . S
C1939 H1942 0.999 . S
C1940 H1910 0.950 . S
C1940 C1939 1.524 . S
C1940 C1941 1.415 . S
C1941 H1911 0.950 . S
C1941 C1936 1.363 . S
C1941 C1940 1.415 . S
H1942 C1939 0.999 . S
H1943 C1924 0.913 . S
H1944 C1962 0.951 . S
H1945 C1964 0.951 . S
H1946 C1966 0.950 . S
H1947 C1967 0.950 . S
H1948 C1969 0.950 . S
H1949 C1972 0.950 . S
H1950 C1973 0.950 . S
H1951 C1975 0.950 . S
H1952 C1976 0.950 . S
H1953 C1977 0.951 . S
H1954 C1979 0.951 . S
H1955 C1981 0.950 . S
H1956 C1982 0.950 . S
H1957 C1984 0.950 . S
H1958 C1987 0.950 . S
H1959 C1988 0.950 . S
H1960 C1990 0.950 . S
H1961 C1991 0.950 . S
C1962 H1944 0.951 . S
C1962 C1963 1.366 . S
C1962 C1964 1.388 . S
C1963 C1962 1.366 . S
C1963 C1967 1.385 . S
C1964 H1945 0.951 . S
C1964 C1962 1.388 . S
C1964 C1965 1.366 . S
C1965 C1964 1.366 . S
C1965 C1966 1.414 . S
C1965 C1968 1.499 . S
C1966 H1946 0.950 . S
C1966 C1965 1.414 . S
C1966 C1967 1.374 . S
C1967 H1947 0.950 . S
C1967 C1963 1.385 . S
C1967 C1966 1.374 . S
C1968 C1965 1.499 . S
C1968 C1969 1.373 . S
C1968 C1970 1.389 . S
C1969 H1948 0.950 . S
C1969 C1968 1.373 . S
C1969 C1985 1.377 . S
C1970 C1968 1.389 . S
C1970 C1971 1.524 . S
C1970 C1984 1.377 . S
C1971 C1970 1.524 . S
C1971 C1972 1.397 . S
C1971 C1976 1.363 . S
C1972 H1949 0.950 . S
C1972 C1971 1.397 . S
C1972 C1973 1.334 . S
C1973 H1950 0.950 . S
C1973 C1972 1.334 . S
C1973 C1974 1.287 . S
C1974 C1973 1.287 . S
C1974 C1975 1.524 . S
C1974 H1993 0.913 . S
C1975 H1951 0.950 . S
C1975 C1974 1.524 . S
C1975 C1976 1.415 . S
C1976 H1952 0.950 . S
C1976 C1971 1.363 . S
C1976 C1975 1.415 . S
C1977 H1953 0.951 . S
C1977 C1978 1.366 . S
C1977 C1979 1.388 . S
C1978 C1977 1.366 . S
C1978 C1982 1.385 . S
C1979 H1954 0.951 . S
C1979 C1977 1.388 . S
C1979 C1980 1.366 . S
C1980 C1979 1.366 . S
C1980 C1981 1.414 . S
C1980 C1983 1.499 . S
C1981 H1955 0.950 . S
C1981 C1980 1.414 . S
C1981 C1982 1.374 . S
C1982 H1956 0.950 . S
C1982 C1978 1.385 . S
C1982 C1981 1.374 . S
C1983 C1980 1.499 . S
C1983 C1984 1.373 . S
C1983 C1985 1.389 . S
C1984 H1957 0.950 . S
C1984 C1970 1.377 . S
C1984 C1983 1.373 . S
C1985 C1969 1.377 . S
C1985 C1983 1.389 . S
C1985 C1986 1.524 . S
C1986 C1985 1.524 . S
C1986 C1987 1.397 . S
C1986 C1991 1.363 . S
C1987 H1958 0.950 . S
C1987 C1986 1.397 . S
C1987 C1988 1.334 . S
C1988 H1959 0.950 . S
C1988 C1987 1.334 . S
C1988 C1989 1.287 . S
C1989 C1988 1.287 . S
C1989 C1990 1.524 . S
C1989 H1992 0.999 . S
C1990 H1960 0.950 . S
C1990 C1989 1.524 . S
C1990 C1991 1.415 . S
C1991 H1961 0.950 . S
C1991 C1986 1.363 . S
C1991 C1990 1.415 . S
H1992 C1989 0.999 . S
H1993 C1974 0.913 . S
H1994 C2012 0.951 . S
H1995 C2014 0.951 . S
H1996 C2016 0.950 . S
H1997 C2017 0.950 . S
H1998 C2019 0.950 . S
H1999 C2022 0.950 . S
H2000 C2023 0.950 . S
H2001 C2025 0.950 . S
H2002 C2026 0.950 . S
H2003 C2027 0.951 . S
H2004 C2029 0.951 . S
H2005 C2031 0.950 . S
H2006 C2032 0.950 . S
H2007 C2034 0.950 . S
H2008 C2037 0.950 . S
H2009 C2038 0.950 . S
H2010 C2040 0.950 . S
H2011 C2041 0.950 . S
C2012 H1994 0.951 . S
C2012 C2013 1.366 . S
C2012 C2014 1.388 . S
C2013 C2012 1.366 . S
C2013 C2017 1.385 . S
C2014 H1995 0.951 . S
C2014 C2012 1.388 . S
C2014 C2015 1.366 . S
C2015 C2014 1.366 . S
C2015 C2016 1.414 . S
C2015 C2018 1.499 . S
C2016 H1996 0.950 . S
C2016 C2015 1.414 . S
C2016 C2017 1.374 . S
C2017 H1997 0.950 . S
C2017 C2013 1.385 . S
C2017 C2016 1.374 . S
C2018 C2015 1.499 . S
C2018 C2019 1.373 . S
C2018 C2020 1.389 . S
C2019 H1998 0.950 . S
C2019 C2018 1.373 . S
C2019 C2035 1.377 . S
C2020 C2018 1.389 . S
C2020 C2021 1.524 . S
C2020 C2034 1.377 . S
C2021 C2020 1.524 . S
C2021 C2022 1.397 . S
C2021 C2026 1.363 . S
C2022 H1999 0.950 . S
C2022 C2021 1.397 . S
C2022 C2023 1.334 . S
C2023 H2000 0.950 . S
C2023 C2022 1.334 . S
C2023 C2024 1.287 . S
C2024 C2023 1.287 . S
C2024 C2025 1.524 . S
C2024 H2043 0.913 . S
C2025 H2001 0.950 . S
C2025 C2024 1.524 . S
C2025 C2026 1.415 . S
C2026 H2002 0.950 . S
C2026 C2021 1.363 . S
C2026 C2025 1.415 . S
C2027 H2003 0.951 . S
C2027 C2028 1.366 . S
C2027 C2029 1.388 . S
C2028 C2027 1.366 . S
C2028 C2032 1.385 . S
C2029 H2004 0.951 . S
C2029 C2027 1.388 . S
C2029 C2030 1.366 . S
C2030 C2029 1.366 . S
C2030 C2031 1.414 . S
C2030 C2033 1.499 . S
C2031 H2005 0.950 . S
C2031 C2030 1.414 . S
C2031 C2032 1.374 . S
C2032 H2006 0.950 . S
C2032 C2028 1.385 . S
C2032 C2031 1.374 . S
C2033 C2030 1.499 . S
C2033 C2034 1.373 . S
C2033 C2035 1.389 . S
C2034 H2007 0.950 . S
C2034 C2020 1.377 . S
C2034 C2033 1.373 . S
C2035 C2019 1.377 . S
C2035 C2033 1.389 . S
C2035 C2036 1.524 . S
C2036 C2035 1.524 . S
C2036 C2037 1.397 . S
C2036 C2041 1.363 . S
C2037 H2008 0.950 . S
C2037 C2036 1.397 . S
C2037 C2038 1.334 . S
C2038 H2009 0.950 . S
C2038 C2037 1.334 . S
C2038 C2039 1.287 . S
C2039 C2038 1.287 . S
C2039 C2040 1.524 . S
C2039 H2042 0.999 . S
C2040 H2010 0.950 . S
C2040 C2039 1.524 . S
C2040 C2041 1.415 . S
C2041 H2011 0.950 . S
C2041 C2036 1.363 . S
C2041 C2040 1.415 . S
H2042 C2039 0.999 . S
H2043 C2024 0.913 . S
H2044 C2062 0.951 . S
H2045 C2064 0.951 . S
H2046 C2066 0.950 . S
H2047 C2067 0.950 . S
H2048 C2069 0.950 . S
H2049 C2072 0.950 . S
H2050 C2073 0.950 . S
H2051 C2075 0.950 . S
H2052 C2076 0.950 . S
H2053 C2077 0.951 . S
H2054 C2079 0.951 . S
H2055 C2081 0.950 . S
H2056 C2082 0.950 . S
H2057 C2084 0.950 . S
H2058 C2087 0.950 . S
H2059 C2088 0.950 . S
H2060 C2090 0.950 . S
H2061 C2091 0.950 . S
C2062 H2044 0.951 . S
C2062 C2063 1.366 . S
C2062 C2064 1.388 . S
C2063 C2062 1.366 . S
C2063 C2067 1.385 . S
C2064 H2045 0.951 . S
C2064 C2062 1.388 . S
C2064 C2065 1.366 . S
C2065 C2064 1.366 . S
C2065 C2066 1.414 . S
C2065 C2068 1.499 . S
C2066 H2046 0.950 . S
C2066 C2065 1.414 . S
C2066 C2067 1.374 . S
C2067 H2047 0.950 . S
C2067 C2063 1.385 . S
C2067 C2066 1.374 . S
C2068 C2065 1.499 . S
C2068 C2069 1.373 . S
C2068 C2070 1.389 . S
C2069 H2048 0.950 . S
C2069 C2068 1.373 . S
C2069 C2085 1.377 . S
C2070 C2068 1.389 . S
C2070 C2071 1.524 . S
C2070 C2084 1.377 . S
C2071 C2070 1.524 . S
C2071 C2072 1.397 . S
C2071 C2076 1.363 . S
C2072 H2049 0.950 . S
C2072 C2071 1.397 . S
C2072 C2073 1.334 . S
C2073 H2050 0.950 . S
C2073 C2072 1.334 . S
C2073 C2074 1.287 . S
C2074 C2073 1.287 . S
C2074 C2075 1.524 . S
C2074 H2093 0.913 . S
C2075 H2051 0.950 . S
C2075 C2074 1.524 . S
C2075 C2076 1.415 . S
C2076 H2052 0.950 . S
C2076 C2071 1.363 . S
C2076 C2075 1.415 . S
C2077 H2053 0.951 . S
C2077 C2078 1.366 . S
C2077 C2079 1.388 . S
C2078 C2077 1.366 . S
C2078 C2082 1.385 . S
C2079 H2054 0.951 . S
C2079 C2077 1.388 . S
C2079 C2080 1.366 . S
C2080 C2079 1.366 . S
C2080 C2081 1.414 . S
C2080 C2083 1.499 . S
C2081 H2055 0.950 . S
C2081 C2080 1.414 . S
C2081 C2082 1.374 . S
C2082 H2056 0.950 . S
C2082 C2078 1.385 . S
C2082 C2081 1.374 . S
C2083 C2080 1.499 . S
C2083 C2084 1.373 . S
C2083 C2085 1.389 . S
C2084 H2057 0.950 . S
C2084 C2070 1.377 . S
C2084 C2083 1.373 . S
C2085 C2069 1.377 . S
C2085 C2083 1.389 . S
C2085 C2086 1.524 . S
C2086 C2085 1.524 . S
C2086 C2087 1.397 . S
C2086 C2091 1.363 . S
C2087 H2058 0.950 . S
C2087 C2086 1.397 . S
C2087 C2088 1.334 . S
C2088 H2059 0.950 . S
C2088 C2087 1.334 . S
C2088 C2089 1.287 . S
C2089 C2088 1.287 . S
C2089 C2090 1.524 . S
C2089 H2092 0.999 . S
C2090 H2060 0.950 . S
C2090 C2089 1.524 . S
C2090 C2091 1.415 . S
C2091 H2061 0.950 . S
C2091 C2086 1.363 . S
C2091 C2090 1.415 . S
H2092 C2089 0.999 . S
H2093 C2074 0.913 . S
H2094 C2112 0.951 . S
H2095 C2114 0.951 . S
H2096 C2116 0.950 . S
H2097 C2117 0.950 . S
H2098 C2119 0.950 . S
H2099 C2122 0.950 . S
H2100 C2123 0.950 . S
H2101 C2125 0.950 . S
H2102 C2126 0.950 . S
H2103 C2127 0.951 . S
H2104 C2129 0.951 . S
H2105 C2131 0.950 . S
H2106 C2132 0.950 . S
H2107 C2134 0.950 . S
H2108 C2137 0.950 . S
H2109 C2138 0.950 . S
H2110 C2140 0.950 . S
H2111 C2141 0.950 . S
C2112 H2094 0.951 . S
C2112 C2113 1.366 . S
C2112 C2114 1.388 . S
C2113 C2112 1.366 . S
C2113 C2117 1.385 . S
C2114 H2095 0.951 . S
C2114 C2112 1.388 . S
C2114 C2115 1.366 . S
C2115 C2114 1.366 . S
C2115 C2116 1.414 . S
C2115 C2118 1.499 . S
C2116 H2096 0.950 . S
C2116 C2115 1.414 . S
C2116 C2117 1.374 . S
C2117 H2097 0.950 . S
C2117 C2113 1.385 . S
C2117 C2116 1.374 . S
C2118 C2115 1.499 . S
C2118 C2119 1.373 . S
C2118 C2120 1.389 . S
C2119 H2098 0.950 . S
C2119 C2118 1.373 . S
C2119 C2135 1.377 . S
C2120 C2118 1.389 . S
C2120 C2121 1.524 . S
C2120 C2134 1.377 . S
C2121 C2120 1.524 . S
C2121 C2122 1.397 . S
C2121 C2126 1.363 . S
C2122 H2099 0.950 . S
C2122 C2121 1.397 . S
C2122 C2123 1.334 . S
C2123 H2100 0.950 . S
C2123 C2122 1.334 . S
C2123 C2124 1.287 . S
C2124 C2123 1.287 . S
C2124 C2125 1.524 . S
C2124 H2143 0.913 . S
C2125 H2101 0.950 . S
C2125 C2124 1.524 . S
C2125 C2126 1.415 . S
C2126 H2102 0.950 . S
C2126 C2121 1.363 . S
C2126 C2125 1.415 . S
C2127 H2103 0.951 . S
C2127 C2128 1.366 . S
C2127 C2129 1.388 . S
C2128 C2127 1.366 . S
C2128 C2132 1.385 . S
C2129 H2104 0.951 . S
C2129 C2127 1.388 . S
C2129 C2130 1.366 . S
C2130 C2129 1.366 . S
C2130 C2131 1.414 . S
C2130 C2133 1.499 . S
C2131 H2105 0.950 . S
C2131 C2130 1.414 . S
C2131 C2132 1.374 . S
C2132 H2106 0.950 . S
C2132 C2128 1.385 . S
C2132 C2131 1.374 . S
C2133 C2130 1.499 . S
C2133 C2134 1.373 . S
C2133 C2135 1.389 . S
C2134 H2107 0.950 . S
C2134 C2120 1.377 . S
C2134 C2133 1.373 . S
C2135 C2119 1.377 . S
C2135 C2133 1.389 . S
C2135 C2136 1.524 . S
C2136 C2135 1.524 . S
C2136 C2137 1.397 . S
C2136 C2141 1.363 . S
C2137 H2108 0.950 . S
C2137 C2136 1.397 . S
C2137 C2138 1.334 . S
C2138 H2109 0.950 . S
C2138 C2137 1.334 . S
C2138 C2139 1.287 . S
C2139 C2138 1.287 . S
C2139 C2140 1.524 . S
C2139 H2142 0.999 . S
C2140 H2110 0.950 . S
C2140 C2139 1.524 . S
C2140 C2141 1.415 . S
C2141 H2111 0.950 . S
C2141 C2136 1.363 . S
C2141 C2140 1.415 . S
H2142 C2139 0.999 . S
H2143 C2124 0.913 . S
H2144 C2162 0.951 . S
H2145 C2164 0.951 . S
H2146 C2166 0.950 1_655 S
H2147 C2167 0.950 . S
H2148 C2169 0.950 . S
H2149 C2172 0.950 . S
H2150 C2173 0.950 . S
H2151 C2175 0.950 . S
H2152 C2176 0.950 1_455 S
H2153 C2177 0.951 . S
H2154 C2179 0.951 . S
H2155 C2181 0.950 1_455 S
H2156 C2182 0.950 . S
H2157 C2184 0.950 . S
H2158 C2187 0.950 . S
H2159 C2188 0.950 . S
H2160 C2190 0.950 . S
H2161 C2191 0.950 1_655 S
C2162 H2144 0.951 . S
C2162 C2163 1.366 . S
C2162 C2164 1.388 . S
C2163 C2162 1.366 . S
C2163 C2167 1.385 . S
C2164 H2145 0.951 . S
C2164 C2162 1.388 . S
C2164 C2165 1.366 . S
C2165 C2164 1.366 . S
C2165 C2166 1.414 . S
C2165 C2168 1.499 . S
C2166 H2146 0.950 1_455 S
C2166 C2165 1.414 . S
C2166 C2167 1.374 . S
C2167 H2147 0.950 . S
C2167 C2163 1.385 . S
C2167 C2166 1.374 . S
C2168 C2165 1.499 . S
C2168 C2169 1.373 . S
C2168 C2170 1.389 1_455 S
C2169 H2148 0.950 . S
C2169 C2168 1.373 . S
C2169 C2185 1.377 . S
C2170 C2168 1.389 1_655 S
C2170 C2171 1.524 . S
C2170 C2184 1.377 . S
C2171 C2170 1.524 . S
C2171 C2172 1.397 . S
C2171 C2176 1.363 . S
C2172 H2149 0.950 . S
C2172 C2171 1.397 . S
C2172 C2173 1.334 . S
C2173 H2150 0.950 . S
C2173 C2172 1.334 . S
C2173 C2174 1.287 . S
C2174 C2173 1.287 . S
C2174 C2175 1.524 . S
C2174 H2193 0.913 . S
C2175 H2151 0.950 . S
C2175 C2174 1.524 . S
C2175 C2176 1.415 . S
C2176 H2152 0.950 1_655 S
C2176 C2171 1.363 . S
C2176 C2175 1.415 . S
C2177 H2153 0.951 . S
C2177 C2178 1.366 . S
C2177 C2179 1.388 . S
C2178 C2177 1.366 . S
C2178 C2182 1.385 . S
C2179 H2154 0.951 . S
C2179 C2177 1.388 . S
C2179 C2180 1.366 . S
C2180 C2179 1.366 . S
C2180 C2181 1.414 . S
C2180 C2183 1.499 . S
C2181 H2155 0.950 1_655 S
C2181 C2180 1.414 . S
C2181 C2182 1.374 . S
C2182 H2156 0.950 . S
C2182 C2178 1.385 . S
C2182 C2181 1.374 . S
C2183 C2180 1.499 . S
C2183 C2184 1.373 . S
C2183 C2185 1.389 1_655 S
C2184 H2157 0.950 . S
C2184 C2170 1.377 . S
C2184 C2183 1.373 . S
C2185 C2169 1.377 . S
C2185 C2183 1.389 1_455 S
C2185 C2186 1.524 . S
C2186 C2185 1.524 . S
C2186 C2187 1.397 . S
C2186 C2191 1.363 . S
C2187 H2158 0.950 . S
C2187 C2186 1.397 . S
C2187 C2188 1.334 . S
C2188 H2159 0.950 . S
C2188 C2187 1.334 . S
C2188 C2189 1.287 . S
C2189 C2188 1.287 . S
C2189 C2190 1.524 . S
C2189 H2192 0.999 . S
C2190 H2160 0.950 . S
C2190 C2189 1.524 . S
C2190 C2191 1.415 . S
C2191 H2161 0.950 1_455 S
C2191 C2186 1.363 . S
C2191 C2190 1.415 . S
H2192 C2189 0.999 . S
H2193 C2174 0.913 . S
H2194 C2212 0.951 . S
H2195 C2214 0.951 . S
H2196 C2216 0.950 1_545 S
H2197 C2217 0.950 . S
H2198 C2219 0.950 . S
H2199 C2222 0.950 . S
H2200 C2223 0.950 . S
H2201 C2225 0.950 . S
H2202 C2226 0.950 . S
H2203 C2227 0.951 . S
H2204 C2229 0.951 . S
H2205 C2231 0.950 1_565 S
H2206 C2232 0.950 . S
H2207 C2234 0.950 . S
H2208 C2237 0.950 . S
H2209 C2238 0.950 . S
H2210 C2240 0.950 . S
H2211 C2241 0.950 . S
C2212 H2194 0.951 . S
C2212 C2213 1.366 . S
C2212 C2214 1.388 . S
C2213 C2212 1.366 . S
C2213 C2217 1.385 . S
C2214 H2195 0.951 . S
C2214 C2212 1.388 . S
C2214 C2215 1.366 . S
C2215 C2214 1.366 . S
C2215 C2216 1.414 . S
C2215 C2218 1.499 . S
C2216 H2196 0.950 1_565 S
C2216 C2215 1.414 . S
C2216 C2217 1.374 . S
C2217 H2197 0.950 . S
C2217 C2213 1.385 . S
C2217 C2216 1.374 . S
C2218 C2215 1.499 . S
C2218 C2219 1.373 1_565 S
C2218 C2220 1.389 . S
C2219 H2198 0.950 . S
C2219 C2218 1.373 1_545 S
C2219 C2235 1.377 . S
C2220 C2218 1.389 . S
C2220 C2221 1.524 . S
C2220 C2234 1.377 . S
C2221 C2220 1.524 . S
C2221 C2222 1.397 . S
C2221 C2226 1.363 . S
C2222 H2199 0.950 . S
C2222 C2221 1.397 . S
C2222 C2223 1.334 . S
C2223 H2200 0.950 . S
C2223 C2222 1.334 . S
C2223 C2224 1.287 . S
C2224 C2223 1.287 . S
C2224 C2225 1.524 . S
C2224 H2243 0.913 . S
C2225 H2201 0.950 . S
C2225 C2224 1.524 . S
C2225 C2226 1.415 . S
C2226 H2202 0.950 . S
C2226 C2221 1.363 . S
C2226 C2225 1.415 . S
C2227 H2203 0.951 . S
C2227 C2228 1.366 . S
C2227 C2229 1.388 . S
C2228 C2227 1.366 . S
C2228 C2232 1.385 . S
C2229 H2204 0.951 . S
C2229 C2227 1.388 . S
C2229 C2230 1.366 . S
C2230 C2229 1.366 . S
C2230 C2231 1.414 . S
C2230 C2233 1.499 . S
C2231 H2205 0.950 1_545 S
C2231 C2230 1.414 . S
C2231 C2232 1.374 . S
C2232 H2206 0.950 . S
C2232 C2228 1.385 . S
C2232 C2231 1.374 . S
C2233 C2230 1.499 . S
C2233 C2234 1.373 1_545 S
C2233 C2235 1.389 . S
C2234 H2207 0.950 . S
C2234 C2220 1.377 . S
C2234 C2233 1.373 1_565 S
C2235 C2219 1.377 . S
C2235 C2233 1.389 . S
C2235 C2236 1.524 . S
C2236 C2235 1.524 . S
C2236 C2237 1.397 . S
C2236 C2241 1.363 . S
C2237 H2208 0.950 . S
C2237 C2236 1.397 . S
C2237 C2238 1.334 . S
C2238 H2209 0.950 . S
C2238 C2237 1.334 . S
C2238 C2239 1.287 . S
C2239 C2238 1.287 . S
C2239 C2240 1.524 . S
C2239 H2242 0.999 . S
C2240 H2210 0.950 . S
C2240 C2239 1.524 . S
C2240 C2241 1.415 . S
C2241 H2211 0.950 . S
C2241 C2236 1.363 . S
C2241 C2240 1.415 . S
H2242 C2239 0.999 . S
H2243 C2224 0.913 . S
H2244 C2262 0.951 . S
H2245 C2264 0.951 . S
H2246 C2266 0.950 1_655 S
H2247 C2267 0.950 . S
H2248 C2269 0.950 . S
H2249 C2272 0.950 . S
H2250 C2273 0.950 . S
H2251 C2275 0.950 . S
H2252 C2276 0.950 . S
H2253 C2277 0.951 . S
H2254 C2279 0.951 . S
H2255 C2281 0.950 1_455 S
H2256 C2282 0.950 . S
H2257 C2284 0.950 . S
H2258 C2287 0.950 . S
H2259 C2288 0.950 . S
H2260 C2290 0.950 . S
H2261 C2291 0.950 . S
C2262 H2244 0.951 . S
C2262 C2263 1.366 . S
C2262 C2264 1.388 . S
C2263 C2262 1.366 . S
C2263 C2267 1.385 . S
C2264 H2245 0.951 . S
C2264 C2262 1.388 . S
C2264 C2265 1.366 . S
C2265 C2264 1.366 . S
C2265 C2266 1.414 . S
C2265 C2268 1.499 . S
C2266 H2246 0.950 1_455 S
C2266 C2265 1.414 . S
C2266 C2267 1.374 . S
C2267 H2247 0.950 . S
C2267 C2263 1.385 . S
C2267 C2266 1.374 . S
C2268 C2265 1.499 . S
C2268 C2269 1.373 1_455 S
C2268 C2270 1.389 . S
C2269 H2248 0.950 . S
C2269 C2268 1.373 1_655 S
C2269 C2285 1.377 . S
C2270 C2268 1.389 . S
C2270 C2271 1.524 . S
C2270 C2284 1.377 . S
C2271 C2270 1.524 . S
C2271 C2272 1.397 . S
C2271 C2276 1.363 . S
C2272 H2249 0.950 . S
C2272 C2271 1.397 . S
C2272 C2273 1.334 . S
C2273 H2250 0.950 . S
C2273 C2272 1.334 . S
C2273 C2274 1.287 . S
C2274 C2273 1.287 . S
C2274 C2275 1.524 . S
C2274 H2293 0.913 . S
C2275 H2251 0.950 . S
C2275 C2274 1.524 . S
C2275 C2276 1.415 . S
C2276 H2252 0.950 . S
C2276 C2271 1.363 . S
C2276 C2275 1.415 . S
C2277 H2253 0.951 . S
C2277 C2278 1.366 . S
C2277 C2279 1.388 . S
C2278 C2277 1.366 . S
C2278 C2282 1.385 . S
C2279 H2254 0.951 . S
C2279 C2277 1.388 . S
C2279 C2280 1.366 . S
C2280 C2279 1.366 . S
C2280 C2281 1.414 . S
C2280 C2283 1.499 . S
C2281 H2255 0.950 1_655 S
C2281 C2280 1.414 . S
C2281 C2282 1.374 . S
C2282 H2256 0.950 . S
C2282 C2278 1.385 . S
C2282 C2281 1.374 . S
C2283 C2280 1.499 . S
C2283 C2284 1.373 1_655 S
C2283 C2285 1.389 . S
C2284 H2257 0.950 . S
C2284 C2270 1.377 . S
C2284 C2283 1.373 1_455 S
C2285 C2269 1.377 . S
C2285 C2283 1.389 . S
C2285 C2286 1.524 . S
C2286 C2285 1.524 . S
C2286 C2287 1.397 . S
C2286 C2291 1.363 . S
C2287 H2258 0.950 . S
C2287 C2286 1.397 . S
C2287 C2288 1.334 . S
C2288 H2259 0.950 . S
C2288 C2287 1.334 . S
C2288 C2289 1.287 . S
C2289 C2288 1.287 . S
C2289 C2290 1.524 . S
C2289 H2292 0.999 . S
C2290 H2260 0.950 . S
C2290 C2289 1.524 . S
C2290 C2291 1.415 . S
C2291 H2261 0.950 . S
C2291 C2286 1.363 . S
C2291 C2290 1.415 . S
H2292 C2289 0.999 . S
H2293 C2274 0.913 . S
H2294 C2312 0.951 1_565 S
H2295 C2314 0.951 . S
H2296 C2316 0.950 . S
H2297 C2317 0.950 . S
H2298 C2319 0.950 . S
H2299 C2322 0.950 . S
H2300 C2323 0.950 . S
H2301 C2325 0.950 . S
H2302 C2326 0.950 . S
H2303 C2327 0.951 1_545 S
H2304 C2329 0.951 . S
H2305 C2331 0.950 . S
H2306 C2332 0.950 . S
H2307 C2334 0.950 . S
H2308 C2337 0.950 . S
H2309 C2338 0.950 . S
H2310 C2340 0.950 . S
H2311 C2341 0.950 . S
C2312 H2294 0.951 1_545 S
C2312 C2313 1.366 . S
C2312 C2314 1.388 1_545 S
C2313 C2312 1.366 . S
C2313 C2317 1.385 . S
C2314 H2295 0.951 . S
C2314 C2312 1.388 1_565 S
C2314 C2315 1.366 1_565 S
C2315 C2314 1.366 1_545 S
C2315 C2316 1.414 . S
C2315 C2318 1.499 . S
C2316 H2296 0.950 . S
C2316 C2315 1.414 . S
C2316 C2317 1.374 . S
C2317 H2297 0.950 . S
C2317 C2313 1.385 . S
C2317 C2316 1.374 . S
C2318 C2315 1.499 . S
C2318 C2319 1.373 . S
C2318 C2320 1.389 1_545 S
C2319 H2298 0.950 . S
C2319 C2318 1.373 . S
C2319 C2335 1.377 . S
C2320 C2318 1.389 1_565 S
C2320 C2321 1.524 . S
C2320 C2334 1.377 . S
C2321 C2320 1.524 . S
C2321 C2322 1.397 . S
C2321 C2326 1.363 . S
C2322 H2299 0.950 . S
C2322 C2321 1.397 . S
C2322 C2323 1.334 . S
C2323 H2300 0.950 . S
C2323 C2322 1.334 . S
C2323 C2324 1.287 . S
C2324 C2323 1.287 . S
C2324 C2325 1.524 . S
C2324 H2343 0.913 . S
C2325 H2301 0.950 . S
C2325 C2324 1.524 . S
C2325 C2326 1.415 . S
C2326 H2302 0.950 . S
C2326 C2321 1.363 . S
C2326 C2325 1.415 . S
C2327 H2303 0.951 1_565 S
C2327 C2328 1.366 . S
C2327 C2329 1.388 1_565 S
C2328 C2327 1.366 . S
C2328 C2332 1.385 . S
C2329 H2304 0.951 . S
C2329 C2327 1.388 1_545 S
C2329 C2330 1.366 1_545 S
C2330 C2329 1.366 1_565 S
C2330 C2331 1.414 . S
C2330 C2333 1.499 . S
C2331 H2305 0.950 . S
C2331 C2330 1.414 . S
C2331 C2332 1.374 . S
C2332 H2306 0.950 . S
C2332 C2328 1.385 . S
C2332 C2331 1.374 . S
C2333 C2330 1.499 . S
C2333 C2334 1.373 . S
C2333 C2335 1.389 1_565 S
C2334 H2307 0.950 . S
C2334 C2320 1.377 . S
C2334 C2333 1.373 . S
C2335 C2319 1.377 . S
C2335 C2333 1.389 1_545 S
C2335 C2336 1.524 . S
C2336 C2335 1.524 . S
C2336 C2337 1.397 . S
C2336 C2341 1.363 . S
C2337 H2308 0.950 . S
C2337 C2336 1.397 . S
C2337 C2338 1.334 . S
C2338 H2309 0.950 . S
C2338 C2337 1.334 . S
C2338 C2339 1.287 . S
C2339 C2338 1.287 . S
C2339 C2340 1.524 . S
C2339 H2342 0.999 . S
C2340 H2310 0.950 . S
C2340 C2339 1.524 . S
C2340 C2341 1.415 . S
C2341 H2311 0.950 . S
C2341 C2336 1.363 . S
C2341 C2340 1.415 . S
H2342 C2339 0.999 . S
H2343 C2324 0.913 . S
H2344 C2362 0.951 . S
H2345 C2364 0.951 . S
H2346 C2366 0.950 . S
H2347 C2367 0.950 . S
H2348 C2369 0.950 . S
H2349 C2372 0.950 . S
H2350 C2373 0.950 . S
H2351 C2375 0.950 . S
H2352 C2376 0.950 . S
H2353 C2377 0.951 . S
H2354 C2379 0.951 . S
H2355 C2381 0.950 . S
H2356 C2382 0.950 . S
H2357 C2384 0.950 . S
H2358 C2387 0.950 . S
H2359 C2388 0.950 . S
H2360 C2390 0.950 . S
H2361 C2391 0.950 . S
C2362 H2344 0.951 . S
C2362 C2363 1.366 . S
C2362 C2364 1.388 . S
C2363 C2362 1.366 . S
C2363 C2367 1.385 . S
C2364 H2345 0.951 . S
C2364 C2362 1.388 . S
C2364 C2365 1.366 . S
C2365 C2364 1.366 . S
C2365 C2366 1.414 . S
C2365 C2368 1.499 . S
C2366 H2346 0.950 . S
C2366 C2365 1.414 . S
C2366 C2367 1.374 . S
C2367 H2347 0.950 . S
C2367 C2363 1.385 . S
C2367 C2366 1.374 . S
C2368 C2365 1.499 . S
C2368 C2369 1.373 . S
C2368 C2370 1.389 . S
C2369 H2348 0.950 . S
C2369 C2368 1.373 . S
C2369 C2385 1.377 1_556 S
C2370 C2368 1.389 . S
C2370 C2371 1.524 . S
C2370 C2384 1.377 1_556 S
C2371 C2370 1.524 . S
C2371 C2372 1.397 . S
C2371 C2376 1.363 . S
C2372 H2349 0.950 . S
C2372 C2371 1.397 . S
C2372 C2373 1.334 . S
C2373 H2350 0.950 . S
C2373 C2372 1.334 . S
C2373 C2374 1.287 . S
C2374 C2373 1.287 . S
C2374 C2375 1.524 . S
C2374 H2393 0.913 . S
C2375 H2351 0.950 . S
C2375 C2374 1.524 . S
C2375 C2376 1.415 . S
C2376 H2352 0.950 . S
C2376 C2371 1.363 . S
C2376 C2375 1.415 . S
C2377 H2353 0.951 . S
C2377 C2378 1.366 . S
C2377 C2379 1.388 . S
C2378 C2377 1.366 . S
C2378 C2382 1.385 . S
C2379 H2354 0.951 . S
C2379 C2377 1.388 . S
C2379 C2380 1.366 . S
C2380 C2379 1.366 . S
C2380 C2381 1.414 . S
C2380 C2383 1.499 . S
C2381 H2355 0.950 . S
C2381 C2380 1.414 . S
C2381 C2382 1.374 . S
C2382 H2356 0.950 . S
C2382 C2378 1.385 . S
C2382 C2381 1.374 . S
C2383 C2380 1.499 . S
C2383 C2384 1.373 . S
C2383 C2385 1.389 . S
C2384 H2357 0.950 . S
C2384 C2370 1.377 1_554 S
C2384 C2383 1.373 . S
C2385 C2369 1.377 1_554 S
C2385 C2383 1.389 . S
C2385 C2386 1.524 . S
C2386 C2385 1.524 . S
C2386 C2387 1.397 . S
C2386 C2391 1.363 . S
C2387 H2358 0.950 . S
C2387 C2386 1.397 . S
C2387 C2388 1.334 . S
C2388 H2359 0.950 . S
C2388 C2387 1.334 . S
C2388 C2389 1.287 . S
C2389 C2388 1.287 . S
C2389 C2390 1.524 . S
C2389 H2392 0.999 . S
C2390 H2360 0.950 . S
C2390 C2389 1.524 . S
C2390 C2391 1.415 . S
C2391 H2361 0.950 . S
C2391 C2386 1.363 . S
C2391 C2390 1.415 . S
H2392 C2389 0.999 . S
H2393 C2374 0.913 . S
H2394 C2412 0.951 . S
H2395 C2414 0.951 . S
H2396 C2416 0.950 . S
H2397 C2417 0.950 . S
H2398 C2419 0.950 . S
H2399 C2422 0.950 . S
H2400 C2423 0.950 . S
H2401 C2425 0.950 . S
H2402 C2426 0.950 . S
H2403 C2427 0.951 . S
H2404 C2429 0.951 . S
H2405 C2431 0.950 . S
H2406 C2432 0.950 . S
H2407 C2434 0.950 . S
H2408 C2437 0.950 . S
H2409 C2438 0.950 . S
H2410 C2440 0.950 . S
H2411 C2441 0.950 . S
C2412 H2394 0.951 . S
C2412 C2413 1.366 . S
C2412 C2414 1.388 . S
C2413 C2412 1.366 . S
C2413 C2417 1.385 . S
C2414 H2395 0.951 . S
C2414 C2412 1.388 . S
C2414 C2415 1.366 . S
C2415 C2414 1.366 . S
C2415 C2416 1.414 . S
C2415 C2418 1.499 . S
C2416 H2396 0.950 . S
C2416 C2415 1.414 . S
C2416 C2417 1.374 . S
C2417 H2397 0.950 . S
C2417 C2413 1.385 . S
C2417 C2416 1.374 . S
C2418 C2415 1.499 . S
C2418 C2419 1.373 . S
C2418 C2420 1.389 . S
C2419 H2398 0.950 . S
C2419 C2418 1.373 . S
C2419 C2435 1.377 1_554 S
C2420 C2418 1.389 . S
C2420 C2421 1.524 . S
C2420 C2434 1.377 1_554 S
C2421 C2420 1.524 . S
C2421 C2422 1.397 . S
C2421 C2426 1.363 . S
C2422 H2399 0.950 . S
C2422 C2421 1.397 . S
C2422 C2423 1.334 . S
C2423 H2400 0.950 . S
C2423 C2422 1.334 . S
C2423 C2424 1.287 . S
C2424 C2423 1.287 . S
C2424 C2425 1.524 . S
C2424 H2443 0.913 . S
C2425 H2401 0.950 . S
C2425 C2424 1.524 . S
C2425 C2426 1.415 . S
C2426 H2402 0.950 . S
C2426 C2421 1.363 . S
C2426 C2425 1.415 . S
C2427 H2403 0.951 . S
C2427 C2428 1.366 . S
C2427 C2429 1.388 . S
C2428 C2427 1.366 . S
C2428 C2432 1.385 . S
C2429 H2404 0.951 . S
C2429 C2427 1.388 . S
C2429 C2430 1.366 . S
C2430 C2429 1.366 . S
C2430 C2431 1.414 . S
C2430 C2433 1.499 . S
C2431 H2405 0.950 . S
C2431 C2430 1.414 . S
C2431 C2432 1.374 . S
C2432 H2406 0.950 . S
C2432 C2428 1.385 . S
C2432 C2431 1.374 . S
C2433 C2430 1.499 . S
C2433 C2434 1.373 . S
C2433 C2435 1.389 . S
C2434 H2407 0.950 . S
C2434 C2420 1.377 1_556 S
C2434 C2433 1.373 . S
C2435 C2419 1.377 1_556 S
C2435 C2433 1.389 . S
C2435 C2436 1.524 . S
C2436 C2435 1.524 . S
C2436 C2437 1.397 . S
C2436 C2441 1.363 . S
C2437 H2408 0.950 . S
C2437 C2436 1.397 . S
C2437 C2438 1.334 . S
C2438 H2409 0.950 . S
C2438 C2437 1.334 . S
C2438 C2439 1.287 . S
C2439 C2438 1.287 . S
C2439 C2440 1.524 . S
C2439 H2442 0.999 . S
C2440 H2410 0.950 . S
C2440 C2439 1.524 . S
C2440 C2441 1.415 . S
C2441 H2411 0.950 . S
C2441 C2436 1.363 . S
C2441 C2440 1.415 . S
H2442 C2439 0.999 . S
H2443 C2424 0.913 . S
H2444 C2462 0.951 . S
H2445 C2464 0.951 . S
H2446 C2466 0.950 . S
H2447 C2467 0.950 . S
H2448 C2469 0.950 . S
H2449 C2472 0.950 . S
H2450 C2473 0.950 . S
H2451 C2475 0.950 1_556 S
H2452 C2476 0.949 1_556 S
H2453 C2477 0.951 . S
H2454 C2479 0.951 . S
H2455 C2481 0.950 . S
H2456 C2482 0.950 . S
H2457 C2484 0.950 . S
H2458 C2487 0.950 . S
H2459 C2488 0.950 . S
H2460 C2490 0.950 1_554 S
H2461 C2491 0.949 1_554 S
C2462 H2444 0.951 . S
C2462 C2463 1.366 . S
C2462 C2464 1.388 . S
C2463 C2462 1.366 . S
C2463 C2467 1.385 . S
C2464 H2445 0.951 . S
C2464 C2462 1.388 . S
C2464 C2465 1.366 . S
C2465 C2464 1.366 . S
C2465 C2466 1.414 . S
C2465 C2468 1.499 . S
C2466 H2446 0.950 . S
C2466 C2465 1.414 . S
C2466 C2467 1.374 . S
C2467 H2447 0.950 . S
C2467 C2463 1.385 . S
C2467 C2466 1.374 . S
C2468 C2465 1.499 . S
C2468 C2469 1.373 . S
C2468 C2470 1.389 . S
C2469 H2448 0.950 . S
C2469 C2468 1.373 . S
C2469 C2485 1.377 1_554 S
C2470 C2468 1.389 . S
C2470 C2471 1.524 . S
C2470 C2484 1.377 1_554 S
C2471 C2470 1.524 . S
C2471 C2472 1.397 . S
C2471 C2476 1.363 . S
C2472 H2449 0.950 . S
C2472 C2471 1.397 . S
C2472 C2473 1.334 . S
C2473 H2450 0.950 . S
C2473 C2472 1.334 . S
C2473 C2474 1.287 . S
C2474 C2473 1.287 . S
C2474 C2475 1.524 . S
C2474 H2493 0.913 . S
C2475 H2451 0.950 1_554 S
C2475 C2474 1.524 . S
C2475 C2476 1.415 . S
C2476 H2452 0.949 1_554 S
C2476 C2471 1.363 . S
C2476 C2475 1.415 . S
C2477 H2453 0.951 . S
C2477 C2478 1.366 . S
C2477 C2479 1.388 . S
C2478 C2477 1.366 . S
C2478 C2482 1.385 . S
C2479 H2454 0.951 . S
C2479 C2477 1.388 . S
C2479 C2480 1.366 . S
C2480 C2479 1.366 . S
C2480 C2481 1.414 . S
C2480 C2483 1.499 . S
C2481 H2455 0.950 . S
C2481 C2480 1.414 . S
C2481 C2482 1.374 . S
C2482 H2456 0.950 . S
C2482 C2478 1.385 . S
C2482 C2481 1.374 . S
C2483 C2480 1.499 . S
C2483 C2484 1.373 . S
C2483 C2485 1.389 . S
C2484 H2457 0.950 . S
C2484 C2470 1.377 1_556 S
C2484 C2483 1.373 . S
C2485 C2469 1.377 1_556 S
C2485 C2483 1.389 . S
C2485 C2486 1.524 . S
C2486 C2485 1.524 . S
C2486 C2487 1.397 . S
C2486 C2491 1.363 . S
C2487 H2458 0.950 . S
C2487 C2486 1.397 . S
C2487 C2488 1.334 . S
C2488 H2459 0.950 . S
C2488 C2487 1.334 . S
C2488 C2489 1.287 . S
C2489 C2488 1.287 . S
C2489 C2490 1.524 . S
C2489 H2492 0.999 . S
C2490 H2460 0.950 1_556 S
C2490 C2489 1.524 . S
C2490 C2491 1.415 . S
C2491 H2461 0.949 1_556 S
C2491 C2486 1.363 . S
C2491 C2490 1.415 . S
H2492 C2489 0.999 . S
H2493 C2474 0.913 . S
H2494 C2512 0.951 . S
H2495 C2514 0.951 . S
H2496 C2516 0.950 . S
H2497 C2517 0.950 . S
H2498 C2519 0.950 . S
H2499 C2522 0.950 . S
H2500 C2523 0.950 . S
H2501 C2525 0.950 . S
H2502 C2526 0.950 . S
H2503 C2527 0.951 . S
H2504 C2529 0.951 . S
H2505 C2531 0.950 . S
H2506 C2532 0.950 . S
H2507 C2534 0.950 . S
H2508 C2537 0.950 . S
H2509 C2538 0.950 . S
H2510 C2540 0.950 . S
H2511 C2541 0.950 . S
C2512 H2494 0.951 . S
C2512 C2513 1.366 . S
C2512 C2514 1.388 . S
C2513 C2512 1.366 . S
C2513 C2517 1.385 . S
C2514 H2495 0.951 . S
C2514 C2512 1.388 . S
C2514 C2515 1.366 . S
C2515 C2514 1.366 . S
C2515 C2516 1.414 . S
C2515 C2518 1.499 . S
C2516 H2496 0.950 . S
C2516 C2515 1.414 . S
C2516 C2517 1.374 . S
C2517 H2497 0.950 . S
C2517 C2513 1.385 . S
C2517 C2516 1.374 . S
C2518 C2515 1.499 . S
C2518 C2519 1.373 . S
C2518 C2520 1.389 . S
C2519 H2498 0.950 . S
C2519 C2518 1.373 . S
C2519 C2535 1.377 1_556 S
C2520 C2518 1.389 . S
C2520 C2521 1.524 . S
C2520 C2534 1.377 1_556 S
C2521 C2520 1.524 . S
C2521 C2522 1.397 . S
C2521 C2526 1.363 . S
C2522 H2499 0.950 . S
C2522 C2521 1.397 . S
C2522 C2523 1.334 . S
C2523 H2500 0.950 . S
C2523 C2522 1.334 . S
C2523 C2524 1.287 . S
C2524 C2523 1.287 . S
C2524 C2525 1.524 . S
C2524 H2543 0.913 . S
C2525 H2501 0.950 . S
C2525 C2524 1.524 . S
C2525 C2526 1.415 . S
C2526 H2502 0.950 . S
C2526 C2521 1.363 . S
C2526 C2525 1.415 . S
C2527 H2503 0.951 . S
C2527 C2528 1.366 . S
C2527 C2529 1.388 . S
C2528 C2527 1.366 . S
C2528 C2532 1.385 . S
C2529 H2504 0.951 . S
C2529 C2527 1.388 . S
C2529 C2530 1.366 . S
C2530 C2529 1.366 . S
C2530 C2531 1.414 . S
C2530 C2533 1.499 . S
C2531 H2505 0.950 . S
C2531 C2530 1.414 . S
C2531 C2532 1.374 . S
C2532 H2506 0.950 . S
C2532 C2528 1.385 . S
C2532 C2531 1.374 . S
C2533 C2530 1.499 . S
C2533 C2534 1.373 . S
C2533 C2535 1.389 . S
C2534 H2507 0.950 . S
C2534 C2520 1.377 1_554 S
C2534 C2533 1.373 . S
C2535 C2519 1.377 1_554 S
C2535 C2533 1.389 . S
C2535 C2536 1.524 . S
C2536 C2535 1.524 . S
C2536 C2537 1.397 . S
C2536 C2541 1.363 . S
C2537 H2508 0.950 . S
C2537 C2536 1.397 . S
C2537 C2538 1.334 . S
C2538 H2509 0.950 . S
C2538 C2537 1.334 . S
C2538 C2539 1.287 . S
C2539 C2538 1.287 . S
C2539 C2540 1.524 . S
C2539 H2542 0.999 . S
C2540 H2510 0.950 . S
C2540 C2539 1.524 . S
C2540 C2541 1.415 . S
C2541 H2511 0.950 . S
C2541 C2536 1.363 . S
C2541 C2540 1.415 . S
H2542 C2539 0.999 . S
H2543 C2524 0.913 . S
C563 C88 0.838 . S
C578 C20 0.838 . S
C613 C54 0.838 . S
C628 C122 0.838 . S
C663 C224 0.838 . S
C678 C156 0.838 . S
C713 C258 0.838 . S
C728 C190 0.838 . S
C763 C292 0.838 . S
C778 C360 0.838 . S
C813 C394 0.838 . S
C828 C326 0.838 . S
C863 C496 0.838 . S
C878 C428 0.838 . S
C913 C462 0.838 . S
C928 C530 0.838 . S
C963 C9 1.595 . S
C978 C519 1.595 . S
C1013 C417 1.595 . S
C1028 C43 1.595 . S
C1063 C451 1.595 . S
C1078 C77 1.594 . S
C1113 C485 1.595 . S
C1128 C111 1.595 . S
C1163 C315 1.595 . S
C1178 C145 1.594 . S
C1213 C349 1.595 . S
C1228 C179 1.595 . S
C1263 C383 1.595 . S
C1278 C213 1.595 . S
C1313 C281 1.595 . S
C1328 C247 1.594 . S
C1363 C2 1.393 . S
C1378 C135 1.396 . S
C1413 C33 1.396 . S
C1428 C36 1.393 . S
C1463 C70 1.393 . S
C1478 C67 1.396 . S
C1513 C101 1.397 . S
C1528 C104 1.393 . S
C1563 C203 1.397 . S
C1578 C138 1.393 . S
C1613 C172 1.393 . S
C1628 C237 1.397 . S
C1663 C271 1.397 . S
C1678 C206 1.393 . S
C1713 C169 1.396 . S
C1728 C240 1.393 . S
C1763 C274 1.393 . S
C1778 C407 1.396 . S
C1813 C305 1.396 . S
C1828 C308 1.393 . S
C1863 C342 1.393 . S
C1878 C339 1.397 . S
C1913 C376 1.393 . S
C1928 C373 1.396 . S
C1963 C410 1.393 . S
C1978 C475 1.396 . S
C2013 C509 1.397 . S
C2028 C444 1.393 . S
C2063 C543 1.397 . S
C2078 C478 1.393 . S
C2113 C512 1.393 . S
C2128 C441 1.397 . S
C2163 C5 1.610 . S
C2178 C209 1.610 . S
C2213 C243 1.610 . S
C2228 C39 1.610 . S
C2263 C141 1.610 . S
C2278 C73 1.610 . S
C2313 C175 1.610 . S
C2328 C107 1.610 . S
C2363 C277 1.610 . S
C2378 C481 1.610 . S
C2413 C515 1.610 . S
C2428 C311 1.610 . S
C2463 C413 1.610 . S
C2478 C345 1.610 . S
C2513 C379 1.610 . S
C2528 C447 1.610 . S
