# Generated by pormake.
# Topology wgf, (5)-cn, num edge types: 1
# Building blocks:
#     Node 0, Type 0, BuildingBlock: BEQFEK_clean_sbu_0, # of connection points: 5
#     Node 1, Type 0, BuildingBlock: BEQFEK_clean_sbu_0, # of connection points: 5
#     Node 2, Type 0, BuildingBlock: BEQFEK_clean_sbu_0, # of connection points: 5
#     Node 3, Type 0, BuildingBlock: BEQFEK_clean_sbu_0, # of connection points: 5
#     Node 4, Type 0, BuildingBlock: BEQFEK_clean_sbu_0, # of connection points: 5
#     Node 5, Type 0, BuildingBlock: BEQFEK_clean_sbu_0, # of connection points: 5
#     Node 6, Type 0, BuildingBlock: BEQFEK_clean_sbu_0, # of connection points: 5
#     Node 7, Type 0, BuildingBlock: BEQFEK_clean_sbu_0, # of connection points: 5
#     Node 8, Type 0, BuildingBlock: BEQFEK_clean_sbu_0, # of connection points: 5
#     Node 9, Type 0, BuildingBlock: BEQFEK_clean_sbu_0, # of connection points: 5
#     Node 10, Type 0, BuildingBlock: BEQFEK_clean_sbu_0, # of connection points: 5
#     Node 11, Type 0, BuildingBlock: BEQFEK_clean_sbu_0, # of connection points: 5
#     Node 12, Type 0, BuildingBlock: BEQFEK_clean_sbu_0, # of connection points: 5
#     Node 13, Type 0, BuildingBlock: BEQFEK_clean_sbu_0, # of connection points: 5
#     Node 14, Type 0, BuildingBlock: BEQFEK_clean_sbu_0, # of connection points: 5
#     Node 15, Type 0, BuildingBlock: BEQFEK_clean_sbu_0, # of connection points: 5
#     Node 16, Type 0, BuildingBlock: BEQFEK_clean_sbu_0, # of connection points: 5
#     Node 17, Type 0, BuildingBlock: BEQFEK_clean_sbu_0, # of connection points: 5
#     Node 18, Type 0, BuildingBlock: BEQFEK_clean_sbu_0, # of connection points: 5
#     Node 19, Type 0, BuildingBlock: BEQFEK_clean_sbu_0, # of connection points: 5
#     Node 20, Type 0, BuildingBlock: BEQFEK_clean_sbu_0, # of connection points: 5
#     Node 21, Type 0, BuildingBlock: BEQFEK_clean_sbu_0, # of connection points: 5
#     Node 22, Type 0, BuildingBlock: BEQFEK_clean_sbu_0, # of connection points: 5
#     Node 23, Type 0, BuildingBlock: BEQFEK_clean_sbu_0, # of connection points: 5
#     Node 24, Type 0, BuildingBlock: BEQFEK_clean_sbu_0, # of connection points: 5
#     Node 25, Type 0, BuildingBlock: BEQFEK_clean_sbu_0, # of connection points: 5
#     Node 26, Type 0, BuildingBlock: BEQFEK_clean_sbu_0, # of connection points: 5
#     Node 27, Type 0, BuildingBlock: BEQFEK_clean_sbu_0, # of connection points: 5
#     Node 28, Type 0, BuildingBlock: BEQFEK_clean_sbu_0, # of connection points: 5
#     Node 29, Type 0, BuildingBlock: BEQFEK_clean_sbu_0, # of connection points: 5
#     Node 30, Type 0, BuildingBlock: BEQFEK_clean_sbu_0, # of connection points: 5
#     Node 31, Type 0, BuildingBlock: BEQFEK_clean_sbu_0, # of connection points: 5
#     Edge 32, Type (0, 0), BuildingBlock: CIFDUS_clean_linker_0, # of connection points: 2
#     Edge 33, Type (0, 0), BuildingBlock: CIFDUS_clean_linker_0, # of connection points: 2
#     Edge 34, Type (0, 0), BuildingBlock: CIFDUS_clean_linker_0, # of connection points: 2
#     Edge 35, Type (0, 0), BuildingBlock: CIFDUS_clean_linker_0, # of connection points: 2
#     Edge 36, Type (0, 0), BuildingBlock: CIFDUS_clean_linker_0, # of connection points: 2
#     Edge 37, Type (0, 0), BuildingBlock: CIFDUS_clean_linker_0, # of connection points: 2
#     Edge 38, Type (0, 0), BuildingBlock: CIFDUS_clean_linker_0, # of connection points: 2
#     Edge 39, Type (0, 0), BuildingBlock: CIFDUS_clean_linker_0, # of connection points: 2
#     Edge 40, Type (0, 0), BuildingBlock: CIFDUS_clean_linker_0, # of connection points: 2
#     Edge 41, Type (0, 0), BuildingBlock: CIFDUS_clean_linker_0, # of connection points: 2
#     Edge 42, Type (0, 0), BuildingBlock: CIFDUS_clean_linker_0, # of connection points: 2
#     Edge 43, Type (0, 0), BuildingBlock: CIFDUS_clean_linker_0, # of connection points: 2
#     Edge 44, Type (0, 0), BuildingBlock: CIFDUS_clean_linker_0, # of connection points: 2
#     Edge 45, Type (0, 0), BuildingBlock: CIFDUS_clean_linker_0, # of connection points: 2
#     Edge 46, Type (0, 0), BuildingBlock: CIFDUS_clean_linker_0, # of connection points: 2
#     Edge 47, Type (0, 0), BuildingBlock: CIFDUS_clean_linker_0, # of connection points: 2
#     Edge 48, Type (0, 0), BuildingBlock: CIFDUS_clean_linker_0, # of connection points: 2
#     Edge 49, Type (0, 0), BuildingBlock: CIFDUS_clean_linker_0, # of connection points: 2
#     Edge 50, Type (0, 0), BuildingBlock: CIFDUS_clean_linker_0, # of connection points: 2
#     Edge 51, Type (0, 0), BuildingBlock: CIFDUS_clean_linker_0, # of connection points: 2
#     Edge 52, Type (0, 0), BuildingBlock: CIFDUS_clean_linker_0, # of connection points: 2
#     Edge 53, Type (0, 0), BuildingBlock: CIFDUS_clean_linker_0, # of connection points: 2
#     Edge 54, Type (0, 0), BuildingBlock: CIFDUS_clean_linker_0, # of connection points: 2
#     Edge 55, Type (0, 0), BuildingBlock: CIFDUS_clean_linker_0, # of connection points: 2
#     Edge 56, Type (0, 0), BuildingBlock: CIFDUS_clean_linker_0, # of connection points: 2
#     Edge 57, Type (0, 0), BuildingBlock: CIFDUS_clean_linker_0, # of connection points: 2
#     Edge 58, Type (0, 0), BuildingBlock: CIFDUS_clean_linker_0, # of connection points: 2
#     Edge 59, Type (0, 0), BuildingBlock: CIFDUS_clean_linker_0, # of connection points: 2
#     Edge 60, Type (0, 0), BuildingBlock: CIFDUS_clean_linker_0, # of connection points: 2
#     Edge 61, Type (0, 0), BuildingBlock: CIFDUS_clean_linker_0, # of connection points: 2
#     Edge 62, Type (0, 0), BuildingBlock: CIFDUS_clean_linker_0, # of connection points: 2
#     Edge 63, Type (0, 0), BuildingBlock: CIFDUS_clean_linker_0, # of connection points: 2
#     Edge 64, Type (0, 0), BuildingBlock: CIFDUS_clean_linker_0, # of connection points: 2
#     Edge 65, Type (0, 0), BuildingBlock: CIFDUS_clean_linker_0, # of connection points: 2
#     Edge 66, Type (0, 0), BuildingBlock: CIFDUS_clean_linker_0, # of connection points: 2
#     Edge 67, Type (0, 0), BuildingBlock: CIFDUS_clean_linker_0, # of connection points: 2
#     Edge 68, Type (0, 0), BuildingBlock: CIFDUS_clean_linker_0, # of connection points: 2
#     Edge 69, Type (0, 0), BuildingBlock: CIFDUS_clean_linker_0, # of connection points: 2
#     Edge 70, Type (0, 0), BuildingBlock: CIFDUS_clean_linker_0, # of connection points: 2
#     Edge 71, Type (0, 0), BuildingBlock: CIFDUS_clean_linker_0, # of connection points: 2
#     Edge 72, Type (0, 0), BuildingBlock: CIFDUS_clean_linker_0, # of connection points: 2
#     Edge 73, Type (0, 0), BuildingBlock: CIFDUS_clean_linker_0, # of connection points: 2
#     Edge 74, Type (0, 0), BuildingBlock: CIFDUS_clean_linker_0, # of connection points: 2
#     Edge 75, Type (0, 0), BuildingBlock: CIFDUS_clean_linker_0, # of connection points: 2
#     Edge 76, Type (0, 0), BuildingBlock: CIFDUS_clean_linker_0, # of connection points: 2
#     Edge 77, Type (0, 0), BuildingBlock: CIFDUS_clean_linker_0, # of connection points: 2
#     Edge 78, Type (0, 0), BuildingBlock: CIFDUS_clean_linker_0, # of connection points: 2
#     Edge 79, Type (0, 0), BuildingBlock: CIFDUS_clean_linker_0, # of connection points: 2
#     Edge 80, Type (0, 0), BuildingBlock: CIFDUS_clean_linker_0, # of connection points: 2
#     Edge 81, Type (0, 0), BuildingBlock: CIFDUS_clean_linker_0, # of connection points: 2
#     Edge 82, Type (0, 0), BuildingBlock: CIFDUS_clean_linker_0, # of connection points: 2
#     Edge 83, Type (0, 0), BuildingBlock: CIFDUS_clean_linker_0, # of connection points: 2
#     Edge 84, Type (0, 0), BuildingBlock: CIFDUS_clean_linker_0, # of connection points: 2
#     Edge 85, Type (0, 0), BuildingBlock: CIFDUS_clean_linker_0, # of connection points: 2
#     Edge 86, Type (0, 0), BuildingBlock: CIFDUS_clean_linker_0, # of connection points: 2
#     Edge 87, Type (0, 0), BuildingBlock: CIFDUS_clean_linker_0, # of connection points: 2
#     Edge 88, Type (0, 0), BuildingBlock: CIFDUS_clean_linker_0, # of connection points: 2
#     Edge 89, Type (0, 0), BuildingBlock: CIFDUS_clean_linker_0, # of connection points: 2
#     Edge 90, Type (0, 0), BuildingBlock: CIFDUS_clean_linker_0, # of connection points: 2
#     Edge 91, Type (0, 0), BuildingBlock: CIFDUS_clean_linker_0, # of connection points: 2
#     Edge 92, Type (0, 0), BuildingBlock: CIFDUS_clean_linker_0, # of connection points: 2
#     Edge 93, Type (0, 0), BuildingBlock: CIFDUS_clean_linker_0, # of connection points: 2
#     Edge 94, Type (0, 0), BuildingBlock: CIFDUS_clean_linker_0, # of connection points: 2
#     Edge 95, Type (0, 0), BuildingBlock: CIFDUS_clean_linker_0, # of connection points: 2
#     Edge 96, Type (0, 0), BuildingBlock: CIFDUS_clean_linker_0, # of connection points: 2
#     Edge 97, Type (0, 0), BuildingBlock: CIFDUS_clean_linker_0, # of connection points: 2
#     Edge 98, Type (0, 0), BuildingBlock: CIFDUS_clean_linker_0, # of connection points: 2
#     Edge 99, Type (0, 0), BuildingBlock: CIFDUS_clean_linker_0, # of connection points: 2
#     Edge 100, Type (0, 0), BuildingBlock: CIFDUS_clean_linker_0, # of connection points: 2
#     Edge 101, Type (0, 0), BuildingBlock: CIFDUS_clean_linker_0, # of connection points: 2
#     Edge 102, Type (0, 0), BuildingBlock: CIFDUS_clean_linker_0, # of connection points: 2
#     Edge 103, Type (0, 0), BuildingBlock: CIFDUS_clean_linker_0, # of connection points: 2
#     Edge 104, Type (0, 0), BuildingBlock: CIFDUS_clean_linker_0, # of connection points: 2
#     Edge 105, Type (0, 0), BuildingBlock: CIFDUS_clean_linker_0, # of connection points: 2
#     Edge 106, Type (0, 0), BuildingBlock: CIFDUS_clean_linker_0, # of connection points: 2
#     Edge 107, Type (0, 0), BuildingBlock: CIFDUS_clean_linker_0, # of connection points: 2
#     Edge 108, Type (0, 0), BuildingBlock: CIFDUS_clean_linker_0, # of connection points: 2
#     Edge 109, Type (0, 0), BuildingBlock: CIFDUS_clean_linker_0, # of connection points: 2
#     Edge 110, Type (0, 0), BuildingBlock: CIFDUS_clean_linker_0, # of connection points: 2
#     Edge 111, Type (0, 0), BuildingBlock: CIFDUS_clean_linker_0, # of connection points: 2
# Relax obj value: 0.630
# Max RMSD: 0.177
# Mean RMSD: 0.175
data_MOF--net-wgf--node1-BEQFEK_clean_sbu_0--edge1-CIFDUS_clean_linker_0
_symmetry_space_group_name_H-M    P1
_symmetry_Int_Tables_number       1
_symmetry_cell_setting            triclinic
loop_
_symmetry_equiv_pos_as_xyz
'x, y, z'
_cell_length_a     72.696359
_cell_length_b     72.777458
_cell_length_c     22.18101
_cell_angle_alpha  89.950638
_cell_angle_beta   89.906785
_cell_angle_gamma 90.013105
loop_
_atom_site_label
_atom_site_type_symbol
_atom_site_fract_x
_atom_site_fract_y
_atom_site_fract_z
_atom_type_partial_charge
Co0 Co 0.08482 0.04049 0.14087 0.0
Co1 Co 0.06249 0.07099 0.08077 0.0
C2 C 0.04746 0.05492 0.19256 0.0
O3 O 0.06206 0.04495 0.1939 0.0
O4 O 0.04451 0.06582 0.1482 0.0
C5 C 0.11655 0.01957 0.16453 0.0
O6 O 0.12458 0.03256 0.13297 0.0
C7 C 0.04114 0.09642 1.00198 0.0
C8 C 0.06456 0.11198 0.96351 0.0
C9 C 0.04572 0.10992 0.9599 0.0
N10 N 0.05671 0.09064 0.02815 0.0
N11 N 0.07054 0.10037 1.00605 0.0
C12 C 0.0227 0.0879 0.01313 0.0
H13 H 0.02393 0.07589 0.04375 0.0
H14 H 0.01638 0.08362 0.96983 0.0
H15 H 0.0135 0.09818 0.03442 0.0
C16 C 0.08128 0.02259 0.01971 0.0
N17 N 0.07853 0.03669 0.05835 0.0
N18 N 0.068 0.04909 0.03279 0.0
C19 C 0.06315 0.04286 0.97725 0.0
C20 C 0.07138 0.02568 0.9666 0.0
C21 C 0.09413 0.007 0.03256 0.0
H22 H 0.10723 0.01252 0.05008 0.0
H23 H 0.08802 0.99794 0.06753 0.0
H24 H 0.09742 0.9989 0.99168 0.0
O25 O 0.1021 0.06099 0.15288 0.0
O26 O 0.08413 0.0829 0.11982 0.0
H27 H 0.05573 0.06508 0.91909 0.0
H28 H 0.04451 0.04353 0.90088 0.0
C29 C 0.04946 0.05241 0.93798 0.0
H30 H 0.03748 0.05644 0.96572 0.0
H31 H 0.08431 0.09834 0.01733 0.0
O32 O 0.09914 0.01962 0.17127 0.0
C33 C 0.09898 0.07786 0.14445 0.0
Co34 Co 0.20749 0.82045 0.39385 0.0
Co35 Co 0.17844 0.80102 0.32077 0.0
C36 C 0.19607 0.78186 0.42803 0.0
O37 O 0.20606 0.79593 0.43873 0.0
O38 O 0.18505 0.78201 0.38334 0.0
C39 C 0.24356 0.83067 0.43722 0.0
O40 O 0.24956 0.81447 0.42005 0.0
C41 C 0.16233 0.77393 0.2424 0.0
C42 C 0.13968 0.78948 0.20033 0.0
C43 C 0.14951 0.77322 0.19613 0.0
N44 N 0.16086 0.79022 0.26966 0.0
N45 N 0.14673 0.79915 0.24646 0.0
C46 C 0.17755 0.7606 0.25515 0.0
H47 H 0.17683 0.75634 0.30308 0.0
H48 H 0.19103 0.76744 0.24818 0.0
H49 H 0.17654 0.74817 0.22635 0.0
C50 C 0.22667 0.82358 0.27237 0.0
N51 N 0.21261 0.81806 0.30845 0.0
N52 N 0.19994 0.81011 0.27525 0.0
C53 C 0.20566 0.81058 0.21668 0.0
C54 C 0.22327 0.8184 0.21276 0.0
C55 C 0.24178 0.83617 0.29225 0.0
H56 H 0.23651 0.84606 0.32602 0.0
H57 H 0.2531 0.828 0.31223 0.0
H58 H 0.24742 0.84411 0.25367 0.0
O59 O 0.18524 0.83625 0.40978 0.0
O60 O 0.16423 0.82108 0.35865 0.0
H61 H 0.19029 0.81826 0.13905 0.0
H62 H 0.20144 0.79629 0.13358 0.0
C63 C 0.19385 0.80562 0.16437 0.0
H64 H 0.18084 0.79949 0.1795 0.0
H65 H 0.1429 0.81245 0.25861 0.0
O66 O 0.22681 0.83488 0.43029 0.0
C67 C 0.16867 0.83433 0.39268 0.0
Co68 Co 0.43729 0.96108 0.61971 0.0
Co69 Co 0.45488 0.92679 0.57083 0.0
C70 C 0.47149 0.94369 0.67915 0.0
O71 O 0.45801 0.95479 0.6754 0.0
O72 O 0.47378 0.93162 0.63803 0.0
C73 C 0.44502 0.9974 0.63771 0.0
O74 O 0.46065 0.99232 0.61293 0.0
C75 C 0.4762 0.90111 0.49781 0.0
C76 C 0.45501 0.8806 0.47462 0.0
C77 C 0.47291 0.88584 0.46184 0.0
N78 N 0.46091 0.90487 0.52909 0.0
N79 N 0.44852 0.89212 0.51693 0.0
C80 C 0.49252 0.91365 0.49529 0.0
H81 H 0.48943 0.92694 0.51766 0.0
H82 H 0.49688 0.91607 0.44799 0.0
H83 H 0.50419 0.90698 0.51893 0.0
C84 C 0.43929 0.97427 0.49478 0.0
N85 N 0.44314 0.96158 0.5373 0.0
N86 N 0.45142 0.94736 0.51299 0.0
C87 C 0.45334 0.95099 0.45284 0.0
C88 C 0.44604 0.96841 0.4398 0.0
C89 C 0.42791 0.99118 0.50543 0.0
H90 H 0.41763 0.98867 0.54142 0.0
H91 H 0.43706 1.00267 0.51864 0.0
H92 H 0.4205 0.99559 0.46435 0.0
O93 O 0.416 0.94504 0.63642 0.0
O94 O 0.4307 0.91972 0.6099 0.0
H95 H 0.45513 0.941 0.36149 0.0
H96 H 0.47542 0.9379 0.40654 0.0
C97 C 0.46019 0.93754 0.40731 0.0
H98 H 0.45561 0.92353 0.41972 0.0
H99 H 0.43509 0.89215 0.53358 0.0
O100 O 0.43198 0.98584 0.64206 0.0
C101 C 0.41654 0.92763 0.63179 0.0
Co102 Co 0.29213 0.18322 0.89013 0.0
Co103 Co 0.32406 0.20272 0.82992 0.0
C104 C 0.3096 0.21996 0.93819 0.0
O105 O 0.29929 0.20566 0.94083 0.0
O106 O 0.3203 0.22242 0.89297 0.0
C107 C 0.27627 0.16471 0.97759 0.0
O108 O 0.29279 0.16882 0.99737 0.0
C109 C 0.35007 0.21925 0.74003 0.0
C110 C 0.36406 0.19369 0.71253 0.0
C111 C 0.36204 0.21196 0.69716 0.0
N112 N 0.34456 0.20563 0.77669 0.0
N113 N 0.35372 0.19062 0.7615 0.0
C114 C 0.34288 0.2385 0.74253 0.0
H115 H 0.33192 0.23979 0.77717 0.0
H116 H 0.3377 0.24281 0.69768 0.0
H117 H 0.35436 0.24789 0.75423 0.0
C118 C 0.27416 0.18635 0.76936 0.0
N119 N 0.28807 0.18927 0.80863 0.0
N120 N 0.30148 0.19821 0.78186 0.0
C121 C 0.29604 0.20196 0.72458 0.0
C122 C 0.27854 0.19439 0.71395 0.0
C123 C 0.25761 0.17494 0.78394 0.0
H124 H 0.26108 0.16445 0.81834 0.0
H125 H 0.24669 0.18396 0.80256 0.0
H126 H 0.25227 0.16799 0.74306 0.0
O127 O 0.31029 0.16323 0.89465 0.0
O128 O 0.33398 0.18073 0.87476 0.0
H129 H 0.31947 0.20769 0.66951 0.0
H130 H 0.29844 0.21829 0.64277 0.0
C131 C 0.30644 0.2144 0.68324 0.0
H132 H 0.30959 0.22717 0.70794 0.0
H133 H 0.35167 0.17771 0.78072 0.0
O134 O 0.27092 0.17152 0.92789 0.0
C135 C 0.32747 0.16555 0.89299 0.0
Co136 Co 0.08626 0.95487 0.47869 0.0
Co137 Co 0.06238 0.92449 0.53221 0.0
C138 C 0.05009 0.94276 0.41801 0.0
O139 O 0.06471 0.9526 0.41969 0.0
O140 O 0.04679 0.93118 0.45997 0.0
C141 C 0.11921 0.97513 0.46018 0.0
O142 O 0.12699 0.96139 0.48872 0.0
C143 C 0.03346 0.90294 0.59238 0.0
C144 C 0.05037 0.88144 0.63579 0.0
C145 C 0.03249 0.88774 0.63018 0.0
N146 N 0.05111 0.90552 0.57702 0.0
N147 N 0.06107 0.89235 0.60181 0.0
C148 C 0.01824 0.91582 0.57566 0.0
H149 H 0.02378 0.92838 0.55386 0.0
H150 H 0.01016 0.91965 0.61625 0.0
H151 H 0.00882 0.90883 0.54375 0.0
C152 C 0.08098 0.97199 0.59995 0.0
N153 N 0.07832 0.95824 0.56004 0.0
N154 N 0.06741 0.94579 0.58375 0.0
C155 C 0.06231 0.95161 0.63963 0.0
C156 C 0.07069 0.96864 0.6521 0.0
C157 C 0.09428 0.9874 0.58944 0.0
H158 H 0.1075 0.98167 0.57346 0.0
H159 H 0.08882 0.99666 0.55398 0.0
H160 H 0.09713 0.99533 0.63097 0.0
O161 O 0.10299 0.93364 0.47021 0.0
O162 O 0.08533 0.91145 0.50439 0.0
H163 H 0.05368 0.92769 0.68814 0.0
H164 H 0.04546 0.94908 0.72033 0.0
C165 C 0.04856 0.9417 0.67792 0.0
H166 H 0.03559 0.94029 0.65235 0.0
H167 H 0.07533 0.89128 0.59782 0.0
O168 O 0.10182 0.97553 0.45368 0.0
C169 C 0.10048 0.91679 0.4818 0.0
Co170 Co 0.30185 0.84444 0.73456 0.0
Co171 Co 0.32834 0.8168 0.78876 0.0
C172 C 0.30988 0.80698 0.67371 0.0
O173 O 0.30203 0.82278 0.67402 0.0
O174 O 0.3203 0.8023 0.7172 0.0
C175 C 0.28631 0.87818 0.69208 0.0
O176 O 0.30175 0.88589 0.7093 0.0
C177 C 0.35031 0.78586 0.83233 0.0
C178 C 0.36273 0.79856 0.9126 0.0
C179 C 0.3612 0.78188 0.88232 0.0
N180 N 0.345 0.80347 0.83572 0.0
N181 N 0.35305 0.81119 0.88241 0.0
C182 C 0.34622 0.77382 0.77937 0.0
H183 H 0.3478 0.78183 0.73715 0.0
H184 H 0.33176 0.76897 0.78203 0.0
H185 H 0.35577 0.76194 0.77733 0.0
C186 C 0.28256 0.83983 0.85377 0.0
N187 N 0.2966 0.83649 0.81527 0.0
N188 N 0.30739 0.82388 0.83836 0.0
C189 C 0.30013 0.81828 0.89182 0.0
C190 C 0.28395 0.82821 0.90407 0.0
C191 C 0.26847 0.85446 0.84302 0.0
H192 H 0.27496 0.86645 0.82064 0.0
H193 H 0.25763 0.84902 0.81269 0.0
H194 H 0.26209 0.85908 0.88587 0.0
O195 O 0.32529 0.85843 0.72727 0.0
O196 O 0.34434 0.83751 0.76163 0.0
H197 H 0.31791 0.80778 0.96011 0.0
H198 H 0.29652 0.79543 0.95288 0.0
C199 C 0.30762 0.80252 0.92753 0.0
H200 H 0.31453 0.79254 0.89729 0.0
H201 H 0.3512 0.82486 0.89515 0.0
O202 O 0.28282 0.86171 0.70774 0.0
C203 C 0.34155 0.85325 0.73876 0.0
Co204 Co 0.42164 0.06084 1.0056 0.0
Co205 Co 0.44494 0.09014 0.06167 0.0
C206 C 0.45812 0.07587 0.9473 0.0
O207 O 0.44289 0.06706 0.94802 0.0
O208 O 0.4628 0.08542 0.99308 0.0
C209 C 0.42456 0.02882 0.95487 0.0
O210 O 0.44005 0.02984 0.9852 0.0
C211 C 0.46776 0.11471 0.13593 0.0
C212 C 0.44645 0.13401 0.16864 0.0
C213 C 0.46488 0.12964 0.17399 0.0
N214 N 0.4517 0.11038 0.11024 0.0
N215 N 0.43915 0.12229 0.12862 0.0
C216 C 0.48473 0.10319 0.12982 0.0
H217 H 0.48179 0.09053 0.10367 0.0
H218 H 0.49013 0.09947 0.17498 0.0
H219 H 0.4955 0.1112 0.10594 0.0
C220 C 0.42792 0.04099 0.12251 0.0
N221 N 0.42951 0.05584 0.08598 0.0
N222 N 0.44024 0.06814 0.11111 0.0
C223 C 0.44598 0.06132 0.16498 0.0
C224 C 0.43861 0.04367 0.1741 0.0
C225 C 0.41781 0.02383 0.10492 0.0
H226 H 0.40673 0.02706 0.07252 0.0
H227 H 0.42761 0.01399 0.08426 0.0
H228 H 0.41136 0.01689 0.14368 0.0
O229 O 0.40238 0.07987 0.99935 0.0
O230 O 0.42235 0.10106 0.02486 0.0
H231 H 0.45449 0.08635 0.20746 0.0
H232 H 0.45652 0.06619 0.25447 0.0
C233 C 0.45804 0.07156 0.20788 0.0
H234 H 0.47259 0.06994 0.19373 0.0
H235 H 0.42529 0.12183 0.1166 0.0
O236 O 0.41137 0.03904 0.97077 0.0
C237 C 0.40661 0.09666 1.00486 0.0
Co238 Co 0.19831 0.17651 0.25483 0.0
Co239 Co 0.16757 0.20203 0.29716 0.0
C240 C 0.18878 0.21204 0.18626 0.0
O241 O 0.19806 0.19719 0.19226 0.0
O242 O 0.17654 0.21632 0.2251 0.0
C243 C 0.21862 0.14307 0.23891 0.0
O244 O 0.20353 0.13462 0.25594 0.0
C245 C 0.14563 0.23236 0.3469 0.0
C246 C 0.12237 0.21693 0.38622 0.0
C247 C 0.12976 0.23442 0.38127 0.0
N248 N 0.14771 0.21451 0.33393 0.0
N249 N 0.1334 0.20545 0.35561 0.0
C250 C 0.1597 0.24677 0.3325 0.0
H251 H 0.17222 0.24052 0.31253 0.0
H252 H 0.1635 0.25449 0.37378 0.0
H253 H 0.15375 0.25672 0.30001 0.0
C254 C 0.21235 0.18212 0.3799 0.0
N255 N 0.19993 0.18523 0.33577 0.0
N256 N 0.18731 0.19674 0.35503 0.0
C257 C 0.1917 0.20172 0.41234 0.0
C258 C 0.20792 0.19271 0.43037 0.0
C259 C 0.2271 0.16783 0.37531 0.0
H260 H 0.22131 0.15522 0.35502 0.0
H261 H 0.23829 0.17294 0.34558 0.0
H262 H 0.23281 0.16409 0.41995 0.0
O263 O 0.17692 0.16041 0.24221 0.0
O264 O 0.15475 0.17937 0.26808 0.0
H265 H 0.1689 0.20834 0.46919 0.0
H266 H 0.18942 0.22165 0.48438 0.0
C267 C 0.18093 0.21532 0.44849 0.0
H268 H 0.17579 0.22632 0.41887 0.0
H269 H 0.1317 0.19125 0.35259 0.0
O270 O 0.21925 0.16055 0.2376 0.0
C271 C 0.15996 0.16384 0.24843 0.0
Co272 Co 0.95331 0.92783 0.98627 0.0
Co273 Co 0.92579 0.95198 0.05159 0.0
C274 C 0.9406 0.96527 0.93614 0.0
O275 O 0.94872 0.94975 0.93161 0.0
O276 O 0.93168 0.96941 0.98386 0.0
C277 C 0.96792 0.90609 0.90006 0.0
O278 O 0.95099 0.90864 0.88117 0.0
C279 C 0.90567 0.97856 0.1267 0.0
C280 C 0.88387 0.96043 0.16322 0.0
C281 C 0.89056 0.97821 0.16508 0.0
N282 N 0.90777 0.9617 0.10354 0.0
N283 N 0.89452 0.95103 0.12469 0.0
C284 C 0.91889 0.994 0.11614 0.0
H285 H 0.93154 0.98893 0.09352 0.0
H286 H 0.9225 1.00069 0.15949 0.0
H287 H 0.91231 0.00444 0.08677 0.0
C288 C 0.9746 0.93183 0.10189 0.0
N289 N 0.95978 0.93494 0.06647 0.0
N290 N 0.94763 0.94471 0.09643 0.0
C291 C 0.95426 0.94782 0.15269 0.0
C292 C 0.97175 0.93992 0.15815 0.0
C293 C 0.99084 0.92068 0.08254 0.0
H294 H 0.99817 0.92804 0.04584 0.0
H295 H 1.00046 0.91815 0.12043 0.0
H296 H 0.98605 0.90735 0.06402 0.0
O297 O 0.93175 0.91086 0.98442 0.0
O298 O 0.91165 0.9311 0.01653 0.0
H299 H 0.92973 0.95425 0.20203 0.0
H300 H 0.95076 0.95715 0.24477 0.0
C301 C 0.94432 0.95867 0.19978 0.0
H302 H 0.94465 0.9734 0.18715 0.0
H303 H 0.89309 0.93712 0.11445 0.0
O304 O 0.97303 0.91372 0.9487 0.0
C305 C 0.91521 0.91549 0.99403 0.0
Co306 Co 0.82858 0.20361 0.74675 0.0
Co307 Co 0.80778 0.17527 0.82095 0.0
C308 C 0.78983 0.19036 0.71182 0.0
O309 O 0.80477 0.19905 0.70111 0.0
O310 O 0.78799 0.18086 0.76002 0.0
C311 C 0.84685 0.21619 0.65147 0.0
O312 O 0.84073 0.19994 0.63518 0.0
C313 C 0.78497 0.15149 0.89959 0.0
C314 C 0.80701 0.13436 0.93933 0.0
C315 C 0.78818 0.13695 0.9388 0.0
N316 N 0.80122 0.15704 0.87745 0.0
N317 N 0.81427 0.14659 0.90079 0.0
C318 C 0.76712 0.16099 0.88741 0.0
H319 H 0.76949 0.17439 0.86476 0.0
H320 H 0.75948 0.16317 0.93018 0.0
H321 H 0.75856 0.15221 0.85773 0.0
C322 C 0.82704 0.22504 0.86326 0.0
N323 N 0.8242 0.20986 0.82941 0.0
N324 N 0.81579 0.19739 0.86231 0.0
C325 C 0.81314 0.20424 0.91852 0.0
C326 C 0.8202 0.22212 0.92141 0.0
C327 C 0.8357 0.24224 0.83959 0.0
H328 H 0.84756 0.23873 0.81024 0.0
H329 H 0.82549 0.24974 0.81173 0.0
H330 H 0.84033 0.25129 0.87686 0.0
O331 O 0.84564 0.1824 0.73927 0.0
O332 O 0.82762 0.1615 0.77881 0.0
H333 H 0.8094 0.18126 0.97724 0.0
H334 H 0.80132 0.20283 0.00821 0.0
C335 C 0.80251 0.19447 0.96661 0.0
H336 H 0.78855 0.19122 0.94954 0.0
H337 H 0.82826 0.14806 0.89128 0.0
O338 O 0.84217 0.22254 0.70265 0.0
C339 C 0.84219 0.16574 0.75073 0.0
Co340 Co 0.55001 0.08783 0.49857 0.0
Co341 Co 0.57876 0.06604 0.56478 0.0
C342 C 0.56616 0.05118 0.44924 0.0
O343 O 0.55701 0.06613 0.44492 0.0
O344 O 0.57513 0.04756 0.49737 0.0
C345 C 0.53876 0.10763 0.40636 0.0
O346 O 0.55582 0.10303 0.39388 0.0
C347 C 0.60432 0.04351 0.63917 0.0
C348 C 0.61311 0.06529 0.70243 0.0
C349 C 0.6151 0.04674 0.6902 0.0
N350 N 0.59612 0.05936 0.62386 0.0
N351 N 0.60177 0.07234 0.66097 0.0
C352 C 0.6023 0.02619 0.60347 0.0
H353 H 0.60037 0.0295 0.55511 0.0
H354 H 0.58991 0.01866 0.61915 0.0
H355 H 0.61462 0.01732 0.60845 0.0
C356 C 0.52845 0.08365 0.61503 0.0
N357 N 0.54299 0.08068 0.578 0.0
N358 N 0.5557 0.07147 0.60726 0.0
C359 C 0.54947 0.06806 0.66388 0.0
C360 C 0.53196 0.07578 0.67142 0.0
C361 C 0.51205 0.0949 0.59797 0.0
H362 H 0.5157 0.10485 0.56198 0.0
H363 H 0.50117 0.08563 0.58059 0.0
H364 H 0.50651 0.10233 0.63773 0.0
O365 O 0.56974 0.10639 0.50328 0.0
O366 O 0.59214 0.08796 0.53002 0.0
H367 H 0.57002 0.06581 0.73216 0.0
H368 H 0.55034 0.05117 0.74399 0.0
C369 C 0.55977 0.05693 0.70942 0.0
H370 H 0.56715 0.04552 0.68678 0.0
H371 H 0.59739 0.08599 0.659 0.0
O372 O 0.53131 0.10139 0.45417 0.0
C373 C 0.58669 0.10351 0.51126 0.0
Co374 Co 0.68228 0.80859 0.26546 0.0
Co375 Co 0.69982 0.84122 0.32837 0.0
C376 C 0.7183 0.82513 0.22038 0.0
O377 O 0.70472 0.81415 0.21464 0.0
O378 O 0.71909 0.8363 0.26472 0.0
C379 C 0.67865 0.77182 0.21898 0.0
O380 O 0.69588 0.76891 0.234 0.0
C381 C 0.72282 0.8665 0.39984 0.0
C382 C 0.70144 0.88524 0.43512 0.0
C383 C 0.72012 0.8817 0.43651 0.0
N384 N 0.70647 0.86138 0.37755 0.0
N385 N 0.69382 0.8729 0.39777 0.0
C386 C 0.74023 0.85586 0.39132 0.0
H387 H 0.73745 0.8425 0.36907 0.0
H388 H 0.747 0.8535 0.43549 0.0
H389 H 0.74983 0.86398 0.36289 0.0
C390 C 0.68594 0.79119 0.38795 0.0
N391 N 0.68783 0.80537 0.34898 0.0
N392 N 0.69522 0.81943 0.37722 0.0
C393 C 0.6983 0.81453 0.4354 0.0
C394 C 0.69269 0.7963 0.44416 0.0
C395 C 0.67684 0.77334 0.37283 0.0
H396 H 0.66531 0.77567 0.34113 0.0
H397 H 0.68703 0.76412 0.35119 0.0
H398 H 0.6715 0.76645 0.41394 0.0
O399 O 0.66283 0.82714 0.25214 0.0
O400 O 0.67711 0.85123 0.28918 0.0
H401 H 0.69989 0.84013 0.48248 0.0
H402 H 0.70743 0.8205 0.52634 0.0
C403 C 0.70724 0.82679 0.48081 0.0
H404 H 0.7216 0.82952 0.4666 0.0
H405 H 0.67982 0.87186 0.38807 0.0
O406 O 0.67101 0.78692 0.23184 0.0
C407 C 0.66337 0.84425 0.26242 0.0
Co408 Co 0.9563 0.08121 0.632 0.0
Co409 Co 0.92582 0.06018 0.57101 0.0
C410 C 0.94006 0.04553 0.68486 0.0
O411 O 0.94959 0.06023 0.68803 0.0
O412 O 0.93039 0.04215 0.63823 0.0
C413 C 0.96975 0.10088 0.72144 0.0
O414 O 0.95244 0.09777 0.73521 0.0
C415 C 0.9033 0.03527 0.49776 0.0
C416 C 0.88319 0.05502 0.46031 0.0
C417 C 0.88842 0.03676 0.45894 0.0
N418 N 0.9067 0.05195 0.52063 0.0
N419 N 0.8944 0.0636 0.49917 0.0
C420 C 0.91527 0.01886 0.50834 0.0
H421 H 0.92823 0.02291 0.53116 0.0
H422 H 0.91847 0.01193 0.46501 0.0
H423 H 0.90782 0.00892 0.53741 0.0
C424 C 0.97652 0.07438 0.5153 0.0
N425 N 0.96182 0.07301 0.55249 0.0
N426 N 0.94819 0.06494 0.52391 0.0
C427 C 0.95381 0.06119 0.46683 0.0
C428 C 0.97207 0.06687 0.45935 0.0
C429 C 0.99421 0.08344 0.53249 0.0
H430 H 0.99139 0.09569 0.56075 0.0
H431 H 1.00248 0.07368 0.55972 0.0
H432 H 1.00227 0.08748 0.49205 0.0
O433 O 0.93711 0.10043 0.62893 0.0
O434 O 0.91383 0.08258 0.6063 0.0
H435 H 0.92813 0.05788 0.4207 0.0
H436 H 0.94813 0.05279 0.37493 0.0
C437 C 0.94211 0.0518 0.42075 0.0
H438 H 0.94092 0.03707 0.43264 0.0
H439 H 0.89412 0.07761 0.50896 0.0
O440 O 0.97626 0.09407 0.67301 0.0
C441 C 0.91998 0.098 0.62358 0.0
Co442 Co 0.68086 0.20812 0.39468 0.0
Co443 Co 0.70146 0.17966 0.32169 0.0
C444 C 0.71909 0.19458 0.4321 0.0
O445 O 0.70445 0.20381 0.44219 0.0
O446 O 0.7207 0.18497 0.38425 0.0
C447 C 0.67495 0.24416 0.44022 0.0
O448 O 0.6919 0.24754 0.4227 0.0
C449 C 0.72435 0.15177 0.26171 0.0
C450 C 0.70745 0.14679 0.18077 0.0
C451 C 0.72395 0.14187 0.20784 0.0
N452 N 0.70926 0.16237 0.26414 0.0
N453 N 0.69894 0.15887 0.21672 0.0
C454 C 0.73756 0.15008 0.31311 0.0
H455 H 0.73039 0.15278 0.35633 0.0
H456 H 0.7487 0.16038 0.30786 0.0
H457 H 0.74351 0.13605 0.31512 0.0
C458 C 0.68103 0.22848 0.27507 0.0
N459 N 0.68488 0.21386 0.31081 0.0
N460 N 0.69444 0.20186 0.27953 0.0
C461 C 0.69749 0.20882 0.22353 0.0
C462 C 0.68898 0.22593 0.21853 0.0
C463 C 0.66936 0.24448 0.29321 0.0
H464 H 0.65862 0.24007 0.32562 0.0
H465 H 0.67816 0.25511 0.31441 0.0
H466 H 0.66268 0.25075 0.2532 0.0
O467 O 0.66393 0.18705 0.40688 0.0
O468 O 0.68056 0.16615 0.36031 0.0
H469 H 0.70125 0.19128 0.1475 0.0
H470 H 0.7163 0.21082 0.1486 0.0
C471 C 0.70968 0.20017 0.17719 0.0
H472 H 0.72042 0.19168 0.19914 0.0
H473 H 0.68627 0.1651 0.20829 0.0
O474 O 0.66809 0.22837 0.43215 0.0
C475 C 0.66656 0.17047 0.39158 0.0
Co476 Co 0.55502 0.93439 0.14126 0.0
Co477 Co 0.58484 0.95748 0.08095 0.0
C478 C 0.56729 0.97222 0.19136 0.0
O479 O 0.55854 0.95698 0.19406 0.0
O480 O 0.57764 0.97579 0.14611 0.0
C481 C 0.51798 0.92598 0.18044 0.0
O482 O 0.51317 0.94244 0.16186 0.0
C483 C 0.60684 0.98095 0.99878 0.0
C484 C 0.62834 0.96106 0.97272 0.0
C485 C 0.62165 0.97838 0.96008 0.0
N486 N 0.60475 0.96571 0.03208 0.0
N487 N 0.61809 0.95415 0.01771 0.0
C488 C 0.59368 0.99675 0.9991 0.0
H489 H 0.58089 0.99309 0.02377 0.0
H490 H 0.59042 1.00112 0.95236 0.0
H491 H 0.60028 0.00858 0.02201 0.0
C492 C 0.5382 0.93523 0.01649 0.0
N493 N 0.55129 0.93984 0.0573 0.0
N494 N 0.56422 0.94946 0.03022 0.0
C495 C 0.55971 0.95101 0.97092 0.0
C496 C 0.54291 0.94229 0.96024 0.0
C497 C 0.52208 0.92307 0.02945 0.0
H498 H 0.52592 0.91236 0.06269 0.0
H499 H 0.51072 0.93148 0.04817 0.0
H500 H 0.51705 0.91636 0.98767 0.0
O501 O 0.57602 0.91732 0.1544 0.0
O502 O 0.59718 0.9366 0.1226 0.0
H503 H 0.58581 0.95646 0.93106 0.0
H504 H 0.56696 0.95693 0.87821 0.0
C505 C 0.57127 0.96045 0.9247 0.0
H506 H 0.56991 0.97549 0.93041 0.0
H507 H 0.61938 0.94089 0.0351 0.0
O508 O 0.53441 0.9206 0.17391 0.0
C509 C 0.59282 0.92149 0.1473 0.0
Co510 Co 0.82364 0.80323 0.89465 0.0
Co511 Co 0.80585 0.83441 0.82522 0.0
C512 C 0.78781 0.82075 0.93738 0.0
O513 O 0.80137 0.80988 0.94529 0.0
O514 O 0.78692 0.83088 0.89049 0.0
C515 C 0.82674 0.76716 0.94467 0.0
O516 O 0.80978 0.76434 0.92651 0.0
C517 C 0.78312 0.86241 0.76454 0.0
C518 C 0.80044 0.8677 0.68454 0.0
C519 C 0.78355 0.87205 0.7101 0.0
N520 N 0.79858 0.8524 0.76868 0.0
N521 N 0.80913 0.85612 0.72183 0.0
C522 C 0.76931 0.86368 0.81449 0.0
H523 H 0.77627 0.86217 0.85862 0.0
H524 H 0.75911 0.85242 0.80995 0.0
H525 H 0.76222 0.87718 0.81398 0.0
C526 C 0.81997 0.78344 0.77562 0.0
N527 N 0.8179 0.79818 0.81223 0.0
N528 N 0.80984 0.81149 0.78214 0.0
C529 C 0.80602 0.80535 0.72576 0.0
C530 C 0.81237 0.78735 0.71948 0.0
C531 C 0.8302 0.76635 0.79231 0.0
H532 H 0.82053 0.75645 0.8134 0.0
H533 H 0.83626 0.75975 0.75178 0.0
H534 H 0.84132 0.76958 0.82471 0.0
O535 O 0.843 0.82207 0.90239 0.0
O536 O 0.82889 0.84552 0.85994 0.0
H537 H 0.80501 0.8246 0.65319 0.0
H538 H 0.78823 0.80654 0.64812 0.0
C539 C 0.79538 0.81595 0.67971 0.0
H540 H 0.78512 0.82494 0.70201 0.0
H541 H 0.82197 0.85013 0.71419 0.0
O542 O 0.83471 0.78218 0.93276 0.0
C543 C 0.84264 0.83891 0.88791 0.0
Co544 Co 0.57801 0.55506 0.64359 0.0
Co545 Co 0.55835 0.58891 0.59875 0.0
C546 C 0.54321 0.57122 0.70689 0.0
O547 O 0.55661 0.56002 0.70094 0.0
O548 O 0.54097 0.58398 0.66819 0.0
C549 C 0.56877 0.51899 0.644 0.0
O550 O 0.5544 0.52648 0.61783 0.0
C551 C 0.53487 0.61567 0.53756 0.0
C552 C 0.55552 0.63553 0.50434 0.0
C553 C 0.53692 0.63145 0.50311 0.0
N554 N 0.55145 0.61067 0.55801 0.0
N555 N 0.56367 0.62288 0.53948 0.0
C556 C 0.51788 0.60424 0.54443 0.0
H557 H 0.52106 0.59098 0.56677 0.0
H558 H 0.51158 0.60168 0.49966 0.0
H559 H 0.50769 0.61188 0.57203 0.0
C560 C 0.57599 0.54382 0.51814 0.0
N561 N 0.5726 0.55643 0.56092 0.0
N562 N 0.56076 0.56859 0.54136 0.0
C563 C 0.55512 0.56306 0.48558 0.0
C564 C 0.56442 0.54678 0.46956 0.0
C565 C 0.59116 0.52988 0.52191 0.0
H566 H 0.60155 0.53415 0.55572 0.0
H567 H 0.58561 0.51627 0.53494 0.0
H568 H 0.59786 0.52831 0.47719 0.0
O569 O 0.59891 0.57122 0.66261 0.0
O570 O 0.5833 0.59576 0.63311 0.0
H571 H 0.54349 0.58743 0.44752 0.0
H572 H 0.53919 0.56677 0.40411 0.0
C573 C 0.54044 0.57252 0.45017 0.0
H574 H 0.5271 0.5708 0.47386 0.0
H575 H 0.57776 0.622 0.5479 0.0
O576 O 0.58245 0.52912 0.6577 0.0
C577 C 0.59782 0.58853 0.65526 0.0
Co578 Co 0.69833 0.32854 0.87968 0.0
Co579 Co 0.66695 0.30958 0.81829 0.0
C580 C 0.68135 0.29139 0.92446 0.0
O581 O 0.69145 0.30567 0.92913 0.0
O582 O 0.67073 0.2896 0.87912 0.0
C583 C 0.73133 0.3183 0.9118 0.0
O584 O 0.72788 0.30567 0.87108 0.0
C585 C 0.64112 0.29048 0.73803 0.0
C586 C 0.62475 0.31399 0.70568 0.0
C587 C 0.6277 0.29541 0.69651 0.0
N588 N 0.64621 0.30548 0.76857 0.0
N589 N 0.63578 0.31934 0.75087 0.0
C590 C 0.65078 0.27236 0.74212 0.0
H591 H 0.66237 0.27301 0.77451 0.0
H592 H 0.65589 0.26812 0.69707 0.0
H593 H 0.64082 0.26174 0.75721 0.0
C594 C 0.71548 0.32737 0.76 0.0
N595 N 0.7009 0.32441 0.79619 0.0
N596 N 0.68897 0.31374 0.7693 0.0
C597 C 0.69629 0.30859 0.71533 0.0
C598 C 0.71364 0.31696 0.7078 0.0
C599 C 0.73058 0.34068 0.77453 0.0
H600 H 0.72533 0.35167 0.80462 0.0
H601 H 0.74192 0.33348 0.79805 0.0
H602 H 0.73619 0.34692 0.73267 0.0
O603 O 0.68148 0.3489 0.8981 0.0
O604 O 0.65855 0.33232 0.86258 0.0
H605 H 0.67363 0.29858 0.66384 0.0
H606 H 0.69585 0.29193 0.63402 0.0
C607 C 0.68782 0.29435 0.67565 0.0
H608 H 0.68703 0.28124 0.70097 0.0
H609 H 0.63724 0.33282 0.7661 0.0
O610 O 0.72256 0.33338 0.90968 0.0
C611 C 0.66439 0.34665 0.88945 0.0
Co612 Co 0.92729 0.45032 0.12407 0.0
Co613 Co 0.95127 0.41962 0.0794 0.0
C614 C 0.96408 0.43791 0.18694 0.0
O615 O 0.94901 0.44693 0.18259 0.0
O616 O 0.96841 0.42637 0.14615 0.0
C617 C 0.93163 0.4869 0.13647 0.0
O618 O 0.94701 0.48226 0.10921 0.0
C619 C 0.9756 0.39318 0.01893 0.0
C620 C 0.95534 0.3725 0.98894 0.0
C621 C 0.97384 0.37691 0.98679 0.0
N622 N 0.95895 0.39814 0.03884 0.0
N623 N 0.94698 0.38543 0.0223 0.0
C624 C 0.9924 0.40495 0.02437 0.0
H625 H 0.98923 0.41791 0.04851 0.0
H626 H 0.99796 0.40811 0.97888 0.0
H627 H 1.00317 0.39732 0.04942 0.0
C628 C 0.93085 0.46401 1.00035 0.0
N629 N 0.93389 0.45078 0.04158 0.0
N630 N 0.94705 0.43985 0.02312 0.0
C631 C 0.95374 0.44673 0.97028 0.0
C632 C 0.94382 0.46265 0.95458 0.0
C633 C 0.91505 0.47723 1.00309 0.0
H634 H 0.90403 0.47183 0.03292 0.0
H635 H 0.91966 0.4907 0.02065 0.0
H636 H 0.90945 0.47956 0.95717 0.0
O637 O 0.90807 0.43196 0.14154 0.0
O638 O 0.92785 0.41022 0.1175 0.0
H639 H 0.96848 0.42425 0.93146 0.0
H640 H 0.97283 0.44617 0.89521 0.0
C641 C 0.9703 0.43922 0.93889 0.0
H642 H 0.98249 0.44115 0.96818 0.0
H643 H 0.93288 0.38606 0.03107 0.0
O644 O 0.91906 0.47491 0.14269 0.0
C645 C 0.91222 0.41506 0.13818 0.0
Co646 Co 0.79673 0.67119 0.4094 0.0
Co647 Co 0.82641 0.69531 0.35149 0.0
C648 C 0.80793 0.7087 0.46271 0.0
O649 O 0.79899 0.69354 0.46413 0.0
O650 O 0.81891 0.71218 0.41915 0.0
C651 C 0.77611 0.63906 0.43983 0.0
O652 O 0.79034 0.6301 0.4183 0.0
C653 C 0.84663 0.72188 0.27734 0.0
C654 C 0.87012 0.70486 0.24818 0.0
C655 C 0.86186 0.72177 0.2396 0.0
N656 N 0.84578 0.7057 0.30589 0.0
N657 N 0.86028 0.69585 0.29005 0.0
C658 C 0.83175 0.73609 0.27988 0.0
H659 H 0.81932 0.73054 0.30261 0.0
H660 H 0.82824 0.74099 0.23392 0.0
H661 H 0.83685 0.7481 0.30572 0.0
C662 C 0.77948 0.67415 0.28715 0.0
N663 N 0.79308 0.67793 0.3268 0.0
N664 N 0.80565 0.68818 0.30038 0.0
C665 C 0.80031 0.69108 0.24237 0.0
C666 C 0.78345 0.68242 0.23199 0.0
C667 C 0.76274 0.66312 0.3025 0.0
H668 H 0.75668 0.66828 0.34516 0.0
H669 H 0.75225 0.66383 0.26631 0.0
H670 H 0.7668 0.64859 0.30965 0.0
O671 O 0.81848 0.65485 0.42146 0.0
O672 O 0.83941 0.67391 0.38688 0.0
H673 H 0.80805 0.69603 0.14983 0.0
H674 H 0.80886 0.71571 0.1985 0.0
C675 C 0.81162 0.70076 0.19593 0.0
H676 H 0.82638 0.69821 0.20432 0.0
H677 H 0.86274 0.68241 0.30422 0.0
O678 O 0.77582 0.65652 0.43808 0.0
C679 C 0.8352 0.65877 0.41152 0.0
Co680 Co 0.58031 0.46194 0.01082 0.0
Co681 Co 0.5645 0.43053 0.08131 0.0
C682 C 0.54481 0.44047 0.97237 0.0
O683 O 0.55811 0.45172 0.96479 0.0
O684 O 0.54396 0.43084 0.02051 0.0
C685 C 0.56778 0.49191 0.96257 0.0
O686 O 0.55466 0.48948 1.00261 0.0
C687 C 0.54946 0.40267 0.16508 0.0
C688 C 0.57546 0.39187 0.20285 0.0
C689 C 0.55655 0.39039 0.20732 0.0
N690 N 0.56358 0.41101 0.13757 0.0
N691 N 0.57906 0.40415 0.15922 0.0
C692 C 0.52975 0.40784 0.15517 0.0
H693 H 0.52867 0.41981 0.12439 0.0
H694 H 0.52304 0.41114 0.19883 0.0
H695 H 0.52233 0.39607 0.13479 0.0
C696 C 0.57735 0.48182 0.12587 0.0
N697 N 0.5757 0.46636 0.09305 0.0
N698 N 0.56677 0.45386 0.12377 0.0
C699 C 0.56156 0.46144 0.17715 0.0
C700 C 0.56794 0.47971 0.18036 0.0
C701 C 0.58895 0.49778 0.10633 0.0
H702 H 0.60028 0.49297 0.07672 0.0
H703 H 0.58043 0.50762 0.08031 0.0
H704 H 0.59491 0.50498 0.14584 0.0
O705 O 0.60204 0.4464 0.99614 0.0
O706 O 0.58737 0.42298 0.03661 0.0
H707 H 0.55844 0.445 0.2562 0.0
H708 H 0.54036 0.46167 0.24522 0.0
C709 C 0.54963 0.45182 0.22206 0.0
H710 H 0.54127 0.4412 0.19942 0.0
H711 H 0.59215 0.40851 0.14624 0.0
O712 O 0.58363 0.48548 0.97372 0.0
C713 C 0.60108 0.42936 1.00773 0.0
Co714 Co 0.79976 0.325 0.25112 0.0
Co715 Co 0.83153 0.30958 0.32088 0.0
C716 C 0.82023 0.28943 0.2125 0.0
O717 O 0.80896 0.30265 0.20495 0.0
O718 O 0.83023 0.28897 0.25975 0.0
C719 C 0.76603 0.31223 0.23051 0.0
O720 O 0.7737 0.2986 0.26007 0.0
C721 C 0.86185 0.29264 0.38895 0.0
C722 C 0.86404 0.31239 0.46389 0.0
C723 C 0.87063 0.29547 0.44442 0.0
N724 N 0.8502 0.3066 0.37918 0.0
N725 N 0.85208 0.31869 0.42292 0.0
C726 C 0.86499 0.27782 0.34336 0.0
H727 H 0.86209 0.28308 0.29747 0.0
H728 H 0.85557 0.26613 0.35245 0.0
H729 H 0.8795 0.27312 0.34424 0.0
C730 C 0.78149 0.32481 0.3692 0.0
N731 N 0.79641 0.3218 0.3346 0.0
N732 N 0.80859 0.31231 0.36454 0.0
C733 C 0.80121 0.30786 0.41902 0.0
C734 C 0.78343 0.31544 0.42364 0.0
C735 C 0.76658 0.33812 0.35256 0.0
H736 H 0.77188 0.34841 0.31992 0.0
H737 H 0.75493 0.33078 0.33128 0.0
H738 H 0.76133 0.34527 0.3933 0.0
O739 O 0.81554 0.3463 0.23347 0.0
O740 O 0.83928 0.33302 0.27825 0.0
H741 H 0.81713 0.30468 0.499 0.0
H742 H 0.80056 0.2867 0.48674 0.0
C743 C 0.81064 0.29588 0.46417 0.0
H744 H 0.82153 0.28757 0.44209 0.0
H745 H 0.8444 0.33076 0.42644 0.0
O746 O 0.77511 0.32692 0.22104 0.0
C747 C 0.8325 0.34624 0.24758 0.0
Co748 Co 0.92549 0.54535 0.50601 0.0
Co749 Co 0.94612 0.57779 0.55516 0.0
C750 C 0.95973 0.56261 0.44171 0.0
O751 O 0.9458 0.55196 0.44566 0.0
O752 O 0.96313 0.57387 0.4843 0.0
C753 C 0.9332 0.51212 0.46949 0.0
O754 O 0.9476 0.51461 0.50432 0.0
C755 C 0.96948 0.6048 0.61662 0.0
C756 C 0.94842 0.62394 0.65165 0.0
C757 C 0.96716 0.62067 0.65046 0.0
N758 N 0.95289 0.59902 0.59867 0.0
N759 N 0.9404 0.61077 0.61847 0.0
C760 C 0.98686 0.59417 0.60716 0.0
H761 H 0.98399 0.58088 0.58455 0.0
H762 H 0.99371 0.59166 0.65109 0.0
H763 H 0.99642 0.60234 0.57875 0.0
C764 C 0.93205 0.52947 0.62529 0.0
N765 N 0.93342 0.5436 0.58645 0.0
N766 N 0.94447 0.55621 0.60804 0.0
C767 C 0.95133 0.54981 0.66126 0.0
C768 C 0.94384 0.53233 0.67349 0.0
C769 C 0.91875 0.51388 0.618 0.0
H770 H 0.9066 0.5184 0.59168 0.0
H771 H 0.92548 0.50237 0.59384 0.0
H772 H 0.91414 0.50874 0.66269 0.0
O773 O 0.90447 0.56194 0.49697 0.0
O774 O 0.92123 0.58585 0.52356 0.0
H775 H 0.96199 0.57425 0.70184 0.0
H776 H 0.96771 0.55327 0.74191 0.0
C777 C 0.96576 0.55956 0.69687 0.0
H778 H 0.97898 0.55886 0.67195 0.0
H779 H 0.92627 0.60939 0.61155 0.0
O780 O 0.91862 0.52094 0.48154 0.0
C781 C 0.90615 0.57915 0.50424 0.0
Co782 Co 0.70818 0.67987 0.75358 0.0
Co783 Co 0.67807 0.70357 0.8105 0.0
C784 C 0.69738 0.71763 0.70117 0.0
O785 O 0.70645 0.70254 0.6997 0.0
O786 O 0.68599 0.72075 0.74389 0.0
C787 C 0.72859 0.64736 0.73494 0.0
O788 O 0.71529 0.63986 0.76658 0.0
C789 C 0.65732 0.72972 0.88489 0.0
C790 C 0.63395 0.71229 0.91263 0.0
C791 C 0.64204 0.72921 0.9225 0.0
N792 N 0.65839 0.71371 0.85549 0.0
N793 N 0.64395 0.70364 0.87042 0.0
C794 C 0.67204 0.7441 0.88333 0.0
H795 H 0.68463 0.73875 0.86105 0.0
H796 H 0.6753 0.74896 0.92951 0.0
H797 H 0.66693 0.7561 0.85742 0.0
C798 C 0.72518 0.68307 0.87667 0.0
N799 N 0.71148 0.68626 0.83666 0.0
N800 N 0.69854 0.69613 0.86258 0.0
C801 C 0.7036 0.69918 0.92068 0.0
C802 C 0.72074 0.69115 0.93175 0.0
C803 C 0.74279 0.67354 0.86104 0.0
H804 H 0.74032 0.6585 0.85966 0.0
H805 H 0.74754 0.67799 0.8158 0.0
H806 H 0.7537 0.67646 0.89459 0.0
O807 O 0.68639 0.66352 0.73959 0.0
O808 O 0.66527 0.68241 0.77362 0.0
H809 H 0.67725 0.70598 0.95704 0.0
H810 H 0.69525 0.70392 0.01266 0.0
C811 C 0.69193 0.70871 0.9664 0.0
H812 H 0.69456 0.72369 0.96422 0.0
H813 H 0.64165 0.69025 0.85551 0.0
O814 O 0.72872 0.66463 0.72612 0.0
C815 C 0.66961 0.66737 0.74876 0.0
Co816 Co 0.46299 0.42508 0.50354 0.0
Co817 Co 0.43315 0.44675 0.56726 0.0
C818 C 0.44903 0.46184 0.45401 0.0
O819 O 0.45821 0.44694 0.44862 0.0
O820 O 0.43903 0.46463 0.50044 0.0
C821 C 0.4777 0.40116 0.42261 0.0
O822 O 0.46073 0.4029 0.40316 0.0
C823 C 0.41269 0.47328 0.63951 0.0
C824 C 0.39104 0.4555 0.67827 0.0
C825 C 0.39803 0.47316 0.6797 0.0
N826 N 0.41451 0.45638 0.61679 0.0
N827 N 0.4012 0.44592 0.63864 0.0
C828 C 0.42508 0.489 0.62354 0.0
H829 H 0.42339 0.49219 0.57493 0.0
H830 H 0.43964 0.48497 0.63011 0.0
H831 H 0.42184 0.50149 0.65013 0.0
C832 C 0.48325 0.43035 0.61987 0.0
N833 N 0.4683 0.43225 0.58431 0.0
N834 N 0.45516 0.44065 0.61441 0.0
C835 C 0.46142 0.44405 0.67111 0.0
C836 C 0.47954 0.43775 0.67656 0.0
C837 C 0.50074 0.42146 0.59955 0.0
H838 H 0.49759 0.40801 0.5784 0.0
H839 H 0.50734 0.43023 0.56474 0.0
H840 H 0.51042 0.41936 0.63757 0.0
O841 O 0.4425 0.40722 0.50274 0.0
O842 O 0.41999 0.42499 0.53311 0.0
H843 H 0.43591 0.45122 0.71401 0.0
H844 H 0.45545 0.45027 0.76421 0.0
C845 C 0.4508 0.45415 0.71836 0.0
H846 H 0.45313 0.4691 0.71268 0.0
H847 H 0.39961 0.43201 0.62896 0.0
O848 O 0.48293 0.41069 0.4675 0.0
C849 C 0.42555 0.40981 0.51192 0.0
Co850 Co 0.32553 0.70745 0.24999 0.0
Co851 Co 0.30767 0.67746 0.32367 0.0
C852 C 0.29034 0.6877 0.20773 0.0
O853 O 0.30402 0.69836 0.19869 0.0
O854 O 0.2888 0.67898 0.25744 0.0
C855 C 0.32915 0.73486 0.16437 0.0
O856 O 0.31185 0.73081 0.15391 0.0
C857 C 0.28781 0.64741 0.38392 0.0
C858 C 0.30417 0.64525 0.46747 0.0
C859 C 0.28905 0.63782 0.43813 0.0
N860 N 0.30119 0.66013 0.38288 0.0
N861 N 0.31122 0.6584 0.43205 0.0
C862 C 0.27565 0.64346 0.33113 0.0
H863 H 0.28335 0.64568 0.28856 0.0
H864 H 0.26376 0.65303 0.33167 0.0
H865 H 0.27065 0.62905 0.33205 0.0
C866 C 0.31985 0.72986 0.36235 0.0
N867 N 0.31859 0.71419 0.32978 0.0
N868 N 0.31078 0.70133 0.36253 0.0
C869 C 0.30646 0.70864 0.41706 0.0
C870 C 0.31217 0.72702 0.41933 0.0
C871 C 0.32917 0.74689 0.33999 0.0
H872 H 0.32013 0.75377 0.3066 0.0
H873 H 0.33222 0.75658 0.37723 0.0
H874 H 0.34217 0.74317 0.31678 0.0
O875 O 0.34559 0.68915 0.24866 0.0
O876 O 0.33094 0.66606 0.29108 0.0
H877 H 0.30576 0.69145 0.49512 0.0
H878 H 0.28791 0.70851 0.49297 0.0
C879 C 0.29596 0.6987 0.46513 0.0
H880 H 0.28652 0.68848 0.44475 0.0
H881 H 0.3228 0.66635 0.44159 0.0
O882 O 0.33711 0.72807 0.2097 0.0
C883 C 0.34504 0.67241 0.26431 0.0
Co884 Co 0.04782 0.58159 0.98886 0.0
Co885 Co 0.07706 0.55836 0.05065 0.0
C886 C 0.06042 0.54496 0.9359 0.0
O887 O 0.05141 0.56 0.93209 0.0
O888 O 0.07054 0.54169 0.98159 0.0
C889 C 0.0319 0.60816 0.91603 0.0
O890 O 0.0491 0.60937 0.89827 0.0
C891 C 0.09384 0.52943 0.12172 0.0
C892 C 0.11466 0.54525 0.17231 0.0
C893 C 0.10638 0.52814 0.16869 0.0
N894 N 0.09417 0.54669 0.10092 0.0
N895 N 0.10708 0.55592 0.12973 0.0
C896 C 0.0816 0.51475 0.09659 0.0
H897 H 0.06705 0.51786 0.10768 0.0
H898 H 0.08538 0.50096 0.11399 0.0
H899 H 0.08281 0.51462 0.04677 0.0
C900 C 0.02801 0.57685 0.10703 0.0
N901 N 0.04244 0.5741 0.06949 0.0
N902 N 0.05545 0.56514 0.09823 0.0
C903 C 0.04976 0.56232 0.15588 0.0
C904 C 0.03203 0.56943 0.16349 0.0
C905 C 0.0111 0.58727 0.08964 0.0
H906 H 0.01503 0.60148 0.07666 0.0
H907 H 0.00478 0.58072 0.04954 0.0
H908 H 1.00095 0.58779 0.12699 0.0
O909 O 0.06968 0.59812 0.98637 0.0
O910 O 0.09147 0.57972 0.01912 0.0
H911 H 0.07519 0.55819 0.20261 0.0
H912 H 0.05495 0.55448 0.24863 0.0
C913 C 0.06094 0.55278 0.20298 0.0
H914 H 0.06141 0.53793 0.19253 0.0
H915 H 0.10982 0.56986 0.12317 0.0
O916 O 0.02764 0.59657 0.95665 0.0
C917 C 0.08653 0.59496 0.99653 0.0
Co918 Co 0.18267 0.30558 0.74134 0.0
Co919 Co 0.20268 0.33427 0.81679 0.0
C920 C 0.21944 0.3213 0.70064 0.0
O921 O 0.20583 0.31047 0.69251 0.0
O922 O 0.22035 0.33132 0.74778 0.0
C923 C 0.16257 0.29202 0.65063 0.0
O924 O 0.16692 0.30862 0.63214 0.0
C925 C 0.22746 0.35911 0.88336 0.0
C926 C 0.20924 0.36593 0.95999 0.0
C927 C 0.22685 0.36873 0.93764 0.0
N928 N 0.21123 0.35063 0.87595 0.0
N929 N 0.20024 0.35522 0.92086 0.0
C930 C 0.24231 0.35912 0.83655 0.0
H931 H 0.23614 0.35899 0.79095 0.0
H932 H 0.25083 0.34655 0.84159 0.0
H933 H 0.25111 0.37152 0.84038 0.0
C934 C 0.18469 0.28368 0.85678 0.0
N935 N 0.18802 0.29878 0.82273 0.0
N936 N 0.19673 0.31105 0.85539 0.0
C937 C 0.19934 0.30402 0.91136 0.0
C938 C 0.19172 0.28644 0.91461 0.0
C939 C 0.17415 0.26737 0.83482 0.0
H940 H 0.16111 0.27202 0.81384 0.0
H941 H 0.1823 0.26029 0.79941 0.0
H942 H 0.17109 0.25758 0.87187 0.0
O943 O 0.16538 0.32705 0.73652 0.0
O944 O 0.18108 0.34788 0.78628 0.0
H945 H 0.20007 0.32285 0.98505 0.0
H946 H 0.21515 0.30346 0.99364 0.0
C947 C 0.2096 0.31353 0.96076 0.0
H948 H 0.22109 0.32172 0.94178 0.0
H949 H 0.18675 0.35054 0.92561 0.0
O950 O 0.16901 0.28626 0.70035 0.0
C951 C 0.16717 0.34341 0.75523 0.0
Co952 Co 0.45805 0.58545 0.17259 0.0
Co953 Co 0.43126 0.56021 0.1065 0.0
C954 C 0.44844 0.54718 0.22099 0.0
O955 O 0.45636 0.56279 0.22636 0.0
O956 O 0.43864 0.54364 0.17483 0.0
C957 C 0.47438 0.61673 0.22948 0.0
O958 O 0.45747 0.62302 0.2315 0.0
C959 C 0.41787 0.53069 0.03092 0.0
C960 C 0.39496 0.54452 0.98371 0.0
C961 C 0.40536 0.52858 0.98425 0.0
N962 N 0.41544 0.5474 0.05473 0.0
N963 N 0.40135 0.5554 0.02783 0.0
C964 C 0.43199 0.5173 0.05303 0.0
H965 H 0.44597 0.52242 0.04224 0.0
H966 H 0.42994 0.50345 0.03324 0.0
H967 H 0.43103 0.51618 0.10278 0.0
C968 C 0.47798 0.58442 0.05342 0.0
N969 N 0.46394 0.57958 0.0904 0.0
N970 N 0.4524 0.56903 0.06076 0.0
C971 C 0.45882 0.56695 1.00354 0.0
C972 C 0.47538 0.57643 0.99696 0.0
C973 C 0.49364 0.59643 0.07222 0.0
H974 H 0.48825 0.61014 0.08518 0.0
H975 H 0.50036 0.59041 0.11254 0.0
H976 H 0.50394 0.59802 0.03559 0.0
O977 O 0.43469 0.59981 0.17928 0.0
O978 O 0.4152 0.58036 0.1381 0.0
H979 H 0.43394 0.55946 0.95777 0.0
H980 H 0.45381 0.56155 0.90925 0.0
C981 C 0.44893 0.55703 0.95433 0.0
H982 H 0.45168 0.54213 0.95864 0.0
H983 H 0.39692 0.56872 0.03682 0.0
O984 O 0.47763 0.60119 0.2056 0.0
C985 C 0.41835 0.59544 0.16505 0.0
Co986 Co 0.18762 0.69142 0.86741 0.0
Co987 Co 0.20808 0.66041 0.80807 0.0
C988 C 0.22471 0.67724 0.91602 0.0
O989 O 0.21007 0.68685 0.92028 0.0
O990 O 0.22704 0.66643 0.87132 0.0
C991 C 0.18809 0.72721 0.9051 0.0
O992 O 0.2053 0.72578 0.88745 0.0
C993 C 0.23146 0.63481 0.73896 0.0
C994 C 0.21062 0.61458 0.70981 0.0
C995 C 0.22914 0.61876 0.70604 0.0
N996 N 0.2151 0.63977 0.7615 0.0
N997 N 0.20278 0.62739 0.74501 0.0
C998 C 0.24844 0.64636 0.74307 0.0
H999 H 0.24546 0.65962 0.76573 0.0
H1000 H 0.25404 0.64896 0.69725 0.0
H1001 H 0.25908 0.63882 0.76901 0.0
C1002 C 0.19097 0.70895 0.74561 0.0
N1003 N 0.19326 0.69468 0.78396 0.0
N1004 N 0.20286 0.68173 0.75719 0.0
C1005 C 0.20739 0.68776 0.70097 0.0
C1006 C 0.20001 0.70533 0.69183 0.0
C1007 C 0.1804 0.72608 0.75955 0.0
H1008 H 0.16881 0.72301 0.79043 0.0
H1009 H 0.18971 0.73624 0.78084 0.0
H1010 H 0.17492 0.73233 0.71757 0.0
O1011 O 0.16861 0.67267 0.88256 0.0
O1012 O 0.18571 0.64992 0.84941 0.0
H1013 H 0.21597 0.66276 0.65845 0.0
H1014 H 0.21843 0.68317 0.61193 0.0
C1015 C 0.21959 0.67756 0.65833 0.0
H1016 H 0.23406 0.67894 0.67349 0.0
H1017 H 0.18882 0.62805 0.75579 0.0
O1018 O 0.1773 0.71379 0.89731 0.0
C1019 C 0.1711 0.65561 0.87484 0.0
Co1020 Co 0.04908 0.42551 0.64165 0.0
Co1021 Co 0.08013 0.44733 0.58447 0.0
C1022 C 0.06234 0.46162 0.6962 0.0
O1023 O 0.05295 0.44682 0.69902 0.0
O1024 O 0.0731 0.4646 0.65176 0.0
C1025 C 0.03293 0.40275 0.71987 0.0
O1026 O 0.04935 0.40566 0.74256 0.0
C1027 C 0.10018 0.47481 0.51492 0.0
C1028 C 0.12438 0.45892 0.48491 0.0
C1029 C 0.11569 0.47571 0.4784 0.0
N1030 N 0.09946 0.45811 0.53994 0.0
N1031 N 0.1143 0.44887 0.5236 0.0
C1032 C 0.08565 0.48916 0.52366 0.0
H1033 H 0.08435 0.49223 0.57247 0.0
H1034 H 0.07215 0.48378 0.50859 0.0
H1035 H 0.08901 0.50202 0.49907 0.0
C1036 C 0.03107 0.43055 0.522 0.0
N1037 N 0.04514 0.43316 0.56082 0.0
N1038 N 0.05891 0.44128 0.53295 0.0
C1039 C 0.05403 0.44357 0.47424 0.0
C1040 C 0.03608 0.43714 0.46537 0.0
C1041 C 0.01372 0.42067 0.53833 0.0
H1042 H 0.01715 0.40652 0.55323 0.0
H1043 H 0.00706 0.42775 0.5769 0.0
H1044 H 1.00401 0.41996 0.49989 0.0
O1045 O 0.06964 0.4075 0.64528 0.0
O1046 O 0.09274 0.42524 0.61891 0.0
H1047 H 0.08073 0.45098 0.44011 0.0
H1048 H 0.06421 0.44486 0.38306 0.0
C1049 C 0.06609 0.45186 0.42695 0.0
H1050 H 0.06207 0.46643 0.42071 0.0
H1051 H 0.11702 0.43532 0.53599 0.0
O1052 O 0.02828 0.41127 0.6723 0.0
C1053 C 0.08675 0.41001 0.63866 0.0
Co1054 Co 0.32995 0.30808 0.37759 0.0
Co1055 Co 0.30852 0.33993 0.32229 0.0
C1056 C 0.29244 0.31954 0.42684 0.0
O1057 O 0.30663 0.30916 0.42743 0.0
O1058 O 0.29075 0.33235 0.38774 0.0
C1059 C 0.33898 0.27202 0.42053 0.0
O1060 O 0.32179 0.26755 0.40965 0.0
C1061 C 0.28385 0.36474 0.25421 0.0
C1062 C 0.30364 0.38652 0.22944 0.0
C1063 C 0.28554 0.38114 0.22277 0.0
N1064 N 0.3002 0.36069 0.27864 0.0
N1065 N 0.31183 0.37404 0.26491 0.0
C1066 C 0.26756 0.3522 0.25521 0.0
H1067 H 0.25607 0.35907 0.2793 0.0
H1068 H 0.27094 0.33908 0.27819 0.0
H1069 H 0.26286 0.34946 0.20848 0.0
C1070 C 0.32711 0.29253 0.25269 0.0
N1071 N 0.32452 0.30605 0.29364 0.0
N1072 N 0.31521 0.31956 0.26868 0.0
C1073 C 0.31175 0.31499 0.21035 0.0
C1074 C 0.319 0.29752 0.19831 0.0
C1075 C 0.33735 0.27511 0.26507 0.0
H1076 H 0.32811 0.26536 0.28875 0.0
H1077 H 0.34215 0.26861 0.22262 0.0
H1078 H 0.34938 0.27795 0.29427 0.0
O1079 O 0.34672 0.32879 0.3977 0.0
O1080 O 0.32979 0.35131 0.36287 0.0
H1081 H 0.30246 0.32213 0.12068 0.0
H1082 H 0.28588 0.32508 0.18005 0.0
C1083 C 0.30063 0.32651 0.16816 0.0
H1084 H 0.30454 0.34116 0.17281 0.0
H1085 H 0.32568 0.3742 0.27706 0.0
O1086 O 0.34477 0.28778 0.40605 0.0
C1087 C 0.34403 0.34582 0.39008 0.0
H1088 H 0.07025 0.96039 0.77462 0.0
H1089 H 0.06597 0.00591 0.65091 0.0
H1090 H 0.0667 0.0275 0.73494 0.0
H1091 H 0.07016 0.03371 0.84427 0.0
H1092 H 0.06725 0.98818 0.96846 0.0
H1093 H 0.06761 0.96659 0.88445 0.0
C1094 C 0.06895 0.97498 0.76583 0.0
C1095 C 0.06856 0.98135 0.70562 0.0
C1096 C 0.06834 0.98746 0.81498 0.0
C1097 C 0.067 1.00046 0.6962 0.0
C1098 C 0.06726 0.0129 0.74449 0.0
C1099 C 0.06915 0.01911 0.85325 0.0
C1100 C 0.06933 0.01277 0.91351 0.0
C1101 C 0.06821 0.00661 0.80423 0.0
C1102 C 0.06803 0.99365 0.92312 0.0
C1103 C 0.068 0.98119 0.87482 0.0
H1104 H 0.21667 0.8253 0.08977 0.0
H1105 H 0.26054 0.81318 0.21438 0.0
H1106 H 0.28293 0.8157 0.13309 0.0
H1107 H 0.29052 0.82165 0.02564 0.0
H1108 H 0.24617 0.82915 0.8992 0.0
H1109 H 0.22387 0.82787 0.98119 0.0
C1110 C 0.231 0.82284 0.09962 0.0
C1111 C 0.2366 0.81941 0.15977 0.0
C1112 C 0.24398 0.82357 0.0516 0.0
C1113 C 0.25556 0.81655 0.16978 0.0
C1114 C 0.26851 0.81776 0.12281 0.0
C1115 C 0.27598 0.82277 0.01567 0.0
C1116 C 0.27032 0.82603 0.95555 0.0
C1117 C 0.26295 0.82135 0.06338 0.0
C1118 C 0.25125 0.82741 0.94464 0.0
C1119 C 0.23835 0.82646 0.99178 0.0
H1120 H 0.47081 0.98878 0.37374 0.0
H1121 H 0.41425 0.97124 0.37705 0.0
H1122 H 0.40658 0.99383 0.29932 0.0
H1123 H 0.41528 0.02088 0.23883 0.0
H1124 H 0.47253 0.03536 0.22153 0.0
H1125 H 0.48043 0.01269 0.29888 0.0
C1126 C 0.45696 0.9895 0.35586 0.0
C1127 C 0.44312 0.97821 0.3811 0.0
C1128 C 0.45264 1.00252 0.31029 0.0
C1129 C 0.42518 0.97956 0.35798 0.0
C1130 C 0.42074 0.99269 0.31409 0.0
C1131 C 0.42962 0.01854 0.24919 0.0
C1132 C 0.44325 0.02979 0.22261 0.0
C1133 C 0.43426 0.00455 0.29086 0.0
C1134 C 0.4616 0.02723 0.24127 0.0
C1135 C 0.46619 0.01402 0.28511 0.0
H1136 H 0.24082 0.19757 0.69736 0.0
H1137 H 0.2914 0.18974 0.59869 0.0
H1138 H 0.27453 0.19052 0.50387 0.0
H1139 H 0.24538 0.19323 0.44796 0.0
H1140 H 0.19424 0.19485 0.54655 0.0
H1141 H 0.21121 0.19689 0.64142 0.0
C1142 C 0.24819 0.19578 0.65531 0.0
C1143 C 0.26761 0.19411 0.65595 0.0
C1144 C 0.23821 0.19524 0.60038 0.0
C1145 C 0.27667 0.19184 0.60027 0.0
C1146 C 0.26695 0.19205 0.54569 0.0
C1147 C 0.23784 0.19367 0.49011 0.0
C1148 C 0.21838 0.19399 0.48917 0.0
C1149 C 0.24771 0.19375 0.54506 0.0
C1150 C 0.20911 0.19505 0.54491 0.0
C1151 C 0.21886 0.19598 0.59958 0.0
H1152 H 0.88439 0.04451 0.34179 0.0
H1153 H 0.88132 1.00009 0.47025 0.0
H1154 H 0.87896 0.97787 0.38779 0.0
H1155 H 0.88235 0.97116 0.28049 0.0
H1156 H 0.88746 0.01549 0.1523 0.0
H1157 H 0.88425 0.03793 0.23372 0.0
C1158 C 0.88273 0.02999 0.35165 0.0
C1159 C 0.8833 0.02377 0.41149 0.0
C1160 C 0.88202 0.01741 0.30428 0.0
C1161 C 0.88124 0.00502 0.42417 0.0
C1162 C 0.87989 0.99239 0.37719 0.0
C1163 C 0.88237 0.98574 0.27025 0.0
C1164 C 0.88556 0.99179 0.21106 0.0
C1165 C 0.88099 0.99842 0.31721 0.0
C1166 C 0.88554 0.01063 0.19802 0.0
C1167 C 0.88362 0.02341 0.24439 0.0
H1168 H 0.79449 0.13394 0.05681 0.0
H1169 H 0.75353 0.12341 0.92092 0.0
H1170 H 0.7304 0.11801 0.99942 0.0
H1171 H 0.72093 0.12313 0.10345 0.0
H1172 H 0.7616 0.14029 0.23418 0.0
H1173 H 0.78571 0.13488 0.16253 0.0
C1174 C 0.78061 0.12992 0.04455 0.0
C1175 C 0.77545 0.12945 0.98374 0.0
C1176 C 0.7673 0.12796 0.08947 0.0
C1177 C 0.75755 0.12424 0.96783 0.0
C1178 C 0.7444 0.12113 0.01261 0.0
C1179 C 0.73509 0.12539 0.11694 0.0
C1180 C 0.73906 0.13267 0.17434 0.0
C1181 C 0.74893 0.12406 0.07335 0.0
C1182 C 0.75761 0.13485 0.19113 0.0
C1183 C 0.77164 0.13201 0.14939 0.0
H1184 H 0.60676 0.01035 0.70729 0.0
H1185 H 0.64106 0.05419 0.77481 0.0
H1186 H 0.6476 0.03619 0.86496 0.0
H1187 H 0.63945 0.00989 0.93081 0.0
H1188 H 0.60749 0.96543 0.85711 0.0
H1189 H 0.60455 0.98169 0.76159 0.0
C1190 C 0.61646 0.01578 0.73941 0.0
C1191 C 0.62328 0.03373 0.73386 0.0
C1192 C 0.6203 0.00534 0.79074 0.0
C1193 C 0.63539 0.04046 0.77817 0.0
C1194 C 0.63911 0.03023 0.82995 0.0
C1195 C 0.63225 1.00371 0.89313 0.0
C1196 C 0.62329 0.98686 0.90067 0.0
C1197 C 0.63095 0.01298 0.83784 0.0
C1198 C 0.61414 0.97865 0.85204 0.0
C1199 C 0.6125 0.98789 0.79752 0.0
H1200 H 0.78672 0.89163 0.60723 0.0
H1201 H 0.74567 0.87078 0.73122 0.0
H1202 H 0.72186 0.87726 0.65966 0.0
H1203 H 0.71341 0.88133 0.55454 0.0
H1204 H 0.75485 0.89538 0.42337 0.0
H1205 H 0.77771 0.89874 0.50386 0.0
C1206 C 0.77253 0.8888 0.61929 0.0
C1207 C 0.76835 0.88061 0.67529 0.0
C1208 C 0.7589 0.89085 0.57535 0.0
C1209 C 0.74977 0.87736 0.68993 0.0
C1210 C 0.73593 0.88076 0.64807 0.0
C1211 C 0.72732 0.88571 0.54398 0.0
C1212 C 0.73264 0.88805 0.48374 0.0
C1213 C 0.74049 0.88641 0.58967 0.0
C1214 C 0.75065 0.89345 0.46983 0.0
C1215 C 0.76365 0.89529 0.5157 0.0
H1216 H 0.56273 0.55143 0.34499 0.0
H1217 H 0.55812 0.51037 0.48437 0.0
H1218 H 0.55951 0.48601 0.4094 0.0
H1219 H 0.56473 0.47611 0.30446 0.0
H1220 H 0.56249 0.5168 0.16322 0.0
H1221 H 0.56128 0.54121 0.2378 0.0
C1222 C 0.56152 0.5372 0.35887 0.0
C1223 C 0.56099 0.53285 0.4208 0.0
C1224 C 0.56154 0.52302 0.31489 0.0
C1225 C 0.55934 0.51421 0.43736 0.0
C1226 C 0.56002 0.50018 0.39437 0.0
C1227 C 0.56353 0.49022 0.28953 0.0
C1228 C 0.56461 0.49436 0.22747 0.0
C1229 C 0.56161 0.50436 0.33295 0.0
C1230 C 0.56292 0.51297 0.21024 0.0
C1231 C 0.56187 0.52708 0.25313 0.0
H1232 H 0.71073 0.31534 0.58324 0.0
H1233 H 0.75033 0.31128 0.72709 0.0
H1234 H 0.77541 0.31094 0.65424 0.0
H1235 H 0.78648 0.31345 0.54857 0.0
H1236 H 0.74655 0.31063 0.40536 0.0
H1237 H 0.72159 0.31164 0.47813 0.0
C1238 C 0.72477 0.31386 0.59884 0.0
C1239 C 0.72846 0.31392 0.66121 0.0
C1240 C 0.73929 0.31265 0.5563 0.0
C1241 C 0.74693 0.31213 0.67973 0.0
C1242 C 0.76139 0.3117 0.63789 0.0
C1243 C 0.77237 0.31274 0.53313 0.0
C1244 C 0.76862 0.31301 0.47074 0.0
C1245 C 0.75781 0.31228 0.57585 0.0
C1246 C 0.75007 0.31172 0.45252 0.0
C1247 C 0.73564 0.31198 0.49439 0.0
H1248 H 0.94563 0.5356 0.79801 0.0
H1249 H 0.95253 0.49652 0.65391 0.0
H1250 H 0.95368 0.47135 0.72638 0.0
H1251 H 0.94963 0.45989 0.83113 0.0
H1252 H 0.94733 0.49927 0.9759 0.0
H1253 H 0.94766 0.52452 0.90371 0.0
C1254 C 0.94795 0.52167 0.7825 0.0
C1255 C 0.94853 0.51805 0.72012 0.0
C1256 C 0.94912 0.5071 0.8249 0.0
C1257 C 0.95145 0.49976 0.70141 0.0
C1258 C 0.95219 0.48527 0.74297 0.0
C1259 C 0.94968 0.47398 0.84699 0.0
C1260 C 0.9478 0.47752 0.90916 0.0
C1261 C 0.95054 0.48867 0.80492 0.0
C1262 C 0.94795 0.49599 0.92836 0.0
C1263 C 0.94832 0.51054 0.88699 0.0
H1264 H 0.76836 0.71045 0.16517 0.0
H1265 H 0.77395 0.65158 0.16994 0.0
H1266 H 0.75563 0.6489 0.07767 0.0
H1267 H 0.7374 0.66329 0.99556 0.0
H1268 H 0.73023 0.72203 0.9942 0.0
H1269 H 0.74942 0.72479 0.08441 0.0
C1270 C 0.76561 0.69706 0.14574 0.0
C1271 C 0.77262 0.68122 0.17445 0.0
C1272 C 0.7546 0.6956 0.09315 0.0
C1273 C 0.76875 0.66397 0.14892 0.0
C1274 C 0.75824 0.66244 0.09607 0.0
C1275 C 0.74008 0.67669 0.01499 0.0
C1276 C 0.73234 0.69244 0.9878 0.0
C1277 C 0.75099 0.67814 0.06778 0.0
C1278 C 0.73585 0.70967 0.01417 0.0
C1279 C 0.74693 0.71126 0.06577 0.0
H1280 H 0.42496 0.48484 0.75111 0.0
H1281 H 0.36615 0.48632 0.72837 0.0
H1282 H 0.36294 0.50268 0.82482 0.0
H1283 H 0.37735 0.51642 0.91515 0.0
H1284 H 0.43647 0.51435 0.93357 0.0
H1285 H 0.43907 0.49788 0.83957 0.0
C1286 C 0.41147 0.48918 0.76639 0.0
C1287 C 0.39586 0.48511 0.73217 0.0
C1288 C 0.4098 0.49794 0.82176 0.0
C1289 C 0.37836 0.48988 0.75373 0.0
C1290 C 0.37655 0.49901 0.80886 0.0
C1291 C 0.39073 0.51206 0.89886 0.0
C1292 C 0.4066 0.5161 0.9324 0.0
C1293 C 0.39222 0.503 0.84341 0.0
C1294 C 0.42393 0.51075 0.91044 0.0
C1295 C 0.4255 0.50163 0.85583 0.0
H1296 H 0.29514 0.61589 0.53378 0.0
H1297 H 0.25182 0.63378 0.41395 0.0
H1298 H 0.22894 0.62287 0.48381 0.0
H1299 H 0.22136 0.61732 0.58896 0.0
H1300 H 0.2645 0.60675 0.71722 0.0
H1301 H 0.2872 0.60582 0.63547 0.0
C1302 C 0.28068 0.61698 0.5222 0.0
C1303 C 0.27542 0.62587 0.46856 0.0
C1304 C 0.26746 0.61246 0.56556 0.0
C1305 C 0.25662 0.62683 0.45384 0.0
C1306 C 0.24334 0.62088 0.49473 0.0
C1307 C 0.23564 0.61408 0.59852 0.0
C1308 C 0.24147 0.6123 0.65839 0.0
C1309 C 0.24863 0.615 0.5522 0.0
C1310 C 0.25992 0.6083 0.67105 0.0
C1311 C 0.27283 0.60789 0.62445 0.0
H1312 H 0.08917 0.48272 0.39954 0.0
H1313 H 0.14674 0.49192 0.43267 0.0
H1314 H 0.14956 0.50765 0.3347 0.0
H1315 H 0.1349 0.51919 0.24112 0.0
H1316 H 0.07685 0.5094 0.21374 0.0
H1317 H 0.07509 0.49277 0.30741 0.0
C1318 C 0.10225 0.48845 0.38602 0.0
C1319 C 0.11755 0.48684 0.42373 0.0
C1320 C 0.10376 0.49682 0.32999 0.0
C1321 C 0.13468 0.49356 0.40458 0.0
C1322 C 0.13629 0.50233 0.34861 0.0
C1323 C 0.12198 0.51307 0.25528 0.0
C1324 C 0.1062 0.51509 0.2193 0.0
C1325 C 0.12085 0.50401 0.31094 0.0
C1326 C 0.08945 0.50742 0.23855 0.0
C1327 C 0.08828 0.49821 0.2931 0.0
H1328 H 0.22338 0.39091 0.03408 0.0
H1329 H 0.2644 0.36237 0.92808 0.0
H1330 H 0.28726 0.36853 1.00357 0.0
H1331 H 0.29402 0.37547 0.10831 0.0
H1332 H 0.25169 0.39726 0.22385 0.0
H1333 H 0.23081 0.39993 0.13728 0.0
C1334 C 0.23742 0.38635 0.02681 0.0
C1335 C 0.24198 0.37635 0.97453 0.0
C1336 C 0.25019 0.38828 0.0734 0.0
C1337 C 0.26029 0.37064 0.96601 0.0
C1338 C 0.27345 0.37379 0.01025 0.0
C1339 C 0.28038 0.38133 0.11385 0.0
C1340 C 0.27422 0.38632 0.17133 0.0
C1341 C 0.26829 0.38168 0.06518 0.0
C1342 C 0.25653 0.39348 0.17934 0.0
C1343 C 0.24467 0.39491 0.13009 0.0
H1344 H 0.00654 0.10657 0.71402 0.0
H1345 H 0.95942 0.11535 0.82926 0.0
H1346 H 0.97952 0.12318 0.91293 0.0
H1347 H 0.01023 0.12138 0.95772 0.0
H1348 H 0.05712 0.11067 0.84369 0.0
H1349 H 0.03749 0.11059 0.75495 0.0
C1350 C 1.00069 0.11059 0.75706 0.0
C1351 C 0.98165 0.10973 0.7662 0.0
C1352 C 0.0123 0.11468 0.80539 0.0
C1353 C 0.97415 0.11542 0.82163 0.0
C1354 C 0.9856 0.11991 0.86958 0.0
C1355 C 0.0161 0.1193 0.9133 0.0
C1356 C 0.03482 0.11532 0.90722 0.0
C1357 C 0.00467 0.11857 0.86278 0.0
C1358 C 0.04258 0.11349 0.84943 0.0
C1359 C 0.03137 0.11327 0.79868 0.0
H1360 H 0.18169 0.77106 0.13876 0.0
H1361 H 0.12452 0.75652 0.12166 0.0
H1362 H 0.13087 0.7435 0.02123 0.0
H1363 H 0.15358 0.73456 0.94383 0.0
H1364 H 0.21032 0.75139 0.963 0.0
H1365 H 0.20281 0.76704 0.05666 0.0
C1366 C 0.17049 0.76536 0.11318 0.0
C1367 C 0.15279 0.76432 0.13791 0.0
C1368 C 0.1741 0.75892 0.0557 0.0
C1369 C 0.13839 0.75693 0.10377 0.0
C1370 C 0.14198 0.74976 0.04643 0.0
C1371 C 0.16419 0.74202 0.96789 0.0
C1372 C 0.18257 0.74141 0.9479 0.0
C1373 C 0.15989 0.7505 0.0225 0.0
C1374 C 0.19614 0.7515 0.97809 0.0
C1375 C 0.19191 0.76021 0.03196 0.0
H1376 H 0.52752 0.89861 0.25587 0.0
H1377 H 0.48049 0.92835 0.18807 0.0
H1378 H 0.46078 0.91313 0.26246 0.0
H1379 H 0.45841 0.89621 0.35724 0.0
H1380 H 0.50679 0.87202 0.43613 0.0
H1381 H 0.52451 0.87936 0.34513 0.0
C1382 C 0.51288 0.90149 0.25639 0.0
C1383 C 0.50545 0.91476 0.21726 0.0
C1384 C 0.50195 0.8935 0.3011 0.0
C1385 C 0.4865 0.91835 0.21842 0.0
C1386 C 0.47527 0.90964 0.26078 0.0
C1387 C 0.47268 0.892 0.35337 0.0
C1388 C 0.48144 0.88362 0.40256 0.0
C1389 C 0.48303 0.89785 0.30388 0.0
C1390 C 0.49989 0.87832 0.39811 0.0
C1391 C 0.51001 0.88278 0.34665 0.0
H1392 H 0.37675 0.2434 0.65298 0.0
H1393 H 0.34757 0.19427 0.60173 0.0
H1394 H 0.33987 0.20774 0.50465 0.0
H1395 H 0.33643 0.23558 0.4435 0.0
H1396 H 0.36633 0.28452 0.49306 0.0
H1397 H 0.37906 0.26895 0.58057 0.0
C1398 C 0.36927 0.23551 0.61953 0.0
C1399 C 0.36252 0.21811 0.6343 0.0
C1400 C 0.36476 0.24338 0.56386 0.0
C1401 C 0.35291 0.20778 0.59099 0.0
C1402 C 0.34833 0.21551 0.53569 0.0
C1403 C 0.34609 0.24263 0.47269 0.0
C1404 C 0.35003 0.2612 0.46298 0.0
C1405 C 0.3534 0.23363 0.52298 0.0
C1406 C 0.36288 0.27019 0.50012 0.0
C1407 C 0.37013 0.26136 0.55043 0.0
H1408 H 0.03649 0.88404 0.74931 0.0
H1409 H 0.99573 0.88346 0.60832 0.0
H1410 H 0.97119 0.88587 0.68369 0.0
H1411 H 0.96225 0.89393 0.7866 0.0
H1412 H 1.00359 0.89749 0.92579 0.0
H1413 H 0.02712 0.88771 0.8541 0.0
C1414 C 0.0222 0.88384 0.73524 0.0
C1415 C 0.01778 0.88395 0.67371 0.0
C1416 C 0.00839 0.88606 0.77837 0.0
C1417 C 0.99931 0.88372 0.65568 0.0
C1418 C 0.98536 0.88515 0.69865 0.0
C1419 C 0.97635 0.89224 0.80158 0.0
C1420 C 0.98132 0.89685 0.86086 0.0
C1421 C 0.98985 0.8873 0.75974 0.0
C1422 C 0.99954 0.89434 0.87997 0.0
C1423 C 0.01298 0.88876 0.83907 0.0
H1424 H 0.325 0.72783 0.04721 0.0
H1425 H 0.35977 0.7562 0.17391 0.0
H1426 H 0.37853 0.76821 0.09067 0.0
H1427 H 0.38094 0.77487 0.98284 0.0
H1428 H 0.34333 0.74845 0.85942 0.0
H1429 H 0.33129 0.72996 0.9396 0.0
C1430 C 0.33666 0.7367 0.05648 0.0
C1431 C 0.3406 0.74197 0.1157 0.0
C1432 C 0.34727 0.74337 0.00898 0.0
C1433 C 0.35624 0.75261 0.12797 0.0
C1434 C 0.36703 0.75924 0.08065 0.0
C1435 C 0.37047 0.76467 0.97305 0.0
C1436 C 0.36221 0.76425 0.91568 0.0
C1437 C 0.36218 0.75528 0.02086 0.0
C1438 C 0.34956 0.75011 0.903 0.0
C1439 C 0.34227 0.73957 0.94953 0.0
H1440 H 0.50347 0.11931 0.41621 0.0
H1441 H 0.5508 0.12056 0.29829 0.0
H1442 H 0.53206 0.1329 0.21709 0.0
H1443 H 0.50133 0.13684 0.17437 0.0
H1444 H 0.4538 0.13306 0.29013 0.0
H1445 H 0.47353 0.12928 0.3779 0.0
C1446 C 0.50973 0.12262 0.3731 0.0
C1447 C 0.52825 0.1184 0.36241 0.0
C1448 C 0.49883 0.12934 0.32618 0.0
C1449 C 0.53638 0.12322 0.30702 0.0
C1450 C 0.52571 0.13032 0.26054 0.0
C1451 C 0.4954 0.13563 0.21911 0.0
C1452 C 0.47632 0.13447 0.22591 0.0
C1453 C 0.50676 0.13245 0.26872 0.0
C1454 C 0.46857 0.13368 0.28393 0.0
C1455 C 0.47982 0.13127 0.33404 0.0
H1456 H 0.12813 0.22881 0.49999 0.0
H1457 H 0.12745 0.27159 0.36546 0.0
H1458 H 0.13503 0.29444 0.4426 0.0
H1459 H 0.1479 0.30061 0.5424 0.0
H1460 H 0.15159 0.25684 0.67352 0.0
H1461 H 0.13662 0.23584 0.60335 0.0
C1462 C 0.12891 0.24325 0.48799 0.0
C1463 C 0.1275 0.24863 0.42742 0.0
C1464 C 0.13432 0.25594 0.53156 0.0
C1465 C 0.12863 0.26728 0.41205 0.0
C1466 C 0.13316 0.28023 0.45592 0.0
C1467 C 0.14521 0.28654 0.55597 0.0
C1468 C 0.15127 0.2801 0.61228 0.0
C1469 C 0.13709 0.27448 0.51493 0.0
C1470 C 0.14737 0.26198 0.62984 0.0
C1471 C 0.13877 0.25 0.58987 0.0
H1472 H 0.00665 0.95391 0.17016 0.0
H1473 H 0.96473 0.92457 0.26807 0.0
H1474 H 0.98486 0.92278 0.35652 0.0
H1475 H 0.01473 0.92922 0.4063 0.0
H1476 H 0.05616 0.95985 0.30947 0.0
H1477 H 0.03605 0.96152 0.22151 0.0
C1478 C 1.00194 0.94717 0.21098 0.0
C1479 C 0.98414 0.93939 0.21237 0.0
C1480 C 0.01358 0.94642 0.26224 0.0
C1481 C 0.97827 0.93075 0.26577 0.0
C1482 C 0.98983 0.9297 0.31639 0.0
C1483 C 0.01939 0.93631 0.36607 0.0
C1484 C 0.03714 0.94434 0.36514 0.0
C1485 C 0.00757 0.93744 0.31528 0.0
C1486 C 0.04268 0.95355 0.31221 0.0
C1487 C 0.03115 0.95448 0.2615 0.0
H1488 H 0.83368 0.22074 0.03755 0.0
H1489 H 0.80235 0.2549 0.91685 0.0
H1490 H 0.79912 0.27824 0.99557 0.0
H1491 H 0.80546 0.28932 0.09854 0.0
H1492 H 0.83827 0.25615 0.21852 0.0
H1493 H 0.84061 0.23227 0.14107 0.0
C1494 C 0.8261 0.23328 0.02872 0.0
C1495 C 0.81822 0.23601 0.97117 0.0
C1496 C 0.82458 0.24691 0.07429 0.0
C1497 C 0.80858 0.25244 0.96044 0.0
C1498 C 0.80671 0.2658 1.00561 0.0
C1499 C 0.81313 0.27688 0.10804 0.0
C1500 C 0.82164 0.27469 0.16498 0.0
C1501 C 0.8147 0.26326 0.0627 0.0
C1502 C 0.83157 0.25838 0.17555 0.0
C1503 C 0.83291 0.24465 0.13108 0.0
H1504 H 0.49496 0.06862 0.68652 0.0
H1505 H 0.54315 0.08538 0.78492 0.0
H1506 H 0.52509 0.08715 0.87799 0.0
H1507 H 0.49528 0.08399 0.9327 0.0
H1508 H 0.44738 0.06641 0.8337 0.0
H1509 H 0.46538 0.06516 0.74102 0.0
C1510 C 0.5015 0.07274 0.72826 0.0
C1511 C 0.52051 0.0768 0.72825 0.0
C1512 C 0.49097 0.07363 0.78218 0.0
C1513 C 0.52866 0.08194 0.78328 0.0
C1514 C 0.51827 0.08306 0.83672 0.0
C1515 C 0.48877 0.07988 0.89089 0.0
C1516 C 0.46985 0.07525 0.89104 0.0
C1517 C 0.49937 0.07891 0.83698 0.0
C1518 C 0.46185 0.06992 0.83586 0.0
C1519 C 0.47217 0.06924 0.78237 0.0
H1520 H 0.70872 0.76265 0.4574 0.0
H1521 H 0.67799 0.8034 0.55561 0.0
H1522 H 0.67703 0.78315 0.64414 0.0
H1523 H 0.68384 0.75308 0.69253 0.0
H1524 H 0.71535 0.71279 0.59382 0.0
H1525 H 0.7171 0.73348 0.50753 0.0
C1526 C 0.70194 0.76714 0.4984 0.0
C1527 C 0.69349 0.78459 0.49984 0.0
C1528 C 0.7015 0.75539 0.54925 0.0
C1529 C 0.68478 0.79018 0.5534 0.0
C1530 C 0.68414 0.77852 0.60396 0.0
C1531 C 0.69119 0.74884 0.65233 0.0
C1532 C 0.69937 0.73119 0.65024 0.0
C1533 C 0.69229 0.76098 0.60234 0.0
C1534 C 0.70891 0.72616 0.59741 0.0
C1535 C 0.70989 0.73802 0.54765 0.0
H1536 H 0.01349 0.07178 0.20594 0.0
H1537 H 0.05235 0.03758 0.30099 0.0
H1538 H 0.03297 0.03841 0.3907 0.0
H1539 H 0.00511 0.04932 0.44445 0.0
H1540 H 0.96565 0.08251 0.34935 0.0
H1541 H 0.98494 0.08163 0.25853 0.0
C1542 C 0.01771 0.0644 0.24608 0.0
C1543 C 0.03455 0.05464 0.2459 0.0
C1544 C 0.00632 0.06481 0.29818 0.0
C1545 C 0.03956 0.04518 0.29893 0.0
C1546 C 0.02846 0.04569 0.35073 0.0
C1547 C 1.00075 0.05632 0.40373 0.0
C1548 C 0.98389 0.06592 0.40377 0.0
C1549 C 0.01186 0.05554 0.3512 0.0
C1550 C 0.97845 0.07489 0.35052 0.0
C1551 C 0.98953 0.07442 0.29852 0.0
H1552 H 0.69637 0.29357 0.03804 0.0
H1553 H 0.66776 0.25618 0.92002 0.0
H1554 H 0.66847 0.23246 0.9982 0.0
H1555 H 0.67658 0.22228 0.10203 0.0
H1556 H 0.70336 0.26041 0.22152 0.0
H1557 H 0.70421 0.2836 0.14141 0.0
C1558 C 0.69033 0.28022 0.02916 0.0
C1559 C 0.68202 0.27681 0.97262 0.0
C1560 C 0.69049 0.26665 0.075 0.0
C1561 C 0.67419 0.25936 0.96277 0.0
C1562 C 0.67462 0.24571 1.00762 0.0
C1563 C 0.68267 0.23564 0.11026 0.0
C1564 C 0.68994 0.23957 0.16779 0.0
C1565 C 0.68264 0.24918 0.06413 0.0
C1566 C 0.69763 0.25703 0.17785 0.0
C1567 C 0.6981 0.27032 0.13196 0.0
H1568 H 0.50892 0.95613 0.9358 0.0
H1569 H 0.55273 0.92499 0.85485 0.0
H1570 H 0.5349 0.92212 0.76121 0.0
H1571 H 0.50631 0.92853 0.70148 0.0
H1572 H 0.46361 0.96131 0.78386 0.0
H1573 H 0.48133 0.96343 0.8761 0.0
C1574 C 0.51457 0.94875 0.89755 0.0
C1575 C 0.53219 0.94085 0.90242 0.0
C1576 C 0.50432 0.94742 0.84346 0.0
C1577 C 0.53929 0.93134 0.85228 0.0
C1578 C 0.52903 0.92966 0.79868 0.0
C1579 C 0.50089 0.93613 0.73956 0.0
C1580 C 0.48344 0.94469 0.73474 0.0
C1581 C 0.51145 0.93765 0.79348 0.0
C1582 C 0.47689 0.95458 0.78515 0.0
C1583 C 0.48705 0.95581 0.83853 0.0
H1584 H 0.81898 0.74497 0.46914 0.0
H1585 H 0.79346 0.70207 0.57453 0.0
H1586 H 0.79255 0.72229 0.66213 0.0
H1587 H 0.79975 0.75201 0.71083 0.0
H1588 H 0.82385 0.79547 0.60513 0.0
H1589 H 0.82447 0.7754 0.5164 0.0
C1590 C 0.81313 0.74005 0.51115 0.0
C1591 C 0.80638 0.72185 0.51472 0.0
C1592 C 0.81242 0.75192 0.56177 0.0
C1593 C 0.79874 0.71591 0.56983 0.0
C1594 C 0.79826 0.72749 0.62031 0.0
C1595 C 0.80511 0.75707 0.6683 0.0
C1596 C 0.81184 0.77522 0.66482 0.0
C1597 C 0.80519 0.74548 0.6171 0.0
C1598 C 0.81852 0.78162 0.6091 0.0
C1599 C 0.81894 0.77009 0.55833 0.0
H1600 H 0.54364 0.63056 0.38503 0.0
H1601 H 0.50176 0.64382 0.51548 0.0
H1602 H 0.47849 0.64446 0.43562 0.0
H1603 H 0.46957 0.635 0.33376 0.0
H1604 H 0.51113 0.61703 0.20797 0.0
H1605 H 0.53523 0.6248 0.28035 0.0
C1606 C 0.52952 0.63427 0.39539 0.0
C1607 C 0.52424 0.63716 0.45543 0.0
C1608 C 0.51621 0.63344 0.35014 0.0
C1609 C 0.50596 0.6416 0.46917 0.0
C1610 C 0.49271 0.64181 0.42371 0.0
C1611 C 0.48394 0.63334 0.32165 0.0
C1612 C 0.4887 0.62537 0.26618 0.0
C1613 C 0.49756 0.63682 0.36467 0.0
C1614 C 0.50728 0.62305 0.25085 0.0
C1615 C 0.521 0.62742 0.29219 0.0
H1616 H 0.64484 0.30782 0.59927 0.0
H1617 H 0.61069 0.2636 0.66391 0.0
H1618 H 0.62038 0.24442 0.57879 0.0
H1619 H 0.64354 0.23837 0.50185 0.0
H1620 H 0.6819 0.28093 0.45023 0.0
H1621 H 0.6658 0.30278 0.51521 0.0
C1622 C 0.63894 0.29425 0.59299 0.0
C1623 C 0.62704 0.287 0.63685 0.0
C1624 C 0.64591 0.2829 0.54783 0.0
C1625 C 0.61968 0.26937 0.6298 0.0
C1626 C 0.62549 0.25838 0.58192 0.0
C1627 C 0.6482 0.25252 0.50389 0.0
C1628 C 0.66406 0.25802 0.4723 0.0
C1629 C 0.63942 0.26466 0.5431 0.0
C1630 C 0.66989 0.27636 0.47505 0.0
C1631 C 0.66066 0.28884 0.51191 0.0
H1632 H 0.96611 0.37666 0.86944 0.0
H1633 H 0.00951 0.36598 0.9968 0.0
H1634 H 0.03247 0.36914 0.91665 0.0
H1635 H 0.03991 0.38253 0.81891 0.0
H1636 H 0.99637 0.39754 0.69609 0.0
H1637 H 0.97359 0.38477 0.76549 0.0
C1638 C 0.98055 0.37422 0.8789 0.0
C1639 C 0.98633 0.37136 0.93845 0.0
C1640 C 0.99357 0.37737 0.83377 0.0
C1641 C 0.00496 0.36831 0.95094 0.0
C1642 C 0.01801 0.37033 0.90537 0.0
C1643 C 0.02545 0.38272 0.80677 0.0
C1644 C 0.01969 0.39153 0.75371 0.0
C1645 C 0.01248 0.37613 0.84785 0.0
C1646 C 1.00104 0.39119 0.73752 0.0
C1647 C 0.98804 0.38391 0.77715 0.0
H1648 H 0.84966 0.70845 0.13589 0.0
H1649 H 0.87371 0.75654 0.21688 0.0
H1650 H 0.86733 0.77431 0.1251 0.0
H1651 H 0.85082 0.77693 0.03003 0.0
H1652 H 0.82172 0.73018 0.95771 0.0
H1653 H 0.83393 0.71082 0.03886 0.0
C1654 C 0.8538 0.72274 0.13264 0.0
C1655 C 0.86221 0.73134 0.18196 0.0
C1656 C 0.84883 0.73299 0.08218 0.0
C1657 C 0.86743 0.7498 0.17857 0.0
C1658 C 0.86361 0.75989 0.12662 0.0
C1659 C 0.84743 0.76241 0.03132 0.0
C1660 C 0.83543 0.75486 0.98831 0.0
C1661 C 0.8537 0.75177 0.07929 0.0
C1662 C 0.83088 0.73618 0.99077 0.0
C1663 C 0.83786 0.72518 0.03691 0.0
H1664 H 0.52402 0.3723 0.21015 0.0
H1665 H 0.56728 0.393 0.32401 0.0
H1666 H 0.54632 0.39389 0.40966 0.0
H1667 H 0.51434 0.39757 0.44196 0.0
H1668 H 0.47048 0.38008 0.32412 0.0
H1669 H 0.49283 0.36924 0.25056 0.0
C1670 C 0.52888 0.37653 0.2542 0.0
C1671 C 0.54673 0.38343 0.26047 0.0
C1672 C 0.51648 0.37814 0.30208 0.0
C1673 C 0.55336 0.38801 0.31799 0.0
C1674 C 0.54133 0.38877 0.36683 0.0
C1675 C 0.5097 0.39096 0.40087 0.0
C1676 C 0.49089 0.39036 0.38712 0.0
C1677 C 0.52259 0.38531 0.35791 0.0
C1678 C 0.48497 0.38126 0.33472 0.0
C1679 C 0.49773 0.37501 0.29263 0.0
H1680 H 0.86333 0.24925 0.67114 0.0
H1681 H 0.85578 0.20705 0.53651 0.0
H1682 H 0.86901 0.22696 0.45999 0.0
H1683 H 0.8761 0.25773 0.42901 0.0
H1684 H 0.88193 0.30097 0.56081 0.0
H1685 H 0.87747 0.27873 0.64129 0.0
C1686 C 0.86486 0.24434 0.62524 0.0
C1687 C 0.85788 0.22706 0.60889 0.0
C1688 C 0.87225 0.25595 0.581 0.0
C1689 C 0.86053 0.22056 0.54986 0.0
C1690 C 0.86818 0.23189 0.50603 0.0
C1691 C 0.87653 0.26262 0.4746 0.0
C1692 C 0.87759 0.28147 0.48787 0.0
C1693 C 0.87303 0.24996 0.52051 0.0
C1694 C 0.88004 0.28669 0.54861 0.0
C1695 C 0.87731 0.274 0.59497 0.0
H1696 H 0.03601 0.62548 0.80929 0.0
H1697 H 0.99543 0.61122 0.94381 0.0
H1698 H 0.97081 0.61924 0.87382 0.0
H1699 H 0.96141 0.62302 0.76902 0.0
H1700 H 1.00215 0.63287 0.63139 0.0
H1701 H 0.02626 0.63428 0.70818 0.0
C1702 C 0.02179 0.62456 0.82386 0.0
C1703 C 0.01746 0.61728 0.88082 0.0
C1704 C 0.00781 0.62822 0.7825 0.0
C1705 C 0.99903 0.61642 0.89955 0.0
C1706 C 0.98498 0.62096 0.85958 0.0
C1707 C 0.97548 0.62618 0.75625 0.0
C1708 C 0.98024 0.62756 0.69514 0.0
C1709 C 0.98925 0.62581 0.8 0.0
C1710 C 0.9984 0.63155 0.67848 0.0
C1711 C 0.01212 0.63223 0.72223 0.0
H1712 H 0.65377 0.71477 0.02539 0.0
H1713 H 0.63061 0.76392 0.94831 0.0
H1714 H 0.63734 0.78082 0.04147 0.0
H1715 H 0.65416 0.78245 0.13605 0.0
H1716 H 0.68281 0.73477 0.20376 0.0
H1717 H 0.66984 0.71616 0.12202 0.0
C1718 C 0.64991 0.7291 0.02974 0.0
C1719 C 0.64168 0.73825 0.98108 0.0
C1720 C 0.65517 0.73888 0.08086 0.0
C1721 C 0.63677 0.75675 0.98605 0.0
C1722 C 0.64079 0.76635 0.03878 0.0
C1723 C 0.65728 0.76789 0.13372 0.0
C1724 C 0.66936 0.75987 0.17559 0.0
C1725 C 0.65065 0.7577 0.08526 0.0
C1726 C 0.67356 0.74113 0.17167 0.0
C1727 C 0.66616 0.73056 0.12516 0.0
H1728 H 0.54516 0.45487 0.85768 0.0
H1729 H 0.5118 0.42191 0.97705 0.0
H1730 H 0.4885 0.41873 0.89813 0.0
H1731 H 0.47765 0.42475 0.79337 0.0
H1732 H 0.51172 0.45674 0.67382 0.0
H1733 H 0.5345 0.46077 0.75388 0.0
C1734 C 0.53278 0.44703 0.86677 0.0
C1735 C 0.53039 0.43867 0.92393 0.0
C1736 C 0.51946 0.44506 0.82068 0.0
C1737 C 0.51419 0.42849 0.93392 0.0
C1738 C 0.50078 0.42667 0.88861 0.0
C1739 C 0.48999 0.43275 0.78516 0.0
C1740 C 0.49288 0.44054 0.72752 0.0
C1741 C 0.50325 0.43483 0.83162 0.0
C1742 C 0.5091 0.45062 0.71755 0.0
C1743 C 0.52216 0.45295 0.76347 0.0
H1744 H 0.31979 0.77065 0.6666 0.0
H1745 H 0.2951 0.81395 0.56135 0.0
H1746 H 0.29348 0.7934 0.47405 0.0
H1747 H 0.29995 0.76301 0.42593 0.0
H1748 H 0.324 0.71989 0.53326 0.0
H1749 H 0.32492 0.74031 0.62062 0.0
C1750 C 0.31399 0.77567 0.62472 0.0
C1751 C 0.30767 0.79403 0.62112 0.0
C1752 C 0.31302 0.76369 0.57454 0.0
C1753 C 0.30007 0.8 0.56608 0.0
C1754 C 0.2992 0.7882 0.51582 0.0
C1755 C 0.30539 0.75811 0.46848 0.0
C1756 C 0.31194 0.73983 0.47267 0.0
C1757 C 0.30578 0.77003 0.51922 0.0
C1758 C 0.31873 0.73374 0.52854 0.0
C1759 C 0.31934 0.74548 0.57862 0.0
H1760 H 0.99311 0.57985 0.41942 0.0
H1761 H 0.95318 0.54397 0.33682 0.0
H1762 H 0.97149 0.54299 0.24475 0.0
H1763 H 0.99891 0.55258 0.18554 0.0
H1764 H 0.03941 0.58747 0.26848 0.0
H1765 H 0.02099 0.58869 0.36118 0.0
C1766 C 0.98839 0.5718 0.38136 0.0
C1767 C 0.97161 0.56201 0.38586 0.0
C1768 C 0.99916 0.57119 0.32785 0.0
C1769 C 0.96595 0.55162 0.33553 0.0
C1770 C 0.97644 0.55108 0.28237 0.0
C1771 C 1.00366 0.56045 0.22398 0.0
C1772 C 0.02055 0.56996 0.21992 0.0
C1773 C 0.99305 0.56086 0.27772 0.0
C1774 C 0.02653 0.58 0.27034 0.0
C1775 C 0.01596 0.5807 0.32344 0.0
H1776 H 0.17688 0.24751 0.16723 0.0
H1777 H 0.20683 0.20359 0.081 0.0
H1778 H 0.20995 0.22215 0.98961 0.0
H1779 H 0.20385 0.25098 0.93247 0.0
H1780 H 0.17542 0.29534 0.0209 0.0
H1781 H 0.17201 0.27665 0.1121 0.0
C1782 C 0.18415 0.24197 0.12858 0.0
C1783 C 0.19154 0.22402 0.13157 0.0
C1784 C 0.18611 0.25286 0.07595 0.0
C1785 C 0.20102 0.2173 0.08067 0.0
C1786 C 0.20276 0.22792 0.02801 0.0
C1787 C 0.19687 0.25649 0.97172 0.0
C1788 C 0.18977 0.27453 0.96959 0.0
C1789 C 0.19529 0.24571 0.02483 0.0
C1790 C 0.18099 0.28153 0.0212 0.0
C1791 C 0.17903 0.27082 0.07346 0.0
H1792 H 0.49644 0.55021 0.94127 0.0
H1793 H 0.48047 0.60698 0.9275 0.0
H1794 H 0.49895 0.61035 0.83538 0.0
H1795 H 0.52025 0.59721 0.75869 0.0
H1796 H 0.53791 0.54094 0.77759 0.0
H1797 H 0.51848 0.53738 0.86677 0.0
C1798 C 0.49705 0.5633 0.91802 0.0
C1799 C 0.48704 0.57833 0.94127 0.0
C1800 C 0.5081 0.56523 0.86558 0.0
C1801 C 0.48805 0.59523 0.91073 0.0
C1802 C 0.49862 0.59714 0.8579 0.0
C1803 C 0.51975 0.58412 0.782 0.0
C1804 C 0.53055 0.56931 0.76047 0.0
C1805 C 0.50877 0.58225 0.83476 0.0
C1806 C 0.52981 0.55257 0.79241 0.0
C1807 C 0.51866 0.55051 0.84372 0.0
H1808 H 0.21608 0.77626 0.53288 0.0
H1809 H 0.17685 0.74968 0.41598 0.0
H1810 H 0.17579 0.72321 0.48319 0.0
H1811 H 0.18451 0.7079 0.57915 0.0
H1812 H 0.22293 0.73466 0.69745 0.0
H1813 H 0.2259 0.76031 0.6264 0.0
C1814 C 0.20739 0.76464 0.52173 0.0
C1815 C 0.19654 0.76524 0.46884 0.0
C1816 C 0.2067 0.74927 0.56124 0.0
C1817 C 0.18539 0.74987 0.45592 0.0
C1818 C 0.18474 0.7346 0.49459 0.0
C1819 C 0.19383 0.71917 0.58858 0.0
C1820 C 0.20376 0.71917 0.64314 0.0
C1821 C 0.19517 0.73416 0.54778 0.0
C1822 C 0.2154 0.73415 0.65539 0.0
C1823 C 0.21698 0.74892 0.61488 0.0
H1824 H 1.00304 0.45351 0.43976 0.0
H1825 H 0.04439 0.41835 0.36228 0.0
H1826 H 0.02636 0.4158 0.26939 0.0
H1827 H 0.99826 0.42288 0.21048 0.0
H1828 H 0.95707 0.4585 0.28788 0.0
H1829 H 0.97544 0.46153 0.37935 0.0
C1830 C 0.00811 0.44536 0.40235 0.0
C1831 C 0.02517 0.43625 0.40794 0.0
C1832 C 0.9976 0.44398 0.34873 0.0
C1833 C 0.03149 0.42572 0.35901 0.0
C1834 C 0.0211 0.42418 0.3059 0.0
C1835 C 0.9933 0.43138 0.24716 0.0
C1836 C 0.97612 0.44038 0.24162 0.0
C1837 C 1.00406 0.43317 0.30018 0.0
C1838 C 0.97013 0.45137 0.29015 0.0
C1839 C 0.98066 0.4531 0.34288 0.0
H1840 H 0.32356 0.25555 0.94564 0.0
H1841 H 0.29527 0.21418 0.0502 0.0
H1842 H 0.29539 0.23426 0.13778 0.0
H1843 H 0.30401 0.26337 0.18707 0.0
H1844 H 0.33123 0.3055 0.08396 0.0
H1845 H 0.3309 0.28564 0.99441 0.0
C1846 C 0.31738 0.25094 0.98749 0.0
C1847 C 0.30946 0.23317 0.99057 0.0
C1848 C 0.31724 0.2628 0.03846 0.0
C1849 C 0.30144 0.22766 0.04563 0.0
C1850 C 0.30151 0.23918 0.09621 0.0
C1851 C 0.30976 0.26824 0.14484 0.0
C1852 C 0.31756 0.28597 0.14232 0.0
C1853 C 0.30943 0.25674 0.09341 0.0
C1854 C 0.32494 0.29203 0.08712 0.0
C1855 C 0.32485 0.28059 0.03592 0.0
H1856 H 0.12926 0.03276 0.26714 0.0
H1857 H 0.12625 0.98358 0.16004 0.0
H1858 H 0.13423 0.96491 0.2482 0.0
H1859 H 0.13268 0.9625 0.35783 0.0
H1860 H 0.1277 0.0114 0.46552 0.0
H1861 H 0.13299 0.03054 0.3763 0.0
C1862 C 0.13118 0.01802 0.26306 0.0
C1863 C 0.12728 0.00934 0.20828 0.0
C1864 C 0.13413 0.00745 0.31467 0.0
C1865 C 0.12935 0.99032 0.20236 0.0
C1866 C 0.13373 0.97973 0.25273 0.0
C1867 C 0.13371 0.97734 0.36176 0.0
C1868 C 0.12993 0.98573 0.41718 0.0
C1869 C 0.13484 0.98806 0.30967 0.0
C1870 C 0.13079 0.00486 0.42282 0.0
C1871 C 0.13354 0.01572 0.37178 0.0
H1872 H 0.30265 0.87071 0.58935 0.0
H1873 H 0.25335 0.89391 0.66516 0.0
H1874 H 0.23576 0.88387 0.57722 0.0
H1875 H 0.2331 0.86068 0.49898 0.0
H1876 H 0.28121 0.83084 0.43991 0.0
H1877 H 0.30069 0.85071 0.50166 0.0
C1878 C 0.28824 0.8744 0.5846 0.0
C1879 C 0.27912 0.88285 0.63298 0.0
C1880 C 0.27794 0.86637 0.53862 0.0
C1881 C 0.26052 0.88749 0.62786 0.0
C1882 C 0.25045 0.88133 0.57839 0.0
C1883 C 0.2479 0.85874 0.49857 0.0
C1884 C 0.25574 0.84406 0.46634 0.0
C1885 C 0.25875 0.86943 0.53664 0.0
C1886 C 0.27489 0.84181 0.46562 0.0
C1887 C 0.286 0.85323 0.50056 0.0
H1888 H 0.45495 0.0277 0.88557 0.0
H1889 H 0.39583 0.02173 0.88091 0.0
H1890 H 0.39684 0.01868 0.77135 0.0
H1891 H 0.41481 0.0138 0.68062 0.0
H1892 H 0.47405 0.01565 0.68811 0.0
H1893 H 0.47266 0.02629 0.79221 0.0
C1894 C 0.4423 0.02545 0.86076 0.0
C1895 C 0.42538 0.02434 0.89098 0.0
C1896 C 0.44298 0.02388 0.79831 0.0
C1897 C 0.40903 0.02213 0.85822 0.0
C1898 C 0.40957 0.02074 0.7958 0.0
C1899 C 0.42738 0.01718 0.7046 0.0
C1900 C 0.44446 0.01303 0.67872 0.0
C1901 C 0.4265 0.02126 0.7657 0.0
C1902 C 0.46071 0.01824 0.70818 0.0
C1903 C 0.45994 0.02382 0.76813 0.0
H1904 H 0.28461 0.14914 0.08415 0.0
H1905 H 0.24123 0.15334 0.95205 0.0
H1906 H 0.21984 0.13853 0.02189 0.0
H1907 H 0.21206 0.13262 0.12722 0.0
H1908 H 0.25424 0.13497 0.2628 0.0
H1909 H 0.27786 0.13769 0.18477 0.0
C1910 C 0.27055 0.14654 0.07018 0.0
C1911 C 0.26424 0.15294 0.01417 0.0
C1912 C 0.25823 0.13888 0.11136 0.0
C1913 C 0.2462 0.14901 0.99583 0.0
C1914 C 0.23402 0.14047 0.03558 0.0
C1915 C 0.22655 0.13267 0.13907 0.0
C1916 C 0.23163 0.13376 0.19984 0.0
C1917 C 0.23963 0.13642 0.09458 0.0
C1918 C 0.25024 0.13402 0.21586 0.0
C1919 C 0.26363 0.13602 0.17133 0.0
H1920 H 0.9396 1.00306 0.9357 0.0
H1921 H 0.9418 0.9562 0.81714 0.0
H1922 H 0.94086 0.97648 0.72929 0.0
H1923 H 0.93943 0.00777 0.68514 0.0
H1924 H 0.94054 0.05465 0.80362 0.0
H1925 H 0.94013 0.03436 0.89158 0.0
C1926 C 0.93988 0.9973 0.89062 0.0
C1927 C 0.94068 0.97807 0.88329 0.0
C1928 C 0.9399 0.00913 0.8399 0.0
C1929 C 0.94126 0.97091 0.82436 0.0
C1930 C 0.94066 0.98253 0.77391 0.0
C1931 C 0.93952 0.01351 0.73024 0.0
C1932 C 0.93984 0.03275 0.73762 0.0
C1933 C 0.93995 1.00168 0.78097 0.0
C1934 C 0.94028 0.03993 0.7965 0.0
C1935 C 0.94003 0.02831 0.84695 0.0
H1936 H 0.79226 0.19313 0.58905 0.0
H1937 H 0.75276 0.1895 0.7337 0.0
H1938 H 0.72751 0.19164 0.66094 0.0
H1939 H 0.71649 0.19426 0.55537 0.0
H1940 H 0.75604 0.19439 0.41043 0.0
H1941 H 0.78127 0.19396 0.48349 0.0
C1942 C 0.77812 0.19285 0.60467 0.0
C1943 C 0.77446 0.19131 0.66704 0.0
C1944 C 0.76361 0.19349 0.56224 0.0
C1945 C 0.75602 0.19066 0.68618 0.0
C1946 C 0.74155 0.19194 0.64448 0.0
C1947 C 0.73064 0.19432 0.53986 0.0
C1948 C 0.73434 0.19462 0.47731 0.0
C1949 C 0.74515 0.19335 0.58232 0.0
C1950 C 0.75278 0.19426 0.45811 0.0
C1951 C 0.76723 0.194 0.49997 0.0
H1952 H 0.57013 0.01021 0.19502 0.0
H1953 H 0.56302 0.96277 0.30922 0.0
H1954 H 0.56305 0.98235 0.39853 0.0
H1955 H 0.56508 0.01323 0.44577 0.0
H1956 H 0.56879 0.06092 0.3312 0.0
H1957 H 0.57014 0.04126 0.24189 0.0
C1958 C 0.56856 1.00417 0.23943 0.0
C1959 C 0.56663 0.98492 0.24487 0.0
C1960 C 0.56803 0.01567 0.29119 0.0
C1961 C 0.56443 0.97747 0.30314 0.0
C1962 C 0.56452 0.9887 0.35457 0.0
C1963 C 0.56625 0.0193 0.40126 0.0
C1964 C 0.56701 0.03861 0.3956 0.0
C1965 C 0.56633 0.00785 0.3494 0.0
C1966 C 0.5682 0.04616 0.33721 0.0
C1967 C 0.56898 0.03489 0.28589 0.0
H1968 H 0.7153 0.82244 0.09798 0.0
H1969 H 0.75531 0.82712 0.24025 0.0
H1970 H 0.78032 0.82527 0.16618 0.0
H1971 H 0.79094 0.82217 0.06018 0.0
H1972 H 0.75086 0.8214 0.91734 0.0
H1973 H 0.72588 0.82188 0.99169 0.0
C1974 C 0.72951 0.82306 0.11268 0.0
C1975 C 0.73342 0.82473 0.17474 0.0
C1976 C 0.74384 0.82267 0.06948 0.0
C1977 C 0.7519 0.82583 0.19291 0.0
C1978 C 0.76622 0.82473 0.15049 0.0
C1979 C 0.77672 0.82208 0.04546 0.0
C1980 C 0.77277 0.82151 0.98321 0.0
C1981 C 0.76238 0.8231 0.08859 0.0
C1982 C 0.75428 0.82177 0.96484 0.0
C1983 C 0.73998 0.82203 1.00742 0.0
H1984 H 0.58775 0.48056 0.86715 0.0
H1985 H 0.53536 0.5044 0.91609 0.0
H1986 H 0.52737 0.5072 0.80941 0.0
H1987 H 0.53881 0.51015 0.70663 0.0
H1988 H 0.59341 0.49146 0.66237 0.0
H1989 H 0.59643 0.47769 0.76224 0.0
C1990 C 0.57456 0.48641 0.85477 0.0
C1991 C 0.5625 0.49315 0.89908 0.0
C1992 C 0.57032 0.48835 0.7941 0.0
C1993 C 0.54513 0.49981 0.88238 0.0
C1994 C 0.5405 0.50122 0.82164 0.0
C1995 C 0.55099 0.50225 0.71801 0.0
C1996 C 0.56621 0.50235 0.67916 0.0
C1997 C 0.55344 0.49651 0.77737 0.0
C1998 C 0.58174 0.49175 0.69279 0.0
C1999 C 0.58361 0.48434 0.75022 0.0
H2000 H 0.71898 0.33064 0.01817 0.0
H2001 H 0.75538 0.29072 0.93738 0.0
H2002 H 0.76475 0.28028 0.03786 0.0
H2003 H 0.76669 0.28695 0.14556 0.0
H2004 H 0.73353 0.33006 0.22239 0.0
H2005 H 0.71749 0.334 0.12646 0.0
C2006 C 0.72908 0.31974 0.02237 0.0
C2007 C 0.73723 0.31199 0.97101 0.0
C2008 C 0.73435 0.31402 0.07942 0.0
C2009 C 0.7495 0.29725 0.97685 0.0
C2010 C 0.75464 0.29117 0.03396 0.0
C2011 C 0.75529 0.29654 0.14169 0.0
C2012 C 0.75117 0.30834 0.18956 0.0
C2013 C 0.74765 0.29996 0.08534 0.0
C2014 C 0.73668 0.3209 0.18529 0.0
C2015 C 0.72787 0.32338 0.13038 0.0
H2016 H 0.91001 0.51823 0.37679 0.0
H2017 H 0.96449 0.49819 0.41913 0.0
H2018 H 0.97111 0.49481 0.31183 0.0
H2019 H 0.95985 0.49362 0.20889 0.0
H2020 H 0.90426 0.51023 0.16884 0.0
H2021 H 0.90013 0.52057 0.27282 0.0
C2022 C 0.92334 0.51304 0.36284 0.0
C2023 C 0.93662 0.50811 0.4058 0.0
C2024 C 0.92704 0.51123 0.30167 0.0
C2025 C 0.95391 0.50172 0.3868 0.0
C2026 C 0.9578 0.50003 0.32562 0.0
C2027 C 0.94713 0.5003 0.22234 0.0
C2028 C 0.93225 0.50105 0.18238 0.0
C2029 C 0.94432 0.50441 0.28289 0.0
C2030 C 0.91581 0.50961 0.19959 0.0
C2031 C 0.91334 0.51505 0.25912 0.0
H2032 H 0.78698 0.62746 0.54729 0.0
H2033 H 0.73932 0.63326 0.43397 0.0
H2034 H 0.71914 0.63049 0.52201 0.0
H2035 H 0.71599 0.6351 0.6307 0.0
H2036 H 0.7642 0.63633 0.74298 0.0
H2037 H 0.78341 0.62728 0.65702 0.0
C2038 C 0.77213 0.6272 0.54201 0.0
C2039 C 0.76445 0.63037 0.48502 0.0
C2040 C 0.76085 0.62729 0.59314 0.0
C2041 C 0.74533 0.6306 0.4778 0.0
C2042 C 0.73387 0.62925 0.52812 0.0
C2043 C 0.73061 0.63257 0.63646 0.0
C2044 C 0.73885 0.63616 0.69224 0.0
C2045 C 0.74157 0.62886 0.5861 0.0
C2046 C 0.75774 0.63339 0.70006 0.0
C2047 C 0.76867 0.62842 0.65089 0.0
H2048 H 0.44858 0.50952 0.21327 0.0
H2049 H 0.45077 0.55384 0.34182 0.0
H2050 H 0.45047 0.53172 0.42501 0.0
H2051 H 0.449 0.49953 0.46203 0.0
H2052 H 0.45013 0.45523 0.33325 0.0
H2053 H 0.44972 0.47736 0.25011 0.0
C2054 C 0.44908 0.51433 0.2595 0.0
C2055 C 0.4496 0.5334 0.27105 0.0
C2056 C 0.44944 0.50144 0.30739 0.0
C2057 C 0.45045 0.53931 0.33138 0.0
C2058 C 0.4502 0.52663 0.37913 0.0
C2059 C 0.44918 0.49474 0.41574 0.0
C2060 C 0.44944 0.47568 0.40407 0.0
C2061 C 0.44959 0.50764 0.36782 0.0
C2062 C 0.44995 0.46977 0.3437 0.0
C2063 C 0.44968 0.48245 0.29601 0.0
H2064 H 0.29502 0.68587 0.08507 0.0
H2065 H 0.2532 0.68458 0.22294 0.0
H2066 H 0.22929 0.68204 0.14567 0.0
H2067 H 0.22008 0.68026 0.03817 0.0
H2068 H 0.26205 0.67777 0.90105 0.0
H2069 H 0.28593 0.68163 0.97799 0.0
C2070 C 0.28066 0.68504 0.09814 0.0
C2071 C 0.27594 0.68562 0.15995 0.0
C2072 C 0.26696 0.68287 0.0533 0.0
C2073 C 0.25727 0.6842 0.17595 0.0
C2074 C 0.24356 0.68277 0.13164 0.0
C2075 C 0.23446 0.68055 0.02517 0.0
C2076 C 0.23921 0.67889 0.96362 0.0
C2077 C 0.2482 0.68211 0.0701 0.0
C2078 C 0.25796 0.67901 0.94787 0.0
C2079 C 0.27164 0.68126 0.99195 0.0
H2080 H 0.06215 0.49934 0.69116 0.0
H2081 H 0.06037 0.454 0.81612 0.0
H2082 H 0.06013 0.47544 0.90111 0.0
H2083 H 0.06085 0.50729 0.94067 0.0
H2084 H 0.05907 0.55262 0.81569 0.0
H2085 H 0.06017 0.5312 0.73069 0.0
C2086 C 0.06168 0.49418 0.73703 0.0
C2087 C 0.06144 0.47504 0.74714 0.0
C2088 C 0.06088 0.50667 0.78594 0.0
C2089 C 0.06055 0.46862 0.80692 0.0
C2090 C 0.06045 0.4809 0.85565 0.0
C2091 C 0.06064 0.51246 0.8948 0.0
C2092 C 0.06 0.53159 0.88473 0.0
C2093 C 0.06067 0.49997 0.84585 0.0
C2094 C 0.0595 0.538 0.82489 0.0
C2095 C 0.0602 0.52574 0.77615 0.0
H2096 H 0.23247 0.29544 0.62068 0.0
H2097 H 0.23832 0.35233 0.67134 0.0
H2098 H 0.26028 0.35714 0.58935 0.0
H2099 H 0.27803 0.34529 0.50242 0.0
H2100 H 0.27508 0.28775 0.4586 0.0
H2101 H 0.25191 0.28307 0.53774 0.0
C2102 C 0.23861 0.30886 0.61383 0.0
C2103 C 0.23364 0.32351 0.65227 0.0
C2104 C 0.25173 0.31144 0.56729 0.0
C2105 C 0.24191 0.34077 0.64293 0.0
C2106 C 0.25444 0.34357 0.59571 0.0
C2107 C 0.27219 0.33177 0.51003 0.0
C2108 C 0.27803 0.31694 0.47397 0.0
C2109 C 0.25944 0.32905 0.55742 0.0
C2110 C 0.2707 0.2994 0.48536 0.0
C2111 C 0.25746 0.29673 0.53074 0.0
H2112 H 0.16569 0.12735 0.22833 0.0
H2113 H 0.12316 0.16873 0.22861 0.0
H2114 H 0.10071 0.14594 0.19513 0.0
H2115 H 0.09318 0.11431 0.16467 0.0
H2116 H 0.1354 0.07265 0.16936 0.0
H2117 H 0.15792 0.09551 0.20179 0.0
C2118 C 0.15151 0.1314 0.22116 0.0
C2119 C 0.14618 0.14978 0.23074 0.0
C2120 C 0.13861 0.11818 0.20257 0.0
C2121 C 0.12768 0.1547 0.22172 0.0
C2122 C 0.11482 0.14168 0.20237 0.0
C2123 C 0.10733 0.11024 0.17261 0.0
C2124 C 0.11261 0.0918 0.16414 0.0
C2125 C 0.12015 0.1234 0.19239 0.0
C2126 C 0.13095 0.08673 0.17544 0.0
C2127 C 0.14385 0.0998 0.19399 0.0
H2128 H 0.17236 0.87069 0.4223 0.0
H2129 H 0.13215 0.8274 0.40635 0.0
H2130 H 0.10771 0.84865 0.43534 0.0
H2131 H 0.09745 0.87982 0.46265 0.0
H2132 H 0.13724 0.9237 0.47083 0.0
H2133 H 0.16196 0.9021 0.44767 0.0
C2134 C 0.15827 0.86591 0.42561 0.0
C2135 C 0.15414 0.84744 0.4124 0.0
C2136 C 0.14412 0.87837 0.44073 0.0
C2137 C 0.13574 0.84153 0.4161 0.0
C2138 C 0.12172 0.85369 0.43275 0.0
C2139 C 0.11154 0.88463 0.45967 0.0
C2140 C 0.11543 0.90338 0.46872 0.0
C2141 C 0.1257 0.87218 0.44477 0.0
C2142 C 0.13379 0.90938 0.46395 0.0
C2143 C 0.14798 0.89701 0.45076 0.0
H2144 H 0.4164 0.89134 0.66219 0.0
H2145 H 0.3808 0.93855 0.64771 0.0
H2146 H 0.35452 0.91988 0.67953 0.0
H2147 H 0.3415 0.88994 0.71037 0.0
H2148 H 0.37762 0.84324 0.72963 0.0
H2149 H 0.40373 0.86191 0.69751 0.0
C2150 C 0.40289 0.89756 0.66591 0.0
C2151 C 0.4006 0.91633 0.65212 0.0
C2152 C 0.38788 0.88682 0.68532 0.0
C2153 C 0.383 0.92417 0.65801 0.0
C2154 C 0.36794 0.91348 0.67615 0.0
C2155 C 0.35508 0.88386 0.70773 0.0
C2156 C 0.35749 0.86514 0.72229 0.0
C2157 C 0.37019 0.89477 0.68982 0.0
C2158 C 0.37528 0.85758 0.71896 0.0
C2159 C 0.39026 0.86825 0.70034 0.0
H2160 H 0.37003 0.09376 0.97549 0.0
H2161 H 0.41428 0.13305 0.99122 0.0
H2162 H 0.39403 0.15752 0.95687 0.0
H2163 H 0.36383 0.168 0.92161 0.0
H2164 H 0.31903 0.12928 0.90998 0.0
H2165 H 0.33935 0.10453 0.94316 0.0
C2166 C 0.37523 0.10768 0.9715 0.0
C2167 C 0.39372 0.11145 0.98588 0.0
C2168 C 0.3634 0.12187 0.9522 0.0
C2169 C 0.40014 0.12965 0.98069 0.0
C2170 C 0.38857 0.14371 0.96084 0.0
C2171 C 0.35851 0.15414 0.92616 0.0
C2172 C 0.33993 0.15054 0.91293 0.0
C2173 C 0.3702 0.14 0.94628 0.0
C2174 C 0.33326 0.13249 0.91977 0.0
C2175 C 0.34489 0.1183 0.93877 0.0
H2176 H 0.91638 0.87877 0.96635 0.0
H2177 H 0.87915 0.92479 0.97998 0.0
H2178 H 0.85378 0.90558 0.9457 0.0
H2179 H 0.84191 0.87565 0.9117 0.0
H2180 H 0.87848 0.82906 0.90462 0.0
H2181 H 0.90421 0.84847 0.93598 0.0
C2182 C 0.90271 0.88458 0.96196 0.0
C2183 C 0.89977 0.90325 0.97572 0.0
C2184 C 0.88799 0.87334 0.94303 0.0
C2185 C 0.88189 0.91048 0.97004 0.0
C2186 C 0.86732 0.8995 0.95016 0.0
C2187 C 0.85554 0.86978 0.91666 0.0
C2188 C 0.85827 0.85096 0.90533 0.0
C2189 C 0.8702 0.88093 0.93636 0.0
C2190 C 0.87598 0.84351 0.91298 0.0
C2191 C 0.89071 0.85461 0.93096 0.0
H2192 H 0.88465 0.09465 0.6629 0.0
H2193 H 0.92683 0.13485 0.62639 0.0
H2194 H 0.90652 0.15938 0.66161 0.0
H2195 H 0.87694 0.1694 0.70483 0.0
H2196 H 0.83552 0.12884 0.74706 0.0
H2197 H 0.85537 0.10457 0.70808 0.0
C2198 C 0.88932 0.1088 0.66211 0.0
C2199 C 0.90718 0.11292 0.64154 0.0
C2200 C 0.87775 0.1228 0.68404 0.0
C2201 C 0.91314 0.1313 0.64183 0.0
C2202 C 0.90154 0.14535 0.66209 0.0
C2203 C 0.87225 0.15525 0.7056 0.0
C2204 C 0.85472 0.15101 0.7289 0.0
C2205 C 0.88386 0.14125 0.68375 0.0
C2206 C 0.84895 0.13255 0.72969 0.0
C2207 C 0.86028 0.11863 0.70717 0.0
H2208 H 0.63188 0.17449 0.43788 0.0
H2209 H 0.67234 0.13337 0.39238 0.0
H2210 H 0.65186 0.10921 0.42894 0.0
H2211 H 0.62216 0.09954 0.4727 0.0
H2212 H 0.58098 0.14048 0.51197 0.0
H2213 H 0.602 0.16479 0.4797 0.0
C2214 C 0.63623 0.16025 0.43596 0.0
C2215 C 0.65368 0.15583 0.41235 0.0
C2216 C 0.62424 0.14632 0.45633 0.0
C2217 C 0.65898 0.13724 0.40995 0.0
C2218 C 0.64729 0.12337 0.43112 0.0
C2219 C 0.61788 0.1138 0.47477 0.0
C2220 C 0.60007 0.11818 0.49524 0.0
C2221 C 0.62987 0.12773 0.4544 0.0
C2222 C 0.59462 0.13672 0.49656 0.0
C2223 C 0.60662 0.15065 0.47798 0.0
H2224 H 0.66426 0.8811 0.24184 0.0
H2225 H 0.62794 0.83426 0.2364 0.0
H2226 H 0.60273 0.85391 0.20203 0.0
H2227 H 0.59099 0.88456 0.17241 0.0
H2228 H 0.62822 0.93078 0.17208 0.0
H2229 H 0.65292 0.91128 0.20953 0.0
C2230 C 0.65081 0.87519 0.2334 0.0
C2231 C 0.648 0.85624 0.24207 0.0
C2232 C 0.63648 0.88649 0.21233 0.0
C2233 C 0.63052 0.8488 0.23009 0.0
C2234 C 0.61607 0.86004 0.21045 0.0
C2235 C 0.6045 0.89035 0.18065 0.0
C2236 C 0.60767 0.90916 0.16951 0.0
C2237 C 0.61888 0.87893 0.20124 0.0
C2238 C 0.62535 0.91637 0.17995 0.0
C2239 C 0.63952 0.90523 0.20157 0.0
H2240 H 0.67152 0.63017 0.727 0.0
H2241 H 0.63391 0.67608 0.72798 0.0
H2242 H 0.60878 0.65597 0.69817 0.0
H2243 H 0.59715 0.62545 0.67283 0.0
H2244 H 0.63378 0.57886 0.6766 0.0
H2245 H 0.65946 0.59903 0.70358 0.0
C2246 C 0.65783 0.63575 0.72045 0.0
C2247 C 0.65468 0.65466 0.72966 0.0
C2248 C 0.64319 0.62397 0.70432 0.0
C2249 C 0.63679 0.66161 0.72149 0.0
C2250 C 0.62236 0.65011 0.70433 0.0
C2251 C 0.61074 0.61966 0.6794 0.0
C2252 C 0.61348 0.60064 0.67244 0.0
C2253 C 0.62536 0.63128 0.69582 0.0
C2254 C 0.63122 0.59343 0.68178 0.0
C2255 C 0.64594 0.60498 0.6971 0.0
H2256 H 0.66953 0.38338 0.91292 0.0
H2257 H 0.6286 0.34041 0.9171 0.0
H2258 H 0.60585 0.36199 0.95563 0.0
H2259 H 0.59732 0.39292 0.98771 0.0
H2260 H 0.63705 0.43683 0.97761 0.0
H2261 H 0.66045 0.41511 0.94186 0.0
C2262 C 0.65564 0.37877 0.92241 0.0
C2263 C 0.65083 0.36025 0.91231 0.0
C2264 C 0.64238 0.39142 0.94348 0.0
C2265 C 0.63269 0.35456 0.9242 0.0
C2266 C 0.61965 0.36689 0.94641 0.0
C2267 C 0.61113 0.39777 0.97797 0.0
C2268 C 0.61546 0.41646 0.98587 0.0
C2269 C 0.62432 0.38533 0.95619 0.0
C2270 C 0.63334 0.42251 0.97201 0.0
C2271 C 0.64673 0.41009 0.95163 0.0
H2272 H 0.86963 0.34525 0.23506 0.0
H2273 H 0.82298 0.3812 0.2129 0.0
H2274 H 0.84339 0.40592 0.17872 0.0
H2275 H 0.87475 0.41728 0.15432 0.0
H2276 H 0.92078 0.38017 0.17116 0.0
H2277 H 0.90042 0.35609 0.20804 0.0
C2278 C 0.8639 0.35851 0.22304 0.0
C2279 C 0.84479 0.36137 0.22699 0.0
C2280 C 0.87566 0.37251 0.20223 0.0
C2281 C 0.83763 0.3786 0.21031 0.0
C2282 C 0.84931 0.39275 0.1908 0.0
C2283 C 0.8803 0.40393 0.16618 0.0
C2284 C 0.89932 0.40062 0.16006 0.0
C2285 C 0.86838 0.38987 0.18646 0.0
C2286 C 0.90623 0.38315 0.17513 0.0
C2287 C 0.89459 0.36933 0.19642 0.0
H2288 H 0.83283 0.62194 0.43763 0.0
H2289 H 0.87143 0.6669 0.42611 0.0
H2290 H 0.89642 0.64654 0.45566 0.0
H2291 H 0.90761 0.61596 0.48366 0.0
H2292 H 0.86973 0.57037 0.49001 0.0
H2293 H 0.84431 0.5909 0.46381 0.0
C2294 C 0.8467 0.62727 0.44175 0.0
C2295 C 0.85017 0.64597 0.42969 0.0
C2296 C 0.86121 0.61535 0.45784 0.0
C2297 C 0.8683 0.65259 0.43481 0.0
C2298 C 0.88265 0.64095 0.45187 0.0
C2299 C 0.89379 0.6105 0.47959 0.0
C2300 C 0.89062 0.59164 0.48908 0.0
C2301 C 0.87929 0.62231 0.46335 0.0
C2302 C 0.87261 0.58481 0.4829 0.0
C2303 C 0.85804 0.59656 0.46794 0.0
H2304 H 0.38922 0.41401 0.48616 0.0
H2305 H 0.43204 0.37313 0.49672 0.0
H2306 H 0.41058 0.34953 0.46212 0.0
H2307 H 0.37974 0.34063 0.42568 0.0
H2308 H 0.33769 0.38219 0.40918 0.0
H2309 H 0.35868 0.40526 0.44896 0.0
C2310 C 0.39381 0.3999 0.48145 0.0
C2311 C 0.41218 0.39535 0.49438 0.0
C2312 C 0.38153 0.38649 0.45995 0.0
C2313 C 0.41797 0.37703 0.48714 0.0
C2314 C 0.4057 0.36351 0.46726 0.0
C2315 C 0.37517 0.35472 0.43096 0.0
C2316 C 0.35714 0.35961 0.41439 0.0
C2317 C 0.38747 0.3681 0.45298 0.0
C2318 C 0.3515 0.378 0.4212 0.0
C2319 C 0.36349 0.39124 0.44415 0.0
H2320 H 0.34426 0.63564 0.23987 0.0
H2321 H 0.38119 0.68183 0.25311 0.0
H2322 H 0.40711 0.66221 0.22478 0.0
H2323 H 0.41935 0.63194 0.19481 0.0
H2324 H 0.38201 0.58628 0.17438 0.0
H2325 H 0.35633 0.60562 0.20631 0.0
C2326 C 0.35801 0.64137 0.23699 0.0
C2327 C 0.36079 0.66016 0.24919 0.0
C2328 C 0.37282 0.6301 0.21886 0.0
C2329 C 0.37866 0.66742 0.24411 0.0
C2330 C 0.3935 0.6562 0.22784 0.0
C2331 C 0.4056 0.62621 0.19735 0.0
C2332 C 0.4027 0.60761 0.18235 0.0
C2333 C 0.39076 0.63753 0.21481 0.0
C2334 C 0.3847 0.60053 0.18538 0.0
C2335 C 0.36998 0.61158 0.2039 0.0
H2336 H 0.12258 0.58904 0.96853 0.0
H2337 H 0.08184 0.63194 0.98165 0.0
H2338 H 0.10435 0.65452 0.94644 0.0
H2339 H 0.13552 0.66205 0.90979 0.0
H2340 H 0.17558 0.61867 0.89067 0.0
H2341 H 0.15347 0.59642 0.92985 0.0
C2342 C 0.11867 0.60336 0.96423 0.0
C2343 C 0.10056 0.60878 0.97826 0.0
C2344 C 0.13156 0.61621 0.94232 0.0
C2345 C 0.09568 0.62737 0.97135 0.0
C2346 C 0.10855 0.6403 0.9511 0.0
C2347 C 0.13943 0.64773 0.91421 0.0
C2348 C 0.15726 0.64212 0.8973 0.0
C2349 C 0.12651 0.63488 0.93603 0.0
C2350 C 0.16198 0.62344 0.90303 0.0
C2351 C 0.14934 0.61067 0.92568 0.0
H2352 H 0.12183 0.41396 0.67904 0.0
H2353 H 0.08073 0.37296 0.63998 0.0
H2354 H 0.10186 0.34865 0.67189 0.0
H2355 H 0.13214 0.33901 0.71156 0.0
H2356 H 0.17221 0.38048 0.75734 0.0
H2357 H 0.1514 0.40449 0.72274 0.0
C2358 C 0.11755 0.39969 0.67715 0.0
C2359 C 0.09979 0.39528 0.65655 0.0
C2360 C 0.12957 0.38582 0.69728 0.0
C2361 C 0.09434 0.37674 0.65547 0.0
C2362 C 0.10641 0.36282 0.67378 0.0
C2363 C 0.13628 0.3533 0.71415 0.0
C2364 C 0.15377 0.35786 0.73704 0.0
C2365 C 0.12407 0.36719 0.69498 0.0
C2366 C 0.15883 0.3765 0.74032 0.0
C2367 C 0.14695 0.3903 0.72024 0.0
loop_
_geom_bond_atom_site_label_1
_geom_bond_atom_site_label_2
_geom_bond_distance
_geom_bond_site_symmetry_2
_ccdc_geom_bond_type
Co0 O3 1.970 . S
Co0 N17 1.989 . S
Co0 O25 1.967 . S
Co0 O32 1.920 . S
Co1 O4 1.966 . S
Co1 N10 2.022 1_554 S
Co1 N18 1.993 . S
Co1 O26 1.941 . S
C2 O3 1.258 . S
C2 O4 1.263 . S
O3 Co0 1.970 . S
O3 C2 1.258 . S
O4 Co1 1.966 . S
O4 C2 1.263 . S
C5 O6 1.235 . S
C5 O32 1.289 . S
O6 C5 1.235 . S
C7 C9 1.400 . S
C7 N10 1.351 . S
C7 C12 1.501 1_556 S
C8 C9 1.387 . S
C8 N11 1.341 . S
C9 C7 1.400 . S
C9 C8 1.387 . S
N10 Co1 2.022 1_556 S
N10 C7 1.351 . S
N10 N11 1.365 . S
N11 C8 1.341 . S
N11 N10 1.365 . S
N11 H31 0.862 . S
C12 C7 1.501 1_554 S
C12 H13 0.961 . S
C12 H14 0.961 1_554 S
C12 H15 0.960 . S
H13 C12 0.961 . S
H14 C12 0.961 1_556 S
H15 C12 0.960 . S
C16 N17 1.342 . S
C16 C20 1.401 1_554 S
C16 C21 1.499 . S
N17 Co0 1.989 . S
N17 C16 1.342 . S
N17 N18 1.388 . S
N18 Co1 1.993 . S
N18 N17 1.388 . S
N18 C19 1.346 1_554 S
C19 N18 1.346 1_556 S
C19 C20 1.396 . S
C19 C29 1.510 . S
C20 C16 1.401 1_556 S
C20 C19 1.396 . S
C21 C16 1.499 . S
C21 H22 0.959 . S
C21 H23 0.960 . S
C21 H24 0.961 . S
H22 C21 0.959 . S
H23 C21 0.960 . S
H24 C21 0.961 . S
O25 Co0 1.967 . S
O25 C33 1.258 . S
O26 Co1 1.941 . S
O26 C33 1.266 . S
H27 C29 0.959 . S
H28 C29 0.961 . S
C29 C19 1.510 . S
C29 H27 0.959 . S
C29 H28 0.961 . S
C29 H30 0.960 . S
H30 C29 0.960 . S
H31 N11 0.862 . S
O32 Co0 1.920 . S
O32 C5 1.289 . S
C33 O25 1.258 . S
C33 O26 1.266 . S
Co34 O37 1.970 . S
Co34 N51 1.989 . S
Co34 O59 1.967 . S
Co34 O66 1.920 . S
Co35 O38 1.966 . S
Co35 N44 2.022 . S
Co35 N52 1.993 . S
Co35 O60 1.941 . S
C36 O37 1.258 . S
C36 O38 1.263 . S
O37 Co34 1.970 . S
O37 C36 1.258 . S
O38 Co35 1.966 . S
O38 C36 1.263 . S
C39 O40 1.235 . S
C39 O66 1.289 . S
O40 C39 1.235 . S
C41 C43 1.400 . S
C41 N44 1.351 . S
C41 C46 1.501 . S
C42 C43 1.387 . S
C42 N45 1.341 . S
C43 C41 1.400 . S
C43 C42 1.387 . S
N44 Co35 2.022 . S
N44 C41 1.351 . S
N44 N45 1.365 . S
N45 C42 1.341 . S
N45 N44 1.365 . S
N45 H65 0.862 . S
C46 C41 1.501 . S
C46 H47 0.961 . S
C46 H48 0.961 . S
C46 H49 0.960 . S
H47 C46 0.961 . S
H48 C46 0.961 . S
H49 C46 0.960 . S
C50 N51 1.342 . S
C50 C54 1.401 . S
C50 C55 1.499 . S
N51 Co34 1.989 . S
N51 C50 1.342 . S
N51 N52 1.388 . S
N52 Co35 1.993 . S
N52 N51 1.388 . S
N52 C53 1.346 . S
C53 N52 1.346 . S
C53 C54 1.396 . S
C53 C63 1.510 . S
C54 C50 1.401 . S
C54 C53 1.396 . S
C55 C50 1.499 . S
C55 H56 0.959 . S
C55 H57 0.960 . S
C55 H58 0.961 . S
H56 C55 0.959 . S
H57 C55 0.960 . S
H58 C55 0.961 . S
O59 Co34 1.967 . S
O59 C67 1.258 . S
O60 Co35 1.941 . S
O60 C67 1.266 . S
H61 C63 0.959 . S
H62 C63 0.961 . S
C63 C53 1.510 . S
C63 H61 0.959 . S
C63 H62 0.961 . S
C63 H64 0.960 . S
H64 C63 0.960 . S
H65 N45 0.862 . S
O66 Co34 1.920 . S
O66 C39 1.289 . S
C67 O59 1.258 . S
C67 O60 1.266 . S
Co68 O71 1.970 . S
Co68 N85 1.989 . S
Co68 O93 1.967 . S
Co68 O100 1.920 . S
Co69 O72 1.966 . S
Co69 N78 2.022 . S
Co69 N86 1.993 . S
Co69 O94 1.941 . S
C70 O71 1.258 . S
C70 O72 1.263 . S
O71 Co68 1.970 . S
O71 C70 1.258 . S
O72 Co69 1.966 . S
O72 C70 1.263 . S
C73 O74 1.235 . S
C73 O100 1.289 . S
O74 C73 1.235 . S
C75 C77 1.400 . S
C75 N78 1.351 . S
C75 C80 1.501 . S
C76 C77 1.387 . S
C76 N79 1.341 . S
C77 C75 1.400 . S
C77 C76 1.387 . S
N78 Co69 2.022 . S
N78 C75 1.351 . S
N78 N79 1.365 . S
N79 C76 1.341 . S
N79 N78 1.365 . S
N79 H99 0.862 . S
C80 C75 1.501 . S
C80 H81 0.961 . S
C80 H82 0.961 . S
C80 H83 0.960 . S
H81 C80 0.961 . S
H82 C80 0.961 . S
H83 C80 0.960 . S
C84 N85 1.342 . S
C84 C88 1.401 . S
C84 C89 1.499 . S
N85 Co68 1.989 . S
N85 C84 1.342 . S
N85 N86 1.388 . S
N86 Co69 1.993 . S
N86 N85 1.388 . S
N86 C87 1.346 . S
C87 N86 1.346 . S
C87 C88 1.396 . S
C87 C97 1.510 . S
C88 C84 1.401 . S
C88 C87 1.396 . S
C89 C84 1.499 . S
C89 H90 0.959 . S
C89 H91 0.960 . S
C89 H92 0.961 . S
H90 C89 0.959 . S
H91 C89 0.960 . S
H92 C89 0.961 . S
O93 Co68 1.967 . S
O93 C101 1.258 . S
O94 Co69 1.941 . S
O94 C101 1.266 . S
H95 C97 0.959 . S
H96 C97 0.961 . S
C97 C87 1.510 . S
C97 H95 0.959 . S
C97 H96 0.961 . S
C97 H98 0.960 . S
H98 C97 0.960 . S
H99 N79 0.862 . S
O100 Co68 1.920 . S
O100 C73 1.289 . S
C101 O93 1.258 . S
C101 O94 1.266 . S
Co102 O105 1.970 . S
Co102 N119 1.989 . S
Co102 O127 1.967 . S
Co102 O134 1.920 . S
Co103 O106 1.966 . S
Co103 N112 2.022 . S
Co103 N120 1.993 . S
Co103 O128 1.941 . S
C104 O105 1.258 . S
C104 O106 1.263 . S
O105 Co102 1.970 . S
O105 C104 1.258 . S
O106 Co103 1.966 . S
O106 C104 1.263 . S
C107 O108 1.235 . S
C107 O134 1.289 . S
O108 C107 1.235 . S
C109 C111 1.400 . S
C109 N112 1.351 . S
C109 C114 1.501 . S
C110 C111 1.387 . S
C110 N113 1.341 . S
C111 C109 1.400 . S
C111 C110 1.387 . S
N112 Co103 2.022 . S
N112 C109 1.351 . S
N112 N113 1.365 . S
N113 C110 1.341 . S
N113 N112 1.365 . S
N113 H133 0.862 . S
C114 C109 1.501 . S
C114 H115 0.961 . S
C114 H116 0.961 . S
C114 H117 0.960 . S
H115 C114 0.961 . S
H116 C114 0.961 . S
H117 C114 0.960 . S
C118 N119 1.342 . S
C118 C122 1.401 . S
C118 C123 1.499 . S
N119 Co102 1.989 . S
N119 C118 1.342 . S
N119 N120 1.388 . S
N120 Co103 1.993 . S
N120 N119 1.388 . S
N120 C121 1.346 . S
C121 N120 1.346 . S
C121 C122 1.396 . S
C121 C131 1.510 . S
C122 C118 1.401 . S
C122 C121 1.396 . S
C123 C118 1.499 . S
C123 H124 0.959 . S
C123 H125 0.960 . S
C123 H126 0.961 . S
H124 C123 0.959 . S
H125 C123 0.960 . S
H126 C123 0.961 . S
O127 Co102 1.967 . S
O127 C135 1.258 . S
O128 Co103 1.941 . S
O128 C135 1.266 . S
H129 C131 0.959 . S
H130 C131 0.961 . S
C131 C121 1.510 . S
C131 H129 0.959 . S
C131 H130 0.961 . S
C131 H132 0.960 . S
H132 C131 0.960 . S
H133 N113 0.862 . S
O134 Co102 1.920 . S
O134 C107 1.289 . S
C135 O127 1.258 . S
C135 O128 1.266 . S
Co136 O139 1.970 . S
Co136 N153 1.989 . S
Co136 O161 1.967 . S
Co136 O168 1.920 . S
Co137 O140 1.966 . S
Co137 N146 2.022 . S
Co137 N154 1.993 . S
Co137 O162 1.941 . S
C138 O139 1.258 . S
C138 O140 1.263 . S
O139 Co136 1.970 . S
O139 C138 1.258 . S
O140 Co137 1.966 . S
O140 C138 1.263 . S
C141 O142 1.235 . S
C141 O168 1.289 . S
O142 C141 1.235 . S
C143 C145 1.400 . S
C143 N146 1.351 . S
C143 C148 1.501 . S
C144 C145 1.387 . S
C144 N147 1.341 . S
C145 C143 1.400 . S
C145 C144 1.387 . S
N146 Co137 2.022 . S
N146 C143 1.351 . S
N146 N147 1.365 . S
N147 C144 1.341 . S
N147 N146 1.365 . S
N147 H167 0.862 . S
C148 C143 1.501 . S
C148 H149 0.961 . S
C148 H150 0.961 . S
C148 H151 0.960 . S
H149 C148 0.961 . S
H150 C148 0.961 . S
H151 C148 0.960 . S
C152 N153 1.342 . S
C152 C156 1.401 . S
C152 C157 1.499 . S
N153 Co136 1.989 . S
N153 C152 1.342 . S
N153 N154 1.388 . S
N154 Co137 1.993 . S
N154 N153 1.388 . S
N154 C155 1.346 . S
C155 N154 1.346 . S
C155 C156 1.396 . S
C155 C165 1.510 . S
C156 C152 1.401 . S
C156 C155 1.396 . S
C157 C152 1.499 . S
C157 H158 0.959 . S
C157 H159 0.960 . S
C157 H160 0.961 . S
H158 C157 0.959 . S
H159 C157 0.960 . S
H160 C157 0.961 . S
O161 Co136 1.967 . S
O161 C169 1.258 . S
O162 Co137 1.941 . S
O162 C169 1.266 . S
H163 C165 0.959 . S
H164 C165 0.961 . S
C165 C155 1.510 . S
C165 H163 0.959 . S
C165 H164 0.961 . S
C165 H166 0.960 . S
H166 C165 0.960 . S
H167 N147 0.862 . S
O168 Co136 1.920 . S
O168 C141 1.289 . S
C169 O161 1.258 . S
C169 O162 1.266 . S
Co170 O173 1.970 . S
Co170 N187 1.989 . S
Co170 O195 1.967 . S
Co170 O202 1.920 . S
Co171 O174 1.966 . S
Co171 N180 2.022 . S
Co171 N188 1.993 . S
Co171 O196 1.941 . S
C172 O173 1.258 . S
C172 O174 1.263 . S
O173 Co170 1.970 . S
O173 C172 1.258 . S
O174 Co171 1.966 . S
O174 C172 1.263 . S
C175 O176 1.235 . S
C175 O202 1.289 . S
O176 C175 1.235 . S
C177 C179 1.400 . S
C177 N180 1.351 . S
C177 C182 1.501 . S
C178 C179 1.387 . S
C178 N181 1.341 . S
C179 C177 1.400 . S
C179 C178 1.387 . S
N180 Co171 2.022 . S
N180 C177 1.351 . S
N180 N181 1.365 . S
N181 C178 1.341 . S
N181 N180 1.365 . S
N181 H201 0.862 . S
C182 C177 1.501 . S
C182 H183 0.961 . S
C182 H184 0.961 . S
C182 H185 0.960 . S
H183 C182 0.961 . S
H184 C182 0.961 . S
H185 C182 0.960 . S
C186 N187 1.342 . S
C186 C190 1.401 . S
C186 C191 1.499 . S
N187 Co170 1.989 . S
N187 C186 1.342 . S
N187 N188 1.388 . S
N188 Co171 1.993 . S
N188 N187 1.388 . S
N188 C189 1.346 . S
C189 N188 1.346 . S
C189 C190 1.396 . S
C189 C199 1.510 . S
C190 C186 1.401 . S
C190 C189 1.396 . S
C191 C186 1.499 . S
C191 H192 0.959 . S
C191 H193 0.960 . S
C191 H194 0.961 . S
H192 C191 0.959 . S
H193 C191 0.960 . S
H194 C191 0.961 . S
O195 Co170 1.967 . S
O195 C203 1.258 . S
O196 Co171 1.941 . S
O196 C203 1.266 . S
H197 C199 0.959 . S
H198 C199 0.961 . S
C199 C189 1.510 . S
C199 H197 0.959 . S
C199 H198 0.961 . S
C199 H200 0.960 . S
H200 C199 0.960 . S
H201 N181 0.862 . S
O202 Co170 1.920 . S
O202 C175 1.289 . S
C203 O195 1.258 . S
C203 O196 1.266 . S
Co204 O207 1.970 . S
Co204 N221 1.989 1_556 S
Co204 O229 1.967 . S
Co204 O236 1.920 . S
Co205 O208 1.966 . S
Co205 N214 2.022 . S
Co205 N222 1.993 . S
Co205 O230 1.941 . S
C206 O207 1.258 . S
C206 O208 1.263 1_556 S
O207 Co204 1.970 . S
O207 C206 1.258 . S
O208 Co205 1.966 . S
O208 C206 1.263 1_554 S
C209 O210 1.235 . S
C209 O236 1.289 . S
O210 C209 1.235 . S
C211 C213 1.400 . S
C211 N214 1.351 . S
C211 C216 1.501 . S
C212 C213 1.387 . S
C212 N215 1.341 . S
C213 C211 1.400 . S
C213 C212 1.387 . S
N214 Co205 2.022 . S
N214 C211 1.351 . S
N214 N215 1.365 . S
N215 C212 1.341 . S
N215 N214 1.365 . S
N215 H235 0.862 . S
C216 C211 1.501 . S
C216 H217 0.961 . S
C216 H218 0.961 . S
C216 H219 0.960 . S
H217 C216 0.961 . S
H218 C216 0.961 . S
H219 C216 0.960 . S
C220 N221 1.342 . S
C220 C224 1.401 . S
C220 C225 1.499 . S
N221 Co204 1.989 1_554 S
N221 C220 1.342 . S
N221 N222 1.388 . S
N222 Co205 1.993 . S
N222 N221 1.388 . S
N222 C223 1.346 . S
C223 N222 1.346 . S
C223 C224 1.396 . S
C223 C233 1.510 . S
C224 C220 1.401 . S
C224 C223 1.396 . S
C225 C220 1.499 . S
C225 H226 0.959 . S
C225 H227 0.960 . S
C225 H228 0.961 . S
H226 C225 0.959 . S
H227 C225 0.960 . S
H228 C225 0.961 . S
O229 Co204 1.967 . S
O229 C237 1.258 1_556 S
O230 Co205 1.941 . S
O230 C237 1.266 . S
H231 C233 0.959 . S
H232 C233 0.961 . S
C233 C223 1.510 . S
C233 H231 0.959 . S
C233 H232 0.961 . S
C233 H234 0.960 . S
H234 C233 0.960 . S
H235 N215 0.862 . S
O236 Co204 1.920 . S
O236 C209 1.289 . S
C237 O229 1.258 1_554 S
C237 O230 1.266 . S
Co238 O241 1.970 . S
Co238 N255 1.989 . S
Co238 O263 1.967 . S
Co238 O270 1.920 . S
Co239 O242 1.966 . S
Co239 N248 2.022 . S
Co239 N256 1.993 . S
Co239 O264 1.941 . S
C240 O241 1.258 . S
C240 O242 1.263 . S
O241 Co238 1.970 . S
O241 C240 1.258 . S
O242 Co239 1.966 . S
O242 C240 1.263 . S
C243 O244 1.235 . S
C243 O270 1.289 . S
O244 C243 1.235 . S
C245 C247 1.400 . S
C245 N248 1.351 . S
C245 C250 1.501 . S
C246 C247 1.387 . S
C246 N249 1.341 . S
C247 C245 1.400 . S
C247 C246 1.387 . S
N248 Co239 2.022 . S
N248 C245 1.351 . S
N248 N249 1.365 . S
N249 C246 1.341 . S
N249 N248 1.365 . S
N249 H269 0.862 . S
C250 C245 1.501 . S
C250 H251 0.961 . S
C250 H252 0.961 . S
C250 H253 0.960 . S
H251 C250 0.961 . S
H252 C250 0.961 . S
H253 C250 0.960 . S
C254 N255 1.342 . S
C254 C258 1.401 . S
C254 C259 1.499 . S
N255 Co238 1.989 . S
N255 C254 1.342 . S
N255 N256 1.388 . S
N256 Co239 1.993 . S
N256 N255 1.388 . S
N256 C257 1.346 . S
C257 N256 1.346 . S
C257 C258 1.396 . S
C257 C267 1.510 . S
C258 C254 1.401 . S
C258 C257 1.396 . S
C259 C254 1.499 . S
C259 H260 0.959 . S
C259 H261 0.960 . S
C259 H262 0.961 . S
H260 C259 0.959 . S
H261 C259 0.960 . S
H262 C259 0.961 . S
O263 Co238 1.967 . S
O263 C271 1.258 . S
O264 Co239 1.941 . S
O264 C271 1.266 . S
H265 C267 0.959 . S
H266 C267 0.961 . S
C267 C257 1.510 . S
C267 H265 0.959 . S
C267 H266 0.961 . S
C267 H268 0.960 . S
H268 C267 0.960 . S
H269 N249 0.862 . S
O270 Co238 1.920 . S
O270 C243 1.289 . S
C271 O263 1.258 . S
C271 O264 1.266 . S
Co272 O275 1.970 . S
Co272 N289 1.989 1_556 S
Co272 O297 1.967 . S
Co272 O304 1.920 . S
Co273 O276 1.966 . S
Co273 N282 2.022 . S
Co273 N290 1.993 . S
Co273 O298 1.941 . S
C274 O275 1.258 . S
C274 O276 1.263 1_556 S
O275 Co272 1.970 . S
O275 C274 1.258 . S
O276 Co273 1.966 . S
O276 C274 1.263 1_554 S
C277 O278 1.235 . S
C277 O304 1.289 . S
O278 C277 1.235 . S
C279 C281 1.400 . S
C279 N282 1.351 . S
C279 C284 1.501 . S
C280 C281 1.387 . S
C280 N283 1.341 . S
C281 C279 1.400 . S
C281 C280 1.387 . S
N282 Co273 2.022 . S
N282 C279 1.351 . S
N282 N283 1.365 . S
N283 C280 1.341 . S
N283 N282 1.365 . S
N283 H303 0.862 . S
C284 C279 1.501 . S
C284 H285 0.961 . S
C284 H286 0.961 . S
C284 H287 0.960 . S
H285 C284 0.961 . S
H286 C284 0.961 . S
H287 C284 0.960 . S
C288 N289 1.342 . S
C288 C292 1.401 . S
C288 C293 1.499 . S
N289 Co272 1.989 1_554 S
N289 C288 1.342 . S
N289 N290 1.388 . S
N290 Co273 1.993 . S
N290 N289 1.388 . S
N290 C291 1.346 . S
C291 N290 1.346 . S
C291 C292 1.396 . S
C291 C301 1.510 . S
C292 C288 1.401 . S
C292 C291 1.396 . S
C293 C288 1.499 . S
C293 H294 0.959 . S
C293 H295 0.960 . S
C293 H296 0.961 . S
H294 C293 0.959 . S
H295 C293 0.960 . S
H296 C293 0.961 . S
O297 Co272 1.967 . S
O297 C305 1.258 1_556 S
O298 Co273 1.941 . S
O298 C305 1.266 . S
H299 C301 0.959 . S
H300 C301 0.961 . S
C301 C291 1.510 . S
C301 H299 0.959 . S
C301 H300 0.961 . S
C301 H302 0.960 . S
H302 C301 0.960 . S
H303 N283 0.862 . S
O304 Co272 1.920 . S
O304 C277 1.289 . S
C305 O297 1.258 1_554 S
C305 O298 1.266 . S
Co306 O309 1.970 . S
Co306 N323 1.989 . S
Co306 O331 1.967 . S
Co306 O338 1.920 . S
Co307 O310 1.966 . S
Co307 N316 2.022 . S
Co307 N324 1.993 . S
Co307 O332 1.941 . S
C308 O309 1.258 . S
C308 O310 1.263 . S
O309 Co306 1.970 . S
O309 C308 1.258 . S
O310 Co307 1.966 . S
O310 C308 1.263 . S
C311 O312 1.235 . S
C311 O338 1.289 . S
O312 C311 1.235 . S
C313 C315 1.400 . S
C313 N316 1.351 . S
C313 C318 1.501 . S
C314 C315 1.387 . S
C314 N317 1.341 . S
C315 C313 1.400 . S
C315 C314 1.387 . S
N316 Co307 2.022 . S
N316 C313 1.351 . S
N316 N317 1.365 . S
N317 C314 1.341 . S
N317 N316 1.365 . S
N317 H337 0.862 . S
C318 C313 1.501 . S
C318 H319 0.961 . S
C318 H320 0.961 . S
C318 H321 0.960 . S
H319 C318 0.961 . S
H320 C318 0.961 . S
H321 C318 0.960 . S
C322 N323 1.342 . S
C322 C326 1.401 . S
C322 C327 1.499 . S
N323 Co306 1.989 . S
N323 C322 1.342 . S
N323 N324 1.388 . S
N324 Co307 1.993 . S
N324 N323 1.388 . S
N324 C325 1.346 . S
C325 N324 1.346 . S
C325 C326 1.396 . S
C325 C335 1.510 . S
C326 C322 1.401 . S
C326 C325 1.396 . S
C327 C322 1.499 . S
C327 H328 0.959 . S
C327 H329 0.960 . S
C327 H330 0.961 . S
H328 C327 0.959 . S
H329 C327 0.960 . S
H330 C327 0.961 . S
O331 Co306 1.967 . S
O331 C339 1.258 . S
O332 Co307 1.941 . S
O332 C339 1.266 . S
H333 C335 0.959 . S
H334 C335 0.961 . S
C335 C325 1.510 . S
C335 H333 0.959 . S
C335 H334 0.961 . S
C335 H336 0.960 . S
H336 C335 0.960 . S
H337 N317 0.862 . S
O338 Co306 1.920 . S
O338 C311 1.289 . S
C339 O331 1.258 . S
C339 O332 1.266 . S
Co340 O343 1.970 . S
Co340 N357 1.989 . S
Co340 O365 1.967 . S
Co340 O372 1.920 . S
Co341 O344 1.966 . S
Co341 N350 2.022 . S
Co341 N358 1.993 . S
Co341 O366 1.941 . S
C342 O343 1.258 . S
C342 O344 1.263 . S
O343 Co340 1.970 . S
O343 C342 1.258 . S
O344 Co341 1.966 . S
O344 C342 1.263 . S
C345 O346 1.235 . S
C345 O372 1.289 . S
O346 C345 1.235 . S
C347 C349 1.400 . S
C347 N350 1.351 . S
C347 C352 1.501 . S
C348 C349 1.387 . S
C348 N351 1.341 . S
C349 C347 1.400 . S
C349 C348 1.387 . S
N350 Co341 2.022 . S
N350 C347 1.351 . S
N350 N351 1.365 . S
N351 C348 1.341 . S
N351 N350 1.365 . S
N351 H371 0.862 . S
C352 C347 1.501 . S
C352 H353 0.961 . S
C352 H354 0.961 . S
C352 H355 0.960 . S
H353 C352 0.961 . S
H354 C352 0.961 . S
H355 C352 0.960 . S
C356 N357 1.342 . S
C356 C360 1.401 . S
C356 C361 1.499 . S
N357 Co340 1.989 . S
N357 C356 1.342 . S
N357 N358 1.388 . S
N358 Co341 1.993 . S
N358 N357 1.388 . S
N358 C359 1.346 . S
C359 N358 1.346 . S
C359 C360 1.396 . S
C359 C369 1.510 . S
C360 C356 1.401 . S
C360 C359 1.396 . S
C361 C356 1.499 . S
C361 H362 0.959 . S
C361 H363 0.960 . S
C361 H364 0.961 . S
H362 C361 0.959 . S
H363 C361 0.960 . S
H364 C361 0.961 . S
O365 Co340 1.967 . S
O365 C373 1.258 . S
O366 Co341 1.941 . S
O366 C373 1.266 . S
H367 C369 0.959 . S
H368 C369 0.961 . S
C369 C359 1.510 . S
C369 H367 0.959 . S
C369 H368 0.961 . S
C369 H370 0.960 . S
H370 C369 0.960 . S
H371 N351 0.862 . S
O372 Co340 1.920 . S
O372 C345 1.289 . S
C373 O365 1.258 . S
C373 O366 1.266 . S
Co374 O377 1.970 . S
Co374 N391 1.989 . S
Co374 O399 1.967 . S
Co374 O406 1.920 . S
Co375 O378 1.966 . S
Co375 N384 2.022 . S
Co375 N392 1.993 . S
Co375 O400 1.941 . S
C376 O377 1.258 . S
C376 O378 1.263 . S
O377 Co374 1.970 . S
O377 C376 1.258 . S
O378 Co375 1.966 . S
O378 C376 1.263 . S
C379 O380 1.235 . S
C379 O406 1.289 . S
O380 C379 1.235 . S
C381 C383 1.400 . S
C381 N384 1.351 . S
C381 C386 1.501 . S
C382 C383 1.387 . S
C382 N385 1.341 . S
C383 C381 1.400 . S
C383 C382 1.387 . S
N384 Co375 2.022 . S
N384 C381 1.351 . S
N384 N385 1.365 . S
N385 C382 1.341 . S
N385 N384 1.365 . S
N385 H405 0.862 . S
C386 C381 1.501 . S
C386 H387 0.961 . S
C386 H388 0.961 . S
C386 H389 0.960 . S
H387 C386 0.961 . S
H388 C386 0.961 . S
H389 C386 0.960 . S
C390 N391 1.342 . S
C390 C394 1.401 . S
C390 C395 1.499 . S
N391 Co374 1.989 . S
N391 C390 1.342 . S
N391 N392 1.388 . S
N392 Co375 1.993 . S
N392 N391 1.388 . S
N392 C393 1.346 . S
C393 N392 1.346 . S
C393 C394 1.396 . S
C393 C403 1.510 . S
C394 C390 1.401 . S
C394 C393 1.396 . S
C395 C390 1.499 . S
C395 H396 0.959 . S
C395 H397 0.960 . S
C395 H398 0.961 . S
H396 C395 0.959 . S
H397 C395 0.960 . S
H398 C395 0.961 . S
O399 Co374 1.967 . S
O399 C407 1.258 . S
O400 Co375 1.941 . S
O400 C407 1.266 . S
H401 C403 0.959 . S
H402 C403 0.961 . S
C403 C393 1.510 . S
C403 H401 0.959 . S
C403 H402 0.961 . S
C403 H404 0.960 . S
H404 C403 0.960 . S
H405 N385 0.862 . S
O406 Co374 1.920 . S
O406 C379 1.289 . S
C407 O399 1.258 . S
C407 O400 1.266 . S
Co408 O411 1.970 . S
Co408 N425 1.989 . S
Co408 O433 1.967 . S
Co408 O440 1.920 . S
Co409 O412 1.966 . S
Co409 N418 2.022 . S
Co409 N426 1.993 . S
Co409 O434 1.941 . S
C410 O411 1.258 . S
C410 O412 1.263 . S
O411 Co408 1.970 . S
O411 C410 1.258 . S
O412 Co409 1.966 . S
O412 C410 1.263 . S
C413 O414 1.235 . S
C413 O440 1.289 . S
O414 C413 1.235 . S
C415 C417 1.400 . S
C415 N418 1.351 . S
C415 C420 1.501 . S
C416 C417 1.387 . S
C416 N419 1.341 . S
C417 C415 1.400 . S
C417 C416 1.387 . S
N418 Co409 2.022 . S
N418 C415 1.351 . S
N418 N419 1.365 . S
N419 C416 1.341 . S
N419 N418 1.365 . S
N419 H439 0.862 . S
C420 C415 1.501 . S
C420 H421 0.961 . S
C420 H422 0.961 . S
C420 H423 0.960 . S
H421 C420 0.961 . S
H422 C420 0.961 . S
H423 C420 0.960 . S
C424 N425 1.342 . S
C424 C428 1.401 . S
C424 C429 1.499 . S
N425 Co408 1.989 . S
N425 C424 1.342 . S
N425 N426 1.388 . S
N426 Co409 1.993 . S
N426 N425 1.388 . S
N426 C427 1.346 . S
C427 N426 1.346 . S
C427 C428 1.396 . S
C427 C437 1.510 . S
C428 C424 1.401 . S
C428 C427 1.396 . S
C429 C424 1.499 . S
C429 H430 0.959 . S
C429 H431 0.960 . S
C429 H432 0.961 . S
H430 C429 0.959 . S
H431 C429 0.960 . S
H432 C429 0.961 . S
O433 Co408 1.967 . S
O433 C441 1.258 . S
O434 Co409 1.941 . S
O434 C441 1.266 . S
H435 C437 0.959 . S
H436 C437 0.961 . S
C437 C427 1.510 . S
C437 H435 0.959 . S
C437 H436 0.961 . S
C437 H438 0.960 . S
H438 C437 0.960 . S
H439 N419 0.862 . S
O440 Co408 1.920 . S
O440 C413 1.289 . S
C441 O433 1.258 . S
C441 O434 1.266 . S
Co442 O445 1.970 . S
Co442 N459 1.989 . S
Co442 O467 1.967 . S
Co442 O474 1.920 . S
Co443 O446 1.966 . S
Co443 N452 2.022 . S
Co443 N460 1.993 . S
Co443 O468 1.941 . S
C444 O445 1.258 . S
C444 O446 1.263 . S
O445 Co442 1.970 . S
O445 C444 1.258 . S
O446 Co443 1.966 . S
O446 C444 1.263 . S
C447 O448 1.235 . S
C447 O474 1.289 . S
O448 C447 1.235 . S
C449 C451 1.400 . S
C449 N452 1.351 . S
C449 C454 1.501 . S
C450 C451 1.387 . S
C450 N453 1.341 . S
C451 C449 1.400 . S
C451 C450 1.387 . S
N452 Co443 2.022 . S
N452 C449 1.351 . S
N452 N453 1.365 . S
N453 C450 1.341 . S
N453 N452 1.365 . S
N453 H473 0.862 . S
C454 C449 1.501 . S
C454 H455 0.961 . S
C454 H456 0.961 . S
C454 H457 0.960 . S
H455 C454 0.961 . S
H456 C454 0.961 . S
H457 C454 0.960 . S
C458 N459 1.342 . S
C458 C462 1.401 . S
C458 C463 1.499 . S
N459 Co442 1.989 . S
N459 C458 1.342 . S
N459 N460 1.388 . S
N460 Co443 1.993 . S
N460 N459 1.388 . S
N460 C461 1.346 . S
C461 N460 1.346 . S
C461 C462 1.396 . S
C461 C471 1.510 . S
C462 C458 1.401 . S
C462 C461 1.396 . S
C463 C458 1.499 . S
C463 H464 0.959 . S
C463 H465 0.960 . S
C463 H466 0.961 . S
H464 C463 0.959 . S
H465 C463 0.960 . S
H466 C463 0.961 . S
O467 Co442 1.967 . S
O467 C475 1.258 . S
O468 Co443 1.941 . S
O468 C475 1.266 . S
H469 C471 0.959 . S
H470 C471 0.961 . S
C471 C461 1.510 . S
C471 H469 0.959 . S
C471 H470 0.961 . S
C471 H472 0.960 . S
H472 C471 0.960 . S
H473 N453 0.862 . S
O474 Co442 1.920 . S
O474 C447 1.289 . S
C475 O467 1.258 . S
C475 O468 1.266 . S
Co476 O479 1.970 . S
Co476 N493 1.989 . S
Co476 O501 1.967 . S
Co476 O508 1.920 . S
Co477 O480 1.966 . S
Co477 N486 2.022 1_554 S
Co477 N494 1.993 . S
Co477 O502 1.941 . S
C478 O479 1.258 . S
C478 O480 1.263 . S
O479 Co476 1.970 . S
O479 C478 1.258 . S
O480 Co477 1.966 . S
O480 C478 1.263 . S
C481 O482 1.235 . S
C481 O508 1.289 . S
O482 C481 1.235 . S
C483 C485 1.400 . S
C483 N486 1.351 . S
C483 C488 1.501 1_556 S
C484 C485 1.387 . S
C484 N487 1.341 . S
C485 C483 1.400 . S
C485 C484 1.387 . S
N486 Co477 2.022 1_556 S
N486 C483 1.351 . S
N486 N487 1.365 . S
N487 C484 1.341 . S
N487 N486 1.365 . S
N487 H507 0.862 . S
C488 C483 1.501 1_554 S
C488 H489 0.961 . S
C488 H490 0.961 1_554 S
C488 H491 0.960 . S
H489 C488 0.961 . S
H490 C488 0.961 1_556 S
H491 C488 0.960 . S
C492 N493 1.342 . S
C492 C496 1.401 1_554 S
C492 C497 1.499 . S
N493 Co476 1.989 . S
N493 C492 1.342 . S
N493 N494 1.388 . S
N494 Co477 1.993 . S
N494 N493 1.388 . S
N494 C495 1.346 1_554 S
C495 N494 1.346 1_556 S
C495 C496 1.396 . S
C495 C505 1.510 . S
C496 C492 1.401 1_556 S
C496 C495 1.396 . S
C497 C492 1.499 . S
C497 H498 0.959 . S
C497 H499 0.960 . S
C497 H500 0.961 . S
H498 C497 0.959 . S
H499 C497 0.960 . S
H500 C497 0.961 . S
O501 Co476 1.967 . S
O501 C509 1.258 . S
O502 Co477 1.941 . S
O502 C509 1.266 . S
H503 C505 0.959 . S
H504 C505 0.961 . S
C505 C495 1.510 . S
C505 H503 0.959 . S
C505 H504 0.961 . S
C505 H506 0.960 . S
H506 C505 0.960 . S
H507 N487 0.862 . S
O508 Co476 1.920 . S
O508 C481 1.289 . S
C509 O501 1.258 . S
C509 O502 1.266 . S
Co510 O513 1.970 . S
Co510 N527 1.989 . S
Co510 O535 1.967 . S
Co510 O542 1.920 . S
Co511 O514 1.966 . S
Co511 N520 2.022 . S
Co511 N528 1.993 . S
Co511 O536 1.941 . S
C512 O513 1.258 . S
C512 O514 1.263 . S
O513 Co510 1.970 . S
O513 C512 1.258 . S
O514 Co511 1.966 . S
O514 C512 1.263 . S
C515 O516 1.235 . S
C515 O542 1.289 . S
O516 C515 1.235 . S
C517 C519 1.400 . S
C517 N520 1.351 . S
C517 C522 1.501 . S
C518 C519 1.387 . S
C518 N521 1.341 . S
C519 C517 1.400 . S
C519 C518 1.387 . S
N520 Co511 2.022 . S
N520 C517 1.351 . S
N520 N521 1.365 . S
N521 C518 1.341 . S
N521 N520 1.365 . S
N521 H541 0.862 . S
C522 C517 1.501 . S
C522 H523 0.961 . S
C522 H524 0.961 . S
C522 H525 0.960 . S
H523 C522 0.961 . S
H524 C522 0.961 . S
H525 C522 0.960 . S
C526 N527 1.342 . S
C526 C530 1.401 . S
C526 C531 1.499 . S
N527 Co510 1.989 . S
N527 C526 1.342 . S
N527 N528 1.388 . S
N528 Co511 1.993 . S
N528 N527 1.388 . S
N528 C529 1.346 . S
C529 N528 1.346 . S
C529 C530 1.396 . S
C529 C539 1.510 . S
C530 C526 1.401 . S
C530 C529 1.396 . S
C531 C526 1.499 . S
C531 H532 0.959 . S
C531 H533 0.960 . S
C531 H534 0.961 . S
H532 C531 0.959 . S
H533 C531 0.960 . S
H534 C531 0.961 . S
O535 Co510 1.967 . S
O535 C543 1.258 . S
O536 Co511 1.941 . S
O536 C543 1.266 . S
H537 C539 0.959 . S
H538 C539 0.961 . S
C539 C529 1.510 . S
C539 H537 0.959 . S
C539 H538 0.961 . S
C539 H540 0.960 . S
H540 C539 0.960 . S
H541 N521 0.862 . S
O542 Co510 1.920 . S
O542 C515 1.289 . S
C543 O535 1.258 . S
C543 O536 1.266 . S
Co544 O547 1.970 . S
Co544 N561 1.989 . S
Co544 O569 1.967 . S
Co544 O576 1.920 . S
Co545 O548 1.966 . S
Co545 N554 2.022 . S
Co545 N562 1.993 . S
Co545 O570 1.941 . S
C546 O547 1.258 . S
C546 O548 1.263 . S
O547 Co544 1.970 . S
O547 C546 1.258 . S
O548 Co545 1.966 . S
O548 C546 1.263 . S
C549 O550 1.235 . S
C549 O576 1.289 . S
O550 C549 1.235 . S
C551 C553 1.400 . S
C551 N554 1.351 . S
C551 C556 1.501 . S
C552 C553 1.387 . S
C552 N555 1.341 . S
C553 C551 1.400 . S
C553 C552 1.387 . S
N554 Co545 2.022 . S
N554 C551 1.351 . S
N554 N555 1.365 . S
N555 C552 1.341 . S
N555 N554 1.365 . S
N555 H575 0.862 . S
C556 C551 1.501 . S
C556 H557 0.961 . S
C556 H558 0.961 . S
C556 H559 0.960 . S
H557 C556 0.961 . S
H558 C556 0.961 . S
H559 C556 0.960 . S
C560 N561 1.342 . S
C560 C564 1.401 . S
C560 C565 1.499 . S
N561 Co544 1.989 . S
N561 C560 1.342 . S
N561 N562 1.388 . S
N562 Co545 1.993 . S
N562 N561 1.388 . S
N562 C563 1.346 . S
C563 N562 1.346 . S
C563 C564 1.396 . S
C563 C573 1.510 . S
C564 C560 1.401 . S
C564 C563 1.396 . S
C565 C560 1.499 . S
C565 H566 0.959 . S
C565 H567 0.960 . S
C565 H568 0.961 . S
H566 C565 0.959 . S
H567 C565 0.960 . S
H568 C565 0.961 . S
O569 Co544 1.967 . S
O569 C577 1.258 . S
O570 Co545 1.941 . S
O570 C577 1.266 . S
H571 C573 0.959 . S
H572 C573 0.961 . S
C573 C563 1.510 . S
C573 H571 0.959 . S
C573 H572 0.961 . S
C573 H574 0.960 . S
H574 C573 0.960 . S
H575 N555 0.862 . S
O576 Co544 1.920 . S
O576 C549 1.289 . S
C577 O569 1.258 . S
C577 O570 1.266 . S
Co578 O581 1.970 . S
Co578 N595 1.989 . S
Co578 O603 1.967 . S
Co578 O610 1.920 . S
Co579 O582 1.966 . S
Co579 N588 2.022 . S
Co579 N596 1.993 . S
Co579 O604 1.941 . S
C580 O581 1.258 . S
C580 O582 1.263 . S
O581 Co578 1.970 . S
O581 C580 1.258 . S
O582 Co579 1.966 . S
O582 C580 1.263 . S
C583 O584 1.235 . S
C583 O610 1.289 . S
O584 C583 1.235 . S
C585 C587 1.400 . S
C585 N588 1.351 . S
C585 C590 1.501 . S
C586 C587 1.387 . S
C586 N589 1.341 . S
C587 C585 1.400 . S
C587 C586 1.387 . S
N588 Co579 2.022 . S
N588 C585 1.351 . S
N588 N589 1.365 . S
N589 C586 1.341 . S
N589 N588 1.365 . S
N589 H609 0.862 . S
C590 C585 1.501 . S
C590 H591 0.961 . S
C590 H592 0.961 . S
C590 H593 0.960 . S
H591 C590 0.961 . S
H592 C590 0.961 . S
H593 C590 0.960 . S
C594 N595 1.342 . S
C594 C598 1.401 . S
C594 C599 1.499 . S
N595 Co578 1.989 . S
N595 C594 1.342 . S
N595 N596 1.388 . S
N596 Co579 1.993 . S
N596 N595 1.388 . S
N596 C597 1.346 . S
C597 N596 1.346 . S
C597 C598 1.396 . S
C597 C607 1.510 . S
C598 C594 1.401 . S
C598 C597 1.396 . S
C599 C594 1.499 . S
C599 H600 0.959 . S
C599 H601 0.960 . S
C599 H602 0.961 . S
H600 C599 0.959 . S
H601 C599 0.960 . S
H602 C599 0.961 . S
O603 Co578 1.967 . S
O603 C611 1.258 . S
O604 Co579 1.941 . S
O604 C611 1.266 . S
H605 C607 0.959 . S
H606 C607 0.961 . S
C607 C597 1.510 . S
C607 H605 0.959 . S
C607 H606 0.961 . S
C607 H608 0.960 . S
H608 C607 0.960 . S
H609 N589 0.862 . S
O610 Co578 1.920 . S
O610 C583 1.289 . S
C611 O603 1.258 . S
C611 O604 1.266 . S
Co612 O615 1.970 . S
Co612 N629 1.989 . S
Co612 O637 1.967 . S
Co612 O644 1.920 . S
Co613 O616 1.966 . S
Co613 N622 2.022 1_554 S
Co613 N630 1.993 . S
Co613 O638 1.941 . S
C614 O615 1.258 . S
C614 O616 1.263 . S
O615 Co612 1.970 . S
O615 C614 1.258 . S
O616 Co613 1.966 . S
O616 C614 1.263 . S
C617 O618 1.235 . S
C617 O644 1.289 . S
O618 C617 1.235 . S
C619 C621 1.400 . S
C619 N622 1.351 . S
C619 C624 1.501 1_556 S
C620 C621 1.387 . S
C620 N623 1.341 . S
C621 C619 1.400 . S
C621 C620 1.387 . S
N622 Co613 2.022 1_556 S
N622 C619 1.351 . S
N622 N623 1.365 . S
N623 C620 1.341 . S
N623 N622 1.365 . S
N623 H643 0.862 . S
C624 C619 1.501 1_554 S
C624 H625 0.961 . S
C624 H626 0.961 1_554 S
C624 H627 0.960 . S
H625 C624 0.961 . S
H626 C624 0.961 1_556 S
H627 C624 0.960 . S
C628 N629 1.342 . S
C628 C632 1.401 1_554 S
C628 C633 1.499 . S
N629 Co612 1.989 . S
N629 C628 1.342 . S
N629 N630 1.388 . S
N630 Co613 1.993 . S
N630 N629 1.388 . S
N630 C631 1.346 1_554 S
C631 N630 1.346 1_556 S
C631 C632 1.396 . S
C631 C641 1.510 . S
C632 C628 1.401 1_556 S
C632 C631 1.396 . S
C633 C628 1.499 . S
C633 H634 0.959 . S
C633 H635 0.960 . S
C633 H636 0.961 . S
H634 C633 0.959 . S
H635 C633 0.960 . S
H636 C633 0.961 . S
O637 Co612 1.967 . S
O637 C645 1.258 . S
O638 Co613 1.941 . S
O638 C645 1.266 . S
H639 C641 0.959 . S
H640 C641 0.961 . S
C641 C631 1.510 . S
C641 H639 0.959 . S
C641 H640 0.961 . S
C641 H642 0.960 . S
H642 C641 0.960 . S
H643 N623 0.862 . S
O644 Co612 1.920 . S
O644 C617 1.289 . S
C645 O637 1.258 . S
C645 O638 1.266 . S
Co646 O649 1.970 . S
Co646 N663 1.989 . S
Co646 O671 1.967 . S
Co646 O678 1.920 . S
Co647 O650 1.966 . S
Co647 N656 2.022 . S
Co647 N664 1.993 . S
Co647 O672 1.941 . S
C648 O649 1.258 . S
C648 O650 1.263 . S
O649 Co646 1.970 . S
O649 C648 1.258 . S
O650 Co647 1.966 . S
O650 C648 1.263 . S
C651 O652 1.235 . S
C651 O678 1.289 . S
O652 C651 1.235 . S
C653 C655 1.400 . S
C653 N656 1.351 . S
C653 C658 1.501 . S
C654 C655 1.387 . S
C654 N657 1.341 . S
C655 C653 1.400 . S
C655 C654 1.387 . S
N656 Co647 2.022 . S
N656 C653 1.351 . S
N656 N657 1.365 . S
N657 C654 1.341 . S
N657 N656 1.365 . S
N657 H677 0.862 . S
C658 C653 1.501 . S
C658 H659 0.961 . S
C658 H660 0.961 . S
C658 H661 0.960 . S
H659 C658 0.961 . S
H660 C658 0.961 . S
H661 C658 0.960 . S
C662 N663 1.342 . S
C662 C666 1.401 . S
C662 C667 1.499 . S
N663 Co646 1.989 . S
N663 C662 1.342 . S
N663 N664 1.388 . S
N664 Co647 1.993 . S
N664 N663 1.388 . S
N664 C665 1.346 . S
C665 N664 1.346 . S
C665 C666 1.396 . S
C665 C675 1.510 . S
C666 C662 1.401 . S
C666 C665 1.396 . S
C667 C662 1.499 . S
C667 H668 0.959 . S
C667 H669 0.960 . S
C667 H670 0.961 . S
H668 C667 0.959 . S
H669 C667 0.960 . S
H670 C667 0.961 . S
O671 Co646 1.967 . S
O671 C679 1.258 . S
O672 Co647 1.941 . S
O672 C679 1.266 . S
H673 C675 0.959 . S
H674 C675 0.961 . S
C675 C665 1.510 . S
C675 H673 0.959 . S
C675 H674 0.961 . S
C675 H676 0.960 . S
H676 C675 0.960 . S
H677 N657 0.862 . S
O678 Co646 1.920 . S
O678 C651 1.289 . S
C679 O671 1.258 . S
C679 O672 1.266 . S
Co680 O683 1.970 . S
Co680 N697 1.989 1_556 S
Co680 O705 1.967 . S
Co680 O712 1.920 . S
Co681 O684 1.966 . S
Co681 N690 2.022 . S
Co681 N698 1.993 . S
Co681 O706 1.941 . S
C682 O683 1.258 . S
C682 O684 1.263 1_556 S
O683 Co680 1.970 . S
O683 C682 1.258 . S
O684 Co681 1.966 . S
O684 C682 1.263 1_554 S
C685 O686 1.235 . S
C685 O712 1.289 . S
O686 C685 1.235 . S
C687 C689 1.400 . S
C687 N690 1.351 . S
C687 C692 1.501 . S
C688 C689 1.387 . S
C688 N691 1.341 . S
C689 C687 1.400 . S
C689 C688 1.387 . S
N690 Co681 2.022 . S
N690 C687 1.351 . S
N690 N691 1.365 . S
N691 C688 1.341 . S
N691 N690 1.365 . S
N691 H711 0.862 . S
C692 C687 1.501 . S
C692 H693 0.961 . S
C692 H694 0.961 . S
C692 H695 0.960 . S
H693 C692 0.961 . S
H694 C692 0.961 . S
H695 C692 0.960 . S
C696 N697 1.342 . S
C696 C700 1.401 . S
C696 C701 1.499 . S
N697 Co680 1.989 1_554 S
N697 C696 1.342 . S
N697 N698 1.388 . S
N698 Co681 1.993 . S
N698 N697 1.388 . S
N698 C699 1.346 . S
C699 N698 1.346 . S
C699 C700 1.396 . S
C699 C709 1.510 . S
C700 C696 1.401 . S
C700 C699 1.396 . S
C701 C696 1.499 . S
C701 H702 0.959 . S
C701 H703 0.960 . S
C701 H704 0.961 . S
H702 C701 0.959 . S
H703 C701 0.960 . S
H704 C701 0.961 . S
O705 Co680 1.967 . S
O705 C713 1.258 1_556 S
O706 Co681 1.941 . S
O706 C713 1.266 . S
H707 C709 0.959 . S
H708 C709 0.961 . S
C709 C699 1.510 . S
C709 H707 0.959 . S
C709 H708 0.961 . S
C709 H710 0.960 . S
H710 C709 0.960 . S
H711 N691 0.862 . S
O712 Co680 1.920 . S
O712 C685 1.289 . S
C713 O705 1.258 1_554 S
C713 O706 1.266 . S
Co714 O717 1.970 . S
Co714 N731 1.989 . S
Co714 O739 1.967 . S
Co714 O746 1.920 . S
Co715 O718 1.966 . S
Co715 N724 2.022 . S
Co715 N732 1.993 . S
Co715 O740 1.941 . S
C716 O717 1.258 . S
C716 O718 1.263 . S
O717 Co714 1.970 . S
O717 C716 1.258 . S
O718 Co715 1.966 . S
O718 C716 1.263 . S
C719 O720 1.235 . S
C719 O746 1.289 . S
O720 C719 1.235 . S
C721 C723 1.400 . S
C721 N724 1.351 . S
C721 C726 1.501 . S
C722 C723 1.387 . S
C722 N725 1.341 . S
C723 C721 1.400 . S
C723 C722 1.387 . S
N724 Co715 2.022 . S
N724 C721 1.351 . S
N724 N725 1.365 . S
N725 C722 1.341 . S
N725 N724 1.365 . S
N725 H745 0.862 . S
C726 C721 1.501 . S
C726 H727 0.961 . S
C726 H728 0.961 . S
C726 H729 0.960 . S
H727 C726 0.961 . S
H728 C726 0.961 . S
H729 C726 0.960 . S
C730 N731 1.342 . S
C730 C734 1.401 . S
C730 C735 1.499 . S
N731 Co714 1.989 . S
N731 C730 1.342 . S
N731 N732 1.388 . S
N732 Co715 1.993 . S
N732 N731 1.388 . S
N732 C733 1.346 . S
C733 N732 1.346 . S
C733 C734 1.396 . S
C733 C743 1.510 . S
C734 C730 1.401 . S
C734 C733 1.396 . S
C735 C730 1.499 . S
C735 H736 0.959 . S
C735 H737 0.960 . S
C735 H738 0.961 . S
H736 C735 0.959 . S
H737 C735 0.960 . S
H738 C735 0.961 . S
O739 Co714 1.967 . S
O739 C747 1.258 . S
O740 Co715 1.941 . S
O740 C747 1.266 . S
H741 C743 0.959 . S
H742 C743 0.961 . S
C743 C733 1.510 . S
C743 H741 0.959 . S
C743 H742 0.961 . S
C743 H744 0.960 . S
H744 C743 0.960 . S
H745 N725 0.862 . S
O746 Co714 1.920 . S
O746 C719 1.289 . S
C747 O739 1.258 . S
C747 O740 1.266 . S
Co748 O751 1.970 . S
Co748 N765 1.989 . S
Co748 O773 1.967 . S
Co748 O780 1.920 . S
Co749 O752 1.966 . S
Co749 N758 2.022 . S
Co749 N766 1.993 . S
Co749 O774 1.941 . S
C750 O751 1.258 . S
C750 O752 1.263 . S
O751 Co748 1.970 . S
O751 C750 1.258 . S
O752 Co749 1.966 . S
O752 C750 1.263 . S
C753 O754 1.235 . S
C753 O780 1.289 . S
O754 C753 1.235 . S
C755 C757 1.400 . S
C755 N758 1.351 . S
C755 C760 1.501 . S
C756 C757 1.387 . S
C756 N759 1.341 . S
C757 C755 1.400 . S
C757 C756 1.387 . S
N758 Co749 2.022 . S
N758 C755 1.351 . S
N758 N759 1.365 . S
N759 C756 1.341 . S
N759 N758 1.365 . S
N759 H779 0.862 . S
C760 C755 1.501 . S
C760 H761 0.961 . S
C760 H762 0.961 . S
C760 H763 0.960 . S
H761 C760 0.961 . S
H762 C760 0.961 . S
H763 C760 0.960 . S
C764 N765 1.342 . S
C764 C768 1.401 . S
C764 C769 1.499 . S
N765 Co748 1.989 . S
N765 C764 1.342 . S
N765 N766 1.388 . S
N766 Co749 1.993 . S
N766 N765 1.388 . S
N766 C767 1.346 . S
C767 N766 1.346 . S
C767 C768 1.396 . S
C767 C777 1.510 . S
C768 C764 1.401 . S
C768 C767 1.396 . S
C769 C764 1.499 . S
C769 H770 0.959 . S
C769 H771 0.960 . S
C769 H772 0.961 . S
H770 C769 0.959 . S
H771 C769 0.960 . S
H772 C769 0.961 . S
O773 Co748 1.967 . S
O773 C781 1.258 . S
O774 Co749 1.941 . S
O774 C781 1.266 . S
H775 C777 0.959 . S
H776 C777 0.961 . S
C777 C767 1.510 . S
C777 H775 0.959 . S
C777 H776 0.961 . S
C777 H778 0.960 . S
H778 C777 0.960 . S
H779 N759 0.862 . S
O780 Co748 1.920 . S
O780 C753 1.289 . S
C781 O773 1.258 . S
C781 O774 1.266 . S
Co782 O785 1.970 . S
Co782 N799 1.989 . S
Co782 O807 1.967 . S
Co782 O814 1.920 . S
Co783 O786 1.966 . S
Co783 N792 2.022 . S
Co783 N800 1.993 . S
Co783 O808 1.941 . S
C784 O785 1.258 . S
C784 O786 1.263 . S
O785 Co782 1.970 . S
O785 C784 1.258 . S
O786 Co783 1.966 . S
O786 C784 1.263 . S
C787 O788 1.235 . S
C787 O814 1.289 . S
O788 C787 1.235 . S
C789 C791 1.400 . S
C789 N792 1.351 . S
C789 C794 1.501 . S
C790 C791 1.387 . S
C790 N793 1.341 . S
C791 C789 1.400 . S
C791 C790 1.387 . S
N792 Co783 2.022 . S
N792 C789 1.351 . S
N792 N793 1.365 . S
N793 C790 1.341 . S
N793 N792 1.365 . S
N793 H813 0.862 . S
C794 C789 1.501 . S
C794 H795 0.961 . S
C794 H796 0.961 . S
C794 H797 0.960 . S
H795 C794 0.961 . S
H796 C794 0.961 . S
H797 C794 0.960 . S
C798 N799 1.342 . S
C798 C802 1.401 . S
C798 C803 1.499 . S
N799 Co782 1.989 . S
N799 C798 1.342 . S
N799 N800 1.388 . S
N800 Co783 1.993 . S
N800 N799 1.388 . S
N800 C801 1.346 . S
C801 N800 1.346 . S
C801 C802 1.396 . S
C801 C811 1.510 . S
C802 C798 1.401 . S
C802 C801 1.396 . S
C803 C798 1.499 . S
C803 H804 0.959 . S
C803 H805 0.960 . S
C803 H806 0.961 . S
H804 C803 0.959 . S
H805 C803 0.960 . S
H806 C803 0.961 . S
O807 Co782 1.967 . S
O807 C815 1.258 . S
O808 Co783 1.941 . S
O808 C815 1.266 . S
H809 C811 0.959 . S
H810 C811 0.961 . S
C811 C801 1.510 . S
C811 H809 0.959 . S
C811 H810 0.961 . S
C811 H812 0.960 . S
H812 C811 0.960 . S
H813 N793 0.862 . S
O814 Co782 1.920 . S
O814 C787 1.289 . S
C815 O807 1.258 . S
C815 O808 1.266 . S
Co816 O819 1.970 . S
Co816 N833 1.989 . S
Co816 O841 1.967 . S
Co816 O848 1.920 . S
Co817 O820 1.966 . S
Co817 N826 2.022 . S
Co817 N834 1.993 . S
Co817 O842 1.941 . S
C818 O819 1.258 . S
C818 O820 1.263 . S
O819 Co816 1.970 . S
O819 C818 1.258 . S
O820 Co817 1.966 . S
O820 C818 1.263 . S
C821 O822 1.235 . S
C821 O848 1.289 . S
O822 C821 1.235 . S
C823 C825 1.400 . S
C823 N826 1.351 . S
C823 C828 1.501 . S
C824 C825 1.387 . S
C824 N827 1.341 . S
C825 C823 1.400 . S
C825 C824 1.387 . S
N826 Co817 2.022 . S
N826 C823 1.351 . S
N826 N827 1.365 . S
N827 C824 1.341 . S
N827 N826 1.365 . S
N827 H847 0.862 . S
C828 C823 1.501 . S
C828 H829 0.961 . S
C828 H830 0.961 . S
C828 H831 0.960 . S
H829 C828 0.961 . S
H830 C828 0.961 . S
H831 C828 0.960 . S
C832 N833 1.342 . S
C832 C836 1.401 . S
C832 C837 1.499 . S
N833 Co816 1.989 . S
N833 C832 1.342 . S
N833 N834 1.388 . S
N834 Co817 1.993 . S
N834 N833 1.388 . S
N834 C835 1.346 . S
C835 N834 1.346 . S
C835 C836 1.396 . S
C835 C845 1.510 . S
C836 C832 1.401 . S
C836 C835 1.396 . S
C837 C832 1.499 . S
C837 H838 0.959 . S
C837 H839 0.960 . S
C837 H840 0.961 . S
H838 C837 0.959 . S
H839 C837 0.960 . S
H840 C837 0.961 . S
O841 Co816 1.967 . S
O841 C849 1.258 . S
O842 Co817 1.941 . S
O842 C849 1.266 . S
H843 C845 0.959 . S
H844 C845 0.961 . S
C845 C835 1.510 . S
C845 H843 0.959 . S
C845 H844 0.961 . S
C845 H846 0.960 . S
H846 C845 0.960 . S
H847 N827 0.862 . S
O848 Co816 1.920 . S
O848 C821 1.289 . S
C849 O841 1.258 . S
C849 O842 1.266 . S
Co850 O853 1.970 . S
Co850 N867 1.989 . S
Co850 O875 1.967 . S
Co850 O882 1.920 . S
Co851 O854 1.966 . S
Co851 N860 2.022 . S
Co851 N868 1.993 . S
Co851 O876 1.941 . S
C852 O853 1.258 . S
C852 O854 1.263 . S
O853 Co850 1.970 . S
O853 C852 1.258 . S
O854 Co851 1.966 . S
O854 C852 1.263 . S
C855 O856 1.235 . S
C855 O882 1.289 . S
O856 C855 1.235 . S
C857 C859 1.400 . S
C857 N860 1.351 . S
C857 C862 1.501 . S
C858 C859 1.387 . S
C858 N861 1.341 . S
C859 C857 1.400 . S
C859 C858 1.387 . S
N860 Co851 2.022 . S
N860 C857 1.351 . S
N860 N861 1.365 . S
N861 C858 1.341 . S
N861 N860 1.365 . S
N861 H881 0.862 . S
C862 C857 1.501 . S
C862 H863 0.961 . S
C862 H864 0.961 . S
C862 H865 0.960 . S
H863 C862 0.961 . S
H864 C862 0.961 . S
H865 C862 0.960 . S
C866 N867 1.342 . S
C866 C870 1.401 . S
C866 C871 1.499 . S
N867 Co850 1.989 . S
N867 C866 1.342 . S
N867 N868 1.388 . S
N868 Co851 1.993 . S
N868 N867 1.388 . S
N868 C869 1.346 . S
C869 N868 1.346 . S
C869 C870 1.396 . S
C869 C879 1.510 . S
C870 C866 1.401 . S
C870 C869 1.396 . S
C871 C866 1.499 . S
C871 H872 0.959 . S
C871 H873 0.960 . S
C871 H874 0.961 . S
H872 C871 0.959 . S
H873 C871 0.960 . S
H874 C871 0.961 . S
O875 Co850 1.967 . S
O875 C883 1.258 . S
O876 Co851 1.941 . S
O876 C883 1.266 . S
H877 C879 0.959 . S
H878 C879 0.961 . S
C879 C869 1.510 . S
C879 H877 0.959 . S
C879 H878 0.961 . S
C879 H880 0.960 . S
H880 C879 0.960 . S
H881 N861 0.862 . S
O882 Co850 1.920 . S
O882 C855 1.289 . S
C883 O875 1.258 . S
C883 O876 1.266 . S
Co884 O887 1.970 . S
Co884 N901 1.989 1_556 S
Co884 O909 1.967 . S
Co884 O916 1.920 . S
Co885 O888 1.966 . S
Co885 N894 2.022 . S
Co885 N902 1.993 . S
Co885 O910 1.941 . S
C886 O887 1.258 . S
C886 O888 1.263 1_556 S
O887 Co884 1.970 . S
O887 C886 1.258 . S
O888 Co885 1.966 . S
O888 C886 1.263 1_554 S
C889 O890 1.235 . S
C889 O916 1.289 . S
O890 C889 1.235 . S
C891 C893 1.400 . S
C891 N894 1.351 . S
C891 C896 1.501 . S
C892 C893 1.387 . S
C892 N895 1.341 . S
C893 C891 1.400 . S
C893 C892 1.387 . S
N894 Co885 2.022 . S
N894 C891 1.351 . S
N894 N895 1.365 . S
N895 C892 1.341 . S
N895 N894 1.365 . S
N895 H915 0.862 . S
C896 C891 1.501 . S
C896 H897 0.961 . S
C896 H898 0.961 . S
C896 H899 0.960 . S
H897 C896 0.961 . S
H898 C896 0.961 . S
H899 C896 0.960 . S
C900 N901 1.342 . S
C900 C904 1.401 . S
C900 C905 1.499 . S
N901 Co884 1.989 1_554 S
N901 C900 1.342 . S
N901 N902 1.388 . S
N902 Co885 1.993 . S
N902 N901 1.388 . S
N902 C903 1.346 . S
C903 N902 1.346 . S
C903 C904 1.396 . S
C903 C913 1.510 . S
C904 C900 1.401 . S
C904 C903 1.396 . S
C905 C900 1.499 . S
C905 H906 0.959 . S
C905 H907 0.960 . S
C905 H908 0.961 . S
H906 C905 0.959 . S
H907 C905 0.960 . S
H908 C905 0.961 . S
O909 Co884 1.967 . S
O909 C917 1.258 1_556 S
O910 Co885 1.941 . S
O910 C917 1.266 . S
H911 C913 0.959 . S
H912 C913 0.961 . S
C913 C903 1.510 . S
C913 H911 0.959 . S
C913 H912 0.961 . S
C913 H914 0.960 . S
H914 C913 0.960 . S
H915 N895 0.862 . S
O916 Co884 1.920 . S
O916 C889 1.289 . S
C917 O909 1.258 1_554 S
C917 O910 1.266 . S
Co918 O921 1.970 . S
Co918 N935 1.989 . S
Co918 O943 1.967 . S
Co918 O950 1.920 . S
Co919 O922 1.966 . S
Co919 N928 2.022 . S
Co919 N936 1.993 . S
Co919 O944 1.941 . S
C920 O921 1.258 . S
C920 O922 1.263 . S
O921 Co918 1.970 . S
O921 C920 1.258 . S
O922 Co919 1.966 . S
O922 C920 1.263 . S
C923 O924 1.235 . S
C923 O950 1.289 . S
O924 C923 1.235 . S
C925 C927 1.400 . S
C925 N928 1.351 . S
C925 C930 1.501 . S
C926 C927 1.387 . S
C926 N929 1.341 . S
C927 C925 1.400 . S
C927 C926 1.387 . S
N928 Co919 2.022 . S
N928 C925 1.351 . S
N928 N929 1.365 . S
N929 C926 1.341 . S
N929 N928 1.365 . S
N929 H949 0.862 . S
C930 C925 1.501 . S
C930 H931 0.961 . S
C930 H932 0.961 . S
C930 H933 0.960 . S
H931 C930 0.961 . S
H932 C930 0.961 . S
H933 C930 0.960 . S
C934 N935 1.342 . S
C934 C938 1.401 . S
C934 C939 1.499 . S
N935 Co918 1.989 . S
N935 C934 1.342 . S
N935 N936 1.388 . S
N936 Co919 1.993 . S
N936 N935 1.388 . S
N936 C937 1.346 . S
C937 N936 1.346 . S
C937 C938 1.396 . S
C937 C947 1.510 . S
C938 C934 1.401 . S
C938 C937 1.396 . S
C939 C934 1.499 . S
C939 H940 0.959 . S
C939 H941 0.960 . S
C939 H942 0.961 . S
H940 C939 0.959 . S
H941 C939 0.960 . S
H942 C939 0.961 . S
O943 Co918 1.967 . S
O943 C951 1.258 . S
O944 Co919 1.941 . S
O944 C951 1.266 . S
H945 C947 0.959 . S
H946 C947 0.961 . S
C947 C937 1.510 . S
C947 H945 0.959 . S
C947 H946 0.961 . S
C947 H948 0.960 . S
H948 C947 0.960 . S
H949 N929 0.862 . S
O950 Co918 1.920 . S
O950 C923 1.289 . S
C951 O943 1.258 . S
C951 O944 1.266 . S
Co952 O955 1.970 . S
Co952 N969 1.989 . S
Co952 O977 1.967 . S
Co952 O984 1.920 . S
Co953 O956 1.966 . S
Co953 N962 2.022 1_554 S
Co953 N970 1.993 . S
Co953 O978 1.941 . S
C954 O955 1.258 . S
C954 O956 1.263 . S
O955 Co952 1.970 . S
O955 C954 1.258 . S
O956 Co953 1.966 . S
O956 C954 1.263 . S
C957 O958 1.235 . S
C957 O984 1.289 . S
O958 C957 1.235 . S
C959 C961 1.400 . S
C959 N962 1.351 . S
C959 C964 1.501 1_556 S
C960 C961 1.387 . S
C960 N963 1.341 . S
C961 C959 1.400 . S
C961 C960 1.387 . S
N962 Co953 2.022 1_556 S
N962 C959 1.351 . S
N962 N963 1.365 . S
N963 C960 1.341 . S
N963 N962 1.365 . S
N963 H983 0.862 . S
C964 C959 1.501 1_554 S
C964 H965 0.961 . S
C964 H966 0.961 1_554 S
C964 H967 0.960 . S
H965 C964 0.961 . S
H966 C964 0.961 1_556 S
H967 C964 0.960 . S
C968 N969 1.342 . S
C968 C972 1.401 1_554 S
C968 C973 1.499 . S
N969 Co952 1.989 . S
N969 C968 1.342 . S
N969 N970 1.388 . S
N970 Co953 1.993 . S
N970 N969 1.388 . S
N970 C971 1.346 1_554 S
C971 N970 1.346 1_556 S
C971 C972 1.396 . S
C971 C981 1.510 . S
C972 C968 1.401 1_556 S
C972 C971 1.396 . S
C973 C968 1.499 . S
C973 H974 0.959 . S
C973 H975 0.960 . S
C973 H976 0.961 . S
H974 C973 0.959 . S
H975 C973 0.960 . S
H976 C973 0.961 . S
O977 Co952 1.967 . S
O977 C985 1.258 . S
O978 Co953 1.941 . S
O978 C985 1.266 . S
H979 C981 0.959 . S
H980 C981 0.961 . S
C981 C971 1.510 . S
C981 H979 0.959 . S
C981 H980 0.961 . S
C981 H982 0.960 . S
H982 C981 0.960 . S
H983 N963 0.862 . S
O984 Co952 1.920 . S
O984 C957 1.289 . S
C985 O977 1.258 . S
C985 O978 1.266 . S
Co986 O989 1.970 . S
Co986 N1003 1.989 . S
Co986 O1011 1.967 . S
Co986 O1018 1.920 . S
Co987 O990 1.966 . S
Co987 N996 2.022 . S
Co987 N1004 1.993 . S
Co987 O1012 1.941 . S
C988 O989 1.258 . S
C988 O990 1.263 . S
O989 Co986 1.970 . S
O989 C988 1.258 . S
O990 Co987 1.966 . S
O990 C988 1.263 . S
C991 O992 1.235 . S
C991 O1018 1.289 . S
O992 C991 1.235 . S
C993 C995 1.400 . S
C993 N996 1.351 . S
C993 C998 1.501 . S
C994 C995 1.387 . S
C994 N997 1.341 . S
C995 C993 1.400 . S
C995 C994 1.387 . S
N996 Co987 2.022 . S
N996 C993 1.351 . S
N996 N997 1.365 . S
N997 C994 1.341 . S
N997 N996 1.365 . S
N997 H1017 0.862 . S
C998 C993 1.501 . S
C998 H999 0.961 . S
C998 H1000 0.961 . S
C998 H1001 0.960 . S
H999 C998 0.961 . S
H1000 C998 0.961 . S
H1001 C998 0.960 . S
C1002 N1003 1.342 . S
C1002 C1006 1.401 . S
C1002 C1007 1.499 . S
N1003 Co986 1.989 . S
N1003 C1002 1.342 . S
N1003 N1004 1.388 . S
N1004 Co987 1.993 . S
N1004 N1003 1.388 . S
N1004 C1005 1.346 . S
C1005 N1004 1.346 . S
C1005 C1006 1.396 . S
C1005 C1015 1.510 . S
C1006 C1002 1.401 . S
C1006 C1005 1.396 . S
C1007 C1002 1.499 . S
C1007 H1008 0.959 . S
C1007 H1009 0.960 . S
C1007 H1010 0.961 . S
H1008 C1007 0.959 . S
H1009 C1007 0.960 . S
H1010 C1007 0.961 . S
O1011 Co986 1.967 . S
O1011 C1019 1.258 . S
O1012 Co987 1.941 . S
O1012 C1019 1.266 . S
H1013 C1015 0.959 . S
H1014 C1015 0.961 . S
C1015 C1005 1.510 . S
C1015 H1013 0.959 . S
C1015 H1014 0.961 . S
C1015 H1016 0.960 . S
H1016 C1015 0.960 . S
H1017 N997 0.862 . S
O1018 Co986 1.920 . S
O1018 C991 1.289 . S
C1019 O1011 1.258 . S
C1019 O1012 1.266 . S
Co1020 O1023 1.970 . S
Co1020 N1037 1.989 . S
Co1020 O1045 1.967 . S
Co1020 O1052 1.920 . S
Co1021 O1024 1.966 . S
Co1021 N1030 2.022 . S
Co1021 N1038 1.993 . S
Co1021 O1046 1.941 . S
C1022 O1023 1.258 . S
C1022 O1024 1.263 . S
O1023 Co1020 1.970 . S
O1023 C1022 1.258 . S
O1024 Co1021 1.966 . S
O1024 C1022 1.263 . S
C1025 O1026 1.235 . S
C1025 O1052 1.289 . S
O1026 C1025 1.235 . S
C1027 C1029 1.400 . S
C1027 N1030 1.351 . S
C1027 C1032 1.501 . S
C1028 C1029 1.387 . S
C1028 N1031 1.341 . S
C1029 C1027 1.400 . S
C1029 C1028 1.387 . S
N1030 Co1021 2.022 . S
N1030 C1027 1.351 . S
N1030 N1031 1.365 . S
N1031 C1028 1.341 . S
N1031 N1030 1.365 . S
N1031 H1051 0.862 . S
C1032 C1027 1.501 . S
C1032 H1033 0.961 . S
C1032 H1034 0.961 . S
C1032 H1035 0.960 . S
H1033 C1032 0.961 . S
H1034 C1032 0.961 . S
H1035 C1032 0.960 . S
C1036 N1037 1.342 . S
C1036 C1040 1.401 . S
C1036 C1041 1.499 . S
N1037 Co1020 1.989 . S
N1037 C1036 1.342 . S
N1037 N1038 1.388 . S
N1038 Co1021 1.993 . S
N1038 N1037 1.388 . S
N1038 C1039 1.346 . S
C1039 N1038 1.346 . S
C1039 C1040 1.396 . S
C1039 C1049 1.510 . S
C1040 C1036 1.401 . S
C1040 C1039 1.396 . S
C1041 C1036 1.499 . S
C1041 H1042 0.959 . S
C1041 H1043 0.960 . S
C1041 H1044 0.961 . S
H1042 C1041 0.959 . S
H1043 C1041 0.960 . S
H1044 C1041 0.961 . S
O1045 Co1020 1.967 . S
O1045 C1053 1.258 . S
O1046 Co1021 1.941 . S
O1046 C1053 1.266 . S
H1047 C1049 0.959 . S
H1048 C1049 0.961 . S
C1049 C1039 1.510 . S
C1049 H1047 0.959 . S
C1049 H1048 0.961 . S
C1049 H1050 0.960 . S
H1050 C1049 0.960 . S
H1051 N1031 0.862 . S
O1052 Co1020 1.920 . S
O1052 C1025 1.289 . S
C1053 O1045 1.258 . S
C1053 O1046 1.266 . S
Co1054 O1057 1.970 . S
Co1054 N1071 1.989 . S
Co1054 O1079 1.967 . S
Co1054 O1086 1.920 . S
Co1055 O1058 1.966 . S
Co1055 N1064 2.022 . S
Co1055 N1072 1.993 . S
Co1055 O1080 1.941 . S
C1056 O1057 1.258 . S
C1056 O1058 1.263 . S
O1057 Co1054 1.970 . S
O1057 C1056 1.258 . S
O1058 Co1055 1.966 . S
O1058 C1056 1.263 . S
C1059 O1060 1.235 . S
C1059 O1086 1.289 . S
O1060 C1059 1.235 . S
C1061 C1063 1.400 . S
C1061 N1064 1.351 . S
C1061 C1066 1.501 . S
C1062 C1063 1.387 . S
C1062 N1065 1.341 . S
C1063 C1061 1.400 . S
C1063 C1062 1.387 . S
N1064 Co1055 2.022 . S
N1064 C1061 1.351 . S
N1064 N1065 1.365 . S
N1065 C1062 1.341 . S
N1065 N1064 1.365 . S
N1065 H1085 0.862 . S
C1066 C1061 1.501 . S
C1066 H1067 0.961 . S
C1066 H1068 0.961 . S
C1066 H1069 0.960 . S
H1067 C1066 0.961 . S
H1068 C1066 0.961 . S
H1069 C1066 0.960 . S
C1070 N1071 1.342 . S
C1070 C1074 1.401 . S
C1070 C1075 1.499 . S
N1071 Co1054 1.989 . S
N1071 C1070 1.342 . S
N1071 N1072 1.388 . S
N1072 Co1055 1.993 . S
N1072 N1071 1.388 . S
N1072 C1073 1.346 . S
C1073 N1072 1.346 . S
C1073 C1074 1.396 . S
C1073 C1083 1.510 . S
C1074 C1070 1.401 . S
C1074 C1073 1.396 . S
C1075 C1070 1.499 . S
C1075 H1076 0.959 . S
C1075 H1077 0.960 . S
C1075 H1078 0.961 . S
H1076 C1075 0.959 . S
H1077 C1075 0.960 . S
H1078 C1075 0.961 . S
O1079 Co1054 1.967 . S
O1079 C1087 1.258 . S
O1080 Co1055 1.941 . S
O1080 C1087 1.266 . S
H1081 C1083 0.959 . S
H1082 C1083 0.961 . S
C1083 C1073 1.510 . S
C1083 H1081 0.959 . S
C1083 H1082 0.961 . S
C1083 H1084 0.960 . S
H1084 C1083 0.960 . S
H1085 N1065 0.862 . S
O1086 Co1054 1.920 . S
O1086 C1059 1.289 . S
C1087 O1079 1.258 . S
C1087 O1080 1.266 . S
H1088 C1094 0.930 . S
H1089 C1097 0.930 . S
H1090 C1098 0.930 . S
H1091 C1099 0.930 . S
H1092 C1102 0.930 . S
H1093 C1103 0.930 . S
C1094 H1088 0.930 . S
C1094 C1095 1.355 . S
C1094 C1096 1.415 . S
C1095 C1094 1.355 . S
C1095 C1097 1.419 . S
C1096 C1094 1.415 . S
C1096 C1101 1.425 1_565 S
C1096 C1103 1.409 . S
C1097 H1089 0.930 . S
C1097 C1095 1.419 . S
C1097 C1098 1.362 1_565 S
C1098 H1090 0.930 . S
C1098 C1097 1.362 1_545 S
C1098 C1101 1.409 . S
C1099 H1091 0.930 . S
C1099 C1100 1.355 . S
C1099 C1101 1.415 . S
C1100 C1099 1.355 . S
C1100 C1102 1.419 . S
C1101 C1096 1.425 1_545 S
C1101 C1098 1.409 . S
C1101 C1099 1.415 . S
C1102 H1092 0.930 . S
C1102 C1100 1.419 . S
C1102 C1103 1.362 1_545 S
C1103 H1093 0.930 . S
C1103 C1096 1.409 . S
C1103 C1102 1.362 1_565 S
H1104 C1110 0.930 . S
H1105 C1113 0.930 . S
H1106 C1114 0.930 . S
H1107 C1115 0.930 . S
H1108 C1118 0.930 . S
H1109 C1119 0.930 . S
C1110 H1104 0.930 . S
C1110 C1111 1.355 . S
C1110 C1112 1.415 . S
C1111 C1110 1.355 . S
C1111 C1113 1.419 . S
C1112 C1110 1.415 . S
C1112 C1117 1.425 . S
C1112 C1119 1.409 1_554 S
C1113 H1105 0.930 . S
C1113 C1111 1.419 . S
C1113 C1114 1.362 . S
C1114 H1106 0.930 . S
C1114 C1113 1.362 . S
C1114 C1117 1.409 . S
C1115 H1107 0.930 . S
C1115 C1116 1.355 1_554 S
C1115 C1117 1.415 . S
C1116 C1115 1.355 1_556 S
C1116 C1118 1.419 . S
C1117 C1112 1.425 . S
C1117 C1114 1.409 . S
C1117 C1115 1.415 . S
C1118 H1108 0.930 . S
C1118 C1116 1.419 . S
C1118 C1119 1.362 . S
C1119 H1109 0.930 . S
C1119 C1112 1.409 1_556 S
C1119 C1118 1.362 . S
H1120 C1126 0.930 . S
H1121 C1129 0.930 . S
H1122 C1130 0.930 . S
H1123 C1131 0.930 . S
H1124 C1134 0.930 . S
H1125 C1135 0.930 . S
C1126 H1120 0.930 . S
C1126 C1127 1.355 . S
C1126 C1128 1.415 . S
C1127 C1126 1.355 . S
C1127 C1129 1.419 . S
C1128 C1126 1.415 . S
C1128 C1133 1.425 1_565 S
C1128 C1135 1.409 1_565 S
C1129 H1121 0.930 . S
C1129 C1127 1.419 . S
C1129 C1130 1.362 . S
C1130 H1122 0.930 . S
C1130 C1129 1.362 . S
C1130 C1133 1.409 1_565 S
C1131 H1123 0.930 . S
C1131 C1132 1.355 . S
C1131 C1133 1.415 . S
C1132 C1131 1.355 . S
C1132 C1134 1.419 . S
C1133 C1128 1.425 1_545 S
C1133 C1130 1.409 1_545 S
C1133 C1131 1.415 . S
C1134 H1124 0.930 . S
C1134 C1132 1.419 . S
C1134 C1135 1.362 . S
C1135 H1125 0.930 . S
C1135 C1128 1.409 1_545 S
C1135 C1134 1.362 . S
H1136 C1142 0.930 . S
H1137 C1145 0.930 . S
H1138 C1146 0.930 . S
H1139 C1147 0.930 . S
H1140 C1150 0.930 . S
H1141 C1151 0.930 . S
C1142 H1136 0.930 . S
C1142 C1143 1.355 . S
C1142 C1144 1.415 . S
C1143 C1142 1.355 . S
C1143 C1145 1.419 . S
C1144 C1142 1.415 . S
C1144 C1149 1.425 . S
C1144 C1151 1.409 . S
C1145 H1137 0.930 . S
C1145 C1143 1.419 . S
C1145 C1146 1.362 . S
C1146 H1138 0.930 . S
C1146 C1145 1.362 . S
C1146 C1149 1.409 . S
C1147 H1139 0.930 . S
C1147 C1148 1.355 . S
C1147 C1149 1.415 . S
C1148 C1147 1.355 . S
C1148 C1150 1.419 . S
C1149 C1144 1.425 . S
C1149 C1146 1.409 . S
C1149 C1147 1.415 . S
C1150 H1140 0.930 . S
C1150 C1148 1.419 . S
C1150 C1151 1.362 . S
C1151 H1141 0.930 . S
C1151 C1144 1.409 . S
C1151 C1150 1.362 . S
H1152 C1158 0.930 . S
H1153 C1161 0.930 . S
H1154 C1162 0.930 . S
H1155 C1163 0.930 . S
H1156 C1166 0.930 . S
H1157 C1167 0.930 . S
C1158 H1152 0.930 . S
C1158 C1159 1.355 . S
C1158 C1160 1.415 . S
C1159 C1158 1.355 . S
C1159 C1161 1.419 . S
C1160 C1158 1.415 . S
C1160 C1165 1.425 1_545 S
C1160 C1167 1.409 . S
C1161 H1153 0.930 . S
C1161 C1159 1.419 . S
C1161 C1162 1.362 1_545 S
C1162 H1154 0.930 . S
C1162 C1161 1.362 1_565 S
C1162 C1165 1.409 . S
C1163 H1155 0.930 . S
C1163 C1164 1.355 . S
C1163 C1165 1.415 . S
C1164 C1163 1.355 . S
C1164 C1166 1.419 . S
C1165 C1160 1.425 1_565 S
C1165 C1162 1.409 . S
C1165 C1163 1.415 . S
C1166 H1156 0.930 . S
C1166 C1164 1.419 . S
C1166 C1167 1.362 1_565 S
C1167 H1157 0.930 . S
C1167 C1160 1.409 . S
C1167 C1166 1.362 1_545 S
H1168 C1174 0.930 . S
H1169 C1177 0.930 . S
H1170 C1178 0.930 . S
H1171 C1179 0.930 . S
H1172 C1182 0.930 . S
H1173 C1183 0.930 . S
C1174 H1168 0.930 . S
C1174 C1175 1.355 1_554 S
C1174 C1176 1.415 . S
C1175 C1174 1.355 1_556 S
C1175 C1177 1.419 . S
C1176 C1174 1.415 . S
C1176 C1181 1.425 . S
C1176 C1183 1.409 . S
C1177 H1169 0.930 . S
C1177 C1175 1.419 . S
C1177 C1178 1.362 . S
C1178 H1170 0.930 . S
C1178 C1177 1.362 . S
C1178 C1181 1.409 1_556 S
C1179 H1171 0.930 . S
C1179 C1180 1.355 . S
C1179 C1181 1.415 . S
C1180 C1179 1.355 . S
C1180 C1182 1.419 . S
C1181 C1176 1.425 . S
C1181 C1178 1.409 1_554 S
C1181 C1179 1.415 . S
C1182 H1172 0.930 . S
C1182 C1180 1.419 . S
C1182 C1183 1.362 . S
C1183 H1173 0.930 . S
C1183 C1176 1.409 . S
C1183 C1182 1.362 . S
H1184 C1190 0.930 . S
H1185 C1193 0.930 . S
H1186 C1194 0.930 . S
H1187 C1195 0.930 . S
H1188 C1198 0.930 . S
H1189 C1199 0.930 . S
C1190 H1184 0.930 . S
C1190 C1191 1.355 . S
C1190 C1192 1.451 . S
C1191 C1190 1.355 . S
C1191 C1193 1.419 . S
C1192 C1190 1.451 . S
C1192 C1197 1.421 1_545 S
C1192 C1199 1.376 1_545 S
C1193 H1185 0.930 . S
C1193 C1191 1.419 . S
C1193 C1194 1.362 . S
C1194 H1186 0.930 . S
C1194 C1193 1.362 . S
C1194 C1197 1.376 1_545 S
C1195 H1187 0.930 . S
C1195 C1196 1.355 . S
C1195 C1197 1.452 . S
C1196 C1195 1.355 . S
C1196 C1198 1.419 . S
C1197 C1192 1.421 1_565 S
C1197 C1194 1.376 1_565 S
C1197 C1195 1.452 . S
C1198 H1188 0.930 . S
C1198 C1196 1.419 . S
C1198 C1199 1.362 . S
C1199 H1189 0.930 . S
C1199 C1192 1.376 1_565 S
C1199 C1198 1.362 . S
H1200 C1206 0.930 . S
H1201 C1209 0.930 . S
H1202 C1210 0.930 . S
H1203 C1211 0.930 . S
H1204 C1214 0.930 . S
H1205 C1215 0.930 . S
C1206 H1200 0.930 . S
C1206 C1207 1.355 . S
C1206 C1208 1.415 . S
C1207 C1206 1.355 . S
C1207 C1209 1.419 . S
C1208 C1206 1.415 . S
C1208 C1213 1.425 . S
C1208 C1215 1.409 . S
C1209 H1201 0.930 . S
C1209 C1207 1.419 . S
C1209 C1210 1.362 . S
C1210 H1202 0.930 . S
C1210 C1209 1.362 . S
C1210 C1213 1.409 . S
C1211 H1203 0.930 . S
C1211 C1212 1.355 . S
C1211 C1213 1.415 . S
C1212 C1211 1.355 . S
C1212 C1214 1.419 . S
C1213 C1208 1.425 . S
C1213 C1210 1.409 . S
C1213 C1211 1.415 . S
C1214 H1204 0.930 . S
C1214 C1212 1.419 . S
C1214 C1215 1.362 . S
C1215 H1205 0.930 . S
C1215 C1208 1.409 . S
C1215 C1214 1.362 . S
H1216 C1222 0.930 . S
H1217 C1225 0.930 . S
H1218 C1226 0.930 . S
H1219 C1227 0.930 . S
H1220 C1230 0.930 . S
H1221 C1231 0.930 . S
C1222 H1216 0.930 . S
C1222 C1223 1.355 . S
C1222 C1224 1.415 . S
C1223 C1222 1.355 . S
C1223 C1225 1.419 . S
C1224 C1222 1.415 . S
C1224 C1229 1.425 . S
C1224 C1231 1.409 . S
C1225 H1217 0.930 . S
C1225 C1223 1.419 . S
C1225 C1226 1.362 . S
C1226 H1218 0.930 . S
C1226 C1225 1.362 . S
C1226 C1229 1.409 . S
C1227 H1219 0.930 . S
C1227 C1228 1.355 . S
C1227 C1229 1.415 . S
C1228 C1227 1.355 . S
C1228 C1230 1.419 . S
C1229 C1224 1.425 . S
C1229 C1226 1.409 . S
C1229 C1227 1.415 . S
C1230 H1220 0.930 . S
C1230 C1228 1.419 . S
C1230 C1231 1.362 . S
C1231 H1221 0.930 . S
C1231 C1224 1.409 . S
C1231 C1230 1.362 . S
H1232 C1238 0.930 . S
H1233 C1241 0.930 . S
H1234 C1242 0.930 . S
H1235 C1243 0.930 . S
H1236 C1246 0.930 . S
H1237 C1247 0.930 . S
C1238 H1232 0.930 . S
C1238 C1239 1.355 . S
C1238 C1240 1.415 . S
C1239 C1238 1.355 . S
C1239 C1241 1.419 . S
C1240 C1238 1.415 . S
C1240 C1245 1.425 . S
C1240 C1247 1.409 . S
C1241 H1233 0.930 . S
C1241 C1239 1.419 . S
C1241 C1242 1.362 . S
C1242 H1234 0.930 . S
C1242 C1241 1.362 . S
C1242 C1245 1.409 . S
C1243 H1235 0.930 . S
C1243 C1244 1.355 . S
C1243 C1245 1.415 . S
C1244 C1243 1.355 . S
C1244 C1246 1.419 . S
C1245 C1240 1.425 . S
C1245 C1242 1.409 . S
C1245 C1243 1.415 . S
C1246 H1236 0.930 . S
C1246 C1244 1.419 . S
C1246 C1247 1.362 . S
C1247 H1237 0.930 . S
C1247 C1240 1.409 . S
C1247 C1246 1.362 . S
H1248 C1254 0.930 . S
H1249 C1257 0.930 . S
H1250 C1258 0.930 . S
H1251 C1259 0.930 . S
H1252 C1262 0.930 . S
H1253 C1263 0.930 . S
C1254 H1248 0.930 . S
C1254 C1255 1.355 . S
C1254 C1256 1.415 . S
C1255 C1254 1.355 . S
C1255 C1257 1.419 . S
C1256 C1254 1.415 . S
C1256 C1261 1.425 . S
C1256 C1263 1.409 . S
C1257 H1249 0.930 . S
C1257 C1255 1.419 . S
C1257 C1258 1.362 . S
C1258 H1250 0.930 . S
C1258 C1257 1.362 . S
C1258 C1261 1.409 . S
C1259 H1251 0.930 . S
C1259 C1260 1.355 . S
C1259 C1261 1.415 . S
C1260 C1259 1.355 . S
C1260 C1262 1.419 . S
C1261 C1256 1.425 . S
C1261 C1258 1.409 . S
C1261 C1259 1.415 . S
C1262 H1252 0.930 . S
C1262 C1260 1.419 . S
C1262 C1263 1.362 . S
C1263 H1253 0.930 . S
C1263 C1256 1.409 . S
C1263 C1262 1.362 . S
H1264 C1270 0.930 . S
H1265 C1273 0.930 . S
H1266 C1274 0.930 . S
H1267 C1275 0.928 1_556 S
H1268 C1278 0.930 . S
H1269 C1279 0.930 . S
C1270 H1264 0.930 . S
C1270 C1271 1.355 . S
C1270 C1272 1.415 . S
C1271 C1270 1.355 . S
C1271 C1273 1.419 . S
C1272 C1270 1.415 . S
C1272 C1277 1.425 . S
C1272 C1279 1.409 . S
C1273 H1265 0.930 . S
C1273 C1271 1.419 . S
C1273 C1274 1.362 . S
C1274 H1266 0.930 . S
C1274 C1273 1.362 . S
C1274 C1277 1.409 . S
C1275 H1267 0.928 1_554 S
C1275 C1276 1.355 1_554 S
C1275 C1277 1.415 . S
C1276 C1275 1.355 1_556 S
C1276 C1278 1.419 . S
C1277 C1272 1.425 . S
C1277 C1274 1.409 . S
C1277 C1275 1.415 . S
C1278 H1268 0.930 . S
C1278 C1276 1.419 . S
C1278 C1279 1.362 1_556 S
C1279 H1269 0.930 . S
C1279 C1272 1.409 . S
C1279 C1278 1.362 1_554 S
H1280 C1286 0.930 . S
H1281 C1289 0.930 . S
H1282 C1290 0.930 . S
H1283 C1291 0.930 . S
H1284 C1294 0.930 . S
H1285 C1295 0.930 . S
C1286 H1280 0.930 . S
C1286 C1287 1.355 . S
C1286 C1288 1.415 . S
C1287 C1286 1.355 . S
C1287 C1289 1.419 . S
C1288 C1286 1.415 . S
C1288 C1293 1.425 . S
C1288 C1295 1.409 . S
C1289 H1281 0.930 . S
C1289 C1287 1.419 . S
C1289 C1290 1.362 . S
C1290 H1282 0.930 . S
C1290 C1289 1.362 . S
C1290 C1293 1.409 . S
C1291 H1283 0.930 . S
C1291 C1292 1.355 . S
C1291 C1293 1.415 . S
C1292 C1291 1.355 . S
C1292 C1294 1.419 . S
C1293 C1288 1.425 . S
C1293 C1290 1.409 . S
C1293 C1291 1.415 . S
C1294 H1284 0.930 . S
C1294 C1292 1.419 . S
C1294 C1295 1.362 . S
C1295 H1285 0.930 . S
C1295 C1288 1.409 . S
C1295 C1294 1.362 . S
H1296 C1302 0.930 . S
H1297 C1305 0.930 . S
H1298 C1306 0.930 . S
H1299 C1307 0.930 . S
H1300 C1310 0.930 . S
H1301 C1311 0.930 . S
C1302 H1296 0.930 . S
C1302 C1303 1.355 . S
C1302 C1304 1.415 . S
C1303 C1302 1.355 . S
C1303 C1305 1.419 . S
C1304 C1302 1.415 . S
C1304 C1309 1.425 . S
C1304 C1311 1.409 . S
C1305 H1297 0.930 . S
C1305 C1303 1.419 . S
C1305 C1306 1.362 . S
C1306 H1298 0.930 . S
C1306 C1305 1.362 . S
C1306 C1309 1.409 . S
C1307 H1299 0.930 . S
C1307 C1308 1.355 . S
C1307 C1309 1.415 . S
C1308 C1307 1.355 . S
C1308 C1310 1.419 . S
C1309 C1304 1.425 . S
C1309 C1306 1.409 . S
C1309 C1307 1.415 . S
C1310 H1300 0.930 . S
C1310 C1308 1.419 . S
C1310 C1311 1.362 . S
C1311 H1301 0.930 . S
C1311 C1304 1.409 . S
C1311 C1310 1.362 . S
H1312 C1318 0.930 . S
H1313 C1321 0.930 . S
H1314 C1322 0.930 . S
H1315 C1323 0.930 . S
H1316 C1326 0.930 . S
H1317 C1327 0.930 . S
C1318 H1312 0.930 . S
C1318 C1319 1.355 . S
C1318 C1320 1.415 . S
C1319 C1318 1.355 . S
C1319 C1321 1.419 . S
C1320 C1318 1.415 . S
C1320 C1325 1.425 . S
C1320 C1327 1.409 . S
C1321 H1313 0.930 . S
C1321 C1319 1.419 . S
C1321 C1322 1.362 . S
C1322 H1314 0.930 . S
C1322 C1321 1.362 . S
C1322 C1325 1.409 . S
C1323 H1315 0.930 . S
C1323 C1324 1.355 . S
C1323 C1325 1.415 . S
C1324 C1323 1.355 . S
C1324 C1326 1.419 . S
C1325 C1320 1.425 . S
C1325 C1322 1.409 . S
C1325 C1323 1.415 . S
C1326 H1316 0.930 . S
C1326 C1324 1.419 . S
C1326 C1327 1.362 . S
C1327 H1317 0.930 . S
C1327 C1320 1.409 . S
C1327 C1326 1.362 . S
H1328 C1334 0.930 . S
H1329 C1337 0.930 . S
H1330 C1338 0.930 . S
H1331 C1339 0.930 . S
H1332 C1342 0.930 . S
H1333 C1343 0.930 . S
C1334 H1328 0.930 . S
C1334 C1335 1.355 1_554 S
C1334 C1336 1.415 . S
C1335 C1334 1.355 1_556 S
C1335 C1337 1.419 . S
C1336 C1334 1.415 . S
C1336 C1341 1.425 . S
C1336 C1343 1.409 . S
C1337 H1329 0.930 . S
C1337 C1335 1.419 . S
C1337 C1338 1.362 1_556 S
C1338 H1330 0.930 . S
C1338 C1337 1.362 1_554 S
C1338 C1341 1.409 . S
C1339 H1331 0.930 . S
C1339 C1340 1.355 . S
C1339 C1341 1.415 . S
C1340 C1339 1.355 . S
C1340 C1342 1.419 . S
C1341 C1336 1.425 . S
C1341 C1338 1.409 . S
C1341 C1339 1.415 . S
C1342 H1332 0.930 . S
C1342 C1340 1.419 . S
C1342 C1343 1.362 . S
C1343 H1333 0.930 . S
C1343 C1336 1.409 . S
C1343 C1342 1.362 . S
H1344 C1350 0.930 . S
H1345 C1353 0.930 . S
H1346 C1354 0.930 . S
H1347 C1355 0.930 . S
H1348 C1358 0.930 . S
H1349 C1359 0.930 . S
C1350 H1344 0.930 . S
C1350 C1351 1.355 . S
C1350 C1352 1.382 1_655 S
C1351 C1350 1.355 . S
C1351 C1353 1.419 . S
C1352 C1350 1.382 1_455 S
C1352 C1357 1.413 1_455 S
C1352 C1359 1.455 . S
C1353 H1345 0.930 . S
C1353 C1351 1.419 . S
C1353 C1354 1.362 . S
C1354 H1346 0.930 . S
C1354 C1353 1.362 . S
C1354 C1357 1.409 . S
C1355 H1347 0.930 . S
C1355 C1356 1.355 . S
C1355 C1357 1.415 1_455 S
C1356 C1355 1.355 . S
C1356 C1358 1.419 . S
C1357 C1352 1.413 1_655 S
C1357 C1354 1.409 . S
C1357 C1355 1.415 1_655 S
C1358 H1348 0.930 . S
C1358 C1356 1.419 . S
C1358 C1359 1.362 . S
C1359 H1349 0.930 . S
C1359 C1352 1.455 . S
C1359 C1358 1.362 . S
H1360 C1366 0.930 . S
H1361 C1369 0.930 . S
H1362 C1370 0.930 1_556 S
H1363 C1371 0.930 . S
H1364 C1374 0.930 . S
H1365 C1375 0.930 . S
C1366 H1360 0.930 . S
C1366 C1367 1.355 . S
C1366 C1368 1.415 . S
C1367 C1366 1.355 . S
C1367 C1369 1.419 . S
C1368 C1366 1.415 . S
C1368 C1373 1.425 . S
C1368 C1375 1.409 . S
C1369 H1361 0.930 . S
C1369 C1367 1.419 . S
C1369 C1370 1.362 . S
C1370 H1362 0.930 1_554 S
C1370 C1369 1.362 . S
C1370 C1373 1.409 . S
C1371 H1363 0.930 . S
C1371 C1372 1.355 1_556 S
C1371 C1373 1.415 1_556 S
C1372 C1371 1.355 1_554 S
C1372 C1374 1.419 . S
C1373 C1368 1.425 . S
C1373 C1370 1.409 . S
C1373 C1371 1.415 1_554 S
C1374 H1364 0.930 . S
C1374 C1372 1.419 . S
C1374 C1375 1.362 . S
C1375 H1365 0.930 . S
C1375 C1368 1.409 . S
C1375 C1374 1.362 . S
H1376 C1382 0.930 . S
H1377 C1385 0.930 . S
H1378 C1386 0.930 . S
H1379 C1387 0.930 . S
H1380 C1390 0.930 . S
H1381 C1391 0.930 . S
C1382 H1376 0.930 . S
C1382 C1383 1.355 . S
C1382 C1384 1.415 . S
C1383 C1382 1.355 . S
C1383 C1385 1.419 . S
C1384 C1382 1.415 . S
C1384 C1389 1.425 . S
C1384 C1391 1.409 . S
C1385 H1377 0.930 . S
C1385 C1383 1.419 . S
C1385 C1386 1.362 . S
C1386 H1378 0.930 . S
C1386 C1385 1.362 . S
C1386 C1389 1.409 . S
C1387 H1379 0.930 . S
C1387 C1388 1.355 . S
C1387 C1389 1.415 . S
C1388 C1387 1.355 . S
C1388 C1390 1.419 . S
C1389 C1384 1.425 . S
C1389 C1386 1.409 . S
C1389 C1387 1.415 . S
C1390 H1380 0.930 . S
C1390 C1388 1.419 . S
C1390 C1391 1.362 . S
C1391 H1381 0.930 . S
C1391 C1384 1.409 . S
C1391 C1390 1.362 . S
H1392 C1398 0.930 . S
H1393 C1401 0.930 . S
H1394 C1402 0.930 . S
H1395 C1403 0.930 . S
H1396 C1406 0.930 . S
H1397 C1407 0.930 . S
C1398 H1392 0.930 . S
C1398 C1399 1.355 . S
C1398 C1400 1.415 . S
C1399 C1398 1.355 . S
C1399 C1401 1.419 . S
C1400 C1398 1.415 . S
C1400 C1405 1.425 . S
C1400 C1407 1.409 . S
C1401 H1393 0.930 . S
C1401 C1399 1.419 . S
C1401 C1402 1.362 . S
C1402 H1394 0.930 . S
C1402 C1401 1.362 . S
C1402 C1405 1.409 . S
C1403 H1395 0.930 . S
C1403 C1404 1.355 . S
C1403 C1405 1.415 . S
C1404 C1403 1.355 . S
C1404 C1406 1.419 . S
C1405 C1400 1.425 . S
C1405 C1402 1.409 . S
C1405 C1403 1.415 . S
C1406 H1396 0.930 . S
C1406 C1404 1.419 . S
C1406 C1407 1.362 . S
C1407 H1397 0.930 . S
C1407 C1400 1.409 . S
C1407 C1406 1.362 . S
H1408 C1414 0.930 . S
H1409 C1417 0.930 . S
H1410 C1418 0.930 . S
H1411 C1419 0.930 . S
H1412 C1422 0.930 . S
H1413 C1423 0.930 1_455 S
C1414 H1408 0.930 . S
C1414 C1415 1.355 . S
C1414 C1416 1.415 . S
C1415 C1414 1.355 . S
C1415 C1417 1.419 . S
C1416 C1414 1.415 . S
C1416 C1421 1.425 1_455 S
C1416 C1423 1.409 1_455 S
C1417 H1409 0.930 . S
C1417 C1415 1.419 . S
C1417 C1418 1.362 1_455 S
C1418 H1410 0.930 . S
C1418 C1417 1.362 1_655 S
C1418 C1421 1.409 . S
C1419 H1411 0.930 . S
C1419 C1420 1.355 . S
C1419 C1421 1.415 . S
C1420 C1419 1.355 . S
C1420 C1422 1.419 . S
C1421 C1416 1.425 1_655 S
C1421 C1418 1.409 . S
C1421 C1419 1.415 . S
C1422 H1412 0.930 . S
C1422 C1420 1.419 . S
C1422 C1423 1.362 . S
C1423 H1413 0.930 1_655 S
C1423 C1416 1.409 1_655 S
C1423 C1422 1.362 . S
H1424 C1430 0.930 . S
H1425 C1433 0.930 . S
H1426 C1434 0.930 . S
H1427 C1435 0.930 . S
H1428 C1438 0.930 . S
H1429 C1439 0.930 . S
C1430 H1424 0.930 . S
C1430 C1431 1.355 . S
C1430 C1432 1.415 . S
C1431 C1430 1.355 . S
C1431 C1433 1.419 . S
C1432 C1430 1.415 . S
C1432 C1437 1.425 . S
C1432 C1439 1.409 1_554 S
C1433 H1425 0.930 . S
C1433 C1431 1.419 . S
C1433 C1434 1.362 . S
C1434 H1426 0.930 . S
C1434 C1433 1.362 . S
C1434 C1437 1.409 . S
C1435 H1427 0.930 . S
C1435 C1436 1.355 1_554 S
C1435 C1437 1.415 . S
C1436 C1435 1.355 1_556 S
C1436 C1438 1.419 . S
C1437 C1432 1.425 . S
C1437 C1434 1.409 . S
C1437 C1435 1.415 . S
C1438 H1428 0.930 . S
C1438 C1436 1.419 . S
C1438 C1439 1.362 . S
C1439 H1429 0.930 . S
C1439 C1432 1.409 1_556 S
C1439 C1438 1.362 . S
H1440 C1446 0.930 . S
H1441 C1449 0.930 . S
H1442 C1450 0.930 . S
H1443 C1451 0.930 . S
H1444 C1454 0.930 . S
H1445 C1455 0.930 . S
C1446 H1440 0.930 . S
C1446 C1447 1.355 . S
C1446 C1448 1.415 . S
C1447 C1446 1.355 . S
C1447 C1449 1.419 . S
C1448 C1446 1.415 . S
C1448 C1453 1.425 . S
C1448 C1455 1.409 . S
C1449 H1441 0.930 . S
C1449 C1447 1.419 . S
C1449 C1450 1.362 . S
C1450 H1442 0.930 . S
C1450 C1449 1.362 . S
C1450 C1453 1.409 . S
C1451 H1443 0.930 . S
C1451 C1452 1.355 . S
C1451 C1453 1.415 . S
C1452 C1451 1.355 . S
C1452 C1454 1.419 . S
C1453 C1448 1.425 . S
C1453 C1450 1.409 . S
C1453 C1451 1.415 . S
C1454 H1444 0.930 . S
C1454 C1452 1.419 . S
C1454 C1455 1.362 . S
C1455 H1445 0.930 . S
C1455 C1448 1.409 . S
C1455 C1454 1.362 . S
H1456 C1462 0.930 . S
H1457 C1465 0.930 . S
H1458 C1466 0.930 . S
H1459 C1467 0.930 . S
H1460 C1470 0.930 . S
H1461 C1471 0.930 . S
C1462 H1456 0.930 . S
C1462 C1463 1.355 . S
C1462 C1464 1.415 . S
C1463 C1462 1.355 . S
C1463 C1465 1.419 . S
C1464 C1462 1.415 . S
C1464 C1469 1.425 . S
C1464 C1471 1.409 . S
C1465 H1457 0.930 . S
C1465 C1463 1.419 . S
C1465 C1466 1.362 . S
C1466 H1458 0.930 . S
C1466 C1465 1.362 . S
C1466 C1469 1.409 . S
C1467 H1459 0.930 . S
C1467 C1468 1.355 . S
C1467 C1469 1.415 . S
C1468 C1467 1.355 . S
C1468 C1470 1.419 . S
C1469 C1464 1.425 . S
C1469 C1466 1.409 . S
C1469 C1467 1.415 . S
C1470 H1460 0.930 . S
C1470 C1468 1.419 . S
C1470 C1471 1.362 . S
C1471 H1461 0.930 . S
C1471 C1464 1.409 . S
C1471 C1470 1.362 . S
H1472 C1478 0.930 . S
H1473 C1481 0.930 . S
H1474 C1482 0.930 . S
H1475 C1483 0.930 . S
H1476 C1486 0.930 . S
H1477 C1487 0.896 1_655 S
C1478 H1472 0.930 . S
C1478 C1479 1.355 . S
C1478 C1480 1.415 . S
C1479 C1478 1.355 . S
C1479 C1481 1.419 . S
C1480 C1478 1.415 . S
C1480 C1485 1.425 1_655 S
C1480 C1487 1.404 1_655 S
C1481 H1473 0.930 . S
C1481 C1479 1.419 . S
C1481 C1482 1.362 1_655 S
C1482 H1474 0.930 . S
C1482 C1481 1.362 1_455 S
C1482 C1485 1.409 . S
C1483 H1475 0.930 . S
C1483 C1484 1.355 . S
C1483 C1485 1.415 . S
C1484 C1483 1.355 . S
C1484 C1486 1.419 . S
C1485 C1480 1.425 1_455 S
C1485 C1482 1.409 . S
C1485 C1483 1.415 . S
C1486 H1476 0.930 . S
C1486 C1484 1.419 . S
C1486 C1487 1.403 . S
C1487 H1477 0.896 1_455 S
C1487 C1480 1.404 1_455 S
C1487 C1486 1.403 . S
H1488 C1494 0.930 . S
H1489 C1497 0.930 . S
H1490 C1498 0.930 1_556 S
H1491 C1499 0.930 . S
H1492 C1502 0.930 . S
H1493 C1503 0.930 . S
C1494 H1488 0.930 . S
C1494 C1495 1.355 1_554 S
C1494 C1496 1.415 . S
C1495 C1494 1.355 1_556 S
C1495 C1497 1.419 . S
C1496 C1494 1.415 . S
C1496 C1501 1.425 . S
C1496 C1503 1.409 . S
C1497 H1489 0.930 . S
C1497 C1495 1.419 . S
C1497 C1498 1.362 1_556 S
C1498 H1490 0.930 1_554 S
C1498 C1497 1.362 1_554 S
C1498 C1501 1.409 . S
C1499 H1491 0.930 . S
C1499 C1500 1.355 . S
C1499 C1501 1.415 . S
C1500 C1499 1.355 . S
C1500 C1502 1.419 . S
C1501 C1496 1.425 . S
C1501 C1498 1.409 . S
C1501 C1499 1.415 . S
C1502 H1492 0.930 . S
C1502 C1500 1.419 . S
C1502 C1503 1.362 . S
C1503 H1493 0.930 . S
C1503 C1496 1.409 . S
C1503 C1502 1.362 . S
H1504 C1510 0.930 . S
H1505 C1513 0.930 . S
H1506 C1514 0.930 . S
H1507 C1515 0.930 . S
H1508 C1518 0.930 . S
H1509 C1519 0.930 . S
C1510 H1504 0.930 . S
C1510 C1511 1.355 . S
C1510 C1512 1.415 . S
C1511 C1510 1.355 . S
C1511 C1513 1.419 . S
C1512 C1510 1.415 . S
C1512 C1517 1.425 . S
C1512 C1519 1.409 . S
C1513 H1505 0.930 . S
C1513 C1511 1.419 . S
C1513 C1514 1.362 . S
C1514 H1506 0.930 . S
C1514 C1513 1.362 . S
C1514 C1517 1.409 . S
C1515 H1507 0.930 . S
C1515 C1516 1.355 . S
C1515 C1517 1.415 . S
C1516 C1515 1.355 . S
C1516 C1518 1.419 . S
C1517 C1512 1.425 . S
C1517 C1514 1.409 . S
C1517 C1515 1.415 . S
C1518 H1508 0.930 . S
C1518 C1516 1.419 . S
C1518 C1519 1.362 . S
C1519 H1509 0.930 . S
C1519 C1512 1.409 . S
C1519 C1518 1.362 . S
H1520 C1526 0.930 . S
H1521 C1529 0.930 . S
H1522 C1530 0.930 . S
H1523 C1531 0.930 . S
H1524 C1534 0.930 . S
H1525 C1535 0.930 . S
C1526 H1520 0.930 . S
C1526 C1527 1.355 . S
C1526 C1528 1.415 . S
C1527 C1526 1.355 . S
C1527 C1529 1.419 . S
C1528 C1526 1.415 . S
C1528 C1533 1.425 . S
C1528 C1535 1.409 . S
C1529 H1521 0.930 . S
C1529 C1527 1.419 . S
C1529 C1530 1.362 . S
C1530 H1522 0.930 . S
C1530 C1529 1.362 . S
C1530 C1533 1.409 . S
C1531 H1523 0.930 . S
C1531 C1532 1.355 . S
C1531 C1533 1.415 . S
C1532 C1531 1.355 . S
C1532 C1534 1.419 . S
C1533 C1528 1.425 . S
C1533 C1530 1.409 . S
C1533 C1531 1.415 . S
C1534 H1524 0.930 . S
C1534 C1532 1.419 . S
C1534 C1535 1.362 . S
C1535 H1525 0.930 . S
C1535 C1528 1.409 . S
C1535 C1534 1.362 . S
H1536 C1542 0.930 . S
H1537 C1545 0.930 . S
H1538 C1546 0.930 . S
H1539 C1547 0.930 1_455 S
H1540 C1550 0.930 . S
H1541 C1551 0.930 . S
C1542 H1536 0.930 . S
C1542 C1543 1.355 . S
C1542 C1544 1.431 . S
C1543 C1542 1.355 . S
C1543 C1545 1.419 . S
C1544 C1542 1.431 . S
C1544 C1549 1.438 . S
C1544 C1551 1.381 1_455 S
C1545 H1537 0.930 . S
C1545 C1543 1.419 . S
C1545 C1546 1.362 . S
C1546 H1538 0.930 . S
C1546 C1545 1.362 . S
C1546 C1549 1.409 . S
C1547 H1539 0.930 1_655 S
C1547 C1548 1.355 . S
C1547 C1549 1.415 1_655 S
C1548 C1547 1.355 . S
C1548 C1550 1.419 . S
C1549 C1544 1.438 . S
C1549 C1546 1.409 . S
C1549 C1547 1.415 1_455 S
C1550 H1540 0.930 . S
C1550 C1548 1.419 . S
C1550 C1551 1.362 . S
C1551 H1541 0.930 . S
C1551 C1544 1.381 1_655 S
C1551 C1550 1.362 . S
H1552 C1558 0.930 . S
H1553 C1561 0.930 . S
H1554 C1562 0.930 . S
H1555 C1563 0.930 . S
H1556 C1566 0.930 . S
H1557 C1567 0.930 . S
C1558 H1552 0.930 . S
C1558 C1559 1.355 1_554 S
C1558 C1560 1.415 . S
C1559 C1558 1.355 1_556 S
C1559 C1561 1.419 . S
C1560 C1558 1.415 . S
C1560 C1565 1.425 . S
C1560 C1567 1.409 . S
C1561 H1553 0.930 . S
C1561 C1559 1.419 . S
C1561 C1562 1.362 . S
C1562 H1554 0.930 . S
C1562 C1561 1.362 . S
C1562 C1565 1.409 1_556 S
C1563 H1555 0.930 . S
C1563 C1564 1.355 . S
C1563 C1565 1.415 . S
C1564 C1563 1.355 . S
C1564 C1566 1.419 . S
C1565 C1560 1.425 . S
C1565 C1562 1.409 1_554 S
C1565 C1563 1.415 . S
C1566 H1556 0.930 . S
C1566 C1564 1.419 . S
C1566 C1567 1.362 . S
C1567 H1557 0.930 . S
C1567 C1560 1.409 . S
C1567 C1566 1.362 . S
H1568 C1574 0.930 . S
H1569 C1577 0.930 . S
H1570 C1578 0.930 . S
H1571 C1579 0.930 . S
H1572 C1582 0.930 . S
H1573 C1583 0.930 . S
C1574 H1568 0.930 . S
C1574 C1575 1.355 . S
C1574 C1576 1.415 . S
C1575 C1574 1.355 . S
C1575 C1577 1.419 . S
C1576 C1574 1.415 . S
C1576 C1581 1.425 . S
C1576 C1583 1.409 . S
C1577 H1569 0.930 . S
C1577 C1575 1.419 . S
C1577 C1578 1.362 . S
C1578 H1570 0.930 . S
C1578 C1577 1.362 . S
C1578 C1581 1.409 . S
C1579 H1571 0.930 . S
C1579 C1580 1.355 . S
C1579 C1581 1.415 . S
C1580 C1579 1.355 . S
C1580 C1582 1.419 . S
C1581 C1576 1.425 . S
C1581 C1578 1.409 . S
C1581 C1579 1.415 . S
C1582 H1572 0.930 . S
C1582 C1580 1.419 . S
C1582 C1583 1.362 . S
C1583 H1573 0.930 . S
C1583 C1576 1.409 . S
C1583 C1582 1.362 . S
H1584 C1590 0.930 . S
H1585 C1593 0.930 . S
H1586 C1594 0.930 . S
H1587 C1595 0.930 . S
H1588 C1598 0.930 . S
H1589 C1599 0.930 . S
C1590 H1584 0.930 . S
C1590 C1591 1.355 . S
C1590 C1592 1.415 . S
C1591 C1590 1.355 . S
C1591 C1593 1.419 . S
C1592 C1590 1.415 . S
C1592 C1597 1.425 . S
C1592 C1599 1.409 . S
C1593 H1585 0.930 . S
C1593 C1591 1.419 . S
C1593 C1594 1.362 . S
C1594 H1586 0.930 . S
C1594 C1593 1.362 . S
C1594 C1597 1.409 . S
C1595 H1587 0.930 . S
C1595 C1596 1.355 . S
C1595 C1597 1.415 . S
C1596 C1595 1.355 . S
C1596 C1598 1.419 . S
C1597 C1592 1.425 . S
C1597 C1594 1.409 . S
C1597 C1595 1.415 . S
C1598 H1588 0.930 . S
C1598 C1596 1.419 . S
C1598 C1599 1.362 . S
C1599 H1589 0.930 . S
C1599 C1592 1.409 . S
C1599 C1598 1.362 . S
H1600 C1606 0.930 . S
H1601 C1609 0.930 . S
H1602 C1610 0.930 . S
H1603 C1611 0.930 . S
H1604 C1614 0.930 . S
H1605 C1615 0.930 . S
C1606 H1600 0.930 . S
C1606 C1607 1.355 . S
C1606 C1608 1.415 . S
C1607 C1606 1.355 . S
C1607 C1609 1.419 . S
C1608 C1606 1.415 . S
C1608 C1613 1.425 . S
C1608 C1615 1.409 . S
C1609 H1601 0.930 . S
C1609 C1607 1.419 . S
C1609 C1610 1.362 . S
C1610 H1602 0.930 . S
C1610 C1609 1.362 . S
C1610 C1613 1.409 . S
C1611 H1603 0.930 . S
C1611 C1612 1.355 . S
C1611 C1613 1.415 . S
C1612 C1611 1.355 . S
C1612 C1614 1.419 . S
C1613 C1608 1.425 . S
C1613 C1610 1.409 . S
C1613 C1611 1.415 . S
C1614 H1604 0.930 . S
C1614 C1612 1.419 . S
C1614 C1615 1.362 . S
C1615 H1605 0.930 . S
C1615 C1608 1.409 . S
C1615 C1614 1.362 . S
H1616 C1622 0.930 . S
H1617 C1625 0.930 . S
H1618 C1626 0.930 . S
H1619 C1627 0.930 . S
H1620 C1630 0.930 . S
H1621 C1631 0.930 . S
C1622 H1616 0.930 . S
C1622 C1623 1.355 . S
C1622 C1624 1.415 . S
C1623 C1622 1.355 . S
C1623 C1625 1.419 . S
C1624 C1622 1.415 . S
C1624 C1629 1.425 . S
C1624 C1631 1.409 . S
C1625 H1617 0.930 . S
C1625 C1623 1.419 . S
C1625 C1626 1.362 . S
C1626 H1618 0.930 . S
C1626 C1625 1.362 . S
C1626 C1629 1.409 . S
C1627 H1619 0.930 . S
C1627 C1628 1.355 . S
C1627 C1629 1.415 . S
C1628 C1627 1.355 . S
C1628 C1630 1.419 . S
C1629 C1624 1.425 . S
C1629 C1626 1.409 . S
C1629 C1627 1.415 . S
C1630 H1620 0.930 . S
C1630 C1628 1.419 . S
C1630 C1631 1.362 . S
C1631 H1621 0.930 . S
C1631 C1624 1.409 . S
C1631 C1630 1.362 . S
H1632 C1638 0.930 . S
H1633 C1641 0.930 . S
H1634 C1642 0.930 . S
H1635 C1643 0.930 . S
H1636 C1646 0.930 . S
H1637 C1647 0.952 . S
C1638 H1632 0.930 . S
C1638 C1639 1.355 . S
C1638 C1640 1.415 . S
C1639 C1638 1.355 . S
C1639 C1641 1.419 . S
C1640 C1638 1.415 . S
C1640 C1645 1.425 1_655 S
C1640 C1647 1.416 . S
C1641 H1633 0.930 . S
C1641 C1639 1.419 . S
C1641 C1642 1.362 1_655 S
C1642 H1634 0.930 . S
C1642 C1641 1.362 1_455 S
C1642 C1645 1.409 . S
C1643 H1635 0.930 . S
C1643 C1644 1.355 . S
C1643 C1645 1.415 . S
C1644 C1643 1.355 . S
C1644 C1646 1.419 . S
C1645 C1640 1.425 1_455 S
C1645 C1642 1.409 . S
C1645 C1643 1.415 . S
C1646 H1636 0.930 . S
C1646 C1644 1.419 . S
C1646 C1647 1.335 1_455 S
C1647 H1637 0.952 . S
C1647 C1640 1.416 . S
C1647 C1646 1.335 1_655 S
H1648 C1654 0.930 . S
H1649 C1657 0.930 . S
H1650 C1658 0.930 . S
H1651 C1659 0.930 . S
H1652 C1662 0.930 1_556 S
H1653 C1663 0.930 . S
C1654 H1648 0.930 . S
C1654 C1655 1.355 . S
C1654 C1656 1.415 . S
C1655 C1654 1.355 . S
C1655 C1657 1.419 . S
C1656 C1654 1.415 . S
C1656 C1661 1.425 . S
C1656 C1663 1.409 . S
C1657 H1649 0.930 . S
C1657 C1655 1.419 . S
C1657 C1658 1.362 . S
C1658 H1650 0.930 . S
C1658 C1657 1.362 . S
C1658 C1661 1.409 . S
C1659 H1651 0.930 . S
C1659 C1660 1.356 . S
C1659 C1661 1.415 . S
C1660 C1659 1.356 . S
C1660 C1662 1.419 . S
C1661 C1656 1.425 . S
C1661 C1658 1.409 . S
C1661 C1659 1.415 . S
C1662 H1652 0.930 1_554 S
C1662 C1660 1.419 . S
C1662 C1663 1.362 . S
C1663 H1653 0.930 . S
C1663 C1656 1.409 . S
C1663 C1662 1.362 . S
H1664 C1670 0.930 . S
H1665 C1673 0.930 . S
H1666 C1674 0.930 . S
H1667 C1675 0.930 . S
H1668 C1678 0.930 . S
H1669 C1679 0.930 . S
C1670 H1664 0.930 . S
C1670 C1671 1.355 . S
C1670 C1672 1.415 . S
C1671 C1670 1.355 . S
C1671 C1673 1.419 . S
C1672 C1670 1.415 . S
C1672 C1677 1.425 . S
C1672 C1679 1.409 . S
C1673 H1665 0.930 . S
C1673 C1671 1.419 . S
C1673 C1674 1.362 . S
C1674 H1666 0.930 . S
C1674 C1673 1.362 . S
C1674 C1677 1.409 . S
C1675 H1667 0.930 . S
C1675 C1676 1.355 . S
C1675 C1677 1.415 . S
C1676 C1675 1.355 . S
C1676 C1678 1.419 . S
C1677 C1672 1.425 . S
C1677 C1674 1.409 . S
C1677 C1675 1.415 . S
C1678 H1668 0.930 . S
C1678 C1676 1.419 . S
C1678 C1679 1.362 . S
C1679 H1669 0.930 . S
C1679 C1672 1.409 . S
C1679 C1678 1.362 . S
H1680 C1686 0.930 . S
H1681 C1689 0.930 . S
H1682 C1690 0.930 . S
H1683 C1691 0.930 . S
H1684 C1694 0.930 . S
H1685 C1695 0.930 . S
C1686 H1680 0.930 . S
C1686 C1687 1.355 . S
C1686 C1688 1.415 . S
C1687 C1686 1.355 . S
C1687 C1689 1.419 . S
C1688 C1686 1.415 . S
C1688 C1693 1.425 . S
C1688 C1695 1.409 . S
C1689 H1681 0.930 . S
C1689 C1687 1.419 . S
C1689 C1690 1.362 . S
C1690 H1682 0.930 . S
C1690 C1689 1.362 . S
C1690 C1693 1.409 . S
C1691 H1683 0.930 . S
C1691 C1692 1.355 . S
C1691 C1693 1.415 . S
C1692 C1691 1.355 . S
C1692 C1694 1.419 . S
C1693 C1688 1.425 . S
C1693 C1690 1.409 . S
C1693 C1691 1.415 . S
C1694 H1684 0.930 . S
C1694 C1692 1.419 . S
C1694 C1695 1.362 . S
C1695 H1685 0.930 . S
C1695 C1688 1.409 . S
C1695 C1694 1.362 . S
H1696 C1702 0.930 . S
H1697 C1705 0.930 . S
H1698 C1706 0.930 . S
H1699 C1707 0.930 . S
H1700 C1710 0.930 . S
H1701 C1711 0.930 . S
C1702 H1696 0.930 . S
C1702 C1703 1.355 . S
C1702 C1704 1.415 . S
C1703 C1702 1.355 . S
C1703 C1705 1.419 . S
C1704 C1702 1.415 . S
C1704 C1709 1.425 1_455 S
C1704 C1711 1.409 . S
C1705 H1697 0.930 . S
C1705 C1703 1.419 . S
C1705 C1706 1.362 1_455 S
C1706 H1698 0.930 . S
C1706 C1705 1.362 1_655 S
C1706 C1709 1.409 . S
C1707 H1699 0.930 . S
C1707 C1708 1.355 . S
C1707 C1709 1.415 . S
C1708 C1707 1.355 . S
C1708 C1710 1.419 . S
C1709 C1704 1.425 1_655 S
C1709 C1706 1.409 . S
C1709 C1707 1.415 . S
C1710 H1700 0.930 . S
C1710 C1708 1.419 . S
C1710 C1711 1.362 1_655 S
C1711 H1701 0.930 . S
C1711 C1704 1.409 . S
C1711 C1710 1.362 1_455 S
H1712 C1718 0.930 . S
H1713 C1721 0.930 . S
H1714 C1722 0.930 . S
H1715 C1723 0.930 . S
H1716 C1726 0.930 . S
H1717 C1727 0.930 . S
C1718 H1712 0.930 . S
C1718 C1719 1.355 1_554 S
C1718 C1720 1.415 . S
C1719 C1718 1.355 1_556 S
C1719 C1721 1.419 . S
C1720 C1718 1.415 . S
C1720 C1725 1.425 . S
C1720 C1727 1.409 . S
C1721 H1713 0.930 . S
C1721 C1719 1.419 . S
C1721 C1722 1.362 1_556 S
C1722 H1714 0.930 . S
C1722 C1721 1.362 1_554 S
C1722 C1725 1.409 . S
C1723 H1715 0.930 . S
C1723 C1724 1.355 . S
C1723 C1725 1.415 . S
C1724 C1723 1.355 . S
C1724 C1726 1.419 . S
C1725 C1720 1.425 . S
C1725 C1722 1.409 . S
C1725 C1723 1.415 . S
C1726 H1716 0.930 . S
C1726 C1724 1.419 . S
C1726 C1727 1.362 . S
C1727 H1717 0.930 . S
C1727 C1720 1.409 . S
C1727 C1726 1.362 . S
H1728 C1734 0.930 . S
H1729 C1737 0.930 . S
H1730 C1738 0.930 . S
H1731 C1739 0.930 . S
H1732 C1742 0.930 . S
H1733 C1743 0.930 . S
C1734 H1728 0.930 . S
C1734 C1735 1.355 . S
C1734 C1736 1.415 . S
C1735 C1734 1.355 . S
C1735 C1737 1.419 . S
C1736 C1734 1.415 . S
C1736 C1741 1.425 . S
C1736 C1743 1.409 . S
C1737 H1729 0.930 . S
C1737 C1735 1.419 . S
C1737 C1738 1.362 . S
C1738 H1730 0.930 . S
C1738 C1737 1.362 . S
C1738 C1741 1.409 . S
C1739 H1731 0.930 . S
C1739 C1740 1.355 . S
C1739 C1741 1.415 . S
C1740 C1739 1.355 . S
C1740 C1742 1.419 . S
C1741 C1736 1.425 . S
C1741 C1738 1.409 . S
C1741 C1739 1.415 . S
C1742 H1732 0.930 . S
C1742 C1740 1.419 . S
C1742 C1743 1.362 . S
C1743 H1733 0.930 . S
C1743 C1736 1.409 . S
C1743 C1742 1.362 . S
H1744 C1750 0.930 . S
H1745 C1753 0.930 . S
H1746 C1754 0.930 . S
H1747 C1755 0.930 . S
H1748 C1758 0.930 . S
H1749 C1759 0.930 . S
C1750 H1744 0.930 . S
C1750 C1751 1.355 . S
C1750 C1752 1.415 . S
C1751 C1750 1.355 . S
C1751 C1753 1.419 . S
C1752 C1750 1.415 . S
C1752 C1757 1.425 . S
C1752 C1759 1.409 . S
C1753 H1745 0.930 . S
C1753 C1751 1.419 . S
C1753 C1754 1.362 . S
C1754 H1746 0.930 . S
C1754 C1753 1.362 . S
C1754 C1757 1.409 . S
C1755 H1747 0.930 . S
C1755 C1756 1.355 . S
C1755 C1757 1.415 . S
C1756 C1755 1.355 . S
C1756 C1758 1.419 . S
C1757 C1752 1.425 . S
C1757 C1754 1.409 . S
C1757 C1755 1.415 . S
C1758 H1748 0.930 . S
C1758 C1756 1.419 . S
C1758 C1759 1.362 . S
C1759 H1749 0.930 . S
C1759 C1752 1.409 . S
C1759 C1758 1.362 . S
H1760 C1766 0.930 . S
H1761 C1769 0.930 . S
H1762 C1770 0.930 . S
H1763 C1771 0.930 1_655 S
H1764 C1774 0.930 . S
H1765 C1775 0.930 . S
C1766 H1760 0.930 . S
C1766 C1767 1.355 . S
C1766 C1768 1.431 . S
C1767 C1766 1.355 . S
C1767 C1769 1.419 . S
C1768 C1766 1.431 . S
C1768 C1773 1.438 . S
C1768 C1775 1.381 1_655 S
C1769 H1761 0.930 . S
C1769 C1767 1.419 . S
C1769 C1770 1.362 . S
C1770 H1762 0.930 . S
C1770 C1769 1.362 . S
C1770 C1773 1.409 . S
C1771 H1763 0.930 1_455 S
C1771 C1772 1.355 . S
C1771 C1773 1.415 1_455 S
C1772 C1771 1.355 . S
C1772 C1774 1.419 . S
C1773 C1768 1.438 . S
C1773 C1770 1.409 . S
C1773 C1771 1.415 1_655 S
C1774 H1764 0.930 . S
C1774 C1772 1.419 . S
C1774 C1775 1.362 . S
C1775 H1765 0.930 . S
C1775 C1768 1.381 1_455 S
C1775 C1774 1.362 . S
H1776 C1782 0.930 . S
H1777 C1785 0.930 . S
H1778 C1786 0.930 . S
H1779 C1787 0.930 . S
H1780 C1790 0.930 1_556 S
H1781 C1791 0.930 . S
C1782 H1776 0.930 . S
C1782 C1783 1.355 . S
C1782 C1784 1.415 . S
C1783 C1782 1.355 . S
C1783 C1785 1.419 . S
C1784 C1782 1.415 . S
C1784 C1789 1.425 . S
C1784 C1791 1.409 . S
C1785 H1777 0.930 . S
C1785 C1783 1.419 . S
C1785 C1786 1.362 . S
C1786 H1778 0.930 . S
C1786 C1785 1.362 . S
C1786 C1789 1.409 . S
C1787 H1779 0.930 . S
C1787 C1788 1.355 . S
C1787 C1789 1.415 1_556 S
C1788 C1787 1.355 . S
C1788 C1790 1.419 1_556 S
C1789 C1784 1.425 . S
C1789 C1786 1.409 . S
C1789 C1787 1.415 1_554 S
C1790 H1780 0.930 1_554 S
C1790 C1788 1.419 1_554 S
C1790 C1791 1.362 . S
C1791 H1781 0.930 . S
C1791 C1784 1.409 . S
C1791 C1790 1.362 . S
H1792 C1798 0.930 . S
H1793 C1801 0.930 . S
H1794 C1802 0.930 . S
H1795 C1803 0.930 . S
H1796 C1806 0.930 . S
H1797 C1807 0.930 . S
C1798 H1792 0.930 . S
C1798 C1799 1.355 . S
C1798 C1800 1.415 . S
C1799 C1798 1.355 . S
C1799 C1801 1.419 . S
C1800 C1798 1.415 . S
C1800 C1805 1.425 . S
C1800 C1807 1.409 . S
C1801 H1793 0.930 . S
C1801 C1799 1.419 . S
C1801 C1802 1.362 . S
C1802 H1794 0.930 . S
C1802 C1801 1.362 . S
C1802 C1805 1.409 . S
C1803 H1795 0.930 . S
C1803 C1804 1.355 . S
C1803 C1805 1.415 . S
C1804 C1803 1.355 . S
C1804 C1806 1.419 . S
C1805 C1800 1.425 . S
C1805 C1802 1.409 . S
C1805 C1803 1.415 . S
C1806 H1796 0.930 . S
C1806 C1804 1.419 . S
C1806 C1807 1.362 . S
C1807 H1797 0.930 . S
C1807 C1800 1.409 . S
C1807 C1806 1.362 . S
H1808 C1814 0.930 . S
H1809 C1817 0.930 . S
H1810 C1818 0.930 . S
H1811 C1819 0.930 . S
H1812 C1822 0.930 . S
H1813 C1823 0.930 . S
C1814 H1808 0.930 . S
C1814 C1815 1.355 . S
C1814 C1816 1.415 . S
C1815 C1814 1.355 . S
C1815 C1817 1.419 . S
C1816 C1814 1.415 . S
C1816 C1821 1.425 . S
C1816 C1823 1.409 . S
C1817 H1809 0.930 . S
C1817 C1815 1.419 . S
C1817 C1818 1.362 . S
C1818 H1810 0.930 . S
C1818 C1817 1.362 . S
C1818 C1821 1.409 . S
C1819 H1811 0.930 . S
C1819 C1820 1.355 . S
C1819 C1821 1.415 . S
C1820 C1819 1.355 . S
C1820 C1822 1.419 . S
C1821 C1816 1.425 . S
C1821 C1818 1.409 . S
C1821 C1819 1.415 . S
C1822 H1812 0.930 . S
C1822 C1820 1.419 . S
C1822 C1823 1.362 . S
C1823 H1813 0.930 . S
C1823 C1816 1.409 . S
C1823 C1822 1.362 . S
H1824 C1830 0.930 1_655 S
H1825 C1833 0.930 . S
H1826 C1834 0.930 . S
H1827 C1835 0.930 . S
H1828 C1838 0.930 . S
H1829 C1839 0.930 . S
C1830 H1824 0.930 1_455 S
C1830 C1831 1.355 . S
C1830 C1832 1.415 1_455 S
C1831 C1830 1.355 . S
C1831 C1833 1.419 . S
C1832 C1830 1.415 1_655 S
C1832 C1837 1.441 . S
C1832 C1839 1.409 . S
C1833 H1825 0.930 . S
C1833 C1831 1.419 . S
C1833 C1834 1.362 . S
C1834 H1826 0.930 . S
C1834 C1833 1.362 . S
C1834 C1837 1.373 1_455 S
C1835 H1827 0.930 . S
C1835 C1836 1.355 . S
C1835 C1837 1.436 . S
C1836 C1835 1.355 . S
C1836 C1838 1.419 . S
C1837 C1832 1.441 . S
C1837 C1834 1.373 1_655 S
C1837 C1835 1.436 . S
C1838 H1828 0.930 . S
C1838 C1836 1.419 . S
C1838 C1839 1.362 . S
C1839 H1829 0.930 . S
C1839 C1832 1.409 . S
C1839 C1838 1.362 . S
H1840 C1846 0.930 . S
H1841 C1849 0.930 . S
H1842 C1850 0.927 1_556 S
H1843 C1851 0.930 . S
H1844 C1854 0.930 . S
H1845 C1855 0.930 . S
C1846 H1840 0.930 . S
C1846 C1847 1.355 1_554 S
C1846 C1848 1.415 . S
C1847 C1846 1.355 1_556 S
C1847 C1849 1.419 . S
C1848 C1846 1.415 . S
C1848 C1853 1.425 . S
C1848 C1855 1.409 . S
C1849 H1841 0.930 . S
C1849 C1847 1.419 . S
C1849 C1850 1.362 1_556 S
C1850 H1842 0.927 1_554 S
C1850 C1849 1.362 1_554 S
C1850 C1853 1.409 . S
C1851 H1843 0.930 . S
C1851 C1852 1.355 . S
C1851 C1853 1.415 . S
C1852 C1851 1.355 . S
C1852 C1854 1.419 . S
C1853 C1848 1.425 . S
C1853 C1850 1.409 . S
C1853 C1851 1.415 . S
C1854 H1844 0.930 . S
C1854 C1852 1.419 . S
C1854 C1855 1.362 . S
C1855 H1845 0.930 . S
C1855 C1848 1.409 . S
C1855 C1854 1.362 . S
H1856 C1862 0.930 . S
H1857 C1865 0.930 . S
H1858 C1866 0.930 . S
H1859 C1867 0.930 . S
H1860 C1870 0.930 . S
H1861 C1871 0.930 . S
C1862 H1856 0.930 . S
C1862 C1863 1.355 . S
C1862 C1864 1.415 . S
C1863 C1862 1.355 . S
C1863 C1865 1.419 . S
C1864 C1862 1.415 . S
C1864 C1869 1.425 1_545 S
C1864 C1871 1.409 . S
C1865 H1857 0.930 . S
C1865 C1863 1.419 . S
C1865 C1866 1.362 1_545 S
C1866 H1858 0.930 . S
C1866 C1865 1.362 1_565 S
C1866 C1869 1.409 . S
C1867 H1859 0.930 . S
C1867 C1868 1.355 . S
C1867 C1869 1.415 . S
C1868 C1867 1.355 . S
C1868 C1870 1.419 . S
C1869 C1864 1.425 1_565 S
C1869 C1866 1.409 . S
C1869 C1867 1.415 . S
C1870 H1860 0.930 . S
C1870 C1868 1.419 . S
C1870 C1871 1.362 1_565 S
C1871 H1861 0.930 . S
C1871 C1864 1.409 . S
C1871 C1870 1.362 1_545 S
H1872 C1878 0.930 . S
H1873 C1881 0.930 . S
H1874 C1882 0.930 . S
H1875 C1883 0.930 . S
H1876 C1886 0.930 . S
H1877 C1887 0.930 . S
C1878 H1872 0.930 . S
C1878 C1879 1.355 . S
C1878 C1880 1.415 . S
C1879 C1878 1.355 . S
C1879 C1881 1.419 . S
C1880 C1878 1.415 . S
C1880 C1885 1.425 . S
C1880 C1887 1.409 . S
C1881 H1873 0.930 . S
C1881 C1879 1.419 . S
C1881 C1882 1.362 . S
C1882 H1874 0.930 . S
C1882 C1881 1.362 . S
C1882 C1885 1.409 . S
C1883 H1875 0.930 . S
C1883 C1884 1.355 . S
C1883 C1885 1.415 . S
C1884 C1883 1.355 . S
C1884 C1886 1.419 . S
C1885 C1880 1.425 . S
C1885 C1882 1.409 . S
C1885 C1883 1.415 . S
C1886 H1876 0.930 . S
C1886 C1884 1.419 . S
C1886 C1887 1.362 . S
C1887 H1877 0.930 . S
C1887 C1880 1.409 . S
C1887 C1886 1.362 . S
H1888 C1894 0.930 . S
H1889 C1897 0.930 . S
H1890 C1898 0.897 1_565 S
H1891 C1899 0.930 . S
H1892 C1902 0.930 . S
H1893 C1903 0.898 1_545 S
C1894 H1888 0.930 . S
C1894 C1895 1.355 . S
C1894 C1896 1.415 . S
C1895 C1894 1.355 . S
C1895 C1897 1.419 . S
C1896 C1894 1.415 . S
C1896 C1901 1.425 1_545 S
C1896 C1903 1.389 1_545 S
C1897 H1889 0.930 . S
C1897 C1895 1.419 . S
C1897 C1898 1.418 . S
C1898 H1890 0.897 1_545 S
C1898 C1897 1.418 . S
C1898 C1901 1.389 1_545 S
C1899 H1891 0.930 . S
C1899 C1900 1.355 . S
C1899 C1901 1.415 . S
C1900 C1899 1.355 . S
C1900 C1902 1.419 . S
C1901 C1896 1.425 1_565 S
C1901 C1898 1.389 1_565 S
C1901 C1899 1.415 . S
C1902 H1892 0.930 . S
C1902 C1900 1.419 . S
C1902 C1903 1.417 . S
C1903 H1893 0.898 1_565 S
C1903 C1896 1.389 1_565 S
C1903 C1902 1.417 . S
H1904 C1910 0.930 . S
H1905 C1913 0.930 . S
H1906 C1914 0.930 . S
H1907 C1915 0.930 . S
H1908 C1918 0.930 . S
H1909 C1919 0.930 . S
C1910 H1904 0.930 . S
C1910 C1911 1.355 1_554 S
C1910 C1912 1.415 . S
C1911 C1910 1.355 1_556 S
C1911 C1913 1.419 . S
C1912 C1910 1.415 . S
C1912 C1917 1.425 . S
C1912 C1919 1.409 . S
C1913 H1905 0.930 . S
C1913 C1911 1.419 . S
C1913 C1914 1.362 . S
C1914 H1906 0.930 . S
C1914 C1913 1.362 . S
C1914 C1917 1.409 1_556 S
C1915 H1907 0.930 . S
C1915 C1916 1.355 . S
C1915 C1917 1.415 . S
C1916 C1915 1.355 . S
C1916 C1918 1.419 . S
C1917 C1912 1.425 . S
C1917 C1914 1.409 1_554 S
C1917 C1915 1.415 . S
C1918 H1908 0.930 . S
C1918 C1916 1.419 . S
C1918 C1919 1.362 . S
C1919 H1909 0.930 . S
C1919 C1912 1.409 . S
C1919 C1918 1.362 . S
H1920 C1926 0.930 . S
H1921 C1929 0.930 . S
H1922 C1930 0.930 . S
H1923 C1931 0.930 . S
H1924 C1934 0.930 . S
H1925 C1935 0.930 . S
C1926 H1920 0.930 . S
C1926 C1927 1.355 . S
C1926 C1928 1.415 1_565 S
C1927 C1926 1.355 . S
C1927 C1929 1.419 . S
C1928 C1926 1.415 1_545 S
C1928 C1933 1.425 1_545 S
C1928 C1935 1.409 . S
C1929 H1921 0.930 . S
C1929 C1927 1.419 . S
C1929 C1930 1.362 . S
C1930 H1922 0.930 . S
C1930 C1929 1.362 . S
C1930 C1933 1.409 . S
C1931 H1923 0.930 . S
C1931 C1932 1.355 . S
C1931 C1933 1.415 1_545 S
C1932 C1931 1.355 . S
C1932 C1934 1.419 . S
C1933 C1928 1.425 1_565 S
C1933 C1930 1.409 . S
C1933 C1931 1.415 1_565 S
C1934 H1924 0.930 . S
C1934 C1932 1.419 . S
C1934 C1935 1.362 . S
C1935 H1925 0.930 . S
C1935 C1928 1.409 . S
C1935 C1934 1.362 . S
H1936 C1942 0.930 . S
H1937 C1945 0.930 . S
H1938 C1946 0.930 . S
H1939 C1947 0.930 . S
H1940 C1950 0.930 . S
H1941 C1951 0.930 . S
C1942 H1936 0.930 . S
C1942 C1943 1.355 . S
C1942 C1944 1.415 . S
C1943 C1942 1.355 . S
C1943 C1945 1.419 . S
C1944 C1942 1.415 . S
C1944 C1949 1.425 . S
C1944 C1951 1.409 . S
C1945 H1937 0.930 . S
C1945 C1943 1.419 . S
C1945 C1946 1.362 . S
C1946 H1938 0.930 . S
C1946 C1945 1.362 . S
C1946 C1949 1.409 . S
C1947 H1939 0.930 . S
C1947 C1948 1.355 . S
C1947 C1949 1.415 . S
C1948 C1947 1.355 . S
C1948 C1950 1.419 . S
C1949 C1944 1.425 . S
C1949 C1946 1.409 . S
C1949 C1947 1.415 . S
C1950 H1940 0.930 . S
C1950 C1948 1.419 . S
C1950 C1951 1.362 . S
C1951 H1941 0.930 . S
C1951 C1944 1.409 . S
C1951 C1950 1.362 . S
H1952 C1958 0.930 . S
H1953 C1961 0.930 . S
H1954 C1962 0.930 . S
H1955 C1963 0.930 . S
H1956 C1966 0.930 . S
H1957 C1967 0.930 . S
C1958 H1952 0.930 . S
C1958 C1959 1.355 . S
C1958 C1960 1.415 1_565 S
C1959 C1958 1.355 . S
C1959 C1961 1.419 . S
C1960 C1958 1.415 1_545 S
C1960 C1965 1.425 1_545 S
C1960 C1967 1.409 . S
C1961 H1953 0.930 . S
C1961 C1959 1.419 . S
C1961 C1962 1.362 . S
C1962 H1954 0.930 . S
C1962 C1961 1.362 . S
C1962 C1965 1.409 . S
C1963 H1955 0.930 . S
C1963 C1964 1.355 . S
C1963 C1965 1.415 1_545 S
C1964 C1963 1.355 . S
C1964 C1966 1.419 . S
C1965 C1960 1.425 1_565 S
C1965 C1962 1.409 . S
C1965 C1963 1.415 1_565 S
C1966 H1956 0.930 . S
C1966 C1964 1.419 . S
C1966 C1967 1.362 . S
C1967 H1957 0.930 . S
C1967 C1960 1.409 . S
C1967 C1966 1.362 . S
H1968 C1974 0.930 . S
H1969 C1977 0.930 . S
H1970 C1978 0.930 . S
H1971 C1979 0.930 . S
H1972 C1982 0.930 . S
H1973 C1983 0.930 . S
C1974 H1968 0.930 . S
C1974 C1975 1.355 . S
C1974 C1976 1.415 . S
C1975 C1974 1.355 . S
C1975 C1977 1.419 . S
C1976 C1974 1.415 . S
C1976 C1981 1.425 . S
C1976 C1983 1.409 1_554 S
C1977 H1969 0.930 . S
C1977 C1975 1.419 . S
C1977 C1978 1.362 . S
C1978 H1970 0.930 . S
C1978 C1977 1.362 . S
C1978 C1981 1.409 . S
C1979 H1971 0.930 . S
C1979 C1980 1.355 1_554 S
C1979 C1981 1.415 . S
C1980 C1979 1.355 1_556 S
C1980 C1982 1.419 . S
C1981 C1976 1.425 . S
C1981 C1978 1.409 . S
C1981 C1979 1.415 . S
C1982 H1972 0.930 . S
C1982 C1980 1.419 . S
C1982 C1983 1.362 . S
C1983 H1973 0.930 . S
C1983 C1976 1.409 1_556 S
C1983 C1982 1.362 . S
H1984 C1990 0.930 . S
H1985 C1993 0.930 . S
H1986 C1994 0.930 . S
H1987 C1995 0.930 . S
H1988 C1998 0.930 . S
H1989 C1999 0.930 . S
C1990 H1984 0.930 . S
C1990 C1991 1.355 . S
C1990 C1992 1.415 . S
C1991 C1990 1.355 . S
C1991 C1993 1.419 . S
C1992 C1990 1.415 . S
C1992 C1997 1.425 . S
C1992 C1999 1.409 . S
C1993 H1985 0.930 . S
C1993 C1991 1.419 . S
C1993 C1994 1.362 . S
C1994 H1986 0.930 . S
C1994 C1993 1.362 . S
C1994 C1997 1.409 . S
C1995 H1987 0.930 . S
C1995 C1996 1.355 . S
C1995 C1997 1.415 . S
C1996 C1995 1.355 . S
C1996 C1998 1.419 . S
C1997 C1992 1.425 . S
C1997 C1994 1.409 . S
C1997 C1995 1.415 . S
C1998 H1988 0.930 . S
C1998 C1996 1.419 . S
C1998 C1999 1.362 . S
C1999 H1989 0.930 . S
C1999 C1992 1.409 . S
C1999 C1998 1.362 . S
H2000 C2006 0.930 1_556 S
H2001 C2009 0.930 . S
H2002 C2010 0.930 . S
H2003 C2011 0.930 . S
H2004 C2014 0.930 . S
H2005 C2015 0.930 . S
C2006 H2000 0.930 1_554 S
C2006 C2007 1.355 1_554 S
C2006 C2008 1.415 . S
C2007 C2006 1.355 1_556 S
C2007 C2009 1.419 1_556 S
C2008 C2006 1.415 . S
C2008 C2013 1.425 . S
C2008 C2015 1.409 . S
C2009 H2001 0.930 . S
C2009 C2007 1.419 1_554 S
C2009 C2010 1.362 . S
C2010 H2002 0.930 . S
C2010 C2009 1.362 . S
C2010 C2013 1.409 . S
C2011 H2003 0.930 . S
C2011 C2012 1.355 . S
C2011 C2013 1.415 . S
C2012 C2011 1.355 . S
C2012 C2014 1.419 . S
C2013 C2008 1.425 . S
C2013 C2010 1.409 . S
C2013 C2011 1.415 . S
C2014 H2004 0.930 . S
C2014 C2012 1.419 . S
C2014 C2015 1.362 . S
C2015 H2005 0.930 . S
C2015 C2008 1.409 . S
C2015 C2014 1.362 . S
H2016 C2022 0.930 . S
H2017 C2025 0.930 . S
H2018 C2026 0.930 . S
H2019 C2027 0.930 . S
H2020 C2030 0.930 . S
H2021 C2031 0.930 . S
C2022 H2016 0.930 . S
C2022 C2023 1.355 . S
C2022 C2024 1.415 . S
C2023 C2022 1.355 . S
C2023 C2025 1.419 . S
C2024 C2022 1.415 . S
C2024 C2029 1.425 . S
C2024 C2031 1.409 . S
C2025 H2017 0.930 . S
C2025 C2023 1.419 . S
C2025 C2026 1.362 . S
C2026 H2018 0.930 . S
C2026 C2025 1.362 . S
C2026 C2029 1.409 . S
C2027 H2019 0.930 . S
C2027 C2028 1.355 . S
C2027 C2029 1.415 . S
C2028 C2027 1.355 . S
C2028 C2030 1.419 . S
C2029 C2024 1.425 . S
C2029 C2026 1.409 . S
C2029 C2027 1.415 . S
C2030 H2020 0.930 . S
C2030 C2028 1.419 . S
C2030 C2031 1.362 . S
C2031 H2021 0.930 . S
C2031 C2024 1.409 . S
C2031 C2030 1.362 . S
H2032 C2038 0.930 . S
H2033 C2041 0.930 . S
H2034 C2042 0.930 . S
H2035 C2043 0.930 . S
H2036 C2046 0.930 . S
H2037 C2047 0.930 . S
C2038 H2032 0.930 . S
C2038 C2039 1.355 . S
C2038 C2040 1.415 . S
C2039 C2038 1.355 . S
C2039 C2041 1.419 . S
C2040 C2038 1.415 . S
C2040 C2045 1.425 . S
C2040 C2047 1.409 . S
C2041 H2033 0.930 . S
C2041 C2039 1.419 . S
C2041 C2042 1.362 . S
C2042 H2034 0.930 . S
C2042 C2041 1.362 . S
C2042 C2045 1.409 . S
C2043 H2035 0.930 . S
C2043 C2044 1.355 . S
C2043 C2045 1.415 . S
C2044 C2043 1.355 . S
C2044 C2046 1.419 . S
C2045 C2040 1.425 . S
C2045 C2042 1.409 . S
C2045 C2043 1.415 . S
C2046 H2036 0.930 . S
C2046 C2044 1.419 . S
C2046 C2047 1.362 . S
C2047 H2037 0.930 . S
C2047 C2040 1.409 . S
C2047 C2046 1.362 . S
H2048 C2054 0.930 . S
H2049 C2057 0.930 . S
H2050 C2058 0.930 . S
H2051 C2059 0.930 . S
H2052 C2062 0.930 . S
H2053 C2063 0.930 . S
C2054 H2048 0.930 . S
C2054 C2055 1.355 . S
C2054 C2056 1.415 . S
C2055 C2054 1.355 . S
C2055 C2057 1.419 . S
C2056 C2054 1.415 . S
C2056 C2061 1.425 . S
C2056 C2063 1.409 . S
C2057 H2049 0.930 . S
C2057 C2055 1.419 . S
C2057 C2058 1.362 . S
C2058 H2050 0.930 . S
C2058 C2057 1.362 . S
C2058 C2061 1.409 . S
C2059 H2051 0.930 . S
C2059 C2060 1.355 . S
C2059 C2061 1.415 . S
C2060 C2059 1.355 . S
C2060 C2062 1.419 . S
C2061 C2056 1.425 . S
C2061 C2058 1.409 . S
C2061 C2059 1.415 . S
C2062 H2052 0.930 . S
C2062 C2060 1.419 . S
C2062 C2063 1.362 . S
C2063 H2053 0.930 . S
C2063 C2056 1.409 . S
C2063 C2062 1.362 . S
H2064 C2070 0.930 . S
H2065 C2073 0.930 . S
H2066 C2074 0.930 . S
H2067 C2075 0.930 . S
H2068 C2078 0.930 . S
H2069 C2079 0.930 1_556 S
C2070 H2064 0.930 . S
C2070 C2071 1.355 . S
C2070 C2072 1.415 . S
C2071 C2070 1.355 . S
C2071 C2073 1.419 . S
C2072 C2070 1.415 . S
C2072 C2077 1.425 . S
C2072 C2079 1.409 . S
C2073 H2065 0.930 . S
C2073 C2071 1.419 . S
C2073 C2074 1.362 . S
C2074 H2066 0.930 . S
C2074 C2073 1.362 . S
C2074 C2077 1.409 . S
C2075 H2067 0.930 . S
C2075 C2076 1.355 1_554 S
C2075 C2077 1.415 . S
C2076 C2075 1.355 1_556 S
C2076 C2078 1.419 . S
C2077 C2072 1.425 . S
C2077 C2074 1.409 . S
C2077 C2075 1.415 . S
C2078 H2068 0.930 . S
C2078 C2076 1.419 . S
C2078 C2079 1.362 1_556 S
C2079 H2069 0.930 1_554 S
C2079 C2072 1.409 . S
C2079 C2078 1.362 1_554 S
H2080 C2086 0.930 . S
H2081 C2089 0.930 . S
H2082 C2090 0.930 . S
H2083 C2091 0.930 . S
H2084 C2094 0.930 . S
H2085 C2095 0.930 . S
C2086 H2080 0.930 . S
C2086 C2087 1.355 . S
C2086 C2088 1.415 . S
C2087 C2086 1.355 . S
C2087 C2089 1.419 . S
C2088 C2086 1.415 . S
C2088 C2093 1.425 . S
C2088 C2095 1.409 . S
C2089 H2081 0.930 . S
C2089 C2087 1.419 . S
C2089 C2090 1.362 . S
C2090 H2082 0.930 . S
C2090 C2089 1.362 . S
C2090 C2093 1.409 . S
C2091 H2083 0.930 . S
C2091 C2092 1.355 . S
C2091 C2093 1.415 . S
C2092 C2091 1.355 . S
C2092 C2094 1.419 . S
C2093 C2088 1.425 . S
C2093 C2090 1.409 . S
C2093 C2091 1.415 . S
C2094 H2084 0.930 . S
C2094 C2092 1.419 . S
C2094 C2095 1.362 . S
C2095 H2085 0.930 . S
C2095 C2088 1.409 . S
C2095 C2094 1.362 . S
H2096 C2102 0.930 . S
H2097 C2105 0.930 . S
H2098 C2106 0.930 . S
H2099 C2107 0.930 . S
H2100 C2110 0.930 . S
H2101 C2111 0.930 . S
C2102 H2096 0.930 . S
C2102 C2103 1.355 . S
C2102 C2104 1.415 . S
C2103 C2102 1.355 . S
C2103 C2105 1.419 . S
C2104 C2102 1.415 . S
C2104 C2109 1.425 . S
C2104 C2111 1.409 . S
C2105 H2097 0.930 . S
C2105 C2103 1.419 . S
C2105 C2106 1.362 . S
C2106 H2098 0.930 . S
C2106 C2105 1.362 . S
C2106 C2109 1.409 . S
C2107 H2099 0.930 . S
C2107 C2108 1.355 . S
C2107 C2109 1.415 . S
C2108 C2107 1.355 . S
C2108 C2110 1.419 . S
C2109 C2104 1.425 . S
C2109 C2106 1.409 . S
C2109 C2107 1.415 . S
C2110 H2100 0.930 . S
C2110 C2108 1.419 . S
C2110 C2111 1.362 . S
C2111 H2101 0.930 . S
C2111 C2104 1.409 . S
C2111 C2110 1.362 . S
H2112 C2118 0.930 . S
H2113 C2121 0.930 . S
H2114 C2122 0.930 . S
H2115 C2123 0.930 . S
H2116 C2126 0.930 . S
H2117 C2127 0.930 . S
C2118 H2112 0.930 . S
C2118 C2119 1.355 . S
C2118 C2120 1.415 . S
C2119 C2118 1.355 . S
C2119 C2121 1.419 . S
C2120 C2118 1.415 . S
C2120 C2125 1.425 . S
C2120 C2127 1.409 . S
C2121 H2113 0.930 . S
C2121 C2119 1.419 . S
C2121 C2122 1.362 . S
C2122 H2114 0.930 . S
C2122 C2121 1.362 . S
C2122 C2125 1.409 . S
C2123 H2115 0.930 . S
C2123 C2124 1.355 . S
C2123 C2125 1.415 . S
C2124 C2123 1.355 . S
C2124 C2126 1.419 . S
C2125 C2120 1.425 . S
C2125 C2122 1.409 . S
C2125 C2123 1.415 . S
C2126 H2116 0.930 . S
C2126 C2124 1.419 . S
C2126 C2127 1.362 . S
C2127 H2117 0.930 . S
C2127 C2120 1.409 . S
C2127 C2126 1.362 . S
H2128 C2134 0.930 . S
H2129 C2137 0.930 . S
H2130 C2138 0.930 . S
H2131 C2139 0.930 . S
H2132 C2142 0.930 . S
H2133 C2143 0.930 . S
C2134 H2128 0.930 . S
C2134 C2135 1.355 . S
C2134 C2136 1.415 . S
C2135 C2134 1.355 . S
C2135 C2137 1.419 . S
C2136 C2134 1.415 . S
C2136 C2141 1.425 . S
C2136 C2143 1.409 . S
C2137 H2129 0.930 . S
C2137 C2135 1.419 . S
C2137 C2138 1.362 . S
C2138 H2130 0.930 . S
C2138 C2137 1.362 . S
C2138 C2141 1.409 . S
C2139 H2131 0.930 . S
C2139 C2140 1.355 . S
C2139 C2141 1.415 . S
C2140 C2139 1.355 . S
C2140 C2142 1.419 . S
C2141 C2136 1.425 . S
C2141 C2138 1.409 . S
C2141 C2139 1.415 . S
C2142 H2132 0.930 . S
C2142 C2140 1.419 . S
C2142 C2143 1.362 . S
C2143 H2133 0.930 . S
C2143 C2136 1.409 . S
C2143 C2142 1.362 . S
H2144 C2150 0.930 . S
H2145 C2153 0.930 . S
H2146 C2154 0.930 . S
H2147 C2155 0.930 . S
H2148 C2158 0.930 . S
H2149 C2159 0.930 . S
C2150 H2144 0.930 . S
C2150 C2151 1.355 . S
C2150 C2152 1.415 . S
C2151 C2150 1.355 . S
C2151 C2153 1.419 . S
C2152 C2150 1.415 . S
C2152 C2157 1.425 . S
C2152 C2159 1.409 . S
C2153 H2145 0.930 . S
C2153 C2151 1.419 . S
C2153 C2154 1.362 . S
C2154 H2146 0.930 . S
C2154 C2153 1.362 . S
C2154 C2157 1.409 . S
C2155 H2147 0.930 . S
C2155 C2156 1.355 . S
C2155 C2157 1.415 . S
C2156 C2155 1.355 . S
C2156 C2158 1.419 . S
C2157 C2152 1.425 . S
C2157 C2154 1.409 . S
C2157 C2155 1.415 . S
C2158 H2148 0.930 . S
C2158 C2156 1.419 . S
C2158 C2159 1.362 . S
C2159 H2149 0.930 . S
C2159 C2152 1.409 . S
C2159 C2158 1.362 . S
H2160 C2166 0.930 . S
H2161 C2169 0.930 . S
H2162 C2170 0.926 1_554 S
H2163 C2171 0.930 . S
H2164 C2174 0.930 . S
H2165 C2175 0.930 . S
C2166 H2160 0.930 . S
C2166 C2167 1.355 1_556 S
C2166 C2168 1.415 . S
C2167 C2166 1.355 1_554 S
C2167 C2169 1.419 . S
C2168 C2166 1.415 . S
C2168 C2173 1.425 . S
C2168 C2175 1.409 . S
C2169 H2161 0.930 . S
C2169 C2167 1.419 . S
C2169 C2170 1.362 1_554 S
C2170 H2162 0.926 1_556 S
C2170 C2169 1.362 1_556 S
C2170 C2173 1.409 . S
C2171 H2163 0.930 . S
C2171 C2172 1.355 . S
C2171 C2173 1.415 . S
C2172 C2171 1.355 . S
C2172 C2174 1.419 . S
C2173 C2168 1.425 . S
C2173 C2170 1.409 . S
C2173 C2171 1.415 . S
C2174 H2164 0.930 . S
C2174 C2172 1.419 . S
C2174 C2175 1.362 . S
C2175 H2165 0.930 . S
C2175 C2168 1.409 . S
C2175 C2174 1.362 . S
H2176 C2182 0.930 . S
H2177 C2185 0.930 . S
H2178 C2186 0.932 . S
H2179 C2187 0.930 . S
H2180 C2190 0.930 . S
H2181 C2191 0.930 . S
C2182 H2176 0.930 . S
C2182 C2183 1.355 1_556 S
C2182 C2184 1.415 . S
C2183 C2182 1.355 1_554 S
C2183 C2185 1.419 . S
C2184 C2182 1.415 . S
C2184 C2189 1.425 . S
C2184 C2191 1.409 . S
C2185 H2177 0.930 . S
C2185 C2183 1.419 . S
C2185 C2186 1.362 1_554 S
C2186 H2178 0.932 . S
C2186 C2185 1.362 1_556 S
C2186 C2189 1.409 . S
C2187 H2179 0.930 . S
C2187 C2188 1.355 . S
C2187 C2189 1.415 . S
C2188 C2187 1.355 . S
C2188 C2190 1.419 . S
C2189 C2184 1.425 . S
C2189 C2186 1.409 . S
C2189 C2187 1.415 . S
C2190 H2180 0.930 . S
C2190 C2188 1.419 . S
C2190 C2191 1.362 . S
C2191 H2181 0.930 . S
C2191 C2184 1.409 . S
C2191 C2190 1.362 . S
H2192 C2198 0.930 . S
H2193 C2201 0.930 . S
H2194 C2202 0.930 . S
H2195 C2203 0.930 . S
H2196 C2206 0.930 . S
H2197 C2207 0.930 . S
C2198 H2192 0.930 . S
C2198 C2199 1.355 . S
C2198 C2200 1.415 . S
C2199 C2198 1.355 . S
C2199 C2201 1.419 . S
C2200 C2198 1.415 . S
C2200 C2205 1.425 . S
C2200 C2207 1.409 . S
C2201 H2193 0.930 . S
C2201 C2199 1.419 . S
C2201 C2202 1.362 . S
C2202 H2194 0.930 . S
C2202 C2201 1.362 . S
C2202 C2205 1.409 . S
C2203 H2195 0.930 . S
C2203 C2204 1.355 . S
C2203 C2205 1.415 . S
C2204 C2203 1.355 . S
C2204 C2206 1.419 . S
C2205 C2200 1.425 . S
C2205 C2202 1.409 . S
C2205 C2203 1.415 . S
C2206 H2196 0.930 . S
C2206 C2204 1.419 . S
C2206 C2207 1.362 . S
C2207 H2197 0.930 . S
C2207 C2200 1.409 . S
C2207 C2206 1.362 . S
H2208 C2214 0.930 . S
H2209 C2217 0.930 . S
H2210 C2218 0.930 . S
H2211 C2219 0.930 . S
H2212 C2222 0.930 . S
H2213 C2223 0.930 . S
C2214 H2208 0.930 . S
C2214 C2215 1.355 . S
C2214 C2216 1.415 . S
C2215 C2214 1.355 . S
C2215 C2217 1.419 . S
C2216 C2214 1.415 . S
C2216 C2221 1.425 . S
C2216 C2223 1.409 . S
C2217 H2209 0.930 . S
C2217 C2215 1.419 . S
C2217 C2218 1.362 . S
C2218 H2210 0.930 . S
C2218 C2217 1.362 . S
C2218 C2221 1.409 . S
C2219 H2211 0.930 . S
C2219 C2220 1.355 . S
C2219 C2221 1.415 . S
C2220 C2219 1.355 . S
C2220 C2222 1.419 . S
C2221 C2216 1.425 . S
C2221 C2218 1.409 . S
C2221 C2219 1.415 . S
C2222 H2212 0.930 . S
C2222 C2220 1.419 . S
C2222 C2223 1.362 . S
C2223 H2213 0.930 . S
C2223 C2216 1.409 . S
C2223 C2222 1.362 . S
H2224 C2230 0.930 . S
H2225 C2233 0.930 . S
H2226 C2234 0.930 . S
H2227 C2235 0.930 . S
H2228 C2238 0.930 . S
H2229 C2239 0.930 . S
C2230 H2224 0.930 . S
C2230 C2231 1.355 . S
C2230 C2232 1.415 . S
C2231 C2230 1.355 . S
C2231 C2233 1.419 . S
C2232 C2230 1.415 . S
C2232 C2237 1.425 . S
C2232 C2239 1.409 . S
C2233 H2225 0.930 . S
C2233 C2231 1.419 . S
C2233 C2234 1.362 . S
C2234 H2226 0.930 . S
C2234 C2233 1.362 . S
C2234 C2237 1.409 . S
C2235 H2227 0.930 . S
C2235 C2236 1.355 . S
C2235 C2237 1.415 . S
C2236 C2235 1.355 . S
C2236 C2238 1.419 . S
C2237 C2232 1.425 . S
C2237 C2234 1.409 . S
C2237 C2235 1.415 . S
C2238 H2228 0.930 . S
C2238 C2236 1.419 . S
C2238 C2239 1.362 . S
C2239 H2229 0.930 . S
C2239 C2232 1.409 . S
C2239 C2238 1.362 . S
H2240 C2246 0.930 . S
H2241 C2249 0.930 . S
H2242 C2250 0.930 . S
H2243 C2251 0.930 . S
H2244 C2254 0.930 . S
H2245 C2255 0.930 . S
C2246 H2240 0.930 . S
C2246 C2247 1.355 . S
C2246 C2248 1.415 . S
C2247 C2246 1.355 . S
C2247 C2249 1.419 . S
C2248 C2246 1.415 . S
C2248 C2253 1.425 . S
C2248 C2255 1.409 . S
C2249 H2241 0.930 . S
C2249 C2247 1.419 . S
C2249 C2250 1.362 . S
C2250 H2242 0.930 . S
C2250 C2249 1.362 . S
C2250 C2253 1.409 . S
C2251 H2243 0.930 . S
C2251 C2252 1.355 . S
C2251 C2253 1.415 . S
C2252 C2251 1.355 . S
C2252 C2254 1.419 . S
C2253 C2248 1.425 . S
C2253 C2250 1.409 . S
C2253 C2251 1.415 . S
C2254 H2244 0.930 . S
C2254 C2252 1.419 . S
C2254 C2255 1.362 . S
C2255 H2245 0.930 . S
C2255 C2248 1.409 . S
C2255 C2254 1.362 . S
H2256 C2262 0.930 . S
H2257 C2265 0.930 . S
H2258 C2266 0.930 . S
H2259 C2267 0.930 . S
H2260 C2270 0.930 . S
H2261 C2271 0.930 . S
C2262 H2256 0.930 . S
C2262 C2263 1.355 . S
C2262 C2264 1.415 . S
C2263 C2262 1.355 . S
C2263 C2265 1.419 . S
C2264 C2262 1.415 . S
C2264 C2269 1.425 . S
C2264 C2271 1.409 1_556 S
C2265 H2257 0.930 . S
C2265 C2263 1.419 . S
C2265 C2266 1.362 . S
C2266 H2258 0.930 . S
C2266 C2265 1.362 . S
C2266 C2269 1.409 . S
C2267 H2259 0.930 . S
C2267 C2268 1.355 1_556 S
C2267 C2269 1.415 . S
C2268 C2267 1.355 1_554 S
C2268 C2270 1.419 . S
C2269 C2264 1.425 . S
C2269 C2266 1.409 . S
C2269 C2267 1.415 . S
C2270 H2260 0.930 . S
C2270 C2268 1.419 . S
C2270 C2271 1.362 . S
C2271 H2261 0.930 . S
C2271 C2264 1.409 1_554 S
C2271 C2270 1.362 . S
H2272 C2278 0.930 . S
H2273 C2281 0.930 . S
H2274 C2282 0.930 . S
H2275 C2283 0.930 . S
H2276 C2286 0.930 . S
H2277 C2287 0.930 . S
C2278 H2272 0.930 . S
C2278 C2279 1.355 . S
C2278 C2280 1.415 . S
C2279 C2278 1.355 . S
C2279 C2281 1.419 . S
C2280 C2278 1.415 . S
C2280 C2285 1.425 . S
C2280 C2287 1.409 . S
C2281 H2273 0.930 . S
C2281 C2279 1.419 . S
C2281 C2282 1.362 . S
C2282 H2274 0.930 . S
C2282 C2281 1.362 . S
C2282 C2285 1.409 . S
C2283 H2275 0.930 . S
C2283 C2284 1.355 . S
C2283 C2285 1.415 . S
C2284 C2283 1.355 . S
C2284 C2286 1.419 . S
C2285 C2280 1.425 . S
C2285 C2282 1.409 . S
C2285 C2283 1.415 . S
C2286 H2276 0.930 . S
C2286 C2284 1.419 . S
C2286 C2287 1.362 . S
C2287 H2277 0.930 . S
C2287 C2280 1.409 . S
C2287 C2286 1.362 . S
H2288 C2294 0.930 . S
H2289 C2297 0.930 . S
H2290 C2298 0.930 . S
H2291 C2299 0.930 . S
H2292 C2302 0.930 . S
H2293 C2303 0.930 . S
C2294 H2288 0.930 . S
C2294 C2295 1.355 . S
C2294 C2296 1.415 . S
C2295 C2294 1.355 . S
C2295 C2297 1.419 . S
C2296 C2294 1.415 . S
C2296 C2301 1.425 . S
C2296 C2303 1.409 . S
C2297 H2289 0.930 . S
C2297 C2295 1.419 . S
C2297 C2298 1.362 . S
C2298 H2290 0.930 . S
C2298 C2297 1.362 . S
C2298 C2301 1.409 . S
C2299 H2291 0.930 . S
C2299 C2300 1.355 . S
C2299 C2301 1.415 . S
C2300 C2299 1.355 . S
C2300 C2302 1.419 . S
C2301 C2296 1.425 . S
C2301 C2298 1.409 . S
C2301 C2299 1.415 . S
C2302 H2292 0.930 . S
C2302 C2300 1.419 . S
C2302 C2303 1.362 . S
C2303 H2293 0.930 . S
C2303 C2296 1.409 . S
C2303 C2302 1.362 . S
H2304 C2310 0.930 . S
H2305 C2313 0.930 . S
H2306 C2314 0.930 . S
H2307 C2315 0.930 . S
H2308 C2318 0.930 . S
H2309 C2319 0.930 . S
C2310 H2304 0.930 . S
C2310 C2311 1.355 . S
C2310 C2312 1.415 . S
C2311 C2310 1.355 . S
C2311 C2313 1.419 . S
C2312 C2310 1.415 . S
C2312 C2317 1.425 . S
C2312 C2319 1.409 . S
C2313 H2305 0.930 . S
C2313 C2311 1.419 . S
C2313 C2314 1.362 . S
C2314 H2306 0.930 . S
C2314 C2313 1.362 . S
C2314 C2317 1.409 . S
C2315 H2307 0.930 . S
C2315 C2316 1.355 . S
C2315 C2317 1.415 . S
C2316 C2315 1.355 . S
C2316 C2318 1.419 . S
C2317 C2312 1.425 . S
C2317 C2314 1.409 . S
C2317 C2315 1.415 . S
C2318 H2308 0.930 . S
C2318 C2316 1.419 . S
C2318 C2319 1.362 . S
C2319 H2309 0.930 . S
C2319 C2312 1.409 . S
C2319 C2318 1.362 . S
H2320 C2326 0.930 . S
H2321 C2329 0.930 . S
H2322 C2330 0.930 . S
H2323 C2331 0.930 . S
H2324 C2334 0.930 . S
H2325 C2335 0.930 . S
C2326 H2320 0.930 . S
C2326 C2327 1.355 . S
C2326 C2328 1.415 . S
C2327 C2326 1.355 . S
C2327 C2329 1.419 . S
C2328 C2326 1.415 . S
C2328 C2333 1.425 . S
C2328 C2335 1.409 . S
C2329 H2321 0.930 . S
C2329 C2327 1.419 . S
C2329 C2330 1.362 . S
C2330 H2322 0.930 . S
C2330 C2329 1.362 . S
C2330 C2333 1.409 . S
C2331 H2323 0.930 . S
C2331 C2332 1.355 . S
C2331 C2333 1.415 . S
C2332 C2331 1.355 . S
C2332 C2334 1.419 . S
C2333 C2328 1.425 . S
C2333 C2330 1.409 . S
C2333 C2331 1.415 . S
C2334 H2324 0.930 . S
C2334 C2332 1.419 . S
C2334 C2335 1.362 . S
C2335 H2325 0.930 . S
C2335 C2328 1.409 . S
C2335 C2334 1.362 . S
H2336 C2342 0.930 . S
H2337 C2345 0.930 . S
H2338 C2346 0.930 . S
H2339 C2347 0.930 . S
H2340 C2350 0.930 . S
H2341 C2351 0.930 . S
C2342 H2336 0.930 . S
C2342 C2343 1.355 1_556 S
C2342 C2344 1.415 . S
C2343 C2342 1.355 1_554 S
C2343 C2345 1.419 . S
C2344 C2342 1.415 . S
C2344 C2349 1.425 . S
C2344 C2351 1.409 . S
C2345 H2337 0.930 . S
C2345 C2343 1.419 . S
C2345 C2346 1.362 . S
C2346 H2338 0.930 . S
C2346 C2345 1.362 . S
C2346 C2349 1.409 1_554 S
C2347 H2339 0.930 . S
C2347 C2348 1.355 . S
C2347 C2349 1.415 . S
C2348 C2347 1.355 . S
C2348 C2350 1.419 . S
C2349 C2344 1.425 . S
C2349 C2346 1.409 1_556 S
C2349 C2347 1.415 . S
C2350 H2340 0.930 . S
C2350 C2348 1.419 . S
C2350 C2351 1.362 . S
C2351 H2341 0.930 . S
C2351 C2344 1.409 . S
C2351 C2350 1.362 . S
H2352 C2358 0.930 . S
H2353 C2361 0.930 . S
H2354 C2362 0.930 . S
H2355 C2363 0.930 . S
H2356 C2366 0.930 . S
H2357 C2367 0.930 . S
C2358 H2352 0.930 . S
C2358 C2359 1.355 . S
C2358 C2360 1.415 . S
C2359 C2358 1.355 . S
C2359 C2361 1.419 . S
C2360 C2358 1.415 . S
C2360 C2365 1.425 . S
C2360 C2367 1.409 . S
C2361 H2353 0.930 . S
C2361 C2359 1.419 . S
C2361 C2362 1.362 . S
C2362 H2354 0.930 . S
C2362 C2361 1.362 . S
C2362 C2365 1.409 . S
C2363 H2355 0.930 . S
C2363 C2364 1.355 . S
C2363 C2365 1.415 . S
C2364 C2363 1.355 . S
C2364 C2366 1.419 . S
C2365 C2360 1.425 . S
C2365 C2362 1.409 . S
C2365 C2363 1.415 . S
C2366 H2356 0.930 . S
C2366 C2364 1.419 . S
C2366 C2367 1.362 . S
C2367 H2357 0.930 . S
C2367 C2360 1.409 . S
C2367 C2366 1.362 . S
C1095 C156 2.298 . S
C1100 C20 2.300 . S
C1111 C54 2.289 . S
C1116 C190 2.311 . S
C1127 C88 2.312 . S
C1132 C224 2.287 . S
C1143 C122 2.302 . S
C1148 C258 2.301 . S
C1159 C417 0.975 . S
C1164 C281 0.967 . S
C1175 C315 0.973 . S
C1180 C451 0.962 . S
C1191 C349 0.956 . S
C1196 C485 0.945 . S
C1207 C519 0.975 . S
C1212 C383 0.973 . S
C1223 C564 2.290 . S
C1228 C700 2.309 . S
C1239 C598 2.295 . S
C1244 C734 2.303 . S
C1255 C768 2.295 . S
C1260 C632 2.303 . S
C1271 C666 2.311 . S
C1276 C802 2.288 . S
C1287 C825 0.945 . S
C1292 C961 0.945 . S
C1303 C859 0.970 . S
C1308 C995 0.975 . S
C1319 C1029 0.949 . S
C1324 C893 0.943 . S
C1335 C927 0.962 . S
C1340 C1063 0.973 . S
C1351 C413 1.042 . S
C1356 C9 1.019 . S
C1367 C43 1.031 . S
C1372 C991 1.018 1_554 S
C1383 C481 0.955 . S
C1388 C77 1.060 . S
C1399 C111 1.013 . S
C1404 C1059 1.057 . S
C1415 C145 1.037 . S
C1420 C277 1.006 . S
C1431 C855 1.040 . S
C1436 C179 1.022 . S
C1447 C345 1.056 . S
C1452 C213 1.013 . S
C1463 C247 1.061 . S
C1468 C923 0.955 . S
C1479 C292 2.460 . S
C1484 C138 2.466 . S
C1495 C326 2.440 . S
C1500 C716 2.479 . S
C1511 C360 2.457 . S
C1516 C206 2.465 . S
C1527 C394 2.468 . S
C1532 C784 2.458 . S
C1543 C2 2.469 . S
C1548 C428 2.451 . S
C1559 C580 2.475 . S
C1564 C462 2.448 . S
C1575 C496 2.459 . S
C1580 C70 2.463 . S
C1591 C648 2.460 . S
C1596 C530 2.467 . S
C1607 C553 1.058 . S
C1612 C957 0.959 . S
C1623 C587 1.056 . S
C1628 C447 0.964 . S
C1639 C621 1.044 . S
C1644 C1025 0.991 . S
C1655 C655 1.057 . S
C1660 C515 0.961 1_554 S
C1671 C689 1.010 . S
C1676 C821 1.063 . S
C1687 C311 1.003 . S
C1692 C723 1.038 . S
C1703 C889 0.984 . S
C1708 C757 1.047 . S
C1719 C791 1.059 . S
C1724 C379 0.958 . S
C1735 C682 2.470 . S
C1740 C836 2.455 . S
C1751 C172 2.458 . S
C1756 C870 2.468 . S
C1767 C750 2.469 . S
C1772 C904 2.450 . S
C1783 C240 2.458 . S
C1788 C938 2.467 . S
C1799 C972 2.457 . S
C1804 C546 2.464 . S
C1815 C36 2.466 . S
C1820 C1006 2.460 . S
C1831 C1040 2.458 . S
C1836 C614 2.464 . S
C1847 C104 2.461 . S
C1852 C1074 2.466 . S
C1863 C5 0.985 . S
C1868 C141 0.996 . S
C1879 C175 0.961 . S
C1884 C39 1.026 . S
C1895 C209 1.069 . S
C1900 C73 0.953 . S
C1911 C107 1.022 . S
C1916 C243 0.963 . S
C1927 C274 2.627 . S
C1932 C410 2.606 . S
C1943 C308 2.623 . S
C1948 C444 2.617 . S
C1959 C478 2.623 . S
C1964 C342 2.609 . S
C1975 C376 2.614 . S
C1980 C512 2.626 . S
C1991 C685 0.951 . S
C1996 C549 1.055 . S
C2007 C583 0.959 . S
C2012 C719 1.077 . S
C2023 C753 0.953 . S
C2028 C617 1.069 . S
C2039 C651 1.009 . S
C2044 C787 0.972 . S
C2055 C954 2.623 . S
C2060 C818 2.609 . S
C2071 C852 2.608 . S
C2076 C988 2.629 . S
C2087 C1022 2.626 . S
C2092 C886 2.607 . S
C2103 C920 2.629 . S
C2108 C1056 2.609 . S
C2119 C271 0.398 . S
C2124 C33 0.409 . S
C2135 C67 0.462 . S
C2140 C169 0.477 . S
C2151 C101 0.563 . S
C2156 C203 0.565 . S
C2167 C237 0.506 . S
C2172 C135 0.520 . S
C2183 C305 0.508 . S
C2188 C543 0.520 . S
C2199 C441 0.495 . S
C2204 C339 0.482 . S
C2215 C475 0.521 . S
C2220 C373 0.531 . S
C2231 C407 0.395 . S
C2236 C509 0.390 . S
C2247 C815 0.436 . S
C2252 C577 0.451 . S
C2263 C611 0.545 . S
C2268 C713 0.553 . S
C2279 C747 0.565 . S
C2284 C645 0.566 . S
C2295 C679 0.381 . S
C2300 C781 0.382 . S
C2311 C849 0.505 . S
C2316 C1087 0.493 . S
C2327 C883 0.564 . S
C2332 C985 0.560 . S
C2343 C917 0.565 . S
C2348 C1019 0.562 . S
C2359 C1053 0.568 . S
C2364 C951 0.567 . S
