# Generated by pormake.
# Topology umg, (4)-cn, num edge types: 1
# Building blocks:
#     Node 0, Type 0, BuildingBlock: CEKHIL_clean_sbu_0, # of connection points: 4
#     Node 1, Type 0, BuildingBlock: CEKHIL_clean_sbu_0, # of connection points: 4
#     Node 2, Type 0, BuildingBlock: CEKHIL_clean_sbu_0, # of connection points: 4
#     Node 3, Type 0, BuildingBlock: CEKHIL_clean_sbu_0, # of connection points: 4
#     Node 4, Type 0, BuildingBlock: CEKHIL_clean_sbu_0, # of connection points: 4
#     Node 5, Type 0, BuildingBlock: CEKHIL_clean_sbu_0, # of connection points: 4
#     Node 6, Type 0, BuildingBlock: CEKHIL_clean_sbu_0, # of connection points: 4
#     Node 7, Type 0, BuildingBlock: CEKHIL_clean_sbu_0, # of connection points: 4
#     Node 8, Type 0, BuildingBlock: CEKHIL_clean_sbu_0, # of connection points: 4
#     Node 9, Type 0, BuildingBlock: CEKHIL_clean_sbu_0, # of connection points: 4
#     Node 10, Type 0, BuildingBlock: CEKHIL_clean_sbu_0, # of connection points: 4
#     Node 11, Type 0, BuildingBlock: CEKHIL_clean_sbu_0, # of connection points: 4
#     Edge 12, Type (0, 0), BuildingBlock: CIFDUS_clean_linker_0, # of connection points: 2
#     Edge 13, Type (0, 0), BuildingBlock: CIFDUS_clean_linker_0, # of connection points: 2
#     Edge 14, Type (0, 0), BuildingBlock: CIFDUS_clean_linker_0, # of connection points: 2
#     Edge 15, Type (0, 0), BuildingBlock: CIFDUS_clean_linker_0, # of connection points: 2
#     Edge 16, Type (0, 0), BuildingBlock: CIFDUS_clean_linker_0, # of connection points: 2
#     Edge 17, Type (0, 0), BuildingBlock: CIFDUS_clean_linker_0, # of connection points: 2
#     Edge 18, Type (0, 0), BuildingBlock: CIFDUS_clean_linker_0, # of connection points: 2
#     Edge 19, Type (0, 0), BuildingBlock: CIFDUS_clean_linker_0, # of connection points: 2
#     Edge 20, Type (0, 0), BuildingBlock: CIFDUS_clean_linker_0, # of connection points: 2
#     Edge 21, Type (0, 0), BuildingBlock: CIFDUS_clean_linker_0, # of connection points: 2
#     Edge 22, Type (0, 0), BuildingBlock: CIFDUS_clean_linker_0, # of connection points: 2
#     Edge 23, Type (0, 0), BuildingBlock: CIFDUS_clean_linker_0, # of connection points: 2
#     Edge 24, Type (0, 0), BuildingBlock: CIFDUS_clean_linker_0, # of connection points: 2
#     Edge 25, Type (0, 0), BuildingBlock: CIFDUS_clean_linker_0, # of connection points: 2
#     Edge 26, Type (0, 0), BuildingBlock: CIFDUS_clean_linker_0, # of connection points: 2
#     Edge 27, Type (0, 0), BuildingBlock: CIFDUS_clean_linker_0, # of connection points: 2
#     Edge 28, Type (0, 0), BuildingBlock: CIFDUS_clean_linker_0, # of connection points: 2
#     Edge 29, Type (0, 0), BuildingBlock: CIFDUS_clean_linker_0, # of connection points: 2
#     Edge 30, Type (0, 0), BuildingBlock: CIFDUS_clean_linker_0, # of connection points: 2
#     Edge 31, Type (0, 0), BuildingBlock: CIFDUS_clean_linker_0, # of connection points: 2
#     Edge 32, Type (0, 0), BuildingBlock: CIFDUS_clean_linker_0, # of connection points: 2
#     Edge 33, Type (0, 0), BuildingBlock: CIFDUS_clean_linker_0, # of connection points: 2
#     Edge 34, Type (0, 0), BuildingBlock: CIFDUS_clean_linker_0, # of connection points: 2
#     Edge 35, Type (0, 0), BuildingBlock: CIFDUS_clean_linker_0, # of connection points: 2
# Relax obj value: 0.086
# Max RMSD: 0.198
# Mean RMSD: 0.197
data_MOF--net-umg--node1-CEKHIL_clean_sbu_0--edge1-CIFDUS_clean_linker_0
_symmetry_space_group_name_H-M    P1
_symmetry_Int_Tables_number       1
_symmetry_cell_setting            triclinic
loop_
_symmetry_equiv_pos_as_xyz
'x, y, z'
_cell_length_a     24.898467
_cell_length_b     24.823092
_cell_length_c     73.504663
_cell_angle_alpha  90.054148
_cell_angle_beta   89.99063
_cell_angle_gamma 120.02565
loop_
_atom_site_label
_atom_site_type_symbol
_atom_site_fract_x
_atom_site_fract_y
_atom_site_fract_z
_atom_type_partial_charge
Co0 Co 0.31034 0.58513 0.08133 0.0
O1 O 0.39252 0.59688 0.08056 0.0
O2 O 0.30717 0.51002 0.07263 0.0
C3 C 0.31646 0.62437 0.10918 0.0
O4 O 0.21799 0.5565 0.08087 0.0
Co5 Co 0.29541 0.70077 0.08162 0.0
O6 O 0.20589 0.63968 0.08484 0.0
C7 C 0.32688 0.66406 0.04742 0.0
C8 C 0.36725 0.54029 0.0745 0.0
C9 C 0.18355 0.58127 0.08294 0.0
O10 O 0.31983 0.61563 0.05575 0.0
O11 O 0.32413 0.70822 0.05555 0.0
O12 O 0.3042 0.56742 0.10702 0.0
O13 O 0.33205 0.65831 0.09457 0.0
Co14 Co 0.73107 0.30611 0.41163 0.0
O15 O 0.80048 0.38878 0.40896 0.0
O16 O 0.80167 0.30272 0.40184 0.0
C17 C 0.70526 0.31753 0.44006 0.0
O18 O 0.66805 0.21326 0.41321 0.0
Co19 Co 0.60036 0.29059 0.41507 0.0
O20 O 0.57449 0.20198 0.4196 0.0
C21 C 0.65856 0.31544 0.37928 0.0
C22 C 0.83146 0.36322 0.40299 0.0
C23 C 0.60985 0.17925 0.41698 0.0
O24 O 0.70228 0.30927 0.38637 0.0
O25 O 0.6152 0.31547 0.38861 0.0
O26 O 0.74969 0.30565 0.43714 0.0
O27 O 0.68295 0.32972 0.42569 0.0
Co28 Co 0.39367 0.72118 0.74386 0.0
O29 O 0.37262 0.78559 0.7456 0.0
O30 O 0.45862 0.79817 0.73294 0.0
C31 C 0.37135 0.68962 0.77288 0.0
O32 O 0.42957 0.66268 0.74048 0.0
Co33 Co 0.28698 0.58538 0.74855 0.0
O34 O 0.35504 0.56623 0.74863 0.0
C35 C 0.29871 0.64862 0.71402 0.0
C36 C 0.42423 0.82211 0.7374 0.0
C37 C 0.41038 0.60443 0.74366 0.0
O38 O 0.34922 0.69509 0.71988 0.0
O39 O 0.26447 0.60023 0.72352 0.0
O40 O 0.42469 0.73698 0.7686 0.0
O41 O 0.33091 0.66707 0.75985 0.0
Co42 Co 0.68457 0.40175 0.07575 0.0
O43 O 0.60199 0.38874 0.07601 0.0
O44 O 0.68393 0.47256 0.06491 0.0
C45 C 0.68509 0.37439 0.10476 0.0
O46 O 0.7774 0.43148 0.07408 0.0
Co47 Co 0.70369 0.28914 0.08053 0.0
O48 O 0.79166 0.35366 0.08382 0.0
C49 C 0.66132 0.3083 0.04528 0.0
C50 C 0.62473 0.44296 0.06847 0.0
C51 C 0.81291 0.40991 0.07891 0.0
O52 O 0.6676 0.35961 0.05136 0.0
O53 O 0.67108 0.27109 0.05488 0.0
O54 O 0.69683 0.43007 0.10069 0.0
O55 O 0.66713 0.33494 0.09139 0.0
Co56 Co 0.28696 0.67949 0.41291 0.0
O57 O 0.21786 0.59632 0.41087 0.0
O58 O 0.21729 0.68088 0.40161 0.0
C59 C 0.31074 0.67358 0.44198 0.0
O60 O 0.34979 0.77256 0.41353 0.0
Co61 Co 0.41783 0.69607 0.4189 0.0
O62 O 0.44228 0.785 0.42204 0.0
C63 C 0.3622 0.6631 0.38274 0.0
C64 C 0.18743 0.62066 0.40365 0.0
C65 C 0.40735 0.80719 0.41798 0.0
O66 O 0.31843 0.67189 0.38845 0.0
O67 O 0.40413 0.66443 0.3931 0.0
O68 O 0.26609 0.68425 0.43805 0.0
O69 O 0.33399 0.65901 0.42835 0.0
Co70 Co 0.60308 0.29215 0.74366 0.0
O71 O 0.62279 0.22687 0.74566 0.0
O72 O 0.53606 0.21449 0.73361 0.0
C73 C 0.62943 0.32708 0.77235 0.0
O74 O 0.56826 0.35148 0.74011 0.0
Co75 Co 0.71137 0.42732 0.74652 0.0
O76 O 0.64444 0.44802 0.74745 0.0
C77 C 0.69511 0.35901 0.71266 0.0
C78 C 0.57029 0.19023 0.7379 0.0
C79 C 0.58842 0.41007 0.74303 0.0
O80 O 0.6447 0.31434 0.71923 0.0
O81 O 0.73114 0.40837 0.72159 0.0
O82 O 0.57512 0.28002 0.76869 0.0
O83 O 0.66831 0.34743 0.75889 0.0
Co84 Co 0.40819 0.69344 0.57691 0.0
O85 O 0.38816 0.6081 0.57543 0.0
O86 O 0.4753 0.68328 0.58709 0.0
C87 C 0.38109 0.69901 0.54813 0.0
O88 O 0.44343 0.78825 0.57983 0.0
Co89 Co 0.30047 0.72085 0.57326 0.0
O90 O 0.36794 0.80834 0.57166 0.0
C91 C 0.31548 0.6696 0.60746 0.0
C92 C 0.44095 0.62445 0.58303 0.0
C93 C 0.42379 0.8267 0.5763 0.0
O94 O 0.36645 0.67557 0.60132 0.0
O95 O 0.27985 0.68239 0.59818 0.0
O96 O 0.43563 0.70712 0.55181 0.0
O97 O 0.34277 0.68209 0.56168 0.0
Co98 Co 0.72583 0.40391 0.90761 0.0
O99 O 0.78963 0.38218 0.90577 0.0
O100 O 0.80369 0.46941 0.91808 0.0
C101 C 0.69223 0.37955 0.87875 0.0
O102 O 0.66782 0.44052 0.91095 0.0
Co103 Co 0.59011 0.29659 0.90383 0.0
O104 O 0.57174 0.36526 0.90288 0.0
C105 C 0.65508 0.31111 0.93821 0.0
C106 C 0.82688 0.43422 0.91372 0.0
C107 C 0.60973 0.42107 0.90762 0.0
O108 O 0.70124 0.36103 0.9319 0.0
O109 O 0.60615 0.27622 0.929 0.0
O110 O 0.74003 0.43316 0.88265 0.0
O111 O 0.67065 0.34 0.89203 0.0
Co112 Co 0.31701 0.73933 0.24225 0.0
O113 O 0.39911 0.81078 0.24119 0.0
O114 O 0.31689 0.81361 0.25109 0.0
C115 C 0.31767 0.70422 0.21414 0.0
O116 O 0.2245 0.67188 0.24462 0.0
Co117 Co 0.30965 0.61132 0.24163 0.0
O118 O 0.21904 0.57859 0.24165 0.0
C119 C 0.34664 0.68303 0.27531 0.0
C120 C 0.37641 0.84339 0.24782 0.0
C121 C 0.19345 0.6116 0.24379 0.0
O122 O 0.33424 0.72177 0.26752 0.0
O123 O 0.34431 0.63667 0.26695 0.0
O124 O 0.30395 0.74768 0.21667 0.0
O125 O 0.33749 0.68858 0.22837 0.0
Co126 Co 0.6204 0.33446 0.57509 0.0
O127 O 0.64175 0.42032 0.57406 0.0
O128 O 0.55404 0.3453 0.58546 0.0
C129 C 0.64721 0.3289 0.54622 0.0
O130 O 0.58378 0.23943 0.57764 0.0
Co131 Co 0.72722 0.30535 0.57112 0.0
O132 O 0.65916 0.21786 0.57046 0.0
C133 C 0.71162 0.35403 0.60577 0.0
C134 C 0.58903 0.40424 0.58168 0.0
C135 C 0.60321 0.20044 0.57474 0.0
O136 O 0.66153 0.35006 0.59961 0.0
O137 O 0.74705 0.34128 0.59637 0.0
O138 O 0.59326 0.32229 0.5499 0.0
O139 O 0.68535 0.34492 0.5598 0.0
Co140 Co 0.29458 0.61031 0.9086 0.0
O141 O 0.23011 0.63135 0.90835 0.0
O142 O 0.21799 0.54297 0.91911 0.0
C143 C 0.32499 0.63749 0.87969 0.0
O144 O 0.3538 0.57503 0.91034 0.0
Co145 Co 0.42845 0.7206 0.90479 0.0
O146 O 0.44982 0.65363 0.9037 0.0
C147 C 0.36632 0.70045 0.93972 0.0
C148 C 0.19386 0.57805 0.91578 0.0
C149 C 0.4125 0.59665 0.9075 0.0
O150 O 0.32192 0.64969 0.93317 0.0
O151 O 0.41212 0.73993 0.93017 0.0
O152 O 0.27786 0.58343 0.88352 0.0
O153 O 0.34749 0.67613 0.89321 0.0
Co154 Co 0.70073 0.3025 0.2404 0.0
O155 O 0.6191 0.2306 0.2409 0.0
O156 O 0.70283 0.23078 0.25075 0.0
C157 C 0.69551 0.32877 0.21155 0.0
O158 O 0.79316 0.37172 0.24103 0.0
Co159 Co 0.70528 0.42847 0.23669 0.0
O160 O 0.79374 0.45825 0.23136 0.0
C161 C 0.67411 0.36689 0.27204 0.0
C162 C 0.643 0.19978 0.24796 0.0
C163 C 0.82211 0.42924 0.23565 0.0
O164 O 0.68629 0.32662 0.26519 0.0
O165 O 0.67465 0.41048 0.26261 0.0
O166 O 0.71069 0.28703 0.2152 0.0
O167 O 0.67699 0.34802 0.2253 0.0
H168 H 0.32819 0.60983 0.96414 0.0
H169 H 0.40636 0.80826 0.95984 0.0
H170 H 0.4009 0.81572 0.99317 0.0
H171 H 0.37106 0.76351 0.02358 0.0
H172 H 0.29745 0.56458 0.02609 0.0
H173 H 0.3041 0.55992 0.99343 0.0
C174 C 0.34382 0.65483 0.97046 0.0
C175 C 0.36666 0.70825 0.95963 0.0
C176 C 0.3414 0.65862 0.98934 0.0
C177 C 0.38832 0.76643 0.96799 0.0
C178 C 0.38502 0.77057 0.98699 0.0
C179 C 0.35658 0.71933 0.01693 0.0
C180 C 0.33363 0.66457 0.02739 0.0
C181 C 0.36118 0.7167 -0.00216 0.0
C182 C 0.31556 0.60767 0.01854 0.0
C183 C 0.3191 0.60469 -0.00022 0.0
H184 H 0.63882 0.39196 0.35666 0.0
H185 H 0.67184 0.23712 0.35724 0.0
H186 H 0.67436 0.23655 0.32416 0.0
H187 H 0.67359 0.28287 0.29543 0.0
H188 H 0.64808 0.44251 0.29358 0.0
H189 H 0.63593 0.43827 0.32677 0.0
C190 C 0.64596 0.35795 0.34943 0.0
C191 C 0.65542 0.3148 0.35928 0.0
C192 C 0.64914 0.35898 0.33026 0.0
C193 C 0.66507 0.2711 0.34989 0.0
C194 C 0.66644 0.27067 0.331 0.0
C195 C 0.6651 0.31684 0.30214 0.0
C196 C 0.66215 0.36319 0.29194 0.0
C197 C 0.65962 0.31497 0.32109 0.0
C198 C 0.65077 0.40637 0.30106 0.0
C199 C 0.64392 0.40402 0.32005 0.0
H200 H 0.29462 0.57266 0.68738 0.0
H201 H 0.27305 0.73136 0.69802 0.0
H202 H 0.26667 0.74642 0.6653 0.0
H203 H 0.28036 0.72194 0.63373 0.0
H204 H 0.31707 0.57243 0.62349 0.0
H205 H 0.30392 0.54549 0.65583 0.0
C206 C 0.28679 0.60935 0.68244 0.0
C207 C 0.28315 0.65024 0.69487 0.0
C208 C 0.28671 0.61966 0.66368 0.0
C209 C 0.27503 0.69897 0.68853 0.0
C210 C 0.27183 0.70777 0.66988 0.0
C211 C 0.28409 0.68271 0.63861 0.0
C212 C 0.29923 0.64887 0.6264 0.0
C213 C 0.27947 0.66952 0.65732 0.0
C214 C 0.30535 0.59892 0.63278 0.0
C215 C 0.29796 0.58364 0.65122 0.0
H216 H 0.72722 0.29211 0.01887 0.0
H217 H 0.55881 0.29612 0.0288 0.0
H218 H 0.53683 0.28754 -0.00389 0.0
H219 H 0.57165 0.29063 0.96458 0.0
H220 H 0.74748 0.3019 0.95465 0.0
H221 H 0.76057 0.29208 0.98729 0.0
C222 C 0.6851 0.2896 0.0138 0.0
C223 C 0.64411 0.29376 0.02605 0.0
C224 C 0.67455 0.28792 -0.00502 0.0
C225 C 0.59049 0.29231 0.01949 0.0
C226 C 0.57813 0.2877 0.00084 0.0
C227 C 0.61202 0.28946 0.96962 0.0
C228 C 0.65822 0.29614 0.95739 0.0
C229 C 0.6206 0.28705 0.98843 0.0
C230 C 0.71125 0.29634 0.96395 0.0
C231 C 0.7188 0.29098 0.98257 0.0
H232 H 0.36104 0.60548 0.29911 0.0
H233 H 0.36184 0.77995 0.29622 0.0
H234 H 0.36918 0.78932 0.32903 0.0
H235 H 0.36701 0.74505 0.35869 0.0
H236 H 0.37079 0.57402 0.36281 0.0
H237 H 0.37023 0.5662 0.32939 0.0
C238 C 0.36362 0.64588 0.30565 0.0
C239 C 0.35969 0.69125 0.29512 0.0
C240 C 0.36808 0.65139 0.32474 0.0
C241 C 0.36374 0.74365 0.30387 0.0
C242 C 0.36794 0.74924 0.3227 0.0
C243 C 0.36817 0.70631 0.35221 0.0
C244 C 0.3681 0.65976 0.36296 0.0
C245 C 0.36862 0.70279 0.33325 0.0
C246 C 0.37067 0.61024 0.35463 0.0
C247 C 0.37017 0.60578 0.33559 0.0
H248 H 0.73695 0.44741 0.68636 0.0
H249 H 0.683 0.25578 0.69635 0.0
H250 H 0.69249 0.23987 0.66395 0.0
H251 H 0.7049 0.27729 0.63244 0.0
H252 H 0.74566 0.46462 0.622 0.0
H253 H 0.75345 0.48611 0.65478 0.0
C254 C 0.72867 0.40269 0.68142 0.0
C255 C 0.70969 0.35291 0.69362 0.0
C256 C 0.7315 0.39317 0.66267 0.0
C257 C 0.69774 0.2947 0.68712 0.0
C258 C 0.70301 0.28556 0.66862 0.0
C259 C 0.7169 0.32313 0.63744 0.0
C260 C 0.72569 0.36973 0.62506 0.0
C261 C 0.71828 0.33397 0.65622 0.0
C262 C 0.7395 0.42852 0.63146 0.0
C263 C 0.7436 0.4406 0.65014 0.0
H264 H 0.31311 0.75566 0.18225 0.0
H265 H 0.32075 0.59922 0.20485 0.0
H266 H 0.31993 0.56047 0.17413 0.0
H267 H 0.3178 0.57177 0.14109 0.0
H268 H 0.31531 0.73074 0.11836 0.0
H269 H 0.31355 0.7683 0.1491 0.0
C270 C 0.31435 0.71292 0.18046 0.0
C271 C 0.31668 0.68002 0.19575 0.0
C272 C 0.31501 0.69174 0.16282 0.0
C273 C 0.319 0.62522 0.19326 0.0
C274 C 0.31849 0.60313 0.17573 0.0
C275 C 0.31675 0.61462 0.14284 0.0
C276 C 0.31644 0.64845 0.12752 0.0
C277 C 0.31663 0.63612 0.16045 0.0
C278 C 0.31572 0.70411 0.12998 0.0
C279 C 0.31457 0.72541 0.14752 0.0
H280 H 0.7611 0.31477 0.47115 0.0
H281 H 0.60265 0.32294 0.45091 0.0
H282 H 0.56936 0.32457 0.48221 0.0
H283 H 0.58668 0.3253 0.51521 0.0
H284 H 0.74782 0.32148 0.53513 0.0
H285 H 0.77874 0.31617 0.50389 0.0
C286 C 0.71914 0.31675 0.47355 0.0
C287 C 0.68426 0.31868 0.45876 0.0
C288 C 0.70091 0.31839 0.49147 0.0
C289 C 0.6303 0.32162 0.46209 0.0
C290 C 0.61128 0.32243 0.47996 0.0
C291 C 0.6284 0.32295 0.51271 0.0
C292 C 0.66493 0.32362 0.52743 0.0
C293 C 0.64637 0.32101 0.49474 0.0
C294 C 0.71907 0.32111 0.52401 0.0
C295 C 0.73672 0.31809 0.50618 0.0
H296 H 0.43767 0.74878 0.80285 0.0
H297 H 0.27175 0.58286 0.78544 0.0
H298 H 0.24512 0.5507 0.81717 0.0
H299 H 0.2667 0.5722 0.84963 0.0
H300 H 0.42939 0.74082 0.86725 0.0
H301 H 0.45999 0.76968 0.83546 0.0
C302 C 0.39589 0.70532 0.80599 0.0
C303 C 0.35659 0.66815 0.79186 0.0
C304 C 0.38034 0.68795 0.82421 0.0
C305 C 0.3025 0.61225 0.7961 0.0
C306 C 0.28733 0.59393 0.81421 0.0
C307 C 0.30912 0.61514 0.84655 0.0
C308 C 0.34581 0.65449 0.86073 0.0
C309 C 0.32555 0.6318 0.82835 0.0
C310 C 0.40038 0.71 0.85653 0.0
C311 C 0.4178 0.72641 0.83839 0.0
H312 H 0.68827 0.43815 0.13488 0.0
H313 H 0.68848 0.27244 0.11716 0.0
H314 H 0.6935 0.24506 0.14887 0.0
H315 H 0.6967 0.2679 0.18138 0.0
H316 H 0.69106 0.4306 0.19929 0.0
H317 H 0.68927 0.45986 0.16752 0.0
C318 C 0.68962 0.39611 0.13796 0.0
C319 C 0.68823 0.35734 0.12376 0.0
C320 C 0.69139 0.38029 0.15615 0.0
C321 C 0.68936 0.3028 0.1279 0.0
C322 C 0.69231 0.28727 0.14599 0.0
C323 C 0.69528 0.30993 0.17835 0.0
C324 C 0.69425 0.34731 0.1926 0.0
C325 C 0.69319 0.32562 0.16019 0.0
C326 C 0.69173 0.40116 0.18851 0.0
C327 C 0.69081 0.41784 0.17039 0.0
H328 H 0.4393 0.69537 0.51755 0.0
H329 H 0.27932 0.7034 0.53643 0.0
H330 H 0.24457 0.69808 0.50498 0.0
H331 H 0.25797 0.68737 0.47239 0.0
H332 H 0.4152 0.67405 0.45364 0.0
H333 H 0.45283 0.68494 0.48494 0.0
C334 C 0.39708 0.6965 0.51478 0.0
C335 C 0.36186 0.69988 0.52924 0.0
C336 C 0.37678 0.69193 0.49677 0.0
C337 C 0.30703 0.7007 0.52549 0.0
C338 C 0.28718 0.69757 0.50755 0.0
C339 C 0.30057 0.68698 0.47514 0.0
C340 C 0.3338 0.67983 0.46077 0.0
C341 C 0.32136 0.69248 0.49312 0.0
C342 C 0.38873 0.67919 0.46451 0.0
C343 C 0.41028 0.68557 0.48238 0.0
H344 H 0.74806 0.44408 0.84824 0.0
H345 H 0.58378 0.27962 0.86714 0.0
H346 H 0.54788 0.25156 0.83571 0.0
H347 H 0.56596 0.27119 0.80297 0.0
H348 H 0.73324 0.43228 0.78399 0.0
H349 H 0.76527 0.46469 0.81549 0.0
C350 C 0.70415 0.4023 0.8455 0.0
C351 C 0.66858 0.36381 0.85996 0.0
C352 C 0.68461 0.38592 0.82744 0.0
C353 C 0.61203 0.30974 0.85621 0.0
C354 C 0.59155 0.29376 0.83827 0.0
C355 C 0.60922 0.31371 0.80571 0.0
C356 C 0.64732 0.34935 0.7912 0.0
C357 C 0.62786 0.33111 0.82379 0.0
C358 C 0.70332 0.40405 0.79495 0.0
C359 C 0.7216 0.4225 0.81294 0.0
H360 H 0.90021 0.37545 0.08218 0.0
H361 H 0.87987 0.53714 0.07536 0.0
H362 H 0.9927 0.60427 0.07626 0.0
H363 H 0.09675 0.61685 0.07928 0.0
H364 H 0.11615 0.45437 0.08552 0.0
H365 H 1.00359 0.38771 0.08461 0.0
C366 C 0.92021 0.4254 0.0809 0.0
C367 C 0.88134 0.45115 0.07878 0.0
C368 C 0.98491 0.46357 0.08138 0.0
C369 C 0.90849 0.51597 0.07697 0.0
C370 C 0.97303 0.55439 0.07754 0.0
C371 C 0.07646 0.56687 0.08053 0.0
C372 C 0.11508 0.54077 0.08257 0.0
C373 C 0.01164 0.52869 0.07982 0.0
C374 C 0.08776 0.47582 0.08394 0.0
C375 C 0.02333 0.43762 0.08343 0.0
H376 H 0.48699 0.0922 0.41651 0.0
H377 H 0.66912 0.11152 0.41907 0.0
H378 H 0.62226 0.9984 0.41997 0.0
H379 H 0.53 0.8944 0.41968 0.0
H380 H 0.34793 0.87493 0.41618 0.0
H381 H 0.39468 0.98809 0.41599 0.0
C382 C 0.5166 0.07184 0.41736 0.0
C383 C 0.58164 0.11057 0.41779 0.0
C384 C 0.48938 0.00677 0.41766 0.0
C385 C 0.61904 0.08303 0.41869 0.0
C386 C 0.59225 0.0183 0.41922 0.0
C387 C 0.50032 0.91472 0.41896 0.0
C388 C 0.43536 0.87593 0.41801 0.0
C389 C 0.52751 0.97977 0.41867 0.0
C390 C 0.39796 0.90344 0.4169 0.0
C391 C 0.42469 0.9682 0.41682 0.0
H392 H 0.62075 0.53245 0.7424 0.0
H393 H 0.46111 0.34742 0.73972 0.0
H394 H 0.39284 0.39197 0.7388 0.0
H395 H 0.37847 0.48284 0.7402 0.0
H396 H 0.53806 0.6678 0.74281 0.0
H397 H 0.60661 0.62348 0.7422 0.0
C398 C 0.571 0.50153 0.74159 0.0
C399 C 0.54621 0.43629 0.74133 0.0
C400 C 0.53211 0.52748 0.74108 0.0
C401 C 0.48161 0.39754 0.74001 0.0
C402 C 0.44255 0.42307 0.73952 0.0
C403 C 0.4283 0.51374 0.7406 0.0
C404 C 0.45299 0.57884 0.74173 0.0
C405 C 0.46729 0.4879 0.74028 0.0
C406 C 0.5177 0.61777 0.74193 0.0
C407 C 0.55687 0.59235 0.74166 0.0
H408 H 0.63413 0.11064 0.57974 0.0
H409 H 0.47563 0.13563 0.57319 0.0
H410 H 0.40685 0.02251 0.5735 0.0
H411 H 0.39233 0.91722 0.57448 0.0
H412 H 0.55065 0.89194 0.5813 0.0
H413 H 0.61907 1.00506 0.58211 0.0
C414 C 0.58448 0.09154 0.57841 0.0
C415 C 0.5602 0.13197 0.5763 0.0
C416 C 0.54531 0.0265 0.57861 0.0
C417 C 0.49567 0.10599 0.57487 0.0
C418 C 0.45638 0.04123 0.57497 0.0
C419 C 0.44182 0.93609 0.57616 0.0
C420 C 0.46617 0.8955 0.57766 0.0
C421 C 0.48078 1.00111 0.57664 0.0
C422 C 0.53044 0.92155 0.58004 0.0
C423 C 0.5696 0.98635 0.58048 0.0
H424 H 0.53514 0.63057 0.90841 0.0
H425 H 0.35145 0.46886 0.90957 0.0
H426 H 0.39693 0.40142 0.91046 0.0
H427 H 0.48811 0.38828 0.90988 0.0
H428 H 0.67204 0.54944 0.90889 0.0
H429 H 0.62678 0.61739 0.90914 0.0
C430 C 0.50475 0.58054 0.90886 0.0
C431 C 0.43956 0.55496 0.90875 0.0
C432 C 0.53128 0.54203 0.90942 0.0
C433 C 0.40148 0.49 0.90958 0.0
C434 C 0.42755 0.45139 0.91007 0.0
C435 C 0.51866 0.43832 0.90973 0.0
C436 C 0.58373 0.46359 0.90919 0.0
C437 C 0.49231 0.47691 0.90983 0.0
C438 C 0.62205 0.52858 0.9093 0.0
C439 C 0.59609 0.56742 0.90937 0.0
H440 H 0.10714 0.62908 0.2258 0.0
H441 H 0.12636 0.5125 0.26556 0.0
H442 H 0.0139 0.4435 0.26626 0.0
H443 H 0.90899 0.41428 0.25497 0.0
H444 H 0.8912 0.52968 0.2143 0.0
H445 H 1.0028 0.59953 0.21436 0.0
C446 C 0.08645 0.58924 0.23485 0.0
C447 C 0.12493 0.57648 0.2458 0.0
C448 C 0.02159 0.54846 0.23478 0.0
C449 C 0.09757 0.52365 0.25711 0.0
C450 C 0.03324 0.48383 0.25743 0.0
C451 C 0.92964 0.45425 0.24598 0.0
C452 C 0.89125 0.46636 0.23469 0.0
C453 C 0.99461 0.49515 0.24613 0.0
C454 C 0.9192 0.51903 0.22325 0.0
C455 C 0.98329 0.55942 0.22329 0.0
H456 H 0.49963 0.38229 0.06698 0.0
H457 H 0.66091 0.56573 0.06385 0.0
H458 H 0.59423 0.61211 0.06425 0.0
H459 H 0.49099 0.60042 0.06851 0.0
H460 H 0.32975 0.41684 0.07134 0.0
H461 H 0.39569 0.37031 0.06794 0.0
C462 C 0.52015 0.43242 0.06615 0.0
C463 C 0.58505 0.47068 0.06561 0.0
C464 C 0.48164 0.45857 0.06651 0.0
C465 C 0.61105 0.5354 0.06429 0.0
C466 C 0.57298 0.56189 0.06464 0.0
C467 C 0.47025 0.5502 0.06824 0.0
C468 C 0.40577 0.51199 0.07045 0.0
C469 C 0.50838 0.52394 0.06624 0.0
C470 C 0.37932 0.44711 0.06976 0.0
C471 C 0.41699 0.42055 0.06786 0.0
H472 H 0.89693 0.48793 0.39782 0.0
H473 H 0.9168 0.32508 0.40002 0.0
H474 H 0.02973 0.39103 0.39871 0.0
H475 H 0.12238 0.49516 0.40022 0.0
H476 H 0.10248 0.65799 0.39791 0.0
H477 H 0.98975 0.59174 0.39577 0.0
C478 C 0.92596 0.46681 0.39777 0.0
C479 C 0.89864 0.40175 0.39926 0.0
C480 C 0.99072 0.50501 0.39712 0.0
C481 C 0.93672 0.375 0.39893 0.0
C482 C 1.00128 0.41273 0.39828 0.0
C483 C 0.09341 0.51617 0.39901 0.0
C484 C 0.12063 0.58139 0.39946 0.0
C485 C 0.02874 0.47781 0.39788 0.0
C486 C 0.08264 0.60795 0.39764 0.0
C487 C 0.01818 0.57007 0.39651 0.0
H488 H 0.45337 0.08968 0.73408 0.0
H489 H 0.64688 0.14287 0.7344 0.0
H490 H 0.6196 0.03407 0.73228 0.0
H491 H 0.54061 0.92263 0.73308 0.0
H492 H 0.34713 0.86924 0.73469 0.0
H493 H 0.37424 0.97812 0.73314 0.0
C494 C 0.48942 0.07737 0.7334 0.0
C495 C 0.55197 0.12431 0.7345 0.0
C496 C 0.47339 0.01425 0.73266 0.0
C497 C 0.59825 0.10759 0.73375 0.0
C498 C 0.58275 0.04528 0.73253 0.0
C499 C 0.50449 0.93491 0.73278 0.0
C500 C 0.44205 0.88791 0.73407 0.0
C501 C 0.52046 0.99802 0.73238 0.0
C502 C 0.39569 0.90458 0.73384 0.0
C503 C 0.4111 0.96693 0.73296 0.0
H504 H 0.55828 0.64174 0.58658 0.0
H505 H 0.36502 0.49996 0.5862 0.0
H506 H 0.3929 0.41889 0.58755 0.0
H507 H 0.47228 0.38729 0.58613 0.0
H508 H 0.66552 0.52891 0.58478 0.0
H509 H 0.63785 0.61007 0.58698 0.0
C510 C 0.52241 0.59315 0.5871 0.0
C511 C 0.45974 0.57708 0.5862 0.0
C512 C 0.53878 0.54629 0.58741 0.0
C513 C 0.41373 0.51374 0.58673 0.0
C514 C 0.42957 0.46716 0.58749 0.0
C515 C 0.50824 0.43586 0.5866 0.0
C516 C 0.57078 0.45187 0.58519 0.0
C517 C 0.49196 0.48271 0.58743 0.0
C518 C 0.61689 0.51518 0.58569 0.0
C519 C 0.60115 0.5618 0.58694 0.0
H520 H 0.09275 0.4605 0.91738 0.0
H521 H 0.1473 0.65449 0.92165 0.0
H522 H 0.03884 0.62766 0.92315 0.0
H523 H 0.92759 0.54962 0.92037 0.0
H524 H 0.87335 0.35609 0.9144 0.0
H525 H 0.98129 0.38191 0.91655 0.0
C526 C 0.08079 0.49668 0.91899 0.0
C527 C 0.12809 0.55934 0.91935 0.0
C528 C 0.01791 0.48104 0.91933 0.0
C529 C 0.11178 0.60581 0.92123 0.0
C530 C 0.04965 0.59056 0.92205 0.0
C531 C 0.93942 0.51313 0.91981 0.0
C532 C 0.89236 0.45114 0.9171 0.0
C533 C 1.00215 0.52843 0.92066 0.0
C534 C 0.90861 0.40438 0.91631 0.0
C535 C 0.97049 0.41903 0.91754 0.0
H536 H 0.50194 0.90632 0.25072 0.0
H537 H 0.34355 0.93301 0.2518 0.0
H538 H 0.41291 0.04593 0.25341 0.0
H539 H 0.51824 0.13677 0.25199 0.0
H540 H 0.67687 0.11049 0.25138 0.0
H541 H 0.60762 0.99733 0.25237 0.0
C542 C 0.48251 0.9368 0.25146 0.0
C543 C 0.41751 0.91125 0.25091 0.0
C544 C 0.52272 1.00159 0.25243 0.0
C545 C 0.39321 0.95137 0.25215 0.0
C546 C 0.43292 0.01594 0.25301 0.0
C547 C 0.5378 0.10634 0.25228 0.0
C548 C 0.60276 0.13207 0.25142 0.0
C549 C 0.4977 0.04154 0.25279 0.0
C550 C 0.62723 0.092 0.25204 0.0
C551 C 0.58755 0.02729 0.25249 0.0
loop_
_geom_bond_atom_site_label_1
_geom_bond_atom_site_label_2
_geom_bond_distance
_geom_bond_site_symmetry_2
_ccdc_geom_bond_type
Co0 O1 2.216 . S
Co0 O2 2.091 . S
Co0 O4 2.004 . S
Co0 O10 2.021 . S
Co0 O12 2.137 . S
Co0 O13 2.244 . S
O1 Co0 2.216 . S
O1 C8 1.247 . S
O2 Co0 2.091 . S
O2 C8 1.261 . S
C3 O12 1.247 . S
C3 O13 1.272 . S
O4 Co0 2.004 . S
O4 C9 1.259 . S
Co5 O6 2.061 . S
Co5 O11 2.052 . S
Co5 O13 2.135 . S
O6 Co5 2.061 . S
O6 C9 1.235 . S
C7 O10 1.238 . S
C7 O11 1.241 . S
C8 O1 1.247 . S
C8 O2 1.261 . S
C9 O4 1.259 . S
C9 O6 1.235 . S
O10 Co0 2.021 . S
O10 C7 1.238 . S
O11 Co5 2.052 . S
O11 C7 1.241 . S
O12 Co0 2.137 . S
O12 C3 1.247 . S
O13 Co0 2.244 . S
O13 C3 1.272 . S
O13 Co5 2.135 . S
Co14 O15 2.216 . S
Co14 O16 2.091 . S
Co14 O18 2.004 . S
Co14 O24 2.021 . S
Co14 O26 2.137 . S
Co14 O27 2.244 . S
O15 Co14 2.216 . S
O15 C22 1.247 . S
O16 Co14 2.091 . S
O16 C22 1.261 . S
C17 O26 1.247 . S
C17 O27 1.272 . S
O18 Co14 2.004 . S
O18 C23 1.259 . S
Co19 O20 2.061 . S
Co19 O25 2.052 . S
Co19 O27 2.135 . S
O20 Co19 2.061 . S
O20 C23 1.235 . S
C21 O24 1.238 . S
C21 O25 1.241 . S
C22 O15 1.247 . S
C22 O16 1.261 . S
C23 O18 1.259 . S
C23 O20 1.235 . S
O24 Co14 2.021 . S
O24 C21 1.238 . S
O25 Co19 2.052 . S
O25 C21 1.241 . S
O26 Co14 2.137 . S
O26 C17 1.247 . S
O27 Co14 2.244 . S
O27 C17 1.272 . S
O27 Co19 2.135 . S
Co28 O29 2.216 . S
Co28 O30 2.091 . S
Co28 O32 2.004 . S
Co28 O38 2.021 . S
Co28 O40 2.137 . S
Co28 O41 2.244 . S
O29 Co28 2.216 . S
O29 C36 1.247 . S
O30 Co28 2.091 . S
O30 C36 1.261 . S
C31 O40 1.247 . S
C31 O41 1.272 . S
O32 Co28 2.004 . S
O32 C37 1.259 . S
Co33 O34 2.061 . S
Co33 O39 2.052 . S
Co33 O41 2.135 . S
O34 Co33 2.061 . S
O34 C37 1.235 . S
C35 O38 1.238 . S
C35 O39 1.241 . S
C36 O29 1.247 . S
C36 O30 1.261 . S
C37 O32 1.259 . S
C37 O34 1.235 . S
O38 Co28 2.021 . S
O38 C35 1.238 . S
O39 Co33 2.052 . S
O39 C35 1.241 . S
O40 Co28 2.137 . S
O40 C31 1.247 . S
O41 Co28 2.244 . S
O41 C31 1.272 . S
O41 Co33 2.135 . S
Co42 O43 2.216 . S
Co42 O44 2.091 . S
Co42 O46 2.004 . S
Co42 O52 2.021 . S
Co42 O54 2.137 . S
Co42 O55 2.244 . S
O43 Co42 2.216 . S
O43 C50 1.247 . S
O44 Co42 2.091 . S
O44 C50 1.261 . S
C45 O54 1.247 . S
C45 O55 1.272 . S
O46 Co42 2.004 . S
O46 C51 1.259 . S
Co47 O48 2.061 . S
Co47 O53 2.052 . S
Co47 O55 2.135 . S
O48 Co47 2.061 . S
O48 C51 1.235 . S
C49 O52 1.238 . S
C49 O53 1.241 . S
C50 O43 1.247 . S
C50 O44 1.261 . S
C51 O46 1.259 . S
C51 O48 1.235 . S
O52 Co42 2.021 . S
O52 C49 1.238 . S
O53 Co47 2.052 . S
O53 C49 1.241 . S
O54 Co42 2.137 . S
O54 C45 1.247 . S
O55 Co42 2.244 . S
O55 C45 1.272 . S
O55 Co47 2.135 . S
Co56 O57 2.216 . S
Co56 O58 2.091 . S
Co56 O60 2.004 . S
Co56 O66 2.021 . S
Co56 O68 2.137 . S
Co56 O69 2.244 . S
O57 Co56 2.216 . S
O57 C64 1.247 . S
O58 Co56 2.091 . S
O58 C64 1.261 . S
C59 O68 1.247 . S
C59 O69 1.272 . S
O60 Co56 2.004 . S
O60 C65 1.259 . S
Co61 O62 2.061 . S
Co61 O67 2.052 . S
Co61 O69 2.135 . S
O62 Co61 2.061 . S
O62 C65 1.235 . S
C63 O66 1.238 . S
C63 O67 1.241 . S
C64 O57 1.247 . S
C64 O58 1.261 . S
C65 O60 1.259 . S
C65 O62 1.235 . S
O66 Co56 2.021 . S
O66 C63 1.238 . S
O67 Co61 2.052 . S
O67 C63 1.241 . S
O68 Co56 2.137 . S
O68 C59 1.247 . S
O69 Co56 2.244 . S
O69 C59 1.272 . S
O69 Co61 2.135 . S
Co70 O71 2.216 . S
Co70 O72 2.091 . S
Co70 O74 2.004 . S
Co70 O80 2.021 . S
Co70 O82 2.137 . S
Co70 O83 2.244 . S
O71 Co70 2.216 . S
O71 C78 1.247 . S
O72 Co70 2.091 . S
O72 C78 1.261 . S
C73 O82 1.247 . S
C73 O83 1.272 . S
O74 Co70 2.004 . S
O74 C79 1.259 . S
Co75 O76 2.061 . S
Co75 O81 2.052 . S
Co75 O83 2.135 . S
O76 Co75 2.061 . S
O76 C79 1.235 . S
C77 O80 1.238 . S
C77 O81 1.241 . S
C78 O71 1.247 . S
C78 O72 1.261 . S
C79 O74 1.259 . S
C79 O76 1.235 . S
O80 Co70 2.021 . S
O80 C77 1.238 . S
O81 Co75 2.052 . S
O81 C77 1.241 . S
O82 Co70 2.137 . S
O82 C73 1.247 . S
O83 Co70 2.244 . S
O83 C73 1.272 . S
O83 Co75 2.135 . S
Co84 O85 2.216 . S
Co84 O86 2.091 . S
Co84 O88 2.004 . S
Co84 O94 2.021 . S
Co84 O96 2.137 . S
Co84 O97 2.244 . S
O85 Co84 2.216 . S
O85 C92 1.247 . S
O86 Co84 2.091 . S
O86 C92 1.261 . S
C87 O96 1.247 . S
C87 O97 1.272 . S
O88 Co84 2.004 . S
O88 C93 1.259 . S
Co89 O90 2.061 . S
Co89 O95 2.052 . S
Co89 O97 2.135 . S
O90 Co89 2.061 . S
O90 C93 1.235 . S
C91 O94 1.238 . S
C91 O95 1.241 . S
C92 O85 1.247 . S
C92 O86 1.261 . S
C93 O88 1.259 . S
C93 O90 1.235 . S
O94 Co84 2.021 . S
O94 C91 1.238 . S
O95 Co89 2.052 . S
O95 C91 1.241 . S
O96 Co84 2.137 . S
O96 C87 1.247 . S
O97 Co84 2.244 . S
O97 C87 1.272 . S
O97 Co89 2.135 . S
Co98 O99 2.216 . S
Co98 O100 2.091 . S
Co98 O102 2.004 . S
Co98 O108 2.021 . S
Co98 O110 2.137 . S
Co98 O111 2.244 . S
O99 Co98 2.216 . S
O99 C106 1.247 . S
O100 Co98 2.091 . S
O100 C106 1.261 . S
C101 O110 1.247 . S
C101 O111 1.272 . S
O102 Co98 2.004 . S
O102 C107 1.259 . S
Co103 O104 2.061 . S
Co103 O109 2.052 . S
Co103 O111 2.135 . S
O104 Co103 2.061 . S
O104 C107 1.235 . S
C105 O108 1.238 . S
C105 O109 1.241 . S
C106 O99 1.247 . S
C106 O100 1.261 . S
C107 O102 1.259 . S
C107 O104 1.235 . S
O108 Co98 2.021 . S
O108 C105 1.238 . S
O109 Co103 2.052 . S
O109 C105 1.241 . S
O110 Co98 2.137 . S
O110 C101 1.247 . S
O111 Co98 2.244 . S
O111 C101 1.272 . S
O111 Co103 2.135 . S
Co112 O113 2.216 . S
Co112 O114 2.091 . S
Co112 O116 2.004 . S
Co112 O122 2.021 . S
Co112 O124 2.137 . S
Co112 O125 2.244 . S
O113 Co112 2.216 . S
O113 C120 1.247 . S
O114 Co112 2.091 . S
O114 C120 1.261 . S
C115 O124 1.247 . S
C115 O125 1.272 . S
O116 Co112 2.004 . S
O116 C121 1.259 . S
Co117 O118 2.061 . S
Co117 O123 2.052 . S
Co117 O125 2.135 . S
O118 Co117 2.061 . S
O118 C121 1.235 . S
C119 O122 1.238 . S
C119 O123 1.241 . S
C120 O113 1.247 . S
C120 O114 1.261 . S
C121 O116 1.259 . S
C121 O118 1.235 . S
O122 Co112 2.021 . S
O122 C119 1.238 . S
O123 Co117 2.052 . S
O123 C119 1.241 . S
O124 Co112 2.137 . S
O124 C115 1.247 . S
O125 Co112 2.244 . S
O125 C115 1.272 . S
O125 Co117 2.135 . S
Co126 O127 2.216 . S
Co126 O128 2.091 . S
Co126 O130 2.004 . S
Co126 O136 2.021 . S
Co126 O138 2.137 . S
Co126 O139 2.244 . S
O127 Co126 2.216 . S
O127 C134 1.247 . S
O128 Co126 2.091 . S
O128 C134 1.261 . S
C129 O138 1.247 . S
C129 O139 1.272 . S
O130 Co126 2.004 . S
O130 C135 1.259 . S
Co131 O132 2.061 . S
Co131 O137 2.052 . S
Co131 O139 2.135 . S
O132 Co131 2.061 . S
O132 C135 1.235 . S
C133 O136 1.238 . S
C133 O137 1.241 . S
C134 O127 1.247 . S
C134 O128 1.261 . S
C135 O130 1.259 . S
C135 O132 1.235 . S
O136 Co126 2.021 . S
O136 C133 1.238 . S
O137 Co131 2.052 . S
O137 C133 1.241 . S
O138 Co126 2.137 . S
O138 C129 1.247 . S
O139 Co126 2.244 . S
O139 C129 1.272 . S
O139 Co131 2.135 . S
Co140 O141 2.216 . S
Co140 O142 2.091 . S
Co140 O144 2.004 . S
Co140 O150 2.021 . S
Co140 O152 2.137 . S
Co140 O153 2.244 . S
O141 Co140 2.216 . S
O141 C148 1.247 . S
O142 Co140 2.091 . S
O142 C148 1.261 . S
C143 O152 1.247 . S
C143 O153 1.272 . S
O144 Co140 2.004 . S
O144 C149 1.259 . S
Co145 O146 2.061 . S
Co145 O151 2.052 . S
Co145 O153 2.135 . S
O146 Co145 2.061 . S
O146 C149 1.235 . S
C147 O150 1.238 . S
C147 O151 1.241 . S
C148 O141 1.247 . S
C148 O142 1.261 . S
C149 O144 1.259 . S
C149 O146 1.235 . S
O150 Co140 2.021 . S
O150 C147 1.238 . S
O151 Co145 2.052 . S
O151 C147 1.241 . S
O152 Co140 2.137 . S
O152 C143 1.247 . S
O153 Co140 2.244 . S
O153 C143 1.272 . S
O153 Co145 2.135 . S
Co154 O155 2.216 . S
Co154 O156 2.091 . S
Co154 O158 2.004 . S
Co154 O164 2.021 . S
Co154 O166 2.137 . S
Co154 O167 2.244 . S
O155 Co154 2.216 . S
O155 C162 1.247 . S
O156 Co154 2.091 . S
O156 C162 1.261 . S
C157 O166 1.247 . S
C157 O167 1.272 . S
O158 Co154 2.004 . S
O158 C163 1.259 . S
Co159 O160 2.061 . S
Co159 O165 2.052 . S
Co159 O167 2.135 . S
O160 Co159 2.061 . S
O160 C163 1.235 . S
C161 O164 1.238 . S
C161 O165 1.241 . S
C162 O155 1.247 . S
C162 O156 1.261 . S
C163 O158 1.259 . S
C163 O160 1.235 . S
O164 Co154 2.021 . S
O164 C161 1.238 . S
O165 Co159 2.052 . S
O165 C161 1.241 . S
O166 Co154 2.137 . S
O166 C157 1.247 . S
O167 Co154 2.244 . S
O167 C157 1.272 . S
O167 Co159 2.135 . S
H168 C174 0.930 . S
H169 C177 0.930 . S
H170 C178 0.930 . S
H171 C179 0.930 . S
H172 C182 0.930 . S
H173 C183 0.930 . S
C174 H168 0.930 . S
C174 C175 1.355 . S
C174 C176 1.415 . S
C175 C174 1.355 . S
C175 C177 1.419 . S
C176 C174 1.415 . S
C176 C181 1.425 1_556 S
C176 C183 1.409 1_556 S
C177 H169 0.930 . S
C177 C175 1.419 . S
C177 C178 1.362 . S
C178 H170 0.930 . S
C178 C177 1.362 . S
C178 C181 1.409 1_556 S
C179 H171 0.930 . S
C179 C180 1.355 . S
C179 C181 1.415 . S
C180 C179 1.355 . S
C180 C182 1.419 . S
C181 C176 1.425 1_554 S
C181 C178 1.409 1_554 S
C181 C179 1.415 . S
C182 H172 0.930 . S
C182 C180 1.419 . S
C182 C183 1.362 . S
C183 H173 0.930 . S
C183 C176 1.409 1_554 S
C183 C182 1.362 . S
H184 C190 0.930 . S
H185 C193 0.930 . S
H186 C194 0.930 . S
H187 C195 0.930 . S
H188 C198 0.930 . S
H189 C199 0.930 . S
C190 H184 0.930 . S
C190 C191 1.355 . S
C190 C192 1.415 . S
C191 C190 1.355 . S
C191 C193 1.419 . S
C192 C190 1.415 . S
C192 C197 1.425 . S
C192 C199 1.409 . S
C193 H185 0.930 . S
C193 C191 1.419 . S
C193 C194 1.362 . S
C194 H186 0.930 . S
C194 C193 1.362 . S
C194 C197 1.409 . S
C195 H187 0.930 . S
C195 C196 1.355 . S
C195 C197 1.415 . S
C196 C195 1.355 . S
C196 C198 1.419 . S
C197 C192 1.425 . S
C197 C194 1.409 . S
C197 C195 1.415 . S
C198 H188 0.930 . S
C198 C196 1.419 . S
C198 C199 1.362 . S
C199 H189 0.930 . S
C199 C192 1.409 . S
C199 C198 1.362 . S
H200 C206 0.930 . S
H201 C209 0.930 . S
H202 C210 0.930 . S
H203 C211 0.930 . S
H204 C214 0.930 . S
H205 C215 0.930 . S
C206 H200 0.930 . S
C206 C207 1.355 . S
C206 C208 1.415 . S
C207 C206 1.355 . S
C207 C209 1.419 . S
C208 C206 1.415 . S
C208 C213 1.425 . S
C208 C215 1.409 . S
C209 H201 0.930 . S
C209 C207 1.419 . S
C209 C210 1.362 . S
C210 H202 0.930 . S
C210 C209 1.362 . S
C210 C213 1.409 . S
C211 H203 0.930 . S
C211 C212 1.355 . S
C211 C213 1.415 . S
C212 C211 1.355 . S
C212 C214 1.419 . S
C213 C208 1.425 . S
C213 C210 1.409 . S
C213 C211 1.415 . S
C214 H204 0.930 . S
C214 C212 1.419 . S
C214 C215 1.362 . S
C215 H205 0.930 . S
C215 C208 1.409 . S
C215 C214 1.362 . S
H216 C222 0.930 . S
H217 C225 0.930 . S
H218 C226 0.930 . S
H219 C227 0.930 . S
H220 C230 0.930 . S
H221 C231 0.930 . S
C222 H216 0.930 . S
C222 C223 1.355 . S
C222 C224 1.415 . S
C223 C222 1.355 . S
C223 C225 1.419 . S
C224 C222 1.415 . S
C224 C229 1.425 1_554 S
C224 C231 1.409 1_554 S
C225 H217 0.930 . S
C225 C223 1.419 . S
C225 C226 1.362 . S
C226 H218 0.930 . S
C226 C225 1.362 . S
C226 C229 1.409 1_554 S
C227 H219 0.930 . S
C227 C228 1.355 . S
C227 C229 1.415 . S
C228 C227 1.355 . S
C228 C230 1.419 . S
C229 C224 1.425 1_556 S
C229 C226 1.409 1_556 S
C229 C227 1.415 . S
C230 H220 0.930 . S
C230 C228 1.419 . S
C230 C231 1.362 . S
C231 H221 0.930 . S
C231 C224 1.409 1_556 S
C231 C230 1.362 . S
H232 C238 0.930 . S
H233 C241 0.930 . S
H234 C242 0.930 . S
H235 C243 0.930 . S
H236 C246 0.930 . S
H237 C247 0.930 . S
C238 H232 0.930 . S
C238 C239 1.355 . S
C238 C240 1.415 . S
C239 C238 1.355 . S
C239 C241 1.419 . S
C240 C238 1.415 . S
C240 C245 1.425 . S
C240 C247 1.409 . S
C241 H233 0.930 . S
C241 C239 1.419 . S
C241 C242 1.362 . S
C242 H234 0.930 . S
C242 C241 1.362 . S
C242 C245 1.409 . S
C243 H235 0.930 . S
C243 C244 1.355 . S
C243 C245 1.415 . S
C244 C243 1.355 . S
C244 C246 1.419 . S
C245 C240 1.425 . S
C245 C242 1.409 . S
C245 C243 1.415 . S
C246 H236 0.930 . S
C246 C244 1.419 . S
C246 C247 1.362 . S
C247 H237 0.930 . S
C247 C240 1.409 . S
C247 C246 1.362 . S
H248 C254 0.930 . S
H249 C257 0.930 . S
H250 C258 0.930 . S
H251 C259 0.930 . S
H252 C262 0.930 . S
H253 C263 0.930 . S
C254 H248 0.930 . S
C254 C255 1.355 . S
C254 C256 1.415 . S
C255 C254 1.355 . S
C255 C257 1.419 . S
C256 C254 1.415 . S
C256 C261 1.425 . S
C256 C263 1.409 . S
C257 H249 0.930 . S
C257 C255 1.419 . S
C257 C258 1.362 . S
C258 H250 0.930 . S
C258 C257 1.362 . S
C258 C261 1.409 . S
C259 H251 0.930 . S
C259 C260 1.355 . S
C259 C261 1.415 . S
C260 C259 1.355 . S
C260 C262 1.419 . S
C261 C256 1.425 . S
C261 C258 1.409 . S
C261 C259 1.415 . S
C262 H252 0.930 . S
C262 C260 1.419 . S
C262 C263 1.362 . S
C263 H253 0.930 . S
C263 C256 1.409 . S
C263 C262 1.362 . S
H264 C270 0.930 . S
H265 C273 0.930 . S
H266 C274 0.930 . S
H267 C275 0.930 . S
H268 C278 0.930 . S
H269 C279 0.930 . S
C270 H264 0.930 . S
C270 C271 1.355 . S
C270 C272 1.415 . S
C271 C270 1.355 . S
C271 C273 1.419 . S
C272 C270 1.415 . S
C272 C277 1.425 . S
C272 C279 1.409 . S
C273 H265 0.930 . S
C273 C271 1.419 . S
C273 C274 1.362 . S
C274 H266 0.930 . S
C274 C273 1.362 . S
C274 C277 1.409 . S
C275 H267 0.930 . S
C275 C276 1.355 . S
C275 C277 1.415 . S
C276 C275 1.355 . S
C276 C278 1.419 . S
C277 C272 1.425 . S
C277 C274 1.409 . S
C277 C275 1.415 . S
C278 H268 0.930 . S
C278 C276 1.419 . S
C278 C279 1.362 . S
C279 H269 0.930 . S
C279 C272 1.409 . S
C279 C278 1.362 . S
H280 C286 0.930 . S
H281 C289 0.930 . S
H282 C290 0.930 . S
H283 C291 0.930 . S
H284 C294 0.930 . S
H285 C295 0.930 . S
C286 H280 0.930 . S
C286 C287 1.355 . S
C286 C288 1.415 . S
C287 C286 1.355 . S
C287 C289 1.419 . S
C288 C286 1.415 . S
C288 C293 1.425 . S
C288 C295 1.409 . S
C289 H281 0.930 . S
C289 C287 1.419 . S
C289 C290 1.362 . S
C290 H282 0.930 . S
C290 C289 1.362 . S
C290 C293 1.409 . S
C291 H283 0.930 . S
C291 C292 1.355 . S
C291 C293 1.415 . S
C292 C291 1.355 . S
C292 C294 1.419 . S
C293 C288 1.425 . S
C293 C290 1.409 . S
C293 C291 1.415 . S
C294 H284 0.930 . S
C294 C292 1.419 . S
C294 C295 1.362 . S
C295 H285 0.930 . S
C295 C288 1.409 . S
C295 C294 1.362 . S
H296 C302 0.930 . S
H297 C305 0.930 . S
H298 C306 0.930 . S
H299 C307 0.930 . S
H300 C310 0.930 . S
H301 C311 0.930 . S
C302 H296 0.930 . S
C302 C303 1.355 . S
C302 C304 1.415 . S
C303 C302 1.355 . S
C303 C305 1.419 . S
C304 C302 1.415 . S
C304 C309 1.425 . S
C304 C311 1.409 . S
C305 H297 0.930 . S
C305 C303 1.419 . S
C305 C306 1.362 . S
C306 H298 0.930 . S
C306 C305 1.362 . S
C306 C309 1.409 . S
C307 H299 0.930 . S
C307 C308 1.355 . S
C307 C309 1.415 . S
C308 C307 1.355 . S
C308 C310 1.419 . S
C309 C304 1.425 . S
C309 C306 1.409 . S
C309 C307 1.415 . S
C310 H300 0.930 . S
C310 C308 1.419 . S
C310 C311 1.362 . S
C311 H301 0.930 . S
C311 C304 1.409 . S
C311 C310 1.362 . S
H312 C318 0.930 . S
H313 C321 0.930 . S
H314 C322 0.930 . S
H315 C323 0.930 . S
H316 C326 0.930 . S
H317 C327 0.930 . S
C318 H312 0.930 . S
C318 C319 1.355 . S
C318 C320 1.415 . S
C319 C318 1.355 . S
C319 C321 1.419 . S
C320 C318 1.415 . S
C320 C325 1.425 . S
C320 C327 1.409 . S
C321 H313 0.930 . S
C321 C319 1.419 . S
C321 C322 1.362 . S
C322 H314 0.930 . S
C322 C321 1.362 . S
C322 C325 1.409 . S
C323 H315 0.930 . S
C323 C324 1.355 . S
C323 C325 1.415 . S
C324 C323 1.355 . S
C324 C326 1.419 . S
C325 C320 1.425 . S
C325 C322 1.409 . S
C325 C323 1.415 . S
C326 H316 0.930 . S
C326 C324 1.419 . S
C326 C327 1.362 . S
C327 H317 0.930 . S
C327 C320 1.409 . S
C327 C326 1.362 . S
H328 C334 0.930 . S
H329 C337 0.930 . S
H330 C338 0.930 . S
H331 C339 0.930 . S
H332 C342 0.930 . S
H333 C343 0.930 . S
C334 H328 0.930 . S
C334 C335 1.355 . S
C334 C336 1.415 . S
C335 C334 1.355 . S
C335 C337 1.419 . S
C336 C334 1.415 . S
C336 C341 1.425 . S
C336 C343 1.409 . S
C337 H329 0.930 . S
C337 C335 1.419 . S
C337 C338 1.362 . S
C338 H330 0.930 . S
C338 C337 1.362 . S
C338 C341 1.409 . S
C339 H331 0.930 . S
C339 C340 1.355 . S
C339 C341 1.415 . S
C340 C339 1.355 . S
C340 C342 1.419 . S
C341 C336 1.425 . S
C341 C338 1.409 . S
C341 C339 1.415 . S
C342 H332 0.930 . S
C342 C340 1.419 . S
C342 C343 1.362 . S
C343 H333 0.930 . S
C343 C336 1.409 . S
C343 C342 1.362 . S
H344 C350 0.930 . S
H345 C353 0.930 . S
H346 C354 0.930 . S
H347 C355 0.930 . S
H348 C358 0.930 . S
H349 C359 0.930 . S
C350 H344 0.930 . S
C350 C351 1.355 . S
C350 C352 1.415 . S
C351 C350 1.355 . S
C351 C353 1.419 . S
C352 C350 1.415 . S
C352 C357 1.425 . S
C352 C359 1.409 . S
C353 H345 0.930 . S
C353 C351 1.419 . S
C353 C354 1.362 . S
C354 H346 0.930 . S
C354 C353 1.362 . S
C354 C357 1.409 . S
C355 H347 0.930 . S
C355 C356 1.355 . S
C355 C357 1.415 . S
C356 C355 1.355 . S
C356 C358 1.419 . S
C357 C352 1.425 . S
C357 C354 1.409 . S
C357 C355 1.415 . S
C358 H348 0.930 . S
C358 C356 1.419 . S
C358 C359 1.362 . S
C359 H349 0.930 . S
C359 C352 1.409 . S
C359 C358 1.362 . S
H360 C366 0.930 . S
H361 C369 0.930 . S
H362 C370 0.930 1_455 S
H363 C371 0.930 . S
H364 C374 0.930 . S
H365 C375 0.930 1_655 S
C366 H360 0.930 . S
C366 C367 1.355 . S
C366 C368 1.415 . S
C367 C366 1.355 . S
C367 C369 1.419 . S
C368 C366 1.415 . S
C368 C373 1.425 1_655 S
C368 C375 1.409 1_655 S
C369 H361 0.930 . S
C369 C367 1.419 . S
C369 C370 1.362 . S
C370 H362 0.930 1_655 S
C370 C369 1.362 . S
C370 C373 1.409 1_655 S
C371 H363 0.930 . S
C371 C372 1.355 . S
C371 C373 1.415 . S
C372 C371 1.355 . S
C372 C374 1.419 . S
C373 C368 1.425 1_455 S
C373 C370 1.409 1_455 S
C373 C371 1.415 . S
C374 H364 0.930 . S
C374 C372 1.419 . S
C374 C375 1.362 . S
C375 H365 0.930 1_455 S
C375 C368 1.409 1_455 S
C375 C374 1.362 . S
H376 C382 0.930 . S
H377 C385 0.930 . S
H378 C386 0.930 . S
H379 C387 0.930 . S
H380 C390 0.930 . S
H381 C391 0.930 . S
C382 H376 0.930 . S
C382 C383 1.355 . S
C382 C384 1.415 . S
C383 C382 1.355 . S
C383 C385 1.419 . S
C384 C382 1.415 . S
C384 C389 1.425 1_545 S
C384 C391 1.409 1_545 S
C385 H377 0.930 . S
C385 C383 1.419 . S
C385 C386 1.362 . S
C386 H378 0.930 . S
C386 C385 1.362 . S
C386 C389 1.409 1_545 S
C387 H379 0.930 . S
C387 C388 1.355 . S
C387 C389 1.415 . S
C388 C387 1.355 . S
C388 C390 1.419 . S
C389 C384 1.425 1_565 S
C389 C386 1.409 1_565 S
C389 C387 1.415 . S
C390 H380 0.930 . S
C390 C388 1.419 . S
C390 C391 1.362 . S
C391 H381 0.930 . S
C391 C384 1.409 1_565 S
C391 C390 1.362 . S
H392 C398 0.930 . S
H393 C401 0.930 . S
H394 C402 0.930 . S
H395 C403 0.930 . S
H396 C406 0.930 . S
H397 C407 0.930 . S
C398 H392 0.930 . S
C398 C399 1.355 . S
C398 C400 1.415 . S
C399 C398 1.355 . S
C399 C401 1.419 . S
C400 C398 1.415 . S
C400 C405 1.425 . S
C400 C407 1.409 . S
C401 H393 0.930 . S
C401 C399 1.419 . S
C401 C402 1.362 . S
C402 H394 0.930 . S
C402 C401 1.362 . S
C402 C405 1.409 . S
C403 H395 0.930 . S
C403 C404 1.355 . S
C403 C405 1.415 . S
C404 C403 1.355 . S
C404 C406 1.419 . S
C405 C400 1.425 . S
C405 C402 1.409 . S
C405 C403 1.415 . S
C406 H396 0.930 . S
C406 C404 1.419 . S
C406 C407 1.362 . S
C407 H397 0.930 . S
C407 C400 1.409 . S
C407 C406 1.362 . S
H408 C414 0.930 . S
H409 C417 0.930 . S
H410 C418 0.930 . S
H411 C419 0.930 . S
H412 C422 0.930 . S
H413 C423 0.930 . S
C414 H408 0.930 . S
C414 C415 1.355 . S
C414 C416 1.415 . S
C415 C414 1.355 . S
C415 C417 1.419 . S
C416 C414 1.415 . S
C416 C421 1.425 1_545 S
C416 C423 1.409 1_545 S
C417 H409 0.930 . S
C417 C415 1.419 . S
C417 C418 1.362 . S
C418 H410 0.930 . S
C418 C417 1.362 . S
C418 C421 1.409 1_545 S
C419 H411 0.930 . S
C419 C420 1.355 . S
C419 C421 1.415 . S
C420 C419 1.355 . S
C420 C422 1.419 . S
C421 C416 1.425 1_565 S
C421 C418 1.409 1_565 S
C421 C419 1.415 . S
C422 H412 0.930 . S
C422 C420 1.419 . S
C422 C423 1.362 . S
C423 H413 0.930 . S
C423 C416 1.409 1_565 S
C423 C422 1.362 . S
H424 C430 0.930 . S
H425 C433 0.930 . S
H426 C434 0.930 . S
H427 C435 0.930 . S
H428 C438 0.930 . S
H429 C439 0.930 . S
C430 H424 0.930 . S
C430 C431 1.355 . S
C430 C432 1.415 . S
C431 C430 1.355 . S
C431 C433 1.419 . S
C432 C430 1.415 . S
C432 C437 1.425 . S
C432 C439 1.409 . S
C433 H425 0.930 . S
C433 C431 1.419 . S
C433 C434 1.362 . S
C434 H426 0.930 . S
C434 C433 1.362 . S
C434 C437 1.409 . S
C435 H427 0.930 . S
C435 C436 1.355 . S
C435 C437 1.415 . S
C436 C435 1.355 . S
C436 C438 1.419 . S
C437 C432 1.425 . S
C437 C434 1.409 . S
C437 C435 1.415 . S
C438 H428 0.930 . S
C438 C436 1.419 . S
C438 C439 1.362 . S
C439 H429 0.930 . S
C439 C432 1.409 . S
C439 C438 1.362 . S
H440 C446 0.930 . S
H441 C449 0.930 . S
H442 C450 0.930 . S
H443 C451 0.930 . S
H444 C454 0.930 . S
H445 C455 0.930 . S
C446 H440 0.930 . S
C446 C447 1.355 . S
C446 C448 1.415 . S
C447 C446 1.355 . S
C447 C449 1.419 . S
C448 C446 1.415 . S
C448 C453 1.425 1_455 S
C448 C455 1.409 1_455 S
C449 H441 0.930 . S
C449 C447 1.419 . S
C449 C450 1.362 . S
C450 H442 0.930 . S
C450 C449 1.362 . S
C450 C453 1.409 1_455 S
C451 H443 0.930 . S
C451 C452 1.355 . S
C451 C453 1.415 . S
C452 C451 1.355 . S
C452 C454 1.419 . S
C453 C448 1.425 1_655 S
C453 C450 1.409 1_655 S
C453 C451 1.415 . S
C454 H444 0.930 . S
C454 C452 1.419 . S
C454 C455 1.362 . S
C455 H445 0.930 . S
C455 C448 1.409 1_655 S
C455 C454 1.362 . S
H456 C462 0.930 . S
H457 C465 0.930 . S
H458 C466 0.930 . S
H459 C467 0.930 . S
H460 C470 0.930 . S
H461 C471 0.930 . S
C462 H456 0.930 . S
C462 C463 1.355 . S
C462 C464 1.415 . S
C463 C462 1.355 . S
C463 C465 1.419 . S
C464 C462 1.415 . S
C464 C469 1.425 . S
C464 C471 1.409 . S
C465 H457 0.930 . S
C465 C463 1.419 . S
C465 C466 1.362 . S
C466 H458 0.930 . S
C466 C465 1.362 . S
C466 C469 1.409 . S
C467 H459 0.930 . S
C467 C468 1.355 . S
C467 C469 1.415 . S
C468 C467 1.355 . S
C468 C470 1.419 . S
C469 C464 1.425 . S
C469 C466 1.409 . S
C469 C467 1.415 . S
C470 H460 0.930 . S
C470 C468 1.419 . S
C470 C471 1.362 . S
C471 H461 0.930 . S
C471 C464 1.409 . S
C471 C470 1.362 . S
H472 C478 0.930 . S
H473 C481 0.930 . S
H474 C482 0.930 1_455 S
H475 C483 0.930 . S
H476 C486 0.930 . S
H477 C487 0.930 1_655 S
C478 H472 0.930 . S
C478 C479 1.355 . S
C478 C480 1.415 . S
C479 C478 1.355 . S
C479 C481 1.419 . S
C480 C478 1.415 . S
C480 C485 1.425 1_655 S
C480 C487 1.409 1_655 S
C481 H473 0.930 . S
C481 C479 1.419 . S
C481 C482 1.362 . S
C482 H474 0.930 1_655 S
C482 C481 1.362 . S
C482 C485 1.409 1_655 S
C483 H475 0.930 . S
C483 C484 1.355 . S
C483 C485 1.415 . S
C484 C483 1.355 . S
C484 C486 1.419 . S
C485 C480 1.425 1_455 S
C485 C482 1.409 1_455 S
C485 C483 1.415 . S
C486 H476 0.930 . S
C486 C484 1.419 . S
C486 C487 1.362 . S
C487 H477 0.930 1_455 S
C487 C480 1.409 1_455 S
C487 C486 1.362 . S
H488 C494 0.930 . S
H489 C497 0.930 . S
H490 C498 0.930 . S
H491 C499 0.930 . S
H492 C502 0.930 . S
H493 C503 0.930 . S
C494 H488 0.930 . S
C494 C495 1.355 . S
C494 C496 1.415 . S
C495 C494 1.355 . S
C495 C497 1.419 . S
C496 C494 1.415 . S
C496 C501 1.425 1_545 S
C496 C503 1.409 1_545 S
C497 H489 0.930 . S
C497 C495 1.419 . S
C497 C498 1.362 . S
C498 H490 0.930 . S
C498 C497 1.362 . S
C498 C501 1.409 1_545 S
C499 H491 0.930 . S
C499 C500 1.355 . S
C499 C501 1.415 . S
C500 C499 1.355 . S
C500 C502 1.419 . S
C501 C496 1.425 1_565 S
C501 C498 1.409 1_565 S
C501 C499 1.415 . S
C502 H492 0.930 . S
C502 C500 1.419 . S
C502 C503 1.362 . S
C503 H493 0.930 . S
C503 C496 1.409 1_565 S
C503 C502 1.362 . S
H504 C510 0.930 . S
H505 C513 0.930 . S
H506 C514 0.930 . S
H507 C515 0.930 . S
H508 C518 0.930 . S
H509 C519 0.930 . S
C510 H504 0.930 . S
C510 C511 1.355 . S
C510 C512 1.415 . S
C511 C510 1.355 . S
C511 C513 1.419 . S
C512 C510 1.415 . S
C512 C517 1.425 . S
C512 C519 1.409 . S
C513 H505 0.930 . S
C513 C511 1.419 . S
C513 C514 1.362 . S
C514 H506 0.930 . S
C514 C513 1.362 . S
C514 C517 1.409 . S
C515 H507 0.930 . S
C515 C516 1.355 . S
C515 C517 1.415 . S
C516 C515 1.355 . S
C516 C518 1.419 . S
C517 C512 1.425 . S
C517 C514 1.409 . S
C517 C515 1.415 . S
C518 H508 0.930 . S
C518 C516 1.419 . S
C518 C519 1.362 . S
C519 H509 0.930 . S
C519 C512 1.409 . S
C519 C518 1.362 . S
H520 C526 0.930 . S
H521 C529 0.930 . S
H522 C530 0.930 . S
H523 C531 0.930 . S
H524 C534 0.930 . S
H525 C535 0.930 . S
C526 H520 0.930 . S
C526 C527 1.355 . S
C526 C528 1.415 . S
C527 C526 1.355 . S
C527 C529 1.419 . S
C528 C526 1.415 . S
C528 C533 1.425 1_455 S
C528 C535 1.409 1_455 S
C529 H521 0.930 . S
C529 C527 1.419 . S
C529 C530 1.362 . S
C530 H522 0.930 . S
C530 C529 1.362 . S
C530 C533 1.409 1_455 S
C531 H523 0.930 . S
C531 C532 1.355 . S
C531 C533 1.415 . S
C532 C531 1.355 . S
C532 C534 1.419 . S
C533 C528 1.425 1_655 S
C533 C530 1.409 1_655 S
C533 C531 1.415 . S
C534 H524 0.930 . S
C534 C532 1.419 . S
C534 C535 1.362 . S
C535 H525 0.930 . S
C535 C528 1.409 1_655 S
C535 C534 1.362 . S
H536 C542 0.930 . S
H537 C545 0.930 . S
H538 C546 0.930 1_545 S
H539 C547 0.930 . S
H540 C550 0.930 . S
H541 C551 0.930 1_565 S
C542 H536 0.930 . S
C542 C543 1.355 . S
C542 C544 1.415 . S
C543 C542 1.355 . S
C543 C545 1.419 . S
C544 C542 1.415 . S
C544 C549 1.425 1_565 S
C544 C551 1.409 1_565 S
C545 H537 0.930 . S
C545 C543 1.419 . S
C545 C546 1.362 . S
C546 H538 0.930 1_565 S
C546 C545 1.362 . S
C546 C549 1.409 1_565 S
C547 H539 0.930 . S
C547 C548 1.355 . S
C547 C549 1.415 . S
C548 C547 1.355 . S
C548 C550 1.419 . S
C549 C544 1.425 1_545 S
C549 C546 1.409 1_545 S
C549 C547 1.415 . S
C550 H540 0.930 . S
C550 C548 1.419 . S
C550 C551 1.362 . S
C551 H541 0.930 1_545 S
C551 C544 1.409 1_545 S
C551 C550 1.362 . S
C175 C147 1.330 . S
C180 C7 1.311 . S
C191 C21 1.283 . S
C196 C161 1.287 . S
C207 C35 1.331 . S
C212 C91 1.335 . S
C223 C49 1.325 . S
C228 C105 1.335 . S
C239 C119 1.297 . S
C244 C63 1.319 . S
C255 C77 1.315 . S
C260 C133 1.332 . S
C271 C115 1.403 . S
C276 C3 1.390 . S
C287 C17 1.334 . S
C292 C129 1.366 . S
C303 C31 1.389 . S
C308 C143 1.359 . S
C319 C45 1.386 . S
C324 C157 1.356 . S
C335 C87 1.343 . S
C340 C59 1.375 . S
C351 C101 1.388 . S
C356 C73 1.402 . S
C367 C51 1.495 . S
C372 C9 1.496 . S
C383 C23 1.474 . S
C388 C65 1.476 . S
C399 C79 1.467 . S
C404 C37 1.465 . S
C415 C135 1.452 . S
C420 C93 1.453 . S
C431 C149 1.489 . S
C436 C107 1.487 . S
C447 C121 1.456 . S
C452 C163 1.455 . S
C463 C50 1.437 . S
C468 C8 1.437 . S
C479 C22 1.437 . S
C484 C64 1.437 . S
C495 C78 1.437 . S
C500 C36 1.437 . S
C511 C92 1.436 . S
C516 C134 1.438 . S
C527 C148 1.438 . S
C532 C106 1.436 . S
C543 C120 1.437 . S
C548 C162 1.436 . S
