# Generated by pormake.
# Topology tzs, (4)-cn, num edge types: 1
# Building blocks:
#     Node 0, Type 0, BuildingBlock: UXUYUI_clean_sbu_0, # of connection points: 4
#     Node 1, Type 0, BuildingBlock: UXUYUI_clean_sbu_0, # of connection points: 4
#     Node 2, Type 0, BuildingBlock: UXUYUI_clean_sbu_0, # of connection points: 4
#     Node 3, Type 0, BuildingBlock: UXUYUI_clean_sbu_0, # of connection points: 4
#     Node 4, Type 0, BuildingBlock: UXUYUI_clean_sbu_0, # of connection points: 4
#     Node 5, Type 0, BuildingBlock: UXUYUI_clean_sbu_0, # of connection points: 4
#     Node 6, Type 0, BuildingBlock: UXUYUI_clean_sbu_0, # of connection points: 4
#     Node 7, Type 0, BuildingBlock: UXUYUI_clean_sbu_0, # of connection points: 4
#     Node 8, Type 0, BuildingBlock: UXUYUI_clean_sbu_0, # of connection points: 4
#     Node 9, Type 0, BuildingBlock: UXUYUI_clean_sbu_0, # of connection points: 4
#     Node 10, Type 0, BuildingBlock: UXUYUI_clean_sbu_0, # of connection points: 4
#     Node 11, Type 0, BuildingBlock: UXUYUI_clean_sbu_0, # of connection points: 4
#     Node 12, Type 0, BuildingBlock: UXUYUI_clean_sbu_0, # of connection points: 4
#     Node 13, Type 0, BuildingBlock: UXUYUI_clean_sbu_0, # of connection points: 4
#     Node 14, Type 0, BuildingBlock: UXUYUI_clean_sbu_0, # of connection points: 4
#     Node 15, Type 0, BuildingBlock: UXUYUI_clean_sbu_0, # of connection points: 4
#     Edge 16, Type (0, 0), BuildingBlock: CIFDUS_clean_linker_0, # of connection points: 2
#     Edge 17, Type (0, 0), BuildingBlock: CIFDUS_clean_linker_0, # of connection points: 2
#     Edge 18, Type (0, 0), BuildingBlock: CIFDUS_clean_linker_0, # of connection points: 2
#     Edge 19, Type (0, 0), BuildingBlock: CIFDUS_clean_linker_0, # of connection points: 2
#     Edge 20, Type (0, 0), BuildingBlock: CIFDUS_clean_linker_0, # of connection points: 2
#     Edge 21, Type (0, 0), BuildingBlock: CIFDUS_clean_linker_0, # of connection points: 2
#     Edge 22, Type (0, 0), BuildingBlock: CIFDUS_clean_linker_0, # of connection points: 2
#     Edge 23, Type (0, 0), BuildingBlock: CIFDUS_clean_linker_0, # of connection points: 2
#     Edge 24, Type (0, 0), BuildingBlock: CIFDUS_clean_linker_0, # of connection points: 2
#     Edge 25, Type (0, 0), BuildingBlock: CIFDUS_clean_linker_0, # of connection points: 2
#     Edge 26, Type (0, 0), BuildingBlock: CIFDUS_clean_linker_0, # of connection points: 2
#     Edge 27, Type (0, 0), BuildingBlock: CIFDUS_clean_linker_0, # of connection points: 2
#     Edge 28, Type (0, 0), BuildingBlock: CIFDUS_clean_linker_0, # of connection points: 2
#     Edge 29, Type (0, 0), BuildingBlock: CIFDUS_clean_linker_0, # of connection points: 2
#     Edge 30, Type (0, 0), BuildingBlock: CIFDUS_clean_linker_0, # of connection points: 2
#     Edge 31, Type (0, 0), BuildingBlock: CIFDUS_clean_linker_0, # of connection points: 2
#     Edge 32, Type (0, 0), BuildingBlock: CIFDUS_clean_linker_0, # of connection points: 2
#     Edge 33, Type (0, 0), BuildingBlock: CIFDUS_clean_linker_0, # of connection points: 2
#     Edge 34, Type (0, 0), BuildingBlock: CIFDUS_clean_linker_0, # of connection points: 2
#     Edge 35, Type (0, 0), BuildingBlock: CIFDUS_clean_linker_0, # of connection points: 2
#     Edge 36, Type (0, 0), BuildingBlock: CIFDUS_clean_linker_0, # of connection points: 2
#     Edge 37, Type (0, 0), BuildingBlock: CIFDUS_clean_linker_0, # of connection points: 2
#     Edge 38, Type (0, 0), BuildingBlock: CIFDUS_clean_linker_0, # of connection points: 2
#     Edge 39, Type (0, 0), BuildingBlock: CIFDUS_clean_linker_0, # of connection points: 2
#     Edge 40, Type (0, 0), BuildingBlock: CIFDUS_clean_linker_0, # of connection points: 2
#     Edge 41, Type (0, 0), BuildingBlock: CIFDUS_clean_linker_0, # of connection points: 2
#     Edge 42, Type (0, 0), BuildingBlock: CIFDUS_clean_linker_0, # of connection points: 2
#     Edge 43, Type (0, 0), BuildingBlock: CIFDUS_clean_linker_0, # of connection points: 2
#     Edge 44, Type (0, 0), BuildingBlock: CIFDUS_clean_linker_0, # of connection points: 2
#     Edge 45, Type (0, 0), BuildingBlock: CIFDUS_clean_linker_0, # of connection points: 2
#     Edge 46, Type (0, 0), BuildingBlock: CIFDUS_clean_linker_0, # of connection points: 2
#     Edge 47, Type (0, 0), BuildingBlock: CIFDUS_clean_linker_0, # of connection points: 2
# Relax obj value: 0.120
# Max RMSD: 0.120
# Mean RMSD: 0.120
data_MOF--net-tzs--node1-UXUYUI_clean_sbu_0--edge1-CIFDUS_clean_linker_0
_symmetry_space_group_name_H-M    P1
_symmetry_Int_Tables_number       1
_symmetry_cell_setting            triclinic
loop_
_symmetry_equiv_pos_as_xyz
'x, y, z'
_cell_length_a     64.427495
_cell_length_b     64.426616
_cell_length_c     55.449457
_cell_angle_alpha  89.930375
_cell_angle_beta   89.994621
_cell_angle_gamma 90.012394
loop_
_atom_site_label
_atom_site_type_symbol
_atom_site_fract_x
_atom_site_fract_y
_atom_site_fract_z
_atom_type_partial_charge
Li0 Li 0.15976 0.34442 0.19708 0.0
Li1 Li 0.14874 0.37982 0.19454 0.0
Li2 Li 0.12301 0.35335 0.19318 0.0
Li3 Li 0.14657 0.35928 0.15827 0.0
C4 C 0.13743 0.34681 0.2392 0.0
N5 N 0.12832 0.32083 0.27748 0.0
C6 C 0.13758 0.35445 0.26278 0.0
C7 C 0.13266 0.32593 0.2351 0.0
C8 C 0.13293 0.34107 0.28189 0.0
C9 C 0.12809 0.31306 0.25469 0.0
C10 C 0.18877 0.37888 0.17952 0.0
C11 C 0.21468 0.40202 0.16333 0.0
N12 N 0.22278 0.40438 0.18582 0.0
C13 C 0.19739 0.38145 0.20244 0.0
C14 C 0.19748 0.38917 0.15976 0.0
C15 C 0.21457 0.39445 0.20526 0.0
C16 C 0.18633 0.30925 0.19763 0.0
N17 N 0.1796 0.32575 0.21073 0.0
C18 C 0.20187 0.31638 0.24348 0.0
C19 C 0.18705 0.32951 0.23324 0.0
C20 C 0.20932 0.29926 0.23036 0.0
C21 C 0.20125 0.29573 0.20714 0.0
H22 H 0.18026 0.30672 0.17969 0.0
H23 H 0.18153 0.34279 0.24328 0.0
C24 C 0.14109 0.41092 0.22765 0.0
N25 N 0.1522 0.40732 0.20725 0.0
C26 C 0.14046 0.4307 0.23778 0.0
C27 C 0.16294 0.44288 0.2059 0.0
C28 C 0.16312 0.42279 0.19633 0.0
C29 C 0.15125 0.44709 0.22674 0.0
H30 H 0.13222 0.39848 0.23572 0.0
H31 H 0.1714 0.41979 0.17978 0.0
C32 C 0.12661 0.3209 0.15895 0.0
N33 N 0.10196 0.29851 0.12759 0.0
C34 C 0.10931 0.33019 0.14822 0.0
C35 C 0.13136 0.30023 0.15375 0.0
C36 C 0.09704 0.31861 0.13241 0.0
C37 C 0.11871 0.28916 0.13785 0.0
C38 C 0.12267 0.39789 0.16411 0.0
C39 C 0.10621 0.40986 0.17282 0.0
C40 C 0.13696 0.40675 0.14815 0.0
C41 C 0.10437 0.43053 0.16548 0.0
C42 C 0.13455 0.42745 0.14119 0.0
N43 N 0.11846 0.43883 0.14995 0.0
C44 C 0.08615 0.36451 0.21403 0.0
C45 C 0.0852 0.32931 0.20173 0.0
C46 C 0.0656 0.36349 0.22177 0.0
N47 N 0.09534 0.34778 0.20369 0.0
C48 C 0.06457 0.32753 0.20946 0.0
C49 C 0.05443 0.34492 0.21921 0.0
H50 H 0.09487 0.37871 0.21621 0.0
H51 H 0.09302 0.31603 0.19405 0.0
C52 C 0.16714 0.35263 0.11364 0.0
N53 N 0.14893 0.35857 0.12391 0.0
C54 C 0.16926 0.35241 0.08853 0.0
C55 C 0.13378 0.3642 0.08506 0.0
C56 C 0.13239 0.3643 0.1102 0.0
C57 C 0.15243 0.35827 0.07388 0.0
H58 H 0.18004 0.34813 0.12499 0.0
H59 H 0.11813 0.36915 0.11881 0.0
O60 O 0.14199 0.35983 0.22039 0.0
O61 O 0.17189 0.36634 0.17638 0.0
O62 O 0.13902 0.33194 0.17431 0.0
O63 O 0.1251 0.37777 0.17156 0.0
H64 H 0.14131 0.37054 0.2663 0.0
H65 H 0.13249 0.31964 0.21707 0.0
H66 H 0.13301 0.34679 0.30022 0.0
H67 H 0.12436 0.29688 0.25176 0.0
H68 H 0.22156 0.41015 0.14823 0.0
H69 H 0.1907 0.37371 0.21792 0.0
H70 H 0.19095 0.38734 0.1419 0.0
H71 H 0.22134 0.39669 0.22292 0.0
H72 H 0.20736 0.31959 0.26155 0.0
H73 H 0.20669 0.28292 0.19622 0.0
H74 H 0.13142 0.43316 0.25399 0.0
H75 H 0.17122 0.45512 0.19658 0.0
H76 H 0.1053 0.34612 0.15213 0.0
H77 H 0.14471 0.29282 0.16192 0.0
H78 H 0.08361 0.3256 0.12399 0.0
H79 H 0.12221 0.27315 0.13365 0.0
H80 H 0.09495 0.40332 0.18511 0.0
H81 H 0.15002 0.39788 0.14157 0.0
H82 H 0.09173 0.43998 0.17214 0.0
H83 H 0.14558 0.43452 0.12897 0.0
H84 H 0.05854 0.3771 0.22975 0.0
H85 H 0.0565 0.3129 0.20732 0.0
H86 H 0.18386 0.34755 0.08068 0.0
H87 H 0.12051 0.36912 0.07451 0.0
Li88 Li 0.62055 0.15693 0.19298 0.0
Li89 Li 0.65738 0.16451 0.19671 0.0
Li90 Li 0.64249 0.15018 0.15898 0.0
Li91 Li 0.64551 0.12798 0.19435 0.0
C92 C 0.62385 0.19383 0.1762 0.0
N93 N 0.5957 0.22588 0.1811 0.0
C94 C 0.62427 0.20643 0.19669 0.0
C95 C 0.60922 0.19761 0.15811 0.0
C96 C 0.60987 0.22253 0.19886 0.0
C97 C 0.5951 0.21388 0.16095 0.0
C98 C 0.65034 0.14401 0.24029 0.0
C99 C 0.68218 0.13387 0.25993 0.0
N100 N 0.67202 0.13321 0.28143 0.0
C101 C 0.64021 0.14319 0.26255 0.0
C102 C 0.67149 0.13928 0.23893 0.0
C103 C 0.65145 0.13771 0.28315 0.0
C104 C 0.57666 0.16243 0.18995 0.0
N105 N 0.59359 0.16515 0.20421 0.0
C106 C 0.57214 0.17728 0.23652 0.0
C107 C 0.59172 0.17262 0.22704 0.0
C108 C 0.55433 0.17425 0.22231 0.0
C109 C 0.55684 0.16695 0.19863 0.0
H110 H 0.5784 0.15636 0.172 0.0
H111 H 0.60545 0.1747 0.23801 0.0
C112 C 0.6947 0.187 0.19573 0.0
N113 N 0.6778 0.18293 0.2096 0.0
C114 C 0.71048 0.1999 0.20427 0.0
C115 C 0.69092 0.2047 0.24103 0.0
C116 C 0.67556 0.19157 0.23183 0.0
C117 C 0.70876 0.2089 0.22725 0.0
H118 H 0.69588 0.18023 0.17796 0.0
H119 H 0.66189 0.18819 0.24246 0.0
C120 C 0.61101 0.12272 0.15397 0.0
N121 N 0.59112 0.10501 0.11487 0.0
C122 C 0.6115 0.10121 0.15059 0.0
C123 C 0.60035 0.13518 0.13744 0.0
C124 C 0.60136 0.09257 0.13072 0.0
C125 C 0.59041 0.12595 0.1178 0.0
C126 C 0.68009 0.12828 0.16224 0.0
C127 C 0.6716 0.10965 0.15399 0.0
C128 C 0.70059 0.13331 0.15638 0.0
C129 C 0.68368 0.09641 0.13985 0.0
C130 C 0.71218 0.11966 0.14219 0.0
N131 N 0.70355 0.10165 0.13427 0.0
C132 C 0.64641 0.17063 0.11415 0.0
C133 C 0.64437 0.13409 0.11043 0.0
C134 C 0.64703 0.17286 0.08908 0.0
N135 N 0.64481 0.15148 0.12432 0.0
C136 C 0.6448 0.1356 0.08531 0.0
C137 C 0.64598 0.15521 0.07424 0.0
H138 H 0.64702 0.18423 0.12553 0.0
H139 H 0.64303 0.11899 0.11871 0.0
C140 C 0.63164 0.09 0.21203 0.0
N141 N 0.6493 0.10061 0.20678 0.0
C142 C 0.63266 0.0696 0.22039 0.0
C143 C 0.67011 0.07165 0.21886 0.0
C144 C 0.66835 0.09203 0.21032 0.0
C145 C 0.65207 0.06009 0.22368 0.0
H146 H 0.61672 0.09736 0.20941 0.0
H147 H 0.68217 0.1009 0.20628 0.0
O148 O 0.63737 0.17758 0.17417 0.0
O149 O 0.63946 0.14922 0.21997 0.0
O150 O 0.62093 0.13146 0.17331 0.0
O151 O 0.66859 0.14142 0.17629 0.0
H152 H 0.63539 0.20361 0.21093 0.0
H153 H 0.60872 0.18805 0.14211 0.0
H154 H 0.60992 0.23232 0.2147 0.0
H155 H 0.58363 0.21693 0.14714 0.0
H156 H 0.69854 0.13019 0.25914 0.0
H157 H 0.62383 0.1467 0.26389 0.0
H158 H 0.67961 0.13976 0.22188 0.0
H159 H 0.64381 0.13703 0.3005 0.0
H160 H 0.57096 0.18308 0.25479 0.0
H161 H 0.54356 0.16407 0.18713 0.0
H162 H 0.72379 0.20299 0.19288 0.0
H163 H 0.68903 0.21122 0.25889 0.0
H164 H 0.61969 0.09126 0.16308 0.0
H165 H 0.60018 0.15186 0.1394 0.0
H166 H 0.60167 0.07596 0.12788 0.0
H167 H 0.58226 0.13546 0.10479 0.0
H168 H 0.65583 0.10546 0.15841 0.0
H169 H 0.70752 0.14756 0.16277 0.0
H170 H 0.67724 0.08196 0.1333 0.0
H171 H 0.72805 0.12338 0.1375 0.0
H172 H 0.64834 0.18828 0.08143 0.0
H173 H 0.64364 0.12155 0.07472 0.0
H174 H 0.61839 0.06137 0.22429 0.0
H175 H 0.68536 0.06487 0.22112 0.0
Li176 Li 0.83735 0.65975 0.19194 0.0
Li177 Li 0.84722 0.62371 0.1888 0.0
Li178 Li 0.87361 0.65081 0.18801 0.0
Li179 Li 0.85053 0.64516 0.15219 0.0
C180 C 0.84717 0.64874 0.23656 0.0
N181 N 0.83106 0.65999 0.28084 0.0
C182 C 0.83453 0.63495 0.24935 0.0
C183 C 0.8517 0.66822 0.24633 0.0
C184 C 0.82654 0.64093 0.27171 0.0
C185 C 0.84337 0.67363 0.26871 0.0
C186 C 0.80918 0.6249 0.16451 0.0
C187 C 0.79359 0.60073 0.13668 0.0
N188 N 0.77727 0.59834 0.152 0.0
C189 C 0.79221 0.62228 0.17992 0.0
C190 C 0.80986 0.61411 0.14266 0.0
C191 C 0.77625 0.60874 0.17329 0.0
C192 C 0.81868 0.69928 0.19932 0.0
N193 N 0.81775 0.67887 0.20548 0.0
C194 C 0.78846 0.68526 0.23093 0.0
C195 C 0.80293 0.67169 0.22082 0.0
C196 C 0.7889 0.70645 0.22486 0.0
C197 C 0.80433 0.7134 0.20879 0.0
H198 H 0.83044 0.70459 0.18683 0.0
H199 H 0.80239 0.65541 0.22536 0.0
C200 C 0.85804 0.59077 0.21803 0.0
N201 N 0.84354 0.59594 0.20122 0.0
C202 C 0.85903 0.57064 0.22723 0.0
C203 C 0.82943 0.56155 0.2027 0.0
C204 C 0.82929 0.5818 0.19353 0.0
C205 C 0.84468 0.55575 0.21945 0.0
H206 H 0.86927 0.60222 0.22378 0.0
H207 H 0.81817 0.58586 0.17985 0.0
C208 C 0.87284 0.68644 0.16547 0.0
N209 N 0.90445 0.71489 0.15913 0.0
C210 C 0.88382 0.68707 0.14375 0.0
C211 C 0.87783 0.70034 0.18391 0.0
C212 C 0.89977 0.70157 0.1409 0.0
C213 C 0.89389 0.71458 0.18037 0.0
C214 C 0.87903 0.60675 0.16598 0.0
C215 C 0.89649 0.60158 0.1797 0.0
C216 C 0.86882 0.59135 0.15277 0.0
C217 C 0.90336 0.58101 0.1801 0.0
C218 C 0.87616 0.57096 0.15369 0.0
N219 N 0.89312 0.56625 0.16723 0.0
C220 C 0.90622 0.65926 0.2209 0.0
C221 C 0.91654 0.65703 0.17997 0.0
C222 C 0.92684 0.66151 0.2282 0.0
N223 N 0.9015 0.65694 0.19717 0.0
C224 C 0.93737 0.65925 0.18645 0.0
C225 C 0.9428 0.6612 0.21091 0.0
H226 H 0.89406 0.65862 0.23427 0.0
H227 H 0.91238 0.65476 0.16126 0.0
C228 C 0.83772 0.66234 0.10755 0.0
N229 N 0.84895 0.64684 0.11788 0.0
C230 C 0.83677 0.66418 0.08243 0.0
C231 C 0.85875 0.63395 0.07911 0.0
C232 C 0.85948 0.63284 0.10425 0.0
C233 C 0.84737 0.64984 0.06777 0.0
H234 H 0.82969 0.67339 0.11886 0.0
H235 H 0.86847 0.62081 0.1129 0.0
O236 O 0.85503 0.64323 0.21456 0.0
O237 O 0.82478 0.63832 0.17051 0.0
O238 O 0.85749 0.67207 0.1688 0.0
O239 O 0.87167 0.62666 0.16597 0.0
H240 H 0.83073 0.61988 0.24201 0.0
H241 H 0.86136 0.67911 0.23662 0.0
H242 H 0.81666 0.63046 0.28177 0.0
H243 H 0.84664 0.6887 0.27643 0.0
H244 H 0.79396 0.59223 0.11987 0.0
H245 H 0.79139 0.63051 0.19685 0.0
H246 H 0.82283 0.61594 0.13049 0.0
H247 H 0.76307 0.6065 0.18509 0.0
H248 H 0.77715 0.67915 0.2435 0.0
H249 H 0.80513 0.72949 0.20321 0.0
H250 H 0.87099 0.5667 0.24018 0.0
H251 H 0.81824 0.55035 0.19614 0.0
H252 H 0.88022 0.67635 0.12934 0.0
H253 H 0.86947 0.70002 0.20083 0.0
H254 H 0.90848 0.70218 0.12423 0.0
H255 H 0.898 0.72537 0.19453 0.0
H256 H 0.90448 0.61325 0.19019 0.0
H257 H 0.85513 0.59502 0.14231 0.0
H258 H 0.91677 0.57677 0.19076 0.0
H259 H 0.86829 0.55885 0.14374 0.0
H260 H 0.93029 0.66259 0.24727 0.0
H261 H 0.94913 0.65908 0.1725 0.0
H262 H 0.82807 0.6769 0.07463 0.0
H263 H 0.86691 0.62231 0.06872 0.0
Li264 Li 0.38019 0.85291 0.20281 0.0
Li265 Li 0.34326 0.8439 0.20177 0.0
Li266 Li 0.36122 0.85537 0.16476 0.0
Li267 Li 0.35505 0.87962 0.19799 0.0
C268 C 0.37016 0.81079 0.19385 0.0
N269 N 0.37657 0.77193 0.2136 0.0
C270 C 0.37089 0.80827 0.21889 0.0
C271 C 0.37263 0.79355 0.17887 0.0
C272 C 0.37415 0.78849 0.22852 0.0
C273 C 0.37589 0.77403 0.1892 0.0
C274 C 0.34944 0.87187 0.24396 0.0
C275 C 0.31921 0.8876 0.26195 0.0
N276 N 0.33143 0.89603 0.27938 0.0
C277 C 0.36168 0.8806 0.26211 0.0
C278 C 0.32802 0.87533 0.2439 0.0
C279 C 0.35229 0.89279 0.27984 0.0
C280 C 0.41376 0.86443 0.23083 0.0
N281 N 0.40658 0.84805 0.2179 0.0
C282 C 0.43738 0.8287 0.22672 0.0
C283 C 0.41803 0.83043 0.21541 0.0
C284 C 0.44513 0.84538 0.24041 0.0
C285 C 0.43303 0.86347 0.24218 0.0
H286 H 0.40463 0.87848 0.23186 0.0
H287 H 0.41234 0.8178 0.20446 0.0
C288 C 0.31054 0.81439 0.19907 0.0
N289 N 0.32291 0.82523 0.2144 0.0
C290 C 0.29633 0.79988 0.20805 0.0
C291 C 0.30772 0.80817 0.24842 0.0
C292 C 0.32181 0.82232 0.23865 0.0
C293 C 0.29479 0.79654 0.2331 0.0
H294 H 0.31196 0.8168 0.17982 0.0
H295 H 0.33207 0.83083 0.25048 0.0
C296 C 0.40134 0.87732 0.17397 0.0
N297 N 0.44357 0.87934 0.16556 0.0
C298 C 0.41223 0.89564 0.17864 0.0
C299 C 0.4119 0.86009 0.16477 0.0
C300 C 0.43359 0.89633 0.17432 0.0
C301 C 0.43326 0.8614 0.16071 0.0
C302 C 0.32446 0.87795 0.16182 0.0
C303 C 0.33606 0.89343 0.15036 0.0
C304 C 0.30339 0.87575 0.15646 0.0
C305 C 0.32633 0.9065 0.13373 0.0
C306 C 0.29422 0.88913 0.13973 0.0
N307 N 0.30579 0.9041 0.1288 0.0
C308 C 0.3468 0.84121 0.11917 0.0
C309 C 0.37673 0.86253 0.11734 0.0
C310 C 0.34661 0.83933 0.094 0.0
N311 N 0.36181 0.85257 0.13029 0.0
C312 C 0.37741 0.86067 0.09228 0.0
C313 C 0.36224 0.84896 0.08034 0.0
H314 H 0.33491 0.83371 0.12986 0.0
H315 H 0.38805 0.8721 0.12634 0.0
C316 C 0.36594 0.91819 0.21674 0.0
N317 N 0.34955 0.90768 0.20734 0.0
C318 C 0.36341 0.93831 0.22551 0.0
C319 C 0.32698 0.93635 0.21534 0.0
C320 C 0.33027 0.91627 0.20653 0.0
C321 C 0.34372 0.94763 0.22494 0.0
H322 H 0.38088 0.91067 0.21802 0.0
H323 H 0.31736 0.9074 0.19956 0.0
O324 O 0.36663 0.82991 0.18393 0.0
O325 O 0.35839 0.86045 0.22595 0.0
O326 O 0.38051 0.87609 0.17869 0.0
O327 O 0.3336 0.8648 0.17803 0.0
H328 H 0.36905 0.82141 0.23079 0.0
H329 H 0.37201 0.79525 0.15945 0.0
H330 H 0.37477 0.78632 0.24785 0.0
H331 H 0.37784 0.76054 0.17782 0.0
H332 H 0.30268 0.89053 0.26202 0.0
H333 H 0.37826 0.87804 0.2625 0.0
H334 H 0.31834 0.86888 0.22981 0.0
H335 H 0.36158 0.89971 0.29395 0.0
H336 H 0.44608 0.81443 0.22485 0.0
H337 H 0.43853 0.87698 0.25186 0.0
H338 H 0.28699 0.79108 0.19546 0.0
H339 H 0.30697 0.80643 0.26782 0.0
H340 H 0.40432 0.90921 0.18546 0.0
H341 H 0.40371 0.84577 0.16109 0.0
H342 H 0.44223 0.91039 0.17793 0.0
H343 H 0.44164 0.84814 0.15379 0.0
H344 H 0.35238 0.89539 0.15422 0.0
H345 H 0.29423 0.86379 0.16514 0.0
H346 H 0.33511 0.91855 0.12473 0.0
H347 H 0.27792 0.88761 0.13541 0.0
H348 H 0.33462 0.83022 0.08533 0.0
H349 H 0.3895 0.86859 0.08226 0.0
H350 H 0.37663 0.94628 0.23324 0.0
H351 H 0.31156 0.94299 0.21461 0.0
Li352 Li 0.12147 0.65782 0.3045 0.0
Li353 Li 0.1428 0.65294 0.33929 0.0
Li354 Li 0.1573 0.66893 0.30286 0.0
Li355 Li 0.14802 0.63167 0.30378 0.0
C356 C 0.12158 0.69035 0.33866 0.0
N357 N 0.09474 0.71135 0.36888 0.0
C358 C 0.10353 0.68067 0.347 0.0
C359 C 0.12599 0.71069 0.34569 0.0
C360 C 0.09015 0.69155 0.36226 0.0
C361 C 0.11222 0.72105 0.36098 0.0
C362 C 0.12244 0.61498 0.33823 0.0
C363 C 0.13925 0.5891 0.3629 0.0
N364 N 0.12082 0.57902 0.36537 0.0
C365 C 0.10369 0.60436 0.34099 0.0
C366 C 0.1404 0.60731 0.34926 0.0
C367 C 0.10318 0.58621 0.35479 0.0
C368 C 0.08304 0.64592 0.28608 0.0
N369 N 0.09407 0.66297 0.29267 0.0
C370 C 0.06622 0.68524 0.28067 0.0
C371 C 0.08614 0.68242 0.29014 0.0
C372 C 0.05447 0.66788 0.27361 0.0
C373 C 0.06314 0.64802 0.27646 0.0
H374 H 0.08983 0.63067 0.28817 0.0
H375 H 0.09537 0.69574 0.2952 0.0
C376 C 0.16064 0.65907 0.3858 0.0
N377 N 0.14311 0.65336 0.37388 0.0
C378 C 0.16091 0.65971 0.41105 0.0
C379 C 0.1251 0.64859 0.4112 0.0
C380 C 0.12556 0.64805 0.38605 0.0
C381 C 0.1429 0.65456 0.42408 0.0
H382 H 0.17438 0.66327 0.37569 0.0
H383 H 0.11183 0.64342 0.37623 0.0
C384 C 0.13185 0.66035 0.25889 0.0
N385 N 0.10986 0.6763 0.22031 0.0
C386 C 0.12369 0.64705 0.2414 0.0
C387 C 0.12891 0.68177 0.25669 0.0
C388 C 0.11259 0.65542 0.22205 0.0
C389 C 0.11774 0.68953 0.23706 0.0
C390 C 0.18932 0.64221 0.31538 0.0
C391 C 0.19319 0.64005 0.29069 0.0
C392 C 0.20565 0.64017 0.3318 0.0
C393 C 0.21336 0.63587 0.28286 0.0
C394 C 0.2256 0.63596 0.32324 0.0
N395 N 0.22901 0.63393 0.29915 0.0
C396 C 0.18577 0.70248 0.30573 0.0
C397 C 0.18104 0.68875 0.26648 0.0
C398 C 0.1999 0.71715 0.29691 0.0
N399 N 0.17661 0.68876 0.29046 0.0
C400 C 0.19481 0.70331 0.25685 0.0
C401 C 0.2044 0.71779 0.27212 0.0
H402 H 0.18205 0.70205 0.32476 0.0
H403 H 0.17389 0.67743 0.25477 0.0
C404 C 0.13891 0.59612 0.27769 0.0
N405 N 0.15375 0.60432 0.29223 0.0
C406 C 0.14105 0.57607 0.26855 0.0
C407 C 0.17355 0.57296 0.28998 0.0
C408 C 0.17077 0.59312 0.29873 0.0
C409 C 0.15855 0.56416 0.27466 0.0
H410 H 0.12524 0.60512 0.27345 0.0
H411 H 0.18203 0.59965 0.31099 0.0
O412 O 0.13505 0.68001 0.32387 0.0
O413 O 0.12308 0.63271 0.32463 0.0
O414 O 0.14225 0.65247 0.27838 0.0
O415 O 0.16977 0.6465 0.32359 0.0
H416 H 0.09987 0.66492 0.3418 0.0
H417 H 0.13994 0.71837 0.33942 0.0
H418 H 0.07614 0.68424 0.36886 0.0
H419 H 0.11544 0.73681 0.36658 0.0
H420 H 0.15301 0.58299 0.37153 0.0
H421 H 0.08966 0.6101 0.33254 0.0
H422 H 0.15507 0.61526 0.34736 0.0
H423 H 0.08876 0.57783 0.35708 0.0
H424 H 0.06022 0.70083 0.27853 0.0
H425 H 0.05456 0.6342 0.27156 0.0
H426 H 0.17492 0.66456 0.42024 0.0
H427 H 0.11097 0.64419 0.42049 0.0
H428 H 0.12588 0.63046 0.24271 0.0
H429 H 0.13488 0.69227 0.27024 0.0
H430 H 0.10613 0.6453 0.20841 0.0
H431 H 0.11524 0.70605 0.23523 0.0
H432 H 0.18078 0.64147 0.27769 0.0
H433 H 0.20291 0.64181 0.35097 0.0
H434 H 0.21656 0.63414 0.26381 0.0
H435 H 0.23839 0.63434 0.33575 0.0
H436 H 0.20694 0.72811 0.30925 0.0
H437 H 0.1981 0.7031 0.2377 0.0
H438 H 0.12913 0.57001 0.25671 0.0
H439 H 0.18706 0.5642 0.29557 0.0
Li440 Li 0.35061 0.13096 0.30724 0.0
Li441 Li 0.35343 0.15029 0.34689 0.0
Li442 Li 0.33882 0.16638 0.30871 0.0
Li443 Li 0.37497 0.1593 0.31205 0.0
C444 C 0.31488 0.12585 0.32999 0.0
N445 N 0.28932 0.09155 0.33383 0.0
C446 C 0.31379 0.11479 0.35166 0.0
C447 C 0.30286 0.11954 0.31033 0.0
C448 C 0.30079 0.09748 0.35323 0.0
C449 C 0.29008 0.10213 0.31261 0.0
C450 C 0.39397 0.12601 0.32961 0.0
C451 C 0.42838 0.12436 0.34662 0.0
N452 N 0.4351 0.11418 0.32662 0.0
C453 C 0.40119 0.11545 0.30927 0.0
C454 C 0.40763 0.13047 0.34849 0.0
C455 C 0.42205 0.10963 0.30808 0.0
C456 C 0.35024 0.10241 0.26889 0.0
N457 N 0.3476 0.10402 0.29314 0.0
C458 C 0.34442 0.06713 0.2967 0.0
C459 C 0.34481 0.08689 0.30713 0.0
C460 C 0.34745 0.06501 0.27173 0.0
C461 C 0.3502 0.083 0.25777 0.0
H462 H 0.35305 0.11617 0.25823 0.0
H463 H 0.3434 0.08851 0.32646 0.0
C464 C 0.33816 0.16187 0.39257 0.0
N465 N 0.35115 0.14849 0.38113 0.0
C466 C 0.33602 0.16117 0.41765 0.0
C467 C 0.36066 0.13289 0.4187 0.0
C468 C 0.36219 0.13405 0.39358 0.0
C469 C 0.34743 0.14658 0.43108 0.0
H470 H 0.32952 0.17317 0.38217 0.0
H471 H 0.37211 0.12333 0.38399 0.0
C472 C 0.3492 0.16288 0.2642 0.0
N473 N 0.3325 0.18307 0.22471 0.0
C474 C 0.35879 0.18066 0.25496 0.0
C475 C 0.33116 0.15533 0.25328 0.0
C476 C 0.35011 0.19063 0.23497 0.0
C477 C 0.32293 0.16578 0.23337 0.0
C478 C 0.37233 0.19364 0.33856 0.0
C479 C 0.37887 0.20776 0.32096 0.0
C480 C 0.38005 0.19525 0.36205 0.0
C481 C 0.39315 0.22318 0.32713 0.0
C482 C 0.39428 0.21093 0.36751 0.0
N483 N 0.40049 0.22444 0.35008 0.0
C484 C 0.29771 0.17869 0.29679 0.0
C485 C 0.32319 0.20427 0.28879 0.0
C486 C 0.28217 0.19148 0.28738 0.0
N487 N 0.3178 0.18514 0.2971 0.0
C488 C 0.30818 0.21752 0.27908 0.0
C489 C 0.28731 0.21117 0.27815 0.0
H490 H 0.29373 0.16355 0.30376 0.0
H491 H 0.33921 0.20911 0.28923 0.0
C492 C 0.40821 0.1627 0.2795 0.0
N493 N 0.40292 0.16671 0.30278 0.0
C494 C 0.42862 0.16535 0.27167 0.0
C495 C 0.43802 0.17608 0.31192 0.0
C496 C 0.41737 0.17329 0.31897 0.0
C497 C 0.44391 0.17193 0.288 0.0
H498 H 0.39672 0.15667 0.26717 0.0
H499 H 0.41309 0.17563 0.33759 0.0
O500 O 0.32767 0.14273 0.32803 0.0
O501 O 0.37376 0.13239 0.33075 0.0
O502 O 0.35719 0.15314 0.28409 0.0
O503 O 0.35828 0.17848 0.33295 0.0
H504 H 0.32294 0.11943 0.36707 0.0
H505 H 0.30355 0.12785 0.2934 0.0
H506 H 0.29985 0.08874 0.36986 0.0
H507 H 0.2808 0.097 0.29749 0.0
H508 H 0.43917 0.12785 0.361 0.0
H509 H 0.39087 0.11205 0.2944 0.0
H510 H 0.40238 0.13893 0.36419 0.0
H511 H 0.42789 0.10158 0.29237 0.0
H512 H 0.3426 0.05362 0.30815 0.0
H513 H 0.35256 0.08204 0.23846 0.0
H514 H 0.32578 0.17212 0.42646 0.0
H515 H 0.36949 0.12121 0.42831 0.0
H516 H 0.37262 0.18688 0.26331 0.0
H517 H 0.32347 0.14167 0.26025 0.0
H518 H 0.35731 0.20447 0.22772 0.0
H519 H 0.30891 0.16018 0.22485 0.0
H520 H 0.3733 0.20659 0.30264 0.0
H521 H 0.3752 0.18447 0.37591 0.0
H522 H 0.39846 0.23411 0.31364 0.0
H523 H 0.40041 0.21232 0.3856 0.0
H524 H 0.26627 0.18604 0.28749 0.0
H525 H 0.31299 0.23241 0.27193 0.0
H526 H 0.43253 0.16146 0.25322 0.0
H527 H 0.44931 0.18113 0.32514 0.0
Li528 Li 0.87548 0.34555 0.30843 0.0
Li529 Li 0.85628 0.35382 0.34595 0.0
Li530 Li 0.83846 0.33891 0.30938 0.0
Li531 Li 0.84963 0.37519 0.30929 0.0
C532 C 0.87373 0.31011 0.3339 0.0
N533 N 0.90145 0.27794 0.34098 0.0
C534 C 0.88417 0.30812 0.35588 0.0
C535 C 0.87721 0.29559 0.31563 0.0
C536 C 0.89816 0.29178 0.35909 0.0
C537 C 0.89135 0.27949 0.31952 0.0
C538 C 0.88783 0.38494 0.34092 0.0
C539 C 0.89122 0.4159 0.36506 0.0
N540 N 0.91177 0.41183 0.36803 0.0
C541 C 0.90904 0.38121 0.34399 0.0
C542 C 0.87889 0.40255 0.35135 0.0
C543 C 0.92086 0.39493 0.35784 0.0
C544 C 0.90502 0.34103 0.27149 0.0
N545 N 0.90192 0.33776 0.29544 0.0
C546 C 0.9373 0.32725 0.30036 0.0
C547 C 0.91753 0.33085 0.30988 0.0
C548 C 0.94109 0.33105 0.27579 0.0
C549 C 0.92453 0.33771 0.26123 0.0
H550 H 0.89248 0.34682 0.26043 0.0
H551 H 0.9149 0.32889 0.32899 0.0
C552 C 0.83979 0.34923 0.393 0.0
N553 N 0.85735 0.35407 0.38058 0.0
C554 C 0.8396 0.34988 0.41822 0.0
C555 C 0.87565 0.3602 0.41743 0.0
C556 C 0.87521 0.35906 0.3923 0.0
C557 C 0.85765 0.35571 0.4307 0.0
H558 H 0.82583 0.34511 0.38327 0.0
H559 H 0.8892 0.36206 0.38224 0.0
C560 C 0.84582 0.34645 0.26326 0.0
N561 N 0.82759 0.331 0.22191 0.0
C562 C 0.83158 0.3585 0.25039 0.0
C563 C 0.85101 0.32666 0.25492 0.0
C564 C 0.82248 0.35038 0.22956 0.0
C565 C 0.84156 0.31908 0.23403 0.0
C566 C 0.81526 0.37628 0.33944 0.0
C567 C 0.79534 0.37762 0.32956 0.0
C568 C 0.82092 0.38967 0.35812 0.0
C569 C 0.7816 0.39267 0.33815 0.0
C570 C 0.80674 0.40449 0.36625 0.0
N571 N 0.78754 0.4057 0.35615 0.0
C572 C 0.8184 0.29992 0.30277 0.0
C573 C 0.80041 0.32879 0.28655 0.0
C574 C 0.80288 0.28643 0.29469 0.0
N575 N 0.81692 0.32066 0.29854 0.0
C576 C 0.78449 0.31592 0.27827 0.0
C577 C 0.78559 0.29441 0.2823 0.0
H578 H 0.83159 0.29383 0.3125 0.0
H579 H 0.79968 0.3453 0.28321 0.0
C580 C 0.86097 0.41572 0.29573 0.0
N581 N 0.84453 0.40257 0.29715 0.0
C582 C 0.85849 0.43575 0.2866 0.0
C583 C 0.82232 0.42816 0.27939 0.0
C584 C 0.82545 0.40835 0.28912 0.0
C585 C 0.83899 0.44225 0.27802 0.0
H586 H 0.87615 0.41062 0.30149 0.0
H587 H 0.81274 0.39743 0.28969 0.0
O588 O 0.86002 0.32605 0.33041 0.0
O589 O 0.87601 0.37155 0.32752 0.0
O590 O 0.8546 0.35396 0.28395 0.0
O591 O 0.82895 0.36166 0.33116 0.0
H592 H 0.88157 0.31909 0.37029 0.0
H593 H 0.86915 0.29677 0.2986 0.0
H594 H 0.90641 0.29011 0.37597 0.0
H595 H 0.89427 0.26822 0.30548 0.0
H596 H 0.88447 0.42955 0.37324 0.0
H597 H 0.9163 0.36782 0.3359 0.0
H598 H 0.86268 0.40607 0.34859 0.0
H599 H 0.93726 0.39214 0.36047 0.0
H600 H 0.94969 0.32244 0.31233 0.0
H601 H 0.92671 0.34067 0.24217 0.0
H602 H 0.8254 0.34633 0.42784 0.0
H603 H 0.88998 0.36435 0.42643 0.0
H604 H 0.82747 0.37388 0.2565 0.0
H605 H 0.86216 0.31724 0.26451 0.0
H606 H 0.81133 0.35948 0.21951 0.0
H607 H 0.84533 0.30374 0.22747 0.0
H608 H 0.79055 0.36726 0.31532 0.0
H609 H 0.83601 0.38855 0.36645 0.0
H610 H 0.7662 0.39398 0.33052 0.0
H611 H 0.81097 0.41499 0.38065 0.0
H612 H 0.80424 0.26998 0.29841 0.0
H613 H 0.7716 0.3227 0.26852 0.0
H614 H 0.8718 0.44601 0.28635 0.0
H615 H 0.8071 0.43217 0.27256 0.0
Li616 Li 0.65809 0.88005 0.31143 0.0
Li617 Li 0.65256 0.85923 0.34831 0.0
Li618 Li 0.66801 0.84383 0.31017 0.0
Li619 Li 0.63084 0.85223 0.31202 0.0
C620 C 0.69403 0.88101 0.33406 0.0
N621 N 0.72303 0.91239 0.33817 0.0
C622 C 0.69504 0.89289 0.3551 0.0
C623 C 0.7079 0.88492 0.31523 0.0
C624 C 0.70979 0.90872 0.3568 0.0
C625 C 0.72241 0.9009 0.31761 0.0
C626 C 0.61664 0.88531 0.34517 0.0
C627 C 0.5859 0.87911 0.36895 0.0
N628 N 0.58381 0.89991 0.37236 0.0
C629 C 0.61409 0.90663 0.34874 0.0
C630 C 0.60237 0.87144 0.35522 0.0
C631 C 0.59743 0.9137 0.36261 0.0
C632 C 0.66397 0.91103 0.27594 0.0
N633 N 0.66351 0.90751 0.30011 0.0
C634 C 0.66754 0.94378 0.30803 0.0
C635 C 0.66533 0.92336 0.31616 0.0
C636 C 0.66761 0.94794 0.28315 0.0
C637 C 0.66606 0.9312 0.26703 0.0
H638 H 0.66215 0.89825 0.26355 0.0
H639 H 0.66446 0.92019 0.33528 0.0
C640 C 0.66127 0.84305 0.39493 0.0
N641 N 0.65337 0.85964 0.38285 0.0
C642 C 0.66227 0.84314 0.42015 0.0
C643 C 0.6469 0.87732 0.41998 0.0
C644 C 0.64649 0.87669 0.39484 0.0
C645 C 0.65497 0.86046 0.43311 0.0
H646 H 0.66691 0.82979 0.38495 0.0
H647 H 0.64083 0.88994 0.38493 0.0
C648 C 0.65677 0.85199 0.26426 0.0
N649 N 0.66879 0.83636 0.22003 0.0
C650 C 0.64324 0.83943 0.25104 0.0
C651 C 0.67633 0.8568 0.25485 0.0
C652 C 0.64962 0.83163 0.22874 0.0
C653 C 0.68214 0.84868 0.2325 0.0
C654 C 0.63561 0.8149 0.33913 0.0
C655 C 0.63705 0.79661 0.3257 0.0
C656 C 0.62341 0.81525 0.35998 0.0
C657 C 0.6258 0.77915 0.33297 0.0
C658 C 0.6124 0.79747 0.36667 0.0
N659 N 0.61379 0.77994 0.35312 0.0
C660 C 0.7079 0.82572 0.30596 0.0
C661 C 0.68223 0.80982 0.28166 0.0
C662 C 0.72302 0.81213 0.29715 0.0
N663 N 0.68798 0.82442 0.29803 0.0
C664 C 0.69687 0.7961 0.27213 0.0
C665 C 0.71765 0.79709 0.27984 0.0
H666 H 0.71206 0.83731 0.3192 0.0
H667 H 0.66629 0.80893 0.27574 0.0
C668 C 0.59059 0.86251 0.29772 0.0
N669 N 0.60347 0.84597 0.30057 0.0
C670 C 0.57044 0.85976 0.28913 0.0
C671 C 0.57733 0.82305 0.28529 0.0
C672 C 0.59731 0.82648 0.29437 0.0
C673 C 0.56359 0.83984 0.28277 0.0
H674 H 0.59604 0.87796 0.30188 0.0
H675 H 0.60799 0.81366 0.29597 0.0
O676 O 0.67948 0.86567 0.3319 0.0
O677 O 0.63292 0.87815 0.33169 0.0
O678 O 0.65085 0.85962 0.28621 0.0
O679 O 0.64672 0.83207 0.33242 0.0
H680 H 0.68445 0.89004 0.36986 0.0
H681 H 0.70743 0.87575 0.29892 0.0
H682 H 0.71067 0.91813 0.37292 0.0
H683 H 0.73317 0.90418 0.30313 0.0
H684 H 0.57474 0.86854 0.37681 0.0
H685 H 0.62489 0.9176 0.34094 0.0
H686 H 0.60381 0.85497 0.35213 0.0
H687 H 0.59532 0.93015 0.36561 0.0
H688 H 0.66839 0.95625 0.32108 0.0
H689 H 0.66619 0.93369 0.24771 0.0
H690 H 0.669 0.82992 0.42932 0.0
H691 H 0.6408 0.89092 0.42897 0.0
H692 H 0.62801 0.83566 0.25797 0.0
H693 H 0.68694 0.86657 0.26478 0.0
H694 H 0.63935 0.82181 0.21837 0.0
H695 H 0.69728 0.85215 0.22509 0.0
H696 H 0.6466 0.79595 0.30971 0.0
H697 H 0.62257 0.82902 0.37104 0.0
H698 H 0.62663 0.76496 0.3226 0.0
H699 H 0.60284 0.79757 0.3827 0.0
H700 H 0.7387 0.81329 0.30403 0.0
H701 H 0.69194 0.78506 0.2586 0.0
H702 H 0.56047 0.87316 0.28694 0.0
H703 H 0.57264 0.80747 0.28038 0.0
Li704 Li 0.85432 0.62241 0.80496 0.0
Li705 Li 0.85941 0.64409 0.83943 0.0
Li706 Li 0.84305 0.65778 0.80149 0.0
Li707 Li 0.88058 0.64824 0.80285 0.0
C708 C 0.81806 0.62205 0.82945 0.0
N709 N 0.78875 0.592 0.83951 0.0
C710 C 0.82295 0.60558 0.84484 0.0
C711 C 0.79826 0.62336 0.81929 0.0
C712 C 0.80792 0.5905 0.84966 0.0
C713 C 0.78365 0.60798 0.82459 0.0
C714 C 0.89711 0.62438 0.83904 0.0
C715 C 0.923 0.64285 0.86203 0.0
N716 N 0.93263 0.62456 0.86703 0.0
C717 C 0.90727 0.60578 0.84444 0.0
C718 C 0.90503 0.64308 0.84795 0.0
C719 C 0.9252 0.60619 0.85861 0.0
C720 C 0.86644 0.58193 0.79541 0.0
N721 N 0.84934 0.59425 0.79492 0.0
C722 C 0.8288 0.56615 0.77976 0.0
C723 C 0.83074 0.58686 0.78704 0.0
C724 C 0.84617 0.55298 0.78061 0.0
C725 C 0.8652 0.56118 0.78844 0.0
H726 H 0.88118 0.5883 0.801 0.0
H727 H 0.81742 0.59699 0.7862 0.0
C728 C 0.85265 0.66284 0.88541 0.0
N729 N 0.85907 0.64534 0.87391 0.0
C730 C 0.85282 0.66381 0.91065 0.0
C731 C 0.86624 0.62879 0.91162 0.0
C732 C 0.86549 0.62838 0.88649 0.0
C733 C 0.85994 0.64669 0.92402 0.0
H734 H 0.84749 0.67606 0.87497 0.0
H735 H 0.87015 0.6145 0.87699 0.0
C736 C 0.85166 0.63101 0.75878 0.0
N737 N 0.83556 0.60802 0.72111 0.0
C738 C 0.86487 0.61967 0.74375 0.0
C739 C 0.83026 0.6307 0.75459 0.0
C740 C 0.85643 0.60812 0.72483 0.0
C741 C 0.82243 0.619 0.73545 0.0
C742 C 0.86985 0.69015 0.81353 0.0
C743 C 0.87341 0.69365 0.789 0.0
C744 C 0.87 0.70686 0.82957 0.0
C745 C 0.87707 0.71386 0.7809 0.0
C746 C 0.87373 0.72685 0.82077 0.0
N747 N 0.87715 0.7299 0.79682 0.0
C748 C 0.80651 0.68239 0.80253 0.0
C749 C 0.82561 0.68428 0.76608 0.0
C750 C 0.79152 0.69598 0.79334 0.0
N751 N 0.82307 0.6768 0.78882 0.0
C752 C 0.81109 0.69797 0.75623 0.0
C753 C 0.79366 0.70395 0.76983 0.0
H754 H 0.80485 0.67613 0.82054 0.0
H755 H 0.83889 0.67953 0.75552 0.0
C756 C 0.91597 0.63573 0.77955 0.0
N757 N 0.90813 0.65263 0.79097 0.0
C758 C 0.93631 0.63574 0.771 0.0
C759 C 0.94044 0.67059 0.78632 0.0
C760 C 0.91992 0.66988 0.79467 0.0
C761 C 0.94893 0.65327 0.77446 0.0
H762 H 0.90649 0.622 0.77758 0.0
H763 H 0.91366 0.68288 0.80458 0.0
O764 O 0.83256 0.6369 0.8244 0.0
O765 O 0.87952 0.6241 0.82512 0.0
O766 O 0.85955 0.64208 0.77772 0.0
O767 O 0.86592 0.67056 0.82189 0.0
H768 H 0.83825 0.60433 0.85273 0.0
H769 H 0.79427 0.63603 0.80732 0.0
H770 H 0.81151 0.57758 0.86142 0.0
H771 H 0.76828 0.60872 0.81679 0.0
H772 H 0.92928 0.65721 0.86901 0.0
H773 H 0.90134 0.59113 0.83786 0.0
H774 H 0.89746 0.65766 0.84412 0.0
H775 H 0.9332 0.5919 0.86292 0.0
H776 H 0.81384 0.56046 0.7738 0.0
H777 H 0.87909 0.55173 0.78886 0.0
H778 H 0.84787 0.6779 0.91959 0.0
H779 H 0.87155 0.61518 0.9213 0.0
H780 H 0.88145 0.61974 0.74664 0.0
H781 H 0.81975 0.63905 0.76627 0.0
H782 H 0.86647 0.59922 0.71311 0.0
H783 H 0.8059 0.61852 0.73211 0.0
H784 H 0.87347 0.6809 0.77634 0.0
H785 H 0.86723 0.7044 0.84862 0.0
H786 H 0.87986 0.71678 0.76196 0.0
H787 H 0.87388 0.73993 0.83298 0.0
H788 H 0.77824 0.6999 0.8044 0.0
H789 H 0.81361 0.70392 0.7382 0.0
H790 H 0.94212 0.62209 0.76184 0.0
H791 H 0.94974 0.68429 0.78973 0.0
Li792 Li 0.37908 0.85054 0.8157 0.0
Li793 Li 0.35764 0.8563 0.85143 0.0
Li794 Li 0.34192 0.84099 0.81448 0.0
Li795 Li 0.35178 0.87731 0.81604 0.0
C796 C 0.37745 0.81749 0.84947 0.0
N797 N 0.40379 0.79396 0.87779 0.0
C798 C 0.39563 0.82619 0.85873 0.0
C799 C 0.37272 0.79676 0.8545 0.0
C800 C 0.40873 0.81408 0.87304 0.0
C801 C 0.38622 0.78513 0.86888 0.0
C802 C 0.38761 0.887 0.85281 0.0
C803 C 0.38745 0.91073 0.88644 0.0
N804 N 0.40844 0.90902 0.88807 0.0
C805 C 0.40919 0.88551 0.8548 0.0
C806 C 0.37665 0.89974 0.86874 0.0
C807 C 0.41944 0.89675 0.87275 0.0
C808 C 0.41626 0.8615 0.79371 0.0
N809 N 0.40607 0.84486 0.80303 0.0
C810 C 0.43478 0.8227 0.79382 0.0
C811 C 0.41473 0.8256 0.80291 0.0
C812 C 0.44583 0.83971 0.78444 0.0
C813 C 0.43623 0.85929 0.7843 0.0
H814 H 0.4089 0.87659 0.79386 0.0
H815 H 0.40613 0.8125 0.80989 0.0
C816 C 0.33771 0.85111 0.89622 0.0
N817 N 0.35657 0.85498 0.88619 0.0
C818 C 0.33548 0.8499 0.92128 0.0
C819 C 0.37215 0.85668 0.92534 0.0
C820 C 0.37372 0.85741 0.90023 0.0
C821 C 0.35282 0.85288 0.93632 0.0
H822 H 0.32434 0.84888 0.88471 0.0
H823 H 0.38868 0.86013 0.89206 0.0
C824 C 0.36199 0.84476 0.77042 0.0
N825 N 0.37022 0.82046 0.73053 0.0
C826 C 0.36205 0.85357 0.74739 0.0
C827 C 0.36616 0.82358 0.77318 0.0
C828 C 0.36623 0.84102 0.72744 0.0
C829 C 0.37027 0.81157 0.75279 0.0
C830 C 0.31549 0.87758 0.83547 0.0
C831 C 0.3019 0.87868 0.81588 0.0
C832 C 0.31394 0.89209 0.85408 0.0
C833 C 0.28712 0.89452 0.81507 0.0
C834 C 0.29894 0.90769 0.85262 0.0
N835 N 0.28597 0.90859 0.83329 0.0
C836 C 0.31787 0.80441 0.8158 0.0
C837 C 0.31199 0.82537 0.78136 0.0
C838 C 0.30333 0.78988 0.80777 0.0
N839 N 0.32195 0.82167 0.80254 0.0
C840 C 0.29721 0.81132 0.77271 0.0
C841 C 0.29268 0.79322 0.78596 0.0
H842 H 0.32589 0.80196 0.83268 0.0
H843 H 0.31543 0.83932 0.77124 0.0
C844 C 0.35028 0.92185 0.81475 0.0
N845 N 0.34511 0.90409 0.80296 0.0
C846 C 0.34719 0.94116 0.80385 0.0
C847 C 0.33306 0.92367 0.76903 0.0
C848 C 0.33641 0.90468 0.78063 0.0
C849 C 0.33878 0.94226 0.78049 0.0
H850 H 0.35735 0.92108 0.83233 0.0
H851 H 0.33242 0.89034 0.77163 0.0
O852 O 0.36442 0.82904 0.83532 0.0
O853 O 0.37733 0.87597 0.83542 0.0
O854 O 0.35794 0.85691 0.79009 0.0
O855 O 0.33047 0.86257 0.83621 0.0
H856 H 0.39966 0.84209 0.85475 0.0
H857 H 0.35882 0.78967 0.84732 0.0
H858 H 0.42284 0.82066 0.88033 0.0
H859 H 0.38275 0.76907 0.87292 0.0
H860 H 0.37913 0.92054 0.89896 0.0
H861 H 0.41796 0.8757 0.84271 0.0
H862 H 0.35994 0.90084 0.86773 0.0
H863 H 0.43612 0.89569 0.87452 0.0
H864 H 0.4415 0.80729 0.79395 0.0
H865 H 0.44423 0.87285 0.77745 0.0
H866 H 0.32032 0.84649 0.9287 0.0
H867 H 0.38597 0.8594 0.93598 0.0
H868 H 0.35891 0.86994 0.74495 0.0
H869 H 0.36621 0.81646 0.79084 0.0
H870 H 0.36631 0.84763 0.7095 0.0
H871 H 0.37351 0.79517 0.75466 0.0
H872 H 0.30295 0.86759 0.8013 0.0
H873 H 0.32421 0.89132 0.86949 0.0
H874 H 0.2766 0.89567 0.79992 0.0
H875 H 0.29761 0.91909 0.86684 0.0
H876 H 0.30064 0.77607 0.81848 0.0
H877 H 0.28921 0.81479 0.75602 0.0
H878 H 0.35209 0.95503 0.81327 0.0
H879 H 0.32628 0.92376 0.75115 0.0
Li880 Li 0.15366 0.38131 0.8106 0.0
Li881 Li 0.14632 0.35835 0.84498 0.0
Li882 Li 0.16256 0.34388 0.8072 0.0
Li883 Li 0.1257 0.35409 0.80896 0.0
C884 C 0.19359 0.37268 0.83038 0.0
N885 N 0.23369 0.38799 0.83077 0.0
C886 C 0.20123 0.3829 0.85075 0.0
C887 C 0.20651 0.36991 0.81038 0.0
C888 C 0.22149 0.39063 0.85055 0.0
C889 C 0.22668 0.37785 0.81088 0.0
C890 C 0.11979 0.38919 0.84932 0.0
C891 C 0.09722 0.39003 0.88401 0.0
N892 N 0.10484 0.40905 0.88989 0.0
C893 C 0.12731 0.40879 0.85562 0.0
C894 C 0.10452 0.37976 0.86352 0.0
C895 C 0.11957 0.41857 0.87622 0.0
C896 C 0.14879 0.41582 0.78086 0.0
N897 N 0.15998 0.40891 0.80004 0.0
C898 C 0.17713 0.44174 0.80326 0.0
C899 C 0.17394 0.4214 0.81133 0.0
C900 C 0.16581 0.44929 0.78342 0.0
C901 C 0.15154 0.43597 0.77214 0.0
H902 H 0.13751 0.4057 0.77248 0.0
H903 H 0.18233 0.41578 0.82685 0.0
C904 C 0.13887 0.33912 0.89025 0.0
N905 N 0.14606 0.3567 0.87955 0.0
C906 C 0.13778 0.33769 0.91538 0.0
C907 C 0.15193 0.37233 0.9181 0.0
C908 C 0.15265 0.37312 0.89292 0.0
C909 C 0.1443 0.35447 0.92967 0.0
H910 H 0.13391 0.32619 0.87928 0.0
H911 H 0.15814 0.387 0.88402 0.0
C912 C 0.15399 0.3627 0.76109 0.0
N913 N 0.1685 0.36539 0.71426 0.0
C914 C 0.14301 0.35334 0.74226 0.0
C915 C 0.17216 0.37371 0.756 0.0
C916 C 0.15066 0.35478 0.71874 0.0
C917 C 0.17929 0.37483 0.73225 0.0
C918 C 0.12659 0.31576 0.82512 0.0
C919 C 0.13135 0.29946 0.80946 0.0
C920 C 0.10781 0.31557 0.83774 0.0
C921 C 0.1171 0.28331 0.8065 0.0
C922 C 0.09396 0.29917 0.83424 0.0
N923 N 0.09885 0.28351 0.81882 0.0
C924 C 0.19666 0.3169 0.81082 0.0
C925 C 0.18092 0.31658 0.77221 0.0
C926 C 0.21101 0.30188 0.80358 0.0
N927 N 0.18203 0.32395 0.79515 0.0
C928 C 0.19504 0.30163 0.76417 0.0
C929 C 0.21029 0.29401 0.77997 0.0
H930 H 0.1971 0.32291 0.82902 0.0
H931 H 0.16886 0.32195 0.76025 0.0
C932 C 0.08251 0.36039 0.80338 0.0
N933 N 0.0987 0.3484 0.79612 0.0
C934 C 0.06274 0.35735 0.79367 0.0
C935 C 0.07661 0.32965 0.76915 0.0
C936 C 0.0961 0.33318 0.77941 0.0
C937 C 0.05961 0.34191 0.77615 0.0
H938 H 0.08501 0.37259 0.8164 0.0
H939 H 0.10923 0.32388 0.77389 0.0
O940 O 0.1738 0.36491 0.83037 0.0
O941 O 0.12744 0.37921 0.82945 0.0
O942 O 0.14664 0.36146 0.78423 0.0
O943 O 0.14022 0.33185 0.828 0.0
H944 H 0.19161 0.38496 0.86652 0.0
H945 H 0.20115 0.36154 0.79473 0.0
H946 H 0.22754 0.39871 0.86614 0.0
H947 H 0.2368 0.37586 0.79548 0.0
H948 H 0.08552 0.38285 0.89526 0.0
H949 H 0.1391 0.41631 0.84483 0.0
H950 H 0.09854 0.36459 0.85891 0.0
H951 H 0.12533 0.4337 0.88138 0.0
H952 H 0.18833 0.45145 0.81246 0.0
H953 H 0.14217 0.44122 0.75711 0.0
H954 H 0.13203 0.32352 0.92353 0.0
H955 H 0.15687 0.38572 0.92839 0.0
H956 H 0.12879 0.34497 0.74575 0.0
H957 H 0.18054 0.3816 0.77014 0.0
H958 H 0.14238 0.34749 0.70403 0.0
H959 H 0.19336 0.38329 0.7281 0.0
H960 H 0.14583 0.29932 0.7996 0.0
H961 H 0.10387 0.32808 0.84989 0.0
H962 H 0.12054 0.27063 0.79436 0.0
H963 H 0.0793 0.2989 0.84376 0.0
H964 H 0.2226 0.29656 0.8163 0.0
H965 H 0.19369 0.29573 0.74595 0.0
H966 H 0.05017 0.36738 0.79933 0.0
H967 H 0.07486 0.31746 0.75586 0.0
Li968 Li 0.62251 0.1481 0.81013 0.0
Li969 Li 0.6439 0.14508 0.84534 0.0
Li970 Li 0.65827 0.16043 0.80658 0.0
Li971 Li 0.64958 0.12238 0.81155 0.0
C972 C 0.62212 0.18714 0.82741 0.0
N973 N 0.594 0.21949 0.82586 0.0
C974 C 0.60373 0.18607 0.84072 0.0
C975 C 0.62624 0.20469 0.81335 0.0
C976 C 0.58969 0.20256 0.83967 0.0
C977 C 0.61182 0.22089 0.81282 0.0
C978 C 0.61528 0.11766 0.85279 0.0
C979 C 0.61613 0.09838 0.89012 0.0
N980 N 0.59684 0.10555 0.89558 0.0
C981 C 0.59547 0.12485 0.8588 0.0
C982 C 0.6257 0.1043 0.86857 0.0
C983 C 0.58641 0.11852 0.88049 0.0
C984 C 0.58334 0.1338 0.79663 0.0
N985 N 0.59494 0.15144 0.79695 0.0
C986 C 0.56833 0.16978 0.77554 0.0
C987 C 0.58792 0.16921 0.78641 0.0
C988 C 0.55608 0.15175 0.77501 0.0
C989 C 0.5638 0.13362 0.7858 0.0
H990 H 0.58948 0.11968 0.80438 0.0
H991 H 0.59771 0.18277 0.78569 0.0
C992 C 0.66456 0.14185 0.8901 0.0
N993 N 0.64616 0.14721 0.87986 0.0
C994 C 0.66684 0.14183 0.91515 0.0
C995 C 0.63131 0.15334 0.91878 0.0
C996 C 0.62978 0.15328 0.89363 0.0
C997 C 0.64999 0.14737 0.92992 0.0
H998 H 0.67749 0.13743 0.87883 0.0
H999 H 0.61533 0.15758 0.88519 0.0
C1000 C 0.63191 0.14234 0.76419 0.0
N1001 N 0.60673 0.14405 0.72396 0.0
C1002 C 0.62177 0.12448 0.75613 0.0
C1003 C 0.62942 0.16103 0.75172 0.0
C1004 C 0.60904 0.12568 0.73578 0.0
C1005 C 0.61659 0.16158 0.73141 0.0
C1006 C 0.6876 0.12646 0.82636 0.0
C1007 C 0.7027 0.13082 0.80898 0.0
C1008 C 0.68936 0.10855 0.84048 0.0
C1009 C 0.71928 0.11709 0.80591 0.0
C1010 C 0.70614 0.09519 0.83682 0.0
N1011 N 0.72063 0.0997 0.81976 0.0
C1012 C 0.68325 0.1959 0.80867 0.0
C1013 C 0.68344 0.17953 0.7704 0.0
C1014 C 0.69664 0.21136 0.80032 0.0
N1015 N 0.67683 0.18053 0.79366 0.0
C1016 C 0.697 0.19461 0.76133 0.0
C1017 C 0.70367 0.21088 0.77634 0.0
H1018 H 0.67781 0.19619 0.82713 0.0
H1019 H 0.67816 0.16705 0.75891 0.0
C1020 C 0.64674 0.07884 0.81231 0.0
N1021 N 0.65659 0.09491 0.80131 0.0
C1022 C 0.65055 0.05846 0.80513 0.0
C1023 C 0.67433 0.07144 0.77497 0.0
C1024 C 0.67012 0.09165 0.78286 0.0
C1025 C 0.66447 0.05451 0.78619 0.0
H1026 H 0.63559 0.08182 0.82639 0.0
H1027 H 0.67748 0.10474 0.77414 0.0
O1028 O 0.63616 0.17124 0.82834 0.0
O1029 O 0.62454 0.12386 0.83174 0.0
O1030 O 0.6439 0.14161 0.78449 0.0
O1031 O 0.67101 0.13946 0.82926 0.0
H1032 H 0.60017 0.17252 0.85143 0.0
H1033 H 0.64031 0.20576 0.8028 0.0
H1034 H 0.57534 0.20188 0.84976 0.0
H1035 H 0.61478 0.23454 0.80197 0.0
H1036 H 0.62408 0.08816 0.90255 0.0
H1037 H 0.58724 0.13541 0.84704 0.0
H1038 H 0.64115 0.09881 0.86443 0.0
H1039 H 0.57112 0.12403 0.88539 0.0
H1040 H 0.56312 0.18396 0.76699 0.0
H1041 H 0.55485 0.11939 0.78584 0.0
H1042 H 0.68168 0.13754 0.92284 0.0
H1043 H 0.61782 0.15752 0.92935 0.0
H1044 H 0.6235 0.10992 0.76569 0.0
H1045 H 0.63705 0.17502 0.75788 0.0
H1046 H 0.60095 0.11203 0.72942 0.0
H1047 H 0.61438 0.17596 0.72167 0.0
H1048 H 0.70157 0.14457 0.79787 0.0
H1049 H 0.67774 0.10486 0.8539 0.0
H1050 H 0.73104 0.12024 0.79247 0.0
H1051 H 0.70761 0.08121 0.8475 0.0
H1052 H 0.70161 0.22345 0.81259 0.0
H1053 H 0.70195 0.19374 0.7427 0.0
H1054 H 0.64222 0.04596 0.81391 0.0
H1055 H 0.68519 0.06908 0.76032 0.0
Li1056 Li 0.87551 0.3461 0.69651 0.0
Li1057 Li 0.83966 0.33576 0.69655 0.0
Li1058 Li 0.85613 0.35017 0.65929 0.0
Li1059 Li 0.84915 0.37251 0.69558 0.0
C1060 C 0.87443 0.30861 0.66768 0.0
N1061 N 0.89861 0.27702 0.64909 0.0
C1062 C 0.87283 0.28851 0.67701 0.0
C1063 C 0.88813 0.31258 0.64868 0.0
C1064 C 0.88525 0.27277 0.66744 0.0
C1065 C 0.90027 0.29642 0.63959 0.0
C1066 C 0.85748 0.33991 0.74162 0.0
C1067 C 0.85814 0.33523 0.78479 0.0
N1068 N 0.86401 0.31514 0.78165 0.0
C1069 C 0.86358 0.31924 0.73885 0.0
C1070 C 0.85479 0.348 0.76479 0.0
C1071 C 0.86678 0.30696 0.75928 0.0
C1072 C 0.9067 0.35362 0.72995 0.0
N1073 N 0.90243 0.34116 0.71081 0.0
C1074 C 0.93612 0.32564 0.71372 0.0
C1075 C 0.91665 0.32721 0.70266 0.0
C1076 C 0.94098 0.3385 0.7334 0.0
C1077 C 0.92589 0.35259 0.74151 0.0
H1078 H 0.89526 0.36474 0.73598 0.0
H1079 H 0.91313 0.31743 0.68748 0.0
C1080 C 0.815 0.30004 0.6918 0.0
N1081 N 0.81963 0.31585 0.70709 0.0
C1082 C 0.80081 0.2847 0.69861 0.0
C1083 C 0.7963 0.30228 0.73672 0.0
C1084 C 0.81051 0.31731 0.72913 0.0
C1085 C 0.7913 0.28561 0.72142 0.0
H1086 H 0.8224 0.29934 0.67431 0.0
H1087 H 0.81436 0.33008 0.74094 0.0
C1088 C 0.8938 0.37893 0.67817 0.0
N1089 N 0.93346 0.39382 0.68607 0.0
C1090 C 0.89719 0.39478 0.69493 0.0
C1091 C 0.91058 0.37076 0.66532 0.0
C1092 C 0.91735 0.40208 0.69866 0.0
C1093 C 0.93051 0.37846 0.66962 0.0
C1094 C 0.8087 0.3625 0.67977 0.0
C1095 C 0.79397 0.36397 0.66136 0.0
C1096 C 0.80272 0.36581 0.70368 0.0
C1097 C 0.77343 0.36877 0.6672 0.0
C1098 C 0.78203 0.37057 0.70879 0.0
N1099 N 0.76794 0.37194 0.6906 0.0
C1100 C 0.83911 0.33923 0.61446 0.0
C1101 C 0.87049 0.35824 0.61151 0.0
C1102 C 0.83769 0.33799 0.58935 0.0
N1103 N 0.85535 0.34918 0.62496 0.0
C1104 C 0.86985 0.35713 0.58635 0.0
C1105 C 0.85326 0.34692 0.57485 0.0
H1106 H 0.8272 0.33231 0.62564 0.0
H1107 H 0.88317 0.36616 0.62033 0.0
C1108 C 0.83762 0.40354 0.72902 0.0
N1109 N 0.84192 0.39985 0.70542 0.0
C1110 C 0.83445 0.4238 0.73712 0.0
C1111 C 0.83967 0.43607 0.69636 0.0
C1112 C 0.84271 0.41554 0.68903 0.0
C1113 C 0.83584 0.44046 0.7208 0.0
H1114 H 0.83707 0.39077 0.74163 0.0
H1115 H 0.84637 0.41213 0.67041 0.0
O1116 O 0.8621 0.3241 0.67658 0.0
O1117 O 0.85431 0.35231 0.72186 0.0
O1118 O 0.87423 0.37119 0.67475 0.0
O1119 O 0.82883 0.35769 0.67434 0.0
H1120 H 0.86205 0.28506 0.69145 0.0
H1121 H 0.88956 0.32798 0.64121 0.0
H1122 H 0.88423 0.25716 0.67455 0.0
H1123 H 0.91104 0.29931 0.62499 0.0
H1124 H 0.85609 0.34129 0.80282 0.0
H1125 H 0.86589 0.31273 0.72116 0.0
H1126 H 0.85018 0.36399 0.76734 0.0
H1127 H 0.87149 0.29093 0.75735 0.0
H1128 H 0.94721 0.31442 0.707 0.0
H1129 H 0.92901 0.36308 0.75631 0.0
H1130 H 0.79723 0.27236 0.68604 0.0
H1131 H 0.78959 0.30352 0.75456 0.0
H1132 H 0.88446 0.40118 0.70522 0.0
H1133 H 0.90832 0.35841 0.65243 0.0
H1134 H 0.9202 0.41425 0.71168 0.0
H1135 H 0.94365 0.37215 0.65994 0.0
H1136 H 0.79838 0.36141 0.64276 0.0
H1137 H 0.81389 0.36464 0.71816 0.0
H1138 H 0.76185 0.36997 0.65314 0.0
H1139 H 0.77718 0.37315 0.72723 0.0
H1140 H 0.82439 0.33031 0.58144 0.0
H1141 H 0.8824 0.36398 0.57609 0.0
H1142 H 0.83123 0.42642 0.75604 0.0
H1143 H 0.84112 0.44842 0.6832 0.0
Li1144 Li 0.65638 0.87483 0.69603 0.0
Li1145 Li 0.66354 0.83889 0.69969 0.0
Li1146 Li 0.65087 0.8526 0.66105 0.0
Li1147 Li 0.62751 0.85069 0.69866 0.0
C1148 C 0.69338 0.86929 0.66771 0.0
N1149 N 0.72633 0.89052 0.64739 0.0
C1150 C 0.71296 0.86866 0.67856 0.0
C1151 C 0.69065 0.88049 0.64632 0.0
C1152 C 0.72939 0.87958 0.66808 0.0
C1153 C 0.70748 0.89117 0.63639 0.0
C1154 C 0.66134 0.85931 0.74314 0.0
C1155 C 0.66725 0.85816 0.78609 0.0
N1156 N 0.6871 0.86468 0.78252 0.0
C1157 C 0.6818 0.86596 0.73992 0.0
C1158 C 0.654 0.85535 0.76642 0.0
C1159 C 0.69457 0.86861 0.76003 0.0
C1160 C 0.65269 0.90923 0.72644 0.0
N1161 N 0.66309 0.90271 0.70649 0.0
C1162 C 0.6786 0.93628 0.70195 0.0
C1163 C 0.67598 0.91577 0.6943 0.0
C1164 C 0.6679 0.94344 0.72239 0.0
C1165 C 0.65493 0.92953 0.73478 0.0
H1166 H 0.64213 0.89879 0.73554 0.0
H1167 H 0.68383 0.9106 0.67828 0.0
C1168 C 0.69927 0.81344 0.70065 0.0
N1169 N 0.68184 0.81854 0.71313 0.0
C1170 C 0.71328 0.799 0.71007 0.0
C1171 C 0.69109 0.79523 0.74495 0.0
C1172 C 0.67744 0.80964 0.73478 0.0
C1173 C 0.70936 0.7898 0.73261 0.0
H1174 H 0.70231 0.82069 0.6834 0.0
H1175 H 0.66333 0.81375 0.74418 0.0
C1176 C 0.6253 0.89382 0.6749 0.0
N1177 N 0.61423 0.93522 0.67645 0.0
C1178 C 0.6108 0.90074 0.69183 0.0
C1179 C 0.63404 0.90792 0.65863 0.0
C1180 C 0.60543 0.92175 0.69234 0.0
C1181 C 0.62828 0.9288 0.65974 0.0
C1182 C 0.64187 0.80725 0.68499 0.0
C1183 C 0.6549 0.79437 0.67152 0.0
C1184 C 0.63121 0.79919 0.70485 0.0
C1185 C 0.65715 0.77359 0.67827 0.0
C1186 C 0.63384 0.77831 0.71099 0.0
N1187 N 0.64667 0.76606 0.6977 0.0
C1188 C 0.66415 0.83608 0.61617 0.0
C1189 C 0.63867 0.86254 0.61344 0.0
C1190 C 0.66477 0.8343 0.59104 0.0
N1191 N 0.65119 0.85 0.62678 0.0
C1192 C 0.6391 0.86155 0.58828 0.0
C1193 C 0.65224 0.84727 0.57681 0.0
H1194 H 0.67413 0.82651 0.62722 0.0
H1195 H 0.62845 0.8734 0.62234 0.0
C1196 C 0.59483 0.84856 0.73284 0.0
N1197 N 0.59964 0.84691 0.70906 0.0
C1198 C 0.57418 0.84722 0.74043 0.0
C1199 C 0.56387 0.84235 0.6989 0.0
C1200 C 0.58473 0.8437 0.69214 0.0
C1201 C 0.55834 0.84431 0.72333 0.0
H1202 H 0.60698 0.85138 0.74584 0.0
H1203 H 0.58904 0.84256 0.67333 0.0
O1204 O 0.67726 0.85829 0.67748 0.0
O1205 O 0.64861 0.85632 0.72366 0.0
O1206 O 0.63126 0.87344 0.67468 0.0
O1207 O 0.64002 0.8278 0.67923 0.0
H1208 H 0.71549 0.85975 0.69486 0.0
H1209 H 0.67568 0.88122 0.63765 0.0
H1210 H 0.7446 0.87928 0.67634 0.0
H1211 H 0.70554 0.90002 0.61995 0.0
H1212 H 0.66177 0.85513 0.80419 0.0
H1213 H 0.68775 0.86913 0.72212 0.0
H1214 H 0.63827 0.85003 0.76928 0.0
H1215 H 0.71043 0.87378 0.75776 0.0
H1216 H 0.68881 0.94646 0.69189 0.0
H1217 H 0.64604 0.93447 0.75033 0.0
H1218 H 0.72724 0.7954 0.70004 0.0
H1219 H 0.68731 0.78829 0.7622 0.0
H1220 H 0.60398 0.89007 0.70467 0.0
H1221 H 0.64537 0.90286 0.64551 0.0
H1222 H 0.59434 0.92735 0.70546 0.0
H1223 H 0.63504 0.93991 0.64739 0.0
H1224 H 0.66338 0.80041 0.65622 0.0
H1225 H 0.62121 0.809 0.71559 0.0
H1226 H 0.66728 0.76346 0.66811 0.0
H1227 H 0.62577 0.77188 0.72638 0.0
H1228 H 0.67522 0.82321 0.5828 0.0
H1229 H 0.6291 0.8717 0.57788 0.0
H1230 H 0.57061 0.84911 0.75938 0.0
H1231 H 0.55219 0.83991 0.68515 0.0
Li1232 Li 0.12998 0.65541 0.68739 0.0
Li1233 Li 0.16691 0.6652 0.69043 0.0
Li1234 Li 0.15216 0.64946 0.6526 0.0
Li1235 Li 0.15787 0.62772 0.6886 0.0
C1236 C 0.132 0.69299 0.66705 0.0
N1237 N 0.10456 0.72594 0.66555 0.0
C1238 C 0.13628 0.71118 0.67983 0.0
C1239 C 0.11388 0.69166 0.65329 0.0
C1240 C 0.12219 0.72765 0.67889 0.0
C1241 C 0.10016 0.70844 0.65283 0.0
C1242 C 0.15472 0.6519 0.73714 0.0
C1243 C 0.17513 0.64429 0.77254 0.0
N1244 N 0.1639 0.65843 0.78523 0.0
C1245 C 0.14319 0.66612 0.75063 0.0
C1246 C 0.17066 0.6407 0.74825 0.0
C1247 C 0.14815 0.6693 0.77487 0.0
C1248 C 0.08851 0.64501 0.69583 0.0
N1249 N 0.10228 0.66082 0.69846 0.0
C1250 C 0.07662 0.68135 0.71863 0.0
C1251 C 0.09674 0.67881 0.70959 0.0
C1252 C 0.06217 0.66511 0.71647 0.0
C1253 C 0.06831 0.64684 0.70466 0.0
H1254 H 0.09331 0.63076 0.68721 0.0
H1255 H 0.10803 0.69104 0.71193 0.0
C1256 C 0.20513 0.68685 0.69158 0.0
N1257 N 0.18643 0.68514 0.70279 0.0
C1258 C 0.21986 0.70113 0.6997 0.0
C1259 C 0.19563 0.71227 0.73027 0.0
C1260 C 0.18143 0.69761 0.72168 0.0
C1261 C 0.21524 0.71416 0.71931 0.0
H1262 H 0.20862 0.67714 0.67624 0.0
H1263 H 0.16624 0.69657 0.72977 0.0
C1264 C 0.12461 0.61903 0.64884 0.0
N1265 N 0.10904 0.59817 0.60928 0.0
C1266 C 0.13271 0.59971 0.64238 0.0
C1267 C 0.10842 0.62763 0.63537 0.0
C1268 C 0.12467 0.58942 0.62227 0.0
C1269 C 0.10081 0.61688 0.61537 0.0
C1270 C 0.19802 0.63407 0.67176 0.0
C1271 C 0.2076 0.62439 0.65215 0.0
C1272 C 0.20814 0.63463 0.69403 0.0
C1273 C 0.22702 0.61513 0.65527 0.0
C1274 C 0.22755 0.62521 0.69644 0.0
N1275 N 0.2365 0.61571 0.67718 0.0
C1276 C 0.14705 0.66634 0.60546 0.0
C1277 C 0.16099 0.63234 0.60653 0.0
C1278 C 0.1478 0.66647 0.58026 0.0
N1279 N 0.15349 0.64939 0.61803 0.0
C1280 C 0.16205 0.63181 0.58136 0.0
C1281 C 0.15538 0.64904 0.56784 0.0
H1282 H 0.14145 0.67984 0.61498 0.0
H1283 H 0.16606 0.61907 0.61691 0.0
C1284 C 0.15319 0.59456 0.7208 0.0
N1285 N 0.16358 0.60044 0.70058 0.0
C1286 C 0.15532 0.57444 0.72989 0.0
C1287 C 0.17883 0.56671 0.69717 0.0
C1288 C 0.17628 0.58702 0.68874 0.0
C1289 C 0.16813 0.56012 0.71792 0.0
H1290 H 0.14286 0.6054 0.7296 0.0
H1291 H 0.18398 0.59184 0.67238 0.0
O1292 O 0.14556 0.67667 0.66787 0.0
O1293 O 0.14995 0.64848 0.71341 0.0
O1294 O 0.13253 0.6295 0.66821 0.0
O1295 O 0.1789 0.64303 0.66908 0.0
H1296 H 0.15032 0.71259 0.69036 0.0
H1297 H 0.11039 0.67777 0.64317 0.0
H1298 H 0.12527 0.74179 0.68876 0.0
H1299 H 0.08602 0.70756 0.64237 0.0
H1300 H 0.18746 0.63578 0.78134 0.0
H1301 H 0.1307 0.67479 0.74242 0.0
H1302 H 0.17935 0.62917 0.73836 0.0
H1303 H 0.13947 0.68041 0.78545 0.0
H1304 H 0.07261 0.69561 0.72783 0.0
H1305 H 0.05763 0.63401 0.70234 0.0
H1306 H 0.23479 0.70182 0.69076 0.0
H1307 H 0.1911 0.72227 0.74503 0.0
H1308 H 0.14521 0.59281 0.65262 0.0
H1309 H 0.1018 0.64244 0.64029 0.0
H1310 H 0.13089 0.57452 0.61697 0.0
H1311 H 0.08835 0.6234 0.60471 0.0
H1312 H 0.2001 0.62397 0.63471 0.0
H1313 H 0.20119 0.64248 0.70921 0.0
H1314 H 0.23456 0.60749 0.64028 0.0
H1315 H 0.23553 0.62552 0.7136 0.0
H1316 H 0.14278 0.68021 0.57062 0.0
H1317 H 0.1678 0.61795 0.57258 0.0
H1318 H 0.14646 0.56997 0.74567 0.0
H1319 H 0.18893 0.55623 0.68742 0.0
Li1320 Li 0.3447 0.12552 0.69819 0.0
Li1321 Li 0.33642 0.16158 0.69593 0.0
Li1322 Li 0.35209 0.14312 0.65985 0.0
Li1323 Li 0.37213 0.15113 0.69781 0.0
C1324 C 0.30944 0.12436 0.67229 0.0
N1325 N 0.27873 0.09499 0.66554 0.0
C1326 C 0.29573 0.11956 0.69102 0.0
C1327 C 0.30748 0.11429 0.65009 0.0
C1328 C 0.28034 0.10463 0.68727 0.0
C1329 C 0.29186 0.09948 0.64704 0.0
C1330 C 0.34047 0.15592 0.74153 0.0
C1331 C 0.33474 0.1852 0.76781 0.0
N1332 N 0.31883 0.17483 0.77854 0.0
C1333 C 0.32402 0.14559 0.7528 0.0
C1334 C 0.34587 0.1759 0.7491 0.0
C1335 C 0.31331 0.15539 0.7715 0.0
C1336 C 0.34446 0.09594 0.73541 0.0
N1337 N 0.33851 0.09864 0.71208 0.0
C1338 C 0.32803 0.06302 0.70967 0.0
C1339 C 0.33063 0.08256 0.69907 0.0
C1340 C 0.33385 0.05988 0.73383 0.0
C1341 C 0.34215 0.07671 0.74671 0.0
H1342 H 0.35154 0.10864 0.74512 0.0
H1343 H 0.32686 0.08467 0.68026 0.0
C1344 C 0.3221 0.20321 0.70012 0.0
N1345 N 0.31699 0.18306 0.70443 0.0
C1346 C 0.30873 0.21921 0.70708 0.0
C1347 C 0.28491 0.19347 0.72251 0.0
C1348 C 0.29865 0.17798 0.71507 0.0
C1349 C 0.28992 0.21443 0.71864 0.0
H1350 H 0.33665 0.20689 0.69144 0.0
H1351 H 0.29479 0.1619 0.71812 0.0
C1352 C 0.37795 0.10564 0.6824 0.0
N1353 N 0.39097 0.06553 0.69138 0.0
C1354 C 0.38995 0.10126 0.70277 0.0
C1355 C 0.37262 0.08966 0.66654 0.0
C1356 C 0.39637 0.08087 0.707 0.0
C1357 C 0.37935 0.06947 0.67141 0.0
C1358 C 0.37597 0.18359 0.67036 0.0
C1359 C 0.38794 0.18137 0.6495 0.0
C1360 C 0.38157 0.19839 0.6876 0.0
C1361 C 0.4054 0.19395 0.64629 0.0
C1362 C 0.39916 0.21063 0.68375 0.0
N1363 N 0.41061 0.20818 0.66335 0.0
C1364 C 0.34023 0.15398 0.61248 0.0
C1365 C 0.36761 0.1295 0.61457 0.0
C1366 C 0.34126 0.15412 0.58729 0.0
N1367 N 0.35331 0.14181 0.62552 0.0
C1368 C 0.3691 0.12906 0.58943 0.0
C1369 C 0.3559 0.14158 0.57536 0.0
H1370 H 0.32917 0.16379 0.62171 0.0
H1371 H 0.37804 0.12022 0.62537 0.0
C1372 C 0.40254 0.16314 0.73239 0.0
N1373 N 0.39953 0.1569 0.70925 0.0
C1374 C 0.4226 0.16625 0.74121 0.0
C1375 C 0.43617 0.15621 0.7023 0.0
C1376 C 0.41582 0.15344 0.69418 0.0
C1377 C 0.43976 0.16258 0.72617 0.0
H1378 H 0.3894 0.16525 0.7442 0.0
H1379 H 0.41298 0.14821 0.67595 0.0
O1380 O 0.32452 0.13904 0.67549 0.0
O1381 O 0.35094 0.14673 0.72288 0.0
O1382 O 0.37098 0.12539 0.67836 0.0
O1383 O 0.35912 0.17107 0.67411 0.0
H1384 H 0.29718 0.12697 0.70841 0.0
H1385 H 0.31795 0.11781 0.63539 0.0
H1386 H 0.26972 0.10065 0.70166 0.0
H1387 H 0.29019 0.09153 0.62997 0.0
H1388 H 0.33868 0.20071 0.77372 0.0
H1389 H 0.31931 0.1303 0.74695 0.0
H1390 H 0.35827 0.18433 0.74033 0.0
H1391 H 0.3005 0.14759 0.7803 0.0
H1392 H 0.32163 0.05049 0.69901 0.0
H1393 H 0.34739 0.07492 0.76515 0.0
H1394 H 0.31325 0.23516 0.70384 0.0
H1395 H 0.27044 0.18908 0.73105 0.0
H1396 H 0.39403 0.11342 0.71535 0.0
H1397 H 0.36305 0.09273 0.6509 0.0
H1398 H 0.40557 0.07722 0.72277 0.0
H1399 H 0.37523 0.05691 0.6594 0.0
H1400 H 0.38392 0.16996 0.63601 0.0
H1401 H 0.3726 0.20021 0.70395 0.0
H1402 H 0.41485 0.19234 0.63027 0.0
H1403 H 0.40374 0.22204 0.69702 0.0
H1404 H 0.331 0.1643 0.57732 0.0
H1405 H 0.38046 0.11896 0.58112 0.0
H1406 H 0.42468 0.1708 0.75985 0.0
H1407 H 0.44895 0.15331 0.69008 0.0
H1408 H 0.28381 0.25328 0.28218 0.0
H1409 H 0.25416 0.19998 0.25002 0.0
H1410 H 0.22741 0.22232 0.23278 0.0
H1411 H 0.21236 0.25702 0.22679 0.0
H1412 H 0.24308 0.31042 0.25736 0.0
H1413 H 0.26944 0.288 0.27513 0.0
C1414 C 0.27166 0.24653 0.27118 0.0
C1415 C 0.27106 0.22491 0.26752 0.0
C1416 C 0.25643 0.2595 0.26104 0.0
C1417 C 0.2549 0.21649 0.25352 0.0
C1418 C 0.23964 0.22929 0.24349 0.0
C1419 C 0.22493 0.2638 0.23711 0.0
C1420 C 0.22558 0.28543 0.24077 0.0
C1421 C 0.24024 0.25082 0.24712 0.0
C1422 C 0.2419 0.29384 0.25455 0.0
C1423 C 0.2571 0.28103 0.26461 0.0
H1424 H 0.78962 0.25704 0.25987 0.0
H1425 H 0.74371 0.30052 0.28538 0.0
H1426 H 0.71594 0.2779 0.2709 0.0
H1427 H 0.70466 0.24586 0.25065 0.0
H1428 H 0.75059 0.20245 0.22504 0.0
H1429 H 0.77834 0.22488 0.23993 0.0
C1430 C 0.77353 0.26146 0.26245 0.0
C1431 C 0.76876 0.28044 0.2737 0.0
C1432 C 0.75763 0.24841 0.25401 0.0
C1433 C 0.74783 0.28611 0.27655 0.0
C1434 C 0.73193 0.27313 0.26838 0.0
C1435 C 0.72074 0.24123 0.24852 0.0
C1436 C 0.72553 0.2225 0.23673 0.0
C1437 C 0.73664 0.25426 0.25704 0.0
C1438 C 0.74647 0.21689 0.23381 0.0
C1439 C 0.76235 0.22966 0.24241 0.0
H1440 H 0.79442 0.7469 0.23866 0.0
H1441 H 0.74772 0.69897 0.23373 0.0
H1442 H 0.72205 0.72236 0.25099 0.0
H1443 H 0.7127 0.75631 0.2675 0.0
H1444 H 0.75858 0.80517 0.26958 0.0
H1445 H 0.78462 0.78147 0.25351 0.0
C1446 C 0.77858 0.7416 0.24105 0.0
C1447 C 0.77317 0.72106 0.23498 0.0
C1448 C 0.76369 0.75528 0.25061 0.0
C1449 C 0.75256 0.7145 0.23865 0.0
C1450 C 0.73776 0.72793 0.24837 0.0
C1451 C 0.7283 0.76194 0.26416 0.0
C1452 C 0.73355 0.78259 0.26987 0.0
C1453 C 0.74315 0.74835 0.25442 0.0
C1454 C 0.75406 0.78931 0.26582 0.0
C1455 C 0.76898 0.7758 0.25642 0.0
H1456 H 0.2557 0.78687 0.21729 0.0
H1457 H 0.30079 0.77068 0.2718 0.0
H1458 H 0.27663 0.74571 0.28916 0.0
H1459 H 0.24281 0.72795 0.28867 0.0
H1460 H 0.19851 0.74269 0.23296 0.0
H1461 H 0.22238 0.76838 0.21602 0.0
C1462 C 0.2604 0.77773 0.23279 0.0
C1463 C 0.28007 0.78089 0.24325 0.0
C1464 C 0.24655 0.76304 0.24247 0.0
C1465 C 0.28563 0.76901 0.26359 0.0
C1466 C 0.27187 0.75456 0.27347 0.0
C1467 C 0.23837 0.7369 0.27292 0.0
C1468 C 0.21892 0.73348 0.26212 0.0
C1469 C 0.25227 0.75146 0.2631 0.0
C1470 C 0.21346 0.74496 0.2415 0.0
C1471 C 0.22708 0.75969 0.23185 0.0
H1472 H 0.72962 0.75812 0.71018 0.0
H1473 H 0.72288 0.78807 0.77928 0.0
H1474 H 0.74804 0.7641 0.79695 0.0
H1475 H 0.77267 0.73522 0.79254 0.0
H1476 H 0.77881 0.70482 0.72356 0.0
H1477 H 0.75359 0.72866 0.70603 0.0
C1478 C 0.73375 0.75947 0.72907 0.0
C1479 C 0.72439 0.77489 0.74336 0.0
C1480 C 0.74826 0.74565 0.73913 0.0
C1481 C 0.72968 0.77621 0.76792 0.0
C1482 C 0.74416 0.76258 0.77801 0.0
C1483 C 0.76833 0.73362 0.77374 0.0
C1484 C 0.77781 0.71826 0.75942 0.0
C1485 C 0.75359 0.74726 0.76378 0.0
C1486 C 0.77213 0.7167 0.73497 0.0
C1487 C 0.75756 0.73025 0.72493 0.0
H1488 H 0.22308 0.726 0.7658 0.0
H1489 H 0.24214 0.73768 0.69235 0.0
H1490 H 0.26784 0.76264 0.70643 0.0
H1491 H 0.28511 0.78108 0.73952 0.0
H1492 H 0.26456 0.77104 0.81274 0.0
H1493 H 0.23929 0.74561 0.79873 0.0
C1494 C 0.23265 0.73417 0.7528 0.0
C1495 C 0.23065 0.72977 0.72802 0.0
C1496 C 0.24724 0.7488 0.76097 0.0
C1497 C 0.24351 0.74036 0.71156 0.0
C1498 C 0.25815 0.75479 0.71958 0.0
C1499 C 0.27495 0.77356 0.75243 0.0
C1500 C 0.27692 0.778 0.77721 0.0
C1501 C 0.26018 0.75913 0.74424 0.0
C1502 C 0.26376 0.76774 0.79362 0.0
C1503 C 0.24915 0.75326 0.78561 0.0
H1504 H 0.23125 0.29155 0.73733 0.0
H1505 H 0.22241 0.25951 0.80493 0.0
H1506 H 0.24626 0.23224 0.79203 0.0
H1507 H 0.26948 0.21731 0.76146 0.0
H1508 H 0.27833 0.24924 0.69381 0.0
H1509 H 0.25467 0.2767 0.70681 0.0
C1510 C 0.23445 0.27853 0.74917 0.0
C1511 C 0.22504 0.27759 0.77206 0.0
C1512 C 0.24821 0.26288 0.74164 0.0
C1513 C 0.22961 0.26076 0.78733 0.0
C1514 C 0.24316 0.24508 0.77992 0.0
C1515 C 0.2661 0.2302 0.74949 0.0
C1516 C 0.27561 0.23117 0.72667 0.0
C1517 C 0.25252 0.24596 0.7571 0.0
C1518 C 0.27136 0.24819 0.71155 0.0
C1519 C 0.25776 0.26385 0.71892 0.0
H1520 H 0.7383 0.2061 0.74865 0.0
H1521 H 0.70073 0.25268 0.78347 0.0
H1522 H 0.72427 0.27983 0.76939 0.0
H1523 H 0.75553 0.29038 0.74727 0.0
H1524 H 0.79372 0.24372 0.71337 0.0
H1525 H 0.76968 0.2167 0.72649 0.0
C1526 C 0.73518 0.22222 0.75296 0.0
C1527 C 0.7178 0.22734 0.76714 0.0
C1528 C 0.74884 0.23777 0.74488 0.0
C1529 C 0.71412 0.24828 0.77283 0.0
C1530 C 0.72753 0.26383 0.7647 0.0
C1531 C 0.75874 0.27429 0.74292 0.0
C1532 C 0.77646 0.26917 0.7293 0.0
C1533 C 0.745 0.25875 0.75082 0.0
C1534 C 0.78008 0.24822 0.7235 0.0
C1535 C 0.7664 0.2327 0.73115 0.0
H1536 H 0.17307 0.36702 0.96267 0.0
H1537 H 0.11219 0.33959 0.9568 0.0
H1538 H 0.10947 0.33803 1.0007 0.0
H1539 H 0.12422 0.34472 0.04082 0.0
H1540 H 0.18499 0.3724 0.04678 0.0
H1541 H 0.18794 0.37352 0.00286 0.0
C1542 C 0.15916 0.36083 0.97101 0.0
C1543 C 0.14286 0.35345 0.95643 0.0
C1544 C 0.15769 0.35996 0.9963 0.0
C1545 C 0.12506 0.34517 0.96756 0.0
C1546 C 0.12345 0.34436 0.99267 0.0
C1547 C 0.13806 0.35112 0.03251 0.0
C1548 C 0.15434 0.3585 0.04711 0.0
C1549 C 0.13964 0.35175 0.00723 0.0
C1550 C 0.17231 0.36641 0.03601 0.0
C1551 C 0.17396 0.36717 0.01088 0.0
H1552 H 0.63367 0.17419 0.96309 0.0
H1553 H 0.67027 0.11829 0.95716 0.0
H1554 H 0.67304 0.11636 1.00094 0.0
H1555 H 0.6646 0.13009 0.04098 0.0
H1556 H 0.62625 0.18479 0.04705 0.0
H1557 H 0.62476 0.18762 0.00323 0.0
C1558 C 0.64211 0.16147 0.97134 0.0
C1559 C 0.65178 0.14645 0.95671 0.0
C1560 C 0.6434 0.16024 0.99662 0.0
C1561 C 0.66294 0.13029 0.96784 0.0
C1562 C 0.66442 0.12907 0.99294 0.0
C1563 C 0.65575 0.14254 0.03277 0.0
C1564 C 0.64557 0.15719 0.04744 0.0
C1565 C 0.65463 0.1439 0.00751 0.0
C1566 C 0.63453 0.17345 0.03634 0.0
C1567 C 0.63351 0.175 0.01122 0.0
H1568 H 0.82974 0.6585 0.95557 0.0
H1569 H 0.8928 0.63627 0.95228 0.0
H1570 H 0.89473 0.63599 0.99629 0.0
H1571 H 0.87843 0.64157 0.03561 0.0
H1572 H 0.81456 0.66166 0.03919 0.0
H1573 H 0.81321 0.66374 0.99529 0.0
C1574 C 0.84393 0.65377 0.96455 0.0
C1575 C 0.8611 0.6474 0.95074 0.0
C1576 C 0.84482 0.65331 0.98992 0.0
C1577 C 0.87933 0.64108 0.96255 0.0
C1578 C 0.88046 0.64096 0.9877 0.0
C1579 C 0.86409 0.64617 0.02687 0.0
C1580 C 0.84662 0.6514 0.0409 0.0
C1581 C 0.86324 0.64686 1.00157 0.0
C1582 C 0.82838 0.65781 0.02904 0.0
C1583 C 0.82753 0.65886 0.00386 0.0
H1584 H 0.33206 0.85896 0.0481 0.0
H1585 H 0.39422 0.83469 0.05318 0.0
H1586 H 0.39644 0.83272 0.00918 0.0
H1587 H 0.38103 0.83859 0.9694 0.0
H1588 H 0.31995 0.86591 0.96413 0.0
H1589 H 0.31682 0.8655 0.00791 0.0
C1590 C 0.34598 0.85308 0.03948 0.0
C1591 C 0.36293 0.84689 0.05374 0.0
C1592 C 0.34733 0.8525 0.01415 0.0
C1593 C 0.38101 0.83956 0.04248 0.0
C1594 C 0.38228 0.83844 0.01736 0.0
C1595 C 0.36709 0.84472 0.97772 0.0
C1596 C 0.35078 0.85227 0.9632 0.0
C1597 C 0.36561 0.84507 0.003 0.0
C1598 C 0.33268 0.85965 0.9746 0.0
C1599 C 0.33091 0.8596 0.99974 0.0
H1600 H 0.12641 0.66331 0.53608 0.0
H1601 H 0.18668 0.63425 0.53923 0.0
H1602 H 0.18829 0.63359 0.49522 0.0
H1603 H 0.17244 0.64101 0.4557 0.0
H1604 H 0.11229 0.67033 0.45273 0.0
H1605 H 0.11085 0.67123 0.49671 0.0
C1606 C 0.13999 0.65702 0.52715 0.0
C1607 C 0.15638 0.64884 0.541 0.0
C1608 C 0.14084 0.6567 0.50182 0.0
C1609 C 0.17372 0.64042 0.52906 0.0
C1610 C 0.17471 0.64014 0.50387 0.0
C1611 C 0.15911 0.64777 0.46469 0.0
C1612 C 0.14248 0.65554 0.4509 0.0
C1613 C 0.15835 0.64821 0.49005 0.0
C1614 C 0.12519 0.664 0.46287 0.0
C1615 C 0.12439 0.66461 0.48804 0.0
H1616 H 0.32466 0.1443 0.54206 0.0
H1617 H 0.39133 0.13973 0.54807 0.0
H1618 H 0.39449 0.14021 0.50427 0.0
H1619 H 0.37848 0.14271 0.46412 0.0
H1620 H 0.31198 0.14844 0.45807 0.0
H1621 H 0.30869 0.14724 0.50196 0.0
C1622 C 0.33991 0.14361 0.53385 0.0
C1623 C 0.3577 0.14189 0.54851 0.0
C1624 C 0.34169 0.14423 0.50857 0.0
C1625 C 0.3773 0.14068 0.53737 0.0
C1626 C 0.37916 0.14112 0.51226 0.0
C1627 C 0.36326 0.14353 0.47241 0.0
C1628 C 0.34551 0.14565 0.45781 0.0
C1629 C 0.36148 0.14291 0.49768 0.0
C1630 C 0.32592 0.14701 0.46887 0.0
C1631 C 0.32401 0.14623 0.49397 0.0
H1632 H 0.84366 0.32735 0.46329 0.0
H1633 H 0.87203 0.38779 0.45785 0.0
H1634 H 0.87278 0.39063 0.50181 0.0
H1635 H 0.86531 0.37602 0.54169 0.0
H1636 H 0.83894 0.31455 0.54726 0.0
H1637 H 0.83703 0.31229 0.50345 0.0
C1638 C 0.84988 0.34117 0.47179 0.0
C1639 C 0.85776 0.35734 0.45739 0.0
C1640 C 0.85053 0.34258 0.49709 0.0
C1641 C 0.86602 0.37507 0.46858 0.0
C1642 C 0.86639 0.37673 0.4937 0.0
C1643 C 0.85938 0.36199 0.53342 0.0
C1644 C 0.85223 0.34553 0.54798 0.0
C1645 C 0.85877 0.36054 0.50814 0.0
C1646 C 0.84422 0.32767 0.53669 0.0
C1647 C 0.84326 0.32626 0.51156 0.0
H1648 H 0.65807 0.87889 0.5453 0.0
H1649 H 0.64805 0.81282 0.5487 0.0
H1650 H 0.64804 0.81092 0.50456 0.0
H1651 H 0.64981 0.82833 0.46511 0.0
H1652 H 0.66242 0.89416 0.46207 0.0
H1653 H 0.66208 0.89589 0.50587 0.0
C1654 C 0.65586 0.8641 0.53631 0.0
C1655 C 0.65291 0.84604 0.55013 0.0
C1656 C 0.65617 0.86311 0.51101 0.0
C1657 C 0.65039 0.82691 0.53837 0.0
C1658 C 0.65032 0.82585 0.51317 0.0
C1659 C 0.65281 0.84302 0.47393 0.0
C1660 C 0.65584 0.86112 0.46004 0.0
C1661 C 0.65312 0.84387 0.49929 0.0
C1662 C 0.65945 0.88003 0.47207 0.0
C1663 C 0.65946 0.88104 0.49722 0.0
H1664 H 0.12855 0.53468 0.27043 0.0
H1665 H 0.19386 0.54514 0.25814 0.0
H1666 H 0.19749 0.50988 0.24242 0.0
H1667 H 0.18195 0.47608 0.23179 0.0
H1668 H 0.11638 0.46639 0.24321 0.0
H1669 H 0.11304 0.50136 0.25946 0.0
C1670 C 0.14356 0.52935 0.26408 0.0
C1671 C 0.16088 0.54261 0.26539 0.0
C1672 C 0.1455 0.50915 0.25491 0.0
C1673 C 0.18029 0.53522 0.25757 0.0
C1674 C 0.18236 0.51509 0.24843 0.0
C1675 C 0.16692 0.48169 0.23768 0.0
C1676 C 0.14948 0.46855 0.23639 0.0
C1677 C 0.16505 0.50193 0.24695 0.0
C1678 C 0.13014 0.47601 0.24436 0.0
C1679 C 0.12817 0.49607 0.25353 0.0
H1680 H 0.53994 0.16375 0.26693 0.0
H1681 H 0.52101 0.19226 0.19999 0.0
H1682 H 0.48543 0.19491 0.21481 0.0
H1683 H 0.45934 0.18767 0.24603 0.0
H1684 H 0.47817 0.15874 0.31275 0.0
H1685 H 0.51419 0.15828 0.29904 0.0
C1686 C 0.52812 0.17089 0.25574 0.0
C1687 C 0.53315 0.17766 0.23231 0.0
C1688 C 0.50764 0.17231 0.26435 0.0
C1689 C 0.51753 0.18662 0.21795 0.0
C1690 C 0.49718 0.18821 0.22644 0.0
C1691 C 0.47133 0.18127 0.25757 0.0
C1692 C 0.46602 0.1732 0.28035 0.0
C1693 C 0.49198 0.1808 0.24945 0.0
C1694 C 0.48182 0.16527 0.29525 0.0
C1695 C 0.50242 0.16485 0.28734 0.0
H1696 H 0.81503 0.53274 0.24193 0.0
H1697 H 0.87813 0.53047 0.21624 0.0
H1698 H 0.88163 0.49486 0.23107 0.0
H1699 H 0.86692 0.46467 0.25153 0.0
H1700 H 0.80479 0.46778 0.28061 0.0
H1701 H 0.80056 0.50249 0.26371 0.0
C1702 C 0.82947 0.52432 0.23953 0.0
C1703 C 0.84631 0.53408 0.22805 0.0
C1704 C 0.83151 0.50401 0.24859 0.0
C1705 C 0.86503 0.52322 0.22517 0.0
C1706 C 0.86701 0.50289 0.23359 0.0
C1707 C 0.85253 0.47297 0.25458 0.0
C1708 C 0.83625 0.46344 0.26748 0.0
C1709 C 0.85041 0.4932 0.24549 0.0
C1710 C 0.81753 0.47443 0.2705 0.0
C1711 C 0.81514 0.49442 0.261 0.0
H1712 H 0.52756 0.85435 0.30137 0.0
H1713 H 0.55222 0.81889 0.24206 0.0
H1714 H 0.51758 0.81671 0.22403 0.0
H1715 H 0.48074 0.82691 0.22394 0.0
H1716 H 0.45606 0.86121 0.28439 0.0
H1717 H 0.4903 0.86209 0.30291 0.0
C1718 C 0.52529 0.84609 0.28453 0.0
C1719 C 0.54238 0.83693 0.27295 0.0
C1720 C 0.50539 0.84489 0.27435 0.0
C1721 C 0.53925 0.82599 0.25135 0.0
C1722 C 0.51948 0.82485 0.24099 0.0
C1723 C 0.48272 0.83427 0.24136 0.0
C1724 C 0.46578 0.84425 0.2525 0.0
C1725 C 0.50247 0.83448 0.25217 0.0
C1726 C 0.46883 0.85386 0.27502 0.0
C1727 C 0.48841 0.85425 0.28576 0.0
H1728 H 0.82631 0.53667 0.74145 0.0
H1729 H 0.86284 0.51951 0.80358 0.0
H1730 H 0.86238 0.48328 0.79088 0.0
H1731 H 0.85282 0.4567 0.76145 0.0
H1732 H 0.81606 0.47338 0.69935 0.0
H1733 H 0.81542 0.50956 0.71269 0.0
C1734 C 0.83393 0.52495 0.75235 0.0
C1735 C 0.84469 0.53083 0.77336 0.0
C1736 C 0.83368 0.50408 0.74488 0.0
C1737 C 0.85471 0.51547 0.78715 0.0
C1738 C 0.85438 0.49472 0.77995 0.0
C1739 C 0.84437 0.46816 0.75101 0.0
C1740 C 0.83448 0.46228 0.72944 0.0
C1741 C 0.84409 0.48889 0.75875 0.0
C1742 C 0.82399 0.47749 0.7159 0.0
C1743 C 0.82354 0.49817 0.72357 0.0
H1744 H 0.54102 0.82494 0.76225 0.0
H1745 H 0.52581 0.8637 0.70123 0.0
H1746 H 0.48963 0.865 0.71418 0.0
H1747 H 0.46249 0.85616 0.74355 0.0
H1748 H 0.47762 0.81781 0.80489 0.0
H1749 H 0.51357 0.81526 0.79108 0.0
C1750 C 0.52979 0.83372 0.75183 0.0
C1751 C 0.53616 0.84423 0.73082 0.0
C1752 C 0.50898 0.83448 0.75944 0.0
C1753 C 0.52132 0.85527 0.71732 0.0
C1754 C 0.50063 0.85614 0.7248 0.0
C1755 C 0.47367 0.84729 0.75393 0.0
C1756 C 0.46739 0.83728 0.77528 0.0
C1757 C 0.49432 0.84596 0.74593 0.0
C1758 C 0.482 0.82553 0.78829 0.0
C1759 C 0.50259 0.82417 0.78048 0.0
H1760 H 0.16753 0.46333 0.73707 0.0
H1761 H 0.16937 0.48437 0.81089 0.0
H1762 H 0.1713 0.52036 0.79719 0.0
H1763 H 0.17095 0.54599 0.76426 0.0
H1764 H 0.168 0.52489 0.6905 0.0
H1765 H 0.16811 0.48888 0.70416 0.0
C1766 C 0.16829 0.4758 0.75017 0.0
C1767 C 0.16821 0.47111 0.77498 0.0
C1768 C 0.16919 0.49648 0.74218 0.0
C1769 C 0.16961 0.48747 0.79169 0.0
C1770 C 0.17057 0.50809 0.78387 0.0
C1771 C 0.17028 0.53352 0.75117 0.0
C1772 C 0.16942 0.5382 0.72638 0.0
C1773 C 0.17013 0.51279 0.75917 0.0
C1774 C 0.16892 0.5218 0.70967 0.0
C1775 C 0.16882 0.50117 0.71747 0.0
H1776 H 0.47185 0.1358 0.71976 0.0
H1777 H 0.45574 0.19351 0.75437 0.0
H1778 H 0.49052 0.19568 0.7719 0.0
H1779 H 0.52519 0.1805 0.77849 0.0
H1780 H 0.54093 0.12256 0.74415 0.0
H1781 H 0.50669 0.12121 0.72533 0.0
C1782 C 0.47604 0.149 0.73086 0.0
C1783 C 0.46123 0.16448 0.73573 0.0
C1784 C 0.49598 0.15005 0.74104 0.0
C1785 C 0.4668 0.1813 0.75052 0.0
C1786 C 0.4867 0.18258 0.76048 0.0
C1787 C 0.52117 0.16771 0.76668 0.0
C1788 C 0.53554 0.1516 0.76284 0.0
C1789 C 0.50137 0.16695 0.75604 0.0
C1790 C 0.53004 0.135 0.74768 0.0
C1791 C 0.5105 0.13426 0.73683 0.0
H1792 H 0.6665 0.04038 0.73988 0.0
H1793 H 0.67003 0.01992 0.8139 0.0
H1794 H 0.67231 0.98388 0.80066 0.0
H1795 H 0.67162 0.95803 0.76821 0.0
H1796 H 0.6676 0.9783 0.69418 0.0
H1797 H 0.66772 0.01451 0.70723 0.0
C1798 C 0.66812 0.02806 0.75309 0.0
C1799 C 0.66793 0.03285 0.77786 0.0
C1800 C 0.66932 0.00731 0.74536 0.0
C1801 C 0.66982 0.01665 0.79474 0.0
C1802 C 0.67118 0.99603 0.78719 0.0
C1803 C 0.67076 0.97038 0.75493 0.0
C1804 C 0.6695 0.96544 0.73027 0.0
C1805 C 0.67059 0.99116 0.76257 0.0
C1806 C 0.66877 0.98164 0.71327 0.0
C1807 C 0.6687 0.00237 0.72073 0.0
H1808 H 0.97062 0.68424 0.75186 0.0
H1809 H 0.97677 0.62167 0.77885 0.0
H1810 H 0.01219 0.61999 0.76359 0.0
H1811 H 0.04122 0.63587 0.74196 0.0
H1812 H 0.03563 0.69837 0.7148 0.0
H1813 H 1.00041 0.70066 0.7312 0.0
C1814 C 0.9798 0.67033 0.75462 0.0
C1815 C 0.97092 0.65302 0.76626 0.0
C1816 C 1.00028 0.66945 0.74579 0.0
C1817 C 0.98303 0.63507 0.76955 0.0
C1818 C 0.00335 0.63412 0.76093 0.0
C1819 C 0.03226 0.64995 0.73947 0.0
C1820 C 0.04099 0.66685 0.72698 0.0
C1821 C 0.01204 0.65111 0.74881 0.0
C1822 C 0.02932 0.68516 0.72443 0.0
C1823 C 0.00914 0.68644 0.7337 0.0
H1824 H 0.34251 0.02206 0.71411 0.0
H1825 H 0.32116 0.05094 0.77978 0.0
H1826 H 0.32018 0.01716 0.79975 0.0
H1827 H 0.32626 0.9795 0.79894 0.0
H1828 H 0.34783 0.95072 0.73332 0.0
H1829 H 0.34722 0.98424 0.71283 0.0
C1830 C 0.33732 0.02095 0.73268 0.0
C1831 C 0.33202 0.03908 0.74542 0.0
C1832 C 0.33676 1.00145 0.74407 0.0
C1833 C 0.32564 0.03731 0.76961 0.0
C1834 C 0.32498 0.01798 0.78103 0.0
C1835 C 0.33087 0.98056 0.78017 0.0
C1836 C 0.3371 0.96256 0.76775 0.0
C1837 C 0.33072 0.99997 0.76853 0.0
C1838 C 0.3427 0.96422 0.74329 0.0
C1839 C 0.34252 0.98344 0.73158 0.0
H1840 H 0.02176 0.34198 0.79805 0.0
H1841 H 0.05097 0.33586 0.72841 0.0
H1842 H 0.01697 0.33324 0.70916 0.0
H1843 H 0.97888 0.3346 0.71186 0.0
H1844 H 0.94973 0.34063 0.78159 0.0
H1845 H 0.98372 0.34174 0.80094 0.0
C1846 C 0.02068 0.34012 0.77865 0.0
C1847 C 0.0389 0.33919 0.7647 0.0
C1848 C 1.00107 0.33878 0.76767 0.0
C1849 C 0.03722 0.33642 0.73962 0.0
C1850 C 0.01776 0.33506 0.72857 0.0
C1851 C 0.97994 0.33584 0.73132 0.0
C1852 C 0.96173 0.33768 0.74519 0.0
C1853 C 0.99957 0.33641 0.74239 0.0
C1854 C 0.96346 0.33954 0.77039 0.0
C1855 C 0.98291 0.34008 0.78151 0.0
H1856 H 0.32186 0.0317 0.27822 0.0
H1857 H 0.37668 0.05161 0.23997 0.0
H1858 H 0.38004 0.01732 0.22172 0.0
H1859 H 0.36785 0.98149 0.21713 0.0
H1860 H 0.31295 0.96131 0.25495 0.0
H1861 H 0.30906 0.99586 0.27271 0.0
C1862 C 0.33454 0.02847 0.26593 0.0
C1863 C 0.34898 0.04418 0.26044 0.0
C1864 C 0.33634 0.00869 0.25538 0.0
C1865 C 0.36523 0.03986 0.24428 0.0
C1866 C 0.36723 0.02023 0.23392 0.0
C1867 C 0.35507 0.98466 0.22932 0.0
C1868 C 0.34077 0.96886 0.2348 0.0
C1869 C 0.35294 0.00452 0.23941 0.0
C1870 C 0.32407 0.97327 0.2503 0.0
C1871 C 0.32192 0.99298 0.26057 0.0
H1872 H 0.96019 0.35814 0.24563 0.0
H1873 H 0.97013 0.30067 0.28389 0.0
H1874 H 0.00587 0.2993 0.26895 0.0
H1875 H 0.03474 0.31524 0.24604 0.0
H1876 H 0.02436 0.37297 0.20843 0.0
H1877 H 0.98831 0.37331 0.22185 0.0
C1878 C 0.97005 0.34513 0.2504 0.0
C1879 C 0.96246 0.3295 0.26578 0.0
C1880 C 0.99055 0.34453 0.24192 0.0
C1881 C 0.97563 0.31299 0.27221 0.0
C1882 C 0.99604 0.31216 0.26361 0.0
C1883 C 0.02448 0.32774 0.24059 0.0
C1884 C 0.03224 0.34411 0.22638 0.0
C1885 C 0.00374 0.32796 0.24861 0.0
C1886 C 0.01883 0.36033 0.21962 0.0
C1887 C 0.9982 0.36051 0.22722 0.0
H1888 H 0.64405 0.96462 0.24752 0.0
H1889 H 0.69204 0.98009 0.29867 0.0
H1890 H 0.69187 0.01609 0.28448 0.0
H1891 H 0.67749 0.04335 0.25796 0.0
H1892 H 0.62936 0.02747 0.20711 0.0
H1893 H 0.63028 0.99143 0.22065 0.0
C1894 C 0.65468 0.97579 0.25535 0.0
C1895 C 0.6681 0.96965 0.27405 0.0
C1896 C 0.65441 0.99642 0.24721 0.0
C1897 C 0.68145 0.98445 0.28436 0.0
C1898 C 0.68141 0.00501 0.2762 0.0
C1899 C 0.66735 0.03193 0.24972 0.0
C1900 C 0.65331 0.0381 0.23163 0.0
C1901 C 0.66788 0.0112 0.2577 0.0
C1902 C 0.64011 0.02319 0.22129 0.0
C1903 C 0.64068 0.00256 0.22894 0.0
H1904 H 0.03762 0.64758 0.23534 0.0
H1905 H 0.0236 0.69378 0.28918 0.0
H1906 H 0.98816 0.69663 0.27377 0.0
H1907 H 0.96072 0.68492 0.24603 0.0
H1908 H 0.97468 0.63787 0.19309 0.0
H1909 H 0.01055 0.63655 0.20703 0.0
C1910 C 0.02679 0.65821 0.24378 0.0
C1911 C 0.03323 0.67034 0.26349 0.0
C1912 C 0.00641 0.65965 0.23495 0.0
C1913 C 0.01911 0.68436 0.27388 0.0
C1914 C 0.9988 0.68591 0.26516 0.0
C1915 C 0.97161 0.67435 0.23757 0.0
C1916 C 0.96495 0.66151 0.21854 0.0
C1917 C 0.99221 0.67347 0.24587 0.0
C1918 C 0.97938 0.64814 0.20754 0.0
C1919 C 0.99989 0.64724 0.21563 0.0
loop_
_geom_bond_atom_site_label_1
_geom_bond_atom_site_label_2
_geom_bond_distance
_geom_bond_site_symmetry_2
_ccdc_geom_bond_type
Li0 N17 1.990 . S
Li0 O60 1.956 . S
Li0 O61 1.970 . S
Li0 O62 1.961 . S
Li1 N25 1.990 . S
Li1 O60 1.970 . S
Li1 O61 1.956 . S
Li1 O63 1.961 . S
Li2 N47 1.990 . S
Li2 O60 1.961 . S
Li2 O62 1.956 . S
Li2 O63 1.970 . S
Li3 N53 1.990 . S
Li3 O61 1.961 . S
Li3 O62 1.970 . S
Li3 O63 1.956 . S
C4 C6 1.348 . S
C4 C7 1.356 . S
C4 O60 1.325 . S
N5 C8 1.314 . S
N5 C9 1.279 . S
C6 C4 1.348 . S
C6 C8 1.353 . S
C6 H64 0.929 . S
C7 C4 1.356 . S
C7 C9 1.358 . S
C7 H65 0.930 . S
C8 N5 1.314 . S
C8 C6 1.353 . S
C8 H66 0.930 . S
C9 N5 1.279 . S
C9 C7 1.358 . S
C9 H67 0.930 . S
C10 C13 1.348 . S
C10 C14 1.356 . S
C10 O61 1.325 . S
C11 N12 1.279 . S
C11 C14 1.358 . S
C11 H68 0.930 . S
N12 C11 1.279 . S
N12 C15 1.314 . S
C13 C10 1.348 . S
C13 C15 1.353 . S
C13 H69 0.929 . S
C14 C10 1.356 . S
C14 C11 1.358 . S
C14 H70 0.930 . S
C15 N12 1.314 . S
C15 C13 1.353 . S
C15 H71 0.930 . S
C16 N17 1.314 . S
C16 C21 1.353 . S
C16 H22 0.930 . S
N17 Li0 1.990 . S
N17 C16 1.314 . S
N17 C19 1.279 . S
C18 C19 1.358 . S
C18 C20 1.356 . S
C18 H72 0.930 . S
C19 N17 1.279 . S
C19 C18 1.358 . S
C19 H23 0.930 . S
C20 C18 1.356 . S
C20 C21 1.348 . S
C21 C16 1.353 . S
C21 C20 1.348 . S
C21 H73 0.929 . S
H22 C16 0.930 . S
H23 C19 0.930 . S
C24 N25 1.314 . S
C24 C26 1.353 . S
C24 H30 0.930 . S
N25 Li1 1.990 . S
N25 C24 1.314 . S
N25 C28 1.279 . S
C26 C24 1.353 . S
C26 C29 1.348 . S
C26 H74 0.929 . S
C27 C28 1.358 . S
C27 C29 1.356 . S
C27 H75 0.930 . S
C28 N25 1.279 . S
C28 C27 1.358 . S
C28 H31 0.930 . S
C29 C26 1.348 . S
C29 C27 1.356 . S
H30 C24 0.930 . S
H31 C28 0.930 . S
C32 C34 1.348 . S
C32 C35 1.356 . S
C32 O62 1.325 . S
N33 C36 1.314 . S
N33 C37 1.279 . S
C34 C32 1.348 . S
C34 C36 1.353 . S
C34 H76 0.929 . S
C35 C32 1.356 . S
C35 C37 1.358 . S
C35 H77 0.930 . S
C36 N33 1.314 . S
C36 C34 1.353 . S
C36 H78 0.930 . S
C37 N33 1.279 . S
C37 C35 1.358 . S
C37 H79 0.930 . S
C38 C39 1.348 . S
C38 C40 1.356 . S
C38 O63 1.325 . S
C39 C38 1.348 . S
C39 C41 1.353 . S
C39 H80 0.929 . S
C40 C38 1.356 . S
C40 C42 1.358 . S
C40 H81 0.930 . S
C41 C39 1.353 . S
C41 N43 1.314 . S
C41 H82 0.930 . S
C42 C40 1.358 . S
C42 N43 1.279 . S
C42 H83 0.930 . S
N43 C41 1.314 . S
N43 C42 1.279 . S
C44 C46 1.353 . S
C44 N47 1.314 . S
C44 H50 0.930 . S
C45 N47 1.279 . S
C45 C48 1.358 . S
C45 H51 0.930 . S
C46 C44 1.353 . S
C46 C49 1.348 . S
C46 H84 0.929 . S
N47 Li2 1.990 . S
N47 C44 1.314 . S
N47 C45 1.279 . S
C48 C45 1.358 . S
C48 C49 1.356 . S
C48 H85 0.930 . S
C49 C46 1.348 . S
C49 C48 1.356 . S
H50 C44 0.930 . S
H51 C45 0.930 . S
C52 N53 1.314 . S
C52 C54 1.353 . S
C52 H58 0.930 . S
N53 Li3 1.990 . S
N53 C52 1.314 . S
N53 C56 1.279 . S
C54 C52 1.353 . S
C54 C57 1.348 . S
C54 H86 0.929 . S
C55 C56 1.358 . S
C55 C57 1.356 . S
C55 H87 0.930 . S
C56 N53 1.279 . S
C56 C55 1.358 . S
C56 H59 0.930 . S
C57 C54 1.348 . S
C57 C55 1.356 . S
H58 C52 0.930 . S
H59 C56 0.930 . S
O60 Li0 1.956 . S
O60 Li1 1.970 . S
O60 Li2 1.961 . S
O60 C4 1.325 . S
O61 Li0 1.970 . S
O61 Li1 1.956 . S
O61 Li3 1.961 . S
O61 C10 1.325 . S
O62 Li0 1.961 . S
O62 Li2 1.956 . S
O62 Li3 1.970 . S
O62 C32 1.325 . S
O63 Li1 1.961 . S
O63 Li2 1.970 . S
O63 Li3 1.956 . S
O63 C38 1.325 . S
H64 C6 0.929 . S
H65 C7 0.930 . S
H66 C8 0.930 . S
H67 C9 0.930 . S
H68 C11 0.930 . S
H69 C13 0.929 . S
H70 C14 0.930 . S
H71 C15 0.930 . S
H72 C18 0.930 . S
H73 C21 0.929 . S
H74 C26 0.929 . S
H75 C27 0.930 . S
H76 C34 0.929 . S
H77 C35 0.930 . S
H78 C36 0.930 . S
H79 C37 0.930 . S
H80 C39 0.929 . S
H81 C40 0.930 . S
H82 C41 0.930 . S
H83 C42 0.930 . S
H84 C46 0.929 . S
H85 C48 0.930 . S
H86 C54 0.929 . S
H87 C55 0.930 . S
Li88 N105 1.990 . S
Li88 O148 1.956 . S
Li88 O149 1.970 . S
Li88 O150 1.961 . S
Li89 N113 1.990 . S
Li89 O148 1.970 . S
Li89 O149 1.956 . S
Li89 O151 1.961 . S
Li90 N135 1.990 . S
Li90 O148 1.961 . S
Li90 O150 1.956 . S
Li90 O151 1.970 . S
Li91 N141 1.990 . S
Li91 O149 1.961 . S
Li91 O150 1.970 . S
Li91 O151 1.956 . S
C92 C94 1.348 . S
C92 C95 1.356 . S
C92 O148 1.325 . S
N93 C96 1.314 . S
N93 C97 1.279 . S
C94 C92 1.348 . S
C94 C96 1.353 . S
C94 H152 0.929 . S
C95 C92 1.356 . S
C95 C97 1.358 . S
C95 H153 0.930 . S
C96 N93 1.314 . S
C96 C94 1.353 . S
C96 H154 0.930 . S
C97 N93 1.279 . S
C97 C95 1.358 . S
C97 H155 0.930 . S
C98 C101 1.348 . S
C98 C102 1.356 . S
C98 O149 1.325 . S
C99 N100 1.279 . S
C99 C102 1.358 . S
C99 H156 0.930 . S
N100 C99 1.279 . S
N100 C103 1.314 . S
C101 C98 1.348 . S
C101 C103 1.353 . S
C101 H157 0.929 . S
C102 C98 1.356 . S
C102 C99 1.358 . S
C102 H158 0.930 . S
C103 N100 1.314 . S
C103 C101 1.353 . S
C103 H159 0.930 . S
C104 N105 1.314 . S
C104 C109 1.353 . S
C104 H110 0.930 . S
N105 Li88 1.990 . S
N105 C104 1.314 . S
N105 C107 1.279 . S
C106 C107 1.358 . S
C106 C108 1.356 . S
C106 H160 0.930 . S
C107 N105 1.279 . S
C107 C106 1.358 . S
C107 H111 0.930 . S
C108 C106 1.356 . S
C108 C109 1.348 . S
C109 C104 1.353 . S
C109 C108 1.348 . S
C109 H161 0.929 . S
H110 C104 0.930 . S
H111 C107 0.930 . S
C112 N113 1.314 . S
C112 C114 1.353 . S
C112 H118 0.930 . S
N113 Li89 1.990 . S
N113 C112 1.314 . S
N113 C116 1.279 . S
C114 C112 1.353 . S
C114 C117 1.348 . S
C114 H162 0.929 . S
C115 C116 1.358 . S
C115 C117 1.356 . S
C115 H163 0.930 . S
C116 N113 1.279 . S
C116 C115 1.358 . S
C116 H119 0.930 . S
C117 C114 1.348 . S
C117 C115 1.356 . S
H118 C112 0.930 . S
H119 C116 0.930 . S
C120 C122 1.348 . S
C120 C123 1.356 . S
C120 O150 1.325 . S
N121 C124 1.314 . S
N121 C125 1.279 . S
C122 C120 1.348 . S
C122 C124 1.353 . S
C122 H164 0.929 . S
C123 C120 1.356 . S
C123 C125 1.358 . S
C123 H165 0.930 . S
C124 N121 1.314 . S
C124 C122 1.353 . S
C124 H166 0.930 . S
C125 N121 1.279 . S
C125 C123 1.358 . S
C125 H167 0.930 . S
C126 C127 1.348 . S
C126 C128 1.356 . S
C126 O151 1.325 . S
C127 C126 1.348 . S
C127 C129 1.353 . S
C127 H168 0.929 . S
C128 C126 1.356 . S
C128 C130 1.358 . S
C128 H169 0.930 . S
C129 C127 1.353 . S
C129 N131 1.314 . S
C129 H170 0.930 . S
C130 C128 1.358 . S
C130 N131 1.279 . S
C130 H171 0.930 . S
N131 C129 1.314 . S
N131 C130 1.279 . S
C132 C134 1.353 . S
C132 N135 1.314 . S
C132 H138 0.930 . S
C133 N135 1.279 . S
C133 C136 1.358 . S
C133 H139 0.930 . S
C134 C132 1.353 . S
C134 C137 1.348 . S
C134 H172 0.929 . S
N135 Li90 1.990 . S
N135 C132 1.314 . S
N135 C133 1.279 . S
C136 C133 1.358 . S
C136 C137 1.356 . S
C136 H173 0.930 . S
C137 C134 1.348 . S
C137 C136 1.356 . S
H138 C132 0.930 . S
H139 C133 0.930 . S
C140 N141 1.314 . S
C140 C142 1.353 . S
C140 H146 0.930 . S
N141 Li91 1.990 . S
N141 C140 1.314 . S
N141 C144 1.279 . S
C142 C140 1.353 . S
C142 C145 1.348 . S
C142 H174 0.929 . S
C143 C144 1.358 . S
C143 C145 1.356 . S
C143 H175 0.930 . S
C144 N141 1.279 . S
C144 C143 1.358 . S
C144 H147 0.930 . S
C145 C142 1.348 . S
C145 C143 1.356 . S
H146 C140 0.930 . S
H147 C144 0.930 . S
O148 Li88 1.956 . S
O148 Li89 1.970 . S
O148 Li90 1.961 . S
O148 C92 1.325 . S
O149 Li88 1.970 . S
O149 Li89 1.956 . S
O149 Li91 1.961 . S
O149 C98 1.325 . S
O150 Li88 1.961 . S
O150 Li90 1.956 . S
O150 Li91 1.970 . S
O150 C120 1.325 . S
O151 Li89 1.961 . S
O151 Li90 1.970 . S
O151 Li91 1.956 . S
O151 C126 1.325 . S
H152 C94 0.929 . S
H153 C95 0.930 . S
H154 C96 0.930 . S
H155 C97 0.930 . S
H156 C99 0.930 . S
H157 C101 0.929 . S
H158 C102 0.930 . S
H159 C103 0.930 . S
H160 C106 0.930 . S
H161 C109 0.929 . S
H162 C114 0.929 . S
H163 C115 0.930 . S
H164 C122 0.929 . S
H165 C123 0.930 . S
H166 C124 0.930 . S
H167 C125 0.930 . S
H168 C127 0.929 . S
H169 C128 0.930 . S
H170 C129 0.930 . S
H171 C130 0.930 . S
H172 C134 0.929 . S
H173 C136 0.930 . S
H174 C142 0.929 . S
H175 C143 0.930 . S
Li176 N193 1.990 . S
Li176 O236 1.956 . S
Li176 O237 1.970 . S
Li176 O238 1.961 . S
Li177 N201 1.990 . S
Li177 O236 1.970 . S
Li177 O237 1.956 . S
Li177 O239 1.961 . S
Li178 N223 1.990 . S
Li178 O236 1.961 . S
Li178 O238 1.956 . S
Li178 O239 1.970 . S
Li179 N229 1.990 . S
Li179 O237 1.961 . S
Li179 O238 1.970 . S
Li179 O239 1.956 . S
C180 C182 1.348 . S
C180 C183 1.356 . S
C180 O236 1.325 . S
N181 C184 1.314 . S
N181 C185 1.279 . S
C182 C180 1.348 . S
C182 C184 1.353 . S
C182 H240 0.929 . S
C183 C180 1.356 . S
C183 C185 1.358 . S
C183 H241 0.930 . S
C184 N181 1.314 . S
C184 C182 1.353 . S
C184 H242 0.930 . S
C185 N181 1.279 . S
C185 C183 1.358 . S
C185 H243 0.930 . S
C186 C189 1.348 . S
C186 C190 1.356 . S
C186 O237 1.325 . S
C187 N188 1.279 . S
C187 C190 1.358 . S
C187 H244 0.930 . S
N188 C187 1.279 . S
N188 C191 1.314 . S
C189 C186 1.348 . S
C189 C191 1.353 . S
C189 H245 0.929 . S
C190 C186 1.356 . S
C190 C187 1.358 . S
C190 H246 0.930 . S
C191 N188 1.314 . S
C191 C189 1.353 . S
C191 H247 0.930 . S
C192 N193 1.314 . S
C192 C197 1.353 . S
C192 H198 0.930 . S
N193 Li176 1.990 . S
N193 C192 1.314 . S
N193 C195 1.279 . S
C194 C195 1.358 . S
C194 C196 1.356 . S
C194 H248 0.930 . S
C195 N193 1.279 . S
C195 C194 1.358 . S
C195 H199 0.930 . S
C196 C194 1.356 . S
C196 C197 1.348 . S
C197 C192 1.353 . S
C197 C196 1.348 . S
C197 H249 0.929 . S
H198 C192 0.930 . S
H199 C195 0.930 . S
C200 N201 1.314 . S
C200 C202 1.353 . S
C200 H206 0.930 . S
N201 Li177 1.990 . S
N201 C200 1.314 . S
N201 C204 1.279 . S
C202 C200 1.353 . S
C202 C205 1.348 . S
C202 H250 0.929 . S
C203 C204 1.358 . S
C203 C205 1.356 . S
C203 H251 0.930 . S
C204 N201 1.279 . S
C204 C203 1.358 . S
C204 H207 0.930 . S
C205 C202 1.348 . S
C205 C203 1.356 . S
H206 C200 0.930 . S
H207 C204 0.930 . S
C208 C210 1.348 . S
C208 C211 1.356 . S
C208 O238 1.325 . S
N209 C212 1.314 . S
N209 C213 1.279 . S
C210 C208 1.348 . S
C210 C212 1.353 . S
C210 H252 0.929 . S
C211 C208 1.356 . S
C211 C213 1.358 . S
C211 H253 0.930 . S
C212 N209 1.314 . S
C212 C210 1.353 . S
C212 H254 0.930 . S
C213 N209 1.279 . S
C213 C211 1.358 . S
C213 H255 0.930 . S
C214 C215 1.348 . S
C214 C216 1.356 . S
C214 O239 1.325 . S
C215 C214 1.348 . S
C215 C217 1.353 . S
C215 H256 0.929 . S
C216 C214 1.356 . S
C216 C218 1.358 . S
C216 H257 0.930 . S
C217 C215 1.353 . S
C217 N219 1.314 . S
C217 H258 0.930 . S
C218 C216 1.358 . S
C218 N219 1.279 . S
C218 H259 0.930 . S
N219 C217 1.314 . S
N219 C218 1.279 . S
C220 C222 1.353 . S
C220 N223 1.314 . S
C220 H226 0.930 . S
C221 N223 1.279 . S
C221 C224 1.358 . S
C221 H227 0.930 . S
C222 C220 1.353 . S
C222 C225 1.348 . S
C222 H260 0.929 . S
N223 Li178 1.990 . S
N223 C220 1.314 . S
N223 C221 1.279 . S
C224 C221 1.358 . S
C224 C225 1.356 . S
C224 H261 0.930 . S
C225 C222 1.348 . S
C225 C224 1.356 . S
H226 C220 0.930 . S
H227 C221 0.930 . S
C228 N229 1.314 . S
C228 C230 1.353 . S
C228 H234 0.930 . S
N229 Li179 1.990 . S
N229 C228 1.314 . S
N229 C232 1.279 . S
C230 C228 1.353 . S
C230 C233 1.348 . S
C230 H262 0.929 . S
C231 C232 1.358 . S
C231 C233 1.356 . S
C231 H263 0.930 . S
C232 N229 1.279 . S
C232 C231 1.358 . S
C232 H235 0.930 . S
C233 C230 1.348 . S
C233 C231 1.356 . S
H234 C228 0.930 . S
H235 C232 0.930 . S
O236 Li176 1.956 . S
O236 Li177 1.970 . S
O236 Li178 1.961 . S
O236 C180 1.325 . S
O237 Li176 1.970 . S
O237 Li177 1.956 . S
O237 Li179 1.961 . S
O237 C186 1.325 . S
O238 Li176 1.961 . S
O238 Li178 1.956 . S
O238 Li179 1.970 . S
O238 C208 1.325 . S
O239 Li177 1.961 . S
O239 Li178 1.970 . S
O239 Li179 1.956 . S
O239 C214 1.325 . S
H240 C182 0.929 . S
H241 C183 0.930 . S
H242 C184 0.930 . S
H243 C185 0.930 . S
H244 C187 0.930 . S
H245 C189 0.929 . S
H246 C190 0.930 . S
H247 C191 0.930 . S
H248 C194 0.930 . S
H249 C197 0.929 . S
H250 C202 0.929 . S
H251 C203 0.930 . S
H252 C210 0.929 . S
H253 C211 0.930 . S
H254 C212 0.930 . S
H255 C213 0.930 . S
H256 C215 0.929 . S
H257 C216 0.930 . S
H258 C217 0.930 . S
H259 C218 0.930 . S
H260 C222 0.929 . S
H261 C224 0.930 . S
H262 C230 0.929 . S
H263 C231 0.930 . S
Li264 N281 1.990 . S
Li264 O324 1.956 . S
Li264 O325 1.970 . S
Li264 O326 1.961 . S
Li265 N289 1.990 . S
Li265 O324 1.970 . S
Li265 O325 1.956 . S
Li265 O327 1.961 . S
Li266 N311 1.990 . S
Li266 O324 1.961 . S
Li266 O326 1.956 . S
Li266 O327 1.970 . S
Li267 N317 1.990 . S
Li267 O325 1.961 . S
Li267 O326 1.970 . S
Li267 O327 1.956 . S
C268 C270 1.348 . S
C268 C271 1.356 . S
C268 O324 1.325 . S
N269 C272 1.314 . S
N269 C273 1.279 . S
C270 C268 1.348 . S
C270 C272 1.353 . S
C270 H328 0.929 . S
C271 C268 1.356 . S
C271 C273 1.358 . S
C271 H329 0.930 . S
C272 N269 1.314 . S
C272 C270 1.353 . S
C272 H330 0.930 . S
C273 N269 1.279 . S
C273 C271 1.358 . S
C273 H331 0.930 . S
C274 C277 1.348 . S
C274 C278 1.356 . S
C274 O325 1.325 . S
C275 N276 1.279 . S
C275 C278 1.358 . S
C275 H332 0.930 . S
N276 C275 1.279 . S
N276 C279 1.314 . S
C277 C274 1.348 . S
C277 C279 1.353 . S
C277 H333 0.929 . S
C278 C274 1.356 . S
C278 C275 1.358 . S
C278 H334 0.930 . S
C279 N276 1.314 . S
C279 C277 1.353 . S
C279 H335 0.930 . S
C280 N281 1.314 . S
C280 C285 1.353 . S
C280 H286 0.930 . S
N281 Li264 1.990 . S
N281 C280 1.314 . S
N281 C283 1.279 . S
C282 C283 1.358 . S
C282 C284 1.356 . S
C282 H336 0.930 . S
C283 N281 1.279 . S
C283 C282 1.358 . S
C283 H287 0.930 . S
C284 C282 1.356 . S
C284 C285 1.348 . S
C285 C280 1.353 . S
C285 C284 1.348 . S
C285 H337 0.929 . S
H286 C280 0.930 . S
H287 C283 0.930 . S
C288 N289 1.314 . S
C288 C290 1.353 . S
C288 H294 0.930 . S
N289 Li265 1.990 . S
N289 C288 1.314 . S
N289 C292 1.279 . S
C290 C288 1.353 . S
C290 C293 1.348 . S
C290 H338 0.929 . S
C291 C292 1.358 . S
C291 C293 1.356 . S
C291 H339 0.930 . S
C292 N289 1.279 . S
C292 C291 1.358 . S
C292 H295 0.930 . S
C293 C290 1.348 . S
C293 C291 1.356 . S
H294 C288 0.930 . S
H295 C292 0.930 . S
C296 C298 1.348 . S
C296 C299 1.356 . S
C296 O326 1.325 . S
N297 C300 1.314 . S
N297 C301 1.279 . S
C298 C296 1.348 . S
C298 C300 1.353 . S
C298 H340 0.929 . S
C299 C296 1.356 . S
C299 C301 1.358 . S
C299 H341 0.930 . S
C300 N297 1.314 . S
C300 C298 1.353 . S
C300 H342 0.930 . S
C301 N297 1.279 . S
C301 C299 1.358 . S
C301 H343 0.930 . S
C302 C303 1.348 . S
C302 C304 1.356 . S
C302 O327 1.325 . S
C303 C302 1.348 . S
C303 C305 1.353 . S
C303 H344 0.929 . S
C304 C302 1.356 . S
C304 C306 1.358 . S
C304 H345 0.930 . S
C305 C303 1.353 . S
C305 N307 1.314 . S
C305 H346 0.930 . S
C306 C304 1.358 . S
C306 N307 1.279 . S
C306 H347 0.930 . S
N307 C305 1.314 . S
N307 C306 1.279 . S
C308 C310 1.353 . S
C308 N311 1.314 . S
C308 H314 0.930 . S
C309 N311 1.279 . S
C309 C312 1.358 . S
C309 H315 0.930 . S
C310 C308 1.353 . S
C310 C313 1.348 . S
C310 H348 0.929 . S
N311 Li266 1.990 . S
N311 C308 1.314 . S
N311 C309 1.279 . S
C312 C309 1.358 . S
C312 C313 1.356 . S
C312 H349 0.930 . S
C313 C310 1.348 . S
C313 C312 1.356 . S
H314 C308 0.930 . S
H315 C309 0.930 . S
C316 N317 1.314 . S
C316 C318 1.353 . S
C316 H322 0.930 . S
N317 Li267 1.990 . S
N317 C316 1.314 . S
N317 C320 1.279 . S
C318 C316 1.353 . S
C318 C321 1.348 . S
C318 H350 0.929 . S
C319 C320 1.358 . S
C319 C321 1.356 . S
C319 H351 0.930 . S
C320 N317 1.279 . S
C320 C319 1.358 . S
C320 H323 0.930 . S
C321 C318 1.348 . S
C321 C319 1.356 . S
H322 C316 0.930 . S
H323 C320 0.930 . S
O324 Li264 1.956 . S
O324 Li265 1.970 . S
O324 Li266 1.961 . S
O324 C268 1.325 . S
O325 Li264 1.970 . S
O325 Li265 1.956 . S
O325 Li267 1.961 . S
O325 C274 1.325 . S
O326 Li264 1.961 . S
O326 Li266 1.956 . S
O326 Li267 1.970 . S
O326 C296 1.325 . S
O327 Li265 1.961 . S
O327 Li266 1.970 . S
O327 Li267 1.956 . S
O327 C302 1.325 . S
H328 C270 0.929 . S
H329 C271 0.930 . S
H330 C272 0.930 . S
H331 C273 0.930 . S
H332 C275 0.930 . S
H333 C277 0.929 . S
H334 C278 0.930 . S
H335 C279 0.930 . S
H336 C282 0.930 . S
H337 C285 0.929 . S
H338 C290 0.929 . S
H339 C291 0.930 . S
H340 C298 0.929 . S
H341 C299 0.930 . S
H342 C300 0.930 . S
H343 C301 0.930 . S
H344 C303 0.929 . S
H345 C304 0.930 . S
H346 C305 0.930 . S
H347 C306 0.930 . S
H348 C310 0.929 . S
H349 C312 0.930 . S
H350 C318 0.929 . S
H351 C319 0.930 . S
Li352 N369 1.990 . S
Li352 O412 1.956 . S
Li352 O413 1.970 . S
Li352 O414 1.961 . S
Li353 N377 1.990 . S
Li353 O412 1.970 . S
Li353 O413 1.956 . S
Li353 O415 1.961 . S
Li354 N399 1.990 . S
Li354 O412 1.961 . S
Li354 O414 1.956 . S
Li354 O415 1.970 . S
Li355 N405 1.990 . S
Li355 O413 1.961 . S
Li355 O414 1.970 . S
Li355 O415 1.956 . S
C356 C358 1.348 . S
C356 C359 1.356 . S
C356 O412 1.325 . S
N357 C360 1.314 . S
N357 C361 1.279 . S
C358 C356 1.348 . S
C358 C360 1.353 . S
C358 H416 0.929 . S
C359 C356 1.356 . S
C359 C361 1.358 . S
C359 H417 0.930 . S
C360 N357 1.314 . S
C360 C358 1.353 . S
C360 H418 0.930 . S
C361 N357 1.279 . S
C361 C359 1.358 . S
C361 H419 0.930 . S
C362 C365 1.348 . S
C362 C366 1.356 . S
C362 O413 1.325 . S
C363 N364 1.279 . S
C363 C366 1.358 . S
C363 H420 0.930 . S
N364 C363 1.279 . S
N364 C367 1.314 . S
C365 C362 1.348 . S
C365 C367 1.353 . S
C365 H421 0.929 . S
C366 C362 1.356 . S
C366 C363 1.358 . S
C366 H422 0.930 . S
C367 N364 1.314 . S
C367 C365 1.353 . S
C367 H423 0.930 . S
C368 N369 1.314 . S
C368 C373 1.353 . S
C368 H374 0.930 . S
N369 Li352 1.990 . S
N369 C368 1.314 . S
N369 C371 1.279 . S
C370 C371 1.358 . S
C370 C372 1.356 . S
C370 H424 0.930 . S
C371 N369 1.279 . S
C371 C370 1.358 . S
C371 H375 0.930 . S
C372 C370 1.356 . S
C372 C373 1.348 . S
C373 C368 1.353 . S
C373 C372 1.348 . S
C373 H425 0.929 . S
H374 C368 0.930 . S
H375 C371 0.930 . S
C376 N377 1.314 . S
C376 C378 1.353 . S
C376 H382 0.930 . S
N377 Li353 1.990 . S
N377 C376 1.314 . S
N377 C380 1.279 . S
C378 C376 1.353 . S
C378 C381 1.348 . S
C378 H426 0.929 . S
C379 C380 1.358 . S
C379 C381 1.356 . S
C379 H427 0.930 . S
C380 N377 1.279 . S
C380 C379 1.358 . S
C380 H383 0.930 . S
C381 C378 1.348 . S
C381 C379 1.356 . S
H382 C376 0.930 . S
H383 C380 0.930 . S
C384 C386 1.348 . S
C384 C387 1.356 . S
C384 O414 1.325 . S
N385 C388 1.314 . S
N385 C389 1.279 . S
C386 C384 1.348 . S
C386 C388 1.353 . S
C386 H428 0.929 . S
C387 C384 1.356 . S
C387 C389 1.358 . S
C387 H429 0.930 . S
C388 N385 1.314 . S
C388 C386 1.353 . S
C388 H430 0.930 . S
C389 N385 1.279 . S
C389 C387 1.358 . S
C389 H431 0.930 . S
C390 C391 1.348 . S
C390 C392 1.356 . S
C390 O415 1.325 . S
C391 C390 1.348 . S
C391 C393 1.353 . S
C391 H432 0.929 . S
C392 C390 1.356 . S
C392 C394 1.358 . S
C392 H433 0.930 . S
C393 C391 1.353 . S
C393 N395 1.314 . S
C393 H434 0.930 . S
C394 C392 1.358 . S
C394 N395 1.279 . S
C394 H435 0.930 . S
N395 C393 1.314 . S
N395 C394 1.279 . S
C396 C398 1.353 . S
C396 N399 1.314 . S
C396 H402 0.930 . S
C397 N399 1.279 . S
C397 C400 1.358 . S
C397 H403 0.930 . S
C398 C396 1.353 . S
C398 C401 1.348 . S
C398 H436 0.929 . S
N399 Li354 1.990 . S
N399 C396 1.314 . S
N399 C397 1.279 . S
C400 C397 1.358 . S
C400 C401 1.356 . S
C400 H437 0.930 . S
C401 C398 1.348 . S
C401 C400 1.356 . S
H402 C396 0.930 . S
H403 C397 0.930 . S
C404 N405 1.314 . S
C404 C406 1.353 . S
C404 H410 0.930 . S
N405 Li355 1.990 . S
N405 C404 1.314 . S
N405 C408 1.279 . S
C406 C404 1.353 . S
C406 C409 1.348 . S
C406 H438 0.929 . S
C407 C408 1.358 . S
C407 C409 1.356 . S
C407 H439 0.930 . S
C408 N405 1.279 . S
C408 C407 1.358 . S
C408 H411 0.930 . S
C409 C406 1.348 . S
C409 C407 1.356 . S
H410 C404 0.930 . S
H411 C408 0.930 . S
O412 Li352 1.956 . S
O412 Li353 1.970 . S
O412 Li354 1.961 . S
O412 C356 1.325 . S
O413 Li352 1.970 . S
O413 Li353 1.956 . S
O413 Li355 1.961 . S
O413 C362 1.325 . S
O414 Li352 1.961 . S
O414 Li354 1.956 . S
O414 Li355 1.970 . S
O414 C384 1.325 . S
O415 Li353 1.961 . S
O415 Li354 1.970 . S
O415 Li355 1.956 . S
O415 C390 1.325 . S
H416 C358 0.929 . S
H417 C359 0.930 . S
H418 C360 0.930 . S
H419 C361 0.930 . S
H420 C363 0.930 . S
H421 C365 0.929 . S
H422 C366 0.930 . S
H423 C367 0.930 . S
H424 C370 0.930 . S
H425 C373 0.929 . S
H426 C378 0.929 . S
H427 C379 0.930 . S
H428 C386 0.929 . S
H429 C387 0.930 . S
H430 C388 0.930 . S
H431 C389 0.930 . S
H432 C391 0.929 . S
H433 C392 0.930 . S
H434 C393 0.930 . S
H435 C394 0.930 . S
H436 C398 0.929 . S
H437 C400 0.930 . S
H438 C406 0.929 . S
H439 C407 0.930 . S
Li440 N457 1.990 . S
Li440 O500 1.956 . S
Li440 O501 1.970 . S
Li440 O502 1.961 . S
Li441 N465 1.990 . S
Li441 O500 1.970 . S
Li441 O501 1.956 . S
Li441 O503 1.961 . S
Li442 N487 1.990 . S
Li442 O500 1.961 . S
Li442 O502 1.956 . S
Li442 O503 1.970 . S
Li443 N493 1.990 . S
Li443 O501 1.961 . S
Li443 O502 1.970 . S
Li443 O503 1.956 . S
C444 C446 1.348 . S
C444 C447 1.356 . S
C444 O500 1.325 . S
N445 C448 1.314 . S
N445 C449 1.279 . S
C446 C444 1.348 . S
C446 C448 1.353 . S
C446 H504 0.929 . S
C447 C444 1.356 . S
C447 C449 1.358 . S
C447 H505 0.930 . S
C448 N445 1.314 . S
C448 C446 1.353 . S
C448 H506 0.930 . S
C449 N445 1.279 . S
C449 C447 1.358 . S
C449 H507 0.930 . S
C450 C453 1.348 . S
C450 C454 1.356 . S
C450 O501 1.325 . S
C451 N452 1.279 . S
C451 C454 1.358 . S
C451 H508 0.930 . S
N452 C451 1.279 . S
N452 C455 1.314 . S
C453 C450 1.348 . S
C453 C455 1.353 . S
C453 H509 0.929 . S
C454 C450 1.356 . S
C454 C451 1.358 . S
C454 H510 0.930 . S
C455 N452 1.314 . S
C455 C453 1.353 . S
C455 H511 0.930 . S
C456 N457 1.314 . S
C456 C461 1.353 . S
C456 H462 0.930 . S
N457 Li440 1.990 . S
N457 C456 1.314 . S
N457 C459 1.279 . S
C458 C459 1.358 . S
C458 C460 1.356 . S
C458 H512 0.930 . S
C459 N457 1.279 . S
C459 C458 1.358 . S
C459 H463 0.930 . S
C460 C458 1.356 . S
C460 C461 1.348 . S
C461 C456 1.353 . S
C461 C460 1.348 . S
C461 H513 0.929 . S
H462 C456 0.930 . S
H463 C459 0.930 . S
C464 N465 1.314 . S
C464 C466 1.353 . S
C464 H470 0.930 . S
N465 Li441 1.990 . S
N465 C464 1.314 . S
N465 C468 1.279 . S
C466 C464 1.353 . S
C466 C469 1.348 . S
C466 H514 0.929 . S
C467 C468 1.358 . S
C467 C469 1.356 . S
C467 H515 0.930 . S
C468 N465 1.279 . S
C468 C467 1.358 . S
C468 H471 0.930 . S
C469 C466 1.348 . S
C469 C467 1.356 . S
H470 C464 0.930 . S
H471 C468 0.930 . S
C472 C474 1.348 . S
C472 C475 1.356 . S
C472 O502 1.325 . S
N473 C476 1.314 . S
N473 C477 1.279 . S
C474 C472 1.348 . S
C474 C476 1.353 . S
C474 H516 0.929 . S
C475 C472 1.356 . S
C475 C477 1.358 . S
C475 H517 0.930 . S
C476 N473 1.314 . S
C476 C474 1.353 . S
C476 H518 0.930 . S
C477 N473 1.279 . S
C477 C475 1.358 . S
C477 H519 0.930 . S
C478 C479 1.348 . S
C478 C480 1.356 . S
C478 O503 1.325 . S
C479 C478 1.348 . S
C479 C481 1.353 . S
C479 H520 0.929 . S
C480 C478 1.356 . S
C480 C482 1.358 . S
C480 H521 0.930 . S
C481 C479 1.353 . S
C481 N483 1.314 . S
C481 H522 0.930 . S
C482 C480 1.358 . S
C482 N483 1.279 . S
C482 H523 0.930 . S
N483 C481 1.314 . S
N483 C482 1.279 . S
C484 C486 1.353 . S
C484 N487 1.314 . S
C484 H490 0.930 . S
C485 N487 1.279 . S
C485 C488 1.358 . S
C485 H491 0.930 . S
C486 C484 1.353 . S
C486 C489 1.348 . S
C486 H524 0.929 . S
N487 Li442 1.990 . S
N487 C484 1.314 . S
N487 C485 1.279 . S
C488 C485 1.358 . S
C488 C489 1.356 . S
C488 H525 0.930 . S
C489 C486 1.348 . S
C489 C488 1.356 . S
H490 C484 0.930 . S
H491 C485 0.930 . S
C492 N493 1.314 . S
C492 C494 1.353 . S
C492 H498 0.930 . S
N493 Li443 1.990 . S
N493 C492 1.314 . S
N493 C496 1.279 . S
C494 C492 1.353 . S
C494 C497 1.348 . S
C494 H526 0.929 . S
C495 C496 1.358 . S
C495 C497 1.356 . S
C495 H527 0.930 . S
C496 N493 1.279 . S
C496 C495 1.358 . S
C496 H499 0.930 . S
C497 C494 1.348 . S
C497 C495 1.356 . S
H498 C492 0.930 . S
H499 C496 0.930 . S
O500 Li440 1.956 . S
O500 Li441 1.970 . S
O500 Li442 1.961 . S
O500 C444 1.325 . S
O501 Li440 1.970 . S
O501 Li441 1.956 . S
O501 Li443 1.961 . S
O501 C450 1.325 . S
O502 Li440 1.961 . S
O502 Li442 1.956 . S
O502 Li443 1.970 . S
O502 C472 1.325 . S
O503 Li441 1.961 . S
O503 Li442 1.970 . S
O503 Li443 1.956 . S
O503 C478 1.325 . S
H504 C446 0.929 . S
H505 C447 0.930 . S
H506 C448 0.930 . S
H507 C449 0.930 . S
H508 C451 0.930 . S
H509 C453 0.929 . S
H510 C454 0.930 . S
H511 C455 0.930 . S
H512 C458 0.930 . S
H513 C461 0.929 . S
H514 C466 0.929 . S
H515 C467 0.930 . S
H516 C474 0.929 . S
H517 C475 0.930 . S
H518 C476 0.930 . S
H519 C477 0.930 . S
H520 C479 0.929 . S
H521 C480 0.930 . S
H522 C481 0.930 . S
H523 C482 0.930 . S
H524 C486 0.929 . S
H525 C488 0.930 . S
H526 C494 0.929 . S
H527 C495 0.930 . S
Li528 N545 1.990 . S
Li528 O588 1.956 . S
Li528 O589 1.970 . S
Li528 O590 1.961 . S
Li529 N553 1.990 . S
Li529 O588 1.970 . S
Li529 O589 1.956 . S
Li529 O591 1.961 . S
Li530 N575 1.990 . S
Li530 O588 1.961 . S
Li530 O590 1.956 . S
Li530 O591 1.970 . S
Li531 N581 1.990 . S
Li531 O589 1.961 . S
Li531 O590 1.970 . S
Li531 O591 1.956 . S
C532 C534 1.348 . S
C532 C535 1.356 . S
C532 O588 1.325 . S
N533 C536 1.314 . S
N533 C537 1.279 . S
C534 C532 1.348 . S
C534 C536 1.353 . S
C534 H592 0.929 . S
C535 C532 1.356 . S
C535 C537 1.358 . S
C535 H593 0.930 . S
C536 N533 1.314 . S
C536 C534 1.353 . S
C536 H594 0.930 . S
C537 N533 1.279 . S
C537 C535 1.358 . S
C537 H595 0.930 . S
C538 C541 1.348 . S
C538 C542 1.356 . S
C538 O589 1.325 . S
C539 N540 1.279 . S
C539 C542 1.358 . S
C539 H596 0.930 . S
N540 C539 1.279 . S
N540 C543 1.314 . S
C541 C538 1.348 . S
C541 C543 1.353 . S
C541 H597 0.929 . S
C542 C538 1.356 . S
C542 C539 1.358 . S
C542 H598 0.930 . S
C543 N540 1.314 . S
C543 C541 1.353 . S
C543 H599 0.930 . S
C544 N545 1.314 . S
C544 C549 1.353 . S
C544 H550 0.930 . S
N545 Li528 1.990 . S
N545 C544 1.314 . S
N545 C547 1.279 . S
C546 C547 1.358 . S
C546 C548 1.356 . S
C546 H600 0.930 . S
C547 N545 1.279 . S
C547 C546 1.358 . S
C547 H551 0.930 . S
C548 C546 1.356 . S
C548 C549 1.348 . S
C549 C544 1.353 . S
C549 C548 1.348 . S
C549 H601 0.929 . S
H550 C544 0.930 . S
H551 C547 0.930 . S
C552 N553 1.314 . S
C552 C554 1.353 . S
C552 H558 0.930 . S
N553 Li529 1.990 . S
N553 C552 1.314 . S
N553 C556 1.279 . S
C554 C552 1.353 . S
C554 C557 1.348 . S
C554 H602 0.929 . S
C555 C556 1.358 . S
C555 C557 1.356 . S
C555 H603 0.930 . S
C556 N553 1.279 . S
C556 C555 1.358 . S
C556 H559 0.930 . S
C557 C554 1.348 . S
C557 C555 1.356 . S
H558 C552 0.930 . S
H559 C556 0.930 . S
C560 C562 1.348 . S
C560 C563 1.356 . S
C560 O590 1.325 . S
N561 C564 1.314 . S
N561 C565 1.279 . S
C562 C560 1.348 . S
C562 C564 1.353 . S
C562 H604 0.929 . S
C563 C560 1.356 . S
C563 C565 1.358 . S
C563 H605 0.930 . S
C564 N561 1.314 . S
C564 C562 1.353 . S
C564 H606 0.930 . S
C565 N561 1.279 . S
C565 C563 1.358 . S
C565 H607 0.930 . S
C566 C567 1.348 . S
C566 C568 1.356 . S
C566 O591 1.325 . S
C567 C566 1.348 . S
C567 C569 1.353 . S
C567 H608 0.929 . S
C568 C566 1.356 . S
C568 C570 1.358 . S
C568 H609 0.930 . S
C569 C567 1.353 . S
C569 N571 1.314 . S
C569 H610 0.930 . S
C570 C568 1.358 . S
C570 N571 1.279 . S
C570 H611 0.930 . S
N571 C569 1.314 . S
N571 C570 1.279 . S
C572 C574 1.353 . S
C572 N575 1.314 . S
C572 H578 0.930 . S
C573 N575 1.279 . S
C573 C576 1.358 . S
C573 H579 0.930 . S
C574 C572 1.353 . S
C574 C577 1.348 . S
C574 H612 0.929 . S
N575 Li530 1.990 . S
N575 C572 1.314 . S
N575 C573 1.279 . S
C576 C573 1.358 . S
C576 C577 1.356 . S
C576 H613 0.930 . S
C577 C574 1.348 . S
C577 C576 1.356 . S
H578 C572 0.930 . S
H579 C573 0.930 . S
C580 N581 1.314 . S
C580 C582 1.353 . S
C580 H586 0.930 . S
N581 Li531 1.990 . S
N581 C580 1.314 . S
N581 C584 1.279 . S
C582 C580 1.353 . S
C582 C585 1.348 . S
C582 H614 0.929 . S
C583 C584 1.358 . S
C583 C585 1.356 . S
C583 H615 0.930 . S
C584 N581 1.279 . S
C584 C583 1.358 . S
C584 H587 0.930 . S
C585 C582 1.348 . S
C585 C583 1.356 . S
H586 C580 0.930 . S
H587 C584 0.930 . S
O588 Li528 1.956 . S
O588 Li529 1.970 . S
O588 Li530 1.961 . S
O588 C532 1.325 . S
O589 Li528 1.970 . S
O589 Li529 1.956 . S
O589 Li531 1.961 . S
O589 C538 1.325 . S
O590 Li528 1.961 . S
O590 Li530 1.956 . S
O590 Li531 1.970 . S
O590 C560 1.325 . S
O591 Li529 1.961 . S
O591 Li530 1.970 . S
O591 Li531 1.956 . S
O591 C566 1.325 . S
H592 C534 0.929 . S
H593 C535 0.930 . S
H594 C536 0.930 . S
H595 C537 0.930 . S
H596 C539 0.930 . S
H597 C541 0.929 . S
H598 C542 0.930 . S
H599 C543 0.930 . S
H600 C546 0.930 . S
H601 C549 0.929 . S
H602 C554 0.929 . S
H603 C555 0.930 . S
H604 C562 0.929 . S
H605 C563 0.930 . S
H606 C564 0.930 . S
H607 C565 0.930 . S
H608 C567 0.929 . S
H609 C568 0.930 . S
H610 C569 0.930 . S
H611 C570 0.930 . S
H612 C574 0.929 . S
H613 C576 0.930 . S
H614 C582 0.929 . S
H615 C583 0.930 . S
Li616 N633 1.990 . S
Li616 O676 1.956 . S
Li616 O677 1.970 . S
Li616 O678 1.961 . S
Li617 N641 1.990 . S
Li617 O676 1.970 . S
Li617 O677 1.956 . S
Li617 O679 1.961 . S
Li618 N663 1.990 . S
Li618 O676 1.961 . S
Li618 O678 1.956 . S
Li618 O679 1.970 . S
Li619 N669 1.990 . S
Li619 O677 1.961 . S
Li619 O678 1.970 . S
Li619 O679 1.956 . S
C620 C622 1.348 . S
C620 C623 1.356 . S
C620 O676 1.325 . S
N621 C624 1.314 . S
N621 C625 1.279 . S
C622 C620 1.348 . S
C622 C624 1.353 . S
C622 H680 0.929 . S
C623 C620 1.356 . S
C623 C625 1.358 . S
C623 H681 0.930 . S
C624 N621 1.314 . S
C624 C622 1.353 . S
C624 H682 0.930 . S
C625 N621 1.279 . S
C625 C623 1.358 . S
C625 H683 0.930 . S
C626 C629 1.348 . S
C626 C630 1.356 . S
C626 O677 1.325 . S
C627 N628 1.279 . S
C627 C630 1.358 . S
C627 H684 0.930 . S
N628 C627 1.279 . S
N628 C631 1.314 . S
C629 C626 1.348 . S
C629 C631 1.353 . S
C629 H685 0.929 . S
C630 C626 1.356 . S
C630 C627 1.358 . S
C630 H686 0.930 . S
C631 N628 1.314 . S
C631 C629 1.353 . S
C631 H687 0.930 . S
C632 N633 1.314 . S
C632 C637 1.353 . S
C632 H638 0.930 . S
N633 Li616 1.990 . S
N633 C632 1.314 . S
N633 C635 1.279 . S
C634 C635 1.358 . S
C634 C636 1.356 . S
C634 H688 0.930 . S
C635 N633 1.279 . S
C635 C634 1.358 . S
C635 H639 0.930 . S
C636 C634 1.356 . S
C636 C637 1.348 . S
C637 C632 1.353 . S
C637 C636 1.348 . S
C637 H689 0.929 . S
H638 C632 0.930 . S
H639 C635 0.930 . S
C640 N641 1.314 . S
C640 C642 1.353 . S
C640 H646 0.930 . S
N641 Li617 1.990 . S
N641 C640 1.314 . S
N641 C644 1.279 . S
C642 C640 1.353 . S
C642 C645 1.348 . S
C642 H690 0.929 . S
C643 C644 1.358 . S
C643 C645 1.356 . S
C643 H691 0.930 . S
C644 N641 1.279 . S
C644 C643 1.358 . S
C644 H647 0.930 . S
C645 C642 1.348 . S
C645 C643 1.356 . S
H646 C640 0.930 . S
H647 C644 0.930 . S
C648 C650 1.348 . S
C648 C651 1.356 . S
C648 O678 1.325 . S
N649 C652 1.314 . S
N649 C653 1.279 . S
C650 C648 1.348 . S
C650 C652 1.353 . S
C650 H692 0.929 . S
C651 C648 1.356 . S
C651 C653 1.358 . S
C651 H693 0.930 . S
C652 N649 1.314 . S
C652 C650 1.353 . S
C652 H694 0.930 . S
C653 N649 1.279 . S
C653 C651 1.358 . S
C653 H695 0.930 . S
C654 C655 1.348 . S
C654 C656 1.356 . S
C654 O679 1.325 . S
C655 C654 1.348 . S
C655 C657 1.353 . S
C655 H696 0.929 . S
C656 C654 1.356 . S
C656 C658 1.358 . S
C656 H697 0.930 . S
C657 C655 1.353 . S
C657 N659 1.314 . S
C657 H698 0.930 . S
C658 C656 1.358 . S
C658 N659 1.279 . S
C658 H699 0.930 . S
N659 C657 1.314 . S
N659 C658 1.279 . S
C660 C662 1.353 . S
C660 N663 1.314 . S
C660 H666 0.930 . S
C661 N663 1.279 . S
C661 C664 1.358 . S
C661 H667 0.930 . S
C662 C660 1.353 . S
C662 C665 1.348 . S
C662 H700 0.929 . S
N663 Li618 1.990 . S
N663 C660 1.314 . S
N663 C661 1.279 . S
C664 C661 1.358 . S
C664 C665 1.356 . S
C664 H701 0.930 . S
C665 C662 1.348 . S
C665 C664 1.356 . S
H666 C660 0.930 . S
H667 C661 0.930 . S
C668 N669 1.314 . S
C668 C670 1.353 . S
C668 H674 0.930 . S
N669 Li619 1.990 . S
N669 C668 1.314 . S
N669 C672 1.279 . S
C670 C668 1.353 . S
C670 C673 1.348 . S
C670 H702 0.929 . S
C671 C672 1.358 . S
C671 C673 1.356 . S
C671 H703 0.930 . S
C672 N669 1.279 . S
C672 C671 1.358 . S
C672 H675 0.930 . S
C673 C670 1.348 . S
C673 C671 1.356 . S
H674 C668 0.930 . S
H675 C672 0.930 . S
O676 Li616 1.956 . S
O676 Li617 1.970 . S
O676 Li618 1.961 . S
O676 C620 1.325 . S
O677 Li616 1.970 . S
O677 Li617 1.956 . S
O677 Li619 1.961 . S
O677 C626 1.325 . S
O678 Li616 1.961 . S
O678 Li618 1.956 . S
O678 Li619 1.970 . S
O678 C648 1.325 . S
O679 Li617 1.961 . S
O679 Li618 1.970 . S
O679 Li619 1.956 . S
O679 C654 1.325 . S
H680 C622 0.929 . S
H681 C623 0.930 . S
H682 C624 0.930 . S
H683 C625 0.930 . S
H684 C627 0.930 . S
H685 C629 0.929 . S
H686 C630 0.930 . S
H687 C631 0.930 . S
H688 C634 0.930 . S
H689 C637 0.929 . S
H690 C642 0.929 . S
H691 C643 0.930 . S
H692 C650 0.929 . S
H693 C651 0.930 . S
H694 C652 0.930 . S
H695 C653 0.930 . S
H696 C655 0.929 . S
H697 C656 0.930 . S
H698 C657 0.930 . S
H699 C658 0.930 . S
H700 C662 0.929 . S
H701 C664 0.930 . S
H702 C670 0.929 . S
H703 C671 0.930 . S
Li704 N721 1.990 . S
Li704 O764 1.956 . S
Li704 O765 1.970 . S
Li704 O766 1.961 . S
Li705 N729 1.990 . S
Li705 O764 1.970 . S
Li705 O765 1.956 . S
Li705 O767 1.961 . S
Li706 N751 1.990 . S
Li706 O764 1.961 . S
Li706 O766 1.956 . S
Li706 O767 1.970 . S
Li707 N757 1.990 . S
Li707 O765 1.961 . S
Li707 O766 1.970 . S
Li707 O767 1.956 . S
C708 C710 1.348 . S
C708 C711 1.356 . S
C708 O764 1.325 . S
N709 C712 1.314 . S
N709 C713 1.279 . S
C710 C708 1.348 . S
C710 C712 1.353 . S
C710 H768 0.929 . S
C711 C708 1.356 . S
C711 C713 1.358 . S
C711 H769 0.930 . S
C712 N709 1.314 . S
C712 C710 1.353 . S
C712 H770 0.930 . S
C713 N709 1.279 . S
C713 C711 1.358 . S
C713 H771 0.930 . S
C714 C717 1.348 . S
C714 C718 1.356 . S
C714 O765 1.325 . S
C715 N716 1.279 . S
C715 C718 1.358 . S
C715 H772 0.930 . S
N716 C715 1.279 . S
N716 C719 1.314 . S
C717 C714 1.348 . S
C717 C719 1.353 . S
C717 H773 0.929 . S
C718 C714 1.356 . S
C718 C715 1.358 . S
C718 H774 0.930 . S
C719 N716 1.314 . S
C719 C717 1.353 . S
C719 H775 0.930 . S
C720 N721 1.314 . S
C720 C725 1.353 . S
C720 H726 0.930 . S
N721 Li704 1.990 . S
N721 C720 1.314 . S
N721 C723 1.279 . S
C722 C723 1.358 . S
C722 C724 1.356 . S
C722 H776 0.930 . S
C723 N721 1.279 . S
C723 C722 1.358 . S
C723 H727 0.930 . S
C724 C722 1.356 . S
C724 C725 1.348 . S
C725 C720 1.353 . S
C725 C724 1.348 . S
C725 H777 0.929 . S
H726 C720 0.930 . S
H727 C723 0.930 . S
C728 N729 1.314 . S
C728 C730 1.353 . S
C728 H734 0.930 . S
N729 Li705 1.990 . S
N729 C728 1.314 . S
N729 C732 1.279 . S
C730 C728 1.353 . S
C730 C733 1.348 . S
C730 H778 0.929 . S
C731 C732 1.358 . S
C731 C733 1.356 . S
C731 H779 0.930 . S
C732 N729 1.279 . S
C732 C731 1.358 . S
C732 H735 0.930 . S
C733 C730 1.348 . S
C733 C731 1.356 . S
H734 C728 0.930 . S
H735 C732 0.930 . S
C736 C738 1.348 . S
C736 C739 1.356 . S
C736 O766 1.325 . S
N737 C740 1.314 . S
N737 C741 1.279 . S
C738 C736 1.348 . S
C738 C740 1.353 . S
C738 H780 0.929 . S
C739 C736 1.356 . S
C739 C741 1.358 . S
C739 H781 0.930 . S
C740 N737 1.314 . S
C740 C738 1.353 . S
C740 H782 0.930 . S
C741 N737 1.279 . S
C741 C739 1.358 . S
C741 H783 0.930 . S
C742 C743 1.348 . S
C742 C744 1.356 . S
C742 O767 1.325 . S
C743 C742 1.348 . S
C743 C745 1.353 . S
C743 H784 0.929 . S
C744 C742 1.356 . S
C744 C746 1.358 . S
C744 H785 0.930 . S
C745 C743 1.353 . S
C745 N747 1.314 . S
C745 H786 0.930 . S
C746 C744 1.358 . S
C746 N747 1.279 . S
C746 H787 0.930 . S
N747 C745 1.314 . S
N747 C746 1.279 . S
C748 C750 1.353 . S
C748 N751 1.314 . S
C748 H754 0.930 . S
C749 N751 1.279 . S
C749 C752 1.358 . S
C749 H755 0.930 . S
C750 C748 1.353 . S
C750 C753 1.348 . S
C750 H788 0.929 . S
N751 Li706 1.990 . S
N751 C748 1.314 . S
N751 C749 1.279 . S
C752 C749 1.358 . S
C752 C753 1.356 . S
C752 H789 0.930 . S
C753 C750 1.348 . S
C753 C752 1.356 . S
H754 C748 0.930 . S
H755 C749 0.930 . S
C756 N757 1.314 . S
C756 C758 1.353 . S
C756 H762 0.930 . S
N757 Li707 1.990 . S
N757 C756 1.314 . S
N757 C760 1.279 . S
C758 C756 1.353 . S
C758 C761 1.348 . S
C758 H790 0.929 . S
C759 C760 1.358 . S
C759 C761 1.356 . S
C759 H791 0.930 . S
C760 N757 1.279 . S
C760 C759 1.358 . S
C760 H763 0.930 . S
C761 C758 1.348 . S
C761 C759 1.356 . S
H762 C756 0.930 . S
H763 C760 0.930 . S
O764 Li704 1.956 . S
O764 Li705 1.970 . S
O764 Li706 1.961 . S
O764 C708 1.325 . S
O765 Li704 1.970 . S
O765 Li705 1.956 . S
O765 Li707 1.961 . S
O765 C714 1.325 . S
O766 Li704 1.961 . S
O766 Li706 1.956 . S
O766 Li707 1.970 . S
O766 C736 1.325 . S
O767 Li705 1.961 . S
O767 Li706 1.970 . S
O767 Li707 1.956 . S
O767 C742 1.325 . S
H768 C710 0.929 . S
H769 C711 0.930 . S
H770 C712 0.930 . S
H771 C713 0.930 . S
H772 C715 0.930 . S
H773 C717 0.929 . S
H774 C718 0.930 . S
H775 C719 0.930 . S
H776 C722 0.930 . S
H777 C725 0.929 . S
H778 C730 0.929 . S
H779 C731 0.930 . S
H780 C738 0.929 . S
H781 C739 0.930 . S
H782 C740 0.930 . S
H783 C741 0.930 . S
H784 C743 0.929 . S
H785 C744 0.930 . S
H786 C745 0.930 . S
H787 C746 0.930 . S
H788 C750 0.929 . S
H789 C752 0.930 . S
H790 C758 0.929 . S
H791 C759 0.930 . S
Li792 N809 1.990 . S
Li792 O852 1.956 . S
Li792 O853 1.970 . S
Li792 O854 1.961 . S
Li793 N817 1.990 . S
Li793 O852 1.970 . S
Li793 O853 1.956 . S
Li793 O855 1.961 . S
Li794 N839 1.990 . S
Li794 O852 1.961 . S
Li794 O854 1.956 . S
Li794 O855 1.970 . S
Li795 N845 1.990 . S
Li795 O853 1.961 . S
Li795 O854 1.970 . S
Li795 O855 1.956 . S
C796 C798 1.348 . S
C796 C799 1.356 . S
C796 O852 1.325 . S
N797 C800 1.314 . S
N797 C801 1.279 . S
C798 C796 1.348 . S
C798 C800 1.353 . S
C798 H856 0.929 . S
C799 C796 1.356 . S
C799 C801 1.358 . S
C799 H857 0.930 . S
C800 N797 1.314 . S
C800 C798 1.353 . S
C800 H858 0.930 . S
C801 N797 1.279 . S
C801 C799 1.358 . S
C801 H859 0.930 . S
C802 C805 1.348 . S
C802 C806 1.356 . S
C802 O853 1.325 . S
C803 N804 1.279 . S
C803 C806 1.358 . S
C803 H860 0.930 . S
N804 C803 1.279 . S
N804 C807 1.314 . S
C805 C802 1.348 . S
C805 C807 1.353 . S
C805 H861 0.929 . S
C806 C802 1.356 . S
C806 C803 1.358 . S
C806 H862 0.930 . S
C807 N804 1.314 . S
C807 C805 1.353 . S
C807 H863 0.930 . S
C808 N809 1.314 . S
C808 C813 1.353 . S
C808 H814 0.930 . S
N809 Li792 1.990 . S
N809 C808 1.314 . S
N809 C811 1.279 . S
C810 C811 1.358 . S
C810 C812 1.356 . S
C810 H864 0.930 . S
C811 N809 1.279 . S
C811 C810 1.358 . S
C811 H815 0.930 . S
C812 C810 1.356 . S
C812 C813 1.348 . S
C813 C808 1.353 . S
C813 C812 1.348 . S
C813 H865 0.929 . S
H814 C808 0.930 . S
H815 C811 0.930 . S
C816 N817 1.314 . S
C816 C818 1.353 . S
C816 H822 0.930 . S
N817 Li793 1.990 . S
N817 C816 1.314 . S
N817 C820 1.279 . S
C818 C816 1.353 . S
C818 C821 1.348 . S
C818 H866 0.929 . S
C819 C820 1.358 . S
C819 C821 1.356 . S
C819 H867 0.930 . S
C820 N817 1.279 . S
C820 C819 1.358 . S
C820 H823 0.930 . S
C821 C818 1.348 . S
C821 C819 1.356 . S
H822 C816 0.930 . S
H823 C820 0.930 . S
C824 C826 1.348 . S
C824 C827 1.356 . S
C824 O854 1.325 . S
N825 C828 1.314 . S
N825 C829 1.279 . S
C826 C824 1.348 . S
C826 C828 1.353 . S
C826 H868 0.929 . S
C827 C824 1.356 . S
C827 C829 1.358 . S
C827 H869 0.930 . S
C828 N825 1.314 . S
C828 C826 1.353 . S
C828 H870 0.930 . S
C829 N825 1.279 . S
C829 C827 1.358 . S
C829 H871 0.930 . S
C830 C831 1.348 . S
C830 C832 1.356 . S
C830 O855 1.325 . S
C831 C830 1.348 . S
C831 C833 1.353 . S
C831 H872 0.929 . S
C832 C830 1.356 . S
C832 C834 1.358 . S
C832 H873 0.930 . S
C833 C831 1.353 . S
C833 N835 1.314 . S
C833 H874 0.930 . S
C834 C832 1.358 . S
C834 N835 1.279 . S
C834 H875 0.930 . S
N835 C833 1.314 . S
N835 C834 1.279 . S
C836 C838 1.353 . S
C836 N839 1.314 . S
C836 H842 0.930 . S
C837 N839 1.279 . S
C837 C840 1.358 . S
C837 H843 0.930 . S
C838 C836 1.353 . S
C838 C841 1.348 . S
C838 H876 0.929 . S
N839 Li794 1.990 . S
N839 C836 1.314 . S
N839 C837 1.279 . S
C840 C837 1.358 . S
C840 C841 1.356 . S
C840 H877 0.930 . S
C841 C838 1.348 . S
C841 C840 1.356 . S
H842 C836 0.930 . S
H843 C837 0.930 . S
C844 N845 1.314 . S
C844 C846 1.353 . S
C844 H850 0.930 . S
N845 Li795 1.990 . S
N845 C844 1.314 . S
N845 C848 1.279 . S
C846 C844 1.353 . S
C846 C849 1.348 . S
C846 H878 0.929 . S
C847 C848 1.358 . S
C847 C849 1.356 . S
C847 H879 0.930 . S
C848 N845 1.279 . S
C848 C847 1.358 . S
C848 H851 0.930 . S
C849 C846 1.348 . S
C849 C847 1.356 . S
H850 C844 0.930 . S
H851 C848 0.930 . S
O852 Li792 1.956 . S
O852 Li793 1.970 . S
O852 Li794 1.961 . S
O852 C796 1.325 . S
O853 Li792 1.970 . S
O853 Li793 1.956 . S
O853 Li795 1.961 . S
O853 C802 1.325 . S
O854 Li792 1.961 . S
O854 Li794 1.956 . S
O854 Li795 1.970 . S
O854 C824 1.325 . S
O855 Li793 1.961 . S
O855 Li794 1.970 . S
O855 Li795 1.956 . S
O855 C830 1.325 . S
H856 C798 0.929 . S
H857 C799 0.930 . S
H858 C800 0.930 . S
H859 C801 0.930 . S
H860 C803 0.930 . S
H861 C805 0.929 . S
H862 C806 0.930 . S
H863 C807 0.930 . S
H864 C810 0.930 . S
H865 C813 0.929 . S
H866 C818 0.929 . S
H867 C819 0.930 . S
H868 C826 0.929 . S
H869 C827 0.930 . S
H870 C828 0.930 . S
H871 C829 0.930 . S
H872 C831 0.929 . S
H873 C832 0.930 . S
H874 C833 0.930 . S
H875 C834 0.930 . S
H876 C838 0.929 . S
H877 C840 0.930 . S
H878 C846 0.929 . S
H879 C847 0.930 . S
Li880 N897 1.990 . S
Li880 O940 1.956 . S
Li880 O941 1.970 . S
Li880 O942 1.961 . S
Li881 N905 1.990 . S
Li881 O940 1.970 . S
Li881 O941 1.956 . S
Li881 O943 1.961 . S
Li882 N927 1.990 . S
Li882 O940 1.961 . S
Li882 O942 1.956 . S
Li882 O943 1.970 . S
Li883 N933 1.990 . S
Li883 O941 1.961 . S
Li883 O942 1.970 . S
Li883 O943 1.956 . S
C884 C886 1.348 . S
C884 C887 1.356 . S
C884 O940 1.325 . S
N885 C888 1.314 . S
N885 C889 1.279 . S
C886 C884 1.348 . S
C886 C888 1.353 . S
C886 H944 0.929 . S
C887 C884 1.356 . S
C887 C889 1.358 . S
C887 H945 0.930 . S
C888 N885 1.314 . S
C888 C886 1.353 . S
C888 H946 0.930 . S
C889 N885 1.279 . S
C889 C887 1.358 . S
C889 H947 0.930 . S
C890 C893 1.348 . S
C890 C894 1.356 . S
C890 O941 1.325 . S
C891 N892 1.279 . S
C891 C894 1.358 . S
C891 H948 0.930 . S
N892 C891 1.279 . S
N892 C895 1.314 . S
C893 C890 1.348 . S
C893 C895 1.353 . S
C893 H949 0.929 . S
C894 C890 1.356 . S
C894 C891 1.358 . S
C894 H950 0.930 . S
C895 N892 1.314 . S
C895 C893 1.353 . S
C895 H951 0.930 . S
C896 N897 1.314 . S
C896 C901 1.353 . S
C896 H902 0.930 . S
N897 Li880 1.990 . S
N897 C896 1.314 . S
N897 C899 1.279 . S
C898 C899 1.358 . S
C898 C900 1.356 . S
C898 H952 0.930 . S
C899 N897 1.279 . S
C899 C898 1.358 . S
C899 H903 0.930 . S
C900 C898 1.356 . S
C900 C901 1.348 . S
C901 C896 1.353 . S
C901 C900 1.348 . S
C901 H953 0.929 . S
H902 C896 0.930 . S
H903 C899 0.930 . S
C904 N905 1.314 . S
C904 C906 1.353 . S
C904 H910 0.930 . S
N905 Li881 1.990 . S
N905 C904 1.314 . S
N905 C908 1.279 . S
C906 C904 1.353 . S
C906 C909 1.348 . S
C906 H954 0.929 . S
C907 C908 1.358 . S
C907 C909 1.356 . S
C907 H955 0.930 . S
C908 N905 1.279 . S
C908 C907 1.358 . S
C908 H911 0.930 . S
C909 C906 1.348 . S
C909 C907 1.356 . S
H910 C904 0.930 . S
H911 C908 0.930 . S
C912 C914 1.348 . S
C912 C915 1.356 . S
C912 O942 1.325 . S
N913 C916 1.314 . S
N913 C917 1.279 . S
C914 C912 1.348 . S
C914 C916 1.353 . S
C914 H956 0.929 . S
C915 C912 1.356 . S
C915 C917 1.358 . S
C915 H957 0.930 . S
C916 N913 1.314 . S
C916 C914 1.353 . S
C916 H958 0.930 . S
C917 N913 1.279 . S
C917 C915 1.358 . S
C917 H959 0.930 . S
C918 C919 1.348 . S
C918 C920 1.356 . S
C918 O943 1.325 . S
C919 C918 1.348 . S
C919 C921 1.353 . S
C919 H960 0.929 . S
C920 C918 1.356 . S
C920 C922 1.358 . S
C920 H961 0.930 . S
C921 C919 1.353 . S
C921 N923 1.314 . S
C921 H962 0.930 . S
C922 C920 1.358 . S
C922 N923 1.279 . S
C922 H963 0.930 . S
N923 C921 1.314 . S
N923 C922 1.279 . S
C924 C926 1.353 . S
C924 N927 1.314 . S
C924 H930 0.930 . S
C925 N927 1.279 . S
C925 C928 1.358 . S
C925 H931 0.930 . S
C926 C924 1.353 . S
C926 C929 1.348 . S
C926 H964 0.929 . S
N927 Li882 1.990 . S
N927 C924 1.314 . S
N927 C925 1.279 . S
C928 C925 1.358 . S
C928 C929 1.356 . S
C928 H965 0.930 . S
C929 C926 1.348 . S
C929 C928 1.356 . S
H930 C924 0.930 . S
H931 C925 0.930 . S
C932 N933 1.314 . S
C932 C934 1.353 . S
C932 H938 0.930 . S
N933 Li883 1.990 . S
N933 C932 1.314 . S
N933 C936 1.279 . S
C934 C932 1.353 . S
C934 C937 1.348 . S
C934 H966 0.929 . S
C935 C936 1.358 . S
C935 C937 1.356 . S
C935 H967 0.930 . S
C936 N933 1.279 . S
C936 C935 1.358 . S
C936 H939 0.930 . S
C937 C934 1.348 . S
C937 C935 1.356 . S
H938 C932 0.930 . S
H939 C936 0.930 . S
O940 Li880 1.956 . S
O940 Li881 1.970 . S
O940 Li882 1.961 . S
O940 C884 1.325 . S
O941 Li880 1.970 . S
O941 Li881 1.956 . S
O941 Li883 1.961 . S
O941 C890 1.325 . S
O942 Li880 1.961 . S
O942 Li882 1.956 . S
O942 Li883 1.970 . S
O942 C912 1.325 . S
O943 Li881 1.961 . S
O943 Li882 1.970 . S
O943 Li883 1.956 . S
O943 C918 1.325 . S
H944 C886 0.929 . S
H945 C887 0.930 . S
H946 C888 0.930 . S
H947 C889 0.930 . S
H948 C891 0.930 . S
H949 C893 0.929 . S
H950 C894 0.930 . S
H951 C895 0.930 . S
H952 C898 0.930 . S
H953 C901 0.929 . S
H954 C906 0.929 . S
H955 C907 0.930 . S
H956 C914 0.929 . S
H957 C915 0.930 . S
H958 C916 0.930 . S
H959 C917 0.930 . S
H960 C919 0.929 . S
H961 C920 0.930 . S
H962 C921 0.930 . S
H963 C922 0.930 . S
H964 C926 0.929 . S
H965 C928 0.930 . S
H966 C934 0.929 . S
H967 C935 0.930 . S
Li968 N985 1.990 . S
Li968 O1028 1.956 . S
Li968 O1029 1.970 . S
Li968 O1030 1.961 . S
Li969 N993 1.990 . S
Li969 O1028 1.970 . S
Li969 O1029 1.956 . S
Li969 O1031 1.961 . S
Li970 N1015 1.990 . S
Li970 O1028 1.961 . S
Li970 O1030 1.956 . S
Li970 O1031 1.970 . S
Li971 N1021 1.990 . S
Li971 O1029 1.961 . S
Li971 O1030 1.970 . S
Li971 O1031 1.956 . S
C972 C974 1.348 . S
C972 C975 1.356 . S
C972 O1028 1.325 . S
N973 C976 1.314 . S
N973 C977 1.279 . S
C974 C972 1.348 . S
C974 C976 1.353 . S
C974 H1032 0.929 . S
C975 C972 1.356 . S
C975 C977 1.358 . S
C975 H1033 0.930 . S
C976 N973 1.314 . S
C976 C974 1.353 . S
C976 H1034 0.930 . S
C977 N973 1.279 . S
C977 C975 1.358 . S
C977 H1035 0.930 . S
C978 C981 1.348 . S
C978 C982 1.356 . S
C978 O1029 1.325 . S
C979 N980 1.279 . S
C979 C982 1.358 . S
C979 H1036 0.930 . S
N980 C979 1.279 . S
N980 C983 1.314 . S
C981 C978 1.348 . S
C981 C983 1.353 . S
C981 H1037 0.929 . S
C982 C978 1.356 . S
C982 C979 1.358 . S
C982 H1038 0.930 . S
C983 N980 1.314 . S
C983 C981 1.353 . S
C983 H1039 0.930 . S
C984 N985 1.314 . S
C984 C989 1.353 . S
C984 H990 0.930 . S
N985 Li968 1.990 . S
N985 C984 1.314 . S
N985 C987 1.279 . S
C986 C987 1.358 . S
C986 C988 1.356 . S
C986 H1040 0.930 . S
C987 N985 1.279 . S
C987 C986 1.358 . S
C987 H991 0.930 . S
C988 C986 1.356 . S
C988 C989 1.348 . S
C989 C984 1.353 . S
C989 C988 1.348 . S
C989 H1041 0.929 . S
H990 C984 0.930 . S
H991 C987 0.930 . S
C992 N993 1.314 . S
C992 C994 1.353 . S
C992 H998 0.930 . S
N993 Li969 1.990 . S
N993 C992 1.314 . S
N993 C996 1.279 . S
C994 C992 1.353 . S
C994 C997 1.348 . S
C994 H1042 0.929 . S
C995 C996 1.358 . S
C995 C997 1.356 . S
C995 H1043 0.930 . S
C996 N993 1.279 . S
C996 C995 1.358 . S
C996 H999 0.930 . S
C997 C994 1.348 . S
C997 C995 1.356 . S
H998 C992 0.930 . S
H999 C996 0.930 . S
C1000 C1002 1.348 . S
C1000 C1003 1.356 . S
C1000 O1030 1.325 . S
N1001 C1004 1.314 . S
N1001 C1005 1.279 . S
C1002 C1000 1.348 . S
C1002 C1004 1.353 . S
C1002 H1044 0.929 . S
C1003 C1000 1.356 . S
C1003 C1005 1.358 . S
C1003 H1045 0.930 . S
C1004 N1001 1.314 . S
C1004 C1002 1.353 . S
C1004 H1046 0.930 . S
C1005 N1001 1.279 . S
C1005 C1003 1.358 . S
C1005 H1047 0.930 . S
C1006 C1007 1.348 . S
C1006 C1008 1.356 . S
C1006 O1031 1.325 . S
C1007 C1006 1.348 . S
C1007 C1009 1.353 . S
C1007 H1048 0.929 . S
C1008 C1006 1.356 . S
C1008 C1010 1.358 . S
C1008 H1049 0.930 . S
C1009 C1007 1.353 . S
C1009 N1011 1.314 . S
C1009 H1050 0.930 . S
C1010 C1008 1.358 . S
C1010 N1011 1.279 . S
C1010 H1051 0.930 . S
N1011 C1009 1.314 . S
N1011 C1010 1.279 . S
C1012 C1014 1.353 . S
C1012 N1015 1.314 . S
C1012 H1018 0.930 . S
C1013 N1015 1.279 . S
C1013 C1016 1.358 . S
C1013 H1019 0.930 . S
C1014 C1012 1.353 . S
C1014 C1017 1.348 . S
C1014 H1052 0.929 . S
N1015 Li970 1.990 . S
N1015 C1012 1.314 . S
N1015 C1013 1.279 . S
C1016 C1013 1.358 . S
C1016 C1017 1.356 . S
C1016 H1053 0.930 . S
C1017 C1014 1.348 . S
C1017 C1016 1.356 . S
H1018 C1012 0.930 . S
H1019 C1013 0.930 . S
C1020 N1021 1.314 . S
C1020 C1022 1.353 . S
C1020 H1026 0.930 . S
N1021 Li971 1.990 . S
N1021 C1020 1.314 . S
N1021 C1024 1.279 . S
C1022 C1020 1.353 . S
C1022 C1025 1.348 . S
C1022 H1054 0.929 . S
C1023 C1024 1.358 . S
C1023 C1025 1.356 . S
C1023 H1055 0.930 . S
C1024 N1021 1.279 . S
C1024 C1023 1.358 . S
C1024 H1027 0.930 . S
C1025 C1022 1.348 . S
C1025 C1023 1.356 . S
H1026 C1020 0.930 . S
H1027 C1024 0.930 . S
O1028 Li968 1.956 . S
O1028 Li969 1.970 . S
O1028 Li970 1.961 . S
O1028 C972 1.325 . S
O1029 Li968 1.970 . S
O1029 Li969 1.956 . S
O1029 Li971 1.961 . S
O1029 C978 1.325 . S
O1030 Li968 1.961 . S
O1030 Li970 1.956 . S
O1030 Li971 1.970 . S
O1030 C1000 1.325 . S
O1031 Li969 1.961 . S
O1031 Li970 1.970 . S
O1031 Li971 1.956 . S
O1031 C1006 1.325 . S
H1032 C974 0.929 . S
H1033 C975 0.930 . S
H1034 C976 0.930 . S
H1035 C977 0.930 . S
H1036 C979 0.930 . S
H1037 C981 0.929 . S
H1038 C982 0.930 . S
H1039 C983 0.930 . S
H1040 C986 0.930 . S
H1041 C989 0.929 . S
H1042 C994 0.929 . S
H1043 C995 0.930 . S
H1044 C1002 0.929 . S
H1045 C1003 0.930 . S
H1046 C1004 0.930 . S
H1047 C1005 0.930 . S
H1048 C1007 0.929 . S
H1049 C1008 0.930 . S
H1050 C1009 0.930 . S
H1051 C1010 0.930 . S
H1052 C1014 0.929 . S
H1053 C1016 0.930 . S
H1054 C1022 0.929 . S
H1055 C1023 0.930 . S
Li1056 N1073 1.990 . S
Li1056 O1116 1.956 . S
Li1056 O1117 1.970 . S
Li1056 O1118 1.961 . S
Li1057 N1081 1.990 . S
Li1057 O1116 1.970 . S
Li1057 O1117 1.956 . S
Li1057 O1119 1.961 . S
Li1058 N1103 1.990 . S
Li1058 O1116 1.961 . S
Li1058 O1118 1.956 . S
Li1058 O1119 1.970 . S
Li1059 N1109 1.990 . S
Li1059 O1117 1.961 . S
Li1059 O1118 1.970 . S
Li1059 O1119 1.956 . S
C1060 C1062 1.348 . S
C1060 C1063 1.356 . S
C1060 O1116 1.325 . S
N1061 C1064 1.314 . S
N1061 C1065 1.279 . S
C1062 C1060 1.348 . S
C1062 C1064 1.353 . S
C1062 H1120 0.929 . S
C1063 C1060 1.356 . S
C1063 C1065 1.358 . S
C1063 H1121 0.930 . S
C1064 N1061 1.314 . S
C1064 C1062 1.353 . S
C1064 H1122 0.930 . S
C1065 N1061 1.279 . S
C1065 C1063 1.358 . S
C1065 H1123 0.930 . S
C1066 C1069 1.348 . S
C1066 C1070 1.356 . S
C1066 O1117 1.325 . S
C1067 N1068 1.279 . S
C1067 C1070 1.358 . S
C1067 H1124 0.930 . S
N1068 C1067 1.279 . S
N1068 C1071 1.314 . S
C1069 C1066 1.348 . S
C1069 C1071 1.353 . S
C1069 H1125 0.929 . S
C1070 C1066 1.356 . S
C1070 C1067 1.358 . S
C1070 H1126 0.930 . S
C1071 N1068 1.314 . S
C1071 C1069 1.353 . S
C1071 H1127 0.930 . S
C1072 N1073 1.314 . S
C1072 C1077 1.353 . S
C1072 H1078 0.930 . S
N1073 Li1056 1.990 . S
N1073 C1072 1.314 . S
N1073 C1075 1.279 . S
C1074 C1075 1.358 . S
C1074 C1076 1.356 . S
C1074 H1128 0.930 . S
C1075 N1073 1.279 . S
C1075 C1074 1.358 . S
C1075 H1079 0.930 . S
C1076 C1074 1.356 . S
C1076 C1077 1.348 . S
C1077 C1072 1.353 . S
C1077 C1076 1.348 . S
C1077 H1129 0.929 . S
H1078 C1072 0.930 . S
H1079 C1075 0.930 . S
C1080 N1081 1.314 . S
C1080 C1082 1.353 . S
C1080 H1086 0.930 . S
N1081 Li1057 1.990 . S
N1081 C1080 1.314 . S
N1081 C1084 1.279 . S
C1082 C1080 1.353 . S
C1082 C1085 1.348 . S
C1082 H1130 0.929 . S
C1083 C1084 1.358 . S
C1083 C1085 1.356 . S
C1083 H1131 0.930 . S
C1084 N1081 1.279 . S
C1084 C1083 1.358 . S
C1084 H1087 0.930 . S
C1085 C1082 1.348 . S
C1085 C1083 1.356 . S
H1086 C1080 0.930 . S
H1087 C1084 0.930 . S
C1088 C1090 1.348 . S
C1088 C1091 1.356 . S
C1088 O1118 1.325 . S
N1089 C1092 1.314 . S
N1089 C1093 1.279 . S
C1090 C1088 1.348 . S
C1090 C1092 1.353 . S
C1090 H1132 0.929 . S
C1091 C1088 1.356 . S
C1091 C1093 1.358 . S
C1091 H1133 0.930 . S
C1092 N1089 1.314 . S
C1092 C1090 1.353 . S
C1092 H1134 0.930 . S
C1093 N1089 1.279 . S
C1093 C1091 1.358 . S
C1093 H1135 0.930 . S
C1094 C1095 1.348 . S
C1094 C1096 1.356 . S
C1094 O1119 1.325 . S
C1095 C1094 1.348 . S
C1095 C1097 1.353 . S
C1095 H1136 0.929 . S
C1096 C1094 1.356 . S
C1096 C1098 1.358 . S
C1096 H1137 0.930 . S
C1097 C1095 1.353 . S
C1097 N1099 1.314 . S
C1097 H1138 0.930 . S
C1098 C1096 1.358 . S
C1098 N1099 1.279 . S
C1098 H1139 0.930 . S
N1099 C1097 1.314 . S
N1099 C1098 1.279 . S
C1100 C1102 1.353 . S
C1100 N1103 1.314 . S
C1100 H1106 0.930 . S
C1101 N1103 1.279 . S
C1101 C1104 1.358 . S
C1101 H1107 0.930 . S
C1102 C1100 1.353 . S
C1102 C1105 1.348 . S
C1102 H1140 0.929 . S
N1103 Li1058 1.990 . S
N1103 C1100 1.314 . S
N1103 C1101 1.279 . S
C1104 C1101 1.358 . S
C1104 C1105 1.356 . S
C1104 H1141 0.930 . S
C1105 C1102 1.348 . S
C1105 C1104 1.356 . S
H1106 C1100 0.930 . S
H1107 C1101 0.930 . S
C1108 N1109 1.314 . S
C1108 C1110 1.353 . S
C1108 H1114 0.930 . S
N1109 Li1059 1.990 . S
N1109 C1108 1.314 . S
N1109 C1112 1.279 . S
C1110 C1108 1.353 . S
C1110 C1113 1.348 . S
C1110 H1142 0.929 . S
C1111 C1112 1.358 . S
C1111 C1113 1.356 . S
C1111 H1143 0.930 . S
C1112 N1109 1.279 . S
C1112 C1111 1.358 . S
C1112 H1115 0.930 . S
C1113 C1110 1.348 . S
C1113 C1111 1.356 . S
H1114 C1108 0.930 . S
H1115 C1112 0.930 . S
O1116 Li1056 1.956 . S
O1116 Li1057 1.970 . S
O1116 Li1058 1.961 . S
O1116 C1060 1.325 . S
O1117 Li1056 1.970 . S
O1117 Li1057 1.956 . S
O1117 Li1059 1.961 . S
O1117 C1066 1.325 . S
O1118 Li1056 1.961 . S
O1118 Li1058 1.956 . S
O1118 Li1059 1.970 . S
O1118 C1088 1.325 . S
O1119 Li1057 1.961 . S
O1119 Li1058 1.970 . S
O1119 Li1059 1.956 . S
O1119 C1094 1.325 . S
H1120 C1062 0.929 . S
H1121 C1063 0.930 . S
H1122 C1064 0.930 . S
H1123 C1065 0.930 . S
H1124 C1067 0.930 . S
H1125 C1069 0.929 . S
H1126 C1070 0.930 . S
H1127 C1071 0.930 . S
H1128 C1074 0.930 . S
H1129 C1077 0.929 . S
H1130 C1082 0.929 . S
H1131 C1083 0.930 . S
H1132 C1090 0.929 . S
H1133 C1091 0.930 . S
H1134 C1092 0.930 . S
H1135 C1093 0.930 . S
H1136 C1095 0.929 . S
H1137 C1096 0.930 . S
H1138 C1097 0.930 . S
H1139 C1098 0.930 . S
H1140 C1102 0.929 . S
H1141 C1104 0.930 . S
H1142 C1110 0.929 . S
H1143 C1111 0.930 . S
Li1144 N1161 1.990 . S
Li1144 O1204 1.956 . S
Li1144 O1205 1.970 . S
Li1144 O1206 1.961 . S
Li1145 N1169 1.990 . S
Li1145 O1204 1.970 . S
Li1145 O1205 1.956 . S
Li1145 O1207 1.961 . S
Li1146 N1191 1.990 . S
Li1146 O1204 1.961 . S
Li1146 O1206 1.956 . S
Li1146 O1207 1.970 . S
Li1147 N1197 1.990 . S
Li1147 O1205 1.961 . S
Li1147 O1206 1.970 . S
Li1147 O1207 1.956 . S
C1148 C1150 1.348 . S
C1148 C1151 1.356 . S
C1148 O1204 1.325 . S
N1149 C1152 1.314 . S
N1149 C1153 1.279 . S
C1150 C1148 1.348 . S
C1150 C1152 1.353 . S
C1150 H1208 0.929 . S
C1151 C1148 1.356 . S
C1151 C1153 1.358 . S
C1151 H1209 0.930 . S
C1152 N1149 1.314 . S
C1152 C1150 1.353 . S
C1152 H1210 0.930 . S
C1153 N1149 1.279 . S
C1153 C1151 1.358 . S
C1153 H1211 0.930 . S
C1154 C1157 1.348 . S
C1154 C1158 1.356 . S
C1154 O1205 1.325 . S
C1155 N1156 1.279 . S
C1155 C1158 1.358 . S
C1155 H1212 0.930 . S
N1156 C1155 1.279 . S
N1156 C1159 1.314 . S
C1157 C1154 1.348 . S
C1157 C1159 1.353 . S
C1157 H1213 0.929 . S
C1158 C1154 1.356 . S
C1158 C1155 1.358 . S
C1158 H1214 0.930 . S
C1159 N1156 1.314 . S
C1159 C1157 1.353 . S
C1159 H1215 0.930 . S
C1160 N1161 1.314 . S
C1160 C1165 1.353 . S
C1160 H1166 0.930 . S
N1161 Li1144 1.990 . S
N1161 C1160 1.314 . S
N1161 C1163 1.279 . S
C1162 C1163 1.358 . S
C1162 C1164 1.356 . S
C1162 H1216 0.930 . S
C1163 N1161 1.279 . S
C1163 C1162 1.358 . S
C1163 H1167 0.930 . S
C1164 C1162 1.356 . S
C1164 C1165 1.348 . S
C1165 C1160 1.353 . S
C1165 C1164 1.348 . S
C1165 H1217 0.929 . S
H1166 C1160 0.930 . S
H1167 C1163 0.930 . S
C1168 N1169 1.314 . S
C1168 C1170 1.353 . S
C1168 H1174 0.930 . S
N1169 Li1145 1.990 . S
N1169 C1168 1.314 . S
N1169 C1172 1.279 . S
C1170 C1168 1.353 . S
C1170 C1173 1.348 . S
C1170 H1218 0.929 . S
C1171 C1172 1.358 . S
C1171 C1173 1.356 . S
C1171 H1219 0.930 . S
C1172 N1169 1.279 . S
C1172 C1171 1.358 . S
C1172 H1175 0.930 . S
C1173 C1170 1.348 . S
C1173 C1171 1.356 . S
H1174 C1168 0.930 . S
H1175 C1172 0.930 . S
C1176 C1178 1.348 . S
C1176 C1179 1.356 . S
C1176 O1206 1.325 . S
N1177 C1180 1.314 . S
N1177 C1181 1.279 . S
C1178 C1176 1.348 . S
C1178 C1180 1.353 . S
C1178 H1220 0.929 . S
C1179 C1176 1.356 . S
C1179 C1181 1.358 . S
C1179 H1221 0.930 . S
C1180 N1177 1.314 . S
C1180 C1178 1.353 . S
C1180 H1222 0.930 . S
C1181 N1177 1.279 . S
C1181 C1179 1.358 . S
C1181 H1223 0.930 . S
C1182 C1183 1.348 . S
C1182 C1184 1.356 . S
C1182 O1207 1.325 . S
C1183 C1182 1.348 . S
C1183 C1185 1.353 . S
C1183 H1224 0.929 . S
C1184 C1182 1.356 . S
C1184 C1186 1.358 . S
C1184 H1225 0.930 . S
C1185 C1183 1.353 . S
C1185 N1187 1.314 . S
C1185 H1226 0.930 . S
C1186 C1184 1.358 . S
C1186 N1187 1.279 . S
C1186 H1227 0.930 . S
N1187 C1185 1.314 . S
N1187 C1186 1.279 . S
C1188 C1190 1.353 . S
C1188 N1191 1.314 . S
C1188 H1194 0.930 . S
C1189 N1191 1.279 . S
C1189 C1192 1.358 . S
C1189 H1195 0.930 . S
C1190 C1188 1.353 . S
C1190 C1193 1.348 . S
C1190 H1228 0.929 . S
N1191 Li1146 1.990 . S
N1191 C1188 1.314 . S
N1191 C1189 1.279 . S
C1192 C1189 1.358 . S
C1192 C1193 1.356 . S
C1192 H1229 0.930 . S
C1193 C1190 1.348 . S
C1193 C1192 1.356 . S
H1194 C1188 0.930 . S
H1195 C1189 0.930 . S
C1196 N1197 1.314 . S
C1196 C1198 1.353 . S
C1196 H1202 0.930 . S
N1197 Li1147 1.990 . S
N1197 C1196 1.314 . S
N1197 C1200 1.279 . S
C1198 C1196 1.353 . S
C1198 C1201 1.348 . S
C1198 H1230 0.929 . S
C1199 C1200 1.358 . S
C1199 C1201 1.356 . S
C1199 H1231 0.930 . S
C1200 N1197 1.279 . S
C1200 C1199 1.358 . S
C1200 H1203 0.930 . S
C1201 C1198 1.348 . S
C1201 C1199 1.356 . S
H1202 C1196 0.930 . S
H1203 C1200 0.930 . S
O1204 Li1144 1.956 . S
O1204 Li1145 1.970 . S
O1204 Li1146 1.961 . S
O1204 C1148 1.325 . S
O1205 Li1144 1.970 . S
O1205 Li1145 1.956 . S
O1205 Li1147 1.961 . S
O1205 C1154 1.325 . S
O1206 Li1144 1.961 . S
O1206 Li1146 1.956 . S
O1206 Li1147 1.970 . S
O1206 C1176 1.325 . S
O1207 Li1145 1.961 . S
O1207 Li1146 1.970 . S
O1207 Li1147 1.956 . S
O1207 C1182 1.325 . S
H1208 C1150 0.929 . S
H1209 C1151 0.930 . S
H1210 C1152 0.930 . S
H1211 C1153 0.930 . S
H1212 C1155 0.930 . S
H1213 C1157 0.929 . S
H1214 C1158 0.930 . S
H1215 C1159 0.930 . S
H1216 C1162 0.930 . S
H1217 C1165 0.929 . S
H1218 C1170 0.929 . S
H1219 C1171 0.930 . S
H1220 C1178 0.929 . S
H1221 C1179 0.930 . S
H1222 C1180 0.930 . S
H1223 C1181 0.930 . S
H1224 C1183 0.929 . S
H1225 C1184 0.930 . S
H1226 C1185 0.930 . S
H1227 C1186 0.930 . S
H1228 C1190 0.929 . S
H1229 C1192 0.930 . S
H1230 C1198 0.929 . S
H1231 C1199 0.930 . S
Li1232 N1249 1.990 . S
Li1232 O1292 1.956 . S
Li1232 O1293 1.970 . S
Li1232 O1294 1.961 . S
Li1233 N1257 1.990 . S
Li1233 O1292 1.970 . S
Li1233 O1293 1.956 . S
Li1233 O1295 1.961 . S
Li1234 N1279 1.990 . S
Li1234 O1292 1.961 . S
Li1234 O1294 1.956 . S
Li1234 O1295 1.970 . S
Li1235 N1285 1.990 . S
Li1235 O1293 1.961 . S
Li1235 O1294 1.970 . S
Li1235 O1295 1.956 . S
C1236 C1238 1.348 . S
C1236 C1239 1.356 . S
C1236 O1292 1.325 . S
N1237 C1240 1.314 . S
N1237 C1241 1.279 . S
C1238 C1236 1.348 . S
C1238 C1240 1.353 . S
C1238 H1296 0.929 . S
C1239 C1236 1.356 . S
C1239 C1241 1.358 . S
C1239 H1297 0.930 . S
C1240 N1237 1.314 . S
C1240 C1238 1.353 . S
C1240 H1298 0.930 . S
C1241 N1237 1.279 . S
C1241 C1239 1.358 . S
C1241 H1299 0.930 . S
C1242 C1245 1.348 . S
C1242 C1246 1.356 . S
C1242 O1293 1.325 . S
C1243 N1244 1.279 . S
C1243 C1246 1.358 . S
C1243 H1300 0.930 . S
N1244 C1243 1.279 . S
N1244 C1247 1.314 . S
C1245 C1242 1.348 . S
C1245 C1247 1.353 . S
C1245 H1301 0.929 . S
C1246 C1242 1.356 . S
C1246 C1243 1.358 . S
C1246 H1302 0.930 . S
C1247 N1244 1.314 . S
C1247 C1245 1.353 . S
C1247 H1303 0.930 . S
C1248 N1249 1.314 . S
C1248 C1253 1.353 . S
C1248 H1254 0.930 . S
N1249 Li1232 1.990 . S
N1249 C1248 1.314 . S
N1249 C1251 1.279 . S
C1250 C1251 1.358 . S
C1250 C1252 1.356 . S
C1250 H1304 0.930 . S
C1251 N1249 1.279 . S
C1251 C1250 1.358 . S
C1251 H1255 0.930 . S
C1252 C1250 1.356 . S
C1252 C1253 1.348 . S
C1253 C1248 1.353 . S
C1253 C1252 1.348 . S
C1253 H1305 0.929 . S
H1254 C1248 0.930 . S
H1255 C1251 0.930 . S
C1256 N1257 1.314 . S
C1256 C1258 1.353 . S
C1256 H1262 0.930 . S
N1257 Li1233 1.990 . S
N1257 C1256 1.314 . S
N1257 C1260 1.279 . S
C1258 C1256 1.353 . S
C1258 C1261 1.348 . S
C1258 H1306 0.929 . S
C1259 C1260 1.358 . S
C1259 C1261 1.356 . S
C1259 H1307 0.930 . S
C1260 N1257 1.279 . S
C1260 C1259 1.358 . S
C1260 H1263 0.930 . S
C1261 C1258 1.348 . S
C1261 C1259 1.356 . S
H1262 C1256 0.930 . S
H1263 C1260 0.930 . S
C1264 C1266 1.348 . S
C1264 C1267 1.356 . S
C1264 O1294 1.325 . S
N1265 C1268 1.314 . S
N1265 C1269 1.279 . S
C1266 C1264 1.348 . S
C1266 C1268 1.353 . S
C1266 H1308 0.929 . S
C1267 C1264 1.356 . S
C1267 C1269 1.358 . S
C1267 H1309 0.930 . S
C1268 N1265 1.314 . S
C1268 C1266 1.353 . S
C1268 H1310 0.930 . S
C1269 N1265 1.279 . S
C1269 C1267 1.358 . S
C1269 H1311 0.930 . S
C1270 C1271 1.348 . S
C1270 C1272 1.356 . S
C1270 O1295 1.325 . S
C1271 C1270 1.348 . S
C1271 C1273 1.353 . S
C1271 H1312 0.929 . S
C1272 C1270 1.356 . S
C1272 C1274 1.358 . S
C1272 H1313 0.930 . S
C1273 C1271 1.353 . S
C1273 N1275 1.314 . S
C1273 H1314 0.930 . S
C1274 C1272 1.358 . S
C1274 N1275 1.279 . S
C1274 H1315 0.930 . S
N1275 C1273 1.314 . S
N1275 C1274 1.279 . S
C1276 C1278 1.353 . S
C1276 N1279 1.314 . S
C1276 H1282 0.930 . S
C1277 N1279 1.279 . S
C1277 C1280 1.358 . S
C1277 H1283 0.930 . S
C1278 C1276 1.353 . S
C1278 C1281 1.348 . S
C1278 H1316 0.929 . S
N1279 Li1234 1.990 . S
N1279 C1276 1.314 . S
N1279 C1277 1.279 . S
C1280 C1277 1.358 . S
C1280 C1281 1.356 . S
C1280 H1317 0.930 . S
C1281 C1278 1.348 . S
C1281 C1280 1.356 . S
H1282 C1276 0.930 . S
H1283 C1277 0.930 . S
C1284 N1285 1.314 . S
C1284 C1286 1.353 . S
C1284 H1290 0.930 . S
N1285 Li1235 1.990 . S
N1285 C1284 1.314 . S
N1285 C1288 1.279 . S
C1286 C1284 1.353 . S
C1286 C1289 1.348 . S
C1286 H1318 0.929 . S
C1287 C1288 1.358 . S
C1287 C1289 1.356 . S
C1287 H1319 0.930 . S
C1288 N1285 1.279 . S
C1288 C1287 1.358 . S
C1288 H1291 0.930 . S
C1289 C1286 1.348 . S
C1289 C1287 1.356 . S
H1290 C1284 0.930 . S
H1291 C1288 0.930 . S
O1292 Li1232 1.956 . S
O1292 Li1233 1.970 . S
O1292 Li1234 1.961 . S
O1292 C1236 1.325 . S
O1293 Li1232 1.970 . S
O1293 Li1233 1.956 . S
O1293 Li1235 1.961 . S
O1293 C1242 1.325 . S
O1294 Li1232 1.961 . S
O1294 Li1234 1.956 . S
O1294 Li1235 1.970 . S
O1294 C1264 1.325 . S
O1295 Li1233 1.961 . S
O1295 Li1234 1.970 . S
O1295 Li1235 1.956 . S
O1295 C1270 1.325 . S
H1296 C1238 0.929 . S
H1297 C1239 0.930 . S
H1298 C1240 0.930 . S
H1299 C1241 0.930 . S
H1300 C1243 0.930 . S
H1301 C1245 0.929 . S
H1302 C1246 0.930 . S
H1303 C1247 0.930 . S
H1304 C1250 0.930 . S
H1305 C1253 0.929 . S
H1306 C1258 0.929 . S
H1307 C1259 0.930 . S
H1308 C1266 0.929 . S
H1309 C1267 0.930 . S
H1310 C1268 0.930 . S
H1311 C1269 0.930 . S
H1312 C1271 0.929 . S
H1313 C1272 0.930 . S
H1314 C1273 0.930 . S
H1315 C1274 0.930 . S
H1316 C1278 0.929 . S
H1317 C1280 0.930 . S
H1318 C1286 0.929 . S
H1319 C1287 0.930 . S
Li1320 N1337 1.990 . S
Li1320 O1380 1.956 . S
Li1320 O1381 1.970 . S
Li1320 O1382 1.961 . S
Li1321 N1345 1.990 . S
Li1321 O1380 1.970 . S
Li1321 O1381 1.956 . S
Li1321 O1383 1.961 . S
Li1322 N1367 1.990 . S
Li1322 O1380 1.961 . S
Li1322 O1382 1.956 . S
Li1322 O1383 1.970 . S
Li1323 N1373 1.990 . S
Li1323 O1381 1.961 . S
Li1323 O1382 1.970 . S
Li1323 O1383 1.956 . S
C1324 C1326 1.348 . S
C1324 C1327 1.356 . S
C1324 O1380 1.325 . S
N1325 C1328 1.314 . S
N1325 C1329 1.279 . S
C1326 C1324 1.348 . S
C1326 C1328 1.353 . S
C1326 H1384 0.929 . S
C1327 C1324 1.356 . S
C1327 C1329 1.358 . S
C1327 H1385 0.930 . S
C1328 N1325 1.314 . S
C1328 C1326 1.353 . S
C1328 H1386 0.930 . S
C1329 N1325 1.279 . S
C1329 C1327 1.358 . S
C1329 H1387 0.930 . S
C1330 C1333 1.348 . S
C1330 C1334 1.356 . S
C1330 O1381 1.325 . S
C1331 N1332 1.279 . S
C1331 C1334 1.358 . S
C1331 H1388 0.930 . S
N1332 C1331 1.279 . S
N1332 C1335 1.314 . S
C1333 C1330 1.348 . S
C1333 C1335 1.353 . S
C1333 H1389 0.929 . S
C1334 C1330 1.356 . S
C1334 C1331 1.358 . S
C1334 H1390 0.930 . S
C1335 N1332 1.314 . S
C1335 C1333 1.353 . S
C1335 H1391 0.930 . S
C1336 N1337 1.314 . S
C1336 C1341 1.353 . S
C1336 H1342 0.930 . S
N1337 Li1320 1.990 . S
N1337 C1336 1.314 . S
N1337 C1339 1.279 . S
C1338 C1339 1.358 . S
C1338 C1340 1.356 . S
C1338 H1392 0.930 . S
C1339 N1337 1.279 . S
C1339 C1338 1.358 . S
C1339 H1343 0.930 . S
C1340 C1338 1.356 . S
C1340 C1341 1.348 . S
C1341 C1336 1.353 . S
C1341 C1340 1.348 . S
C1341 H1393 0.929 . S
H1342 C1336 0.930 . S
H1343 C1339 0.930 . S
C1344 N1345 1.314 . S
C1344 C1346 1.353 . S
C1344 H1350 0.930 . S
N1345 Li1321 1.990 . S
N1345 C1344 1.314 . S
N1345 C1348 1.279 . S
C1346 C1344 1.353 . S
C1346 C1349 1.348 . S
C1346 H1394 0.929 . S
C1347 C1348 1.358 . S
C1347 C1349 1.356 . S
C1347 H1395 0.930 . S
C1348 N1345 1.279 . S
C1348 C1347 1.358 . S
C1348 H1351 0.930 . S
C1349 C1346 1.348 . S
C1349 C1347 1.356 . S
H1350 C1344 0.930 . S
H1351 C1348 0.930 . S
C1352 C1354 1.348 . S
C1352 C1355 1.356 . S
C1352 O1382 1.325 . S
N1353 C1356 1.314 . S
N1353 C1357 1.279 . S
C1354 C1352 1.348 . S
C1354 C1356 1.353 . S
C1354 H1396 0.929 . S
C1355 C1352 1.356 . S
C1355 C1357 1.358 . S
C1355 H1397 0.930 . S
C1356 N1353 1.314 . S
C1356 C1354 1.353 . S
C1356 H1398 0.930 . S
C1357 N1353 1.279 . S
C1357 C1355 1.358 . S
C1357 H1399 0.930 . S
C1358 C1359 1.348 . S
C1358 C1360 1.356 . S
C1358 O1383 1.325 . S
C1359 C1358 1.348 . S
C1359 C1361 1.353 . S
C1359 H1400 0.929 . S
C1360 C1358 1.356 . S
C1360 C1362 1.358 . S
C1360 H1401 0.930 . S
C1361 C1359 1.353 . S
C1361 N1363 1.314 . S
C1361 H1402 0.930 . S
C1362 C1360 1.358 . S
C1362 N1363 1.279 . S
C1362 H1403 0.930 . S
N1363 C1361 1.314 . S
N1363 C1362 1.279 . S
C1364 C1366 1.353 . S
C1364 N1367 1.314 . S
C1364 H1370 0.930 . S
C1365 N1367 1.279 . S
C1365 C1368 1.358 . S
C1365 H1371 0.930 . S
C1366 C1364 1.353 . S
C1366 C1369 1.348 . S
C1366 H1404 0.929 . S
N1367 Li1322 1.990 . S
N1367 C1364 1.314 . S
N1367 C1365 1.279 . S
C1368 C1365 1.358 . S
C1368 C1369 1.356 . S
C1368 H1405 0.930 . S
C1369 C1366 1.348 . S
C1369 C1368 1.356 . S
H1370 C1364 0.930 . S
H1371 C1365 0.930 . S
C1372 N1373 1.314 . S
C1372 C1374 1.353 . S
C1372 H1378 0.930 . S
N1373 Li1323 1.990 . S
N1373 C1372 1.314 . S
N1373 C1376 1.279 . S
C1374 C1372 1.353 . S
C1374 C1377 1.348 . S
C1374 H1406 0.929 . S
C1375 C1376 1.358 . S
C1375 C1377 1.356 . S
C1375 H1407 0.930 . S
C1376 N1373 1.279 . S
C1376 C1375 1.358 . S
C1376 H1379 0.930 . S
C1377 C1374 1.348 . S
C1377 C1375 1.356 . S
H1378 C1372 0.930 . S
H1379 C1376 0.930 . S
O1380 Li1320 1.956 . S
O1380 Li1321 1.970 . S
O1380 Li1322 1.961 . S
O1380 C1324 1.325 . S
O1381 Li1320 1.970 . S
O1381 Li1321 1.956 . S
O1381 Li1323 1.961 . S
O1381 C1330 1.325 . S
O1382 Li1320 1.961 . S
O1382 Li1322 1.956 . S
O1382 Li1323 1.970 . S
O1382 C1352 1.325 . S
O1383 Li1321 1.961 . S
O1383 Li1322 1.970 . S
O1383 Li1323 1.956 . S
O1383 C1358 1.325 . S
H1384 C1326 0.929 . S
H1385 C1327 0.930 . S
H1386 C1328 0.930 . S
H1387 C1329 0.930 . S
H1388 C1331 0.930 . S
H1389 C1333 0.929 . S
H1390 C1334 0.930 . S
H1391 C1335 0.930 . S
H1392 C1338 0.930 . S
H1393 C1341 0.929 . S
H1394 C1346 0.929 . S
H1395 C1347 0.930 . S
H1396 C1354 0.929 . S
H1397 C1355 0.930 . S
H1398 C1356 0.930 . S
H1399 C1357 0.930 . S
H1400 C1359 0.929 . S
H1401 C1360 0.930 . S
H1402 C1361 0.930 . S
H1403 C1362 0.930 . S
H1404 C1366 0.929 . S
H1405 C1368 0.930 . S
H1406 C1374 0.929 . S
H1407 C1375 0.930 . S
H1408 C1414 0.930 . S
H1409 C1417 0.930 . S
H1410 C1418 0.930 . S
H1411 C1419 0.930 . S
H1412 C1422 0.930 . S
H1413 C1423 0.930 . S
C1414 H1408 0.930 . S
C1414 C1415 1.355 . S
C1414 C1416 1.415 . S
C1415 C1414 1.355 . S
C1415 C1417 1.419 . S
C1416 C1414 1.415 . S
C1416 C1421 1.425 . S
C1416 C1423 1.409 . S
C1417 H1409 0.930 . S
C1417 C1415 1.419 . S
C1417 C1418 1.362 . S
C1418 H1410 0.930 . S
C1418 C1417 1.362 . S
C1418 C1421 1.409 . S
C1419 H1411 0.930 . S
C1419 C1420 1.355 . S
C1419 C1421 1.415 . S
C1420 C1419 1.355 . S
C1420 C1422 1.419 . S
C1421 C1416 1.425 . S
C1421 C1418 1.409 . S
C1421 C1419 1.415 . S
C1422 H1412 0.930 . S
C1422 C1420 1.419 . S
C1422 C1423 1.362 . S
C1423 H1413 0.930 . S
C1423 C1416 1.409 . S
C1423 C1422 1.362 . S
H1424 C1430 0.930 . S
H1425 C1433 0.930 . S
H1426 C1434 0.930 . S
H1427 C1435 0.930 . S
H1428 C1438 0.930 . S
H1429 C1439 0.930 . S
C1430 H1424 0.930 . S
C1430 C1431 1.355 . S
C1430 C1432 1.415 . S
C1431 C1430 1.355 . S
C1431 C1433 1.419 . S
C1432 C1430 1.415 . S
C1432 C1437 1.425 . S
C1432 C1439 1.409 . S
C1433 H1425 0.930 . S
C1433 C1431 1.419 . S
C1433 C1434 1.362 . S
C1434 H1426 0.930 . S
C1434 C1433 1.362 . S
C1434 C1437 1.409 . S
C1435 H1427 0.930 . S
C1435 C1436 1.355 . S
C1435 C1437 1.415 . S
C1436 C1435 1.355 . S
C1436 C1438 1.419 . S
C1437 C1432 1.425 . S
C1437 C1434 1.409 . S
C1437 C1435 1.415 . S
C1438 H1428 0.930 . S
C1438 C1436 1.419 . S
C1438 C1439 1.362 . S
C1439 H1429 0.930 . S
C1439 C1432 1.409 . S
C1439 C1438 1.362 . S
H1440 C1446 0.930 . S
H1441 C1449 0.930 . S
H1442 C1450 0.930 . S
H1443 C1451 0.930 . S
H1444 C1454 0.930 . S
H1445 C1455 0.930 . S
C1446 H1440 0.930 . S
C1446 C1447 1.355 . S
C1446 C1448 1.415 . S
C1447 C1446 1.355 . S
C1447 C1449 1.419 . S
C1448 C1446 1.415 . S
C1448 C1453 1.425 . S
C1448 C1455 1.409 . S
C1449 H1441 0.930 . S
C1449 C1447 1.419 . S
C1449 C1450 1.362 . S
C1450 H1442 0.930 . S
C1450 C1449 1.362 . S
C1450 C1453 1.409 . S
C1451 H1443 0.930 . S
C1451 C1452 1.355 . S
C1451 C1453 1.415 . S
C1452 C1451 1.355 . S
C1452 C1454 1.419 . S
C1453 C1448 1.425 . S
C1453 C1450 1.409 . S
C1453 C1451 1.415 . S
C1454 H1444 0.930 . S
C1454 C1452 1.419 . S
C1454 C1455 1.362 . S
C1455 H1445 0.930 . S
C1455 C1448 1.409 . S
C1455 C1454 1.362 . S
H1456 C1462 0.930 . S
H1457 C1465 0.930 . S
H1458 C1466 0.930 . S
H1459 C1467 0.930 . S
H1460 C1470 0.930 . S
H1461 C1471 0.930 . S
C1462 H1456 0.930 . S
C1462 C1463 1.355 . S
C1462 C1464 1.415 . S
C1463 C1462 1.355 . S
C1463 C1465 1.419 . S
C1464 C1462 1.415 . S
C1464 C1469 1.425 . S
C1464 C1471 1.409 . S
C1465 H1457 0.930 . S
C1465 C1463 1.419 . S
C1465 C1466 1.362 . S
C1466 H1458 0.930 . S
C1466 C1465 1.362 . S
C1466 C1469 1.409 . S
C1467 H1459 0.930 . S
C1467 C1468 1.355 . S
C1467 C1469 1.415 . S
C1468 C1467 1.355 . S
C1468 C1470 1.419 . S
C1469 C1464 1.425 . S
C1469 C1466 1.409 . S
C1469 C1467 1.415 . S
C1470 H1460 0.930 . S
C1470 C1468 1.419 . S
C1470 C1471 1.362 . S
C1471 H1461 0.930 . S
C1471 C1464 1.409 . S
C1471 C1470 1.362 . S
H1472 C1478 0.930 . S
H1473 C1481 0.930 . S
H1474 C1482 0.930 . S
H1475 C1483 0.930 . S
H1476 C1486 0.930 . S
H1477 C1487 0.930 . S
C1478 H1472 0.930 . S
C1478 C1479 1.355 . S
C1478 C1480 1.415 . S
C1479 C1478 1.355 . S
C1479 C1481 1.419 . S
C1480 C1478 1.415 . S
C1480 C1485 1.425 . S
C1480 C1487 1.409 . S
C1481 H1473 0.930 . S
C1481 C1479 1.419 . S
C1481 C1482 1.362 . S
C1482 H1474 0.930 . S
C1482 C1481 1.362 . S
C1482 C1485 1.409 . S
C1483 H1475 0.930 . S
C1483 C1484 1.355 . S
C1483 C1485 1.415 . S
C1484 C1483 1.355 . S
C1484 C1486 1.419 . S
C1485 C1480 1.425 . S
C1485 C1482 1.409 . S
C1485 C1483 1.415 . S
C1486 H1476 0.930 . S
C1486 C1484 1.419 . S
C1486 C1487 1.362 . S
C1487 H1477 0.930 . S
C1487 C1480 1.409 . S
C1487 C1486 1.362 . S
H1488 C1494 0.930 . S
H1489 C1497 0.930 . S
H1490 C1498 0.930 . S
H1491 C1499 0.930 . S
H1492 C1502 0.930 . S
H1493 C1503 0.930 . S
C1494 H1488 0.930 . S
C1494 C1495 1.355 . S
C1494 C1496 1.415 . S
C1495 C1494 1.355 . S
C1495 C1497 1.419 . S
C1496 C1494 1.415 . S
C1496 C1501 1.425 . S
C1496 C1503 1.409 . S
C1497 H1489 0.930 . S
C1497 C1495 1.419 . S
C1497 C1498 1.362 . S
C1498 H1490 0.930 . S
C1498 C1497 1.362 . S
C1498 C1501 1.409 . S
C1499 H1491 0.930 . S
C1499 C1500 1.355 . S
C1499 C1501 1.415 . S
C1500 C1499 1.355 . S
C1500 C1502 1.419 . S
C1501 C1496 1.425 . S
C1501 C1498 1.409 . S
C1501 C1499 1.415 . S
C1502 H1492 0.930 . S
C1502 C1500 1.419 . S
C1502 C1503 1.362 . S
C1503 H1493 0.930 . S
C1503 C1496 1.409 . S
C1503 C1502 1.362 . S
H1504 C1510 0.930 . S
H1505 C1513 0.930 . S
H1506 C1514 0.930 . S
H1507 C1515 0.930 . S
H1508 C1518 0.930 . S
H1509 C1519 0.930 . S
C1510 H1504 0.930 . S
C1510 C1511 1.355 . S
C1510 C1512 1.415 . S
C1511 C1510 1.355 . S
C1511 C1513 1.419 . S
C1512 C1510 1.415 . S
C1512 C1517 1.425 . S
C1512 C1519 1.409 . S
C1513 H1505 0.930 . S
C1513 C1511 1.419 . S
C1513 C1514 1.362 . S
C1514 H1506 0.930 . S
C1514 C1513 1.362 . S
C1514 C1517 1.409 . S
C1515 H1507 0.930 . S
C1515 C1516 1.355 . S
C1515 C1517 1.415 . S
C1516 C1515 1.355 . S
C1516 C1518 1.419 . S
C1517 C1512 1.425 . S
C1517 C1514 1.409 . S
C1517 C1515 1.415 . S
C1518 H1508 0.930 . S
C1518 C1516 1.419 . S
C1518 C1519 1.362 . S
C1519 H1509 0.930 . S
C1519 C1512 1.409 . S
C1519 C1518 1.362 . S
H1520 C1526 0.930 . S
H1521 C1529 0.930 . S
H1522 C1530 0.930 . S
H1523 C1531 0.930 . S
H1524 C1534 0.930 . S
H1525 C1535 0.930 . S
C1526 H1520 0.930 . S
C1526 C1527 1.355 . S
C1526 C1528 1.415 . S
C1527 C1526 1.355 . S
C1527 C1529 1.419 . S
C1528 C1526 1.415 . S
C1528 C1533 1.425 . S
C1528 C1535 1.409 . S
C1529 H1521 0.930 . S
C1529 C1527 1.419 . S
C1529 C1530 1.362 . S
C1530 H1522 0.930 . S
C1530 C1529 1.362 . S
C1530 C1533 1.409 . S
C1531 H1523 0.930 . S
C1531 C1532 1.355 . S
C1531 C1533 1.415 . S
C1532 C1531 1.355 . S
C1532 C1534 1.419 . S
C1533 C1528 1.425 . S
C1533 C1530 1.409 . S
C1533 C1531 1.415 . S
C1534 H1524 0.930 . S
C1534 C1532 1.419 . S
C1534 C1535 1.362 . S
C1535 H1525 0.930 . S
C1535 C1528 1.409 . S
C1535 C1534 1.362 . S
H1536 C1542 0.930 . S
H1537 C1545 0.930 . S
H1538 C1546 0.930 . S
H1539 C1547 0.930 . S
H1540 C1550 0.930 . S
H1541 C1551 0.930 . S
C1542 H1536 0.930 . S
C1542 C1543 1.355 . S
C1542 C1544 1.415 . S
C1543 C1542 1.355 . S
C1543 C1545 1.419 . S
C1544 C1542 1.415 . S
C1544 C1549 1.425 1_556 S
C1544 C1551 1.409 1_556 S
C1545 H1537 0.930 . S
C1545 C1543 1.419 . S
C1545 C1546 1.362 . S
C1546 H1538 0.930 . S
C1546 C1545 1.362 . S
C1546 C1549 1.409 1_556 S
C1547 H1539 0.930 . S
C1547 C1548 1.355 . S
C1547 C1549 1.415 . S
C1548 C1547 1.355 . S
C1548 C1550 1.419 . S
C1549 C1544 1.425 1_554 S
C1549 C1546 1.409 1_554 S
C1549 C1547 1.415 . S
C1550 H1540 0.930 . S
C1550 C1548 1.419 . S
C1550 C1551 1.362 . S
C1551 H1541 0.930 . S
C1551 C1544 1.409 1_554 S
C1551 C1550 1.362 . S
H1552 C1558 0.930 . S
H1553 C1561 0.930 . S
H1554 C1562 0.930 . S
H1555 C1563 0.930 . S
H1556 C1566 0.930 . S
H1557 C1567 0.930 . S
C1558 H1552 0.930 . S
C1558 C1559 1.355 . S
C1558 C1560 1.415 . S
C1559 C1558 1.355 . S
C1559 C1561 1.419 . S
C1560 C1558 1.415 . S
C1560 C1565 1.425 1_556 S
C1560 C1567 1.409 1_556 S
C1561 H1553 0.930 . S
C1561 C1559 1.419 . S
C1561 C1562 1.362 . S
C1562 H1554 0.930 . S
C1562 C1561 1.362 . S
C1562 C1565 1.409 1_556 S
C1563 H1555 0.930 . S
C1563 C1564 1.355 . S
C1563 C1565 1.415 . S
C1564 C1563 1.355 . S
C1564 C1566 1.419 . S
C1565 C1560 1.425 1_554 S
C1565 C1562 1.409 1_554 S
C1565 C1563 1.415 . S
C1566 H1556 0.930 . S
C1566 C1564 1.419 . S
C1566 C1567 1.362 . S
C1567 H1557 0.930 . S
C1567 C1560 1.409 1_554 S
C1567 C1566 1.362 . S
H1568 C1574 0.930 . S
H1569 C1577 0.930 . S
H1570 C1578 0.930 . S
H1571 C1579 0.930 . S
H1572 C1582 0.930 . S
H1573 C1583 0.930 . S
C1574 H1568 0.930 . S
C1574 C1575 1.355 . S
C1574 C1576 1.415 . S
C1575 C1574 1.355 . S
C1575 C1577 1.419 . S
C1576 C1574 1.415 . S
C1576 C1581 1.425 1_556 S
C1576 C1583 1.409 1_556 S
C1577 H1569 0.930 . S
C1577 C1575 1.419 . S
C1577 C1578 1.362 . S
C1578 H1570 0.930 . S
C1578 C1577 1.362 . S
C1578 C1581 1.409 1_556 S
C1579 H1571 0.930 . S
C1579 C1580 1.355 . S
C1579 C1581 1.415 . S
C1580 C1579 1.355 . S
C1580 C1582 1.419 . S
C1581 C1576 1.425 1_554 S
C1581 C1578 1.409 1_554 S
C1581 C1579 1.415 . S
C1582 H1572 0.930 . S
C1582 C1580 1.419 . S
C1582 C1583 1.362 . S
C1583 H1573 0.930 . S
C1583 C1576 1.409 1_554 S
C1583 C1582 1.362 . S
H1584 C1590 0.930 . S
H1585 C1593 0.930 . S
H1586 C1594 0.930 . S
H1587 C1595 0.930 . S
H1588 C1598 0.930 . S
H1589 C1599 0.930 . S
C1590 H1584 0.930 . S
C1590 C1591 1.355 . S
C1590 C1592 1.415 . S
C1591 C1590 1.355 . S
C1591 C1593 1.419 . S
C1592 C1590 1.415 . S
C1592 C1597 1.425 1_554 S
C1592 C1599 1.409 1_554 S
C1593 H1585 0.930 . S
C1593 C1591 1.419 . S
C1593 C1594 1.362 . S
C1594 H1586 0.930 . S
C1594 C1593 1.362 . S
C1594 C1597 1.409 1_554 S
C1595 H1587 0.930 . S
C1595 C1596 1.355 . S
C1595 C1597 1.415 . S
C1596 C1595 1.355 . S
C1596 C1598 1.419 . S
C1597 C1592 1.425 1_556 S
C1597 C1594 1.409 1_556 S
C1597 C1595 1.415 . S
C1598 H1588 0.930 . S
C1598 C1596 1.419 . S
C1598 C1599 1.362 . S
C1599 H1589 0.930 . S
C1599 C1592 1.409 1_556 S
C1599 C1598 1.362 . S
H1600 C1606 0.930 . S
H1601 C1609 0.930 . S
H1602 C1610 0.930 . S
H1603 C1611 0.930 . S
H1604 C1614 0.930 . S
H1605 C1615 0.930 . S
C1606 H1600 0.930 . S
C1606 C1607 1.355 . S
C1606 C1608 1.415 . S
C1607 C1606 1.355 . S
C1607 C1609 1.419 . S
C1608 C1606 1.415 . S
C1608 C1613 1.425 . S
C1608 C1615 1.409 . S
C1609 H1601 0.930 . S
C1609 C1607 1.419 . S
C1609 C1610 1.362 . S
C1610 H1602 0.930 . S
C1610 C1609 1.362 . S
C1610 C1613 1.409 . S
C1611 H1603 0.930 . S
C1611 C1612 1.355 . S
C1611 C1613 1.415 . S
C1612 C1611 1.355 . S
C1612 C1614 1.419 . S
C1613 C1608 1.425 . S
C1613 C1610 1.409 . S
C1613 C1611 1.415 . S
C1614 H1604 0.930 . S
C1614 C1612 1.419 . S
C1614 C1615 1.362 . S
C1615 H1605 0.930 . S
C1615 C1608 1.409 . S
C1615 C1614 1.362 . S
H1616 C1622 0.930 . S
H1617 C1625 0.930 . S
H1618 C1626 0.930 . S
H1619 C1627 0.930 . S
H1620 C1630 0.930 . S
H1621 C1631 0.930 . S
C1622 H1616 0.930 . S
C1622 C1623 1.355 . S
C1622 C1624 1.415 . S
C1623 C1622 1.355 . S
C1623 C1625 1.419 . S
C1624 C1622 1.415 . S
C1624 C1629 1.425 . S
C1624 C1631 1.409 . S
C1625 H1617 0.930 . S
C1625 C1623 1.419 . S
C1625 C1626 1.362 . S
C1626 H1618 0.930 . S
C1626 C1625 1.362 . S
C1626 C1629 1.409 . S
C1627 H1619 0.930 . S
C1627 C1628 1.355 . S
C1627 C1629 1.415 . S
C1628 C1627 1.355 . S
C1628 C1630 1.419 . S
C1629 C1624 1.425 . S
C1629 C1626 1.409 . S
C1629 C1627 1.415 . S
C1630 H1620 0.930 . S
C1630 C1628 1.419 . S
C1630 C1631 1.362 . S
C1631 H1621 0.930 . S
C1631 C1624 1.409 . S
C1631 C1630 1.362 . S
H1632 C1638 0.930 . S
H1633 C1641 0.930 . S
H1634 C1642 0.930 . S
H1635 C1643 0.930 . S
H1636 C1646 0.930 . S
H1637 C1647 0.930 . S
C1638 H1632 0.930 . S
C1638 C1639 1.355 . S
C1638 C1640 1.415 . S
C1639 C1638 1.355 . S
C1639 C1641 1.419 . S
C1640 C1638 1.415 . S
C1640 C1645 1.425 . S
C1640 C1647 1.409 . S
C1641 H1633 0.930 . S
C1641 C1639 1.419 . S
C1641 C1642 1.362 . S
C1642 H1634 0.930 . S
C1642 C1641 1.362 . S
C1642 C1645 1.409 . S
C1643 H1635 0.930 . S
C1643 C1644 1.355 . S
C1643 C1645 1.415 . S
C1644 C1643 1.355 . S
C1644 C1646 1.419 . S
C1645 C1640 1.425 . S
C1645 C1642 1.409 . S
C1645 C1643 1.415 . S
C1646 H1636 0.930 . S
C1646 C1644 1.419 . S
C1646 C1647 1.362 . S
C1647 H1637 0.930 . S
C1647 C1640 1.409 . S
C1647 C1646 1.362 . S
H1648 C1654 0.930 . S
H1649 C1657 0.930 . S
H1650 C1658 0.930 . S
H1651 C1659 0.930 . S
H1652 C1662 0.930 . S
H1653 C1663 0.930 . S
C1654 H1648 0.930 . S
C1654 C1655 1.355 . S
C1654 C1656 1.415 . S
C1655 C1654 1.355 . S
C1655 C1657 1.419 . S
C1656 C1654 1.415 . S
C1656 C1661 1.425 . S
C1656 C1663 1.409 . S
C1657 H1649 0.930 . S
C1657 C1655 1.419 . S
C1657 C1658 1.362 . S
C1658 H1650 0.930 . S
C1658 C1657 1.362 . S
C1658 C1661 1.409 . S
C1659 H1651 0.930 . S
C1659 C1660 1.355 . S
C1659 C1661 1.415 . S
C1660 C1659 1.355 . S
C1660 C1662 1.419 . S
C1661 C1656 1.425 . S
C1661 C1658 1.409 . S
C1661 C1659 1.415 . S
C1662 H1652 0.930 . S
C1662 C1660 1.419 . S
C1662 C1663 1.362 . S
C1663 H1653 0.930 . S
C1663 C1656 1.409 . S
C1663 C1662 1.362 . S
H1664 C1670 0.930 . S
H1665 C1673 0.930 . S
H1666 C1674 0.930 . S
H1667 C1675 0.930 . S
H1668 C1678 0.930 . S
H1669 C1679 0.930 . S
C1670 H1664 0.930 . S
C1670 C1671 1.355 . S
C1670 C1672 1.415 . S
C1671 C1670 1.355 . S
C1671 C1673 1.419 . S
C1672 C1670 1.415 . S
C1672 C1677 1.425 . S
C1672 C1679 1.409 . S
C1673 H1665 0.930 . S
C1673 C1671 1.419 . S
C1673 C1674 1.362 . S
C1674 H1666 0.930 . S
C1674 C1673 1.362 . S
C1674 C1677 1.409 . S
C1675 H1667 0.930 . S
C1675 C1676 1.355 . S
C1675 C1677 1.415 . S
C1676 C1675 1.355 . S
C1676 C1678 1.419 . S
C1677 C1672 1.425 . S
C1677 C1674 1.409 . S
C1677 C1675 1.415 . S
C1678 H1668 0.930 . S
C1678 C1676 1.419 . S
C1678 C1679 1.362 . S
C1679 H1669 0.930 . S
C1679 C1672 1.409 . S
C1679 C1678 1.362 . S
H1680 C1686 0.930 . S
H1681 C1689 0.930 . S
H1682 C1690 0.930 . S
H1683 C1691 0.930 . S
H1684 C1694 0.930 . S
H1685 C1695 0.930 . S
C1686 H1680 0.930 . S
C1686 C1687 1.355 . S
C1686 C1688 1.415 . S
C1687 C1686 1.355 . S
C1687 C1689 1.419 . S
C1688 C1686 1.415 . S
C1688 C1693 1.425 . S
C1688 C1695 1.409 . S
C1689 H1681 0.930 . S
C1689 C1687 1.419 . S
C1689 C1690 1.362 . S
C1690 H1682 0.930 . S
C1690 C1689 1.362 . S
C1690 C1693 1.409 . S
C1691 H1683 0.930 . S
C1691 C1692 1.355 . S
C1691 C1693 1.415 . S
C1692 C1691 1.355 . S
C1692 C1694 1.419 . S
C1693 C1688 1.425 . S
C1693 C1690 1.409 . S
C1693 C1691 1.415 . S
C1694 H1684 0.930 . S
C1694 C1692 1.419 . S
C1694 C1695 1.362 . S
C1695 H1685 0.930 . S
C1695 C1688 1.409 . S
C1695 C1694 1.362 . S
H1696 C1702 0.930 . S
H1697 C1705 0.930 . S
H1698 C1706 0.930 . S
H1699 C1707 0.930 . S
H1700 C1710 0.930 . S
H1701 C1711 0.930 . S
C1702 H1696 0.930 . S
C1702 C1703 1.355 . S
C1702 C1704 1.415 . S
C1703 C1702 1.355 . S
C1703 C1705 1.419 . S
C1704 C1702 1.415 . S
C1704 C1709 1.425 . S
C1704 C1711 1.409 . S
C1705 H1697 0.930 . S
C1705 C1703 1.419 . S
C1705 C1706 1.362 . S
C1706 H1698 0.930 . S
C1706 C1705 1.362 . S
C1706 C1709 1.409 . S
C1707 H1699 0.930 . S
C1707 C1708 1.355 . S
C1707 C1709 1.415 . S
C1708 C1707 1.355 . S
C1708 C1710 1.419 . S
C1709 C1704 1.425 . S
C1709 C1706 1.409 . S
C1709 C1707 1.415 . S
C1710 H1700 0.930 . S
C1710 C1708 1.419 . S
C1710 C1711 1.362 . S
C1711 H1701 0.930 . S
C1711 C1704 1.409 . S
C1711 C1710 1.362 . S
H1712 C1718 0.930 . S
H1713 C1721 0.930 . S
H1714 C1722 0.930 . S
H1715 C1723 0.930 . S
H1716 C1726 0.930 . S
H1717 C1727 0.930 . S
C1718 H1712 0.930 . S
C1718 C1719 1.355 . S
C1718 C1720 1.415 . S
C1719 C1718 1.355 . S
C1719 C1721 1.419 . S
C1720 C1718 1.415 . S
C1720 C1725 1.425 . S
C1720 C1727 1.409 . S
C1721 H1713 0.930 . S
C1721 C1719 1.419 . S
C1721 C1722 1.362 . S
C1722 H1714 0.930 . S
C1722 C1721 1.362 . S
C1722 C1725 1.409 . S
C1723 H1715 0.930 . S
C1723 C1724 1.355 . S
C1723 C1725 1.415 . S
C1724 C1723 1.355 . S
C1724 C1726 1.419 . S
C1725 C1720 1.425 . S
C1725 C1722 1.409 . S
C1725 C1723 1.415 . S
C1726 H1716 0.930 . S
C1726 C1724 1.419 . S
C1726 C1727 1.362 . S
C1727 H1717 0.930 . S
C1727 C1720 1.409 . S
C1727 C1726 1.362 . S
H1728 C1734 0.930 . S
H1729 C1737 0.930 . S
H1730 C1738 0.930 . S
H1731 C1739 0.930 . S
H1732 C1742 0.930 . S
H1733 C1743 0.930 . S
C1734 H1728 0.930 . S
C1734 C1735 1.355 . S
C1734 C1736 1.415 . S
C1735 C1734 1.355 . S
C1735 C1737 1.419 . S
C1736 C1734 1.415 . S
C1736 C1741 1.425 . S
C1736 C1743 1.409 . S
C1737 H1729 0.930 . S
C1737 C1735 1.419 . S
C1737 C1738 1.362 . S
C1738 H1730 0.930 . S
C1738 C1737 1.362 . S
C1738 C1741 1.409 . S
C1739 H1731 0.930 . S
C1739 C1740 1.355 . S
C1739 C1741 1.415 . S
C1740 C1739 1.355 . S
C1740 C1742 1.419 . S
C1741 C1736 1.425 . S
C1741 C1738 1.409 . S
C1741 C1739 1.415 . S
C1742 H1732 0.930 . S
C1742 C1740 1.419 . S
C1742 C1743 1.362 . S
C1743 H1733 0.930 . S
C1743 C1736 1.409 . S
C1743 C1742 1.362 . S
H1744 C1750 0.930 . S
H1745 C1753 0.930 . S
H1746 C1754 0.930 . S
H1747 C1755 0.930 . S
H1748 C1758 0.930 . S
H1749 C1759 0.930 . S
C1750 H1744 0.930 . S
C1750 C1751 1.355 . S
C1750 C1752 1.415 . S
C1751 C1750 1.355 . S
C1751 C1753 1.419 . S
C1752 C1750 1.415 . S
C1752 C1757 1.425 . S
C1752 C1759 1.409 . S
C1753 H1745 0.930 . S
C1753 C1751 1.419 . S
C1753 C1754 1.362 . S
C1754 H1746 0.930 . S
C1754 C1753 1.362 . S
C1754 C1757 1.409 . S
C1755 H1747 0.930 . S
C1755 C1756 1.355 . S
C1755 C1757 1.415 . S
C1756 C1755 1.355 . S
C1756 C1758 1.419 . S
C1757 C1752 1.425 . S
C1757 C1754 1.409 . S
C1757 C1755 1.415 . S
C1758 H1748 0.930 . S
C1758 C1756 1.419 . S
C1758 C1759 1.362 . S
C1759 H1749 0.930 . S
C1759 C1752 1.409 . S
C1759 C1758 1.362 . S
H1760 C1766 0.930 . S
H1761 C1769 0.930 . S
H1762 C1770 0.930 . S
H1763 C1771 0.930 . S
H1764 C1774 0.930 . S
H1765 C1775 0.930 . S
C1766 H1760 0.930 . S
C1766 C1767 1.355 . S
C1766 C1768 1.415 . S
C1767 C1766 1.355 . S
C1767 C1769 1.419 . S
C1768 C1766 1.415 . S
C1768 C1773 1.425 . S
C1768 C1775 1.409 . S
C1769 H1761 0.930 . S
C1769 C1767 1.419 . S
C1769 C1770 1.362 . S
C1770 H1762 0.930 . S
C1770 C1769 1.362 . S
C1770 C1773 1.409 . S
C1771 H1763 0.930 . S
C1771 C1772 1.355 . S
C1771 C1773 1.415 . S
C1772 C1771 1.355 . S
C1772 C1774 1.419 . S
C1773 C1768 1.425 . S
C1773 C1770 1.409 . S
C1773 C1771 1.415 . S
C1774 H1764 0.930 . S
C1774 C1772 1.419 . S
C1774 C1775 1.362 . S
C1775 H1765 0.930 . S
C1775 C1768 1.409 . S
C1775 C1774 1.362 . S
H1776 C1782 0.930 . S
H1777 C1785 0.930 . S
H1778 C1786 0.930 . S
H1779 C1787 0.930 . S
H1780 C1790 0.930 . S
H1781 C1791 0.930 . S
C1782 H1776 0.930 . S
C1782 C1783 1.355 . S
C1782 C1784 1.415 . S
C1783 C1782 1.355 . S
C1783 C1785 1.419 . S
C1784 C1782 1.415 . S
C1784 C1789 1.425 . S
C1784 C1791 1.409 . S
C1785 H1777 0.930 . S
C1785 C1783 1.419 . S
C1785 C1786 1.362 . S
C1786 H1778 0.930 . S
C1786 C1785 1.362 . S
C1786 C1789 1.409 . S
C1787 H1779 0.930 . S
C1787 C1788 1.355 . S
C1787 C1789 1.415 . S
C1788 C1787 1.355 . S
C1788 C1790 1.419 . S
C1789 C1784 1.425 . S
C1789 C1786 1.409 . S
C1789 C1787 1.415 . S
C1790 H1780 0.930 . S
C1790 C1788 1.419 . S
C1790 C1791 1.362 . S
C1791 H1781 0.930 . S
C1791 C1784 1.409 . S
C1791 C1790 1.362 . S
H1792 C1798 0.930 . S
H1793 C1801 0.930 . S
H1794 C1802 0.930 1_565 S
H1795 C1803 0.930 . S
H1796 C1806 0.930 . S
H1797 C1807 0.930 1_545 S
C1798 H1792 0.930 . S
C1798 C1799 1.355 . S
C1798 C1800 1.415 . S
C1799 C1798 1.355 . S
C1799 C1801 1.419 . S
C1800 C1798 1.415 . S
C1800 C1805 1.425 1_545 S
C1800 C1807 1.409 1_545 S
C1801 H1793 0.930 . S
C1801 C1799 1.419 . S
C1801 C1802 1.362 . S
C1802 H1794 0.930 1_545 S
C1802 C1801 1.362 . S
C1802 C1805 1.409 1_545 S
C1803 H1795 0.930 . S
C1803 C1804 1.355 . S
C1803 C1805 1.415 . S
C1804 C1803 1.355 . S
C1804 C1806 1.419 . S
C1805 C1800 1.425 1_565 S
C1805 C1802 1.409 1_565 S
C1805 C1803 1.415 . S
C1806 H1796 0.930 . S
C1806 C1804 1.419 . S
C1806 C1807 1.362 . S
C1807 H1797 0.930 1_565 S
C1807 C1800 1.409 1_565 S
C1807 C1806 1.362 . S
H1808 C1814 0.930 . S
H1809 C1817 0.930 . S
H1810 C1818 0.934 . S
H1811 C1819 0.930 . S
H1812 C1822 0.930 . S
H1813 C1823 0.934 . S
C1814 H1808 0.930 . S
C1814 C1815 1.355 . S
C1814 C1816 1.415 . S
C1815 C1814 1.355 . S
C1815 C1817 1.419 . S
C1816 C1814 1.415 . S
C1816 C1821 1.425 1_655 S
C1816 C1823 1.411 . S
C1817 H1809 0.930 . S
C1817 C1815 1.419 . S
C1817 C1818 1.357 1_655 S
C1818 H1810 0.934 . S
C1818 C1817 1.357 1_455 S
C1818 C1821 1.411 . S
C1819 H1811 0.930 . S
C1819 C1820 1.355 . S
C1819 C1821 1.415 . S
C1820 C1819 1.355 . S
C1820 C1822 1.419 . S
C1821 C1816 1.425 1_455 S
C1821 C1818 1.411 . S
C1821 C1819 1.415 . S
C1822 H1812 0.930 . S
C1822 C1820 1.419 . S
C1822 C1823 1.357 1_455 S
C1823 H1813 0.934 . S
C1823 C1816 1.411 . S
C1823 C1822 1.357 1_655 S
H1824 C1830 0.930 . S
H1825 C1833 0.930 . S
H1826 C1834 0.930 . S
H1827 C1835 0.930 . S
H1828 C1838 0.930 . S
H1829 C1839 0.930 . S
C1830 H1824 0.930 . S
C1830 C1831 1.355 . S
C1830 C1832 1.397 1_545 S
C1831 C1830 1.355 . S
C1831 C1833 1.419 . S
C1832 C1830 1.397 1_565 S
C1832 C1837 1.424 1_565 S
C1832 C1839 1.427 . S
C1833 H1825 0.930 . S
C1833 C1831 1.419 . S
C1833 C1834 1.362 . S
C1834 H1826 0.930 . S
C1834 C1833 1.362 . S
C1834 C1837 1.427 . S
C1835 H1827 0.930 . S
C1835 C1836 1.355 . S
C1835 C1837 1.397 1_565 S
C1836 C1835 1.355 . S
C1836 C1838 1.419 . S
C1837 C1832 1.424 1_545 S
C1837 C1834 1.427 . S
C1837 C1835 1.397 1_545 S
C1838 H1828 0.930 . S
C1838 C1836 1.419 . S
C1838 C1839 1.362 . S
C1839 H1829 0.930 . S
C1839 C1832 1.427 . S
C1839 C1838 1.362 . S
H1840 C1846 0.930 . S
H1841 C1849 0.930 . S
H1842 C1850 0.930 . S
H1843 C1851 0.930 . S
H1844 C1854 0.930 . S
H1845 C1855 0.930 . S
C1846 H1840 0.930 . S
C1846 C1847 1.355 . S
C1846 C1848 1.415 . S
C1847 C1846 1.355 . S
C1847 C1849 1.419 . S
C1848 C1846 1.415 . S
C1848 C1853 1.425 1_455 S
C1848 C1855 1.409 1_455 S
C1849 H1841 0.930 . S
C1849 C1847 1.419 . S
C1849 C1850 1.362 . S
C1850 H1842 0.930 . S
C1850 C1849 1.362 . S
C1850 C1853 1.409 1_455 S
C1851 H1843 0.930 . S
C1851 C1852 1.355 . S
C1851 C1853 1.415 . S
C1852 C1851 1.355 . S
C1852 C1854 1.419 . S
C1853 C1848 1.425 1_655 S
C1853 C1850 1.409 1_655 S
C1853 C1851 1.415 . S
C1854 H1844 0.930 . S
C1854 C1852 1.419 . S
C1854 C1855 1.362 . S
C1855 H1845 0.930 . S
C1855 C1848 1.409 1_655 S
C1855 C1854 1.362 . S
H1856 C1862 0.930 . S
H1857 C1865 0.930 . S
H1858 C1866 0.930 1_565 S
H1859 C1867 0.930 . S
H1860 C1870 0.930 . S
H1861 C1871 0.930 1_545 S
C1862 H1856 0.930 . S
C1862 C1863 1.355 . S
C1862 C1864 1.415 . S
C1863 C1862 1.355 . S
C1863 C1865 1.419 . S
C1864 C1862 1.415 . S
C1864 C1869 1.425 1_545 S
C1864 C1871 1.409 1_545 S
C1865 H1857 0.930 . S
C1865 C1863 1.419 . S
C1865 C1866 1.362 . S
C1866 H1858 0.930 1_545 S
C1866 C1865 1.362 . S
C1866 C1869 1.409 1_545 S
C1867 H1859 0.930 . S
C1867 C1868 1.355 . S
C1867 C1869 1.415 . S
C1868 C1867 1.355 . S
C1868 C1870 1.419 . S
C1869 C1864 1.425 1_565 S
C1869 C1866 1.409 1_565 S
C1869 C1867 1.415 . S
C1870 H1860 0.930 . S
C1870 C1868 1.419 . S
C1870 C1871 1.362 . S
C1871 H1861 0.930 1_565 S
C1871 C1864 1.409 1_565 S
C1871 C1870 1.362 . S
H1872 C1878 0.930 . S
H1873 C1881 0.930 . S
H1874 C1882 0.930 . S
H1875 C1883 0.930 . S
H1876 C1886 0.930 . S
H1877 C1887 0.930 . S
C1878 H1872 0.930 . S
C1878 C1879 1.355 . S
C1878 C1880 1.415 . S
C1879 C1878 1.355 . S
C1879 C1881 1.419 . S
C1880 C1878 1.415 . S
C1880 C1885 1.425 1_655 S
C1880 C1887 1.409 1_655 S
C1881 H1873 0.930 . S
C1881 C1879 1.419 . S
C1881 C1882 1.362 . S
C1882 H1874 0.930 . S
C1882 C1881 1.362 . S
C1882 C1885 1.409 1_655 S
C1883 H1875 0.930 . S
C1883 C1884 1.355 . S
C1883 C1885 1.415 . S
C1884 C1883 1.355 . S
C1884 C1886 1.419 . S
C1885 C1880 1.425 1_455 S
C1885 C1882 1.409 1_455 S
C1885 C1883 1.415 . S
C1886 H1876 0.930 . S
C1886 C1884 1.419 . S
C1886 C1887 1.362 . S
C1887 H1877 0.930 . S
C1887 C1880 1.409 1_455 S
C1887 C1886 1.362 . S
H1888 C1894 0.930 . S
H1889 C1897 0.930 . S
H1890 C1898 0.930 . S
H1891 C1899 0.930 . S
H1892 C1902 0.930 . S
H1893 C1903 0.930 . S
C1894 H1888 0.930 . S
C1894 C1895 1.355 . S
C1894 C1896 1.415 . S
C1895 C1894 1.355 . S
C1895 C1897 1.419 . S
C1896 C1894 1.415 . S
C1896 C1901 1.425 1_565 S
C1896 C1903 1.409 1_565 S
C1897 H1889 0.930 . S
C1897 C1895 1.419 . S
C1897 C1898 1.362 . S
C1898 H1890 0.930 . S
C1898 C1897 1.362 . S
C1898 C1901 1.409 1_565 S
C1899 H1891 0.930 . S
C1899 C1900 1.355 . S
C1899 C1901 1.415 . S
C1900 C1899 1.355 . S
C1900 C1902 1.419 . S
C1901 C1896 1.425 1_545 S
C1901 C1898 1.409 1_545 S
C1901 C1899 1.415 . S
C1902 H1892 0.930 . S
C1902 C1900 1.419 . S
C1902 C1903 1.362 . S
C1903 H1893 0.930 . S
C1903 C1896 1.409 1_545 S
C1903 C1902 1.362 . S
H1904 C1910 0.930 . S
H1905 C1913 0.930 . S
H1906 C1914 0.926 1_655 S
H1907 C1915 0.930 . S
H1908 C1918 0.930 . S
H1909 C1919 0.926 1_455 S
C1910 H1904 0.930 . S
C1910 C1911 1.355 . S
C1910 C1912 1.415 . S
C1911 C1910 1.355 . S
C1911 C1913 1.419 . S
C1912 C1910 1.415 . S
C1912 C1917 1.425 1_455 S
C1912 C1919 1.407 1_455 S
C1913 H1905 0.930 . S
C1913 C1911 1.419 . S
C1913 C1914 1.369 . S
C1914 H1906 0.926 1_455 S
C1914 C1913 1.369 . S
C1914 C1917 1.407 1_455 S
C1915 H1907 0.930 . S
C1915 C1916 1.355 . S
C1915 C1917 1.415 . S
C1916 C1915 1.355 . S
C1916 C1918 1.419 . S
C1917 C1912 1.425 1_655 S
C1917 C1914 1.407 1_655 S
C1917 C1915 1.415 . S
C1918 H1908 0.930 . S
C1918 C1916 1.419 . S
C1918 C1919 1.369 . S
C1919 H1909 0.926 1_655 S
C1919 C1912 1.407 1_655 S
C1919 C1918 1.369 . S
C1415 C489 0.997 . S
C1420 C20 1.002 . S
C1431 C577 1.002 . S
C1436 C117 0.997 . S
C1447 C196 1.002 . S
C1452 C665 0.997 . S
C1463 C293 1.006 . S
C1468 C401 1.005 . S
C1479 C1173 1.006 . S
C1484 C753 1.005 . S
C1495 C1261 0.994 . S
C1500 C841 0.991 . S
C1511 C929 0.993 . S
C1516 C1349 0.991 . S
C1527 C1017 0.991 . S
C1532 C1085 0.994 . S
C1543 C909 1.503 . S
C1548 C57 1.494 . S
C1559 C997 1.500 . S
C1564 C137 1.496 . S
C1575 C733 1.494 . S
C1580 C233 1.503 . S
C1591 C313 1.496 . S
C1596 C821 1.500 . S
C1607 C1281 1.499 . S
C1612 C381 1.504 . S
C1623 C1369 1.495 . S
C1628 C469 1.505 . S
C1639 C557 1.494 . S
C1644 C1105 1.503 . S
C1655 C1193 1.502 . S
C1660 C645 1.501 . S
C1671 C409 1.448 . S
C1676 C29 1.419 . S
C1687 C108 1.429 . S
C1692 C497 1.442 . S
C1703 C205 1.418 . S
C1708 C585 1.447 . S
C1719 C673 1.448 . S
C1724 C284 1.418 . S
C1735 C724 1.460 . S
C1740 C1113 1.479 . S
C1751 C1201 1.472 . S
C1756 C812 1.470 . S
C1767 C900 1.479 . S
C1772 C1289 1.459 . S
C1783 C1377 1.450 . S
C1788 C988 1.471 . S
C1799 C1025 1.421 . S
C1804 C1164 1.448 . S
C1815 C761 1.429 . S
C1820 C1252 1.442 . S
C1831 C1340 1.430 . S
C1836 C849 1.430 . S
C1847 C937 1.448 . S
C1852 C1076 1.418 . S
C1863 C460 1.459 . S
C1868 C321 1.479 . S
C1879 C548 1.476 . S
C1884 C49 1.450 . S
C1895 C636 1.477 . S
C1900 C145 1.450 . S
C1911 C372 1.470 . S
C1916 C225 1.472 . S
