# Generated by pormake.
# Topology oof, (8)-cn, num edge types: 1
# Building blocks:
#     Node 0, Type 0, BuildingBlock: EBIMEJ_clean_sbu_0, # of connection points: 8
#     Node 1, Type 0, BuildingBlock: EBIMEJ_clean_sbu_0, # of connection points: 8
#     Node 2, Type 0, BuildingBlock: EBIMEJ_clean_sbu_0, # of connection points: 8
#     Node 3, Type 0, BuildingBlock: EBIMEJ_clean_sbu_0, # of connection points: 8
#     Edge 4, Type (0, 0), BuildingBlock: MIFKUJ_clean_linker_0, # of connection points: 2
#     Edge 5, Type (0, 0), BuildingBlock: MIFKUJ_clean_linker_0, # of connection points: 2
#     Edge 6, Type (0, 0), BuildingBlock: MIFKUJ_clean_linker_0, # of connection points: 2
#     Edge 7, Type (0, 0), BuildingBlock: MIFKUJ_clean_linker_0, # of connection points: 2
#     Edge 8, Type (0, 0), BuildingBlock: MIFKUJ_clean_linker_0, # of connection points: 2
#     Edge 9, Type (0, 0), BuildingBlock: MIFKUJ_clean_linker_0, # of connection points: 2
#     Edge 10, Type (0, 0), BuildingBlock: MIFKUJ_clean_linker_0, # of connection points: 2
#     Edge 11, Type (0, 0), BuildingBlock: MIFKUJ_clean_linker_0, # of connection points: 2
#     Edge 12, Type (0, 0), BuildingBlock: MIFKUJ_clean_linker_0, # of connection points: 2
#     Edge 13, Type (0, 0), BuildingBlock: MIFKUJ_clean_linker_0, # of connection points: 2
#     Edge 14, Type (0, 0), BuildingBlock: MIFKUJ_clean_linker_0, # of connection points: 2
#     Edge 15, Type (0, 0), BuildingBlock: MIFKUJ_clean_linker_0, # of connection points: 2
#     Edge 16, Type (0, 0), BuildingBlock: MIFKUJ_clean_linker_0, # of connection points: 2
#     Edge 17, Type (0, 0), BuildingBlock: MIFKUJ_clean_linker_0, # of connection points: 2
#     Edge 18, Type (0, 0), BuildingBlock: MIFKUJ_clean_linker_0, # of connection points: 2
#     Edge 19, Type (0, 0), BuildingBlock: MIFKUJ_clean_linker_0, # of connection points: 2
# Relax obj value: 0.057
# Max RMSD: 0.158
# Mean RMSD: 0.158
data_MOF--net-oof--node1-EBIMEJ_clean_sbu_0--edge1-MIFKUJ_clean_linker_0
_symmetry_space_group_name_H-M    P1
_symmetry_Int_Tables_number       1
_symmetry_cell_setting            triclinic
loop_
_symmetry_equiv_pos_as_xyz
'x, y, z'
_cell_length_a     19.146407
_cell_length_b     83.492235
_cell_length_c     22.177732
_cell_angle_alpha  79.941691
_cell_angle_beta   123.9041
_cell_angle_gamma 96.078738
loop_
_atom_site_label
_atom_site_type_symbol
_atom_site_fract_x
_atom_site_fract_y
_atom_site_fract_z
_atom_type_partial_charge
Co0 Co 0.9846 0.17429 0.30107 0.0
Co1 Co 0.97875 0.15802 0.17413 0.0
Co2 Co 0.9938 0.13629 0.30514 0.0
H3 H 0.00255 0.15535 0.29507 0.0
O4 O 0.03518 0.15872 0.28022 0.0
H5 H 0.98256 0.13855 0.18911 0.0
O6 O 0.94825 0.13474 0.20155 0.0
Co7 Co 0.0141 0.11982 0.19203 0.0
O8 O 0.97505 0.13007 0.08736 0.0
O9 O 0.93071 0.1555 0.06924 0.0
O10 O 0.02608 0.10246 0.27491 0.0
O11 O 0.96741 0.11297 0.32347 0.0
O12 O 0.00628 0.19085 0.36929 0.0
O13 O 0.08128 0.19104 0.32878 0.0
O14 O 0.11469 0.13129 0.26812 0.0
O15 O 0.09261 0.1545 0.19655 0.0
C16 C 0.01692 0.15022 0.43178 0.0
C17 C 0.95196 0.19299 0.16053 0.0
C18 C 0.01784 0.09496 0.14435 0.0
C19 C 0.83398 0.15415 0.22348 0.0
C20 C 0.94201 0.14352 0.0462 0.0
C21 C 0.99641 0.101 0.31507 0.0
C22 C 0.06664 0.19769 0.36705 0.0
C23 C 0.14294 0.14347 0.24501 0.0
O24 O 0.99205 0.16423 0.39406 0.0
O25 O 0.03087 0.13867 0.40842 0.0
O26 O 0.9878 0.1825 0.15011 0.0
O27 O 0.93089 0.18977 0.2067 0.0
O28 O 0.05794 0.09662 0.21098 0.0
O29 O 0.97595 0.10745 0.10467 0.0
O30 O 0.86719 0.16814 0.22372 0.0
O31 O 0.8767 0.14176 0.26694 0.0
Co32 Co 0.00974 0.92256 0.82912 0.0
Co33 Co 0.03822 0.90632 0.72062 0.0
Co34 Co 0.04871 0.8847 0.84955 0.0
H35 H 0.04429 0.90409 0.834 0.0
O36 O 0.08008 0.90795 0.82326 0.0
H37 H 0.03142 0.88718 0.73134 0.0
O38 O 0.99744 0.88379 0.7446 0.0
Co39 Co 0.0512 0.86816 0.72736 0.0
O40 O 0.03788 0.87815 0.63169 0.0
O41 O 0.00219 0.90394 0.6179 0.0
O42 O 0.10619 0.85347 0.82426 0.0
O43 O 0.03994 0.86032 0.87351 0.0
O44 O 0.96739 0.9459 0.81053 0.0
O45 O 0.04615 0.93465 0.91674 0.0
O46 O 0.16772 0.87482 0.80357 0.0
O47 O 0.15642 0.90113 0.7591 0.0
C48 C 0.07713 0.89911 0.97461 0.0
C49 C 0.03022 0.9415 0.70796 0.0
C50 C 0.97781 0.84401 0.66353 0.0
C51 C 0.87967 0.89815 0.76651 0.0
C52 C 0.01358 0.89219 0.59396 0.0
C53 C 0.08201 0.8502 0.86824 0.0
C54 C 0.00576 0.9473 0.87733 0.0
C55 C 0.20074 0.88869 0.80048 0.0
O56 O 0.04444 0.9125 0.9328 0.0
O57 O 0.09069 0.8872 0.95297 0.0
O58 O 0.06294 0.92973 0.70216 0.0
O59 O 0.99764 0.93981 0.7459 0.0
O60 O 0.0519 0.84399 0.71872 0.0
O61 O 0.94565 0.85785 0.64361 0.0
O62 O 0.90503 0.91206 0.75209 0.0
O63 O 0.93101 0.88772 0.81885 0.0
Co64 Co 0.46444 0.6754 0.27829 0.0
Co65 Co 0.46956 0.65773 0.1613 0.0
Co66 Co 0.48801 0.63731 0.2961 0.0
H67 H 0.48976 0.65641 0.27983 0.0
O68 O 0.52244 0.65986 0.26522 0.0
H69 H 0.47797 0.63843 0.18103 0.0
O70 O 0.44429 0.63447 0.19412 0.0
Co71 Co 0.51466 0.62001 0.18788 0.0
O72 O 0.48599 0.62992 0.08574 0.0
O73 O 0.42639 0.65414 0.05898 0.0
O74 O 0.51815 0.60271 0.26722 0.0
O75 O 0.46922 0.61387 0.32196 0.0
O76 O 0.46301 0.69972 0.28471 0.0
O77 O 0.56965 0.68605 0.36079 0.0
O78 O 0.61922 0.63146 0.26041 0.0
O79 O 0.58697 0.65544 0.19019 0.0
C80 C 0.50483 0.65288 0.41553 0.0
C81 C 0.42986 0.69222 0.13497 0.0
C82 C 0.51765 0.59468 0.14243 0.0
C83 C 0.32147 0.65324 0.21112 0.0
C84 C 0.44777 0.64267 0.04092 0.0
C85 C 0.49336 0.60158 0.31091 0.0
C86 C 0.53712 0.69987 0.3398 0.0
C87 C 0.64108 0.64549 0.24302 0.0
O88 O 0.47345 0.66613 0.37257 0.0
O89 O 0.52457 0.64116 0.39728 0.0
O90 O 0.47314 0.68204 0.13147 0.0
O91 O 0.40655 0.68934 0.17959 0.0
O92 O 0.55817 0.59661 0.2088 0.0
O93 O 0.47593 0.60713 0.10208 0.0
O94 O 0.35095 0.66721 0.20309 0.0
O95 O 0.36898 0.64164 0.25789 0.0
Co96 Co 0.50161 0.42294 0.8188 0.0
Co97 Co 0.54202 0.40587 0.72014 0.0
Co98 Co 0.55225 0.38543 0.85105 0.0
H99 H 0.54247 0.40467 0.83006 0.0
O100 O 0.57844 0.40877 0.81987 0.0
H101 H 0.54006 0.38688 0.73623 0.0
O102 O 0.50545 0.38332 0.74854 0.0
Co103 Co 0.56696 0.368 0.73904 0.0
O104 O 0.57753 0.37805 0.65528 0.0
O105 O 0.51248 0.40183 0.62169 0.0
O106 O 0.61984 0.35367 0.8363 0.0
O107 O 0.54907 0.36098 0.88068 0.0
O108 O 0.46172 0.44654 0.79985 0.0
O109 O 0.54035 0.4353 0.90611 0.0
O110 O 0.68123 0.37573 0.81444 0.0
O111 O 0.66336 0.40174 0.76459 0.0
C112 C 0.55456 0.40005 0.96197 0.0
C113 C 0.53331 0.44155 0.70261 0.0
C114 C 0.48384 0.34467 0.67294 0.0
C115 C 0.37777 0.39707 0.76249 0.0
C116 C 0.54404 0.3909 0.60986 0.0
C117 C 0.59209 0.3506 0.87765 0.0
C118 C 0.501 0.44803 0.86665 0.0
C119 C 0.71074 0.38987 0.80915 0.0
O120 O 0.51357 0.41211 0.91343 0.0
O121 O 0.58796 0.38931 0.95094 0.0
O122 O 0.5616 0.42932 0.6951 0.0
O123 O 0.50261 0.44033 0.74192 0.0
O124 O 0.54611 0.35105 0.67266 0.0
O125 O 0.46832 0.35166 0.70978 0.0
O126 O 0.39866 0.41125 0.74562 0.0
O127 O 0.4321 0.38725 0.81605 0.0
H128 H 0.88103 0.12052 0.9546 0.0
H129 H 0.88451 0.12112 0.84588 0.0
H130 H 0.975 0.17074 0.8621 0.0
H131 H 0.96893 0.17031 0.96995 0.0
H132 H 0.88865 0.16781 0.72809 0.0
H133 H 0.10236 0.13386 0.93875 0.0
H134 H 0.15775 0.11109 0.03988 0.0
H135 H 0.02722 0.07703 0.88563 0.0
H136 H 0.96968 0.09966 0.78317 0.0
H137 H 0.07407 0.17154 0.52983 0.0
H138 H 0.06065 0.16945 0.63411 0.0
H139 H 0.95463 0.12119 0.59585 0.0
H140 H 0.97254 0.12295 0.49336 0.0
H141 H 0.0453 0.12261 0.73836 0.0
H142 H 0.82839 0.15645 0.52859 0.0
H143 H 0.77633 0.17923 0.42702 0.0
H144 H 0.91618 0.21312 0.58134 0.0
H145 H 0.96979 0.19052 0.68381 0.0
C146 C 0.90009 0.13168 0.93412 0.0
C147 C 0.92537 0.14533 0.97135 0.0
C148 C 0.90306 0.13195 0.87227 0.0
C149 C 0.9343 0.1457 0.84748 0.0
C150 C 0.95283 0.15981 0.88097 0.0
C151 C 0.94853 0.15963 0.94232 0.0
C152 C 0.95168 0.14516 0.78959 0.0
C153 C 0.92372 0.15798 0.73112 0.0
C154 C 0.99598 0.13217 0.79173 0.0
C155 C 0.03154 0.11852 0.85321 0.0
C156 C 0.08559 0.12155 0.92627 0.0
C157 C 0.11727 0.10867 0.98386 0.0
C158 C 0.09641 0.09265 0.96921 0.0
C159 C 0.04354 0.08947 0.89684 0.0
C160 C 0.01129 0.10233 0.83895 0.0
C161 C 0.04967 0.16032 0.54466 0.0
C162 C 0.02391 0.14744 0.50304 0.0
C163 C 0.04111 0.1592 0.60394 0.0
C164 C 0.00371 0.14539 0.62167 0.0
C165 C 0.98285 0.13207 0.58308 0.0
C166 C 0.99339 0.13304 0.52461 0.0
C167 C 0.98273 0.14529 0.67763 0.0
C168 C 0.00999 0.13237 0.73552 0.0
C169 C 0.9379 0.15815 0.67515 0.0
C170 C 0.90336 0.1718 0.61379 0.0
C171 C 0.84806 0.16877 0.54082 0.0
C172 C 0.81835 0.18164 0.48311 0.0
C173 C 0.84301 0.19762 0.49772 0.0
C174 C 0.89711 0.20075 0.57012 0.0
C175 C 0.92704 0.18791 0.62804 0.0
H176 H 0.82014 0.20757 0.45296 0.0
H177 H 0.12099 0.08275 0.01407 0.0
H178 H 0.96364 0.86995 0.5009 0.0
H179 H 0.97279 0.87218 0.39433 0.0
H180 H 0.05571 0.92209 0.41837 0.0
H181 H 0.04404 0.92004 0.52447 0.0
H182 H 0.95709 0.91793 0.2733 0.0
H183 H 0.19932 0.89191 0.49125 0.0
H184 H 0.26825 0.87183 0.60323 0.0
H185 H 0.1574 0.83286 0.47279 0.0
H186 H 0.08644 0.85273 0.36001 0.0
H187 H 0.13206 0.92237 0.06406 0.0
H188 H 0.12534 0.92166 0.17123 0.0
H189 H 0.0426 0.87156 0.15751 0.0
H190 H 0.05126 0.87214 0.05068 0.0
H191 H 0.14444 0.87674 0.29894 0.0
H192 H 0.90017 0.90329 0.0805 0.0
H193 H 0.83345 0.92365 0.96936 0.0
H194 H 0.95215 0.96217 0.10176 0.0
H195 H 0.02087 0.942 0.21375 0.0
C196 C 0.98225 0.88152 0.4827 0.0
C197 C 0.0039 0.89478 0.52162 0.0
C198 C 0.98786 0.88276 0.42187 0.0
C199 C 0.01727 0.89716 0.39934 0.0
C200 C 0.03349 0.9108 0.43493 0.0
C201 C 0.02661 0.90964 0.49548 0.0
C202 C 0.03687 0.89744 0.34263 0.0
C203 C 0.99885 0.90906 0.27938 0.0
C204 C 0.09083 0.88577 0.34986 0.0
C205 C 0.13693 0.87381 0.41724 0.0
C206 C 0.18939 0.87906 0.48646 0.0
C207 C 0.22857 0.86772 0.55009 0.0
C208 C 0.21663 0.85108 0.54515 0.0
C209 C 0.16623 0.84575 0.47652 0.0
C210 C 0.12657 0.85705 0.41271 0.0
C211 C 0.114 0.9111 0.08471 0.0
C212 C 0.09157 0.89734 0.04854 0.0
C213 C 0.10964 0.91074 0.1458 0.0
C214 C 0.08097 0.89671 0.17134 0.0
C215 C 0.06419 0.88258 0.13854 0.0
C216 C 0.06964 0.88288 0.07773 0.0
C217 C 0.06403 0.89711 0.22922 0.0
C218 C 0.10273 0.88563 0.29283 0.0
C219 C 0.01109 0.90896 0.2224 0.0
C220 C 0.96618 0.92112 0.15549 0.0
C221 C 0.91218 0.9161 0.08593 0.0
C222 C 0.87421 0.9276 0.02278 0.0
C223 C 0.88873 0.94419 0.0285 0.0
C224 C 0.94095 0.94931 0.09745 0.0
C225 C 0.97941 0.93785 0.16079 0.0
H226 H 0.85943 0.95308 0.97952 0.0
H227 H 0.24702 0.84232 0.59449 0.0
H228 H 0.44367 0.67065 0.95228 0.0
H229 H 0.45153 0.67248 0.8444 0.0
H230 H 0.43491 0.62018 0.85827 0.0
H231 H 0.42696 0.61836 0.96506 0.0
H232 H 0.56478 0.63134 0.84867 0.0
H233 H 0.27128 0.64445 0.71909 0.0
H234 H 0.15064 0.65976 0.69061 0.0
H235 H 0.25321 0.70396 0.6369 0.0
H236 H 0.3748 0.68893 0.66557 0.0
H237 H 0.50821 0.62485 0.50404 0.0
H238 H 0.49877 0.62298 0.61112 0.0
H239 H 0.50974 0.67532 0.5947 0.0
H240 H 0.51821 0.67726 0.48816 0.0
H241 H 0.38271 0.66408 0.60569 0.0
H242 H 0.67575 0.6514 0.73503 0.0
H243 H 0.79753 0.63645 0.76377 0.0
H244 H 0.69822 0.59195 0.819 0.0
H245 H 0.57537 0.60662 0.78991 0.0
C246 C 0.43955 0.65959 0.93112 0.0
C247 C 0.43544 0.64433 0.96774 0.0
C248 C 0.44449 0.66063 0.86965 0.0
C249 C 0.44454 0.64644 0.84341 0.0
C250 C 0.4361 0.63129 0.87783 0.0
C251 C 0.43137 0.63027 0.93896 0.0
C252 C 0.45752 0.64715 0.78262 0.0
C253 C 0.52424 0.63834 0.79521 0.0
C254 C 0.40612 0.65657 0.71337 0.0
C255 C 0.33259 0.66559 0.69528 0.0
C256 C 0.26839 0.65745 0.70169 0.0
C257 C 0.19979 0.66608 0.68543 0.0
C258 C 0.19446 0.68283 0.66229 0.0
C259 C 0.25755 0.69099 0.65505 0.0
C260 C 0.32619 0.68242 0.6711 0.0
C261 C 0.51035 0.63592 0.52427 0.0
C262 C 0.5134 0.65119 0.4872 0.0
C263 C 0.50471 0.63485 0.58538 0.0
C264 C 0.50301 0.64903 0.61089 0.0
C265 C 0.50993 0.66421 0.57577 0.0
C266 C 0.51512 0.66529 0.51488 0.0
C267 C 0.48999 0.64827 0.6717 0.0
C268 C 0.42327 0.65707 0.65912 0.0
C269 C 0.5416 0.63889 0.74104 0.0
C270 C 0.61588 0.63007 0.75944 0.0
C271 C 0.67956 0.63841 0.75276 0.0
C272 C 0.7488 0.62999 0.76915 0.0
C273 C 0.75536 0.61325 0.79279 0.0
C274 C 0.69285 0.6049 0.80036 0.0
C275 C 0.62352 0.61327 0.78412 0.0
H276 H 0.80912 0.60675 0.80563 0.0
H277 H 0.14126 0.68949 0.64963 0.0
H278 H 0.64982 0.37933 0.09176 0.0
H279 H 0.65136 0.37786 0.20429 0.0
H280 H 0.46587 0.41576 0.09846 0.0
H281 H 0.46526 0.41759 0.98834 0.0
H282 H 0.58274 0.42174 0.2296 0.0
H283 H 0.41237 0.37533 0.12211 0.0
H284 H 0.38041 0.34944 0.07195 0.0
H285 H 0.58767 0.3268 0.27686 0.0
H286 H 0.62154 0.35263 0.32791 0.0
H287 H 0.44899 0.41142 0.48012 0.0
H288 H 0.45109 0.4134 0.36916 0.0
H289 H 0.64643 0.37737 0.47981 0.0
H290 H 0.64368 0.37509 0.58893 0.0
H291 H 0.52506 0.37052 0.34672 0.0
H292 H 0.68631 0.41801 0.45445 0.0
H293 H 0.70864 0.44414 0.50055 0.0
H294 H 0.50527 0.46516 0.28903 0.0
H295 H 0.4813 0.4391 0.24188 0.0
C296 C 0.60965 0.38733 0.09279 0.0
C297 C 0.55792 0.39861 0.03108 0.0
C298 C 0.61029 0.38646 0.15687 0.0
C299 C 0.55844 0.39669 0.15958 0.0
C300 C 0.50689 0.40785 0.09796 0.0
C301 C 0.50669 0.40882 0.03475 0.0
C302 C 0.55688 0.39603 0.22603 0.0
C303 C 0.56948 0.41055 0.25489 0.0
C304 C 0.54007 0.38144 0.25925 0.0
C305 C 0.5201 0.36595 0.2285 0.0
C306 C 0.45159 0.36487 0.15622 0.0
C307 C 0.43302 0.3502 0.12769 0.0
C308 C 0.48211 0.3365 0.17112 0.0
C309 C 0.54979 0.33743 0.24324 0.0
C310 C 0.56869 0.35207 0.27201 0.0
C311 C 0.4924 0.40399 0.48059 0.0
C312 C 0.54551 0.39301 0.54302 0.0
C313 C 0.49368 0.40513 0.41739 0.0
C314 C 0.54898 0.3955 0.41641 0.0
C315 C 0.60274 0.38479 0.47911 0.0
C316 C 0.601 0.38353 0.54155 0.0
C317 C 0.55111 0.39622 0.35031 0.0
C318 C 0.53854 0.38169 0.32151 0.0
C319 C 0.56669 0.41086 0.31652 0.0
C320 C 0.58165 0.42656 0.34483 0.0
C321 C 0.64613 0.42818 0.41788 0.0
C322 C 0.6591 0.44299 0.44419 0.0
C323 C 0.60825 0.4563 0.39781 0.0
C324 C 0.54455 0.45484 0.32493 0.0
C325 C 0.53134 0.44006 0.29837 0.0
H326 H 0.61829 0.46774 0.41831 0.0
H327 H 0.46759 0.32515 0.14896 0.0
H328 H 0.71852 0.17742 0.1763 0.0
H329 H 0.57397 0.17202 0.14092 0.0
H330 H 0.59803 0.12182 0.13164 0.0
H331 H 0.74399 0.12705 0.16934 0.0
H332 H 0.42046 0.15761 0.0544 0.0
H333 H 0.5678 0.10029 0.25068 0.0
H334 H 0.70832 0.08787 0.33534 0.0
H335 H 0.81944 0.13505 0.3875 0.0
H336 H 0.67968 0.14765 0.30386 0.0
H337 H 0.15155 0.12186 0.17381 0.0
H338 H 0.26134 0.12025 0.15058 0.0
H339 H 0.40536 0.15724 0.28838 0.0
H340 H 0.29378 0.15934 0.31 0.0
H341 H 0.48654 0.12404 0.28835 0.0
H342 H 0.32967 0.17433 0.15871 0.0
H343 H 0.20172 0.1908 0.07838 0.0
H344 H 0.12682 0.16419 0.90175 0.0
H345 H 0.25234 0.14693 0.9826 0.0
C346 C 0.69192 0.16541 0.16378 0.0
C347 C 0.74261 0.15244 0.17872 0.0
C348 C 0.60906 0.16237 0.14275 0.0
C349 C 0.57713 0.1464 0.13638 0.0
C350 C 0.62283 0.13414 0.13793 0.0
C351 C 0.70617 0.1371 0.1602 0.0
C352 C 0.51104 0.14206 0.15069 0.0
C353 C 0.43374 0.14996 0.10448 0.0
C354 C 0.53029 0.13247 0.21748 0.0
C355 C 0.61365 0.12487 0.27091 0.0
C356 C 0.62225 0.10795 0.28079 0.0
C357 C 0.70174 0.1009 0.32844 0.0
C358 C 0.77282 0.11066 0.36676 0.0
C359 C 0.76448 0.12748 0.35795 0.0
C360 C 0.68517 0.13458 0.31052 0.0
C361 C 0.20758 0.12938 0.20031 0.0
C362 C 0.21538 0.14073 0.24351 0.0
C363 C 0.26942 0.12849 0.18669 0.0
C364 C 0.3395 0.13881 0.21678 0.0
C365 C 0.35068 0.14929 0.26462 0.0
C366 C 0.28761 0.15049 0.27686 0.0
C367 C 0.39661 0.13976 0.19232 0.0
C368 C 0.47185 0.13118 0.23684 0.0
C369 C 0.3765 0.14913 0.12512 0.0
C370 C 0.29896 0.15896 0.07754 0.0
C371 C 0.28454 0.17159 0.10361 0.0
C372 C 0.21264 0.18114 0.05784 0.0
C373 C 0.15571 0.17844 0.98522 0.0
C374 C 0.17048 0.16616 0.95829 0.0
C375 C 0.24172 0.15641 1.00423 0.0
H376 H 0.10066 0.186 0.94967 0.0
H377 H 0.83432 0.10519 0.40326 0.0
H378 H 0.79955 0.86938 0.76982 0.0
H379 H 0.66362 0.86678 0.75605 0.0
H380 H 0.61991 0.91795 0.67453 0.0
H381 H 0.75511 0.9207 0.68711 0.0
H382 H 0.67105 0.90704 0.82595 0.0
H383 H 0.45589 0.89725 0.58051 0.0
H384 H 0.38868 0.8841 0.46886 0.0
H385 H 0.40289 0.83766 0.59402 0.0
H386 H 0.46926 0.85059 0.70627 0.0
H387 H 0.29634 0.91581 0.80728 0.0
H388 H 0.42852 0.91598 0.81569 0.0
H389 H 0.44349 0.86384 0.87527 0.0
H390 H 0.3114 0.86349 0.86736 0.0
H391 H 0.40767 0.87452 0.73527 0.0
H392 H 0.61359 0.88511 0.97971 0.0
H393 H 0.68263 0.89847 0.09088 0.0
H394 H 0.68898 0.9438 0.968 0.0
H395 H 0.62 0.93072 0.85608 0.0
C396 C 0.75932 0.87993 0.74581 0.0
C397 C 0.78913 0.89538 0.73284 0.0
C398 C 0.68123 0.87837 0.73703 0.0
C399 C 0.63345 0.89227 0.71589 0.0
C400 C 0.65676 0.90715 0.69123 0.0
C401 C 0.73443 0.9087 0.69923 0.0
C402 C 0.57992 0.89234 0.74364 0.0
C403 C 0.61225 0.90025 0.80526 0.0
C404 C 0.50637 0.88277 0.71859 0.0
C405 C 0.46833 0.87486 0.65183 0.0
C406 C 0.44532 0.88422 0.58429 0.0
C407 C 0.40701 0.87682 0.52085 0.0
C408 C 0.39193 0.86004 0.52442 0.0
C409 C 0.41497 0.85064 0.59142 0.0
C410 C 0.45243 0.85801 0.65486 0.0
C411 C 0.32948 0.90446 0.82525 0.0
C412 C 0.29182 0.88956 0.8331 0.0
C413 C 0.40551 0.9046 0.83077 0.0
C414 C 0.44403 0.88987 0.84431 0.0
C415 C 0.41363 0.87528 0.864 0.0
C416 C 0.33788 0.87513 0.85896 0.0
C417 C 0.49834 0.88937 0.8175 0.0
C418 C 0.46643 0.88132 0.75615 0.0
C419 C 0.57235 0.89887 0.84279 0.0
C420 C 0.6108 0.90696 0.90929 0.0
C421 C 0.62879 0.89797 0.97618 0.0
C422 C 0.66833 0.90548 0.03943 0.0
C423 C 0.68997 0.92198 0.03647 0.0
C424 C 0.67198 0.93103 0.97019 0.0
C425 C 0.63298 0.92356 0.9069 0.0
H426 H 0.72095 0.92775 0.08557 0.0
H427 H 0.362 0.85434 0.47522 0.0
H428 H 0.77173 0.62432 0.32893 0.0
H429 H 0.90466 0.62728 0.33743 0.0
H430 H 0.84654 0.6772 0.23566 0.0
H431 H 0.7132 0.6744 0.2265 0.0
H432 H 0.8535 0.63421 0.1875 0.0
H433 H 0.04063 0.69482 0.27037 0.0
H434 H 0.1012 0.71143 0.37076 0.0
H435 H 0.11165 0.66926 0.51735 0.0
H436 H 0.0519 0.65237 0.41816 0.0
H437 H 0.20255 0.67687 0.12831 0.0
H438 H 0.06802 0.67643 0.11625 0.0
H439 H 0.09971 0.62551 0.20529 0.0
H440 H 0.23392 0.62576 0.21743 0.0
H441 H 0.10281 0.67008 0.25632 0.0
H442 H 0.91412 0.60952 0.17566 0.0
H443 H 0.85721 0.59225 0.0781 0.0
H444 H 0.85345 0.6334 0.9301 0.0
H445 H 0.90938 0.65098 0.02642 0.0
C446 C 0.78874 0.63615 0.31129 0.0
C447 C 0.73067 0.64892 0.27363 0.0
C448 C 0.86506 0.63783 0.31684 0.0
C449 C 0.88363 0.65231 0.2855 0.0
C450 C 0.83256 0.66591 0.25973 0.0
C451 C 0.75596 0.66422 0.25371 0.0
C452 C 0.9373 0.65168 0.25826 0.0
C453 C 0.90922 0.64179 0.20349 0.0
C454 C 0.00668 0.66222 0.27684 0.0
C455 C 0.04064 0.67237 0.33642 0.0
C456 C 0.0557 0.68909 0.32399 0.0
C457 C 0.08996 0.69856 0.38072 0.0
C458 C 0.10987 0.69143 0.4503 0.0
C459 C 0.09568 0.6748 0.46333 0.0
C460 C 0.06126 0.66529 0.40676 0.0
C461 C 0.17931 0.66539 0.14243 0.0
C462 C 0.23037 0.65153 0.17744 0.0
C463 C 0.10215 0.66517 0.13496 0.0
C464 C 0.07564 0.65107 0.16171 0.0
C465 C 0.11963 0.63654 0.18471 0.0
C466 C 0.19686 0.63675 0.19239 0.0
C467 C 0.01949 0.65249 0.18581 0.0
C468 C 0.04682 0.66255 0.23991 0.0
C469 C 0.94956 0.64205 0.16686 0.0
C470 C 0.91677 0.63154 0.10862 0.0
C471 C 0.90101 0.6149 0.12226 0.0
C472 C 0.86892 0.60505 0.06717 0.0
C473 C 0.85202 0.61171 0.99805 0.0
C474 C 0.86694 0.62824 0.98377 0.0
C475 C 0.89913 0.63815 0.03871 0.0
H476 H 0.82743 0.60403 0.95566 0.0
H477 H 0.13641 0.69879 0.49406 0.0
H478 H 0.82863 0.3659 0.88427 0.0
H479 H 0.9583 0.36669 0.88845 0.0
H480 H 0.93058 0.41834 0.81451 0.0
H481 H 0.79953 0.41766 0.80864 0.0
H482 H 0.89804 0.4001 0.71006 0.0
H483 H 0.11507 0.40385 0.96205 0.0
H484 H 0.19679 0.3968 0.09669 0.0
H485 H 0.23984 0.34901 0.07793 0.0
H486 H 0.15791 0.35573 0.94313 0.0
H487 H 0.2468 0.41823 0.68679 0.0
H488 H 0.1158 0.4136 0.68027 0.0
H489 H 0.17368 0.36261 0.7586 0.0
H490 H 0.30658 0.36726 0.7671 0.0
H491 H 0.18632 0.37791 0.85885 0.0
H492 H 0.97456 0.3745 0.60713 0.0
H493 H 0.89283 0.38149 0.47241 0.0
H494 H 0.84052 0.42858 0.49019 0.0
H495 H 0.92167 0.42188 0.62489 0.0
C496 C 0.85183 0.37758 0.87196 0.0
C497 C 0.80185 0.39158 0.84212 0.0
C498 C 0.92663 0.37802 0.87515 0.0
C499 C 0.95206 0.39248 0.84957 0.0
C500 C 0.91063 0.40702 0.83326 0.0
C501 C 0.8355 0.40659 0.82949 0.0
C502 C 0.00228 0.39145 0.81908 0.0
C503 C 0.96195 0.39557 0.74272 0.0
C504 C 0.08298 0.38454 0.86128 0.0
C505 C 0.12939 0.38025 0.94229 0.0
C506 C 0.14095 0.39177 0.98652 0.0
C507 C 0.18772 0.38785 0.06293 0.0
C508 C 0.22334 0.37246 0.09584 0.0
C509 C 0.21217 0.36093 0.05238 0.0
C510 C 0.16569 0.3648 0.97597 0.0
C511 C 0.23005 0.40589 0.69946 0.0
C512 C 0.28828 0.39323 0.73085 0.0
C513 C 0.15439 0.40321 0.6949 0.0
C514 C 0.13634 0.38783 0.72082 0.0
C515 C 0.18747 0.37461 0.73944 0.0
C516 C 0.2636 0.37732 0.74484 0.0
C517 C 0.08295 0.38692 0.74976 0.0
C518 C 0.12223 0.38234 0.82589 0.0
C519 C 1.00119 0.3934 0.70732 0.0
C520 C 0.95481 0.39771 0.6263 0.0
C521 C 0.94633 0.3864 0.58239 0.0
C522 C 0.89967 0.39029 0.50595 0.0
C523 C 0.86139 0.40546 0.47274 0.0
C524 C 0.86993 0.41681 0.51593 0.0
C525 C 0.916 0.41295 0.59231 0.0
H526 H 0.82507 0.40842 0.41357 0.0
H527 H 0.25981 0.36948 0.155 0.0
H528 H 0.49645 0.32985 0.57866 0.0
H529 H 0.42299 0.30516 0.52508 0.0
H530 H 0.29433 0.30177 0.63622 0.0
H531 H 0.36717 0.32647 0.6895 0.0
H532 H 0.35823 0.27257 0.65212 0.0
H533 H 0.18709 0.31387 0.45311 0.0
H534 H 0.15759 0.33834 0.36238 0.0
H535 H 0.26159 0.31544 0.2707 0.0
H536 H 0.29257 0.29088 0.36149 0.0
H537 H 0.05333 0.21238 0.46132 0.0
H538 H 0.12354 0.23745 0.51269 0.0
H539 H 0.24947 0.24159 0.39889 0.0
H540 H 0.17945 0.21658 0.34744 0.0
H541 H 0.18605 0.27052 0.38396 0.0
H542 H 0.35922 0.22948 0.58333 0.0
H543 H 0.38921 0.20492 0.67378 0.0
H544 H 0.28245 0.22731 0.76456 0.0
H545 H 0.25096 0.25194 0.67403 0.0
C546 C 0.45211 0.32389 0.59126 0.0
C547 C 0.4374 0.33012 0.6381 0.0
C548 C 0.40996 0.30981 0.56045 0.0
C549 C 0.35262 0.30165 0.5762 0.0
C550 C 0.33811 0.30786 0.62315 0.0
C551 C 0.37955 0.32201 0.65333 0.0
C552 C 0.30924 0.28645 0.54509 0.0
C553 C 0.31961 0.27219 0.59343 0.0
C554 C 0.26045 0.28581 0.46862 0.0
C555 C 0.24285 0.30061 0.41452 0.0
C556 C 0.20436 0.31411 0.41403 0.0
C557 C 0.18721 0.32798 0.3625 0.0
C558 C 0.20792 0.32846 0.31094 0.0
C559 C 0.2458 0.31507 0.3108 0.0
C560 C 0.26313 0.30117 0.36226 0.0
C561 C 0.09636 0.2186 0.44765 0.0
C562 C 0.11127 0.21247 0.40071 0.0
C563 C 0.13662 0.2329 0.47714 0.0
C564 C 0.19241 0.24137 0.46015 0.0
C565 C 0.20688 0.23529 0.41291 0.0
C566 C 0.16717 0.22094 0.38388 0.0
C567 C 0.23506 0.25664 0.491 0.0
C568 C 0.22461 0.27091 0.44264 0.0
C569 C 0.28393 0.25729 0.56745 0.0
C570 C 0.30212 0.24248 0.62157 0.0
C571 C 0.34154 0.22911 0.62222 0.0
C572 C 0.35892 0.21519 0.67356 0.0
C573 C 0.33754 0.21454 0.72476 0.0
C574 C 0.29877 0.22781 0.72474 0.0
C575 C 0.28118 0.24175 0.67346 0.0
H576 H 0.35118 0.20377 0.76455 0.0
H577 H 0.19446 0.3392 0.271 0.0
H578 H 0.52426 0.32369 0.81395 0.0
H579 H 0.58654 0.29689 0.8611 0.0
H580 H 0.76074 0.31213 0.07378 0.0
H581 H 0.70098 0.3396 0.02395 0.0
H582 H 0.84499 0.29819 0.04165 0.0
H583 H 0.59003 0.28099 0.03037 0.0
H584 H 0.43601 0.27929 0.97052 0.0
H585 H 0.41147 0.25618 0.8011 0.0
H586 H 0.56508 0.25778 0.85969 0.0
H587 H 0.01314 0.22002 0.22445 0.0
H588 H 0.94929 0.24669 0.17555 0.0
H589 H 0.78182 0.23125 0.96245 0.0
H590 H 0.84387 0.20392 0.01355 0.0
H591 H 0.69385 0.2452 0.99332 0.0
H592 H 0.94931 0.26219 0.00577 0.0
H593 H 0.10336 0.26392 0.06591 0.0
H594 H 0.12691 0.28746 0.23385 0.0
H595 H 0.97326 0.28582 0.17498 0.0
C596 C 0.57328 0.32114 0.87166 0.0
C597 C 0.60605 0.33368 0.91566 0.0
C598 C 0.6094 0.3057 0.89884 0.0
C599 C 0.67824 0.30215 0.97174 0.0
C600 C 0.70764 0.31441 0.0174 0.0
C601 C 0.67228 0.33005 0.98949 0.0
C602 C 0.72384 0.28629 0.99753 0.0
C603 C 0.81177 0.28661 0.03216 0.0
C604 C 0.68118 0.27106 0.98314 0.0
C605 C 0.58903 0.26956 0.9493 0.0
C606 C 0.55171 0.27554 0.98035 0.0
C607 C 0.46446 0.27459 0.94663 0.0
C608 C 0.41392 0.26762 0.88202 0.0
C609 C 0.45058 0.26152 0.85122 0.0
C610 C 0.53777 0.2624 0.88478 0.0
C611 C 0.96517 0.22249 0.16638 0.0
C612 C 0.93511 0.20995 0.12251 0.0
C613 C 0.9282 0.23784 0.13824 0.0
C614 C 0.8609 0.24129 0.06465 0.0
C615 C 0.8338 0.22902 0.01932 0.0
C616 C 0.8704 0.21348 0.04804 0.0
C617 C 0.81494 0.25712 0.03772 0.0
C618 C 0.72698 0.2568 1.00282 0.0
C619 C 0.85757 0.27235 0.05196 0.0
C620 C 0.94979 0.27382 0.08608 0.0
C621 C 0.98741 0.26773 0.05555 0.0
C622 C 0.07468 0.2687 0.08942 0.0
C623 C 0.12496 0.27581 0.15368 0.0
C624 C 0.08801 0.28202 0.184 0.0
C625 C 1.00079 0.28111 0.15028 0.0
H626 H 0.19254 0.2765 0.17999 0.0
H627 H 0.34636 0.26695 0.85583 0.0
H628 H 0.47995 0.73108 0.29307 0.0
H629 H 0.5542 0.75554 0.34796 0.0
H630 H 0.76887 0.72651 0.51809 0.0
H631 H 0.69427 0.70197 0.46385 0.0
H632 H 0.73669 0.74842 0.57488 0.0
H633 H 0.76625 0.74934 0.37358 0.0
H634 H 0.7163 0.74858 0.24481 0.0
H635 H 0.5753 0.79212 0.17776 0.0
H636 H 0.62279 0.79294 0.30599 0.0
H637 H 0.03418 0.81277 0.70884 0.0
H638 H 0.95919 0.78845 0.65324 0.0
H639 H 0.7451 0.81773 0.48416 0.0
H640 H 0.82047 0.84217 0.53919 0.0
H641 H 0.77642 0.79576 0.42664 0.0
H642 H 0.74716 0.79491 0.62787 0.0
H643 H 0.79691 0.79568 0.75657 0.0
H644 H 0.93699 0.75201 0.82373 0.0
H645 H 0.88986 0.7512 0.69557 0.0
C646 C 0.54282 0.7299 0.34239 0.0
C647 C 0.58133 0.7146 0.37414 0.0
C648 C 0.58541 0.74391 0.37353 0.0
C649 C 0.66765 0.74293 0.43682 0.0
C650 C 0.70559 0.7276 0.46928 0.0
C651 C 0.66301 0.71359 0.4381 0.0
C652 C 0.71432 0.75788 0.46882 0.0
C653 C 0.74634 0.75868 0.5427 0.0
C654 C 0.7254 0.77145 0.42651 0.0
C655 C 0.69731 0.77109 0.34936 0.0
C656 C 0.72393 0.75867 0.33131 0.0
C657 C 0.69604 0.75822 0.2584 0.0
C658 C 0.64226 0.77024 0.20309 0.0
C659 C 0.61657 0.78277 0.22063 0.0
C660 C 0.64392 0.78323 0.29342 0.0
C661 C 0.97131 0.81404 0.65957 0.0
C662 C 0.93316 0.82938 0.62838 0.0
C663 C 0.92828 0.80011 0.62803 0.0
C664 C 0.84598 0.80119 0.56487 0.0
C665 C 0.80843 0.81657 0.53287 0.0
C666 C 0.85144 0.83052 0.56448 0.0
C667 C 0.79885 0.78629 0.5327 0.0
C668 C 0.76675 0.7855 0.4588 0.0
C669 C 0.78768 0.77273 0.575 0.0
C670 C 0.81572 0.7731 0.65213 0.0
C671 C 0.78927 0.78556 0.67014 0.0
C672 C 0.81703 0.78601 0.74302 0.0
C673 C 0.87049 0.77395 0.79834 0.0
C674 C 0.89601 0.76139 0.78085 0.0
C675 C 0.86883 0.76093 0.7081 0.0
H676 H 0.89189 0.77432 0.85473 0.0
H677 H 0.62073 0.76988 0.14667 0.0
H678 H 0.2732 0.69986 0.01941 0.0
H679 H 0.21354 0.72709 0.97269 0.0
H680 H 0.46192 0.7478 0.10294 0.0
H681 H 0.5211 0.72033 0.15128 0.0
H682 H 0.36229 0.75957 0.12798 0.0
H683 H 0.33582 0.75273 0.90621 0.0
H684 H 0.29397 0.7391 0.80048 0.0
H685 H 0.03418 0.74139 0.72607 0.0
H686 H 0.07463 0.75478 0.83208 0.0
H687 H 0.2382 0.84227 0.98361 0.0
H688 H 0.29744 0.81502 0.02895 0.0
H689 H 0.04898 0.79454 0.8963 0.0
H690 H 0.99027 0.82206 0.84907 0.0
H691 H 0.14843 0.7826 0.87234 0.0
H692 H 0.1746 0.78934 0.09403 0.0
H693 H 0.21619 0.80279 0.20017 0.0
H694 H 0.47615 0.80054 0.27505 0.0
H695 H 0.436 0.78733 0.16866 0.0
C696 C 0.31551 0.71027 0.03498 0.0
C697 C 0.40218 0.70799 0.08684 0.0
C698 C 0.28123 0.7259 0.00873 0.0
C699 C 0.33291 0.73968 0.03354 0.0
C700 C 0.42043 0.73744 0.08243 0.0
C701 C 0.45466 0.72175 0.10899 0.0
C702 C 0.29475 0.75607 0.01449 0.0
C703 C 0.31665 0.76473 0.07186 0.0
C704 C 0.23265 0.76264 0.94157 0.0
C705 C 0.20835 0.75461 0.87763 0.0
C706 C 0.26983 0.7502 0.8677 0.0
C707 C 0.24635 0.74253 0.80764 0.0
C708 C 0.1615 0.73933 0.75671 0.0
C709 C 0.0999 0.74384 0.76562 0.0
C710 C 0.12306 0.75148 0.82568 0.0
C711 C 0.19576 0.83189 0.96711 0.0
C712 C 0.10921 0.83427 0.91498 0.0
C713 C 0.22979 0.81625 0.99262 0.0
C714 C 0.178 0.80253 0.9669 0.0
C715 C 0.09057 0.80484 0.91754 0.0
C716 C 0.05659 0.82056 0.89161 0.0
C717 C 0.21602 0.78612 0.98584 0.0
C718 C 0.19409 0.77745 0.92846 0.0
C719 C 0.27806 0.77953 0.05878 0.0
C720 C 0.30219 0.7875 0.12283 0.0
C721 C 0.24058 0.79185 0.13272 0.0
C722 C 0.26391 0.79941 0.19302 0.0
C723 C 0.34874 0.80256 0.24419 0.0
C724 C 0.41046 0.79812 0.23529 0.0
C725 C 0.38745 0.7906 0.17501 0.0
H726 H 0.36665 0.80841 0.29085 0.0
H727 H 0.14347 0.7334 0.71026 0.0
H728 H 0.09518 0.06619 0.22441 0.0
H729 H 0.09326 0.04142 0.17931 0.0
H730 H 0.93971 0.06491 0.95637 0.0
H731 H 0.94016 0.0898 1.00129 0.0
H732 H 0.88132 0.03602 0.96202 0.0
H733 H 0.16524 0.05521 0.04873 0.0
H734 H 0.3046 0.06584 0.13983 0.0
H735 H 0.34529 0.02288 0.29353 0.0
H736 H 0.20558 1.01219 0.20358 0.0
H737 H 0.93449 0.97663 0.79892 0.0
H738 H 0.93608 1.00115 0.84586 0.0
H739 H 0.07668 0.97614 0.06698 0.0
H740 H 0.07615 0.9515 0.02046 0.0
H741 H 0.14172 1.00546 0.06333 0.0
H742 H 0.86017 0.98552 0.97303 0.0
H743 H 0.72129 0.97502 0.88089 0.0
H744 H 0.67699 1.01916 0.73245 0.0
H745 H 0.81604 0.02985 0.8235 0.0
C746 C 0.06135 0.06614 0.16573 0.0
C747 C 0.0181 0.08001 0.11649 0.0
C748 C 0.06058 0.05192 0.13994 0.0
C749 C 0.01746 0.05116 0.06436 0.0
C750 C 0.97366 0.06504 0.01499 0.0
C751 C 0.9741 0.07931 0.04073 0.0
C752 C 0.01618 0.03577 0.03725 0.0
C753 C 0.93859 0.02952 0.9835 0.0
C754 C 0.09018 0.02684 0.06628 0.0
C755 C 0.17482 0.03303 0.11983 0.0
C756 C 0.20377 0.04814 0.10221 0.0
C757 C 0.2828 0.05415 0.15355 0.0
C758 C 0.3337 0.04506 0.22252 0.0
C759 C 0.30579 0.02992 0.24013 0.0
C760 C 0.22677 0.02387 0.18894 0.0
C761 C 0.96543 0.9763 0.85755 0.0
C762 C 0.00512 0.96209 0.90591 0.0
C763 C 0.96613 0.99036 0.88431 0.0
C764 C 0.00581 0.9906 0.95991 0.0
C765 C 0.04566 0.97637 0.00841 0.0
C766 C 0.04517 0.96227 0.98171 0.0
C767 C 0.00702 1.00579 0.98794 0.0
C768 C 0.08453 1.01198 0.04189 0.0
C769 C 0.93298 1.01466 0.95903 0.0
C770 C 0.84857 1.00844 0.90492 0.0
C771 C 0.82086 0.99296 0.92065 0.0
C772 C 0.74213 0.98698 0.86863 0.0
C773 C 0.69037 0.99642 0.80083 0.0
C774 C 0.71711 1.01188 0.78501 0.0
C775 C 0.79578 1.01792 0.83686 0.0
H776 H 0.62949 0.99176 0.76056 0.0
H777 H 0.39484 0.04973 0.26225 0.0
H778 H 0.12396 0.07942 0.38516 0.0
H779 H 0.13125 0.05261 0.45299 0.0
H780 H 0.87983 0.05859 0.39836 0.0
H781 H 0.8761 0.08609 0.33618 0.0
H782 H 0.96042 0.04536 0.52544 0.0
H783 H 0.94824 0.03229 0.3137 0.0
H784 H 0.99381 0.03158 0.2297 0.0
H785 H 0.23449 1.01325 0.41138 0.0
H786 H 0.19062 1.01394 0.49635 0.0
H787 H 0.90152 0.9629 0.63717 0.0
H788 H 0.89338 0.98973 0.5691 0.0
H789 H 0.14545 0.9842 0.6245 0.0
H790 H 0.15028 0.95671 0.68717 0.0
H791 H 0.06371 0.99715 0.49654 0.0
H792 H 0.07604 1.01028 0.70823 0.0
H793 H 0.03005 1.01073 0.79211 0.0
H794 H 0.78892 0.02886 0.61036 0.0
H795 H 0.83325 0.02843 0.5255 0.0
C796 C 0.07037 0.07497 0.38786 0.0
C797 C 0.99938 0.08476 0.35541 0.0
C798 C 0.07404 0.05952 0.42584 0.0
C799 C 0.0051 0.05317 0.42925 0.0
C800 C 0.93398 0.06305 0.39661 0.0
C801 C 0.93164 0.07878 0.36096 0.0
C802 C 0.00821 0.03661 0.46944 0.0
C803 C 0.98183 0.03479 0.51804 0.0
C804 C 0.03886 0.02277 0.46238 0.0
C805 C 0.06623 0.02324 0.41136 0.0
C806 C 0.01114 0.02828 0.33574 0.0
C807 C 0.03665 0.02783 0.28797 0.0
C808 C 0.11696 0.02232 0.31527 0.0
C809 C 0.17229 1.01746 0.39036 0.0
C810 C 0.14712 1.01786 0.43827 0.0
C811 C 0.9551 0.96745 0.63462 0.0
C812 C 0.02662 0.95778 0.66744 0.0
C813 C 0.95089 0.98291 0.59645 0.0
C814 C 0.01971 0.98938 0.5931 0.0
C815 C 0.09136 0.97963 0.62616 0.0
C816 C 0.09432 0.96391 0.66209 0.0
C817 C 0.01605 1.00592 0.55257 0.0
C818 C 0.04229 1.00773 0.5039 0.0
C819 C 0.98527 1.01975 0.55955 0.0
C820 C 0.95786 1.01924 0.61055 0.0
C821 C 0.01298 1.01421 0.68616 0.0
C822 C 0.98721 1.0145 0.73386 0.0
C823 C 0.9066 1.01985 0.7065 0.0
C824 C 0.85133 0.02475 0.63143 0.0
C825 C 0.87676 0.0245 0.58358 0.0
H826 H 0.88685 1.02035 0.74326 0.0
H827 H 0.13643 0.02166 0.27847 0.0
H828 H 0.45136 0.59022 1.00075 0.0
H829 H 0.44983 0.56552 0.95527 0.0
H830 H 0.57773 0.5399 0.17604 0.0
H831 H 0.58307 0.56492 0.22208 0.0
H832 H 0.64136 0.53094 0.11203 0.0
H833 H 0.35493 0.53565 0.03834 0.0
H834 H 0.21836 0.54908 0.97842 0.0
H835 H 0.19041 0.55417 0.76998 0.0
H836 H 0.32728 0.54093 0.8288 0.0
H837 H 0.56476 0.4516 0.0088 0.0
H838 H 0.56748 0.47612 0.05662 0.0
H839 H 0.44509 0.50282 0.83802 0.0
H840 H 0.4395 0.47814 0.78977 0.0
H841 H 0.37837 0.51096 0.9022 0.0
H842 H 0.66601 0.50634 0.97704 0.0
H843 H 0.80242 0.49279 0.03766 0.0
H844 H 0.82733 0.48731 0.24496 0.0
H845 H 0.6906 0.50067 0.18542 0.0
C846 C 0.47935 0.57936 0.03969 0.0
C847 C 0.5171 0.57958 0.11507 0.0
C848 C 0.47778 0.56513 0.01348 0.0
C849 C 0.51198 0.55059 0.06176 0.0
C850 C 0.55052 0.55085 0.13732 0.0
C851 C 0.55334 0.56518 0.16368 0.0
C852 C 0.50889 0.53525 0.03376 0.0
C853 C 0.58343 0.52648 0.06683 0.0
C854 C 0.434 0.52947 0.97352 0.0
C855 C 0.35169 0.53743 0.93811 0.0
C856 C 0.31991 0.53973 0.97981 0.0
C857 C 0.24241 0.54729 0.94602 0.0
C858 C 0.19584 0.55251 0.87047 0.0
C859 C 0.22658 0.55014 0.8285 0.0
C860 C 0.30406 0.54259 0.86202 0.0
C861 C 0.53849 0.46271 0.97095 0.0
C862 C 0.50228 0.46294 0.89549 0.0
C863 C 0.54057 0.47679 0.99844 0.0
C864 C 0.50795 0.49153 0.95136 0.0
C865 C 0.47098 0.49169 0.87578 0.0
C866 C 0.46798 0.47756 0.84816 0.0
C867 C 0.51084 0.5067 0.98036 0.0
C868 C 0.43624 0.51543 0.94747 0.0
C869 C 0.5856 0.51241 0.04087 0.0
C870 C 0.66773 0.50436 0.07664 0.0
C871 C 0.70031 0.50214 0.03545 0.0
C872 C 0.77774 0.49452 0.06964 0.0
C873 C 0.82341 0.48916 0.14508 0.0
C874 C 0.79184 0.49145 0.18653 0.0
C875 C 0.71445 0.49906 0.15261 0.0
H876 H 0.88334 0.48326 0.17144 0.0
H877 H 0.13585 0.55836 0.84442 0.0
H878 H 0.47763 0.47005 0.70573 0.0
H879 H 0.47179 0.49673 0.6388 0.0
H880 H 0.58142 0.47747 0.54173 0.0
H881 H 0.58829 0.45044 0.60956 0.0
H882 H 0.65136 0.507 0.58789 0.0
H883 H 0.37398 0.48512 0.44144 0.0
H884 H 0.24035 0.47206 0.41639 0.0
H885 H 0.19126 0.51163 0.48771 0.0
H886 H 0.32525 0.52482 0.51416 0.0
H887 H 0.55108 0.57329 0.30813 0.0
H888 H 0.55865 0.54656 0.37544 0.0
H889 H 0.44967 0.56543 0.47391 0.0
H890 H 0.44112 0.5925 0.40577 0.0
H891 H 0.37947 0.53603 0.42652 0.0
H892 H 0.65713 0.55787 0.57323 0.0
H893 H 0.79077 0.57091 0.59823 0.0
H894 H 0.83924 0.53141 0.52614 0.0
H895 H 0.70524 0.51823 0.49975 0.0
C896 C 0.50082 0.47136 0.67041 0.0
C897 C 0.53314 0.45795 0.66305 0.0
C898 C 0.49698 0.4867 0.63178 0.0
C899 C 0.52491 0.48909 0.58433 0.0
C900 C 0.5591 0.47589 0.57783 0.0
C901 C 0.56289 0.46043 0.61658 0.0
C902 C 0.51823 0.50544 0.542 0.0
C903 C 0.59173 0.51324 0.55168 0.0
C904 C 0.44072 0.51378 0.49627 0.0
C905 C 0.36007 0.50588 0.48042 0.0
C906 C 0.33505 0.49097 0.45236 0.0
C907 C 0.25916 0.48356 0.4378 0.0
C908 C 0.20745 0.49099 0.45062 0.0
C909 C 0.23143 0.50587 0.47789 0.0
C910 C 0.3073 0.51333 0.4926 0.0
C911 C 0.52835 0.57188 0.34381 0.0
C912 C 0.49554 0.58518 0.35135 0.0
C913 C 0.53327 0.55652 0.38272 0.0
C914 C 0.50585 0.554 0.43055 0.0
C915 C 0.47157 0.56712 0.43749 0.0
C916 C 0.46684 0.58259 0.39858 0.0
C917 C 0.51261 0.5376 0.4725 0.0
C918 C 0.43911 0.52978 0.46272 0.0
C919 C 0.5901 0.52925 0.51809 0.0
C920 C 0.67072 0.53714 0.53385 0.0
C921 C 0.69592 0.55203 0.56211 0.0
C922 C 0.77181 0.55943 0.57665 0.0
C923 C 0.82336 0.55201 0.5636 0.0
C924 C 0.79919 0.53715 0.53613 0.0
C925 C 0.72332 0.5297 0.52145 0.0
H926 H 0.88212 0.55776 0.57493 0.0
H927 H 0.1487 0.48523 0.43928 0.0
loop_
_geom_bond_atom_site_label_1
_geom_bond_atom_site_label_2
_geom_bond_distance
_geom_bond_site_symmetry_2
_ccdc_geom_bond_type
Co0 H3 2.400 1_655 S
Co0 O4 2.009 1_655 S
Co0 O12 2.115 . S
Co0 O13 2.315 1_655 S
Co0 O24 2.055 1_655 S
Co0 O27 2.094 . S
Co0 O30 2.122 . S
Co1 O4 2.126 1_655 S
Co1 H5 2.388 . S
Co1 O6 2.053 . S
Co1 O9 2.047 . S
Co1 O15 2.113 1_655 S
Co1 O26 2.063 1_655 S
Co2 H3 2.388 . S
Co2 O4 2.053 . S
Co2 O6 2.126 1_455 S
Co2 O11 2.063 1_455 S
Co2 O25 2.047 . S
Co2 O31 2.113 1_455 S
H3 Co0 2.400 1_455 S
H3 Co2 2.388 . S
H3 O4 0.760 . S
O4 Co0 2.009 1_455 S
O4 Co1 2.126 1_455 S
O4 Co2 2.053 . S
O4 H3 0.760 . S
H5 Co1 2.388 . S
H5 O6 0.760 . S
H5 Co7 2.400 1_655 S
O6 Co1 2.053 . S
O6 Co2 2.126 1_655 S
O6 H5 0.760 . S
O6 Co7 2.009 1_655 S
Co7 H5 2.400 1_455 S
Co7 O6 2.009 1_455 S
Co7 O8 2.053 . S
Co7 O10 2.094 . S
Co7 O14 2.122 . S
Co7 O28 2.115 . S
Co7 O29 2.315 1_455 S
O8 Co7 2.053 . S
O8 C20 1.259 1_455 S
O9 Co1 2.047 . S
O9 C20 1.257 . S
O10 Co7 2.094 . S
O10 C21 1.253 . S
O11 Co2 2.063 1_655 S
O11 C21 1.268 1_655 S
O12 Co0 2.115 . S
O12 C22 1.281 1_655 S
O13 Co0 2.315 1_455 S
O13 C22 1.252 . S
O14 Co7 2.122 . S
O14 C23 1.272 . S
O15 Co1 2.113 1_455 S
O15 C23 1.245 . S
C16 O24 1.260 . S
C16 O25 1.257 . S
C17 O26 1.268 1_655 S
C17 O27 1.253 . S
C18 O28 1.281 1_655 S
C18 O29 1.252 . S
C19 O30 1.272 . S
C19 O31 1.245 . S
C20 O8 1.259 1_655 S
C20 O9 1.257 . S
C21 O10 1.253 . S
C21 O11 1.268 1_455 S
C22 O12 1.281 1_455 S
C22 O13 1.252 . S
C23 O14 1.272 . S
C23 O15 1.245 . S
O24 Co0 2.055 1_455 S
O24 C16 1.260 . S
O25 Co2 2.047 . S
O25 C16 1.257 . S
O26 Co1 2.063 1_455 S
O26 C17 1.268 1_455 S
O27 Co0 2.094 . S
O27 C17 1.253 . S
O28 Co7 2.115 . S
O28 C18 1.281 1_455 S
O29 Co7 2.315 1_655 S
O29 C18 1.252 . S
O30 Co0 2.122 . S
O30 C19 1.272 . S
O31 Co2 2.113 1_655 S
O31 C19 1.245 . S
Co32 H35 2.400 1_655 S
Co32 O36 2.009 1_655 S
Co32 O44 2.115 . S
Co32 O45 2.315 1_655 S
Co32 O56 2.053 1_655 S
Co32 O59 2.094 . S
Co32 O62 2.122 . S
Co33 O36 2.126 . S
Co33 H37 2.388 1_455 S
Co33 O38 2.053 1_455 S
Co33 O41 2.047 1_455 S
Co33 O47 2.113 . S
Co33 O58 2.063 . S
Co34 H35 2.388 . S
Co34 O36 2.053 . S
Co34 O38 2.126 1_455 S
Co34 O43 2.063 . S
Co34 O57 2.047 . S
Co34 O63 2.113 1_455 S
H35 Co32 2.400 1_455 S
H35 Co34 2.388 . S
H35 O36 0.760 . S
O36 Co32 2.009 1_455 S
O36 Co33 2.126 . S
O36 Co34 2.053 . S
O36 H35 0.760 . S
H37 Co33 2.388 1_655 S
H37 O38 0.760 . S
H37 Co39 2.400 1_655 S
O38 Co33 2.053 1_655 S
O38 Co34 2.126 1_655 S
O38 H37 0.760 . S
O38 Co39 2.009 1_655 S
Co39 H37 2.400 1_455 S
Co39 O38 2.009 1_455 S
Co39 O40 2.053 . S
Co39 O42 2.094 . S
Co39 O46 2.122 . S
Co39 O60 2.115 . S
Co39 O61 2.315 1_455 S
O40 Co39 2.053 . S
O40 C52 1.259 1_455 S
O41 Co33 2.047 1_655 S
O41 C52 1.257 . S
O42 Co39 2.094 . S
O42 C53 1.253 . S
O43 Co34 2.063 . S
O43 C53 1.268 . S
O44 Co32 2.115 . S
O44 C54 1.281 1_655 S
O45 Co32 2.315 1_455 S
O45 C54 1.252 . S
O46 Co39 2.122 . S
O46 C55 1.272 . S
O47 Co33 2.113 . S
O47 C55 1.245 . S
C48 O56 1.259 . S
C48 O57 1.257 . S
C49 O58 1.268 1_655 S
C49 O59 1.253 . S
C50 O60 1.281 1_655 S
C50 O61 1.252 . S
C51 O62 1.272 . S
C51 O63 1.245 . S
C52 O40 1.259 1_655 S
C52 O41 1.257 . S
C53 O42 1.253 . S
C53 O43 1.268 . S
C54 O44 1.281 1_455 S
C54 O45 1.252 . S
C55 O46 1.272 . S
C55 O47 1.245 . S
O56 Co32 2.053 1_455 S
O56 C48 1.259 . S
O57 Co34 2.047 . S
O57 C48 1.257 . S
O58 Co33 2.063 . S
O58 C49 1.268 1_455 S
O59 Co32 2.094 . S
O59 C49 1.253 . S
O60 Co39 2.115 . S
O60 C50 1.281 1_455 S
O61 Co39 2.315 1_655 S
O61 C50 1.252 . S
O62 Co32 2.122 . S
O62 C51 1.272 . S
O63 Co34 2.113 1_655 S
O63 C51 1.245 . S
Co64 H67 2.400 . S
Co64 O68 2.009 . S
Co64 O76 2.115 . S
Co64 O77 2.315 . S
Co64 O88 2.053 . S
Co64 O91 2.094 . S
Co64 O94 2.122 . S
Co65 O68 2.126 . S
Co65 H69 2.388 . S
Co65 O70 2.053 . S
Co65 O73 2.047 . S
Co65 O79 2.113 . S
Co65 O90 2.063 . S
Co66 H67 2.388 . S
Co66 O68 2.053 . S
Co66 O70 2.126 . S
Co66 O75 2.063 . S
Co66 O89 2.047 . S
Co66 O95 2.113 . S
H67 Co64 2.400 . S
H67 Co66 2.388 . S
H67 O68 0.760 . S
O68 Co64 2.009 . S
O68 Co65 2.126 . S
O68 Co66 2.053 . S
O68 H67 0.760 . S
H69 Co65 2.388 . S
H69 O70 0.760 . S
H69 Co71 2.400 . S
O70 Co65 2.053 . S
O70 Co66 2.126 . S
O70 H69 0.760 . S
O70 Co71 2.009 . S
Co71 H69 2.400 . S
Co71 O70 2.009 . S
Co71 O72 2.053 . S
Co71 O74 2.094 . S
Co71 O78 2.122 . S
Co71 O92 2.115 . S
Co71 O93 2.315 . S
O72 Co71 2.053 . S
O72 C84 1.259 . S
O73 Co65 2.047 . S
O73 C84 1.257 . S
O74 Co71 2.094 . S
O74 C85 1.253 . S
O75 Co66 2.063 . S
O75 C85 1.268 . S
O76 Co64 2.115 . S
O76 C86 1.281 . S
O77 Co64 2.315 . S
O77 C86 1.252 . S
O78 Co71 2.122 . S
O78 C87 1.272 . S
O79 Co65 2.113 . S
O79 C87 1.245 . S
C80 O88 1.259 . S
C80 O89 1.257 . S
C81 O90 1.268 . S
C81 O91 1.253 . S
C82 O92 1.281 . S
C82 O93 1.252 . S
C83 O94 1.272 . S
C83 O95 1.245 . S
C84 O72 1.259 . S
C84 O73 1.257 . S
C85 O74 1.253 . S
C85 O75 1.268 . S
C86 O76 1.281 . S
C86 O77 1.252 . S
C87 O78 1.272 . S
C87 O79 1.245 . S
O88 Co64 2.053 . S
O88 C80 1.259 . S
O89 Co66 2.047 . S
O89 C80 1.257 . S
O90 Co65 2.063 . S
O90 C81 1.268 . S
O91 Co64 2.094 . S
O91 C81 1.253 . S
O92 Co71 2.115 . S
O92 C82 1.281 . S
O93 Co71 2.315 . S
O93 C82 1.252 . S
O94 Co64 2.122 . S
O94 C83 1.272 . S
O95 Co66 2.113 . S
O95 C83 1.245 . S
Co96 H99 2.400 . S
Co96 O100 2.009 . S
Co96 O108 2.115 . S
Co96 O109 2.315 . S
Co96 O120 2.053 . S
Co96 O123 2.094 . S
Co96 O126 2.122 . S
Co97 O100 2.126 . S
Co97 H101 2.388 . S
Co97 O102 2.053 . S
Co97 O105 2.047 . S
Co97 O111 2.113 . S
Co97 O122 2.063 . S
Co98 H99 2.388 . S
Co98 O100 2.053 . S
Co98 O102 2.126 . S
Co98 O107 2.063 . S
Co98 O121 2.047 . S
Co98 O127 2.113 . S
H99 Co96 2.400 . S
H99 Co98 2.388 . S
H99 O100 0.760 . S
O100 Co96 2.009 . S
O100 Co97 2.126 . S
O100 Co98 2.053 . S
O100 H99 0.760 . S
H101 Co97 2.388 . S
H101 O102 0.760 . S
H101 Co103 2.400 . S
O102 Co97 2.053 . S
O102 Co98 2.126 . S
O102 H101 0.760 . S
O102 Co103 2.009 . S
Co103 H101 2.400 . S
Co103 O102 2.009 . S
Co103 O104 2.053 . S
Co103 O106 2.094 . S
Co103 O110 2.122 . S
Co103 O124 2.115 . S
Co103 O125 2.315 . S
O104 Co103 2.053 . S
O104 C116 1.259 . S
O105 Co97 2.047 . S
O105 C116 1.257 . S
O106 Co103 2.094 . S
O106 C117 1.253 . S
O107 Co98 2.063 . S
O107 C117 1.268 . S
O108 Co96 2.115 . S
O108 C118 1.281 . S
O109 Co96 2.315 . S
O109 C118 1.252 . S
O110 Co103 2.122 . S
O110 C119 1.272 . S
O111 Co97 2.113 . S
O111 C119 1.245 . S
C112 O120 1.259 . S
C112 O121 1.257 . S
C113 O122 1.268 . S
C113 O123 1.253 . S
C114 O124 1.281 . S
C114 O125 1.252 . S
C115 O126 1.272 . S
C115 O127 1.245 . S
C116 O104 1.259 . S
C116 O105 1.257 . S
C117 O106 1.253 . S
C117 O107 1.268 . S
C118 O108 1.281 . S
C118 O109 1.252 . S
C119 O110 1.272 . S
C119 O111 1.245 . S
O120 Co96 2.053 . S
O120 C112 1.259 . S
O121 Co98 2.047 . S
O121 C112 1.257 . S
O122 Co97 2.063 . S
O122 C113 1.268 . S
O123 Co96 2.094 . S
O123 C113 1.253 . S
O124 Co103 2.115 . S
O124 C114 1.281 . S
O125 Co103 2.315 . S
O125 C114 1.252 . S
O126 Co96 2.122 . S
O126 C115 1.272 . S
O127 Co98 2.113 . S
O127 C115 1.245 . S
H128 C146 0.951 . S
H129 C148 0.951 . S
H130 C150 0.950 . S
H131 C151 0.950 1_554 S
H132 C153 0.950 . S
H133 C156 0.950 . S
H134 C157 0.950 1_554 S
H135 C159 0.952 . S
H136 C160 0.950 1_655 S
H137 C161 0.951 . S
H138 C163 0.951 . S
H139 C165 0.950 . S
H140 C166 0.950 . S
H141 C168 0.950 . S
H142 C171 0.950 . S
H143 C172 0.950 . S
H144 C174 0.950 1_455 S
H145 C175 0.950 . S
C146 H128 0.951 . S
C146 C147 1.366 . S
C146 C148 1.388 . S
C147 C146 1.366 . S
C147 C151 1.385 1_655 S
C148 H129 0.951 . S
C148 C146 1.388 . S
C148 C149 1.366 . S
C149 C148 1.366 . S
C149 C150 1.414 1_655 S
C149 C152 1.499 1_655 S
C150 H130 0.950 . S
C150 C149 1.414 1_455 S
C150 C151 1.374 . S
C151 H131 0.950 1_556 S
C151 C147 1.385 1_455 S
C151 C150 1.374 . S
C152 C149 1.499 1_455 S
C152 C153 1.373 1_455 S
C152 C154 1.389 . S
C153 H132 0.950 . S
C153 C152 1.373 1_655 S
C153 C169 1.377 . S
C154 C152 1.389 . S
C154 C155 1.524 . S
C154 C168 1.377 . S
C155 C154 1.524 . S
C155 C156 1.397 . S
C155 C160 1.363 . S
C156 H133 0.950 . S
C156 C155 1.397 . S
C156 C157 1.334 . S
C157 H134 0.950 1_556 S
C157 C156 1.334 . S
C157 C158 1.287 . S
C158 C157 1.287 . S
C158 C159 1.524 . S
C158 H177 0.913 . S
C159 H135 0.952 . S
C159 C158 1.524 . S
C159 C160 1.415 . S
C160 H136 0.950 1_455 S
C160 C155 1.363 . S
C160 C159 1.415 . S
C161 H137 0.951 . S
C161 C162 1.366 . S
C161 C163 1.388 . S
C162 C161 1.366 . S
C162 C166 1.385 1_455 S
C163 H138 0.951 . S
C163 C161 1.388 . S
C163 C164 1.366 . S
C164 C163 1.366 . S
C164 C165 1.414 1_455 S
C164 C167 1.499 . S
C165 H139 0.950 . S
C165 C164 1.414 1_655 S
C165 C166 1.374 . S
C166 H140 0.950 . S
C166 C162 1.385 1_655 S
C166 C165 1.374 . S
C167 C164 1.499 . S
C167 C168 1.373 . S
C167 C169 1.389 1_455 S
C168 H141 0.950 . S
C168 C154 1.377 . S
C168 C167 1.373 . S
C169 C153 1.377 . S
C169 C167 1.389 1_655 S
C169 C170 1.524 . S
C170 C169 1.524 . S
C170 C171 1.397 . S
C170 C175 1.363 1_655 S
C171 H142 0.950 . S
C171 C170 1.397 . S
C171 C172 1.334 . S
C172 H143 0.950 . S
C172 C171 1.334 . S
C172 C173 1.287 . S
C173 C172 1.287 . S
C173 C174 1.524 . S
C173 H176 0.999 . S
C174 H144 0.950 1_655 S
C174 C173 1.524 . S
C174 C175 1.415 1_655 S
C175 H145 0.950 . S
C175 C170 1.363 1_455 S
C175 C174 1.415 1_455 S
H176 C173 0.999 . S
H177 C158 0.913 . S
H178 C196 0.951 . S
H179 C198 0.951 . S
H180 C200 0.950 . S
H181 C201 0.950 . S
H182 C203 0.950 . S
H183 C206 0.950 . S
H184 C207 0.950 . S
H185 C209 0.950 . S
H186 C210 0.950 1_655 S
H187 C211 0.951 . S
H188 C213 0.951 . S
H189 C215 0.950 . S
H190 C216 0.950 1_556 S
H191 C218 0.950 . S
H192 C221 0.950 . S
H193 C222 0.950 1_556 S
H194 C224 0.950 1_455 S
H195 C225 0.950 . S
C196 H178 0.951 . S
C196 C197 1.366 . S
C196 C198 1.388 . S
C197 C196 1.366 . S
C197 C201 1.385 1_655 S
C198 H179 0.951 . S
C198 C196 1.388 . S
C198 C199 1.366 1_655 S
C199 C198 1.366 1_455 S
C199 C200 1.414 . S
C199 C202 1.499 . S
C200 H180 0.950 . S
C200 C199 1.414 . S
C200 C201 1.374 . S
C201 H181 0.950 . S
C201 C197 1.385 1_455 S
C201 C200 1.374 . S
C202 C199 1.499 . S
C202 C203 1.373 1_455 S
C202 C204 1.389 . S
C203 H182 0.950 . S
C203 C202 1.373 1_655 S
C203 C219 1.377 . S
C204 C202 1.389 . S
C204 C205 1.524 . S
C204 C218 1.377 . S
C205 C204 1.524 . S
C205 C206 1.397 . S
C205 C210 1.363 . S
C206 H183 0.950 . S
C206 C205 1.397 . S
C206 C207 1.334 . S
C207 H184 0.950 . S
C207 C206 1.334 . S
C207 C208 1.287 . S
C208 C207 1.287 . S
C208 C209 1.524 . S
C208 H227 0.913 . S
C209 H185 0.950 . S
C209 C208 1.524 . S
C209 C210 1.415 . S
C210 H186 0.950 1_455 S
C210 C205 1.363 . S
C210 C209 1.415 . S
C211 H187 0.951 . S
C211 C212 1.366 . S
C211 C213 1.388 . S
C212 C211 1.366 . S
C212 C216 1.385 1_455 S
C213 H188 0.951 . S
C213 C211 1.388 . S
C213 C214 1.366 . S
C214 C213 1.366 . S
C214 C215 1.414 1_455 S
C214 C217 1.499 . S
C215 H189 0.950 . S
C215 C214 1.414 1_655 S
C215 C216 1.374 . S
C216 H190 0.950 1_554 S
C216 C212 1.385 1_655 S
C216 C215 1.374 . S
C217 C214 1.499 . S
C217 C218 1.373 . S
C217 C219 1.389 1_455 S
C218 H191 0.950 . S
C218 C204 1.377 . S
C218 C217 1.373 . S
C219 C203 1.377 . S
C219 C217 1.389 1_655 S
C219 C220 1.524 . S
C220 C219 1.524 . S
C220 C221 1.397 . S
C220 C225 1.363 1_655 S
C221 H192 0.950 . S
C221 C220 1.397 . S
C221 C222 1.334 . S
C222 H193 0.950 1_554 S
C222 C221 1.334 . S
C222 C223 1.287 . S
C223 C222 1.287 . S
C223 C224 1.524 . S
C223 H226 0.999 . S
C224 H194 0.950 1_655 S
C224 C223 1.524 . S
C224 C225 1.415 1_655 S
C225 H195 0.950 . S
C225 C220 1.363 1_455 S
C225 C224 1.415 1_455 S
H226 C223 0.999 . S
H227 C208 0.913 . S
H228 C246 0.951 . S
H229 C248 0.951 . S
H230 C250 0.950 . S
H231 C251 0.949 1_554 S
H232 C253 0.950 . S
H233 C256 0.950 . S
H234 C257 0.950 . S
H235 C259 0.950 . S
H236 C260 0.950 . S
H237 C261 0.951 . S
H238 C263 0.951 . S
H239 C265 0.950 . S
H240 C266 0.950 . S
H241 C268 0.950 . S
H242 C271 0.950 . S
H243 C272 0.950 . S
H244 C274 0.950 . S
H245 C275 0.950 . S
C246 H228 0.951 . S
C246 C247 1.366 . S
C246 C248 1.388 . S
C247 C246 1.366 . S
C247 C251 1.385 . S
C248 H229 0.951 . S
C248 C246 1.388 . S
C248 C249 1.366 . S
C249 C248 1.366 . S
C249 C250 1.414 . S
C249 C252 1.499 . S
C250 H230 0.950 . S
C250 C249 1.414 . S
C250 C251 1.374 . S
C251 H231 0.949 1_556 S
C251 C247 1.385 . S
C251 C250 1.374 . S
C252 C249 1.499 . S
C252 C253 1.373 . S
C252 C254 1.389 . S
C253 H232 0.950 . S
C253 C252 1.373 . S
C253 C269 1.377 . S
C254 C252 1.389 . S
C254 C255 1.524 . S
C254 C268 1.377 . S
C255 C254 1.524 . S
C255 C256 1.397 . S
C255 C260 1.363 . S
C256 H233 0.950 . S
C256 C255 1.397 . S
C256 C257 1.334 . S
C257 H234 0.950 . S
C257 C256 1.334 . S
C257 C258 1.287 . S
C258 C257 1.287 . S
C258 C259 1.524 . S
C258 H277 0.913 . S
C259 H235 0.950 . S
C259 C258 1.524 . S
C259 C260 1.415 . S
C260 H236 0.950 . S
C260 C255 1.363 . S
C260 C259 1.415 . S
C261 H237 0.951 . S
C261 C262 1.366 . S
C261 C263 1.388 . S
C262 C261 1.366 . S
C262 C266 1.385 . S
C263 H238 0.951 . S
C263 C261 1.388 . S
C263 C264 1.366 . S
C264 C263 1.366 . S
C264 C265 1.414 . S
C264 C267 1.499 . S
C265 H239 0.950 . S
C265 C264 1.414 . S
C265 C266 1.374 . S
C266 H240 0.950 . S
C266 C262 1.385 . S
C266 C265 1.374 . S
C267 C264 1.499 . S
C267 C268 1.373 . S
C267 C269 1.389 . S
C268 H241 0.950 . S
C268 C254 1.377 . S
C268 C267 1.373 . S
C269 C253 1.377 . S
C269 C267 1.389 . S
C269 C270 1.524 . S
C270 C269 1.524 . S
C270 C271 1.397 . S
C270 C275 1.363 . S
C271 H242 0.950 . S
C271 C270 1.397 . S
C271 C272 1.334 . S
C272 H243 0.950 . S
C272 C271 1.334 . S
C272 C273 1.287 . S
C273 C272 1.287 . S
C273 C274 1.524 . S
C273 H276 0.999 . S
C274 H244 0.950 . S
C274 C273 1.524 . S
C274 C275 1.415 . S
C275 H245 0.950 . S
C275 C270 1.363 . S
C275 C274 1.415 . S
H276 C273 0.999 . S
H277 C258 0.913 . S
H278 C296 0.951 . S
H279 C298 0.951 . S
H280 C300 0.950 . S
H281 C301 0.950 1_556 S
H282 C303 0.950 . S
H283 C306 0.950 . S
H284 C307 0.950 . S
H285 C309 0.950 . S
H286 C310 0.950 . S
H287 C311 0.951 . S
H288 C313 0.951 . S
H289 C315 0.950 . S
H290 C316 0.950 . S
H291 C318 0.950 . S
H292 C321 0.950 . S
H293 C322 0.950 . S
H294 C324 0.950 . S
H295 C325 0.950 . S
C296 H278 0.951 . S
C296 C297 1.366 . S
C296 C298 1.388 . S
C297 C296 1.366 . S
C297 C301 1.385 . S
C298 H279 0.951 . S
C298 C296 1.388 . S
C298 C299 1.366 . S
C299 C298 1.366 . S
C299 C300 1.414 . S
C299 C302 1.499 . S
C300 H280 0.950 . S
C300 C299 1.414 . S
C300 C301 1.374 . S
C301 H281 0.950 1_554 S
C301 C297 1.385 . S
C301 C300 1.374 . S
C302 C299 1.499 . S
C302 C303 1.373 . S
C302 C304 1.389 . S
C303 H282 0.950 . S
C303 C302 1.373 . S
C303 C319 1.377 . S
C304 C302 1.389 . S
C304 C305 1.524 . S
C304 C318 1.377 . S
C305 C304 1.524 . S
C305 C306 1.397 . S
C305 C310 1.363 . S
C306 H283 0.950 . S
C306 C305 1.397 . S
C306 C307 1.334 . S
C307 H284 0.950 . S
C307 C306 1.334 . S
C307 C308 1.287 . S
C308 C307 1.287 . S
C308 C309 1.524 . S
C308 H327 0.913 . S
C309 H285 0.950 . S
C309 C308 1.524 . S
C309 C310 1.415 . S
C310 H286 0.950 . S
C310 C305 1.363 . S
C310 C309 1.415 . S
C311 H287 0.951 . S
C311 C312 1.366 . S
C311 C313 1.388 . S
C312 C311 1.366 . S
C312 C316 1.385 . S
C313 H288 0.951 . S
C313 C311 1.388 . S
C313 C314 1.366 . S
C314 C313 1.366 . S
C314 C315 1.414 . S
C314 C317 1.499 . S
C315 H289 0.950 . S
C315 C314 1.414 . S
C315 C316 1.374 . S
C316 H290 0.950 . S
C316 C312 1.385 . S
C316 C315 1.374 . S
C317 C314 1.499 . S
C317 C318 1.373 . S
C317 C319 1.389 . S
C318 H291 0.950 . S
C318 C304 1.377 . S
C318 C317 1.373 . S
C319 C303 1.377 . S
C319 C317 1.389 . S
C319 C320 1.524 . S
C320 C319 1.524 . S
C320 C321 1.397 . S
C320 C325 1.363 . S
C321 H292 0.950 . S
C321 C320 1.397 . S
C321 C322 1.334 . S
C322 H293 0.950 . S
C322 C321 1.334 . S
C322 C323 1.287 . S
C323 C322 1.287 . S
C323 C324 1.524 . S
C323 H326 0.999 . S
C324 H294 0.950 . S
C324 C323 1.524 . S
C324 C325 1.415 . S
C325 H295 0.950 . S
C325 C320 1.363 . S
C325 C324 1.415 . S
H326 C323 0.999 . S
H327 C308 0.913 . S
H328 C346 0.951 . S
H329 C348 0.951 . S
H330 C350 0.950 . S
H331 C351 0.950 . S
H332 C353 0.950 . S
H333 C356 0.950 . S
H334 C357 0.950 . S
H335 C359 0.950 . S
H336 C360 0.950 . S
H337 C361 0.951 . S
H338 C363 0.951 . S
H339 C365 0.950 . S
H340 C366 0.950 . S
H341 C368 0.950 . S
H342 C371 0.950 . S
H343 C372 0.950 . S
H344 C374 0.950 1_556 S
H345 C375 0.950 . S
C346 H328 0.951 . S
C346 C347 1.366 . S
C346 C348 1.388 . S
C347 C346 1.366 . S
C347 C351 1.385 . S
C348 H329 0.951 . S
C348 C346 1.388 . S
C348 C349 1.366 . S
C349 C348 1.366 . S
C349 C350 1.414 . S
C349 C352 1.499 . S
C350 H330 0.950 . S
C350 C349 1.414 . S
C350 C351 1.374 . S
C351 H331 0.950 . S
C351 C347 1.385 . S
C351 C350 1.374 . S
C352 C349 1.499 . S
C352 C353 1.373 . S
C352 C354 1.389 . S
C353 H332 0.950 . S
C353 C352 1.373 . S
C353 C369 1.377 . S
C354 C352 1.389 . S
C354 C355 1.524 . S
C354 C368 1.377 . S
C355 C354 1.524 . S
C355 C356 1.397 . S
C355 C360 1.363 . S
C356 H333 0.950 . S
C356 C355 1.397 . S
C356 C357 1.334 . S
C357 H334 0.950 . S
C357 C356 1.334 . S
C357 C358 1.287 . S
C358 C357 1.287 . S
C358 C359 1.524 . S
C358 H377 0.913 . S
C359 H335 0.950 . S
C359 C358 1.524 . S
C359 C360 1.415 . S
C360 H336 0.950 . S
C360 C355 1.363 . S
C360 C359 1.415 . S
C361 H337 0.951 . S
C361 C362 1.366 . S
C361 C363 1.388 . S
C362 C361 1.366 . S
C362 C366 1.385 . S
C363 H338 0.951 . S
C363 C361 1.388 . S
C363 C364 1.366 . S
C364 C363 1.366 . S
C364 C365 1.414 . S
C364 C367 1.499 . S
C365 H339 0.950 . S
C365 C364 1.414 . S
C365 C366 1.374 . S
C366 H340 0.950 . S
C366 C362 1.385 . S
C366 C365 1.374 . S
C367 C364 1.499 . S
C367 C368 1.373 . S
C367 C369 1.389 . S
C368 H341 0.950 . S
C368 C354 1.377 . S
C368 C367 1.373 . S
C369 C353 1.377 . S
C369 C367 1.389 . S
C369 C370 1.524 . S
C370 C369 1.524 . S
C370 C371 1.397 . S
C370 C375 1.363 . S
C371 H342 0.950 . S
C371 C370 1.397 . S
C371 C372 1.334 . S
C372 H343 0.950 . S
C372 C371 1.334 . S
C372 C373 1.287 . S
C373 C372 1.287 . S
C373 C374 1.524 . S
C373 H376 0.999 . S
C374 H344 0.950 1_554 S
C374 C373 1.524 . S
C374 C375 1.415 . S
C375 H345 0.950 . S
C375 C370 1.363 . S
C375 C374 1.415 . S
H376 C373 0.999 . S
H377 C358 0.913 . S
H378 C396 0.951 . S
H379 C398 0.951 . S
H380 C400 0.950 . S
H381 C401 0.950 . S
H382 C403 0.950 . S
H383 C406 0.950 . S
H384 C407 0.950 . S
H385 C409 0.950 . S
H386 C410 0.950 . S
H387 C411 0.951 . S
H388 C413 0.951 . S
H389 C415 0.950 . S
H390 C416 0.950 . S
H391 C418 0.950 . S
H392 C421 0.950 . S
H393 C422 0.950 1_554 S
H394 C424 0.950 . S
H395 C425 0.950 . S
C396 H378 0.951 . S
C396 C397 1.366 . S
C396 C398 1.388 . S
C397 C396 1.366 . S
C397 C401 1.385 . S
C398 H379 0.951 . S
C398 C396 1.388 . S
C398 C399 1.366 . S
C399 C398 1.366 . S
C399 C400 1.414 . S
C399 C402 1.499 . S
C400 H380 0.950 . S
C400 C399 1.414 . S
C400 C401 1.374 . S
C401 H381 0.950 . S
C401 C397 1.385 . S
C401 C400 1.374 . S
C402 C399 1.499 . S
C402 C403 1.373 . S
C402 C404 1.389 . S
C403 H382 0.950 . S
C403 C402 1.373 . S
C403 C419 1.377 . S
C404 C402 1.389 . S
C404 C405 1.524 . S
C404 C418 1.377 . S
C405 C404 1.524 . S
C405 C406 1.397 . S
C405 C410 1.363 . S
C406 H383 0.950 . S
C406 C405 1.397 . S
C406 C407 1.334 . S
C407 H384 0.950 . S
C407 C406 1.334 . S
C407 C408 1.287 . S
C408 C407 1.287 . S
C408 C409 1.524 . S
C408 H427 0.913 . S
C409 H385 0.950 . S
C409 C408 1.524 . S
C409 C410 1.415 . S
C410 H386 0.950 . S
C410 C405 1.363 . S
C410 C409 1.415 . S
C411 H387 0.951 . S
C411 C412 1.366 . S
C411 C413 1.388 . S
C412 C411 1.366 . S
C412 C416 1.385 . S
C413 H388 0.951 . S
C413 C411 1.388 . S
C413 C414 1.366 . S
C414 C413 1.366 . S
C414 C415 1.414 . S
C414 C417 1.499 . S
C415 H389 0.950 . S
C415 C414 1.414 . S
C415 C416 1.374 . S
C416 H390 0.950 . S
C416 C412 1.385 . S
C416 C415 1.374 . S
C417 C414 1.499 . S
C417 C418 1.373 . S
C417 C419 1.389 . S
C418 H391 0.950 . S
C418 C404 1.377 . S
C418 C417 1.373 . S
C419 C403 1.377 . S
C419 C417 1.389 . S
C419 C420 1.524 . S
C420 C419 1.524 . S
C420 C421 1.397 . S
C420 C425 1.363 . S
C421 H392 0.950 . S
C421 C420 1.397 . S
C421 C422 1.334 . S
C422 H393 0.950 1_556 S
C422 C421 1.334 . S
C422 C423 1.287 1_556 S
C423 C422 1.287 1_554 S
C423 C424 1.524 1_554 S
C423 H426 0.999 . S
C424 H394 0.950 . S
C424 C423 1.524 1_556 S
C424 C425 1.415 . S
C425 H395 0.950 . S
C425 C420 1.363 . S
C425 C424 1.415 . S
H426 C423 0.999 . S
H427 C408 0.913 . S
H428 C446 0.951 . S
H429 C448 0.951 . S
H430 C450 0.950 . S
H431 C451 0.950 . S
H432 C453 0.950 . S
H433 C456 0.950 . S
H434 C457 0.950 . S
H435 C459 0.950 . S
H436 C460 0.950 . S
H437 C461 0.951 . S
H438 C463 0.951 . S
H439 C465 0.950 . S
H440 C466 0.950 . S
H441 C468 0.950 . S
H442 C471 0.950 . S
H443 C472 0.950 . S
H444 C474 0.950 1_556 S
H445 C475 0.950 . S
C446 H428 0.951 . S
C446 C447 1.366 . S
C446 C448 1.388 . S
C447 C446 1.366 . S
C447 C451 1.385 . S
C448 H429 0.951 . S
C448 C446 1.388 . S
C448 C449 1.366 . S
C449 C448 1.366 . S
C449 C450 1.414 . S
C449 C452 1.499 . S
C450 H430 0.950 . S
C450 C449 1.414 . S
C450 C451 1.374 . S
C451 H431 0.950 . S
C451 C447 1.385 . S
C451 C450 1.374 . S
C452 C449 1.499 . S
C452 C453 1.373 . S
C452 C454 1.389 1_655 S
C453 H432 0.950 . S
C453 C452 1.373 . S
C453 C469 1.372 1_655 S
C454 C452 1.389 1_455 S
C454 C455 1.524 . S
C454 C468 1.377 . S
C455 C454 1.524 . S
C455 C456 1.397 1_455 S
C455 C460 1.363 . S
C456 H433 0.950 . S
C456 C455 1.397 1_655 S
C456 C457 1.334 . S
C457 H434 0.950 . S
C457 C456 1.334 . S
C457 C458 1.287 1_655 S
C458 C457 1.287 1_455 S
C458 C459 1.524 . S
C458 H477 0.913 . S
C459 H435 0.950 . S
C459 C458 1.524 . S
C459 C460 1.415 . S
C460 H436 0.950 . S
C460 C455 1.363 . S
C460 C459 1.415 . S
C461 H437 0.951 . S
C461 C462 1.366 . S
C461 C463 1.388 . S
C462 C461 1.366 . S
C462 C466 1.385 . S
C463 H438 0.951 . S
C463 C461 1.388 . S
C463 C464 1.366 . S
C464 C463 1.366 . S
C464 C465 1.414 . S
C464 C467 1.499 . S
C465 H439 0.950 . S
C465 C464 1.414 . S
C465 C466 1.374 . S
C466 H440 0.950 . S
C466 C462 1.385 . S
C466 C465 1.374 . S
C467 C464 1.499 . S
C467 C468 1.373 . S
C467 C469 1.392 . S
C468 H441 0.950 . S
C468 C454 1.377 . S
C468 C467 1.373 . S
C469 C453 1.372 1_455 S
C469 C467 1.392 . S
C469 C470 1.526 1_455 S
C470 C469 1.526 1_655 S
C470 C471 1.397 1_655 S
C470 C475 1.363 . S
C471 H442 0.950 . S
C471 C470 1.397 1_455 S
C471 C472 1.334 . S
C472 H443 0.950 . S
C472 C471 1.334 . S
C472 C473 1.287 1_455 S
C473 C472 1.287 1_655 S
C473 C474 1.524 . S
C473 H476 0.999 . S
C474 H444 0.950 1_554 S
C474 C473 1.524 . S
C474 C475 1.415 . S
C475 H445 0.950 . S
C475 C470 1.363 . S
C475 C474 1.415 . S
H476 C473 0.999 . S
H477 C458 0.913 . S
H478 C496 0.951 . S
H479 C498 0.951 . S
H480 C500 0.950 . S
H481 C501 0.950 . S
H482 C503 0.950 . S
H483 C506 0.950 1_655 S
H484 C507 0.950 1_554 S
H485 C509 0.950 1_554 S
H486 C510 0.950 . S
H487 C511 0.951 . S
H488 C513 0.951 . S
H489 C515 0.950 . S
H490 C516 0.950 . S
H491 C518 0.950 . S
H492 C521 0.950 . S
H493 C522 0.950 . S
H494 C524 0.950 . S
H495 C525 0.950 . S
C496 H478 0.951 . S
C496 C497 1.366 . S
C496 C498 1.388 . S
C497 C496 1.366 . S
C497 C501 1.385 . S
C498 H479 0.951 . S
C498 C496 1.388 . S
C498 C499 1.366 . S
C499 C498 1.366 . S
C499 C500 1.414 . S
C499 C502 1.499 . S
C500 H480 0.950 . S
C500 C499 1.414 . S
C500 C501 1.374 . S
C501 H481 0.950 . S
C501 C497 1.385 . S
C501 C500 1.374 . S
C502 C499 1.499 . S
C502 C503 1.373 . S
C502 C504 1.389 1_655 S
C503 H482 0.950 . S
C503 C502 1.373 . S
C503 C519 1.377 1_655 S
C504 C502 1.389 1_455 S
C504 C505 1.524 . S
C504 C518 1.377 . S
C505 C504 1.524 . S
C505 C506 1.397 . S
C505 C510 1.363 . S
C506 H483 0.950 1_455 S
C506 C505 1.397 . S
C506 C507 1.334 . S
C507 H484 0.950 1_556 S
C507 C506 1.334 . S
C507 C508 1.287 1_556 S
C508 C507 1.287 1_554 S
C508 C509 1.524 1_554 S
C508 H527 0.913 . S
C509 H485 0.950 1_556 S
C509 C508 1.524 1_556 S
C509 C510 1.415 . S
C510 H486 0.950 . S
C510 C505 1.363 . S
C510 C509 1.415 . S
C511 H487 0.951 . S
C511 C512 1.366 . S
C511 C513 1.388 . S
C512 C511 1.366 . S
C512 C516 1.385 . S
C513 H488 0.951 . S
C513 C511 1.388 . S
C513 C514 1.366 . S
C514 C513 1.366 . S
C514 C515 1.414 . S
C514 C517 1.499 . S
C515 H489 0.950 . S
C515 C514 1.414 . S
C515 C516 1.374 . S
C516 H490 0.950 . S
C516 C512 1.385 . S
C516 C515 1.374 . S
C517 C514 1.499 . S
C517 C518 1.373 . S
C517 C519 1.389 . S
C518 H491 0.950 . S
C518 C504 1.377 . S
C518 C517 1.373 . S
C519 C503 1.377 1_455 S
C519 C517 1.389 . S
C519 C520 1.524 . S
C520 C519 1.524 . S
C520 C521 1.397 . S
C520 C525 1.363 1_455 S
C521 H492 0.950 . S
C521 C520 1.397 . S
C521 C522 1.334 . S
C522 H493 0.950 . S
C522 C521 1.334 . S
C522 C523 1.287 1_455 S
C523 C522 1.287 1_655 S
C523 C524 1.524 . S
C523 H526 0.999 . S
C524 H494 0.950 . S
C524 C523 1.524 . S
C524 C525 1.415 . S
C525 H495 0.950 . S
C525 C520 1.363 1_655 S
C525 C524 1.415 . S
H526 C523 0.999 . S
H527 C508 0.913 . S
H528 C546 0.951 . S
H529 C548 0.951 . S
H530 C550 0.950 . S
H531 C551 0.950 . S
H532 C553 0.950 . S
H533 C556 0.950 . S
H534 C557 0.950 . S
H535 C559 0.950 . S
H536 C560 0.950 . S
H537 C561 0.951 . S
H538 C563 0.951 . S
H539 C565 0.950 . S
H540 C566 0.950 . S
H541 C568 0.950 . S
H542 C571 0.950 . S
H543 C572 0.950 . S
H544 C574 0.950 . S
H545 C575 0.950 . S
C546 H528 0.951 . S
C546 C547 1.366 . S
C546 C548 1.388 . S
C547 C546 1.366 . S
C547 C551 1.385 . S
C548 H529 0.951 . S
C548 C546 1.388 . S
C548 C549 1.366 . S
C549 C548 1.366 . S
C549 C550 1.414 . S
C549 C552 1.499 . S
C550 H530 0.950 . S
C550 C549 1.414 . S
C550 C551 1.374 . S
C551 H531 0.950 . S
C551 C547 1.385 . S
C551 C550 1.374 . S
C552 C549 1.499 . S
C552 C553 1.373 . S
C552 C554 1.389 . S
C553 H532 0.950 . S
C553 C552 1.373 . S
C553 C569 1.377 . S
C554 C552 1.389 . S
C554 C555 1.524 . S
C554 C568 1.377 . S
C555 C554 1.524 . S
C555 C556 1.397 . S
C555 C560 1.363 . S
C556 H533 0.950 . S
C556 C555 1.397 . S
C556 C557 1.334 . S
C557 H534 0.950 . S
C557 C556 1.334 . S
C557 C558 1.287 . S
C558 C557 1.287 . S
C558 C559 1.524 . S
C558 H577 0.913 . S
C559 H535 0.950 . S
C559 C558 1.524 . S
C559 C560 1.415 . S
C560 H536 0.950 . S
C560 C555 1.363 . S
C560 C559 1.415 . S
C561 H537 0.951 . S
C561 C562 1.366 . S
C561 C563 1.388 . S
C562 C561 1.366 . S
C562 C566 1.385 . S
C563 H538 0.951 . S
C563 C561 1.388 . S
C563 C564 1.366 . S
C564 C563 1.366 . S
C564 C565 1.414 . S
C564 C567 1.499 . S
C565 H539 0.950 . S
C565 C564 1.414 . S
C565 C566 1.374 . S
C566 H540 0.950 . S
C566 C562 1.385 . S
C566 C565 1.374 . S
C567 C564 1.499 . S
C567 C568 1.373 . S
C567 C569 1.389 . S
C568 H541 0.950 . S
C568 C554 1.377 . S
C568 C567 1.373 . S
C569 C553 1.377 . S
C569 C567 1.389 . S
C569 C570 1.524 . S
C570 C569 1.524 . S
C570 C571 1.397 . S
C570 C575 1.363 . S
C571 H542 0.950 . S
C571 C570 1.397 . S
C571 C572 1.334 . S
C572 H543 0.950 . S
C572 C571 1.334 . S
C572 C573 1.287 . S
C573 C572 1.287 . S
C573 C574 1.524 . S
C573 H576 0.999 . S
C574 H544 0.950 . S
C574 C573 1.524 . S
C574 C575 1.415 . S
C575 H545 0.950 . S
C575 C570 1.363 . S
C575 C574 1.415 . S
H576 C573 0.999 . S
H577 C558 0.913 . S
H578 C596 0.951 . S
H579 C598 0.951 . S
H580 C600 0.950 1_554 S
H581 C601 0.950 . S
H582 C603 0.950 . S
H583 C606 0.950 . S
H584 C607 0.950 . S
H585 C609 0.950 . S
H586 C610 0.950 . S
H587 C611 0.949 1_455 S
H588 C613 0.951 . S
H589 C615 0.950 1_556 S
H590 C616 0.950 . S
H591 C618 0.950 . S
H592 C621 0.950 . S
H593 C622 0.950 . S
H594 C624 0.950 . S
H595 C625 0.950 . S
C596 H578 0.951 . S
C596 C597 1.366 . S
C596 C598 1.388 . S
C597 C596 1.366 . S
C597 C601 1.385 . S
C598 H579 0.951 . S
C598 C596 1.388 . S
C598 C599 1.366 . S
C599 C598 1.366 . S
C599 C600 1.414 . S
C599 C602 1.499 . S
C600 H580 0.950 1_556 S
C600 C599 1.414 . S
C600 C601 1.374 . S
C601 H581 0.950 . S
C601 C597 1.385 . S
C601 C600 1.374 . S
C602 C599 1.499 . S
C602 C603 1.373 1_556 S
C602 C604 1.389 . S
C603 H582 0.950 . S
C603 C602 1.373 1_554 S
C603 C619 1.377 . S
C604 C602 1.389 . S
C604 C605 1.524 . S
C604 C618 1.377 . S
C605 C604 1.524 . S
C605 C606 1.397 . S
C605 C610 1.363 . S
C606 H583 0.950 . S
C606 C605 1.397 . S
C606 C607 1.334 . S
C607 H584 0.950 . S
C607 C606 1.334 . S
C607 C608 1.287 . S
C608 C607 1.287 . S
C608 C609 1.524 . S
C608 H627 0.913 . S
C609 H585 0.950 . S
C609 C608 1.524 . S
C609 C610 1.415 . S
C610 H586 0.950 . S
C610 C605 1.363 . S
C610 C609 1.415 . S
C611 H587 0.949 1_655 S
C611 C612 1.366 . S
C611 C613 1.388 . S
C612 C611 1.366 . S
C612 C616 1.385 . S
C613 H588 0.951 . S
C613 C611 1.388 . S
C613 C614 1.366 . S
C614 C613 1.366 . S
C614 C615 1.414 . S
C614 C617 1.499 . S
C615 H589 0.950 1_554 S
C615 C614 1.414 . S
C615 C616 1.374 . S
C616 H590 0.950 . S
C616 C612 1.385 . S
C616 C615 1.374 . S
C617 C614 1.499 . S
C617 C618 1.373 1_554 S
C617 C619 1.389 . S
C618 H591 0.950 . S
C618 C604 1.377 . S
C618 C617 1.373 1_556 S
C619 C603 1.377 . S
C619 C617 1.389 . S
C619 C620 1.524 . S
C620 C619 1.524 . S
C620 C621 1.397 . S
C620 C625 1.363 . S
C621 H592 0.950 . S
C621 C620 1.397 . S
C621 C622 1.334 1_655 S
C622 H593 0.950 . S
C622 C621 1.334 1_455 S
C622 C623 1.287 . S
C623 C622 1.287 . S
C623 C624 1.524 . S
C623 H626 0.999 . S
C624 H594 0.950 . S
C624 C623 1.524 . S
C624 C625 1.415 1_455 S
C625 H595 0.950 . S
C625 C620 1.363 . S
C625 C624 1.415 1_655 S
H626 C623 0.999 . S
H627 C608 0.913 . S
H628 C646 0.951 . S
H629 C648 0.951 . S
H630 C650 0.950 . S
H631 C651 0.950 . S
H632 C653 0.950 . S
H633 C656 0.950 . S
H634 C657 0.950 . S
H635 C659 0.950 . S
H636 C660 0.950 . S
H637 C661 0.951 1_455 S
H638 C663 0.951 . S
H639 C665 0.950 . S
H640 C666 0.950 . S
H641 C668 0.950 . S
H642 C671 0.950 . S
H643 C672 0.950 . S
H644 C674 0.950 . S
H645 C675 0.950 . S
C646 H628 0.951 . S
C646 C647 1.366 . S
C646 C648 1.388 . S
C647 C646 1.366 . S
C647 C651 1.385 . S
C648 H629 0.951 . S
C648 C646 1.388 . S
C648 C649 1.366 . S
C649 C648 1.366 . S
C649 C650 1.414 . S
C649 C652 1.499 . S
C650 H630 0.950 . S
C650 C649 1.414 . S
C650 C651 1.374 . S
C651 H631 0.950 . S
C651 C647 1.385 . S
C651 C650 1.374 . S
C652 C649 1.499 . S
C652 C653 1.373 . S
C652 C654 1.389 . S
C653 H632 0.950 . S
C653 C652 1.373 . S
C653 C669 1.377 . S
C654 C652 1.389 . S
C654 C655 1.524 . S
C654 C668 1.377 . S
C655 C654 1.524 . S
C655 C656 1.397 . S
C655 C660 1.363 . S
C656 H633 0.950 . S
C656 C655 1.397 . S
C656 C657 1.334 . S
C657 H634 0.950 . S
C657 C656 1.334 . S
C657 C658 1.287 . S
C658 C657 1.287 . S
C658 C659 1.524 . S
C658 H677 0.913 . S
C659 H635 0.950 . S
C659 C658 1.524 . S
C659 C660 1.415 . S
C660 H636 0.950 . S
C660 C655 1.363 . S
C660 C659 1.415 . S
C661 H637 0.951 1_655 S
C661 C662 1.366 . S
C661 C663 1.388 . S
C662 C661 1.366 . S
C662 C666 1.385 . S
C663 H638 0.951 . S
C663 C661 1.388 . S
C663 C664 1.366 . S
C664 C663 1.366 . S
C664 C665 1.414 . S
C664 C667 1.499 . S
C665 H639 0.950 . S
C665 C664 1.414 . S
C665 C666 1.374 . S
C666 H640 0.950 . S
C666 C662 1.385 . S
C666 C665 1.374 . S
C667 C664 1.499 . S
C667 C668 1.373 . S
C667 C669 1.389 . S
C668 H641 0.950 . S
C668 C654 1.377 . S
C668 C667 1.373 . S
C669 C653 1.377 . S
C669 C667 1.389 . S
C669 C670 1.524 . S
C670 C669 1.524 . S
C670 C671 1.397 . S
C670 C675 1.363 . S
C671 H642 0.950 . S
C671 C670 1.397 . S
C671 C672 1.334 . S
C672 H643 0.950 . S
C672 C671 1.334 . S
C672 C673 1.287 . S
C673 C672 1.287 . S
C673 C674 1.524 . S
C673 H676 0.999 . S
C674 H644 0.950 . S
C674 C673 1.524 . S
C674 C675 1.415 . S
C675 H645 0.950 . S
C675 C670 1.363 . S
C675 C674 1.415 . S
H676 C673 0.999 . S
H677 C658 0.913 . S
H678 C696 0.951 . S
H679 C698 0.951 . S
H680 C700 0.950 . S
H681 C701 0.950 . S
H682 C703 0.950 . S
H683 C706 0.950 . S
H684 C707 0.950 . S
H685 C709 0.950 . S
H686 C710 0.950 . S
H687 C711 0.951 . S
H688 C713 0.951 . S
H689 C715 0.950 . S
H690 C716 0.950 1_655 S
H691 C718 0.950 . S
H692 C721 0.950 . S
H693 C722 0.950 . S
H694 C724 0.950 . S
H695 C725 0.950 . S
C696 H678 0.951 . S
C696 C697 1.366 . S
C696 C698 1.388 . S
C697 C696 1.366 . S
C697 C701 1.385 . S
C698 H679 0.951 . S
C698 C696 1.388 . S
C698 C699 1.366 . S
C699 C698 1.366 . S
C699 C700 1.414 . S
C699 C702 1.499 . S
C700 H680 0.950 . S
C700 C699 1.414 . S
C700 C701 1.374 . S
C701 H681 0.950 . S
C701 C697 1.385 . S
C701 C700 1.374 . S
C702 C699 1.499 . S
C702 C703 1.373 . S
C702 C704 1.389 1_554 S
C703 H682 0.950 . S
C703 C702 1.373 . S
C703 C719 1.377 . S
C704 C702 1.389 1_556 S
C704 C705 1.524 . S
C704 C718 1.377 . S
C705 C704 1.524 . S
C705 C706 1.397 . S
C705 C710 1.363 . S
C706 H683 0.950 . S
C706 C705 1.397 . S
C706 C707 1.334 . S
C707 H684 0.950 . S
C707 C706 1.334 . S
C707 C708 1.287 . S
C708 C707 1.287 . S
C708 C709 1.524 . S
C708 H727 0.913 . S
C709 H685 0.950 . S
C709 C708 1.524 . S
C709 C710 1.415 . S
C710 H686 0.950 . S
C710 C705 1.363 . S
C710 C709 1.415 . S
C711 H687 0.951 . S
C711 C712 1.366 . S
C711 C713 1.388 . S
C712 C711 1.366 . S
C712 C716 1.385 . S
C713 H688 0.951 . S
C713 C711 1.388 . S
C713 C714 1.366 . S
C714 C713 1.366 . S
C714 C715 1.414 . S
C714 C717 1.499 . S
C715 H689 0.950 . S
C715 C714 1.414 . S
C715 C716 1.374 . S
C716 H690 0.950 1_455 S
C716 C712 1.385 . S
C716 C715 1.374 . S
C717 C714 1.499 . S
C717 C718 1.373 . S
C717 C719 1.389 1_556 S
C718 H691 0.950 . S
C718 C704 1.377 . S
C718 C717 1.373 . S
C719 C703 1.377 . S
C719 C717 1.389 1_554 S
C719 C720 1.524 . S
C720 C719 1.524 . S
C720 C721 1.397 . S
C720 C725 1.363 . S
C721 H692 0.950 . S
C721 C720 1.397 . S
C721 C722 1.334 . S
C722 H693 0.950 . S
C722 C721 1.334 . S
C722 C723 1.287 . S
C723 C722 1.287 . S
C723 C724 1.524 . S
C723 H726 0.999 . S
C724 H694 0.950 . S
C724 C723 1.524 . S
C724 C725 1.415 . S
C725 H695 0.950 . S
C725 C720 1.363 . S
C725 C724 1.415 . S
H726 C723 0.999 . S
H727 C708 0.913 . S
H728 C746 0.951 . S
H729 C748 0.951 . S
H730 C750 0.950 1_556 S
H731 C751 0.950 . S
H732 C753 0.950 . S
H733 C756 0.950 . S
H734 C757 0.950 . S
H735 C759 0.950 1_565 S
H736 C760 0.957 . S
H737 C761 0.951 . S
H738 C763 0.951 . S
H739 C765 0.950 1_554 S
H740 C766 0.950 . S
H741 C768 0.950 . S
H742 C771 0.950 . S
H743 C772 0.950 . S
H744 C774 0.950 1_545 S
H745 C775 0.957 . S
C746 H728 0.951 . S
C746 C747 1.366 1_455 S
C746 C748 1.388 . S
C747 C746 1.366 1_655 S
C747 C751 1.385 . S
C748 H729 0.951 . S
C748 C746 1.388 . S
C748 C749 1.366 . S
C749 C748 1.366 . S
C749 C750 1.414 1_455 S
C749 C752 1.499 . S
C750 H730 0.950 1_554 S
C750 C749 1.414 1_655 S
C750 C751 1.374 . S
C751 H731 0.950 . S
C751 C747 1.385 . S
C751 C750 1.374 . S
C752 C749 1.499 . S
C752 C753 1.373 1_454 S
C752 C754 1.389 . S
C753 H732 0.950 . S
C753 C752 1.373 1_656 S
C753 C769 1.377 1_545 S
C754 C752 1.389 . S
C754 C755 1.524 . S
C754 C768 1.377 1_545 S
C755 C754 1.524 . S
C755 C756 1.397 . S
C755 C760 1.359 1_545 S
C756 H733 0.950 . S
C756 C755 1.397 . S
C756 C757 1.334 . S
C757 H734 0.950 . S
C757 C756 1.334 . S
C757 C758 1.287 . S
C758 C757 1.287 . S
C758 C759 1.524 . S
C758 H777 0.913 . S
C759 H735 0.950 1_545 S
C759 C758 1.524 . S
C759 C760 1.412 1_545 S
C760 H736 0.957 . S
C760 C755 1.359 1_565 S
C760 C759 1.412 1_565 S
C761 H737 0.951 . S
C761 C762 1.366 1_655 S
C761 C763 1.388 . S
C762 C761 1.366 1_455 S
C762 C766 1.385 . S
C763 H738 0.951 . S
C763 C761 1.388 . S
C763 C764 1.366 1_655 S
C764 C763 1.366 1_455 S
C764 C765 1.414 . S
C764 C767 1.499 . S
C765 H739 0.950 1_556 S
C765 C764 1.414 . S
C765 C766 1.374 . S
C766 H740 0.950 . S
C766 C762 1.385 . S
C766 C765 1.374 . S
C767 C764 1.499 . S
C767 C768 1.373 1_556 S
C767 C769 1.389 1_455 S
C768 H741 0.950 . S
C768 C754 1.377 1_565 S
C768 C767 1.373 1_554 S
C769 C753 1.377 1_565 S
C769 C767 1.389 1_655 S
C769 C770 1.524 . S
C770 C769 1.524 . S
C770 C771 1.397 . S
C770 C775 1.359 1_565 S
C771 H742 0.950 . S
C771 C770 1.397 . S
C771 C772 1.334 . S
C772 H743 0.950 . S
C772 C771 1.334 . S
C772 C773 1.287 . S
C773 C772 1.287 . S
C773 C774 1.524 . S
C773 H776 0.999 . S
C774 H744 0.950 1_565 S
C774 C773 1.524 . S
C774 C775 1.413 1_565 S
C775 H745 0.957 . S
C775 C770 1.359 1_545 S
C775 C774 1.413 1_545 S
H776 C773 0.999 . S
H777 C758 0.913 . S
H778 C796 0.951 . S
H779 C798 0.951 . S
H780 C800 0.950 . S
H781 C801 0.950 . S
H782 C803 0.950 . S
H783 C806 0.950 1_655 S
H784 C807 0.950 . S
H785 C809 0.950 . S
H786 C810 0.950 . S
H787 C811 0.951 . S
H788 C813 0.951 . S
H789 C815 0.950 . S
H790 C816 0.950 . S
H791 C818 0.950 . S
H792 C821 0.950 1_455 S
H793 C822 0.950 . S
H794 C824 0.950 . S
H795 C825 0.950 . S
C796 H778 0.951 . S
C796 C797 1.366 . S
C796 C798 1.388 . S
C797 C796 1.366 . S
C797 C801 1.385 1_455 S
C798 H779 0.951 . S
C798 C796 1.388 . S
C798 C799 1.366 . S
C799 C798 1.366 . S
C799 C800 1.414 1_455 S
C799 C802 1.499 . S
C800 H780 0.950 . S
C800 C799 1.414 1_655 S
C800 C801 1.374 . S
C801 H781 0.950 . S
C801 C797 1.385 1_655 S
C801 C800 1.374 . S
C802 C799 1.499 . S
C802 C803 1.373 1_455 S
C802 C804 1.389 . S
C803 H782 0.950 . S
C803 C802 1.373 1_655 S
C803 C819 1.377 1_545 S
C804 C802 1.389 . S
C804 C805 1.524 . S
C804 C818 1.377 1_545 S
C805 C804 1.524 . S
C805 C806 1.397 . S
C805 C810 1.363 1_545 S
C806 H783 0.950 1_455 S
C806 C805 1.397 . S
C806 C807 1.334 . S
C807 H784 0.950 . S
C807 C806 1.334 . S
C807 C808 1.287 . S
C808 C807 1.287 . S
C808 C809 1.524 1_545 S
C808 H827 0.913 . S
C809 H785 0.950 . S
C809 C808 1.524 1_565 S
C809 C810 1.415 . S
C810 H786 0.950 . S
C810 C805 1.363 1_565 S
C810 C809 1.415 . S
C811 H787 0.951 . S
C811 C812 1.366 . S
C811 C813 1.388 . S
C812 C811 1.366 . S
C812 C816 1.385 1_655 S
C813 H788 0.951 . S
C813 C811 1.388 . S
C813 C814 1.366 1_655 S
C814 C813 1.366 1_455 S
C814 C815 1.414 . S
C814 C817 1.499 . S
C815 H789 0.950 . S
C815 C814 1.414 . S
C815 C816 1.374 . S
C816 H790 0.950 . S
C816 C812 1.385 1_455 S
C816 C815 1.374 . S
C817 C814 1.499 . S
C817 C818 1.373 . S
C817 C819 1.389 1_455 S
C818 H791 0.950 . S
C818 C804 1.377 1_565 S
C818 C817 1.373 . S
C819 C803 1.377 1_565 S
C819 C817 1.389 1_655 S
C819 C820 1.524 . S
C820 C819 1.524 . S
C820 C821 1.397 . S
C820 C825 1.363 1_565 S
C821 H792 0.950 1_655 S
C821 C820 1.397 . S
C821 C822 1.334 . S
C822 H793 0.950 . S
C822 C821 1.334 . S
C822 C823 1.287 . S
C823 C822 1.287 . S
C823 C824 1.524 1_565 S
C823 H826 0.999 . S
C824 H794 0.950 . S
C824 C823 1.524 1_545 S
C824 C825 1.415 . S
C825 H795 0.950 . S
C825 C820 1.363 1_545 S
C825 C824 1.415 . S
H826 C823 0.999 . S
H827 C808 0.913 . S
H828 C846 0.951 . S
H829 C848 0.951 1_556 S
H830 C850 0.950 . S
H831 C851 0.950 . S
H832 C853 0.950 . S
H833 C856 0.950 . S
H834 C857 0.950 . S
H835 C859 0.950 . S
H836 C860 0.950 . S
H837 C861 0.951 . S
H838 C863 0.951 1_554 S
H839 C865 0.950 . S
H840 C866 0.950 . S
H841 C868 0.950 . S
H842 C871 0.950 . S
H843 C872 0.950 . S
H844 C874 0.950 . S
H845 C875 0.950 . S
C846 H828 0.951 . S
C846 C847 1.366 . S
C846 C848 1.388 . S
C847 C846 1.366 . S
C847 C851 1.385 . S
C848 H829 0.951 1_554 S
C848 C846 1.388 . S
C848 C849 1.366 . S
C849 C848 1.366 . S
C849 C850 1.414 . S
C849 C852 1.499 . S
C850 H830 0.950 . S
C850 C849 1.414 . S
C850 C851 1.374 . S
C851 H831 0.950 . S
C851 C847 1.385 . S
C851 C850 1.374 . S
C852 C849 1.499 . S
C852 C853 1.373 . S
C852 C854 1.389 1_554 S
C853 H832 0.950 . S
C853 C852 1.373 . S
C853 C869 1.377 . S
C854 C852 1.389 1_556 S
C854 C855 1.524 . S
C854 C868 1.377 . S
C855 C854 1.524 . S
C855 C856 1.397 . S
C855 C860 1.363 . S
C856 H833 0.950 . S
C856 C855 1.397 . S
C856 C857 1.334 . S
C857 H834 0.950 . S
C857 C856 1.334 . S
C857 C858 1.287 . S
C858 C857 1.287 . S
C858 C859 1.524 . S
C858 H877 0.913 . S
C859 H835 0.950 . S
C859 C858 1.524 . S
C859 C860 1.415 . S
C860 H836 0.950 . S
C860 C855 1.363 . S
C860 C859 1.415 . S
C861 H837 0.951 . S
C861 C862 1.366 . S
C861 C863 1.388 . S
C862 C861 1.366 . S
C862 C866 1.385 . S
C863 H838 0.951 1_556 S
C863 C861 1.388 . S
C863 C864 1.366 . S
C864 C863 1.366 . S
C864 C865 1.414 . S
C864 C867 1.499 . S
C865 H839 0.950 . S
C865 C864 1.414 . S
C865 C866 1.374 . S
C866 H840 0.950 . S
C866 C862 1.385 . S
C866 C865 1.374 . S
C867 C864 1.499 . S
C867 C868 1.373 . S
C867 C869 1.389 1_556 S
C868 H841 0.950 . S
C868 C854 1.377 . S
C868 C867 1.373 . S
C869 C853 1.377 . S
C869 C867 1.389 1_554 S
C869 C870 1.524 . S
C870 C869 1.524 . S
C870 C871 1.397 . S
C870 C875 1.363 . S
C871 H842 0.950 . S
C871 C870 1.397 . S
C871 C872 1.334 . S
C872 H843 0.950 . S
C872 C871 1.334 . S
C872 C873 1.287 . S
C873 C872 1.287 . S
C873 C874 1.524 . S
C873 H876 0.999 . S
C874 H844 0.950 . S
C874 C873 1.524 . S
C874 C875 1.415 . S
C875 H845 0.950 . S
C875 C870 1.363 . S
C875 C874 1.415 . S
H876 C873 0.999 . S
H877 C858 0.913 . S
H878 C896 0.951 . S
H879 C898 0.951 . S
H880 C900 0.950 . S
H881 C901 0.950 . S
H882 C903 0.950 . S
H883 C906 0.950 . S
H884 C907 0.950 . S
H885 C909 0.950 . S
H886 C910 0.950 . S
H887 C911 0.951 . S
H888 C913 0.951 . S
H889 C915 0.950 . S
H890 C916 0.950 . S
H891 C918 0.950 . S
H892 C921 0.950 . S
H893 C922 0.950 . S
H894 C924 0.950 . S
H895 C925 0.950 . S
C896 H878 0.951 . S
C896 C897 1.366 . S
C896 C898 1.388 . S
C897 C896 1.366 . S
C897 C901 1.385 . S
C898 H879 0.951 . S
C898 C896 1.388 . S
C898 C899 1.366 . S
C899 C898 1.366 . S
C899 C900 1.414 . S
C899 C902 1.499 . S
C900 H880 0.950 . S
C900 C899 1.414 . S
C900 C901 1.374 . S
C901 H881 0.950 . S
C901 C897 1.385 . S
C901 C900 1.374 . S
C902 C899 1.499 . S
C902 C903 1.373 . S
C902 C904 1.389 . S
C903 H882 0.950 . S
C903 C902 1.373 . S
C903 C919 1.377 . S
C904 C902 1.389 . S
C904 C905 1.524 . S
C904 C918 1.377 . S
C905 C904 1.524 . S
C905 C906 1.397 . S
C905 C910 1.363 . S
C906 H883 0.950 . S
C906 C905 1.397 . S
C906 C907 1.334 . S
C907 H884 0.950 . S
C907 C906 1.334 . S
C907 C908 1.287 . S
C908 C907 1.287 . S
C908 C909 1.524 . S
C908 H927 0.913 . S
C909 H885 0.950 . S
C909 C908 1.524 . S
C909 C910 1.415 . S
C910 H886 0.950 . S
C910 C905 1.363 . S
C910 C909 1.415 . S
C911 H887 0.951 . S
C911 C912 1.366 . S
C911 C913 1.388 . S
C912 C911 1.366 . S
C912 C916 1.385 . S
C913 H888 0.951 . S
C913 C911 1.388 . S
C913 C914 1.366 . S
C914 C913 1.366 . S
C914 C915 1.414 . S
C914 C917 1.499 . S
C915 H889 0.950 . S
C915 C914 1.414 . S
C915 C916 1.374 . S
C916 H890 0.950 . S
C916 C912 1.385 . S
C916 C915 1.374 . S
C917 C914 1.499 . S
C917 C918 1.373 . S
C917 C919 1.389 . S
C918 H891 0.950 . S
C918 C904 1.377 . S
C918 C917 1.373 . S
C919 C903 1.377 . S
C919 C917 1.389 . S
C919 C920 1.524 . S
C920 C919 1.524 . S
C920 C921 1.397 . S
C920 C925 1.363 . S
C921 H892 0.950 . S
C921 C920 1.397 . S
C921 C922 1.334 . S
C922 H893 0.950 . S
C922 C921 1.334 . S
C922 C923 1.287 . S
C923 C922 1.287 . S
C923 C924 1.524 . S
C923 H926 0.999 . S
C924 H894 0.950 . S
C924 C923 1.524 . S
C924 C925 1.415 . S
C925 H895 0.950 . S
C925 C920 1.363 . S
C925 C924 1.415 . S
H926 C923 0.999 . S
H927 C908 0.913 . S
C147 C20 1.502 1_556 S
C162 C16 1.502 . S
C197 C52 1.502 . S
C212 C48 1.502 1_554 S
C247 C84 1.502 1_556 S
C262 C80 1.502 . S
C297 C112 1.502 1_554 S
C312 C116 1.502 . S
C347 C19 0.449 . S
C362 C23 0.449 . S
C397 C51 0.448 . S
C412 C55 0.448 . S
C447 C87 0.448 . S
C462 C83 0.448 . S
C497 C119 0.449 . S
C512 C115 0.449 . S
C547 C114 1.845 . S
C562 C22 1.845 . S
C597 C117 2.117 . S
C612 C17 2.117 . S
C647 C86 1.844 . S
C662 C50 1.844 . S
C697 C81 2.117 . S
C712 C53 2.117 . S
C747 C18 2.063 . S
C762 C54 2.063 . S
C797 C21 1.715 . S
C812 C49 1.715 . S
C847 C82 2.062 . S
C862 C118 2.062 . S
C897 C113 1.715 . S
C912 C85 1.715 . S
