# Generated by pormake.
# Topology fnl, (5)-cn, num edge types: 1
# Building blocks:
#     Node 0, Type 0, BuildingBlock: XOMCOT_clean_sbu_1, # of connection points: 5
#     Node 1, Type 0, BuildingBlock: XOMCOT_clean_sbu_1, # of connection points: 5
#     Node 2, Type 0, BuildingBlock: XOMCOT_clean_sbu_1, # of connection points: 5
#     Node 3, Type 0, BuildingBlock: XOMCOT_clean_sbu_1, # of connection points: 5
#     Node 4, Type 0, BuildingBlock: XOMCOT_clean_sbu_1, # of connection points: 5
#     Node 5, Type 0, BuildingBlock: XOMCOT_clean_sbu_1, # of connection points: 5
#     Node 6, Type 0, BuildingBlock: XOMCOT_clean_sbu_1, # of connection points: 5
#     Node 7, Type 0, BuildingBlock: XOMCOT_clean_sbu_1, # of connection points: 5
#     Node 8, Type 0, BuildingBlock: XOMCOT_clean_sbu_1, # of connection points: 5
#     Node 9, Type 0, BuildingBlock: XOMCOT_clean_sbu_1, # of connection points: 5
#     Node 10, Type 0, BuildingBlock: XOMCOT_clean_sbu_1, # of connection points: 5
#     Node 11, Type 0, BuildingBlock: XOMCOT_clean_sbu_1, # of connection points: 5
#     Node 12, Type 0, BuildingBlock: XOMCOT_clean_sbu_1, # of connection points: 5
#     Node 13, Type 0, BuildingBlock: XOMCOT_clean_sbu_1, # of connection points: 5
#     Node 14, Type 0, BuildingBlock: XOMCOT_clean_sbu_1, # of connection points: 5
#     Node 15, Type 0, BuildingBlock: XOMCOT_clean_sbu_1, # of connection points: 5
#     Edge 16, Type (0, 0), BuildingBlock: MIFKUJ_clean_linker_0, # of connection points: 2
#     Edge 17, Type (0, 0), BuildingBlock: MIFKUJ_clean_linker_0, # of connection points: 2
#     Edge 18, Type (0, 0), BuildingBlock: MIFKUJ_clean_linker_0, # of connection points: 2
#     Edge 19, Type (0, 0), BuildingBlock: MIFKUJ_clean_linker_0, # of connection points: 2
#     Edge 20, Type (0, 0), BuildingBlock: MIFKUJ_clean_linker_0, # of connection points: 2
#     Edge 21, Type (0, 0), BuildingBlock: MIFKUJ_clean_linker_0, # of connection points: 2
#     Edge 22, Type (0, 0), BuildingBlock: MIFKUJ_clean_linker_0, # of connection points: 2
#     Edge 23, Type (0, 0), BuildingBlock: MIFKUJ_clean_linker_0, # of connection points: 2
#     Edge 24, Type (0, 0), BuildingBlock: MIFKUJ_clean_linker_0, # of connection points: 2
#     Edge 25, Type (0, 0), BuildingBlock: MIFKUJ_clean_linker_0, # of connection points: 2
#     Edge 26, Type (0, 0), BuildingBlock: MIFKUJ_clean_linker_0, # of connection points: 2
#     Edge 27, Type (0, 0), BuildingBlock: MIFKUJ_clean_linker_0, # of connection points: 2
#     Edge 28, Type (0, 0), BuildingBlock: MIFKUJ_clean_linker_0, # of connection points: 2
#     Edge 29, Type (0, 0), BuildingBlock: MIFKUJ_clean_linker_0, # of connection points: 2
#     Edge 30, Type (0, 0), BuildingBlock: MIFKUJ_clean_linker_0, # of connection points: 2
#     Edge 31, Type (0, 0), BuildingBlock: MIFKUJ_clean_linker_0, # of connection points: 2
#     Edge 32, Type (0, 0), BuildingBlock: MIFKUJ_clean_linker_0, # of connection points: 2
#     Edge 33, Type (0, 0), BuildingBlock: MIFKUJ_clean_linker_0, # of connection points: 2
#     Edge 34, Type (0, 0), BuildingBlock: MIFKUJ_clean_linker_0, # of connection points: 2
#     Edge 35, Type (0, 0), BuildingBlock: MIFKUJ_clean_linker_0, # of connection points: 2
#     Edge 36, Type (0, 0), BuildingBlock: MIFKUJ_clean_linker_0, # of connection points: 2
#     Edge 37, Type (0, 0), BuildingBlock: MIFKUJ_clean_linker_0, # of connection points: 2
#     Edge 38, Type (0, 0), BuildingBlock: MIFKUJ_clean_linker_0, # of connection points: 2
#     Edge 39, Type (0, 0), BuildingBlock: MIFKUJ_clean_linker_0, # of connection points: 2
#     Edge 40, Type (0, 0), BuildingBlock: MIFKUJ_clean_linker_0, # of connection points: 2
#     Edge 41, Type (0, 0), BuildingBlock: MIFKUJ_clean_linker_0, # of connection points: 2
#     Edge 42, Type (0, 0), BuildingBlock: MIFKUJ_clean_linker_0, # of connection points: 2
#     Edge 43, Type (0, 0), BuildingBlock: MIFKUJ_clean_linker_0, # of connection points: 2
#     Edge 44, Type (0, 0), BuildingBlock: MIFKUJ_clean_linker_0, # of connection points: 2
#     Edge 45, Type (0, 0), BuildingBlock: MIFKUJ_clean_linker_0, # of connection points: 2
#     Edge 46, Type (0, 0), BuildingBlock: MIFKUJ_clean_linker_0, # of connection points: 2
#     Edge 47, Type (0, 0), BuildingBlock: MIFKUJ_clean_linker_0, # of connection points: 2
#     Edge 48, Type (0, 0), BuildingBlock: MIFKUJ_clean_linker_0, # of connection points: 2
#     Edge 49, Type (0, 0), BuildingBlock: MIFKUJ_clean_linker_0, # of connection points: 2
#     Edge 50, Type (0, 0), BuildingBlock: MIFKUJ_clean_linker_0, # of connection points: 2
#     Edge 51, Type (0, 0), BuildingBlock: MIFKUJ_clean_linker_0, # of connection points: 2
#     Edge 52, Type (0, 0), BuildingBlock: MIFKUJ_clean_linker_0, # of connection points: 2
#     Edge 53, Type (0, 0), BuildingBlock: MIFKUJ_clean_linker_0, # of connection points: 2
#     Edge 54, Type (0, 0), BuildingBlock: MIFKUJ_clean_linker_0, # of connection points: 2
#     Edge 55, Type (0, 0), BuildingBlock: MIFKUJ_clean_linker_0, # of connection points: 2
# Relax obj value: 0.490
# Max RMSD: 0.265
# Mean RMSD: 0.265
data_MOF--net-fnl--node1-XOMCOT_clean_sbu_1--edge1-MIFKUJ_clean_linker_0
_symmetry_space_group_name_H-M    P1
_symmetry_Int_Tables_number       1
_symmetry_cell_setting            triclinic
loop_
_symmetry_equiv_pos_as_xyz
'x, y, z'
_cell_length_a     42.638756
_cell_length_b     42.66294
_cell_length_c     124.30712
_cell_angle_alpha  89.991764
_cell_angle_beta   89.974145
_cell_angle_gamma 90.017302
loop_
_atom_site_label
_atom_site_type_symbol
_atom_site_fract_x
_atom_site_fract_y
_atom_site_fract_z
_atom_type_partial_charge
C0 C 0.9884 0.04902 0.06488 0.0
C1 C 0.97803 0.01855 0.06445 0.0
N2 N 0.99391 0.00168 0.07184 0.0
N3 N 0.01084 0.05141 0.07244 0.0
C4 C 0.01378 0.02222 0.07653 0.0
H5 H 0.9798 0.06837 0.0601 0.0
Co6 Co 0.02929 0.0889 0.07642 0.0
C7 C 0.07036 0.07511 0.09474 0.0
O8 O 0.05999 0.10092 0.0993 0.0
N9 N 0.04812 0.12721 0.08011 0.0
C10 C 0.08445 0.16441 0.08182 0.0
C11 C 0.07922 0.13333 0.07955 0.0
C12 C 0.03503 0.15505 0.08259 0.0
N13 N 0.05652 0.17793 0.08374 0.0
O14 O 0.05665 0.08617 0.0643 0.0
H15 H 0.09695 0.11635 0.07737 0.0
H16 H 0.01017 0.15933 0.08285 0.0
O17 O 0.05975 0.0669 0.08553 0.0
C18 C 0.04531 0.10312 0.05681 0.0
O19 O 0.01966 0.11918 0.05883 0.0
N20 N -0.00052 0.09196 0.0875 0.0
C21 C 0.9442 0.09078 0.0996 0.0
C22 C 0.96972 0.07151 0.1023 0.0
C23 C 0.99691 0.0721 0.09608 0.0
C24 C 0.97472 0.11037 0.08465 0.0
C25 C 0.94733 0.11097 0.09077 0.0
H26 H 0.01448 0.05461 0.0977 0.0
H27 H 0.97554 0.12342 0.0772 0.0
H28 H 0.02947 0.01636 0.08306 0.0
H29 H 0.96031 0.00961 0.05904 0.0
H30 H 0.10687 0.17631 0.08171 0.0
H31 H 0.96797 0.05424 0.10866 0.0
H32 H 0.92823 0.12595 0.08823 0.0
C33 C 0.29489 0.78521 0.31496 0.0
C34 C 0.32548 0.77924 0.31204 0.0
N35 N 0.34328 0.80361 0.31526 0.0
N36 N 0.29361 0.81301 0.32008 0.0
C37 C 0.32333 0.82378 0.32006 0.0
H38 H 0.27487 0.77024 0.3135 0.0
Co39 Co 0.25809 0.83152 0.32567 0.0
C40 C 0.27789 0.86573 0.34502 0.0
O41 O 0.2531 0.85417 0.34992 0.0
N42 N 0.22166 0.8511 0.33108 0.0
C43 C 0.18863 0.88934 0.33567 0.0
C44 C 0.2179 0.88256 0.33171 0.0
C45 C 0.19406 0.83939 0.33459 0.0
N46 N 0.1738 0.86208 0.33753 0.0
O47 O 0.26045 0.86231 0.31454 0.0
H48 H 0.23544 0.89959 0.32939 0.0
H49 H 0.18807 0.81488 0.33465 0.0
O50 O 0.28344 0.85832 0.33521 0.0
C51 C 0.23903 0.86153 0.30741 0.0
O52 O 0.21554 0.84188 0.30858 0.0
N53 N 0.25601 0.79885 0.33588 0.0
C54 C 0.25402 0.74517 0.34868 0.0
C55 C 0.2776 0.76763 0.35011 0.0
C56 C 0.27881 0.79371 0.3434 0.0
C57 C 0.23438 0.77602 0.33384 0.0
C58 C 0.23255 0.74918 0.34027 0.0
H59 H 0.29891 0.80894 0.34402 0.0
H60 H 0.21893 0.77827 0.32698 0.0
H61 H 0.33032 0.84579 0.32365 0.0
H62 H 0.33387 0.75873 0.30781 0.0
H63 H 0.17898 0.91247 0.33702 0.0
H64 H 0.29587 0.76435 0.35606 0.0
H65 H 0.21485 0.73163 0.33861 0.0
C66 C 0.55096 0.11311 0.56218 0.0
C67 C 0.55628 0.14433 0.56003 0.0
N68 N 0.53203 0.16101 0.56399 0.0
N69 N 0.52365 0.11024 0.56754 0.0
C70 C 0.51252 0.13973 0.56843 0.0
H71 H 0.56616 0.09374 0.5601 0.0
Co72 Co 0.50667 0.07338 0.57277 0.0
C73 C 0.47307 0.09078 0.59259 0.0
O74 O 0.48429 0.06546 0.59723 0.0
N75 N 0.48868 0.03575 0.57789 0.0
C76 C 0.45182 0.00088 0.58224 0.0
C77 C 0.45739 0.0307 0.57856 0.0
C78 C 0.50153 0.00838 0.58115 0.0
N79 N 0.47968 0.987 0.58391 0.0
O80 O 0.47492 0.07586 0.56194 0.0
H81 H 0.43963 0.04776 0.57648 0.0
H82 H 0.52628 0.00342 0.58121 0.0
O83 O 0.48012 0.09689 0.58281 0.0
C84 C 0.47649 0.05526 0.55455 0.0
O85 O 0.4979 0.03319 0.55522 0.0
N86 N 0.54015 0.07117 0.58265 0.0
C87 C 0.59509 0.06908 0.59469 0.0
C88 C 0.57211 0.09149 0.59692 0.0
C89 C 0.54523 0.0928 0.59058 0.0
C90 C 0.56342 0.05066 0.57994 0.0
C91 C 0.59098 0.04878 0.58599 0.0
H92 H 0.52943 0.1122 0.59179 0.0
H93 H 0.56087 0.03617 0.57285 0.0
H94 H 0.49085 0.14563 0.57247 0.0
H95 H 0.57633 0.15395 0.55583 0.0
H96 H 0.4291 0.99026 0.58359 0.0
H97 H 0.57557 0.10869 0.60322 0.0
H98 H 0.60912 0.03224 0.58376 0.0
C99 C 0.22783 0.3331 0.80421 0.0
C100 C 0.19689 0.34028 0.80225 0.0
N101 N 0.17898 0.32264 0.80881 0.0
N102 N 0.22936 0.31123 0.81201 0.0
C103 C 0.19923 0.30517 0.81461 0.0
H104 H 0.24802 0.34325 0.80025 0.0
Co105 Co 0.26666 0.29561 0.81736 0.0
C106 C 0.25199 0.26026 0.83726 0.0
O107 O 0.27817 0.27068 0.84153 0.0
N108 N 0.30528 0.2797 0.82242 0.0
C109 C 0.34349 0.24616 0.8266 0.0
C110 C 0.31338 0.24904 0.82276 0.0
C111 C 0.33107 0.29487 0.826 0.0
N112 N 0.3544 0.27509 0.82868 0.0
O113 O 0.26482 0.26294 0.80695 0.0
H114 H 0.29823 0.22988 0.82042 0.0
H115 H 0.33345 0.31996 0.82639 0.0
O116 O 0.24412 0.26891 0.82776 0.0
C117 C 0.28367 0.26631 0.7991 0.0
O118 O 0.30351 0.28989 0.79929 0.0
N119 N 0.26817 0.32988 0.82684 0.0
C120 C 0.27056 0.38602 0.83828 0.0
C121 C 0.25079 0.36158 0.84159 0.0
C122 C 0.24931 0.33403 0.8356 0.0
C123 C 0.28587 0.3542 0.8231 0.0
C124 C 0.2879 0.38233 0.8288 0.0
H125 H 0.23192 0.31692 0.83783 0.0
H126 H 0.29866 0.3516 0.81563 0.0
H127 H 0.19216 0.28881 0.82078 0.0
H128 H 0.18824 0.35688 0.79637 0.0
H129 H 0.35628 0.22453 0.82779 0.0
H130 H 0.23558 0.36423 0.84852 0.0
H131 H 0.30276 0.40098 0.8258 0.0
C132 C 0.96569 0.11504 0.93891 0.0
C133 C 0.95953 0.14488 0.94254 0.0
N134 N 0.98431 0.16307 0.94016 0.0
N135 N 0.99369 0.11451 0.9338 0.0
C136 C 0.00497 0.14394 0.93521 0.0
H137 H 0.95113 0.09493 0.94051 0.0
Co138 Co 0.0158 0.07968 0.92812 0.0
C139 C 0.03345 0.12969 0.91279 0.0
O140 O 0.00376 0.13779 0.91207 0.0
N141 N 0.03794 0.04543 0.92309 0.0
C142 C 0.07451 0.01329 0.91685 0.0
C143 C 0.06791 0.04377 0.91968 0.0
C144 C 0.02688 0.01594 0.92237 0.0
N145 N 0.0486 0.99582 0.91853 0.0
O146 O 0.0445 0.08365 0.93968 0.0
H147 H 0.08397 0.06336 0.91932 0.0
H148 H 0.00339 0.00943 0.9248 0.0
O149 O 0.0416 0.10748 0.91913 0.0
C150 C 0.03689 0.06565 0.94741 0.0
O151 O 0.01239 0.04728 0.94617 0.0
N152 N 0.98647 0.07373 0.91683 0.0
C153 C 0.94147 0.06828 0.90071 0.0
C154 C 0.97332 0.0709 0.89809 0.0
C155 C 0.99554 0.07277 0.90628 0.0
C156 C 0.95633 0.06628 0.91945 0.0
C157 C 0.93319 0.0643 0.91154 0.0
H158 H 0.02002 0.0743 0.9041 0.0
H159 H 0.95003 0.06169 0.92768 0.0
H160 H 0.0281 0.15132 0.93272 0.0
H161 H 0.93885 0.15238 0.94689 0.0
H162 H 0.0966 0.00479 0.91371 0.0
H163 H 0.98093 0.07233 0.88979 0.0
H164 H 0.909 0.06092 0.91393 0.0
C165 C 0.21881 0.7803 0.18705 0.0
C166 C 0.18749 0.77733 0.18948 0.0
N167 N 0.17352 0.80511 0.18762 0.0
N168 N 0.22434 0.80964 0.1835 0.0
C169 C 0.19638 0.82436 0.18407 0.0
H170 H 0.23642 0.76218 0.18775 0.0
Co171 Co 0.26275 0.82489 0.17907 0.0
C172 C 0.25086 0.86476 0.16017 0.0
O173 O 0.2759 0.85244 0.15568 0.0
N174 N 0.30226 0.84082 0.17495 0.0
C175 C 0.34057 0.87539 0.1721 0.0
C176 C 0.30991 0.8716 0.1752 0.0
C177 C 0.32899 0.82642 0.17182 0.0
N178 N 0.35248 0.84689 0.16995 0.0
O179 O 0.2614 0.85425 0.19062 0.0
H180 H 0.29405 0.89024 0.17748 0.0
H181 H 0.33189 0.80142 0.17122 0.0
O182 O 0.24227 0.85563 0.16955 0.0
C183 C 0.27985 0.84964 0.1985 0.0
O184 O 0.30015 0.82652 0.19796 0.0
N185 N 0.26332 0.79384 0.16823 0.0
C186 C 0.25999 0.74172 0.15471 0.0
C187 C 0.2405 0.76765 0.15306 0.0
C188 C 0.24177 0.79293 0.16009 0.0
C189 C 0.28135 0.76808 0.17028 0.0
C190 C 0.28039 0.74185 0.16353 0.0
H191 H 0.22402 0.81074 0.15929 0.0
H192 H 0.2956 0.76734 0.17747 0.0
H193 H 0.19271 0.84852 0.18174 0.0
H194 H 0.17589 0.75646 0.19244 0.0
H195 H 0.35306 0.8974 0.17145 0.0
H196 H 0.22298 0.76758 0.14674 0.0
H197 H 0.29483 0.72164 0.16534 0.0
C198 C 0.53904 0.04893 0.4434 0.0
C199 C 0.54652 0.01834 0.44576 0.0
N200 N 0.53029 -0.00045 0.43905 0.0
N201 N 0.51822 0.04937 0.43527 0.0
C202 C 0.51327 0.01899 0.43279 0.0
H203 H 0.54811 0.06961 0.44736 0.0
Co204 Co 0.50153 0.08555 0.42955 0.0
C205 C 0.47063 0.06757 0.40925 0.0
O206 O 0.48264 0.09257 0.40463 0.0
N207 N 0.48423 0.12277 0.42408 0.0
C208 C 0.44896 0.15869 0.41934 0.0
C209 C 0.4533 0.12819 0.42257 0.0
C210 C 0.49806 0.15047 0.42187 0.0
N211 N 0.47722 0.17268 0.41896 0.0
O212 O 0.46799 0.08269 0.43963 0.0
H213 H 0.43494 0.11116 0.42394 0.0
H214 H 0.52284 0.15473 0.42255 0.0
O215 O 0.47679 0.06159 0.41912 0.0
C216 C 0.46915 0.1021 0.44739 0.0
O217 O 0.49106 0.12377 0.44731 0.0
N218 N 0.53673 0.08812 0.42045 0.0
C219 C 0.5951 0.08994 0.41037 0.0
C220 C 0.57184 0.06919 0.40685 0.0
C221 C 0.54323 0.06785 0.41223 0.0
C222 C 0.55974 0.10731 0.4243 0.0
C223 C 0.58905 0.10891 0.4193 0.0
H224 H 0.52736 0.04921 0.41012 0.0
H225 H 0.55563 0.12073 0.43155 0.0
H226 H 0.49705 0.01119 0.42666 0.0
H227 H 0.56279 0.01059 0.45189 0.0
H228 H 0.42666 0.16999 0.41785 0.0
H229 H 0.57648 0.0527 0.40041 0.0
H230 H 0.60702 0.12418 0.42254 0.0
C231 C 0.29971 0.3637 0.69142 0.0
C232 C 0.33011 0.36892 0.69474 0.0
N233 N 0.34833 0.346 0.69066 0.0
N234 N 0.299 0.33789 0.68518 0.0
C235 C 0.32883 0.32739 0.685 0.0
H236 H 0.2796 0.37834 0.69312 0.0
Co237 Co 0.26489 0.3225 0.67765 0.0
C238 C 0.29117 0.30022 0.65706 0.0
O239 O 0.26816 0.31457 0.65203 0.0
N240 N 0.23002 0.30584 0.67018 0.0
C241 C 0.19917 0.27075 0.66214 0.0
C242 C 0.22836 0.27615 0.6664 0.0
C243 C 0.20099 0.31749 0.66846 0.0
N244 N 0.18193 0.29687 0.66344 0.0
O245 O 0.26535 0.28628 0.68669 0.0
H246 H 0.24709 0.25913 0.66691 0.0
H247 H 0.19301 0.33978 0.67141 0.0
O248 O 0.29286 0.30151 0.66734 0.0
C249 C 0.24261 0.28285 0.69323 0.0
O250 O 0.21886 0.30242 0.69276 0.0
N251 N 0.26454 0.36001 0.66954 0.0
C252 C 0.26487 0.41901 0.65989 0.0
C253 C 0.29037 0.3987 0.65866 0.0
C254 C 0.29004 0.3696 0.66372 0.0
C255 C 0.24088 0.38073 0.67158 0.0
C256 C 0.23992 0.40996 0.6665 0.0
H257 H 0.31092 0.35539 0.66326 0.0
H258 H 0.22348 0.37534 0.6776 0.0
H259 H 0.33645 0.30726 0.68041 0.0
H260 H 0.33823 0.38833 0.6996 0.0
H261 H 0.19122 0.24906 0.65855 0.0
H262 H 0.31062 0.40543 0.65392 0.0
H263 H 0.22064 0.42582 0.66808 0.0
C264 C 0.73059 0.29943 0.68986 0.0
C265 C 0.69961 0.29457 0.69249 0.0
N266 N 0.68235 0.31711 0.68773 0.0
N267 N 0.73274 0.32467 0.68339 0.0
C268 C 0.70303 0.33517 0.68233 0.0
H269 H 0.75031 0.28528 0.69237 0.0
Co270 Co 0.76952 0.33935 0.67732 0.0
C271 C 0.75111 0.36906 0.65683 0.0
O272 O 0.77539 0.35582 0.65216 0.0
N273 N 0.80726 0.3548 0.67145 0.0
C274 C 0.84314 0.38853 0.66547 0.0
C275 C 0.81298 0.38527 0.66919 0.0
C276 C 0.83471 0.34025 0.66932 0.0
N277 N 0.85678 0.36009 0.66554 0.0
O278 O 0.76876 0.37363 0.68711 0.0
H279 H 0.79621 0.40405 0.67022 0.0
H280 H 0.83917 0.31589 0.67093 0.0
O281 O 0.74585 0.36424 0.66684 0.0
C282 C 0.78849 0.37225 0.69476 0.0
O283 O 0.80898 0.34924 0.69484 0.0
N284 N 0.76998 0.30362 0.66837 0.0
C285 C 0.77029 0.24656 0.65745 0.0
C286 C 0.74834 0.26976 0.65488 0.0
C287 C 0.74786 0.29765 0.66068 0.0
C288 C 0.78982 0.28028 0.67153 0.0
C289 C 0.79078 0.25167 0.66606 0.0
H290 H 0.72878 0.31366 0.65924 0.0
H291 H 0.80441 0.28355 0.67856 0.0
H292 H 0.6965 0.35518 0.67748 0.0
H293 H 0.69052 0.27602 0.69754 0.0
H294 H 0.85407 0.4102 0.66294 0.0
H295 H 0.73069 0.26576 0.64876 0.0
H296 H 0.80702 0.23363 0.66862 0.0
C297 C 0.79274 0.85907 0.18901 0.0
C298 C 0.82271 0.86603 0.19235 0.0
N299 N 0.84231 0.84438 0.18825 0.0
N300 N 0.79336 0.8339 0.18242 0.0
C301 C 0.82368 0.82461 0.18268 0.0
H302 H 0.7718 0.87091 0.1917 0.0
Co303 Co 0.75892 0.81224 0.1764 0.0
C304 C 0.80754 0.79872 0.16008 0.0
O305 O 0.81441 0.82875 0.15966 0.0
N306 N 0.72491 0.79045 0.17103 0.0
C307 C 0.69214 0.75459 0.1647 0.0
C308 C 0.7227 0.7605 0.16768 0.0
C309 C 0.69578 0.80218 0.17013 0.0
N310 N 0.67523 0.78094 0.16626 0.0
O311 O 0.76395 0.78156 0.18734 0.0
H312 H 0.74192 0.74396 0.16755 0.0
H313 H 0.69007 0.82613 0.1722 0.0
O314 O 0.78671 0.78874 0.16668 0.0
C315 C 0.74414 0.78543 0.19487 0.0
O316 O 0.72307 0.80772 0.19382 0.0
N317 N 0.75212 0.8436 0.16579 0.0
C318 C 0.74751 0.89104 0.15053 0.0
C319 C 0.74803 0.85959 0.14733 0.0
C320 C 0.74946 0.83614 0.15512 0.0
C321 C 0.74679 0.87368 0.16901 0.0
C322 C 0.74511 0.89796 0.16151 0.0
H323 H 0.74996 0.81198 0.15251 0.0
H324 H 0.74408 0.87917 0.17739 0.0
H325 H 0.83183 0.80284 0.17927 0.0
H326 H 0.82931 0.8854 0.19749 0.0
H327 H 0.68306 0.73242 0.16184 0.0
H328 H 0.7486 0.85325 0.13889 0.0
H329 H 0.74361 0.92194 0.16432 0.0
C330 C 0.79481 0.29848 0.80798 0.0
C331 C 0.82572 0.29149 0.80586 0.0
N332 N 0.84371 0.31395 0.81032 0.0
N333 N 0.79343 0.32501 0.81383 0.0
C334 C 0.82356 0.33408 0.81504 0.0
H335 H 0.77462 0.28477 0.80562 0.0
Co336 Co 0.75695 0.34195 0.81938 0.0
C337 C 0.77584 0.377 0.83885 0.0
O338 O 0.75079 0.36635 0.84382 0.0
N339 N 0.71936 0.35945 0.82474 0.0
C340 C 0.68267 0.39456 0.829 0.0
C341 C 0.7132 0.39042 0.82571 0.0
C342 C 0.692 0.34541 0.82734 0.0
N343 N 0.66936 0.3661 0.82997 0.0
O344 O 0.75842 0.37352 0.8085 0.0
H345 H 0.72976 0.40892 0.82392 0.0
H346 H 0.68821 0.32053 0.82716 0.0
O347 O 0.78112 0.369 0.82909 0.0
C348 C 0.73752 0.37246 0.8012 0.0
O349 O 0.71487 0.35169 0.80196 0.0
N350 N 0.75585 0.30867 0.82935 0.0
C351 C 0.75654 0.25294 0.84118 0.0
C352 C 0.77807 0.27698 0.84335 0.0
C353 C 0.77786 0.30424 0.8372 0.0
C354 C 0.73618 0.2847 0.82666 0.0
C355 C 0.73549 0.25697 0.83264 0.0
H356 H 0.79675 0.32065 0.83837 0.0
H357 H 0.72157 0.28671 0.81959 0.0
H358 H 0.83076 0.35444 0.81959 0.0
H359 H 0.83428 0.27141 0.80142 0.0
H360 H 0.67091 0.41677 0.83019 0.0
H361 H 0.79624 0.27408 0.84936 0.0
H362 H 0.71921 0.23862 0.8304 0.0
C363 C 0.72116 0.87415 0.31602 0.0
C364 C 0.6898 0.87852 0.31396 0.0
N365 N 0.67435 0.85212 0.3167 0.0
N366 N 0.72545 0.84524 0.3201 0.0
C367 C 0.6966 0.8323 0.32039 0.0
H368 H 0.73979 0.89075 0.31446 0.0
Co369 Co 0.76395 0.82799 0.32344 0.0
C370 C 0.75363 0.78508 0.34168 0.0
O371 O 0.78024 0.79509 0.34577 0.0
N372 N 0.80337 0.8102 0.32638 0.0
C373 C 0.8408 0.77403 0.32789 0.0
C374 C 0.81022 0.77949 0.32501 0.0
C375 C 0.8305 0.82295 0.3299 0.0
N376 N 0.85345 0.80146 0.33096 0.0
O377 O 0.76043 0.80112 0.31129 0.0
H378 H 0.79379 0.76197 0.32222 0.0
H379 H 0.83363 0.84734 0.33183 0.0
O380 O 0.7439 0.79631 0.33272 0.0
C381 C 0.77179 0.81475 0.30306 0.0
O382 O 0.78316 0.84321 0.3042 0.0
N383 N 0.76744 0.85707 0.33479 0.0
C384 C 0.77093 0.90714 0.34912 0.0
C385 C 0.75126 0.88163 0.35124 0.0
C386 C 0.74898 0.85736 0.34378 0.0
C387 C 0.78542 0.88258 0.33236 0.0
C388 C 0.78782 0.9078 0.33948 0.0
H389 H 0.73118 0.83983 0.34507 0.0
H390 H 0.79755 0.88358 0.32472 0.0
H391 H 0.69206 0.80875 0.3232 0.0
H392 H 0.67939 0.89926 0.31045 0.0
H393 H 0.85288 0.75173 0.32761 0.0
H394 H 0.73641 0.88132 0.35831 0.0
H395 H 0.80224 0.9278 0.33739 0.0
C396 C 0.47627 0.54213 0.55949 0.0
C397 C 0.47154 0.51149 0.55639 0.0
N398 N 0.49456 0.49387 0.56069 0.0
N399 N 0.50187 0.54359 0.56582 0.0
C400 C 0.51269 0.51393 0.56631 0.0
H401 H 0.46184 0.56204 0.55738 0.0
Co402 Co 0.51779 0.57925 0.57221 0.0
C403 C 0.54721 0.55836 0.59248 0.0
O404 O 0.53487 0.58276 0.59736 0.0
N405 N 0.53471 0.61594 0.57839 0.0
C406 C 0.57034 0.65042 0.58406 0.0
C407 C 0.56563 0.6206 0.58022 0.0
C408 C 0.52129 0.64358 0.58103 0.0
N409 N 0.54235 0.66488 0.58454 0.0
O410 O 0.5519 0.57802 0.56234 0.0
H411 H 0.58378 0.60346 0.57869 0.0
H412 H 0.49668 0.64848 0.58028 0.0
O413 O 0.54208 0.55396 0.58245 0.0
C414 C 0.55143 0.5982 0.55481 0.0
O415 O 0.52933 0.61968 0.55485 0.0
N416 N 0.48224 0.58015 0.58126 0.0
C417 C 0.42678 0.58265 0.59311 0.0
C418 C 0.44874 0.5588 0.59491 0.0
C419 C 0.47581 0.55738 0.58867 0.0
C420 C 0.4596 0.60142 0.57863 0.0
C421 C 0.4319 0.6036 0.58462 0.0
H422 H 0.49098 0.53739 0.58965 0.0
H423 H 0.46298 0.6167 0.57178 0.0
H424 H 0.53306 0.50696 0.5709 0.0
H425 H 0.45271 0.50288 0.55135 0.0
H426 H 0.59278 0.6609 0.58595 0.0
H427 H 0.44459 0.5408 0.60089 0.0
H428 H 0.41479 0.62144 0.58264 0.0
C429 C 0.0433 0.6269 0.06421 0.0
C430 C 0.04856 0.65864 0.06509 0.0
N431 N 0.02116 0.6726 0.06759 0.0
N432 N 0.01278 0.62101 0.06618 0.0
C433 C -0.00013 0.6493 0.06807 0.0
H434 H 0.06069 0.60917 0.06246 0.0
Co435 Co 0.99363 0.58215 0.06681 0.0
C436 C 0.94664 0.58783 0.08423 0.0
O437 O 0.95367 0.55954 0.08766 0.0
N438 N 0.9738 0.54292 0.06712 0.0
C439 C 0.93645 0.50645 0.06592 0.0
C440 C 0.9428 0.53803 0.06545 0.0
C441 C 0.98583 0.51389 0.06823 0.0
N442 N 0.9637 0.49148 0.06761 0.0
O443 O 0.96975 0.59223 0.05441 0.0
H444 H 0.9258 0.55637 0.06401 0.0
H445 H 0.01023 0.50873 0.06951 0.0
O446 O 0.96088 0.59921 0.07607 0.0
C447 C 0.98512 0.58414 0.0461 0.0
O448 O 0.01318 0.57196 0.04743 0.0
N449 N 0.01981 0.57222 0.07852 0.0
C450 C 0.06925 0.56386 0.09302 0.0
C451 C 0.04368 0.58321 0.0956 0.0
C452 C 0.01954 0.58754 0.08818 0.0
C453 C 0.04499 0.55425 0.07576 0.0
C454 C 0.06944 0.54894 0.08299 0.0
H455 H 0.0022 0.60518 0.08994 0.0
H456 H 0.04699 0.54532 0.06765 0.0
H457 H 0.97523 0.65281 0.0697 0.0
H458 H 0.07093 0.67037 0.06421 0.0
H459 H 0.91381 0.49534 0.06494 0.0
H460 H 0.04336 0.59685 0.10294 0.0
H461 H 0.08902 0.53449 0.0805 0.0
C462 C 0.49973 0.61653 0.44729 0.0
C463 C 0.49454 0.64734 0.45012 0.0
N464 N 0.50665 0.66572 0.44234 0.0
N465 N 0.51517 0.61569 0.43783 0.0
C466 C 0.51912 0.64599 0.43504 0.0
H467 H 0.49305 0.59602 0.45186 0.0
Co468 Co 0.52891 0.57981 0.431 0.0
C469 C 0.55668 0.60019 0.41055 0.0
O470 O 0.5412 0.57735 0.40583 0.0
N471 N 0.54384 0.54306 0.42428 0.0
C472 C 0.57823 0.50856 0.41779 0.0
C473 C 0.57454 0.53782 0.42218 0.0
C474 C 0.52945 0.51631 0.42119 0.0
N475 N 0.54977 0.49517 0.41715 0.0
O476 O 0.56349 0.57862 0.44076 0.0
H477 H 0.59325 0.55424 0.42386 0.0
H478 H 0.5049 0.5114 0.42231 0.0
O479 O 0.55381 0.60451 0.4207 0.0
C480 C 0.56292 0.55666 0.44771 0.0
O481 O 0.54136 0.53477 0.44691 0.0
N482 N 0.4926 0.58111 0.42235 0.0
C483 C 0.43359 0.58405 0.41278 0.0
C484 C 0.45639 0.60661 0.41044 0.0
C485 C 0.48556 0.60507 0.41544 0.0
C486 C 0.46981 0.56029 0.42524 0.0
C487 C 0.44041 0.5606 0.42027 0.0
H488 H 0.50179 0.624 0.41405 0.0
H489 H 0.47415 0.54387 0.4317 0.0
H490 H 0.53149 0.65365 0.42792 0.0
H491 H 0.48271 0.65556 0.45729 0.0
H492 H 0.60015 0.49778 0.41543 0.0
H493 H 0.45145 0.62569 0.40494 0.0
H494 H 0.42278 0.54361 0.4226 0.0
C495 C 0.05199 0.54141 0.93808 0.0
C496 C 0.0534 0.51159 0.94229 0.0
N497 N 0.02978 0.49461 0.93805 0.0
N498 N 0.02785 0.54308 0.93112 0.0
C499 C 0.0145 0.51437 0.93137 0.0
H500 H 0.06785 0.56055 0.93981 0.0
Co501 Co 0.01744 0.57812 0.92303 0.0
C502 C 0.99513 0.55176 0.90251 0.0
O503 O 0.01373 0.57149 0.89747 0.0
N504 N 0.00595 0.61452 0.91523 0.0
C505 C 0.97631 0.6498 0.90673 0.0
C506 C 0.97885 0.61897 0.90977 0.0
C507 C 0.0185 0.6436 0.91585 0.0
N508 N 0.00136 0.66528 0.91058 0.0
O509 O 0.98098 0.58331 0.93166 0.0
H510 H 0.96088 0.60142 0.90861 0.0
H511 H 0.03797 0.64966 0.92096 0.0
O512 O 0.9939 0.55193 0.91281 0.0
C513 C 0.98519 0.60386 0.93892 0.0
O514 O 0.0119 0.61924 0.93903 0.0
N515 N 0.0553 0.573 0.91519 0.0
C516 C 0.11326 0.5648 0.90517 0.0
C517 C 0.09118 0.54054 0.90529 0.0
C518 C 0.0626 0.5449 0.9105 0.0
C519 C 0.07773 0.59574 0.91591 0.0
C520 C 0.1065 0.59261 0.91064 0.0
H521 H 0.04647 0.52541 0.91085 0.0
H522 H 0.07422 0.61579 0.92097 0.0
H523 H 0.99457 0.50775 0.9265 0.0
H524 H 0.07051 0.50311 0.94802 0.0
H525 H 0.9569 0.66018 0.9024 0.0
H526 H 0.09591 0.51839 0.90135 0.0
H527 H 0.12367 0.61127 0.91113 0.0
H528 H 0.01354 0.45909 0.06047 0.0
H529 H 0.02553 0.40423 0.0641 0.0
H530 H 0.93763 0.39422 0.081 0.0
H531 H 0.92574 0.4497 0.07748 0.0
H532 H 0.98891 0.37143 0.09245 0.0
H533 H 0.9446 0.35982 0.05754 0.0
H534 H 0.93639 0.37169 0.03834 0.0
H535 H 0.03257 0.34914 0.03165 0.0
H536 H 0.04151 0.33757 0.05084 0.0
H537 H 0.00789 0.20395 0.09439 0.0
H538 H 0.99029 0.25829 0.09295 0.0
H539 H 0.07225 0.28055 0.07405 0.0
H540 H 0.08942 0.22607 0.07518 0.0
H541 H 0.01814 0.2956 0.06391 0.0
H542 H 0.06293 0.31014 0.09911 0.0
H543 H 0.07088 0.29842 0.11834 0.0
H544 H 0.97318 0.31499 0.12449 0.0
H545 H 0.96455 0.3264 0.10526 0.0
C546 C 0.99673 0.44514 0.06491 0.0
C547 C 0.96884 0.45849 0.06876 0.0
C548 C 0.00347 0.41382 0.06692 0.0
C549 C 0.98236 0.39528 0.07277 0.0
C550 C 0.95412 0.40829 0.07644 0.0
C551 C 0.94726 0.43973 0.07437 0.0
C552 C 0.99092 0.36274 0.07539 0.0
C553 C 0.99472 0.35454 0.08624 0.0
C554 C -0.00096 0.34117 0.06723 0.0
C555 C 0.99377 0.34804 0.05566 0.0
C556 C 0.96408 0.35763 0.05199 0.0
C557 C 0.95928 0.36426 0.0411 0.0
C558 C 0.98396 0.36123 0.03378 0.0
C559 C 0.01348 0.35149 0.03733 0.0
C560 C 0.01841 0.34485 0.04821 0.0
C561 C 0.02234 0.22057 0.09006 0.0
C562 C 0.04975 0.21074 0.08476 0.0
C563 C 0.01241 0.25161 0.08932 0.0
C564 C 0.02994 0.27327 0.08335 0.0
C565 C 0.0584 0.26402 0.07866 0.0
C566 C 0.06831 0.23298 0.07939 0.0
C567 C 0.01697 0.30452 0.08097 0.0
C568 C 0.01215 0.31238 0.07014 0.0
C569 C 0.00787 0.32565 0.08915 0.0
C570 C 0.01303 0.3188 0.10072 0.0
C571 C 0.04308 0.31101 0.10454 0.0
C572 C 0.04772 0.30448 0.11545 0.0
C573 C 0.02254 0.30587 0.12263 0.0
C574 C 0.99266 0.31388 0.11892 0.0
C575 C 0.98789 0.32041 0.10802 0.0
H576 H 0.02618 0.30082 0.13107 0.0
H577 H 0.98019 0.36637 0.02535 0.0
H578 H 0.1507 0.81369 0.3491 0.0
H579 H 0.09533 0.80252 0.3526 0.0
H580 H 0.06952 0.88925 0.33711 0.0
H581 H 0.12474 0.90054 0.33362 0.0
H582 H 0.03142 0.87595 0.35439 0.0
H583 H 0.07275 0.82285 0.32276 0.0
H584 H 0.10976 0.78774 0.31341 0.0
H585 H 0.08195 0.71149 0.33386 0.0
H586 H 0.04507 0.74632 0.34343 0.0
H587 H 0.88729 0.85448 0.32843 0.0
H588 H 0.94127 0.86341 0.33405 0.0
H589 H 0.94537 0.76988 0.3472 0.0
H590 H 0.89111 0.76078 0.34155 0.0
H591 H 0.99449 0.78161 0.33475 0.0
H592 H 0.94469 0.83366 0.36389 0.0
H593 H 0.90719 0.86945 0.37267 0.0
H594 H 0.94978 0.948 0.35675 0.0
H595 H 0.98725 0.91265 0.34775 0.0
C596 C 0.13319 0.83049 0.34655 0.0
C597 C 0.1419 0.8577 0.34092 0.0
C598 C 0.10167 0.8242 0.34862 0.0
C599 C 0.07842 0.84486 0.34496 0.0
C600 C 0.08718 0.87306 0.34 0.0
C601 C 0.11871 0.87946 0.338 0.0
C602 C 0.04508 0.8356 0.34511 0.0
C603 C 0.02322 0.85535 0.35012 0.0
C604 C 0.03465 0.80828 0.33974 0.0
C605 C 0.05646 0.78725 0.33389 0.0
C606 C 0.07468 0.79864 0.32531 0.0
C607 C 0.09562 0.7788 0.31996 0.0
C608 C 0.09828 0.74743 0.32306 0.0
C609 C 0.07991 0.73581 0.33149 0.0
C610 C 0.05899 0.75558 0.33687 0.0
C611 C 0.89947 0.836 0.33268 0.0
C612 C 0.88499 0.80694 0.33456 0.0
C613 C 0.93029 0.84116 0.33592 0.0
C614 C 0.94712 0.81748 0.34121 0.0
C615 C 0.93268 0.78849 0.34318 0.0
C616 C 0.90183 0.78327 0.33989 0.0
C617 C 0.98056 0.82234 0.34383 0.0
C618 C 0.00254 0.80179 0.3393 0.0
C619 C 0.99099 0.84897 0.3496 0.0
C620 C 0.96871 0.87043 0.3551 0.0
C621 C 0.94595 0.85854 0.36221 0.0
C622 C 0.92471 0.87876 0.36723 0.0
C623 C 0.92608 0.91097 0.36526 0.0
C624 C 0.94875 0.92304 0.35828 0.0
C625 C 0.97004 0.90292 0.35322 0.0
H626 H 0.90959 0.92658 0.36915 0.0
H627 H 0.1145 0.7321 0.31892 0.0
H628 H 0.52818 0.96581 0.59585 0.0
H629 H 0.54001 0.91109 0.6002 0.0
H630 H 0.45582 0.88187 0.58374 0.0
H631 H 0.44374 0.93648 0.57954 0.0
H632 H 0.46465 0.84757 0.60143 0.0
H633 H 0.52804 0.88212 0.57119 0.0
H634 H 0.56659 0.91646 0.56223 0.0
H635 H 0.63586 0.89192 0.58584 0.0
H636 H 0.59754 0.85773 0.59502 0.0
H637 H 0.49279 0.7007 0.57843 0.0
H638 H 0.48351 0.75533 0.5828 0.0
H639 H 0.56909 0.75791 0.60125 0.0
H640 H 0.57831 0.70257 0.59714 0.0
H641 H 0.56433 0.80606 0.58653 0.0
H642 H 0.5018 0.76249 0.61443 0.0
H643 H 0.4625 0.72718 0.62249 0.0
H644 H 0.39079 0.76742 0.60257 0.0
H645 H 0.42973 0.80266 0.59426 0.0
C646 C 0.51217 0.94766 0.59322 0.0
C647 C 0.48525 0.95526 0.58725 0.0
C648 C 0.51888 0.91649 0.59573 0.0
C649 C 0.49903 0.89242 0.59215 0.0
C650 C 0.47142 0.90011 0.5866 0.0
C651 C 0.46454 0.93128 0.5842 0.0
C652 C 0.50794 0.85911 0.59342 0.0
C653 C 0.48641 0.83843 0.59817 0.0
C654 C 0.53675 0.8474 0.58943 0.0
C655 C 0.55985 0.8677 0.58386 0.0
C656 C 0.55143 0.88422 0.57451 0.0
C657 C 0.57324 0.90363 0.56939 0.0
C658 C 0.60362 0.90645 0.57348 0.0
C659 C 0.61229 0.88977 0.58269 0.0
C660 C 0.59055 0.87037 0.58785 0.0
C661 C 0.50937 0.71245 0.58362 0.0
C662 C 0.53631 0.69703 0.58745 0.0
C663 C 0.50401 0.74382 0.5861 0.0
C664 C 0.52541 0.7605 0.59246 0.0
C665 C 0.55224 0.74531 0.59637 0.0
C666 C 0.55756 0.71377 0.59394 0.0
C667 C 0.52061 0.79439 0.59424 0.0
C668 C 0.54291 0.81521 0.59005 0.0
C669 C 0.49239 0.80614 0.59865 0.0
C670 C 0.46877 0.78514 0.60368 0.0
C671 C 0.47769 0.76368 0.61171 0.0
C672 C 0.45547 0.74369 0.61633 0.0
C673 C 0.42418 0.74503 0.61303 0.0
C674 C 0.41504 0.76641 0.60512 0.0
C675 C 0.43717 0.78644 0.60046 0.0
H676 H 0.40701 0.72952 0.61662 0.0
H677 H 0.62047 0.92149 0.56951 0.0
H678 H 0.36965 0.3249 0.84106 0.0
H679 H 0.42255 0.34276 0.84563 0.0
H680 H 0.46159 0.26291 0.82906 0.0
H681 H 0.40879 0.24486 0.82458 0.0
H682 H 0.49405 0.27575 0.84714 0.0
H683 H 0.45289 0.33452 0.81659 0.0
H684 H 0.41428 0.36901 0.80774 0.0
H685 H 0.4312 0.44034 0.83141 0.0
H686 H 0.46964 0.40607 0.84048 0.0
H687 H 0.63654 0.31472 0.82384 0.0
H688 H 0.58251 0.30219 0.82816 0.0
H689 H 0.57378 0.38879 0.8458 0.0
H690 H 0.62867 0.40138 0.84169 0.0
H691 H 0.52487 0.3785 0.83166 0.0
H692 H 0.57498 0.32279 0.85976 0.0
H693 H 0.6143 0.2881 0.86809 0.0
H694 H 0.58142 0.21099 0.84897 0.0
H695 H 0.54221 0.24532 0.8404 0.0
C696 C 0.38955 0.3111 0.83846 0.0
C697 C 0.38519 0.28373 0.83233 0.0
C698 C 0.4197 0.32125 0.8411 0.0
C699 C 0.44597 0.30442 0.83753 0.0
C700 C 0.44161 0.27624 0.8319 0.0
C701 C 0.41146 0.26594 0.82933 0.0
C702 C 0.47803 0.31712 0.83889 0.0
C703 C 0.50084 0.2982 0.84377 0.0
C704 C 0.4866 0.34691 0.83481 0.0
C705 C 0.46383 0.36763 0.82927 0.0
C706 C 0.44822 0.35749 0.81994 0.0
C707 C 0.42639 0.377 0.81488 0.0
C708 C 0.42022 0.40681 0.81903 0.0
C709 C 0.43596 0.41722 0.82822 0.0
C710 C 0.45777 0.39777 0.83332 0.0
C711 C 0.62354 0.33091 0.82883 0.0
C712 C 0.63718 0.35893 0.83253 0.0
C713 C 0.59253 0.32371 0.83127 0.0
C714 C 0.57437 0.34429 0.83746 0.0
C715 C 0.58758 0.3725 0.84108 0.0
C716 C 0.61883 0.37972 0.83867 0.0
C717 C 0.54111 0.33659 0.83955 0.0
C718 C 0.51801 0.35644 0.83531 0.0
C719 C 0.53232 0.30762 0.8442 0.0
C720 C 0.5557 0.28671 0.8494 0.0
C721 C 0.57625 0.29849 0.85728 0.0
C722 C 0.59851 0.27887 0.86205 0.0
C723 C 0.60038 0.24737 0.85905 0.0
C724 C 0.57994 0.2354 0.85129 0.0
C725 C 0.55764 0.25492 0.84649 0.0
H726 H 0.61765 0.23222 0.86275 0.0
H727 H 0.40329 0.42187 0.81511 0.0
H728 H 0.95814 0.71177 0.90893 0.0
H729 H 0.96807 0.76811 0.90905 0.0
H730 H 0.06745 0.75081 0.91169 0.0
H731 H 0.05768 0.69433 0.91153 0.0
H732 H 0.04838 0.7939 0.92598 0.0
H733 H 0.03571 0.77646 0.88815 0.0
H734 H 0.00922 0.75731 0.8718 0.0
H735 H 0.93007 0.81637 0.87852 0.0
H736 H 0.95591 0.83556 0.895 0.0
H737 H 0.09443 0.95166 0.91824 0.0
H738 H 0.08785 0.89533 0.91568 0.0
H739 H 0.98787 0.90794 0.91263 0.0
H740 H 0.99437 0.96443 0.91475 0.0
H741 H 0.00918 0.867 0.898 0.0
H742 H 0.02031 0.88242 0.93615 0.0
H743 H 0.04609 0.90143 0.95266 0.0
H744 H 0.12739 0.84587 0.94547 0.0
H745 H 0.10225 0.82686 0.92883 0.0
C746 C 0.98214 0.71989 0.90937 0.0
C747 C 0.00714 0.69854 0.91023 0.0
C748 C 0.98778 0.75213 0.90945 0.0
C749 C 0.01853 0.76364 0.91028 0.0
C750 C 0.04354 0.74241 0.91105 0.0
C751 C 0.03791 0.71017 0.911 0.0
C752 C 0.02446 0.79783 0.91078 0.0
C753 C 0.04028 0.80984 0.91977 0.0
C754 C 0.01319 0.81865 0.90281 0.0
C755 C 0.99765 0.80724 0.89287 0.0
C756 C 0.01255 0.78519 0.88619 0.0
C757 C 0.99767 0.77436 0.87689 0.0
C758 C 0.96795 0.78556 0.87413 0.0
C759 C 0.95308 0.80769 0.88067 0.0
C760 C 0.96785 0.81858 0.88999 0.0
C761 C 0.07108 0.94257 0.91689 0.0
C762 C 0.0449 0.96262 0.91679 0.0
C763 C 0.06733 0.91029 0.91552 0.0
C764 C 0.03732 0.89741 0.91412 0.0
C765 C 0.01123 0.91739 0.91376 0.0
C766 C 0.01496 0.94966 0.91509 0.0
C767 C 0.033 0.86304 0.91322 0.0
C768 C 0.01745 0.85102 0.90417 0.0
C769 C 0.04442 0.84218 0.92116 0.0
C770 C 0.05952 0.85348 0.93119 0.0
C771 C 0.04378 0.87445 0.93805 0.0
C772 C 0.05826 0.88519 0.94744 0.0
C773 C 0.08839 0.87493 0.9501 0.0
C774 C 0.10407 0.85384 0.94339 0.0
C775 C 0.08971 0.84305 0.93398 0.0
H776 H 0.09956 0.88327 0.95737 0.0
H777 H 0.95647 0.77714 0.86693 0.0
H778 H 0.40487 0.8794 0.17497 0.0
H779 H 0.45872 0.86564 0.17044 0.0
H780 H 0.42596 0.78387 0.15337 0.0
H781 H 0.3718 0.79756 0.15793 0.0
H782 H 0.47269 0.76899 0.16634 0.0
H783 H 0.45684 0.84602 0.13954 0.0
H784 H 0.44025 0.89653 0.13178 0.0
H785 H 0.5069 0.94496 0.15163 0.0
H786 H 0.52359 0.89479 0.15963 0.0
H787 H 0.6366 0.74643 0.15342 0.0
H788 H 0.5804 0.75466 0.15055 0.0
H789 H 0.5828 0.8346 0.17174 0.0
H790 H 0.63823 0.82612 0.17497 0.0
H791 H 0.55028 0.84538 0.15225 0.0
H792 H 0.55737 0.76801 0.18115 0.0
H793 H 0.5736 0.71714 0.18875 0.0
H794 H 0.5228 0.6689 0.16395 0.0
H795 H 0.50662 0.71956 0.15611 0.0
C796 C 0.40905 0.8588 0.1701 0.0
C797 C 0.3841 0.83955 0.16682 0.0
C798 C 0.43985 0.85097 0.16749 0.0
C799 C 0.44632 0.82395 0.16144 0.0
C800 C 0.42146 0.80485 0.15803 0.0
C801 C 0.39058 0.81261 0.16069 0.0
C802 C 0.47925 0.81481 0.15936 0.0
C803 C 0.48952 0.78541 0.163 0.0
C804 C 0.50123 0.83627 0.15504 0.0
C805 C 0.49136 0.86659 0.15023 0.0
C806 C 0.46782 0.86745 0.14231 0.0
C807 C 0.45842 0.89603 0.13786 0.0
C808 C 0.47249 0.92394 0.14122 0.0
C809 C 0.49603 0.92332 0.14903 0.0
C810 C 0.50551 0.8948 0.15351 0.0
C811 C 0.62518 0.76561 0.15754 0.0
C812 C 0.64217 0.78563 0.16441 0.0
C813 C 0.59312 0.77039 0.15582 0.0
C814 C 0.57764 0.79532 0.1609 0.0
C815 C 0.59449 0.81545 0.16765 0.0
C816 C 0.62632 0.81056 0.16946 0.0
C817 C 0.5436 0.80019 0.1596 0.0
C818 C 0.53321 0.82875 0.15532 0.0
C819 C 0.5215 0.77791 0.16324 0.0
C820 C 0.53115 0.74752 0.16797 0.0
C821 C 0.54991 0.74655 0.17726 0.0
C822 C 0.55904 0.71776 0.18163 0.0
C823 C 0.54933 0.6898 0.17681 0.0
C824 C 0.53037 0.69057 0.16765 0.0
C825 C 0.52121 0.71931 0.16325 0.0
H826 H 0.55642 0.66753 0.1802 0.0
H827 H 0.46517 0.94604 0.13776 0.0
H828 H 0.44251 0.21316 0.40703 0.0
H829 H 0.45251 0.2692 0.40442 0.0
H830 H 0.53699 0.26157 0.42333 0.0
H831 H 0.52656 0.20637 0.42635 0.0
H832 H 0.50216 0.30915 0.42988 0.0
H833 H 0.53914 0.2688 0.3959 0.0
H834 H 0.53469 0.24011 0.37875 0.0
H835 H 0.46025 0.30131 0.36876 0.0
H836 H 0.46398 0.33012 0.38593 0.0
H837 H 0.58681 0.44461 0.42004 0.0
H838 H 0.57186 0.38986 0.41751 0.0
H839 H 0.48176 0.41879 0.4053 0.0
H840 H 0.49668 0.4739 0.40778 0.0
H841 H 0.51333 0.36268 0.39462 0.0
H842 H 0.47826 0.40371 0.4288 0.0
H843 H 0.48547 0.43296 0.44573 0.0
H844 H 0.55864 0.36952 0.45517 0.0
H845 H 0.55224 0.34023 0.43819 0.0
C846 C 0.46314 0.22348 0.41065 0.0
C847 C 0.48373 0.20523 0.41689 0.0
C848 C 0.46898 0.25539 0.40906 0.0
C849 C 0.49558 0.26941 0.41364 0.0
C850 C 0.51634 0.25115 0.41972 0.0
C851 C 0.51048 0.21944 0.42135 0.0
C852 C 0.50132 0.30342 0.41264 0.0
C853 C 0.50478 0.32074 0.42215 0.0
C854 C 0.50387 0.31868 0.40256 0.0
C855 C 0.50158 0.30137 0.39225 0.0
C856 C 0.52163 0.27596 0.39009 0.0
C857 C 0.51928 0.25971 0.38036 0.0
C858 C 0.49713 0.26881 0.37269 0.0
C859 C 0.47735 0.29424 0.37472 0.0
C860 C 0.47958 0.31055 0.38445 0.0
C861 C 0.56417 0.43937 0.41655 0.0
C862 C 0.54274 0.46341 0.41422 0.0
C863 C 0.55566 0.40815 0.41512 0.0
C864 C 0.5257 0.40053 0.41129 0.0
C865 C 0.50499 0.4244 0.40825 0.0
C866 C 0.51341 0.45572 0.40977 0.0
C867 C 0.51491 0.36781 0.41183 0.0
C868 C 0.51034 0.35094 0.40229 0.0
C869 C 0.51145 0.35276 0.42188 0.0
C870 C 0.51496 0.36997 0.43218 0.0
C871 C 0.49606 0.39616 0.43445 0.0
C872 C 0.49998 0.41272 0.44406 0.0
C873 C 0.52255 0.40315 0.45151 0.0
C874 C 0.54118 0.37693 0.44938 0.0
C875 C 0.53741 0.36033 0.43977 0.0
H876 H 0.52555 0.416 0.45894 0.0
H877 H 0.49536 0.25622 0.36515 0.0
H878 H 0.90679 0.39961 0.66503 0.0
H879 H 0.96128 0.38575 0.66146 0.0
H880 H 0.93436 0.28942 0.6565 0.0
H881 H 0.87962 0.30313 0.65971 0.0
H882 H 0.98257 0.29743 0.67144 0.0
H883 H 0.95736 0.32946 0.63559 0.0
H884 H 0.93656 0.36479 0.62162 0.0
H885 H 0.00361 0.43521 0.63057 0.0
H886 H 0.02453 0.40047 0.64471 0.0
H887 H 0.1377 0.25163 0.66052 0.0
H888 H 0.08171 0.2595 0.65771 0.0
H889 H 0.0953 0.35969 0.65837 0.0
H890 H 0.15154 0.35209 0.66052 0.0
H891 H 0.05229 0.34529 0.644 0.0
H892 H 0.0727 0.31821 0.68099 0.0
H893 H 0.09329 0.28549 0.69574 0.0
H894 H 0.03492 0.20898 0.68559 0.0
H895 H 0.01429 0.24114 0.67068 0.0
C896 C 0.91223 0.3756 0.66297 0.0
C897 C 0.88872 0.35245 0.66278 0.0
C898 C 0.94344 0.36772 0.66094 0.0
C899 C 0.95172 0.3366 0.65869 0.0
C900 C 0.92835 0.31356 0.65825 0.0
C901 C 0.89711 0.32144 0.66018 0.0
C902 C 0.98506 0.32779 0.65763 0.0
C903 C 0.99773 0.30735 0.66531 0.0
C904 C 0.00481 0.34148 0.64979 0.0
C905 C 0.99235 0.36243 0.64127 0.0
C906 C 0.9675 0.35257 0.63464 0.0
C907 C 0.95572 0.37248 0.62668 0.0
C908 C 0.96871 0.40225 0.62522 0.0
C909 C 0.99356 0.41215 0.63171 0.0
C910 C 0.00541 0.39234 0.63969 0.0
C911 C 0.12899 0.27535 0.65985 0.0
C912 C 0.14919 0.30124 0.66096 0.0
C913 C 0.09686 0.2798 0.65833 0.0
C914 C 0.08426 0.31018 0.65807 0.0
C915 C 0.1045 0.33603 0.65863 0.0
C916 C 0.13664 0.33162 0.66002 0.0
C917 C 0.04991 0.31517 0.6579 0.0
C918 C 0.03705 0.33497 0.65003 0.0
C919 C 0.02997 0.30126 0.66567 0.0
C920 C 0.04224 0.28194 0.67465 0.0
C921 C 0.06443 0.29433 0.68186 0.0
C922 C 0.07609 0.2759 0.69025 0.0
C923 C 0.06549 0.24514 0.69158 0.0
C924 C 0.04315 0.23278 0.68453 0.0
C925 C 0.03147 0.2511 0.67611 0.0
H926 H 0.07454 0.23091 0.69809 0.0
H927 H 0.95956 0.41762 0.61905 0.0
H928 H 0.01867 0.12867 0.03912 0.0
H929 H 0.03572 0.12474 0.02063 0.0
H930 H 0.11912 0.07547 0.03073 0.0
H931 H 0.10109 0.07803 0.0495 0.0
H932 H 0.07962 0.1426 0.00847 0.0
H933 H 0.1385 0.02253 0.01137 0.0
H934 H 0.13968 0.97586 0.02313 0.0
H935 H 0.04496 0.9941 0.03308 0.0
H936 H 0.04316 0.04063 0.0213 0.0
H937 H 0.08789 0.10139 0.95325 0.0
H938 H 0.10919 0.10794 0.97146 0.0
H939 H 0.04177 0.04103 0.98349 0.0
H940 H 0.02151 0.03351 0.96547 0.0
H941 H 0.09274 0.03472 0.99432 0.0
H942 H 0.02764 0.12246 0.98272 0.0
H943 H 0.01543 0.1659 0.97029 0.0
H944 H 0.10356 0.20945 0.97775 0.0
H945 H 0.11652 0.16593 0.9901 0.0
C946 C 0.04081 0.11717 0.03749 0.0
C947 C 0.05831 0.10322 0.04578 0.0
C948 C 0.05072 0.1152 0.02685 0.0
C949 C 0.0786 0.09956 0.0242 0.0
C950 C 0.09723 0.0872 0.03254 0.0
C951 C 0.08696 0.08869 0.04325 0.0
C952 C 0.08572 0.09388 0.01265 0.0
C953 C 0.08308 0.11906 0.00539 0.0
C954 C 0.09014 0.06322 0.00855 0.0
C955 C 0.0909 0.03524 0.0156 0.0
C956 C 0.11796 0.01653 0.01607 0.0
C957 C 0.11872 0.99011 0.02273 0.0
C958 C 0.09246 0.9821 0.02888 0.0
C959 C 0.06532 0.00039 0.02835 0.0
C960 C 0.06442 0.02678 0.02169 0.0
C961 C 0.0781 0.08767 0.95977 0.0
C962 C 0.05271 0.0673 0.95796 0.0
C963 C 0.09026 0.09144 0.97016 0.0
C964 C 0.07678 0.07533 0.97888 0.0
C965 C 0.05269 0.05367 0.97692 0.0
C966 C 0.04089 0.0496 0.96658 0.0
C967 C 0.08465 0.08311 0.99021 0.0
C968 C 0.0905 0.05841 0.9974 0.0
C969 C 0.08149 0.11397 0.99426 0.0
C970 C 0.07323 0.14078 0.98721 0.0
C971 C 0.04443 0.14128 0.98169 0.0
C972 C 0.03741 0.16586 0.97464 0.0
C973 C 0.05882 0.19027 0.97317 0.0
C974 C 0.08711 0.19038 0.97885 0.0
C975 C 0.09432 0.16578 0.98587 0.0
H976 H 0.05344 0.20913 0.96764 0.0
H977 H 0.09312 0.96167 0.03404 0.0
H978 H 0.19281 0.88519 0.29482 0.0
H979 H 0.19756 0.90149 0.27603 0.0
H980 H 0.2979 0.88904 0.27775 0.0
H981 H 0.29331 0.8744 0.29672 0.0
H982 H 0.28508 0.9332 0.26358 0.0
H983 H 0.24769 0.82844 0.2705 0.0
H984 H 0.21232 0.78845 0.27814 0.0
H985 H 0.13467 0.82847 0.26097 0.0
H986 H 0.16953 0.86902 0.25336 0.0
H987 H 0.32267 0.85605 0.21456 0.0
H988 H 0.31345 0.87651 0.23263 0.0
H989 H 0.21922 0.90223 0.22364 0.0
H990 H 0.2284 0.88205 0.20545 0.0
H991 H 0.22304 0.86056 0.24081 0.0
H992 H 0.26728 0.95878 0.23083 0.0
H993 H 0.30643 0.99441 0.22286 0.0
H994 H 0.37578 0.96165 0.24523 0.0
H995 H 0.33718 0.92545 0.25323 0.0
C996 C 0.21594 0.88695 0.29126 0.0
C997 C 0.24266 0.87822 0.29713 0.0
C998 C 0.21864 0.89613 0.28053 0.0
C999 C 0.24797 0.89552 0.27538 0.0
C1000 C 0.27499 0.8895 0.28152 0.0
C1001 C 0.27237 0.88111 0.29236 0.0
C1002 C 0.25008 0.89678 0.26346 0.0
C1003 C 0.27155 0.91734 0.25859 0.0
C1004 C 0.2321 0.87634 0.25692 0.0
C1005 C 0.21111 0.852 0.26149 0.0
C1006 C 0.22302 0.82885 0.26843 0.0
C1007 C 0.20308 0.80608 0.27275 0.0
C1008 C 0.17124 0.80599 0.27008 0.0
C1009 C 0.15931 0.82863 0.26306 0.0
C1010 C 0.17914 0.85153 0.25875 0.0
C1011 C 0.30024 0.86678 0.21635 0.0
C1012 C 0.27615 0.8672 0.20864 0.0
C1013 C 0.29509 0.87868 0.22665 0.0
C1014 C 0.26569 0.89096 0.22945 0.0
C1015 C 0.24213 0.89302 0.2216 0.0
C1016 C 0.24742 0.8815 0.21122 0.0
C1017 C 0.25827 0.89669 0.24092 0.0
C1018 C 0.23594 0.87712 0.24574 0.0
C1019 C 0.276 0.91746 0.24737 0.0
C1020 C 0.29933 0.93923 0.2426 0.0
C1021 C 0.29094 0.95897 0.234 0.0
C1022 C 0.31303 0.97932 0.22949 0.0
C1023 C 0.34358 0.98026 0.23353 0.0
C1024 C 0.3521 0.96089 0.24211 0.0
C1025 C 0.3301 0.94049 0.24665 0.0
H1026 H 0.36065 0.99604 0.23002 0.0
H1027 H 0.15585 0.78832 0.27342 0.0
H1028 H 0.45554 0.10838 0.54468 0.0
H1029 H 0.43519 0.11232 0.52636 0.0
H1030 H 0.43373 0.01133 0.52398 0.0
H1031 H 0.45567 0.0075 0.54208 0.0
H1032 H 0.4649 0.03238 0.50846 0.0
H1033 H 0.36472 0.05929 0.52221 0.0
H1034 H 0.32602 0.08679 0.53353 0.0
H1035 H 0.35192 0.17456 0.51914 0.0
H1036 H 0.39109 0.14768 0.50784 0.0
H1037 H 0.43741 0.04926 0.4536 0.0
H1038 H 0.41824 0.03768 0.47174 0.0
H1039 H 0.44016 0.13209 0.48161 0.0
H1040 H 0.45917 0.14386 0.46354 0.0
H1041 H 0.388 0.10665 0.49277 0.0
H1042 H 0.49615 0.0802 0.48325 0.0
H1043 H 0.53617 0.05368 0.47217 0.0
H1044 H 0.49388 0.96453 0.47906 0.0
H1045 H 0.45333 0.99064 0.49008 0.0
C1046 C 0.44998 0.08706 0.54035 0.0
C1047 C 0.45741 0.05766 0.54471 0.0
C1048 C 0.43815 0.08929 0.52988 0.0
C1049 C 0.4328 0.06209 0.52373 0.0
C1050 C 0.43782 0.03265 0.5285 0.0
C1051 C 0.45031 0.03047 0.53884 0.0
C1052 C 0.42698 0.06436 0.51195 0.0
C1053 C 0.4473 0.04789 0.50508 0.0
C1054 C 0.40459 0.0851 0.50745 0.0
C1055 C 0.38098 0.10144 0.51421 0.0
C1056 C 0.36232 0.08448 0.52151 0.0
C1057 C 0.34027 0.09996 0.52791 0.0
C1058 C 0.33654 0.1324 0.52706 0.0
C1059 C 0.35482 0.14943 0.51979 0.0
C1060 C 0.37692 0.13407 0.51336 0.0
C1061 C 0.43711 0.06786 0.45953 0.0
C1062 C 0.45036 0.09728 0.45723 0.0
C1063 C 0.42612 0.06121 0.46988 0.0
C1064 C 0.42824 0.08391 0.47804 0.0
C1065 C 0.43834 0.11425 0.47544 0.0
C1066 C 0.44945 0.12085 0.46512 0.0
C1067 C 0.42598 0.07486 0.48951 0.0
C1068 C 0.40458 0.09029 0.49626 0.0
C1069 C 0.44728 0.05308 0.49398 0.0
C1070 C 0.47161 0.03735 0.48739 0.0
C1071 C 0.49529 0.05496 0.48234 0.0
C1072 C 0.51806 0.04003 0.47609 0.0
C1073 C 0.51757 0.00746 0.47493 0.0
C1074 C 0.49422 0.98976 0.47998 0.0
C1075 C 0.47135 0.0046 0.48623 0.0
H1076 H 0.53543 0.99596 0.4702 0.0
H1077 H 0.31946 0.14434 0.53203 0.0
H1078 H 0.29578 0.26355 0.70339 0.0
H1079 H 0.29891 0.23977 0.72119 0.0
H1080 H 0.19812 0.22971 0.72177 0.0
H1081 H 0.19491 0.25519 0.70419 0.0
H1082 H 0.2137 0.25805 0.73845 0.0
H1083 H 0.2517 0.16442 0.72307 0.0
H1084 H 0.28335 0.13028 0.71132 0.0
H1085 H 0.36746 0.16125 0.72704 0.0
H1086 H 0.33641 0.19594 0.73879 0.0
H1087 H 0.23468 0.22849 0.7931 0.0
H1088 H 0.22468 0.20832 0.77497 0.0
H1089 H 0.31512 0.24216 0.76462 0.0
H1090 H 0.32541 0.26197 0.78266 0.0
H1091 H 0.29555 0.18776 0.75334 0.0
H1092 H 0.25474 0.29193 0.76421 0.0
H1093 H 0.22279 0.32405 0.77658 0.0
H1094 H 0.14178 0.26823 0.76923 0.0
H1095 H 0.17332 0.23568 0.7569 0.0
C1096 C 0.27439 0.25534 0.70718 0.0
C1097 C 0.24509 0.2614 0.70248 0.0
C1098 C 0.27618 0.24154 0.71736 0.0
C1099 C 0.24873 0.23275 0.72288 0.0
C1100 C 0.21962 0.23642 0.71774 0.0
C1101 C 0.2178 0.25089 0.70768 0.0
C1102 C 0.25011 0.22469 0.73453 0.0
C1103 C 0.23096 0.24183 0.74162 0.0
C1104 C 0.27277 0.20382 0.73882 0.0
C1105 C 0.29167 0.18291 0.73179 0.0
C1106 C 0.27696 0.16412 0.72398 0.0
C1107 C 0.2948 0.14464 0.71732 0.0
C1108 C 0.32739 0.14362 0.71843 0.0
C1109 C 0.34221 0.16204 0.7262 0.0
C1110 C 0.32448 0.18158 0.73288 0.0
C1111 C 0.25286 0.23064 0.78706 0.0
C1112 C 0.28052 0.24744 0.78921 0.0
C1113 C 0.24713 0.21905 0.77671 0.0
C1114 C 0.26897 0.22423 0.76843 0.0
C1115 C 0.29796 0.23795 0.77089 0.0
C1116 C 0.30366 0.24956 0.78119 0.0
C1117 C 0.25971 0.22157 0.75699 0.0
C1118 C 0.27752 0.20284 0.75001 0.0
C1119 C 0.23562 0.24067 0.75275 0.0
C1120 C 0.21637 0.26131 0.7597 0.0
C1121 C 0.23008 0.2866 0.76523 0.0
C1122 C 0.21206 0.30485 0.77224 0.0
C1123 C 0.18024 0.2982 0.7737 0.0
C1124 C 0.16637 0.27342 0.76809 0.0
C1125 C 0.18429 0.25508 0.76109 0.0
H1126 H 0.16634 0.31224 0.77917 0.0
H1127 H 0.34116 0.12852 0.71326 0.0
H1128 H 0.79159 0.3907 0.79136 0.0
H1129 H 0.79696 0.40998 0.77298 0.0
H1130 H 0.69612 0.41521 0.77014 0.0
H1131 H 0.69082 0.394 0.78832 0.0
H1132 H 0.71553 0.38516 0.7544 0.0
H1133 H 0.7478 0.48259 0.76874 0.0
H1134 H 0.7765 0.51947 0.7804 0.0
H1135 H 0.86385 0.48919 0.76672 0.0
H1136 H 0.83575 0.45179 0.75508 0.0
H1137 H 0.7398 0.41143 0.69992 0.0
H1138 H 0.72897 0.43361 0.7177 0.0
H1139 H 0.81832 0.39998 0.72911 0.0
H1140 H 0.82953 0.37818 0.7114 0.0
H1141 H 0.79658 0.45685 0.73969 0.0
H1142 H 0.76036 0.34802 0.73103 0.0
H1143 H 0.73226 0.31358 0.71828 0.0
H1144 H 0.65075 0.37217 0.7206 0.0
H1145 H 0.67819 0.40663 0.73348 0.0
C1146 C 0.77062 0.39681 0.78691 0.0
C1147 C 0.7408 0.39073 0.7912 0.0
C1148 C 0.77367 0.40805 0.77639 0.0
C1149 C 0.74694 0.41433 0.77011 0.0
C1150 C 0.71713 0.41042 0.77475 0.0
C1151 C 0.71409 0.3984 0.78515 0.0
C1152 C 0.75005 0.4205 0.75836 0.0
C1153 C 0.73258 0.40167 0.75126 0.0
C1154 C 0.77251 0.44168 0.7541 0.0
C1155 C 0.78962 0.46425 0.76106 0.0
C1156 C 0.77314 0.48364 0.76826 0.0
C1157 C 0.78931 0.50467 0.77486 0.0
C1158 C 0.82198 0.50665 0.77431 0.0
C1159 C 0.83854 0.48764 0.76714 0.0
C1160 C 0.82249 0.46656 0.76051 0.0
C1161 C 0.75762 0.40975 0.7061 0.0
C1162 C 0.78519 0.39241 0.70436 0.0
C1163 C 0.75143 0.42252 0.71624 0.0
C1164 C 0.77266 0.41797 0.72474 0.0
C1165 C 0.80165 0.40374 0.72266 0.0
C1166 C 0.80786 0.391 0.71255 0.0
C1167 C 0.76238 0.4214 0.73604 0.0
C1168 C 0.77871 0.44149 0.74298 0.0
C1169 C 0.73858 0.40183 0.74021 0.0
C1170 C 0.72121 0.37972 0.73323 0.0
C1171 C 0.73629 0.35325 0.72892 0.0
C1172 C 0.72049 0.33377 0.72167 0.0
C1173 C 0.68961 0.34055 0.7187 0.0
C1174 C 0.67446 0.36672 0.72302 0.0
C1175 C 0.69006 0.38616 0.73032 0.0
H1176 H 0.67745 0.3256 0.71304 0.0
H1177 H 0.83445 0.52294 0.77943 0.0
H1178 H 0.70284 0.78662 0.21142 0.0
H1179 H 0.71252 0.77108 0.22987 0.0
H1180 H 0.80126 0.73068 0.22053 0.0
H1181 H 0.79214 0.74748 0.20192 0.0
H1182 H 0.72433 0.7241 0.24254 0.0
H1183 H 0.85459 0.75082 0.23957 0.0
H1184 H 0.89253 0.77604 0.22728 0.0
H1185 H 0.82113 0.83957 0.21642 0.0
H1186 H 0.78295 0.81499 0.22876 0.0
H1187 H 0.76606 0.75217 0.29801 0.0
H1188 H 0.76794 0.72869 0.27994 0.0
H1189 H 0.77906 0.82087 0.2661 0.0
H1190 H 0.77843 0.84395 0.28392 0.0
H1191 H 0.81609 0.78333 0.25624 0.0
H1192 H 0.7061 0.7795 0.26764 0.0
H1193 H 0.66288 0.76223 0.27946 0.0
H1194 H 0.68567 0.66602 0.27297 0.0
H1195 H 0.72924 0.68279 0.2612 0.0
C1196 C 0.72419 0.7739 0.21321 0.0
C1197 C 0.74714 0.76906 0.20528 0.0
C1198 C 0.72956 0.76469 0.22379 0.0
C1199 C 0.75792 0.7503 0.22666 0.0
C1200 C 0.77943 0.74227 0.21853 0.0
C1201 C 0.77419 0.75183 0.2079 0.0
C1202 C 0.76645 0.74905 0.23822 0.0
C1203 C 0.74477 0.73644 0.24556 0.0
C1204 C 0.793 0.76531 0.24219 0.0
C1205 C 0.81591 0.7808 0.23497 0.0
C1206 C 0.84708 0.77023 0.23458 0.0
C1207 C 0.86859 0.78441 0.22761 0.0
C1208 C 0.85921 0.8093 0.22104 0.0
C1209 C 0.82834 0.82024 0.22149 0.0
C1210 C 0.80678 0.80622 0.22848 0.0
C1211 C 0.76896 0.76727 0.29107 0.0
C1212 C 0.77207 0.79986 0.29235 0.0
C1213 C 0.77006 0.75387 0.28077 0.0
C1214 C 0.77364 0.773 0.27163 0.0
C1215 C 0.77672 0.80551 0.27299 0.0
C1216 C 0.77614 0.81874 0.28321 0.0
C1217 C 0.77287 0.76019 0.26052 0.0
C1218 C 0.79629 0.76985 0.25329 0.0
C1219 C 0.74725 0.7424 0.25663 0.0
C1220 C 0.72113 0.73236 0.26368 0.0
C1221 C 0.702 0.75467 0.2688 0.0
C1222 C 0.67744 0.74498 0.27548 0.0
C1223 C 0.67161 0.71305 0.277 0.0
C1224 C 0.69027 0.69074 0.27181 0.0
C1225 C 0.71489 0.70032 0.26515 0.0
H1226 H 0.65258 0.70559 0.28216 0.0
H1227 H 0.87588 0.82014 0.21564 0.0
H1228 H 0.58104 0.60956 0.45825 0.0
H1229 H 0.59818 0.61282 0.47692 0.0
H1230 H 0.60323 0.5118 0.47851 0.0
H1231 H 0.58432 0.50858 0.45998 0.0
H1232 H 0.56981 0.52982 0.49379 0.0
H1233 H 0.67004 0.56272 0.48201 0.0
H1234 H 0.70915 0.59245 0.47156 0.0
H1235 H 0.67684 0.67835 0.48573 0.0
H1236 H 0.63721 0.64923 0.49616 0.0
H1237 H 0.58776 0.5478 0.54922 0.0
H1238 H 0.61066 0.5377 0.53149 0.0
H1239 H 0.58312 0.63007 0.52104 0.0
H1240 H 0.56046 0.64044 0.5387 0.0
H1241 H 0.63945 0.60817 0.51109 0.0
H1242 H 0.53154 0.57342 0.51882 0.0
H1243 H 0.49438 0.54348 0.53006 0.0
H1244 H 0.54522 0.45873 0.52352 0.0
H1245 H 0.583 0.48833 0.51238 0.0
C1246 C 0.58686 0.58811 0.46247 0.0
C1247 C 0.58128 0.55881 0.45771 0.0
C1248 C 0.5968 0.58996 0.47317 0.0
C1249 C 0.60217 0.56253 0.47919 0.0
C1250 C 0.59909 0.5333 0.47409 0.0
C1251 C 0.58844 0.53146 0.46349 0.0
C1252 C 0.60614 0.56428 0.49108 0.0
C1253 C 0.58583 0.5463 0.49753 0.0
C1254 C 0.62664 0.58604 0.49608 0.0
C1255 C 0.65052 0.60375 0.48984 0.0
C1256 C 0.67112 0.58797 0.48285 0.0
C1257 C 0.69341 0.60472 0.47693 0.0
C1258 C 0.69545 0.63727 0.47797 0.0
C1259 C 0.67524 0.65313 0.48494 0.0
C1260 C 0.65289 0.6365 0.49088 0.0
C1261 C 0.58751 0.56633 0.54326 0.0
C1262 C 0.57171 0.59466 0.54525 0.0
C1263 C 0.60067 0.56053 0.53315 0.0
C1264 C 0.59813 0.58298 0.52493 0.0
C1265 C 0.5853 0.61244 0.52727 0.0
C1266 C 0.57209 0.61821 0.53735 0.0
C1267 C 0.60294 0.57414 0.51353 0.0
C1268 C 0.62446 0.59095 0.50724 0.0
C1269 C 0.58384 0.5511 0.50864 0.0
C1270 C 0.5602 0.53309 0.51485 0.0
C1271 C 0.53478 0.5484 0.51979 0.0
C1272 C 0.51366 0.53152 0.52616 0.0
C1273 C 0.51748 0.49924 0.52753 0.0
C1274 C 0.54232 0.48375 0.52247 0.0
C1275 C 0.56359 0.50055 0.51612 0.0
H1276 H 0.50119 0.48623 0.5325 0.0
H1277 H 0.71272 0.65019 0.47337 0.0
H1278 H 0.98638 0.6486 0.95437 0.0
H1279 H 0.96293 0.64527 0.97209 0.0
H1280 H 0.91131 0.56293 0.9624 0.0
H1281 H 0.93603 0.5654 0.94461 0.0
H1282 H 0.91228 0.64244 0.9836 0.0
H1283 H 0.91808 0.50946 0.98186 0.0
H1284 H 0.94083 0.46686 0.97087 0.0
H1285 H 0.01826 0.52627 0.96233 0.0
H1286 H 0.99607 0.56902 0.97332 0.0
H1287 H 0.92446 0.59801 0.04008 0.0
H1288 H 0.90359 0.59997 0.02163 0.0
H1289 H 0.99574 0.57887 0.00921 0.0
H1290 H 0.01633 0.57639 0.02736 0.0
H1291 H 0.95338 0.54403 0.99948 0.0
H1292 H 0.96597 0.65407 0.00957 0.0
H1293 H 0.95449 0.70068 0.02065 0.0
H1294 H 0.85678 0.69328 0.01267 0.0
H1295 H 0.86771 0.6464 0.00162 0.0
C1296 C 0.96946 0.63016 0.95589 0.0
C1297 C 0.96385 0.60664 0.94823 0.0
C1298 C 0.95574 0.62849 0.96603 0.0
C1299 C 0.93598 0.60335 0.96869 0.0
C1300 C 0.92702 0.58218 0.96058 0.0
C1301 C 0.94112 0.58363 0.95041 0.0
C1302 C 0.93069 0.59639 0.98026 0.0
C1303 C 0.92048 0.62061 0.98709 0.0
C1304 C 0.94166 0.56804 0.98485 0.0
C1305 C 0.95522 0.54245 0.97828 0.0
C1306 C 0.93995 0.51335 0.97763 0.0
C1307 C 0.95274 0.48921 0.9714 0.0
C1308 C 0.98091 0.4939 0.96587 0.0
C1309 C 0.99639 0.52269 0.96657 0.0
C1310 C 0.98374 0.54686 0.9728 0.0
C1311 C 0.94016 0.59388 0.03338 0.0
C1312 C 0.97201 0.58697 0.03516 0.0
C1313 C 0.92821 0.59493 0.02287 0.0
C1314 C 0.94807 0.58931 0.01405 0.0
C1315 C 0.97986 0.58281 0.01588 0.0
C1316 C 0.99166 0.58158 0.02629 0.0
C1317 C 0.93683 0.59076 0.00278 0.0
C1318 C 0.94364 0.56529 0.99604 0.0
C1319 C 0.92413 0.61843 0.99829 0.0
C1320 C 0.91757 0.64654 0.00491 0.0
C1321 C 0.94201 0.66226 0.01025 0.0
C1322 C 0.93562 0.68874 0.01651 0.0
C1323 C 0.9049 0.69986 0.01739 0.0
C1324 C 0.88054 0.68458 0.012 0.0
C1325 C 0.88682 0.65807 0.00574 0.0
H1326 H 0.9 0.72036 0.02224 0.0
H1327 H 0.9908 0.47517 0.96108 0.0
H1328 H 0.2666 0.89312 0.14137 0.0
H1329 H 0.23474 0.9282 0.13046 0.0
H1330 H 0.15922 0.92106 0.15342 0.0
H1331 H 0.19111 0.88554 0.16448 0.0
H1332 H 0.13937 0.91668 0.13151 0.0
H1333 H 0.20093 0.98392 0.15416 0.0
H1334 H 0.24957 0.00316 0.16262 0.0
H1335 H 0.28798 0.02396 0.13148 0.0
H1336 H 0.23972 0.00439 0.12283 0.0
H1337 H 0.09347 0.08497 0.11484 0.0
H1338 H 0.12386 0.04901 0.12587 0.0
H1339 H 0.12524 0.98201 0.09988 0.0
H1340 H 0.09385 0.01771 0.08881 0.0
H1341 H 0.18009 0.02362 0.12414 0.0
H1342 H 0.12139 0.91001 0.10999 0.0
H1343 H 0.07187 0.89501 0.10106 0.0
H1344 H 0.02418 0.97097 0.11672 0.0
H1345 H 0.07329 0.98623 0.12581 0.0
C1346 C 0.24321 0.89892 0.14414 0.0
C1347 C 0.23143 0.88667 0.15383 0.0
C1348 C 0.22504 0.91897 0.13787 0.0
C1349 C 0.19472 0.92726 0.14115 0.0
C1350 C 0.18259 0.91483 0.15075 0.0
C1351 C 0.2009 0.89479 0.15709 0.0
C1352 C 0.17641 0.94985 0.13467 0.0
C1353 C 0.14816 0.9401 0.12993 0.0
C1354 C 0.18784 0.98044 0.13267 0.0
C1355 C 0.21681 0.99244 0.13785 0.0
C1356 C 0.21984 0.99238 0.14912 0.0
C1357 C 0.24733 0.00338 0.15394 0.0
C1358 C 0.27188 0.01471 0.14759 0.0
C1359 C 0.26896 0.01514 0.13639 0.0
C1360 C 0.24153 0.00413 0.13153 0.0
C1361 C 0.10029 0.06265 0.11142 0.0
C1362 C 0.09101 0.05408 0.10097 0.0
C1363 C 0.1178 0.04217 0.11774 0.0
C1364 C 0.12648 0.01271 0.11375 0.0
C1365 C 0.11831 0.00446 0.10317 0.0
C1366 C 0.10053 0.02492 0.09684 0.0
C1367 C 0.14321 0.99045 0.12087 0.0
C1368 C 0.17122 0.00024 0.12573 0.0
C1369 C 0.13125 0.96018 0.12312 0.0
C1370 C 0.10105 0.94936 0.11851 0.0
C1371 C 0.10024 0.92325 0.11163 0.0
C1372 C 0.07229 0.91481 0.1065 0.0
C1373 C 0.045 0.93221 0.10826 0.0
C1374 C 0.0454 0.95765 0.11532 0.0
C1375 C 0.07326 0.96618 0.12047 0.0
H1376 H 0.02353 0.92601 0.10415 0.0
H1377 H 0.29314 0.02322 0.15134 0.0
H1378 H 0.27671 0.87711 0.36651 0.0
H1379 H 0.31173 0.91022 0.37692 0.0
H1380 H 0.36395 0.93255 0.34818 0.0
H1381 H 0.32909 0.89854 0.33763 0.0
H1382 H 0.40266 0.92239 0.36514 0.0
H1383 H 0.312 0.98467 0.3583 0.0
H1384 H 0.25555 0.99694 0.35753 0.0
H1385 H 0.2486 0.98599 0.39179 0.0
H1386 H 0.30494 0.97318 0.39275 0.0
H1387 H 0.4709 0.06187 0.38746 0.0
H1388 H 0.44048 0.02534 0.37648 0.0
H1389 H 0.39884 0.98639 0.40513 0.0
H1390 H 0.4298 0.02254 0.41626 0.0
H1391 H 0.35577 0.00603 0.38777 0.0
H1392 H 0.4478 0.94368 0.39419 0.0
H1393 H 0.50464 0.93326 0.39451 0.0
H1394 H 0.5094 0.94707 0.36033 0.0
H1395 H 0.45262 0.95813 0.35983 0.0
C1396 C 0.2956 0.889 0.36235 0.0
C1397 C 0.29992 0.88546 0.35121 0.0
C1398 C 0.31559 0.90801 0.36833 0.0
C1399 C 0.34007 0.92432 0.3633 0.0
C1400 C 0.34506 0.92027 0.35221 0.0
C1401 C 0.3251 0.90096 0.34619 0.0
C1402 C 0.35994 0.94588 0.36969 0.0
C1403 C 0.39248 0.94098 0.36995 0.0
C1404 C 0.34655 0.96983 0.37611 0.0
C1405 C 0.31266 0.9777 0.37558 0.0
C1406 C 0.29839 0.98464 0.36566 0.0
C1407 C 0.26641 0.99173 0.36519 0.0
C1408 C 0.24848 0.99218 0.3746 0.0
C1409 C 0.26251 0.98561 0.3845 0.0
C1410 C 0.29448 0.97846 0.38502 0.0
C1411 C 0.45533 0.04549 0.39144 0.0
C1412 C 0.45257 0.04511 0.40271 0.0
C1413 C 0.43812 0.02458 0.38516 0.0
C1414 C 0.41758 0.00323 0.39002 0.0
C1415 C 0.41469 0.00275 0.40127 0.0
C1416 C 0.43236 0.02331 0.40759 0.0
C1417 C 0.39829 0.98224 0.38329 0.0
C1418 C 0.36589 0.98741 0.38294 0.0
C1419 C 0.41186 0.95885 0.37672 0.0
C1420 C 0.446 0.95209 0.37699 0.0
C1421 C 0.46101 0.94483 0.38675 0.0
C1422 C 0.49321 0.93874 0.38697 0.0
C1423 C 0.51064 0.9396 0.37745 0.0
C1424 C 0.49588 0.94647 0.3677 0.0
C1425 C 0.46367 0.95263 0.36744 0.0
H1426 H 0.53558 0.93486 0.37763 0.0
H1427 H 0.22373 0.99767 0.37422 0.0
H1428 H 0.43688 0.13998 0.58579 0.0
H1429 H 0.41033 0.17897 0.59703 0.0
H1430 H 0.4476 0.13461 0.62551 0.0
H1431 H 0.47282 0.09499 0.6144 0.0
H1432 H 0.39013 0.14675 0.62874 0.0
H1433 H 0.4763 0.20644 0.61484 0.0
H1434 H 0.51063 0.22844 0.60076 0.0
H1435 H 0.43263 0.27858 0.58734 0.0
H1436 H 0.39769 0.25652 0.60125 0.0
H1437 H 0.34084 0.26566 0.66457 0.0
H1438 H 0.37766 0.23434 0.65392 0.0
H1439 H 0.33216 0.26468 0.62474 0.0
H1440 H 0.29556 0.29615 0.63525 0.0
H1441 H 0.39707 0.26144 0.62257 0.0
H1442 H 0.31103 0.19716 0.63568 0.0
H1443 H 0.27723 0.17505 0.6499 0.0
H1444 H 0.35769 0.13365 0.66505 0.0
H1445 H 0.39201 0.15591 0.65099 0.0
C1446 C 0.43929 0.13858 0.59445 0.0
C1447 C 0.45672 0.11435 0.59922 0.0
C1448 C 0.42437 0.16102 0.60087 0.0
C1449 C 0.42733 0.16003 0.61213 0.0
C1450 C 0.44491 0.13588 0.61686 0.0
C1451 C 0.45928 0.11319 0.61048 0.0
C1452 C 0.41109 0.18321 0.61909 0.0
C1453 C 0.3922 0.17184 0.62748 0.0
C1454 C 0.41326 0.21598 0.61736 0.0
C1455 C 0.43431 0.22961 0.60905 0.0
C1456 C 0.46641 0.22201 0.60885 0.0
C1457 C 0.48599 0.2345 0.6009 0.0
C1458 C 0.47381 0.25486 0.59315 0.0
C1459 C 0.44203 0.2628 0.59335 0.0
C1460 C 0.42233 0.25033 0.60127 0.0
C1461 C 0.33888 0.2659 0.65588 0.0
C1462 C 0.31498 0.28301 0.65076 0.0
C1463 C 0.35995 0.24806 0.64982 0.0
C1464 C 0.35739 0.24701 0.63855 0.0
C1465 C 0.33455 0.26524 0.63342 0.0
C1466 C 0.31348 0.283 0.63946 0.0
C1467 C 0.37642 0.22479 0.63215 0.0
C1468 C 0.39557 0.23634 0.62386 0.0
C1469 C 0.37477 0.19214 0.63399 0.0
C1470 C 0.3541 0.17845 0.64236 0.0
C1471 C 0.32152 0.18351 0.64209 0.0
C1472 C 0.30227 0.17094 0.65011 0.0
C1473 C 0.31532 0.15303 0.65839 0.0
C1474 C 0.34762 0.14757 0.65864 0.0
C1475 C 0.36698 0.16014 0.65065 0.0
H1476 H 0.30038 0.14332 0.66459 0.0
H1477 H 0.48902 0.26456 0.58702 0.0
H1478 H 0.09754 0.12624 0.91367 0.0
H1479 H 0.13512 0.14729 0.90058 0.0
H1480 H 0.05881 0.18449 0.88175 0.0
H1481 H 0.02121 0.164 0.8948 0.0
H1482 H 0.10422 0.1499 0.86969 0.0
H1483 H 0.09783 0.23353 0.8956 0.0
H1484 H 0.09997 0.25636 0.91381 0.0
H1485 H 0.19609 0.22774 0.91688 0.0
H1486 H 0.19436 0.20429 0.89874 0.0
H1487 H 0.18906 0.24971 0.83412 0.0
H1488 H 0.15227 0.22581 0.84676 0.0
H1489 H 0.22859 0.206 0.86852 0.0
H1490 H 0.26521 0.23091 0.85612 0.0
H1491 H 0.18294 0.23088 0.87922 0.0
H1492 H 0.19051 0.14762 0.85347 0.0
H1493 H 0.1889 0.12348 0.83545 0.0
H1494 H 0.09204 0.14931 0.83221 0.0
H1495 H 0.09318 0.17397 0.85015 0.0
C1496 C 0.08881 0.13908 0.90678 0.0
C1497 C 0.05645 0.14359 0.90529 0.0
C1498 C 0.11026 0.15106 0.89932 0.0
C1499 C 0.09964 0.16738 0.89022 0.0
C1500 C 0.0674 0.17188 0.88872 0.0
C1501 C 0.046 0.16033 0.89623 0.0
C1502 C 0.12212 0.17977 0.88222 0.0
C1503 C 0.12127 0.16784 0.87171 0.0
C1504 C 0.14471 0.2026 0.88498 0.0
C1505 C 0.14586 0.21685 0.89586 0.0
C1506 C 0.11934 0.23185 0.9002 0.0
C1507 C 0.12049 0.24495 0.9105 0.0
C1508 C 0.14812 0.24342 0.91651 0.0
C1509 C 0.17469 0.22886 0.91222 0.0
C1510 C 0.17364 0.21568 0.90193 0.0
C1511 C 0.19804 0.24003 0.84154 0.0
C1512 C 0.23001 0.24248 0.84415 0.0
C1513 C 0.17699 0.22621 0.84876 0.0
C1514 C 0.18766 0.21395 0.8586 0.0
C1515 C 0.21975 0.21545 0.86102 0.0
C1516 C 0.24068 0.22962 0.8539 0.0
C1517 C 0.16534 0.20092 0.86661 0.0
C1518 C 0.16609 0.2128 0.87715 0.0
C1519 C 0.14283 0.17783 0.86389 0.0
C1520 C 0.14202 0.16289 0.85312 0.0
C1521 C 0.16893 0.14835 0.84888 0.0
C1522 C 0.16809 0.13454 0.83869 0.0
C1523 C 0.14041 0.13493 0.83268 0.0
C1524 C 0.11348 0.14906 0.83686 0.0
C1525 C 0.1142 0.16292 0.84705 0.0
H1526 H 0.13981 0.12423 0.82479 0.0
H1527 H 0.14897 0.25358 0.92448 0.0
H1528 H 0.94154 0.11201 0.88494 0.0
H1529 H 0.89883 0.12621 0.87305 0.0
H1530 H 0.84292 0.05027 0.88569 0.0
H1531 H 0.88594 0.03614 0.89789 0.0
H1532 H 0.86626 0.10264 0.85756 0.0
H1533 H 0.7664 0.07632 0.88655 0.0
H1534 H 0.75708 0.06631 0.90587 0.0
H1535 H 0.83596 0.12423 0.91403 0.0
H1536 H 0.84547 0.13481 0.89478 0.0
H1537 H 0.75131 0.19322 0.83307 0.0
H1538 H 0.76707 0.14471 0.84198 0.0
H1539 H 0.78501 0.19622 0.87122 0.0
H1540 H 0.76741 0.24426 0.8626 0.0
H1541 H 0.77007 0.13885 0.87627 0.0
H1542 H 0.84153 0.18909 0.85069 0.0
H1543 H 0.85619 0.20833 0.83264 0.0
H1544 H 0.84311 0.11599 0.81964 0.0
H1545 H 0.828 0.09633 0.83761 0.0
C1546 C 0.92053 0.09773 0.88502 0.0
C1547 C 0.91707 0.07304 0.89239 0.0
C1548 C 0.89603 0.10589 0.87819 0.0
C1549 C 0.8675 0.08951 0.87853 0.0
C1550 C 0.86457 0.06352 0.8854 0.0
C1551 C 0.88911 0.0555 0.89236 0.0
C1552 C 0.84044 0.10228 0.87246 0.0
C1553 C 0.84486 0.10989 0.86158 0.0
C1554 C 0.81252 0.11187 0.87769 0.0
C1555 C 0.80687 0.10595 0.88926 0.0
C1556 C 0.7817 0.08691 0.89249 0.0
C1557 C 0.77638 0.08116 0.90341 0.0
C1558 C 0.79599 0.09452 0.91117 0.0
C1559 C 0.82086 0.1138 0.90802 0.0
C1560 C 0.82623 0.11968 0.89711 0.0
C1561 C 0.75734 0.19403 0.84152 0.0
C1562 C 0.75892 0.22276 0.84706 0.0
C1563 C 0.76655 0.16625 0.84659 0.0
C1564 C 0.77809 0.16697 0.85717 0.0
C1565 C 0.77646 0.19505 0.86302 0.0
C1566 C 0.76681 0.22265 0.85803 0.0
C1567 C 0.79686 0.1407 0.86158 0.0
C1568 C 0.79073 0.13032 0.87209 0.0
C1569 C 0.82398 0.12969 0.85618 0.0
C1570 C 0.83328 0.14136 0.84542 0.0
C1571 C 0.84165 0.17296 0.84396 0.0
C1572 C 0.85003 0.18393 0.83376 0.0
C1573 C 0.85048 0.16341 0.82499 0.0
C1574 C 0.84266 0.13186 0.82643 0.0
C1575 C 0.83417 0.12079 0.83661 0.0
H1576 H 0.85698 0.17194 0.8171 0.0
H1577 H 0.79186 0.09 0.91962 0.0
H1578 H 0.64874 0.0986 0.58928 0.0
H1579 H 0.69244 0.11082 0.60126 0.0
H1580 H 0.65053 0.05369 0.62611 0.0
H1581 H 0.60609 0.04256 0.61415 0.0
H1582 H 0.65973 0.10852 0.6334 0.0
H1583 H 0.72621 0.03758 0.61535 0.0
H1584 H 0.75101 0.01034 0.60008 0.0
H1585 H 0.79259 0.09677 0.58959 0.0
H1586 H 0.76767 0.12468 0.6047 0.0
H1587 H 0.7659 0.18807 0.66619 0.0
H1588 H 0.75108 0.13992 0.65669 0.0
H1589 H 0.75644 0.18905 0.62641 0.0
H1590 H 0.7712 0.23708 0.63586 0.0
H1591 H 0.77244 0.12365 0.62492 0.0
H1592 H 0.69113 0.19371 0.63929 0.0
H1593 H 0.66587 0.22234 0.6542 0.0
H1594 H 0.65204 0.13584 0.67123 0.0
H1595 H 0.67776 0.10677 0.65648 0.0
C1596 C 0.64957 0.08783 0.59718 0.0
C1597 C 0.62444 0.0696 0.60086 0.0
C1598 C 0.67461 0.09461 0.60401 0.0
C1599 C 0.67504 0.08294 0.61459 0.0
C1600 C 0.65082 0.06285 0.61798 0.0
C1601 C 0.62554 0.05641 0.61117 0.0
C1602 C 0.69733 0.09637 0.62253 0.0
C1603 C 0.6846 0.11074 0.63171 0.0
C1604 C 0.72974 0.09989 0.62029 0.0
C1605 C 0.74496 0.08325 0.61118 0.0
C1606 C 0.74048 0.05084 0.60976 0.0
C1607 C 0.75459 0.03527 0.60113 0.0
C1608 C 0.77336 0.05181 0.59387 0.0
C1609 C 0.77808 0.08397 0.59523 0.0
C1610 C 0.76402 0.09967 0.60385 0.0
C1611 C 0.76508 0.1882 0.65749 0.0
C1612 C 0.76921 0.21624 0.65173 0.0
C1613 C 0.75666 0.16073 0.65207 0.0
C1614 C 0.7524 0.16109 0.64087 0.0
C1615 C 0.75972 0.18829 0.63505 0.0
C1616 C 0.76785 0.21575 0.64045 0.0
C1617 C 0.73441 0.13603 0.63546 0.0
C1618 C 0.74785 0.11995 0.62677 0.0
C1619 C 0.70259 0.13079 0.6381 0.0
C1620 C 0.68669 0.14815 0.64687 0.0
C1621 C 0.68288 0.18085 0.64625 0.0
C1622 C 0.66848 0.19714 0.65467 0.0
C1623 C 0.65744 0.18093 0.66367 0.0
C1624 C 0.66069 0.14837 0.66426 0.0
C1625 C 0.67519 0.13198 0.65588 0.0
H1626 H 0.64628 0.19358 0.67018 0.0
H1627 H 0.78425 0.03971 0.58719 0.0
H1628 H 0.75533 0.96702 0.34419 0.0
H1629 H 0.74312 0.00897 0.35684 0.0
H1630 H 0.77375 0.95049 0.38319 0.0
H1631 H 0.78438 0.90787 0.3705 0.0
H1632 H 0.71923 0.96865 0.38716 0.0
H1633 H 0.8098 0.02418 0.37655 0.0
H1634 H 0.84925 0.04697 0.36434 0.0
H1635 H 0.77919 0.10714 0.35061 0.0
H1636 H 0.73918 0.08442 0.36262 0.0
H1637 H 0.65019 0.07849 0.42061 0.0
H1638 H 0.69868 0.06006 0.41214 0.0
H1639 H 0.65909 0.07786 0.38082 0.0
H1640 H 0.61044 0.09588 0.38925 0.0
H1641 H 0.72979 0.08379 0.38276 0.0
H1642 H 0.63966 0.0134 0.3897 0.0
H1643 H 0.60005 0.99156 0.40209 0.0
H1644 H 0.67312 0.95975 0.4232 0.0
H1645 H 0.71313 0.98194 0.411 0.0
C1646 C 0.76034 0.96356 0.35265 0.0
C1647 C 0.7706 0.93434 0.35643 0.0
C1648 C 0.75358 0.98763 0.3599 0.0
C1649 C 0.75769 0.98309 0.37101 0.0
C1650 C 0.77032 0.95458 0.37467 0.0
C1651 C 0.77641 0.93028 0.36745 0.0
C1652 C 0.74377 0.00565 0.37877 0.0
C1653 C 0.72254 0.99377 0.38639 0.0
C1654 C 0.74744 0.03857 0.37773 0.0
C1655 C 0.77142 0.05246 0.37048 0.0
C1656 C 0.80273 0.04213 0.37088 0.0
C1657 C 0.82521 0.05506 0.364 0.0
C1658 C 0.81673 0.07847 0.3567 0.0
C1659 C 0.78574 0.08903 0.35628 0.0
C1660 C 0.76315 0.07617 0.36314 0.0
C1661 C 0.65242 0.07979 0.41194 0.0
C1662 C 0.62663 0.08819 0.40554 0.0
C1663 C 0.68011 0.06935 0.40712 0.0
C1664 C 0.68227 0.06747 0.39587 0.0
C1665 C 0.65789 0.07937 0.38951 0.0
C1666 C 0.63007 0.08939 0.39431 0.0
C1667 C 0.70548 0.04644 0.39084 0.0
C1668 C 0.72787 0.0586 0.38372 0.0
C1669 C 0.70325 0.01371 0.39235 0.0
C1670 C 0.6793 -0.00041 0.39952 0.0
C1671 C 0.64723 0.0019 0.39702 0.0
C1672 C 0.62472 0.98947 0.404 0.0
C1673 C 0.63405 0.97435 0.41344 0.0
C1674 C 0.66593 0.97153 0.4159 0.0
C1675 C 0.68853 0.98403 0.40895 0.0
H1676 H 0.61659 0.96476 0.41885 0.0
H1677 H 0.83417 0.08844 0.35138 0.0
H1678 H 0.79291 0.89141 0.1354 0.0
H1679 H 0.81132 0.93579 0.12499 0.0
H1680 H 0.73553 0.99242 0.13739 0.0
H1681 H 0.71762 0.94783 0.14828 0.0
H1682 H 0.79481 0.97265 0.11021 0.0
H1683 H 0.76275 0.06696 0.14106 0.0
H1684 H 0.74879 0.07195 0.16028 0.0
H1685 H 0.80261 0.98956 0.16756 0.0
H1686 H 0.81715 0.98436 0.14842 0.0
H1687 H 0.88551 0.09346 0.09046 0.0
H1688 H 0.83687 0.07387 0.09811 0.0
H1689 H 0.88434 0.05483 0.12805 0.0
H1690 H 0.93251 0.07694 0.12079 0.0
H1691 H 0.82577 0.06473 0.13215 0.0
H1692 H 0.88364 0.00056 0.10688 0.0
H1693 H 0.90828 0.98873 0.08938 0.0
H1694 H 0.81928 -0.0006 0.07364 0.0
H1695 H 0.7942 0.01162 0.09106 0.0
C1696 C 0.77961 0.91303 0.1357 0.0
C1697 C 0.75396 0.91626 0.14269 0.0
C1698 C 0.79016 0.93848 0.12973 0.0
C1699 C 0.77512 0.96766 0.13051 0.0
C1700 C 0.74788 0.97031 0.13682 0.0
C1701 C 0.73762 0.94487 0.143 0.0
C1702 C 0.79043 0.99544 0.1256 0.0
C1703 C 0.80103 0.99309 0.11494 0.0
C1704 C 0.79895 0.022 0.1318 0.0
C1705 C 0.7906 0.02505 0.14332 0.0
C1706 C 0.77159 0.04997 0.14678 0.0
C1707 C 0.76361 0.05283 0.15765 0.0
C1708 C 0.77469 0.03101 0.16513 0.0
C1709 C 0.79394 0.00637 0.16176 0.0
C1710 C 0.80205 0.00346 0.15091 0.0
C1711 C 0.88545 0.08653 0.09884 0.0
C1712 C 0.91332 0.08603 0.10492 0.0
C1713 C 0.85753 0.07499 0.10316 0.0
C1714 C 0.85723 0.06188 0.11351 0.0
C1715 C 0.88406 0.06446 0.11998 0.0
C1716 C 0.91179 0.07669 0.11576 0.0
C1717 C 0.83131 0.04104 0.11697 0.0
C1718 C 0.81853 0.04489 0.12729 0.0
C1719 C 0.82223 0.01484 0.11069 0.0
C1720 C 0.83715 0.0074 0.10023 0.0
C1721 C 0.86939 0.00055 0.09967 0.0
C1722 C 0.88342 0.99377 0.08978 0.0
C1723 C 0.86537 0.99343 0.0804 0.0
C1724 C 0.83324 -0.00023 0.0809 0.0
C1725 C 0.8191 0.00662 0.09078 0.0
H1726 H 0.87628 0.98817 0.07274 0.0
H1727 H 0.76844 0.03324 0.17353 0.0
H1728 H 0.70402 0.40791 0.66366 0.0
H1729 H 0.66633 0.43635 0.65247 0.0
H1730 H 0.70783 0.39614 0.62395 0.0
H1731 H 0.74619 0.3688 0.63502 0.0
H1732 H 0.69879 0.45477 0.62078 0.0
H1733 H 0.63511 0.37138 0.63466 0.0
H1734 H 0.61231 0.33815 0.6489 0.0
H1735 H 0.56656 0.41839 0.6626 0.0
H1736 H 0.58945 0.45222 0.64853 0.0
H1737 H 0.57985 0.50722 0.58515 0.0
H1738 H 0.61062 0.47008 0.59588 0.0
H1739 H 0.58464 0.51926 0.62485 0.0
H1740 H 0.55394 0.55634 0.61427 0.0
H1741 H 0.58391 0.45319 0.62715 0.0
H1742 H 0.65166 0.53627 0.61417 0.0
H1743 H 0.67523 0.56951 0.60008 0.0
H1744 H 0.71335 0.48791 0.58466 0.0
H1745 H 0.68958 0.45414 0.59858 0.0
C1746 C 0.70506 0.40518 0.655 0.0
C1747 C 0.72812 0.38625 0.65021 0.0
C1748 C 0.68336 0.42123 0.64862 0.0
C1749 C 0.68393 0.41803 0.63736 0.0
C1750 C 0.70691 0.399 0.63261 0.0
C1751 C 0.72885 0.3834 0.63895 0.0
C1752 C 0.66149 0.43542 0.63046 0.0
C1753 C 0.67364 0.45388 0.62208 0.0
C1754 C 0.62866 0.4348 0.63225 0.0
C1755 C 0.61422 0.41439 0.64058 0.0
C1756 C 0.62031 0.38198 0.64074 0.0
C1757 C 0.60736 0.36303 0.64878 0.0
C1758 C 0.58806 0.37616 0.65667 0.0
C1759 C 0.58154 0.40826 0.65649 0.0
C1760 C 0.59447 0.42732 0.64848 0.0
C1761 C 0.58053 0.50999 0.59381 0.0
C1762 C 0.56479 0.53497 0.59885 0.0
C1763 C 0.59803 0.48873 0.59992 0.0
C1764 C 0.59997 0.4921 0.61114 0.0
C1765 C 0.58333 0.51624 0.61621 0.0
C1766 C 0.56603 0.53757 0.61012 0.0
C1767 C 0.62139 0.47221 0.61754 0.0
C1768 C 0.60905 0.45353 0.62582 0.0
C1769 C 0.65407 0.47239 0.61566 0.0
C1770 C 0.66857 0.49268 0.60734 0.0
C1771 C 0.66486 0.52541 0.60772 0.0
C1772 C 0.67829 0.54434 0.59978 0.0
C1773 C 0.6957 0.53082 0.59146 0.0
C1774 C 0.6998 0.49834 0.59109 0.0
C1775 C 0.68637 0.4793 0.59901 0.0
H1776 H 0.70608 0.54552 0.58532 0.0
H1777 H 0.5781 0.36147 0.6629 0.0
H1778 H 8e-05 0.53874 0.88116 0.0
H1779 H 0.96581 0.50585 0.87028 0.0
H1780 H 0.91106 0.48322 0.89843 0.0
H1781 H 0.94593 0.51561 0.90949 0.0
H1782 H 0.91802 0.4329 0.88583 0.0
H1783 H 0.88716 0.54007 0.88059 0.0
H1784 H 0.89542 0.59584 0.8762 0.0
H1785 H 0.92644 0.57059 0.84449 0.0
H1786 H 0.91879 0.51461 0.84876 0.0
H1787 H 0.77572 0.38954 0.86036 0.0
H1788 H 0.81624 0.41584 0.87085 0.0
H1789 H 0.87122 0.42939 0.84209 0.0
H1790 H 0.83059 0.40313 0.83146 0.0
H1791 H 0.86627 0.48282 0.85446 0.0
H1792 H 0.89004 0.37495 0.85942 0.0
H1793 H 0.88174 0.31959 0.86421 0.0
H1794 H 0.86287 0.34587 0.89691 0.0
H1795 H 0.87055 0.40151 0.89228 0.0
C1796 C 0.98083 0.52669 0.88507 0.0
C1797 C 0.97539 0.53015 0.89616 0.0
C1798 C 0.96122 0.50793 0.87882 0.0
C1799 C 0.93545 0.49267 0.88349 0.0
C1800 C 0.9307 0.49499 0.89465 0.0
C1801 C 0.95056 0.51356 0.90095 0.0
C1802 C 0.91287 0.4753 0.87665 0.0
C1803 C 0.90638 0.44384 0.87905 0.0
C1804 C 0.89831 0.48949 0.86764 0.0
C1805 C 0.90269 0.52315 0.86503 0.0
C1806 C 0.89595 0.5464 0.87271 0.0
C1807 C 0.9005 0.57805 0.87024 0.0
C1808 C 0.91152 0.58675 0.86008 0.0
C1809 C 0.91794 0.56381 0.85236 0.0
C1810 C 0.91348 0.53213 0.8548 0.0
C1811 C 0.79635 0.39816 0.85623 0.0
C1812 C 0.79992 0.3942 0.84506 0.0
C1813 C 0.81959 0.413 0.86226 0.0
C1814 C 0.84686 0.4242 0.85727 0.0
C1815 C 0.85036 0.42077 0.8461 0.0
C1816 C 0.82714 0.40575 0.84004 0.0
C1817 C 0.87118 0.44041 0.86369 0.0
C1818 C 0.878 0.47172 0.86121 0.0
C1819 C 0.88578 0.42608 0.87268 0.0
C1820 C 0.88062 0.39257 0.87546 0.0
C1821 C 0.88384 0.36902 0.86761 0.0
C1822 C 0.87928 0.33754 0.8703 0.0
C1823 C 0.87169 0.32921 0.88085 0.0
C1824 C 0.86868 0.35236 0.88873 0.0
C1825 C 0.87314 0.38389 0.88607 0.0
H1826 H 0.86821 0.30482 0.88293 0.0
H1827 H 0.91503 0.61126 0.85818 0.0
H1828 H 0.92326 0.57578 0.10426 0.0
H1829 H 0.8961 0.61212 0.11617 0.0
H1830 H 0.89783 0.68288 0.09136 0.0
H1831 H 0.92551 0.64675 0.07943 0.0
H1832 H 0.91782 0.70623 0.10969 0.0
H1833 H 0.82905 0.64625 0.09881 0.0
H1834 H 0.79815 0.59842 0.0954 0.0
H1835 H 0.80248 0.5746 0.12892 0.0
H1836 H 0.8338 0.62207 0.13252 0.0
H1837 H 0.82571 0.81337 0.13981 0.0
H1838 H 0.84594 0.77808 0.12603 0.0
H1839 H 0.84135 0.70099 0.1485 0.0
H1840 H 0.8191 0.73608 0.16212 0.0
H1841 H 0.82114 0.68226 0.13029 0.0
H1842 H 0.91209 0.74397 0.14065 0.0
H1843 H 0.94208 0.7928 0.14328 0.0
H1844 H 0.93301 0.81449 0.10969 0.0
H1845 H 0.90238 0.76612 0.1069 0.0
C1846 C 0.91747 0.5989 0.10126 0.0
C1847 C 0.92675 0.60845 0.09091 0.0
C1848 C 0.90182 0.61964 0.10808 0.0
C1849 C 0.89475 0.65017 0.10464 0.0
C1850 C 0.90311 0.65944 0.09419 0.0
C1851 C 0.9189 0.63875 0.08738 0.0
C1852 C 0.88054 0.67297 0.11219 0.0
C1853 C 0.89639 0.70125 0.11408 0.0
C1854 C 0.85292 0.66616 0.11805 0.0
C1855 C 0.83401 0.63761 0.11592 0.0
C1856 C 0.82362 0.63069 0.10545 0.0
C1857 C 0.80599 0.60367 0.10348 0.0
C1858 C 0.79841 0.58345 0.11193 0.0
C1859 C 0.80839 0.59026 0.12238 0.0
C1860 C 0.82605 0.61725 0.12439 0.0
C1861 C 0.82925 0.78892 0.14182 0.0
C1862 C 0.82119 0.77741 0.15204 0.0
C1863 C 0.84096 0.76878 0.13395 0.0
C1864 C 0.84593 0.73695 0.13627 0.0
C1865 C 0.83786 0.72547 0.14652 0.0
C1866 C 0.82528 0.74548 0.15431 0.0
C1867 C 0.85872 0.71541 0.12797 0.0
C1868 C 0.84255 0.68734 0.12591 0.0
C1869 C 0.88596 0.72257 0.12189 0.0
C1870 C 0.90459 0.75157 0.1236 0.0
C1871 C 0.91626 0.75927 0.13384 0.0
C1872 C 0.93339 0.78688 0.13536 0.0
C1873 C 0.93931 0.80679 0.12666 0.0
C1874 C 0.92828 0.79909 0.11642 0.0
C1875 C 0.91102 0.7716 0.11487 0.0
H1876 H 0.95245 0.82819 0.12782 0.0
H1877 H 0.78476 0.56254 0.11039 0.0
H1878 H 0.76317 0.76765 0.36245 0.0
H1879 H 0.72882 0.73721 0.37398 0.0
H1880 H 0.66334 0.72597 0.3478 0.0
H1881 H 0.69742 0.7577 0.33619 0.0
H1882 H 0.63272 0.73852 0.36552 0.0
H1883 H 0.71243 0.66518 0.35629 0.0
H1884 H 0.76623 0.64525 0.35384 0.0
H1885 H 0.78352 0.65511 0.3877 0.0
H1886 H 0.72994 0.67553 0.39033 0.0
H1887 H 0.55331 0.60808 0.38892 0.0
H1888 H 0.58606 0.64136 0.37759 0.0
H1889 H 0.6364 0.67345 0.40558 0.0
H1890 H 0.60321 0.64032 0.4171 0.0
H1891 H 0.67413 0.64981 0.38708 0.0
H1892 H 0.59184 0.7232 0.3956 0.0
H1893 H 0.53688 0.74055 0.39725 0.0
H1894 H 0.52302 0.72517 0.36344 0.0
H1895 H 0.57782 0.70722 0.36167 0.0
C1896 C 0.7416 0.75857 0.35906 0.0
C1897 C 0.73316 0.76493 0.34835 0.0
C1898 C 0.72199 0.741 0.36569 0.0
C1899 C 0.69376 0.72873 0.36172 0.0
C1900 C 0.68512 0.73506 0.35102 0.0
C1901 C 0.70466 0.75305 0.34438 0.0
C1902 C 0.67319 0.7099 0.36888 0.0
C1903 C 0.64169 0.71884 0.3701 0.0
C1904 C 0.685 0.68451 0.37503 0.0
C1905 C 0.71724 0.67216 0.37349 0.0
C1906 C 0.72778 0.66333 0.3632 0.0
C1907 C 0.75822 0.6519 0.36178 0.0
C1908 C 0.77831 0.64899 0.3706 0.0
C1909 C 0.76795 0.65741 0.38087 0.0
C1910 C 0.73753 0.66888 0.38233 0.0
C1911 C 0.57126 0.62227 0.3927 0.0
C1912 C 0.57585 0.62149 0.4039 0.0
C1913 C 0.58985 0.64134 0.38621 0.0
C1914 C 0.61355 0.65975 0.39077 0.0
C1915 C 0.61817 0.65928 0.40195 0.0
C1916 C 0.59919 0.64049 0.4085 0.0
C1917 C 0.63399 0.67867 0.38371 0.0
C1918 C 0.66534 0.66959 0.38249 0.0
C1919 C 0.62192 0.70347 0.37742 0.0
C1920 C 0.58892 0.71401 0.37849 0.0
C1921 C 0.57702 0.72342 0.38853 0.0
C1922 C 0.54589 0.73333 0.3895 0.0
C1923 C 0.52646 0.734 0.38045 0.0
C1924 C 0.5381 0.72469 0.37044 0.0
C1925 C 0.56919 0.71468 0.36945 0.0
H1926 H 0.50238 0.74172 0.3812 0.0
H1927 H 0.80187 0.64014 0.36949 0.0
H1928 H 0.40396 0.54125 0.40002 0.0
H1929 H 0.356 0.54995 0.3894 0.0
H1930 H 0.34558 0.64125 0.40391 0.0
H1931 H 0.39339 0.63276 0.41434 0.0
H1932 H 0.28729 0.61028 0.4 0.0
H1933 H 0.38759 0.63567 0.38192 0.0
H1934 H 0.43944 0.62053 0.37479 0.0
H1935 H 0.39624 0.55022 0.355 0.0
H1936 H 0.34415 0.56473 0.36214 0.0
H1937 H 0.25819 0.74238 0.37042 0.0
H1938 H 0.27021 0.69651 0.38128 0.0
H1939 H 0.26238 0.63758 0.35317 0.0
H1940 H 0.25091 0.68395 0.34218 0.0
H1941 H 0.31728 0.63072 0.36208 0.0
H1942 H 0.21505 0.6235 0.37548 0.0
H1943 H 0.16388 0.64085 0.38251 0.0
H1944 H 0.20857 0.67692 0.41087 0.0
H1945 H 0.26009 0.66028 0.40395 0.0
C1946 C 0.39084 0.56276 0.4011 0.0
C1947 C 0.40229 0.58654 0.40785 0.0
C1948 C 0.36354 0.56767 0.39508 0.0
C1949 C 0.34736 0.59626 0.39587 0.0
C1950 C 0.3576 0.61895 0.40324 0.0
C1951 C 0.38499 0.61424 0.40912 0.0
C1952 C 0.32314 0.60523 0.38795 0.0
C1953 C 0.29347 0.61446 0.39165 0.0
C1954 C 0.33093 0.6095 0.37699 0.0
C1955 C 0.36213 0.60097 0.37266 0.0
C1956 C 0.38922 0.61684 0.3761 0.0
C1957 C 0.41862 0.6084 0.37206 0.0
C1958 C 0.42115 0.58435 0.36447 0.0
C1959 C 0.39425 0.56877 0.3609 0.0
C1960 C 0.3648 0.57708 0.36494 0.0
C1961 C 0.25822 0.71953 0.36661 0.0
C1962 C 0.25401 0.7167 0.35546 0.0
C1963 C 0.26471 0.6932 0.37285 0.0
C1964 C 0.26699 0.66346 0.36807 0.0
C1965 C 0.26054 0.66026 0.35704 0.0
C1966 C 0.25392 0.68672 0.35078 0.0
C1967 C 0.2818 0.63762 0.37423 0.0
C1968 C 0.30998 0.62523 0.37023 0.0
C1969 C 0.27249 0.63048 0.38489 0.0
C1970 C 0.24153 0.64057 0.38917 0.0
C1971 C 0.21403 0.63528 0.38319 0.0
C1972 C 0.18493 0.64498 0.38716 0.0
C1973 C 0.18297 0.65996 0.39713 0.0
C1974 C 0.21011 0.66525 0.40316 0.0
C1975 C 0.23928 0.6556 0.39922 0.0
H1976 H 0.16042 0.66746 0.40019 0.0
H1977 H 0.44393 0.57785 0.36134 0.0
H1978 H 0.25042 0.68137 0.16124 0.0
H1979 H 0.22995 0.63844 0.1502 0.0
H1980 H 0.23855 0.69626 0.12187 0.0
H1981 H 0.25876 0.73921 0.13288 0.0
H1982 H 0.17921 0.67815 0.12543 0.0
H1983 H 0.28025 0.62929 0.1241 0.0
H1984 H 0.32914 0.60729 0.1315 0.0
H1985 H 0.27627 0.53812 0.14886 0.0
H1986 H 0.22699 0.55999 0.14168 0.0
H1987 H 0.13108 0.56454 0.08693 0.0
H1988 H 0.17555 0.57912 0.09811 0.0
H1989 H 0.11601 0.57941 0.12612 0.0
H1990 H 0.0714 0.56345 0.11508 0.0
H1991 H 0.20443 0.56497 0.12192 0.0
H1992 H 0.11386 0.65648 0.13012 0.0
H1993 H 0.0642 0.67616 0.12242 0.0
H1994 H 0.09935 0.66019 0.09051 0.0
H1995 H 0.14937 0.64102 0.09804 0.0
C1996 C 0.24905 0.68444 0.15261 0.0
C1997 C 0.25579 0.71364 0.1479 0.0
C1998 C 0.23736 0.65992 0.14631 0.0
C1999 C 0.23254 0.66428 0.13524 0.0
C2000 C 0.24195 0.6925 0.13041 0.0
C2001 C 0.25346 0.71699 0.1367 0.0
C2002 C 0.21301 0.64197 0.12906 0.0
C2003 C 0.18507 0.65352 0.1246 0.0
C2004 C 0.22029 0.60969 0.12809 0.0
C2005 C 0.24989 0.59647 0.13242 0.0
C2006 C 0.27901 0.60956 0.12957 0.0
C2007 C 0.30681 0.59708 0.13371 0.0
C2008 C 0.30581 0.57137 0.14067 0.0
C2009 C 0.27701 0.55805 0.14348 0.0
C2010 C 0.24914 0.57046 0.13936 0.0
C2011 C 0.12761 0.56597 0.09554 0.0
C2012 C 0.09741 0.56358 0.10007 0.0
C2013 C 0.15323 0.57421 0.10193 0.0
C2014 C 0.1489 0.58054 0.11288 0.0
C2015 C 0.11972 0.57451 0.11766 0.0
C2016 C 0.09417 0.56591 0.1113 0.0
C2017 C 0.17117 0.60148 0.1184 0.0
C2018 C 0.19912 0.58971 0.12275 0.0
C2019 C 0.16428 0.63374 0.11923 0.0
C2020 C 0.13516 0.64716 0.11463 0.0
C2021 C 0.11104 0.65748 0.12146 0.0
C2022 C 0.08284 0.66849 0.11713 0.0
C2023 C 0.0786 0.66935 0.10598 0.0
C2024 C 0.10265 0.65948 0.09914 0.0
C2025 C 0.13092 0.64858 0.10343 0.0
H2026 H 0.05669 0.6777 0.10265 0.0
H2027 H 0.32736 0.56173 0.14386 0.0
H2028 H 0.13884 0.60316 0.88998 0.0
H2029 H 0.18283 0.59065 0.87796 0.0
H2030 H 0.19841 0.50447 0.89532 0.0
H2031 H 0.15458 0.5168 0.90726 0.0
H2032 H 0.25478 0.53242 0.8872 0.0
H2033 H 0.14783 0.50309 0.8757 0.0
H2034 H 0.09326 0.51675 0.87106 0.0
H2035 H 0.12631 0.58031 0.84677 0.0
H2036 H 0.18113 0.56731 0.8514 0.0
H2037 H 0.27426 0.39333 0.85998 0.0
H2038 H 0.26495 0.44105 0.87021 0.0
H2039 H 0.2588 0.49399 0.84069 0.0
H2040 H 0.26727 0.44583 0.83036 0.0
H2041 H 0.20832 0.50179 0.85215 0.0
H2042 H 0.31534 0.51264 0.85974 0.0
H2043 H 0.36924 0.49714 0.86451 0.0
H2044 H 0.33801 0.46831 0.89582 0.0
H2045 H 0.28381 0.48313 0.89121 0.0
C2046 C 0.15235 0.58206 0.8914 0.0
C2047 C 0.14319 0.56063 0.89939 0.0
C2048 C 0.17743 0.575 0.88457 0.0
C2049 C 0.19366 0.54657 0.88573 0.0
C2050 C 0.18626 0.52659 0.89433 0.0
C2051 C 0.16105 0.53346 0.90106 0.0
C2052 C 0.214 0.53448 0.87705 0.0
C2053 C 0.24497 0.52595 0.87946 0.0
C2054 C 0.20134 0.52709 0.86685 0.0
C2055 C 0.16848 0.53455 0.86398 0.0
C2056 C 0.14342 0.52012 0.86942 0.0
C2057 C 0.11247 0.52773 0.86679 0.0
C2058 C 0.10632 0.54946 0.85865 0.0
C2059 C 0.13112 0.56355 0.8531 0.0
C2060 C 0.16212 0.55609 0.85572 0.0
C2061 C 0.27152 0.41525 0.85567 0.0
C2062 C 0.27104 0.41582 0.84439 0.0
C2063 C 0.26666 0.44264 0.86154 0.0
C2064 C 0.26143 0.47124 0.85623 0.0
C2065 C 0.26299 0.47223 0.84495 0.0
C2066 C 0.26789 0.44473 0.83906 0.0
C2067 C 0.24892 0.49815 0.86244 0.0
C2068 C 0.21912 0.50942 0.85961 0.0
C2069 C 0.26279 0.508 0.87222 0.0
C2070 C 0.2954 0.49902 0.87511 0.0
C2071 C 0.31989 0.50282 0.86763 0.0
C2072 C 0.35053 0.49417 0.8703 0.0
C2073 C 0.35704 0.48175 0.88046 0.0
C2074 C 0.33293 0.47799 0.88796 0.0
C2075 C 0.30224 0.48659 0.88533 0.0
H2076 H 0.38078 0.47506 0.88252 0.0
H2077 H 0.08235 0.55532 0.85662 0.0
H2078 H 0.30973 0.46355 0.66168 0.0
H2079 H 0.31635 0.50987 0.65044 0.0
H2080 H 0.22843 0.4901 0.63462 0.0
H2081 H 0.22176 0.44338 0.646 0.0
H2082 H 0.27655 0.49284 0.62073 0.0
H2083 H 0.23686 0.56062 0.6471 0.0
H2084 H 0.22784 0.58229 0.66521 0.0
H2085 H 0.32543 0.6059 0.66781 0.0
H2086 H 0.3352 0.58395 0.64979 0.0
H2087 H 0.36573 0.589 0.58648 0.0
H2088 H 0.31859 0.58084 0.59748 0.0
H2089 H 0.37662 0.5703 0.6257 0.0
H2090 H 0.42335 0.57917 0.61484 0.0
H2091 H 0.32063 0.59623 0.63094 0.0
H2092 H 0.35969 0.50713 0.60927 0.0
H2093 H 0.37195 0.48183 0.59192 0.0
H2094 H 0.2771 0.49622 0.5814 0.0
H2095 H 0.26444 0.52194 0.59867 0.0
C2096 C 0.29143 0.46962 0.65601 0.0
C2097 C 0.26542 0.44993 0.6546 0.0
C2098 C 0.29501 0.49626 0.64966 0.0
C2099 C 0.27273 0.50365 0.64174 0.0
C2100 C 0.24572 0.48498 0.64075 0.0
C2101 C 0.24195 0.45839 0.64723 0.0
C2102 C 0.28108 0.52701 0.6334 0.0
C2103 C 0.28501 0.51602 0.62285 0.0
C2104 C 0.29236 0.55713 0.63619 0.0
C2105 C 0.28673 0.57064 0.64704 0.0
C2106 C 0.25645 0.5703 0.65154 0.0
C2107 C 0.2512 0.58265 0.6618 0.0
C2108 C 0.27604 0.59549 0.66765 0.0
C2109 C 0.30619 0.59602 0.66325 0.0
C2110 C 0.31158 0.5837 0.653 0.0
C2111 C 0.36824 0.58598 0.59509 0.0
C2112 C 0.39813 0.58405 0.59981 0.0
C2113 C 0.34134 0.58128 0.60135 0.0
C2114 C 0.34415 0.57448 0.61237 0.0
C2115 C 0.37385 0.57548 0.61721 0.0
C2116 C 0.40058 0.58017 0.61099 0.0
C2117 C 0.31775 0.56099 0.6186 0.0
C2118 C 0.31053 0.57383 0.6287 0.0
C2119 C 0.30371 0.53233 0.61549 0.0
C2120 C 0.31125 0.51676 0.60516 0.0
C2121 C 0.34153 0.50502 0.60322 0.0
C2122 C 0.34854 0.49062 0.59341 0.0
C2123 C 0.32534 0.48751 0.58554 0.0
C2124 C 0.29506 0.49873 0.58749 0.0
C2125 C 0.28796 0.51323 0.59728 0.0
H2126 H 0.33081 0.47634 0.57795 0.0
H2127 H 0.27193 0.60502 0.6756 0.0
H2128 H 0.94378 0.9646 0.0673 0.0
H2129 H 0.94084 0.90777 0.06905 0.0
H2130 H 0.0326 0.90645 0.08356 0.0
H2131 H 0.03633 0.96322 0.08156 0.0
H2132 H 0.98296 0.86917 0.05862 0.0
H2133 H 0.02965 0.83869 0.10204 0.0
H2134 H 0.0243 0.85784 0.12065 0.0
H2135 H 0.94042 0.90742 0.11203 0.0
H2136 H 0.94463 0.88783 0.09346 0.0
H2137 H 0.05378 0.72159 0.05942 0.0
H2138 H 0.04305 0.77723 0.0622 0.0
H2139 H 0.96476 0.75378 0.08267 0.0
H2140 H 0.97598 0.69808 0.08022 0.0
H2141 H 0.99737 0.80199 0.09082 0.0
H2142 H 0.95091 0.77541 0.05739 0.0
H2143 H 0.94838 0.75243 0.03921 0.0
H2144 H 0.0203 0.81554 0.02844 0.0
H2145 H 0.02361 0.8386 0.0466 0.0
C2146 C 0.96341 0.95237 0.07087 0.0
C2147 C 0.9906 0.96861 0.07406 0.0
C2148 C 0.96149 0.91988 0.07197 0.0
C2149 C 0.98646 0.90299 0.07645 0.0
C2150 C 0.01291 0.91916 0.0802 0.0
C2151 C 0.015 0.95168 0.07902 0.0
C2152 C 0.98667 0.86837 0.07591 0.0
C2153 C 0.98602 0.8545 0.06568 0.0
C2154 C 0.98989 0.84925 0.08516 0.0
C2155 C 0.98778 0.86214 0.09625 0.0
C2156 C 0.01 0.85363 0.1041 0.0
C2157 C 0.00709 0.86445 0.11467 0.0
C2158 C 0.98213 0.88395 0.11751 0.0
C2159 C 0.95989 0.8925 0.1098 0.0
C2160 C 0.96256 0.88157 0.09924 0.0
C2161 C 0.03454 0.72825 0.06461 0.0
C2162 C 0.01555 0.7054 0.06949 0.0
C2163 C 0.02827 0.76003 0.06613 0.0
C2164 C 0.00281 0.76957 0.0725 0.0
C2165 C 0.98438 0.74689 0.07766 0.0
C2166 C 0.99064 0.71507 0.07616 0.0
C2167 C 0.99511 0.80325 0.07354 0.0
C2168 C 0.9943 0.81683 0.08381 0.0
C2169 C 0.98978 0.82213 0.06437 0.0
C2170 C 0.98766 0.80858 0.05339 0.0
C2171 C 0.96634 0.78426 0.05117 0.0
C2172 C 0.96474 0.77123 0.04086 0.0
C2173 C 0.98421 0.78248 0.03268 0.0
C2174 C 0.00525 0.80684 0.03479 0.0
C2175 C 0.00697 0.81992 0.04508 0.0
H2176 H 0.98295 0.77235 0.02471 0.0
H2177 H 0.98 0.8924 0.12569 0.0
H2178 H 0.37579 0.85797 0.31381 0.0
H2179 H 0.43265 0.86405 0.31294 0.0
H2180 H 0.44365 0.76354 0.31315 0.0
H2181 H 0.38668 0.75729 0.31432 0.0
H2182 H 0.48285 0.79202 0.32734 0.0
H2183 H 0.45528 0.80404 0.29025 0.0
H2184 H 0.4261 0.8258 0.27484 0.0
H2185 H 0.46114 0.91776 0.2821 0.0
H2186 H 0.49018 0.89662 0.29765 0.0
H2187 H 0.64543 0.79553 0.315 0.0
H2188 H 0.58916 0.78577 0.31373 0.0
H2189 H 0.57144 0.88524 0.31461 0.0
H2190 H 0.62762 0.89527 0.31609 0.0
H2191 H 0.53614 0.85481 0.29911 0.0
H2192 H 0.55984 0.84419 0.33676 0.0
H2193 H 0.58955 0.8234 0.35221 0.0
H2194 H 0.56183 0.72975 0.34384 0.0
H2195 H 0.53216 0.74999 0.32829 0.0
C2196 C 0.39028 0.83715 0.31371 0.0
C2197 C 0.37672 0.80714 0.31417 0.0
C2198 C 0.42277 0.84066 0.3131 0.0
C2199 C 0.44233 0.81423 0.31288 0.0
C2200 C 0.42892 0.78422 0.31327 0.0
C2201 C 0.39638 0.78069 0.31386 0.0
C2202 C 0.47684 0.81807 0.31262 0.0
C2203 C 0.49456 0.80527 0.32106 0.0
C2204 C 0.49199 0.836 0.30456 0.0
C2205 C 0.4747 0.84877 0.29517 0.0
C2206 C 0.45658 0.82894 0.28861 0.0
C2207 C 0.44009 0.84116 0.27984 0.0
C2208 C 0.44171 0.87316 0.27751 0.0
C2209 C 0.45989 0.89299 0.28392 0.0
C2210 C 0.4764 0.88089 0.29271 0.0
C2211 C 0.62965 0.81537 0.31503 0.0
C2212 C 0.64116 0.84622 0.31572 0.0
C2213 C 0.59747 0.80973 0.31423 0.0
C2214 C 0.57619 0.83479 0.31414 0.0
C2215 C 0.58754 0.86559 0.31462 0.0
C2216 C 0.6197 0.87126 0.31545 0.0
C2217 C 0.542 0.82889 0.31383 0.0
C2218 C 0.52439 0.84134 0.30532 0.0
C2219 C 0.52689 0.81076 0.32183 0.0
C2220 C 0.54406 0.79857 0.33131 0.0
C2221 C 0.56021 0.81915 0.3382 0.0
C2222 C 0.57701 0.80748 0.34698 0.0
C2223 C 0.57765 0.77528 0.34899 0.0
C2224 C 0.56133 0.75469 0.34227 0.0
C2225 C 0.54447 0.76625 0.33348 0.0
H2226 H 0.59078 0.76635 0.35577 0.0
H2227 H 0.42892 0.88257 0.27072 0.0
H2228 H 0.47715 0.19309 0.56409 0.0
H2229 H 0.47042 0.24996 0.56379 0.0
H2230 H 0.57082 0.26203 0.56307 0.0
H2231 H 0.57777 0.20512 0.5636 0.0
H2232 H 0.5413 0.30275 0.5773 0.0
H2233 H 0.53089 0.26938 0.54044 0.0
H2234 H 0.5089 0.23779 0.52564 0.0
H2235 H 0.41709 0.27437 0.53226 0.0
H2236 H 0.43848 0.30587 0.54721 0.0
H2237 H 0.54881 0.46116 0.56114 0.0
H2238 H 0.55463 0.40419 0.56165 0.0
H2239 H 0.45414 0.39367 0.55966 0.0
H2240 H 0.44827 0.45071 0.55904 0.0
H2241 H 0.48275 0.35187 0.54719 0.0
H2242 H 0.493 0.3865 0.58372 0.0
H2243 H 0.51483 0.41883 0.59836 0.0
H2244 H 0.60629 0.38029 0.59259 0.0
H2245 H 0.5851 0.34805 0.57779 0.0
C2246 C 0.49781 0.20781 0.56397 0.0
C2247 C 0.52802 0.19455 0.56381 0.0
C2248 C 0.49392 0.2403 0.56372 0.0
C2249 C 0.52013 0.26015 0.56331 0.0
C2250 C 0.5503 0.24707 0.56336 0.0
C2251 C 0.55422 0.21456 0.56355 0.0
C2252 C 0.51606 0.29456 0.56256 0.0
C2253 C 0.52883 0.31358 0.57066 0.0
C2254 C 0.49912 0.30851 0.55403 0.0
C2255 C 0.48624 0.28973 0.54501 0.0
C2256 C 0.50597 0.2705 0.53879 0.0
C2257 C 0.49362 0.25264 0.53037 0.0
C2258 C 0.4616 0.254 0.52803 0.0
C2259 C 0.44188 0.2733 0.53409 0.0
C2260 C 0.45411 0.29118 0.54253 0.0
C2261 C 0.52798 0.44668 0.56082 0.0
C2262 C 0.49807 0.46037 0.56016 0.0
C2263 C 0.53132 0.41416 0.56112 0.0
C2264 C 0.50477 0.39469 0.56091 0.0
C2265 C 0.47493 0.40826 0.55987 0.0
C2266 C 0.47161 0.44082 0.55949 0.0
C2267 C 0.50812 0.36021 0.5619 0.0
C2268 C 0.49518 0.34113 0.55385 0.0
C2269 C 0.52481 0.34623 0.57051 0.0
C2270 C 0.5375 0.36505 0.57958 0.0
C2271 C 0.5178 0.38503 0.58553 0.0
C2272 C 0.53006 0.40334 0.59386 0.0
C2273 C 0.56195 0.40168 0.59639 0.0
C2274 C 0.58161 0.38158 0.59062 0.0
C2275 C 0.56948 0.36325 0.58226 0.0
H2276 H 0.57141 0.41592 0.60283 0.0
H2277 H 0.45208 0.24016 0.52151 0.0
H2278 H 0.14158 0.27316 0.81332 0.0
H2279 H 0.08415 0.2729 0.81414 0.0
H2280 H 0.08265 0.37167 0.8068 0.0
H2281 H 0.14013 0.37204 0.80593 0.0
H2282 H 0.04113 0.35268 0.82407 0.0
H2283 H 0.06562 0.32711 0.78729 0.0
H2284 H 0.0923 0.29801 0.77282 0.0
H2285 H 0.05232 0.21187 0.78432 0.0
H2286 H 0.02544 0.24055 0.79891 0.0
H2287 H 0.87982 0.36608 0.81034 0.0
H2288 H 0.93714 0.36841 0.81066 0.0
H2289 H 0.94118 0.26733 0.81135 0.0
H2290 H 0.88392 0.26499 0.81079 0.0
H2291 H 0.9821 0.28841 0.79767 0.0
H2292 H 0.95568 0.314 0.83418 0.0
H2293 H 0.92866 0.34309 0.84858 0.0
H2294 H 0.97213 0.4286 0.83807 0.0
H2295 H -0.00078 0.4 0.82352 0.0
C2296 C 0.129 0.29485 0.81197 0.0
C2297 C 0.14528 0.32259 0.80952 0.0
C2298 C 0.09626 0.29465 0.8124 0.0
C2299 C 0.07924 0.32226 0.8105 0.0
C2300 C 0.09541 0.35015 0.80829 0.0
C2301 C 0.12816 0.35027 0.80771 0.0
C2302 C 0.04452 0.32169 0.81046 0.0
C2303 C 0.02811 0.33894 0.81824 0.0
C2304 C 0.02772 0.30325 0.80298 0.0
C2305 C 0.0438 0.28591 0.79424 0.0
C2306 C 0.06273 0.30193 0.78678 0.0
C2307 C 0.07783 0.28552 0.77855 0.0
C2308 C 0.07414 0.25307 0.77768 0.0
C2309 C 0.0552 0.237 0.78502 0.0
C2310 C 0.03996 0.25333 0.79325 0.0
C2311 C 0.89298 0.3444 0.81063 0.0
C2312 C 0.87743 0.31536 0.81053 0.0
C2313 C 0.92572 0.34573 0.81085 0.0
C2314 C 0.94353 0.31804 0.81119 0.0
C2315 C 0.92799 0.28902 0.81108 0.0
C2316 C 0.89527 0.28768 0.81072 0.0
C2317 C 0.97836 0.31922 0.81136 0.0
C2318 C 0.99492 0.3021 0.80356 0.0
C2319 C 0.99522 0.33769 0.81888 0.0
C2320 C 0.97926 0.35489 0.8277 0.0
C2321 C 0.95933 0.33904 0.8349 0.0
C2322 C 0.94402 0.35545 0.84309 0.0
C2323 C 0.94858 0.38773 0.84422 0.0
C2324 C 0.96859 0.40361 0.83718 0.0
C2325 C 0.98397 0.3873 0.82897 0.0
H2326 H 0.9367 0.40044 0.85056 0.0
H2327 H 0.08587 0.24039 0.7713 0.0
H2328 H 0.03785 0.19559 0.94396 0.0
H2329 H 0.04337 0.25261 0.94515 0.0
H2330 H 0.94334 0.26302 0.94141 0.0
H2331 H 0.93779 0.20607 0.94005 0.0
H2332 H 0.97581 0.30105 0.9278 0.0
H2333 H 0.97675 0.27658 0.96539 0.0
H2334 H 0.99412 0.24969 0.9819 0.0
H2335 H 0.08711 0.28622 0.97761 0.0
H2336 H 0.07041 0.31302 0.96098 0.0
H2337 H 0.97355 0.46515 0.93677 0.0
H2338 H 0.96359 0.40892 0.93861 0.0
H2339 H 0.06195 0.39317 0.94469 0.0
H2340 H 0.07192 0.44931 0.94298 0.0
H2341 H 0.02796 0.3579 0.95766 0.0
H2342 H 0.02825 0.38004 0.91974 0.0
H2343 H 0.01168 0.40679 0.9031 0.0
H2344 H 0.91749 0.37373 0.90767 0.0
H2345 H 0.93339 0.34718 0.92445 0.0
C2346 C 0.01705 0.21004 0.94342 0.0
C2347 C 0.98739 0.19635 0.94186 0.0
C2348 C 0.02019 0.2426 0.94419 0.0
C2349 C 0.99374 0.26208 0.9434 0.0
C2350 C 0.96405 0.24843 0.94205 0.0
C2351 C 0.96088 0.21589 0.94136 0.0
C2352 C 0.9972 0.29672 0.94343 0.0
C2353 C 0.98673 0.31357 0.93441 0.0
C2354 C 0.01218 0.31291 0.95193 0.0
C2355 C 0.02236 0.29664 0.96189 0.0
C2356 C 0.00097 0.27869 0.96792 0.0
C2357 C 0.01066 0.26355 0.97732 0.0
C2358 C 0.04167 0.26634 0.98082 0.0
C2359 C 0.06307 0.28418 0.97491 0.0
C2360 C 0.0535 0.29937 0.9655 0.0
C2361 C 0.99305 0.44968 0.93847 0.0
C2362 C 0.02357 0.4617 0.93965 0.0
C2363 C 0.98733 0.41754 0.93953 0.0
C2364 C 0.01211 0.39669 0.94162 0.0
C2365 C 0.04244 0.40875 0.94308 0.0
C2366 C 0.04811 0.4409 0.94212 0.0
C2367 C 0.00668 0.36226 0.94201 0.0
C2368 C 0.01684 0.34543 0.95108 0.0
C2369 C 0.99157 0.34602 0.93353 0.0
C2370 C 0.98195 0.36191 0.92342 0.0
C2371 C 0.00395 0.37869 0.91725 0.0
C2372 C 0.99468 0.39379 0.90779 0.0
C2373 C 0.96354 0.39202 0.90435 0.0
C2374 C 0.9416 0.37511 0.91036 0.0
C2375 C 0.95072 0.36003 0.91984 0.0
H2376 H 0.95645 0.40367 0.89701 0.0
H2377 H 0.04914 0.25456 0.9881 0.0
H2378 H 0.14781 0.8595 0.19449 0.0
H2379 H 0.09148 0.8715 0.19596 0.0
H2380 H 0.06923 0.77899 0.18429 0.0
H2381 H 0.12524 0.76672 0.18302 0.0
H2382 H 0.04183 0.84454 0.17382 0.0
H2383 H 0.05455 0.77672 0.20597 0.0
H2384 H 0.08019 0.76498 0.22329 0.0
H2385 H 0.05401 0.85567 0.23529 0.0
H2386 H 0.0286 0.86808 0.21795 0.0
H2387 H 0.88252 0.8111 0.17566 0.0
H2388 H 0.93918 0.80984 0.17672 0.0
H2389 H 0.93689 0.87494 0.20326 0.0
H2390 H 0.87965 0.87498 0.20269 0.0
H2391 H 0.9789 0.83283 0.20717 0.0
H2392 H 0.95579 0.89675 0.17729 0.0
H2393 H 0.93313 0.91415 0.16006 0.0
H2394 H 0.98234 0.84079 0.14352 0.0
H2395 H 0.00394 0.8219 0.16066 0.0
C2396 C 0.1308 0.84179 0.19228 0.0
C2397 C 0.14072 0.81217 0.18867 0.0
C2398 C 0.0988 0.84859 0.19317 0.0
C2399 C 0.07645 0.826 0.19029 0.0
C2400 C 0.08628 0.79656 0.18662 0.0
C2401 C 0.11817 0.78956 0.18593 0.0
C2402 C 0.04267 0.83326 0.19064 0.0
C2403 C 0.02782 0.84179 0.18105 0.0
C2404 C 0.0251 0.8311 0.20022 0.0
C2405 C 0.04009 0.82347 0.21064 0.0
C2406 C 0.05457 0.79427 0.21226 0.0
C2407 C 0.06898 0.78746 0.22209 0.0
C2408 C 0.06884 0.80961 0.23037 0.0
C2409 C 0.05417 0.83857 0.22886 0.0
C2410 C 0.03975 0.84549 0.21904 0.0
C2411 C 0.89374 0.82481 0.18187 0.0
C2412 C 0.87611 0.84312 0.18911 0.0
C2413 C 0.92639 0.82443 0.18235 0.0
C2414 C 0.94242 0.84284 0.18991 0.0
C2415 C 0.92505 0.86074 0.19728 0.0
C2416 C 0.89224 0.8609 0.19689 0.0
C2417 C 0.97726 0.84279 0.19014 0.0
C2418 C 0.99256 0.83588 0.19988 0.0
C2419 C 0.99535 0.84707 0.18067 0.0
C2420 C 0.98128 0.85767 0.17033 0.0
C2421 C 0.96132 0.88392 0.17001 0.0
C2422 C 0.94858 0.89403 0.16024 0.0
C2423 C 0.95601 0.87841 0.1507 0.0
C2424 C 0.9762 0.85264 0.15091 0.0
C2425 C 0.98863 0.84215 0.16066 0.0
H2426 H 0.94626 0.88636 0.14314 0.0
H2427 H 0.08001 0.80431 0.23798 0.0
H2428 H 0.50328 0.70194 0.42458 0.0
H2429 H 0.50718 0.75903 0.42373 0.0
H2430 H 0.51606 0.76278 0.4583 0.0
H2431 H 0.51148 0.7056 0.45917 0.0
H2432 H 0.47952 0.80796 0.45184 0.0
H2433 H 0.57998 0.76957 0.44118 0.0
H2434 H 0.61804 0.73851 0.43073 0.0
H2435 H 0.58979 0.78556 0.40178 0.0
H2436 H 0.551 0.8164 0.41201 0.0
H2437 H 0.54213 0.96056 0.45576 0.0
H2438 H 0.53867 0.90353 0.45582 0.0
H2439 H 0.51416 0.90448 0.42217 0.0
H2440 H 0.51798 0.96176 0.42201 0.0
H2441 H 0.55847 0.85757 0.42791 0.0
H2442 H 0.45748 0.89618 0.43954 0.0
H2443 H 0.42334 0.9291 0.45089 0.0
H2444 H 0.45729 0.88238 0.47918 0.0
H2445 H 0.49197 0.84945 0.46799 0.0
C2446 C 0.50611 0.71498 0.43199 0.0
C2447 C 0.50734 0.69939 0.44194 0.0
C2448 C 0.50839 0.74757 0.4315 0.0
C2449 C 0.51253 0.76516 0.44094 0.0
C2450 C 0.51294 0.74968 0.45091 0.0
C2451 C 0.51027 0.71707 0.45141 0.0
C2452 C 0.51664 0.79966 0.4404 0.0
C2453 C 0.49703 0.81871 0.44669 0.0
C2454 C 0.53921 0.81382 0.43357 0.0
C2455 C 0.56234 0.79509 0.42736 0.0
C2456 C 0.58163 0.77307 0.43256 0.0
C2457 C 0.60336 0.75551 0.42668 0.0
C2458 C 0.60628 0.76 0.41559 0.0
C2459 C 0.58745 0.78205 0.41036 0.0
C2460 C 0.56557 0.79956 0.4162 0.0
C2461 C 0.53631 0.94873 0.44834 0.0
C2462 C 0.52995 0.96579 0.43892 0.0
C2463 C 0.53421 0.91612 0.4484 0.0
C2464 C 0.52578 0.89991 0.43903 0.0
C2465 C 0.52053 0.91666 0.42949 0.0
C2466 C 0.52244 0.94936 0.42945 0.0
C2467 C 0.52139 0.86555 0.43933 0.0
C2468 C 0.54092 0.84663 0.433 0.0
C2469 C 0.49909 0.85148 0.44623 0.0
C2470 C 0.47748 0.87051 0.45293 0.0
C2471 C 0.45775 0.89302 0.44818 0.0
C2472 C 0.43831 0.91167 0.45458 0.0
C2473 C 0.43821 0.90788 0.46575 0.0
C2474 C 0.45742 0.8853 0.47053 0.0
C2475 C 0.47693 0.8666 0.46416 0.0
H2476 H 0.4232 0.92241 0.4707 0.0
H2477 H 0.62321 0.74646 0.41106 0.0
H2478 H 0.64925 0.37118 0.68687 0.0
H2479 H 0.59205 0.37675 0.68722 0.0
H2480 H 0.58224 0.27635 0.6895 0.0
H2481 H 0.63938 0.27066 0.68909 0.0
H2482 H 0.5416 0.30425 0.6743 0.0
H2483 H 0.57126 0.31587 0.71149 0.0
H2484 H 0.60008 0.33809 0.7269 0.0
H2485 H 0.56464 0.42971 0.71937 0.0
H2486 H 0.53564 0.40799 0.70389 0.0
H2487 H 0.38274 0.29281 0.69014 0.0
H2488 H 0.43988 0.28872 0.68948 0.0
H2489 H 0.44737 0.38945 0.69129 0.0
H2490 H 0.39019 0.3936 0.69206 0.0
H2491 H 0.48959 0.36258 0.70388 0.0
H2492 H 0.45626 0.34963 0.66731 0.0
H2493 H 0.42543 0.32618 0.65258 0.0
H2494 H 0.46727 0.23651 0.65884 0.0
H2495 H 0.498 0.2593 0.67373 0.0
C2496 C 0.63488 0.35032 0.68739 0.0
C2497 C 0.64877 0.32049 0.688 0.0
C2498 C 0.60226 0.35353 0.68765 0.0
C2499 C 0.58299 0.32696 0.68845 0.0
C2500 C 0.59675 0.29713 0.6889 0.0
C2501 C 0.62936 0.29394 0.68876 0.0
C2502 C 0.54845 0.33026 0.68896 0.0
C2503 C 0.53013 0.31672 0.68081 0.0
C2504 C 0.53366 0.34713 0.69733 0.0
C2505 C 0.55157 0.36037 0.70647 0.0
C2506 C 0.56984 0.34079 0.71306 0.0
C2507 C 0.58607 0.35327 0.72184 0.0
C2508 C 0.58421 0.3853 0.72411 0.0
C2509 C 0.56606 0.40491 0.71761 0.0
C2510 C 0.54967 0.39252 0.70885 0.0
C2511 C 0.39658 0.31407 0.69039 0.0
C2512 C 0.38198 0.34353 0.69109 0.0
C2513 C 0.42922 0.31172 0.68998 0.0
C2514 C 0.44789 0.33883 0.69012 0.0
C2515 C 0.43342 0.36823 0.69113 0.0
C2516 C 0.40076 0.37057 0.69162 0.0
C2517 C 0.48252 0.33649 0.68924 0.0
C2518 C 0.50094 0.35026 0.69731 0.0
C2519 C 0.49733 0.31982 0.68079 0.0
C2520 C 0.47926 0.30615 0.67171 0.0
C2521 C 0.45875 0.32487 0.6656 0.0
C2522 C 0.4413 0.31169 0.65721 0.0
C2523 C 0.44435 0.27986 0.65479 0.0
C2524 C 0.46492 0.26116 0.66073 0.0
C2525 C 0.48238 0.2742 0.66914 0.0
H2526 H 0.43084 0.26971 0.64829 0.0
H2527 H 0.59687 0.39492 0.73089 0.0
loop_
_geom_bond_atom_site_label_1
_geom_bond_atom_site_label_2
_geom_bond_distance
_geom_bond_site_symmetry_2
_ccdc_geom_bond_type
C0 C1 1.351 1_545 S
C0 N3 1.368 1_655 S
C0 H5 0.931 . S
C1 C0 1.351 1_565 S
C1 N2 1.373 1_655 S
C1 H29 0.930 . S
N2 C1 1.373 1_455 S
N2 C4 1.340 . S
N3 C0 1.368 1_455 S
N3 C4 1.321 1_545 S
N3 Co6 2.135 . S
C4 N2 1.340 . S
C4 N3 1.321 1_565 S
C4 H28 0.930 . S
H5 C0 0.931 . S
Co6 N3 2.135 . S
Co6 N9 2.121 . S
Co6 O14 2.055 . S
Co6 O17 2.039 . S
Co6 N20 2.140 1_455 S
C7 O8 1.227 . S
C7 O17 1.265 . S
O8 C7 1.227 . S
N9 Co6 2.121 . S
N9 C11 1.375 . S
N9 C12 1.313 . S
C10 C11 1.338 . S
C10 N13 1.377 . S
C10 H30 0.930 . S
C11 N9 1.375 . S
C11 C10 1.338 . S
C11 H15 0.931 . S
C12 N9 1.313 . S
C12 N13 1.344 . S
C12 H16 0.930 . S
N13 C10 1.377 . S
N13 C12 1.344 . S
O14 Co6 2.055 . S
O14 C18 1.253 . S
H15 C11 0.931 . S
H16 C12 0.930 . S
O17 Co6 2.039 . S
O17 C7 1.265 . S
C18 O14 1.253 . S
C18 O19 1.227 1_455 S
O19 C18 1.227 1_655 S
N20 Co6 2.140 1_655 S
N20 C23 1.346 . S
N20 C24 1.345 . S
C21 C22 1.387 . S
C21 C25 1.391 . S
C22 C21 1.387 . S
C22 C23 1.369 . S
C22 H31 0.929 . S
C23 N20 1.346 . S
C23 C22 1.369 . S
C23 H26 0.928 . S
C24 N20 1.345 . S
C24 C25 1.371 . S
C24 H27 0.931 . S
C25 C21 1.391 . S
C25 C24 1.371 . S
C25 H32 0.930 . S
H26 C23 0.928 . S
H27 C24 0.931 . S
H28 C4 0.930 . S
H29 C1 0.930 . S
H30 C10 0.930 . S
H31 C22 0.929 . S
H32 C25 0.930 . S
C33 C34 1.351 . S
C33 N36 1.368 . S
C33 H38 0.931 . S
C34 C33 1.351 . S
C34 N35 1.373 . S
C34 H62 0.930 . S
N35 C34 1.373 . S
N35 C37 1.340 . S
N36 C33 1.368 . S
N36 C37 1.321 . S
N36 Co39 2.135 . S
C37 N35 1.340 . S
C37 N36 1.321 . S
C37 H61 0.930 . S
H38 C33 0.931 . S
Co39 N36 2.135 . S
Co39 N42 2.121 . S
Co39 O47 2.055 . S
Co39 O50 2.039 . S
Co39 N53 2.140 . S
C40 O41 1.227 . S
C40 O50 1.265 . S
O41 C40 1.227 . S
N42 Co39 2.121 . S
N42 C44 1.375 . S
N42 C45 1.313 . S
C43 C44 1.338 . S
C43 N46 1.377 . S
C43 H63 0.930 . S
C44 N42 1.375 . S
C44 C43 1.338 . S
C44 H48 0.931 . S
C45 N42 1.313 . S
C45 N46 1.344 . S
C45 H49 0.930 . S
N46 C43 1.377 . S
N46 C45 1.344 . S
O47 Co39 2.055 . S
O47 C51 1.253 . S
H48 C44 0.931 . S
H49 C45 0.930 . S
O50 Co39 2.039 . S
O50 C40 1.265 . S
C51 O47 1.253 . S
C51 O52 1.227 . S
O52 C51 1.227 . S
N53 Co39 2.140 . S
N53 C56 1.346 . S
N53 C57 1.345 . S
C54 C55 1.387 . S
C54 C58 1.391 . S
C55 C54 1.387 . S
C55 C56 1.369 . S
C55 H64 0.929 . S
C56 N53 1.346 . S
C56 C55 1.369 . S
C56 H59 0.928 . S
C57 N53 1.345 . S
C57 C58 1.371 . S
C57 H60 0.931 . S
C58 C54 1.391 . S
C58 C57 1.371 . S
C58 H65 0.930 . S
H59 C56 0.928 . S
H60 C57 0.931 . S
H61 C37 0.930 . S
H62 C34 0.930 . S
H63 C43 0.930 . S
H64 C55 0.929 . S
H65 C58 0.930 . S
C66 C67 1.351 . S
C66 N69 1.368 . S
C66 H71 0.931 . S
C67 C66 1.351 . S
C67 N68 1.373 . S
C67 H95 0.930 . S
N68 C67 1.373 . S
N68 C70 1.340 . S
N69 C66 1.368 . S
N69 C70 1.321 . S
N69 Co72 2.135 . S
C70 N68 1.340 . S
C70 N69 1.321 . S
C70 H94 0.930 . S
H71 C66 0.931 . S
Co72 N69 2.135 . S
Co72 N75 2.121 . S
Co72 O80 2.055 . S
Co72 O83 2.039 . S
Co72 N86 2.140 . S
C73 O74 1.227 . S
C73 O83 1.265 . S
O74 C73 1.227 . S
N75 Co72 2.121 . S
N75 C77 1.375 . S
N75 C78 1.313 . S
C76 C77 1.338 . S
C76 N79 1.377 1_545 S
C76 H96 0.930 1_545 S
C77 N75 1.375 . S
C77 C76 1.338 . S
C77 H81 0.931 . S
C78 N75 1.313 . S
C78 N79 1.344 1_545 S
C78 H82 0.930 . S
N79 C76 1.377 1_565 S
N79 C78 1.344 1_565 S
O80 Co72 2.055 . S
O80 C84 1.253 . S
H81 C77 0.931 . S
H82 C78 0.930 . S
O83 Co72 2.039 . S
O83 C73 1.265 . S
C84 O80 1.253 . S
C84 O85 1.227 . S
O85 C84 1.227 . S
N86 Co72 2.140 . S
N86 C89 1.346 . S
N86 C90 1.345 . S
C87 C88 1.387 . S
C87 C91 1.391 . S
C88 C87 1.387 . S
C88 C89 1.369 . S
C88 H97 0.929 . S
C89 N86 1.346 . S
C89 C88 1.369 . S
C89 H92 0.928 . S
C90 N86 1.345 . S
C90 C91 1.371 . S
C90 H93 0.931 . S
C91 C87 1.391 . S
C91 C90 1.371 . S
C91 H98 0.930 . S
H92 C89 0.928 . S
H93 C90 0.931 . S
H94 C70 0.930 . S
H95 C67 0.930 . S
H96 C76 0.930 1_565 S
H97 C88 0.929 . S
H98 C91 0.930 . S
C99 C100 1.351 . S
C99 N102 1.368 . S
C99 H104 0.931 . S
C100 C99 1.351 . S
C100 N101 1.373 . S
C100 H128 0.930 . S
N101 C100 1.373 . S
N101 C103 1.340 . S
N102 C99 1.368 . S
N102 C103 1.321 . S
N102 Co105 2.135 . S
C103 N101 1.340 . S
C103 N102 1.321 . S
C103 H127 0.930 . S
H104 C99 0.931 . S
Co105 N102 2.135 . S
Co105 N108 2.121 . S
Co105 O113 2.055 . S
Co105 O116 2.039 . S
Co105 N119 2.140 . S
C106 O107 1.227 . S
C106 O116 1.265 . S
O107 C106 1.227 . S
N108 Co105 2.121 . S
N108 C110 1.375 . S
N108 C111 1.313 . S
C109 C110 1.338 . S
C109 N112 1.377 . S
C109 H129 0.930 . S
C110 N108 1.375 . S
C110 C109 1.338 . S
C110 H114 0.931 . S
C111 N108 1.313 . S
C111 N112 1.344 . S
C111 H115 0.930 . S
N112 C109 1.377 . S
N112 C111 1.344 . S
O113 Co105 2.055 . S
O113 C117 1.253 . S
H114 C110 0.931 . S
H115 C111 0.930 . S
O116 Co105 2.039 . S
O116 C106 1.265 . S
C117 O113 1.253 . S
C117 O118 1.227 . S
O118 C117 1.227 . S
N119 Co105 2.140 . S
N119 C122 1.346 . S
N119 C123 1.345 . S
C120 C121 1.387 . S
C120 C124 1.391 . S
C121 C120 1.387 . S
C121 C122 1.369 . S
C121 H130 0.929 . S
C122 N119 1.346 . S
C122 C121 1.369 . S
C122 H125 0.928 . S
C123 N119 1.345 . S
C123 C124 1.371 . S
C123 H126 0.931 . S
C124 C120 1.391 . S
C124 C123 1.371 . S
C124 H131 0.930 . S
H125 C122 0.928 . S
H126 C123 0.931 . S
H127 C103 0.930 . S
H128 C100 0.930 . S
H129 C109 0.930 . S
H130 C121 0.929 . S
H131 C124 0.930 . S
C132 C133 1.351 . S
C132 N135 1.368 1_655 S
C132 H137 0.931 . S
C133 C132 1.351 . S
C133 N134 1.373 1_655 S
C133 H161 0.930 . S
N134 C133 1.373 1_455 S
N134 C136 1.340 . S
N135 C132 1.368 1_455 S
N135 C136 1.321 . S
N135 Co138 2.135 . S
C136 N134 1.340 . S
C136 N135 1.321 . S
C136 H160 0.930 . S
H137 C132 0.931 . S
Co138 N135 2.135 . S
Co138 N141 2.121 . S
Co138 O146 2.055 . S
Co138 O149 2.039 . S
Co138 N152 2.140 1_455 S
C139 O140 1.227 . S
C139 O149 1.265 . S
O140 C139 1.227 . S
N141 Co138 2.121 . S
N141 C143 1.375 . S
N141 C144 1.313 . S
C142 C143 1.338 . S
C142 N145 1.377 1_545 S
C142 H162 0.930 1_545 S
C143 N141 1.375 . S
C143 C142 1.338 . S
C143 H147 0.931 . S
C144 N141 1.313 . S
C144 N145 1.344 1_545 S
C144 H148 0.930 . S
N145 C142 1.377 1_565 S
N145 C144 1.344 1_565 S
O146 Co138 2.055 . S
O146 C150 1.253 . S
H147 C143 0.931 . S
H148 C144 0.930 . S
O149 Co138 2.039 . S
O149 C139 1.265 . S
C150 O146 1.253 . S
C150 O151 1.227 1_455 S
O151 C150 1.227 1_655 S
N152 Co138 2.140 1_655 S
N152 C155 1.346 . S
N152 C156 1.345 . S
C153 C154 1.387 . S
C153 C157 1.391 . S
C154 C153 1.387 . S
C154 C155 1.369 . S
C154 H163 0.929 . S
C155 N152 1.346 . S
C155 C154 1.369 . S
C155 H158 0.928 . S
C156 N152 1.345 . S
C156 C157 1.371 . S
C156 H159 0.931 . S
C157 C153 1.391 . S
C157 C156 1.371 . S
C157 H164 0.930 . S
H158 C155 0.928 . S
H159 C156 0.931 . S
H160 C136 0.930 . S
H161 C133 0.930 . S
H162 C142 0.930 1_565 S
H163 C154 0.929 . S
H164 C157 0.930 . S
C165 C166 1.351 . S
C165 N168 1.368 . S
C165 H170 0.931 . S
C166 C165 1.351 . S
C166 N167 1.373 . S
C166 H194 0.930 . S
N167 C166 1.373 . S
N167 C169 1.340 . S
N168 C165 1.368 . S
N168 C169 1.321 . S
N168 Co171 2.135 . S
C169 N167 1.340 . S
C169 N168 1.321 . S
C169 H193 0.930 . S
H170 C165 0.931 . S
Co171 N168 2.135 . S
Co171 N174 2.121 . S
Co171 O179 2.055 . S
Co171 O182 2.039 . S
Co171 N185 2.140 . S
C172 O173 1.227 . S
C172 O182 1.265 . S
O173 C172 1.227 . S
N174 Co171 2.121 . S
N174 C176 1.375 . S
N174 C177 1.313 . S
C175 C176 1.338 . S
C175 N178 1.377 . S
C175 H195 0.930 . S
C176 N174 1.375 . S
C176 C175 1.338 . S
C176 H180 0.931 . S
C177 N174 1.313 . S
C177 N178 1.344 . S
C177 H181 0.930 . S
N178 C175 1.377 . S
N178 C177 1.344 . S
O179 Co171 2.055 . S
O179 C183 1.253 . S
H180 C176 0.931 . S
H181 C177 0.930 . S
O182 Co171 2.039 . S
O182 C172 1.265 . S
C183 O179 1.253 . S
C183 O184 1.227 . S
O184 C183 1.227 . S
N185 Co171 2.140 . S
N185 C188 1.346 . S
N185 C189 1.345 . S
C186 C187 1.387 . S
C186 C190 1.391 . S
C187 C186 1.387 . S
C187 C188 1.369 . S
C187 H196 0.929 . S
C188 N185 1.346 . S
C188 C187 1.369 . S
C188 H191 0.928 . S
C189 N185 1.345 . S
C189 C190 1.371 . S
C189 H192 0.931 . S
C190 C186 1.391 . S
C190 C189 1.371 . S
C190 H197 0.930 . S
H191 C188 0.928 . S
H192 C189 0.931 . S
H193 C169 0.930 . S
H194 C166 0.930 . S
H195 C175 0.930 . S
H196 C187 0.929 . S
H197 C190 0.930 . S
C198 C199 1.351 1_545 S
C198 N201 1.368 . S
C198 H203 0.931 . S
C199 C198 1.351 1_565 S
C199 N200 1.373 . S
C199 H227 0.930 . S
N200 C199 1.373 . S
N200 C202 1.340 . S
N201 C198 1.368 . S
N201 C202 1.321 1_545 S
N201 Co204 2.135 . S
C202 N200 1.340 . S
C202 N201 1.321 1_565 S
C202 H226 0.930 . S
H203 C198 0.931 . S
Co204 N201 2.135 . S
Co204 N207 2.121 . S
Co204 O212 2.055 . S
Co204 O215 2.039 . S
Co204 N218 2.140 . S
C205 O206 1.227 . S
C205 O215 1.265 . S
O206 C205 1.227 . S
N207 Co204 2.121 . S
N207 C209 1.375 . S
N207 C210 1.313 . S
C208 C209 1.338 . S
C208 N211 1.377 . S
C208 H228 0.930 . S
C209 N207 1.375 . S
C209 C208 1.338 . S
C209 H213 0.931 . S
C210 N207 1.313 . S
C210 N211 1.344 . S
C210 H214 0.930 . S
N211 C208 1.377 . S
N211 C210 1.344 . S
O212 Co204 2.055 . S
O212 C216 1.253 . S
H213 C209 0.931 . S
H214 C210 0.930 . S
O215 Co204 2.039 . S
O215 C205 1.265 . S
C216 O212 1.253 . S
C216 O217 1.227 . S
O217 C216 1.227 . S
N218 Co204 2.140 . S
N218 C221 1.346 . S
N218 C222 1.345 . S
C219 C220 1.387 . S
C219 C223 1.391 . S
C220 C219 1.387 . S
C220 C221 1.369 . S
C220 H229 0.929 . S
C221 N218 1.346 . S
C221 C220 1.369 . S
C221 H224 0.928 . S
C222 N218 1.345 . S
C222 C223 1.371 . S
C222 H225 0.931 . S
C223 C219 1.391 . S
C223 C222 1.371 . S
C223 H230 0.930 . S
H224 C221 0.928 . S
H225 C222 0.931 . S
H226 C202 0.930 . S
H227 C199 0.930 . S
H228 C208 0.930 . S
H229 C220 0.929 . S
H230 C223 0.930 . S
C231 C232 1.351 . S
C231 N234 1.368 . S
C231 H236 0.931 . S
C232 C231 1.351 . S
C232 N233 1.373 . S
C232 H260 0.930 . S
N233 C232 1.373 . S
N233 C235 1.340 . S
N234 C231 1.368 . S
N234 C235 1.321 . S
N234 Co237 2.135 . S
C235 N233 1.340 . S
C235 N234 1.321 . S
C235 H259 0.930 . S
H236 C231 0.931 . S
Co237 N234 2.135 . S
Co237 N240 2.121 . S
Co237 O245 2.055 . S
Co237 O248 2.039 . S
Co237 N251 2.140 . S
C238 O239 1.227 . S
C238 O248 1.265 . S
O239 C238 1.227 . S
N240 Co237 2.121 . S
N240 C242 1.375 . S
N240 C243 1.313 . S
C241 C242 1.338 . S
C241 N244 1.377 . S
C241 H261 0.930 . S
C242 N240 1.375 . S
C242 C241 1.338 . S
C242 H246 0.931 . S
C243 N240 1.313 . S
C243 N244 1.344 . S
C243 H247 0.930 . S
N244 C241 1.377 . S
N244 C243 1.344 . S
O245 Co237 2.055 . S
O245 C249 1.253 . S
H246 C242 0.931 . S
H247 C243 0.930 . S
O248 Co237 2.039 . S
O248 C238 1.265 . S
C249 O245 1.253 . S
C249 O250 1.227 . S
O250 C249 1.227 . S
N251 Co237 2.140 . S
N251 C254 1.346 . S
N251 C255 1.345 . S
C252 C253 1.387 . S
C252 C256 1.391 . S
C253 C252 1.387 . S
C253 C254 1.369 . S
C253 H262 0.929 . S
C254 N251 1.346 . S
C254 C253 1.369 . S
C254 H257 0.928 . S
C255 N251 1.345 . S
C255 C256 1.371 . S
C255 H258 0.931 . S
C256 C252 1.391 . S
C256 C255 1.371 . S
C256 H263 0.930 . S
H257 C254 0.928 . S
H258 C255 0.931 . S
H259 C235 0.930 . S
H260 C232 0.930 . S
H261 C241 0.930 . S
H262 C253 0.929 . S
H263 C256 0.930 . S
C264 C265 1.351 . S
C264 N267 1.368 . S
C264 H269 0.931 . S
C265 C264 1.351 . S
C265 N266 1.373 . S
C265 H293 0.930 . S
N266 C265 1.373 . S
N266 C268 1.340 . S
N267 C264 1.368 . S
N267 C268 1.321 . S
N267 Co270 2.135 . S
C268 N266 1.340 . S
C268 N267 1.321 . S
C268 H292 0.930 . S
H269 C264 0.931 . S
Co270 N267 2.135 . S
Co270 N273 2.121 . S
Co270 O278 2.055 . S
Co270 O281 2.039 . S
Co270 N284 2.140 . S
C271 O272 1.227 . S
C271 O281 1.265 . S
O272 C271 1.227 . S
N273 Co270 2.121 . S
N273 C275 1.375 . S
N273 C276 1.313 . S
C274 C275 1.338 . S
C274 N277 1.377 . S
C274 H294 0.930 . S
C275 N273 1.375 . S
C275 C274 1.338 . S
C275 H279 0.931 . S
C276 N273 1.313 . S
C276 N277 1.344 . S
C276 H280 0.930 . S
N277 C274 1.377 . S
N277 C276 1.344 . S
O278 Co270 2.055 . S
O278 C282 1.253 . S
H279 C275 0.931 . S
H280 C276 0.930 . S
O281 Co270 2.039 . S
O281 C271 1.265 . S
C282 O278 1.253 . S
C282 O283 1.227 . S
O283 C282 1.227 . S
N284 Co270 2.140 . S
N284 C287 1.346 . S
N284 C288 1.345 . S
C285 C286 1.387 . S
C285 C289 1.391 . S
C286 C285 1.387 . S
C286 C287 1.369 . S
C286 H295 0.929 . S
C287 N284 1.346 . S
C287 C286 1.369 . S
C287 H290 0.928 . S
C288 N284 1.345 . S
C288 C289 1.371 . S
C288 H291 0.931 . S
C289 C285 1.391 . S
C289 C288 1.371 . S
C289 H296 0.930 . S
H290 C287 0.928 . S
H291 C288 0.931 . S
H292 C268 0.930 . S
H293 C265 0.930 . S
H294 C274 0.930 . S
H295 C286 0.929 . S
H296 C289 0.930 . S
C297 C298 1.351 . S
C297 N300 1.368 . S
C297 H302 0.931 . S
C298 C297 1.351 . S
C298 N299 1.373 . S
C298 H326 0.930 . S
N299 C298 1.373 . S
N299 C301 1.340 . S
N300 C297 1.368 . S
N300 C301 1.321 . S
N300 Co303 2.135 . S
C301 N299 1.340 . S
C301 N300 1.321 . S
C301 H325 0.930 . S
H302 C297 0.931 . S
Co303 N300 2.135 . S
Co303 N306 2.121 . S
Co303 O311 2.055 . S
Co303 O314 2.039 . S
Co303 N317 2.140 . S
C304 O305 1.227 . S
C304 O314 1.265 . S
O305 C304 1.227 . S
N306 Co303 2.121 . S
N306 C308 1.375 . S
N306 C309 1.313 . S
C307 C308 1.338 . S
C307 N310 1.377 . S
C307 H327 0.930 . S
C308 N306 1.375 . S
C308 C307 1.338 . S
C308 H312 0.931 . S
C309 N306 1.313 . S
C309 N310 1.344 . S
C309 H313 0.930 . S
N310 C307 1.377 . S
N310 C309 1.344 . S
O311 Co303 2.055 . S
O311 C315 1.253 . S
H312 C308 0.931 . S
H313 C309 0.930 . S
O314 Co303 2.039 . S
O314 C304 1.265 . S
C315 O311 1.253 . S
C315 O316 1.227 . S
O316 C315 1.227 . S
N317 Co303 2.140 . S
N317 C320 1.346 . S
N317 C321 1.345 . S
C318 C319 1.387 . S
C318 C322 1.391 . S
C319 C318 1.387 . S
C319 C320 1.369 . S
C319 H328 0.929 . S
C320 N317 1.346 . S
C320 C319 1.369 . S
C320 H323 0.928 . S
C321 N317 1.345 . S
C321 C322 1.371 . S
C321 H324 0.931 . S
C322 C318 1.391 . S
C322 C321 1.371 . S
C322 H329 0.930 . S
H323 C320 0.928 . S
H324 C321 0.931 . S
H325 C301 0.930 . S
H326 C298 0.930 . S
H327 C307 0.930 . S
H328 C319 0.929 . S
H329 C322 0.930 . S
C330 C331 1.351 . S
C330 N333 1.368 . S
C330 H335 0.931 . S
C331 C330 1.351 . S
C331 N332 1.373 . S
C331 H359 0.930 . S
N332 C331 1.373 . S
N332 C334 1.340 . S
N333 C330 1.368 . S
N333 C334 1.321 . S
N333 Co336 2.135 . S
C334 N332 1.340 . S
C334 N333 1.321 . S
C334 H358 0.930 . S
H335 C330 0.931 . S
Co336 N333 2.135 . S
Co336 N339 2.121 . S
Co336 O344 2.055 . S
Co336 O347 2.039 . S
Co336 N350 2.140 . S
C337 O338 1.227 . S
C337 O347 1.265 . S
O338 C337 1.227 . S
N339 Co336 2.121 . S
N339 C341 1.375 . S
N339 C342 1.313 . S
C340 C341 1.338 . S
C340 N343 1.377 . S
C340 H360 0.930 . S
C341 N339 1.375 . S
C341 C340 1.338 . S
C341 H345 0.931 . S
C342 N339 1.313 . S
C342 N343 1.344 . S
C342 H346 0.930 . S
N343 C340 1.377 . S
N343 C342 1.344 . S
O344 Co336 2.055 . S
O344 C348 1.253 . S
H345 C341 0.931 . S
H346 C342 0.930 . S
O347 Co336 2.039 . S
O347 C337 1.265 . S
C348 O344 1.253 . S
C348 O349 1.227 . S
O349 C348 1.227 . S
N350 Co336 2.140 . S
N350 C353 1.346 . S
N350 C354 1.345 . S
C351 C352 1.387 . S
C351 C355 1.391 . S
C352 C351 1.387 . S
C352 C353 1.369 . S
C352 H361 0.929 . S
C353 N350 1.346 . S
C353 C352 1.369 . S
C353 H356 0.928 . S
C354 N350 1.345 . S
C354 C355 1.371 . S
C354 H357 0.931 . S
C355 C351 1.391 . S
C355 C354 1.371 . S
C355 H362 0.930 . S
H356 C353 0.928 . S
H357 C354 0.931 . S
H358 C334 0.930 . S
H359 C331 0.930 . S
H360 C340 0.930 . S
H361 C352 0.929 . S
H362 C355 0.930 . S
C363 C364 1.351 . S
C363 N366 1.368 . S
C363 H368 0.931 . S
C364 C363 1.351 . S
C364 N365 1.373 . S
C364 H392 0.930 . S
N365 C364 1.373 . S
N365 C367 1.340 . S
N366 C363 1.368 . S
N366 C367 1.321 . S
N366 Co369 2.135 . S
C367 N365 1.340 . S
C367 N366 1.321 . S
C367 H391 0.930 . S
H368 C363 0.931 . S
Co369 N366 2.135 . S
Co369 N372 2.121 . S
Co369 O377 2.055 . S
Co369 O380 2.039 . S
Co369 N383 2.140 . S
C370 O371 1.227 . S
C370 O380 1.265 . S
O371 C370 1.227 . S
N372 Co369 2.121 . S
N372 C374 1.375 . S
N372 C375 1.313 . S
C373 C374 1.338 . S
C373 N376 1.377 . S
C373 H393 0.930 . S
C374 N372 1.375 . S
C374 C373 1.338 . S
C374 H378 0.931 . S
C375 N372 1.313 . S
C375 N376 1.344 . S
C375 H379 0.930 . S
N376 C373 1.377 . S
N376 C375 1.344 . S
O377 Co369 2.055 . S
O377 C381 1.253 . S
H378 C374 0.931 . S
H379 C375 0.930 . S
O380 Co369 2.039 . S
O380 C370 1.265 . S
C381 O377 1.253 . S
C381 O382 1.227 . S
O382 C381 1.227 . S
N383 Co369 2.140 . S
N383 C386 1.346 . S
N383 C387 1.345 . S
C384 C385 1.387 . S
C384 C388 1.391 . S
C385 C384 1.387 . S
C385 C386 1.369 . S
C385 H394 0.929 . S
C386 N383 1.346 . S
C386 C385 1.369 . S
C386 H389 0.928 . S
C387 N383 1.345 . S
C387 C388 1.371 . S
C387 H390 0.931 . S
C388 C384 1.391 . S
C388 C387 1.371 . S
C388 H395 0.930 . S
H389 C386 0.928 . S
H390 C387 0.931 . S
H391 C367 0.930 . S
H392 C364 0.930 . S
H393 C373 0.930 . S
H394 C385 0.929 . S
H395 C388 0.930 . S
C396 C397 1.351 . S
C396 N399 1.368 . S
C396 H401 0.931 . S
C397 C396 1.351 . S
C397 N398 1.373 . S
C397 H425 0.930 . S
N398 C397 1.373 . S
N398 C400 1.340 . S
N399 C396 1.368 . S
N399 C400 1.321 . S
N399 Co402 2.135 . S
C400 N398 1.340 . S
C400 N399 1.321 . S
C400 H424 0.930 . S
H401 C396 0.931 . S
Co402 N399 2.135 . S
Co402 N405 2.121 . S
Co402 O410 2.055 . S
Co402 O413 2.039 . S
Co402 N416 2.140 . S
C403 O404 1.227 . S
C403 O413 1.265 . S
O404 C403 1.227 . S
N405 Co402 2.121 . S
N405 C407 1.375 . S
N405 C408 1.313 . S
C406 C407 1.338 . S
C406 N409 1.377 . S
C406 H426 0.930 . S
C407 N405 1.375 . S
C407 C406 1.338 . S
C407 H411 0.931 . S
C408 N405 1.313 . S
C408 N409 1.344 . S
C408 H412 0.930 . S
N409 C406 1.377 . S
N409 C408 1.344 . S
O410 Co402 2.055 . S
O410 C414 1.253 . S
H411 C407 0.931 . S
H412 C408 0.930 . S
O413 Co402 2.039 . S
O413 C403 1.265 . S
C414 O410 1.253 . S
C414 O415 1.227 . S
O415 C414 1.227 . S
N416 Co402 2.140 . S
N416 C419 1.346 . S
N416 C420 1.345 . S
C417 C418 1.387 . S
C417 C421 1.391 . S
C418 C417 1.387 . S
C418 C419 1.369 . S
C418 H427 0.929 . S
C419 N416 1.346 . S
C419 C418 1.369 . S
C419 H422 0.928 . S
C420 N416 1.345 . S
C420 C421 1.371 . S
C420 H423 0.931 . S
C421 C417 1.391 . S
C421 C420 1.371 . S
C421 H428 0.930 . S
H422 C419 0.928 . S
H423 C420 0.931 . S
H424 C400 0.930 . S
H425 C397 0.930 . S
H426 C406 0.930 . S
H427 C418 0.929 . S
H428 C421 0.930 . S
C429 C430 1.351 . S
C429 N432 1.368 . S
C429 H434 0.931 . S
C430 C429 1.351 . S
C430 N431 1.373 . S
C430 H458 0.930 . S
N431 C430 1.373 . S
N431 C433 1.340 1_455 S
N432 C429 1.368 . S
N432 C433 1.321 1_455 S
N432 Co435 2.135 . S
C433 N431 1.340 1_655 S
C433 N432 1.321 1_655 S
C433 H457 0.930 . S
H434 C429 0.931 . S
Co435 N432 2.135 . S
Co435 N438 2.121 . S
Co435 O443 2.055 1_455 S
Co435 O446 2.039 1_455 S
Co435 N449 2.140 . S
C436 O437 1.227 . S
C436 O446 1.265 . S
O437 C436 1.227 . S
N438 Co435 2.121 . S
N438 C440 1.375 1_455 S
N438 C441 1.313 . S
C439 C440 1.338 . S
C439 N442 1.377 1_655 S
C439 H459 0.930 . S
C440 N438 1.375 1_655 S
C440 C439 1.338 . S
C440 H444 0.931 . S
C441 N438 1.313 . S
C441 N442 1.344 . S
C441 H445 0.930 . S
N442 C439 1.377 1_455 S
N442 C441 1.344 . S
O443 Co435 2.055 1_655 S
O443 C447 1.253 1_655 S
H444 C440 0.931 . S
H445 C441 0.930 . S
O446 Co435 2.039 1_655 S
O446 C436 1.265 . S
C447 O443 1.253 1_455 S
C447 O448 1.227 . S
O448 C447 1.227 . S
N449 Co435 2.140 . S
N449 C452 1.346 . S
N449 C453 1.345 . S
C450 C451 1.387 . S
C450 C454 1.391 . S
C451 C450 1.387 . S
C451 C452 1.369 . S
C451 H460 0.929 . S
C452 N449 1.346 . S
C452 C451 1.369 . S
C452 H455 0.928 . S
C453 N449 1.345 . S
C453 C454 1.371 . S
C453 H456 0.931 . S
C454 C450 1.391 . S
C454 C453 1.371 . S
C454 H461 0.930 . S
H455 C452 0.928 . S
H456 C453 0.931 . S
H457 C433 0.930 . S
H458 C430 0.930 . S
H459 C439 0.930 . S
H460 C451 0.929 . S
H461 C454 0.930 . S
C462 C463 1.351 . S
C462 N465 1.368 . S
C462 H467 0.931 . S
C463 C462 1.351 . S
C463 N464 1.373 . S
C463 H491 0.930 . S
N464 C463 1.373 . S
N464 C466 1.340 . S
N465 C462 1.368 . S
N465 C466 1.321 . S
N465 Co468 2.135 . S
C466 N464 1.340 . S
C466 N465 1.321 . S
C466 H490 0.930 . S
H467 C462 0.931 . S
Co468 N465 2.135 . S
Co468 N471 2.121 . S
Co468 O476 2.055 . S
Co468 O479 2.039 . S
Co468 N482 2.140 . S
C469 O470 1.227 . S
C469 O479 1.265 . S
O470 C469 1.227 . S
N471 Co468 2.121 . S
N471 C473 1.375 . S
N471 C474 1.313 . S
C472 C473 1.338 . S
C472 N475 1.377 . S
C472 H492 0.930 . S
C473 N471 1.375 . S
C473 C472 1.338 . S
C473 H477 0.931 . S
C474 N471 1.313 . S
C474 N475 1.344 . S
C474 H478 0.930 . S
N475 C472 1.377 . S
N475 C474 1.344 . S
O476 Co468 2.055 . S
O476 C480 1.253 . S
H477 C473 0.931 . S
H478 C474 0.930 . S
O479 Co468 2.039 . S
O479 C469 1.265 . S
C480 O476 1.253 . S
C480 O481 1.227 . S
O481 C480 1.227 . S
N482 Co468 2.140 . S
N482 C485 1.346 . S
N482 C486 1.345 . S
C483 C484 1.387 . S
C483 C487 1.391 . S
C484 C483 1.387 . S
C484 C485 1.369 . S
C484 H493 0.929 . S
C485 N482 1.346 . S
C485 C484 1.369 . S
C485 H488 0.928 . S
C486 N482 1.345 . S
C486 C487 1.371 . S
C486 H489 0.931 . S
C487 C483 1.391 . S
C487 C486 1.371 . S
C487 H494 0.930 . S
H488 C485 0.928 . S
H489 C486 0.931 . S
H490 C466 0.930 . S
H491 C463 0.930 . S
H492 C472 0.930 . S
H493 C484 0.929 . S
H494 C487 0.930 . S
C495 C496 1.351 . S
C495 N498 1.368 . S
C495 H500 0.931 . S
C496 C495 1.351 . S
C496 N497 1.373 . S
C496 H524 0.930 . S
N497 C496 1.373 . S
N497 C499 1.340 1_455 S
N498 C495 1.368 . S
N498 C499 1.321 1_455 S
N498 Co501 2.135 . S
C499 N497 1.340 1_655 S
C499 N498 1.321 1_655 S
C499 H523 0.930 . S
H500 C495 0.931 . S
Co501 N498 2.135 . S
Co501 N504 2.121 . S
Co501 O509 2.055 1_455 S
Co501 O512 2.039 1_455 S
Co501 N515 2.140 . S
C502 O503 1.227 . S
C502 O512 1.265 . S
O503 C502 1.227 . S
N504 Co501 2.121 . S
N504 C506 1.375 1_455 S
N504 C507 1.313 . S
C505 C506 1.341 . S
C505 N508 1.370 1_655 S
C505 H525 0.934 . S
C506 N504 1.375 1_655 S
C506 C505 1.341 . S
C506 H510 0.931 . S
C507 N504 1.313 . S
C507 N508 1.344 . S
C507 H511 0.930 . S
N508 C505 1.370 1_455 S
N508 C507 1.344 . S
O509 Co501 2.055 1_655 S
O509 C513 1.253 1_655 S
H510 C506 0.931 . S
H511 C507 0.930 . S
O512 Co501 2.039 1_655 S
O512 C502 1.265 . S
C513 O509 1.253 1_455 S
C513 O514 1.227 . S
O514 C513 1.227 . S
N515 Co501 2.140 . S
N515 C518 1.346 . S
N515 C519 1.345 . S
C516 C517 1.387 . S
C516 C520 1.391 . S
C517 C516 1.387 . S
C517 C518 1.369 . S
C517 H526 0.929 . S
C518 N515 1.346 . S
C518 C517 1.369 . S
C518 H521 0.928 . S
C519 N515 1.345 . S
C519 C520 1.371 . S
C519 H522 0.931 . S
C520 C516 1.391 . S
C520 C519 1.371 . S
C520 H527 0.930 . S
H521 C518 0.928 . S
H522 C519 0.931 . S
H523 C499 0.930 . S
H524 C496 0.930 . S
H525 C505 0.934 . S
H526 C517 0.929 . S
H527 C520 0.930 . S
H528 C546 0.951 . S
H529 C548 0.951 . S
H530 C550 0.950 . S
H531 C551 0.950 . S
H532 C553 0.950 . S
H533 C556 0.950 . S
H534 C557 0.950 . S
H535 C559 0.950 . S
H536 C560 0.950 . S
H537 C561 0.951 . S
H538 C563 0.951 . S
H539 C565 0.950 . S
H540 C566 0.950 . S
H541 C568 0.950 . S
H542 C571 0.950 . S
H543 C572 0.950 . S
H544 C574 0.950 1_655 S
H545 C575 0.950 1_655 S
C546 H528 0.951 . S
C546 C547 1.366 . S
C546 C548 1.388 . S
C547 C546 1.366 . S
C547 C551 1.385 1_455 S
C548 H529 0.951 . S
C548 C546 1.388 . S
C548 C549 1.366 . S
C549 C548 1.366 . S
C549 C550 1.414 1_455 S
C549 C552 1.499 . S
C550 H530 0.950 . S
C550 C549 1.414 1_655 S
C550 C551 1.374 . S
C551 H531 0.950 . S
C551 C547 1.385 1_655 S
C551 C550 1.374 . S
C552 C549 1.499 . S
C552 C553 1.373 . S
C552 C554 1.389 . S
C553 H532 0.950 . S
C553 C552 1.373 . S
C553 C569 1.377 . S
C554 C552 1.389 . S
C554 C555 1.524 . S
C554 C568 1.377 . S
C555 C554 1.524 . S
C555 C556 1.397 1_455 S
C555 C560 1.363 . S
C556 H533 0.950 . S
C556 C555 1.397 1_655 S
C556 C557 1.334 . S
C557 H534 0.950 . S
C557 C556 1.334 . S
C557 C558 1.287 . S
C558 C557 1.287 . S
C558 C559 1.524 1_655 S
C558 H577 0.913 . S
C559 H535 0.950 . S
C559 C558 1.524 1_455 S
C559 C560 1.415 . S
C560 H536 0.950 . S
C560 C555 1.363 . S
C560 C559 1.415 . S
C561 H537 0.951 . S
C561 C562 1.366 1_655 S
C561 C563 1.388 . S
C562 C561 1.366 1_455 S
C562 C566 1.385 . S
C563 H538 0.951 . S
C563 C561 1.388 . S
C563 C564 1.366 1_655 S
C564 C563 1.366 1_455 S
C564 C565 1.414 . S
C564 C567 1.499 . S
C565 H539 0.950 . S
C565 C564 1.414 . S
C565 C566 1.374 . S
C566 H540 0.950 . S
C566 C562 1.385 . S
C566 C565 1.374 . S
C567 C564 1.499 . S
C567 C568 1.373 . S
C567 C569 1.389 . S
C568 H541 0.950 . S
C568 C554 1.377 . S
C568 C567 1.373 . S
C569 C553 1.377 . S
C569 C567 1.389 . S
C569 C570 1.524 . S
C570 C569 1.524 . S
C570 C571 1.397 . S
C570 C575 1.363 . S
C571 H542 0.950 . S
C571 C570 1.397 . S
C571 C572 1.334 . S
C572 H543 0.950 . S
C572 C571 1.334 . S
C572 C573 1.287 . S
C573 C572 1.287 . S
C573 C574 1.524 . S
C573 H576 0.999 . S
C574 H544 0.950 1_455 S
C574 C573 1.524 . S
C574 C575 1.415 . S
C575 H545 0.950 1_455 S
C575 C570 1.363 . S
C575 C574 1.415 . S
H576 C573 0.999 . S
H577 C558 0.913 . S
H578 C596 0.951 . S
H579 C598 0.951 . S
H580 C600 0.950 . S
H581 C601 0.950 . S
H582 C603 0.950 . S
H583 C606 0.950 . S
H584 C607 0.950 . S
H585 C609 0.950 . S
H586 C610 0.950 . S
H587 C611 0.951 . S
H588 C613 0.951 . S
H589 C615 0.950 . S
H590 C616 0.950 . S
H591 C618 0.950 . S
H592 C621 0.950 . S
H593 C622 0.950 . S
H594 C624 0.950 . S
H595 C625 0.950 1_455 S
C596 H578 0.951 . S
C596 C597 1.366 . S
C596 C598 1.388 . S
C597 C596 1.366 . S
C597 C601 1.385 . S
C598 H579 0.951 . S
C598 C596 1.388 . S
C598 C599 1.366 . S
C599 C598 1.366 . S
C599 C600 1.414 . S
C599 C602 1.499 . S
C600 H580 0.950 . S
C600 C599 1.414 . S
C600 C601 1.374 . S
C601 H581 0.950 . S
C601 C597 1.385 . S
C601 C600 1.374 . S
C602 C599 1.499 . S
C602 C603 1.373 . S
C602 C604 1.389 . S
C603 H582 0.950 . S
C603 C602 1.373 . S
C603 C619 1.377 1_455 S
C604 C602 1.389 . S
C604 C605 1.524 . S
C604 C618 1.377 1_455 S
C605 C604 1.524 . S
C605 C606 1.397 . S
C605 C610 1.363 . S
C606 H583 0.950 . S
C606 C605 1.397 . S
C606 C607 1.334 . S
C607 H584 0.950 . S
C607 C606 1.334 . S
C607 C608 1.287 . S
C608 C607 1.287 . S
C608 C609 1.524 . S
C608 H627 0.913 . S
C609 H585 0.950 . S
C609 C608 1.524 . S
C609 C610 1.415 . S
C610 H586 0.950 . S
C610 C605 1.363 . S
C610 C609 1.415 . S
C611 H587 0.951 . S
C611 C612 1.366 . S
C611 C613 1.388 . S
C612 C611 1.366 . S
C612 C616 1.385 . S
C613 H588 0.951 . S
C613 C611 1.388 . S
C613 C614 1.366 . S
C614 C613 1.366 . S
C614 C615 1.414 . S
C614 C617 1.499 . S
C615 H589 0.950 . S
C615 C614 1.414 . S
C615 C616 1.374 . S
C616 H590 0.950 . S
C616 C612 1.385 . S
C616 C615 1.374 . S
C617 C614 1.499 . S
C617 C618 1.373 . S
C617 C619 1.389 . S
C618 H591 0.950 . S
C618 C604 1.377 1_655 S
C618 C617 1.373 . S
C619 C603 1.377 1_655 S
C619 C617 1.389 . S
C619 C620 1.524 . S
C620 C619 1.524 . S
C620 C621 1.397 . S
C620 C625 1.363 . S
C621 H592 0.950 . S
C621 C620 1.397 . S
C621 C622 1.334 . S
C622 H593 0.950 . S
C622 C621 1.334 . S
C622 C623 1.287 . S
C623 C622 1.287 . S
C623 C624 1.524 . S
C623 H626 0.999 . S
C624 H594 0.950 . S
C624 C623 1.524 . S
C624 C625 1.415 . S
C625 H595 0.950 1_655 S
C625 C620 1.363 . S
C625 C624 1.415 . S
H626 C623 0.999 . S
H627 C608 0.913 . S
H628 C646 0.951 . S
H629 C648 0.951 . S
H630 C650 0.950 . S
H631 C651 0.950 . S
H632 C653 0.950 . S
H633 C656 0.950 . S
H634 C657 0.950 . S
H635 C659 0.950 . S
H636 C660 0.950 . S
H637 C661 0.951 . S
H638 C663 0.951 . S
H639 C665 0.950 . S
H640 C666 0.950 . S
H641 C668 0.950 . S
H642 C671 0.950 . S
H643 C672 0.950 . S
H644 C674 0.950 . S
H645 C675 0.950 . S
C646 H628 0.951 . S
C646 C647 1.366 . S
C646 C648 1.388 . S
C647 C646 1.366 . S
C647 C651 1.385 . S
C648 H629 0.951 . S
C648 C646 1.388 . S
C648 C649 1.366 . S
C649 C648 1.366 . S
C649 C650 1.414 . S
C649 C652 1.499 . S
C650 H630 0.950 . S
C650 C649 1.414 . S
C650 C651 1.374 . S
C651 H631 0.950 . S
C651 C647 1.385 . S
C651 C650 1.374 . S
C652 C649 1.499 . S
C652 C653 1.373 . S
C652 C654 1.389 . S
C653 H632 0.950 . S
C653 C652 1.373 . S
C653 C669 1.377 . S
C654 C652 1.389 . S
C654 C655 1.524 . S
C654 C668 1.377 . S
C655 C654 1.524 . S
C655 C656 1.397 . S
C655 C660 1.363 . S
C656 H633 0.950 . S
C656 C655 1.397 . S
C656 C657 1.334 . S
C657 H634 0.950 . S
C657 C656 1.334 . S
C657 C658 1.287 . S
C658 C657 1.287 . S
C658 C659 1.524 . S
C658 H677 0.913 . S
C659 H635 0.950 . S
C659 C658 1.524 . S
C659 C660 1.415 . S
C660 H636 0.950 . S
C660 C655 1.363 . S
C660 C659 1.415 . S
C661 H637 0.951 . S
C661 C662 1.366 . S
C661 C663 1.388 . S
C662 C661 1.366 . S
C662 C666 1.385 . S
C663 H638 0.951 . S
C663 C661 1.388 . S
C663 C664 1.366 . S
C664 C663 1.366 . S
C664 C665 1.414 . S
C664 C667 1.499 . S
C665 H639 0.950 . S
C665 C664 1.414 . S
C665 C666 1.374 . S
C666 H640 0.950 . S
C666 C662 1.385 . S
C666 C665 1.374 . S
C667 C664 1.499 . S
C667 C668 1.373 . S
C667 C669 1.389 . S
C668 H641 0.950 . S
C668 C654 1.377 . S
C668 C667 1.373 . S
C669 C653 1.377 . S
C669 C667 1.389 . S
C669 C670 1.524 . S
C670 C669 1.524 . S
C670 C671 1.397 . S
C670 C675 1.363 . S
C671 H642 0.950 . S
C671 C670 1.397 . S
C671 C672 1.334 . S
C672 H643 0.950 . S
C672 C671 1.334 . S
C672 C673 1.287 . S
C673 C672 1.287 . S
C673 C674 1.524 . S
C673 H676 0.999 . S
C674 H644 0.950 . S
C674 C673 1.524 . S
C674 C675 1.415 . S
C675 H645 0.950 . S
C675 C670 1.363 . S
C675 C674 1.415 . S
H676 C673 0.999 . S
H677 C658 0.913 . S
H678 C696 0.951 . S
H679 C698 0.951 . S
H680 C700 0.950 . S
H681 C701 0.950 . S
H682 C703 0.950 . S
H683 C706 0.950 . S
H684 C707 0.950 . S
H685 C709 0.950 . S
H686 C710 0.950 . S
H687 C711 0.951 . S
H688 C713 0.951 . S
H689 C715 0.950 . S
H690 C716 0.950 . S
H691 C718 0.950 . S
H692 C721 0.950 . S
H693 C722 0.950 . S
H694 C724 0.950 . S
H695 C725 0.950 . S
C696 H678 0.951 . S
C696 C697 1.366 . S
C696 C698 1.388 . S
C697 C696 1.366 . S
C697 C701 1.385 . S
C698 H679 0.951 . S
C698 C696 1.388 . S
C698 C699 1.366 . S
C699 C698 1.366 . S
C699 C700 1.414 . S
C699 C702 1.499 . S
C700 H680 0.950 . S
C700 C699 1.414 . S
C700 C701 1.374 . S
C701 H681 0.950 . S
C701 C697 1.385 . S
C701 C700 1.374 . S
C702 C699 1.499 . S
C702 C703 1.373 . S
C702 C704 1.389 . S
C703 H682 0.950 . S
C703 C702 1.373 . S
C703 C719 1.377 . S
C704 C702 1.389 . S
C704 C705 1.524 . S
C704 C718 1.377 . S
C705 C704 1.524 . S
C705 C706 1.397 . S
C705 C710 1.363 . S
C706 H683 0.950 . S
C706 C705 1.397 . S
C706 C707 1.334 . S
C707 H684 0.950 . S
C707 C706 1.334 . S
C707 C708 1.287 . S
C708 C707 1.287 . S
C708 C709 1.524 . S
C708 H727 0.913 . S
C709 H685 0.950 . S
C709 C708 1.524 . S
C709 C710 1.415 . S
C710 H686 0.950 . S
C710 C705 1.363 . S
C710 C709 1.415 . S
C711 H687 0.951 . S
C711 C712 1.366 . S
C711 C713 1.388 . S
C712 C711 1.366 . S
C712 C716 1.385 . S
C713 H688 0.951 . S
C713 C711 1.388 . S
C713 C714 1.366 . S
C714 C713 1.366 . S
C714 C715 1.414 . S
C714 C717 1.499 . S
C715 H689 0.950 . S
C715 C714 1.414 . S
C715 C716 1.374 . S
C716 H690 0.950 . S
C716 C712 1.385 . S
C716 C715 1.374 . S
C717 C714 1.499 . S
C717 C718 1.373 . S
C717 C719 1.389 . S
C718 H691 0.950 . S
C718 C704 1.377 . S
C718 C717 1.373 . S
C719 C703 1.377 . S
C719 C717 1.389 . S
C719 C720 1.524 . S
C720 C719 1.524 . S
C720 C721 1.397 . S
C720 C725 1.363 . S
C721 H692 0.950 . S
C721 C720 1.397 . S
C721 C722 1.334 . S
C722 H693 0.950 . S
C722 C721 1.334 . S
C722 C723 1.287 . S
C723 C722 1.287 . S
C723 C724 1.524 . S
C723 H726 0.999 . S
C724 H694 0.950 . S
C724 C723 1.524 . S
C724 C725 1.415 . S
C725 H695 0.950 . S
C725 C720 1.363 . S
C725 C724 1.415 . S
H726 C723 0.999 . S
H727 C708 0.913 . S
H728 C746 0.951 . S
H729 C748 0.951 . S
H730 C750 0.950 . S
H731 C751 0.950 . S
H732 C753 0.950 . S
H733 C756 0.950 1_455 S
H734 C757 0.950 . S
H735 C759 0.950 . S
H736 C760 0.950 . S
H737 C761 0.951 . S
H738 C763 0.951 . S
H739 C765 0.950 . S
H740 C766 0.950 . S
H741 C768 0.950 . S
H742 C771 0.950 . S
H743 C772 0.950 . S
H744 C774 0.950 . S
H745 C775 0.950 . S
C746 H728 0.951 . S
C746 C747 1.366 1_655 S
C746 C748 1.388 . S
C747 C746 1.366 1_455 S
C747 C751 1.385 . S
C748 H729 0.951 . S
C748 C746 1.388 . S
C748 C749 1.366 1_655 S
C749 C748 1.366 1_455 S
C749 C750 1.414 . S
C749 C752 1.499 . S
C750 H730 0.950 . S
C750 C749 1.414 . S
C750 C751 1.374 . S
C751 H731 0.950 . S
C751 C747 1.385 . S
C751 C750 1.374 . S
C752 C749 1.499 . S
C752 C753 1.373 . S
C752 C754 1.389 1_455 S
C753 H732 0.950 . S
C753 C752 1.373 . S
C753 C769 1.377 . S
C754 C752 1.389 1_655 S
C754 C755 1.524 . S
C754 C768 1.377 . S
C755 C754 1.524 . S
C755 C756 1.397 . S
C755 C760 1.363 . S
C756 H733 0.950 1_655 S
C756 C755 1.397 . S
C756 C757 1.334 . S
C757 H734 0.950 . S
C757 C756 1.334 . S
C757 C758 1.287 . S
C758 C757 1.287 . S
C758 C759 1.524 . S
C758 H777 0.913 . S
C759 H735 0.950 . S
C759 C758 1.524 . S
C759 C760 1.415 . S
C760 H736 0.950 . S
C760 C755 1.363 . S
C760 C759 1.415 . S
C761 H737 0.951 . S
C761 C762 1.366 . S
C761 C763 1.388 . S
C762 C761 1.366 . S
C762 C766 1.385 1_455 S
C763 H738 0.951 . S
C763 C761 1.388 . S
C763 C764 1.366 . S
C764 C763 1.366 . S
C764 C765 1.414 1_455 S
C764 C767 1.499 . S
C765 H739 0.950 . S
C765 C764 1.414 1_655 S
C765 C766 1.374 . S
C766 H740 0.950 . S
C766 C762 1.385 1_655 S
C766 C765 1.374 . S
C767 C764 1.499 . S
C767 C768 1.373 1_455 S
C767 C769 1.389 . S
C768 H741 0.950 . S
C768 C754 1.377 . S
C768 C767 1.373 1_655 S
C769 C753 1.377 . S
C769 C767 1.389 . S
C769 C770 1.524 . S
C770 C769 1.524 . S
C770 C771 1.397 . S
C770 C775 1.363 . S
C771 H742 0.950 . S
C771 C770 1.397 . S
C771 C772 1.334 . S
C772 H743 0.950 . S
C772 C771 1.334 . S
C772 C773 1.287 . S
C773 C772 1.287 . S
C773 C774 1.524 . S
C773 H776 0.999 . S
C774 H744 0.950 . S
C774 C773 1.524 . S
C774 C775 1.415 . S
C775 H745 0.950 . S
C775 C770 1.363 . S
C775 C774 1.415 . S
H776 C773 0.999 . S
H777 C758 0.913 . S
H778 C796 0.951 . S
H779 C798 0.951 . S
H780 C800 0.950 . S
H781 C801 0.950 . S
H782 C803 0.950 . S
H783 C806 0.950 . S
H784 C807 0.950 . S
H785 C809 0.950 . S
H786 C810 0.950 . S
H787 C811 0.951 . S
H788 C813 0.951 . S
H789 C815 0.950 . S
H790 C816 0.950 . S
H791 C818 0.950 . S
H792 C821 0.950 . S
H793 C822 0.950 . S
H794 C824 0.950 . S
H795 C825 0.950 . S
C796 H778 0.951 . S
C796 C797 1.366 . S
C796 C798 1.388 . S
C797 C796 1.366 . S
C797 C801 1.385 . S
C798 H779 0.951 . S
C798 C796 1.388 . S
C798 C799 1.366 . S
C799 C798 1.366 . S
C799 C800 1.414 . S
C799 C802 1.499 . S
C800 H780 0.950 . S
C800 C799 1.414 . S
C800 C801 1.374 . S
C801 H781 0.950 . S
C801 C797 1.385 . S
C801 C800 1.374 . S
C802 C799 1.499 . S
C802 C803 1.373 . S
C802 C804 1.389 . S
C803 H782 0.950 . S
C803 C802 1.373 . S
C803 C819 1.377 . S
C804 C802 1.389 . S
C804 C805 1.524 . S
C804 C818 1.377 . S
C805 C804 1.524 . S
C805 C806 1.397 . S
C805 C810 1.363 . S
C806 H783 0.950 . S
C806 C805 1.397 . S
C806 C807 1.334 . S
C807 H784 0.950 . S
C807 C806 1.334 . S
C807 C808 1.287 . S
C808 C807 1.287 . S
C808 C809 1.524 . S
C808 H827 0.913 . S
C809 H785 0.950 . S
C809 C808 1.524 . S
C809 C810 1.415 . S
C810 H786 0.950 . S
C810 C805 1.363 . S
C810 C809 1.415 . S
C811 H787 0.951 . S
C811 C812 1.366 . S
C811 C813 1.388 . S
C812 C811 1.366 . S
C812 C816 1.385 . S
C813 H788 0.951 . S
C813 C811 1.388 . S
C813 C814 1.366 . S
C814 C813 1.366 . S
C814 C815 1.414 . S
C814 C817 1.499 . S
C815 H789 0.950 . S
C815 C814 1.414 . S
C815 C816 1.374 . S
C816 H790 0.950 . S
C816 C812 1.385 . S
C816 C815 1.374 . S
C817 C814 1.499 . S
C817 C818 1.373 . S
C817 C819 1.389 . S
C818 H791 0.950 . S
C818 C804 1.377 . S
C818 C817 1.373 . S
C819 C803 1.377 . S
C819 C817 1.389 . S
C819 C820 1.524 . S
C820 C819 1.524 . S
C820 C821 1.397 . S
C820 C825 1.363 . S
C821 H792 0.950 . S
C821 C820 1.397 . S
C821 C822 1.334 . S
C822 H793 0.950 . S
C822 C821 1.334 . S
C822 C823 1.287 . S
C823 C822 1.287 . S
C823 C824 1.524 . S
C823 H826 0.999 . S
C824 H794 0.950 . S
C824 C823 1.524 . S
C824 C825 1.415 . S
C825 H795 0.950 . S
C825 C820 1.363 . S
C825 C824 1.415 . S
H826 C823 0.999 . S
H827 C808 0.913 . S
H828 C846 0.951 . S
H829 C848 0.951 . S
H830 C850 0.950 . S
H831 C851 0.950 . S
H832 C853 0.950 . S
H833 C856 0.950 . S
H834 C857 0.950 . S
H835 C859 0.950 . S
H836 C860 0.950 . S
H837 C861 0.951 . S
H838 C863 0.951 . S
H839 C865 0.950 . S
H840 C866 0.950 . S
H841 C868 0.950 . S
H842 C871 0.950 . S
H843 C872 0.950 . S
H844 C874 0.950 . S
H845 C875 0.950 . S
C846 H828 0.951 . S
C846 C847 1.366 . S
C846 C848 1.388 . S
C847 C846 1.366 . S
C847 C851 1.385 . S
C848 H829 0.951 . S
C848 C846 1.388 . S
C848 C849 1.366 . S
C849 C848 1.366 . S
C849 C850 1.414 . S
C849 C852 1.499 . S
C850 H830 0.950 . S
C850 C849 1.414 . S
C850 C851 1.374 . S
C851 H831 0.950 . S
C851 C847 1.385 . S
C851 C850 1.374 . S
C852 C849 1.499 . S
C852 C853 1.373 . S
C852 C854 1.389 . S
C853 H832 0.950 . S
C853 C852 1.373 . S
C853 C869 1.377 . S
C854 C852 1.389 . S
C854 C855 1.524 . S
C854 C868 1.377 . S
C855 C854 1.524 . S
C855 C856 1.397 . S
C855 C860 1.363 . S
C856 H833 0.950 . S
C856 C855 1.397 . S
C856 C857 1.334 . S
C857 H834 0.950 . S
C857 C856 1.334 . S
C857 C858 1.287 . S
C858 C857 1.287 . S
C858 C859 1.524 . S
C858 H877 0.913 . S
C859 H835 0.950 . S
C859 C858 1.524 . S
C859 C860 1.415 . S
C860 H836 0.950 . S
C860 C855 1.363 . S
C860 C859 1.415 . S
C861 H837 0.951 . S
C861 C862 1.366 . S
C861 C863 1.388 . S
C862 C861 1.366 . S
C862 C866 1.385 . S
C863 H838 0.951 . S
C863 C861 1.388 . S
C863 C864 1.366 . S
C864 C863 1.366 . S
C864 C865 1.414 . S
C864 C867 1.499 . S
C865 H839 0.950 . S
C865 C864 1.414 . S
C865 C866 1.374 . S
C866 H840 0.950 . S
C866 C862 1.385 . S
C866 C865 1.374 . S
C867 C864 1.499 . S
C867 C868 1.373 . S
C867 C869 1.389 . S
C868 H841 0.950 . S
C868 C854 1.377 . S
C868 C867 1.373 . S
C869 C853 1.377 . S
C869 C867 1.389 . S
C869 C870 1.524 . S
C870 C869 1.524 . S
C870 C871 1.397 . S
C870 C875 1.363 . S
C871 H842 0.950 . S
C871 C870 1.397 . S
C871 C872 1.334 . S
C872 H843 0.950 . S
C872 C871 1.334 . S
C872 C873 1.287 . S
C873 C872 1.287 . S
C873 C874 1.524 . S
C873 H876 0.999 . S
C874 H844 0.950 . S
C874 C873 1.524 . S
C874 C875 1.415 . S
C875 H845 0.950 . S
C875 C870 1.363 . S
C875 C874 1.415 . S
H876 C873 0.999 . S
H877 C858 0.913 . S
H878 C896 0.951 . S
H879 C898 0.951 . S
H880 C900 0.950 . S
H881 C901 0.950 . S
H882 C903 0.950 . S
H883 C906 0.950 . S
H884 C907 0.950 . S
H885 C909 0.950 . S
H886 C910 0.950 1_455 S
H887 C911 0.951 . S
H888 C913 0.951 . S
H889 C915 0.950 . S
H890 C916 0.950 . S
H891 C918 0.950 . S
H892 C921 0.950 . S
H893 C922 0.950 . S
H894 C924 0.950 . S
H895 C925 0.950 . S
C896 H878 0.951 . S
C896 C897 1.366 . S
C896 C898 1.388 . S
C897 C896 1.366 . S
C897 C901 1.385 . S
C898 H879 0.951 . S
C898 C896 1.388 . S
C898 C899 1.366 . S
C899 C898 1.366 . S
C899 C900 1.414 . S
C899 C902 1.499 . S
C900 H880 0.950 . S
C900 C899 1.414 . S
C900 C901 1.374 . S
C901 H881 0.950 . S
C901 C897 1.385 . S
C901 C900 1.374 . S
C902 C899 1.499 . S
C902 C903 1.373 . S
C902 C904 1.389 1_655 S
C903 H882 0.950 . S
C903 C902 1.373 . S
C903 C919 1.377 1_655 S
C904 C902 1.389 1_455 S
C904 C905 1.524 1_455 S
C904 C918 1.377 . S
C905 C904 1.524 1_655 S
C905 C906 1.397 . S
C905 C910 1.363 . S
C906 H883 0.950 . S
C906 C905 1.397 . S
C906 C907 1.334 . S
C907 H884 0.950 . S
C907 C906 1.334 . S
C907 C908 1.287 . S
C908 C907 1.287 . S
C908 C909 1.524 . S
C908 H927 0.913 . S
C909 H885 0.950 . S
C909 C908 1.524 . S
C909 C910 1.415 . S
C910 H886 0.950 1_655 S
C910 C905 1.363 . S
C910 C909 1.415 . S
C911 H887 0.951 . S
C911 C912 1.366 . S
C911 C913 1.388 . S
C912 C911 1.366 . S
C912 C916 1.385 . S
C913 H888 0.951 . S
C913 C911 1.388 . S
C913 C914 1.366 . S
C914 C913 1.366 . S
C914 C915 1.414 . S
C914 C917 1.499 . S
C915 H889 0.950 . S
C915 C914 1.414 . S
C915 C916 1.374 . S
C916 H890 0.950 . S
C916 C912 1.385 . S
C916 C915 1.374 . S
C917 C914 1.499 . S
C917 C918 1.373 . S
C917 C919 1.389 . S
C918 H891 0.950 . S
C918 C904 1.377 . S
C918 C917 1.373 . S
C919 C903 1.377 1_455 S
C919 C917 1.389 . S
C919 C920 1.524 . S
C920 C919 1.524 . S
C920 C921 1.397 . S
C920 C925 1.363 . S
C921 H892 0.950 . S
C921 C920 1.397 . S
C921 C922 1.334 . S
C922 H893 0.950 . S
C922 C921 1.334 . S
C922 C923 1.287 . S
C923 C922 1.287 . S
C923 C924 1.524 . S
C923 H926 0.999 . S
C924 H894 0.950 . S
C924 C923 1.524 . S
C924 C925 1.415 . S
C925 H895 0.950 . S
C925 C920 1.363 . S
C925 C924 1.415 . S
H926 C923 0.999 . S
H927 C908 0.913 . S
H928 C946 0.951 . S
H929 C948 0.951 . S
H930 C950 0.950 . S
H931 C951 0.950 . S
H932 C953 0.950 . S
H933 C956 0.950 . S
H934 C957 0.950 . S
H935 C959 0.950 . S
H936 C960 0.950 . S
H937 C961 0.951 . S
H938 C963 0.951 . S
H939 C965 0.950 . S
H940 C966 0.950 . S
H941 C968 0.950 . S
H942 C971 0.950 1_655 S
H943 C972 0.950 1_655 S
H944 C974 0.950 . S
H945 C975 0.950 . S
C946 H928 0.951 . S
C946 C947 1.366 1_655 S
C946 C948 1.388 . S
C947 C946 1.366 1_455 S
C947 C951 1.385 . S
C948 H929 0.951 . S
C948 C946 1.388 . S
C948 C949 1.366 1_655 S
C949 C948 1.366 1_455 S
C949 C950 1.414 . S
C949 C952 1.499 . S
C950 H930 0.950 . S
C950 C949 1.414 . S
C950 C951 1.374 . S
C951 H931 0.950 . S
C951 C947 1.385 . S
C951 C950 1.374 . S
C952 C949 1.499 . S
C952 C953 1.373 . S
C952 C954 1.397 . S
C953 H932 0.950 . S
C953 C952 1.373 . S
C953 C969 1.377 1_554 S
C954 C952 1.397 . S
C954 C955 1.520 1_455 S
C954 C968 1.375 1_454 S
C955 C954 1.520 1_655 S
C955 C956 1.397 1_655 S
C955 C960 1.363 . S
C956 H933 0.950 . S
C956 C955 1.397 1_455 S
C956 C957 1.334 1_545 S
C957 H934 0.950 . S
C957 C956 1.334 1_565 S
C957 C958 1.287 1_455 S
C958 C957 1.287 1_655 S
C958 C959 1.524 . S
C958 H977 0.913 . S
C959 H935 0.950 . S
C959 C958 1.524 . S
C959 C960 1.415 1_565 S
C960 H936 0.950 . S
C960 C955 1.363 . S
C960 C959 1.415 1_545 S
C961 H937 0.951 . S
C961 C962 1.366 . S
C961 C963 1.388 . S
C962 C961 1.366 . S
C962 C966 1.385 1_455 S
C963 H938 0.951 . S
C963 C961 1.388 . S
C963 C964 1.366 . S
C964 C963 1.366 . S
C964 C965 1.414 1_455 S
C964 C967 1.499 . S
C965 H939 0.950 . S
C965 C964 1.414 1_655 S
C965 C966 1.374 . S
C966 H940 0.950 . S
C966 C962 1.385 1_655 S
C966 C965 1.374 . S
C967 C964 1.499 . S
C967 C968 1.373 1_455 S
C967 C969 1.389 . S
C968 H941 0.950 . S
C968 C954 1.375 1_656 S
C968 C967 1.373 1_655 S
C969 C953 1.377 1_556 S
C969 C967 1.389 . S
C969 C970 1.524 . S
C970 C969 1.524 . S
C970 C971 1.397 . S
C970 C975 1.363 . S
C971 H942 0.950 1_455 S
C971 C970 1.397 . S
C971 C972 1.334 . S
C972 H943 0.950 1_455 S
C972 C971 1.334 . S
C972 C973 1.287 . S
C973 C972 1.287 . S
C973 C974 1.524 . S
C973 H976 0.999 . S
C974 H944 0.950 . S
C974 C973 1.524 . S
C974 C975 1.415 . S
C975 H945 0.950 . S
C975 C970 1.363 . S
C975 C974 1.415 . S
H976 C973 0.999 . S
H977 C958 0.913 . S
H978 C996 0.951 . S
H979 C998 0.951 . S
H980 C1000 0.950 . S
H981 C1001 0.950 . S
H982 C1003 0.950 . S
H983 C1006 0.950 . S
H984 C1007 0.950 . S
H985 C1009 0.950 . S
H986 C1010 0.950 . S
H987 C1011 0.951 . S
H988 C1013 0.951 . S
H989 C1015 0.950 . S
H990 C1016 0.950 . S
H991 C1018 0.950 . S
H992 C1021 0.950 . S
H993 C1022 0.950 . S
H994 C1024 0.950 . S
H995 C1025 0.950 . S
C996 H978 0.951 . S
C996 C997 1.366 . S
C996 C998 1.388 . S
C997 C996 1.366 . S
C997 C1001 1.385 . S
C998 H979 0.951 . S
C998 C996 1.388 . S
C998 C999 1.366 . S
C999 C998 1.366 . S
C999 C1000 1.414 . S
C999 C1002 1.499 . S
C1000 H980 0.950 . S
C1000 C999 1.414 . S
C1000 C1001 1.374 . S
C1001 H981 0.950 . S
C1001 C997 1.385 . S
C1001 C1000 1.374 . S
C1002 C999 1.499 . S
C1002 C1003 1.373 . S
C1002 C1004 1.389 . S
C1003 H982 0.950 . S
C1003 C1002 1.373 . S
C1003 C1019 1.377 . S
C1004 C1002 1.389 . S
C1004 C1005 1.524 . S
C1004 C1018 1.377 . S
C1005 C1004 1.524 . S
C1005 C1006 1.397 . S
C1005 C1010 1.363 . S
C1006 H983 0.950 . S
C1006 C1005 1.397 . S
C1006 C1007 1.334 . S
C1007 H984 0.950 . S
C1007 C1006 1.334 . S
C1007 C1008 1.287 . S
C1008 C1007 1.287 . S
C1008 C1009 1.524 . S
C1008 H1027 0.913 . S
C1009 H985 0.950 . S
C1009 C1008 1.524 . S
C1009 C1010 1.415 . S
C1010 H986 0.950 . S
C1010 C1005 1.363 . S
C1010 C1009 1.415 . S
C1011 H987 0.951 . S
C1011 C1012 1.366 . S
C1011 C1013 1.388 . S
C1012 C1011 1.366 . S
C1012 C1016 1.385 . S
C1013 H988 0.951 . S
C1013 C1011 1.388 . S
C1013 C1014 1.366 . S
C1014 C1013 1.366 . S
C1014 C1015 1.414 . S
C1014 C1017 1.499 . S
C1015 H989 0.950 . S
C1015 C1014 1.414 . S
C1015 C1016 1.374 . S
C1016 H990 0.950 . S
C1016 C1012 1.385 . S
C1016 C1015 1.374 . S
C1017 C1014 1.499 . S
C1017 C1018 1.373 . S
C1017 C1019 1.389 . S
C1018 H991 0.950 . S
C1018 C1004 1.377 . S
C1018 C1017 1.373 . S
C1019 C1003 1.377 . S
C1019 C1017 1.389 . S
C1019 C1020 1.524 . S
C1020 C1019 1.524 . S
C1020 C1021 1.397 . S
C1020 C1025 1.363 . S
C1021 H992 0.950 . S
C1021 C1020 1.397 . S
C1021 C1022 1.334 . S
C1022 H993 0.950 . S
C1022 C1021 1.334 . S
C1022 C1023 1.287 . S
C1023 C1022 1.287 . S
C1023 C1024 1.524 . S
C1023 H1026 0.999 . S
C1024 H994 0.950 . S
C1024 C1023 1.524 . S
C1024 C1025 1.415 . S
C1025 H995 0.950 . S
C1025 C1020 1.363 . S
C1025 C1024 1.415 . S
H1026 C1023 0.999 . S
H1027 C1008 0.913 . S
H1028 C1046 0.951 . S
H1029 C1048 0.951 . S
H1030 C1050 0.950 . S
H1031 C1051 0.950 . S
H1032 C1053 0.950 . S
H1033 C1056 0.950 . S
H1034 C1057 0.950 . S
H1035 C1059 0.950 . S
H1036 C1060 0.950 . S
H1037 C1061 0.951 . S
H1038 C1063 0.951 . S
H1039 C1065 0.950 . S
H1040 C1066 0.950 . S
H1041 C1068 0.950 . S
H1042 C1071 0.950 . S
H1043 C1072 0.950 . S
H1044 C1074 0.950 . S
H1045 C1075 0.950 . S
C1046 H1028 0.951 . S
C1046 C1047 1.366 . S
C1046 C1048 1.388 . S
C1047 C1046 1.366 . S
C1047 C1051 1.385 . S
C1048 H1029 0.951 . S
C1048 C1046 1.388 . S
C1048 C1049 1.366 . S
C1049 C1048 1.366 . S
C1049 C1050 1.414 . S
C1049 C1052 1.499 . S
C1050 H1030 0.950 . S
C1050 C1049 1.414 . S
C1050 C1051 1.374 . S
C1051 H1031 0.950 . S
C1051 C1047 1.385 . S
C1051 C1050 1.374 . S
C1052 C1049 1.499 . S
C1052 C1053 1.373 . S
C1052 C1054 1.389 . S
C1053 H1032 0.950 . S
C1053 C1052 1.373 . S
C1053 C1069 1.377 . S
C1054 C1052 1.389 . S
C1054 C1055 1.524 . S
C1054 C1068 1.377 . S
C1055 C1054 1.524 . S
C1055 C1056 1.397 . S
C1055 C1060 1.363 . S
C1056 H1033 0.950 . S
C1056 C1055 1.397 . S
C1056 C1057 1.334 . S
C1057 H1034 0.950 . S
C1057 C1056 1.334 . S
C1057 C1058 1.287 . S
C1058 C1057 1.287 . S
C1058 C1059 1.524 . S
C1058 H1077 0.913 . S
C1059 H1035 0.950 . S
C1059 C1058 1.524 . S
C1059 C1060 1.415 . S
C1060 H1036 0.950 . S
C1060 C1055 1.363 . S
C1060 C1059 1.415 . S
C1061 H1037 0.951 . S
C1061 C1062 1.366 . S
C1061 C1063 1.388 . S
C1062 C1061 1.366 . S
C1062 C1066 1.385 . S
C1063 H1038 0.951 . S
C1063 C1061 1.388 . S
C1063 C1064 1.366 . S
C1064 C1063 1.366 . S
C1064 C1065 1.414 . S
C1064 C1067 1.499 . S
C1065 H1039 0.950 . S
C1065 C1064 1.414 . S
C1065 C1066 1.374 . S
C1066 H1040 0.950 . S
C1066 C1062 1.385 . S
C1066 C1065 1.374 . S
C1067 C1064 1.499 . S
C1067 C1068 1.373 . S
C1067 C1069 1.389 . S
C1068 H1041 0.950 . S
C1068 C1054 1.377 . S
C1068 C1067 1.373 . S
C1069 C1053 1.377 . S
C1069 C1067 1.389 . S
C1069 C1070 1.524 . S
C1070 C1069 1.524 . S
C1070 C1071 1.397 . S
C1070 C1075 1.363 . S
C1071 H1042 0.950 . S
C1071 C1070 1.397 . S
C1071 C1072 1.334 . S
C1072 H1043 0.950 . S
C1072 C1071 1.334 . S
C1072 C1073 1.287 . S
C1073 C1072 1.287 . S
C1073 C1074 1.524 . S
C1073 H1076 0.999 . S
C1074 H1044 0.950 . S
C1074 C1073 1.524 . S
C1074 C1075 1.415 . S
C1075 H1045 0.950 . S
C1075 C1070 1.363 . S
C1075 C1074 1.415 . S
H1076 C1073 0.999 . S
H1077 C1058 0.913 . S
H1078 C1096 0.951 . S
H1079 C1098 0.951 . S
H1080 C1100 0.950 . S
H1081 C1101 0.950 . S
H1082 C1103 0.950 . S
H1083 C1106 0.950 . S
H1084 C1107 0.950 . S
H1085 C1109 0.950 . S
H1086 C1110 0.950 . S
H1087 C1111 0.951 . S
H1088 C1113 0.951 . S
H1089 C1115 0.950 . S
H1090 C1116 0.950 . S
H1091 C1118 0.950 . S
H1092 C1121 0.950 . S
H1093 C1122 0.950 . S
H1094 C1124 0.950 . S
H1095 C1125 0.950 . S
C1096 H1078 0.951 . S
C1096 C1097 1.366 . S
C1096 C1098 1.388 . S
C1097 C1096 1.366 . S
C1097 C1101 1.385 . S
C1098 H1079 0.951 . S
C1098 C1096 1.388 . S
C1098 C1099 1.366 . S
C1099 C1098 1.366 . S
C1099 C1100 1.414 . S
C1099 C1102 1.499 . S
C1100 H1080 0.950 . S
C1100 C1099 1.414 . S
C1100 C1101 1.374 . S
C1101 H1081 0.950 . S
C1101 C1097 1.385 . S
C1101 C1100 1.374 . S
C1102 C1099 1.499 . S
C1102 C1103 1.373 . S
C1102 C1104 1.389 . S
C1103 H1082 0.950 . S
C1103 C1102 1.373 . S
C1103 C1119 1.377 . S
C1104 C1102 1.389 . S
C1104 C1105 1.524 . S
C1104 C1118 1.377 . S
C1105 C1104 1.524 . S
C1105 C1106 1.397 . S
C1105 C1110 1.363 . S
C1106 H1083 0.950 . S
C1106 C1105 1.397 . S
C1106 C1107 1.334 . S
C1107 H1084 0.950 . S
C1107 C1106 1.334 . S
C1107 C1108 1.287 . S
C1108 C1107 1.287 . S
C1108 C1109 1.524 . S
C1108 H1127 0.913 . S
C1109 H1085 0.950 . S
C1109 C1108 1.524 . S
C1109 C1110 1.415 . S
C1110 H1086 0.950 . S
C1110 C1105 1.363 . S
C1110 C1109 1.415 . S
C1111 H1087 0.951 . S
C1111 C1112 1.366 . S
C1111 C1113 1.388 . S
C1112 C1111 1.366 . S
C1112 C1116 1.385 . S
C1113 H1088 0.951 . S
C1113 C1111 1.388 . S
C1113 C1114 1.366 . S
C1114 C1113 1.366 . S
C1114 C1115 1.414 . S
C1114 C1117 1.499 . S
C1115 H1089 0.950 . S
C1115 C1114 1.414 . S
C1115 C1116 1.374 . S
C1116 H1090 0.950 . S
C1116 C1112 1.385 . S
C1116 C1115 1.374 . S
C1117 C1114 1.499 . S
C1117 C1118 1.373 . S
C1117 C1119 1.389 . S
C1118 H1091 0.950 . S
C1118 C1104 1.377 . S
C1118 C1117 1.373 . S
C1119 C1103 1.377 . S
C1119 C1117 1.389 . S
C1119 C1120 1.524 . S
C1120 C1119 1.524 . S
C1120 C1121 1.397 . S
C1120 C1125 1.363 . S
C1121 H1092 0.950 . S
C1121 C1120 1.397 . S
C1121 C1122 1.334 . S
C1122 H1093 0.950 . S
C1122 C1121 1.334 . S
C1122 C1123 1.287 . S
C1123 C1122 1.287 . S
C1123 C1124 1.524 . S
C1123 H1126 0.999 . S
C1124 H1094 0.950 . S
C1124 C1123 1.524 . S
C1124 C1125 1.415 . S
C1125 H1095 0.950 . S
C1125 C1120 1.363 . S
C1125 C1124 1.415 . S
H1126 C1123 0.999 . S
H1127 C1108 0.913 . S
H1128 C1146 0.951 . S
H1129 C1148 0.951 . S
H1130 C1150 0.950 . S
H1131 C1151 0.950 . S
H1132 C1153 0.950 . S
H1133 C1156 0.950 . S
H1134 C1157 0.950 . S
H1135 C1159 0.950 . S
H1136 C1160 0.950 . S
H1137 C1161 0.951 . S
H1138 C1163 0.951 . S
H1139 C1165 0.950 . S
H1140 C1166 0.950 . S
H1141 C1168 0.950 . S
H1142 C1171 0.950 . S
H1143 C1172 0.950 . S
H1144 C1174 0.950 . S
H1145 C1175 0.950 . S
C1146 H1128 0.951 . S
C1146 C1147 1.366 . S
C1146 C1148 1.388 . S
C1147 C1146 1.366 . S
C1147 C1151 1.385 . S
C1148 H1129 0.951 . S
C1148 C1146 1.388 . S
C1148 C1149 1.366 . S
C1149 C1148 1.366 . S
C1149 C1150 1.414 . S
C1149 C1152 1.499 . S
C1150 H1130 0.950 . S
C1150 C1149 1.414 . S
C1150 C1151 1.374 . S
C1151 H1131 0.950 . S
C1151 C1147 1.385 . S
C1151 C1150 1.374 . S
C1152 C1149 1.499 . S
C1152 C1153 1.373 . S
C1152 C1154 1.389 . S
C1153 H1132 0.950 . S
C1153 C1152 1.373 . S
C1153 C1169 1.377 . S
C1154 C1152 1.389 . S
C1154 C1155 1.524 . S
C1154 C1168 1.377 . S
C1155 C1154 1.524 . S
C1155 C1156 1.397 . S
C1155 C1160 1.363 . S
C1156 H1133 0.950 . S
C1156 C1155 1.397 . S
C1156 C1157 1.334 . S
C1157 H1134 0.950 . S
C1157 C1156 1.334 . S
C1157 C1158 1.287 . S
C1158 C1157 1.287 . S
C1158 C1159 1.524 . S
C1158 H1177 0.913 . S
C1159 H1135 0.950 . S
C1159 C1158 1.524 . S
C1159 C1160 1.415 . S
C1160 H1136 0.950 . S
C1160 C1155 1.363 . S
C1160 C1159 1.415 . S
C1161 H1137 0.951 . S
C1161 C1162 1.366 . S
C1161 C1163 1.388 . S
C1162 C1161 1.366 . S
C1162 C1166 1.385 . S
C1163 H1138 0.951 . S
C1163 C1161 1.388 . S
C1163 C1164 1.366 . S
C1164 C1163 1.366 . S
C1164 C1165 1.414 . S
C1164 C1167 1.499 . S
C1165 H1139 0.950 . S
C1165 C1164 1.414 . S
C1165 C1166 1.374 . S
C1166 H1140 0.950 . S
C1166 C1162 1.385 . S
C1166 C1165 1.374 . S
C1167 C1164 1.499 . S
C1167 C1168 1.373 . S
C1167 C1169 1.389 . S
C1168 H1141 0.950 . S
C1168 C1154 1.377 . S
C1168 C1167 1.373 . S
C1169 C1153 1.377 . S
C1169 C1167 1.389 . S
C1169 C1170 1.524 . S
C1170 C1169 1.524 . S
C1170 C1171 1.397 . S
C1170 C1175 1.363 . S
C1171 H1142 0.950 . S
C1171 C1170 1.397 . S
C1171 C1172 1.334 . S
C1172 H1143 0.950 . S
C1172 C1171 1.334 . S
C1172 C1173 1.287 . S
C1173 C1172 1.287 . S
C1173 C1174 1.524 . S
C1173 H1176 0.999 . S
C1174 H1144 0.950 . S
C1174 C1173 1.524 . S
C1174 C1175 1.415 . S
C1175 H1145 0.950 . S
C1175 C1170 1.363 . S
C1175 C1174 1.415 . S
H1176 C1173 0.999 . S
H1177 C1158 0.913 . S
H1178 C1196 0.951 . S
H1179 C1198 0.951 . S
H1180 C1200 0.950 . S
H1181 C1201 0.950 . S
H1182 C1203 0.950 . S
H1183 C1206 0.950 . S
H1184 C1207 0.950 . S
H1185 C1209 0.950 . S
H1186 C1210 0.950 . S
H1187 C1211 0.951 . S
H1188 C1213 0.951 . S
H1189 C1215 0.950 . S
H1190 C1216 0.950 . S
H1191 C1218 0.950 . S
H1192 C1221 0.950 . S
H1193 C1222 0.950 . S
H1194 C1224 0.950 . S
H1195 C1225 0.950 . S
C1196 H1178 0.951 . S
C1196 C1197 1.366 . S
C1196 C1198 1.388 . S
C1197 C1196 1.366 . S
C1197 C1201 1.385 . S
C1198 H1179 0.951 . S
C1198 C1196 1.388 . S
C1198 C1199 1.366 . S
C1199 C1198 1.366 . S
C1199 C1200 1.414 . S
C1199 C1202 1.499 . S
C1200 H1180 0.950 . S
C1200 C1199 1.414 . S
C1200 C1201 1.374 . S
C1201 H1181 0.950 . S
C1201 C1197 1.385 . S
C1201 C1200 1.374 . S
C1202 C1199 1.499 . S
C1202 C1203 1.373 . S
C1202 C1204 1.389 . S
C1203 H1182 0.950 . S
C1203 C1202 1.373 . S
C1203 C1219 1.377 . S
C1204 C1202 1.389 . S
C1204 C1205 1.524 . S
C1204 C1218 1.377 . S
C1205 C1204 1.524 . S
C1205 C1206 1.397 . S
C1205 C1210 1.363 . S
C1206 H1183 0.950 . S
C1206 C1205 1.397 . S
C1206 C1207 1.334 . S
C1207 H1184 0.950 . S
C1207 C1206 1.334 . S
C1207 C1208 1.287 . S
C1208 C1207 1.287 . S
C1208 C1209 1.524 . S
C1208 H1227 0.913 . S
C1209 H1185 0.950 . S
C1209 C1208 1.524 . S
C1209 C1210 1.415 . S
C1210 H1186 0.950 . S
C1210 C1205 1.363 . S
C1210 C1209 1.415 . S
C1211 H1187 0.951 . S
C1211 C1212 1.366 . S
C1211 C1213 1.388 . S
C1212 C1211 1.366 . S
C1212 C1216 1.385 . S
C1213 H1188 0.951 . S
C1213 C1211 1.388 . S
C1213 C1214 1.366 . S
C1214 C1213 1.366 . S
C1214 C1215 1.414 . S
C1214 C1217 1.499 . S
C1215 H1189 0.950 . S
C1215 C1214 1.414 . S
C1215 C1216 1.374 . S
C1216 H1190 0.950 . S
C1216 C1212 1.385 . S
C1216 C1215 1.374 . S
C1217 C1214 1.499 . S
C1217 C1218 1.373 . S
C1217 C1219 1.389 . S
C1218 H1191 0.950 . S
C1218 C1204 1.377 . S
C1218 C1217 1.373 . S
C1219 C1203 1.377 . S
C1219 C1217 1.389 . S
C1219 C1220 1.524 . S
C1220 C1219 1.524 . S
C1220 C1221 1.397 . S
C1220 C1225 1.363 . S
C1221 H1192 0.950 . S
C1221 C1220 1.397 . S
C1221 C1222 1.334 . S
C1222 H1193 0.950 . S
C1222 C1221 1.334 . S
C1222 C1223 1.287 . S
C1223 C1222 1.287 . S
C1223 C1224 1.524 . S
C1223 H1226 0.999 . S
C1224 H1194 0.950 . S
C1224 C1223 1.524 . S
C1224 C1225 1.415 . S
C1225 H1195 0.950 . S
C1225 C1220 1.363 . S
C1225 C1224 1.415 . S
H1226 C1223 0.999 . S
H1227 C1208 0.913 . S
H1228 C1246 0.951 . S
H1229 C1248 0.951 . S
H1230 C1250 0.950 . S
H1231 C1251 0.950 . S
H1232 C1253 0.950 . S
H1233 C1256 0.950 . S
H1234 C1257 0.950 . S
H1235 C1259 0.950 . S
H1236 C1260 0.950 . S
H1237 C1261 0.951 . S
H1238 C1263 0.951 . S
H1239 C1265 0.950 . S
H1240 C1266 0.950 . S
H1241 C1268 0.950 . S
H1242 C1271 0.950 . S
H1243 C1272 0.950 . S
H1244 C1274 0.950 . S
H1245 C1275 0.950 . S
C1246 H1228 0.951 . S
C1246 C1247 1.366 . S
C1246 C1248 1.388 . S
C1247 C1246 1.366 . S
C1247 C1251 1.385 . S
C1248 H1229 0.951 . S
C1248 C1246 1.388 . S
C1248 C1249 1.366 . S
C1249 C1248 1.366 . S
C1249 C1250 1.414 . S
C1249 C1252 1.499 . S
C1250 H1230 0.950 . S
C1250 C1249 1.414 . S
C1250 C1251 1.374 . S
C1251 H1231 0.950 . S
C1251 C1247 1.385 . S
C1251 C1250 1.374 . S
C1252 C1249 1.499 . S
C1252 C1253 1.373 . S
C1252 C1254 1.389 . S
C1253 H1232 0.950 . S
C1253 C1252 1.373 . S
C1253 C1269 1.377 . S
C1254 C1252 1.389 . S
C1254 C1255 1.524 . S
C1254 C1268 1.377 . S
C1255 C1254 1.524 . S
C1255 C1256 1.397 . S
C1255 C1260 1.363 . S
C1256 H1233 0.950 . S
C1256 C1255 1.397 . S
C1256 C1257 1.334 . S
C1257 H1234 0.950 . S
C1257 C1256 1.334 . S
C1257 C1258 1.287 . S
C1258 C1257 1.287 . S
C1258 C1259 1.524 . S
C1258 H1277 0.913 . S
C1259 H1235 0.950 . S
C1259 C1258 1.524 . S
C1259 C1260 1.415 . S
C1260 H1236 0.950 . S
C1260 C1255 1.363 . S
C1260 C1259 1.415 . S
C1261 H1237 0.951 . S
C1261 C1262 1.366 . S
C1261 C1263 1.388 . S
C1262 C1261 1.366 . S
C1262 C1266 1.385 . S
C1263 H1238 0.951 . S
C1263 C1261 1.388 . S
C1263 C1264 1.366 . S
C1264 C1263 1.366 . S
C1264 C1265 1.414 . S
C1264 C1267 1.499 . S
C1265 H1239 0.950 . S
C1265 C1264 1.414 . S
C1265 C1266 1.374 . S
C1266 H1240 0.950 . S
C1266 C1262 1.385 . S
C1266 C1265 1.374 . S
C1267 C1264 1.499 . S
C1267 C1268 1.373 . S
C1267 C1269 1.389 . S
C1268 H1241 0.950 . S
C1268 C1254 1.377 . S
C1268 C1267 1.373 . S
C1269 C1253 1.377 . S
C1269 C1267 1.389 . S
C1269 C1270 1.524 . S
C1270 C1269 1.524 . S
C1270 C1271 1.397 . S
C1270 C1275 1.363 . S
C1271 H1242 0.950 . S
C1271 C1270 1.397 . S
C1271 C1272 1.334 . S
C1272 H1243 0.950 . S
C1272 C1271 1.334 . S
C1272 C1273 1.287 . S
C1273 C1272 1.287 . S
C1273 C1274 1.524 . S
C1273 H1276 0.999 . S
C1274 H1244 0.950 . S
C1274 C1273 1.524 . S
C1274 C1275 1.415 . S
C1275 H1245 0.950 . S
C1275 C1270 1.363 . S
C1275 C1274 1.415 . S
H1276 C1273 0.999 . S
H1277 C1258 0.913 . S
H1278 C1296 0.951 . S
H1279 C1298 0.951 . S
H1280 C1300 0.950 . S
H1281 C1301 0.950 . S
H1282 C1303 0.950 . S
H1283 C1306 0.950 . S
H1284 C1307 0.950 . S
H1285 C1309 0.950 . S
H1286 C1310 0.950 . S
H1287 C1311 0.951 . S
H1288 C1313 0.951 . S
H1289 C1315 0.950 . S
H1290 C1316 0.950 . S
H1291 C1318 0.950 . S
H1292 C1321 0.950 . S
H1293 C1322 0.950 . S
H1294 C1324 0.950 . S
H1295 C1325 0.950 . S
C1296 H1278 0.951 . S
C1296 C1297 1.366 . S
C1296 C1298 1.388 . S
C1297 C1296 1.366 . S
C1297 C1301 1.385 1_455 S
C1298 H1279 0.951 . S
C1298 C1296 1.388 . S
C1298 C1299 1.366 . S
C1299 C1298 1.366 . S
C1299 C1300 1.414 1_455 S
C1299 C1302 1.499 . S
C1300 H1280 0.950 . S
C1300 C1299 1.414 1_655 S
C1300 C1301 1.374 . S
C1301 H1281 0.950 . S
C1301 C1297 1.385 1_655 S
C1301 C1300 1.374 . S
C1302 C1299 1.499 . S
C1302 C1303 1.373 1_455 S
C1302 C1304 1.389 . S
C1303 H1282 0.950 . S
C1303 C1302 1.373 1_655 S
C1303 C1319 1.377 1_556 S
C1304 C1302 1.389 . S
C1304 C1305 1.524 . S
C1304 C1318 1.377 1_556 S
C1305 C1304 1.524 . S
C1305 C1306 1.397 . S
C1305 C1310 1.363 . S
C1306 H1283 0.950 . S
C1306 C1305 1.397 . S
C1306 C1307 1.334 . S
C1307 H1284 0.950 . S
C1307 C1306 1.334 . S
C1307 C1308 1.287 . S
C1308 C1307 1.287 . S
C1308 C1309 1.524 . S
C1308 H1327 0.913 . S
C1309 H1285 0.950 . S
C1309 C1308 1.524 . S
C1309 C1310 1.415 . S
C1310 H1286 0.950 . S
C1310 C1305 1.363 . S
C1310 C1309 1.415 . S
C1311 H1287 0.951 . S
C1311 C1312 1.366 1_655 S
C1311 C1313 1.388 . S
C1312 C1311 1.366 1_455 S
C1312 C1316 1.385 . S
C1313 H1288 0.951 . S
C1313 C1311 1.388 . S
C1313 C1314 1.366 1_655 S
C1314 C1313 1.366 1_455 S
C1314 C1315 1.414 . S
C1314 C1317 1.499 . S
C1315 H1289 0.950 . S
C1315 C1314 1.414 . S
C1315 C1316 1.374 . S
C1316 H1290 0.950 . S
C1316 C1312 1.385 . S
C1316 C1315 1.374 . S
C1317 C1314 1.499 . S
C1317 C1318 1.373 . S
C1317 C1319 1.389 1_455 S
C1318 H1291 0.950 . S
C1318 C1304 1.377 1_554 S
C1318 C1317 1.373 . S
C1319 C1303 1.377 1_554 S
C1319 C1317 1.389 1_655 S
C1319 C1320 1.524 . S
C1320 C1319 1.524 . S
C1320 C1321 1.397 . S
C1320 C1325 1.363 . S
C1321 H1292 0.950 . S
C1321 C1320 1.397 . S
C1321 C1322 1.334 . S
C1322 H1293 0.950 . S
C1322 C1321 1.334 . S
C1322 C1323 1.287 . S
C1323 C1322 1.287 . S
C1323 C1324 1.524 . S
C1323 H1326 0.999 . S
C1324 H1294 0.950 . S
C1324 C1323 1.524 . S
C1324 C1325 1.415 . S
C1325 H1295 0.950 . S
C1325 C1320 1.363 . S
C1325 C1324 1.415 . S
H1326 C1323 0.999 . S
H1327 C1308 0.913 . S
H1328 C1346 0.951 . S
H1329 C1348 0.951 . S
H1330 C1350 0.950 . S
H1331 C1351 0.950 . S
H1332 C1353 0.950 . S
H1333 C1356 0.950 1_565 S
H1334 C1357 0.950 . S
H1335 C1359 0.950 . S
H1336 C1360 0.950 . S
H1337 C1361 0.951 . S
H1338 C1363 0.951 . S
H1339 C1365 0.950 . S
H1340 C1366 0.950 . S
H1341 C1368 0.950 . S
H1342 C1371 0.950 . S
H1343 C1372 0.950 . S
H1344 C1374 0.950 . S
H1345 C1375 0.950 . S
C1346 H1328 0.951 . S
C1346 C1347 1.366 . S
C1346 C1348 1.388 . S
C1347 C1346 1.366 . S
C1347 C1351 1.385 . S
C1348 H1329 0.951 . S
C1348 C1346 1.388 . S
C1348 C1349 1.366 . S
C1349 C1348 1.366 . S
C1349 C1350 1.414 . S
C1349 C1352 1.499 . S
C1350 H1330 0.950 . S
C1350 C1349 1.414 . S
C1350 C1351 1.374 . S
C1351 H1331 0.950 . S
C1351 C1347 1.385 . S
C1351 C1350 1.374 . S
C1352 C1349 1.499 . S
C1352 C1353 1.373 . S
C1352 C1354 1.389 . S
C1353 H1332 0.950 . S
C1353 C1352 1.373 . S
C1353 C1369 1.377 . S
C1354 C1352 1.389 . S
C1354 C1355 1.524 1_565 S
C1354 C1368 1.377 1_565 S
C1355 C1354 1.524 1_545 S
C1355 C1356 1.397 . S
C1355 C1360 1.363 . S
C1356 H1333 0.950 1_545 S
C1356 C1355 1.397 . S
C1356 C1357 1.334 . S
C1357 H1334 0.950 . S
C1357 C1356 1.334 . S
C1357 C1358 1.287 . S
C1358 C1357 1.287 . S
C1358 C1359 1.524 . S
C1358 H1377 0.913 . S
C1359 H1335 0.950 . S
C1359 C1358 1.524 . S
C1359 C1360 1.415 . S
C1360 H1336 0.950 . S
C1360 C1355 1.363 . S
C1360 C1359 1.415 . S
C1361 H1337 0.951 . S
C1361 C1362 1.366 . S
C1361 C1363 1.388 . S
C1362 C1361 1.366 . S
C1362 C1366 1.385 . S
C1363 H1338 0.951 . S
C1363 C1361 1.388 . S
C1363 C1364 1.366 . S
C1364 C1363 1.366 . S
C1364 C1365 1.414 . S
C1364 C1367 1.499 1_545 S
C1365 H1339 0.950 . S
C1365 C1364 1.414 . S
C1365 C1366 1.374 . S
C1366 H1340 0.950 . S
C1366 C1362 1.385 . S
C1366 C1365 1.374 . S
C1367 C1364 1.499 1_565 S
C1367 C1368 1.373 1_565 S
C1367 C1369 1.389 . S
C1368 H1341 0.950 . S
C1368 C1354 1.377 1_545 S
C1368 C1367 1.373 1_545 S
C1369 C1353 1.377 . S
C1369 C1367 1.389 . S
C1369 C1370 1.524 . S
C1370 C1369 1.524 . S
C1370 C1371 1.397 . S
C1370 C1375 1.363 . S
C1371 H1342 0.950 . S
C1371 C1370 1.397 . S
C1371 C1372 1.334 . S
C1372 H1343 0.950 . S
C1372 C1371 1.334 . S
C1372 C1373 1.287 . S
C1373 C1372 1.287 . S
C1373 C1374 1.524 . S
C1373 H1376 0.999 . S
C1374 H1344 0.950 . S
C1374 C1373 1.524 . S
C1374 C1375 1.415 . S
C1375 H1345 0.950 . S
C1375 C1370 1.363 . S
C1375 C1374 1.415 . S
H1376 C1373 0.999 . S
H1377 C1358 0.913 . S
H1378 C1396 0.951 . S
H1379 C1398 0.951 . S
H1380 C1400 0.950 . S
H1381 C1401 0.950 . S
H1382 C1403 0.950 . S
H1383 C1406 0.948 1_565 S
H1384 C1407 0.950 . S
H1385 C1409 0.950 . S
H1386 C1410 0.950 . S
H1387 C1411 0.951 . S
H1388 C1413 0.951 . S
H1389 C1415 0.950 . S
H1390 C1416 0.950 . S
H1391 C1418 0.950 1_545 S
H1392 C1421 0.950 . S
H1393 C1422 0.950 . S
H1394 C1424 0.950 . S
H1395 C1425 0.950 . S
C1396 H1378 0.951 . S
C1396 C1397 1.366 . S
C1396 C1398 1.388 . S
C1397 C1396 1.366 . S
C1397 C1401 1.385 . S
C1398 H1379 0.951 . S
C1398 C1396 1.388 . S
C1398 C1399 1.366 . S
C1399 C1398 1.366 . S
C1399 C1400 1.414 . S
C1399 C1402 1.499 . S
C1400 H1380 0.950 . S
C1400 C1399 1.414 . S
C1400 C1401 1.374 . S
C1401 H1381 0.950 . S
C1401 C1397 1.385 . S
C1401 C1400 1.374 . S
C1402 C1399 1.499 . S
C1402 C1403 1.373 . S
C1402 C1404 1.389 . S
C1403 H1382 0.950 . S
C1403 C1402 1.373 . S
C1403 C1419 1.377 . S
C1404 C1402 1.389 . S
C1404 C1405 1.524 . S
C1404 C1418 1.377 . S
C1405 C1404 1.524 . S
C1405 C1406 1.393 1_565 S
C1405 C1410 1.363 . S
C1406 H1383 0.948 1_545 S
C1406 C1405 1.393 1_545 S
C1406 C1407 1.340 . S
C1407 H1384 0.950 . S
C1407 C1406 1.340 . S
C1407 C1408 1.287 . S
C1408 C1407 1.287 . S
C1408 C1409 1.524 . S
C1408 H1427 0.913 . S
C1409 H1385 0.950 . S
C1409 C1408 1.524 . S
C1409 C1410 1.415 1_545 S
C1410 H1386 0.950 . S
C1410 C1405 1.363 . S
C1410 C1409 1.415 1_565 S
C1411 H1387 0.951 . S
C1411 C1412 1.366 . S
C1411 C1413 1.388 . S
C1412 C1411 1.366 . S
C1412 C1416 1.385 . S
C1413 H1388 0.951 . S
C1413 C1411 1.388 . S
C1413 C1414 1.366 . S
C1414 C1413 1.366 . S
C1414 C1415 1.414 . S
C1414 C1417 1.499 1_545 S
C1415 H1389 0.950 . S
C1415 C1414 1.414 . S
C1415 C1416 1.374 . S
C1416 H1390 0.950 . S
C1416 C1412 1.385 . S
C1416 C1415 1.374 . S
C1417 C1414 1.499 1_565 S
C1417 C1418 1.373 . S
C1417 C1419 1.389 . S
C1418 H1391 0.950 1_565 S
C1418 C1404 1.377 . S
C1418 C1417 1.373 . S
C1419 C1403 1.377 . S
C1419 C1417 1.389 . S
C1419 C1420 1.524 . S
C1420 C1419 1.524 . S
C1420 C1421 1.397 . S
C1420 C1425 1.363 . S
C1421 H1392 0.950 . S
C1421 C1420 1.397 . S
C1421 C1422 1.334 . S
C1422 H1393 0.950 . S
C1422 C1421 1.334 . S
C1422 C1423 1.287 . S
C1423 C1422 1.287 . S
C1423 C1424 1.524 . S
C1423 H1426 0.999 . S
C1424 H1394 0.950 . S
C1424 C1423 1.524 . S
C1424 C1425 1.415 . S
C1425 H1395 0.950 . S
C1425 C1420 1.363 . S
C1425 C1424 1.415 . S
H1426 C1423 0.999 . S
H1427 C1408 0.913 . S
H1428 C1446 0.951 . S
H1429 C1448 0.951 . S
H1430 C1450 0.950 . S
H1431 C1451 0.950 . S
H1432 C1453 0.950 . S
H1433 C1456 0.950 . S
H1434 C1457 0.950 . S
H1435 C1459 0.950 . S
H1436 C1460 0.950 . S
H1437 C1461 0.951 . S
H1438 C1463 0.951 . S
H1439 C1465 0.950 . S
H1440 C1466 0.950 . S
H1441 C1468 0.950 . S
H1442 C1471 0.950 . S
H1443 C1472 0.950 . S
H1444 C1474 0.950 . S
H1445 C1475 0.950 . S
C1446 H1428 0.951 . S
C1446 C1447 1.366 . S
C1446 C1448 1.388 . S
C1447 C1446 1.366 . S
C1447 C1451 1.385 . S
C1448 H1429 0.951 . S
C1448 C1446 1.388 . S
C1448 C1449 1.366 . S
C1449 C1448 1.366 . S
C1449 C1450 1.414 . S
C1449 C1452 1.499 . S
C1450 H1430 0.950 . S
C1450 C1449 1.414 . S
C1450 C1451 1.374 . S
C1451 H1431 0.950 . S
C1451 C1447 1.385 . S
C1451 C1450 1.374 . S
C1452 C1449 1.499 . S
C1452 C1453 1.373 . S
C1452 C1454 1.389 . S
C1453 H1432 0.950 . S
C1453 C1452 1.373 . S
C1453 C1469 1.377 . S
C1454 C1452 1.389 . S
C1454 C1455 1.524 . S
C1454 C1468 1.377 . S
C1455 C1454 1.524 . S
C1455 C1456 1.397 . S
C1455 C1460 1.363 . S
C1456 H1433 0.950 . S
C1456 C1455 1.397 . S
C1456 C1457 1.334 . S
C1457 H1434 0.950 . S
C1457 C1456 1.334 . S
C1457 C1458 1.287 . S
C1458 C1457 1.287 . S
C1458 C1459 1.524 . S
C1458 H1477 0.913 . S
C1459 H1435 0.950 . S
C1459 C1458 1.524 . S
C1459 C1460 1.415 . S
C1460 H1436 0.950 . S
C1460 C1455 1.363 . S
C1460 C1459 1.415 . S
C1461 H1437 0.951 . S
C1461 C1462 1.366 . S
C1461 C1463 1.388 . S
C1462 C1461 1.366 . S
C1462 C1466 1.385 . S
C1463 H1438 0.951 . S
C1463 C1461 1.388 . S
C1463 C1464 1.366 . S
C1464 C1463 1.366 . S
C1464 C1465 1.414 . S
C1464 C1467 1.499 . S
C1465 H1439 0.950 . S
C1465 C1464 1.414 . S
C1465 C1466 1.374 . S
C1466 H1440 0.950 . S
C1466 C1462 1.385 . S
C1466 C1465 1.374 . S
C1467 C1464 1.499 . S
C1467 C1468 1.373 . S
C1467 C1469 1.389 . S
C1468 H1441 0.950 . S
C1468 C1454 1.377 . S
C1468 C1467 1.373 . S
C1469 C1453 1.377 . S
C1469 C1467 1.389 . S
C1469 C1470 1.524 . S
C1470 C1469 1.524 . S
C1470 C1471 1.397 . S
C1470 C1475 1.363 . S
C1471 H1442 0.950 . S
C1471 C1470 1.397 . S
C1471 C1472 1.334 . S
C1472 H1443 0.950 . S
C1472 C1471 1.334 . S
C1472 C1473 1.287 . S
C1473 C1472 1.287 . S
C1473 C1474 1.524 . S
C1473 H1476 0.999 . S
C1474 H1444 0.950 . S
C1474 C1473 1.524 . S
C1474 C1475 1.415 . S
C1475 H1445 0.950 . S
C1475 C1470 1.363 . S
C1475 C1474 1.415 . S
H1476 C1473 0.999 . S
H1477 C1458 0.913 . S
H1478 C1496 0.951 . S
H1479 C1498 0.951 . S
H1480 C1500 0.950 . S
H1481 C1501 0.950 . S
H1482 C1503 0.950 . S
H1483 C1506 0.950 . S
H1484 C1507 0.950 . S
H1485 C1509 0.950 . S
H1486 C1510 0.950 . S
H1487 C1511 0.951 . S
H1488 C1513 0.951 . S
H1489 C1515 0.950 . S
H1490 C1516 0.950 . S
H1491 C1518 0.950 . S
H1492 C1521 0.950 . S
H1493 C1522 0.950 . S
H1494 C1524 0.950 . S
H1495 C1525 0.950 . S
C1496 H1478 0.951 . S
C1496 C1497 1.366 . S
C1496 C1498 1.388 . S
C1497 C1496 1.366 . S
C1497 C1501 1.385 . S
C1498 H1479 0.951 . S
C1498 C1496 1.388 . S
C1498 C1499 1.366 . S
C1499 C1498 1.366 . S
C1499 C1500 1.414 . S
C1499 C1502 1.499 . S
C1500 H1480 0.950 . S
C1500 C1499 1.414 . S
C1500 C1501 1.374 . S
C1501 H1481 0.950 . S
C1501 C1497 1.385 . S
C1501 C1500 1.374 . S
C1502 C1499 1.499 . S
C1502 C1503 1.373 . S
C1502 C1504 1.389 . S
C1503 H1482 0.950 . S
C1503 C1502 1.373 . S
C1503 C1519 1.377 . S
C1504 C1502 1.389 . S
C1504 C1505 1.524 . S
C1504 C1518 1.377 . S
C1505 C1504 1.524 . S
C1505 C1506 1.397 . S
C1505 C1510 1.363 . S
C1506 H1483 0.950 . S
C1506 C1505 1.397 . S
C1506 C1507 1.334 . S
C1507 H1484 0.950 . S
C1507 C1506 1.334 . S
C1507 C1508 1.287 . S
C1508 C1507 1.287 . S
C1508 C1509 1.524 . S
C1508 H1527 0.913 . S
C1509 H1485 0.950 . S
C1509 C1508 1.524 . S
C1509 C1510 1.415 . S
C1510 H1486 0.950 . S
C1510 C1505 1.363 . S
C1510 C1509 1.415 . S
C1511 H1487 0.951 . S
C1511 C1512 1.366 . S
C1511 C1513 1.388 . S
C1512 C1511 1.366 . S
C1512 C1516 1.385 . S
C1513 H1488 0.951 . S
C1513 C1511 1.388 . S
C1513 C1514 1.366 . S
C1514 C1513 1.366 . S
C1514 C1515 1.414 . S
C1514 C1517 1.499 . S
C1515 H1489 0.950 . S
C1515 C1514 1.414 . S
C1515 C1516 1.374 . S
C1516 H1490 0.950 . S
C1516 C1512 1.385 . S
C1516 C1515 1.374 . S
C1517 C1514 1.499 . S
C1517 C1518 1.373 . S
C1517 C1519 1.389 . S
C1518 H1491 0.950 . S
C1518 C1504 1.377 . S
C1518 C1517 1.373 . S
C1519 C1503 1.377 . S
C1519 C1517 1.389 . S
C1519 C1520 1.524 . S
C1520 C1519 1.524 . S
C1520 C1521 1.397 . S
C1520 C1525 1.363 . S
C1521 H1492 0.950 . S
C1521 C1520 1.397 . S
C1521 C1522 1.334 . S
C1522 H1493 0.950 . S
C1522 C1521 1.334 . S
C1522 C1523 1.287 . S
C1523 C1522 1.287 . S
C1523 C1524 1.524 . S
C1523 H1526 0.999 . S
C1524 H1494 0.950 . S
C1524 C1523 1.524 . S
C1524 C1525 1.415 . S
C1525 H1495 0.950 . S
C1525 C1520 1.363 . S
C1525 C1524 1.415 . S
H1526 C1523 0.999 . S
H1527 C1508 0.913 . S
H1528 C1546 0.951 . S
H1529 C1548 0.951 . S
H1530 C1550 0.950 . S
H1531 C1551 0.950 . S
H1532 C1553 0.950 . S
H1533 C1556 0.950 . S
H1534 C1557 0.950 . S
H1535 C1559 0.950 . S
H1536 C1560 0.950 . S
H1537 C1561 0.951 . S
H1538 C1563 0.951 . S
H1539 C1565 0.950 . S
H1540 C1566 0.950 . S
H1541 C1568 0.950 . S
H1542 C1571 0.950 . S
H1543 C1572 0.950 . S
H1544 C1574 0.950 . S
H1545 C1575 0.950 . S
C1546 H1528 0.951 . S
C1546 C1547 1.366 . S
C1546 C1548 1.388 . S
C1547 C1546 1.366 . S
C1547 C1551 1.385 . S
C1548 H1529 0.951 . S
C1548 C1546 1.388 . S
C1548 C1549 1.366 . S
C1549 C1548 1.366 . S
C1549 C1550 1.414 . S
C1549 C1552 1.499 . S
C1550 H1530 0.950 . S
C1550 C1549 1.414 . S
C1550 C1551 1.374 . S
C1551 H1531 0.950 . S
C1551 C1547 1.385 . S
C1551 C1550 1.374 . S
C1552 C1549 1.499 . S
C1552 C1553 1.373 . S
C1552 C1554 1.389 . S
C1553 H1532 0.950 . S
C1553 C1552 1.373 . S
C1553 C1569 1.377 . S
C1554 C1552 1.389 . S
C1554 C1555 1.524 . S
C1554 C1568 1.377 . S
C1555 C1554 1.524 . S
C1555 C1556 1.397 . S
C1555 C1560 1.363 . S
C1556 H1533 0.950 . S
C1556 C1555 1.397 . S
C1556 C1557 1.334 . S
C1557 H1534 0.950 . S
C1557 C1556 1.334 . S
C1557 C1558 1.287 . S
C1558 C1557 1.287 . S
C1558 C1559 1.524 . S
C1558 H1577 0.913 . S
C1559 H1535 0.950 . S
C1559 C1558 1.524 . S
C1559 C1560 1.415 . S
C1560 H1536 0.950 . S
C1560 C1555 1.363 . S
C1560 C1559 1.415 . S
C1561 H1537 0.951 . S
C1561 C1562 1.366 . S
C1561 C1563 1.388 . S
C1562 C1561 1.366 . S
C1562 C1566 1.385 . S
C1563 H1538 0.951 . S
C1563 C1561 1.388 . S
C1563 C1564 1.366 . S
C1564 C1563 1.366 . S
C1564 C1565 1.414 . S
C1564 C1567 1.499 . S
C1565 H1539 0.950 . S
C1565 C1564 1.414 . S
C1565 C1566 1.374 . S
C1566 H1540 0.950 . S
C1566 C1562 1.385 . S
C1566 C1565 1.374 . S
C1567 C1564 1.499 . S
C1567 C1568 1.373 . S
C1567 C1569 1.389 . S
C1568 H1541 0.950 . S
C1568 C1554 1.377 . S
C1568 C1567 1.373 . S
C1569 C1553 1.377 . S
C1569 C1567 1.389 . S
C1569 C1570 1.524 . S
C1570 C1569 1.524 . S
C1570 C1571 1.397 . S
C1570 C1575 1.363 . S
C1571 H1542 0.950 . S
C1571 C1570 1.397 . S
C1571 C1572 1.334 . S
C1572 H1543 0.950 . S
C1572 C1571 1.334 . S
C1572 C1573 1.287 . S
C1573 C1572 1.287 . S
C1573 C1574 1.524 . S
C1573 H1576 0.999 . S
C1574 H1544 0.950 . S
C1574 C1573 1.524 . S
C1574 C1575 1.415 . S
C1575 H1545 0.950 . S
C1575 C1570 1.363 . S
C1575 C1574 1.415 . S
H1576 C1573 0.999 . S
H1577 C1558 0.913 . S
H1578 C1596 0.951 . S
H1579 C1598 0.951 . S
H1580 C1600 0.950 . S
H1581 C1601 0.950 . S
H1582 C1603 0.950 . S
H1583 C1606 0.950 . S
H1584 C1607 0.950 . S
H1585 C1609 0.950 . S
H1586 C1610 0.950 . S
H1587 C1611 0.951 . S
H1588 C1613 0.951 . S
H1589 C1615 0.950 . S
H1590 C1616 0.950 . S
H1591 C1618 0.950 . S
H1592 C1621 0.950 . S
H1593 C1622 0.950 . S
H1594 C1624 0.950 . S
H1595 C1625 0.950 . S
C1596 H1578 0.951 . S
C1596 C1597 1.366 . S
C1596 C1598 1.388 . S
C1597 C1596 1.366 . S
C1597 C1601 1.385 . S
C1598 H1579 0.951 . S
C1598 C1596 1.388 . S
C1598 C1599 1.366 . S
C1599 C1598 1.366 . S
C1599 C1600 1.414 . S
C1599 C1602 1.499 . S
C1600 H1580 0.950 . S
C1600 C1599 1.414 . S
C1600 C1601 1.374 . S
C1601 H1581 0.950 . S
C1601 C1597 1.385 . S
C1601 C1600 1.374 . S
C1602 C1599 1.499 . S
C1602 C1603 1.373 . S
C1602 C1604 1.389 . S
C1603 H1582 0.950 . S
C1603 C1602 1.373 . S
C1603 C1619 1.377 . S
C1604 C1602 1.389 . S
C1604 C1605 1.524 . S
C1604 C1618 1.377 . S
C1605 C1604 1.524 . S
C1605 C1606 1.397 . S
C1605 C1610 1.363 . S
C1606 H1583 0.950 . S
C1606 C1605 1.397 . S
C1606 C1607 1.334 . S
C1607 H1584 0.950 . S
C1607 C1606 1.334 . S
C1607 C1608 1.287 . S
C1608 C1607 1.287 . S
C1608 C1609 1.524 . S
C1608 H1627 0.913 . S
C1609 H1585 0.950 . S
C1609 C1608 1.524 . S
C1609 C1610 1.415 . S
C1610 H1586 0.950 . S
C1610 C1605 1.363 . S
C1610 C1609 1.415 . S
C1611 H1587 0.951 . S
C1611 C1612 1.366 . S
C1611 C1613 1.388 . S
C1612 C1611 1.366 . S
C1612 C1616 1.385 . S
C1613 H1588 0.951 . S
C1613 C1611 1.388 . S
C1613 C1614 1.366 . S
C1614 C1613 1.366 . S
C1614 C1615 1.414 . S
C1614 C1617 1.499 . S
C1615 H1589 0.950 . S
C1615 C1614 1.414 . S
C1615 C1616 1.374 . S
C1616 H1590 0.950 . S
C1616 C1612 1.385 . S
C1616 C1615 1.374 . S
C1617 C1614 1.499 . S
C1617 C1618 1.373 . S
C1617 C1619 1.389 . S
C1618 H1591 0.950 . S
C1618 C1604 1.377 . S
C1618 C1617 1.373 . S
C1619 C1603 1.377 . S
C1619 C1617 1.389 . S
C1619 C1620 1.524 . S
C1620 C1619 1.524 . S
C1620 C1621 1.397 . S
C1620 C1625 1.363 . S
C1621 H1592 0.950 . S
C1621 C1620 1.397 . S
C1621 C1622 1.334 . S
C1622 H1593 0.950 . S
C1622 C1621 1.334 . S
C1622 C1623 1.287 . S
C1623 C1622 1.287 . S
C1623 C1624 1.524 . S
C1623 H1626 0.999 . S
C1624 H1594 0.950 . S
C1624 C1623 1.524 . S
C1624 C1625 1.415 . S
C1625 H1595 0.950 . S
C1625 C1620 1.363 . S
C1625 C1624 1.415 . S
H1626 C1623 0.999 . S
H1627 C1608 0.913 . S
H1628 C1646 0.951 . S
H1629 C1648 0.951 . S
H1630 C1650 0.950 . S
H1631 C1651 0.950 . S
H1632 C1653 0.950 . S
H1633 C1656 0.950 . S
H1634 C1657 0.950 . S
H1635 C1659 0.950 . S
H1636 C1660 0.950 . S
H1637 C1661 0.951 . S
H1638 C1663 0.951 . S
H1639 C1665 0.950 . S
H1640 C1666 0.950 . S
H1641 C1668 0.950 . S
H1642 C1671 0.950 . S
H1643 C1672 0.950 . S
H1644 C1674 0.950 . S
H1645 C1675 0.950 . S
C1646 H1628 0.951 . S
C1646 C1647 1.366 . S
C1646 C1648 1.388 . S
C1647 C1646 1.366 . S
C1647 C1651 1.385 . S
C1648 H1629 0.951 . S
C1648 C1646 1.388 . S
C1648 C1649 1.366 . S
C1649 C1648 1.366 . S
C1649 C1650 1.414 . S
C1649 C1652 1.499 . S
C1650 H1630 0.950 . S
C1650 C1649 1.414 . S
C1650 C1651 1.374 . S
C1651 H1631 0.950 . S
C1651 C1647 1.385 . S
C1651 C1650 1.374 . S
C1652 C1649 1.499 . S
C1652 C1653 1.373 . S
C1652 C1654 1.389 1_565 S
C1653 H1632 0.950 . S
C1653 C1652 1.373 . S
C1653 C1669 1.377 . S
C1654 C1652 1.389 1_545 S
C1654 C1655 1.524 . S
C1654 C1668 1.377 . S
C1655 C1654 1.524 . S
C1655 C1656 1.397 . S
C1655 C1660 1.363 . S
C1656 H1633 0.950 . S
C1656 C1655 1.397 . S
C1656 C1657 1.334 . S
C1657 H1634 0.950 . S
C1657 C1656 1.334 . S
C1657 C1658 1.287 . S
C1658 C1657 1.287 . S
C1658 C1659 1.524 . S
C1658 H1677 0.913 . S
C1659 H1635 0.950 . S
C1659 C1658 1.524 . S
C1659 C1660 1.415 . S
C1660 H1636 0.950 . S
C1660 C1655 1.363 . S
C1660 C1659 1.415 . S
C1661 H1637 0.951 . S
C1661 C1662 1.366 . S
C1661 C1663 1.388 . S
C1662 C1661 1.366 . S
C1662 C1666 1.385 . S
C1663 H1638 0.951 . S
C1663 C1661 1.388 . S
C1663 C1664 1.366 . S
C1664 C1663 1.366 . S
C1664 C1665 1.414 . S
C1664 C1667 1.499 . S
C1665 H1639 0.950 . S
C1665 C1664 1.414 . S
C1665 C1666 1.374 . S
C1666 H1640 0.950 . S
C1666 C1662 1.385 . S
C1666 C1665 1.374 . S
C1667 C1664 1.499 . S
C1667 C1668 1.373 . S
C1667 C1669 1.389 1_545 S
C1668 H1641 0.950 . S
C1668 C1654 1.377 . S
C1668 C1667 1.373 . S
C1669 C1653 1.377 . S
C1669 C1667 1.389 1_565 S
C1669 C1670 1.524 . S
C1670 C1669 1.524 . S
C1670 C1671 1.397 . S
C1670 C1675 1.363 . S
C1671 H1642 0.950 . S
C1671 C1670 1.397 . S
C1671 C1672 1.334 . S
C1672 H1643 0.950 . S
C1672 C1671 1.334 . S
C1672 C1673 1.287 . S
C1673 C1672 1.287 . S
C1673 C1674 1.524 . S
C1673 H1676 0.999 . S
C1674 H1644 0.950 . S
C1674 C1673 1.524 . S
C1674 C1675 1.415 . S
C1675 H1645 0.950 . S
C1675 C1670 1.363 . S
C1675 C1674 1.415 . S
H1676 C1673 0.999 . S
H1677 C1658 0.913 . S
H1678 C1696 0.951 . S
H1679 C1698 0.951 . S
H1680 C1700 0.950 . S
H1681 C1701 0.950 . S
H1682 C1703 0.950 . S
H1683 C1706 0.950 1_545 S
H1684 C1707 0.950 . S
H1685 C1709 0.950 . S
H1686 C1710 0.950 . S
H1687 C1711 0.951 . S
H1688 C1713 0.951 . S
H1689 C1715 0.950 . S
H1690 C1716 0.950 . S
H1691 C1718 0.950 . S
H1692 C1721 0.950 . S
H1693 C1722 0.950 . S
H1694 C1724 0.950 . S
H1695 C1725 0.950 . S
C1696 H1678 0.951 . S
C1696 C1697 1.366 . S
C1696 C1698 1.388 . S
C1697 C1696 1.366 . S
C1697 C1701 1.385 . S
C1698 H1679 0.951 . S
C1698 C1696 1.388 . S
C1698 C1699 1.366 . S
C1699 C1698 1.366 . S
C1699 C1700 1.414 . S
C1699 C1702 1.499 . S
C1700 H1680 0.950 . S
C1700 C1699 1.414 . S
C1700 C1701 1.374 . S
C1701 H1681 0.950 . S
C1701 C1697 1.385 . S
C1701 C1700 1.374 . S
C1702 C1699 1.499 . S
C1702 C1703 1.373 . S
C1702 C1704 1.389 . S
C1703 H1682 0.950 . S
C1703 C1702 1.373 . S
C1703 C1719 1.379 . S
C1704 C1702 1.389 . S
C1704 C1705 1.524 . S
C1704 C1718 1.377 1_565 S
C1705 C1704 1.524 . S
C1705 C1706 1.397 . S
C1705 C1710 1.363 . S
C1706 H1683 0.950 1_565 S
C1706 C1705 1.397 . S
C1706 C1707 1.334 . S
C1707 H1684 0.950 . S
C1707 C1706 1.334 . S
C1707 C1708 1.287 . S
C1708 C1707 1.287 . S
C1708 C1709 1.524 . S
C1708 H1727 0.913 . S
C1709 H1685 0.950 . S
C1709 C1708 1.524 . S
C1709 C1710 1.415 . S
C1710 H1686 0.950 . S
C1710 C1705 1.363 . S
C1710 C1709 1.415 . S
C1711 H1687 0.951 . S
C1711 C1712 1.366 . S
C1711 C1713 1.388 . S
C1712 C1711 1.366 . S
C1712 C1716 1.385 . S
C1713 H1688 0.951 . S
C1713 C1711 1.388 . S
C1713 C1714 1.366 . S
C1714 C1713 1.366 . S
C1714 C1715 1.414 . S
C1714 C1717 1.499 . S
C1715 H1689 0.950 . S
C1715 C1714 1.414 . S
C1715 C1716 1.374 . S
C1716 H1690 0.950 . S
C1716 C1712 1.385 . S
C1716 C1715 1.374 . S
C1717 C1714 1.499 . S
C1717 C1718 1.373 . S
C1717 C1719 1.388 1_545 S
C1718 H1691 0.950 . S
C1718 C1704 1.377 1_545 S
C1718 C1717 1.373 . S
C1719 C1703 1.379 . S
C1719 C1717 1.388 1_565 S
C1719 C1720 1.524 1_565 S
C1720 C1719 1.524 1_545 S
C1720 C1721 1.397 1_545 S
C1720 C1725 1.363 . S
C1721 H1692 0.950 . S
C1721 C1720 1.397 1_565 S
C1721 C1722 1.334 . S
C1722 H1693 0.950 . S
C1722 C1721 1.334 . S
C1722 C1723 1.287 1_565 S
C1723 C1722 1.287 1_545 S
C1723 C1724 1.524 . S
C1723 H1726 0.999 . S
C1724 H1694 0.950 . S
C1724 C1723 1.524 . S
C1724 C1725 1.415 . S
C1725 H1695 0.950 . S
C1725 C1720 1.363 . S
C1725 C1724 1.415 . S
H1726 C1723 0.999 . S
H1727 C1708 0.913 . S
H1728 C1746 0.951 . S
H1729 C1748 0.951 . S
H1730 C1750 0.950 . S
H1731 C1751 0.950 . S
H1732 C1753 0.950 . S
H1733 C1756 0.950 . S
H1734 C1757 0.950 . S
H1735 C1759 0.950 . S
H1736 C1760 0.950 . S
H1737 C1761 0.951 . S
H1738 C1763 0.951 . S
H1739 C1765 0.950 . S
H1740 C1766 0.950 . S
H1741 C1768 0.950 . S
H1742 C1771 0.950 . S
H1743 C1772 0.950 . S
H1744 C1774 0.950 . S
H1745 C1775 0.950 . S
C1746 H1728 0.951 . S
C1746 C1747 1.366 . S
C1746 C1748 1.388 . S
C1747 C1746 1.366 . S
C1747 C1751 1.385 . S
C1748 H1729 0.951 . S
C1748 C1746 1.388 . S
C1748 C1749 1.366 . S
C1749 C1748 1.366 . S
C1749 C1750 1.414 . S
C1749 C1752 1.499 . S
C1750 H1730 0.950 . S
C1750 C1749 1.414 . S
C1750 C1751 1.374 . S
C1751 H1731 0.950 . S
C1751 C1747 1.385 . S
C1751 C1750 1.374 . S
C1752 C1749 1.499 . S
C1752 C1753 1.373 . S
C1752 C1754 1.389 . S
C1753 H1732 0.950 . S
C1753 C1752 1.373 . S
C1753 C1769 1.377 . S
C1754 C1752 1.389 . S
C1754 C1755 1.524 . S
C1754 C1768 1.377 . S
C1755 C1754 1.524 . S
C1755 C1756 1.397 . S
C1755 C1760 1.363 . S
C1756 H1733 0.950 . S
C1756 C1755 1.397 . S
C1756 C1757 1.334 . S
C1757 H1734 0.950 . S
C1757 C1756 1.334 . S
C1757 C1758 1.287 . S
C1758 C1757 1.287 . S
C1758 C1759 1.524 . S
C1758 H1777 0.913 . S
C1759 H1735 0.950 . S
C1759 C1758 1.524 . S
C1759 C1760 1.415 . S
C1760 H1736 0.950 . S
C1760 C1755 1.363 . S
C1760 C1759 1.415 . S
C1761 H1737 0.951 . S
C1761 C1762 1.366 . S
C1761 C1763 1.388 . S
C1762 C1761 1.366 . S
C1762 C1766 1.385 . S
C1763 H1738 0.951 . S
C1763 C1761 1.388 . S
C1763 C1764 1.366 . S
C1764 C1763 1.366 . S
C1764 C1765 1.414 . S
C1764 C1767 1.499 . S
C1765 H1739 0.950 . S
C1765 C1764 1.414 . S
C1765 C1766 1.374 . S
C1766 H1740 0.950 . S
C1766 C1762 1.385 . S
C1766 C1765 1.374 . S
C1767 C1764 1.499 . S
C1767 C1768 1.373 . S
C1767 C1769 1.389 . S
C1768 H1741 0.950 . S
C1768 C1754 1.377 . S
C1768 C1767 1.373 . S
C1769 C1753 1.377 . S
C1769 C1767 1.389 . S
C1769 C1770 1.524 . S
C1770 C1769 1.524 . S
C1770 C1771 1.397 . S
C1770 C1775 1.363 . S
C1771 H1742 0.950 . S
C1771 C1770 1.397 . S
C1771 C1772 1.334 . S
C1772 H1743 0.950 . S
C1772 C1771 1.334 . S
C1772 C1773 1.287 . S
C1773 C1772 1.287 . S
C1773 C1774 1.524 . S
C1773 H1776 0.999 . S
C1774 H1744 0.950 . S
C1774 C1773 1.524 . S
C1774 C1775 1.415 . S
C1775 H1745 0.950 . S
C1775 C1770 1.363 . S
C1775 C1774 1.415 . S
H1776 C1773 0.999 . S
H1777 C1758 0.913 . S
H1778 C1796 0.951 . S
H1779 C1798 0.951 . S
H1780 C1800 0.950 . S
H1781 C1801 0.950 . S
H1782 C1803 0.950 . S
H1783 C1806 0.950 . S
H1784 C1807 0.950 . S
H1785 C1809 0.950 . S
H1786 C1810 0.950 . S
H1787 C1811 0.951 . S
H1788 C1813 0.951 . S
H1789 C1815 0.950 . S
H1790 C1816 0.950 . S
H1791 C1818 0.950 . S
H1792 C1821 0.950 . S
H1793 C1822 0.950 . S
H1794 C1824 0.950 . S
H1795 C1825 0.950 . S
C1796 H1778 0.951 . S
C1796 C1797 1.366 . S
C1796 C1798 1.388 . S
C1797 C1796 1.366 . S
C1797 C1801 1.385 . S
C1798 H1779 0.951 . S
C1798 C1796 1.388 . S
C1798 C1799 1.366 . S
C1799 C1798 1.366 . S
C1799 C1800 1.414 . S
C1799 C1802 1.499 . S
C1800 H1780 0.950 . S
C1800 C1799 1.414 . S
C1800 C1801 1.374 . S
C1801 H1781 0.950 . S
C1801 C1797 1.385 . S
C1801 C1800 1.374 . S
C1802 C1799 1.499 . S
C1802 C1803 1.373 . S
C1802 C1804 1.389 . S
C1803 H1782 0.950 . S
C1803 C1802 1.373 . S
C1803 C1819 1.377 . S
C1804 C1802 1.389 . S
C1804 C1805 1.524 . S
C1804 C1818 1.377 . S
C1805 C1804 1.524 . S
C1805 C1806 1.397 . S
C1805 C1810 1.363 . S
C1806 H1783 0.950 . S
C1806 C1805 1.397 . S
C1806 C1807 1.334 . S
C1807 H1784 0.950 . S
C1807 C1806 1.334 . S
C1807 C1808 1.287 . S
C1808 C1807 1.287 . S
C1808 C1809 1.524 . S
C1808 H1827 0.913 . S
C1809 H1785 0.950 . S
C1809 C1808 1.524 . S
C1809 C1810 1.415 . S
C1810 H1786 0.950 . S
C1810 C1805 1.363 . S
C1810 C1809 1.415 . S
C1811 H1787 0.951 . S
C1811 C1812 1.366 . S
C1811 C1813 1.388 . S
C1812 C1811 1.366 . S
C1812 C1816 1.385 . S
C1813 H1788 0.951 . S
C1813 C1811 1.388 . S
C1813 C1814 1.366 . S
C1814 C1813 1.366 . S
C1814 C1815 1.414 . S
C1814 C1817 1.499 . S
C1815 H1789 0.950 . S
C1815 C1814 1.414 . S
C1815 C1816 1.374 . S
C1816 H1790 0.950 . S
C1816 C1812 1.385 . S
C1816 C1815 1.374 . S
C1817 C1814 1.499 . S
C1817 C1818 1.373 . S
C1817 C1819 1.389 . S
C1818 H1791 0.950 . S
C1818 C1804 1.377 . S
C1818 C1817 1.373 . S
C1819 C1803 1.377 . S
C1819 C1817 1.389 . S
C1819 C1820 1.524 . S
C1820 C1819 1.524 . S
C1820 C1821 1.397 . S
C1820 C1825 1.363 . S
C1821 H1792 0.950 . S
C1821 C1820 1.397 . S
C1821 C1822 1.334 . S
C1822 H1793 0.950 . S
C1822 C1821 1.334 . S
C1822 C1823 1.287 . S
C1823 C1822 1.287 . S
C1823 C1824 1.524 . S
C1823 H1826 0.999 . S
C1824 H1794 0.950 . S
C1824 C1823 1.524 . S
C1824 C1825 1.415 . S
C1825 H1795 0.950 . S
C1825 C1820 1.363 . S
C1825 C1824 1.415 . S
H1826 C1823 0.999 . S
H1827 C1808 0.913 . S
H1828 C1846 0.951 . S
H1829 C1848 0.951 . S
H1830 C1850 0.950 . S
H1831 C1851 0.950 . S
H1832 C1853 0.950 . S
H1833 C1856 0.950 . S
H1834 C1857 0.950 . S
H1835 C1859 0.950 . S
H1836 C1860 0.950 . S
H1837 C1861 0.951 . S
H1838 C1863 0.951 . S
H1839 C1865 0.950 . S
H1840 C1866 0.950 . S
H1841 C1868 0.950 . S
H1842 C1871 0.950 . S
H1843 C1872 0.950 . S
H1844 C1874 0.950 . S
H1845 C1875 0.950 . S
C1846 H1828 0.951 . S
C1846 C1847 1.366 . S
C1846 C1848 1.388 . S
C1847 C1846 1.366 . S
C1847 C1851 1.385 . S
C1848 H1829 0.951 . S
C1848 C1846 1.388 . S
C1848 C1849 1.366 . S
C1849 C1848 1.366 . S
C1849 C1850 1.414 . S
C1849 C1852 1.499 . S
C1850 H1830 0.950 . S
C1850 C1849 1.414 . S
C1850 C1851 1.374 . S
C1851 H1831 0.950 . S
C1851 C1847 1.385 . S
C1851 C1850 1.374 . S
C1852 C1849 1.499 . S
C1852 C1853 1.373 . S
C1852 C1854 1.389 . S
C1853 H1832 0.950 . S
C1853 C1852 1.373 . S
C1853 C1869 1.377 . S
C1854 C1852 1.389 . S
C1854 C1855 1.524 . S
C1854 C1868 1.377 . S
C1855 C1854 1.524 . S
C1855 C1856 1.397 . S
C1855 C1860 1.363 . S
C1856 H1833 0.950 . S
C1856 C1855 1.397 . S
C1856 C1857 1.334 . S
C1857 H1834 0.950 . S
C1857 C1856 1.334 . S
C1857 C1858 1.287 . S
C1858 C1857 1.287 . S
C1858 C1859 1.524 . S
C1858 H1877 0.913 . S
C1859 H1835 0.950 . S
C1859 C1858 1.524 . S
C1859 C1860 1.415 . S
C1860 H1836 0.950 . S
C1860 C1855 1.363 . S
C1860 C1859 1.415 . S
C1861 H1837 0.951 . S
C1861 C1862 1.366 . S
C1861 C1863 1.388 . S
C1862 C1861 1.366 . S
C1862 C1866 1.385 . S
C1863 H1838 0.951 . S
C1863 C1861 1.388 . S
C1863 C1864 1.366 . S
C1864 C1863 1.366 . S
C1864 C1865 1.414 . S
C1864 C1867 1.499 . S
C1865 H1839 0.950 . S
C1865 C1864 1.414 . S
C1865 C1866 1.374 . S
C1866 H1840 0.950 . S
C1866 C1862 1.385 . S
C1866 C1865 1.374 . S
C1867 C1864 1.499 . S
C1867 C1868 1.373 . S
C1867 C1869 1.389 . S
C1868 H1841 0.950 . S
C1868 C1854 1.377 . S
C1868 C1867 1.373 . S
C1869 C1853 1.377 . S
C1869 C1867 1.389 . S
C1869 C1870 1.524 . S
C1870 C1869 1.524 . S
C1870 C1871 1.397 . S
C1870 C1875 1.363 . S
C1871 H1842 0.950 . S
C1871 C1870 1.397 . S
C1871 C1872 1.334 . S
C1872 H1843 0.950 . S
C1872 C1871 1.334 . S
C1872 C1873 1.287 . S
C1873 C1872 1.287 . S
C1873 C1874 1.524 . S
C1873 H1876 0.999 . S
C1874 H1844 0.950 . S
C1874 C1873 1.524 . S
C1874 C1875 1.415 . S
C1875 H1845 0.950 . S
C1875 C1870 1.363 . S
C1875 C1874 1.415 . S
H1876 C1873 0.999 . S
H1877 C1858 0.913 . S
H1878 C1896 0.951 . S
H1879 C1898 0.951 . S
H1880 C1900 0.950 . S
H1881 C1901 0.950 . S
H1882 C1903 0.950 . S
H1883 C1906 0.950 . S
H1884 C1907 0.950 . S
H1885 C1909 0.950 . S
H1886 C1910 0.950 . S
H1887 C1911 0.951 . S
H1888 C1913 0.951 . S
H1889 C1915 0.950 . S
H1890 C1916 0.950 . S
H1891 C1918 0.950 . S
H1892 C1921 0.950 . S
H1893 C1922 0.950 . S
H1894 C1924 0.950 . S
H1895 C1925 0.950 . S
C1896 H1878 0.951 . S
C1896 C1897 1.366 . S
C1896 C1898 1.388 . S
C1897 C1896 1.366 . S
C1897 C1901 1.385 . S
C1898 H1879 0.951 . S
C1898 C1896 1.388 . S
C1898 C1899 1.366 . S
C1899 C1898 1.366 . S
C1899 C1900 1.414 . S
C1899 C1902 1.499 . S
C1900 H1880 0.950 . S
C1900 C1899 1.414 . S
C1900 C1901 1.374 . S
C1901 H1881 0.950 . S
C1901 C1897 1.385 . S
C1901 C1900 1.374 . S
C1902 C1899 1.499 . S
C1902 C1903 1.373 . S
C1902 C1904 1.389 . S
C1903 H1882 0.950 . S
C1903 C1902 1.373 . S
C1903 C1919 1.377 . S
C1904 C1902 1.389 . S
C1904 C1905 1.524 . S
C1904 C1918 1.377 . S
C1905 C1904 1.524 . S
C1905 C1906 1.397 . S
C1905 C1910 1.363 . S
C1906 H1883 0.950 . S
C1906 C1905 1.397 . S
C1906 C1907 1.334 . S
C1907 H1884 0.950 . S
C1907 C1906 1.334 . S
C1907 C1908 1.287 . S
C1908 C1907 1.287 . S
C1908 C1909 1.524 . S
C1908 H1927 0.913 . S
C1909 H1885 0.950 . S
C1909 C1908 1.524 . S
C1909 C1910 1.415 . S
C1910 H1886 0.950 . S
C1910 C1905 1.363 . S
C1910 C1909 1.415 . S
C1911 H1887 0.951 . S
C1911 C1912 1.366 . S
C1911 C1913 1.388 . S
C1912 C1911 1.366 . S
C1912 C1916 1.385 . S
C1913 H1888 0.951 . S
C1913 C1911 1.388 . S
C1913 C1914 1.366 . S
C1914 C1913 1.366 . S
C1914 C1915 1.414 . S
C1914 C1917 1.499 . S
C1915 H1889 0.950 . S
C1915 C1914 1.414 . S
C1915 C1916 1.374 . S
C1916 H1890 0.950 . S
C1916 C1912 1.385 . S
C1916 C1915 1.374 . S
C1917 C1914 1.499 . S
C1917 C1918 1.373 . S
C1917 C1919 1.389 . S
C1918 H1891 0.950 . S
C1918 C1904 1.377 . S
C1918 C1917 1.373 . S
C1919 C1903 1.377 . S
C1919 C1917 1.389 . S
C1919 C1920 1.524 . S
C1920 C1919 1.524 . S
C1920 C1921 1.397 . S
C1920 C1925 1.363 . S
C1921 H1892 0.950 . S
C1921 C1920 1.397 . S
C1921 C1922 1.334 . S
C1922 H1893 0.950 . S
C1922 C1921 1.334 . S
C1922 C1923 1.287 . S
C1923 C1922 1.287 . S
C1923 C1924 1.524 . S
C1923 H1926 0.999 . S
C1924 H1894 0.950 . S
C1924 C1923 1.524 . S
C1924 C1925 1.415 . S
C1925 H1895 0.950 . S
C1925 C1920 1.363 . S
C1925 C1924 1.415 . S
H1926 C1923 0.999 . S
H1927 C1908 0.913 . S
H1928 C1946 0.951 . S
H1929 C1948 0.951 . S
H1930 C1950 0.950 . S
H1931 C1951 0.950 . S
H1932 C1953 0.950 . S
H1933 C1956 0.950 . S
H1934 C1957 0.950 . S
H1935 C1959 0.950 . S
H1936 C1960 0.950 . S
H1937 C1961 0.951 . S
H1938 C1963 0.951 . S
H1939 C1965 0.950 . S
H1940 C1966 0.950 . S
H1941 C1968 0.950 . S
H1942 C1971 0.950 . S
H1943 C1972 0.950 . S
H1944 C1974 0.950 . S
H1945 C1975 0.950 . S
C1946 H1928 0.951 . S
C1946 C1947 1.366 . S
C1946 C1948 1.388 . S
C1947 C1946 1.366 . S
C1947 C1951 1.385 . S
C1948 H1929 0.951 . S
C1948 C1946 1.388 . S
C1948 C1949 1.366 . S
C1949 C1948 1.366 . S
C1949 C1950 1.414 . S
C1949 C1952 1.499 . S
C1950 H1930 0.950 . S
C1950 C1949 1.414 . S
C1950 C1951 1.374 . S
C1951 H1931 0.950 . S
C1951 C1947 1.385 . S
C1951 C1950 1.374 . S
C1952 C1949 1.499 . S
C1952 C1953 1.373 . S
C1952 C1954 1.389 . S
C1953 H1932 0.950 . S
C1953 C1952 1.373 . S
C1953 C1969 1.377 . S
C1954 C1952 1.389 . S
C1954 C1955 1.524 . S
C1954 C1968 1.377 . S
C1955 C1954 1.524 . S
C1955 C1956 1.397 . S
C1955 C1960 1.363 . S
C1956 H1933 0.950 . S
C1956 C1955 1.397 . S
C1956 C1957 1.334 . S
C1957 H1934 0.950 . S
C1957 C1956 1.334 . S
C1957 C1958 1.287 . S
C1958 C1957 1.287 . S
C1958 C1959 1.524 . S
C1958 H1977 0.913 . S
C1959 H1935 0.950 . S
C1959 C1958 1.524 . S
C1959 C1960 1.415 . S
C1960 H1936 0.950 . S
C1960 C1955 1.363 . S
C1960 C1959 1.415 . S
C1961 H1937 0.951 . S
C1961 C1962 1.366 . S
C1961 C1963 1.388 . S
C1962 C1961 1.366 . S
C1962 C1966 1.385 . S
C1963 H1938 0.951 . S
C1963 C1961 1.388 . S
C1963 C1964 1.366 . S
C1964 C1963 1.366 . S
C1964 C1965 1.414 . S
C1964 C1967 1.499 . S
C1965 H1939 0.950 . S
C1965 C1964 1.414 . S
C1965 C1966 1.374 . S
C1966 H1940 0.950 . S
C1966 C1962 1.385 . S
C1966 C1965 1.374 . S
C1967 C1964 1.499 . S
C1967 C1968 1.373 . S
C1967 C1969 1.389 . S
C1968 H1941 0.950 . S
C1968 C1954 1.377 . S
C1968 C1967 1.373 . S
C1969 C1953 1.377 . S
C1969 C1967 1.389 . S
C1969 C1970 1.524 . S
C1970 C1969 1.524 . S
C1970 C1971 1.397 . S
C1970 C1975 1.363 . S
C1971 H1942 0.950 . S
C1971 C1970 1.397 . S
C1971 C1972 1.334 . S
C1972 H1943 0.950 . S
C1972 C1971 1.334 . S
C1972 C1973 1.287 . S
C1973 C1972 1.287 . S
C1973 C1974 1.524 . S
C1973 H1976 0.999 . S
C1974 H1944 0.950 . S
C1974 C1973 1.524 . S
C1974 C1975 1.415 . S
C1975 H1945 0.950 . S
C1975 C1970 1.363 . S
C1975 C1974 1.415 . S
H1976 C1973 0.999 . S
H1977 C1958 0.913 . S
H1978 C1996 0.951 . S
H1979 C1998 0.951 . S
H1980 C2000 0.950 . S
H1981 C2001 0.950 . S
H1982 C2003 0.950 . S
H1983 C2006 0.950 . S
H1984 C2007 0.950 . S
H1985 C2009 0.950 . S
H1986 C2010 0.950 . S
H1987 C2011 0.951 . S
H1988 C2013 0.951 . S
H1989 C2015 0.950 . S
H1990 C2016 0.950 . S
H1991 C2018 0.950 . S
H1992 C2021 0.950 . S
H1993 C2022 0.950 . S
H1994 C2024 0.950 . S
H1995 C2025 0.950 . S
C1996 H1978 0.951 . S
C1996 C1997 1.366 . S
C1996 C1998 1.388 . S
C1997 C1996 1.366 . S
C1997 C2001 1.385 . S
C1998 H1979 0.951 . S
C1998 C1996 1.388 . S
C1998 C1999 1.366 . S
C1999 C1998 1.366 . S
C1999 C2000 1.414 . S
C1999 C2002 1.499 . S
C2000 H1980 0.950 . S
C2000 C1999 1.414 . S
C2000 C2001 1.374 . S
C2001 H1981 0.950 . S
C2001 C1997 1.385 . S
C2001 C2000 1.374 . S
C2002 C1999 1.499 . S
C2002 C2003 1.373 . S
C2002 C2004 1.389 . S
C2003 H1982 0.950 . S
C2003 C2002 1.373 . S
C2003 C2019 1.377 . S
C2004 C2002 1.389 . S
C2004 C2005 1.524 . S
C2004 C2018 1.377 . S
C2005 C2004 1.524 . S
C2005 C2006 1.397 . S
C2005 C2010 1.363 . S
C2006 H1983 0.950 . S
C2006 C2005 1.397 . S
C2006 C2007 1.334 . S
C2007 H1984 0.950 . S
C2007 C2006 1.334 . S
C2007 C2008 1.287 . S
C2008 C2007 1.287 . S
C2008 C2009 1.524 . S
C2008 H2027 0.913 . S
C2009 H1985 0.950 . S
C2009 C2008 1.524 . S
C2009 C2010 1.415 . S
C2010 H1986 0.950 . S
C2010 C2005 1.363 . S
C2010 C2009 1.415 . S
C2011 H1987 0.951 . S
C2011 C2012 1.366 . S
C2011 C2013 1.388 . S
C2012 C2011 1.366 . S
C2012 C2016 1.385 . S
C2013 H1988 0.951 . S
C2013 C2011 1.388 . S
C2013 C2014 1.366 . S
C2014 C2013 1.366 . S
C2014 C2015 1.414 . S
C2014 C2017 1.499 . S
C2015 H1989 0.950 . S
C2015 C2014 1.414 . S
C2015 C2016 1.374 . S
C2016 H1990 0.950 . S
C2016 C2012 1.385 . S
C2016 C2015 1.374 . S
C2017 C2014 1.499 . S
C2017 C2018 1.373 . S
C2017 C2019 1.389 . S
C2018 H1991 0.950 . S
C2018 C2004 1.377 . S
C2018 C2017 1.373 . S
C2019 C2003 1.377 . S
C2019 C2017 1.389 . S
C2019 C2020 1.524 . S
C2020 C2019 1.524 . S
C2020 C2021 1.397 . S
C2020 C2025 1.363 . S
C2021 H1992 0.950 . S
C2021 C2020 1.397 . S
C2021 C2022 1.334 . S
C2022 H1993 0.950 . S
C2022 C2021 1.334 . S
C2022 C2023 1.287 . S
C2023 C2022 1.287 . S
C2023 C2024 1.524 . S
C2023 H2026 0.999 . S
C2024 H1994 0.950 . S
C2024 C2023 1.524 . S
C2024 C2025 1.415 . S
C2025 H1995 0.950 . S
C2025 C2020 1.363 . S
C2025 C2024 1.415 . S
H2026 C2023 0.999 . S
H2027 C2008 0.913 . S
H2028 C2046 0.951 . S
H2029 C2048 0.951 . S
H2030 C2050 0.950 . S
H2031 C2051 0.950 . S
H2032 C2053 0.950 . S
H2033 C2056 0.950 . S
H2034 C2057 0.950 . S
H2035 C2059 0.950 . S
H2036 C2060 0.950 . S
H2037 C2061 0.951 . S
H2038 C2063 0.951 . S
H2039 C2065 0.950 . S
H2040 C2066 0.950 . S
H2041 C2068 0.950 . S
H2042 C2071 0.950 . S
H2043 C2072 0.950 . S
H2044 C2074 0.950 . S
H2045 C2075 0.950 . S
C2046 H2028 0.951 . S
C2046 C2047 1.366 . S
C2046 C2048 1.388 . S
C2047 C2046 1.366 . S
C2047 C2051 1.385 . S
C2048 H2029 0.951 . S
C2048 C2046 1.388 . S
C2048 C2049 1.366 . S
C2049 C2048 1.366 . S
C2049 C2050 1.414 . S
C2049 C2052 1.499 . S
C2050 H2030 0.950 . S
C2050 C2049 1.414 . S
C2050 C2051 1.374 . S
C2051 H2031 0.950 . S
C2051 C2047 1.385 . S
C2051 C2050 1.374 . S
C2052 C2049 1.499 . S
C2052 C2053 1.373 . S
C2052 C2054 1.389 . S
C2053 H2032 0.950 . S
C2053 C2052 1.373 . S
C2053 C2069 1.377 . S
C2054 C2052 1.389 . S
C2054 C2055 1.524 . S
C2054 C2068 1.377 . S
C2055 C2054 1.524 . S
C2055 C2056 1.397 . S
C2055 C2060 1.363 . S
C2056 H2033 0.950 . S
C2056 C2055 1.397 . S
C2056 C2057 1.334 . S
C2057 H2034 0.950 . S
C2057 C2056 1.334 . S
C2057 C2058 1.287 . S
C2058 C2057 1.287 . S
C2058 C2059 1.524 . S
C2058 H2077 0.913 . S
C2059 H2035 0.950 . S
C2059 C2058 1.524 . S
C2059 C2060 1.415 . S
C2060 H2036 0.950 . S
C2060 C2055 1.363 . S
C2060 C2059 1.415 . S
C2061 H2037 0.951 . S
C2061 C2062 1.366 . S
C2061 C2063 1.388 . S
C2062 C2061 1.366 . S
C2062 C2066 1.385 . S
C2063 H2038 0.951 . S
C2063 C2061 1.388 . S
C2063 C2064 1.366 . S
C2064 C2063 1.366 . S
C2064 C2065 1.414 . S
C2064 C2067 1.499 . S
C2065 H2039 0.950 . S
C2065 C2064 1.414 . S
C2065 C2066 1.374 . S
C2066 H2040 0.950 . S
C2066 C2062 1.385 . S
C2066 C2065 1.374 . S
C2067 C2064 1.499 . S
C2067 C2068 1.373 . S
C2067 C2069 1.389 . S
C2068 H2041 0.950 . S
C2068 C2054 1.377 . S
C2068 C2067 1.373 . S
C2069 C2053 1.377 . S
C2069 C2067 1.389 . S
C2069 C2070 1.524 . S
C2070 C2069 1.524 . S
C2070 C2071 1.397 . S
C2070 C2075 1.363 . S
C2071 H2042 0.950 . S
C2071 C2070 1.397 . S
C2071 C2072 1.334 . S
C2072 H2043 0.950 . S
C2072 C2071 1.334 . S
C2072 C2073 1.287 . S
C2073 C2072 1.287 . S
C2073 C2074 1.524 . S
C2073 H2076 0.999 . S
C2074 H2044 0.950 . S
C2074 C2073 1.524 . S
C2074 C2075 1.415 . S
C2075 H2045 0.950 . S
C2075 C2070 1.363 . S
C2075 C2074 1.415 . S
H2076 C2073 0.999 . S
H2077 C2058 0.913 . S
H2078 C2096 0.951 . S
H2079 C2098 0.951 . S
H2080 C2100 0.950 . S
H2081 C2101 0.950 . S
H2082 C2103 0.950 . S
H2083 C2106 0.950 . S
H2084 C2107 0.950 . S
H2085 C2109 0.950 . S
H2086 C2110 0.950 . S
H2087 C2111 0.951 . S
H2088 C2113 0.951 . S
H2089 C2115 0.950 . S
H2090 C2116 0.950 . S
H2091 C2118 0.950 . S
H2092 C2121 0.950 . S
H2093 C2122 0.950 . S
H2094 C2124 0.950 . S
H2095 C2125 0.950 . S
C2096 H2078 0.951 . S
C2096 C2097 1.366 . S
C2096 C2098 1.388 . S
C2097 C2096 1.366 . S
C2097 C2101 1.385 . S
C2098 H2079 0.951 . S
C2098 C2096 1.388 . S
C2098 C2099 1.366 . S
C2099 C2098 1.366 . S
C2099 C2100 1.414 . S
C2099 C2102 1.499 . S
C2100 H2080 0.950 . S
C2100 C2099 1.414 . S
C2100 C2101 1.374 . S
C2101 H2081 0.950 . S
C2101 C2097 1.385 . S
C2101 C2100 1.374 . S
C2102 C2099 1.499 . S
C2102 C2103 1.373 . S
C2102 C2104 1.389 . S
C2103 H2082 0.950 . S
C2103 C2102 1.373 . S
C2103 C2119 1.377 . S
C2104 C2102 1.389 . S
C2104 C2105 1.524 . S
C2104 C2118 1.377 . S
C2105 C2104 1.524 . S
C2105 C2106 1.397 . S
C2105 C2110 1.363 . S
C2106 H2083 0.950 . S
C2106 C2105 1.397 . S
C2106 C2107 1.334 . S
C2107 H2084 0.950 . S
C2107 C2106 1.334 . S
C2107 C2108 1.287 . S
C2108 C2107 1.287 . S
C2108 C2109 1.524 . S
C2108 H2127 0.913 . S
C2109 H2085 0.950 . S
C2109 C2108 1.524 . S
C2109 C2110 1.415 . S
C2110 H2086 0.950 . S
C2110 C2105 1.363 . S
C2110 C2109 1.415 . S
C2111 H2087 0.951 . S
C2111 C2112 1.366 . S
C2111 C2113 1.388 . S
C2112 C2111 1.366 . S
C2112 C2116 1.385 . S
C2113 H2088 0.951 . S
C2113 C2111 1.388 . S
C2113 C2114 1.366 . S
C2114 C2113 1.366 . S
C2114 C2115 1.414 . S
C2114 C2117 1.499 . S
C2115 H2089 0.950 . S
C2115 C2114 1.414 . S
C2115 C2116 1.374 . S
C2116 H2090 0.950 . S
C2116 C2112 1.385 . S
C2116 C2115 1.374 . S
C2117 C2114 1.499 . S
C2117 C2118 1.373 . S
C2117 C2119 1.389 . S
C2118 H2091 0.950 . S
C2118 C2104 1.377 . S
C2118 C2117 1.373 . S
C2119 C2103 1.377 . S
C2119 C2117 1.389 . S
C2119 C2120 1.524 . S
C2120 C2119 1.524 . S
C2120 C2121 1.397 . S
C2120 C2125 1.363 . S
C2121 H2092 0.950 . S
C2121 C2120 1.397 . S
C2121 C2122 1.334 . S
C2122 H2093 0.950 . S
C2122 C2121 1.334 . S
C2122 C2123 1.287 . S
C2123 C2122 1.287 . S
C2123 C2124 1.524 . S
C2123 H2126 0.999 . S
C2124 H2094 0.950 . S
C2124 C2123 1.524 . S
C2124 C2125 1.415 . S
C2125 H2095 0.950 . S
C2125 C2120 1.363 . S
C2125 C2124 1.415 . S
H2126 C2123 0.999 . S
H2127 C2108 0.913 . S
H2128 C2146 0.951 1_655 S
H2129 C2148 0.951 1_655 S
H2130 C2150 0.950 . S
H2131 C2151 0.950 . S
H2132 C2153 0.950 . S
H2133 C2156 0.950 . S
H2134 C2157 0.950 . S
H2135 C2159 0.952 . S
H2136 C2160 0.950 1_655 S
H2137 C2161 0.951 . S
H2138 C2163 0.951 . S
H2139 C2165 0.950 . S
H2140 C2166 0.950 . S
H2141 C2168 0.950 . S
H2142 C2171 0.950 . S
H2143 C2172 0.950 . S
H2144 C2174 0.950 . S
H2145 C2175 0.950 . S
C2146 H2128 0.951 1_455 S
C2146 C2147 1.366 . S
C2146 C2148 1.388 . S
C2147 C2146 1.366 . S
C2147 C2151 1.385 . S
C2148 H2129 0.951 1_455 S
C2148 C2146 1.388 . S
C2148 C2149 1.366 . S
C2149 C2148 1.366 . S
C2149 C2150 1.414 . S
C2149 C2152 1.499 . S
C2150 H2130 0.950 . S
C2150 C2149 1.414 . S
C2150 C2151 1.374 . S
C2151 H2131 0.950 . S
C2151 C2147 1.385 . S
C2151 C2150 1.374 . S
C2152 C2149 1.499 . S
C2152 C2153 1.373 . S
C2152 C2154 1.389 . S
C2153 H2132 0.950 . S
C2153 C2152 1.373 . S
C2153 C2169 1.377 . S
C2154 C2152 1.389 . S
C2154 C2155 1.524 . S
C2154 C2168 1.377 . S
C2155 C2154 1.524 . S
C2155 C2156 1.397 . S
C2155 C2160 1.363 . S
C2156 H2133 0.950 . S
C2156 C2155 1.397 . S
C2156 C2157 1.334 . S
C2157 H2134 0.950 . S
C2157 C2156 1.334 . S
C2157 C2158 1.287 . S
C2158 C2157 1.287 . S
C2158 C2159 1.524 . S
C2158 H2177 0.913 . S
C2159 H2135 0.952 . S
C2159 C2158 1.524 . S
C2159 C2160 1.415 . S
C2160 H2136 0.950 1_455 S
C2160 C2155 1.363 . S
C2160 C2159 1.415 . S
C2161 H2137 0.951 . S
C2161 C2162 1.366 . S
C2161 C2163 1.388 . S
C2162 C2161 1.366 . S
C2162 C2166 1.385 1_455 S
C2163 H2138 0.951 . S
C2163 C2161 1.388 . S
C2163 C2164 1.366 . S
C2164 C2163 1.366 . S
C2164 C2165 1.414 1_455 S
C2164 C2167 1.499 . S
C2165 H2139 0.950 . S
C2165 C2164 1.414 1_655 S
C2165 C2166 1.374 . S
C2166 H2140 0.950 . S
C2166 C2162 1.385 1_655 S
C2166 C2165 1.374 . S
C2167 C2164 1.499 . S
C2167 C2168 1.373 . S
C2167 C2169 1.389 . S
C2168 H2141 0.950 . S
C2168 C2154 1.377 . S
C2168 C2167 1.373 . S
C2169 C2153 1.377 . S
C2169 C2167 1.389 . S
C2169 C2170 1.524 . S
C2170 C2169 1.524 . S
C2170 C2171 1.397 1_455 S
C2170 C2175 1.363 . S
C2171 H2142 0.950 . S
C2171 C2170 1.397 1_655 S
C2171 C2172 1.334 . S
C2172 H2143 0.950 . S
C2172 C2171 1.334 . S
C2172 C2173 1.287 . S
C2173 C2172 1.287 . S
C2173 C2174 1.524 1_655 S
C2173 H2176 0.999 . S
C2174 H2144 0.950 . S
C2174 C2173 1.524 1_455 S
C2174 C2175 1.415 . S
C2175 H2145 0.950 . S
C2175 C2170 1.363 . S
C2175 C2174 1.415 . S
H2176 C2173 0.999 . S
H2177 C2158 0.913 . S
H2178 C2196 0.951 . S
H2179 C2198 0.951 . S
H2180 C2200 0.950 . S
H2181 C2201 0.950 . S
H2182 C2203 0.950 . S
H2183 C2206 0.950 . S
H2184 C2207 0.950 . S
H2185 C2209 0.950 . S
H2186 C2210 0.950 . S
H2187 C2211 0.951 . S
H2188 C2213 0.951 . S
H2189 C2215 0.950 . S
H2190 C2216 0.950 . S
H2191 C2218 0.950 . S
H2192 C2221 0.950 . S
H2193 C2222 0.950 . S
H2194 C2224 0.950 . S
H2195 C2225 0.950 . S
C2196 H2178 0.951 . S
C2196 C2197 1.366 . S
C2196 C2198 1.388 . S
C2197 C2196 1.366 . S
C2197 C2201 1.385 . S
C2198 H2179 0.951 . S
C2198 C2196 1.388 . S
C2198 C2199 1.366 . S
C2199 C2198 1.366 . S
C2199 C2200 1.414 . S
C2199 C2202 1.499 . S
C2200 H2180 0.950 . S
C2200 C2199 1.414 . S
C2200 C2201 1.374 . S
C2201 H2181 0.950 . S
C2201 C2197 1.385 . S
C2201 C2200 1.374 . S
C2202 C2199 1.499 . S
C2202 C2203 1.373 . S
C2202 C2204 1.389 . S
C2203 H2182 0.950 . S
C2203 C2202 1.373 . S
C2203 C2219 1.377 . S
C2204 C2202 1.389 . S
C2204 C2205 1.524 . S
C2204 C2218 1.377 . S
C2205 C2204 1.524 . S
C2205 C2206 1.397 . S
C2205 C2210 1.363 . S
C2206 H2183 0.950 . S
C2206 C2205 1.397 . S
C2206 C2207 1.334 . S
C2207 H2184 0.950 . S
C2207 C2206 1.334 . S
C2207 C2208 1.287 . S
C2208 C2207 1.287 . S
C2208 C2209 1.524 . S
C2208 H2227 0.913 . S
C2209 H2185 0.950 . S
C2209 C2208 1.524 . S
C2209 C2210 1.415 . S
C2210 H2186 0.950 . S
C2210 C2205 1.363 . S
C2210 C2209 1.415 . S
C2211 H2187 0.951 . S
C2211 C2212 1.366 . S
C2211 C2213 1.388 . S
C2212 C2211 1.366 . S
C2212 C2216 1.385 . S
C2213 H2188 0.951 . S
C2213 C2211 1.388 . S
C2213 C2214 1.366 . S
C2214 C2213 1.366 . S
C2214 C2215 1.414 . S
C2214 C2217 1.499 . S
C2215 H2189 0.950 . S
C2215 C2214 1.414 . S
C2215 C2216 1.374 . S
C2216 H2190 0.950 . S
C2216 C2212 1.385 . S
C2216 C2215 1.374 . S
C2217 C2214 1.499 . S
C2217 C2218 1.373 . S
C2217 C2219 1.389 . S
C2218 H2191 0.950 . S
C2218 C2204 1.377 . S
C2218 C2217 1.373 . S
C2219 C2203 1.377 . S
C2219 C2217 1.389 . S
C2219 C2220 1.524 . S
C2220 C2219 1.524 . S
C2220 C2221 1.397 . S
C2220 C2225 1.363 . S
C2221 H2192 0.950 . S
C2221 C2220 1.397 . S
C2221 C2222 1.334 . S
C2222 H2193 0.950 . S
C2222 C2221 1.334 . S
C2222 C2223 1.287 . S
C2223 C2222 1.287 . S
C2223 C2224 1.524 . S
C2223 H2226 0.999 . S
C2224 H2194 0.950 . S
C2224 C2223 1.524 . S
C2224 C2225 1.415 . S
C2225 H2195 0.950 . S
C2225 C2220 1.363 . S
C2225 C2224 1.415 . S
H2226 C2223 0.999 . S
H2227 C2208 0.913 . S
H2228 C2246 0.951 . S
H2229 C2248 0.951 . S
H2230 C2250 0.950 . S
H2231 C2251 0.950 . S
H2232 C2253 0.950 . S
H2233 C2256 0.950 . S
H2234 C2257 0.950 . S
H2235 C2259 0.950 . S
H2236 C2260 0.950 . S
H2237 C2261 0.951 . S
H2238 C2263 0.951 . S
H2239 C2265 0.950 . S
H2240 C2266 0.950 . S
H2241 C2268 0.950 . S
H2242 C2271 0.950 . S
H2243 C2272 0.950 . S
H2244 C2274 0.950 . S
H2245 C2275 0.950 . S
C2246 H2228 0.951 . S
C2246 C2247 1.366 . S
C2246 C2248 1.388 . S
C2247 C2246 1.366 . S
C2247 C2251 1.385 . S
C2248 H2229 0.951 . S
C2248 C2246 1.388 . S
C2248 C2249 1.366 . S
C2249 C2248 1.366 . S
C2249 C2250 1.414 . S
C2249 C2252 1.499 . S
C2250 H2230 0.950 . S
C2250 C2249 1.414 . S
C2250 C2251 1.374 . S
C2251 H2231 0.950 . S
C2251 C2247 1.385 . S
C2251 C2250 1.374 . S
C2252 C2249 1.499 . S
C2252 C2253 1.373 . S
C2252 C2254 1.389 . S
C2253 H2232 0.950 . S
C2253 C2252 1.373 . S
C2253 C2269 1.377 . S
C2254 C2252 1.389 . S
C2254 C2255 1.524 . S
C2254 C2268 1.377 . S
C2255 C2254 1.524 . S
C2255 C2256 1.397 . S
C2255 C2260 1.363 . S
C2256 H2233 0.950 . S
C2256 C2255 1.397 . S
C2256 C2257 1.334 . S
C2257 H2234 0.950 . S
C2257 C2256 1.334 . S
C2257 C2258 1.287 . S
C2258 C2257 1.287 . S
C2258 C2259 1.524 . S
C2258 H2277 0.913 . S
C2259 H2235 0.950 . S
C2259 C2258 1.524 . S
C2259 C2260 1.415 . S
C2260 H2236 0.950 . S
C2260 C2255 1.363 . S
C2260 C2259 1.415 . S
C2261 H2237 0.951 . S
C2261 C2262 1.366 . S
C2261 C2263 1.388 . S
C2262 C2261 1.366 . S
C2262 C2266 1.385 . S
C2263 H2238 0.951 . S
C2263 C2261 1.388 . S
C2263 C2264 1.366 . S
C2264 C2263 1.366 . S
C2264 C2265 1.414 . S
C2264 C2267 1.499 . S
C2265 H2239 0.950 . S
C2265 C2264 1.414 . S
C2265 C2266 1.374 . S
C2266 H2240 0.950 . S
C2266 C2262 1.385 . S
C2266 C2265 1.374 . S
C2267 C2264 1.499 . S
C2267 C2268 1.373 . S
C2267 C2269 1.389 . S
C2268 H2241 0.950 . S
C2268 C2254 1.377 . S
C2268 C2267 1.373 . S
C2269 C2253 1.377 . S
C2269 C2267 1.389 . S
C2269 C2270 1.524 . S
C2270 C2269 1.524 . S
C2270 C2271 1.397 . S
C2270 C2275 1.363 . S
C2271 H2242 0.950 . S
C2271 C2270 1.397 . S
C2271 C2272 1.334 . S
C2272 H2243 0.950 . S
C2272 C2271 1.334 . S
C2272 C2273 1.287 . S
C2273 C2272 1.287 . S
C2273 C2274 1.524 . S
C2273 H2276 0.999 . S
C2274 H2244 0.950 . S
C2274 C2273 1.524 . S
C2274 C2275 1.415 . S
C2275 H2245 0.950 . S
C2275 C2270 1.363 . S
C2275 C2274 1.415 . S
H2276 C2273 0.999 . S
H2277 C2258 0.913 . S
H2278 C2296 0.951 . S
H2279 C2298 0.951 . S
H2280 C2300 0.950 . S
H2281 C2301 0.950 . S
H2282 C2303 0.950 . S
H2283 C2306 0.950 . S
H2284 C2307 0.950 . S
H2285 C2309 0.950 . S
H2286 C2310 0.950 . S
H2287 C2311 0.951 . S
H2288 C2313 0.951 . S
H2289 C2315 0.950 . S
H2290 C2316 0.950 . S
H2291 C2318 0.950 . S
H2292 C2321 0.950 . S
H2293 C2322 0.950 . S
H2294 C2324 0.950 . S
H2295 C2325 0.950 1_455 S
C2296 H2278 0.951 . S
C2296 C2297 1.366 . S
C2296 C2298 1.388 . S
C2297 C2296 1.366 . S
C2297 C2301 1.385 . S
C2298 H2279 0.951 . S
C2298 C2296 1.388 . S
C2298 C2299 1.366 . S
C2299 C2298 1.366 . S
C2299 C2300 1.414 . S
C2299 C2302 1.499 . S
C2300 H2280 0.950 . S
C2300 C2299 1.414 . S
C2300 C2301 1.374 . S
C2301 H2281 0.950 . S
C2301 C2297 1.385 . S
C2301 C2300 1.374 . S
C2302 C2299 1.499 . S
C2302 C2303 1.373 . S
C2302 C2304 1.389 . S
C2303 H2282 0.950 . S
C2303 C2302 1.373 . S
C2303 C2319 1.377 . S
C2304 C2302 1.389 . S
C2304 C2305 1.524 . S
C2304 C2318 1.377 1_455 S
C2305 C2304 1.524 . S
C2305 C2306 1.397 . S
C2305 C2310 1.363 . S
C2306 H2283 0.950 . S
C2306 C2305 1.397 . S
C2306 C2307 1.334 . S
C2307 H2284 0.950 . S
C2307 C2306 1.334 . S
C2307 C2308 1.287 . S
C2308 C2307 1.287 . S
C2308 C2309 1.524 . S
C2308 H2327 0.913 . S
C2309 H2285 0.950 . S
C2309 C2308 1.524 . S
C2309 C2310 1.415 . S
C2310 H2286 0.950 . S
C2310 C2305 1.363 . S
C2310 C2309 1.415 . S
C2311 H2287 0.951 . S
C2311 C2312 1.366 . S
C2311 C2313 1.388 . S
C2312 C2311 1.366 . S
C2312 C2316 1.385 . S
C2313 H2288 0.951 . S
C2313 C2311 1.388 . S
C2313 C2314 1.366 . S
C2314 C2313 1.366 . S
C2314 C2315 1.414 . S
C2314 C2317 1.499 . S
C2315 H2289 0.950 . S
C2315 C2314 1.414 . S
C2315 C2316 1.374 . S
C2316 H2290 0.950 . S
C2316 C2312 1.385 . S
C2316 C2315 1.374 . S
C2317 C2314 1.499 . S
C2317 C2318 1.373 . S
C2317 C2319 1.389 1_655 S
C2318 H2291 0.950 . S
C2318 C2304 1.377 1_655 S
C2318 C2317 1.373 . S
C2319 C2303 1.377 . S
C2319 C2317 1.389 1_455 S
C2319 C2320 1.524 1_455 S
C2320 C2319 1.524 1_655 S
C2320 C2321 1.397 . S
C2320 C2325 1.363 . S
C2321 H2292 0.950 . S
C2321 C2320 1.397 . S
C2321 C2322 1.334 . S
C2322 H2293 0.950 . S
C2322 C2321 1.334 . S
C2322 C2323 1.287 . S
C2323 C2322 1.287 . S
C2323 C2324 1.524 . S
C2323 H2326 0.999 . S
C2324 H2294 0.950 . S
C2324 C2323 1.524 . S
C2324 C2325 1.415 . S
C2325 H2295 0.950 1_655 S
C2325 C2320 1.363 . S
C2325 C2324 1.415 . S
H2326 C2323 0.999 . S
H2327 C2308 0.913 . S
H2328 C2346 0.951 . S
H2329 C2348 0.951 . S
H2330 C2350 0.945 1_655 S
H2331 C2351 0.950 . S
H2332 C2353 0.950 . S
H2333 C2356 0.950 . S
H2334 C2357 0.950 . S
H2335 C2359 0.950 . S
H2336 C2360 0.950 1_455 S
H2337 C2361 0.951 . S
H2338 C2363 0.951 . S
H2339 C2365 0.950 . S
H2340 C2366 0.950 . S
H2341 C2368 0.950 1_655 S
H2342 C2371 0.950 . S
H2343 C2372 0.950 . S
H2344 C2374 0.950 . S
H2345 C2375 0.950 . S
C2346 H2328 0.951 . S
C2346 C2347 1.366 . S
C2346 C2348 1.388 . S
C2347 C2346 1.366 . S
C2347 C2351 1.385 . S
C2348 H2329 0.951 . S
C2348 C2346 1.388 . S
C2348 C2349 1.366 . S
C2349 C2348 1.366 . S
C2349 C2350 1.414 . S
C2349 C2352 1.499 . S
C2350 H2330 0.945 1_455 S
C2350 C2349 1.414 . S
C2350 C2351 1.374 . S
C2351 H2331 0.950 . S
C2351 C2347 1.385 . S
C2351 C2350 1.374 . S
C2352 C2349 1.499 . S
C2352 C2353 1.373 . S
C2352 C2354 1.389 . S
C2353 H2332 0.950 . S
C2353 C2352 1.373 . S
C2353 C2369 1.377 . S
C2354 C2352 1.389 . S
C2354 C2355 1.524 1_455 S
C2354 C2368 1.377 . S
C2355 C2354 1.524 1_655 S
C2355 C2356 1.397 . S
C2355 C2360 1.363 . S
C2356 H2333 0.950 . S
C2356 C2355 1.397 . S
C2356 C2357 1.334 . S
C2357 H2334 0.950 . S
C2357 C2356 1.334 . S
C2357 C2358 1.287 . S
C2358 C2357 1.287 . S
C2358 C2359 1.524 . S
C2358 H2377 0.913 . S
C2359 H2335 0.950 . S
C2359 C2358 1.524 . S
C2359 C2360 1.415 . S
C2360 H2336 0.950 1_655 S
C2360 C2355 1.363 . S
C2360 C2359 1.415 . S
C2361 H2337 0.951 . S
C2361 C2362 1.366 1_655 S
C2361 C2363 1.388 . S
C2362 C2361 1.366 1_455 S
C2362 C2366 1.385 . S
C2363 H2338 0.951 . S
C2363 C2361 1.388 . S
C2363 C2364 1.366 1_655 S
C2364 C2363 1.366 1_455 S
C2364 C2365 1.414 . S
C2364 C2367 1.499 . S
C2365 H2339 0.950 . S
C2365 C2364 1.414 . S
C2365 C2366 1.374 . S
C2366 H2340 0.950 . S
C2366 C2362 1.385 . S
C2366 C2365 1.374 . S
C2367 C2364 1.499 . S
C2367 C2368 1.373 . S
C2367 C2369 1.389 . S
C2368 H2341 0.950 1_455 S
C2368 C2354 1.377 . S
C2368 C2367 1.373 . S
C2369 C2353 1.377 . S
C2369 C2367 1.389 . S
C2369 C2370 1.524 . S
C2370 C2369 1.524 . S
C2370 C2371 1.397 . S
C2370 C2375 1.363 . S
C2371 H2342 0.950 . S
C2371 C2370 1.397 . S
C2371 C2372 1.334 . S
C2372 H2343 0.950 . S
C2372 C2371 1.334 . S
C2372 C2373 1.287 . S
C2373 C2372 1.287 . S
C2373 C2374 1.524 . S
C2373 H2376 0.999 . S
C2374 H2344 0.950 . S
C2374 C2373 1.524 . S
C2374 C2375 1.415 . S
C2375 H2345 0.950 . S
C2375 C2370 1.363 . S
C2375 C2374 1.415 . S
H2376 C2373 0.999 . S
H2377 C2358 0.913 . S
H2378 C2396 0.951 . S
H2379 C2398 0.951 . S
H2380 C2400 0.950 . S
H2381 C2401 0.950 . S
H2382 C2403 0.950 . S
H2383 C2406 0.950 . S
H2384 C2407 0.950 . S
H2385 C2409 0.950 . S
H2386 C2410 0.950 . S
H2387 C2411 0.951 . S
H2388 C2413 0.951 . S
H2389 C2415 0.950 . S
H2390 C2416 0.950 . S
H2391 C2418 0.950 . S
H2392 C2421 0.950 . S
H2393 C2422 0.950 . S
H2394 C2424 0.950 . S
H2395 C2425 0.950 1_455 S
C2396 H2378 0.951 . S
C2396 C2397 1.366 . S
C2396 C2398 1.388 . S
C2397 C2396 1.366 . S
C2397 C2401 1.385 . S
C2398 H2379 0.951 . S
C2398 C2396 1.388 . S
C2398 C2399 1.366 . S
C2399 C2398 1.366 . S
C2399 C2400 1.414 . S
C2399 C2402 1.499 . S
C2400 H2380 0.950 . S
C2400 C2399 1.414 . S
C2400 C2401 1.374 . S
C2401 H2381 0.950 . S
C2401 C2397 1.385 . S
C2401 C2400 1.374 . S
C2402 C2399 1.499 . S
C2402 C2403 1.373 . S
C2402 C2404 1.389 . S
C2403 H2382 0.950 . S
C2403 C2402 1.373 . S
C2403 C2419 1.384 . S
C2404 C2402 1.389 . S
C2404 C2405 1.524 . S
C2404 C2418 1.377 1_455 S
C2405 C2404 1.524 . S
C2405 C2406 1.397 . S
C2405 C2410 1.363 . S
C2406 H2383 0.950 . S
C2406 C2405 1.397 . S
C2406 C2407 1.334 . S
C2407 H2384 0.950 . S
C2407 C2406 1.334 . S
C2407 C2408 1.287 . S
C2408 C2407 1.287 . S
C2408 C2409 1.524 . S
C2408 H2427 0.913 . S
C2409 H2385 0.950 . S
C2409 C2408 1.524 . S
C2409 C2410 1.415 . S
C2410 H2386 0.950 . S
C2410 C2405 1.363 . S
C2410 C2409 1.415 . S
C2411 H2387 0.951 . S
C2411 C2412 1.366 . S
C2411 C2413 1.388 . S
C2412 C2411 1.366 . S
C2412 C2416 1.385 . S
C2413 H2388 0.951 . S
C2413 C2411 1.388 . S
C2413 C2414 1.366 . S
C2414 C2413 1.366 . S
C2414 C2415 1.414 . S
C2414 C2417 1.499 . S
C2415 H2389 0.950 . S
C2415 C2414 1.414 . S
C2415 C2416 1.374 . S
C2416 H2390 0.950 . S
C2416 C2412 1.385 . S
C2416 C2415 1.374 . S
C2417 C2414 1.499 . S
C2417 C2418 1.373 . S
C2417 C2419 1.385 1_655 S
C2418 H2391 0.950 . S
C2418 C2404 1.377 1_655 S
C2418 C2417 1.373 . S
C2419 C2403 1.384 . S
C2419 C2417 1.385 1_455 S
C2419 C2420 1.522 1_455 S
C2420 C2419 1.522 1_655 S
C2420 C2421 1.397 . S
C2420 C2425 1.363 . S
C2421 H2392 0.950 . S
C2421 C2420 1.397 . S
C2421 C2422 1.334 . S
C2422 H2393 0.950 . S
C2422 C2421 1.334 . S
C2422 C2423 1.287 . S
C2423 C2422 1.287 . S
C2423 C2424 1.524 . S
C2423 H2426 0.999 . S
C2424 H2394 0.950 . S
C2424 C2423 1.524 . S
C2424 C2425 1.415 . S
C2425 H2395 0.950 1_655 S
C2425 C2420 1.363 . S
C2425 C2424 1.415 . S
H2426 C2423 0.999 . S
H2427 C2408 0.913 . S
H2428 C2446 0.951 . S
H2429 C2448 0.951 . S
H2430 C2450 0.950 . S
H2431 C2451 0.950 . S
H2432 C2453 0.950 . S
H2433 C2456 0.950 . S
H2434 C2457 0.950 . S
H2435 C2459 0.950 . S
H2436 C2460 0.950 . S
H2437 C2461 0.951 . S
H2438 C2463 0.951 . S
H2439 C2465 0.950 . S
H2440 C2466 0.950 . S
H2441 C2468 0.950 . S
H2442 C2471 0.950 . S
H2443 C2472 0.950 . S
H2444 C2474 0.950 . S
H2445 C2475 0.950 . S
C2446 H2428 0.951 . S
C2446 C2447 1.366 . S
C2446 C2448 1.388 . S
C2447 C2446 1.366 . S
C2447 C2451 1.385 . S
C2448 H2429 0.951 . S
C2448 C2446 1.388 . S
C2448 C2449 1.366 . S
C2449 C2448 1.366 . S
C2449 C2450 1.414 . S
C2449 C2452 1.499 . S
C2450 H2430 0.950 . S
C2450 C2449 1.414 . S
C2450 C2451 1.374 . S
C2451 H2431 0.950 . S
C2451 C2447 1.385 . S
C2451 C2450 1.374 . S
C2452 C2449 1.499 . S
C2452 C2453 1.373 . S
C2452 C2454 1.389 . S
C2453 H2432 0.950 . S
C2453 C2452 1.373 . S
C2453 C2469 1.377 . S
C2454 C2452 1.389 . S
C2454 C2455 1.524 . S
C2454 C2468 1.377 . S
C2455 C2454 1.524 . S
C2455 C2456 1.397 . S
C2455 C2460 1.363 . S
C2456 H2433 0.950 . S
C2456 C2455 1.397 . S
C2456 C2457 1.334 . S
C2457 H2434 0.950 . S
C2457 C2456 1.334 . S
C2457 C2458 1.287 . S
C2458 C2457 1.287 . S
C2458 C2459 1.524 . S
C2458 H2477 0.913 . S
C2459 H2435 0.950 . S
C2459 C2458 1.524 . S
C2459 C2460 1.415 . S
C2460 H2436 0.950 . S
C2460 C2455 1.363 . S
C2460 C2459 1.415 . S
C2461 H2437 0.951 . S
C2461 C2462 1.366 . S
C2461 C2463 1.388 . S
C2462 C2461 1.366 . S
C2462 C2466 1.385 . S
C2463 H2438 0.951 . S
C2463 C2461 1.388 . S
C2463 C2464 1.366 . S
C2464 C2463 1.366 . S
C2464 C2465 1.414 . S
C2464 C2467 1.499 . S
C2465 H2439 0.950 . S
C2465 C2464 1.414 . S
C2465 C2466 1.374 . S
C2466 H2440 0.950 . S
C2466 C2462 1.385 . S
C2466 C2465 1.374 . S
C2467 C2464 1.499 . S
C2467 C2468 1.373 . S
C2467 C2469 1.389 . S
C2468 H2441 0.950 . S
C2468 C2454 1.377 . S
C2468 C2467 1.373 . S
C2469 C2453 1.377 . S
C2469 C2467 1.389 . S
C2469 C2470 1.524 . S
C2470 C2469 1.524 . S
C2470 C2471 1.397 . S
C2470 C2475 1.363 . S
C2471 H2442 0.950 . S
C2471 C2470 1.397 . S
C2471 C2472 1.334 . S
C2472 H2443 0.950 . S
C2472 C2471 1.334 . S
C2472 C2473 1.287 . S
C2473 C2472 1.287 . S
C2473 C2474 1.524 . S
C2473 H2476 0.999 . S
C2474 H2444 0.950 . S
C2474 C2473 1.524 . S
C2474 C2475 1.415 . S
C2475 H2445 0.950 . S
C2475 C2470 1.363 . S
C2475 C2474 1.415 . S
H2476 C2473 0.999 . S
H2477 C2458 0.913 . S
H2478 C2496 0.951 . S
H2479 C2498 0.951 . S
H2480 C2500 0.950 . S
H2481 C2501 0.950 . S
H2482 C2503 0.950 . S
H2483 C2506 0.950 . S
H2484 C2507 0.950 . S
H2485 C2509 0.950 . S
H2486 C2510 0.950 . S
H2487 C2511 0.951 . S
H2488 C2513 0.951 . S
H2489 C2515 0.950 . S
H2490 C2516 0.950 . S
H2491 C2518 0.950 . S
H2492 C2521 0.950 . S
H2493 C2522 0.950 . S
H2494 C2524 0.950 . S
H2495 C2525 0.950 . S
C2496 H2478 0.951 . S
C2496 C2497 1.366 . S
C2496 C2498 1.388 . S
C2497 C2496 1.366 . S
C2497 C2501 1.385 . S
C2498 H2479 0.951 . S
C2498 C2496 1.388 . S
C2498 C2499 1.366 . S
C2499 C2498 1.366 . S
C2499 C2500 1.414 . S
C2499 C2502 1.499 . S
C2500 H2480 0.950 . S
C2500 C2499 1.414 . S
C2500 C2501 1.374 . S
C2501 H2481 0.950 . S
C2501 C2497 1.385 . S
C2501 C2500 1.374 . S
C2502 C2499 1.499 . S
C2502 C2503 1.373 . S
C2502 C2504 1.389 . S
C2503 H2482 0.950 . S
C2503 C2502 1.373 . S
C2503 C2519 1.377 . S
C2504 C2502 1.389 . S
C2504 C2505 1.524 . S
C2504 C2518 1.377 . S
C2505 C2504 1.524 . S
C2505 C2506 1.397 . S
C2505 C2510 1.363 . S
C2506 H2483 0.950 . S
C2506 C2505 1.397 . S
C2506 C2507 1.334 . S
C2507 H2484 0.950 . S
C2507 C2506 1.334 . S
C2507 C2508 1.287 . S
C2508 C2507 1.287 . S
C2508 C2509 1.524 . S
C2508 H2527 0.913 . S
C2509 H2485 0.950 . S
C2509 C2508 1.524 . S
C2509 C2510 1.415 . S
C2510 H2486 0.950 . S
C2510 C2505 1.363 . S
C2510 C2509 1.415 . S
C2511 H2487 0.951 . S
C2511 C2512 1.366 . S
C2511 C2513 1.388 . S
C2512 C2511 1.366 . S
C2512 C2516 1.385 . S
C2513 H2488 0.951 . S
C2513 C2511 1.388 . S
C2513 C2514 1.366 . S
C2514 C2513 1.366 . S
C2514 C2515 1.414 . S
C2514 C2517 1.499 . S
C2515 H2489 0.950 . S
C2515 C2514 1.414 . S
C2515 C2516 1.374 . S
C2516 H2490 0.950 . S
C2516 C2512 1.385 . S
C2516 C2515 1.374 . S
C2517 C2514 1.499 . S
C2517 C2518 1.373 . S
C2517 C2519 1.389 . S
C2518 H2491 0.950 . S
C2518 C2504 1.377 . S
C2518 C2517 1.373 . S
C2519 C2503 1.377 . S
C2519 C2517 1.389 . S
C2519 C2520 1.524 . S
C2520 C2519 1.524 . S
C2520 C2521 1.397 . S
C2520 C2525 1.363 . S
C2521 H2492 0.950 . S
C2521 C2520 1.397 . S
C2521 C2522 1.334 . S
C2522 H2493 0.950 . S
C2522 C2521 1.334 . S
C2522 C2523 1.287 . S
C2523 C2522 1.287 . S
C2523 C2524 1.524 . S
C2523 H2526 0.999 . S
C2524 H2494 0.950 . S
C2524 C2523 1.524 . S
C2524 C2525 1.415 . S
C2525 H2495 0.950 . S
C2525 C2520 1.363 . S
C2525 C2524 1.415 . S
H2526 C2523 0.999 . S
H2527 C2508 0.913 . S
C547 N442 1.306 . S
C562 N13 1.307 . S
C597 N46 1.306 . S
C612 N376 1.307 . S
C647 N79 1.306 . S
C662 N409 1.307 . S
C697 N112 1.306 . S
C712 N343 1.306 . S
C747 N508 1.307 . S
C762 N145 1.306 . S
C797 N178 1.307 . S
C812 N310 1.306 . S
C847 N211 1.306 . S
C862 N475 1.306 . S
C897 N277 1.307 . S
C912 N244 1.307 . S
C947 C18 1.647 . S
C962 C150 1.647 . S
C997 C51 1.647 . S
C1012 C183 1.647 . S
C1047 C84 1.646 . S
C1062 C216 1.646 . S
C1097 C249 1.646 . S
C1112 C117 1.646 . S
C1147 C348 1.647 . S
C1162 C282 1.647 . S
C1197 C315 1.646 . S
C1212 C381 1.646 . S
C1247 C480 1.646 . S
C1262 C414 1.646 . S
C1297 C513 1.647 . S
C1312 C447 1.647 . S
C1347 C172 0.763 . S
C1362 C7 0.766 . S
C1397 C40 0.764 . S
C1412 C205 0.766 . S
C1447 C73 0.765 . S
C1462 C238 0.764 . S
C1497 C139 0.766 . S
C1512 C106 0.764 . S
C1547 C153 0.660 . S
C1562 C351 0.660 . S
C1597 C87 0.659 . S
C1612 C285 0.661 . S
C1647 C384 0.659 . S
C1662 C219 0.661 . S
C1697 C318 0.660 . S
C1712 C21 0.660 . S
C1747 C271 0.766 . S
C1762 C403 0.764 . S
C1797 C502 0.764 . S
C1812 C337 0.765 . S
C1847 C436 0.764 . S
C1862 C304 0.766 . S
C1897 C370 0.764 . S
C1912 C469 0.766 . S
C1947 C483 0.661 . S
C1962 C54 0.659 . S
C1997 C186 0.659 . S
C2012 C450 0.661 . S
C2047 C516 0.662 . S
C2062 C120 0.659 . S
C2097 C252 0.660 . S
C2112 C417 0.661 . S
C2147 N2 0.324 . S
C2162 N431 0.327 . S
C2197 N35 0.327 . S
C2212 N365 0.324 . S
C2247 N68 0.328 . S
C2262 N398 0.325 . S
C2297 N101 0.327 . S
C2312 N332 0.324 . S
C2347 N134 0.328 . S
C2362 N497 0.326 . S
C2397 N167 0.328 . S
C2412 N299 0.325 . S
C2447 N464 0.324 . S
C2462 N200 0.325 . S
C2497 N266 0.327 . S
C2512 N233 0.324 . S
