# Generated by pormake.
# Topology qtz-x, (6)-cn, num edge types: 1
# Building blocks:
#     Node 0, Type 0, BuildingBlock: UKALOJ_clean_sbu_0, # of connection points: 6
#     Node 1, Type 0, BuildingBlock: UKALOJ_clean_sbu_0, # of connection points: 6
#     Node 2, Type 0, BuildingBlock: UKALOJ_clean_sbu_0, # of connection points: 6
#     Edge 3, Type (0, 0), BuildingBlock: ZUJKAS_clean_linker_0, # of connection points: 2
#     Edge 4, Type (0, 0), BuildingBlock: ZUJKAS_clean_linker_0, # of connection points: 2
#     Edge 5, Type (0, 0), BuildingBlock: ZUJKAS_clean_linker_0, # of connection points: 2
#     Edge 6, Type (0, 0), BuildingBlock: ZUJKAS_clean_linker_0, # of connection points: 2
#     Edge 7, Type (0, 0), BuildingBlock: ZUJKAS_clean_linker_0, # of connection points: 2
#     Edge 8, Type (0, 0), BuildingBlock: ZUJKAS_clean_linker_0, # of connection points: 2
#     Edge 9, Type (0, 0), BuildingBlock: ZUJKAS_clean_linker_0, # of connection points: 2
#     Edge 10, Type (0, 0), BuildingBlock: ZUJKAS_clean_linker_0, # of connection points: 2
#     Edge 11, Type (0, 0), BuildingBlock: ZUJKAS_clean_linker_0, # of connection points: 2
# Relax obj value: 0.273
# Max RMSD: 0.251
# Mean RMSD: 0.249
data_MOF--net-qtz-x--node1-UKALOJ_clean_sbu_0--edge1-ZUJKAS_clean_linker_0
_symmetry_space_group_name_H-M    P1
_symmetry_Int_Tables_number       1
_symmetry_cell_setting            triclinic
loop_
_symmetry_equiv_pos_as_xyz
'x, y, z'
_cell_length_a     24.490303
_cell_length_b     24.55113
_cell_length_c     43.827862
_cell_angle_alpha  93.838078
_cell_angle_beta   93.934294
_cell_angle_gamma 119.98323
loop_
_atom_site_label
_atom_site_type_symbol
_atom_site_fract_x
_atom_site_fract_y
_atom_site_fract_z
_atom_type_partial_charge
Zn0 Zn 0.00441 0.51231 0.18331 0.0
O1 O 0.06646 0.55427 0.14867 0.0
C2 C 0.8996 0.43297 0.13441 0.0
Zn3 Zn 0.00098 0.42146 0.17156 0.0
C4 C 0.08403 0.52064 0.13366 0.0
O5 O 0.06347 0.46397 0.13915 0.0
C6 C 0.92196 0.41016 0.22112 0.0
O7 O 0.08137 0.44987 0.20567 0.0
O8 O 0.08344 0.53972 0.21504 0.0
N9 N -0.00473 0.33801 0.15749 0.0
C10 C 0.00544 0.29721 0.17251 0.0
C11 C 0.97543 0.25826 0.12532 0.0
N12 N 0.97665 0.31375 0.12823 0.0
N13 N -0.00699 0.2466 0.15277 0.0
C14 C 0.00907 0.64088 0.18185 0.0
C15 C 0.00471 0.66374 0.22913 0.0
N16 N 0.00692 0.59431 0.19725 0.0
N17 N 0.00421 0.60857 0.22657 0.0
N18 N 0.00744 0.68487 0.20139 0.0
H19 H 0.06993 0.66003 0.14663 0.0
H20 H 0.01183 0.68219 0.13892 0.0
H21 H 0.98897 0.59951 0.13464 0.0
C22 C 0.0198 0.646 0.1486 0.0
C23 C 0.0339 0.31093 0.2055 0.0
H24 H 0.08487 0.34744 0.20699 0.0
H25 H 0.03123 0.26914 0.21491 0.0
H26 H 0.01046 0.33004 0.21993 0.0
O27 O 0.93811 0.37815 0.20401 0.0
O28 O 0.94319 0.46819 0.21781 0.0
C29 C 0.10691 0.50502 0.2204 0.0
O30 O 0.92515 0.48544 0.15142 0.0
O31 O 0.92173 0.39628 0.13764 0.0
Zn32 Zn 0.5784 0.00309 0.51629 0.0
O33 O 0.55391 0.92442 0.48184 0.0
C34 C 0.58761 0.08182 0.46656 0.0
Zn35 Zn 0.48644 -0.00283 0.5037 0.0
C36 C 0.49832 0.897 0.46726 0.0
O37 O 0.46186 0.91831 0.47268 0.0
C38 C 0.56319 0.10237 0.55268 0.0
O39 O 0.44549 0.93518 0.53858 0.0
O40 O 0.53645 0.93902 0.5481 0.0
N41 N 0.40173 0.98919 0.48947 0.0
C42 C 0.36071 -0.0009 0.50447 0.0
C43 C 0.32098 0.96809 0.45744 0.0
N44 N 0.37702 0.97003 0.46027 0.0
N45 N 0.30981 0.98646 0.4848 0.0
C46 C 0.70477 0.00249 0.5155 0.0
C47 C 0.74282 0.03039 0.56285 0.0
N48 N 0.66292 0.01081 0.53059 0.0
N49 N 0.6866 0.02807 0.55998 0.0
N50 N 0.75514 0.01421 0.5353 0.0
H51 H 0.67443 0.93426 0.47588 0.0
H52 H 0.74497 0.0084 0.47268 0.0
H53 H 0.66819 0.00232 0.46915 0.0
C54 C 0.69784 0.98639 0.48131 0.0
C55 C 0.36899 0.01779 0.5385 0.0
H56 H 0.32233 -0.00356 0.5476 0.0
H57 H 0.39222 0.07007 0.543 0.0
H58 H 0.39935 0.00308 0.55099 0.0
O59 O 0.51153 0.07685 0.53487 0.0
O60 O 0.60025 0.08034 0.55058 0.0
C61 C 0.47946 0.91771 0.55347 0.0
O62 O 0.62059 0.06793 0.48449 0.0
O63 O 0.52862 0.05777 0.46879 0.0
Zn64 Zn 0.53018 0.57028 0.84863 0.0
O65 O 0.5767 0.54575 0.81491 0.0
C66 C 0.44631 0.57447 0.7987 0.0
Zn67 Zn 0.44216 0.47703 0.83836 0.0
C68 C 0.5461 0.48911 0.80181 0.0
O69 O 0.49036 0.45202 0.80796 0.0
C70 C 0.42465 0.55555 0.88558 0.0
O71 O 0.47329 0.43927 0.87395 0.0
O72 O 0.56178 0.53105 0.88169 0.0
N73 N 0.36327 0.3915 0.8246 0.0
C74 C 0.31605 0.3501 0.83948 0.0
C75 C 0.29723 0.31052 0.7925 0.0
N76 N 0.35146 0.36684 0.79544 0.0
N77 N 0.27389 0.29904 0.81976 0.0
C78 C 0.65581 0.6971 0.84706 0.0
C79 C 0.67621 0.73656 0.89413 0.0
N80 N 0.60929 0.65563 0.86224 0.0
N81 N 0.62206 0.6802 0.89145 0.0
N82 N 0.6985 0.74814 0.86663 0.0
H83 H 0.60893 0.65946 0.8007 0.0
H84 H 0.6846 0.66504 0.80815 0.0
H85 H 0.6809 0.73565 0.80394 0.0
C86 C 0.65739 0.68903 0.81297 0.0
C87 C 0.31318 0.35825 0.87343 0.0
H88 H 0.29145 0.31176 0.8826 0.0
H89 H 0.28342 0.37966 0.87761 0.0
H90 H 0.36096 0.38999 0.886 0.0
O91 O 0.39424 0.50216 0.86923 0.0
O92 O 0.48242 0.59294 0.88206 0.0
C93 C 0.52861 0.47487 0.88828 0.0
O94 O 0.49839 0.60926 0.81575 0.0
O95 O 0.41296 0.51632 0.8026 0.0
H96 H 0.93272 0.69657 0.15723 0.0
H97 H 0.93336 0.79379 0.14716 0.0
H98 H 0.07499 0.89563 0.22558 0.0
H99 H 0.07773 0.79931 0.23403 0.0
H100 H 0.90288 0.86405 0.17995 0.0
H101 H 0.15555 0.01207 0.16257 0.0
H102 H 0.11873 0.92803 0.16441 0.0
H103 H 0.1469 0.98232 0.19925 0.0
C104 C 0.96563 0.74038 0.1715 0.0
C105 C 0.00745 0.74158 0.19543 0.0
C106 C 0.96529 0.79557 0.1661 0.0
C107 C 0.00563 0.85249 0.18506 0.0
C108 C 0.0453 0.85294 0.20991 0.0
H109 H 0.94315 0.17152 0.19758 0.0
H110 H 0.94774 0.07629 0.2061 0.0
C111 C 0.04645 0.79798 0.21492 0.0
C112 C 0.00427 0.91066 0.17954 0.0
H113 H 0.0985 0.06633 0.17011 0.0
C114 C 0.9456 0.90817 0.17755 0.0
C115 C 0.05987 0.96793 0.17591 0.0
C116 C 0.12366 0.97265 0.1753 0.0
C117 C 0.94103 0.96156 0.1724 0.0
C118 C -0.0029 0.01969 0.17045 0.0
C119 C 0.05565 0.02196 0.17203 0.0
C120 C -0.00381 0.07856 0.16622 0.0
C121 C 0.87598 0.95446 0.16835 0.0
C122 C 0.02412 0.11286 0.14178 0.0
C123 C 0.02392 0.16865 0.13777 0.0
C124 C -0.00398 0.19116 0.15817 0.0
C125 C 0.96732 0.15646 0.18236 0.0
C126 C 0.96857 0.10129 0.18675 0.0
H127 H 0.83856 0.90464 0.16047 0.0
H128 H 0.8652 0.96814 0.1908 0.0
H129 H 0.87339 0.98505 0.15145 0.0
H130 H 0.04562 0.09618 0.12562 0.0
H131 H 0.04542 0.19432 0.11869 0.0
H132 H 0.30531 0.08053 0.5183 0.0
H133 H 0.20975 0.08434 0.52791 0.0
H134 H 0.09391 0.90479 0.47185 0.0
H135 H 0.18935 0.90009 0.46302 0.0
H136 H 0.1189 0.08154 0.48377 0.0
H137 H 0.01106 0.878 0.55226 0.0
H138 H 0.09331 0.91624 0.54539 0.0
H139 H 0.03214 0.86078 0.51589 0.0
C140 C 0.25932 0.04129 0.50869 0.0
C141 C 0.25423 0.98915 0.49065 0.0
C142 C 0.20496 0.04379 0.51389 0.0
C143 C 0.14485 -0.00576 0.50108 0.0
C144 C 0.13981 0.94277 0.48251 0.0
H145 H 0.76072 0.92195 0.50081 0.0
H146 H 0.85676 0.91883 0.49144 0.0
C147 C 0.19414 0.94031 0.47731 0.0
C148 C 0.08748 -0.00274 0.50632 0.0
H149 H 0.94704 0.92094 0.53673 0.0
C150 C 0.08142 0.04669 0.49549 0.0
C151 C 0.03881 0.95154 0.52155 0.0
C152 C 0.04416 0.89891 0.53471 0.0
C153 C 0.0272 0.05101 0.49902 0.0
C154 C 0.97848 0.00519 0.51417 0.0
C155 C 0.98456 0.95582 0.52504 0.0
C156 C 0.92091 0.00794 0.51922 0.0
C157 C 0.02187 0.10374 0.48599 0.0
C158 C 0.92542 0.05866 0.53821 0.0
C159 C 0.87082 0.06067 0.54334 0.0
C160 C 0.81104 0.01218 0.52945 0.0
C161 C 0.80651 0.96088 0.5109 0.0
C162 C 0.86111 0.95878 0.50581 0.0
H163 H 0.05568 0.12551 0.46882 0.0
H164 H 0.97294 0.08617 0.47489 0.0
H165 H 0.03277 0.14124 0.50496 0.0
H166 H 0.9711 0.09634 0.54928 0.0
H167 H 0.87514 0.10023 0.55801 0.0
H168 H 0.78899 0.75264 0.83303 0.0
H169 H 0.88777 0.84769 0.82489 0.0
H170 H 0.83632 0.96324 0.88035 0.0
H171 H 0.73735 0.86817 0.88833 0.0
H172 H 0.90404 0.95702 0.79895 0.0
H173 H 0.01435 0.01335 0.92044 0.0
H174 H 0.94648 0.93725 0.90565 0.0
H175 H 0.93648 0.00373 0.9155 0.0
C176 C 0.79836 0.79846 0.84296 0.0
C177 C 0.75537 0.80356 0.86085 0.0
C178 C 0.85487 0.85251 0.83856 0.0
C179 C 0.86943 0.91219 0.8523 0.0
C180 C 0.82632 0.91741 0.86999 0.0
H181 H 0.1822 0.2945 0.85248 0.0
H182 H 0.08324 0.19945 0.86032 0.0
C183 C 0.76992 0.86338 0.87442 0.0
C184 C 0.92956 0.96915 0.84795 0.0
H185 H 0.06769 0.09011 0.88667 0.0
C186 C 0.94003 0.98603 0.81806 0.0
C187 C 0.97612 0.0067 0.87302 0.0
C188 C 0.96827 0.98919 0.90545 0.0
C189 C -0.00436 0.0404 0.8126 0.0
C190 C 0.04215 0.07797 0.83768 0.0
C191 C 0.0317 0.06108 0.86756 0.0
C192 C 0.10226 0.13496 0.83336 0.0
C193 C 0.00363 0.05788 0.78018 0.0
C194 C 0.14577 0.12976 0.81598 0.0
C195 C 0.20238 0.1838 0.81178 0.0
C196 C 0.21668 0.24363 0.82524 0.0
C197 C 0.17315 0.24871 0.84272 0.0
C198 C 0.11648 0.19465 0.84692 0.0
H199 H 0.95767 0.03339 0.76508 0.0
H200 H 0.02504 0.10978 0.77997 0.0
H201 H 0.03586 0.04379 0.77026 0.0
H202 H 0.13598 0.08392 0.80575 0.0
H203 H 0.23532 0.179 0.79816 0.0
H204 H 0.30274 0.4856 0.89885 0.0
H205 H 0.25424 0.50885 0.94061 0.0
H206 H 0.42692 0.68743 0.96784 0.0
H207 H 0.47665 0.66372 0.92631 0.0
H208 H 0.38577 0.62245 0.01586 0.0
H209 H 0.18383 0.62458 0.9533 0.0
H210 H 0.18416 0.55371 0.94087 0.0
H211 H 0.24908 0.62951 0.93431 0.0
C212 C 0.33033 0.5302 0.91344 0.0
C213 C 0.39372 0.57265 0.90928 0.0
C214 C 0.30219 0.54379 0.93716 0.0
C215 C 0.33644 0.60048 0.95704 0.0
C216 C 0.39937 0.64367 0.95259 0.0
H217 H 0.1205 0.62924 0.1056 0.0
H218 H 0.19007 0.66538 0.06445 0.0
C219 C 0.42772 0.63 0.92886 0.0
C220 C 0.30833 0.61085 0.98422 0.0
H221 H 0.17085 0.59669 1.00582 0.0
C222 C 0.33946 0.61841 0.01365 0.0
C223 C 0.24847 0.60692 0.98151 0.0
C224 C 0.21487 0.60396 0.95075 0.0
C225 C 0.31 0.61664 0.0402 0.0
C226 C 0.24745 0.606 0.0372 0.0
C227 C 0.21849 0.60395 1.00806 0.0
C228 C 0.20845 0.58776 0.06314 0.0
C229 C 0.34514 0.6236 0.07119 0.0
C230 C 0.19538 0.53206 0.07569 0.0
C231 C 0.1558 0.51133 0.09882 0.0
C232 C 0.12804 0.54572 0.10998 0.0
C233 C 0.14149 0.60198 0.09762 0.0
C234 C 0.18107 0.62259 0.07413 0.0
H235 H 0.39734 0.65226 0.07084 0.0
H236 H 0.33127 0.64615 0.08952 0.0
H237 H 0.33368 0.57604 0.07708 0.0
H238 H 0.21484 0.50371 0.06711 0.0
H239 H 0.14656 0.4678 0.10776 0.0
H240 H 0.71325 0.16602 0.46658 0.0
H241 H 0.76555 0.22974 0.42593 0.0
H242 H 0.58399 0.15388 0.37137 0.0
H243 H 0.53101 0.09188 0.41274 0.0
H244 H 0.7706 0.18821 0.37093 0.0
H245 H 0.66088 0.33688 0.35968 0.0
H246 H 0.65164 0.29163 0.3917 0.0
H247 H 0.60301 0.25398 0.35543 0.0
C248 C 0.68431 0.16367 0.44613 0.0
C249 C 0.61801 0.12397 0.44284 0.0
C250 C 0.71429 0.20012 0.42289 0.0
C251 C 0.67881 0.19725 0.39563 0.0
C252 C 0.61236 0.1583 0.39246 0.0
H253 H 0.84628 0.2841 0.22469 0.0
H254 H 0.78429 0.23375 0.26624 0.0
C255 C 0.58213 0.12252 0.41603 0.0
C256 C 0.71223 0.23095 0.3698 0.0
H257 H 0.72032 0.33399 0.31912 0.0
C258 C 0.75978 0.22041 0.35978 0.0
C259 C 0.6988 0.2736 0.35542 0.0
C260 C 0.65127 0.29026 0.36631 0.0
C261 C 0.79384 0.25068 0.33574 0.0
C262 C 0.77837 0.29097 0.32037 0.0
C263 C 0.7315 0.3024 0.33061 0.0
C264 C 0.81082 0.32175 0.29378 0.0
C265 C 0.84704 0.24013 0.32758 0.0
C266 C 0.84354 0.38799 0.29458 0.0
C267 C 0.8781 0.417 0.27047 0.0
C268 C 0.88079 0.38017 0.24528 0.0
C269 C 0.84592 0.31383 0.244 0.0
C270 C 0.81072 0.28495 0.26783 0.0
H271 H 0.86533 0.22487 0.34715 0.0
H272 H 0.82901 0.20213 0.308 0.0
H273 H 0.88715 0.28375 0.32077 0.0
H274 H 0.84388 0.41732 0.31428 0.0
H275 H 0.90438 0.46822 0.27205 0.0
H276 H 0.50673 0.69699 0.7863 0.0
H277 H 0.4797 0.74139 0.74387 0.0
H278 H 0.31444 0.55918 0.71246 0.0
H279 H 0.34182 0.51366 0.75498 0.0
H280 H 0.38476 0.61099 0.66643 0.0
H281 H 0.34706 0.79083 0.72759 0.0
H282 H 0.42088 0.79896 0.74288 0.0
H283 H 0.34741 0.72759 0.74629 0.0
C284 C 0.46407 0.66631 0.77069 0.0
C285 C 0.42643 0.60167 0.77407 0.0
C286 C 0.4483 0.69204 0.74655 0.0
C287 C 0.39425 0.65402 0.72533 0.0
C288 C 0.35594 0.58958 0.7288 0.0
H289 H 0.36437 0.86996 0.57694 0.0
H290 H 0.32607 0.79604 0.61621 0.0
C291 C 0.3717 0.56365 0.75307 0.0
C292 C 0.3825 0.68088 0.69796 0.0
H293 H 0.38458 0.81339 0.67706 0.0
C294 C 0.38297 0.65432 0.66868 0.0
C295 C 0.37877 0.7367 0.70067 0.0
C296 C 0.37276 0.76469 0.73106 0.0
C297 C 0.38587 0.68526 0.64254 0.0
C298 C 0.38945 0.74472 0.64588 0.0
C299 C 0.38288 0.76829 0.67459 0.0
C300 C 0.40961 0.78697 0.62123 0.0
C301 C 0.388 0.65538 0.61177 0.0
C302 C 0.46944 0.80701 0.61153 0.0
C303 C 0.49137 0.84905 0.5895 0.0
C304 C 0.45412 0.87247 0.57662 0.0
C305 C 0.39402 0.85253 0.58634 0.0
C306 C 0.37211 0.81037 0.6087 0.0
H307 H 0.36303 0.60296 0.6108 0.0
H308 H 0.36619 0.66824 0.59259 0.0
H309 H 0.4382 0.67222 0.6083 0.0
H310 H 0.49984 0.79084 0.62143 0.0
H311 H 0.53795 0.86337 0.58269 0.0
H312 H 0.64928 0.53657 0.91711 0.0
H313 H 0.69522 0.50211 0.95692 0.0
H314 H 0.51658 0.32805 0.95417 0.0
H315 H 0.46943 0.3625 0.91389 0.0
H316 H 0.57446 0.39152 0.01464 0.0
H317 H 0.74462 0.36493 0.94762 0.0
H318 H 0.74874 0.43937 0.9445 0.0
H319 H 0.67705 0.36684 0.92962 0.0
C320 C 0.61951 0.49073 0.92474 0.0
C321 C 0.5556 0.45219 0.91221 0.0
C322 C 0.64613 0.47092 0.9474 0.0
C323 C 0.6097 0.41206 0.95809 0.0
C324 C 0.54565 0.3734 0.94595 0.0
H325 H 0.83907 0.32976 0.09022 0.0
H326 H 0.75731 0.30906 0.0481 0.0
C327 C 0.51885 0.39312 0.92298 0.0
C328 C 0.63888 0.39354 0.98305 0.0
H329 H 0.77088 0.38421 1.00294 0.0
C330 C 0.61658 0.38844 0.01197 0.0
C331 C 0.69315 0.3884 0.97945 0.0
C332 C 0.71692 0.3895 0.94852 0.0
C333 C 0.65008 0.3833 0.0379 0.0
C334 C 0.70774 0.3843 0.03482 0.0
C335 C 0.72716 0.38429 1.00543 0.0
C336 C 0.75202 0.39242 0.06196 0.0
C337 C 0.62429 0.37867 0.06849 0.0
C338 C 0.77627 0.44614 0.08366 0.0
C339 C 0.82282 0.4581 0.10759 0.0
C340 C 0.84665 0.41683 0.11029 0.0
C341 C 0.82157 0.36235 0.08886 0.0
C342 C 0.77487 0.35045 0.06479 0.0
H343 H 0.57174 0.35609 0.06535 0.0
H344 H 0.63751 0.35111 0.08331 0.0
H345 H 0.64403 0.42702 0.08061 0.0
H346 H 0.76076 0.48015 0.0815 0.0
H347 H 0.84121 0.50068 0.12356 0.0
H348 H 0.16505 0.44305 0.24509 0.0
H349 H 0.25547 0.48751 0.28591 0.0
H350 H 0.26504 0.66808 0.28903 0.0
H351 H 0.17687 0.62515 0.24862 0.0
H352 H 0.38465 0.67793 0.29114 0.0
H353 H 0.23821 0.52644 0.37665 0.0
H354 H 0.24245 0.48926 0.34078 0.0
H355 H 0.20168 0.53295 0.34099 0.0
C356 C 0.18692 0.49232 0.25437 0.0
C357 C 0.16326 0.5303 0.24375 0.0
C358 C 0.2384 0.51758 0.27773 0.0
C359 C 0.26676 0.58107 0.29066 0.0
C360 C 0.24419 0.6191 0.27936 0.0
H361 H 0.37728 0.82188 0.44073 0.0
H362 H 0.33616 0.73504 0.39994 0.0
C363 C 0.19326 0.59417 0.25629 0.0
C364 C 0.31728 0.60892 0.31725 0.0
H365 H 0.33278 0.61908 0.3957 0.0
C366 C 0.37453 0.66407 0.314 0.0
C367 C 0.30398 0.59043 0.34698 0.0
C368 C 0.24329 0.53169 0.35186 0.0
C369 C 0.41526 0.70493 0.33983 0.0
C370 C 0.39866 0.68952 0.36963 0.0
C371 C 0.34524 0.6308 0.37279 0.0
C372 C 0.42576 0.73893 0.39662 0.0
C373 C 0.4721 0.76722 0.33501 0.0
C374 C 0.49013 0.76993 0.40881 0.0
C375 C 0.51435 0.82072 0.43241 0.0
C376 C 0.47441 0.841 0.44397 0.0
C377 C 0.40974 0.80817 0.43228 0.0
C378 C 0.38586 0.75796 0.409 0.0
H379 H 0.47594 0.7736 0.31023 0.0
H380 H 0.46928 0.80714 0.34671 0.0
H381 H 0.51609 0.76969 0.34526 0.0
H382 H 0.52166 0.75557 0.39981 0.0
H383 H 0.5643 0.84486 0.44106 0.0
H384 H 0.54082 0.37699 0.80014 0.0
H385 H 0.56473 0.32428 0.75845 0.0
H386 H 0.6308 0.48976 0.71027 0.0
H387 H 0.60929 0.54391 0.75304 0.0
H388 H 0.50142 0.29605 0.70314 0.0
H389 H 0.75917 0.43671 0.69282 0.0
H390 H 0.72544 0.44682 0.72663 0.0
H391 H 0.71978 0.48182 0.69269 0.0
C392 C 0.56234 0.40282 0.78109 0.0
C393 C 0.57324 0.46433 0.77967 0.0
C394 C 0.57586 0.37265 0.75724 0.0
C395 C 0.5995 0.40286 0.73113 0.0
C396 C 0.6137 0.46583 0.73038 0.0
H397 H 0.50877 0.17567 0.55483 0.0
H398 H 0.52389 0.25477 0.59649 0.0
C399 C 0.60128 0.4967 0.75473 0.0
C400 C 0.60057 0.36492 0.70351 0.0
H401 H 0.69476 0.35483 0.65198 0.0
C402 C 0.54388 0.30895 0.69208 0.0
C403 C 0.65593 0.38151 0.68911 0.0
C404 C 0.71872 0.43968 0.70106 0.0
C405 C 0.54092 0.2689 0.66693 0.0
C406 C 0.59572 0.28617 0.65195 0.0
C407 C 0.65266 0.34205 0.66331 0.0
C408 C 0.59417 0.24567 0.62481 0.0
C409 C 0.47928 0.20757 0.65714 0.0
C410 C 0.63117 0.2167 0.62616 0.0
C411 C 0.6232 0.17184 0.6021 0.0
C412 C 0.57783 0.15509 0.57644 0.0
C413 C 0.54339 0.18676 0.5745 0.0
C414 C 0.55192 0.23197 0.59831 0.0
H415 H 0.44804 0.1935 0.67582 0.0
H416 H 0.45335 0.21358 0.6371 0.0
H417 H 0.48802 0.16848 0.65027 0.0
H418 H 0.66425 0.22681 0.64637 0.0
H419 H 0.6506 0.14843 0.60421 0.0
loop_
_geom_bond_atom_site_label_1
_geom_bond_atom_site_label_2
_geom_bond_distance
_geom_bond_site_symmetry_2
_ccdc_geom_bond_type
Zn0 O1 2.055 . S
Zn0 O8 2.046 . S
Zn0 N16 2.036 . S
Zn0 O28 2.053 1_455 S
Zn0 O30 2.066 1_455 S
O1 Zn0 2.055 . S
O1 C4 1.259 . S
C2 O30 1.256 . S
C2 O31 1.244 . S
Zn3 O5 2.046 . S
Zn3 O7 2.055 . S
Zn3 N9 2.036 . S
Zn3 O27 2.066 1_455 S
Zn3 O31 2.053 1_455 S
C4 O1 1.259 . S
C4 O5 1.254 . S
O5 Zn3 2.046 . S
O5 C4 1.254 . S
C6 O27 1.256 . S
C6 O28 1.244 . S
O7 Zn3 2.055 . S
O7 C29 1.259 . S
O8 Zn0 2.046 . S
O8 C29 1.254 . S
N9 Zn3 2.036 . S
N9 C10 1.298 . S
N9 N12 1.398 1_455 S
C10 N9 1.298 . S
C10 N13 1.367 1_455 S
C10 C23 1.481 . S
C11 N12 1.299 . S
C11 N13 1.379 . S
N12 N9 1.398 1_655 S
N12 C11 1.299 . S
N13 C10 1.367 1_655 S
N13 C11 1.379 . S
C14 N16 1.298 . S
C14 N18 1.367 1_455 S
C14 C22 1.481 . S
C15 N17 1.299 . S
C15 N18 1.379 . S
N16 Zn0 2.036 . S
N16 C14 1.298 . S
N16 N17 1.398 1_455 S
N17 C15 1.299 . S
N17 N16 1.398 1_655 S
N18 C14 1.367 1_655 S
N18 C15 1.379 . S
H19 C22 0.980 . S
H20 C22 0.981 . S
H21 C22 0.981 . S
C22 C14 1.481 . S
C22 H19 0.980 . S
C22 H20 0.981 . S
C22 H21 0.981 . S
C23 C10 1.481 . S
C23 H24 0.980 . S
C23 H25 0.981 . S
C23 H26 0.981 . S
H24 C23 0.980 . S
H25 C23 0.981 . S
H26 C23 0.981 . S
O27 Zn3 2.066 1_655 S
O27 C6 1.256 . S
O28 Zn0 2.053 1_655 S
O28 C6 1.244 . S
C29 O7 1.259 . S
C29 O8 1.254 . S
O30 Zn0 2.066 1_655 S
O30 C2 1.256 . S
O31 C2 1.244 . S
O31 Zn3 2.053 1_655 S
Zn32 O33 2.055 . S
Zn32 O40 2.046 . S
Zn32 N48 2.036 1_565 S
Zn32 O60 2.053 1_565 S
Zn32 O62 2.066 1_565 S
O33 Zn32 2.055 . S
O33 C36 1.259 . S
C34 O62 1.256 . S
C34 O63 1.244 . S
Zn35 O37 2.046 . S
Zn35 O39 2.055 . S
Zn35 N41 2.036 1_565 S
Zn35 O59 2.066 1_565 S
Zn35 O63 2.053 1_565 S
C36 O33 1.259 . S
C36 O37 1.254 . S
O37 Zn35 2.046 . S
O37 C36 1.254 . S
C38 O59 1.256 . S
C38 O60 1.244 . S
O39 Zn35 2.055 . S
O39 C61 1.259 . S
O40 Zn32 2.046 . S
O40 C61 1.254 . S
N41 Zn35 2.036 1_545 S
N41 C42 1.298 . S
N41 N44 1.398 . S
C42 N41 1.298 . S
C42 N45 1.367 . S
C42 C55 1.481 1_545 S
C43 N44 1.299 . S
C43 N45 1.379 . S
N44 N41 1.398 . S
N44 C43 1.299 . S
N45 C42 1.367 . S
N45 C43 1.379 . S
C46 N48 1.297 . S
C46 N50 1.367 . S
C46 C54 1.481 1_545 S
C47 N49 1.299 . S
C47 N50 1.379 . S
N48 Zn32 2.036 1_545 S
N48 C46 1.297 . S
N48 N49 1.398 . S
N49 C47 1.299 . S
N49 N48 1.398 . S
N50 C46 1.367 . S
N50 C47 1.379 . S
H51 C54 0.980 . S
H52 C54 0.981 . S
H53 C54 0.981 1_545 S
C54 C46 1.481 1_565 S
C54 H51 0.980 . S
C54 H52 0.981 . S
C54 H53 0.981 1_565 S
C55 C42 1.481 1_565 S
C55 H56 0.980 . S
C55 H57 0.981 . S
C55 H58 0.981 1_565 S
H56 C55 0.980 . S
H57 C55 0.981 . S
H58 C55 0.981 1_545 S
O59 Zn35 2.066 1_545 S
O59 C38 1.256 . S
O60 Zn32 2.053 1_545 S
O60 C38 1.244 . S
C61 O39 1.259 . S
C61 O40 1.254 . S
O62 Zn32 2.066 1_545 S
O62 C34 1.256 . S
O63 C34 1.244 . S
O63 Zn35 2.053 1_545 S
Zn64 O65 2.055 . S
Zn64 O72 2.046 . S
Zn64 N80 2.036 . S
Zn64 O92 2.053 . S
Zn64 O94 2.066 . S
O65 Zn64 2.055 . S
O65 C68 1.259 . S
C66 O94 1.256 . S
C66 O95 1.244 . S
Zn67 O69 2.046 . S
Zn67 O71 2.055 . S
Zn67 N73 2.036 . S
Zn67 O91 2.066 . S
Zn67 O95 2.053 . S
C68 O65 1.259 . S
C68 O69 1.254 . S
O69 Zn67 2.046 . S
O69 C68 1.254 . S
C70 O91 1.256 . S
C70 O92 1.244 . S
O71 Zn67 2.055 . S
O71 C93 1.259 . S
O72 Zn64 2.046 . S
O72 C93 1.254 . S
N73 Zn67 2.036 . S
N73 C74 1.298 . S
N73 N76 1.398 . S
C74 N73 1.298 . S
C74 N77 1.367 . S
C74 C87 1.481 . S
C75 N76 1.299 . S
C75 N77 1.379 . S
N76 N73 1.398 . S
N76 C75 1.299 . S
N77 C74 1.367 . S
N77 C75 1.379 . S
C78 N80 1.298 . S
C78 N82 1.367 . S
C78 C86 1.481 . S
C79 N81 1.299 . S
C79 N82 1.379 . S
N80 Zn64 2.036 . S
N80 C78 1.298 . S
N80 N81 1.398 . S
N81 C79 1.299 . S
N81 N80 1.398 . S
N82 C78 1.367 . S
N82 C79 1.379 . S
H83 C86 0.980 . S
H84 C86 0.981 . S
H85 C86 0.981 . S
C86 C78 1.481 . S
C86 H83 0.980 . S
C86 H84 0.981 . S
C86 H85 0.981 . S
C87 C74 1.481 . S
C87 H88 0.980 . S
C87 H89 0.981 . S
C87 H90 0.981 . S
H88 C87 0.980 . S
H89 C87 0.981 . S
H90 C87 0.981 . S
O91 Zn67 2.066 . S
O91 C70 1.256 . S
O92 Zn64 2.053 . S
O92 C70 1.244 . S
C93 O71 1.259 . S
C93 O72 1.254 . S
O94 Zn64 2.066 . S
O94 C66 1.256 . S
O95 C66 1.244 . S
O95 Zn67 2.053 . S
H96 C104 0.929 . S
H97 C106 0.930 . S
H98 C108 0.930 . S
H99 C111 0.929 . S
H100 C114 0.930 . S
H101 C116 0.960 1_545 S
H102 C116 0.960 . S
H103 C116 0.960 . S
C104 H96 0.929 . S
C104 C105 1.377 . S
C104 C106 1.384 . S
C105 C104 1.377 . S
C105 C111 1.390 . S
C106 H97 0.930 . S
C106 C104 1.384 . S
C106 C107 1.372 . S
C107 C106 1.372 . S
C107 C108 1.400 . S
C107 C112 1.490 . S
C108 H98 0.930 . S
C108 C107 1.400 . S
C108 C111 1.386 . S
H109 C125 0.930 . S
H110 C126 0.931 . S
C111 H99 0.929 . S
C111 C105 1.390 . S
C111 C108 1.386 . S
C112 C107 1.490 . S
C112 C114 1.395 . S
C112 C115 1.403 1_655 S
H113 C119 0.930 . S
C114 H100 0.930 . S
C114 C112 1.395 . S
C114 C117 1.403 . S
C115 C112 1.403 1_455 S
C115 C116 1.524 . S
C115 C119 1.400 1_565 S
C116 H101 0.960 1_565 S
C116 H102 0.960 . S
C116 H103 0.960 . S
C116 C115 1.524 . S
C117 C114 1.403 . S
C117 C118 1.392 1_565 S
C117 C121 1.495 . S
C118 C117 1.392 1_545 S
C118 C119 1.385 1_655 S
C118 C120 1.478 . S
C119 H113 0.930 . S
C119 C115 1.400 1_545 S
C119 C118 1.385 1_455 S
C120 C118 1.478 . S
C120 C122 1.381 . S
C120 C126 1.383 . S
C121 C117 1.495 . S
C121 H127 0.959 . S
C121 H128 0.961 . S
C121 H129 0.960 . S
C122 C120 1.381 . S
C122 C123 1.394 . S
C122 H130 0.930 . S
C123 C122 1.394 . S
C123 C124 1.383 . S
C123 H131 0.929 . S
C124 C123 1.383 . S
C124 C125 1.377 . S
C125 H109 0.930 . S
C125 C124 1.377 . S
C125 C126 1.379 . S
C126 H110 0.931 . S
C126 C120 1.383 . S
C126 C125 1.379 . S
H127 C121 0.959 . S
H128 C121 0.961 . S
H129 C121 0.960 . S
H130 C122 0.930 . S
H131 C123 0.929 . S
H132 C140 0.929 . S
H133 C142 0.930 . S
H134 C144 0.930 . S
H135 C147 0.929 . S
H136 C150 0.930 . S
H137 C152 0.960 . S
H138 C152 0.960 . S
H139 C152 0.960 . S
C140 H132 0.929 . S
C140 C141 1.377 . S
C140 C142 1.384 . S
C141 C140 1.377 . S
C141 C147 1.390 1_545 S
C142 H133 0.930 . S
C142 C140 1.384 . S
C142 C143 1.372 . S
C143 C142 1.372 . S
C143 C144 1.400 1_545 S
C143 C148 1.490 . S
C144 H134 0.930 . S
C144 C143 1.400 1_565 S
C144 C147 1.386 . S
H145 C161 0.930 . S
H146 C162 0.931 . S
C147 H135 0.929 . S
C147 C141 1.390 1_565 S
C147 C144 1.386 . S
C148 C143 1.490 . S
C148 C150 1.395 . S
C148 C151 1.401 1_545 S
H149 C155 0.930 1_665 S
C150 H136 0.930 . S
C150 C148 1.395 . S
C150 C153 1.403 . S
C151 C148 1.401 1_565 S
C151 C152 1.530 . S
C151 C155 1.395 1_565 S
C152 H137 0.960 . S
C152 H138 0.960 . S
C152 H139 0.960 . S
C152 C151 1.530 . S
C153 C150 1.403 . S
C153 C154 1.392 1_455 S
C153 C157 1.495 . S
C154 C153 1.392 1_655 S
C154 C155 1.385 1_655 S
C154 C156 1.478 . S
C155 H149 0.930 1_445 S
C155 C151 1.395 1_545 S
C155 C154 1.385 1_455 S
C156 C154 1.478 . S
C156 C158 1.381 . S
C156 C162 1.383 1_545 S
C157 C153 1.495 . S
C157 H163 0.959 . S
C157 H164 0.961 . S
C157 H165 0.960 . S
C158 C156 1.381 . S
C158 C159 1.394 . S
C158 H166 0.930 . S
C159 C158 1.394 . S
C159 C160 1.383 . S
C159 H167 0.929 . S
C160 C159 1.383 . S
C160 C161 1.377 1_545 S
C161 H145 0.930 . S
C161 C160 1.377 1_565 S
C161 C162 1.379 . S
C162 H146 0.931 . S
C162 C156 1.383 1_565 S
C162 C161 1.379 . S
H163 C157 0.959 . S
H164 C157 0.961 . S
H165 C157 0.960 . S
H166 C158 0.930 . S
H167 C159 0.929 . S
H168 C176 0.929 . S
H169 C178 0.930 . S
H170 C180 0.930 . S
H171 C183 0.929 . S
H172 C186 0.930 . S
H173 C188 0.960 1_545 S
H174 C188 0.960 . S
H175 C188 0.960 . S
C176 H168 0.929 . S
C176 C177 1.377 . S
C176 C178 1.384 . S
C177 C176 1.377 . S
C177 C183 1.390 . S
C178 H169 0.930 . S
C178 C176 1.384 . S
C178 C179 1.372 . S
C179 C178 1.372 . S
C179 C180 1.400 . S
C179 C184 1.490 . S
C180 H170 0.930 . S
C180 C179 1.400 . S
C180 C183 1.386 . S
H181 C197 0.930 . S
H182 C198 0.931 . S
C183 H171 0.929 . S
C183 C177 1.390 . S
C183 C180 1.386 . S
C184 C179 1.490 . S
C184 C186 1.395 . S
C184 C187 1.403 1_565 S
H185 C191 0.930 . S
C186 H172 0.930 . S
C186 C184 1.395 . S
C186 C189 1.403 1_665 S
C187 C184 1.403 1_545 S
C187 C188 1.524 1_545 S
C187 C191 1.400 1_655 S
C188 H173 0.960 1_565 S
C188 H174 0.960 . S
C188 H175 0.960 . S
C188 C187 1.524 1_565 S
C189 C186 1.403 1_445 S
C189 C190 1.392 . S
C189 C193 1.495 . S
C190 C189 1.392 . S
C190 C191 1.385 . S
C190 C192 1.478 . S
C191 H185 0.930 . S
C191 C187 1.400 1_455 S
C191 C190 1.385 . S
C192 C190 1.478 . S
C192 C194 1.381 . S
C192 C198 1.383 . S
C193 C189 1.495 . S
C193 H199 0.959 . S
C193 H200 0.961 . S
C193 H201 0.960 . S
C194 C192 1.381 . S
C194 C195 1.394 . S
C194 H202 0.930 . S
C195 C194 1.394 . S
C195 C196 1.383 . S
C195 H203 0.929 . S
C196 C195 1.383 . S
C196 C197 1.377 . S
C197 H181 0.930 . S
C197 C196 1.377 . S
C197 C198 1.379 . S
C198 H182 0.931 . S
C198 C192 1.383 . S
C198 C197 1.379 . S
H199 C193 0.959 . S
H200 C193 0.961 . S
H201 C193 0.960 . S
H202 C194 0.930 . S
H203 C195 0.929 . S
H204 C212 0.929 . S
H205 C214 0.930 . S
H206 C216 0.930 . S
H207 C219 0.929 . S
H208 C222 0.930 . S
H209 C224 0.960 . S
H210 C224 0.960 . S
H211 C224 0.960 . S
C212 H204 0.929 . S
C212 C213 1.377 . S
C212 C214 1.384 . S
C213 C212 1.377 . S
C213 C219 1.390 . S
C214 H205 0.930 . S
C214 C212 1.384 . S
C214 C215 1.372 . S
C215 C214 1.372 . S
C215 C216 1.400 . S
C215 C220 1.490 . S
C216 H206 0.930 . S
C216 C215 1.400 . S
C216 C219 1.386 . S
H217 C233 0.930 . S
H218 C234 0.931 . S
C219 H207 0.929 . S
C219 C213 1.390 . S
C219 C216 1.386 . S
C220 C215 1.490 . S
C220 C222 1.395 1_556 S
C220 C223 1.403 . S
H221 C227 0.930 . S
C222 H208 0.930 . S
C222 C220 1.395 1_554 S
C222 C225 1.403 . S
C223 C220 1.403 . S
C223 C224 1.524 . S
C223 C227 1.400 . S
C224 H209 0.960 . S
C224 H210 0.960 . S
C224 H211 0.960 . S
C224 C223 1.524 . S
C225 C222 1.403 . S
C225 C226 1.392 . S
C225 C229 1.495 . S
C226 C225 1.392 . S
C226 C227 1.385 1_554 S
C226 C228 1.478 . S
C227 H221 0.930 . S
C227 C223 1.400 . S
C227 C226 1.385 1_556 S
C228 C226 1.478 . S
C228 C230 1.381 . S
C228 C234 1.383 . S
C229 C225 1.495 . S
C229 H235 0.959 . S
C229 H236 0.961 . S
C229 H237 0.960 . S
C230 C228 1.381 . S
C230 C231 1.394 . S
C230 H238 0.930 . S
C231 C230 1.394 . S
C231 C232 1.383 . S
C231 H239 0.929 . S
C232 C231 1.383 . S
C232 C233 1.377 . S
C233 H217 0.930 . S
C233 C232 1.377 . S
C233 C234 1.379 . S
C234 H218 0.931 . S
C234 C228 1.383 . S
C234 C233 1.379 . S
H235 C229 0.959 . S
H236 C229 0.961 . S
H237 C229 0.960 . S
H238 C230 0.930 . S
H239 C231 0.929 . S
H240 C248 0.929 . S
H241 C250 0.930 . S
H242 C252 0.930 . S
H243 C255 0.929 . S
H244 C258 0.930 . S
H245 C260 0.960 . S
H246 C260 0.960 . S
H247 C260 0.960 . S
C248 H240 0.929 . S
C248 C249 1.377 . S
C248 C250 1.384 . S
C249 C248 1.377 . S
C249 C255 1.390 . S
C250 H241 0.930 . S
C250 C248 1.384 . S
C250 C251 1.372 . S
C251 C250 1.372 . S
C251 C252 1.400 . S
C251 C256 1.490 . S
C252 H242 0.930 . S
C252 C251 1.400 . S
C252 C255 1.386 . S
H253 C269 0.930 . S
H254 C270 0.931 . S
C255 H243 0.929 . S
C255 C249 1.390 . S
C255 C252 1.386 . S
C256 C251 1.490 . S
C256 C258 1.395 . S
C256 C259 1.403 . S
H257 C263 0.930 . S
C258 H244 0.930 . S
C258 C256 1.395 . S
C258 C261 1.403 . S
C259 C256 1.403 . S
C259 C260 1.524 . S
C259 C263 1.400 . S
C260 H245 0.960 . S
C260 H246 0.960 . S
C260 H247 0.960 . S
C260 C259 1.524 . S
C261 C258 1.403 . S
C261 C262 1.392 . S
C261 C265 1.495 . S
C262 C261 1.392 . S
C262 C263 1.385 . S
C262 C264 1.478 . S
C263 H257 0.930 . S
C263 C259 1.400 . S
C263 C262 1.385 . S
C264 C262 1.478 . S
C264 C266 1.381 . S
C264 C270 1.383 . S
C265 C261 1.495 . S
C265 H271 0.959 . S
C265 H272 0.961 . S
C265 H273 0.960 . S
C266 C264 1.381 . S
C266 C267 1.394 . S
C266 H274 0.930 . S
C267 C266 1.394 . S
C267 C268 1.383 . S
C267 H275 0.929 . S
C268 C267 1.383 . S
C268 C269 1.377 . S
C269 H253 0.930 . S
C269 C268 1.377 . S
C269 C270 1.379 . S
C270 H254 0.931 . S
C270 C264 1.383 . S
C270 C269 1.379 . S
H271 C265 0.959 . S
H272 C265 0.961 . S
H273 C265 0.960 . S
H274 C266 0.930 . S
H275 C267 0.929 . S
H276 C284 0.929 . S
H277 C286 0.930 . S
H278 C288 0.930 . S
H279 C291 0.929 . S
H280 C294 0.930 . S
H281 C296 0.960 . S
H282 C296 0.960 . S
H283 C296 0.960 . S
C284 H276 0.929 . S
C284 C285 1.377 . S
C284 C286 1.384 . S
C285 C284 1.377 . S
C285 C291 1.390 . S
C286 H277 0.930 . S
C286 C284 1.384 . S
C286 C287 1.372 . S
C287 C286 1.372 . S
C287 C288 1.400 . S
C287 C292 1.490 . S
C288 H278 0.930 . S
C288 C287 1.400 . S
C288 C291 1.386 . S
H289 C305 0.930 . S
H290 C306 0.931 . S
C291 H279 0.929 . S
C291 C285 1.390 . S
C291 C288 1.386 . S
C292 C287 1.490 . S
C292 C294 1.395 . S
C292 C295 1.403 . S
H293 C299 0.930 . S
C294 H280 0.930 . S
C294 C292 1.395 . S
C294 C297 1.403 . S
C295 C292 1.403 . S
C295 C296 1.524 . S
C295 C299 1.400 . S
C296 H281 0.960 . S
C296 H282 0.960 . S
C296 H283 0.960 . S
C296 C295 1.524 . S
C297 C294 1.403 . S
C297 C298 1.392 . S
C297 C301 1.495 . S
C298 C297 1.392 . S
C298 C299 1.385 . S
C298 C300 1.478 . S
C299 H293 0.930 . S
C299 C295 1.400 . S
C299 C298 1.385 . S
C300 C298 1.478 . S
C300 C302 1.381 . S
C300 C306 1.383 . S
C301 C297 1.495 . S
C301 H307 0.959 . S
C301 H308 0.961 . S
C301 H309 0.960 . S
C302 C300 1.381 . S
C302 C303 1.394 . S
C302 H310 0.930 . S
C303 C302 1.394 . S
C303 C304 1.383 . S
C303 H311 0.929 . S
C304 C303 1.383 . S
C304 C305 1.377 . S
C305 H289 0.930 . S
C305 C304 1.377 . S
C305 C306 1.379 . S
C306 H290 0.931 . S
C306 C300 1.383 . S
C306 C305 1.379 . S
H307 C301 0.959 . S
H308 C301 0.961 . S
H309 C301 0.960 . S
H310 C302 0.930 . S
H311 C303 0.929 . S
H312 C320 0.929 . S
H313 C322 0.930 . S
H314 C324 0.930 . S
H315 C327 0.929 . S
H316 C330 0.930 . S
H317 C332 0.960 . S
H318 C332 0.960 . S
H319 C332 0.960 . S
C320 H312 0.929 . S
C320 C321 1.377 . S
C320 C322 1.384 . S
C321 C320 1.377 . S
C321 C327 1.390 . S
C322 H313 0.930 . S
C322 C320 1.384 . S
C322 C323 1.372 . S
C323 C322 1.372 . S
C323 C324 1.400 . S
C323 C328 1.490 . S
C324 H314 0.930 . S
C324 C323 1.400 . S
C324 C327 1.386 . S
H325 C341 0.930 . S
H326 C342 0.931 . S
C327 H315 0.929 . S
C327 C321 1.390 . S
C327 C324 1.386 . S
C328 C323 1.490 . S
C328 C330 1.395 1_556 S
C328 C331 1.403 . S
H329 C335 0.929 1_556 S
C330 H316 0.930 . S
C330 C328 1.395 1_554 S
C330 C333 1.403 . S
C331 C328 1.403 . S
C331 C332 1.524 . S
C331 C335 1.396 1_556 S
C332 H317 0.960 . S
C332 H318 0.960 . S
C332 H319 0.960 . S
C332 C331 1.524 . S
C333 C330 1.403 . S
C333 C334 1.392 . S
C333 C337 1.495 . S
C334 C333 1.392 . S
C334 C335 1.390 . S
C334 C336 1.478 . S
C335 H329 0.929 1_554 S
C335 C331 1.396 1_554 S
C335 C334 1.390 . S
C336 C334 1.478 . S
C336 C338 1.381 . S
C336 C342 1.383 . S
C337 C333 1.495 . S
C337 H343 0.959 . S
C337 H344 0.961 . S
C337 H345 0.960 . S
C338 C336 1.381 . S
C338 C339 1.394 . S
C338 H346 0.930 . S
C339 C338 1.394 . S
C339 C340 1.383 . S
C339 H347 0.929 . S
C340 C339 1.383 . S
C340 C341 1.377 . S
C341 H325 0.930 . S
C341 C340 1.377 . S
C341 C342 1.379 . S
C342 H326 0.931 . S
C342 C336 1.383 . S
C342 C341 1.379 . S
H343 C337 0.959 . S
H344 C337 0.961 . S
H345 C337 0.960 . S
H346 C338 0.930 . S
H347 C339 0.929 . S
H348 C356 0.929 . S
H349 C358 0.930 . S
H350 C360 0.930 . S
H351 C363 0.929 . S
H352 C366 0.930 . S
H353 C368 0.960 . S
H354 C368 0.960 . S
H355 C368 0.960 . S
C356 H348 0.929 . S
C356 C357 1.377 . S
C356 C358 1.384 . S
C357 C356 1.377 . S
C357 C363 1.390 . S
C358 H349 0.930 . S
C358 C356 1.384 . S
C358 C359 1.372 . S
C359 C358 1.372 . S
C359 C360 1.400 . S
C359 C364 1.490 . S
C360 H350 0.930 . S
C360 C359 1.400 . S
C360 C363 1.386 . S
H361 C377 0.930 . S
H362 C378 0.931 . S
C363 H351 0.929 . S
C363 C357 1.390 . S
C363 C360 1.386 . S
C364 C359 1.490 . S
C364 C366 1.395 . S
C364 C367 1.403 . S
H365 C371 0.930 . S
C366 H352 0.930 . S
C366 C364 1.395 . S
C366 C369 1.403 . S
C367 C364 1.403 . S
C367 C368 1.524 . S
C367 C371 1.400 . S
C368 H353 0.960 . S
C368 H354 0.960 . S
C368 H355 0.960 . S
C368 C367 1.524 . S
C369 C366 1.403 . S
C369 C370 1.392 . S
C369 C373 1.495 . S
C370 C369 1.392 . S
C370 C371 1.385 . S
C370 C372 1.478 . S
C371 H365 0.930 . S
C371 C367 1.400 . S
C371 C370 1.385 . S
C372 C370 1.478 . S
C372 C374 1.381 . S
C372 C378 1.383 . S
C373 C369 1.495 . S
C373 H379 0.959 . S
C373 H380 0.961 . S
C373 H381 0.960 . S
C374 C372 1.381 . S
C374 C375 1.394 . S
C374 H382 0.930 . S
C375 C374 1.394 . S
C375 C376 1.383 . S
C375 H383 0.929 . S
C376 C375 1.383 . S
C376 C377 1.377 . S
C377 H361 0.930 . S
C377 C376 1.377 . S
C377 C378 1.379 . S
C378 H362 0.931 . S
C378 C372 1.383 . S
C378 C377 1.379 . S
H379 C373 0.959 . S
H380 C373 0.961 . S
H381 C373 0.960 . S
H382 C374 0.930 . S
H383 C375 0.929 . S
H384 C392 0.929 . S
H385 C394 0.930 . S
H386 C396 0.930 . S
H387 C399 0.929 . S
H388 C402 0.930 . S
H389 C404 0.960 . S
H390 C404 0.960 . S
H391 C404 0.960 . S
C392 H384 0.929 . S
C392 C393 1.377 . S
C392 C394 1.384 . S
C393 C392 1.377 . S
C393 C399 1.390 . S
C394 H385 0.930 . S
C394 C392 1.384 . S
C394 C395 1.372 . S
C395 C394 1.372 . S
C395 C396 1.400 . S
C395 C400 1.490 . S
C396 H386 0.930 . S
C396 C395 1.400 . S
C396 C399 1.386 . S
H397 C413 0.930 . S
H398 C414 0.931 . S
C399 H387 0.929 . S
C399 C393 1.390 . S
C399 C396 1.386 . S
C400 C395 1.490 . S
C400 C402 1.395 . S
C400 C403 1.403 . S
H401 C407 0.930 . S
C402 H388 0.930 . S
C402 C400 1.395 . S
C402 C405 1.403 . S
C403 C400 1.403 . S
C403 C404 1.524 . S
C403 C407 1.400 . S
C404 H389 0.960 . S
C404 H390 0.960 . S
C404 H391 0.960 . S
C404 C403 1.524 . S
C405 C402 1.403 . S
C405 C406 1.392 . S
C405 C409 1.495 . S
C406 C405 1.392 . S
C406 C407 1.385 . S
C406 C408 1.478 . S
C407 H401 0.930 . S
C407 C403 1.400 . S
C407 C406 1.385 . S
C408 C406 1.478 . S
C408 C410 1.381 . S
C408 C414 1.383 . S
C409 C405 1.495 . S
C409 H415 0.959 . S
C409 H416 0.961 . S
C409 H417 0.960 . S
C410 C408 1.381 . S
C410 C411 1.394 . S
C410 H418 0.930 . S
C411 C410 1.394 . S
C411 C412 1.383 . S
C411 H419 0.929 . S
C412 C411 1.383 . S
C412 C413 1.377 . S
C413 H397 0.930 . S
C413 C412 1.377 . S
C413 C414 1.379 . S
C414 H398 0.931 . S
C414 C408 1.383 . S
C414 C413 1.379 . S
H415 C409 0.959 . S
H416 C409 0.961 . S
H417 C409 0.960 . S
H418 C410 0.930 . S
H419 C411 0.929 . S
C105 N18 0.839 . S
C124 N13 0.821 . S
C141 N45 0.845 . S
C160 N50 0.877 . S
C177 N82 0.822 . S
C196 N77 0.786 . S
C213 C70 1.477 . S
C232 C4 1.477 . S
C249 C34 1.900 . S
C268 C6 1.885 . S
C285 C66 1.481 . S
C304 C61 1.471 . S
C321 C93 1.506 . S
C340 C2 1.502 . S
C357 C29 1.107 . S
C376 C36 1.128 . S
C393 C68 1.508 . S
C412 C38 1.484 . S
