# Generated by pormake.
# Topology ana, (4)-cn, num edge types: 1
# Building blocks:
#     Node 0, Type 0, BuildingBlock: CEKHIL_clean_sbu_0, # of connection points: 4
#     Node 1, Type 0, BuildingBlock: CEKHIL_clean_sbu_0, # of connection points: 4
#     Node 2, Type 0, BuildingBlock: CEKHIL_clean_sbu_0, # of connection points: 4
#     Node 3, Type 0, BuildingBlock: CEKHIL_clean_sbu_0, # of connection points: 4
#     Node 4, Type 0, BuildingBlock: CEKHIL_clean_sbu_0, # of connection points: 4
#     Node 5, Type 0, BuildingBlock: CEKHIL_clean_sbu_0, # of connection points: 4
#     Node 6, Type 0, BuildingBlock: CEKHIL_clean_sbu_0, # of connection points: 4
#     Node 7, Type 0, BuildingBlock: CEKHIL_clean_sbu_0, # of connection points: 4
#     Node 8, Type 0, BuildingBlock: CEKHIL_clean_sbu_0, # of connection points: 4
#     Node 9, Type 0, BuildingBlock: CEKHIL_clean_sbu_0, # of connection points: 4
#     Node 10, Type 0, BuildingBlock: CEKHIL_clean_sbu_0, # of connection points: 4
#     Node 11, Type 0, BuildingBlock: CEKHIL_clean_sbu_0, # of connection points: 4
#     Node 12, Type 0, BuildingBlock: CEKHIL_clean_sbu_0, # of connection points: 4
#     Node 13, Type 0, BuildingBlock: CEKHIL_clean_sbu_0, # of connection points: 4
#     Node 14, Type 0, BuildingBlock: CEKHIL_clean_sbu_0, # of connection points: 4
#     Node 15, Type 0, BuildingBlock: CEKHIL_clean_sbu_0, # of connection points: 4
#     Node 16, Type 0, BuildingBlock: CEKHIL_clean_sbu_0, # of connection points: 4
#     Node 17, Type 0, BuildingBlock: CEKHIL_clean_sbu_0, # of connection points: 4
#     Node 18, Type 0, BuildingBlock: CEKHIL_clean_sbu_0, # of connection points: 4
#     Node 19, Type 0, BuildingBlock: CEKHIL_clean_sbu_0, # of connection points: 4
#     Node 20, Type 0, BuildingBlock: CEKHIL_clean_sbu_0, # of connection points: 4
#     Node 21, Type 0, BuildingBlock: CEKHIL_clean_sbu_0, # of connection points: 4
#     Node 22, Type 0, BuildingBlock: CEKHIL_clean_sbu_0, # of connection points: 4
#     Node 23, Type 0, BuildingBlock: CEKHIL_clean_sbu_0, # of connection points: 4
#     Node 24, Type 0, BuildingBlock: CEKHIL_clean_sbu_0, # of connection points: 4
#     Node 25, Type 0, BuildingBlock: CEKHIL_clean_sbu_0, # of connection points: 4
#     Node 26, Type 0, BuildingBlock: CEKHIL_clean_sbu_0, # of connection points: 4
#     Node 27, Type 0, BuildingBlock: CEKHIL_clean_sbu_0, # of connection points: 4
#     Node 28, Type 0, BuildingBlock: CEKHIL_clean_sbu_0, # of connection points: 4
#     Node 29, Type 0, BuildingBlock: CEKHIL_clean_sbu_0, # of connection points: 4
#     Node 30, Type 0, BuildingBlock: CEKHIL_clean_sbu_0, # of connection points: 4
#     Node 31, Type 0, BuildingBlock: CEKHIL_clean_sbu_0, # of connection points: 4
#     Node 32, Type 0, BuildingBlock: CEKHIL_clean_sbu_0, # of connection points: 4
#     Node 33, Type 0, BuildingBlock: CEKHIL_clean_sbu_0, # of connection points: 4
#     Node 34, Type 0, BuildingBlock: CEKHIL_clean_sbu_0, # of connection points: 4
#     Node 35, Type 0, BuildingBlock: CEKHIL_clean_sbu_0, # of connection points: 4
#     Node 36, Type 0, BuildingBlock: CEKHIL_clean_sbu_0, # of connection points: 4
#     Node 37, Type 0, BuildingBlock: CEKHIL_clean_sbu_0, # of connection points: 4
#     Node 38, Type 0, BuildingBlock: CEKHIL_clean_sbu_0, # of connection points: 4
#     Node 39, Type 0, BuildingBlock: CEKHIL_clean_sbu_0, # of connection points: 4
#     Node 40, Type 0, BuildingBlock: CEKHIL_clean_sbu_0, # of connection points: 4
#     Node 41, Type 0, BuildingBlock: CEKHIL_clean_sbu_0, # of connection points: 4
#     Node 42, Type 0, BuildingBlock: CEKHIL_clean_sbu_0, # of connection points: 4
#     Node 43, Type 0, BuildingBlock: CEKHIL_clean_sbu_0, # of connection points: 4
#     Node 44, Type 0, BuildingBlock: CEKHIL_clean_sbu_0, # of connection points: 4
#     Node 45, Type 0, BuildingBlock: CEKHIL_clean_sbu_0, # of connection points: 4
#     Node 46, Type 0, BuildingBlock: CEKHIL_clean_sbu_0, # of connection points: 4
#     Node 47, Type 0, BuildingBlock: CEKHIL_clean_sbu_0, # of connection points: 4
#     Edge 48, Type (0, 0), BuildingBlock: XUDNAN_clean_linker_2, # of connection points: 2
#     Edge 49, Type (0, 0), BuildingBlock: XUDNAN_clean_linker_2, # of connection points: 2
#     Edge 50, Type (0, 0), BuildingBlock: XUDNAN_clean_linker_2, # of connection points: 2
#     Edge 51, Type (0, 0), BuildingBlock: XUDNAN_clean_linker_2, # of connection points: 2
#     Edge 52, Type (0, 0), BuildingBlock: XUDNAN_clean_linker_2, # of connection points: 2
#     Edge 53, Type (0, 0), BuildingBlock: XUDNAN_clean_linker_2, # of connection points: 2
#     Edge 54, Type (0, 0), BuildingBlock: XUDNAN_clean_linker_2, # of connection points: 2
#     Edge 55, Type (0, 0), BuildingBlock: XUDNAN_clean_linker_2, # of connection points: 2
#     Edge 56, Type (0, 0), BuildingBlock: XUDNAN_clean_linker_2, # of connection points: 2
#     Edge 57, Type (0, 0), BuildingBlock: XUDNAN_clean_linker_2, # of connection points: 2
#     Edge 58, Type (0, 0), BuildingBlock: XUDNAN_clean_linker_2, # of connection points: 2
#     Edge 59, Type (0, 0), BuildingBlock: XUDNAN_clean_linker_2, # of connection points: 2
#     Edge 60, Type (0, 0), BuildingBlock: XUDNAN_clean_linker_2, # of connection points: 2
#     Edge 61, Type (0, 0), BuildingBlock: XUDNAN_clean_linker_2, # of connection points: 2
#     Edge 62, Type (0, 0), BuildingBlock: XUDNAN_clean_linker_2, # of connection points: 2
#     Edge 63, Type (0, 0), BuildingBlock: XUDNAN_clean_linker_2, # of connection points: 2
#     Edge 64, Type (0, 0), BuildingBlock: XUDNAN_clean_linker_2, # of connection points: 2
#     Edge 65, Type (0, 0), BuildingBlock: XUDNAN_clean_linker_2, # of connection points: 2
#     Edge 66, Type (0, 0), BuildingBlock: XUDNAN_clean_linker_2, # of connection points: 2
#     Edge 67, Type (0, 0), BuildingBlock: XUDNAN_clean_linker_2, # of connection points: 2
#     Edge 68, Type (0, 0), BuildingBlock: XUDNAN_clean_linker_2, # of connection points: 2
#     Edge 69, Type (0, 0), BuildingBlock: XUDNAN_clean_linker_2, # of connection points: 2
#     Edge 70, Type (0, 0), BuildingBlock: XUDNAN_clean_linker_2, # of connection points: 2
#     Edge 71, Type (0, 0), BuildingBlock: XUDNAN_clean_linker_2, # of connection points: 2
#     Edge 72, Type (0, 0), BuildingBlock: XUDNAN_clean_linker_2, # of connection points: 2
#     Edge 73, Type (0, 0), BuildingBlock: XUDNAN_clean_linker_2, # of connection points: 2
#     Edge 74, Type (0, 0), BuildingBlock: XUDNAN_clean_linker_2, # of connection points: 2
#     Edge 75, Type (0, 0), BuildingBlock: XUDNAN_clean_linker_2, # of connection points: 2
#     Edge 76, Type (0, 0), BuildingBlock: XUDNAN_clean_linker_2, # of connection points: 2
#     Edge 77, Type (0, 0), BuildingBlock: XUDNAN_clean_linker_2, # of connection points: 2
#     Edge 78, Type (0, 0), BuildingBlock: XUDNAN_clean_linker_2, # of connection points: 2
#     Edge 79, Type (0, 0), BuildingBlock: XUDNAN_clean_linker_2, # of connection points: 2
#     Edge 80, Type (0, 0), BuildingBlock: XUDNAN_clean_linker_2, # of connection points: 2
#     Edge 81, Type (0, 0), BuildingBlock: XUDNAN_clean_linker_2, # of connection points: 2
#     Edge 82, Type (0, 0), BuildingBlock: XUDNAN_clean_linker_2, # of connection points: 2
#     Edge 83, Type (0, 0), BuildingBlock: XUDNAN_clean_linker_2, # of connection points: 2
#     Edge 84, Type (0, 0), BuildingBlock: XUDNAN_clean_linker_2, # of connection points: 2
#     Edge 85, Type (0, 0), BuildingBlock: XUDNAN_clean_linker_2, # of connection points: 2
#     Edge 86, Type (0, 0), BuildingBlock: XUDNAN_clean_linker_2, # of connection points: 2
#     Edge 87, Type (0, 0), BuildingBlock: XUDNAN_clean_linker_2, # of connection points: 2
#     Edge 88, Type (0, 0), BuildingBlock: XUDNAN_clean_linker_2, # of connection points: 2
#     Edge 89, Type (0, 0), BuildingBlock: XUDNAN_clean_linker_2, # of connection points: 2
#     Edge 90, Type (0, 0), BuildingBlock: XUDNAN_clean_linker_2, # of connection points: 2
#     Edge 91, Type (0, 0), BuildingBlock: XUDNAN_clean_linker_2, # of connection points: 2
#     Edge 92, Type (0, 0), BuildingBlock: XUDNAN_clean_linker_2, # of connection points: 2
#     Edge 93, Type (0, 0), BuildingBlock: XUDNAN_clean_linker_2, # of connection points: 2
#     Edge 94, Type (0, 0), BuildingBlock: XUDNAN_clean_linker_2, # of connection points: 2
#     Edge 95, Type (0, 0), BuildingBlock: XUDNAN_clean_linker_2, # of connection points: 2
#     Edge 96, Type (0, 0), BuildingBlock: XUDNAN_clean_linker_2, # of connection points: 2
#     Edge 97, Type (0, 0), BuildingBlock: XUDNAN_clean_linker_2, # of connection points: 2
#     Edge 98, Type (0, 0), BuildingBlock: XUDNAN_clean_linker_2, # of connection points: 2
#     Edge 99, Type (0, 0), BuildingBlock: XUDNAN_clean_linker_2, # of connection points: 2
#     Edge 100, Type (0, 0), BuildingBlock: XUDNAN_clean_linker_2, # of connection points: 2
#     Edge 101, Type (0, 0), BuildingBlock: XUDNAN_clean_linker_2, # of connection points: 2
#     Edge 102, Type (0, 0), BuildingBlock: XUDNAN_clean_linker_2, # of connection points: 2
#     Edge 103, Type (0, 0), BuildingBlock: XUDNAN_clean_linker_2, # of connection points: 2
#     Edge 104, Type (0, 0), BuildingBlock: XUDNAN_clean_linker_2, # of connection points: 2
#     Edge 105, Type (0, 0), BuildingBlock: XUDNAN_clean_linker_2, # of connection points: 2
#     Edge 106, Type (0, 0), BuildingBlock: XUDNAN_clean_linker_2, # of connection points: 2
#     Edge 107, Type (0, 0), BuildingBlock: XUDNAN_clean_linker_2, # of connection points: 2
#     Edge 108, Type (0, 0), BuildingBlock: XUDNAN_clean_linker_2, # of connection points: 2
#     Edge 109, Type (0, 0), BuildingBlock: XUDNAN_clean_linker_2, # of connection points: 2
#     Edge 110, Type (0, 0), BuildingBlock: XUDNAN_clean_linker_2, # of connection points: 2
#     Edge 111, Type (0, 0), BuildingBlock: XUDNAN_clean_linker_2, # of connection points: 2
#     Edge 112, Type (0, 0), BuildingBlock: XUDNAN_clean_linker_2, # of connection points: 2
#     Edge 113, Type (0, 0), BuildingBlock: XUDNAN_clean_linker_2, # of connection points: 2
#     Edge 114, Type (0, 0), BuildingBlock: XUDNAN_clean_linker_2, # of connection points: 2
#     Edge 115, Type (0, 0), BuildingBlock: XUDNAN_clean_linker_2, # of connection points: 2
#     Edge 116, Type (0, 0), BuildingBlock: XUDNAN_clean_linker_2, # of connection points: 2
#     Edge 117, Type (0, 0), BuildingBlock: XUDNAN_clean_linker_2, # of connection points: 2
#     Edge 118, Type (0, 0), BuildingBlock: XUDNAN_clean_linker_2, # of connection points: 2
#     Edge 119, Type (0, 0), BuildingBlock: XUDNAN_clean_linker_2, # of connection points: 2
#     Edge 120, Type (0, 0), BuildingBlock: XUDNAN_clean_linker_2, # of connection points: 2
#     Edge 121, Type (0, 0), BuildingBlock: XUDNAN_clean_linker_2, # of connection points: 2
#     Edge 122, Type (0, 0), BuildingBlock: XUDNAN_clean_linker_2, # of connection points: 2
#     Edge 123, Type (0, 0), BuildingBlock: XUDNAN_clean_linker_2, # of connection points: 2
#     Edge 124, Type (0, 0), BuildingBlock: XUDNAN_clean_linker_2, # of connection points: 2
#     Edge 125, Type (0, 0), BuildingBlock: XUDNAN_clean_linker_2, # of connection points: 2
#     Edge 126, Type (0, 0), BuildingBlock: XUDNAN_clean_linker_2, # of connection points: 2
#     Edge 127, Type (0, 0), BuildingBlock: XUDNAN_clean_linker_2, # of connection points: 2
#     Edge 128, Type (0, 0), BuildingBlock: XUDNAN_clean_linker_2, # of connection points: 2
#     Edge 129, Type (0, 0), BuildingBlock: XUDNAN_clean_linker_2, # of connection points: 2
#     Edge 130, Type (0, 0), BuildingBlock: XUDNAN_clean_linker_2, # of connection points: 2
#     Edge 131, Type (0, 0), BuildingBlock: XUDNAN_clean_linker_2, # of connection points: 2
#     Edge 132, Type (0, 0), BuildingBlock: XUDNAN_clean_linker_2, # of connection points: 2
#     Edge 133, Type (0, 0), BuildingBlock: XUDNAN_clean_linker_2, # of connection points: 2
#     Edge 134, Type (0, 0), BuildingBlock: XUDNAN_clean_linker_2, # of connection points: 2
#     Edge 135, Type (0, 0), BuildingBlock: XUDNAN_clean_linker_2, # of connection points: 2
#     Edge 136, Type (0, 0), BuildingBlock: XUDNAN_clean_linker_2, # of connection points: 2
#     Edge 137, Type (0, 0), BuildingBlock: XUDNAN_clean_linker_2, # of connection points: 2
#     Edge 138, Type (0, 0), BuildingBlock: XUDNAN_clean_linker_2, # of connection points: 2
#     Edge 139, Type (0, 0), BuildingBlock: XUDNAN_clean_linker_2, # of connection points: 2
#     Edge 140, Type (0, 0), BuildingBlock: XUDNAN_clean_linker_2, # of connection points: 2
#     Edge 141, Type (0, 0), BuildingBlock: XUDNAN_clean_linker_2, # of connection points: 2
#     Edge 142, Type (0, 0), BuildingBlock: XUDNAN_clean_linker_2, # of connection points: 2
#     Edge 143, Type (0, 0), BuildingBlock: XUDNAN_clean_linker_2, # of connection points: 2
# Relax obj value: 0.099
# Max RMSD: 0.122
# Mean RMSD: 0.112
data_MOF--net-ana--node1-CEKHIL_clean_sbu_0--edge1-XUDNAN_clean_linker_2
_symmetry_space_group_name_H-M    P1
_symmetry_Int_Tables_number       1
_symmetry_cell_setting            triclinic
loop_
_symmetry_equiv_pos_as_xyz
'x, y, z'
_cell_length_a     65.252202
_cell_length_b     63.91578
_cell_length_c     63.983166
_cell_angle_alpha  90.06397
_cell_angle_beta   90.056694
_cell_angle_gamma 90.328842
loop_
_atom_site_label
_atom_site_type_symbol
_atom_site_fract_x
_atom_site_fract_y
_atom_site_fract_z
_atom_type_partial_charge
Co0 Co 0.12635 0.17666 0.41138 0.0
O1 O 0.15485 0.18326 0.41349 0.0
O2 O 0.14267 0.15253 0.40325 0.0
C3 C 0.11689 0.20596 0.39479 0.0
O4 O 0.09747 0.16504 0.40653 0.0
Co5 Co 0.09593 0.2046 0.43578 0.0
O6 O 0.0755 0.18927 0.41868 0.0
C7 C 0.12048 0.17432 0.45891 0.0
C8 C 0.15852 0.16431 0.40743 0.0
C9 C 0.07923 0.17239 0.40878 0.0
O10 O 0.12671 0.16693 0.44134 0.0
O11 O 0.10892 0.19035 0.46035 0.0
O12 O 0.12449 0.19038 0.38436 0.0
O13 O 0.11754 0.2043 0.41493 0.0
Co14 Co 0.0845 0.8783 0.66653 0.0
O15 O 0.10763 0.87876 0.68517 0.0
O16 O 0.0783 0.89533 0.69061 0.0
C17 C 0.08493 0.84357 0.66088 0.0
O18 O 0.05696 0.88053 0.6519 0.0
Co19 Co 0.08845 0.86512 0.62042 0.0
O20 O 0.05803 0.86327 0.62135 0.0
C21 C 0.10312 0.90676 0.63332 0.0
C22 C 0.09652 0.89048 0.69719 0.0
C23 C 0.04814 0.87266 0.63569 0.0
O24 O 0.09522 0.90361 0.65143 0.0
O25 O 0.10354 0.89272 0.61903 0.0
O26 O 0.07634 0.85121 0.67751 0.0
O27 O 0.09438 0.85691 0.64905 0.0
Co28 Co 0.36568 0.82182 0.90842 0.0
O29 O 0.3377 0.81312 0.90665 0.0
O30 O 0.34838 0.84568 0.90174 0.0
C31 C 0.3778 0.79523 0.88881 0.0
O32 O 0.39386 0.83586 0.90783 0.0
Co33 Co 0.39679 0.79238 0.9302 0.0
O34 O 0.41717 0.81243 0.91888 0.0
C35 C 0.36769 0.81652 0.95561 0.0
C36 C 0.3333 0.83222 0.90179 0.0
C37 C 0.4125 0.83016 0.91116 0.0
O38 O 0.36259 0.82729 0.93944 0.0
O39 O 0.37949 0.80061 0.95467 0.0
O40 O 0.37049 0.81187 0.87997 0.0
O41 O 0.37594 0.79446 0.90888 0.0
Co42 Co 0.41576 0.12215 0.16223 0.0
O43 O 0.3915 0.12109 0.17973 0.0
O44 O 0.42321 0.11431 0.19003 0.0
C45 C 0.40892 0.15321 0.147 0.0
O46 O 0.44474 0.12227 0.15056 0.0
Co47 Co 0.41612 0.12286 0.11406 0.0
O48 O 0.44572 0.12997 0.11646 0.0
C49 C 0.40832 0.08296 0.13626 0.0
C50 C 0.40402 0.11628 0.19482 0.0
C51 C 0.45469 0.12658 0.13379 0.0
O52 O 0.41171 0.09187 0.15399 0.0
O53 O 0.40849 0.09268 0.11878 0.0
O54 O 0.41701 0.15251 0.16554 0.0
O55 O 0.40398 0.13535 0.13883 0.0
Co56 Co 0.1202 0.83894 0.08458 0.0
O57 O 0.09068 0.83855 0.08395 0.0
O58 O 0.10954 0.85308 0.10892 0.0
C59 C 0.12444 0.84799 0.05087 0.0
O60 O 0.15076 0.8436 0.09014 0.0
Co61 Co 0.14595 0.80898 0.05694 0.0
O62 O 0.16911 0.82725 0.06538 0.0
C63 C 0.12511 0.7927 0.09458 0.0
C64 C 0.09144 0.8487 0.10151 0.0
C65 C 0.16786 0.83966 0.08092 0.0
O66 O 0.12009 0.81137 0.10009 0.0
O67 O 0.13421 0.7885 0.07737 0.0
O68 O 0.12082 0.86234 0.0648 0.0
O69 O 0.12382 0.82896 0.05746 0.0
Co70 Co 0.41231 0.88622 0.35016 0.0
O71 O 0.42744 0.88872 0.37584 0.0
O72 O 0.43918 0.87421 0.3467 0.0
C73 C 0.4005 0.91902 0.34853 0.0
O74 O 0.40161 0.88159 0.32068 0.0
Co75 Co 0.36512 0.89049 0.34969 0.0
O76 O 0.3691 0.89286 0.31891 0.0
C77 C 0.38365 0.85241 0.3669 0.0
C78 C 0.44228 0.87943 0.3661 0.0
C79 C 0.38553 0.88662 0.3102 0.0
O80 O 0.40106 0.85844 0.35967 0.0
O81 O 0.36755 0.86377 0.36624 0.0
O82 O 0.419 0.91476 0.34246 0.0
O83 O 0.39068 0.904 0.35776 0.0
Co84 Co 0.38544 0.15408 0.57797 0.0
O85 O 0.41472 0.15129 0.57649 0.0
O86 O 0.39579 0.14501 0.6046 0.0
C87 C 0.37841 0.13785 0.54774 0.0
O88 O 0.35525 0.15421 0.58547 0.0
Co89 Co 0.36055 0.17938 0.54587 0.0
O90 O 0.33691 0.16325 0.55723 0.0
C91 C 0.38383 0.20173 0.57872 0.0
C92 C 0.41383 0.14577 0.596 0.0
C93 C 0.33818 0.15566 0.57557 0.0
O94 O 0.38866 0.18409 0.58692 0.0
O95 O 0.37352 0.20327 0.56174 0.0
O96 O 0.38154 0.12695 0.56457 0.0
O97 O 0.38117 0.15784 0.54927 0.0
Co98 Co 0.09003 0.11917 0.83808 0.0
O99 O 0.06761 0.12233 0.8571 0.0
O100 O 0.06781 0.13362 0.82426 0.0
C101 C 0.09621 0.08544 0.84531 0.0
O102 O 0.10997 0.11716 0.81357 0.0
Co103 Co 0.13347 0.10886 0.85491 0.0
O104 O 0.13737 0.09969 0.82557 0.0
C105 C 0.11746 0.15161 0.8594 0.0
C106 C 0.05811 0.13149 0.8419 0.0
C107 C 0.12634 0.10638 0.81057 0.0
O108 O 0.10206 0.14682 0.8477 0.0
O109 O 0.13081 0.13825 0.8653 0.0
O110 O 0.08179 0.09035 0.8322 0.0
O111 O 0.10481 0.10086 0.85502 0.0
Co112 Co 0.17941 0.408 0.13719 0.0
O113 O 0.20049 0.3869 0.13875 0.0
O114 O 0.20466 0.41892 0.12611 0.0
C115 C 0.16659 0.40449 0.16952 0.0
O116 O 0.16226 0.43427 0.13361 0.0
Co117 Co 0.13324 0.39723 0.13979 0.0
O118 O 0.12995 0.42781 0.14382 0.0
C119 C 0.15547 0.38886 0.10076 0.0
C120 C 0.21248 0.4007 0.13008 0.0
C121 C 0.14416 0.44046 0.13849 0.0
O122 O 0.17156 0.3974 0.10866 0.0
O123 O 0.13867 0.38645 0.11081 0.0
O124 O 0.18311 0.4155 0.16643 0.0
O125 O 0.15967 0.39414 0.15359 0.0
Co126 Co 0.67761 0.1002 0.87093 0.0
O127 O 0.69389 0.12522 0.87061 0.0
O128 O 0.70554 0.09371 0.87866 0.0
C129 C 0.66213 0.10543 0.84017 0.0
O130 O 0.66542 0.07086 0.87176 0.0
Co131 Co 0.63045 0.10304 0.87314 0.0
O132 O 0.63176 0.07315 0.86472 0.0
C133 C 0.65444 0.10969 0.91138 0.0
C134 C 0.70925 0.11354 0.87581 0.0
C135 C 0.648 0.06245 0.86721 0.0
O136 O 0.67058 0.10486 0.90104 0.0
O137 O 0.63674 0.11135 0.9029 0.0
O138 O 0.68042 0.09759 0.84099 0.0
O139 O 0.65466 0.11197 0.85776 0.0
Co140 Co 0.83679 0.90538 0.38063 0.0
O141 O 0.86337 0.91833 0.38168 0.0
O142 O 0.83534 0.93337 0.36935 0.0
C143 C 0.83771 0.89249 0.41336 0.0
O144 O 0.8067 0.89727 0.37787 0.0
Co145 Co 0.83205 0.85722 0.38478 0.0
O146 O 0.80254 0.86387 0.38816 0.0
C147 C 0.84874 0.87551 0.34613 0.0
C148 C 0.85483 0.93469 0.37354 0.0
C149 C 0.79528 0.88152 0.38268 0.0
O150 O 0.84303 0.89376 0.35213 0.0
O151 O 0.84759 0.85921 0.3577 0.0
O152 O 0.83248 0.91183 0.41017 0.0
O153 O 0.84367 0.88232 0.39704 0.0
Co154 Co 0.83952 0.07851 0.11686 0.0
O155 O 0.86006 0.0575 0.1209 0.0
O156 O 0.82663 0.05221 0.12424 0.0
C157 C 0.85205 0.09171 0.08684 0.0
O158 O 0.81393 0.09647 0.11315 0.0
Co159 Co 0.85268 0.12538 0.1182 0.0
O160 O 0.8248 0.12932 0.10645 0.0
C161 C 0.8521 0.10074 0.15681 0.0
C162 C 0.84513 0.04472 0.12512 0.0
C163 C 0.81065 0.11549 0.10741 0.0
O164 O 0.84182 0.08638 0.1473 0.0
O165 O 0.8597 0.1167 0.1475 0.0
O166 O 0.84084 0.07484 0.08651 0.0
O167 O 0.85705 0.09844 0.1052 0.0
Co168 Co 0.33046 0.57056 0.61349 0.0
O169 O 0.34632 0.54554 0.61373 0.0
O170 O 0.31538 0.54866 0.62783 0.0
C171 C 0.33588 0.57861 0.57986 0.0
O172 O 0.30944 0.59403 0.61493 0.0
Co173 Co 0.35338 0.61238 0.60697 0.0
O174 O 0.32515 0.62309 0.60308 0.0
C175 C 0.35677 0.59165 0.64737 0.0
C176 C 0.33134 0.53712 0.62404 0.0
C177 C 0.30906 0.61322 0.6088 0.0
O178 O 0.34276 0.57898 0.64105 0.0
O179 O 0.36472 0.6056 0.6355 0.0
O180 O 0.3219 0.565 0.58499 0.0
O181 O 0.34766 0.58499 0.59491 0.0
Co182 Co 0.1635 0.59753 0.37834 0.0
O183 O 0.17833 0.62333 0.37557 0.0
O184 O 0.1915 0.59408 0.38812 0.0
C185 C 0.14949 0.5984 0.34616 0.0
O186 O 0.1528 0.56768 0.38223 0.0
Co187 Co 0.11591 0.59763 0.37644 0.0
O188 O 0.11984 0.56721 0.37175 0.0
C189 C 0.13713 0.61336 0.41403 0.0
C190 C 0.19419 0.61354 0.38273 0.0
C191 C 0.13627 0.55783 0.37694 0.0
O192 O 0.15417 0.60592 0.40723 0.0
O193 O 0.12057 0.61333 0.40328 0.0
O194 O 0.16801 0.59153 0.34877 0.0
O195 O 0.14091 0.60613 0.3626 0.0
Co196 Co 0.32748 0.41208 0.87019 0.0
O197 O 0.30603 0.39107 0.87143 0.0
O198 O 0.30433 0.42277 0.88534 0.0
C199 C 0.33386 0.40904 0.83563 0.0
O200 O 0.34497 0.43842 0.87155 0.0
Co201 Co 0.37226 0.40309 0.85809 0.0
O202 O 0.37491 0.43398 0.85504 0.0
C203 C 0.35731 0.3916 0.90028 0.0
C204 C 0.2953 0.40509 0.88121 0.0
C205 C 0.36175 0.44566 0.86386 0.0
O206 O 0.3403 0.40104 0.89668 0.0
O207 O 0.37127 0.38929 0.8864 0.0
O208 O 0.31859 0.42002 0.84244 0.0
O209 O 0.34392 0.39876 0.84971 0.0
Co210 Co 0.87077 0.82713 0.59582 0.0
O211 O 0.87847 0.80765 0.61761 0.0
O212 O 0.88602 0.80448 0.58401 0.0
C213 C 0.83783 0.83103 0.60512 0.0
O214 O 0.86493 0.84198 0.56853 0.0
Co215 Co 0.85664 0.87255 0.60334 0.0
O216 O 0.84869 0.87241 0.57332 0.0
C217 C 0.90014 0.86162 0.60901 0.0
C218 C 0.88683 0.79673 0.60272 0.0
C219 C 0.85528 0.85793 0.56145 0.0
O220 O 0.8967 0.8437 0.60051 0.0
O221 O 0.88589 0.87469 0.61311 0.0
O222 O 0.84359 0.8147 0.59458 0.0
O223 O 0.85232 0.84347 0.61136 0.0
Co224 Co 0.90512 0.11865 0.33559 0.0
O225 O 0.88074 0.11394 0.31937 0.0
O226 O 0.9125 0.11122 0.30732 0.0
C227 C 0.89506 0.14873 0.35064 0.0
O228 O 0.93391 0.12291 0.34762 0.0
Co229 Co 0.90283 0.11878 0.38421 0.0
O230 O 0.93082 0.13054 0.38181 0.0
C231 C 0.90143 0.07878 0.36143 0.0
C232 C 0.89288 0.11 0.30383 0.0
C233 C 0.94154 0.12891 0.36525 0.0
O234 O 0.90488 0.08827 0.34408 0.0
O235 O 0.89904 0.0881 0.37895 0.0
O236 O 0.90266 0.14887 0.33188 0.0
O237 O 0.89191 0.13045 0.35866 0.0
Co238 Co 0.6338 0.16642 0.09329 0.0
O239 O 0.63034 0.18817 0.11373 0.0
O240 O 0.61793 0.1889 0.08147 0.0
C241 C 0.66775 0.16182 0.09731 0.0
O242 O 0.63529 0.14753 0.06769 0.0
Co243 Co 0.64641 0.12204 0.1073 0.0
O244 O 0.65367 0.11946 0.07727 0.0
C245 C 0.60404 0.13565 0.114 0.0
C246 C 0.62041 0.19827 0.09936 0.0
C247 C 0.64577 0.13112 0.06328 0.0
O248 O 0.608 0.15219 0.10331 0.0
O249 O 0.61771 0.12222 0.11888 0.0
O250 O 0.66065 0.17714 0.08622 0.0
O251 O 0.65417 0.15146 0.10797 0.0
Co252 Co 0.58231 0.88191 0.84156 0.0
O253 O 0.60398 0.88079 0.82114 0.0
O254 O 0.5725 0.89222 0.81513 0.0
C255 C 0.58684 0.84969 0.85478 0.0
O256 O 0.55559 0.88448 0.85786 0.0
Co257 Co 0.59115 0.87925 0.88927 0.0
O258 O 0.56096 0.87631 0.89159 0.0
C259 C 0.60427 0.91599 0.86506 0.0
C260 C 0.5907 0.88824 0.80799 0.0
C261 C 0.54901 0.88041 0.87639 0.0
O262 O 0.59191 0.91078 0.85021 0.0
O263 O 0.60774 0.90434 0.88091 0.0
O264 O 0.57664 0.85202 0.83748 0.0
O265 O 0.59537 0.86635 0.86223 0.0
Co266 Co 0.89187 0.15569 0.91431 0.0
O267 O 0.8888 0.13274 0.93388 0.0
O268 O 0.88167 0.16601 0.94035 0.0
C269 C 0.92335 0.14845 0.9024 0.0
O270 O 0.89387 0.18382 0.89996 0.0
Co271 Co 0.89628 0.15048 0.86635 0.0
O272 O 0.90162 0.1811 0.86586 0.0
C273 C 0.85553 0.14647 0.88576 0.0
C274 C 0.88269 0.14692 0.94708 0.0
C275 C 0.89852 0.19191 0.88225 0.0
O276 O 0.86308 0.1511 0.90376 0.0
O277 O 0.86623 0.14459 0.86914 0.0
O278 O 0.92095 0.1578 0.92026 0.0
O279 O 0.90684 0.14162 0.89342 0.0
Co280 Co 0.58519 0.11772 0.65916 0.0
O281 O 0.56523 0.11896 0.63686 0.0
O282 O 0.55929 0.12623 0.67022 0.0
C283 C 0.59873 0.08639 0.65106 0.0
O284 O 0.60033 0.11747 0.6867 0.0
Co285 Co 0.63203 0.11701 0.65217 0.0
O286 O 0.63361 0.11022 0.68245 0.0
C287 C 0.60948 0.15658 0.64684 0.0
C288 C 0.55227 0.12441 0.65132 0.0
C289 C 0.61807 0.11317 0.6941 0.0
O290 O 0.59321 0.1478 0.65411 0.0
O291 O 0.62608 0.14657 0.64331 0.0
O292 O 0.58154 0.08759 0.66121 0.0
O293 O 0.60615 0.10396 0.64435 0.0
Co294 Co 0.61575 0.84901 0.42002 0.0
O295 O 0.62211 0.86983 0.44074 0.0
O296 O 0.6315 0.8365 0.44228 0.0
C297 C 0.58235 0.85652 0.41662 0.0
O298 O 0.61134 0.82308 0.402 0.0
Co299 Co 0.60243 0.8627 0.37567 0.0
O300 O 0.59441 0.83279 0.37297 0.0
C301 C 0.64554 0.86718 0.38809 0.0
C302 C 0.63137 0.855 0.45075 0.0
C303 C 0.60139 0.81874 0.38514 0.0
O304 O 0.64155 0.85648 0.40459 0.0
O305 O 0.63169 0.87299 0.37517 0.0
O306 O 0.58871 0.8449 0.4319 0.0
O307 O 0.59654 0.86512 0.40531 0.0
Co308 Co 0.91854 0.87607 0.16194 0.0
O309 O 0.93861 0.87645 0.13958 0.0
O310 O 0.94505 0.86912 0.17277 0.0
C311 C 0.90304 0.90652 0.15388 0.0
O312 O 0.90349 0.87456 0.1896 0.0
Co313 Co 0.87131 0.87519 0.1561 0.0
O314 O 0.86986 0.8809 0.18657 0.0
C315 C 0.89584 0.83691 0.14849 0.0
C316 C 0.95194 0.87166 0.15393 0.0
C317 C 0.88575 0.87772 0.19763 0.0
O318 O 0.91206 0.84568 0.15607 0.0
O319 O 0.87893 0.84663 0.14578 0.0
O320 O 0.92019 0.9066 0.16424 0.0
O321 O 0.89671 0.88845 0.14751 0.0
Co322 Co 0.82572 0.5966 0.86113 0.0
O323 O 0.81025 0.62187 0.86305 0.0
O324 O 0.80087 0.59159 0.8771 0.0
C325 C 0.83225 0.5985 0.82663 0.0
O326 O 0.83795 0.56735 0.86164 0.0
Co327 Co 0.87178 0.60002 0.84856 0.0
O328 O 0.86931 0.56913 0.84702 0.0
C329 C 0.85861 0.61344 0.89033 0.0
C330 C 0.797 0.61128 0.87386 0.0
C331 C 0.85439 0.55869 0.8547 0.0
O332 O 0.84109 0.60459 0.88739 0.0
O333 O 0.87217 0.61531 0.876 0.0
O334 O 0.81484 0.59106 0.83319 0.0
O335 O 0.84392 0.60652 0.84087 0.0
Co336 Co 0.34818 0.9048 0.12031 0.0
O337 O 0.37363 0.92002 0.11899 0.0
O338 O 0.34383 0.934 0.12742 0.0
C339 C 0.35189 0.88723 0.08987 0.0
O340 O 0.31862 0.89404 0.12209 0.0
Co341 Co 0.34854 0.85607 0.12295 0.0
O342 O 0.31932 0.85947 0.1152 0.0
C343 C 0.36172 0.8813 0.15898 0.0
C344 C 0.3634 0.93653 0.12432 0.0
C345 C 0.30963 0.87659 0.11751 0.0
O346 O 0.3538 0.89774 0.15067 0.0
O347 O 0.36299 0.86372 0.14949 0.0
O348 O 0.34528 0.90638 0.08971 0.0
O349 O 0.35786 0.88046 0.10782 0.0
Co350 Co 0.1732 0.09127 0.62997 0.0
O351 O 0.19185 0.11414 0.63454 0.0
O352 O 0.19891 0.0856 0.61613 0.0
C353 C 0.16264 0.08858 0.66322 0.0
O354 O 0.15842 0.064 0.62303 0.0
Co355 Co 0.12703 0.09699 0.63574 0.0
O356 O 0.12679 0.0659 0.63657 0.0
C357 C 0.14601 0.11276 0.59742 0.0
C358 C 0.20491 0.10358 0.62357 0.0
C359 C 0.14138 0.05546 0.62854 0.0
O360 O 0.16286 0.1047 0.60374 0.0
O361 O 0.12967 0.11266 0.60848 0.0
O362 O 0.17962 0.08002 0.65712 0.0
O363 O 0.15349 0.10036 0.64963 0.0
Co364 Co 0.16432 0.91713 0.8806 0.0
O365 O 0.14522 0.93976 0.88218 0.0
O366 O 0.17755 0.94262 0.87154 0.0
C367 C 0.15662 0.90263 0.91159 0.0
O368 O 0.18867 0.89734 0.87788 0.0
Co369 Co 0.14789 0.87139 0.87888 0.0
O370 O 0.17719 0.86432 0.88213 0.0
C371 C 0.14466 0.89778 0.84164 0.0
C372 C 0.15987 0.95136 0.87475 0.0
C373 C 0.19171 0.87753 0.87982 0.0
O374 O 0.15551 0.91188 0.85083 0.0
O375 O 0.13883 0.88083 0.85049 0.0
O376 O 0.16904 0.91862 0.91079 0.0
O377 O 0.14783 0.89758 0.89422 0.0
Co378 Co 0.66404 0.42311 0.38226 0.0
O379 O 0.64353 0.4441 0.37798 0.0
O380 O 0.67698 0.44958 0.37538 0.0
C381 C 0.65085 0.41003 0.4122 0.0
O382 O 0.68968 0.40535 0.38659 0.0
Co383 Co 0.65142 0.37613 0.38125 0.0
O384 O 0.67874 0.37281 0.39451 0.0
C385 C 0.65247 0.40028 0.34219 0.0
C386 C 0.65849 0.45708 0.37455 0.0
C387 C 0.69284 0.38666 0.39336 0.0
O388 O 0.66224 0.4151 0.35165 0.0
O389 O 0.64508 0.3843 0.35166 0.0
O390 O 0.66214 0.42682 0.41261 0.0
O391 O 0.6463 0.40314 0.39377 0.0
Co392 Co 0.83296 0.40715 0.64133 0.0
O393 O 0.81044 0.38752 0.64155 0.0
O394 O 0.80834 0.42054 0.63128 0.0
C395 C 0.84548 0.40001 0.67339 0.0
O396 O 0.8526 0.43199 0.63922 0.0
Co397 Co 0.87792 0.39085 0.64334 0.0
O398 O 0.88522 0.42096 0.64268 0.0
C399 C 0.85429 0.38671 0.60431 0.0
C400 C 0.79934 0.40255 0.63406 0.0
C401 C 0.87206 0.43539 0.64012 0.0
O402 O 0.84003 0.39821 0.61199 0.0
O403 O 0.86964 0.38038 0.61501 0.0
O404 O 0.8299 0.41244 0.67128 0.0
O405 O 0.85129 0.39065 0.65656 0.0
Co406 Co 0.67298 0.59042 0.13754 0.0
O407 O 0.69485 0.61049 0.13474 0.0
O408 O 0.69719 0.57679 0.12684 0.0
C409 C 0.66255 0.60021 0.16968 0.0
O410 O 0.65377 0.5651 0.13865 0.0
Co411 Co 0.62788 0.60593 0.14154 0.0
O412 O 0.62131 0.57578 0.14408 0.0
C413 C 0.64892 0.60791 0.10085 0.0
C414 C 0.7058 0.5952 0.12755 0.0
C415 C 0.63454 0.56143 0.14145 0.0
O416 O 0.6638 0.597 0.10815 0.0
O417 O 0.63423 0.61467 0.11221 0.0
O418 O 0.67813 0.58776 0.16765 0.0
O419 O 0.65541 0.60777 0.15251 0.0
Co420 Co 0.62977 0.67842 0.91677 0.0
O421 O 0.65818 0.6847 0.92073 0.0
O422 O 0.64645 0.65722 0.90322 0.0
C423 C 0.62062 0.71123 0.90819 0.0
O424 O 0.6011 0.66797 0.90878 0.0
Co425 Co 0.59774 0.70013 0.94561 0.0
O426 O 0.57866 0.68999 0.92377 0.0
C427 C 0.623 0.66578 0.96209 0.0
C428 C 0.66211 0.668 0.91 0.0
C429 C 0.58282 0.67526 0.91103 0.0
O430 O 0.62979 0.6618 0.94363 0.0
O431 O 0.61131 0.68125 0.96622 0.0
O432 O 0.62818 0.69891 0.89401 0.0
O433 O 0.62064 0.70396 0.92696 0.0
Co434 Co 0.59881 0.37292 0.1643 0.0
O435 O 0.62418 0.37714 0.17938 0.0
O436 O 0.59312 0.38183 0.19251 0.0
C437 C 0.60631 0.34178 0.14984 0.0
O438 O 0.56923 0.36953 0.1542 0.0
Co439 Co 0.59716 0.37053 0.11581 0.0
O440 O 0.56899 0.35979 0.12043 0.0
C441 C 0.60199 0.41153 0.13649 0.0
C442 C 0.61285 0.38226 0.19526 0.0
C443 C 0.55983 0.36285 0.13773 0.0
O444 O 0.59992 0.4029 0.15452 0.0
O445 O 0.60219 0.40134 0.11927 0.0
O446 O 0.60006 0.34284 0.16909 0.0
O447 O 0.60993 0.35951 0.14083 0.0
Co448 Co 0.86456 0.32239 0.41745 0.0
O449 O 0.83627 0.31805 0.42383 0.0
O450 O 0.84816 0.34525 0.40615 0.0
C451 C 0.87034 0.28909 0.40737 0.0
O452 O 0.89333 0.33127 0.40778 0.0
Co453 Co 0.89689 0.2973 0.44307 0.0
O454 O 0.91567 0.30826 0.42142 0.0
C455 C 0.87439 0.33196 0.46277 0.0
C456 C 0.83257 0.33564 0.41461 0.0
C457 C 0.91155 0.32359 0.40942 0.0
O458 O 0.86771 0.33785 0.44479 0.0
O459 O 0.88483 0.31528 0.46548 0.0
O460 O 0.86291 0.30242 0.39405 0.0
O461 O 0.87249 0.29594 0.42615 0.0
Co462 Co 0.91462 0.62067 0.66062 0.0
O463 O 0.8874 0.61886 0.67196 0.0
O464 O 0.91577 0.61007 0.68885 0.0
C465 C 0.91168 0.65303 0.64717 0.0
O466 O 0.94532 0.62092 0.6543 0.0
Co467 Co 0.92166 0.62459 0.61281 0.0
O468 O 0.94985 0.6324 0.62141 0.0
C469 C 0.91063 0.58359 0.6308 0.0
C470 C 0.89593 0.61185 0.68888 0.0
C471 C 0.95687 0.6274 0.63929 0.0
O472 O 0.91164 0.5914 0.64929 0.0
O473 O 0.91325 0.59433 0.61412 0.0
O474 O 0.91582 0.65054 0.66687 0.0
O475 O 0.90759 0.63613 0.63681 0.0
Co476 Co 0.61835 0.34559 0.58651 0.0
O477 O 0.58887 0.34231 0.58664 0.0
O478 O 0.60698 0.35804 0.61142 0.0
C479 C 0.62108 0.35548 0.55273 0.0
O480 O 0.64828 0.35342 0.59187 0.0
Co481 Co 0.64717 0.31932 0.55857 0.0
O482 O 0.66949 0.33755 0.56926 0.0
C483 C 0.62713 0.29975 0.59497 0.0
C484 C 0.58918 0.35196 0.60453 0.0
C485 C 0.66623 0.3503 0.58417 0.0
O486 O 0.62109 0.31781 0.60139 0.0
O487 O 0.63633 0.29699 0.57754 0.0
O488 O 0.61637 0.36918 0.56699 0.0
O489 O 0.62265 0.33642 0.55907 0.0
Co490 Co 0.92002 0.38406 0.85695 0.0
O491 O 0.93558 0.38292 0.88241 0.0
O492 O 0.94795 0.37593 0.85092 0.0
C493 C 0.90456 0.41477 0.86269 0.0
O494 O 0.90855 0.38419 0.82722 0.0
Co495 Co 0.87253 0.3823 0.85862 0.0
O496 O 0.87497 0.3917 0.82923 0.0
C497 C 0.8959 0.34394 0.86558 0.0
C498 C 0.95093 0.37695 0.87102 0.0
C499 C 0.89136 0.38924 0.81871 0.0
O500 O 0.91235 0.35394 0.86094 0.0
O501 O 0.87822 0.35243 0.86657 0.0
O502 O 0.92317 0.41421 0.85547 0.0
O503 O 0.89688 0.39698 0.86847 0.0
Co504 Co 0.88249 0.65422 0.07276 0.0
O505 O 0.91201 0.65691 0.07361 0.0
O506 O 0.89309 0.63886 0.09611 0.0
C507 C 0.88016 0.6483 0.03817 0.0
O508 O 0.85255 0.64632 0.07707 0.0
Co509 Co 0.85383 0.68334 0.04807 0.0
O510 O 0.83116 0.66443 0.05655 0.0
C511 C 0.87458 0.69883 0.08609 0.0
C512 C 0.91109 0.64538 0.09033 0.0
C513 C 0.83454 0.65018 0.06997 0.0
O514 O 0.88017 0.68012 0.09066 0.0
O515 O 0.86532 0.70348 0.06909 0.0
O516 O 0.88432 0.63296 0.05081 0.0
O517 O 0.87861 0.66658 0.04654 0.0
Co518 Co 0.58193 0.62518 0.34736 0.0
O519 O 0.56079 0.62633 0.36858 0.0
O520 O 0.55596 0.63063 0.33457 0.0
C521 C 0.59794 0.59605 0.35804 0.0
O522 O 0.59856 0.62445 0.32068 0.0
Co523 Co 0.62817 0.63015 0.3567 0.0
O524 O 0.63219 0.62127 0.32713 0.0
C525 C 0.60164 0.6672 0.3581 0.0
C526 C 0.5482 0.63001 0.35322 0.0
C527 C 0.61707 0.62165 0.31452 0.0
O528 O 0.58697 0.65603 0.35055 0.0
O529 O 0.61901 0.65953 0.36331 0.0
O530 O 0.58102 0.5948 0.34734 0.0
O531 O 0.60336 0.61467 0.36394 0.0
Co532 Co 0.66947 0.90083 0.63855 0.0
O533 O 0.68346 0.8746 0.63837 0.0
O534 O 0.69825 0.90524 0.6321 0.0
C535 C 0.65199 0.89577 0.66841 0.0
O536 O 0.65935 0.93104 0.63808 0.0
Co537 Co 0.62199 0.8999 0.63406 0.0
O538 O 0.625 0.92987 0.64174 0.0
C539 C 0.64764 0.89052 0.59772 0.0
C540 C 0.69989 0.88498 0.63352 0.0
C541 C 0.6419 0.94 0.64094 0.0
O542 O 0.66329 0.89732 0.60791 0.0
O543 O 0.6299 0.88827 0.60598 0.0
O544 O 0.67093 0.90213 0.669 0.0
O545 O 0.64524 0.89041 0.65018 0.0
Co546 Co 0.37839 0.32974 0.08683 0.0
O547 O 0.37906 0.30931 0.10938 0.0
O548 O 0.38703 0.30314 0.07633 0.0
C549 C 0.34765 0.3439 0.09448 0.0
O550 O 0.37895 0.34474 0.05878 0.0
Co551 Co 0.37693 0.37785 0.09184 0.0
O552 O 0.37117 0.37875 0.0613 0.0
C553 C 0.41386 0.35426 0.10406 0.0
C554 C 0.3849 0.29601 0.09516 0.0
C555 C 0.37469 0.36248 0.05042 0.0
O556 O 0.40758 0.33827 0.09351 0.0
O557 O 0.40294 0.37059 0.10694 0.0
O558 O 0.34854 0.32626 0.08436 0.0
O559 O 0.36495 0.35145 0.10079 0.0
Co560 Co 0.41505 0.62506 0.82104 0.0
O561 O 0.39249 0.61987 0.80243 0.0
O562 O 0.42445 0.60947 0.79695 0.0
C563 C 0.40877 0.65929 0.82639 0.0
O564 O 0.44231 0.6283 0.83648 0.0
Co565 Co 0.40641 0.63844 0.86698 0.0
O566 O 0.43602 0.64541 0.86655 0.0
C567 C 0.3989 0.59481 0.85394 0.0
C568 C 0.40557 0.61042 0.79052 0.0
C569 C 0.44839 0.63808 0.85301 0.0
O570 O 0.40824 0.59832 0.83654 0.0
O571 O 0.39515 0.60921 0.8673 0.0
O572 O 0.41855 0.65328 0.80979 0.0
O573 O 0.40139 0.64445 0.83785 0.0
Co574 Co 0.13407 0.67272 0.60355 0.0
O575 O 0.13122 0.68867 0.62892 0.0
O576 O 0.11812 0.69742 0.59814 0.0
C577 C 0.16792 0.66688 0.6059 0.0
O578 O 0.13414 0.66096 0.57406 0.0
Co579 Co 0.1463 0.62622 0.60436 0.0
O580 O 0.14898 0.62936 0.57352 0.0
C581 C 0.10496 0.63821 0.61771 0.0
C582 C 0.12064 0.70177 0.61782 0.0
C583 C 0.14125 0.64505 0.56416 0.0
O584 O 0.10853 0.65666 0.61064 0.0
O585 O 0.11867 0.62396 0.61845 0.0
O586 O 0.16103 0.68449 0.59872 0.0
O587 O 0.15426 0.65419 0.61347 0.0
Co588 Co 0.08301 0.37894 0.33356 0.0
O589 O 0.10602 0.38043 0.31498 0.0
O590 O 0.07588 0.39516 0.30901 0.0
C591 C 0.08541 0.34441 0.33978 0.0
O592 O 0.05537 0.37913 0.34867 0.0
Co593 Co 0.08993 0.3666 0.37988 0.0
O594 O 0.06002 0.36092 0.37835 0.0
C595 C 0.10238 0.4084 0.36563 0.0
C596 C 0.09438 0.39117 0.30263 0.0
C597 C 0.04835 0.36911 0.36464 0.0
O598 O 0.09268 0.40515 0.34838 0.0
O599 O 0.10461 0.39431 0.37964 0.0
O600 O 0.07637 0.35109 0.32298 0.0
O601 O 0.09433 0.3586 0.35102 0.0
Co602 Co 0.3759 0.65897 0.41463 0.0
O603 O 0.37291 0.63146 0.42636 0.0
O604 O 0.36664 0.6611 0.44321 0.0
C605 C 0.40682 0.65354 0.39999 0.0
O606 O 0.37759 0.6902 0.40803 0.0
Co607 Co 0.37891 0.66608 0.36681 0.0
O608 O 0.38781 0.69468 0.3748 0.0
C609 C 0.33864 0.65694 0.38603 0.0
C610 C 0.36707 0.64077 0.44337 0.0
C611 C 0.3837 0.70191 0.39287 0.0
O612 O 0.34672 0.6575 0.40435 0.0
O613 O 0.34891 0.65911 0.36911 0.0
O614 O 0.40543 0.65841 0.41966 0.0
O615 O 0.38964 0.65057 0.39034 0.0
Co616 Co 0.07865 0.61441 0.16261 0.0
O617 O 0.06 0.61781 0.13939 0.0
O618 O 0.05215 0.62241 0.17279 0.0
C619 C 0.0921 0.58372 0.15231 0.0
O620 O 0.09253 0.61159 0.19087 0.0
Co621 Co 0.12585 0.61295 0.1579 0.0
O622 O 0.12587 0.60396 0.1876 0.0
C623 C 0.104 0.65312 0.15325 0.0
C624 C 0.04626 0.62226 0.15339 0.0
C625 C 0.10988 0.60631 0.19873 0.0
O626 O 0.08739 0.64464 0.16013 0.0
O627 O 0.12035 0.64271 0.14967 0.0
O628 O 0.07456 0.58416 0.16191 0.0
O629 O 0.1 0.60172 0.14775 0.0
Co630 Co 0.1237 0.33797 0.92314 0.0
O631 O 0.12471 0.36009 0.94369 0.0
O632 O 0.13965 0.32912 0.94677 0.0
C633 C 0.08984 0.34018 0.91671 0.0
O634 O 0.12538 0.31092 0.9068 0.0
Co635 Co 0.112 0.34455 0.87707 0.0
O636 O 0.11073 0.31343 0.87523 0.0
C637 C 0.15196 0.35954 0.89251 0.0
C638 C 0.13572 0.34733 0.95477 0.0
C639 C 0.11899 0.30267 0.88968 0.0
O640 O 0.14918 0.34911 0.90939 0.0
O641 O 0.13817 0.36157 0.87841 0.0
O642 O 0.09659 0.32997 0.93285 0.0
O643 O 0.10356 0.34996 0.90578 0.0
Co644 Co 0.41626 0.37875 0.66341 0.0
O645 O 0.43874 0.37862 0.64406 0.0
O646 O 0.4411 0.36952 0.67734 0.0
C647 C 0.40384 0.41036 0.65524 0.0
O648 O 0.39616 0.3783 0.68808 0.0
Co649 Co 0.37187 0.37954 0.64564 0.0
O650 O 0.36583 0.38834 0.67468 0.0
C651 C 0.39607 0.34118 0.64221 0.0
C652 C 0.45007 0.37209 0.65934 0.0
C653 C 0.3777 0.38519 0.69021 0.0
O654 O 0.40937 0.34897 0.65497 0.0
O655 O 0.38087 0.35158 0.63516 0.0
O656 O 0.41924 0.4088 0.66803 0.0
O657 O 0.39836 0.39329 0.64596 0.0
Co658 Co 0.32491 0.09646 0.36305 0.0
O659 O 0.30983 0.12114 0.36972 0.0
O660 O 0.29715 0.08893 0.37128 0.0
C661 C 0.3391 0.10843 0.33317 0.0
O662 O 0.33632 0.06745 0.35663 0.0
Co663 Co 0.3727 0.09924 0.36159 0.0
O664 O 0.3692 0.07221 0.34674 0.0
C665 C 0.35125 0.1005 0.40204 0.0
C666 C 0.29449 0.10893 0.37402 0.0
C667 C 0.35314 0.06089 0.34842 0.0
O668 O 0.33443 0.09481 0.3931 0.0
O669 O 0.36766 0.10485 0.39194 0.0
O670 O 0.32054 0.1009 0.33296 0.0
O671 O 0.34719 0.11047 0.35144 0.0
H672 H 0.09658 0.32714 0.3772 0.0
H673 H 0.07562 0.31128 0.31474 0.0
H674 H 0.07897 0.27372 0.32301 0.0
H675 H 0.13392 0.28854 0.38172 0.0
H676 H 0.12922 0.28287 0.40889 0.0
H677 H 0.1236 0.30841 0.39867 0.0
H678 H 0.08611 0.30503 0.41162 0.0
H679 H 0.09163 0.27945 0.42198 0.0
H680 H 0.07086 0.28278 0.4037 0.0
H681 H 0.08836 0.23839 0.33661 0.0
H682 H 0.10097 0.20733 0.35554 0.0
H683 H 0.11383 0.24585 0.40988 0.0
C684 C 0.09245 0.31574 0.36537 0.0
C685 C 0.08591 0.32205 0.34532 0.0
C686 C 0.08061 0.30674 0.33023 0.0
C687 C 0.08246 0.28539 0.33477 0.0
C688 C 0.08927 0.27967 0.35459 0.0
C689 C 0.0939 0.29437 0.36975 0.0
C690 C 0.10147 0.28408 0.3896 0.0
C691 C 0.12335 0.29141 0.39502 0.0
C692 C 0.08663 0.28807 0.4078 0.0
C693 C 0.10105 0.26134 0.38298 0.0
C694 C 0.09392 0.25914 0.36273 0.0
C695 C 0.09361 0.23984 0.3526 0.0
C696 C 0.10088 0.22234 0.36341 0.0
C697 C 0.10816 0.22426 0.38416 0.0
C698 C 0.10796 0.24394 0.39415 0.0
H699 H 0.02186 0.84884 0.61189 0.0
H700 H 0.02365 0.90134 0.65499 0.0
H701 H 0.98612 0.90488 0.65196 0.0
H702 H 0.9816 0.86821 0.57828 0.0
H703 H 0.96993 0.84283 0.5747 0.0
H704 H 0.99706 0.84495 0.57955 0.0
H705 H 0.99343 0.82009 0.61132 0.0
H706 H 0.96629 0.81789 0.60657 0.0
H707 H 0.9755 0.82637 0.63178 0.0
H708 H 0.94851 0.90277 0.64427 0.0
H709 H 0.91308 0.89401 0.63393 0.0
H710 H 0.93561 0.84201 0.59687 0.0
C711 C 0.01438 0.8612 0.62054 0.0
C712 C 0.02569 0.87491 0.63358 0.0
C713 C 0.01529 0.89066 0.64492 0.0
C714 C 0.99399 0.89284 0.64326 0.0
C715 C 0.9833 0.87903 0.63033 0.0
C716 C 0.9931 0.86343 0.61928 0.0
C717 C 0.9779 0.85012 0.60716 0.0
C718 C 0.98186 0.85163 0.58352 0.0
C719 C 0.97831 0.82727 0.61467 0.0
C720 C 0.95804 0.86071 0.61313 0.0
C721 C 0.96152 0.87745 0.62636 0.0
C722 C 0.94558 0.88969 0.63393 0.0
C723 C 0.9255 0.8846 0.62792 0.0
C724 C 0.9215 0.86729 0.6146 0.0
C725 C 0.93809 0.85528 0.60711 0.0
H726 H 0.38201 0.75473 0.90145 0.0
H727 H 0.39143 0.7959 0.84845 0.0
H728 H 0.40268 0.76573 0.82716 0.0
H729 H 0.4245 0.71867 0.89092 0.0
H730 H 0.40987 0.69607 0.89895 0.0
H731 H 0.40487 0.72123 0.91056 0.0
H732 H 0.36666 0.71802 0.89983 0.0
H733 H 0.37155 0.69294 0.8881 0.0
H734 H 0.36017 0.7135 0.8728 0.0
H735 H 0.4115 0.73073 0.81132 0.0
H736 H 0.41553 0.69348 0.80166 0.0
H737 H 0.39822 0.67526 0.86454 0.0
C738 C 0.38684 0.75745 0.88549 0.0
C739 C 0.38607 0.77762 0.8766 0.0
C740 C 0.39202 0.78054 0.85554 0.0
C741 C 0.39848 0.76352 0.84337 0.0
C742 C 0.39872 0.74373 0.85249 0.0
C743 C 0.39299 0.74061 0.87306 0.0
C744 C 0.39309 0.71762 0.87868 0.0
C745 C 0.40904 0.71314 0.89579 0.0
C746 C 0.37159 0.71008 0.88523 0.0
C747 C 0.39941 0.70824 0.85797 0.0
C748 C 0.40293 0.72355 0.84316 0.0
C749 C 0.40883 0.71861 0.82281 0.0
C750 C 0.41107 0.69744 0.81747 0.0
C751 C 0.40709 0.68153 0.83232 0.0
C752 C 0.40128 0.68708 0.85283 0.0
H753 H 0.48209 0.14556 0.10694 0.0
H754 H 0.47864 0.10677 0.1625 0.0
H755 H 0.51635 0.10487 0.16354 0.0
H756 H 0.52483 0.12021 0.08308 0.0
H757 H 0.53631 0.14405 0.07349 0.0
H758 H 0.50898 0.14242 0.07704 0.0
H759 H 0.51019 0.17505 0.1011 0.0
H760 H 0.53753 0.17681 0.09757 0.0
H761 H 0.52693 0.17519 0.12353 0.0
H762 H 0.55441 0.10564 0.15756 0.0
H763 H 0.59031 0.11146 0.14653 0.0
H764 H 0.56915 0.15134 0.09614 0.0
C765 C 0.48928 0.13669 0.11933 0.0
C766 C 0.47739 0.12626 0.1346 0.0
C767 C 0.4874 0.11497 0.15067 0.0
C768 C 0.50883 0.11372 0.15136 0.0
C769 C 0.5201 0.12408 0.13604 0.0
C770 C 0.51071 0.13556 0.12047 0.0
C771 C 0.52644 0.14558 0.10616 0.0
C772 C 0.52399 0.13758 0.08361 0.0
C773 C 0.5252 0.16958 0.10716 0.0
C774 C 0.54608 0.13771 0.11598 0.0
C775 C 0.54209 0.1252 0.1331 0.0
C776 C 0.55776 0.11557 0.14429 0.0
C777 C 0.57808 0.1189 0.13787 0.0
C778 C 0.58256 0.13196 0.12059 0.0
C779 C 0.56627 0.14147 0.10958 0.0
H780 H 0.13241 0.67459 0.1304 0.0
H781 H 0.07617 0.68306 0.16552 0.0
H782 H 0.07679 0.72083 0.15685 0.0
H783 H 0.15644 0.72441 0.1434 0.0
H784 H 0.16714 0.72747 0.11762 0.0
H785 H 0.16303 0.70167 0.12818 0.0
H786 H 0.14101 0.69177 0.09584 0.0
H787 H 0.14509 0.71748 0.08517 0.0
H788 H 0.11937 0.70778 0.08897 0.0
H789 H 0.08338 0.75789 0.14302 0.0
H790 H 0.09376 0.78958 0.12322 0.0
H791 H 0.14476 0.7554 0.09668 0.0
C792 C 0.12033 0.68436 0.13657 0.0
C793 C 0.10433 0.67586 0.1488 0.0
C794 C 0.08864 0.68923 0.15617 0.0
C795 C 0.08891 0.71071 0.15141 0.0
C796 C 0.10493 0.71852 0.13921 0.0
C797 C 0.12027 0.70565 0.13182 0.0
C798 C 0.13502 0.71735 0.11786 0.0
C799 C 0.15669 0.71775 0.12734 0.0
C800 C 0.13511 0.70804 0.09565 0.0
C801 C 0.12548 0.7388 0.11822 0.0
C802 C 0.10832 0.73937 0.13084 0.0
C803 C 0.09684 0.7576 0.13316 0.0
C804 C 0.10287 0.77553 0.12194 0.0
C805 C 0.11999 0.77489 0.10836 0.0
C806 C 0.13153 0.75635 0.10684 0.0
H807 H 0.48121 0.8806 0.35005 0.0
H808 H 0.44668 0.86797 0.40657 0.0
H809 H 0.47886 0.86023 0.42536 0.0
H810 H 0.52079 0.84193 0.35695 0.0
H811 H 0.54111 0.85864 0.34754 0.0
H812 H 0.51532 0.86214 0.33815 0.0
H813 H 0.51651 0.901 0.34973 0.0
H814 H 0.54229 0.8976 0.35919 0.0
H815 H 0.52273 0.90734 0.37646 0.0
H816 H 0.51424 0.85308 0.43768 0.0
H817 H 0.55132 0.84937 0.44386 0.0
H818 H 0.56362 0.86937 0.38026 0.0
C819 C 0.48051 0.87602 0.36633 0.0
C820 C 0.46158 0.87465 0.37692 0.0
C821 C 0.46112 0.86907 0.39828 0.0
C822 C 0.47927 0.8646 0.40903 0.0
C823 C 0.49773 0.86623 0.39824 0.0
C824 C 0.49857 0.87204 0.37746 0.0
C825 C 0.52058 0.87369 0.36997 0.0
C826 C 0.52468 0.85817 0.35209 0.0
C827 C 0.52583 0.89625 0.36345 0.0
C828 C 0.53191 0.86756 0.3897 0.0
C829 C 0.51837 0.86317 0.40573 0.0
C830 C 0.52502 0.85663 0.42532 0.0
C831 C 0.5461 0.85454 0.42865 0.0
C832 C 0.56029 0.85923 0.41258 0.0
C833 C 0.55309 0.86591 0.39288 0.0
H834 H 0.36889 0.24131 0.57287 0.0
H835 H 0.41223 0.20598 0.61015 0.0
H836 H 0.42111 0.23804 0.62984 0.0
H837 H 0.39833 0.28964 0.57027 0.0
H838 H 0.37593 0.30586 0.57239 0.0
H839 H 0.374 0.28037 0.5605 0.0
H840 H 0.34531 0.27022 0.58667 0.0
H841 H 0.34722 0.29563 0.5987 0.0
H842 H 0.35012 0.2724 0.61435 0.0
H843 H 0.42465 0.27415 0.64604 0.0
H844 H 0.42177 0.3109 0.65785 0.0
H845 H 0.37537 0.32171 0.61041 0.0
C846 C 0.38044 0.24032 0.58499 0.0
C847 C 0.38992 0.22112 0.58987 0.0
C848 C 0.40474 0.2205 0.6061 0.0
C849 C 0.40993 0.23864 0.61735 0.0
C850 C 0.40011 0.25725 0.61226 0.0
C851 C 0.38566 0.25818 0.59648 0.0
C852 C 0.37668 0.27985 0.59463 0.0
C853 C 0.38153 0.2895 0.57318 0.0
C854 C 0.35346 0.27949 0.59885 0.0
C855 C 0.38821 0.29095 0.61194 0.0
C856 C 0.40179 0.27776 0.62185 0.0
C857 C 0.41406 0.28462 0.63838 0.0
C858 C 0.41232 0.30552 0.64498 0.0
C859 C 0.39827 0.3192 0.63518 0.0
C860 C 0.38617 0.31169 0.61839 0.0
H861 H 0.02439 0.10748 0.84743 0.0
H862 H 0.04546 0.17178 0.84504 0.0
H863 H 0.01161 0.18365 0.85794 0.0
H864 H 0.96983 0.11864 0.83164 0.0
H865 H 0.96008 0.09856 0.84877 0.0
H866 H 0.9849 0.09567 0.8368 0.0
H867 H 0.00109 0.09055 0.87341 0.0
H868 H 0.97646 0.09379 0.88553 0.0
H869 H 0.99762 0.11039 0.89313 0.0
H870 H 0.97823 0.18752 0.87701 0.0
H871 H 0.94551 0.18384 0.89622 0.0
H872 H 0.94475 0.11732 0.88323 0.0
C873 C 0.0215 0.12409 0.84891 0.0
C874 C 0.03715 0.13885 0.845 0.0
C875 C 0.03333 0.16041 0.84758 0.0
C876 C 0.01425 0.16721 0.85498 0.0
C877 C 0.99921 0.15221 0.85929 0.0
C878 C 0.00244 0.13112 0.85583 0.0
C879 C 0.98417 0.1181 0.86266 0.0
C880 C 0.97415 0.1071 0.84384 0.0
C881 C 0.99021 0.10229 0.87969 0.0
C882 C 0.97048 0.13505 0.87133 0.0
C883 C 0.97949 0.1546 0.86932 0.0
C884 C 0.97078 0.17239 0.87815 0.0
C885 C 0.95234 0.17015 0.88915 0.0
C886 C 0.94271 0.15036 0.8909 0.0
C887 C 0.95173 0.13265 0.88169 0.0
H888 H 0.3649 0.11011 0.21042 0.0
H889 H 0.42835 0.11953 0.22893 0.0
H890 H 0.41815 0.11936 0.26588 0.0
H891 H 0.34189 0.14159 0.25046 0.0
H892 H 0.32056 0.12415 0.25498 0.0
H893 H 0.33251 0.12511 0.22962 0.0
H894 H 0.33896 0.08517 0.23113 0.0
H895 H 0.32688 0.08408 0.25641 0.0
H896 H 0.35254 0.07433 0.25311 0.0
H897 H 0.40154 0.1202 0.30026 0.0
H898 H 0.37965 0.11794 0.33132 0.0
H899 H 0.32674 0.10535 0.29189 0.0
C900 C 0.37658 0.11206 0.2223 0.0
C901 C 0.39741 0.11489 0.21682 0.0
C902 C 0.41233 0.11725 0.23275 0.0
C903 C 0.40669 0.11728 0.2538 0.0
C904 C 0.38609 0.11465 0.25872 0.0
C905 C 0.37126 0.11173 0.24355 0.0
C906 C 0.35031 0.10856 0.25342 0.0
C907 C 0.33544 0.12589 0.24672 0.0
C908 C 0.34167 0.08673 0.24821 0.0
C909 C 0.35577 0.1104 0.27643 0.0
C910 C 0.37649 0.11413 0.27897 0.0
C911 C 0.38532 0.11703 0.29854 0.0
C912 C 0.3727 0.11572 0.31611 0.0
C913 C 0.35151 0.11121 0.31408 0.0
C914 C 0.34291 0.10868 0.29392 0.0
H915 H 0.10189 0.17395 0.49761 0.0
H916 H 0.155 0.15116 0.46384 0.0
H917 H 0.1674 0.13399 0.49585 0.0
H918 H 0.12719 0.1837 0.54699 0.0
H919 H 0.10598 0.17457 0.5626 0.0
H920 H 0.10136 0.18574 0.5372 0.0
H921 H 0.08182 0.15216 0.52597 0.0
H922 H 0.08633 0.1409 0.55135 0.0
H923 H 0.09427 0.12715 0.52815 0.0
H924 H 0.17451 0.11997 0.53107 0.0
H925 H 0.17493 0.10737 0.56725 0.0
H926 H 0.11639 0.13747 0.57864 0.0
C927 C 0.11617 0.16542 0.49702 0.0
C928 C 0.12753 0.16395 0.47825 0.0
C929 C 0.14601 0.15243 0.478 0.0
C930 C 0.15323 0.1427 0.49612 0.0
C931 C 0.1417 0.14443 0.51433 0.0
C932 C 0.12348 0.15529 0.51494 0.0
C933 C 0.11376 0.15397 0.53646 0.0
C934 C 0.11198 0.17579 0.5464 0.0
C935 C 0.0928 0.14288 0.53541 0.0
C936 C 0.12945 0.14072 0.54781 0.0
C937 C 0.1455 0.13562 0.53472 0.0
C938 C 0.16201 0.12378 0.54148 0.0
C939 C 0.16209 0.11674 0.56215 0.0
C940 C 0.14566 0.12136 0.57589 0.0
C941 C 0.12914 0.13359 0.56855 0.0
H942 H 0.14338 0.86958 0.80967 0.0
H943 H 0.13152 0.93451 0.82488 0.0
H944 H 0.11849 0.94035 0.78898 0.0
H945 H 0.16132 0.88008 0.75649 0.0
H946 H 0.15035 0.85623 0.74625 0.0
H947 H 0.15878 0.85741 0.77305 0.0
H948 H 0.12268 0.8456 0.78533 0.0
H949 H 0.11412 0.84446 0.7586 0.0
H950 H 0.10054 0.86031 0.77727 0.0
H951 H 0.10332 0.93775 0.75249 0.0
H952 H 0.09154 0.92815 0.71681 0.0
H953 H 0.11712 0.86623 0.72461 0.0
C954 C 0.13812 0.88503 0.80536 0.0
C955 C 0.13821 0.90157 0.81994 0.0
C956 C 0.13152 0.92168 0.8138 0.0
C957 C 0.12407 0.92511 0.79352 0.0
C958 C 0.12394 0.90838 0.77951 0.0
C959 C 0.13122 0.88887 0.78505 0.0
C960 C 0.12991 0.87364 0.76698 0.0
C961 C 0.15137 0.86642 0.7603 0.0
C962 C 0.11598 0.8549 0.77238 0.0
C963 C 0.12027 0.88746 0.75057 0.0
C964 C 0.11671 0.90738 0.75812 0.0
C965 C 0.10644 0.92235 0.74626 0.0
C966 C 0.09975 0.91678 0.72611 0.0
C967 C 0.10381 0.89664 0.71803 0.0
C968 C 0.11431 0.88191 0.73034 0.0
H969 H 0.35693 0.8561 0.96886 0.0
H970 H 0.36354 0.79194 0.98997 0.0
H971 H 0.3568 0.80307 0.0261 0.0
H972 H 0.38287 0.87913 0.01024 0.0
H973 H 0.36676 0.90181 0.01273 0.0
H974 H 0.36897 0.88877 0.9879 0.0
H975 H 0.32956 0.88392 0.98632 0.0
H976 H 0.3272 0.89716 0.01109 0.0
H977 H 0.31645 0.87133 0.00772 0.0
H978 H 0.35427 0.821 0.05985 0.0
H979 H 0.35422 0.84482 0.08991 0.0
H980 H 0.34828 0.89797 0.04819 0.0
C981 C 0.35634 0.84434 0.98102 0.0
C982 C 0.3607 0.82313 0.97659 0.0
C983 C 0.36029 0.80827 0.99299 0.0
C984 C 0.35639 0.81442 0.01357 0.0
C985 C 0.35284 0.83549 0.01755 0.0
C986 C 0.35255 0.85026 0.0018 0.0
C987 C 0.34992 0.87211 0.01077 0.0
C988 C 0.36822 0.88628 0.00507 0.0
C989 C 0.32957 0.88169 0.00354 0.0
C990 C 0.34954 0.86729 0.034 0.0
C991 C 0.35107 0.84601 0.03743 0.0
C992 C 0.35263 0.83766 0.05742 0.0
C993 C 0.35267 0.85138 0.07443 0.0
C994 C 0.35101 0.87326 0.07145 0.0
C995 C 0.34921 0.88129 0.05094 0.0
H996 H 0.35936 0.90438 0.28159 0.0
H997 H 0.4131 0.86488 0.28663 0.0
H998 H 0.41392 0.86128 0.24829 0.0
H999 H 0.33519 0.87685 0.24015 0.0
H1000 H 0.32577 0.8999 0.22718 0.0
H1001 H 0.32985 0.90018 0.255 0.0
H1002 H 0.35371 0.93249 0.2512 0.0
H1003 H 0.34974 0.93228 0.22332 0.0
H1004 H 0.37537 0.93127 0.23378 0.0
H1005 H 0.40758 0.85969 0.21009 0.0
H1006 H 0.39505 0.86108 0.17376 0.0
H1007 H 0.3464 0.90301 0.1927 0.0
C1008 C 0.37133 0.89501 0.27462 0.0
C1009 C 0.38613 0.88483 0.28714 0.0
C1010 C 0.40163 0.87286 0.2774 0.0
C1011 C 0.40224 0.87073 0.25562 0.0
C1012 C 0.38741 0.88088 0.24378 0.0
C1013 C 0.37233 0.89292 0.25286 0.0
C1014 C 0.35805 0.90188 0.23647 0.0
C1015 C 0.33591 0.89424 0.23991 0.0
C1016 C 0.3593 0.92591 0.23618 0.0
C1017 C 0.36719 0.89257 0.2168 0.0
C1018 C 0.38414 0.88053 0.22145 0.0
C1019 C 0.39451 0.86928 0.20619 0.0
C1020 C 0.38724 0.87012 0.18564 0.0
C1021 C 0.36989 0.88227 0.18046 0.0
C1022 C 0.35993 0.89392 0.1962 0.0
H1023 H 0.3932 0.14638 0.50933 0.0
H1024 H 0.34863 0.10808 0.54199 0.0
H1025 H 0.33627 0.09386 0.50802 0.0
H1026 H 0.36365 0.1593 0.46511 0.0
H1027 H 0.38458 0.15711 0.44688 0.0
H1028 H 0.3896 0.16399 0.47369 0.0
H1029 H 0.4146 0.13276 0.477 0.0
H1030 H 0.40973 0.12583 0.45015 0.0
H1031 H 0.40578 0.10677 0.47051 0.0
H1032 H 0.32758 0.08594 0.4697 0.0
H1033 H 0.32571 0.08219 0.43115 0.0
H1034 H 0.37807 0.12389 0.4249 0.0
C1035 C 0.38089 0.13493 0.50927 0.0
C1036 C 0.37172 0.1283 0.52802 0.0
C1037 C 0.35584 0.11317 0.5276 0.0
C1038 C 0.34871 0.10512 0.50844 0.0
C1039 C 0.35804 0.11209 0.49007 0.0
C1040 C 0.37405 0.12637 0.49044 0.0
C1041 C 0.38202 0.13089 0.46876 0.0
C1042 C 0.37982 0.1542 0.4633 0.0
C1043 C 0.40435 0.12362 0.46648 0.0
C1044 C 0.36763 0.11742 0.45599 0.0
C1045 C 0.3538 0.10675 0.46844 0.0
C1046 C 0.33852 0.09401 0.45984 0.0
C1047 C 0.33752 0.09204 0.43796 0.0
C1048 C 0.35188 0.10256 0.42505 0.0
C1049 C 0.36706 0.11537 0.43432 0.0
H1050 H 0.11611 0.12513 0.77293 0.0
H1051 H 0.14938 0.07292 0.79977 0.0
H1052 H 0.15897 0.06115 0.76462 0.0
H1053 H 0.09778 0.0976 0.72587 0.0
H1054 H 0.10144 0.11992 0.70905 0.0
H1055 H 0.09552 0.1237 0.73631 0.0
H1056 H 0.12809 0.14664 0.74072 0.0
H1057 H 0.13402 0.14305 0.71349 0.0
H1058 H 0.15263 0.13627 0.73315 0.0
H1059 H 0.16648 0.05561 0.72757 0.0
H1060 H 0.17372 0.05797 0.68995 0.0
H1061 H 0.13644 0.11386 0.68578 0.0
C1062 C 0.12528 0.11116 0.77134 0.0
C1063 C 0.13204 0.1 0.78913 0.0
C1064 C 0.14418 0.08188 0.78643 0.0
C1065 C 0.14957 0.07492 0.7665 0.0
C1066 C 0.1428 0.08625 0.74933 0.0
C1067 C 0.13106 0.10406 0.75143 0.0
C1068 C 0.12709 0.11399 0.73025 0.0
C1069 C 0.10408 0.11378 0.72507 0.0
C1070 C 0.13599 0.13631 0.72936 0.0
C1071 C 0.1388 0.09918 0.7161 0.0
C1072 C 0.14744 0.08315 0.72753 0.0
C1073 C 0.15971 0.06798 0.71837 0.0
C1074 C 0.16376 0.06949 0.697 0.0
C1075 C 0.15563 0.08607 0.68499 0.0
C1076 C 0.14261 0.10087 0.69456 0.0
H1077 H 0.1376 0.88537 0.03383 0.0
H1078 H 0.12253 0.82092 0.01839 0.0
H1079 H 0.13037 0.82779 0.98142 0.0
H1080 H 0.11704 0.90877 0.98761 0.0
H1081 H 0.13728 0.92788 0.98489 0.0
H1082 H 0.13068 0.91801 0.01037 0.0
H1083 H 0.16834 0.90673 0.01616 0.0
H1084 H 0.17504 0.91653 0.99066 0.0
H1085 H 0.18043 0.88974 0.9974 0.0
H1086 H 0.13755 0.84171 0.94622 0.0
H1087 H 0.14565 0.86174 0.91439 0.0
H1088 H 0.15854 0.91676 0.95208 0.0
C1089 C 0.13596 0.87277 0.02262 0.0
C1090 C 0.12937 0.85265 0.0289 0.0
C1091 C 0.12758 0.83645 0.01389 0.0
C1092 C 0.13199 0.84018 0.99285 0.0
C1093 C 0.13845 0.86012 0.98712 0.0
C1094 C 0.14065 0.87613 0.0015 0.0
C1095 C 0.14803 0.89606 0.99099 0.0
C1096 C 0.13232 0.91372 0.99362 0.0
C1097 C 0.16922 0.90265 0.9993 0.0
C1098 C 0.14924 0.88877 0.96846 0.0
C1099 C 0.14355 0.86799 0.96665 0.0
C1100 C 0.1423 0.85792 0.9474 0.0
C1101 C 0.14688 0.86943 0.92942 0.0
C1102 C 0.1529 0.89068 0.93085 0.0
C1103 C 0.15432 0.90041 0.95064 0.0
H1104 H 0.30847 0.32857 0.10043 0.0
H1105 H 0.34383 0.3861 0.09605 0.0
H1106 H 0.31294 0.40657 0.10356 0.0
H1107 H 0.26044 0.34886 0.07848 0.0
H1108 H 0.2445 0.33451 0.09651 0.0
H1109 H 0.26903 0.32421 0.08887 0.0
H1110 H 0.27967 0.32181 0.12781 0.0
H1111 H 0.25524 0.33224 0.13556 0.0
H1112 H 0.27859 0.3449 0.14398 0.0
H1113 H 0.27882 0.42101 0.11212 0.0
H1114 H 0.24326 0.42855 0.12263 0.0
H1115 H 0.22979 0.36198 0.12407 0.0
C1116 C 0.30955 0.34549 0.10069 0.0
C1117 C 0.32851 0.35577 0.09743 0.0
C1118 C 0.32949 0.37788 0.09841 0.0
C1119 C 0.312 0.38969 0.10264 0.0
C1120 C 0.29363 0.37915 0.10616 0.0
C1121 C 0.29221 0.35757 0.10536 0.0
C1122 C 0.27076 0.35026 0.11108 0.0
C1123 C 0.26058 0.33878 0.09263 0.0
C1124 C 0.27109 0.33649 0.13078 0.0
C1125 C 0.26049 0.3711 0.11532 0.0
C1126 C 0.27396 0.38753 0.11212 0.0
C1127 C 0.26811 0.40829 0.11473 0.0
C1128 C 0.2479 0.41242 0.12071 0.0
C1129 C 0.23385 0.39587 0.12432 0.0
C1130 C 0.24029 0.37493 0.12165 0.0
H1131 H 0.74306 0.09761 0.89601 0.0
H1132 H 0.72241 0.14948 0.85779 0.0
H1133 H 0.75745 0.16393 0.85732 0.0
H1134 H 0.77938 0.1289 0.92731 0.0
H1135 H 0.79791 0.10816 0.92892 0.0
H1136 H 0.771 0.10198 0.9268 0.0
H1137 H 0.7783 0.0793 0.89408 0.0
H1138 H 0.80519 0.08546 0.89606 0.0
H1139 H 0.79154 0.09077 0.87215 0.0
H1140 H 0.79468 0.17107 0.85806 0.0
H1141 H 0.83225 0.17244 0.86298 0.0
H1142 H 0.82904 0.11792 0.9031 0.0
C1143 C 0.74596 0.11208 0.8877 0.0
C1144 C 0.73009 0.12243 0.87689 0.0
C1145 C 0.73434 0.14137 0.86625 0.0
C1146 C 0.75419 0.14968 0.86585 0.0
C1147 C 0.76954 0.13906 0.87647 0.0
C1148 C 0.76568 0.12087 0.88749 0.0
C1149 C 0.78508 0.11274 0.89764 0.0
C1150 C 0.78322 0.11297 0.92159 0.0
C1151 C 0.79033 0.09076 0.88949 0.0
C1152 C 0.80046 0.12893 0.89012 0.0
C1153 C 0.79111 0.14388 0.87783 0.0
C1154 C 0.80217 0.1597 0.86794 0.0
C1155 C 0.82342 0.16032 0.87074 0.0
C1156 C 0.83323 0.14544 0.88354 0.0
C1157 C 0.82167 0.12964 0.89351 0.0
H1158 H 0.10982 0.46034 0.15312 0.0
H1159 H 0.16854 0.47203 0.12323 0.0
H1160 H 0.16141 0.5099 0.12328 0.0
H1161 H 0.08139 0.5 0.12579 0.0
H1162 H 0.06629 0.50698 0.14829 0.0
H1163 H 0.07588 0.48075 0.14561 0.0
H1164 H 0.09349 0.48378 0.18183 0.0
H1165 H 0.08396 0.51003 0.18462 0.0
H1166 H 0.11106 0.50509 0.18676 0.0
H1167 H 0.14805 0.54647 0.12678 0.0
H1168 H 0.12943 0.57926 0.13368 0.0
H1169 H 0.07958 0.54372 0.1615 0.0
C1170 C 0.12115 0.47081 0.14644 0.0
C1171 C 0.13972 0.46315 0.13808 0.0
C1172 C 0.1542 0.47748 0.12971 0.0
C1173 C 0.15029 0.49903 0.12965 0.0
C1174 C 0.13187 0.50601 0.13807 0.0
C1175 C 0.11755 0.49235 0.14632 0.0
C1176 C 0.09911 0.50393 0.15471 0.0
C1177 C 0.07951 0.49753 0.14289 0.0
C1178 C 0.09678 0.5005 0.17838 0.0
C1179 C 0.10528 0.52625 0.14982 0.0
C1180 C 0.12423 0.5271 0.14021 0.0
C1181 C 0.13319 0.546 0.13427 0.0
C1182 C 0.1225 0.56454 0.13826 0.0
C1183 C 0.10307 0.56402 0.14811 0.0
C1184 C 0.0944 0.5446 0.15393 0.0
H1185 H 0.67951 0.85034 0.40635 0.0
H1186 H 0.66071 0.8967 0.36074 0.0
H1187 H 0.69708 0.90636 0.35504 0.0
H1188 H 0.72114 0.87967 0.42878 0.0
H1189 H 0.73715 0.85703 0.43206 0.0
H1190 H 0.70967 0.85427 0.43279 0.0
H1191 H 0.71128 0.82659 0.40317 0.0
H1192 H 0.73875 0.82922 0.4024 0.0
H1193 H 0.7239 0.83307 0.37896 0.0
H1194 H 0.73579 0.9113 0.35506 0.0
H1195 H 0.77349 0.90921 0.35874 0.0
H1196 H 0.76624 0.85855 0.40328 0.0
C1197 C 0.68295 0.86258 0.39518 0.0
C1198 C 0.66723 0.87283 0.38405 0.0
C1199 C 0.6725 0.88861 0.36943 0.0
C1200 C 0.69309 0.89425 0.36615 0.0
C1201 C 0.70819 0.88387 0.37751 0.0
C1202 C 0.70333 0.86824 0.39159 0.0
C1203 C 0.72232 0.859 0.4014 0.0
C1204 C 0.72258 0.86272 0.42516 0.0
C1205 C 0.72417 0.83559 0.39616 0.0
C1206 C 0.7387 0.87177 0.39056 0.0
C1207 C 0.7303 0.88622 0.37703 0.0
C1208 C 0.74253 0.89998 0.36555 0.0
C1209 C 0.7639 0.89873 0.36779 0.0
C1210 C 0.77278 0.88363 0.38119 0.0
C1211 C 0.75992 0.87011 0.39276 0.0
H1212 H 0.91553 0.94763 0.15535 0.0
H1213 H 0.86221 0.90805 0.14505 0.0
H1214 H 0.8411 0.93923 0.13879 0.0
H1215 H 0.88901 0.99127 0.18044 0.0
H1216 H 0.90441 0.01085 0.16752 0.0
H1217 H 0.91504 0.9855 0.1731 0.0
H1218 H 0.92409 0.9808 0.13394 0.0
H1219 H 0.91349 0.0061 0.12826 0.0
H1220 H 0.90421 0.98329 0.11453 0.0
H1221 H 0.82579 0.97465 0.13284 0.0
H1222 H 0.81808 0.01177 0.12529 0.0
H1223 H 0.88165 0.0281 0.13737 0.0
C1224 C 0.89935 0.94559 0.15208 0.0
C1225 C 0.89047 0.92544 0.15092 0.0
C1226 C 0.86934 0.92333 0.14614 0.0
C1227 C 0.85718 0.94097 0.14261 0.0
C1228 C 0.8664 0.96062 0.14368 0.0
C1229 C 0.88703 0.96305 0.14813 0.0
C1230 C 0.89342 0.98583 0.14689 0.0
C1231 C 0.90091 0.99383 0.16826 0.0
C1232 C 0.90976 0.98919 0.12989 0.0
C1233 C 0.87322 0.99573 0.14085 0.0
C1234 C 0.85776 0.98097 0.13938 0.0
C1235 C 0.83777 0.98638 0.13395 0.0
C1236 C 0.83352 0.00746 0.12971 0.0
C1237 C 0.84927 0.02273 0.13064 0.0
C1238 C 0.86931 0.01673 0.13641 0.0
H1239 H 0.18722 0.62988 0.61623 0.0
H1240 H 0.19861 0.69321 0.59441 0.0
H1241 H 0.2356 0.68623 0.59349 0.0
H1242 H 0.23212 0.62602 0.64925 0.0
H1243 H 0.2371 0.59907 0.64278 0.0
H1244 H 0.21127 0.60885 0.64203 0.0
H1245 H 0.2077 0.59664 0.60357 0.0
H1246 H 0.2335 0.58678 0.60422 0.0
H1247 H 0.22615 0.60541 0.5845 0.0
H1248 H 0.2709 0.67303 0.59481 0.0
H1249 H 0.30324 0.65389 0.59743 0.0
H1250 H 0.27003 0.59847 0.61808 0.0
C1251 C 0.19754 0.64225 0.61132 0.0
C1252 C 0.19004 0.66212 0.60544 0.0
C1253 C 0.20398 0.67788 0.59897 0.0
C1254 C 0.22505 0.67409 0.59842 0.0
C1255 C 0.23197 0.65443 0.60432 0.0
C1256 C 0.21874 0.6387 0.61057 0.0
C1257 C 0.23044 0.61888 0.61575 0.0
C1258 C 0.22756 0.61286 0.63883 0.0
C1259 C 0.22406 0.60086 0.60114 0.0
C1260 C 0.25226 0.62605 0.61145 0.0
C1261 C 0.25266 0.64663 0.60492 0.0
C1262 C 0.27083 0.65689 0.59991 0.0
C1263 C 0.28916 0.64581 0.60147 0.0
C1264 C 0.2893 0.6246 0.60799 0.0
C1265 C 0.27051 0.61465 0.61311 0.0
H1266 H 0.0917 0.44547 0.34714 0.0
H1267 H 0.13295 0.41897 0.39319 0.0
H1268 H 0.14754 0.4541 0.39991 0.0
H1269 H 0.12655 0.48479 0.32664 0.0
H1270 H 0.10675 0.50412 0.32373 0.0
H1271 H 0.10048 0.47671 0.32169 0.0
H1272 H 0.07324 0.48083 0.35086 0.0
H1273 H 0.0794 0.50823 0.35296 0.0
H1274 H 0.08071 0.49173 0.37575 0.0
H1275 H 0.1576 0.4925 0.4016 0.0
H1276 H 0.16025 0.53117 0.40004 0.0
H1277 H 0.11124 0.53221 0.35417 0.0
C1278 C 0.10393 0.447 0.3585 0.0
C1279 C 0.11125 0.42944 0.36956 0.0
C1280 C 0.12706 0.4322 0.38454 0.0
C1281 C 0.13552 0.45208 0.3884 0.0
C1282 C 0.1279 0.46907 0.37728 0.0
C1283 C 0.11234 0.46673 0.36276 0.0
C1284 C 0.1061 0.4876 0.35369 0.0
C1285 C 0.11022 0.48834 0.33004 0.0
C1286 C 0.08353 0.49237 0.35862 0.0
C1287 C 0.12045 0.50207 0.3655 0.0
C1288 C 0.13313 0.49111 0.37881 0.0
C1289 C 0.14772 0.50124 0.39125 0.0
C1290 C 0.14916 0.52318 0.39023 0.0
C1291 C 0.13586 0.53468 0.37712 0.0
C1292 C 0.12149 0.52387 0.36451 0.0
H1293 H 0.40762 0.55802 0.83296 0.0
H1294 H 0.37412 0.58271 0.88617 0.0
H1295 H 0.36175 0.54733 0.8945 0.0
H1296 H 0.37004 0.51968 0.81773 0.0
H1297 H 0.38856 0.50011 0.81062 0.0
H1298 H 0.39512 0.52746 0.80872 0.0
H1299 H 0.42665 0.52151 0.83259 0.0
H1300 H 0.42017 0.49415 0.83458 0.0
H1301 H 0.42313 0.5097 0.85792 0.0
H1302 H 0.35184 0.50995 0.89659 0.0
H1303 H 0.34597 0.47202 0.89304 0.0
H1304 H 0.38666 0.4706 0.83939 0.0
C1305 C 0.39773 0.55599 0.84638 0.0
C1306 C 0.39189 0.57325 0.85888 0.0
C1307 C 0.37892 0.56983 0.87635 0.0
C1308 C 0.37175 0.54976 0.88123 0.0
C1309 C 0.37776 0.53316 0.86862 0.0
C1310 C 0.39052 0.53596 0.85163 0.0
C1311 C 0.39459 0.51529 0.84073 0.0
C1312 C 0.3866 0.51566 0.81811 0.0
C1313 C 0.4175 0.50984 0.84151 0.0
C1314 C 0.38203 0.50053 0.85424 0.0
C1315 C 0.37238 0.51127 0.87015 0.0
C1316 C 0.3594 0.50131 0.88428 0.0
C1317 C 0.35612 0.47977 0.88209 0.0
C1318 C 0.36593 0.46833 0.86601 0.0
C1319 C 0.37916 0.47889 0.85199 0.0
H1320 H 0.90516 0.6909 0.66582 0.0
H1321 H 0.91784 0.66182 0.60596 0.0
H1322 H 0.91663 0.69642 0.58889 0.0
H1323 H 0.86824 0.72574 0.64656 0.0
H1324 H 0.87507 0.74708 0.66369 0.0
H1325 H 0.87963 0.72053 0.67169 0.0
H1326 H 0.918 0.72935 0.67772 0.0
H1327 H 0.91355 0.75596 0.66969 0.0
H1328 H 0.93284 0.74059 0.65675 0.0
H1329 H 0.9123 0.73349 0.57806 0.0
H1330 H 0.90212 0.7702 0.57337 0.0
H1331 H 0.89018 0.77532 0.63994 0.0
C1332 C 0.90806 0.69193 0.64919 0.0
C1333 C 0.91183 0.67379 0.63719 0.0
C1334 C 0.91502 0.67557 0.61541 0.0
C1335 C 0.91448 0.69515 0.60561 0.0
C1336 C 0.91051 0.71274 0.61782 0.0
C1337 C 0.90718 0.71133 0.63909 0.0
C1338 C 0.90124 0.73235 0.64821 0.0
C1339 C 0.87977 0.73136 0.65811 0.0
C1340 C 0.91737 0.74001 0.66403 0.0
C1341 C 0.90137 0.7457 0.62865 0.0
C1342 C 0.90717 0.73413 0.6114 0.0
C1343 C 0.90785 0.74275 0.59146 0.0
C1344 C 0.90203 0.76365 0.58898 0.0
C1345 C 0.89534 0.77564 0.60629 0.0
C1346 C 0.89535 0.7666 0.62644 0.0
H1347 H 0.96064 0.15008 0.39664 0.0
H1348 H 0.97279 0.11788 0.33824 0.0
H1349 H 0.01009 0.12378 0.34346 0.0
H1350 H 0.9992 0.18947 0.3912 0.0
H1351 H 0.00498 0.18987 0.41875 0.0
H1352 H 0.97966 0.18281 0.40999 0.0
H1353 H 0.98219 0.14782 0.43033 0.0
H1354 H 0.00764 0.15465 0.43894 0.0
H1355 H 0.00324 0.13043 0.42516 0.0
H1356 H 0.04675 0.13297 0.35633 0.0
H1357 H 0.07798 0.14729 0.37359 0.0
H1358 H 0.04013 0.17317 0.42282 0.0
C1359 C 0.97106 0.14421 0.38487 0.0
C1360 C 0.96378 0.1334 0.36708 0.0
C1361 C 0.97801 0.12625 0.35198 0.0
C1362 C 0.99922 0.12941 0.35489 0.0
C1363 C 0.00584 0.13983 0.3729 0.0
C1364 C 0.99205 0.14728 0.38747 0.0
C1365 C 0.00267 0.15839 0.40528 0.0
C1366 C 0.99625 0.1815 0.40635 0.0
C1367 C 0.9987 0.14714 0.42615 0.0
C1368 C 0.02468 0.15618 0.39854 0.0
C1369 C 0.0264 0.14528 0.37996 0.0
C1370 C 0.04551 0.14153 0.37087 0.0
C1371 C 0.06316 0.14957 0.38083 0.0
C1372 C 0.06144 0.16137 0.39949 0.0
C1373 C 0.04195 0.16431 0.4085 0.0
H1374 H 0.61583 0.21838 0.13671 0.0
H1375 H 0.61141 0.22755 0.06969 0.0
H1376 H 0.60587 0.26538 0.07535 0.0
H1377 H 0.57661 0.25766 0.15093 0.0
H1378 H 0.59042 0.26553 0.17408 0.0
H1379 H 0.59227 0.23902 0.16466 0.0
H1380 H 0.63182 0.24272 0.16344 0.0
H1381 H 0.6301 0.26929 0.17256 0.0
H1382 H 0.64322 0.26362 0.14845 0.0
H1383 H 0.60543 0.30261 0.0882 0.0
H1384 H 0.60569 0.3361 0.10745 0.0
H1385 H 0.60817 0.30236 0.16619 0.0
C1386 C 0.61329 0.2283 0.12325 0.0
C1387 C 0.61406 0.22011 0.10276 0.0
C1388 C 0.61073 0.23352 0.08552 0.0
C1389 C 0.60766 0.25502 0.08858 0.0
C1390 C 0.6076 0.26271 0.10898 0.0
C1391 C 0.60989 0.24969 0.12604 0.0
C1392 C 0.60968 0.26192 0.14632 0.0
C1393 C 0.59114 0.25566 0.15979 0.0
C1394 C 0.62991 0.25922 0.15839 0.0
C1395 C 0.60755 0.28393 0.13798 0.0
C1396 C 0.60645 0.28407 0.11641 0.0
C1397 C 0.60585 0.30268 0.10511 0.0
C1398 C 0.60612 0.32163 0.11618 0.0
C1399 C 0.60671 0.32179 0.1383 0.0
C1400 C 0.6074 0.30268 0.14928 0.0
H1401 H 0.45014 0.83211 0.92919 0.0
H1402 H 0.41373 0.8592 0.87949 0.0
H1403 H 0.44444 0.87833 0.86672 0.0
H1404 H 0.48376 0.87845 0.93816 0.0
H1405 H 0.50564 0.86215 0.94332 0.0
H1406 H 0.48025 0.85301 0.94981 0.0
H1407 H 0.48615 0.81972 0.92746 0.0
H1408 H 0.51141 0.8288 0.92077 0.0
H1409 H 0.49333 0.82244 0.90039 0.0
H1410 H 0.48053 0.89009 0.85658 0.0
H1411 H 0.51782 0.89544 0.85159 0.0
H1412 H 0.52953 0.86148 0.90903 0.0
C1413 C 0.4485 0.84243 0.91588 0.0
C1414 C 0.42961 0.8442 0.90529 0.0
C1415 C 0.42806 0.85781 0.88793 0.0
C1416 C 0.44542 0.86866 0.88055 0.0
C1417 C 0.46402 0.86601 0.89101 0.0
C1418 C 0.46551 0.8535 0.90854 0.0
C1419 C 0.48732 0.85219 0.91637 0.0
C1420 C 0.48935 0.86204 0.93821 0.0
C1421 C 0.49499 0.82944 0.91622 0.0
C1422 C 0.4981 0.86529 0.90006 0.0
C1423 C 0.48448 0.87324 0.88558 0.0
C1424 C 0.49126 0.88432 0.8681 0.0
C1425 C 0.51247 0.88721 0.86535 0.0
C1426 C 0.52662 0.87911 0.88004 0.0
C1427 C 0.51917 0.8683 0.89773 0.0
H1428 H 0.87956 0.22016 0.85658 0.0
H1429 H 0.92343 0.21454 0.90717 0.0
H1430 H 0.92767 0.25296 0.90802 0.0
H1431 H 0.90276 0.26488 0.83032 0.0
H1432 H 0.87857 0.27701 0.82443 0.0
H1433 H 0.88014 0.24897 0.82663 0.0
H1434 H 0.85155 0.2494 0.8547 0.0
H1435 H 0.84999 0.27746 0.8527 0.0
H1436 H 0.85472 0.26543 0.8777 0.0
H1437 H 0.92787 0.29133 0.90295 0.0
H1438 H 0.92215 0.32842 0.89399 0.0
H1439 H 0.87538 0.31002 0.8493 0.0
C1440 C 0.89026 0.22713 0.86756 0.0
C1441 C 0.9015 0.21462 0.88157 0.0
C1442 C 0.91493 0.22404 0.89619 0.0
C1443 C 0.9174 0.24577 0.89679 0.0
C1444 C 0.90597 0.25778 0.88296 0.0
C1445 C 0.89249 0.24891 0.86876 0.0
C1446 C 0.88118 0.2656 0.85658 0.0
C1447 C 0.88596 0.26402 0.8331 0.0
C1448 C 0.85799 0.2644 0.86067 0.0
C1449 C 0.89053 0.28518 0.86609 0.0
C1450 C 0.90499 0.28022 0.88108 0.0
C1451 C 0.91643 0.29547 0.89144 0.0
C1452 C 0.91309 0.31642 0.88628 0.0
C1453 C 0.89814 0.32187 0.87127 0.0
C1454 C 0.88658 0.30612 0.86115 0.0
H1455 H 0.45268 0.14071 0.58087 0.0
H1456 H 0.41732 0.14135 0.63832 0.0
H1457 H 0.44905 0.13599 0.65866 0.0
H1458 H 0.48818 0.10035 0.59687 0.0
H1459 H 0.50971 0.1123 0.5838 0.0
H1460 H 0.48417 0.11597 0.5738 0.0
H1461 H 0.4892 0.15618 0.5758 0.0
H1462 H 0.51471 0.15264 0.58592 0.0
H1463 H 0.49646 0.16806 0.6003 0.0
H1464 H 0.48455 0.1322 0.67272 0.0
H1465 H 0.52142 0.12777 0.6797 0.0
H1466 H 0.53364 0.12835 0.613 0.0
C1467 C 0.4516 0.13962 0.59773 0.0
C1468 C 0.43258 0.14147 0.60806 0.0
C1469 C 0.43175 0.13991 0.63011 0.0
C1470 C 0.44967 0.13693 0.64178 0.0
C1471 C 0.46821 0.13538 0.63112 0.0
C1472 C 0.46929 0.13646 0.60959 0.0
C1473 C 0.49114 0.13418 0.60198 0.0
C1474 C 0.49343 0.11453 0.58831 0.0
C1475 C 0.49829 0.15395 0.59032 0.0
C1476 C 0.5022 0.1318 0.62263 0.0
C1477 C 0.48868 0.13266 0.63923 0.0
C1478 C 0.49528 0.13135 0.65986 0.0
C1479 C 0.51625 0.12892 0.66365 0.0
C1480 C 0.53035 0.12765 0.64688 0.0
C1481 C 0.52319 0.12914 0.62611 0.0
H1482 H 0.62391 0.78441 0.39693 0.0
H1483 H 0.57107 0.80307 0.36023 0.0
H1484 H 0.56521 0.76632 0.35 0.0
H1485 H 0.64189 0.74585 0.36053 0.0
H1486 H 0.65043 0.72793 0.3804 0.0
H1487 H 0.6501 0.75562 0.38564 0.0
H1488 H 0.62728 0.74918 0.41814 0.0
H1489 H 0.62756 0.72146 0.41302 0.0
H1490 H 0.60349 0.73498 0.41527 0.0
H1491 H 0.5648 0.72791 0.3439 0.0
H1492 H 0.57071 0.69006 0.34087 0.0
H1493 H 0.62471 0.69602 0.38031 0.0
C1494 C 0.61102 0.78072 0.38687 0.0
C1495 C 0.59789 0.79659 0.37942 0.0
C1496 C 0.58137 0.79118 0.36605 0.0
C1497 C 0.57787 0.77035 0.36021 0.0
C1498 C 0.59114 0.75512 0.36771 0.0
C1499 C 0.60746 0.76 0.38063 0.0
C1500 C 0.6198 0.74065 0.38584 0.0
C1501 C 0.64186 0.74264 0.3776 0.0
C1502 C 0.6195 0.73631 0.40947 0.0
C1503 C 0.60779 0.72416 0.37387 0.0
C1504 C 0.59125 0.73288 0.36367 0.0
C1505 C 0.57773 0.72088 0.35177 0.0
C1506 C 0.58122 0.69935 0.35019 0.0
C1507 C 0.59822 0.69 0.3603 0.0
C1508 C 0.61166 0.70267 0.37229 0.0
H1509 H 0.05229 0.84929 0.08607 0.0
H1510 H 0.08783 0.86078 0.14234 0.0
H1511 H 0.05593 0.86848 0.16162 0.0
H1512 H 0.01508 0.89063 0.09496 0.0
H1513 H 0.99402 0.87563 0.08436 0.0
H1514 H 0.01967 0.87135 0.07494 0.0
H1515 H 0.01638 0.83197 0.08398 0.0
H1516 H 0.99076 0.83613 0.0935 0.0
H1517 H 0.00968 0.82432 0.11023 0.0
H1518 H 0.02021 0.87259 0.17521 0.0
H1519 H 0.98312 0.87559 0.18182 0.0
H1520 H 0.97069 0.86343 0.11627 0.0
C1521 C 0.05336 0.85353 0.10243 0.0
C1522 C 0.07251 0.85438 0.11277 0.0
C1523 C 0.07332 0.8601 0.13413 0.0
C1524 C 0.05529 0.86444 0.1452 0.0
C1525 C 0.03664 0.86327 0.13459 0.0
C1526 C 0.03555 0.85821 0.11363 0.0
C1527 C 0.01357 0.85816 0.10592 0.0
C1528 C 0.0104 0.87495 0.08905 0.0
C1529 C 0.00723 0.83635 0.09794 0.0
C1530 C 0.00242 0.8637 0.12591 0.0
C1531 C 0.01604 0.86644 0.14227 0.0
C1532 C 0.00942 0.87071 0.16249 0.0
C1533 C 0.98831 0.87229 0.16609 0.0
C1534 C 0.97407 0.86986 0.14953 0.0
C1535 C 0.98126 0.86561 0.12916 0.0
H1536 H 0.66455 0.89535 0.70907 0.0
H1537 H 0.6101 0.8953 0.67011 0.0
H1538 H 0.58837 0.89516 0.70176 0.0
H1539 H 0.64485 0.85973 0.74715 0.0
H1540 H 0.6574 0.8724 0.76889 0.0
H1541 H 0.66854 0.87381 0.7432 0.0
H1542 H 0.66877 0.91431 0.74539 0.0
H1543 H 0.65756 0.91303 0.77108 0.0
H1544 H 0.64522 0.92791 0.75078 0.0
H1545 H 0.57269 0.89534 0.73776 0.0
H1546 H 0.56412 0.89264 0.77529 0.0
H1547 H 0.6289 0.89039 0.79049 0.0
C1548 C 0.64805 0.89546 0.70722 0.0
C1549 C 0.63896 0.89551 0.6872 0.0
C1550 C 0.61734 0.8953 0.68534 0.0
C1551 C 0.6049 0.8953 0.70321 0.0
C1552 C 0.61435 0.89526 0.72276 0.0
C1553 C 0.63543 0.89509 0.72486 0.0
C1554 C 0.64177 0.89389 0.74759 0.0
C1555 C 0.65385 0.87376 0.75196 0.0
C1556 C 0.65405 0.91346 0.75409 0.0
C1557 C 0.62095 0.89337 0.75797 0.0
C1558 C 0.60533 0.89446 0.74341 0.0
C1559 C 0.58478 0.89442 0.7493 0.0
C1560 C 0.58007 0.89294 0.77064 0.0
C1561 C 0.59585 0.89123 0.78574 0.0
C1562 C 0.61652 0.89157 0.77927 0.0
H1563 H 0.84301 0.89195 0.53804 0.0
H1564 H 0.85946 0.82634 0.53316 0.0
H1565 H 0.85423 0.8277 0.49515 0.0
H1566 H 0.80384 0.89148 0.49695 0.0
H1567 H 0.81088 0.917 0.48729 0.0
H1568 H 0.81456 0.91075 0.51449 0.0
H1569 H 0.853 0.9207 0.51148 0.0
H1570 H 0.84942 0.92703 0.48432 0.0
H1571 H 0.86855 0.90824 0.49185 0.0
H1572 H 0.84891 0.83613 0.45781 0.0
H1573 H 0.84494 0.85171 0.42284 0.0
H1574 H 0.83207 0.91195 0.45123 0.0
C1575 C 0.8453 0.87783 0.52899 0.0
C1576 C 0.85165 0.85904 0.53864 0.0
C1577 C 0.8547 0.84096 0.52619 0.0
C1578 C 0.85166 0.84151 0.50456 0.0
C1579 C 0.84556 0.86025 0.49554 0.0
C1580 C 0.84245 0.87812 0.50728 0.0
C1581 C 0.83693 0.89648 0.49342 0.0
C1582 C 0.81526 0.90439 0.49833 0.0
C1583 C 0.85293 0.91415 0.49538 0.0
C1584 C 0.83776 0.88616 0.47209 0.0
C1585 C 0.84258 0.86521 0.47375 0.0
C1586 C 0.84499 0.85248 0.45627 0.0
C1587 C 0.84272 0.86148 0.43648 0.0
C1588 C 0.83815 0.883 0.43435 0.0
C1589 C 0.83536 0.8954 0.45241 0.0
H1590 H 0.88395 0.11633 0.17997 0.0
H1591 H 0.82744 0.08054 0.18493 0.0
H1592 H 0.83242 0.07787 0.22315 0.0
H1593 H 0.91188 0.08666 0.21908 0.0
H1594 H 0.92547 0.10928 0.22884 0.0
H1595 H 0.91748 0.10828 0.2019 0.0
H1596 H 0.89801 0.14321 0.20657 0.0
H1597 H 0.90597 0.14434 0.23349 0.0
H1598 H 0.87911 0.14546 0.22698 0.0
H1599 H 0.84223 0.0815 0.26095 0.0
H1600 H 0.85753 0.08889 0.29559 0.0
H1601 H 0.90903 0.11978 0.26565 0.0
C1602 C 0.87261 0.10795 0.18911 0.0
C1603 C 0.85521 0.09878 0.17957 0.0
C1604 C 0.84088 0.08767 0.19197 0.0
C1605 C 0.84356 0.08609 0.21366 0.0
C1606 C 0.86086 0.09538 0.22258 0.0
C1607 C 0.87527 0.10586 0.21068 0.0
C1608 C 0.89262 0.11423 0.22408 0.0
C1609 C 0.91307 0.10399 0.21812 0.0
C1610 C 0.894 0.13823 0.2227 0.0
C1611 C 0.88551 0.10719 0.24546 0.0
C1612 C 0.86708 0.09645 0.24426 0.0
C1613 C 0.8568 0.08959 0.26207 0.0
C1614 C 0.86556 0.09389 0.28163 0.0
C1615 C 0.88452 0.10464 0.28314 0.0
C1616 C 0.89472 0.11114 0.26483 0.0
H1617 H 0.62682 0.12654 0.93955 0.0
H1618 H 0.68714 0.09829 0.93518 0.0
H1619 H 0.69094 0.10068 0.97325 0.0
H1620 H 0.64017 0.16317 0.98096 0.0
H1621 H 0.61572 0.16091 0.99389 0.0
H1622 H 0.61744 0.15705 0.96605 0.0
H1623 H 0.60044 0.12053 0.96994 0.0
H1624 H 0.59875 0.12424 0.99779 0.0
H1625 H 0.61162 0.10163 0.98739 0.0
H1626 H 0.68798 0.10426 0.01144 0.0
H1627 H 0.67949 0.11176 0.04816 0.0
H1628 H 0.62194 0.13944 0.02866 0.0
C1629 C 0.64083 0.12092 0.94661 0.0
C1630 C 0.65664 0.11219 0.93429 0.0
C1631 C 0.6748 0.10511 0.94417 0.0
C1632 C 0.67712 0.10632 0.96584 0.0
C1633 C 0.66125 0.11482 0.97749 0.0
C1634 C 0.64355 0.12224 0.96832 0.0
C1635 C 0.62907 0.13094 0.98467 0.0
C1636 C 0.62539 0.15441 0.98118 0.0
C1637 C 0.60877 0.1186 0.98496 0.0
C1638 C 0.64143 0.12711 0.00439 0.0
C1639 C 0.65984 0.11759 -0.0002 0.0
C1640 C 0.67367 0.11182 0.01528 0.0
C1641 C 0.66865 0.11603 0.03609 0.0
C1642 C 0.65007 0.12614 0.04122 0.0
C1643 C 0.63631 0.13181 0.02513 0.0
H1644 H 0.67676 0.09574 0.80166 0.0
H1645 H 0.62263 0.11852 0.8336 0.0
H1646 H 0.60483 0.12169 0.79952 0.0
H1647 H 0.67391 0.12971 0.75829 0.0
H1648 H 0.6828 0.1106 0.7397 0.0
H1649 H 0.69067 0.10898 0.76661 0.0
H1650 H 0.67665 0.071 0.76864 0.0
H1651 H 0.66877 0.07247 0.74169 0.0
H1652 H 0.65036 0.06574 0.7616 0.0
H1653 H 0.59357 0.12324 0.7619 0.0
H1654 H 0.58962 0.12381 0.72363 0.0
H1655 H 0.65168 0.10052 0.71663 0.0
C1656 C 0.6611 0.10124 0.80155 0.0
C1657 C 0.65101 0.10687 0.82021 0.0
C1658 C 0.63059 0.11414 0.81942 0.0
C1659 C 0.62038 0.11594 0.80018 0.0
C1660 C 0.63089 0.1104 0.78204 0.0
C1661 C 0.65079 0.10321 0.78258 0.0
C1662 C 0.65896 0.09898 0.76088 0.0
C1663 C 0.67769 0.1129 0.7561 0.0
C1664 C 0.66397 0.07566 0.75804 0.0
C1665 C 0.64062 0.10519 0.74793 0.0
C1666 C 0.62453 0.11156 0.76042 0.0
C1667 C 0.60604 0.11823 0.75198 0.0
C1668 C 0.60398 0.11849 0.73019 0.0
C1669 C 0.62038 0.11224 0.71707 0.0
C1670 C 0.63888 0.10543 0.72617 0.0
H1671 H 0.61708 0.84059 0.48772 0.0
H1672 H 0.66398 0.87983 0.45999 0.0
H1673 H 0.67554 0.89077 0.49531 0.0
H1674 H 0.60256 0.87671 0.52523 0.0
H1675 H 0.59719 0.858 0.5456 0.0
H1676 H 0.59504 0.85033 0.51863 0.0
H1677 H 0.62056 0.82004 0.52481 0.0
H1678 H 0.62264 0.82748 0.55191 0.0
H1679 H 0.64536 0.82562 0.53603 0.0
H1680 H 0.68021 0.89921 0.53335 0.0
H1681 H 0.67658 0.90628 0.57111 0.0
H1682 H 0.62461 0.86367 0.57371 0.0
C1683 C 0.63023 0.85091 0.48924 0.0
C1684 C 0.64012 0.859 0.47143 0.0
C1685 C 0.65662 0.87322 0.47366 0.0
C1686 C 0.66323 0.87948 0.49359 0.0
C1687 C 0.65289 0.87157 0.51097 0.0
C1688 C 0.63668 0.85766 0.50899 0.0
C1689 C 0.62667 0.85338 0.52991 0.0
C1690 C 0.60403 0.86001 0.52982 0.0
C1691 C 0.62895 0.83025 0.53602 0.0
C1692 C 0.63946 0.86741 0.5439 0.0
C1693 C 0.65477 0.87741 0.53276 0.0
C1694 C 0.66835 0.89138 0.54226 0.0
C1695 C 0.66615 0.8953 0.5637 0.0
C1696 C 0.65024 0.88561 0.5753 0.0
C1697 C 0.63682 0.87142 0.56522 0.0
H1698 H 0.83779 0.89707 0.31093 0.0
H1699 H 0.87857 0.84871 0.33356 0.0
H1700 H 0.89328 0.84514 0.29818 0.0
H1701 H 0.82702 0.87213 0.26174 0.0
H1702 H 0.8258 0.89628 0.24728 0.0
H1703 H 0.81926 0.89591 0.27461 0.0
H1704 H 0.84624 0.92496 0.2818 0.0
H1705 H 0.85291 0.92538 0.25448 0.0
H1706 H 0.87245 0.92102 0.27389 0.0
H1707 H 0.90421 0.84755 0.26098 0.0
H1708 H 0.90829 0.85288 0.22306 0.0
H1709 H 0.8585 0.89763 0.22364 0.0
C1710 C 0.8499 0.88583 0.30841 0.0
C1711 C 0.8572 0.87325 0.32492 0.0
C1712 C 0.87279 0.85845 0.32105 0.0
C1713 C 0.88129 0.85639 0.30107 0.0
C1714 C 0.87377 0.86903 0.28512 0.0
C1715 C 0.85824 0.88324 0.28844 0.0
C1716 C 0.85221 0.89406 0.2683 0.0
C1717 C 0.82974 0.8893 0.26265 0.0
C1718 C 0.8562 0.91776 0.26971 0.0
C1719 C 0.86681 0.8837 0.25315 0.0
C1720 C 0.87933 0.86958 0.2633 0.0
C1721 C 0.89443 0.85846 0.25282 0.0
C1722 C 0.89668 0.86166 0.23132 0.0
C1723 C 0.88365 0.87559 0.22046 0.0
C1724 C 0.86854 0.88676 0.23155 0.0
H1725 H 0.87132 0.10909 0.96445 0.0
H1726 H 0.88398 0.17414 0.97951 0.0
H1727 H 0.87764 0.16689 0.01673 0.0
H1728 H 0.82964 0.10321 0.00183 0.0
H1729 H 0.83603 0.07661 0.00837 0.0
H1730 H 0.84189 0.08669 0.98276 0.0
H1731 H 0.87999 0.07662 0.98778 0.0
H1732 H 0.87426 0.06657 0.01342 0.0
H1733 H 0.89381 0.08635 0.01022 0.0
H1734 H 0.87191 0.15259 0.05224 0.0
H1735 H 0.86387 0.13255 0.08409 0.0
H1736 H 0.85221 0.0772 0.04644 0.0
C1737 C 0.87274 0.12174 0.97563 0.0
C1738 C 0.87823 0.14214 0.96916 0.0
C1739 C 0.87974 0.1584 0.98414 0.0
C1740 C 0.87624 0.15445 0.00533 0.0
C1741 C 0.87093 0.13421 0.01126 0.0
C1742 C 0.86888 0.11815 0.99689 0.0
C1743 C 0.86237 0.09799 0.00753 0.0
C1744 C 0.84122 0.0907 0.99965 0.0
C1745 C 0.87858 0.08088 0.00456 0.0
C1746 C 0.86139 0.10522 0.0301 0.0
C1747 C 0.86658 0.12613 0.03185 0.0
C1748 C 0.86759 0.13625 0.0511 0.0
C1749 C 0.86305 0.12472 0.0691 0.0
C1750 C 0.85724 0.1034 0.0677 0.0
C1751 C 0.85638 0.09356 0.04792 0.0
H1752 H 0.75772 0.59558 0.87846 0.0
H1753 H 0.79534 0.65105 0.88756 0.0
H1754 H 0.76498 0.67072 0.8989 0.0
H1755 H 0.71529 0.62237 0.85654 0.0
H1756 H 0.69582 0.60633 0.8686 0.0
H1757 H 0.72071 0.59557 0.86321 0.0
H1758 H 0.72476 0.58525 0.90212 0.0
H1759 H 0.69979 0.59583 0.90761 0.0
H1760 H 0.72181 0.60493 0.92209 0.0
H1761 H 0.73135 0.68483 0.90781 0.0
H1762 H 0.69518 0.69336 0.9136 0.0
H1763 H 0.6777 0.62972 0.89723 0.0
C1764 C 0.75951 0.61174 0.88327 0.0
C1765 C 0.77883 0.62183 0.88235 0.0
C1766 C 0.78064 0.6431 0.88822 0.0
C1767 C 0.76352 0.65437 0.89471 0.0
C1768 C 0.74462 0.64421 0.89503 0.0
C1769 C 0.74238 0.62343 0.88947 0.0
C1770 C 0.71995 0.61689 0.89003 0.0
C1771 C 0.71251 0.60988 0.8683 0.0
C1772 C 0.71637 0.59971 0.90644 0.0
C1773 C 0.71004 0.63734 0.89657 0.0
C1774 C 0.72472 0.65273 0.89956 0.0
C1775 C 0.71968 0.67293 0.9056 0.0
C1776 C 0.69906 0.67761 0.90884 0.0
C1777 C 0.68361 0.66222 0.90584 0.0
C1778 C 0.68918 0.64181 0.89952 0.0
H1779 H 0.28863 0.84944 0.09283 0.0
H1780 H 0.27999 0.9023 0.13439 0.0
H1781 H 0.2423 0.89926 0.12947 0.0
H1782 H 0.24824 0.86285 0.05662 0.0
H1783 H 0.24145 0.83587 0.05191 0.0
H1784 H 0.26742 0.84277 0.05869 0.0
H1785 H 0.26612 0.8168 0.08979 0.0
H1786 H 0.24014 0.8099 0.08317 0.0
H1787 H 0.24614 0.81926 0.10906 0.0
H1788 H 0.20498 0.88846 0.12108 0.0
H1789 H 0.17242 0.8728 0.10834 0.0
H1790 H 0.207 0.8282 0.0715 0.0
C1791 C 0.27885 0.86041 0.10095 0.0
C1792 C 0.28719 0.87596 0.11419 0.0
C1793 C 0.27388 0.89024 0.1242 0.0
C1794 C 0.25249 0.88858 0.12152 0.0
C1795 C 0.24479 0.87279 0.10853 0.0
C1796 C 0.25768 0.85916 0.09823 0.0
C1797 C 0.24591 0.84367 0.08496 0.0
C1798 C 0.25106 0.84647 0.06167 0.0
C1799 C 0.24981 0.82108 0.09219 0.0
C1800 C 0.22424 0.85036 0.08964 0.0
C1801 C 0.22377 0.86713 0.10328 0.0
C1802 C 0.20525 0.87544 0.11025 0.0
C1803 C 0.18683 0.8664 0.10299 0.0
C1804 C 0.18711 0.84933 0.08882 0.0
C1805 C 0.20615 0.84136 0.08214 0.0
H1806 H 0.8874 0.53562 0.8426 0.0
H1807 H 0.82717 0.52968 0.87091 0.0
H1808 H 0.83278 0.49163 0.87524 0.0
H1809 H 0.88694 0.4864 0.81469 0.0
H1810 H 0.9138 0.48193 0.81937 0.0
H1811 H 0.9043 0.50826 0.81755 0.0
H1812 H 0.91972 0.51666 0.85401 0.0
H1813 H 0.92916 0.49035 0.856 0.0
H1814 H 0.91271 0.50066 0.87609 0.0
H1815 H 0.846 0.45409 0.8775 0.0
H1816 H 0.86548 0.42089 0.87741 0.0
H1817 H 0.91681 0.45277 0.84812 0.0
C1818 C 0.87522 0.52641 0.84955 0.0
C1819 C 0.85681 0.53571 0.85639 0.0
C1820 C 0.8414 0.52293 0.86549 0.0
C1821 C 0.84445 0.50131 0.86802 0.0
C1822 C 0.86295 0.49277 0.86133 0.0
C1823 C 0.87802 0.50499 0.85223 0.0
C1824 C 0.89683 0.4924 0.84695 0.0
C1825 C 0.90068 0.49224 0.82323 0.0
C1826 C 0.91571 0.5005 0.85899 0.0
C1827 C 0.89015 0.47114 0.85467 0.0
C1828 C 0.87054 0.47153 0.86282 0.0
C1829 C 0.86134 0.45362 0.87109 0.0
C1830 C 0.87251 0.43488 0.87101 0.0
C1831 C 0.89265 0.43432 0.86281 0.0
C1832 C 0.90146 0.4527 0.85453 0.0
H1833 H 0.22784 0.10209 0.58776 0.0
H1834 H 0.22841 0.12386 0.65197 0.0
H1835 H 0.2631 0.1387 0.64685 0.0
H1836 H 0.28188 0.08948 0.58325 0.0
H1837 H 0.2841 0.09936 0.55697 0.0
H1838 H 0.25997 0.08903 0.56607 0.0
H1839 H 0.24221 0.12386 0.55633 0.0
H1840 H 0.26629 0.13431 0.54725 0.0
H1841 H 0.25194 0.14811 0.56693 0.0
H1842 H 0.29772 0.15032 0.63517 0.0
H1843 H 0.32922 0.16117 0.6166 0.0
H1844 H 0.30501 0.13513 0.55895 0.0
C1845 C 0.23547 0.10975 0.60075 0.0
C1846 C 0.22576 0.11166 0.62033 0.0
C1847 C 0.23579 0.12222 0.63689 0.0
C1848 C 0.25545 0.13063 0.63415 0.0
C1849 C 0.26462 0.12867 0.61462 0.0
C1850 C 0.25491 0.11876 0.5981 0.0
C1851 C 0.26767 0.12011 0.57836 0.0
C1852 C 0.27377 0.09819 0.57072 0.0
C1853 C 0.25635 0.13233 0.56121 0.0
C1854 C 0.28608 0.13222 0.58643 0.0
C1855 C 0.2841 0.1367 0.60747 0.0
C1856 C 0.2994 0.14708 0.61865 0.0
C1857 C 0.3172 0.15314 0.60802 0.0
C1858 C 0.31933 0.14915 0.58638 0.0
C1859 C 0.30355 0.13863 0.57545 0.0
H1860 H 0.14538 0.98436 0.89711 0.0
H1861 H 0.16252 0.96453 0.83481 0.0
H1862 H 0.14758 0.99689 0.82012 0.0
H1863 H 0.09862 0.00689 0.88516 0.0
H1864 H 0.10103 0.02903 0.90247 0.0
H1865 H 0.11421 0.00509 0.90836 0.0
H1866 H 0.14894 0.02492 0.90988 0.0
H1867 H 0.1358 0.04904 0.90451 0.0
H1868 H 0.15672 0.04092 0.88807 0.0
H1869 H 0.12626 0.02865 0.81212 0.0
H1870 H 0.10648 0.06162 0.81175 0.0
H1871 H 0.10705 0.06287 0.87946 0.0
C1872 C 0.1465 0.98724 0.88047 0.0
C1873 C 0.15523 0.97232 0.86701 0.0
C1874 C 0.15621 0.97616 0.84529 0.0
C1875 C 0.14761 0.99433 0.83684 0.0
C1876 C 0.13858 0.00859 0.85046 0.0
C1877 C 0.13859 0.0056 0.87187 0.0
C1878 C 0.1281 0.02344 0.88307 0.0
C1879 C 0.10938 0.01564 0.89549 0.0
C1880 C 0.1433 0.03529 0.89721 0.0
C1881 C 0.12168 0.03661 0.86459 0.0
C1882 C 0.12754 0.02759 0.84589 0.0
C1883 C 0.12197 0.03609 0.82666 0.0
C1884 C 0.11059 0.05464 0.82658 0.0
C1885 C 0.10547 0.06462 0.84558 0.0
C1886 C 0.111 0.05549 0.86477 0.0
H1887 H 0.81372 0.36428 0.38799 0.0
H1888 H 0.80411 0.32666 0.44366 0.0
H1889 H 0.76856 0.33861 0.44567 0.0
H1890 H 0.7797 0.40824 0.40378 0.0
H1891 H 0.76984 0.41196 0.37773 0.0
H1892 H 0.79551 0.40233 0.38147 0.0
H1893 H 0.78694 0.36997 0.35864 0.0
H1894 H 0.76129 0.37948 0.35484 0.0
H1895 H 0.76529 0.35368 0.36538 0.0
H1896 H 0.73384 0.35121 0.44049 0.0
H1897 H 0.70065 0.36445 0.4281 0.0
H1898 H 0.73092 0.39498 0.37594 0.0
C1899 C 0.80416 0.35891 0.40075 0.0
C1900 C 0.81169 0.34448 0.41564 0.0
C1901 C 0.79867 0.33755 0.43197 0.0
C1902 C 0.77845 0.34436 0.43336 0.0
C1903 C 0.77132 0.35817 0.41831 0.0
C1904 C 0.78364 0.36549 0.40231 0.0
C1905 C 0.77135 0.37921 0.38751 0.0
C1906 C 0.77959 0.40178 0.38764 0.0
C1907 C 0.77121 0.37003 0.36528 0.0
C1908 C 0.75021 0.37792 0.3975 0.0
C1909 C 0.75076 0.3658 0.41535 0.0
C1910 C 0.73319 0.36098 0.42671 0.0
C1911 C 0.71442 0.36849 0.41951 0.0
C1912 C 0.7133 0.38081 0.4012 0.0
C1913 C 0.73147 0.38592 0.39022 0.0
H1914 H 0.8604 0.47245 0.65834 0.0
H1915 H 0.90148 0.44573 0.6124 0.0
H1916 H 0.91494 0.48097 0.60418 0.0
H1917 H 0.84941 0.52085 0.63137 0.0
H1918 H 0.85001 0.53666 0.65471 0.0
H1919 H 0.84266 0.50949 0.65623 0.0
H1920 H 0.87102 0.50313 0.68384 0.0
H1921 H 0.87842 0.53028 0.68243 0.0
H1922 H 0.89716 0.51017 0.67787 0.0
H1923 H 0.92294 0.51887 0.59993 0.0
H1924 H 0.92813 0.55711 0.60283 0.0
H1925 H 0.8846 0.55919 0.65399 0.0
C1926 C 0.87214 0.47416 0.6465 0.0
C1927 C 0.87987 0.45656 0.63583 0.0
C1928 C 0.89545 0.45914 0.62069 0.0
C1929 C 0.9031 0.47905 0.61587 0.0
C1930 C 0.89526 0.49614 0.62665 0.0
C1931 C 0.88039 0.49393 0.6419 0.0
C1932 C 0.8756 0.51481 0.65199 0.0
C1933 C 0.85308 0.5208 0.64835 0.0
C1934 C 0.88087 0.51458 0.67542 0.0
C1935 C 0.89001 0.52903 0.63993 0.0
C1936 C 0.90093 0.51796 0.62515 0.0
C1937 C 0.91464 0.52772 0.61157 0.0
C1938 C 0.91742 0.5494 0.61326 0.0
C1939 C 0.90688 0.56095 0.62871 0.0
C1940 C 0.89302 0.55062 0.64221 0.0
H1941 H 0.6489 0.52524 0.15968 0.0
H1942 H 0.60255 0.5494 0.11764 0.0
H1943 H 0.58918 0.51365 0.112 0.0
H1944 H 0.65857 0.4769 0.13301 0.0
H1945 H 0.66084 0.46149 0.15646 0.0
H1946 H 0.66723 0.48893 0.15696 0.0
H1947 H 0.64142 0.49464 0.18715 0.0
H1948 H 0.63496 0.4672 0.18674 0.0
H1949 H 0.61512 0.48649 0.18385 0.0
H1950 H 0.58235 0.47558 0.10892 0.0
H1951 H 0.57986 0.43706 0.11159 0.0
H1952 H 0.6279 0.43731 0.15847 0.0
C1953 C 0.63595 0.52288 0.14931 0.0
C1954 C 0.62675 0.53992 0.13898 0.0
C1955 C 0.6097 0.53646 0.12572 0.0
C1956 C 0.60206 0.51625 0.12237 0.0
C1957 C 0.61138 0.49973 0.13277 0.0
C1958 C 0.62771 0.50278 0.14625 0.0
C1959 C 0.63427 0.48226 0.15603 0.0
C1960 C 0.65655 0.47709 0.15026 0.0
C1961 C 0.63126 0.48268 0.17986 0.0
C1962 C 0.61931 0.46726 0.14562 0.0
C1963 C 0.60643 0.47771 0.13207 0.0
C1964 C 0.5921 0.46721 0.1197 0.0
C1965 C 0.59083 0.4454 0.12126 0.0
C1966 C 0.6035 0.43444 0.13538 0.0
C1967 C 0.61782 0.44549 0.14783 0.0
H1968 H 0.6133 0.72908 0.86967 0.0
H1969 H 0.60933 0.74058 0.93645 0.0
H1970 H 0.59726 0.77628 0.92966 0.0
H1971 H 0.63192 0.77861 0.85539 0.0
H1972 H 0.61722 0.78078 0.83162 0.0
H1973 H 0.62399 0.75538 0.84148 0.0
H1974 H 0.58569 0.74448 0.84166 0.0
H1975 H 0.57879 0.76989 0.83177 0.0
H1976 H 0.56741 0.76028 0.85558 0.0
H1977 H 0.59011 0.81148 0.9163 0.0
H1978 H 0.58575 0.84423 0.89674 0.0
H1979 H 0.59134 0.81038 0.83826 0.0
C1980 C 0.60964 0.73907 0.8828 0.0
C1981 C 0.61231 0.73211 0.90358 0.0
C1982 C 0.60739 0.74558 0.92041 0.0
C1983 C 0.60047 0.76588 0.91673 0.0
C1984 C 0.59825 0.7724 0.89613 0.0
C1985 C 0.60241 0.7594 0.8794 0.0
C1986 C 0.59932 0.77075 0.85883 0.0
C1987 C 0.6193 0.77142 0.84609 0.0
C1988 C 0.58175 0.76075 0.84622 0.0
C1989 C 0.59353 0.79232 0.8667 0.0
C1990 C 0.593 0.7928 0.8883 0.0
C1991 C 0.58996 0.81125 0.89939 0.0
C1992 C 0.58755 0.82979 0.88814 0.0
C1993 C 0.58781 0.8297 0.86605 0.0
C1994 C 0.59052 0.81069 0.85517 0.0
H1995 H 0.53536 0.34366 0.10833 0.0
H1996 H 0.53312 0.37587 0.1681 0.0
H1997 H 0.49535 0.37426 0.16718 0.0
H1998 H 0.49429 0.3691 0.08509 0.0
H1999 H 0.48437 0.34655 0.0714 0.0
H2000 H 0.51121 0.34816 0.07767 0.0
H2001 H 0.50891 0.31269 0.0971 0.0
H2002 H 0.48202 0.3109 0.09078 0.0
H2003 H 0.49028 0.30926 0.11762 0.0
H2004 H 0.45829 0.37319 0.15781 0.0
H2005 H 0.42404 0.37081 0.14166 0.0
H2006 H 0.4498 0.33781 0.08864 0.0
C2007 C 0.52696 0.35009 0.12142 0.0
C2008 C 0.53726 0.35995 0.13829 0.0
C2009 C 0.52564 0.36817 0.15505 0.0
C2010 C 0.50416 0.36734 0.15467 0.0
C2011 C 0.49453 0.35794 0.13758 0.0
C2012 C 0.50553 0.3492 0.12138 0.0
C2013 C 0.4914 0.34089 0.1044 0.0
C2014 C 0.49557 0.35184 0.08341 0.0
C2015 C 0.49327 0.31701 0.10236 0.0
C2016 C 0.47074 0.34697 0.11325 0.0
C2017 C 0.47295 0.35673 0.13245 0.0
C2018 C 0.45633 0.36524 0.143 0.0
C2019 C 0.43696 0.3639 0.13364 0.0
C2020 C 0.4343 0.35398 0.114 0.0
C2021 C 0.45137 0.3451 0.10385 0.0
H2022 H 0.89098 0.18864 0.33546 0.0
H2023 H 0.89136 0.15247 0.39285 0.0
H2024 H 0.88628 0.18473 0.41325 0.0
H2025 H 0.91674 0.23479 0.35553 0.0
H2026 H 0.901 0.25286 0.34115 0.0
H2027 H 0.90562 0.22706 0.33088 0.0
H2028 H 0.86649 0.22037 0.32844 0.0
H2029 H 0.86175 0.24616 0.33866 0.0
H2030 H 0.85084 0.22357 0.35142 0.0
H2031 H 0.88194 0.22038 0.42746 0.0
H2032 H 0.87552 0.2575 0.43493 0.0
H2033 H 0.87549 0.27106 0.36843 0.0
C2034 C 0.8901 0.18758 0.35233 0.0
C2035 C 0.89174 0.16811 0.36263 0.0
C2036 C 0.8902 0.16723 0.38467 0.0
C2037 C 0.88738 0.18547 0.39639 0.0
C2038 C 0.88583 0.20441 0.3858 0.0
C2039 C 0.88688 0.20564 0.36428 0.0
C2040 C 0.88379 0.22794 0.35685 0.0
C2041 C 0.90293 0.23614 0.34543 0.0
C2042 C 0.86457 0.2296 0.34303 0.0
C2043 C 0.88083 0.23901 0.3776 0.0
C2044 C 0.88235 0.22509 0.39405 0.0
C2045 C 0.8806 0.23144 0.41474 0.0
C2046 C 0.87701 0.25258 0.4188 0.0
C2047 C 0.87492 0.26711 0.40225 0.0
C2048 C 0.87689 0.26024 0.38136 0.0
H2049 H 0.98425 0.65291 0.61969 0.0
H2050 H 0.98023 0.60216 0.66445 0.0
H2051 H 0.01814 0.59971 0.66485 0.0
H2052 H 0.02426 0.63317 0.58981 0.0
H2053 H 0.03654 0.65809 0.58533 0.0
H2054 H 0.00937 0.65685 0.5899 0.0
H2055 H 0.01308 0.68282 0.62085 0.0
H2056 H 0.04028 0.68436 0.61622 0.0
H2057 H 0.03082 0.67713 0.64168 0.0
H2058 H 0.05661 0.60056 0.65703 0.0
H2059 H 0.09211 0.60728 0.64481 0.0
H2060 H 0.07004 0.65847 0.60657 0.0
C2061 C 0.99135 0.64148 0.62983 0.0
C2062 C 0.97936 0.62768 0.642 0.0
C2063 C 0.98918 0.61299 0.65513 0.0
C2064 C 0.01068 0.61142 0.65536 0.0
C2065 C 0.02204 0.62491 0.64267 0.0
C2066 C 0.01266 0.63994 0.63048 0.0
C2067 C 0.02812 0.65239 0.618 0.0
C2068 C 0.02434 0.64996 0.59437 0.0
C2069 C 0.02807 0.67554 0.62459 0.0
C2070 C 0.04767 0.64173 0.62462 0.0
C2071 C 0.04395 0.62586 0.63879 0.0
C2072 C 0.05971 0.61316 0.64619 0.0
C2073 C 0.07979 0.617 0.63907 0.0
C2074 C 0.08387 0.6335 0.62488 0.0
C2075 C 0.06751 0.64593 0.61765 0.0
H2076 H 0.64711 0.26244 0.5937 0.0
H2077 H 0.59696 0.29431 0.62453 0.0
H2078 H 0.58743 0.26126 0.64236 0.0
H2079 H 0.62157 0.21537 0.58367 0.0
H2080 H 0.64341 0.19895 0.58855 0.0
H2081 H 0.64715 0.22537 0.57962 0.0
H2082 H 0.67023 0.23332 0.61169 0.0
H2083 H 0.66676 0.20682 0.62063 0.0
H2084 H 0.66059 0.22839 0.63763 0.0
H2085 H 0.58158 0.22359 0.65401 0.0
H2086 H 0.5817 0.18553 0.66092 0.0
H2087 H 0.63648 0.17924 0.62302 0.0
C2088 C 0.63427 0.26258 0.60441 0.0
C2089 C 0.62273 0.28093 0.6077 0.0
C2090 C 0.60609 0.28046 0.62189 0.0
C2091 C 0.60052 0.26175 0.632 0.0
C2092 C 0.61195 0.2438 0.62795 0.0
C2093 C 0.62867 0.2442 0.61473 0.0
C2094 C 0.63823 0.22281 0.61257 0.0
C2095 C 0.63753 0.21518 0.58975 0.0
C2096 C 0.66026 0.22284 0.62115 0.0
C2097 C 0.62402 0.21011 0.62629 0.0
C2098 C 0.60892 0.22243 0.63502 0.0
C2099 C 0.5935 0.21387 0.64747 0.0
C2100 C 0.59364 0.19221 0.65122 0.0
C2101 C 0.60918 0.17938 0.64263 0.0
C2102 C 0.62453 0.18859 0.63004 0.0
H2103 H 0.07125 0.35487 0.88106 0.0
H2104 H 0.05846 0.33081 0.94314 0.0
H2105 H 0.0216 0.33721 0.93778 0.0
H2106 H 0.03464 0.39555 0.88105 0.0
H2107 H 0.02712 0.39225 0.85413 0.0
H2108 H 0.05254 0.38511 0.86235 0.0
H2109 H 0.04698 0.34764 0.84787 0.0
H2110 H 0.02158 0.35471 0.83944 0.0
H2111 H 0.02513 0.33255 0.85644 0.0
H2112 H 0.98684 0.3489 0.92711 0.0
H2113 H 0.95535 0.36175 0.91027 0.0
H2114 H 0.98976 0.37624 0.85405 0.0
C2115 C 0.06064 0.35077 0.89342 0.0
C2116 C 0.06769 0.34241 0.91256 0.0
C2117 C 0.05338 0.33717 0.92835 0.0
C2118 C 0.03243 0.34081 0.92548 0.0
C2119 C 0.02599 0.34939 0.9066 0.0
C2120 C 0.03957 0.35399 0.89069 0.0
C2121 C 0.0285 0.36302 0.8719 0.0
C2122 C 0.03616 0.38531 0.86709 0.0
C2123 C 0.03068 0.34862 0.85278 0.0
C2124 C 0.00665 0.36315 0.87995 0.0
C2125 C 0.00564 0.35535 0.90006 0.0
C2126 C 0.98738 0.3548 0.91127 0.0
C2127 C 0.96961 0.36226 0.90162 0.0
C2128 C 0.97015 0.36993 0.88087 0.0
C2129 C 0.98891 0.37029 0.86987 0.0
H2130 H 0.85456 0.73577 0.08998 0.0
H2131 H 0.90658 0.70136 0.11404 0.0
H2132 H 0.91759 0.73273 0.13407 0.0
H2133 H 0.87948 0.78316 0.08204 0.0
H2134 H 0.8582 0.7992 0.08991 0.0
H2135 H 0.85359 0.77357 0.07921 0.0
H2136 H 0.83296 0.76314 0.11227 0.0
H2137 H 0.83728 0.78887 0.12298 0.0
H2138 H 0.84457 0.76605 0.13769 0.0
H2139 H 0.92456 0.76968 0.14848 0.0
H2140 H 0.92496 0.80722 0.15836 0.0
H2141 H 0.86771 0.81587 0.12492 0.0
C2142 C 0.86811 0.73469 0.09971 0.0
C2143 C 0.87975 0.7162 0.10045 0.0
C2144 C 0.89735 0.71538 0.11341 0.0
C2145 C 0.90376 0.73313 0.12474 0.0
C2146 C 0.8922 0.75138 0.12313 0.0
C2147 C 0.87454 0.75207 0.1112 0.0
C2148 C 0.86501 0.77352 0.11148 0.0
C2149 C 0.86403 0.78291 0.08935 0.0
C2150 C 0.8437 0.77285 0.12172 0.0
C2151 C 0.8803 0.78504 0.12501 0.0
C2152 C 0.89592 0.77214 0.13165 0.0
C2153 C 0.91224 0.77982 0.14359 0.0
C2154 C 0.9124 0.80117 0.14903 0.0
C2155 C 0.8963 0.8145 0.14256 0.0
C2156 C 0.88015 0.80615 0.13038 0.0
H2157 H 0.44512 0.65088 0.41764 0.0
H2158 H 0.41328 0.65066 0.35804 0.0
H2159 H 0.4461 0.64525 0.33981 0.0
H2160 H 0.49144 0.67745 0.39985 0.0
H2161 H 0.50821 0.66184 0.41582 0.0
H2162 H 0.48233 0.66674 0.42421 0.0
H2163 H 0.47581 0.62683 0.42725 0.0
H2164 H 0.50163 0.6218 0.41877 0.0
H2165 H 0.48031 0.61027 0.40491 0.0
H2166 H 0.48188 0.6393 0.32804 0.0
H2167 H 0.51873 0.63274 0.32328 0.0
H2168 H 0.52772 0.63567 0.39049 0.0
C2169 C 0.44512 0.64991 0.40074 0.0
C2170 C 0.42668 0.65128 0.38922 0.0
C2171 C 0.42722 0.64968 0.36716 0.0
C2172 C 0.44579 0.64662 0.35666 0.0
C2173 C 0.46365 0.64509 0.36847 0.0
C2174 C 0.46353 0.64665 0.39 0.0
C2175 C 0.48487 0.64376 0.39893 0.0
C2176 C 0.49214 0.66363 0.41038 0.0
C2177 C 0.4857 0.62452 0.41331 0.0
C2178 C 0.49696 0.64023 0.37902 0.0
C2179 C 0.48439 0.6412 0.36166 0.0
C2180 C 0.4919 0.63851 0.3415 0.0
C2181 C 0.51287 0.63479 0.33898 0.0
C2182 C 0.52609 0.63364 0.35651 0.0
C2183 C 0.51798 0.63636 0.3768 0.0
H2184 H 0.87051 0.60513 0.81034 0.0
H2185 H 0.80791 0.58966 0.79302 0.0
H2186 H 0.81788 0.58949 0.75576 0.0
H2187 H 0.88112 0.6395 0.76869 0.0
H2188 H 0.90721 0.63109 0.76511 0.0
H2189 H 0.89535 0.629 0.79041 0.0
H2190 H 0.90348 0.58937 0.79133 0.0
H2191 H 0.91541 0.59134 0.76601 0.0
H2192 H 0.89491 0.57279 0.77021 0.0
H2193 H 0.83398 0.59398 0.72049 0.0
H2194 H 0.85556 0.60091 0.68952 0.0
H2195 H 0.90812 0.61145 0.72983 0.0
C2196 C 0.85894 0.60155 0.79871 0.0
C2197 C 0.83842 0.59748 0.8045 0.0
C2198 C 0.82372 0.59279 0.78888 0.0
C2199 C 0.82923 0.59266 0.76771 0.0
C2200 C 0.84956 0.59692 0.7625 0.0
C2201 C 0.86424 0.60105 0.77755 0.0
C2202 C 0.88495 0.60543 0.76778 0.0
C2203 C 0.89259 0.62757 0.77333 0.0
C2204 C 0.90061 0.58873 0.77421 0.0
C2205 C 0.87952 0.60364 0.74484 0.0
C2206 C 0.85902 0.59873 0.74214 0.0
C2207 C 0.85011 0.59752 0.72239 0.0
C2208 C 0.86245 0.60156 0.70492 0.0
C2209 C 0.88348 0.60653 0.70735 0.0
C2210 C 0.89215 0.60732 0.72755 0.0
H2211 H 0.6194 0.6296 0.07997 0.0
H2212 H 0.67714 0.59748 0.07045 0.0
H2213 H 0.67575 0.60641 0.03282 0.0
H2214 H 0.5957 0.61481 0.03087 0.0
H2215 H 0.58335 0.63979 0.02793 0.0
H2216 H 0.58847 0.62964 0.05366 0.0
H2217 H 0.60856 0.66352 0.06304 0.0
H2218 H 0.60343 0.67379 0.03742 0.0
H2219 H 0.62948 0.67185 0.04659 0.0
H2220 H 0.66824 0.62042 0.99607 0.0
H2221 H 0.65631 0.63955 0.96467 0.0
H2222 H 0.60392 0.6621 0.99966 0.0
C2223 C 0.63175 0.62425 0.07006 0.0
C2224 C 0.64836 0.61278 0.07822 0.0
C2225 C 0.6642 0.60624 0.06457 0.0
C2226 C 0.66352 0.61118 0.04317 0.0
C2227 C 0.64687 0.62257 0.03571 0.0
C2228 C 0.63132 0.62901 0.04884 0.0
C2229 C 0.61555 0.64186 0.03743 0.0
C2230 C 0.59453 0.63086 0.03748 0.0
C2231 C 0.6142 0.66407 0.04667 0.0
C2232 C 0.62481 0.64208 0.01584 0.0
C2233 C 0.64273 0.63069 0.01496 0.0
C2234 C 0.65416 0.62927 0.99659 0.0
C2235 C 0.64725 0.64012 0.97883 0.0
C2236 C 0.62923 0.65236 0.97975 0.0
C2237 C 0.6178 0.65295 0.99844 0.0
H2238 H 0.59641 0.37614 0.23398 0.0
H2239 H 0.65001 0.40092 0.20237 0.0
H2240 H 0.66539 0.41025 0.23659 0.0
H2241 H 0.59477 0.41321 0.2769 0.0
H2242 H 0.58749 0.39369 0.29584 0.0
H2243 H 0.58015 0.39056 0.26886 0.0
H2244 H 0.59762 0.35425 0.26794 0.0
H2245 H 0.60498 0.35725 0.2949 0.0
H2246 H 0.62418 0.35208 0.27535 0.0
H2247 H 0.6746 0.41719 0.27468 0.0
H2248 H 0.67852 0.41759 0.31323 0.0
H2249 H 0.62014 0.38544 0.31945 0.0
C2250 C 0.61128 0.38375 0.23428 0.0
C2251 C 0.62197 0.38805 0.21561 0.0
C2252 C 0.64159 0.39757 0.21657 0.0
C2253 C 0.65038 0.40299 0.2359 0.0
C2254 C 0.63947 0.39845 0.2541 0.0
C2255 C 0.62046 0.38878 0.25343 0.0
C2256 C 0.61253 0.38422 0.27518 0.0
C2257 C 0.59255 0.39613 0.27944 0.0
C2258 C 0.60967 0.36054 0.27853 0.0
C2259 C 0.63004 0.39278 0.28823 0.0
C2260 C 0.64528 0.40128 0.27584 0.0
C2261 C 0.66279 0.41047 0.28451 0.0
C2262 C 0.66487 0.41069 0.30639 0.0
C2263 C 0.64973 0.40139 0.31926 0.0
C2264 C 0.63207 0.39247 0.30997 0.0
H2265 H 0.87966 0.3601 0.58331 0.0
H2266 H 0.82732 0.40084 0.57437 0.0
H2267 H 0.82751 0.3926 0.53659 0.0
H2268 H 0.90564 0.37289 0.5358 0.0
H2269 H 0.91446 0.34656 0.53151 0.0
H2270 H 0.91017 0.35583 0.55772 0.0
H2271 H 0.8853 0.3248 0.56461 0.0
H2272 H 0.88965 0.31534 0.5385 0.0
H2273 H 0.86392 0.32052 0.54722 0.0
H2274 H 0.83391 0.37984 0.49939 0.0
H2275 H 0.84443 0.36185 0.46686 0.0
H2276 H 0.89229 0.32978 0.50122 0.0
C2277 C 0.86819 0.36734 0.5735 0.0
C2278 C 0.85352 0.38118 0.58185 0.0
C2279 C 0.83873 0.39017 0.56836 0.0
C2280 C 0.83876 0.38566 0.54686 0.0
C2281 C 0.85364 0.37212 0.53916 0.0
C2282 C 0.86796 0.363 0.55214 0.0
C2283 C 0.88209 0.34866 0.54025 0.0
C2284 C 0.90441 0.35646 0.54139 0.0
C2285 C 0.88011 0.32599 0.54811 0.0
C2286 C 0.87344 0.35101 0.51849 0.0
C2287 C 0.85715 0.36471 0.51805 0.0
C2288 C 0.84667 0.3691 0.49957 0.0
C2289 C 0.85282 0.3589 0.48116 0.0
C2290 C 0.86918 0.3444 0.48149 0.0
C2291 C 0.8797 0.34072 0.50041 0.0
H2292 H 0.8611 0.40836 0.79639 0.0
H2293 H 0.91803 0.37433 0.78901 0.0
H2294 H 0.91334 0.37482 0.75062 0.0
H2295 H 0.83333 0.38245 0.75742 0.0
H2296 H 0.8198 0.40529 0.74854 0.0
H2297 H 0.82851 0.40378 0.77518 0.0
H2298 H 0.84853 0.43864 0.77073 0.0
H2299 H 0.83973 0.44036 0.74409 0.0
H2300 H 0.86678 0.44126 0.74976 0.0
H2301 H 0.90059 0.37622 0.71331 0.0
H2302 H 0.88206 0.38037 0.6799 0.0
H2303 H 0.83399 0.41428 0.71197 0.0
C2304 C 0.87274 0.40119 0.78673 0.0
C2305 C 0.88991 0.39122 0.79571 0.0
C2306 C 0.90481 0.38214 0.78248 0.0
C2307 C 0.90224 0.38229 0.76067 0.0
C2308 C 0.88486 0.39184 0.7524 0.0
C2309 C 0.87051 0.40136 0.76503 0.0
C2310 C 0.85288 0.41004 0.7524 0.0
C2311 C 0.83243 0.39977 0.75876 0.0
C2312 C 0.85193 0.434 0.75436 0.0
C2313 C 0.85925 0.40347 0.73066 0.0
C2314 C 0.87776 0.39303 0.73096 0.0
C2315 C 0.88624 0.38461 0.71286 0.0
C2316 C 0.87556 0.38699 0.69398 0.0
C2317 C 0.85665 0.39775 0.69334 0.0
C2318 C 0.8485 0.40616 0.71194 0.0
H2319 H 0.84872 0.59666 0.92851 0.0
H2320 H 0.87972 0.6491 0.89904 0.0
H2321 H 0.88831 0.66356 0.93379 0.0
H2322 H 0.82805 0.62441 0.97285 0.0
H2323 H 0.83269 0.60351 0.9911 0.0
H2324 H 0.82814 0.59764 0.96394 0.0
H2325 H 0.86246 0.57754 0.96226 0.0
H2326 H 0.86715 0.58338 0.98941 0.0
H2327 H 0.88586 0.59058 0.96995 0.0
H2328 H 0.89218 0.6731 0.97116 0.0
H2329 H 0.894 0.67584 0.00956 0.0
H2330 H 0.86354 0.61564 0.01547 0.0
C2331 C 0.85719 0.61125 0.92946 0.0
C2332 C 0.86344 0.62192 0.91119 0.0
C2333 C 0.87482 0.64075 0.91291 0.0
C2334 C 0.87971 0.64909 0.93254 0.0
C2335 C 0.87344 0.63817 0.95026 0.0
C2336 C 0.86267 0.61954 0.94898 0.0
C2337 C 0.85864 0.61056 0.97055 0.0
C2338 C 0.8355 0.60894 0.97486 0.0
C2339 C 0.86916 0.58925 0.97319 0.0
C2340 C 0.86868 0.62717 0.98412 0.0
C2341 C 0.87686 0.64306 0.97202 0.0
C2342 C 0.88607 0.66067 0.98082 0.0
C2343 C 0.88697 0.6621 0.00261 0.0
C2344 C 0.8791 0.64585 0.01533 0.0
C2345 C 0.86996 0.62808 0.006 0.0
H2346 H 0.65084 0.60533 0.29431 0.0
H2347 H 0.59135 0.63351 0.28328 0.0
H2348 H 0.59674 0.63074 0.24539 0.0
H2349 H 0.67716 0.6297 0.25124 0.0
H2350 H 0.69203 0.60693 0.24476 0.0
H2351 H 0.68375 0.6111 0.27128 0.0
H2352 H 0.66624 0.57462 0.27141 0.0
H2353 H 0.67447 0.57033 0.24489 0.0
H2354 H 0.64768 0.56827 0.25146 0.0
H2355 H 0.60854 0.62624 0.20911 0.0
H2356 H 0.62563 0.61863 0.17578 0.0
H2357 H 0.67707 0.5918 0.2093 0.0
C2358 C 0.639 0.61095 0.2839 0.0
C2359 C 0.62069 0.61968 0.29179 0.0
C2360 C 0.60547 0.62668 0.27766 0.0
C2361 C 0.60839 0.62523 0.25607 0.0
C2362 C 0.62653 0.61656 0.24881 0.0
C2363 C 0.64155 0.60939 0.26219 0.0
C2364 C 0.65946 0.60045 0.25005 0.0
C2365 C 0.67927 0.61279 0.2546 0.0
C2366 C 0.66211 0.57703 0.25474 0.0
C2367 C 0.65216 0.60393 0.22781 0.0
C2368 C 0.63316 0.61335 0.22757 0.0
C2369 C 0.62336 0.61872 0.20904 0.0
C2370 C 0.63322 0.61434 0.19018 0.0
C2371 C 0.65261 0.60449 0.18993 0.0
C2372 C 0.66217 0.59917 0.20902 0.0
H2373 H 0.63305 0.39317 0.53518 0.0
H2374 H 0.61574 0.32928 0.51998 0.0
H2375 H 0.62066 0.33667 0.48255 0.0
H2376 H 0.61016 0.41811 0.48988 0.0
H2377 H 0.63091 0.4365 0.48635 0.0
H2378 H 0.6251 0.42666 0.51206 0.0
H2379 H 0.66254 0.41397 0.51606 0.0
H2380 H 0.66845 0.42376 0.49036 0.0
H2381 H 0.67319 0.39673 0.49662 0.0
H2382 H 0.6268 0.35071 0.44695 0.0
H2383 H 0.63618 0.37012 0.41506 0.0
H2384 H 0.65188 0.42443 0.45273 0.0
C2385 C 0.63014 0.38085 0.52391 0.0
C2386 C 0.62386 0.36069 0.53042 0.0
C2387 C 0.62055 0.34483 0.5153 0.0
C2388 C 0.62324 0.34888 0.494 0.0
C2389 C 0.62954 0.36882 0.48803 0.0
C2390 C 0.63316 0.38453 0.50247 0.0
C2391 C 0.64078 0.40426 0.49175 0.0
C2392 C 0.62584 0.42245 0.49522 0.0
C2393 C 0.66253 0.41001 0.49914 0.0
C2394 C 0.64074 0.39716 0.46909 0.0
C2395 C 0.634 0.37671 0.46736 0.0
C2396 C 0.63222 0.36671 0.44808 0.0
C2397 C 0.63756 0.37787 0.43005 0.0
C2398 C 0.64487 0.39872 0.43141 0.0
C2399 C 0.64647 0.40845 0.45123 0.0
H2400 H 0.73946 0.90068 0.63173 0.0
H2401 H 0.70348 0.84373 0.62462 0.0
H2402 H 0.73476 0.82413 0.61635 0.0
H2403 H 0.77587 0.8902 0.59046 0.0
H2404 H 0.79755 0.90067 0.60457 0.0
H2405 H 0.77225 0.91066 0.6095 0.0
H2406 H 0.77631 0.9022 0.64889 0.0
H2407 H 0.80162 0.8922 0.64406 0.0
H2408 H 0.78271 0.87596 0.65676 0.0
H2409 H 0.76929 0.81068 0.60802 0.0
H2410 H 0.80595 0.80366 0.60203 0.0
H2411 H 0.82042 0.86852 0.61622 0.0
C2412 C 0.73823 0.88411 0.62838 0.0
C2413 C 0.71905 0.87373 0.62879 0.0
C2414 C 0.71802 0.852 0.62449 0.0
C2415 C 0.73569 0.84071 0.6197 0.0
C2416 C 0.75435 0.85131 0.61947 0.0
C2417 C 0.75585 0.87246 0.62384 0.0
C2418 C 0.778 0.87976 0.62304 0.0
C2419 C 0.78109 0.8963 0.60587 0.0
C2420 C 0.78507 0.88801 0.64447 0.0
C2421 C 0.78858 0.85943 0.6175 0.0
C2422 C 0.77458 0.84329 0.61534 0.0
C2423 C 0.78046 0.82313 0.60978 0.0
C2424 C 0.8013 0.81931 0.60638 0.0
C2425 C 0.81599 0.8355 0.60879 0.0
C2426 C 0.80953 0.8558 0.61447 0.0
H2427 H 0.22941 0.60217 0.40403 0.0
H2428 H 0.20489 0.64821 0.361 0.0
H2429 H 0.23887 0.66472 0.35819 0.0
H2430 H 0.26429 0.63903 0.43096 0.0
H2431 H 0.28418 0.61986 0.43428 0.0
H2432 H 0.2577 0.61173 0.43352 0.0
H2433 H 0.26589 0.5862 0.40322 0.0
H2434 H 0.29235 0.59432 0.40385 0.0
H2435 H 0.27795 0.59609 0.37987 0.0
H2436 H 0.27561 0.67423 0.35707 0.0
H2437 H 0.31308 0.67865 0.36084 0.0
H2438 H 0.3141 0.62892 0.40688 0.0
C2439 C 0.23122 0.61584 0.3942 0.0
C2440 C 0.21451 0.62388 0.3827 0.0
C2441 C 0.21742 0.64182 0.37004 0.0
C2442 C 0.23669 0.65131 0.36827 0.0
C2443 C 0.25288 0.64293 0.37957 0.0
C2444 C 0.25038 0.62585 0.39258 0.0
C2445 C 0.2705 0.62019 0.40303 0.0
C2446 C 0.26908 0.62287 0.42687 0.0
C2447 C 0.27705 0.59788 0.39713 0.0
C2448 C 0.28467 0.63647 0.39344 0.0
C2449 C 0.27415 0.64928 0.37982 0.0
C2450 C 0.28401 0.66457 0.36796 0.0
C2451 C 0.30525 0.66691 0.37012 0.0
C2452 C 0.31629 0.6543 0.38429 0.0
C2453 C 0.30586 0.639 0.39623 0.0
H2454 H 0.58477 0.04749 0.66148 0.0
H2455 H 0.6373 0.07992 0.63517 0.0
H2456 H 0.65529 0.0461 0.63137 0.0
H2457 H 0.61295 0.00847 0.69042 0.0
H2458 H 0.59452 0.98806 0.68501 0.0
H2459 H 0.58637 0.0149 0.68642 0.0
H2460 H 0.57071 0.01193 0.64926 0.0
H2461 H 0.57872 0.98508 0.64778 0.0
H2462 H 0.58659 0.00338 0.62788 0.0
H2463 H 0.66718 0.008 0.63003 0.0
H2464 H 0.67094 0.96942 0.6295 0.0
H2465 H 0.61014 0.96291 0.65627 0.0
C2466 C 0.60011 0.04754 0.65503 0.0
C2467 C 0.60967 0.06633 0.64867 0.0
C2468 C 0.62969 0.06568 0.64014 0.0
C2469 C 0.64004 0.04656 0.638 0.0
C2470 C 0.63013 0.02827 0.64443 0.0
C2471 C 0.61056 0.02867 0.6527 0.0
C2472 C 0.60288 0.0069 0.65772 0.0
C2473 C 0.59895 0.00444 0.68129 0.0
C2474 C 0.58359 0.00151 0.64489 0.0
C2475 C 0.62106 0.99411 0.65079 0.0
C2476 C 0.63676 0.00663 0.64336 0.0
C2477 C 0.65498 0.99807 0.63586 0.0
C2478 C 0.65702 0.97616 0.63568 0.0
C2479 C 0.64082 0.96311 0.64274 0.0
C2480 C 0.6228 0.97237 0.65063 0.0
H2481 H 0.18991 0.34209 0.89547 0.0
H2482 H 0.15871 0.40051 0.88334 0.0
H2483 H 0.19222 0.41886 0.88129 0.0
H2484 H 0.23167 0.36224 0.92605 0.0
H2485 H 0.25063 0.34536 0.91456 0.0
H2486 H 0.22427 0.33695 0.91596 0.0
H2487 H 0.22375 0.3308 0.87593 0.0
H2488 H 0.25017 0.33896 0.87444 0.0
H2489 H 0.23112 0.35179 0.85865 0.0
H2490 H 0.22888 0.431 0.88278 0.0
H2491 H 0.26646 0.43545 0.88132 0.0
H2492 H 0.2741 0.36847 0.8885 0.0
C2493 C 0.19023 0.35874 0.89233 0.0
C2494 C 0.17189 0.37003 0.88968 0.0
C2495 C 0.17271 0.3917 0.88534 0.0
C2496 C 0.19161 0.40222 0.88431 0.0
C2497 C 0.20948 0.39069 0.88721 0.0
C2498 C 0.20899 0.36935 0.89062 0.0
C2499 C 0.23045 0.36045 0.89183 0.0
C2500 C 0.23449 0.35067 0.91339 0.0
C2501 C 0.23408 0.34456 0.87415 0.0
C2502 C 0.2431 0.38015 0.88872 0.0
C2503 C 0.23067 0.39747 0.88655 0.0
C2504 C 0.23876 0.41753 0.88423 0.0
C2505 C 0.26011 0.41992 0.88358 0.0
C2506 C 0.27311 0.40229 0.88475 0.0
C2507 C 0.26448 0.38218 0.88749 0.0
H2508 H 0.38553 0.42786 0.62143 0.0
H2509 H 0.39251 0.43426 0.68848 0.0
H2510 H 0.3687 0.46431 0.68827 0.0
H2511 H 0.38792 0.4819 0.61139 0.0
H2512 H 0.37012 0.48103 0.58983 0.0
H2513 H 0.38511 0.45837 0.59605 0.0
H2514 H 0.35166 0.43644 0.59921 0.0
H2515 H 0.33657 0.45926 0.59343 0.0
H2516 H 0.33193 0.44467 0.61707 0.0
H2517 H 0.34531 0.49454 0.68042 0.0
H2518 H 0.32995 0.52638 0.66501 0.0
H2519 H 0.341 0.50193 0.60295 0.0
C2520 C 0.38184 0.43554 0.63604 0.0
C2521 C 0.39065 0.42887 0.65496 0.0
C2522 C 0.38592 0.43937 0.67381 0.0
C2523 C 0.37223 0.45621 0.67387 0.0
C2524 C 0.36372 0.46248 0.65489 0.0
C2525 C 0.36871 0.45274 0.63627 0.0
C2526 C 0.35972 0.46413 0.61774 0.0
C2527 C 0.37673 0.47182 0.60289 0.0
C2528 C 0.34403 0.45029 0.60618 0.0
C2529 C 0.34933 0.48212 0.62877 0.0
C2530 C 0.35117 0.48051 0.65024 0.0
C2531 C 0.34356 0.49585 0.66365 0.0
C2532 C 0.33469 0.51375 0.65482 0.0
C2533 C 0.33403 0.51621 0.63289 0.0
C2534 C 0.34093 0.50002 0.61977 0.0
H2535 H 0.77332 0.10285 0.12391 0.0
H2536 H 0.80111 0.14349 0.07744 0.0
H2537 H 0.76723 0.15772 0.06876 0.0
H2538 H 0.7245 0.09311 0.09514 0.0
H2539 H 0.70916 0.09392 0.11853 0.0
H2540 H 0.73529 0.085 0.11976 0.0
H2541 H 0.74322 0.11279 0.14817 0.0
H2542 H 0.71719 0.12189 0.14691 0.0
H2543 H 0.73811 0.13996 0.14286 0.0
H2544 H 0.73182 0.16961 0.06672 0.0
H2545 H 0.69563 0.17865 0.07091 0.0
H2546 H 0.68912 0.13112 0.119 0.0
C2547 C 0.77211 0.1144 0.1116 0.0
C2548 C 0.78981 0.12205 0.10127 0.0
C2549 C 0.78776 0.13748 0.08558 0.0
C2550 C 0.76858 0.14561 0.08047 0.0
C2551 C 0.75152 0.13821 0.09124 0.0
C2552 C 0.75294 0.12293 0.10643 0.0
C2553 C 0.73213 0.11892 0.11642 0.0
C2554 C 0.72484 0.0964 0.11221 0.0
C2555 C 0.73271 0.12368 0.13999 0.0
C2556 C 0.71902 0.13466 0.10475 0.0
C2557 C 0.73064 0.1454 0.0902 0.0
C2558 C 0.72248 0.16121 0.07792 0.0
C2559 C 0.70187 0.16628 0.08052 0.0
C2560 C 0.6895 0.15564 0.09533 0.0
C2561 C 0.69818 0.13949 0.10754 0.0
H2562 H 0.61623 0.03916 0.85105 0.0
H2563 H 0.67609 0.03356 0.88025 0.0
H2564 H 0.67233 0.99515 0.88016 0.0
H2565 H 0.59179 0.99938 0.87903 0.0
H2566 H 0.57664 0.98975 0.85746 0.0
H2567 H 0.58471 0.01671 0.85804 0.0
H2568 H 0.6018 0.01237 0.82176 0.0
H2569 H 0.59371 0.98537 0.82103 0.0
H2570 H 0.62041 0.992 0.81788 0.0
H2571 H 0.66064 0.95807 0.88055 0.0
H2572 H 0.64248 0.92415 0.87969 0.0
H2573 H 0.59079 0.95329 0.84877 0.0
C2574 C 0.62868 0.02987 0.85721 0.0
C2575 C 0.64644 0.0394 0.86573 0.0
C2576 C 0.66237 0.02665 0.87359 0.0
C2577 C 0.66038 0.00481 0.8736 0.0
C2578 C 0.64253 0.99597 0.86542 0.0
C2579 C 0.62705 0.00805 0.85714 0.0
C2580 C 0.6091 0.99463 0.85004 0.0
C2581 C 0.5894 0.00047 0.86186 0.0
C2582 C 0.60609 0.99619 0.82626 0.0
C2583 C 0.61664 0.97317 0.85628 0.0
C2584 C 0.636 0.97434 0.86505 0.0
C2585 C 0.64564 0.95688 0.8734 0.0
C2586 C 0.63516 0.93774 0.87294 0.0
C2587 C 0.61531 0.93615 0.86406 0.0
C2588 C 0.60609 0.95404 0.85532 0.0
H2589 H 0.87138 0.05476 0.34419 0.0
H2590 H 0.92783 0.05194 0.37969 0.0
H2591 H 0.92385 0.01352 0.38299 0.0
H2592 H 0.84455 0.01984 0.37561 0.0
H2593 H 0.83 0.00771 0.35488 0.0
H2594 H 0.839 0.0342 0.35205 0.0
H2595 H 0.85748 0.02425 0.31765 0.0
H2596 H 0.84842 0.99769 0.32031 0.0
H2597 H 0.87546 0.00294 0.3176 0.0
H2598 H 0.91246 0.97643 0.38486 0.0
H2599 H 0.89344 0.94314 0.38742 0.0
H2600 H 0.84293 0.97022 0.35269 0.0
C2601 C 0.88313 0.04584 0.35211 0.0
C2602 C 0.90012 0.05593 0.36135 0.0
C2603 C 0.91491 0.04419 0.37229 0.0
C2604 C 0.91278 0.02246 0.37417 0.0
C2605 C 0.89564 0.01289 0.36521 0.0
C2606 C 0.881 0.02418 0.35448 0.0
C2607 C 0.86289 0.01047 0.34847 0.0
C2608 C 0.84294 0.01854 0.35835 0.0
C2609 C 0.86096 0.00873 0.32459 0.0
C2610 C 0.86939 0.98987 0.35803 0.0
C2611 C 0.88853 0.99154 0.36718 0.0
C2612 C 0.89754 0.97486 0.37761 0.0
C2613 C 0.88659 0.95602 0.37899 0.0
C2614 C 0.8667 0.95413 0.37028 0.0
C2615 C 0.85813 0.97122 0.35945 0.0
H2616 H 0.39155 0.2767 0.13333 0.0
H2617 H 0.38634 0.26459 0.06674 0.0
H2618 H 0.39218 0.22713 0.07291 0.0
H2619 H 0.4324 0.23948 0.14245 0.0
H2620 H 0.42294 0.23142 0.16766 0.0
H2621 H 0.41795 0.25747 0.15829 0.0
H2622 H 0.37897 0.2514 0.1633 0.0
H2623 H 0.38386 0.22535 0.17271 0.0
H2624 H 0.36678 0.22924 0.15091 0.0
H2625 H 0.39735 0.19101 0.08592 0.0
H2626 H 0.4033 0.15818 0.10515 0.0
H2627 H 0.40722 0.19306 0.16328 0.0
C2628 C 0.39159 0.26611 0.12011 0.0
C2629 C 0.38843 0.27357 0.09955 0.0
C2630 C 0.38878 0.25928 0.08261 0.0
C2631 C 0.39205 0.23793 0.08594 0.0
C2632 C 0.39519 0.23105 0.1063 0.0
C2633 C 0.39516 0.24465 0.12312 0.0
C2634 C 0.39937 0.23301 0.14334 0.0
C2635 C 0.41936 0.24081 0.15353 0.0
C2636 C 0.38116 0.23486 0.15845 0.0
C2637 C 0.40156 0.21081 0.1352 0.0
C2638 C 0.39895 0.21009 0.11379 0.0
C2639 C 0.39959 0.19135 0.10267 0.0
C2640 C 0.40294 0.17278 0.11374 0.0
C2641 C 0.40586 0.17309 0.13565 0.0
C2642 C 0.40528 0.1924 0.14648 0.0
H2643 H 0.54293 0.6872 0.9129 0.0
H2644 H 0.5832 0.64358 0.88126 0.0
H2645 H 0.55337 0.62973 0.86132 0.0
H2646 H 0.50089 0.65299 0.91896 0.0
H2647 H 0.48214 0.67318 0.91488 0.0
H2648 H 0.50682 0.67975 0.92565 0.0
H2649 H 0.51252 0.70689 0.89605 0.0
H2650 H 0.48785 0.70035 0.88515 0.0
H2651 H 0.51051 0.69865 0.86917 0.0
H2652 H 0.51784 0.6206 0.84522 0.0
H2653 H 0.48104 0.61643 0.83603 0.0
H2654 H 0.46593 0.66636 0.87926 0.0
C2655 C 0.5457 0.67477 0.90177 0.0
C2656 C 0.5655 0.66649 0.8987 0.0
C2657 C 0.56818 0.65019 0.88392 0.0
C2658 C 0.55133 0.64227 0.8725 0.0
C2659 C 0.532 0.65088 0.87604 0.0
C2660 C 0.52925 0.66678 0.8904 0.0
C2661 C 0.50712 0.67324 0.89198 0.0
C2662 C 0.49876 0.66956 0.91418 0.0
C2663 C 0.50435 0.69613 0.88518 0.0
C2664 C 0.49761 0.65834 0.87646 0.0
C2665 C 0.51206 0.64562 0.86719 0.0
C2666 C 0.50646 0.63053 0.8524 0.0
C2667 C 0.48555 0.6283 0.84724 0.0
C2668 C 0.47059 0.64096 0.85704 0.0
C2669 C 0.4769 0.65627 0.87161 0.0
H2670 H 0.11547 0.73983 0.59928 0.0
H2671 H 0.10702 0.70657 0.65768 0.0
H2672 H 0.09366 0.7388 0.67405 0.0
H2673 H 0.13474 0.78597 0.62249 0.0
H2674 H 0.12299 0.80354 0.60407 0.0
H2675 H 0.12935 0.77733 0.59621 0.0
H2676 H 0.09168 0.77086 0.58494 0.0
H2677 H 0.08519 0.79708 0.59281 0.0
H2678 H 0.07133 0.77509 0.60348 0.0
H2679 H 0.08229 0.77466 0.68428 0.0
H2680 H 0.07712 0.81259 0.68898 0.0
H2681 H 0.09552 0.82327 0.62469 0.0
C2682 C 0.11043 0.73931 0.6154 0.0
C2683 C 0.11198 0.72077 0.62722 0.0
C2684 C 0.10584 0.72068 0.64841 0.0
C2685 C 0.09814 0.73885 0.65777 0.0
C2686 C 0.09698 0.75698 0.64577 0.0
C2687 C 0.10318 0.75744 0.62511 0.0
C2688 C 0.10225 0.77942 0.61632 0.0
C2689 C 0.1236 0.78701 0.60937 0.0
C2690 C 0.08668 0.78068 0.59832 0.0
C2691 C 0.09485 0.79128 0.63534 0.0
C2692 C 0.09148 0.77796 0.65201 0.0
C2693 C 0.08483 0.78526 0.67134 0.0
C2694 C 0.0819 0.80681 0.67384 0.0
C2695 C 0.086 0.82082 0.65722 0.0
C2696 C 0.09231 0.8129 0.63766 0.0
H2697 H 0.02973 0.33761 0.3857 0.0
H2698 H 0.01638 0.39291 0.34905 0.0
H2699 H 0.9791 0.38695 0.35485 0.0
H2700 H 0.98703 0.30653 0.36716 0.0
H2701 H 0.98338 0.29411 0.39216 0.0
H2702 H 0.00855 0.30283 0.38444 0.0
H2703 H 0.01141 0.3251 0.41825 0.0
H2704 H 0.9863 0.31643 0.42609 0.0
H2705 H 0.99183 0.34402 0.42406 0.0
H2706 H 0.94267 0.37512 0.36718 0.0
H2707 H 0.91208 0.3585 0.38344 0.0
H2708 H 0.95123 0.31073 0.41011 0.0
C2709 C 0.01904 0.34856 0.37887 0.0
C2710 C 0.02597 0.36588 0.36714 0.0
C2711 C 0.01139 0.37956 0.35816 0.0
C2712 C 0.99022 0.37628 0.36139 0.0
C2713 C 0.98396 0.35906 0.37329 0.0
C2714 C 0.99809 0.34537 0.38167 0.0
C2715 C 0.9879 0.32806 0.3939 0.0
C2716 C 0.99196 0.30662 0.3838 0.0
C2717 C 0.99476 0.32845 0.41693 0.0
C2718 C 0.96575 0.33428 0.39161 0.0
C2719 C 0.96356 0.35214 0.37968 0.0
C2720 C 0.94429 0.36102 0.37636 0.0
C2721 C 0.92698 0.35147 0.38564 0.0
C2722 C 0.92912 0.33325 0.39808 0.0
C2723 C 0.94883 0.32458 0.4007 0.0
H2724 H 0.40656 0.8184 0.3564 0.0
H2725 H 0.35704 0.83815 0.39694 0.0
H2726 H 0.35435 0.80218 0.41106 0.0
H2727 H 0.38425 0.7702 0.34264 0.0
H2728 H 0.40815 0.75624 0.34147 0.0
H2729 H 0.4077 0.78393 0.33655 0.0
H2730 H 0.4348 0.78977 0.36566 0.0
H2731 H 0.43524 0.76205 0.37076 0.0
H2732 H 0.42985 0.78013 0.39165 0.0
H2733 H 0.35648 0.76363 0.41989 0.0
H2734 H 0.36025 0.72514 0.41959 0.0
H2735 H 0.40685 0.7306 0.37156 0.0
C2736 C 0.39537 0.81525 0.3685 0.0
C2737 C 0.38215 0.83109 0.37576 0.0
C2738 C 0.36735 0.82623 0.39121 0.0
C2739 C 0.36581 0.8059 0.39941 0.0
C2740 C 0.37905 0.7906 0.39184 0.0
C2741 C 0.39338 0.79501 0.37654 0.0
C2742 C 0.40447 0.77547 0.3696 0.0
C2743 C 0.40091 0.77121 0.34618 0.0
C2744 C 0.42745 0.77695 0.37473 0.0
C2745 C 0.39388 0.75926 0.38308 0.0
C2746 C 0.37961 0.76833 0.39617 0.0
C2747 C 0.36766 0.75638 0.40977 0.0
C2748 C 0.36998 0.73454 0.40957 0.0
C2749 C 0.38382 0.7249 0.39555 0.0
C2750 C 0.39615 0.73753 0.38246 0.0
H2751 H 0.0306 0.63282 0.11497 0.0
H2752 H 0.0132 0.61985 0.17914 0.0
H2753 H 0.97678 0.62408 0.16976 0.0
H2754 H 0.99212 0.67291 0.10634 0.0
H2755 H 0.98767 0.66546 0.07953 0.0
H2756 H 0.01243 0.66132 0.09125 0.0
H2757 H 0.0103 0.622 0.08151 0.0
H2758 H 0.98549 0.62599 0.06988 0.0
H2759 H 0.98863 0.60667 0.09011 0.0
H2760 H 0.94241 0.62767 0.15323 0.0
H2761 H 0.912 0.63391 0.13121 0.0
H2762 H 0.95145 0.64683 0.07813 0.0
C2763 C 0.0191 0.63094 0.12702 0.0
C2764 C 0.02466 0.62592 0.14776 0.0
C2765 C 0.00925 0.62375 0.16318 0.0
C2766 C 0.98853 0.62605 0.15799 0.0
C2767 C 0.98352 0.6308 0.13739 0.0
C2768 C 0.99833 0.63355 0.1222 0.0
C2769 C 0.98875 0.63911 0.10135 0.0
C2770 C 0.99565 0.661 0.0942 0.0
C2771 C 0.99358 0.62244 0.08473 0.0
C2772 C 0.96625 0.6388 0.10718 0.0
C2773 C 0.96361 0.63377 0.12801 0.0
C2774 C 0.94425 0.63181 0.13694 0.0
C2775 C 0.92709 0.63527 0.12428 0.0
C2776 C 0.92942 0.64091 0.10302 0.0
C2777 C 0.94926 0.6427 0.09439 0.0
H2778 H 0.09876 0.27571 0.86261 0.0
H2779 H 0.14565 0.27801 0.91085 0.0
H2780 H 0.15012 0.23999 0.90799 0.0
H2781 H 0.07599 0.22717 0.87938 0.0
H2782 H 0.07085 0.21767 0.85336 0.0
H2783 H 0.07155 0.2454 0.8584 0.0
H2784 H 0.09915 0.25024 0.82972 0.0
H2785 H 0.09846 0.22253 0.82451 0.0
H2786 H 0.1224 0.23518 0.83098 0.0
H2787 H 0.14967 0.20226 0.90055 0.0
H2788 H 0.14421 0.16604 0.88893 0.0
H2789 H 0.09703 0.18697 0.84583 0.0
C2790 C 0.11007 0.26821 0.87241 0.0
C2791 C 0.12187 0.27988 0.88694 0.0
C2792 C 0.13636 0.26944 0.89967 0.0
C2793 C 0.13906 0.24783 0.89815 0.0
C2794 C 0.1271 0.23677 0.8839 0.0
C2795 C 0.11287 0.24648 0.87125 0.0
C2796 C 0.10174 0.23059 0.85762 0.0
C2797 C 0.07866 0.23019 0.86249 0.0
C2798 C 0.10568 0.23489 0.83432 0.0
C2799 C 0.11203 0.21054 0.86464 0.0
C2800 C 0.12663 0.21459 0.87976 0.0
C2801 C 0.1383 0.19882 0.8887 0.0
C2802 C 0.13507 0.17827 0.88194 0.0
C2803 C 0.12021 0.17356 0.86642 0.0
C2804 C 0.10847 0.18999 0.85775 0.0
H2805 H 0.54958 0.35161 0.5903 0.0
H2806 H 0.58606 0.35977 0.64646 0.0
H2807 H 0.55437 0.36428 0.66718 0.0
H2808 H 0.51247 0.39081 0.60304 0.0
H2809 H 0.49132 0.37656 0.59164 0.0
H2810 H 0.51684 0.37305 0.58161 0.0
H2811 H 0.51372 0.33309 0.58785 0.0
H2812 H 0.48822 0.3365 0.59801 0.0
H2813 H 0.50737 0.32354 0.61356 0.0
H2814 H 0.51819 0.36708 0.68189 0.0
H2815 H 0.481 0.37146 0.68856 0.0
H2816 H 0.46886 0.36361 0.62235 0.0
C2817 C 0.55089 0.35427 0.60697 0.0
C2818 C 0.57025 0.35522 0.61681 0.0
C2819 C 0.57136 0.35901 0.63861 0.0
C2820 C 0.55345 0.36149 0.65051 0.0
C2821 C 0.53456 0.3604 0.64034 0.0
C2822 C 0.53321 0.35714 0.61901 0.0
C2823 C 0.51117 0.35761 0.61165 0.0
C2824 C 0.50776 0.37558 0.59607 0.0
C2825 C 0.50475 0.33642 0.60221 0.0
C2826 C 0.50031 0.36164 0.63215 0.0
C2827 C 0.51399 0.36291 0.6486 0.0
C2828 C 0.50736 0.36622 0.66909 0.0
C2829 C 0.48624 0.3686 0.67276 0.0
C2830 C 0.47211 0.368 0.65597 0.0
C2831 C 0.47932 0.36432 0.63549 0.0
H2832 H 0.11439 0.36656 0.27519 0.0
H2833 H 0.09147 0.42948 0.28365 0.0
H2834 H 0.10742 0.44002 0.24996 0.0
H2835 H 0.16192 0.37905 0.25241 0.0
H2836 H 0.16158 0.35774 0.23393 0.0
H2837 H 0.1481 0.35529 0.25835 0.0
H2838 H 0.11441 0.34685 0.23848 0.0
H2839 H 0.12783 0.34908 0.21398 0.0
H2840 H 0.10537 0.36467 0.21873 0.0
H2841 H 0.12927 0.44409 0.21717 0.0
H2842 H 0.15071 0.44033 0.1854 0.0
H2843 H 0.15566 0.37376 0.19674 0.0
C2844 C 0.1126 0.38252 0.2698 0.0
C2845 C 0.10189 0.39732 0.28187 0.0
C2846 C 0.0996 0.41798 0.27443 0.0
C2847 C 0.10867 0.42407 0.25543 0.0
C2848 C 0.11945 0.40911 0.24398 0.0
C2849 C 0.12099 0.38863 0.25069 0.0
C2850 C 0.13292 0.37538 0.23537 0.0
C2851 C 0.15228 0.36634 0.24563 0.0
C2852 C 0.11932 0.35797 0.22609 0.0
C2853 C 0.1383 0.39167 0.21914 0.0
C2854 C 0.13066 0.41111 0.22451 0.0
C2855 C 0.13497 0.42888 0.21263 0.0
C2856 C 0.14719 0.42664 0.19473 0.0
C2857 C 0.15449 0.40674 0.1887 0.0
C2858 C 0.14992 0.38907 0.20097 0.0
H2859 H 0.34221 0.40621 0.93769 0.0
H2860 H 0.38193 0.35895 0.91101 0.0
H2861 H 0.39009 0.34618 0.94642 0.0
H2862 H 0.37476 0.41839 0.98111 0.0
H2863 H 0.35407 0.42251 0.99927 0.0
H2864 H 0.3502 0.4272 0.9718 0.0
H2865 H 0.31935 0.40151 0.9717 0.0
H2866 H 0.32306 0.39682 0.99921 0.0
H2867 H 0.32276 0.37518 0.98111 0.0
H2868 H 0.39393 0.33843 0.98445 0.0
H2869 H 0.39451 0.33707 0.02294 0.0
H2870 H 0.35397 0.39065 0.02554 0.0
C2871 C 0.35242 0.393 0.93932 0.0
C2872 C 0.36132 0.38345 0.92157 0.0
C2873 C 0.37493 0.36649 0.92436 0.0
C2874 C 0.37962 0.3591 0.94441 0.0
C2875 C 0.37079 0.36899 0.96157 0.0
C2876 C 0.35757 0.38565 0.95929 0.0
C2877 C 0.35095 0.39404 0.98042 0.0
C2878 C 0.35792 0.41689 0.98331 0.0
C2879 C 0.32765 0.39174 0.98327 0.0
C2880 C 0.36252 0.37949 0.99491 0.0
C2881 C 0.37369 0.36505 0.98365 0.0
C2882 C 0.38531 0.3497 0.99344 0.0
C2883 C 0.3855 0.34905 0.01533 0.0
C2884 C 0.37438 0.36381 0.02728 0.0
C2885 C 0.36281 0.37929 0.01685 0.0
H2886 H 0.38871 0.61223 0.66751 0.0
H2887 H 0.33952 0.5672 0.67763 0.0
H2888 H 0.34902 0.56477 0.71465 0.0
H2889 H 0.42529 0.58784 0.70405 0.0
H2890 H 0.43528 0.61263 0.71299 0.0
H2891 H 0.42558 0.61006 0.68672 0.0
H2892 H 0.40055 0.6407 0.69326 0.0
H2893 H 0.41023 0.64342 0.71947 0.0
H2894 H 0.38318 0.63944 0.71513 0.0
H2895 H 0.36102 0.56976 0.75102 0.0
H2896 H 0.37606 0.58125 0.78467 0.0
H2897 H 0.41899 0.6211 0.75156 0.0
C2898 C 0.38006 0.60173 0.67746 0.0
C2899 C 0.36332 0.58997 0.66954 0.0
C2900 C 0.35241 0.57641 0.68318 0.0
C2901 C 0.35771 0.57484 0.7043 0.0
C2902 C 0.37413 0.5867 0.71162 0.0
C2903 C 0.38529 0.59977 0.69866 0.0
C2904 C 0.40182 0.6113 0.71083 0.0
C2905 C 0.42327 0.60508 0.70319 0.0
C2906 C 0.39875 0.63512 0.7096 0.0
C2907 C 0.39778 0.60311 0.7327 0.0
C2908 C 0.38174 0.58888 0.73273 0.0
C2909 C 0.3739 0.5805 0.75119 0.0
C2910 C 0.38249 0.58707 0.77017 0.0
C2911 C 0.39891 0.60155 0.77048 0.0
C2912 C 0.40688 0.60943 0.75155 0.0
H2913 H 0.16145 0.61953 0.53629 0.0
H2914 H 0.11669 0.66946 0.5398 0.0
H2915 H 0.11199 0.6677 0.50163 0.0
H2916 H 0.18433 0.63638 0.48675 0.0
H2917 H 0.18819 0.60999 0.47766 0.0
H2918 H 0.18868 0.61563 0.50526 0.0
H2919 H 0.16034 0.58776 0.51142 0.0
H2920 H 0.15974 0.58207 0.48386 0.0
H2921 H 0.13656 0.58951 0.49717 0.0
H2922 H 0.10994 0.65872 0.46377 0.0
H2923 H 0.11241 0.64458 0.42796 0.0
H2924 H 0.15984 0.60182 0.44829 0.0
C2925 C 0.15076 0.63019 0.52902 0.0
C2926 C 0.1394 0.64461 0.54109 0.0
C2927 C 0.12563 0.65834 0.53092 0.0
C2928 C 0.12282 0.65745 0.50924 0.0
C2929 C 0.13409 0.64294 0.49785 0.0
C2930 C 0.14796 0.62972 0.50731 0.0
C2931 C 0.15797 0.61545 0.4914 0.0
C2932 C 0.18117 0.61962 0.4902 0.0
C2933 C 0.15337 0.59233 0.49626 0.0
C2934 C 0.14722 0.62245 0.47161 0.0
C2935 C 0.13346 0.63828 0.47574 0.0
C2936 C 0.12086 0.64652 0.46027 0.0
C2937 C 0.12231 0.63834 0.44001 0.0
C2938 C 0.13641 0.62224 0.43535 0.0
C2939 C 0.14916 0.61437 0.45135 0.0
H2940 H 0.14367 0.59515 0.22195 0.0
H2941 H 0.07939 0.61166 0.22763 0.0
H2942 H 0.08207 0.60913 0.26592 0.0
H2943 H 0.14455 0.55801 0.26568 0.0
H2944 H 0.16995 0.56582 0.27373 0.0
H2945 H 0.16267 0.56749 0.24661 0.0
H2946 H 0.17265 0.6068 0.24631 0.0
H2947 H 0.17992 0.60526 0.2734 0.0
H2948 H 0.16125 0.62422 0.26513 0.0
H2949 H 0.09221 0.60749 0.30356 0.0
H2950 H 0.10916 0.60616 0.33806 0.0
H2951 H 0.16655 0.59 0.30804 0.0
C2952 C 0.13008 0.59801 0.23119 0.0
C2953 C 0.11132 0.60363 0.22169 0.0
C2954 C 0.09395 0.60732 0.23445 0.0
C2955 C 0.09529 0.60589 0.25626 0.0
C2956 C 0.11404 0.60059 0.2651 0.0
C2957 C 0.1311 0.59657 0.25299 0.0
C2958 C 0.14963 0.59196 0.26646 0.0
C2959 C 0.15714 0.56948 0.26291 0.0
C2960 C 0.16687 0.60802 0.26259 0.0
C2961 C 0.14041 0.5945 0.28802 0.0
C2962 C 0.11984 0.59936 0.28688 0.0
C2963 C 0.10826 0.60345 0.30468 0.0
C2964 C 0.11802 0.60271 0.32419 0.0
C2965 C 0.13911 0.59788 0.32569 0.0
C2966 C 0.15034 0.59349 0.30737 0.0
H2967 H 0.12572 0.39138 0.07077 0.0
H2968 H 0.18783 0.37017 0.08171 0.0
H2969 H 0.18981 0.35757 0.04519 0.0
H2970 H 0.10947 0.35021 0.03659 0.0
H2971 H 0.09503 0.3671 0.01959 0.0
H2972 H 0.09838 0.37393 0.04669 0.0
H2973 H 0.11381 0.40976 0.03585 0.0
H2974 H 0.11054 0.40301 0.0087 0.0
H2975 H 0.13547 0.41054 0.01839 0.0
H2976 H 0.18404 0.34521 0.00832 0.0
H2977 H 0.17218 0.33699 0.97244 0.0
H2978 H 0.11531 0.36959 0.98446 0.0
C2979 C 0.13967 0.38399 0.06545 0.0
C2980 C 0.15655 0.38148 0.07899 0.0
C2981 C 0.17474 0.37214 0.07149 0.0
C2982 C 0.17598 0.36494 0.05083 0.0
C2983 C 0.15906 0.36764 0.03782 0.0
C2984 C 0.14137 0.37723 0.04473 0.0
C2985 C 0.12569 0.3789 0.02736 0.0
C2986 C 0.10598 0.36681 0.03289 0.0
C2987 C 0.12112 0.40192 0.02228 0.0
C2988 C 0.13718 0.36844 0.00971 0.0
C2989 C 0.15632 0.36184 0.01614 0.0
C2990 C 0.16924 0.35059 0.00299 0.0
C2991 C 0.16239 0.34596 0.98272 0.0
C2992 C 0.14304 0.35296 0.97576 0.0
C2993 C 0.13038 0.36449 0.98935 0.0
H2994 H 0.36368 0.38576 0.81544 0.0
H2995 H 0.3161 0.43186 0.80496 0.0
H2996 H 0.32337 0.43123 0.76732 0.0
H2997 H 0.39905 0.40557 0.77528 0.0
H2998 H 0.40723 0.37988 0.76732 0.0
H2999 H 0.39913 0.38439 0.79386 0.0
H3000 H 0.37228 0.3546 0.79041 0.0
H3001 H 0.38025 0.35003 0.76385 0.0
H3002 H 0.35375 0.35545 0.76951 0.0
H3003 H 0.334 0.4249 0.73129 0.0
H3004 H 0.34812 0.41364 0.69772 0.0
H3005 H 0.38972 0.37159 0.72984 0.0
C3006 C 0.35495 0.39583 0.8052 0.0
C3007 C 0.33929 0.40886 0.81317 0.0
C3008 C 0.32813 0.42173 0.79928 0.0
C3009 C 0.33216 0.42152 0.77784 0.0
C3010 C 0.34746 0.4084 0.77044 0.0
C3011 C 0.3588 0.39583 0.78357 0.0
C3012 C 0.37404 0.38287 0.77114 0.0
C3013 C 0.39618 0.38852 0.77727 0.0
C3014 C 0.36982 0.35934 0.77389 0.0
C3015 C 0.36921 0.38998 0.74901 0.0
C3016 C 0.35382 0.40475 0.74917 0.0
C3017 C 0.34609 0.41339 0.73092 0.0
C3018 C 0.35417 0.40673 0.71188 0.0
C3019 C 0.36993 0.39155 0.71105 0.0
C3020 C 0.37772 0.38323 0.72995 0.0
H3021 H 0.3695 0.65227 0.48464 0.0
H3022 H 0.35054 0.60174 0.44348 0.0
H3023 H 0.3398 0.58084 0.47404 0.0
H3024 H 0.39087 0.61892 0.52422 0.0
H3025 H 0.38289 0.63515 0.54576 0.0
H3026 H 0.38805 0.64674 0.52065 0.0
H3027 H 0.35169 0.66282 0.52024 0.0
H3028 H 0.34641 0.65128 0.54536 0.0
H3029 H 0.32965 0.64601 0.52355 0.0
H3030 H 0.33032 0.56591 0.50854 0.0
H3031 H 0.32529 0.55627 0.5455 0.0
H3032 H 0.35292 0.6151 0.56488 0.0
C3033 C 0.36295 0.63686 0.48213 0.0
C3034 C 0.36069 0.62859 0.46178 0.0
C3035 C 0.3524 0.60828 0.459 0.0
C3036 C 0.3462 0.59635 0.47622 0.0
C3037 C 0.3487 0.60487 0.49611 0.0
C3038 C 0.35709 0.62453 0.49922 0.0
C3039 C 0.35899 0.62947 0.52234 0.0
C3040 C 0.38154 0.63276 0.5286 0.0
C3041 C 0.34591 0.64853 0.52821 0.0
C3042 C 0.35032 0.60953 0.53168 0.0
C3043 C 0.34423 0.59571 0.51621 0.0
C3044 C 0.33516 0.57651 0.52082 0.0
C3045 C 0.33233 0.57121 0.54183 0.0
C3046 C 0.33887 0.58488 0.55794 0.0
C3047 C 0.34802 0.60427 0.55281 0.0
H3048 H 0.1738 0.12839 0.3885 0.0
H3049 H 0.19178 0.18383 0.42354 0.0
H3050 H 0.22783 0.17377 0.42077 0.0
H3051 H 0.21386 0.09364 0.41025 0.0
H3052 H 0.21821 0.08048 0.38573 0.0
H3053 H 0.19324 0.09085 0.39166 0.0
H3054 H 0.19404 0.1124 0.35743 0.0
H3055 H 0.21899 0.10213 0.35141 0.0
H3056 H 0.2152 0.13002 0.35263 0.0
H3057 H 0.26155 0.16027 0.41221 0.0
H3058 H 0.2923 0.14304 0.3985 0.0
H3059 H 0.2543 0.09522 0.3694 0.0
C3060 C 0.18535 0.1382 0.39579 0.0
C3061 C 0.17994 0.15693 0.40619 0.0
C3062 C 0.19549 0.16948 0.41538 0.0
C3063 C 0.21606 0.16387 0.414 0.0
C3064 C 0.22097 0.14559 0.40343 0.0
C3065 C 0.2062 0.13281 0.39452 0.0
C3066 C 0.21612 0.11454 0.38319 0.0
C3067 C 0.20999 0.09364 0.39332 0.0
C3068 C 0.21077 0.1148 0.35978 0.0
C3069 C 0.23869 0.11944 0.38681 0.0
C3070 C 0.24095 0.13741 0.39864 0.0
C3071 C 0.26005 0.14604 0.40315 0.0
C3072 C 0.27741 0.13619 0.39521 0.0
C3073 C 0.27564 0.1178 0.383 0.0
C3074 C 0.25604 0.1091 0.37898 0.0
H3075 H 0.78187 0.36573 0.62175 0.0
H3076 H 0.76834 0.43123 0.63224 0.0
H3077 H 0.73223 0.42485 0.62178 0.0
H3078 H 0.75151 0.36075 0.57549 0.0
H3079 H 0.74352 0.33428 0.581 0.0
H3080 H 0.76776 0.34383 0.59067 0.0
H3081 H 0.7571 0.33391 0.62841 0.0
H3082 H 0.73281 0.32434 0.61886 0.0
H3083 H 0.73357 0.34404 0.63903 0.0
H3084 H 0.69721 0.41069 0.61112 0.0
H3085 H 0.66722 0.39094 0.59749 0.0
H3086 H 0.70488 0.33567 0.59095 0.0
C3087 C 0.77125 0.37868 0.62206 0.0
C3088 C 0.77774 0.39892 0.62807 0.0
C3089 C 0.76357 0.41559 0.62778 0.0
C3090 C 0.74306 0.41209 0.62193 0.0
C3091 C 0.73713 0.39191 0.61606 0.0
C3092 C 0.75091 0.37556 0.6158 0.0
C3093 C 0.74106 0.35564 0.60767 0.0
C3094 C 0.75159 0.3482 0.58751 0.0
C3095 C 0.74114 0.33847 0.6245 0.0
C3096 C 0.71956 0.36328 0.6034 0.0
C3097 C 0.71746 0.38415 0.60868 0.0
C3098 C 0.69874 0.39441 0.60678 0.0
C3099 C 0.6818 0.38308 0.5991 0.0
C3100 C 0.68386 0.3619 0.59302 0.0
C3101 C 0.70299 0.35194 0.59523 0.0
H3102 H 0.37155 0.94108 0.3703 0.0
H3103 H 0.40789 0.94162 0.31361 0.0
H3104 H 0.39379 0.97607 0.30431 0.0
H3105 H 0.32643 0.97126 0.3494 0.0
H3106 H 0.32348 0.98552 0.37352 0.0
H3107 H 0.33313 0.95914 0.37388 0.0
H3108 H 0.36544 0.97179 0.39391 0.0
H3109 H 0.35585 0.99809 0.3937 0.0
H3110 H 0.38084 0.99263 0.38309 0.0
H3111 H 0.38026 0.01172 0.30345 0.0
H3112 H 0.36976 0.04766 0.31221 0.0
H3113 H 0.34212 0.02536 0.36964 0.0
C3114 C 0.37602 0.94829 0.35567 0.0
C3115 C 0.39065 0.93878 0.34256 0.0
C3116 C 0.3967 0.94876 0.32384 0.0
C3117 C 0.38862 0.96821 0.31833 0.0
C3118 C 0.37457 0.9775 0.33177 0.0
C3119 C 0.36834 0.96797 0.35011 0.0
C3120 C 0.35525 0.98261 0.36308 0.0
C3121 C 0.33326 0.97413 0.36508 0.0
C3122 C 0.36493 0.98651 0.38471 0.0
C3123 C 0.35591 0.00213 0.34961 0.0
C3124 C 0.36675 0.99858 0.33138 0.0
C3125 C 0.37135 0.01461 0.3174 0.0
C3126 C 0.36535 0.03495 0.3225 0.0
C3127 C 0.35488 0.03907 0.34138 0.0
C3128 C 0.34952 0.0224 0.35479 0.0
H3129 H 0.79519 0.66327 0.07631 0.0
H3130 H 0.83483 0.60942 0.08264 0.0
H3131 H 0.80596 0.58892 0.09733 0.0
H3132 H 0.76915 0.65565 0.1248 0.0
H3133 H 0.74473 0.66452 0.11516 0.0
H3134 H 0.76809 0.67441 0.10381 0.0
H3135 H 0.75584 0.66243 0.06712 0.0
H3136 H 0.73241 0.65256 0.07836 0.0
H3137 H 0.74842 0.63551 0.06307 0.0
H3138 H 0.77232 0.57415 0.11074 0.0
H3139 H 0.73738 0.56726 0.12444 0.0
H3140 H 0.72096 0.6317 0.11194 0.0
C3141 C 0.7977 0.64709 0.08056 0.0
C3142 C 0.81713 0.63781 0.07815 0.0
C3143 C 0.82 0.61676 0.08433 0.0
C3144 C 0.80371 0.605 0.09262 0.0
C3145 C 0.78474 0.61465 0.09494 0.0
C3146 C 0.78174 0.63529 0.08929 0.0
C3147 C 0.76024 0.64234 0.09448 0.0
C3148 C 0.76058 0.66029 0.11052 0.0
C3149 C 0.74854 0.64857 0.07457 0.0
C3150 C 0.75159 0.62245 0.10388 0.0
C3151 C 0.76584 0.60655 0.10375 0.0
C3152 C 0.76109 0.58654 0.11107 0.0
C3153 C 0.74125 0.58275 0.11879 0.0
C3154 C 0.72665 0.59901 0.11946 0.0
C3155 C 0.73196 0.61907 0.11192 0.0
H3156 H 0.58697 0.55508 0.35355 0.0
H3157 H 0.63838 0.59523 0.36986 0.0
H3158 H 0.66035 0.56403 0.37395 0.0
H3159 H 0.59815 0.51491 0.39054 0.0
H3160 H 0.58983 0.49399 0.37358 0.0
H3161 H 0.57869 0.51956 0.3711 0.0
H3162 H 0.58879 0.52034 0.33192 0.0
H3163 H 0.60011 0.49481 0.33432 0.0
H3164 H 0.61517 0.51643 0.32461 0.0
H3165 H 0.67673 0.52797 0.37585 0.0
H3166 H 0.68511 0.49029 0.37867 0.0
H3167 H 0.62234 0.47439 0.36257 0.0
C3168 C 0.60287 0.55733 0.35792 0.0
C3169 C 0.61103 0.57755 0.36128 0.0
C3170 C 0.63183 0.57985 0.36721 0.0
C3171 C 0.64444 0.56224 0.36947 0.0
C3172 C 0.63593 0.54249 0.36591 0.0
C3173 C 0.61554 0.53997 0.36049 0.0
C3174 C 0.6098 0.51711 0.35845 0.0
C3175 C 0.59314 0.51104 0.37437 0.0
C3176 C 0.60307 0.51187 0.33599 0.0
C3177 C 0.6301 0.50709 0.36367 0.0
C3178 C 0.64509 0.52192 0.36766 0.0
C3179 C 0.66509 0.51624 0.3728 0.0
C3180 C 0.66974 0.49483 0.37427 0.0
C3181 C 0.65436 0.47948 0.3709 0.0
C3182 C 0.6344 0.48578 0.36531 0.0
H3183 H 0.22833 0.89663 0.89139 0.0
H3184 H 0.20249 0.83912 0.86615 0.0
H3185 H 0.2365 0.82298 0.86672 0.0
H3186 H 0.27859 0.89313 0.864 0.0
H3187 H 0.2928 0.90302 0.8861 0.0
H3188 H 0.26675 0.91126 0.88183 0.0
H3189 H 0.25711 0.89897 0.91911 0.0
H3190 H 0.28306 0.8906 0.92346 0.0
H3191 H 0.26216 0.87234 0.92671 0.0
H3192 H 0.27139 0.81164 0.8728 0.0
H3193 H 0.30695 0.80552 0.88344 0.0
H3194 H 0.31225 0.86992 0.90461 0.0
C3195 C 0.22999 0.88081 0.8856 0.0
C3196 C 0.21275 0.86912 0.87872 0.0
C3197 C 0.21542 0.84833 0.8716 0.0
C3198 C 0.23471 0.83903 0.87176 0.0
C3199 C 0.25127 0.85069 0.87905 0.0
C3200 C 0.2493 0.87113 0.88577 0.0
C3201 C 0.26965 0.87944 0.89406 0.0
C3202 C 0.27741 0.8978 0.8807 0.0
C3203 C 0.26788 0.8857 0.91721 0.0
C3204 C 0.28311 0.86028 0.89134 0.0
C3205 C 0.27203 0.84401 0.88252 0.0
C3206 C 0.28035 0.8243 0.87947 0.0
C3207 C 0.30055 0.82096 0.8857 0.0
C3208 C 0.31234 0.83724 0.8948 0.0
C3209 C 0.30362 0.85729 0.89742 0.0
H3210 H 0.34785 0.97371 0.13973 0.0
H3211 H 0.40257 0.94592 0.11322 0.0
H3212 H 0.42027 0.97995 0.11522 0.0
H3213 H 0.35169 0.02273 0.11353 0.0
H3214 H 0.34308 0.03815 0.1354 0.0
H3215 H 0.33471 0.01139 0.1327 0.0
H3216 H 0.34853 0.00318 0.16974 0.0
H3217 H 0.35698 0.02993 0.17254 0.0
H3218 H 0.37494 0.00888 0.17592 0.0
H3219 H 0.43146 0.01703 0.11766 0.0
H3220 H 0.43582 0.05529 0.12173 0.0
H3221 H 0.37491 0.05955 0.14826 0.0
C3222 C 0.36359 0.9748 0.13446 0.0
C3223 C 0.37381 0.95712 0.12628 0.0
C3224 C 0.39441 0.95919 0.11958 0.0
C3225 C 0.40463 0.97847 0.12066 0.0
C3226 C 0.39416 0.99558 0.12869 0.0
C3227 C 0.37416 0.99399 0.13563 0.0
C3228 C 0.36648 0.01503 0.14332 0.0
C3229 C 0.34789 0.02225 0.13046 0.0
C3230 C 0.36143 0.0142 0.16677 0.0
C3231 C 0.38515 0.0287 0.13919 0.0
C3232 C 0.40092 0.01708 0.13075 0.0
C3233 C 0.41935 0.02626 0.12454 0.0
C3234 C 0.42171 0.04793 0.12689 0.0
C3235 C 0.40584 0.0601 0.13556 0.0
C3236 C 0.38739 0.05039 0.14197 0.0
H3237 H 0.09421 0.94323 0.65349 0.0
H3238 H 0.13094 0.918 0.60297 0.0
H3239 H 0.14509 0.95339 0.59616 0.0
H3240 H 0.08141 0.99125 0.62784 0.0
H3241 H 0.08237 0.00648 0.65155 0.0
H3242 H 0.07567 0.97914 0.65261 0.0
H3243 H 0.10501 0.97276 0.67916 0.0
H3244 H 0.1118 9e-05 0.6782 0.0
H3245 H 0.1308 0.98053 0.67255 0.0
H3246 H 0.15603 0.99169 0.59591 0.0
H3247 H 0.16102 0.02984 0.60062 0.0
H3248 H 0.11556 0.02957 0.65007 0.0
C3249 C 0.1053 0.94507 0.64103 0.0
C3250 C 0.11159 0.92782 0.62884 0.0
C3251 C 0.1259 0.931 0.6125 0.0
C3252 C 0.13405 0.95102 0.60856 0.0
C3253 C 0.12752 0.96767 0.62095 0.0
C3254 C 0.11332 0.96489 0.63672 0.0
C3255 C 0.10835 0.98532 0.64747 0.0
C3256 C 0.0856 0.99087 0.64469 0.0
C3257 C 0.11436 0.98463 0.67072 0.0
C3258 C 0.12205 0.0001 0.63536 0.0
C3259 C 0.13315 0.98965 0.62025 0.0
C3260 C 0.14729 4e-05 0.60758 0.0
C3261 C 0.15006 0.02168 0.61039 0.0
C3262 C 0.13853 0.03268 0.62556 0.0
C3263 C 0.12437 0.02166 0.63813 0.0
loop_
_geom_bond_atom_site_label_1
_geom_bond_atom_site_label_2
_geom_bond_distance
_geom_bond_site_symmetry_2
_ccdc_geom_bond_type
Co0 O1 2.216 . S
Co0 O2 2.091 . S
Co0 O4 2.004 . S
Co0 O10 2.021 . S
Co0 O12 2.137 . S
Co0 O13 2.244 . S
O1 Co0 2.216 . S
O1 C8 1.247 . S
O2 Co0 2.091 . S
O2 C8 1.261 . S
C3 O12 1.247 . S
C3 O13 1.272 . S
O4 Co0 2.004 . S
O4 C9 1.259 . S
Co5 O6 2.061 . S
Co5 O11 2.052 . S
Co5 O13 2.135 . S
O6 Co5 2.061 . S
O6 C9 1.235 . S
C7 O10 1.238 . S
C7 O11 1.241 . S
C8 O1 1.247 . S
C8 O2 1.261 . S
C9 O4 1.259 . S
C9 O6 1.235 . S
O10 Co0 2.021 . S
O10 C7 1.238 . S
O11 Co5 2.052 . S
O11 C7 1.241 . S
O12 Co0 2.137 . S
O12 C3 1.247 . S
O13 Co0 2.244 . S
O13 C3 1.272 . S
O13 Co5 2.135 . S
Co14 O15 2.216 . S
Co14 O16 2.091 . S
Co14 O18 2.004 . S
Co14 O24 2.021 . S
Co14 O26 2.137 . S
Co14 O27 2.244 . S
O15 Co14 2.216 . S
O15 C22 1.247 . S
O16 Co14 2.091 . S
O16 C22 1.261 . S
C17 O26 1.247 . S
C17 O27 1.272 . S
O18 Co14 2.004 . S
O18 C23 1.259 . S
Co19 O20 2.061 . S
Co19 O25 2.052 . S
Co19 O27 2.135 . S
O20 Co19 2.061 . S
O20 C23 1.235 . S
C21 O24 1.238 . S
C21 O25 1.241 . S
C22 O15 1.247 . S
C22 O16 1.261 . S
C23 O18 1.259 . S
C23 O20 1.235 . S
O24 Co14 2.021 . S
O24 C21 1.238 . S
O25 Co19 2.052 . S
O25 C21 1.241 . S
O26 Co14 2.137 . S
O26 C17 1.247 . S
O27 Co14 2.244 . S
O27 C17 1.272 . S
O27 Co19 2.135 . S
Co28 O29 2.216 . S
Co28 O30 2.091 . S
Co28 O32 2.004 . S
Co28 O38 2.021 . S
Co28 O40 2.137 . S
Co28 O41 2.244 . S
O29 Co28 2.216 . S
O29 C36 1.247 . S
O30 Co28 2.091 . S
O30 C36 1.261 . S
C31 O40 1.247 . S
C31 O41 1.272 . S
O32 Co28 2.004 . S
O32 C37 1.259 . S
Co33 O34 2.061 . S
Co33 O39 2.052 . S
Co33 O41 2.135 . S
O34 Co33 2.061 . S
O34 C37 1.235 . S
C35 O38 1.238 . S
C35 O39 1.241 . S
C36 O29 1.247 . S
C36 O30 1.261 . S
C37 O32 1.259 . S
C37 O34 1.235 . S
O38 Co28 2.021 . S
O38 C35 1.238 . S
O39 Co33 2.052 . S
O39 C35 1.241 . S
O40 Co28 2.137 . S
O40 C31 1.247 . S
O41 Co28 2.244 . S
O41 C31 1.272 . S
O41 Co33 2.135 . S
Co42 O43 2.216 . S
Co42 O44 2.091 . S
Co42 O46 2.004 . S
Co42 O52 2.021 . S
Co42 O54 2.137 . S
Co42 O55 2.244 . S
O43 Co42 2.216 . S
O43 C50 1.247 . S
O44 Co42 2.091 . S
O44 C50 1.261 . S
C45 O54 1.247 . S
C45 O55 1.272 . S
O46 Co42 2.004 . S
O46 C51 1.259 . S
Co47 O48 2.061 . S
Co47 O53 2.052 . S
Co47 O55 2.135 . S
O48 Co47 2.061 . S
O48 C51 1.235 . S
C49 O52 1.238 . S
C49 O53 1.241 . S
C50 O43 1.247 . S
C50 O44 1.261 . S
C51 O46 1.259 . S
C51 O48 1.235 . S
O52 Co42 2.021 . S
O52 C49 1.238 . S
O53 Co47 2.052 . S
O53 C49 1.241 . S
O54 Co42 2.137 . S
O54 C45 1.247 . S
O55 Co42 2.244 . S
O55 C45 1.272 . S
O55 Co47 2.135 . S
Co56 O57 2.216 . S
Co56 O58 2.091 . S
Co56 O60 2.004 . S
Co56 O66 2.021 . S
Co56 O68 2.137 . S
Co56 O69 2.244 . S
O57 Co56 2.216 . S
O57 C64 1.247 . S
O58 Co56 2.091 . S
O58 C64 1.261 . S
C59 O68 1.247 . S
C59 O69 1.272 . S
O60 Co56 2.004 . S
O60 C65 1.259 . S
Co61 O62 2.061 . S
Co61 O67 2.052 . S
Co61 O69 2.135 . S
O62 Co61 2.061 . S
O62 C65 1.235 . S
C63 O66 1.238 . S
C63 O67 1.241 . S
C64 O57 1.247 . S
C64 O58 1.261 . S
C65 O60 1.259 . S
C65 O62 1.235 . S
O66 Co56 2.021 . S
O66 C63 1.238 . S
O67 Co61 2.052 . S
O67 C63 1.241 . S
O68 Co56 2.137 . S
O68 C59 1.247 . S
O69 Co56 2.244 . S
O69 C59 1.272 . S
O69 Co61 2.135 . S
Co70 O71 2.216 . S
Co70 O72 2.091 . S
Co70 O74 2.004 . S
Co70 O80 2.021 . S
Co70 O82 2.137 . S
Co70 O83 2.244 . S
O71 Co70 2.216 . S
O71 C78 1.247 . S
O72 Co70 2.091 . S
O72 C78 1.261 . S
C73 O82 1.247 . S
C73 O83 1.272 . S
O74 Co70 2.004 . S
O74 C79 1.259 . S
Co75 O76 2.061 . S
Co75 O81 2.052 . S
Co75 O83 2.135 . S
O76 Co75 2.061 . S
O76 C79 1.235 . S
C77 O80 1.238 . S
C77 O81 1.241 . S
C78 O71 1.247 . S
C78 O72 1.261 . S
C79 O74 1.259 . S
C79 O76 1.235 . S
O80 Co70 2.021 . S
O80 C77 1.238 . S
O81 Co75 2.052 . S
O81 C77 1.241 . S
O82 Co70 2.137 . S
O82 C73 1.247 . S
O83 Co70 2.244 . S
O83 C73 1.272 . S
O83 Co75 2.135 . S
Co84 O85 2.216 . S
Co84 O86 2.091 . S
Co84 O88 2.004 . S
Co84 O94 2.021 . S
Co84 O96 2.137 . S
Co84 O97 2.244 . S
O85 Co84 2.216 . S
O85 C92 1.247 . S
O86 Co84 2.091 . S
O86 C92 1.261 . S
C87 O96 1.247 . S
C87 O97 1.272 . S
O88 Co84 2.004 . S
O88 C93 1.259 . S
Co89 O90 2.061 . S
Co89 O95 2.052 . S
Co89 O97 2.135 . S
O90 Co89 2.061 . S
O90 C93 1.235 . S
C91 O94 1.238 . S
C91 O95 1.241 . S
C92 O85 1.247 . S
C92 O86 1.261 . S
C93 O88 1.259 . S
C93 O90 1.235 . S
O94 Co84 2.021 . S
O94 C91 1.238 . S
O95 Co89 2.052 . S
O95 C91 1.241 . S
O96 Co84 2.137 . S
O96 C87 1.247 . S
O97 Co84 2.244 . S
O97 C87 1.272 . S
O97 Co89 2.135 . S
Co98 O99 2.216 . S
Co98 O100 2.091 . S
Co98 O102 2.004 . S
Co98 O108 2.021 . S
Co98 O110 2.137 . S
Co98 O111 2.244 . S
O99 Co98 2.216 . S
O99 C106 1.247 . S
O100 Co98 2.091 . S
O100 C106 1.261 . S
C101 O110 1.247 . S
C101 O111 1.272 . S
O102 Co98 2.004 . S
O102 C107 1.259 . S
Co103 O104 2.061 . S
Co103 O109 2.052 . S
Co103 O111 2.135 . S
O104 Co103 2.061 . S
O104 C107 1.235 . S
C105 O108 1.238 . S
C105 O109 1.241 . S
C106 O99 1.247 . S
C106 O100 1.261 . S
C107 O102 1.259 . S
C107 O104 1.235 . S
O108 Co98 2.021 . S
O108 C105 1.238 . S
O109 Co103 2.052 . S
O109 C105 1.241 . S
O110 Co98 2.137 . S
O110 C101 1.247 . S
O111 Co98 2.244 . S
O111 C101 1.272 . S
O111 Co103 2.135 . S
Co112 O113 2.216 . S
Co112 O114 2.091 . S
Co112 O116 2.004 . S
Co112 O122 2.021 . S
Co112 O124 2.137 . S
Co112 O125 2.244 . S
O113 Co112 2.216 . S
O113 C120 1.247 . S
O114 Co112 2.091 . S
O114 C120 1.261 . S
C115 O124 1.247 . S
C115 O125 1.272 . S
O116 Co112 2.004 . S
O116 C121 1.259 . S
Co117 O118 2.061 . S
Co117 O123 2.052 . S
Co117 O125 2.135 . S
O118 Co117 2.061 . S
O118 C121 1.235 . S
C119 O122 1.238 . S
C119 O123 1.241 . S
C120 O113 1.247 . S
C120 O114 1.261 . S
C121 O116 1.259 . S
C121 O118 1.235 . S
O122 Co112 2.021 . S
O122 C119 1.238 . S
O123 Co117 2.052 . S
O123 C119 1.241 . S
O124 Co112 2.137 . S
O124 C115 1.247 . S
O125 Co112 2.244 . S
O125 C115 1.272 . S
O125 Co117 2.135 . S
Co126 O127 2.216 . S
Co126 O128 2.091 . S
Co126 O130 2.004 . S
Co126 O136 2.021 . S
Co126 O138 2.137 . S
Co126 O139 2.244 . S
O127 Co126 2.216 . S
O127 C134 1.247 . S
O128 Co126 2.091 . S
O128 C134 1.261 . S
C129 O138 1.247 . S
C129 O139 1.272 . S
O130 Co126 2.004 . S
O130 C135 1.259 . S
Co131 O132 2.061 . S
Co131 O137 2.052 . S
Co131 O139 2.135 . S
O132 Co131 2.061 . S
O132 C135 1.235 . S
C133 O136 1.238 . S
C133 O137 1.241 . S
C134 O127 1.247 . S
C134 O128 1.261 . S
C135 O130 1.259 . S
C135 O132 1.235 . S
O136 Co126 2.021 . S
O136 C133 1.238 . S
O137 Co131 2.052 . S
O137 C133 1.241 . S
O138 Co126 2.137 . S
O138 C129 1.247 . S
O139 Co126 2.244 . S
O139 C129 1.272 . S
O139 Co131 2.135 . S
Co140 O141 2.216 . S
Co140 O142 2.091 . S
Co140 O144 2.004 . S
Co140 O150 2.021 . S
Co140 O152 2.137 . S
Co140 O153 2.244 . S
O141 Co140 2.216 . S
O141 C148 1.247 . S
O142 Co140 2.091 . S
O142 C148 1.261 . S
C143 O152 1.247 . S
C143 O153 1.272 . S
O144 Co140 2.004 . S
O144 C149 1.259 . S
Co145 O146 2.061 . S
Co145 O151 2.052 . S
Co145 O153 2.135 . S
O146 Co145 2.061 . S
O146 C149 1.235 . S
C147 O150 1.238 . S
C147 O151 1.241 . S
C148 O141 1.247 . S
C148 O142 1.261 . S
C149 O144 1.259 . S
C149 O146 1.235 . S
O150 Co140 2.021 . S
O150 C147 1.238 . S
O151 Co145 2.052 . S
O151 C147 1.241 . S
O152 Co140 2.137 . S
O152 C143 1.247 . S
O153 Co140 2.244 . S
O153 C143 1.272 . S
O153 Co145 2.135 . S
Co154 O155 2.216 . S
Co154 O156 2.091 . S
Co154 O158 2.004 . S
Co154 O164 2.021 . S
Co154 O166 2.137 . S
Co154 O167 2.244 . S
O155 Co154 2.216 . S
O155 C162 1.247 . S
O156 Co154 2.091 . S
O156 C162 1.261 . S
C157 O166 1.247 . S
C157 O167 1.272 . S
O158 Co154 2.004 . S
O158 C163 1.259 . S
Co159 O160 2.061 . S
Co159 O165 2.052 . S
Co159 O167 2.135 . S
O160 Co159 2.061 . S
O160 C163 1.235 . S
C161 O164 1.238 . S
C161 O165 1.241 . S
C162 O155 1.247 . S
C162 O156 1.261 . S
C163 O158 1.259 . S
C163 O160 1.235 . S
O164 Co154 2.021 . S
O164 C161 1.238 . S
O165 Co159 2.052 . S
O165 C161 1.241 . S
O166 Co154 2.137 . S
O166 C157 1.247 . S
O167 Co154 2.244 . S
O167 C157 1.272 . S
O167 Co159 2.135 . S
Co168 O169 2.216 . S
Co168 O170 2.091 . S
Co168 O172 2.004 . S
Co168 O178 2.021 . S
Co168 O180 2.137 . S
Co168 O181 2.244 . S
O169 Co168 2.216 . S
O169 C176 1.247 . S
O170 Co168 2.091 . S
O170 C176 1.261 . S
C171 O180 1.247 . S
C171 O181 1.272 . S
O172 Co168 2.004 . S
O172 C177 1.259 . S
Co173 O174 2.061 . S
Co173 O179 2.052 . S
Co173 O181 2.135 . S
O174 Co173 2.061 . S
O174 C177 1.235 . S
C175 O178 1.238 . S
C175 O179 1.241 . S
C176 O169 1.247 . S
C176 O170 1.261 . S
C177 O172 1.259 . S
C177 O174 1.235 . S
O178 Co168 2.021 . S
O178 C175 1.238 . S
O179 Co173 2.052 . S
O179 C175 1.241 . S
O180 Co168 2.137 . S
O180 C171 1.247 . S
O181 Co168 2.244 . S
O181 C171 1.272 . S
O181 Co173 2.135 . S
Co182 O183 2.216 . S
Co182 O184 2.091 . S
Co182 O186 2.004 . S
Co182 O192 2.021 . S
Co182 O194 2.137 . S
Co182 O195 2.244 . S
O183 Co182 2.216 . S
O183 C190 1.247 . S
O184 Co182 2.091 . S
O184 C190 1.261 . S
C185 O194 1.247 . S
C185 O195 1.272 . S
O186 Co182 2.004 . S
O186 C191 1.259 . S
Co187 O188 2.061 . S
Co187 O193 2.052 . S
Co187 O195 2.135 . S
O188 Co187 2.061 . S
O188 C191 1.235 . S
C189 O192 1.238 . S
C189 O193 1.241 . S
C190 O183 1.247 . S
C190 O184 1.261 . S
C191 O186 1.259 . S
C191 O188 1.235 . S
O192 Co182 2.021 . S
O192 C189 1.238 . S
O193 Co187 2.052 . S
O193 C189 1.241 . S
O194 Co182 2.137 . S
O194 C185 1.247 . S
O195 Co182 2.244 . S
O195 C185 1.272 . S
O195 Co187 2.135 . S
Co196 O197 2.216 . S
Co196 O198 2.091 . S
Co196 O200 2.004 . S
Co196 O206 2.021 . S
Co196 O208 2.137 . S
Co196 O209 2.244 . S
O197 Co196 2.216 . S
O197 C204 1.247 . S
O198 Co196 2.091 . S
O198 C204 1.261 . S
C199 O208 1.247 . S
C199 O209 1.272 . S
O200 Co196 2.004 . S
O200 C205 1.259 . S
Co201 O202 2.061 . S
Co201 O207 2.052 . S
Co201 O209 2.135 . S
O202 Co201 2.061 . S
O202 C205 1.235 . S
C203 O206 1.238 . S
C203 O207 1.241 . S
C204 O197 1.247 . S
C204 O198 1.261 . S
C205 O200 1.259 . S
C205 O202 1.235 . S
O206 Co196 2.021 . S
O206 C203 1.238 . S
O207 Co201 2.052 . S
O207 C203 1.241 . S
O208 Co196 2.137 . S
O208 C199 1.247 . S
O209 Co196 2.244 . S
O209 C199 1.272 . S
O209 Co201 2.135 . S
Co210 O211 2.216 . S
Co210 O212 2.091 . S
Co210 O214 2.004 . S
Co210 O220 2.021 . S
Co210 O222 2.137 . S
Co210 O223 2.244 . S
O211 Co210 2.216 . S
O211 C218 1.247 . S
O212 Co210 2.091 . S
O212 C218 1.261 . S
C213 O222 1.247 . S
C213 O223 1.272 . S
O214 Co210 2.004 . S
O214 C219 1.259 . S
Co215 O216 2.061 . S
Co215 O221 2.052 . S
Co215 O223 2.135 . S
O216 Co215 2.061 . S
O216 C219 1.235 . S
C217 O220 1.238 . S
C217 O221 1.241 . S
C218 O211 1.247 . S
C218 O212 1.261 . S
C219 O214 1.259 . S
C219 O216 1.235 . S
O220 Co210 2.021 . S
O220 C217 1.238 . S
O221 Co215 2.052 . S
O221 C217 1.241 . S
O222 Co210 2.137 . S
O222 C213 1.247 . S
O223 Co210 2.244 . S
O223 C213 1.272 . S
O223 Co215 2.135 . S
Co224 O225 2.216 . S
Co224 O226 2.091 . S
Co224 O228 2.004 . S
Co224 O234 2.021 . S
Co224 O236 2.137 . S
Co224 O237 2.244 . S
O225 Co224 2.216 . S
O225 C232 1.247 . S
O226 Co224 2.091 . S
O226 C232 1.261 . S
C227 O236 1.247 . S
C227 O237 1.272 . S
O228 Co224 2.004 . S
O228 C233 1.259 . S
Co229 O230 2.061 . S
Co229 O235 2.052 . S
Co229 O237 2.135 . S
O230 Co229 2.061 . S
O230 C233 1.235 . S
C231 O234 1.238 . S
C231 O235 1.241 . S
C232 O225 1.247 . S
C232 O226 1.261 . S
C233 O228 1.259 . S
C233 O230 1.235 . S
O234 Co224 2.021 . S
O234 C231 1.238 . S
O235 Co229 2.052 . S
O235 C231 1.241 . S
O236 Co224 2.137 . S
O236 C227 1.247 . S
O237 Co224 2.244 . S
O237 C227 1.272 . S
O237 Co229 2.135 . S
Co238 O239 2.216 . S
Co238 O240 2.091 . S
Co238 O242 2.004 . S
Co238 O248 2.021 . S
Co238 O250 2.137 . S
Co238 O251 2.244 . S
O239 Co238 2.216 . S
O239 C246 1.247 . S
O240 Co238 2.091 . S
O240 C246 1.261 . S
C241 O250 1.247 . S
C241 O251 1.272 . S
O242 Co238 2.004 . S
O242 C247 1.259 . S
Co243 O244 2.061 . S
Co243 O249 2.052 . S
Co243 O251 2.135 . S
O244 Co243 2.061 . S
O244 C247 1.235 . S
C245 O248 1.238 . S
C245 O249 1.241 . S
C246 O239 1.247 . S
C246 O240 1.261 . S
C247 O242 1.259 . S
C247 O244 1.235 . S
O248 Co238 2.021 . S
O248 C245 1.238 . S
O249 Co243 2.052 . S
O249 C245 1.241 . S
O250 Co238 2.137 . S
O250 C241 1.247 . S
O251 Co238 2.244 . S
O251 C241 1.272 . S
O251 Co243 2.135 . S
Co252 O253 2.216 . S
Co252 O254 2.091 . S
Co252 O256 2.004 . S
Co252 O262 2.021 . S
Co252 O264 2.137 . S
Co252 O265 2.244 . S
O253 Co252 2.216 . S
O253 C260 1.247 . S
O254 Co252 2.091 . S
O254 C260 1.261 . S
C255 O264 1.247 . S
C255 O265 1.272 . S
O256 Co252 2.004 . S
O256 C261 1.259 . S
Co257 O258 2.061 . S
Co257 O263 2.052 . S
Co257 O265 2.135 . S
O258 Co257 2.061 . S
O258 C261 1.235 . S
C259 O262 1.238 . S
C259 O263 1.241 . S
C260 O253 1.247 . S
C260 O254 1.261 . S
C261 O256 1.259 . S
C261 O258 1.235 . S
O262 Co252 2.021 . S
O262 C259 1.238 . S
O263 Co257 2.052 . S
O263 C259 1.241 . S
O264 Co252 2.137 . S
O264 C255 1.247 . S
O265 Co252 2.244 . S
O265 C255 1.272 . S
O265 Co257 2.135 . S
Co266 O267 2.216 . S
Co266 O268 2.091 . S
Co266 O270 2.004 . S
Co266 O276 2.021 . S
Co266 O278 2.137 . S
Co266 O279 2.244 . S
O267 Co266 2.216 . S
O267 C274 1.247 . S
O268 Co266 2.091 . S
O268 C274 1.261 . S
C269 O278 1.247 . S
C269 O279 1.272 . S
O270 Co266 2.004 . S
O270 C275 1.259 . S
Co271 O272 2.061 . S
Co271 O277 2.052 . S
Co271 O279 2.135 . S
O272 Co271 2.061 . S
O272 C275 1.235 . S
C273 O276 1.238 . S
C273 O277 1.241 . S
C274 O267 1.247 . S
C274 O268 1.261 . S
C275 O270 1.259 . S
C275 O272 1.235 . S
O276 Co266 2.021 . S
O276 C273 1.238 . S
O277 Co271 2.052 . S
O277 C273 1.241 . S
O278 Co266 2.137 . S
O278 C269 1.247 . S
O279 Co266 2.244 . S
O279 C269 1.272 . S
O279 Co271 2.135 . S
Co280 O281 2.216 . S
Co280 O282 2.091 . S
Co280 O284 2.004 . S
Co280 O290 2.021 . S
Co280 O292 2.137 . S
Co280 O293 2.244 . S
O281 Co280 2.216 . S
O281 C288 1.247 . S
O282 Co280 2.091 . S
O282 C288 1.261 . S
C283 O292 1.247 . S
C283 O293 1.272 . S
O284 Co280 2.004 . S
O284 C289 1.259 . S
Co285 O286 2.061 . S
Co285 O291 2.052 . S
Co285 O293 2.135 . S
O286 Co285 2.061 . S
O286 C289 1.235 . S
C287 O290 1.238 . S
C287 O291 1.241 . S
C288 O281 1.247 . S
C288 O282 1.261 . S
C289 O284 1.259 . S
C289 O286 1.235 . S
O290 Co280 2.021 . S
O290 C287 1.238 . S
O291 Co285 2.052 . S
O291 C287 1.241 . S
O292 Co280 2.137 . S
O292 C283 1.247 . S
O293 Co280 2.244 . S
O293 C283 1.272 . S
O293 Co285 2.135 . S
Co294 O295 2.216 . S
Co294 O296 2.091 . S
Co294 O298 2.004 . S
Co294 O304 2.021 . S
Co294 O306 2.137 . S
Co294 O307 2.244 . S
O295 Co294 2.216 . S
O295 C302 1.247 . S
O296 Co294 2.091 . S
O296 C302 1.261 . S
C297 O306 1.247 . S
C297 O307 1.272 . S
O298 Co294 2.004 . S
O298 C303 1.259 . S
Co299 O300 2.061 . S
Co299 O305 2.052 . S
Co299 O307 2.135 . S
O300 Co299 2.061 . S
O300 C303 1.235 . S
C301 O304 1.238 . S
C301 O305 1.241 . S
C302 O295 1.247 . S
C302 O296 1.261 . S
C303 O298 1.259 . S
C303 O300 1.235 . S
O304 Co294 2.021 . S
O304 C301 1.238 . S
O305 Co299 2.052 . S
O305 C301 1.241 . S
O306 Co294 2.137 . S
O306 C297 1.247 . S
O307 Co294 2.244 . S
O307 C297 1.272 . S
O307 Co299 2.135 . S
Co308 O309 2.216 . S
Co308 O310 2.091 . S
Co308 O312 2.004 . S
Co308 O318 2.021 . S
Co308 O320 2.137 . S
Co308 O321 2.244 . S
O309 Co308 2.216 . S
O309 C316 1.247 . S
O310 Co308 2.091 . S
O310 C316 1.261 . S
C311 O320 1.247 . S
C311 O321 1.272 . S
O312 Co308 2.004 . S
O312 C317 1.259 . S
Co313 O314 2.061 . S
Co313 O319 2.052 . S
Co313 O321 2.135 . S
O314 Co313 2.061 . S
O314 C317 1.235 . S
C315 O318 1.238 . S
C315 O319 1.241 . S
C316 O309 1.247 . S
C316 O310 1.261 . S
C317 O312 1.259 . S
C317 O314 1.235 . S
O318 Co308 2.021 . S
O318 C315 1.238 . S
O319 Co313 2.052 . S
O319 C315 1.241 . S
O320 Co308 2.137 . S
O320 C311 1.247 . S
O321 Co308 2.244 . S
O321 C311 1.272 . S
O321 Co313 2.135 . S
Co322 O323 2.216 . S
Co322 O324 2.091 . S
Co322 O326 2.004 . S
Co322 O332 2.021 . S
Co322 O334 2.137 . S
Co322 O335 2.244 . S
O323 Co322 2.216 . S
O323 C330 1.247 . S
O324 Co322 2.091 . S
O324 C330 1.261 . S
C325 O334 1.247 . S
C325 O335 1.272 . S
O326 Co322 2.004 . S
O326 C331 1.259 . S
Co327 O328 2.061 . S
Co327 O333 2.052 . S
Co327 O335 2.135 . S
O328 Co327 2.061 . S
O328 C331 1.235 . S
C329 O332 1.238 . S
C329 O333 1.241 . S
C330 O323 1.247 . S
C330 O324 1.261 . S
C331 O326 1.259 . S
C331 O328 1.235 . S
O332 Co322 2.021 . S
O332 C329 1.238 . S
O333 Co327 2.052 . S
O333 C329 1.241 . S
O334 Co322 2.137 . S
O334 C325 1.247 . S
O335 Co322 2.244 . S
O335 C325 1.272 . S
O335 Co327 2.135 . S
Co336 O337 2.216 . S
Co336 O338 2.091 . S
Co336 O340 2.004 . S
Co336 O346 2.021 . S
Co336 O348 2.137 . S
Co336 O349 2.244 . S
O337 Co336 2.216 . S
O337 C344 1.247 . S
O338 Co336 2.091 . S
O338 C344 1.261 . S
C339 O348 1.247 . S
C339 O349 1.272 . S
O340 Co336 2.004 . S
O340 C345 1.259 . S
Co341 O342 2.061 . S
Co341 O347 2.052 . S
Co341 O349 2.135 . S
O342 Co341 2.061 . S
O342 C345 1.235 . S
C343 O346 1.238 . S
C343 O347 1.241 . S
C344 O337 1.247 . S
C344 O338 1.261 . S
C345 O340 1.259 . S
C345 O342 1.235 . S
O346 Co336 2.021 . S
O346 C343 1.238 . S
O347 Co341 2.052 . S
O347 C343 1.241 . S
O348 Co336 2.137 . S
O348 C339 1.247 . S
O349 Co336 2.244 . S
O349 C339 1.272 . S
O349 Co341 2.135 . S
Co350 O351 2.216 . S
Co350 O352 2.091 . S
Co350 O354 2.004 . S
Co350 O360 2.021 . S
Co350 O362 2.137 . S
Co350 O363 2.244 . S
O351 Co350 2.216 . S
O351 C358 1.247 . S
O352 Co350 2.091 . S
O352 C358 1.261 . S
C353 O362 1.247 . S
C353 O363 1.272 . S
O354 Co350 2.004 . S
O354 C359 1.259 . S
Co355 O356 2.061 . S
Co355 O361 2.052 . S
Co355 O363 2.135 . S
O356 Co355 2.061 . S
O356 C359 1.235 . S
C357 O360 1.238 . S
C357 O361 1.241 . S
C358 O351 1.247 . S
C358 O352 1.261 . S
C359 O354 1.259 . S
C359 O356 1.235 . S
O360 Co350 2.021 . S
O360 C357 1.238 . S
O361 Co355 2.052 . S
O361 C357 1.241 . S
O362 Co350 2.137 . S
O362 C353 1.247 . S
O363 Co350 2.244 . S
O363 C353 1.272 . S
O363 Co355 2.135 . S
Co364 O365 2.216 . S
Co364 O366 2.091 . S
Co364 O368 2.004 . S
Co364 O374 2.021 . S
Co364 O376 2.137 . S
Co364 O377 2.244 . S
O365 Co364 2.216 . S
O365 C372 1.247 . S
O366 Co364 2.091 . S
O366 C372 1.261 . S
C367 O376 1.247 . S
C367 O377 1.272 . S
O368 Co364 2.004 . S
O368 C373 1.259 . S
Co369 O370 2.061 . S
Co369 O375 2.052 . S
Co369 O377 2.135 . S
O370 Co369 2.061 . S
O370 C373 1.235 . S
C371 O374 1.238 . S
C371 O375 1.241 . S
C372 O365 1.247 . S
C372 O366 1.261 . S
C373 O368 1.259 . S
C373 O370 1.235 . S
O374 Co364 2.021 . S
O374 C371 1.238 . S
O375 Co369 2.052 . S
O375 C371 1.241 . S
O376 Co364 2.137 . S
O376 C367 1.247 . S
O377 Co364 2.244 . S
O377 C367 1.272 . S
O377 Co369 2.135 . S
Co378 O379 2.216 . S
Co378 O380 2.091 . S
Co378 O382 2.004 . S
Co378 O388 2.021 . S
Co378 O390 2.137 . S
Co378 O391 2.244 . S
O379 Co378 2.216 . S
O379 C386 1.247 . S
O380 Co378 2.091 . S
O380 C386 1.261 . S
C381 O390 1.247 . S
C381 O391 1.272 . S
O382 Co378 2.004 . S
O382 C387 1.259 . S
Co383 O384 2.061 . S
Co383 O389 2.052 . S
Co383 O391 2.135 . S
O384 Co383 2.061 . S
O384 C387 1.235 . S
C385 O388 1.238 . S
C385 O389 1.241 . S
C386 O379 1.247 . S
C386 O380 1.261 . S
C387 O382 1.259 . S
C387 O384 1.235 . S
O388 Co378 2.021 . S
O388 C385 1.238 . S
O389 Co383 2.052 . S
O389 C385 1.241 . S
O390 Co378 2.137 . S
O390 C381 1.247 . S
O391 Co378 2.244 . S
O391 C381 1.272 . S
O391 Co383 2.135 . S
Co392 O393 2.216 . S
Co392 O394 2.091 . S
Co392 O396 2.004 . S
Co392 O402 2.021 . S
Co392 O404 2.137 . S
Co392 O405 2.244 . S
O393 Co392 2.216 . S
O393 C400 1.247 . S
O394 Co392 2.091 . S
O394 C400 1.261 . S
C395 O404 1.247 . S
C395 O405 1.272 . S
O396 Co392 2.004 . S
O396 C401 1.259 . S
Co397 O398 2.061 . S
Co397 O403 2.052 . S
Co397 O405 2.135 . S
O398 Co397 2.061 . S
O398 C401 1.235 . S
C399 O402 1.238 . S
C399 O403 1.241 . S
C400 O393 1.247 . S
C400 O394 1.261 . S
C401 O396 1.259 . S
C401 O398 1.235 . S
O402 Co392 2.021 . S
O402 C399 1.238 . S
O403 Co397 2.052 . S
O403 C399 1.241 . S
O404 Co392 2.137 . S
O404 C395 1.247 . S
O405 Co392 2.244 . S
O405 C395 1.272 . S
O405 Co397 2.135 . S
Co406 O407 2.216 . S
Co406 O408 2.091 . S
Co406 O410 2.004 . S
Co406 O416 2.021 . S
Co406 O418 2.137 . S
Co406 O419 2.244 . S
O407 Co406 2.216 . S
O407 C414 1.247 . S
O408 Co406 2.091 . S
O408 C414 1.261 . S
C409 O418 1.247 . S
C409 O419 1.272 . S
O410 Co406 2.004 . S
O410 C415 1.259 . S
Co411 O412 2.061 . S
Co411 O417 2.052 . S
Co411 O419 2.135 . S
O412 Co411 2.061 . S
O412 C415 1.235 . S
C413 O416 1.238 . S
C413 O417 1.241 . S
C414 O407 1.247 . S
C414 O408 1.261 . S
C415 O410 1.259 . S
C415 O412 1.235 . S
O416 Co406 2.021 . S
O416 C413 1.238 . S
O417 Co411 2.052 . S
O417 C413 1.241 . S
O418 Co406 2.137 . S
O418 C409 1.247 . S
O419 Co406 2.244 . S
O419 C409 1.272 . S
O419 Co411 2.135 . S
Co420 O421 2.216 . S
Co420 O422 2.091 . S
Co420 O424 2.004 . S
Co420 O430 2.021 . S
Co420 O432 2.137 . S
Co420 O433 2.244 . S
O421 Co420 2.216 . S
O421 C428 1.247 . S
O422 Co420 2.091 . S
O422 C428 1.261 . S
C423 O432 1.247 . S
C423 O433 1.272 . S
O424 Co420 2.004 . S
O424 C429 1.259 . S
Co425 O426 2.061 . S
Co425 O431 2.052 . S
Co425 O433 2.135 . S
O426 Co425 2.061 . S
O426 C429 1.235 . S
C427 O430 1.238 . S
C427 O431 1.241 . S
C428 O421 1.247 . S
C428 O422 1.261 . S
C429 O424 1.259 . S
C429 O426 1.235 . S
O430 Co420 2.021 . S
O430 C427 1.238 . S
O431 Co425 2.052 . S
O431 C427 1.241 . S
O432 Co420 2.137 . S
O432 C423 1.247 . S
O433 Co420 2.244 . S
O433 C423 1.272 . S
O433 Co425 2.135 . S
Co434 O435 2.216 . S
Co434 O436 2.091 . S
Co434 O438 2.004 . S
Co434 O444 2.021 . S
Co434 O446 2.137 . S
Co434 O447 2.244 . S
O435 Co434 2.216 . S
O435 C442 1.247 . S
O436 Co434 2.091 . S
O436 C442 1.261 . S
C437 O446 1.247 . S
C437 O447 1.272 . S
O438 Co434 2.004 . S
O438 C443 1.259 . S
Co439 O440 2.061 . S
Co439 O445 2.052 . S
Co439 O447 2.135 . S
O440 Co439 2.061 . S
O440 C443 1.235 . S
C441 O444 1.238 . S
C441 O445 1.241 . S
C442 O435 1.247 . S
C442 O436 1.261 . S
C443 O438 1.259 . S
C443 O440 1.235 . S
O444 Co434 2.021 . S
O444 C441 1.238 . S
O445 Co439 2.052 . S
O445 C441 1.241 . S
O446 Co434 2.137 . S
O446 C437 1.247 . S
O447 Co434 2.244 . S
O447 C437 1.272 . S
O447 Co439 2.135 . S
Co448 O449 2.216 . S
Co448 O450 2.091 . S
Co448 O452 2.004 . S
Co448 O458 2.021 . S
Co448 O460 2.137 . S
Co448 O461 2.244 . S
O449 Co448 2.216 . S
O449 C456 1.247 . S
O450 Co448 2.091 . S
O450 C456 1.261 . S
C451 O460 1.247 . S
C451 O461 1.272 . S
O452 Co448 2.004 . S
O452 C457 1.259 . S
Co453 O454 2.061 . S
Co453 O459 2.052 . S
Co453 O461 2.135 . S
O454 Co453 2.061 . S
O454 C457 1.235 . S
C455 O458 1.238 . S
C455 O459 1.241 . S
C456 O449 1.247 . S
C456 O450 1.261 . S
C457 O452 1.259 . S
C457 O454 1.235 . S
O458 Co448 2.021 . S
O458 C455 1.238 . S
O459 Co453 2.052 . S
O459 C455 1.241 . S
O460 Co448 2.137 . S
O460 C451 1.247 . S
O461 Co448 2.244 . S
O461 C451 1.272 . S
O461 Co453 2.135 . S
Co462 O463 2.216 . S
Co462 O464 2.091 . S
Co462 O466 2.004 . S
Co462 O472 2.021 . S
Co462 O474 2.137 . S
Co462 O475 2.244 . S
O463 Co462 2.216 . S
O463 C470 1.247 . S
O464 Co462 2.091 . S
O464 C470 1.261 . S
C465 O474 1.247 . S
C465 O475 1.272 . S
O466 Co462 2.004 . S
O466 C471 1.259 . S
Co467 O468 2.061 . S
Co467 O473 2.052 . S
Co467 O475 2.135 . S
O468 Co467 2.061 . S
O468 C471 1.235 . S
C469 O472 1.238 . S
C469 O473 1.241 . S
C470 O463 1.247 . S
C470 O464 1.261 . S
C471 O466 1.259 . S
C471 O468 1.235 . S
O472 Co462 2.021 . S
O472 C469 1.238 . S
O473 Co467 2.052 . S
O473 C469 1.241 . S
O474 Co462 2.137 . S
O474 C465 1.247 . S
O475 Co462 2.244 . S
O475 C465 1.272 . S
O475 Co467 2.135 . S
Co476 O477 2.216 . S
Co476 O478 2.091 . S
Co476 O480 2.004 . S
Co476 O486 2.021 . S
Co476 O488 2.137 . S
Co476 O489 2.244 . S
O477 Co476 2.216 . S
O477 C484 1.247 . S
O478 Co476 2.091 . S
O478 C484 1.261 . S
C479 O488 1.247 . S
C479 O489 1.272 . S
O480 Co476 2.004 . S
O480 C485 1.259 . S
Co481 O482 2.061 . S
Co481 O487 2.052 . S
Co481 O489 2.135 . S
O482 Co481 2.061 . S
O482 C485 1.235 . S
C483 O486 1.238 . S
C483 O487 1.241 . S
C484 O477 1.247 . S
C484 O478 1.261 . S
C485 O480 1.259 . S
C485 O482 1.235 . S
O486 Co476 2.021 . S
O486 C483 1.238 . S
O487 Co481 2.052 . S
O487 C483 1.241 . S
O488 Co476 2.137 . S
O488 C479 1.247 . S
O489 Co476 2.244 . S
O489 C479 1.272 . S
O489 Co481 2.135 . S
Co490 O491 2.216 . S
Co490 O492 2.091 . S
Co490 O494 2.004 . S
Co490 O500 2.021 . S
Co490 O502 2.137 . S
Co490 O503 2.244 . S
O491 Co490 2.216 . S
O491 C498 1.247 . S
O492 Co490 2.091 . S
O492 C498 1.261 . S
C493 O502 1.247 . S
C493 O503 1.272 . S
O494 Co490 2.004 . S
O494 C499 1.259 . S
Co495 O496 2.061 . S
Co495 O501 2.052 . S
Co495 O503 2.135 . S
O496 Co495 2.061 . S
O496 C499 1.235 . S
C497 O500 1.238 . S
C497 O501 1.241 . S
C498 O491 1.247 . S
C498 O492 1.261 . S
C499 O494 1.259 . S
C499 O496 1.235 . S
O500 Co490 2.021 . S
O500 C497 1.238 . S
O501 Co495 2.052 . S
O501 C497 1.241 . S
O502 Co490 2.137 . S
O502 C493 1.247 . S
O503 Co490 2.244 . S
O503 C493 1.272 . S
O503 Co495 2.135 . S
Co504 O505 2.216 . S
Co504 O506 2.091 . S
Co504 O508 2.004 . S
Co504 O514 2.021 . S
Co504 O516 2.137 . S
Co504 O517 2.244 . S
O505 Co504 2.216 . S
O505 C512 1.247 . S
O506 Co504 2.091 . S
O506 C512 1.261 . S
C507 O516 1.247 . S
C507 O517 1.272 . S
O508 Co504 2.004 . S
O508 C513 1.259 . S
Co509 O510 2.061 . S
Co509 O515 2.052 . S
Co509 O517 2.135 . S
O510 Co509 2.061 . S
O510 C513 1.235 . S
C511 O514 1.238 . S
C511 O515 1.241 . S
C512 O505 1.247 . S
C512 O506 1.261 . S
C513 O508 1.259 . S
C513 O510 1.235 . S
O514 Co504 2.021 . S
O514 C511 1.238 . S
O515 Co509 2.052 . S
O515 C511 1.241 . S
O516 Co504 2.137 . S
O516 C507 1.247 . S
O517 Co504 2.244 . S
O517 C507 1.272 . S
O517 Co509 2.135 . S
Co518 O519 2.216 . S
Co518 O520 2.091 . S
Co518 O522 2.004 . S
Co518 O528 2.021 . S
Co518 O530 2.137 . S
Co518 O531 2.244 . S
O519 Co518 2.216 . S
O519 C526 1.247 . S
O520 Co518 2.091 . S
O520 C526 1.261 . S
C521 O530 1.247 . S
C521 O531 1.272 . S
O522 Co518 2.004 . S
O522 C527 1.259 . S
Co523 O524 2.061 . S
Co523 O529 2.052 . S
Co523 O531 2.135 . S
O524 Co523 2.061 . S
O524 C527 1.235 . S
C525 O528 1.238 . S
C525 O529 1.241 . S
C526 O519 1.247 . S
C526 O520 1.261 . S
C527 O522 1.259 . S
C527 O524 1.235 . S
O528 Co518 2.021 . S
O528 C525 1.238 . S
O529 Co523 2.052 . S
O529 C525 1.241 . S
O530 Co518 2.137 . S
O530 C521 1.247 . S
O531 Co518 2.244 . S
O531 C521 1.272 . S
O531 Co523 2.135 . S
Co532 O533 2.216 . S
Co532 O534 2.091 . S
Co532 O536 2.004 . S
Co532 O542 2.021 . S
Co532 O544 2.137 . S
Co532 O545 2.244 . S
O533 Co532 2.216 . S
O533 C540 1.247 . S
O534 Co532 2.091 . S
O534 C540 1.261 . S
C535 O544 1.247 . S
C535 O545 1.272 . S
O536 Co532 2.004 . S
O536 C541 1.259 . S
Co537 O538 2.061 . S
Co537 O543 2.052 . S
Co537 O545 2.135 . S
O538 Co537 2.061 . S
O538 C541 1.235 . S
C539 O542 1.238 . S
C539 O543 1.241 . S
C540 O533 1.247 . S
C540 O534 1.261 . S
C541 O536 1.259 . S
C541 O538 1.235 . S
O542 Co532 2.021 . S
O542 C539 1.238 . S
O543 Co537 2.052 . S
O543 C539 1.241 . S
O544 Co532 2.137 . S
O544 C535 1.247 . S
O545 Co532 2.244 . S
O545 C535 1.272 . S
O545 Co537 2.135 . S
Co546 O547 2.216 . S
Co546 O548 2.091 . S
Co546 O550 2.004 . S
Co546 O556 2.021 . S
Co546 O558 2.137 . S
Co546 O559 2.244 . S
O547 Co546 2.216 . S
O547 C554 1.247 . S
O548 Co546 2.091 . S
O548 C554 1.261 . S
C549 O558 1.247 . S
C549 O559 1.272 . S
O550 Co546 2.004 . S
O550 C555 1.259 . S
Co551 O552 2.061 . S
Co551 O557 2.052 . S
Co551 O559 2.135 . S
O552 Co551 2.061 . S
O552 C555 1.235 . S
C553 O556 1.238 . S
C553 O557 1.241 . S
C554 O547 1.247 . S
C554 O548 1.261 . S
C555 O550 1.259 . S
C555 O552 1.235 . S
O556 Co546 2.021 . S
O556 C553 1.238 . S
O557 Co551 2.052 . S
O557 C553 1.241 . S
O558 Co546 2.137 . S
O558 C549 1.247 . S
O559 Co546 2.244 . S
O559 C549 1.272 . S
O559 Co551 2.135 . S
Co560 O561 2.216 . S
Co560 O562 2.091 . S
Co560 O564 2.004 . S
Co560 O570 2.021 . S
Co560 O572 2.137 . S
Co560 O573 2.244 . S
O561 Co560 2.216 . S
O561 C568 1.247 . S
O562 Co560 2.091 . S
O562 C568 1.261 . S
C563 O572 1.247 . S
C563 O573 1.272 . S
O564 Co560 2.004 . S
O564 C569 1.259 . S
Co565 O566 2.061 . S
Co565 O571 2.052 . S
Co565 O573 2.135 . S
O566 Co565 2.061 . S
O566 C569 1.235 . S
C567 O570 1.238 . S
C567 O571 1.241 . S
C568 O561 1.247 . S
C568 O562 1.261 . S
C569 O564 1.259 . S
C569 O566 1.235 . S
O570 Co560 2.021 . S
O570 C567 1.238 . S
O571 Co565 2.052 . S
O571 C567 1.241 . S
O572 Co560 2.137 . S
O572 C563 1.247 . S
O573 Co560 2.244 . S
O573 C563 1.272 . S
O573 Co565 2.135 . S
Co574 O575 2.216 . S
Co574 O576 2.091 . S
Co574 O578 2.004 . S
Co574 O584 2.021 . S
Co574 O586 2.137 . S
Co574 O587 2.244 . S
O575 Co574 2.216 . S
O575 C582 1.247 . S
O576 Co574 2.091 . S
O576 C582 1.261 . S
C577 O586 1.247 . S
C577 O587 1.272 . S
O578 Co574 2.004 . S
O578 C583 1.259 . S
Co579 O580 2.061 . S
Co579 O585 2.052 . S
Co579 O587 2.135 . S
O580 Co579 2.061 . S
O580 C583 1.235 . S
C581 O584 1.238 . S
C581 O585 1.241 . S
C582 O575 1.247 . S
C582 O576 1.261 . S
C583 O578 1.259 . S
C583 O580 1.235 . S
O584 Co574 2.021 . S
O584 C581 1.238 . S
O585 Co579 2.052 . S
O585 C581 1.241 . S
O586 Co574 2.137 . S
O586 C577 1.247 . S
O587 Co574 2.244 . S
O587 C577 1.272 . S
O587 Co579 2.135 . S
Co588 O589 2.216 . S
Co588 O590 2.091 . S
Co588 O592 2.004 . S
Co588 O598 2.021 . S
Co588 O600 2.137 . S
Co588 O601 2.244 . S
O589 Co588 2.216 . S
O589 C596 1.247 . S
O590 Co588 2.091 . S
O590 C596 1.261 . S
C591 O600 1.247 . S
C591 O601 1.272 . S
O592 Co588 2.004 . S
O592 C597 1.259 . S
Co593 O594 2.061 . S
Co593 O599 2.052 . S
Co593 O601 2.135 . S
O594 Co593 2.061 . S
O594 C597 1.235 . S
C595 O598 1.238 . S
C595 O599 1.241 . S
C596 O589 1.247 . S
C596 O590 1.261 . S
C597 O592 1.259 . S
C597 O594 1.235 . S
O598 Co588 2.021 . S
O598 C595 1.238 . S
O599 Co593 2.052 . S
O599 C595 1.241 . S
O600 Co588 2.137 . S
O600 C591 1.247 . S
O601 Co588 2.244 . S
O601 C591 1.272 . S
O601 Co593 2.135 . S
Co602 O603 2.216 . S
Co602 O604 2.091 . S
Co602 O606 2.004 . S
Co602 O612 2.021 . S
Co602 O614 2.137 . S
Co602 O615 2.244 . S
O603 Co602 2.216 . S
O603 C610 1.247 . S
O604 Co602 2.091 . S
O604 C610 1.261 . S
C605 O614 1.247 . S
C605 O615 1.272 . S
O606 Co602 2.004 . S
O606 C611 1.259 . S
Co607 O608 2.061 . S
Co607 O613 2.052 . S
Co607 O615 2.135 . S
O608 Co607 2.061 . S
O608 C611 1.235 . S
C609 O612 1.238 . S
C609 O613 1.241 . S
C610 O603 1.247 . S
C610 O604 1.261 . S
C611 O606 1.259 . S
C611 O608 1.235 . S
O612 Co602 2.021 . S
O612 C609 1.238 . S
O613 Co607 2.052 . S
O613 C609 1.241 . S
O614 Co602 2.137 . S
O614 C605 1.247 . S
O615 Co602 2.244 . S
O615 C605 1.272 . S
O615 Co607 2.135 . S
Co616 O617 2.216 . S
Co616 O618 2.091 . S
Co616 O620 2.004 . S
Co616 O626 2.021 . S
Co616 O628 2.137 . S
Co616 O629 2.244 . S
O617 Co616 2.216 . S
O617 C624 1.247 . S
O618 Co616 2.091 . S
O618 C624 1.261 . S
C619 O628 1.247 . S
C619 O629 1.272 . S
O620 Co616 2.004 . S
O620 C625 1.259 . S
Co621 O622 2.061 . S
Co621 O627 2.052 . S
Co621 O629 2.135 . S
O622 Co621 2.061 . S
O622 C625 1.235 . S
C623 O626 1.238 . S
C623 O627 1.241 . S
C624 O617 1.247 . S
C624 O618 1.261 . S
C625 O620 1.259 . S
C625 O622 1.235 . S
O626 Co616 2.021 . S
O626 C623 1.238 . S
O627 Co621 2.052 . S
O627 C623 1.241 . S
O628 Co616 2.137 . S
O628 C619 1.247 . S
O629 Co616 2.244 . S
O629 C619 1.272 . S
O629 Co621 2.135 . S
Co630 O631 2.216 . S
Co630 O632 2.091 . S
Co630 O634 2.004 . S
Co630 O640 2.021 . S
Co630 O642 2.137 . S
Co630 O643 2.244 . S
O631 Co630 2.216 . S
O631 C638 1.247 . S
O632 Co630 2.091 . S
O632 C638 1.261 . S
C633 O642 1.247 . S
C633 O643 1.272 . S
O634 Co630 2.004 . S
O634 C639 1.259 . S
Co635 O636 2.061 . S
Co635 O641 2.052 . S
Co635 O643 2.135 . S
O636 Co635 2.061 . S
O636 C639 1.235 . S
C637 O640 1.238 . S
C637 O641 1.241 . S
C638 O631 1.247 . S
C638 O632 1.261 . S
C639 O634 1.259 . S
C639 O636 1.235 . S
O640 Co630 2.021 . S
O640 C637 1.238 . S
O641 Co635 2.052 . S
O641 C637 1.241 . S
O642 Co630 2.137 . S
O642 C633 1.247 . S
O643 Co630 2.244 . S
O643 C633 1.272 . S
O643 Co635 2.135 . S
Co644 O645 2.216 . S
Co644 O646 2.091 . S
Co644 O648 2.004 . S
Co644 O654 2.021 . S
Co644 O656 2.137 . S
Co644 O657 2.244 . S
O645 Co644 2.216 . S
O645 C652 1.247 . S
O646 Co644 2.091 . S
O646 C652 1.261 . S
C647 O656 1.247 . S
C647 O657 1.272 . S
O648 Co644 2.004 . S
O648 C653 1.259 . S
Co649 O650 2.061 . S
Co649 O655 2.052 . S
Co649 O657 2.135 . S
O650 Co649 2.061 . S
O650 C653 1.235 . S
C651 O654 1.238 . S
C651 O655 1.241 . S
C652 O645 1.247 . S
C652 O646 1.261 . S
C653 O648 1.259 . S
C653 O650 1.235 . S
O654 Co644 2.021 . S
O654 C651 1.238 . S
O655 Co649 2.052 . S
O655 C651 1.241 . S
O656 Co644 2.137 . S
O656 C647 1.247 . S
O657 Co644 2.244 . S
O657 C647 1.272 . S
O657 Co649 2.135 . S
Co658 O659 2.216 . S
Co658 O660 2.091 . S
Co658 O662 2.004 . S
Co658 O668 2.021 . S
Co658 O670 2.137 . S
Co658 O671 2.244 . S
O659 Co658 2.216 . S
O659 C666 1.247 . S
O660 Co658 2.091 . S
O660 C666 1.261 . S
C661 O670 1.247 . S
C661 O671 1.272 . S
O662 Co658 2.004 . S
O662 C667 1.259 . S
Co663 O664 2.061 . S
Co663 O669 2.052 . S
Co663 O671 2.135 . S
O664 Co663 2.061 . S
O664 C667 1.235 . S
C665 O668 1.238 . S
C665 O669 1.241 . S
C666 O659 1.247 . S
C666 O660 1.261 . S
C667 O662 1.259 . S
C667 O664 1.235 . S
O668 Co658 2.021 . S
O668 C665 1.238 . S
O669 Co663 2.052 . S
O669 C665 1.241 . S
O670 Co658 2.137 . S
O670 C661 1.247 . S
O671 Co658 2.244 . S
O671 C661 1.272 . S
O671 Co663 2.135 . S
H672 C684 0.930 . S
H673 C686 0.930 . S
H674 C687 0.930 . S
H675 C691 0.959 . S
H676 C691 0.959 . S
H677 C691 0.961 . S
H678 C692 0.960 . S
H679 C692 0.961 . S
H680 C692 0.959 . S
H681 C695 0.929 . S
H682 C696 0.931 . S
H683 C698 0.930 . S
C684 H672 0.930 . S
C684 C685 1.399 . S
C684 C689 1.399 . S
C685 C684 1.399 . S
C685 C686 1.376 . S
C686 H673 0.930 . S
C686 C685 1.376 . S
C686 C687 1.388 . S
C687 H674 0.930 . S
C687 C686 1.388 . S
C687 C688 1.390 . S
C688 C687 1.390 . S
C688 C689 1.394 . S
C688 C694 1.465 . S
C689 C684 1.399 . S
C689 C688 1.394 . S
C689 C690 1.516 . S
C690 C689 1.516 . S
C690 C691 1.502 . S
C690 C692 1.561 . S
C690 C693 1.526 . S
C691 H675 0.959 . S
C691 H676 0.959 . S
C691 H677 0.961 . S
C691 C690 1.502 . S
C692 H678 0.960 . S
C692 H679 0.961 . S
C692 H680 0.959 . S
C692 C690 1.561 . S
C693 C690 1.526 . S
C693 C694 1.396 . S
C693 C698 1.390 . S
C694 C688 1.465 . S
C694 C693 1.396 . S
C694 C695 1.399 . S
C695 H681 0.929 . S
C695 C694 1.399 . S
C695 C696 1.385 . S
C696 H682 0.931 . S
C696 C695 1.385 . S
C696 C697 1.389 . S
C697 C696 1.389 . S
C697 C698 1.387 . S
C698 H683 0.930 . S
C698 C693 1.390 . S
C698 C697 1.387 . S
H699 C711 0.930 . S
H700 C713 0.930 . S
H701 C714 0.930 1_655 S
H702 C718 0.959 . S
H703 C718 0.959 . S
H704 C718 0.961 1_455 S
H705 C719 0.960 . S
H706 C719 0.961 . S
H707 C719 0.959 . S
H708 C722 0.929 . S
H709 C723 0.931 . S
H710 C725 0.930 . S
C711 H699 0.930 . S
C711 C712 1.399 . S
C711 C716 1.446 . S
C712 C711 1.399 . S
C712 C713 1.376 . S
C713 H700 0.930 . S
C713 C712 1.376 . S
C713 C714 1.388 . S
C714 H701 0.930 1_455 S
C714 C713 1.388 . S
C714 C715 1.390 1_455 S
C715 C714 1.390 1_655 S
C715 C716 1.371 1_655 S
C715 C721 1.465 . S
C716 C711 1.446 . S
C716 C715 1.371 1_455 S
C716 C717 1.486 1_455 S
C717 C716 1.486 1_655 S
C717 C718 1.502 . S
C717 C719 1.561 . S
C717 C720 1.526 . S
C718 H702 0.959 . S
C718 H703 0.959 . S
C718 H704 0.961 1_655 S
C718 C717 1.502 . S
C719 H705 0.960 . S
C719 H706 0.961 . S
C719 H707 0.959 . S
C719 C717 1.561 . S
C720 C717 1.526 . S
C720 C721 1.396 . S
C720 C725 1.390 . S
C721 C715 1.465 . S
C721 C720 1.396 . S
C721 C722 1.399 . S
C722 H708 0.929 . S
C722 C721 1.399 . S
C722 C723 1.385 . S
C723 H709 0.931 . S
C723 C722 1.385 . S
C723 C724 1.389 . S
C724 C723 1.389 . S
C724 C725 1.387 . S
C725 H710 0.930 . S
C725 C720 1.390 . S
C725 C724 1.387 . S
H726 C738 0.930 . S
H727 C740 0.930 . S
H728 C741 0.930 . S
H729 C745 0.959 . S
H730 C745 0.959 . S
H731 C745 0.961 . S
H732 C746 0.960 . S
H733 C746 0.961 . S
H734 C746 0.959 . S
H735 C749 0.929 . S
H736 C750 0.931 . S
H737 C752 0.930 . S
C738 H726 0.930 . S
C738 C739 1.399 . S
C738 C743 1.399 . S
C739 C738 1.399 . S
C739 C740 1.376 . S
C740 H727 0.930 . S
C740 C739 1.376 . S
C740 C741 1.388 . S
C741 H728 0.930 . S
C741 C740 1.388 . S
C741 C742 1.390 . S
C742 C741 1.390 . S
C742 C743 1.394 . S
C742 C748 1.465 . S
C743 C738 1.399 . S
C743 C742 1.394 . S
C743 C744 1.516 . S
C744 C743 1.516 . S
C744 C745 1.502 . S
C744 C746 1.561 . S
C744 C747 1.526 . S
C745 H729 0.959 . S
C745 H730 0.959 . S
C745 H731 0.961 . S
C745 C744 1.502 . S
C746 H732 0.960 . S
C746 H733 0.961 . S
C746 H734 0.959 . S
C746 C744 1.561 . S
C747 C744 1.526 . S
C747 C748 1.396 . S
C747 C752 1.390 . S
C748 C742 1.465 . S
C748 C747 1.396 . S
C748 C749 1.399 . S
C749 H735 0.929 . S
C749 C748 1.399 . S
C749 C750 1.385 . S
C750 H736 0.931 . S
C750 C749 1.385 . S
C750 C751 1.389 . S
C751 C750 1.389 . S
C751 C752 1.387 . S
C752 H737 0.930 . S
C752 C747 1.390 . S
C752 C751 1.387 . S
H753 C765 0.930 . S
H754 C767 0.930 . S
H755 C768 0.930 . S
H756 C772 0.959 . S
H757 C772 0.959 . S
H758 C772 0.961 . S
H759 C773 0.960 . S
H760 C773 0.961 . S
H761 C773 0.959 . S
H762 C776 0.929 . S
H763 C777 0.931 . S
H764 C779 0.930 . S
C765 H753 0.930 . S
C765 C766 1.399 . S
C765 C770 1.399 . S
C766 C765 1.399 . S
C766 C767 1.376 . S
C767 H754 0.930 . S
C767 C766 1.376 . S
C767 C768 1.388 . S
C768 H755 0.930 . S
C768 C767 1.388 . S
C768 C769 1.390 . S
C769 C768 1.390 . S
C769 C770 1.394 . S
C769 C775 1.465 . S
C770 C765 1.399 . S
C770 C769 1.394 . S
C770 C771 1.516 . S
C771 C770 1.516 . S
C771 C772 1.502 . S
C771 C773 1.561 . S
C771 C774 1.526 . S
C772 H756 0.959 . S
C772 H757 0.959 . S
C772 H758 0.961 . S
C772 C771 1.502 . S
C773 H759 0.960 . S
C773 H760 0.961 . S
C773 H761 0.959 . S
C773 C771 1.561 . S
C774 C771 1.526 . S
C774 C775 1.396 . S
C774 C779 1.390 . S
C775 C769 1.465 . S
C775 C774 1.396 . S
C775 C776 1.399 . S
C776 H762 0.929 . S
C776 C775 1.399 . S
C776 C777 1.385 . S
C777 H763 0.931 . S
C777 C776 1.385 . S
C777 C778 1.389 . S
C778 C777 1.389 . S
C778 C779 1.387 . S
C779 H764 0.930 . S
C779 C774 1.390 . S
C779 C778 1.387 . S
H780 C792 0.930 . S
H781 C794 0.930 . S
H782 C795 0.930 . S
H783 C799 0.959 . S
H784 C799 0.959 . S
H785 C799 0.961 . S
H786 C800 0.960 . S
H787 C800 0.961 . S
H788 C800 0.959 . S
H789 C803 0.929 . S
H790 C804 0.931 . S
H791 C806 0.930 . S
C792 H780 0.930 . S
C792 C793 1.399 . S
C792 C797 1.399 . S
C793 C792 1.399 . S
C793 C794 1.376 . S
C794 H781 0.930 . S
C794 C793 1.376 . S
C794 C795 1.388 . S
C795 H782 0.930 . S
C795 C794 1.388 . S
C795 C796 1.390 . S
C796 C795 1.390 . S
C796 C797 1.394 . S
C796 C802 1.465 . S
C797 C792 1.399 . S
C797 C796 1.394 . S
C797 C798 1.516 . S
C798 C797 1.516 . S
C798 C799 1.502 . S
C798 C800 1.561 . S
C798 C801 1.526 . S
C799 H783 0.959 . S
C799 H784 0.959 . S
C799 H785 0.961 . S
C799 C798 1.502 . S
C800 H786 0.960 . S
C800 H787 0.961 . S
C800 H788 0.959 . S
C800 C798 1.561 . S
C801 C798 1.526 . S
C801 C802 1.396 . S
C801 C806 1.390 . S
C802 C796 1.465 . S
C802 C801 1.396 . S
C802 C803 1.399 . S
C803 H789 0.929 . S
C803 C802 1.399 . S
C803 C804 1.385 . S
C804 H790 0.931 . S
C804 C803 1.385 . S
C804 C805 1.389 . S
C805 C804 1.389 . S
C805 C806 1.387 . S
C806 H791 0.930 . S
C806 C801 1.390 . S
C806 C805 1.387 . S
H807 C819 0.930 . S
H808 C821 0.930 . S
H809 C822 0.930 . S
H810 C826 0.959 . S
H811 C826 0.959 . S
H812 C826 0.961 . S
H813 C827 0.960 . S
H814 C827 0.961 . S
H815 C827 0.959 . S
H816 C830 0.929 . S
H817 C831 0.931 . S
H818 C833 0.930 . S
C819 H807 0.930 . S
C819 C820 1.399 . S
C819 C824 1.399 . S
C820 C819 1.399 . S
C820 C821 1.376 . S
C821 H808 0.930 . S
C821 C820 1.376 . S
C821 C822 1.388 . S
C822 H809 0.930 . S
C822 C821 1.388 . S
C822 C823 1.390 . S
C823 C822 1.390 . S
C823 C824 1.394 . S
C823 C829 1.465 . S
C824 C819 1.399 . S
C824 C823 1.394 . S
C824 C825 1.516 . S
C825 C824 1.516 . S
C825 C826 1.502 . S
C825 C827 1.561 . S
C825 C828 1.526 . S
C826 H810 0.959 . S
C826 H811 0.959 . S
C826 H812 0.961 . S
C826 C825 1.502 . S
C827 H813 0.960 . S
C827 H814 0.961 . S
C827 H815 0.959 . S
C827 C825 1.561 . S
C828 C825 1.526 . S
C828 C829 1.396 . S
C828 C833 1.390 . S
C829 C823 1.465 . S
C829 C828 1.396 . S
C829 C830 1.399 . S
C830 H816 0.929 . S
C830 C829 1.399 . S
C830 C831 1.385 . S
C831 H817 0.931 . S
C831 C830 1.385 . S
C831 C832 1.389 . S
C832 C831 1.389 . S
C832 C833 1.387 . S
C833 H818 0.930 . S
C833 C828 1.390 . S
C833 C832 1.387 . S
H834 C846 0.930 . S
H835 C848 0.930 . S
H836 C849 0.930 . S
H837 C853 0.959 . S
H838 C853 0.959 . S
H839 C853 0.961 . S
H840 C854 0.960 . S
H841 C854 0.961 . S
H842 C854 0.959 . S
H843 C857 0.929 . S
H844 C858 0.931 . S
H845 C860 0.930 . S
C846 H834 0.930 . S
C846 C847 1.399 . S
C846 C851 1.399 . S
C847 C846 1.399 . S
C847 C848 1.376 . S
C848 H835 0.930 . S
C848 C847 1.376 . S
C848 C849 1.388 . S
C849 H836 0.930 . S
C849 C848 1.388 . S
C849 C850 1.390 . S
C850 C849 1.390 . S
C850 C851 1.394 . S
C850 C856 1.465 . S
C851 C846 1.399 . S
C851 C850 1.394 . S
C851 C852 1.516 . S
C852 C851 1.516 . S
C852 C853 1.502 . S
C852 C854 1.561 . S
C852 C855 1.526 . S
C853 H837 0.959 . S
C853 H838 0.959 . S
C853 H839 0.961 . S
C853 C852 1.502 . S
C854 H840 0.960 . S
C854 H841 0.961 . S
C854 H842 0.959 . S
C854 C852 1.561 . S
C855 C852 1.526 . S
C855 C856 1.396 . S
C855 C860 1.390 . S
C856 C850 1.465 . S
C856 C855 1.396 . S
C856 C857 1.399 . S
C857 H843 0.929 . S
C857 C856 1.399 . S
C857 C858 1.385 . S
C858 H844 0.931 . S
C858 C857 1.385 . S
C858 C859 1.389 . S
C859 C858 1.389 . S
C859 C860 1.387 . S
C860 H845 0.930 . S
C860 C855 1.390 . S
C860 C859 1.387 . S
H861 C873 0.930 . S
H862 C875 0.930 . S
H863 C876 0.930 . S
H864 C880 0.959 . S
H865 C880 0.959 . S
H866 C880 0.961 . S
H867 C881 0.960 . S
H868 C881 0.961 . S
H869 C881 0.959 . S
H870 C884 0.929 . S
H871 C885 0.931 . S
H872 C887 0.930 . S
C873 H861 0.930 . S
C873 C874 1.399 . S
C873 C878 1.399 1_455 S
C874 C873 1.399 . S
C874 C875 1.376 . S
C875 H862 0.930 . S
C875 C874 1.376 . S
C875 C876 1.388 . S
C876 H863 0.930 . S
C876 C875 1.388 . S
C876 C877 1.390 1_455 S
C877 C876 1.390 1_655 S
C877 C878 1.394 . S
C877 C883 1.465 . S
C878 C873 1.399 1_655 S
C878 C877 1.394 . S
C878 C879 1.516 . S
C879 C878 1.516 . S
C879 C880 1.502 . S
C879 C881 1.561 . S
C879 C882 1.526 . S
C880 H864 0.959 . S
C880 H865 0.959 . S
C880 H866 0.961 . S
C880 C879 1.502 . S
C881 H867 0.960 . S
C881 H868 0.961 . S
C881 H869 0.959 . S
C881 C879 1.561 . S
C882 C879 1.526 . S
C882 C883 1.396 . S
C882 C887 1.390 . S
C883 C877 1.465 . S
C883 C882 1.396 . S
C883 C884 1.399 . S
C884 H870 0.929 . S
C884 C883 1.399 . S
C884 C885 1.385 . S
C885 H871 0.931 . S
C885 C884 1.385 . S
C885 C886 1.389 . S
C886 C885 1.389 . S
C886 C887 1.387 . S
C887 H872 0.930 . S
C887 C882 1.390 . S
C887 C886 1.387 . S
H888 C900 0.930 . S
H889 C902 0.930 . S
H890 C903 0.930 . S
H891 C907 0.959 . S
H892 C907 0.959 . S
H893 C907 0.961 . S
H894 C908 0.960 . S
H895 C908 0.961 . S
H896 C908 0.959 . S
H897 C911 0.929 . S
H898 C912 0.931 . S
H899 C914 0.930 . S
C900 H888 0.930 . S
C900 C901 1.399 . S
C900 C905 1.399 . S
C901 C900 1.399 . S
C901 C902 1.376 . S
C902 H889 0.930 . S
C902 C901 1.376 . S
C902 C903 1.388 . S
C903 H890 0.930 . S
C903 C902 1.388 . S
C903 C904 1.390 . S
C904 C903 1.390 . S
C904 C905 1.394 . S
C904 C910 1.465 . S
C905 C900 1.399 . S
C905 C904 1.394 . S
C905 C906 1.516 . S
C906 C905 1.516 . S
C906 C907 1.502 . S
C906 C908 1.561 . S
C906 C909 1.526 . S
C907 H891 0.959 . S
C907 H892 0.959 . S
C907 H893 0.961 . S
C907 C906 1.502 . S
C908 H894 0.960 . S
C908 H895 0.961 . S
C908 H896 0.959 . S
C908 C906 1.561 . S
C909 C906 1.526 . S
C909 C910 1.396 . S
C909 C914 1.390 . S
C910 C904 1.465 . S
C910 C909 1.396 . S
C910 C911 1.399 . S
C911 H897 0.929 . S
C911 C910 1.399 . S
C911 C912 1.385 . S
C912 H898 0.931 . S
C912 C911 1.385 . S
C912 C913 1.389 . S
C913 C912 1.389 . S
C913 C914 1.387 . S
C914 H899 0.930 . S
C914 C909 1.390 . S
C914 C913 1.387 . S
H915 C927 0.930 . S
H916 C929 0.930 . S
H917 C930 0.930 . S
H918 C934 0.959 . S
H919 C934 0.959 . S
H920 C934 0.961 . S
H921 C935 0.960 . S
H922 C935 0.961 . S
H923 C935 0.959 . S
H924 C938 0.929 . S
H925 C939 0.931 . S
H926 C941 0.930 . S
C927 H915 0.930 . S
C927 C928 1.399 . S
C927 C932 1.399 . S
C928 C927 1.399 . S
C928 C929 1.376 . S
C929 H916 0.930 . S
C929 C928 1.376 . S
C929 C930 1.388 . S
C930 H917 0.930 . S
C930 C929 1.388 . S
C930 C931 1.390 . S
C931 C930 1.390 . S
C931 C932 1.394 . S
C931 C937 1.465 . S
C932 C927 1.399 . S
C932 C931 1.394 . S
C932 C933 1.516 . S
C933 C932 1.516 . S
C933 C934 1.502 . S
C933 C935 1.561 . S
C933 C936 1.526 . S
C934 H918 0.959 . S
C934 H919 0.959 . S
C934 H920 0.961 . S
C934 C933 1.502 . S
C935 H921 0.960 . S
C935 H922 0.961 . S
C935 H923 0.959 . S
C935 C933 1.561 . S
C936 C933 1.526 . S
C936 C937 1.396 . S
C936 C941 1.390 . S
C937 C931 1.465 . S
C937 C936 1.396 . S
C937 C938 1.399 . S
C938 H924 0.929 . S
C938 C937 1.399 . S
C938 C939 1.385 . S
C939 H925 0.931 . S
C939 C938 1.385 . S
C939 C940 1.389 . S
C940 C939 1.389 . S
C940 C941 1.387 . S
C941 H926 0.930 . S
C941 C936 1.390 . S
C941 C940 1.387 . S
H942 C954 0.930 . S
H943 C956 0.930 . S
H944 C957 0.930 . S
H945 C961 0.959 . S
H946 C961 0.959 . S
H947 C961 0.961 . S
H948 C962 0.960 . S
H949 C962 0.961 . S
H950 C962 0.959 . S
H951 C965 0.929 . S
H952 C966 0.931 . S
H953 C968 0.930 . S
C954 H942 0.930 . S
C954 C955 1.399 . S
C954 C959 1.399 . S
C955 C954 1.399 . S
C955 C956 1.376 . S
C956 H943 0.930 . S
C956 C955 1.376 . S
C956 C957 1.388 . S
C957 H944 0.930 . S
C957 C956 1.388 . S
C957 C958 1.390 . S
C958 C957 1.390 . S
C958 C959 1.394 . S
C958 C964 1.465 . S
C959 C954 1.399 . S
C959 C958 1.394 . S
C959 C960 1.516 . S
C960 C959 1.516 . S
C960 C961 1.502 . S
C960 C962 1.561 . S
C960 C963 1.526 . S
C961 H945 0.959 . S
C961 H946 0.959 . S
C961 H947 0.961 . S
C961 C960 1.502 . S
C962 H948 0.960 . S
C962 H949 0.961 . S
C962 H950 0.959 . S
C962 C960 1.561 . S
C963 C960 1.526 . S
C963 C964 1.396 . S
C963 C968 1.390 . S
C964 C958 1.465 . S
C964 C963 1.396 . S
C964 C965 1.399 . S
C965 H951 0.929 . S
C965 C964 1.399 . S
C965 C966 1.385 . S
C966 H952 0.931 . S
C966 C965 1.385 . S
C966 C967 1.389 . S
C967 C966 1.389 . S
C967 C968 1.387 . S
C968 H953 0.930 . S
C968 C963 1.390 . S
C968 C967 1.387 . S
H969 C981 0.930 . S
H970 C983 0.930 . S
H971 C984 0.914 1_554 S
H972 C988 0.959 . S
H973 C988 0.959 . S
H974 C988 0.961 1_556 S
H975 C989 0.960 . S
H976 C989 0.961 . S
H977 C989 0.959 . S
H978 C992 0.929 . S
H979 C993 0.931 . S
H980 C995 0.930 . S
C981 H969 0.930 . S
C981 C982 1.399 . S
C981 C986 1.399 . S
C982 C981 1.399 . S
C982 C983 1.376 . S
C983 H970 0.930 . S
C983 C982 1.376 . S
C983 C984 1.388 . S
C984 H971 0.914 1_556 S
C984 C983 1.388 . S
C984 C985 1.390 1_556 S
C985 C984 1.390 1_554 S
C985 C986 1.394 1_554 S
C985 C991 1.465 . S
C986 C981 1.399 . S
C986 C985 1.394 1_556 S
C986 C987 1.516 1_556 S
C987 C986 1.516 1_554 S
C987 C988 1.502 . S
C987 C989 1.561 . S
C987 C990 1.526 . S
C988 H972 0.959 . S
C988 H973 0.959 . S
C988 H974 0.961 1_554 S
C988 C987 1.502 . S
C989 H975 0.960 . S
C989 H976 0.961 . S
C989 H977 0.959 . S
C989 C987 1.561 . S
C990 C987 1.526 . S
C990 C991 1.396 . S
C990 C995 1.390 . S
C991 C985 1.465 . S
C991 C990 1.396 . S
C991 C992 1.399 . S
C992 H978 0.929 . S
C992 C991 1.399 . S
C992 C993 1.385 . S
C993 H979 0.931 . S
C993 C992 1.385 . S
C993 C994 1.389 . S
C994 C993 1.389 . S
C994 C995 1.387 . S
C995 H980 0.930 . S
C995 C990 1.390 . S
C995 C994 1.387 . S
H996 C1008 0.930 . S
H997 C1010 0.930 . S
H998 C1011 0.930 . S
H999 C1015 0.959 . S
H1000 C1015 0.959 . S
H1001 C1015 0.961 . S
H1002 C1016 0.960 . S
H1003 C1016 0.961 . S
H1004 C1016 0.959 . S
H1005 C1019 0.929 . S
H1006 C1020 0.931 . S
H1007 C1022 0.930 . S
C1008 H996 0.930 . S
C1008 C1009 1.399 . S
C1008 C1013 1.399 . S
C1009 C1008 1.399 . S
C1009 C1010 1.376 . S
C1010 H997 0.930 . S
C1010 C1009 1.376 . S
C1010 C1011 1.388 . S
C1011 H998 0.930 . S
C1011 C1010 1.388 . S
C1011 C1012 1.390 . S
C1012 C1011 1.390 . S
C1012 C1013 1.394 . S
C1012 C1018 1.465 . S
C1013 C1008 1.399 . S
C1013 C1012 1.394 . S
C1013 C1014 1.516 . S
C1014 C1013 1.516 . S
C1014 C1015 1.502 . S
C1014 C1016 1.561 . S
C1014 C1017 1.526 . S
C1015 H999 0.959 . S
C1015 H1000 0.959 . S
C1015 H1001 0.961 . S
C1015 C1014 1.502 . S
C1016 H1002 0.960 . S
C1016 H1003 0.961 . S
C1016 H1004 0.959 . S
C1016 C1014 1.561 . S
C1017 C1014 1.526 . S
C1017 C1018 1.396 . S
C1017 C1022 1.390 . S
C1018 C1012 1.465 . S
C1018 C1017 1.396 . S
C1018 C1019 1.399 . S
C1019 H1005 0.929 . S
C1019 C1018 1.399 . S
C1019 C1020 1.385 . S
C1020 H1006 0.931 . S
C1020 C1019 1.385 . S
C1020 C1021 1.389 . S
C1021 C1020 1.389 . S
C1021 C1022 1.387 . S
C1022 H1007 0.930 . S
C1022 C1017 1.390 . S
C1022 C1021 1.387 . S
H1023 C1035 0.930 . S
H1024 C1037 0.930 . S
H1025 C1038 0.930 . S
H1026 C1042 0.959 . S
H1027 C1042 0.959 . S
H1028 C1042 0.961 . S
H1029 C1043 0.960 . S
H1030 C1043 0.961 . S
H1031 C1043 0.959 . S
H1032 C1046 0.929 . S
H1033 C1047 0.931 . S
H1034 C1049 0.930 . S
C1035 H1023 0.930 . S
C1035 C1036 1.399 . S
C1035 C1040 1.399 . S
C1036 C1035 1.399 . S
C1036 C1037 1.376 . S
C1037 H1024 0.930 . S
C1037 C1036 1.376 . S
C1037 C1038 1.388 . S
C1038 H1025 0.930 . S
C1038 C1037 1.388 . S
C1038 C1039 1.390 . S
C1039 C1038 1.390 . S
C1039 C1040 1.394 . S
C1039 C1045 1.465 . S
C1040 C1035 1.399 . S
C1040 C1039 1.394 . S
C1040 C1041 1.516 . S
C1041 C1040 1.516 . S
C1041 C1042 1.502 . S
C1041 C1043 1.561 . S
C1041 C1044 1.526 . S
C1042 H1026 0.959 . S
C1042 H1027 0.959 . S
C1042 H1028 0.961 . S
C1042 C1041 1.502 . S
C1043 H1029 0.960 . S
C1043 H1030 0.961 . S
C1043 H1031 0.959 . S
C1043 C1041 1.561 . S
C1044 C1041 1.526 . S
C1044 C1045 1.396 . S
C1044 C1049 1.390 . S
C1045 C1039 1.465 . S
C1045 C1044 1.396 . S
C1045 C1046 1.399 . S
C1046 H1032 0.929 . S
C1046 C1045 1.399 . S
C1046 C1047 1.385 . S
C1047 H1033 0.931 . S
C1047 C1046 1.385 . S
C1047 C1048 1.389 . S
C1048 C1047 1.389 . S
C1048 C1049 1.387 . S
C1049 H1034 0.930 . S
C1049 C1044 1.390 . S
C1049 C1048 1.387 . S
H1050 C1062 0.930 . S
H1051 C1064 0.930 . S
H1052 C1065 0.930 . S
H1053 C1069 0.959 . S
H1054 C1069 0.959 . S
H1055 C1069 0.961 . S
H1056 C1070 0.960 . S
H1057 C1070 0.961 . S
H1058 C1070 0.959 . S
H1059 C1073 0.929 . S
H1060 C1074 0.931 . S
H1061 C1076 0.930 . S
C1062 H1050 0.930 . S
C1062 C1063 1.399 . S
C1062 C1067 1.399 . S
C1063 C1062 1.399 . S
C1063 C1064 1.376 . S
C1064 H1051 0.930 . S
C1064 C1063 1.376 . S
C1064 C1065 1.388 . S
C1065 H1052 0.930 . S
C1065 C1064 1.388 . S
C1065 C1066 1.390 . S
C1066 C1065 1.390 . S
C1066 C1067 1.394 . S
C1066 C1072 1.465 . S
C1067 C1062 1.399 . S
C1067 C1066 1.394 . S
C1067 C1068 1.516 . S
C1068 C1067 1.516 . S
C1068 C1069 1.502 . S
C1068 C1070 1.561 . S
C1068 C1071 1.526 . S
C1069 H1053 0.959 . S
C1069 H1054 0.959 . S
C1069 H1055 0.961 . S
C1069 C1068 1.502 . S
C1070 H1056 0.960 . S
C1070 H1057 0.961 . S
C1070 H1058 0.959 . S
C1070 C1068 1.561 . S
C1071 C1068 1.526 . S
C1071 C1072 1.396 . S
C1071 C1076 1.390 . S
C1072 C1066 1.465 . S
C1072 C1071 1.396 . S
C1072 C1073 1.399 . S
C1073 H1059 0.929 . S
C1073 C1072 1.399 . S
C1073 C1074 1.385 . S
C1074 H1060 0.931 . S
C1074 C1073 1.385 . S
C1074 C1075 1.389 . S
C1075 C1074 1.389 . S
C1075 C1076 1.387 . S
C1076 H1061 0.930 . S
C1076 C1071 1.390 . S
C1076 C1075 1.387 . S
H1077 C1089 0.930 . S
H1078 C1091 0.930 . S
H1079 C1092 0.930 1_556 S
H1080 C1096 0.959 . S
H1081 C1096 0.959 . S
H1082 C1096 0.961 1_554 S
H1083 C1097 0.960 1_554 S
H1084 C1097 0.961 . S
H1085 C1097 0.959 . S
H1086 C1100 0.929 . S
H1087 C1101 0.931 . S
H1088 C1103 0.930 . S
C1089 H1077 0.930 . S
C1089 C1090 1.399 . S
C1089 C1094 1.399 . S
C1090 C1089 1.399 . S
C1090 C1091 1.376 . S
C1091 H1078 0.930 . S
C1091 C1090 1.376 . S
C1091 C1092 1.388 . S
C1092 H1079 0.930 1_554 S
C1092 C1091 1.388 . S
C1092 C1093 1.390 1_554 S
C1093 C1092 1.390 1_556 S
C1093 C1094 1.394 1_556 S
C1093 C1099 1.465 . S
C1094 C1089 1.399 . S
C1094 C1093 1.394 1_554 S
C1094 C1095 1.516 1_554 S
C1095 C1094 1.516 1_556 S
C1095 C1096 1.502 . S
C1095 C1097 1.561 . S
C1095 C1098 1.526 . S
C1096 H1080 0.959 . S
C1096 H1081 0.959 . S
C1096 H1082 0.961 1_556 S
C1096 C1095 1.502 . S
C1097 H1083 0.960 1_556 S
C1097 H1084 0.961 . S
C1097 H1085 0.959 . S
C1097 C1095 1.561 . S
C1098 C1095 1.526 . S
C1098 C1099 1.396 . S
C1098 C1103 1.390 . S
C1099 C1093 1.465 . S
C1099 C1098 1.396 . S
C1099 C1100 1.399 . S
C1100 H1086 0.929 . S
C1100 C1099 1.399 . S
C1100 C1101 1.385 . S
C1101 H1087 0.931 . S
C1101 C1100 1.385 . S
C1101 C1102 1.389 . S
C1102 C1101 1.389 . S
C1102 C1103 1.387 . S
C1103 H1088 0.930 . S
C1103 C1098 1.390 . S
C1103 C1102 1.387 . S
H1104 C1116 0.930 . S
H1105 C1118 0.930 . S
H1106 C1119 0.930 . S
H1107 C1123 0.959 . S
H1108 C1123 0.959 . S
H1109 C1123 0.961 . S
H1110 C1124 0.960 . S
H1111 C1124 0.961 . S
H1112 C1124 0.959 . S
H1113 C1127 0.929 . S
H1114 C1128 0.931 . S
H1115 C1130 0.930 . S
C1116 H1104 0.930 . S
C1116 C1117 1.399 . S
C1116 C1121 1.399 . S
C1117 C1116 1.399 . S
C1117 C1118 1.376 . S
C1118 H1105 0.930 . S
C1118 C1117 1.376 . S
C1118 C1119 1.388 . S
C1119 H1106 0.930 . S
C1119 C1118 1.388 . S
C1119 C1120 1.390 . S
C1120 C1119 1.390 . S
C1120 C1121 1.394 . S
C1120 C1126 1.465 . S
C1121 C1116 1.399 . S
C1121 C1120 1.394 . S
C1121 C1122 1.516 . S
C1122 C1121 1.516 . S
C1122 C1123 1.502 . S
C1122 C1124 1.561 . S
C1122 C1125 1.526 . S
C1123 H1107 0.959 . S
C1123 H1108 0.959 . S
C1123 H1109 0.961 . S
C1123 C1122 1.502 . S
C1124 H1110 0.960 . S
C1124 H1111 0.961 . S
C1124 H1112 0.959 . S
C1124 C1122 1.561 . S
C1125 C1122 1.526 . S
C1125 C1126 1.396 . S
C1125 C1130 1.390 . S
C1126 C1120 1.465 . S
C1126 C1125 1.396 . S
C1126 C1127 1.399 . S
C1127 H1113 0.929 . S
C1127 C1126 1.399 . S
C1127 C1128 1.385 . S
C1128 H1114 0.931 . S
C1128 C1127 1.385 . S
C1128 C1129 1.389 . S
C1129 C1128 1.389 . S
C1129 C1130 1.387 . S
C1130 H1115 0.930 . S
C1130 C1125 1.390 . S
C1130 C1129 1.387 . S
H1131 C1143 0.930 . S
H1132 C1145 0.930 . S
H1133 C1146 0.930 . S
H1134 C1150 0.959 . S
H1135 C1150 0.959 . S
H1136 C1150 0.961 . S
H1137 C1151 0.960 . S
H1138 C1151 0.961 . S
H1139 C1151 0.959 . S
H1140 C1154 0.929 . S
H1141 C1155 0.931 . S
H1142 C1157 0.930 . S
C1143 H1131 0.930 . S
C1143 C1144 1.399 . S
C1143 C1148 1.399 . S
C1144 C1143 1.399 . S
C1144 C1145 1.376 . S
C1145 H1132 0.930 . S
C1145 C1144 1.376 . S
C1145 C1146 1.388 . S
C1146 H1133 0.930 . S
C1146 C1145 1.388 . S
C1146 C1147 1.390 . S
C1147 C1146 1.390 . S
C1147 C1148 1.394 . S
C1147 C1153 1.465 . S
C1148 C1143 1.399 . S
C1148 C1147 1.394 . S
C1148 C1149 1.516 . S
C1149 C1148 1.516 . S
C1149 C1150 1.502 . S
C1149 C1151 1.561 . S
C1149 C1152 1.526 . S
C1150 H1134 0.959 . S
C1150 H1135 0.959 . S
C1150 H1136 0.961 . S
C1150 C1149 1.502 . S
C1151 H1137 0.960 . S
C1151 H1138 0.961 . S
C1151 H1139 0.959 . S
C1151 C1149 1.561 . S
C1152 C1149 1.526 . S
C1152 C1153 1.396 . S
C1152 C1157 1.390 . S
C1153 C1147 1.465 . S
C1153 C1152 1.396 . S
C1153 C1154 1.399 . S
C1154 H1140 0.929 . S
C1154 C1153 1.399 . S
C1154 C1155 1.385 . S
C1155 H1141 0.931 . S
C1155 C1154 1.385 . S
C1155 C1156 1.389 . S
C1156 C1155 1.389 . S
C1156 C1157 1.387 . S
C1157 H1142 0.930 . S
C1157 C1152 1.390 . S
C1157 C1156 1.387 . S
H1158 C1170 0.930 . S
H1159 C1172 0.930 . S
H1160 C1173 0.930 . S
H1161 C1177 0.959 . S
H1162 C1177 0.959 . S
H1163 C1177 0.961 . S
H1164 C1178 0.960 . S
H1165 C1178 0.961 . S
H1166 C1178 0.959 . S
H1167 C1181 0.929 . S
H1168 C1182 0.931 . S
H1169 C1184 0.930 . S
C1170 H1158 0.930 . S
C1170 C1171 1.399 . S
C1170 C1175 1.399 . S
C1171 C1170 1.399 . S
C1171 C1172 1.376 . S
C1172 H1159 0.930 . S
C1172 C1171 1.376 . S
C1172 C1173 1.388 . S
C1173 H1160 0.930 . S
C1173 C1172 1.388 . S
C1173 C1174 1.390 . S
C1174 C1173 1.390 . S
C1174 C1175 1.394 . S
C1174 C1180 1.465 . S
C1175 C1170 1.399 . S
C1175 C1174 1.394 . S
C1175 C1176 1.516 . S
C1176 C1175 1.516 . S
C1176 C1177 1.502 . S
C1176 C1178 1.561 . S
C1176 C1179 1.526 . S
C1177 H1161 0.959 . S
C1177 H1162 0.959 . S
C1177 H1163 0.961 . S
C1177 C1176 1.502 . S
C1178 H1164 0.960 . S
C1178 H1165 0.961 . S
C1178 H1166 0.959 . S
C1178 C1176 1.561 . S
C1179 C1176 1.526 . S
C1179 C1180 1.396 . S
C1179 C1184 1.390 . S
C1180 C1174 1.465 . S
C1180 C1179 1.396 . S
C1180 C1181 1.399 . S
C1181 H1167 0.929 . S
C1181 C1180 1.399 . S
C1181 C1182 1.385 . S
C1182 H1168 0.931 . S
C1182 C1181 1.385 . S
C1182 C1183 1.389 . S
C1183 C1182 1.389 . S
C1183 C1184 1.387 . S
C1184 H1169 0.930 . S
C1184 C1179 1.390 . S
C1184 C1183 1.387 . S
H1185 C1197 0.930 . S
H1186 C1199 0.930 . S
H1187 C1200 0.930 . S
H1188 C1204 0.959 . S
H1189 C1204 0.959 . S
H1190 C1204 0.961 . S
H1191 C1205 0.960 . S
H1192 C1205 0.961 . S
H1193 C1205 0.959 . S
H1194 C1208 0.929 . S
H1195 C1209 0.931 . S
H1196 C1211 0.930 . S
C1197 H1185 0.930 . S
C1197 C1198 1.399 . S
C1197 C1202 1.399 . S
C1198 C1197 1.399 . S
C1198 C1199 1.376 . S
C1199 H1186 0.930 . S
C1199 C1198 1.376 . S
C1199 C1200 1.388 . S
C1200 H1187 0.930 . S
C1200 C1199 1.388 . S
C1200 C1201 1.390 . S
C1201 C1200 1.390 . S
C1201 C1202 1.394 . S
C1201 C1207 1.465 . S
C1202 C1197 1.399 . S
C1202 C1201 1.394 . S
C1202 C1203 1.516 . S
C1203 C1202 1.516 . S
C1203 C1204 1.502 . S
C1203 C1205 1.561 . S
C1203 C1206 1.526 . S
C1204 H1188 0.959 . S
C1204 H1189 0.959 . S
C1204 H1190 0.961 . S
C1204 C1203 1.502 . S
C1205 H1191 0.960 . S
C1205 H1192 0.961 . S
C1205 H1193 0.959 . S
C1205 C1203 1.561 . S
C1206 C1203 1.526 . S
C1206 C1207 1.396 . S
C1206 C1211 1.390 . S
C1207 C1201 1.465 . S
C1207 C1206 1.396 . S
C1207 C1208 1.399 . S
C1208 H1194 0.929 . S
C1208 C1207 1.399 . S
C1208 C1209 1.385 . S
C1209 H1195 0.931 . S
C1209 C1208 1.385 . S
C1209 C1210 1.389 . S
C1210 C1209 1.389 . S
C1210 C1211 1.387 . S
C1211 H1196 0.930 . S
C1211 C1206 1.390 . S
C1211 C1210 1.387 . S
H1212 C1224 0.930 . S
H1213 C1226 0.930 . S
H1214 C1227 0.930 . S
H1215 C1231 0.959 . S
H1216 C1231 0.959 1_545 S
H1217 C1231 0.961 . S
H1218 C1232 0.960 . S
H1219 C1232 0.961 . S
H1220 C1232 0.959 . S
H1221 C1235 0.957 . S
H1222 C1236 0.931 . S
H1223 C1238 0.930 . S
C1224 H1212 0.930 . S
C1224 C1225 1.399 . S
C1224 C1229 1.399 . S
C1225 C1224 1.399 . S
C1225 C1226 1.376 . S
C1226 H1213 0.930 . S
C1226 C1225 1.376 . S
C1226 C1227 1.388 . S
C1227 H1214 0.930 . S
C1227 C1226 1.388 . S
C1227 C1228 1.390 . S
C1228 C1227 1.390 . S
C1228 C1229 1.394 . S
C1228 C1234 1.465 . S
C1229 C1224 1.399 . S
C1229 C1228 1.394 . S
C1229 C1230 1.516 . S
C1230 C1229 1.516 . S
C1230 C1231 1.502 . S
C1230 C1232 1.561 . S
C1230 C1233 1.526 . S
C1231 H1215 0.959 . S
C1231 H1216 0.959 1_565 S
C1231 H1217 0.961 . S
C1231 C1230 1.502 . S
C1232 H1218 0.960 . S
C1232 H1219 0.961 . S
C1232 H1220 0.959 . S
C1232 C1230 1.561 . S
C1233 C1230 1.526 . S
C1233 C1234 1.396 . S
C1233 C1238 1.390 1_565 S
C1234 C1228 1.465 . S
C1234 C1233 1.396 . S
C1234 C1235 1.427 . S
C1235 H1221 0.957 . S
C1235 C1234 1.427 . S
C1235 C1236 1.331 1_565 S
C1236 H1222 0.931 . S
C1236 C1235 1.331 1_545 S
C1236 C1237 1.389 . S
C1237 C1236 1.389 . S
C1237 C1238 1.387 . S
C1238 H1223 0.930 . S
C1238 C1233 1.390 1_545 S
C1238 C1237 1.387 . S
H1239 C1251 0.930 . S
H1240 C1253 0.930 . S
H1241 C1254 0.930 . S
H1242 C1258 0.959 . S
H1243 C1258 0.959 . S
H1244 C1258 0.961 . S
H1245 C1259 0.960 . S
H1246 C1259 0.961 . S
H1247 C1259 0.959 . S
H1248 C1262 0.929 . S
H1249 C1263 0.931 . S
H1250 C1265 0.930 . S
C1251 H1239 0.930 . S
C1251 C1252 1.399 . S
C1251 C1256 1.399 . S
C1252 C1251 1.399 . S
C1252 C1253 1.376 . S
C1253 H1240 0.930 . S
C1253 C1252 1.376 . S
C1253 C1254 1.388 . S
C1254 H1241 0.930 . S
C1254 C1253 1.388 . S
C1254 C1255 1.390 . S
C1255 C1254 1.390 . S
C1255 C1256 1.394 . S
C1255 C1261 1.465 . S
C1256 C1251 1.399 . S
C1256 C1255 1.394 . S
C1256 C1257 1.516 . S
C1257 C1256 1.516 . S
C1257 C1258 1.502 . S
C1257 C1259 1.561 . S
C1257 C1260 1.526 . S
C1258 H1242 0.959 . S
C1258 H1243 0.959 . S
C1258 H1244 0.961 . S
C1258 C1257 1.502 . S
C1259 H1245 0.960 . S
C1259 H1246 0.961 . S
C1259 H1247 0.959 . S
C1259 C1257 1.561 . S
C1260 C1257 1.526 . S
C1260 C1261 1.396 . S
C1260 C1265 1.390 . S
C1261 C1255 1.465 . S
C1261 C1260 1.396 . S
C1261 C1262 1.399 . S
C1262 H1248 0.929 . S
C1262 C1261 1.399 . S
C1262 C1263 1.385 . S
C1263 H1249 0.931 . S
C1263 C1262 1.385 . S
C1263 C1264 1.389 . S
C1264 C1263 1.389 . S
C1264 C1265 1.387 . S
C1265 H1250 0.930 . S
C1265 C1260 1.390 . S
C1265 C1264 1.387 . S
H1266 C1278 0.930 . S
H1267 C1280 0.930 . S
H1268 C1281 0.930 . S
H1269 C1285 0.959 . S
H1270 C1285 0.959 . S
H1271 C1285 0.961 . S
H1272 C1286 0.960 . S
H1273 C1286 0.961 . S
H1274 C1286 0.959 . S
H1275 C1289 0.929 . S
H1276 C1290 0.931 . S
H1277 C1292 0.930 . S
C1278 H1266 0.930 . S
C1278 C1279 1.399 . S
C1278 C1283 1.399 . S
C1279 C1278 1.399 . S
C1279 C1280 1.376 . S
C1280 H1267 0.930 . S
C1280 C1279 1.376 . S
C1280 C1281 1.388 . S
C1281 H1268 0.930 . S
C1281 C1280 1.388 . S
C1281 C1282 1.390 . S
C1282 C1281 1.390 . S
C1282 C1283 1.394 . S
C1282 C1288 1.465 . S
C1283 C1278 1.399 . S
C1283 C1282 1.394 . S
C1283 C1284 1.516 . S
C1284 C1283 1.516 . S
C1284 C1285 1.502 . S
C1284 C1286 1.561 . S
C1284 C1287 1.526 . S
C1285 H1269 0.959 . S
C1285 H1270 0.959 . S
C1285 H1271 0.961 . S
C1285 C1284 1.502 . S
C1286 H1272 0.960 . S
C1286 H1273 0.961 . S
C1286 H1274 0.959 . S
C1286 C1284 1.561 . S
C1287 C1284 1.526 . S
C1287 C1288 1.396 . S
C1287 C1292 1.390 . S
C1288 C1282 1.465 . S
C1288 C1287 1.396 . S
C1288 C1289 1.399 . S
C1289 H1275 0.929 . S
C1289 C1288 1.399 . S
C1289 C1290 1.385 . S
C1290 H1276 0.931 . S
C1290 C1289 1.385 . S
C1290 C1291 1.389 . S
C1291 C1290 1.389 . S
C1291 C1292 1.387 . S
C1292 H1277 0.930 . S
C1292 C1287 1.390 . S
C1292 C1291 1.387 . S
H1293 C1305 0.930 . S
H1294 C1307 0.930 . S
H1295 C1308 0.930 . S
H1296 C1312 0.959 . S
H1297 C1312 0.959 . S
H1298 C1312 0.961 . S
H1299 C1313 0.960 . S
H1300 C1313 0.961 . S
H1301 C1313 0.959 . S
H1302 C1316 0.929 . S
H1303 C1317 0.931 . S
H1304 C1319 0.930 . S
C1305 H1293 0.930 . S
C1305 C1306 1.399 . S
C1305 C1310 1.399 . S
C1306 C1305 1.399 . S
C1306 C1307 1.376 . S
C1307 H1294 0.930 . S
C1307 C1306 1.376 . S
C1307 C1308 1.388 . S
C1308 H1295 0.930 . S
C1308 C1307 1.388 . S
C1308 C1309 1.390 . S
C1309 C1308 1.390 . S
C1309 C1310 1.394 . S
C1309 C1315 1.465 . S
C1310 C1305 1.399 . S
C1310 C1309 1.394 . S
C1310 C1311 1.516 . S
C1311 C1310 1.516 . S
C1311 C1312 1.502 . S
C1311 C1313 1.561 . S
C1311 C1314 1.526 . S
C1312 H1296 0.959 . S
C1312 H1297 0.959 . S
C1312 H1298 0.961 . S
C1312 C1311 1.502 . S
C1313 H1299 0.960 . S
C1313 H1300 0.961 . S
C1313 H1301 0.959 . S
C1313 C1311 1.561 . S
C1314 C1311 1.526 . S
C1314 C1315 1.396 . S
C1314 C1319 1.390 . S
C1315 C1309 1.465 . S
C1315 C1314 1.396 . S
C1315 C1316 1.399 . S
C1316 H1302 0.929 . S
C1316 C1315 1.399 . S
C1316 C1317 1.385 . S
C1317 H1303 0.931 . S
C1317 C1316 1.385 . S
C1317 C1318 1.389 . S
C1318 C1317 1.389 . S
C1318 C1319 1.387 . S
C1319 H1304 0.930 . S
C1319 C1314 1.390 . S
C1319 C1318 1.387 . S
H1320 C1332 0.930 . S
H1321 C1334 0.930 . S
H1322 C1335 0.930 . S
H1323 C1339 0.959 . S
H1324 C1339 0.959 . S
H1325 C1339 0.961 . S
H1326 C1340 0.960 . S
H1327 C1340 0.961 . S
H1328 C1340 0.959 . S
H1329 C1343 0.929 . S
H1330 C1344 0.931 . S
H1331 C1346 0.930 . S
C1332 H1320 0.930 . S
C1332 C1333 1.399 . S
C1332 C1337 1.399 . S
C1333 C1332 1.399 . S
C1333 C1334 1.376 . S
C1334 H1321 0.930 . S
C1334 C1333 1.376 . S
C1334 C1335 1.388 . S
C1335 H1322 0.930 . S
C1335 C1334 1.388 . S
C1335 C1336 1.390 . S
C1336 C1335 1.390 . S
C1336 C1337 1.394 . S
C1336 C1342 1.465 . S
C1337 C1332 1.399 . S
C1337 C1336 1.394 . S
C1337 C1338 1.516 . S
C1338 C1337 1.516 . S
C1338 C1339 1.502 . S
C1338 C1340 1.561 . S
C1338 C1341 1.526 . S
C1339 H1323 0.959 . S
C1339 H1324 0.959 . S
C1339 H1325 0.961 . S
C1339 C1338 1.502 . S
C1340 H1326 0.960 . S
C1340 H1327 0.961 . S
C1340 H1328 0.959 . S
C1340 C1338 1.561 . S
C1341 C1338 1.526 . S
C1341 C1342 1.396 . S
C1341 C1346 1.390 . S
C1342 C1336 1.465 . S
C1342 C1341 1.396 . S
C1342 C1343 1.399 . S
C1343 H1329 0.929 . S
C1343 C1342 1.399 . S
C1343 C1344 1.385 . S
C1344 H1330 0.931 . S
C1344 C1343 1.385 . S
C1344 C1345 1.389 . S
C1345 C1344 1.389 . S
C1345 C1346 1.387 . S
C1346 H1331 0.930 . S
C1346 C1341 1.390 . S
C1346 C1345 1.387 . S
H1347 C1359 0.930 . S
H1348 C1361 0.930 . S
H1349 C1362 0.930 . S
H1350 C1366 0.959 . S
H1351 C1366 0.959 . S
H1352 C1366 0.961 1_655 S
H1353 C1367 0.960 . S
H1354 C1367 0.961 . S
H1355 C1367 0.959 . S
H1356 C1370 0.929 . S
H1357 C1371 0.931 . S
H1358 C1373 0.930 . S
C1359 H1347 0.930 . S
C1359 C1360 1.399 . S
C1359 C1364 1.399 . S
C1360 C1359 1.399 . S
C1360 C1361 1.376 . S
C1361 H1348 0.930 . S
C1361 C1360 1.376 . S
C1361 C1362 1.388 . S
C1362 H1349 0.930 . S
C1362 C1361 1.388 . S
C1362 C1363 1.390 1_655 S
C1363 C1362 1.390 1_455 S
C1363 C1364 1.394 1_455 S
C1363 C1369 1.465 . S
C1364 C1359 1.399 . S
C1364 C1363 1.394 1_655 S
C1364 C1365 1.516 1_655 S
C1365 C1364 1.516 1_455 S
C1365 C1366 1.502 . S
C1365 C1367 1.561 . S
C1365 C1368 1.526 . S
C1366 H1350 0.959 . S
C1366 H1351 0.959 . S
C1366 H1352 0.961 1_455 S
C1366 C1365 1.502 . S
C1367 H1353 0.960 . S
C1367 H1354 0.961 . S
C1367 H1355 0.959 . S
C1367 C1365 1.561 . S
C1368 C1365 1.526 . S
C1368 C1369 1.396 . S
C1368 C1373 1.390 . S
C1369 C1363 1.465 . S
C1369 C1368 1.396 . S
C1369 C1370 1.399 . S
C1370 H1356 0.929 . S
C1370 C1369 1.399 . S
C1370 C1371 1.385 . S
C1371 H1357 0.931 . S
C1371 C1370 1.385 . S
C1371 C1372 1.389 . S
C1372 C1371 1.389 . S
C1372 C1373 1.387 . S
C1373 H1358 0.930 . S
C1373 C1368 1.390 . S
C1373 C1372 1.387 . S
H1374 C1386 0.930 . S
H1375 C1388 0.930 . S
H1376 C1389 0.930 . S
H1377 C1393 0.959 . S
H1378 C1393 0.959 . S
H1379 C1393 0.961 . S
H1380 C1394 0.960 . S
H1381 C1394 0.961 . S
H1382 C1394 0.959 . S
H1383 C1397 0.929 . S
H1384 C1398 0.931 . S
H1385 C1400 0.930 . S
C1386 H1374 0.930 . S
C1386 C1387 1.399 . S
C1386 C1391 1.399 . S
C1387 C1386 1.399 . S
C1387 C1388 1.376 . S
C1388 H1375 0.930 . S
C1388 C1387 1.376 . S
C1388 C1389 1.388 . S
C1389 H1376 0.930 . S
C1389 C1388 1.388 . S
C1389 C1390 1.390 . S
C1390 C1389 1.390 . S
C1390 C1391 1.394 . S
C1390 C1396 1.465 . S
C1391 C1386 1.399 . S
C1391 C1390 1.394 . S
C1391 C1392 1.516 . S
C1392 C1391 1.516 . S
C1392 C1393 1.502 . S
C1392 C1394 1.561 . S
C1392 C1395 1.526 . S
C1393 H1377 0.959 . S
C1393 H1378 0.959 . S
C1393 H1379 0.961 . S
C1393 C1392 1.502 . S
C1394 H1380 0.960 . S
C1394 H1381 0.961 . S
C1394 H1382 0.959 . S
C1394 C1392 1.561 . S
C1395 C1392 1.526 . S
C1395 C1396 1.396 . S
C1395 C1400 1.390 . S
C1396 C1390 1.465 . S
C1396 C1395 1.396 . S
C1396 C1397 1.399 . S
C1397 H1383 0.929 . S
C1397 C1396 1.399 . S
C1397 C1398 1.385 . S
C1398 H1384 0.931 . S
C1398 C1397 1.385 . S
C1398 C1399 1.389 . S
C1399 C1398 1.389 . S
C1399 C1400 1.387 . S
C1400 H1385 0.930 . S
C1400 C1395 1.390 . S
C1400 C1399 1.387 . S
H1401 C1413 0.930 . S
H1402 C1415 0.930 . S
H1403 C1416 0.930 . S
H1404 C1420 0.959 . S
H1405 C1420 0.959 . S
H1406 C1420 0.961 . S
H1407 C1421 0.960 . S
H1408 C1421 0.961 . S
H1409 C1421 0.959 . S
H1410 C1424 0.929 . S
H1411 C1425 0.931 . S
H1412 C1427 0.930 . S
C1413 H1401 0.930 . S
C1413 C1414 1.399 . S
C1413 C1418 1.399 . S
C1414 C1413 1.399 . S
C1414 C1415 1.376 . S
C1415 H1402 0.930 . S
C1415 C1414 1.376 . S
C1415 C1416 1.388 . S
C1416 H1403 0.930 . S
C1416 C1415 1.388 . S
C1416 C1417 1.390 . S
C1417 C1416 1.390 . S
C1417 C1418 1.394 . S
C1417 C1423 1.465 . S
C1418 C1413 1.399 . S
C1418 C1417 1.394 . S
C1418 C1419 1.516 . S
C1419 C1418 1.516 . S
C1419 C1420 1.502 . S
C1419 C1421 1.561 . S
C1419 C1422 1.526 . S
C1420 H1404 0.959 . S
C1420 H1405 0.959 . S
C1420 H1406 0.961 . S
C1420 C1419 1.502 . S
C1421 H1407 0.960 . S
C1421 H1408 0.961 . S
C1421 H1409 0.959 . S
C1421 C1419 1.561 . S
C1422 C1419 1.526 . S
C1422 C1423 1.396 . S
C1422 C1427 1.390 . S
C1423 C1417 1.465 . S
C1423 C1422 1.396 . S
C1423 C1424 1.399 . S
C1424 H1410 0.929 . S
C1424 C1423 1.399 . S
C1424 C1425 1.385 . S
C1425 H1411 0.931 . S
C1425 C1424 1.385 . S
C1425 C1426 1.389 . S
C1426 C1425 1.389 . S
C1426 C1427 1.387 . S
C1427 H1412 0.930 . S
C1427 C1422 1.390 . S
C1427 C1426 1.387 . S
H1428 C1440 0.930 . S
H1429 C1442 0.930 . S
H1430 C1443 0.930 . S
H1431 C1447 0.959 . S
H1432 C1447 0.959 . S
H1433 C1447 0.961 . S
H1434 C1448 0.960 . S
H1435 C1448 0.961 . S
H1436 C1448 0.959 . S
H1437 C1451 0.929 . S
H1438 C1452 0.931 . S
H1439 C1454 0.930 . S
C1440 H1428 0.930 . S
C1440 C1441 1.399 . S
C1440 C1445 1.399 . S
C1441 C1440 1.399 . S
C1441 C1442 1.376 . S
C1442 H1429 0.930 . S
C1442 C1441 1.376 . S
C1442 C1443 1.388 . S
C1443 H1430 0.930 . S
C1443 C1442 1.388 . S
C1443 C1444 1.390 . S
C1444 C1443 1.390 . S
C1444 C1445 1.394 . S
C1444 C1450 1.465 . S
C1445 C1440 1.399 . S
C1445 C1444 1.394 . S
C1445 C1446 1.516 . S
C1446 C1445 1.516 . S
C1446 C1447 1.502 . S
C1446 C1448 1.561 . S
C1446 C1449 1.526 . S
C1447 H1431 0.959 . S
C1447 H1432 0.959 . S
C1447 H1433 0.961 . S
C1447 C1446 1.502 . S
C1448 H1434 0.960 . S
C1448 H1435 0.961 . S
C1448 H1436 0.959 . S
C1448 C1446 1.561 . S
C1449 C1446 1.526 . S
C1449 C1450 1.396 . S
C1449 C1454 1.390 . S
C1450 C1444 1.465 . S
C1450 C1449 1.396 . S
C1450 C1451 1.399 . S
C1451 H1437 0.929 . S
C1451 C1450 1.399 . S
C1451 C1452 1.385 . S
C1452 H1438 0.931 . S
C1452 C1451 1.385 . S
C1452 C1453 1.389 . S
C1453 C1452 1.389 . S
C1453 C1454 1.387 . S
C1454 H1439 0.930 . S
C1454 C1449 1.390 . S
C1454 C1453 1.387 . S
H1455 C1467 0.930 . S
H1456 C1469 0.930 . S
H1457 C1470 0.930 . S
H1458 C1474 0.959 . S
H1459 C1474 0.959 . S
H1460 C1474 0.961 . S
H1461 C1475 0.960 . S
H1462 C1475 0.961 . S
H1463 C1475 0.959 . S
H1464 C1478 0.929 . S
H1465 C1479 0.931 . S
H1466 C1481 0.930 . S
C1467 H1455 0.930 . S
C1467 C1468 1.399 . S
C1467 C1472 1.399 . S
C1468 C1467 1.399 . S
C1468 C1469 1.376 . S
C1469 H1456 0.930 . S
C1469 C1468 1.376 . S
C1469 C1470 1.388 . S
C1470 H1457 0.930 . S
C1470 C1469 1.388 . S
C1470 C1471 1.390 . S
C1471 C1470 1.390 . S
C1471 C1472 1.394 . S
C1471 C1477 1.465 . S
C1472 C1467 1.399 . S
C1472 C1471 1.394 . S
C1472 C1473 1.516 . S
C1473 C1472 1.516 . S
C1473 C1474 1.502 . S
C1473 C1475 1.561 . S
C1473 C1476 1.526 . S
C1474 H1458 0.959 . S
C1474 H1459 0.959 . S
C1474 H1460 0.961 . S
C1474 C1473 1.502 . S
C1475 H1461 0.960 . S
C1475 H1462 0.961 . S
C1475 H1463 0.959 . S
C1475 C1473 1.561 . S
C1476 C1473 1.526 . S
C1476 C1477 1.396 . S
C1476 C1481 1.390 . S
C1477 C1471 1.465 . S
C1477 C1476 1.396 . S
C1477 C1478 1.399 . S
C1478 H1464 0.929 . S
C1478 C1477 1.399 . S
C1478 C1479 1.385 . S
C1479 H1465 0.931 . S
C1479 C1478 1.385 . S
C1479 C1480 1.389 . S
C1480 C1479 1.389 . S
C1480 C1481 1.387 . S
C1481 H1466 0.930 . S
C1481 C1476 1.390 . S
C1481 C1480 1.387 . S
H1482 C1494 0.930 . S
H1483 C1496 0.930 . S
H1484 C1497 0.930 . S
H1485 C1501 0.959 . S
H1486 C1501 0.959 . S
H1487 C1501 0.961 . S
H1488 C1502 0.960 . S
H1489 C1502 0.961 . S
H1490 C1502 0.959 . S
H1491 C1505 0.929 . S
H1492 C1506 0.931 . S
H1493 C1508 0.930 . S
C1494 H1482 0.930 . S
C1494 C1495 1.399 . S
C1494 C1499 1.399 . S
C1495 C1494 1.399 . S
C1495 C1496 1.376 . S
C1496 H1483 0.930 . S
C1496 C1495 1.376 . S
C1496 C1497 1.388 . S
C1497 H1484 0.930 . S
C1497 C1496 1.388 . S
C1497 C1498 1.390 . S
C1498 C1497 1.390 . S
C1498 C1499 1.394 . S
C1498 C1504 1.465 . S
C1499 C1494 1.399 . S
C1499 C1498 1.394 . S
C1499 C1500 1.516 . S
C1500 C1499 1.516 . S
C1500 C1501 1.502 . S
C1500 C1502 1.561 . S
C1500 C1503 1.526 . S
C1501 H1485 0.959 . S
C1501 H1486 0.959 . S
C1501 H1487 0.961 . S
C1501 C1500 1.502 . S
C1502 H1488 0.960 . S
C1502 H1489 0.961 . S
C1502 H1490 0.959 . S
C1502 C1500 1.561 . S
C1503 C1500 1.526 . S
C1503 C1504 1.396 . S
C1503 C1508 1.390 . S
C1504 C1498 1.465 . S
C1504 C1503 1.396 . S
C1504 C1505 1.399 . S
C1505 H1491 0.929 . S
C1505 C1504 1.399 . S
C1505 C1506 1.385 . S
C1506 H1492 0.931 . S
C1506 C1505 1.385 . S
C1506 C1507 1.389 . S
C1507 C1506 1.389 . S
C1507 C1508 1.387 . S
C1508 H1493 0.930 . S
C1508 C1503 1.390 . S
C1508 C1507 1.387 . S
H1509 C1521 0.930 . S
H1510 C1523 0.930 . S
H1511 C1524 0.930 . S
H1512 C1528 0.959 . S
H1513 C1528 0.959 1_655 S
H1514 C1528 0.961 . S
H1515 C1529 0.960 . S
H1516 C1529 0.961 . S
H1517 C1529 0.959 . S
H1518 C1532 0.929 . S
H1519 C1533 0.931 . S
H1520 C1535 0.930 . S
C1521 H1509 0.930 . S
C1521 C1522 1.399 . S
C1521 C1526 1.399 . S
C1522 C1521 1.399 . S
C1522 C1523 1.376 . S
C1523 H1510 0.930 . S
C1523 C1522 1.376 . S
C1523 C1524 1.388 . S
C1524 H1511 0.930 . S
C1524 C1523 1.388 . S
C1524 C1525 1.390 . S
C1525 C1524 1.390 . S
C1525 C1526 1.394 . S
C1525 C1531 1.465 . S
C1526 C1521 1.399 . S
C1526 C1525 1.394 . S
C1526 C1527 1.516 . S
C1527 C1526 1.516 . S
C1527 C1528 1.502 . S
C1527 C1529 1.561 . S
C1527 C1530 1.526 1_455 S
C1528 H1512 0.959 . S
C1528 H1513 0.959 1_455 S
C1528 H1514 0.961 . S
C1528 C1527 1.502 . S
C1529 H1515 0.960 . S
C1529 H1516 0.961 . S
C1529 H1517 0.959 . S
C1529 C1527 1.561 . S
C1530 C1527 1.526 1_655 S
C1530 C1531 1.396 1_655 S
C1530 C1535 1.390 . S
C1531 C1525 1.465 . S
C1531 C1530 1.396 1_455 S
C1531 C1532 1.399 1_455 S
C1532 H1518 0.929 . S
C1532 C1531 1.399 1_655 S
C1532 C1533 1.385 . S
C1533 H1519 0.931 . S
C1533 C1532 1.385 . S
C1533 C1534 1.389 . S
C1534 C1533 1.389 . S
C1534 C1535 1.387 . S
C1535 H1520 0.930 . S
C1535 C1530 1.390 . S
C1535 C1534 1.387 . S
H1536 C1548 0.930 . S
H1537 C1550 0.930 . S
H1538 C1551 0.930 . S
H1539 C1555 0.959 . S
H1540 C1555 0.959 . S
H1541 C1555 0.961 . S
H1542 C1556 0.960 . S
H1543 C1556 0.961 . S
H1544 C1556 0.959 . S
H1545 C1559 0.929 . S
H1546 C1560 0.931 . S
H1547 C1562 0.930 . S
C1548 H1536 0.930 . S
C1548 C1549 1.399 . S
C1548 C1553 1.399 . S
C1549 C1548 1.399 . S
C1549 C1550 1.376 . S
C1550 H1537 0.930 . S
C1550 C1549 1.376 . S
C1550 C1551 1.388 . S
C1551 H1538 0.930 . S
C1551 C1550 1.388 . S
C1551 C1552 1.390 . S
C1552 C1551 1.390 . S
C1552 C1553 1.394 . S
C1552 C1558 1.465 . S
C1553 C1548 1.399 . S
C1553 C1552 1.394 . S
C1553 C1554 1.516 . S
C1554 C1553 1.516 . S
C1554 C1555 1.502 . S
C1554 C1556 1.561 . S
C1554 C1557 1.526 . S
C1555 H1539 0.959 . S
C1555 H1540 0.959 . S
C1555 H1541 0.961 . S
C1555 C1554 1.502 . S
C1556 H1542 0.960 . S
C1556 H1543 0.961 . S
C1556 H1544 0.959 . S
C1556 C1554 1.561 . S
C1557 C1554 1.526 . S
C1557 C1558 1.396 . S
C1557 C1562 1.390 . S
C1558 C1552 1.465 . S
C1558 C1557 1.396 . S
C1558 C1559 1.399 . S
C1559 H1545 0.929 . S
C1559 C1558 1.399 . S
C1559 C1560 1.385 . S
C1560 H1546 0.931 . S
C1560 C1559 1.385 . S
C1560 C1561 1.389 . S
C1561 C1560 1.389 . S
C1561 C1562 1.387 . S
C1562 H1547 0.930 . S
C1562 C1557 1.390 . S
C1562 C1561 1.387 . S
H1563 C1575 0.930 . S
H1564 C1577 0.930 . S
H1565 C1578 0.930 . S
H1566 C1582 0.959 . S
H1567 C1582 0.959 . S
H1568 C1582 0.961 . S
H1569 C1583 0.960 . S
H1570 C1583 0.961 . S
H1571 C1583 0.959 . S
H1572 C1586 0.929 . S
H1573 C1587 0.931 . S
H1574 C1589 0.930 . S
C1575 H1563 0.930 . S
C1575 C1576 1.399 . S
C1575 C1580 1.399 . S
C1576 C1575 1.399 . S
C1576 C1577 1.376 . S
C1577 H1564 0.930 . S
C1577 C1576 1.376 . S
C1577 C1578 1.388 . S
C1578 H1565 0.930 . S
C1578 C1577 1.388 . S
C1578 C1579 1.390 . S
C1579 C1578 1.390 . S
C1579 C1580 1.394 . S
C1579 C1585 1.465 . S
C1580 C1575 1.399 . S
C1580 C1579 1.394 . S
C1580 C1581 1.516 . S
C1581 C1580 1.516 . S
C1581 C1582 1.502 . S
C1581 C1583 1.561 . S
C1581 C1584 1.526 . S
C1582 H1566 0.959 . S
C1582 H1567 0.959 . S
C1582 H1568 0.961 . S
C1582 C1581 1.502 . S
C1583 H1569 0.960 . S
C1583 H1570 0.961 . S
C1583 H1571 0.959 . S
C1583 C1581 1.561 . S
C1584 C1581 1.526 . S
C1584 C1585 1.396 . S
C1584 C1589 1.390 . S
C1585 C1579 1.465 . S
C1585 C1584 1.396 . S
C1585 C1586 1.399 . S
C1586 H1572 0.929 . S
C1586 C1585 1.399 . S
C1586 C1587 1.385 . S
C1587 H1573 0.931 . S
C1587 C1586 1.385 . S
C1587 C1588 1.389 . S
C1588 C1587 1.389 . S
C1588 C1589 1.387 . S
C1589 H1574 0.930 . S
C1589 C1584 1.390 . S
C1589 C1588 1.387 . S
H1590 C1602 0.930 . S
H1591 C1604 0.930 . S
H1592 C1605 0.930 . S
H1593 C1609 0.959 . S
H1594 C1609 0.959 . S
H1595 C1609 0.961 . S
H1596 C1610 0.960 . S
H1597 C1610 0.961 . S
H1598 C1610 0.959 . S
H1599 C1613 0.929 . S
H1600 C1614 0.931 . S
H1601 C1616 0.930 . S
C1602 H1590 0.930 . S
C1602 C1603 1.399 . S
C1602 C1607 1.399 . S
C1603 C1602 1.399 . S
C1603 C1604 1.376 . S
C1604 H1591 0.930 . S
C1604 C1603 1.376 . S
C1604 C1605 1.388 . S
C1605 H1592 0.930 . S
C1605 C1604 1.388 . S
C1605 C1606 1.390 . S
C1606 C1605 1.390 . S
C1606 C1607 1.394 . S
C1606 C1612 1.465 . S
C1607 C1602 1.399 . S
C1607 C1606 1.394 . S
C1607 C1608 1.516 . S
C1608 C1607 1.516 . S
C1608 C1609 1.502 . S
C1608 C1610 1.561 . S
C1608 C1611 1.526 . S
C1609 H1593 0.959 . S
C1609 H1594 0.959 . S
C1609 H1595 0.961 . S
C1609 C1608 1.502 . S
C1610 H1596 0.960 . S
C1610 H1597 0.961 . S
C1610 H1598 0.959 . S
C1610 C1608 1.561 . S
C1611 C1608 1.526 . S
C1611 C1612 1.396 . S
C1611 C1616 1.390 . S
C1612 C1606 1.465 . S
C1612 C1611 1.396 . S
C1612 C1613 1.399 . S
C1613 H1599 0.929 . S
C1613 C1612 1.399 . S
C1613 C1614 1.385 . S
C1614 H1600 0.931 . S
C1614 C1613 1.385 . S
C1614 C1615 1.389 . S
C1615 C1614 1.389 . S
C1615 C1616 1.387 . S
C1616 H1601 0.930 . S
C1616 C1611 1.390 . S
C1616 C1615 1.387 . S
H1617 C1629 0.930 . S
H1618 C1631 0.930 . S
H1619 C1632 0.930 . S
H1620 C1636 0.959 . S
H1621 C1636 0.959 . S
H1622 C1636 0.961 . S
H1623 C1637 0.960 . S
H1624 C1637 0.961 1_554 S
H1625 C1637 0.959 . S
H1626 C1640 0.917 1_556 S
H1627 C1641 0.931 . S
H1628 C1643 0.930 . S
C1629 H1617 0.930 . S
C1629 C1630 1.399 . S
C1629 C1634 1.399 . S
C1630 C1629 1.399 . S
C1630 C1631 1.376 . S
C1631 H1618 0.930 . S
C1631 C1630 1.376 . S
C1631 C1632 1.388 . S
C1632 H1619 0.930 . S
C1632 C1631 1.388 . S
C1632 C1633 1.390 . S
C1633 C1632 1.390 . S
C1633 C1634 1.394 . S
C1633 C1639 1.465 . S
C1634 C1629 1.399 . S
C1634 C1633 1.394 . S
C1634 C1635 1.516 . S
C1635 C1634 1.516 . S
C1635 C1636 1.502 . S
C1635 C1637 1.561 . S
C1635 C1638 1.526 1_556 S
C1636 H1620 0.959 . S
C1636 H1621 0.959 . S
C1636 H1622 0.961 . S
C1636 C1635 1.502 . S
C1637 H1623 0.960 . S
C1637 H1624 0.961 1_556 S
C1637 H1625 0.959 . S
C1637 C1635 1.561 . S
C1638 C1635 1.526 1_554 S
C1638 C1639 1.396 1_554 S
C1638 C1643 1.390 . S
C1639 C1633 1.465 . S
C1639 C1638 1.396 1_556 S
C1639 C1640 1.399 1_556 S
C1640 H1626 0.917 1_554 S
C1640 C1639 1.399 1_554 S
C1640 C1641 1.385 . S
C1641 H1627 0.931 . S
C1641 C1640 1.385 . S
C1641 C1642 1.389 . S
C1642 C1641 1.389 . S
C1642 C1643 1.387 . S
C1643 H1628 0.930 . S
C1643 C1638 1.390 . S
C1643 C1642 1.387 . S
H1644 C1656 0.930 . S
H1645 C1658 0.930 . S
H1646 C1659 0.930 . S
H1647 C1663 0.959 . S
H1648 C1663 0.959 . S
H1649 C1663 0.961 . S
H1650 C1664 0.960 . S
H1651 C1664 0.961 . S
H1652 C1664 0.959 . S
H1653 C1667 0.929 . S
H1654 C1668 0.931 . S
H1655 C1670 0.930 . S
C1656 H1644 0.930 . S
C1656 C1657 1.399 . S
C1656 C1661 1.399 . S
C1657 C1656 1.399 . S
C1657 C1658 1.376 . S
C1658 H1645 0.930 . S
C1658 C1657 1.376 . S
C1658 C1659 1.388 . S
C1659 H1646 0.930 . S
C1659 C1658 1.388 . S
C1659 C1660 1.390 . S
C1660 C1659 1.390 . S
C1660 C1661 1.394 . S
C1660 C1666 1.465 . S
C1661 C1656 1.399 . S
C1661 C1660 1.394 . S
C1661 C1662 1.516 . S
C1662 C1661 1.516 . S
C1662 C1663 1.502 . S
C1662 C1664 1.561 . S
C1662 C1665 1.526 . S
C1663 H1647 0.959 . S
C1663 H1648 0.959 . S
C1663 H1649 0.961 . S
C1663 C1662 1.502 . S
C1664 H1650 0.960 . S
C1664 H1651 0.961 . S
C1664 H1652 0.959 . S
C1664 C1662 1.561 . S
C1665 C1662 1.526 . S
C1665 C1666 1.396 . S
C1665 C1670 1.390 . S
C1666 C1660 1.465 . S
C1666 C1665 1.396 . S
C1666 C1667 1.399 . S
C1667 H1653 0.929 . S
C1667 C1666 1.399 . S
C1667 C1668 1.385 . S
C1668 H1654 0.931 . S
C1668 C1667 1.385 . S
C1668 C1669 1.389 . S
C1669 C1668 1.389 . S
C1669 C1670 1.387 . S
C1670 H1655 0.930 . S
C1670 C1665 1.390 . S
C1670 C1669 1.387 . S
H1671 C1683 0.930 . S
H1672 C1685 0.930 . S
H1673 C1686 0.930 . S
H1674 C1690 0.959 . S
H1675 C1690 0.959 . S
H1676 C1690 0.961 . S
H1677 C1691 0.960 . S
H1678 C1691 0.961 . S
H1679 C1691 0.959 . S
H1680 C1694 0.929 . S
H1681 C1695 0.931 . S
H1682 C1697 0.930 . S
C1683 H1671 0.930 . S
C1683 C1684 1.399 . S
C1683 C1688 1.399 . S
C1684 C1683 1.399 . S
C1684 C1685 1.376 . S
C1685 H1672 0.930 . S
C1685 C1684 1.376 . S
C1685 C1686 1.388 . S
C1686 H1673 0.930 . S
C1686 C1685 1.388 . S
C1686 C1687 1.390 . S
C1687 C1686 1.390 . S
C1687 C1688 1.394 . S
C1687 C1693 1.465 . S
C1688 C1683 1.399 . S
C1688 C1687 1.394 . S
C1688 C1689 1.516 . S
C1689 C1688 1.516 . S
C1689 C1690 1.502 . S
C1689 C1691 1.561 . S
C1689 C1692 1.526 . S
C1690 H1674 0.959 . S
C1690 H1675 0.959 . S
C1690 H1676 0.961 . S
C1690 C1689 1.502 . S
C1691 H1677 0.960 . S
C1691 H1678 0.961 . S
C1691 H1679 0.959 . S
C1691 C1689 1.561 . S
C1692 C1689 1.526 . S
C1692 C1693 1.396 . S
C1692 C1697 1.390 . S
C1693 C1687 1.465 . S
C1693 C1692 1.396 . S
C1693 C1694 1.399 . S
C1694 H1680 0.929 . S
C1694 C1693 1.399 . S
C1694 C1695 1.385 . S
C1695 H1681 0.931 . S
C1695 C1694 1.385 . S
C1695 C1696 1.389 . S
C1696 C1695 1.389 . S
C1696 C1697 1.387 . S
C1697 H1682 0.930 . S
C1697 C1692 1.390 . S
C1697 C1696 1.387 . S
H1698 C1710 0.930 . S
H1699 C1712 0.930 . S
H1700 C1713 0.930 . S
H1701 C1717 0.959 . S
H1702 C1717 0.959 . S
H1703 C1717 0.961 . S
H1704 C1718 0.960 . S
H1705 C1718 0.961 . S
H1706 C1718 0.959 . S
H1707 C1721 0.929 . S
H1708 C1722 0.931 . S
H1709 C1724 0.930 . S
C1710 H1698 0.930 . S
C1710 C1711 1.399 . S
C1710 C1715 1.399 . S
C1711 C1710 1.399 . S
C1711 C1712 1.376 . S
C1712 H1699 0.930 . S
C1712 C1711 1.376 . S
C1712 C1713 1.388 . S
C1713 H1700 0.930 . S
C1713 C1712 1.388 . S
C1713 C1714 1.390 . S
C1714 C1713 1.390 . S
C1714 C1715 1.394 . S
C1714 C1720 1.465 . S
C1715 C1710 1.399 . S
C1715 C1714 1.394 . S
C1715 C1716 1.516 . S
C1716 C1715 1.516 . S
C1716 C1717 1.502 . S
C1716 C1718 1.561 . S
C1716 C1719 1.526 . S
C1717 H1701 0.959 . S
C1717 H1702 0.959 . S
C1717 H1703 0.961 . S
C1717 C1716 1.502 . S
C1718 H1704 0.960 . S
C1718 H1705 0.961 . S
C1718 H1706 0.959 . S
C1718 C1716 1.561 . S
C1719 C1716 1.526 . S
C1719 C1720 1.396 . S
C1719 C1724 1.390 . S
C1720 C1714 1.465 . S
C1720 C1719 1.396 . S
C1720 C1721 1.399 . S
C1721 H1707 0.929 . S
C1721 C1720 1.399 . S
C1721 C1722 1.385 . S
C1722 H1708 0.931 . S
C1722 C1721 1.385 . S
C1722 C1723 1.389 . S
C1723 C1722 1.389 . S
C1723 C1724 1.387 . S
C1724 H1709 0.930 . S
C1724 C1719 1.390 . S
C1724 C1723 1.387 . S
H1725 C1737 0.930 . S
H1726 C1739 0.930 . S
H1727 C1740 0.930 . S
H1728 C1744 0.959 . S
H1729 C1744 0.959 . S
H1730 C1744 0.961 1_556 S
H1731 C1745 0.960 1_556 S
H1732 C1745 0.961 . S
H1733 C1745 0.959 . S
H1734 C1748 0.929 . S
H1735 C1749 0.931 . S
H1736 C1751 0.930 . S
C1737 H1725 0.930 . S
C1737 C1738 1.399 . S
C1737 C1742 1.436 . S
C1738 C1737 1.399 . S
C1738 C1739 1.376 . S
C1739 H1726 0.930 . S
C1739 C1738 1.376 . S
C1739 C1740 1.388 1_556 S
C1740 H1727 0.930 . S
C1740 C1739 1.388 1_554 S
C1740 C1741 1.390 . S
C1741 C1740 1.390 . S
C1741 C1742 1.374 1_554 S
C1741 C1747 1.465 . S
C1742 C1737 1.436 . S
C1742 C1741 1.374 1_556 S
C1742 C1743 1.495 1_556 S
C1743 C1742 1.495 1_554 S
C1743 C1744 1.502 . S
C1743 C1745 1.561 . S
C1743 C1746 1.526 . S
C1744 H1728 0.959 . S
C1744 H1729 0.959 . S
C1744 H1730 0.961 1_554 S
C1744 C1743 1.502 . S
C1745 H1731 0.960 1_554 S
C1745 H1732 0.961 . S
C1745 H1733 0.959 . S
C1745 C1743 1.561 . S
C1746 C1743 1.526 . S
C1746 C1747 1.396 . S
C1746 C1751 1.390 . S
C1747 C1741 1.465 . S
C1747 C1746 1.396 . S
C1747 C1748 1.399 . S
C1748 H1734 0.929 . S
C1748 C1747 1.399 . S
C1748 C1749 1.385 . S
C1749 H1735 0.931 . S
C1749 C1748 1.385 . S
C1749 C1750 1.389 . S
C1750 C1749 1.389 . S
C1750 C1751 1.387 . S
C1751 H1736 0.930 . S
C1751 C1746 1.390 . S
C1751 C1750 1.387 . S
H1752 C1764 0.930 . S
H1753 C1766 0.930 . S
H1754 C1767 0.930 . S
H1755 C1771 0.959 . S
H1756 C1771 0.959 . S
H1757 C1771 0.961 . S
H1758 C1772 0.960 . S
H1759 C1772 0.961 . S
H1760 C1772 0.959 . S
H1761 C1775 0.929 . S
H1762 C1776 0.931 . S
H1763 C1778 0.930 . S
C1764 H1752 0.930 . S
C1764 C1765 1.399 . S
C1764 C1769 1.399 . S
C1765 C1764 1.399 . S
C1765 C1766 1.376 . S
C1766 H1753 0.930 . S
C1766 C1765 1.376 . S
C1766 C1767 1.388 . S
C1767 H1754 0.930 . S
C1767 C1766 1.388 . S
C1767 C1768 1.390 . S
C1768 C1767 1.390 . S
C1768 C1769 1.394 . S
C1768 C1774 1.465 . S
C1769 C1764 1.399 . S
C1769 C1768 1.394 . S
C1769 C1770 1.516 . S
C1770 C1769 1.516 . S
C1770 C1771 1.502 . S
C1770 C1772 1.561 . S
C1770 C1773 1.526 . S
C1771 H1755 0.959 . S
C1771 H1756 0.959 . S
C1771 H1757 0.961 . S
C1771 C1770 1.502 . S
C1772 H1758 0.960 . S
C1772 H1759 0.961 . S
C1772 H1760 0.959 . S
C1772 C1770 1.561 . S
C1773 C1770 1.526 . S
C1773 C1774 1.396 . S
C1773 C1778 1.390 . S
C1774 C1768 1.465 . S
C1774 C1773 1.396 . S
C1774 C1775 1.399 . S
C1775 H1761 0.929 . S
C1775 C1774 1.399 . S
C1775 C1776 1.385 . S
C1776 H1762 0.931 . S
C1776 C1775 1.385 . S
C1776 C1777 1.389 . S
C1777 C1776 1.389 . S
C1777 C1778 1.387 . S
C1778 H1763 0.930 . S
C1778 C1773 1.390 . S
C1778 C1777 1.387 . S
H1779 C1791 0.930 . S
H1780 C1793 0.930 . S
H1781 C1794 0.930 . S
H1782 C1798 0.959 . S
H1783 C1798 0.959 . S
H1784 C1798 0.961 . S
H1785 C1799 0.960 . S
H1786 C1799 0.961 . S
H1787 C1799 0.959 . S
H1788 C1802 0.929 . S
H1789 C1803 0.931 . S
H1790 C1805 0.930 . S
C1791 H1779 0.930 . S
C1791 C1792 1.399 . S
C1791 C1796 1.399 . S
C1792 C1791 1.399 . S
C1792 C1793 1.376 . S
C1793 H1780 0.930 . S
C1793 C1792 1.376 . S
C1793 C1794 1.388 . S
C1794 H1781 0.930 . S
C1794 C1793 1.388 . S
C1794 C1795 1.390 . S
C1795 C1794 1.390 . S
C1795 C1796 1.394 . S
C1795 C1801 1.465 . S
C1796 C1791 1.399 . S
C1796 C1795 1.394 . S
C1796 C1797 1.516 . S
C1797 C1796 1.516 . S
C1797 C1798 1.502 . S
C1797 C1799 1.561 . S
C1797 C1800 1.526 . S
C1798 H1782 0.959 . S
C1798 H1783 0.959 . S
C1798 H1784 0.961 . S
C1798 C1797 1.502 . S
C1799 H1785 0.960 . S
C1799 H1786 0.961 . S
C1799 H1787 0.959 . S
C1799 C1797 1.561 . S
C1800 C1797 1.526 . S
C1800 C1801 1.396 . S
C1800 C1805 1.390 . S
C1801 C1795 1.465 . S
C1801 C1800 1.396 . S
C1801 C1802 1.399 . S
C1802 H1788 0.929 . S
C1802 C1801 1.399 . S
C1802 C1803 1.385 . S
C1803 H1789 0.931 . S
C1803 C1802 1.385 . S
C1803 C1804 1.389 . S
C1804 C1803 1.389 . S
C1804 C1805 1.387 . S
C1805 H1790 0.930 . S
C1805 C1800 1.390 . S
C1805 C1804 1.387 . S
H1806 C1818 0.930 . S
H1807 C1820 0.930 . S
H1808 C1821 0.930 . S
H1809 C1825 0.959 . S
H1810 C1825 0.959 . S
H1811 C1825 0.961 . S
H1812 C1826 0.960 . S
H1813 C1826 0.961 . S
H1814 C1826 0.959 . S
H1815 C1829 0.929 . S
H1816 C1830 0.931 . S
H1817 C1832 0.930 . S
C1818 H1806 0.930 . S
C1818 C1819 1.399 . S
C1818 C1823 1.399 . S
C1819 C1818 1.399 . S
C1819 C1820 1.376 . S
C1820 H1807 0.930 . S
C1820 C1819 1.376 . S
C1820 C1821 1.388 . S
C1821 H1808 0.930 . S
C1821 C1820 1.388 . S
C1821 C1822 1.390 . S
C1822 C1821 1.390 . S
C1822 C1823 1.394 . S
C1822 C1828 1.465 . S
C1823 C1818 1.399 . S
C1823 C1822 1.394 . S
C1823 C1824 1.516 . S
C1824 C1823 1.516 . S
C1824 C1825 1.502 . S
C1824 C1826 1.561 . S
C1824 C1827 1.526 . S
C1825 H1809 0.959 . S
C1825 H1810 0.959 . S
C1825 H1811 0.961 . S
C1825 C1824 1.502 . S
C1826 H1812 0.960 . S
C1826 H1813 0.961 . S
C1826 H1814 0.959 . S
C1826 C1824 1.561 . S
C1827 C1824 1.526 . S
C1827 C1828 1.396 . S
C1827 C1832 1.390 . S
C1828 C1822 1.465 . S
C1828 C1827 1.396 . S
C1828 C1829 1.399 . S
C1829 H1815 0.929 . S
C1829 C1828 1.399 . S
C1829 C1830 1.385 . S
C1830 H1816 0.931 . S
C1830 C1829 1.385 . S
C1830 C1831 1.389 . S
C1831 C1830 1.389 . S
C1831 C1832 1.387 . S
C1832 H1817 0.930 . S
C1832 C1827 1.390 . S
C1832 C1831 1.387 . S
H1833 C1845 0.930 . S
H1834 C1847 0.930 . S
H1835 C1848 0.930 . S
H1836 C1852 0.959 . S
H1837 C1852 0.959 . S
H1838 C1852 0.961 . S
H1839 C1853 0.960 . S
H1840 C1853 0.961 . S
H1841 C1853 0.959 . S
H1842 C1856 0.929 . S
H1843 C1857 0.931 . S
H1844 C1859 0.930 . S
C1845 H1833 0.930 . S
C1845 C1846 1.399 . S
C1845 C1850 1.399 . S
C1846 C1845 1.399 . S
C1846 C1847 1.376 . S
C1847 H1834 0.930 . S
C1847 C1846 1.376 . S
C1847 C1848 1.388 . S
C1848 H1835 0.930 . S
C1848 C1847 1.388 . S
C1848 C1849 1.390 . S
C1849 C1848 1.390 . S
C1849 C1850 1.394 . S
C1849 C1855 1.465 . S
C1850 C1845 1.399 . S
C1850 C1849 1.394 . S
C1850 C1851 1.516 . S
C1851 C1850 1.516 . S
C1851 C1852 1.502 . S
C1851 C1853 1.561 . S
C1851 C1854 1.526 . S
C1852 H1836 0.959 . S
C1852 H1837 0.959 . S
C1852 H1838 0.961 . S
C1852 C1851 1.502 . S
C1853 H1839 0.960 . S
C1853 H1840 0.961 . S
C1853 H1841 0.959 . S
C1853 C1851 1.561 . S
C1854 C1851 1.526 . S
C1854 C1855 1.396 . S
C1854 C1859 1.390 . S
C1855 C1849 1.465 . S
C1855 C1854 1.396 . S
C1855 C1856 1.399 . S
C1856 H1842 0.929 . S
C1856 C1855 1.399 . S
C1856 C1857 1.385 . S
C1857 H1843 0.931 . S
C1857 C1856 1.385 . S
C1857 C1858 1.389 . S
C1858 C1857 1.389 . S
C1858 C1859 1.387 . S
C1859 H1844 0.930 . S
C1859 C1854 1.390 . S
C1859 C1858 1.387 . S
H1860 C1872 0.930 . S
H1861 C1874 0.930 . S
H1862 C1875 0.930 1_545 S
H1863 C1879 0.959 . S
H1864 C1879 0.959 . S
H1865 C1879 0.996 . S
H1866 C1880 0.960 . S
H1867 C1880 0.961 . S
H1868 C1880 0.959 . S
H1869 C1883 0.929 . S
H1870 C1884 0.931 . S
H1871 C1886 0.930 . S
C1872 H1860 0.930 . S
C1872 C1873 1.399 . S
C1872 C1877 1.399 1_565 S
C1873 C1872 1.399 . S
C1873 C1874 1.376 . S
C1874 H1861 0.930 . S
C1874 C1873 1.376 . S
C1874 C1875 1.388 . S
C1875 H1862 0.930 1_565 S
C1875 C1874 1.388 . S
C1875 C1876 1.390 1_565 S
C1876 C1875 1.390 1_545 S
C1876 C1877 1.394 . S
C1876 C1882 1.465 . S
C1877 C1872 1.399 1_545 S
C1877 C1876 1.394 . S
C1877 C1878 1.516 . S
C1878 C1877 1.516 . S
C1878 C1879 1.502 . S
C1878 C1880 1.561 . S
C1878 C1881 1.526 . S
C1879 H1863 0.959 . S
C1879 H1864 0.959 . S
C1879 H1865 0.996 . S
C1879 C1878 1.502 . S
C1880 H1866 0.960 . S
C1880 H1867 0.961 . S
C1880 H1868 0.959 . S
C1880 C1878 1.561 . S
C1881 C1878 1.526 . S
C1881 C1882 1.396 . S
C1881 C1886 1.390 . S
C1882 C1876 1.465 . S
C1882 C1881 1.396 . S
C1882 C1883 1.399 . S
C1883 H1869 0.929 . S
C1883 C1882 1.399 . S
C1883 C1884 1.385 . S
C1884 H1870 0.931 . S
C1884 C1883 1.385 . S
C1884 C1885 1.389 . S
C1885 C1884 1.389 . S
C1885 C1886 1.387 . S
C1886 H1871 0.930 . S
C1886 C1881 1.390 . S
C1886 C1885 1.387 . S
H1887 C1899 0.930 . S
H1888 C1901 0.930 . S
H1889 C1902 0.930 . S
H1890 C1906 0.959 . S
H1891 C1906 0.959 . S
H1892 C1906 0.961 . S
H1893 C1907 0.960 . S
H1894 C1907 0.961 . S
H1895 C1907 0.959 . S
H1896 C1910 0.929 . S
H1897 C1911 0.931 . S
H1898 C1913 0.930 . S
C1899 H1887 0.930 . S
C1899 C1900 1.399 . S
C1899 C1904 1.399 . S
C1900 C1899 1.399 . S
C1900 C1901 1.376 . S
C1901 H1888 0.930 . S
C1901 C1900 1.376 . S
C1901 C1902 1.388 . S
C1902 H1889 0.930 . S
C1902 C1901 1.388 . S
C1902 C1903 1.390 . S
C1903 C1902 1.390 . S
C1903 C1904 1.394 . S
C1903 C1909 1.465 . S
C1904 C1899 1.399 . S
C1904 C1903 1.394 . S
C1904 C1905 1.516 . S
C1905 C1904 1.516 . S
C1905 C1906 1.502 . S
C1905 C1907 1.561 . S
C1905 C1908 1.526 . S
C1906 H1890 0.959 . S
C1906 H1891 0.959 . S
C1906 H1892 0.961 . S
C1906 C1905 1.502 . S
C1907 H1893 0.960 . S
C1907 H1894 0.961 . S
C1907 H1895 0.959 . S
C1907 C1905 1.561 . S
C1908 C1905 1.526 . S
C1908 C1909 1.396 . S
C1908 C1913 1.390 . S
C1909 C1903 1.465 . S
C1909 C1908 1.396 . S
C1909 C1910 1.399 . S
C1910 H1896 0.929 . S
C1910 C1909 1.399 . S
C1910 C1911 1.385 . S
C1911 H1897 0.931 . S
C1911 C1910 1.385 . S
C1911 C1912 1.389 . S
C1912 C1911 1.389 . S
C1912 C1913 1.387 . S
C1913 H1898 0.930 . S
C1913 C1908 1.390 . S
C1913 C1912 1.387 . S
H1914 C1926 0.930 . S
H1915 C1928 0.930 . S
H1916 C1929 0.930 . S
H1917 C1933 0.959 . S
H1918 C1933 0.959 . S
H1919 C1933 0.961 . S
H1920 C1934 0.960 . S
H1921 C1934 0.961 . S
H1922 C1934 0.959 . S
H1923 C1937 0.929 . S
H1924 C1938 0.931 . S
H1925 C1940 0.930 . S
C1926 H1914 0.930 . S
C1926 C1927 1.399 . S
C1926 C1931 1.399 . S
C1927 C1926 1.399 . S
C1927 C1928 1.376 . S
C1928 H1915 0.930 . S
C1928 C1927 1.376 . S
C1928 C1929 1.388 . S
C1929 H1916 0.930 . S
C1929 C1928 1.388 . S
C1929 C1930 1.390 . S
C1930 C1929 1.390 . S
C1930 C1931 1.394 . S
C1930 C1936 1.465 . S
C1931 C1926 1.399 . S
C1931 C1930 1.394 . S
C1931 C1932 1.516 . S
C1932 C1931 1.516 . S
C1932 C1933 1.502 . S
C1932 C1934 1.561 . S
C1932 C1935 1.526 . S
C1933 H1917 0.959 . S
C1933 H1918 0.959 . S
C1933 H1919 0.961 . S
C1933 C1932 1.502 . S
C1934 H1920 0.960 . S
C1934 H1921 0.961 . S
C1934 H1922 0.959 . S
C1934 C1932 1.561 . S
C1935 C1932 1.526 . S
C1935 C1936 1.396 . S
C1935 C1940 1.390 . S
C1936 C1930 1.465 . S
C1936 C1935 1.396 . S
C1936 C1937 1.399 . S
C1937 H1923 0.929 . S
C1937 C1936 1.399 . S
C1937 C1938 1.385 . S
C1938 H1924 0.931 . S
C1938 C1937 1.385 . S
C1938 C1939 1.389 . S
C1939 C1938 1.389 . S
C1939 C1940 1.387 . S
C1940 H1925 0.930 . S
C1940 C1935 1.390 . S
C1940 C1939 1.387 . S
H1941 C1953 0.930 . S
H1942 C1955 0.930 . S
H1943 C1956 0.930 . S
H1944 C1960 0.959 . S
H1945 C1960 0.959 . S
H1946 C1960 0.961 . S
H1947 C1961 0.960 . S
H1948 C1961 0.961 . S
H1949 C1961 0.959 . S
H1950 C1964 0.929 . S
H1951 C1965 0.931 . S
H1952 C1967 0.930 . S
C1953 H1941 0.930 . S
C1953 C1954 1.399 . S
C1953 C1958 1.399 . S
C1954 C1953 1.399 . S
C1954 C1955 1.376 . S
C1955 H1942 0.930 . S
C1955 C1954 1.376 . S
C1955 C1956 1.388 . S
C1956 H1943 0.930 . S
C1956 C1955 1.388 . S
C1956 C1957 1.390 . S
C1957 C1956 1.390 . S
C1957 C1958 1.394 . S
C1957 C1963 1.465 . S
C1958 C1953 1.399 . S
C1958 C1957 1.394 . S
C1958 C1959 1.516 . S
C1959 C1958 1.516 . S
C1959 C1960 1.502 . S
C1959 C1961 1.561 . S
C1959 C1962 1.526 . S
C1960 H1944 0.959 . S
C1960 H1945 0.959 . S
C1960 H1946 0.961 . S
C1960 C1959 1.502 . S
C1961 H1947 0.960 . S
C1961 H1948 0.961 . S
C1961 H1949 0.959 . S
C1961 C1959 1.561 . S
C1962 C1959 1.526 . S
C1962 C1963 1.396 . S
C1962 C1967 1.390 . S
C1963 C1957 1.465 . S
C1963 C1962 1.396 . S
C1963 C1964 1.399 . S
C1964 H1950 0.929 . S
C1964 C1963 1.399 . S
C1964 C1965 1.385 . S
C1965 H1951 0.931 . S
C1965 C1964 1.385 . S
C1965 C1966 1.389 . S
C1966 C1965 1.389 . S
C1966 C1967 1.387 . S
C1967 H1952 0.930 . S
C1967 C1962 1.390 . S
C1967 C1966 1.387 . S
H1968 C1980 0.930 . S
H1969 C1982 0.930 . S
H1970 C1983 0.930 . S
H1971 C1987 0.959 . S
H1972 C1987 0.959 . S
H1973 C1987 0.961 . S
H1974 C1988 0.960 . S
H1975 C1988 0.961 . S
H1976 C1988 0.959 . S
H1977 C1991 0.929 . S
H1978 C1992 0.931 . S
H1979 C1994 0.930 . S
C1980 H1968 0.930 . S
C1980 C1981 1.399 . S
C1980 C1985 1.399 . S
C1981 C1980 1.399 . S
C1981 C1982 1.376 . S
C1982 H1969 0.930 . S
C1982 C1981 1.376 . S
C1982 C1983 1.388 . S
C1983 H1970 0.930 . S
C1983 C1982 1.388 . S
C1983 C1984 1.390 . S
C1984 C1983 1.390 . S
C1984 C1985 1.394 . S
C1984 C1990 1.465 . S
C1985 C1980 1.399 . S
C1985 C1984 1.394 . S
C1985 C1986 1.516 . S
C1986 C1985 1.516 . S
C1986 C1987 1.502 . S
C1986 C1988 1.561 . S
C1986 C1989 1.526 . S
C1987 H1971 0.959 . S
C1987 H1972 0.959 . S
C1987 H1973 0.961 . S
C1987 C1986 1.502 . S
C1988 H1974 0.960 . S
C1988 H1975 0.961 . S
C1988 H1976 0.959 . S
C1988 C1986 1.561 . S
C1989 C1986 1.526 . S
C1989 C1990 1.396 . S
C1989 C1994 1.390 . S
C1990 C1984 1.465 . S
C1990 C1989 1.396 . S
C1990 C1991 1.399 . S
C1991 H1977 0.929 . S
C1991 C1990 1.399 . S
C1991 C1992 1.385 . S
C1992 H1978 0.931 . S
C1992 C1991 1.385 . S
C1992 C1993 1.389 . S
C1993 C1992 1.389 . S
C1993 C1994 1.387 . S
C1994 H1979 0.930 . S
C1994 C1989 1.390 . S
C1994 C1993 1.387 . S
H1995 C2007 0.930 . S
H1996 C2009 0.930 . S
H1997 C2010 0.930 . S
H1998 C2014 0.959 . S
H1999 C2014 0.959 . S
H2000 C2014 0.961 . S
H2001 C2015 0.960 . S
H2002 C2015 0.961 . S
H2003 C2015 0.959 . S
H2004 C2018 0.929 . S
H2005 C2019 0.931 . S
H2006 C2021 0.930 . S
C2007 H1995 0.930 . S
C2007 C2008 1.399 . S
C2007 C2012 1.399 . S
C2008 C2007 1.399 . S
C2008 C2009 1.376 . S
C2009 H1996 0.930 . S
C2009 C2008 1.376 . S
C2009 C2010 1.388 . S
C2010 H1997 0.930 . S
C2010 C2009 1.388 . S
C2010 C2011 1.390 . S
C2011 C2010 1.390 . S
C2011 C2012 1.394 . S
C2011 C2017 1.465 . S
C2012 C2007 1.399 . S
C2012 C2011 1.394 . S
C2012 C2013 1.516 . S
C2013 C2012 1.516 . S
C2013 C2014 1.502 . S
C2013 C2015 1.561 . S
C2013 C2016 1.526 . S
C2014 H1998 0.959 . S
C2014 H1999 0.959 . S
C2014 H2000 0.961 . S
C2014 C2013 1.502 . S
C2015 H2001 0.960 . S
C2015 H2002 0.961 . S
C2015 H2003 0.959 . S
C2015 C2013 1.561 . S
C2016 C2013 1.526 . S
C2016 C2017 1.396 . S
C2016 C2021 1.390 . S
C2017 C2011 1.465 . S
C2017 C2016 1.396 . S
C2017 C2018 1.399 . S
C2018 H2004 0.929 . S
C2018 C2017 1.399 . S
C2018 C2019 1.385 . S
C2019 H2005 0.931 . S
C2019 C2018 1.385 . S
C2019 C2020 1.389 . S
C2020 C2019 1.389 . S
C2020 C2021 1.387 . S
C2021 H2006 0.930 . S
C2021 C2016 1.390 . S
C2021 C2020 1.387 . S
H2022 C2034 0.930 . S
H2023 C2036 0.930 . S
H2024 C2037 0.930 . S
H2025 C2041 0.959 . S
H2026 C2041 0.959 . S
H2027 C2041 0.961 . S
H2028 C2042 0.960 . S
H2029 C2042 0.961 . S
H2030 C2042 0.959 . S
H2031 C2045 0.929 . S
H2032 C2046 0.931 . S
H2033 C2048 0.930 . S
C2034 H2022 0.930 . S
C2034 C2035 1.399 . S
C2034 C2039 1.399 . S
C2035 C2034 1.399 . S
C2035 C2036 1.376 . S
C2036 H2023 0.930 . S
C2036 C2035 1.376 . S
C2036 C2037 1.388 . S
C2037 H2024 0.930 . S
C2037 C2036 1.388 . S
C2037 C2038 1.390 . S
C2038 C2037 1.390 . S
C2038 C2039 1.394 . S
C2038 C2044 1.465 . S
C2039 C2034 1.399 . S
C2039 C2038 1.394 . S
C2039 C2040 1.516 . S
C2040 C2039 1.516 . S
C2040 C2041 1.502 . S
C2040 C2042 1.561 . S
C2040 C2043 1.526 . S
C2041 H2025 0.959 . S
C2041 H2026 0.959 . S
C2041 H2027 0.961 . S
C2041 C2040 1.502 . S
C2042 H2028 0.960 . S
C2042 H2029 0.961 . S
C2042 H2030 0.959 . S
C2042 C2040 1.561 . S
C2043 C2040 1.526 . S
C2043 C2044 1.396 . S
C2043 C2048 1.390 . S
C2044 C2038 1.465 . S
C2044 C2043 1.396 . S
C2044 C2045 1.399 . S
C2045 H2031 0.929 . S
C2045 C2044 1.399 . S
C2045 C2046 1.385 . S
C2046 H2032 0.931 . S
C2046 C2045 1.385 . S
C2046 C2047 1.389 . S
C2047 C2046 1.389 . S
C2047 C2048 1.387 . S
C2048 H2033 0.930 . S
C2048 C2043 1.390 . S
C2048 C2047 1.387 . S
H2049 C2061 0.930 . S
H2050 C2063 0.930 . S
H2051 C2064 0.930 1_455 S
H2052 C2068 0.959 . S
H2053 C2068 0.959 . S
H2054 C2068 0.961 . S
H2055 C2069 0.960 . S
H2056 C2069 0.961 . S
H2057 C2069 0.959 . S
H2058 C2072 0.929 . S
H2059 C2073 0.931 . S
H2060 C2075 0.930 . S
C2061 H2049 0.930 . S
C2061 C2062 1.399 . S
C2061 C2066 1.399 1_655 S
C2062 C2061 1.399 . S
C2062 C2063 1.376 . S
C2063 H2050 0.930 . S
C2063 C2062 1.376 . S
C2063 C2064 1.388 . S
C2064 H2051 0.930 1_655 S
C2064 C2063 1.388 . S
C2064 C2065 1.390 1_655 S
C2065 C2064 1.390 1_455 S
C2065 C2066 1.394 . S
C2065 C2071 1.465 . S
C2066 C2061 1.399 1_455 S
C2066 C2065 1.394 . S
C2066 C2067 1.516 . S
C2067 C2066 1.516 . S
C2067 C2068 1.502 . S
C2067 C2069 1.561 . S
C2067 C2070 1.526 . S
C2068 H2052 0.959 . S
C2068 H2053 0.959 . S
C2068 H2054 0.961 . S
C2068 C2067 1.502 . S
C2069 H2055 0.960 . S
C2069 H2056 0.961 . S
C2069 H2057 0.959 . S
C2069 C2067 1.561 . S
C2070 C2067 1.526 . S
C2070 C2071 1.396 . S
C2070 C2075 1.390 . S
C2071 C2065 1.465 . S
C2071 C2070 1.396 . S
C2071 C2072 1.399 . S
C2072 H2058 0.929 . S
C2072 C2071 1.399 . S
C2072 C2073 1.385 . S
C2073 H2059 0.931 . S
C2073 C2072 1.385 . S
C2073 C2074 1.389 . S
C2074 C2073 1.389 . S
C2074 C2075 1.387 . S
C2075 H2060 0.930 . S
C2075 C2070 1.390 . S
C2075 C2074 1.387 . S
H2076 C2088 0.930 . S
H2077 C2090 0.930 . S
H2078 C2091 0.930 . S
H2079 C2095 0.959 . S
H2080 C2095 0.959 . S
H2081 C2095 0.961 . S
H2082 C2096 0.960 . S
H2083 C2096 0.961 . S
H2084 C2096 0.959 . S
H2085 C2099 0.929 . S
H2086 C2100 0.931 . S
H2087 C2102 0.930 . S
C2088 H2076 0.930 . S
C2088 C2089 1.399 . S
C2088 C2093 1.399 . S
C2089 C2088 1.399 . S
C2089 C2090 1.376 . S
C2090 H2077 0.930 . S
C2090 C2089 1.376 . S
C2090 C2091 1.388 . S
C2091 H2078 0.930 . S
C2091 C2090 1.388 . S
C2091 C2092 1.390 . S
C2092 C2091 1.390 . S
C2092 C2093 1.394 . S
C2092 C2098 1.465 . S
C2093 C2088 1.399 . S
C2093 C2092 1.394 . S
C2093 C2094 1.516 . S
C2094 C2093 1.516 . S
C2094 C2095 1.502 . S
C2094 C2096 1.561 . S
C2094 C2097 1.526 . S
C2095 H2079 0.959 . S
C2095 H2080 0.959 . S
C2095 H2081 0.961 . S
C2095 C2094 1.502 . S
C2096 H2082 0.960 . S
C2096 H2083 0.961 . S
C2096 H2084 0.959 . S
C2096 C2094 1.561 . S
C2097 C2094 1.526 . S
C2097 C2098 1.396 . S
C2097 C2102 1.390 . S
C2098 C2092 1.465 . S
C2098 C2097 1.396 . S
C2098 C2099 1.399 . S
C2099 H2085 0.929 . S
C2099 C2098 1.399 . S
C2099 C2100 1.385 . S
C2100 H2086 0.931 . S
C2100 C2099 1.385 . S
C2100 C2101 1.389 . S
C2101 C2100 1.389 . S
C2101 C2102 1.387 . S
C2102 H2087 0.930 . S
C2102 C2097 1.390 . S
C2102 C2101 1.387 . S
H2103 C2115 0.930 . S
H2104 C2117 0.930 . S
H2105 C2118 0.930 . S
H2106 C2122 0.959 . S
H2107 C2122 0.959 . S
H2108 C2122 0.961 . S
H2109 C2123 0.960 . S
H2110 C2123 0.961 . S
H2111 C2123 0.959 . S
H2112 C2126 0.929 . S
H2113 C2127 0.931 . S
H2114 C2129 0.930 . S
C2115 H2103 0.930 . S
C2115 C2116 1.399 . S
C2115 C2120 1.399 . S
C2116 C2115 1.399 . S
C2116 C2117 1.376 . S
C2117 H2104 0.930 . S
C2117 C2116 1.376 . S
C2117 C2118 1.388 . S
C2118 H2105 0.930 . S
C2118 C2117 1.388 . S
C2118 C2119 1.390 . S
C2119 C2118 1.390 . S
C2119 C2120 1.394 . S
C2119 C2125 1.465 . S
C2120 C2115 1.399 . S
C2120 C2119 1.394 . S
C2120 C2121 1.516 . S
C2121 C2120 1.516 . S
C2121 C2122 1.502 . S
C2121 C2123 1.561 . S
C2121 C2124 1.526 . S
C2122 H2106 0.959 . S
C2122 H2107 0.959 . S
C2122 H2108 0.961 . S
C2122 C2121 1.502 . S
C2123 H2109 0.960 . S
C2123 H2110 0.961 . S
C2123 H2111 0.959 . S
C2123 C2121 1.561 . S
C2124 C2121 1.526 . S
C2124 C2125 1.396 . S
C2124 C2129 1.390 1_455 S
C2125 C2119 1.465 . S
C2125 C2124 1.396 . S
C2125 C2126 1.399 1_455 S
C2126 H2112 0.929 . S
C2126 C2125 1.399 1_655 S
C2126 C2127 1.385 . S
C2127 H2113 0.931 . S
C2127 C2126 1.385 . S
C2127 C2128 1.389 . S
C2128 C2127 1.389 . S
C2128 C2129 1.387 . S
C2129 H2114 0.930 . S
C2129 C2124 1.390 1_655 S
C2129 C2128 1.387 . S
H2130 C2142 0.930 . S
H2131 C2144 0.930 . S
H2132 C2145 0.930 . S
H2133 C2149 0.959 . S
H2134 C2149 0.959 . S
H2135 C2149 0.961 . S
H2136 C2150 0.960 . S
H2137 C2150 0.961 . S
H2138 C2150 0.959 . S
H2139 C2153 0.929 . S
H2140 C2154 0.931 . S
H2141 C2156 0.930 . S
C2142 H2130 0.930 . S
C2142 C2143 1.399 . S
C2142 C2147 1.399 . S
C2143 C2142 1.399 . S
C2143 C2144 1.376 . S
C2144 H2131 0.930 . S
C2144 C2143 1.376 . S
C2144 C2145 1.388 . S
C2145 H2132 0.930 . S
C2145 C2144 1.388 . S
C2145 C2146 1.390 . S
C2146 C2145 1.390 . S
C2146 C2147 1.394 . S
C2146 C2152 1.465 . S
C2147 C2142 1.399 . S
C2147 C2146 1.394 . S
C2147 C2148 1.516 . S
C2148 C2147 1.516 . S
C2148 C2149 1.502 . S
C2148 C2150 1.561 . S
C2148 C2151 1.526 . S
C2149 H2133 0.959 . S
C2149 H2134 0.959 . S
C2149 H2135 0.961 . S
C2149 C2148 1.502 . S
C2150 H2136 0.960 . S
C2150 H2137 0.961 . S
C2150 H2138 0.959 . S
C2150 C2148 1.561 . S
C2151 C2148 1.526 . S
C2151 C2152 1.396 . S
C2151 C2156 1.390 . S
C2152 C2146 1.465 . S
C2152 C2151 1.396 . S
C2152 C2153 1.399 . S
C2153 H2139 0.929 . S
C2153 C2152 1.399 . S
C2153 C2154 1.385 . S
C2154 H2140 0.931 . S
C2154 C2153 1.385 . S
C2154 C2155 1.389 . S
C2155 C2154 1.389 . S
C2155 C2156 1.387 . S
C2156 H2141 0.930 . S
C2156 C2151 1.390 . S
C2156 C2155 1.387 . S
H2157 C2169 0.930 . S
H2158 C2171 0.930 . S
H2159 C2172 0.930 . S
H2160 C2176 0.959 . S
H2161 C2176 0.959 . S
H2162 C2176 0.961 . S
H2163 C2177 0.960 . S
H2164 C2177 0.961 . S
H2165 C2177 0.959 . S
H2166 C2180 0.929 . S
H2167 C2181 0.931 . S
H2168 C2183 0.930 . S
C2169 H2157 0.930 . S
C2169 C2170 1.399 . S
C2169 C2174 1.399 . S
C2170 C2169 1.399 . S
C2170 C2171 1.376 . S
C2171 H2158 0.930 . S
C2171 C2170 1.376 . S
C2171 C2172 1.388 . S
C2172 H2159 0.930 . S
C2172 C2171 1.388 . S
C2172 C2173 1.390 . S
C2173 C2172 1.390 . S
C2173 C2174 1.394 . S
C2173 C2179 1.465 . S
C2174 C2169 1.399 . S
C2174 C2173 1.394 . S
C2174 C2175 1.516 . S
C2175 C2174 1.516 . S
C2175 C2176 1.502 . S
C2175 C2177 1.561 . S
C2175 C2178 1.526 . S
C2176 H2160 0.959 . S
C2176 H2161 0.959 . S
C2176 H2162 0.961 . S
C2176 C2175 1.502 . S
C2177 H2163 0.960 . S
C2177 H2164 0.961 . S
C2177 H2165 0.959 . S
C2177 C2175 1.561 . S
C2178 C2175 1.526 . S
C2178 C2179 1.396 . S
C2178 C2183 1.390 . S
C2179 C2173 1.465 . S
C2179 C2178 1.396 . S
C2179 C2180 1.399 . S
C2180 H2166 0.929 . S
C2180 C2179 1.399 . S
C2180 C2181 1.385 . S
C2181 H2167 0.931 . S
C2181 C2180 1.385 . S
C2181 C2182 1.389 . S
C2182 C2181 1.389 . S
C2182 C2183 1.387 . S
C2183 H2168 0.930 . S
C2183 C2178 1.390 . S
C2183 C2182 1.387 . S
H2184 C2196 0.930 . S
H2185 C2198 0.930 . S
H2186 C2199 0.930 . S
H2187 C2203 0.959 . S
H2188 C2203 0.959 . S
H2189 C2203 0.961 . S
H2190 C2204 0.960 . S
H2191 C2204 0.961 . S
H2192 C2204 0.959 . S
H2193 C2207 0.929 . S
H2194 C2208 0.931 . S
H2195 C2210 0.930 . S
C2196 H2184 0.930 . S
C2196 C2197 1.399 . S
C2196 C2201 1.399 . S
C2197 C2196 1.399 . S
C2197 C2198 1.376 . S
C2198 H2185 0.930 . S
C2198 C2197 1.376 . S
C2198 C2199 1.388 . S
C2199 H2186 0.930 . S
C2199 C2198 1.388 . S
C2199 C2200 1.390 . S
C2200 C2199 1.390 . S
C2200 C2201 1.394 . S
C2200 C2206 1.465 . S
C2201 C2196 1.399 . S
C2201 C2200 1.394 . S
C2201 C2202 1.516 . S
C2202 C2201 1.516 . S
C2202 C2203 1.502 . S
C2202 C2204 1.561 . S
C2202 C2205 1.526 . S
C2203 H2187 0.959 . S
C2203 H2188 0.959 . S
C2203 H2189 0.961 . S
C2203 C2202 1.502 . S
C2204 H2190 0.960 . S
C2204 H2191 0.961 . S
C2204 H2192 0.959 . S
C2204 C2202 1.561 . S
C2205 C2202 1.526 . S
C2205 C2206 1.396 . S
C2205 C2210 1.390 . S
C2206 C2200 1.465 . S
C2206 C2205 1.396 . S
C2206 C2207 1.399 . S
C2207 H2193 0.929 . S
C2207 C2206 1.399 . S
C2207 C2208 1.385 . S
C2208 H2194 0.931 . S
C2208 C2207 1.385 . S
C2208 C2209 1.389 . S
C2209 C2208 1.389 . S
C2209 C2210 1.387 . S
C2210 H2195 0.930 . S
C2210 C2205 1.390 . S
C2210 C2209 1.387 . S
H2211 C2223 0.930 . S
H2212 C2225 0.930 . S
H2213 C2226 0.930 . S
H2214 C2230 0.959 . S
H2215 C2230 0.959 1_556 S
H2216 C2230 0.961 . S
H2217 C2231 0.960 . S
H2218 C2231 0.961 1_556 S
H2219 C2231 0.959 . S
H2220 C2234 0.929 1_554 S
H2221 C2235 0.931 . S
H2222 C2237 0.930 . S
C2223 H2211 0.930 . S
C2223 C2224 1.399 . S
C2223 C2228 1.399 . S
C2224 C2223 1.399 . S
C2224 C2225 1.376 . S
C2225 H2212 0.930 . S
C2225 C2224 1.376 . S
C2225 C2226 1.388 . S
C2226 H2213 0.930 . S
C2226 C2225 1.388 . S
C2226 C2227 1.390 . S
C2227 C2226 1.390 . S
C2227 C2228 1.394 . S
C2227 C2233 1.465 . S
C2228 C2223 1.399 . S
C2228 C2227 1.394 . S
C2228 C2229 1.516 . S
C2229 C2228 1.516 . S
C2229 C2230 1.502 . S
C2229 C2231 1.561 . S
C2229 C2232 1.526 1_554 S
C2230 H2214 0.959 . S
C2230 H2215 0.959 1_554 S
C2230 H2216 0.961 . S
C2230 C2229 1.502 . S
C2231 H2217 0.960 . S
C2231 H2218 0.961 1_554 S
C2231 H2219 0.959 . S
C2231 C2229 1.561 . S
C2232 C2229 1.526 1_556 S
C2232 C2233 1.396 1_556 S
C2232 C2237 1.390 . S
C2233 C2227 1.465 . S
C2233 C2232 1.396 1_554 S
C2233 C2234 1.399 1_554 S
C2234 H2220 0.929 1_556 S
C2234 C2233 1.399 1_556 S
C2234 C2235 1.385 . S
C2235 H2221 0.931 . S
C2235 C2234 1.385 . S
C2235 C2236 1.389 . S
C2236 C2235 1.389 . S
C2236 C2237 1.387 . S
C2237 H2222 0.930 . S
C2237 C2232 1.390 . S
C2237 C2236 1.387 . S
H2238 C2250 0.930 . S
H2239 C2252 0.930 . S
H2240 C2253 0.930 . S
H2241 C2257 0.959 . S
H2242 C2257 0.959 . S
H2243 C2257 0.961 . S
H2244 C2258 0.960 . S
H2245 C2258 0.961 . S
H2246 C2258 0.959 . S
H2247 C2261 0.929 . S
H2248 C2262 0.931 . S
H2249 C2264 0.930 . S
C2250 H2238 0.930 . S
C2250 C2251 1.399 . S
C2250 C2255 1.399 . S
C2251 C2250 1.399 . S
C2251 C2252 1.376 . S
C2252 H2239 0.930 . S
C2252 C2251 1.376 . S
C2252 C2253 1.388 . S
C2253 H2240 0.930 . S
C2253 C2252 1.388 . S
C2253 C2254 1.390 . S
C2254 C2253 1.390 . S
C2254 C2255 1.394 . S
C2254 C2260 1.465 . S
C2255 C2250 1.399 . S
C2255 C2254 1.394 . S
C2255 C2256 1.516 . S
C2256 C2255 1.516 . S
C2256 C2257 1.502 . S
C2256 C2258 1.561 . S
C2256 C2259 1.526 . S
C2257 H2241 0.959 . S
C2257 H2242 0.959 . S
C2257 H2243 0.961 . S
C2257 C2256 1.502 . S
C2258 H2244 0.960 . S
C2258 H2245 0.961 . S
C2258 H2246 0.959 . S
C2258 C2256 1.561 . S
C2259 C2256 1.526 . S
C2259 C2260 1.396 . S
C2259 C2264 1.390 . S
C2260 C2254 1.465 . S
C2260 C2259 1.396 . S
C2260 C2261 1.399 . S
C2261 H2247 0.929 . S
C2261 C2260 1.399 . S
C2261 C2262 1.385 . S
C2262 H2248 0.931 . S
C2262 C2261 1.385 . S
C2262 C2263 1.389 . S
C2263 C2262 1.389 . S
C2263 C2264 1.387 . S
C2264 H2249 0.930 . S
C2264 C2259 1.390 . S
C2264 C2263 1.387 . S
H2265 C2277 0.930 . S
H2266 C2279 0.930 . S
H2267 C2280 0.930 . S
H2268 C2284 0.959 . S
H2269 C2284 0.959 . S
H2270 C2284 0.961 . S
H2271 C2285 0.960 . S
H2272 C2285 0.961 . S
H2273 C2285 0.959 . S
H2274 C2288 0.929 . S
H2275 C2289 0.931 . S
H2276 C2291 0.930 . S
C2277 H2265 0.930 . S
C2277 C2278 1.399 . S
C2277 C2282 1.399 . S
C2278 C2277 1.399 . S
C2278 C2279 1.376 . S
C2279 H2266 0.930 . S
C2279 C2278 1.376 . S
C2279 C2280 1.388 . S
C2280 H2267 0.930 . S
C2280 C2279 1.388 . S
C2280 C2281 1.390 . S
C2281 C2280 1.390 . S
C2281 C2282 1.394 . S
C2281 C2287 1.465 . S
C2282 C2277 1.399 . S
C2282 C2281 1.394 . S
C2282 C2283 1.516 . S
C2283 C2282 1.516 . S
C2283 C2284 1.502 . S
C2283 C2285 1.561 . S
C2283 C2286 1.526 . S
C2284 H2268 0.959 . S
C2284 H2269 0.959 . S
C2284 H2270 0.961 . S
C2284 C2283 1.502 . S
C2285 H2271 0.960 . S
C2285 H2272 0.961 . S
C2285 H2273 0.959 . S
C2285 C2283 1.561 . S
C2286 C2283 1.526 . S
C2286 C2287 1.396 . S
C2286 C2291 1.390 . S
C2287 C2281 1.465 . S
C2287 C2286 1.396 . S
C2287 C2288 1.399 . S
C2288 H2274 0.929 . S
C2288 C2287 1.399 . S
C2288 C2289 1.385 . S
C2289 H2275 0.931 . S
C2289 C2288 1.385 . S
C2289 C2290 1.389 . S
C2290 C2289 1.389 . S
C2290 C2291 1.387 . S
C2291 H2276 0.930 . S
C2291 C2286 1.390 . S
C2291 C2290 1.387 . S
H2292 C2304 0.930 . S
H2293 C2306 0.930 . S
H2294 C2307 0.930 . S
H2295 C2311 0.959 . S
H2296 C2311 0.959 . S
H2297 C2311 0.961 . S
H2298 C2312 0.960 . S
H2299 C2312 0.961 . S
H2300 C2312 0.959 . S
H2301 C2315 0.929 . S
H2302 C2316 0.931 . S
H2303 C2318 0.930 . S
C2304 H2292 0.930 . S
C2304 C2305 1.399 . S
C2304 C2309 1.399 . S
C2305 C2304 1.399 . S
C2305 C2306 1.376 . S
C2306 H2293 0.930 . S
C2306 C2305 1.376 . S
C2306 C2307 1.388 . S
C2307 H2294 0.930 . S
C2307 C2306 1.388 . S
C2307 C2308 1.390 . S
C2308 C2307 1.390 . S
C2308 C2309 1.394 . S
C2308 C2314 1.465 . S
C2309 C2304 1.399 . S
C2309 C2308 1.394 . S
C2309 C2310 1.516 . S
C2310 C2309 1.516 . S
C2310 C2311 1.502 . S
C2310 C2312 1.561 . S
C2310 C2313 1.526 . S
C2311 H2295 0.959 . S
C2311 H2296 0.959 . S
C2311 H2297 0.961 . S
C2311 C2310 1.502 . S
C2312 H2298 0.960 . S
C2312 H2299 0.961 . S
C2312 H2300 0.959 . S
C2312 C2310 1.561 . S
C2313 C2310 1.526 . S
C2313 C2314 1.396 . S
C2313 C2318 1.390 . S
C2314 C2308 1.465 . S
C2314 C2313 1.396 . S
C2314 C2315 1.399 . S
C2315 H2301 0.929 . S
C2315 C2314 1.399 . S
C2315 C2316 1.385 . S
C2316 H2302 0.931 . S
C2316 C2315 1.385 . S
C2316 C2317 1.389 . S
C2317 C2316 1.389 . S
C2317 C2318 1.387 . S
C2318 H2303 0.930 . S
C2318 C2313 1.390 . S
C2318 C2317 1.387 . S
H2319 C2331 0.930 . S
H2320 C2333 0.930 . S
H2321 C2334 0.930 . S
H2322 C2338 0.959 . S
H2323 C2338 0.959 1_554 S
H2324 C2338 0.961 . S
H2325 C2339 0.960 . S
H2326 C2339 0.961 1_554 S
H2327 C2339 0.959 . S
H2328 C2342 0.929 1_556 S
H2329 C2343 0.931 . S
H2330 C2345 0.930 . S
C2331 H2319 0.930 . S
C2331 C2332 1.399 . S
C2331 C2336 1.399 . S
C2332 C2331 1.399 . S
C2332 C2333 1.376 . S
C2333 H2320 0.930 . S
C2333 C2332 1.376 . S
C2333 C2334 1.388 . S
C2334 H2321 0.930 . S
C2334 C2333 1.388 . S
C2334 C2335 1.390 . S
C2335 C2334 1.390 . S
C2335 C2336 1.394 . S
C2335 C2341 1.465 . S
C2336 C2331 1.399 . S
C2336 C2335 1.394 . S
C2336 C2337 1.516 . S
C2337 C2336 1.516 . S
C2337 C2338 1.502 . S
C2337 C2339 1.561 . S
C2337 C2340 1.526 1_556 S
C2338 H2322 0.959 . S
C2338 H2323 0.959 1_556 S
C2338 H2324 0.961 . S
C2338 C2337 1.502 . S
C2339 H2325 0.960 . S
C2339 H2326 0.961 1_556 S
C2339 H2327 0.959 . S
C2339 C2337 1.561 . S
C2340 C2337 1.526 1_554 S
C2340 C2341 1.396 1_554 S
C2340 C2345 1.390 . S
C2341 C2335 1.465 . S
C2341 C2340 1.396 1_556 S
C2341 C2342 1.399 1_556 S
C2342 H2328 0.929 1_554 S
C2342 C2341 1.399 1_554 S
C2342 C2343 1.385 . S
C2343 H2329 0.931 . S
C2343 C2342 1.385 . S
C2343 C2344 1.389 . S
C2344 C2343 1.389 . S
C2344 C2345 1.387 . S
C2345 H2330 0.930 . S
C2345 C2340 1.390 . S
C2345 C2344 1.387 . S
H2346 C2358 0.930 . S
H2347 C2360 0.930 . S
H2348 C2361 0.930 . S
H2349 C2365 0.959 . S
H2350 C2365 0.959 . S
H2351 C2365 0.961 . S
H2352 C2366 0.960 . S
H2353 C2366 0.961 . S
H2354 C2366 0.959 . S
H2355 C2369 0.929 . S
H2356 C2370 0.931 . S
H2357 C2372 0.930 . S
C2358 H2346 0.930 . S
C2358 C2359 1.399 . S
C2358 C2363 1.399 . S
C2359 C2358 1.399 . S
C2359 C2360 1.376 . S
C2360 H2347 0.930 . S
C2360 C2359 1.376 . S
C2360 C2361 1.388 . S
C2361 H2348 0.930 . S
C2361 C2360 1.388 . S
C2361 C2362 1.390 . S
C2362 C2361 1.390 . S
C2362 C2363 1.394 . S
C2362 C2368 1.465 . S
C2363 C2358 1.399 . S
C2363 C2362 1.394 . S
C2363 C2364 1.516 . S
C2364 C2363 1.516 . S
C2364 C2365 1.502 . S
C2364 C2366 1.561 . S
C2364 C2367 1.526 . S
C2365 H2349 0.959 . S
C2365 H2350 0.959 . S
C2365 H2351 0.961 . S
C2365 C2364 1.502 . S
C2366 H2352 0.960 . S
C2366 H2353 0.961 . S
C2366 H2354 0.959 . S
C2366 C2364 1.561 . S
C2367 C2364 1.526 . S
C2367 C2368 1.396 . S
C2367 C2372 1.390 . S
C2368 C2362 1.465 . S
C2368 C2367 1.396 . S
C2368 C2369 1.399 . S
C2369 H2355 0.929 . S
C2369 C2368 1.399 . S
C2369 C2370 1.385 . S
C2370 H2356 0.931 . S
C2370 C2369 1.385 . S
C2370 C2371 1.389 . S
C2371 C2370 1.389 . S
C2371 C2372 1.387 . S
C2372 H2357 0.930 . S
C2372 C2367 1.390 . S
C2372 C2371 1.387 . S
H2373 C2385 0.930 . S
H2374 C2387 0.930 . S
H2375 C2388 0.930 . S
H2376 C2392 0.959 . S
H2377 C2392 0.959 . S
H2378 C2392 0.961 . S
H2379 C2393 0.960 . S
H2380 C2393 0.961 . S
H2381 C2393 0.959 . S
H2382 C2396 0.929 . S
H2383 C2397 0.931 . S
H2384 C2399 0.930 . S
C2385 H2373 0.930 . S
C2385 C2386 1.399 . S
C2385 C2390 1.399 . S
C2386 C2385 1.399 . S
C2386 C2387 1.376 . S
C2387 H2374 0.930 . S
C2387 C2386 1.376 . S
C2387 C2388 1.388 . S
C2388 H2375 0.930 . S
C2388 C2387 1.388 . S
C2388 C2389 1.390 . S
C2389 C2388 1.390 . S
C2389 C2390 1.394 . S
C2389 C2395 1.465 . S
C2390 C2385 1.399 . S
C2390 C2389 1.394 . S
C2390 C2391 1.516 . S
C2391 C2390 1.516 . S
C2391 C2392 1.502 . S
C2391 C2393 1.561 . S
C2391 C2394 1.526 . S
C2392 H2376 0.959 . S
C2392 H2377 0.959 . S
C2392 H2378 0.961 . S
C2392 C2391 1.502 . S
C2393 H2379 0.960 . S
C2393 H2380 0.961 . S
C2393 H2381 0.959 . S
C2393 C2391 1.561 . S
C2394 C2391 1.526 . S
C2394 C2395 1.396 . S
C2394 C2399 1.390 . S
C2395 C2389 1.465 . S
C2395 C2394 1.396 . S
C2395 C2396 1.399 . S
C2396 H2382 0.929 . S
C2396 C2395 1.399 . S
C2396 C2397 1.385 . S
C2397 H2383 0.931 . S
C2397 C2396 1.385 . S
C2397 C2398 1.389 . S
C2398 C2397 1.389 . S
C2398 C2399 1.387 . S
C2399 H2384 0.930 . S
C2399 C2394 1.390 . S
C2399 C2398 1.387 . S
H2400 C2412 0.930 . S
H2401 C2414 0.930 . S
H2402 C2415 0.930 . S
H2403 C2419 0.959 . S
H2404 C2419 0.959 . S
H2405 C2419 0.961 . S
H2406 C2420 0.960 . S
H2407 C2420 0.961 . S
H2408 C2420 0.959 . S
H2409 C2423 0.929 . S
H2410 C2424 0.931 . S
H2411 C2426 0.930 . S
C2412 H2400 0.930 . S
C2412 C2413 1.399 . S
C2412 C2417 1.399 . S
C2413 C2412 1.399 . S
C2413 C2414 1.376 . S
C2414 H2401 0.930 . S
C2414 C2413 1.376 . S
C2414 C2415 1.388 . S
C2415 H2402 0.930 . S
C2415 C2414 1.388 . S
C2415 C2416 1.390 . S
C2416 C2415 1.390 . S
C2416 C2417 1.394 . S
C2416 C2422 1.465 . S
C2417 C2412 1.399 . S
C2417 C2416 1.394 . S
C2417 C2418 1.516 . S
C2418 C2417 1.516 . S
C2418 C2419 1.502 . S
C2418 C2420 1.561 . S
C2418 C2421 1.526 . S
C2419 H2403 0.959 . S
C2419 H2404 0.959 . S
C2419 H2405 0.961 . S
C2419 C2418 1.502 . S
C2420 H2406 0.960 . S
C2420 H2407 0.961 . S
C2420 H2408 0.959 . S
C2420 C2418 1.561 . S
C2421 C2418 1.526 . S
C2421 C2422 1.396 . S
C2421 C2426 1.390 . S
C2422 C2416 1.465 . S
C2422 C2421 1.396 . S
C2422 C2423 1.399 . S
C2423 H2409 0.929 . S
C2423 C2422 1.399 . S
C2423 C2424 1.385 . S
C2424 H2410 0.931 . S
C2424 C2423 1.385 . S
C2424 C2425 1.389 . S
C2425 C2424 1.389 . S
C2425 C2426 1.387 . S
C2426 H2411 0.930 . S
C2426 C2421 1.390 . S
C2426 C2425 1.387 . S
H2427 C2439 0.930 . S
H2428 C2441 0.930 . S
H2429 C2442 0.930 . S
H2430 C2446 0.959 . S
H2431 C2446 0.959 . S
H2432 C2446 0.961 . S
H2433 C2447 0.960 . S
H2434 C2447 0.961 . S
H2435 C2447 0.959 . S
H2436 C2450 0.929 . S
H2437 C2451 0.931 . S
H2438 C2453 0.930 . S
C2439 H2427 0.930 . S
C2439 C2440 1.399 . S
C2439 C2444 1.399 . S
C2440 C2439 1.399 . S
C2440 C2441 1.376 . S
C2441 H2428 0.930 . S
C2441 C2440 1.376 . S
C2441 C2442 1.388 . S
C2442 H2429 0.930 . S
C2442 C2441 1.388 . S
C2442 C2443 1.390 . S
C2443 C2442 1.390 . S
C2443 C2444 1.394 . S
C2443 C2449 1.465 . S
C2444 C2439 1.399 . S
C2444 C2443 1.394 . S
C2444 C2445 1.516 . S
C2445 C2444 1.516 . S
C2445 C2446 1.502 . S
C2445 C2447 1.561 . S
C2445 C2448 1.526 . S
C2446 H2430 0.959 . S
C2446 H2431 0.959 . S
C2446 H2432 0.961 . S
C2446 C2445 1.502 . S
C2447 H2433 0.960 . S
C2447 H2434 0.961 . S
C2447 H2435 0.959 . S
C2447 C2445 1.561 . S
C2448 C2445 1.526 . S
C2448 C2449 1.396 . S
C2448 C2453 1.390 . S
C2449 C2443 1.465 . S
C2449 C2448 1.396 . S
C2449 C2450 1.399 . S
C2450 H2436 0.929 . S
C2450 C2449 1.399 . S
C2450 C2451 1.385 . S
C2451 H2437 0.931 . S
C2451 C2450 1.385 . S
C2451 C2452 1.389 . S
C2452 C2451 1.389 . S
C2452 C2453 1.387 . S
C2453 H2438 0.930 . S
C2453 C2448 1.390 . S
C2453 C2452 1.387 . S
H2454 C2466 0.930 . S
H2455 C2468 0.930 . S
H2456 C2469 0.930 . S
H2457 C2473 0.959 . S
H2458 C2473 0.959 . S
H2459 C2473 0.961 . S
H2460 C2474 0.960 . S
H2461 C2474 0.954 1_565 S
H2462 C2474 0.959 . S
H2463 C2477 0.929 . S
H2464 C2478 0.931 . S
H2465 C2480 0.930 . S
C2466 H2454 0.930 . S
C2466 C2467 1.399 . S
C2466 C2471 1.399 . S
C2467 C2466 1.399 . S
C2467 C2468 1.376 . S
C2468 H2455 0.930 . S
C2468 C2467 1.376 . S
C2468 C2469 1.388 . S
C2469 H2456 0.930 . S
C2469 C2468 1.388 . S
C2469 C2470 1.390 . S
C2470 C2469 1.390 . S
C2470 C2471 1.394 . S
C2470 C2476 1.465 . S
C2471 C2466 1.399 . S
C2471 C2470 1.394 . S
C2471 C2472 1.516 . S
C2472 C2471 1.516 . S
C2472 C2473 1.502 . S
C2472 C2474 1.561 . S
C2472 C2475 1.508 1_545 S
C2473 H2457 0.959 . S
C2473 H2458 0.959 . S
C2473 H2459 0.961 . S
C2473 C2472 1.502 . S
C2474 H2460 0.960 . S
C2474 H2461 0.954 1_545 S
C2474 H2462 0.959 . S
C2474 C2472 1.561 . S
C2475 C2472 1.508 1_565 S
C2475 C2476 1.388 1_565 S
C2475 C2480 1.413 . S
C2476 C2470 1.465 . S
C2476 C2475 1.388 1_545 S
C2476 C2477 1.399 1_545 S
C2477 H2463 0.929 . S
C2477 C2476 1.399 1_565 S
C2477 C2478 1.385 . S
C2478 H2464 0.931 . S
C2478 C2477 1.385 . S
C2478 C2479 1.389 . S
C2479 C2478 1.389 . S
C2479 C2480 1.387 . S
C2480 H2465 0.930 . S
C2480 C2475 1.413 . S
C2480 C2479 1.387 . S
H2481 C2493 0.930 . S
H2482 C2495 0.930 . S
H2483 C2496 0.930 . S
H2484 C2500 0.959 . S
H2485 C2500 0.959 . S
H2486 C2500 0.961 . S
H2487 C2501 0.960 . S
H2488 C2501 0.961 . S
H2489 C2501 0.959 . S
H2490 C2504 0.929 . S
H2491 C2505 0.931 . S
H2492 C2507 0.930 . S
C2493 H2481 0.930 . S
C2493 C2494 1.399 . S
C2493 C2498 1.399 . S
C2494 C2493 1.399 . S
C2494 C2495 1.376 . S
C2495 H2482 0.930 . S
C2495 C2494 1.376 . S
C2495 C2496 1.388 . S
C2496 H2483 0.930 . S
C2496 C2495 1.388 . S
C2496 C2497 1.390 . S
C2497 C2496 1.390 . S
C2497 C2498 1.394 . S
C2497 C2503 1.465 . S
C2498 C2493 1.399 . S
C2498 C2497 1.394 . S
C2498 C2499 1.516 . S
C2499 C2498 1.516 . S
C2499 C2500 1.502 . S
C2499 C2501 1.561 . S
C2499 C2502 1.526 . S
C2500 H2484 0.959 . S
C2500 H2485 0.959 . S
C2500 H2486 0.961 . S
C2500 C2499 1.502 . S
C2501 H2487 0.960 . S
C2501 H2488 0.961 . S
C2501 H2489 0.959 . S
C2501 C2499 1.561 . S
C2502 C2499 1.526 . S
C2502 C2503 1.396 . S
C2502 C2507 1.390 . S
C2503 C2497 1.465 . S
C2503 C2502 1.396 . S
C2503 C2504 1.399 . S
C2504 H2490 0.929 . S
C2504 C2503 1.399 . S
C2504 C2505 1.385 . S
C2505 H2491 0.931 . S
C2505 C2504 1.385 . S
C2505 C2506 1.389 . S
C2506 C2505 1.389 . S
C2506 C2507 1.387 . S
C2507 H2492 0.930 . S
C2507 C2502 1.390 . S
C2507 C2506 1.387 . S
H2508 C2520 0.930 . S
H2509 C2522 0.930 . S
H2510 C2523 0.930 . S
H2511 C2527 0.959 . S
H2512 C2527 0.959 . S
H2513 C2527 0.961 . S
H2514 C2528 0.960 . S
H2515 C2528 0.961 . S
H2516 C2528 0.959 . S
H2517 C2531 0.929 . S
H2518 C2532 0.931 . S
H2519 C2534 0.930 . S
C2520 H2508 0.930 . S
C2520 C2521 1.399 . S
C2520 C2525 1.399 . S
C2521 C2520 1.399 . S
C2521 C2522 1.376 . S
C2522 H2509 0.930 . S
C2522 C2521 1.376 . S
C2522 C2523 1.388 . S
C2523 H2510 0.930 . S
C2523 C2522 1.388 . S
C2523 C2524 1.390 . S
C2524 C2523 1.390 . S
C2524 C2525 1.394 . S
C2524 C2530 1.465 . S
C2525 C2520 1.399 . S
C2525 C2524 1.394 . S
C2525 C2526 1.516 . S
C2526 C2525 1.516 . S
C2526 C2527 1.502 . S
C2526 C2528 1.561 . S
C2526 C2529 1.526 . S
C2527 H2511 0.959 . S
C2527 H2512 0.959 . S
C2527 H2513 0.961 . S
C2527 C2526 1.502 . S
C2528 H2514 0.960 . S
C2528 H2515 0.961 . S
C2528 H2516 0.959 . S
C2528 C2526 1.561 . S
C2529 C2526 1.526 . S
C2529 C2530 1.396 . S
C2529 C2534 1.390 . S
C2530 C2524 1.465 . S
C2530 C2529 1.396 . S
C2530 C2531 1.399 . S
C2531 H2517 0.929 . S
C2531 C2530 1.399 . S
C2531 C2532 1.385 . S
C2532 H2518 0.931 . S
C2532 C2531 1.385 . S
C2532 C2533 1.389 . S
C2533 C2532 1.389 . S
C2533 C2534 1.387 . S
C2534 H2519 0.930 . S
C2534 C2529 1.390 . S
C2534 C2533 1.387 . S
H2535 C2547 0.930 . S
H2536 C2549 0.930 . S
H2537 C2550 0.930 . S
H2538 C2554 0.959 . S
H2539 C2554 0.959 . S
H2540 C2554 0.961 . S
H2541 C2555 0.960 . S
H2542 C2555 0.961 . S
H2543 C2555 0.959 . S
H2544 C2558 0.929 . S
H2545 C2559 0.931 . S
H2546 C2561 0.930 . S
C2547 H2535 0.930 . S
C2547 C2548 1.399 . S
C2547 C2552 1.399 . S
C2548 C2547 1.399 . S
C2548 C2549 1.376 . S
C2549 H2536 0.930 . S
C2549 C2548 1.376 . S
C2549 C2550 1.388 . S
C2550 H2537 0.930 . S
C2550 C2549 1.388 . S
C2550 C2551 1.390 . S
C2551 C2550 1.390 . S
C2551 C2552 1.394 . S
C2551 C2557 1.465 . S
C2552 C2547 1.399 . S
C2552 C2551 1.394 . S
C2552 C2553 1.516 . S
C2553 C2552 1.516 . S
C2553 C2554 1.502 . S
C2553 C2555 1.561 . S
C2553 C2556 1.526 . S
C2554 H2538 0.959 . S
C2554 H2539 0.959 . S
C2554 H2540 0.961 . S
C2554 C2553 1.502 . S
C2555 H2541 0.960 . S
C2555 H2542 0.961 . S
C2555 H2543 0.959 . S
C2555 C2553 1.561 . S
C2556 C2553 1.526 . S
C2556 C2557 1.396 . S
C2556 C2561 1.390 . S
C2557 C2551 1.465 . S
C2557 C2556 1.396 . S
C2557 C2558 1.399 . S
C2558 H2544 0.929 . S
C2558 C2557 1.399 . S
C2558 C2559 1.385 . S
C2559 H2545 0.931 . S
C2559 C2558 1.385 . S
C2559 C2560 1.389 . S
C2560 C2559 1.389 . S
C2560 C2561 1.387 . S
C2561 H2546 0.930 . S
C2561 C2556 1.390 . S
C2561 C2560 1.387 . S
H2562 C2574 0.930 . S
H2563 C2576 0.930 . S
H2564 C2577 0.930 1_565 S
H2565 C2581 0.959 . S
H2566 C2581 0.959 . S
H2567 C2581 0.961 1_545 S
H2568 C2582 0.960 1_545 S
H2569 C2582 0.961 . S
H2570 C2582 0.959 . S
H2571 C2585 0.929 . S
H2572 C2586 0.931 . S
H2573 C2588 0.930 . S
C2574 H2562 0.930 . S
C2574 C2575 1.399 . S
C2574 C2579 1.399 . S
C2575 C2574 1.399 . S
C2575 C2576 1.376 . S
C2576 H2563 0.930 . S
C2576 C2575 1.376 . S
C2576 C2577 1.388 . S
C2577 H2564 0.930 1_545 S
C2577 C2576 1.388 . S
C2577 C2578 1.390 1_545 S
C2578 C2577 1.390 1_565 S
C2578 C2579 1.394 1_565 S
C2578 C2584 1.465 . S
C2579 C2574 1.399 . S
C2579 C2578 1.394 1_545 S
C2579 C2580 1.516 1_545 S
C2580 C2579 1.516 1_565 S
C2580 C2581 1.502 . S
C2580 C2582 1.561 . S
C2580 C2583 1.526 . S
C2581 H2565 0.959 . S
C2581 H2566 0.959 . S
C2581 H2567 0.961 1_565 S
C2581 C2580 1.502 . S
C2582 H2568 0.960 1_565 S
C2582 H2569 0.961 . S
C2582 H2570 0.959 . S
C2582 C2580 1.561 . S
C2583 C2580 1.526 . S
C2583 C2584 1.396 . S
C2583 C2588 1.390 . S
C2584 C2578 1.465 . S
C2584 C2583 1.396 . S
C2584 C2585 1.399 . S
C2585 H2571 0.929 . S
C2585 C2584 1.399 . S
C2585 C2586 1.385 . S
C2586 H2572 0.931 . S
C2586 C2585 1.385 . S
C2586 C2587 1.389 . S
C2587 C2586 1.389 . S
C2587 C2588 1.387 . S
C2588 H2573 0.930 . S
C2588 C2583 1.390 . S
C2588 C2587 1.387 . S
H2589 C2601 0.930 . S
H2590 C2603 0.930 . S
H2591 C2604 0.930 . S
H2592 C2608 0.959 . S
H2593 C2608 0.959 . S
H2594 C2608 0.961 . S
H2595 C2609 0.960 . S
H2596 C2609 0.961 . S
H2597 C2609 0.959 . S
H2598 C2612 0.929 . S
H2599 C2613 0.931 . S
H2600 C2615 0.930 . S
C2601 H2589 0.930 . S
C2601 C2602 1.399 . S
C2601 C2606 1.399 . S
C2602 C2601 1.399 . S
C2602 C2603 1.376 . S
C2603 H2590 0.930 . S
C2603 C2602 1.376 . S
C2603 C2604 1.388 . S
C2604 H2591 0.930 . S
C2604 C2603 1.388 . S
C2604 C2605 1.390 . S
C2605 C2604 1.390 . S
C2605 C2606 1.394 . S
C2605 C2611 1.465 . S
C2606 C2601 1.399 . S
C2606 C2605 1.394 . S
C2606 C2607 1.516 . S
C2607 C2606 1.516 . S
C2607 C2608 1.502 . S
C2607 C2609 1.561 . S
C2607 C2610 1.526 . S
C2608 H2592 0.959 . S
C2608 H2593 0.959 . S
C2608 H2594 0.961 . S
C2608 C2607 1.502 . S
C2609 H2595 0.960 . S
C2609 H2596 0.961 . S
C2609 H2597 0.959 . S
C2609 C2607 1.561 . S
C2610 C2607 1.526 . S
C2610 C2611 1.396 . S
C2610 C2615 1.390 1_545 S
C2611 C2605 1.465 . S
C2611 C2610 1.396 . S
C2611 C2612 1.399 1_545 S
C2612 H2598 0.929 . S
C2612 C2611 1.399 1_565 S
C2612 C2613 1.385 . S
C2613 H2599 0.931 . S
C2613 C2612 1.385 . S
C2613 C2614 1.389 . S
C2614 C2613 1.389 . S
C2614 C2615 1.387 . S
C2615 H2600 0.930 . S
C2615 C2610 1.390 1_565 S
C2615 C2614 1.387 . S
H2616 C2628 0.930 . S
H2617 C2630 0.930 . S
H2618 C2631 0.930 . S
H2619 C2635 0.959 . S
H2620 C2635 0.959 . S
H2621 C2635 0.961 . S
H2622 C2636 0.960 . S
H2623 C2636 0.961 . S
H2624 C2636 0.959 . S
H2625 C2639 0.929 . S
H2626 C2640 0.931 . S
H2627 C2642 0.930 . S
C2628 H2616 0.930 . S
C2628 C2629 1.399 . S
C2628 C2633 1.399 . S
C2629 C2628 1.399 . S
C2629 C2630 1.376 . S
C2630 H2617 0.930 . S
C2630 C2629 1.376 . S
C2630 C2631 1.388 . S
C2631 H2618 0.930 . S
C2631 C2630 1.388 . S
C2631 C2632 1.390 . S
C2632 C2631 1.390 . S
C2632 C2633 1.394 . S
C2632 C2638 1.465 . S
C2633 C2628 1.399 . S
C2633 C2632 1.394 . S
C2633 C2634 1.516 . S
C2634 C2633 1.516 . S
C2634 C2635 1.502 . S
C2634 C2636 1.561 . S
C2634 C2637 1.526 . S
C2635 H2619 0.959 . S
C2635 H2620 0.959 . S
C2635 H2621 0.961 . S
C2635 C2634 1.502 . S
C2636 H2622 0.960 . S
C2636 H2623 0.961 . S
C2636 H2624 0.959 . S
C2636 C2634 1.561 . S
C2637 C2634 1.526 . S
C2637 C2638 1.396 . S
C2637 C2642 1.390 . S
C2638 C2632 1.465 . S
C2638 C2637 1.396 . S
C2638 C2639 1.399 . S
C2639 H2625 0.929 . S
C2639 C2638 1.399 . S
C2639 C2640 1.385 . S
C2640 H2626 0.931 . S
C2640 C2639 1.385 . S
C2640 C2641 1.389 . S
C2641 C2640 1.389 . S
C2641 C2642 1.387 . S
C2642 H2627 0.930 . S
C2642 C2637 1.390 . S
C2642 C2641 1.387 . S
H2643 C2655 0.930 . S
H2644 C2657 0.930 . S
H2645 C2658 0.930 . S
H2646 C2662 0.959 . S
H2647 C2662 0.959 . S
H2648 C2662 0.961 . S
H2649 C2663 0.960 . S
H2650 C2663 0.961 . S
H2651 C2663 0.959 . S
H2652 C2666 0.929 . S
H2653 C2667 0.931 . S
H2654 C2669 0.930 . S
C2655 H2643 0.930 . S
C2655 C2656 1.399 . S
C2655 C2660 1.399 . S
C2656 C2655 1.399 . S
C2656 C2657 1.376 . S
C2657 H2644 0.930 . S
C2657 C2656 1.376 . S
C2657 C2658 1.388 . S
C2658 H2645 0.930 . S
C2658 C2657 1.388 . S
C2658 C2659 1.390 . S
C2659 C2658 1.390 . S
C2659 C2660 1.394 . S
C2659 C2665 1.465 . S
C2660 C2655 1.399 . S
C2660 C2659 1.394 . S
C2660 C2661 1.516 . S
C2661 C2660 1.516 . S
C2661 C2662 1.502 . S
C2661 C2663 1.561 . S
C2661 C2664 1.526 . S
C2662 H2646 0.959 . S
C2662 H2647 0.959 . S
C2662 H2648 0.961 . S
C2662 C2661 1.502 . S
C2663 H2649 0.960 . S
C2663 H2650 0.961 . S
C2663 H2651 0.959 . S
C2663 C2661 1.561 . S
C2664 C2661 1.526 . S
C2664 C2665 1.396 . S
C2664 C2669 1.390 . S
C2665 C2659 1.465 . S
C2665 C2664 1.396 . S
C2665 C2666 1.399 . S
C2666 H2652 0.929 . S
C2666 C2665 1.399 . S
C2666 C2667 1.385 . S
C2667 H2653 0.931 . S
C2667 C2666 1.385 . S
C2667 C2668 1.389 . S
C2668 C2667 1.389 . S
C2668 C2669 1.387 . S
C2669 H2654 0.930 . S
C2669 C2664 1.390 . S
C2669 C2668 1.387 . S
H2670 C2682 0.930 . S
H2671 C2684 0.930 . S
H2672 C2685 0.930 . S
H2673 C2689 0.959 . S
H2674 C2689 0.959 . S
H2675 C2689 0.961 . S
H2676 C2690 0.960 . S
H2677 C2690 0.961 . S
H2678 C2690 0.959 . S
H2679 C2693 0.929 . S
H2680 C2694 0.931 . S
H2681 C2696 0.930 . S
C2682 H2670 0.930 . S
C2682 C2683 1.399 . S
C2682 C2687 1.399 . S
C2683 C2682 1.399 . S
C2683 C2684 1.376 . S
C2684 H2671 0.930 . S
C2684 C2683 1.376 . S
C2684 C2685 1.388 . S
C2685 H2672 0.930 . S
C2685 C2684 1.388 . S
C2685 C2686 1.390 . S
C2686 C2685 1.390 . S
C2686 C2687 1.394 . S
C2686 C2692 1.465 . S
C2687 C2682 1.399 . S
C2687 C2686 1.394 . S
C2687 C2688 1.516 . S
C2688 C2687 1.516 . S
C2688 C2689 1.502 . S
C2688 C2690 1.561 . S
C2688 C2691 1.526 . S
C2689 H2673 0.959 . S
C2689 H2674 0.959 . S
C2689 H2675 0.961 . S
C2689 C2688 1.502 . S
C2690 H2676 0.960 . S
C2690 H2677 0.961 . S
C2690 H2678 0.959 . S
C2690 C2688 1.561 . S
C2691 C2688 1.526 . S
C2691 C2692 1.396 . S
C2691 C2696 1.390 . S
C2692 C2686 1.465 . S
C2692 C2691 1.396 . S
C2692 C2693 1.399 . S
C2693 H2679 0.929 . S
C2693 C2692 1.399 . S
C2693 C2694 1.385 . S
C2694 H2680 0.931 . S
C2694 C2693 1.385 . S
C2694 C2695 1.389 . S
C2695 C2694 1.389 . S
C2695 C2696 1.387 . S
C2696 H2681 0.930 . S
C2696 C2691 1.390 . S
C2696 C2695 1.387 . S
H2697 C2709 0.930 . S
H2698 C2711 0.930 . S
H2699 C2712 0.930 . S
H2700 C2716 0.959 . S
H2701 C2716 0.959 . S
H2702 C2716 0.961 . S
H2703 C2717 0.960 1_455 S
H2704 C2717 0.961 . S
H2705 C2717 0.959 . S
H2706 C2720 0.929 . S
H2707 C2721 0.931 . S
H2708 C2723 0.930 . S
C2709 H2697 0.930 . S
C2709 C2710 1.399 . S
C2709 C2714 1.399 . S
C2710 C2709 1.399 . S
C2710 C2711 1.376 . S
C2711 H2698 0.930 . S
C2711 C2710 1.376 . S
C2711 C2712 1.388 . S
C2712 H2699 0.930 . S
C2712 C2711 1.388 . S
C2712 C2713 1.390 1_455 S
C2713 C2712 1.390 1_655 S
C2713 C2714 1.394 1_655 S
C2713 C2719 1.465 . S
C2714 C2709 1.399 . S
C2714 C2713 1.394 1_455 S
C2714 C2715 1.516 1_455 S
C2715 C2714 1.516 1_655 S
C2715 C2716 1.502 . S
C2715 C2717 1.561 . S
C2715 C2718 1.526 . S
C2716 H2700 0.959 . S
C2716 H2701 0.959 . S
C2716 H2702 0.961 . S
C2716 C2715 1.502 . S
C2717 H2703 0.960 1_655 S
C2717 H2704 0.961 . S
C2717 H2705 0.959 . S
C2717 C2715 1.561 . S
C2718 C2715 1.526 . S
C2718 C2719 1.396 . S
C2718 C2723 1.390 . S
C2719 C2713 1.465 . S
C2719 C2718 1.396 . S
C2719 C2720 1.399 . S
C2720 H2706 0.929 . S
C2720 C2719 1.399 . S
C2720 C2721 1.385 . S
C2721 H2707 0.931 . S
C2721 C2720 1.385 . S
C2721 C2722 1.389 . S
C2722 C2721 1.389 . S
C2722 C2723 1.387 . S
C2723 H2708 0.930 . S
C2723 C2718 1.390 . S
C2723 C2722 1.387 . S
H2724 C2736 0.930 . S
H2725 C2738 0.930 . S
H2726 C2739 0.930 . S
H2727 C2743 0.959 . S
H2728 C2743 0.959 . S
H2729 C2743 0.961 . S
H2730 C2744 0.960 . S
H2731 C2744 0.961 . S
H2732 C2744 0.959 . S
H2733 C2747 0.929 . S
H2734 C2748 0.931 . S
H2735 C2750 0.930 . S
C2736 H2724 0.930 . S
C2736 C2737 1.399 . S
C2736 C2741 1.399 . S
C2737 C2736 1.399 . S
C2737 C2738 1.376 . S
C2738 H2725 0.930 . S
C2738 C2737 1.376 . S
C2738 C2739 1.388 . S
C2739 H2726 0.930 . S
C2739 C2738 1.388 . S
C2739 C2740 1.390 . S
C2740 C2739 1.390 . S
C2740 C2741 1.394 . S
C2740 C2746 1.465 . S
C2741 C2736 1.399 . S
C2741 C2740 1.394 . S
C2741 C2742 1.516 . S
C2742 C2741 1.516 . S
C2742 C2743 1.502 . S
C2742 C2744 1.561 . S
C2742 C2745 1.526 . S
C2743 H2727 0.959 . S
C2743 H2728 0.959 . S
C2743 H2729 0.961 . S
C2743 C2742 1.502 . S
C2744 H2730 0.960 . S
C2744 H2731 0.961 . S
C2744 H2732 0.959 . S
C2744 C2742 1.561 . S
C2745 C2742 1.526 . S
C2745 C2746 1.396 . S
C2745 C2750 1.390 . S
C2746 C2740 1.465 . S
C2746 C2745 1.396 . S
C2746 C2747 1.399 . S
C2747 H2733 0.929 . S
C2747 C2746 1.399 . S
C2747 C2748 1.385 . S
C2748 H2734 0.931 . S
C2748 C2747 1.385 . S
C2748 C2749 1.389 . S
C2749 C2748 1.389 . S
C2749 C2750 1.387 . S
C2750 H2735 0.930 . S
C2750 C2745 1.390 . S
C2750 C2749 1.387 . S
H2751 C2763 0.930 . S
H2752 C2765 0.930 . S
H2753 C2766 0.930 . S
H2754 C2770 0.959 . S
H2755 C2770 0.959 . S
H2756 C2770 0.961 . S
H2757 C2771 0.960 . S
H2758 C2771 0.961 . S
H2759 C2771 0.959 . S
H2760 C2774 0.929 . S
H2761 C2775 0.931 . S
H2762 C2777 0.930 . S
C2763 H2751 0.930 . S
C2763 C2764 1.399 . S
C2763 C2768 1.399 . S
C2764 C2763 1.399 . S
C2764 C2765 1.376 . S
C2765 H2752 0.930 . S
C2765 C2764 1.376 . S
C2765 C2766 1.388 . S
C2766 H2753 0.930 . S
C2766 C2765 1.388 . S
C2766 C2767 1.390 1_455 S
C2767 C2766 1.390 1_655 S
C2767 C2768 1.394 1_655 S
C2767 C2773 1.465 . S
C2768 C2763 1.399 . S
C2768 C2767 1.394 1_455 S
C2768 C2769 1.516 1_455 S
C2769 C2768 1.516 1_655 S
C2769 C2770 1.502 . S
C2769 C2771 1.561 . S
C2769 C2772 1.526 . S
C2770 H2754 0.959 . S
C2770 H2755 0.959 . S
C2770 H2756 0.961 . S
C2770 C2769 1.502 . S
C2771 H2757 0.960 . S
C2771 H2758 0.961 . S
C2771 H2759 0.959 . S
C2771 C2769 1.561 . S
C2772 C2769 1.526 . S
C2772 C2773 1.396 . S
C2772 C2777 1.390 . S
C2773 C2767 1.465 . S
C2773 C2772 1.396 . S
C2773 C2774 1.399 . S
C2774 H2760 0.929 . S
C2774 C2773 1.399 . S
C2774 C2775 1.385 . S
C2775 H2761 0.931 . S
C2775 C2774 1.385 . S
C2775 C2776 1.389 . S
C2776 C2775 1.389 . S
C2776 C2777 1.387 . S
C2777 H2762 0.930 . S
C2777 C2772 1.390 . S
C2777 C2776 1.387 . S
H2778 C2790 0.930 . S
H2779 C2792 0.930 . S
H2780 C2793 0.930 . S
H2781 C2797 0.959 . S
H2782 C2797 0.959 . S
H2783 C2797 0.961 . S
H2784 C2798 0.960 . S
H2785 C2798 0.961 . S
H2786 C2798 0.959 . S
H2787 C2801 0.929 . S
H2788 C2802 0.931 . S
H2789 C2804 0.930 . S
C2790 H2778 0.930 . S
C2790 C2791 1.399 . S
C2790 C2795 1.399 . S
C2791 C2790 1.399 . S
C2791 C2792 1.376 . S
C2792 H2779 0.930 . S
C2792 C2791 1.376 . S
C2792 C2793 1.388 . S
C2793 H2780 0.930 . S
C2793 C2792 1.388 . S
C2793 C2794 1.390 . S
C2794 C2793 1.390 . S
C2794 C2795 1.394 . S
C2794 C2800 1.465 . S
C2795 C2790 1.399 . S
C2795 C2794 1.394 . S
C2795 C2796 1.516 . S
C2796 C2795 1.516 . S
C2796 C2797 1.502 . S
C2796 C2798 1.561 . S
C2796 C2799 1.526 . S
C2797 H2781 0.959 . S
C2797 H2782 0.959 . S
C2797 H2783 0.961 . S
C2797 C2796 1.502 . S
C2798 H2784 0.960 . S
C2798 H2785 0.961 . S
C2798 H2786 0.959 . S
C2798 C2796 1.561 . S
C2799 C2796 1.526 . S
C2799 C2800 1.396 . S
C2799 C2804 1.390 . S
C2800 C2794 1.465 . S
C2800 C2799 1.396 . S
C2800 C2801 1.399 . S
C2801 H2787 0.929 . S
C2801 C2800 1.399 . S
C2801 C2802 1.385 . S
C2802 H2788 0.931 . S
C2802 C2801 1.385 . S
C2802 C2803 1.389 . S
C2803 C2802 1.389 . S
C2803 C2804 1.387 . S
C2804 H2789 0.930 . S
C2804 C2799 1.390 . S
C2804 C2803 1.387 . S
H2805 C2817 0.930 . S
H2806 C2819 0.930 . S
H2807 C2820 0.930 . S
H2808 C2824 0.959 . S
H2809 C2824 0.959 . S
H2810 C2824 0.961 . S
H2811 C2825 0.960 . S
H2812 C2825 0.961 . S
H2813 C2825 0.959 . S
H2814 C2828 0.929 . S
H2815 C2829 0.931 . S
H2816 C2831 0.930 . S
C2817 H2805 0.930 . S
C2817 C2818 1.399 . S
C2817 C2822 1.399 . S
C2818 C2817 1.399 . S
C2818 C2819 1.376 . S
C2819 H2806 0.930 . S
C2819 C2818 1.376 . S
C2819 C2820 1.388 . S
C2820 H2807 0.930 . S
C2820 C2819 1.388 . S
C2820 C2821 1.390 . S
C2821 C2820 1.390 . S
C2821 C2822 1.394 . S
C2821 C2827 1.465 . S
C2822 C2817 1.399 . S
C2822 C2821 1.394 . S
C2822 C2823 1.516 . S
C2823 C2822 1.516 . S
C2823 C2824 1.502 . S
C2823 C2825 1.561 . S
C2823 C2826 1.526 . S
C2824 H2808 0.959 . S
C2824 H2809 0.959 . S
C2824 H2810 0.961 . S
C2824 C2823 1.502 . S
C2825 H2811 0.960 . S
C2825 H2812 0.961 . S
C2825 H2813 0.959 . S
C2825 C2823 1.561 . S
C2826 C2823 1.526 . S
C2826 C2827 1.396 . S
C2826 C2831 1.390 . S
C2827 C2821 1.465 . S
C2827 C2826 1.396 . S
C2827 C2828 1.399 . S
C2828 H2814 0.929 . S
C2828 C2827 1.399 . S
C2828 C2829 1.385 . S
C2829 H2815 0.931 . S
C2829 C2828 1.385 . S
C2829 C2830 1.389 . S
C2830 C2829 1.389 . S
C2830 C2831 1.387 . S
C2831 H2816 0.930 . S
C2831 C2826 1.390 . S
C2831 C2830 1.387 . S
H2832 C2844 0.930 . S
H2833 C2846 0.930 . S
H2834 C2847 0.930 . S
H2835 C2851 0.959 . S
H2836 C2851 0.959 . S
H2837 C2851 0.961 . S
H2838 C2852 0.960 . S
H2839 C2852 0.961 . S
H2840 C2852 0.959 . S
H2841 C2855 0.929 . S
H2842 C2856 0.931 . S
H2843 C2858 0.930 . S
C2844 H2832 0.930 . S
C2844 C2845 1.399 . S
C2844 C2849 1.399 . S
C2845 C2844 1.399 . S
C2845 C2846 1.376 . S
C2846 H2833 0.930 . S
C2846 C2845 1.376 . S
C2846 C2847 1.388 . S
C2847 H2834 0.930 . S
C2847 C2846 1.388 . S
C2847 C2848 1.390 . S
C2848 C2847 1.390 . S
C2848 C2849 1.394 . S
C2848 C2854 1.465 . S
C2849 C2844 1.399 . S
C2849 C2848 1.394 . S
C2849 C2850 1.516 . S
C2850 C2849 1.516 . S
C2850 C2851 1.502 . S
C2850 C2852 1.561 . S
C2850 C2853 1.526 . S
C2851 H2835 0.959 . S
C2851 H2836 0.959 . S
C2851 H2837 0.961 . S
C2851 C2850 1.502 . S
C2852 H2838 0.960 . S
C2852 H2839 0.961 . S
C2852 H2840 0.959 . S
C2852 C2850 1.561 . S
C2853 C2850 1.526 . S
C2853 C2854 1.396 . S
C2853 C2858 1.390 . S
C2854 C2848 1.465 . S
C2854 C2853 1.396 . S
C2854 C2855 1.399 . S
C2855 H2841 0.929 . S
C2855 C2854 1.399 . S
C2855 C2856 1.385 . S
C2856 H2842 0.931 . S
C2856 C2855 1.385 . S
C2856 C2857 1.389 . S
C2857 C2856 1.389 . S
C2857 C2858 1.387 . S
C2858 H2843 0.930 . S
C2858 C2853 1.390 . S
C2858 C2857 1.387 . S
H2859 C2871 0.930 . S
H2860 C2873 0.930 . S
H2861 C2874 0.930 . S
H2862 C2878 0.959 . S
H2863 C2878 0.959 1_554 S
H2864 C2878 0.961 . S
H2865 C2879 0.960 . S
H2866 C2879 0.961 1_554 S
H2867 C2879 0.959 . S
H2868 C2882 0.931 . S
H2869 C2883 0.931 . S
H2870 C2885 0.930 . S
C2871 H2859 0.930 . S
C2871 C2872 1.399 . S
C2871 C2876 1.399 . S
C2872 C2871 1.399 . S
C2872 C2873 1.376 . S
C2873 H2860 0.930 . S
C2873 C2872 1.376 . S
C2873 C2874 1.388 . S
C2874 H2861 0.930 . S
C2874 C2873 1.388 . S
C2874 C2875 1.390 . S
C2875 C2874 1.390 . S
C2875 C2876 1.394 . S
C2875 C2881 1.465 . S
C2876 C2871 1.399 . S
C2876 C2875 1.394 . S
C2876 C2877 1.516 . S
C2877 C2876 1.516 . S
C2877 C2878 1.502 . S
C2877 C2879 1.561 . S
C2877 C2880 1.526 1_556 S
C2878 H2862 0.959 . S
C2878 H2863 0.959 1_556 S
C2878 H2864 0.961 . S
C2878 C2877 1.502 . S
C2879 H2865 0.960 . S
C2879 H2866 0.961 1_556 S
C2879 H2867 0.959 . S
C2879 C2877 1.561 . S
C2880 C2877 1.526 1_554 S
C2880 C2881 1.396 1_554 S
C2880 C2885 1.390 . S
C2881 C2875 1.465 . S
C2881 C2880 1.396 1_556 S
C2881 C2882 1.400 . S
C2882 H2868 0.931 . S
C2882 C2881 1.400 . S
C2882 C2883 1.383 1_556 S
C2883 H2869 0.931 . S
C2883 C2882 1.383 1_554 S
C2883 C2884 1.389 . S
C2884 C2883 1.389 . S
C2884 C2885 1.387 . S
C2885 H2870 0.930 . S
C2885 C2880 1.390 . S
C2885 C2884 1.387 . S
H2886 C2898 0.930 . S
H2887 C2900 0.930 . S
H2888 C2901 0.930 . S
H2889 C2905 0.959 . S
H2890 C2905 0.959 . S
H2891 C2905 0.961 . S
H2892 C2906 0.960 . S
H2893 C2906 0.961 . S
H2894 C2906 0.959 . S
H2895 C2909 0.929 . S
H2896 C2910 0.931 . S
H2897 C2912 0.930 . S
C2898 H2886 0.930 . S
C2898 C2899 1.399 . S
C2898 C2903 1.399 . S
C2899 C2898 1.399 . S
C2899 C2900 1.376 . S
C2900 H2887 0.930 . S
C2900 C2899 1.376 . S
C2900 C2901 1.388 . S
C2901 H2888 0.930 . S
C2901 C2900 1.388 . S
C2901 C2902 1.390 . S
C2902 C2901 1.390 . S
C2902 C2903 1.394 . S
C2902 C2908 1.465 . S
C2903 C2898 1.399 . S
C2903 C2902 1.394 . S
C2903 C2904 1.516 . S
C2904 C2903 1.516 . S
C2904 C2905 1.502 . S
C2904 C2906 1.561 . S
C2904 C2907 1.526 . S
C2905 H2889 0.959 . S
C2905 H2890 0.959 . S
C2905 H2891 0.961 . S
C2905 C2904 1.502 . S
C2906 H2892 0.960 . S
C2906 H2893 0.961 . S
C2906 H2894 0.959 . S
C2906 C2904 1.561 . S
C2907 C2904 1.526 . S
C2907 C2908 1.396 . S
C2907 C2912 1.390 . S
C2908 C2902 1.465 . S
C2908 C2907 1.396 . S
C2908 C2909 1.399 . S
C2909 H2895 0.929 . S
C2909 C2908 1.399 . S
C2909 C2910 1.385 . S
C2910 H2896 0.931 . S
C2910 C2909 1.385 . S
C2910 C2911 1.389 . S
C2911 C2910 1.389 . S
C2911 C2912 1.387 . S
C2912 H2897 0.930 . S
C2912 C2907 1.390 . S
C2912 C2911 1.387 . S
H2913 C2925 0.930 . S
H2914 C2927 0.930 . S
H2915 C2928 0.930 . S
H2916 C2932 0.959 . S
H2917 C2932 0.959 . S
H2918 C2932 0.961 . S
H2919 C2933 0.960 . S
H2920 C2933 0.961 . S
H2921 C2933 0.959 . S
H2922 C2936 0.929 . S
H2923 C2937 0.931 . S
H2924 C2939 0.930 . S
C2925 H2913 0.930 . S
C2925 C2926 1.399 . S
C2925 C2930 1.399 . S
C2926 C2925 1.399 . S
C2926 C2927 1.376 . S
C2927 H2914 0.930 . S
C2927 C2926 1.376 . S
C2927 C2928 1.388 . S
C2928 H2915 0.930 . S
C2928 C2927 1.388 . S
C2928 C2929 1.390 . S
C2929 C2928 1.390 . S
C2929 C2930 1.394 . S
C2929 C2935 1.465 . S
C2930 C2925 1.399 . S
C2930 C2929 1.394 . S
C2930 C2931 1.516 . S
C2931 C2930 1.516 . S
C2931 C2932 1.502 . S
C2931 C2933 1.561 . S
C2931 C2934 1.526 . S
C2932 H2916 0.959 . S
C2932 H2917 0.959 . S
C2932 H2918 0.961 . S
C2932 C2931 1.502 . S
C2933 H2919 0.960 . S
C2933 H2920 0.961 . S
C2933 H2921 0.959 . S
C2933 C2931 1.561 . S
C2934 C2931 1.526 . S
C2934 C2935 1.396 . S
C2934 C2939 1.390 . S
C2935 C2929 1.465 . S
C2935 C2934 1.396 . S
C2935 C2936 1.399 . S
C2936 H2922 0.929 . S
C2936 C2935 1.399 . S
C2936 C2937 1.385 . S
C2937 H2923 0.931 . S
C2937 C2936 1.385 . S
C2937 C2938 1.389 . S
C2938 C2937 1.389 . S
C2938 C2939 1.387 . S
C2939 H2924 0.930 . S
C2939 C2934 1.390 . S
C2939 C2938 1.387 . S
H2940 C2952 0.930 . S
H2941 C2954 0.930 . S
H2942 C2955 0.930 . S
H2943 C2959 0.959 . S
H2944 C2959 0.959 . S
H2945 C2959 0.961 . S
H2946 C2960 0.960 . S
H2947 C2960 0.961 . S
H2948 C2960 0.959 . S
H2949 C2963 0.929 . S
H2950 C2964 0.931 . S
H2951 C2966 0.930 . S
C2952 H2940 0.930 . S
C2952 C2953 1.399 . S
C2952 C2957 1.399 . S
C2953 C2952 1.399 . S
C2953 C2954 1.376 . S
C2954 H2941 0.930 . S
C2954 C2953 1.376 . S
C2954 C2955 1.388 . S
C2955 H2942 0.930 . S
C2955 C2954 1.388 . S
C2955 C2956 1.390 . S
C2956 C2955 1.390 . S
C2956 C2957 1.394 . S
C2956 C2962 1.465 . S
C2957 C2952 1.399 . S
C2957 C2956 1.394 . S
C2957 C2958 1.516 . S
C2958 C2957 1.516 . S
C2958 C2959 1.502 . S
C2958 C2960 1.561 . S
C2958 C2961 1.526 . S
C2959 H2943 0.959 . S
C2959 H2944 0.959 . S
C2959 H2945 0.961 . S
C2959 C2958 1.502 . S
C2960 H2946 0.960 . S
C2960 H2947 0.961 . S
C2960 H2948 0.959 . S
C2960 C2958 1.561 . S
C2961 C2958 1.526 . S
C2961 C2962 1.396 . S
C2961 C2966 1.390 . S
C2962 C2956 1.465 . S
C2962 C2961 1.396 . S
C2962 C2963 1.399 . S
C2963 H2949 0.929 . S
C2963 C2962 1.399 . S
C2963 C2964 1.385 . S
C2964 H2950 0.931 . S
C2964 C2963 1.385 . S
C2964 C2965 1.389 . S
C2965 C2964 1.389 . S
C2965 C2966 1.387 . S
C2966 H2951 0.930 . S
C2966 C2961 1.390 . S
C2966 C2965 1.387 . S
H2967 C2979 0.930 . S
H2968 C2981 0.930 . S
H2969 C2982 0.930 . S
H2970 C2986 0.959 . S
H2971 C2986 0.959 . S
H2972 C2986 0.961 . S
H2973 C2987 0.960 . S
H2974 C2987 0.961 1_556 S
H2975 C2987 0.959 . S
H2976 C2990 0.912 1_554 S
H2977 C2991 0.931 . S
H2978 C2993 0.930 . S
C2979 H2967 0.930 . S
C2979 C2980 1.399 . S
C2979 C2984 1.399 . S
C2980 C2979 1.399 . S
C2980 C2981 1.376 . S
C2981 H2968 0.930 . S
C2981 C2980 1.376 . S
C2981 C2982 1.388 . S
C2982 H2969 0.930 . S
C2982 C2981 1.388 . S
C2982 C2983 1.390 . S
C2983 C2982 1.390 . S
C2983 C2984 1.394 . S
C2983 C2989 1.465 . S
C2984 C2979 1.399 . S
C2984 C2983 1.394 . S
C2984 C2985 1.516 . S
C2985 C2984 1.516 . S
C2985 C2986 1.502 . S
C2985 C2987 1.561 . S
C2985 C2988 1.556 . S
C2986 H2970 0.959 . S
C2986 H2971 0.959 . S
C2986 H2972 0.961 . S
C2986 C2985 1.502 . S
C2987 H2973 0.960 . S
C2987 H2974 0.961 1_554 S
C2987 H2975 0.959 . S
C2987 C2985 1.561 . S
C2988 C2985 1.556 . S
C2988 C2989 1.418 . S
C2988 C2993 1.344 1_554 S
C2989 C2983 1.465 . S
C2989 C2988 1.418 . S
C2989 C2990 1.377 1_554 S
C2990 H2976 0.912 1_556 S
C2990 C2989 1.377 1_556 S
C2990 C2991 1.426 . S
C2991 H2977 0.931 . S
C2991 C2990 1.426 . S
C2991 C2992 1.389 . S
C2992 C2991 1.389 . S
C2992 C2993 1.387 . S
C2993 H2978 0.930 . S
C2993 C2988 1.344 1_556 S
C2993 C2992 1.387 . S
H2994 C3006 0.930 . S
H2995 C3008 0.930 . S
H2996 C3009 0.930 . S
H2997 C3013 0.959 . S
H2998 C3013 0.959 . S
H2999 C3013 0.961 . S
H3000 C3014 0.960 . S
H3001 C3014 0.961 . S
H3002 C3014 0.959 . S
H3003 C3017 0.929 . S
H3004 C3018 0.931 . S
H3005 C3020 0.930 . S
C3006 H2994 0.930 . S
C3006 C3007 1.399 . S
C3006 C3011 1.399 . S
C3007 C3006 1.399 . S
C3007 C3008 1.376 . S
C3008 H2995 0.930 . S
C3008 C3007 1.376 . S
C3008 C3009 1.388 . S
C3009 H2996 0.930 . S
C3009 C3008 1.388 . S
C3009 C3010 1.390 . S
C3010 C3009 1.390 . S
C3010 C3011 1.394 . S
C3010 C3016 1.465 . S
C3011 C3006 1.399 . S
C3011 C3010 1.394 . S
C3011 C3012 1.516 . S
C3012 C3011 1.516 . S
C3012 C3013 1.502 . S
C3012 C3014 1.561 . S
C3012 C3015 1.526 . S
C3013 H2997 0.959 . S
C3013 H2998 0.959 . S
C3013 H2999 0.961 . S
C3013 C3012 1.502 . S
C3014 H3000 0.960 . S
C3014 H3001 0.961 . S
C3014 H3002 0.959 . S
C3014 C3012 1.561 . S
C3015 C3012 1.526 . S
C3015 C3016 1.396 . S
C3015 C3020 1.390 . S
C3016 C3010 1.465 . S
C3016 C3015 1.396 . S
C3016 C3017 1.399 . S
C3017 H3003 0.929 . S
C3017 C3016 1.399 . S
C3017 C3018 1.385 . S
C3018 H3004 0.931 . S
C3018 C3017 1.385 . S
C3018 C3019 1.389 . S
C3019 C3018 1.389 . S
C3019 C3020 1.387 . S
C3020 H3005 0.930 . S
C3020 C3015 1.390 . S
C3020 C3019 1.387 . S
H3021 C3033 0.930 . S
H3022 C3035 0.930 . S
H3023 C3036 0.930 . S
H3024 C3040 0.959 . S
H3025 C3040 0.959 . S
H3026 C3040 0.961 . S
H3027 C3041 0.960 . S
H3028 C3041 0.961 . S
H3029 C3041 0.959 . S
H3030 C3044 0.929 . S
H3031 C3045 0.931 . S
H3032 C3047 0.930 . S
C3033 H3021 0.930 . S
C3033 C3034 1.399 . S
C3033 C3038 1.399 . S
C3034 C3033 1.399 . S
C3034 C3035 1.376 . S
C3035 H3022 0.930 . S
C3035 C3034 1.376 . S
C3035 C3036 1.388 . S
C3036 H3023 0.930 . S
C3036 C3035 1.388 . S
C3036 C3037 1.390 . S
C3037 C3036 1.390 . S
C3037 C3038 1.394 . S
C3037 C3043 1.465 . S
C3038 C3033 1.399 . S
C3038 C3037 1.394 . S
C3038 C3039 1.516 . S
C3039 C3038 1.516 . S
C3039 C3040 1.502 . S
C3039 C3041 1.561 . S
C3039 C3042 1.526 . S
C3040 H3024 0.959 . S
C3040 H3025 0.959 . S
C3040 H3026 0.961 . S
C3040 C3039 1.502 . S
C3041 H3027 0.960 . S
C3041 H3028 0.961 . S
C3041 H3029 0.959 . S
C3041 C3039 1.561 . S
C3042 C3039 1.526 . S
C3042 C3043 1.396 . S
C3042 C3047 1.390 . S
C3043 C3037 1.465 . S
C3043 C3042 1.396 . S
C3043 C3044 1.399 . S
C3044 H3030 0.929 . S
C3044 C3043 1.399 . S
C3044 C3045 1.385 . S
C3045 H3031 0.931 . S
C3045 C3044 1.385 . S
C3045 C3046 1.389 . S
C3046 C3045 1.389 . S
C3046 C3047 1.387 . S
C3047 H3032 0.930 . S
C3047 C3042 1.390 . S
C3047 C3046 1.387 . S
H3048 C3060 0.930 . S
H3049 C3062 0.930 . S
H3050 C3063 0.930 . S
H3051 C3067 0.959 . S
H3052 C3067 0.959 . S
H3053 C3067 0.961 . S
H3054 C3068 0.960 . S
H3055 C3068 0.961 . S
H3056 C3068 0.959 . S
H3057 C3071 0.929 . S
H3058 C3072 0.931 . S
H3059 C3074 0.930 . S
C3060 H3048 0.930 . S
C3060 C3061 1.399 . S
C3060 C3065 1.399 . S
C3061 C3060 1.399 . S
C3061 C3062 1.376 . S
C3062 H3049 0.930 . S
C3062 C3061 1.376 . S
C3062 C3063 1.388 . S
C3063 H3050 0.930 . S
C3063 C3062 1.388 . S
C3063 C3064 1.390 . S
C3064 C3063 1.390 . S
C3064 C3065 1.394 . S
C3064 C3070 1.465 . S
C3065 C3060 1.399 . S
C3065 C3064 1.394 . S
C3065 C3066 1.516 . S
C3066 C3065 1.516 . S
C3066 C3067 1.502 . S
C3066 C3068 1.561 . S
C3066 C3069 1.526 . S
C3067 H3051 0.959 . S
C3067 H3052 0.959 . S
C3067 H3053 0.961 . S
C3067 C3066 1.502 . S
C3068 H3054 0.960 . S
C3068 H3055 0.961 . S
C3068 H3056 0.959 . S
C3068 C3066 1.561 . S
C3069 C3066 1.526 . S
C3069 C3070 1.396 . S
C3069 C3074 1.390 . S
C3070 C3064 1.465 . S
C3070 C3069 1.396 . S
C3070 C3071 1.399 . S
C3071 H3057 0.929 . S
C3071 C3070 1.399 . S
C3071 C3072 1.385 . S
C3072 H3058 0.931 . S
C3072 C3071 1.385 . S
C3072 C3073 1.389 . S
C3073 C3072 1.389 . S
C3073 C3074 1.387 . S
C3074 H3059 0.930 . S
C3074 C3069 1.390 . S
C3074 C3073 1.387 . S
H3075 C3087 0.930 . S
H3076 C3089 0.930 . S
H3077 C3090 0.930 . S
H3078 C3094 0.959 . S
H3079 C3094 0.959 . S
H3080 C3094 0.961 . S
H3081 C3095 0.960 . S
H3082 C3095 0.961 . S
H3083 C3095 0.959 . S
H3084 C3098 0.929 . S
H3085 C3099 0.931 . S
H3086 C3101 0.930 . S
C3087 H3075 0.930 . S
C3087 C3088 1.399 . S
C3087 C3092 1.399 . S
C3088 C3087 1.399 . S
C3088 C3089 1.376 . S
C3089 H3076 0.930 . S
C3089 C3088 1.376 . S
C3089 C3090 1.388 . S
C3090 H3077 0.930 . S
C3090 C3089 1.388 . S
C3090 C3091 1.390 . S
C3091 C3090 1.390 . S
C3091 C3092 1.394 . S
C3091 C3097 1.465 . S
C3092 C3087 1.399 . S
C3092 C3091 1.394 . S
C3092 C3093 1.516 . S
C3093 C3092 1.516 . S
C3093 C3094 1.502 . S
C3093 C3095 1.561 . S
C3093 C3096 1.526 . S
C3094 H3078 0.959 . S
C3094 H3079 0.959 . S
C3094 H3080 0.961 . S
C3094 C3093 1.502 . S
C3095 H3081 0.960 . S
C3095 H3082 0.961 . S
C3095 H3083 0.959 . S
C3095 C3093 1.561 . S
C3096 C3093 1.526 . S
C3096 C3097 1.396 . S
C3096 C3101 1.390 . S
C3097 C3091 1.465 . S
C3097 C3096 1.396 . S
C3097 C3098 1.399 . S
C3098 H3084 0.929 . S
C3098 C3097 1.399 . S
C3098 C3099 1.385 . S
C3099 H3085 0.931 . S
C3099 C3098 1.385 . S
C3099 C3100 1.389 . S
C3100 C3099 1.389 . S
C3100 C3101 1.387 . S
C3101 H3086 0.930 . S
C3101 C3096 1.390 . S
C3101 C3100 1.387 . S
H3102 C3114 0.930 . S
H3103 C3116 0.930 . S
H3104 C3117 0.930 . S
H3105 C3121 0.959 . S
H3106 C3121 0.959 . S
H3107 C3121 0.961 . S
H3108 C3122 0.960 . S
H3109 C3122 0.961 . S
H3110 C3122 0.959 . S
H3111 C3125 0.929 . S
H3112 C3126 0.931 . S
H3113 C3128 0.930 . S
C3114 H3102 0.930 . S
C3114 C3115 1.399 . S
C3114 C3119 1.399 . S
C3115 C3114 1.399 . S
C3115 C3116 1.376 . S
C3116 H3103 0.930 . S
C3116 C3115 1.376 . S
C3116 C3117 1.388 . S
C3117 H3104 0.930 . S
C3117 C3116 1.388 . S
C3117 C3118 1.390 . S
C3118 C3117 1.390 . S
C3118 C3119 1.394 . S
C3118 C3124 1.465 . S
C3119 C3114 1.399 . S
C3119 C3118 1.394 . S
C3119 C3120 1.516 . S
C3120 C3119 1.516 . S
C3120 C3121 1.502 . S
C3120 C3122 1.561 . S
C3120 C3123 1.566 . S
C3121 H3105 0.959 . S
C3121 H3106 0.959 . S
C3121 H3107 0.961 . S
C3121 C3120 1.502 . S
C3122 H3108 0.960 . S
C3122 H3109 0.961 . S
C3122 H3110 0.959 . S
C3122 C3120 1.561 . S
C3123 C3120 1.566 . S
C3123 C3124 1.403 . S
C3123 C3128 1.348 1_565 S
C3124 C3118 1.465 . S
C3124 C3123 1.403 . S
C3124 C3125 1.399 1_565 S
C3125 H3111 0.929 . S
C3125 C3124 1.399 1_545 S
C3125 C3126 1.385 . S
C3126 H3112 0.931 . S
C3126 C3125 1.385 . S
C3126 C3127 1.389 . S
C3127 C3126 1.389 . S
C3127 C3128 1.387 . S
C3128 H3113 0.930 . S
C3128 C3123 1.348 1_545 S
C3128 C3127 1.387 . S
H3129 C3141 0.930 . S
H3130 C3143 0.930 . S
H3131 C3144 0.930 . S
H3132 C3148 0.959 . S
H3133 C3148 0.959 . S
H3134 C3148 0.961 . S
H3135 C3149 0.960 . S
H3136 C3149 0.961 . S
H3137 C3149 0.959 . S
H3138 C3152 0.929 . S
H3139 C3153 0.931 . S
H3140 C3155 0.930 . S
C3141 H3129 0.930 . S
C3141 C3142 1.399 . S
C3141 C3146 1.399 . S
C3142 C3141 1.399 . S
C3142 C3143 1.376 . S
C3143 H3130 0.930 . S
C3143 C3142 1.376 . S
C3143 C3144 1.388 . S
C3144 H3131 0.930 . S
C3144 C3143 1.388 . S
C3144 C3145 1.390 . S
C3145 C3144 1.390 . S
C3145 C3146 1.394 . S
C3145 C3151 1.465 . S
C3146 C3141 1.399 . S
C3146 C3145 1.394 . S
C3146 C3147 1.516 . S
C3147 C3146 1.516 . S
C3147 C3148 1.502 . S
C3147 C3149 1.561 . S
C3147 C3150 1.526 . S
C3148 H3132 0.959 . S
C3148 H3133 0.959 . S
C3148 H3134 0.961 . S
C3148 C3147 1.502 . S
C3149 H3135 0.960 . S
C3149 H3136 0.961 . S
C3149 H3137 0.959 . S
C3149 C3147 1.561 . S
C3150 C3147 1.526 . S
C3150 C3151 1.396 . S
C3150 C3155 1.390 . S
C3151 C3145 1.465 . S
C3151 C3150 1.396 . S
C3151 C3152 1.399 . S
C3152 H3138 0.929 . S
C3152 C3151 1.399 . S
C3152 C3153 1.385 . S
C3153 H3139 0.931 . S
C3153 C3152 1.385 . S
C3153 C3154 1.389 . S
C3154 C3153 1.389 . S
C3154 C3155 1.387 . S
C3155 H3140 0.930 . S
C3155 C3150 1.390 . S
C3155 C3154 1.387 . S
H3156 C3168 0.930 . S
H3157 C3170 0.930 . S
H3158 C3171 0.930 . S
H3159 C3175 0.959 . S
H3160 C3175 0.959 . S
H3161 C3175 0.961 . S
H3162 C3176 0.960 . S
H3163 C3176 0.961 . S
H3164 C3176 0.959 . S
H3165 C3179 0.929 . S
H3166 C3180 0.931 . S
H3167 C3182 0.930 . S
C3168 H3156 0.930 . S
C3168 C3169 1.399 . S
C3168 C3173 1.399 . S
C3169 C3168 1.399 . S
C3169 C3170 1.376 . S
C3170 H3157 0.930 . S
C3170 C3169 1.376 . S
C3170 C3171 1.388 . S
C3171 H3158 0.930 . S
C3171 C3170 1.388 . S
C3171 C3172 1.390 . S
C3172 C3171 1.390 . S
C3172 C3173 1.394 . S
C3172 C3178 1.465 . S
C3173 C3168 1.399 . S
C3173 C3172 1.394 . S
C3173 C3174 1.516 . S
C3174 C3173 1.516 . S
C3174 C3175 1.502 . S
C3174 C3176 1.561 . S
C3174 C3177 1.526 . S
C3175 H3159 0.959 . S
C3175 H3160 0.959 . S
C3175 H3161 0.961 . S
C3175 C3174 1.502 . S
C3176 H3162 0.960 . S
C3176 H3163 0.961 . S
C3176 H3164 0.959 . S
C3176 C3174 1.561 . S
C3177 C3174 1.526 . S
C3177 C3178 1.396 . S
C3177 C3182 1.390 . S
C3178 C3172 1.465 . S
C3178 C3177 1.396 . S
C3178 C3179 1.399 . S
C3179 H3165 0.929 . S
C3179 C3178 1.399 . S
C3179 C3180 1.385 . S
C3180 H3166 0.931 . S
C3180 C3179 1.385 . S
C3180 C3181 1.389 . S
C3181 C3180 1.389 . S
C3181 C3182 1.387 . S
C3182 H3167 0.930 . S
C3182 C3177 1.390 . S
C3182 C3181 1.387 . S
H3183 C3195 0.930 . S
H3184 C3197 0.930 . S
H3185 C3198 0.930 . S
H3186 C3202 0.959 . S
H3187 C3202 0.959 . S
H3188 C3202 0.961 . S
H3189 C3203 0.960 . S
H3190 C3203 0.961 . S
H3191 C3203 0.959 . S
H3192 C3206 0.929 . S
H3193 C3207 0.931 . S
H3194 C3209 0.930 . S
C3195 H3183 0.930 . S
C3195 C3196 1.399 . S
C3195 C3200 1.399 . S
C3196 C3195 1.399 . S
C3196 C3197 1.376 . S
C3197 H3184 0.930 . S
C3197 C3196 1.376 . S
C3197 C3198 1.388 . S
C3198 H3185 0.930 . S
C3198 C3197 1.388 . S
C3198 C3199 1.390 . S
C3199 C3198 1.390 . S
C3199 C3200 1.394 . S
C3199 C3205 1.465 . S
C3200 C3195 1.399 . S
C3200 C3199 1.394 . S
C3200 C3201 1.516 . S
C3201 C3200 1.516 . S
C3201 C3202 1.502 . S
C3201 C3203 1.561 . S
C3201 C3204 1.526 . S
C3202 H3186 0.959 . S
C3202 H3187 0.959 . S
C3202 H3188 0.961 . S
C3202 C3201 1.502 . S
C3203 H3189 0.960 . S
C3203 H3190 0.961 . S
C3203 H3191 0.959 . S
C3203 C3201 1.561 . S
C3204 C3201 1.526 . S
C3204 C3205 1.396 . S
C3204 C3209 1.390 . S
C3205 C3199 1.465 . S
C3205 C3204 1.396 . S
C3205 C3206 1.399 . S
C3206 H3192 0.929 . S
C3206 C3205 1.399 . S
C3206 C3207 1.385 . S
C3207 H3193 0.931 . S
C3207 C3206 1.385 . S
C3207 C3208 1.389 . S
C3208 C3207 1.389 . S
C3208 C3209 1.387 . S
C3209 H3194 0.930 . S
C3209 C3204 1.390 . S
C3209 C3208 1.387 . S
H3210 C3222 0.930 . S
H3211 C3224 0.930 . S
H3212 C3225 0.930 . S
H3213 C3229 0.959 . S
H3214 C3229 0.959 . S
H3215 C3229 0.961 . S
H3216 C3230 0.960 1_565 S
H3217 C3230 0.961 . S
H3218 C3230 0.959 . S
H3219 C3233 0.929 . S
H3220 C3234 0.931 . S
H3221 C3236 0.930 . S
C3222 H3210 0.930 . S
C3222 C3223 1.399 . S
C3222 C3227 1.399 . S
C3223 C3222 1.399 . S
C3223 C3224 1.376 . S
C3224 H3211 0.930 . S
C3224 C3223 1.376 . S
C3224 C3225 1.388 . S
C3225 H3212 0.930 . S
C3225 C3224 1.388 . S
C3225 C3226 1.390 1_565 S
C3226 C3225 1.390 1_545 S
C3226 C3227 1.394 1_545 S
C3226 C3232 1.465 . S
C3227 C3222 1.399 . S
C3227 C3226 1.394 1_565 S
C3227 C3228 1.516 1_565 S
C3228 C3227 1.516 1_545 S
C3228 C3229 1.502 . S
C3228 C3230 1.561 . S
C3228 C3231 1.526 . S
C3229 H3213 0.959 . S
C3229 H3214 0.959 . S
C3229 H3215 0.961 . S
C3229 C3228 1.502 . S
C3230 H3216 0.960 1_545 S
C3230 H3217 0.961 . S
C3230 H3218 0.959 . S
C3230 C3228 1.561 . S
C3231 C3228 1.526 . S
C3231 C3232 1.396 . S
C3231 C3236 1.390 . S
C3232 C3226 1.465 . S
C3232 C3231 1.396 . S
C3232 C3233 1.399 . S
C3233 H3219 0.929 . S
C3233 C3232 1.399 . S
C3233 C3234 1.385 . S
C3234 H3220 0.931 . S
C3234 C3233 1.385 . S
C3234 C3235 1.389 . S
C3235 C3234 1.389 . S
C3235 C3236 1.387 . S
C3236 H3221 0.930 . S
C3236 C3231 1.390 . S
C3236 C3235 1.387 . S
H3237 C3249 0.930 . S
H3238 C3251 0.930 . S
H3239 C3252 0.930 . S
H3240 C3256 0.959 . S
H3241 C3256 0.959 1_545 S
H3242 C3256 0.961 . S
H3243 C3257 0.960 . S
H3244 C3257 0.961 1_545 S
H3245 C3257 0.959 . S
H3246 C3260 0.929 1_565 S
H3247 C3261 0.931 . S
H3248 C3263 0.930 . S
C3249 H3237 0.930 . S
C3249 C3250 1.399 . S
C3249 C3254 1.399 . S
C3250 C3249 1.399 . S
C3250 C3251 1.376 . S
C3251 H3238 0.930 . S
C3251 C3250 1.376 . S
C3251 C3252 1.388 . S
C3252 H3239 0.930 . S
C3252 C3251 1.388 . S
C3252 C3253 1.390 . S
C3253 C3252 1.390 . S
C3253 C3254 1.394 . S
C3253 C3259 1.465 . S
C3254 C3249 1.399 . S
C3254 C3253 1.394 . S
C3254 C3255 1.516 . S
C3255 C3254 1.516 . S
C3255 C3256 1.502 . S
C3255 C3257 1.561 . S
C3255 C3258 1.526 1_565 S
C3256 H3240 0.959 . S
C3256 H3241 0.959 1_565 S
C3256 H3242 0.961 . S
C3256 C3255 1.502 . S
C3257 H3243 0.960 . S
C3257 H3244 0.961 1_565 S
C3257 H3245 0.959 . S
C3257 C3255 1.561 . S
C3258 C3255 1.526 1_545 S
C3258 C3259 1.396 1_545 S
C3258 C3263 1.390 . S
C3259 C3253 1.465 . S
C3259 C3258 1.396 1_565 S
C3259 C3260 1.399 1_565 S
C3260 H3246 0.929 1_545 S
C3260 C3259 1.399 1_545 S
C3260 C3261 1.385 . S
C3261 H3247 0.931 . S
C3261 C3260 1.385 . S
C3261 C3262 1.389 . S
C3262 C3261 1.389 . S
C3262 C3263 1.387 . S
C3263 H3248 0.930 . S
C3263 C3258 1.390 . S
C3263 C3262 1.387 . S
C685 C591 1.342 . S
C697 C3 1.389 . S
C712 C23 1.405 . S
C724 C217 1.384 . S
C739 C31 1.380 . S
C751 C563 1.341 . S
C766 C51 1.394 . S
C778 C245 1.380 . S
C793 C623 1.385 . S
C805 C63 1.388 . S
C820 C78 1.390 . S
C832 C297 1.347 . S
C847 C91 1.353 . S
C859 C651 1.365 . S
C874 C106 1.364 . S
C886 C269 1.321 . S
C901 C50 1.352 . S
C913 C661 1.357 . S
C928 C7 1.364 . S
C940 C357 1.388 . S
C955 C371 1.385 . S
C967 C22 1.363 . S
C982 C35 1.311 . S
C994 C339 1.378 . S
C1009 C79 1.412 . S
C1021 C343 1.415 . S
C1036 C87 1.384 . S
C1048 C665 1.394 . S
C1063 C107 1.393 . S
C1075 C353 1.363 . S
C1090 C59 1.392 . S
C1102 C367 1.385 . S
C1117 C549 1.369 . S
C1129 C120 1.362 . S
C1144 C134 1.346 . S
C1156 C273 1.346 . S
C1171 C121 1.389 . S
C1183 C619 1.387 . S
C1198 C301 1.394 . S
C1210 C149 1.397 . S
C1225 C311 1.373 . S
C1237 C162 1.355 . S
C1252 C577 1.385 . S
C1264 C177 1.402 . S
C1279 C595 1.380 . S
C1291 C191 1.401 . S
C1306 C567 1.392 . S
C1318 C205 1.405 . S
C1333 C465 1.314 . S
C1345 C218 1.324 . S
C1360 C233 1.399 . S
C1372 C9 1.344 . S
C1387 C246 1.337 . S
C1399 C437 1.359 . S
C1414 C37 1.333 . S
C1426 C261 1.397 . S
C1441 C275 1.360 . S
C1453 C497 1.362 . S
C1468 C92 1.369 . S
C1480 C288 1.351 . S
C1495 C303 1.339 . S
C1507 C525 1.359 . S
C1522 C64 1.408 . S
C1534 C316 1.391 . S
C1549 C535 1.340 . S
C1561 C260 1.342 . S
C1576 C219 1.377 . S
C1588 C143 1.372 . S
C1603 C161 1.354 . S
C1615 C232 1.361 . S
C1630 C133 1.381 . S
C1642 C247 1.366 . S
C1657 C129 1.397 . S
C1669 C289 1.401 . S
C1684 C302 1.336 . S
C1696 C539 1.318 . S
C1711 C147 1.379 . S
C1723 C317 1.404 . S
C1738 C274 1.304 . S
C1750 C157 1.330 . S
C1765 C330 1.384 . S
C1777 C428 1.375 . S
C1792 C345 1.423 . S
C1804 C65 1.397 . S
C1819 C331 1.377 . S
C1831 C493 1.360 . S
C1846 C358 1.413 . S
C1858 C93 1.377 . S
C1873 C372 1.339 . S
C1885 C101 1.346 . S
C1900 C456 1.378 . S
C1912 C387 1.379 . S
C1927 C401 1.364 . S
C1939 C469 1.356 . S
C1954 C415 1.386 . S
C1966 C441 1.365 . S
C1981 C423 1.390 . S
C1993 C255 1.373 . S
C2008 C443 1.394 . S
C2020 C553 1.371 . S
C2035 C227 1.384 . S
C2047 C451 1.377 . S
C2062 C471 1.400 . S
C2074 C581 1.376 . S
C2089 C483 1.351 . S
C2101 C287 1.392 . S
C2116 C633 1.333 . S
C2128 C498 1.372 . S
C2143 C511 1.360 . S
C2155 C315 1.385 . S
C2170 C605 1.351 . S
C2182 C526 1.351 . S
C2197 C325 1.343 . S
C2209 C470 1.376 . S
C2224 C413 1.370 . S
C2236 C427 1.317 . S
C2251 C442 1.382 . S
C2263 C385 1.376 . S
C2278 C399 1.373 . S
C2290 C455 1.376 . S
C2305 C499 1.412 . S
C2317 C395 1.408 . S
C2332 C329 1.377 . S
C2344 C507 1.389 . S
C2359 C527 1.411 . S
C2371 C409 1.409 . S
C2386 C479 1.389 . S
C2398 C381 1.393 . S
C2413 C540 1.382 . S
C2425 C213 1.333 . S
C2440 C190 1.341 . S
C2452 C609 1.340 . S
C2467 C283 1.371 . S
C2479 C541 1.384 . S
C2494 C637 1.366 . S
C2506 C204 1.347 . S
C2521 C647 1.339 . S
C2533 C176 1.348 . S
C2548 C163 1.389 . S
C2560 C241 1.365 . S
C2575 C135 1.418 . S
C2587 C259 1.407 . S
C2602 C231 1.365 . S
C2614 C148 1.388 . S
C2629 C554 1.323 . S
C2641 C45 1.348 . S
C2656 C429 1.401 . S
C2668 C569 1.410 . S
C2683 C582 1.358 . S
C2695 C17 1.312 . S
C2710 C597 1.402 . S
C2722 C457 1.388 . S
C2737 C77 1.323 . S
C2749 C611 1.345 . S
C2764 C624 1.362 . S
C2776 C512 1.367 . S
C2791 C639 1.363 . S
C2803 C105 1.349 . S
C2818 C484 1.363 . S
C2830 C652 1.364 . S
C2845 C596 1.344 . S
C2857 C115 1.336 . S
C2872 C203 1.369 . S
C2884 C555 1.379 . S
C2899 C175 1.350 . S
C2911 C568 1.366 . S
C2926 C583 1.377 . S
C2938 C189 1.366 . S
C2953 C625 1.387 . S
C2965 C185 1.380 . S
C2980 C119 1.337 . S
C2992 C638 1.305 . S
C3007 C199 1.352 . S
C3019 C653 1.375 . S
C3034 C610 1.330 . S
C3046 C171 1.286 . S
C3061 C8 1.361 . S
C3073 C666 1.375 . S
C3088 C400 1.376 . S
C3100 C485 1.326 . S
C3115 C73 1.356 . S
C3127 C667 1.376 . S
C3142 C513 1.327 . S
C3154 C414 1.388 . S
C3169 C521 1.365 . S
C3181 C386 1.350 . S
C3196 C373 1.373 . S
C3208 C36 1.380 . S
C3223 C344 1.357 . S
C3235 C49 1.329 . S
C3250 C21 1.394 . S
C3262 C359 1.409 . S
