# Generated by pormake.
# Topology wgr, (5)-cn, num edge types: 1
# Building blocks:
#     Node 0, Type 0, BuildingBlock: BEQFEK_clean_sbu_0, # of connection points: 5
#     Node 1, Type 0, BuildingBlock: BEQFEK_clean_sbu_0, # of connection points: 5
#     Node 2, Type 0, BuildingBlock: BEQFEK_clean_sbu_0, # of connection points: 5
#     Node 3, Type 0, BuildingBlock: BEQFEK_clean_sbu_0, # of connection points: 5
#     Node 4, Type 0, BuildingBlock: BEQFEK_clean_sbu_0, # of connection points: 5
#     Node 5, Type 0, BuildingBlock: BEQFEK_clean_sbu_0, # of connection points: 5
#     Node 6, Type 0, BuildingBlock: BEQFEK_clean_sbu_0, # of connection points: 5
#     Node 7, Type 0, BuildingBlock: BEQFEK_clean_sbu_0, # of connection points: 5
#     Node 8, Type 0, BuildingBlock: BEQFEK_clean_sbu_0, # of connection points: 5
#     Node 9, Type 0, BuildingBlock: BEQFEK_clean_sbu_0, # of connection points: 5
#     Node 10, Type 0, BuildingBlock: BEQFEK_clean_sbu_0, # of connection points: 5
#     Node 11, Type 0, BuildingBlock: BEQFEK_clean_sbu_0, # of connection points: 5
#     Node 12, Type 0, BuildingBlock: BEQFEK_clean_sbu_0, # of connection points: 5
#     Node 13, Type 0, BuildingBlock: BEQFEK_clean_sbu_0, # of connection points: 5
#     Node 14, Type 0, BuildingBlock: BEQFEK_clean_sbu_0, # of connection points: 5
#     Node 15, Type 0, BuildingBlock: BEQFEK_clean_sbu_0, # of connection points: 5
#     Node 16, Type 0, BuildingBlock: BEQFEK_clean_sbu_0, # of connection points: 5
#     Node 17, Type 0, BuildingBlock: BEQFEK_clean_sbu_0, # of connection points: 5
#     Node 18, Type 0, BuildingBlock: BEQFEK_clean_sbu_0, # of connection points: 5
#     Node 19, Type 0, BuildingBlock: BEQFEK_clean_sbu_0, # of connection points: 5
#     Node 20, Type 0, BuildingBlock: BEQFEK_clean_sbu_0, # of connection points: 5
#     Node 21, Type 0, BuildingBlock: BEQFEK_clean_sbu_0, # of connection points: 5
#     Node 22, Type 0, BuildingBlock: BEQFEK_clean_sbu_0, # of connection points: 5
#     Node 23, Type 0, BuildingBlock: BEQFEK_clean_sbu_0, # of connection points: 5
#     Node 24, Type 0, BuildingBlock: BEQFEK_clean_sbu_0, # of connection points: 5
#     Node 25, Type 0, BuildingBlock: BEQFEK_clean_sbu_0, # of connection points: 5
#     Node 26, Type 0, BuildingBlock: BEQFEK_clean_sbu_0, # of connection points: 5
#     Node 27, Type 0, BuildingBlock: BEQFEK_clean_sbu_0, # of connection points: 5
#     Node 28, Type 0, BuildingBlock: BEQFEK_clean_sbu_0, # of connection points: 5
#     Node 29, Type 0, BuildingBlock: BEQFEK_clean_sbu_0, # of connection points: 5
#     Node 30, Type 0, BuildingBlock: BEQFEK_clean_sbu_0, # of connection points: 5
#     Node 31, Type 0, BuildingBlock: BEQFEK_clean_sbu_0, # of connection points: 5
#     Edge 32, Type (0, 0), None
#     Edge 33, Type (0, 0), None
#     Edge 34, Type (0, 0), None
#     Edge 35, Type (0, 0), None
#     Edge 36, Type (0, 0), None
#     Edge 37, Type (0, 0), None
#     Edge 38, Type (0, 0), None
#     Edge 39, Type (0, 0), None
#     Edge 40, Type (0, 0), None
#     Edge 41, Type (0, 0), None
#     Edge 42, Type (0, 0), None
#     Edge 43, Type (0, 0), None
#     Edge 44, Type (0, 0), None
#     Edge 45, Type (0, 0), None
#     Edge 46, Type (0, 0), None
#     Edge 47, Type (0, 0), None
#     Edge 48, Type (0, 0), None
#     Edge 49, Type (0, 0), None
#     Edge 50, Type (0, 0), None
#     Edge 51, Type (0, 0), None
#     Edge 52, Type (0, 0), None
#     Edge 53, Type (0, 0), None
#     Edge 54, Type (0, 0), None
#     Edge 55, Type (0, 0), None
#     Edge 56, Type (0, 0), None
#     Edge 57, Type (0, 0), None
#     Edge 58, Type (0, 0), None
#     Edge 59, Type (0, 0), None
#     Edge 60, Type (0, 0), None
#     Edge 61, Type (0, 0), None
#     Edge 62, Type (0, 0), None
#     Edge 63, Type (0, 0), None
#     Edge 64, Type (0, 0), None
#     Edge 65, Type (0, 0), None
#     Edge 66, Type (0, 0), None
#     Edge 67, Type (0, 0), None
#     Edge 68, Type (0, 0), None
#     Edge 69, Type (0, 0), None
#     Edge 70, Type (0, 0), None
#     Edge 71, Type (0, 0), None
#     Edge 72, Type (0, 0), None
#     Edge 73, Type (0, 0), None
#     Edge 74, Type (0, 0), None
#     Edge 75, Type (0, 0), None
#     Edge 76, Type (0, 0), None
#     Edge 77, Type (0, 0), None
#     Edge 78, Type (0, 0), None
#     Edge 79, Type (0, 0), None
#     Edge 80, Type (0, 0), None
#     Edge 81, Type (0, 0), None
#     Edge 82, Type (0, 0), None
#     Edge 83, Type (0, 0), None
#     Edge 84, Type (0, 0), None
#     Edge 85, Type (0, 0), None
#     Edge 86, Type (0, 0), None
#     Edge 87, Type (0, 0), None
#     Edge 88, Type (0, 0), None
#     Edge 89, Type (0, 0), None
#     Edge 90, Type (0, 0), None
#     Edge 91, Type (0, 0), None
#     Edge 92, Type (0, 0), None
#     Edge 93, Type (0, 0), None
#     Edge 94, Type (0, 0), None
#     Edge 95, Type (0, 0), None
#     Edge 96, Type (0, 0), None
#     Edge 97, Type (0, 0), None
#     Edge 98, Type (0, 0), None
#     Edge 99, Type (0, 0), None
#     Edge 100, Type (0, 0), None
#     Edge 101, Type (0, 0), None
#     Edge 102, Type (0, 0), None
#     Edge 103, Type (0, 0), None
#     Edge 104, Type (0, 0), None
#     Edge 105, Type (0, 0), None
#     Edge 106, Type (0, 0), None
#     Edge 107, Type (0, 0), None
#     Edge 108, Type (0, 0), None
#     Edge 109, Type (0, 0), None
#     Edge 110, Type (0, 0), None
#     Edge 111, Type (0, 0), None
# Relax obj value: 0.119
# Max RMSD: 0.216
# Mean RMSD: 0.216
data_MOF--net-wgr--node1-BEQFEK_clean_sbu_0--edge1-none
_symmetry_space_group_name_H-M    P1
_symmetry_Int_Tables_number       1
_symmetry_cell_setting            triclinic
loop_
_symmetry_equiv_pos_as_xyz
'x, y, z'
_cell_length_a     13.185061
_cell_length_b     13.184534
_cell_length_c     87.594981
_cell_angle_alpha  89.999999
_cell_angle_beta   90.000065
_cell_angle_gamma 90.000001
loop_
_atom_site_label
_atom_site_type_symbol
_atom_site_fract_x
_atom_site_fract_y
_atom_site_fract_z
_atom_type_partial_charge
Co0 Co 0.33105 0.06299 0.2224 0.0
Co1 Co 0.32714 0.06652 0.1864 0.0
C2 C 0.17069 0.17303 0.20446 0.0
O3 O 0.20913 0.14282 0.21699 0.0
O4 O 0.20041 0.13647 0.19182 0.0
C5 C 0.24506 0.01155 0.25137 0.0
O6 O 0.15959 0.01405 0.24369 0.0
C7 C 0.25273 0.00605 0.15633 0.0
C8 C 0.36897 0.06761 0.14077 0.0
C9 C 0.27898 0.01327 0.14104 0.0
N10 N 0.32455 0.05232 0.16471 0.0
N11 N 0.39317 0.09027 0.15532 0.0
C12 C 0.15736 0.96262 0.16289 0.0
H13 H 0.15939 0.96414 0.17555 0.0
H14 H 0.1466 0.88348 0.15894 0.0
H15 H 0.09167 0.00773 0.1588 0.0
C16 C 0.36384 0.84367 0.21657 0.0
N17 N 0.35142 0.93955 0.21151 0.0
N18 N 0.35031 0.93937 0.19651 0.0
C19 C 0.36215 0.84272 0.19164 0.0
C20 C 0.36618 0.77717 0.2042 0.0
C21 C 0.36782 0.81528 0.23311 0.0
H22 H 0.41641 0.8697 0.23939 0.0
H23 H 0.29016 0.81765 0.23797 0.0
H24 H 0.39956 0.73809 0.23471 0.0
O25 O 0.43729 0.16306 0.21765 0.0
O26 O 0.43019 0.1688 0.19216 0.0
H27 H 0.40237 0.87096 0.16824 0.0
H28 H 0.40565 0.73923 0.17374 0.0
C29 C 0.3645 0.81195 0.17519 0.0
H30 H 0.28597 0.80074 0.17106 0.0
H31 H 0.45618 0.13201 0.15883 0.0
O32 O 0.32786 0.03357 0.2447 0.0
C33 C 0.46284 0.20234 0.20491 0.0
Co34 Co 0.17986 0.08095 0.4724 0.0
Co35 Co 0.17632 0.07709 0.4364 0.0
C36 C 0.06984 0.92058 0.45446 0.0
O37 O 0.10008 0.95898 0.46699 0.0
O38 O 0.10634 0.95036 0.44182 0.0
C39 C 0.23132 0.99496 0.50137 0.0
O40 O 0.22883 0.9095 0.49368 0.0
C41 C 0.23678 0.00267 0.40633 0.0
C42 C 0.17529 0.11897 0.39077 0.0
C43 C 0.22961 0.02897 0.39104 0.0
N44 N 0.19052 0.0745 0.4147 0.0
N45 N 0.15261 0.14315 0.40531 0.0
C46 C 0.28018 0.90727 0.41288 0.0
H47 H 0.27863 0.90928 0.42555 0.0
H48 H 0.35932 0.8965 0.40894 0.0
H49 H 0.23506 0.84161 0.40879 0.0
C50 C 0.39918 0.11371 0.46656 0.0
N51 N 0.3033 0.10132 0.4615 0.0
N52 N 0.30347 0.10023 0.44651 0.0
C53 C 0.40013 0.11204 0.44164 0.0
C54 C 0.46567 0.11604 0.45419 0.0
C55 C 0.42757 0.11764 0.48311 0.0
H56 H 0.37317 0.16622 0.48939 0.0
H57 H 0.42518 0.03996 0.48796 0.0
H58 H 0.50477 0.14935 0.48471 0.0
O59 O 0.07975 0.18717 0.46765 0.0
O60 O 0.07404 0.18015 0.44216 0.0
H61 H 0.3719 0.15227 0.41823 0.0
H62 H 0.50363 0.15548 0.42373 0.0
C63 C 0.43089 0.11437 0.42519 0.0
H64 H 0.44206 0.03583 0.42106 0.0
H65 H 0.11089 0.20617 0.40883 0.0
O66 O 0.20929 0.07776 0.4947 0.0
C67 C 0.04049 0.21275 0.45491 0.0
Co68 Co 0.16181 0.92984 0.7224 0.0
Co69 Co 0.16572 0.92631 0.6864 0.0
C70 C 0.32218 0.8198 0.70446 0.0
O71 O 0.28374 0.85 0.71699 0.0
O72 O 0.29246 0.85636 0.69182 0.0
C73 C 0.24781 0.98128 0.75137 0.0
O74 O 0.33327 0.97878 0.74369 0.0
C75 C 0.24014 0.98677 0.65633 0.0
C76 C 0.1239 0.92521 0.64077 0.0
C77 C 0.21388 0.97955 0.64104 0.0
N78 N 0.16832 0.9405 0.66471 0.0
N79 N 0.0997 0.90255 0.65532 0.0
C80 C 0.33551 0.03021 0.66289 0.0
H81 H 0.33348 0.02869 0.67555 0.0
H82 H 0.34627 0.10935 0.65894 0.0
H83 H 0.40119 0.98509 0.6588 0.0
C84 C 0.12903 0.14916 0.71657 0.0
N85 N 0.14145 0.05328 0.71151 0.0
N86 N 0.14255 0.05346 0.69651 0.0
C87 C 0.13072 0.15011 0.69164 0.0
C88 C 0.12669 0.21566 0.7042 0.0
C89 C 0.12504 0.17755 0.73311 0.0
H90 H 0.07646 0.12312 0.73939 0.0
H91 H 0.2027 0.17518 0.73797 0.0
H92 H 0.09331 0.25474 0.73471 0.0
O93 O 0.05557 0.82977 0.71765 0.0
O94 O 0.06268 0.82403 0.69216 0.0
H95 H 0.09049 0.12187 0.66824 0.0
H96 H 0.08722 0.2536 0.67374 0.0
C97 C 0.12837 0.18088 0.67519 0.0
H98 H 0.2069 0.19208 0.67106 0.0
H99 H 0.03668 0.86082 0.65883 0.0
O100 O 0.16501 0.95926 0.7447 0.0
C101 C 0.03003 0.79049 0.70491 0.0
Co102 Co 0.313 0.91189 0.9724 0.0
Co103 Co 0.31654 0.91575 0.9364 0.0
C104 C 0.42303 0.07225 0.95446 0.0
O105 O 0.39279 0.03386 0.96699 0.0
O106 O 0.38652 0.04248 0.94182 0.0
C107 C 0.26155 -0.00213 1.00137 0.0
O108 O 0.26403 0.08334 0.99368 0.0
C109 C 0.25608 0.99016 0.90633 0.0
C110 C 0.31757 0.87387 0.89077 0.0
C111 C 0.26326 0.96387 0.89104 0.0
N112 N 0.30234 0.91834 0.9147 0.0
N113 N 0.34026 0.84969 0.90531 0.0
C114 C 0.21269 0.08556 0.91288 0.0
H115 H 0.21423 0.08356 0.92555 0.0
H116 H 0.13355 0.09634 0.90894 0.0
H117 H 0.25781 0.15123 0.90879 0.0
C118 C 0.09369 0.87913 0.96656 0.0
N119 N 0.18957 0.89151 0.9615 0.0
N120 N 0.18939 0.89261 0.94651 0.0
C121 C 0.09274 0.8808 0.94164 0.0
C122 C 0.02719 0.87679 0.95419 0.0
C123 C 0.06529 0.87519 0.98311 0.0
H124 H 0.1197 0.82661 0.98939 0.0
H125 H 0.06768 0.95287 0.98796 0.0
H126 H 0.9881 0.84348 0.98471 0.0
O127 O 0.41311 0.80567 0.96765 0.0
O128 O 0.41882 0.81269 0.94216 0.0
H129 H 0.12096 0.84056 0.91823 0.0
H130 H 0.98924 0.83736 0.92373 0.0
C131 C 0.06198 0.87847 0.92519 0.0
H132 H 0.05081 0.95701 0.92106 0.0
H133 H 0.38198 0.78667 0.90883 0.0
O134 O 0.28358 0.91507 0.9947 0.0
C135 C 0.45238 0.78008 0.95491 0.0
Co136 Co 0.33096 0.92976 0.29646 0.0
Co137 Co 0.32718 0.92642 0.33246 0.0
C138 C 0.17065 0.8198 0.3144 0.0
O139 O 0.2089 0.85017 0.30187 0.0
O140 O 0.2006 0.85615 0.32704 0.0
C141 C 0.24503 0.98076 0.26747 0.0
O142 O 0.1595 0.978 0.27513 0.0
C143 C 0.25263 0.98706 0.36252 0.0
C144 C 0.36889 0.92568 0.3781 0.0
C145 C 0.27889 0.97997 0.37782 0.0
N146 N 0.3245 0.94081 0.35415 0.0
N147 N 0.39315 0.90298 0.36355 0.0
C148 C 0.15723 0.0304 0.35596 0.0
H149 H 0.15921 0.02869 0.3433 0.0
H150 H 0.14651 0.1096 0.35988 0.0
H151 H 0.09156 0.98536 0.36007 0.0
C152 C 0.36373 0.1491 0.30226 0.0
N153 N 0.35134 0.05326 0.30733 0.0
N154 N 0.35024 0.05353 0.32232 0.0
C155 C 0.36206 0.15022 0.32718 0.0
C156 C 0.36607 0.21568 0.31462 0.0
C157 C 0.36772 0.17737 0.28571 0.0
H158 H 0.41638 0.12295 0.27944 0.0
H159 H 0.29008 0.17486 0.28085 0.0
H160 H 0.39938 0.25458 0.2841 0.0
O161 O 0.43712 0.82963 0.30123 0.0
O162 O 0.43036 0.82419 0.32673 0.0
H163 H 0.40228 0.12213 0.35059 0.0
H164 H 0.40563 0.25381 0.34507 0.0
C165 C 0.36443 0.1811 0.34362 0.0
H166 H 0.28591 0.19237 0.34776 0.0
H167 H 0.4562 0.86128 0.36004 0.0
O168 O 0.32784 0.95906 0.27416 0.0
C169 C 0.46284 0.79051 0.31398 0.0
Co170 Co 0.31312 0.08085 0.54646 0.0
Co171 Co 0.31647 0.07707 0.58246 0.0
C172 C 0.42307 0.92052 0.5644 0.0
O173 O 0.39269 0.95876 0.55187 0.0
O174 O 0.38673 0.95048 0.57704 0.0
C175 C 0.26211 0.99494 0.51747 0.0
O176 O 0.26489 0.9094 0.52513 0.0
C177 C 0.25585 0.00251 0.61252 0.0
C178 C 0.31716 0.11884 0.6281 0.0
C179 C 0.2629 0.02881 0.62782 0.0
N180 N 0.30208 0.07439 0.60416 0.0
N181 N 0.33987 0.14307 0.61355 0.0
C182 C 0.21255 0.90708 0.60597 0.0
H183 H 0.21429 0.90903 0.5933 0.0
H184 H 0.13335 0.89636 0.60988 0.0
H185 H 0.25759 0.84143 0.61008 0.0
C186 C 0.09379 0.1136 0.55226 0.0
N187 N 0.18963 0.10122 0.55733 0.0
N188 N 0.18936 0.10013 0.57233 0.0
C189 C 0.09267 0.11192 0.57719 0.0
C190 C 0.02721 0.11594 0.56462 0.0
C191 C 0.06552 0.11757 0.53571 0.0
H192 H 0.11992 0.16625 0.52944 0.0
H193 H 0.06806 0.03992 0.53085 0.0
H194 H 0.9883 0.1492 0.5341 0.0
O195 O 0.41326 0.187 0.55123 0.0
O196 O 0.4187 0.18026 0.57673 0.0
H197 H 0.12075 0.15209 0.6006 0.0
H198 H 0.98908 0.15541 0.59508 0.0
C199 C 0.06179 0.11424 0.59363 0.0
H200 H 0.05056 0.0357 0.59776 0.0
H201 H 0.38155 0.20614 0.61004 0.0
O202 O 0.28382 0.07775 0.52416 0.0
C203 C 0.45239 0.21273 0.56398 0.0
Co204 Co 0.1619 0.06307 0.79646 0.0
Co205 Co 0.16569 0.06641 0.83246 0.0
C206 C 0.32221 0.17303 0.8144 0.0
O207 O 0.28397 0.14266 0.80187 0.0
O208 O 0.29227 0.13667 0.82704 0.0
C209 C 0.24783 0.01207 0.76747 0.0
O210 O 0.33336 0.01483 0.77513 0.0
C211 C 0.24024 0.00577 0.86252 0.0
C212 C 0.12398 0.06716 0.8781 0.0
C213 C 0.21398 0.01286 0.87781 0.0
N214 N 0.16836 0.05202 0.85415 0.0
N215 N 0.09972 0.08985 0.86355 0.0
C216 C 0.33564 0.96243 0.85596 0.0
H217 H 0.33366 0.96414 0.8433 0.0
H218 H 0.34636 0.88324 0.85988 0.0
H219 H 0.40131 0.00748 0.86007 0.0
C220 C 0.12913 0.84373 0.80226 0.0
N221 N 0.14153 0.93957 0.80733 0.0
N222 N 0.14262 0.9393 0.82232 0.0
C223 C 0.1308 0.84261 0.82718 0.0
C224 C 0.12679 0.77715 0.81462 0.0
C225 C 0.12514 0.81546 0.78571 0.0
H226 H 0.07648 0.86988 0.77944 0.0
H227 H 0.20279 0.81797 0.78085 0.0
H228 H 0.09348 0.73825 0.7841 0.0
O229 O 0.05575 0.1632 0.80123 0.0
O230 O 0.06251 0.16864 0.82673 0.0
H231 H 0.09059 0.8707 0.85059 0.0
H232 H 0.08724 0.73902 0.84507 0.0
C233 C 0.12844 0.81173 0.84362 0.0
H234 H 0.20696 0.80046 0.84776 0.0
H235 H 0.03667 0.13155 0.86004 0.0
O236 O 0.16502 0.03377 0.77416 0.0
C237 C 0.03002 0.20232 0.81398 0.0
Co238 Co 0.17975 0.91198 0.04646 0.0
Co239 Co 0.1764 0.91576 0.08246 0.0
C240 C 0.0698 0.07231 0.0644 0.0
O241 O 0.10018 0.03407 0.05187 0.0
O242 O 0.10614 0.04235 0.07704 0.0
C243 C 0.23075 -0.0021 0.01747 0.0
O244 O 0.22798 0.08343 0.02513 0.0
C245 C 0.23702 0.99031 0.11252 0.0
C246 C 0.17571 0.87399 0.1281 0.0
C247 C 0.22997 0.96402 0.12782 0.0
N248 N 0.19079 0.91843 0.10416 0.0
N249 N 0.153 0.84975 0.11355 0.0
C250 C 0.28032 0.08574 0.10597 0.0
H251 H 0.27858 0.08379 0.0933 0.0
H252 H 0.35952 0.09647 0.10988 0.0
H253 H 0.23528 0.15139 0.11008 0.0
C254 C 0.39908 0.87923 0.05226 0.0
N255 N 0.30323 0.89161 0.05733 0.0
N256 N 0.30351 0.8927 0.07233 0.0
C257 C 0.4002 0.88091 0.07719 0.0
C258 C 0.46566 0.87689 0.06462 0.0
C259 C 0.42735 0.87526 0.03571 0.0
H260 H 0.37295 0.82658 0.02944 0.0
H261 H 0.42481 0.95292 0.03085 0.0
H262 H 0.50457 0.84363 0.0341 0.0
O263 O 0.0796 0.80583 0.05123 0.0
O264 O 0.07417 0.81257 0.07673 0.0
H265 H 0.37212 0.84073 0.1006 0.0
H266 H 0.50379 0.83742 0.09508 0.0
C267 C 0.43108 0.87859 0.09363 0.0
H268 H 0.44231 0.95712 0.09776 0.0
H269 H 0.11132 0.78669 0.11004 0.0
O270 O 0.20904 0.91508 0.02416 0.0
C271 C 0.04048 0.7801 0.06398 0.0
Co272 Co 0.6618 0.92986 0.79643 0.0
Co273 Co 0.66572 0.92633 0.83243 0.0
C274 C 0.82217 0.81981 0.81436 0.0
O275 O 0.78373 0.85002 0.80184 0.0
O276 O 0.79245 0.85637 0.82701 0.0
C277 C 0.74779 0.9813 0.76746 0.0
O278 O 0.83325 0.97881 0.77514 0.0
C279 C 0.74015 0.98679 0.86249 0.0
C280 C 0.62391 0.92526 0.87806 0.0
C281 C 0.7139 0.97958 0.87779 0.0
N282 N 0.66832 0.94053 0.85412 0.0
N283 N 0.5997 0.90259 0.86351 0.0
C284 C 0.83553 0.03021 0.85593 0.0
H285 H 0.83349 0.02869 0.84327 0.0
H286 H 0.84629 0.10935 0.85988 0.0
H287 H 0.90121 0.98509 0.86002 0.0
C288 C 0.62902 0.14918 0.80226 0.0
N289 N 0.64144 0.0533 0.80732 0.0
N290 N 0.64255 0.05347 0.82231 0.0
C291 C 0.63072 0.15013 0.82719 0.0
C292 C 0.62669 0.21568 0.81463 0.0
C293 C 0.62504 0.17757 0.78571 0.0
H294 H 0.57646 0.12315 0.77944 0.0
H295 H 0.7027 0.1752 0.78086 0.0
H296 H 0.59331 0.25476 0.78412 0.0
O297 O 0.55557 0.82978 0.80117 0.0
O298 O 0.56267 0.82404 0.82667 0.0
H299 H 0.59049 0.12189 0.85059 0.0
H300 H 0.58722 0.25361 0.84509 0.0
C301 C 0.62837 0.18089 0.84363 0.0
H302 H 0.7069 0.19209 0.84777 0.0
H303 H 0.53667 0.86087 0.86 0.0
O304 O 0.66499 0.95928 0.77413 0.0
C305 C 0.53003 0.7905 0.81392 0.0
Co306 Co 0.81309 0.91195 0.54643 0.0
Co307 Co 0.81662 0.91575 0.58243 0.0
C308 C 0.92304 0.07232 0.56437 0.0
O309 O 0.89288 0.03392 0.55184 0.0
O310 O 0.88667 0.04244 0.57702 0.0
C311 C 0.76159 -0.00207 0.51746 0.0
O312 O 0.76406 0.0834 0.52514 0.0
C313 C 0.75616 0.99017 0.6125 0.0
C314 C 0.81765 0.87388 0.62806 0.0
C315 C 0.76334 0.96388 0.62779 0.0
N316 N 0.80243 0.91834 0.60413 0.0
N317 N 0.84034 0.84969 0.61352 0.0
C318 C 0.71277 0.08557 0.60594 0.0
H319 H 0.71432 0.08355 0.59328 0.0
H320 H 0.63363 0.09634 0.60989 0.0
H321 H 0.7579 0.15123 0.61004 0.0
C322 C 0.59376 0.8793 0.55226 0.0
N323 N 0.68965 0.89159 0.55732 0.0
N324 N 0.68947 0.89267 0.57231 0.0
C325 C 0.5928 0.88096 0.57719 0.0
C326 C 0.52733 0.87716 0.56463 0.0
C327 C 0.56534 0.87536 0.53571 0.0
H328 H 0.61975 0.8268 0.52943 0.0
H329 H 0.56767 0.95304 0.53086 0.0
H330 H 0.48816 0.8436 0.53412 0.0
O331 O 0.91317 0.80572 0.55117 0.0
O332 O 0.91884 0.81267 0.57667 0.0
H333 H 0.621 0.84075 0.6006 0.0
H334 H 0.48931 0.83741 0.59509 0.0
C335 C 0.562 0.8786 0.59364 0.0
H336 H 0.55073 0.95713 0.59777 0.0
H337 H 0.88206 0.78667 0.61 0.0
O338 O 0.78365 0.91514 0.52413 0.0
C339 C 0.9524 0.78009 0.56392 0.0
Co340 Co 0.83107 0.06297 0.29643 0.0
Co341 Co 0.82715 0.0665 0.33243 0.0
C342 C 0.6707 0.17302 0.31436 0.0
O343 O 0.70913 0.14281 0.30184 0.0
O344 O 0.70041 0.13646 0.32701 0.0
C345 C 0.74508 0.01153 0.26746 0.0
O346 O 0.65962 0.01402 0.27514 0.0
C347 C 0.75271 0.00604 0.36249 0.0
C348 C 0.86895 0.06758 0.37806 0.0
C349 C 0.77896 0.01325 0.37779 0.0
N350 N 0.82454 0.0523 0.35412 0.0
N351 N 0.89317 0.09024 0.36351 0.0
C352 C 0.65733 0.96262 0.35593 0.0
H353 H 0.65937 0.96414 0.34327 0.0
H354 H 0.64657 0.88348 0.35988 0.0
H355 H 0.59166 0.00774 0.36002 0.0
C356 C 0.86384 0.84365 0.30226 0.0
N357 N 0.85143 0.93953 0.30732 0.0
N358 N 0.85032 0.93936 0.32231 0.0
C359 C 0.86214 0.8427 0.32719 0.0
C360 C 0.86617 0.77715 0.31463 0.0
C361 C 0.86782 0.81526 0.28571 0.0
H362 H 0.91641 0.86968 0.27944 0.0
H363 H 0.79016 0.81763 0.28086 0.0
H364 H 0.89956 0.73807 0.28412 0.0
O365 O 0.9373 0.16305 0.30117 0.0
O366 O 0.93019 0.16879 0.32667 0.0
H367 H 0.90237 0.87094 0.35059 0.0
H368 H 0.90564 0.73921 0.34509 0.0
C369 C 0.86449 0.81194 0.34363 0.0
H370 H 0.78596 0.80074 0.34777 0.0
H371 H 0.95619 0.13196 0.36 0.0
O372 O 0.82788 0.03355 0.27413 0.0
C373 C 0.96284 0.20233 0.31392 0.0
Co374 Co 0.67978 0.08088 0.04643 0.0
Co375 Co 0.67625 0.07708 0.08243 0.0
C376 C 0.56982 0.92051 0.06437 0.0
O377 O 0.59999 0.95891 0.05184 0.0
O378 O 0.6062 0.95039 0.07701 0.0
C379 C 0.73129 0.9949 0.01746 0.0
O380 O 0.72881 0.90943 0.02514 0.0
C381 C 0.7367 0.00266 0.1125 0.0
C382 C 0.67522 0.11895 0.12806 0.0
C383 C 0.72953 0.02895 0.12779 0.0
N384 N 0.69044 0.07449 0.10412 0.0
N385 N 0.65253 0.14313 0.11351 0.0
C386 C 0.7801 0.90726 0.10594 0.0
H387 H 0.77854 0.90927 0.09328 0.0
H388 H 0.85923 0.89648 0.10989 0.0
H389 H 0.73497 0.84159 0.11004 0.0
C390 C 0.89911 0.11353 0.05226 0.0
N391 N 0.80322 0.10124 0.05732 0.0
N392 N 0.8034 0.10016 0.07231 0.0
C393 C 0.90006 0.11187 0.07719 0.0
C394 C 0.96554 0.11567 0.06463 0.0
C395 C 0.92753 0.11747 0.03571 0.0
H396 H 0.87312 0.16603 0.02943 0.0
H397 H 0.9252 0.03979 0.03086 0.0
H398 H 0.00471 0.14923 0.03412 0.0
O399 O 0.5797 0.18711 0.05117 0.0
O400 O 0.57403 0.18016 0.07667 0.0
H401 H 0.87187 0.15207 0.1006 0.0
H402 H 0.00356 0.15542 0.09509 0.0
C403 C 0.93086 0.11422 0.09364 0.0
H404 H 0.94213 0.0357 0.09777 0.0
H405 H 0.6108 0.20616 0.11 0.0
O406 O 0.70922 0.07769 0.02413 0.0
C407 C 0.54047 0.21274 0.06392 0.0
Co408 Co 0.66191 0.06308 0.72236 0.0
Co409 Co 0.6657 0.06641 0.68636 0.0
C410 C 0.82222 0.17304 0.70443 0.0
O411 O 0.78397 0.14267 0.71696 0.0
O412 O 0.79227 0.13669 0.69178 0.0
C413 C 0.74782 0.01208 0.75136 0.0
O414 O 0.83335 0.01485 0.74369 0.0
C415 C 0.74028 0.00578 0.65631 0.0
C416 C 0.62403 0.06715 0.64073 0.0
C417 C 0.71404 0.01287 0.64101 0.0
N418 N 0.66839 0.05202 0.66467 0.0
N419 N 0.59975 0.08984 0.65527 0.0
C420 C 0.83568 0.96245 0.66287 0.0
H421 H 0.8337 0.96418 0.67553 0.0
H422 H 0.8464 0.88325 0.65895 0.0
H423 H 0.90135 0.00749 0.65876 0.0
C424 C 0.62913 0.84374 0.71657 0.0
N425 N 0.64153 0.93958 0.71149 0.0
N426 N 0.64263 0.93931 0.6965 0.0
C427 C 0.63081 0.84262 0.69164 0.0
C428 C 0.62679 0.77716 0.70421 0.0
C429 C 0.62514 0.81547 0.73312 0.0
H430 H 0.57647 0.86989 0.73938 0.0
H431 H 0.70278 0.81799 0.73798 0.0
H432 H 0.59348 0.73826 0.73473 0.0
O433 O 0.55575 0.1632 0.71759 0.0
O434 O 0.56251 0.16864 0.69209 0.0
H435 H 0.5906 0.87072 0.66823 0.0
H436 H 0.58724 0.73904 0.67375 0.0
C437 C 0.62844 0.81174 0.6752 0.0
H438 H 0.70696 0.80048 0.67106 0.0
H439 H 0.53668 0.13153 0.65878 0.0
O440 O 0.66501 0.03378 0.74467 0.0
C441 C 0.53003 0.20232 0.70484 0.0
Co442 Co 0.67969 0.91203 0.47237 0.0
Co443 Co 0.67635 0.91575 0.43636 0.0
C444 C 0.56982 0.07237 0.45443 0.0
O445 O 0.60011 0.03412 0.46696 0.0
O446 O 0.60603 0.04231 0.44178 0.0
C447 C 0.73075 -0.00204 0.50136 0.0
O448 O 0.72799 0.08348 0.49369 0.0
C449 C 0.73697 0.9903 0.4063 0.0
C450 C 0.67567 0.87397 0.39072 0.0
C451 C 0.72993 0.964 0.39101 0.0
N452 N 0.69074 0.91842 0.41467 0.0
N453 N 0.65295 0.84974 0.40527 0.0
C454 C 0.78026 0.08573 0.41286 0.0
H455 H 0.77853 0.08378 0.42552 0.0
H456 H 0.85946 0.09647 0.40894 0.0
H457 H 0.73521 0.15138 0.40874 0.0
C458 C 0.89903 0.8794 0.46657 0.0
N459 N 0.80318 0.89167 0.46149 0.0
N460 N 0.80346 0.89276 0.4465 0.0
C461 C 0.90017 0.88107 0.44164 0.0
C462 C 0.96555 0.87727 0.45421 0.0
C463 C 0.92733 0.87543 0.48312 0.0
H464 H 0.87293 0.82678 0.48939 0.0
H465 H 0.92485 0.95309 0.48798 0.0
H466 H 0.00454 0.84376 0.48473 0.0
O467 O 0.57957 0.80587 0.46759 0.0
O468 O 0.57417 0.81255 0.4421 0.0
H469 H 0.87212 0.84093 0.41822 0.0
H470 H 0.00376 0.83749 0.42375 0.0
C471 C 0.93108 0.87873 0.4252 0.0
H472 H 0.94242 0.95727 0.42107 0.0
H473 H 0.61127 0.78667 0.40878 0.0
O474 O 0.709 0.91514 0.49467 0.0
C475 C 0.54047 0.7801 0.45485 0.0
Co476 Co 0.83096 0.92975 0.22236 0.0
Co477 Co 0.82717 0.92641 0.18636 0.0
C478 C 0.67065 0.81979 0.20443 0.0
O479 O 0.70889 0.85016 0.21696 0.0
O480 O 0.70059 0.85614 0.19178 0.0
C481 C 0.74505 0.98075 0.25136 0.0
O482 O 0.65952 0.97798 0.24369 0.0
C483 C 0.75258 0.98705 0.15631 0.0
C484 C 0.86884 0.92568 0.14073 0.0
C485 C 0.77883 0.97996 0.14101 0.0
N486 N 0.82448 0.94081 0.16467 0.0
N487 N 0.89312 0.90299 0.15527 0.0
C488 C 0.65719 0.03038 0.16287 0.0
H489 H 0.65917 0.02865 0.17553 0.0
H490 H 0.64647 0.10958 0.15895 0.0
H491 H 0.59152 0.98534 0.15876 0.0
C492 C 0.86373 0.14909 0.21657 0.0
N493 N 0.85133 0.05324 0.21149 0.0
N494 N 0.85024 0.05352 0.1965 0.0
C495 C 0.86206 0.15021 0.19164 0.0
C496 C 0.86608 0.21567 0.20421 0.0
C497 C 0.86773 0.17736 0.23312 0.0
H498 H 0.9164 0.12294 0.23938 0.0
H499 H 0.79009 0.17484 0.23798 0.0
H500 H 0.89939 0.25457 0.23473 0.0
O501 O 0.93712 0.82963 0.21759 0.0
O502 O 0.93036 0.82419 0.19209 0.0
H503 H 0.90227 0.12211 0.16823 0.0
H504 H 0.90562 0.25379 0.17375 0.0
C505 C 0.86442 0.18108 0.1752 0.0
H506 H 0.7859 0.19235 0.17107 0.0
H507 H 0.95618 0.8613 0.15878 0.0
O508 O 0.82786 0.95904 0.24467 0.0
C509 C 0.96284 0.7905 0.20484 0.0
Co510 Co 0.81318 0.0808 0.97237 0.0
Co511 Co 0.81651 0.07708 0.93636 0.0
C512 C 0.92305 0.92047 0.95443 0.0
O513 O 0.89275 0.95871 0.96696 0.0
O514 O 0.88684 0.95053 0.94178 0.0
C515 C 0.76212 0.99488 1.00136 0.0
O516 O 0.76488 0.90935 0.99369 0.0
C517 C 0.75589 0.00254 0.9063 0.0
C518 C 0.81719 0.11886 0.89072 0.0
C519 C 0.76293 0.02883 0.89101 0.0
N520 N 0.80212 0.07442 0.91467 0.0
N521 N 0.83991 0.1431 0.90527 0.0
C522 C 0.7126 0.90711 0.91286 0.0
H523 H 0.71433 0.90906 0.92552 0.0
H524 H 0.6334 0.89637 0.90894 0.0
H525 H 0.75765 0.84146 0.90874 0.0
C526 C 0.59383 0.11343 0.96657 0.0
N527 N 0.68968 0.10116 0.96149 0.0
N528 N 0.6894 0.10008 0.9465 0.0
C529 C 0.5927 0.11177 0.94164 0.0
C530 C 0.52731 0.11557 0.95421 0.0
C531 C 0.56553 0.1174 0.98312 0.0
H532 H 0.61994 0.16605 0.98939 0.0
H533 H 0.56801 0.03974 0.98798 0.0
H534 H 0.48833 0.14906 0.98473 0.0
O535 O 0.9133 0.18696 0.96759 0.0
O536 O 0.9187 0.18029 0.9421 0.0
H537 H 0.62075 0.15191 0.91822 0.0
H538 H 0.4891 0.15535 0.92375 0.0
C539 C 0.56178 0.11411 0.9252 0.0
H540 H 0.55044 0.03558 0.92107 0.0
H541 H 0.88159 0.20616 0.90878 0.0
O542 O 0.78387 0.07769 0.99467 0.0
C543 C 0.95239 0.21273 0.95485 0.0
Co544 Co 0.83084 0.5631 0.7224 0.0
Co545 Co 0.82704 0.56663 0.68639 0.0
C546 C 0.67044 0.67301 0.70446 0.0
O547 O 0.70885 0.64285 0.71699 0.0
O548 O 0.70035 0.63665 0.69181 0.0
C549 C 0.74488 0.51158 0.75137 0.0
O550 O 0.65942 0.51405 0.74369 0.0
C551 C 0.7526 0.50621 0.65633 0.0
C552 C 0.8689 0.56767 0.64076 0.0
C553 C 0.77889 0.51339 0.64103 0.0
N554 N 0.82444 0.55244 0.6647 0.0
N555 N 0.89309 0.59034 0.65531 0.0
C556 C 0.65719 0.46283 0.66288 0.0
H557 H 0.65921 0.46436 0.67554 0.0
H558 H 0.64639 0.38371 0.65893 0.0
H559 H 0.59154 0.50799 0.65879 0.0
C560 C 0.86346 0.34375 0.71657 0.0
N561 N 0.85121 0.43965 0.71151 0.0
N562 N 0.85011 0.43947 0.69651 0.0
C563 C 0.86178 0.34279 0.69163 0.0
C564 C 0.86557 0.27731 0.70419 0.0
C565 C 0.86736 0.31533 0.73311 0.0
H566 H 0.91594 0.36972 0.7394 0.0
H567 H 0.78968 0.31769 0.73796 0.0
H568 H 0.89908 0.23813 0.73471 0.0
O569 O 0.93705 0.6632 0.71765 0.0
O570 O 0.93013 0.66886 0.69216 0.0
H571 H 0.90192 0.37097 0.66822 0.0
H572 H 0.90521 0.23926 0.67373 0.0
C573 C 0.86406 0.31199 0.67519 0.0
H574 H 0.78552 0.30075 0.67106 0.0
H575 H 0.95613 0.63204 0.65883 0.0
O576 O 0.82767 0.53365 0.7447 0.0
C577 C 0.96269 0.70243 0.70491 0.0
Co578 Co 0.67982 0.58097 0.9724 0.0
Co579 Co 0.67629 0.57706 0.9364 0.0
C580 C 0.5698 0.42058 0.95446 0.0
O581 O 0.60001 0.45901 0.96699 0.0
O582 O 0.60634 0.45032 0.94182 0.0
C583 C 0.73128 0.49499 1.00137 0.0
O584 O 0.72879 0.40952 0.99369 0.0
C585 C 0.73672 0.50261 0.90633 0.0
C586 C 0.67521 0.61888 0.89077 0.0
C587 C 0.72951 0.52887 0.89104 0.0
N588 N 0.69048 0.57446 0.91471 0.0
N589 N 0.65256 0.64309 0.90532 0.0
C590 C 0.78012 0.40722 0.91289 0.0
H591 H 0.77861 0.40926 0.92555 0.0
H592 H 0.85925 0.39643 0.90894 0.0
H593 H 0.73498 0.34155 0.9088 0.0
C594 C 0.89914 0.61372 0.96657 0.0
N595 N 0.80326 0.60133 0.96151 0.0
N596 N 0.80344 0.60022 0.94651 0.0
C597 C 0.90009 0.61201 0.94164 0.0
C598 C 0.96564 0.61603 0.95419 0.0
C599 C 0.92753 0.61767 0.98311 0.0
H600 H 0.87313 0.66627 0.98939 0.0
H601 H 0.92514 0.54 0.98797 0.0
H602 H 0.00473 0.64938 0.98471 0.0
O603 O 0.57973 0.6872 0.96765 0.0
O604 O 0.574 0.68012 0.94216 0.0
H605 H 0.87187 0.65218 0.91823 0.0
H606 H 0.00359 0.65541 0.92373 0.0
C607 C 0.93086 0.6143 0.92519 0.0
H608 H 0.94203 0.53575 0.92106 0.0
H609 H 0.61086 0.70613 0.90883 0.0
O610 O 0.70925 0.57779 0.9947 0.0
C611 C 0.54045 0.71276 0.95491 0.0
Co612 Co 0.66202 0.42973 0.2224 0.0
Co613 Co 0.66583 0.4262 0.18639 0.0
C614 C 0.82242 0.31982 0.20446 0.0
O615 O 0.78402 0.34998 0.21699 0.0
O616 O 0.79252 0.35618 0.19181 0.0
C617 C 0.74798 0.48125 0.25137 0.0
O618 O 0.83345 0.47877 0.24369 0.0
C619 C 0.74027 0.48662 0.15633 0.0
C620 C 0.62397 0.42516 0.14076 0.0
C621 C 0.71398 0.47944 0.14103 0.0
N622 N 0.66842 0.44039 0.1647 0.0
N623 N 0.59977 0.40249 0.15531 0.0
C624 C 0.83568 0.52999 0.16288 0.0
H625 H 0.83365 0.52847 0.17554 0.0
H626 H 0.84648 0.60912 0.15893 0.0
H627 H 0.90133 0.48484 0.15879 0.0
C628 C 0.62941 0.64908 0.21657 0.0
N629 N 0.64166 0.55318 0.2115 0.0
N630 N 0.64275 0.55336 0.19651 0.0
C631 C 0.63108 0.65004 0.19163 0.0
C632 C 0.6273 0.71552 0.20419 0.0
C633 C 0.6255 0.6775 0.23311 0.0
H634 H 0.57693 0.62311 0.2394 0.0
H635 H 0.70319 0.67514 0.23796 0.0
H636 H 0.59379 0.7547 0.23471 0.0
O637 O 0.55581 0.32963 0.21765 0.0
O638 O 0.56274 0.32397 0.19216 0.0
H639 H 0.59095 0.62186 0.16822 0.0
H640 H 0.58766 0.75357 0.17373 0.0
C641 C 0.6288 0.68084 0.17519 0.0
H642 H 0.70735 0.69208 0.17106 0.0
H643 H 0.53674 0.36079 0.15883 0.0
O644 O 0.6652 0.45918 0.2447 0.0
C645 C 0.53018 0.2904 0.20491 0.0
Co646 Co 0.81304 0.41186 0.4724 0.0
Co647 Co 0.81658 0.41577 0.4364 0.0
C648 C 0.92306 0.57225 0.45446 0.0
O649 O 0.89285 0.53382 0.46699 0.0
O650 O 0.88652 0.54251 0.44182 0.0
C651 C 0.76158 0.49784 0.50137 0.0
O652 O 0.76407 0.58331 0.49369 0.0
C653 C 0.75615 0.49023 0.40634 0.0
C654 C 0.81765 0.37396 0.39077 0.0
C655 C 0.76336 0.46397 0.39104 0.0
N656 N 0.80239 0.41838 0.41471 0.0
N657 N 0.8403 0.34974 0.40532 0.0
C658 C 0.71275 0.58562 0.41289 0.0
H659 H 0.71426 0.58358 0.42555 0.0
H660 H 0.63362 0.5964 0.40894 0.0
H661 H 0.75789 0.65129 0.4088 0.0
C662 C 0.59372 0.37911 0.46657 0.0
N663 N 0.6896 0.3915 0.46151 0.0
N664 N 0.68943 0.39262 0.44651 0.0
C665 C 0.59277 0.38082 0.44164 0.0
C666 C 0.52723 0.3768 0.45419 0.0
C667 C 0.56533 0.37516 0.48311 0.0
H668 H 0.61973 0.32656 0.48939 0.0
H669 H 0.56773 0.45283 0.48797 0.0
H670 H 0.48813 0.34345 0.48471 0.0
O671 O 0.91314 0.30563 0.46765 0.0
O672 O 0.91887 0.31271 0.44216 0.0
H673 H 0.62099 0.34066 0.41823 0.0
H674 H 0.48927 0.33743 0.42373 0.0
C675 C 0.56201 0.37854 0.42519 0.0
H676 H 0.55084 0.45709 0.42106 0.0
H677 H 0.88201 0.2867 0.40883 0.0
O678 O 0.78361 0.41504 0.4947 0.0
C679 C 0.95241 0.28008 0.45491 0.0
Co680 Co 0.83079 0.42963 0.79646 0.0
Co681 Co 0.82701 0.4263 0.83247 0.0
C682 C 0.6704 0.31981 0.8144 0.0
O683 O 0.70869 0.35007 0.80186 0.0
O684 O 0.70043 0.35603 0.82704 0.0
C685 C 0.74487 0.48072 0.76747 0.0
O686 O 0.65935 0.47797 0.77513 0.0
C687 C 0.75245 0.48687 0.86253 0.0
C688 C 0.86882 0.42563 0.8781 0.0
C689 C 0.77876 0.47984 0.87782 0.0
N690 N 0.82434 0.44067 0.85416 0.0
N691 N 0.89305 0.40292 0.86355 0.0
C692 C 0.657 0.53012 0.85597 0.0
H693 H 0.65895 0.52841 0.84331 0.0
H694 H 0.64623 0.60931 0.85989 0.0
H695 H 0.59137 0.48503 0.86008 0.0
C696 C 0.86338 0.64899 0.80225 0.0
N697 N 0.85114 0.55313 0.80733 0.0
N698 N 0.85002 0.55341 0.82233 0.0
C699 C 0.86165 0.65013 0.82719 0.0
C700 C 0.86546 0.71552 0.81462 0.0
C701 C 0.86734 0.6773 0.78571 0.0
H702 H 0.91601 0.62291 0.77943 0.0
H703 H 0.78968 0.67479 0.78085 0.0
H704 H 0.89897 0.75452 0.7841 0.0
O705 O 0.93694 0.3295 0.80123 0.0
O706 O 0.93019 0.32407 0.82673 0.0
H707 H 0.90167 0.62211 0.85061 0.0
H708 H 0.90507 0.75376 0.84508 0.0
C709 C 0.86388 0.68105 0.84363 0.0
H710 H 0.78532 0.69235 0.84775 0.0
H711 H 0.95613 0.36128 0.86004 0.0
O712 O 0.82768 0.45896 0.77415 0.0
C713 C 0.96267 0.29039 0.81398 0.0
Co714 Co 0.81315 0.58089 0.04646 0.0
Co715 Co 0.8165 0.57703 0.08246 0.0
C716 C 0.92309 0.42053 0.06439 0.0
O717 O 0.89276 0.45883 0.05186 0.0
O718 O 0.88671 0.45042 0.07704 0.0
C719 C 0.7621 0.49497 0.01747 0.0
O720 O 0.76487 0.40944 0.02513 0.0
C721 C 0.75592 0.50244 0.11252 0.0
C722 C 0.81721 0.61877 0.12809 0.0
C723 C 0.76299 0.52872 0.12781 0.0
N724 N 0.80213 0.57435 0.10415 0.0
N725 N 0.8399 0.64303 0.11355 0.0
C726 C 0.71263 0.40702 0.10596 0.0
H727 H 0.71435 0.40898 0.09329 0.0
H728 H 0.63344 0.39627 0.10988 0.0
H729 H 0.7577 0.34136 0.11007 0.0
C730 C 0.59382 0.61364 0.05226 0.0
N731 N 0.68966 0.60125 0.05733 0.0
N732 N 0.68939 0.60011 0.07232 0.0
C733 C 0.5927 0.61189 0.07718 0.0
C734 C 0.52724 0.61594 0.06462 0.0
C735 C 0.56555 0.61764 0.03571 0.0
H736 H 0.61995 0.66633 0.02944 0.0
H737 H 0.56807 0.54 0.03084 0.0
H738 H 0.48833 0.64928 0.0341 0.0
O739 O 0.91327 0.68706 0.05123 0.0
O740 O 0.91875 0.68021 0.07673 0.0
H741 H 0.62078 0.65197 0.1006 0.0
H742 H 0.4891 0.6553 0.09508 0.0
C743 C 0.56182 0.61414 0.09363 0.0
H744 H 0.55059 0.53558 0.09775 0.0
H745 H 0.88155 0.70612 0.11004 0.0
O746 O 0.78383 0.57779 0.02416 0.0
C747 C 0.95241 0.71274 0.06398 0.0
Co748 Co 0.66207 0.56319 0.29646 0.0
Co749 Co 0.66586 0.56653 0.33247 0.0
C750 C 0.82247 0.67302 0.3144 0.0
O751 O 0.78417 0.64276 0.30186 0.0
O752 O 0.79243 0.6368 0.32704 0.0
C753 C 0.74799 0.5121 0.26747 0.0
O754 O 0.83351 0.51486 0.27513 0.0
C755 C 0.74042 0.50596 0.36253 0.0
C756 C 0.62405 0.5672 0.3781 0.0
C757 C 0.7141 0.51299 0.37782 0.0
N758 N 0.66852 0.55216 0.35416 0.0
N759 N 0.59982 0.58991 0.36355 0.0
C760 C 0.83587 0.46271 0.35597 0.0
H761 H 0.83392 0.46442 0.34331 0.0
H762 H 0.84664 0.38352 0.35989 0.0
H763 H 0.90149 0.5078 0.36008 0.0
C764 C 0.62948 0.34383 0.30225 0.0
N765 N 0.64173 0.4397 0.30733 0.0
N766 N 0.64285 0.43941 0.32233 0.0
C767 C 0.63121 0.3427 0.32719 0.0
C768 C 0.6274 0.27731 0.31462 0.0
C769 C 0.62553 0.31553 0.28571 0.0
H770 H 0.57685 0.36992 0.27943 0.0
H771 H 0.70318 0.31804 0.28085 0.0
H772 H 0.59389 0.23831 0.2841 0.0
O773 O 0.55592 0.66333 0.30123 0.0
O774 O 0.56267 0.66876 0.32673 0.0
H775 H 0.5912 0.37072 0.35061 0.0
H776 H 0.5878 0.23907 0.34508 0.0
C777 C 0.62899 0.31178 0.34363 0.0
H778 H 0.70755 0.30048 0.34775 0.0
H779 H 0.53673 0.63155 0.36004 0.0
O780 O 0.66518 0.53387 0.27415 0.0
C781 C 0.53019 0.70244 0.31398 0.0
Co782 Co 0.67972 0.41194 0.54646 0.0
Co783 Co 0.67637 0.4158 0.58246 0.0
C784 C 0.56977 0.5723 0.56439 0.0
O785 O 0.60011 0.534 0.55186 0.0
O786 O 0.60615 0.5424 0.57704 0.0
C787 C 0.73076 0.49786 0.51747 0.0
O788 O 0.72799 0.58339 0.52513 0.0
C789 C 0.73695 0.49039 0.61252 0.0
C790 C 0.67566 0.37406 0.62809 0.0
C791 C 0.72988 0.46411 0.62781 0.0
N792 N 0.69074 0.41848 0.60415 0.0
N793 N 0.65297 0.3498 0.61355 0.0
C794 C 0.78024 0.58581 0.60596 0.0
H795 H 0.77852 0.58385 0.5933 0.0
H796 H 0.85943 0.59656 0.60988 0.0
H797 H 0.73518 0.65146 0.61007 0.0
C798 C 0.89905 0.37919 0.55226 0.0
N799 N 0.8032 0.39158 0.55733 0.0
N800 N 0.80348 0.39272 0.57232 0.0
C801 C 0.90017 0.38094 0.57718 0.0
C802 C 0.96563 0.37689 0.56462 0.0
C803 C 0.92732 0.37519 0.53571 0.0
H804 H 0.87292 0.3265 0.52944 0.0
H805 H 0.92479 0.45283 0.53084 0.0
H806 H 0.00454 0.34356 0.5341 0.0
O807 O 0.5796 0.30577 0.55123 0.0
O808 O 0.57412 0.31262 0.57673 0.0
H809 H 0.87209 0.34086 0.6006 0.0
H810 H 0.00377 0.33753 0.59508 0.0
C811 C 0.93105 0.37869 0.59363 0.0
H812 H 0.94228 0.45725 0.59775 0.0
H813 H 0.61132 0.28671 0.61004 0.0
O814 O 0.70903 0.41504 0.52416 0.0
C815 C 0.54045 0.28009 0.56398 0.0
Co816 Co 0.16201 0.42974 0.29643 0.0
Co817 Co 0.16582 0.42621 0.33243 0.0
C818 C 0.32241 0.31983 0.31437 0.0
O819 O 0.28401 0.35 0.30184 0.0
O820 O 0.2925 0.35618 0.32701 0.0
C821 C 0.24796 0.48126 0.26746 0.0
O822 O 0.33343 0.47879 0.27514 0.0
C823 C 0.24028 0.48663 0.3625 0.0
C824 C 0.12398 0.4252 0.37807 0.0
C825 C 0.214 0.47947 0.37779 0.0
N826 N 0.16842 0.44041 0.35413 0.0
N827 N 0.09977 0.40253 0.36352 0.0
C828 C 0.33569 0.53 0.35594 0.0
H829 H 0.33366 0.52846 0.34328 0.0
H830 H 0.3465 0.60913 0.35989 0.0
H831 H 0.40134 0.48484 0.36003 0.0
C832 C 0.1294 0.64909 0.30226 0.0
N833 N 0.14165 0.55319 0.30732 0.0
N834 N 0.14274 0.55337 0.32232 0.0
C835 C 0.13108 0.65005 0.32719 0.0
C836 C 0.1273 0.71553 0.31463 0.0
C837 C 0.1255 0.67752 0.28571 0.0
H838 H 0.07693 0.62313 0.27943 0.0
H839 H 0.20319 0.67515 0.28086 0.0
H840 H 0.09379 0.75472 0.28412 0.0
O841 O 0.05581 0.32963 0.30118 0.0
O842 O 0.06273 0.32398 0.32667 0.0
H843 H 0.09094 0.62188 0.3506 0.0
H844 H 0.08766 0.75358 0.34509 0.0
C845 C 0.1288 0.68085 0.34364 0.0
H846 H 0.20734 0.69208 0.34776 0.0
H847 H 0.03672 0.36084 0.36 0.0
O848 O 0.16518 0.45918 0.27413 0.0
C849 C 0.03017 0.2904 0.31392 0.0
Co850 Co 0.31313 0.41192 0.04642 0.0
Co851 Co 0.31665 0.41578 0.08243 0.0
C852 C 0.42307 0.57232 0.06436 0.0
O853 O 0.39294 0.53388 0.05183 0.0
O854 O 0.38666 0.54248 0.07701 0.0
C855 C 0.26161 0.49791 0.01745 0.0
O856 O 0.26409 0.58337 0.02514 0.0
C857 C 0.25623 0.49024 0.11249 0.0
C858 C 0.31772 0.37397 0.12806 0.0
C859 C 0.26343 0.46398 0.12779 0.0
N860 N 0.30246 0.41839 0.10412 0.0
N861 N 0.34038 0.34975 0.11351 0.0
C862 C 0.21283 0.58563 0.10594 0.0
H863 H 0.21434 0.58359 0.09327 0.0
H864 H 0.1337 0.59642 0.10988 0.0
H865 H 0.25797 0.6513 0.11002 0.0
C866 C 0.09379 0.37929 0.05225 0.0
N867 N 0.18968 0.39158 0.05732 0.0
N868 N 0.1895 0.39269 0.07231 0.0
C869 C 0.09283 0.38099 0.07719 0.0
C870 C 0.02736 0.37717 0.06463 0.0
C871 C 0.06538 0.37533 0.03571 0.0
H872 H 0.11978 0.32675 0.02943 0.0
H873 H 0.06771 0.453 0.03086 0.0
H874 H 0.98819 0.34358 0.03411 0.0
O875 O 0.41318 0.30568 0.05117 0.0
O876 O 0.41888 0.3127 0.07667 0.0
H877 H 0.12102 0.34086 0.1006 0.0
H878 H 0.98933 0.33749 0.09509 0.0
C879 C 0.06202 0.37869 0.09363 0.0
H880 H 0.05075 0.45722 0.09776 0.0
H881 H 0.38208 0.28671 0.11 0.0
O882 O 0.28368 0.41511 0.02412 0.0
C883 C 0.45242 0.28009 0.06392 0.0
Co884 Co 0.33086 0.56309 0.79643 0.0
Co885 Co 0.32705 0.56662 0.83243 0.0
C886 C 0.17045 0.673 0.81437 0.0
O887 O 0.20886 0.64284 0.80184 0.0
O888 O 0.20036 0.63664 0.82701 0.0
C889 C 0.2449 0.51157 0.76746 0.0
O890 O 0.15944 0.51404 0.77514 0.0
C891 C 0.25258 0.5062 0.8625 0.0
C892 C 0.36888 0.56763 0.87806 0.0
C893 C 0.27886 0.51337 0.87779 0.0
N894 N 0.32444 0.55242 0.85412 0.0
N895 N 0.39309 0.5903 0.86352 0.0
C896 C 0.15717 0.46284 0.85594 0.0
H897 H 0.1592 0.46437 0.84328 0.0
H898 H 0.14636 0.38371 0.85989 0.0
H899 H 0.09153 0.508 0.86003 0.0
C900 C 0.36346 0.34374 0.80226 0.0
N901 N 0.35122 0.43964 0.80732 0.0
N902 N 0.35012 0.43946 0.82231 0.0
C903 C 0.36178 0.34278 0.82719 0.0
C904 C 0.36557 0.2773 0.81463 0.0
C905 C 0.36736 0.31531 0.78571 0.0
H906 H 0.41594 0.3697 0.77943 0.0
H907 H 0.28968 0.31768 0.78086 0.0
H908 H 0.39908 0.23811 0.78412 0.0
O909 O 0.43706 0.6632 0.80118 0.0
O910 O 0.43013 0.66885 0.82667 0.0
H911 H 0.40192 0.37095 0.8506 0.0
H912 H 0.4052 0.23925 0.84509 0.0
C913 C 0.36406 0.31198 0.84364 0.0
H914 H 0.28552 0.30075 0.84776 0.0
H915 H 0.45614 0.63199 0.86 0.0
O916 O 0.32769 0.53364 0.77413 0.0
C917 C 0.46269 0.70243 0.81392 0.0
Co918 Co 0.17974 0.58091 0.54642 0.0
Co919 Co 0.17622 0.57704 0.58243 0.0
C920 C 0.0698 0.42051 0.56436 0.0
O921 O 0.09993 0.45895 0.55183 0.0
O922 O 0.10621 0.45034 0.57701 0.0
C923 C 0.23126 0.49492 0.51745 0.0
O924 O 0.22878 0.40946 0.52514 0.0
C925 C 0.23664 0.50259 0.61249 0.0
C926 C 0.17514 0.61885 0.62806 0.0
C927 C 0.22943 0.52884 0.62779 0.0
N928 N 0.19041 0.57444 0.60412 0.0
N929 N 0.15249 0.64307 0.61351 0.0
C930 C 0.28004 0.4072 0.60594 0.0
H931 H 0.27853 0.40924 0.59327 0.0
H932 H 0.35916 0.39641 0.60988 0.0
H933 H 0.23489 0.34153 0.61002 0.0
C934 C 0.39907 0.61354 0.55225 0.0
N935 N 0.30319 0.60125 0.55732 0.0
N936 N 0.30337 0.60014 0.57231 0.0
C937 C 0.40004 0.61184 0.57719 0.0
C938 C 0.46551 0.61566 0.56463 0.0
C939 C 0.42749 0.61751 0.53571 0.0
H940 H 0.37309 0.66608 0.52943 0.0
H941 H 0.42516 0.53983 0.53086 0.0
H942 H 0.50468 0.64926 0.53411 0.0
O943 O 0.07969 0.68715 0.55117 0.0
O944 O 0.07399 0.68012 0.57667 0.0
H945 H 0.37185 0.65197 0.6006 0.0
H946 H 0.50354 0.65533 0.59509 0.0
C947 C 0.43084 0.61414 0.59363 0.0
H948 H 0.44212 0.5356 0.59776 0.0
H949 H 0.11079 0.70611 0.61 0.0
O950 O 0.20919 0.57772 0.52412 0.0
C951 C 0.04044 0.71274 0.56392 0.0
Co952 Co 0.16207 0.56321 0.22237 0.0
Co953 Co 0.16588 0.56655 0.18636 0.0
C954 C 0.32248 0.67304 0.20443 0.0
O955 O 0.28417 0.64278 0.21696 0.0
O956 O 0.29245 0.63681 0.19178 0.0
C957 C 0.24798 0.51211 0.25136 0.0
O958 O 0.3335 0.51487 0.24369 0.0
C959 C 0.24047 0.50599 0.1563 0.0
C960 C 0.1241 0.5672 0.14073 0.0
C961 C 0.21417 0.51301 0.14101 0.0
N962 N 0.16856 0.55218 0.16467 0.0
N963 N 0.09985 0.58991 0.15527 0.0
C964 C 0.33592 0.46274 0.16286 0.0
H965 H 0.33397 0.46447 0.17552 0.0
H966 H 0.34669 0.38355 0.15894 0.0
H967 H 0.40155 0.50783 0.15874 0.0
C968 C 0.12948 0.34385 0.21657 0.0
N969 N 0.14173 0.43971 0.21149 0.0
N970 N 0.14286 0.43943 0.1965 0.0
C971 C 0.13122 0.34272 0.19164 0.0
C972 C 0.1274 0.27733 0.20421 0.0
C973 C 0.12551 0.31555 0.23312 0.0
H974 H 0.07683 0.36993 0.23939 0.0
H975 H 0.20316 0.31805 0.23798 0.0
H976 H 0.09387 0.23832 0.23473 0.0
O977 O 0.05592 0.66333 0.21759 0.0
O978 O 0.06269 0.66877 0.19209 0.0
H979 H 0.09123 0.37074 0.16822 0.0
H980 H 0.08782 0.23909 0.17374 0.0
C981 C 0.12901 0.3118 0.1752 0.0
H982 H 0.20757 0.3005 0.17108 0.0
H983 H 0.03675 0.63153 0.15878 0.0
O984 O 0.16517 0.53388 0.24467 0.0
C985 C 0.0302 0.70245 0.20484 0.0
Co986 Co 0.17965 0.41199 0.97237 0.0
Co987 Co 0.17631 0.41579 0.93636 0.0
C988 C 0.06978 0.57236 0.95443 0.0
O989 O 0.10004 0.53406 0.96696 0.0
O990 O 0.10603 0.54236 0.94178 0.0
C991 C 0.23075 0.49792 1.00136 0.0
O992 O 0.228 0.58345 0.99369 0.0
C993 C 0.23689 0.49037 0.90631 0.0
C994 C 0.17561 0.37405 0.89073 0.0
C995 C 0.22984 0.46409 0.89101 0.0
N996 N 0.19068 0.41847 0.91467 0.0
N997 N 0.15291 0.34979 0.90527 0.0
C998 C 0.28018 0.5858 0.91287 0.0
H999 H 0.27847 0.58383 0.92553 0.0
H1000 H 0.35936 0.59656 0.90894 0.0
H1001 H 0.2351 0.65145 0.90875 0.0
C1002 C 0.399 0.37937 0.96657 0.0
N1003 N 0.30314 0.39165 0.96149 0.0
N1004 N 0.30342 0.39277 0.9465 0.0
C1005 C 0.40013 0.3811 0.94164 0.0
C1006 C 0.46552 0.37727 0.95421 0.0
C1007 C 0.4273 0.37537 0.98312 0.0
H1008 H 0.37289 0.32671 0.98939 0.0
H1009 H 0.42483 0.45302 0.98798 0.0
H1010 H 0.50451 0.34369 0.98473 0.0
O1011 O 0.07955 0.30582 0.9676 0.0
O1012 O 0.07411 0.3126 0.9421 0.0
H1013 H 0.37209 0.34105 0.91822 0.0
H1014 H 0.50373 0.3376 0.92375 0.0
C1015 C 0.43105 0.37883 0.9252 0.0
H1016 H 0.44238 0.45738 0.92108 0.0
H1017 H 0.11126 0.2867 0.90878 0.0
O1018 O 0.20898 0.41511 0.99467 0.0
C1019 C 0.04044 0.2801 0.95485 0.0
Co1020 Co 0.33079 0.42962 0.72237 0.0
Co1021 Co 0.32698 0.42628 0.68636 0.0
C1022 C 0.17039 0.31979 0.70443 0.0
O1023 O 0.2087 0.35005 0.71696 0.0
O1024 O 0.20041 0.35602 0.69178 0.0
C1025 C 0.24489 0.48071 0.75136 0.0
O1026 O 0.15936 0.47795 0.74369 0.0
C1027 C 0.25239 0.48684 0.6563 0.0
C1028 C 0.36877 0.42563 0.64073 0.0
C1029 C 0.2787 0.47982 0.64101 0.0
N1030 N 0.3243 0.44065 0.66467 0.0
N1031 N 0.39301 0.40292 0.65527 0.0
C1032 C 0.15694 0.53008 0.66286 0.0
H1033 H 0.15889 0.52835 0.67552 0.0
H1034 H 0.14617 0.60928 0.65894 0.0
H1035 H 0.09132 0.485 0.65874 0.0
C1036 C 0.36339 0.64898 0.71657 0.0
N1037 N 0.35113 0.55312 0.71149 0.0
N1038 N 0.35 0.5534 0.6965 0.0
C1039 C 0.36164 0.65011 0.69164 0.0
C1040 C 0.36547 0.7155 0.70421 0.0
C1041 C 0.36736 0.67728 0.73312 0.0
H1042 H 0.41604 0.62289 0.73939 0.0
H1043 H 0.28971 0.67477 0.73798 0.0
H1044 H 0.399 0.7545 0.73473 0.0
O1045 O 0.43694 0.3295 0.71759 0.0
O1046 O 0.43018 0.32406 0.69209 0.0
H1047 H 0.40164 0.62208 0.66822 0.0
H1048 H 0.40505 0.75373 0.67374 0.0
C1049 C 0.36385 0.68103 0.6752 0.0
H1050 H 0.28529 0.69233 0.67108 0.0
H1051 H 0.45611 0.3613 0.65878 0.0
O1052 O 0.32769 0.45895 0.74467 0.0
C1053 C 0.46267 0.29038 0.70484 0.0
Co1054 Co 0.31321 0.58084 0.47237 0.0
Co1055 Co 0.31655 0.57705 0.43636 0.0
C1056 C 0.42308 0.42047 0.45443 0.0
O1057 O 0.39282 0.45877 0.46696 0.0
O1058 O 0.38683 0.45048 0.44178 0.0
C1059 C 0.26212 0.49491 0.50136 0.0
O1060 O 0.26487 0.40938 0.49369 0.0
C1061 C 0.25597 0.50247 0.40631 0.0
C1062 C 0.31725 0.61879 0.39073 0.0
C1063 C 0.26302 0.52875 0.39101 0.0
N1064 N 0.30218 0.57437 0.41467 0.0
N1065 N 0.33995 0.64305 0.40527 0.0
C1066 C 0.21268 0.40704 0.41287 0.0
H1067 H 0.21439 0.40902 0.42553 0.0
H1068 H 0.13349 0.39629 0.40894 0.0
H1069 H 0.25775 0.34139 0.40875 0.0
C1070 C 0.09387 0.61346 0.46657 0.0
N1071 N 0.18972 0.60118 0.4615 0.0
N1072 N 0.18944 0.60006 0.4465 0.0
C1073 C 0.09273 0.61174 0.44164 0.0
C1074 C 0.02734 0.61556 0.45421 0.0
C1075 C 0.06557 0.61746 0.48312 0.0
H1076 H 0.11997 0.66612 0.48939 0.0
H1077 H 0.06804 0.53981 0.48798 0.0
H1078 H 0.98836 0.64913 0.48473 0.0
O1079 O 0.41331 0.68701 0.4676 0.0
O1080 O 0.41875 0.68024 0.4421 0.0
H1081 H 0.12078 0.65179 0.41822 0.0
H1082 H 0.98913 0.65525 0.42375 0.0
C1083 C 0.06181 0.61401 0.4252 0.0
H1084 H 0.05048 0.53547 0.42108 0.0
H1085 H 0.3816 0.70614 0.40878 0.0
O1086 O 0.28389 0.57772 0.49467 0.0
C1087 C 0.45243 0.71274 0.45485 0.0
loop_
_geom_bond_atom_site_label_1
_geom_bond_atom_site_label_2
_geom_bond_distance
_geom_bond_site_symmetry_2
_ccdc_geom_bond_type
Co0 O3 1.970 . S
Co0 N17 1.989 1_545 S
Co0 O25 1.967 . S
Co0 O32 1.920 . S
Co1 O4 1.966 . S
Co1 N10 2.022 . S
Co1 N18 1.993 1_545 S
Co1 O26 1.941 . S
C2 O3 1.258 . S
C2 O4 1.263 . S
O3 Co0 1.970 . S
O3 C2 1.258 . S
O4 Co1 1.966 . S
O4 C2 1.263 . S
C5 O6 1.235 . S
C5 O32 1.289 . S
O6 C5 1.235 . S
C7 C9 1.400 . S
C7 N10 1.351 . S
C7 C12 1.501 . S
C8 C9 1.387 1_565 S
C8 N11 1.341 1_565 S
C9 C7 1.400 . S
C9 C8 1.387 1_545 S
N10 Co1 2.022 . S
N10 C7 1.351 . S
N10 N11 1.365 . S
N11 C8 1.341 1_545 S
N11 N10 1.365 . S
N11 H31 0.862 1_545 S
C12 C7 1.501 . S
C12 H13 0.961 . S
C12 H14 0.961 . S
C12 H15 0.960 . S
H13 C12 0.961 . S
H14 C12 0.961 . S
H15 C12 0.960 . S
C16 N17 1.342 . S
C16 C20 1.401 . S
C16 C21 1.499 . S
N17 Co0 1.989 1_565 S
N17 C16 1.342 . S
N17 N18 1.388 . S
N18 Co1 1.993 1_565 S
N18 N17 1.388 . S
N18 C19 1.346 . S
C19 N18 1.346 . S
C19 C20 1.396 . S
C19 C29 1.510 . S
C20 C16 1.401 . S
C20 C19 1.396 . S
C21 C16 1.499 . S
C21 H22 0.959 . S
C21 H23 0.960 . S
C21 H24 0.961 . S
H22 C21 0.959 . S
H23 C21 0.960 . S
H24 C21 0.961 . S
O25 Co0 1.967 . S
O25 C33 1.258 . S
O26 Co1 1.941 . S
O26 C33 1.266 . S
H27 C29 0.959 . S
H28 C29 0.961 . S
C29 C19 1.510 . S
C29 H27 0.959 . S
C29 H28 0.961 . S
C29 H30 0.960 . S
H30 C29 0.960 . S
H31 N11 0.862 1_565 S
O32 Co0 1.920 . S
O32 C5 1.289 . S
C33 O25 1.258 . S
C33 O26 1.266 . S
Co34 O37 1.970 1_545 S
Co34 N51 1.989 . S
Co34 O59 1.967 . S
Co34 O66 1.920 . S
Co35 O38 1.966 . S
Co35 N44 2.022 . S
Co35 N52 1.993 . S
Co35 O60 1.941 . S
C36 O37 1.258 . S
C36 O38 1.263 1_565 S
O37 Co34 1.970 1_565 S
O37 C36 1.258 . S
O38 Co35 1.966 . S
O38 C36 1.263 1_545 S
C39 O40 1.235 1_545 S
C39 O66 1.289 . S
O40 C39 1.235 1_565 S
C41 C43 1.400 . S
C41 N44 1.351 . S
C41 C46 1.501 1_545 S
C42 C43 1.387 . S
C42 N45 1.341 . S
C43 C41 1.400 . S
C43 C42 1.387 . S
N44 Co35 2.022 . S
N44 C41 1.351 . S
N44 N45 1.365 . S
N45 C42 1.341 . S
N45 N44 1.365 . S
N45 H65 0.862 . S
C46 C41 1.501 1_565 S
C46 H47 0.961 . S
C46 H48 0.961 . S
C46 H49 0.960 . S
H47 C46 0.961 . S
H48 C46 0.961 . S
H49 C46 0.960 . S
C50 N51 1.342 . S
C50 C54 1.401 . S
C50 C55 1.499 . S
N51 Co34 1.989 . S
N51 C50 1.342 . S
N51 N52 1.388 . S
N52 Co35 1.993 . S
N52 N51 1.388 . S
N52 C53 1.346 . S
C53 N52 1.346 . S
C53 C54 1.396 . S
C53 C63 1.510 . S
C54 C50 1.401 . S
C54 C53 1.396 . S
C55 C50 1.499 . S
C55 H56 0.959 . S
C55 H57 0.960 . S
C55 H58 0.961 . S
H56 C55 0.959 . S
H57 C55 0.960 . S
H58 C55 0.961 . S
O59 Co34 1.967 . S
O59 C67 1.258 . S
O60 Co35 1.941 . S
O60 C67 1.266 . S
H61 C63 0.959 . S
H62 C63 0.961 1_565 S
C63 C53 1.510 . S
C63 H61 0.959 . S
C63 H62 0.961 1_545 S
C63 H64 0.960 . S
H64 C63 0.960 . S
H65 N45 0.862 . S
O66 Co34 1.920 . S
O66 C39 1.289 . S
C67 O59 1.258 . S
C67 O60 1.266 . S
Co68 O71 1.970 . S
Co68 N85 1.989 1_565 S
Co68 O93 1.967 . S
Co68 O100 1.920 . S
Co69 O72 1.966 . S
Co69 N78 2.022 . S
Co69 N86 1.993 1_565 S
Co69 O94 1.941 . S
C70 O71 1.258 . S
C70 O72 1.263 . S
O71 Co68 1.970 . S
O71 C70 1.258 . S
O72 Co69 1.966 . S
O72 C70 1.263 . S
C73 O74 1.235 . S
C73 O100 1.289 . S
O74 C73 1.235 . S
C75 C77 1.400 . S
C75 N78 1.351 . S
C75 C80 1.501 . S
C76 C77 1.387 1_545 S
C76 N79 1.341 1_545 S
C77 C75 1.400 . S
C77 C76 1.387 1_565 S
N78 Co69 2.022 . S
N78 C75 1.351 . S
N78 N79 1.365 . S
N79 C76 1.341 1_565 S
N79 N78 1.365 . S
N79 H99 0.862 1_565 S
C80 C75 1.501 . S
C80 H81 0.961 . S
C80 H82 0.961 . S
C80 H83 0.960 . S
H81 C80 0.961 . S
H82 C80 0.961 . S
H83 C80 0.960 . S
C84 N85 1.342 . S
C84 C88 1.401 . S
C84 C89 1.499 . S
N85 Co68 1.989 1_545 S
N85 C84 1.342 . S
N85 N86 1.388 . S
N86 Co69 1.993 1_545 S
N86 N85 1.388 . S
N86 C87 1.346 . S
C87 N86 1.346 . S
C87 C88 1.396 . S
C87 C97 1.510 . S
C88 C84 1.401 . S
C88 C87 1.396 . S
C89 C84 1.499 . S
C89 H90 0.959 . S
C89 H91 0.960 . S
C89 H92 0.961 . S
H90 C89 0.959 . S
H91 C89 0.960 . S
H92 C89 0.961 . S
O93 Co68 1.967 . S
O93 C101 1.258 1_455 S
O94 Co69 1.941 . S
O94 C101 1.266 1_455 S
H95 C97 0.959 . S
H96 C97 0.961 . S
C97 C87 1.510 . S
C97 H95 0.959 . S
C97 H96 0.961 . S
C97 H98 0.960 . S
H98 C97 0.960 . S
H99 N79 0.862 1_545 S
O100 Co68 1.920 . S
O100 C73 1.289 . S
C101 O93 1.258 1_655 S
C101 O94 1.266 1_655 S
Co102 O105 1.970 1_565 S
Co102 N119 1.989 . S
Co102 O127 1.967 . S
Co102 O134 1.920 . S
Co103 O106 1.966 . S
Co103 N112 2.022 . S
Co103 N120 1.993 . S
Co103 O128 1.941 . S
C104 O105 1.258 . S
C104 O106 1.263 1_545 S
O105 Co102 1.970 1_545 S
O105 C104 1.258 . S
O106 Co103 1.966 . S
O106 C104 1.263 1_565 S
C107 O108 1.235 1_565 S
C107 O134 1.289 . S
O108 C107 1.235 1_545 S
C109 C111 1.400 . S
C109 N112 1.351 . S
C109 C114 1.501 1_565 S
C110 C111 1.387 . S
C110 N113 1.341 . S
C111 C109 1.400 . S
C111 C110 1.387 . S
N112 Co103 2.022 . S
N112 C109 1.351 . S
N112 N113 1.365 . S
N113 C110 1.341 . S
N113 N112 1.365 . S
N113 H133 0.862 . S
C114 C109 1.501 1_545 S
C114 H115 0.961 . S
C114 H116 0.961 . S
C114 H117 0.960 . S
H115 C114 0.961 . S
H116 C114 0.961 . S
H117 C114 0.960 . S
C118 N119 1.342 . S
C118 C122 1.401 . S
C118 C123 1.499 . S
N119 Co102 1.989 . S
N119 C118 1.342 . S
N119 N120 1.388 . S
N120 Co103 1.993 . S
N120 N119 1.388 . S
N120 C121 1.346 . S
C121 N120 1.346 . S
C121 C122 1.396 . S
C121 C131 1.510 . S
C122 C118 1.401 . S
C122 C121 1.396 . S
C123 C118 1.499 . S
C123 H124 0.959 . S
C123 H125 0.960 . S
C123 H126 0.961 . S
H124 C123 0.959 . S
H125 C123 0.960 . S
H126 C123 0.961 . S
O127 Co102 1.967 . S
O127 C135 1.258 . S
O128 Co103 1.941 . S
O128 C135 1.266 . S
H129 C131 0.959 . S
H130 C131 0.961 1_545 S
C131 C121 1.510 . S
C131 H129 0.959 . S
C131 H130 0.961 1_565 S
C131 H132 0.960 . S
H132 C131 0.960 . S
H133 N113 0.862 . S
O134 Co102 1.920 . S
O134 C107 1.289 . S
C135 O127 1.258 . S
C135 O128 1.266 . S
Co136 O139 1.970 . S
Co136 N153 1.989 1_565 S
Co136 O161 1.967 . S
Co136 O168 1.920 . S
Co137 O140 1.966 . S
Co137 N146 2.022 . S
Co137 N154 1.993 1_565 S
Co137 O162 1.941 . S
C138 O139 1.258 . S
C138 O140 1.263 . S
O139 Co136 1.970 . S
O139 C138 1.258 . S
O140 Co137 1.966 . S
O140 C138 1.263 . S
C141 O142 1.235 . S
C141 O168 1.289 . S
O142 C141 1.235 . S
C143 C145 1.400 . S
C143 N146 1.351 . S
C143 C148 1.501 . S
C144 C145 1.387 1_545 S
C144 N147 1.341 1_545 S
C145 C143 1.400 . S
C145 C144 1.387 1_565 S
N146 Co137 2.022 . S
N146 C143 1.351 . S
N146 N147 1.365 . S
N147 C144 1.341 1_565 S
N147 N146 1.365 . S
N147 H167 0.862 1_565 S
C148 C143 1.501 . S
C148 H149 0.961 . S
C148 H150 0.961 . S
C148 H151 0.960 . S
H149 C148 0.961 . S
H150 C148 0.961 . S
H151 C148 0.960 . S
C152 N153 1.342 . S
C152 C156 1.401 . S
C152 C157 1.499 . S
N153 Co136 1.989 1_545 S
N153 C152 1.342 . S
N153 N154 1.388 . S
N154 Co137 1.993 1_545 S
N154 N153 1.388 . S
N154 C155 1.346 . S
C155 N154 1.346 . S
C155 C156 1.396 . S
C155 C165 1.510 . S
C156 C152 1.401 . S
C156 C155 1.396 . S
C157 C152 1.499 . S
C157 H158 0.959 . S
C157 H159 0.960 . S
C157 H160 0.961 . S
H158 C157 0.959 . S
H159 C157 0.960 . S
H160 C157 0.961 . S
O161 Co136 1.967 . S
O161 C169 1.258 . S
O162 Co137 1.941 . S
O162 C169 1.266 . S
H163 C165 0.959 . S
H164 C165 0.961 . S
C165 C155 1.510 . S
C165 H163 0.959 . S
C165 H164 0.961 . S
C165 H166 0.960 . S
H166 C165 0.960 . S
H167 N147 0.862 1_545 S
O168 Co136 1.920 . S
O168 C141 1.289 . S
C169 O161 1.258 . S
C169 O162 1.266 . S
Co170 O173 1.970 1_545 S
Co170 N187 1.989 . S
Co170 O195 1.967 . S
Co170 O202 1.920 . S
Co171 O174 1.966 . S
Co171 N180 2.022 . S
Co171 N188 1.993 . S
Co171 O196 1.941 . S
C172 O173 1.258 . S
C172 O174 1.263 1_565 S
O173 Co170 1.970 1_565 S
O173 C172 1.258 . S
O174 Co171 1.966 . S
O174 C172 1.263 1_545 S
C175 O176 1.235 1_545 S
C175 O202 1.289 . S
O176 C175 1.235 1_565 S
C177 C179 1.400 . S
C177 N180 1.351 . S
C177 C182 1.501 1_545 S
C178 C179 1.387 . S
C178 N181 1.341 . S
C179 C177 1.400 . S
C179 C178 1.387 . S
N180 Co171 2.022 . S
N180 C177 1.351 . S
N180 N181 1.365 . S
N181 C178 1.341 . S
N181 N180 1.365 . S
N181 H201 0.862 . S
C182 C177 1.501 1_565 S
C182 H183 0.961 . S
C182 H184 0.961 . S
C182 H185 0.960 . S
H183 C182 0.961 . S
H184 C182 0.961 . S
H185 C182 0.960 . S
C186 N187 1.342 . S
C186 C190 1.401 . S
C186 C191 1.499 . S
N187 Co170 1.989 . S
N187 C186 1.342 . S
N187 N188 1.388 . S
N188 Co171 1.993 . S
N188 N187 1.388 . S
N188 C189 1.346 . S
C189 N188 1.346 . S
C189 C190 1.396 . S
C189 C199 1.510 . S
C190 C186 1.401 . S
C190 C189 1.396 . S
C191 C186 1.499 . S
C191 H192 0.959 . S
C191 H193 0.960 . S
C191 H194 0.961 . S
H192 C191 0.959 . S
H193 C191 0.960 . S
H194 C191 0.961 . S
O195 Co170 1.967 . S
O195 C203 1.258 . S
O196 Co171 1.941 . S
O196 C203 1.266 . S
H197 C199 0.959 . S
H198 C199 0.961 1_565 S
C199 C189 1.510 . S
C199 H197 0.959 . S
C199 H198 0.961 1_545 S
C199 H200 0.960 . S
H200 C199 0.960 . S
H201 N181 0.862 . S
O202 Co170 1.920 . S
O202 C175 1.289 . S
C203 O195 1.258 . S
C203 O196 1.266 . S
Co204 O207 1.970 . S
Co204 N221 1.989 1_545 S
Co204 O229 1.967 . S
Co204 O236 1.920 . S
Co205 O208 1.966 . S
Co205 N214 2.022 . S
Co205 N222 1.993 1_545 S
Co205 O230 1.941 . S
C206 O207 1.258 . S
C206 O208 1.263 . S
O207 Co204 1.970 . S
O207 C206 1.258 . S
O208 Co205 1.966 . S
O208 C206 1.263 . S
C209 O210 1.235 . S
C209 O236 1.289 . S
O210 C209 1.235 . S
C211 C213 1.400 . S
C211 N214 1.351 . S
C211 C216 1.501 . S
C212 C213 1.387 1_565 S
C212 N215 1.341 1_565 S
C213 C211 1.400 . S
C213 C212 1.387 1_545 S
N214 Co205 2.022 . S
N214 C211 1.351 . S
N214 N215 1.365 . S
N215 C212 1.341 1_545 S
N215 N214 1.365 . S
N215 H235 0.862 1_545 S
C216 C211 1.501 . S
C216 H217 0.961 . S
C216 H218 0.961 . S
C216 H219 0.960 . S
H217 C216 0.961 . S
H218 C216 0.961 . S
H219 C216 0.960 . S
C220 N221 1.342 . S
C220 C224 1.401 . S
C220 C225 1.499 . S
N221 Co204 1.989 1_565 S
N221 C220 1.342 . S
N221 N222 1.388 . S
N222 Co205 1.993 1_565 S
N222 N221 1.388 . S
N222 C223 1.346 . S
C223 N222 1.346 . S
C223 C224 1.396 . S
C223 C233 1.510 . S
C224 C220 1.401 . S
C224 C223 1.396 . S
C225 C220 1.499 . S
C225 H226 0.959 . S
C225 H227 0.960 . S
C225 H228 0.961 . S
H226 C225 0.959 . S
H227 C225 0.960 . S
H228 C225 0.961 . S
O229 Co204 1.967 . S
O229 C237 1.258 1_455 S
O230 Co205 1.941 . S
O230 C237 1.266 1_455 S
H231 C233 0.959 . S
H232 C233 0.961 . S
C233 C223 1.510 . S
C233 H231 0.959 . S
C233 H232 0.961 . S
C233 H234 0.960 . S
H234 C233 0.960 . S
H235 N215 0.862 1_565 S
O236 Co204 1.920 . S
O236 C209 1.289 . S
C237 O229 1.258 1_655 S
C237 O230 1.266 1_655 S
Co238 O241 1.970 1_565 S
Co238 N255 1.989 . S
Co238 O263 1.967 . S
Co238 O270 1.920 . S
Co239 O242 1.966 . S
Co239 N248 2.022 . S
Co239 N256 1.993 . S
Co239 O264 1.941 . S
C240 O241 1.258 . S
C240 O242 1.263 1_545 S
O241 Co238 1.970 1_545 S
O241 C240 1.258 . S
O242 Co239 1.966 . S
O242 C240 1.263 1_565 S
C243 O244 1.235 1_565 S
C243 O270 1.289 . S
O244 C243 1.235 1_545 S
C245 C247 1.400 . S
C245 N248 1.351 . S
C245 C250 1.501 1_565 S
C246 C247 1.387 . S
C246 N249 1.341 . S
C247 C245 1.400 . S
C247 C246 1.387 . S
N248 Co239 2.022 . S
N248 C245 1.351 . S
N248 N249 1.365 . S
N249 C246 1.341 . S
N249 N248 1.365 . S
N249 H269 0.862 . S
C250 C245 1.501 1_545 S
C250 H251 0.961 . S
C250 H252 0.961 . S
C250 H253 0.960 . S
H251 C250 0.961 . S
H252 C250 0.961 . S
H253 C250 0.960 . S
C254 N255 1.342 . S
C254 C258 1.401 . S
C254 C259 1.499 . S
N255 Co238 1.989 . S
N255 C254 1.342 . S
N255 N256 1.388 . S
N256 Co239 1.993 . S
N256 N255 1.388 . S
N256 C257 1.346 . S
C257 N256 1.346 . S
C257 C258 1.396 . S
C257 C267 1.510 . S
C258 C254 1.401 . S
C258 C257 1.396 . S
C259 C254 1.499 . S
C259 H260 0.959 . S
C259 H261 0.960 . S
C259 H262 0.961 . S
H260 C259 0.959 . S
H261 C259 0.960 . S
H262 C259 0.961 . S
O263 Co238 1.967 . S
O263 C271 1.258 . S
O264 Co239 1.941 . S
O264 C271 1.266 . S
H265 C267 0.959 . S
H266 C267 0.961 1_545 S
C267 C257 1.510 . S
C267 H265 0.959 . S
C267 H266 0.961 1_565 S
C267 H268 0.960 . S
H268 C267 0.960 . S
H269 N249 0.862 . S
O270 Co238 1.920 . S
O270 C243 1.289 . S
C271 O263 1.258 . S
C271 O264 1.266 . S
Co272 O275 1.970 . S
Co272 N289 1.989 1_565 S
Co272 O297 1.967 . S
Co272 O304 1.920 . S
Co273 O276 1.966 . S
Co273 N282 2.022 . S
Co273 N290 1.993 1_565 S
Co273 O298 1.941 . S
C274 O275 1.258 . S
C274 O276 1.263 . S
O275 Co272 1.970 . S
O275 C274 1.258 . S
O276 Co273 1.966 . S
O276 C274 1.263 . S
C277 O278 1.235 . S
C277 O304 1.289 . S
O278 C277 1.235 . S
C279 C281 1.400 . S
C279 N282 1.351 . S
C279 C284 1.501 . S
C280 C281 1.387 1_545 S
C280 N283 1.341 1_545 S
C281 C279 1.400 . S
C281 C280 1.387 1_565 S
N282 Co273 2.022 . S
N282 C279 1.351 . S
N282 N283 1.365 . S
N283 C280 1.341 1_565 S
N283 N282 1.365 . S
N283 H303 0.862 1_565 S
C284 C279 1.501 . S
C284 H285 0.961 . S
C284 H286 0.961 . S
C284 H287 0.960 . S
H285 C284 0.961 . S
H286 C284 0.961 . S
H287 C284 0.960 . S
C288 N289 1.342 . S
C288 C292 1.401 . S
C288 C293 1.499 . S
N289 Co272 1.989 1_545 S
N289 C288 1.342 . S
N289 N290 1.388 . S
N290 Co273 1.993 1_545 S
N290 N289 1.388 . S
N290 C291 1.346 . S
C291 N290 1.346 . S
C291 C292 1.396 . S
C291 C301 1.510 . S
C292 C288 1.401 . S
C292 C291 1.396 . S
C293 C288 1.499 . S
C293 H294 0.959 . S
C293 H295 0.960 . S
C293 H296 0.961 . S
H294 C293 0.959 . S
H295 C293 0.960 . S
H296 C293 0.961 . S
O297 Co272 1.967 . S
O297 C305 1.258 . S
O298 Co273 1.941 . S
O298 C305 1.266 . S
H299 C301 0.959 . S
H300 C301 0.961 . S
C301 C291 1.510 . S
C301 H299 0.959 . S
C301 H300 0.961 . S
C301 H302 0.960 . S
H302 C301 0.960 . S
H303 N283 0.862 1_545 S
O304 Co272 1.920 . S
O304 C277 1.289 . S
C305 O297 1.258 . S
C305 O298 1.266 . S
Co306 O309 1.970 1_565 S
Co306 N323 1.989 . S
Co306 O331 1.967 . S
Co306 O338 1.920 . S
Co307 O310 1.966 . S
Co307 N316 2.022 . S
Co307 N324 1.993 . S
Co307 O332 1.941 . S
C308 O309 1.258 . S
C308 O310 1.263 1_545 S
O309 Co306 1.970 1_545 S
O309 C308 1.258 . S
O310 Co307 1.966 . S
O310 C308 1.263 1_565 S
C311 O312 1.235 1_565 S
C311 O338 1.289 . S
O312 C311 1.235 1_545 S
C313 C315 1.400 . S
C313 N316 1.351 . S
C313 C318 1.501 1_565 S
C314 C315 1.387 . S
C314 N317 1.341 . S
C315 C313 1.400 . S
C315 C314 1.387 . S
N316 Co307 2.022 . S
N316 C313 1.351 . S
N316 N317 1.365 . S
N317 C314 1.341 . S
N317 N316 1.365 . S
N317 H337 0.862 . S
C318 C313 1.501 1_545 S
C318 H319 0.961 . S
C318 H320 0.961 . S
C318 H321 0.960 . S
H319 C318 0.961 . S
H320 C318 0.961 . S
H321 C318 0.960 . S
C322 N323 1.342 . S
C322 C326 1.401 . S
C322 C327 1.499 . S
N323 Co306 1.989 . S
N323 C322 1.342 . S
N323 N324 1.388 . S
N324 Co307 1.993 . S
N324 N323 1.388 . S
N324 C325 1.346 . S
C325 N324 1.346 . S
C325 C326 1.396 . S
C325 C335 1.510 . S
C326 C322 1.401 . S
C326 C325 1.396 . S
C327 C322 1.499 . S
C327 H328 0.959 . S
C327 H329 0.960 . S
C327 H330 0.961 . S
H328 C327 0.959 . S
H329 C327 0.960 . S
H330 C327 0.961 . S
O331 Co306 1.967 . S
O331 C339 1.258 . S
O332 Co307 1.941 . S
O332 C339 1.266 . S
H333 C335 0.959 . S
H334 C335 0.961 1_545 S
C335 C325 1.510 . S
C335 H333 0.959 . S
C335 H334 0.961 1_565 S
C335 H336 0.960 . S
H336 C335 0.960 . S
H337 N317 0.862 . S
O338 Co306 1.920 . S
O338 C311 1.289 . S
C339 O331 1.258 . S
C339 O332 1.266 . S
Co340 O343 1.970 . S
Co340 N357 1.989 1_545 S
Co340 O365 1.967 . S
Co340 O372 1.920 . S
Co341 O344 1.966 . S
Co341 N350 2.022 . S
Co341 N358 1.993 1_545 S
Co341 O366 1.941 . S
C342 O343 1.258 . S
C342 O344 1.263 . S
O343 Co340 1.970 . S
O343 C342 1.258 . S
O344 Co341 1.966 . S
O344 C342 1.263 . S
C345 O346 1.235 . S
C345 O372 1.289 . S
O346 C345 1.235 . S
C347 C349 1.400 . S
C347 N350 1.351 . S
C347 C352 1.501 . S
C348 C349 1.387 1_565 S
C348 N351 1.341 1_565 S
C349 C347 1.400 . S
C349 C348 1.387 1_545 S
N350 Co341 2.022 . S
N350 C347 1.351 . S
N350 N351 1.365 . S
N351 C348 1.341 1_545 S
N351 N350 1.365 . S
N351 H371 0.862 1_545 S
C352 C347 1.501 . S
C352 H353 0.961 . S
C352 H354 0.961 . S
C352 H355 0.960 . S
H353 C352 0.961 . S
H354 C352 0.961 . S
H355 C352 0.960 . S
C356 N357 1.342 . S
C356 C360 1.401 . S
C356 C361 1.499 . S
N357 Co340 1.989 1_565 S
N357 C356 1.342 . S
N357 N358 1.388 . S
N358 Co341 1.993 1_565 S
N358 N357 1.388 . S
N358 C359 1.346 . S
C359 N358 1.346 . S
C359 C360 1.396 . S
C359 C369 1.510 . S
C360 C356 1.401 . S
C360 C359 1.396 . S
C361 C356 1.499 . S
C361 H362 0.959 . S
C361 H363 0.960 . S
C361 H364 0.961 . S
H362 C361 0.959 . S
H363 C361 0.960 . S
H364 C361 0.961 . S
O365 Co340 1.967 . S
O365 C373 1.258 1_655 S
O366 Co341 1.941 . S
O366 C373 1.266 1_655 S
H367 C369 0.959 . S
H368 C369 0.961 . S
C369 C359 1.510 . S
C369 H367 0.959 . S
C369 H368 0.961 . S
C369 H370 0.960 . S
H370 C369 0.960 . S
H371 N351 0.862 1_565 S
O372 Co340 1.920 . S
O372 C345 1.289 . S
C373 O365 1.258 1_455 S
C373 O366 1.266 1_455 S
Co374 O377 1.970 1_545 S
Co374 N391 1.989 . S
Co374 O399 1.967 . S
Co374 O406 1.920 . S
Co375 O378 1.966 . S
Co375 N384 2.022 . S
Co375 N392 1.993 . S
Co375 O400 1.941 . S
C376 O377 1.258 . S
C376 O378 1.263 1_565 S
O377 Co374 1.970 1_565 S
O377 C376 1.258 . S
O378 Co375 1.966 . S
O378 C376 1.263 1_545 S
C379 O380 1.235 1_545 S
C379 O406 1.289 . S
O380 C379 1.235 1_565 S
C381 C383 1.400 . S
C381 N384 1.351 . S
C381 C386 1.501 1_545 S
C382 C383 1.387 . S
C382 N385 1.341 . S
C383 C381 1.400 . S
C383 C382 1.387 . S
N384 Co375 2.022 . S
N384 C381 1.351 . S
N384 N385 1.365 . S
N385 C382 1.341 . S
N385 N384 1.365 . S
N385 H405 0.862 . S
C386 C381 1.501 1_565 S
C386 H387 0.961 . S
C386 H388 0.961 . S
C386 H389 0.960 . S
H387 C386 0.961 . S
H388 C386 0.961 . S
H389 C386 0.960 . S
C390 N391 1.342 . S
C390 C394 1.401 . S
C390 C395 1.499 . S
N391 Co374 1.989 . S
N391 C390 1.342 . S
N391 N392 1.388 . S
N392 Co375 1.993 . S
N392 N391 1.388 . S
N392 C393 1.346 . S
C393 N392 1.346 . S
C393 C394 1.396 . S
C393 C403 1.510 . S
C394 C390 1.401 . S
C394 C393 1.396 . S
C395 C390 1.499 . S
C395 H396 0.959 . S
C395 H397 0.960 . S
C395 H398 0.961 . S
H396 C395 0.959 . S
H397 C395 0.960 . S
H398 C395 0.961 . S
O399 Co374 1.967 . S
O399 C407 1.258 . S
O400 Co375 1.941 . S
O400 C407 1.266 . S
H401 C403 0.959 . S
H402 C403 0.961 1_565 S
C403 C393 1.510 . S
C403 H401 0.959 . S
C403 H402 0.961 1_545 S
C403 H404 0.960 . S
H404 C403 0.960 . S
H405 N385 0.862 . S
O406 Co374 1.920 . S
O406 C379 1.289 . S
C407 O399 1.258 . S
C407 O400 1.266 . S
Co408 O411 1.970 . S
Co408 N425 1.989 1_545 S
Co408 O433 1.967 . S
Co408 O440 1.920 . S
Co409 O412 1.966 . S
Co409 N418 2.022 . S
Co409 N426 1.993 1_545 S
Co409 O434 1.941 . S
C410 O411 1.258 . S
C410 O412 1.263 . S
O411 Co408 1.970 . S
O411 C410 1.258 . S
O412 Co409 1.966 . S
O412 C410 1.263 . S
C413 O414 1.235 . S
C413 O440 1.289 . S
O414 C413 1.235 . S
C415 C417 1.400 . S
C415 N418 1.351 . S
C415 C420 1.501 . S
C416 C417 1.387 1_565 S
C416 N419 1.341 1_565 S
C417 C415 1.400 . S
C417 C416 1.387 1_545 S
N418 Co409 2.022 . S
N418 C415 1.351 . S
N418 N419 1.365 . S
N419 C416 1.341 1_545 S
N419 N418 1.365 . S
N419 H439 0.862 1_545 S
C420 C415 1.501 . S
C420 H421 0.961 . S
C420 H422 0.961 . S
C420 H423 0.960 . S
H421 C420 0.961 . S
H422 C420 0.961 . S
H423 C420 0.960 . S
C424 N425 1.342 . S
C424 C428 1.401 . S
C424 C429 1.499 . S
N425 Co408 1.989 1_565 S
N425 C424 1.342 . S
N425 N426 1.388 . S
N426 Co409 1.993 1_565 S
N426 N425 1.388 . S
N426 C427 1.346 . S
C427 N426 1.346 . S
C427 C428 1.396 . S
C427 C437 1.510 . S
C428 C424 1.401 . S
C428 C427 1.396 . S
C429 C424 1.499 . S
C429 H430 0.959 . S
C429 H431 0.960 . S
C429 H432 0.961 . S
H430 C429 0.959 . S
H431 C429 0.960 . S
H432 C429 0.961 . S
O433 Co408 1.967 . S
O433 C441 1.258 . S
O434 Co409 1.941 . S
O434 C441 1.266 . S
H435 C437 0.959 . S
H436 C437 0.961 . S
C437 C427 1.510 . S
C437 H435 0.959 . S
C437 H436 0.961 . S
C437 H438 0.960 . S
H438 C437 0.960 . S
H439 N419 0.862 1_565 S
O440 Co408 1.920 . S
O440 C413 1.289 . S
C441 O433 1.258 . S
C441 O434 1.266 . S
Co442 O445 1.970 1_565 S
Co442 N459 1.989 . S
Co442 O467 1.967 . S
Co442 O474 1.920 . S
Co443 O446 1.966 . S
Co443 N452 2.022 . S
Co443 N460 1.993 . S
Co443 O468 1.941 . S
C444 O445 1.258 . S
C444 O446 1.263 1_545 S
O445 Co442 1.970 1_545 S
O445 C444 1.258 . S
O446 Co443 1.966 . S
O446 C444 1.263 1_565 S
C447 O448 1.235 1_565 S
C447 O474 1.289 . S
O448 C447 1.235 1_545 S
C449 C451 1.400 . S
C449 N452 1.351 . S
C449 C454 1.501 1_565 S
C450 C451 1.387 . S
C450 N453 1.341 . S
C451 C449 1.400 . S
C451 C450 1.387 . S
N452 Co443 2.022 . S
N452 C449 1.351 . S
N452 N453 1.365 . S
N453 C450 1.341 . S
N453 N452 1.365 . S
N453 H473 0.862 . S
C454 C449 1.501 1_545 S
C454 H455 0.961 . S
C454 H456 0.961 . S
C454 H457 0.960 . S
H455 C454 0.961 . S
H456 C454 0.961 . S
H457 C454 0.960 . S
C458 N459 1.342 . S
C458 C462 1.401 . S
C458 C463 1.499 . S
N459 Co442 1.989 . S
N459 C458 1.342 . S
N459 N460 1.388 . S
N460 Co443 1.993 . S
N460 N459 1.388 . S
N460 C461 1.346 . S
C461 N460 1.346 . S
C461 C462 1.396 . S
C461 C471 1.510 . S
C462 C458 1.401 . S
C462 C461 1.396 . S
C463 C458 1.499 . S
C463 H464 0.959 . S
C463 H465 0.960 . S
C463 H466 0.961 . S
H464 C463 0.959 . S
H465 C463 0.960 . S
H466 C463 0.961 . S
O467 Co442 1.967 . S
O467 C475 1.258 . S
O468 Co443 1.941 . S
O468 C475 1.266 . S
H469 C471 0.959 . S
H470 C471 0.961 1_545 S
C471 C461 1.510 . S
C471 H469 0.959 . S
C471 H470 0.961 1_565 S
C471 H472 0.960 . S
H472 C471 0.960 . S
H473 N453 0.862 . S
O474 Co442 1.920 . S
O474 C447 1.289 . S
C475 O467 1.258 . S
C475 O468 1.266 . S
Co476 O479 1.970 . S
Co476 N493 1.989 1_565 S
Co476 O501 1.967 . S
Co476 O508 1.920 . S
Co477 O480 1.966 . S
Co477 N486 2.022 . S
Co477 N494 1.993 1_565 S
Co477 O502 1.941 . S
C478 O479 1.258 . S
C478 O480 1.263 . S
O479 Co476 1.970 . S
O479 C478 1.258 . S
O480 Co477 1.966 . S
O480 C478 1.263 . S
C481 O482 1.235 . S
C481 O508 1.289 . S
O482 C481 1.235 . S
C483 C485 1.400 . S
C483 N486 1.351 . S
C483 C488 1.501 . S
C484 C485 1.387 1_545 S
C484 N487 1.341 1_545 S
C485 C483 1.400 . S
C485 C484 1.387 1_565 S
N486 Co477 2.022 . S
N486 C483 1.351 . S
N486 N487 1.365 . S
N487 C484 1.341 1_565 S
N487 N486 1.365 . S
N487 H507 0.862 1_565 S
C488 C483 1.501 . S
C488 H489 0.961 . S
C488 H490 0.961 . S
C488 H491 0.960 . S
H489 C488 0.961 . S
H490 C488 0.961 . S
H491 C488 0.960 . S
C492 N493 1.342 . S
C492 C496 1.401 . S
C492 C497 1.499 . S
N493 Co476 1.989 1_545 S
N493 C492 1.342 . S
N493 N494 1.388 . S
N494 Co477 1.993 1_545 S
N494 N493 1.388 . S
N494 C495 1.346 . S
C495 N494 1.346 . S
C495 C496 1.396 . S
C495 C505 1.510 . S
C496 C492 1.401 . S
C496 C495 1.396 . S
C497 C492 1.499 . S
C497 H498 0.959 . S
C497 H499 0.960 . S
C497 H500 0.961 . S
H498 C497 0.959 . S
H499 C497 0.960 . S
H500 C497 0.961 . S
O501 Co476 1.967 . S
O501 C509 1.258 1_655 S
O502 Co477 1.941 . S
O502 C509 1.266 1_655 S
H503 C505 0.959 . S
H504 C505 0.961 . S
C505 C495 1.510 . S
C505 H503 0.959 . S
C505 H504 0.961 . S
C505 H506 0.960 . S
H506 C505 0.960 . S
H507 N487 0.862 1_545 S
O508 Co476 1.920 . S
O508 C481 1.289 . S
C509 O501 1.258 1_455 S
C509 O502 1.266 1_455 S
Co510 O513 1.970 1_545 S
Co510 N527 1.989 . S
Co510 O535 1.967 . S
Co510 O542 1.920 . S
Co511 O514 1.966 . S
Co511 N520 2.022 . S
Co511 N528 1.993 . S
Co511 O536 1.941 . S
C512 O513 1.258 . S
C512 O514 1.263 1_565 S
O513 Co510 1.970 1_565 S
O513 C512 1.258 . S
O514 Co511 1.966 . S
O514 C512 1.263 1_545 S
C515 O516 1.235 1_545 S
C515 O542 1.289 . S
O516 C515 1.235 1_565 S
C517 C519 1.400 . S
C517 N520 1.351 . S
C517 C522 1.501 1_545 S
C518 C519 1.387 . S
C518 N521 1.341 . S
C519 C517 1.400 . S
C519 C518 1.387 . S
N520 Co511 2.022 . S
N520 C517 1.351 . S
N520 N521 1.365 . S
N521 C518 1.341 . S
N521 N520 1.365 . S
N521 H541 0.862 . S
C522 C517 1.501 1_565 S
C522 H523 0.961 . S
C522 H524 0.961 . S
C522 H525 0.960 . S
H523 C522 0.961 . S
H524 C522 0.961 . S
H525 C522 0.960 . S
C526 N527 1.342 . S
C526 C530 1.401 . S
C526 C531 1.499 . S
N527 Co510 1.989 . S
N527 C526 1.342 . S
N527 N528 1.388 . S
N528 Co511 1.993 . S
N528 N527 1.388 . S
N528 C529 1.346 . S
C529 N528 1.346 . S
C529 C530 1.396 . S
C529 C539 1.510 . S
C530 C526 1.401 . S
C530 C529 1.396 . S
C531 C526 1.499 . S
C531 H532 0.959 . S
C531 H533 0.960 . S
C531 H534 0.961 . S
H532 C531 0.959 . S
H533 C531 0.960 . S
H534 C531 0.961 . S
O535 Co510 1.967 . S
O535 C543 1.258 . S
O536 Co511 1.941 . S
O536 C543 1.266 . S
H537 C539 0.959 . S
H538 C539 0.961 1_565 S
C539 C529 1.510 . S
C539 H537 0.959 . S
C539 H538 0.961 1_545 S
C539 H540 0.960 . S
H540 C539 0.960 . S
H541 N521 0.862 . S
O542 Co510 1.920 . S
O542 C515 1.289 . S
C543 O535 1.258 . S
C543 O536 1.266 . S
Co544 O547 1.970 . S
Co544 N561 1.989 . S
Co544 O569 1.967 . S
Co544 O576 1.920 . S
Co545 O548 1.966 . S
Co545 N554 2.022 . S
Co545 N562 1.993 . S
Co545 O570 1.941 . S
C546 O547 1.258 . S
C546 O548 1.263 . S
O547 Co544 1.970 . S
O547 C546 1.258 . S
O548 Co545 1.966 . S
O548 C546 1.263 . S
C549 O550 1.235 . S
C549 O576 1.289 . S
O550 C549 1.235 . S
C551 C553 1.400 . S
C551 N554 1.351 . S
C551 C556 1.501 . S
C552 C553 1.387 . S
C552 N555 1.341 . S
C553 C551 1.400 . S
C553 C552 1.387 . S
N554 Co545 2.022 . S
N554 C551 1.351 . S
N554 N555 1.365 . S
N555 C552 1.341 . S
N555 N554 1.365 . S
N555 H575 0.862 . S
C556 C551 1.501 . S
C556 H557 0.961 . S
C556 H558 0.961 . S
C556 H559 0.960 . S
H557 C556 0.961 . S
H558 C556 0.961 . S
H559 C556 0.960 . S
C560 N561 1.342 . S
C560 C564 1.401 . S
C560 C565 1.499 . S
N561 Co544 1.989 . S
N561 C560 1.342 . S
N561 N562 1.388 . S
N562 Co545 1.993 . S
N562 N561 1.388 . S
N562 C563 1.346 . S
C563 N562 1.346 . S
C563 C564 1.396 . S
C563 C573 1.510 . S
C564 C560 1.401 . S
C564 C563 1.396 . S
C565 C560 1.499 . S
C565 H566 0.959 . S
C565 H567 0.960 . S
C565 H568 0.961 . S
H566 C565 0.959 . S
H567 C565 0.960 . S
H568 C565 0.961 . S
O569 Co544 1.967 . S
O569 C577 1.258 1_655 S
O570 Co545 1.941 . S
O570 C577 1.266 1_655 S
H571 C573 0.959 . S
H572 C573 0.961 . S
C573 C563 1.510 . S
C573 H571 0.959 . S
C573 H572 0.961 . S
C573 H574 0.960 . S
H574 C573 0.960 . S
H575 N555 0.862 . S
O576 Co544 1.920 . S
O576 C549 1.289 . S
C577 O569 1.258 1_455 S
C577 O570 1.266 1_455 S
Co578 O581 1.970 . S
Co578 N595 1.989 . S
Co578 O603 1.967 . S
Co578 O610 1.920 . S
Co579 O582 1.966 . S
Co579 N588 2.022 . S
Co579 N596 1.993 . S
Co579 O604 1.941 . S
C580 O581 1.258 . S
C580 O582 1.263 . S
O581 Co578 1.970 . S
O581 C580 1.258 . S
O582 Co579 1.966 . S
O582 C580 1.263 . S
C583 O584 1.235 . S
C583 O610 1.289 . S
O584 C583 1.235 . S
C585 C587 1.400 . S
C585 N588 1.351 . S
C585 C590 1.501 . S
C586 C587 1.387 . S
C586 N589 1.341 . S
C587 C585 1.400 . S
C587 C586 1.387 . S
N588 Co579 2.022 . S
N588 C585 1.351 . S
N588 N589 1.365 . S
N589 C586 1.341 . S
N589 N588 1.365 . S
N589 H609 0.862 . S
C590 C585 1.501 . S
C590 H591 0.961 . S
C590 H592 0.961 . S
C590 H593 0.960 . S
H591 C590 0.961 . S
H592 C590 0.961 . S
H593 C590 0.960 . S
C594 N595 1.342 . S
C594 C598 1.401 . S
C594 C599 1.499 . S
N595 Co578 1.989 . S
N595 C594 1.342 . S
N595 N596 1.388 . S
N596 Co579 1.993 . S
N596 N595 1.388 . S
N596 C597 1.346 . S
C597 N596 1.346 . S
C597 C598 1.396 . S
C597 C607 1.510 . S
C598 C594 1.401 . S
C598 C597 1.396 . S
C599 C594 1.499 . S
C599 H600 0.959 . S
C599 H601 0.960 . S
C599 H602 0.961 . S
H600 C599 0.959 . S
H601 C599 0.960 . S
H602 C599 0.961 . S
O603 Co578 1.967 . S
O603 C611 1.258 . S
O604 Co579 1.941 . S
O604 C611 1.266 . S
H605 C607 0.959 . S
H606 C607 0.961 . S
C607 C597 1.510 . S
C607 H605 0.959 . S
C607 H606 0.961 . S
C607 H608 0.960 . S
H608 C607 0.960 . S
H609 N589 0.862 . S
O610 Co578 1.920 . S
O610 C583 1.289 . S
C611 O603 1.258 . S
C611 O604 1.266 . S
Co612 O615 1.970 . S
Co612 N629 1.989 . S
Co612 O637 1.967 . S
Co612 O644 1.920 . S
Co613 O616 1.966 . S
Co613 N622 2.022 . S
Co613 N630 1.993 . S
Co613 O638 1.941 . S
C614 O615 1.258 . S
C614 O616 1.263 . S
O615 Co612 1.970 . S
O615 C614 1.258 . S
O616 Co613 1.966 . S
O616 C614 1.263 . S
C617 O618 1.235 . S
C617 O644 1.289 . S
O618 C617 1.235 . S
C619 C621 1.400 . S
C619 N622 1.351 . S
C619 C624 1.501 . S
C620 C621 1.387 . S
C620 N623 1.341 . S
C621 C619 1.400 . S
C621 C620 1.387 . S
N622 Co613 2.022 . S
N622 C619 1.351 . S
N622 N623 1.365 . S
N623 C620 1.341 . S
N623 N622 1.365 . S
N623 H643 0.862 . S
C624 C619 1.501 . S
C624 H625 0.961 . S
C624 H626 0.961 . S
C624 H627 0.960 . S
H625 C624 0.961 . S
H626 C624 0.961 . S
H627 C624 0.960 . S
C628 N629 1.342 . S
C628 C632 1.401 . S
C628 C633 1.499 . S
N629 Co612 1.989 . S
N629 C628 1.342 . S
N629 N630 1.388 . S
N630 Co613 1.993 . S
N630 N629 1.388 . S
N630 C631 1.346 . S
C631 N630 1.346 . S
C631 C632 1.396 . S
C631 C641 1.510 . S
C632 C628 1.401 . S
C632 C631 1.396 . S
C633 C628 1.499 . S
C633 H634 0.959 . S
C633 H635 0.960 . S
C633 H636 0.961 . S
H634 C633 0.959 . S
H635 C633 0.960 . S
H636 C633 0.961 . S
O637 Co612 1.967 . S
O637 C645 1.258 . S
O638 Co613 1.941 . S
O638 C645 1.266 . S
H639 C641 0.959 . S
H640 C641 0.961 . S
C641 C631 1.510 . S
C641 H639 0.959 . S
C641 H640 0.961 . S
C641 H642 0.960 . S
H642 C641 0.960 . S
H643 N623 0.862 . S
O644 Co612 1.920 . S
O644 C617 1.289 . S
C645 O637 1.258 . S
C645 O638 1.266 . S
Co646 O649 1.970 . S
Co646 N663 1.989 . S
Co646 O671 1.967 . S
Co646 O678 1.920 . S
Co647 O650 1.966 . S
Co647 N656 2.022 . S
Co647 N664 1.993 . S
Co647 O672 1.941 . S
C648 O649 1.258 . S
C648 O650 1.263 . S
O649 Co646 1.970 . S
O649 C648 1.258 . S
O650 Co647 1.966 . S
O650 C648 1.263 . S
C651 O652 1.235 . S
C651 O678 1.289 . S
O652 C651 1.235 . S
C653 C655 1.400 . S
C653 N656 1.351 . S
C653 C658 1.501 . S
C654 C655 1.387 . S
C654 N657 1.341 . S
C655 C653 1.400 . S
C655 C654 1.387 . S
N656 Co647 2.022 . S
N656 C653 1.351 . S
N656 N657 1.365 . S
N657 C654 1.341 . S
N657 N656 1.365 . S
N657 H677 0.862 . S
C658 C653 1.501 . S
C658 H659 0.961 . S
C658 H660 0.961 . S
C658 H661 0.960 . S
H659 C658 0.961 . S
H660 C658 0.961 . S
H661 C658 0.960 . S
C662 N663 1.342 . S
C662 C666 1.401 . S
C662 C667 1.499 . S
N663 Co646 1.989 . S
N663 C662 1.342 . S
N663 N664 1.388 . S
N664 Co647 1.993 . S
N664 N663 1.388 . S
N664 C665 1.346 . S
C665 N664 1.346 . S
C665 C666 1.396 . S
C665 C675 1.510 . S
C666 C662 1.401 . S
C666 C665 1.396 . S
C667 C662 1.499 . S
C667 H668 0.959 . S
C667 H669 0.960 . S
C667 H670 0.961 . S
H668 C667 0.959 . S
H669 C667 0.960 . S
H670 C667 0.961 . S
O671 Co646 1.967 . S
O671 C679 1.258 . S
O672 Co647 1.941 . S
O672 C679 1.266 . S
H673 C675 0.959 . S
H674 C675 0.961 . S
C675 C665 1.510 . S
C675 H673 0.959 . S
C675 H674 0.961 . S
C675 H676 0.960 . S
H676 C675 0.960 . S
H677 N657 0.862 . S
O678 Co646 1.920 . S
O678 C651 1.289 . S
C679 O671 1.258 . S
C679 O672 1.266 . S
Co680 O683 1.970 . S
Co680 N697 1.989 . S
Co680 O705 1.967 . S
Co680 O712 1.920 . S
Co681 O684 1.966 . S
Co681 N690 2.022 . S
Co681 N698 1.993 . S
Co681 O706 1.941 . S
C682 O683 1.258 . S
C682 O684 1.263 . S
O683 Co680 1.970 . S
O683 C682 1.258 . S
O684 Co681 1.966 . S
O684 C682 1.263 . S
C685 O686 1.235 . S
C685 O712 1.289 . S
O686 C685 1.235 . S
C687 C689 1.400 . S
C687 N690 1.351 . S
C687 C692 1.501 . S
C688 C689 1.387 . S
C688 N691 1.341 . S
C689 C687 1.400 . S
C689 C688 1.387 . S
N690 Co681 2.022 . S
N690 C687 1.351 . S
N690 N691 1.365 . S
N691 C688 1.341 . S
N691 N690 1.365 . S
N691 H711 0.862 . S
C692 C687 1.501 . S
C692 H693 0.961 . S
C692 H694 0.961 . S
C692 H695 0.960 . S
H693 C692 0.961 . S
H694 C692 0.961 . S
H695 C692 0.960 . S
C696 N697 1.342 . S
C696 C700 1.401 . S
C696 C701 1.499 . S
N697 Co680 1.989 . S
N697 C696 1.342 . S
N697 N698 1.388 . S
N698 Co681 1.993 . S
N698 N697 1.388 . S
N698 C699 1.346 . S
C699 N698 1.346 . S
C699 C700 1.396 . S
C699 C709 1.510 . S
C700 C696 1.401 . S
C700 C699 1.396 . S
C701 C696 1.499 . S
C701 H702 0.959 . S
C701 H703 0.960 . S
C701 H704 0.961 . S
H702 C701 0.959 . S
H703 C701 0.960 . S
H704 C701 0.961 . S
O705 Co680 1.967 . S
O705 C713 1.258 1_655 S
O706 Co681 1.941 . S
O706 C713 1.266 1_655 S
H707 C709 0.959 . S
H708 C709 0.961 . S
C709 C699 1.510 . S
C709 H707 0.959 . S
C709 H708 0.961 . S
C709 H710 0.960 . S
H710 C709 0.960 . S
H711 N691 0.862 . S
O712 Co680 1.920 . S
O712 C685 1.289 . S
C713 O705 1.258 1_455 S
C713 O706 1.266 1_455 S
Co714 O717 1.970 . S
Co714 N731 1.989 . S
Co714 O739 1.967 . S
Co714 O746 1.920 . S
Co715 O718 1.966 . S
Co715 N724 2.022 . S
Co715 N732 1.993 . S
Co715 O740 1.941 . S
C716 O717 1.258 . S
C716 O718 1.263 . S
O717 Co714 1.970 . S
O717 C716 1.258 . S
O718 Co715 1.966 . S
O718 C716 1.263 . S
C719 O720 1.235 . S
C719 O746 1.289 . S
O720 C719 1.235 . S
C721 C723 1.400 . S
C721 N724 1.351 . S
C721 C726 1.501 . S
C722 C723 1.387 . S
C722 N725 1.341 . S
C723 C721 1.400 . S
C723 C722 1.387 . S
N724 Co715 2.022 . S
N724 C721 1.351 . S
N724 N725 1.365 . S
N725 C722 1.341 . S
N725 N724 1.365 . S
N725 H745 0.862 . S
C726 C721 1.501 . S
C726 H727 0.961 . S
C726 H728 0.961 . S
C726 H729 0.960 . S
H727 C726 0.961 . S
H728 C726 0.961 . S
H729 C726 0.960 . S
C730 N731 1.342 . S
C730 C734 1.401 . S
C730 C735 1.499 . S
N731 Co714 1.989 . S
N731 C730 1.342 . S
N731 N732 1.388 . S
N732 Co715 1.993 . S
N732 N731 1.388 . S
N732 C733 1.346 . S
C733 N732 1.346 . S
C733 C734 1.396 . S
C733 C743 1.510 . S
C734 C730 1.401 . S
C734 C733 1.396 . S
C735 C730 1.499 . S
C735 H736 0.959 . S
C735 H737 0.960 . S
C735 H738 0.961 . S
H736 C735 0.959 . S
H737 C735 0.960 . S
H738 C735 0.961 . S
O739 Co714 1.967 . S
O739 C747 1.258 . S
O740 Co715 1.941 . S
O740 C747 1.266 . S
H741 C743 0.959 . S
H742 C743 0.961 . S
C743 C733 1.510 . S
C743 H741 0.959 . S
C743 H742 0.961 . S
C743 H744 0.960 . S
H744 C743 0.960 . S
H745 N725 0.862 . S
O746 Co714 1.920 . S
O746 C719 1.289 . S
C747 O739 1.258 . S
C747 O740 1.266 . S
Co748 O751 1.970 . S
Co748 N765 1.989 . S
Co748 O773 1.967 . S
Co748 O780 1.920 . S
Co749 O752 1.966 . S
Co749 N758 2.022 . S
Co749 N766 1.993 . S
Co749 O774 1.941 . S
C750 O751 1.258 . S
C750 O752 1.263 . S
O751 Co748 1.970 . S
O751 C750 1.258 . S
O752 Co749 1.966 . S
O752 C750 1.263 . S
C753 O754 1.235 . S
C753 O780 1.289 . S
O754 C753 1.235 . S
C755 C757 1.400 . S
C755 N758 1.351 . S
C755 C760 1.501 . S
C756 C757 1.387 . S
C756 N759 1.341 . S
C757 C755 1.400 . S
C757 C756 1.387 . S
N758 Co749 2.022 . S
N758 C755 1.351 . S
N758 N759 1.365 . S
N759 C756 1.341 . S
N759 N758 1.365 . S
N759 H779 0.862 . S
C760 C755 1.501 . S
C760 H761 0.961 . S
C760 H762 0.961 . S
C760 H763 0.960 . S
H761 C760 0.961 . S
H762 C760 0.961 . S
H763 C760 0.960 . S
C764 N765 1.342 . S
C764 C768 1.401 . S
C764 C769 1.499 . S
N765 Co748 1.989 . S
N765 C764 1.342 . S
N765 N766 1.388 . S
N766 Co749 1.993 . S
N766 N765 1.388 . S
N766 C767 1.346 . S
C767 N766 1.346 . S
C767 C768 1.396 . S
C767 C777 1.510 . S
C768 C764 1.401 . S
C768 C767 1.396 . S
C769 C764 1.499 . S
C769 H770 0.959 . S
C769 H771 0.960 . S
C769 H772 0.961 . S
H770 C769 0.959 . S
H771 C769 0.960 . S
H772 C769 0.961 . S
O773 Co748 1.967 . S
O773 C781 1.258 . S
O774 Co749 1.941 . S
O774 C781 1.266 . S
H775 C777 0.959 . S
H776 C777 0.961 . S
C777 C767 1.510 . S
C777 H775 0.959 . S
C777 H776 0.961 . S
C777 H778 0.960 . S
H778 C777 0.960 . S
H779 N759 0.862 . S
O780 Co748 1.920 . S
O780 C753 1.289 . S
C781 O773 1.258 . S
C781 O774 1.266 . S
Co782 O785 1.970 . S
Co782 N799 1.989 . S
Co782 O807 1.967 . S
Co782 O814 1.920 . S
Co783 O786 1.966 . S
Co783 N792 2.022 . S
Co783 N800 1.993 . S
Co783 O808 1.941 . S
C784 O785 1.258 . S
C784 O786 1.263 . S
O785 Co782 1.970 . S
O785 C784 1.258 . S
O786 Co783 1.966 . S
O786 C784 1.263 . S
C787 O788 1.235 . S
C787 O814 1.289 . S
O788 C787 1.235 . S
C789 C791 1.400 . S
C789 N792 1.351 . S
C789 C794 1.501 . S
C790 C791 1.387 . S
C790 N793 1.341 . S
C791 C789 1.400 . S
C791 C790 1.387 . S
N792 Co783 2.022 . S
N792 C789 1.351 . S
N792 N793 1.365 . S
N793 C790 1.341 . S
N793 N792 1.365 . S
N793 H813 0.862 . S
C794 C789 1.501 . S
C794 H795 0.961 . S
C794 H796 0.961 . S
C794 H797 0.960 . S
H795 C794 0.961 . S
H796 C794 0.961 . S
H797 C794 0.960 . S
C798 N799 1.342 . S
C798 C802 1.401 . S
C798 C803 1.499 . S
N799 Co782 1.989 . S
N799 C798 1.342 . S
N799 N800 1.388 . S
N800 Co783 1.993 . S
N800 N799 1.388 . S
N800 C801 1.346 . S
C801 N800 1.346 . S
C801 C802 1.396 . S
C801 C811 1.510 . S
C802 C798 1.401 . S
C802 C801 1.396 . S
C803 C798 1.499 . S
C803 H804 0.959 . S
C803 H805 0.960 . S
C803 H806 0.961 . S
H804 C803 0.959 . S
H805 C803 0.960 . S
H806 C803 0.961 . S
O807 Co782 1.967 . S
O807 C815 1.258 . S
O808 Co783 1.941 . S
O808 C815 1.266 . S
H809 C811 0.959 . S
H810 C811 0.961 . S
C811 C801 1.510 . S
C811 H809 0.959 . S
C811 H810 0.961 . S
C811 H812 0.960 . S
H812 C811 0.960 . S
H813 N793 0.862 . S
O814 Co782 1.920 . S
O814 C787 1.289 . S
C815 O807 1.258 . S
C815 O808 1.266 . S
Co816 O819 1.970 . S
Co816 N833 1.989 . S
Co816 O841 1.967 . S
Co816 O848 1.920 . S
Co817 O820 1.966 . S
Co817 N826 2.022 . S
Co817 N834 1.993 . S
Co817 O842 1.941 . S
C818 O819 1.258 . S
C818 O820 1.263 . S
O819 Co816 1.970 . S
O819 C818 1.258 . S
O820 Co817 1.966 . S
O820 C818 1.263 . S
C821 O822 1.235 . S
C821 O848 1.289 . S
O822 C821 1.235 . S
C823 C825 1.400 . S
C823 N826 1.351 . S
C823 C828 1.501 . S
C824 C825 1.387 . S
C824 N827 1.341 . S
C825 C823 1.400 . S
C825 C824 1.387 . S
N826 Co817 2.022 . S
N826 C823 1.351 . S
N826 N827 1.365 . S
N827 C824 1.341 . S
N827 N826 1.365 . S
N827 H847 0.862 . S
C828 C823 1.501 . S
C828 H829 0.961 . S
C828 H830 0.961 . S
C828 H831 0.960 . S
H829 C828 0.961 . S
H830 C828 0.961 . S
H831 C828 0.960 . S
C832 N833 1.342 . S
C832 C836 1.401 . S
C832 C837 1.499 . S
N833 Co816 1.989 . S
N833 C832 1.342 . S
N833 N834 1.388 . S
N834 Co817 1.993 . S
N834 N833 1.388 . S
N834 C835 1.346 . S
C835 N834 1.346 . S
C835 C836 1.396 . S
C835 C845 1.510 . S
C836 C832 1.401 . S
C836 C835 1.396 . S
C837 C832 1.499 . S
C837 H838 0.959 . S
C837 H839 0.960 . S
C837 H840 0.961 . S
H838 C837 0.959 . S
H839 C837 0.960 . S
H840 C837 0.961 . S
O841 Co816 1.967 . S
O841 C849 1.258 1_455 S
O842 Co817 1.941 . S
O842 C849 1.266 1_455 S
H843 C845 0.959 . S
H844 C845 0.961 . S
C845 C835 1.510 . S
C845 H843 0.959 . S
C845 H844 0.961 . S
C845 H846 0.960 . S
H846 C845 0.960 . S
H847 N827 0.862 . S
O848 Co816 1.920 . S
O848 C821 1.289 . S
C849 O841 1.258 1_655 S
C849 O842 1.266 1_655 S
Co850 O853 1.970 . S
Co850 N867 1.989 . S
Co850 O875 1.967 . S
Co850 O882 1.920 . S
Co851 O854 1.966 . S
Co851 N860 2.022 . S
Co851 N868 1.993 . S
Co851 O876 1.941 . S
C852 O853 1.258 . S
C852 O854 1.263 . S
O853 Co850 1.970 . S
O853 C852 1.258 . S
O854 Co851 1.966 . S
O854 C852 1.263 . S
C855 O856 1.235 . S
C855 O882 1.289 . S
O856 C855 1.235 . S
C857 C859 1.400 . S
C857 N860 1.351 . S
C857 C862 1.501 . S
C858 C859 1.387 . S
C858 N861 1.341 . S
C859 C857 1.400 . S
C859 C858 1.387 . S
N860 Co851 2.022 . S
N860 C857 1.351 . S
N860 N861 1.365 . S
N861 C858 1.341 . S
N861 N860 1.365 . S
N861 H881 0.862 . S
C862 C857 1.501 . S
C862 H863 0.961 . S
C862 H864 0.961 . S
C862 H865 0.960 . S
H863 C862 0.961 . S
H864 C862 0.961 . S
H865 C862 0.960 . S
C866 N867 1.342 . S
C866 C870 1.401 . S
C866 C871 1.499 . S
N867 Co850 1.989 . S
N867 C866 1.342 . S
N867 N868 1.388 . S
N868 Co851 1.993 . S
N868 N867 1.388 . S
N868 C869 1.346 . S
C869 N868 1.346 . S
C869 C870 1.396 . S
C869 C879 1.510 . S
C870 C866 1.401 . S
C870 C869 1.396 . S
C871 C866 1.499 . S
C871 H872 0.959 . S
C871 H873 0.960 . S
C871 H874 0.961 . S
H872 C871 0.959 . S
H873 C871 0.960 . S
H874 C871 0.961 . S
O875 Co850 1.967 . S
O875 C883 1.258 . S
O876 Co851 1.941 . S
O876 C883 1.266 . S
H877 C879 0.959 . S
H878 C879 0.961 . S
C879 C869 1.510 . S
C879 H877 0.959 . S
C879 H878 0.961 . S
C879 H880 0.960 . S
H880 C879 0.960 . S
H881 N861 0.862 . S
O882 Co850 1.920 . S
O882 C855 1.289 . S
C883 O875 1.258 . S
C883 O876 1.266 . S
Co884 O887 1.970 . S
Co884 N901 1.989 . S
Co884 O909 1.967 . S
Co884 O916 1.920 . S
Co885 O888 1.966 . S
Co885 N894 2.022 . S
Co885 N902 1.993 . S
Co885 O910 1.941 . S
C886 O887 1.258 . S
C886 O888 1.263 . S
O887 Co884 1.970 . S
O887 C886 1.258 . S
O888 Co885 1.966 . S
O888 C886 1.263 . S
C889 O890 1.235 . S
C889 O916 1.289 . S
O890 C889 1.235 . S
C891 C893 1.400 . S
C891 N894 1.351 . S
C891 C896 1.501 . S
C892 C893 1.387 . S
C892 N895 1.341 . S
C893 C891 1.400 . S
C893 C892 1.387 . S
N894 Co885 2.022 . S
N894 C891 1.351 . S
N894 N895 1.365 . S
N895 C892 1.341 . S
N895 N894 1.365 . S
N895 H915 0.862 . S
C896 C891 1.501 . S
C896 H897 0.961 . S
C896 H898 0.961 . S
C896 H899 0.960 . S
H897 C896 0.961 . S
H898 C896 0.961 . S
H899 C896 0.960 . S
C900 N901 1.342 . S
C900 C904 1.401 . S
C900 C905 1.499 . S
N901 Co884 1.989 . S
N901 C900 1.342 . S
N901 N902 1.388 . S
N902 Co885 1.993 . S
N902 N901 1.388 . S
N902 C903 1.346 . S
C903 N902 1.346 . S
C903 C904 1.396 . S
C903 C913 1.510 . S
C904 C900 1.401 . S
C904 C903 1.396 . S
C905 C900 1.499 . S
C905 H906 0.959 . S
C905 H907 0.960 . S
C905 H908 0.961 . S
H906 C905 0.959 . S
H907 C905 0.960 . S
H908 C905 0.961 . S
O909 Co884 1.967 . S
O909 C917 1.258 . S
O910 Co885 1.941 . S
O910 C917 1.266 . S
H911 C913 0.959 . S
H912 C913 0.961 . S
C913 C903 1.510 . S
C913 H911 0.959 . S
C913 H912 0.961 . S
C913 H914 0.960 . S
H914 C913 0.960 . S
H915 N895 0.862 . S
O916 Co884 1.920 . S
O916 C889 1.289 . S
C917 O909 1.258 . S
C917 O910 1.266 . S
Co918 O921 1.970 . S
Co918 N935 1.989 . S
Co918 O943 1.967 . S
Co918 O950 1.920 . S
Co919 O922 1.966 . S
Co919 N928 2.022 . S
Co919 N936 1.993 . S
Co919 O944 1.941 . S
C920 O921 1.258 . S
C920 O922 1.263 . S
O921 Co918 1.970 . S
O921 C920 1.258 . S
O922 Co919 1.966 . S
O922 C920 1.263 . S
C923 O924 1.235 . S
C923 O950 1.289 . S
O924 C923 1.235 . S
C925 C927 1.400 . S
C925 N928 1.351 . S
C925 C930 1.501 . S
C926 C927 1.387 . S
C926 N929 1.341 . S
C927 C925 1.400 . S
C927 C926 1.387 . S
N928 Co919 2.022 . S
N928 C925 1.351 . S
N928 N929 1.365 . S
N929 C926 1.341 . S
N929 N928 1.365 . S
N929 H949 0.862 . S
C930 C925 1.501 . S
C930 H931 0.961 . S
C930 H932 0.961 . S
C930 H933 0.960 . S
H931 C930 0.961 . S
H932 C930 0.961 . S
H933 C930 0.960 . S
C934 N935 1.342 . S
C934 C938 1.401 . S
C934 C939 1.499 . S
N935 Co918 1.989 . S
N935 C934 1.342 . S
N935 N936 1.388 . S
N936 Co919 1.993 . S
N936 N935 1.388 . S
N936 C937 1.346 . S
C937 N936 1.346 . S
C937 C938 1.396 . S
C937 C947 1.510 . S
C938 C934 1.401 . S
C938 C937 1.396 . S
C939 C934 1.499 . S
C939 H940 0.959 . S
C939 H941 0.960 . S
C939 H942 0.961 . S
H940 C939 0.959 . S
H941 C939 0.960 . S
H942 C939 0.961 . S
O943 Co918 1.967 . S
O943 C951 1.258 . S
O944 Co919 1.941 . S
O944 C951 1.266 . S
H945 C947 0.959 . S
H946 C947 0.961 . S
C947 C937 1.510 . S
C947 H945 0.959 . S
C947 H946 0.961 . S
C947 H948 0.960 . S
H948 C947 0.960 . S
H949 N929 0.862 . S
O950 Co918 1.920 . S
O950 C923 1.289 . S
C951 O943 1.258 . S
C951 O944 1.266 . S
Co952 O955 1.970 . S
Co952 N969 1.989 . S
Co952 O977 1.967 . S
Co952 O984 1.920 . S
Co953 O956 1.966 . S
Co953 N962 2.022 . S
Co953 N970 1.993 . S
Co953 O978 1.941 . S
C954 O955 1.258 . S
C954 O956 1.263 . S
O955 Co952 1.970 . S
O955 C954 1.258 . S
O956 Co953 1.966 . S
O956 C954 1.263 . S
C957 O958 1.235 . S
C957 O984 1.289 . S
O958 C957 1.235 . S
C959 C961 1.400 . S
C959 N962 1.351 . S
C959 C964 1.501 . S
C960 C961 1.387 . S
C960 N963 1.341 . S
C961 C959 1.400 . S
C961 C960 1.387 . S
N962 Co953 2.022 . S
N962 C959 1.351 . S
N962 N963 1.365 . S
N963 C960 1.341 . S
N963 N962 1.365 . S
N963 H983 0.862 . S
C964 C959 1.501 . S
C964 H965 0.961 . S
C964 H966 0.961 . S
C964 H967 0.960 . S
H965 C964 0.961 . S
H966 C964 0.961 . S
H967 C964 0.960 . S
C968 N969 1.342 . S
C968 C972 1.401 . S
C968 C973 1.499 . S
N969 Co952 1.989 . S
N969 C968 1.342 . S
N969 N970 1.388 . S
N970 Co953 1.993 . S
N970 N969 1.388 . S
N970 C971 1.346 . S
C971 N970 1.346 . S
C971 C972 1.396 . S
C971 C981 1.510 . S
C972 C968 1.401 . S
C972 C971 1.396 . S
C973 C968 1.499 . S
C973 H974 0.959 . S
C973 H975 0.960 . S
C973 H976 0.961 . S
H974 C973 0.959 . S
H975 C973 0.960 . S
H976 C973 0.961 . S
O977 Co952 1.967 . S
O977 C985 1.258 1_455 S
O978 Co953 1.941 . S
O978 C985 1.266 1_455 S
H979 C981 0.959 . S
H980 C981 0.961 . S
C981 C971 1.510 . S
C981 H979 0.959 . S
C981 H980 0.961 . S
C981 H982 0.960 . S
H982 C981 0.960 . S
H983 N963 0.862 . S
O984 Co952 1.920 . S
O984 C957 1.289 . S
C985 O977 1.258 1_655 S
C985 O978 1.266 1_655 S
Co986 O989 1.970 . S
Co986 N1003 1.989 . S
Co986 O1011 1.967 . S
Co986 O1018 1.920 . S
Co987 O990 1.966 . S
Co987 N996 2.022 . S
Co987 N1004 1.993 . S
Co987 O1012 1.941 . S
C988 O989 1.258 . S
C988 O990 1.263 . S
O989 Co986 1.970 . S
O989 C988 1.258 . S
O990 Co987 1.966 . S
O990 C988 1.263 . S
C991 O992 1.235 . S
C991 O1018 1.289 . S
O992 C991 1.235 . S
C993 C995 1.400 . S
C993 N996 1.351 . S
C993 C998 1.501 . S
C994 C995 1.387 . S
C994 N997 1.341 . S
C995 C993 1.400 . S
C995 C994 1.387 . S
N996 Co987 2.022 . S
N996 C993 1.351 . S
N996 N997 1.365 . S
N997 C994 1.341 . S
N997 N996 1.365 . S
N997 H1017 0.862 . S
C998 C993 1.501 . S
C998 H999 0.961 . S
C998 H1000 0.961 . S
C998 H1001 0.960 . S
H999 C998 0.961 . S
H1000 C998 0.961 . S
H1001 C998 0.960 . S
C1002 N1003 1.342 . S
C1002 C1006 1.401 . S
C1002 C1007 1.499 . S
N1003 Co986 1.989 . S
N1003 C1002 1.342 . S
N1003 N1004 1.388 . S
N1004 Co987 1.993 . S
N1004 N1003 1.388 . S
N1004 C1005 1.346 . S
C1005 N1004 1.346 . S
C1005 C1006 1.396 . S
C1005 C1015 1.510 . S
C1006 C1002 1.401 . S
C1006 C1005 1.396 . S
C1007 C1002 1.499 . S
C1007 H1008 0.959 . S
C1007 H1009 0.960 . S
C1007 H1010 0.961 . S
H1008 C1007 0.959 . S
H1009 C1007 0.960 . S
H1010 C1007 0.961 . S
O1011 Co986 1.967 . S
O1011 C1019 1.258 . S
O1012 Co987 1.941 . S
O1012 C1019 1.266 . S
H1013 C1015 0.959 . S
H1014 C1015 0.961 . S
C1015 C1005 1.510 . S
C1015 H1013 0.959 . S
C1015 H1014 0.961 . S
C1015 H1016 0.960 . S
H1016 C1015 0.960 . S
H1017 N997 0.862 . S
O1018 Co986 1.920 . S
O1018 C991 1.289 . S
C1019 O1011 1.258 . S
C1019 O1012 1.266 . S
Co1020 O1023 1.970 . S
Co1020 N1037 1.989 . S
Co1020 O1045 1.967 . S
Co1020 O1052 1.920 . S
Co1021 O1024 1.966 . S
Co1021 N1030 2.022 . S
Co1021 N1038 1.993 . S
Co1021 O1046 1.941 . S
C1022 O1023 1.258 . S
C1022 O1024 1.263 . S
O1023 Co1020 1.970 . S
O1023 C1022 1.258 . S
O1024 Co1021 1.966 . S
O1024 C1022 1.263 . S
C1025 O1026 1.235 . S
C1025 O1052 1.289 . S
O1026 C1025 1.235 . S
C1027 C1029 1.400 . S
C1027 N1030 1.351 . S
C1027 C1032 1.501 . S
C1028 C1029 1.387 . S
C1028 N1031 1.341 . S
C1029 C1027 1.400 . S
C1029 C1028 1.387 . S
N1030 Co1021 2.022 . S
N1030 C1027 1.351 . S
N1030 N1031 1.365 . S
N1031 C1028 1.341 . S
N1031 N1030 1.365 . S
N1031 H1051 0.862 . S
C1032 C1027 1.501 . S
C1032 H1033 0.961 . S
C1032 H1034 0.961 . S
C1032 H1035 0.960 . S
H1033 C1032 0.961 . S
H1034 C1032 0.961 . S
H1035 C1032 0.960 . S
C1036 N1037 1.342 . S
C1036 C1040 1.401 . S
C1036 C1041 1.499 . S
N1037 Co1020 1.989 . S
N1037 C1036 1.342 . S
N1037 N1038 1.388 . S
N1038 Co1021 1.993 . S
N1038 N1037 1.388 . S
N1038 C1039 1.346 . S
C1039 N1038 1.346 . S
C1039 C1040 1.396 . S
C1039 C1049 1.510 . S
C1040 C1036 1.401 . S
C1040 C1039 1.396 . S
C1041 C1036 1.499 . S
C1041 H1042 0.959 . S
C1041 H1043 0.960 . S
C1041 H1044 0.961 . S
H1042 C1041 0.959 . S
H1043 C1041 0.960 . S
H1044 C1041 0.961 . S
O1045 Co1020 1.967 . S
O1045 C1053 1.258 . S
O1046 Co1021 1.941 . S
O1046 C1053 1.266 . S
H1047 C1049 0.959 . S
H1048 C1049 0.961 . S
C1049 C1039 1.510 . S
C1049 H1047 0.959 . S
C1049 H1048 0.961 . S
C1049 H1050 0.960 . S
H1050 C1049 0.960 . S
H1051 N1031 0.862 . S
O1052 Co1020 1.920 . S
O1052 C1025 1.289 . S
C1053 O1045 1.258 . S
C1053 O1046 1.266 . S
Co1054 O1057 1.970 . S
Co1054 N1071 1.989 . S
Co1054 O1079 1.967 . S
Co1054 O1086 1.920 . S
Co1055 O1058 1.966 . S
Co1055 N1064 2.022 . S
Co1055 N1072 1.993 . S
Co1055 O1080 1.941 . S
C1056 O1057 1.258 . S
C1056 O1058 1.263 . S
O1057 Co1054 1.970 . S
O1057 C1056 1.258 . S
O1058 Co1055 1.966 . S
O1058 C1056 1.263 . S
C1059 O1060 1.235 . S
C1059 O1086 1.289 . S
O1060 C1059 1.235 . S
C1061 C1063 1.400 . S
C1061 N1064 1.351 . S
C1061 C1066 1.501 . S
C1062 C1063 1.387 . S
C1062 N1065 1.341 . S
C1063 C1061 1.400 . S
C1063 C1062 1.387 . S
N1064 Co1055 2.022 . S
N1064 C1061 1.351 . S
N1064 N1065 1.365 . S
N1065 C1062 1.341 . S
N1065 N1064 1.365 . S
N1065 H1085 0.862 . S
C1066 C1061 1.501 . S
C1066 H1067 0.961 . S
C1066 H1068 0.961 . S
C1066 H1069 0.960 . S
H1067 C1066 0.961 . S
H1068 C1066 0.961 . S
H1069 C1066 0.960 . S
C1070 N1071 1.342 . S
C1070 C1074 1.401 . S
C1070 C1075 1.499 . S
N1071 Co1054 1.989 . S
N1071 C1070 1.342 . S
N1071 N1072 1.388 . S
N1072 Co1055 1.993 . S
N1072 N1071 1.388 . S
N1072 C1073 1.346 . S
C1073 N1072 1.346 . S
C1073 C1074 1.396 . S
C1073 C1083 1.510 . S
C1074 C1070 1.401 . S
C1074 C1073 1.396 . S
C1075 C1070 1.499 . S
C1075 H1076 0.959 . S
C1075 H1077 0.960 . S
C1075 H1078 0.961 . S
H1076 C1075 0.959 . S
H1077 C1075 0.960 . S
H1078 C1075 0.961 . S
O1079 Co1054 1.967 . S
O1079 C1087 1.258 . S
O1080 Co1055 1.941 . S
O1080 C1087 1.266 . S
H1081 C1083 0.959 . S
H1082 C1083 0.961 . S
C1083 C1073 1.510 . S
C1083 H1081 0.959 . S
C1083 H1082 0.961 . S
C1083 H1084 0.960 . S
H1084 C1083 0.960 . S
H1085 N1065 0.862 . S
O1086 Co1054 1.920 . S
O1086 C1059 1.289 . S
C1087 O1079 1.258 . S
C1087 O1080 1.266 . S
C9 C247 1.443 1_545 S
C43 C145 1.443 1_545 S
C77 C179 1.443 1_565 S
C213 C111 1.443 1_545 S
C519 C281 1.443 1_545 S
C417 C315 1.443 1_545 S
C451 C349 1.443 1_565 S
C485 C383 1.443 1_565 S
C553 C791 1.443 . S
C689 C587 1.443 . S
C723 C621 1.443 . S
C655 C757 1.443 . S
C825 C1063 1.443 . S
C961 C859 1.443 . S
C893 C995 1.443 . S
C1029 C927 1.443 . S
C954 C20 0.801 . S
C54 C444 0.803 . S
C1022 C88 0.802 . S
C122 C512 0.803 1_455 S
C156 C818 0.802 . S
C308 C190 0.803 1_655 S
C224 C886 0.801 . S
C258 C376 0.803 . S
C682 C292 0.801 . S
C326 C172 0.803 . S
C750 C360 0.802 . S
C240 C394 0.803 1_455 S
C428 C546 0.802 . S
C462 C36 0.803 1_655 S
C496 C614 0.801 . S
C104 C530 0.803 . S
C564 C410 0.803 . S
C988 C598 0.801 1_455 S
C632 C478 0.802 . S
C666 C1056 0.802 . S
C700 C274 0.802 . S
C852 C734 0.801 . S
C768 C342 0.803 . S
C802 C920 0.802 1_655 S
C138 C836 0.803 . S
C716 C870 0.801 1_655 S
C206 C904 0.802 . S
C784 C938 0.802 . S
C972 C2 0.802 . S
C580 C1006 0.801 . S
C1040 C70 0.803 . S
C648 C1074 0.802 1_655 S
C141 C5 2.046 1_565 S
C175 C39 2.046 . S
C73 C209 2.047 1_565 S
C243 C107 2.047 1_554 S
C413 C277 2.046 1_545 S
C447 C311 2.046 . S
C345 C481 2.046 1_545 S
C379 C515 2.046 1_554 S
C685 C549 2.046 . S
C719 C583 2.046 1_554 S
C617 C753 2.046 . S
C651 C787 2.045 . S
C957 C821 2.046 . S
C991 C855 2.046 1_556 S
C889 C1025 2.046 . S
C923 C1059 2.045 . S
C645 C33 2.586 . S
C67 C679 2.588 1_455 S
C577 C101 2.587 1_455 S
C135 C611 2.587 . S
C169 C781 2.587 . S
C815 C203 2.588 . S
C713 C237 2.586 1_455 S
C271 C747 2.587 1_455 S
C305 C917 2.586 . S
C951 C339 2.588 1_455 S
C849 C373 2.587 1_655 S
C407 C883 2.587 . S
C441 C1053 2.587 . S
C1087 C475 2.588 . S
C509 C985 2.586 1_455 S
C543 C1019 2.587 1_655 S
